# Generated by pormake.
# Topology zzz, (3,6)-cn, num edge types: 1
# Building blocks:
#     Node 0, Type 0, BuildingBlock: KAKCAD_clean_linker_0, # of connection points: 3
#     Node 1, Type 0, BuildingBlock: KAKCAD_clean_linker_0, # of connection points: 3
#     Node 2, Type 0, BuildingBlock: KAKCAD_clean_linker_0, # of connection points: 3
#     Node 3, Type 0, BuildingBlock: KAKCAD_clean_linker_0, # of connection points: 3
#     Node 4, Type 0, BuildingBlock: KAKCAD_clean_linker_0, # of connection points: 3
#     Node 5, Type 0, BuildingBlock: KAKCAD_clean_linker_0, # of connection points: 3
#     Node 6, Type 0, BuildingBlock: KAKCAD_clean_linker_0, # of connection points: 3
#     Node 7, Type 0, BuildingBlock: KAKCAD_clean_linker_0, # of connection points: 3
#     Node 8, Type 1, BuildingBlock: PAMTUU_clean_sbu_0, # of connection points: 6
#     Node 9, Type 1, BuildingBlock: PAMTUU_clean_sbu_0, # of connection points: 6
#     Node 10, Type 1, BuildingBlock: PAMTUU_clean_sbu_0, # of connection points: 6
#     Node 11, Type 1, BuildingBlock: PAMTUU_clean_sbu_0, # of connection points: 6
#     Edge 12, Type (0, 1), BuildingBlock: XUDNAN_clean_linker_2, # of connection points: 2
#     Edge 13, Type (0, 1), BuildingBlock: XUDNAN_clean_linker_2, # of connection points: 2
#     Edge 14, Type (0, 1), BuildingBlock: XUDNAN_clean_linker_2, # of connection points: 2
#     Edge 15, Type (0, 1), BuildingBlock: XUDNAN_clean_linker_2, # of connection points: 2
#     Edge 16, Type (0, 1), BuildingBlock: XUDNAN_clean_linker_2, # of connection points: 2
#     Edge 17, Type (0, 1), BuildingBlock: XUDNAN_clean_linker_2, # of connection points: 2
#     Edge 18, Type (0, 1), BuildingBlock: XUDNAN_clean_linker_2, # of connection points: 2
#     Edge 19, Type (0, 1), BuildingBlock: XUDNAN_clean_linker_2, # of connection points: 2
#     Edge 20, Type (0, 1), BuildingBlock: XUDNAN_clean_linker_2, # of connection points: 2
#     Edge 21, Type (0, 1), BuildingBlock: XUDNAN_clean_linker_2, # of connection points: 2
#     Edge 22, Type (0, 1), BuildingBlock: XUDNAN_clean_linker_2, # of connection points: 2
#     Edge 23, Type (0, 1), BuildingBlock: XUDNAN_clean_linker_2, # of connection points: 2
#     Edge 24, Type (0, 1), BuildingBlock: XUDNAN_clean_linker_2, # of connection points: 2
#     Edge 25, Type (0, 1), BuildingBlock: XUDNAN_clean_linker_2, # of connection points: 2
#     Edge 26, Type (0, 1), BuildingBlock: XUDNAN_clean_linker_2, # of connection points: 2
#     Edge 27, Type (0, 1), BuildingBlock: XUDNAN_clean_linker_2, # of connection points: 2
#     Edge 28, Type (0, 1), BuildingBlock: XUDNAN_clean_linker_2, # of connection points: 2
#     Edge 29, Type (0, 1), BuildingBlock: XUDNAN_clean_linker_2, # of connection points: 2
#     Edge 30, Type (0, 1), BuildingBlock: XUDNAN_clean_linker_2, # of connection points: 2
#     Edge 31, Type (0, 1), BuildingBlock: XUDNAN_clean_linker_2, # of connection points: 2
#     Edge 32, Type (0, 1), BuildingBlock: XUDNAN_clean_linker_2, # of connection points: 2
#     Edge 33, Type (0, 1), BuildingBlock: XUDNAN_clean_linker_2, # of connection points: 2
#     Edge 34, Type (0, 1), BuildingBlock: XUDNAN_clean_linker_2, # of connection points: 2
#     Edge 35, Type (0, 1), BuildingBlock: XUDNAN_clean_linker_2, # of connection points: 2
# Relax obj value: 0.379
# Max RMSD: 0.262
# Mean RMSD: 0.220
data_MOF--net-zzz--node1-PAMTUU_clean_sbu_0--node2-KAKCAD_clean_linker_0--edge1-XUDNAN_clean_linker_2
_symmetry_space_group_name_H-M    P1
_symmetry_Int_Tables_number       1
_symmetry_cell_setting            triclinic
loop_
_symmetry_equiv_pos_as_xyz
'x, y, z'
_cell_length_a     57.883913
_cell_length_b     61.8303
_cell_length_c     20.615794
_cell_angle_alpha  98.685192
_cell_angle_beta   89.906287
_cell_angle_gamma 89.798702
loop_
_atom_site_label
_atom_site_type_symbol
_atom_site_fract_x
_atom_site_fract_y
_atom_site_fract_z
_atom_type_partial_charge
C0 C 0.78081 0.41226 0.07653 0.0
C1 C 0.79796 0.39773 0.09192 0.0
C2 C 0.76971 0.42641 0.12601 0.0
C3 C 0.77488 0.42596 0.19253 0.0
C4 C 0.79046 0.41 0.20803 0.0
C5 C 0.80204 0.39621 0.15837 0.0
C6 C 0.76542 0.44316 0.24453 0.0
C7 C 0.74362 0.45239 0.23708 0.0
C8 C 0.73567 0.47065 0.28028 0.0
C9 C 0.74961 0.47932 0.33431 0.0
C10 C 0.77103 0.46931 0.34482 0.0
C11 C 0.77882 0.4516 0.29922 0.0
C12 C 0.78571 0.47621 0.40346 0.0
C13 C 0.80102 0.49391 0.40597 0.0
C14 C 0.78764 0.46233 0.45113 0.0
C15 C 0.80474 0.46573 0.49951 0.0
C16 C 0.8206 0.48307 0.50155 0.0
C17 C 0.71359 0.4809 0.26297 0.0
C18 C 0.71347 0.50224 0.24756 0.0
C19 C 0.69412 0.46763 0.24626 0.0
C20 C 0.67608 0.47467 0.20919 0.0
C21 C 0.67701 0.49521 0.18788 0.0
C22 C 0.69536 0.50934 0.21052 0.0
C23 C 0.81829 0.49731 0.45451 0.0
H24 H 0.7768 0.41356 0.02597 0.0
H25 H 0.75802 0.43849 0.11143 0.0
H26 H 0.79443 0.40866 0.25857 0.0
H27 H 0.81517 0.38532 0.17243 0.0
H28 H 0.73293 0.44579 0.19576 0.0
H29 H 0.79579 0.44482 0.30594 0.0
H30 H 0.7437 0.49335 0.36825 0.0
H31 H 0.80027 0.50453 0.36876 0.0
H32 H 0.77647 0.44822 0.44921 0.0
H33 H 0.80609 0.4541 0.5337 0.0
H34 H 0.72826 0.51279 0.2593 0.0
H35 H 0.69374 0.45106 0.25737 0.0
H36 H 0.83002 0.51092 0.45462 0.0
H37 H 0.69643 0.52549 0.1965 0.0
H38 H 0.66238 0.46326 0.19292 0.0
C39 C 0.0749 0.76126 0.13448 0.0
C40 C 0.09164 0.77729 0.15456 0.0
C41 C 0.06573 0.74871 0.17918 0.0
C42 C 0.07312 0.75194 0.24481 0.0
C43 C 0.09099 0.76689 0.26368 0.0
C44 C 0.10016 0.77944 0.219 0.0
C45 C 0.06036 0.74175 0.29478 0.0
C46 C 0.05322 0.71992 0.28194 0.0
C47 C 0.03879 0.71096 0.32607 0.0
C48 C 0.03115 0.72452 0.38365 0.0
C49 C 0.03865 0.74643 0.3976 0.0
C50 C 0.0533 0.75469 0.35303 0.0
C51 C 0.03012 0.76195 0.45484 0.0
C52 C 1.00638 0.76619 0.46349 0.0
C53 C 0.04588 0.77581 0.49253 0.0
C54 C 0.03826 0.79463 0.5332 0.0
C55 C 1.01463 0.80007 0.53745 0.0
C56 C 0.03089 0.68786 0.30815 0.0
C57 C 1.00765 0.68214 0.31516 0.0
C58 C 0.04616 0.67186 0.27657 0.0
C59 C 0.03809 0.6514 0.24763 0.0
C60 C 1.01452 0.64614 0.25035 0.0
C61 C 0.99958 0.66149 0.28688 0.0
C62 C 0.99871 0.78507 0.50444 0.0
H63 H 0.06779 0.75937 0.08539 0.0
H64 H 0.05181 0.7375 0.16332 0.0
H65 H 0.09727 0.76946 0.31372 0.0
H66 H 0.11332 0.79141 0.23555 0.0
H67 H 0.0584 0.71008 0.23619 0.0
H68 H 0.05808 0.77183 0.36189 0.0
H69 H 0.01963 0.71812 0.41752 0.0
H70 H 0.99385 0.75586 0.43483 0.0
H71 H 0.0643 0.77291 0.48683 0.0
H72 H 0.05112 0.80571 0.55731 0.0
H73 H 0.99539 0.69399 0.33928 0.0
H74 H 0.06431 0.67551 0.27152 0.0
H75 H 0.98034 0.78846 0.50761 0.0
H76 H 0.98143 0.65789 0.2917 0.0
H77 H 0.05023 0.64025 0.21995 0.0
C78 C 0.76365 0.05977 0.11256 0.0
C79 C 0.74794 0.07682 0.1328 0.0
C80 C 0.77268 0.04733 0.15767 0.0
C81 C 0.76655 0.05185 0.22444 0.0
C82 C 0.75162 0.06953 0.24521 0.0
C83 C 0.74236 0.08183 0.19987 0.0
C84 C 0.77539 0.03781 0.27155 0.0
C85 C 0.79797 0.02976 0.26546 0.0
C86 C 0.80643 0.01521 0.30576 0.0
C87 C 0.79176 0.00877 0.35461 0.0
C88 C 0.76904 0.0176 0.36366 0.0
C89 C 0.76115 0.03178 0.32086 0.0
C90 C 0.75267 0.01222 0.41562 0.0
C91 C 0.74898 0.99057 0.42621 0.0
C92 C 0.73844 0.02875 0.44965 0.0
C93 C 0.72007 0.02369 0.48913 0.0
C94 C 0.71534 0.0019 0.49657 0.0
C95 C 0.83063 0.00723 0.29257 0.0
C96 C 0.83515 0.98528 0.26625 0.0
C97 C 0.8482 0.02275 0.2895 0.0
C98 C 0.86883 0.01697 0.25575 0.0
C99 C 0.87271 0.99539 0.22539 0.0
C100 C 0.85612 0.97938 0.23329 0.0
C101 C 0.73059 0.98548 0.46613 0.0
H102 H 0.76846 0.05559 0.0614 0.0
H103 H 0.78392 0.0337 0.13962 0.0
H104 H 0.74683 0.07368 0.29639 0.0
H105 H 0.73005 0.09465 0.21712 0.0
H106 H 0.80916 0.03469 0.2281 0.0
H107 H 0.74344 0.0376 0.32457 0.0
H108 H 0.79814 0.99757 0.38611 0.0
H109 H 0.75953 0.97741 0.40103 0.0
H110 H 0.74094 0.04569 0.44365 0.0
H111 H 0.7089 0.03688 0.51106 0.0
H112 H 0.82182 0.97304 0.26663 0.0
H113 H 0.84517 0.03982 0.30875 0.0
H114 H 0.728 0.96853 0.47169 0.0
H115 H 0.85873 0.9626 0.2103 0.0
H116 H 0.88138 0.02959 0.25089 0.0
C117 C 0.54833 0.74112 0.3878 0.0
C118 C 0.56708 0.72639 0.38339 0.0
C119 C 0.54424 0.75369 0.33779 0.0
C120 C 0.55882 0.75169 0.28277 0.0
C121 C 0.57859 0.73843 0.28106 0.0
C122 C 0.58277 0.72601 0.33105 0.0
C123 C 0.55064 0.75873 0.22143 0.0
C124 C 0.5485 0.78085 0.2138 0.0
C125 C 0.53997 0.78661 0.15447 0.0
C126 C 0.53299 0.76986 0.10411 0.0
C127 C 0.53506 0.74784 0.11193 0.0
C128 C 0.54407 0.74245 0.17024 0.0
C129 C 0.5275 0.73004 0.0605 0.0
C130 C 0.50427 0.7284 0.04096 0.0
C131 C 0.5429 0.71305 0.03743 0.0
C132 C 0.53501 0.69419 0.99816 0.0
C133 C 0.5115 0.69186 0.98178 0.0
C134 C 0.53902 0.80987 0.14332 0.0
C135 C 0.52069 0.81734 0.1077 0.0
C136 C 0.55717 0.82436 0.16404 0.0
C137 C 0.5574 0.84548 0.14722 0.0
C138 C 0.53958 0.85249 0.10897 0.0
C139 C 0.52103 0.83833 0.09045 0.0
C140 C 0.49627 0.70935 1.00222 0.0
H141 H 0.53584 0.74175 0.4272 0.0
H142 H 0.52867 0.76353 0.33946 0.0
H143 H 0.58995 0.73654 0.23874 0.0
H144 H 0.59764 0.7152 0.32687 0.0
H145 H 0.5535 0.79342 0.25371 0.0
H146 H 0.54536 0.72538 0.17665 0.0
H147 H 0.52659 0.77381 0.05792 0.0
H148 H 0.49209 0.74129 0.05873 0.0
H149 H 0.56087 0.71398 0.05216 0.0
H150 H 0.54712 0.68092 0.98388 0.0
H151 H 0.50616 0.80683 0.09223 0.0
H152 H 0.57168 0.81912 0.19095 0.0
H153 H 0.47809 0.70799 0.99003 0.0
H154 H 0.50683 0.84343 0.06205 0.0
H155 H 0.57198 0.85601 0.16191 0.0
C156 C 0.24804 0.5175 0.54651 0.0
C157 C 0.22826 0.50655 0.56326 0.0
C158 C 0.25772 0.51233 0.48418 0.0
C159 C 0.24764 0.49628 0.43726 0.0
C160 C 0.22828 0.48483 0.45463 0.0
C161 C 0.21873 0.48983 0.51743 0.0
C162 C 0.25703 0.49241 0.36981 0.0
C163 C 0.28077 0.49006 0.36058 0.0
C164 C 0.29069 0.48925 0.29849 0.0
C165 C 0.27632 0.49088 0.24378 0.0
C166 C 0.25191 0.49277 0.25195 0.0
C167 C 0.24267 0.49305 0.31554 0.0
C168 C 0.23555 0.49464 0.19613 0.0
C169 C 0.21503 0.50707 0.2073 0.0
C170 C 0.2391 0.4829 0.13297 0.0
C171 C 0.22209 0.48258 0.08406 0.0
C172 C 0.20075 0.49369 0.09695 0.0
C173 C 0.31634 0.48849 0.29657 0.0
C174 C 0.32861 0.50821 0.30193 0.0
C175 C 0.32765 0.46991 0.31324 0.0
C176 C 0.35002 0.47142 0.33952 0.0
C177 C 0.36166 0.4916 0.35009 0.0
C178 C 0.351 0.50976 0.32827 0.0
C179 C 0.19786 0.50635 0.15918 0.0
H180 H 0.25555 0.53053 0.58099 0.0
H181 H 0.27257 0.52153 0.47179 0.0
H182 H 0.22032 0.47231 0.41934 0.0
H183 H 0.20323 0.48141 0.52905 0.0
H184 H 0.29181 0.48948 0.40283 0.0
H185 H 0.2242 0.49431 0.32362 0.0
H186 H 0.28408 0.49097 0.196 0.0
H187 H 0.21181 0.51707 0.25424 0.0
H188 H 0.25465 0.47325 0.12183 0.0
H189 H 0.22566 0.47323 0.03639 0.0
H190 H 0.32009 0.52295 0.29165 0.0
H191 H 0.31838 0.45463 0.31123 0.0
H192 H 0.18196 0.51518 0.17231 0.0
H193 H 0.3592 0.52564 0.33595 0.0
H194 H 0.35776 0.45698 0.35435 0.0
C195 C 0.05361 0.21255 0.43736 0.0
C196 C 0.07135 0.19673 0.43205 0.0
C197 C 0.05386 0.22908 0.39822 0.0
C198 C 0.07166 0.22988 0.35257 0.0
C199 C 0.09036 0.21537 0.35098 0.0
C200 C 0.09039 0.19911 0.39115 0.0
C201 C 0.06845 0.24296 0.29929 0.0
C202 C 0.06603 0.26564 0.31238 0.0
C203 C 0.06064 0.27781 0.26188 0.0
C204 C 0.05675 0.26664 0.19761 0.0
C205 C 0.05895 0.24363 0.18477 0.0
C206 C 0.06521 0.23214 0.23561 0.0
C207 C 0.05423 0.23032 0.12028 0.0
C208 C 0.03514 0.2162 0.11487 0.0
C209 C 0.072 0.22641 0.07364 0.0
C210 C 0.07173 0.20754 0.02636 0.0
C211 C 0.05382 0.19206 0.02549 0.0
C212 C 0.05823 0.30196 0.27961 0.0
C213 C 0.03822 0.313 0.26363 0.0
C214 C 0.07454 0.31349 0.322 0.0
C215 C 0.07005 0.33482 0.35227 0.0
C216 C 0.04939 0.3453 0.33991 0.0
C217 C 0.03385 0.33459 0.29359 0.0
C218 C 0.03491 0.19729 0.06806 0.0
H219 H 0.03852 0.21122 0.46759 0.0
H220 H 0.03918 0.24006 0.39961 0.0
H221 H 0.1043 0.21585 0.31607 0.0
H222 H 0.10464 0.18759 0.38712 0.0
H223 H 0.06792 0.27376 0.36252 0.0
H224 H 0.06661 0.21443 0.22601 0.0
H225 H 0.05201 0.27565 0.15844 0.0
H226 H 0.02145 0.21864 0.15121 0.0
H227 H 0.0871 0.23683 0.07751 0.0
H228 H 0.08633 0.20437 0.99337 0.0
H229 H 0.02529 0.30451 0.23155 0.0
H230 H 0.09026 0.30553 0.33463 0.0
H231 H 0.02086 0.18586 0.06954 0.0
H232 H 0.01775 0.34244 0.28356 0.0
H233 H 0.08233 0.34285 0.38752 0.0
C234 C 0.28383 0.06764 0.50254 0.0
C235 C 0.30623 0.07583 0.49751 0.0
C236 C 0.27095 0.06073 0.44629 0.0
C237 C 0.27959 0.06299 0.38359 0.0
C238 C 0.30006 0.07504 0.38039 0.0
C239 C 0.31347 0.08101 0.4365 0.0
C240 C 0.26924 0.0502 0.32306 0.0
C241 C 0.24637 0.04286 0.32346 0.0
C242 C 0.23801 0.02656 0.27462 0.0
C243 C 0.25197 0.01929 0.219 0.0
C244 C 0.27456 0.02781 0.21509 0.0
C245 C 0.28305 0.04265 0.26792 0.0
C246 C 0.29045 0.0217 0.15804 0.0
C247 C 0.30947 0.00782 0.16349 0.0
C248 C 0.2904 0.03425 0.10666 0.0
C249 C 0.30949 0.03397 0.06428 0.0
C250 C 0.32918 0.02111 0.07208 0.0
C251 C 0.21566 0.01641 0.28941 0.0
C252 C 0.21479 0.00501 0.3435 0.0
C253 C 0.19479 0.02334 0.26465 0.0
C254 C 0.17371 0.02024 0.29613 0.0
C255 C 0.17302 0.01059 0.35417 0.0
C256 C 0.19388 0.00222 0.37555 0.0
C257 C 0.32849 0.00735 0.12062 0.0
H258 H 0.2772 0.06437 0.54924 0.0
H259 H 0.25525 0.0519 0.45271 0.0
H260 H 0.30676 0.07846 0.334 0.0
H261 H 0.33043 0.08775 0.43037 0.0
H262 H 0.235 0.04893 0.36393 0.0
H263 H 0.30091 0.04766 0.26616 0.0
H264 H 0.24562 0.00691 0.18041 0.0
H265 H 0.3103 0.99845 0.20379 0.0
H266 H 0.27632 0.04551 0.10224 0.0
H267 H 0.30927 0.04464 0.02719 0.0
H268 H 0.23068 0.99995 0.36468 0.0
H269 H 0.19493 0.03254 0.22392 0.0
H270 H 0.34335 0.9974 0.12859 0.0
H271 H 0.19452 0.99491 0.41999 0.0
H272 H 0.15808 0.02637 0.27649 0.0
C273 C 0.45945 0.2715 0.17781 0.0
C274 C 0.47803 0.26817 0.13325 0.0
C275 C 0.45718 0.25859 0.22751 0.0
C276 C 0.47356 0.24225 0.23439 0.0
C277 C 0.49036 0.23708 0.18529 0.0
C278 C 0.49251 0.24987 0.13497 0.0
C279 C 0.47718 0.2357 0.30002 0.0
C280 C 0.48063 0.21382 0.30968 0.0
C281 C 0.48747 0.20913 0.37183 0.0
C282 C 0.49104 0.22644 0.42351 0.0
C283 C 0.48771 0.24818 0.4141 0.0
C284 C 0.48046 0.25256 0.35278 0.0
C285 C 0.49427 0.2667 0.46481 0.0
C286 C 0.51612 0.2671 0.49455 0.0
C287 C 0.48016 0.28542 0.47644 0.0
C288 C 0.48835 0.30463 0.51323 0.0
C289 C 0.51082 0.30551 0.53916 0.0
C290 C 0.4925 0.18647 0.38336 0.0
C291 C 0.47572 0.16994 0.37258 0.0
C292 C 0.51373 0.18187 0.41121 0.0
C293 C 0.51794 0.16143 0.42964 0.0
C294 C 0.50101 0.14501 0.42097 0.0
C295 C 0.47987 0.14941 0.39175 0.0
C296 C 0.52433 0.28636 0.53146 0.0
H297 H 0.44789 0.28532 0.1785 0.0
H298 H 0.44402 0.26288 0.26473 0.0
H299 H 0.50324 0.2246 0.18938 0.0
H300 H 0.50657 0.24635 0.10023 0.0
H301 H 0.47877 0.20068 0.26885 0.0
H302 H 0.47905 0.26944 0.34462 0.0
H303 H 0.49673 0.22301 0.47102 0.0
H304 H 0.52744 0.25297 0.48581 0.0
H305 H 0.46314 0.28545 0.45468 0.0
H306 H 0.47734 0.319 0.51975 0.0
H307 H 0.45914 0.17316 0.35162 0.0
H308 H 0.52696 0.19432 0.42004 0.0
H309 H 0.54173 0.28657 0.5508 0.0
H310 H 0.46653 0.13704 0.38416 0.0
H311 H 0.53428 0.15877 0.45278 0.0
Tb312 Tb 1.00289 0.00538 0.75549 0.0
Tb313 Tb 0.04679 0.98523 0.82682 0.0
C314 C 0.99603 0.98903 0.89074 0.0
C315 C 0.97623 0.04448 0.66874 0.0
C316 C 0.99676 0.07782 0.60994 0.0
C317 C 0.98404 0.06119 0.57191 0.0
C318 C 0.97382 0.04464 0.60116 0.0
C319 C 0.98707 0.06224 0.7075 0.0
C320 C 0.99723 0.07877 0.67834 0.0
C321 C 0.97297 0.02384 0.69494 0.0
O322 O 0.01576 0.03208 0.82726 0.0
O323 O 0.05296 0.02033 0.83778 0.0
O324 O 0.05641 0.98555 0.7241 0.0
O325 O 0.03409 0.01447 0.70697 0.0
O326 O 0.06476 0.98067 0.91266 0.0
O327 O 0.07878 0.96913 0.81697 0.0
O328 O 0.02611 0.9567 0.79154 0.0
O329 O 1.00467 0.9708 0.71373 0.0
O330 O 0.98666 0.99137 0.83424 0.0
O331 O 0.01863 0.98918 0.89949 0.0
C332 C 0.03735 0.03599 0.84439 0.0
O333 O 0.98598 0.00784 0.66693 0.0
O334 O 0.9731 0.0251 0.75871 0.0
C335 C 0.05183 0.00154 0.6908 0.0
C336 C 0.08555 0.94746 0.89905 0.0
C337 C 0.09493 0.90626 0.93576 0.0
C338 C 0.10542 0.92524 0.96906 0.0
C339 C 0.10078 0.94569 0.95072 0.0
C340 C 0.07503 0.92857 0.86582 0.0
C341 C 0.07969 0.90815 0.88389 0.0
C342 C 0.08081 0.96895 0.87969 0.0
C343 C 1.01253 0.9541 0.74004 0.0
H344 H 0.98306 0.06033 0.51911 0.0
H345 H 0.96568 0.03106 0.5703 0.0
H346 H 0.98938 0.06253 0.75971 0.0
H347 H 1.00699 0.09132 0.70884 0.0
H348 H 0.11734 0.92426 0.00897 0.0
H349 H 0.10908 0.96011 0.97681 0.0
H350 H 0.06322 0.92964 0.82584 0.0
H351 H 0.07103 0.89391 0.85801 0.0
Tb352 Tb 0.51194 0.98714 0.74084 0.0
Tb353 Tb 0.53487 0.02696 0.83954 0.0
C354 C 0.53341 0.97893 0.87186 0.0
C355 C 0.46473 0.96593 0.64614 0.0
C356 C 0.42735 0.99431 0.63737 0.0
C357 C 0.44291 0.9896 0.58487 0.0
C358 C 0.46129 0.97523 0.58875 0.0
C359 C 0.44726 0.96836 0.69454 0.0
C360 C 0.4287 0.98254 0.69019 0.0
C361 C 0.4886 0.96073 0.66424 0.0
O362 O 0.48624 0.99604 0.81793 0.0
O363 O 0.49737 0.03136 0.85008 0.0
O364 O 0.53609 0.03525 0.74139 0.0
O365 O 0.50263 0.01819 0.70886 0.0
O366 O 0.55648 0.03885 0.91821 0.0
O367 O 0.53504 0.06081 0.87185 0.0
O368 O 0.56507 0.01204 0.78581 0.0
O369 O 0.54757 0.98723 0.70569 0.0
O370 O 0.53219 0.97159 0.80889 0.0
O371 O 0.53017 0.99977 0.89454 0.0
C372 C 0.48182 0.01582 0.84809 0.0
O373 O 0.5044 0.9732 0.64399 0.0
O374 O 0.49182 0.95855 0.72559 0.0
C375 C 0.51839 0.0328 0.70192 0.0
C376 C 0.57178 0.07307 0.90784 0.0
C377 C 0.61429 0.09474 0.90669 0.0
C378 C 0.60701 0.08032 0.85116 0.0
C379 C 0.58588 0.06952 0.8518 0.0
C380 C 0.5781 0.08863 0.96118 0.0
C381 C 0.59919 0.09945 0.96062 0.0
C382 C 0.55169 0.05919 0.91337 0.0
C383 C 0.56605 0.99757 0.73176 0.0
H384 H 0.44173 0.99815 0.54281 0.0
H385 H 0.47425 0.97346 0.55029 0.0
H386 H 0.44914 0.96123 0.73913 0.0
H387 H 0.41659 0.98571 0.73072 0.0
H388 H 0.61824 0.07643 0.80888 0.0
H389 H 0.5811 0.05759 0.80998 0.0
H390 H 0.56733 0.09153 1.00469 0.0
H391 H 0.60439 0.11017 1.00459 0.0
Tb392 Tb 0.50669 0.48702 0.80422 0.0
Tb393 Tb 0.54249 0.50771 0.7055 0.0
C394 C 0.49101 0.5005 0.66827 0.0
C395 C 0.48445 0.44556 0.89953 0.0
C396 C 0.48961 0.40492 0.94536 0.0
C397 C 0.4713 0.4192 0.96788 0.0
C398 C 0.46874 0.43933 0.94505 0.0
C399 C 0.50284 0.43149 0.87747 0.0
C400 C 0.50536 0.41139 0.8999 0.0
C401 C 0.48101 0.46607 0.87226 0.0
O402 O 0.53256 0.46279 0.76943 0.0
O403 O 0.53957 0.47277 0.66919 0.0
O404 O 0.56383 0.49695 0.78107 0.0
O405 O 0.53706 0.49804 0.86398 0.0
O406 O 0.57335 0.52434 0.69384 0.0
O407 O 0.55123 0.51415 0.61099 0.0
O408 O 0.53043 0.53455 0.77778 0.0
O409 O 0.49638 0.52119 0.81421 0.0
O410 O 0.48973 0.48569 0.70788 0.0
O411 O 0.50809 0.51446 0.67305 0.0
C412 C 0.53899 0.45787 0.70825 0.0
O413 O 0.49355 0.48276 0.89703 0.0
O414 O 0.48067 0.4638 0.80847 0.0
C415 C 0.55866 0.49843 0.8437 0.0
C416 C 0.56927 0.54892 0.61663 0.0
C417 C 0.56938 0.59203 0.58546 0.0
C418 C 0.57755 0.58779 0.64653 0.0
C419 C 0.5775 0.56653 0.66192 0.0
C420 C 0.56129 0.55309 0.55541 0.0
C421 C 0.56124 0.57438 0.5401 0.0
C422 C 0.56866 0.52638 0.63327 0.0
C423 C 0.51018 0.53753 0.80692 0.0
H424 H 0.45902 0.41492 1.0035 0.0
H425 H 0.45439 0.44993 0.96252 0.0
H426 H 0.51507 0.43585 0.84194 0.0
H427 H 0.51944 0.40074 0.88053 0.0
H428 H 0.58427 0.60085 0.68236 0.0
H429 H 0.5839 0.56397 0.70952 0.0
H430 H 0.55485 0.53989 0.51948 0.0
H431 H 0.55448 0.57702 0.49298 0.0
Tb432 Tb 1.01499 0.51408 0.77505 0.0
Tb433 Tb 1.00434 0.47144 0.84379 0.0
C434 C 0.99751 0.51807 0.91554 0.0
C435 C 0.04919 0.56041 0.75491 0.0
C436 C 0.0968 0.5647 0.77808 0.0
C437 C 0.08163 0.56329 0.83033 0.0
C438 C 0.05797 0.5612 0.8189 0.0
C439 C 0.06398 0.56485 0.70473 0.0
C440 C 0.08768 0.56705 0.71627 0.0
C441 C 0.0272 0.54916 0.7376 0.0
O442 O 0.04468 0.51024 0.83929 0.0
O443 O 0.04176 0.47347 0.83991 0.0
O444 O 1.00518 0.4592 0.7396 0.0
O445 O 0.02726 0.48622 0.70564 0.0
O446 O 0.98678 0.45845 0.91804 0.0
O447 O 1.01072 0.43866 0.85386 0.0
O448 O 0.97096 0.48133 0.80681 0.0
O449 O 0.98209 0.50306 0.73049 0.0
O450 O 0.99184 0.52243 0.85771 0.0
O451 O 1.00853 0.49985 0.92004 0.0
C452 C 0.05385 0.49154 0.84932 0.0
O453 O 0.02942 0.53006 0.70155 0.0
O454 O 1.01283 0.5484 0.78583 0.0
C455 C 0.01834 0.46646 0.69571 0.0
C456 C 0.97767 0.42153 0.88796 0.0
C457 C 0.93945 0.39334 0.87824 0.0
C458 C 0.94427 0.40572 0.82792 0.0
C459 C 0.96322 0.41979 0.83289 0.0
C460 C 0.97398 0.40806 0.93569 0.0
C461 C 0.95502 0.39402 0.93087 0.0
C462 C 0.99502 0.43884 0.89928 0.0
C463 C 0.96633 0.49162 0.75652 0.0
H464 H 0.08824 0.56163 0.87847 0.0
H465 H 0.04699 0.55787 0.85883 0.0
H466 H 0.0576 0.56422 0.65509 0.0
H467 H 0.09902 0.56805 0.67496 0.0
H468 H 0.93266 0.40544 0.78666 0.0
H469 H 0.96591 0.43011 0.79549 0.0
H470 H 0.985 0.40928 0.97851 0.0
H471 H 0.95164 0.38498 0.97096 0.0
H472 H 0.15863 0.98147 0.43769 0.0
H473 H 0.1384 0.04181 0.3685 0.0
H474 H 0.10477 0.04479 0.44208 0.0
H475 H 0.10076 0.96109 0.46205 0.0
H476 H 0.10836 0.95066 0.53629 0.0
H477 H 0.12989 0.95204 0.47383 0.0
H478 H 0.1561 0.97509 0.55932 0.0
H479 H 0.13463 0.97384 0.62196 0.0
H480 H 0.14494 0.99998 0.60581 0.0
H481 H 0.07394 0.04246 0.52738 0.0
H482 H 0.04872 0.03498 0.61774 0.0
H483 H 0.08968 0.97733 0.63733 0.0
C484 C 0.14722 0.99535 0.43759 0.0
C485 C 0.15143 0.01124 0.39573 0.0
C486 C 0.13559 0.02896 0.39788 0.0
C487 C 0.11641 0.03098 0.44034 0.0
C488 C 0.1131 0.01527 0.4813 0.0
C489 C 0.12806 0.99778 0.48038 0.0
C490 C 0.12108 0.9837 0.53164 0.0
C491 C 0.11464 0.9605 0.49899 0.0
C492 C 0.14034 0.98313 0.5827 0.0
C493 C 0.1 0.99611 0.56187 0.0
C494 C 0.09563 0.0142 0.53169 0.0
C495 C 0.07721 0.02831 0.5512 0.0
C496 C 0.06294 0.0239 0.60283 0.0
C497 C 0.06709 0.00555 0.63516 0.0
C498 C 0.08594 0.99149 0.61393 0.0
H499 H 0.4719 0.12187 0.4915 0.0
H500 H 0.54059 0.12063 0.40627 0.0
H501 H 0.55076 0.08901 0.4603 0.0
H502 H 0.48749 0.11043 0.64374 0.0
H503 H 0.46363 0.09268 0.65487 0.0
H504 H 0.46042 0.11332 0.60269 0.0
H505 H 0.44829 0.08376 0.50638 0.0
H506 H 0.45146 0.06297 0.55826 0.0
H507 H 0.46692 0.06053 0.48164 0.0
H508 H 0.55575 0.06214 0.53627 0.0
H509 H 0.55431 0.03905 0.6238 0.0
H510 H 0.48178 0.05495 0.65618 0.0
C511 C 0.48882 0.11448 0.48254 0.0
C512 C 0.50551 0.12383 0.44487 0.0
C513 C 0.52762 0.11394 0.43547 0.0
C514 C 0.53352 0.09588 0.46566 0.0
C515 C 0.51702 0.08757 0.50437 0.0
C516 C 0.49498 0.09624 0.51213 0.0
C517 C 0.48106 0.0849 0.55971 0.0
C518 C 0.47267 0.10132 0.61874 0.0
C519 C 0.46073 0.07229 0.52436 0.0
C520 C 0.49913 0.06935 0.57997 0.0
C521 C 0.51968 0.07112 0.54683 0.0
C522 C 0.53963 0.06017 0.56133 0.0
C523 C 0.53868 0.0472 0.61132 0.0
C524 C 0.51789 0.04506 0.64586 0.0
C525 C 0.49772 0.05594 0.62922 0.0
H526 H 0.37467 0.47235 0.45779 0.0
H527 H 0.39915 0.51695 0.32916 0.0
H528 H 0.43433 0.52365 0.39631 0.0
H529 H 0.39513 0.5021 0.6074 0.0
H530 H 0.40377 0.47838 0.64273 0.0
H531 H 0.38068 0.47634 0.5837 0.0
H532 H 0.40221 0.44477 0.51099 0.0
H533 H 0.4253 0.44659 0.57007 0.0
H534 H 0.4315 0.44882 0.48563 0.0
H535 H 0.46601 0.52691 0.47942 0.0
H536 H 0.49324 0.52529 0.5697 0.0
H537 H 0.44963 0.47756 0.64458 0.0
C538 C 0.3876 0.48321 0.44282 0.0
C539 C 0.38392 0.49416 0.38779 0.0
C540 C 0.40123 0.50857 0.37126 0.0
C541 C 0.42139 0.51241 0.40903 0.0
C542 C 0.42423 0.50165 0.46327 0.0
C543 C 0.40795 0.48718 0.47993 0.0
C544 C 0.41525 0.47797 0.54128 0.0
C545 C 0.39766 0.48407 0.59707 0.0
C546 C 0.41878 0.45306 0.52607 0.0
C547 C 0.43809 0.4897 0.55683 0.0
C548 C 0.44282 0.50329 0.51105 0.0
C549 C 0.46254 0.51622 0.51527 0.0
C550 C 0.47792 0.51521 0.5672 0.0
C551 C 0.47374 0.50128 0.61477 0.0
C552 C 0.45345 0.48833 0.60917 0.0
H553 H 0.03914 0.35153 0.46957 0.0
H554 H 0.04635 0.38604 0.30293 0.0
H555 H 0.03913 0.42135 0.37567 0.0
H556 H 0.99256 0.38531 0.54919 0.0
H557 H 1.00308 0.38369 0.63057 0.0
H558 H 1.00853 0.36156 0.56485 0.0
H559 H 0.05247 0.36481 0.58821 0.0
H560 H 0.04717 0.38704 0.65368 0.0
H561 H 0.06658 0.39074 0.58781 0.0
H562 H 0.03384 0.45307 0.47008 0.0
H563 H 0.02694 0.47794 0.57449 0.0
H564 H 0.02074 0.42186 0.67664 0.0
C565 C 0.03897 0.36656 0.44848 0.0
C566 C 0.04328 0.36627 0.38099 0.0
C567 C 0.04296 0.38609 0.35464 0.0
C568 C 0.03898 0.40613 0.39561 0.0
C569 C 0.03506 0.4059 0.46242 0.0
C570 C 0.03468 0.38655 0.48836 0.0
C571 C 0.02986 0.39056 0.56139 0.0
C572 C 1.00715 0.37964 0.57742 0.0
C573 C 0.05023 0.38283 0.60003 0.0
C574 C 0.02773 0.41524 0.57291 0.0
C575 C 0.03104 0.42387 0.51553 0.0
C576 C 0.03094 0.44643 0.51505 0.0
C577 C 0.02713 0.46043 0.57455 0.0
C578 C 0.02311 0.45181 0.63341 0.0
C579 C 0.02342 0.42892 0.63222 0.0
H580 H 0.88171 0.01117 0.11127 0.0
H581 H 0.90954 0.96838 0.24002 0.0
H582 H 0.94442 0.96195 0.16906 0.0
H583 H 0.9017 0.97874 0.9593 0.0
H584 H 0.90755 0.00236 0.92035 0.0
H585 H 0.8852 0.00354 0.98171 0.0
H586 H 0.90477 0.0374 0.04842 0.0
H587 H 0.92723 0.03627 0.98743 0.0
H588 H 0.93462 0.03571 0.07206 0.0
H589 H 0.97769 0.96245 0.08621 0.0
H590 H 1.00406 0.96656 0.99392 0.0
H591 H 0.95273 0.00663 0.91508 0.0
C592 C 0.89515 0.00037 0.12425 0.0
C593 C 0.89307 0.99034 0.18126 0.0
C594 C 0.91085 0.97618 0.19652 0.0
C595 C 0.93071 0.97252 0.15659 0.0
C596 C 0.93235 0.98285 0.1009 0.0
C597 C 0.91481 0.99621 0.08424 0.0
C598 C 0.92039 0.00494 0.02109 0.0
C599 C 0.90266 0.99691 0.96744 0.0
C600 C 0.92184 0.03007 0.03299 0.0
C601 C 0.94393 0.99465 1.00493 0.0
C602 C 0.95071 0.98217 0.0519 0.0
C603 C 0.97235 0.97196 0.04883 0.0
C604 C 0.98728 0.97444 0.99636 0.0
C605 C 0.9804 0.98669 0.94682 0.0
C606 C 0.95838 0.99685 0.9515 0.0
H607 H 0.53157 0.86127 0.98496 0.0
H608 H 0.5504 0.89236 0.18041 0.0
H609 H 0.55184 0.92827 0.14099 0.0
H610 H 0.56803 0.8941 0.897 0.0
H611 H 0.54751 0.89487 0.83172 0.0
H612 H 0.54813 0.8718 0.87562 0.0
H613 H 0.5047 0.87763 0.90416 0.0
H614 H 0.50393 0.90067 0.86022 0.0
H615 H 0.49491 0.90393 0.94488 0.0
H616 H 0.54951 0.96109 0.08005 0.0
H617 H 0.54514 0.98765 1.00226 0.0
H618 H 0.52903 0.93439 0.8467 0.0
C619 C 0.53587 0.87566 0.0196 0.0
C620 C 0.54072 0.87409 0.08587 0.0
C621 C 0.5467 0.89321 0.12938 0.0
C622 C 0.54749 0.91366 0.10746 0.0
C623 C 0.54249 0.91462 0.04177 0.0
C624 C 0.53695 0.89607 0.99845 0.0
C625 C 0.53244 0.90138 0.93029 0.0
C626 C 0.55008 0.88986 0.88075 0.0
C627 C 0.50751 0.89556 0.90865 0.0
C628 C 0.53607 0.92588 0.94201 0.0
C629 C 0.54179 0.93327 1.0066 0.0
C630 C 0.54522 0.95544 0.02926 0.0
C631 C 0.54267 0.97041 0.98476 0.0
C632 C 0.53692 0.96311 0.91828 0.0
C633 C 0.53374 0.94051 0.89693 0.0
H634 H 0.63006 0.48571 0.17143 0.0
H635 H 0.68751 0.51583 0.08323 0.0
H636 H 0.66285 0.52133 0.99024 0.0
H637 H 0.60813 0.45639 0.02343 0.0
H638 H 0.57807 0.4603 0.04513 0.0
H639 H 0.59946 0.46022 0.10844 0.0
H640 H 0.5855 0.49841 0.16382 0.0
H641 H 0.56395 0.49856 0.10084 0.0
H642 H 0.58437 0.52066 0.11656 0.0
H643 H 0.63368 0.5206 0.90182 0.0
H644 H 0.60066 0.51601 0.82612 0.0
H645 H 0.56081 0.48706 0.96936 0.0
C646 C 0.6374 0.49369 0.13296 0.0
C647 C 0.66084 0.50055 0.13563 0.0
C648 C 0.6696 0.51089 0.08381 0.0
C649 C 0.65574 0.51393 0.03018 0.0
C650 C 0.63297 0.50667 0.02863 0.0
C651 C 0.6237 0.49698 0.07883 0.0
C652 C 0.59878 0.49017 0.06358 0.0
C653 C 0.59596 0.46529 0.05993 0.0
C654 C 0.58217 0.5027 0.11422 0.0
C655 C 0.59573 0.49718 0.99643 0.0
C656 C 0.61577 0.50662 0.97747 0.0
C657 C 0.61781 0.51347 0.91644 0.0
C658 C 0.59894 0.51066 0.87356 0.0
C659 C 0.57805 0.50123 0.89164 0.0
C660 C 0.57642 0.49455 0.95435 0.0
H661 H 0.03566 0.60541 0.21931 0.0
H662 H 0.973 0.64102 0.18574 0.0
H663 H 0.9597 0.60957 0.10794 0.0
H664 H 0.04471 0.58378 0.05518 0.0
H665 H 0.05576 0.55769 0.07008 0.0
H666 H 0.0589 0.58142 0.13161 0.0
H667 H 0.03823 0.56126 0.21653 0.0
H668 H 0.03508 0.53741 0.15508 0.0
H669 H 1.01002 0.5497 0.19805 0.0
H670 H 0.95551 0.57708 0.02232 0.0
H671 H 0.96051 0.54514 0.93591 0.0
H672 H 0.02571 0.52991 0.02215 0.0
C673 C 0.01899 0.60656 0.1964 0.0
C674 C 1.00535 0.62585 0.20977 0.0
C675 C 0.98362 0.62641 0.17831 0.0
C676 C 0.97592 0.6086 0.13341 0.0
C677 C 0.99005 0.59019 0.12019 0.0
C678 C 1.01109 0.58894 0.15093 0.0
C679 C 0.02381 0.56799 0.12348 0.0
C680 C 0.04717 0.57303 0.0933 0.0
C681 C 0.02696 0.55321 0.17645 0.0
C682 C 1.00695 0.55805 0.07111 0.0
C683 C 0.9875 0.57108 0.07061 0.0
C684 C 0.97039 0.56649 0.02312 0.0
C685 C 0.97339 0.54835 0.9742 0.0
C686 C 0.99324 0.53488 0.97325 0.0
C687 C 1.01001 0.53955 0.0231 0.0
H688 H 0.05032 0.19141 0.54901 0.0
H689 H 0.08349 0.15521 0.37643 0.0
H690 H 0.07132 0.12073 0.41062 0.0
H691 H 0.05958 0.14953 0.66139 0.0
H692 H 0.03142 0.15475 0.69795 0.0
H693 H 0.04701 0.1765 0.66833 0.0
H694 H 1.01205 0.18317 0.59545 0.0
H695 H 0.9965 0.16127 0.62388 0.0
H696 H 1.00113 0.16087 0.53721 0.0
H697 H 0.05068 0.09069 0.45219 0.0
H698 H 0.02478 0.06664 0.50373 0.0
H699 H 1.00283 0.12208 0.64565 0.0
C700 C 0.0555 0.17623 0.51916 0.0
C701 C 0.06806 0.17618 0.4602 0.0
C702 C 0.07444 0.15587 0.42266 0.0
C703 C 0.06742 0.1361 0.44137 0.0
C704 C 0.05407 0.13682 0.49778 0.0
C705 C 0.04839 0.15632 0.53672 0.0
C706 C 0.03184 0.15264 0.59098 0.0
C707 C 0.04314 0.15871 0.65867 0.0
C708 C 1.00904 0.16523 0.58656 0.0
C709 C 0.02832 0.12819 0.57447 0.0
C710 C 0.04158 0.11937 0.52114 0.0
C711 C 0.0404 0.09734 0.49445 0.0
C712 C 0.02539 0.08389 0.52344 0.0
C713 C 1.01163 0.09257 0.57817 0.0
C714 C 1.01325 0.115 0.60408 0.0
H715 H 0.30811 0.04391 0.57498 0.0
H716 H 0.34452 0.10161 0.5341 0.0
H717 H 0.3789 0.08975 0.58991 0.0
H718 H 0.34027 0.03868 0.73818 0.0
H719 H 0.33922 0.00933 0.71704 0.0
H720 H 0.31566 0.02592 0.69484 0.0
H721 H 0.32008 0.00755 0.57411 0.0
H722 H 0.34401 0.99153 0.59483 0.0
H723 H 0.34744 0.00902 0.53301 0.0
H724 H 0.41137 0.0668 0.61836 0.0
H725 H 0.43831 0.03623 0.62686 0.0
H726 H 0.38059 0.99394 0.65178 0.0
C727 C 0.32267 0.05493 0.58124 0.0
C728 C 0.32353 0.07368 0.54953 0.0
C729 C 0.34346 0.08704 0.55717 0.0
C730 C 0.36304 0.08051 0.58936 0.0
C731 C 0.36218 0.06091 0.61509 0.0
C732 C 0.34221 0.04863 0.61319 0.0
C733 C 0.34661 0.02652 0.63405 0.0
C734 C 0.33474 0.02504 0.69996 0.0
C735 C 0.33911 0.00758 0.5808 0.0
C736 C 0.37252 0.02737 0.64161 0.0
C737 C 0.38114 0.04757 0.63237 0.0
C738 C 0.40479 0.05121 0.62772 0.0
C739 C 0.41991 0.03373 0.63164 0.0
C740 C 0.4113 0.01291 0.63959 0.0
C741 C 0.38743 0.00989 0.64672 0.0
H742 H 0.50706 0.34511 0.49636 0.0
H743 H 0.53652 0.31371 0.6519 0.0
H744 H 0.55201 0.34934 0.70414 0.0
H745 H 0.55334 0.38523 0.48885 0.0
H746 H 0.53343 0.40647 0.47447 0.0
H747 H 0.52667 0.3782 0.44588 0.0
H748 H 0.48791 0.38246 0.50989 0.0
H749 H 0.49443 0.41073 0.53791 0.0
H750 H 0.48812 0.39269 0.59655 0.0
H751 H 0.56025 0.38856 0.74543 0.0
H752 H 0.56014 0.42876 0.77436 0.0
H753 H 0.52632 0.43471 0.59044 0.0
C754 C 0.51683 0.34571 0.54135 0.0
C755 C 0.52055 0.32668 0.5703 0.0
C756 C 0.53364 0.32808 0.6287 0.0
C757 C 0.54252 0.34821 0.65858 0.0
C758 C 0.53838 0.36668 0.6289 0.0
C759 C 0.52589 0.3656 0.57151 0.0
C760 C 0.52258 0.38804 0.55186 0.0
C761 C 0.53474 0.38956 0.48638 0.0
C762 C 0.49673 0.39382 0.54893 0.0
C763 C 0.53453 0.40206 0.60837 0.0
C764 C 0.54373 0.38936 0.65191 0.0
C765 C 0.55362 0.39864 0.71105 0.0
C766 C 0.5535 0.42145 0.727 0.0
C767 C 0.54366 0.4347 0.68386 0.0
C768 C 0.53468 0.42492 0.62303 0.0
H769 H 0.21428 0.548 0.60365 0.0
H770 H 0.21237 0.48284 0.65601 0.0
H771 H 0.18449 0.49553 0.74468 0.0
H772 H 0.20054 0.58011 0.77632 0.0
H773 H 0.18269 0.59884 0.73939 0.0
H774 H 0.20814 0.58706 0.6972 0.0
H775 H 0.18319 0.57272 0.59559 0.0
H776 H 0.15785 0.58427 0.63725 0.0
H777 H 0.15871 0.55549 0.60513 0.0
H778 H 0.15089 0.51194 0.80544 0.0
H779 H 0.1129 0.52927 0.82645 0.0
H780 H 0.13498 0.58406 0.73378 0.0
C781 C 0.20887 0.53678 0.63625 0.0
C782 C 0.21566 0.51463 0.62431 0.0
C783 C 0.2075 0.49997 0.66535 0.0
C784 C 0.19184 0.50711 0.71604 0.0
C785 C 0.18455 0.52891 0.72472 0.0
C786 C 0.19291 0.54359 0.68601 0.0
C787 C 0.17894 0.56459 0.69517 0.0
C788 C 0.19345 0.58379 0.72906 0.0
C789 C 0.16909 0.56952 0.62942 0.0
C790 C 0.16015 0.55867 0.7403 0.0
C791 C 0.1643 0.53844 0.75917 0.0
C792 C 0.14784 0.52809 0.7929 0.0
C793 C 0.12628 0.53814 0.80501 0.0
C794 C 0.12125 0.55822 0.78288 0.0
C795 C 0.13871 0.569 0.7526 0.0
H796 H 0.09519 0.82149 0.18824 0.0
H797 H 0.10115 0.76952 0.02224 0.0
H798 H 0.10629 0.79716 0.94828 0.0
H799 H 0.06188 0.85609 0.11148 0.0
H800 H 0.07494 0.88112 0.15056 0.0
H801 H 0.075 0.85737 0.19123 0.0
H802 H 0.1196 0.85928 0.20141 0.0
H803 H 0.11968 0.88322 0.1612 0.0
H804 H 0.13695 0.85972 0.12893 0.0
H805 H 0.10646 0.83054 0.89167 0.0
H806 H 0.10243 0.86694 0.85705 0.0
H807 H 0.09628 0.89668 0.0609 0.0
C808 C 0.0984 0.81586 0.13668 0.0
C809 C 0.09802 0.79335 0.11103 0.0
C810 C 0.1014 0.7867 0.04286 0.0
C811 C 0.10444 0.80226 1.0006 0.0
C812 C 0.10415 0.82436 0.02741 0.0
C813 C 0.1014 0.83113 0.094 0.0
C814 C 0.09981 0.85578 0.11001 0.0
C815 C 0.07653 0.863 0.14271 0.0
C816 C 0.12023 0.86504 0.15292 0.0
C817 C 0.10147 0.86185 0.04184 0.0
C818 C 0.10418 0.84354 0.99487 0.0
C819 C 0.10467 0.84501 0.92809 0.0
C820 C 0.1022 0.86571 0.9089 0.0
C821 C 0.09918 0.88464 0.95634 0.0
C822 C 0.09909 0.88259 0.0236 0.0
H823 H 0.73093 0.05724 0.01573 0.0
H824 H 0.73511 0.12011 0.14058 0.0
H825 H 0.70673 0.13525 0.07024 0.0
H826 H 0.71727 0.08013 0.85368 0.0
H827 H 0.6981 0.05745 0.82952 0.0
H828 H 0.72388 0.05366 0.87559 0.0
H829 H 0.69915 0.03851 0.9634 0.0
H830 H 0.67359 0.04215 0.9177 0.0
H831 H 0.67565 0.05485 1.0022 0.0
H832 H 0.67135 0.14038 1.0076 0.0
H833 H 0.63216 0.13451 0.96164 0.0
H834 H 0.65153 0.06872 0.87502 0.0
C835 C 0.72689 0.07452 0.02624 0.0
C836 C 0.73528 0.08749 0.08352 0.0
C837 C 0.72879 0.10981 0.09711 0.0
C838 C 0.71289 0.11863 0.05689 0.0
C839 C 0.70395 0.10503 1.00263 0.0
C840 C 0.71106 0.08348 0.98659 0.0
C841 C 0.69602 0.07111 0.93362 0.0
C842 C 0.70964 0.06525 0.86928 0.0
C843 C 0.68547 0.05049 0.95565 0.0
C844 C 0.67792 0.08836 0.92737 0.0
C845 C 0.68326 0.1081 0.9655 0.0
C846 C 0.66732 0.12527 0.97595 0.0
C847 C 0.64505 0.12178 0.94993 0.0
C848 C 0.63888 0.10118 0.91461 0.0
C849 C 0.65596 0.08484 0.90008 0.0
H850 H 0.53028 0.66529 0.87666 0.0
H851 H 0.47403 0.66947 0.01718 0.0
H852 H 0.46422 0.63085 0.97808 0.0
H853 H 0.50121 0.62537 0.74513 0.0
H854 H 0.52819 0.6116 0.72278 0.0
H855 H 0.52781 0.64058 0.75279 0.0
H856 H 0.55713 0.6345 0.84329 0.0
H857 H 0.55744 0.60564 0.81395 0.0
H858 H 0.55029 0.61541 0.89849 0.0
H859 H 0.46459 0.59028 0.93579 0.0
H860 H 0.4742 0.55188 0.89051 0.0
H861 H 0.53042 0.57477 0.7791 0.0
C862 C 0.5155 0.65822 0.89787 0.0
C863 C 0.50284 0.67035 0.94966 0.0
C864 C 0.4837 0.66057 0.97663 0.0
C865 C 0.47807 0.63861 0.95493 0.0
C866 C 0.49154 0.62681 0.90564 0.0
C867 C 0.50963 0.63641 0.87665 0.0
C868 C 0.52269 0.61982 0.82871 0.0
C869 C 0.5198 0.62463 0.75816 0.0
C870 C 0.54839 0.61878 0.8473 0.0
C871 C 0.51007 0.59919 0.83837 0.0
C872 C 0.49185 0.60351 0.88176 0.0
C873 C 0.47858 0.58674 0.90087 0.0
C874 C 0.4842 0.56499 0.87513 0.0
C875 C 0.50312 0.5603 0.83157 0.0
C876 C 0.51589 0.57773 0.81248 0.0
H877 H 0.81422 0.41477 0.98646 0.0
H878 H 0.81907 0.35713 0.08234 0.0
H879 H 0.85254 0.3444 0.01247 0.0
H880 H 0.83717 0.38734 0.81684 0.0
H881 H 0.85183 0.41235 0.80739 0.0
H882 H 0.82448 0.41336 0.84982 0.0
H883 H 0.84305 0.43698 0.95068 0.0
H884 H 0.87026 0.43592 0.90912 0.0
H885 H 0.86822 0.42678 0.98794 0.0
H886 H 0.89059 0.34328 0.95566 0.0
H887 H 0.92881 0.35383 0.91736 0.0
H888 H 0.89816 0.41139 0.85565 0.0
C889 C 0.82137 0.39883 0.99041 0.0
C890 C 0.81392 0.38699 0.04004 0.0
C891 C 0.82455 0.36664 0.04512 0.0
C892 C 0.84344 0.35914 1.00504 0.0
C893 C 0.85117 0.37192 0.95912 0.0
C894 C 0.84009 0.39115 0.9507 0.0
C895 C 0.85375 0.40381 0.90644 0.0
C896 C 0.84104 0.40422 0.84124 0.0
C897 C 0.85914 0.42721 0.94065 0.0
C898 C 0.87525 0.38978 0.89628 0.0
C899 C 0.8732 0.37106 0.92515 0.0
C900 C 0.89215 0.35747 0.93101 0.0
C901 C 0.91382 0.36364 0.90947 0.0
C902 C 0.91638 0.38334 0.88302 0.0
C903 C 0.89661 0.39588 0.87356 0.0
H904 H 0.0199 0.16459 0.96389 0.0
H905 H 0.09346 0.16755 1.00571 0.0
H906 H 0.09742 0.12879 0.95843 0.0
H907 H 1.01077 0.11308 0.00967 0.0
H908 H 0.99007 0.10386 0.94637 0.0
H909 H 0.99314 0.13264 0.97551 0.0
H910 H 1.00121 0.13997 0.85689 0.0
H911 H 0.99767 0.11121 0.82763 0.0
H912 H 0.02382 0.12489 0.80946 0.0
H913 H 0.09308 0.08881 0.91679 0.0
H914 H 0.08091 0.05087 0.87828 0.0
H915 H 1.01003 0.07314 0.86583 0.0
C916 C 0.03692 0.15721 0.9623 0.0
C917 C 0.05639 0.16943 0.98817 0.0
C918 C 0.07831 0.15894 0.98492 0.0
C919 C 0.08074 0.13676 0.95861 0.0
C920 C 0.06114 0.12513 0.93533 0.0
C921 C 0.03967 0.13501 0.93619 0.0
C922 C 0.02121 0.11845 0.91104 0.0
C923 C 1.00271 0.11692 0.96381 0.0
C924 C 1.01034 0.12396 0.84747 0.0
C925 C 0.03558 0.09766 0.89786 0.0
C926 C 0.0586 0.10193 0.91168 0.0
C927 C 0.07512 0.08529 0.90519 0.0
C928 C 0.068 0.06374 0.88354 0.0
C929 C 0.0445 0.05888 0.86879 0.0
C930 C 0.02814 0.0762 0.87623 0.0
H931 H 0.35986 0.98951 0.01031 0.0
H932 H 0.34873 0.05967 0.05215 0.0
H933 H 0.38562 0.06575 0.99797 0.0
H934 H 0.42088 0.9899 0.03583 0.0
H935 H 0.42726 0.96843 0.9688 0.0
H936 H 0.39957 0.9693 0.0091 0.0
H937 H 0.37908 0.9694 0.89749 0.0
H938 H 0.40675 0.9685 0.85687 0.0
H939 H 0.38646 0.99001 0.84784 0.0
H940 H 0.42498 0.06458 0.94511 0.0
H941 H 0.46276 0.05609 0.89139 0.0
H942 H 0.44846 0.98669 0.878 0.0
C943 C 0.36514 0.00614 1.00769 0.0
C944 C 0.35113 0.02412 0.03537 0.0
C945 C 0.35879 0.0456 0.03062 0.0
C946 C 0.37987 0.04924 1.00018 0.0
C947 C 0.39325 0.03126 0.97368 0.0
C948 C 0.3861 0.0101 0.9763 0.0
C949 C 0.40383 0.99373 0.94333 0.0
C950 C 0.41345 0.9795 0.99219 0.0
C951 C 0.3934 0.97957 0.8828 0.0
C952 C 0.42224 0.00901 0.92336 0.0
C953 C 0.41574 0.03059 0.94146 0.0
C954 C 0.43013 0.04772 0.93024 0.0
C955 C 0.45166 0.04272 0.89978 0.0
C956 C 0.45875 0.02073 0.88012 0.0
C957 C 0.44362 0.00369 0.89193 0.0
H958 H 0.4489 0.29494 0.07323 0.0
H959 H 0.52146 0.28187 0.10558 0.0
H960 H 0.53213 0.31391 0.05494 0.0
H961 H 0.45633 0.31694 0.91726 0.0
H962 H 0.43435 0.33755 0.93811 0.0
H963 H 0.43242 0.31185 0.96898 0.0
H964 H 0.42993 0.33271 0.08763 0.0
H965 H 0.43214 0.35843 0.05727 0.0
H966 H 0.45241 0.35172 0.11752 0.0
H967 H 0.53506 0.34952 0.01231 0.0
H968 H 0.53002 0.38521 0.97475 0.0
H969 H 0.45566 0.3759 0.9706 0.0
C970 C 0.46706 0.29858 0.06889 0.0
C971 C 0.48428 0.28553 0.0931 0.0
C972 C 0.50785 0.29105 0.08611 0.0
C973 C 0.51414 0.30944 0.05792 0.0
C974 C 0.49673 0.32227 0.0367 0.0
C975 C 0.47367 0.317 0.04118 0.0
C976 C 0.45835 0.33428 0.01805 0.0
C977 C 0.44455 0.32457 0.95696 0.0
C978 C 0.44226 0.34491 0.07342 0.0
C979 C 0.4764 0.35031 1.00139 0.0
C980 C 0.49842 0.34297 0.01214 0.0
C981 C 0.51791 0.35528 1.00265 0.0
C982 C 0.51485 0.37554 0.98105 0.0
C983 C 0.49245 0.38341 0.96902 0.0
C984 C 0.47301 0.37051 0.97957 0.0
H985 H 0.1643 0.52262 0.08106 0.0
H986 H 0.19162 0.45842 1.00111 0.0
H987 H 0.15928 0.45313 0.924 0.0
H988 H 0.10483 0.50495 0.07694 0.0
H989 H 0.09365 0.53044 0.05746 0.0
H990 H 0.12007 0.5301 0.10331 0.0
H991 H 0.13998 0.54986 0.01882 0.0
H992 H 0.11477 0.54905 0.96732 0.0
H993 H 0.14173 0.53733 0.93453 0.0
H994 H 0.12263 0.45296 0.86088 0.0
H995 H 0.08381 0.45795 0.81645 0.0
H996 H 0.07849 0.52168 0.93678 0.0
C997 C 0.16365 0.50736 0.04773 0.0
C998 C 0.18122 0.49112 0.04763 0.0
C999 C 0.17922 0.47158 1.00187 0.0
C1000 C 0.16062 0.46825 0.95787 0.0
C1001 C 0.14371 0.48443 0.95998 0.0
C1002 C 0.14489 0.50354 1.00401 0.0
C1003 C 0.12358 0.51771 0.99834 0.0
C1004 C 0.10971 0.52099 0.06284 0.0
C1005 C 0.13039 0.5398 0.97848 0.0
C1006 C 0.11032 0.50355 0.94395 0.0
C1007 C 0.12234 0.4844 0.9229 0.0
C1008 C 0.11318 0.46798 0.87646 0.0
C1009 C 0.09105 0.47095 0.85158 0.0
C1010 C 0.07815 0.49026 0.87246 0.0
C1011 C 0.08811 0.50694 0.91877 0.0
H1012 H 0.0319 0.82516 0.64959 0.0
H1013 H 0.98128 0.82617 0.49476 0.0
H1014 H 0.97267 0.86477 0.53638 0.0
H1015 H 1.00121 0.86357 0.77745 0.0
H1016 H 0.02772 0.87633 0.80873 0.0
H1017 H 0.02766 0.84792 0.77252 0.0
H1018 H 0.05976 0.85574 0.69165 0.0
H1019 H 0.05974 0.88416 0.7272 0.0
H1020 H 0.0551 0.87652 0.64033 0.0
H1021 H 0.97292 0.90446 0.58574 0.0
H1022 H 0.98085 0.94174 0.64264 0.0
H1023 H 0.03117 0.9152 0.76552 0.0
C1024 C 0.01873 0.83336 0.62499 0.0
C1025 C 1.00716 0.82238 0.56902 0.0
C1026 C 0.99005 0.83388 0.53852 0.0
C1027 C 0.98513 0.85594 0.56153 0.0
C1028 C 0.99733 0.86639 0.61544 0.0
C1029 C 1.01361 0.85543 0.64729 0.0
C1030 C 0.02533 0.87084 0.70154 0.0
C1031 C 0.02016 0.86427 0.76907 0.0
C1032 C 0.05153 0.87187 0.68941 0.0
C1033 C 1.01356 0.89226 0.69386 0.0
C1034 C 0.99737 0.88932 0.6442 0.0
C1035 C 0.98531 0.90691 0.62539 0.0
C1036 C 0.99 0.92807 0.65792 0.0
C1037 C 1.00663 0.93152 0.70882 0.0
C1038 C 0.01826 0.91323 0.72732 0.0
H1039 H 0.69279 0.02562 0.60508 0.0
H1040 H 0.68775 0.96571 0.46538 0.0
H1041 H 0.65091 0.95729 0.51529 0.0
H1042 H 0.66622 0.00459 0.74511 0.0
H1043 H 0.65091 0.02973 0.77303 0.0
H1044 H 0.67797 0.03034 0.73003 0.0
H1045 H 0.6582 0.05123 0.64533 0.0
H1046 H 0.63112 0.05051 0.68806 0.0
H1047 H 0.63303 0.03966 0.60199 0.0
H1048 H 0.61313 0.95633 0.57412 0.0
H1049 H 0.57738 0.96262 0.63936 0.0
H1050 H 0.60569 0.02321 0.74189 0.0
C1051 C 0.68406 0.01065 0.585 0.0
C1052 C 0.69367 0.99625 0.53116 0.0
C1053 C 0.68141 0.97684 0.50725 0.0
C1054 C 0.66023 0.97195 0.53506 0.0
C1055 C 0.65124 0.98656 0.58718 0.0
C1056 C 0.66277 0.0055 0.61226 0.0
C1057 C 0.64871 0.01879 0.66709 0.0
C1058 C 0.66173 0.02098 0.73271 0.0
C1059 C 0.64239 0.04138 0.64954 0.0
C1060 C 0.62738 0.00448 0.6681 0.0
C1061 C 0.6293 0.98596 0.62161 0.0
C1062 C 0.61153 0.97068 0.61107 0.0
C1063 C 0.5912 0.97444 0.64844 0.0
C1064 C 0.58859 0.99333 0.69633 0.0
C1065 C 0.60716 0.00843 0.70652 0.0
H1066 H 0.57758 0.68298 0.35026 0.0
H1067 H 0.55934 0.73166 0.517 0.0
H1068 H 0.55903 0.70278 0.58821 0.0
H1069 H 0.54234 0.64092 0.39075 0.0
H1070 H 0.56251 0.6192 0.36298 0.0
H1071 H 0.5627 0.64385 0.3264 0.0
H1072 H 0.60606 0.64951 0.35492 0.0
H1073 H 0.60608 0.62474 0.39104 0.0
H1074 H 0.61541 0.65008 0.43854 0.0
H1075 H 0.55921 0.66795 0.63982 0.0
H1076 H 0.55994 0.63051 0.6675 0.0
H1077 H 0.57881 0.60516 0.46638 0.0
C1078 C 0.57408 0.68774 0.40207 0.0
C1079 C 0.56872 0.70968 0.42817 0.0
C1080 C 0.56347 0.71498 0.49588 0.0
C1081 C 0.56333 0.6987 0.5367 0.0
C1082 C 0.56848 0.67721 0.50903 0.0
C1083 C 0.57384 0.67176 0.44327 0.0
C1084 C 0.5779 0.64741 0.42479 0.0
C1085 C 0.56031 0.63726 0.37319 0.0
C1086 C 0.60285 0.64266 0.40094 0.0
C1087 C 0.57376 0.63989 0.49031 0.0
C1088 C 0.56844 0.6573 0.5384 0.0
C1089 C 0.56352 0.65424 0.60257 0.0
C1090 C 0.56403 0.63287 0.61786 0.0
C1091 C 0.56932 0.61474 0.56917 0.0
C1092 C 0.57436 0.61851 0.50469 0.0
H1093 H 0.86637 0.49518 0.48655 0.0
H1094 H 0.81837 0.47651 0.63028 0.0
H1095 H 0.85006 0.47714 0.71001 0.0
H1096 H 0.91435 0.46398 0.52815 0.0
H1097 H 0.9358 0.48423 0.51757 0.0
H1098 H 0.90928 0.48307 0.47161 0.0
H1099 H 0.90104 0.52374 0.51685 0.0
H1100 H 0.92762 0.52507 0.56263 0.0
H1101 H 0.90071 0.53254 0.6043 0.0
H1102 H 0.88728 0.47744 0.77251 0.0
H1103 H 0.92699 0.47991 0.81601 0.0
H1104 H 0.95124 0.50027 0.63527 0.0
C1105 C 0.86239 0.49161 0.53514 0.0
C1106 C 0.83969 0.48558 0.55147 0.0
C1107 C 0.83553 0.48075 0.61564 0.0
C1108 C 0.85346 0.48119 0.66163 0.0
C1109 C 0.87561 0.48671 0.64349 0.0
C1110 C 0.88015 0.49209 0.58208 0.0
C1111 C 0.90566 0.49723 0.5752 0.0
C1112 C 0.91693 0.48117 0.51985 0.0
C1113 C 0.90894 0.52106 0.5641 0.0
C1114 C 0.91472 0.49372 0.64208 0.0
C1115 C 0.89706 0.48755 0.68048 0.0
C1116 C 0.9012 0.4825 0.74312 0.0
C1117 C 0.9239 0.48389 0.76737 0.0
C1118 C 0.94235 0.49046 0.72952 0.0
C1119 C 0.93755 0.49549 0.66595 0.0
loop_
_geom_bond_atom_site_label_1
_geom_bond_atom_site_label_2
_geom_bond_distance
_geom_bond_site_symmetry_2
_ccdc_geom_bond_type
C0 C1 1.386 . S
C0 C2 1.397 . S
C0 H24 0.931 . S
C1 C0 1.386 . S
C1 C5 1.397 . S
C2 C0 1.397 . S
C2 C3 1.384 . S
C2 H25 0.930 . S
C3 C2 1.384 . S
C3 C4 1.377 . S
C3 C6 1.481 . S
C4 C3 1.377 . S
C4 C5 1.389 . S
C4 H26 0.929 . S
C5 C1 1.397 . S
C5 C4 1.389 . S
C5 H27 0.931 . S
C6 C3 1.481 . S
C6 C7 1.387 . S
C6 C11 1.390 . S
C7 C6 1.387 . S
C7 C8 1.401 . S
C7 H28 0.930 . S
C8 C7 1.401 . S
C8 C9 1.376 . S
C8 C17 1.511 . S
C9 C8 1.376 . S
C9 C10 1.392 . S
C9 H30 0.931 . S
C10 C9 1.392 . S
C10 C11 1.361 . S
C10 C12 1.500 . S
C11 C6 1.390 . S
C11 C10 1.361 . S
C11 H29 0.931 . S
C12 C10 1.500 . S
C12 C13 1.371 . S
C12 C14 1.365 . S
C13 C12 1.371 . S
C13 C23 1.386 . S
C13 H31 0.931 . S
C14 C12 1.365 . S
C14 C15 1.409 . S
C14 H32 0.929 . S
C15 C14 1.409 . S
C15 C16 1.380 . S
C15 H33 0.930 . S
C16 C15 1.380 . S
C16 C23 1.357 . S
C17 C8 1.511 . S
C17 C18 1.341 . S
C17 C19 1.371 . S
C18 C17 1.341 . S
C18 C22 1.394 . S
C18 H34 0.930 . S
C19 C17 1.371 . S
C19 C20 1.392 . S
C19 H35 0.931 . S
C20 C19 1.392 . S
C20 C21 1.331 . S
C20 H38 0.932 . S
C21 C20 1.331 . S
C21 C22 1.336 . S
C22 C18 1.394 . S
C22 C21 1.336 . S
C22 H37 0.929 . S
C23 C13 1.386 . S
C23 C16 1.357 . S
C23 H36 0.928 . S
H24 C0 0.931 . S
H25 C2 0.930 . S
H26 C4 0.929 . S
H27 C5 0.931 . S
H28 C7 0.930 . S
H29 C11 0.931 . S
H30 C9 0.931 . S
H31 C13 0.931 . S
H32 C14 0.929 . S
H33 C15 0.930 . S
H34 C18 0.930 . S
H35 C19 0.931 . S
H36 C23 0.928 . S
H37 C22 0.929 . S
H38 C20 0.932 . S
C39 C40 1.386 . S
C39 C41 1.397 . S
C39 H63 0.931 . S
C40 C39 1.386 . S
C40 C44 1.397 . S
C41 C39 1.397 . S
C41 C42 1.384 . S
C41 H64 0.930 . S
C42 C41 1.384 . S
C42 C43 1.377 . S
C42 C45 1.481 . S
C43 C42 1.377 . S
C43 C44 1.389 . S
C43 H65 0.929 1_655 S
C44 C40 1.397 . S
C44 C43 1.389 . S
C44 H66 0.931 1_655 S
C45 C42 1.481 . S
C45 C46 1.387 . S
C45 C50 1.390 . S
C46 C45 1.387 . S
C46 C47 1.401 . S
C46 H67 0.930 . S
C47 C46 1.401 . S
C47 C48 1.376 . S
C47 C56 1.511 . S
C48 C47 1.376 . S
C48 C49 1.392 . S
C48 H69 0.931 . S
C49 C48 1.392 . S
C49 C50 1.361 . S
C49 C51 1.500 . S
C50 C45 1.390 . S
C50 C49 1.361 . S
C50 H68 0.931 . S
C51 C49 1.500 . S
C51 C52 1.371 . S
C51 C53 1.365 . S
C52 C51 1.371 . S
C52 C62 1.386 . S
C52 H70 0.931 . S
C53 C51 1.365 . S
C53 C54 1.409 . S
C53 H71 0.928 . S
C54 C53 1.409 . S
C54 C55 1.380 . S
C54 H72 0.930 . S
C55 C54 1.380 . S
C55 C62 1.357 . S
C56 C47 1.511 . S
C56 C57 1.341 . S
C56 C58 1.371 . S
C57 C56 1.341 . S
C57 C61 1.394 . S
C57 H73 0.930 . S
C58 C56 1.371 . S
C58 C59 1.392 . S
C58 H74 0.931 . S
C59 C58 1.392 . S
C59 C60 1.331 . S
C59 H77 0.932 . S
C60 C59 1.331 . S
C60 C61 1.336 . S
C61 C57 1.394 . S
C61 C60 1.336 . S
C61 H76 0.929 . S
C62 C52 1.386 . S
C62 C55 1.357 . S
C62 H75 0.928 . S
H63 C39 0.931 . S
H64 C41 0.930 . S
H65 C43 0.929 1_455 S
H66 C44 0.931 1_455 S
H67 C46 0.930 . S
H68 C50 0.931 . S
H69 C48 0.931 . S
H70 C52 0.931 . S
H71 C53 0.928 . S
H72 C54 0.930 . S
H73 C57 0.930 . S
H74 C58 0.931 . S
H75 C62 0.928 . S
H76 C61 0.929 . S
H77 C59 0.932 . S
C78 C79 1.394 . S
C78 C80 1.397 . S
C78 H102 0.931 . S
C79 C78 1.394 . S
C79 C83 1.390 1_565 S
C80 C78 1.397 . S
C80 C81 1.388 . S
C80 H103 0.930 . S
C81 C80 1.388 . S
C81 C82 1.373 1_565 S
C81 C84 1.478 . S
C82 C81 1.373 1_545 S
C82 C83 1.389 . S
C82 H104 0.929 . S
C83 C79 1.390 1_545 S
C83 C82 1.389 . S
C83 H105 0.931 . S
C84 C81 1.478 . S
C84 C85 1.387 . S
C84 C89 1.393 . S
C85 C84 1.387 . S
C85 C86 1.399 . S
C85 H106 0.930 . S
C86 C85 1.399 . S
C86 C87 1.374 . S
C86 C95 1.511 . S
C87 C86 1.374 . S
C87 C88 1.393 . S
C87 H108 0.939 . S
C88 C87 1.393 . S
C88 C89 1.362 . S
C88 C90 1.503 1_565 S
C89 C84 1.393 . S
C89 C88 1.362 . S
C89 H107 0.931 . S
C90 C88 1.503 1_545 S
C90 C91 1.360 1_545 S
C90 C92 1.373 . S
C91 C90 1.360 1_565 S
C91 C101 1.386 . S
C91 H109 0.931 . S
C92 C90 1.373 . S
C92 C93 1.409 . S
C92 H110 0.929 . S
C93 C92 1.409 . S
C93 C94 1.378 . S
C93 H111 0.930 . S
C94 C93 1.378 . S
C94 C101 1.358 1_545 S
C95 C86 1.511 . S
C95 C96 1.341 . S
C95 C97 1.371 1_565 S
C96 C95 1.341 . S
C96 C100 1.394 . S
C96 H112 0.930 . S
C97 C95 1.371 1_545 S
C97 C98 1.392 . S
C97 H113 0.931 . S
C98 C97 1.392 . S
C98 C99 1.326 1_545 S
C98 H116 0.932 . S
C99 C98 1.326 1_565 S
C99 C100 1.342 . S
C100 C96 1.394 . S
C100 C99 1.342 . S
C100 H115 0.929 . S
C101 C91 1.386 . S
C101 C94 1.358 1_565 S
C101 H114 0.928 . S
H102 C78 0.931 . S
H103 C80 0.930 . S
H104 C82 0.929 . S
H105 C83 0.931 . S
H106 C85 0.930 . S
H107 C89 0.931 . S
H108 C87 0.939 . S
H109 C91 0.931 . S
H110 C92 0.929 . S
H111 C93 0.930 . S
H112 C96 0.930 . S
H113 C97 0.931 . S
H114 C101 0.928 . S
H115 C100 0.929 . S
H116 C98 0.932 . S
C117 C118 1.386 . S
C117 C119 1.397 . S
C117 H141 0.931 . S
C118 C117 1.386 . S
C118 C122 1.397 . S
C119 C117 1.397 . S
C119 C120 1.384 . S
C119 H142 0.930 . S
C120 C119 1.384 . S
C120 C121 1.377 . S
C120 C123 1.481 . S
C121 C120 1.377 . S
C121 C122 1.389 . S
C121 H143 0.929 . S
C122 C118 1.397 . S
C122 C121 1.389 . S
C122 H144 0.931 . S
C123 C120 1.481 . S
C123 C124 1.387 . S
C123 C128 1.390 . S
C124 C123 1.387 . S
C124 C125 1.401 1_554 S
C124 H145 0.930 . S
C125 C124 1.401 1_556 S
C125 C126 1.376 . S
C125 C134 1.511 . S
C126 C125 1.376 . S
C126 C127 1.392 . S
C126 H147 0.931 . S
C127 C126 1.392 . S
C127 C128 1.361 1_556 S
C127 C129 1.500 . S
C128 C123 1.390 . S
C128 C127 1.361 1_554 S
C128 H146 0.931 . S
C129 C127 1.500 . S
C129 C130 1.371 . S
C129 C131 1.365 . S
C130 C129 1.371 . S
C130 C140 1.386 . S
C130 H148 0.931 . S
C131 C129 1.365 . S
C131 C132 1.409 . S
C131 H149 0.929 . S
C132 C131 1.409 . S
C132 C133 1.380 . S
C132 H150 0.930 . S
C133 C132 1.380 . S
C133 C140 1.357 . S
C134 C125 1.511 . S
C134 C135 1.341 1_556 S
C134 C136 1.371 . S
C135 C134 1.341 1_554 S
C135 C139 1.394 . S
C135 H151 0.930 . S
C136 C134 1.371 . S
C136 C137 1.392 . S
C136 H152 0.931 . S
C137 C136 1.392 . S
C137 C138 1.331 . S
C137 H155 0.932 . S
C138 C137 1.331 . S
C138 C139 1.336 1_556 S
C139 C135 1.394 . S
C139 C138 1.336 1_554 S
C139 H154 0.929 . S
C140 C130 1.386 . S
C140 C133 1.357 . S
C140 H153 0.928 . S
H141 C117 0.931 . S
H142 C119 0.930 . S
H143 C121 0.929 . S
H144 C122 0.931 . S
H145 C124 0.930 . S
H146 C128 0.931 . S
H147 C126 0.931 . S
H148 C130 0.931 . S
H149 C131 0.929 . S
H150 C132 0.930 . S
H151 C135 0.930 . S
H152 C136 0.931 . S
H153 C140 0.928 . S
H154 C139 0.929 . S
H155 C137 0.932 . S
C156 C157 1.386 . S
C156 C158 1.397 . S
C156 H180 0.931 . S
C157 C156 1.386 . S
C157 C161 1.397 . S
C158 C156 1.397 . S
C158 C159 1.384 . S
C158 H181 0.930 . S
C159 C158 1.384 . S
C159 C160 1.377 . S
C159 C162 1.481 . S
C160 C159 1.377 . S
C160 C161 1.389 . S
C160 H182 0.929 . S
C161 C157 1.397 . S
C161 C160 1.389 . S
C161 H183 0.931 . S
C162 C159 1.481 . S
C162 C163 1.387 . S
C162 C167 1.390 . S
C163 C162 1.387 . S
C163 C164 1.401 . S
C163 H184 0.930 . S
C164 C163 1.401 . S
C164 C165 1.376 . S
C164 C173 1.511 . S
C165 C164 1.376 . S
C165 C166 1.392 . S
C165 H186 0.931 . S
C166 C165 1.392 . S
C166 C167 1.361 . S
C166 C168 1.500 . S
C167 C162 1.390 . S
C167 C166 1.361 . S
C167 H185 0.931 . S
C168 C166 1.500 . S
C168 C169 1.371 1_554 S
C168 C170 1.365 . S
C169 C168 1.371 1_556 S
C169 C179 1.386 . S
C169 H187 0.931 1_556 S
C170 C168 1.365 . S
C170 C171 1.409 1_554 S
C170 H188 0.929 . S
C171 C170 1.409 1_556 S
C171 C172 1.380 . S
C171 H189 0.930 . S
C172 C171 1.380 . S
C172 C179 1.357 . S
C173 C164 1.511 . S
C173 C174 1.341 . S
C173 C175 1.371 . S
C174 C173 1.341 . S
C174 C178 1.394 . S
C174 H190 0.930 . S
C175 C173 1.371 . S
C175 C176 1.392 . S
C175 H191 0.931 . S
C176 C175 1.392 . S
C176 C177 1.331 . S
C176 H194 0.932 . S
C177 C176 1.331 . S
C177 C178 1.336 . S
C178 C174 1.394 . S
C178 C177 1.336 . S
C178 H193 0.929 . S
C179 C169 1.386 . S
C179 C172 1.357 . S
C179 H192 0.928 . S
H180 C156 0.931 . S
H181 C158 0.930 . S
H182 C160 0.929 . S
H183 C161 0.931 . S
H184 C163 0.930 . S
H185 C167 0.931 . S
H186 C165 0.931 . S
H187 C169 0.931 1_554 S
H188 C170 0.929 . S
H189 C171 0.930 . S
H190 C174 0.930 . S
H191 C175 0.931 . S
H192 C179 0.928 . S
H193 C178 0.929 . S
H194 C176 0.932 . S
C195 C196 1.386 . S
C195 C197 1.397 . S
C195 H219 0.931 . S
C196 C195 1.386 . S
C196 C200 1.397 . S
C197 C195 1.397 . S
C197 C198 1.384 . S
C197 H220 0.930 . S
C198 C197 1.384 . S
C198 C199 1.377 . S
C198 C201 1.481 . S
C199 C198 1.377 . S
C199 C200 1.389 . S
C199 H221 0.929 . S
C200 C196 1.397 . S
C200 C199 1.389 . S
C200 H222 0.931 . S
C201 C198 1.481 . S
C201 C202 1.387 . S
C201 C206 1.390 . S
C202 C201 1.387 . S
C202 C203 1.401 . S
C202 H223 0.930 . S
C203 C202 1.401 . S
C203 C204 1.376 . S
C203 C212 1.511 . S
C204 C203 1.376 . S
C204 C205 1.392 . S
C204 H225 0.931 . S
C205 C204 1.392 . S
C205 C206 1.361 . S
C205 C207 1.500 . S
C206 C201 1.390 . S
C206 C205 1.361 . S
C206 H224 0.931 . S
C207 C205 1.500 . S
C207 C208 1.371 . S
C207 C209 1.365 . S
C208 C207 1.371 . S
C208 C218 1.386 1_554 S
C208 H226 0.931 . S
C209 C207 1.365 . S
C209 C210 1.397 1_554 S
C209 H227 0.929 . S
C210 C209 1.397 1_556 S
C210 C211 1.391 . S
C210 H228 0.932 . S
C211 C210 1.391 . S
C211 C218 1.357 . S
C212 C203 1.511 . S
C212 C213 1.341 . S
C212 C214 1.371 . S
C213 C212 1.341 . S
C213 C217 1.394 . S
C213 H229 0.930 . S
C214 C212 1.371 . S
C214 C215 1.392 . S
C214 H230 0.931 . S
C215 C214 1.392 . S
C215 C216 1.331 . S
C215 H233 0.932 . S
C216 C215 1.331 . S
C216 C217 1.336 . S
C217 C213 1.394 . S
C217 C216 1.336 . S
C217 H232 0.929 . S
C218 C208 1.386 1_556 S
C218 C211 1.357 . S
C218 H231 0.928 . S
H219 C195 0.931 . S
H220 C197 0.930 . S
H221 C199 0.929 . S
H222 C200 0.931 . S
H223 C202 0.930 . S
H224 C206 0.931 . S
H225 C204 0.931 . S
H226 C208 0.931 . S
H227 C209 0.929 . S
H228 C210 0.932 . S
H229 C213 0.930 . S
H230 C214 0.931 . S
H231 C218 0.928 . S
H232 C217 0.929 . S
H233 C215 0.932 . S
C234 C235 1.387 . S
C234 C236 1.397 . S
C234 H258 0.931 . S
C235 C234 1.387 . S
C235 C239 1.396 1_565 S
C236 C234 1.397 . S
C236 C237 1.381 . S
C236 H259 0.930 . S
C237 C236 1.381 . S
C237 C238 1.380 1_565 S
C237 C240 1.483 . S
C238 C237 1.380 1_545 S
C238 C239 1.389 . S
C238 H260 0.929 . S
C239 C235 1.396 1_545 S
C239 C238 1.389 . S
C239 H261 0.931 . S
C240 C237 1.483 . S
C240 C241 1.389 . S
C240 C245 1.387 . S
C241 C240 1.389 . S
C241 C242 1.404 . S
C241 H262 0.930 . S
C242 C241 1.404 . S
C242 C243 1.378 . S
C242 C251 1.513 . S
C243 C242 1.378 . S
C243 C244 1.390 1_565 S
C243 H264 0.929 . S
C244 C243 1.390 1_545 S
C244 C245 1.361 1_545 S
C244 C246 1.494 . S
C245 C240 1.387 . S
C245 C244 1.361 1_565 S
C245 H263 0.931 . S
C246 C244 1.494 . S
C246 C247 1.361 1_544 S
C246 C248 1.382 . S
C247 C246 1.361 1_566 S
C247 C257 1.386 . S
C247 H265 0.931 1_556 S
C248 C246 1.382 . S
C248 C249 1.409 1_554 S
C248 H266 0.929 . S
C249 C248 1.409 1_556 S
C249 C250 1.383 . S
C249 H267 0.930 . S
C250 C249 1.383 . S
C250 C257 1.353 1_545 S
C251 C242 1.513 . S
C251 C252 1.341 . S
C251 C253 1.371 1_565 S
C252 C251 1.341 . S
C252 C256 1.394 . S
C252 H268 0.930 . S
C253 C251 1.371 1_545 S
C253 C254 1.392 . S
C253 H269 0.931 . S
C254 C253 1.392 . S
C254 C255 1.323 1_545 S
C254 H272 0.932 . S
C255 C254 1.323 1_565 S
C255 C256 1.343 . S
C256 C252 1.394 . S
C256 C255 1.343 . S
C256 H271 0.929 . S
C257 C247 1.386 . S
C257 C250 1.353 1_565 S
C257 H270 0.928 . S
H258 C234 0.931 . S
H259 C236 0.930 . S
H260 C238 0.929 . S
H261 C239 0.931 . S
H262 C241 0.930 . S
H263 C245 0.931 . S
H264 C243 0.929 . S
H265 C247 0.931 1_554 S
H266 C248 0.929 . S
H267 C249 0.930 . S
H268 C252 0.930 . S
H269 C253 0.931 . S
H270 C257 0.928 . S
H271 C256 0.929 . S
H272 C254 0.932 . S
C273 C274 1.386 . S
C273 C275 1.397 . S
C273 H297 0.931 . S
C274 C273 1.386 . S
C274 C278 1.397 . S
C275 C273 1.397 . S
C275 C276 1.384 . S
C275 H298 0.930 . S
C276 C275 1.384 . S
C276 C277 1.377 . S
C276 C279 1.481 . S
C277 C276 1.377 . S
C277 C278 1.389 . S
C277 H299 0.929 . S
C278 C274 1.397 . S
C278 C277 1.389 . S
C278 H300 0.931 . S
C279 C276 1.481 . S
C279 C280 1.387 . S
C279 C284 1.390 . S
C280 C279 1.387 . S
C280 C281 1.401 . S
C280 H301 0.930 . S
C281 C280 1.401 . S
C281 C282 1.376 . S
C281 C290 1.511 . S
C282 C281 1.376 . S
C282 C283 1.392 . S
C282 H303 0.931 . S
C283 C282 1.392 . S
C283 C284 1.361 . S
C283 C285 1.500 . S
C284 C279 1.390 . S
C284 C283 1.361 . S
C284 H302 0.931 . S
C285 C283 1.500 . S
C285 C286 1.371 . S
C285 C287 1.365 . S
C286 C285 1.371 . S
C286 C296 1.386 . S
C286 H304 0.931 . S
C287 C285 1.365 . S
C287 C288 1.409 . S
C287 H305 0.929 . S
C288 C287 1.409 . S
C288 C289 1.380 . S
C288 H306 0.930 . S
C289 C288 1.380 . S
C289 C296 1.357 . S
C290 C281 1.511 . S
C290 C291 1.341 . S
C290 C292 1.371 . S
C291 C290 1.341 . S
C291 C295 1.394 . S
C291 H307 0.930 . S
C292 C290 1.371 . S
C292 C293 1.392 . S
C292 H308 0.931 . S
C293 C292 1.392 . S
C293 C294 1.331 . S
C293 H311 0.932 . S
C294 C293 1.331 . S
C294 C295 1.336 . S
C295 C291 1.394 . S
C295 C294 1.336 . S
C295 H310 0.929 . S
C296 C286 1.386 . S
C296 C289 1.357 . S
C296 H309 0.928 . S
H297 C273 0.931 . S
H298 C275 0.930 . S
H299 C277 0.929 . S
H300 C278 0.931 . S
H301 C280 0.930 . S
H302 C284 0.931 . S
H303 C282 0.931 . S
H304 C286 0.931 . S
H305 C287 0.929 . S
H306 C288 0.930 . S
H307 C291 0.930 . S
H308 C292 0.931 . S
H309 C296 0.928 . S
H310 C295 0.929 . S
H311 C293 0.932 . S
Tb312 C321 2.764 . S
Tb312 O322 2.325 1_655 S
Tb312 O325 2.303 1_655 S
Tb312 O329 2.322 1_545 S
Tb312 O330 2.349 . S
Tb312 O333 2.415 1_655 S
Tb312 O334 2.399 . S
Tb313 O323 2.322 1_565 S
Tb313 O324 2.349 . S
Tb313 O326 2.415 . S
Tb313 O327 2.399 . S
Tb313 O328 2.325 . S
Tb313 O331 2.303 1_455 S
Tb313 C342 2.764 . S
C314 O330 1.261 . S
C314 O331 1.257 1_545 S
C315 C318 1.358 . S
C315 C319 1.332 1_655 S
C315 C321 1.504 . S
C316 C317 1.373 . S
C316 C320 1.308 1_655 S
C317 C316 1.373 . S
C317 C318 1.429 . S
C317 H344 0.932 . S
C318 C315 1.358 . S
C318 C317 1.429 . S
C318 H345 0.930 . S
C319 C315 1.332 1_455 S
C319 C320 1.394 . S
C319 H346 0.932 . S
C320 C316 1.308 1_455 S
C320 C319 1.394 . S
C320 H347 0.929 . S
C321 Tb312 2.764 . S
C321 C315 1.504 . S
C321 O333 1.239 1_655 S
C321 O334 1.263 . S
O322 Tb312 2.325 1_455 S
O322 C332 1.236 . S
O323 Tb313 2.322 1_545 S
O323 C332 1.257 . S
O324 Tb313 2.349 . S
O324 C335 1.261 . S
O325 Tb312 2.303 1_455 S
O325 C335 1.257 1_545 S
O326 Tb313 2.415 . S
O326 C342 1.239 . S
O327 Tb313 2.399 . S
O327 C342 1.263 . S
O328 Tb313 2.325 . S
O328 C343 1.236 1_455 S
O329 Tb312 2.322 1_565 S
O329 C343 1.257 . S
O330 Tb312 2.349 . S
O330 C314 1.261 . S
O331 Tb313 2.303 1_655 S
O331 C314 1.257 1_565 S
C332 O322 1.236 . S
C332 O323 1.257 . S
O333 Tb312 2.415 1_455 S
O333 C321 1.239 1_455 S
O334 Tb312 2.399 . S
O334 C321 1.263 . S
C335 O324 1.261 . S
C335 O325 1.257 1_565 S
C336 C339 1.358 . S
C336 C340 1.332 . S
C336 C342 1.504 . S
C337 C338 1.373 . S
C337 C341 1.308 . S
C338 C337 1.373 . S
C338 C339 1.429 . S
C338 H348 0.932 . S
C339 C336 1.358 . S
C339 C338 1.429 . S
C339 H349 0.930 . S
C340 C336 1.332 . S
C340 C341 1.394 . S
C340 H350 0.932 1_455 S
C341 C337 1.308 . S
C341 C340 1.394 . S
C341 H351 0.960 . S
C342 Tb313 2.764 . S
C342 O326 1.239 . S
C342 O327 1.263 . S
C342 C336 1.504 . S
C343 O328 1.236 1_655 S
C343 O329 1.257 . S
H344 C317 0.932 . S
H345 C318 0.930 . S
H346 C319 0.932 . S
H347 C320 0.929 . S
H348 C338 0.932 . S
H349 C339 0.930 . S
H350 C340 0.932 1_655 S
H351 C341 0.960 . S
Tb352 C361 2.764 . S
Tb352 O362 2.325 . S
Tb352 O365 2.303 1_565 S
Tb352 O369 2.322 . S
Tb352 O370 2.349 . S
Tb352 O373 2.415 1_565 S
Tb352 O374 2.399 . S
Tb353 O363 2.322 . S
Tb353 O364 2.349 . S
Tb353 O366 2.415 1_545 S
Tb353 O367 2.399 . S
Tb353 O368 2.325 . S
Tb353 O371 2.303 1_545 S
Tb353 C382 2.764 . S
C354 O370 1.261 . S
C354 O371 1.257 . S
C355 C358 1.358 . S
C355 C359 1.332 1_565 S
C355 C361 1.504 . S
C356 C357 1.373 . S
C356 C360 1.308 . S
C357 C356 1.373 . S
C357 C358 1.429 . S
C357 H384 0.932 . S
C358 C355 1.358 . S
C358 C357 1.429 . S
C358 H385 0.930 . S
C359 C355 1.332 1_545 S
C359 C360 1.394 1_545 S
C359 H386 0.932 . S
C360 C356 1.308 . S
C360 C359 1.394 1_565 S
C360 H387 0.929 1_565 S
C361 Tb352 2.764 . S
C361 C355 1.504 . S
C361 O373 1.239 1_565 S
C361 O374 1.263 . S
O362 Tb352 2.325 . S
O362 C372 1.236 1_565 S
O363 Tb353 2.322 . S
O363 C372 1.257 . S
O364 Tb353 2.349 . S
O364 C375 1.261 . S
O365 Tb352 2.303 1_545 S
O365 C375 1.257 . S
O366 Tb353 2.415 1_565 S
O366 C382 1.239 1_565 S
O367 Tb353 2.399 . S
O367 C382 1.263 . S
O368 Tb353 2.325 . S
O368 C383 1.236 1_545 S
O369 Tb352 2.322 . S
O369 C383 1.257 . S
O370 Tb352 2.349 . S
O370 C354 1.261 . S
O371 Tb353 2.303 1_565 S
O371 C354 1.257 . S
C372 O362 1.236 1_545 S
C372 O363 1.257 . S
O373 Tb352 2.415 1_545 S
O373 C361 1.239 1_545 S
O374 Tb352 2.399 . S
O374 C361 1.263 . S
C375 O364 1.261 . S
C375 O365 1.257 . S
C376 C379 1.358 . S
C376 C380 1.332 . S
C376 C382 1.504 . S
C377 C378 1.373 . S
C377 C381 1.308 1_554 S
C378 C377 1.373 . S
C378 C379 1.429 1_554 S
C378 H388 0.932 . S
C379 C376 1.358 . S
C379 C378 1.429 1_556 S
C379 H389 0.930 . S
C380 C376 1.332 . S
C380 C381 1.394 . S
C380 H390 0.932 1_545 S
C381 C377 1.308 1_556 S
C381 C380 1.394 . S
C381 H391 0.929 1_545 S
C382 Tb353 2.764 . S
C382 O366 1.239 1_545 S
C382 O367 1.263 . S
C382 C376 1.504 . S
C383 O368 1.236 1_565 S
C383 O369 1.257 . S
H384 C357 0.932 . S
H385 C358 0.930 . S
H386 C359 0.932 . S
H387 C360 0.929 1_545 S
H388 C378 0.932 . S
H389 C379 0.930 . S
H390 C380 0.932 1_565 S
H391 C381 0.929 1_565 S
Tb392 C401 2.764 . S
Tb392 O402 2.325 . S
Tb392 O405 2.303 . S
Tb392 O409 2.322 . S
Tb392 O410 2.349 . S
Tb392 O413 2.415 . S
Tb392 O414 2.399 . S
Tb393 O403 2.322 . S
Tb393 O404 2.349 . S
Tb393 O406 2.415 . S
Tb393 O407 2.399 . S
Tb393 O408 2.325 . S
Tb393 O411 2.303 . S
Tb393 C422 2.764 . S
C394 O410 1.261 . S
C394 O411 1.257 . S
C395 C398 1.358 . S
C395 C399 1.332 . S
C395 C401 1.504 . S
C396 C397 1.373 . S
C396 C400 1.308 . S
C397 C396 1.373 . S
C397 C398 1.429 1_554 S
C397 H424 0.932 . S
C398 C395 1.358 . S
C398 C397 1.429 1_556 S
C398 H425 0.930 . S
C399 C395 1.332 . S
C399 C400 1.394 1_556 S
C399 H426 0.932 . S
C400 C396 1.308 . S
C400 C399 1.394 1_554 S
C400 H427 0.929 . S
C401 Tb392 2.764 . S
C401 C395 1.504 . S
C401 O413 1.239 . S
C401 O414 1.263 . S
O402 Tb392 2.325 . S
O402 C412 1.236 . S
O403 Tb393 2.322 . S
O403 C412 1.257 . S
O404 Tb393 2.349 . S
O404 C415 1.261 . S
O405 Tb392 2.303 . S
O405 C415 1.257 . S
O406 Tb393 2.415 . S
O406 C422 1.239 . S
O407 Tb393 2.399 . S
O407 C422 1.263 . S
O408 Tb393 2.325 . S
O408 C423 1.236 . S
O409 Tb392 2.322 . S
O409 C423 1.257 . S
O410 Tb392 2.349 . S
O410 C394 1.261 . S
O411 Tb393 2.303 . S
O411 C394 1.257 . S
C412 O402 1.236 . S
C412 O403 1.257 . S
O413 Tb392 2.415 . S
O413 C401 1.239 . S
O414 Tb392 2.399 . S
O414 C401 1.263 . S
C415 O404 1.261 . S
C415 O405 1.257 . S
C416 C419 1.358 . S
C416 C420 1.332 . S
C416 C422 1.504 . S
C417 C418 1.373 . S
C417 C421 1.308 . S
C418 C417 1.373 . S
C418 C419 1.429 . S
C418 H428 0.932 . S
C419 C416 1.358 . S
C419 C418 1.429 . S
C419 H429 0.930 . S
C420 C416 1.332 . S
C420 C421 1.394 . S
C420 H430 0.932 . S
C421 C417 1.308 . S
C421 C420 1.394 . S
C421 H431 0.929 . S
C422 Tb393 2.764 . S
C422 O406 1.239 . S
C422 O407 1.263 . S
C422 C416 1.504 . S
C423 O408 1.236 . S
C423 O409 1.257 . S
H424 C397 0.932 . S
H425 C398 0.930 . S
H426 C399 0.932 . S
H427 C400 0.929 . S
H428 C418 0.932 . S
H429 C419 0.930 . S
H430 C420 0.932 . S
H431 C421 0.929 . S
Tb432 C441 2.764 . S
Tb432 O442 2.325 . S
Tb432 O445 2.303 . S
Tb432 O449 2.322 1_455 S
Tb432 O450 2.349 . S
Tb432 O453 2.415 . S
Tb432 O454 2.399 . S
Tb433 O443 2.322 1_655 S
Tb433 O444 2.349 1_655 S
Tb433 O446 2.415 . S
Tb433 O447 2.399 . S
Tb433 O448 2.325 . S
Tb433 O451 2.303 1_655 S
Tb433 C462 2.764 . S
C434 O450 1.261 . S
C434 O451 1.257 . S
C435 C438 1.358 . S
C435 C439 1.332 . S
C435 C441 1.504 . S
C436 C437 1.373 . S
C436 C440 1.308 . S
C437 C436 1.373 . S
C437 C438 1.429 . S
C437 H464 0.932 . S
C438 C435 1.358 . S
C438 C437 1.429 . S
C438 H465 0.930 . S
C439 C435 1.332 . S
C439 C440 1.394 . S
C439 H466 0.932 . S
C440 C436 1.308 . S
C440 C439 1.394 . S
C440 H467 0.929 . S
C441 Tb432 2.764 . S
C441 C435 1.504 . S
C441 O453 1.239 . S
C441 O454 1.263 . S
O442 Tb432 2.325 . S
O442 C452 1.236 . S
O443 Tb433 2.322 1_455 S
O443 C452 1.257 . S
O444 Tb433 2.349 1_455 S
O444 C455 1.261 . S
O445 Tb432 2.303 . S
O445 C455 1.257 . S
O446 Tb433 2.415 . S
O446 C462 1.239 . S
O447 Tb433 2.399 . S
O447 C462 1.263 . S
O448 Tb433 2.325 . S
O448 C463 1.236 . S
O449 Tb432 2.322 1_655 S
O449 C463 1.257 . S
O450 Tb432 2.349 . S
O450 C434 1.261 . S
O451 Tb433 2.303 1_455 S
O451 C434 1.257 . S
C452 O442 1.236 . S
C452 O443 1.257 . S
O453 Tb432 2.415 . S
O453 C441 1.239 . S
O454 Tb432 2.399 . S
O454 C441 1.263 . S
C455 O444 1.261 . S
C455 O445 1.257 . S
C456 C459 1.358 . S
C456 C460 1.332 . S
C456 C462 1.504 . S
C457 C458 1.373 1_554 S
C457 C461 1.308 1_554 S
C458 C457 1.373 1_556 S
C458 C459 1.429 . S
C458 H468 0.932 . S
C459 C456 1.358 . S
C459 C458 1.429 . S
C459 H469 0.930 . S
C460 C456 1.332 . S
C460 C461 1.394 . S
C460 H470 0.932 . S
C461 C457 1.308 1_556 S
C461 C460 1.394 . S
C461 H471 0.929 1_556 S
C462 Tb433 2.764 . S
C462 O446 1.239 . S
C462 O447 1.263 . S
C462 C456 1.504 . S
C463 O448 1.236 . S
C463 O449 1.257 . S
H464 C437 0.932 . S
H465 C438 0.930 . S
H466 C439 0.932 . S
H467 C440 0.929 . S
H468 C458 0.932 . S
H469 C459 0.930 . S
H470 C460 0.932 . S
H471 C461 0.929 1_554 S
H472 C484 0.930 . S
H473 C486 0.930 . S
H474 C487 0.930 . S
H475 C491 0.959 . S
H476 C491 0.959 . S
H477 C491 0.961 . S
H478 C492 0.960 . S
H479 C492 0.961 . S
H480 C492 0.959 . S
H481 C495 0.929 . S
H482 C496 0.931 . S
H483 C498 0.930 . S
C484 H472 0.930 . S
C484 C485 1.399 1_565 S
C484 C489 1.399 . S
C485 C484 1.399 1_545 S
C485 C486 1.376 . S
C486 H473 0.930 . S
C486 C485 1.376 . S
C486 C487 1.388 . S
C487 H474 0.930 . S
C487 C486 1.388 . S
C487 C488 1.390 . S
C488 C487 1.390 . S
C488 C489 1.394 1_545 S
C488 C494 1.465 . S
C489 C484 1.399 . S
C489 C488 1.394 1_565 S
C489 C490 1.516 . S
C490 C489 1.516 . S
C490 C491 1.502 . S
C490 C492 1.561 . S
C490 C493 1.526 . S
C491 H475 0.959 . S
C491 H476 0.959 . S
C491 H477 0.961 . S
C491 C490 1.502 . S
C492 H478 0.960 . S
C492 H479 0.961 . S
C492 H480 0.959 . S
C492 C490 1.561 . S
C493 C490 1.526 . S
C493 C494 1.396 1_565 S
C493 C498 1.390 . S
C494 C488 1.465 . S
C494 C493 1.396 1_545 S
C494 C495 1.399 . S
C495 H481 0.929 . S
C495 C494 1.399 . S
C495 C496 1.385 . S
C496 H482 0.931 . S
C496 C495 1.385 . S
C496 C497 1.389 . S
C497 C496 1.389 . S
C497 C498 1.387 1_545 S
C498 H483 0.930 . S
C498 C493 1.390 . S
C498 C497 1.387 1_565 S
H499 C511 0.930 . S
H500 C513 0.930 . S
H501 C514 0.930 . S
H502 C518 0.959 . S
H503 C518 0.959 . S
H504 C518 0.961 . S
H505 C519 0.960 . S
H506 C519 0.961 . S
H507 C519 0.959 . S
H508 C522 0.929 . S
H509 C523 0.931 . S
H510 C525 0.930 . S
C511 H499 0.930 . S
C511 C512 1.399 . S
C511 C516 1.399 . S
C512 C511 1.399 . S
C512 C513 1.376 . S
C513 H500 0.930 . S
C513 C512 1.376 . S
C513 C514 1.388 . S
C514 H501 0.930 . S
C514 C513 1.388 . S
C514 C515 1.390 . S
C515 C514 1.390 . S
C515 C516 1.394 . S
C515 C521 1.465 . S
C516 C511 1.399 . S
C516 C515 1.394 . S
C516 C517 1.516 . S
C517 C516 1.516 . S
C517 C518 1.502 . S
C517 C519 1.561 . S
C517 C520 1.526 . S
C518 H502 0.959 . S
C518 H503 0.959 . S
C518 H504 0.961 . S
C518 C517 1.502 . S
C519 H505 0.960 . S
C519 H506 0.961 . S
C519 H507 0.959 . S
C519 C517 1.561 . S
C520 C517 1.526 . S
C520 C521 1.396 . S
C520 C525 1.390 . S
C521 C515 1.465 . S
C521 C520 1.396 . S
C521 C522 1.399 . S
C522 H508 0.929 . S
C522 C521 1.399 . S
C522 C523 1.385 . S
C523 H509 0.931 . S
C523 C522 1.385 . S
C523 C524 1.389 . S
C524 C523 1.389 . S
C524 C525 1.387 . S
C525 H510 0.930 . S
C525 C520 1.390 . S
C525 C524 1.387 . S
H526 C538 0.930 . S
H527 C540 0.930 . S
H528 C541 0.930 . S
H529 C545 0.959 . S
H530 C545 0.959 . S
H531 C545 0.961 . S
H532 C546 0.960 . S
H533 C546 0.961 . S
H534 C546 0.959 . S
H535 C549 0.929 . S
H536 C550 0.931 . S
H537 C552 0.930 . S
C538 H526 0.930 . S
C538 C539 1.399 . S
C538 C543 1.399 . S
C539 C538 1.399 . S
C539 C540 1.376 . S
C540 H527 0.930 . S
C540 C539 1.376 . S
C540 C541 1.388 . S
C541 H528 0.930 . S
C541 C540 1.388 . S
C541 C542 1.390 . S
C542 C541 1.390 . S
C542 C543 1.394 . S
C542 C548 1.465 . S
C543 C538 1.399 . S
C543 C542 1.394 . S
C543 C544 1.516 . S
C544 C543 1.516 . S
C544 C545 1.502 . S
C544 C546 1.561 . S
C544 C547 1.526 . S
C545 H529 0.959 . S
C545 H530 0.959 . S
C545 H531 0.961 . S
C545 C544 1.502 . S
C546 H532 0.960 . S
C546 H533 0.961 . S
C546 H534 0.959 . S
C546 C544 1.561 . S
C547 C544 1.526 . S
C547 C548 1.396 . S
C547 C552 1.390 . S
C548 C542 1.465 . S
C548 C547 1.396 . S
C548 C549 1.399 . S
C549 H535 0.929 . S
C549 C548 1.399 . S
C549 C550 1.385 . S
C550 H536 0.931 . S
C550 C549 1.385 . S
C550 C551 1.389 . S
C551 C550 1.389 . S
C551 C552 1.387 . S
C552 H537 0.930 . S
C552 C547 1.390 . S
C552 C551 1.387 . S
H553 C565 0.930 . S
H554 C567 0.930 . S
H555 C568 0.930 . S
H556 C572 0.959 . S
H557 C572 0.959 . S
H558 C572 0.961 . S
H559 C573 0.960 . S
H560 C573 0.961 . S
H561 C573 0.959 . S
H562 C576 0.929 1_655 S
H563 C577 0.931 1_655 S
H564 C579 0.930 . S
C565 H553 0.930 . S
C565 C566 1.399 . S
C565 C570 1.399 . S
C566 C565 1.399 . S
C566 C567 1.376 . S
C567 H554 0.930 . S
C567 C566 1.376 . S
C567 C568 1.388 . S
C568 H555 0.930 . S
C568 C567 1.388 . S
C568 C569 1.390 . S
C569 C568 1.390 . S
C569 C570 1.394 . S
C569 C575 1.465 . S
C570 C565 1.399 . S
C570 C569 1.394 . S
C570 C571 1.516 . S
C571 C570 1.516 . S
C571 C572 1.502 . S
C571 C573 1.561 . S
C571 C574 1.526 . S
C572 H556 0.959 . S
C572 H557 0.959 . S
C572 H558 0.961 . S
C572 C571 1.502 . S
C573 H559 0.960 . S
C573 H560 0.961 . S
C573 H561 0.959 . S
C573 C571 1.561 . S
C574 C571 1.526 . S
C574 C575 1.396 . S
C574 C579 1.390 . S
C575 C569 1.465 . S
C575 C574 1.396 . S
C575 C576 1.399 . S
C576 H562 0.929 1_455 S
C576 C575 1.399 . S
C576 C577 1.385 . S
C577 H563 0.931 1_455 S
C577 C576 1.385 . S
C577 C578 1.389 . S
C578 C577 1.389 . S
C578 C579 1.387 . S
C579 H564 0.930 . S
C579 C574 1.390 . S
C579 C578 1.387 . S
H580 C592 0.930 . S
H581 C594 0.930 . S
H582 C595 0.930 . S
H583 C599 0.959 . S
H584 C599 0.959 . S
H585 C599 0.961 . S
H586 C600 0.960 . S
H587 C600 0.961 . S
H588 C600 0.959 . S
H589 C603 0.929 . S
H590 C604 0.931 . S
H591 C606 0.930 . S
C592 H580 0.930 . S
C592 C593 1.399 1_545 S
C592 C597 1.399 . S
C593 C592 1.399 1_565 S
C593 C594 1.376 . S
C594 H581 0.930 . S
C594 C593 1.376 . S
C594 C595 1.388 . S
C595 H582 0.930 . S
C595 C594 1.388 . S
C595 C596 1.390 . S
C596 C595 1.390 . S
C596 C597 1.394 1_565 S
C596 C602 1.465 . S
C597 C592 1.399 . S
C597 C596 1.394 1_545 S
C597 C598 1.516 . S
C598 C597 1.516 . S
C598 C599 1.502 . S
C598 C600 1.561 . S
C598 C601 1.526 . S
C599 H583 0.959 . S
C599 H584 0.959 . S
C599 H585 0.961 . S
C599 C598 1.502 . S
C600 H586 0.960 . S
C600 H587 0.961 . S
C600 H588 0.959 . S
C600 C598 1.561 . S
C601 C598 1.526 . S
C601 C602 1.396 1_545 S
C601 C606 1.390 1_554 S
C602 C596 1.465 . S
C602 C601 1.396 1_565 S
C602 C603 1.399 . S
C603 H589 0.929 . S
C603 C602 1.399 . S
C603 C604 1.385 1_554 S
C604 H590 0.931 . S
C604 C603 1.385 1_556 S
C604 C605 1.389 . S
C605 C604 1.389 . S
C605 C606 1.387 1_565 S
C606 H591 0.930 . S
C606 C601 1.390 1_556 S
C606 C605 1.387 1_545 S
H607 C619 0.930 . S
H608 C621 0.930 . S
H609 C622 0.930 . S
H610 C626 0.959 . S
H611 C626 0.959 . S
H612 C626 0.961 . S
H613 C627 0.960 1_554 S
H614 C627 0.961 . S
H615 C627 0.960 . S
H616 C630 0.929 . S
H617 C631 0.931 . S
H618 C633 0.930 . S
C619 H607 0.930 . S
C619 C620 1.399 . S
C619 C624 1.399 . S
C620 C619 1.399 . S
C620 C621 1.376 . S
C621 H608 0.930 . S
C621 C620 1.376 . S
C621 C622 1.388 . S
C622 H609 0.930 . S
C622 C621 1.388 . S
C622 C623 1.390 . S
C623 C622 1.390 . S
C623 C624 1.394 . S
C623 C629 1.465 . S
C624 C619 1.399 . S
C624 C623 1.394 . S
C624 C625 1.516 . S
C625 C624 1.516 . S
C625 C626 1.502 . S
C625 C627 1.561 . S
C625 C628 1.526 . S
C626 H610 0.959 . S
C626 H611 0.959 . S
C626 H612 0.961 . S
C626 C625 1.502 . S
C627 H613 0.960 1_556 S
C627 H614 0.961 . S
C627 H615 0.960 . S
C627 C625 1.561 . S
C628 C625 1.526 . S
C628 C629 1.396 . S
C628 C633 1.390 . S
C629 C623 1.465 . S
C629 C628 1.396 . S
C629 C630 1.399 . S
C630 H616 0.929 . S
C630 C629 1.399 . S
C630 C631 1.385 . S
C631 H617 0.931 . S
C631 C630 1.385 . S
C631 C632 1.389 . S
C632 C631 1.389 . S
C632 C633 1.387 . S
C633 H618 0.930 . S
C633 C628 1.390 . S
C633 C632 1.387 . S
H634 C646 0.930 . S
H635 C648 0.930 . S
H636 C649 0.930 . S
H637 C653 0.959 . S
H638 C653 0.959 . S
H639 C653 0.961 . S
H640 C654 0.960 . S
H641 C654 0.961 . S
H642 C654 0.959 . S
H643 C657 0.929 . S
H644 C658 0.931 . S
H645 C660 0.930 . S
C646 H634 0.930 . S
C646 C647 1.399 . S
C646 C651 1.399 . S
C647 C646 1.399 . S
C647 C648 1.376 . S
C648 H635 0.930 . S
C648 C647 1.376 . S
C648 C649 1.388 . S
C649 H636 0.930 . S
C649 C648 1.388 . S
C649 C650 1.390 . S
C650 C649 1.390 . S
C650 C651 1.394 . S
C650 C656 1.465 . S
C651 C646 1.399 . S
C651 C650 1.394 . S
C651 C652 1.516 . S
C652 C651 1.516 . S
C652 C653 1.502 . S
C652 C654 1.561 . S
C652 C655 1.526 . S
C653 H637 0.959 . S
C653 H638 0.959 . S
C653 H639 0.961 . S
C653 C652 1.502 . S
C654 H640 0.960 . S
C654 H641 0.961 . S
C654 H642 0.959 . S
C654 C652 1.561 . S
C655 C652 1.526 . S
C655 C656 1.396 . S
C655 C660 1.390 1_554 S
C656 C650 1.465 . S
C656 C655 1.396 . S
C656 C657 1.399 . S
C657 H643 0.929 . S
C657 C656 1.399 . S
C657 C658 1.385 1_554 S
C658 H644 0.931 . S
C658 C657 1.385 1_556 S
C658 C659 1.389 . S
C659 C658 1.389 . S
C659 C660 1.387 . S
C660 H645 0.930 . S
C660 C655 1.390 1_556 S
C660 C659 1.387 . S
H661 C673 0.930 . S
H662 C675 0.930 . S
H663 C676 0.930 . S
H664 C680 0.959 . S
H665 C680 0.959 . S
H666 C680 0.961 . S
H667 C681 0.960 . S
H668 C681 0.961 . S
H669 C681 0.959 . S
H670 C684 0.929 . S
H671 C685 0.931 . S
H672 C687 0.932 . S
C673 H661 0.930 . S
C673 C674 1.399 . S
C673 C678 1.399 . S
C674 C673 1.399 . S
C674 C675 1.376 . S
C675 H662 0.930 . S
C675 C674 1.376 . S
C675 C676 1.388 . S
C676 H663 0.930 . S
C676 C675 1.388 . S
C676 C677 1.390 . S
C677 C676 1.390 . S
C677 C678 1.394 . S
C677 C683 1.465 . S
C678 C673 1.399 . S
C678 C677 1.394 . S
C678 C679 1.516 . S
C679 C678 1.516 . S
C679 C680 1.502 1_655 S
C679 C681 1.561 . S
C679 C682 1.526 . S
C680 H664 0.959 . S
C680 H665 0.959 . S
C680 H666 0.961 . S
C680 C679 1.502 1_455 S
C681 H667 0.960 . S
C681 H668 0.961 . S
C681 H669 0.959 . S
C681 C679 1.561 . S
C682 C679 1.526 . S
C682 C683 1.396 . S
C682 C687 1.387 1_654 S
C683 C677 1.465 . S
C683 C682 1.396 . S
C683 C684 1.399 1_554 S
C684 H670 0.929 . S
C684 C683 1.399 1_556 S
C684 C685 1.385 . S
C685 H671 0.931 . S
C685 C684 1.385 . S
C685 C686 1.394 . S
C686 C685 1.394 . S
C686 C687 1.386 1_655 S
C687 H672 0.932 . S
C687 C682 1.387 1_456 S
C687 C686 1.386 1_455 S
H688 C700 0.930 . S
H689 C702 0.930 . S
H690 C703 0.899 1_655 S
H691 C707 0.959 . S
H692 C707 0.959 . S
H693 C707 0.961 . S
H694 C708 0.960 . S
H695 C708 0.961 . S
H696 C708 0.959 1_655 S
H697 C711 0.929 . S
H698 C712 0.931 . S
H699 C714 0.930 1_455 S
C700 H688 0.930 . S
C700 C701 1.399 . S
C700 C705 1.399 . S
C701 C700 1.399 . S
C701 C702 1.376 . S
C702 H689 0.930 . S
C702 C701 1.376 . S
C702 C703 1.388 . S
C703 H690 0.899 1_455 S
C703 C702 1.388 . S
C703 C704 1.390 . S
C704 C703 1.390 . S
C704 C705 1.394 . S
C704 C710 1.465 1_455 S
C705 C700 1.399 . S
C705 C704 1.394 . S
C705 C706 1.516 . S
C706 C705 1.516 . S
C706 C707 1.502 . S
C706 C708 1.561 . S
C706 C709 1.526 . S
C707 H691 0.959 . S
C707 H692 0.959 . S
C707 H693 0.961 . S
C707 C706 1.502 . S
C708 H694 0.960 . S
C708 H695 0.961 . S
C708 H696 0.959 1_455 S
C708 C706 1.561 . S
C709 C706 1.526 . S
C709 C710 1.396 1_455 S
C709 C714 1.390 1_455 S
C710 C704 1.465 1_655 S
C710 C709 1.396 1_655 S
C710 C711 1.399 . S
C711 H697 0.929 . S
C711 C710 1.399 . S
C711 C712 1.385 . S
C712 H698 0.931 . S
C712 C711 1.385 . S
C712 C713 1.389 . S
C713 C712 1.389 . S
C713 C714 1.387 . S
C714 H699 0.930 1_655 S
C714 C709 1.390 1_655 S
C714 C713 1.387 . S
H715 C727 0.930 . S
H716 C729 0.930 . S
H717 C730 0.930 . S
H718 C734 0.959 . S
H719 C734 0.959 . S
H720 C734 0.961 . S
H721 C735 0.960 . S
H722 C735 0.961 . S
H723 C735 0.959 . S
H724 C738 0.929 . S
H725 C739 0.932 . S
H726 C741 0.930 . S
C727 H715 0.930 . S
C727 C728 1.399 1_565 S
C727 C732 1.399 . S
C728 C727 1.399 1_545 S
C728 C729 1.376 . S
C729 H716 0.930 . S
C729 C728 1.376 . S
C729 C730 1.388 . S
C730 H717 0.930 . S
C730 C729 1.388 . S
C730 C731 1.390 . S
C731 C730 1.390 . S
C731 C732 1.394 1_545 S
C731 C737 1.465 1_545 S
C732 C727 1.399 . S
C732 C731 1.394 1_565 S
C732 C733 1.516 . S
C733 C732 1.516 . S
C733 C734 1.502 . S
C733 C735 1.561 . S
C733 C736 1.526 . S
C734 H718 0.959 . S
C734 H719 0.959 . S
C734 H720 0.961 . S
C734 C733 1.502 . S
C735 H721 0.960 . S
C735 H722 0.961 . S
C735 H723 0.959 . S
C735 C733 1.561 . S
C736 C733 1.526 . S
C736 C737 1.396 . S
C736 C741 1.390 . S
C737 C731 1.465 1_565 S
C737 C736 1.396 . S
C737 C738 1.399 1_565 S
C738 H724 0.929 . S
C738 C737 1.399 1_545 S
C738 C739 1.387 . S
C739 H725 0.932 . S
C739 C738 1.387 . S
C739 C740 1.386 1_545 S
C740 C739 1.386 1_565 S
C740 C741 1.387 . S
C741 H726 0.930 . S
C741 C736 1.390 . S
C741 C740 1.387 . S
H742 C754 0.930 . S
H743 C756 0.930 . S
H744 C757 0.930 . S
H745 C761 0.959 . S
H746 C761 0.959 . S
H747 C761 0.961 . S
H748 C762 0.960 . S
H749 C762 0.961 . S
H750 C762 0.959 . S
H751 C765 0.929 . S
H752 C766 0.931 . S
H753 C768 0.930 . S
C754 H742 0.930 . S
C754 C755 1.399 . S
C754 C759 1.399 . S
C755 C754 1.399 . S
C755 C756 1.376 . S
C756 H743 0.930 . S
C756 C755 1.376 . S
C756 C757 1.388 . S
C757 H744 0.930 . S
C757 C756 1.388 . S
C757 C758 1.390 . S
C758 C757 1.390 . S
C758 C759 1.394 . S
C758 C764 1.465 . S
C759 C754 1.399 . S
C759 C758 1.394 . S
C759 C760 1.516 . S
C760 C759 1.516 . S
C760 C761 1.502 . S
C760 C762 1.561 . S
C760 C763 1.526 . S
C761 H745 0.959 . S
C761 H746 0.959 . S
C761 H747 0.961 . S
C761 C760 1.502 . S
C762 H748 0.960 . S
C762 H749 0.961 . S
C762 H750 0.959 . S
C762 C760 1.561 . S
C763 C760 1.526 . S
C763 C764 1.396 . S
C763 C768 1.390 . S
C764 C758 1.465 . S
C764 C763 1.396 . S
C764 C765 1.399 . S
C765 H751 0.929 . S
C765 C764 1.399 . S
C765 C766 1.385 . S
C766 H752 0.931 . S
C766 C765 1.385 . S
C766 C767 1.389 . S
C767 C766 1.389 . S
C767 C768 1.387 . S
C768 H753 0.930 . S
C768 C763 1.390 . S
C768 C767 1.387 . S
H769 C781 0.930 . S
H770 C783 0.930 . S
H771 C784 0.930 . S
H772 C788 0.959 . S
H773 C788 0.959 . S
H774 C788 0.961 . S
H775 C789 0.960 . S
H776 C789 0.961 . S
H777 C789 0.959 . S
H778 C792 0.929 . S
H779 C793 0.931 . S
H780 C795 0.930 . S
C781 H769 0.930 . S
C781 C782 1.399 . S
C781 C786 1.399 . S
C782 C781 1.399 . S
C782 C783 1.376 . S
C783 H770 0.930 . S
C783 C782 1.376 . S
C783 C784 1.388 . S
C784 H771 0.930 . S
C784 C783 1.388 . S
C784 C785 1.390 . S
C785 C784 1.390 . S
C785 C786 1.394 . S
C785 C791 1.465 . S
C786 C781 1.399 . S
C786 C785 1.394 . S
C786 C787 1.516 . S
C787 C786 1.516 . S
C787 C788 1.502 . S
C787 C789 1.561 . S
C787 C790 1.526 . S
C788 H772 0.959 . S
C788 H773 0.959 . S
C788 H774 0.961 . S
C788 C787 1.502 . S
C789 H775 0.960 . S
C789 H776 0.961 . S
C789 H777 0.959 . S
C789 C787 1.561 . S
C790 C787 1.526 . S
C790 C791 1.396 . S
C790 C795 1.390 . S
C791 C785 1.465 . S
C791 C790 1.396 . S
C791 C792 1.399 . S
C792 H778 0.929 . S
C792 C791 1.399 . S
C792 C793 1.385 . S
C793 H779 0.931 . S
C793 C792 1.385 . S
C793 C794 1.389 . S
C794 C793 1.389 . S
C794 C795 1.387 . S
C795 H780 0.930 . S
C795 C790 1.390 . S
C795 C794 1.387 . S
H796 C808 0.925 1_455 S
H797 C810 0.930 . S
H798 C811 0.930 1_556 S
H799 C815 0.959 . S
H800 C815 0.959 . S
H801 C815 0.961 . S
H802 C816 0.960 . S
H803 C816 0.961 . S
H804 C816 0.959 . S
H805 C819 0.905 1_655 S
H806 C820 0.931 . S
H807 C822 0.930 . S
C808 H796 0.925 1_655 S
C808 C809 1.399 . S
C808 C813 1.399 1_655 S
C809 C808 1.399 . S
C809 C810 1.376 . S
C810 H797 0.930 . S
C810 C809 1.376 . S
C810 C811 1.388 . S
C811 H798 0.930 1_554 S
C811 C810 1.388 . S
C811 C812 1.390 . S
C812 C811 1.390 . S
C812 C813 1.394 1_655 S
C812 C818 1.465 1_655 S
C813 C808 1.399 1_455 S
C813 C812 1.394 1_455 S
C813 C814 1.516 . S
C814 C813 1.516 . S
C814 C815 1.502 . S
C814 C816 1.561 . S
C814 C817 1.526 . S
C815 H799 0.959 . S
C815 H800 0.959 . S
C815 H801 0.961 . S
C815 C814 1.502 . S
C816 H802 0.960 . S
C816 H803 0.961 . S
C816 H804 0.959 . S
C816 C814 1.561 . S
C817 C814 1.526 . S
C817 C818 1.396 . S
C817 C822 1.390 . S
C818 C812 1.465 1_455 S
C818 C817 1.396 . S
C818 C819 1.399 1_554 S
C819 H805 0.905 1_455 S
C819 C818 1.399 1_556 S
C819 C820 1.385 . S
C820 H806 0.931 . S
C820 C819 1.385 . S
C820 C821 1.389 . S
C821 C820 1.389 . S
C821 C822 1.387 1_556 S
C822 H807 0.930 . S
C822 C817 1.390 . S
C822 C821 1.387 1_554 S
H823 C835 0.930 . S
H824 C837 0.930 . S
H825 C838 0.930 . S
H826 C842 0.959 . S
H827 C842 0.959 . S
H828 C842 0.961 . S
H829 C843 0.960 . S
H830 C843 0.961 . S
H831 C843 0.959 . S
H832 C846 0.929 . S
H833 C847 0.931 . S
H834 C849 0.930 1_566 S
C835 H823 0.930 . S
C835 C836 1.399 . S
C835 C840 1.399 . S
C836 C835 1.399 . S
C836 C837 1.376 1_565 S
C837 H824 0.930 . S
C837 C836 1.376 1_545 S
C837 C838 1.388 . S
C838 H825 0.930 . S
C838 C837 1.388 . S
C838 C839 1.390 . S
C839 C838 1.390 . S
C839 C840 1.394 1_545 S
C839 C845 1.465 . S
C840 C835 1.399 . S
C840 C839 1.394 1_565 S
C840 C841 1.516 . S
C841 C840 1.516 . S
C841 C842 1.502 1_554 S
C841 C843 1.561 . S
C841 C844 1.526 1_565 S
C842 H826 0.959 . S
C842 H827 0.959 . S
C842 H828 0.961 . S
C842 C841 1.502 1_556 S
C843 H829 0.960 . S
C843 H830 0.961 . S
C843 H831 0.959 . S
C843 C841 1.561 . S
C844 C841 1.526 1_545 S
C844 C845 1.396 . S
C844 C849 1.390 . S
C845 C839 1.465 . S
C845 C844 1.396 . S
C845 C846 1.399 . S
C846 H832 0.929 . S
C846 C845 1.399 . S
C846 C847 1.385 . S
C847 H833 0.931 . S
C847 C846 1.385 . S
C847 C848 1.389 . S
C848 C847 1.389 . S
C848 C849 1.387 . S
C849 H834 0.930 1_544 S
C849 C844 1.390 . S
C849 C848 1.387 . S
H850 C862 0.930 . S
H851 C864 0.930 . S
H852 C865 0.930 . S
H853 C869 0.959 . S
H854 C869 0.959 . S
H855 C869 0.961 . S
H856 C870 0.960 . S
H857 C870 0.961 . S
H858 C870 0.959 . S
H859 C873 0.929 . S
H860 C874 0.931 . S
H861 C876 0.930 . S
C862 H850 0.930 . S
C862 C863 1.399 . S
C862 C867 1.399 . S
C863 C862 1.399 . S
C863 C864 1.376 . S
C864 H851 0.930 . S
C864 C863 1.376 . S
C864 C865 1.388 . S
C865 H852 0.930 . S
C865 C864 1.388 . S
C865 C866 1.390 . S
C866 C865 1.390 . S
C866 C867 1.394 . S
C866 C872 1.465 . S
C867 C862 1.399 . S
C867 C866 1.394 . S
C867 C868 1.516 . S
C868 C867 1.516 . S
C868 C869 1.502 . S
C868 C870 1.561 . S
C868 C871 1.526 . S
C869 H853 0.959 . S
C869 H854 0.959 . S
C869 H855 0.961 . S
C869 C868 1.502 . S
C870 H856 0.960 . S
C870 H857 0.961 . S
C870 H858 0.959 . S
C870 C868 1.561 . S
C871 C868 1.526 . S
C871 C872 1.396 . S
C871 C876 1.390 . S
C872 C866 1.465 . S
C872 C871 1.396 . S
C872 C873 1.399 . S
C873 H859 0.929 . S
C873 C872 1.399 . S
C873 C874 1.385 . S
C874 H860 0.931 . S
C874 C873 1.385 . S
C874 C875 1.389 . S
C875 C874 1.389 . S
C875 C876 1.387 . S
C876 H861 0.930 . S
C876 C871 1.390 . S
C876 C875 1.387 . S
H877 C889 0.930 . S
H878 C891 0.930 . S
H879 C892 0.930 . S
H880 C896 0.959 . S
H881 C896 0.959 . S
H882 C896 0.961 . S
H883 C897 0.960 . S
H884 C897 0.961 . S
H885 C897 0.959 . S
H886 C900 0.929 . S
H887 C901 0.931 . S
H888 C903 0.930 1_556 S
C889 H877 0.930 . S
C889 C890 1.399 . S
C889 C894 1.399 . S
C890 C889 1.399 . S
C890 C891 1.376 . S
C891 H878 0.930 . S
C891 C890 1.376 . S
C891 C892 1.388 . S
C892 H879 0.930 . S
C892 C891 1.388 . S
C892 C893 1.390 . S
C893 C892 1.390 . S
C893 C894 1.394 . S
C893 C899 1.465 . S
C894 C889 1.399 . S
C894 C893 1.394 . S
C894 C895 1.516 . S
C895 C894 1.516 . S
C895 C896 1.502 1_554 S
C895 C897 1.561 . S
C895 C898 1.526 . S
C896 H880 0.959 . S
C896 H881 0.959 . S
C896 H882 0.961 . S
C896 C895 1.502 1_556 S
C897 H883 0.960 . S
C897 H884 0.961 . S
C897 H885 0.959 . S
C897 C895 1.561 . S
C898 C895 1.526 . S
C898 C899 1.396 . S
C898 C903 1.390 . S
C899 C893 1.465 . S
C899 C898 1.396 . S
C899 C900 1.399 . S
C900 H886 0.929 . S
C900 C899 1.399 . S
C900 C901 1.385 . S
C901 H887 0.931 . S
C901 C900 1.385 . S
C901 C902 1.389 . S
C902 C901 1.389 . S
C902 C903 1.387 . S
C903 H888 0.930 1_554 S
C903 C898 1.390 . S
C903 C902 1.387 . S
H904 C916 0.930 . S
H905 C918 0.930 1_554 S
H906 C919 0.930 1_554 S
H907 C923 0.959 1_655 S
H908 C923 0.959 . S
H909 C923 0.961 . S
H910 C924 0.960 . S
H911 C924 0.961 . S
H912 C924 0.959 . S
H913 C927 0.929 . S
H914 C928 0.931 . S
H915 C930 0.930 . S
C916 H904 0.930 . S
C916 C917 1.399 . S
C916 C921 1.399 . S
C917 C916 1.399 . S
C917 C918 1.376 . S
C918 H905 0.930 1_556 S
C918 C917 1.376 . S
C918 C919 1.388 . S
C919 H906 0.930 1_556 S
C919 C918 1.388 . S
C919 C920 1.390 . S
C920 C919 1.390 . S
C920 C921 1.394 . S
C920 C926 1.465 . S
C921 C916 1.399 . S
C921 C920 1.394 . S
C921 C922 1.516 . S
C922 C921 1.516 . S
C922 C923 1.502 . S
C922 C924 1.561 . S
C922 C925 1.526 . S
C923 H907 0.959 1_455 S
C923 H908 0.959 . S
C923 H909 0.961 . S
C923 C922 1.502 . S
C924 H910 0.960 . S
C924 H911 0.961 . S
C924 H912 0.959 . S
C924 C922 1.561 . S
C925 C922 1.526 . S
C925 C926 1.396 . S
C925 C930 1.390 . S
C926 C920 1.465 . S
C926 C925 1.396 . S
C926 C927 1.399 . S
C927 H913 0.929 . S
C927 C926 1.399 . S
C927 C928 1.385 . S
C928 H914 0.931 . S
C928 C927 1.385 . S
C928 C929 1.389 . S
C929 C928 1.389 . S
C929 C930 1.387 . S
C930 H915 0.930 . S
C930 C925 1.390 . S
C930 C929 1.387 . S
H931 C943 0.930 . S
H932 C945 0.930 . S
H933 C946 0.930 . S
H934 C950 0.959 . S
H935 C950 0.959 . S
H936 C950 0.961 . S
H937 C951 0.960 . S
H938 C951 0.961 . S
H939 C951 0.959 . S
H940 C954 0.929 . S
H941 C955 0.931 . S
H942 C957 0.930 . S
C943 H931 0.930 . S
C943 C944 1.399 1_565 S
C943 C948 1.399 . S
C944 C943 1.399 1_545 S
C944 C945 1.376 . S
C945 H932 0.930 . S
C945 C944 1.376 . S
C945 C946 1.388 . S
C946 H933 0.930 . S
C946 C945 1.388 . S
C946 C947 1.390 . S
C947 C946 1.390 . S
C947 C948 1.394 1_545 S
C947 C953 1.465 . S
C948 C943 1.399 . S
C948 C947 1.394 1_565 S
C948 C949 1.516 . S
C949 C948 1.516 . S
C949 C950 1.502 . S
C949 C951 1.561 . S
C949 C952 1.526 . S
C950 H934 0.959 . S
C950 H935 0.959 . S
C950 H936 0.961 . S
C950 C949 1.502 . S
C951 H937 0.960 . S
C951 H938 0.961 . S
C951 H939 0.959 . S
C951 C949 1.561 . S
C952 C949 1.526 . S
C952 C953 1.396 1_565 S
C952 C957 1.390 . S
C953 C947 1.465 . S
C953 C952 1.396 1_545 S
C953 C954 1.399 . S
C954 H940 0.929 . S
C954 C953 1.399 . S
C954 C955 1.385 . S
C955 H941 0.931 . S
C955 C954 1.385 . S
C955 C956 1.389 . S
C956 C955 1.389 . S
C956 C957 1.387 1_545 S
C957 H942 0.930 . S
C957 C952 1.390 . S
C957 C956 1.387 1_565 S
H958 C970 0.930 . S
H959 C972 0.930 . S
H960 C973 0.930 . S
H961 C977 0.959 . S
H962 C977 0.959 . S
H963 C977 0.961 . S
H964 C978 0.960 . S
H965 C978 0.961 . S
H966 C978 0.959 . S
H967 C981 0.929 . S
H968 C982 0.931 . S
H969 C984 0.930 . S
C970 H958 0.930 . S
C970 C971 1.399 . S
C970 C975 1.399 . S
C971 C970 1.399 . S
C971 C972 1.376 . S
C972 H959 0.930 . S
C972 C971 1.376 . S
C972 C973 1.388 . S
C973 H960 0.930 . S
C973 C972 1.388 . S
C973 C974 1.390 . S
C974 C973 1.390 . S
C974 C975 1.394 . S
C974 C980 1.465 . S
C975 C970 1.399 . S
C975 C974 1.394 . S
C975 C976 1.516 . S
C976 C975 1.516 . S
C976 C977 1.502 . S
C976 C978 1.561 . S
C976 C979 1.526 . S
C977 H961 0.959 . S
C977 H962 0.959 . S
C977 H963 0.961 . S
C977 C976 1.502 . S
C978 H964 0.960 . S
C978 H965 0.961 . S
C978 H966 0.959 . S
C978 C976 1.561 . S
C979 C976 1.526 . S
C979 C980 1.396 . S
C979 C984 1.390 . S
C980 C974 1.465 . S
C980 C979 1.396 . S
C980 C981 1.399 . S
C981 H967 0.929 . S
C981 C980 1.399 . S
C981 C982 1.385 . S
C982 H968 0.931 . S
C982 C981 1.385 . S
C982 C983 1.389 . S
C983 C982 1.389 . S
C983 C984 1.387 . S
C984 H969 0.930 . S
C984 C979 1.390 . S
C984 C983 1.387 . S
H985 C997 0.930 . S
H986 C999 0.930 . S
H987 C1000 0.930 . S
H988 C1004 0.959 . S
H989 C1004 0.959 . S
H990 C1004 0.961 . S
H991 C1005 0.960 . S
H992 C1005 0.961 . S
H993 C1005 0.959 . S
H994 C1008 0.929 . S
H995 C1009 0.931 . S
H996 C1011 0.930 . S
C997 H985 0.930 . S
C997 C998 1.399 . S
C997 C1002 1.399 . S
C998 C997 1.399 . S
C998 C999 1.376 . S
C999 H986 0.930 . S
C999 C998 1.376 . S
C999 C1000 1.388 . S
C1000 H987 0.930 . S
C1000 C999 1.388 . S
C1000 C1001 1.390 . S
C1001 C1000 1.390 . S
C1001 C1002 1.394 . S
C1001 C1007 1.465 . S
C1002 C997 1.399 . S
C1002 C1001 1.394 . S
C1002 C1003 1.516 . S
C1003 C1002 1.516 . S
C1003 C1004 1.502 . S
C1003 C1005 1.561 . S
C1003 C1006 1.526 . S
C1004 H988 0.959 . S
C1004 H989 0.959 . S
C1004 H990 0.961 . S
C1004 C1003 1.502 . S
C1005 H991 0.960 . S
C1005 H992 0.961 . S
C1005 H993 0.959 . S
C1005 C1003 1.561 . S
C1006 C1003 1.526 . S
C1006 C1007 1.396 . S
C1006 C1011 1.390 . S
C1007 C1001 1.465 . S
C1007 C1006 1.396 . S
C1007 C1008 1.399 . S
C1008 H994 0.929 . S
C1008 C1007 1.399 . S
C1008 C1009 1.385 . S
C1009 H995 0.931 . S
C1009 C1008 1.385 . S
C1009 C1010 1.389 . S
C1010 C1009 1.389 . S
C1010 C1011 1.387 . S
C1011 H996 0.930 . S
C1011 C1006 1.390 . S
C1011 C1010 1.387 . S
H1012 C1024 0.930 . S
H1013 C1026 0.931 1_455 S
H1014 C1027 0.918 1_455 S
H1015 C1031 0.959 . S
H1016 C1031 0.959 . S
H1017 C1031 0.961 . S
H1018 C1032 0.960 . S
H1019 C1032 0.961 . S
H1020 C1032 0.959 1_455 S
H1021 C1035 0.929 . S
H1022 C1036 0.949 . S
H1023 C1038 0.930 . S
C1024 H1012 0.930 . S
C1024 C1025 1.399 . S
C1024 C1029 1.399 . S
C1025 C1024 1.399 . S
C1025 C1026 1.376 . S
C1026 H1013 0.931 1_655 S
C1026 C1025 1.376 . S
C1026 C1027 1.393 . S
C1027 H1014 0.918 1_655 S
C1027 C1026 1.393 . S
C1027 C1028 1.398 . S
C1028 C1027 1.398 . S
C1028 C1029 1.394 . S
C1028 C1034 1.465 . S
C1029 C1024 1.399 . S
C1029 C1028 1.394 . S
C1029 C1030 1.516 . S
C1030 C1029 1.516 . S
C1030 C1031 1.502 . S
C1030 C1032 1.561 . S
C1030 C1033 1.526 . S
C1031 H1015 0.959 . S
C1031 H1016 0.959 . S
C1031 H1017 0.961 . S
C1031 C1030 1.502 . S
C1032 H1018 0.960 . S
C1032 H1019 0.961 . S
C1032 H1020 0.959 1_655 S
C1032 C1030 1.561 . S
C1033 C1030 1.526 . S
C1033 C1034 1.396 . S
C1033 C1038 1.390 . S
C1034 C1028 1.465 . S
C1034 C1033 1.396 . S
C1034 C1035 1.399 1_655 S
C1035 H1021 0.929 . S
C1035 C1034 1.399 1_455 S
C1035 C1036 1.389 . S
C1036 H1022 0.949 . S
C1036 C1035 1.389 . S
C1036 C1037 1.371 1_455 S
C1037 C1036 1.371 1_655 S
C1037 C1038 1.387 . S
C1038 H1023 0.930 . S
C1038 C1033 1.390 . S
C1038 C1037 1.387 . S
H1039 C1051 0.930 . S
H1040 C1053 0.930 . S
H1041 C1054 0.930 . S
H1042 C1058 0.959 . S
H1043 C1058 0.959 . S
H1044 C1058 0.961 . S
H1045 C1059 0.960 . S
H1046 C1059 0.961 . S
H1047 C1059 0.959 . S
H1048 C1062 0.929 . S
H1049 C1063 0.931 . S
H1050 C1065 0.930 . S
C1051 H1039 0.930 . S
C1051 C1052 1.399 1_545 S
C1051 C1056 1.399 . S
C1052 C1051 1.399 1_565 S
C1052 C1053 1.376 . S
C1053 H1040 0.930 . S
C1053 C1052 1.376 . S
C1053 C1054 1.388 . S
C1054 H1041 0.930 . S
C1054 C1053 1.388 . S
C1054 C1055 1.390 . S
C1055 C1054 1.390 . S
C1055 C1056 1.394 1_565 S
C1055 C1061 1.465 . S
C1056 C1051 1.399 . S
C1056 C1055 1.394 1_545 S
C1056 C1057 1.516 . S
C1057 C1056 1.516 . S
C1057 C1058 1.502 . S
C1057 C1059 1.561 . S
C1057 C1060 1.526 . S
C1058 H1042 0.959 . S
C1058 H1043 0.959 . S
C1058 H1044 0.961 . S
C1058 C1057 1.502 . S
C1059 H1045 0.960 . S
C1059 H1046 0.961 . S
C1059 H1047 0.959 . S
C1059 C1057 1.561 . S
C1060 C1057 1.526 . S
C1060 C1061 1.396 1_545 S
C1060 C1065 1.390 . S
C1061 C1055 1.465 . S
C1061 C1060 1.396 1_565 S
C1061 C1062 1.399 . S
C1062 H1048 0.929 . S
C1062 C1061 1.399 . S
C1062 C1063 1.385 . S
C1063 H1049 0.931 . S
C1063 C1062 1.385 . S
C1063 C1064 1.389 . S
C1064 C1063 1.389 . S
C1064 C1065 1.387 1_565 S
C1065 H1050 0.930 . S
C1065 C1060 1.390 . S
C1065 C1064 1.387 1_545 S
H1066 C1078 0.930 . S
H1067 C1080 0.930 . S
H1068 C1081 0.930 . S
H1069 C1085 0.959 . S
H1070 C1085 0.959 . S
H1071 C1085 0.961 . S
H1072 C1086 0.960 . S
H1073 C1086 0.961 . S
H1074 C1086 0.959 . S
H1075 C1089 0.929 . S
H1076 C1090 0.931 . S
H1077 C1092 0.930 . S
C1078 H1066 0.930 . S
C1078 C1079 1.399 . S
C1078 C1083 1.399 . S
C1079 C1078 1.399 . S
C1079 C1080 1.376 . S
C1080 H1067 0.930 . S
C1080 C1079 1.376 . S
C1080 C1081 1.388 . S
C1081 H1068 0.930 . S
C1081 C1080 1.388 . S
C1081 C1082 1.390 . S
C1082 C1081 1.390 . S
C1082 C1083 1.394 . S
C1082 C1088 1.465 . S
C1083 C1078 1.399 . S
C1083 C1082 1.394 . S
C1083 C1084 1.516 . S
C1084 C1083 1.516 . S
C1084 C1085 1.502 . S
C1084 C1086 1.561 . S
C1084 C1087 1.526 . S
C1085 H1069 0.959 . S
C1085 H1070 0.959 . S
C1085 H1071 0.961 . S
C1085 C1084 1.502 . S
C1086 H1072 0.960 . S
C1086 H1073 0.961 . S
C1086 H1074 0.959 . S
C1086 C1084 1.561 . S
C1087 C1084 1.526 . S
C1087 C1088 1.396 . S
C1087 C1092 1.390 . S
C1088 C1082 1.465 . S
C1088 C1087 1.396 . S
C1088 C1089 1.399 . S
C1089 H1075 0.929 . S
C1089 C1088 1.399 . S
C1089 C1090 1.385 . S
C1090 H1076 0.931 . S
C1090 C1089 1.385 . S
C1090 C1091 1.389 . S
C1091 C1090 1.389 . S
C1091 C1092 1.387 . S
C1092 H1077 0.930 . S
C1092 C1087 1.390 . S
C1092 C1091 1.387 . S
H1093 C1105 0.930 . S
H1094 C1107 0.930 . S
H1095 C1108 0.930 . S
H1096 C1112 0.959 . S
H1097 C1112 0.959 . S
H1098 C1112 0.961 . S
H1099 C1113 0.960 . S
H1100 C1113 0.961 . S
H1101 C1113 0.959 . S
H1102 C1116 0.929 . S
H1103 C1117 0.931 . S
H1104 C1119 0.930 . S
C1105 H1093 0.930 . S
C1105 C1106 1.399 . S
C1105 C1110 1.399 . S
C1106 C1105 1.399 . S
C1106 C1107 1.376 . S
C1107 H1094 0.930 . S
C1107 C1106 1.376 . S
C1107 C1108 1.388 . S
C1108 H1095 0.930 . S
C1108 C1107 1.388 . S
C1108 C1109 1.390 . S
C1109 C1108 1.390 . S
C1109 C1110 1.394 . S
C1109 C1115 1.465 . S
C1110 C1105 1.399 . S
C1110 C1109 1.394 . S
C1110 C1111 1.516 . S
C1111 C1110 1.516 . S
C1111 C1112 1.502 . S
C1111 C1113 1.561 . S
C1111 C1114 1.526 . S
C1112 H1096 0.959 . S
C1112 H1097 0.959 . S
C1112 H1098 0.961 . S
C1112 C1111 1.502 . S
C1113 H1099 0.960 . S
C1113 H1100 0.961 . S
C1113 H1101 0.959 . S
C1113 C1111 1.561 . S
C1114 C1111 1.526 . S
C1114 C1115 1.396 . S
C1114 C1119 1.390 . S
C1115 C1109 1.465 . S
C1115 C1114 1.396 . S
C1115 C1116 1.399 . S
C1116 H1102 0.929 . S
C1116 C1115 1.399 . S
C1116 C1117 1.385 . S
C1117 H1103 0.931 . S
C1117 C1116 1.385 . S
C1117 C1118 1.389 . S
C1118 C1117 1.389 . S
C1118 C1119 1.387 . S
C1119 H1104 0.930 . S
C1119 C1114 1.390 . S
C1119 C1118 1.387 . S
C485 C255 2.173 1_545 S
C497 C335 2.383 1_545 S
C524 C375 1.613 . S
C512 C294 1.558 . S
C551 C394 2.436 . S
C539 C177 2.274 . S
C578 C455 1.805 . S
C566 C216 1.643 . S
C605 C314 2.369 1_565 S
C593 C99 2.226 . S
C620 C138 1.605 . S
C632 C354 1.628 . S
C647 C21 2.247 . S
C659 C415 2.417 . S
C674 C60 1.642 . S
C686 C434 1.819 1_655 S
C713 C316 0.805 . S
C701 C196 0.650 . S
C740 C356 0.215 . S
C728 C235 0.357 1_545 S
C767 C412 0.909 . S
C755 C289 0.990 . S
C782 C157 0.439 . S
C794 C436 0.260 . S
C809 C40 0.787 . S
C821 C337 0.699 . S
C848 C377 0.472 . S
C836 C79 0.129 . S
C875 C423 1.026 . S
C863 C133 0.805 . S
C890 C1 0.217 . S
C902 C457 0.518 . S
C917 C211 2.210 . S
C929 C332 2.552 . S
C944 C250 2.845 . S
C956 C372 3.168 . S
C983 C396 1.942 . S
C971 C274 1.843 . S
C1010 C452 3.162 . S
C998 C172 2.830 . S
C1025 C55 2.210 . S
C1037 C343 2.549 . S
C1064 C383 3.175 . S
C1052 C94 2.798 1_565 S
C1091 C417 1.929 . S
C1079 C118 1.914 . S
C1106 C16 2.822 . S
C1118 C463 3.159 . S
