# Generated by pormake.
# Topology nom, (4,4)-cn, num edge types: 1
# Building blocks:
#     Node 0, Type 0, BuildingBlock: NAHDIM_clean_linker_0, # of connection points: 4
#     Node 1, Type 0, BuildingBlock: NAHDIM_clean_linker_0, # of connection points: 4
#     Node 2, Type 0, BuildingBlock: NAHDIM_clean_linker_0, # of connection points: 4
#     Node 3, Type 0, BuildingBlock: NAHDIM_clean_linker_0, # of connection points: 4
#     Node 4, Type 0, BuildingBlock: NAHDIM_clean_linker_0, # of connection points: 4
#     Node 5, Type 0, BuildingBlock: NAHDIM_clean_linker_0, # of connection points: 4
#     Node 6, Type 1, BuildingBlock: TATPOV_clean_sbu_0, # of connection points: 4
#     Node 7, Type 1, BuildingBlock: TATPOV_clean_sbu_0, # of connection points: 4
#     Node 8, Type 1, BuildingBlock: TATPOV_clean_sbu_0, # of connection points: 4
#     Node 9, Type 1, BuildingBlock: TATPOV_clean_sbu_0, # of connection points: 4
#     Node 10, Type 1, BuildingBlock: TATPOV_clean_sbu_0, # of connection points: 4
#     Node 11, Type 1, BuildingBlock: TATPOV_clean_sbu_0, # of connection points: 4
#     Edge 12, Type (0, 1), BuildingBlock: UVAHIK_clean_linker_0, # of connection points: 2
#     Edge 13, Type (0, 1), BuildingBlock: UVAHIK_clean_linker_0, # of connection points: 2
#     Edge 14, Type (0, 1), BuildingBlock: UVAHIK_clean_linker_0, # of connection points: 2
#     Edge 15, Type (0, 1), BuildingBlock: UVAHIK_clean_linker_0, # of connection points: 2
#     Edge 16, Type (0, 1), BuildingBlock: UVAHIK_clean_linker_0, # of connection points: 2
#     Edge 17, Type (0, 1), BuildingBlock: UVAHIK_clean_linker_0, # of connection points: 2
#     Edge 18, Type (0, 1), BuildingBlock: UVAHIK_clean_linker_0, # of connection points: 2
#     Edge 19, Type (0, 1), BuildingBlock: UVAHIK_clean_linker_0, # of connection points: 2
#     Edge 20, Type (0, 1), BuildingBlock: UVAHIK_clean_linker_0, # of connection points: 2
#     Edge 21, Type (0, 1), BuildingBlock: UVAHIK_clean_linker_0, # of connection points: 2
#     Edge 22, Type (0, 1), BuildingBlock: UVAHIK_clean_linker_0, # of connection points: 2
#     Edge 23, Type (0, 1), BuildingBlock: UVAHIK_clean_linker_0, # of connection points: 2
#     Edge 24, Type (0, 1), BuildingBlock: UVAHIK_clean_linker_0, # of connection points: 2
#     Edge 25, Type (0, 1), BuildingBlock: UVAHIK_clean_linker_0, # of connection points: 2
#     Edge 26, Type (0, 1), BuildingBlock: UVAHIK_clean_linker_0, # of connection points: 2
#     Edge 27, Type (0, 1), BuildingBlock: UVAHIK_clean_linker_0, # of connection points: 2
#     Edge 28, Type (0, 1), BuildingBlock: UVAHIK_clean_linker_0, # of connection points: 2
#     Edge 29, Type (0, 1), BuildingBlock: UVAHIK_clean_linker_0, # of connection points: 2
#     Edge 30, Type (0, 1), BuildingBlock: UVAHIK_clean_linker_0, # of connection points: 2
#     Edge 31, Type (0, 1), BuildingBlock: UVAHIK_clean_linker_0, # of connection points: 2
#     Edge 32, Type (0, 1), BuildingBlock: UVAHIK_clean_linker_0, # of connection points: 2
#     Edge 33, Type (0, 1), BuildingBlock: UVAHIK_clean_linker_0, # of connection points: 2
#     Edge 34, Type (0, 1), BuildingBlock: UVAHIK_clean_linker_0, # of connection points: 2
#     Edge 35, Type (0, 1), BuildingBlock: UVAHIK_clean_linker_0, # of connection points: 2
# Relax obj value: 0.065
# Max RMSD: 0.133
# Mean RMSD: 0.124
data_MOF--net-nom--node1-TATPOV_clean_sbu_0--node2-NAHDIM_clean_linker_0--edge1-UVAHIK_clean_linker_0
_symmetry_space_group_name_H-M    P1
_symmetry_Int_Tables_number       1
_symmetry_cell_setting            triclinic
loop_
_symmetry_equiv_pos_as_xyz
'x, y, z'
_cell_length_a     69.021891
_cell_length_b     70.016764
_cell_length_c     84.347475
_cell_angle_alpha  90.601568
_cell_angle_beta   90.578726
_cell_angle_gamma 120.01199
loop_
_atom_site_label
_atom_site_type_symbol
_atom_site_fract_x
_atom_site_fract_y
_atom_site_fract_z
_atom_type_partial_charge
C0 C 0.13733 0.57074 0.25538 0.0
C1 C 0.14489 0.58288 0.27147 0.0
C2 C 0.10835 0.57321 0.28277 0.0
C3 C 0.10176 0.55127 0.28649 0.0
C4 C 0.08007 0.53683 0.29178 0.0
C5 C 0.06463 0.54441 0.29328 0.0
C6 C 0.07131 0.56656 0.28978 0.0
C7 C 0.09319 0.58071 0.28472 0.0
C8 C 0.07354 0.51337 0.29559 0.0
C9 C 0.05524 0.57517 0.2911 0.0
C10 C 0.93354 0.45922 0.20831 0.0
C11 C 0.94608 0.47268 0.22249 0.0
C12 C 0.96232 0.47059 0.24763 0.0
C13 C 0.96593 0.49105 0.25344 0.0
C14 C 0.97879 0.50074 0.26722 0.0
C15 C 0.9884 0.48986 0.27536 0.0
C16 C 0.98432 0.46899 0.26985 0.0
C17 C 0.97112 0.45952 0.25609 0.0
C18 C 0.98254 0.52288 0.2729 0.0
C19 C 0.9943 0.45699 0.27833 0.0
C20 C 0.90385 0.44802 0.3595 0.0
C21 C 0.9101 0.46961 0.35508 0.0
C22 C 0.93272 0.48551 0.35326 0.0
C23 C 0.94935 0.47967 0.35596 0.0
C24 C 0.94315 0.45834 0.36139 0.0
C25 C 0.92041 0.44282 0.36323 0.0
C26 C 0.93882 0.50832 0.34794 0.0
C27 C 0.96049 0.45172 0.36464 0.0
C28 C 0.11145 0.62156 0.40061 0.0
C29 C 0.09566 0.59673 0.40209 0.0
C30 C 0.05723 0.57469 0.39196 0.0
C31 C 0.04029 0.57712 0.38481 0.0
C32 C 0.02392 0.56035 0.37506 0.0
C33 C 0.0243 0.54048 0.37279 0.0
C34 C 0.04029 0.53721 0.38112 0.0
C35 C 0.05676 0.55446 0.39054 0.0
C36 C 0.00687 0.56427 0.36662 0.0
C37 C 0.0406 0.5159 0.37945 0.0
C38 C 0.04122 0.52888 0.29781 0.0
C39 C 0.02619 0.51572 0.28583 0.0
C40 C 0.00374 0.5011 0.28905 0.0
C41 C 0.99604 0.49902 0.30475 0.0
C42 C 0.97367 0.48412 0.30845 0.0
C43 C 0.96615 0.48256 0.32388 0.0
C44 C 0.98061 0.49614 0.33616 0.0
C45 C 0.97295 0.49518 0.3518 0.0
C46 C 0.98761 0.50936 0.36362 0.0
C47 C 0.00991 0.52452 0.36024 0.0
C48 C 0.01801 0.52534 0.34476 0.0
C49 C 0.04043 0.54018 0.34101 0.0
C50 C 0.0482 0.54104 0.32574 0.0
C51 C 0.03371 0.52754 0.31351 0.0
C52 C 0.01104 0.51247 0.31699 0.0
C53 C 0.00325 0.51121 0.33268 0.0
C54 C 0.8554 0.40685 0.34113 0.0
C55 C 0.86521 0.42925 0.3497 0.0
O56 O 0.12892 0.58762 0.27711 0.0
O57 O 0.07386 0.59232 0.39992 0.0
O58 O 0.88207 0.43182 0.36011 0.0
O59 O 0.95086 0.46137 0.23383 0.0
H60 H 0.14753 0.57247 0.2801 0.0
H61 H 0.12162 0.55474 0.25656 0.0
H62 H 0.13434 0.58083 0.24667 0.0
H63 H 0.1503 0.56729 0.25073 0.0
H64 H 0.11331 0.54518 0.28523 0.0
H65 H 0.09843 0.59767 0.2819 0.0
H66 H 0.0605 0.50193 0.28698 0.0
H67 H 0.08797 0.51051 0.29512 0.0
H68 H 0.06625 0.50925 0.3076 0.0
H69 H 0.06276 0.59255 0.28727 0.0
H70 H 0.04001 0.56477 0.28374 0.0
H71 H 0.0499 0.5742 0.30358 0.0
H72 H 0.96091 0.48904 0.2198 0.0
H73 H 0.90297 0.45878 0.20932 0.0
H74 H 0.9454 0.46665 0.19818 0.0
H75 H 0.93476 0.44376 0.20859 0.0
H76 H 0.95892 0.49969 0.24721 0.0
H77 H 0.96814 0.44369 0.25163 0.0
H78 H 0.9779 0.52205 0.28555 0.0
H79 H 0.00056 0.5354 0.27206 0.0
H80 H 0.9727 0.52851 0.26586 0.0
H81 H 0.98908 0.44062 0.2728 0.0
H82 H 0.01284 0.46711 0.27823 0.0
H83 H 0.98917 0.45466 0.29092 0.0
H84 H 0.872 0.4417 0.34015 0.0
H85 H 0.89735 0.474 0.35291 0.0
H86 H 0.91541 0.42624 0.36695 0.0
H87 H 0.94592 0.51103 0.33588 0.0
H88 H 0.92416 0.51084 0.34765 0.0
H89 H 0.95187 0.52093 0.35601 0.0
H90 H 0.95304 0.43479 0.3694 0.0
H91 H 0.96927 0.45244 0.35351 0.0
H92 H 0.97322 0.4635 0.37328 0.0
H93 H 0.10007 0.58854 0.39253 0.0
H94 H 0.12916 0.62563 0.4019 0.0
H95 H 0.10919 0.62701 0.38876 0.0
H96 H 0.10791 0.6308 0.40984 0.0
H97 H 0.04058 0.59265 0.38629 0.0
H98 H 0.06936 0.55219 0.39658 0.0
H99 H 0.00837 0.56311 0.35359 0.0
H100 H 0.98976 0.55131 0.36984 0.0
H101 H 0.00891 0.58067 0.36962 0.0
H102 H 0.05152 0.51453 0.3886 0.0
H103 H 0.02339 0.50158 0.38037 0.0
H104 H 0.04692 0.51501 0.36758 0.0
H105 H 0.03194 0.5173 0.27373 0.0
H106 H 0.96175 0.47345 0.29944 0.0
H107 H 0.94876 0.47072 0.32601 0.0
H108 H 0.98152 0.50886 0.3755 0.0
H109 H 0.05233 0.55133 0.34983 0.0
H110 H 0.06564 0.55269 0.3236 0.0
H111 H 0.84949 0.39318 0.34968 0.0
H112 H 0.84123 0.40408 0.33321 0.0
H113 H 0.86847 0.4065 0.33375 0.0
C114 C 0.45163 0.88629 0.56098 0.0
C115 C 0.4396 0.87907 0.54479 0.0
C116 C 0.44674 0.91461 0.534 0.0
C117 C 0.46949 0.92296 0.53068 0.0
C118 C 0.48269 0.94446 0.52509 0.0
C119 C 0.473 0.9579 0.52279 0.0
C120 C 0.45009 0.9495 0.52597 0.0
C121 C 0.43725 0.9279 0.53146 0.0
C122 C 0.50705 0.9529 0.52168 0.0
C123 C 0.43923 0.96339 0.52362 0.0
C124 C 0.57566 0.12134 0.58427 0.0
C125 C 0.56267 0.10771 0.57029 0.0
C126 C 0.54717 0.07018 0.55978 0.0
C127 C 0.5281 0.06796 0.55194 0.0
C128 C 0.51633 0.05097 0.5407 0.0
C129 C 0.52419 0.03628 0.53695 0.0
C130 C 0.54311 0.03819 0.5451 0.0
C131 C 0.55413 0.05495 0.55662 0.0
C132 C 0.49555 0.04879 0.53283 0.0
C133 C 0.55186 0.02273 0.54154 0.0
C134 C 0.56353 0.10947 0.44817 0.0
C135 C 0.54162 0.10197 0.45317 0.0
C136 C 0.52713 0.07952 0.45602 0.0
C137 C 0.5349 0.06438 0.45401 0.0
C138 C 0.55663 0.07178 0.44817 0.0
C139 C 0.5706 0.09429 0.44511 0.0
C140 C 0.50378 0.07211 0.46166 0.0
C141 C 0.56537 0.05608 0.44576 0.0
C142 C 0.40966 0.89229 0.41375 0.0
C143 C 0.43412 0.91065 0.41314 0.0
C144 C 0.45063 0.94938 0.42138 0.0
C145 C 0.44476 0.96496 0.4261 0.0
C146 C 0.45939 0.98335 0.43547 0.0
C147 C 0.48056 0.98634 0.43993 0.0
C148 C 0.48733 0.97162 0.43405 0.0
C149 C 0.47223 0.95318 0.42488 0.0
C150 C 0.45179 0.99896 0.44129 0.0
C151 C 0.51011 0.97481 0.43812 0.0
C152 C 0.48697 0.98084 0.51725 0.0
C153 C 0.4987 0.99747 0.52864 0.0
C154 C 0.51288 0.01929 0.52423 0.0
C155 C 0.5157 0.02474 0.508 0.0
C156 C 0.53057 0.04634 0.50312 0.0
C157 C 0.53255 0.05173 0.48717 0.0
C158 C 0.51974 0.03574 0.47546 0.0
C159 C 0.52097 0.04126 0.45926 0.0
C160 C 0.50831 0.02486 0.4479 0.0
C161 C 0.49424 0.00301 0.45232 0.0
C162 C 0.49258 0.99725 0.46848 0.0
C163 C 0.47837 0.97544 0.47335 0.0
C164 C 0.47671 0.96997 0.48927 0.0
C165 C 0.48889 0.98613 0.501 0.0
C166 C 0.50332 0.00818 0.49637 0.0
C167 C 0.50529 0.01371 0.48008 0.0
C168 C 0.60546 0.15552 0.46541 0.0
C169 C 0.58232 0.14735 0.45787 0.0
O170 O 0.43337 0.89406 0.53974 0.0
O171 O 0.4349 0.93081 0.41373 0.0
O172 O 0.57822 0.13128 0.44646 0.0
O173 O 0.55885 0.0863 0.57078 0.0
H174 H 0.45085 0.8779 0.53597 0.0
H175 H 0.46716 0.90254 0.56019 0.0
H176 H 0.44065 0.8877 0.5699 0.0
H177 H 0.45636 0.87413 0.56511 0.0
H178 H 0.47715 0.91293 0.53246 0.0
H179 H 0.41969 0.92132 0.53398 0.0
H180 H 0.51766 0.96734 0.52954 0.0
H181 H 0.51191 0.94016 0.52353 0.0
H182 H 0.51059 0.95853 0.50925 0.0
H183 H 0.42131 0.95456 0.5269 0.0
H184 H 0.44822 0.97879 0.5309 0.0
H185 H 0.44049 0.96822 0.51101 0.0
H186 H 0.54765 0.10899 0.56723 0.0
H187 H 0.56398 0.12567 0.59051 0.0
H188 H 0.57473 0.10957 0.59365 0.0
H189 H 0.60597 0.14527 0.5747 0.0
H190 H 0.52199 0.07909 0.55475 0.0
H191 H 0.56865 0.05659 0.56296 0.0
H192 H 0.49934 0.05464 0.52047 0.0
H193 H 0.48198 0.03126 0.53236 0.0
H194 H 0.48937 0.05868 0.53912 0.0
H195 H 0.56817 0.02799 0.5476 0.0
H196 H 0.5396 0.00593 0.54553 0.0
H197 H 0.55388 0.02172 0.52857 0.0
H198 H 0.57006 0.14035 0.46763 0.0
H199 H 0.53595 0.11372 0.45498 0.0
H200 H 0.58747 0.10028 0.44101 0.0
H201 H 0.50266 0.06787 0.47439 0.0
H202 H 0.49919 0.08512 0.46029 0.0
H203 H 0.4914 0.05707 0.45499 0.0
H204 H 0.58276 0.0645 0.44132 0.0
H205 H 0.56497 0.04806 0.45713 0.0
H206 H 0.55439 0.04286 0.43714 0.0
H207 H 0.44273 0.90881 0.42377 0.0
H208 H 0.40847 0.87586 0.41363 0.0
H209 H 0.40204 0.89397 0.42483 0.0
H210 H 0.39998 0.8932 0.40346 0.0
H211 H 0.42822 0.96209 0.42302 0.0
H212 H 0.47723 0.94163 0.42071 0.0
H213 H 0.45109 0.99868 0.45444 0.0
H214 H 0.46405 0.01607 0.43787 0.0
H215 H 0.43505 0.99465 0.43642 0.0
H216 H 0.51413 0.96406 0.43073 0.0
H217 H 0.52323 0.99229 0.4365 0.0
H218 H 0.5106 0.97084 0.45077 0.0
H219 H 0.49676 0.99337 0.54111 0.0
H220 H 0.54079 0.05937 0.51158 0.0
H221 H 0.54419 0.06865 0.48417 0.0
H222 H 0.50921 0.02919 0.43551 0.0
H223 H 0.4683 0.9623 0.46493 0.0
H224 H 0.46553 0.95294 0.49229 0.0
H225 H 0.61867 0.16237 0.4563 0.0
H226 H 0.60911 0.16849 0.47456 0.0
H227 H 0.60596 0.14161 0.47122 0.0
C228 C 0.58331 0.46262 0.72195 0.0
C229 C 0.5762 0.44827 0.70679 0.0
C230 C 0.54859 0.45726 0.6957 0.0
C231 C 0.56394 0.47798 0.68964 0.0
C232 C 0.55667 0.49206 0.68375 0.0
C233 C 0.53367 0.48544 0.68415 0.0
C234 C 0.51815 0.46449 0.69005 0.0
C235 C 0.52583 0.45056 0.69553 0.0
C236 C 0.57364 0.51419 0.67736 0.0
C237 C 0.49355 0.45703 0.69092 0.0
C238 C 0.56863 0.58754 0.76046 0.0
C239 C 0.54415 0.57792 0.75512 0.0
C240 C 0.53651 0.57559 0.72697 0.0
C241 C 0.51587 0.55601 0.72562 0.0
C242 C 0.51021 0.54259 0.71195 0.0
C243 C 0.52563 0.54891 0.69945 0.0
C244 C 0.54583 0.56942 0.70036 0.0
C245 C 0.5509 0.58269 0.71411 0.0
C246 C 0.48829 0.5211 0.71123 0.0
C247 C 0.56263 0.57666 0.68725 0.0
C248 C 0.46345 0.57647 0.61553 0.0
C249 C 0.44829 0.55662 0.62275 0.0
C250 C 0.45426 0.54059 0.62601 0.0
C251 C 0.47578 0.54452 0.62194 0.0
C252 C 0.49068 0.56407 0.61403 0.0
C253 C 0.4842 0.57972 0.6108 0.0
C254 C 0.43775 0.51962 0.63404 0.0
C255 C 0.51364 0.56866 0.60936 0.0
C256 C 0.48004 0.39467 0.59111 0.0
C257 C 0.49264 0.41826 0.58497 0.0
C258 C 0.47932 0.44396 0.58911 0.0
C259 C 0.46065 0.44255 0.59649 0.0
C260 C 0.46252 0.46026 0.60568 0.0
C261 C 0.48348 0.47994 0.60708 0.0
C262 C 0.50187 0.48211 0.59835 0.0
C263 C 0.49966 0.46396 0.58959 0.0
C264 C 0.44245 0.4575 0.61458 0.0
C265 C 0.52418 0.50319 0.59895 0.0
C266 C 0.5261 0.50102 0.67933 0.0
C267 C 0.52891 0.51728 0.69031 0.0
C268 C 0.52223 0.5326 0.68679 0.0
C269 C 0.51242 0.5318 0.67182 0.0
C270 C 0.50545 0.5469 0.66787 0.0
C271 C 0.49591 0.54597 0.65304 0.0
C272 C 0.49282 0.52979 0.64165 0.0
C273 C 0.48308 0.52865 0.62655 0.0
C274 C 0.48029 0.51236 0.61551 0.0
C275 C 0.48691 0.49701 0.61915 0.0
C276 C 0.49663 0.49786 0.63419 0.0
C277 C 0.5034 0.48259 0.63828 0.0
C278 C 0.51326 0.48374 0.65297 0.0
C279 C 0.51634 0.4999 0.66429 0.0
C280 C 0.50948 0.51536 0.66052 0.0
C281 C 0.49965 0.51435 0.64544 0.0
C282 C 0.45879 0.62242 0.62694 0.0
C283 C 0.44547 0.59794 0.6223 0.0
O284 O 0.55488 0.44333 0.70197 0.0
O285 O 0.47761 0.42558 0.5822 0.0
O286 O 0.45866 0.59279 0.61292 0.0
O287 O 0.5433 0.58718 0.74086 0.0
H288 H 0.58828 0.45715 0.69725 0.0
H289 H 0.58393 0.47851 0.71976 0.0
H290 H 0.57126 0.45401 0.73157 0.0
H291 H 0.60026 0.46636 0.72595 0.0
H292 H 0.5816 0.48339 0.6895 0.0
H293 H 0.51411 0.43452 0.70016 0.0
H294 H 0.57533 0.52747 0.68556 0.0
H295 H 0.59037 0.51577 0.67603 0.0
H296 H 0.56789 0.5168 0.66565 0.0
H297 H 0.48389 0.44086 0.69679 0.0
H298 H 0.49118 0.46949 0.69755 0.0
H299 H 0.48654 0.45554 0.67878 0.0
H300 H 0.53756 0.55984 0.75358 0.0
H301 H 0.56962 0.58173 0.77249 0.0
H302 H 0.57722 0.58197 0.7521 0.0
H303 H 0.57769 0.60585 0.7605 0.0
H304 H 0.50448 0.55093 0.73545 0.0
H305 H 0.5667 0.59801 0.71524 0.0
H306 H 0.49155 0.50719 0.71257 0.0
H307 H 0.47681 0.52011 0.72074 0.0
H308 H 0.47986 0.51901 0.69953 0.0
H309 H 0.57696 0.59359 0.68936 0.0
H310 H 0.56914 0.56506 0.68623 0.0
H311 H 0.55441 0.57616 0.67575 0.0
H312 H 0.44139 0.58875 0.63361 0.0
H313 H 0.4318 0.55359 0.62582 0.0
H314 H 0.49561 0.59494 0.60499 0.0
H315 H 0.44445 0.51893 0.64591 0.0
H316 H 0.4212 0.5184 0.63552 0.0
H317 H 0.43545 0.50509 0.62703 0.0
H318 H 0.52323 0.58462 0.60322 0.0
H319 H 0.52326 0.56897 0.62009 0.0
H320 H 0.5121 0.55521 0.60141 0.0
H321 H 0.50478 0.42829 0.59464 0.0
H322 H 0.49169 0.38822 0.59283 0.0
H323 H 0.47251 0.39454 0.60272 0.0
H324 H 0.46633 0.38353 0.58279 0.0
H325 H 0.44492 0.4271 0.59579 0.0
H326 H 0.51391 0.4652 0.58341 0.0
H327 H 0.44619 0.45928 0.62753 0.0
H328 H 0.43876 0.47065 0.61121 0.0
H329 H 0.42731 0.44119 0.61217 0.0
H330 H 0.5353 0.50371 0.58932 0.0
H331 H 0.52185 0.51773 0.59799 0.0
H332 H 0.53266 0.50453 0.6105 0.0
H333 H 0.53636 0.51797 0.70185 0.0
H334 H 0.50738 0.55964 0.67619 0.0
H335 H 0.49095 0.5581 0.65063 0.0
H336 H 0.47288 0.51164 0.60395 0.0
H337 H 0.50123 0.46957 0.63016 0.0
H338 H 0.51833 0.47169 0.65537 0.0
H339 H 0.44859 0.62698 0.63452 0.0
H340 H 0.47408 0.62587 0.63377 0.0
H341 H 0.46393 0.63286 0.61624 0.0
C342 C 0.12925 0.58291 0.89038 0.0
C343 C 0.13606 0.57638 0.87489 0.0
C344 C 0.09957 0.54704 0.86431 0.0
C345 C 0.09118 0.56082 0.85972 0.0
C346 C 0.06916 0.55181 0.85386 0.0
C347 C 0.05532 0.52864 0.85255 0.0
C348 C 0.06385 0.51477 0.85688 0.0
C349 C 0.08592 0.5242 0.86265 0.0
C350 C 0.06054 0.56702 0.84924 0.0
C351 C 0.04954 0.48999 0.85561 0.0
C352 C 0.89864 0.43783 0.91782 0.0
C353 C 0.91603 0.44288 0.9058 0.0
C354 C 0.94443 0.47421 0.89123 0.0
C355 C 0.94978 0.46136 0.88126 0.0
C356 C 0.96571 0.47113 0.86941 0.0
C357 C 0.9762 0.4942 0.86722 0.0
C358 C 0.97086 0.50721 0.87719 0.0
C359 C 0.95508 0.49701 0.88915 0.0
C360 C 0.97132 0.4567 0.85926 0.0
C361 C 0.98171 0.53179 0.87512 0.0
C362 C 0.89708 0.46606 0.78027 0.0
C363 C 0.90291 0.45071 0.78573 0.0
C364 C 0.92545 0.45671 0.78793 0.0
C365 C 0.94239 0.47862 0.7849 0.0
C366 C 0.93654 0.49368 0.77847 0.0
C367 C 0.91388 0.48706 0.77603 0.0
C368 C 0.93109 0.43992 0.79417 0.0
C369 C 0.95416 0.51706 0.77489 0.0
C370 C 0.10454 0.49368 0.76021 0.0
C371 C 0.09236 0.50466 0.75272 0.0
C372 C 0.05246 0.48996 0.75564 0.0
C373 C 0.03486 0.47101 0.76204 0.0
C374 C 0.01778 0.47197 0.77024 0.0
C375 C 0.01816 0.49234 0.77161 0.0
C376 C 0.03469 0.51103 0.76368 0.0
C377 C 0.05188 0.50971 0.75589 0.0
C378 C 9e-05 0.45154 0.7782 0.0
C379 C 0.03497 0.53269 0.76427 0.0
C380 C 0.03168 0.51894 0.84718 0.0
C381 C 0.01551 0.51372 0.85875 0.0
C382 C 0.9929 0.50439 0.85456 0.0
C383 C 0.98637 0.50161 0.8384 0.0
C384 C 0.96412 0.49436 0.83377 0.0
C385 C 0.95755 0.49027 0.81788 0.0
C386 C 0.97277 0.49233 0.8061 0.0
C387 C 0.96586 0.48647 0.79006 0.0
C388 C 0.98116 0.48747 0.77886 0.0
C389 C 0.00342 0.49467 0.78322 0.0
C390 C 0.01091 0.50185 0.799 0.0
C391 C 0.03342 0.51013 0.80367 0.0
C392 C 0.04046 0.51654 0.81931 0.0
C393 C 0.02508 0.51393 0.83105 0.0
C394 C 0.00235 0.50553 0.82664 0.0
C395 C 0.99539 0.50015 0.81053 0.0
C396 C 0.84851 0.46293 0.79558 0.0
C397 C 0.85928 0.44944 0.79039 0.0
O398 O 0.1205 0.55486 0.87051 0.0
O399 O 0.07016 0.4889 0.74982 0.0
O400 O 0.87547 0.46123 0.77927 0.0
O401 O 0.92918 0.46524 0.90292 0.0
H402 H 0.13734 0.58776 0.86533 0.0
H403 H 0.11294 0.58225 0.88883 0.0
H404 H 0.12767 0.57154 0.90001 0.0
H405 H 0.14194 0.60004 0.894 0.0
H406 H 0.10156 0.57855 0.86076 0.0
H407 H 0.09257 0.51372 0.86615 0.0
H408 H 0.04605 0.56374 0.85667 0.0
H409 H 0.07352 0.5847 0.85064 0.0
H410 H 0.05457 0.56373 0.8367 0.0
H411 H 0.05895 0.48152 0.85889 0.0
H412 H 0.03499 0.48429 0.86353 0.0
H413 H 0.0429 0.48499 0.8433 0.0
H414 H 0.92597 0.43447 0.90762 0.0
H415 H 0.90324 0.43045 0.92798 0.0
H416 H 0.90355 0.45378 0.92437 0.0
H417 H 0.86848 0.42019 0.9049 0.0
H418 H 0.9417 0.4437 0.88269 0.0
H419 H 0.95085 0.50679 0.89689 0.0
H420 H 0.96453 0.45541 0.84707 0.0
H421 H 0.98974 0.46406 0.85845 0.0
H422 H 0.96417 0.43977 0.86396 0.0
H423 H 0.97454 0.53935 0.88307 0.0
H424 H -6e-05 0.53964 0.87771 0.0
H425 H 0.97965 0.53543 0.86263 0.0
H426 H 0.86707 0.44698 0.80125 0.0
H427 H 0.88984 0.43416 0.78847 0.0
H428 H 0.90914 0.49862 0.77154 0.0
H429 H 0.93636 0.44375 0.80682 0.0
H430 H 0.91657 0.42288 0.79328 0.0
H431 H 0.94525 0.44062 0.78754 0.0
H432 H 0.94687 0.52667 0.76975 0.0
H433 H 0.96355 0.52554 0.78595 0.0
H434 H 0.96633 0.51697 0.76643 0.0
H435 H 0.09368 0.51715 0.76164 0.0
H436 H 0.12255 0.50595 0.76215 0.0
H437 H 0.09712 0.48685 0.77188 0.0
H438 H 0.10299 0.47993 0.7526 0.0
H439 H 0.03527 0.45574 0.76143 0.0
H440 H 0.06512 0.52419 0.75035 0.0
H441 H 0.00091 0.45449 0.79121 0.0
H442 H 0.98324 0.44772 0.77392 0.0
H443 H 0.00204 0.43695 0.77585 0.0
H444 H 0.04621 0.54429 0.75525 0.0
H445 H 0.01782 0.52997 0.76234 0.0
H446 H 0.04091 0.5405 0.77618 0.0
H447 H 0.02047 0.51606 0.87119 0.0
H448 H 0.95159 0.49185 0.84241 0.0
H449 H 0.94021 0.48484 0.81504 0.0
H450 H 0.97555 0.48207 0.76673 0.0
H451 H 0.04594 0.51184 0.79529 0.0
H452 H 0.05798 0.52289 0.82218 0.0
H453 H 0.84064 0.4664 0.78529 0.0
H454 H 0.83556 0.45388 0.80459 0.0
H455 H 0.86145 0.47889 0.80095 0.0
C456 C 0.47266 0.89903 0.91337 0.0
C457 C 0.46448 0.88597 0.92871 0.0
C458 C 0.48535 0.91607 0.94779 0.0
C459 C 0.46877 0.92124 0.95172 0.0
C460 C 0.47458 0.94206 0.95805 0.0
C461 C 0.49742 0.95808 0.96038 0.0
C462 C 0.51413 0.95266 0.95695 0.0
C463 C 0.50782 0.93152 0.95092 0.0
C464 C 0.45629 0.94711 0.96196 0.0
C465 C 0.53863 0.96937 0.95924 0.0
C466 C 0.51682 0.0786 0.87756 0.0
C467 C 0.50631 0.06429 0.89141 0.0
C468 C 0.51673 0.0575 0.91758 0.0
C469 C 0.53507 0.06176 0.92719 0.0
C470 C 0.53268 0.04852 0.94023 0.0
C471 C 0.51113 0.03112 0.9441 0.0
C472 C 0.49233 0.02722 0.93473 0.0
C473 C 0.49536 0.04025 0.92144 0.0
C474 C 0.55332 0.05288 0.94957 0.0
C475 C 0.46903 0.0091 0.93858 0.0
C476 C 0.53199 0.1096 0.03192 0.0
C477 C 0.54938 0.1071 0.02568 0.0
C478 C 0.5466 0.08605 0.02304 0.0
C479 C 0.52579 0.06714 0.02634 0.0
C480 C 0.5086 0.06966 0.03327 0.0
C481 C 0.51208 0.09094 0.0362 0.0
C482 C 0.56573 0.08407 0.01633 0.0
C483 C 0.4863 0.0499 0.03709 0.0
C484 C 0.5498 0.93222 0.07028 0.0
C485 C 0.53122 0.93808 0.06974 0.0
C486 C 0.53559 0.97339 0.06211 0.0
C487 C 0.55282 0.99306 0.05625 0.0
C488 C 0.54825 0.00584 0.04584 0.0
C489 C 0.52574 0.99911 0.04176 0.0
C490 C 0.50813 0.9801 0.04873 0.0
C491 C 0.51327 0.96714 0.0586 0.0
C492 C 0.56753 0.02614 0.03885 0.0
C493 C 0.48394 0.97313 0.04543 0.0
C494 C 0.50363 0.98086 0.96536 0.0
C495 C 0.50477 0.99523 0.95357 0.0
C496 C 0.5085 0.01629 0.95738 0.0
C497 C 0.51055 0.02306 0.97345 0.0
C498 C 0.51242 0.04334 0.97781 0.0
C499 C 0.51543 0.05026 0.99362 0.0
C500 C 0.51712 0.03734 0.00564 0.0
C501 C 0.52161 0.04487 0.02162 0.0
C502 C 0.52339 0.03168 0.03323 0.0
C503 C 0.52091 0.01109 0.02931 0.0
C504 C 0.51602 0.00313 0.01343 0.0
C505 C 0.51311 0.98237 0.00906 0.0
C506 C 0.50839 0.97475 0.99341 0.0
C507 C 0.50751 0.98804 0.98139 0.0
C508 C 0.51076 0.00915 0.98546 0.0
C509 C 0.51444 0.01647 0.00155 0.0
C510 C 0.53144 0.15875 0.02123 0.0
C511 C 0.54512 0.14727 0.02365 0.0
O512 O 0.48029 0.89651 0.94078 0.0
O513 O 0.54104 0.9608 0.07111 0.0
O514 O 0.53379 0.12972 0.03375 0.0
O515 O 0.52039 0.07013 0.9046 0.0
H516 H 0.44837 0.88479 0.93197 0.0
H517 H 0.47494 0.91578 0.91509 0.0
H518 H 0.4889 0.90067 0.90987 0.0
H519 H 0.4602 0.89064 0.90359 0.0
H520 H 0.45129 0.9091 0.94994 0.0
H521 H 0.52046 0.92726 0.94802 0.0
H522 H 0.4571 0.9598 0.95379 0.0
H523 H 0.43935 0.93229 0.96089 0.0
H524 H 0.45876 0.95397 0.97423 0.0
H525 H 0.54958 0.96262 0.95587 0.0
H526 H 0.543 0.98409 0.95199 0.0
H527 H 0.54213 0.97494 0.97184 0.0
H528 H 0.48929 0.06136 0.89419 0.0
H529 H 0.51845 0.05725 0.86072 0.0
H530 H 0.50684 0.0871 0.87548 0.0
H531 H 0.53213 0.09393 0.88222 0.0
H532 H 0.55147 0.07511 0.92411 0.0
H533 H 0.48094 0.0369 0.91418 0.0
H534 H 0.55351 0.06039 0.96126 0.0
H535 H 0.55326 0.03723 0.95174 0.0
H536 H 0.56897 0.06433 0.94339 0.0
H537 H 0.45596 0.01112 0.93232 0.0
H538 H 0.46709 0.99296 0.93489 0.0
H539 H 0.46619 0.00866 0.95154 0.0
H540 H 0.54646 0.14105 0.01172 0.0
H541 H 0.5651 0.12156 0.02282 0.0
H542 H 0.4989 0.09309 0.04123 0.0
H543 H 0.56216 0.07901 0.00364 0.0
H544 H 0.58182 0.09992 0.0172 0.0
H545 H 0.56763 0.07124 0.02263 0.0
H546 H 0.47436 0.05468 0.04188 0.0
H547 H 0.47878 0.03951 0.02624 0.0
H548 H 0.48875 0.03966 0.04596 0.0
H549 H 0.52241 0.93219 0.05803 0.0
H550 H 0.54279 0.91419 0.06844 0.0
H551 H 0.56191 0.94089 0.06072 0.0
H552 H 0.5589 0.9373 0.08189 0.0
H553 H 0.56997 0.99786 0.05931 0.0
H554 H 0.49991 0.95221 0.0636 0.0
H555 H 0.56585 0.02555 0.02572 0.0
H556 H 0.56728 0.04103 0.04319 0.0
H557 H 0.584 0.02791 0.0421 0.0
H558 H 0.47265 0.961 0.05417 0.0
H559 H 0.48152 0.98766 0.04565 0.0
H560 H 0.47899 0.96538 0.03343 0.0
H561 H 0.50265 0.98989 0.94123 0.0
H562 H 0.51161 0.0541 0.96903 0.0
H563 H 0.51677 0.06605 0.99624 0.0
H564 H 0.52741 0.0378 0.04538 0.0
H565 H 0.5143 0.97166 0.01768 0.0
H566 H 0.50601 0.95854 0.99079 0.0
H567 H 0.52869 0.16488 0.03271 0.0
H568 H 0.54019 0.17286 0.01311 0.0
H569 H 0.51487 0.14694 0.01583 0.0
C570 C 0.5574 0.43635 0.09009 0.0
C571 C 0.56786 0.43896 0.10667 0.0
C572 C 0.56425 0.4697 0.118 0.0
C573 C 0.541 0.4578 0.12025 0.0
C574 C 0.52962 0.4685 0.12558 0.0
C575 C 0.54171 0.49149 0.12874 0.0
C576 C 0.56512 0.50344 0.1267 0.0
C577 C 0.57608 0.49232 0.12141 0.0
C578 C 0.50463 0.4553 0.12776 0.0
C579 C 0.57852 0.52796 0.13 0.0
C580 C 0.48164 0.58346 0.0584 0.0
C581 C 0.49411 0.58016 0.07152 0.0
C582 C 0.49132 0.55014 0.08781 0.0
C583 C 0.50987 0.5636 0.09767 0.0
C584 C 0.51604 0.55454 0.11015 0.0
C585 C 0.50307 0.53166 0.11306 0.0
C586 C 0.48424 0.51813 0.10326 0.0
C587 C 0.47873 0.52757 0.09068 0.0
C588 C 0.53658 0.56941 0.12012 0.0
C589 C 0.46998 0.49372 0.10607 0.0
C590 C 0.45565 0.56295 0.20068 0.0
C591 C 0.47812 0.57663 0.19675 0.0
C592 C 0.49221 0.5678 0.19437 0.0
C593 C 0.48341 0.54477 0.19566 0.0
C594 C 0.46103 0.53116 0.20044 0.0
C595 C 0.4475 0.54054 0.20312 0.0
C596 C 0.51624 0.58297 0.18996 0.0
C597 C 0.45118 0.5066 0.20214 0.0
C598 C 0.58702 0.47491 0.22837 0.0
C599 C 0.56804 0.47447 0.23789 0.0
C600 C 0.55706 0.50139 0.23015 0.0
C601 C 0.56695 0.52268 0.22415 0.0
C602 C 0.55462 0.52924 0.21462 0.0
C603 C 0.53181 0.51411 0.21119 0.0
C604 C 0.52124 0.4932 0.21835 0.0
C605 C 0.53396 0.48708 0.22787 0.0
C606 C 0.56626 0.55191 0.20753 0.0
C607 C 0.49677 0.47697 0.2153 0.0
C608 C 0.52975 0.50309 0.13387 0.0
C609 C 0.52142 0.51112 0.12214 0.0
C610 C 0.50966 0.52189 0.12608 0.0
C611 C 0.50553 0.52426 0.14216 0.0
C612 C 0.49255 0.53375 0.1465 0.0
C613 C 0.48927 0.53672 0.16238 0.0
C614 C 0.49927 0.53078 0.17454 0.0
C615 C 0.49694 0.53468 0.19073 0.0
C616 C 0.50752 0.52897 0.20246 0.0
C617 C 0.52005 0.51899 0.19845 0.0
C618 C 0.52198 0.51435 0.18237 0.0
C619 C 0.53388 0.50367 0.17799 0.0
C620 C 0.53611 0.49961 0.16214 0.0
C621 C 0.52692 0.50644 0.15004 0.0
C622 C 0.51471 0.51703 0.15418 0.0
C623 C 0.51192 0.52066 0.17038 0.0
C624 C 0.41575 0.56984 0.18244 0.0
C625 C 0.43875 0.58354 0.19047 0.0
O626 O 0.576 0.46028 0.11248 0.0
O627 O 0.57033 0.49532 0.238 0.0
O628 O 0.44144 0.57095 0.20192 0.0
O629 O 0.48509 0.55816 0.07539 0.0
H630 H 0.55513 0.42698 0.11484 0.0
H631 H 0.54301 0.43923 0.09052 0.0
H632 H 0.56992 0.44836 0.08183 0.0
H633 H 0.5512 0.41937 0.08535 0.0
H634 H 0.53159 0.44024 0.11781 0.0
H635 H 0.59402 0.50133 0.11972 0.0
H636 H 0.49624 0.4615 0.11973 0.0
H637 H 0.49772 0.43742 0.12526 0.0
H638 H 0.50054 0.45747 0.14011 0.0
H639 H 0.59662 0.53488 0.12773 0.0
H640 H 0.57209 0.53656 0.12246 0.0
H641 H 0.57651 0.53147 0.14256 0.0
H642 H 0.51264 0.58899 0.07019 0.0
H643 H 0.49395 0.59041 0.04847 0.0
H644 H 0.47107 0.5669 0.05235 0.0
H645 H 0.46789 0.60099 0.06918 0.0
H646 H 0.51975 0.58113 0.09561 0.0
H647 H 0.46444 0.51734 0.083 0.0
H648 H 0.53146 0.57103 0.13226 0.0
H649 H 0.54761 0.56215 0.12114 0.0
H650 H 0.54635 0.58618 0.11513 0.0
H651 H 0.45452 0.48598 0.09855 0.0
H652 H 0.47976 0.48546 0.10336 0.0
H653 H 0.46523 0.49077 0.11872 0.0
H654 H 0.4514 0.58804 0.18101 0.0
H655 H 0.48454 0.59414 0.1954 0.0
H656 H 0.43019 0.53024 0.20642 0.0
H657 H 0.51834 0.58062 0.17719 0.0
H658 H 0.52147 0.6006 0.19212 0.0
H659 H 0.52754 0.57898 0.19682 0.0
H660 H 0.43329 0.49822 0.20548 0.0
H661 H 0.45265 0.49924 0.19081 0.0
H662 H 0.46071 0.50336 0.21137 0.0
H663 H 0.55225 0.46209 0.23183 0.0
H664 H 0.58585 0.4585 0.22854 0.0
H665 H 0.58572 0.47897 0.21585 0.0
H666 H 0.60363 0.48756 0.23323 0.0
H667 H 0.58465 0.53382 0.22636 0.0
H668 H 0.52585 0.47107 0.23334 0.0
H669 H 0.56789 0.55038 0.19456 0.0
H670 H 0.55615 0.56006 0.20928 0.0
H671 H 0.58322 0.56259 0.2128 0.0
H672 H 0.49062 0.46204 0.22267 0.0
H673 H 0.48666 0.48495 0.21778 0.0
H674 H 0.49407 0.47179 0.20261 0.0
H675 H 0.52437 0.50917 0.10976 0.0
H676 H 0.48476 0.53896 0.13766 0.0
H677 H 0.47905 0.54405 0.16498 0.0
H678 H 0.50605 0.53238 0.21483 0.0
H679 H 0.5416 0.49828 0.18675 0.0
H680 H 0.54544 0.49134 0.15949 0.0
H681 H 0.40222 0.56448 0.19126 0.0
H682 H 0.41325 0.57961 0.17318 0.0
H683 H 0.41454 0.55493 0.17669 0.0
Zn684 Zn 0.64183 0.44448 0.41943 0.0
Zn685 Zn 0.62234 0.40025 0.41752 0.0
O686 O 0.6559 0.4111 0.41542 0.0
O687 O 0.67196 0.44728 0.41496 0.0
O688 O 0.60875 0.36723 0.41818 0.0
O689 O 0.63112 0.44303 0.44182 0.0
O690 O 0.61174 0.40696 0.43851 0.0
C691 C 0.67337 0.42995 0.41405 0.0
C692 C 0.60951 0.42387 0.39338 0.0
O693 O 0.60878 0.40617 0.39777 0.0
O694 O 0.62134 0.44181 0.40103 0.0
C695 C 0.61483 0.35672 0.40903 0.0
O696 O 0.6297 0.36751 0.39814 0.0
C697 C 0.61692 0.42422 0.44682 0.0
Zn698 Zn 0.19915 0.63864 0.58112 0.0
Zn699 Zn 0.22191 0.61716 0.57732 0.0
O700 O 0.24541 0.64992 0.57447 0.0
O701 O 0.2268 0.66771 0.57669 0.0
O702 O 0.24094 0.60278 0.57692 0.0
O703 O 0.19156 0.62829 0.6035 0.0
O704 O 0.20725 0.60804 0.59923 0.0
C705 C 0.24496 0.66789 0.57427 0.0
C706 C 0.18313 0.60641 0.55493 0.0
O707 O 0.19974 0.60398 0.55851 0.0
O708 O 0.17918 0.61943 0.56301 0.0
C709 C 0.25564 0.60707 0.56647 0.0
O710 O 0.25746 0.62009 0.55477 0.0
C711 C 0.19642 0.61405 0.60818 0.0
Zn712 Zn 0.56834 0.20257 0.72871 0.0
Zn713 Zn 0.61189 0.22617 0.73754 0.0
O714 O 0.60174 0.24907 0.73556 0.0
O715 O 0.56616 0.23031 0.72848 0.0
O716 O 0.64423 0.24535 0.74413 0.0
O717 O 0.56226 0.18526 0.74866 0.0
O718 O 0.59789 0.20391 0.75571 0.0
C719 C 0.58352 0.24853 0.73191 0.0
C720 C 0.59822 0.19947 0.70644 0.0
O721 O 0.61337 0.21272 0.71615 0.0
O722 O 0.57777 0.19251 0.70919 0.0
C723 C 0.65679 0.26084 0.73496 0.0
O724 O 0.64836 0.26301 0.72151 0.0
C725 C 0.57787 0.18879 0.75836 0.0
Zn726 Zn 0.37966 0.57355 0.90668 0.0
Zn727 Zn 0.40065 0.61844 0.90576 0.0
O728 O 0.36752 0.60819 0.90176 0.0
O729 O 0.35017 0.57191 0.90114 0.0
O730 O 0.41506 0.65159 0.90602 0.0
O731 O 0.38889 0.57603 0.92977 0.0
O732 O 0.40818 0.61224 0.92806 0.0
C733 C 0.34962 0.58966 0.90001 0.0
C734 C 0.41427 0.59334 0.88293 0.0
O735 O 0.41558 0.61131 0.88759 0.0
O736 O 0.40093 0.57529 0.88946 0.0
C737 C 0.40787 0.66119 0.89697 0.0
O738 O 0.3916 0.64933 0.88676 0.0
C739 C 0.4018 0.5948 0.93603 0.0
Zn740 Zn 0.80157 0.42845 0.06687 0.0
Zn741 Zn 0.77864 0.3842 0.0667 0.0
O742 O 0.75561 0.39322 0.07325 0.0
O743 O 0.77455 0.42948 0.07437 0.0
O744 O 0.7596 0.35114 0.06492 0.0
O745 O 0.80689 0.42855 0.04348 0.0
O746 O 0.79068 0.39233 0.04402 0.0
C747 C 0.75639 0.41152 0.076 0.0
C748 C 0.81923 0.40862 0.08862 0.0
O749 O 0.80249 0.39041 0.08391 0.0
O750 O 0.82263 0.42664 0.0828 0.0
C751 C 0.74514 0.33998 0.07523 0.0
O752 O 0.74372 0.35008 0.08801 0.0
C753 C 0.80086 0.41031 0.03648 0.0
Zn754 Zn 0.38611 0.82634 0.23792 0.0
Zn755 Zn 0.40569 0.80098 0.23617 0.0
O756 O 0.37271 0.77894 0.24007 0.0
O757 O 0.35597 0.79865 0.241 0.0
O758 O 0.4189 0.78122 0.23357 0.0
O759 O 0.39712 0.83788 0.21606 0.0
O760 O 0.41249 0.81688 0.21486 0.0
C761 C 0.35503 0.78014 0.2417 0.0
C762 C 0.42058 0.83641 0.26207 0.0
O763 O 0.42216 0.82079 0.2555 0.0
O764 O 0.40669 0.84171 0.25677 0.0
C765 C 0.41422 0.76552 0.24301 0.0
O766 O 0.40135 0.76284 0.25514 0.0
C767 C 0.4083 0.83094 0.20861 0.0
C768 C 0.16755 0.62356 0.26481 0.0
C769 C 0.16692 0.60408 0.26961 0.0
C770 C 0.188 0.64271 0.26232 0.0
C771 C 0.24613 0.66149 0.25203 0.0
H772 H 0.2577 0.71807 0.26885 0.0
C773 C 0.33282 0.7399 0.24782 0.0
C774 C 0.33348 0.75992 0.24477 0.0
C775 C 0.31257 0.72092 0.25108 0.0
C776 C 0.25464 0.70246 0.26388 0.0
H777 H 0.18713 0.58917 0.27491 0.0
H778 H 0.22293 0.62266 0.27049 0.0
H779 H 0.22218 0.68492 0.27417 0.0
H780 H 0.31332 0.77562 0.2426 0.0
H781 H 0.27795 0.74241 0.2479 0.0
H782 H 0.27834 0.67895 0.24149 0.0
C783 C 0.2076 0.62315 0.26887 0.0
C784 C 0.23431 0.68347 0.26698 0.0
C785 C 0.18716 0.60406 0.27152 0.0
C786 C 0.31341 0.76048 0.24495 0.0
C787 C 0.29314 0.74146 0.24811 0.0
C788 C 0.26638 0.68049 0.24882 0.0
C789 C 0.20822 0.64267 0.26424 0.0
C790 C 0.22987 0.6628 0.2611 0.0
C791 C 0.29247 0.72145 0.25126 0.0
C792 C 0.27091 0.70122 0.2547 0.0
H793 H 0.15222 0.62394 0.26283 0.0
H794 H 0.18797 0.65742 0.25851 0.0
H795 H 0.24303 0.64581 0.24715 0.0
H796 H 0.34799 0.73891 0.24789 0.0
H797 H 0.31275 0.7059 0.25369 0.0
C798 C 0.59271 0.17625 0.4367 0.0
C799 C 0.58099 0.16631 0.45055 0.0
C800 C 0.59332 0.19521 0.43095 0.0
C801 C 0.58766 0.24219 0.44497 0.0
H802 H 0.58727 0.25384 0.40016 0.0
C803 C 0.5917 0.32179 0.42381 0.0
C804 C 0.60695 0.33308 0.41174 0.0
C805 C 0.58592 0.30018 0.42743 0.0
C806 C 0.58752 0.25086 0.41271 0.0
H807 H 0.56035 0.16811 0.46901 0.0
H808 H 0.561 0.20089 0.45882 0.0
H809 H 0.58177 0.21816 0.40853 0.0
H810 H 0.62738 0.33014 0.39356 0.0
H811 H 0.61743 0.29247 0.39999 0.0
H812 H 0.5937 0.27487 0.4492 0.0
C813 C 0.56999 0.19426 0.45251 0.0
C814 C 0.58439 0.23043 0.41751 0.0
C815 C 0.56945 0.17538 0.45829 0.0
C816 C 0.6156 0.32194 0.40295 0.0
C817 C 0.60981 0.30029 0.40658 0.0
C818 C 0.59074 0.26253 0.44019 0.0
C819 C 0.58227 0.20465 0.43894 0.0
C820 C 0.58455 0.2259 0.4337 0.0
C821 C 0.59525 0.28932 0.41908 0.0
C822 C 0.59084 0.26718 0.42401 0.0
H823 H 0.60192 0.1697 0.4306 0.0
H824 H 0.60316 0.20292 0.42058 0.0
H825 H 0.58835 0.23947 0.45753 0.0
H826 H 0.58458 0.32981 0.43073 0.0
H827 H 0.57434 0.29205 0.43694 0.0
C828 C 0.42486 0.59946 0.59769 0.0
C829 C 0.42419 0.59292 0.61347 0.0
C830 C 0.40563 0.59713 0.59019 0.0
C831 C 0.34379 0.57006 0.59317 0.0
H832 H 0.35183 0.62189 0.57128 0.0
C833 C 0.27223 0.58857 0.58239 0.0
C834 C 0.27245 0.60001 0.56873 0.0
C835 C 0.28965 0.58438 0.58559 0.0
C836 C 0.34925 0.60707 0.57705 0.0
H837 H 0.40287 0.57861 0.63368 0.0
H838 H 0.36926 0.57457 0.62063 0.0
H839 H 0.38439 0.62054 0.58098 0.0
H840 H 0.2905 0.61485 0.54724 0.0
H841 H 0.32073 0.60724 0.55273 0.0
H842 H 0.30857 0.55681 0.58953 0.0
C843 C 0.38453 0.58115 0.61394 0.0
C844 C 0.36797 0.60631 0.58264 0.0
C845 C 0.40378 0.58353 0.62145 0.0
C846 C 0.2899 0.60616 0.55794 0.0
C847 C 0.30731 0.60192 0.56113 0.0
C848 C 0.32504 0.57079 0.58753 0.0
C849 C 0.38532 0.58829 0.59832 0.0
C850 C 0.36546 0.58798 0.59101 0.0
C851 C 0.30769 0.59147 0.5752 0.0
C852 C 0.32753 0.58949 0.57966 0.0
H853 H 0.44044 0.60694 0.59131 0.0
H854 H 0.40674 0.6026 0.5781 0.0
H855 H 0.34131 0.55556 0.59937 0.0
H856 H 0.25903 0.58356 0.59095 0.0
H857 H 0.28947 0.57649 0.59661 0.0
C858 C 0.83264 0.40855 0.79303 0.0
C859 C 0.84169 0.42735 0.78355 0.0
C860 C 0.81473 0.38858 0.78743 0.0
C861 C 0.78276 0.35875 0.75106 0.0
H862 H 0.73383 0.32828 0.78013 0.0
C863 C 0.69308 0.29539 0.73023 0.0
C864 C 0.68001 0.27726 0.73985 0.0
C865 C 0.71435 0.31184 0.73531 0.0
C866 C 0.74747 0.33631 0.77192 0.0
H867 H 0.83913 0.44004 0.76079 0.0
H868 H 0.80778 0.40516 0.75097 0.0
H869 H 0.76838 0.36039 0.78941 0.0
H870 H 0.67942 0.26174 0.76211 0.0
H871 H 0.71669 0.29035 0.7709 0.0
H872 H 0.76164 0.33485 0.7335 0.0
C873 C 0.8148 0.40572 0.76262 0.0
C874 C 0.7673 0.35476 0.77725 0.0
C875 C 0.8327 0.4257 0.76824 0.0
C876 C 0.68899 0.27558 0.75445 0.0
C877 C 0.71031 0.29203 0.75953 0.0
C878 C 0.76292 0.34026 0.74574 0.0
C879 C 0.80538 0.38701 0.77225 0.0
C880 C 0.78506 0.36638 0.76683 0.0
C881 C 0.7231 0.31053 0.75012 0.0
C882 C 0.74491 0.32901 0.75605 0.0
H883 H 0.83912 0.40944 0.80493 0.0
H884 H 0.80799 0.37442 0.79508 0.0
H885 H 0.79627 0.36716 0.74281 0.0
H886 H 0.68668 0.29722 0.71891 0.0
H887 H 0.7236 0.32598 0.72784 0.0
C888 C 0.47656 0.85696 0.92922 0.0
C889 C 0.46011 0.86272 0.92595 0.0
C890 C 0.47241 0.83562 0.92585 0.0
C891 C 0.4393 0.78796 0.89977 0.0
H892 H 0.44822 0.75392 0.93203 0.0
C893 C 0.40447 0.69456 0.89213 0.0
C894 C 0.41632 0.68511 0.8989 0.0
C895 C 0.41142 0.71679 0.89487 0.0
C896 C 0.44603 0.7633 0.92276 0.0
H897 H 0.4269 0.85096 0.91604 0.0
H898 H 0.41979 0.81376 0.90994 0.0
H899 H 0.45756 0.79179 0.93799 0.0
H900 H 0.44521 0.69175 0.9134 0.0
H901 H 0.45781 0.73075 0.91774 0.0
H902 H 0.42815 0.75982 0.88441 0.0
C903 C 0.43571 0.82566 0.91533 0.0
C904 C 0.45129 0.78496 0.92624 0.0
C905 C 0.4397 0.84685 0.91891 0.0
C906 C 0.43564 0.69853 0.90811 0.0
C907 C 0.44276 0.72086 0.91069 0.0
C908 C 0.43434 0.76644 0.89621 0.0
C909 C 0.45201 0.81984 0.91877 0.0
C910 C 0.44767 0.79736 0.91485 0.0
C911 C 0.43057 0.73023 0.90427 0.0
C912 C 0.43731 0.75368 0.90773 0.0
H913 H 0.49266 0.86895 0.93428 0.0
H914 H 0.48533 0.83158 0.92845 0.0
H915 H 0.43666 0.79731 0.89071 0.0
H916 H 0.38941 0.68464 0.88508 0.0
H917 H 0.40134 0.72325 0.88995 0.0
C918 C 0.58288 0.41255 0.10758 0.0
C919 C 0.58692 0.43418 0.10578 0.0
C920 C 0.60029 0.40792 0.10611 0.0
C921 C 0.66145 0.43416 0.10852 0.0
H922 H 0.65452 0.38731 0.07995 0.0
C923 C 0.73701 0.43233 0.08324 0.0
C924 C 0.73618 0.41202 0.08107 0.0
C925 C 0.71808 0.43309 0.08788 0.0
C926 C 0.65662 0.40018 0.08821 0.0
H927 H 0.61219 0.46769 0.10022 0.0
H928 H 0.64259 0.45971 0.09806 0.0
H929 H 0.6224 0.39202 0.0853 0.0
H930 H 0.71479 0.37649 0.0822 0.0
H931 H 0.68164 0.37786 0.09049 0.0
H932 H 0.6956 0.44251 0.1114 0.0
C933 C 0.62605 0.44642 0.1009 0.0
C934 C 0.63824 0.40289 0.09123 0.0
C935 C 0.60864 0.45099 0.10216 0.0
C936 C 0.71596 0.39242 0.08372 0.0
C937 C 0.69695 0.39319 0.08842 0.0
C938 C 0.67974 0.43136 0.10561 0.0
C939 C 0.62207 0.42487 0.10288 0.0
C940 C 0.64066 0.42026 0.10111 0.0
C941 C 0.69783 0.41356 0.09054 0.0
C942 C 0.6777 0.41472 0.09508 0.0
H943 H 0.56619 0.39923 0.11004 0.0
H944 H 0.59679 0.39115 0.10761 0.0
H945 H 0.66366 0.44745 0.11641 0.0
H946 H 0.75226 0.44776 0.08123 0.0
H947 H 0.71925 0.44905 0.08908 0.0
C948 C 0.39871 0.85411 0.55147 0.0
C949 C 0.41901 0.85646 0.54612 0.0
C950 C 0.38012 0.83318 0.55344 0.0
C951 C 0.3643 0.77577 0.56099 0.0
H952 H 0.3055 0.76335 0.54665 0.0
C953 C 0.28524 0.68943 0.56633 0.0
C954 C 0.26546 0.68898 0.57083 0.0
C955 C 0.30428 0.70937 0.5626 0.0
C956 C 0.32177 0.76661 0.55088 0.0
H957 H 0.43599 0.83877 0.53929 0.0
H958 H 0.40341 0.80207 0.54276 0.0
H959 H 0.33811 0.7991 0.54135 0.0
H960 H 0.25032 0.70923 0.57518 0.0
H961 H 0.28352 0.74389 0.56899 0.0
H962 H 0.34792 0.74345 0.57081 0.0
C963 C 0.40187 0.81646 0.54523 0.0
C964 C 0.34044 0.78708 0.5478 0.0
C965 C 0.42043 0.83741 0.54313 0.0
C966 C 0.26523 0.70893 0.57167 0.0
C967 C 0.28424 0.72882 0.568 0.0
C968 C 0.34558 0.75531 0.56416 0.0
C969 C 0.38151 0.81413 0.55039 0.0
C970 C 0.36187 0.79196 0.55296 0.0
C971 C 0.30396 0.7293 0.56332 0.0
C972 C 0.32405 0.75058 0.55929 0.0
H973 H 0.39727 0.86847 0.55428 0.0
H974 H 0.36478 0.83191 0.55771 0.0
H975 H 0.38059 0.77916 0.56525 0.0
H976 H 0.28595 0.67434 0.56549 0.0
H977 H 0.31913 0.70913 0.55889 0.0
C978 C 0.59662 0.42681 0.70834 0.0
C979 C 0.57654 0.42717 0.70985 0.0
C980 C 0.59743 0.4077 0.71163 0.0
C981 C 0.56244 0.34791 0.71284 0.0
H982 H 0.60975 0.35033 0.7395 0.0
C983 C 0.56218 0.2687 0.73057 0.0
C984 C 0.58279 0.26924 0.73109 0.0
C985 C 0.5614 0.28813 0.72899 0.0
C986 C 0.59658 0.34937 0.73185 0.0
H987 H 0.54183 0.40804 0.71683 0.0
H988 H 0.54313 0.37447 0.72209 0.0
H989 H 0.60865 0.38405 0.73447 0.0
H990 H 0.6188 0.29063 0.7305 0.0
H991 H 0.61747 0.32447 0.72722 0.0
H992 H 0.55067 0.3135 0.70974 0.0
C993 C 0.55814 0.38894 0.71816 0.0
C994 C 0.59594 0.36869 0.72903 0.0
C995 C 0.5574 0.40813 0.7151 0.0
C996 C 0.60265 0.28969 0.73023 0.0
C997 C 0.60187 0.30911 0.72843 0.0
C998 C 0.56323 0.32866 0.71547 0.0
C999 C 0.57815 0.38854 0.71644 0.0
C1000 C 0.57884 0.36811 0.71952 0.0
C1001 C 0.58121 0.30857 0.72765 0.0
C1002 C 0.58029 0.32911 0.72504 0.0
H1003 H 0.6117 0.44138 0.70463 0.0
H1004 H 0.61306 0.4078 0.71018 0.0
H1005 H 0.54923 0.34708 0.70529 0.0
H1006 H 0.54658 0.25321 0.73136 0.0
H1007 H 0.54521 0.28709 0.72881 0.0
C1008 C 0.17835 0.59801 0.87377 0.0
C1009 C 0.15873 0.57825 0.87719 0.0
C1010 C 0.19936 0.60006 0.87636 0.0
C1011 C 0.22737 0.57459 0.89837 0.0
H1012 H 0.27462 0.60556 0.86815 0.0
C1013 C 0.30777 0.56889 0.89805 0.0
C1014 C 0.32808 0.58888 0.89699 0.0
C1015 C 0.2874 0.56825 0.89569 0.0
C1016 C 0.26161 0.59702 0.87675 0.0
H1017 H 0.14577 0.54548 0.88667 0.0
H1018 H 0.18223 0.54868 0.89059 0.0
H1019 H 0.23843 0.60322 0.86399 0.0
H1020 H 0.34294 0.62384 0.89235 0.0
H1021 H 0.30727 0.62261 0.88803 0.0
H1022 H 0.25046 0.56798 0.91089 0.0
C1023 C 0.18152 0.56272 0.88604 0.0
C1024 C 0.24091 0.59574 0.87441 0.0
C1025 C 0.16057 0.56076 0.88359 0.0
C1026 C 0.32758 0.60817 0.89327 0.0
C1027 C 0.30719 0.60747 0.89073 0.0
C1028 C 0.24797 0.57568 0.9006 0.0
C1029 C 0.2012 0.5824 0.88247 0.0
C1030 C 0.22348 0.58439 0.88515 0.0
C1031 C 0.28691 0.58754 0.89204 0.0
C1032 C 0.26525 0.58682 0.88978 0.0
H1033 H 0.17741 0.61192 0.86918 0.0
H1034 H 0.21416 0.61561 0.87378 0.0
H1035 H 0.21454 0.56615 0.90708 0.0
H1036 H 0.30756 0.55374 0.9009 0.0
H1037 H 0.272 0.55262 0.89661 0.0
C1038 C 0.58684 0.17166 0.02048 0.0
C1039 C 0.56816 0.1634 0.03031 0.0
C1040 C 0.60783 0.18807 0.02605 0.0
C1041 C 0.64034 0.21759 0.06255 0.0
H1042 H 0.67348 0.26507 0.03334 0.0
C1043 C 0.70996 0.30517 0.0819 0.0
C1044 C 0.72811 0.31668 0.07176 0.0
C1045 C 0.69231 0.28428 0.07754 0.0
C1046 C 0.66468 0.25179 0.04158 0.0
H1047 H 0.55679 0.16551 0.05375 0.0
H1048 H 0.59339 0.19457 0.06345 0.0
H1049 H 0.63911 0.23265 0.02438 0.0
H1050 H 0.74263 0.31463 0.04955 0.0
H1051 H 0.71197 0.27815 0.04204 0.0
H1052 H 0.66575 0.23724 0.07988 0.0
C1053 C 0.59197 0.18806 0.05153 0.0
C1054 C 0.64492 0.23315 0.03644 0.0
C1055 C 0.57098 0.17152 0.04597 0.0
C1056 C 0.72881 0.30633 0.05758 0.0
C1057 C 0.71118 0.28546 0.05323 0.0
C1058 C 0.66012 0.23633 0.06772 0.0
C1059 C 0.61058 0.19681 0.04154 0.0
C1060 C 0.63237 0.2159 0.04688 0.0
C1061 C 0.69245 0.27445 0.06295 0.0
C1062 C 0.6724 0.25373 0.05732 0.0
H1063 H 0.58513 0.16569 0.00836 0.0
H1064 H 0.62187 0.19415 0.01812 0.0
H1065 H 0.63124 0.20448 0.07085 0.0
H1066 H 0.70892 0.31265 0.09293 0.0
H1067 H 0.67807 0.27632 0.08526 0.0
C1068 C 0.43 0.60356 0.212 0.0
C1069 C 0.44094 0.60432 0.19785 0.0
C1070 C 0.43028 0.62243 0.21791 0.0
C1071 C 0.43623 0.67474 0.20427 0.0
H1072 H 0.44107 0.68937 0.24914 0.0
C1073 C 0.43506 0.75204 0.22646 0.0
C1074 C 0.42141 0.74925 0.23949 0.0
C1075 C 0.4402 0.73574 0.22226 0.0
C1076 C 0.43955 0.68542 0.23658 0.0
H1077 H 0.4608 0.62539 0.17886 0.0
H1078 H 0.46157 0.65843 0.18928 0.0
H1079 H 0.44502 0.6582 0.24018 0.0
H1080 H 0.40312 0.72747 0.25869 0.0
H1081 H 0.41182 0.69891 0.25123 0.0
H1082 H 0.43032 0.70157 0.20062 0.0
C1083 C 0.45268 0.64324 0.19576 0.0
C1084 C 0.44182 0.66757 0.23145 0.0
C1085 C 0.4524 0.62439 0.18986 0.0
C1086 C 0.41368 0.73014 0.24857 0.0
C1087 C 0.41877 0.71381 0.24435 0.0
C1088 C 0.43393 0.69252 0.20938 0.0
C1089 C 0.44135 0.64241 0.20973 0.0
C1090 C 0.44005 0.66196 0.21524 0.0
C1091 C 0.43175 0.71623 0.23097 0.0
C1092 C 0.43542 0.69801 0.2256 0.0
H1093 H 0.42075 0.58821 0.21825 0.0
H1094 H 0.42112 0.62115 0.22857 0.0
H1095 H 0.43435 0.67062 0.19172 0.0
H1096 H 0.44146 0.76664 0.21928 0.0
H1097 H 0.45058 0.73831 0.21206 0.0
C1098 C 0.83458 0.41608 0.37018 0.0
C1099 C 0.84742 0.43138 0.35861 0.0
C1100 C 0.81713 0.41725 0.37753 0.0
C1101 C 0.78041 0.44155 0.37181 0.0
H1102 H 0.76266 0.42169 0.41475 0.0
C1103 C 0.71248 0.45115 0.40404 0.0
C1104 C 0.69501 0.43155 0.41018 0.0
C1105 C 0.73214 0.45213 0.39895 0.0
C1106 C 0.76745 0.42723 0.40273 0.0
H1107 H 0.85316 0.46088 0.34657 0.0
H1108 H 0.82345 0.46359 0.35985 0.0
H1109 H 0.79569 0.42242 0.40386 0.0
H1110 H 0.68485 0.39784 0.41633 0.0
H1111 H 0.71955 0.39978 0.40772 0.0
H1112 H 0.7524 0.44679 0.37089 0.0
C1113 C 0.82608 0.45001 0.36275 0.0
C1114 C 0.78629 0.42756 0.39643 0.0
C1115 C 0.84326 0.4486 0.35521 0.0
C1116 C 0.69799 0.41318 0.41165 0.0
C1117 C 0.71785 0.41429 0.40678 0.0
C1118 C 0.76184 0.44157 0.3782 0.0
C1119 C 0.81242 0.43407 0.37376 0.0
C1120 C 0.79294 0.43457 0.38082 0.0
C1121 C 0.73491 0.43365 0.40012 0.0
C1122 C 0.7551 0.43428 0.39367 0.0
H1123 H 0.83768 0.40287 0.37329 0.0
H1124 H 0.80696 0.40456 0.38583 0.0
H1125 H 0.78459 0.44657 0.35964 0.0
H1126 H 0.71071 0.46558 0.4027 0.0
H1127 H 0.74513 0.46729 0.39395 0.0
C1128 C 0.08649 0.58928 0.43126 0.0
C1129 C 0.09888 0.58923 0.41816 0.0
C1130 C 0.09153 0.58496 0.4464 0.0
C1131 C 0.12521 0.56566 0.46891 0.0
H1132 H 0.12629 0.60637 0.50087 0.0
C1133 C 0.17782 0.59013 0.5275 0.0
C1134 C 0.1691 0.59552 0.54069 0.0
C1135 C 0.16589 0.58389 0.51305 0.0
C1136 C 0.1257 0.59454 0.49222 0.0
H1137 H 0.12609 0.58451 0.41061 0.0
H1138 H 0.1354 0.57761 0.43715 0.0
H1139 H 0.11149 0.60574 0.47465 0.0
H1140 H 0.14021 0.59638 0.54965 0.0
H1141 H 0.11925 0.58501 0.52467 0.0
H1142 H 0.14035 0.55516 0.48658 0.0
C1143 C 0.12132 0.58026 0.43567 0.0
C1144 C 0.11715 0.59416 0.47713 0.0
C1145 C 0.1161 0.58433 0.42049 0.0
C1146 C 0.14752 0.59273 0.53958 0.0
C1147 C 0.13555 0.58629 0.52527 0.0
C1148 C 0.1339 0.56611 0.48409 0.0
C1149 C 0.10942 0.58103 0.44886 0.0
C1150 C 0.11694 0.57986 0.46523 0.0
C1151 C 0.14501 0.58278 0.51166 0.0
C1152 C 0.13435 0.58069 0.49587 0.0
H1153 H 0.07328 0.59324 0.42989 0.0
H1154 H 0.08178 0.58533 0.45625 0.0
H1155 H 0.12511 0.55431 0.46005 0.0
H1156 H 0.19442 0.59212 0.52805 0.0
H1157 H 0.17364 0.58133 0.50277 0.0
C1158 C 0.60302 0.11639 0.57239 0.0
C1159 C 0.58235 0.1221 0.56231 0.0
C1160 C 0.61372 0.13072 0.59108 0.0
C1161 C 0.61837 0.18242 0.61734 0.0
H1162 H 0.60991 0.14197 0.65116 0.0
C1163 C 0.58889 0.17217 0.68441 0.0
C1164 C 0.60421 0.19245 0.69163 0.0
C1165 C 0.59343 0.16609 0.66975 0.0
C1166 C 0.61271 0.15355 0.64182 0.0
H1167 H 0.57047 0.15169 0.55899 0.0
H1168 H 0.58979 0.17418 0.58875 0.0
H1169 H 0.60749 0.12993 0.62361 0.0
H1170 H 0.63649 0.22209 0.68937 0.0
H1171 H 0.64412 0.21165 0.66325 0.0
H1172 H 0.62253 0.20569 0.63567 0.0
C1173 C 0.59288 0.16127 0.5847 0.0
C1174 C 0.6115 0.14674 0.62606 0.0
C1175 C 0.58145 0.14792 0.56582 0.0
C1176 C 0.62445 0.20633 0.68407 0.0
C1177 C 0.62879 0.20042 0.66916 0.0
C1178 C 0.61989 0.18935 0.63314 0.0
C1179 C 0.60792 0.15213 0.59732 0.0
C1180 C 0.61355 0.16086 0.6137 0.0
C1181 C 0.61319 0.18032 0.66185 0.0
C1182 C 0.61627 0.17468 0.64548 0.0
H1183 H 0.60472 0.10231 0.56916 0.0
H1184 H 0.6232 0.12601 0.59876 0.0
H1185 H 0.62026 0.19371 0.60802 0.0
H1186 H 0.57321 0.16113 0.69001 0.0
H1187 H 0.58102 0.15061 0.66427 0.0
C1188 C 0.53812 0.6013 0.77583 0.0
C1189 C 0.53012 0.58126 0.76737 0.0
C1190 C 0.52534 0.60341 0.78775 0.0
C1191 C 0.47615 0.56865 0.81305 0.0
H1192 H 0.48333 0.62539 0.82513 0.0
C1193 C 0.43552 0.57788 0.86946 0.0
C1194 C 0.42824 0.59332 0.86982 0.0
C1195 C 0.44829 0.57736 0.85692 0.0
C1196 C 0.48078 0.60931 0.82181 0.0
H1197 H 0.50152 0.54852 0.76378 0.0
H1198 H 0.47863 0.55264 0.7836 0.0
H1199 H 0.50325 0.62267 0.80251 0.0
H1200 H 0.42845 0.6203 0.85737 0.0
H1201 H 0.44958 0.61863 0.83495 0.0
H1202 H 0.45256 0.55498 0.83158 0.0
C1203 C 0.49536 0.56631 0.78188 0.0
C1204 C 0.49261 0.60781 0.80893 0.0
C1205 C 0.50839 0.56401 0.7703 0.0
C1206 C 0.43401 0.60832 0.85741 0.0
C1207 C 0.44628 0.60741 0.84461 0.0
C1208 C 0.46392 0.57004 0.82563 0.0
C1209 C 0.50385 0.58582 0.7911 0.0
C1210 C 0.49063 0.58747 0.80444 0.0
C1211 C 0.45355 0.59185 0.84414 0.0
C1212 C 0.46623 0.59043 0.83036 0.0
H1213 H 0.5545 0.61522 0.77358 0.0
H1214 H 0.53265 0.61868 0.79457 0.0
H1215 H 0.47437 0.55272 0.81028 0.0
H1216 H 0.43155 0.56632 0.879 0.0
H1217 H 0.45409 0.56559 0.85735 0.0
C1218 C 0.88482 0.40436 0.90439 0.0
C1219 C 0.89731 0.43217 0.89554 0.0
C1220 C 0.86777 0.40057 0.92137 0.0
C1221 C 0.8541 0.43736 0.95117 0.0
H1222 H 0.81089 0.37922 0.96587 0.0
C1223 C 0.80943 0.4277 0.00993 0.0
C1224 C 0.80616 0.41016 0.01959 0.0
C1225 C 0.81591 0.42852 0.99423 0.0
C1226 C 0.82309 0.39556 0.96205 0.0
H1227 H 0.89108 0.46549 0.89127 0.0
H1228 H 0.86253 0.45662 0.9183 0.0
H1229 H 0.82828 0.38306 0.94016 0.0
H1230 H 0.80656 0.37945 0.02036 0.0
H1231 H 0.81892 0.38134 0.99315 0.0
H1232 H 0.85001 0.44996 0.97322 0.0
C1233 C 0.86788 0.44506 0.91493 0.0
C1234 C 0.83296 0.39774 0.94728 0.0
C1235 C 0.88488 0.4503 0.89771 0.0
C1236 C 0.80892 0.39314 0.01314 0.0
C1237 C 0.81587 0.39418 0.9975 0.0
C1238 C 0.84457 0.4352 0.96602 0.0
C1239 C 0.86026 0.42104 0.92683 0.0
C1240 C 0.8486 0.41865 0.94179 0.0
C1241 C 0.81979 0.41208 0.98791 0.0
C1242 C 0.829 0.41427 0.97171 0.0
H1243 H 0.89126 0.39337 0.90199 0.0
H1244 H 0.86266 0.38625 0.92863 0.0
H1245 H 0.86649 0.45364 0.94736 0.0
H1246 H 0.80708 0.44089 0.01453 0.0
H1247 H 0.81812 0.44223 0.98712 0.0
C1248 C 0.51443 0.93771 0.09669 0.0
C1249 C 0.51468 0.92646 0.08283 0.0
C1250 C 0.5 0.92622 0.10899 0.0
C1251 C 0.47598 0.87502 0.12864 0.0
H1252 H 0.43184 0.88834 0.14528 0.0
C1253 C 0.42256 0.82807 0.18203 0.0
C1254 C 0.41736 0.84003 0.19294 0.0
C1255 C 0.43192 0.83717 0.16746 0.0
C1256 C 0.4443 0.88459 0.14097 0.0
H1257 H 0.49999 0.89449 0.07102 0.0
H1258 H 0.47537 0.87428 0.0929 0.0
H1259 H 0.45331 0.90776 0.12211 0.0
H1260 H 0.41787 0.87085 0.19724 0.0
H1261 H 0.43525 0.88719 0.17234 0.0
H1262 H 0.46828 0.85294 0.14785 0.0
C1263 C 0.48606 0.89201 0.094 0.0
C1264 C 0.45642 0.89561 0.12762 0.0
C1265 C 0.50009 0.90355 0.08155 0.0
C1266 C 0.42153 0.86116 0.18898 0.0
C1267 C 0.43136 0.87046 0.1746 0.0
C1268 C 0.46427 0.86437 0.14219 0.0
C1269 C 0.48602 0.90326 0.10783 0.0
C1270 C 0.47238 0.89094 0.12142 0.0
C1271 C 0.43681 0.85866 0.16363 0.0
C1272 C 0.44835 0.8691 0.14863 0.0
H1273 H 0.52557 0.95531 0.09818 0.0
H1274 H 0.50031 0.93514 0.11966 0.0
H1275 H 0.48841 0.87135 0.12409 0.0
H1276 H 0.4193 0.81164 0.18473 0.0
H1277 H 0.43535 0.8273 0.15923 0.0
C1278 C 0.551 0.4477 0.26042 0.0
C1279 C 0.5685 0.46763 0.25476 0.0
C1280 C 0.55161 0.44132 0.27598 0.0
C1281 C 0.58017 0.46374 0.31498 0.0
H1282 H 0.56065 0.40252 0.32362 0.0
C1283 C 0.58986 0.43908 0.37756 0.0
C1284 C 0.59775 0.42417 0.37879 0.0
C1285 C 0.58155 0.44176 0.36312 0.0
C1286 C 0.56629 0.41971 0.32141 0.0
H1287 H 0.60022 0.49659 0.26092 0.0
H1288 H 0.60177 0.48522 0.28783 0.0
H1289 H 0.55654 0.41305 0.29691 0.0
H1290 H 0.60227 0.39962 0.36619 0.0
H1291 H 0.58884 0.40504 0.34071 0.0
H1292 H 0.59128 0.47078 0.33907 0.0
C1293 C 0.58728 0.47466 0.28045 0.0
C1294 C 0.56364 0.42571 0.30611 0.0
C1295 C 0.58655 0.48111 0.26497 0.0
C1296 C 0.59619 0.41118 0.36553 0.0
C1297 C 0.58838 0.41425 0.35095 0.0
C1298 C 0.58308 0.45781 0.33016 0.0
C1299 C 0.56981 0.4547 0.28618 0.0
C1300 C 0.57091 0.44788 0.30266 0.0
C1301 C 0.58155 0.43006 0.34945 0.0
C1302 C 0.57645 0.43577 0.33357 0.0
H1303 H 0.53683 0.43705 0.2528 0.0
H1304 H 0.53774 0.42599 0.28005 0.0
H1305 H 0.58552 0.48089 0.31286 0.0
H1306 H 0.59058 0.44905 0.3877 0.0
H1307 H 0.57576 0.45354 0.3626 0.0
C1308 C 0.45395 0.8944 0.39791 0.0
C1309 C 0.44461 0.90822 0.39815 0.0
C1310 C 0.46092 0.8896 0.38365 0.0
C1311 C 0.47286 0.90596 0.3416 0.0
H1312 H 0.44329 0.84302 0.33289 0.0
C1313 C 0.43582 0.86794 0.2814 0.0
C1314 C 0.43402 0.84789 0.27644 0.0
C1315 C 0.44581 0.87757 0.29596 0.0
C1316 C 0.45225 0.86065 0.33516 0.0
H1317 H 0.43547 0.92803 0.3837 0.0
H1318 H 0.44784 0.9199 0.35892 0.0
H1319 H 0.44517 0.85637 0.35991 0.0
H1320 H 0.44257 0.82292 0.2824 0.0
H1321 H 0.45995 0.83976 0.30809 0.0
H1322 H 0.47893 0.9102 0.3167 0.0
C1323 C 0.45018 0.91308 0.36976 0.0
C1324 C 0.45329 0.86832 0.35068 0.0
C1325 C 0.443 0.91768 0.38395 0.0
C1326 C 0.44363 0.83833 0.28595 0.0
C1327 C 0.4535 0.84792 0.30066 0.0
C1328 C 0.47192 0.89831 0.32609 0.0
C1329 C 0.45874 0.8986 0.36939 0.0
C1330 C 0.46264 0.891 0.35391 0.0
C1331 C 0.45416 0.86735 0.30599 0.0
C1332 C 0.4606 0.87554 0.3226 0.0
H1333 H 0.4551 0.8867 0.40867 0.0
H1334 H 0.46743 0.87837 0.38371 0.0
H1335 H 0.48055 0.92356 0.34382 0.0
H1336 H 0.42879 0.87584 0.27427 0.0
H1337 H 0.44574 0.89236 0.29974 0.0
C1338 C 0.52851 0.43403 0.56955 0.0
C1339 C 0.50524 0.41972 0.57002 0.0
C1340 C 0.54046 0.43481 0.55608 0.0
C1341 C 0.54014 0.40128 0.52313 0.0
H1342 H 0.58044 0.45655 0.50312 0.0
C1343 C 0.58401 0.40425 0.46445 0.0
C1344 C 0.60522 0.42255 0.46177 0.0
C1345 C 0.57194 0.40369 0.47783 0.0
C1346 C 0.56961 0.44098 0.5087 0.0
H1347 H 0.47612 0.39586 0.5564 0.0
H1348 H 0.49725 0.39665 0.53302 0.0
H1349 H 0.55904 0.45644 0.52595 0.0
H1350 H 0.63089 0.45414 0.47134 0.0
H1351 H 0.61042 0.45273 0.49504 0.0
H1352 H 0.55117 0.38578 0.5064 0.0
C1353 C 0.50614 0.40714 0.54316 0.0
C1354 C 0.55722 0.44096 0.52171 0.0
C1355 C 0.49409 0.40668 0.55652 0.0
C1356 C 0.61448 0.43989 0.47303 0.0
C1357 C 0.60261 0.43916 0.48654 0.0
C1358 C 0.55284 0.40132 0.51031 0.0
C1359 C 0.52944 0.42111 0.54288 0.0
C1360 C 0.54233 0.42111 0.52898 0.0
C1361 C 0.58098 0.42125 0.48899 0.0
C1362 C 0.56772 0.42117 0.50287 0.0
H1363 H 0.53751 0.44443 0.57971 0.0
H1364 H 0.55843 0.44572 0.55613 0.0
H1365 H 0.52894 0.38579 0.52869 0.0
H1366 H 0.57634 0.39071 0.45591 0.0
H1367 H 0.55524 0.38976 0.47911 0.0
C1368 C 0.10472 0.50382 0.72462 0.0
C1369 C 0.10317 0.51591 0.73747 0.0
C1370 C 0.11543 0.51446 0.71076 0.0
C1371 C 0.12979 0.56279 0.6872 0.0
H1372 H 0.17704 0.55428 0.67029 0.0
C1373 C 0.18236 0.61424 0.63529 0.0
C1374 C 0.18843 0.60373 0.62372 0.0
C1375 C 0.17309 0.60384 0.64951 0.0
C1376 C 0.16368 0.55662 0.6747 0.0
H1377 H 0.11078 0.54842 0.74566 0.0
H1378 H 0.12902 0.56694 0.72126 0.0
H1379 H 0.15761 0.53483 0.69407 0.0
H1380 H 0.18995 0.57425 0.61806 0.0
H1381 H 0.17301 0.55569 0.64265 0.0
H1382 H 0.13515 0.58394 0.6677 0.0
C1383 C 0.12225 0.5493 0.72205 0.0
C1384 C 0.15263 0.54553 0.68835 0.0
C1385 C 0.11189 0.53873 0.73599 0.0
C1386 C 0.18554 0.5828 0.62681 0.0
C1387 C 0.1759 0.57221 0.64095 0.0
C1388 C 0.14057 0.57361 0.67343 0.0
C1389 C 0.12431 0.5373 0.70938 0.0
C1390 C 0.13569 0.54863 0.69475 0.0
C1391 C 0.16926 0.58249 0.65239 0.0
C1392 C 0.15778 0.5708 0.66705 0.0
H1393 H 0.09779 0.48615 0.72533 0.0
H1394 H 0.11656 0.50483 0.70106 0.0
H1395 H 0.11659 0.56523 0.69182 0.0
H1396 H 0.18464 0.6305 0.63331 0.0
H1397 H 0.16879 0.61255 0.65819 0.0
C1398 C 0.53803 0.06139 0.87862 0.0
C1399 C 0.50729 0.04841 0.88165 0.0
C1400 C 0.54883 0.08191 0.86344 0.0
C1401 C 0.52684 0.11287 0.83357 0.0
H1402 H 0.58279 0.12833 0.81316 0.0
C1403 C 0.55025 0.15815 0.77495 0.0
C1404 C 0.57243 0.17496 0.77262 0.0
C1405 C 0.54463 0.14488 0.78822 0.0
C1406 C 0.56733 0.12445 0.81894 0.0
H1407 H 0.4696 0.03769 0.86737 0.0
H1408 H 0.48917 0.06987 0.84275 0.0
H1409 H 0.56954 0.10167 0.8346 0.0
H1410 H 0.60621 0.19084 0.78245 0.0
H1411 H 0.59625 0.16751 0.80588 0.0
H1412 H 0.52439 0.13536 0.81789 0.0
C1413 C 0.49993 0.06794 0.8512 0.0
C1414 C 0.55973 0.10918 0.83121 0.0
C1415 C 0.48754 0.04702 0.86595 0.0
C1416 C 0.58895 0.17807 0.78391 0.0
C1417 C 0.58329 0.16467 0.79728 0.0
C1418 C 0.53442 0.12812 0.8214 0.0
C1419 C 0.53001 0.08559 0.8504 0.0
C1420 C 0.53916 0.10292 0.83837 0.0
C1421 C 0.561 0.14803 0.7996 0.0
C1422 C 0.55447 0.1337 0.81368 0.0
H1423 H 0.54903 0.06026 0.88732 0.0
H1424 H 0.56673 0.09229 0.86235 0.0
H1425 H 0.51126 0.10889 0.83919 0.0
H1426 H 0.53708 0.15512 0.76647 0.0
H1427 H 0.52741 0.13191 0.78946 0.0
C1428 C 0.45484 0.57173 0.07791 0.0
C1429 C 0.48543 0.59117 0.08044 0.0
C1430 C 0.44289 0.57456 0.05966 0.0
C1431 C 0.45367 0.61779 0.0245 0.0
H1432 H 0.41987 0.56264 0.00097 0.0
C1433 C 0.42932 0.61458 0.95825 0.0
C1434 C 0.40935 0.59628 0.95267 0.0
C1435 C 0.43685 0.61531 0.97383 0.0
C1436 C 0.42881 0.57817 0.00745 0.0
H1437 H 0.51764 0.63001 0.0729 0.0
H1438 H 0.49577 0.63325 0.0445 0.0
H1439 H 0.43391 0.56259 0.02744 0.0
H1440 H 0.38102 0.56492 0.95918 0.0
H1441 H 0.3935 0.56659 0.98644 0.0
H1442 H 0.44831 0.63342 0.00462 0.0
C1443 C 0.48678 0.61953 0.05232 0.0
C1444 C 0.43691 0.57811 0.02265 0.0
C1445 C 0.50025 0.61817 0.07033 0.0
C1446 C 0.39668 0.57909 0.96308 0.0
C1447 C 0.40394 0.58001 0.97871 0.0
C1448 C 0.4452 0.61785 0.00937 0.0
C1449 C 0.45897 0.59761 0.04686 0.0
C1450 C 0.44951 0.59789 0.03124 0.0
C1451 C 0.42434 0.59793 0.98424 0.0
C1452 C 0.43278 0.59803 0.00059 0.0
H1453 H 0.44608 0.55711 0.08499 0.0
H1454 H 0.42605 0.5621 0.05624 0.0
H1455 H 0.46322 0.63326 0.03097 0.0
H1456 H 0.43946 0.62804 0.95045 0.0
H1457 H 0.45278 0.62924 0.97754 0.0
C1458 C 0.9056 0.44242 0.22677 0.0
C1459 C 0.926 0.47251 0.22527 0.0
C1460 C 0.89559 0.42809 0.20795 0.0
C1461 C 0.90509 0.43942 0.16079 0.0
H1462 H 0.8419 0.39604 0.15779 0.0
C1463 C 0.85359 0.42934 0.10551 0.0
C1464 C 0.83413 0.40933 0.10165 0.0
C1465 C 0.86631 0.43128 0.11897 0.0
C1466 C 0.85972 0.40759 0.15838 0.0
H1467 H 0.93784 0.50663 0.20758 0.0
H1468 H 0.91912 0.48157 0.17852 0.0
H1469 H 0.85996 0.40878 0.18382 0.0
H1470 H 0.81351 0.3752 0.10842 0.0
H1471 H 0.83603 0.37855 0.13203 0.0
H1472 H 0.90499 0.43872 0.13547 0.0
C1473 C 0.91676 0.47307 0.18958 0.0
C1474 C 0.87002 0.41491 0.17332 0.0
C1475 C 0.92738 0.48887 0.20769 0.0
C1476 C 0.82837 0.39089 0.11112 0.0
C1477 C 0.84119 0.39284 0.12468 0.0
C1478 C 0.89497 0.43182 0.1459 0.0
C1479 C 0.90186 0.44327 0.18972 0.0
C1480 C 0.89249 0.43164 0.17455 0.0
C1481 C 0.86003 0.41324 0.12896 0.0
C1482 C 0.87187 0.41673 0.14449 0.0
H1483 H 0.90342 0.43357 0.23765 0.0
H1484 H 0.88564 0.41028 0.20761 0.0
H1485 H 0.92258 0.45209 0.16151 0.0
H1486 H 0.85862 0.44387 0.09844 0.0
H1487 H 0.88043 0.44737 0.12195 0.0
loop_
_geom_bond_atom_site_label_1
_geom_bond_atom_site_label_2
_geom_bond_distance
_geom_bond_site_symmetry_2
_ccdc_geom_bond_type
C0 C1 1.560 . S
C0 H61 0.959 . S
C0 H62 0.959 . S
C0 H63 0.960 . S
C1 C0 1.560 . S
C1 O56 1.426 . S
C1 H60 0.980 . S
C2 C3 1.407 . S
C2 C7 1.418 . S
C2 O56 1.334 . S
C3 C2 1.407 . S
C3 C4 1.360 . S
C3 H64 0.929 . S
C4 C3 1.360 . S
C4 C5 1.401 . S
C4 C8 1.527 . S
C5 C4 1.401 . S
C5 C6 1.405 . S
C5 C38 1.587 . S
C6 C5 1.405 . S
C6 C7 1.332 . S
C6 C9 1.496 . S
C7 C2 1.418 . S
C7 C6 1.332 . S
C7 H65 0.929 . S
C8 C4 1.527 . S
C8 H66 0.959 . S
C8 H67 0.961 . S
C8 H68 0.961 . S
C9 C6 1.496 . S
C9 H69 0.960 . S
C9 H70 0.960 . S
C9 H71 0.961 . S
C10 C11 1.517 . S
C10 H73 0.961 . S
C10 H74 0.960 . S
C10 H75 0.959 . S
C11 C10 1.517 . S
C11 O59 1.468 . S
C11 H72 0.980 . S
C12 C13 1.349 . S
C12 C17 1.367 . S
C12 O59 1.408 . S
C13 C12 1.349 . S
C13 C14 1.407 . S
C13 H76 0.930 . S
C14 C13 1.407 . S
C14 C15 1.449 . S
C14 C18 1.535 . S
C15 C14 1.449 . S
C15 C16 1.384 . S
C15 C40 1.553 1_655 S
C16 C15 1.384 . S
C16 C17 1.364 . S
C16 C19 1.450 . S
C17 C12 1.367 . S
C17 C16 1.364 . S
C17 H77 0.931 . S
C18 C14 1.535 . S
C18 H78 0.959 1_655 S
C18 H79 0.960 1_655 S
C18 H80 0.959 . S
C19 C16 1.450 . S
C19 H81 0.960 . S
C19 H82 0.960 1_655 S
C19 H83 0.960 . S
C20 C21 1.309 . S
C20 C25 1.304 . S
C20 O58 1.435 . S
C21 C20 1.309 . S
C21 C22 1.476 . S
C21 H85 0.930 . S
C22 C21 1.476 . S
C22 C23 1.400 . S
C22 C26 1.567 . S
C23 C22 1.400 . S
C23 C24 1.373 . S
C23 C45 1.432 . S
C24 C23 1.373 . S
C24 C25 1.339 . S
C24 C27 1.530 . S
C25 C20 1.304 . S
C25 C24 1.339 . S
C25 H86 0.930 . S
C26 C22 1.567 . S
C26 H87 0.961 . S
C26 H88 0.960 . S
C26 H89 0.958 . S
C27 C24 1.530 . S
C27 H90 0.961 . S
C27 H91 0.960 . S
C27 H92 0.960 . S
C28 C29 1.530 . S
C28 H94 0.961 . S
C28 H95 0.961 . S
C28 H96 0.959 . S
C29 C28 1.530 . S
C29 O57 1.412 . S
C29 H93 0.980 . S
C30 C31 1.288 . S
C30 C35 1.377 . S
C30 O57 1.393 . S
C31 C30 1.288 . S
C31 C32 1.369 . S
C31 H97 0.932 . S
C32 C31 1.369 . S
C32 C33 1.398 . S
C32 C36 1.527 . S
C33 C32 1.398 . S
C33 C34 1.380 . S
C33 C47 1.497 . S
C34 C33 1.380 . S
C34 C35 1.383 . S
C34 C37 1.603 . S
C35 C30 1.377 . S
C35 C34 1.383 . S
C35 H98 0.929 . S
C36 C32 1.527 . S
C36 H99 0.961 . S
C36 H100 0.936 1_455 S
C36 H101 0.959 . S
C37 C34 1.603 . S
C37 H102 0.960 . S
C37 H103 0.962 . S
C37 H104 0.961 . S
C38 C5 1.587 . S
C38 C39 1.360 . S
C38 C51 1.412 . S
C39 C38 1.360 . S
C39 C40 1.365 . S
C39 H105 0.929 . S
C40 C15 1.553 1_455 S
C40 C39 1.365 . S
C40 C41 1.420 . S
C41 C40 1.420 . S
C41 C42 1.363 1_455 S
C41 C52 1.469 . S
C42 C41 1.363 1_655 S
C42 C43 1.322 . S
C42 H106 0.930 . S
C43 C42 1.322 . S
C43 C44 1.459 . S
C43 H107 0.929 . S
C44 C43 1.459 . S
C44 C45 1.445 . S
C44 C53 1.395 1_655 S
C45 C23 1.432 . S
C45 C44 1.445 . S
C45 C46 1.370 . S
C46 C45 1.370 . S
C46 C47 1.438 1_655 S
C46 H108 0.930 . S
C47 C33 1.497 . S
C47 C46 1.438 1_455 S
C47 C48 1.360 . S
C48 C47 1.360 . S
C48 C49 1.401 . S
C48 C53 1.446 . S
C49 C48 1.401 . S
C49 C50 1.347 . S
C49 H109 0.929 . S
C50 C49 1.347 . S
C50 C51 1.455 . S
C50 H110 0.930 . S
C51 C38 1.412 . S
C51 C50 1.455 . S
C51 C52 1.331 . S
C52 C41 1.469 . S
C52 C51 1.331 . S
C52 C53 1.497 . S
C53 C44 1.395 1_455 S
C53 C48 1.446 . S
C53 C52 1.497 . S
C54 C55 1.582 . S
C54 H111 0.962 . S
C54 H112 0.959 . S
C54 H113 0.958 . S
C55 C54 1.582 . S
C55 O58 1.458 . S
C55 H84 0.980 . S
O56 C1 1.426 . S
O56 C2 1.334 . S
O57 C29 1.412 . S
O57 C30 1.393 . S
O58 C20 1.435 . S
O58 C55 1.458 . S
O59 C11 1.468 . S
O59 C12 1.408 . S
H60 C1 0.980 . S
H61 C0 0.959 . S
H62 C0 0.959 . S
H63 C0 0.960 . S
H64 C3 0.929 . S
H65 C7 0.929 . S
H66 C8 0.959 . S
H67 C8 0.961 . S
H68 C8 0.961 . S
H69 C9 0.960 . S
H70 C9 0.960 . S
H71 C9 0.961 . S
H72 C11 0.980 . S
H73 C10 0.961 . S
H74 C10 0.960 . S
H75 C10 0.959 . S
H76 C13 0.930 . S
H77 C17 0.931 . S
H78 C18 0.959 1_455 S
H79 C18 0.960 1_455 S
H80 C18 0.959 . S
H81 C19 0.960 . S
H82 C19 0.960 1_455 S
H83 C19 0.960 . S
H84 C55 0.980 . S
H85 C21 0.930 . S
H86 C25 0.930 . S
H87 C26 0.961 . S
H88 C26 0.960 . S
H89 C26 0.958 . S
H90 C27 0.961 . S
H91 C27 0.960 . S
H92 C27 0.960 . S
H93 C29 0.980 . S
H94 C28 0.961 . S
H95 C28 0.961 . S
H96 C28 0.959 . S
H97 C31 0.932 . S
H98 C35 0.929 . S
H99 C36 0.961 . S
H100 C36 0.936 1_655 S
H101 C36 0.959 . S
H102 C37 0.960 . S
H103 C37 0.962 . S
H104 C37 0.961 . S
H105 C39 0.929 . S
H106 C42 0.930 . S
H107 C43 0.929 . S
H108 C46 0.930 . S
H109 C49 0.929 . S
H110 C50 0.930 . S
H111 C54 0.962 . S
H112 C54 0.959 . S
H113 C54 0.958 . S
C114 C115 1.560 . S
C114 H175 0.959 . S
C114 H176 0.959 . S
C114 H177 0.960 . S
C115 C114 1.560 . S
C115 O170 1.426 . S
C115 H174 0.980 . S
C116 C117 1.407 . S
C116 C121 1.418 . S
C116 O170 1.334 . S
C117 C116 1.407 . S
C117 C118 1.360 . S
C117 H178 0.929 . S
C118 C117 1.360 . S
C118 C119 1.401 . S
C118 C122 1.527 . S
C119 C118 1.401 . S
C119 C120 1.405 . S
C119 C152 1.587 . S
C120 C119 1.405 . S
C120 C121 1.332 . S
C120 C123 1.496 . S
C121 C116 1.418 . S
C121 C120 1.332 . S
C121 H179 0.929 . S
C122 C118 1.527 . S
C122 H180 0.959 . S
C122 H181 0.961 . S
C122 H182 0.961 . S
C123 C120 1.496 . S
C123 H183 0.960 . S
C123 H184 0.960 . S
C123 H185 0.961 . S
C124 C125 1.517 . S
C124 H187 0.961 . S
C124 H188 0.960 . S
C124 H189 0.959 . S
C125 C124 1.517 . S
C125 O173 1.468 . S
C125 H186 0.980 . S
C126 C127 1.349 . S
C126 C131 1.367 . S
C126 O173 1.408 . S
C127 C126 1.349 . S
C127 C128 1.407 . S
C127 H190 0.930 . S
C128 C127 1.407 . S
C128 C129 1.449 . S
C128 C132 1.535 . S
C129 C128 1.449 . S
C129 C130 1.384 . S
C129 C154 1.553 . S
C130 C129 1.384 . S
C130 C131 1.364 . S
C130 C133 1.450 . S
C131 C126 1.367 . S
C131 C130 1.364 . S
C131 H191 0.931 . S
C132 C128 1.535 . S
C132 H192 0.959 . S
C132 H193 0.961 . S
C132 H194 0.959 . S
C133 C130 1.450 . S
C133 H195 0.960 . S
C133 H196 0.960 . S
C133 H197 0.960 . S
C134 C135 1.309 . S
C134 C139 1.304 . S
C134 O172 1.435 . S
C135 C134 1.309 . S
C135 C136 1.476 . S
C135 H199 0.930 . S
C136 C135 1.476 . S
C136 C137 1.400 . S
C136 C140 1.567 . S
C137 C136 1.400 . S
C137 C138 1.373 . S
C137 C159 1.432 . S
C138 C137 1.373 . S
C138 C139 1.339 . S
C138 C141 1.530 . S
C139 C134 1.304 . S
C139 C138 1.339 . S
C139 H200 0.930 . S
C140 C136 1.567 . S
C140 H201 0.961 . S
C140 H202 0.960 . S
C140 H203 0.958 . S
C141 C138 1.530 . S
C141 H204 0.961 . S
C141 H205 0.960 . S
C141 H206 0.960 . S
C142 C143 1.530 . S
C142 H208 0.961 . S
C142 H209 0.961 . S
C142 H210 0.959 . S
C143 C142 1.530 . S
C143 O171 1.412 . S
C143 H207 0.980 . S
C144 C145 1.288 . S
C144 C149 1.377 . S
C144 O171 1.393 . S
C145 C144 1.288 . S
C145 C146 1.369 . S
C145 H211 0.932 . S
C146 C145 1.369 . S
C146 C147 1.398 . S
C146 C150 1.527 . S
C147 C146 1.398 . S
C147 C148 1.380 . S
C147 C161 1.497 1_565 S
C148 C147 1.380 . S
C148 C149 1.383 . S
C148 C151 1.603 . S
C149 C144 1.377 . S
C149 C148 1.383 . S
C149 H212 0.929 . S
C150 C146 1.527 . S
C150 H213 0.961 . S
C150 H214 0.959 1_565 S
C150 H215 0.959 . S
C151 C148 1.603 . S
C151 H216 0.960 . S
C151 H217 0.962 . S
C151 H218 0.961 . S
C152 C119 1.587 . S
C152 C153 1.360 . S
C152 C165 1.412 . S
C153 C152 1.360 . S
C153 C154 1.365 1_565 S
C153 H219 0.929 . S
C154 C129 1.553 . S
C154 C153 1.365 1_545 S
C154 C155 1.404 . S
C155 C154 1.404 . S
C155 C156 1.395 . S
C155 C166 1.451 1_545 S
C156 C155 1.395 . S
C156 C157 1.322 . S
C156 H220 0.930 . S
C157 C156 1.322 . S
C157 C158 1.459 . S
C157 H221 0.929 . S
C158 C157 1.459 . S
C158 C159 1.445 . S
C158 C167 1.395 . S
C159 C137 1.432 . S
C159 C158 1.445 . S
C159 C160 1.370 . S
C160 C159 1.370 . S
C160 C161 1.438 . S
C160 H222 0.930 . S
C161 C147 1.497 1_545 S
C161 C160 1.438 . S
C161 C162 1.360 1_545 S
C162 C161 1.360 1_565 S
C162 C163 1.401 . S
C162 C167 1.446 1_565 S
C163 C162 1.401 . S
C163 C164 1.347 . S
C163 H223 0.929 . S
C164 C163 1.347 . S
C164 C165 1.455 . S
C164 H224 0.930 . S
C165 C152 1.412 . S
C165 C164 1.455 . S
C165 C166 1.331 . S
C166 C155 1.451 1_565 S
C166 C165 1.331 . S
C166 C167 1.497 1_565 S
C167 C158 1.395 . S
C167 C162 1.446 1_545 S
C167 C166 1.497 1_545 S
C168 C169 1.582 . S
C168 H225 0.962 . S
C168 H226 0.959 . S
C168 H227 0.958 . S
C169 C168 1.582 . S
C169 O172 1.458 . S
C169 H198 0.980 . S
O170 C115 1.426 . S
O170 C116 1.334 . S
O171 C143 1.412 . S
O171 C144 1.393 . S
O172 C134 1.435 . S
O172 C169 1.458 . S
O173 C125 1.468 . S
O173 C126 1.408 . S
H174 C115 0.980 . S
H175 C114 0.959 . S
H176 C114 0.959 . S
H177 C114 0.960 . S
H178 C117 0.929 . S
H179 C121 0.929 . S
H180 C122 0.959 . S
H181 C122 0.961 . S
H182 C122 0.961 . S
H183 C123 0.960 . S
H184 C123 0.960 . S
H185 C123 0.961 . S
H186 C125 0.980 . S
H187 C124 0.961 . S
H188 C124 0.960 . S
H189 C124 0.959 . S
H190 C127 0.930 . S
H191 C131 0.931 . S
H192 C132 0.959 . S
H193 C132 0.961 . S
H194 C132 0.959 . S
H195 C133 0.960 . S
H196 C133 0.960 . S
H197 C133 0.960 . S
H198 C169 0.980 . S
H199 C135 0.930 . S
H200 C139 0.930 . S
H201 C140 0.961 . S
H202 C140 0.960 . S
H203 C140 0.958 . S
H204 C141 0.961 . S
H205 C141 0.960 . S
H206 C141 0.960 . S
H207 C143 0.980 . S
H208 C142 0.961 . S
H209 C142 0.961 . S
H210 C142 0.959 . S
H211 C145 0.932 . S
H212 C149 0.929 . S
H213 C150 0.961 . S
H214 C150 0.959 1_545 S
H215 C150 0.959 . S
H216 C151 0.960 . S
H217 C151 0.962 . S
H218 C151 0.961 . S
H219 C153 0.929 . S
H220 C156 0.930 . S
H221 C157 0.929 . S
H222 C160 0.930 . S
H223 C163 0.929 . S
H224 C164 0.930 . S
H225 C168 0.962 . S
H226 C168 0.959 . S
H227 C168 0.958 . S
C228 C229 1.560 . S
C228 H289 0.959 . S
C228 H290 0.959 . S
C228 H291 0.960 . S
C229 C228 1.560 . S
C229 O284 1.426 . S
C229 H288 0.980 . S
C230 C231 1.407 . S
C230 C235 1.418 . S
C230 O284 1.334 . S
C231 C230 1.407 . S
C231 C232 1.360 . S
C231 H292 0.929 . S
C232 C231 1.360 . S
C232 C233 1.401 . S
C232 C236 1.527 . S
C233 C232 1.401 . S
C233 C234 1.405 . S
C233 C266 1.587 . S
C234 C233 1.405 . S
C234 C235 1.332 . S
C234 C237 1.496 . S
C235 C230 1.418 . S
C235 C234 1.332 . S
C235 H293 0.929 . S
C236 C232 1.527 . S
C236 H294 0.959 . S
C236 H295 0.961 . S
C236 H296 0.961 . S
C237 C234 1.496 . S
C237 H297 0.960 . S
C237 H298 0.960 . S
C237 H299 0.961 . S
C238 C239 1.517 . S
C238 H301 0.961 . S
C238 H302 0.960 . S
C238 H303 0.959 . S
C239 C238 1.517 . S
C239 O287 1.468 . S
C239 H300 0.980 . S
C240 C241 1.349 . S
C240 C245 1.367 . S
C240 O287 1.408 . S
C241 C240 1.349 . S
C241 C242 1.407 . S
C241 H304 0.930 . S
C242 C241 1.407 . S
C242 C243 1.449 . S
C242 C246 1.535 . S
C243 C242 1.449 . S
C243 C244 1.384 . S
C243 C268 1.553 . S
C244 C243 1.384 . S
C244 C245 1.364 . S
C244 C247 1.450 . S
C245 C240 1.367 . S
C245 C244 1.364 . S
C245 H305 0.931 . S
C246 C242 1.535 . S
C246 H306 0.959 . S
C246 H307 0.961 . S
C246 H308 0.959 . S
C247 C244 1.450 . S
C247 H309 0.960 . S
C247 H310 0.960 . S
C247 H311 0.960 . S
C248 C249 1.309 . S
C248 C253 1.304 . S
C248 O286 1.435 . S
C249 C248 1.309 . S
C249 C250 1.476 . S
C249 H313 0.930 . S
C250 C249 1.476 . S
C250 C251 1.400 . S
C250 C254 1.567 . S
C251 C250 1.400 . S
C251 C252 1.373 . S
C251 C273 1.432 . S
C252 C251 1.373 . S
C252 C253 1.339 . S
C252 C255 1.530 . S
C253 C248 1.304 . S
C253 C252 1.339 . S
C253 H314 0.930 . S
C254 C250 1.567 . S
C254 H315 0.961 . S
C254 H316 0.960 . S
C254 H317 0.958 . S
C255 C252 1.530 . S
C255 H318 0.961 . S
C255 H319 0.960 . S
C255 H320 0.960 . S
C256 C257 1.530 . S
C256 H322 0.961 . S
C256 H323 0.961 . S
C256 H324 0.959 . S
C257 C256 1.530 . S
C257 O285 1.412 . S
C257 H321 0.980 . S
C258 C259 1.288 . S
C258 C263 1.377 . S
C258 O285 1.393 . S
C259 C258 1.288 . S
C259 C260 1.369 . S
C259 H325 0.932 . S
C260 C259 1.369 . S
C260 C261 1.398 . S
C260 C264 1.527 . S
C261 C260 1.398 . S
C261 C262 1.380 . S
C261 C275 1.497 . S
C262 C261 1.380 . S
C262 C263 1.383 . S
C262 C265 1.603 . S
C263 C258 1.377 . S
C263 C262 1.383 . S
C263 H326 0.929 . S
C264 C260 1.527 . S
C264 H327 0.961 . S
C264 H328 0.959 . S
C264 H329 0.959 . S
C265 C262 1.603 . S
C265 H330 0.960 . S
C265 H331 0.962 . S
C265 H332 0.961 . S
C266 C233 1.587 . S
C266 C267 1.360 . S
C266 C279 1.412 . S
C267 C266 1.360 . S
C267 C268 1.365 . S
C267 H333 0.929 . S
C268 C243 1.553 . S
C268 C267 1.365 . S
C268 C269 1.404 . S
C269 C268 1.404 . S
C269 C270 1.395 . S
C269 C280 1.451 . S
C270 C269 1.395 . S
C270 C271 1.322 . S
C270 H334 0.930 . S
C271 C270 1.322 . S
C271 C272 1.459 . S
C271 H335 0.929 . S
C272 C271 1.459 . S
C272 C273 1.445 . S
C272 C281 1.395 . S
C273 C251 1.432 . S
C273 C272 1.445 . S
C273 C274 1.370 . S
C274 C273 1.370 . S
C274 C275 1.438 . S
C274 H336 0.930 . S
C275 C261 1.497 . S
C275 C274 1.438 . S
C275 C276 1.360 . S
C276 C275 1.360 . S
C276 C277 1.401 . S
C276 C281 1.446 . S
C277 C276 1.401 . S
C277 C278 1.347 . S
C277 H337 0.929 . S
C278 C277 1.347 . S
C278 C279 1.455 . S
C278 H338 0.930 . S
C279 C266 1.412 . S
C279 C278 1.455 . S
C279 C280 1.331 . S
C280 C269 1.451 . S
C280 C279 1.331 . S
C280 C281 1.497 . S
C281 C272 1.395 . S
C281 C276 1.446 . S
C281 C280 1.497 . S
C282 C283 1.582 . S
C282 H339 0.962 . S
C282 H340 0.959 . S
C282 H341 0.958 . S
C283 C282 1.582 . S
C283 O286 1.458 . S
C283 H312 0.980 . S
O284 C229 1.426 . S
O284 C230 1.334 . S
O285 C257 1.412 . S
O285 C258 1.393 . S
O286 C248 1.435 . S
O286 C283 1.458 . S
O287 C239 1.468 . S
O287 C240 1.408 . S
H288 C229 0.980 . S
H289 C228 0.959 . S
H290 C228 0.959 . S
H291 C228 0.960 . S
H292 C231 0.929 . S
H293 C235 0.929 . S
H294 C236 0.959 . S
H295 C236 0.961 . S
H296 C236 0.961 . S
H297 C237 0.960 . S
H298 C237 0.960 . S
H299 C237 0.961 . S
H300 C239 0.980 . S
H301 C238 0.961 . S
H302 C238 0.960 . S
H303 C238 0.959 . S
H304 C241 0.930 . S
H305 C245 0.931 . S
H306 C246 0.959 . S
H307 C246 0.961 . S
H308 C246 0.959 . S
H309 C247 0.960 . S
H310 C247 0.960 . S
H311 C247 0.960 . S
H312 C283 0.980 . S
H313 C249 0.930 . S
H314 C253 0.930 . S
H315 C254 0.961 . S
H316 C254 0.960 . S
H317 C254 0.958 . S
H318 C255 0.961 . S
H319 C255 0.960 . S
H320 C255 0.960 . S
H321 C257 0.980 . S
H322 C256 0.961 . S
H323 C256 0.961 . S
H324 C256 0.959 . S
H325 C259 0.932 . S
H326 C263 0.929 . S
H327 C264 0.961 . S
H328 C264 0.959 . S
H329 C264 0.959 . S
H330 C265 0.960 . S
H331 C265 0.962 . S
H332 C265 0.961 . S
H333 C267 0.929 . S
H334 C270 0.930 . S
H335 C271 0.929 . S
H336 C274 0.930 . S
H337 C277 0.929 . S
H338 C278 0.930 . S
H339 C282 0.962 . S
H340 C282 0.959 . S
H341 C282 0.958 . S
C342 C343 1.560 . S
C342 H403 0.959 . S
C342 H404 0.959 . S
C342 H405 0.960 . S
C343 C342 1.560 . S
C343 O398 1.426 . S
C343 H402 0.980 . S
C344 C345 1.407 . S
C344 C349 1.418 . S
C344 O398 1.334 . S
C345 C344 1.407 . S
C345 C346 1.360 . S
C345 H406 0.929 . S
C346 C345 1.360 . S
C346 C347 1.401 . S
C346 C350 1.527 . S
C347 C346 1.401 . S
C347 C348 1.405 . S
C347 C380 1.587 . S
C348 C347 1.405 . S
C348 C349 1.332 . S
C348 C351 1.496 . S
C349 C344 1.418 . S
C349 C348 1.332 . S
C349 H407 0.929 . S
C350 C346 1.527 . S
C350 H408 0.959 . S
C350 H409 0.961 . S
C350 H410 0.961 . S
C351 C348 1.496 . S
C351 H411 0.960 . S
C351 H412 0.960 . S
C351 H413 0.961 . S
C352 C353 1.517 . S
C352 H415 0.961 . S
C352 H416 0.960 . S
C352 H417 0.959 . S
C353 C352 1.517 . S
C353 O401 1.468 . S
C353 H414 0.980 . S
C354 C355 1.349 . S
C354 C359 1.367 . S
C354 O401 1.408 . S
C355 C354 1.349 . S
C355 C356 1.407 . S
C355 H418 0.930 . S
C356 C355 1.407 . S
C356 C357 1.446 . S
C356 C360 1.493 1_655 S
C357 C356 1.446 . S
C357 C358 1.397 . S
C357 C382 1.544 1_655 S
C358 C357 1.397 . S
C358 C359 1.364 . S
C358 C361 1.445 . S
C359 C354 1.367 . S
C359 C358 1.364 . S
C359 H419 0.931 . S
C360 C356 1.493 1_455 S
C360 H420 0.996 . S
C360 H421 0.994 . S
C360 H422 0.936 1_455 S
C361 C358 1.445 . S
C361 H423 0.993 . S
C361 H424 0.913 1_655 S
C361 H425 0.982 . S
C362 C363 1.309 . S
C362 C367 1.304 . S
C362 O400 1.435 . S
C363 C362 1.309 . S
C363 C364 1.476 . S
C363 H427 0.930 . S
C364 C363 1.476 . S
C364 C365 1.400 . S
C364 C368 1.567 . S
C365 C364 1.400 . S
C365 C366 1.373 . S
C365 C387 1.432 . S
C366 C365 1.373 . S
C366 C367 1.339 . S
C366 C369 1.530 . S
C367 C362 1.304 . S
C367 C366 1.339 . S
C367 H428 0.930 . S
C368 C364 1.567 . S
C368 H429 0.961 . S
C368 H430 0.960 . S
C368 H431 0.958 . S
C369 C366 1.530 . S
C369 H432 0.961 . S
C369 H433 0.960 . S
C369 H434 0.960 . S
C370 C371 1.530 . S
C370 H436 0.961 . S
C370 H437 0.961 . S
C370 H438 0.959 . S
C371 C370 1.530 . S
C371 O399 1.412 . S
C371 H435 0.980 . S
C372 C373 1.288 . S
C372 C377 1.377 . S
C372 O399 1.393 . S
C373 C372 1.288 . S
C373 C374 1.369 . S
C373 H439 0.932 . S
C374 C373 1.369 . S
C374 C375 1.398 . S
C374 C378 1.527 . S
C375 C374 1.398 . S
C375 C376 1.380 . S
C375 C389 1.497 . S
C376 C375 1.380 . S
C376 C377 1.383 . S
C376 C379 1.603 . S
C377 C372 1.377 . S
C377 C376 1.383 . S
C377 H440 0.929 . S
C378 C374 1.527 . S
C378 H441 0.961 . S
C378 H442 0.959 . S
C378 H443 0.959 . S
C379 C376 1.603 . S
C379 H444 0.960 . S
C379 H445 0.962 . S
C379 H446 0.961 . S
C380 C347 1.587 . S
C380 C381 1.360 . S
C380 C393 1.412 . S
C381 C380 1.360 . S
C381 C382 1.365 . S
C381 H447 0.929 . S
C382 C357 1.544 1_455 S
C382 C381 1.365 . S
C382 C383 1.404 . S
C383 C382 1.404 . S
C383 C384 1.395 1_455 S
C383 C394 1.451 . S
C384 C383 1.395 1_655 S
C384 C385 1.322 . S
C384 H448 0.930 . S
C385 C384 1.322 . S
C385 C386 1.459 . S
C385 H449 0.929 . S
C386 C385 1.459 . S
C386 C387 1.445 . S
C386 C395 1.395 1_655 S
C387 C365 1.432 . S
C387 C386 1.445 . S
C387 C388 1.370 . S
C388 C387 1.370 . S
C388 C389 1.438 1_655 S
C388 H450 0.930 . S
C389 C375 1.497 . S
C389 C388 1.438 1_455 S
C389 C390 1.360 . S
C390 C389 1.360 . S
C390 C391 1.401 . S
C390 C395 1.446 . S
C391 C390 1.401 . S
C391 C392 1.347 . S
C391 H451 0.929 . S
C392 C391 1.347 . S
C392 C393 1.455 . S
C392 H452 0.930 . S
C393 C380 1.412 . S
C393 C392 1.455 . S
C393 C394 1.331 . S
C394 C383 1.451 . S
C394 C393 1.331 . S
C394 C395 1.497 . S
C395 C386 1.395 1_455 S
C395 C390 1.446 . S
C395 C394 1.497 . S
C396 C397 1.582 . S
C396 H453 0.962 . S
C396 H454 0.959 . S
C396 H455 0.958 . S
C397 C396 1.582 . S
C397 O400 1.458 . S
C397 H426 0.980 . S
O398 C343 1.426 . S
O398 C344 1.334 . S
O399 C371 1.412 . S
O399 C372 1.393 . S
O400 C362 1.435 . S
O400 C397 1.458 . S
O401 C353 1.468 . S
O401 C354 1.408 . S
H402 C343 0.980 . S
H403 C342 0.959 . S
H404 C342 0.959 . S
H405 C342 0.960 . S
H406 C345 0.929 . S
H407 C349 0.929 . S
H408 C350 0.959 . S
H409 C350 0.961 . S
H410 C350 0.961 . S
H411 C351 0.960 . S
H412 C351 0.960 . S
H413 C351 0.961 . S
H414 C353 0.980 . S
H415 C352 0.961 . S
H416 C352 0.960 . S
H417 C352 0.959 . S
H418 C355 0.930 . S
H419 C359 0.931 . S
H420 C360 0.996 . S
H421 C360 0.994 . S
H422 C360 0.936 1_655 S
H423 C361 0.993 . S
H424 C361 0.913 1_455 S
H425 C361 0.982 . S
H426 C397 0.980 . S
H427 C363 0.930 . S
H428 C367 0.930 . S
H429 C368 0.961 . S
H430 C368 0.960 . S
H431 C368 0.958 . S
H432 C369 0.961 . S
H433 C369 0.960 . S
H434 C369 0.960 . S
H435 C371 0.980 . S
H436 C370 0.961 . S
H437 C370 0.961 . S
H438 C370 0.959 . S
H439 C373 0.932 . S
H440 C377 0.929 . S
H441 C378 0.961 . S
H442 C378 0.959 . S
H443 C378 0.959 . S
H444 C379 0.960 . S
H445 C379 0.962 . S
H446 C379 0.961 . S
H447 C381 0.929 . S
H448 C384 0.930 . S
H449 C385 0.929 . S
H450 C388 0.930 . S
H451 C391 0.929 . S
H452 C392 0.930 . S
H453 C396 0.962 . S
H454 C396 0.959 . S
H455 C396 0.958 . S
C456 C457 1.560 . S
C456 H517 0.959 . S
C456 H518 0.959 . S
C456 H519 0.960 . S
C457 C456 1.560 . S
C457 O512 1.426 . S
C457 H516 0.980 . S
C458 C459 1.407 . S
C458 C463 1.418 . S
C458 O512 1.334 . S
C459 C458 1.407 . S
C459 C460 1.360 . S
C459 H520 0.929 . S
C460 C459 1.360 . S
C460 C461 1.401 . S
C460 C464 1.527 . S
C461 C460 1.401 . S
C461 C462 1.405 . S
C461 C494 1.587 . S
C462 C461 1.405 . S
C462 C463 1.332 . S
C462 C465 1.496 . S
C463 C458 1.418 . S
C463 C462 1.332 . S
C463 H521 0.929 . S
C464 C460 1.527 . S
C464 H522 0.959 . S
C464 H523 0.961 . S
C464 H524 0.961 . S
C465 C462 1.496 . S
C465 H525 0.960 . S
C465 H526 0.960 . S
C465 H527 0.961 . S
C466 C467 1.517 . S
C466 H529 0.961 . S
C466 H530 0.960 . S
C466 H531 0.959 . S
C467 C466 1.517 . S
C467 O515 1.468 . S
C467 H528 0.980 . S
C468 C469 1.349 . S
C468 C473 1.367 . S
C468 O515 1.408 . S
C469 C468 1.349 . S
C469 C470 1.407 . S
C469 H532 0.930 . S
C470 C469 1.407 . S
C470 C471 1.449 . S
C470 C474 1.535 . S
C471 C470 1.449 . S
C471 C472 1.384 . S
C471 C496 1.553 . S
C472 C471 1.384 . S
C472 C473 1.364 . S
C472 C475 1.450 . S
C473 C468 1.367 . S
C473 C472 1.364 . S
C473 H533 0.931 . S
C474 C470 1.535 . S
C474 H534 0.959 . S
C474 H535 0.961 . S
C474 H536 0.959 . S
C475 C472 1.450 . S
C475 H537 0.960 . S
C475 H538 0.960 . S
C475 H539 0.960 . S
C476 C477 1.309 . S
C476 C481 1.304 . S
C476 O514 1.435 . S
C477 C476 1.309 . S
C477 C478 1.476 . S
C477 H541 0.930 . S
C478 C477 1.476 . S
C478 C479 1.400 . S
C478 C482 1.567 . S
C479 C478 1.400 . S
C479 C480 1.373 . S
C479 C501 1.432 . S
C480 C479 1.373 . S
C480 C481 1.339 . S
C480 C483 1.530 . S
C481 C476 1.304 . S
C481 C480 1.339 . S
C481 H542 0.930 . S
C482 C478 1.567 . S
C482 H543 0.961 . S
C482 H544 0.960 . S
C482 H545 0.958 . S
C483 C480 1.530 . S
C483 H546 0.961 . S
C483 H547 0.960 . S
C483 H548 0.960 . S
C484 C485 1.530 . S
C484 H550 0.961 . S
C484 H551 0.961 . S
C484 H552 0.959 . S
C485 C484 1.530 . S
C485 O513 1.412 . S
C485 H549 0.980 . S
C486 C487 1.288 . S
C486 C491 1.377 . S
C486 O513 1.393 . S
C487 C486 1.288 . S
C487 C488 1.369 . S
C487 H553 0.932 . S
C488 C487 1.369 . S
C488 C489 1.398 . S
C488 C492 1.527 1_565 S
C489 C488 1.398 . S
C489 C490 1.380 . S
C489 C503 1.497 1_565 S
C490 C489 1.380 . S
C490 C491 1.383 . S
C490 C493 1.603 . S
C491 C486 1.377 . S
C491 C490 1.383 . S
C491 H554 0.929 . S
C492 C488 1.527 1_545 S
C492 H555 0.961 . S
C492 H556 0.959 . S
C492 H557 0.959 1_545 S
C493 C490 1.603 . S
C493 H558 0.960 . S
C493 H559 0.962 . S
C493 H560 0.961 . S
C494 C461 1.587 . S
C494 C495 1.360 . S
C494 C507 1.412 . S
C495 C494 1.360 . S
C495 C496 1.365 1_565 S
C495 H561 0.929 . S
C496 C471 1.553 . S
C496 C495 1.365 1_545 S
C496 C497 1.404 . S
C497 C496 1.404 . S
C497 C498 1.395 . S
C497 C508 1.451 . S
C498 C497 1.395 . S
C498 C499 1.322 . S
C498 H562 0.930 . S
C499 C498 1.322 . S
C499 C500 1.459 . S
C499 H563 0.929 . S
C500 C499 1.459 . S
C500 C501 1.445 1_556 S
C500 C509 1.395 . S
C501 C479 1.432 . S
C501 C500 1.445 1_554 S
C501 C502 1.370 . S
C502 C501 1.370 . S
C502 C503 1.438 . S
C502 H564 0.930 . S
C503 C489 1.497 1_545 S
C503 C502 1.438 . S
C503 C504 1.360 1_545 S
C504 C503 1.360 1_565 S
C504 C505 1.401 . S
C504 C509 1.446 1_564 S
C505 C504 1.401 . S
C505 C506 1.347 1_554 S
C505 H565 0.929 . S
C506 C505 1.347 1_556 S
C506 C507 1.455 . S
C506 H566 0.930 . S
C507 C494 1.412 . S
C507 C506 1.455 . S
C507 C508 1.331 1_565 S
C508 C497 1.451 . S
C508 C507 1.331 1_545 S
C508 C509 1.497 . S
C509 C500 1.395 . S
C509 C504 1.446 1_546 S
C509 C508 1.497 . S
C510 C511 1.582 . S
C510 H567 0.962 . S
C510 H568 0.959 . S
C510 H569 0.958 . S
C511 C510 1.582 . S
C511 O514 1.458 . S
C511 H540 0.980 . S
O512 C457 1.426 . S
O512 C458 1.334 . S
O513 C485 1.412 . S
O513 C486 1.393 . S
O514 C476 1.435 . S
O514 C511 1.458 . S
O515 C467 1.468 . S
O515 C468 1.408 . S
H516 C457 0.980 . S
H517 C456 0.959 . S
H518 C456 0.959 . S
H519 C456 0.960 . S
H520 C459 0.929 . S
H521 C463 0.929 . S
H522 C464 0.959 . S
H523 C464 0.961 . S
H524 C464 0.961 . S
H525 C465 0.960 . S
H526 C465 0.960 . S
H527 C465 0.961 . S
H528 C467 0.980 . S
H529 C466 0.961 . S
H530 C466 0.960 . S
H531 C466 0.959 . S
H532 C469 0.930 . S
H533 C473 0.931 . S
H534 C474 0.959 . S
H535 C474 0.961 . S
H536 C474 0.959 . S
H537 C475 0.960 . S
H538 C475 0.960 . S
H539 C475 0.960 . S
H540 C511 0.980 . S
H541 C477 0.930 . S
H542 C481 0.930 . S
H543 C482 0.961 . S
H544 C482 0.960 . S
H545 C482 0.958 . S
H546 C483 0.961 . S
H547 C483 0.960 . S
H548 C483 0.960 . S
H549 C485 0.980 . S
H550 C484 0.961 . S
H551 C484 0.961 . S
H552 C484 0.959 . S
H553 C487 0.932 . S
H554 C491 0.929 . S
H555 C492 0.961 . S
H556 C492 0.959 . S
H557 C492 0.959 1_565 S
H558 C493 0.960 . S
H559 C493 0.962 . S
H560 C493 0.961 . S
H561 C495 0.929 . S
H562 C498 0.930 . S
H563 C499 0.929 . S
H564 C502 0.930 . S
H565 C505 0.929 . S
H566 C506 0.930 . S
H567 C510 0.962 . S
H568 C510 0.959 . S
H569 C510 0.958 . S
C570 C571 1.560 . S
C570 H631 0.959 . S
C570 H632 0.959 . S
C570 H633 0.960 . S
C571 C570 1.560 . S
C571 O626 1.426 . S
C571 H630 0.980 . S
C572 C573 1.407 . S
C572 C577 1.418 . S
C572 O626 1.334 . S
C573 C572 1.407 . S
C573 C574 1.360 . S
C573 H634 0.929 . S
C574 C573 1.360 . S
C574 C575 1.401 . S
C574 C578 1.527 . S
C575 C574 1.401 . S
C575 C576 1.405 . S
C575 C608 1.587 . S
C576 C575 1.405 . S
C576 C577 1.332 . S
C576 C579 1.496 . S
C577 C572 1.418 . S
C577 C576 1.332 . S
C577 H635 0.929 . S
C578 C574 1.527 . S
C578 H636 0.959 . S
C578 H637 0.961 . S
C578 H638 0.961 . S
C579 C576 1.496 . S
C579 H639 0.960 . S
C579 H640 0.960 . S
C579 H641 0.961 . S
C580 C581 1.517 . S
C580 H643 0.961 . S
C580 H644 0.960 . S
C580 H645 0.959 . S
C581 C580 1.517 . S
C581 O629 1.468 . S
C581 H642 0.980 . S
C582 C583 1.349 . S
C582 C587 1.367 . S
C582 O629 1.408 . S
C583 C582 1.349 . S
C583 C584 1.407 . S
C583 H646 0.930 . S
C584 C583 1.407 . S
C584 C585 1.449 . S
C584 C588 1.535 . S
C585 C584 1.449 . S
C585 C586 1.384 . S
C585 C610 1.553 . S
C586 C585 1.384 . S
C586 C587 1.364 . S
C586 C589 1.450 . S
C587 C582 1.367 . S
C587 C586 1.364 . S
C587 H647 0.931 . S
C588 C584 1.535 . S
C588 H648 0.959 . S
C588 H649 0.961 . S
C588 H650 0.959 . S
C589 C586 1.450 . S
C589 H651 0.960 . S
C589 H652 0.960 . S
C589 H653 0.960 . S
C590 C591 1.309 . S
C590 C595 1.304 . S
C590 O628 1.435 . S
C591 C590 1.309 . S
C591 C592 1.476 . S
C591 H655 0.930 . S
C592 C591 1.476 . S
C592 C593 1.400 . S
C592 C596 1.567 . S
C593 C592 1.400 . S
C593 C594 1.373 . S
C593 C615 1.432 . S
C594 C593 1.373 . S
C594 C595 1.339 . S
C594 C597 1.530 . S
C595 C590 1.304 . S
C595 C594 1.339 . S
C595 H656 0.930 . S
C596 C592 1.567 . S
C596 H657 0.961 . S
C596 H658 0.960 . S
C596 H659 0.958 . S
C597 C594 1.530 . S
C597 H660 0.961 . S
C597 H661 0.960 . S
C597 H662 0.960 . S
C598 C599 1.530 . S
C598 H664 0.961 . S
C598 H665 0.961 . S
C598 H666 0.959 . S
C599 C598 1.530 . S
C599 O627 1.412 . S
C599 H663 0.980 . S
C600 C601 1.288 . S
C600 C605 1.377 . S
C600 O627 1.393 . S
C601 C600 1.288 . S
C601 C602 1.369 . S
C601 H667 0.932 . S
C602 C601 1.369 . S
C602 C603 1.398 . S
C602 C606 1.527 . S
C603 C602 1.398 . S
C603 C604 1.380 . S
C603 C617 1.497 . S
C604 C603 1.380 . S
C604 C605 1.383 . S
C604 C607 1.603 . S
C605 C600 1.377 . S
C605 C604 1.383 . S
C605 H668 0.929 . S
C606 C602 1.527 . S
C606 H669 0.961 . S
C606 H670 0.959 . S
C606 H671 0.959 . S
C607 C604 1.603 . S
C607 H672 0.960 . S
C607 H673 0.962 . S
C607 H674 0.961 . S
C608 C575 1.587 . S
C608 C609 1.360 . S
C608 C621 1.412 . S
C609 C608 1.360 . S
C609 C610 1.365 . S
C609 H675 0.929 . S
C610 C585 1.553 . S
C610 C609 1.365 . S
C610 C611 1.404 . S
C611 C610 1.404 . S
C611 C612 1.395 . S
C611 C622 1.451 . S
C612 C611 1.395 . S
C612 C613 1.322 . S
C612 H676 0.930 . S
C613 C612 1.322 . S
C613 C614 1.459 . S
C613 H677 0.929 . S
C614 C613 1.459 . S
C614 C615 1.445 . S
C614 C623 1.395 . S
C615 C593 1.432 . S
C615 C614 1.445 . S
C615 C616 1.370 . S
C616 C615 1.370 . S
C616 C617 1.438 . S
C616 H678 0.930 . S
C617 C603 1.497 . S
C617 C616 1.438 . S
C617 C618 1.360 . S
C618 C617 1.360 . S
C618 C619 1.401 . S
C618 C623 1.446 . S
C619 C618 1.401 . S
C619 C620 1.347 . S
C619 H679 0.929 . S
C620 C619 1.347 . S
C620 C621 1.455 . S
C620 H680 0.930 . S
C621 C608 1.412 . S
C621 C620 1.455 . S
C621 C622 1.331 . S
C622 C611 1.451 . S
C622 C621 1.331 . S
C622 C623 1.497 . S
C623 C614 1.395 . S
C623 C618 1.446 . S
C623 C622 1.497 . S
C624 C625 1.582 . S
C624 H681 0.962 . S
C624 H682 0.959 . S
C624 H683 0.958 . S
C625 C624 1.582 . S
C625 O628 1.458 . S
C625 H654 0.980 . S
O626 C571 1.426 . S
O626 C572 1.334 . S
O627 C599 1.412 . S
O627 C600 1.393 . S
O628 C590 1.435 . S
O628 C625 1.458 . S
O629 C581 1.468 . S
O629 C582 1.408 . S
H630 C571 0.980 . S
H631 C570 0.959 . S
H632 C570 0.959 . S
H633 C570 0.960 . S
H634 C573 0.929 . S
H635 C577 0.929 . S
H636 C578 0.959 . S
H637 C578 0.961 . S
H638 C578 0.961 . S
H639 C579 0.960 . S
H640 C579 0.960 . S
H641 C579 0.961 . S
H642 C581 0.980 . S
H643 C580 0.961 . S
H644 C580 0.960 . S
H645 C580 0.959 . S
H646 C583 0.930 . S
H647 C587 0.931 . S
H648 C588 0.959 . S
H649 C588 0.961 . S
H650 C588 0.959 . S
H651 C589 0.960 . S
H652 C589 0.960 . S
H653 C589 0.960 . S
H654 C625 0.980 . S
H655 C591 0.930 . S
H656 C595 0.930 . S
H657 C596 0.961 . S
H658 C596 0.960 . S
H659 C596 0.958 . S
H660 C597 0.961 . S
H661 C597 0.960 . S
H662 C597 0.960 . S
H663 C599 0.980 . S
H664 C598 0.961 . S
H665 C598 0.961 . S
H666 C598 0.959 . S
H667 C601 0.932 . S
H668 C605 0.929 . S
H669 C606 0.961 . S
H670 C606 0.959 . S
H671 C606 0.959 . S
H672 C607 0.960 . S
H673 C607 0.962 . S
H674 C607 0.961 . S
H675 C609 0.929 . S
H676 C612 0.930 . S
H677 C613 0.929 . S
H678 C616 0.930 . S
H679 C619 0.929 . S
H680 C620 0.930 . S
H681 C624 0.962 . S
H682 C624 0.959 . S
H683 C624 0.958 . S
Zn684 O687 2.031 . S
Zn684 O689 2.049 . S
Zn684 O694 2.067 . S
Zn685 O686 1.962 . S
Zn685 O688 1.986 . S
Zn685 O690 1.996 . S
Zn685 O693 1.943 . S
O686 Zn685 1.962 . S
O686 C691 1.254 . S
O687 Zn684 2.031 . S
O687 C691 1.269 . S
O688 Zn685 1.986 . S
O688 C695 1.262 . S
O689 Zn684 2.049 . S
O689 C697 1.260 . S
O690 Zn685 1.996 . S
O690 C697 1.257 . S
C691 O686 1.254 . S
C691 O687 1.269 . S
C692 O693 1.249 . S
C692 O694 1.270 . S
O693 Zn685 1.943 . S
O693 C692 1.249 . S
O694 Zn684 2.067 . S
O694 C692 1.270 . S
C695 O688 1.262 . S
C695 O696 1.232 . S
O696 C695 1.232 . S
C697 O689 1.260 . S
C697 O690 1.257 . S
Zn698 O701 2.031 . S
Zn698 O703 2.049 . S
Zn698 O708 2.067 . S
Zn699 O700 1.962 . S
Zn699 O702 1.986 . S
Zn699 O704 1.996 . S
Zn699 O707 1.943 . S
O700 Zn699 1.962 . S
O700 C705 1.254 . S
O701 Zn698 2.031 . S
O701 C705 1.269 . S
O702 Zn699 1.986 . S
O702 C709 1.262 . S
O703 Zn698 2.049 . S
O703 C711 1.260 . S
O704 Zn699 1.996 . S
O704 C711 1.257 . S
C705 O700 1.254 . S
C705 O701 1.269 . S
C706 O707 1.249 . S
C706 O708 1.270 . S
O707 Zn699 1.943 . S
O707 C706 1.249 . S
O708 Zn698 2.067 . S
O708 C706 1.270 . S
C709 O702 1.262 . S
C709 O710 1.232 . S
O710 C709 1.232 . S
C711 O703 1.260 . S
C711 O704 1.257 . S
Zn712 O715 2.031 . S
Zn712 O717 2.049 . S
Zn712 O722 2.067 . S
Zn713 O714 1.962 . S
Zn713 O716 1.986 . S
Zn713 O718 1.996 . S
Zn713 O721 1.943 . S
O714 Zn713 1.962 . S
O714 C719 1.254 . S
O715 Zn712 2.031 . S
O715 C719 1.269 . S
O716 Zn713 1.986 . S
O716 C723 1.262 . S
O717 Zn712 2.049 . S
O717 C725 1.260 . S
O718 Zn713 1.996 . S
O718 C725 1.257 . S
C719 O714 1.254 . S
C719 O715 1.269 . S
C720 O721 1.249 . S
C720 O722 1.270 . S
O721 Zn713 1.943 . S
O721 C720 1.249 . S
O722 Zn712 2.067 . S
O722 C720 1.270 . S
C723 O716 1.262 . S
C723 O724 1.232 . S
O724 C723 1.232 . S
C725 O717 1.260 . S
C725 O718 1.257 . S
Zn726 O729 2.031 . S
Zn726 O731 2.049 . S
Zn726 O736 2.067 . S
Zn727 O728 1.962 . S
Zn727 O730 1.986 . S
Zn727 O732 1.996 . S
Zn727 O735 1.943 . S
O728 Zn727 1.962 . S
O728 C733 1.254 . S
O729 Zn726 2.031 . S
O729 C733 1.269 . S
O730 Zn727 1.986 . S
O730 C737 1.262 . S
O731 Zn726 2.049 . S
O731 C739 1.260 . S
O732 Zn727 1.996 . S
O732 C739 1.257 . S
C733 O728 1.254 . S
C733 O729 1.269 . S
C734 O735 1.249 . S
C734 O736 1.270 . S
O735 Zn727 1.943 . S
O735 C734 1.249 . S
O736 Zn726 2.067 . S
O736 C734 1.270 . S
C737 O730 1.262 . S
C737 O738 1.232 . S
O738 C737 1.232 . S
C739 O731 1.260 . S
C739 O732 1.257 . S
Zn740 O743 2.031 . S
Zn740 O745 2.049 . S
Zn740 O750 2.067 . S
Zn741 O742 1.962 . S
Zn741 O744 1.986 . S
Zn741 O746 1.996 . S
Zn741 O749 1.943 . S
O742 Zn741 1.962 . S
O742 C747 1.254 . S
O743 Zn740 2.031 . S
O743 C747 1.269 . S
O744 Zn741 1.986 . S
O744 C751 1.262 . S
O745 Zn740 2.049 . S
O745 C753 1.260 . S
O746 Zn741 1.996 . S
O746 C753 1.257 . S
C747 O742 1.254 . S
C747 O743 1.269 . S
C748 O749 1.249 . S
C748 O750 1.270 . S
O749 Zn741 1.943 . S
O749 C748 1.249 . S
O750 Zn740 2.067 . S
O750 C748 1.270 . S
C751 O744 1.262 . S
C751 O752 1.232 . S
O752 C751 1.232 . S
C753 O745 1.260 . S
C753 O746 1.257 . S
Zn754 O757 2.031 . S
Zn754 O759 2.049 . S
Zn754 O764 2.067 . S
Zn755 O756 1.962 . S
Zn755 O758 1.986 . S
Zn755 O760 1.996 . S
Zn755 O763 1.943 . S
O756 Zn755 1.962 . S
O756 C761 1.254 . S
O757 Zn754 2.031 . S
O757 C761 1.269 . S
O758 Zn755 1.986 . S
O758 C765 1.262 . S
O759 Zn754 2.049 . S
O759 C767 1.260 . S
O760 Zn755 1.996 . S
O760 C767 1.257 . S
C761 O756 1.254 . S
C761 O757 1.269 . S
C762 O763 1.249 . S
C762 O764 1.270 . S
O763 Zn755 1.943 . S
O763 C762 1.249 . S
O764 Zn754 2.067 . S
O764 C762 1.270 . S
C765 O758 1.262 . S
C765 O766 1.232 . S
O766 C765 1.232 . S
C767 O759 1.260 . S
C767 O760 1.257 . S
C768 C769 1.349 . S
C768 C770 1.327 . S
C768 H793 0.950 . S
C769 C768 1.349 . S
C769 C785 1.349 . S
C770 C768 1.327 . S
C770 C789 1.429 . S
C770 H794 0.950 . S
C771 C788 1.574 . S
C771 C790 1.368 . S
C771 H795 0.949 . S
H772 C776 0.949 . S
C773 C774 1.349 . S
C773 C775 1.327 . S
C773 H796 0.950 . S
C774 C773 1.349 . S
C774 C786 1.349 . S
C775 C773 1.327 . S
C775 C791 1.429 . S
C775 H797 0.950 . S
C776 H772 0.949 . S
C776 C784 1.574 . S
C776 C792 1.368 . S
H777 C785 0.950 . S
H778 C783 0.950 . S
H779 C784 0.949 . S
H780 C786 0.950 . S
H781 C787 0.950 . S
H782 C788 0.949 . S
C783 H778 0.950 . S
C783 C785 1.327 . S
C783 C789 1.429 . S
C784 C776 1.574 . S
C784 H779 0.949 . S
C784 C790 1.368 . S
C785 C769 1.349 . S
C785 H777 0.950 . S
C785 C783 1.327 . S
C786 C774 1.349 . S
C786 H780 0.950 . S
C786 C787 1.327 . S
C787 H781 0.950 . S
C787 C786 1.327 . S
C787 C791 1.429 . S
C788 C771 1.574 . S
C788 H782 0.949 . S
C788 C792 1.368 . S
C789 C770 1.429 . S
C789 C783 1.429 . S
C789 C790 1.523 . S
C790 C771 1.368 . S
C790 C784 1.368 . S
C790 C789 1.523 . S
C791 C775 1.429 . S
C791 C787 1.429 . S
C791 C792 1.523 . S
C792 C776 1.368 . S
C792 C788 1.368 . S
C792 C791 1.523 . S
H793 C768 0.950 . S
H794 C770 0.950 . S
H795 C771 0.949 . S
H796 C773 0.950 . S
H797 C775 0.950 . S
C798 C799 1.349 . S
C798 C800 1.327 . S
C798 H823 0.950 . S
C799 C798 1.349 . S
C799 C815 1.349 . S
C800 C798 1.327 . S
C800 C819 1.429 . S
C800 H824 0.950 . S
C801 C818 1.574 . S
C801 C820 1.368 . S
C801 H825 0.949 . S
H802 C806 0.949 . S
C803 C804 1.349 . S
C803 C805 1.327 . S
C803 H826 0.950 . S
C804 C803 1.349 . S
C804 C816 1.349 . S
C805 C803 1.327 . S
C805 C821 1.429 . S
C805 H827 0.950 . S
C806 H802 0.949 . S
C806 C814 1.574 . S
C806 C822 1.368 . S
H807 C815 0.950 . S
H808 C813 0.950 . S
H809 C814 0.949 . S
H810 C816 0.950 . S
H811 C817 0.950 . S
H812 C818 0.949 . S
C813 H808 0.950 . S
C813 C815 1.327 . S
C813 C819 1.429 . S
C814 C806 1.574 . S
C814 H809 0.949 . S
C814 C820 1.368 . S
C815 C799 1.349 . S
C815 H807 0.950 . S
C815 C813 1.327 . S
C816 C804 1.349 . S
C816 H810 0.950 . S
C816 C817 1.327 . S
C817 H811 0.950 . S
C817 C816 1.327 . S
C817 C821 1.429 . S
C818 C801 1.574 . S
C818 H812 0.949 . S
C818 C822 1.368 . S
C819 C800 1.429 . S
C819 C813 1.429 . S
C819 C820 1.523 . S
C820 C801 1.368 . S
C820 C814 1.368 . S
C820 C819 1.523 . S
C821 C805 1.429 . S
C821 C817 1.429 . S
C821 C822 1.523 . S
C822 C806 1.368 . S
C822 C818 1.368 . S
C822 C821 1.523 . S
H823 C798 0.950 . S
H824 C800 0.950 . S
H825 C801 0.949 . S
H826 C803 0.950 . S
H827 C805 0.950 . S
C828 C829 1.349 . S
C828 C830 1.327 . S
C828 H853 0.950 . S
C829 C828 1.349 . S
C829 C845 1.349 . S
C830 C828 1.327 . S
C830 C849 1.429 . S
C830 H854 0.950 . S
C831 C848 1.574 . S
C831 C850 1.368 . S
C831 H855 0.949 . S
H832 C836 0.949 . S
C833 C834 1.349 . S
C833 C835 1.327 . S
C833 H856 0.950 . S
C834 C833 1.349 . S
C834 C846 1.349 . S
C835 C833 1.327 . S
C835 C851 1.429 . S
C835 H857 0.950 . S
C836 H832 0.949 . S
C836 C844 1.574 . S
C836 C852 1.368 . S
H837 C845 0.950 . S
H838 C843 0.950 . S
H839 C844 0.949 . S
H840 C846 0.950 . S
H841 C847 0.950 . S
H842 C848 0.949 . S
C843 H838 0.950 . S
C843 C845 1.327 . S
C843 C849 1.429 . S
C844 C836 1.574 . S
C844 H839 0.949 . S
C844 C850 1.368 . S
C845 C829 1.349 . S
C845 H837 0.950 . S
C845 C843 1.327 . S
C846 C834 1.349 . S
C846 H840 0.950 . S
C846 C847 1.327 . S
C847 H841 0.950 . S
C847 C846 1.327 . S
C847 C851 1.429 . S
C848 C831 1.574 . S
C848 H842 0.949 . S
C848 C852 1.368 . S
C849 C830 1.429 . S
C849 C843 1.429 . S
C849 C850 1.523 . S
C850 C831 1.368 . S
C850 C844 1.368 . S
C850 C849 1.523 . S
C851 C835 1.429 . S
C851 C847 1.429 . S
C851 C852 1.523 . S
C852 C836 1.368 . S
C852 C848 1.368 . S
C852 C851 1.523 . S
H853 C828 0.950 . S
H854 C830 0.950 . S
H855 C831 0.949 . S
H856 C833 0.950 . S
H857 C835 0.950 . S
C858 C859 1.349 . S
C858 C860 1.327 . S
C858 H883 0.950 . S
C859 C858 1.349 . S
C859 C875 1.349 . S
C860 C858 1.327 . S
C860 C879 1.429 . S
C860 H884 0.950 . S
C861 C878 1.574 . S
C861 C880 1.368 . S
C861 H885 0.949 . S
H862 C866 0.949 . S
C863 C864 1.349 . S
C863 C865 1.327 . S
C863 H886 0.950 . S
C864 C863 1.349 . S
C864 C876 1.349 . S
C865 C863 1.327 . S
C865 C881 1.429 . S
C865 H887 0.950 . S
C866 H862 0.949 . S
C866 C874 1.574 . S
C866 C882 1.368 . S
H867 C875 0.950 . S
H868 C873 0.950 . S
H869 C874 0.949 . S
H870 C876 0.950 . S
H871 C877 0.950 . S
H872 C878 0.949 . S
C873 H868 0.950 . S
C873 C875 1.327 . S
C873 C879 1.429 . S
C874 C866 1.574 . S
C874 H869 0.949 . S
C874 C880 1.368 . S
C875 C859 1.349 . S
C875 H867 0.950 . S
C875 C873 1.327 . S
C876 C864 1.349 . S
C876 H870 0.950 . S
C876 C877 1.327 . S
C877 H871 0.950 . S
C877 C876 1.327 . S
C877 C881 1.429 . S
C878 C861 1.574 . S
C878 H872 0.949 . S
C878 C882 1.368 . S
C879 C860 1.429 . S
C879 C873 1.429 . S
C879 C880 1.523 . S
C880 C861 1.368 . S
C880 C874 1.368 . S
C880 C879 1.523 . S
C881 C865 1.429 . S
C881 C877 1.429 . S
C881 C882 1.523 . S
C882 C866 1.368 . S
C882 C878 1.368 . S
C882 C881 1.523 . S
H883 C858 0.950 . S
H884 C860 0.950 . S
H885 C861 0.949 . S
H886 C863 0.950 . S
H887 C865 0.950 . S
C888 C889 1.349 . S
C888 C890 1.327 . S
C888 H913 0.950 . S
C889 C888 1.349 . S
C889 C905 1.349 . S
C890 C888 1.327 . S
C890 C909 1.429 . S
C890 H914 0.950 . S
C891 C908 1.574 . S
C891 C910 1.368 . S
C891 H915 0.949 . S
H892 C896 0.949 . S
C893 C894 1.349 . S
C893 C895 1.327 . S
C893 H916 0.950 . S
C894 C893 1.349 . S
C894 C906 1.349 . S
C895 C893 1.327 . S
C895 C911 1.429 . S
C895 H917 0.950 . S
C896 H892 0.949 . S
C896 C904 1.574 . S
C896 C912 1.368 . S
H897 C905 0.950 . S
H898 C903 0.950 . S
H899 C904 0.949 . S
H900 C906 0.950 . S
H901 C907 0.950 . S
H902 C908 0.949 . S
C903 H898 0.950 . S
C903 C905 1.327 . S
C903 C909 1.429 . S
C904 C896 1.574 . S
C904 H899 0.949 . S
C904 C910 1.368 . S
C905 C889 1.349 . S
C905 H897 0.950 . S
C905 C903 1.327 . S
C906 C894 1.349 . S
C906 H900 0.950 . S
C906 C907 1.327 . S
C907 H901 0.950 . S
C907 C906 1.327 . S
C907 C911 1.429 . S
C908 C891 1.574 . S
C908 H902 0.949 . S
C908 C912 1.368 . S
C909 C890 1.429 . S
C909 C903 1.429 . S
C909 C910 1.523 . S
C910 C891 1.368 . S
C910 C904 1.368 . S
C910 C909 1.523 . S
C911 C895 1.429 . S
C911 C907 1.429 . S
C911 C912 1.523 . S
C912 C896 1.368 . S
C912 C908 1.368 . S
C912 C911 1.523 . S
H913 C888 0.950 . S
H914 C890 0.950 . S
H915 C891 0.949 . S
H916 C893 0.950 . S
H917 C895 0.950 . S
C918 C919 1.349 . S
C918 C920 1.327 . S
C918 H943 0.950 . S
C919 C918 1.349 . S
C919 C935 1.349 . S
C920 C918 1.327 . S
C920 C939 1.429 . S
C920 H944 0.950 . S
C921 C938 1.574 . S
C921 C940 1.368 . S
C921 H945 0.949 . S
H922 C926 0.949 . S
C923 C924 1.349 . S
C923 C925 1.327 . S
C923 H946 0.950 . S
C924 C923 1.349 . S
C924 C936 1.349 . S
C925 C923 1.327 . S
C925 C941 1.429 . S
C925 H947 0.950 . S
C926 H922 0.949 . S
C926 C934 1.574 . S
C926 C942 1.368 . S
H927 C935 0.950 . S
H928 C933 0.950 . S
H929 C934 0.949 . S
H930 C936 0.950 . S
H931 C937 0.950 . S
H932 C938 0.949 . S
C933 H928 0.950 . S
C933 C935 1.327 . S
C933 C939 1.429 . S
C934 C926 1.574 . S
C934 H929 0.949 . S
C934 C940 1.368 . S
C935 C919 1.349 . S
C935 H927 0.950 . S
C935 C933 1.327 . S
C936 C924 1.349 . S
C936 H930 0.950 . S
C936 C937 1.327 . S
C937 H931 0.950 . S
C937 C936 1.327 . S
C937 C941 1.429 . S
C938 C921 1.574 . S
C938 H932 0.949 . S
C938 C942 1.368 . S
C939 C920 1.429 . S
C939 C933 1.429 . S
C939 C940 1.523 . S
C940 C921 1.368 . S
C940 C934 1.368 . S
C940 C939 1.523 . S
C941 C925 1.429 . S
C941 C937 1.429 . S
C941 C942 1.523 . S
C942 C926 1.368 . S
C942 C938 1.368 . S
C942 C941 1.523 . S
H943 C918 0.950 . S
H944 C920 0.950 . S
H945 C921 0.949 . S
H946 C923 0.950 . S
H947 C925 0.950 . S
C948 C949 1.349 . S
C948 C950 1.327 . S
C948 H973 0.950 . S
C949 C948 1.349 . S
C949 C965 1.349 . S
C950 C948 1.327 . S
C950 C969 1.429 . S
C950 H974 0.950 . S
C951 C968 1.574 . S
C951 C970 1.368 . S
C951 H975 0.949 . S
H952 C956 0.949 . S
C953 C954 1.349 . S
C953 C955 1.327 . S
C953 H976 0.950 . S
C954 C953 1.349 . S
C954 C966 1.349 . S
C955 C953 1.327 . S
C955 C971 1.429 . S
C955 H977 0.950 . S
C956 H952 0.949 . S
C956 C964 1.574 . S
C956 C972 1.368 . S
H957 C965 0.950 . S
H958 C963 0.950 . S
H959 C964 0.949 . S
H960 C966 0.950 . S
H961 C967 0.950 . S
H962 C968 0.949 . S
C963 H958 0.950 . S
C963 C965 1.327 . S
C963 C969 1.429 . S
C964 C956 1.574 . S
C964 H959 0.949 . S
C964 C970 1.368 . S
C965 C949 1.349 . S
C965 H957 0.950 . S
C965 C963 1.327 . S
C966 C954 1.349 . S
C966 H960 0.950 . S
C966 C967 1.327 . S
C967 H961 0.950 . S
C967 C966 1.327 . S
C967 C971 1.429 . S
C968 C951 1.574 . S
C968 H962 0.949 . S
C968 C972 1.368 . S
C969 C950 1.429 . S
C969 C963 1.429 . S
C969 C970 1.523 . S
C970 C951 1.368 . S
C970 C964 1.368 . S
C970 C969 1.523 . S
C971 C955 1.429 . S
C971 C967 1.429 . S
C971 C972 1.523 . S
C972 C956 1.368 . S
C972 C968 1.368 . S
C972 C971 1.523 . S
H973 C948 0.950 . S
H974 C950 0.950 . S
H975 C951 0.949 . S
H976 C953 0.950 . S
H977 C955 0.950 . S
C978 C979 1.349 . S
C978 C980 1.327 . S
C978 H1003 0.950 . S
C979 C978 1.349 . S
C979 C995 1.349 . S
C980 C978 1.327 . S
C980 C999 1.429 . S
C980 H1004 0.950 . S
C981 C998 1.574 . S
C981 C1000 1.368 . S
C981 H1005 0.949 . S
H982 C986 0.949 . S
C983 C984 1.349 . S
C983 C985 1.327 . S
C983 H1006 0.950 . S
C984 C983 1.349 . S
C984 C996 1.349 . S
C985 C983 1.327 . S
C985 C1001 1.429 . S
C985 H1007 0.950 . S
C986 H982 0.949 . S
C986 C994 1.574 . S
C986 C1002 1.368 . S
H987 C995 0.950 . S
H988 C993 0.950 . S
H989 C994 0.949 . S
H990 C996 0.950 . S
H991 C997 0.950 . S
H992 C998 0.949 . S
C993 H988 0.950 . S
C993 C995 1.327 . S
C993 C999 1.429 . S
C994 C986 1.574 . S
C994 H989 0.949 . S
C994 C1000 1.368 . S
C995 C979 1.349 . S
C995 H987 0.950 . S
C995 C993 1.327 . S
C996 C984 1.349 . S
C996 H990 0.950 . S
C996 C997 1.327 . S
C997 H991 0.950 . S
C997 C996 1.327 . S
C997 C1001 1.429 . S
C998 C981 1.574 . S
C998 H992 0.949 . S
C998 C1002 1.368 . S
C999 C980 1.429 . S
C999 C993 1.429 . S
C999 C1000 1.523 . S
C1000 C981 1.368 . S
C1000 C994 1.368 . S
C1000 C999 1.523 . S
C1001 C985 1.429 . S
C1001 C997 1.429 . S
C1001 C1002 1.523 . S
C1002 C986 1.368 . S
C1002 C998 1.368 . S
C1002 C1001 1.523 . S
H1003 C978 0.950 . S
H1004 C980 0.950 . S
H1005 C981 0.949 . S
H1006 C983 0.950 . S
H1007 C985 0.950 . S
C1008 C1009 1.349 . S
C1008 C1010 1.327 . S
C1008 H1033 0.950 . S
C1009 C1008 1.349 . S
C1009 C1025 1.349 . S
C1010 C1008 1.327 . S
C1010 C1029 1.429 . S
C1010 H1034 0.950 . S
C1011 C1028 1.574 . S
C1011 C1030 1.368 . S
C1011 H1035 0.949 . S
H1012 C1016 0.949 . S
C1013 C1014 1.349 . S
C1013 C1015 1.327 . S
C1013 H1036 0.950 . S
C1014 C1013 1.349 . S
C1014 C1026 1.349 . S
C1015 C1013 1.327 . S
C1015 C1031 1.429 . S
C1015 H1037 0.950 . S
C1016 H1012 0.949 . S
C1016 C1024 1.574 . S
C1016 C1032 1.368 . S
H1017 C1025 0.950 . S
H1018 C1023 0.950 . S
H1019 C1024 0.949 . S
H1020 C1026 0.950 . S
H1021 C1027 0.950 . S
H1022 C1028 0.949 . S
C1023 H1018 0.950 . S
C1023 C1025 1.327 . S
C1023 C1029 1.429 . S
C1024 C1016 1.574 . S
C1024 H1019 0.949 . S
C1024 C1030 1.368 . S
C1025 C1009 1.349 . S
C1025 H1017 0.950 . S
C1025 C1023 1.327 . S
C1026 C1014 1.349 . S
C1026 H1020 0.950 . S
C1026 C1027 1.327 . S
C1027 H1021 0.950 . S
C1027 C1026 1.327 . S
C1027 C1031 1.429 . S
C1028 C1011 1.574 . S
C1028 H1022 0.949 . S
C1028 C1032 1.368 . S
C1029 C1010 1.429 . S
C1029 C1023 1.429 . S
C1029 C1030 1.523 . S
C1030 C1011 1.368 . S
C1030 C1024 1.368 . S
C1030 C1029 1.523 . S
C1031 C1015 1.429 . S
C1031 C1027 1.429 . S
C1031 C1032 1.523 . S
C1032 C1016 1.368 . S
C1032 C1028 1.368 . S
C1032 C1031 1.523 . S
H1033 C1008 0.950 . S
H1034 C1010 0.950 . S
H1035 C1011 0.949 . S
H1036 C1013 0.950 . S
H1037 C1015 0.950 . S
C1038 C1039 1.349 . S
C1038 C1040 1.327 . S
C1038 H1063 0.950 . S
C1039 C1038 1.349 . S
C1039 C1055 1.349 . S
C1040 C1038 1.327 . S
C1040 C1059 1.429 . S
C1040 H1064 0.950 . S
C1041 C1058 1.574 . S
C1041 C1060 1.368 . S
C1041 H1065 0.949 . S
H1042 C1046 0.949 . S
C1043 C1044 1.349 . S
C1043 C1045 1.327 . S
C1043 H1066 0.950 . S
C1044 C1043 1.349 . S
C1044 C1056 1.349 . S
C1045 C1043 1.327 . S
C1045 C1061 1.429 . S
C1045 H1067 0.950 . S
C1046 H1042 0.949 . S
C1046 C1054 1.574 . S
C1046 C1062 1.368 . S
H1047 C1055 0.950 . S
H1048 C1053 0.950 . S
H1049 C1054 0.949 . S
H1050 C1056 0.950 . S
H1051 C1057 0.950 . S
H1052 C1058 0.949 . S
C1053 H1048 0.950 . S
C1053 C1055 1.327 . S
C1053 C1059 1.429 . S
C1054 C1046 1.574 . S
C1054 H1049 0.949 . S
C1054 C1060 1.368 . S
C1055 C1039 1.349 . S
C1055 H1047 0.950 . S
C1055 C1053 1.327 . S
C1056 C1044 1.349 . S
C1056 H1050 0.950 . S
C1056 C1057 1.327 . S
C1057 H1051 0.950 . S
C1057 C1056 1.327 . S
C1057 C1061 1.429 . S
C1058 C1041 1.574 . S
C1058 H1052 0.949 . S
C1058 C1062 1.368 . S
C1059 C1040 1.429 . S
C1059 C1053 1.429 . S
C1059 C1060 1.523 . S
C1060 C1041 1.368 . S
C1060 C1054 1.368 . S
C1060 C1059 1.523 . S
C1061 C1045 1.429 . S
C1061 C1057 1.429 . S
C1061 C1062 1.523 . S
C1062 C1046 1.368 . S
C1062 C1058 1.368 . S
C1062 C1061 1.523 . S
H1063 C1038 0.950 . S
H1064 C1040 0.950 . S
H1065 C1041 0.949 . S
H1066 C1043 0.950 . S
H1067 C1045 0.950 . S
C1068 C1069 1.349 . S
C1068 C1070 1.327 . S
C1068 H1093 0.950 . S
C1069 C1068 1.349 . S
C1069 C1085 1.349 . S
C1070 C1068 1.327 . S
C1070 C1089 1.429 . S
C1070 H1094 0.950 . S
C1071 C1088 1.574 . S
C1071 C1090 1.368 . S
C1071 H1095 0.949 . S
H1072 C1076 0.949 . S
C1073 C1074 1.349 . S
C1073 C1075 1.327 . S
C1073 H1096 0.950 . S
C1074 C1073 1.349 . S
C1074 C1086 1.349 . S
C1075 C1073 1.327 . S
C1075 C1091 1.429 . S
C1075 H1097 0.950 . S
C1076 H1072 0.949 . S
C1076 C1084 1.574 . S
C1076 C1092 1.368 . S
H1077 C1085 0.950 . S
H1078 C1083 0.950 . S
H1079 C1084 0.949 . S
H1080 C1086 0.950 . S
H1081 C1087 0.950 . S
H1082 C1088 0.949 . S
C1083 H1078 0.950 . S
C1083 C1085 1.327 . S
C1083 C1089 1.429 . S
C1084 C1076 1.574 . S
C1084 H1079 0.949 . S
C1084 C1090 1.368 . S
C1085 C1069 1.349 . S
C1085 H1077 0.950 . S
C1085 C1083 1.327 . S
C1086 C1074 1.349 . S
C1086 H1080 0.950 . S
C1086 C1087 1.327 . S
C1087 H1081 0.950 . S
C1087 C1086 1.327 . S
C1087 C1091 1.429 . S
C1088 C1071 1.574 . S
C1088 H1082 0.949 . S
C1088 C1092 1.368 . S
C1089 C1070 1.429 . S
C1089 C1083 1.429 . S
C1089 C1090 1.523 . S
C1090 C1071 1.368 . S
C1090 C1084 1.368 . S
C1090 C1089 1.523 . S
C1091 C1075 1.429 . S
C1091 C1087 1.429 . S
C1091 C1092 1.523 . S
C1092 C1076 1.368 . S
C1092 C1088 1.368 . S
C1092 C1091 1.523 . S
H1093 C1068 0.950 . S
H1094 C1070 0.950 . S
H1095 C1071 0.949 . S
H1096 C1073 0.950 . S
H1097 C1075 0.950 . S
C1098 C1099 1.349 . S
C1098 C1100 1.327 . S
C1098 H1123 0.950 . S
C1099 C1098 1.349 . S
C1099 C1115 1.349 . S
C1100 C1098 1.327 . S
C1100 C1119 1.429 . S
C1100 H1124 0.950 . S
C1101 C1118 1.574 . S
C1101 C1120 1.368 . S
C1101 H1125 0.949 . S
H1102 C1106 0.949 . S
C1103 C1104 1.349 . S
C1103 C1105 1.327 . S
C1103 H1126 0.950 . S
C1104 C1103 1.349 . S
C1104 C1116 1.349 . S
C1105 C1103 1.327 . S
C1105 C1121 1.429 . S
C1105 H1127 0.950 . S
C1106 H1102 0.949 . S
C1106 C1114 1.574 . S
C1106 C1122 1.368 . S
H1107 C1115 0.950 . S
H1108 C1113 0.950 . S
H1109 C1114 0.949 . S
H1110 C1116 0.950 . S
H1111 C1117 0.950 . S
H1112 C1118 0.949 . S
C1113 H1108 0.950 . S
C1113 C1115 1.327 . S
C1113 C1119 1.429 . S
C1114 C1106 1.574 . S
C1114 H1109 0.949 . S
C1114 C1120 1.368 . S
C1115 C1099 1.349 . S
C1115 H1107 0.950 . S
C1115 C1113 1.327 . S
C1116 C1104 1.349 . S
C1116 H1110 0.950 . S
C1116 C1117 1.327 . S
C1117 H1111 0.950 . S
C1117 C1116 1.327 . S
C1117 C1121 1.429 . S
C1118 C1101 1.574 . S
C1118 H1112 0.949 . S
C1118 C1122 1.368 . S
C1119 C1100 1.429 . S
C1119 C1113 1.429 . S
C1119 C1120 1.523 . S
C1120 C1101 1.368 . S
C1120 C1114 1.368 . S
C1120 C1119 1.523 . S
C1121 C1105 1.429 . S
C1121 C1117 1.429 . S
C1121 C1122 1.523 . S
C1122 C1106 1.368 . S
C1122 C1118 1.368 . S
C1122 C1121 1.523 . S
H1123 C1098 0.950 . S
H1124 C1100 0.950 . S
H1125 C1101 0.949 . S
H1126 C1103 0.950 . S
H1127 C1105 0.950 . S
C1128 C1129 1.349 . S
C1128 C1130 1.327 . S
C1128 H1153 0.950 . S
C1129 C1128 1.349 . S
C1129 C1145 1.349 . S
C1130 C1128 1.327 . S
C1130 C1149 1.429 . S
C1130 H1154 0.950 . S
C1131 C1148 1.574 . S
C1131 C1150 1.368 . S
C1131 H1155 0.949 . S
H1132 C1136 0.949 . S
C1133 C1134 1.349 . S
C1133 C1135 1.327 . S
C1133 H1156 0.950 . S
C1134 C1133 1.349 . S
C1134 C1146 1.349 . S
C1135 C1133 1.327 . S
C1135 C1151 1.429 . S
C1135 H1157 0.950 . S
C1136 H1132 0.949 . S
C1136 C1144 1.574 . S
C1136 C1152 1.368 . S
H1137 C1145 0.950 . S
H1138 C1143 0.950 . S
H1139 C1144 0.949 . S
H1140 C1146 0.950 . S
H1141 C1147 0.950 . S
H1142 C1148 0.949 . S
C1143 H1138 0.950 . S
C1143 C1145 1.327 . S
C1143 C1149 1.429 . S
C1144 C1136 1.574 . S
C1144 H1139 0.949 . S
C1144 C1150 1.368 . S
C1145 C1129 1.349 . S
C1145 H1137 0.950 . S
C1145 C1143 1.327 . S
C1146 C1134 1.349 . S
C1146 H1140 0.950 . S
C1146 C1147 1.327 . S
C1147 H1141 0.950 . S
C1147 C1146 1.327 . S
C1147 C1151 1.429 . S
C1148 C1131 1.574 . S
C1148 H1142 0.949 . S
C1148 C1152 1.368 . S
C1149 C1130 1.429 . S
C1149 C1143 1.429 . S
C1149 C1150 1.523 . S
C1150 C1131 1.368 . S
C1150 C1144 1.368 . S
C1150 C1149 1.523 . S
C1151 C1135 1.429 . S
C1151 C1147 1.429 . S
C1151 C1152 1.523 . S
C1152 C1136 1.368 . S
C1152 C1148 1.368 . S
C1152 C1151 1.523 . S
H1153 C1128 0.950 . S
H1154 C1130 0.950 . S
H1155 C1131 0.949 . S
H1156 C1133 0.950 . S
H1157 C1135 0.950 . S
C1158 C1159 1.349 . S
C1158 C1160 1.327 . S
C1158 H1183 0.950 . S
C1159 C1158 1.349 . S
C1159 C1175 1.349 . S
C1160 C1158 1.327 . S
C1160 C1179 1.429 . S
C1160 H1184 0.950 . S
C1161 C1178 1.574 . S
C1161 C1180 1.368 . S
C1161 H1185 0.949 . S
H1162 C1166 0.949 . S
C1163 C1164 1.349 . S
C1163 C1165 1.327 . S
C1163 H1186 0.950 . S
C1164 C1163 1.349 . S
C1164 C1176 1.349 . S
C1165 C1163 1.327 . S
C1165 C1181 1.429 . S
C1165 H1187 0.950 . S
C1166 H1162 0.949 . S
C1166 C1174 1.574 . S
C1166 C1182 1.368 . S
H1167 C1175 0.950 . S
H1168 C1173 0.950 . S
H1169 C1174 0.949 . S
H1170 C1176 0.950 . S
H1171 C1177 0.950 . S
H1172 C1178 0.949 . S
C1173 H1168 0.950 . S
C1173 C1175 1.327 . S
C1173 C1179 1.429 . S
C1174 C1166 1.574 . S
C1174 H1169 0.949 . S
C1174 C1180 1.368 . S
C1175 C1159 1.349 . S
C1175 H1167 0.950 . S
C1175 C1173 1.327 . S
C1176 C1164 1.349 . S
C1176 H1170 0.950 . S
C1176 C1177 1.327 . S
C1177 H1171 0.950 . S
C1177 C1176 1.327 . S
C1177 C1181 1.429 . S
C1178 C1161 1.574 . S
C1178 H1172 0.949 . S
C1178 C1182 1.368 . S
C1179 C1160 1.429 . S
C1179 C1173 1.429 . S
C1179 C1180 1.523 . S
C1180 C1161 1.368 . S
C1180 C1174 1.368 . S
C1180 C1179 1.523 . S
C1181 C1165 1.429 . S
C1181 C1177 1.429 . S
C1181 C1182 1.523 . S
C1182 C1166 1.368 . S
C1182 C1178 1.368 . S
C1182 C1181 1.523 . S
H1183 C1158 0.950 . S
H1184 C1160 0.950 . S
H1185 C1161 0.949 . S
H1186 C1163 0.950 . S
H1187 C1165 0.950 . S
C1188 C1189 1.349 . S
C1188 C1190 1.327 . S
C1188 H1213 0.950 . S
C1189 C1188 1.349 . S
C1189 C1205 1.349 . S
C1190 C1188 1.327 . S
C1190 C1209 1.429 . S
C1190 H1214 0.950 . S
C1191 C1208 1.574 . S
C1191 C1210 1.368 . S
C1191 H1215 0.949 . S
H1192 C1196 0.949 . S
C1193 C1194 1.349 . S
C1193 C1195 1.327 . S
C1193 H1216 0.950 . S
C1194 C1193 1.349 . S
C1194 C1206 1.349 . S
C1195 C1193 1.327 . S
C1195 C1211 1.429 . S
C1195 H1217 0.950 . S
C1196 H1192 0.949 . S
C1196 C1204 1.574 . S
C1196 C1212 1.368 . S
H1197 C1205 0.950 . S
H1198 C1203 0.950 . S
H1199 C1204 0.949 . S
H1200 C1206 0.950 . S
H1201 C1207 0.950 . S
H1202 C1208 0.949 . S
C1203 H1198 0.950 . S
C1203 C1205 1.327 . S
C1203 C1209 1.429 . S
C1204 C1196 1.574 . S
C1204 H1199 0.949 . S
C1204 C1210 1.368 . S
C1205 C1189 1.349 . S
C1205 H1197 0.950 . S
C1205 C1203 1.327 . S
C1206 C1194 1.349 . S
C1206 H1200 0.950 . S
C1206 C1207 1.327 . S
C1207 H1201 0.950 . S
C1207 C1206 1.327 . S
C1207 C1211 1.429 . S
C1208 C1191 1.574 . S
C1208 H1202 0.949 . S
C1208 C1212 1.368 . S
C1209 C1190 1.429 . S
C1209 C1203 1.429 . S
C1209 C1210 1.523 . S
C1210 C1191 1.368 . S
C1210 C1204 1.368 . S
C1210 C1209 1.523 . S
C1211 C1195 1.429 . S
C1211 C1207 1.429 . S
C1211 C1212 1.523 . S
C1212 C1196 1.368 . S
C1212 C1208 1.368 . S
C1212 C1211 1.523 . S
H1213 C1188 0.950 . S
H1214 C1190 0.950 . S
H1215 C1191 0.949 . S
H1216 C1193 0.950 . S
H1217 C1195 0.950 . S
C1218 C1219 1.349 . S
C1218 C1220 1.327 . S
C1218 H1243 0.950 . S
C1219 C1218 1.349 . S
C1219 C1235 1.349 . S
C1220 C1218 1.327 . S
C1220 C1239 1.429 . S
C1220 H1244 0.950 . S
C1221 C1238 1.574 . S
C1221 C1240 1.368 . S
C1221 H1245 0.949 . S
H1222 C1226 0.949 . S
C1223 C1224 1.349 . S
C1223 C1225 1.327 . S
C1223 H1246 0.950 . S
C1224 C1223 1.349 . S
C1224 C1236 1.349 . S
C1225 C1223 1.327 . S
C1225 C1241 1.429 . S
C1225 H1247 0.950 . S
C1226 H1222 0.949 . S
C1226 C1234 1.574 . S
C1226 C1242 1.368 . S
H1227 C1235 0.950 . S
H1228 C1233 0.950 . S
H1229 C1234 0.949 . S
H1230 C1236 0.950 . S
H1231 C1237 0.950 . S
H1232 C1238 0.949 . S
C1233 H1228 0.950 . S
C1233 C1235 1.327 . S
C1233 C1239 1.429 . S
C1234 C1226 1.574 . S
C1234 H1229 0.949 . S
C1234 C1240 1.368 . S
C1235 C1219 1.349 . S
C1235 H1227 0.950 . S
C1235 C1233 1.327 . S
C1236 C1224 1.349 . S
C1236 H1230 0.950 . S
C1236 C1237 1.327 . S
C1237 H1231 0.950 . S
C1237 C1236 1.327 . S
C1237 C1241 1.429 . S
C1238 C1221 1.574 . S
C1238 H1232 0.949 . S
C1238 C1242 1.368 . S
C1239 C1220 1.429 . S
C1239 C1233 1.429 . S
C1239 C1240 1.523 . S
C1240 C1221 1.368 . S
C1240 C1234 1.368 . S
C1240 C1239 1.523 . S
C1241 C1225 1.429 . S
C1241 C1237 1.429 . S
C1241 C1242 1.523 1_554 S
C1242 C1226 1.368 . S
C1242 C1238 1.368 . S
C1242 C1241 1.523 1_556 S
H1243 C1218 0.950 . S
H1244 C1220 0.950 . S
H1245 C1221 0.949 . S
H1246 C1223 0.950 . S
H1247 C1225 0.950 . S
C1248 C1249 1.349 . S
C1248 C1250 1.327 . S
C1248 H1273 0.950 . S
C1249 C1248 1.349 . S
C1249 C1265 1.349 . S
C1250 C1248 1.327 . S
C1250 C1269 1.429 . S
C1250 H1274 0.950 . S
C1251 C1268 1.574 . S
C1251 C1270 1.368 . S
C1251 H1275 0.949 . S
H1252 C1256 0.949 . S
C1253 C1254 1.349 . S
C1253 C1255 1.327 . S
C1253 H1276 0.950 . S
C1254 C1253 1.349 . S
C1254 C1266 1.349 . S
C1255 C1253 1.327 . S
C1255 C1271 1.429 . S
C1255 H1277 0.950 . S
C1256 H1252 0.949 . S
C1256 C1264 1.574 . S
C1256 C1272 1.368 . S
H1257 C1265 0.950 . S
H1258 C1263 0.950 . S
H1259 C1264 0.949 . S
H1260 C1266 0.950 . S
H1261 C1267 0.950 . S
H1262 C1268 0.949 . S
C1263 H1258 0.950 . S
C1263 C1265 1.327 . S
C1263 C1269 1.429 . S
C1264 C1256 1.574 . S
C1264 H1259 0.949 . S
C1264 C1270 1.368 . S
C1265 C1249 1.349 . S
C1265 H1257 0.950 . S
C1265 C1263 1.327 . S
C1266 C1254 1.349 . S
C1266 H1260 0.950 . S
C1266 C1267 1.327 . S
C1267 H1261 0.950 . S
C1267 C1266 1.327 . S
C1267 C1271 1.429 . S
C1268 C1251 1.574 . S
C1268 H1262 0.949 . S
C1268 C1272 1.368 . S
C1269 C1250 1.429 . S
C1269 C1263 1.429 . S
C1269 C1270 1.523 . S
C1270 C1251 1.368 . S
C1270 C1264 1.368 . S
C1270 C1269 1.523 . S
C1271 C1255 1.429 . S
C1271 C1267 1.429 . S
C1271 C1272 1.523 . S
C1272 C1256 1.368 . S
C1272 C1268 1.368 . S
C1272 C1271 1.523 . S
H1273 C1248 0.950 . S
H1274 C1250 0.950 . S
H1275 C1251 0.949 . S
H1276 C1253 0.950 . S
H1277 C1255 0.950 . S
C1278 C1279 1.349 . S
C1278 C1280 1.327 . S
C1278 H1303 0.950 . S
C1279 C1278 1.349 . S
C1279 C1295 1.349 . S
C1280 C1278 1.327 . S
C1280 C1299 1.429 . S
C1280 H1304 0.950 . S
C1281 C1298 1.574 . S
C1281 C1300 1.368 . S
C1281 H1305 0.949 . S
H1282 C1286 0.949 . S
C1283 C1284 1.349 . S
C1283 C1285 1.327 . S
C1283 H1306 0.950 . S
C1284 C1283 1.349 . S
C1284 C1296 1.349 . S
C1285 C1283 1.327 . S
C1285 C1301 1.429 . S
C1285 H1307 0.950 . S
C1286 H1282 0.949 . S
C1286 C1294 1.574 . S
C1286 C1302 1.368 . S
H1287 C1295 0.950 . S
H1288 C1293 0.950 . S
H1289 C1294 0.949 . S
H1290 C1296 0.950 . S
H1291 C1297 0.950 . S
H1292 C1298 0.949 . S
C1293 H1288 0.950 . S
C1293 C1295 1.327 . S
C1293 C1299 1.429 . S
C1294 C1286 1.574 . S
C1294 H1289 0.949 . S
C1294 C1300 1.368 . S
C1295 C1279 1.349 . S
C1295 H1287 0.950 . S
C1295 C1293 1.327 . S
C1296 C1284 1.349 . S
C1296 H1290 0.950 . S
C1296 C1297 1.327 . S
C1297 H1291 0.950 . S
C1297 C1296 1.327 . S
C1297 C1301 1.429 . S
C1298 C1281 1.574 . S
C1298 H1292 0.949 . S
C1298 C1302 1.368 . S
C1299 C1280 1.429 . S
C1299 C1293 1.429 . S
C1299 C1300 1.523 . S
C1300 C1281 1.368 . S
C1300 C1294 1.368 . S
C1300 C1299 1.523 . S
C1301 C1285 1.429 . S
C1301 C1297 1.429 . S
C1301 C1302 1.523 . S
C1302 C1286 1.368 . S
C1302 C1298 1.368 . S
C1302 C1301 1.523 . S
H1303 C1278 0.950 . S
H1304 C1280 0.950 . S
H1305 C1281 0.949 . S
H1306 C1283 0.950 . S
H1307 C1285 0.950 . S
C1308 C1309 1.349 . S
C1308 C1310 1.327 . S
C1308 H1333 0.950 . S
C1309 C1308 1.349 . S
C1309 C1325 1.349 . S
C1310 C1308 1.327 . S
C1310 C1329 1.429 . S
C1310 H1334 0.950 . S
C1311 C1328 1.574 . S
C1311 C1330 1.368 . S
C1311 H1335 0.949 . S
H1312 C1316 0.949 . S
C1313 C1314 1.349 . S
C1313 C1315 1.327 . S
C1313 H1336 0.950 . S
C1314 C1313 1.349 . S
C1314 C1326 1.349 . S
C1315 C1313 1.327 . S
C1315 C1331 1.429 . S
C1315 H1337 0.950 . S
C1316 H1312 0.949 . S
C1316 C1324 1.574 . S
C1316 C1332 1.368 . S
H1317 C1325 0.950 . S
H1318 C1323 0.950 . S
H1319 C1324 0.949 . S
H1320 C1326 0.950 . S
H1321 C1327 0.950 . S
H1322 C1328 0.949 . S
C1323 H1318 0.950 . S
C1323 C1325 1.327 . S
C1323 C1329 1.429 . S
C1324 C1316 1.574 . S
C1324 H1319 0.949 . S
C1324 C1330 1.368 . S
C1325 C1309 1.349 . S
C1325 H1317 0.950 . S
C1325 C1323 1.327 . S
C1326 C1314 1.349 . S
C1326 H1320 0.950 . S
C1326 C1327 1.327 . S
C1327 H1321 0.950 . S
C1327 C1326 1.327 . S
C1327 C1331 1.429 . S
C1328 C1311 1.574 . S
C1328 H1322 0.949 . S
C1328 C1332 1.368 . S
C1329 C1310 1.429 . S
C1329 C1323 1.429 . S
C1329 C1330 1.523 . S
C1330 C1311 1.368 . S
C1330 C1324 1.368 . S
C1330 C1329 1.523 . S
C1331 C1315 1.429 . S
C1331 C1327 1.429 . S
C1331 C1332 1.523 . S
C1332 C1316 1.368 . S
C1332 C1328 1.368 . S
C1332 C1331 1.523 . S
H1333 C1308 0.950 . S
H1334 C1310 0.950 . S
H1335 C1311 0.949 . S
H1336 C1313 0.950 . S
H1337 C1315 0.950 . S
C1338 C1339 1.349 . S
C1338 C1340 1.327 . S
C1338 H1363 0.950 . S
C1339 C1338 1.349 . S
C1339 C1355 1.349 . S
C1340 C1338 1.327 . S
C1340 C1359 1.429 . S
C1340 H1364 0.950 . S
C1341 C1358 1.574 . S
C1341 C1360 1.368 . S
C1341 H1365 0.949 . S
H1342 C1346 0.949 . S
C1343 C1344 1.349 . S
C1343 C1345 1.327 . S
C1343 H1366 0.950 . S
C1344 C1343 1.349 . S
C1344 C1356 1.349 . S
C1345 C1343 1.327 . S
C1345 C1361 1.429 . S
C1345 H1367 0.950 . S
C1346 H1342 0.949 . S
C1346 C1354 1.574 . S
C1346 C1362 1.368 . S
H1347 C1355 0.950 . S
H1348 C1353 0.950 . S
H1349 C1354 0.949 . S
H1350 C1356 0.950 . S
H1351 C1357 0.950 . S
H1352 C1358 0.949 . S
C1353 H1348 0.950 . S
C1353 C1355 1.327 . S
C1353 C1359 1.429 . S
C1354 C1346 1.574 . S
C1354 H1349 0.949 . S
C1354 C1360 1.368 . S
C1355 C1339 1.349 . S
C1355 H1347 0.950 . S
C1355 C1353 1.327 . S
C1356 C1344 1.349 . S
C1356 H1350 0.950 . S
C1356 C1357 1.327 . S
C1357 H1351 0.950 . S
C1357 C1356 1.327 . S
C1357 C1361 1.429 . S
C1358 C1341 1.574 . S
C1358 H1352 0.949 . S
C1358 C1362 1.368 . S
C1359 C1340 1.429 . S
C1359 C1353 1.429 . S
C1359 C1360 1.523 . S
C1360 C1341 1.368 . S
C1360 C1354 1.368 . S
C1360 C1359 1.523 . S
C1361 C1345 1.429 . S
C1361 C1357 1.429 . S
C1361 C1362 1.523 . S
C1362 C1346 1.368 . S
C1362 C1358 1.368 . S
C1362 C1361 1.523 . S
H1363 C1338 0.950 . S
H1364 C1340 0.950 . S
H1365 C1341 0.949 . S
H1366 C1343 0.950 . S
H1367 C1345 0.950 . S
C1368 C1369 1.349 . S
C1368 C1370 1.327 . S
C1368 H1393 0.950 . S
C1369 C1368 1.349 . S
C1369 C1385 1.349 . S
C1370 C1368 1.327 . S
C1370 C1389 1.429 . S
C1370 H1394 0.950 . S
C1371 C1388 1.574 . S
C1371 C1390 1.368 . S
C1371 H1395 0.949 . S
H1372 C1376 0.949 . S
C1373 C1374 1.349 . S
C1373 C1375 1.327 . S
C1373 H1396 0.950 . S
C1374 C1373 1.349 . S
C1374 C1386 1.349 . S
C1375 C1373 1.327 . S
C1375 C1391 1.429 . S
C1375 H1397 0.950 . S
C1376 H1372 0.949 . S
C1376 C1384 1.574 . S
C1376 C1392 1.368 . S
H1377 C1385 0.950 . S
H1378 C1383 0.950 . S
H1379 C1384 0.949 . S
H1380 C1386 0.950 . S
H1381 C1387 0.950 . S
H1382 C1388 0.949 . S
C1383 H1378 0.950 . S
C1383 C1385 1.327 . S
C1383 C1389 1.429 . S
C1384 C1376 1.574 . S
C1384 H1379 0.949 . S
C1384 C1390 1.368 . S
C1385 C1369 1.349 . S
C1385 H1377 0.950 . S
C1385 C1383 1.327 . S
C1386 C1374 1.349 . S
C1386 H1380 0.950 . S
C1386 C1387 1.327 . S
C1387 H1381 0.950 . S
C1387 C1386 1.327 . S
C1387 C1391 1.429 . S
C1388 C1371 1.574 . S
C1388 H1382 0.949 . S
C1388 C1392 1.368 . S
C1389 C1370 1.429 . S
C1389 C1383 1.429 . S
C1389 C1390 1.523 . S
C1390 C1371 1.368 . S
C1390 C1384 1.368 . S
C1390 C1389 1.523 . S
C1391 C1375 1.429 . S
C1391 C1387 1.429 . S
C1391 C1392 1.523 . S
C1392 C1376 1.368 . S
C1392 C1388 1.368 . S
C1392 C1391 1.523 . S
H1393 C1368 0.950 . S
H1394 C1370 0.950 . S
H1395 C1371 0.949 . S
H1396 C1373 0.950 . S
H1397 C1375 0.950 . S
C1398 C1399 1.349 . S
C1398 C1400 1.327 . S
C1398 H1423 0.950 . S
C1399 C1398 1.349 . S
C1399 C1415 1.349 . S
C1400 C1398 1.327 . S
C1400 C1419 1.429 . S
C1400 H1424 0.950 . S
C1401 C1418 1.574 . S
C1401 C1420 1.368 . S
C1401 H1425 0.949 . S
H1402 C1406 0.949 . S
C1403 C1404 1.349 . S
C1403 C1405 1.327 . S
C1403 H1426 0.950 . S
C1404 C1403 1.349 . S
C1404 C1416 1.349 . S
C1405 C1403 1.327 . S
C1405 C1421 1.429 . S
C1405 H1427 0.950 . S
C1406 H1402 0.949 . S
C1406 C1414 1.574 . S
C1406 C1422 1.368 . S
H1407 C1415 0.950 . S
H1408 C1413 0.950 . S
H1409 C1414 0.949 . S
H1410 C1416 0.950 . S
H1411 C1417 0.950 . S
H1412 C1418 0.949 . S
C1413 H1408 0.950 . S
C1413 C1415 1.327 . S
C1413 C1419 1.429 . S
C1414 C1406 1.574 . S
C1414 H1409 0.949 . S
C1414 C1420 1.368 . S
C1415 C1399 1.349 . S
C1415 H1407 0.950 . S
C1415 C1413 1.327 . S
C1416 C1404 1.349 . S
C1416 H1410 0.950 . S
C1416 C1417 1.327 . S
C1417 H1411 0.950 . S
C1417 C1416 1.327 . S
C1417 C1421 1.429 . S
C1418 C1401 1.574 . S
C1418 H1412 0.949 . S
C1418 C1422 1.368 . S
C1419 C1400 1.429 . S
C1419 C1413 1.429 . S
C1419 C1420 1.523 . S
C1420 C1401 1.368 . S
C1420 C1414 1.368 . S
C1420 C1419 1.523 . S
C1421 C1405 1.429 . S
C1421 C1417 1.429 . S
C1421 C1422 1.523 . S
C1422 C1406 1.368 . S
C1422 C1418 1.368 . S
C1422 C1421 1.523 . S
H1423 C1398 0.950 . S
H1424 C1400 0.950 . S
H1425 C1401 0.949 . S
H1426 C1403 0.950 . S
H1427 C1405 0.950 . S
C1428 C1429 1.349 . S
C1428 C1430 1.327 . S
C1428 H1453 0.950 . S
C1429 C1428 1.349 . S
C1429 C1445 1.349 . S
C1430 C1428 1.327 . S
C1430 C1449 1.429 . S
C1430 H1454 0.950 . S
C1431 C1448 1.544 1_554 S
C1431 C1450 1.368 . S
C1431 H1455 0.949 . S
H1432 C1436 0.949 . S
C1433 C1434 1.349 . S
C1433 C1435 1.327 . S
C1433 H1456 0.950 . S
C1434 C1433 1.349 . S
C1434 C1446 1.349 . S
C1435 C1433 1.327 . S
C1435 C1451 1.429 . S
C1435 H1457 0.950 . S
C1436 H1432 0.949 . S
C1436 C1444 1.574 1_556 S
C1436 C1452 1.368 . S
H1437 C1445 0.950 . S
H1438 C1443 0.950 . S
H1439 C1444 0.949 . S
H1440 C1446 0.950 . S
H1441 C1447 0.950 . S
H1442 C1448 0.961 . S
C1443 H1438 0.950 . S
C1443 C1445 1.327 . S
C1443 C1449 1.429 . S
C1444 C1436 1.574 1_554 S
C1444 H1439 0.949 . S
C1444 C1450 1.368 . S
C1445 C1429 1.349 . S
C1445 H1437 0.950 . S
C1445 C1443 1.327 . S
C1446 C1434 1.349 . S
C1446 H1440 0.950 . S
C1446 C1447 1.327 . S
C1447 H1441 0.950 . S
C1447 C1446 1.327 . S
C1447 C1451 1.429 . S
C1448 C1431 1.544 1_556 S
C1448 H1442 0.961 . S
C1448 C1452 1.385 . S
C1449 C1430 1.429 . S
C1449 C1443 1.429 . S
C1449 C1450 1.523 . S
C1450 C1431 1.368 . S
C1450 C1444 1.368 . S
C1450 C1449 1.523 . S
C1451 C1435 1.429 . S
C1451 C1447 1.429 . S
C1451 C1452 1.523 . S
C1452 C1436 1.368 . S
C1452 C1448 1.385 . S
C1452 C1451 1.523 . S
H1453 C1428 0.950 . S
H1454 C1430 0.950 . S
H1455 C1431 0.949 . S
H1456 C1433 0.950 . S
H1457 C1435 0.950 . S
C1458 C1459 1.349 . S
C1458 C1460 1.327 . S
C1458 H1483 0.950 . S
C1459 C1458 1.349 . S
C1459 C1475 1.349 . S
C1460 C1458 1.327 . S
C1460 C1479 1.429 . S
C1460 H1484 0.950 . S
C1461 C1478 1.574 . S
C1461 C1480 1.368 . S
C1461 H1485 0.949 . S
H1462 C1466 0.949 . S
C1463 C1464 1.349 . S
C1463 C1465 1.327 . S
C1463 H1486 0.950 . S
C1464 C1463 1.349 . S
C1464 C1476 1.349 . S
C1465 C1463 1.327 . S
C1465 C1481 1.429 . S
C1465 H1487 0.950 . S
C1466 H1462 0.949 . S
C1466 C1474 1.574 . S
C1466 C1482 1.368 . S
H1467 C1475 0.950 . S
H1468 C1473 0.950 . S
H1469 C1474 0.949 . S
H1470 C1476 0.950 . S
H1471 C1477 0.950 . S
H1472 C1478 0.949 . S
C1473 H1468 0.950 . S
C1473 C1475 1.327 . S
C1473 C1479 1.429 . S
C1474 C1466 1.574 . S
C1474 H1469 0.949 . S
C1474 C1480 1.368 . S
C1475 C1459 1.349 . S
C1475 H1467 0.950 . S
C1475 C1473 1.327 . S
C1476 C1464 1.349 . S
C1476 H1470 0.950 . S
C1476 C1477 1.327 . S
C1477 H1471 0.950 . S
C1477 C1476 1.327 . S
C1477 C1481 1.429 . S
C1478 C1461 1.574 . S
C1478 H1472 0.949 . S
C1478 C1482 1.368 . S
C1479 C1460 1.429 . S
C1479 C1473 1.429 . S
C1479 C1480 1.523 . S
C1480 C1461 1.368 . S
C1480 C1474 1.368 . S
C1480 C1479 1.523 . S
C1481 C1465 1.429 . S
C1481 C1477 1.429 . S
C1481 C1482 1.523 . S
C1482 C1466 1.368 . S
C1482 C1478 1.368 . S
C1482 C1481 1.523 . S
H1483 C1458 0.950 . S
H1484 C1460 0.950 . S
H1485 C1461 0.949 . S
H1486 C1463 0.950 . S
H1487 C1465 0.950 . S
C774 C761 1.571 . S
C769 C1 1.175 . S
C799 C169 1.311 . S
C804 C695 1.582 . S
C829 C283 1.248 . S
C834 C709 1.487 . S
C859 C397 1.190 . S
C864 C723 1.424 . S
C894 C737 1.380 . S
C889 C457 1.036 . S
C919 C571 1.013 . S
C924 C747 1.383 . S
C949 C115 1.171 . S
C954 C705 1.585 . S
C979 C229 1.162 . S
C984 C719 1.572 . S
C1009 C343 1.055 . S
C1014 C733 1.430 . S
C1044 C751 1.500 . S
C1039 C511 1.284 . S
C1074 C765 1.622 . S
C1069 C625 1.345 . S
C1104 C691 1.701 . S
C1099 C55 1.373 . S
C1129 C29 1.141 . S
C1134 C706 1.351 . S
C1159 C125 1.003 . S
C1164 C720 1.577 . S
C1194 C734 1.508 . S
C1189 C239 0.959 . S
C1219 C353 0.889 . S
C1224 C753 1.353 . S
C1254 C767 1.233 . S
C1249 C485 1.021 . S
C1284 C692 1.306 . S
C1279 C599 1.088 . S
C1314 C762 1.330 . S
C1309 C143 1.118 . S
C1339 C257 1.004 . S
C1344 C697 1.194 . S
C1374 C711 1.123 . S
C1369 C371 0.953 . S
C1399 C467 0.897 . S
C1404 C725 1.335 . S
C1429 C581 0.887 . S
C1434 C739 1.378 . S
C1459 C11 0.914 . S
C1464 C748 1.473 . S
