# Generated by pormake.
# Topology zzz, (3,6)-cn, num edge types: 1
# Building blocks:
#     Node 0, Type 0, BuildingBlock: BELTOD_clean_linker_0, # of connection points: 3
#     Node 1, Type 0, BuildingBlock: BELTOD_clean_linker_0, # of connection points: 3
#     Node 2, Type 0, BuildingBlock: BELTOD_clean_linker_0, # of connection points: 3
#     Node 3, Type 0, BuildingBlock: BELTOD_clean_linker_0, # of connection points: 3
#     Node 4, Type 0, BuildingBlock: BELTOD_clean_linker_0, # of connection points: 3
#     Node 5, Type 0, BuildingBlock: BELTOD_clean_linker_0, # of connection points: 3
#     Node 6, Type 0, BuildingBlock: BELTOD_clean_linker_0, # of connection points: 3
#     Node 7, Type 0, BuildingBlock: BELTOD_clean_linker_0, # of connection points: 3
#     Node 8, Type 1, BuildingBlock: JUFBIX_clean_sbu_0, # of connection points: 6
#     Node 9, Type 1, BuildingBlock: JUFBIX_clean_sbu_0, # of connection points: 6
#     Node 10, Type 1, BuildingBlock: JUFBIX_clean_sbu_0, # of connection points: 6
#     Node 11, Type 1, BuildingBlock: JUFBIX_clean_sbu_0, # of connection points: 6
#     Edge 12, Type (0, 1), BuildingBlock: MIFKUJ_clean_linker_0, # of connection points: 2
#     Edge 13, Type (0, 1), BuildingBlock: MIFKUJ_clean_linker_0, # of connection points: 2
#     Edge 14, Type (0, 1), BuildingBlock: MIFKUJ_clean_linker_0, # of connection points: 2
#     Edge 15, Type (0, 1), BuildingBlock: MIFKUJ_clean_linker_0, # of connection points: 2
#     Edge 16, Type (0, 1), BuildingBlock: MIFKUJ_clean_linker_0, # of connection points: 2
#     Edge 17, Type (0, 1), BuildingBlock: MIFKUJ_clean_linker_0, # of connection points: 2
#     Edge 18, Type (0, 1), BuildingBlock: MIFKUJ_clean_linker_0, # of connection points: 2
#     Edge 19, Type (0, 1), BuildingBlock: MIFKUJ_clean_linker_0, # of connection points: 2
#     Edge 20, Type (0, 1), BuildingBlock: MIFKUJ_clean_linker_0, # of connection points: 2
#     Edge 21, Type (0, 1), BuildingBlock: MIFKUJ_clean_linker_0, # of connection points: 2
#     Edge 22, Type (0, 1), BuildingBlock: MIFKUJ_clean_linker_0, # of connection points: 2
#     Edge 23, Type (0, 1), BuildingBlock: MIFKUJ_clean_linker_0, # of connection points: 2
#     Edge 24, Type (0, 1), BuildingBlock: MIFKUJ_clean_linker_0, # of connection points: 2
#     Edge 25, Type (0, 1), BuildingBlock: MIFKUJ_clean_linker_0, # of connection points: 2
#     Edge 26, Type (0, 1), BuildingBlock: MIFKUJ_clean_linker_0, # of connection points: 2
#     Edge 27, Type (0, 1), BuildingBlock: MIFKUJ_clean_linker_0, # of connection points: 2
#     Edge 28, Type (0, 1), BuildingBlock: MIFKUJ_clean_linker_0, # of connection points: 2
#     Edge 29, Type (0, 1), BuildingBlock: MIFKUJ_clean_linker_0, # of connection points: 2
#     Edge 30, Type (0, 1), BuildingBlock: MIFKUJ_clean_linker_0, # of connection points: 2
#     Edge 31, Type (0, 1), BuildingBlock: MIFKUJ_clean_linker_0, # of connection points: 2
#     Edge 32, Type (0, 1), BuildingBlock: MIFKUJ_clean_linker_0, # of connection points: 2
#     Edge 33, Type (0, 1), BuildingBlock: MIFKUJ_clean_linker_0, # of connection points: 2
#     Edge 34, Type (0, 1), BuildingBlock: MIFKUJ_clean_linker_0, # of connection points: 2
#     Edge 35, Type (0, 1), BuildingBlock: MIFKUJ_clean_linker_0, # of connection points: 2
# Relax obj value: 0.271
# Max RMSD: 0.211
# Mean RMSD: 0.178
data_MOF--net-zzz--node1-JUFBIX_clean_sbu_0--node2-BELTOD_clean_linker_0--edge1-MIFKUJ_clean_linker_0
_symmetry_space_group_name_H-M    P1
_symmetry_Int_Tables_number       1
_symmetry_cell_setting            triclinic
loop_
_symmetry_equiv_pos_as_xyz
'x, y, z'
_cell_length_a     67.510703
_cell_length_b     69.567021
_cell_length_c     26.491426
_cell_angle_alpha  83.633056
_cell_angle_beta   90.133856
_cell_angle_gamma 86.861419
loop_
_atom_site_label
_atom_site_type_symbol
_atom_site_fract_x
_atom_site_fract_y
_atom_site_fract_z
_atom_type_partial_charge
P0 P 0.77323 0.51337 0.28992 0.0
H1 H 0.78435 0.49816 0.39302 0.0
H2 H 0.80267 0.51177 0.45771 0.0
H3 H 0.79656 0.56819 0.37056 0.0
H4 H 0.77861 0.55401 0.30444 0.0
H5 H 0.76193 0.51066 0.1859 0.0
H6 H 0.73223 0.52083 0.13617 0.0
H7 H 0.70727 0.54774 0.26285 0.0
H8 H 0.73747 0.53728 0.31305 0.0
H9 H 0.80803 0.48662 0.2877 0.0
H10 H 0.78712 0.54178 0.20997 0.0
O11 O 0.76858 0.49037 0.30874 0.0
H12 H 0.83835 0.48765 0.23707 0.0
H13 H 0.81731 0.54284 0.15901 0.0
C14 C 0.77985 0.52511 0.34419 0.0
C15 C 0.78626 0.51361 0.38853 0.0
C16 C 0.7968 0.5215 0.42581 0.0
C17 C 0.80127 0.54115 0.41954 0.0
C18 C 0.79364 0.55296 0.37643 0.0
C19 C 0.78312 0.54496 0.33889 0.0
C20 C 0.75218 0.52374 0.25262 0.0
C21 C 0.75035 0.51921 0.20268 0.0
C22 C 0.73329 0.52507 0.17417 0.0
C23 C 0.71745 0.53535 0.19522 0.0
C24 C 0.71926 0.53989 0.24551 0.0
C25 C 0.73653 0.53407 0.27408 0.0
C26 C 0.79508 0.51379 0.25128 0.0
C27 C 0.80988 0.49884 0.25936 0.0
C28 C 0.82726 0.49954 0.23082 0.0
C29 C 0.83008 0.51526 0.19388 0.0
C30 C 0.81536 0.53041 0.18665 0.0
C31 C 0.7981 0.52978 0.21559 0.0
P32 P 0.03764 0.75783 0.27238 0.0
H33 H 0.03239 0.74932 0.38222 0.0
H34 H 0.01501 0.76785 0.44328 0.0
H35 H 0.98709 0.80543 0.31943 0.0
H36 H 0.00405 0.78645 0.25879 0.0
H37 H 0.05656 0.72206 0.24422 0.0
H38 H 0.04667 0.6984 0.18939 0.0
H39 H 0.9899 0.72976 0.16307 0.0
H40 H 1.00007 0.75368 0.21834 0.0
H41 H 0.05473 0.79299 0.29613 0.0
H42 H 0.03631 0.76917 0.16105 0.0
O43 O 0.05765 0.74866 0.30575 0.0
H44 H 0.06089 0.8236 0.2454 0.0
H45 H 0.04245 0.79977 0.11016 0.0
C46 C 0.01978 0.76671 0.31597 0.0
C47 C 0.02203 0.76114 0.36822 0.0
C48 C 0.01221 0.77189 0.40313 0.0
C49 C 1.00004 0.78846 0.38633 0.0
C50 C 0.99631 0.79278 0.33387 0.0
C51 C 0.00604 0.78193 0.29902 0.0
C52 C 0.02892 0.73945 0.23617 0.0
C53 C 0.04183 0.72372 0.22752 0.0
C54 C 0.03612 0.71012 0.19615 0.0
C55 C 0.01741 0.71205 0.17216 0.0
C56 C 0.00442 0.72786 0.18096 0.0
C57 C 0.01014 0.74145 0.21281 0.0
C58 C 0.04501 0.77884 0.23246 0.0
C59 C 0.05232 0.79425 0.25542 0.0
C60 C 0.05571 0.81176 0.2265 0.0
C61 C 0.05202 0.81409 0.17393 0.0
C62 C 0.04554 0.79832 0.15058 0.0
C63 C 0.04196 0.78083 0.17971 0.0
P64 P 0.75522 0.99375 0.21735 0.0
H65 H 0.74699 0.00791 0.3149 0.0
H66 H 0.72629 0.99572 0.38454 0.0
H67 H 0.72375 0.94136 0.32057 0.0
H68 H 0.74431 0.95404 0.2497 0.0
H69 H 0.76668 0.99659 0.11183 0.0
H70 H 0.79581 0.9852 0.06806 0.0
H71 H 0.81974 0.95671 0.21007 0.0
H72 H 0.78994 0.96806 0.25414 0.0
H73 H 0.72192 0.02243 0.19984 0.0
H74 H 0.74027 0.9674 0.14931 0.0
O75 O 0.76126 0.0162 0.22506 0.0
H76 H 0.69215 0.02405 0.14596 0.0
H77 H 0.71079 0.96914 0.09477 0.0
C78 C 0.74733 0.98185 0.27717 0.0
C79 C 0.74269 0.99309 0.31673 0.0
C80 C 0.73077 0.98603 0.35684 0.0
C81 C 0.72309 0.96759 0.3581 0.0
C82 C 0.72914 0.95574 0.32046 0.0
C83 C 0.74112 0.96286 0.28022 0.0
C84 C 0.77579 0.98261 0.18602 0.0
C85 C 0.77783 0.98736 0.13353 0.0
C86 C 0.79456 0.98084 0.10842 0.0
C87 C 0.80998 0.9698 0.13541 0.0
C88 C 0.80802 0.96508 0.18823 0.0
C89 C 0.79099 0.97145 0.21338 0.0
C90 C 0.73361 0.99515 0.17706 0.0
C91 C 0.71965 0.01082 0.17674 0.0
C92 C 0.70261 0.01166 0.14632 0.0
C93 C 0.69936 0.99683 0.11583 0.0
C94 C 0.71316 0.98092 0.11724 0.0
C95 C 0.73 0.97996 0.14823 0.0
P96 P 0.44591 0.74652 0.22094 0.0
H97 H 0.43549 0.74896 0.32745 0.0
H98 H 0.44903 0.73119 0.40559 0.0
H99 H 0.49825 0.70883 0.32127 0.0
H100 H 0.48499 0.72727 0.24379 0.0
H101 H 0.43207 0.78705 0.19783 0.0
H102 H 0.44414 0.81366 0.14057 0.0
H103 H 0.4951 0.77726 0.10578 0.0
H104 H 0.48303 0.75068 0.16412 0.0
H105 H 0.44523 0.70494 0.25223 0.0
H106 H 0.4456 0.74255 0.11126 0.0
O107 O 0.42226 0.75239 0.23342 0.0
H108 H 0.44786 0.67668 0.20535 0.0
H109 H 0.44809 0.71417 0.06408 0.0
C110 C 0.45909 0.7392 0.27972 0.0
C111 C 0.44954 0.74077 0.32607 0.0
C112 C 0.45722 0.73042 0.3707 0.0
C113 C 0.47446 0.71815 0.36957 0.0
C114 C 0.48499 0.71814 0.32376 0.0
C115 C 0.47741 0.7287 0.27926 0.0
C116 C 0.45654 0.76682 0.18475 0.0
C117 C 0.44596 0.78482 0.17839 0.0
C118 C 0.45281 0.80001 0.14531 0.0
C119 C 0.47041 0.79748 0.1179 0.0
C120 C 0.48153 0.7797 0.12639 0.0
C121 C 0.47464 0.76449 0.15968 0.0
C122 C 0.44613 0.72587 0.18538 0.0
C123 C 0.44604 0.70716 0.21121 0.0
C124 C 0.4475 0.69099 0.18442 0.0
C125 C 0.44855 0.69325 0.13119 0.0
C126 C 0.44742 0.71203 0.10515 0.0
C127 C 0.44617 0.72824 0.1321 0.0
P128 P 0.23139 0.41463 0.28556 0.0
H129 H 0.21518 0.39218 0.21019 0.0
H130 H 0.19667 0.40202 0.13196 0.0
H131 H 0.21199 0.46121 0.13869 0.0
H132 H 0.23001 0.45127 0.21802 0.0
H133 H 0.2712 0.39714 0.31069 0.0
H134 H 0.29975 0.40923 0.35153 0.0
H135 H 0.2704 0.46634 0.34008 0.0
H136 H 0.24166 0.45401 0.30085 0.0
H137 H 0.18851 0.42179 0.26777 0.0
H138 H 0.23022 0.42573 0.38956 0.0
O139 O 0.23363 0.39056 0.29801 0.0
H140 H 0.16213 0.43566 0.31711 0.0
H141 H 0.20369 0.4397 0.4392 0.0
C142 C 0.22421 0.42092 0.21991 0.0
C143 C 0.21519 0.40716 0.19399 0.0
C144 C 0.20453 0.41285 0.14904 0.0
C145 C 0.20262 0.43248 0.12912 0.0
C146 C 0.21286 0.44602 0.15338 0.0
C147 C 0.22345 0.44031 0.19852 0.0
C148 C 0.25424 0.42464 0.30285 0.0
C149 C 0.27106 0.41236 0.31594 0.0
C150 C 0.28745 0.41931 0.3392 0.0
C151 C 0.28725 0.4387 0.34975 0.0
C152 C 0.27089 0.45125 0.33332 0.0
C153 C 0.25454 0.44428 0.31013 0.0
C154 C 0.21158 0.42337 0.32407 0.0
C155 C 0.19208 0.42565 0.30503 0.0
C156 C 0.17691 0.43346 0.3335 0.0
C157 C 0.18091 0.43898 0.38176 0.0
C158 C 0.20028 0.43592 0.40168 0.0
C159 C 0.21544 0.42795 0.37329 0.0
P160 P 0.06115 0.23852 0.31213 0.0
H161 H 0.08799 0.21595 0.25384 0.0
H162 H 0.08326 0.20133 0.17591 0.0
H163 H 0.02757 0.2346 0.14933 0.0
H164 H 0.03252 0.24935 0.22813 0.0
H165 H 0.07578 0.27737 0.29744 0.0
H166 H 0.06516 0.3074 0.33215 0.0
H167 H 0.01289 0.28041 0.39333 0.0
H168 H 0.02331 0.25077 0.35742 0.0
H169 H 0.02788 0.21517 0.28872 0.0
H170 H 0.06657 0.21992 0.41608 0.0
O171 O 0.08481 0.23721 0.33129 0.0
H172 H 0.01228 0.18832 0.33618 0.0
H173 H 0.05037 0.19335 0.46496 0.0
C174 C 0.06071 0.23389 0.24657 0.0
C175 C 0.07517 0.22078 0.23023 0.0
C176 C 0.07243 0.21237 0.18548 0.0
C177 C 0.05497 0.21669 0.15648 0.0
C178 C 0.04112 0.23089 0.17105 0.0
C179 C 0.04402 0.2395 0.21573 0.0
C180 C 0.05051 0.26175 0.32541 0.0
C181 C 0.06178 0.27812 0.3172 0.0
C182 C 0.05578 0.29521 0.33754 0.0
C183 C 0.03836 0.29623 0.36647 0.0
C184 C 0.02636 0.28021 0.37123 0.0
C185 C 0.03237 0.26315 0.3508 0.0
C186 C 0.04884 0.21923 0.34828 0.0
C187 C 0.03309 0.21047 0.3269 0.0
C188 C 0.02394 0.19519 0.35445 0.0
C189 C 0.03014 0.18855 0.40433 0.0
C190 C 0.0455 0.19782 0.42626 0.0
C191 C 0.05473 0.21306 0.39846 0.0
P192 P 0.24352 0.10827 0.29489 0.0
H193 H 0.24767 0.12356 0.18785 0.0
H194 H 0.2678 0.11129 0.12074 0.0
H195 H 0.27675 0.05616 0.21241 0.0
H196 H 0.25696 0.06862 0.27977 0.0
H197 H 0.21115 0.13081 0.33667 0.0
H198 H 0.18209 0.12166 0.38612 0.0
H199 H 0.19567 0.06163 0.36553 0.0
H200 H 0.22457 0.07099 0.315 0.0
H201 H 0.28647 0.10683 0.28648 0.0
H202 H 0.2437 0.09489 0.40508 0.0
O203 O 0.24309 0.13229 0.2811 0.0
H204 H 0.3131 0.09345 0.34405 0.0
H205 H 0.27038 0.0823 0.46372 0.0
C206 C 0.25082 0.09705 0.23902 0.0
C207 C 0.25331 0.1086 0.19283 0.0
C208 C 0.26486 0.10155 0.15436 0.0
C209 C 0.27418 0.08286 0.16166 0.0
C210 C 0.27002 0.07072 0.20599 0.0
C211 C 0.25841 0.07775 0.24428 0.0
C212 C 0.21991 0.10164 0.32129 0.0
C213 C 0.20763 0.11573 0.34156 0.0
C214 C 0.19112 0.11044 0.37047 0.0
C215 C 0.18663 0.09089 0.38025 0.0
C216 C 0.19857 0.07685 0.35832 0.0
C217 C 0.21512 0.08218 0.32927 0.0
C218 C 0.26304 0.1014 0.34095 0.0
C219 C 0.28283 0.10159 0.3252 0.0
C220 C 0.2981 0.09406 0.35841 0.0
C221 C 0.29391 0.08656 0.40853 0.0
C222 C 0.27411 0.08749 0.42505 0.0
C223 C 0.2588 0.09482 0.39152 0.0
P224 P 0.44806 0.28853 0.33937 0.0
H225 H 0.4267 0.30053 0.24415 0.0
H226 H 0.4373 0.31809 0.16569 0.0
H227 H 0.49854 0.30724 0.21391 0.0
H228 H 0.48756 0.29049 0.2941 0.0
H229 H 0.43172 0.2675 0.42788 0.0
H230 H 0.43934 0.23567 0.47375 0.0
H231 H 0.48513 0.22467 0.36519 0.0
H232 H 0.47696 0.25659 0.31844 0.0
H233 H 0.44225 0.3302 0.333 0.0
H234 H 0.47852 0.28549 0.42084 0.0
O235 O 0.42348 0.29261 0.34077 0.0
H236 H 0.45793 0.35485 0.37577 0.0
H237 H 0.49419 0.31015 0.46405 0.0
C238 C 0.45633 0.29412 0.27506 0.0
C239 C 0.44245 0.30134 0.23732 0.0
C240 C 0.4486 0.31143 0.19205 0.0
C241 C 0.46883 0.31443 0.18345 0.0
C242 C 0.48282 0.30562 0.21959 0.0
C243 C 0.4766 0.2957 0.26517 0.0
C244 C 0.45358 0.26432 0.36944 0.0
C245 C 0.44326 0.25817 0.41356 0.0
C246 C 0.4478 0.24002 0.44012 0.0
C247 C 0.46296 0.22763 0.42342 0.0
C248 C 0.47325 0.23379 0.37882 0.0
C249 C 0.46865 0.25206 0.35212 0.0
C250 C 0.45894 0.30604 0.37439 0.0
C251 C 0.45347 0.32569 0.36182 0.0
C252 C 0.46259 0.33976 0.38585 0.0
C253 C 0.47735 0.3344 0.42302 0.0
C254 C 0.48278 0.31465 0.43573 0.0
C255 C 0.47376 0.30056 0.4112 0.0
Co256 Co 0.00659 0.01587 0.79428 0.0
C257 C 0.97807 0.98816 0.81748 0.0
Co258 Co 0.00708 0.99167 0.74633 0.0
C259 C 0.01488 0.04758 0.85525 0.0
C260 C 0.98405 0.0441 0.84205 0.0
N261 N 0.00234 0.03659 0.83257 0.0
N262 N 0.00499 0.06147 0.87889 0.0
C263 C 0.98561 0.05926 0.87036 0.0
H264 H 0.03087 0.04539 0.85457 0.0
H265 H 0.97035 0.03901 0.82862 0.0
C266 C 0.0357 0.01961 0.72344 0.0
N267 N 0.01098 0.97105 0.7077 0.0
C268 C 0.99795 0.96029 0.68592 0.0
C269 C 0.02903 0.96381 0.69514 0.0
N270 N 0.00729 0.94687 0.65974 0.0
C271 C 0.02681 0.94909 0.66557 0.0
C272 C 0.98413 0.02218 0.70327 0.0
O273 O 0.0283 0.02785 0.76017 0.0
O274 O 0.02884 0.00385 0.71297 0.0
O275 O 0.9901 0.00509 0.69584 0.0
O276 O 0.98921 0.0289 0.74375 0.0
O277 O 0.98497 0.97986 0.78029 0.0
H278 H 0.04299 0.96889 0.70686 0.0
H279 H 0.982 0.96243 0.68856 0.0
O280 O 0.98528 0.00371 0.82794 0.0
O281 O 0.02386 0.00254 0.84443 0.0
O282 O 0.02433 0.9785 0.79702 0.0
C283 C 0.02971 0.98538 0.83706 0.0
H284 H 0.97338 0.06827 0.88265 0.0
H285 H 0.03866 0.94044 0.65015 0.0
Co286 Co 0.48434 0.01067 0.78434 0.0
C287 C 0.49267 0.97053 0.79111 0.0
Co288 Co 0.50154 0.00055 0.72011 0.0
C289 C 0.45374 0.02847 0.84547 0.0
C290 C 0.47603 0.01097 0.88935 0.0
N291 N 0.4708 0.01765 0.84122 0.0
N292 N 0.4481 0.02874 0.89454 0.0
C293 C 0.46223 0.01768 0.92194 0.0
H294 H 0.44553 0.0357 0.81303 0.0
H295 H 0.4888 0.00128 0.90005 0.0
C296 C 0.49293 0.04063 0.71295 0.0
N297 N 0.51543 0.99328 0.66378 0.0
C298 C 0.53404 0.98515 0.66148 0.0
C299 C 0.5092 0.99645 0.61497 0.0
N300 N 0.53959 0.98313 0.61325 0.0
C301 C 0.52392 0.99016 0.584 0.0
C302 C 0.46047 0.00314 0.70582 0.0
O303 O 0.48455 0.03698 0.7557 0.0
O304 O 0.50152 0.02685 0.69208 0.0
O305 O 0.477 0.99856 0.68631 0.0
O306 O 0.46005 0.00838 0.75023 0.0
O307 O 0.50132 0.97415 0.74877 0.0
H308 H 0.4951 0.00349 0.60235 0.0
H309 H 0.54346 0.98103 0.69444 0.0
O310 O 0.48426 0.9844 0.81183 0.0
O311 O 0.50879 0.01299 0.81793 0.0
O312 O 0.52577 0.003 0.75456 0.0
C313 C 0.52538 0.00867 0.79847 0.0
H314 H 0.46236 0.01395 0.96266 0.0
H315 H 0.52345 0.99148 0.54291 0.0
Co316 Co 0.50979 0.51407 0.77818 0.0
C317 C 0.49146 0.48285 0.82814 0.0
Co318 Co 0.47806 0.51341 0.75762 0.0
C319 C 0.54388 0.51898 0.84164 0.0
C320 C 0.552 0.51524 0.76522 0.0
N321 N 0.53628 0.51554 0.79642 0.0
N322 N 0.56369 0.52105 0.83979 0.0
C323 C 0.5688 0.51853 0.79166 0.0
H324 H 0.53489 0.52065 0.87477 0.0
H325 H 0.55126 0.51332 0.72532 0.0
C326 C 0.49635 0.54471 0.70799 0.0
N327 N 0.45166 0.5125 0.73807 0.0
C328 C 0.44346 0.49931 0.71179 0.0
C329 C 0.43709 0.52634 0.74142 0.0
N330 N 0.42446 0.50449 0.69806 0.0
C331 C 0.42039 0.52144 0.71707 0.0
C332 C 0.48369 0.53411 0.83813 0.0
O333 O 0.51171 0.5368 0.73127 0.0
O334 O 0.47991 0.53677 0.71443 0.0
O335 O 0.47041 0.52781 0.81134 0.0
O336 O 0.50185 0.52992 0.82968 0.0
O337 O 0.47651 0.48987 0.80141 0.0
H338 H 0.43877 0.53964 0.75819 0.0
H339 H 0.45148 0.48644 0.70152 0.0
O340 O 0.5076 0.49154 0.82476 0.0
O341 O 0.51725 0.49794 0.72636 0.0
O342 O 0.48591 0.49926 0.70403 0.0
C343 C 0.5037 0.49341 0.69718 0.0
H344 H 0.5836 0.51917 0.7762 0.0
H345 H 0.4067 0.53029 0.71127 0.0
Co346 Co 0.01065 0.52306 0.7603 0.0
C347 C 0.03764 0.49299 0.79859 0.0
Co348 Co 0.00147 0.49362 0.74978 0.0
C349 C 0.00995 0.55971 0.80353 0.0
C350 C 0.03571 0.55526 0.75847 0.0
N351 N 0.01859 0.5473 0.77321 0.0
N352 N 0.02113 0.57491 0.80887 0.0
C353 C 0.03728 0.57218 0.78014 0.0
H354 H 0.9962 0.55713 0.82344 0.0
H355 H 0.04676 0.5488 0.73508 0.0
C356 C 0.97446 0.52362 0.71182 0.0
N357 N 0.99364 0.46943 0.73646 0.0
C358 C 0.00324 0.45687 0.70823 0.0
C359 C 0.97599 0.4618 0.747 0.0
N360 N 0.99218 0.4419 0.6999 0.0
C361 C 0.97504 0.44492 0.7246 0.0
C362 C 0.98797 0.50545 0.8392 0.0
O363 O 0.98713 0.53464 0.727 0.0
O364 O 0.97798 0.50536 0.71796 0.0
O365 O 0.98824 0.49132 0.81262 0.0
O366 O 0.99696 0.52051 0.82337 0.0
O367 O 0.02507 0.48211 0.78232 0.0
H368 H 0.96421 0.46851 0.76774 0.0
H369 H 0.01767 0.45924 0.69168 0.0
O370 O 0.03409 0.51126 0.7931 0.0
O371 O 0.02426 0.52512 0.69728 0.0
O372 O 0.01474 0.49623 0.6869 0.0
C373 C 0.02411 0.51097 0.67086 0.0
H374 H 0.04964 0.58148 0.77596 0.0
H375 H 0.96249 0.43586 0.72544 0.0
H376 H 0.17708 0.10502 0.46996 0.0
H377 H 0.15078 0.09527 0.52891 0.0
H378 H 0.13328 0.05357 0.43081 0.0
H379 H 0.15928 0.06365 0.37076 0.0
H380 H 0.10125 0.07346 0.4662 0.0
H381 H 0.16077 0.03941 0.53705 0.0
H382 H 0.19525 0.03657 0.56902 0.0
H383 H 0.17917 0.0731 0.68453 0.0
H384 H 0.14463 0.07638 0.65277 0.0
H385 H 0.04816 0.00937 0.63212 0.0
H386 H 0.07264 0.02448 0.57563 0.0
H387 H 0.08276 0.0655 0.68233 0.0
H388 H 0.05799 0.05042 0.73954 0.0
H389 H 0.11784 0.04889 0.64521 0.0
H390 H 0.05815 0.08152 0.57854 0.0
H391 H 0.02385 0.08534 0.54614 0.0
H392 H 0.03986 0.05234 0.42346 0.0
H393 H 0.07437 0.04812 0.45537 0.0
C394 C 0.16748 0.09395 0.4605 0.0
C395 C 0.17029 0.08514 0.4155 0.0
C396 C 0.15257 0.08826 0.49455 0.0
C397 C 0.14019 0.07354 0.48459 0.0
C398 C 0.1427 0.06492 0.43935 0.0
C399 C 0.15766 0.07059 0.40525 0.0
C400 C 0.12475 0.067 0.52157 0.0
C401 C 0.1049 0.06787 0.50517 0.0
C402 C 0.12942 0.06033 0.57293 0.0
C403 C 0.15016 0.05831 0.59219 0.0
C404 C 0.16462 0.04697 0.56901 0.0
C405 C 0.18417 0.04525 0.58714 0.0
C406 C 0.18942 0.05469 0.62869 0.0
C407 C 0.1751 0.06582 0.6523 0.0
C408 C 0.15553 0.0676 0.63427 0.0
C409 C 0.05559 0.02158 0.64386 0.0
C410 C 0.05114 0.02866 0.69051 0.0
C411 C 0.0695 0.03029 0.61124 0.0
C412 C 0.07938 0.04624 0.62449 0.0
C413 C 0.07523 0.05324 0.67131 0.0
C414 C 0.06109 0.04462 0.70391 0.0
C415 C 0.09439 0.05507 0.5896 0.0
C416 C 0.11416 0.05461 0.60635 0.0
C417 C 0.08964 0.06217 0.53859 0.0
C418 C 0.06883 0.06434 0.51967 0.0
C419 C 0.05434 0.07489 0.54495 0.0
C420 C 0.03485 0.07718 0.52658 0.0
C421 C 0.02961 0.06905 0.48289 0.0
C422 C 0.04392 0.05861 0.45737 0.0
C423 C 0.06347 0.05629 0.47553 0.0
H424 H 0.0145 0.07087 0.46874 0.0
H425 H 0.20456 0.05335 0.64268 0.0
H426 H 0.46535 0.21929 0.52667 0.0
H427 H 0.47125 0.18771 0.57568 0.0
H428 H 0.47834 0.16104 0.43692 0.0
H429 H 0.47165 0.19263 0.38736 0.0
H430 H 0.45509 0.14057 0.50174 0.0
H431 H 0.51842 0.16778 0.51211 0.0
H432 H 0.54174 0.19244 0.52878 0.0
H433 H 0.52392 0.18829 0.68492 0.0
H434 H 0.50028 0.16378 0.66902 0.0
H435 H 0.4994 0.05072 0.6124 0.0
H436 H 0.49458 0.08273 0.56463 0.0
H437 H 0.4779 0.10716 0.70204 0.0
H438 H 0.48237 0.07496 0.75036 0.0
H439 H 0.50597 0.12855 0.63876 0.0
H440 H 0.44301 0.10085 0.62826 0.0
H441 H 0.41947 0.07646 0.61109 0.0
H442 H 0.43669 0.08143 0.45453 0.0
H443 H 0.46068 0.10559 0.47093 0.0
C444 C 0.46806 0.20671 0.50646 0.0
C445 C 0.46792 0.2085 0.45301 0.0
C446 C 0.47165 0.18867 0.53461 0.0
C447 C 0.47543 0.17199 0.51005 0.0
C448 C 0.4755 0.17371 0.4567 0.0
C449 C 0.47185 0.1918 0.42842 0.0
C450 C 0.47876 0.15274 0.54019 0.0
C451 C 0.46643 0.13785 0.53112 0.0
C452 C 0.49321 0.14935 0.57954 0.0
C453 C 0.50744 0.16407 0.58924 0.0
C454 C 0.51935 0.17223 0.5499 0.0
C455 C 0.53265 0.18617 0.55923 0.0
C456 C 0.53428 0.19196 0.60784 0.0
C457 C 0.52263 0.1838 0.64726 0.0
C458 C 0.50929 0.16987 0.63813 0.0
C459 C 0.49487 0.06291 0.63268 0.0
C460 C 0.49132 0.06033 0.68525 0.0
C461 C 0.49201 0.08116 0.6052 0.0
C462 C 0.48575 0.09724 0.62977 0.0
C463 C 0.4827 0.09488 0.68246 0.0
C464 C 0.48525 0.07651 0.70994 0.0
C465 C 0.48236 0.11646 0.60008 0.0
C466 C 0.49466 0.13131 0.60927 0.0
C467 C 0.46794 0.11978 0.56076 0.0
C468 C 0.45383 0.10491 0.55097 0.0
C469 C 0.442 0.09657 0.5903 0.0
C470 C 0.42852 0.08282 0.58069 0.0
C471 C 0.42659 0.07741 0.53177 0.0
C472 C 0.43821 0.08565 0.49242 0.0
C473 C 0.45176 0.09937 0.50185 0.0
H474 H 0.41601 0.0669 0.52432 0.0
H475 H 0.54459 0.20275 0.61499 0.0
H476 H 0.32759 0.43063 0.34612 0.0
H477 H 0.35316 0.44052 0.40237 0.0
H478 H 0.30818 0.47121 0.48252 0.0
H479 H 0.28272 0.46144 0.42683 0.0
H480 H 0.33908 0.49261 0.46438 0.0
H481 H 0.32916 0.42621 0.52983 0.0
H482 H 0.32827 0.39104 0.52539 0.0
H483 H 0.38984 0.38841 0.48515 0.0
H484 H 0.39108 0.42362 0.48888 0.0
H485 H 0.38432 0.50665 0.6942 0.0
H486 H 0.36323 0.49419 0.63175 0.0
H487 H 0.4149 0.46919 0.56283 0.0
H488 H 0.43617 0.48179 0.62496 0.0
H489 H 0.38388 0.44488 0.5686 0.0
H490 H 0.39432 0.51084 0.50858 0.0
H491 H 0.39536 0.5459 0.51439 0.0
H492 H 0.33285 0.54927 0.54427 0.0
H493 H 0.33149 0.51415 0.5394 0.0
C494 C 0.32318 0.43948 0.37578 0.0
C495 C 0.30312 0.44535 0.38174 0.0
C496 C 0.3378 0.44508 0.40795 0.0
C497 C 0.33258 0.45648 0.44698 0.0
C498 C 0.3126 0.4625 0.45256 0.0
C499 C 0.29805 0.45698 0.42043 0.0
C500 C 0.34775 0.46235 0.4822 0.0
C501 C 0.34873 0.48213 0.48745 0.0
C502 C 0.36084 0.44875 0.5112 0.0
C503 C 0.36013 0.4276 0.50895 0.0
C504 C 0.34247 0.41816 0.5196 0.0
C505 C 0.34192 0.39822 0.51735 0.0
C506 C 0.35898 0.38752 0.50488 0.0
C507 C 0.37665 0.39673 0.49478 0.0
C508 C 0.37728 0.41668 0.49698 0.0
C509 C 0.39123 0.49851 0.66582 0.0
C510 C 0.41196 0.49543 0.66437 0.0
C511 C 0.37915 0.49135 0.63018 0.0
C512 C 0.38753 0.48105 0.59209 0.0
C513 C 0.40814 0.47716 0.59181 0.0
C514 C 0.42027 0.48432 0.62754 0.0
C515 C 0.37473 0.47505 0.55163 0.0
C516 C 0.37429 0.45532 0.5452 0.0
C517 C 0.36212 0.48867 0.52144 0.0
C518 C 0.36284 0.50983 0.52402 0.0
C519 C 0.38082 0.51903 0.51675 0.0
C520 C 0.38146 0.53891 0.51982 0.0
C521 C 0.36419 0.5498 0.52979 0.0
C522 C 0.34622 0.54082 0.53659 0.0
C523 C 0.3455 0.52093 0.53363 0.0
H524 H 0.36471 0.56519 0.53216 0.0
H525 H 0.35853 0.37208 0.50315 0.0
H526 H 0.00188 0.31422 0.38197 0.0
H527 H 0.9942 0.33977 0.43652 0.0
H528 H 0.05646 0.3421 0.47075 0.0
H529 H 0.06417 0.31616 0.41784 0.0
H530 H 0.03544 0.34084 0.5553 0.0
H531 H 0.03149 0.37818 0.39217 0.0
H532 H 0.02019 0.38681 0.30358 0.0
H533 H 0.95999 0.39331 0.35367 0.0
H534 H 0.9709 0.38445 0.44256 0.0
H535 H 0.02872 0.42734 0.67655 0.0
H536 H 0.03658 0.40333 0.6177 0.0
H537 H 0.97417 0.39889 0.58912 0.0
H538 H 0.96623 0.42317 0.64699 0.0
H539 H 0.99532 0.40154 0.5013 0.0
H540 H 0.99951 0.36378 0.66447 0.0
H541 H 0.01106 0.35546 0.75296 0.0
H542 H 0.07125 0.35003 0.70212 0.0
H543 H 0.06007 0.35859 0.61332 0.0
C544 C 0.01394 0.3202 0.40099 0.0
C545 C 0.03366 0.31313 0.39532 0.0
C546 C 0.00955 0.33494 0.43188 0.0
C547 C 0.02477 0.34298 0.45756 0.0
C548 C 0.04446 0.33616 0.4513 0.0
C549 C 0.04887 0.32145 0.4205 0.0
C550 C 0.02015 0.35788 0.49269 0.0
C551 C 0.02691 0.35424 0.54322 0.0
C552 C 0.00862 0.37517 0.47741 0.0
C553 C 0.002 0.38046 0.42399 0.0
C554 C 0.01582 0.38128 0.38426 0.0
C555 C 0.00949 0.38625 0.334 0.0
C556 C 0.98938 0.39055 0.32299 0.0
C557 C 0.97556 0.38994 0.36225 0.0
C558 C 0.98181 0.38497 0.41259 0.0
C559 C 0.01667 0.42131 0.65765 0.0
C560 C 0.99684 0.42715 0.66676 0.0
C561 C 0.02118 0.40748 0.62425 0.0
C562 C 0.00595 0.39919 0.59925 0.0
C563 C 0.98616 0.40505 0.60804 0.0
C564 C 0.98164 0.41881 0.6416 0.0
C565 C 0.01065 0.38448 0.56373 0.0
C566 C 0.00387 0.38814 0.51323 0.0
C567 C 0.02222 0.36722 0.57897 0.0
C568 C 0.02897 0.36202 0.6323 0.0
C569 C 0.01522 0.36097 0.6722 0.0
C570 C 0.0217 0.35618 0.7224 0.0
C571 C 0.04189 0.35227 0.73317 0.0
C572 C 0.05563 0.35309 0.69373 0.0
C573 C 0.04923 0.3579 0.64345 0.0
H574 H 0.04687 0.34856 0.77206 0.0
H575 H 0.9845 0.3944 0.28405 0.0
H576 H 0.81359 0.95557 0.04345 0.0
H577 H 0.84352 0.95328 0.99215 0.0
H578 H 0.87821 0.97086 0.1143 0.0
H579 H 0.84822 0.97353 0.16545 0.0
H580 H 0.88339 0.99328 0.02584 0.0
H581 H 0.88388 0.92503 0.07986 0.0
H582 H 0.8698 0.89291 0.09305 0.0
H583 H 0.86026 0.89414 0.93239 0.0
H584 H 0.87403 0.92641 0.91828 0.0
H585 H 0.97623 0.98842 0.9187 0.0
H586 H 0.94883 0.97957 0.97454 0.0
H587 H 0.91712 0.96103 0.84849 0.0
H588 H 0.9452 0.96929 0.79227 0.0
H589 H 0.91003 0.93834 0.93703 0.0
H590 H 0.90827 0.00641 0.88222 0.0
H591 H 0.92282 0.03828 0.867 0.0
H592 H 0.93362 0.03779 0.02693 0.0
H593 H 0.91947 0.00575 0.04303 0.0
C594 C 0.82766 0.95864 0.05968 0.0
C595 C 0.82853 0.96485 0.10839 0.0
C596 C 0.84478 0.9572 0.03043 0.0
C597 C 0.86313 0.96189 0.04936 0.0
C598 C 0.8642 0.96716 0.09895 0.0
C599 C 0.84709 0.96853 0.12832 0.0
C600 C 0.88071 0.96323 0.01573 0.0
C601 C 0.88939 0.98116 0.00712 0.0
C602 C 0.88806 0.94764 0.98968 0.0
C603 C 0.87981 0.92823 0.99808 0.0
C604 C 0.87862 0.91853 0.04738 0.0
C605 C 0.87073 0.90028 0.05501 0.0
C606 C 0.86409 0.89151 0.0136 0.0
C607 C 0.86538 0.90096 0.96444 0.0
C608 C 0.87325 0.91922 0.9566 0.0
C609 C 0.96352 0.98221 0.90295 0.0
C610 C 0.9626 0.97986 0.85104 0.0
C611 C 0.94785 0.97722 0.93489 0.0
C612 C 0.93065 0.97022 0.9154 0.0
C613 C 0.93019 0.96658 0.8642 0.0
C614 C 0.94617 0.97129 0.83215 0.0
C615 C 0.9128 0.96829 0.94791 0.0
C616 C 0.904 0.9504 0.95594 0.0
C617 C 0.90511 0.98398 0.97314 0.0
C618 C 0.91293 0.00361 0.96379 0.0
C619 C 0.9138 0.01307 0.91413 0.0
C620 C 0.922 0.03116 0.90534 0.0
C621 C 0.92917 0.04003 0.94596 0.0
C622 C 0.92807 0.03089 0.9955 0.0
C623 C 0.91995 0.01277 0.00449 0.0
H624 H 0.93557 0.05401 0.93905 0.0
H625 H 0.85799 0.87738 0.01958 0.0
H626 H 0.44674 0.82006 0.0489 0.0
H627 H 0.45618 0.84635 0.98666 0.0
H628 H 0.51732 0.83623 0.03466 0.0
H629 H 0.50783 0.81011 0.0985 0.0
H630 H 0.50685 0.87382 0.02644 0.0
H631 H 0.50269 0.82399 0.91977 0.0
H632 H 0.48825 0.79674 0.88335 0.0
H633 H 0.43854 0.834 0.82615 0.0
H634 H 0.45251 0.86143 0.86287 0.0
H635 H 0.51088 0.93705 0.76246 0.0
H636 H 0.5129 0.90483 0.81141 0.0
H637 H 0.47752 0.9272 0.92939 0.0
H638 H 0.4755 0.95913 0.88146 0.0
H639 H 0.48409 0.88018 0.84674 0.0
H640 H 0.49517 0.90838 0.04332 0.0
H641 H 0.51112 0.9352 0.07799 0.0
H642 H 0.55115 0.93963 0.95215 0.0
H643 H 0.53569 0.91262 0.91705 0.0
C644 C 0.46219 0.82347 0.04651 0.0
C645 C 0.47651 0.81308 0.07898 0.0
C646 C 0.46762 0.83835 0.01037 0.0
C647 C 0.48751 0.84311 0.00545 0.0
C648 C 0.5019 0.83272 0.03757 0.0
C649 C 0.49647 0.81776 0.07385 0.0
C650 C 0.49285 0.85967 0.96862 0.0
C651 C 0.50207 0.87511 0.98703 0.0
C652 C 0.48708 0.86118 0.9168 0.0
C653 C 0.47863 0.84476 0.89431 0.0
C654 C 0.48861 0.82635 0.8997 0.0
C655 C 0.48052 0.81087 0.87896 0.0
C656 C 0.46248 0.81363 0.8525 0.0
C657 C 0.45252 0.83189 0.84664 0.0
C658 C 0.46054 0.84742 0.86734 0.0
C659 C 0.50346 0.93504 0.79872 0.0
C660 C 0.4931 0.95069 0.81811 0.0
C661 C 0.50464 0.91665 0.8266 0.0
C662 C 0.49565 0.91373 0.8744 0.0
C663 C 0.4849 0.92921 0.89305 0.0
C664 C 0.48367 0.94747 0.86536 0.0
C665 C 0.49717 0.89458 0.90536 0.0
C666 C 0.48924 0.87869 0.88587 0.0
C667 C 0.50443 0.89253 0.95597 0.0
C668 C 0.51417 0.90851 0.97742 0.0
C669 C 0.50747 0.91496 0.02321 0.0
C670 C 0.51641 0.93023 0.04288 0.0
C671 C 0.53212 0.93913 0.0172 0.0
C672 C 0.53896 0.93274 0.97188 0.0
C673 C 0.5301 0.91747 0.95206 0.0
H674 H 0.539 0.95097 0.03245 0.0
H675 H 0.45624 0.80163 0.83648 0.0
H676 H 0.67905 0.53189 0.22744 0.0
H677 H 0.64902 0.53459 0.17451 0.0
H678 H 0.68388 0.55098 0.04195 0.0
H679 H 0.7137 0.54913 0.09479 0.0
H680 H 0.64903 0.57012 0.03396 0.0
H681 H 0.6724 0.50331 0.07765 0.0
H682 H 0.68189 0.4743 0.13668 0.0
H683 H 0.62347 0.47536 0.20051 0.0
H684 H 0.61373 0.50456 0.14223 0.0
H685 H 0.59982 0.53652 0.82931 0.0
H686 H 0.62202 0.54338 0.89645 0.0
H687 H 0.57893 0.52477 0.00884 0.0
H688 H 0.55693 0.51686 0.94179 0.0
H689 H 0.61393 0.50924 0.03584 0.0
H690 H 0.58983 0.57466 0.98108 0.0
H691 H 0.58184 0.60365 0.92047 0.0
H692 H 0.64257 0.60443 0.87342 0.0
H693 H 0.65102 0.57556 0.93388 0.0
C694 C 0.68022 0.53659 0.18725 0.0
C695 C 0.69882 0.54002 0.16519 0.0
C696 C 0.66307 0.53794 0.15694 0.0
C697 C 0.66425 0.54254 0.10404 0.0
C698 C 0.68258 0.54725 0.08258 0.0
C699 C 0.69967 0.54603 0.1128 0.0
C700 C 0.64691 0.54106 0.07024 0.0
C701 C 0.64135 0.5568 0.03428 0.0
C702 C 0.63661 0.52382 0.07124 0.0
C703 C 0.64241 0.50623 0.10606 0.0
C704 C 0.66163 0.49743 0.10453 0.0
C705 C 0.66705 0.48095 0.1378 0.0
C706 C 0.65331 0.47303 0.17244 0.0
C707 C 0.63411 0.48154 0.17374 0.0
C708 C 0.62863 0.49805 0.1406 0.0
C709 C 0.595 0.53373 0.86817 0.0
C710 C 0.57651 0.52595 0.87977 0.0
C711 C 0.60765 0.53801 0.90668 0.0
C712 C 0.60205 0.53495 0.95782 0.0
C713 C 0.58354 0.52741 0.96965 0.0
C714 C 0.5709 0.52298 0.93111 0.0
C715 C 0.6162 0.53821 0.99881 0.0
C716 C 0.62123 0.52274 0.03609 0.0
C717 C 0.62615 0.55564 0.99861 0.0
C718 C 0.62102 0.57287 0.96181 0.0
C719 C 0.60145 0.58093 0.95757 0.0
C720 C 0.59685 0.59736 0.92331 0.0
C721 C 0.61163 0.60578 0.89293 0.0
C722 C 0.63111 0.59788 0.89692 0.0
C723 C 0.63584 0.58154 0.93133 0.0
H724 H 0.608 0.61848 0.86641 0.0
H725 H 0.65753 0.46026 0.19817 0.0
H726 H 0.02395 0.67263 0.1841 0.0
H727 H 0.01978 0.6502 0.12063 0.0
H728 H 0.99443 0.69706 0.01599 0.0
H729 H 0.99913 0.71973 0.07889 0.0
H730 H 0.98994 0.63789 0.06729 0.0
H731 H 0.01223 0.69106 0.89754 0.0
H732 H 0.03094 0.72056 0.8801 0.0
H733 H 0.06661 0.70373 0.01377 0.0
H734 H 0.0483 0.67404 0.03158 0.0
H735 H 0.98569 0.58901 0.84224 0.0
H736 H 0.98042 0.61324 0.9021 0.0
H737 H 0.04369 0.61803 0.91312 0.0
H738 H 0.049 0.59409 0.8536 0.0
H739 H 0.02606 0.65257 0.90595 0.0
H740 H 0.01614 0.59082 0.0022 0.0
H741 H 1.00006 0.55997 0.02295 0.0
H742 H 0.94452 0.59107 0.04397 0.0
H743 H 0.96009 0.62207 0.02164 0.0
C744 C 0.01739 0.67816 0.14767 0.0
C745 C 0.01214 0.69803 0.13634 0.0
C746 C 0.01483 0.66528 0.11157 0.0
C747 C 0.00704 0.67197 0.06327 0.0
C748 C 0.0007 0.6916 0.05281 0.0
C749 C 0.00326 0.70452 0.08895 0.0
C750 C 0.00713 0.65869 0.0229 0.0
C751 C 0.99767 0.64115 0.03177 0.0
C752 C 0.01744 0.6628 0.97684 0.0
C753 C 0.02872 0.68048 0.96618 0.0
C754 C 0.0241 0.69365 0.9231 0.0
C755 C 0.03463 0.7104 0.91316 0.0
C756 C 0.0499 0.71405 0.94591 0.0
C757 C 0.05473 0.70093 0.98855 0.0
C758 C 0.04427 0.68415 0.9986 0.0
C759 C 0.99846 0.59523 0.85748 0.0
C760 C 0.01777 0.58961 0.84288 0.0
C761 C 0.99542 0.60909 0.89169 0.0
C762 C 0.01167 0.61742 0.91243 0.0
C763 C 0.0309 0.61196 0.89743 0.0
C764 C 0.03392 0.59825 0.86315 0.0
C765 C 0.00897 0.63163 0.95029 0.0
C766 C 0.01798 0.64939 0.94098 0.0
C767 C 0.99858 0.62749 0.99633 0.0
C768 C 0.98923 0.60878 0.00955 0.0
C769 C 0.00044 0.59108 0.01061 0.0
C770 C 0.99141 0.57355 0.02262 0.0
C771 C 0.97126 0.57354 0.03449 0.0
C772 C 0.9601 0.59107 0.03445 0.0
C773 C 0.96901 0.60862 0.02197 0.0
H774 H 0.9643 0.55997 0.04394 0.0
H775 H 0.05802 0.72703 0.93818 0.0
H776 H 0.0485 0.15885 0.46664 0.0
H777 H 0.03349 0.13082 0.51179 0.0
H778 H 0.97609 0.15169 0.45047 0.0
H779 H 0.99089 0.18006 0.40601 0.0
H780 H 0.00467 0.12905 0.58405 0.0
H781 H 0.95166 0.11067 0.42734 0.0
H782 H 0.94925 0.11391 0.33374 0.0
H783 H 0.01274 0.11354 0.32346 0.0
H784 H 0.01551 0.11014 0.41692 0.0
H785 H 0.95827 0.05317 0.70934 0.0
H786 H 0.95659 0.08237 0.64863 0.0
H787 H 0.99238 0.05243 0.54403 0.0
H788 H 0.99326 0.02302 0.60347 0.0
H789 H 0.97079 0.08137 0.49284 0.0
H790 H 0.01476 0.0731 0.64005 0.0
H791 H 0.02249 0.06736 0.73176 0.0
H792 H 0.98515 0.11714 0.75801 0.0
H793 H 0.97718 0.1232 0.66642 0.0
C794 C 0.03264 0.15766 0.4633 0.0
C795 C 0.02091 0.17174 0.43275 0.0
C796 C 0.02411 0.14159 0.48892 0.0
C797 C 0.00371 0.13918 0.48424 0.0
C798 C 0.9919 0.15321 0.45409 0.0
C799 C 0.0004 0.16936 0.42861 0.0
C800 C 0.99493 0.12196 0.51126 0.0
C801 C 0.99701 0.11877 0.56419 0.0
C802 C 0.98524 0.10841 0.48519 0.0
C803 C 0.98375 0.11042 0.42903 0.0
C804 C 0.96509 0.11128 0.40505 0.0
C805 C 0.96367 0.11315 0.35205 0.0
C806 C 0.98083 0.11403 0.32267 0.0
C807 C 0.99946 0.11299 0.34623 0.0
C808 C 0.00096 0.11113 0.39921 0.0
C809 C 0.96481 0.05255 0.6722 0.0
C810 C 0.9761 0.03598 0.66123 0.0
C811 C 0.96399 0.06927 0.63771 0.0
C812 C 0.97497 0.06975 0.59268 0.0
C813 C 0.98394 0.05244 0.57875 0.0
C814 C 0.98437 0.03557 0.61274 0.0
C815 C 0.98047 0.08849 0.56571 0.0
C816 C 0.97786 0.09197 0.51286 0.0
C817 C 0.9903 0.10206 0.59161 0.0
C818 C 0.99523 0.09851 0.64655 0.0
C819 C 0.00816 0.08279 0.66541 0.0
C820 C 0.01262 0.0795 0.71733 0.0
C821 C 0.00435 0.0919 0.75063 0.0
C822 C 0.99161 0.10761 0.73212 0.0
C823 C 0.98713 0.111 0.68024 0.0
H824 H 0.00786 0.08938 0.79075 0.0
H825 H 0.97969 0.11546 0.28165 0.0
H826 H 0.3324 0.09694 0.4161 0.0
H827 H 0.35943 0.07941 0.46631 0.0
H828 H 0.31906 0.03729 0.52889 0.0
H829 H 0.29206 0.0542 0.47732 0.0
H830 H 0.34495 0.0515 0.60147 0.0
H831 H 0.34755 0.02439 0.4415 0.0
H832 H 0.34901 0.02625 0.3481 0.0
H833 H 0.40423 0.05405 0.34949 0.0
H834 H 0.40294 0.05262 0.44287 0.0
H835 H 0.42267 0.99251 0.72709 0.0
H836 H 0.39283 0.00239 0.67559 0.0
H837 H 0.4288 0.034 0.56367 0.0
H838 H 0.45846 0.02255 0.61247 0.0
H839 H 0.4025 0.02234 0.5155 0.0
H840 H 0.3988 0.05447 0.67011 0.0
H841 H 0.39735 0.05591 0.76265 0.0
H842 H 0.34559 0.02248 0.77132 0.0
H843 H 0.34672 0.02092 0.67875 0.0
C844 C 0.32925 0.08387 0.44019 0.0
C845 C 0.31002 0.07694 0.44233 0.0
C846 C 0.3447 0.07394 0.46901 0.0
C847 C 0.34121 0.057 0.50082 0.0
C848 C 0.32199 0.05037 0.50448 0.0
C849 C 0.30655 0.06016 0.47523 0.0
C850 C 0.35774 0.0461 0.52982 0.0
C851 C 0.35748 0.0449 0.58289 0.0
C852 C 0.37416 0.03788 0.50528 0.0
C853 C 0.37506 0.03853 0.44916 0.0
C854 C 0.35993 0.03103 0.42187 0.0
C855 C 0.36074 0.03198 0.36892 0.0
C856 C 0.37668 0.0403 0.34286 0.0
C857 C 0.39188 0.04762 0.36972 0.0
C858 C 0.39113 0.04673 0.42266 0.0
C859 C 0.42407 0.00119 0.69083 0.0
C860 C 0.44273 0.00667 0.67333 0.0
C861 C 0.40703 0.00713 0.66177 0.0
C862 C 0.40832 0.01961 0.61634 0.0
C863 C 0.42718 0.0245 0.59845 0.0
C864 C 0.44421 0.01789 0.62631 0.0
C865 C 0.39026 0.02817 0.58787 0.0
C866 C 0.39009 0.02888 0.53458 0.0
C867 C 0.37365 0.0364 0.61222 0.0
C868 C 0.37298 0.0374 0.66773 0.0
C869 C 0.38718 0.04737 0.69184 0.0
C870 C 0.3864 0.0482 0.74428 0.0
C871 C 0.37147 0.03915 0.7729 0.0
C872 C 0.35718 0.02941 0.74911 0.0
C873 C 0.35785 0.0286 0.69668 0.0
H874 H 0.37089 0.03969 0.81348 0.0
H875 H 0.37728 0.04103 0.30188 0.0
H876 H 0.48337 0.3346 0.52486 0.0
H877 H 0.49428 0.36147 0.56853 0.0
H878 H 0.50258 0.39511 0.42408 0.0
H879 H 0.49179 0.36825 0.38017 0.0
H880 H 0.53182 0.40067 0.4984 0.0
H881 H 0.46081 0.40168 0.47608 0.0
H882 H 0.42782 0.38813 0.48259 0.0
H883 H 0.43397 0.37873 0.64498 0.0
H884 H 0.46718 0.39198 0.6393 0.0
H885 H 0.48183 0.49046 0.61305 0.0
H886 H 0.48344 0.46397 0.56013 0.0
H887 H 0.53527 0.43855 0.6431 0.0
H888 H 0.53394 0.46546 0.69593 0.0
H889 H 0.47763 0.42827 0.59924 0.0
H890 H 0.56029 0.40763 0.56449 0.0
H891 H 0.59196 0.42349 0.5509 0.0
H892 H 0.56045 0.47644 0.49112 0.0
H893 H 0.52864 0.46084 0.50369 0.0
C894 C 0.48798 0.34755 0.50244 0.0
C895 C 0.48651 0.34947 0.44919 0.0
C896 C 0.49417 0.36287 0.52739 0.0
C897 C 0.49909 0.38028 0.49944 0.0
C898 C 0.49888 0.38176 0.44624 0.0
C899 C 0.49253 0.36651 0.42129 0.0
C900 C 0.50196 0.39767 0.52545 0.0
C901 C 0.52007 0.40669 0.52078 0.0
C902 C 0.48646 0.40568 0.55366 0.0
C903 C 0.46656 0.39759 0.55721 0.0
C904 C 0.45521 0.39654 0.51313 0.0
C905 C 0.43645 0.38896 0.51668 0.0
C906 C 0.42881 0.38253 0.56417 0.0
C907 C 0.43992 0.38369 0.60821 0.0
C908 C 0.45871 0.39123 0.60485 0.0
C909 C 0.4939 0.47951 0.6192 0.0
C910 C 0.50766 0.47989 0.65886 0.0
C911 C 0.49477 0.46435 0.58901 0.0
C912 C 0.50933 0.44918 0.59803 0.0
C913 C 0.52397 0.45018 0.63532 0.0
C914 C 0.52322 0.46555 0.66541 0.0
C915 C 0.50755 0.43146 0.57242 0.0
C916 C 0.48955 0.42225 0.57735 0.0
C917 C 0.52303 0.42362 0.54372 0.0
C918 C 0.54208 0.43311 0.53563 0.0
C919 C 0.56013 0.42264 0.54833 0.0
C920 C 0.57811 0.43159 0.54081 0.0
C921 C 0.57821 0.45098 0.52034 0.0
C922 C 0.56034 0.46145 0.50719 0.0
C923 C 0.54234 0.45257 0.5146 0.0
H924 H 0.59214 0.45788 0.51456 0.0
H925 H 0.41427 0.37668 0.56686 0.0
H926 H 0.1429 0.42813 0.39602 0.0
H927 H 0.11601 0.44493 0.43813 0.0
H928 H 0.15589 0.48806 0.4734 0.0
H929 H 0.18295 0.47115 0.43173 0.0
H930 H 0.13258 0.47814 0.55254 0.0
H931 H 0.12272 0.49757 0.37495 0.0
H932 H 0.11928 0.49251 0.28474 0.0
H933 H 0.06738 0.46064 0.31899 0.0
H934 H 0.07068 0.46525 0.40957 0.0
H935 H 0.05363 0.53489 0.63919 0.0
H936 H 0.07966 0.52828 0.57824 0.0
H937 H 0.04989 0.47822 0.54173 0.0
H938 H 0.02377 0.48482 0.60175 0.0
H939 H 0.06935 0.4963 0.45866 0.0
H940 H 0.08222 0.47329 0.63684 0.0
H941 H 0.08415 0.47955 0.72651 0.0
H942 H 0.13027 0.51879 0.69004 0.0
H943 H 0.12829 0.51307 0.59985 0.0
C944 C 0.14592 0.4412 0.41275 0.0
C945 C 0.16497 0.44841 0.4103 0.0
C946 C 0.13055 0.4508 0.43669 0.0
C947 C 0.13385 0.46797 0.45798 0.0
C948 C 0.15301 0.47489 0.45701 0.0
C949 C 0.16845 0.46519 0.43336 0.0
C950 C 0.11722 0.47871 0.48086 0.0
C951 C 0.11892 0.48244 0.53166 0.0
C952 C 0.09929 0.48417 0.45379 0.0
C953 C 0.09703 0.48166 0.39915 0.0
C954 C 0.11063 0.4894 0.3633 0.0
C955 C 0.10871 0.48661 0.31209 0.0
C956 C 0.09314 0.47623 0.29616 0.0
C957 C 0.07944 0.46867 0.33139 0.0
C958 C 0.08131 0.47139 0.38267 0.0
C959 C 0.05229 0.52286 0.61694 0.0
C960 C 0.03688 0.51015 0.62593 0.0
C961 C 0.06719 0.51908 0.58225 0.0
C962 C 0.06686 0.50254 0.55636 0.0
C963 C 0.05045 0.491 0.56152 0.0
C964 C 0.03559 0.49475 0.5961 0.0
C965 C 0.08471 0.49547 0.53019 0.0
C966 C 0.08319 0.49232 0.47902 0.0
C967 C 0.1028 0.49053 0.55685 0.0
C968 C 0.10494 0.49294 0.61154 0.0
C969 C 0.09272 0.4833 0.64793 0.0
C970 C 0.09374 0.48684 0.69877 0.0
C971 C 0.10716 0.49974 0.71383 0.0
C972 C 0.11975 0.50894 0.6782 0.0
C973 C 0.1187 0.50555 0.62722 0.0
H974 H 0.108 0.50242 0.75322 0.0
H975 H 0.09169 0.47407 0.25651 0.0
H976 H 0.06981 0.82238 0.08183 0.0
H977 H 0.07074 0.8541 0.03131 0.0
H978 H 0.03854 0.88065 0.1483 0.0
H979 H 0.03754 0.84907 0.19881 0.0
H980 H 0.02218 0.88983 0.05104 0.0
H981 H 0.08552 0.88892 0.13432 0.0
H982 H 0.11882 0.87522 0.16124 0.0
H983 H 0.136 0.87524 0.00528 0.0
H984 H 0.10269 0.88868 0.97739 0.0
H985 H 0.02565 0.98566 0.93919 0.0
H986 H 0.0344 0.95858 0.00404 0.0
H987 H 0.06429 0.92777 0.89108 0.0
H988 H 0.05522 0.95459 0.82591 0.0
H989 H 0.08297 0.92199 0.99065 0.0
H990 H 0.0207 0.9186 0.90636 0.0
H991 H 0.9871 0.92928 0.87452 0.0
H992 H 0.96778 0.9348 0.02676 0.0
H993 H 0.00145 0.92454 0.0595 0.0
C994 C 0.06305 0.83502 0.0968 0.0
C995 C 0.05366 0.83329 0.14425 0.0
C996 C 0.0637 0.85311 0.06814 0.0
C997 C 0.05483 0.86971 0.08632 0.0
C998 C 0.04557 0.86802 0.13379 0.0
C999 C 0.0451 0.85001 0.16267 0.0
C1000 C 0.05411 0.88862 0.05448 0.0
C1001 C 0.03546 0.89708 0.03875 0.0
C1002 C 0.07148 0.89768 0.03713 0.0
C1003 C 0.09154 0.88964 0.05377 0.0
C1004 C 0.09633 0.88584 0.10575 0.0
C1005 C 0.11523 0.87816 0.12119 0.0
C1006 C 0.1295 0.87432 0.085 0.0
C1007 C 0.12492 0.8782 0.03328 0.0
C1008 C 0.10604 0.88587 0.01763 0.0
C1009 C 0.03473 0.97343 0.9286 0.0
C1010 C 0.03971 0.97213 0.87761 0.0
C1011 C 0.03961 0.95795 0.96557 0.0
C1012 C 0.04979 0.94115 0.95208 0.0
C1013 C 0.05644 0.94063 0.90215 0.0
C1014 C 0.05124 0.95593 0.86502 0.0
C1015 C 0.05105 0.92323 0.98786 0.0
C1016 C 0.06972 0.9149 0.00385 0.0
C1017 C 0.03371 0.91406 0.00494 0.0
C1018 C 0.01367 0.92105 0.98532 0.0
C1019 C 0.00939 0.9224 0.933 0.0
C1020 C 0.99032 0.9283 0.9148 0.0
C1021 C 0.97532 0.93264 0.94863 0.0
C1022 C 0.97943 0.93139 0.00065 0.0
C1023 C 0.99851 0.92556 0.01904 0.0
H1024 H 0.96049 0.93682 0.93454 0.0
H1025 H 0.14412 0.86837 0.09703 0.0
H1026 H 0.69836 0.99169 0.0155 0.0
H1027 H 0.66936 0.99457 0.95895 0.0
H1028 H 0.63169 0.00674 0.08432 0.0
H1029 H 0.66076 0.00448 0.1405 0.0
H1030 H 0.63733 0.97551 0.95593 0.0
H1031 H 0.59299 0.03681 0.04477 0.0
H1032 H 0.5993 0.06481 0.09092 0.0
H1033 H 0.65654 0.06923 0.02164 0.0
H1034 H 0.65048 0.04142 0.97458 0.0
H1035 H 0.52887 0.01412 0.89828 0.0
H1036 H 0.55916 0.01245 0.94921 0.0
H1037 H 0.59401 0.00298 0.81696 0.0
H1038 H 0.56364 0.00404 0.76588 0.0
H1039 H 0.59067 0.03347 0.94525 0.0
H1040 H 0.63531 0.97374 0.85424 0.0
H1041 H 0.62962 0.94638 0.8053 0.0
H1042 H 0.57266 0.93965 0.87471 0.0
H1043 H 0.57817 0.96675 0.92495 0.0
C1044 C 0.68385 0.99495 0.03087 0.0
C1045 C 0.68175 0.99802 0.08215 0.0
C1046 C 0.66732 0.99658 0.99861 0.0
C1047 C 0.64839 0.00117 0.01716 0.0
C1048 C 0.64621 0.00367 0.06882 0.0
C1049 C 0.66278 0.00234 0.10091 0.0
C1050 C 0.63094 0.00337 0.98243 0.0
C1051 C 0.62727 0.9883 0.95309 0.0
C1052 C 0.61767 0.01995 0.97914 0.0
C1053 C 0.62134 0.03692 0.00653 0.0
C1054 C 0.60688 0.04382 0.03921 0.0
C1055 C 0.61042 0.05964 0.06556 0.0
C1056 C 0.62833 0.06875 0.05933 0.0
C1057 C 0.64271 0.06211 0.02657 0.0
C1058 C 0.63923 0.04631 1.00008 0.0
C1059 C 0.54297 0.01178 0.87989 0.0
C1060 C 0.54386 0.00912 0.82809 0.0
C1061 C 0.56028 0.01085 0.90908 0.0
C1062 C 0.57882 0.00733 0.88708 0.0
C1063 C 0.57983 0.00533 0.83495 0.0
C1064 C 0.56248 0.00605 0.80576 0.0
C1065 C 0.59697 0.00555 0.91919 0.0
C1066 C 0.60077 0.02071 0.948 0.0
C1067 C 0.61042 0.98912 0.92167 0.0
C1068 C 0.60708 0.97242 0.89293 0.0
C1069 C 0.62161 0.96635 0.85929 0.0
C1070 C 0.61841 0.9509 0.83131 0.0
C1071 C 0.60075 0.94133 0.83675 0.0
C1072 C 0.58631 0.94711 0.87048 0.0
C1073 C 0.58946 0.96252 0.89873 0.0
H1074 H 0.59828 0.92941 0.81489 0.0
H1075 H 0.63106 0.08098 0.07983 0.0
H1076 H 0.42848 0.68512 0.04695 0.0
H1077 H 0.43348 0.65643 0.00129 0.0
H1078 H 0.48016 0.63409 0.1067 0.0
H1079 H 0.47525 0.66267 0.15239 0.0
H1080 H 0.49008 0.63262 0.00368 0.0
H1081 H 0.43734 0.61504 0.11956 0.0
H1082 H 0.40469 0.61973 0.15929 0.0
H1083 H 0.37599 0.62054 0.01419 0.0
H1084 H 0.40851 0.61614 0.97345 0.0
H1085 H 0.50459 0.5407 0.92211 0.0
H1086 H 0.49699 0.56556 0.9787 0.0
H1087 H 0.44345 0.58353 0.8928 0.0
H1088 H 0.45042 0.55797 0.83806 0.0
H1089 H 0.43692 0.58702 0.98805 0.0
H1090 H 0.48802 0.60652 0.87039 0.0
H1091 H 0.51993 0.60133 0.82729 0.0
H1092 H 0.55079 0.59799 0.97019 0.0
H1093 H 0.51906 0.60297 0.01413 0.0
C1094 C 0.43983 0.67409 0.06021 0.0
C1095 C 0.45142 0.67603 0.10328 0.0
C1096 C 0.4426 0.65771 0.03434 0.0
C1097 C 0.4571 0.64313 0.05093 0.0
C1098 C 0.46886 0.64517 0.09347 0.0
C1099 C 0.46596 0.66142 0.11965 0.0
C1100 C 0.46017 0.62579 0.0237 0.0
C1101 C 0.47856 0.62251 0.00076 0.0
C1102 C 0.44494 0.61292 0.0189 0.0
C1103 C 0.42537 0.61546 0.04339 0.0
C1104 C 0.42408 0.61639 0.09605 0.0
C1105 C 0.4056 0.61896 0.11877 0.0
C1106 C 0.38828 0.62048 0.08927 0.0
C1107 C 0.38941 0.61939 0.03699 0.0
C1108 C 0.40787 0.61684 0.01408 0.0
C1109 C 0.49105 0.54977 0.91591 0.0
C1110 C 0.47817 0.54756 0.87555 0.0
C1111 C 0.48676 0.56402 0.94805 0.0
C1112 C 0.46991 0.57676 0.93916 0.0
C1113 C 0.45656 0.57393 0.90031 0.0
C1114 C 0.46059 0.55936 0.86899 0.0
C1115 C 0.46687 0.59379 0.96796 0.0
C1116 C 0.44848 0.59708 0.99103 0.0
C1117 C 0.48199 0.60688 0.97219 0.0
C1118 C 0.50118 0.60501 0.94554 0.0
C1119 C 0.50163 0.60473 0.89254 0.0
C1120 C 0.51967 0.6018 0.86798 0.0
C1121 C 0.53736 0.59933 0.89594 0.0
C1122 C 0.53708 0.59994 0.94851 0.0
C1123 C 0.51908 0.60285 0.97327 0.0
H1124 H 0.55127 0.59691 0.87681 0.0
H1125 H 0.37398 0.62247 0.10692 0.0
H1126 H 0.83224 0.52368 0.09122 0.0
H1127 H 0.8618 0.52267 0.03828 0.0
H1128 H 0.89825 0.50717 0.17224 0.0
H1129 H 0.8686 0.50775 0.22528 0.0
H1130 H 0.89419 0.54149 0.02932 0.0
H1131 H 0.93677 0.47675 0.14459 0.0
H1132 H 0.92988 0.44785 0.20337 0.0
H1133 H 0.87213 0.44648 0.13602 0.0
H1134 H 0.87878 0.47519 0.07645 0.0
H1135 H 0.98674 0.53146 0.9096 0.0
H1136 H 0.96326 0.53318 0.97933 0.0
H1137 H 0.93766 0.48105 0.94155 0.0
H1138 H 0.96141 0.47889 0.87298 0.0
H1139 H 0.93788 0.4814 0.04055 0.0
H1140 H 0.91875 0.52646 0.8949 0.0
H1141 H 0.92411 0.55361 0.82911 0.0
H1142 H 0.93053 0.59164 0.94446 0.0
H1143 H 0.92541 0.56461 0.011 0.0
C1144 C 0.84659 0.52022 0.10937 0.0
C1145 C 0.84814 0.51565 0.16227 0.0
C1146 C 0.86346 0.51966 0.07912 0.0
C1147 C 0.88222 0.51463 0.1012 0.0
C1148 C 0.88389 0.51073 0.15426 0.0
C1149 C 0.86697 0.51105 0.1845 0.0
C1150 C 0.89984 0.51283 0.06832 0.0
C1151 C 0.90381 0.52839 0.03202 0.0
C1152 C 0.91228 0.49566 0.07134 0.0
C1153 C 0.9082 0.47824 0.10652 0.0
C1154 C 0.92263 0.47023 0.14226 0.0
C1155 C 0.91876 0.4539 0.17571 0.0
C1156 C 0.90055 0.44538 0.17356 0.0
C1157 C 0.8862 0.45313 0.13779 0.0
C1158 C 0.89001 0.46945 0.10421 0.0
C1159 C 0.97633 0.52017 0.91674 0.0
C1160 C 0.97577 0.50514 0.88545 0.0
C1161 C 0.9629 0.52121 0.95651 0.0
C1162 C 0.94846 0.50745 0.965 0.0
C1163 C 0.94864 0.49185 0.93564 0.0
C1164 C 0.9622 0.49067 0.89631 0.0
C1165 C 0.93216 0.51001 0.00148 0.0
C1166 C 0.92844 0.4946 0.03842 0.0
C1167 C 0.91959 0.5271 0.99801 0.0
C1168 C 0.92202 0.54347 0.95795 0.0
C1169 C 0.92141 0.54059 0.90625 0.0
C1170 C 0.9244 0.55595 0.86882 0.0
C1171 C 0.92776 0.57432 0.88262 0.0
C1172 C 0.92801 0.57739 0.93386 0.0
C1173 C 0.92506 0.56206 0.97143 0.0
H1174 H 0.93012 0.58618 0.85362 0.0
H1175 H 0.89758 0.43275 0.19952 0.0
H1176 H 0.01984 0.20065 0.14078 0.0
H1177 H 0.01375 0.17529 0.08682 0.0
H1178 H 0.0733 0.17832 0.0292 0.0
H1179 H 0.07946 0.20401 0.08276 0.0
H1180 H 0.0439 0.1718 0.95432 0.0
H1181 H 0.06678 0.14586 0.12141 0.0
H1182 H 0.06646 0.14306 0.215 0.0
H1183 H 0.00688 0.12442 0.21508 0.0
H1184 H 0.00671 0.12744 0.12138 0.0
H1185 H 0.04021 0.07847 0.86415 0.0
H1186 H 0.05184 0.10534 0.90716 0.0
H1187 H 0.99868 0.10501 0.99728 0.0
H1188 H 0.98749 0.07793 0.95618 0.0
H1189 H 0.02909 0.10975 0.05463 0.0
H1190 H 0.00438 0.13843 0.89029 0.0
H1191 H 0.00299 0.14246 0.79666 0.0
H1192 H 0.06425 0.15612 0.79112 0.0
H1193 H 0.06602 0.15212 0.88483 0.0
C1194 C 0.03145 0.19641 0.11546 0.0
C1195 C 0.05018 0.20429 0.11628 0.0
C1196 C 0.028 0.18178 0.08494 0.0
C1197 C 0.04318 0.17473 0.05464 0.0
C1198 C 0.06142 0.1835 0.05249 0.0
C1199 C 0.06494 0.1981 0.08327 0.0
C1200 C 0.04051 0.15704 0.02935 0.0
C1201 C 0.04096 0.15814 0.97616 0.0
C1202 C 0.03648 0.13928 0.05793 0.0
C1203 C 0.03668 0.13703 0.11434 0.0
C1204 C 0.05356 0.14128 0.14136 0.0
C1205 C 0.05347 0.13965 0.19443 0.0
C1206 C 0.03664 0.13361 0.22097 0.0
C1207 C 0.01989 0.12911 0.19448 0.0
C1208 C 0.01989 0.13077 0.14138 0.0
C1209 C 0.03121 0.08395 0.89373 0.0
C1210 C 0.01284 0.07618 0.90639 0.0
C1211 C 0.03775 0.09944 0.91789 0.0
C1212 C 0.02599 0.10742 0.95498 0.0
C1213 C 0.008 0.0992 0.96871 0.0
C1214 C 0.00153 0.08379 0.9448 0.0
C1215 C 0.03196 0.12453 0.97931 0.0
C1216 C 0.03222 0.12332 0.03258 0.0
C1217 C 0.03646 0.14218 0.95073 0.0
C1218 C 0.03539 0.14477 0.89449 0.0
C1219 C 0.01758 0.14218 0.86908 0.0
C1220 C 0.01672 0.14446 0.81601 0.0
C1221 C 0.03354 0.14942 0.78794 0.0
C1222 C 0.05124 0.15223 0.81291 0.0
C1223 C 0.05217 0.15 0.86599 0.0
H1224 H 0.03285 0.15114 0.74685 0.0
H1225 H 0.0366 0.13239 0.26205 0.0
H1226 H 0.27465 0.08765 0.05697 0.0
H1227 H 0.30285 0.08096 0.00173 0.0
H1228 H 0.33831 0.05919 0.13345 0.0
H1229 H 0.31046 0.06587 0.18849 0.0
H1230 H 0.35681 0.08676 0.06723 0.0
H1231 H 0.32076 0.02854 0.06047 0.0
H1232 H 0.29159 0.01053 0.04235 0.0
H1233 H 0.29239 0.03471 0.88606 0.0
H1234 H 0.32142 0.0531 0.90346 0.0
H1235 H 0.44064 0.03488 0.99269 0.0
H1236 H 0.40983 0.04677 0.02736 0.0
H1237 H 0.38403 0.05655 0.87721 0.0
H1238 H 0.41456 0.04304 0.84201 0.0
H1239 H 0.35863 0.03944 0.94014 0.0
H1240 H 0.39642 0.09468 0.94233 0.0
H1241 H 0.42535 0.1134 0.95795 0.0
H1242 H 0.42084 0.09682 0.11835 0.0
H1243 H 0.39204 0.07776 0.10368 0.0
C1244 C 0.28842 0.08127 0.07399 0.0
C1245 C 0.29026 0.07714 0.12708 0.0
C1246 C 0.30448 0.07743 0.04244 0.0
C1247 C 0.32267 0.06959 0.06355 0.0
C1248 C 0.32442 0.06525 0.11639 0.0
C1249 C 0.30839 0.06888 0.14777 0.0
C1250 C 0.34024 0.0664 0.03131 0.0
C1251 C 0.35728 0.07634 0.03961 0.0
C1252 C 0.34055 0.05343 0.99378 0.0
C1253 C 0.32308 0.04241 0.98343 0.0
C1254 C 0.31459 0.03018 0.02237 0.0
C1255 C 0.29811 0.01987 0.0122 0.0
C1256 C 0.29009 0.02153 0.96313 0.0
C1257 C 0.29858 0.03347 0.92409 0.0
C1258 C 0.31505 0.04384 0.93408 0.0
C1259 C 0.42849 0.03928 0.96662 0.0
C1260 C 0.43024 0.03762 0.91426 0.0
C1261 C 0.41084 0.04642 0.98667 0.0
C1262 C 0.39456 0.05267 0.95489 0.0
C1263 C 0.39634 0.05162 0.90247 0.0
C1264 C 0.41394 0.04411 0.88234 0.0
C1265 C 0.37552 0.05932 0.97727 0.0
C1266 C 0.35816 0.05011 0.96708 0.0
C1267 C 0.37483 0.07317 0.0127 0.0
C1268 C 0.39212 0.08469 0.02183 0.0
C1269 C 0.40167 0.09492 0.98092 0.0
C1270 C 0.41804 0.10561 0.98961 0.0
C1271 C 0.42494 0.10628 0.0391 0.0
C1272 C 0.41547 0.09629 0.08003 0.0
C1273 C 0.3991 0.08556 0.07155 0.0
H1274 H 0.43762 0.11456 0.04575 0.0
H1275 H 0.27734 0.01352 0.95533 0.0
H1276 H 0.45278 0.32154 0.08687 0.0
H1277 H 0.45874 0.34867 0.02334 0.0
H1278 H 0.50504 0.36636 0.11782 0.0
H1279 H 0.49821 0.34018 0.18305 0.0
H1280 H 0.48241 0.396 0.08877 0.0
H1281 H 0.51394 0.34649 0.00122 0.0
H1282 H 0.5173 0.31558 0.9638 0.0
H1283 H 0.46853 0.33401 0.86235 0.0
H1284 H 0.4647 0.36494 0.89964 0.0
H1285 H 0.51758 0.4678 0.90305 0.0
H1286 H 0.51555 0.43769 0.95958 0.0
H1287 H 0.46088 0.42633 0.88676 0.0
H1288 H 0.46269 0.45654 0.83021 0.0
H1289 H 0.48881 0.3935 0.90309 0.0
H1290 H 0.45755 0.44296 0.99514 0.0
H1291 H 0.45593 0.47402 0.03205 0.0
H1292 H 0.507 0.45516 0.12512 0.0
H1293 H 0.5091 0.42407 0.08818 0.0
C1294 C 0.46429 0.33114 0.09419 0.0
C1295 C 0.47487 0.32864 0.14054 0.0
C1296 C 0.46787 0.34656 0.05737 0.0
C1297 C 0.48243 0.3596 0.0655 0.0
C1298 C 0.49369 0.35656 0.11059 0.0
C1299 C 0.48993 0.34134 0.14771 0.0
C1300 C 0.48483 0.37725 0.02916 0.0
C1301 C 0.48418 0.39533 0.0483 0.0
C1302 C 0.48668 0.37657 0.97608 0.0
C1303 C 0.48891 0.35797 0.95358 0.0
C1304 C 0.50382 0.34389 0.97122 0.0
C1305 C 0.50583 0.32638 0.94997 0.0
C1306 C 0.49311 0.32281 0.91082 0.0
C1307 C 0.47837 0.33678 0.89273 0.0
C1308 C 0.47628 0.35432 0.91388 0.0
C1309 C 0.50512 0.4589 0.89899 0.0
C1310 C 0.49023 0.46461 0.86232 0.0
C1311 C 0.50399 0.44171 0.93133 0.0
C1312 C 0.48804 0.42983 0.92741 0.0
C1313 C 0.47333 0.43529 0.8903 0.0
C1314 C 0.47432 0.45261 0.85828 0.0
C1315 C 0.48646 0.41198 0.963 0.0
C1316 C 0.48719 0.39398 0.94367 0.0
C1317 C 0.48495 0.41265 0.01598 0.0
C1318 C 0.4836 0.43128 0.03851 0.0
C1319 C 0.46853 0.4455 0.02316 0.0
C1320 C 0.46751 0.4631 0.04414 0.0
C1321 C 0.48139 0.46658 0.0808 0.0
C1322 C 0.49628 0.45245 0.09667 0.0
C1323 C 0.49739 0.43484 0.07575 0.0
H1324 H 0.48057 0.48022 0.097 0.0
H1325 H 0.49469 0.30924 0.89441 0.0
H1326 H 0.1774 0.46488 0.11906 0.0
H1327 H 0.15124 0.47358 0.05585 0.0
H1328 H 0.16797 0.42292 0.98222 0.0
H1329 H 0.19488 0.41453 0.04416 0.0
H1330 H 0.15765 0.45295 0.91301 0.0
H1331 H 0.12955 0.42241 0.06541 0.0
H1332 H 0.12307 0.41767 0.15742 0.0
H1333 H 0.09489 0.47478 0.14971 0.0
H1334 H 0.10144 0.47996 0.05774 0.0
H1335 H 0.04477 0.45629 0.84598 0.0
H1336 H 0.07444 0.44341 0.89483 0.0
H1337 H 0.10185 0.49767 0.85789 0.0
H1338 H 0.07208 0.51082 0.8102 0.0
H1339 H 0.08959 0.46178 0.98022 0.0
H1340 H 0.15334 0.48178 0.83962 0.0
H1341 H 0.16071 0.48269 0.74823 0.0
H1342 H 0.11676 0.44145 0.73182 0.0
H1343 H 0.1093 0.44009 0.82313 0.0
C1344 C 0.17593 0.45582 0.08871 0.0
C1345 C 0.18826 0.43892 0.08696 0.0
C1346 C 0.16075 0.4607 0.05291 0.0
C1347 C 0.15736 0.44869 0.01491 0.0
C1348 C 0.17021 0.43233 0.01145 0.0
C1349 C 0.1855 0.42748 0.04714 0.0
C1350 C 0.13986 0.45275 0.98044 0.0
C1351 C 0.14277 0.45492 0.92768 0.0
C1352 C 0.12036 0.45481 0.99955 0.0
C1353 C 0.11613 0.45162 0.05474 0.0
C1354 C 0.12207 0.434 0.08338 0.0
C1355 C 0.11837 0.43123 0.13553 0.0
C1356 C 0.10861 0.44594 0.15941 0.0
C1357 C 0.10246 0.46341 0.13116 0.0
C1358 C 0.10614 0.46626 0.07901 0.0
C1359 C 0.05719 0.4654 0.84791 0.0
C1360 C 0.05605 0.48461 0.82466 0.0
C1361 C 0.07409 0.45804 0.8758 0.0
C1362 C 0.09032 0.46958 0.87972 0.0
C1363 C 0.08951 0.48851 0.85503 0.0
C1364 C 0.07246 0.49603 0.82809 0.0
C1365 C 0.10747 0.4625 0.91295 0.0
C1366 C 0.10447 0.45981 0.96555 0.0
C1367 C 0.12679 0.45968 0.89361 0.0
C1368 C 0.13063 0.461 0.83821 0.0
C1369 C 0.14524 0.47291 0.81651 0.0
C1370 C 0.14949 0.47344 0.76475 0.0
C1371 C 0.13928 0.46205 0.7343 0.0
C1372 C 0.1247 0.45022 0.75548 0.0
C1373 C 0.12037 0.44965 0.8072 0.0
H1374 H 0.14255 0.46253 0.69421 0.0
H1375 H 0.10578 0.44378 0.19979 0.0
H1376 H 0.02132 0.79966 0.46462 0.0
H1377 H 0.01293 0.82555 0.51651 0.0
H1378 H 0.95611 0.83602 0.4408 0.0
H1379 H 0.96444 0.80984 0.38834 0.0
H1380 H 0.97347 0.86872 0.44217 0.0
H1381 H 0.95935 0.81789 0.56818 0.0
H1382 H 0.96451 0.78656 0.62115 0.0
H1383 H 0.01687 0.80632 0.68671 0.0
H1384 H 0.0122 0.83767 0.63362 0.0
H1385 H 0.97541 0.92585 0.68522 0.0
H1386 H 0.96401 0.89878 0.64208 0.0
H1387 H 0.00914 0.90883 0.52864 0.0
H1388 H 0.02038 0.93564 0.57133 0.0
H1389 H 0.98591 0.86557 0.62764 0.0
H1390 H 0.99342 0.89818 0.41608 0.0
H1391 H 0.98652 0.92947 0.36404 0.0
H1392 H 0.94307 0.94594 0.47162 0.0
H1393 H 0.94947 0.91463 0.52394 0.0
C1394 C 0.00677 0.807 0.45989 0.0
C1395 C 0.99352 0.80253 0.42236 0.0
C1396 C 0.00199 0.8219 0.48969 0.0
C1397 C 0.98377 0.83264 0.48311 0.0
C1398 C 0.97023 0.82791 0.44668 0.0
C1399 C 0.97503 0.81297 0.41666 0.0
C1400 C 0.97994 0.84988 0.51105 0.0
C1401 C 0.97593 0.86799 0.48282 0.0
C1402 C 0.9826 0.84895 0.56436 0.0
C1403 C 0.98544 0.83014 0.59673 0.0
C1404 C 0.97203 0.81553 0.59368 0.0
C1405 C 0.97486 0.79776 0.62376 0.0
C1406 C 0.99101 0.79445 0.65725 0.0
C1407 C 0.00435 0.80891 0.66079 0.0
C1408 C 0.00159 0.8267 0.63077 0.0
C1409 C 0.98254 0.92246 0.65048 0.0
C1410 C 0.99881 0.93273 0.63164 0.0
C1411 C 0.97612 0.90698 0.62607 0.0
C1412 C 0.98564 0.90186 0.58194 0.0
C1413 C 0.00138 0.91264 0.5622 0.0
C1414 C 0.0079 0.92787 0.5868 0.0
C1415 C 0.98052 0.88436 0.55825 0.0
C1416 C 0.98292 0.86623 0.58722 0.0
C1417 C 0.9761 0.88525 0.50577 0.0
C1418 C 0.97201 0.90405 0.47409 0.0
C1419 C 0.98229 0.90841 0.4285 0.0
C1420 C 0.97849 0.92617 0.39898 0.0
C1421 C 0.96439 0.9397 0.41456 0.0
C1422 C 0.95403 0.93547 0.45966 0.0
C1423 C 0.95776 0.91773 0.4893 0.0
H1424 H 0.96147 0.95345 0.39166 0.0
H1425 H 0.99319 0.78068 0.68049 0.0
H1426 H 0.68968 0.94895 0.3387 0.0
H1427 H 0.66003 0.94606 0.39055 0.0
H1428 H 0.68884 0.97227 0.509 0.0
H1429 H 0.71904 0.97445 0.45818 0.0
H1430 H 0.66312 0.9448 0.54832 0.0
H1431 H 0.66165 1.00027 0.42223 0.0
H1432 H 0.66473 0.01681 0.33555 0.0
H1433 H 0.6175 0.98473 0.28408 0.0
H1434 H 0.61436 0.96777 0.37035 0.0
H1435 H 0.57557 0.98689 0.65606 0.0
H1436 H 0.60808 0.97935 0.62005 0.0
H1437 H 0.57954 0.95739 0.49399 0.0
H1438 H 0.5471 0.96514 0.52953 0.0
H1439 H 0.60571 0.98186 0.4604 0.0
H1440 H 0.60597 0.92747 0.58903 0.0
H1441 H 0.60319 0.91126 0.67614 0.0
H1442 H 0.65236 0.94164 0.72399 0.0
H1443 H 0.65525 0.95827 0.63732 0.0
C1444 C 0.69008 0.95346 0.37649 0.0
C1445 C 0.70675 0.96218 0.39388 0.0
C1446 C 0.67297 0.95197 0.40595 0.0
C1447 C 0.67205 0.95937 0.45315 0.0
C1448 C 0.68916 0.96661 0.47251 0.0
C1449 C 0.70635 0.968 0.44316 0.0
C1450 C 0.65271 0.96157 0.47925 0.0
C1451 C 0.65058 0.95301 0.52935 0.0
C1452 C 0.6363 0.97216 0.45431 0.0
C1453 C 0.6379 0.98262 0.40263 0.0
C1454 C 0.652 0.99666 0.39236 0.0
C1455 C 0.65375 0.00612 0.34331 0.0
C1456 C 0.64135 0.00179 0.3043 0.0
C1457 C 0.62711 0.98805 0.31432 0.0
C1458 C 0.62533 0.97852 0.36329 0.0
C1459 C 0.57626 0.98011 0.62121 0.0
C1460 C 0.55876 0.97672 0.59545 0.0
C1461 C 0.59486 0.97578 0.60062 0.0
C1462 C 0.59632 0.96773 0.55429 0.0
C1463 C 0.57884 0.9637 0.52959 0.0
C1464 C 0.5603 0.96816 0.54989 0.0
C1465 C 0.61586 0.9648 0.52943 0.0
C1466 C 0.61812 0.97345 0.47946 0.0
C1467 C 0.63231 0.95436 0.55469 0.0
C1468 C 0.63071 0.94425 0.60675 0.0
C1469 C 0.6161 0.93081 0.6182 0.0
C1470 C 0.61451 0.92153 0.6675 0.0
C1471 C 0.62755 0.92545 0.7056 0.0
C1472 C 0.64225 0.93863 0.69445 0.0
C1473 C 0.64388 0.94798 0.64524 0.0
H1474 H 0.62631 0.91824 0.74373 0.0
H1475 H 0.64274 0.0091 0.26633 0.0
H1476 H 0.51173 0.70532 0.40614 0.0
H1477 H 0.51999 0.67805 0.47091 0.0
H1478 H 0.45769 0.67049 0.49637 0.0
H1479 H 0.44933 0.69732 0.43178 0.0
H1480 H 0.47804 0.66537 0.58474 0.0
H1481 H 0.48412 0.6437 0.41746 0.0
H1482 H 0.49759 0.64418 0.33088 0.0
H1483 H 0.55646 0.63228 0.39233 0.0
H1484 H 0.54335 0.632 0.47932 0.0
H1485 H 0.4653 0.56776 0.66618 0.0
H1486 H 0.46637 0.59927 0.61608 0.0
H1487 H 0.53025 0.5958 0.62641 0.0
H1488 H 0.52935 0.5641 0.67714 0.0
H1489 H 0.51498 0.60818 0.52726 0.0
H1490 H 0.50751 0.62536 0.69586 0.0
H1491 H 0.49313 0.62408 0.78148 0.0
H1492 H 0.43615 0.64351 0.71712 0.0
H1493 H 0.45016 0.64484 0.63094 0.0
C1494 C 0.4998 0.69794 0.42586 0.0
C1495 C 0.47986 0.70355 0.4136 0.0
C1496 C 0.50455 0.68238 0.4629 0.0
C1497 C 0.48944 0.67211 0.4881 0.0
C1498 C 0.46959 0.67825 0.47762 0.0
C1499 C 0.46484 0.69373 0.44073 0.0
C1500 C 0.49399 0.65418 0.52298 0.0
C1501 C 0.48612 0.65287 0.57216 0.0
C1502 C 0.50493 0.63799 0.50702 0.0
C1503 C 0.5128 0.63808 0.45481 0.0
C1504 C 0.49996 0.64134 0.41247 0.0
C1505 C 0.50752 0.64156 0.36335 0.0
C1506 C 0.52787 0.63833 0.35611 0.0
C1507 C 0.5407 0.63482 0.398 0.0
C1508 C 0.53321 0.63464 0.44721 0.0
C1509 C 0.47962 0.57361 0.65773 0.0
C1510 C 0.49725 0.56342 0.67572 0.0
C1511 C 0.48019 0.59168 0.6293 0.0
C1512 C 0.49837 0.59995 0.61808 0.0
C1513 C 0.51606 0.58968 0.63491 0.0
C1514 C 0.51551 0.5716 0.66388 0.0
C1515 C 0.49862 0.61928 0.58842 0.0
C1516 C 0.50733 0.62083 0.54024 0.0
C1517 C 0.48837 0.63566 0.60516 0.0
C1518 C 0.47987 0.63508 0.65691 0.0
C1519 C 0.49189 0.62925 0.69993 0.0
C1520 C 0.4838 0.62852 0.74858 0.0
C1521 C 0.46372 0.63361 0.75478 0.0
C1522 C 0.4517 0.63955 0.71228 0.0
C1523 C 0.45972 0.64035 0.66351 0.0
H1524 H 0.4575 0.633 0.79251 0.0
H1525 H 0.5337 0.63849 0.31804 0.0
H1526 H 0.80569 0.53145 0.52258 0.0
H1527 H 0.83398 0.53697 0.5748 0.0
H1528 H 0.8578 0.5736 0.44989 0.0
H1529 H 0.83034 0.56676 0.396 0.0
H1530 H 0.88514 0.55002 0.48292 0.0
H1531 H 0.84161 0.59062 0.56773 0.0
H1532 H 0.8113 0.60148 0.61052 0.0
H1533 H 0.82099 0.55489 0.72998 0.0
H1534 H 0.85121 0.54355 0.68758 0.0
H1535 H 0.96736 0.55842 0.65364 0.0
H1536 H 0.93657 0.56991 0.60722 0.0
H1537 H 0.90841 0.51859 0.67031 0.0
H1538 H 0.93916 0.50677 0.71518 0.0
H1539 H 0.88467 0.55762 0.66691 0.0
H1540 H 0.92471 0.51483 0.56546 0.0
H1541 H 0.95568 0.50606 0.52221 0.0
H1542 H 0.95259 0.56158 0.43286 0.0
H1543 H 0.92172 0.57076 0.47624 0.0
C1544 C 0.81685 0.5408 0.50617 0.0
C1545 C 0.81581 0.54834 0.45463 0.0
C1546 C 0.83294 0.54425 0.53651 0.0
C1547 C 0.84813 0.55582 0.51661 0.0
C1548 C 0.84636 0.56456 0.46625 0.0
C1549 C 0.83044 0.56081 0.43554 0.0
C1550 C 0.86683 0.55668 0.54619 0.0
C1551 C 0.88495 0.55226 0.52279 0.0
C1552 C 0.86685 0.55945 0.59845 0.0
C1553 C 0.84866 0.56617 0.62425 0.0
C1554 C 0.83721 0.58259 0.60294 0.0
C1555 C 0.82005 0.58885 0.62717 0.0
C1556 C 0.81421 0.57887 0.6729 0.0
C1557 C 0.82554 0.56261 0.69455 0.0
C1558 C 0.84271 0.55628 0.67047 0.0
C1559 C 0.95451 0.54975 0.65797 0.0
C1560 C 0.95564 0.53165 0.68755 0.0
C1561 C 0.93697 0.55632 0.6316 0.0
C1562 C 0.92027 0.5451 0.63559 0.0
C1563 C 0.92113 0.52749 0.66705 0.0
C1564 C 0.93873 0.52071 0.6923 0.0
C1565 C 0.90242 0.55057 0.60358 0.0
C1566 C 0.88463 0.55603 0.62664 0.0
C1567 C 0.90269 0.54918 0.55084 0.0
C1568 C 0.92109 0.54357 0.52451 0.0
C1569 C 0.93074 0.52522 0.53694 0.0
C1570 C 0.94825 0.52017 0.51234 0.0
C1571 C 0.95614 0.53328 0.47493 0.0
C1572 C 0.94649 0.55145 0.46193 0.0
C1573 C 0.92899 0.55659 0.4865 0.0
H1574 H 0.96969 0.52934 0.45592 0.0
H1575 H 0.80091 0.58374 0.6916 0.0
loop_
_geom_bond_atom_site_label_1
_geom_bond_atom_site_label_2
_geom_bond_distance
_geom_bond_site_symmetry_2
_ccdc_geom_bond_type
P0 O11 1.490 . S
P0 C14 1.812 . S
P0 C20 1.803 . S
P0 C26 1.819 . S
H1 C15 0.941 . S
H2 C16 0.939 . S
H3 C18 0.940 . S
H4 C19 0.940 . S
H5 C21 0.939 . S
H6 C22 0.942 . S
H7 C24 0.940 . S
H8 C25 0.939 . S
H9 C27 0.941 . S
H10 C31 0.939 . S
O11 P0 1.490 . S
H12 C28 0.939 . S
H13 C30 0.940 1_556 S
C14 P0 1.812 . S
C14 C15 1.389 . S
C14 C19 1.391 . S
C15 H1 0.941 . S
C15 C14 1.389 . S
C15 C16 1.397 . S
C16 H2 0.939 . S
C16 C15 1.397 . S
C16 C17 1.378 . S
C17 C16 1.378 . S
C17 C18 1.378 . S
C18 H3 0.940 . S
C18 C17 1.378 . S
C18 C19 1.396 . S
C19 H4 0.940 . S
C19 C14 1.391 . S
C19 C18 1.396 . S
C20 P0 1.803 . S
C20 C21 1.378 . S
C20 C25 1.400 . S
C21 H5 0.939 . S
C21 C20 1.378 . S
C21 C22 1.361 . S
C22 H6 0.942 . S
C22 C21 1.361 . S
C22 C23 1.369 . S
C23 C22 1.369 . S
C23 C24 1.404 . S
C24 H7 0.940 . S
C24 C23 1.404 . S
C24 C25 1.389 . S
C25 H8 0.939 . S
C25 C20 1.400 . S
C25 C24 1.389 . S
C26 P0 1.819 . S
C26 C27 1.391 . S
C26 C31 1.391 . S
C27 H9 0.941 . S
C27 C26 1.391 . S
C27 C28 1.396 . S
C28 H12 0.939 . S
C28 C27 1.396 . S
C28 C29 1.397 . S
C29 C28 1.397 . S
C29 C30 1.385 . S
C30 H13 0.940 1_554 S
C30 C29 1.385 . S
C30 C31 1.388 . S
C31 H10 0.939 . S
C31 C26 1.391 . S
C31 C30 1.388 . S
P32 O43 1.490 . S
P32 C46 1.812 . S
P32 C52 1.803 . S
P32 C58 1.819 . S
H33 C47 0.941 . S
H34 C48 0.939 . S
H35 C50 0.940 . S
H36 C51 0.950 . S
H37 C53 0.939 . S
H38 C54 0.942 . S
H39 C56 0.940 . S
H40 C57 0.958 . S
H41 C59 0.941 . S
H42 C63 0.928 1_655 S
O43 P32 1.490 . S
H44 C60 0.939 . S
H45 C62 0.940 1_556 S
C46 P32 1.812 . S
C46 C47 1.389 . S
C46 C51 1.376 1_455 S
C47 H33 0.941 . S
C47 C46 1.389 . S
C47 C48 1.397 . S
C48 H34 0.939 . S
C48 C47 1.397 . S
C48 C49 1.378 . S
C49 C48 1.378 . S
C49 C50 1.378 1_455 S
C50 H35 0.940 . S
C50 C49 1.378 1_655 S
C50 C51 1.402 . S
C51 H36 0.950 . S
C51 C46 1.376 1_655 S
C51 C50 1.402 . S
C52 P32 1.803 . S
C52 C53 1.378 . S
C52 C57 1.368 1_455 S
C53 H37 0.939 . S
C53 C52 1.378 . S
C53 C54 1.361 . S
C54 H38 0.942 . S
C54 C53 1.361 . S
C54 C55 1.369 . S
C55 C54 1.369 . S
C55 C56 1.404 1_455 S
C56 H39 0.940 . S
C56 C55 1.404 1_655 S
C56 C57 1.403 . S
C57 H40 0.958 . S
C57 C52 1.368 1_655 S
C57 C56 1.403 . S
C58 P32 1.819 . S
C58 C59 1.391 . S
C58 C63 1.391 . S
C59 H41 0.941 . S
C59 C58 1.391 . S
C59 C60 1.396 . S
C60 H44 0.939 . S
C60 C59 1.396 . S
C60 C61 1.397 . S
C61 C60 1.397 . S
C61 C62 1.385 1_455 S
C62 H45 0.940 1_554 S
C62 C61 1.385 1_655 S
C62 C63 1.388 1_655 S
C63 H42 0.928 1_455 S
C63 C58 1.391 . S
C63 C62 1.388 1_455 S
P64 O75 1.490 . S
P64 C78 1.812 . S
P64 C84 1.803 . S
P64 C90 1.819 . S
H65 C79 0.941 . S
H66 C80 0.939 . S
H67 C82 0.940 . S
H68 C83 0.940 . S
H69 C85 0.939 . S
H70 C86 0.942 . S
H71 C88 0.940 . S
H72 C89 0.939 . S
H73 C91 0.941 . S
H74 C95 0.939 . S
O75 P64 1.490 . S
H76 C92 0.939 . S
H77 C94 0.940 . S
C78 P64 1.812 . S
C78 C79 1.389 . S
C78 C83 1.391 . S
C79 H65 0.941 . S
C79 C78 1.389 . S
C79 C80 1.397 . S
C80 H66 0.939 . S
C80 C79 1.397 . S
C80 C81 1.378 . S
C81 C80 1.378 . S
C81 C82 1.378 . S
C82 H67 0.940 . S
C82 C81 1.378 . S
C82 C83 1.396 . S
C83 H68 0.940 . S
C83 C78 1.391 . S
C83 C82 1.396 . S
C84 P64 1.803 . S
C84 C85 1.378 . S
C84 C89 1.400 . S
C85 H69 0.939 . S
C85 C84 1.378 . S
C85 C86 1.361 . S
C86 H70 0.942 . S
C86 C85 1.361 . S
C86 C87 1.369 . S
C87 C86 1.369 . S
C87 C88 1.404 . S
C88 H71 0.940 . S
C88 C87 1.404 . S
C88 C89 1.389 . S
C89 H72 0.939 . S
C89 C84 1.400 . S
C89 C88 1.389 . S
C90 P64 1.819 . S
C90 C91 1.391 . S
C90 C95 1.391 . S
C91 H73 0.941 . S
C91 C90 1.391 . S
C91 C92 1.396 . S
C92 H76 0.939 . S
C92 C91 1.396 . S
C92 C93 1.397 1_554 S
C93 C92 1.397 1_556 S
C93 C94 1.385 . S
C94 H77 0.940 . S
C94 C93 1.385 . S
C94 C95 1.388 1_556 S
C95 H74 0.939 . S
C95 C90 1.391 . S
C95 C94 1.388 1_554 S
P96 O107 1.490 . S
P96 C110 1.812 . S
P96 C116 1.803 . S
P96 C122 1.819 . S
H97 C111 0.941 . S
H98 C112 0.939 . S
H99 C114 0.940 . S
H100 C115 0.940 . S
H101 C117 0.939 . S
H102 C118 0.942 . S
H103 C120 0.940 . S
H104 C121 0.939 . S
H105 C123 0.941 . S
H106 C127 0.939 . S
O107 P96 1.490 . S
H108 C124 0.939 . S
H109 C126 0.940 1_556 S
C110 P96 1.812 . S
C110 C111 1.389 . S
C110 C115 1.391 . S
C111 H97 0.941 . S
C111 C110 1.389 . S
C111 C112 1.397 . S
C112 H98 0.939 . S
C112 C111 1.397 . S
C112 C113 1.378 . S
C113 C112 1.378 . S
C113 C114 1.378 . S
C114 H99 0.940 . S
C114 C113 1.378 . S
C114 C115 1.396 . S
C115 H100 0.940 . S
C115 C110 1.391 . S
C115 C114 1.396 . S
C116 P96 1.803 . S
C116 C117 1.378 . S
C116 C121 1.400 . S
C117 H101 0.939 . S
C117 C116 1.378 . S
C117 C118 1.361 . S
C118 H102 0.942 . S
C118 C117 1.361 . S
C118 C119 1.369 . S
C119 C118 1.369 . S
C119 C120 1.404 . S
C120 H103 0.940 . S
C120 C119 1.404 . S
C120 C121 1.389 . S
C121 H104 0.939 . S
C121 C116 1.400 . S
C121 C120 1.389 . S
C122 P96 1.819 . S
C122 C123 1.391 . S
C122 C127 1.391 . S
C123 H105 0.941 . S
C123 C122 1.391 . S
C123 C124 1.396 . S
C124 H108 0.939 . S
C124 C123 1.396 . S
C124 C125 1.397 . S
C125 C124 1.397 . S
C125 C126 1.385 . S
C126 H109 0.940 1_554 S
C126 C125 1.385 . S
C126 C127 1.388 . S
C127 H106 0.939 . S
C127 C122 1.391 . S
C127 C126 1.388 . S
P128 O139 1.490 . S
P128 C142 1.812 . S
P128 C148 1.803 . S
P128 C154 1.819 . S
H129 C143 0.941 . S
H130 C144 0.939 . S
H131 C146 0.940 . S
H132 C147 0.940 . S
H133 C149 0.939 . S
H134 C150 0.942 . S
H135 C152 0.940 . S
H136 C153 0.939 . S
H137 C155 0.941 . S
H138 C159 0.939 . S
O139 P128 1.490 . S
H140 C156 0.939 . S
H141 C158 0.940 . S
C142 P128 1.812 . S
C142 C143 1.389 . S
C142 C147 1.391 . S
C143 H129 0.941 . S
C143 C142 1.389 . S
C143 C144 1.397 . S
C144 H130 0.939 . S
C144 C143 1.397 . S
C144 C145 1.378 . S
C145 C144 1.378 . S
C145 C146 1.378 . S
C146 H131 0.940 . S
C146 C145 1.378 . S
C146 C147 1.396 . S
C147 H132 0.940 . S
C147 C142 1.391 . S
C147 C146 1.396 . S
C148 P128 1.803 . S
C148 C149 1.378 . S
C148 C153 1.400 . S
C149 H133 0.939 . S
C149 C148 1.378 . S
C149 C150 1.361 . S
C150 H134 0.942 . S
C150 C149 1.361 . S
C150 C151 1.369 . S
C151 C150 1.369 . S
C151 C152 1.404 . S
C152 H135 0.940 . S
C152 C151 1.404 . S
C152 C153 1.389 . S
C153 H136 0.939 . S
C153 C148 1.400 . S
C153 C152 1.389 . S
C154 P128 1.819 . S
C154 C155 1.391 . S
C154 C159 1.391 . S
C155 H137 0.941 . S
C155 C154 1.391 . S
C155 C156 1.396 . S
C156 H140 0.939 . S
C156 C155 1.396 . S
C156 C157 1.397 . S
C157 C156 1.397 . S
C157 C158 1.385 . S
C158 H141 0.940 . S
C158 C157 1.385 . S
C158 C159 1.388 . S
C159 H138 0.939 . S
C159 C154 1.391 . S
C159 C158 1.388 . S
P160 O171 1.490 . S
P160 C174 1.812 . S
P160 C180 1.803 . S
P160 C186 1.819 . S
H161 C175 0.941 . S
H162 C176 0.939 . S
H163 C178 0.940 . S
H164 C179 0.943 . S
H165 C181 0.939 . S
H166 C182 0.942 . S
H167 C184 0.940 . S
H168 C185 0.952 . S
H169 C187 0.941 . S
H170 C191 0.934 1_655 S
O171 P160 1.490 . S
H172 C188 0.939 . S
H173 C190 0.940 . S
C174 P160 1.812 . S
C174 C175 1.389 . S
C174 C179 1.387 1_455 S
C175 H161 0.941 . S
C175 C174 1.389 . S
C175 C176 1.397 . S
C176 H162 0.939 . S
C176 C175 1.397 . S
C176 C177 1.378 . S
C177 C176 1.378 . S
C177 C178 1.378 1_455 S
C178 H163 0.940 . S
C178 C177 1.378 1_655 S
C178 C179 1.398 . S
C179 H164 0.943 . S
C179 C174 1.387 1_655 S
C179 C178 1.398 . S
C180 P160 1.803 . S
C180 C181 1.378 . S
C180 C185 1.381 1_455 S
C181 H165 0.939 . S
C181 C180 1.378 . S
C181 C182 1.361 . S
C182 H166 0.942 . S
C182 C181 1.361 . S
C182 C183 1.369 . S
C183 C182 1.369 . S
C183 C184 1.404 1_455 S
C184 H167 0.940 . S
C184 C183 1.404 1_655 S
C184 C185 1.396 . S
C185 H168 0.952 . S
C185 C180 1.381 1_655 S
C185 C184 1.396 . S
C186 P160 1.819 . S
C186 C187 1.391 . S
C186 C191 1.391 . S
C187 H169 0.941 . S
C187 C186 1.391 . S
C187 C188 1.396 . S
C188 H172 0.939 . S
C188 C187 1.396 . S
C188 C189 1.397 . S
C189 C188 1.397 . S
C189 C190 1.385 1_455 S
C190 H173 0.940 . S
C190 C189 1.385 1_655 S
C190 C191 1.388 1_655 S
C191 H170 0.934 1_455 S
C191 C186 1.391 . S
C191 C190 1.388 1_455 S
P192 O203 1.490 . S
P192 C206 1.812 . S
P192 C212 1.803 . S
P192 C218 1.819 . S
H193 C207 0.941 . S
H194 C208 0.939 . S
H195 C210 0.940 . S
H196 C211 0.940 . S
H197 C213 0.939 . S
H198 C214 0.942 . S
H199 C216 0.940 . S
H200 C217 0.939 . S
H201 C219 0.941 . S
H202 C223 0.939 . S
O203 P192 1.490 . S
H204 C220 0.939 . S
H205 C222 0.940 . S
C206 P192 1.812 . S
C206 C207 1.389 . S
C206 C211 1.391 . S
C207 H193 0.941 . S
C207 C206 1.389 . S
C207 C208 1.397 . S
C208 H194 0.939 . S
C208 C207 1.397 . S
C208 C209 1.378 . S
C209 C208 1.378 . S
C209 C210 1.378 . S
C210 H195 0.940 . S
C210 C209 1.378 . S
C210 C211 1.396 . S
C211 H196 0.940 . S
C211 C206 1.391 . S
C211 C210 1.396 . S
C212 P192 1.803 . S
C212 C213 1.378 . S
C212 C217 1.400 . S
C213 H197 0.939 . S
C213 C212 1.378 . S
C213 C214 1.361 . S
C214 H198 0.942 . S
C214 C213 1.361 . S
C214 C215 1.369 . S
C215 C214 1.369 . S
C215 C216 1.404 . S
C216 H199 0.940 . S
C216 C215 1.404 . S
C216 C217 1.389 . S
C217 H200 0.939 . S
C217 C212 1.400 . S
C217 C216 1.389 . S
C218 P192 1.819 . S
C218 C219 1.391 . S
C218 C223 1.391 . S
C219 H201 0.941 . S
C219 C218 1.391 . S
C219 C220 1.396 . S
C220 H204 0.939 . S
C220 C219 1.396 . S
C220 C221 1.397 . S
C221 C220 1.397 . S
C221 C222 1.385 . S
C222 H205 0.940 . S
C222 C221 1.385 . S
C222 C223 1.388 . S
C223 H202 0.939 . S
C223 C218 1.391 . S
C223 C222 1.388 . S
P224 O235 1.490 . S
P224 C238 1.812 . S
P224 C244 1.803 . S
P224 C250 1.819 . S
H225 C239 0.941 . S
H226 C240 0.939 . S
H227 C242 0.940 . S
H228 C243 0.940 . S
H229 C245 0.939 . S
H230 C246 0.942 . S
H231 C248 0.940 . S
H232 C249 0.939 . S
H233 C251 0.941 . S
H234 C255 0.939 . S
O235 P224 1.490 . S
H236 C252 0.939 . S
H237 C254 0.940 . S
C238 P224 1.812 . S
C238 C239 1.389 . S
C238 C243 1.391 . S
C239 H225 0.941 . S
C239 C238 1.389 . S
C239 C240 1.397 . S
C240 H226 0.939 . S
C240 C239 1.397 . S
C240 C241 1.378 . S
C241 C240 1.378 . S
C241 C242 1.378 . S
C242 H227 0.940 . S
C242 C241 1.378 . S
C242 C243 1.396 . S
C243 H228 0.940 . S
C243 C238 1.391 . S
C243 C242 1.396 . S
C244 P224 1.803 . S
C244 C245 1.378 . S
C244 C249 1.400 . S
C245 H229 0.939 . S
C245 C244 1.378 . S
C245 C246 1.361 . S
C246 H230 0.942 . S
C246 C245 1.361 . S
C246 C247 1.369 . S
C247 C246 1.369 . S
C247 C248 1.404 . S
C248 H231 0.940 . S
C248 C247 1.404 . S
C248 C249 1.389 . S
C249 H232 0.939 . S
C249 C244 1.400 . S
C249 C248 1.389 . S
C250 P224 1.819 . S
C250 C251 1.391 . S
C250 C255 1.391 . S
C251 H233 0.941 . S
C251 C250 1.391 . S
C251 C252 1.396 . S
C252 H236 0.939 . S
C252 C251 1.396 . S
C252 C253 1.397 . S
C253 C252 1.397 . S
C253 C254 1.385 . S
C254 H237 0.940 . S
C254 C253 1.385 . S
C254 C255 1.388 . S
C255 H234 0.939 . S
C255 C250 1.391 . S
C255 C254 1.388 . S
Co256 N261 2.057 . S
Co256 O273 2.021 . S
Co256 O276 2.062 1_455 S
Co256 O280 2.117 1_455 S
Co256 O281 2.020 1_545 S
C257 O277 1.259 1_545 S
C257 O280 1.258 . S
Co258 N267 2.057 . S
Co258 O274 2.117 1_665 S
Co258 O275 2.020 1_565 S
Co258 O277 2.021 . S
Co258 O282 2.062 1_655 S
C259 N261 1.316 . S
C259 N262 1.347 . S
C259 H264 0.931 . S
C260 N261 1.375 1_655 S
C260 C263 1.350 . S
C260 H265 0.930 . S
N261 Co256 2.057 . S
N261 C259 1.316 . S
N261 C260 1.375 1_455 S
N262 C259 1.347 . S
N262 C263 1.373 1_455 S
C263 C260 1.350 . S
C263 N262 1.373 1_655 S
C263 H284 0.931 . S
H264 C259 0.931 . S
H265 C260 0.930 . S
C266 O273 1.259 . S
C266 O274 1.258 . S
N267 Co258 2.057 . S
N267 C268 1.316 . S
N267 C269 1.375 1_655 S
C268 N267 1.316 . S
C268 N270 1.347 . S
C268 H279 0.931 . S
C269 N267 1.375 1_455 S
C269 C271 1.350 . S
C269 H278 0.930 . S
N270 C268 1.347 . S
N270 C271 1.373 1_655 S
C271 C269 1.350 . S
C271 N270 1.373 1_455 S
C271 H285 0.931 . S
C272 O275 1.256 . S
C272 O276 1.255 . S
O273 Co256 2.021 . S
O273 C266 1.259 . S
O274 Co258 2.117 1_445 S
O274 C266 1.258 . S
O275 Co258 2.020 1_545 S
O275 C272 1.256 . S
O276 Co256 2.062 1_655 S
O276 C272 1.255 . S
O277 C257 1.259 1_565 S
O277 Co258 2.021 . S
H278 C269 0.930 . S
H279 C268 0.931 . S
O280 Co256 2.117 1_655 S
O280 C257 1.258 . S
O281 Co256 2.020 1_565 S
O281 C283 1.256 . S
O282 Co258 2.062 1_455 S
O282 C283 1.255 . S
C283 O281 1.256 . S
C283 O282 1.255 . S
H284 C263 0.931 . S
H285 C271 0.931 . S
Co286 N291 2.057 . S
Co286 O303 2.021 . S
Co286 O306 2.062 . S
Co286 O310 2.117 1_545 S
Co286 O311 2.020 . S
C287 O307 1.259 . S
C287 O310 1.258 . S
Co288 N297 2.048 1_545 S
Co288 O304 2.156 . S
Co288 O305 2.024 . S
Co288 O307 1.984 1_545 S
Co288 O312 2.064 1_545 S
C289 N291 1.316 . S
C289 N292 1.347 . S
C289 H294 0.931 . S
C290 N291 1.375 . S
C290 C293 1.350 . S
C290 H295 0.930 1_545 S
N291 Co286 2.057 . S
N291 C289 1.316 . S
N291 C290 1.375 . S
N292 C289 1.347 . S
N292 C293 1.373 . S
C293 C290 1.350 . S
C293 N292 1.373 . S
C293 H314 0.931 . S
H294 C289 0.931 . S
H295 C290 0.930 1_565 S
C296 O303 1.259 . S
C296 O304 1.258 . S
N297 Co288 2.048 1_565 S
N297 C298 1.369 . S
N297 C299 1.332 1_565 S
C298 N297 1.369 . S
C298 N300 1.347 . S
C298 H309 0.931 . S
C299 N297 1.332 1_545 S
C299 C301 1.350 . S
C299 H308 0.930 . S
N300 C298 1.347 . S
N300 C301 1.373 1_565 S
C301 C299 1.350 . S
C301 N300 1.373 1_545 S
C301 H315 0.931 . S
C302 O305 1.256 . S
C302 O306 1.255 . S
O303 Co286 2.021 . S
O303 C296 1.259 . S
O304 Co288 2.156 . S
O304 C296 1.258 . S
O305 Co288 2.024 . S
O305 C302 1.256 . S
O306 Co286 2.062 . S
O306 C302 1.255 . S
O307 C287 1.259 . S
O307 Co288 1.984 1_565 S
H308 C299 0.930 . S
H309 C298 0.931 . S
O310 Co286 2.117 1_565 S
O310 C287 1.258 . S
O311 Co286 2.020 . S
O311 C313 1.256 . S
O312 Co288 2.064 1_565 S
O312 C313 1.255 1_565 S
C313 O311 1.256 . S
C313 O312 1.255 1_545 S
H314 C293 0.931 . S
H315 C301 0.931 . S
Co316 N321 2.057 . S
Co316 O333 2.021 . S
Co316 O336 2.062 . S
Co316 O340 2.117 . S
Co316 O341 2.020 . S
C317 O337 1.259 . S
C317 O340 1.258 . S
Co318 N327 2.057 . S
Co318 O334 2.117 . S
Co318 O335 2.020 . S
Co318 O337 2.021 . S
Co318 O342 2.062 . S
C319 N321 1.316 . S
C319 N322 1.347 . S
C319 H324 0.931 . S
C320 N321 1.375 . S
C320 C323 1.350 . S
C320 H325 0.930 . S
N321 Co316 2.057 . S
N321 C319 1.316 . S
N321 C320 1.375 . S
N322 C319 1.347 . S
N322 C323 1.373 . S
C323 C320 1.350 . S
C323 N322 1.373 . S
C323 H344 0.931 . S
H324 C319 0.931 . S
H325 C320 0.930 . S
C326 O333 1.259 . S
C326 O334 1.258 . S
N327 Co318 2.057 . S
N327 C328 1.316 . S
N327 C329 1.375 . S
C328 N327 1.316 . S
C328 N330 1.347 . S
C328 H339 0.931 . S
C329 N327 1.375 . S
C329 C331 1.350 . S
C329 H338 0.930 . S
N330 C328 1.347 . S
N330 C331 1.373 . S
C331 C329 1.350 . S
C331 N330 1.373 . S
C331 H345 0.931 . S
C332 O335 1.256 . S
C332 O336 1.255 . S
O333 Co316 2.021 . S
O333 C326 1.259 . S
O334 Co318 2.117 . S
O334 C326 1.258 . S
O335 Co318 2.020 . S
O335 C332 1.256 . S
O336 Co316 2.062 . S
O336 C332 1.255 . S
O337 C317 1.259 . S
O337 Co318 2.021 . S
H338 C329 0.930 . S
H339 C328 0.931 . S
O340 Co316 2.117 . S
O340 C317 1.258 . S
O341 Co316 2.020 . S
O341 C343 1.256 . S
O342 Co318 2.062 . S
O342 C343 1.255 . S
C343 O341 1.256 . S
C343 O342 1.255 . S
H344 C323 0.931 . S
H345 C331 0.931 . S
Co346 N351 2.057 . S
Co346 O363 2.021 1_455 S
Co346 O366 2.062 1_455 S
Co346 O370 2.117 . S
Co346 O371 2.020 . S
C347 O367 1.259 . S
C347 O370 1.258 . S
Co348 N357 2.057 . S
Co348 O364 2.117 . S
Co348 O365 2.020 . S
Co348 O367 2.021 1_655 S
Co348 O372 2.062 1_655 S
C349 N351 1.316 . S
C349 N352 1.347 . S
C349 H354 0.931 1_455 S
C350 N351 1.375 . S
C350 C353 1.350 . S
C350 H355 0.930 . S
N351 Co346 2.057 . S
N351 C349 1.316 . S
N351 C350 1.375 . S
N352 C349 1.347 . S
N352 C353 1.373 . S
C353 C350 1.350 . S
C353 N352 1.373 . S
C353 H374 0.931 . S
H354 C349 0.931 1_655 S
H355 C350 0.930 . S
C356 O363 1.259 . S
C356 O364 1.258 . S
N357 Co348 2.057 . S
N357 C358 1.316 . S
N357 C359 1.375 . S
C358 N357 1.316 . S
C358 N360 1.347 . S
C358 H369 0.931 1_655 S
C359 N357 1.375 . S
C359 C361 1.350 . S
C359 H368 0.930 . S
N360 C358 1.347 . S
N360 C361 1.373 . S
C361 C359 1.350 . S
C361 N360 1.373 . S
C361 H375 0.931 . S
C362 O365 1.256 . S
C362 O366 1.255 . S
O363 Co346 2.021 1_655 S
O363 C356 1.259 . S
O364 Co348 2.117 . S
O364 C356 1.258 . S
O365 Co348 2.020 . S
O365 C362 1.256 . S
O366 Co346 2.062 1_655 S
O366 C362 1.255 . S
O367 C347 1.259 . S
O367 Co348 2.021 1_455 S
H368 C359 0.930 . S
H369 C358 0.931 1_455 S
O370 Co346 2.117 . S
O370 C347 1.258 . S
O371 Co346 2.020 . S
O371 C373 1.256 . S
O372 Co348 2.062 1_455 S
O372 C373 1.255 . S
C373 O371 1.256 . S
C373 O372 1.255 . S
H374 C353 0.931 . S
H375 C361 0.931 . S
H376 C394 0.951 . S
H377 C396 0.951 . S
H378 C398 0.950 . S
H379 C399 0.950 . S
H380 C401 0.950 . S
H381 C404 0.950 . S
H382 C405 0.950 . S
H383 C407 0.950 . S
H384 C408 0.950 . S
H385 C409 0.951 . S
H386 C411 0.951 . S
H387 C413 0.950 . S
H388 C414 0.950 . S
H389 C416 0.950 . S
H390 C419 0.950 . S
H391 C420 0.950 . S
H392 C422 0.950 . S
H393 C423 0.950 . S
C394 H376 0.951 . S
C394 C395 1.366 . S
C394 C396 1.388 . S
C395 C394 1.366 . S
C395 C399 1.385 . S
C396 H377 0.951 . S
C396 C394 1.388 . S
C396 C397 1.366 . S
C397 C396 1.366 . S
C397 C398 1.414 . S
C397 C400 1.499 . S
C398 H378 0.950 . S
C398 C397 1.414 . S
C398 C399 1.374 . S
C399 H379 0.950 . S
C399 C395 1.385 . S
C399 C398 1.374 . S
C400 C397 1.499 . S
C400 C401 1.373 . S
C400 C402 1.389 . S
C401 H380 0.950 . S
C401 C400 1.373 . S
C401 C417 1.377 . S
C402 C400 1.389 . S
C402 C403 1.524 . S
C402 C416 1.377 . S
C403 C402 1.524 . S
C403 C404 1.397 . S
C403 C408 1.363 . S
C404 H381 0.950 . S
C404 C403 1.397 . S
C404 C405 1.334 . S
C405 H382 0.950 . S
C405 C404 1.334 . S
C405 C406 1.287 . S
C406 C405 1.287 . S
C406 C407 1.524 . S
C406 H425 0.890 1_545 S
C407 H383 0.950 . S
C407 C406 1.524 . S
C407 C408 1.415 . S
C408 H384 0.950 . S
C408 C403 1.363 . S
C408 C407 1.415 . S
C409 H385 0.951 . S
C409 C410 1.366 . S
C409 C411 1.388 . S
C410 C409 1.366 . S
C410 C414 1.385 . S
C411 H386 0.951 . S
C411 C409 1.388 . S
C411 C412 1.366 . S
C412 C411 1.366 . S
C412 C413 1.414 . S
C412 C415 1.499 . S
C413 H387 0.950 . S
C413 C412 1.414 . S
C413 C414 1.374 . S
C414 H388 0.950 . S
C414 C410 1.385 . S
C414 C413 1.374 . S
C415 C412 1.499 . S
C415 C416 1.373 . S
C415 C417 1.389 . S
C416 H389 0.950 . S
C416 C402 1.377 . S
C416 C415 1.373 . S
C417 C401 1.377 . S
C417 C415 1.389 . S
C417 C418 1.524 . S
C418 C417 1.524 . S
C418 C419 1.397 . S
C418 C423 1.363 . S
C419 H390 0.950 . S
C419 C418 1.397 . S
C419 C420 1.334 . S
C420 H391 0.950 . S
C420 C419 1.334 . S
C420 C421 1.287 . S
C421 C420 1.287 . S
C421 C422 1.524 . S
C421 H424 0.999 . S
C422 H392 0.950 . S
C422 C421 1.524 . S
C422 C423 1.415 . S
C423 H393 0.950 . S
C423 C418 1.363 . S
C423 C422 1.415 . S
H424 C421 0.999 . S
H425 C406 0.890 1_565 S
H426 C444 0.951 . S
H427 C446 0.951 . S
H428 C448 0.950 . S
H429 C449 0.950 . S
H430 C451 0.950 . S
H431 C454 0.950 . S
H432 C455 0.950 . S
H433 C457 0.950 . S
H434 C458 0.950 . S
H435 C459 0.951 . S
H436 C461 0.951 . S
H437 C463 0.950 . S
H438 C464 0.950 . S
H439 C466 0.950 . S
H440 C469 0.950 . S
H441 C470 0.950 . S
H442 C472 0.950 . S
H443 C473 0.950 . S
C444 H426 0.951 . S
C444 C445 1.366 . S
C444 C446 1.388 . S
C445 C444 1.366 . S
C445 C449 1.385 . S
C446 H427 0.951 . S
C446 C444 1.388 . S
C446 C447 1.366 . S
C447 C446 1.366 . S
C447 C448 1.414 . S
C447 C450 1.499 . S
C448 H428 0.950 . S
C448 C447 1.414 . S
C448 C449 1.374 . S
C449 H429 0.950 . S
C449 C445 1.385 . S
C449 C448 1.374 . S
C450 C447 1.499 . S
C450 C451 1.373 . S
C450 C452 1.389 . S
C451 H430 0.950 . S
C451 C450 1.373 . S
C451 C467 1.377 . S
C452 C450 1.389 . S
C452 C453 1.524 . S
C452 C466 1.377 . S
C453 C452 1.524 . S
C453 C454 1.397 . S
C453 C458 1.363 . S
C454 H431 0.950 . S
C454 C453 1.397 . S
C454 C455 1.334 . S
C455 H432 0.950 . S
C455 C454 1.334 . S
C455 C456 1.287 . S
C456 C455 1.287 . S
C456 C457 1.524 . S
C456 H475 0.913 . S
C457 H433 0.950 . S
C457 C456 1.524 . S
C457 C458 1.415 . S
C458 H434 0.950 . S
C458 C453 1.363 . S
C458 C457 1.415 . S
C459 H435 0.951 . S
C459 C460 1.366 . S
C459 C461 1.388 . S
C460 C459 1.366 . S
C460 C464 1.385 . S
C461 H436 0.951 . S
C461 C459 1.388 . S
C461 C462 1.366 . S
C462 C461 1.366 . S
C462 C463 1.414 . S
C462 C465 1.499 . S
C463 H437 0.950 . S
C463 C462 1.414 . S
C463 C464 1.374 . S
C464 H438 0.950 . S
C464 C460 1.385 . S
C464 C463 1.374 . S
C465 C462 1.499 . S
C465 C466 1.373 . S
C465 C467 1.389 . S
C466 H439 0.950 . S
C466 C452 1.377 . S
C466 C465 1.373 . S
C467 C451 1.377 . S
C467 C465 1.389 . S
C467 C468 1.524 . S
C468 C467 1.524 . S
C468 C469 1.397 . S
C468 C473 1.363 . S
C469 H440 0.950 . S
C469 C468 1.397 . S
C469 C470 1.334 . S
C470 H441 0.950 . S
C470 C469 1.334 . S
C470 C471 1.287 . S
C471 C470 1.287 . S
C471 C472 1.524 . S
C471 H474 0.999 . S
C472 H442 0.950 . S
C472 C471 1.524 . S
C472 C473 1.415 . S
C473 H443 0.950 . S
C473 C468 1.363 . S
C473 C472 1.415 . S
H474 C471 0.999 . S
H475 C456 0.913 . S
H476 C494 0.951 . S
H477 C496 0.951 . S
H478 C498 0.950 . S
H479 C499 0.950 . S
H480 C501 0.950 . S
H481 C504 0.950 . S
H482 C505 0.950 . S
H483 C507 0.950 . S
H484 C508 0.950 . S
H485 C509 0.951 . S
H486 C511 0.951 . S
H487 C513 0.950 . S
H488 C514 0.950 . S
H489 C516 0.950 . S
H490 C519 0.950 . S
H491 C520 0.950 . S
H492 C522 0.950 . S
H493 C523 0.950 . S
C494 H476 0.951 . S
C494 C495 1.366 . S
C494 C496 1.388 . S
C495 C494 1.366 . S
C495 C499 1.385 . S
C496 H477 0.951 . S
C496 C494 1.388 . S
C496 C497 1.366 . S
C497 C496 1.366 . S
C497 C498 1.414 . S
C497 C500 1.499 . S
C498 H478 0.950 . S
C498 C497 1.414 . S
C498 C499 1.374 . S
C499 H479 0.950 . S
C499 C495 1.385 . S
C499 C498 1.374 . S
C500 C497 1.499 . S
C500 C501 1.373 . S
C500 C502 1.389 . S
C501 H480 0.950 . S
C501 C500 1.373 . S
C501 C517 1.377 . S
C502 C500 1.389 . S
C502 C503 1.524 . S
C502 C516 1.377 . S
C503 C502 1.524 . S
C503 C504 1.397 . S
C503 C508 1.363 . S
C504 H481 0.950 . S
C504 C503 1.397 . S
C504 C505 1.334 . S
C505 H482 0.950 . S
C505 C504 1.334 . S
C505 C506 1.287 . S
C506 C505 1.287 . S
C506 C507 1.524 . S
C506 H525 0.913 . S
C507 H483 0.950 . S
C507 C506 1.524 . S
C507 C508 1.415 . S
C508 H484 0.950 . S
C508 C503 1.363 . S
C508 C507 1.415 . S
C509 H485 0.951 . S
C509 C510 1.366 . S
C509 C511 1.388 . S
C510 C509 1.366 . S
C510 C514 1.385 . S
C511 H486 0.951 . S
C511 C509 1.388 . S
C511 C512 1.366 . S
C512 C511 1.366 . S
C512 C513 1.414 . S
C512 C515 1.499 . S
C513 H487 0.950 . S
C513 C512 1.414 . S
C513 C514 1.374 . S
C514 H488 0.950 . S
C514 C510 1.385 . S
C514 C513 1.374 . S
C515 C512 1.499 . S
C515 C516 1.373 . S
C515 C517 1.389 . S
C516 H489 0.950 . S
C516 C502 1.377 . S
C516 C515 1.373 . S
C517 C501 1.377 . S
C517 C515 1.389 . S
C517 C518 1.524 . S
C518 C517 1.524 . S
C518 C519 1.397 . S
C518 C523 1.363 . S
C519 H490 0.950 . S
C519 C518 1.397 . S
C519 C520 1.334 . S
C520 H491 0.950 . S
C520 C519 1.334 . S
C520 C521 1.287 . S
C521 C520 1.287 . S
C521 C522 1.524 . S
C521 H524 0.999 . S
C522 H492 0.950 . S
C522 C521 1.524 . S
C522 C523 1.415 . S
C523 H493 0.950 . S
C523 C518 1.363 . S
C523 C522 1.415 . S
H524 C521 0.999 . S
H525 C506 0.913 . S
H526 C544 0.951 . S
H527 C546 0.951 . S
H528 C548 0.950 . S
H529 C549 0.950 . S
H530 C551 0.950 . S
H531 C554 0.950 . S
H532 C555 0.950 . S
H533 C557 0.950 . S
H534 C558 0.950 . S
H535 C559 0.962 . S
H536 C561 0.944 1_455 S
H537 C563 0.950 . S
H538 C564 0.950 . S
H539 C566 0.950 . S
H540 C569 0.950 . S
H541 C570 0.950 . S
H542 C572 0.950 . S
H543 C573 0.950 . S
C544 H526 0.951 . S
C544 C545 1.370 . S
C544 C546 1.388 . S
C545 C544 1.370 . S
C545 C549 1.380 1_655 S
C546 H527 0.951 . S
C546 C544 1.388 . S
C546 C547 1.366 . S
C547 C546 1.366 . S
C547 C548 1.414 1_655 S
C547 C550 1.499 . S
C548 H528 0.950 . S
C548 C547 1.414 1_455 S
C548 C549 1.374 . S
C549 H529 0.950 . S
C549 C545 1.380 1_455 S
C549 C548 1.374 . S
C550 C547 1.499 . S
C550 C551 1.373 . S
C550 C552 1.389 1_655 S
C551 H530 0.950 . S
C551 C550 1.373 . S
C551 C567 1.377 . S
C552 C550 1.389 1_455 S
C552 C553 1.524 . S
C552 C566 1.377 . S
C553 C552 1.524 . S
C553 C554 1.397 . S
C553 C558 1.363 . S
C554 H531 0.950 . S
C554 C553 1.397 . S
C554 C555 1.334 . S
C555 H532 0.950 . S
C555 C554 1.334 . S
C555 C556 1.287 . S
C556 C555 1.287 . S
C556 C557 1.524 . S
C556 H575 0.913 . S
C557 H533 0.950 . S
C557 C556 1.524 . S
C557 C558 1.415 . S
C558 H534 0.950 . S
C558 C553 1.363 . S
C558 C557 1.415 . S
C559 H535 0.962 . S
C559 C560 1.366 . S
C559 C561 1.388 . S
C560 C559 1.366 . S
C560 C564 1.385 . S
C561 H536 0.944 1_655 S
C561 C559 1.388 . S
C561 C562 1.366 . S
C562 C561 1.366 . S
C562 C563 1.414 . S
C562 C565 1.499 . S
C563 H537 0.950 . S
C563 C562 1.414 . S
C563 C564 1.374 . S
C564 H538 0.950 . S
C564 C560 1.385 . S
C564 C563 1.374 . S
C565 C562 1.499 . S
C565 C566 1.373 1_655 S
C565 C567 1.389 . S
C566 H539 0.950 . S
C566 C552 1.377 . S
C566 C565 1.373 1_455 S
C567 C551 1.377 . S
C567 C565 1.389 . S
C567 C568 1.524 . S
C568 C567 1.524 . S
C568 C569 1.397 . S
C568 C573 1.363 . S
C569 H540 0.950 . S
C569 C568 1.397 . S
C569 C570 1.334 . S
C570 H541 0.950 . S
C570 C569 1.334 . S
C570 C571 1.287 . S
C571 C570 1.287 . S
C571 C572 1.524 . S
C571 H574 0.999 . S
C572 H542 0.950 . S
C572 C571 1.524 . S
C572 C573 1.415 . S
C573 H543 0.950 . S
C573 C568 1.363 . S
C573 C572 1.415 . S
H574 C571 0.999 . S
H575 C556 0.913 . S
H576 C594 0.951 . S
H577 C596 0.951 . S
H578 C598 0.950 . S
H579 C599 0.950 . S
H580 C601 0.950 1_554 S
H581 C604 0.950 . S
H582 C605 0.950 . S
H583 C607 0.950 . S
H584 C608 0.950 . S
H585 C609 0.951 . S
H586 C611 0.951 . S
H587 C613 0.950 . S
H588 C614 0.950 . S
H589 C616 0.950 . S
H590 C619 0.950 . S
H591 C620 0.950 . S
H592 C622 0.950 . S
H593 C623 0.950 . S
C594 H576 0.951 . S
C594 C595 1.366 1_556 S
C594 C596 1.388 . S
C595 C594 1.366 1_554 S
C595 C599 1.385 . S
C596 H577 0.951 . S
C596 C594 1.388 . S
C596 C597 1.366 . S
C597 C596 1.366 . S
C597 C598 1.414 1_556 S
C597 C600 1.499 . S
C598 H578 0.950 . S
C598 C597 1.414 1_554 S
C598 C599 1.374 . S
C599 H579 0.950 . S
C599 C595 1.385 . S
C599 C598 1.374 . S
C600 C597 1.499 . S
C600 C601 1.373 . S
C600 C602 1.389 . S
C601 H580 0.950 1_556 S
C601 C600 1.373 . S
C601 C617 1.377 . S
C602 C600 1.389 . S
C602 C603 1.524 . S
C602 C616 1.377 . S
C603 C602 1.524 . S
C603 C604 1.397 . S
C603 C608 1.363 . S
C604 H581 0.950 . S
C604 C603 1.397 . S
C604 C605 1.334 . S
C605 H582 0.950 . S
C605 C604 1.334 . S
C605 C606 1.287 . S
C606 C605 1.287 . S
C606 C607 1.524 . S
C606 H625 0.913 . S
C607 H583 0.950 . S
C607 C606 1.524 . S
C607 C608 1.415 . S
C608 H584 0.950 . S
C608 C603 1.363 . S
C608 C607 1.415 . S
C609 H585 0.951 . S
C609 C610 1.366 . S
C609 C611 1.388 . S
C610 C609 1.366 . S
C610 C614 1.385 1_565 S
C611 H586 0.951 . S
C611 C609 1.388 . S
C611 C612 1.366 . S
C612 C611 1.366 . S
C612 C613 1.414 . S
C612 C615 1.499 . S
C613 H587 0.950 . S
C613 C612 1.414 . S
C613 C614 1.374 1_565 S
C614 H588 0.950 . S
C614 C610 1.385 1_545 S
C614 C613 1.374 1_545 S
C615 C612 1.499 . S
C615 C616 1.373 . S
C615 C617 1.389 . S
C616 H589 0.950 . S
C616 C602 1.377 . S
C616 C615 1.373 . S
C617 C601 1.377 . S
C617 C615 1.389 . S
C617 C618 1.524 . S
C618 C617 1.524 . S
C618 C619 1.397 1_565 S
C618 C623 1.363 1_556 S
C619 H590 0.950 . S
C619 C618 1.397 1_545 S
C619 C620 1.334 . S
C620 H591 0.950 . S
C620 C619 1.334 . S
C620 C621 1.287 1_556 S
C621 C620 1.287 1_554 S
C621 C622 1.524 1_545 S
C621 H624 0.999 . S
C622 H592 0.950 . S
C622 C621 1.524 1_565 S
C622 C623 1.415 . S
C623 H593 0.950 . S
C623 C618 1.363 1_554 S
C623 C622 1.415 . S
H624 C621 0.999 . S
H625 C606 0.913 . S
H626 C644 0.951 . S
H627 C646 0.951 . S
H628 C648 0.950 . S
H629 C649 0.950 . S
H630 C651 0.950 1_554 S
H631 C654 0.950 . S
H632 C655 0.950 . S
H633 C657 0.950 . S
H634 C658 0.950 . S
H635 C659 0.951 . S
H636 C661 0.951 . S
H637 C663 0.950 . S
H638 C664 0.950 . S
H639 C666 0.950 . S
H640 C669 0.950 . S
H641 C670 0.950 . S
H642 C672 0.950 . S
H643 C673 0.950 . S
C644 H626 0.951 . S
C644 C645 1.366 . S
C644 C646 1.388 1_554 S
C645 C644 1.366 . S
C645 C649 1.385 . S
C646 H627 0.951 . S
C646 C644 1.388 1_556 S
C646 C647 1.366 . S
C647 C646 1.366 . S
C647 C648 1.414 1_556 S
C647 C650 1.499 . S
C648 H628 0.950 . S
C648 C647 1.414 1_554 S
C648 C649 1.374 . S
C649 H629 0.950 . S
C649 C645 1.385 . S
C649 C648 1.374 . S
C650 C647 1.499 . S
C650 C651 1.373 . S
C650 C652 1.389 . S
C651 H630 0.950 1_556 S
C651 C650 1.373 . S
C651 C667 1.377 . S
C652 C650 1.389 . S
C652 C653 1.524 . S
C652 C666 1.377 . S
C653 C652 1.524 . S
C653 C654 1.397 . S
C653 C658 1.363 . S
C654 H631 0.950 . S
C654 C653 1.397 . S
C654 C655 1.334 . S
C655 H632 0.950 . S
C655 C654 1.334 . S
C655 C656 1.287 . S
C656 C655 1.287 . S
C656 C657 1.524 . S
C656 H675 0.913 . S
C657 H633 0.950 . S
C657 C656 1.524 . S
C657 C658 1.415 . S
C658 H634 0.950 . S
C658 C653 1.363 . S
C658 C657 1.415 . S
C659 H635 0.951 . S
C659 C660 1.366 . S
C659 C661 1.388 . S
C660 C659 1.366 . S
C660 C664 1.385 . S
C661 H636 0.951 . S
C661 C659 1.388 . S
C661 C662 1.366 . S
C662 C661 1.366 . S
C662 C663 1.414 . S
C662 C665 1.499 . S
C663 H637 0.950 . S
C663 C662 1.414 . S
C663 C664 1.374 . S
C664 H638 0.950 . S
C664 C660 1.385 . S
C664 C663 1.374 . S
C665 C662 1.499 . S
C665 C666 1.373 . S
C665 C667 1.389 . S
C666 H639 0.950 . S
C666 C652 1.377 . S
C666 C665 1.373 . S
C667 C651 1.377 . S
C667 C665 1.389 . S
C667 C668 1.524 . S
C668 C667 1.524 . S
C668 C669 1.397 . S
C668 C673 1.363 1_556 S
C669 H640 0.950 . S
C669 C668 1.397 . S
C669 C670 1.334 1_556 S
C670 H641 0.950 . S
C670 C669 1.334 1_554 S
C670 C671 1.287 . S
C671 C670 1.287 . S
C671 C672 1.524 . S
C671 H674 0.999 . S
C672 H642 0.950 . S
C672 C671 1.524 . S
C672 C673 1.415 . S
C673 H643 0.950 . S
C673 C668 1.363 1_554 S
C673 C672 1.415 . S
H674 C671 0.999 . S
H675 C656 0.913 . S
H676 C694 0.951 . S
H677 C696 0.951 . S
H678 C698 0.950 . S
H679 C699 0.950 1_556 S
H680 C701 0.950 . S
H681 C704 0.950 . S
H682 C705 0.950 . S
H683 C707 0.950 . S
H684 C708 0.950 . S
H685 C709 0.951 . S
H686 C711 0.951 . S
H687 C713 0.950 . S
H688 C714 0.950 . S
H689 C716 0.950 . S
H690 C719 0.950 . S
H691 C720 0.950 . S
H692 C722 0.950 . S
H693 C723 0.950 . S
C694 H676 0.951 . S
C694 C695 1.366 . S
C694 C696 1.388 . S
C695 C694 1.366 . S
C695 C699 1.385 . S
C696 H677 0.951 . S
C696 C694 1.388 . S
C696 C697 1.366 . S
C697 C696 1.366 . S
C697 C698 1.414 1_554 S
C697 C700 1.499 1_554 S
C698 H678 0.950 . S
C698 C697 1.414 1_556 S
C698 C699 1.374 1_556 S
C699 H679 0.950 1_554 S
C699 C695 1.385 . S
C699 C698 1.374 1_554 S
C700 C697 1.499 1_556 S
C700 C701 1.373 . S
C700 C702 1.389 . S
C701 H680 0.950 . S
C701 C700 1.373 . S
C701 C717 1.377 . S
C702 C700 1.389 . S
C702 C703 1.524 1_556 S
C702 C716 1.377 . S
C703 C702 1.524 1_554 S
C703 C704 1.397 . S
C703 C708 1.363 . S
C704 H681 0.950 . S
C704 C703 1.397 . S
C704 C705 1.334 . S
C705 H682 0.950 . S
C705 C704 1.334 . S
C705 C706 1.287 . S
C706 C705 1.287 . S
C706 C707 1.524 . S
C706 H725 0.913 . S
C707 H683 0.950 . S
C707 C706 1.524 . S
C707 C708 1.415 . S
C708 H684 0.950 . S
C708 C703 1.363 . S
C708 C707 1.415 . S
C709 H685 0.951 . S
C709 C710 1.366 . S
C709 C711 1.388 . S
C710 C709 1.366 . S
C710 C714 1.385 . S
C711 H686 0.951 . S
C711 C709 1.388 . S
C711 C712 1.366 . S
C712 C711 1.366 . S
C712 C713 1.414 . S
C712 C715 1.499 . S
C713 H687 0.950 . S
C713 C712 1.414 . S
C713 C714 1.374 . S
C714 H688 0.950 . S
C714 C710 1.385 . S
C714 C713 1.374 . S
C715 C712 1.499 . S
C715 C716 1.373 . S
C715 C717 1.389 . S
C716 H689 0.950 . S
C716 C702 1.377 . S
C716 C715 1.373 . S
C717 C701 1.377 . S
C717 C715 1.389 . S
C717 C718 1.524 . S
C718 C717 1.524 . S
C718 C719 1.397 . S
C718 C723 1.363 . S
C719 H690 0.950 . S
C719 C718 1.397 . S
C719 C720 1.334 . S
C720 H691 0.950 . S
C720 C719 1.334 . S
C720 C721 1.287 . S
C721 C720 1.287 . S
C721 C722 1.524 . S
C721 H724 0.999 . S
C722 H692 0.950 . S
C722 C721 1.524 . S
C722 C723 1.415 . S
C723 H693 0.950 . S
C723 C718 1.363 . S
C723 C722 1.415 . S
H724 C721 0.999 . S
H725 C706 0.913 . S
H726 C744 0.951 . S
H727 C746 0.951 . S
H728 C748 0.950 . S
H729 C749 0.950 . S
H730 C751 0.942 1_554 S
H731 C754 0.950 1_655 S
H732 C755 0.981 . S
H733 C757 0.950 . S
H734 C758 0.950 . S
H735 C759 0.951 . S
H736 C761 0.951 . S
H737 C763 0.950 . S
H738 C764 0.950 . S
H739 C766 0.950 . S
H740 C769 0.948 1_556 S
H741 C770 0.959 . S
H742 C772 0.950 . S
H743 C773 0.950 . S
C744 H726 0.951 . S
C744 C745 1.380 . S
C744 C746 1.388 . S
C745 C744 1.380 . S
C745 C749 1.370 1_455 S
C746 H727 0.951 . S
C746 C744 1.388 . S
C746 C747 1.366 . S
C747 C746 1.366 . S
C747 C748 1.414 1_455 S
C747 C750 1.499 1_554 S
C748 H728 0.950 . S
C748 C747 1.414 1_655 S
C748 C749 1.374 . S
C749 H729 0.950 . S
C749 C745 1.370 1_655 S
C749 C748 1.374 . S
C750 C747 1.499 1_556 S
C750 C751 1.375 1_455 S
C750 C752 1.389 . S
C751 H730 0.942 1_556 S
C751 C750 1.375 1_655 S
C751 C767 1.382 . S
C752 C750 1.389 . S
C752 C753 1.524 . S
C752 C766 1.377 . S
C753 C752 1.524 . S
C753 C754 1.397 . S
C753 C758 1.363 . S
C754 H731 0.950 1_455 S
C754 C753 1.397 . S
C754 C755 1.334 . S
C755 H732 0.981 . S
C755 C754 1.334 . S
C755 C756 1.287 . S
C756 C755 1.287 . S
C756 C757 1.524 . S
C756 H775 0.913 . S
C757 H733 0.950 . S
C757 C756 1.524 . S
C757 C758 1.415 . S
C758 H734 0.950 . S
C758 C753 1.363 . S
C758 C757 1.415 . S
C759 H735 0.951 . S
C759 C760 1.366 1_655 S
C759 C761 1.388 . S
C760 C759 1.366 1_455 S
C760 C764 1.385 . S
C761 H736 0.951 . S
C761 C759 1.388 . S
C761 C762 1.366 1_655 S
C762 C761 1.366 1_455 S
C762 C763 1.414 . S
C762 C765 1.499 . S
C763 H737 0.950 . S
C763 C762 1.414 . S
C763 C764 1.374 . S
C764 H738 0.950 . S
C764 C760 1.385 . S
C764 C763 1.374 . S
C765 C762 1.499 . S
C765 C766 1.373 . S
C765 C767 1.389 1_455 S
C766 H739 0.950 . S
C766 C752 1.377 . S
C766 C765 1.373 . S
C767 C751 1.382 . S
C767 C765 1.389 1_655 S
C767 C768 1.524 . S
C768 C767 1.524 . S
C768 C769 1.397 1_656 S
C768 C773 1.363 1_556 S
C769 H740 0.948 1_554 S
C769 C768 1.397 1_454 S
C769 C770 1.339 . S
C770 H741 0.959 . S
C770 C769 1.339 . S
C770 C771 1.273 1_455 S
C771 C770 1.273 1_655 S
C771 C772 1.524 . S
C771 H774 0.999 . S
C772 H742 0.950 . S
C772 C771 1.524 . S
C772 C773 1.415 . S
C773 H743 0.950 . S
C773 C768 1.363 1_554 S
C773 C772 1.415 . S
H774 C771 0.999 . S
H775 C756 0.913 . S
H776 C794 0.951 . S
H777 C796 0.951 . S
H778 C798 0.950 . S
H779 C799 0.950 . S
H780 C801 0.950 . S
H781 C804 0.950 . S
H782 C805 0.950 . S
H783 C807 0.950 . S
H784 C808 0.950 . S
H785 C809 0.951 . S
H786 C811 0.951 . S
H787 C813 0.950 . S
H788 C814 0.950 . S
H789 C816 0.950 . S
H790 C819 0.950 . S
H791 C820 0.950 . S
H792 C822 0.950 . S
H793 C823 0.950 . S
C794 H776 0.951 . S
C794 C795 1.366 . S
C794 C796 1.388 . S
C795 C794 1.366 . S
C795 C799 1.385 1_455 S
C796 H777 0.951 . S
C796 C794 1.388 . S
C796 C797 1.366 1_455 S
C797 C796 1.366 1_655 S
C797 C798 1.414 . S
C797 C800 1.499 . S
C798 H778 0.950 . S
C798 C797 1.414 . S
C798 C799 1.374 . S
C799 H779 0.950 . S
C799 C795 1.385 1_655 S
C799 C798 1.374 . S
C800 C797 1.499 . S
C800 C801 1.373 . S
C800 C802 1.389 1_655 S
C801 H780 0.950 . S
C801 C800 1.373 . S
C801 C817 1.377 . S
C802 C800 1.389 1_455 S
C802 C803 1.524 . S
C802 C816 1.377 . S
C803 C802 1.524 . S
C803 C804 1.397 . S
C803 C808 1.363 . S
C804 H781 0.950 . S
C804 C803 1.397 . S
C804 C805 1.334 . S
C805 H782 0.950 . S
C805 C804 1.334 . S
C805 C806 1.287 . S
C806 C805 1.287 . S
C806 C807 1.524 . S
C806 H825 0.913 . S
C807 H783 0.950 . S
C807 C806 1.524 . S
C807 C808 1.415 . S
C808 H784 0.950 . S
C808 C803 1.363 . S
C808 C807 1.415 . S
C809 H785 0.951 . S
C809 C810 1.366 . S
C809 C811 1.388 . S
C810 C809 1.366 . S
C810 C814 1.385 1_655 S
C811 H786 0.951 . S
C811 C809 1.388 . S
C811 C812 1.366 . S
C812 C811 1.366 . S
C812 C813 1.414 1_655 S
C812 C815 1.499 . S
C813 H787 0.950 . S
C813 C812 1.414 1_455 S
C813 C814 1.374 . S
C814 H788 0.950 . S
C814 C810 1.385 1_455 S
C814 C813 1.374 . S
C815 C812 1.499 . S
C815 C816 1.373 1_655 S
C815 C817 1.389 . S
C816 H789 0.950 . S
C816 C802 1.377 . S
C816 C815 1.373 1_455 S
C817 C801 1.377 . S
C817 C815 1.389 . S
C817 C818 1.524 . S
C818 C817 1.524 . S
C818 C819 1.397 . S
C818 C823 1.363 . S
C819 H790 0.950 . S
C819 C818 1.397 . S
C819 C820 1.334 . S
C820 H791 0.950 . S
C820 C819 1.334 . S
C820 C821 1.287 . S
C821 C820 1.287 . S
C821 C822 1.524 . S
C821 H824 0.999 . S
C822 H792 0.950 . S
C822 C821 1.524 . S
C822 C823 1.415 . S
C823 H793 0.950 . S
C823 C818 1.363 . S
C823 C822 1.415 . S
H824 C821 0.999 . S
H825 C806 0.913 . S
H826 C844 0.951 . S
H827 C846 0.951 . S
H828 C848 0.950 . S
H829 C849 0.950 . S
H830 C851 0.950 . S
H831 C854 0.950 . S
H832 C855 0.950 . S
H833 C857 0.950 . S
H834 C858 0.950 . S
H835 C859 0.951 1_565 S
H836 C861 0.951 . S
H837 C863 0.950 . S
H838 C864 0.950 . S
H839 C866 0.950 . S
H840 C869 0.950 . S
H841 C870 0.950 . S
H842 C872 0.950 . S
H843 C873 0.950 . S
C844 H826 0.951 . S
C844 C845 1.366 . S
C844 C846 1.388 . S
C845 C844 1.366 . S
C845 C849 1.385 . S
C846 H827 0.951 . S
C846 C844 1.388 . S
C846 C847 1.366 . S
C847 C846 1.366 . S
C847 C848 1.414 . S
C847 C850 1.499 . S
C848 H828 0.950 . S
C848 C847 1.414 . S
C848 C849 1.374 . S
C849 H829 0.950 . S
C849 C845 1.385 . S
C849 C848 1.374 . S
C850 C847 1.499 . S
C850 C851 1.373 . S
C850 C852 1.389 . S
C851 H830 0.950 . S
C851 C850 1.373 . S
C851 C867 1.377 . S
C852 C850 1.389 . S
C852 C853 1.524 . S
C852 C866 1.377 . S
C853 C852 1.524 . S
C853 C854 1.397 . S
C853 C858 1.363 . S
C854 H831 0.950 . S
C854 C853 1.397 . S
C854 C855 1.334 . S
C855 H832 0.950 . S
C855 C854 1.334 . S
C855 C856 1.287 . S
C856 C855 1.287 . S
C856 C857 1.524 . S
C856 H875 0.913 . S
C857 H833 0.950 . S
C857 C856 1.524 . S
C857 C858 1.415 . S
C858 H834 0.950 . S
C858 C853 1.363 . S
C858 C857 1.415 . S
C859 H835 0.951 1_545 S
C859 C860 1.366 . S
C859 C861 1.388 . S
C860 C859 1.366 . S
C860 C864 1.385 . S
C861 H836 0.951 . S
C861 C859 1.388 . S
C861 C862 1.366 . S
C862 C861 1.366 . S
C862 C863 1.414 . S
C862 C865 1.499 . S
C863 H837 0.950 . S
C863 C862 1.414 . S
C863 C864 1.374 . S
C864 H838 0.950 . S
C864 C860 1.385 . S
C864 C863 1.374 . S
C865 C862 1.499 . S
C865 C866 1.373 . S
C865 C867 1.389 . S
C866 H839 0.950 . S
C866 C852 1.377 . S
C866 C865 1.373 . S
C867 C851 1.377 . S
C867 C865 1.389 . S
C867 C868 1.524 . S
C868 C867 1.524 . S
C868 C869 1.397 . S
C868 C873 1.363 . S
C869 H840 0.950 . S
C869 C868 1.397 . S
C869 C870 1.334 . S
C870 H841 0.950 . S
C870 C869 1.334 . S
C870 C871 1.287 . S
C871 C870 1.287 . S
C871 C872 1.524 . S
C871 H874 0.999 . S
C872 H842 0.950 . S
C872 C871 1.524 . S
C872 C873 1.415 . S
C873 H843 0.950 . S
C873 C868 1.363 . S
C873 C872 1.415 . S
H874 C871 0.999 . S
H875 C856 0.913 . S
H876 C894 0.951 . S
H877 C896 0.951 . S
H878 C898 0.950 . S
H879 C899 0.950 . S
H880 C901 0.950 . S
H881 C904 0.950 . S
H882 C905 0.950 . S
H883 C907 0.950 . S
H884 C908 0.950 . S
H885 C909 0.951 . S
H886 C911 0.951 . S
H887 C913 0.950 . S
H888 C914 0.950 . S
H889 C916 0.950 . S
H890 C919 0.950 . S
H891 C920 0.950 . S
H892 C922 0.950 . S
H893 C923 0.950 . S
C894 H876 0.951 . S
C894 C895 1.366 . S
C894 C896 1.388 . S
C895 C894 1.366 . S
C895 C899 1.385 . S
C896 H877 0.951 . S
C896 C894 1.388 . S
C896 C897 1.366 . S
C897 C896 1.366 . S
C897 C898 1.414 . S
C897 C900 1.499 . S
C898 H878 0.950 . S
C898 C897 1.414 . S
C898 C899 1.374 . S
C899 H879 0.950 . S
C899 C895 1.385 . S
C899 C898 1.374 . S
C900 C897 1.499 . S
C900 C901 1.373 . S
C900 C902 1.389 . S
C901 H880 0.950 . S
C901 C900 1.373 . S
C901 C917 1.377 . S
C902 C900 1.389 . S
C902 C903 1.524 . S
C902 C916 1.377 . S
C903 C902 1.524 . S
C903 C904 1.397 . S
C903 C908 1.363 . S
C904 H881 0.950 . S
C904 C903 1.397 . S
C904 C905 1.334 . S
C905 H882 0.950 . S
C905 C904 1.334 . S
C905 C906 1.287 . S
C906 C905 1.287 . S
C906 C907 1.524 . S
C906 H925 0.913 . S
C907 H883 0.950 . S
C907 C906 1.524 . S
C907 C908 1.415 . S
C908 H884 0.950 . S
C908 C903 1.363 . S
C908 C907 1.415 . S
C909 H885 0.951 . S
C909 C910 1.366 . S
C909 C911 1.388 . S
C910 C909 1.366 . S
C910 C914 1.385 . S
C911 H886 0.951 . S
C911 C909 1.388 . S
C911 C912 1.366 . S
C912 C911 1.366 . S
C912 C913 1.414 . S
C912 C915 1.499 . S
C913 H887 0.950 . S
C913 C912 1.414 . S
C913 C914 1.374 . S
C914 H888 0.950 . S
C914 C910 1.385 . S
C914 C913 1.374 . S
C915 C912 1.499 . S
C915 C916 1.373 . S
C915 C917 1.389 . S
C916 H889 0.950 . S
C916 C902 1.377 . S
C916 C915 1.373 . S
C917 C901 1.377 . S
C917 C915 1.389 . S
C917 C918 1.524 . S
C918 C917 1.524 . S
C918 C919 1.397 . S
C918 C923 1.363 . S
C919 H890 0.950 . S
C919 C918 1.397 . S
C919 C920 1.334 . S
C920 H891 0.950 . S
C920 C919 1.334 . S
C920 C921 1.287 . S
C921 C920 1.287 . S
C921 C922 1.524 . S
C921 H924 0.999 . S
C922 H892 0.950 . S
C922 C921 1.524 . S
C922 C923 1.415 . S
C923 H893 0.950 . S
C923 C918 1.363 . S
C923 C922 1.415 . S
H924 C921 0.999 . S
H925 C906 0.913 . S
H926 C944 0.951 . S
H927 C946 0.951 . S
H928 C948 0.950 . S
H929 C949 0.950 . S
H930 C951 0.950 . S
H931 C954 0.950 . S
H932 C955 0.950 . S
H933 C957 0.950 . S
H934 C958 0.950 . S
H935 C959 0.951 . S
H936 C961 0.951 . S
H937 C963 0.950 . S
H938 C964 0.950 . S
H939 C966 0.950 . S
H940 C969 0.950 . S
H941 C970 0.950 . S
H942 C972 0.950 . S
H943 C973 0.950 . S
C944 H926 0.951 . S
C944 C945 1.366 . S
C944 C946 1.388 . S
C945 C944 1.366 . S
C945 C949 1.385 . S
C946 H927 0.951 . S
C946 C944 1.388 . S
C946 C947 1.366 . S
C947 C946 1.366 . S
C947 C948 1.414 . S
C947 C950 1.499 . S
C948 H928 0.950 . S
C948 C947 1.414 . S
C948 C949 1.374 . S
C949 H929 0.950 . S
C949 C945 1.385 . S
C949 C948 1.374 . S
C950 C947 1.499 . S
C950 C951 1.373 . S
C950 C952 1.389 . S
C951 H930 0.950 . S
C951 C950 1.373 . S
C951 C967 1.377 . S
C952 C950 1.389 . S
C952 C953 1.524 . S
C952 C966 1.377 . S
C953 C952 1.524 . S
C953 C954 1.397 . S
C953 C958 1.363 . S
C954 H931 0.950 . S
C954 C953 1.397 . S
C954 C955 1.334 . S
C955 H932 0.950 . S
C955 C954 1.334 . S
C955 C956 1.287 . S
C956 C955 1.287 . S
C956 C957 1.524 . S
C956 H975 0.913 . S
C957 H933 0.950 . S
C957 C956 1.524 . S
C957 C958 1.415 . S
C958 H934 0.950 . S
C958 C953 1.363 . S
C958 C957 1.415 . S
C959 H935 0.951 . S
C959 C960 1.366 . S
C959 C961 1.388 . S
C960 C959 1.366 . S
C960 C964 1.385 . S
C961 H936 0.951 . S
C961 C959 1.388 . S
C961 C962 1.366 . S
C962 C961 1.366 . S
C962 C963 1.414 . S
C962 C965 1.499 . S
C963 H937 0.950 . S
C963 C962 1.414 . S
C963 C964 1.374 . S
C964 H938 0.950 . S
C964 C960 1.385 . S
C964 C963 1.374 . S
C965 C962 1.499 . S
C965 C966 1.373 . S
C965 C967 1.389 . S
C966 H939 0.950 . S
C966 C952 1.377 . S
C966 C965 1.373 . S
C967 C951 1.377 . S
C967 C965 1.389 . S
C967 C968 1.524 . S
C968 C967 1.524 . S
C968 C969 1.397 . S
C968 C973 1.363 . S
C969 H940 0.950 . S
C969 C968 1.397 . S
C969 C970 1.334 . S
C970 H941 0.950 . S
C970 C969 1.334 . S
C970 C971 1.287 . S
C971 C970 1.287 . S
C971 C972 1.524 . S
C971 H974 0.999 . S
C972 H942 0.950 . S
C972 C971 1.524 . S
C972 C973 1.415 . S
C973 H943 0.950 . S
C973 C968 1.363 . S
C973 C972 1.415 . S
H974 C971 0.999 . S
H975 C956 0.913 . S
H976 C994 0.951 . S
H977 C996 0.951 . S
H978 C998 0.950 . S
H979 C999 0.950 . S
H980 C1001 0.950 . S
H981 C1004 0.950 . S
H982 C1005 0.950 . S
H983 C1007 0.950 . S
H984 C1008 0.950 . S
H985 C1009 0.951 . S
H986 C1011 0.951 . S
H987 C1013 0.950 . S
H988 C1014 0.950 . S
H989 C1016 0.950 . S
H990 C1019 0.950 . S
H991 C1020 0.950 . S
H992 C1022 0.950 . S
H993 C1023 0.950 . S
C994 H976 0.951 . S
C994 C995 1.366 1_456 S
C994 C996 1.388 . S
C995 C994 1.366 1_654 S
C995 C999 1.385 . S
C996 H977 0.951 . S
C996 C994 1.388 . S
C996 C997 1.366 . S
C997 C996 1.366 . S
C997 C998 1.414 1_455 S
C997 C1000 1.499 . S
C998 H978 0.950 . S
C998 C997 1.414 1_655 S
C998 C999 1.374 1_556 S
C999 H979 0.950 . S
C999 C995 1.385 . S
C999 C998 1.374 1_554 S
C1000 C997 1.499 . S
C1000 C1001 1.373 1_455 S
C1000 C1002 1.389 . S
C1001 H980 0.950 . S
C1001 C1000 1.373 1_655 S
C1001 C1017 1.377 . S
C1002 C1000 1.389 . S
C1002 C1003 1.524 . S
C1002 C1016 1.377 . S
C1003 C1002 1.524 . S
C1003 C1004 1.397 1_556 S
C1003 C1008 1.363 . S
C1004 H981 0.950 . S
C1004 C1003 1.397 1_554 S
C1004 C1005 1.334 . S
C1005 H982 0.950 . S
C1005 C1004 1.334 . S
C1005 C1006 1.287 . S
C1006 C1005 1.287 . S
C1006 C1007 1.524 . S
C1006 H1025 0.913 . S
C1007 H983 0.950 . S
C1007 C1006 1.524 . S
C1007 C1008 1.415 1_554 S
C1008 H984 0.950 . S
C1008 C1003 1.363 . S
C1008 C1007 1.415 1_556 S
C1009 H985 0.951 . S
C1009 C1010 1.366 1_655 S
C1009 C1011 1.388 . S
C1010 C1009 1.366 1_455 S
C1010 C1014 1.385 . S
C1011 H986 0.951 . S
C1011 C1009 1.388 . S
C1011 C1012 1.366 1_655 S
C1012 C1011 1.366 1_455 S
C1012 C1013 1.414 . S
C1012 C1015 1.499 . S
C1013 H987 0.950 . S
C1013 C1012 1.414 . S
C1013 C1014 1.374 . S
C1014 H988 0.950 . S
C1014 C1010 1.385 . S
C1014 C1013 1.374 . S
C1015 C1012 1.499 . S
C1015 C1016 1.373 . S
C1015 C1017 1.389 1_455 S
C1016 H989 0.950 . S
C1016 C1002 1.377 . S
C1016 C1015 1.373 . S
C1017 C1001 1.377 . S
C1017 C1015 1.389 1_655 S
C1017 C1018 1.524 . S
C1018 C1017 1.524 . S
C1018 C1019 1.397 . S
C1018 C1023 1.363 . S
C1019 H990 0.950 . S
C1019 C1018 1.397 . S
C1019 C1020 1.334 . S
C1020 H991 0.950 . S
C1020 C1019 1.334 . S
C1020 C1021 1.287 . S
C1021 C1020 1.287 . S
C1021 C1022 1.524 . S
C1021 H1024 0.999 . S
C1022 H992 0.950 . S
C1022 C1021 1.524 . S
C1022 C1023 1.415 . S
C1023 H993 0.950 . S
C1023 C1018 1.363 . S
C1023 C1022 1.415 . S
H1024 C1021 0.999 . S
H1025 C1006 0.913 . S
H1026 C1044 0.951 1_554 S
H1027 C1046 0.951 . S
H1028 C1048 0.950 . S
H1029 C1049 0.950 . S
H1030 C1051 0.950 . S
H1031 C1054 0.950 . S
H1032 C1055 0.950 . S
H1033 C1057 0.950 1_545 S
H1034 C1058 0.950 1_546 S
H1035 C1059 0.951 . S
H1036 C1061 0.951 . S
H1037 C1063 0.950 . S
H1038 C1064 0.950 . S
H1039 C1066 0.950 . S
H1040 C1069 0.950 . S
H1041 C1070 0.950 . S
H1042 C1072 0.950 . S
H1043 C1073 0.950 . S
C1044 H1026 0.951 1_556 S
C1044 C1045 1.366 . S
C1044 C1046 1.388 . S
C1045 C1044 1.366 . S
C1045 C1049 1.385 . S
C1046 H1027 0.951 . S
C1046 C1044 1.388 . S
C1046 C1047 1.366 . S
C1047 C1046 1.366 . S
C1047 C1048 1.414 . S
C1047 C1050 1.499 . S
C1048 H1028 0.950 . S
C1048 C1047 1.414 . S
C1048 C1049 1.374 . S
C1049 H1029 0.950 . S
C1049 C1045 1.385 . S
C1049 C1048 1.374 . S
C1050 C1047 1.499 . S
C1050 C1051 1.373 . S
C1050 C1052 1.389 . S
C1051 H1030 0.950 . S
C1051 C1050 1.373 . S
C1051 C1067 1.377 . S
C1052 C1050 1.389 . S
C1052 C1053 1.524 1_556 S
C1052 C1066 1.377 . S
C1053 C1052 1.524 1_554 S
C1053 C1054 1.397 . S
C1053 C1058 1.363 . S
C1054 H1031 0.950 . S
C1054 C1053 1.397 . S
C1054 C1055 1.334 . S
C1055 H1032 0.950 . S
C1055 C1054 1.334 . S
C1055 C1056 1.287 . S
C1056 C1055 1.287 . S
C1056 C1057 1.524 . S
C1056 H1075 0.913 . S
C1057 H1033 0.950 1_565 S
C1057 C1056 1.524 . S
C1057 C1058 1.415 . S
C1058 H1034 0.950 1_564 S
C1058 C1053 1.363 . S
C1058 C1057 1.415 . S
C1059 H1035 0.951 . S
C1059 C1060 1.366 1_565 S
C1059 C1061 1.388 . S
C1060 C1059 1.366 1_545 S
C1060 C1064 1.385 . S
C1061 H1036 0.951 . S
C1061 C1059 1.388 . S
C1061 C1062 1.366 . S
C1062 C1061 1.366 . S
C1062 C1063 1.414 1_565 S
C1062 C1065 1.499 . S
C1063 H1037 0.950 . S
C1063 C1062 1.414 1_545 S
C1063 C1064 1.374 . S
C1064 H1038 0.950 . S
C1064 C1060 1.385 . S
C1064 C1063 1.374 . S
C1065 C1062 1.499 . S
C1065 C1066 1.373 . S
C1065 C1067 1.389 . S
C1066 H1039 0.950 . S
C1066 C1052 1.377 . S
C1066 C1065 1.373 . S
C1067 C1051 1.377 . S
C1067 C1065 1.389 . S
C1067 C1068 1.524 . S
C1068 C1067 1.524 . S
C1068 C1069 1.397 . S
C1068 C1073 1.363 . S
C1069 H1040 0.950 . S
C1069 C1068 1.397 . S
C1069 C1070 1.334 . S
C1070 H1041 0.950 . S
C1070 C1069 1.334 . S
C1070 C1071 1.287 . S
C1071 C1070 1.287 . S
C1071 C1072 1.524 . S
C1071 H1074 0.999 . S
C1072 H1042 0.950 . S
C1072 C1071 1.524 . S
C1072 C1073 1.415 . S
C1073 H1043 0.950 . S
C1073 C1068 1.363 . S
C1073 C1072 1.415 . S
H1074 C1071 0.999 . S
H1075 C1056 0.913 . S
H1076 C1094 0.951 . S
H1077 C1096 0.951 . S
H1078 C1098 0.950 . S
H1079 C1099 0.950 . S
H1080 C1101 0.950 . S
H1081 C1104 0.950 . S
H1082 C1105 0.950 . S
H1083 C1107 0.950 . S
H1084 C1108 0.950 . S
H1085 C1109 0.951 . S
H1086 C1111 0.951 . S
H1087 C1113 0.950 . S
H1088 C1114 0.950 . S
H1089 C1116 0.950 . S
H1090 C1119 0.950 . S
H1091 C1120 0.950 . S
H1092 C1122 0.950 1_554 S
H1093 C1123 0.950 1_554 S
C1094 H1076 0.951 . S
C1094 C1095 1.366 1_556 S
C1094 C1096 1.388 . S
C1095 C1094 1.366 1_554 S
C1095 C1099 1.385 . S
C1096 H1077 0.951 . S
C1096 C1094 1.388 . S
C1096 C1097 1.366 . S
C1097 C1096 1.366 . S
C1097 C1098 1.414 1_556 S
C1097 C1100 1.499 . S
C1098 H1078 0.950 . S
C1098 C1097 1.414 1_554 S
C1098 C1099 1.374 . S
C1099 H1079 0.950 . S
C1099 C1095 1.385 . S
C1099 C1098 1.374 . S
C1100 C1097 1.499 . S
C1100 C1101 1.373 . S
C1100 C1102 1.389 . S
C1101 H1080 0.950 . S
C1101 C1100 1.373 . S
C1101 C1117 1.377 . S
C1102 C1100 1.389 . S
C1102 C1103 1.524 . S
C1102 C1116 1.377 . S
C1103 C1102 1.524 . S
C1103 C1104 1.397 . S
C1103 C1108 1.363 . S
C1104 H1081 0.950 . S
C1104 C1103 1.397 . S
C1104 C1105 1.334 . S
C1105 H1082 0.950 . S
C1105 C1104 1.334 . S
C1105 C1106 1.287 . S
C1106 C1105 1.287 . S
C1106 C1107 1.524 . S
C1106 H1125 0.913 . S
C1107 H1083 0.950 . S
C1107 C1106 1.524 . S
C1107 C1108 1.415 . S
C1108 H1084 0.950 . S
C1108 C1103 1.363 . S
C1108 C1107 1.415 . S
C1109 H1085 0.951 . S
C1109 C1110 1.366 . S
C1109 C1111 1.388 . S
C1110 C1109 1.366 . S
C1110 C1114 1.385 . S
C1111 H1086 0.951 . S
C1111 C1109 1.388 . S
C1111 C1112 1.366 . S
C1112 C1111 1.366 . S
C1112 C1113 1.414 . S
C1112 C1115 1.499 . S
C1113 H1087 0.950 . S
C1113 C1112 1.414 . S
C1113 C1114 1.374 . S
C1114 H1088 0.950 . S
C1114 C1110 1.385 . S
C1114 C1113 1.374 . S
C1115 C1112 1.499 . S
C1115 C1116 1.373 . S
C1115 C1117 1.389 . S
C1116 H1089 0.950 . S
C1116 C1102 1.377 . S
C1116 C1115 1.373 . S
C1117 C1101 1.377 . S
C1117 C1115 1.389 . S
C1117 C1118 1.524 . S
C1118 C1117 1.524 . S
C1118 C1119 1.397 . S
C1118 C1123 1.363 . S
C1119 H1090 0.950 . S
C1119 C1118 1.397 . S
C1119 C1120 1.334 . S
C1120 H1091 0.950 . S
C1120 C1119 1.334 . S
C1120 C1121 1.287 . S
C1121 C1120 1.287 . S
C1121 C1122 1.524 . S
C1121 H1124 0.999 . S
C1122 H1092 0.950 1_556 S
C1122 C1121 1.524 . S
C1122 C1123 1.415 . S
C1123 H1093 0.950 1_556 S
C1123 C1118 1.363 . S
C1123 C1122 1.415 . S
H1124 C1121 0.999 . S
H1125 C1106 0.913 . S
H1126 C1144 0.951 . S
H1127 C1146 0.951 . S
H1128 C1148 0.950 . S
H1129 C1149 0.950 . S
H1130 C1151 0.950 . S
H1131 C1154 0.950 . S
H1132 C1155 0.950 . S
H1133 C1157 0.950 . S
H1134 C1158 0.950 . S
H1135 C1159 0.951 . S
H1136 C1161 0.951 . S
H1137 C1163 0.950 . S
H1138 C1164 0.950 . S
H1139 C1166 0.950 . S
H1140 C1169 0.950 . S
H1141 C1170 0.950 . S
H1142 C1172 0.950 . S
H1143 C1173 0.950 . S
C1144 H1126 0.951 . S
C1144 C1145 1.366 . S
C1144 C1146 1.388 1_554 S
C1145 C1144 1.366 . S
C1145 C1149 1.385 1_554 S
C1146 H1127 0.951 . S
C1146 C1144 1.388 1_556 S
C1146 C1147 1.366 . S
C1147 C1146 1.366 . S
C1147 C1148 1.414 . S
C1147 C1150 1.499 . S
C1148 H1128 0.950 . S
C1148 C1147 1.414 . S
C1148 C1149 1.374 . S
C1149 H1129 0.950 . S
C1149 C1145 1.385 1_556 S
C1149 C1148 1.374 . S
C1150 C1147 1.499 . S
C1150 C1151 1.373 . S
C1150 C1152 1.389 . S
C1151 H1130 0.950 . S
C1151 C1150 1.373 . S
C1151 C1167 1.377 . S
C1152 C1150 1.389 . S
C1152 C1153 1.524 1_556 S
C1152 C1166 1.377 . S
C1153 C1152 1.524 1_554 S
C1153 C1154 1.397 . S
C1153 C1158 1.363 . S
C1154 H1131 0.950 . S
C1154 C1153 1.397 . S
C1154 C1155 1.334 . S
C1155 H1132 0.950 . S
C1155 C1154 1.334 . S
C1155 C1156 1.287 . S
C1156 C1155 1.287 . S
C1156 C1157 1.524 . S
C1156 H1175 0.913 . S
C1157 H1133 0.950 . S
C1157 C1156 1.524 . S
C1157 C1158 1.415 . S
C1158 H1134 0.950 . S
C1158 C1153 1.363 . S
C1158 C1157 1.415 . S
C1159 H1135 0.951 . S
C1159 C1160 1.366 . S
C1159 C1161 1.388 . S
C1160 C1159 1.366 . S
C1160 C1164 1.385 . S
C1161 H1136 0.951 . S
C1161 C1159 1.388 . S
C1161 C1162 1.366 . S
C1162 C1161 1.366 . S
C1162 C1163 1.414 . S
C1162 C1165 1.499 . S
C1163 H1137 0.950 . S
C1163 C1162 1.414 . S
C1163 C1164 1.374 . S
C1164 H1138 0.950 . S
C1164 C1160 1.385 . S
C1164 C1163 1.374 . S
C1165 C1162 1.499 . S
C1165 C1166 1.373 . S
C1165 C1167 1.389 . S
C1166 H1139 0.950 . S
C1166 C1152 1.377 . S
C1166 C1165 1.373 . S
C1167 C1151 1.377 . S
C1167 C1165 1.389 . S
C1167 C1168 1.524 . S
C1168 C1167 1.524 . S
C1168 C1169 1.397 . S
C1168 C1173 1.363 . S
C1169 H1140 0.950 . S
C1169 C1168 1.397 . S
C1169 C1170 1.334 . S
C1170 H1141 0.950 . S
C1170 C1169 1.334 . S
C1170 C1171 1.287 . S
C1171 C1170 1.287 . S
C1171 C1172 1.524 . S
C1171 H1174 0.999 . S
C1172 H1142 0.950 . S
C1172 C1171 1.524 . S
C1172 C1173 1.415 . S
C1173 H1143 0.950 . S
C1173 C1168 1.363 . S
C1173 C1172 1.415 . S
H1174 C1171 0.999 . S
H1175 C1156 0.913 . S
H1176 C1194 0.951 . S
H1177 C1196 0.951 . S
H1178 C1198 0.950 . S
H1179 C1199 0.950 . S
H1180 C1201 0.950 . S
H1181 C1204 0.950 . S
H1182 C1205 0.950 . S
H1183 C1207 0.950 1_655 S
H1184 C1208 0.997 . S
H1185 C1209 0.951 . S
H1186 C1211 0.951 . S
H1187 C1213 0.950 . S
H1188 C1214 0.950 . S
H1189 C1216 0.950 . S
H1190 C1219 0.950 . S
H1191 C1220 0.950 . S
H1192 C1222 0.950 . S
H1193 C1223 0.950 . S
C1194 H1176 0.951 . S
C1194 C1195 1.340 1_655 S
C1194 C1196 1.388 . S
C1195 C1194 1.340 1_455 S
C1195 C1199 1.413 . S
C1196 H1177 0.951 . S
C1196 C1194 1.388 . S
C1196 C1197 1.366 1_655 S
C1197 C1196 1.366 1_455 S
C1197 C1198 1.414 . S
C1197 C1200 1.499 . S
C1198 H1178 0.950 . S
C1198 C1197 1.414 . S
C1198 C1199 1.374 . S
C1199 H1179 0.950 . S
C1199 C1195 1.413 . S
C1199 C1198 1.374 . S
C1200 C1197 1.499 . S
C1200 C1201 1.373 . S
C1200 C1202 1.389 . S
C1201 H1180 0.950 . S
C1201 C1200 1.373 . S
C1201 C1217 1.377 . S
C1202 C1200 1.389 . S
C1202 C1203 1.524 . S
C1202 C1216 1.377 . S
C1203 C1202 1.524 . S
C1203 C1204 1.397 . S
C1203 C1208 1.328 1_455 S
C1204 H1181 0.950 . S
C1204 C1203 1.397 . S
C1204 C1205 1.334 . S
C1205 H1182 0.950 . S
C1205 C1204 1.334 . S
C1205 C1206 1.287 . S
C1206 C1205 1.287 . S
C1206 C1207 1.524 . S
C1206 H1225 0.913 . S
C1207 H1183 0.950 1_455 S
C1207 C1206 1.524 . S
C1207 C1208 1.407 1_455 S
C1208 H1184 0.997 . S
C1208 C1203 1.328 1_655 S
C1208 C1207 1.407 1_655 S
C1209 H1185 0.951 . S
C1209 C1210 1.366 . S
C1209 C1211 1.388 . S
C1210 C1209 1.366 . S
C1210 C1214 1.385 1_455 S
C1211 H1186 0.951 . S
C1211 C1209 1.388 . S
C1211 C1212 1.366 1_556 S
C1212 C1211 1.366 1_554 S
C1212 C1213 1.414 1_455 S
C1212 C1215 1.499 . S
C1213 H1187 0.950 . S
C1213 C1212 1.414 1_655 S
C1213 C1214 1.374 1_554 S
C1214 H1188 0.950 . S
C1214 C1210 1.385 1_655 S
C1214 C1213 1.374 1_556 S
C1215 C1212 1.499 . S
C1215 C1216 1.373 . S
C1215 C1217 1.389 . S
C1216 H1189 0.950 . S
C1216 C1202 1.377 . S
C1216 C1215 1.373 . S
C1217 C1201 1.377 . S
C1217 C1215 1.389 . S
C1217 C1218 1.530 1_554 S
C1218 C1217 1.530 1_556 S
C1218 C1219 1.363 1_455 S
C1218 C1223 1.388 . S
C1219 H1190 0.950 . S
C1219 C1218 1.363 1_655 S
C1219 C1220 1.334 . S
C1220 H1191 0.950 . S
C1220 C1219 1.334 . S
C1220 C1221 1.287 . S
C1221 C1220 1.287 . S
C1221 C1222 1.524 1_655 S
C1221 H1224 0.999 . S
C1222 H1192 0.950 . S
C1222 C1221 1.524 1_455 S
C1222 C1223 1.415 . S
C1223 H1193 0.950 . S
C1223 C1218 1.388 . S
C1223 C1222 1.415 . S
H1224 C1221 0.999 . S
H1225 C1206 0.913 . S
H1226 C1244 0.951 . S
H1227 C1246 0.951 . S
H1228 C1248 0.950 . S
H1229 C1249 0.950 . S
H1230 C1251 0.950 . S
H1231 C1254 0.950 . S
H1232 C1255 0.950 . S
H1233 C1257 0.950 . S
H1234 C1258 0.950 . S
H1235 C1259 0.951 . S
H1236 C1261 0.951 . S
H1237 C1263 0.950 . S
H1238 C1264 0.950 . S
H1239 C1266 0.950 . S
H1240 C1269 0.950 . S
H1241 C1270 0.941 1_556 S
H1242 C1272 0.950 . S
H1243 C1273 0.950 . S
C1244 H1226 0.951 . S
C1244 C1245 1.366 . S
C1244 C1246 1.388 . S
C1245 C1244 1.366 . S
C1245 C1249 1.385 . S
C1246 H1227 0.951 . S
C1246 C1244 1.388 . S
C1246 C1247 1.366 . S
C1247 C1246 1.366 . S
C1247 C1248 1.414 . S
C1247 C1250 1.499 . S
C1248 H1228 0.950 . S
C1248 C1247 1.414 . S
C1248 C1249 1.374 . S
C1249 H1229 0.950 . S
C1249 C1245 1.385 . S
C1249 C1248 1.374 . S
C1250 C1247 1.499 . S
C1250 C1251 1.373 . S
C1250 C1252 1.389 . S
C1251 H1230 0.950 . S
C1251 C1250 1.373 . S
C1251 C1267 1.377 . S
C1252 C1250 1.389 . S
C1252 C1253 1.524 . S
C1252 C1266 1.377 . S
C1253 C1252 1.524 . S
C1253 C1254 1.397 . S
C1253 C1258 1.363 . S
C1254 H1231 0.950 . S
C1254 C1253 1.397 . S
C1254 C1255 1.334 . S
C1255 H1232 0.950 . S
C1255 C1254 1.334 . S
C1255 C1256 1.287 . S
C1256 C1255 1.287 . S
C1256 C1257 1.524 . S
C1256 H1275 0.913 1_545 S
C1257 H1233 0.950 . S
C1257 C1256 1.524 . S
C1257 C1258 1.415 . S
C1258 H1234 0.950 . S
C1258 C1253 1.363 . S
C1258 C1257 1.415 . S
C1259 H1235 0.951 . S
C1259 C1260 1.366 1_554 S
C1259 C1261 1.388 . S
C1260 C1259 1.366 1_556 S
C1260 C1264 1.385 . S
C1261 H1236 0.951 . S
C1261 C1259 1.388 . S
C1261 C1262 1.366 . S
C1262 C1261 1.366 . S
C1262 C1263 1.414 1_554 S
C1262 C1265 1.499 . S
C1263 H1237 0.950 . S
C1263 C1262 1.414 1_556 S
C1263 C1264 1.374 . S
C1264 H1238 0.950 . S
C1264 C1260 1.385 . S
C1264 C1263 1.374 . S
C1265 C1262 1.499 . S
C1265 C1266 1.373 . S
C1265 C1267 1.389 . S
C1266 H1239 0.950 . S
C1266 C1252 1.377 . S
C1266 C1265 1.373 . S
C1267 C1251 1.377 . S
C1267 C1265 1.389 . S
C1267 C1268 1.524 . S
C1268 C1267 1.524 . S
C1268 C1269 1.397 . S
C1268 C1273 1.363 . S
C1269 H1240 0.950 . S
C1269 C1268 1.397 . S
C1269 C1270 1.334 . S
C1270 H1241 0.941 1_554 S
C1270 C1269 1.334 . S
C1270 C1271 1.287 . S
C1271 C1270 1.287 . S
C1271 C1272 1.524 . S
C1271 H1274 0.999 . S
C1272 H1242 0.950 . S
C1272 C1271 1.524 . S
C1272 C1273 1.415 . S
C1273 H1243 0.950 . S
C1273 C1268 1.363 . S
C1273 C1272 1.415 . S
H1274 C1271 0.999 . S
H1275 C1256 0.913 1_565 S
H1276 C1294 0.951 . S
H1277 C1296 0.951 . S
H1278 C1298 0.950 . S
H1279 C1299 0.950 . S
H1280 C1301 0.950 . S
H1281 C1304 0.950 . S
H1282 C1305 0.950 . S
H1283 C1307 0.950 . S
H1284 C1308 0.950 . S
H1285 C1309 0.951 . S
H1286 C1311 0.951 . S
H1287 C1313 0.950 . S
H1288 C1314 0.950 . S
H1289 C1316 0.950 . S
H1290 C1319 0.950 . S
H1291 C1320 0.950 . S
H1292 C1322 0.950 . S
H1293 C1323 0.950 . S
C1294 H1276 0.951 . S
C1294 C1295 1.366 . S
C1294 C1296 1.388 . S
C1295 C1294 1.366 . S
C1295 C1299 1.385 . S
C1296 H1277 0.951 . S
C1296 C1294 1.388 . S
C1296 C1297 1.366 . S
C1297 C1296 1.366 . S
C1297 C1298 1.414 . S
C1297 C1300 1.499 . S
C1298 H1278 0.950 . S
C1298 C1297 1.414 . S
C1298 C1299 1.374 . S
C1299 H1279 0.950 . S
C1299 C1295 1.385 . S
C1299 C1298 1.374 . S
C1300 C1297 1.499 . S
C1300 C1301 1.373 . S
C1300 C1302 1.389 . S
C1301 H1280 0.950 . S
C1301 C1300 1.373 . S
C1301 C1317 1.377 . S
C1302 C1300 1.389 . S
C1302 C1303 1.524 . S
C1302 C1316 1.377 1_554 S
C1303 C1302 1.524 . S
C1303 C1304 1.397 . S
C1303 C1308 1.363 1_554 S
C1304 H1281 0.950 . S
C1304 C1303 1.397 . S
C1304 C1305 1.334 . S
C1305 H1282 0.950 . S
C1305 C1304 1.334 . S
C1305 C1306 1.287 1_554 S
C1306 C1305 1.287 1_556 S
C1306 C1307 1.524 . S
C1306 H1325 0.913 . S
C1307 H1283 0.950 . S
C1307 C1306 1.524 . S
C1307 C1308 1.415 . S
C1308 H1284 0.950 . S
C1308 C1303 1.363 1_556 S
C1308 C1307 1.415 . S
C1309 H1285 0.951 . S
C1309 C1310 1.366 . S
C1309 C1311 1.388 . S
C1310 C1309 1.366 . S
C1310 C1314 1.385 . S
C1311 H1286 0.951 . S
C1311 C1309 1.388 . S
C1311 C1312 1.366 . S
C1312 C1311 1.366 . S
C1312 C1313 1.414 . S
C1312 C1315 1.499 1_556 S
C1313 H1287 0.950 . S
C1313 C1312 1.414 . S
C1313 C1314 1.374 . S
C1314 H1288 0.950 . S
C1314 C1310 1.385 . S
C1314 C1313 1.374 . S
C1315 C1312 1.499 1_554 S
C1315 C1316 1.373 1_554 S
C1315 C1317 1.389 . S
C1316 H1289 0.950 . S
C1316 C1302 1.377 1_556 S
C1316 C1315 1.373 1_556 S
C1317 C1301 1.377 . S
C1317 C1315 1.389 . S
C1317 C1318 1.524 . S
C1318 C1317 1.524 . S
C1318 C1319 1.397 . S
C1318 C1323 1.363 . S
C1319 H1290 0.950 . S
C1319 C1318 1.397 . S
C1319 C1320 1.334 . S
C1320 H1291 0.950 . S
C1320 C1319 1.334 . S
C1320 C1321 1.287 . S
C1321 C1320 1.287 . S
C1321 C1322 1.524 . S
C1321 H1324 0.999 . S
C1322 H1292 0.950 . S
C1322 C1321 1.524 . S
C1322 C1323 1.415 . S
C1323 H1293 0.950 . S
C1323 C1318 1.363 . S
C1323 C1322 1.415 . S
H1324 C1321 0.999 . S
H1325 C1306 0.913 . S
H1326 C1344 0.951 . S
H1327 C1346 0.951 . S
H1328 C1348 0.950 . S
H1329 C1349 0.950 . S
H1330 C1351 0.950 . S
H1331 C1354 0.950 . S
H1332 C1355 0.950 . S
H1333 C1357 0.950 . S
H1334 C1358 0.950 . S
H1335 C1359 0.951 . S
H1336 C1361 0.951 . S
H1337 C1363 0.950 1_554 S
H1338 C1364 0.950 . S
H1339 C1366 0.950 . S
H1340 C1369 0.950 . S
H1341 C1370 0.950 . S
H1342 C1372 0.950 . S
H1343 C1373 0.950 . S
C1344 H1326 0.951 . S
C1344 C1345 1.366 . S
C1344 C1346 1.388 . S
C1345 C1344 1.366 . S
C1345 C1349 1.385 . S
C1346 H1327 0.951 . S
C1346 C1344 1.388 . S
C1346 C1347 1.366 . S
C1347 C1346 1.366 . S
C1347 C1348 1.414 . S
C1347 C1350 1.499 . S
C1348 H1328 0.950 . S
C1348 C1347 1.414 . S
C1348 C1349 1.374 . S
C1349 H1329 0.950 . S
C1349 C1345 1.385 . S
C1349 C1348 1.374 . S
C1350 C1347 1.499 . S
C1350 C1351 1.373 . S
C1350 C1352 1.389 . S
C1351 H1330 0.950 . S
C1351 C1350 1.373 . S
C1351 C1367 1.377 1_554 S
C1352 C1350 1.389 . S
C1352 C1353 1.524 . S
C1352 C1366 1.377 . S
C1353 C1352 1.524 . S
C1353 C1354 1.397 . S
C1353 C1358 1.363 . S
C1354 H1331 0.950 . S
C1354 C1353 1.397 . S
C1354 C1355 1.334 . S
C1355 H1332 0.950 . S
C1355 C1354 1.334 . S
C1355 C1356 1.287 . S
C1356 C1355 1.287 . S
C1356 C1357 1.524 . S
C1356 H1375 0.913 . S
C1357 H1333 0.950 . S
C1357 C1356 1.524 . S
C1357 C1358 1.415 . S
C1358 H1334 0.950 . S
C1358 C1353 1.363 . S
C1358 C1357 1.415 . S
C1359 H1335 0.951 . S
C1359 C1360 1.366 . S
C1359 C1361 1.388 . S
C1360 C1359 1.366 . S
C1360 C1364 1.385 . S
C1361 H1336 0.951 . S
C1361 C1359 1.388 . S
C1361 C1362 1.366 . S
C1362 C1361 1.366 . S
C1362 C1363 1.414 . S
C1362 C1365 1.499 1_556 S
C1363 H1337 0.950 1_556 S
C1363 C1362 1.414 . S
C1363 C1364 1.374 . S
C1364 H1338 0.950 . S
C1364 C1360 1.385 . S
C1364 C1363 1.374 . S
C1365 C1362 1.499 1_554 S
C1365 C1366 1.373 . S
C1365 C1367 1.389 1_554 S
C1366 H1339 0.950 . S
C1366 C1352 1.377 . S
C1366 C1365 1.373 . S
C1367 C1351 1.377 1_556 S
C1367 C1365 1.389 1_556 S
C1367 C1368 1.524 . S
C1368 C1367 1.524 . S
C1368 C1369 1.397 . S
C1368 C1373 1.363 . S
C1369 H1340 0.950 . S
C1369 C1368 1.397 . S
C1369 C1370 1.334 . S
C1370 H1341 0.950 . S
C1370 C1369 1.334 . S
C1370 C1371 1.287 . S
C1371 C1370 1.287 . S
C1371 C1372 1.524 . S
C1371 H1374 0.999 . S
C1372 H1342 0.950 . S
C1372 C1371 1.524 . S
C1372 C1373 1.415 . S
C1373 H1343 0.950 . S
C1373 C1368 1.363 . S
C1373 C1372 1.415 . S
H1374 C1371 0.999 . S
H1375 C1356 0.913 . S
H1376 C1394 0.951 . S
H1377 C1396 0.951 . S
H1378 C1398 0.950 . S
H1379 C1399 0.950 . S
H1380 C1401 0.950 . S
H1381 C1404 0.950 . S
H1382 C1405 0.950 . S
H1383 C1407 0.950 . S
H1384 C1408 0.950 . S
H1385 C1409 0.951 . S
H1386 C1411 0.951 . S
H1387 C1413 0.950 . S
H1388 C1414 0.950 . S
H1389 C1416 0.950 . S
H1390 C1419 0.950 . S
H1391 C1420 0.950 . S
H1392 C1422 0.950 . S
H1393 C1423 0.950 . S
C1394 H1376 0.951 . S
C1394 C1395 1.331 1_455 S
C1394 C1396 1.388 . S
C1395 C1394 1.331 1_655 S
C1395 C1399 1.421 . S
C1396 H1377 0.951 . S
C1396 C1394 1.388 . S
C1396 C1397 1.366 1_455 S
C1397 C1396 1.366 1_655 S
C1397 C1398 1.414 . S
C1397 C1400 1.499 . S
C1398 H1378 0.950 . S
C1398 C1397 1.414 . S
C1398 C1399 1.374 . S
C1399 H1379 0.950 . S
C1399 C1395 1.421 . S
C1399 C1398 1.374 . S
C1400 C1397 1.499 . S
C1400 C1401 1.373 . S
C1400 C1402 1.389 1_655 S
C1401 H1380 0.950 . S
C1401 C1400 1.373 . S
C1401 C1417 1.377 . S
C1402 C1400 1.389 1_455 S
C1402 C1403 1.524 . S
C1402 C1416 1.377 . S
C1403 C1402 1.524 . S
C1403 C1404 1.397 . S
C1403 C1408 1.363 . S
C1404 H1381 0.950 . S
C1404 C1403 1.397 . S
C1404 C1405 1.334 . S
C1405 H1382 0.950 . S
C1405 C1404 1.334 . S
C1405 C1406 1.287 . S
C1406 C1405 1.287 . S
C1406 C1407 1.524 . S
C1406 H1425 0.913 . S
C1407 H1383 0.950 . S
C1407 C1406 1.524 . S
C1407 C1408 1.415 . S
C1408 H1384 0.950 . S
C1408 C1403 1.363 . S
C1408 C1407 1.415 . S
C1409 H1385 0.951 . S
C1409 C1410 1.366 . S
C1409 C1411 1.388 . S
C1410 C1409 1.366 . S
C1410 C1414 1.385 1_655 S
C1411 H1386 0.951 . S
C1411 C1409 1.388 . S
C1411 C1412 1.366 . S
C1412 C1411 1.366 . S
C1412 C1413 1.414 1_655 S
C1412 C1415 1.499 . S
C1413 H1387 0.950 . S
C1413 C1412 1.414 1_455 S
C1413 C1414 1.374 . S
C1414 H1388 0.950 . S
C1414 C1410 1.385 1_455 S
C1414 C1413 1.374 . S
C1415 C1412 1.499 . S
C1415 C1416 1.373 1_655 S
C1415 C1417 1.389 . S
C1416 H1389 0.950 . S
C1416 C1402 1.377 . S
C1416 C1415 1.373 1_455 S
C1417 C1401 1.377 . S
C1417 C1415 1.389 . S
C1417 C1418 1.524 . S
C1418 C1417 1.524 . S
C1418 C1419 1.397 . S
C1418 C1423 1.363 . S
C1419 H1390 0.950 . S
C1419 C1418 1.397 . S
C1419 C1420 1.334 . S
C1420 H1391 0.950 . S
C1420 C1419 1.334 . S
C1420 C1421 1.287 . S
C1421 C1420 1.287 . S
C1421 C1422 1.524 . S
C1421 H1424 0.999 . S
C1422 H1392 0.950 . S
C1422 C1421 1.524 . S
C1422 C1423 1.415 . S
C1423 H1393 0.950 . S
C1423 C1418 1.363 . S
C1423 C1422 1.415 . S
H1424 C1421 0.999 . S
H1425 C1406 0.913 . S
H1426 C1444 0.951 . S
H1427 C1446 0.951 . S
H1428 C1448 0.950 . S
H1429 C1449 0.950 . S
H1430 C1451 0.950 . S
H1431 C1454 0.950 . S
H1432 C1455 0.950 . S
H1433 C1457 0.950 . S
H1434 C1458 0.950 . S
H1435 C1459 0.951 . S
H1436 C1461 0.951 . S
H1437 C1463 0.950 . S
H1438 C1464 0.950 . S
H1439 C1466 0.950 . S
H1440 C1469 0.950 . S
H1441 C1470 0.950 . S
H1442 C1472 0.950 . S
H1443 C1473 0.950 . S
C1444 H1426 0.951 . S
C1444 C1445 1.366 . S
C1444 C1446 1.388 . S
C1445 C1444 1.366 . S
C1445 C1449 1.385 . S
C1446 H1427 0.951 . S
C1446 C1444 1.388 . S
C1446 C1447 1.366 . S
C1447 C1446 1.366 . S
C1447 C1448 1.414 . S
C1447 C1450 1.499 . S
C1448 H1428 0.950 . S
C1448 C1447 1.414 . S
C1448 C1449 1.374 . S
C1449 H1429 0.950 . S
C1449 C1445 1.385 . S
C1449 C1448 1.374 . S
C1450 C1447 1.499 . S
C1450 C1451 1.373 . S
C1450 C1452 1.389 . S
C1451 H1430 0.950 . S
C1451 C1450 1.373 . S
C1451 C1467 1.377 . S
C1452 C1450 1.389 . S
C1452 C1453 1.524 . S
C1452 C1466 1.377 . S
C1453 C1452 1.524 . S
C1453 C1454 1.397 . S
C1453 C1458 1.363 . S
C1454 H1431 0.950 . S
C1454 C1453 1.397 . S
C1454 C1455 1.334 . S
C1455 H1432 0.950 . S
C1455 C1454 1.334 . S
C1455 C1456 1.287 . S
C1456 C1455 1.287 . S
C1456 C1457 1.524 . S
C1456 H1475 0.913 . S
C1457 H1433 0.950 . S
C1457 C1456 1.524 . S
C1457 C1458 1.415 . S
C1458 H1434 0.950 . S
C1458 C1453 1.363 . S
C1458 C1457 1.415 . S
C1459 H1435 0.951 . S
C1459 C1460 1.366 . S
C1459 C1461 1.388 . S
C1460 C1459 1.366 . S
C1460 C1464 1.385 . S
C1461 H1436 0.951 . S
C1461 C1459 1.388 . S
C1461 C1462 1.366 . S
C1462 C1461 1.366 . S
C1462 C1463 1.414 . S
C1462 C1465 1.499 . S
C1463 H1437 0.950 . S
C1463 C1462 1.414 . S
C1463 C1464 1.374 . S
C1464 H1438 0.950 . S
C1464 C1460 1.385 . S
C1464 C1463 1.374 . S
C1465 C1462 1.499 . S
C1465 C1466 1.373 . S
C1465 C1467 1.389 . S
C1466 H1439 0.950 . S
C1466 C1452 1.377 . S
C1466 C1465 1.373 . S
C1467 C1451 1.377 . S
C1467 C1465 1.389 . S
C1467 C1468 1.524 . S
C1468 C1467 1.524 . S
C1468 C1469 1.397 . S
C1468 C1473 1.363 . S
C1469 H1440 0.950 . S
C1469 C1468 1.397 . S
C1469 C1470 1.334 . S
C1470 H1441 0.950 . S
C1470 C1469 1.334 . S
C1470 C1471 1.287 . S
C1471 C1470 1.287 . S
C1471 C1472 1.524 . S
C1471 H1474 0.999 . S
C1472 H1442 0.950 . S
C1472 C1471 1.524 . S
C1472 C1473 1.415 . S
C1473 H1443 0.950 . S
C1473 C1468 1.363 . S
C1473 C1472 1.415 . S
H1474 C1471 0.999 . S
H1475 C1456 0.913 . S
H1476 C1494 0.951 . S
H1477 C1496 0.951 . S
H1478 C1498 0.950 . S
H1479 C1499 0.950 . S
H1480 C1501 0.950 . S
H1481 C1504 0.950 . S
H1482 C1505 0.950 . S
H1483 C1507 0.950 . S
H1484 C1508 0.950 . S
H1485 C1509 0.951 . S
H1486 C1511 0.951 . S
H1487 C1513 0.950 . S
H1488 C1514 0.950 . S
H1489 C1516 0.950 . S
H1490 C1519 0.950 . S
H1491 C1520 0.950 . S
H1492 C1522 0.950 . S
H1493 C1523 0.950 . S
C1494 H1476 0.951 . S
C1494 C1495 1.366 . S
C1494 C1496 1.388 . S
C1495 C1494 1.366 . S
C1495 C1499 1.385 . S
C1496 H1477 0.951 . S
C1496 C1494 1.388 . S
C1496 C1497 1.366 . S
C1497 C1496 1.366 . S
C1497 C1498 1.414 . S
C1497 C1500 1.499 . S
C1498 H1478 0.950 . S
C1498 C1497 1.414 . S
C1498 C1499 1.374 . S
C1499 H1479 0.950 . S
C1499 C1495 1.385 . S
C1499 C1498 1.374 . S
C1500 C1497 1.499 . S
C1500 C1501 1.373 . S
C1500 C1502 1.389 . S
C1501 H1480 0.950 . S
C1501 C1500 1.373 . S
C1501 C1517 1.377 . S
C1502 C1500 1.389 . S
C1502 C1503 1.524 . S
C1502 C1516 1.377 . S
C1503 C1502 1.524 . S
C1503 C1504 1.397 . S
C1503 C1508 1.363 . S
C1504 H1481 0.950 . S
C1504 C1503 1.397 . S
C1504 C1505 1.334 . S
C1505 H1482 0.950 . S
C1505 C1504 1.334 . S
C1505 C1506 1.287 . S
C1506 C1505 1.287 . S
C1506 C1507 1.524 . S
C1506 H1525 0.913 . S
C1507 H1483 0.950 . S
C1507 C1506 1.524 . S
C1507 C1508 1.415 . S
C1508 H1484 0.950 . S
C1508 C1503 1.363 . S
C1508 C1507 1.415 . S
C1509 H1485 0.951 . S
C1509 C1510 1.366 . S
C1509 C1511 1.388 . S
C1510 C1509 1.366 . S
C1510 C1514 1.385 . S
C1511 H1486 0.951 . S
C1511 C1509 1.388 . S
C1511 C1512 1.366 . S
C1512 C1511 1.366 . S
C1512 C1513 1.414 . S
C1512 C1515 1.499 . S
C1513 H1487 0.950 . S
C1513 C1512 1.414 . S
C1513 C1514 1.374 . S
C1514 H1488 0.950 . S
C1514 C1510 1.385 . S
C1514 C1513 1.374 . S
C1515 C1512 1.499 . S
C1515 C1516 1.373 . S
C1515 C1517 1.389 . S
C1516 H1489 0.950 . S
C1516 C1502 1.377 . S
C1516 C1515 1.373 . S
C1517 C1501 1.377 . S
C1517 C1515 1.389 . S
C1517 C1518 1.524 . S
C1518 C1517 1.524 . S
C1518 C1519 1.397 . S
C1518 C1523 1.363 . S
C1519 H1490 0.950 . S
C1519 C1518 1.397 . S
C1519 C1520 1.334 . S
C1520 H1491 0.950 . S
C1520 C1519 1.334 . S
C1520 C1521 1.287 . S
C1521 C1520 1.287 . S
C1521 C1522 1.524 . S
C1521 H1524 0.999 . S
C1522 H1492 0.950 . S
C1522 C1521 1.524 . S
C1522 C1523 1.415 . S
C1523 H1493 0.950 . S
C1523 C1518 1.363 . S
C1523 C1522 1.415 . S
H1524 C1521 0.999 . S
H1525 C1506 0.913 . S
H1526 C1544 0.951 . S
H1527 C1546 0.951 . S
H1528 C1548 0.950 . S
H1529 C1549 0.950 . S
H1530 C1551 0.950 . S
H1531 C1554 0.950 . S
H1532 C1555 0.950 . S
H1533 C1557 0.950 . S
H1534 C1558 0.950 . S
H1535 C1559 0.951 . S
H1536 C1561 0.951 . S
H1537 C1563 0.950 . S
H1538 C1564 0.950 . S
H1539 C1566 0.950 . S
H1540 C1569 0.950 . S
H1541 C1570 0.950 . S
H1542 C1572 0.950 . S
H1543 C1573 0.950 . S
C1544 H1526 0.951 . S
C1544 C1545 1.366 . S
C1544 C1546 1.388 . S
C1545 C1544 1.366 . S
C1545 C1549 1.385 . S
C1546 H1527 0.951 . S
C1546 C1544 1.388 . S
C1546 C1547 1.366 . S
C1547 C1546 1.366 . S
C1547 C1548 1.414 . S
C1547 C1550 1.499 . S
C1548 H1528 0.950 . S
C1548 C1547 1.414 . S
C1548 C1549 1.374 . S
C1549 H1529 0.950 . S
C1549 C1545 1.385 . S
C1549 C1548 1.374 . S
C1550 C1547 1.499 . S
C1550 C1551 1.373 . S
C1550 C1552 1.389 . S
C1551 H1530 0.950 . S
C1551 C1550 1.373 . S
C1551 C1567 1.377 . S
C1552 C1550 1.389 . S
C1552 C1553 1.524 . S
C1552 C1566 1.377 . S
C1553 C1552 1.524 . S
C1553 C1554 1.397 . S
C1553 C1558 1.363 . S
C1554 H1531 0.950 . S
C1554 C1553 1.397 . S
C1554 C1555 1.334 . S
C1555 H1532 0.950 . S
C1555 C1554 1.334 . S
C1555 C1556 1.287 . S
C1556 C1555 1.287 . S
C1556 C1557 1.524 . S
C1556 H1575 0.913 . S
C1557 H1533 0.950 . S
C1557 C1556 1.524 . S
C1557 C1558 1.415 . S
C1558 H1534 0.950 . S
C1558 C1553 1.363 . S
C1558 C1557 1.415 . S
C1559 H1535 0.951 . S
C1559 C1560 1.366 . S
C1559 C1561 1.388 . S
C1560 C1559 1.366 . S
C1560 C1564 1.385 . S
C1561 H1536 0.951 . S
C1561 C1559 1.388 . S
C1561 C1562 1.366 . S
C1562 C1561 1.366 . S
C1562 C1563 1.414 . S
C1562 C1565 1.499 . S
C1563 H1537 0.950 . S
C1563 C1562 1.414 . S
C1563 C1564 1.374 . S
C1564 H1538 0.950 . S
C1564 C1560 1.385 . S
C1564 C1563 1.374 . S
C1565 C1562 1.499 . S
C1565 C1566 1.373 . S
C1565 C1567 1.389 . S
C1566 H1539 0.950 . S
C1566 C1552 1.377 . S
C1566 C1565 1.373 . S
C1567 C1551 1.377 . S
C1567 C1565 1.389 . S
C1567 C1568 1.524 . S
C1568 C1567 1.524 . S
C1568 C1569 1.397 . S
C1568 C1573 1.363 . S
C1569 H1540 0.950 . S
C1569 C1568 1.397 . S
C1569 C1570 1.334 . S
C1570 H1541 0.950 . S
C1570 C1569 1.334 . S
C1570 C1571 1.287 . S
C1571 C1570 1.287 . S
C1571 C1572 1.524 . S
C1571 H1574 0.999 . S
C1572 H1542 0.950 . S
C1572 C1571 1.524 . S
C1572 C1573 1.415 . S
C1573 H1543 0.950 . S
C1573 C1568 1.363 . S
C1573 C1572 1.415 . S
H1574 C1571 0.999 . S
H1575 C1556 0.913 . S
C395 C215 1.730 . S
C410 C266 1.716 . S
C460 C296 1.669 . S
C445 C247 1.622 . S
C510 N330 1.602 . S
C495 C151 1.642 . S
C560 N360 1.221 . S
C545 C183 1.248 1_655 S
C610 C257 1.720 1_565 S
C595 C87 1.628 . S
C645 C119 1.647 . S
C660 C287 1.669 . S
C695 C23 1.539 . S
C710 N322 1.601 . S
C745 C55 1.242 . S
C760 N352 1.224 . S
C810 C272 0.598 . S
C795 C189 0.647 . S
C860 C302 0.290 . S
C845 C221 0.257 . S
C910 C343 0.282 . S
C895 C253 0.407 . S
C945 C157 0.159 . S
C960 C373 0.330 . S
C995 C61 0.733 1_655 S
C1010 C283 0.594 . S
C1060 C313 0.289 . S
C1045 C93 0.613 . S
C1110 C332 0.284 . S
C1095 C125 0.349 . S
C1145 C29 0.665 . S
C1160 C362 0.336 . S
C1195 C177 1.477 . S
C1210 N262 1.495 . S
C1245 C209 1.644 . S
C1260 N292 1.639 . S
C1310 C317 1.703 . S
C1295 C241 1.624 . S
C1360 C347 1.945 . S
C1345 C145 1.911 . S
C1395 C49 1.476 1_655 S
C1410 N270 1.497 . S
C1460 N300 1.639 . S
C1445 C81 1.580 . S
C1510 C326 1.703 . S
C1495 C113 1.663 . S
C1545 C17 1.806 . S
C1560 C356 1.948 . S
