# Generated by pormake.
# Topology zzz, (3,6)-cn, num edge types: 1
# Building blocks:
#     Node 0, Type 0, BuildingBlock: ESEHIV_clean_linker_0, # of connection points: 3
#     Node 1, Type 0, BuildingBlock: ESEHIV_clean_linker_0, # of connection points: 3
#     Node 2, Type 0, BuildingBlock: ESEHIV_clean_linker_0, # of connection points: 3
#     Node 3, Type 0, BuildingBlock: ESEHIV_clean_linker_0, # of connection points: 3
#     Node 4, Type 0, BuildingBlock: ESEHIV_clean_linker_0, # of connection points: 3
#     Node 5, Type 0, BuildingBlock: ESEHIV_clean_linker_0, # of connection points: 3
#     Node 6, Type 0, BuildingBlock: ESEHIV_clean_linker_0, # of connection points: 3
#     Node 7, Type 0, BuildingBlock: ESEHIV_clean_linker_0, # of connection points: 3
#     Node 8, Type 1, BuildingBlock: PAMTUU_clean_sbu_0, # of connection points: 6
#     Node 9, Type 1, BuildingBlock: PAMTUU_clean_sbu_0, # of connection points: 6
#     Node 10, Type 1, BuildingBlock: PAMTUU_clean_sbu_0, # of connection points: 6
#     Node 11, Type 1, BuildingBlock: PAMTUU_clean_sbu_0, # of connection points: 6
#     Edge 12, Type (0, 1), BuildingBlock: AJUNOK_clean_linker_0, # of connection points: 2
#     Edge 13, Type (0, 1), BuildingBlock: AJUNOK_clean_linker_0, # of connection points: 2
#     Edge 14, Type (0, 1), BuildingBlock: AJUNOK_clean_linker_0, # of connection points: 2
#     Edge 15, Type (0, 1), BuildingBlock: AJUNOK_clean_linker_0, # of connection points: 2
#     Edge 16, Type (0, 1), BuildingBlock: AJUNOK_clean_linker_0, # of connection points: 2
#     Edge 17, Type (0, 1), BuildingBlock: AJUNOK_clean_linker_0, # of connection points: 2
#     Edge 18, Type (0, 1), BuildingBlock: AJUNOK_clean_linker_0, # of connection points: 2
#     Edge 19, Type (0, 1), BuildingBlock: AJUNOK_clean_linker_0, # of connection points: 2
#     Edge 20, Type (0, 1), BuildingBlock: AJUNOK_clean_linker_0, # of connection points: 2
#     Edge 21, Type (0, 1), BuildingBlock: AJUNOK_clean_linker_0, # of connection points: 2
#     Edge 22, Type (0, 1), BuildingBlock: AJUNOK_clean_linker_0, # of connection points: 2
#     Edge 23, Type (0, 1), BuildingBlock: AJUNOK_clean_linker_0, # of connection points: 2
#     Edge 24, Type (0, 1), BuildingBlock: AJUNOK_clean_linker_0, # of connection points: 2
#     Edge 25, Type (0, 1), BuildingBlock: AJUNOK_clean_linker_0, # of connection points: 2
#     Edge 26, Type (0, 1), BuildingBlock: AJUNOK_clean_linker_0, # of connection points: 2
#     Edge 27, Type (0, 1), BuildingBlock: AJUNOK_clean_linker_0, # of connection points: 2
#     Edge 28, Type (0, 1), BuildingBlock: AJUNOK_clean_linker_0, # of connection points: 2
#     Edge 29, Type (0, 1), BuildingBlock: AJUNOK_clean_linker_0, # of connection points: 2
#     Edge 30, Type (0, 1), BuildingBlock: AJUNOK_clean_linker_0, # of connection points: 2
#     Edge 31, Type (0, 1), BuildingBlock: AJUNOK_clean_linker_0, # of connection points: 2
#     Edge 32, Type (0, 1), BuildingBlock: AJUNOK_clean_linker_0, # of connection points: 2
#     Edge 33, Type (0, 1), BuildingBlock: AJUNOK_clean_linker_0, # of connection points: 2
#     Edge 34, Type (0, 1), BuildingBlock: AJUNOK_clean_linker_0, # of connection points: 2
#     Edge 35, Type (0, 1), BuildingBlock: AJUNOK_clean_linker_0, # of connection points: 2
# Relax obj value: 0.508
# Max RMSD: 0.325
# Mean RMSD: 0.214
data_MOF--net-zzz--node1-PAMTUU_clean_sbu_0--node2-ESEHIV_clean_linker_0--edge1-AJUNOK_clean_linker_0
_symmetry_space_group_name_H-M    P1
_symmetry_Int_Tables_number       1
_symmetry_cell_setting            triclinic
loop_
_symmetry_equiv_pos_as_xyz
'x, y, z'
_cell_length_a     29.980755
_cell_length_b     35.01355
_cell_length_c     12.191301
_cell_angle_alpha  103.80441
_cell_angle_beta   89.78539
_cell_angle_gamma 87.266061
loop_
_atom_site_label
_atom_site_type_symbol
_atom_site_fract_x
_atom_site_fract_y
_atom_site_fract_z
_atom_type_partial_charge
H0 H 0.82301 0.57416 0.61854 0.0
H1 H 0.71599 0.56969 0.38396 0.0
H2 H 0.7812 0.46229 0.42949 0.0
C3 C 0.79969 0.55763 0.56096 0.0
C4 C 0.80458 0.51638 0.53858 0.0
C5 C 0.77053 0.5774 0.50001 0.0
C6 C 0.73984 0.55497 0.42862 0.0
C7 C 0.74345 0.51367 0.39975 0.0
C8 C 0.77683 0.49406 0.45364 0.0
H9 H 0.15729 0.80075 0.42565 0.0
H10 H 0.15178 0.69739 0.15609 0.0
H11 H 1.04392 0.72882 0.40182 0.0
C12 C 0.14129 0.77383 0.38663 0.0
C13 C 0.10015 0.76643 0.43082 0.0
C14 C 0.15941 0.74963 0.28626 0.0
C15 C 0.13711 0.71631 0.23257 0.0
C16 C 0.09509 0.70855 0.27129 0.0
C17 C 0.07661 0.73383 0.37156 0.0
H18 H 0.74275 0.07053 0.54956 0.0
H19 H 0.85544 0.06163 0.32618 0.0
H20 H 0.82402 0.96225 0.45881 0.0
C21 C 0.77213 0.054 0.50801 0.0
C22 C 0.78058 0.01519 0.51858 0.0
C23 C 0.79879 0.07083 0.43881 0.0
C24 C 0.83551 0.04885 0.38122 0.0
C25 C 0.84561 0.00994 0.38694 0.0
C26 C 0.81744 0.99258 0.45517 0.0
H27 H 0.55609 0.69701 0.29361 0.0
H28 H 0.5842 0.81777 0.32262 0.0
H29 H 0.55292 0.7422 0.99731 0.0
C30 C 0.55877 0.72171 0.25462 0.0
C31 C 0.5539 0.71547 0.1386 0.0
C32 C 0.57215 0.75738 0.31993 0.0
C33 C 0.57479 0.78982 0.27056 0.0
C34 C 0.56463 0.78575 0.15418 0.0
C35 C 0.55622 0.74749 0.08802 0.0
H36 H 0.29019 0.37101 0.12183 0.0
H37 H 0.40157 0.39014 0.33749 0.0
H38 H 0.31528 0.48911 0.30862 0.0
C39 C 0.3097 0.39149 0.18058 0.0
C40 C 0.29753 0.43207 0.20321 0.0
C41 C 0.3405 0.3765 0.24878 0.0
C42 C 0.373 0.40195 0.30004 0.0
C43 C 0.36377 0.44275 0.32794 0.0
C44 C 0.32471 0.45804 0.28182 0.0
H45 H 0.94945 0.19874 0.19534 0.0
H46 H 0.95154 0.26787 0.53381 0.0
H47 H 0.07054 0.25218 0.32759 0.0
C48 C 0.96738 0.21721 0.26308 0.0
C49 C 1.01342 0.22087 0.25053 0.0
C50 C 0.94803 0.22714 0.37129 0.0
C51 C 0.96824 0.25603 0.45333 0.0
C52 C 1.01165 0.26736 0.43638 0.0
C53 C 1.0353 0.24781 0.33634 0.0
H54 H 0.31781 0.09117 0.28425 0.0
H55 H 0.20189 0.08723 0.48316 0.0
H56 H 0.26204 0.97969 0.27649 0.0
C57 C 0.29163 0.07451 0.30865 0.0
C58 C 0.29207 0.03376 0.26004 0.0
C59 C 0.26444 0.09226 0.40322 0.0
C60 C 0.22681 0.07224 0.42141 0.0
C61 C 0.22663 0.03116 0.38388 0.0
C62 C 0.26054 0.01143 0.30408 0.0
H63 H 0.57609 0.27446 0.45873 0.0
H64 H 0.52271 0.16137 0.43981 0.0
H65 H 0.57594 0.22771 0.75283 0.0
C66 C 0.57083 0.24987 0.49666 0.0
C67 C 0.57764 0.25508 0.61205 0.0
C68 C 0.54898 0.21751 0.43509 0.0
C69 C 0.53978 0.18663 0.48662 0.0
C70 C 0.55275 0.18884 0.59959 0.0
C71 C 0.57021 0.22398 0.66325 0.0
Tb72 Tb 1.00567 0.99429 0.8171 0.0
Tb73 Tb 0.09001 0.97844 0.96365 0.0
C74 C 0.99089 0.97697 0.05007 0.0
C75 C 0.92504 0.05081 0.69589 0.0
C76 C 0.90578 0.11895 0.62074 0.0
C77 C 0.87103 0.09685 0.64507 0.0
C78 C 0.88059 0.06242 0.68126 0.0
C79 C 0.95931 0.07561 0.68522 0.0
C80 C 0.94972 0.10946 0.64758 0.0
C81 C 0.93635 0.01346 0.72444 0.0
O82 O 1.01754 0.05178 0.92745 0.0
O83 O 0.08807 0.04209 0.99034 0.0
O84 O 0.11854 0.97505 0.79455 0.0
O85 O 0.06305 0.00957 0.72501 0.0
O86 O 0.11177 0.95843 0.10378 0.0
O87 O 0.15792 0.98287 1.00579 0.0
O88 O 0.07465 0.91908 0.86682 0.0
O89 O 1.02553 0.93388 0.73621 0.0
O90 O 0.98209 0.96441 0.94285 0.0
O91 O 1.02995 0.99208 0.07619 0.0
C92 C 0.05373 0.06542 0.97986 0.0
O93 O 0.9703 0.99309 0.66837 0.0
O94 O 0.93893 0.01588 0.83233 0.0
C95 C 0.10422 0.99374 0.71832 0.0
C96 C 0.18581 0.93437 0.09806 0.0
C97 C 0.23001 0.86447 0.12301 0.0
C98 C 0.21554 0.89388 0.21832 0.0
C99 C 0.19323 0.92814 0.20549 0.0
C100 C 0.20442 0.9074 1.00292 0.0
C101 C 0.22675 0.87267 1.01551 0.0
C102 C 0.15322 0.96589 0.08895 0.0
C103 C 0.05141 0.90854 0.77335 0.0
H104 H 0.83705 0.10479 0.6296 0.0
H105 H 0.85366 0.04428 0.69381 0.0
H106 H 0.99375 0.06776 0.70035 0.0
H107 H 0.97706 0.12643 0.63011 0.0
H108 H 0.21621 0.88867 0.30235 0.0
H109 H 0.1783 0.9482 0.27926 0.0
H110 H 0.19884 0.9117 0.91884 0.0
H111 H 0.23751 0.85061 0.94053 0.0
Tb112 Tb 0.52201 0.97051 0.78542 0.0
Tb113 Tb 0.56237 0.01946 1.01138 0.0
C114 C 0.55933 0.92531 0.9613 0.0
C115 C 0.43916 0.97664 0.59682 0.0
C116 C 0.38291 0.04332 0.59231 0.0
C117 C 0.40478 0.02115 0.49303 0.0
C118 C 0.43328 0.9885 0.49577 0.0
C119 C 0.41576 0.99781 0.69439 0.0
C120 C 0.3889 0.03113 0.69288 0.0
C121 C 0.47766 0.95061 0.61096 0.0
O122 O 0.47197 0.96804 0.91516 0.0
O123 O 0.48872 0.02666 0.02559 0.0
O124 O 0.57074 0.05494 0.89122 0.0
O125 O 0.50702 0.03421 0.8066 0.0
O126 O 0.604 0.03168 0.15248 0.0
O127 O 0.54641 0.06998 0.13811 0.0
O128 O 0.62211 0.00811 0.89751 0.0
O129 O 0.59307 0.96873 0.73694 0.0
O130 O 0.5513 0.923 0.85354 0.0
O131 O 0.56082 0.95943 0.03582 0.0
C132 C 0.46102 0.99813 0.99844 0.0
O133 O 0.51581 0.96692 0.61131 0.0
O134 O 0.47449 0.93341 0.69438 0.0
C135 C 0.53858 0.05957 0.82379 0.0
C136 C 0.60704 0.09945 0.23724 0.0
C137 C 0.67239 0.15345 0.31589 0.0
C138 C 0.6458 0.13934 0.39237 0.0
C139 C 0.61389 0.1121 0.35286 0.0
C140 C 0.62696 0.11869 0.16261 0.0
C141 C 0.65876 0.14645 0.20246 0.0
C142 C 0.58133 0.06468 0.19676 0.0
C143 C 0.62685 0.98737 0.79106 0.0
H144 H 0.40048 0.02942 0.41345 0.0
H145 H 0.45221 0.97368 0.42058 0.0
H146 H 0.42044 0.9903 0.7746 0.0
H147 H 0.37446 0.04804 0.77201 0.0
H148 H 0.65339 0.14448 0.48099 0.0
H149 H 0.59724 0.09857 0.41196 0.0
H150 H 0.62043 0.1102 0.07293 0.0
H151 H 0.67677 0.15825 0.14183 0.0
Tb152 Tb 0.51656 0.46381 0.93772 0.0
Tb153 Tb 0.59558 0.50259 0.77383 0.0
C154 C 0.49209 0.48081 0.69425 0.0
C155 C 0.47899 0.38124 0.06228 0.0
C156 C 0.49355 0.31408 0.15192 0.0
C157 C 0.45276 0.32085 0.10136 0.0
C158 C 0.4456 0.3541 0.05723 0.0
C159 C 0.51954 0.37498 0.11373 0.0
C160 C 0.52666 0.34184 0.15844 0.0
C161 C 0.47258 0.41301 1.00207 0.0
O162 O 0.56907 0.44795 0.82202 0.0
O163 O 0.62164 0.44084 0.7059 0.0
O164 O 0.62719 0.49583 0.93484 0.0
O165 O 0.57782 0.46704 0.03836 0.0
O166 O 0.63421 0.55219 0.80631 0.0
O167 O 0.62418 0.51935 0.63469 0.0
O168 O 0.53578 0.53794 0.8449 0.0
O169 O 0.51294 0.52672 1.01318 0.0
O170 O 0.4783 0.47708 0.79534 0.0
O171 O 0.53462 0.48661 0.67083 0.0
C172 C 0.59521 0.42222 0.75638 0.0
O173 O 0.4938 0.4068 0.90537 0.0
O174 O 0.47456 0.44964 0.0598 0.0
C175 C 0.6171 0.48169 1.02416 0.0
C176 C 0.62993 0.5893 0.66605 0.0
C177 C 0.61859 0.66194 0.6015 0.0
C178 C 0.63187 0.62696 0.52193 0.0
C179 C 0.63711 0.59113 0.55368 0.0
C180 C 0.61651 0.62431 0.74599 0.0
C181 C 0.61064 0.66016 0.71385 0.0
C182 C 0.63913 0.55144 0.6994 0.0
C183 C 0.52572 0.55091 0.95241 0.0
H184 H 0.42673 0.3 0.09332 0.0
H185 H 0.41426 0.3581 1.01639 0.0
H186 H 0.54595 0.3953 0.11746 0.0
H187 H 0.55824 0.33793 0.19824 0.0
H188 H 0.63749 0.6272 0.43425 0.0
H189 H 0.64689 0.56472 0.49017 0.0
H190 H 0.61073 0.62416 0.83362 0.0
H191 H 0.60035 0.68653 0.77708 0.0
Tb192 Tb 0.07565 0.49297 0.78973 0.0
Tb193 Tb 1.02089 0.47233 0.98995 0.0
C194 C 1.04347 0.55922 0.99183 0.0
C195 C 0.16371 0.46756 0.59393 0.0
C196 C 0.21992 0.40067 0.50417 0.0
C197 C 0.20854 0.42809 0.44007 0.0
C198 C 0.18008 0.46092 0.4835 0.0
C199 C 0.17673 0.44122 0.66062 0.0
C200 C 0.20443 0.40787 0.61592 0.0
C201 C 0.12839 0.49808 0.63563 0.0
O202 O 0.12282 0.49235 0.92782 0.0
O203 O 0.08922 0.4489 1.00917 0.0
O204 O 1.0221 0.41665 0.86322 0.0
O205 O 0.08269 0.42934 0.76502 0.0
O206 O 1.01791 0.47846 0.16596 0.0
O207 O 0.96191 0.45804 0.0621 0.0
O208 O 0.97122 0.4957 0.88601 0.0
O209 O 1.00871 0.48295 0.71782 0.0
O210 O 1.04689 0.55048 0.88103 0.0
O211 O 1.04473 0.531 0.04488 0.0
C212 C 0.12511 0.46755 0.99361 0.0
O213 O 0.08821 0.48592 0.61614 0.0
O214 O 0.13239 0.51801 0.73963 0.0
C215 C 0.05241 0.40551 0.78216 0.0
C216 C 0.94881 0.51134 0.22029 0.0
C217 C 0.90032 0.58197 0.32471 0.0
C218 C 0.91024 0.57305 0.20863 0.0
C219 C 0.93364 0.53801 0.15709 0.0
C220 C 0.94276 0.52182 0.33766 0.0
C221 C 0.9179 0.55635 0.38931 0.0
C222 C 0.97489 0.47518 0.16324 0.0
C223 C 0.97075 0.48906 0.77501 0.0
H224 H 0.22258 0.42441 0.35694 0.0
H225 H 0.17056 0.48077 0.43071 0.0
H226 H 0.16475 0.44594 0.74678 0.0
H227 H 0.21359 0.38779 0.66823 0.0
H228 H 0.89806 0.59224 0.15641 0.0
H229 H 0.93955 0.53183 0.06724 0.0
H230 H 0.95667 0.50318 0.38919 0.0
H231 H 0.91057 0.56166 0.47885 0.0
C232 C 0.14881 0.02232 0.45226 0.0
C233 C 0.19499 0.01163 0.44817 0.0
C234 C 0.11988 0.01537 0.53676 0.0
C235 C 0.13546 0.9976 0.62303 0.0
H236 H 0.13531 0.03824 0.3928 0.0
H237 H 0.08515 0.02535 0.53635 0.0
S238 S 0.2534 0.96263 0.64899 0.0
N239 N 0.25451 0.9812 0.53662 0.0
N240 N 0.2009 0.96774 0.69398 0.0
C241 C 0.18133 0.98519 0.61688 0.0
C242 C 0.21072 0.99225 0.53029 0.0
C243 C 0.58552 0.1343 0.67894 0.0
C244 C 0.54739 0.1552 0.65303 0.0
C245 C 0.58199 0.1033 0.73295 0.0
C246 C 0.54017 0.09197 0.76393 0.0
H247 H 0.61843 0.14213 0.65788 0.0
H248 H 0.61244 0.08802 0.75049 0.0
S249 S 0.43076 0.14137 0.73067 0.0
N250 N 0.46681 0.16485 0.67132 0.0
N251 N 0.4601 0.10658 0.77331 0.0
C252 C 0.50178 0.1131 0.74035 0.0
C253 C 0.50542 0.14477 0.6851 0.0
C254 C 0.38022 0.46695 0.53486 0.0
C255 C 0.39203 0.4653 0.42155 0.0
C256 C 0.41207 0.47331 0.62231 0.0
C257 C 0.45769 0.47827 0.60135 0.0
H258 H 0.34662 0.46037 0.55483 0.0
H259 H 0.40097 0.47264 0.7064 0.0
S260 S 0.50548 0.47922 0.31993 0.0
N261 N 0.45224 0.47108 0.29492 0.0
N262 N 0.51165 0.48368 0.45677 0.0
C263 C 0.46931 0.47876 0.48908 0.0
C264 C 0.4368 0.47212 0.40037 0.0
C265 C 1.04966 0.33115 0.49908 0.0
C266 C 1.03161 0.29825 0.52671 0.0
C267 C 0.05887 0.36482 0.58345 0.0
C268 C 1.04977 0.36711 0.6986 0.0
H269 H 0.05409 0.33188 0.41138 0.0
H270 H 0.0706 0.39015 0.55744 0.0
S271 S 1.01158 0.28609 0.81738 0.0
N272 N 1.01268 0.26762 0.67937 0.0
N273 N 1.02762 0.33167 0.83665 0.0
C274 C 1.03487 0.33347 0.72797 0.0
C275 C 1.02654 0.29885 0.64243 0.0
C276 C 0.92825 0.9982 0.3389 0.0
C277 C 0.88366 0.9892 0.31029 0.0
C278 C 0.96301 0.99235 0.25604 0.0
C279 C 0.95496 0.97765 0.13963 0.0
H280 H 0.93579 0.01253 0.42536 0.0
H281 H 0.99603 0.00143 0.2832 0.0
S282 S 0.84433 0.94732 1.02042 0.0
N283 N 0.83415 0.96306 0.15738 0.0
N284 N 0.89831 0.95175 1.00287 0.0
C285 C 0.91085 0.96652 0.11108 0.0
C286 C 0.87569 0.9724 0.19559 0.0
C287 C 0.59396 0.85109 0.13485 0.0
C288 C 0.56384 0.82074 0.10109 0.0
C289 C 0.59287 0.88439 0.08827 0.0
C290 C 0.56243 0.88851 1.00357 0.0
H291 H 0.61881 0.84925 0.1978 0.0
H292 H 0.61622 0.90709 0.11867 0.0
S293 S 0.47387 0.82005 0.89086 0.0
N294 N 0.50007 0.79943 0.98252 0.0
N295 N 0.50009 0.86048 0.89158 0.0
C296 C 0.53231 0.85857 0.9685 0.0
C297 C 0.53254 0.82518 1.0178 0.0
C298 C 0.67119 0.48534 0.3151 0.0
C299 C 0.71587 0.49432 0.29993 0.0
C300 C 0.64029 0.47953 0.22516 0.0
C301 C 0.65203 0.48348 0.1158 0.0
H302 H 0.65929 0.48493 0.39879 0.0
H303 H 0.60624 0.47377 0.24337 0.0
S304 S 0.76547 0.50602 0.03118 0.0
N305 N 0.7704 0.50584 0.16589 0.0
N306 N 0.71331 0.49553 0.99873 0.0
C307 C 0.69715 0.49128 0.09921 0.0
C308 C 0.72858 0.49659 0.1903 0.0
C309 C 0.07329 0.66659 0.08268 0.0
C310 C 0.07168 0.67426 0.20206 0.0
C311 C 0.06136 0.63033 1.01408 0.0
C312 C 1.04681 0.60029 0.06192 0.0
H313 H 0.08609 0.68816 0.04167 0.0
H314 H 0.06593 0.62515 0.92347 0.0
S315 S 1.02785 0.6082 0.36904 0.0
N316 N 1.04874 0.65051 0.36393 0.0
N317 N 1.02468 0.58319 0.23646 0.0
C318 C 1.04074 0.60911 0.18084 0.0
C319 C 0.0534 0.64588 0.2505 0.0
C320 C 0.89408 0.21043 0.51055 0.0
C321 C 0.91966 0.19832 0.40924 0.0
C322 C 0.88497 0.1838 0.57675 0.0
C323 C 0.89967 0.14419 0.54096 0.0
H324 H 0.88493 0.24127 0.54479 0.0
H325 H 0.86991 0.19483 0.65988 0.0
S326 S 0.95549 0.0942 0.2703 0.0
N327 N 0.95048 0.14094 0.26728 0.0
N328 N 0.93211 0.09215 0.39098 0.0
C329 C 0.91836 0.1305 0.43278 0.0
C330 C 0.92834 0.15723 0.36624 0.0
C331 C 0.33 0.12778 0.48675 0.0
C332 C 0.28514 0.11974 0.50329 0.0
C333 C 0.36351 0.10309 0.51796 0.0
C334 C 0.35281 0.07796 0.58831 0.0
H335 H 0.3383 0.1437 0.42401 0.0
H336 H 0.39676 0.10192 0.48183 0.0
S337 S 0.24655 0.08755 0.75329 0.0
N338 N 0.23773 0.11511 0.66204 0.0
N339 N 0.29806 0.06842 0.72806 0.0
C340 C 0.31074 0.08507 0.64378 0.0
C341 C 0.27791 0.10987 0.60723 0.0
C342 C 0.62216 0.31207 0.70987 0.0
C343 C 0.58064 0.29641 0.6764 0.0
C344 C 0.62695 0.35314 0.73773 0.0
C345 C 0.59053 0.37934 0.73086 0.0
H346 H 0.65137 0.29253 0.70875 0.0
H347 H 0.6594 0.36441 0.76215 0.0
S348 S 0.47666 0.35259 0.63548 0.0
N349 N 0.50309 0.31023 0.63607 0.0
N350 N 0.51325 0.38654 0.67845 0.0
C351 C 0.54923 0.36391 0.69691 0.0
C352 C 0.54394 0.32264 0.6728 0.0
C353 C 0.28343 0.33028 0.27488 0.0
C354 C 0.3254 0.34563 0.3077 0.0
C355 C 0.24614 0.34483 0.34539 0.0
C356 C 0.25225 0.36773 0.45564 0.0
H357 H 0.27743 0.3169 0.18688 0.0
H358 H 0.21308 0.3423 0.30965 0.0
S359 S 0.35916 0.37489 0.60738 0.0
N360 N 0.37315 0.3559 0.47355 0.0
N361 N 0.30424 0.38161 0.61098 0.0
C362 C 0.29514 0.36705 0.50026 0.0
C363 C 0.33225 0.3535 0.42566 0.0
C364 C 0.18537 0.76793 0.11325 0.0
C365 C 0.19448 0.7648 0.22403 0.0
C366 C 0.20484 0.79656 0.06899 0.0
C367 C 0.23359 0.82319 0.13484 0.0
H368 H 0.15862 0.75212 0.06612 0.0
H369 H 0.19166 0.80153 0.99069 0.0
S370 S 0.28259 0.81532 0.40757 0.0
N371 N 0.24471 0.78165 0.38241 0.0
N372 N 0.28183 0.83554 0.29814 0.0
C373 C 0.25018 0.81449 0.23441 0.0
C374 C 0.2301 0.78545 0.28002 0.0
C375 C 0.78169 0.11044 0.29813 0.0
C376 C 0.78388 0.10873 0.41219 0.0
C377 C 0.75145 0.13692 0.26456 0.0
C378 C 0.72044 0.15988 0.34356 0.0
H379 H 0.7986 0.08804 0.23246 0.0
H380 H 0.74653 0.13278 0.17468 0.0
S381 S 0.73367 0.1843 0.65328 0.0
N382 N 0.76783 0.14531 0.60618 0.0
N383 N 0.71176 0.19545 0.54003 0.0
C384 C 0.73295 0.1674 0.4574 0.0
C385 C 0.76317 0.14025 0.49298 0.0
C386 C 0.51119 0.66226 1.01305 0.0
C387 C 0.54971 0.67403 0.075 0.0
C388 C 0.50256 0.62206 0.97564 0.0
C389 C 0.5314 0.59281 1.00264 0.0
H390 H 0.48699 0.68417 0.99696 0.0
H391 H 0.47296 0.61379 0.92666 0.0
S392 S 0.63918 0.60795 0.14988 0.0
N393 N 0.61937 0.65276 0.14962 0.0
N394 N 0.60157 0.57791 0.08512 0.0
C395 C 0.57062 0.60415 0.06049 0.0
C396 C 0.5802 0.64459 0.09499 0.0
C397 C 0.7828 0.61852 0.36788 0.0
C398 C 0.78187 0.61721 0.48268 0.0
C399 C 0.82414 0.61198 0.3106 0.0
C400 C 0.86391 0.61175 0.37238 0.0
H401 H 0.75309 0.6135 0.31736 0.0
H402 H 0.82403 0.60166 0.21955 0.0
S403 S 0.87151 0.65482 0.67973 0.0
N404 N 0.81755 0.64912 0.65738 0.0
N405 N 0.89684 0.63941 0.55507 0.0
C406 C 0.86092 0.62968 0.48859 0.0
C407 C 0.81823 0.63512 0.54349 0.0
C408 C 1.02028 0.17491 0.05786 0.0
C409 C 1.03753 0.18777 0.16736 0.0
C410 C 1.02774 0.13584 0.99482 0.0
C411 C 0.05377 0.10818 0.03711 0.0
H412 H 0.99735 0.19418 0.02509 0.0
H413 H 1.0111 0.12675 0.91472 0.0
S414 S 0.11208 0.12798 0.31149 0.0
N415 N 0.08562 0.1703 0.30986 0.0
N416 N 0.1011 0.09765 0.1897 0.0
C417 C 0.07507 0.12166 0.141 0.0
C418 C 0.06682 0.16129 0.20616 0.0
C419 C 0.34325 0.03947 0.09867 0.0
C420 C 0.33011 0.01725 0.1757 0.0
C421 C 0.38495 0.03274 0.04133 0.0
C422 C 0.41528 0.00222 0.05325 0.0
H423 H 0.32195 0.06402 0.08704 0.0
H424 H 0.39382 0.05212 0.98832 0.0
S425 S 0.39555 0.93042 0.22641 0.0
N426 N 0.35049 0.96048 0.25058 0.0
N427 N 0.42719 0.94623 0.13669 0.0
C428 C 0.40133 0.97738 0.12131 0.0
C429 C 0.35921 0.98504 0.18311 0.0
C430 C 0.55656 0.23051 0.24514 0.0
C431 C 0.52819 0.22336 0.32963 0.0
C432 C 0.54379 0.25781 0.18183 0.0
C433 C 0.502 0.27876 0.19969 0.0
H434 H 0.59082 0.21875 0.23806 0.0
H435 H 0.56806 0.26457 0.12406 0.0
S436 S 0.41213 0.26379 0.3934 0.0
N437 N 0.45396 0.234 0.41377 0.0
N438 N 0.42966 0.28526 0.29545 0.0
C439 C 0.47128 0.26792 0.27333 0.0
C440 C 0.48436 0.23996 0.33736 0.0
C441 C 0.21706 0.41856 0.14033 0.0
C442 C 0.2533 0.44405 0.1542 0.0
C443 C 0.17622 0.42683 0.09164 0.0
C444 C 0.16889 0.46068 0.0501 0.0
H445 H 0.21961 0.39157 0.16878 0.0
H446 H 0.15036 0.40584 0.08466 0.0
S447 S 0.25155 0.53759 0.06076 0.0
N448 N 0.27781 0.50532 0.12014 0.0
N449 N 0.20181 0.52047 0.02611 0.0
C450 C 0.20446 0.48666 0.06236 0.0
C451 C 0.24611 0.47854 0.11465 0.0
C452 C 0.10825 0.80971 0.62602 0.0
C453 C 0.08124 0.79641 0.53126 0.0
C454 C 0.09679 0.84443 0.70863 0.0
C455 C 0.05795 0.86768 0.69963 0.0
H456 H 0.13991 0.79426 0.63299 0.0
H457 H 0.12008 0.85432 0.77599 0.0
S458 S 0.97289 0.84324 0.47546 0.0
N459 N 1.01182 0.80736 0.43927 0.0
N460 N 0.9898 0.87213 0.59403 0.0
C461 C 1.02897 0.85308 0.60966 0.0
C462 C 1.04066 0.81761 0.52585 0.0
C463 C 0.74058 0.02104 0.70657 0.0
C464 C 0.7479 0.00024 0.59274 0.0
C465 C 0.70318 0.01515 0.77123 0.0
C466 C 0.67026 0.98846 0.72559 0.0
H467 H 0.76304 0.04365 0.74467 0.0
H468 H 0.69904 0.03323 0.85642 0.0
S469 S 0.67409 0.92518 0.43225 0.0
N470 N 0.71939 0.95066 0.43884 0.0
N471 N 0.64964 0.9394 0.55805 0.0
C472 C 0.67817 0.96628 0.61287 0.0
C473 C 0.7166 0.97216 0.54744 0.0
C474 C 0.63303 0.73887 0.43318 0.0
C475 C 0.58921 0.75527 0.43261 0.0
C476 C 0.64356 0.71088 0.49602 0.0
C477 C 0.61109 0.69931 0.56369 0.0
H478 H 0.6574 0.74296 0.37161 0.0
H479 H 0.67628 0.69581 0.48421 0.0
S480 S 0.49495 0.74144 0.61416 0.0
N481 N 0.51587 0.7637 0.52177 0.0
N482 N 0.53583 0.71218 0.64282 0.0
C483 C 0.56934 0.72014 0.5776 0.0
C484 C 0.55855 0.7483 0.51245 0.0
C485 C 0.84875 0.51731 0.71661 0.0
C486 C 0.8427 0.50021 0.60016 0.0
C487 C 0.88935 0.51281 0.77196 0.0
C488 C 0.92662 0.49079 0.71462 0.0
H489 H 0.82233 0.53632 0.76467 0.0
H490 H 0.89195 0.5281 0.85994 0.0
S491 S 0.92558 0.431 0.41792 0.0
N492 N 0.87602 0.45465 0.43506 0.0
N493 N 0.95165 0.44546 0.53895 0.0
C494 C 0.91997 0.47059 0.60088 0.0
C495 C 0.87835 0.47526 0.54418 0.0
loop_
_geom_bond_atom_site_label_1
_geom_bond_atom_site_label_2
_geom_bond_distance
_geom_bond_site_symmetry_2
_ccdc_geom_bond_type
H0 C3 0.931 . S
H1 C6 0.928 . S
H2 C8 0.930 . S
C3 H0 0.931 . S
C3 C4 1.413 . S
C3 C5 1.360 . S
C4 C3 1.413 . S
C4 C8 1.429 . S
C5 C3 1.360 . S
C5 C6 1.372 . S
C6 H1 0.928 . S
C6 C5 1.372 . S
C6 C7 1.404 . S
C7 C6 1.404 . S
C7 C8 1.391 . S
C8 H2 0.930 . S
C8 C4 1.429 . S
C8 C7 1.391 . S
H9 C12 0.931 . S
H10 C15 0.928 . S
H11 C17 0.931 . S
C12 H9 0.931 . S
C12 C13 1.414 . S
C12 C14 1.360 . S
C13 C12 1.414 . S
C13 C17 1.430 1_655 S
C14 C12 1.360 . S
C14 C15 1.374 . S
C15 H10 0.928 . S
C15 C14 1.374 . S
C15 C16 1.404 . S
C16 C15 1.404 . S
C16 C17 1.390 1_655 S
C17 H11 0.931 . S
C17 C13 1.430 1_455 S
C17 C16 1.390 1_455 S
H18 C21 0.930 . S
H19 C24 0.928 . S
H20 C26 0.934 . S
C21 H18 0.930 . S
C21 C22 1.415 . S
C21 C23 1.360 . S
C22 C21 1.415 . S
C22 C26 1.428 1_565 S
C23 C21 1.360 . S
C23 C24 1.370 . S
C24 H19 0.928 . S
C24 C23 1.370 . S
C24 C25 1.402 . S
C25 C24 1.402 . S
C25 C26 1.395 1_565 S
C26 H20 0.934 . S
C26 C22 1.428 1_545 S
C26 C25 1.395 1_545 S
H27 C30 0.931 . S
H28 C33 0.928 . S
H29 C35 0.930 . S
C30 H27 0.931 . S
C30 C31 1.413 1_554 S
C30 C32 1.360 . S
C31 C30 1.413 1_556 S
C31 C35 1.429 . S
C32 C30 1.360 . S
C32 C33 1.372 . S
C33 H28 0.928 . S
C33 C32 1.372 . S
C33 C34 1.404 1_554 S
C34 C33 1.404 1_556 S
C34 C35 1.391 . S
C35 H29 0.930 . S
C35 C31 1.429 . S
C35 C34 1.391 . S
H36 C39 0.931 . S
H37 C42 0.928 . S
H38 C44 0.930 . S
C39 H36 0.931 . S
C39 C40 1.413 . S
C39 C41 1.360 . S
C40 C39 1.413 . S
C40 C44 1.429 . S
C41 C39 1.360 . S
C41 C42 1.372 . S
C42 H37 0.928 . S
C42 C41 1.372 . S
C42 C43 1.404 . S
C43 C42 1.404 . S
C43 C44 1.391 . S
C44 H38 0.930 . S
C44 C40 1.429 . S
C44 C43 1.391 . S
H45 C48 0.930 . S
H46 C51 0.928 . S
H47 C53 0.931 . S
C48 H45 0.930 . S
C48 C49 1.413 . S
C48 C50 1.360 . S
C49 C48 1.413 . S
C49 C53 1.428 1_655 S
C50 C48 1.360 . S
C50 C51 1.371 . S
C51 H46 0.928 . S
C51 C50 1.371 . S
C51 C52 1.404 . S
C52 C51 1.404 . S
C52 C53 1.391 1_655 S
C53 H47 0.931 . S
C53 C49 1.428 1_455 S
C53 C52 1.391 1_455 S
H54 C57 0.931 . S
H55 C60 0.928 . S
H56 C62 0.932 . S
C57 H54 0.931 . S
C57 C58 1.412 . S
C57 C59 1.360 . S
C58 C57 1.412 . S
C58 C62 1.431 1_565 S
C59 C57 1.360 . S
C59 C60 1.374 . S
C60 H55 0.928 . S
C60 C59 1.374 . S
C60 C61 1.405 . S
C61 C60 1.405 . S
C61 C62 1.386 1_565 S
C62 H56 0.932 . S
C62 C58 1.431 1_545 S
C62 C61 1.386 1_545 S
H63 C66 0.931 . S
H64 C69 0.928 . S
H65 C71 0.930 . S
C66 H63 0.931 . S
C66 C67 1.413 . S
C66 C68 1.360 . S
C67 C66 1.413 . S
C67 C71 1.429 . S
C68 C66 1.360 . S
C68 C69 1.372 . S
C69 H64 0.928 . S
C69 C68 1.372 . S
C69 C70 1.404 . S
C70 C69 1.404 . S
C70 C71 1.391 . S
C71 H65 0.930 . S
C71 C67 1.429 . S
C71 C70 1.391 . S
Tb72 C81 2.764 . S
Tb72 O82 2.325 . S
Tb72 O85 2.303 1_655 S
Tb72 O89 2.322 1_545 S
Tb72 O90 2.349 . S
Tb72 O93 2.415 . S
Tb72 O94 2.399 . S
Tb73 O83 2.322 1_565 S
Tb73 O84 2.349 . S
Tb73 O86 2.415 1_556 S
Tb73 O87 2.399 . S
Tb73 O88 2.325 . S
Tb73 O91 2.303 1_455 S
Tb73 C102 2.764 1_556 S
C74 O90 1.261 . S
C74 O91 1.257 1_545 S
C75 C78 1.358 . S
C75 C79 1.332 . S
C75 C81 1.504 . S
C76 C77 1.373 . S
C76 C80 1.308 . S
C77 C76 1.373 . S
C77 C78 1.429 . S
C77 H104 0.932 . S
C78 C75 1.358 . S
C78 C77 1.429 . S
C78 H105 0.930 . S
C79 C75 1.332 . S
C79 C80 1.394 . S
C79 H106 0.932 . S
C80 C76 1.308 . S
C80 C79 1.394 . S
C80 H107 0.929 . S
C81 Tb72 2.764 . S
C81 C75 1.504 . S
C81 O93 1.239 . S
C81 O94 1.263 . S
O82 Tb72 2.325 . S
O82 C92 1.236 1_655 S
O83 Tb73 2.322 1_545 S
O83 C92 1.257 . S
O84 Tb73 2.349 . S
O84 C95 1.261 . S
O85 Tb72 2.303 1_455 S
O85 C95 1.257 1_545 S
O86 Tb73 2.415 1_554 S
O86 C102 1.239 . S
O87 Tb73 2.399 . S
O87 C102 1.263 1_556 S
O88 Tb73 2.325 . S
O88 C103 1.236 1_455 S
O89 Tb72 2.322 1_565 S
O89 C103 1.257 . S
O90 Tb72 2.349 . S
O90 C74 1.261 . S
O91 Tb73 2.303 1_655 S
O91 C74 1.257 1_565 S
C92 O82 1.236 1_455 S
C92 O83 1.257 . S
O93 Tb72 2.415 . S
O93 C81 1.239 . S
O94 Tb72 2.399 . S
O94 C81 1.263 . S
C95 O84 1.261 . S
C95 O85 1.257 1_565 S
C96 C99 1.358 . S
C96 C100 1.332 . S
C96 C102 1.504 . S
C97 C98 1.373 . S
C97 C101 1.308 . S
C98 C97 1.373 . S
C98 C99 1.429 . S
C98 H108 0.932 . S
C99 C96 1.358 . S
C99 C98 1.429 . S
C99 H109 0.930 . S
C100 C96 1.332 . S
C100 C101 1.394 . S
C100 H110 0.932 . S
C101 C97 1.308 . S
C101 C100 1.394 . S
C101 H111 0.929 . S
C102 Tb73 2.764 1_554 S
C102 O86 1.239 . S
C102 O87 1.263 1_554 S
C102 C96 1.504 . S
C103 O88 1.236 1_655 S
C103 O89 1.257 . S
H104 C77 0.932 . S
H105 C78 0.930 . S
H106 C79 0.932 . S
H107 C80 0.929 . S
H108 C98 0.932 . S
H109 C99 0.930 . S
H110 C100 0.932 . S
H111 C101 0.929 . S
Tb112 C121 2.764 . S
Tb112 O122 2.325 . S
Tb112 O125 2.303 1_565 S
Tb112 O129 2.322 . S
Tb112 O130 2.349 . S
Tb112 O133 2.415 1_565 S
Tb112 O134 2.399 . S
Tb113 O123 2.322 . S
Tb113 O124 2.349 1_554 S
Tb113 O126 2.415 1_545 S
Tb113 O127 2.399 . S
Tb113 O128 2.325 1_554 S
Tb113 O131 2.303 1_544 S
Tb113 C142 2.764 . S
C114 O130 1.261 . S
C114 O131 1.257 . S
C115 C118 1.358 . S
C115 C119 1.339 . S
C115 C121 1.504 . S
C116 C117 1.373 . S
C116 C120 1.308 . S
C117 C116 1.373 . S
C117 C118 1.429 . S
C117 H144 0.932 . S
C118 C115 1.358 . S
C118 C117 1.429 . S
C118 H145 0.930 . S
C119 C115 1.339 . S
C119 C120 1.394 . S
C119 H146 0.925 1_565 S
C120 C116 1.308 . S
C120 C119 1.394 . S
C120 H147 0.929 1_565 S
C121 Tb112 2.764 . S
C121 C115 1.504 . S
C121 O133 1.239 1_565 S
C121 O134 1.263 . S
O122 Tb112 2.325 . S
O122 C132 1.236 1_565 S
O123 Tb113 2.322 . S
O123 C132 1.257 1_554 S
O124 Tb113 2.349 1_556 S
O124 C135 1.261 . S
O125 Tb112 2.303 1_545 S
O125 C135 1.257 . S
O126 Tb113 2.415 1_565 S
O126 C142 1.239 1_565 S
O127 Tb113 2.399 . S
O127 C142 1.263 . S
O128 Tb113 2.325 1_556 S
O128 C143 1.236 1_545 S
O129 Tb112 2.322 . S
O129 C143 1.257 . S
O130 Tb112 2.349 . S
O130 C114 1.261 . S
O131 Tb113 2.303 1_566 S
O131 C114 1.257 . S
C132 O122 1.236 1_545 S
C132 O123 1.257 1_556 S
O133 Tb112 2.415 1_545 S
O133 C121 1.239 1_545 S
O134 Tb112 2.399 . S
O134 C121 1.263 . S
C135 O124 1.261 . S
C135 O125 1.257 . S
C136 C139 1.358 . S
C136 C140 1.344 . S
C136 C142 1.504 . S
C137 C138 1.373 . S
C137 C141 1.308 . S
C138 C137 1.373 . S
C138 C139 1.429 . S
C138 H148 0.932 . S
C139 C136 1.358 . S
C139 C138 1.429 . S
C139 H149 0.930 . S
C140 C136 1.344 . S
C140 C141 1.394 . S
C140 H150 0.920 1_545 S
C141 C137 1.308 . S
C141 C140 1.394 . S
C141 H151 0.929 1_545 S
C142 Tb113 2.764 . S
C142 O126 1.239 1_545 S
C142 O127 1.263 . S
C142 C136 1.504 . S
C143 O128 1.236 1_565 S
C143 O129 1.257 . S
H144 C117 0.932 . S
H145 C118 0.930 . S
H146 C119 0.925 1_545 S
H147 C120 0.929 1_545 S
H148 C138 0.932 . S
H149 C139 0.930 . S
H150 C140 0.920 1_565 S
H151 C141 0.929 1_565 S
Tb152 C161 2.764 1_556 S
Tb152 O162 2.325 . S
Tb152 O165 2.303 . S
Tb152 O169 2.322 . S
Tb152 O170 2.349 . S
Tb152 O173 2.415 1_556 S
Tb152 O174 2.399 1_556 S
Tb153 O163 2.322 . S
Tb153 O164 2.349 . S
Tb153 O166 2.415 . S
Tb153 O167 2.399 . S
Tb153 O168 2.325 . S
Tb153 O171 2.303 . S
Tb153 C182 2.764 . S
C154 O170 1.261 . S
C154 O171 1.257 . S
C155 C158 1.358 . S
C155 C159 1.332 . S
C155 C161 1.504 . S
C156 C157 1.373 . S
C156 C160 1.308 . S
C157 C156 1.373 . S
C157 C158 1.429 . S
C157 H184 0.932 . S
C158 C155 1.358 . S
C158 C157 1.429 . S
C158 H185 0.930 . S
C159 C155 1.332 . S
C159 C160 1.394 . S
C159 H186 0.932 . S
C160 C156 1.308 . S
C160 C159 1.394 . S
C160 H187 0.929 . S
C161 Tb152 2.764 1_554 S
C161 C155 1.504 . S
C161 O173 1.239 . S
C161 O174 1.263 . S
O162 Tb152 2.325 . S
O162 C172 1.236 . S
O163 Tb153 2.322 . S
O163 C172 1.257 . S
O164 Tb153 2.349 . S
O164 C175 1.261 . S
O165 Tb152 2.303 . S
O165 C175 1.257 . S
O166 Tb153 2.415 . S
O166 C182 1.239 . S
O167 Tb153 2.399 . S
O167 C182 1.263 . S
O168 Tb153 2.325 . S
O168 C183 1.236 . S
O169 Tb152 2.322 . S
O169 C183 1.257 . S
O170 Tb152 2.349 . S
O170 C154 1.261 . S
O171 Tb153 2.303 . S
O171 C154 1.257 . S
C172 O162 1.236 . S
C172 O163 1.257 . S
O173 Tb152 2.415 1_554 S
O173 C161 1.239 . S
O174 Tb152 2.399 1_554 S
O174 C161 1.263 . S
C175 O164 1.261 . S
C175 O165 1.257 . S
C176 C179 1.358 . S
C176 C180 1.332 . S
C176 C182 1.504 . S
C177 C178 1.373 . S
C177 C181 1.308 . S
C178 C177 1.373 . S
C178 C179 1.429 . S
C178 H188 0.932 . S
C179 C176 1.358 . S
C179 C178 1.429 . S
C179 H189 0.930 . S
C180 C176 1.332 . S
C180 C181 1.394 . S
C180 H190 0.932 . S
C181 C177 1.308 . S
C181 C180 1.394 . S
C181 H191 0.929 . S
C182 Tb153 2.764 . S
C182 O166 1.239 . S
C182 O167 1.263 . S
C182 C176 1.504 . S
C183 O168 1.236 . S
C183 O169 1.257 . S
H184 C157 0.932 . S
H185 C158 0.930 . S
H186 C159 0.932 . S
H187 C160 0.929 . S
H188 C178 0.932 . S
H189 C179 0.930 . S
H190 C180 0.932 . S
H191 C181 0.929 . S
Tb192 C201 2.764 . S
Tb192 O202 2.325 . S
Tb192 O205 2.303 . S
Tb192 O209 2.322 1_455 S
Tb192 O210 2.349 . S
Tb192 O213 2.415 . S
Tb192 O214 2.399 . S
Tb193 O203 2.322 1_655 S
Tb193 O204 2.349 . S
Tb193 O206 2.415 1_556 S
Tb193 O207 2.396 1_556 S
Tb193 O208 2.325 . S
Tb193 O211 2.303 . S
Tb193 C222 2.764 1_556 S
C194 O210 1.261 . S
C194 O211 1.257 1_455 S
C195 C198 1.358 . S
C195 C199 1.332 . S
C195 C201 1.504 . S
C196 C197 1.373 . S
C196 C200 1.308 . S
C197 C196 1.373 . S
C197 C198 1.429 . S
C197 H224 0.932 . S
C198 C195 1.358 . S
C198 C197 1.429 . S
C198 H225 0.930 . S
C199 C195 1.332 . S
C199 C200 1.394 . S
C199 H226 0.932 . S
C200 C196 1.308 . S
C200 C199 1.394 . S
C200 H227 0.929 . S
C201 Tb192 2.764 . S
C201 C195 1.504 . S
C201 O213 1.239 . S
C201 O214 1.263 . S
O202 Tb192 2.325 . S
O202 C212 1.236 . S
O203 Tb193 2.322 1_455 S
O203 C212 1.257 . S
O204 Tb193 2.349 . S
O204 C215 1.261 . S
O205 Tb192 2.303 . S
O205 C215 1.257 1_455 S
O206 Tb193 2.415 1_554 S
O206 C222 1.239 . S
O207 Tb193 2.396 1_554 S
O207 C222 1.267 . S
O208 Tb193 2.325 . S
O208 C223 1.236 . S
O209 Tb192 2.322 1_655 S
O209 C223 1.257 . S
O210 Tb192 2.349 . S
O210 C194 1.261 . S
O211 Tb193 2.303 . S
O211 C194 1.257 1_655 S
C212 O202 1.236 . S
C212 O203 1.257 . S
O213 Tb192 2.415 . S
O213 C201 1.239 . S
O214 Tb192 2.399 . S
O214 C201 1.263 . S
C215 O204 1.261 . S
C215 O205 1.257 1_655 S
C216 C219 1.358 . S
C216 C220 1.332 . S
C216 C222 1.504 . S
C217 C218 1.373 . S
C217 C221 1.308 . S
C218 C217 1.373 . S
C218 C219 1.429 . S
C218 H228 0.932 . S
C219 C216 1.358 . S
C219 C218 1.429 . S
C219 H229 0.930 . S
C220 C216 1.332 . S
C220 C221 1.394 . S
C220 H230 0.932 . S
C221 C217 1.308 . S
C221 C220 1.394 . S
C221 H231 0.929 . S
C222 Tb193 2.764 1_554 S
C222 O206 1.239 . S
C222 O207 1.267 . S
C222 C216 1.504 . S
C223 O208 1.236 . S
C223 O209 1.257 . S
H224 C197 0.932 . S
H225 C198 0.930 . S
H226 C199 0.932 . S
H227 C200 0.929 . S
H228 C218 0.932 . S
H229 C219 0.930 . S
H230 C220 0.932 . S
H231 C221 0.929 . S
C232 C233 1.361 1_545 S
C232 C234 1.419 . S
C232 H236 0.930 . S
C233 C232 1.361 1_565 S
C233 C242 1.440 . S
C234 C232 1.419 . S
C234 C235 1.353 1_545 S
C234 H237 0.929 . S
C235 C234 1.353 1_565 S
C235 C241 1.436 . S
H236 C232 0.930 . S
H237 C234 0.929 . S
S238 N239 1.613 . S
S238 N240 1.610 . S
N239 S238 1.613 . S
N239 C242 1.350 . S
N240 S238 1.610 . S
N240 C241 1.351 . S
C241 C235 1.436 . S
C241 N240 1.351 . S
C241 C242 1.434 . S
C242 C233 1.440 . S
C242 N239 1.350 . S
C242 C241 1.434 . S
C243 C244 1.369 . S
C243 C245 1.419 . S
C243 H247 0.930 . S
C244 C243 1.369 . S
C244 C253 1.429 . S
C245 C243 1.419 . S
C245 C246 1.363 . S
C245 H248 0.929 . S
C246 C245 1.363 . S
C246 C252 1.428 . S
H247 C243 0.930 . S
H248 C245 0.929 . S
S249 N250 1.613 . S
S249 N251 1.610 . S
N250 S249 1.613 . S
N250 C253 1.350 . S
N251 S249 1.610 . S
N251 C252 1.351 . S
C252 C246 1.428 . S
C252 N251 1.351 . S
C252 C253 1.434 . S
C253 C244 1.429 . S
C253 N250 1.350 . S
C253 C252 1.434 . S
C254 C255 1.369 . S
C254 C256 1.419 . S
C254 H258 0.930 . S
C255 C254 1.369 . S
C255 C264 1.429 . S
C256 C254 1.419 . S
C256 C257 1.363 . S
C256 H259 0.929 . S
C257 C256 1.363 . S
C257 C263 1.428 . S
H258 C254 0.930 . S
H259 C256 0.929 . S
S260 N261 1.613 . S
S260 N262 1.610 . S
N261 S260 1.613 . S
N261 C264 1.350 . S
N262 S260 1.610 . S
N262 C263 1.351 . S
C263 C257 1.428 . S
C263 N262 1.351 . S
C263 C264 1.434 . S
C264 C255 1.429 . S
C264 N261 1.350 . S
C264 C263 1.434 . S
C265 C266 1.356 1_655 S
C265 C267 1.419 . S
C265 H269 0.930 . S
C266 C265 1.356 1_455 S
C266 C275 1.443 . S
C267 C265 1.419 . S
C267 C268 1.363 1_655 S
C267 H270 0.929 . S
C268 C267 1.363 1_455 S
C268 C274 1.428 . S
H269 C265 0.930 . S
H270 C267 0.929 . S
S271 N272 1.613 . S
S271 N273 1.610 . S
N272 S271 1.613 . S
N272 C275 1.350 . S
N273 S271 1.610 . S
N273 C274 1.351 . S
C274 C268 1.428 . S
C274 N273 1.351 . S
C274 C275 1.434 . S
C275 C266 1.443 . S
C275 N272 1.350 . S
C275 C274 1.434 . S
C276 C277 1.363 1_545 S
C276 C278 1.419 . S
C276 H280 0.930 . S
C277 C276 1.363 1_565 S
C277 C286 1.432 . S
C278 C276 1.419 . S
C278 C279 1.363 1_545 S
C278 H281 0.929 . S
C279 C278 1.363 1_565 S
C279 C285 1.429 . S
H280 C276 0.930 . S
H281 C278 0.929 . S
S282 N283 1.613 . S
S282 N284 1.610 . S
N283 S282 1.613 . S
N283 C286 1.350 . S
N284 S282 1.610 . S
N284 C285 1.351 . S
C285 C279 1.429 . S
C285 N284 1.351 . S
C285 C286 1.434 . S
C286 C277 1.432 . S
C286 N283 1.350 . S
C286 C285 1.434 . S
C287 C288 1.369 . S
C287 C289 1.419 . S
C287 H291 0.930 . S
C288 C287 1.369 . S
C288 C297 1.429 . S
C289 C287 1.419 . S
C289 C290 1.363 . S
C289 H292 0.929 . S
C290 C289 1.363 . S
C290 C296 1.428 . S
H291 C287 0.930 . S
H292 C289 0.929 . S
S293 N294 1.613 . S
S293 N295 1.610 . S
N294 S293 1.613 . S
N294 C297 1.350 . S
N295 S293 1.610 . S
N295 C296 1.351 . S
C296 C290 1.428 . S
C296 N295 1.351 . S
C296 C297 1.434 . S
C297 C288 1.429 . S
C297 N294 1.350 . S
C297 C296 1.434 . S
C298 C299 1.369 . S
C298 C300 1.419 . S
C298 H302 0.930 . S
C299 C298 1.369 . S
C299 C308 1.429 . S
C300 C298 1.419 . S
C300 C301 1.363 . S
C300 H303 0.929 . S
C301 C300 1.363 . S
C301 C307 1.428 . S
H302 C298 0.930 . S
H303 C300 0.929 . S
S304 N305 1.613 . S
S304 N306 1.610 . S
N305 S304 1.613 . S
N305 C308 1.350 . S
N306 S304 1.610 . S
N306 C307 1.351 . S
C307 C301 1.428 . S
C307 N306 1.351 . S
C307 C308 1.434 . S
C308 C299 1.429 . S
C308 N305 1.350 . S
C308 C307 1.434 . S
C309 C310 1.374 . S
C309 C311 1.419 . S
C309 H313 0.930 . S
C310 C309 1.374 . S
C310 C319 1.424 1_655 S
C311 C309 1.419 . S
C311 C312 1.363 . S
C311 H314 0.929 . S
C312 C311 1.363 . S
C312 C318 1.428 1_655 S
H313 C309 0.930 . S
H314 C311 0.929 . S
S315 N316 1.613 . S
S315 N317 1.610 . S
N316 S315 1.613 . S
N316 C319 1.350 . S
N317 S315 1.610 . S
N317 C318 1.351 . S
C318 C312 1.428 1_455 S
C318 N317 1.351 . S
C318 C319 1.434 . S
C319 C310 1.424 1_455 S
C319 N316 1.350 . S
C319 C318 1.434 . S
C320 C321 1.369 . S
C320 C322 1.419 . S
C320 H324 0.930 . S
C321 C320 1.369 . S
C321 C330 1.429 . S
C322 C320 1.419 . S
C322 C323 1.363 . S
C322 H325 0.929 . S
C323 C322 1.363 . S
C323 C329 1.428 . S
H324 C320 0.930 . S
H325 C322 0.929 . S
S326 N327 1.613 1_655 S
S326 N328 1.610 . S
N327 S326 1.613 1_455 S
N327 C330 1.350 1_455 S
N328 S326 1.610 . S
N328 C329 1.351 . S
C329 C323 1.428 . S
C329 N328 1.351 . S
C329 C330 1.434 . S
C330 C321 1.429 . S
C330 N327 1.350 1_655 S
C330 C329 1.434 . S
C331 C332 1.369 . S
C331 C333 1.419 1_545 S
C331 H335 0.930 . S
C332 C331 1.369 . S
C332 C341 1.429 1_545 S
C333 C331 1.419 1_565 S
C333 C334 1.363 . S
C333 H336 0.929 . S
C334 C333 1.363 . S
C334 C340 1.428 . S
H335 C331 0.930 . S
H336 C333 0.929 . S
S337 N338 1.613 . S
S337 N339 1.610 . S
N338 S337 1.613 . S
N338 C341 1.350 . S
N339 S337 1.610 . S
N339 C340 1.351 . S
C340 C334 1.428 . S
C340 N339 1.351 . S
C340 C341 1.434 . S
C341 C332 1.429 1_565 S
C341 N338 1.350 . S
C341 C340 1.434 . S
C342 C343 1.369 . S
C342 C344 1.419 . S
C342 H346 0.930 . S
C343 C342 1.369 . S
C343 C352 1.429 . S
C344 C342 1.419 . S
C344 C345 1.363 . S
C344 H347 0.929 . S
C345 C344 1.363 . S
C345 C351 1.428 . S
H346 C342 0.930 . S
H347 C344 0.929 . S
S348 N349 1.614 . S
S348 N350 1.610 1_554 S
N349 S348 1.614 . S
N349 C352 1.345 1_554 S
N350 S348 1.610 1_556 S
N350 C351 1.351 . S
C351 C345 1.428 . S
C351 N350 1.351 . S
C351 C352 1.434 . S
C352 C343 1.429 . S
C352 N349 1.345 1_556 S
C352 C351 1.434 . S
C353 C354 1.369 . S
C353 C355 1.419 . S
C353 H357 0.930 . S
C354 C353 1.369 . S
C354 C363 1.429 . S
C355 C353 1.419 . S
C355 C356 1.363 . S
C355 H358 0.929 . S
C356 C355 1.363 . S
C356 C362 1.428 . S
H357 C353 0.930 . S
H358 C355 0.929 . S
S359 N360 1.613 . S
S359 N361 1.610 . S
N360 S359 1.613 . S
N360 C363 1.350 . S
N361 S359 1.610 . S
N361 C362 1.351 . S
C362 C356 1.428 . S
C362 N361 1.351 . S
C362 C363 1.434 . S
C363 C354 1.429 . S
C363 N360 1.350 . S
C363 C362 1.434 . S
C364 C365 1.369 . S
C364 C366 1.419 . S
C364 H368 0.930 1_455 S
C365 C364 1.369 . S
C365 C374 1.429 . S
C366 C364 1.419 . S
C366 C367 1.363 . S
C366 H369 0.929 . S
C367 C366 1.363 . S
C367 C373 1.428 . S
H368 C364 0.930 1_655 S
H369 C366 0.929 . S
S370 N371 1.613 . S
S370 N372 1.610 . S
N371 S370 1.613 . S
N371 C374 1.350 . S
N372 S370 1.610 . S
N372 C373 1.351 . S
C373 C367 1.428 . S
C373 N372 1.351 . S
C373 C374 1.434 . S
C374 C365 1.429 . S
C374 N371 1.350 . S
C374 C373 1.434 . S
C375 C376 1.369 . S
C375 C377 1.419 1_565 S
C375 H379 0.930 . S
C376 C375 1.369 . S
C376 C385 1.429 1_565 S
C377 C375 1.419 1_545 S
C377 C378 1.363 . S
C377 H380 0.929 . S
C378 C377 1.363 . S
C378 C384 1.428 . S
H379 C375 0.930 . S
H380 C377 0.929 . S
S381 N382 1.613 . S
S381 N383 1.610 . S
N382 S381 1.613 . S
N382 C385 1.350 . S
N383 S381 1.610 . S
N383 C384 1.351 . S
C384 C378 1.428 . S
C384 N383 1.351 . S
C384 C385 1.434 . S
C385 C376 1.429 1_545 S
C385 N382 1.350 . S
C385 C384 1.434 . S
C386 C387 1.369 . S
C386 C388 1.419 . S
C386 H390 0.930 . S
C387 C386 1.369 . S
C387 C396 1.429 . S
C388 C386 1.419 . S
C388 C389 1.363 . S
C388 H391 0.929 . S
C389 C388 1.363 . S
C389 C395 1.428 . S
H390 C386 0.930 . S
H391 C388 0.929 . S
S392 N393 1.613 . S
S392 N394 1.610 . S
N393 S392 1.613 . S
N393 C396 1.350 . S
N394 S392 1.610 . S
N394 C395 1.351 . S
C395 C389 1.428 . S
C395 N394 1.351 . S
C395 C396 1.434 . S
C396 C387 1.429 . S
C396 N393 1.350 . S
C396 C395 1.434 . S
C397 C398 1.369 . S
C397 C399 1.419 . S
C397 H401 0.930 . S
C398 C397 1.369 . S
C398 C407 1.429 . S
C399 C397 1.419 . S
C399 C400 1.363 . S
C399 H402 0.929 . S
C400 C399 1.363 . S
C400 C406 1.428 . S
H401 C397 0.930 . S
H402 C399 0.929 . S
S403 N404 1.613 . S
S403 N405 1.610 . S
N404 S403 1.613 . S
N404 C407 1.350 . S
N405 S403 1.610 . S
N405 C406 1.351 . S
C406 C400 1.428 . S
C406 N405 1.351 . S
C406 C407 1.434 . S
C407 C398 1.429 . S
C407 N404 1.350 . S
C407 C406 1.434 . S
C408 C409 1.366 1_656 S
C408 C410 1.417 1_655 S
C408 H412 0.935 . S
C409 C408 1.366 1_454 S
C409 C418 1.429 . S
C410 C408 1.417 1_455 S
C410 C411 1.363 1_556 S
C410 H413 0.929 . S
C411 C410 1.363 1_554 S
C411 C417 1.428 . S
H412 C408 0.935 . S
H413 C410 0.929 . S
S414 N415 1.613 . S
S414 N416 1.610 . S
N415 S414 1.613 . S
N415 C418 1.350 . S
N416 S414 1.610 . S
N416 C417 1.351 . S
C417 C411 1.428 . S
C417 N416 1.351 . S
C417 C418 1.434 . S
C418 C409 1.429 . S
C418 N415 1.350 . S
C418 C417 1.434 . S
C419 C420 1.369 1_556 S
C419 C421 1.419 . S
C419 H423 0.930 . S
C420 C419 1.369 1_554 S
C420 C429 1.429 1_545 S
C421 C419 1.419 . S
C421 C422 1.363 . S
C421 H424 0.929 . S
C422 C421 1.363 . S
C422 C428 1.428 1_546 S
H423 C419 0.930 . S
H424 C421 0.929 . S
S425 N426 1.613 . S
S425 N427 1.610 . S
N426 S425 1.613 . S
N426 C429 1.350 . S
N427 S425 1.610 . S
N427 C428 1.351 . S
C428 C422 1.428 1_564 S
C428 N427 1.351 . S
C428 C429 1.434 . S
C429 C420 1.429 1_565 S
C429 N426 1.350 . S
C429 C428 1.434 . S
C430 C431 1.369 . S
C430 C432 1.419 . S
C430 H434 0.930 . S
C431 C430 1.369 . S
C431 C440 1.429 . S
C432 C430 1.419 . S
C432 C433 1.363 . S
C432 H435 0.929 . S
C433 C432 1.363 . S
C433 C439 1.428 . S
H434 C430 0.930 . S
H435 C432 0.929 . S
S436 N437 1.613 . S
S436 N438 1.610 . S
N437 S436 1.613 . S
N437 C440 1.350 . S
N438 S436 1.610 . S
N438 C439 1.351 . S
C439 C433 1.428 . S
C439 N438 1.351 . S
C439 C440 1.434 . S
C440 C431 1.429 . S
C440 N437 1.350 . S
C440 C439 1.434 . S
C441 C442 1.369 . S
C441 C443 1.419 . S
C441 H445 0.930 . S
C442 C441 1.369 . S
C442 C451 1.429 1_556 S
C443 C441 1.419 . S
C443 C444 1.363 . S
C443 H446 0.929 . S
C444 C443 1.363 . S
C444 C450 1.428 1_556 S
H445 C441 0.930 . S
H446 C443 0.929 . S
S447 N448 1.613 . S
S447 N449 1.610 . S
N448 S447 1.613 . S
N448 C451 1.350 . S
N449 S447 1.610 . S
N449 C450 1.351 . S
C450 C444 1.428 1_554 S
C450 N449 1.351 . S
C450 C451 1.434 . S
C451 C442 1.429 1_554 S
C451 N448 1.350 . S
C451 C450 1.434 . S
C452 C453 1.369 1_455 S
C452 C454 1.419 . S
C452 H456 0.930 . S
C453 C452 1.369 1_655 S
C453 C462 1.429 . S
C454 C452 1.419 . S
C454 C455 1.363 1_455 S
C454 H457 0.929 . S
C455 C454 1.363 1_655 S
C455 C461 1.428 . S
H456 C452 0.930 . S
H457 C454 0.929 . S
S458 N459 1.613 . S
S458 N460 1.610 . S
N459 S458 1.613 . S
N459 C462 1.350 . S
N460 S458 1.610 . S
N460 C461 1.351 . S
C461 C455 1.428 . S
C461 N460 1.351 . S
C461 C462 1.434 . S
C462 C453 1.429 . S
C462 N459 1.350 . S
C462 C461 1.434 . S
C463 C464 1.369 1_545 S
C463 C465 1.419 . S
C463 H467 0.930 . S
C464 C463 1.369 1_565 S
C464 C473 1.429 . S
C465 C463 1.419 . S
C465 C466 1.363 1_545 S
C465 H468 0.929 . S
C466 C465 1.363 1_565 S
C466 C472 1.428 . S
H467 C463 0.930 . S
H468 C465 0.929 . S
S469 N470 1.613 . S
S469 N471 1.610 . S
N470 S469 1.613 . S
N470 C473 1.350 . S
N471 S469 1.610 . S
N471 C472 1.351 . S
C472 C466 1.428 . S
C472 N471 1.351 . S
C472 C473 1.434 . S
C473 C464 1.429 . S
C473 N470 1.350 . S
C473 C472 1.434 . S
C474 C475 1.369 . S
C474 C476 1.419 . S
C474 H478 0.930 . S
C475 C474 1.369 . S
C475 C484 1.429 . S
C476 C474 1.419 . S
C476 C477 1.363 . S
C476 H479 0.929 . S
C477 C476 1.363 . S
C477 C483 1.428 . S
H478 C474 0.930 . S
H479 C476 0.929 . S
S480 N481 1.613 . S
S480 N482 1.610 . S
N481 S480 1.613 . S
N481 C484 1.350 . S
N482 S480 1.610 . S
N482 C483 1.351 . S
C483 C477 1.428 . S
C483 N482 1.351 . S
C483 C484 1.434 . S
C484 C475 1.429 . S
C484 N481 1.350 . S
C484 C483 1.434 . S
C485 C486 1.369 . S
C485 C487 1.419 . S
C485 H489 0.930 . S
C486 C485 1.369 . S
C486 C495 1.429 . S
C487 C485 1.419 . S
C487 C488 1.363 . S
C487 H490 0.929 . S
C488 C487 1.363 . S
C488 C494 1.428 . S
H489 C485 0.930 . S
H490 C487 0.929 . S
S491 N492 1.613 . S
S491 N493 1.610 . S
N492 S491 1.613 . S
N492 C495 1.350 . S
N493 S491 1.610 . S
N493 C494 1.351 . S
C494 C488 1.428 . S
C494 N493 1.351 . S
C494 C495 1.434 . S
C495 C486 1.429 . S
C495 N492 1.350 . S
C495 C494 1.434 . S
C233 C61 2.062 . S
C235 C95 2.331 . S
C246 C135 1.731 . S
C244 C70 1.710 . S
C257 C154 2.358 . S
C255 C43 2.109 . S
C268 C215 1.609 1_455 S
C266 C52 1.418 1_455 S
C279 C74 2.331 1_564 S
C277 C25 2.060 . S
C288 C34 1.703 . S
C290 C114 1.733 . S
C299 C7 2.106 . S
C301 C175 2.361 1_554 S
C310 C16 1.420 . S
C312 C194 1.607 1_654 S
C323 C76 1.215 . S
C321 C50 1.348 . S
C334 C116 0.590 . S
C332 C59 0.553 1_545 S
C345 C172 1.134 . S
C343 C67 1.059 . S
C354 C41 0.778 . S
C356 C196 0.770 . S
C365 C14 1.345 1_455 S
C367 C97 1.229 . S
C378 C137 0.598 . S
C376 C23 0.532 . S
C389 C183 1.136 . S
C387 C31 1.056 . S
C398 C5 0.790 . S
C400 C217 0.763 . S
C409 C49 1.744 1_455 S
C411 C92 1.966 1_554 S
C420 C58 2.353 1_545 S
C422 C132 2.642 . S
C433 C156 1.850 . S
C431 C68 1.921 . S
C444 C212 2.614 . S
C442 C40 2.351 1_556 S
C453 C13 1.748 . S
C455 C103 1.972 . S
C466 C143 2.643 . S
C464 C22 2.354 . S
C477 C177 1.843 . S
C475 C32 1.934 . S
C486 C4 2.354 . S
C488 C223 2.617 . S
