# Generated by pormake.
# Topology zzz, (3,6)-cn, num edge types: 1
# Building blocks:
#     Node 0, Type 0, BuildingBlock: QEWDON_clean_linker_0, # of connection points: 3
#     Node 1, Type 0, BuildingBlock: QEWDON_clean_linker_0, # of connection points: 3
#     Node 2, Type 0, BuildingBlock: QEWDON_clean_linker_0, # of connection points: 3
#     Node 3, Type 0, BuildingBlock: QEWDON_clean_linker_0, # of connection points: 3
#     Node 4, Type 0, BuildingBlock: QEWDON_clean_linker_0, # of connection points: 3
#     Node 5, Type 0, BuildingBlock: QEWDON_clean_linker_0, # of connection points: 3
#     Node 6, Type 0, BuildingBlock: QEWDON_clean_linker_0, # of connection points: 3
#     Node 7, Type 0, BuildingBlock: QEWDON_clean_linker_0, # of connection points: 3
#     Node 8, Type 1, BuildingBlock: LEVNOQ01_clean_sbu_1, # of connection points: 6
#     Node 9, Type 1, BuildingBlock: LEVNOQ01_clean_sbu_1, # of connection points: 6
#     Node 10, Type 1, BuildingBlock: LEVNOQ01_clean_sbu_1, # of connection points: 6
#     Node 11, Type 1, BuildingBlock: LEVNOQ01_clean_sbu_1, # of connection points: 6
#     Edge 12, Type (0, 1), BuildingBlock: CIFDUS_clean_linker_0, # of connection points: 2
#     Edge 13, Type (0, 1), BuildingBlock: CIFDUS_clean_linker_0, # of connection points: 2
#     Edge 14, Type (0, 1), BuildingBlock: CIFDUS_clean_linker_0, # of connection points: 2
#     Edge 15, Type (0, 1), BuildingBlock: CIFDUS_clean_linker_0, # of connection points: 2
#     Edge 16, Type (0, 1), BuildingBlock: CIFDUS_clean_linker_0, # of connection points: 2
#     Edge 17, Type (0, 1), BuildingBlock: CIFDUS_clean_linker_0, # of connection points: 2
#     Edge 18, Type (0, 1), BuildingBlock: CIFDUS_clean_linker_0, # of connection points: 2
#     Edge 19, Type (0, 1), BuildingBlock: CIFDUS_clean_linker_0, # of connection points: 2
#     Edge 20, Type (0, 1), BuildingBlock: CIFDUS_clean_linker_0, # of connection points: 2
#     Edge 21, Type (0, 1), BuildingBlock: CIFDUS_clean_linker_0, # of connection points: 2
#     Edge 22, Type (0, 1), BuildingBlock: CIFDUS_clean_linker_0, # of connection points: 2
#     Edge 23, Type (0, 1), BuildingBlock: CIFDUS_clean_linker_0, # of connection points: 2
#     Edge 24, Type (0, 1), BuildingBlock: CIFDUS_clean_linker_0, # of connection points: 2
#     Edge 25, Type (0, 1), BuildingBlock: CIFDUS_clean_linker_0, # of connection points: 2
#     Edge 26, Type (0, 1), BuildingBlock: CIFDUS_clean_linker_0, # of connection points: 2
#     Edge 27, Type (0, 1), BuildingBlock: CIFDUS_clean_linker_0, # of connection points: 2
#     Edge 28, Type (0, 1), BuildingBlock: CIFDUS_clean_linker_0, # of connection points: 2
#     Edge 29, Type (0, 1), BuildingBlock: CIFDUS_clean_linker_0, # of connection points: 2
#     Edge 30, Type (0, 1), BuildingBlock: CIFDUS_clean_linker_0, # of connection points: 2
#     Edge 31, Type (0, 1), BuildingBlock: CIFDUS_clean_linker_0, # of connection points: 2
#     Edge 32, Type (0, 1), BuildingBlock: CIFDUS_clean_linker_0, # of connection points: 2
#     Edge 33, Type (0, 1), BuildingBlock: CIFDUS_clean_linker_0, # of connection points: 2
#     Edge 34, Type (0, 1), BuildingBlock: CIFDUS_clean_linker_0, # of connection points: 2
#     Edge 35, Type (0, 1), BuildingBlock: CIFDUS_clean_linker_0, # of connection points: 2
# Relax obj value: 0.082
# Max RMSD: 0.174
# Mean RMSD: 0.064
data_MOF--net-zzz--node1-LEVNOQ01_clean_sbu_1--node2-QEWDON_clean_linker_0--edge1-CIFDUS_clean_linker_0
_symmetry_space_group_name_H-M    P1
_symmetry_Int_Tables_number       1
_symmetry_cell_setting            triclinic
loop_
_symmetry_equiv_pos_as_xyz
'x, y, z'
_cell_length_a     47.270057
_cell_length_b     47.00172
_cell_length_c     13.79492
_cell_angle_alpha  90.459929
_cell_angle_beta   90.05698
_cell_angle_gamma 89.867002
loop_
_atom_site_label
_atom_site_type_symbol
_atom_site_fract_x
_atom_site_fract_y
_atom_site_fract_z
_atom_type_partial_charge
H0 H 0.77449 0.56712 0.96688 0.0
C1 C 0.78585 0.56203 0.0328 0.0
C2 C 0.81473 0.55561 0.02808 0.0
C3 C 0.77211 0.56299 0.1235 0.0
H4 H 0.85184 0.54325 0.10824 0.0
C5 C 0.82967 0.54927 0.11279 0.0
C6 C 0.81673 0.54982 0.20298 0.0
C7 C 0.78771 0.55642 0.2087 0.0
C8 C 0.74219 0.57292 0.12991 0.0
H9 H 0.77747 0.55674 0.27891 0.0
C10 C 0.72115 0.56329 0.06429 0.0
C11 C 0.69298 0.57319 0.07239 0.0
C12 C 0.7348 0.5931 0.20124 0.0
H13 H 0.75054 0.60139 0.25104 0.0
C14 C 0.70718 0.60332 0.208 0.0
H15 H 0.72642 0.54751 0.00947 0.0
C16 C 0.6864 0.5934 0.14457 0.0
H17 H 0.66505 0.60157 0.1519 0.0
H18 H 0.70182 0.61899 0.26295 0.0
H19 H 0.95938 0.7849 0.96075 0.0
C20 C 0.95729 0.7975 0.02626 0.0
C21 C 0.96281 0.82665 0.02117 0.0
C22 C 0.94915 0.78521 0.11538 0.0
H23 H 0.96254 0.86679 0.09623 0.0
C24 C 0.95848 0.84411 0.10198 0.0
C25 C 0.95164 0.83287 0.1916 0.0
C26 C 0.94771 0.80325 0.19919 0.0
C27 C 0.94153 0.7541 0.12045 0.0
H28 H 0.94354 0.79459 0.27013 0.0
C29 C 0.95167 0.73371 0.05187 0.0
C30 C 0.94277 0.70495 0.05461 0.0
C31 C 0.92268 0.7447 0.19242 0.0
H32 H 0.91338 0.7593 0.24436 0.0
C33 C 0.91472 0.71625 0.19762 0.0
H34 H 0.96622 0.74001 -0.0043 0.0
C35 C 0.92461 0.69657 0.12972 0.0
H36 H 0.91805 0.67462 0.1366 0.0
H37 H 0.90047 0.70945 0.25421 0.0
H38 H 0.73858 0.95401 0.97504 0.0
C39 C 0.72598 0.95363 0.0402 0.0
C40 C 0.69666 0.95361 0.02884 0.0
C41 C 0.73825 0.9534 0.13386 0.0
H42 H 0.65675 0.94971 0.10081 0.0
C43 C 0.6795 0.951 0.11026 0.0
C44 C 0.69015 0.9563 0.20277 0.0
C45 C 0.7198 0.95662 0.2154 0.0
C46 C 0.76983 0.95019 0.14563 0.0
H47 H 0.72822 0.96046 0.28725 0.0
C48 C 0.78904 0.95598 0.0689 0.0
C49 C 0.81834 0.95033 0.07768 0.0
C50 C 0.781 0.9393 0.23245 0.0
H51 H 0.76744 0.93358 0.29224 0.0
C52 C 0.80997 0.93473 0.24309 0.0
H53 H 0.78144 0.96454 0.00151 0.0
C54 C 0.82846 0.94016 0.16691 0.0
H55 H 0.85081 0.93653 0.17873 0.0
H56 H 0.81813 0.92655 0.31073 0.0
H57 H 0.57928 0.7331 0.96274 0.0
C58 C 0.57491 0.72187 0.02938 0.0
C59 C 0.5735 0.69227 0.02749 0.0
C60 C 0.57054 0.73684 0.11693 0.0
H61 H 0.56536 0.65449 0.10862 0.0
C62 C 0.56715 0.67751 0.11207 0.0
C63 C 0.56078 0.69179 0.19843 0.0
C64 C 0.56339 0.72166 0.20188 0.0
C65 C 0.57329 0.76828 0.11758 0.0
H66 H 0.55882 0.73304 0.26867 0.0
C67 C 0.56115 0.7846 0.04291 0.0
C68 C 0.56585 0.81411 0.03784 0.0
C69 C 0.58974 0.78194 0.18864 0.0
H70 H 0.59953 0.76985 0.24624 0.0
C71 C 0.59455 0.81121 0.18388 0.0
H72 H 0.54818 0.77427 0.98822 0.0
C73 C 0.58286 0.82721 0.10877 0.0
H74 H 0.58658 0.84993 0.10746 0.0
H75 H 0.60748 0.82153 0.23849 0.0
H76 H 0.23699 0.47306 0.37332 0.0
C77 C 0.22538 0.46817 0.30754 0.0
C78 C 0.196 0.465 0.31276 0.0
C79 C 0.23919 0.46765 0.21698 0.0
H80 H 0.15753 0.46268 0.23158 0.0
C81 C 0.18037 0.46178 0.22706 0.0
C82 C 0.1932 0.46186 0.1359 0.0
C83 C 0.22292 0.46355 0.13177 0.0
C84 C 0.26966 0.47567 0.21071 0.0
H85 H 0.23325 0.46315 0.06181 0.0
C86 C 0.28899 0.46834 0.28458 0.0
C87 C 0.31686 0.479 0.28428 0.0
C88 C 0.27898 0.49316 0.13483 0.0
H89 H 0.26464 0.50019 0.07864 0.0
C90 C 0.3067 0.50306 0.13261 0.0
H91 H 0.28225 0.45475 0.34319 0.0
C92 C 0.32545 0.49628 0.20686 0.0
H93 H 0.34636 0.50561 0.20532 0.0
H94 H 0.31344 0.51686 0.07462 0.0
H95 H 0.04247 0.2443 0.34604 0.0
C96 C 0.04914 0.23169 0.28451 0.0
C97 C 0.05405 0.20244 0.29941 0.0
C98 C 0.05102 0.24372 0.19051 0.0
H99 H 0.06273 0.1623 0.22768 0.0
C100 C 0.06128 0.18521 0.21985 0.0
C101 C 0.06148 0.19575 0.1264 0.0
C102 C 0.05744 0.2249 0.11187 0.0
C103 C 0.04368 0.27478 0.17281 0.0
H104 H 0.05828 0.23186 0.03779 0.0
C105 C 0.04037 0.29502 0.24978 0.0
C106 C 0.03156 0.3232 0.23087 0.0
C107 C 0.03843 0.28444 0.07736 0.0
H108 H 0.0389 0.27062 0.01483 0.0
C109 C 0.03137 0.3126 0.05887 0.0
H110 H 0.04351 0.28919 0.32453 0.0
C111 C 0.02796 0.33182 0.13464 0.0
H112 H 0.02131 0.35334 0.11825 0.0
H113 H 0.02757 0.31936 0.98513 0.0
H114 H 0.27902 0.05206 0.3484 0.0
C115 C 0.29055 0.05858 0.28452 0.0
C116 C 0.3195 0.06456 0.29286 0.0
C117 C 0.27729 0.05766 0.19297 0.0
H118 H 0.35721 0.07547 0.21317 0.0
C119 C 0.33451 0.07237 0.20954 0.0
C120 C 0.32235 0.07046 0.11775 0.0
C121 C 0.29363 0.06326 0.10929 0.0
C122 C 0.2479 0.04637 0.18519 0.0
H123 H 0.28457 0.06071 0.03763 0.0
C124 C 0.22753 0.05258 0.25726 0.0
C125 C 0.2009 0.03912 0.25653 0.0
C126 C 0.24088 0.02701 0.11073 0.0
H127 H 0.25618 0.02089 0.05606 0.0
C128 C 0.21435 0.01414 0.10835 0.0
H129 H 0.23252 0.06759 0.31476 0.0
C130 C 0.19458 0.01994 0.18077 0.0
H131 H 0.17469 0.00857 0.17908 0.0
H132 H 0.20939 0.99892 0.05157 0.0
H133 H 0.44958 0.28822 0.38353 0.0
C134 C 0.44984 0.29833 0.31323 0.0
C135 C 0.44162 0.32703 0.30735 0.0
C136 C 0.46277 0.28451 0.23363 0.0
H137 H 0.44009 0.36392 0.21578 0.0
C138 C 0.44422 0.3412 0.2187 0.0
C139 C 0.45898 0.32871 0.142 0.0
C140 C 0.46686 0.30004 0.14751 0.0
C141 C 0.47637 0.25599 0.24605 0.0
H142 H 0.47806 0.29074 0.08661 0.0
C143 C 0.46518 0.23565 0.31055 0.0
C144 C 0.47916 0.20958 0.32447 0.0
C145 C 0.50189 0.24954 0.19732 0.0
H146 H 0.51218 0.26485 0.1512 0.0
C147 C 0.51526 0.2234 0.2097 0.0
H148 H 0.44581 0.23992 0.35 0.0
C149 C 0.50399 0.2035 0.27275 0.0
H150 H 0.515 0.18349 0.28293 0.0
H151 H 0.53477 0.21877 0.17164 0.0
O152 O 0.04489 0.97683 0.85645 0.0
Mg153 Mg 0.0501 0.97752 0.70512 0.0
O154 O 0.0032 0.97764 0.79064 0.0
Mg155 Mg 1.00195 0.0118 0.67252 0.0
O156 O 0.05056 0.01444 0.62935 0.0
O157 O 0.0894 0.98846 0.66235 0.0
O158 O 0.99986 0.04569 0.55222 0.0
O159 O 0.01466 0.04923 0.78802 0.0
Mg160 Mg 0.96591 0.04537 0.73497 0.0
O161 O 0.95075 0.00655 0.70166 0.0
O162 O 0.98059 0.07818 0.64547 0.0
O163 O 0.97749 0.04883 0.88015 0.0
O164 O 0.92397 0.04577 0.72449 0.0
C165 C 0.00723 0.94919 0.56686 0.0
C166 C 0.01977 0.96791 0.85482 0.0
C167 C 0.07771 0.00994 0.62044 0.0
C168 C 0.99413 0.07171 0.5699 0.0
C169 C 1.0021 0.05789 0.86488 0.0
C170 C 0.92595 0.01856 0.7147 0.0
O171 O 0.02858 0.94571 0.6219 0.0
O172 O 0.99472 0.97346 0.56314 0.0
O173 O 0.46667 0.98573 0.87353 0.0
Mg174 Mg 0.47481 0.97557 0.72924 0.0
O175 O 0.46975 0.02462 0.79045 0.0
Mg176 Mg 0.50864 0.0135 0.68112 0.0
O177 O 0.51457 0.9621 0.70278 0.0
O178 O 0.4767 0.93351 0.7178 0.0
O179 O 0.54638 1.00266 0.568 0.0
O180 O 0.5402 0.01445 0.80765 0.0
Mg181 Mg 0.5439 0.05369 0.63433 0.0
O182 O 0.50314 0.0645 0.66214 0.0
O183 O 0.55242 0.04268 0.49091 0.0
O184 O 0.57336 0.03842 0.73364 0.0
O185 O 0.53958 0.09542 0.65535 0.0
C186 C 0.4517 1.00432 0.56002 0.0
C187 C 0.45877 0.011 0.86077 0.0
C188 C 0.50373 0.93668 0.71317 0.0
C189 C 0.55709 0.01634 0.49719 0.0
C190 C 0.56584 0.02233 0.8014 0.0
C191 C 0.51279 0.09058 0.66072 0.0
O192 O 0.44423 0.98904 0.62999 0.0
O193 O 0.47726 0.01244 0.55385 0.0
O194 O 0.53829 0.44321 0.75993 0.0
Mg195 Mg 0.56083 0.46424 0.64629 0.0
O196 O 0.50529 0.47639 0.78615 0.0
Mg197 Mg 0.51195 0.50976 0.66616 0.0
O198 O 0.56101 0.50631 0.68065 0.0
O199 O 0.60063 0.48074 0.66691 0.0
O200 O 0.51629 0.54411 0.54576 0.0
O201 O 0.51904 0.54661 0.77246 0.0
Mg202 Mg 0.46323 0.55369 0.70946 0.0
O203 O 0.4635 0.51361 0.65509 0.0
O204 O 0.48559 0.57707 0.60001 0.0
O205 O 0.47976 0.55467 0.85061 0.0
O206 O 0.42349 0.53719 0.68275 0.0
C207 C 0.51904 0.45513 0.50629 0.0
C208 C 0.51653 0.45229 0.80504 0.0
C209 C 0.58838 0.50446 0.68885 0.0
C210 C 0.50488 0.5689 0.54135 0.0
C211 C 0.50573 0.55975 0.83888 0.0
C212 C 0.43623 0.51516 0.64742 0.0
O213 O 0.54573 0.45661 0.50548 0.0
O214 O 0.50495 0.47195 0.56051 0.0
O215 O 0.95759 0.48131 0.85693 0.0
Mg216 Mg 0.96381 0.47085 0.71039 0.0
O217 O 0.97121 0.52119 0.79321 0.0
Mg218 Mg 0.0056 0.51366 0.67977 0.0
O219 O 1.00249 0.46388 0.6493 0.0
O220 O 0.97136 0.42928 0.68196 0.0
O221 O 0.03989 0.50496 0.56474 0.0
O222 O 0.03908 0.50211 0.79911 0.0
Mg223 Mg 0.04629 0.55056 0.65128 0.0
O224 O 0.00897 0.56476 0.71185 0.0
O225 O 0.054 0.54484 0.50281 0.0
O226 O 0.07411 0.52769 0.74208 0.0
O227 O 0.04742 0.59182 0.68603 0.0
C228 C 0.94541 0.51249 0.5545 0.0
C229 C 0.95682 0.50812 0.85595 0.0
C230 C 0.9951 0.43716 0.64474 0.0
C231 C 0.05469 0.51803 0.50296 0.0
C232 C 0.06522 0.50899 0.79996 0.0
C233 C 0.02193 0.58937 0.718 0.0
O234 O 0.93779 0.4922 0.6089 0.0
O235 O 0.97035 0.52318 0.56203 0.0
H236 H 0.14337 0.04328 0.24724 0.0
H237 H 0.21276 0.04289 0.4509 0.0
H238 H 0.17948 0.03966 0.58533 0.0
H239 H 0.13147 0.02833 0.64239 0.0
H240 H 0.06302 0.02337 0.43675 0.0
H241 H 0.09482 0.03758 0.30636 0.0
C242 C 0.15123 0.04274 0.32109 0.0
C243 C 0.1806 0.04278 0.33844 0.0
C244 C 0.13202 0.03981 0.39797 0.0
C245 C 0.19033 0.0429 0.43492 0.0
C246 C 0.17129 0.04078 0.51204 0.0
C247 C 0.12344 0.03128 0.56943 0.0
C248 C 0.09483 0.02559 0.54939 0.0
C249 C 0.1422 0.03801 0.49409 0.0
C250 C 0.0847 0.02878 0.45448 0.0
C251 C 0.10302 0.03637 0.37962 0.0
H252 H 0.48914 0.21014 0.51661 0.0
H253 H 0.44989 0.16128 0.28849 0.0
H254 H 0.44958 0.11924 0.39126 0.0
H255 H 0.47102 0.09444 0.52898 0.0
H256 H 0.51526 0.14233 0.74812 0.0
H257 H 0.50186 0.1868 0.6699 0.0
C258 C 0.47923 0.1906 0.49175 0.0
C259 C 0.46944 0.1886 0.39583 0.0
C260 C 0.48015 0.16624 0.55017 0.0
C261 C 0.45724 0.16317 0.36268 0.0
C262 C 0.45721 0.13911 0.42137 0.0
C263 C 0.47629 0.11464 0.56227 0.0
C264 C 0.4941 0.11516 0.64368 0.0
C265 C 0.47005 0.13999 0.5131 0.0
C266 C 0.50143 0.1415 0.68548 0.0
C267 C 0.49413 0.16691 0.63987 0.0
H268 H 0.37405 0.47055 0.28233 0.0
H269 H 0.30307 0.4789 0.47741 0.0
H270 H 0.33529 0.48383 0.61431 0.0
H271 H 0.38286 0.49634 0.67252 0.0
H272 H 0.45309 0.49411 0.47407 0.0
H273 H 0.42225 0.47614 0.34529 0.0
C274 C 0.3656 0.47314 0.35492 0.0
C275 C 0.33613 0.47507 0.36878 0.0
C276 C 0.38425 0.47738 0.43293 0.0
C277 C 0.32559 0.47742 0.46393 0.0
C278 C 0.34404 0.48056 0.54248 0.0
C279 C 0.39149 0.4909 0.60188 0.0
C280 C 0.42019 0.49611 0.58274 0.0
C281 C 0.37331 0.48208 0.52703 0.0
C282 C 0.4312 0.4895 0.49097 0.0
C283 C 0.41345 0.47972 0.41689 0.0
H284 H 0.06115 0.34563 0.38788 0.0
H285 H 0.97969 0.34551 0.24622 0.0
H286 H 0.96245 0.38165 0.35833 0.0
H287 H 0.96987 0.41338 0.49455 0.0
H288 H 0.05018 0.41601 0.64134 0.0
H289 H 0.06873 0.37902 0.52975 0.0
C290 C 0.03958 0.35336 0.38287 0.0
C291 C 0.02167 0.34289 0.30875 0.0
C292 C 0.02972 0.3747 0.44781 0.0
C293 C 0.99384 0.35324 0.30237 0.0
C294 C 0.98397 0.37397 0.36623 0.0
C295 C 0.99151 0.4059 0.50195 0.0
C296 C 0.00864 0.41721 0.5756 0.0
C297 C 1.0017 0.38492 0.43853 0.0
C298 C 0.0367 0.40767 0.58434 0.0
C299 C 0.04716 0.38641 0.52102 0.0
H300 H 0.81595 0.9909 0.93414 0.0
H301 H 0.86643 0.91984 0.03137 0.0
H302 H 0.90285 0.93144 0.91369 0.0
H303 H 0.92344 0.96612 0.79971 0.0
H304 H 0.87121 0.03485 0.69599 0.0
H305 H 0.83203 0.01872 0.7956 0.0
C306 C 0.83443 0.97732 0.9285 0.0
C307 C 0.83856 0.95509 -0.00482 0.0
C308 C 0.85515 0.98359 0.85852 0.0
C309 C 0.86299 0.93797 0.98493 0.0
C310 C 0.88382 0.94434 0.91644 0.0
C311 C 0.90312 0.97683 0.79575 0.0
C312 C 0.9005 1.00198 0.74174 0.0
C313 C 0.88061 0.96774 0.8551 0.0
C314 C 0.87395 0.0156 0.73774 0.0
C315 C 0.85156 0.00658 0.79568 0.0
H316 H 0.58909 0.85553 0.92432 0.0
H317 H 0.51083 0.81166 0.98177 0.0
H318 H 0.48589 0.84287 0.87022 0.0
H319 H 0.48515 0.88544 0.77274 0.0
H320 H 0.5621 0.93219 0.72071 0.0
H321 H 0.58904 0.89582 0.80876 0.0
C322 C 0.56663 0.85272 0.91163 0.0
C323 C 0.55178 0.83143 0.96196 0.0
C324 C 0.55226 0.87106 0.84792 0.0
C325 C 0.52278 0.82772 0.94373 0.0
C326 C 0.50847 0.84565 0.88019 0.0
C327 C 0.50791 0.88773 0.77916 0.0
C328 C 0.52147 0.91201 0.74202 0.0
C329 C 0.52286 0.86778 0.834 0.0
C330 C 0.55102 0.91404 0.75001 0.0
C331 C 0.56636 0.89346 0.80141 0.0
H332 H 0.69085 0.56913 0.87381 0.0
H333 H 0.64277 0.55193 0.13216 0.0
H334 H 0.60354 0.53406 0.03421 0.0
H335 H 0.58412 0.51994 0.87582 0.0
H336 H 0.63273 0.5342 0.61736 0.0
H337 H 0.66988 0.55754 0.71318 0.0
C338 C 0.67177 0.56143 0.90832 0.0
C339 C 0.66978 0.56177 0.01018 0.0
C340 C 0.64909 0.55122 0.85121 0.0
C341 C 0.64479 0.552 0.05393 0.0
C342 C 0.6223 0.54184 -0.00203 0.0
C343 C 0.60238 0.52916 0.84041 0.0
C344 C 0.60545 0.5261 0.73969 0.0
C345 C 0.62423 0.54117 0.89663 0.0
C346 C 0.62969 0.53703 0.69468 0.0
C347 C 0.65111 0.54993 0.74969 0.0
H348 H 0.99483 0.69933 0.96807 0.0
H349 H 0.91161 0.6618 0.972 0.0
H350 H 0.92783 0.6235 0.86533 0.0
H351 H 0.96698 0.59779 0.78245 0.0
H352 H 0.04905 0.6379 0.77103 0.0
H353 H 0.03186 0.67739 0.86833 0.0
C354 C 0.98006 0.68302 0.94493 0.0
C355 C 0.95218 0.68331 0.98071 0.0
C356 C 0.98944 0.66088 0.88322 0.0
C357 C 0.93349 0.66179 0.94886 0.0
C358 C 0.94272 0.63975 0.88764 0.0
C359 C 0.98099 0.61528 0.8005 0.0
C360 C 0.0094 0.61442 0.7698 0.0
C361 C 0.97089 0.63856 0.85642 0.0
C362 C 0.0271 0.6376 0.79349 0.0
C363 C 0.01734 0.66037 0.84972 0.0
H364 H 0.07945 0.1569 0.38311 0.0
H365 H 0.00846 0.21388 0.4187 0.0
H366 H 0.98375 0.17795 0.513 0.0
H367 H 0.97819 0.12713 0.5544 0.0
H368 H 0.04456 0.06808 0.4801 0.0
H369 H 0.07404 0.10688 0.42239 0.0
C370 C 0.0586 0.16158 0.4121 0.0
C371 C 0.0454 0.1876 0.38974 0.0
C372 C 0.04286 0.13962 0.45308 0.0
C373 C 0.01913 0.19394 0.43287 0.0
C374 C 0.00458 0.17306 0.48459 0.0
C375 C 0.99894 0.1228 0.52411 0.0
C376 C 0.00908 0.09464 0.5192 0.0
C377 C 0.01542 0.14527 0.48887 0.0
C378 C 0.03612 0.08937 0.48154 0.0
C379 C 0.05314 0.11165 0.45059 0.0
H380 H 0.36698 0.08888 0.36766 0.0
H381 H 0.31025 0.01814 0.40944 0.0
H382 H 0.3469 0.99287 0.49797 0.0
H383 H 0.39729 0.98743 0.53858 0.0
H384 H 0.45611 0.05308 0.45711 0.0
H385 H 0.41699 0.08248 0.3995 0.0
C386 C 0.36255 0.06794 0.39636 0.0
C387 C 0.33618 0.05519 0.37839 0.0
C388 C 0.38466 0.05186 0.43491 0.0
C389 C 0.33031 0.02869 0.42104 0.0
C390 C 0.35155 0.01377 0.46949 0.0
C391 C 0.40159 0.00803 0.50697 0.0
C392 C 0.42948 0.01831 0.50317 0.0
C393 C 0.37919 0.02447 0.47152 0.0
C394 C 0.4348 0.04488 0.46144 0.0
C395 C 0.41249 0.06183 0.42982 0.0
H396 H 0.48405 0.32868 0.4336 0.0
H397 H 0.40404 0.36834 0.36981 0.0
H398 H 0.4217 0.41382 0.43299 0.0
H399 H 0.46369 0.44374 0.46684 0.0
H400 H 0.54512 0.40374 0.50371 0.0
H401 H 0.5237 0.35715 0.48541 0.0
C402 C 0.46997 0.34693 0.43778 0.0
C403 C 0.44316 0.34549 0.39433 0.0
C404 C 0.48131 0.37337 0.46278 0.0
C405 C 0.42493 0.3691 0.40208 0.0
C406 C 0.43536 0.39528 0.43522 0.0
C407 C 0.47664 0.42487 0.47017 0.0
C408 C 0.50603 0.42741 0.48293 0.0
C409 C 0.46419 0.398 0.45817 0.0
C410 C 0.5226 0.4026 0.48955 0.0
C411 C 0.5103 0.37586 0.48119 0.0
H412 H 0.15333 0.43508 0.3921 0.0
H413 H 0.20128 0.51226 0.42729 0.0
H414 H 0.15961 0.53659 0.49179 0.0
H415 H 0.10773 0.53878 0.49924 0.0
H416 H 0.05876 0.46291 0.44541 0.0
H417 H 0.10225 0.4356 0.41935 0.0
C418 C 0.15482 0.4569 0.41798 0.0
C419 C 0.17978 0.47226 0.40108 0.0
C420 C 0.13012 0.47154 0.44349 0.0
C421 C 0.18206 0.50015 0.43758 0.0
C422 C 0.158 0.51433 0.47148 0.0
C423 C 0.10657 0.51643 0.47944 0.0
C424 C 0.08013 0.50309 0.46924 0.0
C425 C 0.13157 0.50085 0.46657 0.0
C426 C 0.07893 0.47378 0.44926 0.0
C427 C 0.10374 0.45809 0.43658 0.0
H428 H 0.01644 0.84232 0.00532 0.0
H429 H 0.9366 0.84409 0.85568 0.0
H430 H 0.94827 0.89049 0.78715 0.0
H431 H 0.97558 0.93428 0.80363 0.0
H432 H 0.05231 0.93514 0.97462 0.0
H433 H 0.04633 0.88456 0.00842 0.0
C434 C 1.00235 0.85234 0.95352 0.0
C435 C 0.97556 0.84038 0.93676 0.0
C436 C 0.00759 0.88034 0.92546 0.0
C437 C 0.9573 0.85309 0.86962 0.0
C438 C 0.96358 0.88001 0.83335 0.0
C439 C 0.99098 0.92359 0.84905 0.0
C440 C 0.0141 0.93873 0.8884 0.0
C441 C 0.98757 0.89461 0.86734 0.0
C442 C 0.03402 0.9242 0.94533 0.0
C443 C 0.03089 0.89519 0.96314 0.0
H444 H 0.65297 0.93049 0.93097 0.0
H445 H 0.70778 1.00349 0.93901 0.0
H446 H 0.67006 0.03318 0.87293 0.0
H447 H 0.6192 0.03972 0.83983 0.0
H448 H 0.5629 0.96794 0.86333 0.0
H449 H 0.60287 0.93696 0.89969 0.0
C450 C 0.6569 0.95264 0.91407 0.0
C451 C 0.68278 0.96487 0.9413 0.0
C452 C 0.63422 0.97021 0.88888 0.0
C453 C 0.688 0.9935 0.91844 0.0
C454 C 0.66613 0.01072 0.88394 0.0
C455 C 0.61571 0.01735 0.85445 0.0
C456 C 0.5882 0.00613 0.8498 0.0
C457 C 0.63875 0.9996 0.87478 0.0
C458 C 0.58383 0.97716 0.86838 0.0
C459 C 0.60671 0.95928 0.88643 0.0
H460 H 0.52876 0.68883 0.91341 0.0
H461 H 0.61352 0.6572 0.94817 0.0
H462 H 0.59922 0.61065 0.88442 0.0
H463 H 0.56013 0.57659 0.86012 0.0
H464 H 0.47412 0.60769 0.85546 0.0
H465 H 0.49083 0.65638 0.87073 0.0
C466 C 0.54432 0.67212 0.90174 0.0
C467 C 0.57184 0.67591 0.93692 0.0
C468 C 0.53515 0.64476 0.87754 0.0
C469 C 0.59213 0.65449 0.92144 0.0
C470 C 0.58372 0.62766 0.88819 0.0
C471 C 0.54514 0.59408 0.86362 0.0
C472 C 0.51597 0.58851 0.86103 0.0
C473 C 0.55487 0.62206 0.87398 0.0
C474 C 0.49667 0.61132 0.8622 0.0
C475 C 0.5062 0.63923 0.86869 0.0
H476 H 0.85747 0.58906 0.97371 0.0
H477 H 0.8092 0.51595 0.88457 0.0
H478 H 0.852 0.49338 0.82031 0.0
H479 H 0.90384 0.48972 0.82936 0.0
H480 H 0.95256 0.56038 0.93968 0.0
H481 H 0.90893 0.58762 0.9668 0.0
C482 C 0.85626 0.56881 0.93549 0.0
C483 C 0.83075 0.55356 0.9371 0.0
C484 C 0.8813 0.55455 0.91153 0.0
C485 C 0.82885 0.52778 0.88565 0.0
C486 C 0.85347 0.51447 0.85225 0.0
C487 C 0.90481 0.51093 0.86088 0.0
C488 C 0.93104 0.52265 0.88755 0.0
C489 C 0.87991 0.52666 0.87281 0.0
C490 C 0.93235 0.55066 0.9229 0.0
C491 C 0.9076 0.56645 0.93561 0.0
H492 H 0.01144 0.17732 0.07082 0.0
H493 H 0.10028 0.16454 0.0203 0.0
H494 H 0.0901 0.12007 0.93098 0.0
H495 H 0.05524 0.08263 0.87982 0.0
H496 H 0.96745 0.09442 0.95885 0.0
H497 H 0.97787 0.14081 0.0257 0.0
C498 C 0.02845 0.16525 0.03708 0.0
C499 C 0.05639 0.17458 0.04847 0.0
C500 C 0.02262 0.1389 -0.00628 0.0
C501 C 0.0785 0.1582 0.00895 0.0
C502 C 0.07267 0.13254 0.95975 0.0
C503 C 0.03854 0.09531 0.91248 0.0
C504 C 0.01064 0.0847 0.91464 0.0
C505 C 0.04477 0.12222 0.95405 0.0
C506 C 0.98922 0.10155 0.95712 0.0
C507 C 0.99503 0.12839 -0.00534 0.0
H508 H 0.33583 0.02167 0.03173 0.0
H509 H 0.3565 0.1107 0.03533 0.0
H510 H 0.40123 0.10061 0.95095 0.0
H511 H 0.43715 0.06508 0.8939 0.0
H512 H 0.41703 0.97572 0.91548 0.0
H513 H 0.37003 0.98717 0.97284 0.0
C514 C 0.34957 0.03896 0.00997 0.0
C515 C 0.34252 0.06691 0.03653 0.0
C516 C 0.37604 0.03274 0.96916 0.0
C517 C 0.3611 0.08909 0.01231 0.0
C518 C 0.38694 0.08321 0.96611 0.0
C519 C 0.42246 0.04823 0.91169 0.0
C520 C 0.43098 0.0196 0.90198 0.0
C521 C 0.39517 0.05493 0.94747 0.0
C522 C 0.41152 0.99797 0.92447 0.0
C523 C 0.38435 1.00444 0.95626 0.0
H524 H 0.43603 0.36373 0.00621 0.0
H525 H 0.51486 0.33884 0.13781 0.0
H526 H 0.53967 0.37652 0.05165 0.0
H527 H 0.53905 0.41645 0.93743 0.0
H528 H 0.46021 0.4421 0.80727 0.0
H529 H 0.43536 0.40413 0.89236 0.0
C530 C 0.45873 0.36623 0.01367 0.0
C531 C 0.47384 0.34801 0.07516 0.0
C532 C 0.4728 0.38822 0.96479 0.0
C533 C 0.50309 0.35193 0.08745 0.0
C534 C 0.51719 0.3737 0.0394 0.0
C535 C 0.51637 0.4139 0.92908 0.0
C536 C 0.50135 0.43225 0.86786 0.0
C537 C 0.50227 0.392 0.97799 0.0
C538 C 0.47203 0.42868 0.85643 0.0
C539 C 0.45788 0.40676 0.90405 0.0
H540 H 0.13964 0.44095 0.10094 0.0
H541 H 0.20464 0.49337 0.97353 0.0
H542 H 0.17091 0.51053 0.8547 0.0
H543 H 0.12204 0.5162 0.80161 0.0
H544 H 0.05542 0.46895 0.94085 0.0
H545 H 0.09052 0.44574 0.04476 0.0
C546 C 0.14655 0.45626 0.04765 0.0
C547 C 0.1748 0.4662 0.04867 0.0
C548 C 0.12649 0.46785 0.98384 0.0
C549 C 0.18334 0.485 0.97541 0.0
C550 C 0.16384 0.49535 0.90815 0.0
C551 C 0.11503 0.50083 0.85462 0.0
C552 C 0.08599 0.4946 0.86402 0.0
C553 C 0.1352 0.48786 0.91444 0.0
C554 C 0.07755 0.47434 0.93246 0.0
C555 C 0.09764 0.46096 -0.00849 0.0
H556 H 0.98676 0.83222 0.34685 0.0
H557 H 0.91922 0.88026 0.21694 0.0
H558 H 0.92983 0.921 0.32234 0.0
H559 H 0.96179 0.94478 0.44055 0.0
H560 H 0.02988 0.89597 0.56667 0.0
H561 H 0.01562 0.85428 0.47475 0.0
C562 C 0.97367 0.8512 0.34455 0.0
C563 C 0.95197 0.85302 0.2754 0.0
C564 C 0.9805 0.8749 0.40326 0.0
C565 C 0.93573 0.87815 0.27103 0.0
C566 C 0.94207 0.90163 0.33028 0.0
C567 C 0.97342 0.92502 0.44816 0.0
C568 C 0.99719 0.92396 0.50986 0.0
C569 C 0.96504 0.90062 0.39469 0.0
C570 C 0.01175 0.89787 0.51912 0.0
C571 C 0.00354 0.87375 0.46675 0.0
H572 H 0.64714 0.99293 0.17619 0.0
H573 H 0.68567 0.94152 0.39791 0.0
H574 H 0.64645 0.95382 0.50884 0.0
H575 H 0.60015 0.97886 0.5394 0.0
H576 H 0.56199 0.02641 0.30673 0.0
H577 H 0.60118 0.01387 0.2002 0.0
C578 C 0.64691 0.98381 0.24824 0.0
C579 C 0.66914 0.96573 0.27775 0.0
C580 C 0.62383 0.98958 0.30836 0.0
C581 C 0.66889 0.95539 0.37303 0.0
C582 C 0.64625 0.96213 0.43581 0.0
C583 C 0.60022 0.98584 0.46467 0.0
C584 C 0.57812 1.00347 0.43058 0.0
C585 C 0.62332 0.97889 0.40364 0.0
C586 C 0.57868 0.01285 0.33435 0.0
C587 C 0.6012 0.00592 0.27377 0.0
H588 H 0.5194 0.65231 0.19158 0.0
H589 H 0.57889 0.69161 0.38788 0.0
H590 H 0.56733 0.6562 0.51181 0.0
H591 H 0.5421 0.61217 0.5601 0.0
H592 H 0.48493 0.57194 0.35832 0.0
H593 H 0.49426 0.60916 0.23909 0.0
C594 C 0.52974 0.65324 0.26183 0.0
C595 C 0.55016 0.67443 0.28047 0.0
C596 C 0.52387 0.63222 0.33042 0.0
C597 C 0.56298 0.67568 0.37217 0.0
C598 C 0.55664 0.6552 0.44233 0.0
C599 C 0.53215 0.61145 0.48923 0.0
C600 C 0.5135 0.58911 0.46624 0.0
C601 C 0.53762 0.63298 0.42139 0.0
C602 C 0.49997 0.58858 0.37584 0.0
C603 C 0.50506 0.60999 0.30842 0.0
H604 H 0.863 0.57782 0.26851 0.0
H605 H 0.8123 0.5033 0.3176 0.0
H606 H 0.84857 0.48455 0.42727 0.0
H607 H 0.89539 0.48843 0.50264 0.0
H608 H 0.94679 0.5627 0.45287 0.0
H609 H 0.90962 0.58244 0.34893 0.0
C610 C 0.85958 0.5579 0.30586 0.0
C611 C 0.83464 0.54229 0.28747 0.0
C612 C 0.88086 0.54702 0.36681 0.0
C613 C 0.83079 0.5161 0.33349 0.0
C614 C 0.85176 0.50521 0.39475 0.0
C615 C 0.89857 0.509 0.46937 0.0
C616 C 0.92401 0.52404 0.48574 0.0
C617 C 0.87701 0.52031 0.4108 0.0
C618 C 0.92765 0.55053 0.44105 0.0
C619 C 0.90627 0.56192 0.38222 0.0
loop_
_geom_bond_atom_site_label_1
_geom_bond_atom_site_label_2
_geom_bond_distance
_geom_bond_site_symmetry_2
_ccdc_geom_bond_type
H0 C1 0.949 . S
C1 H0 0.949 . S
C1 C2 1.395 . S
C1 C3 1.391 1_556 S
C2 C1 1.395 . S
C2 C5 1.390 1_556 S
C3 C1 1.391 1_554 S
C3 C7 1.387 . S
C3 C8 1.491 . S
H4 C5 0.950 . S
C5 C2 1.390 1_554 S
C5 H4 0.950 . S
C5 C6 1.378 . S
C6 C5 1.378 . S
C6 C7 1.409 . S
C7 C3 1.387 . S
C7 C6 1.409 . S
C7 H9 0.951 . S
C8 C3 1.491 . S
C8 C10 1.382 1_554 S
C8 C12 1.404 . S
H9 C7 0.951 . S
C10 C8 1.382 1_556 S
C10 C11 1.390 . S
C10 H15 0.949 . S
C11 C10 1.390 . S
C11 C16 1.399 1_556 S
C12 C8 1.404 . S
C12 H13 0.950 . S
C12 C14 1.375 . S
H13 C12 0.950 . S
C14 C12 1.375 . S
C14 C16 1.382 . S
C14 H18 0.950 . S
H15 C10 0.949 . S
C16 C11 1.399 1_554 S
C16 C14 1.382 . S
C16 H17 0.952 . S
H17 C16 0.952 . S
H18 C14 0.950 . S
H19 C20 0.949 . S
C20 H19 0.949 . S
C20 C21 1.395 . S
C20 C22 1.391 1_556 S
C21 C20 1.395 . S
C21 C24 1.390 1_556 S
C22 C20 1.391 1_554 S
C22 C26 1.387 . S
C22 C27 1.491 . S
H23 C24 0.950 . S
C24 C21 1.390 1_554 S
C24 H23 0.950 . S
C24 C25 1.378 . S
C25 C24 1.378 . S
C25 C26 1.409 . S
C26 C22 1.387 . S
C26 C25 1.409 . S
C26 H28 0.951 . S
C27 C22 1.491 . S
C27 C29 1.382 1_554 S
C27 C31 1.404 . S
H28 C26 0.951 . S
C29 C27 1.382 1_556 S
C29 C30 1.390 . S
C29 H34 0.949 . S
C30 C29 1.390 . S
C30 C35 1.399 1_556 S
C31 C27 1.404 . S
C31 H32 0.950 . S
C31 C33 1.375 . S
H32 C31 0.950 . S
C33 C31 1.375 . S
C33 C35 1.382 . S
C33 H37 0.950 . S
H34 C29 0.949 . S
C35 C30 1.399 1_554 S
C35 C33 1.382 . S
C35 H36 0.952 . S
H36 C35 0.952 . S
H37 C33 0.950 . S
H38 C39 0.949 . S
C39 H38 0.949 . S
C39 C40 1.395 . S
C39 C41 1.391 1_556 S
C40 C39 1.395 . S
C40 C43 1.390 1_556 S
C41 C39 1.391 1_554 S
C41 C45 1.387 . S
C41 C46 1.491 . S
H42 C43 0.950 . S
C43 C40 1.390 1_554 S
C43 H42 0.950 . S
C43 C44 1.378 . S
C44 C43 1.378 . S
C44 C45 1.409 . S
C45 C41 1.387 . S
C45 C44 1.409 . S
C45 H47 0.951 . S
C46 C41 1.491 . S
C46 C48 1.382 1_554 S
C46 C50 1.404 . S
H47 C45 0.951 . S
C48 C46 1.382 1_556 S
C48 C49 1.390 . S
C48 H53 0.949 . S
C49 C48 1.390 . S
C49 C54 1.399 1_556 S
C50 C46 1.404 . S
C50 H51 0.950 . S
C50 C52 1.375 . S
H51 C50 0.950 . S
C52 C50 1.375 . S
C52 C54 1.382 . S
C52 H56 0.950 . S
H53 C48 0.949 . S
C54 C49 1.399 1_554 S
C54 C52 1.382 . S
C54 H55 0.952 . S
H55 C54 0.952 . S
H56 C52 0.950 . S
H57 C58 0.949 . S
C58 H57 0.949 . S
C58 C59 1.395 . S
C58 C60 1.391 1_556 S
C59 C58 1.395 . S
C59 C62 1.390 1_556 S
C60 C58 1.391 1_554 S
C60 C64 1.387 . S
C60 C65 1.491 . S
H61 C62 0.950 . S
C62 C59 1.390 1_554 S
C62 H61 0.950 . S
C62 C63 1.378 . S
C63 C62 1.378 . S
C63 C64 1.409 . S
C64 C60 1.387 . S
C64 C63 1.409 . S
C64 H66 0.951 . S
C65 C60 1.491 . S
C65 C67 1.382 1_554 S
C65 C69 1.404 . S
H66 C64 0.951 . S
C67 C65 1.382 1_556 S
C67 C68 1.390 . S
C67 H72 0.949 . S
C68 C67 1.390 . S
C68 C73 1.399 1_556 S
C69 C65 1.404 . S
C69 H70 0.950 . S
C69 C71 1.375 . S
H70 C69 0.950 . S
C71 C69 1.375 . S
C71 C73 1.382 . S
C71 H75 0.950 . S
H72 C67 0.949 . S
C73 C68 1.399 1_554 S
C73 C71 1.382 . S
C73 H74 0.952 . S
H74 C73 0.952 . S
H75 C71 0.950 . S
H76 C77 0.949 . S
C77 H76 0.949 . S
C77 C78 1.395 . S
C77 C79 1.391 . S
C78 C77 1.395 . S
C78 C81 1.390 . S
C79 C77 1.391 . S
C79 C83 1.387 . S
C79 C84 1.491 . S
H80 C81 0.950 . S
C81 C78 1.390 . S
C81 H80 0.950 . S
C81 C82 1.378 . S
C82 C81 1.378 . S
C82 C83 1.409 . S
C83 C79 1.387 . S
C83 C82 1.409 . S
C83 H85 0.951 . S
C84 C79 1.491 . S
C84 C86 1.382 . S
C84 C88 1.404 . S
H85 C83 0.951 . S
C86 C84 1.382 . S
C86 C87 1.390 . S
C86 H91 0.949 . S
C87 C86 1.390 . S
C87 C92 1.399 . S
C88 C84 1.404 . S
C88 H89 0.950 . S
C88 C90 1.375 . S
H89 C88 0.950 . S
C90 C88 1.375 . S
C90 C92 1.382 . S
C90 H94 0.950 . S
H91 C86 0.949 . S
C92 C87 1.399 . S
C92 C90 1.382 . S
C92 H93 0.952 . S
H93 C92 0.952 . S
H94 C90 0.950 . S
H95 C96 0.949 . S
C96 H95 0.949 . S
C96 C97 1.395 . S
C96 C98 1.391 . S
C97 C96 1.395 . S
C97 C100 1.390 . S
C98 C96 1.391 . S
C98 C102 1.387 . S
C98 C103 1.491 . S
H99 C100 0.950 . S
C100 C97 1.390 . S
C100 H99 0.950 . S
C100 C101 1.378 . S
C101 C100 1.378 . S
C101 C102 1.409 . S
C102 C98 1.387 . S
C102 C101 1.409 . S
C102 H104 0.951 . S
C103 C98 1.491 . S
C103 C105 1.382 . S
C103 C107 1.404 . S
H104 C102 0.951 . S
C105 C103 1.382 . S
C105 C106 1.390 . S
C105 H110 0.949 . S
C106 C105 1.390 . S
C106 C111 1.399 . S
C107 C103 1.404 . S
C107 H108 0.950 1_455 S
C107 C109 1.382 . S
H108 C107 0.950 1_655 S
C109 C107 1.382 . S
C109 C111 1.395 . S
C109 H113 0.931 1_455 S
H110 C105 0.949 . S
C111 C106 1.399 . S
C111 C109 1.395 . S
C111 H112 0.952 . S
H112 C111 0.952 . S
H113 C109 0.931 1_655 S
H114 C115 0.949 . S
C115 H114 0.949 . S
C115 C116 1.395 . S
C115 C117 1.391 . S
C116 C115 1.395 . S
C116 C119 1.390 . S
C117 C115 1.391 . S
C117 C121 1.387 . S
C117 C122 1.491 . S
H118 C119 0.950 . S
C119 C116 1.390 . S
C119 H118 0.950 . S
C119 C120 1.378 . S
C120 C119 1.378 . S
C120 C121 1.409 . S
C121 C117 1.387 . S
C121 C120 1.409 . S
C121 H123 0.951 . S
C122 C117 1.491 . S
C122 C124 1.382 . S
C122 C126 1.404 . S
H123 C121 0.951 . S
C124 C122 1.382 . S
C124 C125 1.390 . S
C124 H129 0.949 . S
C125 C124 1.390 . S
C125 C130 1.399 . S
C126 C122 1.404 . S
C126 H127 0.952 1_545 S
C126 C128 1.375 . S
H127 C126 0.952 1_565 S
C128 C126 1.375 . S
C128 C130 1.382 . S
C128 H132 0.950 1_545 S
H129 C124 0.949 . S
C130 C125 1.399 . S
C130 C128 1.382 . S
C130 H131 0.952 . S
H131 C130 0.952 . S
H132 C128 0.950 1_565 S
H133 C134 0.949 . S
C134 H133 0.949 . S
C134 C135 1.395 . S
C134 C136 1.391 . S
C135 C134 1.395 . S
C135 C138 1.390 . S
C136 C134 1.391 . S
C136 C140 1.387 . S
C136 C141 1.491 . S
H137 C138 0.950 . S
C138 C135 1.390 . S
C138 H137 0.950 . S
C138 C139 1.378 . S
C139 C138 1.378 . S
C139 C140 1.409 . S
C140 C136 1.387 . S
C140 C139 1.409 . S
C140 H142 0.951 . S
C141 C136 1.491 . S
C141 C143 1.382 . S
C141 C145 1.404 . S
H142 C140 0.951 . S
C143 C141 1.382 . S
C143 C144 1.390 . S
C143 H148 0.949 . S
C144 C143 1.390 . S
C144 C149 1.399 . S
C145 C141 1.404 . S
C145 H146 0.950 . S
C145 C147 1.375 . S
H146 C145 0.950 . S
C147 C145 1.375 . S
C147 C149 1.382 . S
C147 H151 0.950 . S
H148 C143 0.949 . S
C149 C144 1.399 . S
C149 C147 1.382 . S
C149 H150 0.952 . S
H150 C149 0.952 . S
H151 C147 0.950 . S
O152 Mg153 1.990 . S
O152 C166 1.253 . S
Mg153 O152 1.990 . S
Mg153 O156 2.180 . S
Mg153 O157 2.117 . S
Mg153 O171 2.030 . S
O154 Mg155 2.072 1_665 S
O154 C166 1.260 1_655 S
Mg155 O154 2.072 1_445 S
Mg155 O156 2.099 1_545 S
Mg155 O158 2.079 . S
Mg155 O159 2.072 . S
Mg155 O161 2.099 1_455 S
Mg155 O172 2.079 1_445 S
O156 Mg153 2.180 . S
O156 Mg155 2.099 1_565 S
O156 C167 1.279 . S
O157 Mg153 2.117 . S
O157 C167 1.250 . S
O158 Mg155 2.079 . S
O158 C168 1.264 1_455 S
O159 Mg155 2.072 . S
O159 C169 1.260 . S
Mg160 O161 2.180 . S
Mg160 O162 2.030 . S
Mg160 O163 1.990 . S
Mg160 O164 2.117 . S
O161 Mg155 2.099 1_655 S
O161 Mg160 2.180 . S
O161 C170 1.279 . S
O162 Mg160 2.030 . S
O162 C168 1.248 . S
O163 Mg160 1.990 . S
O163 C169 1.253 1_655 S
O164 Mg160 2.117 . S
O164 C170 1.250 . S
C165 O171 1.248 1_655 S
C165 O172 1.264 . S
C166 O152 1.253 . S
C166 O154 1.260 1_455 S
C167 O156 1.279 . S
C167 O157 1.250 . S
C168 O158 1.264 1_655 S
C168 O162 1.248 . S
C169 O159 1.260 . S
C169 O163 1.253 1_455 S
C170 O161 1.279 . S
C170 O164 1.250 . S
O171 Mg153 2.030 . S
O171 C165 1.248 1_455 S
O172 Mg155 2.079 1_665 S
O172 C165 1.264 . S
O173 Mg174 1.990 . S
O173 C187 1.253 1_565 S
Mg174 O173 1.990 . S
Mg174 O177 2.180 . S
Mg174 O178 2.117 . S
Mg174 O192 2.030 . S
O175 Mg176 2.072 . S
O175 C187 1.260 . S
Mg176 O175 2.072 . S
Mg176 O177 2.099 1_545 S
Mg176 O179 2.079 1_545 S
Mg176 O180 2.075 . S
Mg176 O182 2.099 . S
Mg176 O193 2.079 . S
O177 Mg174 2.180 . S
O177 Mg176 2.099 1_565 S
O177 C188 1.279 . S
O178 Mg174 2.117 . S
O178 C188 1.250 . S
O179 Mg176 2.079 1_565 S
O179 C189 1.264 . S
O180 Mg176 2.075 . S
O180 C190 1.272 . S
Mg181 O182 2.180 . S
Mg181 O183 2.030 . S
Mg181 O184 1.990 . S
Mg181 O185 2.117 . S
O182 Mg176 2.099 . S
O182 Mg181 2.180 . S
O182 C191 1.279 . S
O183 Mg181 2.030 . S
O183 C189 1.248 1_545 S
O184 Mg181 1.990 . S
O184 C190 1.253 . S
O185 Mg181 2.117 . S
O185 C191 1.250 . S
C186 O192 1.263 . S
C186 O193 1.257 1_565 S
C187 O173 1.253 1_545 S
C187 O175 1.260 . S
C188 O177 1.279 . S
C188 O178 1.250 . S
C189 O179 1.264 . S
C189 O183 1.248 1_565 S
C190 O180 1.272 . S
C190 O184 1.253 . S
C191 O182 1.279 . S
C191 O185 1.250 . S
O192 Mg174 2.030 . S
O192 C186 1.263 . S
O193 Mg176 2.079 . S
O193 C186 1.257 1_545 S
O194 Mg195 1.990 . S
O194 C208 1.253 . S
Mg195 O194 1.990 . S
Mg195 O198 2.180 . S
Mg195 O199 2.117 . S
Mg195 O213 2.030 . S
O196 Mg197 2.072 . S
O196 C208 1.260 . S
Mg197 O196 2.072 . S
Mg197 O198 2.099 . S
Mg197 O200 2.079 . S
Mg197 O201 2.072 . S
Mg197 O203 2.099 . S
Mg197 O214 2.079 . S
O198 Mg195 2.180 . S
O198 Mg197 2.099 . S
O198 C209 1.279 . S
O199 Mg195 2.117 . S
O199 C209 1.250 . S
O200 Mg197 2.079 . S
O200 C210 1.264 . S
O201 Mg197 2.072 . S
O201 C211 1.260 . S
Mg202 O203 2.180 . S
Mg202 O204 2.030 . S
Mg202 O205 1.990 . S
Mg202 O206 2.117 . S
O203 Mg197 2.099 . S
O203 Mg202 2.180 . S
O203 C212 1.279 . S
O204 Mg202 2.030 . S
O204 C210 1.248 . S
O205 Mg202 1.990 . S
O205 C211 1.253 . S
O206 Mg202 2.117 . S
O206 C212 1.250 . S
C207 O213 1.248 . S
C207 O214 1.264 . S
C208 O194 1.253 . S
C208 O196 1.260 . S
C209 O198 1.279 . S
C209 O199 1.250 . S
C210 O200 1.264 . S
C210 O204 1.248 . S
C211 O201 1.260 . S
C211 O205 1.253 . S
C212 O203 1.279 . S
C212 O206 1.250 . S
O213 Mg195 2.030 . S
O213 C207 1.248 . S
O214 Mg197 2.079 . S
O214 C207 1.264 . S
O215 Mg216 1.990 . S
O215 C229 1.253 . S
Mg216 O215 1.990 . S
Mg216 O219 2.180 . S
Mg216 O220 2.117 . S
Mg216 O234 2.030 . S
O217 Mg218 2.072 1_655 S
O217 C229 1.260 . S
Mg218 O217 2.072 1_455 S
Mg218 O219 2.099 1_455 S
Mg218 O221 2.079 . S
Mg218 O222 2.072 . S
Mg218 O224 2.099 . S
Mg218 O235 2.079 1_455 S
O219 Mg216 2.180 . S
O219 Mg218 2.099 1_655 S
O219 C230 1.279 . S
O220 Mg216 2.117 . S
O220 C230 1.250 . S
O221 Mg218 2.079 . S
O221 C231 1.264 . S
O222 Mg218 2.072 . S
O222 C232 1.260 . S
Mg223 O224 2.180 . S
Mg223 O225 2.030 . S
Mg223 O226 1.990 . S
Mg223 O227 2.117 . S
O224 Mg218 2.099 . S
O224 Mg223 2.180 . S
O224 C233 1.279 . S
O225 Mg223 2.030 . S
O225 C231 1.248 . S
O226 Mg223 1.990 . S
O226 C232 1.253 . S
O227 Mg223 2.117 . S
O227 C233 1.250 . S
C228 O234 1.248 . S
C228 O235 1.264 . S
C229 O215 1.253 . S
C229 O217 1.260 . S
C230 O219 1.279 . S
C230 O220 1.250 . S
C231 O221 1.264 . S
C231 O225 1.248 . S
C232 O222 1.260 . S
C232 O226 1.253 . S
C233 O224 1.279 . S
C233 O227 1.250 . S
O234 Mg216 2.030 . S
O234 C228 1.248 . S
O235 Mg218 2.079 1_655 S
O235 C228 1.264 . S
H236 C242 0.930 . S
H237 C245 0.930 . S
H238 C246 0.930 . S
H239 C247 0.930 . S
H240 C250 0.930 1_565 S
H241 C251 0.930 . S
C242 H236 0.930 . S
C242 C243 1.355 . S
C242 C244 1.415 . S
C243 C242 1.355 . S
C243 C245 1.419 . S
C244 C242 1.415 . S
C244 C249 1.425 . S
C244 C251 1.409 . S
C245 H237 0.930 . S
C245 C243 1.419 . S
C245 C246 1.362 . S
C246 H238 0.930 . S
C246 C245 1.362 . S
C246 C249 1.409 . S
C247 H239 0.930 . S
C247 C248 1.355 . S
C247 C249 1.415 . S
C248 C247 1.355 . S
C248 C250 1.419 . S
C249 C244 1.425 . S
C249 C246 1.409 . S
C249 C247 1.415 . S
C250 H240 0.930 1_545 S
C250 C248 1.419 . S
C250 C251 1.362 . S
C251 H241 0.930 . S
C251 C244 1.409 . S
C251 C250 1.362 . S
H252 C258 0.930 . S
H253 C261 0.930 . S
H254 C262 0.930 . S
H255 C263 0.930 . S
H256 C266 0.930 . S
H257 C267 0.930 . S
C258 H252 0.930 . S
C258 C259 1.355 . S
C258 C260 1.415 . S
C259 C258 1.355 . S
C259 C261 1.419 . S
C260 C258 1.415 . S
C260 C265 1.425 . S
C260 C267 1.409 . S
C261 H253 0.930 . S
C261 C259 1.419 . S
C261 C262 1.362 . S
C262 H254 0.930 . S
C262 C261 1.362 . S
C262 C265 1.409 . S
C263 H255 0.930 . S
C263 C264 1.355 . S
C263 C265 1.415 . S
C264 C263 1.355 . S
C264 C266 1.419 . S
C265 C260 1.425 . S
C265 C262 1.409 . S
C265 C263 1.415 . S
C266 H256 0.930 . S
C266 C264 1.419 . S
C266 C267 1.362 . S
C267 H257 0.930 . S
C267 C260 1.409 . S
C267 C266 1.362 . S
H268 C274 0.930 . S
H269 C277 0.930 . S
H270 C278 0.930 . S
H271 C279 0.930 . S
H272 C282 0.930 . S
H273 C283 0.930 . S
C274 H268 0.930 . S
C274 C275 1.355 . S
C274 C276 1.415 . S
C275 C274 1.355 . S
C275 C277 1.419 . S
C276 C274 1.415 . S
C276 C281 1.425 . S
C276 C283 1.409 . S
C277 H269 0.930 . S
C277 C275 1.419 . S
C277 C278 1.362 . S
C278 H270 0.930 . S
C278 C277 1.362 . S
C278 C281 1.409 . S
C279 H271 0.930 . S
C279 C280 1.355 . S
C279 C281 1.415 . S
C280 C279 1.355 . S
C280 C282 1.419 . S
C281 C276 1.425 . S
C281 C278 1.409 . S
C281 C279 1.415 . S
C282 H272 0.930 . S
C282 C280 1.419 . S
C282 C283 1.362 . S
C283 H273 0.930 . S
C283 C276 1.409 . S
C283 C282 1.362 . S
H284 C290 0.930 . S
H285 C293 0.930 . S
H286 C294 0.930 1_655 S
H287 C295 0.930 1_655 S
H288 C298 0.930 . S
H289 C299 0.930 . S
C290 H284 0.930 . S
C290 C291 1.355 . S
C290 C292 1.415 . S
C291 C290 1.355 . S
C291 C293 1.419 . S
C292 C290 1.415 . S
C292 C297 1.425 . S
C292 C299 1.409 . S
C293 H285 0.930 . S
C293 C291 1.419 . S
C293 C294 1.362 . S
C294 H286 0.930 1_455 S
C294 C293 1.362 . S
C294 C297 1.409 . S
C295 H287 0.930 1_455 S
C295 C296 1.355 . S
C295 C297 1.415 . S
C296 C295 1.355 . S
C296 C298 1.419 . S
C297 C292 1.425 . S
C297 C294 1.409 . S
C297 C295 1.415 . S
C298 H288 0.930 . S
C298 C296 1.419 . S
C298 C299 1.362 . S
C299 H289 0.930 . S
C299 C292 1.409 . S
C299 C298 1.362 . S
H300 C306 0.930 1_545 S
H301 C309 0.930 1_554 S
H302 C310 0.930 . S
H303 C311 0.930 . S
H304 C314 0.930 . S
H305 C315 0.930 . S
C306 H300 0.930 1_565 S
C306 C307 1.355 . S
C306 C308 1.415 . S
C307 C306 1.355 . S
C307 C309 1.419 . S
C308 C306 1.415 . S
C308 C313 1.425 . S
C308 C315 1.409 1_565 S
C309 H301 0.930 1_556 S
C309 C307 1.419 . S
C309 C310 1.362 . S
C310 H302 0.930 . S
C310 C309 1.362 . S
C310 C313 1.409 . S
C311 H303 0.930 . S
C311 C312 1.355 . S
C311 C313 1.415 . S
C312 C311 1.355 . S
C312 C314 1.419 1_565 S
C313 C308 1.425 . S
C313 C310 1.409 . S
C313 C311 1.415 . S
C314 H304 0.930 . S
C314 C312 1.419 1_545 S
C314 C315 1.362 . S
C315 H305 0.930 . S
C315 C308 1.409 1_545 S
C315 C314 1.362 . S
H316 C322 0.930 . S
H317 C325 0.930 . S
H318 C326 0.930 . S
H319 C327 0.930 . S
H320 C330 0.930 . S
H321 C331 0.930 . S
C322 H316 0.930 . S
C322 C323 1.355 . S
C322 C324 1.415 . S
C323 C322 1.355 . S
C323 C325 1.419 . S
C324 C322 1.415 . S
C324 C329 1.425 . S
C324 C331 1.409 . S
C325 H317 0.930 . S
C325 C323 1.419 . S
C325 C326 1.362 . S
C326 H318 0.930 . S
C326 C325 1.362 . S
C326 C329 1.409 . S
C327 H319 0.930 . S
C327 C328 1.355 . S
C327 C329 1.415 . S
C328 C327 1.355 . S
C328 C330 1.419 . S
C329 C324 1.425 . S
C329 C326 1.409 . S
C329 C327 1.415 . S
C330 H320 0.930 . S
C330 C328 1.419 . S
C330 C331 1.362 . S
C331 H321 0.930 . S
C331 C324 1.409 . S
C331 C330 1.362 . S
H332 C338 0.930 . S
H333 C341 0.930 . S
H334 C342 0.930 1_554 S
H335 C343 0.930 . S
H336 C346 0.930 . S
H337 C347 0.930 . S
C338 H332 0.930 . S
C338 C339 1.355 . S
C338 C340 1.415 . S
C339 C338 1.355 . S
C339 C341 1.419 1_556 S
C340 C338 1.415 . S
C340 C345 1.425 . S
C340 C347 1.409 . S
C341 H333 0.930 . S
C341 C339 1.419 1_554 S
C341 C342 1.362 1_554 S
C342 H334 0.930 1_556 S
C342 C341 1.362 1_556 S
C342 C345 1.409 . S
C343 H335 0.930 . S
C343 C344 1.355 . S
C343 C345 1.415 . S
C344 C343 1.355 . S
C344 C346 1.419 . S
C345 C340 1.425 . S
C345 C342 1.409 . S
C345 C343 1.415 . S
C346 H336 0.930 . S
C346 C344 1.419 . S
C346 C347 1.362 . S
C347 H337 0.930 . S
C347 C340 1.409 . S
C347 C346 1.362 . S
H348 C354 0.930 1_455 S
H349 C357 0.930 . S
H350 C358 0.930 . S
H351 C359 0.930 . S
H352 C362 0.930 . S
H353 C363 0.930 . S
C354 H348 0.930 1_655 S
C354 C355 1.355 . S
C354 C356 1.415 . S
C355 C354 1.355 . S
C355 C357 1.419 . S
C356 C354 1.415 . S
C356 C361 1.425 . S
C356 C363 1.409 1_655 S
C357 H349 0.930 . S
C357 C355 1.419 . S
C357 C358 1.362 . S
C358 H350 0.930 . S
C358 C357 1.362 . S
C358 C361 1.409 . S
C359 H351 0.930 . S
C359 C360 1.355 . S
C359 C361 1.415 . S
C360 C359 1.355 . S
C360 C362 1.419 1_655 S
C361 C356 1.425 . S
C361 C358 1.409 . S
C361 C359 1.415 . S
C362 H352 0.930 . S
C362 C360 1.419 1_455 S
C362 C363 1.362 . S
C363 H353 0.930 . S
C363 C356 1.409 1_455 S
C363 C362 1.362 . S
H364 C370 0.930 . S
H365 C373 0.930 . S
H366 C374 0.930 . S
H367 C375 0.930 . S
H368 C378 0.930 . S
H369 C379 0.930 . S
C370 H364 0.930 . S
C370 C371 1.355 . S
C370 C372 1.415 . S
C371 C370 1.355 . S
C371 C373 1.419 . S
C372 C370 1.415 . S
C372 C377 1.425 . S
C372 C379 1.409 . S
C373 H365 0.930 . S
C373 C371 1.419 . S
C373 C374 1.362 1_455 S
C374 H366 0.930 . S
C374 C373 1.362 1_655 S
C374 C377 1.409 1_655 S
C375 H367 0.930 . S
C375 C376 1.355 1_655 S
C375 C377 1.415 1_655 S
C376 C375 1.355 1_455 S
C376 C378 1.419 . S
C377 C372 1.425 . S
C377 C374 1.409 1_455 S
C377 C375 1.415 1_455 S
C378 H368 0.930 . S
C378 C376 1.419 . S
C378 C379 1.362 . S
C379 H369 0.930 . S
C379 C372 1.409 . S
C379 C378 1.362 . S
H380 C386 0.930 . S
H381 C389 0.927 1_565 S
H382 C390 0.930 . S
H383 C391 0.930 . S
H384 C394 0.930 . S
H385 C395 0.930 . S
C386 H380 0.930 . S
C386 C387 1.355 . S
C386 C388 1.415 . S
C387 C386 1.355 . S
C387 C389 1.419 . S
C388 C386 1.415 . S
C388 C393 1.425 . S
C388 C395 1.409 . S
C389 H381 0.927 1_545 S
C389 C387 1.419 . S
C389 C390 1.362 1_545 S
C390 H382 0.930 . S
C390 C389 1.362 1_565 S
C390 C393 1.409 1_565 S
C391 H383 0.930 . S
C391 C392 1.355 1_565 S
C391 C393 1.415 1_565 S
C392 C391 1.355 1_545 S
C392 C394 1.419 . S
C393 C388 1.425 . S
C393 C390 1.409 1_545 S
C393 C391 1.415 1_545 S
C394 H384 0.930 . S
C394 C392 1.419 . S
C394 C395 1.362 . S
C395 H385 0.930 . S
C395 C388 1.409 . S
C395 C394 1.362 . S
H396 C402 0.930 . S
H397 C405 0.930 . S
H398 C406 0.930 . S
H399 C407 0.930 . S
H400 C410 0.930 . S
H401 C411 0.930 . S
C402 H396 0.930 . S
C402 C403 1.355 . S
C402 C404 1.415 . S
C403 C402 1.355 . S
C403 C405 1.419 . S
C404 C402 1.415 . S
C404 C409 1.425 . S
C404 C411 1.409 . S
C405 H397 0.930 . S
C405 C403 1.419 . S
C405 C406 1.362 . S
C406 H398 0.930 . S
C406 C405 1.362 . S
C406 C409 1.409 . S
C407 H399 0.930 . S
C407 C408 1.355 . S
C407 C409 1.415 . S
C408 C407 1.355 . S
C408 C410 1.419 . S
C409 C404 1.425 . S
C409 C406 1.409 . S
C409 C407 1.415 . S
C410 H400 0.930 . S
C410 C408 1.419 . S
C410 C411 1.362 . S
C411 H401 0.930 . S
C411 C404 1.409 . S
C411 C410 1.362 . S
H412 C418 0.930 . S
H413 C421 0.930 . S
H414 C422 0.930 . S
H415 C423 0.930 . S
H416 C426 0.930 . S
H417 C427 0.930 . S
C418 H412 0.930 . S
C418 C419 1.355 . S
C418 C420 1.415 . S
C419 C418 1.355 . S
C419 C421 1.419 . S
C420 C418 1.415 . S
C420 C425 1.425 . S
C420 C427 1.409 . S
C421 H413 0.930 . S
C421 C419 1.419 . S
C421 C422 1.362 . S
C422 H414 0.930 . S
C422 C421 1.362 . S
C422 C425 1.409 . S
C423 H415 0.930 . S
C423 C424 1.355 . S
C423 C425 1.415 . S
C424 C423 1.355 . S
C424 C426 1.419 . S
C425 C420 1.425 . S
C425 C422 1.409 . S
C425 C423 1.415 . S
C426 H416 0.930 . S
C426 C424 1.419 . S
C426 C427 1.362 . S
C427 H417 0.930 . S
C427 C420 1.409 . S
C427 C426 1.362 . S
H428 C434 0.930 1_554 S
H429 C437 0.930 . S
H430 C438 0.930 . S
H431 C439 0.930 . S
H432 C442 0.930 . S
H433 C443 0.930 1_554 S
C434 H428 0.930 1_556 S
C434 C435 1.355 . S
C434 C436 1.415 . S
C435 C434 1.355 . S
C435 C437 1.419 . S
C436 C434 1.415 . S
C436 C441 1.425 . S
C436 C443 1.409 1_655 S
C437 H429 0.930 . S
C437 C435 1.419 . S
C437 C438 1.362 . S
C438 H430 0.930 . S
C438 C437 1.362 . S
C438 C441 1.409 . S
C439 H431 0.930 . S
C439 C440 1.355 1_655 S
C439 C441 1.415 . S
C440 C439 1.355 1_455 S
C440 C442 1.419 . S
C441 C436 1.425 . S
C441 C438 1.409 . S
C441 C439 1.415 . S
C442 H432 0.930 . S
C442 C440 1.419 . S
C442 C443 1.362 . S
C443 H433 0.930 1_556 S
C443 C436 1.409 1_455 S
C443 C442 1.362 . S
H444 C450 0.930 . S
H445 C453 0.930 . S
H446 C454 0.930 . S
H447 C455 0.930 . S
H448 C458 0.930 . S
H449 C459 0.930 . S
C450 H444 0.930 . S
C450 C451 1.355 . S
C450 C452 1.415 . S
C451 C450 1.355 . S
C451 C453 1.419 1_556 S
C452 C450 1.415 . S
C452 C457 1.425 . S
C452 C459 1.409 . S
C453 H445 0.930 . S
C453 C451 1.419 1_554 S
C453 C454 1.362 1_565 S
C454 H446 0.930 . S
C454 C453 1.362 1_545 S
C454 C457 1.409 1_544 S
C455 H447 0.930 . S
C455 C456 1.355 . S
C455 C457 1.415 1_545 S
C456 C455 1.355 . S
C456 C458 1.419 1_545 S
C457 C452 1.425 . S
C457 C454 1.409 1_566 S
C457 C455 1.415 1_565 S
C458 H448 0.930 . S
C458 C456 1.419 1_565 S
C458 C459 1.362 . S
C459 H449 0.930 . S
C459 C452 1.409 . S
C459 C458 1.362 . S
H460 C466 0.930 . S
H461 C469 0.930 . S
H462 C470 0.927 1_554 S
H463 C471 0.930 . S
H464 C474 0.930 . S
H465 C475 0.930 . S
C466 H460 0.930 . S
C466 C467 1.355 . S
C466 C468 1.415 . S
C467 C466 1.355 . S
C467 C469 1.419 1_556 S
C468 C466 1.415 . S
C468 C473 1.425 . S
C468 C475 1.409 . S
C469 H461 0.930 . S
C469 C467 1.419 1_554 S
C469 C470 1.361 1_554 S
C470 H462 0.927 1_556 S
C470 C469 1.361 1_556 S
C470 C473 1.413 . S
C471 H463 0.930 . S
C471 C472 1.355 . S
C471 C473 1.415 . S
C472 C471 1.355 . S
C472 C474 1.419 . S
C473 C468 1.425 . S
C473 C470 1.413 . S
C473 C471 1.415 . S
C474 H464 0.930 . S
C474 C472 1.419 . S
C474 C475 1.362 . S
C475 H465 0.930 . S
C475 C468 1.409 . S
C475 C474 1.362 . S
H476 C482 0.930 . S
H477 C485 0.930 . S
H478 C486 0.930 . S
H479 C487 0.930 . S
H480 C490 0.930 . S
H481 C491 0.930 . S
C482 H476 0.930 . S
C482 C483 1.355 . S
C482 C484 1.415 . S
C483 C482 1.355 . S
C483 C485 1.419 . S
C484 C482 1.415 . S
C484 C489 1.425 . S
C484 C491 1.409 . S
C485 H477 0.930 . S
C485 C483 1.419 . S
C485 C486 1.362 . S
C486 H478 0.930 . S
C486 C485 1.362 . S
C486 C489 1.409 . S
C487 H479 0.930 . S
C487 C488 1.355 . S
C487 C489 1.415 . S
C488 C487 1.355 . S
C488 C490 1.419 . S
C489 C484 1.425 . S
C489 C486 1.409 . S
C489 C487 1.415 . S
C490 H480 0.930 . S
C490 C488 1.419 . S
C490 C491 1.362 . S
C491 H481 0.930 . S
C491 C484 1.409 . S
C491 C490 1.362 . S
H492 C498 0.913 1_655 S
H493 C501 0.930 . S
H494 C502 0.930 . S
H495 C503 0.930 . S
H496 C506 0.930 . S
H497 C507 0.930 . S
C498 H492 0.913 1_455 S
C498 C499 1.355 . S
C498 C500 1.415 . S
C499 C498 1.355 . S
C499 C501 1.419 . S
C500 C498 1.415 . S
C500 C505 1.425 1_554 S
C500 C507 1.409 1_454 S
C501 H493 0.930 . S
C501 C499 1.419 . S
C501 C502 1.362 . S
C502 H494 0.930 . S
C502 C501 1.362 . S
C502 C505 1.409 1_554 S
C503 H495 0.930 . S
C503 C504 1.355 . S
C503 C505 1.415 . S
C504 C503 1.355 . S
C504 C506 1.419 1_455 S
C505 C500 1.425 1_556 S
C505 C502 1.409 1_556 S
C505 C503 1.415 . S
C506 H496 0.930 . S
C506 C504 1.419 1_655 S
C506 C507 1.362 . S
C507 H497 0.930 . S
C507 C500 1.409 1_656 S
C507 C506 1.362 . S
H508 C514 0.930 . S
H509 C517 0.930 . S
H510 C518 0.930 . S
H511 C519 0.930 . S
H512 C522 0.940 . S
H513 C523 0.930 . S
C514 H508 0.930 . S
C514 C515 1.355 . S
C514 C516 1.415 . S
C515 C514 1.355 . S
C515 C517 1.419 . S
C516 C514 1.415 . S
C516 C521 1.426 . S
C516 C523 1.409 1_544 S
C517 H509 0.930 . S
C517 C515 1.419 . S
C517 C518 1.362 . S
C518 H510 0.930 . S
C518 C517 1.362 . S
C518 C521 1.414 . S
C519 H511 0.930 . S
C519 C520 1.355 . S
C519 C521 1.409 1_556 S
C520 C519 1.355 . S
C520 C522 1.409 1_545 S
C521 C516 1.426 . S
C521 C518 1.414 . S
C521 C519 1.409 1_554 S
C522 H512 0.940 . S
C522 C520 1.409 1_565 S
C522 C523 1.363 . S
C523 H513 0.930 . S
C523 C516 1.409 1_566 S
C523 C522 1.363 . S
H524 C530 0.930 1_556 S
H525 C533 0.930 . S
H526 C534 0.930 . S
H527 C535 0.930 1_554 S
H528 C538 0.930 . S
H529 C539 0.930 . S
C530 H524 0.930 1_554 S
C530 C531 1.355 . S
C530 C532 1.415 1_554 S
C531 C530 1.355 . S
C531 C533 1.419 . S
C532 C530 1.415 1_556 S
C532 C537 1.425 1_556 S
C532 C539 1.409 . S
C533 H525 0.930 . S
C533 C531 1.419 . S
C533 C534 1.362 . S
C534 H526 0.930 . S
C534 C533 1.362 . S
C534 C537 1.409 . S
C535 H527 0.930 1_556 S
C535 C536 1.355 . S
C535 C537 1.415 1_556 S
C536 C535 1.355 . S
C536 C538 1.419 . S
C537 C532 1.425 1_554 S
C537 C534 1.409 . S
C537 C535 1.415 1_554 S
C538 H528 0.930 . S
C538 C536 1.419 . S
C538 C539 1.362 . S
C539 H529 0.930 . S
C539 C532 1.409 . S
C539 C538 1.362 . S
H540 C546 0.930 . S
H541 C549 0.930 1_556 S
H542 C550 0.930 . S
H543 C551 0.930 . S
H544 C554 0.930 . S
H545 C555 0.930 . S
C546 H540 0.930 . S
C546 C547 1.355 . S
C546 C548 1.415 . S
C547 C546 1.355 . S
C547 C549 1.419 . S
C548 C546 1.415 . S
C548 C553 1.425 1_554 S
C548 C555 1.409 . S
C549 H541 0.930 1_554 S
C549 C547 1.419 . S
C549 C550 1.362 1_554 S
C550 H542 0.930 . S
C550 C549 1.362 1_556 S
C550 C553 1.409 . S
C551 H543 0.930 . S
C551 C552 1.355 . S
C551 C553 1.415 . S
C552 C551 1.355 . S
C552 C554 1.419 1_556 S
C553 C548 1.425 1_556 S
C553 C550 1.409 . S
C553 C551 1.415 . S
C554 H544 0.930 . S
C554 C552 1.419 1_554 S
C554 C555 1.362 . S
C555 H545 0.930 . S
C555 C548 1.409 . S
C555 C554 1.362 . S
H556 C562 0.930 . S
H557 C565 0.930 . S
H558 C566 0.930 . S
H559 C567 0.930 . S
H560 C570 0.914 1_455 S
H561 C571 0.930 1_455 S
C562 H556 0.930 . S
C562 C563 1.355 . S
C562 C564 1.415 . S
C563 C562 1.355 . S
C563 C565 1.419 . S
C564 C562 1.415 . S
C564 C569 1.425 . S
C564 C571 1.409 . S
C565 H557 0.930 . S
C565 C563 1.419 . S
C565 C566 1.362 . S
C566 H558 0.930 . S
C566 C565 1.362 . S
C566 C569 1.409 . S
C567 H559 0.930 . S
C567 C568 1.355 . S
C567 C569 1.415 . S
C568 C567 1.355 . S
C568 C570 1.435 . S
C569 C564 1.425 . S
C569 C566 1.409 . S
C569 C567 1.415 . S
C570 H560 0.914 1_655 S
C570 C568 1.435 . S
C570 C571 1.364 . S
C571 H561 0.930 1_655 S
C571 C564 1.409 . S
C571 C570 1.364 . S
H572 C578 0.930 . S
H573 C581 0.930 . S
H574 C582 0.930 . S
H575 C583 0.930 . S
H576 C586 0.930 1_545 S
H577 C587 0.935 . S
C578 H572 0.930 . S
C578 C579 1.355 . S
C578 C580 1.415 . S
C579 C578 1.355 . S
C579 C581 1.419 . S
C580 C578 1.415 . S
C580 C585 1.425 . S
C580 C587 1.409 . S
C581 H573 0.930 . S
C581 C579 1.419 . S
C581 C582 1.362 . S
C582 H574 0.930 . S
C582 C581 1.362 . S
C582 C585 1.409 . S
C583 H575 0.930 . S
C583 C584 1.355 . S
C583 C585 1.415 . S
C584 C583 1.355 . S
C584 C586 1.419 . S
C585 C580 1.425 . S
C585 C582 1.409 . S
C585 C583 1.415 . S
C586 H576 0.930 1_565 S
C586 C584 1.419 . S
C586 C587 1.362 . S
C587 H577 0.935 . S
C587 C580 1.409 . S
C587 C586 1.362 . S
H588 C594 0.930 . S
H589 C597 0.930 . S
H590 C598 0.930 . S
H591 C599 0.930 . S
H592 C602 0.930 . S
H593 C603 0.930 . S
C594 H588 0.930 . S
C594 C595 1.355 . S
C594 C596 1.415 . S
C595 C594 1.355 . S
C595 C597 1.419 . S
C596 C594 1.415 . S
C596 C601 1.425 . S
C596 C603 1.409 . S
C597 H589 0.930 . S
C597 C595 1.419 . S
C597 C598 1.362 . S
C598 H590 0.930 . S
C598 C597 1.362 . S
C598 C601 1.409 . S
C599 H591 0.930 . S
C599 C600 1.355 . S
C599 C601 1.415 . S
C600 C599 1.355 . S
C600 C602 1.419 . S
C601 C596 1.425 . S
C601 C598 1.409 . S
C601 C599 1.415 . S
C602 H592 0.930 . S
C602 C600 1.419 . S
C602 C603 1.362 . S
C603 H593 0.930 . S
C603 C596 1.409 . S
C603 C602 1.362 . S
H604 C610 0.930 . S
H605 C613 0.930 . S
H606 C614 0.930 . S
H607 C615 0.930 . S
H608 C618 0.930 . S
H609 C619 0.930 . S
C610 H604 0.930 . S
C610 C611 1.355 . S
C610 C612 1.415 . S
C611 C610 1.355 . S
C611 C613 1.419 . S
C612 C610 1.415 . S
C612 C617 1.425 . S
C612 C619 1.409 . S
C613 H605 0.930 . S
C613 C611 1.419 . S
C613 C614 1.362 . S
C614 H606 0.930 . S
C614 C613 1.362 . S
C614 C617 1.409 . S
C615 H607 0.930 . S
C615 C616 1.355 . S
C615 C617 1.415 . S
C616 C615 1.355 . S
C616 C618 1.419 . S
C617 C612 1.425 . S
C617 C614 1.409 . S
C617 C615 1.415 . S
C618 H608 0.930 . S
C618 C616 1.419 . S
C618 C619 1.362 . S
C619 H609 0.930 . S
C619 C612 1.409 . S
C619 C618 1.362 . S
C243 C125 1.557 . S
C248 C167 1.392 1_545 S
C264 C191 1.437 . S
C259 C144 1.513 . S
C280 C212 1.400 . S
C275 C87 1.553 . S
C296 C230 1.501 1_455 S
C291 C106 1.466 . S
C312 C170 1.322 1_565 S
C307 C49 1.475 . S
C323 C68 1.504 . S
C328 C188 1.431 . S
C339 C11 1.471 . S
C344 C209 1.369 . S
C355 C30 1.486 . S
C360 C233 1.312 1_655 S
C376 C168 0.854 1_455 S
C371 C97 0.812 . S
C392 C186 0.793 1_545 S
C387 C116 0.758 . S
C408 C207 0.769 . S
C403 C135 0.768 . S
C419 C78 0.801 . S
C424 C231 0.846 . S
C435 C21 0.975 . S
C440 C166 0.946 . S
C456 C190 0.928 . S
C451 C40 0.852 . S
C472 C211 0.893 . S
C467 C59 0.852 . S
C483 C2 0.943 . S
C488 C229 0.981 . S
C499 C101 1.591 . S
C504 C169 1.502 . S
C515 C120 1.583 . S
C520 C187 1.503 . S
C536 C208 1.564 . S
C531 C139 1.566 . S
C552 C232 1.559 . S
C547 C82 1.624 . S
C563 C25 1.444 . S
C568 C165 1.363 . S
C584 C189 1.442 . S
C579 C44 1.499 . S
C600 C210 1.411 . S
C595 C63 1.493 . S
C611 C6 1.445 . S
C616 C228 1.437 . S
