# Generated by pormake.
# Topology pyr, (3,6)-cn, num edge types: 1
# Building blocks:
#     Node 0, Type 0, BuildingBlock: VETTIZ_charged_linker_0, # of connection points: 3
#     Node 1, Type 0, BuildingBlock: VETTIZ_charged_linker_0, # of connection points: 3
#     Node 2, Type 0, BuildingBlock: VETTIZ_charged_linker_0, # of connection points: 3
#     Node 3, Type 0, BuildingBlock: VETTIZ_charged_linker_0, # of connection points: 3
#     Node 4, Type 0, BuildingBlock: VETTIZ_charged_linker_0, # of connection points: 3
#     Node 5, Type 0, BuildingBlock: VETTIZ_charged_linker_0, # of connection points: 3
#     Node 6, Type 0, BuildingBlock: VETTIZ_charged_linker_0, # of connection points: 3
#     Node 7, Type 0, BuildingBlock: VETTIZ_charged_linker_0, # of connection points: 3
#     Node 8, Type 1, BuildingBlock: PAMTUU_clean_sbu_0, # of connection points: 6
#     Node 9, Type 1, BuildingBlock: PAMTUU_clean_sbu_0, # of connection points: 6
#     Node 10, Type 1, BuildingBlock: PAMTUU_clean_sbu_0, # of connection points: 6
#     Node 11, Type 1, BuildingBlock: PAMTUU_clean_sbu_0, # of connection points: 6
#     Edge 12, Type (0, 1), BuildingBlock: OJICUG_clean_linker_0, # of connection points: 2
#     Edge 13, Type (0, 1), BuildingBlock: OJICUG_clean_linker_0, # of connection points: 2
#     Edge 14, Type (0, 1), BuildingBlock: OJICUG_clean_linker_0, # of connection points: 2
#     Edge 15, Type (0, 1), BuildingBlock: OJICUG_clean_linker_0, # of connection points: 2
#     Edge 16, Type (0, 1), BuildingBlock: OJICUG_clean_linker_0, # of connection points: 2
#     Edge 17, Type (0, 1), BuildingBlock: OJICUG_clean_linker_0, # of connection points: 2
#     Edge 18, Type (0, 1), BuildingBlock: OJICUG_clean_linker_0, # of connection points: 2
#     Edge 19, Type (0, 1), BuildingBlock: OJICUG_clean_linker_0, # of connection points: 2
#     Edge 20, Type (0, 1), BuildingBlock: OJICUG_clean_linker_0, # of connection points: 2
#     Edge 21, Type (0, 1), BuildingBlock: OJICUG_clean_linker_0, # of connection points: 2
#     Edge 22, Type (0, 1), BuildingBlock: OJICUG_clean_linker_0, # of connection points: 2
#     Edge 23, Type (0, 1), BuildingBlock: OJICUG_clean_linker_0, # of connection points: 2
#     Edge 24, Type (0, 1), BuildingBlock: OJICUG_clean_linker_0, # of connection points: 2
#     Edge 25, Type (0, 1), BuildingBlock: OJICUG_clean_linker_0, # of connection points: 2
#     Edge 26, Type (0, 1), BuildingBlock: OJICUG_clean_linker_0, # of connection points: 2
#     Edge 27, Type (0, 1), BuildingBlock: OJICUG_clean_linker_0, # of connection points: 2
#     Edge 28, Type (0, 1), BuildingBlock: OJICUG_clean_linker_0, # of connection points: 2
#     Edge 29, Type (0, 1), BuildingBlock: OJICUG_clean_linker_0, # of connection points: 2
#     Edge 30, Type (0, 1), BuildingBlock: OJICUG_clean_linker_0, # of connection points: 2
#     Edge 31, Type (0, 1), BuildingBlock: OJICUG_clean_linker_0, # of connection points: 2
#     Edge 32, Type (0, 1), BuildingBlock: OJICUG_clean_linker_0, # of connection points: 2
#     Edge 33, Type (0, 1), BuildingBlock: OJICUG_clean_linker_0, # of connection points: 2
#     Edge 34, Type (0, 1), BuildingBlock: OJICUG_clean_linker_0, # of connection points: 2
#     Edge 35, Type (0, 1), BuildingBlock: OJICUG_clean_linker_0, # of connection points: 2
# Relax obj value: 0.128
# Max RMSD: 0.142
# Mean RMSD: 0.059
data_MOF--net-pyr--node1-PAMTUU_clean_sbu_0--node2-VETTIZ_charged_linker_0--edge1-OJICUG_clean_linker_0
_symmetry_space_group_name_H-M    P1
_symmetry_Int_Tables_number       1
_symmetry_cell_setting            triclinic
loop_
_symmetry_equiv_pos_as_xyz
'x, y, z'
_cell_length_a     36.178273
_cell_length_b     36.758238
_cell_length_c     35.3642
_cell_angle_alpha  90.092235
_cell_angle_beta   89.508957
_cell_angle_gamma 101.26625
loop_
_atom_site_label
_atom_site_type_symbol
_atom_site_fract_x
_atom_site_fract_y
_atom_site_fract_z
_atom_type_partial_charge
C0 C 0.35139 0.24037 0.38371 0.0
C1 C 0.31939 0.24616 0.40397 0.0
C2 C 0.3008 0.27434 0.39179 0.0
C3 C 0.33905 0.28243 0.33484 0.0
C4 C 0.36017 0.25805 0.34882 0.0
C5 C 0.38736 0.24842 0.31978 0.0
H6 H 0.42887 0.23097 0.13655 0.0
C7 C 0.34891 0.28893 0.29448 0.0
C8 C 0.37744 0.26941 0.28548 0.0
H9 H 0.47889 0.18963 0.23438 0.0
H10 H 0.44732 0.22634 0.27512 0.0
H11 H 0.43517 0.31817 0.17064 0.0
H12 H 0.34665 0.22048 0.16955 0.0
H13 H 0.3277 0.25917 0.15652 0.0
H14 H 0.36344 0.2455 0.12721 0.0
H15 H 0.41115 0.30119 0.12801 0.0
H16 H 0.39233 0.33157 0.15987 0.0
C17 C 0.42801 0.26379 0.33346 0.0
C18 C 0.37807 0.20574 0.31383 0.0
C19 C 0.26373 0.35051 0.21419 0.0
C20 C 0.2599 0.35489 0.17507 0.0
C21 C 0.28617 0.34316 0.15042 0.0
C22 C 0.31523 0.32673 0.16465 0.0
C23 C 0.31776 0.32148 0.20391 0.0
C24 C 0.29251 0.3339 0.22785 0.0
C25 C 0.29803 0.32506 0.26854 0.0
C26 C 0.33116 0.30557 0.26537 0.0
C27 C 0.3426 0.30325 0.22749 0.0
C28 C 0.30877 0.36211 0.29041 0.0
C29 C 0.26151 0.299 0.28319 0.0
C30 C 0.43307 0.22981 0.16677 0.0
C31 C 0.45585 0.20652 0.18215 0.0
C32 C 0.46161 0.2071 0.22155 0.0
C33 C 0.44283 0.22811 0.24532 0.0
C34 C 0.41723 0.24804 0.2298 0.0
C35 C 0.41395 0.25017 0.19106 0.0
C36 C 0.38575 0.27342 0.17986 0.0
C37 C 0.37177 0.28367 0.21837 0.0
C38 C 0.38985 0.26796 0.24741 0.0
C39 C 0.40691 0.30787 0.15819 0.0
C40 C 0.3542 0.24867 0.15686 0.0
H41 H 0.29421 0.31239 0.34876 0.0
H42 H 0.36689 0.21962 0.39287 0.0
H43 H 0.34704 0.19548 0.31307 0.0
H44 H 0.3887 0.19654 0.28696 0.0
H45 H 0.38947 0.19114 0.33718 0.0
H46 H 0.42904 0.28805 0.35256 0.0
H47 H 0.43948 0.24243 0.34926 0.0
H48 H 0.44742 0.27438 0.30984 0.0
H49 H 0.24364 0.35832 0.234 0.0
H50 H 0.2841 0.3465 0.12013 0.0
H51 H 0.33414 0.31805 0.14454 0.0
H52 H 0.32877 0.38283 0.27353 0.0
H53 H 0.28347 0.37412 0.29655 0.0
H54 H 0.32345 0.35918 0.31719 0.0
H55 H 0.24331 0.28601 0.25968 0.0
H56 H 0.26746 0.27514 0.29946 0.0
H57 H 0.24419 0.31431 0.30096 0.0
H58 H 0.27623 0.2798 0.40677 0.0
C59 C 0.3108 0.29281 0.35754 0.0
C60 C 0.10916 0.85671 0.6673 0.0
C61 C 0.08122 0.87337 0.68445 0.0
C62 C 0.07288 0.86648 0.72316 0.0
C63 C 0.12342 0.83221 0.72783 0.0
C64 C 0.12946 0.83592 0.68936 0.0
C65 C 0.16018 0.81649 0.67586 0.0
H66 H 0.30883 0.73867 0.72054 0.0
C67 C 0.1517 0.81255 0.74341 0.0
C68 C 0.17268 0.80215 0.71299 0.0
H69 H 0.26912 0.75701 0.60877 0.0
H70 H 0.21507 0.77818 0.63608 0.0
H71 H 0.30213 0.80467 0.75586 0.0
H72 H 0.22325 0.7026 0.7556 0.0
H73 H 0.22384 0.7204 0.80196 0.0
H74 H 0.26703 0.71225 0.78066 0.0
H75 H 0.29997 0.77318 0.79458 0.0
H76 H 0.27377 0.8102 0.79501 0.0
C77 C 0.1917 0.84568 0.65726 0.0
C78 C 0.14255 0.78444 0.64917 0.0
C79 C 0.18529 0.82916 0.88171 0.0
C80 C 0.2174 0.82315 0.90112 0.0
C81 C 0.23776 0.79728 0.88622 0.0
C82 C 0.22952 0.78184 0.8504 0.0
C83 C 0.20124 0.79295 0.82892 0.0
C84 C 0.17817 0.81446 0.8453 0.0
C85 C 0.1504 0.82449 0.81752 0.0
C86 C 0.16283 0.80781 0.78122 0.0
C87 C 0.19289 0.78982 0.78817 0.0
C88 C 0.1564 0.8674 0.81554 0.0
C89 C 0.1101 0.80534 0.82996 0.0
C90 C 0.2884 0.74719 0.70197 0.0
C91 C 0.29332 0.7469 0.66264 0.0
C92 C 0.26586 0.75738 0.63924 0.0
C93 C 0.23468 0.76967 0.65515 0.0
C94 C 0.23099 0.77125 0.69478 0.0
C95 C 0.25716 0.75916 0.71733 0.0
C96 C 0.24891 0.76208 0.75872 0.0
C97 C 0.21351 0.77838 0.75754 0.0
C98 C 0.20328 0.7841 0.72009 0.0
C99 C 0.28279 0.78866 0.77721 0.0
C100 C 0.24052 0.72236 0.77544 0.0
H101 H 0.08663 0.84219 0.77424 0.0
H102 H 0.11631 0.86088 0.63765 0.0
H103 H 0.11266 0.77314 0.657 0.0
H104 H 0.1567 0.76043 0.65098 0.0
H105 H 0.14307 0.79399 0.61935 0.0
H106 H 0.19834 0.87098 0.6752 0.0
H107 H 0.18286 0.85409 0.62911 0.0
H108 H 0.21844 0.83595 0.65364 0.0
H109 H 0.16835 0.84792 0.89305 0.0
H110 H 0.26243 0.79163 0.90041 0.0
H111 H 0.24741 0.76413 0.83969 0.0
H112 H 0.18686 0.8797 0.81195 0.0
H113 H 0.14623 0.8789 0.84185 0.0
H114 H 0.14195 0.87768 0.79178 0.0
H115 H 0.11047 0.78149 0.84921 0.0
H116 H 0.09274 0.79329 0.80566 0.0
H117 H 0.09541 0.82494 0.84517 0.0
H118 H 0.05061 0.87751 0.73696 0.0
C119 C 0.09367 0.84584 0.74481 0.0
C120 C 0.62546 0.2614 0.93711 0.0
C121 C 0.59592 0.23513 0.92136 0.0
C122 C 0.5802 0.24521 0.88716 0.0
C123 C 0.62407 0.30531 0.88539 0.0
C124 C 0.63919 0.29531 0.91871 0.0
C125 C 0.67206 0.32391 0.93161 0.0
H126 H 0.8042 0.47827 0.9034 0.0
C127 C 0.64618 0.34281 0.87368 0.0
C128 C 0.67463 0.35306 0.90082 0.0
H129 H 0.78999 0.40098 0.9973 0.0
H130 H 0.73368 0.36755 0.97045 0.0
H131 H 0.71292 0.48309 0.90673 0.0
H132 H 0.77249 0.41987 0.83294 0.0
H133 H 0.74402 0.44472 0.80672 0.0
H134 H 0.78229 0.46974 0.83419 0.0
H135 H 0.74314 0.50483 0.8693 0.0
H136 H 0.69466 0.48315 0.86088 0.0
C137 C 0.66157 0.33895 0.97052 0.0
C138 C 0.7072 0.30542 0.93189 0.0
C139 C 0.60984 0.41291 0.75747 0.0
C140 C 0.62406 0.44848 0.74175 0.0
C141 C 0.65636 0.47 0.7588 0.0
C142 C 0.67381 0.45698 0.79024 0.0
C143 C 0.65893 0.42194 0.80595 0.0
C144 C 0.62731 0.40047 0.78961 0.0
C145 C 0.61507 0.36411 0.81074 0.0
C146 C 0.64361 0.36775 0.84289 0.0
C147 C 0.66988 0.40174 0.83964 0.0
C148 C 0.57454 0.36205 0.82578 0.0
C149 C 0.61898 0.33205 0.78368 0.0
C150 C 0.78902 0.45411 0.91819 0.0
C151 C 0.80366 0.44161 0.95207 0.0
C152 C 0.78159 0.41057 0.97039 0.0
C153 C 0.74805 0.39113 0.95485 0.0
C154 C 0.73494 0.40259 0.92047 0.0
C155 C 0.75445 0.43432 0.90316 0.0
C156 C 0.7333 0.44368 0.86855 0.0
C157 C 0.69969 0.41089 0.8668 0.0
C158 C 0.70137 0.38692 0.89736 0.0
C159 C 0.72043 0.48074 0.87637 0.0
C160 C 0.75932 0.4448 0.83357 0.0
H161 H 0.58079 0.28558 0.84344 0.0
H162 H 0.63809 0.25601 0.96361 0.0
H163 H 0.70571 0.28441 0.90897 0.0
H164 H 0.73388 0.32507 0.92629 0.0
H165 H 0.70944 0.29105 0.95913 0.0
H166 H 0.63069 0.33786 0.97304 0.0
H167 H 0.66979 0.32245 0.99419 0.0
H168 H 0.67432 0.36857 0.97473 0.0
H169 H 0.5851 0.39546 0.74555 0.0
H170 H 0.66856 0.49707 0.74744 0.0
H171 H 0.69844 0.47479 0.80122 0.0
H172 H 0.57195 0.38855 0.83981 0.0
H173 H 0.55392 0.35707 0.80233 0.0
H174 H 0.56629 0.3401 0.84714 0.0
H175 H 0.64589 0.33884 0.76739 0.0
H176 H 0.61986 0.30602 0.79879 0.0
H177 H 0.59548 0.3269 0.76313 0.0
H178 H 0.55767 0.22604 0.87365 0.0
C179 C 0.59392 0.27992 0.86932 0.0
C180 C 0.93575 0.82054 0.40225 0.0
C181 C 0.92438 0.83663 0.43599 0.0
C182 C 0.89588 0.81488 0.45828 0.0
C183 C 0.88768 0.76472 0.41261 0.0
C184 C 0.91699 0.78438 0.39121 0.0
C185 C 0.92457 0.76196 0.3567 0.0
H186 H 0.87786 0.60023 0.25357 0.0
C187 C 0.87238 0.72913 0.39332 0.0
C188 C 0.89394 0.7267 0.36047 0.0
H189 H 0.96852 0.69308 0.23075 0.0
H190 H 0.94972 0.72586 0.28493 0.0
H191 H 0.88312 0.60008 0.3479 0.0
H192 H 0.817 0.65239 0.27121 0.0
H193 H 0.78895 0.63589 0.31069 0.0
H194 H 0.80609 0.60337 0.28006 0.0
H195 H 0.84882 0.57431 0.31648 0.0
H196 H 0.83495 0.59051 0.36136 0.0
C197 C 0.96454 0.7535 0.36041 0.0
C198 C 0.91928 0.7842 0.32083 0.0
C199 C 0.75457 0.64864 0.44971 0.0
C200 C 0.72952 0.61632 0.43801 0.0
C201 C 0.73885 0.59886 0.40439 0.0
C202 C 0.77174 0.61339 0.38318 0.0
C203 C 0.7958 0.64622 0.39508 0.0
C204 C 0.78665 0.66316 0.42782 0.0
C205 C 0.81378 0.69869 0.43572 0.0
C206 C 0.84074 0.70078 0.40226 0.0
C207 C 0.83075 0.66973 0.37859 0.0
C208 C 0.83367 0.69401 0.47365 0.0
C209 C 0.79121 0.73059 0.43523 0.0
C210 C 0.89398 0.62742 0.26047 0.0
C211 C 0.92514 0.64365 0.23766 0.0
C212 C 0.94447 0.67968 0.24745 0.0
C213 C 0.93367 0.69868 0.27922 0.0
C214 C 0.90279 0.68195 0.30184 0.0
C215 C 0.88317 0.64701 0.29189 0.0
C216 C 0.84959 0.63435 0.31766 0.0
C217 C 0.85341 0.66622 0.3459 0.0
C218 C 0.88478 0.69444 0.33664 0.0
C219 C 0.85404 0.59774 0.33688 0.0
C220 C 0.81336 0.63098 0.29387 0.0
H221 H 0.85593 0.76547 0.46532 0.0
H222 H 0.95802 0.83587 0.3846 0.0
H223 H 0.89323 0.79589 0.32329 0.0
H224 H 0.91593 0.76692 0.2951 0.0
H225 H 0.94348 0.80764 0.3166 0.0
H226 H 0.96932 0.74475 0.38977 0.0
H227 H 0.98635 0.77847 0.35376 0.0
H228 H 0.96917 0.7305 0.3421 0.0
H229 H 0.74954 0.66282 0.47551 0.0
H230 H 0.72038 0.57428 0.39381 0.0
H231 H 0.777 0.59872 0.35804 0.0
H232 H 0.83563 0.66454 0.47859 0.0
H233 H 0.81813 0.70301 0.49804 0.0
H234 H 0.86327 0.70917 0.4741 0.0
H235 H 0.76788 0.72488 0.41443 0.0
H236 H 0.80822 0.75746 0.42613 0.0
H237 H 0.77847 0.73404 0.46337 0.0
H238 H 0.8874 0.82514 0.48507 0.0
C239 C 0.87763 0.77962 0.44686 0.0
C240 C 0.75518 0.72622 0.91966 0.0
C241 C 0.78092 0.70901 0.89957 0.0
C242 C 0.77801 0.70607 0.85989 0.0
C243 C 0.72802 0.74099 0.86051 0.0
C244 C 0.72865 0.74162 0.89951 0.0
C245 C 0.69938 0.76157 0.91566 0.0
H246 H 0.57415 0.87336 0.88476 0.0
C247 C 0.70005 0.7623 0.84765 0.0
C248 C 0.68197 0.77339 0.8797 0.0
H249 H 0.6105 0.83723 0.99191 0.0
H250 H 0.64564 0.79658 0.95963 0.0
H251 H 0.56532 0.7891 0.83842 0.0
H252 H 0.64143 0.89208 0.85049 0.0
H253 H 0.65969 0.87387 0.81023 0.0
H254 H 0.6126 0.88333 0.80951 0.0
H255 H 0.55986 0.83354 0.82075 0.0
H256 H 0.5837 0.80359 0.79324 0.0
C257 C 0.6707 0.73349 0.93903 0.0
C258 C 0.72014 0.79526 0.9386 0.0
C259 C 0.71338 0.81685 0.71636 0.0
C260 C 0.69697 0.8445 0.69968 0.0
C261 C 0.66268 0.85125 0.71466 0.0
C262 C 0.64786 0.83438 0.74846 0.0
C263 C 0.66781 0.811 0.76763 0.0
C264 C 0.6986 0.80071 0.75046 0.0
C265 C 0.71634 0.77568 0.77515 0.0
C266 C 0.69318 0.77568 0.8113 0.0
C267 C 0.66518 0.79684 0.8068 0.0
C268 C 0.71041 0.73673 0.75651 0.0
C269 C 0.75833 0.79404 0.78089 0.0
C270 C 0.58874 0.85579 0.90123 0.0
C271 C 0.58953 0.85825 0.94078 0.0
C272 C 0.60967 0.83576 0.96131 0.0
C273 C 0.63021 0.81242 0.94252 0.0
C274 C 0.63138 0.81228 0.90278 0.0
C275 C 0.61026 0.83322 0.88285 0.0
C276 C 0.61698 0.83208 0.84094 0.0
C277 C 0.64554 0.80683 0.83891 0.0
C278 C 0.65389 0.79524 0.87521 0.0
C279 C 0.57951 0.81382 0.82206 0.0
C280 C 0.63333 0.87221 0.82684 0.0
H281 H 0.75113 0.71908 0.81026 0.0
H282 H 0.75605 0.72815 0.95022 0.0
H283 H 0.74636 0.80897 0.92366 0.0
H284 H 0.70355 0.81719 0.94231 0.0
H285 H 0.72823 0.78651 0.9669 0.0
H286 H 0.66598 0.70549 0.9258 0.0
H287 H 0.68097 0.73082 0.96821 0.0
H288 H 0.64252 0.7408 0.94038 0.0
H289 H 0.73949 0.8107 0.70538 0.0
H290 H 0.64875 0.87154 0.70166 0.0
H291 H 0.62277 0.84192 0.75958 0.0
H292 H 0.6889 0.73337 0.73381 0.0
H293 H 0.73692 0.73145 0.74349 0.0
H294 H 0.6997 0.71431 0.7771 0.0
H295 H 0.76094 0.82372 0.78884 0.0
H296 H 0.77214 0.78121 0.80346 0.0
H297 H 0.77498 0.7927 0.75458 0.0
H298 H 0.7974 0.69316 0.84356 0.0
C299 C 0.75143 0.72153 0.84041 0.0
C300 C 0.93196 0.23093 0.43779 0.0
C301 C 0.9569 0.2099 0.42202 0.0
C302 C 0.96565 0.21337 0.38315 0.0
C303 C 0.9195 0.25235 0.37533 0.0
C304 C 0.91383 0.25219 0.41397 0.0
C305 C 0.88482 0.27456 0.42542 0.0
H306 H 0.74415 0.36001 0.37222 0.0
C307 C 0.89256 0.27244 0.35783 0.0
C308 C 0.87295 0.28672 0.38705 0.0
H309 H 0.78037 0.34384 0.48607 0.0
H310 H 0.83204 0.31746 0.46133 0.0
H311 H 0.74411 0.29128 0.34355 0.0
H312 H 0.83098 0.38685 0.33452 0.0
H313 H 0.82697 0.36478 0.28997 0.0
H314 H 0.7863 0.37875 0.31102 0.0
H315 H 0.74942 0.31813 0.30118 0.0
H316 H 0.77133 0.27836 0.30655 0.0
C317 C 0.85217 0.24841 0.44614 0.0
C318 C 0.90447 0.30792 0.44941 0.0
C319 C 0.85391 0.24352 0.22248 0.0
C320 C 0.82202 0.24968 0.20278 0.0
C321 C 0.80457 0.27893 0.21459 0.0
C322 C 0.81533 0.29803 0.2482 0.0
C323 C 0.84297 0.28708 0.27073 0.0
C324 C 0.86339 0.26188 0.25685 0.0
C325 C 0.89086 0.25275 0.28545 0.0
C326 C 0.88105 0.27432 0.31971 0.0
C327 C 0.85265 0.29391 0.31088 0.0
C328 C 0.88185 0.21023 0.29225 0.0
C329 C 0.93149 0.26772 0.2708 0.0
C330 C 0.76368 0.35171 0.39197 0.0
C331 C 0.75818 0.35419 0.43116 0.0
C332 C 0.78377 0.34194 0.45572 0.0
C333 C 0.81377 0.32672 0.44129 0.0
C334 C 0.81788 0.32317 0.40191 0.0
C335 C 0.7933 0.33612 0.37809 0.0
C336 C 0.80043 0.32884 0.3372 0.0
C337 C 0.83384 0.30971 0.34017 0.0
C338 C 0.84391 0.30625 0.37809 0.0
C339 C 0.76466 0.30304 0.32106 0.0
C340 C 0.81155 0.36669 0.31679 0.0
H341 H 0.95392 0.23544 0.33016 0.0
H342 H 0.92551 0.22955 0.46778 0.0
H343 H 0.93395 0.31808 0.43948 0.0
H344 H 0.89075 0.33216 0.44704 0.0
H345 H 0.90556 0.30013 0.47965 0.0
H346 H 0.84521 0.22115 0.43146 0.0
H347 H 0.85999 0.24321 0.47567 0.0
H348 H 0.8257 0.25897 0.44676 0.0
H349 H 0.8688 0.2222 0.21325 0.0
H350 H 0.78028 0.28488 0.19994 0.0
H351 H 0.79976 0.31866 0.25673 0.0
H352 H 0.85114 0.20049 0.29751 0.0
H353 H 0.88995 0.1951 0.26727 0.0
H354 H 0.89625 0.20134 0.3168 0.0
H355 H 0.93224 0.28921 0.24853 0.0
H356 H 0.95008 0.28171 0.29343 0.0
H357 H 0.94421 0.24519 0.25842 0.0
H358 H 0.98496 0.19772 0.3704 0.0
C359 C 0.9473 0.23483 0.35978 0.0
C360 C 0.42967 0.65689 0.34168 0.0
C361 C 0.41431 0.62215 0.3588 0.0
C362 C 0.38053 0.60181 0.34324 0.0
C363 C 0.3788 0.64925 0.29518 0.0
C364 C 0.41164 0.66975 0.31014 0.0
C365 C 0.42425 0.7058 0.28856 0.0
H366 H 0.39346 0.82013 0.14323 0.0
C367 C 0.36712 0.66995 0.26221 0.0
C368 C 0.394 0.70341 0.25816 0.0
H369 H 0.48454 0.84188 0.22338 0.0
H370 H 0.46082 0.78246 0.25374 0.0
H371 H 0.32957 0.78973 0.20274 0.0
H372 H 0.39777 0.73819 0.12812 0.0
H373 H 0.35383 0.70798 0.1289 0.0
H374 H 0.35731 0.75489 0.11193 0.0
H375 H 0.32206 0.78605 0.1527 0.0
H376 H 0.2994 0.75043 0.18492 0.0
C377 C 0.42357 0.73838 0.316 0.0
C378 C 0.46351 0.70586 0.27108 0.0
C379 C 0.24609 0.61804 0.18652 0.0
C380 C 0.22932 0.63204 0.15484 0.0
C381 C 0.24874 0.66528 0.13825 0.0
C382 C 0.28256 0.68488 0.15311 0.0
C383 C 0.29826 0.67153 0.18521 0.0
C384 C 0.28057 0.63833 0.20121 0.0
C385 C 0.30277 0.6286 0.23482 0.0
C386 C 0.33598 0.66173 0.23649 0.0
C387 C 0.33273 0.68674 0.20725 0.0
C388 C 0.27737 0.62644 0.27042 0.0
C389 C 0.31602 0.59204 0.22559 0.0
C390 C 0.40828 0.8127 0.16763 0.0
C391 C 0.44093 0.8366 0.18075 0.0
C392 C 0.45945 0.8244 0.21215 0.0
C393 C 0.44547 0.7898 0.23001 0.0
C394 C 0.41248 0.76652 0.21652 0.0
C395 C 0.3948 0.77846 0.18564 0.0
C396 C 0.36042 0.75093 0.17426 0.0
C397 C 0.35966 0.72045 0.2034 0.0
C398 C 0.39021 0.72918 0.22847 0.0
C399 C 0.32593 0.77005 0.17849 0.0
C400 C 0.36728 0.73733 0.13364 0.0
H401 H 0.33742 0.59786 0.30205 0.0
H402 H 0.45553 0.67359 0.35216 0.0
H403 H 0.46427 0.67859 0.25773 0.0
H404 H 0.47097 0.72672 0.2485 0.0
H405 H 0.48569 0.71105 0.29305 0.0
H406 H 0.39725 0.73316 0.33332 0.0
H407 H 0.44785 0.74201 0.3356 0.0
H408 H 0.42394 0.76482 0.30119 0.0
H409 H 0.23238 0.59248 0.2 0.0
H410 H 0.23775 0.67643 0.11334 0.0
H411 H 0.29499 0.71005 0.1389 0.0
H412 H 0.26165 0.64961 0.27066 0.0
H413 H 0.25638 0.59998 0.27116 0.0
H414 H 0.29349 0.62924 0.29694 0.0
H415 H 0.32548 0.59182 0.19559 0.0
H416 H 0.34051 0.58827 0.24242 0.0
H417 H 0.29279 0.56771 0.22991 0.0
H418 H 0.36702 0.57563 0.35563 0.0
C419 C 0.36297 0.61497 0.31196 0.0
C420 C 0.0972 0.25756 0.69805 0.0
C421 C 0.11078 0.23909 0.66707 0.0
C422 C 0.14347 0.25754 0.648 0.0
C423 C 0.14951 0.31029 0.69057 0.0
C424 C 0.11721 0.29307 0.70944 0.0
C425 C 0.10814 0.31696 0.74213 0.0
H426 H 0.15673 0.47705 0.84688 0.0
C427 C 0.16434 0.34648 0.70912 0.0
C428 C 0.14038 0.35093 0.7396 0.0
H429 H 0.06016 0.38829 0.86318 0.0
H430 H 0.07952 0.35554 0.80967 0.0
H431 H 0.1511 0.47873 0.75328 0.0
H432 H 0.2168 0.42356 0.82771 0.0
H433 H 0.24559 0.44463 0.79029 0.0
H434 H 0.22547 0.47317 0.82297 0.0
H435 H 0.18822 0.50395 0.782 0.0
H436 H 0.19799 0.48542 0.73662 0.0
C437 C 0.06949 0.32729 0.73456 0.0
C438 C 0.10948 0.29517 0.77924 0.0
C439 C 0.28507 0.4249 0.65605 0.0
C440 C 0.3081 0.45894 0.66618 0.0
C441 C 0.29641 0.47844 0.69723 0.0
C442 C 0.26311 0.46402 0.71784 0.0
C443 C 0.24084 0.42958 0.70754 0.0
C444 C 0.25217 0.41088 0.67694 0.0
C445 C 0.22589 0.37463 0.66975 0.0
C446 C 0.19674 0.37426 0.701 0.0
C447 C 0.20529 0.4065 0.72328 0.0
C448 C 0.20856 0.37666 0.62998 0.0
C449 C 0.2485 0.34313 0.67472 0.0
C450 C 0.13946 0.45074 0.83888 0.0
C451 C 0.1068 0.43552 0.86019 0.0
C452 C 0.08578 0.40078 0.84832 0.0
C453 C 0.09693 0.3817 0.81685 0.0
C454 C 0.12971 0.39708 0.79628 0.0
C455 C 0.15032 0.4312 0.8074 0.0
C456 C 0.1845 0.44339 0.7823 0.0
C457 C 0.18105 0.41128 0.75434 0.0
C458 C 0.14873 0.38384 0.76256 0.0
C459 C 0.18063 0.47994 0.76254 0.0
C460 C 0.22014 0.44668 0.80691 0.0
H461 H 0.18723 0.30444 0.64329 0.0
H462 H 0.07214 0.24443 0.71343 0.0
H463 H 0.13438 0.28156 0.77923 0.0
H464 H 0.11245 0.31309 0.8045 0.0
H465 H 0.08382 0.27318 0.78261 0.0
H466 H 0.06729 0.335 0.70438 0.0
H467 H 0.04614 0.30354 0.74086 0.0
H468 H 0.06499 0.35159 0.75101 0.0
H469 H 0.29232 0.40922 0.6321 0.0
H470 H 0.31344 0.50455 0.70617 0.0
H471 H 0.25611 0.48011 0.74126 0.0
H472 H 0.2049 0.40535 0.62347 0.0
H473 H 0.22693 0.36834 0.60755 0.0
H474 H 0.17994 0.35956 0.62757 0.0
H475 H 0.27126 0.35082 0.69592 0.0
H476 H 0.23114 0.3172 0.68586 0.0
H477 H 0.262 0.33711 0.64771 0.0
H478 H 0.15427 0.2449 0.62365 0.0
C479 C 0.16264 0.29257 0.65941 0.0
Tb480 Tb 0.05683 0.04118 0.53196 0.0
Tb481 Tb 0.9739 1.03616 0.57152 0.0
C482 C 0.98661 0.97888 0.50753 0.0
C483 C 0.155 0.07725 0.50012 0.0
C484 C 0.21778 0.1341 0.48555 0.0
C485 C 0.22245 0.09747 0.49177 0.0
C486 C 0.19127 0.06927 0.49886 0.0
C487 C 0.15031 0.11404 0.49615 0.0
C488 C 0.18144 0.14224 0.48877 0.0
C489 C 0.12242 0.04691 0.50518 0.0
O490 O 0.03678 0.08966 0.51185 0.0
O491 O 0.97432 0.06432 0.51779 0.0
O492 O 1.00623 0.08997 0.58944 0.0
O493 O 0.06518 0.07666 0.58254 0.0
O494 O 0.91698 1.03829 0.56372 0.0
O495 O 0.9386 1.03226 0.61948 0.0
O496 O 1.00547 1.00557 0.60812 0.0
O497 O 0.04526 0.98967 0.56312 0.0
O498 O 0.01848 1.00089 0.49713 0.0
O499 O 0.96828 0.98504 0.53858 0.0
C500 C 1.00144 0.09024 0.50479 0.0
O501 O 0.11341 1.03772 0.54013 0.0
O502 O 0.09288 0.04855 0.48473 0.0
C503 C 0.04262 0.09783 0.59611 0.0
C504 C 0.87536 1.0037 0.60715 0.0
C505 C 0.81033 0.94991 0.62317 0.0
C506 C 0.80737 0.98622 0.61309 0.0
C507 C 0.83963 1.01286 0.60526 0.0
C508 C 0.87853 0.9672 0.61572 0.0
C509 C 0.84625 0.94053 0.62382 0.0
C510 C 0.90867 1.03254 0.5993 0.0
C511 C 0.02851 0.98445 0.59611 0.0
H512 H 0.25011 0.0904 0.49007 0.0
H513 H 0.19538 0.04107 0.5025 0.0
H514 H 0.12247 0.12077 0.49759 0.0
H515 H 0.17673 0.17002 0.48372 0.0
H516 H 0.78014 0.9942 0.61179 0.0
H517 H 0.8367 0.0408 0.59807 0.0
H518 H 0.90593 0.95951 0.61677 0.0
H519 H 0.8496 0.91297 0.63192 0.0
Tb520 Tb 0.5614 0.04143 0.06993 0.0
Tb521 Tb 0.4776 1.02909 1.03142 0.0
C522 C 0.53656 0.98226 1.00736 0.0
C523 C 0.65859 0.07992 0.10465 0.0
C524 C 0.71939 0.13715 0.1233 0.0
C525 C 0.72536 0.10121 0.11549 0.0
C526 C 0.69517 0.07285 0.10631 0.0
C527 C 0.65251 0.11598 0.11093 0.0
C528 C 0.68273 0.14441 0.12029 0.0
C529 C 0.62746 0.04938 0.09553 0.0
O530 O 0.56316 0.09142 1.03607 0.0
O531 O 0.51407 0.07067 0.99541 0.0
O532 O 0.48346 0.08005 0.0631 0.0
O533 O 0.53015 0.07414 0.10494 0.0
O534 O 0.44253 1.01764 0.98424 0.0
O535 O 0.42019 1.02987 1.03884 0.0
O536 O 0.47054 0.99378 0.08223 0.0
O537 O 0.53172 0.98766 0.09181 0.0
O538 O 0.56226 1.01053 1.01787 0.0
O539 O 0.5008 0.98135 1.01418 0.0
C540 C 0.54428 0.09534 1.00511 0.0
O541 O 0.59732 0.04558 0.1168 0.0
O542 O 0.61924 0.04564 0.05985 0.0
C543 C 0.50234 0.08988 0.09409 0.0
C544 C 0.3801 0.98822 0.9999 0.0
C545 C 0.3174 0.93119 0.98637 0.0
C546 C 0.31242 0.96712 0.9958 0.0
C547 C 0.34354 0.99539 1.00236 0.0
C548 C 0.38523 0.95197 0.99277 0.0
C549 C 0.35411 0.92369 0.98593 0.0
C550 C 0.41228 1.01909 1.00422 0.0
C551 C 0.49527 0.97636 0.09772 0.0
H552 H 0.75331 0.09487 0.11709 0.0
H553 H 0.70034 0.04524 0.10091 0.0
H554 H 0.6244 0.12194 0.10924 0.0
H555 H 0.67714 0.17169 0.12656 0.0
H556 H 0.28451 0.97367 0.9969 0.0
H557 H 0.33909 1.02313 1.00843 0.0
H558 H 0.41328 0.94577 0.9913 0.0
H559 H 0.35902 0.89646 0.97836 0.0
Tb560 Tb 0.5153 0.49647 0.53012 0.0
Tb561 Tb 0.52122 0.57605 0.57283 0.0
C562 C 0.48301 0.5622 0.49144 0.0
C563 C 0.54868 0.41765 0.48987 0.0
C564 C 0.61711 0.39454 0.47414 0.0
C565 C 0.59276 0.39968 0.44468 0.0
C566 C 0.55881 0.41099 0.4525 0.0
C567 C 0.57232 0.41108 0.51948 0.0
C568 C 0.6061 0.3994 0.51167 0.0
C569 C 0.5164 0.43594 0.49709 0.0
O570 O 0.56713 0.5306 0.50813 0.0
O571 O 0.57816 0.57947 0.54999 0.0
O572 O 0.54205 0.54061 0.61481 0.0
O573 O 0.55308 0.49246 0.57766 0.0
O574 O 0.53401 0.63435 0.57251 0.0
O575 O 0.51161 0.6043 0.62253 0.0
O576 O 0.46211 0.54824 0.57831 0.0
O577 O 0.46831 0.48799 0.57025 0.0
O578 O 0.47899 0.52601 0.49665 0.0
O579 O 0.50265 0.58571 0.51535 0.0
C580 C 0.58876 0.56071 0.52145 0.0
O581 O 0.50601 0.43824 0.53223 0.0
O582 O 0.51782 0.46719 0.47933 0.0
C583 C 0.55549 0.50993 0.6104 0.0
C584 C 0.4895 0.65853 0.60917 0.0
C585 C 0.42758 0.694 0.61945 0.0
C586 C 0.4542 0.69416 0.64835 0.0
C587 C 0.48487 0.67669 0.64318 0.0
C588 C 0.46347 0.65874 0.57995 0.0
C589 C 0.43293 0.67651 0.58495 0.0
C590 C 0.51926 0.63652 0.60597 0.0
C591 C 0.44922 0.51252 0.5828 0.0
H592 H 0.60034 0.39559 0.41549 0.0
H593 H 0.54116 0.41599 0.42922 0.0
H594 H 0.56552 0.4163 0.54862 0.0
H595 H 0.62439 0.39578 0.53488 0.0
H596 H 0.45069 0.70661 0.67558 0.0
H597 H 0.50434 0.67634 0.66624 0.0
H598 H 0.46625 0.64448 0.55354 0.0
H599 H 0.41332 0.67616 0.56194 0.0
Tb600 Tb 0.01974 0.57595 1.027 0.0
Tb601 Tb 1.01634 0.50016 0.07563 0.0
C602 C 0.05236 0.50878 0.99274 0.0
C603 C 0.98484 0.65 0.9787 0.0
C604 C 0.91683 0.67056 0.95739 0.0
C605 C 0.94202 0.66203 0.92982 0.0
C606 C 0.97578 0.65203 0.94037 0.0
C607 C 0.96026 0.65985 1.00629 0.0
C608 C 0.92667 0.67029 0.99568 0.0
C609 C 1.01745 0.63358 0.98934 0.0
O610 O 0.9682 0.53924 1.0079 0.0
O611 O 0.95893 0.49357 0.05351 0.0
O612 O 0.99563 0.53809 0.1151 0.0
O613 O 0.98157 0.58176 0.07415 0.0
O614 O 1.00785 0.44196 0.07888 0.0
O615 O 0.02494 0.47583 0.12772 0.0
O616 O 0.07514 0.52964 0.07867 0.0
O617 O 0.06671 0.58851 0.06656 0.0
O618 O 0.05671 0.54516 0.99556 0.0
O619 O 0.03305 0.487 1.01843 0.0
C620 C 0.94745 0.50965 1.02361 0.0
O621 O 0.02586 0.63399 1.0251 0.0
O622 O 0.01835 0.60151 0.97407 0.0
C623 C 0.98083 0.56745 0.10834 0.0
C624 C 0.05405 0.42495 0.11865 0.0
C625 C 0.12205 0.40089 0.13268 0.0
C626 C 0.09649 0.40336 0.16232 0.0
C627 C 0.06275 0.41517 0.15533 0.0
C628 C 0.07906 0.42149 0.08875 0.0
C629 C 0.11263 0.40923 0.09568 0.0
C630 C 0.0215 0.44294 0.11291 0.0
C631 C 0.08679 0.56576 0.08092 0.0
H632 H 0.93535 0.66259 0.90005 0.0
H633 H 0.9942 0.64456 0.9186 0.0
H634 H 0.96627 0.65832 1.03614 0.0
H635 H 0.9077 0.67671 1.01746 0.0
H636 H 0.1029 0.39668 0.19105 0.0
H637 H 0.04405 0.41792 0.17881 0.0
H638 H 0.07332 0.42944 0.06023 0.0
H639 H 0.13193 0.40776 0.07239 0.0
C640 C 0.27881 0.22751 0.46178 0.0
C641 C 0.30043 0.21787 0.43146 0.0
H642 H 0.236 0.20842 0.5034 0.0
C643 C 0.29848 0.18006 0.42332 0.0
H644 H 0.28003 0.25632 0.46915 0.0
C645 C 0.27343 0.15282 0.44281 0.0
C646 C 0.24955 0.16257 0.47096 0.0
H647 H 0.314 0.17138 0.39975 0.0
H648 H 0.27083 0.1243 0.43369 0.0
C649 C 0.25355 0.2001 0.48131 0.0
C650 C 0.25731 0.83865 0.95924 0.0
C651 C 0.2349 0.84964 0.93073 0.0
H652 H 0.30088 0.85596 0.99988 0.0
C653 C 0.23541 0.88772 0.92585 0.0
H654 H 0.2571 0.80955 0.96425 0.0
C655 C 0.26029 0.91412 0.94621 0.0
C656 C 0.28537 0.9032 0.97196 0.0
H657 H 0.21913 0.89751 0.90386 0.0
H658 H 0.26195 0.9431 0.93931 0.0
C659 C 0.28244 0.8652 0.97958 0.0
C660 C 0.59355 0.44183 0.67612 0.0
C661 C 0.60573 0.46373 0.70817 0.0
H662 H 0.5693 0.43893 0.62046 0.0
C663 C 0.60117 0.50105 0.7074 0.0
H664 H 0.59667 0.41314 0.6752 0.0
C665 C 0.585 0.51581 0.67609 0.0
C666 C 0.57334 0.49413 0.6438 0.0
H667 H 0.60977 0.51896 0.73139 0.0
H668 H 0.5819 0.54451 0.67715 0.0
C669 C 0.57805 0.45683 0.64442 0.0
C670 C 0.94735 0.64177 0.16919 0.0
C671 C 0.9376 0.62343 0.20394 0.0
H672 H 0.96754 0.63873 0.11212 0.0
C673 C 0.94084 0.58587 0.20631 0.0
H674 H 0.94502 0.67053 0.16596 0.0
C675 C 0.95437 0.56766 0.17543 0.0
C676 C 0.96431 0.58609 0.14074 0.0
H677 H 0.93388 0.57075 0.23249 0.0
H678 H 0.95719 0.53906 0.17883 0.0
C679 C 0.96008 0.62335 0.13808 0.0
C680 C 0.5044 0.16788 0.16532 0.0
C681 C 0.46978 0.17863 0.15812 0.0
H682 H 0.54192 0.13122 0.15099 0.0
C683 C 0.44669 0.16019 0.12949 0.0
H684 H 0.52307 0.18169 0.18694 0.0
C685 C 0.45759 0.13169 0.10888 0.0
C686 C 0.49177 0.12044 0.11645 0.0
H687 H 0.41944 0.16687 0.12369 0.0
H688 H 0.43865 0.11796 0.0874 0.0
C689 C 0.51522 0.13896 0.14478 0.0
C690 C 0.05354 0.93118 0.68027 0.0
C691 C 0.06269 0.89953 0.66272 0.0
H692 H 0.03484 0.98268 0.67297 0.0
C693 C 0.05653 0.89468 0.62366 0.0
H694 H 0.05831 0.93629 0.71015 0.0
C695 C 0.0441 0.92182 0.60238 0.0
C696 C 0.03662 0.95402 0.61973 0.0
H697 H 0.06207 0.87029 0.60923 0.0
H698 H 0.04096 0.91789 0.57212 0.0
C699 C 0.04024 0.95796 0.65901 0.0
C700 C 0.85663 0.49788 0.96502 0.0
C701 C 0.84126 0.45972 0.96915 0.0
H702 H 0.90167 0.54352 0.97872 0.0
C703 C 0.86194 0.43858 0.99114 0.0
H704 H 0.84203 0.51548 0.94869 0.0
C705 C 0.89542 0.45493 1.0094 0.0
C706 C 0.9105 0.49294 1.00555 0.0
H707 H 0.85263 0.40892 0.99416 0.0
H708 H 0.91005 0.43743 1.0259 0.0
C709 C 0.89085 0.51413 0.98265 0.0
C710 C 0.67709 0.56362 0.46046 0.0
C711 C 0.69381 0.60168 0.46036 0.0
H712 H 0.63139 0.52101 0.47952 0.0
C713 C 0.6758 0.62575 0.48188 0.0
H714 H 0.68998 0.54376 0.44516 0.0
C715 C 0.64266 0.61236 0.50267 0.0
C716 C 0.62577 0.57455 0.50203 0.0
H717 H 0.68665 0.65533 0.48214 0.0
H718 H 0.62958 0.63192 0.51829 0.0
C719 C 0.64348 0.55038 0.48062 0.0
C720 C 0.20622 0.35321 0.12973 0.0
C721 C 0.22723 0.36974 0.16074 0.0
H722 H 0.1562 0.35 0.0966 0.0
C723 C 0.21469 0.39843 0.18036 0.0
H724 H 0.21489 0.33083 0.11421 0.0
C725 C 0.18093 0.40885 0.17071 0.0
C726 C 0.15908 0.3912 0.14089 0.0
H727 H 0.2306 0.41235 0.20382 0.0
H728 H 0.1717 0.43057 0.18685 0.0
C729 C 0.17251 0.36398 0.11979 0.0
C730 C 0.54495 0.17796 0.93797 0.0
C731 C 0.58251 0.1978 0.94066 0.0
H732 H 0.50349 0.13038 0.9555 0.0
C733 C 0.60732 0.18187 0.96314 0.0
H734 H 0.52458 0.18887 0.92141 0.0
C735 C 0.5949 0.14879 0.98337 0.0
C736 C 0.55735 0.12949 0.98132 0.0
H737 H 0.63676 0.19483 0.96531 0.0
H738 H 0.61501 0.13825 1.00071 0.0
C739 C 0.53268 0.14425 0.95775 0.0
C740 C 0.9174 0.89658 0.46786 0.0
C741 C 0.94083 0.87555 0.4492 0.0
H742 H 0.91324 0.94458 0.50081 0.0
C743 C 0.97965 0.89103 0.44666 0.0
H744 H 0.88722 0.88659 0.46951 0.0
C745 C 0.99461 0.92538 0.4641 0.0
C746 C 0.97117 0.94486 0.48485 0.0
H747 H 0.9987 0.87592 0.43265 0.0
H748 H 0.02472 0.93584 0.46278 0.0
C749 C 0.93231 0.9302 0.48575 0.0
C750 C 0.36319 0.75484 0.65935 0.0
C751 C 0.32772 0.7364 0.6469 0.0
H752 H 0.42259 0.7569 0.65931 0.0
C753 C 0.32542 0.70597 0.62248 0.0
H754 H 0.3656 0.77863 0.67796 0.0
C755 C 0.358 0.69288 0.61242 0.0
C756 C 0.3935 0.71032 0.62628 0.0
H757 H 0.29827 0.6912 0.61278 0.0
H758 H 0.35506 0.66808 0.59526 0.0
C759 C 0.39574 0.74217 0.64891 0.0
C760 C 0.74385 0.85927 0.64616 0.0
C761 C 0.71967 0.8711 0.67287 0.0
H762 H 0.79132 0.87501 0.60892 0.0
C763 C 0.72242 0.90936 0.67881 0.0
H764 H 0.74213 0.83001 0.64059 0.0
C765 C 0.75056 0.93499 0.6609 0.0
C766 C 0.77665 0.92304 0.63653 0.0
H767 H 0.70483 0.91957 0.69964 0.0
H768 H 0.75341 0.96399 0.66832 0.0
C769 C 0.77212 0.885 0.6282 0.0
C770 C 0.78029 0.23067 0.14645 0.0
C771 C 0.80208 0.22112 0.17628 0.0
H772 H 0.7371 0.21148 0.10588 0.0
C773 C 0.79957 0.18336 0.18494 0.0
H774 H 0.78188 0.25942 0.13868 0.0
C775 C 0.77417 0.15611 0.16617 0.0
C776 C 0.75045 0.16582 0.13831 0.0
H777 H 0.81513 0.17476 0.20821 0.0
H778 H 0.7714 0.12761 0.17537 0.0
C779 C 0.75458 0.20327 0.12774 0.0
C780 C 0.42999 0.56827 0.39788 0.0
C781 C 0.43265 0.6069 0.39258 0.0
H782 H 0.44309 0.5241 0.43211 0.0
C783 C 0.45233 0.63042 0.42047 0.0
H784 H 0.41592 0.5488 0.37716 0.0
C785 C 0.46826 0.61601 0.45222 0.0
C786 C 0.46531 0.57741 0.45754 0.0
H787 H 0.45494 0.66018 0.41826 0.0
H788 H 0.48286 0.63537 0.47278 0.0
C789 C 0.44589 0.55387 0.42962 0.0
C790 C 0.09903 0.49412 0.89668 0.0
C791 C 0.09459 0.45508 0.8947 0.0
H792 H 0.08946 0.54167 0.92839 0.0
C793 C 0.07758 0.43456 0.9261 0.0
H794 H 0.11168 0.51117 0.87325 0.0
C795 C 0.06477 0.45208 0.95767 0.0
C796 C 0.0684 0.49097 0.95939 0.0
H797 H 0.07423 0.40465 0.92654 0.0
H798 H 0.05168 0.43481 0.98078 0.0
C799 C 0.0861 0.51175 0.92843 0.0
C800 C 0.59795 0.91347 0.98279 0.0
C801 C 0.57423 0.88806 0.9598 0.0
H802 H 0.60479 0.96336 1.01512 0.0
C803 C 0.53754 0.89353 0.95256 0.0
H804 H 0.62654 0.91022 0.98832 0.0
C805 C 0.52483 0.92398 0.96822 0.0
C806 C 0.54904 0.9499 0.99042 0.0
H807 H 0.51885 0.87436 0.93468 0.0
H808 H 0.49643 0.92762 0.96239 0.0
C809 C 0.58562 0.94418 0.99767 0.0
C810 C 0.94332 0.15652 0.46652 0.0
C811 C 0.96974 0.18098 0.44477 0.0
H812 H 0.93249 0.10869 0.50192 0.0
C813 C 1.00717 0.17562 0.44286 0.0
H814 H 0.91414 0.15953 0.468 0.0
C815 C 1.01787 0.14626 0.4625 0.0
C816 C 0.9911 0.12143 0.48369 0.0
H817 H 0.02807 0.19408 0.4262 0.0
H818 H 0.04687 0.14274 0.4607 0.0
C819 C 0.9538 0.12705 0.48557 0.0
C820 C 0.16667 0.63578 0.12541 0.0
C821 C 0.1917 0.61369 0.13859 0.0
H822 H 0.11529 0.63857 0.09709 0.0
C823 C 0.18116 0.57497 0.13364 0.0
H824 H 0.17298 0.66557 0.12933 0.0
C825 C 0.14731 0.55919 0.11502 0.0
C826 C 0.12305 0.58168 0.10082 0.0
H827 H 0.19954 0.55694 0.1432 0.0
H828 H 0.14038 0.52937 0.11141 0.0
C829 C 0.13324 0.62017 0.10679 0.0
C830 C 0.35715 0.51141 0.63787 0.0
C831 C 0.34428 0.47324 0.64481 0.0
H832 H 0.39973 0.55378 0.61283 0.0
C833 C 0.36631 0.44844 0.63076 0.0
H834 H 0.34099 0.53147 0.64778 0.0
C835 C 0.39975 0.46119 0.61036 0.0
C836 C 0.41261 0.49927 0.60336 0.0
H837 H 0.35808 0.41894 0.636 0.0
H838 H 0.41575 0.441 0.60043 0.0
C839 C 0.3908 0.52423 0.61746 0.0
C840 C 0.82425 0.66397 0.90661 0.0
C841 C 0.81252 0.69637 0.9188 0.0
H842 H 0.86641 0.63055 0.9093 0.0
C843 C 0.83377 0.7186 0.94646 0.0
H844 H 0.80811 0.64581 0.88596 0.0
C845 C 0.86712 0.70964 0.96004 0.0
C846 C 0.87989 0.67848 0.94599 0.0
H847 H 0.82569 0.7439 0.95621 0.0
H848 H 0.88374 0.72795 0.98026 0.0
C849 C 0.85765 0.65525 0.91989 0.0
C850 C 0.42986 0.89431 0.14603 0.0
C851 C 0.4552 0.8736 0.16139 0.0
H852 H 0.42211 0.94217 0.11458 0.0
C853 C 0.49406 0.88815 0.1568 0.0
H854 H 0.39975 0.8848 0.14933 0.0
C855 C 0.50698 0.92155 0.13686 0.0
C856 C 0.48156 0.94177 0.12089 0.0
H857 H 0.51467 0.87322 0.16771 0.0
H858 H 0.53708 0.9312 0.13349 0.0
C859 C 0.44276 0.92765 0.12618 0.0
C860 C 0.05279 0.19111 0.64844 0.0
C861 C 0.09204 0.20102 0.65354 0.0
H862 H 1.00641 0.15126 0.62632 0.0
C863 C 0.1142 0.17527 0.64207 0.0
H864 H 0.03478 0.21015 0.65663 0.0
C865 C 0.09808 0.14167 0.62454 0.0
C866 C 0.05909 0.13237 0.61787 0.0
H867 H 0.14444 0.18145 0.64598 0.0
H868 H 0.1165 0.12333 0.61545 0.0
C869 C 0.03656 0.15732 0.63077 0.0
C870 C 0.70227 0.34839 0.47507 0.0
C871 C 0.72436 0.36728 0.44559 0.0
H872 H 0.6507 0.34197 0.50701 0.0
C873 C 0.71193 0.39666 0.42744 0.0
H874 H 0.71085 0.32538 0.48935 0.0
C875 C 0.67739 0.4057 0.43713 0.0
C876 C 0.65458 0.38583 0.46546 0.0
H877 H 0.72863 0.41226 0.40514 0.0
H878 H 0.66838 0.42817 0.42227 0.0
C879 C 0.66773 0.35768 0.485 0.0
loop_
_geom_bond_atom_site_label_1
_geom_bond_atom_site_label_2
_geom_bond_distance
_geom_bond_site_symmetry_2
_ccdc_geom_bond_type
C0 C1 1.391 . S
C0 C4 1.391 . S
C0 H42 0.948 . S
C1 C0 1.391 . S
C1 C2 1.391 . S
C2 C1 1.391 . S
C2 H58 0.947 . S
C2 C59 1.392 . S
C3 C4 1.391 . S
C3 C7 1.397 . S
C3 C59 1.419 . S
C4 C0 1.391 . S
C4 C3 1.391 . S
C4 C5 1.399 . S
C5 C4 1.399 . S
C5 C8 1.396 . S
C5 C17 1.453 . S
C5 C18 1.684 . S
H6 C30 0.948 . S
C7 C3 1.397 . S
C7 C8 1.394 . S
C7 C26 1.723 . S
C8 C5 1.396 . S
C8 C7 1.394 . S
C8 C38 1.723 . S
H9 C32 0.947 . S
H10 C33 0.948 . S
H11 C39 0.982 . S
H12 C40 0.979 . S
H13 C40 0.980 . S
H14 C40 0.983 . S
H15 C39 0.979 . S
H16 C39 0.977 . S
C17 C5 1.453 . S
C17 H46 0.982 . S
C17 H47 0.979 . S
C17 H48 0.977 . S
C18 C5 1.684 . S
C18 H43 0.979 . S
C18 H44 0.980 . S
C18 H45 0.983 . S
C19 C20 1.391 . S
C19 C24 1.391 . S
C19 H49 0.948 . S
C20 C19 1.391 . S
C20 C21 1.391 . S
C21 C20 1.391 . S
C21 C22 1.392 . S
C21 H50 0.947 . S
C22 C21 1.392 . S
C22 C23 1.419 . S
C22 H51 0.948 . S
C23 C22 1.419 . S
C23 C24 1.391 . S
C23 C27 1.397 . S
C24 C19 1.391 . S
C24 C23 1.391 . S
C24 C25 1.399 . S
C25 C24 1.399 . S
C25 C26 1.396 . S
C25 C28 1.453 . S
C25 C29 1.684 . S
C26 C7 1.723 . S
C26 C25 1.396 . S
C26 C27 1.394 . S
C27 C23 1.397 . S
C27 C26 1.394 . S
C27 C37 1.723 . S
C28 C25 1.453 . S
C28 H52 0.982 . S
C28 H53 0.979 . S
C28 H54 0.977 . S
C29 C25 1.684 . S
C29 H55 0.979 . S
C29 H56 0.980 . S
C29 H57 0.983 . S
C30 H6 0.948 . S
C30 C31 1.391 . S
C30 C35 1.391 . S
C31 C30 1.391 . S
C31 C32 1.391 . S
C32 H9 0.947 . S
C32 C31 1.391 . S
C32 C33 1.392 . S
C33 H10 0.948 . S
C33 C32 1.392 . S
C33 C34 1.419 . S
C34 C33 1.419 . S
C34 C35 1.391 . S
C34 C38 1.397 . S
C35 C30 1.391 . S
C35 C34 1.391 . S
C35 C36 1.399 . S
C36 C35 1.399 . S
C36 C37 1.396 . S
C36 C39 1.453 . S
C36 C40 1.684 . S
C37 C27 1.723 . S
C37 C36 1.396 . S
C37 C38 1.394 . S
C38 C8 1.723 . S
C38 C34 1.397 . S
C38 C37 1.394 . S
C39 H11 0.982 . S
C39 H15 0.979 . S
C39 H16 0.977 . S
C39 C36 1.453 . S
C40 H12 0.979 . S
C40 H13 0.980 . S
C40 H14 0.983 . S
C40 C36 1.684 . S
H41 C59 0.948 . S
H42 C0 0.948 . S
H43 C18 0.979 . S
H44 C18 0.980 . S
H45 C18 0.983 . S
H46 C17 0.982 . S
H47 C17 0.979 . S
H48 C17 0.977 . S
H49 C19 0.948 . S
H50 C21 0.947 . S
H51 C22 0.948 . S
H52 C28 0.982 . S
H53 C28 0.979 . S
H54 C28 0.977 . S
H55 C29 0.979 . S
H56 C29 0.980 . S
H57 C29 0.983 . S
H58 C2 0.947 . S
C59 C2 1.392 . S
C59 C3 1.419 . S
C59 H41 0.948 . S
C60 C61 1.391 . S
C60 C64 1.391 . S
C60 H102 0.948 . S
C61 C60 1.391 . S
C61 C62 1.391 . S
C62 C61 1.391 . S
C62 H118 0.947 . S
C62 C119 1.392 . S
C63 C64 1.391 . S
C63 C67 1.397 . S
C63 C119 1.419 . S
C64 C60 1.391 . S
C64 C63 1.391 . S
C64 C65 1.399 . S
C65 C64 1.399 . S
C65 C68 1.396 . S
C65 C77 1.453 . S
C65 C78 1.684 . S
H66 C90 0.948 . S
C67 C63 1.397 . S
C67 C68 1.394 . S
C67 C86 1.723 . S
C68 C65 1.396 . S
C68 C67 1.394 . S
C68 C98 1.723 . S
H69 C92 0.947 . S
H70 C93 0.948 . S
H71 C99 0.982 . S
H72 C100 0.979 . S
H73 C100 0.980 . S
H74 C100 0.983 . S
H75 C99 0.979 . S
H76 C99 0.977 . S
C77 C65 1.453 . S
C77 H106 0.982 . S
C77 H107 0.979 . S
C77 H108 0.977 . S
C78 C65 1.684 . S
C78 H103 0.979 . S
C78 H104 0.980 . S
C78 H105 0.983 . S
C79 C80 1.391 . S
C79 C84 1.391 . S
C79 H109 0.948 . S
C80 C79 1.391 . S
C80 C81 1.391 . S
C81 C80 1.391 . S
C81 C82 1.392 . S
C81 H110 0.947 . S
C82 C81 1.392 . S
C82 C83 1.419 . S
C82 H111 0.948 . S
C83 C82 1.419 . S
C83 C84 1.391 . S
C83 C87 1.397 . S
C84 C79 1.391 . S
C84 C83 1.391 . S
C84 C85 1.399 . S
C85 C84 1.399 . S
C85 C86 1.396 . S
C85 C88 1.453 . S
C85 C89 1.684 . S
C86 C67 1.723 . S
C86 C85 1.396 . S
C86 C87 1.394 . S
C87 C83 1.397 . S
C87 C86 1.394 . S
C87 C97 1.723 . S
C88 C85 1.453 . S
C88 H112 0.982 . S
C88 H113 0.979 . S
C88 H114 0.977 . S
C89 C85 1.684 . S
C89 H115 0.979 . S
C89 H116 0.980 . S
C89 H117 0.983 . S
C90 H66 0.948 . S
C90 C91 1.391 . S
C90 C95 1.391 . S
C91 C90 1.391 . S
C91 C92 1.391 . S
C92 H69 0.947 . S
C92 C91 1.391 . S
C92 C93 1.392 . S
C93 H70 0.948 . S
C93 C92 1.392 . S
C93 C94 1.419 . S
C94 C93 1.419 . S
C94 C95 1.391 . S
C94 C98 1.397 . S
C95 C90 1.391 . S
C95 C94 1.391 . S
C95 C96 1.399 . S
C96 C95 1.399 . S
C96 C97 1.396 . S
C96 C99 1.453 . S
C96 C100 1.684 . S
C97 C87 1.723 . S
C97 C96 1.396 . S
C97 C98 1.394 . S
C98 C68 1.723 . S
C98 C94 1.397 . S
C98 C97 1.394 . S
C99 H71 0.982 . S
C99 H75 0.979 . S
C99 H76 0.977 . S
C99 C96 1.453 . S
C100 H72 0.979 . S
C100 H73 0.980 . S
C100 H74 0.983 . S
C100 C96 1.684 . S
H101 C119 0.948 . S
H102 C60 0.948 . S
H103 C78 0.979 . S
H104 C78 0.980 . S
H105 C78 0.983 . S
H106 C77 0.982 . S
H107 C77 0.979 . S
H108 C77 0.977 . S
H109 C79 0.948 . S
H110 C81 0.947 . S
H111 C82 0.948 . S
H112 C88 0.982 . S
H113 C88 0.979 . S
H114 C88 0.977 . S
H115 C89 0.979 . S
H116 C89 0.980 . S
H117 C89 0.983 . S
H118 C62 0.947 . S
C119 C62 1.392 . S
C119 C63 1.419 . S
C119 H101 0.948 . S
C120 C121 1.391 . S
C120 C124 1.391 . S
C120 H162 0.948 . S
C121 C120 1.391 . S
C121 C122 1.391 . S
C122 C121 1.391 . S
C122 H178 0.947 . S
C122 C179 1.392 . S
C123 C124 1.391 . S
C123 C127 1.397 . S
C123 C179 1.419 . S
C124 C120 1.391 . S
C124 C123 1.391 . S
C124 C125 1.399 . S
C125 C124 1.399 . S
C125 C128 1.396 . S
C125 C137 1.453 . S
C125 C138 1.684 . S
H126 C150 0.948 . S
C127 C123 1.397 . S
C127 C128 1.394 . S
C127 C146 1.723 . S
C128 C125 1.396 . S
C128 C127 1.394 . S
C128 C158 1.723 . S
H129 C152 0.947 . S
H130 C153 0.948 . S
H131 C159 0.982 . S
H132 C160 0.979 . S
H133 C160 0.980 . S
H134 C160 0.983 . S
H135 C159 0.979 . S
H136 C159 0.977 . S
C137 C125 1.453 . S
C137 H166 0.982 . S
C137 H167 0.979 . S
C137 H168 0.977 . S
C138 C125 1.684 . S
C138 H163 0.979 . S
C138 H164 0.980 . S
C138 H165 0.983 . S
C139 C140 1.391 . S
C139 C144 1.391 . S
C139 H169 0.948 . S
C140 C139 1.391 . S
C140 C141 1.391 . S
C141 C140 1.391 . S
C141 C142 1.392 . S
C141 H170 0.947 . S
C142 C141 1.392 . S
C142 C143 1.419 . S
C142 H171 0.948 . S
C143 C142 1.419 . S
C143 C144 1.391 . S
C143 C147 1.397 . S
C144 C139 1.391 . S
C144 C143 1.391 . S
C144 C145 1.399 . S
C145 C144 1.399 . S
C145 C146 1.396 . S
C145 C148 1.453 . S
C145 C149 1.684 . S
C146 C127 1.723 . S
C146 C145 1.396 . S
C146 C147 1.394 . S
C147 C143 1.397 . S
C147 C146 1.394 . S
C147 C157 1.723 . S
C148 C145 1.453 . S
C148 H172 0.982 . S
C148 H173 0.979 . S
C148 H174 0.977 . S
C149 C145 1.684 . S
C149 H175 0.979 . S
C149 H176 0.980 . S
C149 H177 0.983 . S
C150 H126 0.948 . S
C150 C151 1.391 . S
C150 C155 1.391 . S
C151 C150 1.391 . S
C151 C152 1.391 . S
C152 H129 0.947 . S
C152 C151 1.391 . S
C152 C153 1.392 . S
C153 H130 0.948 . S
C153 C152 1.392 . S
C153 C154 1.419 . S
C154 C153 1.419 . S
C154 C155 1.391 . S
C154 C158 1.397 . S
C155 C150 1.391 . S
C155 C154 1.391 . S
C155 C156 1.399 . S
C156 C155 1.399 . S
C156 C157 1.396 . S
C156 C159 1.453 . S
C156 C160 1.684 . S
C157 C147 1.723 . S
C157 C156 1.396 . S
C157 C158 1.394 . S
C158 C128 1.723 . S
C158 C154 1.397 . S
C158 C157 1.394 . S
C159 H131 0.982 . S
C159 H135 0.979 . S
C159 H136 0.977 . S
C159 C156 1.453 . S
C160 H132 0.979 . S
C160 H133 0.980 . S
C160 H134 0.983 . S
C160 C156 1.684 . S
H161 C179 0.948 . S
H162 C120 0.948 . S
H163 C138 0.979 . S
H164 C138 0.980 . S
H165 C138 0.983 . S
H166 C137 0.982 . S
H167 C137 0.979 . S
H168 C137 0.977 . S
H169 C139 0.948 . S
H170 C141 0.947 . S
H171 C142 0.948 . S
H172 C148 0.982 . S
H173 C148 0.979 . S
H174 C148 0.977 . S
H175 C149 0.979 . S
H176 C149 0.980 . S
H177 C149 0.983 . S
H178 C122 0.947 . S
C179 C122 1.392 . S
C179 C123 1.419 . S
C179 H161 0.948 . S
C180 C181 1.391 . S
C180 C184 1.391 . S
C180 H222 0.948 . S
C181 C180 1.391 . S
C181 C182 1.391 . S
C182 C181 1.391 . S
C182 H238 0.947 . S
C182 C239 1.392 . S
C183 C184 1.391 . S
C183 C187 1.397 . S
C183 C239 1.419 . S
C184 C180 1.391 . S
C184 C183 1.391 . S
C184 C185 1.399 . S
C185 C184 1.399 . S
C185 C188 1.396 . S
C185 C197 1.453 . S
C185 C198 1.684 . S
H186 C210 0.948 . S
C187 C183 1.397 . S
C187 C188 1.394 . S
C187 C206 1.723 . S
C188 C185 1.396 . S
C188 C187 1.394 . S
C188 C218 1.723 . S
H189 C212 0.947 . S
H190 C213 0.948 . S
H191 C219 0.982 . S
H192 C220 0.979 . S
H193 C220 0.980 . S
H194 C220 0.983 . S
H195 C219 0.979 . S
H196 C219 0.977 . S
C197 C185 1.453 . S
C197 H226 0.982 . S
C197 H227 0.979 . S
C197 H228 0.977 . S
C198 C185 1.684 . S
C198 H223 0.979 . S
C198 H224 0.980 . S
C198 H225 0.983 . S
C199 C200 1.391 . S
C199 C204 1.391 . S
C199 H229 0.948 . S
C200 C199 1.391 . S
C200 C201 1.391 . S
C201 C200 1.391 . S
C201 C202 1.392 . S
C201 H230 0.947 . S
C202 C201 1.392 . S
C202 C203 1.419 . S
C202 H231 0.948 . S
C203 C202 1.419 . S
C203 C204 1.391 . S
C203 C207 1.397 . S
C204 C199 1.391 . S
C204 C203 1.391 . S
C204 C205 1.399 . S
C205 C204 1.399 . S
C205 C206 1.396 . S
C205 C208 1.453 . S
C205 C209 1.684 . S
C206 C187 1.723 . S
C206 C205 1.396 . S
C206 C207 1.394 . S
C207 C203 1.397 . S
C207 C206 1.394 . S
C207 C217 1.723 . S
C208 C205 1.453 . S
C208 H232 0.982 . S
C208 H233 0.979 . S
C208 H234 0.977 . S
C209 C205 1.684 . S
C209 H235 0.979 . S
C209 H236 0.980 . S
C209 H237 0.983 . S
C210 H186 0.948 . S
C210 C211 1.391 . S
C210 C215 1.391 . S
C211 C210 1.391 . S
C211 C212 1.391 . S
C212 H189 0.947 . S
C212 C211 1.391 . S
C212 C213 1.392 . S
C213 H190 0.948 . S
C213 C212 1.392 . S
C213 C214 1.419 . S
C214 C213 1.419 . S
C214 C215 1.391 . S
C214 C218 1.397 . S
C215 C210 1.391 . S
C215 C214 1.391 . S
C215 C216 1.399 . S
C216 C215 1.399 . S
C216 C217 1.396 . S
C216 C219 1.453 . S
C216 C220 1.684 . S
C217 C207 1.723 . S
C217 C216 1.396 . S
C217 C218 1.394 . S
C218 C188 1.723 . S
C218 C214 1.397 . S
C218 C217 1.394 . S
C219 H191 0.982 . S
C219 H195 0.979 . S
C219 H196 0.977 . S
C219 C216 1.453 . S
C220 H192 0.979 . S
C220 H193 0.980 . S
C220 H194 0.983 . S
C220 C216 1.684 . S
H221 C239 0.948 . S
H222 C180 0.948 . S
H223 C198 0.979 . S
H224 C198 0.980 . S
H225 C198 0.983 . S
H226 C197 0.982 . S
H227 C197 0.979 . S
H228 C197 0.977 . S
H229 C199 0.948 . S
H230 C201 0.947 . S
H231 C202 0.948 . S
H232 C208 0.982 . S
H233 C208 0.979 . S
H234 C208 0.977 . S
H235 C209 0.979 . S
H236 C209 0.980 . S
H237 C209 0.983 . S
H238 C182 0.947 . S
C239 C182 1.392 . S
C239 C183 1.419 . S
C239 H221 0.948 . S
C240 C241 1.391 . S
C240 C244 1.391 . S
C240 H282 0.948 . S
C241 C240 1.391 . S
C241 C242 1.391 . S
C242 C241 1.391 . S
C242 H298 0.947 . S
C242 C299 1.392 . S
C243 C244 1.391 . S
C243 C247 1.397 . S
C243 C299 1.419 . S
C244 C240 1.391 . S
C244 C243 1.391 . S
C244 C245 1.399 . S
C245 C244 1.399 . S
C245 C248 1.396 . S
C245 C257 1.453 . S
C245 C258 1.684 . S
H246 C270 0.948 . S
C247 C243 1.397 . S
C247 C248 1.394 . S
C247 C266 1.723 . S
C248 C245 1.396 . S
C248 C247 1.394 . S
C248 C278 1.723 . S
H249 C272 0.947 . S
H250 C273 0.948 . S
H251 C279 0.982 . S
H252 C280 0.979 . S
H253 C280 0.980 . S
H254 C280 0.983 . S
H255 C279 0.979 . S
H256 C279 0.977 . S
C257 C245 1.453 . S
C257 H286 0.982 . S
C257 H287 0.979 . S
C257 H288 0.977 . S
C258 C245 1.684 . S
C258 H283 0.979 . S
C258 H284 0.980 . S
C258 H285 0.983 . S
C259 C260 1.391 . S
C259 C264 1.391 . S
C259 H289 0.948 . S
C260 C259 1.391 . S
C260 C261 1.391 . S
C261 C260 1.391 . S
C261 C262 1.392 . S
C261 H290 0.947 . S
C262 C261 1.392 . S
C262 C263 1.419 . S
C262 H291 0.948 . S
C263 C262 1.419 . S
C263 C264 1.391 . S
C263 C267 1.397 . S
C264 C259 1.391 . S
C264 C263 1.391 . S
C264 C265 1.399 . S
C265 C264 1.399 . S
C265 C266 1.396 . S
C265 C268 1.453 . S
C265 C269 1.684 . S
C266 C247 1.723 . S
C266 C265 1.396 . S
C266 C267 1.394 . S
C267 C263 1.397 . S
C267 C266 1.394 . S
C267 C277 1.723 . S
C268 C265 1.453 . S
C268 H292 0.982 . S
C268 H293 0.979 . S
C268 H294 0.977 . S
C269 C265 1.684 . S
C269 H295 0.979 . S
C269 H296 0.980 . S
C269 H297 0.983 . S
C270 H246 0.948 . S
C270 C271 1.391 . S
C270 C275 1.391 . S
C271 C270 1.391 . S
C271 C272 1.391 . S
C272 H249 0.947 . S
C272 C271 1.391 . S
C272 C273 1.392 . S
C273 H250 0.948 . S
C273 C272 1.392 . S
C273 C274 1.419 . S
C274 C273 1.419 . S
C274 C275 1.391 . S
C274 C278 1.397 . S
C275 C270 1.391 . S
C275 C274 1.391 . S
C275 C276 1.399 . S
C276 C275 1.399 . S
C276 C277 1.396 . S
C276 C279 1.453 . S
C276 C280 1.684 . S
C277 C267 1.723 . S
C277 C276 1.396 . S
C277 C278 1.394 . S
C278 C248 1.723 . S
C278 C274 1.397 . S
C278 C277 1.394 . S
C279 H251 0.982 . S
C279 H255 0.979 . S
C279 H256 0.977 . S
C279 C276 1.453 . S
C280 H252 0.979 . S
C280 H253 0.980 . S
C280 H254 0.983 . S
C280 C276 1.684 . S
H281 C299 0.948 . S
H282 C240 0.948 . S
H283 C258 0.979 . S
H284 C258 0.980 . S
H285 C258 0.983 . S
H286 C257 0.982 . S
H287 C257 0.979 . S
H288 C257 0.977 . S
H289 C259 0.948 . S
H290 C261 0.947 . S
H291 C262 0.948 . S
H292 C268 0.982 . S
H293 C268 0.979 . S
H294 C268 0.977 . S
H295 C269 0.979 . S
H296 C269 0.980 . S
H297 C269 0.983 . S
H298 C242 0.947 . S
C299 C242 1.392 . S
C299 C243 1.419 . S
C299 H281 0.948 . S
C300 C301 1.391 . S
C300 C304 1.391 . S
C300 H342 0.948 . S
C301 C300 1.391 . S
C301 C302 1.391 . S
C302 C301 1.391 . S
C302 H358 0.947 . S
C302 C359 1.392 . S
C303 C304 1.391 . S
C303 C307 1.397 . S
C303 C359 1.419 . S
C304 C300 1.391 . S
C304 C303 1.391 . S
C304 C305 1.399 . S
C305 C304 1.399 . S
C305 C308 1.396 . S
C305 C317 1.453 . S
C305 C318 1.684 . S
H306 C330 0.948 . S
C307 C303 1.397 . S
C307 C308 1.394 . S
C307 C326 1.723 . S
C308 C305 1.396 . S
C308 C307 1.394 . S
C308 C338 1.723 . S
H309 C332 0.947 . S
H310 C333 0.948 . S
H311 C339 0.982 . S
H312 C340 0.979 . S
H313 C340 0.980 . S
H314 C340 0.983 . S
H315 C339 0.979 . S
H316 C339 0.977 . S
C317 C305 1.453 . S
C317 H346 0.982 . S
C317 H347 0.979 . S
C317 H348 0.977 . S
C318 C305 1.684 . S
C318 H343 0.979 . S
C318 H344 0.980 . S
C318 H345 0.983 . S
C319 C320 1.391 . S
C319 C324 1.391 . S
C319 H349 0.948 . S
C320 C319 1.391 . S
C320 C321 1.391 . S
C321 C320 1.391 . S
C321 C322 1.392 . S
C321 H350 0.947 . S
C322 C321 1.392 . S
C322 C323 1.419 . S
C322 H351 0.948 . S
C323 C322 1.419 . S
C323 C324 1.391 . S
C323 C327 1.397 . S
C324 C319 1.391 . S
C324 C323 1.391 . S
C324 C325 1.399 . S
C325 C324 1.399 . S
C325 C326 1.396 . S
C325 C328 1.453 . S
C325 C329 1.684 . S
C326 C307 1.723 . S
C326 C325 1.396 . S
C326 C327 1.394 . S
C327 C323 1.397 . S
C327 C326 1.394 . S
C327 C337 1.723 . S
C328 C325 1.453 . S
C328 H352 0.982 . S
C328 H353 0.979 . S
C328 H354 0.977 . S
C329 C325 1.684 . S
C329 H355 0.979 . S
C329 H356 0.980 . S
C329 H357 0.983 . S
C330 H306 0.948 . S
C330 C331 1.391 . S
C330 C335 1.391 . S
C331 C330 1.391 . S
C331 C332 1.391 . S
C332 H309 0.947 . S
C332 C331 1.391 . S
C332 C333 1.392 . S
C333 H310 0.948 . S
C333 C332 1.392 . S
C333 C334 1.419 . S
C334 C333 1.419 . S
C334 C335 1.391 . S
C334 C338 1.397 . S
C335 C330 1.391 . S
C335 C334 1.391 . S
C335 C336 1.399 . S
C336 C335 1.399 . S
C336 C337 1.396 . S
C336 C339 1.453 . S
C336 C340 1.684 . S
C337 C327 1.723 . S
C337 C336 1.396 . S
C337 C338 1.394 . S
C338 C308 1.723 . S
C338 C334 1.397 . S
C338 C337 1.394 . S
C339 H311 0.982 . S
C339 H315 0.979 . S
C339 H316 0.977 . S
C339 C336 1.453 . S
C340 H312 0.979 . S
C340 H313 0.980 . S
C340 H314 0.983 . S
C340 C336 1.684 . S
H341 C359 0.948 . S
H342 C300 0.948 . S
H343 C318 0.979 . S
H344 C318 0.980 . S
H345 C318 0.983 . S
H346 C317 0.982 . S
H347 C317 0.979 . S
H348 C317 0.977 . S
H349 C319 0.948 . S
H350 C321 0.947 . S
H351 C322 0.948 . S
H352 C328 0.982 . S
H353 C328 0.979 . S
H354 C328 0.977 . S
H355 C329 0.979 . S
H356 C329 0.980 . S
H357 C329 0.983 . S
H358 C302 0.947 . S
C359 C302 1.392 . S
C359 C303 1.419 . S
C359 H341 0.948 . S
C360 C361 1.391 . S
C360 C364 1.391 . S
C360 H402 0.948 . S
C361 C360 1.391 . S
C361 C362 1.391 . S
C362 C361 1.391 . S
C362 H418 0.947 . S
C362 C419 1.392 . S
C363 C364 1.391 . S
C363 C367 1.397 . S
C363 C419 1.419 . S
C364 C360 1.391 . S
C364 C363 1.391 . S
C364 C365 1.399 . S
C365 C364 1.399 . S
C365 C368 1.396 . S
C365 C377 1.453 . S
C365 C378 1.684 . S
H366 C390 0.948 . S
C367 C363 1.397 . S
C367 C368 1.394 . S
C367 C386 1.723 . S
C368 C365 1.396 . S
C368 C367 1.394 . S
C368 C398 1.723 . S
H369 C392 0.947 . S
H370 C393 0.948 . S
H371 C399 0.982 . S
H372 C400 0.979 . S
H373 C400 0.980 . S
H374 C400 0.983 . S
H375 C399 0.979 . S
H376 C399 0.977 . S
C377 C365 1.453 . S
C377 H406 0.982 . S
C377 H407 0.979 . S
C377 H408 0.977 . S
C378 C365 1.684 . S
C378 H403 0.979 . S
C378 H404 0.980 . S
C378 H405 0.983 . S
C379 C380 1.391 . S
C379 C384 1.391 . S
C379 H409 0.948 . S
C380 C379 1.391 . S
C380 C381 1.391 . S
C381 C380 1.391 . S
C381 C382 1.392 . S
C381 H410 0.947 . S
C382 C381 1.392 . S
C382 C383 1.419 . S
C382 H411 0.948 . S
C383 C382 1.419 . S
C383 C384 1.391 . S
C383 C387 1.397 . S
C384 C379 1.391 . S
C384 C383 1.391 . S
C384 C385 1.399 . S
C385 C384 1.399 . S
C385 C386 1.396 . S
C385 C388 1.453 . S
C385 C389 1.684 . S
C386 C367 1.723 . S
C386 C385 1.396 . S
C386 C387 1.394 . S
C387 C383 1.397 . S
C387 C386 1.394 . S
C387 C397 1.723 . S
C388 C385 1.453 . S
C388 H412 0.982 . S
C388 H413 0.979 . S
C388 H414 0.977 . S
C389 C385 1.684 . S
C389 H415 0.979 . S
C389 H416 0.980 . S
C389 H417 0.983 . S
C390 H366 0.948 . S
C390 C391 1.391 . S
C390 C395 1.391 . S
C391 C390 1.391 . S
C391 C392 1.391 . S
C392 H369 0.947 . S
C392 C391 1.391 . S
C392 C393 1.392 . S
C393 H370 0.948 . S
C393 C392 1.392 . S
C393 C394 1.419 . S
C394 C393 1.419 . S
C394 C395 1.391 . S
C394 C398 1.397 . S
C395 C390 1.391 . S
C395 C394 1.391 . S
C395 C396 1.399 . S
C396 C395 1.399 . S
C396 C397 1.396 . S
C396 C399 1.453 . S
C396 C400 1.684 . S
C397 C387 1.723 . S
C397 C396 1.396 . S
C397 C398 1.394 . S
C398 C368 1.723 . S
C398 C394 1.397 . S
C398 C397 1.394 . S
C399 H371 0.982 . S
C399 H375 0.979 . S
C399 H376 0.977 . S
C399 C396 1.453 . S
C400 H372 0.979 . S
C400 H373 0.980 . S
C400 H374 0.983 . S
C400 C396 1.684 . S
H401 C419 0.948 . S
H402 C360 0.948 . S
H403 C378 0.979 . S
H404 C378 0.980 . S
H405 C378 0.983 . S
H406 C377 0.982 . S
H407 C377 0.979 . S
H408 C377 0.977 . S
H409 C379 0.948 . S
H410 C381 0.947 . S
H411 C382 0.948 . S
H412 C388 0.982 . S
H413 C388 0.979 . S
H414 C388 0.977 . S
H415 C389 0.979 . S
H416 C389 0.980 . S
H417 C389 0.983 . S
H418 C362 0.947 . S
C419 C362 1.392 . S
C419 C363 1.419 . S
C419 H401 0.948 . S
C420 C421 1.391 . S
C420 C424 1.391 . S
C420 H462 0.948 . S
C421 C420 1.391 . S
C421 C422 1.391 . S
C422 C421 1.391 . S
C422 H478 0.947 . S
C422 C479 1.392 . S
C423 C424 1.391 . S
C423 C427 1.397 . S
C423 C479 1.419 . S
C424 C420 1.391 . S
C424 C423 1.391 . S
C424 C425 1.399 . S
C425 C424 1.399 . S
C425 C428 1.396 . S
C425 C437 1.453 . S
C425 C438 1.684 . S
H426 C450 0.948 . S
C427 C423 1.397 . S
C427 C428 1.394 . S
C427 C446 1.723 . S
C428 C425 1.396 . S
C428 C427 1.394 . S
C428 C458 1.723 . S
H429 C452 0.947 . S
H430 C453 0.948 . S
H431 C459 0.982 . S
H432 C460 0.979 . S
H433 C460 0.980 . S
H434 C460 0.983 . S
H435 C459 0.979 . S
H436 C459 0.977 . S
C437 C425 1.453 . S
C437 H466 0.982 . S
C437 H467 0.979 . S
C437 H468 0.977 . S
C438 C425 1.684 . S
C438 H463 0.979 . S
C438 H464 0.980 . S
C438 H465 0.983 . S
C439 C440 1.391 . S
C439 C444 1.391 . S
C439 H469 0.948 . S
C440 C439 1.391 . S
C440 C441 1.391 . S
C441 C440 1.391 . S
C441 C442 1.392 . S
C441 H470 0.947 . S
C442 C441 1.392 . S
C442 C443 1.419 . S
C442 H471 0.948 . S
C443 C442 1.419 . S
C443 C444 1.391 . S
C443 C447 1.397 . S
C444 C439 1.391 . S
C444 C443 1.391 . S
C444 C445 1.399 . S
C445 C444 1.399 . S
C445 C446 1.396 . S
C445 C448 1.453 . S
C445 C449 1.684 . S
C446 C427 1.723 . S
C446 C445 1.396 . S
C446 C447 1.394 . S
C447 C443 1.397 . S
C447 C446 1.394 . S
C447 C457 1.723 . S
C448 C445 1.453 . S
C448 H472 0.982 . S
C448 H473 0.979 . S
C448 H474 0.977 . S
C449 C445 1.684 . S
C449 H475 0.979 . S
C449 H476 0.980 . S
C449 H477 0.983 . S
C450 H426 0.948 . S
C450 C451 1.391 . S
C450 C455 1.391 . S
C451 C450 1.391 . S
C451 C452 1.391 . S
C452 H429 0.947 . S
C452 C451 1.391 . S
C452 C453 1.392 . S
C453 H430 0.948 . S
C453 C452 1.392 . S
C453 C454 1.419 . S
C454 C453 1.419 . S
C454 C455 1.391 . S
C454 C458 1.397 . S
C455 C450 1.391 . S
C455 C454 1.391 . S
C455 C456 1.399 . S
C456 C455 1.399 . S
C456 C457 1.396 . S
C456 C459 1.453 . S
C456 C460 1.684 . S
C457 C447 1.723 . S
C457 C456 1.396 . S
C457 C458 1.394 . S
C458 C428 1.723 . S
C458 C454 1.397 . S
C458 C457 1.394 . S
C459 H431 0.982 . S
C459 H435 0.979 . S
C459 H436 0.977 . S
C459 C456 1.453 . S
C460 H432 0.979 . S
C460 H433 0.980 . S
C460 H434 0.983 . S
C460 C456 1.684 . S
H461 C479 0.948 . S
H462 C420 0.948 . S
H463 C438 0.979 . S
H464 C438 0.980 . S
H465 C438 0.983 . S
H466 C437 0.982 . S
H467 C437 0.979 . S
H468 C437 0.977 . S
H469 C439 0.948 . S
H470 C441 0.947 . S
H471 C442 0.948 . S
H472 C448 0.982 . S
H473 C448 0.979 . S
H474 C448 0.977 . S
H475 C449 0.979 . S
H476 C449 0.980 . S
H477 C449 0.983 . S
H478 C422 0.947 . S
C479 C422 1.392 . S
C479 C423 1.419 . S
C479 H461 0.948 . S
Tb480 C489 2.764 . S
Tb480 O490 2.325 1_455 S
Tb480 O493 2.303 . S
Tb480 O497 2.322 1_545 S
Tb480 O498 2.349 1_545 S
Tb480 O501 2.415 . S
Tb480 O502 2.399 . S
Tb481 O491 2.302 1_565 S
Tb481 O492 2.325 1_565 S
Tb481 O494 2.441 . S
Tb481 O495 2.402 . S
Tb481 O496 2.344 1_655 S
Tb481 O499 2.323 . S
Tb481 C510 2.780 . S
C482 O498 1.261 1_655 S
C482 O499 1.257 . S
C483 C486 1.358 . S
C483 C487 1.332 . S
C483 C489 1.504 . S
C484 C485 1.373 . S
C484 C488 1.308 . S
C485 C484 1.373 . S
C485 C486 1.429 . S
C485 H512 0.932 . S
C486 C483 1.358 . S
C486 C485 1.429 . S
C486 H513 0.930 . S
C487 C483 1.332 . S
C487 C488 1.394 . S
C487 H514 0.932 . S
C488 C484 1.308 . S
C488 C487 1.394 . S
C488 H515 0.929 . S
C489 Tb480 2.764 . S
C489 C483 1.504 . S
C489 O501 1.239 . S
C489 O502 1.263 . S
O490 Tb480 2.325 1_655 S
O490 C500 1.236 . S
O491 Tb481 2.302 1_545 S
O491 C500 1.257 . S
O492 Tb481 2.325 1_545 S
O492 C503 1.261 1_655 S
O493 Tb480 2.303 . S
O493 C503 1.257 . S
O494 Tb481 2.441 . S
O494 C510 1.239 . S
O495 Tb481 2.402 . S
O495 C510 1.263 . S
O496 Tb481 2.344 1_455 S
O496 C511 1.236 . S
O497 Tb480 2.322 1_565 S
O497 C511 1.257 . S
O498 Tb480 2.349 1_565 S
O498 C482 1.261 1_455 S
O499 Tb481 2.323 . S
O499 C482 1.257 . S
C500 O490 1.236 . S
C500 O491 1.257 . S
O501 Tb480 2.415 . S
O501 C489 1.239 . S
O502 Tb480 2.399 . S
O502 C489 1.263 . S
C503 O492 1.261 1_455 S
C503 O493 1.257 . S
C504 C507 1.358 . S
C504 C508 1.332 . S
C504 C510 1.504 . S
C505 C506 1.373 . S
C505 C509 1.308 . S
C506 C505 1.373 . S
C506 C507 1.429 . S
C506 H516 0.932 . S
C507 C504 1.358 . S
C507 C506 1.429 . S
C507 H517 0.930 . S
C508 C504 1.332 . S
C508 C509 1.394 . S
C508 H518 0.932 . S
C509 C505 1.308 . S
C509 C508 1.394 . S
C509 H519 0.929 . S
C510 Tb481 2.780 . S
C510 O494 1.239 . S
C510 O495 1.263 . S
C510 C504 1.504 . S
C511 O496 1.236 . S
C511 O497 1.257 . S
H512 C485 0.932 . S
H513 C486 0.930 . S
H514 C487 0.932 . S
H515 C488 0.929 . S
H516 C506 0.932 . S
H517 C507 0.930 . S
H518 C508 0.932 . S
H519 C509 0.929 . S
Tb520 C529 2.764 . S
Tb520 O530 2.325 1_554 S
Tb520 O533 2.303 . S
Tb520 O537 2.322 1_545 S
Tb520 O538 2.349 1_544 S
Tb520 O541 2.415 . S
Tb520 O542 2.399 . S
Tb521 O531 2.322 1_565 S
Tb521 O532 2.349 1_566 S
Tb521 O534 2.415 . S
Tb521 O535 2.399 . S
Tb521 O536 2.325 1_556 S
Tb521 O539 2.303 . S
Tb521 C550 2.764 . S
C522 O538 1.261 . S
C522 O539 1.257 . S
C523 C526 1.358 . S
C523 C527 1.332 . S
C523 C529 1.504 . S
C524 C525 1.373 . S
C524 C528 1.308 . S
C525 C524 1.373 . S
C525 C526 1.429 . S
C525 H552 0.932 . S
C526 C523 1.358 . S
C526 C525 1.429 . S
C526 H553 0.930 . S
C527 C523 1.332 . S
C527 C528 1.394 . S
C527 H554 0.932 . S
C528 C524 1.308 . S
C528 C527 1.394 . S
C528 H555 0.929 . S
C529 Tb520 2.764 . S
C529 C523 1.504 . S
C529 O541 1.239 . S
C529 O542 1.263 . S
O530 Tb520 2.325 1_556 S
O530 C540 1.236 . S
O531 Tb521 2.322 1_545 S
O531 C540 1.257 . S
O532 Tb521 2.349 1_544 S
O532 C543 1.261 . S
O533 Tb520 2.303 . S
O533 C543 1.257 . S
O534 Tb521 2.415 . S
O534 C550 1.239 . S
O535 Tb521 2.399 . S
O535 C550 1.263 . S
O536 Tb521 2.325 1_554 S
O536 C551 1.236 . S
O537 Tb520 2.322 1_565 S
O537 C551 1.257 . S
O538 Tb520 2.349 1_566 S
O538 C522 1.261 . S
O539 Tb521 2.303 . S
O539 C522 1.257 . S
C540 O530 1.236 . S
C540 O531 1.257 . S
O541 Tb520 2.415 . S
O541 C529 1.239 . S
O542 Tb520 2.399 . S
O542 C529 1.263 . S
C543 O532 1.261 . S
C543 O533 1.257 . S
C544 C547 1.358 . S
C544 C548 1.332 . S
C544 C550 1.504 . S
C545 C546 1.373 . S
C545 C549 1.308 . S
C546 C545 1.373 . S
C546 C547 1.429 . S
C546 H556 0.932 . S
C547 C544 1.358 . S
C547 C546 1.429 . S
C547 H557 0.930 . S
C548 C544 1.332 . S
C548 C549 1.394 . S
C548 H558 0.932 . S
C549 C545 1.308 . S
C549 C548 1.394 . S
C549 H559 0.929 . S
C550 Tb521 2.764 . S
C550 O534 1.239 . S
C550 O535 1.263 . S
C550 C544 1.504 . S
C551 O536 1.236 . S
C551 O537 1.257 . S
H552 C525 0.932 . S
H553 C526 0.930 . S
H554 C527 0.932 . S
H555 C528 0.929 . S
H556 C546 0.932 . S
H557 C547 0.930 . S
H558 C548 0.932 . S
H559 C549 0.929 . S
Tb560 C569 2.764 . S
Tb560 O570 2.325 . S
Tb560 O573 2.303 . S
Tb560 O577 2.322 . S
Tb560 O578 2.349 . S
Tb560 O581 2.415 . S
Tb560 O582 2.399 . S
Tb561 O571 2.322 . S
Tb561 O572 2.349 . S
Tb561 O574 2.415 . S
Tb561 O575 2.399 . S
Tb561 O576 2.325 . S
Tb561 O579 2.303 . S
Tb561 C590 2.764 . S
C562 O578 1.261 . S
C562 O579 1.257 . S
C563 C566 1.358 . S
C563 C567 1.332 . S
C563 C569 1.504 . S
C564 C565 1.373 . S
C564 C568 1.308 . S
C565 C564 1.373 . S
C565 C566 1.429 . S
C565 H592 0.932 . S
C566 C563 1.358 . S
C566 C565 1.429 . S
C566 H593 0.930 . S
C567 C563 1.332 . S
C567 C568 1.394 . S
C567 H594 0.932 . S
C568 C564 1.308 . S
C568 C567 1.394 . S
C568 H595 0.929 . S
C569 Tb560 2.764 . S
C569 C563 1.504 . S
C569 O581 1.239 . S
C569 O582 1.263 . S
O570 Tb560 2.325 . S
O570 C580 1.236 . S
O571 Tb561 2.322 . S
O571 C580 1.257 . S
O572 Tb561 2.349 . S
O572 C583 1.261 . S
O573 Tb560 2.303 . S
O573 C583 1.257 . S
O574 Tb561 2.415 . S
O574 C590 1.239 . S
O575 Tb561 2.399 . S
O575 C590 1.263 . S
O576 Tb561 2.325 . S
O576 C591 1.236 . S
O577 Tb560 2.322 . S
O577 C591 1.257 . S
O578 Tb560 2.349 . S
O578 C562 1.261 . S
O579 Tb561 2.303 . S
O579 C562 1.257 . S
C580 O570 1.236 . S
C580 O571 1.257 . S
O581 Tb560 2.415 . S
O581 C569 1.239 . S
O582 Tb560 2.399 . S
O582 C569 1.263 . S
C583 O572 1.261 . S
C583 O573 1.257 . S
C584 C587 1.358 . S
C584 C588 1.332 . S
C584 C590 1.504 . S
C585 C586 1.373 . S
C585 C589 1.308 . S
C586 C585 1.373 . S
C586 C587 1.429 . S
C586 H596 0.932 . S
C587 C584 1.358 . S
C587 C586 1.429 . S
C587 H597 0.930 . S
C588 C584 1.332 . S
C588 C589 1.394 . S
C588 H598 0.932 . S
C589 C585 1.308 . S
C589 C588 1.394 . S
C589 H599 0.929 . S
C590 Tb561 2.764 . S
C590 O574 1.239 . S
C590 O575 1.263 . S
C590 C584 1.504 . S
C591 O576 1.236 . S
C591 O577 1.257 . S
H592 C565 0.932 . S
H593 C566 0.930 . S
H594 C567 0.932 . S
H595 C568 0.929 . S
H596 C586 0.932 . S
H597 C587 0.930 . S
H598 C588 0.932 . S
H599 C589 0.929 . S
Tb600 C609 2.764 . S
Tb600 O610 2.325 . S
Tb600 O613 2.303 1_556 S
Tb600 O617 2.337 1_655 S
Tb600 O618 2.349 1_655 S
Tb600 O621 2.415 . S
Tb600 O622 2.399 . S
Tb601 O611 2.322 1_455 S
Tb601 O612 2.349 1_455 S
Tb601 O614 2.415 . S
Tb601 O615 2.399 . S
Tb601 O616 2.325 . S
Tb601 O619 2.303 1_554 S
Tb601 C630 2.764 . S
C602 O618 1.261 . S
C602 O619 1.257 . S
C603 C606 1.358 . S
C603 C607 1.332 . S
C603 C609 1.504 . S
C604 C605 1.373 . S
C604 C608 1.308 . S
C605 C604 1.373 . S
C605 C606 1.429 . S
C605 H632 0.932 . S
C606 C603 1.358 . S
C606 C605 1.429 . S
C606 H633 0.930 . S
C607 C603 1.332 . S
C607 C608 1.394 . S
C607 H634 0.932 . S
C608 C604 1.308 . S
C608 C607 1.394 . S
C608 H635 0.929 . S
C609 Tb600 2.764 . S
C609 C603 1.504 . S
C609 O621 1.239 . S
C609 O622 1.263 . S
O610 Tb600 2.325 . S
O610 C620 1.236 . S
O611 Tb601 2.322 1_655 S
O611 C620 1.257 1_554 S
O612 Tb601 2.349 1_655 S
O612 C623 1.261 . S
O613 Tb600 2.303 1_554 S
O613 C623 1.257 . S
O614 Tb601 2.415 . S
O614 C630 1.239 . S
O615 Tb601 2.399 . S
O615 C630 1.263 . S
O616 Tb601 2.325 . S
O616 C631 1.236 . S
O617 Tb600 2.337 1_455 S
O617 C631 1.235 1_556 S
O618 Tb600 2.349 1_455 S
O618 C602 1.261 . S
O619 Tb601 2.303 1_556 S
O619 C602 1.257 . S
C620 O610 1.236 . S
C620 O611 1.257 1_556 S
O621 Tb600 2.415 . S
O621 C609 1.239 . S
O622 Tb600 2.399 . S
O622 C609 1.263 . S
C623 O612 1.261 . S
C623 O613 1.257 . S
C624 C627 1.358 . S
C624 C628 1.332 . S
C624 C630 1.504 . S
C625 C626 1.373 . S
C625 C629 1.308 . S
C626 C625 1.373 . S
C626 C627 1.429 . S
C626 H636 0.932 . S
C627 C624 1.358 . S
C627 C626 1.429 . S
C627 H637 0.930 . S
C628 C624 1.332 . S
C628 C629 1.394 . S
C628 H638 0.932 . S
C629 C625 1.308 . S
C629 C628 1.394 . S
C629 H639 0.929 . S
C630 Tb601 2.764 . S
C630 O614 1.239 . S
C630 O615 1.263 . S
C630 C624 1.504 . S
C631 O616 1.236 . S
C631 O617 1.235 1_554 S
H632 C605 0.932 . S
H633 C606 0.930 . S
H634 C607 0.932 . S
H635 C608 0.929 . S
H636 C626 0.932 . S
H637 C627 0.930 . S
H638 C628 0.932 . S
H639 C629 0.929 . S
C640 C641 1.387 . S
C640 H644 0.950 . S
C640 C649 1.390 . S
C641 C640 1.387 . S
C641 C643 1.387 . S
H642 C649 0.950 . S
C643 C641 1.387 . S
C643 C645 1.390 . S
C643 H647 0.950 . S
H644 C640 0.950 . S
C645 C643 1.390 . S
C645 C646 1.387 . S
C645 H648 0.950 . S
C646 C645 1.387 . S
C646 C649 1.387 . S
H647 C643 0.950 . S
H648 C645 0.950 . S
C649 C640 1.390 . S
C649 H642 0.950 . S
C649 C646 1.387 . S
C650 C651 1.387 . S
C650 H654 0.950 . S
C650 C659 1.390 . S
C651 C650 1.387 . S
C651 C653 1.387 . S
H652 C659 0.950 . S
C653 C651 1.387 . S
C653 C655 1.390 . S
C653 H657 0.950 . S
H654 C650 0.950 . S
C655 C653 1.390 . S
C655 C656 1.387 . S
C655 H658 0.950 . S
C656 C655 1.387 . S
C656 C659 1.387 . S
H657 C653 0.950 . S
H658 C655 0.950 . S
C659 C650 1.390 . S
C659 H652 0.950 . S
C659 C656 1.387 . S
C660 C661 1.387 . S
C660 H664 0.950 . S
C660 C669 1.390 . S
C661 C660 1.387 . S
C661 C663 1.387 . S
H662 C669 0.950 . S
C663 C661 1.387 . S
C663 C665 1.390 . S
C663 H667 0.950 . S
H664 C660 0.950 . S
C665 C663 1.390 . S
C665 C666 1.387 . S
C665 H668 0.950 . S
C666 C665 1.387 . S
C666 C669 1.387 . S
H667 C663 0.950 . S
H668 C665 0.950 . S
C669 C660 1.390 . S
C669 H662 0.950 . S
C669 C666 1.387 . S
C670 C671 1.387 . S
C670 H674 0.950 . S
C670 C679 1.390 . S
C671 C670 1.387 . S
C671 C673 1.387 . S
H672 C679 0.950 . S
C673 C671 1.387 . S
C673 C675 1.390 . S
C673 H677 0.950 . S
H674 C670 0.950 . S
C675 C673 1.390 . S
C675 C676 1.387 . S
C675 H678 0.950 . S
C676 C675 1.387 . S
C676 C679 1.387 . S
H677 C673 0.950 . S
H678 C675 0.950 . S
C679 C670 1.390 . S
C679 H672 0.950 . S
C679 C676 1.387 . S
C680 C681 1.387 . S
C680 H684 0.950 . S
C680 C689 1.390 . S
C681 C680 1.387 . S
C681 C683 1.387 . S
H682 C689 0.950 . S
C683 C681 1.387 . S
C683 C685 1.390 . S
C683 H687 0.950 . S
H684 C680 0.950 . S
C685 C683 1.390 . S
C685 C686 1.387 . S
C685 H688 0.950 . S
C686 C685 1.387 . S
C686 C689 1.387 . S
H687 C683 0.950 . S
H688 C685 0.950 . S
C689 C680 1.390 . S
C689 H682 0.950 . S
C689 C686 1.387 . S
C690 C691 1.387 . S
C690 H694 0.950 . S
C690 C699 1.390 . S
C691 C690 1.387 . S
C691 C693 1.387 . S
H692 C699 0.950 . S
C693 C691 1.387 . S
C693 C695 1.390 . S
C693 H697 0.954 . S
H694 C690 0.950 . S
C695 C693 1.390 . S
C695 C696 1.387 . S
C695 H698 0.950 . S
C696 C695 1.387 . S
C696 C699 1.387 . S
H697 C693 0.954 . S
H698 C695 0.950 . S
C699 C690 1.390 . S
C699 H692 0.950 . S
C699 C696 1.387 . S
C700 C701 1.387 . S
C700 H704 0.950 . S
C700 C709 1.390 . S
C701 C700 1.387 . S
C701 C703 1.387 . S
H702 C709 0.950 . S
C703 C701 1.387 . S
C703 C705 1.390 . S
C703 H707 0.950 . S
H704 C700 0.950 . S
C705 C703 1.390 . S
C705 C706 1.387 . S
C705 H708 0.950 . S
C706 C705 1.387 . S
C706 C709 1.387 . S
H707 C703 0.950 . S
H708 C705 0.950 . S
C709 C700 1.390 . S
C709 H702 0.950 . S
C709 C706 1.387 . S
C710 C711 1.387 . S
C710 H714 0.950 . S
C710 C719 1.390 . S
C711 C710 1.387 . S
C711 C713 1.387 . S
H712 C719 0.950 . S
C713 C711 1.387 . S
C713 C715 1.390 . S
C713 H717 0.950 . S
H714 C710 0.950 . S
C715 C713 1.390 . S
C715 C716 1.387 . S
C715 H718 0.950 . S
C716 C715 1.387 . S
C716 C719 1.387 . S
H717 C713 0.950 . S
H718 C715 0.950 . S
C719 C710 1.390 . S
C719 H712 0.950 . S
C719 C716 1.387 . S
C720 C721 1.387 . S
C720 H724 0.950 . S
C720 C729 1.390 . S
C721 C720 1.387 . S
C721 C723 1.387 . S
H722 C729 0.950 . S
C723 C721 1.387 . S
C723 C725 1.390 . S
C723 H727 0.950 . S
H724 C720 0.950 . S
C725 C723 1.390 . S
C725 C726 1.387 . S
C725 H728 0.950 . S
C726 C725 1.387 . S
C726 C729 1.387 . S
H727 C723 0.950 . S
H728 C725 0.950 . S
C729 C720 1.390 . S
C729 H722 0.950 . S
C729 C726 1.387 . S
C730 C731 1.387 . S
C730 H734 0.950 . S
C730 C739 1.390 . S
C731 C730 1.387 . S
C731 C733 1.387 . S
H732 C739 0.950 . S
C733 C731 1.387 . S
C733 C735 1.390 . S
C733 H737 0.950 . S
H734 C730 0.950 . S
C735 C733 1.390 . S
C735 C736 1.387 . S
C735 H738 0.950 . S
C736 C735 1.387 . S
C736 C739 1.387 . S
H737 C733 0.950 . S
H738 C735 0.950 . S
C739 C730 1.390 . S
C739 H732 0.950 . S
C739 C736 1.387 . S
C740 C741 1.387 . S
C740 H744 0.950 . S
C740 C749 1.390 . S
C741 C740 1.387 . S
C741 C743 1.387 . S
H742 C749 0.950 . S
C743 C741 1.387 . S
C743 C745 1.390 . S
C743 H747 0.950 . S
H744 C740 0.950 . S
C745 C743 1.390 . S
C745 C746 1.387 . S
C745 H748 0.971 . S
C746 C745 1.387 . S
C746 C749 1.387 . S
H747 C743 0.950 . S
H748 C745 0.971 . S
C749 C740 1.390 . S
C749 H742 0.950 . S
C749 C746 1.387 . S
C750 C751 1.387 . S
C750 H754 0.950 . S
C750 C759 1.390 . S
C751 C750 1.387 . S
C751 C753 1.387 . S
H752 C759 0.950 . S
C753 C751 1.387 . S
C753 C755 1.390 . S
C753 H757 0.950 . S
H754 C750 0.950 . S
C755 C753 1.390 . S
C755 C756 1.387 . S
C755 H758 0.950 . S
C756 C755 1.387 . S
C756 C759 1.387 . S
H757 C753 0.950 . S
H758 C755 0.950 . S
C759 C750 1.390 . S
C759 H752 0.950 . S
C759 C756 1.387 . S
C760 C761 1.387 . S
C760 H764 0.950 . S
C760 C769 1.390 . S
C761 C760 1.387 . S
C761 C763 1.387 . S
H762 C769 0.950 . S
C763 C761 1.387 . S
C763 C765 1.390 . S
C763 H767 0.950 . S
H764 C760 0.950 . S
C765 C763 1.390 . S
C765 C766 1.387 . S
C765 H768 0.950 . S
C766 C765 1.387 . S
C766 C769 1.387 . S
H767 C763 0.950 . S
H768 C765 0.950 . S
C769 C760 1.390 . S
C769 H762 0.950 . S
C769 C766 1.387 . S
C770 C771 1.387 . S
C770 H774 0.950 . S
C770 C779 1.390 . S
C771 C770 1.387 . S
C771 C773 1.387 . S
H772 C779 0.950 . S
C773 C771 1.387 . S
C773 C775 1.390 . S
C773 H777 0.950 . S
H774 C770 0.950 . S
C775 C773 1.390 . S
C775 C776 1.387 . S
C775 H778 0.950 . S
C776 C775 1.387 . S
C776 C779 1.387 . S
H777 C773 0.950 . S
H778 C775 0.950 . S
C779 C770 1.390 . S
C779 H772 0.950 . S
C779 C776 1.387 . S
C780 C781 1.387 . S
C780 H784 0.950 . S
C780 C789 1.390 . S
C781 C780 1.387 . S
C781 C783 1.387 . S
H782 C789 0.950 . S
C783 C781 1.387 . S
C783 C785 1.390 . S
C783 H787 0.950 . S
H784 C780 0.950 . S
C785 C783 1.390 . S
C785 C786 1.387 . S
C785 H788 0.950 . S
C786 C785 1.387 . S
C786 C789 1.387 . S
H787 C783 0.950 . S
H788 C785 0.950 . S
C789 C780 1.390 . S
C789 H782 0.950 . S
C789 C786 1.387 . S
C790 C791 1.387 . S
C790 H794 0.950 . S
C790 C799 1.390 . S
C791 C790 1.387 . S
C791 C793 1.387 . S
H792 C799 0.950 . S
C793 C791 1.387 . S
C793 C795 1.390 . S
C793 H797 0.950 . S
H794 C790 0.950 . S
C795 C793 1.390 . S
C795 C796 1.387 . S
C795 H798 0.950 . S
C796 C795 1.387 . S
C796 C799 1.387 . S
H797 C793 0.950 . S
H798 C795 0.950 . S
C799 C790 1.390 . S
C799 H792 0.950 . S
C799 C796 1.387 . S
C800 C801 1.387 . S
C800 H804 0.950 . S
C800 C809 1.390 . S
C801 C800 1.387 . S
C801 C803 1.387 . S
H802 C809 0.950 . S
C803 C801 1.387 . S
C803 C805 1.390 . S
C803 H807 0.950 . S
H804 C800 0.950 . S
C805 C803 1.390 . S
C805 C806 1.387 . S
C805 H808 0.950 . S
C806 C805 1.387 . S
C806 C809 1.387 . S
H807 C803 0.950 . S
H808 C805 0.950 . S
C809 C800 1.390 . S
C809 H802 0.950 . S
C809 C806 1.387 . S
C810 C811 1.387 . S
C810 H814 0.950 . S
C810 C819 1.390 . S
C811 C810 1.387 . S
C811 C813 1.387 1_655 S
H812 C819 0.950 . S
C813 C811 1.387 1_455 S
C813 C815 1.390 . S
C813 H817 0.950 . S
H814 C810 0.950 . S
C815 C813 1.390 . S
C815 C816 1.387 1_455 S
C815 H818 0.950 . S
C816 C815 1.387 1_655 S
C816 C819 1.387 . S
H817 C813 0.950 . S
H818 C815 0.950 . S
C819 C810 1.390 . S
C819 H812 0.950 . S
C819 C816 1.387 . S
C820 C821 1.387 . S
C820 H824 0.950 . S
C820 C829 1.390 . S
C821 C820 1.387 . S
C821 C823 1.387 . S
H822 C829 0.950 . S
C823 C821 1.387 . S
C823 C825 1.390 . S
C823 H827 0.950 . S
H824 C820 0.950 . S
C825 C823 1.390 . S
C825 C826 1.387 . S
C825 H828 0.950 . S
C826 C825 1.387 . S
C826 C829 1.387 . S
H827 C823 0.950 . S
H828 C825 0.950 . S
C829 C820 1.390 . S
C829 H822 0.950 . S
C829 C826 1.387 . S
C830 C831 1.387 . S
C830 H834 0.950 . S
C830 C839 1.390 . S
C831 C830 1.387 . S
C831 C833 1.387 . S
H832 C839 0.950 . S
C833 C831 1.387 . S
C833 C835 1.390 . S
C833 H837 0.950 . S
H834 C830 0.950 . S
C835 C833 1.390 . S
C835 C836 1.387 . S
C835 H838 0.950 . S
C836 C835 1.387 . S
C836 C839 1.387 . S
H837 C833 0.950 . S
H838 C835 0.950 . S
C839 C830 1.390 . S
C839 H832 0.950 . S
C839 C836 1.387 . S
C840 C841 1.387 . S
C840 H844 0.950 . S
C840 C849 1.390 . S
C841 C840 1.387 . S
C841 C843 1.387 . S
H842 C849 0.950 . S
C843 C841 1.387 . S
C843 C845 1.390 . S
C843 H847 0.950 . S
H844 C840 0.950 . S
C845 C843 1.390 . S
C845 C846 1.387 . S
C845 H848 0.950 . S
C846 C845 1.387 . S
C846 C849 1.387 . S
H847 C843 0.950 . S
H848 C845 0.950 . S
C849 C840 1.390 . S
C849 H842 0.950 . S
C849 C846 1.387 . S
C850 C851 1.387 . S
C850 H854 0.950 . S
C850 C859 1.390 . S
C851 C850 1.387 . S
C851 C853 1.387 . S
H852 C859 0.950 . S
C853 C851 1.387 . S
C853 C855 1.390 . S
C853 H857 0.950 . S
H854 C850 0.950 . S
C855 C853 1.390 . S
C855 C856 1.387 . S
C855 H858 0.950 . S
C856 C855 1.387 . S
C856 C859 1.387 . S
H857 C853 0.950 . S
H858 C855 0.950 . S
C859 C850 1.390 . S
C859 H852 0.950 . S
C859 C856 1.387 . S
C860 C861 1.387 . S
C860 H864 0.950 . S
C860 C869 1.390 . S
C861 C860 1.387 . S
C861 C863 1.387 . S
H862 C869 0.950 . S
C863 C861 1.387 . S
C863 C865 1.390 . S
C863 H867 0.950 . S
H864 C860 0.950 . S
C865 C863 1.390 . S
C865 C866 1.387 . S
C865 H868 0.950 . S
C866 C865 1.387 . S
C866 C869 1.387 . S
H867 C863 0.950 . S
H868 C865 0.950 . S
C869 C860 1.390 . S
C869 H862 0.950 . S
C869 C866 1.387 . S
C870 C871 1.387 . S
C870 H874 0.950 . S
C870 C879 1.390 . S
C871 C870 1.387 . S
C871 C873 1.387 . S
H872 C879 0.950 . S
C873 C871 1.387 . S
C873 C875 1.390 . S
C873 H877 0.950 . S
H874 C870 0.950 . S
C875 C873 1.390 . S
C875 C876 1.387 . S
C875 H878 0.950 . S
C876 C875 1.387 . S
C876 C879 1.387 . S
H877 C873 0.950 . S
H878 C875 0.950 . S
C879 C870 1.390 . S
C879 H872 0.950 . S
C879 C876 1.387 . S
C641 C1 0.994 . S
C646 C484 1.125 . S
C651 C80 1.209 . S
C656 C545 1.308 . S
C666 C583 2.529 . S
C661 C140 2.547 . S
C671 C211 2.401 . S
C676 C623 2.368 . S
C686 C543 1.511 . S
C681 C31 1.274 . S
C696 C511 2.273 . S
C691 C61 2.125 . S
C706 C620 1.811 . S
C701 C151 1.760 . S
C716 C580 1.913 . S
C711 C200 1.930 . S
C721 C20 1.373 . S
C726 C625 1.393 . S
C736 C540 2.404 . S
C731 C121 2.383 . S
C741 C181 2.185 . S
C746 C482 2.206 . S
C751 C91 1.774 . S
C756 C585 1.761 . S
C766 C505 1.122 . S
C761 C260 1.069 . S
C771 C320 1.205 . S
C776 C524 1.304 . S
C781 C361 2.577 . S
C786 C562 2.529 . S
C791 C451 2.401 . S
C796 C602 2.371 . S
C801 C271 1.352 . S
C806 C522 1.512 . S
C816 C500 2.272 . S
C811 C301 2.125 . S
C826 C631 1.811 . S
C821 C380 1.769 . S
C836 C591 1.912 . S
C831 C440 1.931 . S
C841 C241 1.196 . S
C846 C604 1.395 . S
C856 C551 2.404 . S
C851 C391 2.410 . S
C866 C503 2.207 . S
C861 C421 2.187 . S
C871 C331 1.773 . S
C876 C564 1.760 . S
