# Generated by pormake.
# Topology dag, (6,3)-cn, num edge types: 1
# Building blocks:
#     Node 0, Type 0, BuildingBlock: IZENUY_clean_sbu_0, # of connection points: 6
#     Node 1, Type 0, BuildingBlock: IZENUY_clean_sbu_0, # of connection points: 6
#     Node 2, Type 0, BuildingBlock: IZENUY_clean_sbu_0, # of connection points: 6
#     Node 3, Type 0, BuildingBlock: IZENUY_clean_sbu_0, # of connection points: 6
#     Node 4, Type 1, BuildingBlock: MIDCAF_clean_linker_0, # of connection points: 3
#     Node 5, Type 1, BuildingBlock: MIDCAF_clean_linker_0, # of connection points: 3
#     Node 6, Type 1, BuildingBlock: MIDCAF_clean_linker_0, # of connection points: 3
#     Node 7, Type 1, BuildingBlock: MIDCAF_clean_linker_0, # of connection points: 3
#     Node 8, Type 1, BuildingBlock: MIDCAF_clean_linker_0, # of connection points: 3
#     Node 9, Type 1, BuildingBlock: MIDCAF_clean_linker_0, # of connection points: 3
#     Node 10, Type 1, BuildingBlock: MIDCAF_clean_linker_0, # of connection points: 3
#     Node 11, Type 1, BuildingBlock: MIDCAF_clean_linker_0, # of connection points: 3
#     Edge 12, Type (0, 1), BuildingBlock: XUDNAN_clean_linker_2, # of connection points: 2
#     Edge 13, Type (0, 1), BuildingBlock: XUDNAN_clean_linker_2, # of connection points: 2
#     Edge 14, Type (0, 1), BuildingBlock: XUDNAN_clean_linker_2, # of connection points: 2
#     Edge 15, Type (0, 1), BuildingBlock: XUDNAN_clean_linker_2, # of connection points: 2
#     Edge 16, Type (0, 1), BuildingBlock: XUDNAN_clean_linker_2, # of connection points: 2
#     Edge 17, Type (0, 1), BuildingBlock: XUDNAN_clean_linker_2, # of connection points: 2
#     Edge 18, Type (0, 1), BuildingBlock: XUDNAN_clean_linker_2, # of connection points: 2
#     Edge 19, Type (0, 1), BuildingBlock: XUDNAN_clean_linker_2, # of connection points: 2
#     Edge 20, Type (0, 1), BuildingBlock: XUDNAN_clean_linker_2, # of connection points: 2
#     Edge 21, Type (0, 1), BuildingBlock: XUDNAN_clean_linker_2, # of connection points: 2
#     Edge 22, Type (0, 1), BuildingBlock: XUDNAN_clean_linker_2, # of connection points: 2
#     Edge 23, Type (0, 1), BuildingBlock: XUDNAN_clean_linker_2, # of connection points: 2
#     Edge 24, Type (0, 1), BuildingBlock: XUDNAN_clean_linker_2, # of connection points: 2
#     Edge 25, Type (0, 1), BuildingBlock: XUDNAN_clean_linker_2, # of connection points: 2
#     Edge 26, Type (0, 1), BuildingBlock: XUDNAN_clean_linker_2, # of connection points: 2
#     Edge 27, Type (0, 1), BuildingBlock: XUDNAN_clean_linker_2, # of connection points: 2
#     Edge 28, Type (0, 1), BuildingBlock: XUDNAN_clean_linker_2, # of connection points: 2
#     Edge 29, Type (0, 1), BuildingBlock: XUDNAN_clean_linker_2, # of connection points: 2
#     Edge 30, Type (0, 1), BuildingBlock: XUDNAN_clean_linker_2, # of connection points: 2
#     Edge 31, Type (0, 1), BuildingBlock: XUDNAN_clean_linker_2, # of connection points: 2
#     Edge 32, Type (0, 1), BuildingBlock: XUDNAN_clean_linker_2, # of connection points: 2
#     Edge 33, Type (0, 1), BuildingBlock: XUDNAN_clean_linker_2, # of connection points: 2
#     Edge 34, Type (0, 1), BuildingBlock: XUDNAN_clean_linker_2, # of connection points: 2
#     Edge 35, Type (0, 1), BuildingBlock: XUDNAN_clean_linker_2, # of connection points: 2
# Relax obj value: 0.260
# Max RMSD: 0.197
# Mean RMSD: 0.161
data_MOF--net-dag--node1-IZENUY_clean_sbu_0--node2-MIDCAF_clean_linker_0--edge1-XUDNAN_clean_linker_2
_symmetry_space_group_name_H-M    P1
_symmetry_Int_Tables_number       1
_symmetry_cell_setting            triclinic
loop_
_symmetry_equiv_pos_as_xyz
'x, y, z'
_cell_length_a     46.495301
_cell_length_b     48.24336
_cell_length_c     40.829794
_cell_angle_alpha  95.072862
_cell_angle_beta   90.200494
_cell_angle_gamma 90.086132
loop_
_atom_site_label
_atom_site_type_symbol
_atom_site_fract_x
_atom_site_fract_y
_atom_site_fract_z
_atom_type_partial_charge
Fe0 Fe 0.20884 0.8281 0.07494 0.0
Fe1 Fe 0.14948 0.84427 0.0506 0.0
O2 O 0.17387 0.81832 0.06061 0.0
Fe3 Fe 0.16322 0.78289 0.05666 0.0
O4 O 0.18417 0.77372 0.09259 0.0
O5 O 0.20197 0.8138 0.11339 0.0
O6 O 0.1976 0.86185 0.09563 0.0
C7 C 0.17312 0.86952 0.10663 0.0
C8 C 0.21847 0.77825 0.03423 0.0
O9 O 0.15048 0.86057 0.09225 0.0
C10 C 0.1399 0.80468 -0.00018 0.0
O11 O 0.21744 0.84346 0.03718 0.0
O12 O 0.1773 0.86739 0.03682 0.0
O13 O 0.19217 0.7738 0.02857 0.0
O14 O 0.22652 0.79604 0.05715 0.0
C15 C 0.11357 0.80659 0.08082 0.0
O16 O 0.14721 0.82939 0.00862 0.0
O17 O 0.14037 0.78614 0.02005 0.0
C18 C 0.20239 0.86221 0.02599 0.0
O19 O 0.11703 0.8259 0.06219 0.0
O20 O 0.13329 0.78931 0.08451 0.0
C21 C 0.1931 0.7896 0.11693 0.0
Fe22 Fe 0.69979 0.66713 0.49384 0.0
Fe23 Fe 0.66458 0.72059 0.51103 0.0
O24 O 0.67042 0.6845 0.5142 0.0
Fe25 Fe 0.6469 0.66553 0.53778 0.0
O26 O 0.67586 0.65674 0.56476 0.0
O27 O 0.70525 0.64229 0.52498 0.0
O28 O 0.72537 0.68995 0.51662 0.0
C29 C 0.72512 0.71614 0.51708 0.0
C30 C 0.65731 0.62834 0.482 0.0
O31 O 0.70296 0.72908 0.50869 0.0
C32 C 0.60856 0.69732 0.50683 0.0
O33 O 0.69952 0.68852 0.45894 0.0
O34 O 0.66146 0.71537 0.46667 0.0
O35 O 0.65046 0.63275 0.51195 0.0
O36 O 0.6759 0.64336 0.46969 0.0
C37 C 0.65261 0.71668 0.57604 0.0
O38 O 0.62511 0.71814 0.51234 0.0
O39 O 0.61656 0.67323 0.51243 0.0
C40 C 0.67978 0.70317 0.44788 0.0
O41 O 0.66719 0.7287 0.55546 0.0
O42 O 0.63885 0.69463 0.56771 0.0
C43 C 0.69787 0.64335 0.55491 0.0
Fe44 Fe 0.83554 0.2029 0.03227 0.0
Fe45 Fe 0.85194 0.14139 0.02397 0.0
O46 O 0.82733 0.16814 0.0174 0.0
Fe47 Fe 0.7949 0.15981 0.99583 0.0
O48 O 0.79327 0.19261 0.97615 0.0
O49 O 0.83349 0.21424 0.99133 0.0
O50 O 0.87462 0.19907 0.02532 0.0
C51 C 0.88783 0.18171 0.00564 0.0
C52 C 0.77559 0.19799 0.04435 0.0
O53 O 0.87887 0.1571 0.99963 0.0
C54 C 0.80137 0.11697 0.03829 0.0
O55 O 0.83834 0.19389 0.07452 0.0
O56 O 0.86659 0.15826 0.06228 0.0
O57 O 0.77353 0.1738 0.03015 0.0
O58 O 0.79792 0.21269 0.04135 0.0
C59 C 0.83167 0.12548 0.95999 0.0
O60 O 0.82593 0.12475 0.04859 0.0
O61 O 0.79085 0.12547 0.01223 0.0
C62 C 0.8554 0.17568 0.08339 0.0
O63 O 0.84219 0.11912 0.9869 0.0
O64 O 0.81411 0.14528 0.95965 0.0
C65 C 0.81273 0.21027 0.97157 0.0
Fe66 Fe 0.35024 0.35477 0.5623 0.0
Fe67 Fe 0.29756 0.33937 0.60114 0.0
O68 O 0.32802 0.32911 0.57733 0.0
Fe69 Fe 0.33617 0.29335 0.56856 0.0
O70 O 0.37104 0.29751 0.58817 0.0
O71 O 0.38357 0.3345 0.56384 0.0
O72 O 0.35879 0.36954 0.6035 0.0
C73 C 0.34008 0.37873 0.62392 0.0
C74 C 0.34756 0.31687 0.50878 0.0
O75 O 0.31386 0.37188 0.61988 0.0
C76 C 0.27778 0.29215 0.5613 0.0
O77 O 0.32105 0.37978 0.55817 0.0
O78 O 0.28168 0.35663 0.56771 0.0
O79 O 0.3514 0.2976 0.52756 0.0
O80 O 0.34279 0.34151 0.52035 0.0
C81 C 0.31918 0.29789 0.63517 0.0
O82 O 0.27581 0.30867 0.5871 0.0
O83 O 0.30188 0.28682 0.54825 0.0
C84 C 0.29421 0.37605 0.55476 0.0
O85 O 0.31181 0.323 0.63562 0.0
O86 O 0.32251 0.28305 0.6082 0.0
C87 C 0.38998 0.31444 0.5805 0.0
C88 C 0.96768 0.12066 0.28853 0.0
C89 C 0.96379 0.1489 0.28361 0.0
C90 C 0.98303 0.16863 0.29882 0.0
C91 C 0.00683 0.16003 0.31643 0.0
H92 H 0.06631 0.17989 0.39555 0.0
H93 H 0.09471 0.20934 0.43493 0.0
H94 H 0.16226 0.14776 0.42967 0.0
H95 H 0.13422 0.11845 0.38984 0.0
H96 H 0.12662 0.06176 0.34321 0.0
H97 H 0.14909 0.02186 0.31256 0.0
H98 H 0.08017 0.01976 0.24104 0.0
H99 H 0.05728 0.05863 0.27211 0.0
H100 H 0.99476 0.09002 0.30748 0.0
H101 H 0.95284 0.10499 0.27796 0.0
H102 H 0.98076 0.19053 0.29542 0.0
H103 H 0.02218 0.1755 0.32635 0.0
N104 N 0.05487 0.13773 0.35443 0.0
N105 N 0.09217 0.1048 0.35065 0.0
N106 N 0.05093 0.09758 0.31794 0.0
C107 C 0.0811 0.12918 0.36448 0.0
C108 C 0.07721 0.0889 0.32727 0.0
C109 C 0.03959 0.12183 0.3314 0.0
C110 C 0.09795 0.14676 0.38933 0.0
C111 C 0.08718 0.17253 0.40278 0.0
C112 C 0.1034 0.18939 0.42554 0.0
C113 C 0.13077 0.18093 0.4354 0.0
C114 C 0.14142 0.15507 0.42224 0.0
C115 C 0.12522 0.13819 0.3995 0.0
C116 C 0.09015 0.06352 0.31016 0.0
C117 C 0.11613 0.05258 0.32113 0.0
C118 C 0.12911 0.02978 0.30342 0.0
C119 C 0.11654 0.01755 0.2742 0.0
C120 C 0.09028 0.02821 0.26369 0.0
C121 C 0.0772 0.05075 0.2815 0.0
C122 C 0.01194 0.13156 0.31872 0.0
C123 C 0.99163 0.11207 0.30556 0.0
C124 C 0.43988 0.549 0.75112 0.0
C125 C 0.42222 0.53233 0.76933 0.0
C126 C 0.41819 0.54019 0.80299 0.0
C127 C 0.42984 0.56499 0.81756 0.0
H128 H 0.41414 0.62349 0.89549 0.0
H129 H 0.37571 0.64311 0.93036 0.0
H130 H 0.39417 0.72474 0.90009 0.0
H131 H 0.43318 0.70507 0.86505 0.0
H132 H 0.49639 0.70728 0.82308 0.0
H133 H 0.53315 0.73278 0.79515 0.0
H134 H 0.55492 0.65744 0.73532 0.0
H135 H 0.51897 0.63204 0.76323 0.0
H136 H 0.46429 0.5867 0.75079 0.0
H137 H 0.44333 0.5437 0.72511 0.0
H138 H 0.40538 0.52751 0.81801 0.0
H139 H 0.42542 0.57083 0.84327 0.0
N140 N 0.4398 0.62277 0.83911 0.0
N141 N 0.46613 0.66405 0.83679 0.0
N142 N 0.47561 0.6252 0.79944 0.0
C143 C 0.44524 0.64943 0.85099 0.0
C144 C 0.48173 0.65187 0.81122 0.0
C145 C 0.45472 0.61051 0.81334 0.0
C146 C 0.42634 0.66263 0.87697 0.0
C147 C 0.41043 0.64572 0.89662 0.0
C148 C 0.38837 0.65693 0.9166 0.0
C149 C 0.38158 0.68532 0.91736 0.0
C150 C 0.39896 0.70276 0.8999 0.0
C151 C 0.42124 0.69149 0.87984 0.0
C152 C 0.50459 0.66756 0.79542 0.0
C153 C 0.50921 0.69612 0.80416 0.0
C154 C 0.53021 0.71078 0.78812 0.0
C155 C 0.54717 0.69712 0.76322 0.0
C156 C 0.54273 0.66854 0.75487 0.0
C157 C 0.5218 0.65398 0.77073 0.0
C158 C 0.44616 0.58241 0.79895 0.0
C159 C 0.45185 0.57373 0.76583 0.0
C160 C 0.7154 0.79843 0.23067 0.0
C161 C 0.72582 0.77269 0.23929 0.0
C162 C 0.7515 0.76224 0.22506 0.0
C163 C 0.7667 0.77729 0.20321 0.0
H164 H 0.85139 0.79197 0.18083 0.0
H165 H 0.90246 0.78232 0.17426 0.0
H166 H 0.90514 0.83316 0.09226 0.0
H167 H 0.85433 0.84371 0.0997 0.0
H168 H 0.8004 0.88399 0.08983 0.0
H169 H 0.78907 0.93055 0.07564 0.0
H170 H 0.72471 0.93833 0.15192 0.0
H171 H 0.73627 0.89147 0.16647 0.0
H172 H 0.72225 0.83345 0.20273 0.0
H173 H 0.69559 0.80695 0.24116 0.0
H174 H 0.76044 0.74274 0.23158 0.0
H175 H 0.7866 0.7686 0.19319 0.0
N176 N 0.80157 0.81172 0.16601 0.0
N177 N 0.80728 0.84938 0.13434 0.0
N178 N 0.76345 0.84297 0.1611 0.0
C179 C 0.81829 0.82645 0.14665 0.0
C180 C 0.77995 0.85781 0.14138 0.0
C181 C 0.7741 0.81962 0.17316 0.0
C182 C 0.84878 0.81875 0.14091 0.0
C183 C 0.86282 0.80096 0.16125 0.0
C184 C 0.89214 0.79533 0.1574 0.0
C185 C 0.90805 0.80711 0.13288 0.0
C186 C 0.89376 0.82424 0.11191 0.0
C187 C 0.86453 0.83013 0.11601 0.0
C188 C 0.76952 0.88416 0.12959 0.0
C189 C 0.7835 0.89539 0.1033 0.0
C190 C 0.77679 0.92203 0.09492 0.0
C191 C 0.75607 0.93818 0.11276 0.0
C192 C 0.74094 0.92642 0.13792 0.0
C193 C 0.74747 0.89955 0.14613 0.0
C194 C 0.75667 0.80326 0.19495 0.0
C195 C 0.73061 0.81352 0.20857 0.0
C196 C 0.76841 0.33832 0.77483 0.0
C197 C 0.76193 0.31061 0.78028 0.0
C198 C 0.74196 0.29587 0.75945 0.0
C199 C 0.7283 0.30869 0.73432 0.0
H200 H 0.64714 0.31085 0.69087 0.0
H201 H 0.59903 0.29593 0.67376 0.0
H202 H 0.6014 0.35105 0.5959 0.0
H203 H 0.64915 0.36673 0.61374 0.0
H204 H 0.69827 0.41393 0.61689 0.0
H205 H 0.70832 0.46153 0.60532 0.0
H206 H 0.75896 0.47394 0.69429 0.0
H207 H 0.74884 0.42605 0.70609 0.0
H208 H 0.76009 0.37259 0.74635 0.0
H209 H 0.78338 0.35043 0.79066 0.0
H210 H 0.73687 0.27434 0.7625 0.0
H211 H 0.71287 0.29674 0.71894 0.0
N212 N 0.69464 0.33882 0.68968 0.0
N213 N 0.68942 0.3764 0.65761 0.0
N214 N 0.72818 0.37538 0.69437 0.0
C215 C 0.67974 0.35169 0.66674 0.0
C216 C 0.71359 0.38838 0.67125 0.0
C217 C 0.71897 0.35041 0.70345 0.0
C218 C 0.65193 0.34021 0.6539 0.0
C219 C 0.63756 0.31959 0.66987 0.0
C220 C 0.60995 0.31092 0.65994 0.0
C221 C 0.59617 0.32245 0.63361 0.0
C222 C 0.61109 0.34218 0.61675 0.0
C223 C 0.63858 0.35105 0.62686 0.0
C224 C 0.72255 0.41624 0.66255 0.0
C225 C 0.71184 0.42663 0.63384 0.0
C226 C 0.7178 0.45387 0.62705 0.0
C227 C 0.73444 0.47145 0.64892 0.0
C228 C 0.74596 0.46085 0.67711 0.0
C229 C 0.74026 0.43342 0.68375 0.0
C230 C 0.73445 0.33652 0.72919 0.0
C231 C 0.75492 0.35108 0.74949 0.0
C232 C 0.45757 0.35994 0.3078 0.0
C233 C 0.45461 0.33165 0.31284 0.0
C234 C 0.47621 0.31294 0.30129 0.0
C235 C 0.50075 0.32255 0.28601 0.0
H236 H 0.57491 0.29868 0.23419 0.0
H237 H 0.60576 0.26834 0.19925 0.0
H238 H 0.65274 0.33987 0.17121 0.0
H239 H 0.62239 0.3703 0.20727 0.0
H240 H 0.61979 0.41944 0.28421 0.0
H241 H 0.6323 0.46209 0.31843 0.0
H242 H 0.54253 0.48467 0.32397 0.0
H243 H 0.52999 0.44219 0.29043 0.0
H244 H 0.48415 0.39166 0.29049 0.0
H245 H 0.44149 0.37494 0.31679 0.0
H246 H 0.47441 0.29101 0.30478 0.0
H247 H 0.51747 0.30781 0.27827 0.0
N248 N 0.55039 0.3454 0.25279 0.0
N249 N 0.58379 0.38213 0.25339 0.0
N250 N 0.5394 0.38878 0.27994 0.0
C251 C 0.57629 0.35535 0.24364 0.0
C252 C 0.5653 0.39896 0.27154 0.0
C253 C 0.53177 0.3621 0.27079 0.0
C254 C 0.59603 0.33696 0.22336 0.0
C255 C 0.59186 0.308 0.22067 0.0
C256 C 0.60948 0.29057 0.20045 0.0
C257 C 0.63153 0.30165 0.18203 0.0
C258 C 0.63614 0.33059 0.18525 0.0
C259 C 0.61865 0.34806 0.20582 0.0
C260 C 0.57385 0.42719 0.28525 0.0
C261 C 0.60284 0.43391 0.29201 0.0
C262 C 0.61002 0.45832 0.31155 0.0
C263 C 0.5883 0.47634 0.32441 0.0
C264 C 0.55964 0.47082 0.315 0.0
C265 C 0.55248 0.4465 0.29575 0.0
C266 C 0.50431 0.35111 0.28255 0.0
C267 C 0.48217 0.36957 0.29297 0.0
C268 C 0.2745 0.17707 0.83001 0.0
C269 C 0.27079 0.20578 0.82845 0.0
C270 C 0.25056 0.22002 0.84909 0.0
C271 C 0.23382 0.20571 0.87036 0.0
H272 H 0.14767 0.20375 0.90152 0.0
H273 H 0.09836 0.21867 0.91334 0.0
H274 H 0.08862 0.15293 0.9777 0.0
H275 H 0.1378 0.13814 0.96629 0.0
H276 H 0.17671 0.08574 0.95368 0.0
H277 H 0.18703 0.03775 0.96252 0.0
H278 H 0.26575 0.04159 0.90727 0.0
H279 H 0.25567 0.09012 0.89855 0.0
H280 H 0.26114 0.14056 0.85198 0.0
H281 H 0.29004 0.16567 0.81439 0.0
H282 H 0.24707 0.24213 0.84808 0.0
H283 H 0.21807 0.21721 0.88556 0.0
N284 N 0.19314 0.17275 0.90415 0.0
N285 N 0.18287 0.13231 0.92969 0.0
N286 N 0.22565 0.13543 0.90013 0.0
C287 C 0.17524 0.15827 0.92261 0.0
C288 C 0.20803 0.12075 0.91864 0.0
C289 C 0.21845 0.1615 0.89296 0.0
C290 C 0.14665 0.16953 0.93267 0.0
C291 C 0.13519 0.19273 0.9186 0.0
C292 C 0.10689 0.20122 0.92523 0.0
C293 C 0.08958 0.18688 0.94629 0.0
C294 C 0.10149 0.16458 0.9616 0.0
C295 C 0.12966 0.15596 0.95482 0.0
C296 C 0.21524 0.09185 0.92519 0.0
C297 C 0.19627 0.07653 0.94337 0.0
C298 C 0.20208 0.04889 0.94825 0.0
C299 C 0.22697 0.03579 0.9351 0.0
C300 C 0.24638 0.05118 0.91762 0.0
C301 C 0.24053 0.07894 0.91262 0.0
C302 C 0.23721 0.17689 0.87168 0.0
C303 C 0.25803 0.16278 0.85163 0.0
C304 C 0.24784 0.71801 0.34103 0.0
C305 C 0.22645 0.70491 0.32078 0.0
C306 C 0.21995 0.6768 0.3238 0.0
C307 C 0.23522 0.66187 0.34599 0.0
H308 H 0.23128 0.59447 0.41069 0.0
H309 H 0.21684 0.55124 0.43381 0.0
H310 H 0.30525 0.53671 0.45992 0.0
H311 H 0.31965 0.57924 0.43742 0.0
H312 H 0.36849 0.62065 0.41862 0.0
H313 H 0.41713 0.636 0.43195 0.0
H314 H 0.38931 0.72178 0.4357 0.0
H315 H 0.34075 0.70615 0.42032 0.0
H316 H 0.28017 0.71365 0.37742 0.0
H317 H 0.25358 0.73956 0.33898 0.0
H318 H 0.20345 0.66627 0.30856 0.0
H319 H 0.23032 0.64002 0.34714 0.0
N320 N 0.2676 0.63319 0.39449 0.0
N321 N 0.31248 0.62739 0.41925 0.0
N322 N 0.30306 0.66794 0.39378 0.0
C323 C 0.28567 0.61765 0.41163 0.0
C324 C 0.32132 0.65244 0.41053 0.0
C325 C 0.27625 0.65838 0.38548 0.0
C326 C 0.27656 0.59058 0.42267 0.0
C327 C 0.24761 0.58189 0.42118 0.0
C328 C 0.23931 0.55721 0.43434 0.0
C329 C 0.25985 0.54105 0.44925 0.0
C330 C 0.28884 0.54917 0.44936 0.0
C331 C 0.29709 0.57358 0.43631 0.0
C332 C 0.35081 0.66221 0.41859 0.0
C333 C 0.37277 0.6428 0.42229 0.0
C334 C 0.40067 0.65166 0.4302 0.0
C335 C 0.40725 0.6802 0.43541 0.0
C336 C 0.38522 0.69965 0.43151 0.0
C337 C 0.35733 0.69073 0.42288 0.0
C338 C 0.25753 0.67472 0.36513 0.0
C339 C 0.26326 0.70308 0.36287 0.0
C340 C 0.92759 0.97559 0.79732 0.0
C341 C 0.89985 0.98469 0.78972 0.0
C342 C 0.88401 0.9694 0.76488 0.0
C343 C 0.89514 0.94479 0.74915 0.0
H344 H 0.88585 0.88681 0.66906 0.0
H345 H 0.85805 0.86143 0.62594 0.0
H346 H 0.90582 0.78667 0.64007 0.0
H347 H 0.93362 0.81205 0.68398 0.0
H348 H 0.9836 0.815 0.73993 0.0
H349 H 0.01941 0.79303 0.7732 0.0
H350 H 0.03132 0.87099 0.83241 0.0
H351 H 0.99661 0.89295 0.79905 0.0
H352 H 0.9598 0.9443 0.78893 0.0
H353 H 0.94063 0.98723 0.8158 0.0
H354 H 0.86252 0.97577 0.75858 0.0
H355 H 0.88196 0.93297 0.73096 0.0
N356 N 0.91919 0.89304 0.71881 0.0
N357 N 0.94994 0.8549 0.723 0.0
N358 N 0.95501 0.89509 0.75926 0.0
C359 C 0.92771 0.86693 0.70774 0.0
C360 C 0.96378 0.86899 0.74877 0.0
C361 C 0.93278 0.90729 0.74451 0.0
C362 C 0.91197 0.8515 0.68018 0.0
C363 C 0.89065 0.86501 0.66301 0.0
C364 C 0.87481 0.85048 0.638 0.0
C365 C 0.87983 0.82206 0.62945 0.0
C366 C 0.90136 0.80853 0.64626 0.0
C367 C 0.91736 0.82313 0.67131 0.0
C368 C 0.98704 0.85574 0.76685 0.0
C369 C 0.99418 0.82751 0.75977 0.0
C370 C 0.01459 0.81487 0.77893 0.0
C371 C 0.02832 0.83023 0.80543 0.0
C372 C 0.02166 0.85859 0.81183 0.0
C373 C 0.00141 0.87117 0.79279 0.0
C374 C 0.92228 0.93494 0.75806 0.0
C375 C 0.93863 0.95099 0.78178 0.0
H376 H 0.12445 0.88776 0.13954 0.0
H377 H 0.21692 0.90019 0.1371 0.0
H378 H 0.21295 0.93739 0.18246 0.0
H379 H 0.10523 0.95829 0.15372 0.0
H380 H 0.0759 0.95236 0.181 0.0
H381 H 0.08624 0.92554 0.14985 0.0
H382 H 0.09318 0.89103 0.19431 0.0
H383 H 0.08281 0.91771 0.22571 0.0
H384 H 0.11679 0.90016 0.22872 0.0
H385 H 0.19839 0.97549 0.22533 0.0
H386 H 0.1745 0.01126 0.26259 0.0
H387 H 0.09184 0.97235 0.2387 0.0
C388 C 0.14393 0.89816 0.14864 0.0
C389 C 0.171 0.89112 0.13463 0.0
C390 C 0.19594 0.9052 0.1474 0.0
C391 C 0.19391 0.92634 0.1732 0.0
C392 C 0.16685 0.93293 0.18619 0.0
C393 C 0.14233 0.91914 0.17447 0.0
C394 C 0.11573 0.93072 0.19201 0.0
C395 C 0.09454 0.94243 0.16769 0.0
C396 C 0.10129 0.90858 0.21134 0.0
C397 C 0.12904 0.95367 0.21487 0.0
C398 C 0.15855 0.95451 0.2113 0.0
C399 C 0.17533 0.97478 0.22871 0.0
C400 C 0.16154 0.99492 0.25002 0.0
C401 C 0.13123 0.99467 0.25382 0.0
C402 C 0.11498 0.97338 0.23627 0.0
H403 H 0.66594 0.69305 0.63073 0.0
H404 H 0.62591 0.76564 0.59577 0.0
H405 H 0.60175 0.77537 0.64947 0.0
H406 H 0.60969 0.6681 0.66206 0.0
H407 H 0.62504 0.65453 0.69795 0.0
H408 H 0.64727 0.65893 0.66307 0.0
H409 H 0.68241 0.69027 0.69893 0.0
H410 H 0.6607 0.68544 0.73451 0.0
H411 H 0.66894 0.72007 0.72395 0.0
H412 H 0.57161 0.76879 0.69875 0.0
H413 H 0.54068 0.74822 0.73928 0.0
H414 H 0.60078 0.68 0.74314 0.0
C415 C 0.65362 0.71202 0.63538 0.0
C416 C 0.64826 0.72905 0.60976 0.0
C417 C 0.63096 0.75298 0.61563 0.0
C418 C 0.61703 0.75848 0.64602 0.0
C419 C 0.62106 0.74003 0.6702 0.0
C420 C 0.63962 0.71761 0.66545 0.0
C421 C 0.6365 0.69806 0.69226 0.0
C422 C 0.62917 0.66819 0.67796 0.0
C423 C 0.66376 0.69851 0.71369 0.0
C424 C 0.61153 0.71152 0.71117 0.0
C425 C 0.60341 0.73613 0.69877 0.0
C426 C 0.57839 0.75009 0.7094 0.0
C427 C 0.56091 0.73825 0.73249 0.0
C428 C 0.56834 0.7125 0.7444 0.0
C429 C 0.59458 0.69972 0.73451 0.0
H430 H 0.77993 0.06787 0.01 0.0
H431 H 0.79212 0.11619 0.10357 0.0
H432 H 0.77289 0.07723 0.13247 0.0
H433 H 0.71502 0.02686 0.03242 0.0
H434 H 0.72817 0.99557 0.01006 0.0
H435 H 0.73678 0.02908 0.99628 0.0
H436 H 0.79109 0.01732 0.99838 0.0
H437 H 0.78267 0.98389 0.01214 0.0
H438 H 0.8065 0.00724 0.03613 0.0
H439 H 0.75816 0.03183 0.15142 0.0
H440 H 0.75369 0.98202 0.15967 0.0
H441 H 0.75334 0.96184 0.05399 0.0
C442 C 0.7775 0.07046 0.03647 0.0
C443 C 0.78677 0.09504 0.0547 0.0
C444 C 0.78464 0.09752 0.08935 0.0
C445 C 0.77363 0.0756 0.10588 0.0
C446 C 0.7652 0.05127 0.08734 0.0
C447 C 0.76719 0.04847 0.05339 0.0
C448 C 0.76091 0.01884 0.03973 0.0
C449 C 0.73359 0.01752 0.01836 0.0
C450 C 0.78684 0.00609 0.02048 0.0
C451 C 0.75614 0.00524 0.07133 0.0
C452 C 0.75791 0.02448 0.09843 0.0
C453 C 0.75622 0.01662 0.13039 0.0
C454 C 0.75352 0.98827 0.13484 0.0
C455 C 0.75298 0.96807 0.10748 0.0
C456 C 0.75353 0.97684 0.07535 0.0
H457 H 0.43388 0.35226 0.58341 0.0
H458 H 0.41466 0.2659 0.59671 0.0
H459 H 0.46573 0.25805 0.61012 0.0
H460 H 0.50368 0.34151 0.54693 0.0
H461 H 0.51898 0.3725 0.56806 0.0
H462 H 0.4811 0.37107 0.55862 0.0
H463 H 0.46914 0.38339 0.62013 0.0
H464 H 0.50694 0.38499 0.6298 0.0
H465 H 0.48367 0.36235 0.65055 0.0
H466 H 0.51911 0.25962 0.62136 0.0
H467 H 0.57014 0.27109 0.6328 0.0
H468 H 0.5534 0.35705 0.61499 0.0
C469 C 0.44045 0.33164 0.58892 0.0
C470 C 0.4204 0.30962 0.58876 0.0
C471 C 0.42971 0.28306 0.59666 0.0
C472 C 0.45866 0.27838 0.6042 0.0
C473 C 0.47789 0.30054 0.60403 0.0
C474 C 0.46912 0.3267 0.59689 0.0
C475 C 0.49379 0.34726 0.5996 0.0
C476 C 0.49973 0.35875 0.56632 0.0
C477 C 0.48804 0.37088 0.62663 0.0
C478 C 0.5179 0.32853 0.60921 0.0
C479 C 0.50836 0.30164 0.61145 0.0
C480 C 0.5268 0.28065 0.61987 0.0
C481 C 0.55572 0.28741 0.62649 0.0
C482 C 0.56588 0.31499 0.62487 0.0
C483 C 0.54656 0.33567 0.61595 0.0
H484 H 0.67213 0.60533 0.41973 0.0
H485 H 0.61154 0.59786 0.49935 0.0
H486 H 0.58765 0.55904 0.46714 0.0
H487 H 0.62159 0.5896 0.35327 0.0
H488 H 0.64679 0.56961 0.32741 0.0
H489 H 0.65952 0.59723 0.35647 0.0
H490 H 0.69354 0.56268 0.38242 0.0
H491 H 0.68094 0.53496 0.35342 0.0
H492 H 0.67888 0.5314 0.39693 0.0
H493 H 0.56981 0.52184 0.42736 0.0
H494 H 0.55968 0.48625 0.38191 0.0
H495 H 0.63166 0.51601 0.32719 0.0
C496 C 0.65388 0.59546 0.43036 0.0
C497 C 0.64382 0.60462 0.46217 0.0
C498 C 0.61984 0.59116 0.47518 0.0
C499 C 0.606 0.56911 0.45704 0.0
C500 C 0.6164 0.56059 0.42591 0.0
C501 C 0.63983 0.57313 0.4126 0.0
C502 C 0.64662 0.55939 0.3786 0.0
C503 C 0.64344 0.5802 0.35239 0.0
C504 C 0.67679 0.54633 0.37781 0.0
C505 C 0.62332 0.53723 0.37507 0.0
C506 C 0.6061 0.53856 0.40267 0.0
C507 C 0.58303 0.52059 0.40552 0.0
C508 C 0.57735 0.50058 0.37947 0.0
C509 C 0.59466 0.49858 0.35087 0.0
C510 C 0.61807 0.5171 0.34875 0.0
H511 H 0.9389 0.18781 0.03811 0.0
H512 H 0.89893 0.19053 0.94252 0.0
H513 H 0.94657 0.19844 0.91789 0.0
H514 H 0.99763 0.23904 0.02743 0.0
H515 H 0.02344 0.21925 0.04869 0.0
H516 H 0.98593 0.21836 0.05959 0.0
H517 H 0.98612 0.16458 0.04947 0.0
H518 H 0.02352 0.16528 0.03848 0.0
H519 H 0.99773 0.14847 0.01021 0.0
H520 H 0.99846 0.20166 0.90306 0.0
H521 H 0.05112 0.19688 0.89804 0.0
H522 H 0.05778 0.19048 0.00314 0.0
C523 C 0.94029 0.19089 0.0122 0.0
C524 C 0.91558 0.18918 0.99209 0.0
C525 C 0.91786 0.19223 0.95813 0.0
C526 C 0.94472 0.19681 0.94406 0.0
C527 C 0.96895 0.19802 0.96439 0.0
C528 C 0.96702 0.19506 0.99772 0.0
C529 C 0.99655 0.19411 0.01335 0.0
C530 C 0.00115 0.21919 0.03877 0.0
C531 C 0.00124 0.16647 0.02877 0.0
C532 C 0.01537 0.19614 0.98346 0.0
C533 C 0.99903 0.19897 0.95561 0.0
C534 C 0.01152 0.19986 0.92476 0.0
C535 C 0.04146 0.19726 0.92218 0.0
C536 C 0.05855 0.19346 0.95022 0.0
C537 C 0.04527 0.1934 0.9813 0.0
H538 H 0.299 0.4311 0.5703 0.0
H539 H 0.25248 0.36959 0.50711 0.0
H540 H 0.23054 0.40734 0.4777 0.0
H541 H 0.24159 0.4869 0.57265 0.0
H542 H 0.26864 0.51372 0.57297 0.0
H543 H 0.27576 0.4823 0.59243 0.0
H544 H 0.32164 0.47405 0.557 0.0
H545 H 0.31465 0.50519 0.53739 0.0
H546 H 0.31869 0.47252 0.51282 0.0
H547 H 0.22188 0.45133 0.44896 0.0
H548 H 0.22644 0.49667 0.42506 0.0
H549 H 0.2764 0.52882 0.5098 0.0
C550 C 0.28349 0.42572 0.55089 0.0
C551 C 0.27726 0.39774 0.54077 0.0
C552 C 0.25715 0.39112 0.51525 0.0
C553 C 0.24464 0.41238 0.49853 0.0
C554 C 0.25199 0.43996 0.50844 0.0
C555 C 0.27055 0.44659 0.53456 0.0
C556 C 0.27737 0.47728 0.53865 0.0
C557 C 0.26509 0.49085 0.5711 0.0
C558 C 0.31 0.48254 0.53629 0.0
C559 C 0.26137 0.48675 0.50945 0.0
C560 C 0.24638 0.46517 0.49253 0.0
C561 C 0.23286 0.46853 0.46251 0.0
C562 C 0.2355 0.4943 0.44912 0.0
C563 C 0.25178 0.51607 0.46567 0.0
C564 C 0.26377 0.51247 0.49674 0.0
H565 H 0.14218 0.83735 0.94878 0.0
H566 H 0.10745 0.75929 0.97664 0.0
H567 H 0.08028 0.75352 0.92427 0.0
H568 H 0.08026 0.8618 0.91788 0.0
H569 H 0.09646 0.87829 0.88455 0.0
H570 H 0.11707 0.8736 0.92092 0.0
H571 H 0.15604 0.84703 0.88566 0.0
H572 H 0.13558 0.85166 0.84896 0.0
H573 H 0.14601 0.81722 0.85819 0.0
H574 H 0.05101 0.76036 0.87349 0.0
H575 H 0.02266 0.77894 0.82912 0.0
H576 H 0.07802 0.85169 0.83379 0.0
C577 C 0.12942 0.81867 0.94358 0.0
C578 C 0.12689 0.79878 0.96682 0.0
C579 C 0.10984 0.77472 0.95912 0.0
C580 C 0.09437 0.77125 0.92941 0.0
C581 C 0.0966 0.7918 0.90752 0.0
C582 C 0.11402 0.81487 0.91414 0.0
C583 C 0.11065 0.83532 0.88838 0.0
C584 C 0.1005 0.86392 0.90387 0.0
C585 C 0.13875 0.83795 0.86915 0.0
C586 C 0.08754 0.82084 0.86704 0.0
C587 C 0.08 0.79555 0.8781 0.0
C588 C 0.0572 0.77979 0.86412 0.0
C589 C 0.04128 0.79047 0.8388 0.0
C590 C 0.04812 0.81677 0.82789 0.0
C591 C 0.07217 0.83156 0.8416 0.0
H592 H 0.86424 0.07837 0.95429 0.0
H593 H 0.81437 0.13264 0.8966 0.0
H594 H 0.82641 0.10276 0.84602 0.0
H595 H 0.92091 0.06441 0.8966 0.0
H596 H 0.9249 0.02871 0.90562 0.0
H597 H 0.91213 0.05437 0.93687 0.0
H598 H 0.86647 0.02467 0.9444 0.0
H599 H 0.87915 0.99885 0.91328 0.0
H600 H 0.84417 0.01428 0.90923 0.0
H601 H 0.84445 0.06622 0.80159 0.0
H602 H 0.86657 0.02669 0.76787 0.0
H603 H 0.90344 0.9971 0.85612 0.0
C604 C 0.85577 0.08409 0.93109 0.0
C605 C 0.83832 0.10785 0.92943 0.0
C606 C 0.82772 0.11447 0.89848 0.0
C607 C 0.83448 0.09765 0.86964 0.0
C608 C 0.85179 0.07435 0.87226 0.0
C609 C 0.86221 0.06761 0.90228 0.0
C610 C 0.88024 0.04152 0.89883 0.0
C611 C 0.91139 0.04763 0.91014 0.0
C612 C 0.86669 0.01847 0.91754 0.0
C613 C 0.87851 0.03455 0.8621 0.0
C614 C 0.86203 0.05363 0.84707 0.0
C615 C 0.85738 0.05118 0.81316 0.0
C616 C 0.86992 0.02862 0.79423 0.0
C617 C 0.88693 0.00892 0.8093 0.0
C618 C 0.89108 0.01207 0.8437 0.0
H619 H 0.39328 0.28918 0.48035 0.0
H620 H 0.31738 0.33623 0.45868 0.0
H621 H 0.33269 0.33623 0.40079 0.0
H622 H 0.43896 0.32752 0.43933 0.0
H623 H 0.46265 0.2998 0.4241 0.0
H624 H 0.44227 0.29659 0.46083 0.0
H625 H 0.42014 0.25033 0.43511 0.0
H626 H 0.44063 0.25335 0.39816 0.0
H627 H 0.40209 0.24945 0.39587 0.0
H628 H 0.35982 0.33866 0.34913 0.0
H629 H 0.39773 0.3455 0.30843 0.0
H630 H 0.45748 0.29893 0.36403 0.0
C631 C 0.37931 0.29828 0.46292 0.0
C632 C 0.35387 0.31214 0.47349 0.0
C633 C 0.33671 0.32513 0.45067 0.0
C634 C 0.34519 0.32511 0.41779 0.0
C635 C 0.37101 0.31219 0.40824 0.0
C636 C 0.38785 0.29896 0.43013 0.0
C637 C 0.41681 0.29091 0.4153 0.0
C638 C 0.44161 0.30453 0.43612 0.0
C639 C 0.4201 0.25912 0.41084 0.0
C640 C 0.4142 0.30296 0.38239 0.0
C641 C 0.38731 0.31444 0.37844 0.0
C642 C 0.38074 0.32926 0.3516 0.0
C643 C 0.40243 0.33317 0.32871 0.0
C644 C 0.43045 0.3226 0.33301 0.0
C645 C 0.43605 0.30657 0.35965 0.0
H646 H 0.17389 0.89086 0.98232 0.0
H647 H 0.25905 0.87785 0.02151 0.0
H648 H 0.27739 0.91745 0.99291 0.0
H649 H 0.1979 0.91701 0.90155 0.0
H650 H 0.16855 0.94145 0.90308 0.0
H651 H 0.16423 0.90841 0.91997 0.0
H652 H 0.14914 0.93416 0.97562 0.0
H653 H 0.15381 0.96716 0.95924 0.0
H654 H 0.17301 0.95978 0.99589 0.0
H655 H 0.28355 0.96399 0.97005 0.0
H656 H 0.27731 0.01184 0.95378 0.0
H657 H 0.18828 0.9933 0.92861 0.0
C658 C 0.19662 0.8958 0.98396 0.0
C659 C 0.21509 0.8815 0.00406 0.0
C660 C 0.24465 0.88849 0.00592 0.0
C661 C 0.25521 0.91092 0.98976 0.0
C662 C 0.23601 0.92556 0.97136 0.0
C663 C 0.20741 0.91787 0.9679 0.0
C664 C 0.1903 0.93867 0.95029 0.0
C665 C 0.17963 0.9256 0.91672 0.0
C666 C 0.16512 0.95064 0.97155 0.0
C667 C 0.21323 0.9603 0.94637 0.0
C668 C 0.23963 0.9522 0.95795 0.0
C669 C 0.2632 0.97023 0.96009 0.0
C670 C 0.25949 0.99735 0.95081 0.0
C671 C 0.23231 0.00618 0.94 0.0
C672 C 0.20928 0.98707 0.93682 0.0
H673 H 0.56245 0.66335 0.51387 0.0
H674 H 0.58759 0.74031 0.47426 0.0
H675 H 0.53812 0.74557 0.45304 0.0
H676 H 0.51674 0.63797 0.44898 0.0
H677 H 0.49052 0.62362 0.47519 0.0
H678 H 0.52754 0.6266 0.48807 0.0
H679 H 0.51223 0.65536 0.54183 0.0
H680 H 0.47511 0.65236 0.52919 0.0
H681 H 0.49077 0.68623 0.53949 0.0
H682 H 0.48659 0.74022 0.43276 0.0
H683 H 0.43686 0.72621 0.4177 0.0
H684 H 0.44527 0.65479 0.47484 0.0
C685 C 0.55754 0.68139 0.50087 0.0
C686 C 0.57881 0.70139 0.49558 0.0
C687 C 0.57151 0.72482 0.47868 0.0
C688 C 0.54353 0.72794 0.4665 0.0
C689 C 0.52311 0.70766 0.47193 0.0
C690 C 0.52973 0.68504 0.48907 0.0
C691 C 0.50405 0.66614 0.49162 0.0
C692 C 0.51008 0.63686 0.47497 0.0
C693 C 0.49501 0.66497 0.52767 0.0
C694 C 0.48204 0.68132 0.47262 0.0
C695 C 0.49337 0.70518 0.46136 0.0
C696 C 0.47734 0.72181 0.44189 0.0
C697 C 0.44901 0.71375 0.43364 0.0
C698 C 0.43693 0.68936 0.44505 0.0
C699 C 0.45377 0.67329 0.46518 0.0
H700 H 0.39274 0.40421 0.63492 0.0
H701 H 0.30572 0.40208 0.67308 0.0
H702 H 0.31827 0.43935 0.71598 0.0
H703 H 0.429 0.41823 0.71433 0.0
H704 H 0.45514 0.44117 0.69848 0.0
H705 H 0.43987 0.4131 0.67189 0.0
H706 H 0.4236 0.44825 0.63119 0.0
H707 H 0.43865 0.47645 0.65766 0.0
H708 H 0.40133 0.47732 0.64569 0.0
H709 H 0.33908 0.47835 0.75253 0.0
H710 H 0.3668 0.51685 0.78077 0.0
H711 H 0.4409 0.49356 0.71993 0.0
C712 C 0.37638 0.41137 0.65248 0.0
C713 C 0.34819 0.40019 0.65057 0.0
C714 C 0.32742 0.41031 0.67396 0.0
C715 C 0.33436 0.43144 0.69848 0.0
C716 C 0.36218 0.44221 0.69941 0.0
C717 C 0.38291 0.43252 0.67713 0.0
C718 C 0.41089 0.44845 0.68287 0.0
C719 C 0.43516 0.42908 0.69247 0.0
C720 C 0.41908 0.46351 0.65255 0.0
C721 C 0.40245 0.46891 0.71154 0.0
C722 C 0.37432 0.46477 0.72077 0.0
C723 C 0.36126 0.48158 0.74586 0.0
C724 C 0.37731 0.50331 0.76193 0.0
C725 C 0.40623 0.50813 0.75295 0.0
C726 C 0.41889 0.49051 0.72742 0.0
H727 H 0.06922 0.84371 0.08708 0.0
H728 H 0.09276 0.75943 0.10552 0.0
H729 H 0.0431 0.75093 0.12361 0.0
H730 H 0.01962 0.8555 0.15699 0.0
H731 H 0.99532 0.87571 0.13421 0.0
H732 H 0.03324 0.87556 0.12521 0.0
H733 H 0.02196 0.85983 0.06415 0.0
H734 H 0.98408 0.85961 0.07299 0.0
H735 H 0.00109 0.82867 0.05418 0.0
H736 H 0.98971 0.75035 0.13438 0.0
H737 H 0.93754 0.7586 0.14037 0.0
H738 H 0.9499 0.84405 0.11751 0.0
C739 C 0.06405 0.82356 0.09529 0.0
C740 C 0.0848 0.80219 0.09474 0.0
C741 C 0.07721 0.77614 0.10581 0.0
C742 C 0.04906 0.7711 0.11607 0.0
C743 C 0.02895 0.79245 0.11556 0.0
C744 C 0.03621 0.81828 0.1059 0.0
C745 C 0.0105 0.83749 0.10678 0.0
C746 C 0.01494 0.86254 0.13232 0.0
C747 C 0.00404 0.84694 0.07248 0.0
C748 C 0.9874 0.81816 0.11747 0.0
C749 C 0.99844 0.79232 0.12255 0.0
C750 C 0.98089 0.77066 0.13103 0.0
C751 C 0.95128 0.77559 0.13449 0.0
C752 C 0.9395 0.80201 0.12953 0.0
C753 C 0.95803 0.82352 0.12114 0.0
H754 H 0.72648 0.59534 0.53632 0.0
H755 H 0.69709 0.64664 0.62224 0.0
H756 H 0.71203 0.61016 0.65759 0.0
H757 H 0.69794 0.5354 0.55845 0.0
H758 H 0.72615 0.51259 0.54226 0.0
H759 H 0.71978 0.54491 0.52479 0.0
H760 H 0.77285 0.55952 0.53579 0.0
H761 H 0.77949 0.52703 0.55317 0.0
H762 H 0.78748 0.55951 0.57674 0.0
H763 H 0.72315 0.56568 0.68224 0.0
H764 H 0.72681 0.51637 0.69366 0.0
H765 H 0.74737 0.49361 0.59133 0.0
C766 C 0.72424 0.59937 0.5627 0.0
C767 C 0.711 0.62394 0.57662 0.0
C768 C 0.70743 0.62803 0.61114 0.0
C769 C 0.71598 0.60749 0.6314 0.0
C770 C 0.72803 0.58301 0.61673 0.0
C771 C 0.7322 0.57892 0.58313 0.0
C772 C 0.74152 0.54939 0.57283 0.0
C773 C 0.72006 0.53473 0.54815 0.0
C774 C 0.77216 0.54884 0.55881 0.0
C775 C 0.74066 0.53713 0.60564 0.0
C776 C 0.7336 0.557 0.63081 0.0
C777 C 0.72928 0.55007 0.66286 0.0
C778 C 0.73149 0.52203 0.66915 0.0
C779 C 0.7375 0.50125 0.64339 0.0
C780 C 0.7429 0.50911 0.61149 0.0
H781 H 0.8872 0.13615 0.10981 0.0
H782 H 0.84658 0.21613 0.13486 0.0
H783 H 0.86717 0.21707 0.19114 0.0
H784 H 0.87848 0.10851 0.1892 0.0
H785 H 0.91289 0.09132 0.18644 0.0
H786 H 0.89288 0.09635 0.14958 0.0
H787 H 0.93665 0.12175 0.1266 0.0
H788 H 0.95676 0.11681 0.1633 0.0
H789 H 0.95206 0.15134 0.15051 0.0
H790 H 0.89604 0.2101 0.24383 0.0
H791 H 0.92912 0.19574 0.28703 0.0
H792 H 0.95021 0.12104 0.22472 0.0
C793 C 0.8823 0.15383 0.12711 0.0
C794 C 0.86538 0.17613 0.11789 0.0
C795 C 0.85949 0.19877 0.14142 0.0
C796 C 0.87108 0.19947 0.17341 0.0
C797 C 0.88822 0.17726 0.18139 0.0
C798 C 0.89357 0.15482 0.15881 0.0
C799 C 0.91363 0.13409 0.1724 0.0
C800 C 0.89856 0.10591 0.17454 0.0
C801 C 0.94141 0.13083 0.152 0.0
C802 C 0.91928 0.1485 0.20611 0.0
C803 C 0.9044 0.17328 0.21114 0.0
C804 C 0.90753 0.19059 0.24019 0.0
C805 C 0.92646 0.18234 0.26451 0.0
C806 C 0.942 0.15706 0.25951 0.0
C807 C 0.93807 0.14005 0.22989 0.0
H808 H 0.19997 0.73648 0.13553 0.0
H809 H 0.18546 0.82217 0.17357 0.0
H810 H 0.18555 0.80811 0.2301 0.0
H811 H 0.15829 0.70303 0.19874 0.0
H812 H 0.18403 0.67534 0.20086 0.0
H813 H 0.17894 0.69122 0.16292 0.0
H814 H 0.2334 0.70259 0.1612 0.0
H815 H 0.23865 0.68658 0.1989 0.0
H816 H 0.24999 0.72203 0.19603 0.0
H817 H 0.1909 0.78612 0.28212 0.0
H818 H 0.20538 0.75794 0.32696 0.0
H819 H 0.21837 0.68668 0.25603 0.0
C820 C 0.19633 0.75211 0.1558 0.0
C821 C 0.19265 0.78035 0.15032 0.0
C822 C 0.18849 0.80041 0.17736 0.0
C823 C 0.18822 0.79261 0.20951 0.0
C824 C 0.19225 0.76469 0.21424 0.0
C825 C 0.19646 0.74473 0.18823 0.0
C826 C 0.20331 0.71671 0.20043 0.0
C827 C 0.17973 0.69531 0.19012 0.0
C828 C 0.2331 0.70639 0.18844 0.0
C829 C 0.2031 0.72431 0.23726 0.0
C830 C 0.19606 0.75197 0.24463 0.0
C831 C 0.19617 0.76435 0.27675 0.0
C832 C 0.20451 0.74825 0.30201 0.0
C833 C 0.21289 0.72017 0.29492 0.0
C834 C 0.21144 0.70792 0.26222 0.0
H835 H 0.76491 0.70749 0.56461 0.0
H836 H 0.74402 0.76144 0.48846 0.0
H837 H 0.78599 0.79101 0.50465 0.0
H838 H 0.78178 0.76113 0.62403 0.0
H839 H 0.81057 0.74326 0.64301 0.0
H840 H 0.78206 0.72364 0.62201 0.0
H841 H 0.81942 0.69627 0.58502 0.0
H842 H 0.84812 0.71587 0.60595 0.0
H843 H 0.84475 0.71498 0.56187 0.0
H844 H 0.827 0.81687 0.53174 0.0
H845 H 0.86255 0.83934 0.57046 0.0
H846 H 0.85539 0.77034 0.63136 0.0
C847 C 0.76975 0.72511 0.55084 0.0
C848 C 0.7516 0.7321 0.52506 0.0
C849 C 0.75785 0.75577 0.5082 0.0
C850 C 0.7817 0.77255 0.51707 0.0
C851 C 0.79892 0.76548 0.54303 0.0
C852 C 0.79321 0.74243 0.55983 0.0
C853 C 0.81305 0.7414 0.58924 0.0
C854 C 0.79583 0.74244 0.62147 0.0
C855 C 0.83249 0.7156 0.58527 0.0
C856 C 0.83023 0.76786 0.58682 0.0
C857 C 0.8221 0.78109 0.55959 0.0
C858 C 0.83373 0.80662 0.55302 0.0
C859 C 0.85375 0.8193 0.57526 0.0
C860 C 0.86168 0.80665 0.60397 0.0
C861 C 0.85017 0.78029 0.60935 0.0
H862 H 0.7735 0.24507 0.08769 0.0
H863 H 0.72066 0.17783 0.04227 0.0
H864 H 0.67834 0.19751 0.07191 0.0
H865 H 0.73934 0.2481 0.16701 0.0
H866 H 0.74188 0.28543 0.17414 0.0
H867 H 0.76813 0.26646 0.14879 0.0
H868 H 0.75677 0.29689 0.10116 0.0
H869 H 0.73041 0.3159 0.12633 0.0
H870 H 0.72024 0.29923 0.08673 0.0
H871 H 0.64164 0.22453 0.10524 0.0
H872 H 0.61292 0.2563 0.1425 0.0
H873 H 0.68962 0.30497 0.1688 0.0
C874 C 0.753 0.23456 0.0839 0.0
C875 C 0.7504 0.20996 0.06253 0.0
C876 C 0.72324 0.19667 0.05851 0.0
C877 C 0.69902 0.20771 0.07517 0.0
C878 C 0.7023 0.23195 0.09597 0.0
C879 C 0.72858 0.24516 0.10061 0.0
C880 C 0.72621 0.2706 0.12504 0.0
C881 C 0.745 0.26744 0.15555 0.0
C882 C 0.73386 0.29723 0.10884 0.0
C883 C 0.69447 0.26963 0.13323 0.0
C884 C 0.68113 0.24722 0.11603 0.0
C885 C 0.65187 0.24202 0.11911 0.0
C886 C 0.63579 0.2601 0.14056 0.0
C887 C 0.649 0.28301 0.15896 0.0
C888 C 0.67877 0.28781 0.155 0.0
H889 H 0.30596 0.24448 0.6483 0.0
H890 H 0.33551 0.32424 0.69354 0.0
H891 H 0.33303 0.30643 0.74819 0.0
H892 H 0.25427 0.23447 0.70579 0.0
H893 H 0.25869 0.19738 0.70607 0.0
H894 H 0.26804 0.21423 0.67003 0.0
H895 H 0.31954 0.19392 0.67166 0.0
H896 H 0.31029 0.17686 0.70775 0.0
H897 H 0.34085 0.19995 0.70859 0.0
H898 H 0.32083 0.28305 0.79771 0.0
H899 H 0.29937 0.25521 0.83935 0.0
H900 H 0.277 0.1906 0.76281 0.0
C901 C 0.31279 0.25779 0.66967 0.0
C902 C 0.3211 0.28561 0.66684 0.0
C903 C 0.32909 0.30282 0.69532 0.0
C904 C 0.32793 0.29285 0.72641 0.0
C905 C 0.31876 0.26562 0.7286 0.0
C906 C 0.31143 0.24823 0.70104 0.0
C907 C 0.29905 0.22103 0.7106 0.0
C908 C 0.26819 0.21654 0.69734 0.0
C909 C 0.31861 0.19649 0.69896 0.0
C910 C 0.2995 0.22637 0.74773 0.0
C911 C 0.31142 0.25203 0.75757 0.0
C912 C 0.31196 0.26268 0.79042 0.0
C913 C 0.29959 0.24684 0.81384 0.0
C914 C 0.2868 0.22075 0.80423 0.0
C915 C 0.28729 0.2102 0.77085 0.0
H916 H 0.67517 0.75285 0.42107 0.0
H917 H 0.68675 0.66436 0.39645 0.0
H918 H 0.69191 0.6724 0.33777 0.0
H919 H 0.63838 0.7693 0.34336 0.0
H920 H 0.65774 0.8016 0.34231 0.0
H921 H 0.64936 0.78854 0.38121 0.0
H922 H 0.70335 0.7907 0.39727 0.0
H923 H 0.71185 0.80378 0.35858 0.0
H924 H 0.72929 0.77281 0.37037 0.0
H925 H 0.7006 0.69016 0.2834 0.0
H926 H 0.71673 0.7165 0.23775 0.0
H927 H 0.70303 0.79394 0.29816 0.0
C928 C 0.6779 0.73518 0.40306 0.0
C929 C 0.68011 0.70796 0.41287 0.0
C930 C 0.68479 0.68532 0.3891 0.0
C931 C 0.68754 0.68968 0.35579 0.0
C932 C 0.68586 0.71685 0.34683 0.0
C933 C 0.68137 0.73927 0.36977 0.0
C934 C 0.68444 0.76658 0.3544 0.0
C935 C 0.65577 0.78244 0.35538 0.0
C936 C 0.70867 0.7845 0.37114 0.0
C937 C 0.69227 0.75603 0.31953 0.0
C938 C 0.69225 0.72728 0.31553 0.0
C939 C 0.70047 0.71268 0.28612 0.0
C940 C 0.70977 0.72782 0.26042 0.0
C941 C 0.71125 0.75727 0.26443 0.0
C942 C 0.70162 0.77149 0.29411 0.0
H943 H 0.76607 0.21644 0.93146 0.0
H944 H 0.85484 0.24248 0.94758 0.0
H945 H 0.85183 0.2704 0.89989 0.0
H946 H 0.76792 0.21064 0.84312 0.0
H947 H 0.73207 0.22405 0.83885 0.0
H948 H 0.74126 0.20583 0.87408 0.0
H949 H 0.7248 0.24822 0.91291 0.0
H950 H 0.71543 0.26651 0.87782 0.0
H951 H 0.74008 0.28202 0.90835 0.0
H952 H 0.83932 0.29508 0.85005 0.0
H953 H 0.81765 0.31599 0.80278 0.0
H954 H 0.73659 0.27524 0.82083 0.0
C955 C 0.7849 0.22798 0.92496 0.0
C956 C 0.81067 0.22731 0.94329 0.0
C957 C 0.83479 0.24282 0.93404 0.0
C958 C 0.83334 0.25866 0.90691 0.0
C959 C 0.80761 0.25886 0.8894 0.0
C960 C 0.78378 0.24406 0.89813 0.0
C961 C 0.75855 0.24822 0.87558 0.0
C962 C 0.74943 0.22054 0.8568 0.0
C963 C 0.73323 0.26207 0.89482 0.0
C964 C 0.77194 0.26766 0.85279 0.0
C965 C 0.80027 0.27345 0.86106 0.0
C966 C 0.81709 0.29083 0.84345 0.0
C967 C 0.80453 0.30275 0.81675 0.0
C968 C 0.77537 0.29736 0.80805 0.0
C969 C 0.75902 0.27951 0.82644 0.0
H970 H 0.27402 0.25581 0.50583 0.0
H971 H 0.22274 0.29539 0.58546 0.0
H972 H 0.17954 0.27106 0.56219 0.0
H973 H 0.22093 0.25933 0.44254 0.0
H974 H 0.23027 0.22603 0.42183 0.0
H975 H 0.25714 0.24636 0.44502 0.0
H976 H 0.26745 0.20485 0.47949 0.0
H977 H 0.24058 0.18439 0.45646 0.0
H978 H 0.2383 0.18948 0.50064 0.0
H979 H 0.14184 0.2424 0.53 0.0
H980 H 0.11261 0.21162 0.49133 0.0
H981 H 0.18866 0.19156 0.43262 0.0
C982 C 0.25376 0.25934 0.5185 0.0
C983 C 0.25184 0.27747 0.54757 0.0
C984 C 0.22481 0.28157 0.5632 0.0
C985 C 0.20013 0.26784 0.55018 0.0
C986 C 0.20283 0.25012 0.52151 0.0
C987 C 0.22895 0.24587 0.50586 0.0
C988 C 0.22606 0.22594 0.47525 0.0
C989 C 0.23407 0.24028 0.44433 0.0
C990 C 0.24417 0.19961 0.47815 0.0
C991 C 0.19422 0.2196 0.47613 0.0
C992 C 0.18117 0.23374 0.50297 0.0
C993 C 0.15182 0.23125 0.50885 0.0
C994 C 0.13537 0.21385 0.48666 0.0
C995 C 0.14833 0.19916 0.45895 0.0
C996 C 0.17817 0.20218 0.45379 0.0
H997 H 0.27709 0.78664 0.02909 0.0
H998 H 0.20792 0.73011 0.99608 0.0
H999 H 0.24236 0.70068 0.96358 0.0
H1000 H 0.3149 0.7821 0.95187 0.0
H1001 H 0.35023 0.78337 0.97027 0.0
H1002 H 0.3204 0.80003 0.99205 0.0
H1003 H 0.33051 0.7715 0.04168 0.0
H1004 H 0.3604 0.75477 0.02007 0.0
H1005 H 0.33199 0.73406 0.03543 0.0
H1006 H 0.28324 0.67722 0.93494 0.0
H1007 H 0.32903 0.66122 0.90994 0.0
H1008 H 0.37273 0.73275 0.95952 0.0
C1009 C 0.26927 0.76798 0.01517 0.0
C1010 C 0.23977 0.76067 0.01527 0.0
C1011 C 0.23035 0.73623 0.99642 0.0
C1012 C 0.24976 0.7193 0.97788 0.0
C1013 C 0.27856 0.7271 0.97819 0.0
C1014 C 0.2884 0.75086 0.99615 0.0
C1015 C 0.32052 0.75456 0.99136 0.0
C1016 C 0.32688 0.78162 0.97544 0.0
C1017 C 0.33681 0.75366 0.02409 0.0
C1018 C 0.32705 0.72913 0.96797 0.0
C1019 C 0.30245 0.7136 0.96096 0.0
C1020 C 0.3027 0.68911 0.94028 0.0
C1021 C 0.32885 0.68013 0.92636 0.0
C1022 C 0.35445 0.69559 0.93306 0.0
C1023 C 0.35347 0.72056 0.95398 0.0
loop_
_geom_bond_atom_site_label_1
_geom_bond_atom_site_label_2
_geom_bond_distance
_geom_bond_site_symmetry_2
_ccdc_geom_bond_type
Fe0 O2 1.918 . S
Fe0 O5 1.997 . S
Fe0 O6 2.002 . S
Fe0 O11 1.976 . S
Fe0 O14 1.996 . S
Fe1 O2 1.918 . S
Fe1 O9 1.997 . S
Fe1 O12 1.996 . S
Fe1 O16 1.976 . S
Fe1 O19 2.002 . S
O2 Fe0 1.918 . S
O2 Fe1 1.918 . S
O2 Fe3 1.918 . S
Fe3 O2 1.918 . S
Fe3 O4 2.002 . S
Fe3 O13 1.976 . S
Fe3 O17 1.996 . S
Fe3 O20 1.997 . S
O4 Fe3 2.002 . S
O4 C21 1.295 . S
O5 Fe0 1.997 . S
O5 C21 1.235 . S
O6 Fe0 2.002 . S
O6 C7 1.295 . S
C7 O6 1.295 . S
C7 O9 1.235 . S
C8 O13 1.287 . S
C8 O14 1.255 . S
O9 Fe1 1.997 . S
O9 C7 1.235 . S
C10 O16 1.287 1_556 S
C10 O17 1.255 1_556 S
O11 Fe0 1.976 . S
O11 C18 1.287 . S
O12 Fe1 1.996 . S
O12 C18 1.255 . S
O13 Fe3 1.976 . S
O13 C8 1.287 . S
O14 Fe0 1.996 . S
O14 C8 1.255 . S
C15 O19 1.295 . S
C15 O20 1.235 . S
O16 Fe1 1.976 . S
O16 C10 1.287 1_554 S
O17 Fe3 1.996 . S
O17 C10 1.255 1_554 S
C18 O11 1.287 . S
C18 O12 1.255 . S
O19 Fe1 2.002 . S
O19 C15 1.295 . S
O20 Fe3 1.997 . S
O20 C15 1.235 . S
C21 O4 1.295 . S
C21 O5 1.235 . S
Fe22 O24 1.918 . S
Fe22 O27 1.997 . S
Fe22 O28 2.002 . S
Fe22 O33 1.976 . S
Fe22 O36 1.996 . S
Fe23 O24 1.918 . S
Fe23 O31 1.997 . S
Fe23 O34 1.996 . S
Fe23 O38 1.976 . S
Fe23 O41 2.002 . S
O24 Fe22 1.918 . S
O24 Fe23 1.918 . S
O24 Fe25 1.918 . S
Fe25 O24 1.918 . S
Fe25 O26 2.002 . S
Fe25 O35 1.976 . S
Fe25 O39 1.996 . S
Fe25 O42 1.997 . S
O26 Fe25 2.002 . S
O26 C43 1.295 . S
O27 Fe22 1.997 . S
O27 C43 1.235 . S
O28 Fe22 2.002 . S
O28 C29 1.295 . S
C29 O28 1.295 . S
C29 O31 1.235 . S
C30 O35 1.287 . S
C30 O36 1.255 . S
O31 Fe23 1.997 . S
O31 C29 1.235 . S
C32 O38 1.287 . S
C32 O39 1.255 . S
O33 Fe22 1.976 . S
O33 C40 1.287 . S
O34 Fe23 1.996 . S
O34 C40 1.255 . S
O35 Fe25 1.976 . S
O35 C30 1.287 . S
O36 Fe22 1.996 . S
O36 C30 1.255 . S
C37 O41 1.295 . S
C37 O42 1.235 . S
O38 Fe23 1.976 . S
O38 C32 1.287 . S
O39 Fe25 1.996 . S
O39 C32 1.255 . S
C40 O33 1.287 . S
C40 O34 1.255 . S
O41 Fe23 2.002 . S
O41 C37 1.295 . S
O42 Fe25 1.997 . S
O42 C37 1.235 . S
C43 O26 1.295 . S
C43 O27 1.235 . S
Fe44 O46 1.918 . S
Fe44 O49 1.997 1_554 S
Fe44 O50 2.002 . S
Fe44 O55 1.976 . S
Fe44 O58 1.996 . S
Fe45 O46 1.918 . S
Fe45 O53 1.997 . S
Fe45 O56 1.996 . S
Fe45 O60 1.976 . S
Fe45 O63 2.002 1_554 S
O46 Fe44 1.918 . S
O46 Fe45 1.918 . S
O46 Fe47 1.918 1_554 S
Fe47 O46 1.918 1_556 S
Fe47 O48 2.002 . S
Fe47 O57 1.976 1_556 S
Fe47 O61 1.996 1_556 S
Fe47 O64 1.997 . S
O48 Fe47 2.002 . S
O48 C65 1.295 . S
O49 Fe44 1.997 1_556 S
O49 C65 1.235 . S
O50 Fe44 2.002 . S
O50 C51 1.295 1_554 S
C51 O50 1.295 1_556 S
C51 O53 1.235 1_556 S
C52 O57 1.287 . S
C52 O58 1.255 . S
O53 Fe45 1.997 . S
O53 C51 1.235 1_554 S
C54 O60 1.287 . S
C54 O61 1.255 . S
O55 Fe44 1.976 . S
O55 C62 1.287 . S
O56 Fe45 1.996 . S
O56 C62 1.255 . S
O57 Fe47 1.976 1_554 S
O57 C52 1.287 . S
O58 Fe44 1.996 . S
O58 C52 1.255 . S
C59 O63 1.295 . S
C59 O64 1.235 . S
O60 Fe45 1.976 . S
O60 C54 1.287 . S
O61 Fe47 1.996 1_554 S
O61 C54 1.255 . S
C62 O55 1.287 . S
C62 O56 1.255 . S
O63 Fe45 2.002 1_556 S
O63 C59 1.295 . S
O64 Fe47 1.997 . S
O64 C59 1.235 . S
C65 O48 1.295 . S
C65 O49 1.235 . S
Fe66 O68 1.918 . S
Fe66 O71 1.997 . S
Fe66 O72 2.002 . S
Fe66 O77 1.976 . S
Fe66 O80 1.996 . S
Fe67 O68 1.918 . S
Fe67 O75 1.997 . S
Fe67 O78 1.996 . S
Fe67 O82 1.976 . S
Fe67 O85 2.002 . S
O68 Fe66 1.918 . S
O68 Fe67 1.918 . S
O68 Fe69 1.918 . S
Fe69 O68 1.918 . S
Fe69 O70 2.002 . S
Fe69 O79 1.976 . S
Fe69 O83 1.996 . S
Fe69 O86 1.997 . S
O70 Fe69 2.002 . S
O70 C87 1.295 . S
O71 Fe66 1.997 . S
O71 C87 1.235 . S
O72 Fe66 2.002 . S
O72 C73 1.295 . S
C73 O72 1.295 . S
C73 O75 1.235 . S
C74 O79 1.287 . S
C74 O80 1.255 . S
O75 Fe67 1.997 . S
O75 C73 1.235 . S
C76 O82 1.287 . S
C76 O83 1.255 . S
O77 Fe66 1.976 . S
O77 C84 1.287 . S
O78 Fe67 1.996 . S
O78 C84 1.255 . S
O79 Fe69 1.976 . S
O79 C74 1.287 . S
O80 Fe66 1.996 . S
O80 C74 1.255 . S
C81 O85 1.295 . S
C81 O86 1.235 . S
O82 Fe67 1.976 . S
O82 C76 1.287 . S
O83 Fe69 1.996 . S
O83 C76 1.255 . S
C84 O77 1.287 . S
C84 O78 1.255 . S
O85 Fe67 2.002 . S
O85 C81 1.295 . S
O86 Fe69 1.997 . S
O86 C81 1.235 . S
C87 O70 1.295 . S
C87 O71 1.235 . S
C88 C89 1.384 . S
C88 H101 0.947 . S
C88 C123 1.382 1_655 S
C89 C88 1.384 . S
C89 C90 1.378 . S
C90 C89 1.378 . S
C90 C91 1.378 1_655 S
C90 H102 0.952 . S
C91 C90 1.378 1_455 S
C91 H103 0.950 . S
C91 C122 1.383 . S
H92 C111 0.947 . S
H93 C112 0.946 . S
H94 C114 0.953 . S
H95 C115 0.945 . S
H96 C117 0.952 . S
H97 C118 0.949 . S
H98 C120 0.950 . S
H99 C121 0.948 . S
H100 C123 0.951 . S
H101 C88 0.947 . S
H102 C90 0.952 . S
H103 C91 0.950 . S
N104 C107 1.382 . S
N104 C109 1.363 . S
N105 C107 1.371 . S
N105 C108 1.372 . S
N106 C108 1.361 . S
N106 C109 1.377 . S
C107 N104 1.382 . S
C107 N105 1.371 . S
C107 C110 1.480 . S
C108 N105 1.372 . S
C108 N106 1.361 . S
C108 C116 1.457 . S
C109 N104 1.363 . S
C109 N106 1.377 . S
C109 C122 1.479 . S
C110 C107 1.480 . S
C110 C111 1.383 . S
C110 C115 1.385 . S
C111 H92 0.947 . S
C111 C110 1.383 . S
C111 C112 1.388 . S
C112 H93 0.946 . S
C112 C111 1.388 . S
C112 C113 1.384 . S
C113 C112 1.384 . S
C113 C114 1.377 . S
C114 H94 0.953 . S
C114 C113 1.377 . S
C114 C115 1.369 . S
C115 H95 0.945 . S
C115 C110 1.385 . S
C115 C114 1.369 . S
C116 C108 1.457 . S
C116 C117 1.372 . S
C116 C121 1.364 . S
C117 H96 0.952 . S
C117 C116 1.372 . S
C117 C118 1.389 . S
C118 H97 0.949 . S
C118 C117 1.389 . S
C118 C119 1.387 . S
C119 C118 1.387 . S
C119 C120 1.372 . S
C120 H98 0.950 . S
C120 C119 1.372 . S
C120 C121 1.379 . S
C121 H99 0.948 . S
C121 C116 1.364 . S
C121 C120 1.379 . S
C122 C91 1.383 . S
C122 C109 1.479 . S
C122 C123 1.398 . S
C123 C88 1.382 1_455 S
C123 H100 0.951 . S
C123 C122 1.398 . S
C124 C125 1.384 . S
C124 H137 0.947 . S
C124 C159 1.382 . S
C125 C124 1.384 . S
C125 C126 1.378 . S
C126 C125 1.378 . S
C126 C127 1.378 . S
C126 H138 0.952 . S
C127 C126 1.378 . S
C127 H139 0.950 . S
C127 C158 1.383 . S
H128 C147 0.947 . S
H129 C148 0.946 . S
H130 C150 0.953 . S
H131 C151 0.945 . S
H132 C153 0.952 . S
H133 C154 0.949 . S
H134 C156 0.950 . S
H135 C157 0.948 . S
H136 C159 0.951 . S
H137 C124 0.947 . S
H138 C126 0.952 . S
H139 C127 0.950 . S
N140 C143 1.382 . S
N140 C145 1.363 . S
N141 C143 1.371 . S
N141 C144 1.372 . S
N142 C144 1.361 . S
N142 C145 1.377 . S
C143 N140 1.382 . S
C143 N141 1.371 . S
C143 C146 1.480 . S
C144 N141 1.372 . S
C144 N142 1.361 . S
C144 C152 1.457 . S
C145 N140 1.363 . S
C145 N142 1.377 . S
C145 C158 1.479 . S
C146 C143 1.480 . S
C146 C147 1.383 . S
C146 C151 1.385 . S
C147 H128 0.947 . S
C147 C146 1.383 . S
C147 C148 1.388 . S
C148 H129 0.946 . S
C148 C147 1.388 . S
C148 C149 1.384 . S
C149 C148 1.384 . S
C149 C150 1.377 . S
C150 H130 0.953 . S
C150 C149 1.377 . S
C150 C151 1.369 . S
C151 H131 0.945 . S
C151 C146 1.385 . S
C151 C150 1.369 . S
C152 C144 1.457 . S
C152 C153 1.372 . S
C152 C157 1.364 . S
C153 H132 0.952 . S
C153 C152 1.372 . S
C153 C154 1.389 . S
C154 H133 0.949 . S
C154 C153 1.389 . S
C154 C155 1.387 . S
C155 C154 1.387 . S
C155 C156 1.372 . S
C156 H134 0.950 . S
C156 C155 1.372 . S
C156 C157 1.379 . S
C157 H135 0.948 . S
C157 C152 1.364 . S
C157 C156 1.379 . S
C158 C127 1.383 . S
C158 C145 1.479 . S
C158 C159 1.398 . S
C159 C124 1.382 . S
C159 H136 0.951 . S
C159 C158 1.398 . S
C160 C161 1.384 . S
C160 H173 0.947 . S
C160 C195 1.382 . S
C161 C160 1.384 . S
C161 C162 1.378 . S
C162 C161 1.378 . S
C162 C163 1.378 . S
C162 H174 0.952 . S
C163 C162 1.378 . S
C163 H175 0.950 . S
C163 C194 1.383 . S
H164 C183 0.947 . S
H165 C184 0.946 . S
H166 C186 0.953 . S
H167 C187 0.945 . S
H168 C189 0.952 . S
H169 C190 0.949 . S
H170 C192 0.950 . S
H171 C193 0.948 . S
H172 C195 0.951 . S
H173 C160 0.947 . S
H174 C162 0.952 . S
H175 C163 0.950 . S
N176 C179 1.382 . S
N176 C181 1.363 . S
N177 C179 1.371 . S
N177 C180 1.372 . S
N178 C180 1.361 . S
N178 C181 1.377 . S
C179 N176 1.382 . S
C179 N177 1.371 . S
C179 C182 1.480 . S
C180 N177 1.372 . S
C180 N178 1.361 . S
C180 C188 1.457 . S
C181 N176 1.363 . S
C181 N178 1.377 . S
C181 C194 1.479 . S
C182 C179 1.480 . S
C182 C183 1.383 . S
C182 C187 1.385 . S
C183 H164 0.947 . S
C183 C182 1.383 . S
C183 C184 1.388 . S
C184 H165 0.946 . S
C184 C183 1.388 . S
C184 C185 1.384 . S
C185 C184 1.384 . S
C185 C186 1.377 . S
C186 H166 0.953 . S
C186 C185 1.377 . S
C186 C187 1.369 . S
C187 H167 0.945 . S
C187 C182 1.385 . S
C187 C186 1.369 . S
C188 C180 1.457 . S
C188 C189 1.372 . S
C188 C193 1.364 . S
C189 H168 0.952 . S
C189 C188 1.372 . S
C189 C190 1.389 . S
C190 H169 0.949 . S
C190 C189 1.389 . S
C190 C191 1.387 . S
C191 C190 1.387 . S
C191 C192 1.372 . S
C192 H170 0.950 . S
C192 C191 1.372 . S
C192 C193 1.379 . S
C193 H171 0.948 . S
C193 C188 1.364 . S
C193 C192 1.379 . S
C194 C163 1.383 . S
C194 C181 1.479 . S
C194 C195 1.398 . S
C195 C160 1.382 . S
C195 H172 0.951 . S
C195 C194 1.398 . S
C196 C197 1.384 . S
C196 H209 0.947 . S
C196 C231 1.382 . S
C197 C196 1.384 . S
C197 C198 1.378 . S
C198 C197 1.378 . S
C198 C199 1.378 . S
C198 H210 0.952 . S
C199 C198 1.378 . S
C199 H211 0.950 . S
C199 C230 1.383 . S
H200 C219 0.947 . S
H201 C220 0.946 . S
H202 C222 0.953 . S
H203 C223 0.945 . S
H204 C225 0.952 . S
H205 C226 0.949 . S
H206 C228 0.950 . S
H207 C229 0.948 . S
H208 C231 0.951 . S
H209 C196 0.947 . S
H210 C198 0.952 . S
H211 C199 0.950 . S
N212 C215 1.382 . S
N212 C217 1.363 . S
N213 C215 1.371 . S
N213 C216 1.372 . S
N214 C216 1.361 . S
N214 C217 1.377 . S
C215 N212 1.382 . S
C215 N213 1.371 . S
C215 C218 1.480 . S
C216 N213 1.372 . S
C216 N214 1.361 . S
C216 C224 1.457 . S
C217 N212 1.363 . S
C217 N214 1.377 . S
C217 C230 1.479 . S
C218 C215 1.480 . S
C218 C219 1.383 . S
C218 C223 1.385 . S
C219 H200 0.947 . S
C219 C218 1.383 . S
C219 C220 1.388 . S
C220 H201 0.946 . S
C220 C219 1.388 . S
C220 C221 1.384 . S
C221 C220 1.384 . S
C221 C222 1.377 . S
C222 H202 0.953 . S
C222 C221 1.377 . S
C222 C223 1.369 . S
C223 H203 0.945 . S
C223 C218 1.385 . S
C223 C222 1.369 . S
C224 C216 1.457 . S
C224 C225 1.372 . S
C224 C229 1.364 . S
C225 H204 0.952 . S
C225 C224 1.372 . S
C225 C226 1.389 . S
C226 H205 0.949 . S
C226 C225 1.389 . S
C226 C227 1.387 . S
C227 C226 1.387 . S
C227 C228 1.372 . S
C228 H206 0.950 . S
C228 C227 1.372 . S
C228 C229 1.379 . S
C229 H207 0.948 . S
C229 C224 1.364 . S
C229 C228 1.379 . S
C230 C199 1.383 . S
C230 C217 1.479 . S
C230 C231 1.398 . S
C231 C196 1.382 . S
C231 H208 0.951 . S
C231 C230 1.398 . S
C232 C233 1.384 . S
C232 H245 0.947 . S
C232 C267 1.382 . S
C233 C232 1.384 . S
C233 C234 1.378 . S
C234 C233 1.378 . S
C234 C235 1.378 . S
C234 H246 0.952 . S
C235 C234 1.378 . S
C235 H247 0.950 . S
C235 C266 1.383 . S
H236 C255 0.947 . S
H237 C256 0.946 . S
H238 C258 0.953 . S
H239 C259 0.945 . S
H240 C261 0.952 . S
H241 C262 0.949 . S
H242 C264 0.950 . S
H243 C265 0.948 . S
H244 C267 0.951 . S
H245 C232 0.947 . S
H246 C234 0.952 . S
H247 C235 0.950 . S
N248 C251 1.382 . S
N248 C253 1.363 . S
N249 C251 1.371 . S
N249 C252 1.372 . S
N250 C252 1.361 . S
N250 C253 1.377 . S
C251 N248 1.382 . S
C251 N249 1.371 . S
C251 C254 1.480 . S
C252 N249 1.372 . S
C252 N250 1.361 . S
C252 C260 1.457 . S
C253 N248 1.363 . S
C253 N250 1.377 . S
C253 C266 1.479 . S
C254 C251 1.480 . S
C254 C255 1.383 . S
C254 C259 1.385 . S
C255 H236 0.947 . S
C255 C254 1.383 . S
C255 C256 1.388 . S
C256 H237 0.946 . S
C256 C255 1.388 . S
C256 C257 1.384 . S
C257 C256 1.384 . S
C257 C258 1.377 . S
C258 H238 0.953 . S
C258 C257 1.377 . S
C258 C259 1.369 . S
C259 H239 0.945 . S
C259 C254 1.385 . S
C259 C258 1.369 . S
C260 C252 1.457 . S
C260 C261 1.372 . S
C260 C265 1.364 . S
C261 H240 0.952 . S
C261 C260 1.372 . S
C261 C262 1.389 . S
C262 H241 0.949 . S
C262 C261 1.389 . S
C262 C263 1.387 . S
C263 C262 1.387 . S
C263 C264 1.372 . S
C264 H242 0.950 . S
C264 C263 1.372 . S
C264 C265 1.379 . S
C265 H243 0.948 . S
C265 C260 1.364 . S
C265 C264 1.379 . S
C266 C235 1.383 . S
C266 C253 1.479 . S
C266 C267 1.398 . S
C267 C232 1.382 . S
C267 H244 0.951 . S
C267 C266 1.398 . S
C268 C269 1.384 . S
C268 H281 0.947 . S
C268 C303 1.382 . S
C269 C268 1.384 . S
C269 C270 1.378 . S
C270 C269 1.378 . S
C270 C271 1.378 . S
C270 H282 0.952 . S
C271 C270 1.378 . S
C271 H283 0.950 . S
C271 C302 1.383 . S
H272 C291 0.947 . S
H273 C292 0.946 . S
H274 C294 0.953 . S
H275 C295 0.945 . S
H276 C297 0.952 . S
H277 C298 0.949 . S
H278 C300 0.950 . S
H279 C301 0.948 . S
H280 C303 0.951 . S
H281 C268 0.947 . S
H282 C270 0.952 . S
H283 C271 0.950 . S
N284 C287 1.382 . S
N284 C289 1.363 . S
N285 C287 1.371 . S
N285 C288 1.372 . S
N286 C288 1.361 . S
N286 C289 1.377 . S
C287 N284 1.382 . S
C287 N285 1.371 . S
C287 C290 1.480 . S
C288 N285 1.372 . S
C288 N286 1.361 . S
C288 C296 1.457 . S
C289 N284 1.363 . S
C289 N286 1.377 . S
C289 C302 1.479 . S
C290 C287 1.480 . S
C290 C291 1.383 . S
C290 C295 1.385 . S
C291 H272 0.947 . S
C291 C290 1.383 . S
C291 C292 1.388 . S
C292 H273 0.946 . S
C292 C291 1.388 . S
C292 C293 1.384 . S
C293 C292 1.384 . S
C293 C294 1.377 . S
C294 H274 0.953 . S
C294 C293 1.377 . S
C294 C295 1.369 . S
C295 H275 0.945 . S
C295 C290 1.385 . S
C295 C294 1.369 . S
C296 C288 1.457 . S
C296 C297 1.372 . S
C296 C301 1.364 . S
C297 H276 0.952 . S
C297 C296 1.372 . S
C297 C298 1.389 . S
C298 H277 0.949 . S
C298 C297 1.389 . S
C298 C299 1.387 . S
C299 C298 1.387 . S
C299 C300 1.372 . S
C300 H278 0.950 . S
C300 C299 1.372 . S
C300 C301 1.379 . S
C301 H279 0.948 . S
C301 C296 1.364 . S
C301 C300 1.379 . S
C302 C271 1.383 . S
C302 C289 1.479 . S
C302 C303 1.398 . S
C303 C268 1.382 . S
C303 H280 0.951 . S
C303 C302 1.398 . S
C304 C305 1.384 . S
C304 H317 0.947 . S
C304 C339 1.382 . S
C305 C304 1.384 . S
C305 C306 1.378 . S
C306 C305 1.378 . S
C306 C307 1.378 . S
C306 H318 0.952 . S
C307 C306 1.378 . S
C307 H319 0.950 . S
C307 C338 1.383 . S
H308 C327 0.947 . S
H309 C328 0.946 . S
H310 C330 0.953 . S
H311 C331 0.945 . S
H312 C333 0.952 . S
H313 C334 0.949 . S
H314 C336 0.950 . S
H315 C337 0.948 . S
H316 C339 0.951 . S
H317 C304 0.947 . S
H318 C306 0.952 . S
H319 C307 0.950 . S
N320 C323 1.382 . S
N320 C325 1.363 . S
N321 C323 1.371 . S
N321 C324 1.372 . S
N322 C324 1.361 . S
N322 C325 1.377 . S
C323 N320 1.382 . S
C323 N321 1.371 . S
C323 C326 1.480 . S
C324 N321 1.372 . S
C324 N322 1.361 . S
C324 C332 1.457 . S
C325 N320 1.363 . S
C325 N322 1.377 . S
C325 C338 1.479 . S
C326 C323 1.480 . S
C326 C327 1.383 . S
C326 C331 1.385 . S
C327 H308 0.947 . S
C327 C326 1.383 . S
C327 C328 1.388 . S
C328 H309 0.946 . S
C328 C327 1.388 . S
C328 C329 1.384 . S
C329 C328 1.384 . S
C329 C330 1.377 . S
C330 H310 0.953 . S
C330 C329 1.377 . S
C330 C331 1.369 . S
C331 H311 0.945 . S
C331 C326 1.385 . S
C331 C330 1.369 . S
C332 C324 1.457 . S
C332 C333 1.372 . S
C332 C337 1.364 . S
C333 H312 0.952 . S
C333 C332 1.372 . S
C333 C334 1.389 . S
C334 H313 0.949 . S
C334 C333 1.389 . S
C334 C335 1.387 . S
C335 C334 1.387 . S
C335 C336 1.372 . S
C336 H314 0.950 . S
C336 C335 1.372 . S
C336 C337 1.379 . S
C337 H315 0.948 . S
C337 C332 1.364 . S
C337 C336 1.379 . S
C338 C307 1.383 . S
C338 C325 1.479 . S
C338 C339 1.398 . S
C339 C304 1.382 . S
C339 H316 0.951 . S
C339 C338 1.398 . S
C340 C341 1.384 . S
C340 H353 0.947 . S
C340 C375 1.382 . S
C341 C340 1.384 . S
C341 C342 1.378 . S
C342 C341 1.378 . S
C342 C343 1.378 . S
C342 H354 0.952 . S
C343 C342 1.378 . S
C343 H355 0.950 . S
C343 C374 1.383 . S
H344 C363 0.947 . S
H345 C364 0.946 . S
H346 C366 0.953 . S
H347 C367 0.945 . S
H348 C369 0.952 . S
H349 C370 0.949 . S
H350 C372 0.950 . S
H351 C373 0.948 . S
H352 C375 0.951 . S
H353 C340 0.947 . S
H354 C342 0.952 . S
H355 C343 0.950 . S
N356 C359 1.382 . S
N356 C361 1.363 . S
N357 C359 1.371 . S
N357 C360 1.372 . S
N358 C360 1.361 . S
N358 C361 1.377 . S
C359 N356 1.382 . S
C359 N357 1.371 . S
C359 C362 1.480 . S
C360 N357 1.372 . S
C360 N358 1.361 . S
C360 C368 1.457 . S
C361 N356 1.363 . S
C361 N358 1.377 . S
C361 C374 1.479 . S
C362 C359 1.480 . S
C362 C363 1.383 . S
C362 C367 1.385 . S
C363 H344 0.947 . S
C363 C362 1.383 . S
C363 C364 1.388 . S
C364 H345 0.946 . S
C364 C363 1.388 . S
C364 C365 1.384 . S
C365 C364 1.384 . S
C365 C366 1.377 . S
C366 H346 0.953 . S
C366 C365 1.377 . S
C366 C367 1.369 . S
C367 H347 0.945 . S
C367 C362 1.385 . S
C367 C366 1.369 . S
C368 C360 1.457 . S
C368 C369 1.372 . S
C368 C373 1.364 . S
C369 H348 0.952 . S
C369 C368 1.372 . S
C369 C370 1.389 1_655 S
C370 H349 0.949 . S
C370 C369 1.389 1_455 S
C370 C371 1.387 . S
C371 C370 1.387 . S
C371 C372 1.372 . S
C372 H350 0.950 . S
C372 C371 1.372 . S
C372 C373 1.379 1_455 S
C373 H351 0.948 . S
C373 C368 1.364 . S
C373 C372 1.379 1_655 S
C374 C343 1.383 . S
C374 C361 1.479 . S
C374 C375 1.398 . S
C375 C340 1.382 . S
C375 H352 0.951 . S
C375 C374 1.398 . S
H376 C388 0.930 . S
H377 C390 0.930 . S
H378 C391 0.930 . S
H379 C395 0.959 . S
H380 C395 0.959 . S
H381 C395 0.961 . S
H382 C396 0.960 . S
H383 C396 0.961 . S
H384 C396 0.959 . S
H385 C399 0.929 . S
H386 C400 0.931 . S
H387 C402 0.930 . S
C388 H376 0.930 . S
C388 C389 1.399 . S
C388 C393 1.399 . S
C389 C388 1.399 . S
C389 C390 1.376 . S
C390 H377 0.930 . S
C390 C389 1.376 . S
C390 C391 1.388 . S
C391 H378 0.930 . S
C391 C390 1.388 . S
C391 C392 1.390 . S
C392 C391 1.390 . S
C392 C393 1.394 . S
C392 C398 1.465 . S
C393 C388 1.399 . S
C393 C392 1.394 . S
C393 C394 1.516 . S
C394 C393 1.516 . S
C394 C395 1.502 . S
C394 C396 1.561 . S
C394 C397 1.526 . S
C395 H379 0.959 . S
C395 H380 0.959 . S
C395 H381 0.961 . S
C395 C394 1.502 . S
C396 H382 0.960 . S
C396 H383 0.961 . S
C396 H384 0.959 . S
C396 C394 1.561 . S
C397 C394 1.526 . S
C397 C398 1.396 . S
C397 C402 1.390 . S
C398 C392 1.465 . S
C398 C397 1.396 . S
C398 C399 1.399 1_565 S
C399 H385 0.929 . S
C399 C398 1.399 1_545 S
C399 C400 1.385 . S
C400 H386 0.931 . S
C400 C399 1.385 . S
C400 C401 1.389 . S
C401 C400 1.389 . S
C401 C402 1.387 1_545 S
C402 H387 0.930 . S
C402 C397 1.390 . S
C402 C401 1.387 1_565 S
H403 C415 0.930 . S
H404 C417 0.930 . S
H405 C418 0.930 . S
H406 C422 0.959 . S
H407 C422 0.959 . S
H408 C422 0.961 . S
H409 C423 0.960 . S
H410 C423 0.961 . S
H411 C423 0.959 . S
H412 C426 0.929 . S
H413 C427 0.931 . S
H414 C429 0.930 . S
C415 H403 0.930 . S
C415 C416 1.399 . S
C415 C420 1.399 . S
C416 C415 1.399 . S
C416 C417 1.376 . S
C417 H404 0.930 . S
C417 C416 1.376 . S
C417 C418 1.388 . S
C418 H405 0.930 . S
C418 C417 1.388 . S
C418 C419 1.390 . S
C419 C418 1.390 . S
C419 C420 1.394 . S
C419 C425 1.465 . S
C420 C415 1.399 . S
C420 C419 1.394 . S
C420 C421 1.516 . S
C421 C420 1.516 . S
C421 C422 1.502 . S
C421 C423 1.561 . S
C421 C424 1.526 . S
C422 H406 0.959 . S
C422 H407 0.959 . S
C422 H408 0.961 . S
C422 C421 1.502 . S
C423 H409 0.960 . S
C423 H410 0.961 . S
C423 H411 0.959 . S
C423 C421 1.561 . S
C424 C421 1.526 . S
C424 C425 1.396 . S
C424 C429 1.390 . S
C425 C419 1.465 . S
C425 C424 1.396 . S
C425 C426 1.399 . S
C426 H412 0.929 . S
C426 C425 1.399 . S
C426 C427 1.385 . S
C427 H413 0.931 . S
C427 C426 1.385 . S
C427 C428 1.389 . S
C428 C427 1.389 . S
C428 C429 1.387 . S
C429 H414 0.930 . S
C429 C424 1.390 . S
C429 C428 1.387 . S
H430 C442 0.930 . S
H431 C444 0.930 . S
H432 C445 0.930 . S
H433 C449 0.951 1_545 S
H434 C449 0.959 . S
H435 C449 0.961 1_546 S
H436 C450 0.960 . S
H437 C450 0.961 . S
H438 C450 0.959 . S
H439 C453 0.929 . S
H440 C454 0.931 . S
H441 C456 0.930 . S
C442 H430 0.930 . S
C442 C443 1.399 . S
C442 C447 1.399 . S
C443 C442 1.399 . S
C443 C444 1.376 . S
C444 H431 0.930 . S
C444 C443 1.376 . S
C444 C445 1.388 . S
C445 H432 0.930 . S
C445 C444 1.388 . S
C445 C446 1.390 . S
C446 C445 1.390 . S
C446 C447 1.394 . S
C446 C452 1.465 . S
C447 C442 1.399 . S
C447 C446 1.394 . S
C447 C448 1.516 . S
C448 C447 1.516 . S
C448 C449 1.502 1_545 S
C448 C450 1.561 1_545 S
C448 C451 1.526 1_545 S
C449 H433 0.951 1_565 S
C449 H434 0.959 . S
C449 H435 0.961 1_564 S
C449 C448 1.502 1_565 S
C450 H436 0.960 . S
C450 H437 0.961 . S
C450 H438 0.959 . S
C450 C448 1.561 1_565 S
C451 C448 1.526 1_565 S
C451 C452 1.396 1_565 S
C451 C456 1.390 . S
C452 C446 1.465 . S
C452 C451 1.396 1_545 S
C452 C453 1.399 . S
C453 H439 0.929 . S
C453 C452 1.399 . S
C453 C454 1.385 1_545 S
C454 H440 0.931 . S
C454 C453 1.385 1_565 S
C454 C455 1.389 . S
C455 C454 1.389 . S
C455 C456 1.387 . S
C456 H441 0.930 . S
C456 C451 1.390 . S
C456 C455 1.387 . S
H457 C469 0.930 . S
H458 C471 0.930 . S
H459 C472 0.930 . S
H460 C476 0.959 . S
H461 C476 0.959 . S
H462 C476 0.961 . S
H463 C477 0.960 . S
H464 C477 0.961 . S
H465 C477 0.959 . S
H466 C480 0.929 . S
H467 C481 0.931 . S
H468 C483 0.930 . S
C469 H457 0.930 . S
C469 C470 1.399 . S
C469 C474 1.399 . S
C470 C469 1.399 . S
C470 C471 1.376 . S
C471 H458 0.930 . S
C471 C470 1.376 . S
C471 C472 1.388 . S
C472 H459 0.930 . S
C472 C471 1.388 . S
C472 C473 1.390 . S
C473 C472 1.390 . S
C473 C474 1.394 . S
C473 C479 1.465 . S
C474 C469 1.399 . S
C474 C473 1.394 . S
C474 C475 1.516 . S
C475 C474 1.516 . S
C475 C476 1.502 . S
C475 C477 1.561 . S
C475 C478 1.526 . S
C476 H460 0.959 . S
C476 H461 0.959 . S
C476 H462 0.961 . S
C476 C475 1.502 . S
C477 H463 0.960 . S
C477 H464 0.961 . S
C477 H465 0.959 . S
C477 C475 1.561 . S
C478 C475 1.526 . S
C478 C479 1.396 . S
C478 C483 1.390 . S
C479 C473 1.465 . S
C479 C478 1.396 . S
C479 C480 1.399 . S
C480 H466 0.929 . S
C480 C479 1.399 . S
C480 C481 1.385 . S
C481 H467 0.931 . S
C481 C480 1.385 . S
C481 C482 1.389 . S
C482 C481 1.389 . S
C482 C483 1.387 . S
C483 H468 0.930 . S
C483 C478 1.390 . S
C483 C482 1.387 . S
H484 C496 0.930 . S
H485 C498 0.930 . S
H486 C499 0.930 . S
H487 C503 0.959 . S
H488 C503 0.959 . S
H489 C503 0.961 . S
H490 C504 0.960 . S
H491 C504 0.961 . S
H492 C504 0.959 . S
H493 C507 0.929 . S
H494 C508 0.931 . S
H495 C510 0.930 . S
C496 H484 0.930 . S
C496 C497 1.399 . S
C496 C501 1.399 . S
C497 C496 1.399 . S
C497 C498 1.376 . S
C498 H485 0.930 . S
C498 C497 1.376 . S
C498 C499 1.388 . S
C499 H486 0.930 . S
C499 C498 1.388 . S
C499 C500 1.390 . S
C500 C499 1.390 . S
C500 C501 1.394 . S
C500 C506 1.465 . S
C501 C496 1.399 . S
C501 C500 1.394 . S
C501 C502 1.516 . S
C502 C501 1.516 . S
C502 C503 1.502 . S
C502 C504 1.561 . S
C502 C505 1.526 . S
C503 H487 0.959 . S
C503 H488 0.959 . S
C503 H489 0.961 . S
C503 C502 1.502 . S
C504 H490 0.960 . S
C504 H491 0.961 . S
C504 H492 0.959 . S
C504 C502 1.561 . S
C505 C502 1.526 . S
C505 C506 1.396 . S
C505 C510 1.390 . S
C506 C500 1.465 . S
C506 C505 1.396 . S
C506 C507 1.399 . S
C507 H493 0.929 . S
C507 C506 1.399 . S
C507 C508 1.385 . S
C508 H494 0.931 . S
C508 C507 1.385 . S
C508 C509 1.389 . S
C509 C508 1.389 . S
C509 C510 1.387 . S
C510 H495 0.930 . S
C510 C505 1.390 . S
C510 C509 1.387 . S
H511 C523 0.930 . S
H512 C525 0.930 . S
H513 C526 0.930 . S
H514 C530 0.961 . S
H515 C530 0.968 . S
H516 C530 0.948 1_655 S
H517 C531 0.960 1_655 S
H518 C531 0.961 . S
H519 C531 0.959 . S
H520 C534 0.929 . S
H521 C535 0.931 . S
H522 C537 0.930 . S
C523 H511 0.930 . S
C523 C524 1.399 . S
C523 C528 1.399 . S
C524 C523 1.399 . S
C524 C525 1.376 . S
C525 H512 0.930 . S
C525 C524 1.376 . S
C525 C526 1.388 . S
C526 H513 0.930 . S
C526 C525 1.388 . S
C526 C527 1.379 1_655 S
C527 C526 1.379 1_455 S
C527 C528 1.383 1_455 S
C527 C533 1.487 . S
C528 C523 1.399 . S
C528 C527 1.383 1_655 S
C528 C529 1.516 1_655 S
C529 C528 1.516 1_455 S
C529 C530 1.504 . S
C529 C531 1.561 1_556 S
C529 C532 1.526 . S
C530 H514 0.961 . S
C530 H515 0.968 . S
C530 H516 0.948 1_455 S
C530 C529 1.504 . S
C531 H517 0.960 1_455 S
C531 H518 0.961 . S
C531 H519 0.959 . S
C531 C529 1.561 1_554 S
C532 C529 1.526 . S
C532 C533 1.396 . S
C532 C537 1.390 . S
C533 C527 1.487 . S
C533 C532 1.396 . S
C533 C534 1.399 . S
C534 H520 0.929 . S
C534 C533 1.399 . S
C534 C535 1.385 . S
C535 H521 0.931 . S
C535 C534 1.385 . S
C535 C536 1.389 . S
C536 C535 1.389 . S
C536 C537 1.387 . S
C537 H522 0.930 . S
C537 C532 1.390 . S
C537 C536 1.387 . S
H538 C550 0.930 . S
H539 C552 0.930 . S
H540 C553 0.930 . S
H541 C557 0.959 . S
H542 C557 0.959 . S
H543 C557 0.961 . S
H544 C558 0.960 . S
H545 C558 0.961 . S
H546 C558 0.959 . S
H547 C561 0.929 . S
H548 C562 0.931 . S
H549 C564 0.930 . S
C550 H538 0.930 . S
C550 C551 1.399 . S
C550 C555 1.399 . S
C551 C550 1.399 . S
C551 C552 1.376 . S
C552 H539 0.930 . S
C552 C551 1.376 . S
C552 C553 1.388 . S
C553 H540 0.930 . S
C553 C552 1.388 . S
C553 C554 1.390 . S
C554 C553 1.390 . S
C554 C555 1.394 . S
C554 C560 1.465 . S
C555 C550 1.399 . S
C555 C554 1.394 . S
C555 C556 1.516 . S
C556 C555 1.516 . S
C556 C557 1.502 . S
C556 C558 1.561 . S
C556 C559 1.526 . S
C557 H541 0.959 . S
C557 H542 0.959 . S
C557 H543 0.961 . S
C557 C556 1.502 . S
C558 H544 0.960 . S
C558 H545 0.961 . S
C558 H546 0.959 . S
C558 C556 1.561 . S
C559 C556 1.526 . S
C559 C560 1.396 . S
C559 C564 1.390 . S
C560 C554 1.465 . S
C560 C559 1.396 . S
C560 C561 1.399 . S
C561 H547 0.929 . S
C561 C560 1.399 . S
C561 C562 1.385 . S
C562 H548 0.931 . S
C562 C561 1.385 . S
C562 C563 1.389 . S
C563 C562 1.389 . S
C563 C564 1.387 . S
C564 H549 0.930 . S
C564 C559 1.390 . S
C564 C563 1.387 . S
H565 C577 0.930 . S
H566 C579 0.930 . S
H567 C580 0.930 . S
H568 C584 0.959 . S
H569 C584 0.959 . S
H570 C584 0.961 . S
H571 C585 0.960 . S
H572 C585 0.961 . S
H573 C585 0.959 . S
H574 C588 0.929 . S
H575 C589 0.931 . S
H576 C591 0.930 . S
C577 H565 0.930 . S
C577 C578 1.399 . S
C577 C582 1.399 . S
C578 C577 1.399 . S
C578 C579 1.376 . S
C579 H566 0.930 . S
C579 C578 1.376 . S
C579 C580 1.388 . S
C580 H567 0.930 . S
C580 C579 1.388 . S
C580 C581 1.390 . S
C581 C580 1.390 . S
C581 C582 1.394 . S
C581 C587 1.465 . S
C582 C577 1.399 . S
C582 C581 1.394 . S
C582 C583 1.516 . S
C583 C582 1.516 . S
C583 C584 1.502 . S
C583 C585 1.561 . S
C583 C586 1.526 . S
C584 H568 0.959 . S
C584 H569 0.959 . S
C584 H570 0.961 . S
C584 C583 1.502 . S
C585 H571 0.960 . S
C585 H572 0.961 . S
C585 H573 0.959 . S
C585 C583 1.561 . S
C586 C583 1.526 . S
C586 C587 1.396 . S
C586 C591 1.390 . S
C587 C581 1.465 . S
C587 C586 1.396 . S
C587 C588 1.399 . S
C588 H574 0.929 . S
C588 C587 1.399 . S
C588 C589 1.385 . S
C589 H575 0.931 . S
C589 C588 1.385 . S
C589 C590 1.389 . S
C590 C589 1.389 . S
C590 C591 1.387 . S
C591 H576 0.930 . S
C591 C586 1.390 . S
C591 C590 1.387 . S
H592 C604 0.930 . S
H593 C606 0.930 . S
H594 C607 0.930 . S
H595 C611 0.959 . S
H596 C611 0.959 1_565 S
H597 C611 0.961 . S
H598 C612 0.960 . S
H599 C612 0.961 1_565 S
H600 C612 0.959 . S
H601 C615 0.929 . S
H602 C616 0.931 . S
H603 C618 0.930 . S
C604 H592 0.930 . S
C604 C605 1.399 . S
C604 C609 1.399 . S
C605 C604 1.399 . S
C605 C606 1.376 . S
C606 H593 0.930 . S
C606 C605 1.376 . S
C606 C607 1.388 . S
C607 H594 0.930 . S
C607 C606 1.388 . S
C607 C608 1.390 . S
C608 C607 1.390 . S
C608 C609 1.394 . S
C608 C614 1.465 . S
C609 C604 1.399 . S
C609 C608 1.394 . S
C609 C610 1.516 . S
C610 C609 1.516 . S
C610 C611 1.502 . S
C610 C612 1.561 . S
C610 C613 1.526 . S
C611 H595 0.959 . S
C611 H596 0.959 1_545 S
C611 H597 0.961 . S
C611 C610 1.502 . S
C612 H598 0.960 . S
C612 H599 0.961 1_545 S
C612 H600 0.959 . S
C612 C610 1.561 . S
C613 C610 1.526 . S
C613 C614 1.396 . S
C613 C618 1.390 1_545 S
C614 C608 1.465 . S
C614 C613 1.396 . S
C614 C615 1.399 . S
C615 H601 0.929 . S
C615 C614 1.399 . S
C615 C616 1.385 . S
C616 H602 0.931 . S
C616 C615 1.385 . S
C616 C617 1.390 . S
C617 C616 1.390 . S
C617 C618 1.386 1_545 S
C618 H603 0.930 . S
C618 C613 1.390 1_565 S
C618 C617 1.386 1_565 S
H619 C631 0.930 . S
H620 C633 0.930 . S
H621 C634 0.930 . S
H622 C638 0.959 . S
H623 C638 0.959 . S
H624 C638 0.961 . S
H625 C639 0.960 . S
H626 C639 0.961 . S
H627 C639 0.959 . S
H628 C642 0.929 . S
H629 C643 0.931 . S
H630 C645 0.930 . S
C631 H619 0.930 . S
C631 C632 1.399 . S
C631 C636 1.399 . S
C632 C631 1.399 . S
C632 C633 1.376 . S
C633 H620 0.930 . S
C633 C632 1.376 . S
C633 C634 1.388 . S
C634 H621 0.930 . S
C634 C633 1.388 . S
C634 C635 1.390 . S
C635 C634 1.390 . S
C635 C636 1.394 . S
C635 C641 1.465 . S
C636 C631 1.399 . S
C636 C635 1.394 . S
C636 C637 1.516 . S
C637 C636 1.516 . S
C637 C638 1.502 . S
C637 C639 1.561 . S
C637 C640 1.526 . S
C638 H622 0.959 . S
C638 H623 0.959 . S
C638 H624 0.961 . S
C638 C637 1.502 . S
C639 H625 0.960 . S
C639 H626 0.961 . S
C639 H627 0.959 . S
C639 C637 1.561 . S
C640 C637 1.526 . S
C640 C641 1.396 . S
C640 C645 1.390 . S
C641 C635 1.465 . S
C641 C640 1.396 . S
C641 C642 1.399 . S
C642 H628 0.929 . S
C642 C641 1.399 . S
C642 C643 1.385 . S
C643 H629 0.931 . S
C643 C642 1.385 . S
C643 C644 1.389 . S
C644 C643 1.389 . S
C644 C645 1.387 . S
C645 H630 0.930 . S
C645 C640 1.390 . S
C645 C644 1.387 . S
H646 C658 0.930 . S
H647 C660 0.930 . S
H648 C661 0.930 . S
H649 C665 0.959 . S
H650 C665 0.959 . S
H651 C665 0.961 . S
H652 C666 0.960 . S
H653 C666 0.961 . S
H654 C666 0.959 . S
H655 C669 0.929 . S
H656 C670 0.931 . S
H657 C672 0.930 . S
C658 H646 0.930 . S
C658 C659 1.399 1_556 S
C658 C663 1.399 . S
C659 C658 1.399 1_554 S
C659 C660 1.376 . S
C660 H647 0.930 . S
C660 C659 1.376 . S
C660 C661 1.388 . S
C661 H648 0.930 . S
C661 C660 1.388 . S
C661 C662 1.390 . S
C662 C661 1.390 . S
C662 C663 1.394 1_554 S
C662 C668 1.465 1_565 S
C663 C658 1.399 . S
C663 C662 1.394 1_556 S
C663 C664 1.516 . S
C664 C663 1.516 . S
C664 C665 1.502 . S
C664 C666 1.561 . S
C664 C667 1.526 . S
C665 H649 0.959 . S
C665 H650 0.959 . S
C665 H651 0.961 . S
C665 C664 1.502 . S
C666 H652 0.960 . S
C666 H653 0.961 . S
C666 H654 0.959 . S
C666 C664 1.561 . S
C667 C664 1.526 . S
C667 C668 1.396 1_566 S
C667 C672 1.390 1_565 S
C668 C662 1.465 1_545 S
C668 C667 1.396 1_544 S
C668 C669 1.399 . S
C669 H655 0.929 . S
C669 C668 1.399 . S
C669 C670 1.385 . S
C670 H656 0.931 . S
C670 C669 1.385 . S
C670 C671 1.389 1_554 S
C671 C670 1.389 1_556 S
C671 C672 1.387 . S
C672 H657 0.930 . S
C672 C667 1.390 1_545 S
C672 C671 1.387 . S
H673 C685 0.930 . S
H674 C687 0.930 . S
H675 C688 0.930 . S
H676 C692 0.959 . S
H677 C692 0.959 . S
H678 C692 0.961 . S
H679 C693 0.960 . S
H680 C693 0.961 . S
H681 C693 0.959 . S
H682 C696 0.929 . S
H683 C697 0.931 . S
H684 C699 0.930 . S
C685 H673 0.930 . S
C685 C686 1.399 . S
C685 C690 1.399 . S
C686 C685 1.399 . S
C686 C687 1.376 . S
C687 H674 0.930 . S
C687 C686 1.376 . S
C687 C688 1.388 . S
C688 H675 0.930 . S
C688 C687 1.388 . S
C688 C689 1.390 . S
C689 C688 1.390 . S
C689 C690 1.394 . S
C689 C695 1.465 . S
C690 C685 1.399 . S
C690 C689 1.394 . S
C690 C691 1.516 . S
C691 C690 1.516 . S
C691 C692 1.502 . S
C691 C693 1.561 . S
C691 C694 1.526 . S
C692 H676 0.959 . S
C692 H677 0.959 . S
C692 H678 0.961 . S
C692 C691 1.502 . S
C693 H679 0.960 . S
C693 H680 0.961 . S
C693 H681 0.959 . S
C693 C691 1.561 . S
C694 C691 1.526 . S
C694 C695 1.396 . S
C694 C699 1.390 . S
C695 C689 1.465 . S
C695 C694 1.396 . S
C695 C696 1.399 . S
C696 H682 0.929 . S
C696 C695 1.399 . S
C696 C697 1.385 . S
C697 H683 0.931 . S
C697 C696 1.385 . S
C697 C698 1.389 . S
C698 C697 1.389 . S
C698 C699 1.387 . S
C699 H684 0.930 . S
C699 C694 1.390 . S
C699 C698 1.387 . S
H700 C712 0.930 . S
H701 C714 0.930 . S
H702 C715 0.930 . S
H703 C719 0.959 . S
H704 C719 0.959 . S
H705 C719 0.961 . S
H706 C720 0.960 . S
H707 C720 0.961 . S
H708 C720 0.959 . S
H709 C723 0.929 . S
H710 C724 0.931 . S
H711 C726 0.930 . S
C712 H700 0.930 . S
C712 C713 1.399 . S
C712 C717 1.399 . S
C713 C712 1.399 . S
C713 C714 1.376 . S
C714 H701 0.930 . S
C714 C713 1.376 . S
C714 C715 1.388 . S
C715 H702 0.930 . S
C715 C714 1.388 . S
C715 C716 1.390 . S
C716 C715 1.390 . S
C716 C717 1.394 . S
C716 C722 1.465 . S
C717 C712 1.399 . S
C717 C716 1.394 . S
C717 C718 1.516 . S
C718 C717 1.516 . S
C718 C719 1.502 . S
C718 C720 1.561 . S
C718 C721 1.526 . S
C719 H703 0.959 . S
C719 H704 0.959 . S
C719 H705 0.961 . S
C719 C718 1.502 . S
C720 H706 0.960 . S
C720 H707 0.961 . S
C720 H708 0.959 . S
C720 C718 1.561 . S
C721 C718 1.526 . S
C721 C722 1.396 . S
C721 C726 1.390 . S
C722 C716 1.465 . S
C722 C721 1.396 . S
C722 C723 1.399 . S
C723 H709 0.929 . S
C723 C722 1.399 . S
C723 C724 1.385 . S
C724 H710 0.931 . S
C724 C723 1.385 . S
C724 C725 1.389 . S
C725 C724 1.389 . S
C725 C726 1.387 . S
C726 H711 0.930 . S
C726 C721 1.390 . S
C726 C725 1.387 . S
H727 C739 0.930 . S
H728 C741 0.930 . S
H729 C742 0.930 . S
H730 C746 0.959 . S
H731 C746 0.959 . S
H732 C746 0.961 1_455 S
H733 C747 0.960 1_455 S
H734 C747 0.961 . S
H735 C747 0.959 . S
H736 C750 0.929 . S
H737 C751 0.931 . S
H738 C753 0.930 . S
C739 H727 0.930 . S
C739 C740 1.399 . S
C739 C744 1.399 . S
C740 C739 1.399 . S
C740 C741 1.376 . S
C741 H728 0.930 . S
C741 C740 1.376 . S
C741 C742 1.388 . S
C742 H729 0.930 . S
C742 C741 1.388 . S
C742 C743 1.413 . S
C743 C742 1.413 . S
C743 C744 1.412 . S
C743 C749 1.425 1_455 S
C744 C739 1.399 . S
C744 C743 1.412 . S
C744 C745 1.516 1_455 S
C745 C744 1.516 1_655 S
C745 C746 1.502 . S
C745 C747 1.561 . S
C745 C748 1.526 . S
C746 H730 0.959 . S
C746 H731 0.959 . S
C746 H732 0.961 1_655 S
C746 C745 1.502 . S
C747 H733 0.960 1_655 S
C747 H734 0.961 . S
C747 H735 0.959 . S
C747 C745 1.561 . S
C748 C745 1.526 . S
C748 C749 1.396 . S
C748 C753 1.390 . S
C749 C743 1.425 1_655 S
C749 C748 1.396 . S
C749 C750 1.399 . S
C750 H736 0.929 . S
C750 C749 1.399 . S
C750 C751 1.385 . S
C751 H737 0.931 . S
C751 C750 1.385 . S
C751 C752 1.389 . S
C752 C751 1.389 . S
C752 C753 1.387 . S
C753 H738 0.930 . S
C753 C748 1.390 . S
C753 C752 1.387 . S
H754 C766 0.930 . S
H755 C768 0.930 . S
H756 C769 0.930 . S
H757 C773 0.959 . S
H758 C773 0.959 . S
H759 C773 0.961 . S
H760 C774 0.960 . S
H761 C774 0.961 . S
H762 C774 0.959 . S
H763 C777 0.929 . S
H764 C778 0.931 . S
H765 C780 0.930 . S
C766 H754 0.930 . S
C766 C767 1.399 . S
C766 C771 1.399 . S
C767 C766 1.399 . S
C767 C768 1.376 . S
C768 H755 0.930 . S
C768 C767 1.376 . S
C768 C769 1.388 . S
C769 H756 0.930 . S
C769 C768 1.388 . S
C769 C770 1.390 . S
C770 C769 1.390 . S
C770 C771 1.394 . S
C770 C776 1.465 . S
C771 C766 1.399 . S
C771 C770 1.394 . S
C771 C772 1.516 . S
C772 C771 1.516 . S
C772 C773 1.502 . S
C772 C774 1.561 . S
C772 C775 1.526 . S
C773 H757 0.959 . S
C773 H758 0.959 . S
C773 H759 0.961 . S
C773 C772 1.502 . S
C774 H760 0.960 . S
C774 H761 0.961 . S
C774 H762 0.959 . S
C774 C772 1.561 . S
C775 C772 1.526 . S
C775 C776 1.396 . S
C775 C780 1.390 . S
C776 C770 1.465 . S
C776 C775 1.396 . S
C776 C777 1.399 . S
C777 H763 0.929 . S
C777 C776 1.399 . S
C777 C778 1.385 . S
C778 H764 0.931 . S
C778 C777 1.385 . S
C778 C779 1.389 . S
C779 C778 1.389 . S
C779 C780 1.387 . S
C780 H765 0.930 . S
C780 C775 1.390 . S
C780 C779 1.387 . S
H781 C793 0.930 . S
H782 C795 0.930 . S
H783 C796 0.930 . S
H784 C800 0.959 . S
H785 C800 0.959 . S
H786 C800 0.961 . S
H787 C801 0.960 . S
H788 C801 0.961 . S
H789 C801 0.959 . S
H790 C804 0.929 . S
H791 C805 0.931 . S
H792 C807 0.930 . S
C793 H781 0.930 . S
C793 C794 1.399 . S
C793 C798 1.399 . S
C794 C793 1.399 . S
C794 C795 1.376 . S
C795 H782 0.930 . S
C795 C794 1.376 . S
C795 C796 1.388 . S
C796 H783 0.930 . S
C796 C795 1.388 . S
C796 C797 1.390 . S
C797 C796 1.390 . S
C797 C798 1.394 . S
C797 C803 1.465 . S
C798 C793 1.399 . S
C798 C797 1.394 . S
C798 C799 1.516 . S
C799 C798 1.516 . S
C799 C800 1.502 . S
C799 C801 1.561 . S
C799 C802 1.526 . S
C800 H784 0.959 . S
C800 H785 0.959 . S
C800 H786 0.961 . S
C800 C799 1.502 . S
C801 H787 0.960 . S
C801 H788 0.961 . S
C801 H789 0.959 . S
C801 C799 1.561 . S
C802 C799 1.526 . S
C802 C803 1.396 . S
C802 C807 1.390 . S
C803 C797 1.465 . S
C803 C802 1.396 . S
C803 C804 1.399 . S
C804 H790 0.929 . S
C804 C803 1.399 . S
C804 C805 1.385 . S
C805 H791 0.931 . S
C805 C804 1.385 . S
C805 C806 1.389 . S
C806 C805 1.389 . S
C806 C807 1.387 . S
C807 H792 0.930 . S
C807 C802 1.390 . S
C807 C806 1.387 . S
H808 C820 0.930 . S
H809 C822 0.930 . S
H810 C823 0.930 . S
H811 C827 0.959 . S
H812 C827 0.959 . S
H813 C827 0.961 . S
H814 C828 0.960 . S
H815 C828 0.961 . S
H816 C828 0.959 . S
H817 C831 0.929 . S
H818 C832 0.931 . S
H819 C834 0.930 . S
C820 H808 0.930 . S
C820 C821 1.399 . S
C820 C825 1.399 . S
C821 C820 1.399 . S
C821 C822 1.376 . S
C822 H809 0.930 . S
C822 C821 1.376 . S
C822 C823 1.388 . S
C823 H810 0.930 . S
C823 C822 1.388 . S
C823 C824 1.390 . S
C824 C823 1.390 . S
C824 C825 1.394 . S
C824 C830 1.465 . S
C825 C820 1.399 . S
C825 C824 1.394 . S
C825 C826 1.516 . S
C826 C825 1.516 . S
C826 C827 1.502 . S
C826 C828 1.561 . S
C826 C829 1.526 . S
C827 H811 0.959 . S
C827 H812 0.959 . S
C827 H813 0.961 . S
C827 C826 1.502 . S
C828 H814 0.960 . S
C828 H815 0.961 . S
C828 H816 0.959 . S
C828 C826 1.561 . S
C829 C826 1.526 . S
C829 C830 1.396 . S
C829 C834 1.390 . S
C830 C824 1.465 . S
C830 C829 1.396 . S
C830 C831 1.399 . S
C831 H817 0.929 . S
C831 C830 1.399 . S
C831 C832 1.385 . S
C832 H818 0.931 . S
C832 C831 1.385 . S
C832 C833 1.389 . S
C833 C832 1.389 . S
C833 C834 1.387 . S
C834 H819 0.930 . S
C834 C829 1.390 . S
C834 C833 1.387 . S
H835 C847 0.930 . S
H836 C849 0.930 . S
H837 C850 0.930 . S
H838 C854 0.959 . S
H839 C854 0.959 . S
H840 C854 0.961 . S
H841 C855 0.960 . S
H842 C855 0.961 . S
H843 C855 0.959 . S
H844 C858 0.929 . S
H845 C859 0.931 . S
H846 C861 0.930 . S
C847 H835 0.930 . S
C847 C848 1.399 . S
C847 C852 1.399 . S
C848 C847 1.399 . S
C848 C849 1.376 . S
C849 H836 0.930 . S
C849 C848 1.376 . S
C849 C850 1.388 . S
C850 H837 0.930 . S
C850 C849 1.388 . S
C850 C851 1.390 . S
C851 C850 1.390 . S
C851 C852 1.394 . S
C851 C857 1.465 . S
C852 C847 1.399 . S
C852 C851 1.394 . S
C852 C853 1.516 . S
C853 C852 1.516 . S
C853 C854 1.502 . S
C853 C855 1.561 . S
C853 C856 1.526 . S
C854 H838 0.959 . S
C854 H839 0.959 . S
C854 H840 0.961 . S
C854 C853 1.502 . S
C855 H841 0.960 . S
C855 H842 0.961 . S
C855 H843 0.959 . S
C855 C853 1.561 . S
C856 C853 1.526 . S
C856 C857 1.396 . S
C856 C861 1.390 . S
C857 C851 1.465 . S
C857 C856 1.396 . S
C857 C858 1.399 . S
C858 H844 0.929 . S
C858 C857 1.399 . S
C858 C859 1.385 . S
C859 H845 0.931 . S
C859 C858 1.385 . S
C859 C860 1.389 . S
C860 C859 1.389 . S
C860 C861 1.387 . S
C861 H846 0.930 . S
C861 C856 1.390 . S
C861 C860 1.387 . S
H862 C874 0.930 . S
H863 C876 0.930 . S
H864 C877 0.930 . S
H865 C881 0.959 . S
H866 C881 0.959 . S
H867 C881 0.961 . S
H868 C882 0.960 . S
H869 C882 0.961 . S
H870 C882 0.959 . S
H871 C885 0.929 . S
H872 C886 0.931 . S
H873 C888 0.930 . S
C874 H862 0.930 . S
C874 C875 1.399 . S
C874 C879 1.399 . S
C875 C874 1.399 . S
C875 C876 1.376 . S
C876 H863 0.930 . S
C876 C875 1.376 . S
C876 C877 1.388 . S
C877 H864 0.930 . S
C877 C876 1.388 . S
C877 C878 1.390 . S
C878 C877 1.390 . S
C878 C879 1.394 . S
C878 C884 1.465 . S
C879 C874 1.399 . S
C879 C878 1.394 . S
C879 C880 1.516 . S
C880 C879 1.516 . S
C880 C881 1.502 . S
C880 C882 1.561 . S
C880 C883 1.526 . S
C881 H865 0.959 . S
C881 H866 0.959 . S
C881 H867 0.961 . S
C881 C880 1.502 . S
C882 H868 0.960 . S
C882 H869 0.961 . S
C882 H870 0.959 . S
C882 C880 1.561 . S
C883 C880 1.526 . S
C883 C884 1.396 . S
C883 C888 1.390 . S
C884 C878 1.465 . S
C884 C883 1.396 . S
C884 C885 1.399 . S
C885 H871 0.929 . S
C885 C884 1.399 . S
C885 C886 1.385 . S
C886 H872 0.931 . S
C886 C885 1.385 . S
C886 C887 1.389 . S
C887 C886 1.389 . S
C887 C888 1.387 . S
C888 H873 0.930 . S
C888 C883 1.390 . S
C888 C887 1.387 . S
H889 C901 0.930 . S
H890 C903 0.930 . S
H891 C904 0.930 . S
H892 C908 0.959 . S
H893 C908 0.959 . S
H894 C908 0.961 . S
H895 C909 0.960 . S
H896 C909 0.961 . S
H897 C909 0.959 . S
H898 C912 0.929 . S
H899 C913 0.931 . S
H900 C915 0.930 . S
C901 H889 0.930 . S
C901 C902 1.399 . S
C901 C906 1.399 . S
C902 C901 1.399 . S
C902 C903 1.376 . S
C903 H890 0.930 . S
C903 C902 1.376 . S
C903 C904 1.388 . S
C904 H891 0.930 . S
C904 C903 1.388 . S
C904 C905 1.390 . S
C905 C904 1.390 . S
C905 C906 1.394 . S
C905 C911 1.465 . S
C906 C901 1.399 . S
C906 C905 1.394 . S
C906 C907 1.516 . S
C907 C906 1.516 . S
C907 C908 1.502 . S
C907 C909 1.561 . S
C907 C910 1.526 . S
C908 H892 0.959 . S
C908 H893 0.959 . S
C908 H894 0.961 . S
C908 C907 1.502 . S
C909 H895 0.960 . S
C909 H896 0.961 . S
C909 H897 0.959 . S
C909 C907 1.561 . S
C910 C907 1.526 . S
C910 C911 1.396 . S
C910 C915 1.390 . S
C911 C905 1.465 . S
C911 C910 1.396 . S
C911 C912 1.399 . S
C912 H898 0.929 . S
C912 C911 1.399 . S
C912 C913 1.385 . S
C913 H899 0.931 . S
C913 C912 1.385 . S
C913 C914 1.389 . S
C914 C913 1.389 . S
C914 C915 1.387 . S
C915 H900 0.930 . S
C915 C910 1.390 . S
C915 C914 1.387 . S
H916 C928 0.930 . S
H917 C930 0.930 . S
H918 C931 0.930 . S
H919 C935 0.959 . S
H920 C935 0.959 . S
H921 C935 0.961 . S
H922 C936 0.960 . S
H923 C936 0.961 . S
H924 C936 0.959 . S
H925 C939 0.929 . S
H926 C940 0.931 . S
H927 C942 0.930 . S
C928 H916 0.930 . S
C928 C929 1.399 . S
C928 C933 1.399 . S
C929 C928 1.399 . S
C929 C930 1.376 . S
C930 H917 0.930 . S
C930 C929 1.376 . S
C930 C931 1.388 . S
C931 H918 0.930 . S
C931 C930 1.388 . S
C931 C932 1.390 . S
C932 C931 1.390 . S
C932 C933 1.394 . S
C932 C938 1.465 . S
C933 C928 1.399 . S
C933 C932 1.394 . S
C933 C934 1.516 . S
C934 C933 1.516 . S
C934 C935 1.502 . S
C934 C936 1.561 . S
C934 C937 1.526 . S
C935 H919 0.959 . S
C935 H920 0.959 . S
C935 H921 0.961 . S
C935 C934 1.502 . S
C936 H922 0.960 . S
C936 H923 0.961 . S
C936 H924 0.959 . S
C936 C934 1.561 . S
C937 C934 1.526 . S
C937 C938 1.396 . S
C937 C942 1.390 . S
C938 C932 1.465 . S
C938 C937 1.396 . S
C938 C939 1.399 . S
C939 H925 0.929 . S
C939 C938 1.399 . S
C939 C940 1.385 . S
C940 H926 0.931 . S
C940 C939 1.385 . S
C940 C941 1.389 . S
C941 C940 1.389 . S
C941 C942 1.387 . S
C942 H927 0.930 . S
C942 C937 1.390 . S
C942 C941 1.387 . S
H943 C955 0.930 . S
H944 C957 0.930 . S
H945 C958 0.930 . S
H946 C962 0.959 . S
H947 C962 0.959 . S
H948 C962 0.961 . S
H949 C963 0.960 . S
H950 C963 0.961 . S
H951 C963 0.959 . S
H952 C966 0.929 . S
H953 C967 0.931 . S
H954 C969 0.930 . S
C955 H943 0.930 . S
C955 C956 1.399 . S
C955 C960 1.399 . S
C956 C955 1.399 . S
C956 C957 1.376 . S
C957 H944 0.930 . S
C957 C956 1.376 . S
C957 C958 1.388 . S
C958 H945 0.930 . S
C958 C957 1.388 . S
C958 C959 1.390 . S
C959 C958 1.390 . S
C959 C960 1.394 . S
C959 C965 1.465 . S
C960 C955 1.399 . S
C960 C959 1.394 . S
C960 C961 1.516 . S
C961 C960 1.516 . S
C961 C962 1.502 . S
C961 C963 1.561 . S
C961 C964 1.526 . S
C962 H946 0.959 . S
C962 H947 0.959 . S
C962 H948 0.961 . S
C962 C961 1.502 . S
C963 H949 0.960 . S
C963 H950 0.961 . S
C963 H951 0.959 . S
C963 C961 1.561 . S
C964 C961 1.526 . S
C964 C965 1.396 . S
C964 C969 1.390 . S
C965 C959 1.465 . S
C965 C964 1.396 . S
C965 C966 1.399 . S
C966 H952 0.929 . S
C966 C965 1.399 . S
C966 C967 1.385 . S
C967 H953 0.931 . S
C967 C966 1.385 . S
C967 C968 1.389 . S
C968 C967 1.389 . S
C968 C969 1.387 . S
C969 H954 0.930 . S
C969 C964 1.390 . S
C969 C968 1.387 . S
H970 C982 0.930 . S
H971 C984 0.930 . S
H972 C985 0.930 . S
H973 C989 0.959 . S
H974 C989 0.959 . S
H975 C989 0.961 . S
H976 C990 0.960 . S
H977 C990 0.961 . S
H978 C990 0.959 . S
H979 C993 0.929 . S
H980 C994 0.931 . S
H981 C996 0.930 . S
C982 H970 0.930 . S
C982 C983 1.399 . S
C982 C987 1.399 . S
C983 C982 1.399 . S
C983 C984 1.376 . S
C984 H971 0.930 . S
C984 C983 1.376 . S
C984 C985 1.388 . S
C985 H972 0.930 . S
C985 C984 1.388 . S
C985 C986 1.390 . S
C986 C985 1.390 . S
C986 C987 1.394 . S
C986 C992 1.465 . S
C987 C982 1.399 . S
C987 C986 1.394 . S
C987 C988 1.516 . S
C988 C987 1.516 . S
C988 C989 1.502 . S
C988 C990 1.561 . S
C988 C991 1.526 . S
C989 H973 0.959 . S
C989 H974 0.959 . S
C989 H975 0.961 . S
C989 C988 1.502 . S
C990 H976 0.960 . S
C990 H977 0.961 . S
C990 H978 0.959 . S
C990 C988 1.561 . S
C991 C988 1.526 . S
C991 C992 1.396 . S
C991 C996 1.390 . S
C992 C986 1.465 . S
C992 C991 1.396 . S
C992 C993 1.399 . S
C993 H979 0.929 . S
C993 C992 1.399 . S
C993 C994 1.385 . S
C994 H980 0.931 . S
C994 C993 1.385 . S
C994 C995 1.389 . S
C995 C994 1.389 . S
C995 C996 1.387 . S
C996 H981 0.930 . S
C996 C991 1.390 . S
C996 C995 1.387 . S
H997 C1009 0.930 . S
H998 C1011 0.930 . S
H999 C1012 0.930 . S
H1000 C1016 0.959 . S
H1001 C1016 0.959 . S
H1002 C1016 0.961 . S
H1003 C1017 0.960 . S
H1004 C1017 0.961 . S
H1005 C1017 0.959 . S
H1006 C1020 0.929 . S
H1007 C1021 0.931 . S
H1008 C1023 0.930 1_554 S
C1009 H997 0.930 . S
C1009 C1010 1.399 . S
C1009 C1014 1.399 . S
C1010 C1009 1.399 . S
C1010 C1011 1.376 1_554 S
C1011 H998 0.930 . S
C1011 C1010 1.376 1_556 S
C1011 C1012 1.388 . S
C1012 H999 0.930 . S
C1012 C1011 1.388 . S
C1012 C1013 1.390 . S
C1013 C1012 1.390 . S
C1013 C1014 1.394 1_556 S
C1013 C1019 1.465 . S
C1014 C1009 1.399 . S
C1014 C1013 1.394 1_554 S
C1014 C1015 1.516 . S
C1015 C1014 1.516 . S
C1015 C1016 1.502 . S
C1015 C1017 1.561 . S
C1015 C1018 1.526 1_554 S
C1016 H1000 0.959 . S
C1016 H1001 0.959 . S
C1016 H1002 0.961 . S
C1016 C1015 1.502 . S
C1017 H1003 0.960 . S
C1017 H1004 0.961 . S
C1017 H1005 0.959 . S
C1017 C1015 1.561 . S
C1018 C1015 1.526 1_556 S
C1018 C1019 1.396 . S
C1018 C1023 1.390 . S
C1019 C1013 1.465 . S
C1019 C1018 1.396 . S
C1019 C1020 1.399 . S
C1020 H1006 0.929 . S
C1020 C1019 1.399 . S
C1020 C1021 1.385 . S
C1021 H1007 0.931 . S
C1021 C1020 1.385 . S
C1021 C1022 1.389 . S
C1022 C1021 1.389 . S
C1022 C1023 1.387 . S
C1023 H1008 0.930 1_556 S
C1023 C1018 1.390 . S
C1023 C1022 1.387 . S
C389 C7 1.577 . S
C401 C119 1.442 . S
C416 C37 1.525 . S
C428 C155 1.406 . S
C443 C54 1.717 . S
C455 C191 1.569 . S
C482 C221 1.494 . S
C470 C87 1.472 . S
C509 C263 1.383 . S
C497 C30 1.531 . S
C524 C51 1.505 . S
C536 C293 1.474 . S
C551 C84 1.759 . S
C563 C329 1.612 . S
C578 C10 1.484 . S
C590 C371 1.392 . S
C605 C59 1.589 . S
C617 C341 1.543 1_545 S
C644 C233 1.370 . S
C632 C74 1.454 . S
C671 C299 1.630 . S
C659 C18 1.733 . S
C686 C32 1.527 . S
C698 C335 1.488 . S
C725 C125 1.461 . S
C713 C73 1.564 . S
C740 C15 1.478 . S
C752 C185 1.450 . S
C779 C227 1.715 . S
C767 C43 1.795 . S
C806 C89 1.412 . S
C794 C62 1.472 . S
C833 C305 1.538 . S
C821 C21 1.559 . S
C860 C365 1.354 . S
C848 C29 1.322 . S
C875 C52 1.289 . S
C887 C257 1.291 . S
C914 C269 1.535 . S
C902 C81 1.542 . S
C941 C161 1.455 . S
C929 C40 1.515 . S
C956 C65 1.539 . S
C968 C197 1.527 . S
C995 C113 1.307 . S
C983 C76 1.301 . S
C1022 C149 1.262 . S
C1010 C8 1.373 . S
