# Generated by pormake.
# Topology anh, (6,3)-cn, num edge types: 1
# Building blocks:
#     Node 0, Type 0, BuildingBlock: BETDAH_clean_sbu_0, # of connection points: 6
#     Node 1, Type 0, BuildingBlock: BETDAH_clean_sbu_0, # of connection points: 6
#     Node 2, Type 0, BuildingBlock: BETDAH_clean_sbu_0, # of connection points: 6
#     Node 3, Type 1, BuildingBlock: BELTOD_clean_linker_0, # of connection points: 3
#     Node 4, Type 1, BuildingBlock: BELTOD_clean_linker_0, # of connection points: 3
#     Node 5, Type 1, BuildingBlock: BELTOD_clean_linker_0, # of connection points: 3
#     Node 6, Type 1, BuildingBlock: BELTOD_clean_linker_0, # of connection points: 3
#     Node 7, Type 1, BuildingBlock: BELTOD_clean_linker_0, # of connection points: 3
#     Node 8, Type 1, BuildingBlock: BELTOD_clean_linker_0, # of connection points: 3
#     Edge 9, Type (0, 1), BuildingBlock: TEMPAE_clean_linker_10, # of connection points: 2
#     Edge 10, Type (0, 1), BuildingBlock: TEMPAE_clean_linker_10, # of connection points: 2
#     Edge 11, Type (0, 1), BuildingBlock: TEMPAE_clean_linker_10, # of connection points: 2
#     Edge 12, Type (0, 1), BuildingBlock: TEMPAE_clean_linker_10, # of connection points: 2
#     Edge 13, Type (0, 1), BuildingBlock: TEMPAE_clean_linker_10, # of connection points: 2
#     Edge 14, Type (0, 1), BuildingBlock: TEMPAE_clean_linker_10, # of connection points: 2
#     Edge 15, Type (0, 1), BuildingBlock: TEMPAE_clean_linker_10, # of connection points: 2
#     Edge 16, Type (0, 1), BuildingBlock: TEMPAE_clean_linker_10, # of connection points: 2
#     Edge 17, Type (0, 1), BuildingBlock: TEMPAE_clean_linker_10, # of connection points: 2
#     Edge 18, Type (0, 1), BuildingBlock: TEMPAE_clean_linker_10, # of connection points: 2
#     Edge 19, Type (0, 1), BuildingBlock: TEMPAE_clean_linker_10, # of connection points: 2
#     Edge 20, Type (0, 1), BuildingBlock: TEMPAE_clean_linker_10, # of connection points: 2
#     Edge 21, Type (0, 1), BuildingBlock: TEMPAE_clean_linker_10, # of connection points: 2
#     Edge 22, Type (0, 1), BuildingBlock: TEMPAE_clean_linker_10, # of connection points: 2
#     Edge 23, Type (0, 1), BuildingBlock: TEMPAE_clean_linker_10, # of connection points: 2
#     Edge 24, Type (0, 1), BuildingBlock: TEMPAE_clean_linker_10, # of connection points: 2
#     Edge 25, Type (0, 1), BuildingBlock: TEMPAE_clean_linker_10, # of connection points: 2
#     Edge 26, Type (0, 1), BuildingBlock: TEMPAE_clean_linker_10, # of connection points: 2
# Relax obj value: 0.178
# Max RMSD: 0.209
# Mean RMSD: 0.149
data_MOF--net-anh--node1-BETDAH_clean_sbu_0--node2-BELTOD_clean_linker_0--edge1-TEMPAE_clean_linker_10
_symmetry_space_group_name_H-M    P1
_symmetry_Int_Tables_number       1
_symmetry_cell_setting            triclinic
loop_
_symmetry_equiv_pos_as_xyz
'x, y, z'
_cell_length_a     36.671712
_cell_length_b     41.966274
_cell_length_c     61.591908
_cell_angle_alpha  92.746545
_cell_angle_beta   89.388888
_cell_angle_gamma 129.00469
loop_
_atom_site_label
_atom_site_type_symbol
_atom_site_fract_x
_atom_site_fract_y
_atom_site_fract_z
_atom_type_partial_charge
Ho0 Ho 0.08478 0.49343 0.15386 0.0
Ho1 Ho 0.03953 0.53011 0.15866 0.0
C2 C 0.14917 0.59358 0.15647 0.0
C3 C 0.14684 0.48618 0.14692 0.0
C4 C 0.1951 0.51971 0.15473 0.0
C5 C 0.22786 0.55012 0.14068 0.0
C6 C 0.27405 0.5808 0.14793 0.0
C7 C 0.28817 0.57785 0.1683 0.0
C8 C 0.25387 0.55574 0.18395 0.0
C9 C 0.20743 0.52515 0.17699 0.0
C10 C 0.0621 0.49773 0.1948 0.0
C11 C 0.97442 0.43074 0.15167 0.0
C12 C 1.00182 0.5553 0.1804 0.0
C13 C 0.95333 0.53886 0.17969 0.0
C14 C 0.92375 0.51415 0.19639 0.0
C15 C 0.87555 0.49049 0.1937 0.0
C16 C 0.85695 0.49201 0.17446 0.0
C17 C 0.88651 0.51743 0.15803 0.0
C18 C 0.93445 0.54082 0.16063 0.0
C19 C 0.03919 0.51718 0.115 0.0
O20 O 0.14794 0.56154 0.15743 0.0
O21 O 0.11062 0.58916 0.15599 0.0
O22 O 0.11612 0.4658 0.16205 0.0
O23 O 0.13134 0.49512 0.13122 0.0
O24 O 0.05343 0.46505 0.18576 0.0
O25 O 0.08159 0.52598 0.18152 0.0
O26 O 0.97659 0.46227 0.15872 0.0
O27 O 1.01236 0.43588 0.1455 0.0
O28 O 1.02602 0.573 0.16296 0.0
O29 O 1.0072 0.5298 0.18785 0.0
O30 O 1.02017 0.53168 0.12445 0.0
O31 O 0.05598 0.50843 0.12927 0.0
H32 H 0.21854 0.54899 0.12386 0.0
H33 H 0.30001 0.6002 0.13602 0.0
H34 H 0.26402 0.55522 0.20031 0.0
H35 H 0.18221 0.50439 0.18877 0.0
H36 H 0.93783 0.51194 0.2111 0.0
H37 H 0.85286 0.47142 0.20662 0.0
H38 H 0.8726 0.52 0.14337 0.0
H39 H 0.9564 0.55942 0.14743 0.0
Ho40 Ho 0.56367 0.99596 0.474 0.0
Ho41 Ho 0.50573 0.02243 0.47297 0.0
C42 C 0.44961 0.92732 0.47005 0.0
C43 C 0.59643 0.9582 0.48145 0.0
C44 C 0.57567 0.91474 0.48282 0.0
C45 C 0.54896 0.89211 0.5007 0.0
C46 C 0.53294 0.8521 0.50247 0.0
C47 C 0.54295 0.83412 0.48632 0.0
C48 C 0.56753 0.85578 0.46798 0.0
C49 C 0.58388 0.89586 0.46626 0.0
C50 C 0.55263 0.01295 0.4341 0.0
C51 C 0.62051 0.09186 0.47661 0.0
C52 C 0.47258 0.05974 0.46515 0.0
C53 C 0.48931 0.10194 0.46987 0.0
C54 C 0.51596 0.13233 0.45467 0.0
C55 C 0.5303 0.17181 0.45892 0.0
C56 C 0.51762 0.1812 0.47826 0.0
C57 C 0.49214 0.15133 0.49366 0.0
C58 C 0.47814 0.11208 0.48953 0.0
C59 C 0.51631 0.00476 0.51276 0.0
O60 O 0.48945 0.93652 0.47694 0.0
O61 O 0.44828 0.95622 0.46383 0.0
O62 O 0.59518 0.96924 0.4622 0.0
O63 O 0.587 0.97434 0.49693 0.0
O64 O 0.5909 0.02123 0.44135 0.0
O65 O 0.52086 0.99371 0.4479 0.0
O66 O 0.57952 0.08325 0.47323 0.0
O67 O 0.62394 0.06286 0.47947 0.0
O68 O 0.46044 0.03702 0.48181 0.0
O69 O 0.49631 0.05549 0.45104 0.0
O70 O 0.47773 0.99586 0.50544 0.0
O71 O 0.54828 0.0246 0.49909 0.0
H72 H 0.54172 0.90565 0.51367 0.0
H73 H 0.51457 0.83585 0.51689 0.0
H74 H 0.57619 0.84246 0.45557 0.0
H75 H 0.60428 0.91257 0.45231 0.0
H76 H 0.52507 0.12546 0.43936 0.0
H77 H 0.54975 0.1945 0.44681 0.0
H78 H 0.48233 0.15823 0.50874 0.0
H79 H 0.45788 0.08952 0.50162 0.0
Ho80 Ho 0.61309 0.57867 0.82813 0.0
Ho81 Ho 0.54813 0.48828 0.83064 0.0
C82 C 0.49717 0.53037 0.83483 0.0
C83 C 0.64776 0.65065 0.81642 0.0
C84 C 0.62899 0.67324 0.81789 0.0
C85 C 0.61206 0.67807 0.79905 0.0
C86 C 0.59277 0.69806 0.80027 0.0
C87 C 0.59017 0.71388 0.82036 0.0
C88 C 0.60679 0.70882 0.83925 0.0
C89 C 0.62593 0.68865 0.83805 0.0
C90 C 0.60014 0.55373 0.86821 0.0
C91 C 0.66532 0.53819 0.8308 0.0
C92 C 0.50891 0.41363 0.83979 0.0
C93 C 0.51924 0.38516 0.83511 0.0
C94 C 0.51946 0.36412 0.85207 0.0
C95 C 0.52731 0.33584 0.84785 0.0
C96 C 0.5352 0.32811 0.82656 0.0
C97 C 0.53617 0.34998 0.80966 0.0
C98 C 0.52831 0.37825 0.81388 0.0
C99 C 0.56002 0.51412 0.79014 0.0
O100 O 0.54019 0.56474 0.8305 0.0
O101 O 0.49182 0.49618 0.83746 0.0
O102 O 0.65938 0.64434 0.83478 0.0
O103 O 0.62547 0.61833 0.80285 0.0
O104 O 0.64032 0.58582 0.86179 0.0
O105 O 0.56863 0.53821 0.85366 0.0
O106 O 0.62139 0.5031 0.83249 0.0
O107 O 0.67158 0.57256 0.82737 0.0
O108 O 0.49607 0.42315 0.82321 0.0
O109 O 0.53811 0.44527 0.85316 0.0
O110 O 0.52071 0.48216 0.7971 0.0
O111 O 0.59227 0.52895 0.80434 0.0
H112 H 0.61384 0.66646 0.78332 0.0
H113 H 0.58111 0.70217 0.78535 0.0
H114 H 0.60514 0.72058 0.85496 0.0
H115 H 0.63827 0.68519 0.85295 0.0
H116 H 0.51308 0.36928 0.86859 0.0
H117 H 0.52707 0.31989 0.86123 0.0
H118 H 0.54181 0.34448 0.79307 0.0
H119 H 0.52875 0.39425 0.80047 0.0
P120 P 0.58568 0.00781 0.20075 0.0
H121 H 0.56475 0.94093 0.17161 0.0
H122 H 0.49109 0.87496 0.1604 0.0
H123 H 0.41546 0.9161 0.18528 0.0
H124 H 0.49004 0.98192 0.19739 0.0
H125 H 0.68463 0.0605 0.18961 0.0
H126 H 0.73913 0.13051 0.17785 0.0
H127 H 0.6265 0.13682 0.17459 0.0
H128 H 0.57086 0.06546 0.18615 0.0
H129 H 0.52525 0.9458 0.23146 0.0
H130 H 0.61126 0.07756 0.23018 0.0
O131 O 0.61756 0.99244 0.20395 0.0
H132 H 0.50882 0.94918 0.26957 0.0
H133 H 0.594 0.08107 0.26823 0.0
C134 C 0.53306 0.96633 0.18559 0.0
C135 C 0.53248 0.93628 0.1742 0.0
C136 C 0.48996 0.89829 0.16771 0.0
C137 C 0.4468 0.88952 0.17221 0.0
C138 C 0.44778 0.92116 0.182 0.0
C139 C 0.49052 0.95918 0.18864 0.0
C140 C 0.62327 0.05727 0.18855 0.0
C141 C 0.67098 0.07624 0.18594 0.0
C142 C 0.70237 0.11645 0.17927 0.0
C143 C 0.687 0.13894 0.1753 0.0
C144 C 0.63911 0.11997 0.17754 0.0
C145 C 0.60735 0.07924 0.18399 0.0
C146 C 0.56899 0.01131 0.22784 0.0
C147 C 0.53968 0.9754 0.23923 0.0
C148 C 0.53011 0.97735 0.26103 0.0
C149 C 0.54997 0.0154 0.27196 0.0
C150 C 0.57841 0.05131 0.26032 0.0
C151 C 0.58804 0.04931 0.23846 0.0
P152 P 0.6205 0.56334 0.55556 0.0
H153 H 0.65203 0.54558 0.5168 0.0
H154 H 0.63013 0.48148 0.5 0.0
H155 H 0.51982 0.41294 0.54634 0.0
H156 H 0.54225 0.4772 0.5632 0.0
H157 H 0.66306 0.64612 0.54354 0.0
H158 H 0.63152 0.67574 0.52634 0.0
H159 H 0.49363 0.55724 0.52305 0.0
H160 H 0.52565 0.52705 0.53981 0.0
H161 H 0.6644 0.55524 0.59117 0.0
H162 H 0.54643 0.55325 0.58231 0.0
O163 O 0.67883 0.59615 0.55368 0.0
H164 H 0.64969 0.54712 0.6301 0.0
H165 H 0.53136 0.54476 0.62135 0.0
C166 C 0.5997 0.51601 0.54162 0.0
C167 C 0.6229 0.5167 0.52322 0.0
C168 C 0.61014 0.4801 0.51353 0.0
C169 C 0.5738 0.44234 0.52212 0.0
C170 C 0.54863 0.44172 0.53971 0.0
C171 C 0.56139 0.47836 0.54934 0.0
C172 C 0.59674 0.58437 0.54272 0.0
C173 C 0.62619 0.62629 0.53889 0.0
C174 C 0.60826 0.64316 0.52904 0.0
C175 C 0.56046 0.61848 0.52325 0.0
C176 C 0.5307 0.57657 0.52728 0.0
C177 C 0.54891 0.55948 0.53682 0.0
C178 C 0.60735 0.55595 0.58397 0.0
C179 C 0.63545 0.55323 0.59762 0.0
C180 C 0.62701 0.54855 0.61982 0.0
C181 C 0.58982 0.5459 0.62871 0.0
C182 C 0.56035 0.54687 0.61487 0.0
C183 C 0.56914 0.55196 0.5926 0.0
P184 P 0.09223 0.55049 0.87444 0.0
H185 H 0.1675 0.58436 0.84026 0.0
H186 H 0.2303 0.58006 0.83298 0.0
H187 H 0.17117 0.48559 0.87883 0.0
H188 H 0.1081 0.48953 0.88569 0.0
H189 H 0.07702 0.60696 0.85577 0.0
H190 H 1.00974 0.60363 0.84785 0.0
H191 H 0.91664 0.47517 0.86044 0.0
H192 H 0.98496 0.4785 0.86812 0.0
H193 H 0.15584 0.56509 0.90947 0.0
H194 H 1.01115 0.5148 0.9049 0.0
O195 O 0.13223 0.60161 0.87588 0.0
H196 H 0.14815 0.5543 0.94826 0.0
H197 H 1.00382 0.50591 0.94365 0.0
C198 C 0.13059 0.53694 0.86347 0.0
C199 C 0.16659 0.56155 0.84837 0.0
C200 C 0.2037 0.5593 0.8443 0.0
C201 C 0.20818 0.53277 0.85534 0.0
C202 C 0.1712 0.50723 0.86995 0.0
C203 C 0.13372 0.50904 0.87373 0.0
C204 C 0.03847 0.54303 0.86272 0.0
C205 C 0.04254 0.5774 0.8565 0.0
C206 C 1.00291 0.57553 0.85191 0.0
C207 C 0.95568 0.5392 0.85349 0.0
C208 C 0.95135 0.50432 0.85913 0.0
C209 C 0.9913 0.50605 0.86333 0.0
C210 C 0.08373 0.53939 0.90351 0.0
C211 C 0.12204 0.5511 0.91661 0.0
C212 C 0.11776 0.54552 0.93912 0.0
C213 C 0.07517 0.52893 0.9496 0.0
C214 C 0.03698 0.51773 0.93646 0.0
C215 C 0.04121 0.52292 0.91389 0.0
P216 P 0.05852 0.49517 0.43259 0.0
H217 H 0.11505 0.5362 0.47269 0.0
H218 H 0.17357 0.60938 0.48341 0.0
H219 H 0.1251 0.63915 0.43059 0.0
H220 H 0.06643 0.56619 0.42009 0.0
H221 H 1.02699 0.41609 0.44629 0.0
H222 H 0.95249 0.35526 0.4584 0.0
H223 H 0.89307 0.41687 0.4553 0.0
H224 H 0.96921 0.47907 0.44353 0.0
H225 H 0.12672 0.52726 0.39858 0.0
H226 H 0.97977 0.46976 0.40281 0.0
O227 O 0.09684 0.48659 0.43568 0.0
H228 H 0.12249 0.53069 0.35936 0.0
H229 H 0.97533 0.47315 0.36333 0.0
C230 C 0.08683 0.54564 0.44535 0.0
C231 C 0.11578 0.55834 0.46391 0.0
C232 C 0.14936 0.60022 0.47 0.0
C233 C 0.15456 0.62999 0.45753 0.0
C234 C 0.12242 0.61688 0.44026 0.0
C235 C 0.08863 0.57507 0.43432 0.0
C236 C 1.00406 0.45251 0.44412 0.0
C237 C 0.99852 0.41721 0.4486 0.0
C238 C 0.95572 0.38223 0.45558 0.0
C239 C 0.91693 0.38126 0.45789 0.0
C240 C 0.92242 0.41675 0.45363 0.0
C241 C 0.96585 0.45228 0.44698 0.0
C242 C 0.05329 0.49706 0.4036 0.0
C243 C 0.09337 0.51499 0.39105 0.0
C244 C 0.09094 0.51703 0.36861 0.0
C245 C 0.04841 0.50164 0.35818 0.0
C246 C 1.00856 0.48517 0.3709 0.0
C247 C 1.01099 0.48289 0.39346 0.0
P248 P 0.61277 0.04284 0.74629 0.0
H249 H 0.66366 0.11434 0.77656 0.0
H250 H 0.64414 0.15504 0.7936 0.0
H251 H 0.50186 0.06714 0.76789 0.0
H252 H 0.52287 0.02756 0.74977 0.0
H253 H 0.67151 0.02381 0.76155 0.0
H254 H 0.65485 0.96523 0.77865 0.0
H255 H 0.50713 0.90719 0.77859 0.0
H256 H 0.52446 0.96738 0.76178 0.0
H257 H 0.62671 0.09397 0.71226 0.0
H258 H 0.54996 0.96453 0.71947 0.0
O259 O 0.67101 0.07671 0.74423 0.0
H260 H 0.60568 0.08087 0.67374 0.0
H261 H 0.52652 0.95069 0.68096 0.0
C262 C 0.59499 0.06846 0.76153 0.0
C263 C 0.62817 0.10367 0.77464 0.0
C264 C 0.61671 0.12676 0.78463 0.0
C265 C 0.57142 0.11472 0.78206 0.0
C266 C 0.53738 0.07792 0.76986 0.0
C267 C 0.54915 0.05503 0.75963 0.0
C268 C 0.59917 0.99983 0.76017 0.0
C269 C 0.63549 0.99879 0.76528 0.0
C270 C 0.62588 0.96506 0.77501 0.0
C271 C 0.57957 0.93125 0.77964 0.0
C272 C 0.54317 0.93283 0.77522 0.0
C273 C 0.55297 0.96701 0.76554 0.0
C274 C 0.58988 0.03034 0.71876 0.0
C275 C 0.60439 0.06254 0.7056 0.0
C276 C 0.59203 0.05489 0.68353 0.0
C277 C 0.5642 0.01463 0.6741 0.0
C278 C 0.54851 0.98213 0.68755 0.0
C279 C 0.56146 0.98996 0.70969 0.0
P280 P 0.44718 0.37447 0.07631 0.0
H281 H 0.45273 0.36489 0.12152 0.0
H282 H 0.51791 0.40145 0.14774 0.0
H283 H 0.61507 0.46464 0.09558 0.0
H284 H 0.54969 0.43276 0.07017 0.0
H285 H 0.3737 0.35882 0.10511 0.0
H286 H 0.36717 0.40677 0.1256 0.0
H287 H 0.49088 0.50851 0.09469 0.0
H288 H 0.49737 0.46114 0.07447 0.0
H289 H 0.50385 0.36565 0.04665 0.0
H290 H 0.42167 0.40668 0.0443 0.0
O291 O 0.40354 0.32468 0.07921 0.0
H292 H 0.54079 0.39874 0.01255 0.0
H293 H 0.45819 0.43954 0.01061 0.0
C294 C 0.4964 0.39339 0.09359 0.0
C295 C 0.48816 0.38607 0.1157 0.0
C296 C 0.52531 0.4075 0.13069 0.0
C297 C 0.57161 0.43497 0.12365 0.0
C298 C 0.57979 0.44358 0.10158 0.0
C299 C 0.5423 0.42369 0.08676 0.0
C300 C 0.43461 0.40639 0.08759 0.0
C301 C 0.39852 0.3913 0.10238 0.0
C302 C 0.39545 0.4186 0.11432 0.0
C303 C 0.42872 0.46096 0.11154 0.0
C304 C 0.46479 0.47586 0.09683 0.0
C305 C 0.4679 0.44877 0.08505 0.0
C306 C 0.46196 0.38561 0.04843 0.0
C307 C 0.49312 0.38103 0.03858 0.0
C308 C 0.51435 0.40009 0.01927 0.0
C309 C 0.50354 0.42295 0.00957 0.0
C310 C 0.46842 0.42345 0.0183 0.0
C311 C 0.4473 0.40439 0.03746 0.0
C312 C 0.30053 0.52812 0.16039 0.0
C313 C 0.32066 0.56889 0.16645 0.0
C314 C 0.32778 0.51781 0.15303 0.0
C315 C 0.37694 0.54882 0.15281 0.0
C316 C 0.39807 0.58972 0.1601 0.0
C317 C 0.36926 0.59966 0.16642 0.0
C318 C 0.30338 0.47419 0.14422 0.0
C319 C 0.45061 0.62287 0.16041 0.0
C320 C 0.42248 0.49126 0.14553 0.0
C321 C 0.4244 0.48972 0.12287 0.0
C322 C 0.41342 0.51576 0.15607 0.0
C323 C 0.40463 0.53765 0.14343 0.0
C324 C 0.40984 0.5383 0.12063 0.0
C325 C 0.42013 0.51442 0.11062 0.0
C326 C 0.40815 0.51471 0.18043 0.0
C327 C 0.39825 0.55936 0.10641 0.0
H328 H 0.26268 0.50455 0.15985 0.0
H329 H 0.38433 0.63119 0.17071 0.0
H330 H 0.31266 0.47418 0.12702 0.0
H331 H 0.31488 0.45989 0.15358 0.0
H332 H 0.26452 0.45449 0.14495 0.0
H333 H 0.46157 0.65231 0.16807 0.0
H334 H 0.46768 0.61292 0.1694 0.0
H335 H 0.4636 0.62822 0.14357 0.0
H336 H 0.42647 0.47231 0.15486 0.0
H337 H 0.42156 0.51279 0.09303 0.0
H338 H 0.37033 0.4936 0.1843 0.0
H339 H 0.42327 0.54561 0.18765 0.0
H340 H 0.42536 0.50372 0.1882 0.0
H341 H 0.35958 0.53947 0.10397 0.0
H342 H 0.41416 0.56483 0.09017 0.0
H343 H 0.41032 0.58908 0.11406 0.0
C344 C 0.70248 0.1453 0.46463 0.0
C345 C 0.66363 0.13521 0.47616 0.0
C346 C 0.74212 0.18653 0.46231 0.0
C347 C 0.7438 0.21847 0.47253 0.0
C348 C 0.70504 0.20828 0.48473 0.0
C349 C 0.66502 0.16681 0.486 0.0
C350 C 0.78182 0.19591 0.44853 0.0
C351 C 0.70579 0.24115 0.4964 0.0
C352 C 0.86748 0.32013 0.48084 0.0
C353 C 0.87068 0.34224 0.4635 0.0
C354 C 0.82569 0.28068 0.4846 0.0
C355 C 0.78627 0.26237 0.47041 0.0
C356 C 0.78875 0.28521 0.45337 0.0
C357 C 0.8308 0.32497 0.45023 0.0
C358 C 0.82424 0.25804 0.50335 0.0
C359 C 0.748 0.2668 0.43762 0.0
H360 H 0.70111 0.12092 0.4567 0.0
H361 H 0.6349 0.15902 0.49489 0.0
H362 H 0.78854 0.21624 0.43547 0.0
H363 H 0.81451 0.21256 0.4586 0.0
H364 H 0.77426 0.16771 0.44091 0.0
H365 H 0.67442 0.22804 0.5065 0.0
H366 H 0.73774 0.26133 0.50701 0.0
H367 H 0.70715 0.26074 0.4844 0.0
H368 H 0.89811 0.33348 0.49125 0.0
H369 H 0.83323 0.34172 0.43667 0.0
H370 H 0.82168 0.23148 0.49703 0.0
H371 H 0.7927 0.24578 0.51314 0.0
H372 H 0.85595 0.27798 0.51416 0.0
H373 H 0.74394 0.24254 0.42703 0.0
H374 H 0.75317 0.29011 0.42713 0.0
H375 H 0.71477 0.25211 0.44639 0.0
C376 C 0.53552 0.72655 0.80813 0.0
C377 C 0.57401 0.73865 0.82106 0.0
C378 C 0.52649 0.75386 0.80474 0.0
C379 C 0.55687 0.79416 0.81442 0.0
C380 C 0.59227 0.80476 0.82951 0.0
C381 C 0.60051 0.77686 0.83262 0.0
C382 C 0.48755 0.7409 0.78901 0.0
C383 C 0.62488 0.84714 0.84053 0.0
C384 C 0.59309 0.88007 0.7787 0.0
C385 C 0.57008 0.89407 0.78795 0.0
C386 C 0.5883 0.84727 0.78706 0.0
C387 C 0.55917 0.82736 0.80503 0.0
C388 C 0.53441 0.84028 0.81406 0.0
C389 C 0.54006 0.87355 0.80534 0.0
C390 C 0.61547 0.83462 0.7769 0.0
C391 C 0.50248 0.8193 0.83299 0.0
H392 H 0.51405 0.69653 0.79968 0.0
H393 H 0.63014 0.78636 0.84275 0.0
H394 H 0.46942 0.75306 0.79468 0.0
H395 H 0.50268 0.75357 0.77299 0.0
H396 H 0.4613 0.70694 0.7867 0.0
H397 H 0.64442 0.8481 0.85455 0.0
H398 H 0.65073 0.86911 0.82867 0.0
H399 H 0.60518 0.85773 0.84632 0.0
H400 H 0.61543 0.89516 0.76493 0.0
H401 H 0.5221 0.88422 0.8125 0.0
H402 H 0.59109 0.80175 0.77128 0.0
H403 H 0.64002 0.83834 0.78916 0.0
H404 H 0.63611 0.85302 0.76283 0.0
H405 H 0.47222 0.78722 0.82785 0.0
H406 H 0.48888 0.83519 0.8393 0.0
H407 H 0.52123 0.81785 0.84642 0.0
C408 C 0.79025 0.48546 0.1883 0.0
C409 C 0.80785 0.4734 0.17269 0.0
C410 C 0.75044 0.48128 0.18362 0.0
C411 C 0.72825 0.46431 0.16302 0.0
C412 C 0.74368 0.44889 0.14786 0.0
C413 C 0.78344 0.45327 0.15306 0.0
C414 C 0.73432 0.49772 0.20002 0.0
C415 C 0.72048 0.43064 0.12564 0.0
C416 C 0.60464 0.41902 0.15158 0.0
C417 C 0.6107 0.44814 0.13828 0.0
C418 C 0.64296 0.42551 0.1612 0.0
C419 C 0.68815 0.46185 0.15726 0.0
C420 C 0.69474 0.49314 0.14549 0.0
C421 C 0.65546 0.48602 0.1362 0.0
C422 C 0.63533 0.39146 0.17347 0.0
C423 C 0.74323 0.53237 0.14124 0.0
H424 H 0.80996 0.50154 0.20335 0.0
H425 H 0.79776 0.44417 0.14114 0.0
H426 H 0.74143 0.52556 0.19392 0.0
H427 H 0.69594 0.47481 0.20228 0.0
H428 H 0.75259 0.50599 0.21606 0.0
H429 H 0.73455 0.41698 0.11669 0.0
H430 H 0.68201 0.40659 0.12705 0.0
H431 H 0.7264 0.45496 0.11583 0.0
H432 H 0.57041 0.38938 0.15297 0.0
H433 H 0.66004 0.50887 0.12624 0.0
H434 H 0.65685 0.40388 0.18874 0.0
H435 H 0.6465 0.37649 0.16334 0.0
H436 H 0.59793 0.36766 0.17753 0.0
H437 H 0.76358 0.54719 0.15676 0.0
H438 H 0.74205 0.55458 0.13287 0.0
H439 H 0.7626 0.52526 0.13097 0.0
C440 C 0.3622 0.87378 0.46483 0.0
C441 C 0.40585 0.88384 0.46949 0.0
C442 C 0.32061 0.8328 0.4642 0.0
C443 C 0.32257 0.80091 0.46814 0.0
C444 C 0.36647 0.8109 0.4731 0.0
C445 C 0.40747 0.85218 0.4738 0.0
C446 C 0.27454 0.82359 0.4591 0.0
C447 C 0.37033 0.77791 0.47716 0.0
C448 C 0.21029 0.69478 0.48114 0.0
C449 C 0.19666 0.67405 0.4606 0.0
C450 C 0.25093 0.73622 0.48387 0.0
C451 C 0.27915 0.75703 0.46573 0.0
C452 C 0.26579 0.73591 0.44506 0.0
C453 C 0.2246 0.69494 0.44273 0.0
C454 C 0.26359 0.75781 0.50611 0.0
C455 C 0.29523 0.75651 0.42537 0.0
H456 H 0.36043 0.89797 0.46166 0.0
H457 H 0.44094 0.85954 0.47746 0.0
H458 H 0.25876 0.80414 0.44382 0.0
H459 H 0.24942 0.80603 0.47222 0.0
H460 H 0.27868 0.85191 0.45726 0.0
H461 H 0.4067 0.79084 0.48175 0.0
H462 H 0.34664 0.75861 0.49032 0.0
H463 H 0.35906 0.75747 0.4623 0.0
H464 H 0.18886 0.67869 0.495 0.0
H465 H 0.21472 0.6788 0.4269 0.0
H466 H 0.26564 0.78528 0.50542 0.0
H467 H 0.29871 0.76871 0.51147 0.0
H468 H 0.2377 0.73759 0.51848 0.0
H469 H 0.29717 0.78326 0.42198 0.0
H470 H 0.28091 0.73537 0.41063 0.0
H471 H 0.33163 0.76827 0.42857 0.0
C472 C 0.50967 0.25756 0.83058 0.0
C473 C 0.54067 0.29626 0.82181 0.0
C474 C 0.51269 0.22635 0.82535 0.0
C475 C 0.54792 0.23418 0.81122 0.0
C476 C 0.58003 0.2735 0.80272 0.0
C477 C 0.57581 0.30398 0.808 0.0
C478 C 0.47754 0.18473 0.83457 0.0
C479 C 0.61856 0.28326 0.78787 0.0
C480 C 0.58243 0.16562 0.81041 0.0
C481 C 0.56121 0.14211 0.79081 0.0
C482 C 0.57794 0.19531 0.81742 0.0
C483 C 0.55057 0.20102 0.80483 0.0
C484 C 0.52711 0.17604 0.78564 0.0
C485 C 0.53307 0.14722 0.77875 0.0
C486 C 0.60388 0.22159 0.83787 0.0
C487 C 0.4968 0.18059 0.772 0.0
H488 H 0.48213 0.25129 0.84107 0.0
H489 H 0.60017 0.33398 0.80137 0.0
H490 H 0.45746 0.16096 0.82113 0.0
H491 H 0.49598 0.17652 0.84394 0.0
H492 H 0.45239 0.18366 0.84538 0.0
H493 H 0.64225 0.31595 0.78362 0.0
H494 H 0.63981 0.27633 0.7957 0.0
H495 H 0.60297 0.26367 0.77262 0.0
H496 H 0.60338 0.16137 0.82014 0.0
H497 H 0.51695 0.12977 0.76346 0.0
H498 H 0.57922 0.21989 0.84932 0.0
H499 H 0.63022 0.25418 0.83379 0.0
H500 H 0.62224 0.21224 0.84627 0.0
H501 H 0.47025 0.17834 0.78225 0.0
H502 H 0.47833 0.15691 0.75839 0.0
H503 H 0.51878 0.21135 0.76512 0.0
C504 C 0.57023 0.80025 0.50298 0.0
C505 C 0.53609 0.7966 0.49052 0.0
C506 C 0.56681 0.76589 0.50665 0.0
C507 C 0.52797 0.72689 0.49771 0.0
C508 C 0.49299 0.72297 0.48523 0.0
C509 C 0.4976 0.75819 0.48166 0.0
C510 C 0.60521 0.77153 0.51983 0.0
C511 C 0.45112 0.68179 0.4756 0.0
C512 C 0.55855 0.65642 0.49425 0.0
C513 C 0.54215 0.63777 0.51412 0.0
C514 C 0.54992 0.68259 0.48753 0.0
C515 C 0.52534 0.69084 0.50134 0.0
C516 C 0.50576 0.6696 0.52068 0.0
C517 C 0.51425 0.64299 0.5268 0.0
C518 C 0.57077 0.70419 0.46665 0.0
C519 C 0.47981 0.67792 0.53592 0.0
H520 H 0.60009 0.83031 0.50958 0.0
H521 H 0.47144 0.75584 0.47195 0.0
H522 H 0.59008 0.75185 0.53398 0.0
H523 H 0.62239 0.76193 0.50976 0.0
H524 H 0.63252 0.80389 0.5259 0.0
H525 H 0.4275 0.68411 0.46597 0.0
H526 H 0.46297 0.66796 0.46495 0.0
H527 H 0.43077 0.6605 0.48877 0.0
H528 H 0.58016 0.65215 0.48453 0.0
H529 H 0.50204 0.62867 0.54227 0.0
H530 H 0.6017 0.73672 0.47049 0.0
H531 H 0.54504 0.7041 0.45727 0.0
H532 H 0.58224 0.68973 0.45624 0.0
H533 H 0.50525 0.70855 0.5444 0.0
H534 H 0.46077 0.65461 0.54838 0.0
H535 H 0.45436 0.6785 0.52678 0.0
C536 C 0.70956 0.50829 0.82337 0.0
C537 C 0.70837 0.53879 0.83335 0.0
C538 C 0.74895 0.50854 0.82564 0.0
C539 C 0.78897 0.53865 0.83942 0.0
C540 C 0.78727 0.5689 0.84999 0.0
C541 C 0.7486 0.56923 0.84645 0.0
C542 C 0.74722 0.47597 0.81298 0.0
C543 C 0.82627 0.601 0.86566 0.0
C544 C 0.8696 0.51268 0.86082 0.0
C545 C 0.9124 0.53834 0.8496 0.0
C546 C 0.83059 0.51283 0.85795 0.0
C547 C 0.83169 0.53842 0.84288 0.0
C548 C 0.87436 0.56377 0.83118 0.0
C549 C 0.9133 0.56384 0.83479 0.0
C550 C 0.78781 0.48538 0.87144 0.0
C551 C 0.87854 0.59028 0.81403 0.0
H552 H 0.6797 0.48424 0.81318 0.0
H553 H 0.74928 0.593 0.85469 0.0
H554 H 0.78248 0.48829 0.80721 0.0
H555 H 0.73473 0.45046 0.82362 0.0
H556 H 0.72266 0.46312 0.79871 0.0
H557 H 0.81701 0.61794 0.87532 0.0
H558 H 0.83479 0.58659 0.87699 0.0
H559 H 0.85839 0.62347 0.85656 0.0
H560 H 0.8667 0.49271 0.87248 0.0
H561 H 0.94459 0.58367 0.82542 0.0
H562 H 0.75821 0.46008 0.86086 0.0
H563 H 0.77708 0.50286 0.87894 0.0
H564 H 0.79387 0.47172 0.8845 0.0
H565 H 0.85158 0.57042 0.80099 0.0
H566 H 0.91372 0.60934 0.80665 0.0
H567 H 0.87171 0.61085 0.82101 0.0
C568 C 0.23381 0.64679 0.1683 0.0
C569 C 0.19428 0.63598 0.15693 0.0
C570 C 0.27491 0.68808 0.17053 0.0
C571 C 0.27674 0.71901 0.16074 0.0
C572 C 0.2373 0.70784 0.14864 0.0
C573 C 0.19654 0.66663 0.14707 0.0
C574 C 0.31591 0.69874 0.18383 0.0
C575 C 0.23789 0.7395 0.13757 0.0
C576 C 0.36497 0.82992 0.18314 0.0
C577 C 0.40157 0.84671 0.16829 0.0
C578 C 0.32404 0.78866 0.18075 0.0
C579 C 0.31961 0.76313 0.16327 0.0
C580 C 0.35583 0.77994 0.148 0.0
C581 C 0.39605 0.82145 0.15059 0.0
C582 C 0.28584 0.77218 0.19716 0.0
C583 C 0.35239 0.75386 0.12907 0.0
H584 H 0.23203 0.62325 0.17611 0.0
H585 H 0.16612 0.65834 0.13811 0.0
H586 H 0.34814 0.71601 0.17409 0.0
H587 H 0.32254 0.71896 0.19816 0.0
H588 H 0.3097 0.67104 0.18962 0.0
H589 H 0.20453 0.72566 0.1285 0.0
H590 H 0.24402 0.7628 0.1498 0.0
H591 H 0.26715 0.75586 0.12603 0.0
H592 H 0.36878 0.84863 0.19707 0.0
H593 H 0.4234 0.83402 0.13873 0.0
H594 H 0.28112 0.74728 0.20583 0.0
H595 H 0.25194 0.75869 0.1888 0.0
H596 H 0.29379 0.79632 0.20935 0.0
H597 H 0.35017 0.72826 0.13519 0.0
H598 H 0.38296 0.77173 0.11829 0.0
H599 H 0.31989 0.73995 0.11927 0.0
C600 C 0.48964 0.22114 0.48468 0.0
C601 C 0.52728 0.22082 0.4818 0.0
C602 C 0.49735 0.25791 0.48935 0.0
C603 C 0.54393 0.2951 0.49153 0.0
C604 C 0.5822 0.29509 0.48807 0.0
C605 C 0.57336 0.25776 0.48302 0.0
C606 C 0.45566 0.25675 0.4926 0.0
C607 C 0.63232 0.33418 0.49056 0.0
C608 C 0.56278 0.395 0.49162 0.0
C609 C 0.56489 0.4042 0.51399 0.0
C610 C 0.55627 0.35964 0.48399 0.0
C611 C 0.55231 0.33331 0.49911 0.0
C612 C 0.55462 0.3426 0.52169 0.0
C613 C 0.56075 0.37788 0.52884 0.0
C614 C 0.55347 0.35035 0.4598 0.0
C615 C 0.55074 0.31533 0.53832 0.0
H616 H 0.45404 0.19238 0.48346 0.0
H617 H 0.60233 0.2572 0.48079 0.0
H618 H 0.45532 0.26597 0.50974 0.0
H619 H 0.45829 0.27895 0.48219 0.0
H620 H 0.42181 0.22573 0.48874 0.0
H621 H 0.65794 0.32934 0.48593 0.0
H622 H 0.63787 0.35797 0.48041 0.0
H623 H 0.63968 0.34638 0.50771 0.0
H624 H 0.56587 0.41531 0.48013 0.0
H625 H 0.56329 0.38536 0.54614 0.0
H626 H 0.51997 0.31949 0.45537 0.0
H627 H 0.58234 0.34979 0.45508 0.0
H628 H 0.55587 0.37334 0.4502 0.0
H629 H 0.51637 0.28409 0.53631 0.0
H630 H 0.55415 0.3274 0.55527 0.0
H631 H 0.57844 0.31227 0.53578 0.0
C632 C 0.40726 0.49485 0.83463 0.0
C633 C 0.45476 0.53076 0.83759 0.0
C634 C 0.36803 0.49493 0.8368 0.0
C635 C 0.37435 0.53154 0.84294 0.0
C636 C 0.42229 0.5678 0.84619 0.0
C637 C 0.46092 0.56711 0.84319 0.0
C638 C 0.31925 0.45535 0.83203 0.0
C639 C 0.43309 0.60784 0.85336 0.0
C640 C 0.27566 0.54249 0.83233 0.0
C641 C 0.25075 0.53225 0.85204 0.0
C642 C 0.31443 0.54198 0.82915 0.0
C643 C 0.33155 0.53183 0.84606 0.0
C644 C 0.307 0.5219 0.86604 0.0
C645 C 0.26771 0.5218 0.86864 0.0
C646 C 0.33682 0.55184 0.80723 0.0
C647 C 0.3225 0.51141 0.88509 0.0
H648 H 0.40049 0.46625 0.83012 0.0
H649 H 0.49648 0.59545 0.84573 0.0
H650 H 0.29745 0.44688 0.8466 0.0
H651 H 0.30232 0.45949 0.81887 0.0
H652 H 0.31925 0.42958 0.82698 0.0
H653 H 0.47142 0.63346 0.85529 0.0
H654 H 0.41827 0.61609 0.84139 0.0
H655 H 0.41624 0.60444 0.86911 0.0
H656 H 0.26426 0.5503 0.8189 0.0
H657 H 0.25075 0.51416 0.88418 0.0
H658 H 0.33474 0.5257 0.80051 0.0
H659 H 0.37455 0.57894 0.80889 0.0
H660 H 0.31976 0.55829 0.79544 0.0
H661 H 0.31483 0.48156 0.88145 0.0
H662 H 0.30447 0.50917 0.90024 0.0
H663 H 0.36099 0.53493 0.88795 0.0
C664 C 0.88606 0.37891 0.14898 0.0
C665 C 0.92948 0.38822 0.1531 0.0
C666 C 0.84349 0.33886 0.15122 0.0
C667 C 0.84423 0.30778 0.15868 0.0
C668 C 0.88811 0.31738 0.1632 0.0
C669 C 0.93003 0.35712 0.15998 0.0
C670 C 0.79775 0.32984 0.14562 0.0
C671 C 0.8908 0.28584 0.17189 0.0
C672 C 0.73817 0.21408 0.18584 0.0
C673 C 0.72207 0.18266 0.16988 0.0
C674 C 0.77682 0.25518 0.18218 0.0
C675 C 0.79952 0.26522 0.16191 0.0
C676 C 0.7817 0.23365 0.14538 0.0
C677 C 0.74366 0.19272 0.14967 0.0
C678 C 0.79499 0.28744 0.20045 0.0
C679 C 0.80391 0.24287 0.1234 0.0
H680 H 0.88541 0.40285 0.14375 0.0
H681 H 0.96342 0.36429 0.1636 0.0
H682 H 0.77676 0.30286 0.1339 0.0
H683 H 0.77676 0.322 0.16045 0.0
H684 H 0.80322 0.35633 0.13847 0.0
H685 H 0.92749 0.29858 0.17547 0.0
H686 H 0.87059 0.27391 0.18703 0.0
H687 H 0.87472 0.25938 0.15993 0.0
H688 H 0.72189 0.20617 0.20159 0.0
H689 H 0.73142 0.16834 0.13739 0.0
H690 H 0.79865 0.31399 0.19478 0.0
H691 H 0.8304 0.29904 0.20585 0.0
H692 H 0.77167 0.27533 0.21465 0.0
H693 H 0.80748 0.26871 0.1166 0.0
H694 H 0.7832 0.21585 0.11166 0.0
H695 H 0.83971 0.25245 0.12508 0.0
C696 C 0.05801 0.49429 0.08062 0.0
C697 C 0.04467 0.51609 0.09085 0.0
C698 C 0.06322 0.49401 0.05776 0.0
C699 C 0.05604 0.51684 0.04475 0.0
C700 C 0.0431 0.53919 0.05515 0.0
C701 C 0.03716 0.53819 0.07784 0.0
C702 C 0.07663 0.46941 0.04753 0.0
C703 C 0.03568 0.56451 0.04228 0.0
C704 C 0.10955 0.55201 0.98834 0.0
C705 C 0.07092 0.52438 0.97403 0.0
C706 C 0.1057 0.54888 0.01116 0.0
C707 C 0.06195 0.51776 0.02034 0.0
C708 C 1.02302 0.48938 0.00608 0.0
C709 C 1.02801 0.49281 0.98331 0.0
C710 C 0.1484 0.57973 0.02552 0.0
C711 C 0.97564 0.45563 0.01493 0.0
H712 H 0.06397 0.47715 0.09046 0.0
H713 H 1.02726 0.55546 0.08551 0.0
H714 H 0.05137 0.44842 0.03417 0.0
H715 H 0.11174 0.4904 0.04029 0.0
H716 H 0.07763 0.45096 0.05949 0.0
H717 H 1.02636 0.58062 0.05275 0.0
H718 H 0.06803 0.58775 0.03351 0.0
H719 H 1.00722 0.5445 0.02987 0.0
H720 H 0.14287 0.57702 0.98182 0.0
H721 H 0.99794 0.47047 0.97276 0.0
H722 H 0.15438 0.56369 0.03693 0.0
H723 H 0.14254 0.59884 0.03546 0.0
H724 H 0.18059 0.60031 0.016 0.0
H725 H 0.97857 0.43636 0.02526 0.0
H726 H 0.94889 0.43562 0.00182 0.0
H727 H 0.96316 0.46916 0.02537 0.0
C728 C 0.55143 0.98836 0.39661 0.0
C729 C 0.54319 0.01024 0.4107 0.0
C730 C 0.54703 0.98824 0.37403 0.0
C731 C 0.5352 0.01145 0.36538 0.0
C732 C 0.52557 0.03274 0.37963 0.0
C733 C 0.52936 0.0316 0.40223 0.0
C734 C 0.55678 0.96453 0.35944 0.0
C735 C 0.51316 0.05798 0.37102 0.0
C736 C 0.58319 0.0473 0.30924 0.0
C737 C 0.54422 0.0176 0.29579 0.0
C738 C 0.58001 0.04682 0.33195 0.0
C739 C 0.53681 0.01586 0.34149 0.0
C740 C 0.49673 0.98701 0.32802 0.0
C741 C 0.50093 0.98817 0.30532 0.0
C742 C 0.6236 0.07818 0.34574 0.0
C743 C 0.45 0.95363 0.33755 0.0
H744 H 0.56197 0.97173 0.4033 0.0
H745 H 0.52354 0.04886 0.4132 0.0
H746 H 0.52734 0.94409 0.34752 0.0
H747 H 0.58884 0.98619 0.35009 0.0
H748 H 0.56194 0.94556 0.36875 0.0
H749 H 0.50437 0.07097 0.38421 0.0
H750 H 0.54313 0.08364 0.36199 0.0
H751 H 0.48284 0.03892 0.35939 0.0
H752 H 0.61689 0.06983 0.30206 0.0
H753 H 0.47051 0.96545 0.29501 0.0
H754 H 0.63462 0.06267 0.35426 0.0
H755 H 0.61626 0.09311 0.35836 0.0
H756 H 0.65329 0.10234 0.33592 0.0
H757 H 0.45169 0.9306 0.34439 0.0
H758 H 0.42097 0.93768 0.32517 0.0
H759 H 0.44166 0.96643 0.35104 0.0
C760 C 0.58068 0.50428 0.75335 0.0
C761 C 0.56737 0.52276 0.76702 0.0
C762 C 0.58222 0.50805 0.73076 0.0
C763 C 0.57054 0.53117 0.72177 0.0
C764 C 0.55738 0.55014 0.73566 0.0
C765 C 0.55551 0.54533 0.75817 0.0
C766 C 0.59581 0.48693 0.71648 0.0
C767 C 0.54481 0.57508 0.72673 0.0
C768 C 0.62148 0.57193 0.66657 0.0
C769 C 0.58324 0.54351 0.6525 0.0
C770 C 0.61724 0.56906 0.68917 0.0
C771 C 0.57385 0.53658 0.69792 0.0
C772 C 0.53465 0.50835 0.68379 0.0
C773 C 0.53976 0.51233 0.66118 0.0
C774 C 0.65957 0.60027 0.70365 0.0
C775 C 0.48787 0.4731 0.69247 0.0
H776 H 0.58875 0.48605 0.76031 0.0
H777 H 0.54432 0.55886 0.76887 0.0
H778 H 0.56735 0.46554 0.7043 0.0
H779 H 0.62772 0.50997 0.7074 0.0
H780 H 0.60282 0.46936 0.72597 0.0
H781 H 0.53748 0.58942 0.7398 0.0
H782 H 0.57381 0.59965 0.71684 0.0
H783 H 0.5133 0.55515 0.71584 0.0
H784 H 0.65493 0.5964 0.65983 0.0
H785 H 0.51023 0.49027 0.65027 0.0
H786 H 0.67034 0.58486 0.71251 0.0
H787 H 0.6507 0.6144 0.71601 0.0
H788 H 0.6899 0.62504 0.69435 0.0
H789 H 0.49112 0.45123 0.69966 0.0
H790 H 0.45989 0.45626 0.67957 0.0
H791 H 0.47692 0.48434 0.70557 0.0
C792 C 0.48401 0.97308 0.54824 0.0
C793 C 0.52322 0.99945 0.53549 0.0
C794 C 0.4891 0.97048 0.57048 0.0
C795 C 0.53454 0.99541 0.5803 0.0
C796 C 0.57442 0.0206 0.56725 0.0
C797 C 0.56828 0.02209 0.54491 0.0
C798 C 0.44569 0.94257 0.58364 0.0
C799 C 0.62345 0.04763 0.5771 0.0
C800 C 0.54537 0.03119 0.63939 0.0
C801 C 0.55329 0.00728 0.65022 0.0
C802 C 0.53929 0.02753 0.61671 0.0
C803 C 0.54006 0.99857 0.60444 0.0
C804 C 0.54625 0.97318 0.61525 0.0
C805 C 0.55309 0.97801 0.63799 0.0
C806 C 0.5328 0.05524 0.60585 0.0
C807 C 0.54607 0.94123 0.60278 0.0
H808 H 0.4491 0.95507 0.5409 0.0
H809 H 0.59867 0.0423 0.53505 0.0
H810 H 0.44983 0.92446 0.59434 0.0
H811 H 0.44034 0.96135 0.59427 0.0
H812 H 0.41373 0.92105 0.57315 0.0
H813 H 0.65078 0.06297 0.56456 0.0
H814 H 0.62823 0.0716 0.5883 0.0
H815 H 0.62892 0.02933 0.58685 0.0
H816 H 0.54422 0.05315 0.64864 0.0
H817 H 0.5595 0.95954 0.64609 0.0
H818 H 0.49883 0.03653 0.59666 0.0
H819 H 0.56097 0.07381 0.59401 0.0
H820 H 0.53349 0.07643 0.61771 0.0
H821 H 0.512 0.91891 0.59389 0.0
H822 H 0.55179 0.92418 0.61356 0.0
H823 H 0.57384 0.95595 0.59047 0.0
C824 C 0.54574 0.51184 0.89717 0.0
C825 C 0.59169 0.53828 0.88987 0.0
C826 C 0.53665 0.49598 0.91769 0.0
C827 C 0.5745 0.50633 0.93083 0.0
C828 C 0.62105 0.5331 0.92351 0.0
C829 C 0.62919 0.54919 0.90304 0.0
C830 C 0.48661 0.46816 0.92525 0.0
C831 C 0.66192 0.54415 0.93712 0.0
C832 C 0.54443 0.48693 0.98971 0.0
C833 C 0.52869 0.44671 0.99049 0.0
C834 C 0.5623 0.50797 0.97059 0.0
C835 C 0.56462 0.48818 0.95207 0.0
C836 C 0.55191 0.44874 0.95324 0.0
C837 C 0.53395 0.42834 0.97255 0.0
C838 C 0.57558 0.55006 0.96981 0.0
C839 C 0.55407 0.42691 0.93368 0.0
H840 H 0.5169 0.50374 0.88688 0.0
H841 H 0.66469 0.56955 0.89714 0.0
H842 H 0.47615 0.43778 0.92882 0.0
H843 H 0.48371 0.48147 0.94053 0.0
H844 H 0.4614 0.46342 0.91298 0.0
H845 H 0.69589 0.56496 0.92884 0.0
H846 H 0.6641 0.55934 0.95285 0.0
H847 H 0.65656 0.51588 0.94086 0.0
H848 H 0.54121 0.50138 0.00384 0.0
H849 H 0.52171 0.39723 0.97324 0.0
H850 H 0.54978 0.54819 0.95934 0.0
H851 H 0.6105 0.57178 0.96252 0.0
H852 H 0.57634 0.56278 0.98619 0.0
H853 H 0.52575 0.41706 0.9218 0.0
H854 H 0.54959 0.3993 0.93813 0.0
H855 H 0.58801 0.44782 0.92545 0.0
C856 C 1.01568 0.46791 0.22834 0.0
C857 C 0.05458 0.50181 0.21814 0.0
C858 C 1.01027 0.46926 0.25094 0.0
C859 C 0.04556 0.50485 0.26379 0.0
C860 C 0.08407 0.53975 0.25341 0.0
C861 C 0.0877 0.53803 0.23064 0.0
C862 C 0.9678 0.43192 0.26116 0.0
C863 C 0.12296 0.57799 0.26648 0.0
C864 C 1.0246 0.51554 0.32382 0.0
C865 C 0.04592 0.5016 0.33403 0.0
C866 C 1.02413 0.5169 0.30098 0.0
C867 C 0.04511 0.50369 0.28808 0.0
C868 C 0.06588 0.48893 0.29839 0.0
C869 C 0.06607 0.48815 0.32114 0.0
C870 C 1.00146 0.53269 0.29068 0.0
C871 C 0.08811 0.47399 0.28538 0.0
H872 H 0.98971 0.44002 0.21864 0.0
H873 H 0.11787 0.56422 0.22277 0.0
H874 H 0.97867 0.41758 0.27101 0.0
H875 H 0.95131 0.44087 0.27231 0.0
H876 H 0.94111 0.4086 0.2488 0.0
H877 H 0.14823 0.60365 0.25599 0.0
H878 H 0.10828 0.58813 0.27806 0.0
H879 H 0.14236 0.57114 0.27623 0.0
H880 H 1.00914 0.52614 0.33371 0.0
H881 H 0.0819 0.4767 0.32891 0.0
H882 H 0.9733 0.50895 0.27898 0.0
H883 H 1.02775 0.55998 0.28138 0.0
H884 H 0.98616 0.54131 0.30292 0.0
H885 H 0.06145 0.44754 0.27429 0.0
H886 H 0.10365 0.4643 0.29589 0.0
H887 H 0.11606 0.49864 0.27516 0.0
loop_
_geom_bond_atom_site_label_1
_geom_bond_atom_site_label_2
_geom_bond_distance
_geom_bond_site_symmetry_2
_ccdc_geom_bond_type
Ho0 C3 2.811 . S
Ho0 O20 2.322 . S
Ho0 O22 2.378 . S
Ho0 O23 2.524 . S
Ho0 O24 2.381 . S
Ho0 O25 2.669 . S
Ho0 O27 2.346 1_455 S
Ho0 O31 2.305 . S
Ho1 C12 2.811 . S
Ho1 O21 2.346 1_655 S
Ho1 O25 2.305 1_655 S
Ho1 O26 2.322 . S
Ho1 O28 2.378 . S
Ho1 O29 2.524 . S
Ho1 O30 2.381 1_655 S
Ho1 O31 2.669 1_655 S
C2 O20 1.259 . S
C2 O21 1.268 . S
C3 Ho0 2.811 . S
C3 C4 1.488 . S
C3 O22 1.215 . S
C3 O23 1.289 . S
C4 C3 1.488 . S
C4 C5 1.348 . S
C4 C9 1.413 . S
C5 C4 1.348 . S
C5 C6 1.442 . S
C5 H32 0.930 . S
C6 C5 1.442 . S
C6 C7 1.381 . S
C6 H33 0.931 . S
C7 C6 1.381 . S
C7 C8 1.321 . S
C8 C7 1.321 . S
C8 C9 1.403 . S
C8 H34 0.934 . S
C9 C4 1.413 . S
C9 C8 1.403 . S
C9 H35 0.930 . S
C10 O24 1.275 . S
C10 O25 1.256 . S
C11 O26 1.259 . S
C11 O27 1.268 . S
C12 Ho1 2.811 . S
C12 C13 1.488 . S
C12 O28 1.215 . S
C12 O29 1.289 . S
C13 C12 1.488 . S
C13 C14 1.348 . S
C13 C18 1.413 . S
C14 C13 1.348 . S
C14 C15 1.442 . S
C14 H36 0.930 . S
C15 C14 1.442 . S
C15 C16 1.381 . S
C15 H37 0.931 . S
C16 C15 1.381 . S
C16 C17 1.321 . S
C17 C16 1.321 . S
C17 C18 1.403 . S
C17 H38 0.934 . S
C18 C13 1.413 . S
C18 C17 1.403 . S
C18 H39 0.930 . S
C19 O30 1.275 . S
C19 O31 1.256 . S
O20 Ho0 2.322 . S
O20 C2 1.259 . S
O21 Ho1 2.346 1_455 S
O21 C2 1.268 . S
O22 Ho0 2.378 . S
O22 C3 1.215 . S
O23 Ho0 2.524 . S
O23 C3 1.289 . S
O24 Ho0 2.381 . S
O24 C10 1.275 . S
O25 Ho0 2.669 . S
O25 Ho1 2.305 1_455 S
O25 C10 1.256 . S
O26 Ho1 2.322 . S
O26 C11 1.259 . S
O27 Ho0 2.346 1_655 S
O27 C11 1.268 . S
O28 Ho1 2.378 . S
O28 C12 1.215 . S
O29 Ho1 2.524 . S
O29 C12 1.289 . S
O30 Ho1 2.381 1_455 S
O30 C19 1.275 . S
O31 Ho0 2.305 . S
O31 Ho1 2.669 1_455 S
O31 C19 1.256 . S
H32 C5 0.930 . S
H33 C6 0.931 . S
H34 C8 0.934 . S
H35 C9 0.930 . S
H36 C14 0.930 . S
H37 C15 0.931 . S
H38 C17 0.934 . S
H39 C18 0.930 . S
Ho40 C43 2.811 . S
Ho40 O60 2.322 . S
Ho40 O62 2.378 . S
Ho40 O63 2.524 . S
Ho40 O64 2.381 . S
Ho40 O65 2.669 1_565 S
Ho40 O67 2.346 1_565 S
Ho40 O71 2.305 1_565 S
Ho41 C52 2.811 . S
Ho41 O61 2.346 1_545 S
Ho41 O65 2.305 . S
Ho41 O66 2.322 . S
Ho41 O68 2.378 . S
Ho41 O69 2.524 . S
Ho41 O70 2.381 . S
Ho41 O71 2.669 . S
C42 O60 1.259 . S
C42 O61 1.268 . S
C43 Ho40 2.811 . S
C43 C44 1.488 . S
C43 O62 1.215 . S
C43 O63 1.289 . S
C44 C43 1.488 . S
C44 C45 1.348 . S
C44 C49 1.413 . S
C45 C44 1.348 . S
C45 C46 1.442 . S
C45 H72 0.930 . S
C46 C45 1.442 . S
C46 C47 1.381 . S
C46 H73 0.931 . S
C47 C46 1.381 . S
C47 C48 1.321 . S
C48 C47 1.321 . S
C48 C49 1.403 . S
C48 H74 0.934 . S
C49 C44 1.413 . S
C49 C48 1.403 . S
C49 H75 0.930 . S
C50 O64 1.275 1_545 S
C50 O65 1.256 . S
C51 O66 1.259 . S
C51 O67 1.268 . S
C52 Ho41 2.811 . S
C52 C53 1.488 . S
C52 O68 1.215 . S
C52 O69 1.289 . S
C53 C52 1.488 . S
C53 C54 1.348 . S
C53 C58 1.413 . S
C54 C53 1.348 . S
C54 C55 1.442 . S
C54 H76 0.930 . S
C55 C54 1.442 . S
C55 C56 1.381 . S
C55 H77 0.931 . S
C56 C55 1.381 . S
C56 C57 1.321 . S
C57 C56 1.321 . S
C57 C58 1.403 . S
C57 H78 0.934 . S
C58 C53 1.413 . S
C58 C57 1.403 . S
C58 H79 0.930 . S
C59 O70 1.275 . S
C59 O71 1.256 . S
O60 Ho40 2.322 . S
O60 C42 1.259 . S
O61 Ho41 2.346 1_565 S
O61 C42 1.268 . S
O62 Ho40 2.378 . S
O62 C43 1.215 . S
O63 Ho40 2.524 . S
O63 C43 1.289 . S
O64 Ho40 2.381 . S
O64 C50 1.275 1_565 S
O65 Ho40 2.669 1_545 S
O65 Ho41 2.305 . S
O65 C50 1.256 . S
O66 Ho41 2.322 . S
O66 C51 1.259 . S
O67 Ho40 2.346 1_545 S
O67 C51 1.268 . S
O68 Ho41 2.378 . S
O68 C52 1.215 . S
O69 Ho41 2.524 . S
O69 C52 1.289 . S
O70 Ho41 2.381 . S
O70 C59 1.275 . S
O71 Ho40 2.305 1_545 S
O71 Ho41 2.669 . S
O71 C59 1.256 . S
H72 C45 0.930 . S
H73 C46 0.931 . S
H74 C48 0.934 . S
H75 C49 0.930 . S
H76 C54 0.930 . S
H77 C55 0.931 . S
H78 C57 0.934 . S
H79 C58 0.930 . S
Ho80 C83 2.811 . S
Ho80 O100 2.322 . S
Ho80 O102 2.378 . S
Ho80 O103 2.524 . S
Ho80 O104 2.381 . S
Ho80 O105 2.669 . S
Ho80 O107 2.346 . S
Ho80 O111 2.305 . S
Ho81 C92 2.811 . S
Ho81 O101 2.346 . S
Ho81 O105 2.305 . S
Ho81 O106 2.322 . S
Ho81 O108 2.378 . S
Ho81 O109 2.524 . S
Ho81 O110 2.381 . S
Ho81 O111 2.669 . S
C82 O100 1.259 . S
C82 O101 1.268 . S
C83 Ho80 2.811 . S
C83 C84 1.488 . S
C83 O102 1.215 . S
C83 O103 1.289 . S
C84 C83 1.488 . S
C84 C85 1.348 . S
C84 C89 1.413 . S
C85 C84 1.348 . S
C85 C86 1.442 . S
C85 H112 0.930 . S
C86 C85 1.442 . S
C86 C87 1.381 . S
C86 H113 0.931 . S
C87 C86 1.381 . S
C87 C88 1.321 . S
C88 C87 1.321 . S
C88 C89 1.403 . S
C88 H114 0.934 . S
C89 C84 1.413 . S
C89 C88 1.403 . S
C89 H115 0.930 . S
C90 O104 1.275 . S
C90 O105 1.256 . S
C91 O106 1.259 . S
C91 O107 1.268 . S
C92 Ho81 2.811 . S
C92 C93 1.488 . S
C92 O108 1.215 . S
C92 O109 1.289 . S
C93 C92 1.488 . S
C93 C94 1.348 . S
C93 C98 1.413 . S
C94 C93 1.348 . S
C94 C95 1.442 . S
C94 H116 0.930 . S
C95 C94 1.442 . S
C95 C96 1.381 . S
C95 H117 0.931 . S
C96 C95 1.381 . S
C96 C97 1.321 . S
C97 C96 1.321 . S
C97 C98 1.403 . S
C97 H118 0.934 . S
C98 C93 1.413 . S
C98 C97 1.403 . S
C98 H119 0.930 . S
C99 O110 1.275 . S
C99 O111 1.256 . S
O100 Ho80 2.322 . S
O100 C82 1.259 . S
O101 Ho81 2.346 . S
O101 C82 1.268 . S
O102 Ho80 2.378 . S
O102 C83 1.215 . S
O103 Ho80 2.524 . S
O103 C83 1.289 . S
O104 Ho80 2.381 . S
O104 C90 1.275 . S
O105 Ho80 2.669 . S
O105 Ho81 2.305 . S
O105 C90 1.256 . S
O106 Ho81 2.322 . S
O106 C91 1.259 . S
O107 Ho80 2.346 . S
O107 C91 1.268 . S
O108 Ho81 2.378 . S
O108 C92 1.215 . S
O109 Ho81 2.524 . S
O109 C92 1.289 . S
O110 Ho81 2.381 . S
O110 C99 1.275 . S
O111 Ho80 2.305 . S
O111 Ho81 2.669 . S
O111 C99 1.256 . S
H112 C85 0.930 . S
H113 C86 0.931 . S
H114 C88 0.934 . S
H115 C89 0.930 . S
H116 C94 0.930 . S
H117 C95 0.931 . S
H118 C97 0.934 . S
H119 C98 0.930 . S
P120 O131 1.490 1_545 S
P120 C134 1.812 1_545 S
P120 C140 1.803 . S
P120 C146 1.819 . S
H121 C135 0.941 . S
H122 C136 0.939 . S
H123 C138 0.940 . S
H124 C139 0.940 . S
H125 C141 0.939 . S
H126 C142 0.942 . S
H127 C144 0.940 . S
H128 C145 0.939 . S
H129 C147 0.941 . S
H130 C151 0.939 . S
O131 P120 1.490 1_565 S
H132 C148 0.939 . S
H133 C150 0.940 . S
C134 P120 1.812 1_565 S
C134 C135 1.389 . S
C134 C139 1.391 . S
C135 H121 0.941 . S
C135 C134 1.389 . S
C135 C136 1.397 . S
C136 H122 0.939 . S
C136 C135 1.397 . S
C136 C137 1.378 . S
C137 C136 1.378 . S
C137 C138 1.378 . S
C138 H123 0.940 . S
C138 C137 1.378 . S
C138 C139 1.396 . S
C139 H124 0.940 . S
C139 C134 1.391 . S
C139 C138 1.396 . S
C140 P120 1.803 . S
C140 C141 1.378 . S
C140 C145 1.400 . S
C141 H125 0.939 . S
C141 C140 1.378 . S
C141 C142 1.361 . S
C142 H126 0.942 . S
C142 C141 1.361 . S
C142 C143 1.369 . S
C143 C142 1.369 . S
C143 C144 1.404 . S
C144 H127 0.940 . S
C144 C143 1.404 . S
C144 C145 1.389 . S
C145 H128 0.939 . S
C145 C140 1.400 . S
C145 C144 1.389 . S
C146 P120 1.819 . S
C146 C147 1.391 1_545 S
C146 C151 1.391 . S
C147 H129 0.941 . S
C147 C146 1.391 1_565 S
C147 C148 1.396 . S
C148 H132 0.939 . S
C148 C147 1.396 . S
C148 C149 1.397 1_565 S
C149 C148 1.397 1_545 S
C149 C150 1.385 . S
C150 H133 0.940 . S
C150 C149 1.385 . S
C150 C151 1.388 . S
C151 H130 0.939 . S
C151 C146 1.391 . S
C151 C150 1.388 . S
P152 O163 1.490 . S
P152 C166 1.812 . S
P152 C172 1.803 . S
P152 C178 1.819 . S
H153 C167 0.941 . S
H154 C168 0.939 . S
H155 C170 0.940 . S
H156 C171 0.940 . S
H157 C173 0.939 . S
H158 C174 0.942 . S
H159 C176 0.940 . S
H160 C177 0.939 . S
H161 C179 0.941 . S
H162 C183 0.939 . S
O163 P152 1.490 . S
H164 C180 0.939 . S
H165 C182 0.940 . S
C166 P152 1.812 . S
C166 C167 1.389 . S
C166 C171 1.391 . S
C167 H153 0.941 . S
C167 C166 1.389 . S
C167 C168 1.397 . S
C168 H154 0.939 . S
C168 C167 1.397 . S
C168 C169 1.378 . S
C169 C168 1.378 . S
C169 C170 1.378 . S
C170 H155 0.940 . S
C170 C169 1.378 . S
C170 C171 1.396 . S
C171 H156 0.940 . S
C171 C166 1.391 . S
C171 C170 1.396 . S
C172 P152 1.803 . S
C172 C173 1.378 . S
C172 C177 1.400 . S
C173 H157 0.939 . S
C173 C172 1.378 . S
C173 C174 1.361 . S
C174 H158 0.942 . S
C174 C173 1.361 . S
C174 C175 1.369 . S
C175 C174 1.369 . S
C175 C176 1.404 . S
C176 H159 0.940 . S
C176 C175 1.404 . S
C176 C177 1.389 . S
C177 H160 0.939 . S
C177 C172 1.400 . S
C177 C176 1.389 . S
C178 P152 1.819 . S
C178 C179 1.391 . S
C178 C183 1.391 . S
C179 H161 0.941 . S
C179 C178 1.391 . S
C179 C180 1.396 . S
C180 H164 0.939 . S
C180 C179 1.396 . S
C180 C181 1.397 . S
C181 C180 1.397 . S
C181 C182 1.385 . S
C182 H165 0.940 . S
C182 C181 1.385 . S
C182 C183 1.388 . S
C183 H162 0.939 . S
C183 C178 1.391 . S
C183 C182 1.388 . S
P184 O195 1.490 . S
P184 C198 1.812 . S
P184 C204 1.803 . S
P184 C210 1.819 . S
H185 C199 0.941 . S
H186 C200 0.939 . S
H187 C202 0.940 . S
H188 C203 0.940 . S
H189 C205 0.939 . S
H190 C206 0.942 . S
H191 C208 0.940 . S
H192 C209 0.939 . S
H193 C211 0.941 . S
H194 C215 0.939 . S
O195 P184 1.490 . S
H196 C212 0.939 . S
H197 C214 0.940 1_655 S
C198 P184 1.812 . S
C198 C199 1.389 . S
C198 C203 1.391 . S
C199 H185 0.941 . S
C199 C198 1.389 . S
C199 C200 1.397 . S
C200 H186 0.939 . S
C200 C199 1.397 . S
C200 C201 1.378 . S
C201 C200 1.378 . S
C201 C202 1.378 . S
C202 H187 0.940 . S
C202 C201 1.378 . S
C202 C203 1.396 . S
C203 H188 0.940 . S
C203 C198 1.391 . S
C203 C202 1.396 . S
C204 P184 1.803 . S
C204 C205 1.378 . S
C204 C209 1.400 . S
C205 H189 0.939 . S
C205 C204 1.378 . S
C205 C206 1.361 1_455 S
C206 H190 0.942 . S
C206 C205 1.361 1_655 S
C206 C207 1.369 . S
C207 C206 1.369 . S
C207 C208 1.404 . S
C208 H191 0.940 . S
C208 C207 1.404 . S
C208 C209 1.389 1_655 S
C209 H192 0.939 . S
C209 C204 1.400 . S
C209 C208 1.389 1_455 S
C210 P184 1.819 . S
C210 C211 1.391 . S
C210 C215 1.391 . S
C211 H193 0.941 . S
C211 C210 1.391 . S
C211 C212 1.396 . S
C212 H196 0.939 . S
C212 C211 1.396 . S
C212 C213 1.397 . S
C213 C212 1.397 . S
C213 C214 1.385 . S
C214 H197 0.940 1_455 S
C214 C213 1.385 . S
C214 C215 1.388 . S
C215 H194 0.939 . S
C215 C210 1.391 . S
C215 C214 1.388 . S
P216 O227 1.490 . S
P216 C230 1.812 . S
P216 C236 1.803 1_455 S
P216 C242 1.819 . S
H217 C231 0.941 . S
H218 C232 0.939 . S
H219 C234 0.940 . S
H220 C235 0.940 . S
H221 C237 0.939 . S
H222 C238 0.942 . S
H223 C240 0.940 . S
H224 C241 0.939 . S
H225 C243 0.941 . S
H226 C247 0.939 . S
O227 P216 1.490 . S
H228 C244 0.939 . S
H229 C246 0.940 . S
C230 P216 1.812 . S
C230 C231 1.389 . S
C230 C235 1.391 . S
C231 H217 0.941 . S
C231 C230 1.389 . S
C231 C232 1.397 . S
C232 H218 0.939 . S
C232 C231 1.397 . S
C232 C233 1.378 . S
C233 C232 1.378 . S
C233 C234 1.378 . S
C234 H219 0.940 . S
C234 C233 1.378 . S
C234 C235 1.396 . S
C235 H220 0.940 . S
C235 C230 1.391 . S
C235 C234 1.396 . S
C236 P216 1.803 1_655 S
C236 C237 1.378 . S
C236 C241 1.400 . S
C237 H221 0.939 . S
C237 C236 1.378 . S
C237 C238 1.361 . S
C238 H222 0.942 . S
C238 C237 1.361 . S
C238 C239 1.369 . S
C239 C238 1.369 . S
C239 C240 1.404 . S
C240 H223 0.940 . S
C240 C239 1.404 . S
C240 C241 1.389 . S
C241 H224 0.939 . S
C241 C236 1.400 . S
C241 C240 1.389 . S
C242 P216 1.819 . S
C242 C243 1.391 . S
C242 C247 1.391 1_455 S
C243 H225 0.941 . S
C243 C242 1.391 . S
C243 C244 1.396 . S
C244 H228 0.939 . S
C244 C243 1.396 . S
C244 C245 1.397 . S
C245 C244 1.397 . S
C245 C246 1.385 1_455 S
C246 H229 0.940 . S
C246 C245 1.385 1_655 S
C246 C247 1.388 . S
C247 H226 0.939 . S
C247 C242 1.391 1_655 S
C247 C246 1.388 . S
P248 O259 1.490 . S
P248 C262 1.812 . S
P248 C268 1.803 1_545 S
P248 C274 1.819 . S
H249 C263 0.941 . S
H250 C264 0.939 . S
H251 C266 0.940 . S
H252 C267 0.940 . S
H253 C269 0.939 . S
H254 C270 0.942 . S
H255 C272 0.940 . S
H256 C273 0.939 . S
H257 C275 0.941 . S
H258 C279 0.939 . S
O259 P248 1.490 . S
H260 C276 0.939 . S
H261 C278 0.940 . S
C262 P248 1.812 . S
C262 C263 1.389 . S
C262 C267 1.391 . S
C263 H249 0.941 . S
C263 C262 1.389 . S
C263 C264 1.397 . S
C264 H250 0.939 . S
C264 C263 1.397 . S
C264 C265 1.378 . S
C265 C264 1.378 . S
C265 C266 1.378 . S
C266 H251 0.940 . S
C266 C265 1.378 . S
C266 C267 1.396 . S
C267 H252 0.940 . S
C267 C262 1.391 . S
C267 C266 1.396 . S
C268 P248 1.803 1_565 S
C268 C269 1.378 . S
C268 C273 1.400 . S
C269 H253 0.939 . S
C269 C268 1.378 . S
C269 C270 1.361 . S
C270 H254 0.942 . S
C270 C269 1.361 . S
C270 C271 1.369 . S
C271 C270 1.369 . S
C271 C272 1.404 . S
C272 H255 0.940 . S
C272 C271 1.404 . S
C272 C273 1.389 . S
C273 H256 0.939 . S
C273 C268 1.400 . S
C273 C272 1.389 . S
C274 P248 1.819 . S
C274 C275 1.391 . S
C274 C279 1.391 1_545 S
C275 H257 0.941 . S
C275 C274 1.391 . S
C275 C276 1.396 . S
C276 H260 0.939 . S
C276 C275 1.396 . S
C276 C277 1.397 . S
C277 C276 1.397 . S
C277 C278 1.385 1_545 S
C278 H261 0.940 . S
C278 C277 1.385 1_565 S
C278 C279 1.388 . S
C279 H258 0.939 . S
C279 C274 1.391 1_565 S
C279 C278 1.388 . S
P280 O291 1.490 . S
P280 C294 1.812 . S
P280 C300 1.803 . S
P280 C306 1.819 . S
H281 C295 0.941 . S
H282 C296 0.939 . S
H283 C298 0.940 . S
H284 C299 0.940 . S
H285 C301 0.939 . S
H286 C302 0.942 . S
H287 C304 0.940 . S
H288 C305 0.939 . S
H289 C307 0.941 . S
H290 C311 0.939 . S
O291 P280 1.490 . S
H292 C308 0.939 . S
H293 C310 0.940 . S
C294 P280 1.812 . S
C294 C295 1.389 . S
C294 C299 1.391 . S
C295 H281 0.941 . S
C295 C294 1.389 . S
C295 C296 1.397 . S
C296 H282 0.939 . S
C296 C295 1.397 . S
C296 C297 1.378 . S
C297 C296 1.378 . S
C297 C298 1.378 . S
C298 H283 0.940 . S
C298 C297 1.378 . S
C298 C299 1.396 . S
C299 H284 0.940 . S
C299 C294 1.391 . S
C299 C298 1.396 . S
C300 P280 1.803 . S
C300 C301 1.378 . S
C300 C305 1.400 . S
C301 H285 0.939 . S
C301 C300 1.378 . S
C301 C302 1.361 . S
C302 H286 0.942 . S
C302 C301 1.361 . S
C302 C303 1.369 . S
C303 C302 1.369 . S
C303 C304 1.404 . S
C304 H287 0.940 . S
C304 C303 1.404 . S
C304 C305 1.389 . S
C305 H288 0.939 . S
C305 C300 1.400 . S
C305 C304 1.389 . S
C306 P280 1.819 . S
C306 C307 1.391 . S
C306 C311 1.391 . S
C307 H289 0.941 . S
C307 C306 1.391 . S
C307 C308 1.396 . S
C308 H292 0.939 . S
C308 C307 1.396 . S
C308 C309 1.397 . S
C309 C308 1.397 . S
C309 C310 1.385 . S
C310 H293 0.940 . S
C310 C309 1.385 . S
C310 C311 1.388 . S
C311 H290 0.939 . S
C311 C306 1.391 . S
C311 C310 1.388 . S
C312 C313 1.391 . S
C312 C314 1.394 . S
C312 H328 0.931 . S
C313 C312 1.391 . S
C313 C317 1.376 . S
C314 C312 1.394 . S
C314 C315 1.369 . S
C314 C318 1.531 . S
C315 C314 1.369 . S
C315 C316 1.410 . S
C315 C323 1.503 . S
C316 C315 1.410 . S
C316 C317 1.392 . S
C316 C319 1.511 . S
C317 C313 1.376 . S
C317 C316 1.392 . S
C317 H329 0.929 . S
C318 C314 1.531 . S
C318 H330 0.960 . S
C318 H331 0.962 . S
C318 H332 0.960 . S
C319 C316 1.511 . S
C319 H333 0.961 . S
C319 H334 0.961 . S
C319 H335 0.961 . S
C320 C321 1.370 . S
C320 C322 1.363 . S
C320 H336 0.931 . S
C321 C320 1.370 . S
C321 C325 1.408 . S
C322 C320 1.363 . S
C322 C323 1.370 . S
C322 C326 1.524 . S
C323 C315 1.503 . S
C323 C322 1.370 . S
C323 C324 1.403 . S
C324 C323 1.403 . S
C324 C325 1.404 . S
C324 C327 1.539 . S
C325 C321 1.408 . S
C325 C324 1.404 . S
C325 H337 0.930 . S
C326 C322 1.524 . S
C326 H338 0.956 . S
C326 H339 0.961 . S
C326 H340 0.961 . S
C327 C324 1.539 . S
C327 H341 0.958 . S
C327 H342 0.961 . S
C327 H343 0.960 . S
H328 C312 0.931 . S
H329 C317 0.929 . S
H330 C318 0.960 . S
H331 C318 0.962 . S
H332 C318 0.960 . S
H333 C319 0.961 . S
H334 C319 0.961 . S
H335 C319 0.961 . S
H336 C320 0.931 . S
H337 C325 0.930 . S
H338 C326 0.956 . S
H339 C326 0.961 . S
H340 C326 0.961 . S
H341 C327 0.958 . S
H342 C327 0.961 . S
H343 C327 0.960 . S
C344 C345 1.391 . S
C344 C346 1.394 . S
C344 H360 0.931 . S
C345 C344 1.391 . S
C345 C349 1.376 . S
C346 C344 1.394 . S
C346 C347 1.369 . S
C346 C350 1.531 . S
C347 C346 1.369 . S
C347 C348 1.410 . S
C347 C355 1.503 . S
C348 C347 1.410 . S
C348 C349 1.392 . S
C348 C351 1.511 . S
C349 C345 1.376 . S
C349 C348 1.392 . S
C349 H361 0.929 . S
C350 C346 1.531 . S
C350 H362 0.960 . S
C350 H363 0.962 . S
C350 H364 0.960 . S
C351 C348 1.511 . S
C351 H365 0.961 . S
C351 H366 0.961 . S
C351 H367 0.961 . S
C352 C353 1.370 . S
C352 C354 1.363 . S
C352 H368 0.931 . S
C353 C352 1.370 . S
C353 C357 1.408 . S
C354 C352 1.363 . S
C354 C355 1.370 . S
C354 C358 1.524 . S
C355 C347 1.503 . S
C355 C354 1.370 . S
C355 C356 1.403 . S
C356 C355 1.403 . S
C356 C357 1.404 . S
C356 C359 1.539 . S
C357 C353 1.408 . S
C357 C356 1.404 . S
C357 H369 0.930 . S
C358 C354 1.524 . S
C358 H370 0.956 . S
C358 H371 0.961 . S
C358 H372 0.961 . S
C359 C356 1.539 . S
C359 H373 0.958 . S
C359 H374 0.961 . S
C359 H375 0.960 . S
H360 C344 0.931 . S
H361 C349 0.929 . S
H362 C350 0.960 . S
H363 C350 0.962 . S
H364 C350 0.960 . S
H365 C351 0.961 . S
H366 C351 0.961 . S
H367 C351 0.961 . S
H368 C352 0.931 . S
H369 C357 0.930 . S
H370 C358 0.956 . S
H371 C358 0.961 . S
H372 C358 0.961 . S
H373 C359 0.958 . S
H374 C359 0.961 . S
H375 C359 0.960 . S
C376 C377 1.391 . S
C376 C378 1.394 . S
C376 H392 0.931 . S
C377 C376 1.391 . S
C377 C381 1.376 . S
C378 C376 1.394 . S
C378 C379 1.369 . S
C378 C382 1.531 . S
C379 C378 1.369 . S
C379 C380 1.410 . S
C379 C387 1.503 . S
C380 C379 1.410 . S
C380 C381 1.392 . S
C380 C383 1.511 . S
C381 C377 1.376 . S
C381 C380 1.392 . S
C381 H393 0.929 . S
C382 C378 1.531 . S
C382 H394 0.960 . S
C382 H395 0.962 . S
C382 H396 0.960 . S
C383 C380 1.511 . S
C383 H397 0.961 . S
C383 H398 0.961 . S
C383 H399 0.961 . S
C384 C385 1.370 . S
C384 C386 1.363 . S
C384 H400 0.931 . S
C385 C384 1.370 . S
C385 C389 1.408 . S
C386 C384 1.363 . S
C386 C387 1.370 . S
C386 C390 1.524 . S
C387 C379 1.503 . S
C387 C386 1.370 . S
C387 C388 1.403 . S
C388 C387 1.403 . S
C388 C389 1.404 . S
C388 C391 1.539 . S
C389 C385 1.408 . S
C389 C388 1.404 . S
C389 H401 0.930 . S
C390 C386 1.524 . S
C390 H402 0.956 . S
C390 H403 0.961 . S
C390 H404 0.961 . S
C391 C388 1.539 . S
C391 H405 0.958 . S
C391 H406 0.961 . S
C391 H407 0.960 . S
H392 C376 0.931 . S
H393 C381 0.929 . S
H394 C382 0.960 . S
H395 C382 0.962 . S
H396 C382 0.960 . S
H397 C383 0.961 . S
H398 C383 0.961 . S
H399 C383 0.961 . S
H400 C384 0.931 . S
H401 C389 0.930 . S
H402 C390 0.956 . S
H403 C390 0.961 . S
H404 C390 0.961 . S
H405 C391 0.958 . S
H406 C391 0.961 . S
H407 C391 0.960 . S
C408 C409 1.391 . S
C408 C410 1.394 . S
C408 H424 0.931 . S
C409 C408 1.391 . S
C409 C413 1.376 . S
C410 C408 1.394 . S
C410 C411 1.369 . S
C410 C414 1.531 . S
C411 C410 1.369 . S
C411 C412 1.410 . S
C411 C419 1.503 . S
C412 C411 1.410 . S
C412 C413 1.392 . S
C412 C415 1.511 . S
C413 C409 1.376 . S
C413 C412 1.392 . S
C413 H425 0.929 . S
C414 C410 1.531 . S
C414 H426 0.960 . S
C414 H427 0.962 . S
C414 H428 0.960 . S
C415 C412 1.511 . S
C415 H429 0.961 . S
C415 H430 0.961 . S
C415 H431 0.961 . S
C416 C417 1.370 . S
C416 C418 1.363 . S
C416 H432 0.931 . S
C417 C416 1.370 . S
C417 C421 1.408 . S
C418 C416 1.363 . S
C418 C419 1.370 . S
C418 C422 1.524 . S
C419 C411 1.503 . S
C419 C418 1.370 . S
C419 C420 1.403 . S
C420 C419 1.403 . S
C420 C421 1.404 . S
C420 C423 1.539 . S
C421 C417 1.408 . S
C421 C420 1.404 . S
C421 H433 0.930 . S
C422 C418 1.524 . S
C422 H434 0.956 . S
C422 H435 0.961 . S
C422 H436 0.961 . S
C423 C420 1.539 . S
C423 H437 0.958 . S
C423 H438 0.961 . S
C423 H439 0.960 . S
H424 C408 0.931 . S
H425 C413 0.929 . S
H426 C414 0.960 . S
H427 C414 0.962 . S
H428 C414 0.960 . S
H429 C415 0.961 . S
H430 C415 0.961 . S
H431 C415 0.961 . S
H432 C416 0.931 . S
H433 C421 0.930 . S
H434 C422 0.956 . S
H435 C422 0.961 . S
H436 C422 0.961 . S
H437 C423 0.958 . S
H438 C423 0.961 . S
H439 C423 0.960 . S
C440 C441 1.391 . S
C440 C442 1.394 . S
C440 H456 0.931 . S
C441 C440 1.391 . S
C441 C445 1.376 . S
C442 C440 1.394 . S
C442 C443 1.369 . S
C442 C446 1.531 . S
C443 C442 1.369 . S
C443 C444 1.410 . S
C443 C451 1.503 . S
C444 C443 1.410 . S
C444 C445 1.392 . S
C444 C447 1.511 . S
C445 C441 1.376 . S
C445 C444 1.392 . S
C445 H457 0.929 . S
C446 C442 1.531 . S
C446 H458 0.960 . S
C446 H459 0.962 . S
C446 H460 0.960 . S
C447 C444 1.511 . S
C447 H461 0.961 . S
C447 H462 0.961 . S
C447 H463 0.961 . S
C448 C449 1.370 . S
C448 C450 1.363 . S
C448 H464 0.931 . S
C449 C448 1.370 . S
C449 C453 1.408 . S
C450 C448 1.363 . S
C450 C451 1.370 . S
C450 C454 1.524 . S
C451 C443 1.503 . S
C451 C450 1.370 . S
C451 C452 1.403 . S
C452 C451 1.403 . S
C452 C453 1.404 . S
C452 C455 1.539 . S
C453 C449 1.408 . S
C453 C452 1.404 . S
C453 H465 0.930 . S
C454 C450 1.524 . S
C454 H466 0.956 . S
C454 H467 0.961 . S
C454 H468 0.961 . S
C455 C452 1.539 . S
C455 H469 0.958 . S
C455 H470 0.961 . S
C455 H471 0.960 . S
H456 C440 0.931 . S
H457 C445 0.929 . S
H458 C446 0.960 . S
H459 C446 0.962 . S
H460 C446 0.960 . S
H461 C447 0.961 . S
H462 C447 0.961 . S
H463 C447 0.961 . S
H464 C448 0.931 . S
H465 C453 0.930 . S
H466 C454 0.956 . S
H467 C454 0.961 . S
H468 C454 0.961 . S
H469 C455 0.958 . S
H470 C455 0.961 . S
H471 C455 0.960 . S
C472 C473 1.391 . S
C472 C474 1.394 . S
C472 H488 0.931 . S
C473 C472 1.391 . S
C473 C477 1.376 . S
C474 C472 1.394 . S
C474 C475 1.369 . S
C474 C478 1.531 . S
C475 C474 1.369 . S
C475 C476 1.410 . S
C475 C483 1.503 . S
C476 C475 1.410 . S
C476 C477 1.392 . S
C476 C479 1.511 . S
C477 C473 1.376 . S
C477 C476 1.392 . S
C477 H489 0.929 . S
C478 C474 1.531 . S
C478 H490 0.960 . S
C478 H491 0.962 . S
C478 H492 0.960 . S
C479 C476 1.511 . S
C479 H493 0.961 . S
C479 H494 0.961 . S
C479 H495 0.961 . S
C480 C481 1.370 . S
C480 C482 1.363 . S
C480 H496 0.931 . S
C481 C480 1.370 . S
C481 C485 1.408 . S
C482 C480 1.363 . S
C482 C483 1.370 . S
C482 C486 1.524 . S
C483 C475 1.503 . S
C483 C482 1.370 . S
C483 C484 1.403 . S
C484 C483 1.403 . S
C484 C485 1.404 . S
C484 C487 1.539 . S
C485 C481 1.408 . S
C485 C484 1.404 . S
C485 H497 0.930 . S
C486 C482 1.524 . S
C486 H498 0.956 . S
C486 H499 0.961 . S
C486 H500 0.961 . S
C487 C484 1.539 . S
C487 H501 0.958 . S
C487 H502 0.961 . S
C487 H503 0.960 . S
H488 C472 0.931 . S
H489 C477 0.929 . S
H490 C478 0.960 . S
H491 C478 0.962 . S
H492 C478 0.960 . S
H493 C479 0.961 . S
H494 C479 0.961 . S
H495 C479 0.961 . S
H496 C480 0.931 . S
H497 C485 0.930 . S
H498 C486 0.956 . S
H499 C486 0.961 . S
H500 C486 0.961 . S
H501 C487 0.958 . S
H502 C487 0.961 . S
H503 C487 0.960 . S
C504 C505 1.391 . S
C504 C506 1.394 . S
C504 H520 0.931 . S
C505 C504 1.391 . S
C505 C509 1.376 . S
C506 C504 1.394 . S
C506 C507 1.369 . S
C506 C510 1.531 . S
C507 C506 1.369 . S
C507 C508 1.410 . S
C507 C515 1.503 . S
C508 C507 1.410 . S
C508 C509 1.392 . S
C508 C511 1.511 . S
C509 C505 1.376 . S
C509 C508 1.392 . S
C509 H521 0.929 . S
C510 C506 1.531 . S
C510 H522 0.960 . S
C510 H523 0.962 . S
C510 H524 0.960 . S
C511 C508 1.511 . S
C511 H525 0.961 . S
C511 H526 0.961 . S
C511 H527 0.961 . S
C512 C513 1.370 . S
C512 C514 1.363 . S
C512 H528 0.931 . S
C513 C512 1.370 . S
C513 C517 1.408 . S
C514 C512 1.363 . S
C514 C515 1.370 . S
C514 C518 1.524 . S
C515 C507 1.503 . S
C515 C514 1.370 . S
C515 C516 1.403 . S
C516 C515 1.403 . S
C516 C517 1.404 . S
C516 C519 1.539 . S
C517 C513 1.408 . S
C517 C516 1.404 . S
C517 H529 0.930 . S
C518 C514 1.524 . S
C518 H530 0.956 . S
C518 H531 0.961 . S
C518 H532 0.961 . S
C519 C516 1.539 . S
C519 H533 0.958 . S
C519 H534 0.961 . S
C519 H535 0.960 . S
H520 C504 0.931 . S
H521 C509 0.929 . S
H522 C510 0.960 . S
H523 C510 0.962 . S
H524 C510 0.960 . S
H525 C511 0.961 . S
H526 C511 0.961 . S
H527 C511 0.961 . S
H528 C512 0.931 . S
H529 C517 0.930 . S
H530 C518 0.956 . S
H531 C518 0.961 . S
H532 C518 0.961 . S
H533 C519 0.958 . S
H534 C519 0.961 . S
H535 C519 0.960 . S
C536 C537 1.391 . S
C536 C538 1.394 . S
C536 H552 0.931 . S
C537 C536 1.391 . S
C537 C541 1.376 . S
C538 C536 1.394 . S
C538 C539 1.369 . S
C538 C542 1.531 . S
C539 C538 1.369 . S
C539 C540 1.410 . S
C539 C547 1.503 . S
C540 C539 1.410 . S
C540 C541 1.392 . S
C540 C543 1.511 . S
C541 C537 1.376 . S
C541 C540 1.392 . S
C541 H553 0.929 . S
C542 C538 1.531 . S
C542 H554 0.960 . S
C542 H555 0.962 . S
C542 H556 0.960 . S
C543 C540 1.511 . S
C543 H557 0.961 . S
C543 H558 0.961 . S
C543 H559 0.961 . S
C544 C545 1.370 . S
C544 C546 1.363 . S
C544 H560 0.931 . S
C545 C544 1.370 . S
C545 C549 1.408 . S
C546 C544 1.363 . S
C546 C547 1.370 . S
C546 C550 1.524 . S
C547 C539 1.503 . S
C547 C546 1.370 . S
C547 C548 1.403 . S
C548 C547 1.403 . S
C548 C549 1.404 . S
C548 C551 1.539 . S
C549 C545 1.408 . S
C549 C548 1.404 . S
C549 H561 0.930 . S
C550 C546 1.524 . S
C550 H562 0.956 . S
C550 H563 0.961 . S
C550 H564 0.961 . S
C551 C548 1.539 . S
C551 H565 0.958 . S
C551 H566 0.961 . S
C551 H567 0.960 . S
H552 C536 0.931 . S
H553 C541 0.929 . S
H554 C542 0.960 . S
H555 C542 0.962 . S
H556 C542 0.960 . S
H557 C543 0.961 . S
H558 C543 0.961 . S
H559 C543 0.961 . S
H560 C544 0.931 . S
H561 C549 0.930 . S
H562 C550 0.956 . S
H563 C550 0.961 . S
H564 C550 0.961 . S
H565 C551 0.958 . S
H566 C551 0.961 . S
H567 C551 0.960 . S
C568 C569 1.391 . S
C568 C570 1.394 . S
C568 H584 0.931 . S
C569 C568 1.391 . S
C569 C573 1.376 . S
C570 C568 1.394 . S
C570 C571 1.369 . S
C570 C574 1.531 . S
C571 C570 1.369 . S
C571 C572 1.410 . S
C571 C579 1.503 . S
C572 C571 1.410 . S
C572 C573 1.392 . S
C572 C575 1.511 . S
C573 C569 1.376 . S
C573 C572 1.392 . S
C573 H585 0.929 . S
C574 C570 1.531 . S
C574 H586 0.960 . S
C574 H587 0.962 . S
C574 H588 0.960 . S
C575 C572 1.511 . S
C575 H589 0.961 . S
C575 H590 0.961 . S
C575 H591 0.961 . S
C576 C577 1.370 . S
C576 C578 1.363 . S
C576 H592 0.931 . S
C577 C576 1.370 . S
C577 C581 1.408 . S
C578 C576 1.363 . S
C578 C579 1.370 . S
C578 C582 1.524 . S
C579 C571 1.503 . S
C579 C578 1.370 . S
C579 C580 1.403 . S
C580 C579 1.403 . S
C580 C581 1.404 . S
C580 C583 1.539 . S
C581 C577 1.408 . S
C581 C580 1.404 . S
C581 H593 0.930 . S
C582 C578 1.524 . S
C582 H594 0.956 . S
C582 H595 0.961 . S
C582 H596 0.961 . S
C583 C580 1.539 . S
C583 H597 0.958 . S
C583 H598 0.961 . S
C583 H599 0.960 . S
H584 C568 0.931 . S
H585 C573 0.929 . S
H586 C574 0.960 . S
H587 C574 0.962 . S
H588 C574 0.960 . S
H589 C575 0.961 . S
H590 C575 0.961 . S
H591 C575 0.961 . S
H592 C576 0.931 . S
H593 C581 0.930 . S
H594 C582 0.956 . S
H595 C582 0.961 . S
H596 C582 0.961 . S
H597 C583 0.958 . S
H598 C583 0.961 . S
H599 C583 0.960 . S
C600 C601 1.391 . S
C600 C602 1.394 . S
C600 H616 0.931 . S
C601 C600 1.391 . S
C601 C605 1.376 . S
C602 C600 1.394 . S
C602 C603 1.369 . S
C602 C606 1.531 . S
C603 C602 1.369 . S
C603 C604 1.410 . S
C603 C611 1.503 . S
C604 C603 1.410 . S
C604 C605 1.392 . S
C604 C607 1.511 . S
C605 C601 1.376 . S
C605 C604 1.392 . S
C605 H617 0.929 . S
C606 C602 1.531 . S
C606 H618 0.960 . S
C606 H619 0.962 . S
C606 H620 0.960 . S
C607 C604 1.511 . S
C607 H621 0.961 . S
C607 H622 0.961 . S
C607 H623 0.961 . S
C608 C609 1.370 . S
C608 C610 1.363 . S
C608 H624 0.931 . S
C609 C608 1.370 . S
C609 C613 1.408 . S
C610 C608 1.363 . S
C610 C611 1.370 . S
C610 C614 1.524 . S
C611 C603 1.503 . S
C611 C610 1.370 . S
C611 C612 1.403 . S
C612 C611 1.403 . S
C612 C613 1.404 . S
C612 C615 1.539 . S
C613 C609 1.408 . S
C613 C612 1.404 . S
C613 H625 0.930 . S
C614 C610 1.524 . S
C614 H626 0.956 . S
C614 H627 0.961 . S
C614 H628 0.961 . S
C615 C612 1.539 . S
C615 H629 0.958 . S
C615 H630 0.961 . S
C615 H631 0.960 . S
H616 C600 0.931 . S
H617 C605 0.929 . S
H618 C606 0.960 . S
H619 C606 0.962 . S
H620 C606 0.960 . S
H621 C607 0.961 . S
H622 C607 0.961 . S
H623 C607 0.961 . S
H624 C608 0.931 . S
H625 C613 0.930 . S
H626 C614 0.956 . S
H627 C614 0.961 . S
H628 C614 0.961 . S
H629 C615 0.958 . S
H630 C615 0.961 . S
H631 C615 0.960 . S
C632 C633 1.391 . S
C632 C634 1.394 . S
C632 H648 0.931 . S
C633 C632 1.391 . S
C633 C637 1.376 . S
C634 C632 1.394 . S
C634 C635 1.369 . S
C634 C638 1.531 . S
C635 C634 1.369 . S
C635 C636 1.410 . S
C635 C643 1.503 . S
C636 C635 1.410 . S
C636 C637 1.392 . S
C636 C639 1.511 . S
C637 C633 1.376 . S
C637 C636 1.392 . S
C637 H649 0.929 . S
C638 C634 1.531 . S
C638 H650 0.960 . S
C638 H651 0.962 . S
C638 H652 0.960 . S
C639 C636 1.511 . S
C639 H653 0.961 . S
C639 H654 0.961 . S
C639 H655 0.961 . S
C640 C641 1.370 . S
C640 C642 1.363 . S
C640 H656 0.931 . S
C641 C640 1.370 . S
C641 C645 1.408 . S
C642 C640 1.363 . S
C642 C643 1.370 . S
C642 C646 1.524 . S
C643 C635 1.503 . S
C643 C642 1.370 . S
C643 C644 1.403 . S
C644 C643 1.403 . S
C644 C645 1.404 . S
C644 C647 1.539 . S
C645 C641 1.408 . S
C645 C644 1.404 . S
C645 H657 0.930 . S
C646 C642 1.524 . S
C646 H658 0.956 . S
C646 H659 0.961 . S
C646 H660 0.961 . S
C647 C644 1.539 . S
C647 H661 0.958 . S
C647 H662 0.961 . S
C647 H663 0.960 . S
H648 C632 0.931 . S
H649 C637 0.929 . S
H650 C638 0.960 . S
H651 C638 0.962 . S
H652 C638 0.960 . S
H653 C639 0.961 . S
H654 C639 0.961 . S
H655 C639 0.961 . S
H656 C640 0.931 . S
H657 C645 0.930 . S
H658 C646 0.956 . S
H659 C646 0.961 . S
H660 C646 0.961 . S
H661 C647 0.958 . S
H662 C647 0.961 . S
H663 C647 0.960 . S
C664 C665 1.391 . S
C664 C666 1.394 . S
C664 H680 0.931 . S
C665 C664 1.391 . S
C665 C669 1.376 . S
C666 C664 1.394 . S
C666 C667 1.369 . S
C666 C670 1.531 . S
C667 C666 1.369 . S
C667 C668 1.410 . S
C667 C675 1.503 . S
C668 C667 1.410 . S
C668 C669 1.392 . S
C668 C671 1.511 . S
C669 C665 1.376 . S
C669 C668 1.392 . S
C669 H681 0.929 . S
C670 C666 1.531 . S
C670 H682 0.960 . S
C670 H683 0.962 . S
C670 H684 0.960 . S
C671 C668 1.511 . S
C671 H685 0.961 . S
C671 H686 0.961 . S
C671 H687 0.961 . S
C672 C673 1.370 . S
C672 C674 1.363 . S
C672 H688 0.931 . S
C673 C672 1.370 . S
C673 C677 1.408 . S
C674 C672 1.363 . S
C674 C675 1.370 . S
C674 C678 1.524 . S
C675 C667 1.503 . S
C675 C674 1.370 . S
C675 C676 1.403 . S
C676 C675 1.403 . S
C676 C677 1.404 . S
C676 C679 1.539 . S
C677 C673 1.408 . S
C677 C676 1.404 . S
C677 H689 0.930 . S
C678 C674 1.524 . S
C678 H690 0.956 . S
C678 H691 0.961 . S
C678 H692 0.961 . S
C679 C676 1.539 . S
C679 H693 0.958 . S
C679 H694 0.961 . S
C679 H695 0.960 . S
H680 C664 0.931 . S
H681 C669 0.929 . S
H682 C670 0.960 . S
H683 C670 0.962 . S
H684 C670 0.960 . S
H685 C671 0.961 . S
H686 C671 0.961 . S
H687 C671 0.961 . S
H688 C672 0.931 . S
H689 C677 0.930 . S
H690 C678 0.956 . S
H691 C678 0.961 . S
H692 C678 0.961 . S
H693 C679 0.958 . S
H694 C679 0.961 . S
H695 C679 0.960 . S
C696 C697 1.391 . S
C696 C698 1.394 . S
C696 H712 0.931 . S
C697 C696 1.391 . S
C697 C701 1.376 . S
C698 C696 1.394 . S
C698 C699 1.369 . S
C698 C702 1.531 . S
C699 C698 1.369 . S
C699 C700 1.410 . S
C699 C707 1.503 . S
C700 C699 1.410 . S
C700 C701 1.392 . S
C700 C703 1.511 . S
C701 C697 1.376 . S
C701 C700 1.392 . S
C701 H713 0.929 . S
C702 C698 1.531 . S
C702 H714 0.960 . S
C702 H715 0.962 . S
C702 H716 0.960 . S
C703 C700 1.511 . S
C703 H717 0.961 . S
C703 H718 0.961 . S
C703 H719 0.961 1_455 S
C704 C705 1.370 . S
C704 C706 1.363 1_556 S
C704 H720 0.931 . S
C705 C704 1.370 . S
C705 C709 1.403 1_455 S
C706 C704 1.363 1_554 S
C706 C707 1.370 . S
C706 C710 1.524 . S
C707 C699 1.503 . S
C707 C706 1.370 . S
C707 C708 1.403 1_455 S
C708 C707 1.403 1_655 S
C708 C709 1.404 1_554 S
C708 C711 1.539 . S
C709 C705 1.403 1_655 S
C709 C708 1.404 1_556 S
C709 H721 0.934 . S
C710 C706 1.524 . S
C710 H722 0.956 . S
C710 H723 0.961 . S
C710 H724 0.961 . S
C711 C708 1.539 . S
C711 H725 0.958 . S
C711 H726 0.961 . S
C711 H727 0.960 . S
H712 C696 0.931 . S
H713 C701 0.929 . S
H714 C702 0.960 . S
H715 C702 0.962 . S
H716 C702 0.960 . S
H717 C703 0.961 . S
H718 C703 0.961 . S
H719 C703 0.961 1_655 S
H720 C704 0.931 . S
H721 C709 0.934 . S
H722 C710 0.956 . S
H723 C710 0.961 . S
H724 C710 0.961 . S
H725 C711 0.958 . S
H726 C711 0.961 . S
H727 C711 0.960 . S
C728 C729 1.391 1_565 S
C728 C730 1.394 . S
C728 H744 0.931 . S
C729 C728 1.391 1_545 S
C729 C733 1.376 . S
C730 C728 1.394 . S
C730 C731 1.369 1_565 S
C730 C734 1.531 . S
C731 C730 1.369 1_545 S
C731 C732 1.410 . S
C731 C739 1.503 . S
C732 C731 1.410 . S
C732 C733 1.392 . S
C732 C735 1.511 . S
C733 C729 1.376 . S
C733 C732 1.392 . S
C733 H745 0.929 . S
C734 C730 1.531 . S
C734 H746 0.960 . S
C734 H747 0.962 . S
C734 H748 0.960 . S
C735 C732 1.511 . S
C735 H749 0.961 . S
C735 H750 0.961 . S
C735 H751 0.961 . S
C736 C737 1.370 . S
C736 C738 1.363 . S
C736 H752 0.931 . S
C737 C736 1.370 . S
C737 C741 1.408 1_545 S
C738 C736 1.363 . S
C738 C739 1.370 . S
C738 C742 1.524 . S
C739 C731 1.503 . S
C739 C738 1.370 . S
C739 C740 1.403 1_545 S
C740 C739 1.403 1_565 S
C740 C741 1.404 . S
C740 C743 1.539 . S
C741 C737 1.408 1_565 S
C741 C740 1.404 . S
C741 H753 0.930 . S
C742 C738 1.524 . S
C742 H754 0.956 . S
C742 H755 0.961 . S
C742 H756 0.961 . S
C743 C740 1.539 . S
C743 H757 0.958 . S
C743 H758 0.961 . S
C743 H759 0.960 . S
H744 C728 0.931 . S
H745 C733 0.929 . S
H746 C734 0.960 . S
H747 C734 0.962 . S
H748 C734 0.960 . S
H749 C735 0.961 . S
H750 C735 0.961 . S
H751 C735 0.961 . S
H752 C736 0.931 . S
H753 C741 0.930 . S
H754 C742 0.956 . S
H755 C742 0.961 . S
H756 C742 0.961 . S
H757 C743 0.958 . S
H758 C743 0.961 . S
H759 C743 0.960 . S
C760 C761 1.391 . S
C760 C762 1.394 . S
C760 H776 0.931 . S
C761 C760 1.391 . S
C761 C765 1.376 . S
C762 C760 1.394 . S
C762 C763 1.369 . S
C762 C766 1.531 . S
C763 C762 1.369 . S
C763 C764 1.410 . S
C763 C771 1.503 . S
C764 C763 1.410 . S
C764 C765 1.392 . S
C764 C767 1.511 . S
C765 C761 1.376 . S
C765 C764 1.392 . S
C765 H777 0.929 . S
C766 C762 1.531 . S
C766 H778 0.960 . S
C766 H779 0.962 . S
C766 H780 0.960 . S
C767 C764 1.511 . S
C767 H781 0.961 . S
C767 H782 0.961 . S
C767 H783 0.961 . S
C768 C769 1.370 . S
C768 C770 1.363 . S
C768 H784 0.931 . S
C769 C768 1.370 . S
C769 C773 1.408 . S
C770 C768 1.363 . S
C770 C771 1.370 . S
C770 C774 1.524 . S
C771 C763 1.503 . S
C771 C770 1.370 . S
C771 C772 1.403 . S
C772 C771 1.403 . S
C772 C773 1.404 . S
C772 C775 1.539 . S
C773 C769 1.408 . S
C773 C772 1.404 . S
C773 H785 0.930 . S
C774 C770 1.524 . S
C774 H786 0.956 . S
C774 H787 0.961 . S
C774 H788 0.961 . S
C775 C772 1.539 . S
C775 H789 0.958 . S
C775 H790 0.961 . S
C775 H791 0.960 . S
H776 C760 0.931 . S
H777 C765 0.929 . S
H778 C766 0.960 . S
H779 C766 0.962 . S
H780 C766 0.960 . S
H781 C767 0.961 . S
H782 C767 0.961 . S
H783 C767 0.961 . S
H784 C768 0.931 . S
H785 C773 0.930 . S
H786 C774 0.956 . S
H787 C774 0.961 . S
H788 C774 0.961 . S
H789 C775 0.958 . S
H790 C775 0.961 . S
H791 C775 0.960 . S
C792 C793 1.391 1_565 S
C792 C794 1.394 . S
C792 H808 0.931 . S
C793 C792 1.391 1_545 S
C793 C797 1.376 . S
C794 C792 1.394 . S
C794 C795 1.369 . S
C794 C798 1.531 . S
C795 C794 1.369 . S
C795 C796 1.410 1_565 S
C795 C803 1.503 . S
C796 C795 1.410 1_545 S
C796 C797 1.392 . S
C796 C799 1.511 . S
C797 C793 1.376 . S
C797 C796 1.392 . S
C797 H809 0.929 . S
C798 C794 1.531 . S
C798 H810 0.960 . S
C798 H811 0.962 . S
C798 H812 0.960 . S
C799 C796 1.511 . S
C799 H813 0.961 . S
C799 H814 0.961 . S
C799 H815 0.961 . S
C800 C801 1.370 1_545 S
C800 C802 1.363 . S
C800 H816 0.931 . S
C801 C800 1.370 1_565 S
C801 C805 1.408 . S
C802 C800 1.363 . S
C802 C803 1.370 1_545 S
C802 C806 1.524 . S
C803 C795 1.503 . S
C803 C802 1.370 1_565 S
C803 C804 1.403 . S
C804 C803 1.403 . S
C804 C805 1.404 . S
C804 C807 1.539 . S
C805 C801 1.408 . S
C805 C804 1.404 . S
C805 H817 0.930 . S
C806 C802 1.524 . S
C806 H818 0.956 . S
C806 H819 0.961 . S
C806 H820 0.961 . S
C807 C804 1.539 . S
C807 H821 0.958 . S
C807 H822 0.961 . S
C807 H823 0.960 . S
H808 C792 0.931 . S
H809 C797 0.929 . S
H810 C798 0.960 . S
H811 C798 0.962 . S
H812 C798 0.960 . S
H813 C799 0.961 . S
H814 C799 0.961 . S
H815 C799 0.961 . S
H816 C800 0.931 . S
H817 C805 0.930 . S
H818 C806 0.956 . S
H819 C806 0.961 . S
H820 C806 0.961 . S
H821 C807 0.958 . S
H822 C807 0.961 . S
H823 C807 0.960 . S
C824 C825 1.391 . S
C824 C826 1.394 . S
C824 H840 0.931 . S
C825 C824 1.391 . S
C825 C829 1.376 . S
C826 C824 1.394 . S
C826 C827 1.369 . S
C826 C830 1.531 . S
C827 C826 1.369 . S
C827 C828 1.410 . S
C827 C835 1.503 . S
C828 C827 1.410 . S
C828 C829 1.392 . S
C828 C831 1.511 . S
C829 C825 1.376 . S
C829 C828 1.392 . S
C829 H841 0.929 . S
C830 C826 1.531 . S
C830 H842 0.960 . S
C830 H843 0.962 . S
C830 H844 0.960 . S
C831 C828 1.511 . S
C831 H845 0.961 . S
C831 H846 0.961 . S
C831 H847 0.961 . S
C832 C833 1.370 1_556 S
C832 C834 1.363 . S
C832 H848 0.931 1_556 S
C833 C832 1.370 1_554 S
C833 C837 1.408 1_554 S
C834 C832 1.363 . S
C834 C835 1.370 . S
C834 C838 1.524 . S
C835 C827 1.503 . S
C835 C834 1.370 . S
C835 C836 1.403 . S
C836 C835 1.403 . S
C836 C837 1.404 . S
C836 C839 1.539 . S
C837 C833 1.408 1_556 S
C837 C836 1.404 . S
C837 H849 0.930 . S
C838 C834 1.524 . S
C838 H850 0.956 . S
C838 H851 0.961 . S
C838 H852 0.961 . S
C839 C836 1.539 . S
C839 H853 0.958 . S
C839 H854 0.961 . S
C839 H855 0.960 . S
H840 C824 0.931 . S
H841 C829 0.929 . S
H842 C830 0.960 . S
H843 C830 0.962 . S
H844 C830 0.960 . S
H845 C831 0.961 . S
H846 C831 0.961 . S
H847 C831 0.961 . S
H848 C832 0.931 1_554 S
H849 C837 0.930 . S
H850 C838 0.956 . S
H851 C838 0.961 . S
H852 C838 0.961 . S
H853 C839 0.958 . S
H854 C839 0.961 . S
H855 C839 0.960 . S
C856 C857 1.391 1_655 S
C856 C858 1.394 . S
C856 H872 0.931 . S
C857 C856 1.391 1_455 S
C857 C861 1.376 . S
C858 C856 1.394 . S
C858 C859 1.369 1_655 S
C858 C862 1.531 . S
C859 C858 1.369 1_455 S
C859 C860 1.410 . S
C859 C867 1.503 . S
C860 C859 1.410 . S
C860 C861 1.392 . S
C860 C863 1.511 . S
C861 C857 1.376 . S
C861 C860 1.392 . S
C861 H873 0.929 . S
C862 C858 1.531 . S
C862 H874 0.960 . S
C862 H875 0.962 . S
C862 H876 0.960 . S
C863 C860 1.511 . S
C863 H877 0.961 . S
C863 H878 0.961 . S
C863 H879 0.961 . S
C864 C865 1.370 1_655 S
C864 C866 1.363 . S
C864 H880 0.931 . S
C865 C864 1.370 1_455 S
C865 C869 1.408 . S
C866 C864 1.363 . S
C866 C867 1.370 1_655 S
C866 C870 1.524 . S
C867 C859 1.503 . S
C867 C866 1.370 1_455 S
C867 C868 1.403 . S
C868 C867 1.403 . S
C868 C869 1.404 . S
C868 C871 1.539 . S
C869 C865 1.408 . S
C869 C868 1.404 . S
C869 H881 0.930 . S
C870 C866 1.524 . S
C870 H882 0.956 . S
C870 H883 0.961 1_655 S
C870 H884 0.961 . S
C871 C868 1.539 . S
C871 H885 0.958 . S
C871 H886 0.961 . S
C871 H887 0.960 . S
H872 C856 0.931 . S
H873 C861 0.929 . S
H874 C862 0.960 . S
H875 C862 0.962 . S
H876 C862 0.960 . S
H877 C863 0.961 . S
H878 C863 0.961 . S
H879 C863 0.961 . S
H880 C864 0.931 . S
H881 C869 0.930 . S
H882 C870 0.956 . S
H883 C870 0.961 1_455 S
H884 C870 0.961 . S
H885 C871 0.958 . S
H886 C871 0.961 . S
H887 C871 0.960 . S
C313 C7 0.588 . S
C321 C303 0.546 . S
C345 C51 1.904 . S
C353 C239 1.844 . S
C377 C87 1.250 . S
C385 C271 1.236 . S
C409 C16 0.403 . S
C417 C297 0.459 . S
C449 C233 1.905 . S
C441 C42 1.953 . S
C481 C265 1.286 . S
C473 C96 1.264 . S
C505 C47 1.209 . S
C513 C175 1.228 . S
C537 C91 3.050 . S
C545 C207 2.990 . S
C569 C2 2.005 . S
C577 C137 1.949 . S
C609 C169 1.276 . S
C601 C56 1.247 . S
C641 C201 2.963 . S
C633 C82 2.977 . S
C665 C11 1.880 . S
C673 C143 1.855 . S
C705 C213 1.743 . S
C697 C19 1.705 . S
C729 C50 1.354 . S
C737 C149 1.360 . S
C761 C99 1.438 . S
C769 C181 1.491 . S
C801 C277 1.449 1_565 S
C793 C59 1.473 . S
C833 C309 1.089 . S
C825 C90 1.115 . S
C857 C10 1.306 . S
C865 C245 1.327 . S
