# Generated by pormake.
# Topology ptr, (4,4)-cn, num edge types: 1
# Building blocks:
#     Node 0, Type 0, BuildingBlock: CEKHIL_clean_sbu_0, # of connection points: 4
#     Node 1, Type 0, BuildingBlock: CEKHIL_clean_sbu_0, # of connection points: 4
#     Node 2, Type 0, BuildingBlock: CEKHIL_clean_sbu_0, # of connection points: 4
#     Node 3, Type 0, BuildingBlock: CEKHIL_clean_sbu_0, # of connection points: 4
#     Node 4, Type 0, BuildingBlock: CEKHIL_clean_sbu_0, # of connection points: 4
#     Node 5, Type 0, BuildingBlock: CEKHIL_clean_sbu_0, # of connection points: 4
#     Node 6, Type 0, BuildingBlock: CEKHIL_clean_sbu_0, # of connection points: 4
#     Node 7, Type 0, BuildingBlock: CEKHIL_clean_sbu_0, # of connection points: 4
#     Node 8, Type 0, BuildingBlock: CEKHIL_clean_sbu_0, # of connection points: 4
#     Node 9, Type 0, BuildingBlock: CEKHIL_clean_sbu_0, # of connection points: 4
#     Node 10, Type 0, BuildingBlock: CEKHIL_clean_sbu_0, # of connection points: 4
#     Node 11, Type 0, BuildingBlock: CEKHIL_clean_sbu_0, # of connection points: 4
#     Node 12, Type 0, BuildingBlock: CEKHIL_clean_sbu_0, # of connection points: 4
#     Node 13, Type 0, BuildingBlock: CEKHIL_clean_sbu_0, # of connection points: 4
#     Node 14, Type 0, BuildingBlock: CEKHIL_clean_sbu_0, # of connection points: 4
#     Node 15, Type 0, BuildingBlock: CEKHIL_clean_sbu_0, # of connection points: 4
#     Node 16, Type 0, BuildingBlock: CEKHIL_clean_sbu_0, # of connection points: 4
#     Node 17, Type 0, BuildingBlock: CEKHIL_clean_sbu_0, # of connection points: 4
#     Node 18, Type 1, BuildingBlock: KUFVIS_clean_linker_0, # of connection points: 4
#     Node 19, Type 1, BuildingBlock: KUFVIS_clean_linker_0, # of connection points: 4
#     Node 20, Type 1, BuildingBlock: KUFVIS_clean_linker_0, # of connection points: 4
#     Node 21, Type 1, BuildingBlock: KUFVIS_clean_linker_0, # of connection points: 4
#     Node 22, Type 1, BuildingBlock: KUFVIS_clean_linker_0, # of connection points: 4
#     Node 23, Type 1, BuildingBlock: KUFVIS_clean_linker_0, # of connection points: 4
#     Node 24, Type 1, BuildingBlock: KUFVIS_clean_linker_0, # of connection points: 4
#     Node 25, Type 1, BuildingBlock: KUFVIS_clean_linker_0, # of connection points: 4
#     Node 26, Type 1, BuildingBlock: KUFVIS_clean_linker_0, # of connection points: 4
#     Node 27, Type 1, BuildingBlock: KUFVIS_clean_linker_0, # of connection points: 4
#     Node 28, Type 1, BuildingBlock: KUFVIS_clean_linker_0, # of connection points: 4
#     Node 29, Type 1, BuildingBlock: KUFVIS_clean_linker_0, # of connection points: 4
#     Node 30, Type 1, BuildingBlock: KUFVIS_clean_linker_0, # of connection points: 4
#     Node 31, Type 1, BuildingBlock: KUFVIS_clean_linker_0, # of connection points: 4
#     Node 32, Type 1, BuildingBlock: KUFVIS_clean_linker_0, # of connection points: 4
#     Node 33, Type 1, BuildingBlock: KUFVIS_clean_linker_0, # of connection points: 4
#     Node 34, Type 1, BuildingBlock: KUFVIS_clean_linker_0, # of connection points: 4
#     Node 35, Type 1, BuildingBlock: KUFVIS_clean_linker_0, # of connection points: 4
#     Edge 36, Type (0, 1), BuildingBlock: AJUNOK_clean_linker_0, # of connection points: 2
#     Edge 37, Type (0, 1), BuildingBlock: AJUNOK_clean_linker_0, # of connection points: 2
#     Edge 38, Type (0, 1), BuildingBlock: AJUNOK_clean_linker_0, # of connection points: 2
#     Edge 39, Type (0, 1), BuildingBlock: AJUNOK_clean_linker_0, # of connection points: 2
#     Edge 40, Type (0, 1), BuildingBlock: AJUNOK_clean_linker_0, # of connection points: 2
#     Edge 41, Type (0, 1), BuildingBlock: AJUNOK_clean_linker_0, # of connection points: 2
#     Edge 42, Type (0, 1), BuildingBlock: AJUNOK_clean_linker_0, # of connection points: 2
#     Edge 43, Type (0, 1), BuildingBlock: AJUNOK_clean_linker_0, # of connection points: 2
#     Edge 44, Type (0, 1), BuildingBlock: AJUNOK_clean_linker_0, # of connection points: 2
#     Edge 45, Type (0, 1), BuildingBlock: AJUNOK_clean_linker_0, # of connection points: 2
#     Edge 46, Type (0, 1), BuildingBlock: AJUNOK_clean_linker_0, # of connection points: 2
#     Edge 47, Type (0, 1), BuildingBlock: AJUNOK_clean_linker_0, # of connection points: 2
#     Edge 48, Type (0, 1), BuildingBlock: AJUNOK_clean_linker_0, # of connection points: 2
#     Edge 49, Type (0, 1), BuildingBlock: AJUNOK_clean_linker_0, # of connection points: 2
#     Edge 50, Type (0, 1), BuildingBlock: AJUNOK_clean_linker_0, # of connection points: 2
#     Edge 51, Type (0, 1), BuildingBlock: AJUNOK_clean_linker_0, # of connection points: 2
#     Edge 52, Type (0, 1), BuildingBlock: AJUNOK_clean_linker_0, # of connection points: 2
#     Edge 53, Type (0, 1), BuildingBlock: AJUNOK_clean_linker_0, # of connection points: 2
#     Edge 54, Type (0, 1), BuildingBlock: AJUNOK_clean_linker_0, # of connection points: 2
#     Edge 55, Type (0, 1), BuildingBlock: AJUNOK_clean_linker_0, # of connection points: 2
#     Edge 56, Type (0, 1), BuildingBlock: AJUNOK_clean_linker_0, # of connection points: 2
#     Edge 57, Type (0, 1), BuildingBlock: AJUNOK_clean_linker_0, # of connection points: 2
#     Edge 58, Type (0, 1), BuildingBlock: AJUNOK_clean_linker_0, # of connection points: 2
#     Edge 59, Type (0, 1), BuildingBlock: AJUNOK_clean_linker_0, # of connection points: 2
#     Edge 60, Type (0, 1), BuildingBlock: AJUNOK_clean_linker_0, # of connection points: 2
#     Edge 61, Type (0, 1), BuildingBlock: AJUNOK_clean_linker_0, # of connection points: 2
#     Edge 62, Type (0, 1), BuildingBlock: AJUNOK_clean_linker_0, # of connection points: 2
#     Edge 63, Type (0, 1), BuildingBlock: AJUNOK_clean_linker_0, # of connection points: 2
#     Edge 64, Type (0, 1), BuildingBlock: AJUNOK_clean_linker_0, # of connection points: 2
#     Edge 65, Type (0, 1), BuildingBlock: AJUNOK_clean_linker_0, # of connection points: 2
#     Edge 66, Type (0, 1), BuildingBlock: AJUNOK_clean_linker_0, # of connection points: 2
#     Edge 67, Type (0, 1), BuildingBlock: AJUNOK_clean_linker_0, # of connection points: 2
#     Edge 68, Type (0, 1), BuildingBlock: AJUNOK_clean_linker_0, # of connection points: 2
#     Edge 69, Type (0, 1), BuildingBlock: AJUNOK_clean_linker_0, # of connection points: 2
#     Edge 70, Type (0, 1), BuildingBlock: AJUNOK_clean_linker_0, # of connection points: 2
#     Edge 71, Type (0, 1), BuildingBlock: AJUNOK_clean_linker_0, # of connection points: 2
#     Edge 72, Type (0, 1), BuildingBlock: AJUNOK_clean_linker_0, # of connection points: 2
#     Edge 73, Type (0, 1), BuildingBlock: AJUNOK_clean_linker_0, # of connection points: 2
#     Edge 74, Type (0, 1), BuildingBlock: AJUNOK_clean_linker_0, # of connection points: 2
#     Edge 75, Type (0, 1), BuildingBlock: AJUNOK_clean_linker_0, # of connection points: 2
#     Edge 76, Type (0, 1), BuildingBlock: AJUNOK_clean_linker_0, # of connection points: 2
#     Edge 77, Type (0, 1), BuildingBlock: AJUNOK_clean_linker_0, # of connection points: 2
#     Edge 78, Type (0, 1), BuildingBlock: AJUNOK_clean_linker_0, # of connection points: 2
#     Edge 79, Type (0, 1), BuildingBlock: AJUNOK_clean_linker_0, # of connection points: 2
#     Edge 80, Type (0, 1), BuildingBlock: AJUNOK_clean_linker_0, # of connection points: 2
#     Edge 81, Type (0, 1), BuildingBlock: AJUNOK_clean_linker_0, # of connection points: 2
#     Edge 82, Type (0, 1), BuildingBlock: AJUNOK_clean_linker_0, # of connection points: 2
#     Edge 83, Type (0, 1), BuildingBlock: AJUNOK_clean_linker_0, # of connection points: 2
#     Edge 84, Type (0, 1), BuildingBlock: AJUNOK_clean_linker_0, # of connection points: 2
#     Edge 85, Type (0, 1), BuildingBlock: AJUNOK_clean_linker_0, # of connection points: 2
#     Edge 86, Type (0, 1), BuildingBlock: AJUNOK_clean_linker_0, # of connection points: 2
#     Edge 87, Type (0, 1), BuildingBlock: AJUNOK_clean_linker_0, # of connection points: 2
#     Edge 88, Type (0, 1), BuildingBlock: AJUNOK_clean_linker_0, # of connection points: 2
#     Edge 89, Type (0, 1), BuildingBlock: AJUNOK_clean_linker_0, # of connection points: 2
#     Edge 90, Type (0, 1), BuildingBlock: AJUNOK_clean_linker_0, # of connection points: 2
#     Edge 91, Type (0, 1), BuildingBlock: AJUNOK_clean_linker_0, # of connection points: 2
#     Edge 92, Type (0, 1), BuildingBlock: AJUNOK_clean_linker_0, # of connection points: 2
#     Edge 93, Type (0, 1), BuildingBlock: AJUNOK_clean_linker_0, # of connection points: 2
#     Edge 94, Type (0, 1), BuildingBlock: AJUNOK_clean_linker_0, # of connection points: 2
#     Edge 95, Type (0, 1), BuildingBlock: AJUNOK_clean_linker_0, # of connection points: 2
#     Edge 96, Type (0, 1), BuildingBlock: AJUNOK_clean_linker_0, # of connection points: 2
#     Edge 97, Type (0, 1), BuildingBlock: AJUNOK_clean_linker_0, # of connection points: 2
#     Edge 98, Type (0, 1), BuildingBlock: AJUNOK_clean_linker_0, # of connection points: 2
#     Edge 99, Type (0, 1), BuildingBlock: AJUNOK_clean_linker_0, # of connection points: 2
#     Edge 100, Type (0, 1), BuildingBlock: AJUNOK_clean_linker_0, # of connection points: 2
#     Edge 101, Type (0, 1), BuildingBlock: AJUNOK_clean_linker_0, # of connection points: 2
#     Edge 102, Type (0, 1), BuildingBlock: AJUNOK_clean_linker_0, # of connection points: 2
#     Edge 103, Type (0, 1), BuildingBlock: AJUNOK_clean_linker_0, # of connection points: 2
#     Edge 104, Type (0, 1), BuildingBlock: AJUNOK_clean_linker_0, # of connection points: 2
#     Edge 105, Type (0, 1), BuildingBlock: AJUNOK_clean_linker_0, # of connection points: 2
#     Edge 106, Type (0, 1), BuildingBlock: AJUNOK_clean_linker_0, # of connection points: 2
#     Edge 107, Type (0, 1), BuildingBlock: AJUNOK_clean_linker_0, # of connection points: 2
# Relax obj value: 0.047
# Max RMSD: 0.107
# Mean RMSD: 0.081
data_MOF--net-ptr--node1-CEKHIL_clean_sbu_0--node2-KUFVIS_clean_linker_0--edge1-AJUNOK_clean_linker_0
_symmetry_space_group_name_H-M    P1
_symmetry_Int_Tables_number       1
_symmetry_cell_setting            triclinic
loop_
_symmetry_equiv_pos_as_xyz
'x, y, z'
_cell_length_a     57.529147
_cell_length_b     56.79403
_cell_length_c     37.255393
_cell_angle_alpha  89.963886
_cell_angle_beta   90.035742
_cell_angle_gamma 121.24193
loop_
_atom_site_label
_atom_site_type_symbol
_atom_site_fract_x
_atom_site_fract_y
_atom_site_fract_z
_atom_type_partial_charge
Co0 Co 0.03465 0.37113 -0.00344 0.0
O1 O 0.05194 0.35713 0.02713 0.0
O2 O 0.07411 0.3926 0.99057 0.0
C3 C 1.00138 0.32903 0.97702 0.0
O4 O 1.02391 0.39111 0.95998 0.0
Co5 Co 0.97491 0.3558 0.00943 0.0
O6 O 0.97952 0.37662 0.9648 0.0
C7 C 1.01929 0.39892 0.05377 0.0
C8 C 0.07505 0.37622 0.01416 0.0
C9 C 1.00261 0.39159 0.94998 0.0
O10 O 0.03716 0.39704 0.03532 0.0
O11 O 0.99364 0.38317 0.04902 0.0
O12 O 1.02536 0.34137 0.96231 0.0
O13 O 0.99881 0.34159 0.00413 0.0
Co14 Co 0.68052 0.67879 -0.00145 0.0
O15 O 0.71146 0.69418 0.96657 0.0
O16 O 0.70085 0.66039 0.00488 0.0
C17 C 0.6875 0.72005 0.01724 0.0
O18 O 0.6513 0.65776 0.03668 0.0
Co19 Co 0.63227 0.68789 0.98917 0.0
O20 O 0.61791 0.66706 0.03439 0.0
C21 C 0.63428 0.64529 0.94592 0.0
C22 C 0.7175 0.67709 0.98065 0.0
C23 C 0.6287 0.65452 0.0483 0.0
O24 O 0.65644 0.65061 0.96162 0.0
O25 O 0.6226 0.65893 0.95176 0.0
O26 O 0.70093 0.70966 0.03124 0.0
O27 O 0.67155 0.70619 0.99097 0.0
Co28 Co 0.37484 1.01094 -0.0015 0.0
O29 O 0.36027 0.0277 0.96748 0.0
O30 O 0.39425 0.05083 0.00522 0.0
C31 C 0.33385 0.9755 0.01798 0.0
O32 O 0.39496 1.00147 0.03599 0.0
Co33 Co 0.36351 0.95187 0.98565 0.0
O34 O 0.38342 0.95729 0.03111 0.0
C35 C 0.40612 0.99806 0.94323 0.0
C36 C 0.37802 0.05131 0.98132 0.0
C37 C 0.3966 0.98066 0.0464 0.0
O38 O 0.40209 1.01528 0.96059 0.0
O39 O 0.39151 0.97198 0.94762 0.0
O40 O 0.34466 0.99993 0.03198 0.0
O41 O 0.34681 0.97374 0.99081 0.0
Co42 Co 1.02055 0.66696 0.00788 0.0
O43 O 1.00407 0.68128 0.97631 0.0
O44 O 0.981 0.64574 0.01249 0.0
C45 C 0.05348 0.70901 0.02824 0.0
O46 O 0.03 0.64658 0.04536 0.0
Co47 Co 0.08063 0.68209 -0.00054 0.0
O48 O 0.07431 0.66034 0.04373 0.0
C49 C 0.03765 0.63928 0.95292 0.0
C50 C 0.98067 0.66248 0.98896 0.0
C51 C 0.05061 0.64551 0.057 0.0
O52 O 1.01902 0.64114 0.96949 0.0
O53 O 0.06307 0.65513 0.95924 0.0
O54 O 0.02918 0.69666 0.04199 0.0
O55 O 0.05666 0.6964 0.00172 0.0
Co56 Co 0.37456 0.36028 0.00862 0.0
O57 O 0.34325 0.34558 0.03984 0.0
O58 O 0.35509 0.37945 0.00117 0.0
C59 C 0.36696 0.31869 0.99072 0.0
O60 O 0.40449 0.38064 0.9711 0.0
Co61 Co 0.42174 0.34959 0.0206 0.0
O62 O 0.43698 0.37011 0.97531 0.0
C63 C 0.41999 0.39295 0.06263 0.0
C64 C 0.33804 0.36316 0.02536 0.0
C65 C 0.42698 0.38308 0.96044 0.0
O66 O 0.39845 0.38826 0.04579 0.0
O67 O 0.4312 0.37873 0.05783 0.0
O68 O 0.35411 0.32942 0.97589 0.0
O69 O 0.38264 0.33244 0.01723 0.0
Co70 Co 0.67985 0.02711 0.0092 0.0
O71 O 0.6945 1.01044 0.04018 0.0
O72 O 0.66049 0.98724 0.00249 0.0
C73 C 0.72077 0.06256 0.98965 0.0
O74 O 0.65969 0.03652 0.97165 0.0
Co75 Co 0.69105 0.08611 0.02203 0.0
O76 O 0.67137 0.08076 0.97637 0.0
C77 C 0.64881 0.03999 0.06491 0.0
C78 C 0.67678 0.98682 0.02634 0.0
C79 C 0.65819 0.05737 0.96109 0.0
O80 O 0.65265 0.02276 0.04725 0.0
O81 O 0.66343 0.06607 0.06051 0.0
O82 O 0.70998 0.03812 0.97566 0.0
O83 O 0.70784 0.06432 0.01684 0.0
Co84 Co 0.70024 0.70395 0.33144 0.0
O85 O 0.71722 0.68948 0.36189 0.0
O86 O 0.73966 0.72461 0.32493 0.0
C87 C 0.66605 0.66201 0.31228 0.0
O88 O 0.69007 0.72442 0.29487 0.0
Co89 Co 0.64127 0.69047 0.34461 0.0
O90 O 0.64607 0.71132 0.30001 0.0
C91 C 0.68631 0.7332 0.38827 0.0
C92 C 0.7404 0.70816 0.34859 0.0
C93 C 0.66917 0.72569 0.28502 0.0
O94 O 0.70376 0.73047 0.37003 0.0
O95 O 0.6606 0.718 0.38369 0.0
O96 O 0.68997 0.67382 0.29743 0.0
O97 O 0.66408 0.67494 0.33944 0.0
Co98 Co 0.34638 1.01133 0.33033 0.0
O99 O 0.37688 0.02599 0.29763 0.0
O100 O 0.36629 0.99248 0.33639 0.0
C101 C 0.35437 0.05307 0.34874 0.0
O102 O 0.31767 0.991 0.36921 0.0
Co103 Co 0.29872 0.02162 0.32264 0.0
O104 O 0.28475 1.00101 0.36808 0.0
C105 C 0.29872 0.97768 0.27977 0.0
C106 C 0.38278 1.0088 0.31176 0.0
C107 C 0.29542 0.98819 0.3815 0.0
O108 O 0.3213 0.98291 0.29415 0.0
O109 O 0.28779 0.99198 0.28594 0.0
O110 O 0.36767 0.04243 0.36242 0.0
O111 O 0.33792 0.03912 0.32295 0.0
Co112 Co 0.04278 0.34493 0.33135 0.0
O113 O 0.02767 0.36082 0.29976 0.0
O114 O 0.06155 0.38482 0.33737 0.0
C115 C 1.00208 0.30927 0.35109 0.0
O116 O 0.06331 0.33657 0.36948 0.0
Co117 Co 0.03291 0.28631 0.32067 0.0
O118 O 0.05259 0.29256 0.36655 0.0
C119 C 0.0742 0.33209 0.27635 0.0
C120 C 0.04502 0.38466 0.31345 0.0
C121 C 0.0653 0.31625 0.38114 0.0
O122 O 0.07012 0.34933 0.29354 0.0
O123 O 0.06001 0.30606 0.28152 0.0
O124 O 1.01252 0.3338 0.36467 0.0
O125 O 1.01528 0.30744 0.32428 0.0
Co126 Co 0.68723 1.0014 0.34288 0.0
O127 O 0.67016 1.01564 0.31228 0.0
O128 O 0.64773 0.98009 0.34865 0.0
C129 C 0.72055 0.04342 0.36268 0.0
O130 O 0.69768 0.98117 0.37947 0.0
Co131 Co 0.74701 1.0166 0.33052 0.0
O132 O 0.74206 0.99553 0.37501 0.0
C133 C 0.70273 0.97361 0.28587 0.0
C134 C 0.64698 0.99671 0.32525 0.0
C135 C 0.71888 0.98054 0.38959 0.0
O136 O 0.68478 0.97554 0.30405 0.0
O137 O 0.72836 0.98928 0.29089 0.0
O138 O 0.69653 0.03111 0.37725 0.0
O139 O 0.72314 0.03087 0.33558 0.0
Co140 Co 0.04111 0.69201 0.34234 0.0
O141 O 1.01044 0.67792 0.37466 0.0
O142 O 1.02196 0.71166 0.33597 0.0
C143 C 0.03217 0.64993 0.32419 0.0
O144 O 0.07038 0.71176 0.30381 0.0
Co145 Co 0.08747 0.67957 0.35164 0.0
O146 O 0.10208 0.70002 0.30618 0.0
C147 C 0.08843 0.7244 0.39385 0.0
C148 C 1.00512 0.69548 0.36043 0.0
C149 C 0.09239 0.71356 0.29217 0.0
O150 O 0.06633 0.71999 0.3788 0.0
O151 O 0.09871 0.70942 0.38823 0.0
O152 O 1.01948 0.66107 0.31006 0.0
O153 O 0.04854 0.66362 0.35013 0.0
Co154 Co 0.34543 0.35785 0.34105 0.0
O155 O 0.3603 0.34145 0.37214 0.0
O156 O 0.32668 0.31814 0.33386 0.0
C157 C 0.38608 0.39393 0.32246 0.0
O158 O 0.32514 0.36686 0.30337 0.0
Co159 Co 0.35485 0.4162 0.35389 0.0
O160 O 0.33581 0.41079 0.30762 0.0
C161 C 0.31355 0.36929 0.39696 0.0
C162 C 0.3428 0.31782 0.35806 0.0
C163 C 0.32325 0.38736 0.29232 0.0
O164 O 0.31786 0.35263 0.37878 0.0
O165 O 0.32735 0.39544 0.39251 0.0
O166 O 0.37596 0.36971 0.30802 0.0
O167 O 0.37258 0.39517 0.34933 0.0
Co168 Co 0.36627 0.03621 0.66684 0.0
O169 O 0.38265 0.02173 0.69838 0.0
O170 O 0.40579 0.05696 0.66177 0.0
C171 C 0.33273 0.99418 0.64689 0.0
O172 O 0.35708 0.05674 0.62926 0.0
Co173 Co 0.30676 0.02233 0.67558 0.0
O174 O 0.313 0.04378 0.6311 0.0
C175 C 0.3502 0.06497 0.72154 0.0
C176 C 0.40606 0.04028 0.68544 0.0
C177 C 0.33668 0.0582 0.61766 0.0
O178 O 0.36851 0.06253 0.70502 0.0
O179 O 0.32473 0.04944 0.71544 0.0
O180 O 0.35698 1.00618 0.633 0.0
O181 O 0.32995 1.00708 0.67341 0.0
Co182 Co 1.01459 0.34514 0.66458 0.0
O183 O 0.04556 0.35989 0.63276 0.0
O184 O 0.03444 0.32623 0.67148 0.0
C185 C 1.02232 0.38679 0.68249 0.0
O186 O 0.98504 0.32485 0.70266 0.0
Co187 Co 0.96732 0.35593 0.65357 0.0
O188 O 0.95266 0.33561 0.69909 0.0
C189 C 0.96833 0.31201 0.61183 0.0
C190 C 0.0513 0.34271 0.64723 0.0
C191 C 0.96267 0.32255 0.71369 0.0
O192 O 0.99026 0.31695 0.62785 0.0
O193 O 0.95718 0.32625 0.61697 0.0
O194 O 0.03535 0.37616 0.69702 0.0
O195 O 1.00638 0.37291 0.65628 0.0
Co196 Co 0.70872 0.67855 0.66397 0.0
O197 O 0.69421 0.69505 0.63235 0.0
O198 O 0.7279 0.71839 0.67044 0.0
C199 C 0.66773 0.64307 0.68327 0.0
O200 O 0.72872 0.66964 0.70222 0.0
Co201 Co 0.69823 0.61971 0.6531 0.0
O202 O 0.71752 0.6255 0.69922 0.0
C203 C 0.74022 0.66544 0.60941 0.0
C204 C 0.71179 0.71873 0.64626 0.0
C205 C 0.73035 0.64914 0.71393 0.0
O206 O 0.7362 0.68279 0.62644 0.0
O207 O 0.72578 0.63942 0.61444 0.0
O208 O 0.67831 0.66758 0.69699 0.0
O209 O 0.68096 0.64119 0.65653 0.0
Co210 Co 0.35484 0.33386 0.67615 0.0
O211 O 0.33776 0.34819 0.64569 0.0
O212 O 0.31538 0.31288 0.68244 0.0
C213 C 0.38862 0.37587 0.69558 0.0
O214 O 0.36528 0.31362 0.71279 0.0
Co215 Co 0.41402 0.34805 0.66299 0.0
O216 O 0.40954 0.32763 0.7079 0.0
C217 C 0.36936 0.30539 0.61886 0.0
C218 C 0.31461 0.32943 0.65895 0.0
C219 C 0.38647 0.31293 0.72284 0.0
O220 O 0.35173 0.30764 0.63737 0.0
O221 O 0.39504 0.32081 0.62349 0.0
O222 O 0.36466 0.36378 0.71032 0.0
O223 O 0.39086 0.36316 0.66836 0.0
Co224 Co 0.70783 0.02676 0.6754 0.0
O225 O 0.67694 1.01218 0.70736 0.0
O226 O 0.68826 0.04592 0.66868 0.0
C227 C 0.69986 0.98506 0.65732 0.0
O228 O 0.73734 0.04694 0.63726 0.0
Co229 Co 0.75495 1.01574 0.68621 0.0
O230 O 0.76968 0.03615 0.64077 0.0
C231 C 0.75418 0.05969 0.72814 0.0
C232 C 0.67149 0.02966 0.69316 0.0
C233 C 0.75969 0.04923 0.6262 0.0
O234 O 0.7323 0.05486 0.71209 0.0
O235 O 0.76524 0.04537 0.72295 0.0
O236 O 0.68689 0.99582 0.64295 0.0
O237 O 0.71588 0.99884 0.68354 0.0
Co238 Co 1.01181 0.69263 0.67501 0.0
O239 O 1.02634 0.67596 0.7062 0.0
O240 O 0.99239 0.65272 0.66844 0.0
C241 C 0.05283 0.72794 0.65559 0.0
O242 O 0.99181 0.70211 0.63731 0.0
Co243 Co 1.02324 0.75175 0.68773 0.0
O244 O 1.00361 0.74639 0.64204 0.0
C245 C 0.98068 0.70567 0.73033 0.0
C246 C 1.00863 0.65232 0.69239 0.0
C247 C 0.99039 0.72302 0.62674 0.0
O248 O 0.98457 0.68841 0.71286 0.0
O249 O 0.99535 0.73175 0.72594 0.0
O250 O 0.04199 0.70349 0.64163 0.0
O251 O 0.03987 0.7298 0.68267 0.0
H252 H 0.28793 0.37353 0.13701 0.0
H253 H 0.22403 0.37009 0.07365 0.0
H254 H 0.22871 0.38523 0.18873 0.0
H255 H 0.18528 0.36456 0.18609 0.0
H256 H 0.12625 0.37493 0.13109 0.0
H257 H 0.1955 0.38593 0.07286 0.0
C258 C 0.26966 0.37462 0.1353 0.0
C259 C 0.25871 0.37827 0.16651 0.0
C260 C 0.25767 0.37227 0.10195 0.0
C261 C 0.23363 0.37318 0.09958 0.0
C262 C 0.22198 0.37728 0.13095 0.0
C263 C 0.23574 0.38084 0.16419 0.0
C264 C 0.19526 0.37676 0.12999 0.0
C265 C 0.17931 0.37025 0.16165 0.0
C266 C 0.15488 0.3702 0.16229 0.0
C267 C 0.14564 0.37597 0.13092 0.0
C268 C 0.15969 0.38086 0.0986 0.0
C269 C 0.18471 0.38166 0.09803 0.0
H270 H 0.67063 0.92681 0.13795 0.0
H271 H 0.67344 0.86517 0.07519 0.0
H272 H 0.68344 0.86833 0.19115 0.0
H273 H 0.66987 0.82601 0.19049 0.0
H274 H 0.68942 0.77276 0.13618 0.0
H275 H 0.68739 0.83589 0.07592 0.0
C276 C 0.67167 0.90827 0.13663 0.0
C277 C 0.67541 0.89747 0.16805 0.0
C278 C 0.67189 0.8974 0.10322 0.0
C279 C 0.67388 0.87356 0.10137 0.0
C280 C 0.67683 0.86133 0.13337 0.0
C281 C 0.67869 0.87473 0.16633 0.0
C282 C 0.67928 0.83581 0.13332 0.0
C283 C 0.67607 0.82095 0.16579 0.0
C284 C 0.68081 0.79901 0.16704 0.0
C285 C 0.68702 0.79051 0.13548 0.0
C286 C 0.68876 0.80324 0.10274 0.0
C287 C 0.68519 0.82601 0.10152 0.0
H288 H 0.27915 0.92517 0.13828 0.0
H289 H 0.2168 0.85685 0.07891 0.0
H290 H 0.2107 0.862 0.1946 0.0
H291 H 0.18715 0.81755 0.19367 0.0
H292 H 0.11167 0.76028 0.14457 0.0
H293 H 0.17161 0.82822 0.08227 0.0
C294 C 0.26021 0.90537 0.13793 0.0
C295 C 0.2465 0.8943 0.16998 0.0
C296 C 0.24926 0.89262 0.10512 0.0
C297 C 0.22462 0.86683 0.10451 0.0
C298 C 0.21028 0.85458 0.13703 0.0
C299 C 0.22147 0.86932 0.16946 0.0
C300 C 0.18334 0.82739 0.1379 0.0
C301 C 0.17428 0.81166 0.17018 0.0
C302 C 0.14813 0.78814 0.17281 0.0
C303 C 0.13152 0.77902 0.14273 0.0
C304 C 0.14 0.79297 0.11012 0.0
C305 C 0.16582 0.81724 0.10752 0.0
H306 H 0.3822 0.11072 0.86937 0.0
H307 H 0.38364 0.17424 0.93315 0.0
H308 H 0.37302 0.17199 0.81738 0.0
H309 H 0.38759 0.21438 0.81852 0.0
H310 H 0.36886 0.26795 0.87375 0.0
H311 H 0.3699 0.2039 0.93306 0.0
C312 C 0.38213 0.12978 0.87103 0.0
C313 C 0.37856 0.14102 0.83991 0.0
C314 C 0.38312 0.14105 0.90461 0.0
C315 C 0.38243 0.16563 0.90689 0.0
C316 C 0.37978 0.17834 0.87517 0.0
C317 C 0.37711 0.16485 0.84204 0.0
C318 C 0.37822 0.20438 0.87567 0.0
C319 C 0.38162 0.21949 0.84337 0.0
C320 C 0.37715 0.24162 0.8424 0.0
C321 C 0.37126 0.2502 0.87416 0.0
C322 C 0.36929 0.23714 0.9067 0.0
C323 C 0.37247 0.21413 0.90764 0.0
H324 H 0.7743 0.11311 0.86934 0.0
H325 H 0.8382 0.18057 0.92802 0.0
H326 H 0.84355 0.17432 0.81232 0.0
H327 H 0.86801 0.21872 0.81247 0.0
H328 H 0.94313 0.27666 0.86177 0.0
H329 H 0.88301 0.20929 0.92458 0.0
C330 C 0.79356 0.13259 0.8695 0.0
C331 C 0.80716 0.14332 0.83731 0.0
C332 C 0.80506 0.14521 0.90217 0.0
C333 C 0.83008 0.17061 0.90249 0.0
C334 C 0.84437 0.18248 0.86981 0.0
C335 C 0.83277 0.16761 0.83754 0.0
C336 C 0.87151 0.20947 0.86863 0.0
C337 C 0.88075 0.22485 0.83609 0.0
C338 C 0.90688 0.2484 0.83342 0.0
C339 C 0.92331 0.25789 0.86365 0.0
C340 C 0.91467 0.24426 0.89645 0.0
C341 C 0.88889 0.21997 0.89913 0.0
H342 H 0.76617 0.66425 0.86945 0.0
H343 H 0.83127 0.6696 0.93211 0.0
H344 H 0.8251 0.65215 0.81758 0.0
H345 H 0.86866 0.67332 0.81946 0.0
H346 H 0.92798 0.66309 0.87388 0.0
H347 H 0.85961 0.65335 0.93311 0.0
C348 C 0.78449 0.66323 0.87106 0.0
C349 C 0.79518 0.65921 0.83986 0.0
C350 C 0.797 0.66642 0.90422 0.0
C351 C 0.8212 0.66578 0.90641 0.0
C352 C 0.83245 0.66108 0.87509 0.0
C353 C 0.81826 0.65685 0.84206 0.0
C354 C 0.8592 0.66167 0.87581 0.0
C355 C 0.87481 0.66778 0.84388 0.0
C356 C 0.89913 0.66764 0.84296 0.0
C357 C 0.90861 0.66211 0.87428 0.0
C358 C 0.89499 0.65775 0.90683 0.0
C359 C 0.87008 0.65714 0.90773 0.0
H360 H 0.95449 0.70652 0.47139 0.0
H361 H 0.88992 0.70113 0.40736 0.0
H362 H 0.89487 0.71831 0.52181 0.0
H363 H 0.8514 0.69678 0.5195 0.0
H364 H 0.79215 0.70666 0.46433 0.0
H365 H 0.86109 0.71695 0.40589 0.0
C366 C 0.93606 0.70729 0.46944 0.0
C367 C 0.92528 0.71165 0.50033 0.0
C368 C 0.92387 0.70413 0.43601 0.0
C369 C 0.89967 0.70475 0.43328 0.0
C370 C 0.88801 0.70924 0.46434 0.0
C371 C 0.90198 0.71363 0.49758 0.0
C372 C 0.86112 0.70842 0.46319 0.0
C373 C 0.84531 0.70222 0.49495 0.0
C374 C 0.82092 0.70223 0.4956 0.0
C375 C 0.8115 0.70763 0.46412 0.0
C376 C 0.82534 0.71213 0.4317 0.0
C377 C 0.85038 0.71294 0.43112 0.0
H378 H 0.33616 0.25829 0.47084 0.0
H379 H 0.33901 0.19657 0.40841 0.0
H380 H 0.34881 0.19979 0.52439 0.0
H381 H 0.33613 0.15769 0.52378 0.0
H382 H 0.35675 0.10539 0.46929 0.0
H383 H 0.35344 0.16782 0.40909 0.0
C384 C 0.33714 0.23971 0.46966 0.0
C385 C 0.34085 0.22895 0.50116 0.0
C386 C 0.33731 0.22872 0.43633 0.0
C387 C 0.33942 0.20497 0.43456 0.0
C388 C 0.34245 0.19285 0.46659 0.0
C389 C 0.34412 0.20619 0.49952 0.0
C390 C 0.34531 0.16759 0.46652 0.0
C391 C 0.34247 0.15287 0.499 0.0
C392 C 0.34791 0.13143 0.50018 0.0
C393 C 0.354 0.12292 0.46855 0.0
C394 C 0.35543 0.13551 0.43582 0.0
C395 C 0.35141 0.158 0.43468 0.0
H396 H 0.94813 0.25856 0.47064 0.0
H397 H 0.88411 0.19122 0.41195 0.0
H398 H 0.87881 0.19743 0.52766 0.0
H399 H 0.8543 0.15301 0.52739 0.0
H400 H 0.77902 0.09534 0.47816 0.0
H401 H 0.83919 0.16276 0.41544 0.0
C402 C 0.92884 0.2391 0.4705 0.0
C403 C 0.91524 0.22838 0.50269 0.0
C404 C 0.91734 0.22651 0.43783 0.0
C405 C 0.89225 0.20116 0.43748 0.0
C406 C 0.87794 0.18932 0.47016 0.0
C407 C 0.88959 0.20415 0.50244 0.0
C408 C 0.85075 0.16239 0.47132 0.0
C409 C 0.84153 0.14695 0.50381 0.0
C410 C 0.81536 0.12344 0.50648 0.0
C411 C 0.79887 0.11408 0.47629 0.0
C412 C 0.80748 0.12777 0.44354 0.0
C413 C 0.83331 0.15202 0.44086 0.0
H414 H 0.05213 0.44543 0.20162 0.0
H415 H 0.04884 0.50643 0.26516 0.0
H416 H 0.03925 0.50413 0.14919 0.0
H417 H 0.05194 0.54619 0.15019 0.0
H418 H 0.03228 0.59882 0.20584 0.0
H419 H 0.03504 0.53571 0.26502 0.0
C420 C 0.05113 0.46399 0.20316 0.0
C421 C 0.04732 0.47491 0.1719 0.0
C422 C 0.0508 0.47462 0.2367 0.0
C423 C 0.04862 0.49834 0.23886 0.0
C424 C 0.04573 0.51077 0.20704 0.0
C425 C 0.044 0.49762 0.17391 0.0
C426 C 0.04308 0.53617 0.20749 0.0
C427 C 0.04588 0.55105 0.17515 0.0
C428 C 0.0407 0.57268 0.17436 0.0
C429 C 0.03498 0.58125 0.20622 0.0
C430 C 0.03341 0.56835 0.23872 0.0
C431 C 0.03718 0.54572 0.23955 0.0
H432 H 0.43795 0.44716 0.20474 0.0
H433 H 0.50283 0.51418 0.26283 0.0
H434 H 0.50797 0.5068 0.1474 0.0
H435 H 0.53284 0.55117 0.14671 0.0
H436 H 0.60834 0.60875 0.19512 0.0
H437 H 0.54774 0.54258 0.25919 0.0
C438 C 0.45733 0.46652 0.20466 0.0
C439 C 0.4712 0.47661 0.17247 0.0
C440 C 0.46898 0.4793 0.2372 0.0
C441 C 0.49445 0.50425 0.23737 0.0
C442 C 0.50883 0.51566 0.20463 0.0
C443 C 0.49706 0.50058 0.17257 0.0
C444 C 0.53624 0.54235 0.20313 0.0
C445 C 0.54561 0.55731 0.17031 0.0
C446 C 0.57192 0.58046 0.16732 0.0
C447 C 0.58842 0.59016 0.19744 0.0
C448 C 0.57976 0.57698 0.23053 0.0
C449 C 0.55374 0.55296 0.23354 0.0
H450 H 0.43394 0.9987 0.20045 0.0
H451 H 0.49817 1.00372 0.26485 0.0
H452 H 0.49313 0.98593 0.15058 0.0
H453 H 0.5368 1.00762 0.1532 0.0
H454 H 0.59537 0.99693 0.20899 0.0
H455 H 0.52634 0.98712 0.26667 0.0
C456 C 0.4523 0.99779 0.20252 0.0
C457 C 0.46292 0.99306 0.17177 0.0
C458 C 0.46446 1.00105 0.23598 0.0
C459 C 0.48846 1.00009 0.2389 0.0
C460 C 0.49999 0.99527 0.20797 0.0
C461 C 0.48608 0.99084 0.17468 0.0
C462 C 0.52669 0.99576 0.20936 0.0
C463 C 0.54267 1.00197 0.17778 0.0
C464 C 0.56699 1.0018 0.17741 0.0
C465 C 0.57603 0.99601 0.20895 0.0
C466 C 0.56198 0.99146 0.2412 0.0
C467 C 0.53713 0.99102 0.24153 0.0
H468 H 0.6218 0.04068 0.80563 0.0
H469 H 0.55678 0.03494 0.74238 0.0
H470 H 0.56206 0.05187 0.85693 0.0
H471 H 0.51863 0.03063 0.85497 0.0
H472 H 0.45907 0.04015 0.80007 0.0
H473 H 0.52755 0.04993 0.74109 0.0
C474 C 0.60327 0.0413 0.80395 0.0
C475 C 0.59256 0.04552 0.83502 0.0
C476 C 0.59092 0.03815 0.77065 0.0
C477 C 0.56661 0.03856 0.76824 0.0
C478 C 0.555 0.04289 0.79946 0.0
C479 C 0.56913 0.0473 0.83258 0.0
C480 C 0.52809 0.04202 0.79853 0.0
C481 C 0.51246 0.036 0.83044 0.0
C482 C 0.48807 0.03601 0.8312 0.0
C483 C 0.47849 0.04125 0.79976 0.0
C484 C 0.49207 0.04542 0.76722 0.0
C485 C 0.5171 0.04623 0.76647 0.0
H486 H 1.00568 0.59365 0.80465 0.0
H487 H 1.00413 0.53009 0.7408 0.0
H488 H 1.01629 0.53313 0.85629 0.0
H489 H 1.00111 0.49044 0.85516 0.0
H490 H 1.02026 0.43721 0.79974 0.0
H491 H 1.01899 0.50125 0.7407 0.0
C492 C 1.00597 0.57471 0.80295 0.0
C493 C 1.01005 0.56374 0.83397 0.0
C494 C 1.00468 0.56329 0.76937 0.0
C495 C 1.00561 0.53885 0.76704 0.0
C496 C 1.00879 0.52645 0.79866 0.0
C497 C 1.01178 0.54008 0.83176 0.0
C498 C 1.01052 0.50053 0.79806 0.0
C499 C 1.00715 0.48538 0.83031 0.0
C500 C 1.01174 0.46333 0.83118 0.0
C501 C 1.01776 0.4549 0.7994 0.0
C502 C 1.01974 0.46803 0.76692 0.0
C503 C 1.01641 0.49094 0.76607 0.0
H504 H 0.61457 0.5926 0.80346 0.0
H505 H 0.55044 0.52492 0.74532 0.0
H506 H 0.54589 0.53119 0.86114 0.0
H507 H 0.52161 0.48684 0.86111 0.0
H508 H 0.44605 0.42886 0.81304 0.0
H509 H 0.50565 0.49602 0.74933 0.0
C510 C 0.59537 0.57305 0.80348 0.0
C511 C 0.58203 0.56227 0.83581 0.0
C512 C 0.58368 0.56038 0.7709 0.0
C513 C 0.55872 0.53491 0.77079 0.0
C514 C 0.54468 0.52303 0.80361 0.0
C515 C 0.55649 0.53792 0.83579 0.0
C516 C 0.51758 0.49601 0.80509 0.0
C517 C 0.50865 0.48071 0.8377 0.0
C518 C 0.48253 0.45722 0.84075 0.0
C519 C 0.4658 0.44768 0.81081 0.0
C520 C 0.47414 0.46115 0.77785 0.0
C521 C 0.49993 0.48544 0.77485 0.0
H522 H 0.71957 0.78021 0.53503 0.0
H523 H 0.71585 0.84089 0.59873 0.0
H524 H 0.70766 0.8395 0.48256 0.0
H525 H 0.71989 0.88126 0.48379 0.0
H526 H 0.70045 0.93412 0.53945 0.0
H527 H 0.70295 0.87084 0.59855 0.0
C528 C 0.71861 0.79879 0.53662 0.0
C529 C 0.7153 0.81004 0.50533 0.0
C530 C 0.71785 0.80914 0.57018 0.0
C531 C 0.71587 0.83298 0.5724 0.0
C532 C 0.71344 0.84573 0.54056 0.0
C533 C 0.71209 0.83281 0.50737 0.0
C534 C 0.71091 0.87122 0.54102 0.0
C535 C 0.71388 0.8862 0.50873 0.0
C536 C 0.70908 0.90812 0.50791 0.0
C537 C 0.70307 0.9165 0.53974 0.0
C538 C 0.70145 0.90355 0.57223 0.0
C539 C 0.7051 0.88084 0.57306 0.0
H540 H 0.10827 0.7771 0.53566 0.0
H541 H 0.17045 0.8459 0.59458 0.0
H542 H 0.17714 0.83957 0.47922 0.0
H543 H 0.20034 0.88404 0.47947 0.0
H544 H 0.27536 0.94235 0.52837 0.0
H545 H 0.21578 0.8745 0.59136 0.0
C546 C 0.12726 0.79684 0.53591 0.0
C547 C 0.14114 0.8076 0.50388 0.0
C548 C 0.13809 0.8099 0.56861 0.0
C549 C 0.16276 0.83565 0.56909 0.0
C550 C 0.17726 0.84756 0.53658 0.0
C551 C 0.16623 0.8325 0.5043 0.0
C552 C 0.20409 0.87482 0.53556 0.0
C553 C 0.21311 0.89024 0.50307 0.0
C554 C 0.23914 0.91383 0.50038 0.0
C555 C 0.25564 0.92349 0.5305 0.0
C556 C 0.24728 0.90978 0.5633 0.0
C557 C 0.22156 0.88533 0.566 0.0
H558 H 0.10109 0.33121 0.53642 0.0
H559 H 0.16538 0.33549 0.59971 0.0
H560 H 0.16055 0.31989 0.48471 0.0
H561 H 0.20381 0.33921 0.48711 0.0
H562 H 0.26165 0.32738 0.54271 0.0
H563 H 0.19409 0.3202 0.60112 0.0
C564 C 0.11942 0.33023 0.53812 0.0
C565 C 0.13045 0.32668 0.50691 0.0
C566 C 0.13151 0.33283 0.57145 0.0
C567 C 0.15569 0.33215 0.57381 0.0
C568 C 0.16732 0.32792 0.54248 0.0
C569 C 0.15352 0.32429 0.50924 0.0
C570 C 0.19386 0.328 0.54357 0.0
C571 C 0.20948 0.33342 0.51173 0.0
C572 C 0.23321 0.33214 0.51111 0.0
C573 C 0.24251 0.32688 0.54281 0.0
C574 C 0.22903 0.32337 0.57528 0.0
C575 C 0.20447 0.32347 0.57577 0.0
C576 C 1.0108 0.42952 0.09249 0.0
C577 C 0.02848 0.42067 0.08144 0.0
C578 C 1.01793 0.44869 0.12018 0.0
C579 C 0.04292 0.45961 0.13801 0.0
H580 H 0.991 0.42118 0.08015 0.0
H581 H 1.00318 0.4539 0.12891 0.0
S582 S 0.09741 0.44511 0.11786 0.0
N583 N 0.07291 0.42578 0.08919 0.0
N584 N 0.08618 0.46182 0.14147 0.0
C585 C 0.06133 0.45199 0.12628 0.0
C586 C 0.05416 0.43255 0.09791 0.0
C587 C 0.58907 0.63083 0.09094 0.0
C588 C 0.61357 0.63414 0.07743 0.0
C589 C 0.57435 0.61183 0.11835 0.0
C590 C 0.58348 0.59534 0.13314 0.0
H591 H 0.58139 0.64339 0.08084 0.0
H592 H 0.55642 0.61093 0.12912 0.0
S593 S 0.64483 0.59403 0.10631 0.0
N594 N 0.64518 0.61772 0.08022 0.0
N595 N 0.61745 0.58226 0.13159 0.0
C596 C 0.60724 0.5976 0.11917 0.0
C597 C 0.6223 0.61693 0.09142 0.0
C598 C 0.42706 1.00817 0.09774 0.0
C599 C 0.41504 0.98403 0.07683 0.0
C600 C 0.44365 1.01142 0.12723 0.0
C601 C 0.44914 0.9908 0.13701 0.0
H602 H 0.42319 0.02451 0.09186 0.0
H603 H 0.45176 0.03002 0.14315 0.0
S604 S 0.42436 0.92442 0.09029 0.0
N605 N 0.41123 0.93962 0.06724 0.0
N606 N 0.44222 0.94596 0.1229 0.0
C607 C 0.43819 0.96705 0.11575 0.0
C608 C 0.42116 0.96359 0.08572 0.0
C609 C 0.43977 0.03484 0.90161 0.0
C610 C 0.42901 1.00864 0.91724 0.0
C611 C 0.46002 0.04422 0.87514 0.0
C612 C 0.47056 0.02796 0.86365 0.0
H613 H 0.43184 0.04781 0.90891 0.0
H614 H 0.46693 0.06404 0.86274 0.0
S615 S 0.45132 0.95901 0.89834 0.0
N616 N 0.43213 0.96749 0.92112 0.0
N617 N 0.46984 0.98515 0.87116 0.0
C618 C 0.46099 1.00237 0.88023 0.0
C619 C 0.44029 0.9927 0.90702 0.0
C620 C 0.02914 0.42599 0.90113 0.0
C621 C 1.00497 0.41111 0.9211 0.0
C622 C 0.03159 0.44395 0.87343 0.0
C623 C 1.0101 0.44805 0.86461 0.0
H624 H 0.0462 0.42339 0.90637 0.0
H625 H 0.0503 0.45425 0.8581 0.0
S626 S 0.94299 0.41553 0.90937 0.0
N627 N 0.95935 0.40295 0.93072 0.0
N628 N 0.96425 0.43652 0.87854 0.0
C629 C 0.9862 0.43415 0.88495 0.0
C630 C 0.98355 0.41571 0.9131 0.0
C631 C 0.59307 0.6105 0.91209 0.0
C632 C 0.62078 0.62176 0.92059 0.0
C633 C 0.57994 0.58949 0.88663 0.0
C634 C 0.59403 0.57901 0.86858 0.0
H635 H 0.58146 0.61838 0.92458 0.0
H636 H 0.55907 0.58252 0.87957 0.0
S637 S 0.66583 0.59915 0.88305 0.0
N638 N 0.6612 0.61912 0.91061 0.0
N639 N 0.6364 0.57965 0.86259 0.0
C640 C 0.62125 0.58892 0.87807 0.0
C641 C 0.63465 0.61027 0.90412 0.0
C642 C 1.00445 0.60654 0.90753 0.0
C643 C 0.02961 0.61768 0.92521 0.0
C644 C 0.99756 0.58783 0.87921 0.0
C645 C 1.01542 0.57933 0.86787 0.0
H646 H 0.9904 0.61308 0.91466 0.0
H647 H 0.97849 0.5806 0.86527 0.0
S648 S 0.08255 0.60023 0.90739 0.0
N649 N 0.07149 0.617 0.93111 0.0
N650 N 0.05856 0.58222 0.87754 0.0
C651 C 0.03999 0.58921 0.8864 0.0
C652 C 0.04709 0.60832 0.91511 0.0
C653 C 0.43267 0.41869 0.9156 0.0
C654 C 0.44265 0.40302 0.9311 0.0
C655 C 0.44676 0.43755 0.88798 0.0
C656 C 0.47152 0.44173 0.87473 0.0
H657 H 0.41356 0.41615 0.92439 0.0
H658 H 0.43776 0.44838 0.87602 0.0
S659 S 0.50736 0.40714 0.9063 0.0
N660 N 0.47979 0.39398 0.93151 0.0
N661 N 0.5059 0.42942 0.87933 0.0
C662 C 0.48229 0.42702 0.89048 0.0
C663 C 0.46793 0.40765 0.91863 0.0
C664 C 0.62873 0.03039 0.90872 0.0
C665 C 0.64 0.05411 0.93039 0.0
C666 C 0.61243 0.02732 0.87895 0.0
C667 C 0.60647 0.04769 0.86967 0.0
H668 H 0.63298 1.01426 0.91424 0.0
H669 H 0.60485 1.00903 0.86251 0.0
S670 S 0.62934 0.11296 0.91833 0.0
N671 N 0.64268 0.09787 0.94112 0.0
N672 N 0.61223 0.09187 0.88498 0.0
C673 C 0.61672 0.07103 0.89162 0.0
C674 C 0.63347 0.07431 0.92192 0.0
C675 C 0.61554 1.00329 0.10698 0.0
C676 C 0.62614 0.02944 0.09126 0.0
C677 C 0.59541 0.9939 0.13365 0.0
C678 C 0.58483 1.0101 0.14525 0.0
H679 H 0.62345 0.99033 0.09952 0.0
H680 H 0.58854 0.97407 0.14599 0.0
S681 S 0.6039 0.07905 0.11069 0.0
N682 N 0.62299 0.07058 0.08766 0.0
N683 N 0.58553 0.05293 0.13795 0.0
C684 C 0.59436 0.03571 0.12871 0.0
C685 C 0.61493 0.04539 0.10174 0.0
C686 C 0.06859 0.62159 0.09493 0.0
C687 C 0.04684 0.62533 0.08568 0.0
C688 C 0.06601 0.60309 0.12196 0.0
C689 C 0.04159 0.58756 0.14095 0.0
H690 H 0.08806 0.63337 0.08156 0.0
H691 H 0.0836 0.60184 0.12911 0.0
S692 S 0.97786 0.58771 0.12626 0.0
N693 N 0.99946 0.61038 0.09705 0.0
N694 N 0.99479 0.57579 0.14769 0.0
C695 C 1.01941 0.59024 0.13127 0.0
C696 C 1.02197 0.60903 0.10376 0.0
C697 C 0.46063 0.42707 0.09803 0.0
C698 C 0.43328 0.41643 0.08809 0.0
C699 C 0.47352 0.4482 0.1234 0.0
C700 C 0.45952 0.4594 0.13997 0.0
H701 H 0.47214 0.41868 0.08666 0.0
H702 H 0.4941 0.45476 0.1315 0.0
S703 S 0.38861 0.44084 0.12165 0.0
N704 N 0.3933 0.42029 0.0953 0.0
N705 N 0.41761 0.4599 0.14323 0.0
C706 C 0.43265 0.44997 0.1292 0.0
C707 C 0.41952 0.42854 0.10319 0.0
C708 C 0.67879 0.76495 0.42584 0.0
C709 C 0.696 0.75538 0.41539 0.0
C710 C 0.68618 0.78435 0.45325 0.0
C711 C 0.71099 0.79482 0.47139 0.0
H712 H 0.65909 0.75695 0.41333 0.0
H713 H 0.67169 0.79003 0.46162 0.0
S714 S 0.76452 0.77868 0.45241 0.0
N715 N 0.73996 0.75951 0.42371 0.0
N716 N 0.75376 0.79603 0.4755 0.0
C717 C 0.72905 0.7866 0.46009 0.0
C718 C 0.7216 0.7669 0.43198 0.0
C719 C 0.25621 0.96478 0.4248 0.0
C720 C 0.28047 0.96787 0.41073 0.0
C721 C 0.24158 0.94572 0.45217 0.0
C722 C 0.25057 0.92893 0.46635 0.0
H723 H 0.24862 0.97754 0.41513 0.0
H724 H 0.22382 0.94494 0.46337 0.0
S725 S 0.31136 0.92709 0.43809 0.0
N726 N 0.31176 0.95102 0.41247 0.0
N727 N 0.2842 0.91543 0.46377 0.0
C728 C 0.27411 0.93102 0.45189 0.0
C729 C 0.28908 0.95042 0.42418 0.0
C730 C 0.08893 0.29942 0.42136 0.0
C731 C 0.08365 0.32037 0.41202 0.0
C732 C 0.10543 0.30216 0.45081 0.0
C733 C 0.11726 0.3259 0.47222 0.0
H734 H 0.07992 0.28045 0.40613 0.0
H735 H 0.10805 0.28515 0.45772 0.0
S736 S 0.11184 0.38761 0.4586 0.0
N737 N 0.09316 0.36642 0.42612 0.0
N738 N 0.12405 0.3714 0.48128 0.0
C739 C 0.11304 0.34739 0.46262 0.0
C740 C 0.0963 0.34468 0.43264 0.0
C741 C 0.1068 0.36859 0.23356 0.0
C742 C 0.09655 0.34256 0.2495 0.0
C743 C 0.12662 0.37795 0.20649 0.0
C744 C 0.13723 0.36183 0.19465 0.0
H745 H 0.09886 0.38149 0.24118 0.0
H746 H 0.13325 0.39771 0.19407 0.0
S747 S 0.11895 0.29316 0.22942 0.0
N748 N 0.10001 0.30159 0.25289 0.0
N749 N 0.13689 0.31919 0.20183 0.0
C750 C 0.12803 0.33633 0.21131 0.0
C751 C 0.10777 0.32669 0.23871 0.0
C752 C 0.69674 0.76079 0.23735 0.0
C753 C 0.67212 0.74556 0.25631 0.0
C754 C 0.69984 0.77924 0.20999 0.0
C755 C 0.67857 0.78351 0.20048 0.0
H756 H 0.71369 0.75812 0.24315 0.0
H757 H 0.71888 0.78977 0.19539 0.0
S758 S 0.6104 0.75013 0.24241 0.0
N759 N 0.62627 0.7372 0.26419 0.0
N760 N 0.63239 0.77169 0.21263 0.0
C761 C 0.6542 0.76924 0.21982 0.0
C762 C 0.65089 0.75031 0.24763 0.0
C763 C 0.29833 0.94313 0.23744 0.0
C764 C 0.28418 0.95379 0.25517 0.0
C765 C 0.28538 0.92227 0.21167 0.0
C766 C 0.25778 0.9111 0.20294 0.0
H767 H 0.31982 0.95174 0.24233 0.0
H768 H 0.29736 0.91564 0.19726 0.0
S769 S 0.21069 0.92919 0.24484 0.0
N770 N 0.24014 0.94939 0.26482 0.0
N771 N 0.2162 0.91061 0.21592 0.0
C772 C 0.24297 0.92027 0.22204 0.0
C773 C 0.25609 0.94155 0.2482 0.0
C774 C 0.71144 0.94296 0.24758 0.0
C775 C 0.69371 0.95184 0.25825 0.0
C776 C 0.70449 0.92376 0.21997 0.0
C777 C 0.67962 0.91284 0.20184 0.0
H778 H 0.73116 0.95129 0.26017 0.0
H779 H 0.71928 0.91853 0.21155 0.0
S780 S 0.62499 0.92735 0.221 0.0
N781 N 0.64932 0.94672 0.24986 0.0
N782 N 0.63637 0.91063 0.19773 0.0
C783 C 0.66114 0.92048 0.21319 0.0
C784 C 0.66813 0.93995 0.24149 0.0
C785 C 0.09791 0.74905 0.24719 0.0
C786 C 0.10797 0.73348 0.26276 0.0
C787 C 0.11202 0.76798 0.21965 0.0
C788 C 0.13689 0.77234 0.20655 0.0
H789 H 0.07873 0.74638 0.2559 0.0
H790 H 0.10298 0.77876 0.20766 0.0
S791 S 0.17298 0.73806 0.23835 0.0
N792 N 0.1453 0.72472 0.26338 0.0
N793 N 0.17145 0.76028 0.21135 0.0
C794 C 0.14772 0.7577 0.22233 0.0
C795 C 0.13334 0.73826 0.2504 0.0
C796 C 0.30056 0.4051 0.25183 0.0
C797 C 0.30512 0.3837 0.26136 0.0
C798 C 0.28418 0.40269 0.22238 0.0
C799 C 0.27177 0.37884 0.20119 0.0
H800 H 0.31004 0.42417 0.26691 0.0
H801 H 0.28211 0.42002 0.21531 0.0
S802 S 0.27519 0.31604 0.21534 0.0
N803 N 0.29429 0.33713 0.24765 0.0
N804 N 0.26367 0.33281 0.19249 0.0
C805 C 0.27529 0.35694 0.21095 0.0
C806 C 0.29189 0.3593 0.24092 0.0
C807 C 0.28059 0.37421 0.43543 0.0
C808 C 0.29124 0.358 0.42392 0.0
C809 C 0.26053 0.36495 0.46208 0.0
C810 C 0.25043 0.33919 0.4785 0.0
H811 H 0.28809 0.39449 0.42417 0.0
H812 H 0.25379 0.37859 0.47102 0.0
S813 S 0.26986 0.28787 0.45685 0.0
N814 N 0.28885 0.3141 0.42995 0.0
N815 N 0.25124 0.29683 0.48016 0.0
C816 C 0.26006 0.32229 0.46643 0.0
C817 C 0.28039 0.33163 0.43911 0.0
C818 C 0.69211 0.94605 0.43828 0.0
C819 C 0.71629 0.96082 0.41831 0.0
C820 C 0.68949 0.92793 0.46585 0.0
C821 C 0.71082 0.92353 0.47455 0.0
H822 H 0.67518 0.94888 0.43314 0.0
H823 H 0.67078 0.91773 0.48118 0.0
S824 S 0.77787 0.95562 0.42965 0.0
N825 N 0.76172 0.96851 0.40848 0.0
N826 N 0.75653 0.93467 0.46045 0.0
C827 C 0.73472 0.93732 0.45418 0.0
C828 C 0.73754 0.95591 0.42615 0.0
C829 C 0.0893 0.75925 0.43605 0.0
C830 C 0.10316 0.74813 0.41865 0.0
C831 C 0.10236 0.78003 0.46191 0.0
C832 C 0.12982 0.79067 0.47103 0.0
H833 H 0.06793 0.75109 0.4308 0.0
H834 H 0.09059 0.78704 0.47601 0.0
S835 S 0.17617 0.77116 0.43026 0.0
N836 N 0.14678 0.75143 0.40989 0.0
N837 N 0.17096 0.79012 0.45888 0.0
C838 C 0.14435 0.781 0.45233 0.0
C839 C 0.1311 0.75978 0.42611 0.0
C840 C 0.38363 0.0975 0.7669 0.0
C841 C 0.35866 0.08686 0.74889 0.0
C842 C 0.39071 0.11636 0.7951 0.0
C843 C 0.37324 0.12547 0.80598 0.0
H844 H 0.39732 0.09042 0.76017 0.0
H845 H 0.40958 0.12317 0.80936 0.0
S846 S 0.30688 0.10615 0.76519 0.0
N847 N 0.31752 0.0888 0.74196 0.0
N848 N 0.33074 0.12376 0.79535 0.0
C849 C 0.34893 0.11614 0.78701 0.0
C850 C 0.34165 0.09692 0.75841 0.0
C851 C 0.95743 0.28758 0.75935 0.0
C852 C 0.94708 0.30267 0.74313 0.0
C853 C 0.94333 0.26875 0.78701 0.0
C854 C 0.91818 0.26401 0.79956 0.0
H855 H 0.97683 0.29056 0.75109 0.0
H856 H 0.95258 0.25835 0.79951 0.0
S857 S 0.88131 0.29698 0.76592 0.0
N858 N 0.90919 0.31057 0.74129 0.0
N859 N 0.88308 0.27521 0.79351 0.0
C860 C 0.90708 0.27816 0.7831 0.0
C861 C 0.92145 0.2975 0.75493 0.0
C862 C 0.75323 0.63178 0.75466 0.0
C863 C 0.74849 0.65303 0.74496 0.0
C864 C 0.76965 0.63441 0.78417 0.0
C865 C 0.78189 0.65832 0.80525 0.0
H866 H 0.7439 0.61269 0.73966 0.0
H867 H 0.77191 0.61721 0.79135 0.0
S868 S 0.77786 0.72075 0.79067 0.0
N869 N 0.75889 0.69949 0.75842 0.0
N870 N 0.7896 0.70424 0.81367 0.0
C871 C 0.77816 0.68006 0.79532 0.0
C872 C 0.76153 0.67748 0.7653 0.0
C873 C 0.77312 0.70164 0.56652 0.0
C874 C 0.76277 0.67574 0.58288 0.0
C875 C 0.79295 0.71068 0.53949 0.0
C876 C 0.80347 0.69436 0.52813 0.0
H877 H 0.7652 0.71464 0.57371 0.0
H878 H 0.79961 0.73031 0.52667 0.0
S879 S 0.78508 0.62605 0.56441 0.0
N880 N 0.76617 0.63478 0.5874 0.0
N881 N 0.80306 0.65177 0.53642 0.0
C882 C 0.79424 0.66905 0.54534 0.0
C883 C 0.77398 0.65973 0.57269 0.0
C884 C 0.31896 0.08191 0.57883 0.0
C885 C 0.34073 0.07844 0.58892 0.0
C886 C 0.32184 0.10054 0.5518 0.0
C887 C 0.3466 0.11649 0.53368 0.0
H888 H 0.29924 0.06981 0.59148 0.0
H889 H 0.30426 0.10157 0.54395 0.0
S890 S 0.41051 0.11721 0.55087 0.0
N891 N 0.38849 0.09413 0.57935 0.0
N892 N 0.39371 0.12893 0.52869 0.0
C893 C 0.36879 0.11407 0.54421 0.0
C894 C 0.36592 0.09514 0.57171 0.0
C895 C 0.92688 0.27745 0.5781 0.0
C896 C 0.95447 0.28823 0.5869 0.0
C897 C 0.91349 0.25625 0.55293 0.0
C898 C 0.9272 0.24508 0.53549 0.0
H899 H 0.91559 0.28588 0.59009 0.0
H900 H 0.89277 0.24968 0.54555 0.0
S901 S 0.99847 0.26377 0.55098 0.0
N902 N 0.9943 0.28439 0.5779 0.0
N903 N 0.96903 0.24458 0.53042 0.0
C904 C 0.95425 0.2545 0.54535 0.0
C905 C 0.96791 0.27604 0.57109 0.0
C906 C 0.37707 0.27387 0.58107 0.0
C907 C 0.35989 0.28352 0.59134 0.0
C908 C 0.36983 0.25464 0.55345 0.0
C909 C 0.3452 0.24445 0.5349 0.0
H910 H 0.3966 0.28163 0.59397 0.0
H911 H 0.38426 0.24883 0.54534 0.0
S912 S 0.29199 0.26123 0.55295 0.0
N913 N 0.31629 0.28 0.58215 0.0
N914 N 0.30272 0.24379 0.53003 0.0
C915 C 0.32723 0.25287 0.54589 0.0
C916 C 0.33454 0.27239 0.5742 0.0
C917 C 0.76483 0.08414 0.58051 0.0
C918 C 0.77526 0.06912 0.59676 0.0
C919 C 0.7789 0.10298 0.55286 0.0
C920 C 0.80407 0.10779 0.54032 0.0
H921 H 0.74541 0.08109 0.58876 0.0
H922 H 0.76959 0.11333 0.54036 0.0
S923 S 0.84116 0.07508 0.57409 0.0
N924 N 0.81326 0.06141 0.59869 0.0
N925 N 0.8393 0.09677 0.54644 0.0
C926 C 0.81525 0.09372 0.55682 0.0
C927 C 0.80093 0.07437 0.585 0.0
C928 C 0.96085 0.69609 0.5744 0.0
C929 C 0.97226 0.71985 0.596 0.0
C930 C 0.94465 0.69314 0.54456 0.0
C931 C 0.93895 0.71367 0.53513 0.0
H932 H 0.96492 0.67986 0.58001 0.0
H933 H 0.93697 0.67482 0.52816 0.0
S934 S 0.9622 0.77907 0.58365 0.0
N935 N 0.97529 0.7638 0.60658 0.0
N936 N 0.94504 0.75801 0.5503 0.0
C937 C 0.94931 0.73704 0.55705 0.0
C938 C 0.96595 0.7402 0.58742 0.0
C939 C 0.94714 0.66888 0.77201 0.0
C940 C 0.95792 0.69513 0.75654 0.0
C941 C 0.92701 0.65949 0.79865 0.0
C942 C 0.91662 0.6758 0.81049 0.0
H943 H 0.95493 0.65584 0.76443 0.0
H944 H 0.92005 0.6396 0.81088 0.0
S945 S 0.93606 0.74498 0.77645 0.0
N946 N 0.95505 0.73644 0.75328 0.0
N947 N 0.91756 0.71877 0.80355 0.0
C948 C 0.92625 0.70148 0.79412 0.0
C949 C 0.94683 0.71116 0.76716 0.0
C950 C 0.35993 0.27897 0.77216 0.0
C951 C 0.38401 0.29352 0.75195 0.0
C952 C 0.35745 0.26115 0.80007 0.0
C953 C 0.37881 0.25684 0.80889 0.0
H954 H 0.34297 0.28174 0.76693 0.0
H955 H 0.3388 0.2511 0.81555 0.0
S956 S 0.44567 0.2885 0.76359 0.0
N957 N 0.42942 0.30115 0.74213 0.0
N958 N 0.42447 0.26785 0.79471 0.0
C959 C 0.40263 0.27042 0.78832 0.0
C960 C 0.40531 0.28872 0.75995 0.0
C961 C 0.79554 0.09399 0.76226 0.0
C962 C 0.76805 0.08343 0.75313 0.0
C963 C 0.80891 0.11521 0.78742 0.0
C964 C 0.79528 0.12658 0.80453 0.0
H965 H 0.80676 0.0854 0.75052 0.0
H966 H 0.82955 0.12163 0.79505 0.0
S967 S 0.72428 0.10848 0.78814 0.0
N968 N 0.7284 0.0877 0.76148 0.0
N969 N 0.75363 0.12748 0.809 0.0
C970 C 0.76832 0.11735 0.79439 0.0
C971 C 0.75469 0.09582 0.76863 0.0
C972 C 0.10177 0.35525 0.03424 0.0
C973 C 0.10088 0.37909 0.02703 0.0
C974 C 0.1236 0.35659 0.05306 0.0
C975 C 0.14517 0.38177 0.0661 0.0
H976 H 0.08473 0.33518 0.02696 0.0
H977 H 0.12226 0.33748 0.06053 0.0
S978 S 0.1535 0.45037 0.05234 0.0
N979 N 0.12462 0.42892 0.03176 0.0
N980 N 0.16504 0.43126 0.0686 0.0
C981 C 0.1454 0.40594 0.05706 0.0
C982 C 0.1234 0.40465 0.03717 0.0
C983 C 0.71325 0.76401 0.05143 0.0
C984 C 0.69003 0.74569 0.03148 0.0
C985 C 0.71458 0.78599 0.07033 0.0
C986 C 0.69249 0.79015 0.07064 0.0
H987 H 0.72999 0.76053 0.05402 0.0
H988 H 0.73185 0.79809 0.0878 0.0
S989 S 0.62883 0.75082 0.01837 0.0
N990 N 0.64612 0.73575 0.00893 0.0
N991 N 0.6482 0.77636 0.04599 0.0
C992 C 0.67032 0.77372 0.04809 0.0
C993 C 0.66913 0.75154 0.02825 0.0
C994 C 0.28918 0.95586 0.04914 0.0
C995 C 0.3087 0.95151 0.03296 0.0
C996 C 0.26717 0.93483 0.06823 0.0
C997 C 0.26412 0.90873 0.07277 0.0
H998 H 0.29155 0.97607 0.04838 0.0
H999 H 0.25384 0.93981 0.08247 0.0
S1000 S 0.30795 0.88575 0.03281 0.0
N1001 N 0.32175 0.91803 0.01938 0.0
N1002 N 0.28116 0.87901 0.0571 0.0
C1003 C 0.2823 0.90344 0.05461 0.0
C1004 C 0.30444 0.92474 0.03434 0.0
C1005 C 0.35577 0.07638 0.95829 0.0
C1006 C 0.37954 0.07725 0.96968 0.0
C1007 C 0.35682 0.09927 0.94203 0.0
C1008 C 0.38174 0.1239 0.93577 0.0
H1009 H 0.33624 0.05741 0.96045 0.0
H1010 H 0.33821 0.09678 0.93111 0.0
S1011 S 0.44967 0.13768 0.96288 0.0
N1012 N 0.42857 0.10577 0.97645 0.0
N1013 N 0.43057 0.14827 0.94432 0.0
C1014 C 0.40546 0.12565 0.94911 0.0
C1015 C 0.40437 0.10248 0.96641 0.0
C1016 C 0.95128 0.29664 0.96814 0.0
C1017 C 0.97819 0.30302 0.96273 0.0
C1018 C 0.92936 0.2744 0.95023 0.0
C1019 C 0.93362 0.25755 0.92691 0.0
H1020 H 0.94728 0.31002 0.98424 0.0
H1021 H 0.90944 0.27199 0.95201 0.0
S1022 S 0.99925 0.26219 0.90919 0.0
N1023 N 1.00722 0.28827 0.93641 0.0
N1024 N 0.96601 0.24631 0.90338 0.0
C1025 C 0.95997 0.26195 0.92447 0.0
C1026 C 0.9823 0.28481 0.94206 0.0
C1027 C 0.7419 0.65158 0.97006 0.0
C1028 C 0.74177 0.67631 0.96869 0.0
C1029 C 0.76252 0.6493 0.95307 0.0
C1030 C 0.78401 0.67181 0.93491 0.0
H1031 H 0.72494 0.63332 0.98191 0.0
H1032 H 0.76033 0.6292 0.95139 0.0
S1033 S 0.79543 0.74214 0.92856 0.0
N1034 N 0.76678 0.72459 0.95136 0.0
N1035 N 0.80547 0.72024 0.92005 0.0
C1036 C 0.78542 0.69723 0.93643 0.0
C1037 C 0.76429 0.69948 0.95307 0.0
C1038 C 0.93232 0.63494 0.96673 0.0
C1039 C 0.95514 0.66048 0.97643 0.0
C1040 C 0.91035 0.63355 0.94785 0.0
C1041 C 0.9101 0.65757 0.93913 0.0
H1042 H 0.93244 0.61614 0.97107 0.0
H1043 H 0.89461 0.61383 0.93741 0.0
S1044 S 0.96306 0.72899 0.96326 0.0
N1045 N 0.97479 0.70998 0.97918 0.0
N1046 N 0.93332 0.70722 0.94493 0.0
C1047 C 0.93161 0.68287 0.95178 0.0
C1048 C 0.9542 0.68437 0.97005 0.0
C1049 C 0.38726 0.28963 0.97847 0.0
C1050 C 0.36486 0.29326 0.9767 0.0
C1051 C 0.38729 0.26824 0.95947 0.0
C1052 C 0.36471 0.24956 0.93876 0.0
H1053 H 0.40567 0.30461 0.99221 0.0
H1054 H 0.40595 0.26795 0.95817 0.0
S1055 S 0.29917 0.24689 0.93136 0.0
N1056 N 0.31817 0.27402 0.9569 0.0
N1057 N 0.31812 0.23367 0.9219 0.0
C1058 C 0.34119 0.2512 0.94023 0.0
C1059 C 0.34132 0.27318 0.95887 0.0
C1060 C 0.76542 0.08218 0.95845 0.0
C1061 C 0.7459 0.08653 0.97463 0.0
C1062 C 0.78738 0.10319 0.93927 0.0
C1063 C 0.79038 0.12926 0.93467 0.0
H1064 H 0.76308 0.06198 0.95926 0.0
H1065 H 0.80069 0.0982 0.925 0.0
S1066 S 0.7465 0.15221 0.97452 0.0
N1067 N 0.73279 0.11998 0.9881 0.0
N1068 N 0.77328 0.15894 0.9502 0.0
C1069 C 0.7722 0.13454 0.9528 0.0
C1070 C 0.7501 0.11328 0.97317 0.0
C1071 C 0.69914 0.96182 0.04921 0.0
C1072 C 0.67533 0.96092 0.03794 0.0
C1073 C 0.69814 0.93896 0.0655 0.0
C1074 C 0.67324 0.91436 0.07188 0.0
H1075 H 0.71866 0.98079 0.04696 0.0
H1076 H 0.71678 0.94148 0.07637 0.0
S1077 S 0.60522 0.90053 0.04514 0.0
N1078 N 0.62628 0.93241 0.03143 0.0
N1079 N 0.62438 0.88997 0.06359 0.0
C1080 C 0.64948 0.91257 0.05864 0.0
C1081 C 0.65052 0.93571 0.04133 0.0
C1082 C 0.1035 0.74171 0.03727 0.0
C1083 C 0.07648 0.73489 0.04317 0.0
C1084 C 0.12534 0.76376 0.05551 0.0
C1085 C 0.12092 0.78 0.07972 0.0
H1086 H 0.10768 0.72881 0.02041 0.0
H1087 H 0.14536 0.76647 0.05321 0.0
S1088 S 0.05497 0.77423 0.09912 0.0
N1089 N 0.04718 0.74871 0.07097 0.0
N1090 N 0.08825 0.79031 0.10469 0.0
C1091 C 0.09444 0.77523 0.08274 0.0
C1092 C 0.07219 0.75255 0.06476 0.0
C1093 C 0.29157 0.3413 0.05232 0.0
C1094 C 0.31407 0.36463 0.0369 0.0
C1095 C 0.27058 0.34299 0.06888 0.0
C1096 C 0.27137 0.36813 0.07102 0.0
H1097 H 0.29083 0.32186 0.05326 0.0
H1098 H 0.25495 0.32511 0.08314 0.0
S1099 S 0.32439 0.43467 0.03219 0.0
N1100 N 0.33454 0.4131 0.02194 0.0
N1101 N 0.29541 0.41633 0.05411 0.0
C1102 C 0.29264 0.39109 0.05338 0.0
C1103 C 0.31394 0.38934 0.0361 0.0
C1104 C 0.76665 0.68661 0.36867 0.0
C1105 C 0.76614 0.71063 0.36118 0.0
C1106 C 0.78857 0.68776 0.387 0.0
C1107 C 0.81065 0.71293 0.39929 0.0
H1108 H 0.74928 0.66661 0.36198 0.0
H1109 H 0.78696 0.66857 0.39475 0.0
S1110 S 0.82 0.78188 0.38464 0.0
N1111 N 0.7907 0.76054 0.36489 0.0
N1112 N 0.83131 0.76254 0.40083 0.0
C1113 C 0.81121 0.73722 0.38995 0.0
C1114 C 0.7891 0.73611 0.37056 0.0
C1115 C 0.38001 0.09642 0.38418 0.0
C1116 C 0.35706 0.07868 0.36341 0.0
C1117 C 0.38129 0.11817 0.4036 0.0
C1118 C 0.3594 0.12265 0.40364 0.0
H1119 H 0.39652 0.09261 0.38704 0.0
H1120 H 0.39831 0.1298 0.42162 0.0
S1121 S 0.29677 0.08521 0.34895 0.0
N1122 N 0.31386 0.06992 0.33957 0.0
N1123 N 0.31579 0.11001 0.37767 0.0
C1124 C 0.33761 0.10692 0.38023 0.0
C1125 C 0.33649 0.085 0.35984 0.0
C1126 C 0.95715 0.28951 0.38165 0.0
C1127 C 0.9769 0.28527 0.36596 0.0
C1128 C 0.93505 0.26843 0.40056 0.0
C1129 C 0.93212 0.24241 0.40536 0.0
H1130 H 0.95941 0.30966 0.38065 0.0
H1131 H 0.92156 0.27334 0.4145 0.0
S1132 S 0.9766 0.21975 0.36674 0.0
N1133 N 0.99035 0.25198 0.35316 0.0
N1134 N 0.94955 0.21289 0.39052 0.0
C1135 C 0.95055 0.23724 0.38769 0.0
C1136 C 0.9728 0.25857 0.36762 0.0
C1137 C 0.07107 0.43514 0.29718 0.0
C1138 C 0.04602 0.41028 0.30159 0.0
C1139 C 0.07252 0.45806 0.28004 0.0
C1140 C 0.04892 0.45725 0.26782 0.0
H1141 H 0.08982 0.43622 0.3045 0.0
H1142 H 0.09235 0.47567 0.2737 0.0
S1143 S 0.9782 0.39853 0.27766 0.0
N1144 N 0.99696 0.38731 0.29558 0.0
N1145 N 0.99971 0.43044 0.26458 0.0
C1146 C 1.0237 0.43338 0.27512 0.0
C1147 C 1.02224 0.40988 0.29161 0.0
C1148 C 0.64733 0.61948 0.27484 0.0
C1149 C 0.64258 0.63599 0.29818 0.0
C1150 C 0.62585 0.59703 0.25691 0.0
C1151 C 0.5988 0.59058 0.26095 0.0
H1152 H 0.66791 0.6247 0.269 0.0
H1153 H 0.63069 0.58634 0.23696 0.0
S1154 S 0.57489 0.62436 0.32318 0.0
N1155 N 0.60823 0.64155 0.32851 0.0
N1156 N 0.56809 0.60022 0.29318 0.0
C1157 C 0.59348 0.60518 0.28668 0.0
C1158 C 0.61534 0.62779 0.30556 0.0
C1159 C 0.42858 0.03122 0.28262 0.0
C1160 C 0.40713 1.00808 0.29991 0.0
C1161 C 0.44998 0.03008 0.26639 0.0
C1162 C 0.45069 1.00568 0.26643 0.0
H1163 H 0.42818 0.05001 0.28004 0.0
H1164 H 0.46471 0.04762 0.25074 0.0
S1165 S 0.40122 0.94027 0.31124 0.0
N1166 N 0.38955 0.96089 0.31933 0.0
N1167 N 0.4294 0.95862 0.28771 0.0
C1168 C 0.4306 0.98312 0.286 0.0
C1169 C 0.40888 0.98433 0.30296 0.0
C1170 C 0.5992 0.96863 0.30134 0.0
C1171 C 0.62124 0.99418 0.31265 0.0
C1172 C 0.57741 0.96709 0.28179 0.0
C1173 C 0.57657 0.99092 0.27387 0.0
H1174 H 0.5999 0.95008 0.30488 0.0
H1175 H 0.56239 0.94751 0.27018 0.0
S1176 S 0.62743 0.06211 0.30183 0.0
N1177 N 0.63953 0.04335 0.31753 0.0
N1178 N 0.59839 0.04028 0.28194 0.0
C1179 C 0.59725 1.0161 0.28801 0.0
C1180 C 0.61965 1.01778 0.30703 0.0
C1181 C 0.05156 0.62009 0.3116 0.0
C1182 C 0.02959 0.62441 0.3096 0.0
C1183 C 0.05128 0.59869 0.29224 0.0
C1184 C 0.02882 0.58069 0.2709 0.0
H1185 H 0.06991 0.63454 0.32587 0.0
H1186 H 0.06969 0.59791 0.2912 0.0
S1187 S 0.9642 0.57982 0.2626 0.0
N1188 N 0.98331 0.60645 0.28885 0.0
N1189 N 0.98266 0.56603 0.25321 0.0
C1190 C 1.00563 0.58293 0.27213 0.0
C1191 C 1.00609 0.60495 0.29114 0.0
C1192 C 0.41209 0.44377 0.30388 0.0
C1193 C 0.41085 0.41849 0.30803 0.0
C1194 C 0.43341 0.46566 0.28448 0.0
C1195 C 0.45462 0.46326 0.26975 0.0
H1196 H 0.39547 0.44594 0.31322 0.0
H1197 H 0.43212 0.48361 0.27847 0.0
S1198 S 0.46288 0.40295 0.27803 0.0
N1199 N 0.43406 0.39343 0.2991 0.0
N1200 N 0.47444 0.43474 0.26405 0.0
C1201 C 0.45482 0.43904 0.27686 0.0
C1202 C 0.43283 0.41658 0.29554 0.0
C1203 C 0.3648 0.29242 0.38069 0.0
C1204 C 0.34106 0.29192 0.3701 0.0
C1205 C 0.36355 0.26957 0.39739 0.0
C1206 C 0.33848 0.24545 0.40486 0.0
H1207 H 0.38447 0.31108 0.37754 0.0
H1208 H 0.3822 0.27177 0.40768 0.0
S1209 S 0.27048 0.23303 0.38089 0.0
N1210 N 0.29181 0.26444 0.36586 0.0
N1211 N 0.28948 0.22205 0.39874 0.0
C1212 C 0.31472 0.2441 0.39247 0.0
C1213 C 0.316 0.26719 0.37477 0.0
C1214 C 0.77068 0.07568 0.37159 0.0
C1215 C 0.74378 0.06933 0.37713 0.0
C1216 C 0.79264 0.09781 0.38958 0.0
C1217 C 0.78846 0.1146 0.41311 0.0
H1218 H 0.77462 0.06234 0.35532 0.0
H1219 H 0.81254 0.10018 0.38766 0.0
S1220 S 0.72292 0.11005 0.43126 0.0
N1221 N 0.71486 0.08407 0.40382 0.0
N1222 N 0.75616 0.12583 0.43701 0.0
C1223 C 0.76213 0.11025 0.41571 0.0
C1224 C 0.73975 0.08748 0.39804 0.0
C1225 C 0.95899 0.67347 0.38855 0.0
C1226 C 0.98096 0.69666 0.37205 0.0
C1227 C 0.93773 0.6749 0.40475 0.0
C1228 C 0.93768 0.69964 0.40545 0.0
H1229 H 0.95885 0.65437 0.39057 0.0
H1230 H 0.92257 0.65724 0.41983 0.0
S1231 S 0.98877 0.76546 0.36294 0.0
N1232 N 0.99981 0.74438 0.35422 0.0
N1233 N 0.96022 0.74718 0.38577 0.0
C1234 C 0.95834 0.72234 0.38668 0.0
C1235 C 0.97991 0.72084 0.36975 0.0
C1236 C 0.45466 0.06778 0.70679 0.0
C1237 C 0.43157 0.04218 0.6979 0.0
C1238 C 0.47674 0.06925 0.7255 0.0
C1239 C 0.47683 0.04525 0.73487 0.0
H1240 H 0.45472 0.08661 0.70193 0.0
H1241 H 0.4927 0.08908 0.73535 0.0
S1242 S 0.42312 0.97361 0.71291 0.0
N1243 N 0.41148 0.99259 0.69657 0.0
N1244 N 0.45314 0.99549 0.73049 0.0
C1245 C 0.45502 0.01984 0.72298 0.0
C1246 C 0.43233 0.01827 0.7049 0.0
C1247 C 1.00198 0.41581 0.69487 0.0
C1248 C 1.02439 0.41218 0.69666 0.0
C1249 C 1.00191 0.43713 0.71397 0.0
C1250 C 1.02442 0.45574 0.7348 0.0
H1251 H 0.98361 0.40088 0.68102 0.0
H1252 H 0.98323 0.4374 0.71523 0.0
S1253 S 0.08998 0.45845 0.74228 0.0
N1254 N 0.07105 0.4314 0.71658 0.0
N1255 N 0.07099 0.47161 0.75179 0.0
C1256 C 0.04797 0.45412 0.73336 0.0
C1257 C 0.04789 0.43221 0.7146 0.0
C1258 C 0.62312 0.62344 0.71466 0.0
C1259 C 0.64258 0.61908 0.69829 0.0
C1260 C 0.60119 0.60241 0.73386 0.0
C1261 C 0.59816 0.57632 0.73829 0.0
H1262 H 0.62551 0.64365 0.714 0.0
H1263 H 0.58796 0.60741 0.7483 0.0
S1264 S 0.64174 0.55327 0.69773 0.0
N1265 N 0.65551 0.58555 0.68434 0.0
N1266 N 0.61508 0.54656 0.72227 0.0
C1267 C 0.61624 0.57101 0.71992 0.0
C1268 C 0.63831 0.59229 0.69954 0.0
C1269 C 0.68969 0.74367 0.62217 0.0
C1270 C 0.71329 0.74463 0.63452 0.0
C1271 C 0.69089 0.76672 0.60617 0.0
C1272 C 0.71582 0.79159 0.60118 0.0
H1273 H 0.67021 0.72456 0.62341 0.0
H1274 H 0.67249 0.76422 0.59447 0.0
S1275 S 0.78328 0.80563 0.63109 0.0
N1276 N 0.7621 0.77343 0.64351 0.0
N1277 N 0.76442 0.81625 0.61188 0.0
C1278 C 0.73931 0.79338 0.61545 0.0
C1279 C 0.73805 0.77004 0.63246 0.0
C1280 C 0.31482 0.95259 0.60769 0.0
C1281 C 0.30963 0.9682 0.63207 0.0
C1282 C 0.29359 0.93032 0.58919 0.0
C1283 C 0.26635 0.92313 0.59374 0.0
H1284 H 0.33552 0.95841 0.60147 0.0
H1285 H 0.29873 0.92036 0.5685 0.0
S1286 S 0.24134 0.95416 0.65882 0.0
N1287 N 0.2747 0.97193 0.66398 0.0
N1288 N 0.23503 0.93095 0.6276 0.0
C1289 C 0.26063 0.93675 0.62048 0.0
C1290 C 0.28224 0.95918 0.63991 0.0
C1291 C 0.07527 0.31683 0.63597 0.0
C1292 C 0.07559 0.34179 0.63573 0.0
C1293 C 0.09602 0.31468 0.6191 0.0
C1294 C 0.11808 0.33756 0.60221 0.0
H1295 H 0.0579 0.29836 0.64677 0.0
H1296 H 0.09355 0.29451 0.61647 0.0
S1297 S 0.13066 0.40844 0.59924 0.0
N1298 N 0.10152 0.39055 0.6209 0.0
N1299 N 0.14042 0.38644 0.58981 0.0
C1300 C 0.11985 0.3631 0.60491 0.0
C1301 C 0.09861 0.36522 0.62142 0.0
C1302 C 0.26661 0.30123 0.63586 0.0
C1303 C 0.28885 0.32689 0.64643 0.0
C1304 C 0.2447 0.2995 0.61641 0.0
C1305 C 0.24393 0.32328 0.60787 0.0
H1306 H 0.26722 0.28266 0.63989 0.0
H1307 H 0.22949 0.27977 0.60537 0.0
S1308 S 0.29534 0.39482 0.63377 0.0
N1309 N 0.30743 0.37619 0.64994 0.0
N1310 N 0.26607 0.37278 0.61455 0.0
C1311 C 0.26484 0.34864 0.62127 0.0
C1312 C 0.28737 0.35049 0.64017 0.0
C1313 C 0.71994 0.9559 0.64439 0.0
C1314 C 0.69759 0.95962 0.64301 0.0
C1315 C 0.71979 0.93453 0.62509 0.0
C1316 C 0.6971 0.91599 0.60447 0.0
H1317 H 0.73843 0.97078 0.65805 0.0
H1318 H 0.73841 0.93417 0.62352 0.0
S1319 S 0.63162 0.91356 0.5981 0.0
N1320 N 0.65082 0.94058 0.62371 0.0
N1321 N 0.65045 0.90028 0.58814 0.0
C1322 C 0.67363 0.91771 0.60633 0.0
C1323 C 0.67393 0.93966 0.62529 0.0
C1324 C 0.0978 0.74727 0.6254 0.0
C1325 C 0.07814 0.75179 0.64078 0.0
C1326 C 0.11997 0.76813 0.60635 0.0
C1327 C 0.12304 0.79417 0.60107 0.0
H1328 H 0.0954 0.72707 0.62672 0.0
H1329 H 0.13341 0.76301 0.5927 0.0
S1330 S 0.07887 0.81751 0.63886 0.0
N1331 N 0.06496 0.78537 0.65289 0.0
N1332 N 0.10588 0.82404 0.61523 0.0
C1333 C 0.10472 0.79963 0.61847 0.0
C1334 C 0.0824 0.77854 0.63871 0.0
C1335 C 0.03119 0.62743 0.7148 0.0
C1336 C 1.00725 0.62647 0.70406 0.0
C1337 C 0.03038 0.6047 0.73117 0.0
C1338 C 1.00555 0.58017 0.73819 0.0
H1339 H 0.05069 0.64636 0.71204 0.0
H1340 H 0.04916 0.60727 0.74157 0.0
S1341 S 0.93721 0.56623 0.71304 0.0
N1342 N 0.95811 0.59799 0.69876 0.0
N1343 N 0.95658 0.55578 0.7311 0.0
C1344 C 0.98162 0.57832 0.72552 0.0
C1345 C 0.98247 0.60132 0.70811 0.0
C1346 C 0.40672 0.41809 0.73346 0.0
C1347 C 0.41182 0.40199 0.70985 0.0
C1348 C 0.42798 0.44059 0.75159 0.0
C1349 C 0.45515 0.44751 0.74743 0.0
H1350 H 0.38603 0.41251 0.73937 0.0
H1351 H 0.42289 0.45095 0.77174 0.0
S1352 S 0.47993 0.41492 0.68452 0.0
N1353 N 0.44659 0.3973 0.67918 0.0
N1354 N 0.48635 0.43877 0.71482 0.0
C1355 C 0.4608 0.43333 0.72142 0.0
C1356 C 0.43916 0.41065 0.70238 0.0
C1357 C 0.62533 1.00759 0.72112 0.0
C1358 C 0.64749 0.03093 0.70517 0.0
C1359 C 0.60431 1.00908 0.73795 0.0
C1360 C 0.6047 0.03402 0.73979 0.0
H1361 H 0.62488 0.98829 0.72223 0.0
H1362 H 0.58896 0.99123 0.75255 0.0
S1363 S 0.65672 0.10048 0.69965 0.0
N1364 N 0.6672 0.07917 0.6895 0.0
N1365 N 0.62801 0.08205 0.72211 0.0
C1366 C 0.62563 0.05697 0.72169 0.0
C1367 C 0.64696 0.05542 0.70417 0.0
loop_
_geom_bond_atom_site_label_1
_geom_bond_atom_site_label_2
_geom_bond_distance
_geom_bond_site_symmetry_2
_ccdc_geom_bond_type
Co0 O1 2.216 . S
Co0 O2 2.091 . S
Co0 O4 2.004 1_554 S
Co0 O10 2.021 . S
Co0 O12 2.137 1_454 S
Co0 O13 2.244 1_455 S
O1 Co0 2.216 . S
O1 C8 1.247 . S
O2 Co0 2.091 . S
O2 C8 1.261 . S
C3 O12 1.247 . S
C3 O13 1.272 1_556 S
O4 Co0 2.004 1_556 S
O4 C9 1.259 1_455 S
Co5 O6 2.061 1_554 S
Co5 O11 2.052 . S
Co5 O13 2.135 . S
O6 Co5 2.061 1_556 S
O6 C9 1.235 . S
C7 O10 1.238 1_655 S
C7 O11 1.241 . S
C8 O1 1.247 . S
C8 O2 1.261 . S
C9 O4 1.259 1_655 S
C9 O6 1.235 . S
O10 Co0 2.021 . S
O10 C7 1.238 1_455 S
O11 Co5 2.052 . S
O11 C7 1.241 . S
O12 Co0 2.137 1_656 S
O12 C3 1.247 . S
O13 Co0 2.244 1_655 S
O13 C3 1.272 1_554 S
O13 Co5 2.135 . S
Co14 O15 2.216 1_554 S
Co14 O16 2.091 . S
Co14 O18 2.004 . S
Co14 O24 2.021 1_554 S
Co14 O26 2.137 . S
Co14 O27 2.244 . S
O15 Co14 2.216 1_556 S
O15 C22 1.247 . S
O16 Co14 2.091 . S
O16 C22 1.261 1_554 S
C17 O26 1.247 . S
C17 O27 1.272 . S
O18 Co14 2.004 . S
O18 C23 1.259 . S
Co19 O20 2.061 . S
Co19 O25 2.052 1_554 S
Co19 O27 2.135 . S
O20 Co19 2.061 . S
O20 C23 1.235 . S
C21 O24 1.238 . S
C21 O25 1.241 . S
C22 O15 1.247 . S
C22 O16 1.261 1_556 S
C23 O18 1.259 . S
C23 O20 1.235 . S
O24 Co14 2.021 1_556 S
O24 C21 1.238 . S
O25 Co19 2.052 1_556 S
O25 C21 1.241 . S
O26 Co14 2.137 . S
O26 C17 1.247 . S
O27 Co14 2.244 . S
O27 C17 1.272 . S
O27 Co19 2.135 . S
Co28 O29 2.216 1_554 S
Co28 O30 2.091 . S
Co28 O32 2.004 . S
Co28 O38 2.021 1_554 S
Co28 O40 2.137 1_545 S
Co28 O41 2.244 1_545 S
O29 Co28 2.216 1_556 S
O29 C36 1.247 . S
O30 Co28 2.091 . S
O30 C36 1.261 1_554 S
C31 O40 1.247 . S
C31 O41 1.272 . S
O32 Co28 2.004 . S
O32 C37 1.297 . S
Co33 O34 2.061 . S
Co33 O39 2.052 1_554 S
Co33 O41 2.135 . S
O34 Co33 2.061 . S
O34 C37 1.200 1_565 S
C35 O38 1.238 1_565 S
C35 O39 1.241 . S
C36 O29 1.247 . S
C36 O30 1.261 1_556 S
C37 O32 1.297 . S
C37 O34 1.200 1_545 S
O38 Co28 2.021 1_556 S
O38 C35 1.238 1_545 S
O39 Co33 2.052 1_556 S
O39 C35 1.241 . S
O40 Co28 2.137 1_565 S
O40 C31 1.247 . S
O41 Co28 2.244 1_565 S
O41 C31 1.272 . S
O41 Co33 2.135 . S
Co42 O43 2.216 1_554 S
Co42 O44 2.091 . S
Co42 O46 2.004 . S
Co42 O52 2.021 1_554 S
Co42 O54 2.137 1_655 S
Co42 O55 2.244 1_655 S
O43 Co42 2.216 1_556 S
O43 C50 1.247 . S
O44 Co42 2.091 . S
O44 C50 1.261 1_554 S
C45 O54 1.247 . S
C45 O55 1.272 . S
O46 Co42 2.004 . S
O46 C51 1.259 1_655 S
Co47 O48 2.061 . S
Co47 O53 2.052 1_554 S
Co47 O55 2.135 . S
O48 Co47 2.061 . S
O48 C51 1.235 . S
C49 O52 1.238 1_455 S
C49 O53 1.241 . S
C50 O43 1.247 . S
C50 O44 1.261 1_556 S
C51 O46 1.259 1_455 S
C51 O48 1.235 . S
O52 Co42 2.021 1_556 S
O52 C49 1.238 1_655 S
O53 Co47 2.052 1_556 S
O53 C49 1.241 . S
O54 Co42 2.137 1_455 S
O54 C45 1.247 . S
O55 Co42 2.244 1_455 S
O55 C45 1.272 . S
O55 Co47 2.135 . S
Co56 O57 2.216 . S
Co56 O58 2.091 . S
Co56 O60 2.004 1_554 S
Co56 O66 2.021 . S
Co56 O68 2.137 1_554 S
Co56 O69 2.244 1_554 S
O57 Co56 2.216 . S
O57 C64 1.247 . S
O58 Co56 2.091 . S
O58 C64 1.261 . S
C59 O68 1.247 . S
C59 O69 1.274 . S
O60 Co56 2.004 1_556 S
O60 C65 1.259 . S
Co61 O62 2.060 . S
Co61 O67 2.054 1_556 S
Co61 O69 2.135 . S
O62 Co61 2.060 . S
O62 C65 1.235 . S
C63 O66 1.238 . S
C63 O67 1.241 . S
C64 O57 1.247 . S
C64 O58 1.261 . S
C65 O60 1.259 . S
C65 O62 1.235 . S
O66 Co56 2.021 . S
O66 C63 1.238 . S
O67 Co61 2.054 1_554 S
O67 C63 1.241 . S
O68 Co56 2.137 1_556 S
O68 C59 1.247 . S
O69 Co56 2.244 1_556 S
O69 C59 1.274 . S
O69 Co61 2.135 . S
Co70 O71 2.216 . S
Co70 O72 2.091 . S
Co70 O74 2.004 1_554 S
Co70 O80 2.021 . S
Co70 O82 2.137 1_564 S
Co70 O83 2.244 1_565 S
O71 Co70 2.216 . S
O71 C78 1.247 . S
O72 Co70 2.091 . S
O72 C78 1.261 . S
C73 O82 1.247 . S
C73 O83 1.272 1_556 S
O74 Co70 2.004 1_556 S
O74 C79 1.259 1_565 S
Co75 O76 2.061 1_554 S
Co75 O81 2.052 . S
Co75 O83 2.135 . S
O76 Co75 2.061 1_556 S
O76 C79 1.235 . S
C77 O80 1.238 1_545 S
C77 O81 1.241 . S
C78 O71 1.247 . S
C78 O72 1.261 . S
C79 O74 1.259 1_545 S
C79 O76 1.235 . S
O80 Co70 2.021 . S
O80 C77 1.238 1_565 S
O81 Co75 2.052 . S
O81 C77 1.241 . S
O82 Co70 2.137 1_546 S
O82 C73 1.247 . S
O83 Co70 2.244 1_545 S
O83 C73 1.272 1_554 S
O83 Co75 2.135 . S
Co84 O85 2.216 . S
Co84 O86 2.091 . S
Co84 O88 2.004 . S
Co84 O94 2.021 . S
Co84 O96 2.137 . S
Co84 O97 2.244 . S
O85 Co84 2.216 . S
O85 C92 1.247 . S
O86 Co84 2.091 . S
O86 C92 1.261 . S
C87 O96 1.247 . S
C87 O97 1.272 . S
O88 Co84 2.004 . S
O88 C93 1.259 . S
Co89 O90 2.061 . S
Co89 O95 2.052 . S
Co89 O97 2.135 . S
O90 Co89 2.061 . S
O90 C93 1.235 . S
C91 O94 1.238 . S
C91 O95 1.241 . S
C92 O85 1.247 . S
C92 O86 1.261 . S
C93 O88 1.259 . S
C93 O90 1.235 . S
O94 Co84 2.021 . S
O94 C91 1.238 . S
O95 Co89 2.052 . S
O95 C91 1.241 . S
O96 Co84 2.137 . S
O96 C87 1.247 . S
O97 Co84 2.244 . S
O97 C87 1.272 . S
O97 Co89 2.135 . S
Co98 O99 2.216 1_565 S
Co98 O100 2.091 . S
Co98 O102 2.004 . S
Co98 O108 2.021 . S
Co98 O110 2.137 1_565 S
Co98 O111 2.244 1_565 S
O99 Co98 2.216 1_545 S
O99 C106 1.247 1_545 S
O100 Co98 2.091 . S
O100 C106 1.261 . S
C101 O110 1.247 . S
C101 O111 1.272 . S
O102 Co98 2.004 . S
O102 C107 1.259 . S
Co103 O104 2.061 . S
Co103 O109 2.052 . S
Co103 O111 2.135 1_565 S
O104 Co103 2.061 . S
O104 C107 1.235 . S
C105 O108 1.238 . S
C105 O109 1.241 . S
C106 O99 1.247 1_565 S
C106 O100 1.261 . S
C107 O102 1.259 . S
C107 O104 1.235 . S
O108 Co98 2.021 . S
O108 C105 1.238 . S
O109 Co103 2.052 . S
O109 C105 1.241 . S
O110 Co98 2.137 1_545 S
O110 C101 1.247 . S
O111 Co98 2.244 1_545 S
O111 C101 1.272 . S
O111 Co103 2.135 1_545 S
Co112 O113 2.216 1_455 S
Co112 O114 2.091 . S
Co112 O116 2.004 . S
Co112 O122 2.021 . S
Co112 O124 2.137 1_455 S
Co112 O125 2.244 1_455 S
O113 Co112 2.216 1_655 S
O113 C120 1.247 1_655 S
O114 Co112 2.091 . S
O114 C120 1.261 . S
C115 O124 1.247 . S
C115 O125 1.272 . S
O116 Co112 2.004 . S
O116 C121 1.259 . S
Co117 O118 2.061 . S
Co117 O123 2.052 . S
Co117 O125 2.135 1_455 S
O118 Co117 2.061 . S
O118 C121 1.235 . S
C119 O122 1.238 . S
C119 O123 1.241 . S
C120 O113 1.247 1_455 S
C120 O114 1.261 . S
C121 O116 1.259 . S
C121 O118 1.235 . S
O122 Co112 2.021 . S
O122 C119 1.238 . S
O123 Co117 2.052 . S
O123 C119 1.241 . S
O124 Co112 2.137 1_655 S
O124 C115 1.247 . S
O125 Co112 2.244 1_655 S
O125 C115 1.272 . S
O125 Co117 2.135 1_655 S
Co126 O127 2.216 1_565 S
Co126 O128 2.091 . S
Co126 O130 2.004 . S
Co126 O136 2.021 . S
Co126 O138 2.137 1_565 S
Co126 O139 2.244 1_565 S
O127 Co126 2.216 1_545 S
O127 C134 1.247 1_545 S
O128 Co126 2.091 . S
O128 C134 1.261 . S
C129 O138 1.247 . S
C129 O139 1.272 . S
O130 Co126 2.004 . S
O130 C135 1.259 . S
Co131 O132 2.061 . S
Co131 O137 2.052 . S
Co131 O139 2.135 1_565 S
O132 Co131 2.061 . S
O132 C135 1.235 . S
C133 O136 1.238 . S
C133 O137 1.241 . S
C134 O127 1.247 1_565 S
C134 O128 1.261 . S
C135 O130 1.259 . S
C135 O132 1.235 . S
O136 Co126 2.021 . S
O136 C133 1.238 . S
O137 Co131 2.052 . S
O137 C133 1.241 . S
O138 Co126 2.137 1_545 S
O138 C129 1.247 . S
O139 Co126 2.244 1_545 S
O139 C129 1.272 . S
O139 Co131 2.135 1_545 S
Co140 O141 2.216 1_455 S
Co140 O142 2.091 1_455 S
Co140 O144 2.004 . S
Co140 O150 2.021 . S
Co140 O152 2.137 1_455 S
Co140 O153 2.244 . S
O141 Co140 2.216 1_655 S
O141 C148 1.247 . S
O142 Co140 2.091 1_655 S
O142 C148 1.261 . S
C143 O152 1.247 1_455 S
C143 O153 1.272 . S
O144 Co140 2.004 . S
O144 C149 1.259 . S
Co145 O146 2.061 . S
Co145 O151 2.052 . S
Co145 O153 2.135 . S
O146 Co145 2.061 . S
O146 C149 1.235 . S
C147 O150 1.238 . S
C147 O151 1.241 . S
C148 O141 1.247 . S
C148 O142 1.261 . S
C149 O144 1.259 . S
C149 O146 1.235 . S
O150 Co140 2.021 . S
O150 C147 1.238 . S
O151 Co145 2.052 . S
O151 C147 1.241 . S
O152 Co140 2.137 1_655 S
O152 C143 1.247 1_655 S
O153 Co140 2.244 . S
O153 C143 1.272 . S
O153 Co145 2.135 . S
Co154 O155 2.216 . S
Co154 O156 2.091 . S
Co154 O158 2.004 . S
Co154 O164 2.021 . S
Co154 O166 2.137 . S
Co154 O167 2.244 . S
O155 Co154 2.216 . S
O155 C162 1.247 . S
O156 Co154 2.091 . S
O156 C162 1.261 . S
C157 O166 1.247 . S
C157 O167 1.272 . S
O158 Co154 2.004 . S
O158 C163 1.259 . S
Co159 O160 2.061 . S
Co159 O165 2.052 . S
Co159 O167 2.135 . S
O160 Co159 2.061 . S
O160 C163 1.235 . S
C161 O164 1.238 . S
C161 O165 1.241 . S
C162 O155 1.247 . S
C162 O156 1.261 . S
C163 O158 1.259 . S
C163 O160 1.235 . S
O164 Co154 2.021 . S
O164 C161 1.238 . S
O165 Co159 2.052 . S
O165 C161 1.241 . S
O166 Co154 2.137 . S
O166 C157 1.247 . S
O167 Co154 2.244 . S
O167 C157 1.272 . S
O167 Co159 2.135 . S
Co168 O169 2.216 1_545 S
Co168 O170 2.091 . S
Co168 O172 2.004 . S
Co168 O178 2.021 . S
Co168 O180 2.137 1_545 S
Co168 O181 2.244 1_545 S
O169 Co168 2.216 1_565 S
O169 C176 1.247 1_565 S
O170 Co168 2.091 . S
O170 C176 1.261 . S
C171 O180 1.247 . S
C171 O181 1.272 . S
O172 Co168 2.004 . S
O172 C177 1.259 . S
Co173 O174 2.061 . S
Co173 O179 2.052 . S
Co173 O181 2.135 1_545 S
O174 Co173 2.061 . S
O174 C177 1.235 . S
C175 O178 1.238 . S
C175 O179 1.241 . S
C176 O169 1.247 1_545 S
C176 O170 1.261 . S
C177 O172 1.259 . S
C177 O174 1.235 . S
O178 Co168 2.021 . S
O178 C175 1.238 . S
O179 Co173 2.052 . S
O179 C175 1.241 . S
O180 Co168 2.137 1_565 S
O180 C171 1.247 . S
O181 Co168 2.244 1_565 S
O181 C171 1.272 . S
O181 Co173 2.135 1_565 S
Co182 O183 2.216 1_655 S
Co182 O184 2.091 1_655 S
Co182 O186 2.004 . S
Co182 O192 2.021 . S
Co182 O194 2.137 1_655 S
Co182 O195 2.244 . S
O183 Co182 2.216 1_455 S
O183 C190 1.247 . S
O184 Co182 2.091 1_455 S
O184 C190 1.261 . S
C185 O194 1.247 1_655 S
C185 O195 1.272 . S
O186 Co182 2.004 . S
O186 C191 1.259 . S
Co187 O188 2.061 . S
Co187 O193 2.052 . S
Co187 O195 2.135 . S
O188 Co187 2.061 . S
O188 C191 1.235 . S
C189 O192 1.238 . S
C189 O193 1.241 . S
C190 O183 1.247 . S
C190 O184 1.261 . S
C191 O186 1.259 . S
C191 O188 1.235 . S
O192 Co182 2.021 . S
O192 C189 1.238 . S
O193 Co187 2.052 . S
O193 C189 1.241 . S
O194 Co182 2.137 1_455 S
O194 C185 1.247 1_455 S
O195 Co182 2.244 . S
O195 C185 1.272 . S
O195 Co187 2.135 . S
Co196 O197 2.216 . S
Co196 O198 2.091 . S
Co196 O200 2.004 . S
Co196 O206 2.021 . S
Co196 O208 2.137 . S
Co196 O209 2.244 . S
O197 Co196 2.216 . S
O197 C204 1.247 . S
O198 Co196 2.091 . S
O198 C204 1.261 . S
C199 O208 1.247 . S
C199 O209 1.272 . S
O200 Co196 2.004 . S
O200 C205 1.259 . S
Co201 O202 2.061 . S
Co201 O207 2.052 . S
Co201 O209 2.135 . S
O202 Co201 2.061 . S
O202 C205 1.235 . S
C203 O206 1.238 . S
C203 O207 1.241 . S
C204 O197 1.247 . S
C204 O198 1.261 . S
C205 O200 1.259 . S
C205 O202 1.235 . S
O206 Co196 2.021 . S
O206 C203 1.238 . S
O207 Co201 2.052 . S
O207 C203 1.241 . S
O208 Co196 2.137 . S
O208 C199 1.247 . S
O209 Co196 2.244 . S
O209 C199 1.272 . S
O209 Co201 2.135 . S
Co210 O211 2.216 . S
Co210 O212 2.091 . S
Co210 O214 2.004 . S
Co210 O220 2.021 . S
Co210 O222 2.137 . S
Co210 O223 2.244 . S
O211 Co210 2.216 . S
O211 C218 1.247 . S
O212 Co210 2.091 . S
O212 C218 1.261 . S
C213 O222 1.247 . S
C213 O223 1.272 . S
O214 Co210 2.004 . S
O214 C219 1.259 . S
Co215 O216 2.061 . S
Co215 O221 2.052 . S
Co215 O223 2.135 . S
O216 Co215 2.061 . S
O216 C219 1.235 . S
C217 O220 1.238 . S
C217 O221 1.241 . S
C218 O211 1.247 . S
C218 O212 1.261 . S
C219 O214 1.259 . S
C219 O216 1.235 . S
O220 Co210 2.021 . S
O220 C217 1.238 . S
O221 Co215 2.052 . S
O221 C217 1.241 . S
O222 Co210 2.137 . S
O222 C213 1.247 . S
O223 Co210 2.244 . S
O223 C213 1.272 . S
O223 Co215 2.135 . S
Co224 O225 2.216 1_545 S
Co224 O226 2.091 . S
Co224 O228 2.004 . S
Co224 O234 2.021 . S
Co224 O236 2.137 1_545 S
Co224 O237 2.244 1_545 S
O225 Co224 2.216 1_565 S
O225 C232 1.247 1_565 S
O226 Co224 2.091 . S
O226 C232 1.261 . S
C227 O236 1.247 . S
C227 O237 1.272 . S
O228 Co224 2.004 . S
O228 C233 1.259 . S
Co229 O230 2.061 . S
Co229 O235 2.052 . S
Co229 O237 2.135 1_545 S
O230 Co229 2.061 . S
O230 C233 1.235 . S
C231 O234 1.238 . S
C231 O235 1.241 . S
C232 O225 1.247 1_545 S
C232 O226 1.261 . S
C233 O228 1.259 . S
C233 O230 1.235 . S
O234 Co224 2.021 . S
O234 C231 1.238 . S
O235 Co229 2.052 . S
O235 C231 1.241 . S
O236 Co224 2.137 1_565 S
O236 C227 1.247 . S
O237 Co224 2.244 1_565 S
O237 C227 1.272 . S
O237 Co229 2.135 1_565 S
Co238 O239 2.216 1_655 S
Co238 O240 2.091 . S
Co238 O242 2.004 . S
Co238 O248 2.021 . S
Co238 O250 2.137 1_655 S
Co238 O251 2.244 1_655 S
O239 Co238 2.216 1_455 S
O239 C246 1.247 1_455 S
O240 Co238 2.091 . S
O240 C246 1.261 . S
C241 O250 1.247 . S
C241 O251 1.272 . S
O242 Co238 2.004 . S
O242 C247 1.259 . S
Co243 O244 2.061 . S
Co243 O249 2.052 . S
Co243 O251 2.135 1_655 S
O244 Co243 2.061 . S
O244 C247 1.235 . S
C245 O248 1.238 . S
C245 O249 1.241 . S
C246 O239 1.247 1_655 S
C246 O240 1.261 . S
C247 O242 1.259 . S
C247 O244 1.235 . S
O248 Co238 2.021 . S
O248 C245 1.238 . S
O249 Co243 2.052 . S
O249 C245 1.241 . S
O250 Co238 2.137 1_455 S
O250 C241 1.247 . S
O251 Co238 2.244 1_455 S
O251 C241 1.272 . S
O251 Co243 2.135 1_455 S
H252 C258 0.930 . S
H253 C261 0.931 . S
H254 C263 0.931 . S
H255 C265 0.930 . S
H256 C267 0.930 . S
H257 C269 0.931 . S
C258 H252 0.930 . S
C258 C259 1.380 . S
C258 C260 1.394 . S
C259 C258 1.380 . S
C259 C263 1.382 . S
C260 C258 1.394 . S
C260 C261 1.400 . S
C261 H253 0.931 . S
C261 C260 1.400 . S
C261 C262 1.375 . S
C262 C261 1.375 . S
C262 C263 1.415 . S
C262 C264 1.501 . S
C263 H254 0.931 . S
C263 C259 1.382 . S
C263 C262 1.415 . S
C264 C262 1.501 . S
C264 C265 1.384 . S
C264 C269 1.408 . S
C265 H255 0.930 . S
C265 C264 1.384 . S
C265 C266 1.389 . S
C266 C265 1.389 . S
C266 C267 1.405 . S
C267 H256 0.930 . S
C267 C266 1.405 . S
C267 C268 1.364 . S
C268 C267 1.364 . S
C268 C269 1.400 . S
C269 H257 0.931 . S
C269 C264 1.408 . S
C269 C268 1.400 . S
H270 C276 0.930 . S
H271 C279 0.931 . S
H272 C281 0.931 . S
H273 C283 0.930 . S
H274 C285 0.930 . S
H275 C287 0.931 . S
C276 H270 0.930 . S
C276 C277 1.380 . S
C276 C278 1.394 . S
C277 C276 1.380 . S
C277 C281 1.382 . S
C278 C276 1.394 . S
C278 C279 1.400 . S
C279 H271 0.931 . S
C279 C278 1.400 . S
C279 C280 1.375 . S
C280 C279 1.375 . S
C280 C281 1.415 . S
C280 C282 1.501 . S
C281 H272 0.931 . S
C281 C277 1.382 . S
C281 C280 1.415 . S
C282 C280 1.501 . S
C282 C283 1.384 . S
C282 C287 1.408 . S
C283 H273 0.930 . S
C283 C282 1.384 . S
C283 C284 1.389 . S
C284 C283 1.389 . S
C284 C285 1.405 . S
C285 H274 0.930 . S
C285 C284 1.405 . S
C285 C286 1.364 . S
C286 C285 1.364 . S
C286 C287 1.400 . S
C287 H275 0.931 . S
C287 C282 1.408 . S
C287 C286 1.400 . S
H288 C294 0.930 . S
H289 C297 0.931 . S
H290 C299 0.931 . S
H291 C301 0.930 . S
H292 C303 0.930 . S
H293 C305 0.931 . S
C294 H288 0.930 . S
C294 C295 1.380 . S
C294 C296 1.394 . S
C295 C294 1.380 . S
C295 C299 1.382 . S
C296 C294 1.394 . S
C296 C297 1.400 . S
C297 H289 0.931 . S
C297 C296 1.400 . S
C297 C298 1.375 . S
C298 C297 1.375 . S
C298 C299 1.415 . S
C298 C300 1.501 . S
C299 H290 0.931 . S
C299 C295 1.382 . S
C299 C298 1.415 . S
C300 C298 1.501 . S
C300 C301 1.384 . S
C300 C305 1.408 . S
C301 H291 0.930 . S
C301 C300 1.384 . S
C301 C302 1.389 . S
C302 C301 1.389 . S
C302 C303 1.405 . S
C303 H292 0.930 . S
C303 C302 1.405 . S
C303 C304 1.364 . S
C304 C303 1.364 . S
C304 C305 1.400 . S
C305 H293 0.931 . S
C305 C300 1.408 . S
C305 C304 1.400 . S
H306 C312 0.930 . S
H307 C315 0.931 . S
H308 C317 0.931 . S
H309 C319 0.930 . S
H310 C321 0.930 . S
H311 C323 0.931 . S
C312 H306 0.930 . S
C312 C313 1.380 . S
C312 C314 1.394 . S
C313 C312 1.380 . S
C313 C317 1.382 . S
C314 C312 1.394 . S
C314 C315 1.400 . S
C315 H307 0.931 . S
C315 C314 1.400 . S
C315 C316 1.375 . S
C316 C315 1.375 . S
C316 C317 1.415 . S
C316 C318 1.501 . S
C317 H308 0.931 . S
C317 C313 1.382 . S
C317 C316 1.415 . S
C318 C316 1.501 . S
C318 C319 1.384 . S
C318 C323 1.408 . S
C319 H309 0.930 . S
C319 C318 1.384 . S
C319 C320 1.389 . S
C320 C319 1.389 . S
C320 C321 1.405 . S
C321 H310 0.930 . S
C321 C320 1.405 . S
C321 C322 1.364 . S
C322 C321 1.364 . S
C322 C323 1.400 . S
C323 H311 0.931 . S
C323 C318 1.408 . S
C323 C322 1.400 . S
H324 C330 0.930 . S
H325 C333 0.931 . S
H326 C335 0.931 . S
H327 C337 0.930 . S
H328 C339 0.930 . S
H329 C341 0.931 . S
C330 H324 0.930 . S
C330 C331 1.380 . S
C330 C332 1.394 . S
C331 C330 1.380 . S
C331 C335 1.382 . S
C332 C330 1.394 . S
C332 C333 1.400 . S
C333 H325 0.931 . S
C333 C332 1.400 . S
C333 C334 1.375 . S
C334 C333 1.375 . S
C334 C335 1.415 . S
C334 C336 1.501 . S
C335 H326 0.931 . S
C335 C331 1.382 . S
C335 C334 1.415 . S
C336 C334 1.501 . S
C336 C337 1.384 . S
C336 C341 1.408 . S
C337 H327 0.930 . S
C337 C336 1.384 . S
C337 C338 1.389 . S
C338 C337 1.389 . S
C338 C339 1.405 . S
C339 H328 0.930 . S
C339 C338 1.405 . S
C339 C340 1.364 . S
C340 C339 1.364 . S
C340 C341 1.400 . S
C341 H329 0.931 . S
C341 C336 1.408 . S
C341 C340 1.400 . S
H342 C348 0.930 . S
H343 C351 0.931 . S
H344 C353 0.931 . S
H345 C355 0.930 . S
H346 C357 0.930 . S
H347 C359 0.931 . S
C348 H342 0.930 . S
C348 C349 1.380 . S
C348 C350 1.394 . S
C349 C348 1.380 . S
C349 C353 1.382 . S
C350 C348 1.394 . S
C350 C351 1.400 . S
C351 H343 0.931 . S
C351 C350 1.400 . S
C351 C352 1.375 . S
C352 C351 1.375 . S
C352 C353 1.415 . S
C352 C354 1.501 . S
C353 H344 0.931 . S
C353 C349 1.382 . S
C353 C352 1.415 . S
C354 C352 1.501 . S
C354 C355 1.384 . S
C354 C359 1.408 . S
C355 H345 0.930 . S
C355 C354 1.384 . S
C355 C356 1.389 . S
C356 C355 1.389 . S
C356 C357 1.405 . S
C357 H346 0.930 . S
C357 C356 1.405 . S
C357 C358 1.364 . S
C358 C357 1.364 . S
C358 C359 1.400 . S
C359 H347 0.931 . S
C359 C354 1.408 . S
C359 C358 1.400 . S
H360 C366 0.930 . S
H361 C369 0.931 . S
H362 C371 0.931 . S
H363 C373 0.930 . S
H364 C375 0.930 . S
H365 C377 0.931 . S
C366 H360 0.930 . S
C366 C367 1.380 . S
C366 C368 1.394 . S
C367 C366 1.380 . S
C367 C371 1.382 . S
C368 C366 1.394 . S
C368 C369 1.400 . S
C369 H361 0.931 . S
C369 C368 1.400 . S
C369 C370 1.375 . S
C370 C369 1.375 . S
C370 C371 1.415 . S
C370 C372 1.501 . S
C371 H362 0.931 . S
C371 C367 1.382 . S
C371 C370 1.415 . S
C372 C370 1.501 . S
C372 C373 1.384 . S
C372 C377 1.408 . S
C373 H363 0.930 . S
C373 C372 1.384 . S
C373 C374 1.389 . S
C374 C373 1.389 . S
C374 C375 1.405 . S
C375 H364 0.930 . S
C375 C374 1.405 . S
C375 C376 1.364 . S
C376 C375 1.364 . S
C376 C377 1.400 . S
C377 H365 0.931 . S
C377 C372 1.408 . S
C377 C376 1.400 . S
H378 C384 0.930 . S
H379 C387 0.931 . S
H380 C389 0.931 . S
H381 C391 0.930 . S
H382 C393 0.930 . S
H383 C395 0.931 . S
C384 H378 0.930 . S
C384 C385 1.380 . S
C384 C386 1.394 . S
C385 C384 1.380 . S
C385 C389 1.382 . S
C386 C384 1.394 . S
C386 C387 1.400 . S
C387 H379 0.931 . S
C387 C386 1.400 . S
C387 C388 1.375 . S
C388 C387 1.375 . S
C388 C389 1.415 . S
C388 C390 1.501 . S
C389 H380 0.931 . S
C389 C385 1.382 . S
C389 C388 1.415 . S
C390 C388 1.501 . S
C390 C391 1.384 . S
C390 C395 1.408 . S
C391 H381 0.930 . S
C391 C390 1.384 . S
C391 C392 1.389 . S
C392 C391 1.389 . S
C392 C393 1.405 . S
C393 H382 0.930 . S
C393 C392 1.405 . S
C393 C394 1.364 . S
C394 C393 1.364 . S
C394 C395 1.400 . S
C395 H383 0.931 . S
C395 C390 1.408 . S
C395 C394 1.400 . S
H396 C402 0.930 . S
H397 C405 0.931 . S
H398 C407 0.931 . S
H399 C409 0.930 . S
H400 C411 0.930 . S
H401 C413 0.931 . S
C402 H396 0.930 . S
C402 C403 1.380 . S
C402 C404 1.394 . S
C403 C402 1.380 . S
C403 C407 1.382 . S
C404 C402 1.394 . S
C404 C405 1.400 . S
C405 H397 0.931 . S
C405 C404 1.400 . S
C405 C406 1.375 . S
C406 C405 1.375 . S
C406 C407 1.415 . S
C406 C408 1.501 . S
C407 H398 0.931 . S
C407 C403 1.382 . S
C407 C406 1.415 . S
C408 C406 1.501 . S
C408 C409 1.384 . S
C408 C413 1.408 . S
C409 H399 0.930 . S
C409 C408 1.384 . S
C409 C410 1.389 . S
C410 C409 1.389 . S
C410 C411 1.405 . S
C411 H400 0.930 . S
C411 C410 1.405 . S
C411 C412 1.364 . S
C412 C411 1.364 . S
C412 C413 1.400 . S
C413 H401 0.931 . S
C413 C408 1.408 . S
C413 C412 1.400 . S
H414 C420 0.926 . S
H415 C423 0.931 . S
H416 C425 0.931 . S
H417 C427 0.930 . S
H418 C429 0.930 . S
H419 C431 0.941 1_655 S
C420 H414 0.926 . S
C420 C421 1.383 . S
C420 C422 1.395 1_655 S
C421 C420 1.383 . S
C421 C425 1.382 . S
C422 C420 1.395 1_455 S
C422 C423 1.400 . S
C423 H415 0.931 . S
C423 C422 1.400 . S
C423 C424 1.375 . S
C424 C423 1.375 . S
C424 C425 1.415 1_455 S
C424 C426 1.501 . S
C425 H416 0.931 . S
C425 C421 1.382 . S
C425 C424 1.415 1_655 S
C426 C424 1.501 . S
C426 C427 1.384 . S
C426 C431 1.417 . S
C427 H417 0.930 . S
C427 C426 1.384 . S
C427 C428 1.389 . S
C428 C427 1.389 . S
C428 C429 1.405 . S
C429 H418 0.930 . S
C429 C428 1.405 . S
C429 C430 1.362 . S
C430 C429 1.362 . S
C430 C431 1.389 . S
C431 H419 0.941 1_455 S
C431 C426 1.417 . S
C431 C430 1.389 . S
H432 C438 0.930 . S
H433 C441 0.931 . S
H434 C443 0.931 . S
H435 C445 0.930 . S
H436 C447 0.930 . S
H437 C449 0.931 . S
C438 H432 0.930 . S
C438 C439 1.380 . S
C438 C440 1.394 . S
C439 C438 1.380 . S
C439 C443 1.382 . S
C440 C438 1.394 . S
C440 C441 1.400 . S
C441 H433 0.931 . S
C441 C440 1.400 . S
C441 C442 1.375 . S
C442 C441 1.375 . S
C442 C443 1.415 . S
C442 C444 1.501 . S
C443 H434 0.931 . S
C443 C439 1.382 . S
C443 C442 1.415 . S
C444 C442 1.501 . S
C444 C445 1.384 . S
C444 C449 1.408 . S
C445 H435 0.930 . S
C445 C444 1.384 . S
C445 C446 1.389 . S
C446 C445 1.389 . S
C446 C447 1.405 . S
C447 H436 0.930 . S
C447 C446 1.405 . S
C447 C448 1.364 . S
C448 C447 1.364 . S
C448 C449 1.400 . S
C449 H437 0.931 . S
C449 C444 1.408 . S
C449 C448 1.400 . S
H450 C456 0.957 . S
H451 C459 0.931 . S
H452 C461 0.931 . S
H453 C463 0.930 . S
H454 C465 0.930 . S
H455 C467 0.919 1_545 S
C456 H450 0.957 . S
C456 C457 1.375 . S
C456 C458 1.375 1_545 S
C457 C456 1.375 . S
C457 C461 1.382 . S
C458 C456 1.375 1_565 S
C458 C459 1.400 . S
C459 H451 0.931 . S
C459 C458 1.400 . S
C459 C460 1.375 . S
C460 C459 1.375 . S
C460 C461 1.415 1_565 S
C460 C462 1.501 . S
C461 H452 0.931 . S
C461 C457 1.382 . S
C461 C460 1.415 1_545 S
C462 C460 1.501 . S
C462 C463 1.384 . S
C462 C467 1.397 . S
C463 H453 0.930 . S
C463 C462 1.384 . S
C463 C464 1.389 . S
C464 C463 1.389 . S
C464 C465 1.405 . S
C465 H454 0.930 . S
C465 C464 1.405 . S
C465 C466 1.376 . S
C466 C465 1.376 . S
C466 C467 1.404 . S
C467 H455 0.919 1_565 S
C467 C462 1.397 . S
C467 C466 1.404 . S
H468 C474 0.918 . S
H469 C477 0.931 . S
H470 C479 0.925 1_545 S
H471 C481 0.930 . S
H472 C483 0.930 . S
H473 C485 0.931 . S
C474 H468 0.918 . S
C474 C475 1.381 . S
C474 C476 1.400 1_545 S
C475 C474 1.381 . S
C475 C479 1.402 1_545 S
C476 C474 1.400 1_565 S
C476 C477 1.400 . S
C477 H469 0.931 . S
C477 C476 1.400 . S
C477 C478 1.375 . S
C478 C477 1.375 . S
C478 C479 1.411 . S
C478 C480 1.501 . S
C479 H470 0.925 1_565 S
C479 C475 1.402 1_565 S
C479 C478 1.411 . S
C480 C478 1.501 . S
C480 C481 1.384 . S
C480 C485 1.408 1_565 S
C481 H471 0.930 . S
C481 C480 1.384 . S
C481 C482 1.389 . S
C482 C481 1.389 . S
C482 C483 1.405 . S
C483 H472 0.930 . S
C483 C482 1.405 . S
C483 C484 1.364 1_565 S
C484 C483 1.364 1_545 S
C484 C485 1.400 . S
C485 H473 0.931 . S
C485 C480 1.408 1_545 S
C485 C484 1.400 . S
H486 C492 0.930 . S
H487 C495 0.931 . S
H488 C497 0.934 1_655 S
H489 C499 0.930 . S
H490 C501 0.930 . S
H491 C503 0.931 . S
C492 H486 0.930 . S
C492 C493 1.393 . S
C492 C494 1.382 1_655 S
C493 C492 1.393 . S
C493 C497 1.354 1_655 S
C494 C492 1.382 1_455 S
C494 C495 1.425 . S
C495 H487 0.931 . S
C495 C494 1.425 . S
C495 C496 1.375 . S
C496 C495 1.375 . S
C496 C497 1.417 . S
C496 C498 1.501 . S
C497 H488 0.934 1_455 S
C497 C493 1.354 1_455 S
C497 C496 1.417 . S
C498 C496 1.501 . S
C498 C499 1.384 . S
C498 C503 1.408 1_455 S
C499 H489 0.930 . S
C499 C498 1.384 . S
C499 C500 1.389 . S
C500 C499 1.389 . S
C500 C501 1.405 . S
C501 H490 0.930 . S
C501 C500 1.405 . S
C501 C502 1.364 1_455 S
C502 C501 1.364 1_655 S
C502 C503 1.400 . S
C503 H491 0.931 . S
C503 C498 1.408 1_655 S
C503 C502 1.400 . S
H504 C510 0.930 . S
H505 C513 0.931 . S
H506 C515 0.931 . S
H507 C517 0.930 . S
H508 C519 0.930 . S
H509 C521 0.931 . S
C510 H504 0.930 . S
C510 C511 1.380 . S
C510 C512 1.394 . S
C511 C510 1.380 . S
C511 C515 1.382 . S
C512 C510 1.394 . S
C512 C513 1.400 . S
C513 H505 0.931 . S
C513 C512 1.400 . S
C513 C514 1.375 . S
C514 C513 1.375 . S
C514 C515 1.415 . S
C514 C516 1.501 . S
C515 H506 0.931 . S
C515 C511 1.382 . S
C515 C514 1.415 . S
C516 C514 1.501 . S
C516 C517 1.384 . S
C516 C521 1.408 . S
C517 H507 0.930 . S
C517 C516 1.384 . S
C517 C518 1.389 . S
C518 C517 1.389 . S
C518 C519 1.405 . S
C519 H508 0.930 . S
C519 C518 1.405 . S
C519 C520 1.364 . S
C520 C519 1.364 . S
C520 C521 1.400 . S
C521 H509 0.931 . S
C521 C516 1.408 . S
C521 C520 1.400 . S
H522 C528 0.930 . S
H523 C531 0.931 . S
H524 C533 0.931 . S
H525 C535 0.930 . S
H526 C537 0.930 . S
H527 C539 0.931 . S
C528 H522 0.930 . S
C528 C529 1.380 . S
C528 C530 1.394 . S
C529 C528 1.380 . S
C529 C533 1.382 . S
C530 C528 1.394 . S
C530 C531 1.400 . S
C531 H523 0.931 . S
C531 C530 1.400 . S
C531 C532 1.375 . S
C532 C531 1.375 . S
C532 C533 1.415 . S
C532 C534 1.501 . S
C533 H524 0.931 . S
C533 C529 1.382 . S
C533 C532 1.415 . S
C534 C532 1.501 . S
C534 C535 1.384 . S
C534 C539 1.408 . S
C535 H525 0.930 . S
C535 C534 1.384 . S
C535 C536 1.389 . S
C536 C535 1.389 . S
C536 C537 1.405 . S
C537 H526 0.930 . S
C537 C536 1.405 . S
C537 C538 1.364 . S
C538 C537 1.364 . S
C538 C539 1.400 . S
C539 H527 0.931 . S
C539 C534 1.408 . S
C539 C538 1.400 . S
H540 C546 0.930 . S
H541 C549 0.931 . S
H542 C551 0.931 . S
H543 C553 0.930 . S
H544 C555 0.930 . S
H545 C557 0.931 . S
C546 H540 0.930 . S
C546 C547 1.380 . S
C546 C548 1.394 . S
C547 C546 1.380 . S
C547 C551 1.382 . S
C548 C546 1.394 . S
C548 C549 1.400 . S
C549 H541 0.931 . S
C549 C548 1.400 . S
C549 C550 1.375 . S
C550 C549 1.375 . S
C550 C551 1.415 . S
C550 C552 1.501 . S
C551 H542 0.931 . S
C551 C547 1.382 . S
C551 C550 1.415 . S
C552 C550 1.501 . S
C552 C553 1.384 . S
C552 C557 1.408 . S
C553 H543 0.930 . S
C553 C552 1.384 . S
C553 C554 1.389 . S
C554 C553 1.389 . S
C554 C555 1.405 . S
C555 H544 0.930 . S
C555 C554 1.405 . S
C555 C556 1.364 . S
C556 C555 1.364 . S
C556 C557 1.400 . S
C557 H545 0.931 . S
C557 C552 1.408 . S
C557 C556 1.400 . S
H558 C564 0.930 . S
H559 C567 0.931 . S
H560 C569 0.931 . S
H561 C571 0.930 . S
H562 C573 0.930 . S
H563 C575 0.931 . S
C564 H558 0.930 . S
C564 C565 1.380 . S
C564 C566 1.394 . S
C565 C564 1.380 . S
C565 C569 1.382 . S
C566 C564 1.394 . S
C566 C567 1.400 . S
C567 H559 0.931 . S
C567 C566 1.400 . S
C567 C568 1.375 . S
C568 C567 1.375 . S
C568 C569 1.415 . S
C568 C570 1.501 . S
C569 H560 0.931 . S
C569 C565 1.382 . S
C569 C568 1.415 . S
C570 C568 1.501 . S
C570 C571 1.384 . S
C570 C575 1.408 . S
C571 H561 0.930 . S
C571 C570 1.384 . S
C571 C572 1.389 . S
C572 C571 1.389 . S
C572 C573 1.405 . S
C573 H562 0.930 . S
C573 C572 1.405 . S
C573 C574 1.364 . S
C574 C573 1.364 . S
C574 C575 1.400 . S
C575 H563 0.931 . S
C575 C570 1.408 . S
C575 C574 1.400 . S
C576 C577 1.369 . S
C576 C578 1.419 . S
C576 H580 0.930 . S
C577 C576 1.369 . S
C577 C586 1.429 1_655 S
C578 C576 1.419 . S
C578 C579 1.363 . S
C578 H581 0.929 . S
C579 C578 1.363 . S
C579 C585 1.428 1_655 S
H580 C576 0.930 . S
H581 C578 0.929 . S
S582 N583 1.613 . S
S582 N584 1.610 . S
N583 S582 1.613 . S
N583 C586 1.350 . S
N584 S582 1.610 . S
N584 C585 1.351 . S
C585 C579 1.428 1_455 S
C585 N584 1.351 . S
C585 C586 1.434 . S
C586 C577 1.429 1_455 S
C586 N583 1.350 . S
C586 C585 1.434 . S
C587 C588 1.369 . S
C587 C589 1.419 . S
C587 H591 0.930 . S
C588 C587 1.369 . S
C588 C597 1.429 . S
C589 C587 1.419 . S
C589 C590 1.363 . S
C589 H592 0.929 . S
C590 C589 1.363 . S
C590 C596 1.428 . S
H591 C587 0.930 . S
H592 C589 0.929 . S
S593 N594 1.613 . S
S593 N595 1.610 . S
N594 S593 1.613 . S
N594 C597 1.350 . S
N595 S593 1.610 . S
N595 C596 1.351 . S
C596 C590 1.428 . S
C596 N595 1.351 . S
C596 C597 1.434 . S
C597 C588 1.429 . S
C597 N594 1.350 . S
C597 C596 1.434 . S
C598 C599 1.369 . S
C598 C600 1.419 . S
C598 H602 0.930 . S
C599 C598 1.369 . S
C599 C608 1.429 . S
C600 C598 1.419 . S
C600 C601 1.363 . S
C600 H603 0.929 . S
C601 C600 1.363 . S
C601 C607 1.428 . S
H602 C598 0.930 . S
H603 C600 0.929 . S
S604 N605 1.613 . S
S604 N606 1.609 . S
N605 S604 1.613 . S
N605 C608 1.350 1_565 S
N606 S604 1.609 . S
N606 C607 1.330 1_565 S
C607 C601 1.428 . S
C607 N606 1.330 1_545 S
C607 C608 1.434 . S
C608 C599 1.429 . S
C608 N605 1.350 1_545 S
C608 C607 1.434 . S
C609 C610 1.369 . S
C609 C611 1.419 . S
C609 H613 0.930 . S
C610 C609 1.369 . S
C610 C619 1.429 . S
C611 C609 1.419 . S
C611 C612 1.363 . S
C611 H614 0.929 . S
C612 C611 1.363 . S
C612 C618 1.428 . S
H613 C609 0.930 . S
H614 C611 0.929 . S
S615 N616 1.613 . S
S615 N617 1.610 . S
N616 S615 1.613 . S
N616 C619 1.350 . S
N617 S615 1.610 . S
N617 C618 1.351 . S
C618 C612 1.428 . S
C618 N617 1.351 . S
C618 C619 1.434 . S
C619 C610 1.429 . S
C619 N616 1.350 . S
C619 C618 1.434 . S
C620 C621 1.369 . S
C620 C622 1.419 . S
C620 H624 0.930 . S
C621 C620 1.369 . S
C621 C630 1.429 1_455 S
C622 C620 1.419 . S
C622 C623 1.363 . S
C622 H625 0.929 . S
C623 C622 1.363 . S
C623 C629 1.428 1_455 S
H624 C620 0.930 . S
H625 C622 0.929 . S
S626 N627 1.613 . S
S626 N628 1.610 . S
N627 S626 1.613 . S
N627 C630 1.350 . S
N628 S626 1.610 . S
N628 C629 1.351 . S
C629 C623 1.428 1_655 S
C629 N628 1.351 . S
C629 C630 1.434 . S
C630 C621 1.429 1_655 S
C630 N627 1.350 . S
C630 C629 1.434 . S
C631 C632 1.369 . S
C631 C633 1.419 . S
C631 H635 0.930 . S
C632 C631 1.369 . S
C632 C641 1.429 . S
C633 C631 1.419 . S
C633 C634 1.363 . S
C633 H636 0.929 . S
C634 C633 1.363 . S
C634 C640 1.428 . S
H635 C631 0.930 . S
H636 C633 0.929 . S
S637 N638 1.613 . S
S637 N639 1.610 . S
N638 S637 1.613 . S
N638 C641 1.350 . S
N639 S637 1.610 . S
N639 C640 1.351 . S
C640 C634 1.428 . S
C640 N639 1.351 . S
C640 C641 1.434 . S
C641 C632 1.429 . S
C641 N638 1.350 . S
C641 C640 1.434 . S
C642 C643 1.356 . S
C642 C644 1.429 1_455 S
C642 H646 0.931 . S
C643 C642 1.356 . S
C643 C652 1.429 . S
C644 C642 1.429 1_655 S
C644 C645 1.362 . S
C644 H647 0.929 . S
C645 C644 1.362 . S
C645 C651 1.437 1_655 S
H646 C642 0.931 . S
H647 C644 0.929 . S
S648 N649 1.613 . S
S648 N650 1.595 . S
N649 S648 1.613 . S
N649 C652 1.350 . S
N650 S648 1.595 . S
N650 C651 1.357 . S
C651 C645 1.437 1_455 S
C651 N650 1.357 . S
C651 C652 1.434 . S
C652 C643 1.429 . S
C652 N649 1.350 . S
C652 C651 1.434 . S
C653 C654 1.369 . S
C653 C655 1.419 . S
C653 H657 0.930 . S
C654 C653 1.369 . S
C654 C663 1.429 . S
C655 C653 1.419 . S
C655 C656 1.363 . S
C655 H658 0.929 . S
C656 C655 1.363 . S
C656 C662 1.428 . S
H657 C653 0.930 . S
H658 C655 0.929 . S
S659 N660 1.613 . S
S659 N661 1.610 . S
N660 S659 1.613 . S
N660 C663 1.350 . S
N661 S659 1.610 . S
N661 C662 1.351 . S
C662 C656 1.428 . S
C662 N661 1.351 . S
C662 C663 1.434 . S
C663 C654 1.429 . S
C663 N660 1.350 . S
C663 C662 1.434 . S
C664 C665 1.369 . S
C664 C666 1.419 . S
C664 H668 0.930 . S
C665 C664 1.369 . S
C665 C674 1.429 . S
C666 C664 1.419 . S
C666 C667 1.359 1_565 S
C666 H669 0.929 . S
C667 C666 1.359 1_545 S
C667 C673 1.428 . S
H668 C664 0.930 . S
H669 C666 0.929 . S
S670 N671 1.613 . S
S670 N672 1.609 . S
N671 S670 1.613 . S
N671 C674 1.350 . S
N672 S670 1.609 . S
N672 C673 1.350 1_565 S
C673 C667 1.428 . S
C673 N672 1.350 1_545 S
C673 C674 1.433 1_545 S
C674 C665 1.429 . S
C674 N671 1.350 . S
C674 C673 1.433 1_565 S
C675 C676 1.369 1_565 S
C675 C677 1.419 . S
C675 H679 0.930 . S
C676 C675 1.369 1_545 S
C676 C685 1.429 . S
C677 C675 1.419 . S
C677 C678 1.366 1_565 S
C677 H680 0.929 . S
C678 C677 1.366 1_545 S
C678 C684 1.427 . S
H679 C675 0.930 . S
H680 C677 0.929 . S
S681 N682 1.613 . S
S681 N683 1.610 . S
N682 S681 1.613 . S
N682 C685 1.350 . S
N683 S681 1.610 . S
N683 C684 1.351 . S
C684 C678 1.427 . S
C684 N683 1.351 . S
C684 C685 1.434 . S
C685 C676 1.429 . S
C685 N682 1.350 . S
C685 C684 1.434 . S
C686 C687 1.369 1_455 S
C686 C688 1.419 . S
C686 H690 0.930 . S
C687 C686 1.369 1_655 S
C687 C696 1.429 . S
C688 C686 1.419 . S
C688 C689 1.365 . S
C688 H691 0.929 . S
C689 C688 1.365 . S
C689 C695 1.424 1_455 S
H690 C686 0.930 . S
H691 C688 0.929 . S
S692 N693 1.613 . S
S692 N694 1.610 . S
N693 S692 1.613 . S
N693 C696 1.350 . S
N694 S692 1.610 . S
N694 C695 1.351 . S
C695 C689 1.424 1_655 S
C695 N694 1.351 . S
C695 C696 1.434 . S
C696 C687 1.429 . S
C696 N693 1.350 . S
C696 C695 1.434 . S
C697 C698 1.369 . S
C697 C699 1.419 . S
C697 H701 0.930 . S
C698 C697 1.369 . S
C698 C707 1.429 . S
C699 C697 1.419 . S
C699 C700 1.363 . S
C699 H702 0.929 . S
C700 C699 1.363 . S
C700 C706 1.428 . S
H701 C697 0.930 . S
H702 C699 0.929 . S
S703 N704 1.613 . S
S703 N705 1.610 . S
N704 S703 1.613 . S
N704 C707 1.350 . S
N705 S703 1.610 . S
N705 C706 1.351 . S
C706 C700 1.428 . S
C706 N705 1.351 . S
C706 C707 1.434 . S
C707 C698 1.429 . S
C707 N704 1.350 . S
C707 C706 1.434 . S
C708 C709 1.369 . S
C708 C710 1.419 . S
C708 H712 0.930 . S
C709 C708 1.369 . S
C709 C718 1.429 . S
C710 C708 1.419 . S
C710 C711 1.363 . S
C710 H713 0.929 . S
C711 C710 1.363 . S
C711 C717 1.428 . S
H712 C708 0.930 . S
H713 C710 0.929 . S
S714 N715 1.613 . S
S714 N716 1.610 . S
N715 S714 1.613 . S
N715 C718 1.350 . S
N716 S714 1.610 . S
N716 C717 1.351 . S
C717 C711 1.428 . S
C717 N716 1.351 . S
C717 C718 1.434 . S
C718 C709 1.429 . S
C718 N715 1.350 . S
C718 C717 1.434 . S
C719 C720 1.369 . S
C719 C721 1.419 . S
C719 H723 0.930 . S
C720 C719 1.369 . S
C720 C729 1.429 . S
C721 C719 1.419 . S
C721 C722 1.363 . S
C721 H724 0.929 . S
C722 C721 1.363 . S
C722 C728 1.428 . S
H723 C719 0.930 . S
H724 C721 0.929 . S
S725 N726 1.613 . S
S725 N727 1.610 . S
N726 S725 1.613 . S
N726 C729 1.350 . S
N727 S725 1.610 . S
N727 C728 1.351 . S
C728 C722 1.428 . S
C728 N727 1.351 . S
C728 C729 1.434 . S
C729 C720 1.429 . S
C729 N726 1.350 . S
C729 C728 1.434 . S
C730 C731 1.369 . S
C730 C732 1.419 . S
C730 H734 0.930 . S
C731 C730 1.369 . S
C731 C740 1.429 . S
C732 C730 1.419 . S
C732 C733 1.363 . S
C732 H735 0.929 . S
C733 C732 1.363 . S
C733 C739 1.428 . S
H734 C730 0.930 . S
H735 C732 0.929 . S
S736 N737 1.613 . S
S736 N738 1.610 . S
N737 S736 1.613 . S
N737 C740 1.350 . S
N738 S736 1.610 . S
N738 C739 1.351 . S
C739 C733 1.428 . S
C739 N738 1.351 . S
C739 C740 1.434 . S
C740 C731 1.429 . S
C740 N737 1.350 . S
C740 C739 1.434 . S
C741 C742 1.369 . S
C741 C743 1.419 . S
C741 H745 0.930 . S
C742 C741 1.369 . S
C742 C751 1.429 . S
C743 C741 1.419 . S
C743 C744 1.363 . S
C743 H746 0.929 . S
C744 C743 1.363 . S
C744 C750 1.428 . S
H745 C741 0.930 . S
H746 C743 0.929 . S
S747 N748 1.613 . S
S747 N749 1.610 . S
N748 S747 1.613 . S
N748 C751 1.350 . S
N749 S747 1.610 . S
N749 C750 1.351 . S
C750 C744 1.428 . S
C750 N749 1.351 . S
C750 C751 1.434 . S
C751 C742 1.429 . S
C751 N748 1.350 . S
C751 C750 1.434 . S
C752 C753 1.369 . S
C752 C754 1.419 . S
C752 H756 0.930 . S
C753 C752 1.369 . S
C753 C762 1.429 . S
C754 C752 1.419 . S
C754 C755 1.363 . S
C754 H757 0.929 . S
C755 C754 1.363 . S
C755 C761 1.428 . S
H756 C752 0.930 . S
H757 C754 0.929 . S
S758 N759 1.613 . S
S758 N760 1.610 . S
N759 S758 1.613 . S
N759 C762 1.350 . S
N760 S758 1.610 . S
N760 C761 1.351 . S
C761 C755 1.428 . S
C761 N760 1.351 . S
C761 C762 1.434 . S
C762 C753 1.429 . S
C762 N759 1.350 . S
C762 C761 1.434 . S
C763 C764 1.369 . S
C763 C765 1.419 . S
C763 H767 0.930 . S
C764 C763 1.369 . S
C764 C773 1.429 . S
C765 C763 1.419 . S
C765 C766 1.363 . S
C765 H768 0.929 . S
C766 C765 1.363 . S
C766 C772 1.428 . S
H767 C763 0.930 . S
H768 C765 0.929 . S
S769 N770 1.613 . S
S769 N771 1.610 . S
N770 S769 1.613 . S
N770 C773 1.350 . S
N771 S769 1.610 . S
N771 C772 1.351 . S
C772 C766 1.428 . S
C772 N771 1.351 . S
C772 C773 1.434 . S
C773 C764 1.429 . S
C773 N770 1.350 . S
C773 C772 1.434 . S
C774 C775 1.369 . S
C774 C776 1.419 . S
C774 H778 0.930 . S
C775 C774 1.369 . S
C775 C784 1.429 . S
C776 C774 1.419 . S
C776 C777 1.363 . S
C776 H779 0.929 . S
C777 C776 1.363 . S
C777 C783 1.428 . S
H778 C774 0.930 . S
H779 C776 0.929 . S
S780 N781 1.613 . S
S780 N782 1.610 . S
N781 S780 1.613 . S
N781 C784 1.350 . S
N782 S780 1.610 . S
N782 C783 1.351 . S
C783 C777 1.428 . S
C783 N782 1.351 . S
C783 C784 1.434 . S
C784 C775 1.429 . S
C784 N781 1.350 . S
C784 C783 1.434 . S
C785 C786 1.369 . S
C785 C787 1.419 . S
C785 H789 0.930 . S
C786 C785 1.369 . S
C786 C795 1.429 . S
C787 C785 1.419 . S
C787 C788 1.363 . S
C787 H790 0.929 . S
C788 C787 1.363 . S
C788 C794 1.428 . S
H789 C785 0.930 . S
H790 C787 0.929 . S
S791 N792 1.613 . S
S791 N793 1.610 . S
N792 S791 1.613 . S
N792 C795 1.350 . S
N793 S791 1.610 . S
N793 C794 1.351 . S
C794 C788 1.428 . S
C794 N793 1.351 . S
C794 C795 1.434 . S
C795 C786 1.429 . S
C795 N792 1.350 . S
C795 C794 1.434 . S
C796 C797 1.369 . S
C796 C798 1.419 . S
C796 H800 0.930 . S
C797 C796 1.369 . S
C797 C806 1.429 . S
C798 C796 1.419 . S
C798 C799 1.363 . S
C798 H801 0.929 . S
C799 C798 1.363 . S
C799 C805 1.428 . S
H800 C796 0.930 . S
H801 C798 0.929 . S
S802 N803 1.613 . S
S802 N804 1.610 . S
N803 S802 1.613 . S
N803 C806 1.350 . S
N804 S802 1.610 . S
N804 C805 1.351 . S
C805 C799 1.428 . S
C805 N804 1.351 . S
C805 C806 1.434 . S
C806 C797 1.429 . S
C806 N803 1.350 . S
C806 C805 1.434 . S
C807 C808 1.369 . S
C807 C809 1.419 . S
C807 H811 0.930 . S
C808 C807 1.369 . S
C808 C817 1.429 . S
C809 C807 1.419 . S
C809 C810 1.363 . S
C809 H812 0.929 . S
C810 C809 1.363 . S
C810 C816 1.428 . S
H811 C807 0.930 . S
H812 C809 0.929 . S
S813 N814 1.613 . S
S813 N815 1.610 . S
N814 S813 1.613 . S
N814 C817 1.350 . S
N815 S813 1.610 . S
N815 C816 1.351 . S
C816 C810 1.428 . S
C816 N815 1.351 . S
C816 C817 1.434 . S
C817 C808 1.429 . S
C817 N814 1.350 . S
C817 C816 1.434 . S
C818 C819 1.369 . S
C818 C820 1.419 . S
C818 H822 0.930 . S
C819 C818 1.369 . S
C819 C828 1.429 . S
C820 C818 1.419 . S
C820 C821 1.363 . S
C820 H823 0.929 . S
C821 C820 1.363 . S
C821 C827 1.428 . S
H822 C818 0.930 . S
H823 C820 0.929 . S
S824 N825 1.613 . S
S824 N826 1.610 . S
N825 S824 1.613 . S
N825 C828 1.350 . S
N826 S824 1.610 . S
N826 C827 1.351 . S
C827 C821 1.428 . S
C827 N826 1.351 . S
C827 C828 1.434 . S
C828 C819 1.429 . S
C828 N825 1.350 . S
C828 C827 1.434 . S
C829 C830 1.369 . S
C829 C831 1.419 . S
C829 H833 0.930 . S
C830 C829 1.369 . S
C830 C839 1.429 . S
C831 C829 1.419 . S
C831 C832 1.363 . S
C831 H834 0.929 . S
C832 C831 1.363 . S
C832 C838 1.428 . S
H833 C829 0.930 . S
H834 C831 0.929 . S
S835 N836 1.613 . S
S835 N837 1.610 . S
N836 S835 1.613 . S
N836 C839 1.350 . S
N837 S835 1.610 . S
N837 C838 1.351 . S
C838 C832 1.428 . S
C838 N837 1.351 . S
C838 C839 1.434 . S
C839 C830 1.429 . S
C839 N836 1.350 . S
C839 C838 1.434 . S
C840 C841 1.369 . S
C840 C842 1.419 . S
C840 H844 0.930 . S
C841 C840 1.369 . S
C841 C850 1.429 . S
C842 C840 1.419 . S
C842 C843 1.363 . S
C842 H845 0.929 . S
C843 C842 1.363 . S
C843 C849 1.428 . S
H844 C840 0.930 . S
H845 C842 0.929 . S
S846 N847 1.613 . S
S846 N848 1.610 . S
N847 S846 1.613 . S
N847 C850 1.350 . S
N848 S846 1.610 . S
N848 C849 1.351 . S
C849 C843 1.428 . S
C849 N848 1.351 . S
C849 C850 1.434 . S
C850 C841 1.429 . S
C850 N847 1.350 . S
C850 C849 1.434 . S
C851 C852 1.369 . S
C851 C853 1.419 . S
C851 H855 0.930 . S
C852 C851 1.369 . S
C852 C861 1.429 . S
C853 C851 1.419 . S
C853 C854 1.363 . S
C853 H856 0.929 . S
C854 C853 1.363 . S
C854 C860 1.428 . S
H855 C851 0.930 . S
H856 C853 0.929 . S
S857 N858 1.613 . S
S857 N859 1.610 . S
N858 S857 1.613 . S
N858 C861 1.350 . S
N859 S857 1.610 . S
N859 C860 1.351 . S
C860 C854 1.428 . S
C860 N859 1.351 . S
C860 C861 1.434 . S
C861 C852 1.429 . S
C861 N858 1.350 . S
C861 C860 1.434 . S
C862 C863 1.369 . S
C862 C864 1.419 . S
C862 H866 0.930 . S
C863 C862 1.369 . S
C863 C872 1.429 . S
C864 C862 1.419 . S
C864 C865 1.363 . S
C864 H867 0.929 . S
C865 C864 1.363 . S
C865 C871 1.428 . S
H866 C862 0.930 . S
H867 C864 0.929 . S
S868 N869 1.613 . S
S868 N870 1.610 . S
N869 S868 1.613 . S
N869 C872 1.350 . S
N870 S868 1.610 . S
N870 C871 1.351 . S
C871 C865 1.428 . S
C871 N870 1.351 . S
C871 C872 1.434 . S
C872 C863 1.429 . S
C872 N869 1.350 . S
C872 C871 1.434 . S
C873 C874 1.369 . S
C873 C875 1.419 . S
C873 H877 0.930 . S
C874 C873 1.369 . S
C874 C883 1.429 . S
C875 C873 1.419 . S
C875 C876 1.363 . S
C875 H878 0.929 . S
C876 C875 1.363 . S
C876 C882 1.428 . S
H877 C873 0.930 . S
H878 C875 0.929 . S
S879 N880 1.613 . S
S879 N881 1.610 . S
N880 S879 1.613 . S
N880 C883 1.350 . S
N881 S879 1.610 . S
N881 C882 1.351 . S
C882 C876 1.428 . S
C882 N881 1.351 . S
C882 C883 1.434 . S
C883 C874 1.429 . S
C883 N880 1.350 . S
C883 C882 1.434 . S
C884 C885 1.369 . S
C884 C886 1.419 . S
C884 H888 0.930 . S
C885 C884 1.369 . S
C885 C894 1.429 . S
C886 C884 1.419 . S
C886 C887 1.363 . S
C886 H889 0.929 . S
C887 C886 1.363 . S
C887 C893 1.428 . S
H888 C884 0.930 . S
H889 C886 0.929 . S
S890 N891 1.613 . S
S890 N892 1.610 . S
N891 S890 1.613 . S
N891 C894 1.350 . S
N892 S890 1.610 . S
N892 C893 1.351 . S
C893 C887 1.428 . S
C893 N892 1.351 . S
C893 C894 1.434 . S
C894 C885 1.429 . S
C894 N891 1.350 . S
C894 C893 1.434 . S
C895 C896 1.369 . S
C895 C897 1.419 . S
C895 H899 0.930 . S
C896 C895 1.369 . S
C896 C905 1.429 . S
C897 C895 1.419 . S
C897 C898 1.363 . S
C897 H900 0.929 . S
C898 C897 1.363 . S
C898 C904 1.428 . S
H899 C895 0.930 . S
H900 C897 0.929 . S
S901 N902 1.613 . S
S901 N903 1.610 . S
N902 S901 1.613 . S
N902 C905 1.350 . S
N903 S901 1.610 . S
N903 C904 1.351 . S
C904 C898 1.428 . S
C904 N903 1.351 . S
C904 C905 1.434 . S
C905 C896 1.429 . S
C905 N902 1.350 . S
C905 C904 1.434 . S
C906 C907 1.369 . S
C906 C908 1.419 . S
C906 H910 0.930 . S
C907 C906 1.369 . S
C907 C916 1.429 . S
C908 C906 1.419 . S
C908 C909 1.363 . S
C908 H911 0.929 . S
C909 C908 1.363 . S
C909 C915 1.428 . S
H910 C906 0.930 . S
H911 C908 0.929 . S
S912 N913 1.613 . S
S912 N914 1.610 . S
N913 S912 1.613 . S
N913 C916 1.350 . S
N914 S912 1.610 . S
N914 C915 1.351 . S
C915 C909 1.428 . S
C915 N914 1.351 . S
C915 C916 1.434 . S
C916 C907 1.429 . S
C916 N913 1.350 . S
C916 C915 1.434 . S
C917 C918 1.369 . S
C917 C919 1.419 . S
C917 H921 0.930 . S
C918 C917 1.369 . S
C918 C927 1.429 . S
C919 C917 1.419 . S
C919 C920 1.363 . S
C919 H922 0.929 . S
C920 C919 1.363 . S
C920 C926 1.428 . S
H921 C917 0.930 . S
H922 C919 0.929 . S
S923 N924 1.613 . S
S923 N925 1.610 . S
N924 S923 1.613 . S
N924 C927 1.350 . S
N925 S923 1.610 . S
N925 C926 1.351 . S
C926 C920 1.428 . S
C926 N925 1.351 . S
C926 C927 1.434 . S
C927 C918 1.429 . S
C927 N924 1.350 . S
C927 C926 1.434 . S
C928 C929 1.369 . S
C928 C930 1.419 . S
C928 H932 0.930 . S
C929 C928 1.369 . S
C929 C938 1.429 . S
C930 C928 1.419 . S
C930 C931 1.363 . S
C930 H933 0.929 . S
C931 C930 1.363 . S
C931 C937 1.428 . S
H932 C928 0.930 . S
H933 C930 0.929 . S
S934 N935 1.613 . S
S934 N936 1.610 . S
N935 S934 1.613 . S
N935 C938 1.350 . S
N936 S934 1.610 . S
N936 C937 1.351 . S
C937 C931 1.428 . S
C937 N936 1.351 . S
C937 C938 1.434 . S
C938 C929 1.429 . S
C938 N935 1.350 . S
C938 C937 1.434 . S
C939 C940 1.369 . S
C939 C941 1.419 . S
C939 H943 0.930 . S
C940 C939 1.369 . S
C940 C949 1.429 . S
C941 C939 1.419 . S
C941 C942 1.363 . S
C941 H944 0.929 . S
C942 C941 1.363 . S
C942 C948 1.428 . S
H943 C939 0.930 . S
H944 C941 0.929 . S
S945 N946 1.613 . S
S945 N947 1.610 . S
N946 S945 1.613 . S
N946 C949 1.350 . S
N947 S945 1.610 . S
N947 C948 1.351 . S
C948 C942 1.428 . S
C948 N947 1.351 . S
C948 C949 1.434 . S
C949 C940 1.429 . S
C949 N946 1.350 . S
C949 C948 1.434 . S
C950 C951 1.369 . S
C950 C952 1.419 . S
C950 H954 0.930 . S
C951 C950 1.369 . S
C951 C960 1.429 . S
C952 C950 1.419 . S
C952 C953 1.363 . S
C952 H955 0.929 . S
C953 C952 1.363 . S
C953 C959 1.428 . S
H954 C950 0.930 . S
H955 C952 0.929 . S
S956 N957 1.613 . S
S956 N958 1.610 . S
N957 S956 1.613 . S
N957 C960 1.350 . S
N958 S956 1.610 . S
N958 C959 1.351 . S
C959 C953 1.428 . S
C959 N958 1.351 . S
C959 C960 1.434 . S
C960 C951 1.429 . S
C960 N957 1.350 . S
C960 C959 1.434 . S
C961 C962 1.369 . S
C961 C963 1.419 . S
C961 H965 0.930 . S
C962 C961 1.369 . S
C962 C971 1.429 . S
C963 C961 1.419 . S
C963 C964 1.363 . S
C963 H966 0.929 . S
C964 C963 1.363 . S
C964 C970 1.428 . S
H965 C961 0.930 . S
H966 C963 0.929 . S
S967 N968 1.613 . S
S967 N969 1.610 . S
N968 S967 1.613 . S
N968 C971 1.350 . S
N969 S967 1.610 . S
N969 C970 1.351 . S
C970 C964 1.428 . S
C970 N969 1.351 . S
C970 C971 1.434 . S
C971 C962 1.429 . S
C971 N968 1.350 . S
C971 C970 1.434 . S
C972 C973 1.369 . S
C972 C974 1.419 . S
C972 H976 0.930 . S
C973 C972 1.369 . S
C973 C982 1.429 . S
C974 C972 1.419 . S
C974 C975 1.363 . S
C974 H977 0.929 . S
C975 C974 1.363 . S
C975 C981 1.428 . S
H976 C972 0.930 . S
H977 C974 0.929 . S
S978 N979 1.613 1_556 S
S978 N980 1.610 1_556 S
N979 S978 1.613 1_554 S
N979 C982 1.350 . S
N980 S978 1.610 1_554 S
N980 C981 1.351 . S
C981 C975 1.428 . S
C981 N980 1.351 . S
C981 C982 1.434 . S
C982 C973 1.429 . S
C982 N979 1.350 . S
C982 C981 1.434 . S
C983 C984 1.369 . S
C983 C985 1.419 . S
C983 H987 0.930 . S
C984 C983 1.369 . S
C984 C993 1.429 . S
C985 C983 1.419 . S
C985 C986 1.363 . S
C985 H988 0.929 . S
C986 C985 1.363 . S
C986 C992 1.428 . S
H987 C983 0.930 . S
H988 C985 0.929 . S
S989 N990 1.613 . S
S989 N991 1.610 . S
N990 S989 1.613 . S
N990 C993 1.350 . S
N991 S989 1.610 . S
N991 C992 1.351 . S
C992 C986 1.428 . S
C992 N991 1.351 . S
C992 C993 1.434 . S
C993 C984 1.429 . S
C993 N990 1.350 . S
C993 C992 1.434 . S
C994 C995 1.369 . S
C994 C996 1.419 . S
C994 H998 0.930 . S
C995 C994 1.369 . S
C995 C1004 1.429 . S
C996 C994 1.419 . S
C996 C997 1.363 . S
C996 H999 0.929 . S
C997 C996 1.363 . S
C997 C1003 1.428 . S
H998 C994 0.930 . S
H999 C996 0.929 . S
S1000 N1001 1.613 . S
S1000 N1002 1.610 . S
N1001 S1000 1.613 . S
N1001 C1004 1.350 . S
N1002 S1000 1.610 . S
N1002 C1003 1.351 . S
C1003 C997 1.428 . S
C1003 N1002 1.351 . S
C1003 C1004 1.434 . S
C1004 C995 1.429 . S
C1004 N1001 1.350 . S
C1004 C1003 1.434 . S
C1005 C1006 1.369 . S
C1005 C1007 1.419 . S
C1005 H1009 0.917 1_556 S
C1006 C1005 1.369 . S
C1006 C1015 1.429 . S
C1007 C1005 1.419 . S
C1007 C1008 1.363 . S
C1007 H1010 0.929 . S
C1008 C1007 1.363 . S
C1008 C1014 1.428 . S
H1009 C1005 0.917 1_554 S
H1010 C1007 0.929 . S
S1011 N1012 1.613 . S
S1011 N1013 1.610 . S
N1012 S1011 1.613 . S
N1012 C1015 1.350 . S
N1013 S1011 1.610 . S
N1013 C1014 1.351 . S
C1014 C1008 1.428 . S
C1014 N1013 1.351 . S
C1014 C1015 1.434 . S
C1015 C1006 1.429 . S
C1015 N1012 1.350 . S
C1015 C1014 1.434 . S
C1016 C1017 1.369 . S
C1016 C1018 1.419 . S
C1016 H1020 0.930 . S
C1017 C1016 1.369 . S
C1017 C1026 1.429 . S
C1018 C1016 1.419 . S
C1018 C1019 1.363 . S
C1018 H1021 0.929 . S
C1019 C1018 1.363 . S
C1019 C1025 1.428 . S
H1020 C1016 0.930 . S
H1021 C1018 0.929 . S
S1022 N1023 1.613 . S
S1022 N1024 1.610 . S
N1023 S1022 1.613 . S
N1023 C1026 1.350 . S
N1024 S1022 1.610 . S
N1024 C1025 1.351 . S
C1025 C1019 1.428 . S
C1025 N1024 1.351 . S
C1025 C1026 1.434 . S
C1026 C1017 1.429 . S
C1026 N1023 1.350 . S
C1026 C1025 1.434 . S
C1027 C1028 1.369 . S
C1027 C1029 1.419 . S
C1027 H1031 0.930 . S
C1028 C1027 1.369 . S
C1028 C1037 1.429 . S
C1029 C1027 1.419 . S
C1029 C1030 1.363 . S
C1029 H1032 0.929 . S
C1030 C1029 1.363 . S
C1030 C1036 1.428 . S
H1031 C1027 0.930 . S
H1032 C1029 0.929 . S
S1033 N1034 1.613 . S
S1033 N1035 1.610 1_554 S
N1034 S1033 1.613 . S
N1034 C1037 1.350 1_554 S
N1035 S1033 1.610 1_556 S
N1035 C1036 1.351 . S
C1036 C1030 1.428 . S
C1036 N1035 1.351 . S
C1036 C1037 1.434 . S
C1037 C1028 1.429 . S
C1037 N1034 1.350 1_556 S
C1037 C1036 1.434 . S
C1038 C1039 1.369 . S
C1038 C1040 1.419 . S
C1038 H1042 0.930 1_556 S
C1039 C1038 1.369 . S
C1039 C1048 1.429 . S
C1040 C1038 1.419 . S
C1040 C1041 1.363 . S
C1040 H1043 0.929 . S
C1041 C1040 1.363 . S
C1041 C1047 1.428 . S
H1042 C1038 0.930 1_554 S
H1043 C1040 0.929 . S
S1044 N1045 1.613 . S
S1044 N1046 1.610 . S
N1045 S1044 1.613 . S
N1045 C1048 1.350 . S
N1046 S1044 1.610 . S
N1046 C1047 1.351 . S
C1047 C1041 1.428 . S
C1047 N1046 1.351 . S
C1047 C1048 1.434 . S
C1048 C1039 1.429 . S
C1048 N1045 1.350 . S
C1048 C1047 1.434 . S
C1049 C1050 1.369 . S
C1049 C1051 1.419 . S
C1049 H1053 0.930 . S
C1050 C1049 1.369 . S
C1050 C1059 1.429 . S
C1051 C1049 1.419 . S
C1051 C1052 1.363 . S
C1051 H1054 0.929 . S
C1052 C1051 1.363 . S
C1052 C1058 1.428 . S
H1053 C1049 0.930 . S
H1054 C1051 0.929 . S
S1055 N1056 1.613 . S
S1055 N1057 1.610 1_554 S
N1056 S1055 1.613 . S
N1056 C1059 1.350 1_554 S
N1057 S1055 1.610 1_556 S
N1057 C1058 1.351 . S
C1058 C1052 1.428 . S
C1058 N1057 1.351 . S
C1058 C1059 1.434 . S
C1059 C1050 1.429 . S
C1059 N1056 1.350 1_556 S
C1059 C1058 1.434 . S
C1060 C1061 1.369 . S
C1060 C1062 1.419 . S
C1060 H1064 0.930 . S
C1061 C1060 1.369 . S
C1061 C1070 1.429 . S
C1062 C1060 1.419 . S
C1062 C1063 1.363 . S
C1062 H1065 0.929 . S
C1063 C1062 1.363 . S
C1063 C1069 1.428 . S
H1064 C1060 0.930 . S
H1065 C1062 0.929 . S
S1066 N1067 1.613 . S
S1066 N1068 1.610 . S
N1067 S1066 1.613 . S
N1067 C1070 1.350 . S
N1068 S1066 1.610 . S
N1068 C1069 1.351 . S
C1069 C1063 1.428 . S
C1069 N1068 1.351 . S
C1069 C1070 1.434 . S
C1070 C1061 1.429 . S
C1070 N1067 1.350 . S
C1070 C1069 1.434 . S
C1071 C1072 1.369 . S
C1071 C1073 1.419 . S
C1071 H1075 0.930 . S
C1072 C1071 1.369 . S
C1072 C1081 1.429 . S
C1073 C1071 1.419 . S
C1073 C1074 1.363 . S
C1073 H1076 0.929 . S
C1074 C1073 1.363 . S
C1074 C1080 1.428 . S
H1075 C1071 0.930 . S
H1076 C1073 0.929 . S
S1077 N1078 1.613 1_556 S
S1077 N1079 1.610 1_556 S
N1078 S1077 1.613 1_554 S
N1078 C1081 1.350 . S
N1079 S1077 1.610 1_554 S
N1079 C1080 1.351 . S
C1080 C1074 1.428 . S
C1080 N1079 1.351 . S
C1080 C1081 1.434 . S
C1081 C1072 1.429 . S
C1081 N1078 1.350 . S
C1081 C1080 1.434 . S
C1082 C1083 1.369 . S
C1082 C1084 1.419 . S
C1082 H1086 0.930 . S
C1083 C1082 1.369 . S
C1083 C1092 1.429 . S
C1084 C1082 1.419 . S
C1084 C1085 1.363 . S
C1084 H1087 0.929 . S
C1085 C1084 1.363 . S
C1085 C1091 1.428 . S
H1086 C1082 0.930 . S
H1087 C1084 0.929 . S
S1088 N1089 1.613 . S
S1088 N1090 1.610 . S
N1089 S1088 1.613 . S
N1089 C1092 1.350 . S
N1090 S1088 1.610 . S
N1090 C1091 1.351 . S
C1091 C1085 1.428 . S
C1091 N1090 1.351 . S
C1091 C1092 1.434 . S
C1092 C1083 1.429 . S
C1092 N1089 1.350 . S
C1092 C1091 1.434 . S
C1093 C1094 1.369 . S
C1093 C1095 1.419 . S
C1093 H1097 0.930 . S
C1094 C1093 1.369 . S
C1094 C1103 1.429 . S
C1095 C1093 1.419 . S
C1095 C1096 1.363 . S
C1095 H1098 0.929 . S
C1096 C1095 1.363 . S
C1096 C1102 1.428 . S
H1097 C1093 0.930 . S
H1098 C1095 0.929 . S
S1099 N1100 1.613 . S
S1099 N1101 1.610 . S
N1100 S1099 1.613 . S
N1100 C1103 1.350 . S
N1101 S1099 1.610 . S
N1101 C1102 1.351 . S
C1102 C1096 1.428 . S
C1102 N1101 1.351 . S
C1102 C1103 1.434 . S
C1103 C1094 1.429 . S
C1103 N1100 1.350 . S
C1103 C1102 1.434 . S
C1104 C1105 1.369 . S
C1104 C1106 1.419 . S
C1104 H1108 0.930 . S
C1105 C1104 1.369 . S
C1105 C1114 1.429 . S
C1106 C1104 1.419 . S
C1106 C1107 1.363 . S
C1106 H1109 0.929 . S
C1107 C1106 1.363 . S
C1107 C1113 1.428 . S
H1108 C1104 0.930 . S
H1109 C1106 0.929 . S
S1110 N1111 1.613 . S
S1110 N1112 1.610 . S
N1111 S1110 1.613 . S
N1111 C1114 1.350 . S
N1112 S1110 1.610 . S
N1112 C1113 1.351 . S
C1113 C1107 1.428 . S
C1113 N1112 1.351 . S
C1113 C1114 1.434 . S
C1114 C1105 1.429 . S
C1114 N1111 1.350 . S
C1114 C1113 1.434 . S
C1115 C1116 1.369 . S
C1115 C1117 1.419 . S
C1115 H1119 0.930 . S
C1116 C1115 1.369 . S
C1116 C1125 1.429 . S
C1117 C1115 1.419 . S
C1117 C1118 1.363 . S
C1117 H1120 0.929 . S
C1118 C1117 1.363 . S
C1118 C1124 1.428 . S
H1119 C1115 0.930 . S
H1120 C1117 0.929 . S
S1121 N1122 1.613 . S
S1121 N1123 1.610 . S
N1122 S1121 1.613 . S
N1122 C1125 1.350 . S
N1123 S1121 1.610 . S
N1123 C1124 1.351 . S
C1124 C1118 1.428 . S
C1124 N1123 1.351 . S
C1124 C1125 1.434 . S
C1125 C1116 1.429 . S
C1125 N1122 1.350 . S
C1125 C1124 1.434 . S
C1126 C1127 1.369 . S
C1126 C1128 1.419 . S
C1126 H1130 0.930 . S
C1127 C1126 1.369 . S
C1127 C1136 1.429 . S
C1128 C1126 1.419 . S
C1128 C1129 1.363 . S
C1128 H1131 0.929 . S
C1129 C1128 1.363 . S
C1129 C1135 1.428 . S
H1130 C1126 0.930 . S
H1131 C1128 0.929 . S
S1132 N1133 1.613 . S
S1132 N1134 1.610 . S
N1133 S1132 1.613 . S
N1133 C1136 1.350 . S
N1134 S1132 1.610 . S
N1134 C1135 1.351 . S
C1135 C1129 1.428 . S
C1135 N1134 1.351 . S
C1135 C1136 1.434 . S
C1136 C1127 1.429 . S
C1136 N1133 1.350 . S
C1136 C1135 1.434 . S
C1137 C1138 1.369 . S
C1137 C1139 1.419 . S
C1137 H1141 0.930 . S
C1138 C1137 1.369 . S
C1138 C1147 1.429 1_455 S
C1139 C1137 1.419 . S
C1139 C1140 1.363 . S
C1139 H1142 0.929 . S
C1140 C1139 1.363 . S
C1140 C1146 1.428 1_455 S
H1141 C1137 0.930 . S
H1142 C1139 0.929 . S
S1143 N1144 1.613 . S
S1143 N1145 1.610 . S
N1144 S1143 1.613 . S
N1144 C1147 1.350 . S
N1145 S1143 1.610 . S
N1145 C1146 1.351 . S
C1146 C1140 1.428 1_655 S
C1146 N1145 1.351 . S
C1146 C1147 1.434 . S
C1147 C1138 1.429 1_655 S
C1147 N1144 1.350 . S
C1147 C1146 1.434 . S
C1148 C1149 1.369 . S
C1148 C1150 1.419 . S
C1148 H1152 0.930 . S
C1149 C1148 1.369 . S
C1149 C1158 1.429 . S
C1150 C1148 1.419 . S
C1150 C1151 1.363 . S
C1150 H1153 0.929 . S
C1151 C1150 1.363 . S
C1151 C1157 1.428 . S
H1152 C1148 0.930 . S
H1153 C1150 0.929 . S
S1154 N1155 1.613 . S
S1154 N1156 1.610 . S
N1155 S1154 1.613 . S
N1155 C1158 1.350 . S
N1156 S1154 1.610 . S
N1156 C1157 1.351 . S
C1157 C1151 1.428 . S
C1157 N1156 1.351 . S
C1157 C1158 1.434 . S
C1158 C1149 1.429 . S
C1158 N1155 1.350 . S
C1158 C1157 1.434 . S
C1159 C1160 1.369 1_545 S
C1159 C1161 1.419 . S
C1159 H1163 0.930 . S
C1160 C1159 1.369 1_565 S
C1160 C1169 1.429 . S
C1161 C1159 1.419 . S
C1161 C1162 1.363 1_545 S
C1161 H1164 0.929 . S
C1162 C1161 1.363 1_565 S
C1162 C1168 1.428 . S
H1163 C1159 0.930 . S
H1164 C1161 0.929 . S
S1165 N1166 1.613 . S
S1165 N1167 1.610 . S
N1166 S1165 1.613 . S
N1166 C1169 1.350 . S
N1167 S1165 1.610 . S
N1167 C1168 1.351 . S
C1168 C1162 1.428 . S
C1168 N1167 1.351 . S
C1168 C1169 1.434 . S
C1169 C1160 1.429 . S
C1169 N1166 1.350 . S
C1169 C1168 1.434 . S
C1170 C1171 1.369 . S
C1170 C1172 1.419 . S
C1170 H1174 0.930 . S
C1171 C1170 1.369 . S
C1171 C1180 1.429 1_565 S
C1172 C1170 1.419 . S
C1172 C1173 1.362 1_565 S
C1172 H1175 0.929 . S
C1173 C1172 1.362 1_545 S
C1173 C1179 1.429 . S
H1174 C1170 0.930 . S
H1175 C1172 0.929 . S
S1176 N1177 1.613 . S
S1176 N1178 1.610 . S
N1177 S1176 1.613 . S
N1177 C1180 1.350 . S
N1178 S1176 1.610 . S
N1178 C1179 1.351 . S
C1179 C1173 1.429 . S
C1179 N1178 1.351 . S
C1179 C1180 1.434 . S
C1180 C1171 1.429 1_545 S
C1180 N1177 1.350 . S
C1180 C1179 1.434 . S
C1181 C1182 1.369 . S
C1181 C1183 1.419 . S
C1181 H1185 0.930 . S
C1182 C1181 1.369 . S
C1182 C1191 1.429 1_455 S
C1183 C1181 1.419 . S
C1183 C1184 1.354 1_455 S
C1183 H1186 0.929 . S
C1184 C1183 1.354 1_655 S
C1184 C1190 1.445 . S
H1185 C1181 0.930 . S
H1186 C1183 0.929 . S
S1187 N1188 1.613 . S
S1187 N1189 1.610 . S
N1188 S1187 1.613 . S
N1188 C1191 1.350 . S
N1189 S1187 1.610 . S
N1189 C1190 1.351 . S
C1190 C1184 1.445 . S
C1190 N1189 1.351 . S
C1190 C1191 1.434 . S
C1191 C1182 1.429 1_655 S
C1191 N1188 1.350 . S
C1191 C1190 1.434 . S
C1192 C1193 1.369 . S
C1192 C1194 1.419 . S
C1192 H1196 0.930 . S
C1193 C1192 1.369 . S
C1193 C1202 1.429 . S
C1194 C1192 1.419 . S
C1194 C1195 1.363 . S
C1194 H1197 0.929 . S
C1195 C1194 1.363 . S
C1195 C1201 1.428 . S
H1196 C1192 0.930 . S
H1197 C1194 0.929 . S
S1198 N1199 1.613 . S
S1198 N1200 1.610 . S
N1199 S1198 1.613 . S
N1199 C1202 1.350 . S
N1200 S1198 1.610 . S
N1200 C1201 1.351 . S
C1201 C1195 1.428 . S
C1201 N1200 1.351 . S
C1201 C1202 1.434 . S
C1202 C1193 1.429 . S
C1202 N1199 1.350 . S
C1202 C1201 1.434 . S
C1203 C1204 1.369 . S
C1203 C1205 1.419 . S
C1203 H1207 0.930 . S
C1204 C1203 1.369 . S
C1204 C1213 1.429 . S
C1205 C1203 1.419 . S
C1205 C1206 1.363 . S
C1205 H1208 0.929 . S
C1206 C1205 1.363 . S
C1206 C1212 1.428 . S
H1207 C1203 0.930 . S
H1208 C1205 0.929 . S
S1209 N1210 1.613 . S
S1209 N1211 1.610 . S
N1210 S1209 1.613 . S
N1210 C1213 1.350 . S
N1211 S1209 1.610 . S
N1211 C1212 1.351 . S
C1212 C1206 1.428 . S
C1212 N1211 1.351 . S
C1212 C1213 1.434 . S
C1213 C1204 1.429 . S
C1213 N1210 1.350 . S
C1213 C1212 1.434 . S
C1214 C1215 1.369 . S
C1214 C1216 1.419 . S
C1214 H1218 0.930 . S
C1215 C1214 1.369 . S
C1215 C1224 1.429 . S
C1216 C1214 1.419 . S
C1216 C1217 1.363 . S
C1216 H1219 0.929 . S
C1217 C1216 1.363 . S
C1217 C1223 1.428 . S
H1218 C1214 0.930 . S
H1219 C1216 0.929 . S
S1220 N1221 1.613 . S
S1220 N1222 1.610 . S
N1221 S1220 1.613 . S
N1221 C1224 1.350 . S
N1222 S1220 1.610 . S
N1222 C1223 1.351 . S
C1223 C1217 1.428 . S
C1223 N1222 1.351 . S
C1223 C1224 1.434 . S
C1224 C1215 1.429 . S
C1224 N1221 1.350 . S
C1224 C1223 1.434 . S
C1225 C1226 1.369 . S
C1225 C1227 1.419 . S
C1225 H1229 0.930 . S
C1226 C1225 1.369 . S
C1226 C1235 1.429 . S
C1227 C1225 1.419 . S
C1227 C1228 1.363 . S
C1227 H1230 0.929 . S
C1228 C1227 1.363 . S
C1228 C1234 1.428 . S
H1229 C1225 0.930 . S
H1230 C1227 0.929 . S
S1231 N1232 1.613 . S
S1231 N1233 1.610 . S
N1232 S1231 1.613 . S
N1232 C1235 1.350 . S
N1233 S1231 1.610 . S
N1233 C1234 1.351 . S
C1234 C1228 1.428 . S
C1234 N1233 1.351 . S
C1234 C1235 1.434 . S
C1235 C1226 1.429 . S
C1235 N1232 1.350 . S
C1235 C1234 1.434 . S
C1236 C1237 1.369 . S
C1236 C1238 1.419 . S
C1236 H1240 0.930 . S
C1237 C1236 1.369 . S
C1237 C1246 1.429 . S
C1238 C1236 1.419 . S
C1238 C1239 1.363 . S
C1238 H1241 0.929 . S
C1239 C1238 1.363 . S
C1239 C1245 1.428 . S
H1240 C1236 0.930 . S
H1241 C1238 0.929 . S
S1242 N1243 1.618 . S
S1242 N1244 1.608 . S
N1243 S1242 1.618 . S
N1243 C1246 1.350 . S
N1244 S1242 1.608 . S
N1244 C1245 1.351 . S
C1245 C1239 1.428 . S
C1245 N1244 1.351 . S
C1245 C1246 1.434 . S
C1246 C1237 1.429 . S
C1246 N1243 1.350 . S
C1246 C1245 1.434 . S
C1247 C1248 1.369 . S
C1247 C1249 1.419 . S
C1247 H1251 0.930 . S
C1248 C1247 1.369 . S
C1248 C1257 1.429 1_655 S
C1249 C1247 1.419 . S
C1249 C1250 1.363 . S
C1249 H1252 0.929 . S
C1250 C1249 1.363 . S
C1250 C1256 1.428 1_655 S
H1251 C1247 0.930 . S
H1252 C1249 0.929 . S
S1253 N1254 1.613 . S
S1253 N1255 1.610 . S
N1254 S1253 1.613 . S
N1254 C1257 1.350 . S
N1255 S1253 1.610 . S
N1255 C1256 1.351 . S
C1256 C1250 1.428 1_455 S
C1256 N1255 1.351 . S
C1256 C1257 1.434 . S
C1257 C1248 1.429 1_455 S
C1257 N1254 1.350 . S
C1257 C1256 1.434 . S
C1258 C1259 1.369 . S
C1258 C1260 1.419 . S
C1258 H1262 0.930 . S
C1259 C1258 1.369 . S
C1259 C1268 1.429 . S
C1260 C1258 1.419 . S
C1260 C1261 1.363 . S
C1260 H1263 0.929 . S
C1261 C1260 1.363 . S
C1261 C1267 1.428 . S
H1262 C1258 0.930 . S
H1263 C1260 0.929 . S
S1264 N1265 1.613 . S
S1264 N1266 1.610 . S
N1265 S1264 1.613 . S
N1265 C1268 1.350 . S
N1266 S1264 1.610 . S
N1266 C1267 1.351 . S
C1267 C1261 1.428 . S
C1267 N1266 1.351 . S
C1267 C1268 1.434 . S
C1268 C1259 1.429 . S
C1268 N1265 1.350 . S
C1268 C1267 1.434 . S
C1269 C1270 1.369 . S
C1269 C1271 1.419 . S
C1269 H1273 0.930 . S
C1270 C1269 1.369 . S
C1270 C1279 1.429 . S
C1271 C1269 1.419 . S
C1271 C1272 1.363 . S
C1271 H1274 0.929 . S
C1272 C1271 1.363 . S
C1272 C1278 1.428 . S
H1273 C1269 0.930 . S
H1274 C1271 0.929 . S
S1275 N1276 1.613 . S
S1275 N1277 1.610 . S
N1276 S1275 1.613 . S
N1276 C1279 1.350 . S
N1277 S1275 1.610 . S
N1277 C1278 1.351 . S
C1278 C1272 1.428 . S
C1278 N1277 1.351 . S
C1278 C1279 1.434 . S
C1279 C1270 1.429 . S
C1279 N1276 1.350 . S
C1279 C1278 1.434 . S
C1280 C1281 1.369 . S
C1280 C1282 1.419 . S
C1280 H1284 0.930 . S
C1281 C1280 1.369 . S
C1281 C1290 1.429 . S
C1282 C1280 1.419 . S
C1282 C1283 1.363 . S
C1282 H1285 0.929 . S
C1283 C1282 1.363 . S
C1283 C1289 1.428 . S
H1284 C1280 0.930 . S
H1285 C1282 0.929 . S
S1286 N1287 1.613 . S
S1286 N1288 1.610 . S
N1287 S1286 1.613 . S
N1287 C1290 1.350 . S
N1288 S1286 1.610 . S
N1288 C1289 1.351 . S
C1289 C1283 1.428 . S
C1289 N1288 1.351 . S
C1289 C1290 1.434 . S
C1290 C1281 1.429 . S
C1290 N1287 1.350 . S
C1290 C1289 1.434 . S
C1291 C1292 1.369 . S
C1291 C1293 1.419 . S
C1291 H1295 0.930 . S
C1292 C1291 1.369 . S
C1292 C1301 1.429 . S
C1293 C1291 1.419 . S
C1293 C1294 1.363 . S
C1293 H1296 0.929 . S
C1294 C1293 1.363 . S
C1294 C1300 1.428 . S
H1295 C1291 0.930 . S
H1296 C1293 0.929 . S
S1297 N1298 1.613 . S
S1297 N1299 1.610 . S
N1298 S1297 1.613 . S
N1298 C1301 1.350 . S
N1299 S1297 1.610 . S
N1299 C1300 1.351 . S
C1300 C1294 1.428 . S
C1300 N1299 1.351 . S
C1300 C1301 1.434 . S
C1301 C1292 1.429 . S
C1301 N1298 1.350 . S
C1301 C1300 1.434 . S
C1302 C1303 1.369 . S
C1302 C1304 1.419 . S
C1302 H1306 0.930 . S
C1303 C1302 1.369 . S
C1303 C1312 1.429 . S
C1304 C1302 1.419 . S
C1304 C1305 1.363 . S
C1304 H1307 0.929 . S
C1305 C1304 1.363 . S
C1305 C1311 1.428 . S
H1306 C1302 0.930 . S
H1307 C1304 0.929 . S
S1308 N1309 1.613 . S
S1308 N1310 1.610 . S
N1309 S1308 1.613 . S
N1309 C1312 1.350 . S
N1310 S1308 1.610 . S
N1310 C1311 1.351 . S
C1311 C1305 1.428 . S
C1311 N1310 1.351 . S
C1311 C1312 1.434 . S
C1312 C1303 1.429 . S
C1312 N1309 1.350 . S
C1312 C1311 1.434 . S
C1313 C1314 1.369 . S
C1313 C1315 1.419 . S
C1313 H1317 0.930 . S
C1314 C1313 1.369 . S
C1314 C1323 1.429 . S
C1315 C1313 1.419 . S
C1315 C1316 1.363 . S
C1315 H1318 0.929 . S
C1316 C1315 1.363 . S
C1316 C1322 1.428 . S
H1317 C1313 0.930 . S
H1318 C1315 0.929 . S
S1319 N1320 1.613 . S
S1319 N1321 1.610 . S
N1320 S1319 1.613 . S
N1320 C1323 1.350 . S
N1321 S1319 1.610 . S
N1321 C1322 1.351 . S
C1322 C1316 1.428 . S
C1322 N1321 1.351 . S
C1322 C1323 1.434 . S
C1323 C1314 1.429 . S
C1323 N1320 1.350 . S
C1323 C1322 1.434 . S
C1324 C1325 1.369 . S
C1324 C1326 1.419 . S
C1324 H1328 0.930 . S
C1325 C1324 1.369 . S
C1325 C1334 1.429 . S
C1326 C1324 1.419 . S
C1326 C1327 1.363 . S
C1326 H1329 0.929 . S
C1327 C1326 1.363 . S
C1327 C1333 1.428 . S
H1328 C1324 0.930 . S
H1329 C1326 0.929 . S
S1330 N1331 1.613 . S
S1330 N1332 1.610 . S
N1331 S1330 1.613 . S
N1331 C1334 1.350 . S
N1332 S1330 1.610 . S
N1332 C1333 1.351 . S
C1333 C1327 1.428 . S
C1333 N1332 1.351 . S
C1333 C1334 1.434 . S
C1334 C1325 1.429 . S
C1334 N1331 1.350 . S
C1334 C1333 1.434 . S
C1335 C1336 1.369 1_455 S
C1335 C1337 1.419 . S
C1335 H1339 0.930 . S
C1336 C1335 1.369 1_655 S
C1336 C1345 1.429 . S
C1337 C1335 1.419 . S
C1337 C1338 1.363 1_455 S
C1337 H1340 0.929 . S
C1338 C1337 1.363 1_655 S
C1338 C1344 1.428 . S
H1339 C1335 0.930 . S
H1340 C1337 0.929 . S
S1341 N1342 1.613 . S
S1341 N1343 1.610 . S
N1342 S1341 1.613 . S
N1342 C1345 1.350 . S
N1343 S1341 1.610 . S
N1343 C1344 1.351 . S
C1344 C1338 1.428 . S
C1344 N1343 1.351 . S
C1344 C1345 1.434 . S
C1345 C1336 1.429 . S
C1345 N1342 1.350 . S
C1345 C1344 1.434 . S
C1346 C1347 1.369 . S
C1346 C1348 1.419 . S
C1346 H1350 0.930 . S
C1347 C1346 1.369 . S
C1347 C1356 1.429 . S
C1348 C1346 1.419 . S
C1348 C1349 1.363 . S
C1348 H1351 0.929 . S
C1349 C1348 1.363 . S
C1349 C1355 1.428 . S
H1350 C1346 0.930 . S
H1351 C1348 0.929 . S
S1352 N1353 1.613 . S
S1352 N1354 1.610 . S
N1353 S1352 1.613 . S
N1353 C1356 1.350 . S
N1354 S1352 1.610 . S
N1354 C1355 1.351 . S
C1355 C1349 1.428 . S
C1355 N1354 1.351 . S
C1355 C1356 1.434 . S
C1356 C1347 1.429 . S
C1356 N1353 1.350 . S
C1356 C1355 1.434 . S
C1357 C1358 1.369 1_565 S
C1357 C1359 1.419 . S
C1357 H1361 0.930 . S
C1358 C1357 1.369 1_545 S
C1358 C1367 1.429 . S
C1359 C1357 1.419 . S
C1359 C1360 1.364 1_565 S
C1359 H1362 0.929 . S
C1360 C1359 1.364 1_545 S
C1360 C1366 1.428 . S
H1361 C1357 0.930 . S
H1362 C1359 0.929 . S
S1363 N1364 1.613 . S
S1363 N1365 1.610 . S
N1364 S1363 1.613 . S
N1364 C1367 1.350 . S
N1365 S1363 1.610 . S
N1365 C1366 1.351 . S
C1366 C1360 1.428 . S
C1366 N1365 1.351 . S
C1366 C1367 1.434 . S
C1367 C1358 1.429 . S
C1367 N1364 1.350 . S
C1367 C1366 1.434 . S
C577 C7 1.508 . S
C579 C421 1.524 . S
C588 C23 1.585 . S
C590 C446 1.567 . S
C601 C457 1.524 . S
C599 C37 1.518 . S
C610 C35 1.511 . S
C612 C482 1.532 . S
C621 C9 1.542 1_455 S
C623 C500 1.537 . S
C632 C21 1.548 . S
C634 C511 1.558 . S
C643 C49 1.513 . S
C645 C493 1.523 . S
C656 C518 1.538 . S
C654 C65 1.544 . S
C667 C475 1.521 . S
C665 C79 1.520 1_565 S
C676 C77 1.505 . S
C678 C464 1.518 1_545 S
C689 C428 1.527 . S
C687 C51 1.524 1_655 S
C698 C63 1.524 . S
C700 C439 1.542 . S
C709 C91 1.579 . S
C711 C529 1.586 . S
C720 C107 1.621 . S
C722 C554 1.598 . S
C733 C565 1.586 . S
C731 C121 1.632 . S
C742 C119 1.573 . S
C744 C266 1.592 . S
C753 C93 1.629 . S
C755 C284 1.598 . S
C764 C105 1.566 . S
C766 C295 1.584 . S
C775 C133 1.516 . S
C777 C277 1.541 . S
C786 C149 1.561 . S
C788 C302 1.551 . S
C799 C259 1.563 . S
C797 C163 1.576 . S
C810 C572 1.584 . S
C808 C161 1.565 . S
C821 C536 1.561 . S
C819 C135 1.577 . S
C832 C547 1.579 . S
C830 C147 1.553 . S
C841 C175 1.541 . S
C843 C313 1.560 . S
C852 C191 1.604 . S
C854 C338 1.580 . S
C863 C205 1.622 . S
C865 C349 1.580 . S
C874 C203 1.594 . S
C876 C374 1.626 . S
C887 C392 1.603 . S
C885 C177 1.634 . S
C898 C403 1.596 . S
C896 C189 1.585 . S
C909 C385 1.578 . S
C907 C217 1.547 . S
C920 C410 1.567 . S
C918 C233 1.577 . S
C929 C247 1.579 . S
C931 C367 1.561 . S
C942 C356 1.555 . S
C940 C245 1.532 . S
C951 C219 1.577 . S
C953 C320 1.560 . S
C964 C331 1.568 . S
C962 C231 1.542 . S
C975 C268 1.453 . S
C973 C8 1.512 . S
C984 C17 1.483 . S
C986 C286 1.406 . S
C997 C296 1.455 . S
C995 C31 1.525 . S
C1008 C314 1.455 . S
C1006 C36 1.529 . S
C1019 C340 1.434 . S
C1017 C3 1.511 . S
C1030 C350 1.406 . S
C1028 C22 1.481 . S
C1039 C50 1.555 . S
C1041 C358 1.452 . S
C1050 C59 1.513 . S
C1052 C322 1.412 . S
C1061 C73 1.546 . S
C1063 C332 1.464 . S
C1072 C78 1.573 . S
C1074 C278 1.494 . S
C1085 C304 1.446 . S
C1083 C45 1.542 . S
C1094 C64 1.523 . S
C1096 C260 1.429 . S
C1107 C376 1.442 . S
C1105 C92 1.516 . S
C1116 C101 1.544 . S
C1118 C394 1.461 . S
C1127 C115 1.559 . S
C1129 C404 1.477 . S
C1140 C422 1.421 . S
C1138 C120 1.486 . S
C1149 C87 1.513 . S
C1151 C448 1.430 . S
C1160 C106 1.465 . S
C1162 C458 1.405 . S
C1171 C134 1.484 . S
C1173 C466 1.423 1_545 S
C1182 C143 1.485 . S
C1184 C430 1.393 1_655 S
C1195 C440 1.469 . S
C1193 C157 1.551 . S
C1204 C162 1.556 . S
C1206 C386 1.463 . S
C1215 C129 1.582 . S
C1217 C412 1.475 . S
C1228 C368 1.477 . S
C1226 C148 1.571 . S
C1239 C484 1.413 . S
C1237 C176 1.480 . S
C1248 C185 1.482 . S
C1250 C502 1.401 . S
C1259 C199 1.524 . S
C1261 C512 1.448 . S
C1272 C530 1.433 . S
C1270 C204 1.517 . S
C1283 C556 1.469 . S
C1281 C171 1.553 . S
C1292 C190 1.534 . S
C1294 C566 1.459 . S
C1303 C218 1.552 . S
C1305 C574 1.452 . S
C1314 C227 1.572 . S
C1316 C538 1.468 . S
C1327 C548 1.488 . S
C1325 C241 1.581 . S
C1338 C494 1.403 1_655 S
C1336 C246 1.487 . S
C1349 C520 1.434 . S
C1347 C213 1.543 . S
C1358 C232 1.471 . S
C1360 C476 1.405 1_545 S
