# Generated by pormake.
# Topology eea, (3,6)-cn, num edge types: 1
# Building blocks:
#     Node 0, Type 0, BuildingBlock: VETTIZ_charged_linker_0, # of connection points: 3
#     Node 1, Type 0, BuildingBlock: VETTIZ_charged_linker_0, # of connection points: 3
#     Node 2, Type 0, BuildingBlock: VETTIZ_charged_linker_0, # of connection points: 3
#     Node 3, Type 0, BuildingBlock: VETTIZ_charged_linker_0, # of connection points: 3
#     Node 4, Type 0, BuildingBlock: VETTIZ_charged_linker_0, # of connection points: 3
#     Node 5, Type 0, BuildingBlock: VETTIZ_charged_linker_0, # of connection points: 3
#     Node 6, Type 0, BuildingBlock: VETTIZ_charged_linker_0, # of connection points: 3
#     Node 7, Type 0, BuildingBlock: VETTIZ_charged_linker_0, # of connection points: 3
#     Node 8, Type 0, BuildingBlock: VETTIZ_charged_linker_0, # of connection points: 3
#     Node 9, Type 0, BuildingBlock: VETTIZ_charged_linker_0, # of connection points: 3
#     Node 10, Type 0, BuildingBlock: VETTIZ_charged_linker_0, # of connection points: 3
#     Node 11, Type 0, BuildingBlock: VETTIZ_charged_linker_0, # of connection points: 3
#     Node 12, Type 0, BuildingBlock: VETTIZ_charged_linker_0, # of connection points: 3
#     Node 13, Type 0, BuildingBlock: VETTIZ_charged_linker_0, # of connection points: 3
#     Node 14, Type 0, BuildingBlock: VETTIZ_charged_linker_0, # of connection points: 3
#     Node 15, Type 0, BuildingBlock: VETTIZ_charged_linker_0, # of connection points: 3
#     Node 16, Type 0, BuildingBlock: VETTIZ_charged_linker_0, # of connection points: 3
#     Node 17, Type 0, BuildingBlock: VETTIZ_charged_linker_0, # of connection points: 3
#     Node 18, Type 1, BuildingBlock: KUMBUR_clean_sbu_0, # of connection points: 6
#     Node 19, Type 1, BuildingBlock: KUMBUR_clean_sbu_0, # of connection points: 6
#     Node 20, Type 1, BuildingBlock: KUMBUR_clean_sbu_0, # of connection points: 6
#     Node 21, Type 1, BuildingBlock: KUMBUR_clean_sbu_0, # of connection points: 6
#     Node 22, Type 1, BuildingBlock: KUMBUR_clean_sbu_0, # of connection points: 6
#     Node 23, Type 1, BuildingBlock: KUMBUR_clean_sbu_0, # of connection points: 6
#     Node 24, Type 1, BuildingBlock: KUMBUR_clean_sbu_0, # of connection points: 6
#     Node 25, Type 1, BuildingBlock: KUMBUR_clean_sbu_0, # of connection points: 6
#     Node 26, Type 1, BuildingBlock: KUMBUR_clean_sbu_0, # of connection points: 6
#     Edge 27, Type (0, 1), BuildingBlock: CIFDUS_clean_linker_0, # of connection points: 2
#     Edge 28, Type (0, 1), BuildingBlock: CIFDUS_clean_linker_0, # of connection points: 2
#     Edge 29, Type (0, 1), BuildingBlock: CIFDUS_clean_linker_0, # of connection points: 2
#     Edge 30, Type (0, 1), BuildingBlock: CIFDUS_clean_linker_0, # of connection points: 2
#     Edge 31, Type (0, 1), BuildingBlock: CIFDUS_clean_linker_0, # of connection points: 2
#     Edge 32, Type (0, 1), BuildingBlock: CIFDUS_clean_linker_0, # of connection points: 2
#     Edge 33, Type (0, 1), BuildingBlock: CIFDUS_clean_linker_0, # of connection points: 2
#     Edge 34, Type (0, 1), BuildingBlock: CIFDUS_clean_linker_0, # of connection points: 2
#     Edge 35, Type (0, 1), BuildingBlock: CIFDUS_clean_linker_0, # of connection points: 2
#     Edge 36, Type (0, 1), BuildingBlock: CIFDUS_clean_linker_0, # of connection points: 2
#     Edge 37, Type (0, 1), BuildingBlock: CIFDUS_clean_linker_0, # of connection points: 2
#     Edge 38, Type (0, 1), BuildingBlock: CIFDUS_clean_linker_0, # of connection points: 2
#     Edge 39, Type (0, 1), BuildingBlock: CIFDUS_clean_linker_0, # of connection points: 2
#     Edge 40, Type (0, 1), BuildingBlock: CIFDUS_clean_linker_0, # of connection points: 2
#     Edge 41, Type (0, 1), BuildingBlock: CIFDUS_clean_linker_0, # of connection points: 2
#     Edge 42, Type (0, 1), BuildingBlock: CIFDUS_clean_linker_0, # of connection points: 2
#     Edge 43, Type (0, 1), BuildingBlock: CIFDUS_clean_linker_0, # of connection points: 2
#     Edge 44, Type (0, 1), BuildingBlock: CIFDUS_clean_linker_0, # of connection points: 2
#     Edge 45, Type (0, 1), BuildingBlock: CIFDUS_clean_linker_0, # of connection points: 2
#     Edge 46, Type (0, 1), BuildingBlock: CIFDUS_clean_linker_0, # of connection points: 2
#     Edge 47, Type (0, 1), BuildingBlock: CIFDUS_clean_linker_0, # of connection points: 2
#     Edge 48, Type (0, 1), BuildingBlock: CIFDUS_clean_linker_0, # of connection points: 2
#     Edge 49, Type (0, 1), BuildingBlock: CIFDUS_clean_linker_0, # of connection points: 2
#     Edge 50, Type (0, 1), BuildingBlock: CIFDUS_clean_linker_0, # of connection points: 2
#     Edge 51, Type (0, 1), BuildingBlock: CIFDUS_clean_linker_0, # of connection points: 2
#     Edge 52, Type (0, 1), BuildingBlock: CIFDUS_clean_linker_0, # of connection points: 2
#     Edge 53, Type (0, 1), BuildingBlock: CIFDUS_clean_linker_0, # of connection points: 2
#     Edge 54, Type (0, 1), BuildingBlock: CIFDUS_clean_linker_0, # of connection points: 2
#     Edge 55, Type (0, 1), BuildingBlock: CIFDUS_clean_linker_0, # of connection points: 2
#     Edge 56, Type (0, 1), BuildingBlock: CIFDUS_clean_linker_0, # of connection points: 2
#     Edge 57, Type (0, 1), BuildingBlock: CIFDUS_clean_linker_0, # of connection points: 2
#     Edge 58, Type (0, 1), BuildingBlock: CIFDUS_clean_linker_0, # of connection points: 2
#     Edge 59, Type (0, 1), BuildingBlock: CIFDUS_clean_linker_0, # of connection points: 2
#     Edge 60, Type (0, 1), BuildingBlock: CIFDUS_clean_linker_0, # of connection points: 2
#     Edge 61, Type (0, 1), BuildingBlock: CIFDUS_clean_linker_0, # of connection points: 2
#     Edge 62, Type (0, 1), BuildingBlock: CIFDUS_clean_linker_0, # of connection points: 2
#     Edge 63, Type (0, 1), BuildingBlock: CIFDUS_clean_linker_0, # of connection points: 2
#     Edge 64, Type (0, 1), BuildingBlock: CIFDUS_clean_linker_0, # of connection points: 2
#     Edge 65, Type (0, 1), BuildingBlock: CIFDUS_clean_linker_0, # of connection points: 2
#     Edge 66, Type (0, 1), BuildingBlock: CIFDUS_clean_linker_0, # of connection points: 2
#     Edge 67, Type (0, 1), BuildingBlock: CIFDUS_clean_linker_0, # of connection points: 2
#     Edge 68, Type (0, 1), BuildingBlock: CIFDUS_clean_linker_0, # of connection points: 2
#     Edge 69, Type (0, 1), BuildingBlock: CIFDUS_clean_linker_0, # of connection points: 2
#     Edge 70, Type (0, 1), BuildingBlock: CIFDUS_clean_linker_0, # of connection points: 2
#     Edge 71, Type (0, 1), BuildingBlock: CIFDUS_clean_linker_0, # of connection points: 2
#     Edge 72, Type (0, 1), BuildingBlock: CIFDUS_clean_linker_0, # of connection points: 2
#     Edge 73, Type (0, 1), BuildingBlock: CIFDUS_clean_linker_0, # of connection points: 2
#     Edge 74, Type (0, 1), BuildingBlock: CIFDUS_clean_linker_0, # of connection points: 2
#     Edge 75, Type (0, 1), BuildingBlock: CIFDUS_clean_linker_0, # of connection points: 2
#     Edge 76, Type (0, 1), BuildingBlock: CIFDUS_clean_linker_0, # of connection points: 2
#     Edge 77, Type (0, 1), BuildingBlock: CIFDUS_clean_linker_0, # of connection points: 2
#     Edge 78, Type (0, 1), BuildingBlock: CIFDUS_clean_linker_0, # of connection points: 2
#     Edge 79, Type (0, 1), BuildingBlock: CIFDUS_clean_linker_0, # of connection points: 2
#     Edge 80, Type (0, 1), BuildingBlock: CIFDUS_clean_linker_0, # of connection points: 2
# Relax obj value: 0.009
# Max RMSD: 0.094
# Mean RMSD: 0.065
data_MOF--net-eea--node1-KUMBUR_clean_sbu_0--node2-VETTIZ_charged_linker_0--edge1-CIFDUS_clean_linker_0
_symmetry_space_group_name_H-M    P1
_symmetry_Int_Tables_number       1
_symmetry_cell_setting            triclinic
loop_
_symmetry_equiv_pos_as_xyz
'x, y, z'
_cell_length_a     55.105026
_cell_length_b     56.536129
_cell_length_c     80.317001
_cell_angle_alpha  89.924572
_cell_angle_beta   90.143657
_cell_angle_gamma 119.76405
loop_
_atom_site_label
_atom_site_type_symbol
_atom_site_fract_x
_atom_site_fract_y
_atom_site_fract_z
_atom_type_partial_charge
C0 C 0.22433 0.17362 0.39508 0.0
C1 C 0.22801 0.19768 0.40253 0.0
C2 C 0.24186 0.20576 0.41803 0.0
C3 C 0.24701 0.16564 0.41874 0.0
C4 C 0.23382 0.1579 0.40341 0.0
C5 C 0.23054 0.13116 0.39762 0.0
H6 H 0.24879 0.02302 0.41257 0.0
C7 C 0.25343 0.14443 0.42434 0.0
C8 C 0.24376 0.12411 0.412 0.0
H9 H 0.21139 0.0374 0.36914 0.0
H10 H 0.21931 0.08003 0.38092 0.0
H11 H 0.2999 0.08278 0.41499 0.0
H12 H 0.21995 0.0418 0.43905 0.0
H13 H 0.24386 0.0625 0.45433 0.0
H14 H 0.2481 0.036 0.44463 0.0
H15 H 0.29236 0.059 0.43166 0.0
H16 H 0.3059 0.09484 0.43553 0.0
C17 C 0.24732 0.1363 0.38129 0.0
C18 C 0.1989 0.11048 0.39593 0.0
C19 C 0.30304 0.15401 0.47983 0.0
C20 C 0.3119 0.13742 0.48786 0.0
C21 C 0.30581 0.11247 0.48048 0.0
C22 C 0.29176 0.10436 0.46526 0.0
C23 C 0.28357 0.12131 0.45718 0.0
C24 C 0.28902 0.14559 0.46447 0.0
C25 C 0.2786 0.1608 0.45389 0.0
C26 C 0.26638 0.14173 0.43903 0.0
C27 C 0.26939 0.11869 0.44112 0.0
C28 C 0.30403 0.1885 0.44892 0.0
C29 C 0.25583 0.16311 0.46385 0.0
C30 C 0.24258 0.03545 0.40547 0.0
C31 C 0.22957 0.02685 0.38987 0.0
C32 C 0.22128 0.04346 0.38125 0.0
C33 C 0.22602 0.06827 0.38808 0.0
C34 C 0.23911 0.07655 0.40372 0.0
C35 C 0.24714 0.06017 0.41208 0.0
C36 C 0.2608 0.07197 0.4285 0.0
C37 C 0.25968 0.09821 0.42869 0.0
C38 C 0.24696 0.10086 0.41418 0.0
C39 C 0.29127 0.07733 0.42782 0.0
C40 C 0.24251 0.05211 0.44244 0.0
H41 H 0.2616 0.19715 0.43793 0.0
H42 H 0.21354 0.16673 0.38327 0.0
H43 H 0.18685 0.11355 0.40597 0.0
H44 H 0.19394 0.08912 0.39728 0.0
H45 H 0.19061 0.11287 0.3838 0.0
H46 H 0.26713 0.15619 0.38179 0.0
H47 H 0.23513 0.1368 0.37039 0.0
H48 H 0.25388 0.12104 0.37904 0.0
H49 H 0.30745 0.17332 0.48517 0.0
H50 H 0.3119 0.09907 0.48655 0.0
H51 H 0.28796 0.08519 0.46036 0.0
H52 H 0.32259 0.18622 0.44633 0.0
H53 H 0.30977 0.2037 0.45907 0.0
H54 H 0.30056 0.19697 0.43736 0.0
H55 H 0.24314 0.14443 0.47139 0.0
H56 H 0.24054 0.16486 0.45579 0.0
H57 H 0.26533 0.18071 0.47253 0.0
H58 H 0.24528 0.22439 0.42393 0.0
C59 C 0.25139 0.18994 0.42614 0.0
C60 C 0.9703 0.18554 0.39648 0.0
C61 C 0.98728 0.21198 0.40267 0.0
C62 C 0.98118 0.21883 0.41839 0.0
C63 C 0.94116 0.1734 0.42124 0.0
C64 C 0.94728 0.16679 0.40582 0.0
C65 C 0.9259 0.13861 0.40036 0.0
H66 H 0.8006 0.02588 0.41199 0.0
C67 C 0.91506 0.14963 0.42733 0.0
C68 C 0.90597 0.12929 0.41504 0.0
H69 H 0.85828 0.04434 0.37104 0.0
H70 H 0.89146 0.08593 0.3845 0.0
H71 H 0.84683 0.04116 0.43965 0.0
H72 H 0.81073 0.08635 0.41825 0.0
H73 H 0.81189 0.09051 0.44003 0.0
H74 H 0.79195 0.05692 0.43128 0.0
H75 H 0.81411 0.03686 0.44683 0.0
H76 H 0.84702 0.06243 0.45559 0.0
C77 C 0.94062 0.12145 0.39852 0.0
C78 C 0.91196 0.14123 0.38419 0.0
C79 C 0.87397 0.15247 0.48377 0.0
C80 C 0.84944 0.13362 0.49215 0.0
C81 C 0.83194 0.1081 0.48467 0.0
C82 C 0.83829 0.10162 0.46907 0.0
C83 C 0.86243 0.1208 0.46069 0.0
C84 C 0.88001 0.14564 0.46808 0.0
C85 C 0.90462 0.16346 0.45711 0.0
C86 C 0.89912 0.14495 0.44214 0.0
C87 C 0.8742 0.1201 0.4443 0.0
C88 C 0.93167 0.16943 0.46642 0.0
C89 C 0.90295 0.18924 0.45249 0.0
C90 C 0.82044 0.03868 0.40594 0.0
C91 C 0.82636 0.03186 0.39016 0.0
C92 C 0.85262 0.04933 0.38289 0.0
C93 C 0.87205 0.07348 0.3908 0.0
C94 C 0.86539 0.08039 0.40625 0.0
C95 C 0.84027 0.06278 0.41376 0.0
C96 C 0.83748 0.07284 0.4306 0.0
C97 C 0.86461 0.0999 0.43162 0.0
C98 C 0.88067 0.10432 0.41723 0.0
C99 C 0.83608 0.0523 0.44393 0.0
C100 C 0.8116 0.07678 0.43019 0.0
H101 H 0.95477 0.20608 0.43961 0.0
H102 H 0.97426 0.17986 0.38433 0.0
H103 H 0.90933 0.1595 0.3847 0.0
H104 H 0.89068 0.12401 0.38217 0.0
H105 H 0.92491 0.14335 0.37311 0.0
H106 H 0.95793 0.12791 0.40771 0.0
H107 H 0.94972 0.12375 0.3859 0.0
H108 H 0.92655 0.09958 0.40113 0.0
H109 H 0.88775 0.17232 0.4891 0.0
H110 H 0.81319 0.09304 0.49093 0.0
H111 H 0.82394 0.08196 0.46407 0.0
H112 H 0.92908 0.15063 0.47253 0.0
H113 H 0.93689 0.18503 0.47626 0.0
H114 H 0.94983 0.17629 0.45809 0.0
H115 H 0.88084 0.18452 0.45154 0.0
H116 H 0.91201 0.19755 0.44016 0.0
H117 H 0.91343 0.20542 0.46204 0.0
H118 H 0.99412 0.23911 0.42342 0.0
C119 C 0.95835 0.19965 0.42775 0.0
C120 C 0.97069 0.79956 0.39149 0.0
C121 C 0.99111 0.79331 0.39703 0.0
C122 C 0.98756 0.78066 0.41269 0.0
C123 C 0.9439 0.78065 0.41699 0.0
C124 C 0.94716 0.79273 0.40152 0.0
C125 C 0.92256 0.79622 0.39702 0.0
H126 H 0.79213 0.77282 0.41516 0.0
C127 C 0.91695 0.77581 0.42418 0.0
C128 C 0.90423 0.78468 0.41237 0.0
H129 H 0.84055 0.81097 0.37106 0.0
H130 H 0.87966 0.80775 0.38247 0.0
H131 H 0.81033 0.727 0.42034 0.0
H132 H 0.84052 0.80745 0.43988 0.0
H133 H 0.84709 0.78977 0.45559 0.0
H134 H 0.81151 0.77834 0.44917 0.0
H135 H 0.79111 0.73613 0.43446 0.0
H136 H 0.81536 0.72594 0.44194 0.0
C137 C 0.90856 0.77892 0.38128 0.0
C138 C 0.93308 0.82702 0.39486 0.0
C139 C 0.88712 0.73641 0.48303 0.0
C140 C 0.86374 0.73104 0.4929 0.0
C141 C 0.84291 0.73563 0.48593 0.0
C142 C 0.84524 0.7455 0.46968 0.0
C143 C 0.86875 0.75113 0.46005 0.0
C144 C 0.88931 0.74669 0.46672 0.0
C145 C 0.913 0.75444 0.45454 0.0
C146 C 0.90343 0.76472 0.43971 0.0
C147 C 0.8773 0.76236 0.44302 0.0
C148 C 0.91431 0.72842 0.45019 0.0
C149 C 0.94011 0.77738 0.46245 0.0
C150 C 0.81114 0.78035 0.40795 0.0
C151 C 0.81317 0.79178 0.3921 0.0
C152 C 0.8385 0.80201 0.38328 0.0
C153 C 0.86108 0.79995 0.38989 0.0
C154 C 0.85844 0.78773 0.40559 0.0
C155 C 0.83395 0.7788 0.41447 0.0
C156 C 0.83526 0.76786 0.43133 0.0
C157 C 0.86406 0.77045 0.43085 0.0
C158 C 0.87753 0.78189 0.4157 0.0
C159 C 0.81174 0.73768 0.43223 0.0
C160 C 0.83333 0.78658 0.44476 0.0
H161 H 0.96292 0.765 0.43451 0.0
H162 H 0.97262 0.80891 0.37943 0.0
H163 H 0.94964 0.83917 0.40417 0.0
H164 H 0.91656 0.8323 0.39702 0.0
H165 H 0.9421 0.83415 0.38228 0.0
H166 H 0.90844 0.7592 0.38185 0.0
H167 H 0.92 0.78974 0.36984 0.0
H168 H 0.88642 0.77328 0.37993 0.0
H169 H 0.90355 0.73318 0.48799 0.0
H170 H 0.82448 0.73127 0.49306 0.0
H171 H 0.8285 0.74832 0.46523 0.0
H172 H 0.89301 0.71021 0.44998 0.0
H173 H 0.92692 0.72461 0.4595 0.0
H174 H 0.92278 0.72921 0.43763 0.0
H175 H 0.93604 0.79274 0.46853 0.0
H176 H 0.95672 0.78881 0.45326 0.0
H177 H 0.94833 0.76908 0.4721 0.0
H178 H 1.00303 0.77572 0.41725 0.0
C179 C 0.96427 0.77449 0.42271 0.0
C180 C 0.18818 0.21543 0.63228 0.0
C181 C 0.21407 0.2206 0.62571 0.0
C182 C 0.22075 0.22966 0.60915 0.0
C183 C 0.17707 0.22981 0.6061 0.0
C184 C 0.17007 0.22037 0.62226 0.0
C185 C 0.14232 0.21758 0.62727 0.0
H186 H 0.03543 0.24139 0.60908 0.0
C187 C 0.15482 0.23447 0.59926 0.0
C188 C 0.13429 0.22742 0.61159 0.0
H189 H 0.0461 0.20489 0.65373 0.0
H190 H 0.08794 0.20728 0.64219 0.0
H191 H 0.10039 0.28648 0.60347 0.0
H192 H 0.04918 0.20529 0.58419 0.0
H193 H 0.07101 0.22531 0.56795 0.0
H194 H 0.04604 0.2336 0.57675 0.0
H195 H 0.07229 0.27779 0.58901 0.0
H196 H 0.10689 0.28702 0.582 0.0
C197 C 0.14741 0.23662 0.64228 0.0
C198 C 0.12166 0.18716 0.63084 0.0
C199 C 0.16639 0.27444 0.5411 0.0
C200 C 0.15067 0.28293 0.53149 0.0
C201 C 0.12525 0.27918 0.53804 0.0
C202 C 0.11606 0.26786 0.55395 0.0
C203 C 0.1324 0.26012 0.56353 0.0
C204 C 0.15697 0.26325 0.55696 0.0
C205 C 0.17191 0.25427 0.56887 0.0
C206 C 0.15225 0.24508 0.5837 0.0
C207 C 0.12918 0.24862 0.58057 0.0
C208 C 0.20073 0.27941 0.57305 0.0
C209 C 0.17347 0.23016 0.56081 0.0
C210 C 0.0469 0.23407 0.61641 0.0
C211 C 0.0377 0.2233 0.63243 0.0
C212 C 0.05281 0.21334 0.64139 0.0
C213 C 0.07715 0.21486 0.63469 0.0
C214 C 0.08641 0.22625 0.61877 0.0
C215 C 0.07095 0.23509 0.6098 0.0
C216 C 0.08293 0.24533 0.59278 0.0
C217 C 0.10851 0.24183 0.59308 0.0
C218 C 0.11076 0.23093 0.60843 0.0
C219 C 0.09096 0.27571 0.59158 0.0
C220 C 0.06124 0.22666 0.57963 0.0
H221 H 0.20901 0.24123 0.58687 0.0
H222 H 0.18265 0.20861 0.64502 0.0
H223 H 0.12516 0.17385 0.62214 0.0
H224 H 0.09963 0.18167 0.62891 0.0
H225 H 0.12429 0.18161 0.64373 0.0
H226 H 0.16644 0.25676 0.64024 0.0
H227 H 0.15055 0.22779 0.65391 0.0
H228 H 0.13028 0.24103 0.64428 0.0
H229 H 0.18582 0.27661 0.53644 0.0
H230 H 0.11278 0.28572 0.53104 0.0
H231 H 0.09676 0.26595 0.55828 0.0
H232 H 0.19992 0.29866 0.57225 0.0
H233 H 0.21712 0.28121 0.56429 0.0
H234 H 0.2076 0.27914 0.58595 0.0
H235 H 0.15396 0.21675 0.55378 0.0
H236 H 0.17527 0.21663 0.57005 0.0
H237 H 0.1912 0.23756 0.55195 0.0
H238 H 0.24053 0.23368 0.60388 0.0
C239 C 0.20242 0.23411 0.59932 0.0
C240 C 0.79842 0.83653 0.62411 0.0
C241 C 0.7956 0.81236 0.61737 0.0
C242 C 0.7839 0.80427 0.60129 0.0
C243 C 0.77743 0.8436 0.59928 0.0
C244 C 0.78931 0.85173 0.61491 0.0
C245 C 0.79071 0.87776 0.62042 0.0
H246 H 0.76872 0.98289 0.60394 0.0
C247 C 0.76983 0.86382 0.59319 0.0
C248 C 0.77774 0.88394 0.60555 0.0
H249 H 0.80321 0.96825 0.64868 0.0
H250 H 0.79737 0.92654 0.63702 0.0
H251 H 0.7994 0.96421 0.57789 0.0
H252 H 0.71874 0.92294 0.6011 0.0
H253 H 0.7136 0.90922 0.58101 0.0
H254 H 0.72579 0.94512 0.5836 0.0
H255 H 0.77144 0.97045 0.57251 0.0
H256 H 0.77543 0.9441 0.56242 0.0
C257 C 0.8219 0.8995 0.62273 0.0
C258 C 0.77263 0.87173 0.63631 0.0
C259 C 0.71935 0.85063 0.53755 0.0
C260 C 0.70904 0.86597 0.52942 0.0
C261 C 0.7143 0.89091 0.53645 0.0
C262 C 0.72875 0.9001 0.55149 0.0
C263 C 0.73814 0.88425 0.55976 0.0
C264 C 0.73373 0.86011 0.55275 0.0
C265 C 0.74535 0.84615 0.56354 0.0
C266 C 0.75678 0.86563 0.57828 0.0
C267 C 0.75244 0.88787 0.57589 0.0
C268 C 0.76887 0.84494 0.55376 0.0
C269 C 0.7209 0.81795 0.56867 0.0
C270 C 0.77477 0.97061 0.61132 0.0
C271 C 0.78672 0.97916 0.62722 0.0
C272 C 0.79449 0.96252 0.63627 0.0
C273 C 0.79093 0.93817 0.62951 0.0
C274 C 0.77933 0.93014 0.61352 0.0
C275 C 0.7712 0.94613 0.6048 0.0
C276 C 0.75848 0.93402 0.58821 0.0
C277 C 0.76075 0.90833 0.58829 0.0
C278 C 0.77311 0.90625 0.60308 0.0
C279 C 0.77688 0.95417 0.57444 0.0
C280 C 0.72761 0.92759 0.5883 0.0
H281 H 0.76601 0.81239 0.58014 0.0
H282 H 0.807 0.84326 0.63647 0.0
H283 H 0.75446 0.85065 0.63607 0.0
H284 H 0.76323 0.88496 0.63748 0.0
H285 H 0.78496 0.87373 0.6477 0.0
H286 H 0.83501 0.89741 0.61297 0.0
H287 H 0.82984 0.8973 0.63503 0.0
H288 H 0.8259 0.92057 0.62144 0.0
H289 H 0.71564 0.83139 0.53245 0.0
H290 H 0.70712 0.90338 0.53028 0.0
H291 H 0.73181 0.91914 0.55616 0.0
H292 H 0.78081 0.86359 0.54605 0.0
H293 H 0.76016 0.8271 0.54525 0.0
H294 H 0.78464 0.8443 0.56195 0.0
H295 H 0.70207 0.81944 0.57186 0.0
H296 H 0.72549 0.80957 0.57988 0.0
H297 H 0.71514 0.80302 0.55836 0.0
H298 H 0.78187 0.78598 0.59564 0.0
C299 C 0.77482 0.81971 0.59225 0.0
C300 C 0.03848 0.81544 0.62953 0.0
C301 C 0.02112 0.78891 0.62342 0.0
C302 C 0.0264 0.78208 0.60749 0.0
C303 C 0.06609 0.82748 0.6041 0.0
C304 C 0.06099 0.83427 0.61974 0.0
C305 C 0.08268 0.86284 0.62462 0.0
H306 H 0.20112 0.98075 0.60581 0.0
C307 C 0.09129 0.85133 0.59724 0.0
C308 C 0.10123 0.87214 0.60922 0.0
H309 H 0.15355 0.95948 0.65155 0.0
H310 H 0.12025 0.91594 0.64001 0.0
H311 H 0.19684 0.92152 0.60066 0.0
H312 H 0.14854 0.95633 0.58117 0.0
H313 H 0.15226 0.93735 0.56509 0.0
H314 H 0.18294 0.96635 0.57363 0.0
H315 H 0.21074 0.94936 0.58615 0.0
H316 H 0.19173 0.91452 0.5792 0.0
C317 C 0.09844 0.8611 0.64017 0.0
C318 C 0.06774 0.87959 0.62724 0.0
C319 C 0.1264 0.8453 0.53972 0.0
C320 C 0.14894 0.86388 0.52985 0.0
C321 C 0.16611 0.89059 0.53586 0.0
C322 C 0.16138 0.89841 0.55159 0.0
C323 C 0.13916 0.87938 0.56146 0.0
C324 C 0.12185 0.85347 0.55533 0.0
C325 C 0.09888 0.83609 0.56733 0.0
C326 C 0.10542 0.85568 0.58177 0.0
C327 C 0.12918 0.88095 0.57835 0.0
C328 C 0.10227 0.81134 0.57223 0.0
C329 C 0.07056 0.82852 0.55897 0.0
C330 C 0.18369 0.96664 0.61342 0.0
C331 C 0.18012 0.97377 0.62967 0.0
C332 C 0.15674 0.95482 0.63895 0.0
C333 C 0.13747 0.92937 0.63226 0.0
C334 C 0.14149 0.9225 0.61609 0.0
C335 C 0.16427 0.94104 0.60694 0.0
C336 C 0.16522 0.93018 0.58998 0.0
C337 C 0.13953 0.90194 0.59058 0.0
C338 C 0.12565 0.89756 0.60591 0.0
C339 C 0.19258 0.9289 0.58876 0.0
C340 C 0.1623 0.94848 0.57667 0.0
H341 H 0.05144 0.79457 0.58581 0.0
H342 H 0.03509 0.82113 0.64182 0.0
H343 H 0.05149 0.87458 0.61751 0.0
H344 H 0.08196 0.90177 0.62619 0.0
H345 H 0.05722 0.87509 0.63956 0.0
H346 H 0.09985 0.84214 0.64001 0.0
H347 H 0.08758 0.86103 0.65183 0.0
H348 H 0.12038 0.87775 0.64076 0.0
H349 H 0.11255 0.82474 0.53539 0.0
H350 H 0.18369 0.90527 0.52858 0.0
H351 H 0.17543 0.91891 0.55553 0.0
H352 H 0.12472 0.81706 0.5726 0.0
H353 H 0.09163 0.79444 0.56314 0.0
H354 H 0.09444 0.80361 0.58486 0.0
H355 H 0.07235 0.84573 0.55131 0.0
H356 H 0.05386 0.82434 0.56803 0.0
H357 H 0.06351 0.81062 0.55062 0.0
H358 H 0.0132 0.76181 0.60251 0.0
C359 C 0.04861 0.80117 0.5978 0.0
C360 C 0.87519 0.50826 0.7377 0.0
C361 C 0.88061 0.53292 0.74521 0.0
C362 C 0.89386 0.53966 0.76095 0.0
C363 C 0.89559 0.49764 0.76139 0.0
C364 C 0.88306 0.49119 0.74588 0.0
C365 C 0.87978 0.46486 0.73929 0.0
H366 H 0.90295 0.35871 0.74827 0.0
C367 C 0.9011 0.47557 0.76645 0.0
C368 C 0.89211 0.45642 0.75348 0.0
H369 H 0.8627 0.37565 0.70723 0.0
H370 H 0.86852 0.41556 0.72133 0.0
H371 H 0.95131 0.42135 0.75634 0.0
H372 H 0.86869 0.36952 0.77586 0.0
H373 H 0.88923 0.38969 0.79247 0.0
H374 H 0.89801 0.36629 0.78251 0.0
H375 H 0.94183 0.39114 0.76833 0.0
H376 H 0.95265 0.42337 0.77828 0.0
C377 C 0.8974 0.47133 0.72318 0.0
C378 C 0.84816 0.44458 0.7369 0.0
C379 C 0.94247 0.4784 0.82354 0.0
C380 C 0.94903 0.46052 0.83209 0.0
C381 C 0.94477 0.43666 0.82389 0.0
C382 C 0.93419 0.43074 0.80759 0.0
C383 C 0.92757 0.44875 0.79931 0.0
C384 C 0.93168 0.47206 0.80733 0.0
C385 C 0.92309 0.48866 0.79676 0.0
C386 C 0.91274 0.47126 0.78117 0.0
C387 C 0.91562 0.44801 0.78266 0.0
C388 C 0.94937 0.51666 0.79332 0.0
C389 C 0.89922 0.49031 0.80587 0.0
C390 C 0.89517 0.37082 0.74231 0.0
C391 C 0.8827 0.36396 0.72638 0.0
C392 C 0.87309 0.38065 0.71922 0.0
C393 C 0.87627 0.40381 0.72751 0.0
C394 C 0.88902 0.41048 0.74327 0.0
C395 C 0.89786 0.39389 0.75053 0.0
C396 C 0.90961 0.40342 0.76774 0.0
C397 C 0.90723 0.42898 0.76934 0.0
C398 C 0.89531 0.43307 0.75491 0.0
C399 C 0.94045 0.41008 0.76783 0.0
C400 C 0.89066 0.38114 0.78039 0.0
H401 H 0.91126 0.52855 0.78097 0.0
H402 H 0.86485 0.50214 0.72572 0.0
H403 H 0.83559 0.44759 0.74662 0.0
H404 H 0.84284 0.42308 0.73826 0.0
H405 H 0.84074 0.44736 0.72457 0.0
H406 H 0.91713 0.49119 0.72429 0.0
H407 H 0.88574 0.47265 0.71224 0.0
H408 H 0.90422 0.45638 0.72052 0.0
H409 H 0.94586 0.49714 0.82926 0.0
H410 H 0.94924 0.42229 0.83017 0.0
H411 H 0.93145 0.4123 0.80207 0.0
H412 H 0.96857 0.51486 0.79287 0.0
H413 H 0.95246 0.53164 0.8032 0.0
H414 H 0.94863 0.5252 0.78106 0.0
H415 H 0.88454 0.47041 0.81173 0.0
H416 H 0.88614 0.49477 0.79746 0.0
H417 H 0.90764 0.50592 0.81588 0.0
H418 H 0.89894 0.55872 0.76694 0.0
C419 C 0.90126 0.52218 0.76906 0.0
C420 C 0.64013 0.49879 0.72423 0.0
C421 C 0.6622 0.52404 0.72953 0.0
C422 C 0.66154 0.53335 0.74569 0.0
C423 C 0.61728 0.49248 0.75111 0.0
C424 C 0.61779 0.48353 0.73515 0.0
C425 C 0.59177 0.45697 0.73128 0.0
H426 H 0.46782 0.35119 0.75643 0.0
C427 C 0.59106 0.47199 0.75924 0.0
C428 C 0.5759 0.45124 0.74762 0.0
H429 H 0.50642 0.36535 0.70787 0.0
H430 H 0.54505 0.40762 0.71743 0.0
H431 H 0.5234 0.37054 0.7775 0.0
H432 H 0.48188 0.41439 0.76189 0.0
H433 H 0.49236 0.42306 0.78273 0.0
H434 H 0.46772 0.38818 0.77747 0.0
H435 H 0.49148 0.36499 0.7869 0.0
H436 H 0.52513 0.39142 0.79414 0.0
C437 C 0.6006 0.43543 0.72757 0.0
C438 C 0.57616 0.46187 0.71676 0.0
C439 C 0.57275 0.48409 0.8199 0.0
C440 C 0.55107 0.46803 0.83112 0.0
C441 C 0.52829 0.44346 0.82528 0.0
C442 C 0.52724 0.43497 0.80873 0.0
C443 C 0.54923 0.45112 0.79778 0.0
C444 C 0.57147 0.47524 0.80345 0.0
C445 C 0.59313 0.48969 0.79015 0.0
C446 C 0.58034 0.47019 0.77559 0.0
C447 C 0.55456 0.44765 0.78011 0.0
C448 C 0.62085 0.49168 0.7961 0.0
C449 C 0.59506 0.51755 0.78668 0.0
C450 C 0.48444 0.36355 0.74781 0.0
C451 C 0.48409 0.35462 0.73139 0.0
C452 C 0.50634 0.37135 0.72066 0.0
C453 C 0.52877 0.39605 0.72621 0.0
C454 C 0.52913 0.4044 0.7427 0.0
C455 C 0.50708 0.38841 0.75316 0.0
C456 C 0.51107 0.40077 0.77026 0.0
C457 C 0.53905 0.42677 0.76827 0.0
C458 C 0.54959 0.42868 0.75211 0.0
C459 C 0.51269 0.38097 0.78298 0.0
C460 C 0.48699 0.40683 0.77343 0.0
H461 H 0.64011 0.52593 0.76866 0.0
H462 H 0.63995 0.49146 0.71175 0.0
H463 H 0.5802 0.48321 0.71675 0.0
H464 H 0.55319 0.44922 0.71776 0.0
H465 H 0.58295 0.45814 0.7045 0.0
H466 H 0.6171 0.43752 0.73645 0.0
H467 H 0.60918 0.43796 0.71478 0.0
H468 H 0.58339 0.4143 0.72906 0.0
H469 H 0.59038 0.50329 0.82379 0.0
H470 H 0.51146 0.43044 0.8336 0.0
H471 H 0.50942 0.41601 0.80514 0.0
H472 H 0.61676 0.47255 0.80246 0.0
H473 H 0.63193 0.5087 0.80506 0.0
H474 H 0.63516 0.49426 0.7858 0.0
H475 H 0.5744 0.51626 0.78837 0.0
H476 H 0.60096 0.52445 0.77369 0.0
H477 H 0.6101 0.53351 0.79527 0.0
H478 H 0.67833 0.55286 0.74992 0.0
C479 C 0.63933 0.51769 0.75652 0.0
C480 C 0.64203 0.12173 0.72827 0.0
C481 C 0.66224 0.11637 0.73533 0.0
C482 C 0.65912 0.10767 0.75203 0.0
C483 C 0.61581 0.10879 0.75429 0.0
C484 C 0.61886 0.11753 0.73792 0.0
C485 C 0.59429 0.12036 0.73219 0.0
H486 H 0.46405 0.10039 0.74795 0.0
C487 C 0.58903 0.10531 0.76072 0.0
C488 C 0.57616 0.11194 0.74777 0.0
H489 H 0.51162 0.13134 0.70271 0.0
H490 H 0.5509 0.12976 0.7154 0.0
H491 H 0.48247 0.05554 0.7571 0.0
H492 H 0.51277 0.13879 0.77129 0.0
H493 H 0.51926 0.12361 0.78851 0.0
H494 H 0.48369 0.11128 0.78168 0.0
H495 H 0.46325 0.06681 0.76969 0.0
H496 H 0.48759 0.05808 0.77883 0.0
C497 C 0.57987 0.10025 0.71762 0.0
C498 C 0.60506 0.15055 0.72764 0.0
C499 C 0.55903 0.07329 0.82062 0.0
C500 C 0.53566 0.06901 0.83008 0.0
C501 C 0.5151 0.07331 0.82245 0.0
C502 C 0.51755 0.08154 0.80579 0.0
C503 C 0.54094 0.08576 0.79649 0.0
C504 C 0.56136 0.08193 0.80395 0.0
C505 C 0.58513 0.08828 0.79216 0.0
C506 C 0.5756 0.09664 0.77649 0.0
C507 C 0.54951 0.09473 0.77908 0.0
C508 C 0.58649 0.06182 0.7895 0.0
C509 C 0.61211 0.11227 0.79955 0.0
C510 C 0.48288 0.10663 0.74076 0.0
C511 C 0.48465 0.11554 0.72425 0.0
C512 C 0.50977 0.12425 0.71542 0.0
C513 C 0.53245 0.12319 0.7228 0.0
C514 C 0.53011 0.11358 0.73925 0.0
C515 C 0.50577 0.1061 0.74802 0.0
C516 C 0.50734 0.09803 0.76565 0.0
C517 C 0.53616 0.10074 0.7659 0.0
C518 C 0.54945 0.10961 0.75037 0.0
C519 C 0.4839 0.0681 0.76811 0.0
C520 C 0.5055 0.11877 0.77749 0.0
H521 H 0.63511 0.09723 0.77412 0.0
H522 H 0.64372 0.12809 0.7154 0.0
H523 H 0.62172 0.16432 0.73645 0.0
H524 H 0.58868 0.1563 0.72856 0.0
H525 H 0.61402 0.15517 0.71489 0.0
H526 H 0.57862 0.08035 0.72026 0.0
H527 H 0.59176 0.10835 0.70586 0.0
H528 H 0.55812 0.09543 0.71554 0.0
H529 H 0.5753 0.07036 0.82614 0.0
H530 H 0.49676 0.06987 0.82935 0.0
H531 H 0.50098 0.08413 0.80077 0.0
H532 H 0.56521 0.04358 0.78977 0.0
H533 H 0.59909 0.05922 0.7994 0.0
H534 H 0.59496 0.06099 0.7772 0.0
H535 H 0.60757 0.12744 0.80547 0.0
H536 H 0.6281 0.12387 0.79004 0.0
H537 H 0.62134 0.10503 0.80922 0.0
H538 H 0.67442 0.10343 0.7577 0.0
C539 C 0.63622 0.10403 0.76153 0.0
C540 C 0.84514 0.55093 0.96021 0.0
C541 C 0.87119 0.55705 0.95342 0.0
C542 C 0.87705 0.56605 0.93677 0.0
C543 C 0.83216 0.56402 0.93413 0.0
C544 C 0.82609 0.55484 0.9504 0.0
C545 C 0.79819 0.55116 0.95584 0.0
H546 H 0.68658 0.56851 0.93966 0.0
C547 C 0.80878 0.56726 0.92753 0.0
C548 C 0.78877 0.5599 0.94026 0.0
H549 H 0.70256 0.53594 0.98438 0.0
H550 H 0.74434 0.53955 0.97193 0.0
H551 H 0.75033 0.61516 0.93205 0.0
H552 H 0.70045 0.53244 0.915 0.0
H553 H 0.72105 0.55145 0.8981 0.0
H554 H 0.69588 0.55954 0.90685 0.0
H555 H 0.72086 0.60432 0.91837 0.0
H556 H 0.75522 0.61459 0.91043 0.0
C557 C 0.80333 0.57055 0.97067 0.0
C558 C 0.77861 0.52068 0.95988 0.0
C559 C 0.81298 0.60121 0.86795 0.0
C560 C 0.7949 0.60687 0.8584 0.0
C561 C 0.7701 0.60313 0.86596 0.0
C562 C 0.7634 0.59396 0.88247 0.0
C563 C 0.7816 0.58837 0.89179 0.0
C564 C 0.80592 0.59199 0.88449 0.0
C565 C 0.82285 0.58521 0.89636 0.0
C566 C 0.80449 0.5765 0.91185 0.0
C567 C 0.78039 0.57854 0.90913 0.0
C568 C 0.85123 0.61151 0.89939 0.0
C569 C 0.82537 0.5613 0.88887 0.0
C570 C 0.69917 0.56229 0.94679 0.0
C571 C 0.69142 0.55225 0.96312 0.0
C572 C 0.70805 0.54375 0.97181 0.0
C573 C 0.73239 0.54602 0.96458 0.0
C574 C 0.74021 0.55669 0.94837 0.0
C575 C 0.72329 0.56405 0.93966 0.0
C576 C 0.73386 0.57357 0.92227 0.0
C577 C 0.76037 0.57157 0.92211 0.0
C578 C 0.76426 0.56193 0.93751 0.0
C579 C 0.7403 0.60342 0.92052 0.0
C580 C 0.71172 0.55345 0.90981 0.0
H581 H 0.86369 0.57645 0.91459 0.0
H582 H 0.84016 0.54425 0.97301 0.0
H583 H 0.7823 0.5075 0.95117 0.0
H584 H 0.75628 0.51434 0.95835 0.0
H585 H 0.78221 0.51579 0.97273 0.0
H586 H 0.82206 0.59082 0.96837 0.0
H587 H 0.807 0.56224 0.98235 0.0
H588 H 0.78601 0.57469 0.97271 0.0
H589 H 0.83213 0.60362 0.86265 0.0
H590 H 0.75595 0.60775 0.85918 0.0
H591 H 0.7443 0.59176 0.88739 0.0
H592 H 0.849 0.62998 0.89848 0.0
H593 H 0.86705 0.61363 0.89007 0.0
H594 H 0.85961 0.61249 0.91204 0.0
H595 H 0.80525 0.54606 0.88307 0.0
H596 H 0.82996 0.54983 0.89829 0.0
H597 H 0.84171 0.56862 0.87907 0.0
H598 H 0.89688 0.57078 0.93125 0.0
C599 C 0.85774 0.5694 0.92711 0.0
C600 C 0.44793 0.15755 0.96184 0.0
C601 C 0.4462 0.13424 0.95443 0.0
C602 C 0.43378 0.12613 0.93855 0.0
C603 C 0.42657 0.16501 0.9373 0.0
C604 C 0.43819 0.17267 0.95303 0.0
C605 C 0.43987 0.19882 0.95865 0.0
H606 H 0.42099 0.30594 0.94143 0.0
C607 C 0.4198 0.18575 0.93118 0.0
C608 C 0.42759 0.20566 0.94367 0.0
H609 H 0.45375 0.29074 0.98667 0.0
H610 H 0.4472 0.24845 0.97526 0.0
H611 H 0.45269 0.28798 0.9166 0.0
H612 H 0.37029 0.24551 0.93756 0.0
H613 H 0.36675 0.23398 0.91697 0.0
H614 H 0.37928 0.26963 0.92093 0.0
H615 H 0.42496 0.29366 0.9098 0.0
H616 H 0.43049 0.26764 0.90056 0.0
C617 C 0.47107 0.22022 0.96139 0.0
C618 C 0.42135 0.19267 0.97431 0.0
C619 C 0.37605 0.17659 0.87369 0.0
C620 C 0.36748 0.19291 0.86505 0.0
C621 C 0.37214 0.21748 0.87234 0.0
C622 C 0.38444 0.22542 0.88807 0.0
C623 C 0.3923 0.2087 0.89673 0.0
C624 C 0.38831 0.18484 0.88954 0.0
C625 C 0.39817 0.16986 0.90075 0.0
C626 C 0.40825 0.18851 0.91591 0.0
C627 C 0.40475 0.21119 0.91338 0.0
C628 C 0.42245 0.16863 0.89188 0.0
C629 C 0.37278 0.14166 0.9049 0.0
C630 C 0.42643 0.29338 0.94899 0.0
C631 C 0.43794 0.30178 0.96497 0.0
C632 C 0.44515 0.28492 0.97424 0.0
C633 C 0.44122 0.2603 0.96762 0.0
C634 C 0.43001 0.25239 0.95152 0.0
C635 C 0.42267 0.26879 0.94258 0.0
C636 C 0.41095 0.25726 0.92573 0.0
C637 C 0.41258 0.23127 0.92597 0.0
C638 C 0.42383 0.2285 0.94106 0.0
C639 C 0.43052 0.27762 0.91238 0.0
C640 C 0.3803 0.25139 0.92508 0.0
H641 H 0.41494 0.13415 0.9179 0.0
H642 H 0.45761 0.16445 0.97394 0.0
H643 H 0.4023 0.17222 0.97339 0.0
H644 H 0.41338 0.20699 0.97592 0.0
H645 H 0.43284 0.19285 0.98574 0.0
H646 H 0.48442 0.21804 0.95183 0.0
H647 H 0.47842 0.21774 0.97381 0.0
H648 H 0.47541 0.2414 0.96009 0.0
H649 H 0.3727 0.15756 0.86844 0.0
H650 H 0.36627 0.23069 0.86583 0.0
H651 H 0.3872 0.24429 0.89287 0.0
H652 H 0.43551 0.18762 0.88468 0.0
H653 H 0.41438 0.15127 0.88303 0.0
H654 H 0.43713 0.16718 0.90063 0.0
H655 H 0.35363 0.14326 0.90671 0.0
H656 H 0.37537 0.133 0.91665 0.0
H657 H 0.36851 0.1269 0.89466 0.0
H658 H 0.43192 0.10807 0.93266 0.0
C659 C 0.42393 0.1413 0.92998 0.0
C660 C 0.71966 0.15123 0.96923 0.0
C661 C 0.70123 0.12458 0.96377 0.0
C662 C 0.70561 0.11603 0.94816 0.0
C663 C 0.74638 0.16033 0.94363 0.0
C664 C 0.74227 0.16863 0.95905 0.0
C665 C 0.76503 0.19706 0.96329 0.0
H666 H 0.88583 0.31018 0.94142 0.0
C667 C 0.77183 0.18304 0.93621 0.0
C668 C 0.78303 0.20459 0.94773 0.0
H669 H 0.84054 0.29464 0.98774 0.0
H670 H 0.80512 0.25075 0.97748 0.0
H671 H 0.87886 0.25052 0.93798 0.0
H672 H 0.83319 0.28748 0.91798 0.0
H673 H 0.83326 0.26589 0.90234 0.0
H674 H 0.86601 0.29409 0.90943 0.0
H675 H 0.89252 0.27623 0.92209 0.0
H676 H 0.87164 0.24059 0.91702 0.0
C677 C 0.78074 0.19544 0.9789 0.0
C678 C 0.75151 0.21518 0.96549 0.0
C679 C 0.80302 0.17313 0.87821 0.0
C680 C 0.82559 0.19094 0.86808 0.0
C681 C 0.84423 0.21737 0.87397 0.0
C682 C 0.84071 0.22585 0.8897 0.0
C683 C 0.81831 0.20775 0.89977 0.0
C684 C 0.79974 0.18198 0.89392 0.0
C685 C 0.77699 0.16571 0.90632 0.0
C686 C 0.78511 0.18594 0.92058 0.0
C687 C 0.80941 0.21042 0.91667 0.0
C688 C 0.77909 0.14027 0.9113 0.0
C689 C 0.74868 0.15918 0.8984 0.0
C690 C 0.86847 0.29722 0.94945 0.0
C691 C 0.86613 0.3059 0.96545 0.0
C692 C 0.84279 0.28857 0.97531 0.0
C693 C 0.82231 0.26299 0.96938 0.0
C694 C 0.82514 0.25453 0.9534 0.0
C695 C 0.8479 0.27165 0.94372 0.0
C696 C 0.84753 0.25948 0.92705 0.0
C697 C 0.82108 0.23201 0.92841 0.0
C698 C 0.80799 0.22917 0.94385 0.0
C699 C 0.87403 0.25663 0.92579 0.0
C700 C 0.84507 0.27763 0.9134 0.0
H701 H 0.73008 0.12603 0.92627 0.0
H702 H 0.7169 0.15812 0.98129 0.0
H703 H 0.73523 0.21037 0.95581 0.0
H704 H 0.76657 0.2371 0.96401 0.0
H705 H 0.74133 0.21181 0.97786 0.0
H706 H 0.7813 0.17603 0.97911 0.0
H707 H 0.77038 0.19638 0.99053 0.0
H708 H 0.80292 0.21155 0.97921 0.0
H709 H 0.78818 0.15277 0.874 0.0
H710 H 0.86198 0.23138 0.86653 0.0
H711 H 0.85579 0.24612 0.89347 0.0
H712 H 0.80111 0.14462 0.91082 0.0
H713 H 0.76659 0.12292 0.90278 0.0
H714 H 0.77248 0.13374 0.92427 0.0
H715 H 0.75079 0.17705 0.89133 0.0
H716 H 0.7322 0.15462 0.90768 0.0
H717 H 0.7412 0.1418 0.88959 0.0
H718 H 0.69154 0.09555 0.94376 0.0
C719 C 0.72794 0.13377 0.93803 0.0
C720 C 0.54993 0.84384 0.06748 0.0
C721 C 0.55558 0.8684 0.07526 0.0
C722 C 0.5699 0.87529 0.09065 0.0
C723 C 0.57119 0.83314 0.09069 0.0
C724 C 0.55808 0.82669 0.07536 0.0
C725 C 0.55418 0.80008 0.06878 0.0
H726 H 0.57223 0.6908 0.07899 0.0
C727 C 0.57633 0.81087 0.09569 0.0
C728 C 0.56673 0.79154 0.08284 0.0
H729 H 0.53386 0.7089 0.03745 0.0
H730 H 0.5423 0.75034 0.05085 0.0
H731 H 0.6231 0.7524 0.08561 0.0
H732 H 0.54058 0.70616 0.10665 0.0
H733 H 0.5635 0.72491 0.12286 0.0
H734 H 0.56827 0.69954 0.11206 0.0
H735 H 0.613 0.72335 0.09884 0.0
H736 H 0.62563 0.75692 0.10737 0.0
C737 C 0.57122 0.80605 0.05247 0.0
C738 C 0.52242 0.78013 0.06674 0.0
C739 C 0.61673 0.81338 0.1529 0.0
C740 C 0.62321 0.79557 0.16153 0.0
C741 C 0.61934 0.77182 0.1534 0.0
C742 C 0.60881 0.76577 0.13707 0.0
C743 C 0.60204 0.78364 0.12873 0.0
C744 C 0.6062 0.80704 0.13666 0.0
C745 C 0.59808 0.82384 0.126 0.0
C746 C 0.58779 0.80644 0.11042 0.0
C747 C 0.59017 0.78293 0.11203 0.0
C748 C 0.62464 0.85171 0.12264 0.0
C749 C 0.57423 0.82575 0.13497 0.0
C750 C 0.56543 0.70352 0.07278 0.0
C751 C 0.55249 0.69643 0.057 0.0
C752 C 0.54437 0.71396 0.0494 0.0
C753 C 0.5491 0.738 0.05728 0.0
C754 C 0.56194 0.74468 0.07302 0.0
C755 C 0.56971 0.72747 0.08056 0.0
C756 C 0.58213 0.73733 0.09759 0.0
C757 C 0.58111 0.76362 0.09885 0.0
C758 C 0.56932 0.76784 0.08439 0.0
C759 C 0.61253 0.74268 0.09751 0.0
C760 C 0.56288 0.71593 0.11056 0.0
H761 H 0.58818 0.86426 0.11013 0.0
H762 H 0.53902 0.83782 0.05567 0.0
H763 H 0.51044 0.78298 0.07692 0.0
H764 H 0.51689 0.75853 0.0676 0.0
H765 H 0.51457 0.78352 0.05473 0.0
H766 H 0.59101 0.82591 0.05327 0.0
H767 H 0.55919 0.80707 0.04164 0.0
H768 H 0.5779 0.79097 0.04987 0.0
H769 H 0.62002 0.8321 0.15859 0.0
H770 H 0.62405 0.75767 0.15978 0.0
H771 H 0.60622 0.74735 0.13159 0.0
H772 H 0.64393 0.85006 0.12324 0.0
H773 H 0.62692 0.86721 0.13193 0.0
H774 H 0.62488 0.85954 0.10997 0.0
H775 H 0.55919 0.80583 0.14067 0.0
H776 H 0.56154 0.83066 0.12653 0.0
H777 H 0.58265 0.84116 0.1451 0.0
H778 H 0.57537 0.89438 0.09674 0.0
C779 C 0.57759 0.85783 0.09839 0.0
C780 C 0.30854 0.84371 0.06088 0.0
C781 C 0.32839 0.86948 0.06684 0.0
C782 C 0.32344 0.87858 0.08214 0.0
C783 C 0.28014 0.83563 0.08565 0.0
C784 C 0.28473 0.82734 0.07035 0.0
C785 C 0.26191 0.79945 0.06558 0.0
H786 H 0.14097 0.68524 0.0833 0.0
C787 C 0.25379 0.81299 0.09253 0.0
C788 C 0.24308 0.79191 0.08068 0.0
H789 H 0.19072 0.70517 0.03847 0.0
H790 H 0.224 0.74844 0.05006 0.0
H791 H 0.19183 0.70792 0.10856 0.0
H792 H 0.14695 0.74535 0.08793 0.0
H793 H 0.15187 0.75309 0.1093 0.0
H794 H 0.13194 0.71804 0.10278 0.0
H795 H 0.15795 0.69993 0.11603 0.0
H796 H 0.18956 0.72807 0.12439 0.0
C797 C 0.27498 0.7808 0.0637 0.0
C798 C 0.24747 0.80216 0.04964 0.0
C799 C 0.21929 0.81935 0.15053 0.0
C800 C 0.196 0.80095 0.16009 0.0
C801 C 0.17759 0.77506 0.15331 0.0
C802 C 0.18185 0.76776 0.13738 0.0
C803 C 0.20489 0.7864 0.12795 0.0
C804 C 0.22332 0.81165 0.13456 0.0
C805 C 0.24691 0.82856 0.1227 0.0
C806 C 0.2395 0.80928 0.10794 0.0
C807 C 0.21474 0.78463 0.11112 0.0
C808 C 0.27467 0.8344 0.13104 0.0
C809 C 0.24551 0.85444 0.11814 0.0
C810 C 0.15896 0.69906 0.07596 0.0
C811 C 0.16323 0.69165 0.05994 0.0
C812 C 0.1871 0.71012 0.05091 0.0
C813 C 0.20635 0.73542 0.05763 0.0
C814 C 0.20186 0.74255 0.07362 0.0
C815 C 0.17851 0.72453 0.08253 0.0
C816 C 0.17741 0.73573 0.09936 0.0
C817 C 0.20376 0.76358 0.09893 0.0
C818 C 0.2179 0.7673 0.08383 0.0
C819 C 0.17906 0.71698 0.11288 0.0
C820 C 0.15061 0.7381 0.10006 0.0
H821 H 0.29702 0.8696 0.10326 0.0
H822 H 0.31156 0.83633 0.04905 0.0
H823 H 0.24867 0.82238 0.04903 0.0
H824 H 0.22483 0.78731 0.04923 0.0
H825 H 0.2575 0.79997 0.03821 0.0
H826 H 0.29179 0.78607 0.0731 0.0
H827 H 0.28441 0.78305 0.05118 0.0
H828 H 0.25992 0.75906 0.06593 0.0
H829 H 0.23382 0.83946 0.15524 0.0
H830 H 0.15987 0.76019 0.16042 0.0
H831 H 0.16697 0.74779 0.13304 0.0
H832 H 0.27218 0.81585 0.13744 0.0
H833 H 0.28138 0.8508 0.1405 0.0
H834 H 0.29179 0.84012 0.12206 0.0
H835 H 0.22343 0.84962 0.11672 0.0
H836 H 0.25548 0.86328 0.10608 0.0
H837 H 0.25534 0.87023 0.12798 0.0
H838 H 0.33853 0.8984 0.087 0.0
C839 C 0.29946 0.86176 0.09161 0.0
C840 C 0.29404 0.45161 0.05901 0.0
C841 C 0.31345 0.44441 0.06535 0.0
C842 C 0.30929 0.43326 0.08148 0.0
C843 C 0.26626 0.43474 0.08436 0.0
C844 C 0.27049 0.44644 0.06872 0.0
C845 C 0.24672 0.45132 0.06387 0.0
H846 H 0.11646 0.4313 0.08179 0.0
C847 C 0.23921 0.43036 0.09093 0.0
C848 C 0.22746 0.44005 0.07898 0.0
H849 H 0.16604 0.4717 0.03849 0.0
H850 H 0.20421 0.46603 0.04935 0.0
H851 H 0.13109 0.38413 0.08391 0.0
H852 H 0.1657 0.46225 0.1077 0.0
H853 H 0.16655 0.44014 0.12273 0.0
H854 H 0.13336 0.43361 0.1143 0.0
H855 H 0.11335 0.39135 0.10012 0.0
H856 H 0.13736 0.37927 0.10472 0.0
C857 C 0.23282 0.43484 0.04792 0.0
C858 C 0.25862 0.48232 0.06188 0.0
C859 C 0.20283 0.38132 0.14666 0.0
C860 C 0.17749 0.37248 0.15529 0.0
C861 C 0.15784 0.37911 0.14874 0.0
C862 C 0.1628 0.39346 0.13375 0.0
C863 C 0.18771 0.40138 0.12497 0.0
C864 C 0.20739 0.39559 0.13153 0.0
C865 C 0.23241 0.40533 0.12023 0.0
C866 C 0.22443 0.41787 0.10588 0.0
C867 C 0.19818 0.41536 0.10875 0.0
C868 C 0.23435 0.38008 0.11462 0.0
C869 C 0.25841 0.42706 0.12978 0.0
C870 C 0.13551 0.4389 0.0746 0.0
C871 C 0.13807 0.45163 0.05917 0.0
C872 C 0.16351 0.46175 0.0504 0.0
C873 C 0.18556 0.45831 0.0567 0.0
C874 C 0.18229 0.44483 0.07203 0.0
C875 C 0.15766 0.43593 0.08078 0.0
C876 C 0.15768 0.42292 0.09706 0.0
C877 C 0.18614 0.42492 0.09669 0.0
C878 C 0.20065 0.43752 0.08194 0.0
C879 C 0.13357 0.39289 0.09662 0.0
C880 C 0.15551 0.44036 0.11127 0.0
H881 H 0.28418 0.41973 0.10307 0.0
H882 H 0.29662 0.46008 0.04661 0.0
H883 H 0.27406 0.49367 0.07189 0.0
H884 H 0.24243 0.48828 0.06299 0.0
H885 H 0.26941 0.48957 0.04972 0.0
H886 H 0.22949 0.41381 0.04901 0.0
H887 H 0.24619 0.44456 0.03686 0.0
H888 H 0.21203 0.43248 0.04554 0.0
H889 H 0.21832 0.37646 0.15128 0.0
H890 H 0.13839 0.37301 0.15521 0.0
H891 H 0.14675 0.39747 0.12947 0.0
H892 H 0.21318 0.36188 0.11332 0.0
H893 H 0.24616 0.37499 0.1238 0.0
H894 H 0.24392 0.38258 0.10221 0.0
H895 H 0.2529 0.43978 0.13775 0.0
H896 H 0.27501 0.4417 0.12145 0.0
H897 H 0.26722 0.41737 0.13802 0.0
H898 H 0.32395 0.42769 0.08665 0.0
C899 C 0.28607 0.42856 0.09099 0.0
C900 C 0.51485 0.88571 0.29491 0.0
C901 C 0.54121 0.89233 0.28834 0.0
C902 C 0.54792 0.90281 0.27204 0.0
C903 C 0.50336 0.90138 0.26931 0.0
C904 C 0.49634 0.89061 0.28521 0.0
C905 C 0.46811 0.88645 0.2904 0.0
H906 H 0.35753 0.90541 0.27322 0.0
C907 C 0.48049 0.90544 0.26278 0.0
C908 C 0.45965 0.89679 0.27512 0.0
H909 H 0.36958 0.86891 0.31741 0.0
H910 H 0.41257 0.87365 0.30585 0.0
H911 H 0.42092 0.95261 0.26859 0.0
H912 H 0.37271 0.87211 0.24819 0.0
H913 H 0.39536 0.89203 0.23224 0.0
H914 H 0.3699 0.90033 0.24029 0.0
H915 H 0.39343 0.94347 0.25363 0.0
H916 H 0.42887 0.95484 0.24727 0.0
C917 C 0.47228 0.90424 0.30592 0.0
C918 C 0.44827 0.85566 0.29326 0.0
C919 C 0.48893 0.94695 0.2049 0.0
C920 C 0.47113 0.9533 0.1956 0.0
C921 C 0.44566 0.94819 0.20282 0.0
C922 C 0.43795 0.93699 0.2188 0.0
C923 C 0.4558 0.93068 0.22791 0.0
C924 C 0.48077 0.93555 0.22093 0.0
C925 C 0.49688 0.92727 0.23251 0.0
C926 C 0.47736 0.9165 0.24747 0.0
C927 C 0.45345 0.91876 0.2447 0.0
C928 C 0.52491 0.95314 0.23686 0.0
C929 C 0.50009 0.90448 0.2239 0.0
C930 C 0.36951 0.89858 0.28047 0.0
C931 C 0.36037 0.88716 0.29634 0.0
C932 C 0.37622 0.87786 0.30517 0.0
C933 C 0.40123 0.88076 0.29846 0.0
C934 C 0.4104 0.89285 0.28267 0.0
C935 C 0.39418 0.90102 0.27389 0.0
C936 C 0.40608 0.91233 0.25705 0.0
C937 C 0.43255 0.91037 0.25721 0.0
C938 C 0.43532 0.89916 0.27229 0.0
C939 C 0.41257 0.94233 0.25642 0.0
C940 C 0.38499 0.89349 0.24366 0.0
H941 H 0.53584 0.91543 0.25026 0.0
H942 H 0.50926 0.8779 0.30746 0.0
H943 H 0.45171 0.84343 0.28369 0.0
H944 H 0.42601 0.84977 0.29212 0.0
H945 H 0.45191 0.84929 0.30568 0.0
H946 H 0.49091 0.92482 0.30435 0.0
H947 H 0.47558 0.89489 0.31725 0.0
H948 H 0.4546 0.90777 0.30814 0.0
H949 H 0.50857 0.95042 0.19975 0.0
H950 H 0.43172 0.95324 0.19616 0.0
H951 H 0.41835 0.93383 0.22348 0.0
H952 H 0.52234 0.97145 0.23736 0.0
H953 H 0.54116 0.95707 0.22741 0.0
H954 H 0.53289 0.95215 0.24932 0.0
H955 H 0.48076 0.89046 0.21689 0.0
H956 H 0.50314 0.89128 0.2328 0.0
H957 H 0.5177 0.91315 0.2149 0.0
H958 H 0.56803 0.90801 0.26674 0.0
C959 C 0.5292 0.9072 0.26251 0.0
C960 C 0.12589 0.48772 0.28655 0.0
C961 C 0.11866 0.46259 0.27902 0.0
C962 C 0.10352 0.45574 0.2639 0.0
C963 C 0.10424 0.49893 0.26379 0.0
C964 C 0.11825 0.5053 0.27884 0.0
C965 C 0.1235 0.53227 0.28551 0.0
H966 H 0.10871 0.64341 0.27755 0.0
C967 C 0.09991 0.52182 0.25901 0.0
C968 C 0.11085 0.54126 0.2718 0.0
H969 H 0.14766 0.62321 0.31781 0.0
H970 H 0.13798 0.58195 0.30373 0.0
H971 H 0.13874 0.62883 0.24921 0.0
H972 H 0.05665 0.58218 0.27055 0.0
H973 H 0.05372 0.57939 0.24868 0.0
H974 H 0.0674 0.61234 0.25827 0.0
H975 H 0.1106 0.63444 0.24329 0.0
H976 H 0.11637 0.60926 0.23302 0.0
C977 C 0.15554 0.5514 0.28696 0.0
C978 C 0.1074 0.52698 0.30216 0.0
C979 C 0.05712 0.52123 0.20274 0.0
C980 C 0.05174 0.54013 0.19445 0.0
C981 C 0.0579 0.56451 0.20274 0.0
C982 C 0.06921 0.56996 0.21888 0.0
C983 C 0.07466 0.55095 0.22688 0.0
C984 C 0.06865 0.5271 0.21879 0.0
C985 C 0.0762 0.50943 0.22909 0.0
C986 C 0.08814 0.52682 0.24459 0.0
C987 C 0.08702 0.55104 0.24328 0.0
C988 C 0.09862 0.50601 0.2195 0.0
C989 C 0.04906 0.48231 0.23288 0.0
C990 C 0.11538 0.63026 0.28332 0.0
C991 C 0.12878 0.63666 0.29898 0.0
C992 C 0.13677 0.61865 0.30599 0.0
C993 C 0.13131 0.59471 0.29771 0.0
C994 C 0.11783 0.58862 0.28216 0.0
C995 C 0.11035 0.60639 0.27513 0.0
C996 C 0.09726 0.59708 0.25818 0.0
C997 C 0.09732 0.57036 0.25647 0.0
C998 C 0.10932 0.56552 0.27058 0.0
C999 C 0.11648 0.61846 0.24517 0.0
C1000 C 0.0672 0.59261 0.25879 0.0
H1001 H 0.08504 0.46736 0.24473 0.0
H1002 H 0.1376 0.49389 0.29809 0.0
H1003 H 0.0876 0.50707 0.3019 0.0
H1004 H 0.10074 0.54209 0.30473 0.0
H1005 H 0.12006 0.52651 0.3128 0.0
H1006 H 0.16662 0.54782 0.27655 0.0
H1007 H 0.16373 0.54791 0.2988 0.0
H1008 H 0.16181 0.57319 0.28601 0.0
H1009 H 0.05227 0.50211 0.19692 0.0
H1010 H 0.05438 0.57965 0.19666 0.0
H1011 H 0.07341 0.58885 0.22447 0.0
H1012 H 0.11429 0.52569 0.21382 0.0
H1013 H 0.08897 0.49087 0.20931 0.0
H1014 H 0.11079 0.49987 0.22754 0.0
H1015 H 0.03062 0.48537 0.23347 0.0
H1016 H 0.0496 0.47379 0.24519 0.0
H1017 H 0.04479 0.46684 0.22311 0.0
H1018 H 0.09689 0.43627 0.25798 0.0
C1019 C 0.09641 0.47376 0.25624 0.0
C1020 C 0.37183 0.49246 0.29713 0.0
C1021 C 0.35215 0.46668 0.29106 0.0
C1022 C 0.35795 0.45719 0.27619 0.0
C1023 C 0.40215 0.49936 0.27349 0.0
C1024 C 0.39658 0.50826 0.28827 0.0
C1025 C 0.41976 0.53583 0.29335 0.0
H1026 H 0.5482 0.64324 0.27968 0.0
C1027 C 0.42969 0.521 0.26738 0.0
C1028 C 0.44009 0.54227 0.27911 0.0
H1029 H 0.49199 0.63026 0.32063 0.0
H1030 H 0.45768 0.58772 0.30865 0.0
H1031 H 0.53633 0.58186 0.27691 0.0
H1032 H 0.50168 0.62551 0.25178 0.0
H1033 H 0.5026 0.60325 0.23694 0.0
H1034 H 0.53487 0.62931 0.24605 0.0
H1035 H 0.55533 0.60818 0.26187 0.0
H1036 H 0.53345 0.57316 0.25571 0.0
C1037 C 0.43186 0.53268 0.31014 0.0
C1038 C 0.40796 0.55566 0.29384 0.0
C1039 C 0.46935 0.51088 0.21207 0.0
C1040 C 0.4947 0.52778 0.20376 0.0
C1041 C 0.51381 0.55305 0.21092 0.0
C1042 C 0.50815 0.56127 0.22613 0.0
C1043 C 0.48306 0.54408 0.23444 0.0
C1044 C 0.46403 0.5194 0.22741 0.0
C1045 C 0.43866 0.50381 0.23832 0.0
C1046 C 0.44553 0.52343 0.25284 0.0
C1047 C 0.47165 0.54693 0.25045 0.0
C1048 C 0.43735 0.47692 0.24376 0.0
C1049 C 0.41268 0.49977 0.22851 0.0
C1050 C 0.52842 0.63138 0.28601 0.0
C1051 C 0.52307 0.64012 0.30129 0.0
C1052 C 0.49703 0.62382 0.30908 0.0
C1053 C 0.47697 0.59912 0.30203 0.0
C1054 C 0.48281 0.59049 0.28693 0.0
C1055 C 0.50803 0.60667 0.27907 0.0
C1056 C 0.51023 0.59451 0.26288 0.0
C1057 C 0.48238 0.5681 0.26251 0.0
C1058 C 0.46654 0.56584 0.27667 0.0
C1059 C 0.5352 0.58923 0.26423 0.0
C1060 C 0.51268 0.61409 0.2486 0.0
H1061 H 0.38587 0.46525 0.256 0.0
H1062 H 0.36813 0.50015 0.30863 0.0
H1063 H 0.39172 0.55043 0.28407 0.0
H1064 H 0.42394 0.57698 0.29116 0.0
H1065 H 0.39817 0.5548 0.30606 0.0
H1066 H 0.43119 0.5127 0.31082 0.0
H1067 H 0.4197 0.53376 0.32083 0.0
H1068 H 0.45413 0.54794 0.31188 0.0
H1069 H 0.45433 0.49126 0.20694 0.0
H1070 H 0.53327 0.56661 0.20468 0.0
H1071 H 0.52368 0.58068 0.23087 0.0
H1072 H 0.45872 0.47994 0.24564 0.0
H1073 H 0.42675 0.46079 0.23419 0.0
H1074 H 0.42678 0.46931 0.25584 0.0
H1075 H 0.41726 0.51885 0.2219 0.0
H1076 H 0.39462 0.49485 0.23658 0.0
H1077 H 0.40631 0.48343 0.21904 0.0
H1078 H 0.34297 0.43741 0.27123 0.0
C1079 C 0.38277 0.47343 0.26733 0.0
Tb1080 Tb 0.50038 0.99299 0.99449 0.0
C1081 C 0.57183 0.0859 0.03221 0.0
C1082 C 0.61509 0.08492 0.03429 0.0
C1083 C 0.61644 0.12778 0.02893 0.0
C1084 C 0.58554 0.07138 0.03437 0.0
C1085 C 0.58719 0.11449 0.03012 0.0
C1086 C 0.63038 0.11298 0.03099 0.0
C1087 C 0.54422 0.11533 0.03316 0.0
N1088 N 0.5436 0.07235 0.03351 0.0
C1089 C 0.53008 0.08709 0.03537 0.0
C1090 C 0.57283 0.12905 0.03005 0.0
Tb1091 Tb 0.52179 0.02513 0.03463 0.0
N1092 N 0.56997 0.04424 0.0374 0.0
C1093 C 0.58324 0.03048 0.04281 0.0
C1094 C 0.62841 0.07004 0.038 0.0
C1095 C 0.6124 0.04287 0.04271 0.0
H1096 H 0.50821 0.07737 0.03858 0.0
H1097 H 0.62251 0.0315 0.04653 0.0
H1098 H 0.65302 0.12357 0.03057 0.0
H1099 H 0.53305 0.12653 0.03408 0.0
H1100 H 0.57189 0.00999 0.04759 0.0
H1101 H 0.3952 0.97647 0.99791 0.0
H1102 H 0.65101 0.07963 0.03802 0.0
H1103 H 0.52293 0.95305 0.97911 0.0
H1104 H 0.44655 0.00386 0.99678 0.0
H1105 H 0.50363 0.90392 0.9733 0.0
H1106 H 0.6285 0.14961 0.02703 0.0
H1107 H 0.37187 0.92616 0.99639 0.0
H1108 H 0.37611 0.88416 0.99238 0.0
H1109 H 0.58382 0.15098 0.0285 0.0
H1110 H 0.40586 0.86421 0.9859 0.0
N1111 N 0.45254 0.96957 0.99506 0.0
C1112 C 0.43676 0.98202 0.99615 0.0
C1113 C 0.39447 0.93813 0.9959 0.0
C1114 C 0.41069 0.9256 0.99385 0.0
C1115 C 0.40756 0.96651 0.99672 0.0
C1116 C 0.44001 0.94215 0.99333 0.0
H1117 H 0.45352 0.87151 0.97841 0.0
N1118 N 0.48449 0.94806 0.98835 0.0
C1119 C 0.49022 0.91119 0.97816 0.0
C1120 C 0.45664 0.93093 0.98996 0.0
C1121 C 0.50106 0.93895 0.98144 0.0
C1122 C 0.46195 0.89295 0.98111 0.0
C1123 C 0.44459 0.90285 0.98665 0.0
O1124 O 0.52185 0.99979 0.97169 0.0
O1125 O 0.5331 0.02601 1.00876 0.0
O1126 O 0.49481 0.03862 0.02216 0.0
O1127 O 0.50185 0.03222 0.99456 0.0
O1128 O 0.54412 0.00361 0.99355 0.0
O1129 O 0.48414 0.00169 0.973 0.0
O1130 O 0.50366 0.03617 0.05414 0.0
O1131 O 0.48643 0.99754 0.019 0.0
O1132 O 0.50807 0.9651 1.00962 0.0
O1133 O 0.53169 0.99212 0.03269 0.0
O1134 O 0.48905 0.98535 0.04264 0.0
O1135 O 0.52684 0.01558 0.05919 0.0
C1136 C 0.55377 0.02443 1.00331 0.0
C1137 C 0.49467 0.98871 0.94717 0.0
C1138 C 0.49905 0.98901 0.91679 0.0
C1139 C 0.50675 0.00277 0.93222 0.0
C1140 C 0.47904 0.9611 0.91658 0.0
C1141 C 0.4744 0.96102 0.94654 0.0
C1142 C 0.46675 0.94731 0.93133 0.0
C1143 C 0.49517 0.04447 1.00613 0.0
C1144 C 0.50362 0.0031 0.96328 0.0
C1145 C 0.41552 0.88592 0.98814 0.0
C1146 C 0.39858 0.89729 0.99178 0.0
C1147 C 0.47407 0.97838 0.02945 0.0
C1148 C 0.5243 0.04168 0.08115 0.0
C1149 C 0.51838 0.02733 0.09634 0.0
C1150 C 0.52953 0.04112 0.11151 0.0
C1151 C 0.54659 0.06968 0.11112 0.0
C1152 C 0.54157 0.07004 0.0811 0.0
C1153 C 0.55254 0.08392 0.09605 0.0
C1154 C 0.52277 0.9699 0.02348 0.0
C1155 C 0.51285 0.02622 0.06561 0.0
H1156 H 0.52233 0.02422 0.93262 0.0
H1157 H 0.47248 0.95003 0.90492 0.0
H1158 H 0.46439 0.94998 0.95774 0.0
H1159 H 0.45113 0.92591 0.93097 0.0
H1160 H 0.5055 0.00532 0.09626 0.0
H1161 H 0.55517 0.08112 0.12249 0.0
H1162 H 0.54666 0.0814 0.06956 0.0
H1163 H 0.56575 0.10586 0.09597 0.0
Tb1164 Tb 0.02089 0.50992 0.99494 0.0
C1165 C 0.91346 0.46737 0.03568 0.0
C1166 C 0.89753 0.49963 0.03073 0.0
C1167 C 0.86379 0.45224 0.0366 0.0
C1168 C 0.91928 0.4934 0.03187 0.0
C1169 C 0.88573 0.44653 0.03843 0.0
C1170 C 0.86969 0.47877 0.03274 0.0
C1171 C 0.90376 0.41671 0.04581 0.0
N1172 N 0.93528 0.46283 0.03745 0.0
C1173 C 0.93092 0.43813 0.04303 0.0
C1174 C 0.88102 0.42082 0.04332 0.0
Tb1175 Tb 0.97895 0.49885 0.03202 0.0
N1176 N 0.94646 0.51294 0.03024 0.0
C1177 C 0.9534 0.53967 0.0286 0.0
C1178 C 0.90448 0.52672 0.02807 0.0
C1179 C 0.93257 0.54687 0.02724 0.0
H1180 H 0.94831 0.43466 0.04488 0.0
H1181 H 0.93822 0.56798 0.02549 0.0
H1182 H 0.85265 0.48307 0.03175 0.0
H1183 H 0.90038 0.39703 0.04985 0.0
H1184 H 0.97494 0.55556 0.02784 0.0
H1185 H 0.05753 0.43723 0.99881 0.0
H1186 H 0.8884 0.53237 0.02705 0.0
H1187 H 0.0541 0.5749 0.98352 0.0
H1188 H 0.02225 0.45162 0.99738 0.0
H1189 H 0.10285 0.61179 0.97985 0.0
H1190 H 0.8423 0.43646 0.03851 0.0
H1191 H 0.10785 0.47157 0.99812 0.0
H1192 H 0.14514 0.52076 0.99523 0.0
H1193 H 0.86002 0.40423 0.04554 0.0
H1194 H 0.15755 0.56847 0.99024 0.0
N1195 N 0.05201 0.49408 0.99614 0.0
C1196 C 0.04402 0.467 0.99694 0.0
C1197 C 0.09241 0.47808 0.99742 0.0
C1198 C 0.10048 0.50564 0.99576 0.0
C1199 C 0.06403 0.45865 0.99777 0.0
C1200 C 0.07951 0.513 0.99499 0.0
H1201 H 0.14188 0.60261 0.98427 0.0
N1202 N 0.06539 0.54525 0.99048 0.0
C1203 C 0.09854 0.5916 0.98338 0.0
C1204 C 0.08648 0.53964 0.99218 0.0
C1205 C 0.07093 0.5706 0.98541 0.0
C1206 C 0.12052 0.58636 0.98594 0.0
C1207 C 0.11462 0.55998 0.99008 0.0
O1208 O 0.01752 0.52177 0.97057 0.0
O1209 O 0.9843 0.50844 1.00576 0.0
O1210 O 0.95365 0.46659 0.01452 0.0
O1211 O 0.98841 0.46642 0.99806 0.0
O1212 O 1.005 0.53752 0.9883 0.0
O1213 O 0.01073 0.48151 0.97554 0.0
O1214 O 0.98413 0.48902 0.05658 0.0
O1215 O 0.01516 0.50012 0.02096 0.0
O1216 O 0.04576 0.54205 0.01295 0.0
O1217 O 0.01013 0.54217 0.02841 0.0
O1218 O 0.99619 0.47228 0.03915 0.0
O1219 O 0.988 0.52796 0.05083 0.0
C1220 C 0.98338 0.5272 0.99774 0.0
C1221 C 0.02891 0.50043 0.94917 0.0
C1222 C 0.03058 0.49278 0.91931 0.0
C1223 C 0.01527 0.49103 0.93377 0.0
C1224 C 0.05977 0.50417 0.92059 0.0
C1225 C 0.05795 0.51154 0.9501 0.0
C1226 C 0.07326 0.5134 0.93589 0.0
C1227 C 0.96226 0.4548 1.00366 0.0
C1228 C 0.01263 0.4987 0.9641 0.0
C1229 C 0.13576 0.5531 0.99164 0.0
C1230 C 0.1287 0.52594 0.99447 0.0
C1231 C 0.01707 0.48211 0.02914 0.0
C1232 C 0.97158 0.50991 0.07764 0.0
C1233 C 0.98508 0.51733 0.09319 0.0
C1234 C 0.96993 0.51538 0.10776 0.0
C1235 C 0.94102 0.50569 0.10645 0.0
C1236 C 0.94283 0.50055 0.07667 0.0
C1237 C 0.92765 0.4984 0.091 0.0
C1238 C 0.03656 0.55376 0.02356 0.0
C1239 C 0.98771 0.51192 0.06259 0.0
H1240 H 0.99276 0.48216 0.93312 0.0
H1241 H 0.0723 0.50636 0.90972 0.0
H1242 H 0.06884 0.51888 0.96173 0.0
H1243 H 0.09572 0.52216 0.93671 0.0
H1244 H 0.0074 0.52492 0.09388 0.0
H1245 H 0.92861 0.50341 0.11739 0.0
H1246 H 0.93208 0.49489 0.06489 0.0
H1247 H 0.90541 0.49098 0.09014 0.0
Tb1248 Tb 0.51347 0.48928 0.03466 0.0
C1249 C 0.45647 0.5339 0.99111 0.0
C1250 C 0.40783 0.49908 0.99361 0.0
C1251 C 0.42013 0.54634 0.98968 0.0
C1252 C 0.43647 0.50686 0.99357 0.0
C1253 C 0.44844 0.55375 0.98853 0.0
C1254 C 0.39985 0.51905 0.99224 0.0
C1255 C 0.49641 0.58596 0.98168 0.0
N1256 N 0.48361 0.54034 0.98989 0.0
C1257 C 0.50333 0.56555 0.98426 0.0
C1258 C 0.46895 0.5802 0.98417 0.0
Tb1259 Tb 0.49277 0.50593 0.9959 0.0
N1260 N 0.44495 0.48803 0.99472 0.0
C1261 C 0.42542 0.46083 0.99401 0.0
C1262 C 0.38799 0.47139 0.99436 0.0
C1263 C 0.39683 0.4522 0.99416 0.0
H1264 H 0.52469 0.57033 0.98253 0.0
H1265 H 0.38161 0.43067 0.99417 0.0
H1266 H 0.37799 0.51346 0.99252 0.0
H1267 H 0.51229 0.60613 0.97784 0.0
H1268 H 0.43114 0.44526 0.99379 0.0
H1269 H 0.6242 0.56208 0.0372 0.0
H1270 H 0.36582 0.4646 0.99447 0.0
H1271 H 0.47853 0.42312 0.04302 0.0
H1272 H 0.57418 0.54771 0.03603 0.0
H1273 H 0.4891 0.38588 0.04724 0.0
H1274 H 0.4136 0.56139 0.988 0.0
H1275 H 0.63931 0.5276 0.0387 0.0
H1276 H 0.62607 0.4782 0.04091 0.0
H1277 H 0.46362 0.59602 0.98209 0.0
H1278 H 0.58927 0.43015 0.0436 0.0
N1279 N 0.56064 0.50521 0.03638 0.0
C1280 C 0.58026 0.53231 0.03671 0.0
C1281 C 0.61723 0.5211 0.03817 0.0
C1282 C 0.59704 0.49345 0.03872 0.0
C1283 C 0.60877 0.54061 0.03736 0.0
C1284 C 0.5686 0.48613 0.03789 0.0
H1285 H 0.53807 0.39552 0.04616 0.0
N1286 N 0.52103 0.4534 0.03911 0.0
C1287 C 0.50588 0.40641 0.04493 0.0
C1288 C 0.54805 0.45921 0.03926 0.0
C1289 C 0.49998 0.42756 0.04259 0.0
C1290 C 0.53354 0.41192 0.04427 0.0
C1291 C 0.5551 0.43868 0.04168 0.0
O1292 O 0.49162 0.4733 0.05707 0.0
O1293 O 0.48163 0.49409 0.02158 0.0
O1294 O 0.50411 0.54103 0.01229 0.0
O1295 O 0.52465 0.53224 0.0353 0.0
O1296 O 0.46826 0.4612 0.03677 0.0
O1297 O 0.52924 0.51243 0.05658 0.0
O1298 O 0.50865 0.49054 0.9775 0.0
O1299 O 0.52537 0.50386 1.00942 0.0
O1300 O 0.51007 0.46019 0.01591 0.0
O1301 O 0.47758 0.46173 0.99809 0.0
O1302 O 0.53718 0.53691 0.99463 0.0
O1303 O 0.4853 0.50969 0.97047 0.0
C1304 C 0.45982 0.47413 0.0274 0.0
C1305 C 0.51849 0.48725 0.0817 0.0
C1306 C 0.51695 0.48569 0.11217 0.0
C1307 C 0.50912 0.49228 0.09686 0.0
C1308 C 0.53402 0.47366 0.11196 0.0
C1309 C 0.53582 0.47567 0.08188 0.0
C1310 C 0.54341 0.4688 0.09692 0.0
C1311 C 0.51744 0.54786 0.02677 0.0
C1312 C 0.50966 0.4939 0.06588 0.0
C1313 C 0.58338 0.44566 0.0419 0.0
C1314 C 0.60433 0.47301 0.0404 0.0
C1315 C 0.54676 0.5248 1.00394 0.0
C1316 C 0.5202 0.5136 0.95171 0.0
C1317 C 0.5175 0.50077 0.93623 0.0
C1318 C 0.53709 0.51428 0.92339 0.0
C1319 C 0.55936 0.54077 0.92634 0.0
C1320 C 0.54249 0.54013 0.95418 0.0
C1321 C 0.56197 0.55352 0.94161 0.0
C1322 C 0.49096 0.44943 1.00409 0.0
C1323 C 0.49985 0.49897 0.96513 0.0
H1324 H 0.49611 0.50168 0.09671 0.0
H1325 H 0.54001 0.46782 0.12343 0.0
H1326 H 0.54346 0.47187 0.07046 0.0
H1327 H 0.55663 0.45965 0.09693 0.0
H1328 H 0.50035 0.48025 0.93426 0.0
H1329 H 0.57452 0.55191 0.9167 0.0
H1330 H 0.54495 0.55069 0.96574 0.0
H1331 H 0.57909 0.57398 0.94367 0.0
Tb1332 Tb 0.15686 0.31012 0.32215 0.0
C1333 C 0.22534 0.40636 0.36524 0.0
C1334 C 0.27071 0.41031 0.36144 0.0
C1335 C 0.26721 0.4509 0.3665 0.0
C1336 C 0.24134 0.3944 0.36213 0.0
C1337 C 0.23808 0.43463 0.36811 0.0
C1338 C 0.28352 0.43875 0.36314 0.0
C1339 C 0.19288 0.42784 0.37627 0.0
N1340 N 0.19741 0.38985 0.36694 0.0
C1341 C 0.18136 0.39987 0.37344 0.0
C1342 C 0.22129 0.44539 0.37327 0.0
Tb1343 Tb 0.18029 0.34446 0.36163 0.0
N1344 N 0.22811 0.36691 0.36068 0.0
C1345 C 0.24324 0.35378 0.35967 0.0
C1346 C 0.28627 0.39707 0.35956 0.0
C1347 C 0.27247 0.36863 0.35898 0.0
H1348 H 0.15939 0.3863 0.37583 0.0
H1349 H 0.28432 0.35813 0.35787 0.0
H1350 H 0.30604 0.4514 0.36241 0.0
H1351 H 0.17989 0.4358 0.38083 0.0
H1352 H 0.23291 0.3319 0.35917 0.0
H1353 H 0.05004 0.29226 0.32082 0.0
H1354 H 0.30888 0.40852 0.35896 0.0
H1355 H 0.17766 0.26483 0.3119 0.0
H1356 H 0.10026 0.31935 0.31735 0.0
H1357 H 0.15829 0.21535 0.31313 0.0
H1358 H 0.2774 0.47273 0.3684 0.0
H1359 H 0.02774 0.24293 0.32649 0.0
H1360 H 0.03254 0.20138 0.32931 0.0
H1361 H 0.23025 0.46701 0.37562 0.0
H1362 H 0.06221 0.18033 0.32752 0.0
N1363 N 0.10837 0.28653 0.3224 0.0
C1364 C 0.0918 0.29816 0.32033 0.0
C1365 C 0.05025 0.25486 0.32521 0.0
C1366 C 0.0668 0.24257 0.32589 0.0
C1367 C 0.06277 0.28268 0.32204 0.0
C1368 C 0.0961 0.25908 0.32423 0.0
H1369 H 0.10901 0.18529 0.32122 0.0
N1370 N 0.14048 0.26369 0.32076 0.0
C1371 C 0.1453 0.22403 0.31636 0.0
C1372 C 0.11276 0.24729 0.32352 0.0
C1373 C 0.15621 0.25223 0.31582 0.0
C1374 C 0.11753 0.20717 0.32095 0.0
C1375 C 0.10062 0.21864 0.32405 0.0
O1376 O 0.17815 0.30674 0.3013 0.0
O1377 O 0.19286 0.33825 0.3372 0.0
O1378 O 0.17195 0.37141 0.34582 0.0
O1379 O 0.14625 0.34255 0.32378 0.0
O1380 O 0.1896 0.34943 0.31341 0.0
O1381 O 0.14377 0.31455 0.29834 0.0
O1382 O 0.16017 0.34024 0.38467 0.0
O1383 O 0.14682 0.31093 0.34821 0.0
O1384 O 0.18191 0.29479 0.33485 0.0
O1385 O 0.17872 0.30513 0.36239 0.0
O1386 O 0.13679 0.33426 0.36318 0.0
O1387 O 0.19603 0.3351 0.38305 0.0
C1388 C 0.20494 0.35687 0.32644 0.0
C1389 C 0.15541 0.29697 0.27481 0.0
C1390 C 0.15693 0.29929 0.24428 0.0
C1391 C 0.16442 0.31221 0.25996 0.0
C1392 C 0.14049 0.27068 0.24381 0.0
C1393 C 0.13882 0.26858 0.27401 0.0
C1394 C 0.13156 0.25554 0.25855 0.0
C1395 C 0.15612 0.36556 0.33231 0.0
C1396 C 0.16302 0.31158 0.29081 0.0
C1397 C 0.07179 0.2023 0.32678 0.0
C1398 C 0.0549 0.21427 0.32774 0.0
C1399 C 0.12644 0.31262 0.3541 0.0
C1400 C 0.18767 0.34947 0.40898 0.0
C1401 C 0.17676 0.3349 0.4239 0.0
C1402 C 0.18631 0.34775 0.4395 0.0
C1403 C 0.20678 0.37555 0.43981 0.0
C1404 C 0.20826 0.37703 0.40967 0.0
C1405 C 0.21763 0.38999 0.42502 0.0
C1406 C 0.18315 0.29089 0.35102 0.0
C1407 C 0.17753 0.33538 0.3929 0.0
H1408 H 0.17672 0.33424 0.26067 0.0
H1409 H 0.13463 0.25995 0.23203 0.0
H1410 H 0.13134 0.25656 0.28526 0.0
H1411 H 0.11883 0.23357 0.25798 0.0
H1412 H 0.1612 0.31346 0.42331 0.0
H1413 H 0.21426 0.38629 0.45151 0.0
H1414 H 0.21715 0.3885 0.39839 0.0
H1415 H 0.23341 0.41133 0.42545 0.0
Tb1416 Tb 0.69495 0.84802 0.32404 0.0
C1417 C 0.58609 0.79832 0.36393 0.0
C1418 C 0.57088 0.83146 0.36073 0.0
C1419 C 0.53652 0.78365 0.36463 0.0
C1420 C 0.59236 0.8248 0.36134 0.0
C1421 C 0.5582 0.77751 0.36621 0.0
C1422 C 0.54286 0.81062 0.36186 0.0
C1423 C 0.57565 0.74729 0.3737 0.0
N1424 N 0.60766 0.79345 0.36567 0.0
C1425 C 0.60297 0.76875 0.37143 0.0
C1426 C 0.55311 0.75154 0.37076 0.0
Tb1427 Tb 0.65166 0.82936 0.36116 0.0
N1428 N 0.6197 0.84427 0.36062 0.0
C1429 C 0.62698 0.87122 0.3607 0.0
C1430 C 0.57826 0.85891 0.35964 0.0
C1431 C 0.60645 0.87889 0.35993 0.0
H1432 H 0.6203 0.7653 0.37371 0.0
H1433 H 0.61241 0.90023 0.35948 0.0
H1434 H 0.52602 0.81526 0.36121 0.0
H1435 H 0.57201 0.72751 0.37772 0.0
H1436 H 0.64861 0.88703 0.3608 0.0
H1437 H 0.73273 0.77598 0.32544 0.0
H1438 H 0.56241 0.86491 0.35907 0.0
H1439 H 0.72747 0.91285 0.31291 0.0
H1440 H 0.69708 0.78988 0.32435 0.0
H1441 H 0.77606 0.95028 0.30937 0.0
H1442 H 0.51489 0.76789 0.36611 0.0
H1443 H 0.78292 0.81076 0.32576 0.0
H1444 H 0.81985 0.86024 0.32393 0.0
H1445 H 0.53198 0.73497 0.37263 0.0
H1446 H 0.83177 0.90799 0.3197 0.0
N1447 N 0.72647 0.83254 0.3245 0.0
C1448 C 0.71878 0.80549 0.32439 0.0
C1449 C 0.76731 0.81708 0.32526 0.0
C1450 C 0.7751 0.84464 0.32431 0.0
C1451 C 0.73901 0.79741 0.32504 0.0
C1452 C 0.75391 0.85172 0.3238 0.0
H1453 H 0.81552 0.94177 0.31395 0.0
N1454 N 0.73933 0.88374 0.32008 0.0
C1455 C 0.77204 0.93018 0.31293 0.0
C1456 C 0.76062 0.8784 0.32163 0.0
C1457 C 0.74453 0.90892 0.31491 0.0
C1458 C 0.79425 0.92533 0.3156 0.0
C1459 C 0.78867 0.89901 0.31963 0.0
O1460 O 0.69179 0.86259 0.30042 0.0
O1461 O 0.65719 0.84282 0.33553 0.0
O1462 O 0.6281 0.79695 0.34324 0.0
O1463 O 0.66316 0.80433 0.32399 0.0
O1464 O 0.67771 0.87517 0.31994 0.0
O1465 O 0.68625 0.82236 0.30331 0.0
O1466 O 0.65932 0.81613 0.38408 0.0
O1467 O 0.68942 0.83486 0.3496 0.0
O1468 O 0.71841 0.87989 0.34243 0.0
O1469 O 0.68304 0.8731 0.36122 0.0
O1470 O 0.66903 0.80218 0.36493 0.0
O1471 O 0.65655 0.85268 0.38264 0.0
C1472 C 0.65574 0.86242 0.329 0.0
C1473 C 0.70457 0.8444 0.27775 0.0
C1474 C 0.70652 0.83613 0.24803 0.0
C1475 C 0.69098 0.83316 0.26258 0.0
C1476 C 0.73591 0.85053 0.24897 0.0
C1477 C 0.73386 0.85859 0.27836 0.0
C1478 C 0.7494 0.86162 0.26404 0.0
C1479 C 0.63783 0.78941 0.33046 0.0
C1480 C 0.68785 0.84063 0.29281 0.0
C1481 C 0.81004 0.8924 0.32099 0.0
C1482 C 0.80325 0.86522 0.32336 0.0
C1483 C 0.69113 0.81536 0.35601 0.0
C1484 C 0.6432 0.82794 0.40794 0.0
C1485 C 0.65718 0.83176 0.4232 0.0
C1486 C 0.64216 0.82358 0.43827 0.0
C1487 C 0.61281 0.81121 0.43771 0.0
C1488 C 0.61403 0.81605 0.40772 0.0
C1489 C 0.59894 0.80761 0.42254 0.0
C1490 C 0.70869 0.88761 0.35514 0.0
C1491 C 0.65944 0.83585 0.39242 0.0
H1492 H 0.66833 0.82186 0.26218 0.0
H1493 H 0.74851 0.85362 0.23799 0.0
H1494 H 0.74476 0.86733 0.28982 0.0
H1495 H 0.77201 0.87272 0.26462 0.0
H1496 H 0.6798 0.84147 0.4233 0.0
H1497 H 0.6005 0.8042 0.44898 0.0
H1498 H 0.60292 0.81324 0.39616 0.0
H1499 H 0.57638 0.7982 0.42227 0.0
Tb1500 Tb 0.18243 0.82494 0.36178 0.0
C1501 C 0.11626 0.86258 0.31962 0.0
C1502 C 0.06825 0.82655 0.32223 0.0
C1503 C 0.07878 0.87337 0.31834 0.0
C1504 C 0.0971 0.83545 0.32201 0.0
C1505 C 0.1074 0.88183 0.31735 0.0
C1506 C 0.05922 0.84575 0.3208 0.0
C1507 C 0.15549 0.91572 0.31195 0.0
N1508 N 0.14366 0.86983 0.31869 0.0
C1509 C 0.16322 0.8958 0.31423 0.0
C1510 C 0.12751 0.9088 0.31373 0.0
Tb1511 Tb 0.15436 0.83606 0.32345 0.0
N1512 N 0.10673 0.8176 0.32317 0.0
C1513 C 0.08834 0.79017 0.32325 0.0
C1514 C 0.04939 0.79859 0.32338 0.0
C1515 C 0.05949 0.78031 0.32361 0.0
H1516 H 0.18492 0.90135 0.31299 0.0
H1517 H 0.04507 0.7586 0.32416 0.0
H1518 H 0.03715 0.83937 0.32112 0.0
H1519 H 0.17113 0.9364 0.30886 0.0
H1520 H 0.09573 0.77573 0.32357 0.0
H1521 H 0.29158 0.90322 0.35959 0.0
H1522 H 0.02705 0.7909 0.32364 0.0
H1523 H 0.15331 0.76123 0.37534 0.0
H1524 H 0.24104 0.88558 0.35974 0.0
H1525 H 0.16769 0.72728 0.38151 0.0
H1526 H 0.07151 0.88788 0.31681 0.0
H1527 H 0.31031 0.87169 0.36236 0.0
H1528 H 0.30095 0.82389 0.36715 0.0
H1529 H 0.12158 0.92425 0.31192 0.0
H1530 H 0.2671 0.77576 0.37308 0.0
N1531 N 0.23033 0.84389 0.36218 0.0
C1532 C 0.2485 0.87133 0.36108 0.0
C1533 C 0.28792 0.86372 0.36246 0.0
C1534 C 0.26937 0.83589 0.3646 0.0
C1535 C 0.27742 0.88156 0.36095 0.0
C1536 C 0.24041 0.82661 0.36454 0.0
H1537 H 0.2173 0.73957 0.37872 0.0
N1538 N 0.19419 0.79239 0.36849 0.0
C1539 C 0.18309 0.74758 0.37755 0.0
C1540 C 0.22159 0.79977 0.36775 0.0
C1541 C 0.17503 0.76696 0.37405 0.0
C1542 C 0.21108 0.75456 0.37591 0.0
C1543 C 0.23084 0.78111 0.37127 0.0
O1544 O 0.16266 0.81289 0.38515 0.0
O1545 O 0.14699 0.82399 0.34932 0.0
O1546 O 0.15676 0.86553 0.34169 0.0
O1547 O 0.19213 0.86768 0.35855 0.0
O1548 O 0.13897 0.79348 0.3657 0.0
O1549 O 0.19779 0.85292 0.38166 0.0
O1550 O 0.17293 0.85039 0.29999 0.0
O1551 O 0.18891 0.83575 0.33584 0.0
O1552 O 0.17694 0.79241 0.3447 0.0
O1553 O 0.14583 0.79374 0.32514 0.0
O1554 O 0.19886 0.86566 0.31888 0.0
O1555 O 0.13813 0.80976 0.3028 0.0
C1556 C 0.1273 0.80288 0.35594 0.0
C1557 C 0.19104 0.83388 0.40861 0.0
C1558 C 0.19207 0.83902 0.43892 0.0
C1559 C 0.18226 0.84143 0.42312 0.0
C1560 C 0.21093 0.82908 0.4399 0.0
C1561 C 0.20997 0.82421 0.40992 0.0
C1562 C 0.21982 0.82183 0.42549 0.0
C1563 C 0.1767 0.878 0.35289 0.0
C1564 C 0.17989 0.83581 0.39229 0.0
C1565 C 0.25955 0.78983 0.37059 0.0
C1566 C 0.27881 0.81722 0.36724 0.0
C1567 C 0.20945 0.85523 0.32872 0.0
C1568 C 0.14342 0.8312 0.27667 0.0
C1569 C 0.15103 0.82461 0.26133 0.0
C1570 C 0.13938 0.82738 0.24627 0.0
C1571 C 0.12052 0.83735 0.24684 0.0
C1572 C 0.12442 0.84086 0.27684 0.0
C1573 C 0.11316 0.84403 0.26201 0.0
C1574 C 0.15928 0.78211 0.33197 0.0
C1575 C 0.15544 0.82798 0.29236 0.0
H1576 H 0.16749 0.84877 0.42212 0.0
H1577 H 0.21914 0.82729 0.45182 0.0
H1578 H 0.2171 0.81849 0.39894 0.0
H1579 H 0.23445 0.81435 0.4264 0.0
H1580 H 0.16549 0.81685 0.26116 0.0
H1581 H 0.11149 0.84009 0.23551 0.0
H1582 H 0.11824 0.84593 0.2884 0.0
H1583 H 0.09859 0.85162 0.26227 0.0
Tb1584 Tb 0.8228 0.6438 0.65548 0.0
C1585 C 0.88012 0.7477 0.69754 0.0
C1586 C 0.9288 0.75989 0.69731 0.0
C1587 C 0.91617 0.79531 0.69948 0.0
C1588 C 0.9002 0.74011 0.69654 0.0
C1589 C 0.88773 0.77532 0.69941 0.0
C1590 C 0.93669 0.78759 0.69842 0.0
C1591 C 0.83876 0.76101 0.70248 0.0
N1592 N 0.853 0.72774 0.69759 0.0
C1593 C 0.83232 0.73389 0.70071 0.0
C1594 C 0.86657 0.78187 0.70161 0.0
Tb1595 Tb 0.84425 0.68403 0.69358 0.0
N1596 N 0.89162 0.71315 0.69552 0.0
C1597 C 0.91078 0.70449 0.69653 0.0
C1598 C 0.94851 0.75117 0.69735 0.0
C1599 C 0.93942 0.72331 0.6972 0.0
H1600 H 0.81074 0.71792 0.70129 0.0
H1601 H 0.95446 0.7163 0.69753 0.0
H1602 H 0.95856 0.80313 0.69887 0.0
H1603 H 0.82226 0.7658 0.7045 0.0
H1604 H 0.90432 0.68311 0.69631 0.0
H1605 H 0.71078 0.6035 0.65377 0.0
H1606 H 0.9707 0.76569 0.69787 0.0
H1607 H 0.85921 0.61503 0.64273 0.0
H1608 H 0.76005 0.6394 0.65381 0.0
H1609 H 0.85125 0.56875 0.6376 0.0
H1610 H 0.92249 0.81668 0.70075 0.0
H1611 H 0.69827 0.55499 0.65361 0.0
H1612 H 0.71419 0.52035 0.65126 0.0
H1613 H 0.87153 0.80285 0.70306 0.0
H1614 H 0.75269 0.51079 0.64665 0.0
N1615 N 0.77597 0.61188 0.65431 0.0
C1616 C 0.75521 0.61847 0.65367 0.0
C1617 C 0.72007 0.57074 0.65367 0.0
C1618 C 0.74135 0.56412 0.65292 0.0
C1619 C 0.72706 0.59808 0.65368 0.0
C1620 C 0.76935 0.58545 0.6531 0.0
H1621 H 0.80396 0.52883 0.64109 0.0
N1622 N 0.81702 0.60158 0.64963 0.0
C1623 C 0.83405 0.57161 0.64138 0.0
C1624 C 0.79075 0.58007 0.65058 0.0
C1625 C 0.83846 0.59787 0.6443 0.0
C1626 C 0.80735 0.54912 0.64342 0.0
C1627 C 0.78514 0.55323 0.64773 0.0
O1628 O 0.84617 0.65446 0.6332 0.0
O1629 O 0.85441 0.67924 0.66847 0.0
O1630 O 0.83877 0.70851 0.67416 0.0
O1631 O 0.80831 0.67366 0.65641 0.0
O1632 O 0.86788 0.65908 0.65363 0.0
O1633 O 0.80592 0.65144 0.63386 0.0
O1634 O 0.82297 0.67999 0.71616 0.0
O1635 O 0.81224 0.64837 0.68087 0.0
O1636 O 0.82989 0.6189 0.67349 0.0
O1637 O 0.85554 0.6516 0.69398 0.0
O1638 O 0.79973 0.67004 0.69542 0.0
O1639 O 0.85775 0.6729 0.71527 0.0
C1640 C 0.87625 0.68004 0.66308 0.0
C1641 C 0.82067 0.64245 0.60807 0.0
C1642 C 0.82735 0.64507 0.57773 0.0
C1643 C 0.83248 0.65793 0.59346 0.0
C1644 C 0.80997 0.61659 0.57694 0.0
C1645 C 0.80341 0.61415 0.60683 0.0
C1646 C 0.79811 0.60135 0.59135 0.0
C1647 C 0.82018 0.69913 0.66186 0.0
C1648 C 0.82705 0.65589 0.62452 0.0
C1649 C 0.75746 0.53162 0.64858 0.0
C1650 C 0.73555 0.53707 0.65121 0.0
C1651 C 0.79086 0.64864 0.68634 0.0
C1652 C 0.84933 0.68788 0.74097 0.0
C1653 C 0.8425 0.67274 0.75596 0.0
C1654 C 0.85286 0.686 0.77142 0.0
C1655 C 0.86967 0.71459 0.77154 0.0
C1656 C 0.86624 0.71627 0.74156 0.0
C1657 C 0.87623 0.7295 0.75676 0.0
C1658 C 0.84575 0.62719 0.68704 0.0
C1659 C 0.8392 0.67394 0.72478 0.0
H1660 H 0.84597 0.6798 0.5944 0.0
H1661 H 0.8052 0.60605 0.5651 0.0
H1662 H 0.79403 0.60194 0.61782 0.0
H1663 H 0.78471 0.57949 0.59051 0.0
H1664 H 0.82966 0.65074 0.75555 0.0
H1665 H 0.87762 0.72553 0.78314 0.0
H1666 H 0.87176 0.72824 0.73028 0.0
H1667 H 0.88919 0.75146 0.75708 0.0
Tb1668 Tb 0.36514 0.17116 0.65699 0.0
C1669 C 0.2581 0.12368 0.69726 0.0
C1670 C 0.24384 0.15774 0.69576 0.0
C1671 C 0.20874 0.10981 0.69803 0.0
C1672 C 0.26494 0.15055 0.69577 0.0
C1673 C 0.23001 0.103 0.69887 0.0
C1674 C 0.21565 0.13716 0.69646 0.0
C1675 C 0.24635 0.07104 0.70376 0.0
N1676 N 0.2793 0.11807 0.69823 0.0
C1677 C 0.27392 0.09235 0.70221 0.0
C1678 C 0.22426 0.07631 0.70183 0.0
Tb1679 Tb 0.32367 0.15408 0.6947 0.0
N1680 N 0.29241 0.16975 0.69529 0.0
C1681 C 0.30023 0.19679 0.69601 0.0
C1682 C 0.25174 0.18538 0.69552 0.0
C1683 C 0.28007 0.20498 0.69592 0.0
H1684 H 0.29088 0.08809 0.70359 0.0
H1685 H 0.28643 0.22642 0.69604 0.0
H1686 H 0.1991 0.14224 0.69627 0.0
H1687 H 0.24216 0.05058 0.70642 0.0
H1688 H 0.32199 0.21227 0.69617 0.0
H1689 H 0.40413 0.10012 0.65699 0.0
H1690 H 0.23619 0.19178 0.69544 0.0
H1691 H 0.39677 0.23691 0.64736 0.0
H1692 H 0.36802 0.11347 0.65695 0.0
H1693 H 0.44497 0.27463 0.64341 0.0
H1694 H 0.18697 0.09419 0.69905 0.0
H1695 H 0.45415 0.13531 0.65606 0.0
H1696 H 0.49052 0.18489 0.65366 0.0
H1697 H 0.20294 0.0598 0.70311 0.0
H1698 H 0.5017 0.23252 0.64999 0.0
N1699 N 0.39702 0.15618 0.6564 0.0
C1700 C 0.38964 0.12922 0.65645 0.0
C1701 C 0.43833 0.14137 0.65602 0.0
C1702 C 0.44574 0.16884 0.65505 0.0
C1703 C 0.41013 0.12147 0.6565 0.0
C1704 C 0.42432 0.1756 0.65516 0.0
H1705 H 0.4848 0.26618 0.64592 0.0
N1706 N 0.40911 0.20741 0.65258 0.0
C1707 C 0.44124 0.25437 0.64625 0.0
C1708 C 0.43063 0.20224 0.65321 0.0
C1709 C 0.41392 0.2329 0.64846 0.0
C1710 C 0.46367 0.24954 0.64771 0.0
C1711 C 0.4585 0.22311 0.65095 0.0
O1712 O 0.35797 0.1849 0.63414 0.0
O1713 O 0.32863 0.16745 0.66925 0.0
O1714 O 0.29855 0.12404 0.67571 0.0
O1715 O 0.33355 0.12729 0.65803 0.0
O1716 O 0.34904 0.1995 0.6536 0.0
O1717 O 0.35783 0.14684 0.63568 0.0
O1718 O 0.32837 0.13873 0.71761 0.0
O1719 O 0.3602 0.15797 0.68251 0.0
O1720 O 0.3904 0.20138 0.67555 0.0
O1721 O 0.3565 0.19797 0.69438 0.0
O1722 O 0.34056 0.12638 0.6985 0.0
O1723 O 0.33113 0.17805 0.7162 0.0
C1724 C 0.32761 0.18746 0.66312 0.0
C1725 C 0.37277 0.17142 0.6104 0.0
C1726 C 0.37478 0.1756 0.58007 0.0
C1727 C 0.35933 0.16818 0.595 0.0
C1728 C 0.40397 0.18671 0.58089 0.0
C1729 C 0.40176 0.18196 0.61085 0.0
C1730 C 0.41727 0.18971 0.59618 0.0
C1731 C 0.30747 0.11431 0.66366 0.0
C1732 C 0.35634 0.16443 0.62584 0.0
C1733 C 0.4801 0.21675 0.65153 0.0
C1734 C 0.47373 0.18963 0.6536 0.0
C1735 C 0.36203 0.13862 0.68901 0.0
C1736 C 0.31402 0.15311 0.74122 0.0
C1737 C 0.32709 0.15806 0.75688 0.0
C1738 C 0.31115 0.1513 0.77163 0.0
C1739 C 0.28188 0.13918 0.77035 0.0
C1740 C 0.28491 0.14151 0.74033 0.0
C1741 C 0.26895 0.13448 0.75481 0.0
C1742 C 0.38228 0.21089 0.68813 0.0
C1743 C 0.33095 0.15955 0.72599 0.0
H1744 H 0.33683 0.15949 0.59468 0.0
H1745 H 0.41661 0.19318 0.56973 0.0
H1746 H 0.41243 0.18426 0.62248 0.0
H1747 H 0.4397 0.19809 0.59667 0.0
H1748 H 0.34966 0.1675 0.75754 0.0
H1749 H 0.26889 0.13317 0.78137 0.0
H1750 H 0.27448 0.13779 0.72849 0.0
H1751 H 0.24645 0.12528 0.75398 0.0
Tb1752 Tb 0.86094 0.16544 0.69942 0.0
C1753 C 0.80011 0.20926 0.65641 0.0
C1754 C 0.75143 0.17525 0.65952 0.0
C1755 C 0.76444 0.22245 0.6543 0.0
C1756 C 0.77994 0.18272 0.65939 0.0
C1757 C 0.79265 0.22936 0.65332 0.0
C1758 C 0.74383 0.19541 0.65743 0.0
C1759 C 0.84098 0.26056 0.64662 0.0
N1760 N 0.82698 0.21489 0.65534 0.0
C1761 C 0.84726 0.23982 0.64975 0.0
C1762 C 0.81363 0.25545 0.64869 0.0
Tb1763 Tb 0.83563 0.18006 0.6612 0.0
N1764 N 0.78823 0.16391 0.66104 0.0
C1765 C 0.76868 0.13679 0.66154 0.0
C1766 C 0.73145 0.14769 0.66117 0.0
C1767 C 0.74012 0.12834 0.6619 0.0
H1768 H 0.86849 0.24401 0.64823 0.0
H1769 H 0.72483 0.10689 0.66281 0.0
H1770 H 0.72206 0.19014 0.65768 0.0
H1771 H 0.85726 0.28047 0.64266 0.0
H1772 H 0.77484 0.12146 0.66221 0.0
H1773 H 0.97143 0.23953 0.69903 0.0
H1774 H 0.70933 0.14109 0.6614 0.0
H1775 H 0.82759 0.09991 0.70959 0.0
H1776 H 0.92126 0.2244 0.69874 0.0
H1777 H 0.83919 0.06353 0.71435 0.0
H1778 H 0.75826 0.23765 0.65215 0.0
H1779 H 0.98741 0.20574 0.70102 0.0
H1780 H 0.97513 0.15677 0.70438 0.0
H1781 H 0.8088 0.2715 0.6462 0.0
H1782 H 0.93909 0.10875 0.70849 0.0
N1783 N 0.90835 0.18208 0.70017 0.0
C1784 C 0.92766 0.20927 0.6997 0.0
C1785 C 0.96523 0.1989 0.70093 0.0
C1786 C 0.94543 0.17123 0.70229 0.0
C1787 C 0.95629 0.21802 0.69984 0.0
C1788 C 0.91684 0.16344 0.70199 0.0
H1789 H 0.8883 0.0738 0.71242 0.0
N1790 N 0.86962 0.13039 0.70451 0.0
C1791 C 0.85558 0.08398 0.71142 0.0
C1792 C 0.89674 0.13658 0.70419 0.0
C1793 C 0.8491 0.10468 0.70876 0.0
C1794 C 0.88331 0.08984 0.71029 0.0
C1795 C 0.90438 0.11652 0.7069 0.0
O1796 O 0.84058 0.15159 0.72244 0.0
O1797 O 0.82757 0.16822 0.68706 0.0
O1798 O 0.84255 0.21257 0.67867 0.0
O1799 O 0.87207 0.20862 0.69818 0.0
O1800 O 0.81634 0.13648 0.70296 0.0
O1801 O 0.87784 0.19084 0.72034 0.0
O1802 O 0.85542 0.19251 0.63787 0.0
O1803 O 0.86892 0.17771 0.67377 0.0
O1804 O 0.85618 0.13499 0.6813 0.0
O1805 O 0.82377 0.13647 0.6632 0.0
O1806 O 0.88048 0.20833 0.65712 0.0
O1807 O 0.81829 0.15355 0.64075 0.0
C1808 C 0.80657 0.14819 0.69355 0.0
C1809 C 0.86897 0.16835 0.7463 0.0
C1810 C 0.86877 0.16981 0.77667 0.0
C1811 C 0.86026 0.17484 0.76116 0.0
C1812 C 0.88613 0.15814 0.77706 0.0
C1813 C 0.88647 0.15696 0.74693 0.0
C1814 C 0.89495 0.15184 0.76226 0.0
C1815 C 0.85991 0.22166 0.69157 0.0
C1816 C 0.85899 0.17316 0.73037 0.0
C1817 C 0.93276 0.1239 0.70659 0.0
C1818 C 0.95328 0.15123 0.70427 0.0
C1819 C 0.89012 0.19709 0.66703 0.0
C1820 C 0.82596 0.17495 0.61445 0.0
C1821 C 0.83542 0.17 0.59929 0.0
C1822 C 0.82551 0.17414 0.58396 0.0
C1823 C 0.80626 0.18367 0.58414 0.0
C1824 C 0.80652 0.18407 0.61426 0.0
C1825 C 0.79684 0.18852 0.59918 0.0
C1826 C 0.83728 0.12435 0.66932 0.0
C1827 C 0.83671 0.17067 0.63031 0.0
H1828 H 0.84656 0.18347 0.76064 0.0
H1829 H 0.89327 0.1543 0.7888 0.0
H1830 H 0.89353 0.15199 0.73566 0.0
H1831 H 0.90846 0.14303 0.76267 0.0
H1832 H 0.85012 0.16253 0.59948 0.0
H1833 H 0.79859 0.1876 0.57263 0.0
H1834 H 0.7988 0.18775 0.62572 0.0
H1835 H 0.78197 0.19575 0.59914 0.0
H1836 H 0.35248 0.92293 0.05761 0.0
H1837 H 0.3633 0.85255 0.05498 0.0
H1838 H 0.40794 0.87936 0.04074 0.0
H1839 H 0.44609 0.9239 0.03155 0.0
H1840 H 0.43582 0.99444 0.03417 0.0
H1841 H 0.38873 0.96663 0.04564 0.0
C1842 C 0.36463 0.91354 0.05385 0.0
C1843 C 0.35479 0.88591 0.05749 0.0
C1844 C 0.39026 0.92907 0.04554 0.0
C1845 C 0.37047 0.8738 0.05232 0.0
C1846 C 0.396 0.88911 0.04419 0.0
C1847 C 0.43305 0.93286 0.03412 0.0
C1848 C 0.4438 0.96084 0.03154 0.0
C1849 C 0.40633 0.91685 0.041 0.0
C1850 C 0.42739 0.97267 0.03552 0.0
C1851 C 0.40068 0.95686 0.04228 0.0
H1852 H 0.13595 0.49652 0.04779 0.0
H1853 H 0.08498 0.40992 0.05542 0.0
H1854 H 0.04348 0.41159 0.04643 0.0
H1855 H 0.02101 0.43781 0.03741 0.0
H1856 H 0.07113 0.52466 0.03112 0.0
H1857 H 0.11323 0.52289 0.03855 0.0
C1858 C 0.1158 0.47802 0.04729 0.0
C1859 C 0.11362 0.45311 0.05228 0.0
C1860 C 0.09173 0.47921 0.04241 0.0
C1861 C 0.08724 0.42936 0.05174 0.0
C1862 C 0.06346 0.4303 0.04661 0.0
C1863 C 0.04122 0.45629 0.03755 0.0
C1864 C 0.043 0.48117 0.03308 0.0
C1865 C 0.06535 0.45513 0.04211 0.0
C1866 C 0.06921 0.50509 0.03382 0.0
C1867 C 0.09334 0.5041 0.03825 0.0
H1868 H 0.53726 0.64731 0.07146 0.0
H1869 H 0.55527 0.68736 0.0236 0.0
H1870 H 0.54519 0.64491 1.00993 0.0
H1871 H 0.53221 0.59646 0.01164 0.0
H1872 H 0.51675 0.55755 0.05968 0.0
H1873 H 0.52589 0.59977 0.07323 0.0
C1874 C 0.53946 0.647 0.05806 0.0
C1875 C 0.547 0.67066 0.04864 0.0
C1876 C 0.53427 0.6227 0.05029 0.0
C1877 C 0.54906 0.66946 0.03122 0.0
C1878 C 0.54351 0.6452 0.02336 0.0
C1879 C 0.53053 0.59718 0.02502 0.0
C1880 C 0.52358 0.57387 0.0346 0.0
C1881 C 0.53607 0.62167 0.03278 0.0
C1882 C 0.52223 0.57529 0.05202 0.0
C1883 C 0.52733 0.59939 0.05978 0.0
H1884 H 0.85806 0.34286 0.98255 0.0
H1885 H 0.92298 0.32994 0.96229 0.0
H1886 H 0.95855 0.37496 0.97202 0.0
H1887 H 0.97124 0.41807 0.98646 0.0
H1888 H 0.9057 0.43034 1.00657 0.0
H1889 H 0.87059 0.38547 0.99701 0.0
C1890 C 0.88 0.34974 0.98043 0.0
C1891 C 0.8878 0.33302 0.97172 0.0
C1892 C 0.90033 0.37557 0.9861 0.0
C1893 C 0.91635 0.34251 0.96881 0.0
C1894 C 0.93673 0.36822 0.97444 0.0
C1895 C 0.94929 0.41093 0.98873 0.0
C1896 C 0.94126 0.42753 0.99743 0.0
C1897 C 0.92897 0.38498 0.98307 0.0
C1898 C 0.91265 0.41792 1.0002 0.0
C1899 C 0.89243 0.39224 0.99464 0.0
H1900 H 0.64764 0.50956 0.97916 0.0
H1901 H 0.67942 0.59341 0.96502 0.0
H1902 H 0.63878 0.59286 0.9776 0.0
H1903 H 0.59335 0.56823 0.99187 0.0
H1904 H 0.55901 0.48305 1.00319 0.0
H1905 H 0.60139 0.48452 0.99298 0.0
C1906 C 0.64572 0.52774 0.97896 0.0
C1907 C 0.66661 0.55152 0.97116 0.0
C1908 C 0.62186 0.5271 0.98592 0.0
C1909 C 0.6636 0.57481 0.97082 0.0
C1910 C 0.64039 0.57453 0.97807 0.0
C1911 C 0.59533 0.55008 0.9923 0.0
C1912 C 0.57339 0.52585 0.999 0.0
C1913 C 0.61929 0.55077 0.98557 0.0
C1914 C 0.57592 0.50229 0.99888 0.0
C1915 C 0.6001 0.50303 0.99277 0.0
H1916 H 0.44067 0.11672 0.98683 0.0
H1917 H 0.4805 0.11861 0.94026 0.0
H1918 H 0.50045 0.09271 0.95264 0.0
H1919 H 0.50527 0.06829 0.97602 0.0
H1920 H 0.46439 0.06367 0.02263 0.0
H1921 H 0.44672 0.0925 0.01106 0.0
C1922 C 0.45388 0.11158 0.97948 0.0
C1923 C 0.45883 0.1193 0.96258 0.0
C1924 C 0.46517 0.09636 0.98669 0.0
C1925 C 0.47595 0.11249 0.95318 0.0
C1926 C 0.4875 0.09781 0.96027 0.0
C1927 C 0.49251 0.07353 0.98375 0.0
C1928 C 0.48612 0.06375 1.00018 0.0
C1929 C 0.48197 0.0894 0.97691 0.0
C1930 C 0.46984 0.07111 1.00999 0.0
C1931 C 0.45957 0.08742 1.00332 0.0
H1932 H 0.65735 0.12965 0.97451 0.0
H1933 H 0.69194 0.07606 0.97587 0.0
H1934 H 0.65034 0.04138 0.99033 0.0
H1935 H 0.60229 0.02463 1.00006 0.0
H1936 H 0.56566 0.07628 0.99616 0.0
H1937 H 0.60973 0.11348 0.98545 0.0
C1938 C 0.65585 0.11053 0.97827 0.0
C1939 C 0.67752 0.10527 0.9742 0.0
C1940 C 0.63145 0.09036 0.98606 0.0
C1941 C 0.67538 0.08038 0.97888 0.0
C1942 C 0.65163 0.06059 0.9871 0.0
C1943 C 0.60427 0.04427 0.99716 0.0
C1944 C 0.58121 0.04809 0.99935 0.0
C1945 C 0.62927 0.0651 0.9904 0.0
C1946 C 0.58351 0.07323 0.99507 0.0
C1947 C 0.6086 0.09438 0.98878 0.0
H1948 H 0.86882 0.51349 0.97026 0.0
H1949 H 0.92358 0.59842 0.95911 0.0
H1950 H 0.96227 0.59708 0.9731 0.0
H1951 H 0.98168 0.57118 0.98668 0.0
H1952 H 0.92848 0.48555 0.99626 0.0
H1953 H 0.88825 0.48767 0.98504 0.0
C1954 C 0.88914 0.53173 0.97115 0.0
C1955 C 0.89334 0.55604 0.96361 0.0
C1956 C 0.91166 0.53064 0.97893 0.0
C1957 C 0.91987 0.57946 0.96471 0.0
C1958 C 0.94201 0.5787 0.9727 0.0
C1959 C 0.96116 0.55307 0.98651 0.0
C1960 C 0.95801 0.52843 0.99272 0.0
C1961 C 0.93833 0.55432 0.97957 0.0
C1962 C 0.93143 0.50497 0.99206 0.0
C1963 C 0.90841 0.50614 0.98547 0.0
H1964 H 0.48364 0.33919 0.98192 0.0
H1965 H 0.40403 0.32432 0.96281 0.0
H1966 H 0.41365 0.36904 0.97266 0.0
H1967 H 0.44476 0.41241 0.98682 0.0
H1968 H 0.52394 0.4264 1.00626 0.0
H1969 H 0.5142 0.38192 0.99637 0.0
C1970 C 0.4682 0.34554 0.98012 0.0
C1971 C 0.44316 0.3284 0.97165 0.0
C1972 C 0.47379 0.37118 0.98587 0.0
C1973 C 0.42363 0.33723 0.96913 0.0
C1974 C 0.42906 0.36277 0.97481 0.0
C1975 C 0.45989 0.40577 0.98884 0.0
C1976 C 0.4849 0.42268 0.9974 0.0
C1977 C 0.45414 0.37998 0.98315 0.0
C1978 C 0.50431 0.41369 0.99992 0.0
C1979 C 0.49883 0.38824 0.99422 0.0
H1980 H 0.10637 0.66652 0.06053 0.0
H1981 H 0.17465 0.65695 0.04238 0.0
H1982 H 0.14161 0.61411 0.02897 0.0
H1983 H 0.0934 0.5791 0.02269 0.0
H1984 H 0.02501 0.58828 0.04117 0.0
H1985 H 0.05803 0.63133 0.05429 0.0
C1986 C 0.114 0.6549 0.0538 0.0
C1987 C 0.14294 0.66498 0.05245 0.0
C1988 C 0.09489 0.63022 0.04615 0.0
C1989 C 0.15249 0.64985 0.04346 0.0
C1990 C 0.13362 0.62529 0.03583 0.0
C1991 C 0.08568 0.59062 0.02943 0.0
C1992 C 0.05673 0.58048 0.03083 0.0
C1993 C 0.10478 0.61532 0.03705 0.0
C1994 C 0.04716 0.59555 0.03986 0.0
C1995 C 0.06604 0.6202 0.0474 0.0
H1996 H 0.35916 0.48974 0.05217 0.0
H1997 H 0.32068 0.40244 0.05632 0.0
H1998 H 0.36167 0.40382 0.0438 0.0
H1999 H 0.41013 0.42994 0.03405 0.0
H2000 H 0.45016 0.51731 0.03046 0.0
H2001 H 0.40727 0.51595 0.04017 0.0
C2002 C 0.35963 0.47105 0.04998 0.0
C2003 C 0.33686 0.44598 0.05518 0.0
C2004 C 0.38374 0.47205 0.04301 0.0
C2005 C 0.3379 0.42194 0.05245 0.0
C2006 C 0.3614 0.42273 0.04535 0.0
C2007 C 0.40929 0.44864 0.03519 0.0
C2008 C 0.43315 0.47361 0.03131 0.0
C2009 C 0.3847 0.44767 0.04097 0.0
C2010 C 0.43193 0.49775 0.03307 0.0
C2011 C 0.40742 0.49697 0.03873 0.0
H2012 H 0.55494 0.88046 0.04218 0.0
H2013 H 0.53543 0.89769 0.0912 0.0
H2014 H 0.52399 0.93057 0.07942 0.0
H2015 H 0.52056 0.95536 0.05546 0.0
H2016 H 0.5371 0.93689 1.00618 0.0
H2017 H 0.54796 0.90303 0.01773 0.0
C2018 C 0.54779 0.89107 0.05027 0.0
C2019 C 0.54662 0.88687 0.06763 0.0
C2020 C 0.54063 0.90969 0.04337 0.0
C2021 C 0.53739 0.90101 0.07788 0.0
C2022 C 0.53059 0.91971 0.07114 0.0
C2023 C 0.52654 0.94389 0.04725 0.0
C2024 C 0.52818 0.9486 0.03003 0.0
C2025 C 0.53248 0.92444 0.05396 0.0
C2026 C 0.53547 0.93337 0.01947 0.0
C2027 C 0.54184 0.91417 0.0261 0.0
H2028 H 0.02939 0.20764 0.38798 0.0
H2029 H 0.99711 0.2626 0.39449 0.0
H2030 H 0.03565 0.29733 0.37803 0.0
H2031 H 0.07993 0.31305 0.36321 0.0
H2032 H 0.11518 0.26023 0.35933 0.0
H2033 H 0.07388 0.22343 0.37286 0.0
C2034 C 0.03078 0.22718 0.38566 0.0
C2035 C 0.01059 0.23268 0.39248 0.0
C2036 C 0.05337 0.24728 0.3765 0.0
C2037 C 0.01263 0.25809 0.38953 0.0
C2038 C 0.03455 0.27787 0.38005 0.0
C2039 C 0.07824 0.29327 0.36507 0.0
C2040 C 0.10002 0.28899 0.35976 0.0
C2041 C 0.0552 0.27281 0.37365 0.0
C2042 C 0.09817 0.26365 0.36274 0.0
C2043 C 0.07474 0.24275 0.37069 0.0
H2044 H 0.80987 0.83517 0.37959 0.0
H2045 H 0.76097 0.74865 0.38815 0.0
H2046 H 0.71946 0.74816 0.37689 0.0
H2047 H 0.69655 0.77247 0.36539 0.0
H2048 H 0.74412 0.85953 0.35908 0.0
H2049 H 0.78648 0.85978 0.36847 0.0
C2050 C 0.79013 0.81624 0.37885 0.0
C2051 C 0.78847 0.79196 0.38468 0.0
C2052 C 0.7661 0.81623 0.37272 0.0
C2053 C 0.76272 0.76759 0.38383 0.0
C2054 C 0.73899 0.7673 0.37737 0.0
C2055 C 0.71628 0.79145 0.36596 0.0
C2056 C 0.71736 0.8158 0.36095 0.0
C2057 C 0.74036 0.79151 0.37191 0.0
C2058 C 0.74286 0.84037 0.36224 0.0
C2059 C 0.76709 0.84054 0.36778 0.0
H2060 H 0.18274 0.98824 0.37411 0.0
H2061 H 0.265 0.00612 0.39003 0.0
H2062 H 0.25569 0.96148 0.38039 0.0
H2063 H 0.22404 0.91714 0.36779 0.0
H2064 H 0.1421 0.89951 0.35135 0.0
H2065 H 0.15159 0.94436 0.36064 0.0
C2066 C 0.19877 0.98252 0.37525 0.0
C2067 C 0.22445 1.00045 0.38287 0.0
C2068 C 0.19333 0.95683 0.36963 0.0
C2069 C 0.24487 0.99255 0.38444 0.0
C2070 C 0.23962 0.96706 0.37889 0.0
C2071 C 0.20823 0.92307 0.36628 0.0
C2072 C 0.18246 0.90502 0.35884 0.0
C2073 C 0.21385 0.94894 0.3716 0.0
C2074 C 0.16224 0.9131 0.35689 0.0
C2075 C 0.16761 0.93874 0.36224 0.0
H2076 H 0.55853 0.68837 0.28601 0.0
H2077 H 0.5359 0.65004 0.33437 0.0
H2078 H 0.56944 0.69273 0.34758 0.0
H2079 H 0.60532 0.74084 0.34542 0.0
H2080 H 0.62903 0.77921 0.29733 0.0
H2081 H 0.59583 0.73624 0.28386 0.0
C2082 C 0.56117 0.6892 0.29941 0.0
C2083 C 0.54443 0.66599 0.30916 0.0
C2084 C 0.58084 0.71375 0.30695 0.0
C2085 C 0.548 0.66766 0.32656 0.0
C2086 C 0.56735 0.69203 0.33414 0.0
C2087 C 0.6028 0.73989 0.33206 0.0
C2088 C 0.619 0.76317 0.32241 0.0
C2089 C 0.58372 0.71522 0.32448 0.0
C2090 C 0.61664 0.76144 0.30499 0.0
C2091 C 0.5976 0.73695 0.29731 0.0
H2092 H 0.31472 0.84307 0.31005 0.0
H2093 H 0.34833 0.92819 0.29858 0.0
H2094 H 0.30532 0.9261 0.30828 0.0
H2095 H 0.25715 0.89967 0.31885 0.0
H2096 H 0.22228 0.81398 0.32866 0.0
H2097 H 0.26638 0.81663 0.32098 0.0
C2098 C 0.31269 0.86119 0.30988 0.0
C2099 C 0.33473 0.88575 0.30356 0.0
C2100 C 0.28753 0.85971 0.31517 0.0
C2101 C 0.33164 0.909 0.30325 0.0
C2102 C 0.30703 0.90782 0.3088 0.0
C2103 C 0.25934 0.88165 0.31942 0.0
C2104 C 0.23664 0.85685 0.32484 0.0
C2105 C 0.28468 0.88323 0.31458 0.0
C2106 C 0.23957 0.83352 0.3251 0.0
C2107 C 0.26482 0.83498 0.32055 0.0
H2108 H 0.12215 0.45312 0.31226 0.0
H2109 H 0.1346 0.42965 0.26319 0.0
H2110 H 0.14685 0.39764 0.27547 0.0
H2111 H 0.15387 0.37607 0.29996 0.0
H2112 H 0.14463 0.40109 0.34909 0.0
H2113 H 0.13225 0.43351 0.33695 0.0
C2114 C 0.12794 0.44136 0.30421 0.0
C2115 C 0.12703 0.44369 0.28675 0.0
C2116 C 0.13578 0.42343 0.31136 0.0
C2117 C 0.1343 0.42788 0.27662 0.0
C2118 C 0.14162 0.40971 0.28363 0.0
C2119 C 0.14915 0.38865 0.30801 0.0
C2120 C 0.15008 0.38623 0.32538 0.0
C2121 C 0.14226 0.40722 0.30095 0.0
C2122 C 0.14435 0.40286 0.33569 0.0
C2123 C 0.13707 0.42122 0.32874 0.0
H2124 H 0.32769 0.41323 0.29994 0.0
H2125 H 0.31668 0.48352 0.30229 0.0
H2126 H 0.27121 0.45626 0.31563 0.0
H2127 H 0.23262 0.4114 0.32414 0.0
H2128 H 0.24332 0.34108 0.32174 0.0
H2129 H 0.29088 0.36923 0.31102 0.0
C2130 C 0.31531 0.42252 0.30343 0.0
C2131 C 0.32532 0.45022 0.29997 0.0
C2132 C 0.28923 0.40674 0.31115 0.0
C2133 C 0.30937 0.4622 0.30482 0.0
C2134 C 0.28336 0.44663 0.3124 0.0
C2135 C 0.24582 0.40255 0.32173 0.0
C2136 C 0.23512 0.37457 0.32422 0.0
C2137 C 0.27287 0.41879 0.31535 0.0
C2138 C 0.25172 0.36286 0.32046 0.0
C2139 C 0.2787 0.37887 0.31415 0.0
H2140 H 0.54034 0.8471 0.30187 0.0
H2141 H 0.59152 0.93423 0.29708 0.0
H2142 H 0.63063 0.93274 0.3104 0.0
H2143 H 0.65168 0.90654 0.32134 0.0
H2144 H 0.60218 0.81922 0.32505 0.0
H2145 H 0.56118 0.82075 0.31444 0.0
C2146 C 0.55993 0.86573 0.30405 0.0
C2147 C 0.56305 0.89078 0.29851 0.0
C2148 C 0.58272 0.86463 0.31142 0.0
C2149 C 0.58865 0.91475 0.30121 0.0
C2150 C 0.61104 0.91389 0.30878 0.0
C2151 C 0.63179 0.88789 0.32002 0.0
C2152 C 0.62984 0.86289 0.32432 0.0
C2153 C 0.60855 0.88894 0.3136 0.0
C2154 C 0.60409 0.8388 0.32224 0.0
C2155 C 0.58068 0.83968 0.31603 0.0
H2156 H 0.14405 0.6864 0.28551 0.0
H2157 H 0.1268 0.64428 0.33265 0.0
H2158 H 0.13662 0.68598 0.34718 0.0
H2159 H 0.1482 0.73414 0.34641 0.0
H2160 H 0.16181 0.77473 0.29908 0.0
H2161 H 0.15457 0.73371 0.28467 0.0
C2162 C 0.14201 0.68611 0.29894 0.0
C2163 C 0.13466 0.66208 0.30789 0.0
C2164 C 0.14691 0.70992 0.3072 0.0
C2165 C 0.13284 0.6625 0.32538 0.0
C2166 C 0.13825 0.68632 0.33373 0.0
C2167 C 0.14994 0.73401 0.33299 0.0
C2168 C 0.15568 0.75732 0.32379 0.0
C2169 C 0.14518 0.71013 0.32477 0.0
C2170 C 0.15724 0.75685 0.30637 0.0
C2171 C 0.15317 0.73347 0.29814 0.0
H2172 H 0.78885 0.98224 0.40335 0.0
H2173 H 0.81596 0.02541 0.35659 0.0
H2174 H 0.78233 0.98471 0.34169 0.0
H2175 H 0.74461 0.93702 0.3419 0.0
H2176 H 0.71578 0.89447 0.38849 0.0
H2177 H 0.7498 0.93516 0.40359 0.0
C2178 C 0.78722 0.98297 0.38993 0.0
C2179 C 0.80527 0.00697 0.38118 0.0
C2180 C 0.76728 0.95965 0.3814 0.0
C2181 C 0.80293 0.00716 0.36371 0.0
C2182 C 0.78347 0.98393 0.35514 0.0
C2183 C 0.7461 0.93659 0.3553 0.0
C2184 C 0.72814 0.91277 0.36405 0.0
C2185 C 0.7656 0.96006 0.36385 0.0
C2186 C 0.72943 0.91271 0.38151 0.0
C2187 C 0.74896 0.93589 0.39012 0.0
H2188 H 0.00803 0.75806 0.38702 0.0
H2189 H 0.02973 0.84229 0.38351 0.0
H2190 H 0.07302 0.85298 0.36874 0.0
H2191 H 0.10707 0.83879 0.35939 0.0
H2192 H 0.08355 0.75391 0.3624 0.0
H2193 H 0.03875 0.74305 0.37463 0.0
C2194 C 0.02216 0.77871 0.3829 0.0
C2195 C 0.01591 0.79941 0.38657 0.0
C2196 C 0.04679 0.78461 0.37432 0.0
C2197 C 0.03416 0.82601 0.3809 0.0
C2198 C 0.05895 0.83214 0.3725 0.0
C2199 C 0.09177 0.81786 0.36227 0.0
C2200 C 0.09854 0.7971 0.35984 0.0
C2201 C 0.06583 0.81168 0.36945 0.0
C2202 C 0.07873 0.77017 0.36404 0.0
C2203 C 0.05315 0.76395 0.37112 0.0
H2204 H 0.23146 0.2133 0.3699 0.0
H2205 H 0.19825 0.21797 0.41763 0.0
H2206 H 0.18039 0.24589 0.40557 0.0
H2207 H 0.17538 0.27001 0.38199 0.0
H2208 H 0.20962 0.26754 0.33418 0.0
H2209 H 0.22526 0.23713 0.34565 0.0
C2210 C 0.22011 0.22028 0.37759 0.0
C2211 C 0.21645 0.2138 0.39469 0.0
C2212 C 0.20997 0.23656 0.37057 0.0
C2213 C 0.2018 0.22307 0.40453 0.0
C2214 C 0.19143 0.23891 0.39763 0.0
C2215 C 0.18625 0.26286 0.37399 0.0
C2216 C 0.19125 0.27104 0.35721 0.0
C2217 C 0.19566 0.246 0.38074 0.0
C2218 C 0.20513 0.2613 0.34707 0.0
C2219 C 0.2143 0.24409 0.35367 0.0
H2220 H 0.67249 0.57157 0.71596 0.0
H2221 H 0.70401 0.51561 0.71813 0.0
H2222 H 0.74611 0.54808 0.70277 0.0
H2223 H 0.77634 0.59504 0.69177 0.0
H2224 H 0.74357 0.65019 0.68991 0.0
H2225 H 0.69951 0.61543 0.70181 0.0
C2226 C 0.68843 0.5664 0.7128 0.0
C2227 C 0.68547 0.54153 0.71822 0.0
C2228 C 0.71239 0.5851 0.70406 0.0
C2229 C 0.70603 0.53478 0.71405 0.0
C2230 C 0.73009 0.55336 0.70534 0.0
C2231 C 0.75921 0.59905 0.69355 0.0
C2232 C 0.76306 0.62507 0.68993 0.0
C2233 C 0.73388 0.57896 0.70068 0.0
C2234 C 0.74095 0.63026 0.69258 0.0
C2235 C 0.71582 0.61045 0.69945 0.0
H2236 H 0.48145 0.15813 0.71058 0.0
H2237 H 0.4325 0.07212 0.7207 0.0
H2238 H 0.3907 0.07132 0.70957 0.0
H2239 H 0.36746 0.09555 0.69823 0.0
H2240 H 0.41555 0.18233 0.69081 0.0
H2241 H 0.45801 0.18245 0.69934 0.0
C2242 C 0.46166 0.13921 0.71014 0.0
C2243 C 0.46003 0.11519 0.71637 0.0
C2244 C 0.4375 0.13907 0.70417 0.0
C2245 C 0.4342 0.09085 0.71598 0.0
C2246 C 0.41032 0.0904 0.70963 0.0
C2247 C 0.38733 0.11442 0.69833 0.0
C2248 C 0.38838 0.13873 0.69324 0.0
C2249 C 0.41161 0.11444 0.70389 0.0
C2250 C 0.41413 0.16315 0.69395 0.0
C2251 C 0.4385 0.16327 0.69904 0.0
H2252 H 0.87195 0.31495 0.73946 0.0
H2253 H 0.88627 0.35768 0.69269 0.0
H2254 H 0.8795 0.31736 0.67776 0.0
H2255 H 0.87036 0.27003 0.67797 0.0
H2256 H 0.85932 0.22869 0.72479 0.0
H2257 H 0.86502 0.26872 0.73974 0.0
C2258 C 0.87409 0.31575 0.72603 0.0
C2259 C 0.87945 0.33949 0.71731 0.0
C2260 C 0.87096 0.29272 0.7175 0.0
C2261 C 0.88155 0.33964 0.69981 0.0
C2262 C 0.87793 0.31661 0.69122 0.0
C2263 C 0.86892 0.26975 0.69139 0.0
C2264 C 0.86421 0.24643 0.70024 0.0
C2265 C 0.87257 0.29301 0.69992 0.0
C2266 C 0.86315 0.24654 0.71771 0.0
C2267 C 0.86626 0.26936 0.72626 0.0
H2268 H 0.23712 0.0012 0.62676 0.0
H2269 H 0.1692 0.00714 0.64915 0.0
H2270 H 0.20246 0.05058 0.6618 0.0
H2271 H 0.25068 0.08724 0.66622 0.0
H2272 H 0.31872 0.08184 0.64357 0.0
H2273 H 0.2855 0.03824 0.63099 0.0
C2274 C 0.22953 0.01211 0.63424 0.0
C2275 C 0.20059 0.00071 0.637 0.0
C2276 C 0.24879 0.03728 0.64141 0.0
C2277 C 0.1913 0.01508 0.64699 0.0
C2278 C 0.21031 0.04007 0.65416 0.0
C2279 C 0.25833 0.07643 0.65869 0.0
C2280 C 0.28726 0.08776 0.65604 0.0
C2281 C 0.2391 0.05134 0.65148 0.0
C2282 C 0.29662 0.07366 0.6459 0.0
C2283 C 0.27761 0.04866 0.63869 0.0
H2284 H 0.99171 0.18037 0.64643 0.0
H2285 H 0.02759 0.26563 0.63465 0.0
H2286 H 0.98598 0.2654 0.6454 0.0
H2287 H 0.93844 0.24053 0.65709 0.0
H2288 H 0.90096 0.15442 0.66641 0.0
H2289 H 0.94386 0.15539 0.65804 0.0
C2290 C 0.99047 0.19892 0.64639 0.0
C2291 C 0.01271 0.22299 0.63975 0.0
C2292 C 0.96613 0.19849 0.65224 0.0
C2293 C 0.01068 0.24681 0.63958 0.0
C2294 C 0.98691 0.2467 0.64575 0.0
C2295 C 0.93983 0.22206 0.65745 0.0
C2296 C 0.91676 0.19765 0.66302 0.0
C2297 C 0.96437 0.2226 0.65195 0.0
C2298 C 0.91858 0.17371 0.66289 0.0
C2299 C 0.94314 0.1742 0.65788 0.0
H2300 H 0.76825 0.75722 0.61975 0.0
H2301 H 0.84189 0.82912 0.63739 0.0
H2302 H 0.85532 0.80075 0.65363 0.0
H2303 H 0.84686 0.75506 0.66205 0.0
H2304 H 0.77363 0.6838 0.64315 0.0
H2305 H 0.75966 0.71234 0.62815 0.0
C2306 C 0.78744 0.76675 0.62697 0.0
C2307 C 0.80408 0.79527 0.62721 0.0
C2308 C 0.79518 0.75037 0.63611 0.0
C2309 C 0.82852 0.80721 0.63703 0.0
C2310 C 0.8363 0.79099 0.64628 0.0
C2311 C 0.82774 0.74583 0.65476 0.0
C2312 C 0.81141 0.71726 0.65375 0.0
C2313 C 0.81984 0.76248 0.64586 0.0
C2314 C 0.78677 0.70566 0.64414 0.0
C2315 C 0.77868 0.72199 0.63551 0.0
H2316 H 0.97713 0.79115 0.63741 0.0
H2317 H 0.01309 0.73912 0.63175 0.0
H2318 H 0.97255 0.70175 0.64536 0.0
H2319 H 0.92505 0.68251 0.65642 0.0
H2320 H 0.88705 0.73297 0.66012 0.0
H2321 H 0.93007 0.77228 0.65012 0.0
C2322 C 0.97619 0.77174 0.63945 0.0
C2323 C 0.99795 0.76779 0.63353 0.0
C2324 C 0.95238 0.75004 0.64692 0.0
C2325 C 0.99646 0.74251 0.63609 0.0
C2326 C 0.9733 0.72116 0.64386 0.0
C2327 C 0.92641 0.70227 0.65528 0.0
C2328 C 0.90312 0.70495 0.65936 0.0
C2329 C 0.95086 0.72448 0.64894 0.0
C2330 C 0.90489 0.73048 0.65752 0.0
C2331 C 0.92944 0.75294 0.65161 0.0
H2332 H 0.2126 0.17479 0.63809 0.0
H2333 H 0.2639 0.26212 0.63549 0.0
H2334 H 0.30299 0.25966 0.64815 0.0
H2335 H 0.32405 0.23246 0.65744 0.0
H2336 H 0.27395 0.14498 0.65883 0.0
H2337 H 0.23309 0.14752 0.64937 0.0
C2338 C 0.23217 0.19322 0.64068 0.0
C2339 C 0.23542 0.21863 0.63598 0.0
C2340 C 0.25488 0.19157 0.6476 0.0
C2341 C 0.26098 0.2424 0.6391 0.0
C2342 C 0.28335 0.24097 0.64624 0.0
C2343 C 0.30404 0.21401 0.65589 0.0
C2344 C 0.30191 0.18864 0.6592 0.0
C2345 C 0.28079 0.21566 0.65014 0.0
C2346 C 0.27603 0.16481 0.65683 0.0
C2347 C 0.25266 0.16626 0.65127 0.0
H2348 H 0.83165 0.0159 0.64506 0.0
H2349 H 0.75291 0.00194 0.62492 0.0
H2350 H 0.76186 0.04593 0.63571 0.0
H2351 H 0.792 0.08833 0.65111 0.0
H2352 H 0.8698 0.10083 0.67202 0.0
H2353 H 0.86088 0.05721 0.661 0.0
C2354 C 0.8162 0.02222 0.64323 0.0
C2355 C 0.79165 0.00556 0.63418 0.0
C2356 C 0.82125 0.0473 0.64966 0.0
C2357 C 0.77219 0.01448 0.63164 0.0
C2358 C 0.7772 0.03958 0.63789 0.0
C2359 C 0.807 0.08151 0.65322 0.0
C2360 C 0.83145 0.09781 0.66244 0.0
C2361 C 0.8017 0.0562 0.6469 0.0
C2362 C 0.85064 0.08862 0.66513 0.0
C2363 C 0.84564 0.06368 0.65877 0.0
H2364 H 0.4893 0.31784 0.7124 0.0
H2365 H 0.42747 0.33067 0.73719 0.0
H2366 H 0.39026 0.28696 0.72652 0.0
H2367 H 0.37526 0.24549 0.70921 0.0
H2368 H 0.43848 0.23442 0.68448 0.0
H2369 H 0.47484 0.27711 0.69575 0.0
C2370 C 0.46768 0.31128 0.71535 0.0
C2371 C 0.46124 0.32771 0.72544 0.0
C2372 C 0.44649 0.2864 0.70906 0.0
C2373 C 0.43309 0.31841 0.72951 0.0
C2374 C 0.41177 0.29346 0.72333 0.0
C2375 C 0.39699 0.25243 0.70635 0.0
C2376 C 0.40391 0.2368 0.69576 0.0
C2377 C 0.4182 0.27731 0.71297 0.0
C2378 C 0.43227 0.24611 0.69227 0.0
C2379 C 0.45326 0.27055 0.69881 0.0
H2380 H 0.70498 0.16077 0.71977 0.0
H2381 H 0.67217 0.07509 0.72889 0.0
H2382 H 0.71275 0.07703 0.71531 0.0
H2383 H 0.75924 0.10361 0.70287 0.0
H2384 H 0.79437 0.18994 0.69544 0.0
H2385 H 0.75143 0.18734 0.70601 0.0
C2386 C 0.70663 0.14252 0.71851 0.0
C2387 C 0.68564 0.11779 0.72533 0.0
C2388 C 0.73053 0.14396 0.71102 0.0
C2389 C 0.68811 0.09433 0.72379 0.0
C2390 C 0.71132 0.09545 0.71605 0.0
C2391 C 0.75731 0.12178 0.70337 0.0
C2392 C 0.77973 0.14679 0.69803 0.0
C2393 C 0.73291 0.12022 0.70994 0.0
C2394 C 0.77719 0.1703 0.69905 0.0
C2395 C 0.75268 0.16884 0.70525 0.0
H2396 H 0.88212 0.54356 0.71187 0.0
H2397 H 0.86118 0.56453 0.75934 0.0
H2398 H 0.8495 0.59603 0.74557 0.0
H2399 H 0.84475 0.61744 0.72 0.0
H2400 H 0.86329 0.59471 0.67258 0.0
H2401 H 0.87549 0.56342 0.68629 0.0
C2402 C 0.87459 0.55463 0.71924 0.0
C2403 C 0.87275 0.55164 0.73669 0.0
C2404 C 0.86722 0.57227 0.71121 0.0
C2405 C 0.86342 0.56672 0.74595 0.0
C2406 C 0.85648 0.58463 0.73807 0.0
C2407 C 0.8515 0.60562 0.71271 0.0
C2408 C 0.85286 0.6081 0.69528 0.0
C2409 C 0.85836 0.58761 0.72072 0.0
C2410 C 0.86141 0.59261 0.68594 0.0
C2411 C 0.86867 0.57493 0.69381 0.0
H2412 H 0.52193 0.99364 0.1843 0.0
H2413 H 0.43711 0.93989 0.16829 0.0
H2414 H 0.44767 0.96163 0.14098 0.0
H2415 H 0.48028 0.99736 0.12195 0.0
H2416 H 0.56542 0.05065 0.13765 0.0
H2417 H 0.55539 0.02777 0.1646 0.0
C2418 C 0.50586 0.98643 0.17477 0.0
C2419 C 0.47867 0.96527 0.17849 0.0
C2420 C 0.51204 0.99915 0.159 0.0
C2421 C 0.45809 0.95642 0.16595 0.0
C2422 C 0.46413 0.96879 0.15026 0.0
C2423 C 0.49679 0.00377 0.13115 0.0
C2424 C 0.52354 0.02597 0.12769 0.0
C2425 C 0.49093 0.99043 0.14669 0.0
C2426 C 0.54448 0.03405 0.13997 0.0
C2427 C 0.53882 0.02083 0.15541 0.0
H2428 H 0.01288 0.55159 0.18145 0.0
H2429 H 0.0638 0.5159 0.16867 0.0
H2430 H 0.04335 0.50538 0.14082 0.0
H2431 H 0.0103 0.50548 0.12019 0.0
H2432 H 0.96109 0.54312 0.13268 0.0
H2433 H 0.98181 0.55389 0.16043 0.0
C2434 C 0.01985 0.54186 0.17253 0.0
C2435 C 0.0398 0.53446 0.17728 0.0
C2436 C 0.00825 0.53613 0.15644 0.0
C2437 C 0.04813 0.52142 0.16554 0.0
C2438 C 0.03659 0.51555 0.14953 0.0
C2439 C 1.00438 0.51637 0.12889 0.0
C2440 C 0.98396 0.52325 0.12433 0.0
C2441 C 0.01653 0.5227 0.14486 0.0
C2442 C 0.97635 0.53709 0.13591 0.0
C2443 C 0.9883 0.5434 0.15178 0.0
H2444 H 0.46196 0.50589 0.17607 0.0
H2445 H 0.54405 0.53078 0.19586 0.0
H2446 H 0.55805 0.52019 0.1694 0.0
H2447 H 0.54773 0.50536 0.14046 0.0
H2448 H 0.46566 0.47953 0.12031 0.0
H2449 H 0.45108 0.48936 0.14695 0.0
C2450 C 0.48278 0.50867 0.17461 0.0
C2451 C 0.50199 0.51928 0.18789 0.0
C2452 C 0.49082 0.50268 0.15924 0.0
C2453 C 0.52899 0.52301 0.18577 0.0
C2454 C 0.53701 0.5169 0.17065 0.0
C2455 C 0.52651 0.5015 0.14191 0.0
C2456 C 0.50785 0.49164 0.12835 0.0
C2457 C 0.51821 0.50697 0.15727 0.0
C2458 C 0.48062 0.48741 0.13044 0.0
C2459 C 0.47218 0.49284 0.14573 0.0
H2460 H 0.98933 0.45191 0.84596 0.0
H2461 H 0.9341 0.48334 0.85735 0.0
H2462 H 0.95397 0.49562 0.88527 0.0
H2463 H 0.98802 0.4987 0.90625 0.0
H2464 H 0.04152 0.46517 0.89524 0.0
H2465 H 0.0211 0.45225 0.8675 0.0
C2466 C 0.98128 0.46105 0.8546 0.0
C2467 C 0.96034 0.46684 0.84941 0.0
C2468 C 0.99256 0.46779 0.87075 0.0
C2469 C 0.95058 0.47911 0.8608 0.0
C2470 C 0.96179 0.48598 0.87685 0.0
C2471 C 0.99493 0.48819 0.8979 0.0
C2472 C 0.0165 0.48319 0.90285 0.0
C2473 C 0.98294 0.48061 0.88193 0.0
C2474 C 0.02536 0.4698 0.8917 0.0
C2475 C 0.01358 0.46225 0.87583 0.0
H2476 H 0.50835 0.46309 0.85101 0.0
H2477 H 0.59715 0.49227 0.85133 0.0
H2478 H 0.60035 0.50807 0.87988 0.0
H2479 H 0.57834 0.51455 0.90463 0.0
H2480 H 0.48962 0.48524 0.90468 0.0
H2481 H 0.48587 0.46768 0.87639 0.0
C2482 C 0.52836 0.47259 0.85737 0.0
C2483 C 0.55252 0.47669 0.84884 0.0
C2484 C 0.53006 0.48144 0.87394 0.0
C2485 C 0.57828 0.48934 0.85735 0.0
C2486 C 0.58012 0.4982 0.87377 0.0
C2487 C 0.55816 0.50435 0.89846 0.0
C2488 C 0.53433 0.5014 0.90677 0.0
C2489 C 0.55622 0.4946 0.88213 0.0
C2490 C 0.50828 0.48762 0.89866 0.0
C2491 C 0.50616 0.47777 0.88242 0.0
H2492 H 0.54118 0.02734 0.8432 0.0
H2493 H 0.52162 0.08978 0.85664 0.0
H2494 H 0.5109 0.07209 0.88506 0.0
H2495 H 0.50363 0.03669 0.90564 0.0
H2496 H 0.52122 0.97309 0.89182 0.0
H2497 H 0.53635 0.99342 0.86423 0.0
C2498 C 0.53501 0.03731 0.85244 0.0
C2499 C 0.53209 0.05978 0.84776 0.0
C2500 C 0.52833 0.02667 0.86873 0.0
C2501 C 0.52376 0.07229 0.85985 0.0
C2502 C 0.51765 0.0622 0.87613 0.0
C2503 C 0.51124 0.02759 0.89667 0.0
C2504 C 0.51122 0.00337 0.90077 0.0
C2505 C 0.51935 0.03909 0.88065 0.0
C2506 C 0.52082 0.99161 0.88893 0.0
C2507 C 0.52948 0.00323 0.87314 0.0
H2508 H 0.1213 0.27675 0.50258 0.0
H2509 H 0.20446 0.32037 0.52344 0.0
H2510 H 0.2227 0.34322 0.49692 0.0
H2511 H 0.21527 0.35145 0.4679 0.0
H2512 H 0.13213 0.30937 0.44701 0.0
H2513 H 0.11382 0.28527 0.47332 0.0
C2514 C 0.14338 0.29138 0.50137 0.0
C2515 C 0.16143 0.29664 0.51507 0.0
C2516 C 0.15382 0.30473 0.48602 0.0
C2517 C 0.19008 0.31547 0.51311 0.0
C2518 C 0.20055 0.32874 0.49794 0.0
C2519 C 0.19309 0.3372 0.46911 0.0
C2520 C 0.17516 0.33241 0.45542 0.0
C2521 C 0.18264 0.32361 0.48433 0.0
C2522 C 0.14654 0.31334 0.45721 0.0
C2523 C 0.136 0.29966 0.47232 0.0
H2524 H 0.71972 0.84495 0.5015 0.0
H2525 H 0.6604 0.86522 0.52257 0.0
H2526 H 0.63442 0.85352 0.49645 0.0
H2527 H 0.62983 0.83998 0.46729 0.0
H2528 H 0.6881 0.81855 0.4459 0.0
H2529 H 0.71333 0.82855 0.47236 0.0
C2530 C 0.70089 0.84643 0.5004 0.0
C2531 C 0.69218 0.85622 0.5139 0.0
C2532 C 0.68604 0.83978 0.48524 0.0
C2533 C 0.66782 0.85817 0.51228 0.0
C2534 C 0.6529 0.85143 0.49736 0.0
C2535 C 0.64775 0.83701 0.46844 0.0
C2536 C 0.65701 0.82856 0.45455 0.0
C2537 C 0.66202 0.8426 0.48369 0.0
C2538 C 0.68069 0.82542 0.45627 0.0
C2539 C 0.69505 0.83097 0.47146 0.0
H2540 H 0.16235 0.89092 0.50003 0.0
H2541 H 0.14964 0.81692 0.52346 0.0
H2542 H 0.16099 0.80242 0.49742 0.0
H2543 H 0.17559 0.8111 0.46815 0.0
H2544 H 0.18816 0.88481 0.44444 0.0
H2545 H 0.17563 0.89896 0.47031 0.0
C2546 C 0.16215 0.87166 0.49943 0.0
C2547 C 0.15518 0.85506 0.51371 0.0
C2548 C 0.16862 0.86336 0.48434 0.0
C2549 C 0.15465 0.82998 0.51264 0.0
C2550 C 0.16127 0.82172 0.49776 0.0
C2551 C 0.17567 0.8303 0.46866 0.0
C2552 C 0.18298 0.84693 0.45439 0.0
C2553 C 0.16844 0.83829 0.48356 0.0
C2554 C 0.18245 0.87152 0.45519 0.0
C2555 C 0.17544 0.8797 0.47002 0.0
H2556 H 0.66547 0.79018 0.17543 0.0
H2557 H 0.60531 0.81562 0.18667 0.0
H2558 H 0.62509 0.82954 0.21452 0.0
H2559 H 0.66088 0.83656 0.23523 0.0
H2560 H 0.72042 0.81021 0.2243 0.0
H2561 H 0.69941 0.79452 0.19686 0.0
C2562 C 0.65641 0.79838 0.18406 0.0
C2563 C 0.63409 0.80206 0.17888 0.0
C2564 C 0.66789 0.80636 0.2001 0.0
C2565 C 0.62282 0.81301 0.1902 0.0
C2566 C 0.63403 0.82087 0.20617 0.0
C2567 C 0.669 0.82699 0.22696 0.0
C2568 C 0.69235 0.82478 0.23181 0.0
C2569 C 0.65679 0.81796 0.21119 0.0
C2570 C 0.70278 0.81262 0.22081 0.0
C2571 C 0.69069 0.8035 0.20512 0.0
H2572 H 0.14572 0.78889 0.1734 0.0
H2573 H 0.23386 0.83003 0.18484 0.0
H2574 H 0.22435 0.84128 0.2126 0.0
H2575 H 0.19065 0.8394 0.23378 0.0
H2576 H 0.10262 0.79724 0.22195 0.0
H2577 H 0.11242 0.78599 0.19442 0.0
C2578 C 0.1629 0.80003 0.182 0.0
C2579 C 0.19048 0.80844 0.17696 0.0
C2580 C 0.15726 0.80619 0.19798 0.0
C2581 C 0.21244 0.82349 0.18824 0.0
C2582 C 0.20699 0.82977 0.2042 0.0
C2583 C 0.17364 0.82752 0.22522 0.0
C2584 C 0.14594 0.81933 0.22993 0.0
C2585 C 0.17945 0.82118 0.20924 0.0
C2586 C 0.12415 0.80413 0.21861 0.0
C2587 C 0.12972 0.79763 0.20284 0.0
H2588 H 0.21046 0.37995 0.18277 0.0
H2589 H 0.12864 0.32641 0.16233 0.0
H2590 H 0.11528 0.29924 0.18773 0.0
H2591 H 0.12605 0.2912 0.21606 0.0
H2592 H 0.20766 0.34422 0.23692 0.0
H2593 H 0.22168 0.37106 0.21125 0.0
C2594 C 0.18982 0.36219 0.18385 0.0
C2595 C 0.17054 0.3554 0.17065 0.0
C2596 C 0.1821 0.34662 0.19865 0.0
C2597 C 0.14378 0.33239 0.17234 0.0
C2598 C 0.13612 0.31675 0.18686 0.0
C2599 C 0.14704 0.30841 0.21496 0.0
C2600 C 0.16572 0.31554 0.22849 0.0
C2601 C 0.15499 0.32377 0.20015 0.0
C2602 C 0.19266 0.33834 0.22684 0.0
C2603 C 0.20078 0.35365 0.2121 0.0
H2604 H 0.84606 0.64294 0.84512 0.0
H2605 H 0.75909 0.59353 0.83173 0.0
H2606 H 0.76928 0.61219 0.80357 0.0
H2607 H 0.80261 0.6445 0.7829 0.0
H2608 H 0.88955 0.69332 0.79642 0.0
H2609 H 0.87971 0.67268 0.82404 0.0
C2610 C 0.82935 0.63588 0.83601 0.0
C2611 C 0.80175 0.61697 0.84078 0.0
C2612 C 0.83535 0.64671 0.81973 0.0
C2613 C 0.78045 0.60844 0.82867 0.0
C2614 C 0.78628 0.619 0.81246 0.0
C2615 C 0.81945 0.6503 0.7918 0.0
C2616 C 0.84676 0.67071 0.78755 0.0
C2617 C 0.81361 0.63845 0.80786 0.0
C2618 C 0.86826 0.67803 0.79937 0.0
C2619 C 0.86266 0.66618 0.81521 0.0
H2620 H 0.3812 0.17213 0.8382 0.0
H2621 H 0.32131 0.19484 0.85514 0.0
H2622 H 0.29907 0.18435 0.82784 0.0
H2623 H 0.29737 0.17021 0.79901 0.0
H2624 H 0.35584 0.14584 0.7818 0.0
H2625 H 0.37811 0.15587 0.80925 0.0
C2626 C 0.36309 0.17446 0.83594 0.0
C2627 C 0.35311 0.1845 0.84866 0.0
C2628 C 0.35031 0.16838 0.82012 0.0
C2629 C 0.32972 0.1876 0.8455 0.0
C2630 C 0.31691 0.18152 0.8299 0.0
C2631 C 0.31472 0.16667 0.80128 0.0
C2632 C 0.32481 0.15722 0.78831 0.0
C2633 C 0.32717 0.17214 0.81709 0.0
C2634 C 0.3478 0.15343 0.79146 0.0
C2635 C 0.36043 0.15897 0.8072 0.0
H2636 H 0.84004 0.2194 0.839 0.0
H2637 H 0.82203 0.14227 0.8603 0.0
H2638 H 0.83292 0.12856 0.83377 0.0
H2639 H 0.84944 0.13926 0.80484 0.0
H2640 H 0.86816 0.21671 0.78374 0.0
H2641 H 0.85515 0.22952 0.80986 0.0
C2642 C 0.83857 0.19961 0.83784 0.0
C2643 C 0.83039 0.18195 0.85164 0.0
C2644 C 0.84507 0.19196 0.8226 0.0
C2645 C 0.82805 0.15617 0.84984 0.0
C2646 C 0.83447 0.14839 0.83471 0.0
C2647 C 0.85076 0.15898 0.806 0.0
C2648 C 0.85989 0.17706 0.7924 0.0
C2649 C 0.84332 0.16624 0.82107 0.0
C2650 C 0.86101 0.20234 0.79398 0.0
C2651 C 0.85371 0.20974 0.80894 0.0
H2652 H 0.30123 0.15878 0.51558 0.0
H2653 H 0.35848 0.13478 0.4957 0.0
H2654 H 0.38283 0.14456 0.52233 0.0
H2655 H 0.38667 0.15781 0.5515 0.0
H2656 H 0.33073 0.18326 0.57165 0.0
H2657 H 0.30687 0.17469 0.54477 0.0
C2658 C 0.31926 0.15606 0.51705 0.0
C2659 C 0.32785 0.14581 0.50373 0.0
C2660 C 0.33321 0.16167 0.53248 0.0
C2661 C 0.35115 0.14221 0.50584 0.0
C2662 C 0.36515 0.14786 0.52105 0.0
C2663 C 0.36957 0.16195 0.54999 0.0
C2664 C 0.36057 0.17117 0.56363 0.0
C2665 C 0.35616 0.15726 0.5345 0.0
C2666 C 0.3379 0.1758 0.56146 0.0
C2667 C 0.32435 0.17108 0.54604 0.0
H2668 H 0.88242 0.1583 0.51943 0.0
H2669 H 0.79788 0.12427 0.5012 0.0
H2670 H 0.78313 0.13326 0.52789 0.0
H2671 H 0.79379 0.15005 0.55649 0.0
H2672 H 0.87824 0.18513 0.575 0.0
H2673 H 0.89334 0.17616 0.54827 0.0
C2674 C 0.86085 0.1531 0.52128 0.0
C2675 C 0.84127 0.14045 0.50834 0.0
C2676 C 0.8524 0.1583 0.53676 0.0
C2677 C 0.81331 0.13362 0.511 0.0
C2678 C 0.80485 0.13885 0.52626 0.0
C2679 C 0.81559 0.15604 0.55466 0.0
C2680 C 0.83482 0.16836 0.56778 0.0
C2681 C 0.82415 0.15105 0.53924 0.0
C2682 C 0.86287 0.17537 0.56522 0.0
C2683 C 0.87158 0.17042 0.54988 0.0
H2684 H 0.87092 0.68948 0.50495 0.0
H2685 H 0.84857 0.74923 0.52024 0.0
H2686 H 0.83734 0.7294 0.54811 0.0
H2687 H 0.83025 0.69279 0.56766 0.0
H2688 H 0.85181 0.63251 0.55226 0.0
H2689 H 0.86701 0.65477 0.5252 0.0
C2690 C 0.86406 0.69842 0.51447 0.0
C2691 C 0.86039 0.7207 0.51039 0.0
C2692 C 0.8572 0.68662 0.53051 0.0
C2693 C 0.85123 0.73186 0.52291 0.0
C2694 C 0.84482 0.72054 0.5389 0.0
C2695 C 0.83872 0.6848 0.55849 0.0
C2696 C 0.83959 0.66081 0.56201 0.0
C2697 C 0.84716 0.69756 0.54278 0.0
C2698 C 0.85045 0.65068 0.54985 0.0
C2699 C 0.85924 0.66345 0.53434 0.0
loop_
_geom_bond_atom_site_label_1
_geom_bond_atom_site_label_2
_geom_bond_distance
_geom_bond_site_symmetry_2
_ccdc_geom_bond_type
C0 C1 1.391 . S
C0 C4 1.391 . S
C0 H42 0.948 . S
C1 C0 1.391 . S
C1 C2 1.391 . S
C2 C1 1.391 . S
C2 H58 0.947 . S
C2 C59 1.392 . S
C3 C4 1.391 . S
C3 C7 1.397 . S
C3 C59 1.419 . S
C4 C0 1.391 . S
C4 C3 1.391 . S
C4 C5 1.399 . S
C5 C4 1.399 . S
C5 C8 1.396 . S
C5 C17 1.453 . S
C5 C18 1.684 . S
H6 C30 0.948 . S
C7 C3 1.397 . S
C7 C8 1.394 . S
C7 C26 1.723 . S
C8 C5 1.396 . S
C8 C7 1.394 . S
C8 C38 1.723 . S
H9 C32 0.947 . S
H10 C33 0.948 . S
H11 C39 0.982 . S
H12 C40 0.979 . S
H13 C40 0.980 . S
H14 C40 0.983 . S
H15 C39 0.979 . S
H16 C39 0.977 . S
C17 C5 1.453 . S
C17 H46 0.982 . S
C17 H47 0.979 . S
C17 H48 0.977 . S
C18 C5 1.684 . S
C18 H43 0.979 . S
C18 H44 0.980 . S
C18 H45 0.983 . S
C19 C20 1.391 . S
C19 C24 1.391 . S
C19 H49 0.948 . S
C20 C19 1.391 . S
C20 C21 1.391 . S
C21 C20 1.391 . S
C21 C22 1.392 . S
C21 H50 0.947 . S
C22 C21 1.392 . S
C22 C23 1.419 . S
C22 H51 0.948 . S
C23 C22 1.419 . S
C23 C24 1.391 . S
C23 C27 1.397 . S
C24 C19 1.391 . S
C24 C23 1.391 . S
C24 C25 1.399 . S
C25 C24 1.399 . S
C25 C26 1.396 . S
C25 C28 1.453 . S
C25 C29 1.684 . S
C26 C7 1.723 . S
C26 C25 1.396 . S
C26 C27 1.394 . S
C27 C23 1.397 . S
C27 C26 1.394 . S
C27 C37 1.723 . S
C28 C25 1.453 . S
C28 H52 0.982 . S
C28 H53 0.979 . S
C28 H54 0.977 . S
C29 C25 1.684 . S
C29 H55 0.979 . S
C29 H56 0.980 . S
C29 H57 0.983 . S
C30 H6 0.948 . S
C30 C31 1.391 . S
C30 C35 1.391 . S
C31 C30 1.391 . S
C31 C32 1.391 . S
C32 H9 0.947 . S
C32 C31 1.391 . S
C32 C33 1.392 . S
C33 H10 0.948 . S
C33 C32 1.392 . S
C33 C34 1.419 . S
C34 C33 1.419 . S
C34 C35 1.391 . S
C34 C38 1.397 . S
C35 C30 1.391 . S
C35 C34 1.391 . S
C35 C36 1.399 . S
C36 C35 1.399 . S
C36 C37 1.396 . S
C36 C39 1.453 . S
C36 C40 1.684 . S
C37 C27 1.723 . S
C37 C36 1.396 . S
C37 C38 1.394 . S
C38 C8 1.723 . S
C38 C34 1.397 . S
C38 C37 1.394 . S
C39 H11 0.982 . S
C39 H15 0.979 . S
C39 H16 0.977 . S
C39 C36 1.453 . S
C40 H12 0.979 . S
C40 H13 0.980 . S
C40 H14 0.983 . S
C40 C36 1.684 . S
H41 C59 0.948 . S
H42 C0 0.948 . S
H43 C18 0.979 . S
H44 C18 0.980 . S
H45 C18 0.983 . S
H46 C17 0.982 . S
H47 C17 0.979 . S
H48 C17 0.977 . S
H49 C19 0.948 . S
H50 C21 0.947 . S
H51 C22 0.948 . S
H52 C28 0.982 . S
H53 C28 0.979 . S
H54 C28 0.977 . S
H55 C29 0.979 . S
H56 C29 0.980 . S
H57 C29 0.983 . S
H58 C2 0.947 . S
C59 C2 1.392 . S
C59 C3 1.419 . S
C59 H41 0.948 . S
C60 C61 1.391 . S
C60 C64 1.391 . S
C60 H102 0.948 . S
C61 C60 1.391 . S
C61 C62 1.391 . S
C62 C61 1.391 . S
C62 H118 0.947 . S
C62 C119 1.392 . S
C63 C64 1.391 . S
C63 C67 1.397 . S
C63 C119 1.419 . S
C64 C60 1.391 . S
C64 C63 1.391 . S
C64 C65 1.399 . S
C65 C64 1.399 . S
C65 C68 1.396 . S
C65 C77 1.453 . S
C65 C78 1.684 . S
H66 C90 0.948 . S
C67 C63 1.397 . S
C67 C68 1.394 . S
C67 C86 1.723 . S
C68 C65 1.396 . S
C68 C67 1.394 . S
C68 C98 1.723 . S
H69 C92 0.947 . S
H70 C93 0.948 . S
H71 C99 0.982 . S
H72 C100 0.979 . S
H73 C100 0.980 . S
H74 C100 0.983 . S
H75 C99 0.979 . S
H76 C99 0.977 . S
C77 C65 1.453 . S
C77 H106 0.982 . S
C77 H107 0.979 . S
C77 H108 0.977 . S
C78 C65 1.684 . S
C78 H103 0.979 . S
C78 H104 0.980 . S
C78 H105 0.983 . S
C79 C80 1.391 . S
C79 C84 1.391 . S
C79 H109 0.948 . S
C80 C79 1.391 . S
C80 C81 1.391 . S
C81 C80 1.391 . S
C81 C82 1.392 . S
C81 H110 0.947 . S
C82 C81 1.392 . S
C82 C83 1.419 . S
C82 H111 0.948 . S
C83 C82 1.419 . S
C83 C84 1.391 . S
C83 C87 1.397 . S
C84 C79 1.391 . S
C84 C83 1.391 . S
C84 C85 1.399 . S
C85 C84 1.399 . S
C85 C86 1.396 . S
C85 C88 1.453 . S
C85 C89 1.684 . S
C86 C67 1.723 . S
C86 C85 1.396 . S
C86 C87 1.394 . S
C87 C83 1.397 . S
C87 C86 1.394 . S
C87 C97 1.723 . S
C88 C85 1.453 . S
C88 H112 0.982 . S
C88 H113 0.979 . S
C88 H114 0.977 . S
C89 C85 1.684 . S
C89 H115 0.979 . S
C89 H116 0.980 . S
C89 H117 0.983 . S
C90 H66 0.948 . S
C90 C91 1.391 . S
C90 C95 1.391 . S
C91 C90 1.391 . S
C91 C92 1.391 . S
C92 H69 0.947 . S
C92 C91 1.391 . S
C92 C93 1.392 . S
C93 H70 0.948 . S
C93 C92 1.392 . S
C93 C94 1.419 . S
C94 C93 1.419 . S
C94 C95 1.391 . S
C94 C98 1.397 . S
C95 C90 1.391 . S
C95 C94 1.391 . S
C95 C96 1.399 . S
C96 C95 1.399 . S
C96 C97 1.396 . S
C96 C99 1.453 . S
C96 C100 1.684 . S
C97 C87 1.723 . S
C97 C96 1.396 . S
C97 C98 1.394 . S
C98 C68 1.723 . S
C98 C94 1.397 . S
C98 C97 1.394 . S
C99 H71 0.982 . S
C99 H75 0.979 . S
C99 H76 0.977 . S
C99 C96 1.453 . S
C100 H72 0.979 . S
C100 H73 0.980 . S
C100 H74 0.983 . S
C100 C96 1.684 . S
H101 C119 0.948 . S
H102 C60 0.948 . S
H103 C78 0.979 . S
H104 C78 0.980 . S
H105 C78 0.983 . S
H106 C77 0.982 . S
H107 C77 0.979 . S
H108 C77 0.977 . S
H109 C79 0.948 . S
H110 C81 0.947 . S
H111 C82 0.948 . S
H112 C88 0.982 . S
H113 C88 0.979 . S
H114 C88 0.977 . S
H115 C89 0.979 . S
H116 C89 0.980 . S
H117 C89 0.983 . S
H118 C62 0.947 . S
C119 C62 1.392 . S
C119 C63 1.419 . S
C119 H101 0.948 . S
C120 C121 1.391 . S
C120 C124 1.391 . S
C120 H162 0.948 . S
C121 C120 1.391 . S
C121 C122 1.391 . S
C122 C121 1.391 . S
C122 H178 0.947 . S
C122 C179 1.392 . S
C123 C124 1.391 . S
C123 C127 1.397 . S
C123 C179 1.419 . S
C124 C120 1.391 . S
C124 C123 1.391 . S
C124 C125 1.399 . S
C125 C124 1.399 . S
C125 C128 1.396 . S
C125 C137 1.453 . S
C125 C138 1.684 . S
H126 C150 0.948 . S
C127 C123 1.397 . S
C127 C128 1.394 . S
C127 C146 1.723 . S
C128 C125 1.396 . S
C128 C127 1.394 . S
C128 C158 1.723 . S
H129 C152 0.947 . S
H130 C153 0.948 . S
H131 C159 0.982 . S
H132 C160 0.979 . S
H133 C160 0.980 . S
H134 C160 0.983 . S
H135 C159 0.979 . S
H136 C159 0.977 . S
C137 C125 1.453 . S
C137 H166 0.982 . S
C137 H167 0.979 . S
C137 H168 0.977 . S
C138 C125 1.684 . S
C138 H163 0.979 . S
C138 H164 0.980 . S
C138 H165 0.983 . S
C139 C140 1.391 . S
C139 C144 1.391 . S
C139 H169 0.948 . S
C140 C139 1.391 . S
C140 C141 1.391 . S
C141 C140 1.391 . S
C141 C142 1.392 . S
C141 H170 0.947 . S
C142 C141 1.392 . S
C142 C143 1.419 . S
C142 H171 0.948 . S
C143 C142 1.419 . S
C143 C144 1.391 . S
C143 C147 1.397 . S
C144 C139 1.391 . S
C144 C143 1.391 . S
C144 C145 1.399 . S
C145 C144 1.399 . S
C145 C146 1.396 . S
C145 C148 1.453 . S
C145 C149 1.684 . S
C146 C127 1.723 . S
C146 C145 1.396 . S
C146 C147 1.394 . S
C147 C143 1.397 . S
C147 C146 1.394 . S
C147 C157 1.723 . S
C148 C145 1.453 . S
C148 H172 0.982 . S
C148 H173 0.979 . S
C148 H174 0.977 . S
C149 C145 1.684 . S
C149 H175 0.979 . S
C149 H176 0.980 . S
C149 H177 0.983 . S
C150 H126 0.948 . S
C150 C151 1.391 . S
C150 C155 1.391 . S
C151 C150 1.391 . S
C151 C152 1.391 . S
C152 H129 0.947 . S
C152 C151 1.391 . S
C152 C153 1.392 . S
C153 H130 0.948 . S
C153 C152 1.392 . S
C153 C154 1.419 . S
C154 C153 1.419 . S
C154 C155 1.391 . S
C154 C158 1.397 . S
C155 C150 1.391 . S
C155 C154 1.391 . S
C155 C156 1.399 . S
C156 C155 1.399 . S
C156 C157 1.396 . S
C156 C159 1.453 . S
C156 C160 1.684 . S
C157 C147 1.723 . S
C157 C156 1.396 . S
C157 C158 1.394 . S
C158 C128 1.723 . S
C158 C154 1.397 . S
C158 C157 1.394 . S
C159 H131 0.982 . S
C159 H135 0.979 . S
C159 H136 0.977 . S
C159 C156 1.453 . S
C160 H132 0.979 . S
C160 H133 0.980 . S
C160 H134 0.983 . S
C160 C156 1.684 . S
H161 C179 0.948 . S
H162 C120 0.948 . S
H163 C138 0.979 . S
H164 C138 0.980 . S
H165 C138 0.983 . S
H166 C137 0.982 . S
H167 C137 0.979 . S
H168 C137 0.977 . S
H169 C139 0.948 . S
H170 C141 0.947 . S
H171 C142 0.948 . S
H172 C148 0.982 . S
H173 C148 0.979 . S
H174 C148 0.977 . S
H175 C149 0.979 . S
H176 C149 0.980 . S
H177 C149 0.983 . S
H178 C122 0.947 . S
C179 C122 1.392 . S
C179 C123 1.419 . S
C179 H161 0.948 . S
C180 C181 1.391 . S
C180 C184 1.391 . S
C180 H222 0.948 . S
C181 C180 1.391 . S
C181 C182 1.391 . S
C182 C181 1.391 . S
C182 H238 0.947 . S
C182 C239 1.392 . S
C183 C184 1.391 . S
C183 C187 1.397 . S
C183 C239 1.419 . S
C184 C180 1.391 . S
C184 C183 1.391 . S
C184 C185 1.399 . S
C185 C184 1.399 . S
C185 C188 1.396 . S
C185 C197 1.453 . S
C185 C198 1.684 . S
H186 C210 0.948 . S
C187 C183 1.397 . S
C187 C188 1.394 . S
C187 C206 1.723 . S
C188 C185 1.396 . S
C188 C187 1.394 . S
C188 C218 1.723 . S
H189 C212 0.947 . S
H190 C213 0.948 . S
H191 C219 0.982 . S
H192 C220 0.979 . S
H193 C220 0.980 . S
H194 C220 0.983 . S
H195 C219 0.979 . S
H196 C219 0.977 . S
C197 C185 1.453 . S
C197 H226 0.982 . S
C197 H227 0.979 . S
C197 H228 0.977 . S
C198 C185 1.684 . S
C198 H223 0.979 . S
C198 H224 0.980 . S
C198 H225 0.983 . S
C199 C200 1.391 . S
C199 C204 1.391 . S
C199 H229 0.948 . S
C200 C199 1.391 . S
C200 C201 1.391 . S
C201 C200 1.391 . S
C201 C202 1.392 . S
C201 H230 0.947 . S
C202 C201 1.392 . S
C202 C203 1.419 . S
C202 H231 0.948 . S
C203 C202 1.419 . S
C203 C204 1.391 . S
C203 C207 1.397 . S
C204 C199 1.391 . S
C204 C203 1.391 . S
C204 C205 1.399 . S
C205 C204 1.399 . S
C205 C206 1.396 . S
C205 C208 1.453 . S
C205 C209 1.684 . S
C206 C187 1.723 . S
C206 C205 1.396 . S
C206 C207 1.394 . S
C207 C203 1.397 . S
C207 C206 1.394 . S
C207 C217 1.723 . S
C208 C205 1.453 . S
C208 H232 0.982 . S
C208 H233 0.979 . S
C208 H234 0.977 . S
C209 C205 1.684 . S
C209 H235 0.979 . S
C209 H236 0.980 . S
C209 H237 0.983 . S
C210 H186 0.948 . S
C210 C211 1.391 . S
C210 C215 1.391 . S
C211 C210 1.391 . S
C211 C212 1.391 . S
C212 H189 0.947 . S
C212 C211 1.391 . S
C212 C213 1.392 . S
C213 H190 0.948 . S
C213 C212 1.392 . S
C213 C214 1.419 . S
C214 C213 1.419 . S
C214 C215 1.391 . S
C214 C218 1.397 . S
C215 C210 1.391 . S
C215 C214 1.391 . S
C215 C216 1.399 . S
C216 C215 1.399 . S
C216 C217 1.396 . S
C216 C219 1.453 . S
C216 C220 1.684 . S
C217 C207 1.723 . S
C217 C216 1.396 . S
C217 C218 1.394 . S
C218 C188 1.723 . S
C218 C214 1.397 . S
C218 C217 1.394 . S
C219 H191 0.982 . S
C219 H195 0.979 . S
C219 H196 0.977 . S
C219 C216 1.453 . S
C220 H192 0.979 . S
C220 H193 0.980 . S
C220 H194 0.983 . S
C220 C216 1.684 . S
H221 C239 0.948 . S
H222 C180 0.948 . S
H223 C198 0.979 . S
H224 C198 0.980 . S
H225 C198 0.983 . S
H226 C197 0.982 . S
H227 C197 0.979 . S
H228 C197 0.977 . S
H229 C199 0.948 . S
H230 C201 0.947 . S
H231 C202 0.948 . S
H232 C208 0.982 . S
H233 C208 0.979 . S
H234 C208 0.977 . S
H235 C209 0.979 . S
H236 C209 0.980 . S
H237 C209 0.983 . S
H238 C182 0.947 . S
C239 C182 1.392 . S
C239 C183 1.419 . S
C239 H221 0.948 . S
C240 C241 1.391 . S
C240 C244 1.391 . S
C240 H282 0.948 . S
C241 C240 1.391 . S
C241 C242 1.391 . S
C242 C241 1.391 . S
C242 H298 0.947 . S
C242 C299 1.392 . S
C243 C244 1.391 . S
C243 C247 1.397 . S
C243 C299 1.419 . S
C244 C240 1.391 . S
C244 C243 1.391 . S
C244 C245 1.399 . S
C245 C244 1.399 . S
C245 C248 1.396 . S
C245 C257 1.453 . S
C245 C258 1.684 . S
H246 C270 0.948 . S
C247 C243 1.397 . S
C247 C248 1.394 . S
C247 C266 1.723 . S
C248 C245 1.396 . S
C248 C247 1.394 . S
C248 C278 1.723 . S
H249 C272 0.947 . S
H250 C273 0.948 . S
H251 C279 0.982 . S
H252 C280 0.979 . S
H253 C280 0.980 . S
H254 C280 0.983 . S
H255 C279 0.979 . S
H256 C279 0.977 . S
C257 C245 1.453 . S
C257 H286 0.982 . S
C257 H287 0.979 . S
C257 H288 0.977 . S
C258 C245 1.684 . S
C258 H283 0.979 . S
C258 H284 0.980 . S
C258 H285 0.983 . S
C259 C260 1.391 . S
C259 C264 1.391 . S
C259 H289 0.948 . S
C260 C259 1.391 . S
C260 C261 1.391 . S
C261 C260 1.391 . S
C261 C262 1.392 . S
C261 H290 0.947 . S
C262 C261 1.392 . S
C262 C263 1.419 . S
C262 H291 0.948 . S
C263 C262 1.419 . S
C263 C264 1.391 . S
C263 C267 1.397 . S
C264 C259 1.391 . S
C264 C263 1.391 . S
C264 C265 1.399 . S
C265 C264 1.399 . S
C265 C266 1.396 . S
C265 C268 1.453 . S
C265 C269 1.684 . S
C266 C247 1.723 . S
C266 C265 1.396 . S
C266 C267 1.394 . S
C267 C263 1.397 . S
C267 C266 1.394 . S
C267 C277 1.723 . S
C268 C265 1.453 . S
C268 H292 0.982 . S
C268 H293 0.979 . S
C268 H294 0.977 . S
C269 C265 1.684 . S
C269 H295 0.979 . S
C269 H296 0.980 . S
C269 H297 0.983 . S
C270 H246 0.948 . S
C270 C271 1.391 . S
C270 C275 1.391 . S
C271 C270 1.391 . S
C271 C272 1.391 . S
C272 H249 0.947 . S
C272 C271 1.391 . S
C272 C273 1.392 . S
C273 H250 0.948 . S
C273 C272 1.392 . S
C273 C274 1.419 . S
C274 C273 1.419 . S
C274 C275 1.391 . S
C274 C278 1.397 . S
C275 C270 1.391 . S
C275 C274 1.391 . S
C275 C276 1.399 . S
C276 C275 1.399 . S
C276 C277 1.396 . S
C276 C279 1.453 . S
C276 C280 1.684 . S
C277 C267 1.723 . S
C277 C276 1.396 . S
C277 C278 1.394 . S
C278 C248 1.723 . S
C278 C274 1.397 . S
C278 C277 1.394 . S
C279 H251 0.982 . S
C279 H255 0.979 . S
C279 H256 0.977 . S
C279 C276 1.453 . S
C280 H252 0.979 . S
C280 H253 0.980 . S
C280 H254 0.983 . S
C280 C276 1.684 . S
H281 C299 0.948 . S
H282 C240 0.948 . S
H283 C258 0.979 . S
H284 C258 0.980 . S
H285 C258 0.983 . S
H286 C257 0.982 . S
H287 C257 0.979 . S
H288 C257 0.977 . S
H289 C259 0.948 . S
H290 C261 0.947 . S
H291 C262 0.948 . S
H292 C268 0.982 . S
H293 C268 0.979 . S
H294 C268 0.977 . S
H295 C269 0.979 . S
H296 C269 0.980 . S
H297 C269 0.983 . S
H298 C242 0.947 . S
C299 C242 1.392 . S
C299 C243 1.419 . S
C299 H281 0.948 . S
C300 C301 1.391 . S
C300 C304 1.391 . S
C300 H342 0.948 . S
C301 C300 1.391 . S
C301 C302 1.391 . S
C302 C301 1.391 . S
C302 H358 0.947 . S
C302 C359 1.392 . S
C303 C304 1.391 . S
C303 C307 1.397 . S
C303 C359 1.419 . S
C304 C300 1.391 . S
C304 C303 1.391 . S
C304 C305 1.399 . S
C305 C304 1.399 . S
C305 C308 1.396 . S
C305 C317 1.453 . S
C305 C318 1.684 . S
H306 C330 0.948 . S
C307 C303 1.397 . S
C307 C308 1.394 . S
C307 C326 1.723 . S
C308 C305 1.396 . S
C308 C307 1.394 . S
C308 C338 1.723 . S
H309 C332 0.947 . S
H310 C333 0.948 . S
H311 C339 0.982 . S
H312 C340 0.979 . S
H313 C340 0.980 . S
H314 C340 0.983 . S
H315 C339 0.979 . S
H316 C339 0.977 . S
C317 C305 1.453 . S
C317 H346 0.982 . S
C317 H347 0.979 . S
C317 H348 0.977 . S
C318 C305 1.684 . S
C318 H343 0.979 . S
C318 H344 0.980 . S
C318 H345 0.983 . S
C319 C320 1.391 . S
C319 C324 1.391 . S
C319 H349 0.948 . S
C320 C319 1.391 . S
C320 C321 1.391 . S
C321 C320 1.391 . S
C321 C322 1.392 . S
C321 H350 0.947 . S
C322 C321 1.392 . S
C322 C323 1.419 . S
C322 H351 0.948 . S
C323 C322 1.419 . S
C323 C324 1.391 . S
C323 C327 1.397 . S
C324 C319 1.391 . S
C324 C323 1.391 . S
C324 C325 1.399 . S
C325 C324 1.399 . S
C325 C326 1.396 . S
C325 C328 1.453 . S
C325 C329 1.684 . S
C326 C307 1.723 . S
C326 C325 1.396 . S
C326 C327 1.394 . S
C327 C323 1.397 . S
C327 C326 1.394 . S
C327 C337 1.723 . S
C328 C325 1.453 . S
C328 H352 0.982 . S
C328 H353 0.979 . S
C328 H354 0.977 . S
C329 C325 1.684 . S
C329 H355 0.979 . S
C329 H356 0.980 . S
C329 H357 0.983 . S
C330 H306 0.948 . S
C330 C331 1.391 . S
C330 C335 1.391 . S
C331 C330 1.391 . S
C331 C332 1.391 . S
C332 H309 0.947 . S
C332 C331 1.391 . S
C332 C333 1.392 . S
C333 H310 0.948 . S
C333 C332 1.392 . S
C333 C334 1.419 . S
C334 C333 1.419 . S
C334 C335 1.391 . S
C334 C338 1.397 . S
C335 C330 1.391 . S
C335 C334 1.391 . S
C335 C336 1.399 . S
C336 C335 1.399 . S
C336 C337 1.396 . S
C336 C339 1.453 . S
C336 C340 1.684 . S
C337 C327 1.723 . S
C337 C336 1.396 . S
C337 C338 1.394 . S
C338 C308 1.723 . S
C338 C334 1.397 . S
C338 C337 1.394 . S
C339 H311 0.982 . S
C339 H315 0.979 . S
C339 H316 0.977 . S
C339 C336 1.453 . S
C340 H312 0.979 . S
C340 H313 0.980 . S
C340 H314 0.983 . S
C340 C336 1.684 . S
H341 C359 0.948 . S
H342 C300 0.948 . S
H343 C318 0.979 . S
H344 C318 0.980 . S
H345 C318 0.983 . S
H346 C317 0.982 . S
H347 C317 0.979 . S
H348 C317 0.977 . S
H349 C319 0.948 . S
H350 C321 0.947 . S
H351 C322 0.948 . S
H352 C328 0.982 . S
H353 C328 0.979 . S
H354 C328 0.977 . S
H355 C329 0.979 . S
H356 C329 0.980 . S
H357 C329 0.983 . S
H358 C302 0.947 . S
C359 C302 1.392 . S
C359 C303 1.419 . S
C359 H341 0.948 . S
C360 C361 1.391 . S
C360 C364 1.391 . S
C360 H402 0.948 . S
C361 C360 1.391 . S
C361 C362 1.391 . S
C362 C361 1.391 . S
C362 H418 0.947 . S
C362 C419 1.392 . S
C363 C364 1.391 . S
C363 C367 1.397 . S
C363 C419 1.419 . S
C364 C360 1.391 . S
C364 C363 1.391 . S
C364 C365 1.399 . S
C365 C364 1.399 . S
C365 C368 1.396 . S
C365 C377 1.453 . S
C365 C378 1.684 . S
H366 C390 0.948 . S
C367 C363 1.397 . S
C367 C368 1.394 . S
C367 C386 1.723 . S
C368 C365 1.396 . S
C368 C367 1.394 . S
C368 C398 1.723 . S
H369 C392 0.947 . S
H370 C393 0.948 . S
H371 C399 0.982 . S
H372 C400 0.979 . S
H373 C400 0.980 . S
H374 C400 0.983 . S
H375 C399 0.979 . S
H376 C399 0.977 . S
C377 C365 1.453 . S
C377 H406 0.982 . S
C377 H407 0.979 . S
C377 H408 0.977 . S
C378 C365 1.684 . S
C378 H403 0.979 . S
C378 H404 0.980 . S
C378 H405 0.983 . S
C379 C380 1.391 . S
C379 C384 1.391 . S
C379 H409 0.948 . S
C380 C379 1.391 . S
C380 C381 1.391 . S
C381 C380 1.391 . S
C381 C382 1.392 . S
C381 H410 0.947 . S
C382 C381 1.392 . S
C382 C383 1.419 . S
C382 H411 0.948 . S
C383 C382 1.419 . S
C383 C384 1.391 . S
C383 C387 1.397 . S
C384 C379 1.391 . S
C384 C383 1.391 . S
C384 C385 1.399 . S
C385 C384 1.399 . S
C385 C386 1.396 . S
C385 C388 1.453 . S
C385 C389 1.684 . S
C386 C367 1.723 . S
C386 C385 1.396 . S
C386 C387 1.394 . S
C387 C383 1.397 . S
C387 C386 1.394 . S
C387 C397 1.723 . S
C388 C385 1.453 . S
C388 H412 0.982 . S
C388 H413 0.979 . S
C388 H414 0.977 . S
C389 C385 1.684 . S
C389 H415 0.979 . S
C389 H416 0.980 . S
C389 H417 0.983 . S
C390 H366 0.948 . S
C390 C391 1.391 . S
C390 C395 1.391 . S
C391 C390 1.391 . S
C391 C392 1.391 . S
C392 H369 0.947 . S
C392 C391 1.391 . S
C392 C393 1.392 . S
C393 H370 0.948 . S
C393 C392 1.392 . S
C393 C394 1.419 . S
C394 C393 1.419 . S
C394 C395 1.391 . S
C394 C398 1.397 . S
C395 C390 1.391 . S
C395 C394 1.391 . S
C395 C396 1.399 . S
C396 C395 1.399 . S
C396 C397 1.396 . S
C396 C399 1.453 . S
C396 C400 1.684 . S
C397 C387 1.723 . S
C397 C396 1.396 . S
C397 C398 1.394 . S
C398 C368 1.723 . S
C398 C394 1.397 . S
C398 C397 1.394 . S
C399 H371 0.982 . S
C399 H375 0.979 . S
C399 H376 0.977 . S
C399 C396 1.453 . S
C400 H372 0.979 . S
C400 H373 0.980 . S
C400 H374 0.983 . S
C400 C396 1.684 . S
H401 C419 0.948 . S
H402 C360 0.948 . S
H403 C378 0.979 . S
H404 C378 0.980 . S
H405 C378 0.983 . S
H406 C377 0.982 . S
H407 C377 0.979 . S
H408 C377 0.977 . S
H409 C379 0.948 . S
H410 C381 0.947 . S
H411 C382 0.948 . S
H412 C388 0.982 . S
H413 C388 0.979 . S
H414 C388 0.977 . S
H415 C389 0.979 . S
H416 C389 0.980 . S
H417 C389 0.983 . S
H418 C362 0.947 . S
C419 C362 1.392 . S
C419 C363 1.419 . S
C419 H401 0.948 . S
C420 C421 1.391 . S
C420 C424 1.391 . S
C420 H462 0.948 . S
C421 C420 1.391 . S
C421 C422 1.391 . S
C422 C421 1.391 . S
C422 H478 0.947 . S
C422 C479 1.392 . S
C423 C424 1.391 . S
C423 C427 1.397 . S
C423 C479 1.419 . S
C424 C420 1.391 . S
C424 C423 1.391 . S
C424 C425 1.399 . S
C425 C424 1.399 . S
C425 C428 1.396 . S
C425 C437 1.453 . S
C425 C438 1.684 . S
H426 C450 0.948 . S
C427 C423 1.397 . S
C427 C428 1.394 . S
C427 C446 1.723 . S
C428 C425 1.396 . S
C428 C427 1.394 . S
C428 C458 1.723 . S
H429 C452 0.947 . S
H430 C453 0.948 . S
H431 C459 0.982 . S
H432 C460 0.979 . S
H433 C460 0.980 . S
H434 C460 0.983 . S
H435 C459 0.979 . S
H436 C459 0.977 . S
C437 C425 1.453 . S
C437 H466 0.982 . S
C437 H467 0.979 . S
C437 H468 0.977 . S
C438 C425 1.684 . S
C438 H463 0.979 . S
C438 H464 0.980 . S
C438 H465 0.983 . S
C439 C440 1.391 . S
C439 C444 1.391 . S
C439 H469 0.948 . S
C440 C439 1.391 . S
C440 C441 1.391 . S
C441 C440 1.391 . S
C441 C442 1.392 . S
C441 H470 0.947 . S
C442 C441 1.392 . S
C442 C443 1.419 . S
C442 H471 0.948 . S
C443 C442 1.419 . S
C443 C444 1.391 . S
C443 C447 1.397 . S
C444 C439 1.391 . S
C444 C443 1.391 . S
C444 C445 1.399 . S
C445 C444 1.399 . S
C445 C446 1.396 . S
C445 C448 1.453 . S
C445 C449 1.684 . S
C446 C427 1.723 . S
C446 C445 1.396 . S
C446 C447 1.394 . S
C447 C443 1.397 . S
C447 C446 1.394 . S
C447 C457 1.723 . S
C448 C445 1.453 . S
C448 H472 0.982 . S
C448 H473 0.979 . S
C448 H474 0.977 . S
C449 C445 1.684 . S
C449 H475 0.979 . S
C449 H476 0.980 . S
C449 H477 0.983 . S
C450 H426 0.948 . S
C450 C451 1.391 . S
C450 C455 1.391 . S
C451 C450 1.391 . S
C451 C452 1.391 . S
C452 H429 0.947 . S
C452 C451 1.391 . S
C452 C453 1.392 . S
C453 H430 0.948 . S
C453 C452 1.392 . S
C453 C454 1.419 . S
C454 C453 1.419 . S
C454 C455 1.391 . S
C454 C458 1.397 . S
C455 C450 1.391 . S
C455 C454 1.391 . S
C455 C456 1.399 . S
C456 C455 1.399 . S
C456 C457 1.396 . S
C456 C459 1.453 . S
C456 C460 1.684 . S
C457 C447 1.723 . S
C457 C456 1.396 . S
C457 C458 1.394 . S
C458 C428 1.723 . S
C458 C454 1.397 . S
C458 C457 1.394 . S
C459 H431 0.982 . S
C459 H435 0.979 . S
C459 H436 0.977 . S
C459 C456 1.453 . S
C460 H432 0.979 . S
C460 H433 0.980 . S
C460 H434 0.983 . S
C460 C456 1.684 . S
H461 C479 0.948 . S
H462 C420 0.948 . S
H463 C438 0.979 . S
H464 C438 0.980 . S
H465 C438 0.983 . S
H466 C437 0.982 . S
H467 C437 0.979 . S
H468 C437 0.977 . S
H469 C439 0.948 . S
H470 C441 0.947 . S
H471 C442 0.948 . S
H472 C448 0.982 . S
H473 C448 0.979 . S
H474 C448 0.977 . S
H475 C449 0.979 . S
H476 C449 0.980 . S
H477 C449 0.983 . S
H478 C422 0.947 . S
C479 C422 1.392 . S
C479 C423 1.419 . S
C479 H461 0.948 . S
C480 C481 1.391 . S
C480 C484 1.391 . S
C480 H522 0.948 . S
C481 C480 1.391 . S
C481 C482 1.391 . S
C482 C481 1.391 . S
C482 H538 0.947 . S
C482 C539 1.392 . S
C483 C484 1.391 . S
C483 C487 1.397 . S
C483 C539 1.419 . S
C484 C480 1.391 . S
C484 C483 1.391 . S
C484 C485 1.399 . S
C485 C484 1.399 . S
C485 C488 1.396 . S
C485 C497 1.453 . S
C485 C498 1.684 . S
H486 C510 0.948 . S
C487 C483 1.397 . S
C487 C488 1.394 . S
C487 C506 1.723 . S
C488 C485 1.396 . S
C488 C487 1.394 . S
C488 C518 1.723 . S
H489 C512 0.947 . S
H490 C513 0.948 . S
H491 C519 0.982 . S
H492 C520 0.979 . S
H493 C520 0.980 . S
H494 C520 0.983 . S
H495 C519 0.979 . S
H496 C519 0.977 . S
C497 C485 1.453 . S
C497 H526 0.982 . S
C497 H527 0.979 . S
C497 H528 0.977 . S
C498 C485 1.684 . S
C498 H523 0.979 . S
C498 H524 0.980 . S
C498 H525 0.983 . S
C499 C500 1.391 . S
C499 C504 1.391 . S
C499 H529 0.948 . S
C500 C499 1.391 . S
C500 C501 1.391 . S
C501 C500 1.391 . S
C501 C502 1.392 . S
C501 H530 0.947 . S
C502 C501 1.392 . S
C502 C503 1.419 . S
C502 H531 0.948 . S
C503 C502 1.419 . S
C503 C504 1.391 . S
C503 C507 1.397 . S
C504 C499 1.391 . S
C504 C503 1.391 . S
C504 C505 1.399 . S
C505 C504 1.399 . S
C505 C506 1.396 . S
C505 C508 1.453 . S
C505 C509 1.684 . S
C506 C487 1.723 . S
C506 C505 1.396 . S
C506 C507 1.394 . S
C507 C503 1.397 . S
C507 C506 1.394 . S
C507 C517 1.723 . S
C508 C505 1.453 . S
C508 H532 0.982 . S
C508 H533 0.979 . S
C508 H534 0.977 . S
C509 C505 1.684 . S
C509 H535 0.979 . S
C509 H536 0.980 . S
C509 H537 0.983 . S
C510 H486 0.948 . S
C510 C511 1.391 . S
C510 C515 1.391 . S
C511 C510 1.391 . S
C511 C512 1.391 . S
C512 H489 0.947 . S
C512 C511 1.391 . S
C512 C513 1.392 . S
C513 H490 0.948 . S
C513 C512 1.392 . S
C513 C514 1.419 . S
C514 C513 1.419 . S
C514 C515 1.391 . S
C514 C518 1.397 . S
C515 C510 1.391 . S
C515 C514 1.391 . S
C515 C516 1.399 . S
C516 C515 1.399 . S
C516 C517 1.396 . S
C516 C519 1.453 . S
C516 C520 1.684 . S
C517 C507 1.723 . S
C517 C516 1.396 . S
C517 C518 1.394 . S
C518 C488 1.723 . S
C518 C514 1.397 . S
C518 C517 1.394 . S
C519 H491 0.982 . S
C519 H495 0.979 . S
C519 H496 0.977 . S
C519 C516 1.453 . S
C520 H492 0.979 . S
C520 H493 0.980 . S
C520 H494 0.983 . S
C520 C516 1.684 . S
H521 C539 0.948 . S
H522 C480 0.948 . S
H523 C498 0.979 . S
H524 C498 0.980 . S
H525 C498 0.983 . S
H526 C497 0.982 . S
H527 C497 0.979 . S
H528 C497 0.977 . S
H529 C499 0.948 . S
H530 C501 0.947 . S
H531 C502 0.948 . S
H532 C508 0.982 . S
H533 C508 0.979 . S
H534 C508 0.977 . S
H535 C509 0.979 . S
H536 C509 0.980 . S
H537 C509 0.983 . S
H538 C482 0.947 . S
C539 C482 1.392 . S
C539 C483 1.419 . S
C539 H521 0.948 . S
C540 C541 1.391 . S
C540 C544 1.391 . S
C540 H582 0.948 . S
C541 C540 1.391 . S
C541 C542 1.391 . S
C542 C541 1.391 . S
C542 H598 0.947 . S
C542 C599 1.392 . S
C543 C544 1.391 . S
C543 C547 1.397 . S
C543 C599 1.419 . S
C544 C540 1.391 . S
C544 C543 1.391 . S
C544 C545 1.399 . S
C545 C544 1.399 . S
C545 C548 1.396 . S
C545 C557 1.453 . S
C545 C558 1.684 . S
H546 C570 0.948 . S
C547 C543 1.397 . S
C547 C548 1.394 . S
C547 C566 1.723 . S
C548 C545 1.396 . S
C548 C547 1.394 . S
C548 C578 1.723 . S
H549 C572 0.947 . S
H550 C573 0.948 . S
H551 C579 0.982 . S
H552 C580 0.979 . S
H553 C580 0.980 . S
H554 C580 0.983 . S
H555 C579 0.979 . S
H556 C579 0.977 . S
C557 C545 1.453 . S
C557 H586 0.982 . S
C557 H587 0.979 . S
C557 H588 0.977 . S
C558 C545 1.684 . S
C558 H583 0.979 . S
C558 H584 0.980 . S
C558 H585 0.983 . S
C559 C560 1.391 . S
C559 C564 1.391 . S
C559 H589 0.948 . S
C560 C559 1.391 . S
C560 C561 1.391 . S
C561 C560 1.391 . S
C561 C562 1.392 . S
C561 H590 0.947 . S
C562 C561 1.392 . S
C562 C563 1.419 . S
C562 H591 0.948 . S
C563 C562 1.419 . S
C563 C564 1.391 . S
C563 C567 1.397 . S
C564 C559 1.391 . S
C564 C563 1.391 . S
C564 C565 1.399 . S
C565 C564 1.399 . S
C565 C566 1.396 . S
C565 C568 1.453 . S
C565 C569 1.684 . S
C566 C547 1.723 . S
C566 C565 1.396 . S
C566 C567 1.394 . S
C567 C563 1.397 . S
C567 C566 1.394 . S
C567 C577 1.723 . S
C568 C565 1.453 . S
C568 H592 0.982 . S
C568 H593 0.979 . S
C568 H594 0.977 . S
C569 C565 1.684 . S
C569 H595 0.979 . S
C569 H596 0.980 . S
C569 H597 0.983 . S
C570 H546 0.948 . S
C570 C571 1.391 . S
C570 C575 1.391 . S
C571 C570 1.391 . S
C571 C572 1.391 . S
C572 H549 0.947 . S
C572 C571 1.391 . S
C572 C573 1.392 . S
C573 H550 0.948 . S
C573 C572 1.392 . S
C573 C574 1.419 . S
C574 C573 1.419 . S
C574 C575 1.391 . S
C574 C578 1.397 . S
C575 C570 1.391 . S
C575 C574 1.391 . S
C575 C576 1.399 . S
C576 C575 1.399 . S
C576 C577 1.396 . S
C576 C579 1.453 . S
C576 C580 1.684 . S
C577 C567 1.723 . S
C577 C576 1.396 . S
C577 C578 1.394 . S
C578 C548 1.723 . S
C578 C574 1.397 . S
C578 C577 1.394 . S
C579 H551 0.982 . S
C579 H555 0.979 . S
C579 H556 0.977 . S
C579 C576 1.453 . S
C580 H552 0.979 . S
C580 H553 0.980 . S
C580 H554 0.983 . S
C580 C576 1.684 . S
H581 C599 0.948 . S
H582 C540 0.948 . S
H583 C558 0.979 . S
H584 C558 0.980 . S
H585 C558 0.983 . S
H586 C557 0.982 . S
H587 C557 0.979 . S
H588 C557 0.977 . S
H589 C559 0.948 . S
H590 C561 0.947 . S
H591 C562 0.948 . S
H592 C568 0.982 . S
H593 C568 0.979 . S
H594 C568 0.977 . S
H595 C569 0.979 . S
H596 C569 0.980 . S
H597 C569 0.983 . S
H598 C542 0.947 . S
C599 C542 1.392 . S
C599 C543 1.419 . S
C599 H581 0.948 . S
C600 C601 1.391 . S
C600 C604 1.391 . S
C600 H642 0.948 . S
C601 C600 1.391 . S
C601 C602 1.391 . S
C602 C601 1.391 . S
C602 H658 0.947 . S
C602 C659 1.392 . S
C603 C604 1.391 . S
C603 C607 1.397 . S
C603 C659 1.419 . S
C604 C600 1.391 . S
C604 C603 1.391 . S
C604 C605 1.399 . S
C605 C604 1.399 . S
C605 C608 1.396 . S
C605 C617 1.453 . S
C605 C618 1.684 . S
H606 C630 0.948 . S
C607 C603 1.397 . S
C607 C608 1.394 . S
C607 C626 1.723 . S
C608 C605 1.396 . S
C608 C607 1.394 . S
C608 C638 1.723 . S
H609 C632 0.947 . S
H610 C633 0.948 . S
H611 C639 0.982 . S
H612 C640 0.979 . S
H613 C640 0.980 . S
H614 C640 0.983 . S
H615 C639 0.979 . S
H616 C639 0.977 . S
C617 C605 1.453 . S
C617 H646 0.982 . S
C617 H647 0.979 . S
C617 H648 0.977 . S
C618 C605 1.684 . S
C618 H643 0.979 . S
C618 H644 0.980 . S
C618 H645 0.983 . S
C619 C620 1.391 . S
C619 C624 1.391 . S
C619 H649 0.948 . S
C620 C619 1.391 . S
C620 C621 1.391 . S
C621 C620 1.391 . S
C621 C622 1.392 . S
C621 H650 0.947 . S
C622 C621 1.392 . S
C622 C623 1.419 . S
C622 H651 0.948 . S
C623 C622 1.419 . S
C623 C624 1.391 . S
C623 C627 1.397 . S
C624 C619 1.391 . S
C624 C623 1.391 . S
C624 C625 1.399 . S
C625 C624 1.399 . S
C625 C626 1.396 . S
C625 C628 1.453 . S
C625 C629 1.684 . S
C626 C607 1.723 . S
C626 C625 1.396 . S
C626 C627 1.394 . S
C627 C623 1.397 . S
C627 C626 1.394 . S
C627 C637 1.723 . S
C628 C625 1.453 . S
C628 H652 0.982 . S
C628 H653 0.979 . S
C628 H654 0.977 . S
C629 C625 1.684 . S
C629 H655 0.979 . S
C629 H656 0.980 . S
C629 H657 0.983 . S
C630 H606 0.948 . S
C630 C631 1.391 . S
C630 C635 1.391 . S
C631 C630 1.391 . S
C631 C632 1.391 . S
C632 H609 0.947 . S
C632 C631 1.391 . S
C632 C633 1.392 . S
C633 H610 0.948 . S
C633 C632 1.392 . S
C633 C634 1.419 . S
C634 C633 1.419 . S
C634 C635 1.391 . S
C634 C638 1.397 . S
C635 C630 1.391 . S
C635 C634 1.391 . S
C635 C636 1.399 . S
C636 C635 1.399 . S
C636 C637 1.396 . S
C636 C639 1.453 . S
C636 C640 1.684 . S
C637 C627 1.723 . S
C637 C636 1.396 . S
C637 C638 1.394 . S
C638 C608 1.723 . S
C638 C634 1.397 . S
C638 C637 1.394 . S
C639 H611 0.982 . S
C639 H615 0.979 . S
C639 H616 0.977 . S
C639 C636 1.453 . S
C640 H612 0.979 . S
C640 H613 0.980 . S
C640 H614 0.983 . S
C640 C636 1.684 . S
H641 C659 0.948 . S
H642 C600 0.948 . S
H643 C618 0.979 . S
H644 C618 0.980 . S
H645 C618 0.983 . S
H646 C617 0.982 . S
H647 C617 0.979 . S
H648 C617 0.977 . S
H649 C619 0.948 . S
H650 C621 0.947 . S
H651 C622 0.948 . S
H652 C628 0.982 . S
H653 C628 0.979 . S
H654 C628 0.977 . S
H655 C629 0.979 . S
H656 C629 0.980 . S
H657 C629 0.983 . S
H658 C602 0.947 . S
C659 C602 1.392 . S
C659 C603 1.419 . S
C659 H641 0.948 . S
C660 C661 1.391 . S
C660 C664 1.391 . S
C660 H702 0.948 . S
C661 C660 1.391 . S
C661 C662 1.391 . S
C662 C661 1.391 . S
C662 H718 0.947 . S
C662 C719 1.392 . S
C663 C664 1.391 . S
C663 C667 1.397 . S
C663 C719 1.419 . S
C664 C660 1.391 . S
C664 C663 1.391 . S
C664 C665 1.399 . S
C665 C664 1.399 . S
C665 C668 1.396 . S
C665 C677 1.453 . S
C665 C678 1.684 . S
H666 C690 0.948 . S
C667 C663 1.397 . S
C667 C668 1.394 . S
C667 C686 1.723 . S
C668 C665 1.396 . S
C668 C667 1.394 . S
C668 C698 1.723 . S
H669 C692 0.947 . S
H670 C693 0.948 . S
H671 C699 0.982 . S
H672 C700 0.979 . S
H673 C700 0.980 . S
H674 C700 0.983 . S
H675 C699 0.979 . S
H676 C699 0.977 . S
C677 C665 1.453 . S
C677 H706 0.982 . S
C677 H707 0.979 . S
C677 H708 0.977 . S
C678 C665 1.684 . S
C678 H703 0.979 . S
C678 H704 0.980 . S
C678 H705 0.983 . S
C679 C680 1.391 . S
C679 C684 1.391 . S
C679 H709 0.948 . S
C680 C679 1.391 . S
C680 C681 1.391 . S
C681 C680 1.391 . S
C681 C682 1.392 . S
C681 H710 0.947 . S
C682 C681 1.392 . S
C682 C683 1.419 . S
C682 H711 0.948 . S
C683 C682 1.419 . S
C683 C684 1.391 . S
C683 C687 1.397 . S
C684 C679 1.391 . S
C684 C683 1.391 . S
C684 C685 1.399 . S
C685 C684 1.399 . S
C685 C686 1.396 . S
C685 C688 1.453 . S
C685 C689 1.684 . S
C686 C667 1.723 . S
C686 C685 1.396 . S
C686 C687 1.394 . S
C687 C683 1.397 . S
C687 C686 1.394 . S
C687 C697 1.723 . S
C688 C685 1.453 . S
C688 H712 0.982 . S
C688 H713 0.979 . S
C688 H714 0.977 . S
C689 C685 1.684 . S
C689 H715 0.979 . S
C689 H716 0.980 . S
C689 H717 0.983 . S
C690 H666 0.948 . S
C690 C691 1.391 . S
C690 C695 1.391 . S
C691 C690 1.391 . S
C691 C692 1.391 . S
C692 H669 0.947 . S
C692 C691 1.391 . S
C692 C693 1.392 . S
C693 H670 0.948 . S
C693 C692 1.392 . S
C693 C694 1.419 . S
C694 C693 1.419 . S
C694 C695 1.391 . S
C694 C698 1.397 . S
C695 C690 1.391 . S
C695 C694 1.391 . S
C695 C696 1.399 . S
C696 C695 1.399 . S
C696 C697 1.396 . S
C696 C699 1.453 . S
C696 C700 1.684 . S
C697 C687 1.723 . S
C697 C696 1.396 . S
C697 C698 1.394 . S
C698 C668 1.723 . S
C698 C694 1.397 . S
C698 C697 1.394 . S
C699 H671 0.982 . S
C699 H675 0.979 . S
C699 H676 0.977 . S
C699 C696 1.453 . S
C700 H672 0.979 . S
C700 H673 0.980 . S
C700 H674 0.983 . S
C700 C696 1.684 . S
H701 C719 0.948 . S
H702 C660 0.948 . S
H703 C678 0.979 . S
H704 C678 0.980 . S
H705 C678 0.983 . S
H706 C677 0.982 . S
H707 C677 0.979 . S
H708 C677 0.977 . S
H709 C679 0.948 . S
H710 C681 0.947 . S
H711 C682 0.948 . S
H712 C688 0.982 . S
H713 C688 0.979 . S
H714 C688 0.977 . S
H715 C689 0.979 . S
H716 C689 0.980 . S
H717 C689 0.983 . S
H718 C662 0.947 . S
C719 C662 1.392 . S
C719 C663 1.419 . S
C719 H701 0.948 . S
C720 C721 1.391 . S
C720 C724 1.391 . S
C720 H762 0.948 . S
C721 C720 1.391 . S
C721 C722 1.391 . S
C722 C721 1.391 . S
C722 H778 0.947 . S
C722 C779 1.392 . S
C723 C724 1.391 . S
C723 C727 1.397 . S
C723 C779 1.419 . S
C724 C720 1.391 . S
C724 C723 1.391 . S
C724 C725 1.399 . S
C725 C724 1.399 . S
C725 C728 1.396 . S
C725 C737 1.453 . S
C725 C738 1.684 . S
H726 C750 0.948 . S
C727 C723 1.397 . S
C727 C728 1.394 . S
C727 C746 1.723 . S
C728 C725 1.396 . S
C728 C727 1.394 . S
C728 C758 1.723 . S
H729 C752 0.947 . S
H730 C753 0.948 . S
H731 C759 0.982 . S
H732 C760 0.979 . S
H733 C760 0.980 . S
H734 C760 0.983 . S
H735 C759 0.979 . S
H736 C759 0.977 . S
C737 C725 1.453 . S
C737 H766 0.982 . S
C737 H767 0.979 . S
C737 H768 0.977 . S
C738 C725 1.684 . S
C738 H763 0.979 . S
C738 H764 0.980 . S
C738 H765 0.983 . S
C739 C740 1.391 . S
C739 C744 1.391 . S
C739 H769 0.948 . S
C740 C739 1.391 . S
C740 C741 1.391 . S
C741 C740 1.391 . S
C741 C742 1.392 . S
C741 H770 0.947 . S
C742 C741 1.392 . S
C742 C743 1.419 . S
C742 H771 0.948 . S
C743 C742 1.419 . S
C743 C744 1.391 . S
C743 C747 1.397 . S
C744 C739 1.391 . S
C744 C743 1.391 . S
C744 C745 1.399 . S
C745 C744 1.399 . S
C745 C746 1.396 . S
C745 C748 1.453 . S
C745 C749 1.684 . S
C746 C727 1.723 . S
C746 C745 1.396 . S
C746 C747 1.394 . S
C747 C743 1.397 . S
C747 C746 1.394 . S
C747 C757 1.723 . S
C748 C745 1.453 . S
C748 H772 0.982 . S
C748 H773 0.979 . S
C748 H774 0.977 . S
C749 C745 1.684 . S
C749 H775 0.979 . S
C749 H776 0.980 . S
C749 H777 0.983 . S
C750 H726 0.948 . S
C750 C751 1.391 . S
C750 C755 1.391 . S
C751 C750 1.391 . S
C751 C752 1.391 . S
C752 H729 0.947 . S
C752 C751 1.391 . S
C752 C753 1.392 . S
C753 H730 0.948 . S
C753 C752 1.392 . S
C753 C754 1.419 . S
C754 C753 1.419 . S
C754 C755 1.391 . S
C754 C758 1.397 . S
C755 C750 1.391 . S
C755 C754 1.391 . S
C755 C756 1.399 . S
C756 C755 1.399 . S
C756 C757 1.396 . S
C756 C759 1.453 . S
C756 C760 1.684 . S
C757 C747 1.723 . S
C757 C756 1.396 . S
C757 C758 1.394 . S
C758 C728 1.723 . S
C758 C754 1.397 . S
C758 C757 1.394 . S
C759 H731 0.982 . S
C759 H735 0.979 . S
C759 H736 0.977 . S
C759 C756 1.453 . S
C760 H732 0.979 . S
C760 H733 0.980 . S
C760 H734 0.983 . S
C760 C756 1.684 . S
H761 C779 0.948 . S
H762 C720 0.948 . S
H763 C738 0.979 . S
H764 C738 0.980 . S
H765 C738 0.983 . S
H766 C737 0.982 . S
H767 C737 0.979 . S
H768 C737 0.977 . S
H769 C739 0.948 . S
H770 C741 0.947 . S
H771 C742 0.948 . S
H772 C748 0.982 . S
H773 C748 0.979 . S
H774 C748 0.977 . S
H775 C749 0.979 . S
H776 C749 0.980 . S
H777 C749 0.983 . S
H778 C722 0.947 . S
C779 C722 1.392 . S
C779 C723 1.419 . S
C779 H761 0.948 . S
C780 C781 1.391 . S
C780 C784 1.391 . S
C780 H822 0.948 . S
C781 C780 1.391 . S
C781 C782 1.391 . S
C782 C781 1.391 . S
C782 H838 0.947 . S
C782 C839 1.392 . S
C783 C784 1.391 . S
C783 C787 1.397 . S
C783 C839 1.419 . S
C784 C780 1.391 . S
C784 C783 1.391 . S
C784 C785 1.399 . S
C785 C784 1.399 . S
C785 C788 1.396 . S
C785 C797 1.453 . S
C785 C798 1.684 . S
H786 C810 0.948 . S
C787 C783 1.397 . S
C787 C788 1.394 . S
C787 C806 1.723 . S
C788 C785 1.396 . S
C788 C787 1.394 . S
C788 C818 1.723 . S
H789 C812 0.947 . S
H790 C813 0.948 . S
H791 C819 0.982 . S
H792 C820 0.979 . S
H793 C820 0.980 . S
H794 C820 0.983 . S
H795 C819 0.979 . S
H796 C819 0.977 . S
C797 C785 1.453 . S
C797 H826 0.982 . S
C797 H827 0.979 . S
C797 H828 0.977 . S
C798 C785 1.684 . S
C798 H823 0.979 . S
C798 H824 0.980 . S
C798 H825 0.983 . S
C799 C800 1.391 . S
C799 C804 1.391 . S
C799 H829 0.948 . S
C800 C799 1.391 . S
C800 C801 1.391 . S
C801 C800 1.391 . S
C801 C802 1.392 . S
C801 H830 0.947 . S
C802 C801 1.392 . S
C802 C803 1.419 . S
C802 H831 0.948 . S
C803 C802 1.419 . S
C803 C804 1.391 . S
C803 C807 1.397 . S
C804 C799 1.391 . S
C804 C803 1.391 . S
C804 C805 1.399 . S
C805 C804 1.399 . S
C805 C806 1.396 . S
C805 C808 1.453 . S
C805 C809 1.684 . S
C806 C787 1.723 . S
C806 C805 1.396 . S
C806 C807 1.394 . S
C807 C803 1.397 . S
C807 C806 1.394 . S
C807 C817 1.723 . S
C808 C805 1.453 . S
C808 H832 0.982 . S
C808 H833 0.979 . S
C808 H834 0.977 . S
C809 C805 1.684 . S
C809 H835 0.979 . S
C809 H836 0.980 . S
C809 H837 0.983 . S
C810 H786 0.948 . S
C810 C811 1.391 . S
C810 C815 1.391 . S
C811 C810 1.391 . S
C811 C812 1.391 . S
C812 H789 0.947 . S
C812 C811 1.391 . S
C812 C813 1.392 . S
C813 H790 0.948 . S
C813 C812 1.392 . S
C813 C814 1.419 . S
C814 C813 1.419 . S
C814 C815 1.391 . S
C814 C818 1.397 . S
C815 C810 1.391 . S
C815 C814 1.391 . S
C815 C816 1.399 . S
C816 C815 1.399 . S
C816 C817 1.396 . S
C816 C819 1.453 . S
C816 C820 1.684 . S
C817 C807 1.723 . S
C817 C816 1.396 . S
C817 C818 1.394 . S
C818 C788 1.723 . S
C818 C814 1.397 . S
C818 C817 1.394 . S
C819 H791 0.982 . S
C819 H795 0.979 . S
C819 H796 0.977 . S
C819 C816 1.453 . S
C820 H792 0.979 . S
C820 H793 0.980 . S
C820 H794 0.983 . S
C820 C816 1.684 . S
H821 C839 0.948 . S
H822 C780 0.948 . S
H823 C798 0.979 . S
H824 C798 0.980 . S
H825 C798 0.983 . S
H826 C797 0.982 . S
H827 C797 0.979 . S
H828 C797 0.977 . S
H829 C799 0.948 . S
H830 C801 0.947 . S
H831 C802 0.948 . S
H832 C808 0.982 . S
H833 C808 0.979 . S
H834 C808 0.977 . S
H835 C809 0.979 . S
H836 C809 0.980 . S
H837 C809 0.983 . S
H838 C782 0.947 . S
C839 C782 1.392 . S
C839 C783 1.419 . S
C839 H821 0.948 . S
C840 C841 1.391 . S
C840 C844 1.391 . S
C840 H882 0.948 . S
C841 C840 1.391 . S
C841 C842 1.391 . S
C842 C841 1.391 . S
C842 H898 0.947 . S
C842 C899 1.392 . S
C843 C844 1.391 . S
C843 C847 1.397 . S
C843 C899 1.419 . S
C844 C840 1.391 . S
C844 C843 1.391 . S
C844 C845 1.399 . S
C845 C844 1.399 . S
C845 C848 1.396 . S
C845 C857 1.453 . S
C845 C858 1.684 . S
H846 C870 0.948 . S
C847 C843 1.397 . S
C847 C848 1.394 . S
C847 C866 1.723 . S
C848 C845 1.396 . S
C848 C847 1.394 . S
C848 C878 1.723 . S
H849 C872 0.947 . S
H850 C873 0.948 . S
H851 C879 0.982 . S
H852 C880 0.979 . S
H853 C880 0.980 . S
H854 C880 0.983 . S
H855 C879 0.979 . S
H856 C879 0.977 . S
C857 C845 1.453 . S
C857 H886 0.982 . S
C857 H887 0.979 . S
C857 H888 0.977 . S
C858 C845 1.684 . S
C858 H883 0.979 . S
C858 H884 0.980 . S
C858 H885 0.983 . S
C859 C860 1.391 . S
C859 C864 1.391 . S
C859 H889 0.948 . S
C860 C859 1.391 . S
C860 C861 1.391 . S
C861 C860 1.391 . S
C861 C862 1.392 . S
C861 H890 0.947 . S
C862 C861 1.392 . S
C862 C863 1.419 . S
C862 H891 0.948 . S
C863 C862 1.419 . S
C863 C864 1.391 . S
C863 C867 1.397 . S
C864 C859 1.391 . S
C864 C863 1.391 . S
C864 C865 1.399 . S
C865 C864 1.399 . S
C865 C866 1.396 . S
C865 C868 1.453 . S
C865 C869 1.684 . S
C866 C847 1.723 . S
C866 C865 1.396 . S
C866 C867 1.394 . S
C867 C863 1.397 . S
C867 C866 1.394 . S
C867 C877 1.723 . S
C868 C865 1.453 . S
C868 H892 0.982 . S
C868 H893 0.979 . S
C868 H894 0.977 . S
C869 C865 1.684 . S
C869 H895 0.979 . S
C869 H896 0.980 . S
C869 H897 0.983 . S
C870 H846 0.948 . S
C870 C871 1.391 . S
C870 C875 1.391 . S
C871 C870 1.391 . S
C871 C872 1.391 . S
C872 H849 0.947 . S
C872 C871 1.391 . S
C872 C873 1.392 . S
C873 H850 0.948 . S
C873 C872 1.392 . S
C873 C874 1.419 . S
C874 C873 1.419 . S
C874 C875 1.391 . S
C874 C878 1.397 . S
C875 C870 1.391 . S
C875 C874 1.391 . S
C875 C876 1.399 . S
C876 C875 1.399 . S
C876 C877 1.396 . S
C876 C879 1.453 . S
C876 C880 1.684 . S
C877 C867 1.723 . S
C877 C876 1.396 . S
C877 C878 1.394 . S
C878 C848 1.723 . S
C878 C874 1.397 . S
C878 C877 1.394 . S
C879 H851 0.982 . S
C879 H855 0.979 . S
C879 H856 0.977 . S
C879 C876 1.453 . S
C880 H852 0.979 . S
C880 H853 0.980 . S
C880 H854 0.983 . S
C880 C876 1.684 . S
H881 C899 0.948 . S
H882 C840 0.948 . S
H883 C858 0.979 . S
H884 C858 0.980 . S
H885 C858 0.983 . S
H886 C857 0.982 . S
H887 C857 0.979 . S
H888 C857 0.977 . S
H889 C859 0.948 . S
H890 C861 0.947 . S
H891 C862 0.948 . S
H892 C868 0.982 . S
H893 C868 0.979 . S
H894 C868 0.977 . S
H895 C869 0.979 . S
H896 C869 0.980 . S
H897 C869 0.983 . S
H898 C842 0.947 . S
C899 C842 1.392 . S
C899 C843 1.419 . S
C899 H881 0.948 . S
C900 C901 1.391 . S
C900 C904 1.391 . S
C900 H942 0.948 . S
C901 C900 1.391 . S
C901 C902 1.391 . S
C902 C901 1.391 . S
C902 H958 0.947 . S
C902 C959 1.392 . S
C903 C904 1.391 . S
C903 C907 1.397 . S
C903 C959 1.419 . S
C904 C900 1.391 . S
C904 C903 1.391 . S
C904 C905 1.399 . S
C905 C904 1.399 . S
C905 C908 1.396 . S
C905 C917 1.453 . S
C905 C918 1.684 . S
H906 C930 0.948 . S
C907 C903 1.397 . S
C907 C908 1.394 . S
C907 C926 1.723 . S
C908 C905 1.396 . S
C908 C907 1.394 . S
C908 C938 1.723 . S
H909 C932 0.947 . S
H910 C933 0.948 . S
H911 C939 0.982 . S
H912 C940 0.979 . S
H913 C940 0.980 . S
H914 C940 0.983 . S
H915 C939 0.979 . S
H916 C939 0.977 . S
C917 C905 1.453 . S
C917 H946 0.982 . S
C917 H947 0.979 . S
C917 H948 0.977 . S
C918 C905 1.684 . S
C918 H943 0.979 . S
C918 H944 0.980 . S
C918 H945 0.983 . S
C919 C920 1.391 . S
C919 C924 1.391 . S
C919 H949 0.948 . S
C920 C919 1.391 . S
C920 C921 1.391 . S
C921 C920 1.391 . S
C921 C922 1.392 . S
C921 H950 0.947 . S
C922 C921 1.392 . S
C922 C923 1.419 . S
C922 H951 0.948 . S
C923 C922 1.419 . S
C923 C924 1.391 . S
C923 C927 1.397 . S
C924 C919 1.391 . S
C924 C923 1.391 . S
C924 C925 1.399 . S
C925 C924 1.399 . S
C925 C926 1.396 . S
C925 C928 1.453 . S
C925 C929 1.684 . S
C926 C907 1.723 . S
C926 C925 1.396 . S
C926 C927 1.394 . S
C927 C923 1.397 . S
C927 C926 1.394 . S
C927 C937 1.723 . S
C928 C925 1.453 . S
C928 H952 0.982 . S
C928 H953 0.979 . S
C928 H954 0.977 . S
C929 C925 1.684 . S
C929 H955 0.979 . S
C929 H956 0.980 . S
C929 H957 0.983 . S
C930 H906 0.948 . S
C930 C931 1.391 . S
C930 C935 1.391 . S
C931 C930 1.391 . S
C931 C932 1.391 . S
C932 H909 0.947 . S
C932 C931 1.391 . S
C932 C933 1.392 . S
C933 H910 0.948 . S
C933 C932 1.392 . S
C933 C934 1.419 . S
C934 C933 1.419 . S
C934 C935 1.391 . S
C934 C938 1.397 . S
C935 C930 1.391 . S
C935 C934 1.391 . S
C935 C936 1.399 . S
C936 C935 1.399 . S
C936 C937 1.396 . S
C936 C939 1.453 . S
C936 C940 1.684 . S
C937 C927 1.723 . S
C937 C936 1.396 . S
C937 C938 1.394 . S
C938 C908 1.723 . S
C938 C934 1.397 . S
C938 C937 1.394 . S
C939 H911 0.982 . S
C939 H915 0.979 . S
C939 H916 0.977 . S
C939 C936 1.453 . S
C940 H912 0.979 . S
C940 H913 0.980 . S
C940 H914 0.983 . S
C940 C936 1.684 . S
H941 C959 0.948 . S
H942 C900 0.948 . S
H943 C918 0.979 . S
H944 C918 0.980 . S
H945 C918 0.983 . S
H946 C917 0.982 . S
H947 C917 0.979 . S
H948 C917 0.977 . S
H949 C919 0.948 . S
H950 C921 0.947 . S
H951 C922 0.948 . S
H952 C928 0.982 . S
H953 C928 0.979 . S
H954 C928 0.977 . S
H955 C929 0.979 . S
H956 C929 0.980 . S
H957 C929 0.983 . S
H958 C902 0.947 . S
C959 C902 1.392 . S
C959 C903 1.419 . S
C959 H941 0.948 . S
C960 C961 1.391 . S
C960 C964 1.391 . S
C960 H1002 0.948 . S
C961 C960 1.391 . S
C961 C962 1.391 . S
C962 C961 1.391 . S
C962 H1018 0.947 . S
C962 C1019 1.392 . S
C963 C964 1.391 . S
C963 C967 1.397 . S
C963 C1019 1.419 . S
C964 C960 1.391 . S
C964 C963 1.391 . S
C964 C965 1.399 . S
C965 C964 1.399 . S
C965 C968 1.396 . S
C965 C977 1.453 . S
C965 C978 1.684 . S
H966 C990 0.948 . S
C967 C963 1.397 . S
C967 C968 1.394 . S
C967 C986 1.723 . S
C968 C965 1.396 . S
C968 C967 1.394 . S
C968 C998 1.723 . S
H969 C992 0.947 . S
H970 C993 0.948 . S
H971 C999 0.982 . S
H972 C1000 0.979 . S
H973 C1000 0.980 . S
H974 C1000 0.983 . S
H975 C999 0.979 . S
H976 C999 0.977 . S
C977 C965 1.453 . S
C977 H1006 0.982 . S
C977 H1007 0.979 . S
C977 H1008 0.977 . S
C978 C965 1.684 . S
C978 H1003 0.979 . S
C978 H1004 0.980 . S
C978 H1005 0.983 . S
C979 C980 1.391 . S
C979 C984 1.391 . S
C979 H1009 0.948 . S
C980 C979 1.391 . S
C980 C981 1.391 . S
C981 C980 1.391 . S
C981 C982 1.392 . S
C981 H1010 0.947 . S
C982 C981 1.392 . S
C982 C983 1.419 . S
C982 H1011 0.948 . S
C983 C982 1.419 . S
C983 C984 1.391 . S
C983 C987 1.397 . S
C984 C979 1.391 . S
C984 C983 1.391 . S
C984 C985 1.399 . S
C985 C984 1.399 . S
C985 C986 1.396 . S
C985 C988 1.453 . S
C985 C989 1.684 . S
C986 C967 1.723 . S
C986 C985 1.396 . S
C986 C987 1.394 . S
C987 C983 1.397 . S
C987 C986 1.394 . S
C987 C997 1.723 . S
C988 C985 1.453 . S
C988 H1012 0.982 . S
C988 H1013 0.979 . S
C988 H1014 0.977 . S
C989 C985 1.684 . S
C989 H1015 0.979 . S
C989 H1016 0.980 . S
C989 H1017 0.983 . S
C990 H966 0.948 . S
C990 C991 1.391 . S
C990 C995 1.391 . S
C991 C990 1.391 . S
C991 C992 1.391 . S
C992 H969 0.947 . S
C992 C991 1.391 . S
C992 C993 1.392 . S
C993 H970 0.948 . S
C993 C992 1.392 . S
C993 C994 1.419 . S
C994 C993 1.419 . S
C994 C995 1.391 . S
C994 C998 1.397 . S
C995 C990 1.391 . S
C995 C994 1.391 . S
C995 C996 1.399 . S
C996 C995 1.399 . S
C996 C997 1.396 . S
C996 C999 1.453 . S
C996 C1000 1.684 . S
C997 C987 1.723 . S
C997 C996 1.396 . S
C997 C998 1.394 . S
C998 C968 1.723 . S
C998 C994 1.397 . S
C998 C997 1.394 . S
C999 H971 0.982 . S
C999 H975 0.979 . S
C999 H976 0.977 . S
C999 C996 1.453 . S
C1000 H972 0.979 . S
C1000 H973 0.980 . S
C1000 H974 0.983 . S
C1000 C996 1.684 . S
H1001 C1019 0.948 . S
H1002 C960 0.948 . S
H1003 C978 0.979 . S
H1004 C978 0.980 . S
H1005 C978 0.983 . S
H1006 C977 0.982 . S
H1007 C977 0.979 . S
H1008 C977 0.977 . S
H1009 C979 0.948 . S
H1010 C981 0.947 . S
H1011 C982 0.948 . S
H1012 C988 0.982 . S
H1013 C988 0.979 . S
H1014 C988 0.977 . S
H1015 C989 0.979 . S
H1016 C989 0.980 . S
H1017 C989 0.983 . S
H1018 C962 0.947 . S
C1019 C962 1.392 . S
C1019 C963 1.419 . S
C1019 H1001 0.948 . S
C1020 C1021 1.391 . S
C1020 C1024 1.391 . S
C1020 H1062 0.948 . S
C1021 C1020 1.391 . S
C1021 C1022 1.391 . S
C1022 C1021 1.391 . S
C1022 H1078 0.947 . S
C1022 C1079 1.392 . S
C1023 C1024 1.391 . S
C1023 C1027 1.397 . S
C1023 C1079 1.419 . S
C1024 C1020 1.391 . S
C1024 C1023 1.391 . S
C1024 C1025 1.399 . S
C1025 C1024 1.399 . S
C1025 C1028 1.396 . S
C1025 C1037 1.453 . S
C1025 C1038 1.684 . S
H1026 C1050 0.948 . S
C1027 C1023 1.397 . S
C1027 C1028 1.394 . S
C1027 C1046 1.723 . S
C1028 C1025 1.396 . S
C1028 C1027 1.394 . S
C1028 C1058 1.723 . S
H1029 C1052 0.947 . S
H1030 C1053 0.948 . S
H1031 C1059 0.982 . S
H1032 C1060 0.979 . S
H1033 C1060 0.980 . S
H1034 C1060 0.983 . S
H1035 C1059 0.979 . S
H1036 C1059 0.977 . S
C1037 C1025 1.453 . S
C1037 H1066 0.982 . S
C1037 H1067 0.979 . S
C1037 H1068 0.977 . S
C1038 C1025 1.684 . S
C1038 H1063 0.979 . S
C1038 H1064 0.980 . S
C1038 H1065 0.983 . S
C1039 C1040 1.391 . S
C1039 C1044 1.391 . S
C1039 H1069 0.948 . S
C1040 C1039 1.391 . S
C1040 C1041 1.391 . S
C1041 C1040 1.391 . S
C1041 C1042 1.392 . S
C1041 H1070 0.947 . S
C1042 C1041 1.392 . S
C1042 C1043 1.419 . S
C1042 H1071 0.948 . S
C1043 C1042 1.419 . S
C1043 C1044 1.391 . S
C1043 C1047 1.397 . S
C1044 C1039 1.391 . S
C1044 C1043 1.391 . S
C1044 C1045 1.399 . S
C1045 C1044 1.399 . S
C1045 C1046 1.396 . S
C1045 C1048 1.453 . S
C1045 C1049 1.684 . S
C1046 C1027 1.723 . S
C1046 C1045 1.396 . S
C1046 C1047 1.394 . S
C1047 C1043 1.397 . S
C1047 C1046 1.394 . S
C1047 C1057 1.723 . S
C1048 C1045 1.453 . S
C1048 H1072 0.982 . S
C1048 H1073 0.979 . S
C1048 H1074 0.977 . S
C1049 C1045 1.684 . S
C1049 H1075 0.979 . S
C1049 H1076 0.980 . S
C1049 H1077 0.983 . S
C1050 H1026 0.948 . S
C1050 C1051 1.391 . S
C1050 C1055 1.391 . S
C1051 C1050 1.391 . S
C1051 C1052 1.391 . S
C1052 H1029 0.947 . S
C1052 C1051 1.391 . S
C1052 C1053 1.392 . S
C1053 H1030 0.948 . S
C1053 C1052 1.392 . S
C1053 C1054 1.419 . S
C1054 C1053 1.419 . S
C1054 C1055 1.391 . S
C1054 C1058 1.397 . S
C1055 C1050 1.391 . S
C1055 C1054 1.391 . S
C1055 C1056 1.399 . S
C1056 C1055 1.399 . S
C1056 C1057 1.396 . S
C1056 C1059 1.453 . S
C1056 C1060 1.684 . S
C1057 C1047 1.723 . S
C1057 C1056 1.396 . S
C1057 C1058 1.394 . S
C1058 C1028 1.723 . S
C1058 C1054 1.397 . S
C1058 C1057 1.394 . S
C1059 H1031 0.982 . S
C1059 H1035 0.979 . S
C1059 H1036 0.977 . S
C1059 C1056 1.453 . S
C1060 H1032 0.979 . S
C1060 H1033 0.980 . S
C1060 H1034 0.983 . S
C1060 C1056 1.684 . S
H1061 C1079 0.948 . S
H1062 C1020 0.948 . S
H1063 C1038 0.979 . S
H1064 C1038 0.980 . S
H1065 C1038 0.983 . S
H1066 C1037 0.982 . S
H1067 C1037 0.979 . S
H1068 C1037 0.977 . S
H1069 C1039 0.948 . S
H1070 C1041 0.947 . S
H1071 C1042 0.948 . S
H1072 C1048 0.982 . S
H1073 C1048 0.979 . S
H1074 C1048 0.977 . S
H1075 C1049 0.979 . S
H1076 C1049 0.980 . S
H1077 C1049 0.983 . S
H1078 C1022 0.947 . S
C1079 C1022 1.392 . S
C1079 C1023 1.419 . S
C1079 H1061 0.948 . S
Tb1080 N1111 2.660 . S
Tb1080 N1118 2.600 . S
Tb1080 O1124 2.546 . S
Tb1080 O1125 2.610 1_565 S
Tb1080 O1127 2.320 1_565 S
Tb1080 O1128 2.552 1_565 S
Tb1080 O1129 2.413 . S
Tb1080 O1131 2.362 1_556 S
Tb1080 O1132 2.421 . S
Tb1080 C1144 2.833 . S
C1081 C1084 1.432 . S
C1081 C1085 1.414 . S
C1081 N1088 1.359 . S
C1082 C1084 1.417 . S
C1082 C1086 1.432 . S
C1082 C1094 1.410 . S
C1083 C1085 1.444 . S
C1083 C1086 1.317 . S
C1083 H1106 0.929 . S
C1084 C1081 1.432 . S
C1084 C1082 1.417 . S
C1084 N1092 1.360 . S
C1085 C1081 1.414 . S
C1085 C1083 1.444 . S
C1085 C1090 1.385 . S
C1086 C1082 1.432 . S
C1086 C1083 1.317 . S
C1086 H1098 0.930 . S
C1087 C1089 1.392 . S
C1087 C1090 1.370 . S
C1087 H1099 0.931 . S
N1088 C1081 1.359 . S
N1088 C1089 1.327 . S
N1088 Tb1091 2.600 . S
C1089 C1087 1.392 . S
C1089 N1088 1.327 . S
C1089 H1096 0.930 . S
C1090 C1085 1.385 . S
C1090 C1087 1.370 . S
C1090 H1109 0.930 . S
Tb1091 N1088 2.600 . S
Tb1091 N1092 2.660 . S
Tb1091 O1125 2.362 1_554 S
Tb1091 O1126 2.421 . S
Tb1091 O1130 2.546 . S
Tb1091 O1131 2.610 1_545 S
Tb1091 O1133 2.320 1_545 S
Tb1091 O1134 2.552 1_545 S
Tb1091 O1135 2.413 . S
Tb1091 C1155 2.833 . S
N1092 C1084 1.360 . S
N1092 Tb1091 2.660 . S
N1092 C1093 1.305 . S
C1093 N1092 1.305 . S
C1093 C1095 1.407 . S
C1093 H1100 0.930 . S
C1094 C1082 1.410 . S
C1094 C1095 1.345 . S
C1094 H1102 0.930 . S
C1095 C1093 1.407 . S
C1095 C1094 1.345 . S
C1095 H1097 0.930 . S
H1096 C1089 0.930 . S
H1097 C1095 0.930 . S
H1098 C1086 0.930 . S
H1099 C1087 0.931 . S
H1100 C1093 0.930 . S
H1101 C1115 0.930 . S
H1102 C1094 0.930 . S
H1103 C1121 0.930 . S
H1104 C1112 0.930 . S
H1105 C1119 0.931 . S
H1106 C1083 0.929 . S
H1107 C1113 0.930 . S
H1108 C1146 0.930 . S
H1109 C1090 0.930 . S
H1110 C1145 0.929 . S
N1111 Tb1080 2.660 . S
N1111 C1112 1.305 . S
N1111 C1116 1.360 . S
C1112 H1104 0.930 . S
C1112 N1111 1.305 . S
C1112 C1115 1.407 . S
C1113 H1107 0.930 . S
C1113 C1114 1.410 . S
C1113 C1115 1.345 . S
C1114 C1113 1.410 . S
C1114 C1116 1.417 . S
C1114 C1146 1.432 . S
C1115 H1101 0.930 . S
C1115 C1112 1.407 . S
C1115 C1113 1.345 . S
C1116 N1111 1.360 . S
C1116 C1114 1.417 . S
C1116 C1120 1.432 . S
H1117 C1122 0.930 . S
N1118 Tb1080 2.600 . S
N1118 C1120 1.359 . S
N1118 C1121 1.327 . S
C1119 H1105 0.931 . S
C1119 C1121 1.392 . S
C1119 C1122 1.370 . S
C1120 C1116 1.432 . S
C1120 N1118 1.359 . S
C1120 C1123 1.414 . S
C1121 H1103 0.930 . S
C1121 N1118 1.327 . S
C1121 C1119 1.392 . S
C1122 H1117 0.930 . S
C1122 C1119 1.370 . S
C1122 C1123 1.385 . S
C1123 C1120 1.414 . S
C1123 C1122 1.385 . S
C1123 C1145 1.444 . S
O1124 Tb1080 2.546 . S
O1124 C1144 1.251 . S
O1125 Tb1080 2.610 1_545 S
O1125 Tb1091 2.362 1_556 S
O1125 C1136 1.283 . S
O1126 Tb1091 2.421 . S
O1126 C1143 1.262 1_554 S
O1127 Tb1080 2.320 1_545 S
O1127 C1143 1.260 . S
O1128 Tb1080 2.552 1_545 S
O1128 C1136 1.243 . S
O1129 Tb1080 2.413 . S
O1129 C1144 1.256 . S
O1130 Tb1091 2.546 . S
O1130 C1155 1.251 . S
O1131 Tb1080 2.362 1_554 S
O1131 Tb1091 2.610 1_565 S
O1131 C1147 1.283 . S
O1132 Tb1080 2.421 . S
O1132 C1154 1.262 1_556 S
O1133 Tb1091 2.320 1_565 S
O1133 C1154 1.260 . S
O1134 Tb1091 2.552 1_565 S
O1134 C1147 1.243 . S
O1135 Tb1091 2.413 . S
O1135 C1155 1.256 . S
C1136 O1125 1.283 . S
C1136 O1128 1.243 . S
C1137 C1139 1.382 1_565 S
C1137 C1141 1.393 . S
C1137 C1144 1.500 . S
C1138 C1139 1.400 . S
C1138 C1140 1.384 1_545 S
C1139 C1137 1.382 1_545 S
C1139 C1138 1.400 . S
C1139 H1156 0.930 . S
C1140 C1138 1.384 1_565 S
C1140 C1142 1.392 . S
C1140 H1157 0.931 . S
C1141 C1137 1.393 . S
C1141 C1142 1.401 . S
C1141 H1158 0.930 . S
C1142 C1140 1.392 . S
C1142 C1141 1.401 . S
C1142 H1159 0.930 . S
C1143 O1126 1.262 1_556 S
C1143 O1127 1.260 . S
C1144 Tb1080 2.833 . S
C1144 O1124 1.251 . S
C1144 O1129 1.256 . S
C1144 C1137 1.500 . S
C1145 H1110 0.929 . S
C1145 C1123 1.444 . S
C1145 C1146 1.317 . S
C1146 H1108 0.930 . S
C1146 C1114 1.432 . S
C1146 C1145 1.317 . S
C1147 O1131 1.283 . S
C1147 O1134 1.243 . S
C1148 C1149 1.382 1_545 S
C1148 C1152 1.393 . S
C1148 C1155 1.500 . S
C1149 C1148 1.382 1_565 S
C1149 C1150 1.400 . S
C1149 H1160 0.930 . S
C1150 C1149 1.400 . S
C1150 C1151 1.384 1_565 S
C1151 C1150 1.384 1_545 S
C1151 C1153 1.392 . S
C1151 H1161 0.931 . S
C1152 C1148 1.393 . S
C1152 C1153 1.401 . S
C1152 H1162 0.930 . S
C1153 C1151 1.392 . S
C1153 C1152 1.401 . S
C1153 H1163 0.930 . S
C1154 O1132 1.262 1_554 S
C1154 O1133 1.260 . S
C1155 Tb1091 2.833 . S
C1155 O1130 1.251 . S
C1155 O1135 1.256 . S
C1155 C1148 1.500 . S
H1156 C1139 0.930 . S
H1157 C1140 0.931 . S
H1158 C1141 0.930 . S
H1159 C1142 0.930 . S
H1160 C1149 0.930 . S
H1161 C1151 0.931 . S
H1162 C1152 0.930 . S
H1163 C1153 0.930 . S
Tb1164 N1195 2.660 . S
Tb1164 N1202 2.600 . S
Tb1164 O1208 2.546 . S
Tb1164 O1209 2.610 1_455 S
Tb1164 O1211 2.320 1_455 S
Tb1164 O1212 2.552 1_455 S
Tb1164 O1213 2.413 . S
Tb1164 O1215 2.362 1_556 S
Tb1164 O1216 2.421 . S
Tb1164 C1228 2.833 . S
C1165 C1168 1.432 . S
C1165 C1169 1.414 . S
C1165 N1172 1.359 . S
C1166 C1168 1.417 . S
C1166 C1170 1.432 . S
C1166 C1178 1.410 . S
C1167 C1169 1.444 . S
C1167 C1170 1.317 . S
C1167 H1190 0.929 . S
C1168 C1165 1.432 . S
C1168 C1166 1.417 . S
C1168 N1176 1.360 . S
C1169 C1165 1.414 . S
C1169 C1167 1.444 . S
C1169 C1174 1.385 . S
C1170 C1166 1.432 . S
C1170 C1167 1.317 . S
C1170 H1182 0.930 . S
C1171 C1173 1.392 . S
C1171 C1174 1.370 . S
C1171 H1183 0.931 . S
N1172 C1165 1.359 . S
N1172 C1173 1.327 . S
N1172 Tb1175 2.600 . S
C1173 C1171 1.392 . S
C1173 N1172 1.327 . S
C1173 H1180 0.930 . S
C1174 C1169 1.385 . S
C1174 C1171 1.370 . S
C1174 H1193 0.930 . S
Tb1175 N1172 2.600 . S
Tb1175 N1176 2.660 . S
Tb1175 O1209 2.362 1_554 S
Tb1175 O1210 2.421 . S
Tb1175 O1214 2.546 . S
Tb1175 O1215 2.610 1_655 S
Tb1175 O1217 2.320 1_655 S
Tb1175 O1218 2.552 1_655 S
Tb1175 O1219 2.413 . S
Tb1175 C1239 2.833 . S
N1176 C1168 1.360 . S
N1176 Tb1175 2.660 . S
N1176 C1177 1.305 . S
C1177 N1176 1.305 . S
C1177 C1179 1.407 . S
C1177 H1184 0.930 . S
C1178 C1166 1.410 . S
C1178 C1179 1.345 . S
C1178 H1186 0.930 . S
C1179 C1177 1.407 . S
C1179 C1178 1.345 . S
C1179 H1181 0.930 . S
H1180 C1173 0.930 . S
H1181 C1179 0.930 . S
H1182 C1170 0.930 . S
H1183 C1171 0.931 . S
H1184 C1177 0.930 . S
H1185 C1199 0.930 . S
H1186 C1178 0.930 . S
H1187 C1205 0.930 . S
H1188 C1196 0.930 . S
H1189 C1203 0.931 . S
H1190 C1167 0.929 . S
H1191 C1197 0.930 . S
H1192 C1230 0.930 . S
H1193 C1174 0.930 . S
H1194 C1229 0.929 . S
N1195 Tb1164 2.660 . S
N1195 C1196 1.305 . S
N1195 C1200 1.360 . S
C1196 H1188 0.930 . S
C1196 N1195 1.305 . S
C1196 C1199 1.407 . S
C1197 H1191 0.930 . S
C1197 C1198 1.410 . S
C1197 C1199 1.345 . S
C1198 C1197 1.410 . S
C1198 C1200 1.417 . S
C1198 C1230 1.432 . S
C1199 H1185 0.930 . S
C1199 C1196 1.407 . S
C1199 C1197 1.345 . S
C1200 N1195 1.360 . S
C1200 C1198 1.417 . S
C1200 C1204 1.432 . S
H1201 C1206 0.930 . S
N1202 Tb1164 2.600 . S
N1202 C1204 1.359 . S
N1202 C1205 1.327 . S
C1203 H1189 0.931 . S
C1203 C1205 1.392 . S
C1203 C1206 1.370 . S
C1204 C1200 1.432 . S
C1204 N1202 1.359 . S
C1204 C1207 1.414 . S
C1205 H1187 0.930 . S
C1205 N1202 1.327 . S
C1205 C1203 1.392 . S
C1206 H1201 0.930 . S
C1206 C1203 1.370 . S
C1206 C1207 1.385 . S
C1207 C1204 1.414 . S
C1207 C1206 1.385 . S
C1207 C1229 1.444 . S
O1208 Tb1164 2.546 . S
O1208 C1228 1.251 . S
O1209 Tb1164 2.610 1_655 S
O1209 Tb1175 2.362 1_556 S
O1209 C1220 1.283 . S
O1210 Tb1175 2.421 . S
O1210 C1227 1.262 1_554 S
O1211 Tb1164 2.320 1_655 S
O1211 C1227 1.260 . S
O1212 Tb1164 2.552 1_655 S
O1212 C1220 1.243 . S
O1213 Tb1164 2.413 . S
O1213 C1228 1.256 . S
O1214 Tb1175 2.546 . S
O1214 C1239 1.251 . S
O1215 Tb1164 2.362 1_554 S
O1215 Tb1175 2.610 1_455 S
O1215 C1231 1.283 . S
O1216 Tb1164 2.421 . S
O1216 C1238 1.262 1_556 S
O1217 Tb1175 2.320 1_455 S
O1217 C1238 1.260 . S
O1218 Tb1175 2.552 1_455 S
O1218 C1231 1.243 . S
O1219 Tb1175 2.413 . S
O1219 C1239 1.256 . S
C1220 O1209 1.283 . S
C1220 O1212 1.243 . S
C1221 C1223 1.382 1_455 S
C1221 C1225 1.393 . S
C1221 C1228 1.500 . S
C1222 C1223 1.400 . S
C1222 C1224 1.384 1_655 S
C1223 C1221 1.382 1_655 S
C1223 C1222 1.400 . S
C1223 H1240 0.930 . S
C1224 C1222 1.384 1_455 S
C1224 C1226 1.392 . S
C1224 H1241 0.931 . S
C1225 C1221 1.393 . S
C1225 C1226 1.401 . S
C1225 H1242 0.930 . S
C1226 C1224 1.392 . S
C1226 C1225 1.401 . S
C1226 H1243 0.930 . S
C1227 O1210 1.262 1_556 S
C1227 O1211 1.260 . S
C1228 Tb1164 2.833 . S
C1228 O1208 1.251 . S
C1228 O1213 1.256 . S
C1228 C1221 1.500 . S
C1229 H1194 0.929 . S
C1229 C1207 1.444 . S
C1229 C1230 1.317 . S
C1230 H1192 0.930 . S
C1230 C1198 1.432 . S
C1230 C1229 1.317 . S
C1231 O1215 1.283 . S
C1231 O1218 1.243 . S
C1232 C1233 1.382 1_655 S
C1232 C1236 1.393 . S
C1232 C1239 1.500 . S
C1233 C1232 1.382 1_455 S
C1233 C1234 1.400 . S
C1233 H1244 0.930 . S
C1234 C1233 1.400 . S
C1234 C1235 1.384 1_455 S
C1235 C1234 1.384 1_655 S
C1235 C1237 1.392 . S
C1235 H1245 0.931 . S
C1236 C1232 1.393 . S
C1236 C1237 1.401 . S
C1236 H1246 0.930 . S
C1237 C1235 1.392 . S
C1237 C1236 1.401 . S
C1237 H1247 0.930 . S
C1238 O1216 1.262 1_554 S
C1238 O1217 1.260 . S
C1239 Tb1175 2.833 . S
C1239 O1214 1.251 . S
C1239 O1219 1.256 . S
C1239 C1232 1.500 . S
H1240 C1223 0.930 . S
H1241 C1224 0.931 . S
H1242 C1225 0.930 . S
H1243 C1226 0.930 . S
H1244 C1233 0.930 . S
H1245 C1235 0.931 . S
H1246 C1236 0.930 . S
H1247 C1237 0.930 . S
Tb1248 N1279 2.660 . S
Tb1248 N1286 2.600 . S
Tb1248 O1292 2.546 . S
Tb1248 O1293 2.610 . S
Tb1248 O1295 2.320 . S
Tb1248 O1296 2.552 . S
Tb1248 O1297 2.413 . S
Tb1248 O1299 2.362 1_554 S
Tb1248 O1300 2.421 . S
Tb1248 C1312 2.833 . S
C1249 C1252 1.432 . S
C1249 C1253 1.414 . S
C1249 N1256 1.359 . S
C1250 C1252 1.417 . S
C1250 C1254 1.432 . S
C1250 C1262 1.410 . S
C1251 C1253 1.444 . S
C1251 C1254 1.317 . S
C1251 H1274 0.929 . S
C1252 C1249 1.432 . S
C1252 C1250 1.417 . S
C1252 N1260 1.360 . S
C1253 C1249 1.414 . S
C1253 C1251 1.444 . S
C1253 C1258 1.385 . S
C1254 C1250 1.432 . S
C1254 C1251 1.317 . S
C1254 H1266 0.930 . S
C1255 C1257 1.392 . S
C1255 C1258 1.370 . S
C1255 H1267 0.931 . S
N1256 C1249 1.359 . S
N1256 C1257 1.327 . S
N1256 Tb1259 2.600 . S
C1257 C1255 1.392 . S
C1257 N1256 1.327 . S
C1257 H1264 0.930 . S
C1258 C1253 1.385 . S
C1258 C1255 1.370 . S
C1258 H1277 0.930 . S
Tb1259 N1256 2.600 . S
Tb1259 N1260 2.660 . S
Tb1259 O1293 2.362 1_556 S
Tb1259 O1294 2.421 . S
Tb1259 O1298 2.546 . S
Tb1259 O1299 2.610 . S
Tb1259 O1301 2.320 . S
Tb1259 O1302 2.552 . S
Tb1259 O1303 2.413 . S
Tb1259 C1323 2.833 . S
N1260 C1252 1.360 . S
N1260 Tb1259 2.660 . S
N1260 C1261 1.305 . S
C1261 N1260 1.305 . S
C1261 C1263 1.407 . S
C1261 H1268 0.930 . S
C1262 C1250 1.410 . S
C1262 C1263 1.345 . S
C1262 H1270 0.930 . S
C1263 C1261 1.407 . S
C1263 C1262 1.345 . S
C1263 H1265 0.930 . S
H1264 C1257 0.930 . S
H1265 C1263 0.930 . S
H1266 C1254 0.930 . S
H1267 C1255 0.931 . S
H1268 C1261 0.930 . S
H1269 C1283 0.930 . S
H1270 C1262 0.930 . S
H1271 C1289 0.930 . S
H1272 C1280 0.930 . S
H1273 C1287 0.931 . S
H1274 C1251 0.929 . S
H1275 C1281 0.930 . S
H1276 C1314 0.930 . S
H1277 C1258 0.930 . S
H1278 C1313 0.929 . S
N1279 Tb1248 2.660 . S
N1279 C1280 1.305 . S
N1279 C1284 1.360 . S
C1280 H1272 0.930 . S
C1280 N1279 1.305 . S
C1280 C1283 1.407 . S
C1281 H1275 0.930 . S
C1281 C1282 1.410 . S
C1281 C1283 1.345 . S
C1282 C1281 1.410 . S
C1282 C1284 1.417 . S
C1282 C1314 1.432 . S
C1283 H1269 0.930 . S
C1283 C1280 1.407 . S
C1283 C1281 1.345 . S
C1284 N1279 1.360 . S
C1284 C1282 1.417 . S
C1284 C1288 1.432 . S
H1285 C1290 0.930 . S
N1286 Tb1248 2.600 . S
N1286 C1288 1.359 . S
N1286 C1289 1.327 . S
C1287 H1273 0.931 . S
C1287 C1289 1.392 . S
C1287 C1290 1.370 . S
C1288 C1284 1.432 . S
C1288 N1286 1.359 . S
C1288 C1291 1.414 . S
C1289 H1271 0.930 . S
C1289 N1286 1.327 . S
C1289 C1287 1.392 . S
C1290 H1285 0.930 . S
C1290 C1287 1.370 . S
C1290 C1291 1.385 . S
C1291 C1288 1.414 . S
C1291 C1290 1.385 . S
C1291 C1313 1.444 . S
O1292 Tb1248 2.546 . S
O1292 C1312 1.251 . S
O1293 Tb1248 2.610 . S
O1293 Tb1259 2.362 1_554 S
O1293 C1304 1.283 . S
O1294 Tb1259 2.421 . S
O1294 C1311 1.262 1_556 S
O1295 Tb1248 2.320 . S
O1295 C1311 1.260 . S
O1296 Tb1248 2.552 . S
O1296 C1304 1.243 . S
O1297 Tb1248 2.413 . S
O1297 C1312 1.256 . S
O1298 Tb1259 2.546 . S
O1298 C1323 1.251 . S
O1299 Tb1248 2.362 1_556 S
O1299 Tb1259 2.610 . S
O1299 C1315 1.283 . S
O1300 Tb1248 2.421 . S
O1300 C1322 1.262 1_554 S
O1301 Tb1259 2.320 . S
O1301 C1322 1.260 . S
O1302 Tb1259 2.552 . S
O1302 C1315 1.243 . S
O1303 Tb1259 2.413 . S
O1303 C1323 1.256 . S
C1304 O1293 1.283 . S
C1304 O1296 1.243 . S
C1305 C1307 1.382 . S
C1305 C1309 1.393 . S
C1305 C1312 1.500 . S
C1306 C1307 1.400 . S
C1306 C1308 1.384 . S
C1307 C1305 1.382 . S
C1307 C1306 1.400 . S
C1307 H1324 0.930 . S
C1308 C1306 1.384 . S
C1308 C1310 1.392 . S
C1308 H1325 0.931 . S
C1309 C1305 1.393 . S
C1309 C1310 1.401 . S
C1309 H1326 0.930 . S
C1310 C1308 1.392 . S
C1310 C1309 1.401 . S
C1310 H1327 0.930 . S
C1311 O1294 1.262 1_554 S
C1311 O1295 1.260 . S
C1312 Tb1248 2.833 . S
C1312 O1292 1.251 . S
C1312 O1297 1.256 . S
C1312 C1305 1.500 . S
C1313 H1278 0.929 . S
C1313 C1291 1.444 . S
C1313 C1314 1.317 . S
C1314 H1276 0.930 . S
C1314 C1282 1.432 . S
C1314 C1313 1.317 . S
C1315 O1299 1.283 . S
C1315 O1302 1.243 . S
C1316 C1317 1.382 . S
C1316 C1320 1.393 . S
C1316 C1323 1.500 . S
C1317 C1316 1.382 . S
C1317 C1318 1.400 . S
C1317 H1328 0.930 . S
C1318 C1317 1.400 . S
C1318 C1319 1.384 . S
C1319 C1318 1.384 . S
C1319 C1321 1.392 . S
C1319 H1329 0.931 . S
C1320 C1316 1.393 . S
C1320 C1321 1.401 . S
C1320 H1330 0.930 . S
C1321 C1319 1.392 . S
C1321 C1320 1.401 . S
C1321 H1331 0.930 . S
C1322 O1300 1.262 1_556 S
C1322 O1301 1.260 . S
C1323 Tb1259 2.833 . S
C1323 O1298 1.251 . S
C1323 O1303 1.256 . S
C1323 C1316 1.500 . S
H1324 C1307 0.930 . S
H1325 C1308 0.931 . S
H1326 C1309 0.930 . S
H1327 C1310 0.930 . S
H1328 C1317 0.930 . S
H1329 C1319 0.931 . S
H1330 C1320 0.930 . S
H1331 C1321 0.930 . S
Tb1332 N1363 2.660 . S
Tb1332 N1370 2.600 . S
Tb1332 O1376 2.546 . S
Tb1332 O1377 2.610 . S
Tb1332 O1379 2.320 . S
Tb1332 O1380 2.552 . S
Tb1332 O1381 2.413 . S
Tb1332 O1383 2.362 . S
Tb1332 O1384 2.421 . S
Tb1332 C1396 2.833 . S
C1333 C1336 1.432 . S
C1333 C1337 1.414 . S
C1333 N1340 1.359 . S
C1334 C1336 1.417 . S
C1334 C1338 1.432 . S
C1334 C1346 1.410 . S
C1335 C1337 1.444 . S
C1335 C1338 1.317 . S
C1335 H1358 0.929 . S
C1336 C1333 1.432 . S
C1336 C1334 1.417 . S
C1336 N1344 1.360 . S
C1337 C1333 1.414 . S
C1337 C1335 1.444 . S
C1337 C1342 1.385 . S
C1338 C1334 1.432 . S
C1338 C1335 1.317 . S
C1338 H1350 0.930 . S
C1339 C1341 1.392 . S
C1339 C1342 1.370 . S
C1339 H1351 0.931 . S
N1340 C1333 1.359 . S
N1340 C1341 1.327 . S
N1340 Tb1343 2.600 . S
C1341 C1339 1.392 . S
C1341 N1340 1.327 . S
C1341 H1348 0.930 . S
C1342 C1337 1.385 . S
C1342 C1339 1.370 . S
C1342 H1361 0.930 . S
Tb1343 N1340 2.600 . S
Tb1343 N1344 2.660 . S
Tb1343 O1377 2.362 . S
Tb1343 O1378 2.421 . S
Tb1343 O1382 2.546 . S
Tb1343 O1383 2.610 . S
Tb1343 O1385 2.320 . S
Tb1343 O1386 2.552 . S
Tb1343 O1387 2.413 . S
Tb1343 C1407 2.833 . S
N1344 C1336 1.360 . S
N1344 Tb1343 2.660 . S
N1344 C1345 1.305 . S
C1345 N1344 1.305 . S
C1345 C1347 1.407 . S
C1345 H1352 0.930 . S
C1346 C1334 1.410 . S
C1346 C1347 1.345 . S
C1346 H1354 0.930 . S
C1347 C1345 1.407 . S
C1347 C1346 1.345 . S
C1347 H1349 0.930 . S
H1348 C1341 0.930 . S
H1349 C1347 0.930 . S
H1350 C1338 0.930 . S
H1351 C1339 0.931 . S
H1352 C1345 0.930 . S
H1353 C1367 0.930 . S
H1354 C1346 0.930 . S
H1355 C1373 0.930 . S
H1356 C1364 0.930 . S
H1357 C1371 0.931 . S
H1358 C1335 0.929 . S
H1359 C1365 0.930 . S
H1360 C1398 0.930 . S
H1361 C1342 0.930 . S
H1362 C1397 0.929 . S
N1363 Tb1332 2.660 . S
N1363 C1364 1.305 . S
N1363 C1368 1.360 . S
C1364 H1356 0.930 . S
C1364 N1363 1.305 . S
C1364 C1367 1.407 . S
C1365 H1359 0.930 . S
C1365 C1366 1.410 . S
C1365 C1367 1.345 . S
C1366 C1365 1.410 . S
C1366 C1368 1.417 . S
C1366 C1398 1.432 . S
C1367 H1353 0.930 . S
C1367 C1364 1.407 . S
C1367 C1365 1.345 . S
C1368 N1363 1.360 . S
C1368 C1366 1.417 . S
C1368 C1372 1.432 . S
H1369 C1374 0.930 . S
N1370 Tb1332 2.600 . S
N1370 C1372 1.359 . S
N1370 C1373 1.327 . S
C1371 H1357 0.931 . S
C1371 C1373 1.392 . S
C1371 C1374 1.370 . S
C1372 C1368 1.432 . S
C1372 N1370 1.359 . S
C1372 C1375 1.414 . S
C1373 H1355 0.930 . S
C1373 N1370 1.327 . S
C1373 C1371 1.392 . S
C1374 H1369 0.930 . S
C1374 C1371 1.370 . S
C1374 C1375 1.385 . S
C1375 C1372 1.414 . S
C1375 C1374 1.385 . S
C1375 C1397 1.444 . S
O1376 Tb1332 2.546 . S
O1376 C1396 1.251 . S
O1377 Tb1332 2.610 . S
O1377 Tb1343 2.362 . S
O1377 C1388 1.283 . S
O1378 Tb1343 2.421 . S
O1378 C1395 1.262 . S
O1379 Tb1332 2.320 . S
O1379 C1395 1.260 . S
O1380 Tb1332 2.552 . S
O1380 C1388 1.243 . S
O1381 Tb1332 2.413 . S
O1381 C1396 1.256 . S
O1382 Tb1343 2.546 . S
O1382 C1407 1.251 . S
O1383 Tb1332 2.362 . S
O1383 Tb1343 2.610 . S
O1383 C1399 1.283 . S
O1384 Tb1332 2.421 . S
O1384 C1406 1.262 . S
O1385 Tb1343 2.320 . S
O1385 C1406 1.260 . S
O1386 Tb1343 2.552 . S
O1386 C1399 1.243 . S
O1387 Tb1343 2.413 . S
O1387 C1407 1.256 . S
C1388 O1377 1.283 . S
C1388 O1380 1.243 . S
C1389 C1391 1.382 . S
C1389 C1393 1.393 . S
C1389 C1396 1.500 . S
C1390 C1391 1.400 . S
C1390 C1392 1.384 . S
C1391 C1389 1.382 . S
C1391 C1390 1.400 . S
C1391 H1408 0.930 . S
C1392 C1390 1.384 . S
C1392 C1394 1.392 . S
C1392 H1409 0.931 . S
C1393 C1389 1.393 . S
C1393 C1394 1.401 . S
C1393 H1410 0.930 . S
C1394 C1392 1.392 . S
C1394 C1393 1.401 . S
C1394 H1411 0.930 . S
C1395 O1378 1.262 . S
C1395 O1379 1.260 . S
C1396 Tb1332 2.833 . S
C1396 O1376 1.251 . S
C1396 O1381 1.256 . S
C1396 C1389 1.500 . S
C1397 H1362 0.929 . S
C1397 C1375 1.444 . S
C1397 C1398 1.317 . S
C1398 H1360 0.930 . S
C1398 C1366 1.432 . S
C1398 C1397 1.317 . S
C1399 O1383 1.283 . S
C1399 O1386 1.243 . S
C1400 C1401 1.382 . S
C1400 C1404 1.393 . S
C1400 C1407 1.500 . S
C1401 C1400 1.382 . S
C1401 C1402 1.400 . S
C1401 H1412 0.930 . S
C1402 C1401 1.400 . S
C1402 C1403 1.384 . S
C1403 C1402 1.384 . S
C1403 C1405 1.392 . S
C1403 H1413 0.931 . S
C1404 C1400 1.393 . S
C1404 C1405 1.401 . S
C1404 H1414 0.930 . S
C1405 C1403 1.392 . S
C1405 C1404 1.401 . S
C1405 H1415 0.930 . S
C1406 O1384 1.262 . S
C1406 O1385 1.260 . S
C1407 Tb1343 2.833 . S
C1407 O1382 1.251 . S
C1407 O1387 1.256 . S
C1407 C1400 1.500 . S
H1408 C1391 0.930 . S
H1409 C1392 0.931 . S
H1410 C1393 0.930 . S
H1411 C1394 0.930 . S
H1412 C1401 0.930 . S
H1413 C1403 0.931 . S
H1414 C1404 0.930 . S
H1415 C1405 0.930 . S
Tb1416 N1447 2.660 . S
Tb1416 N1454 2.600 . S
Tb1416 O1460 2.546 . S
Tb1416 O1461 2.610 . S
Tb1416 O1463 2.320 . S
Tb1416 O1464 2.552 . S
Tb1416 O1465 2.413 . S
Tb1416 O1467 2.362 . S
Tb1416 O1468 2.421 . S
Tb1416 C1480 2.833 . S
C1417 C1420 1.432 . S
C1417 C1421 1.414 . S
C1417 N1424 1.359 . S
C1418 C1420 1.417 . S
C1418 C1422 1.432 . S
C1418 C1430 1.410 . S
C1419 C1421 1.444 . S
C1419 C1422 1.317 . S
C1419 H1442 0.929 . S
C1420 C1417 1.432 . S
C1420 C1418 1.417 . S
C1420 N1428 1.360 . S
C1421 C1417 1.414 . S
C1421 C1419 1.444 . S
C1421 C1426 1.385 . S
C1422 C1418 1.432 . S
C1422 C1419 1.317 . S
C1422 H1434 0.930 . S
C1423 C1425 1.392 . S
C1423 C1426 1.370 . S
C1423 H1435 0.931 . S
N1424 C1417 1.359 . S
N1424 C1425 1.327 . S
N1424 Tb1427 2.600 . S
C1425 C1423 1.392 . S
C1425 N1424 1.327 . S
C1425 H1432 0.930 . S
C1426 C1421 1.385 . S
C1426 C1423 1.370 . S
C1426 H1445 0.930 . S
Tb1427 N1424 2.600 . S
Tb1427 N1428 2.660 . S
Tb1427 O1461 2.362 . S
Tb1427 O1462 2.421 . S
Tb1427 O1466 2.546 . S
Tb1427 O1467 2.610 . S
Tb1427 O1469 2.320 . S
Tb1427 O1470 2.552 . S
Tb1427 O1471 2.413 . S
Tb1427 C1491 2.833 . S
N1428 C1420 1.360 . S
N1428 Tb1427 2.660 . S
N1428 C1429 1.305 . S
C1429 N1428 1.305 . S
C1429 C1431 1.407 . S
C1429 H1436 0.930 . S
C1430 C1418 1.410 . S
C1430 C1431 1.345 . S
C1430 H1438 0.930 . S
C1431 C1429 1.407 . S
C1431 C1430 1.345 . S
C1431 H1433 0.930 . S
H1432 C1425 0.930 . S
H1433 C1431 0.930 . S
H1434 C1422 0.930 . S
H1435 C1423 0.931 . S
H1436 C1429 0.930 . S
H1437 C1451 0.930 . S
H1438 C1430 0.930 . S
H1439 C1457 0.930 . S
H1440 C1448 0.930 . S
H1441 C1455 0.931 . S
H1442 C1419 0.929 . S
H1443 C1449 0.930 . S
H1444 C1482 0.930 . S
H1445 C1426 0.930 . S
H1446 C1481 0.929 . S
N1447 Tb1416 2.660 . S
N1447 C1448 1.305 . S
N1447 C1452 1.360 . S
C1448 H1440 0.930 . S
C1448 N1447 1.305 . S
C1448 C1451 1.407 . S
C1449 H1443 0.930 . S
C1449 C1450 1.410 . S
C1449 C1451 1.345 . S
C1450 C1449 1.410 . S
C1450 C1452 1.417 . S
C1450 C1482 1.432 . S
C1451 H1437 0.930 . S
C1451 C1448 1.407 . S
C1451 C1449 1.345 . S
C1452 N1447 1.360 . S
C1452 C1450 1.417 . S
C1452 C1456 1.432 . S
H1453 C1458 0.930 . S
N1454 Tb1416 2.600 . S
N1454 C1456 1.359 . S
N1454 C1457 1.327 . S
C1455 H1441 0.931 . S
C1455 C1457 1.392 . S
C1455 C1458 1.370 . S
C1456 C1452 1.432 . S
C1456 N1454 1.359 . S
C1456 C1459 1.414 . S
C1457 H1439 0.930 . S
C1457 N1454 1.327 . S
C1457 C1455 1.392 . S
C1458 H1453 0.930 . S
C1458 C1455 1.370 . S
C1458 C1459 1.385 . S
C1459 C1456 1.414 . S
C1459 C1458 1.385 . S
C1459 C1481 1.444 . S
O1460 Tb1416 2.546 . S
O1460 C1480 1.251 . S
O1461 Tb1416 2.610 . S
O1461 Tb1427 2.362 . S
O1461 C1472 1.283 . S
O1462 Tb1427 2.421 . S
O1462 C1479 1.262 . S
O1463 Tb1416 2.320 . S
O1463 C1479 1.260 . S
O1464 Tb1416 2.552 . S
O1464 C1472 1.243 . S
O1465 Tb1416 2.413 . S
O1465 C1480 1.256 . S
O1466 Tb1427 2.546 . S
O1466 C1491 1.251 . S
O1467 Tb1416 2.362 . S
O1467 Tb1427 2.610 . S
O1467 C1483 1.283 . S
O1468 Tb1416 2.421 . S
O1468 C1490 1.262 . S
O1469 Tb1427 2.320 . S
O1469 C1490 1.260 . S
O1470 Tb1427 2.552 . S
O1470 C1483 1.243 . S
O1471 Tb1427 2.413 . S
O1471 C1491 1.256 . S
C1472 O1461 1.283 . S
C1472 O1464 1.243 . S
C1473 C1475 1.382 . S
C1473 C1477 1.393 . S
C1473 C1480 1.500 . S
C1474 C1475 1.400 . S
C1474 C1476 1.384 . S
C1475 C1473 1.382 . S
C1475 C1474 1.400 . S
C1475 H1492 0.930 . S
C1476 C1474 1.384 . S
C1476 C1478 1.392 . S
C1476 H1493 0.931 . S
C1477 C1473 1.393 . S
C1477 C1478 1.401 . S
C1477 H1494 0.930 . S
C1478 C1476 1.392 . S
C1478 C1477 1.401 . S
C1478 H1495 0.930 . S
C1479 O1462 1.262 . S
C1479 O1463 1.260 . S
C1480 Tb1416 2.833 . S
C1480 O1460 1.251 . S
C1480 O1465 1.256 . S
C1480 C1473 1.500 . S
C1481 H1446 0.929 . S
C1481 C1459 1.444 . S
C1481 C1482 1.317 . S
C1482 H1444 0.930 . S
C1482 C1450 1.432 . S
C1482 C1481 1.317 . S
C1483 O1467 1.283 . S
C1483 O1470 1.243 . S
C1484 C1485 1.382 . S
C1484 C1488 1.393 . S
C1484 C1491 1.500 . S
C1485 C1484 1.382 . S
C1485 C1486 1.400 . S
C1485 H1496 0.930 . S
C1486 C1485 1.400 . S
C1486 C1487 1.384 . S
C1487 C1486 1.384 . S
C1487 C1489 1.392 . S
C1487 H1497 0.931 . S
C1488 C1484 1.393 . S
C1488 C1489 1.401 . S
C1488 H1498 0.930 . S
C1489 C1487 1.392 . S
C1489 C1488 1.401 . S
C1489 H1499 0.930 . S
C1490 O1468 1.262 . S
C1490 O1469 1.260 . S
C1491 Tb1427 2.833 . S
C1491 O1466 1.251 . S
C1491 O1471 1.256 . S
C1491 C1484 1.500 . S
H1492 C1475 0.930 . S
H1493 C1476 0.931 . S
H1494 C1477 0.930 . S
H1495 C1478 0.930 . S
H1496 C1485 0.930 . S
H1497 C1487 0.931 . S
H1498 C1488 0.930 . S
H1499 C1489 0.930 . S
Tb1500 N1531 2.660 . S
Tb1500 N1538 2.600 . S
Tb1500 O1544 2.546 . S
Tb1500 O1545 2.610 . S
Tb1500 O1547 2.320 . S
Tb1500 O1548 2.552 . S
Tb1500 O1549 2.413 . S
Tb1500 O1551 2.362 . S
Tb1500 O1552 2.421 . S
Tb1500 C1564 2.833 . S
C1501 C1504 1.432 . S
C1501 C1505 1.414 . S
C1501 N1508 1.359 . S
C1502 C1504 1.417 . S
C1502 C1506 1.432 . S
C1502 C1514 1.410 . S
C1503 C1505 1.444 . S
C1503 C1506 1.317 . S
C1503 H1526 0.929 . S
C1504 C1501 1.432 . S
C1504 C1502 1.417 . S
C1504 N1512 1.360 . S
C1505 C1501 1.414 . S
C1505 C1503 1.444 . S
C1505 C1510 1.385 . S
C1506 C1502 1.432 . S
C1506 C1503 1.317 . S
C1506 H1518 0.930 . S
C1507 C1509 1.392 . S
C1507 C1510 1.370 . S
C1507 H1519 0.931 . S
N1508 C1501 1.359 . S
N1508 C1509 1.327 . S
N1508 Tb1511 2.600 . S
C1509 C1507 1.392 . S
C1509 N1508 1.327 . S
C1509 H1516 0.930 . S
C1510 C1505 1.385 . S
C1510 C1507 1.370 . S
C1510 H1529 0.930 . S
Tb1511 N1508 2.600 . S
Tb1511 N1512 2.660 . S
Tb1511 O1545 2.362 . S
Tb1511 O1546 2.421 . S
Tb1511 O1550 2.546 . S
Tb1511 O1551 2.610 . S
Tb1511 O1553 2.320 . S
Tb1511 O1554 2.552 . S
Tb1511 O1555 2.413 . S
Tb1511 C1575 2.833 . S
N1512 C1504 1.360 . S
N1512 Tb1511 2.660 . S
N1512 C1513 1.305 . S
C1513 N1512 1.305 . S
C1513 C1515 1.407 . S
C1513 H1520 0.930 . S
C1514 C1502 1.410 . S
C1514 C1515 1.345 . S
C1514 H1522 0.930 . S
C1515 C1513 1.407 . S
C1515 C1514 1.345 . S
C1515 H1517 0.930 . S
H1516 C1509 0.930 . S
H1517 C1515 0.930 . S
H1518 C1506 0.930 . S
H1519 C1507 0.931 . S
H1520 C1513 0.930 . S
H1521 C1535 0.930 . S
H1522 C1514 0.930 . S
H1523 C1541 0.930 . S
H1524 C1532 0.930 . S
H1525 C1539 0.931 . S
H1526 C1503 0.929 . S
H1527 C1533 0.930 . S
H1528 C1566 0.930 . S
H1529 C1510 0.930 . S
H1530 C1565 0.929 . S
N1531 Tb1500 2.660 . S
N1531 C1532 1.305 . S
N1531 C1536 1.360 . S
C1532 H1524 0.930 . S
C1532 N1531 1.305 . S
C1532 C1535 1.407 . S
C1533 H1527 0.930 . S
C1533 C1534 1.410 . S
C1533 C1535 1.345 . S
C1534 C1533 1.410 . S
C1534 C1536 1.417 . S
C1534 C1566 1.432 . S
C1535 H1521 0.930 . S
C1535 C1532 1.407 . S
C1535 C1533 1.345 . S
C1536 N1531 1.360 . S
C1536 C1534 1.417 . S
C1536 C1540 1.432 . S
H1537 C1542 0.930 . S
N1538 Tb1500 2.600 . S
N1538 C1540 1.359 . S
N1538 C1541 1.327 . S
C1539 H1525 0.931 . S
C1539 C1541 1.392 . S
C1539 C1542 1.370 . S
C1540 C1536 1.432 . S
C1540 N1538 1.359 . S
C1540 C1543 1.414 . S
C1541 H1523 0.930 . S
C1541 N1538 1.327 . S
C1541 C1539 1.392 . S
C1542 H1537 0.930 . S
C1542 C1539 1.370 . S
C1542 C1543 1.385 . S
C1543 C1540 1.414 . S
C1543 C1542 1.385 . S
C1543 C1565 1.444 . S
O1544 Tb1500 2.546 . S
O1544 C1564 1.251 . S
O1545 Tb1500 2.610 . S
O1545 Tb1511 2.362 . S
O1545 C1556 1.283 . S
O1546 Tb1511 2.421 . S
O1546 C1563 1.262 . S
O1547 Tb1500 2.320 . S
O1547 C1563 1.260 . S
O1548 Tb1500 2.552 . S
O1548 C1556 1.243 . S
O1549 Tb1500 2.413 . S
O1549 C1564 1.256 . S
O1550 Tb1511 2.546 . S
O1550 C1575 1.251 . S
O1551 Tb1500 2.362 . S
O1551 Tb1511 2.610 . S
O1551 C1567 1.283 . S
O1552 Tb1500 2.421 . S
O1552 C1574 1.262 . S
O1553 Tb1511 2.320 . S
O1553 C1574 1.260 . S
O1554 Tb1511 2.552 . S
O1554 C1567 1.243 . S
O1555 Tb1511 2.413 . S
O1555 C1575 1.256 . S
C1556 O1545 1.283 . S
C1556 O1548 1.243 . S
C1557 C1559 1.382 . S
C1557 C1561 1.393 . S
C1557 C1564 1.500 . S
C1558 C1559 1.400 . S
C1558 C1560 1.384 . S
C1559 C1557 1.382 . S
C1559 C1558 1.400 . S
C1559 H1576 0.930 . S
C1560 C1558 1.384 . S
C1560 C1562 1.392 . S
C1560 H1577 0.931 . S
C1561 C1557 1.393 . S
C1561 C1562 1.401 . S
C1561 H1578 0.930 . S
C1562 C1560 1.392 . S
C1562 C1561 1.401 . S
C1562 H1579 0.930 . S
C1563 O1546 1.262 . S
C1563 O1547 1.260 . S
C1564 Tb1500 2.833 . S
C1564 O1544 1.251 . S
C1564 O1549 1.256 . S
C1564 C1557 1.500 . S
C1565 H1530 0.929 . S
C1565 C1543 1.444 . S
C1565 C1566 1.317 . S
C1566 H1528 0.930 . S
C1566 C1534 1.432 . S
C1566 C1565 1.317 . S
C1567 O1551 1.283 . S
C1567 O1554 1.243 . S
C1568 C1569 1.382 . S
C1568 C1572 1.393 . S
C1568 C1575 1.500 . S
C1569 C1568 1.382 . S
C1569 C1570 1.400 . S
C1569 H1580 0.930 . S
C1570 C1569 1.400 . S
C1570 C1571 1.384 . S
C1571 C1570 1.384 . S
C1571 C1573 1.392 . S
C1571 H1581 0.931 . S
C1572 C1568 1.393 . S
C1572 C1573 1.401 . S
C1572 H1582 0.930 . S
C1573 C1571 1.392 . S
C1573 C1572 1.401 . S
C1573 H1583 0.930 . S
C1574 O1552 1.262 . S
C1574 O1553 1.260 . S
C1575 Tb1511 2.833 . S
C1575 O1550 1.251 . S
C1575 O1555 1.256 . S
C1575 C1568 1.500 . S
H1576 C1559 0.930 . S
H1577 C1560 0.931 . S
H1578 C1561 0.930 . S
H1579 C1562 0.930 . S
H1580 C1569 0.930 . S
H1581 C1571 0.931 . S
H1582 C1572 0.930 . S
H1583 C1573 0.930 . S
Tb1584 N1615 2.660 . S
Tb1584 N1622 2.600 . S
Tb1584 O1628 2.546 . S
Tb1584 O1629 2.610 . S
Tb1584 O1631 2.320 . S
Tb1584 O1632 2.552 . S
Tb1584 O1633 2.413 . S
Tb1584 O1635 2.362 . S
Tb1584 O1636 2.421 . S
Tb1584 C1648 2.833 . S
C1585 C1588 1.432 . S
C1585 C1589 1.414 . S
C1585 N1592 1.359 . S
C1586 C1588 1.417 . S
C1586 C1590 1.432 . S
C1586 C1598 1.410 . S
C1587 C1589 1.444 . S
C1587 C1590 1.317 . S
C1587 H1610 0.929 . S
C1588 C1585 1.432 . S
C1588 C1586 1.417 . S
C1588 N1596 1.360 . S
C1589 C1585 1.414 . S
C1589 C1587 1.444 . S
C1589 C1594 1.385 . S
C1590 C1586 1.432 . S
C1590 C1587 1.317 . S
C1590 H1602 0.930 . S
C1591 C1593 1.392 . S
C1591 C1594 1.370 . S
C1591 H1603 0.931 . S
N1592 C1585 1.359 . S
N1592 C1593 1.327 . S
N1592 Tb1595 2.600 . S
C1593 C1591 1.392 . S
C1593 N1592 1.327 . S
C1593 H1600 0.930 . S
C1594 C1589 1.385 . S
C1594 C1591 1.370 . S
C1594 H1613 0.930 . S
Tb1595 N1592 2.600 . S
Tb1595 N1596 2.660 . S
Tb1595 O1629 2.362 . S
Tb1595 O1630 2.421 . S
Tb1595 O1634 2.546 . S
Tb1595 O1635 2.610 . S
Tb1595 O1637 2.320 . S
Tb1595 O1638 2.552 . S
Tb1595 O1639 2.413 . S
Tb1595 C1659 2.833 . S
N1596 C1588 1.360 . S
N1596 Tb1595 2.660 . S
N1596 C1597 1.305 . S
C1597 N1596 1.305 . S
C1597 C1599 1.407 . S
C1597 H1604 0.930 . S
C1598 C1586 1.410 . S
C1598 C1599 1.345 . S
C1598 H1606 0.930 . S
C1599 C1597 1.407 . S
C1599 C1598 1.345 . S
C1599 H1601 0.930 . S
H1600 C1593 0.930 . S
H1601 C1599 0.930 . S
H1602 C1590 0.930 . S
H1603 C1591 0.931 . S
H1604 C1597 0.930 . S
H1605 C1619 0.930 . S
H1606 C1598 0.930 . S
H1607 C1625 0.930 . S
H1608 C1616 0.930 . S
H1609 C1623 0.931 . S
H1610 C1587 0.929 . S
H1611 C1617 0.930 . S
H1612 C1650 0.930 . S
H1613 C1594 0.930 . S
H1614 C1649 0.929 . S
N1615 Tb1584 2.660 . S
N1615 C1616 1.305 . S
N1615 C1620 1.360 . S
C1616 H1608 0.930 . S
C1616 N1615 1.305 . S
C1616 C1619 1.407 . S
C1617 H1611 0.930 . S
C1617 C1618 1.410 . S
C1617 C1619 1.345 . S
C1618 C1617 1.410 . S
C1618 C1620 1.417 . S
C1618 C1650 1.432 . S
C1619 H1605 0.930 . S
C1619 C1616 1.407 . S
C1619 C1617 1.345 . S
C1620 N1615 1.360 . S
C1620 C1618 1.417 . S
C1620 C1624 1.432 . S
H1621 C1626 0.930 . S
N1622 Tb1584 2.600 . S
N1622 C1624 1.359 . S
N1622 C1625 1.327 . S
C1623 H1609 0.931 . S
C1623 C1625 1.392 . S
C1623 C1626 1.370 . S
C1624 C1620 1.432 . S
C1624 N1622 1.359 . S
C1624 C1627 1.414 . S
C1625 H1607 0.930 . S
C1625 N1622 1.327 . S
C1625 C1623 1.392 . S
C1626 H1621 0.930 . S
C1626 C1623 1.370 . S
C1626 C1627 1.385 . S
C1627 C1624 1.414 . S
C1627 C1626 1.385 . S
C1627 C1649 1.444 . S
O1628 Tb1584 2.546 . S
O1628 C1648 1.251 . S
O1629 Tb1584 2.610 . S
O1629 Tb1595 2.362 . S
O1629 C1640 1.283 . S
O1630 Tb1595 2.421 . S
O1630 C1647 1.262 . S
O1631 Tb1584 2.320 . S
O1631 C1647 1.260 . S
O1632 Tb1584 2.552 . S
O1632 C1640 1.243 . S
O1633 Tb1584 2.413 . S
O1633 C1648 1.256 . S
O1634 Tb1595 2.546 . S
O1634 C1659 1.251 . S
O1635 Tb1584 2.362 . S
O1635 Tb1595 2.610 . S
O1635 C1651 1.283 . S
O1636 Tb1584 2.421 . S
O1636 C1658 1.262 . S
O1637 Tb1595 2.320 . S
O1637 C1658 1.260 . S
O1638 Tb1595 2.552 . S
O1638 C1651 1.243 . S
O1639 Tb1595 2.413 . S
O1639 C1659 1.256 . S
C1640 O1629 1.283 . S
C1640 O1632 1.243 . S
C1641 C1643 1.382 . S
C1641 C1645 1.393 . S
C1641 C1648 1.500 . S
C1642 C1643 1.400 . S
C1642 C1644 1.384 . S
C1643 C1641 1.382 . S
C1643 C1642 1.400 . S
C1643 H1660 0.930 . S
C1644 C1642 1.384 . S
C1644 C1646 1.392 . S
C1644 H1661 0.931 . S
C1645 C1641 1.393 . S
C1645 C1646 1.401 . S
C1645 H1662 0.930 . S
C1646 C1644 1.392 . S
C1646 C1645 1.401 . S
C1646 H1663 0.930 . S
C1647 O1630 1.262 . S
C1647 O1631 1.260 . S
C1648 Tb1584 2.833 . S
C1648 O1628 1.251 . S
C1648 O1633 1.256 . S
C1648 C1641 1.500 . S
C1649 H1614 0.929 . S
C1649 C1627 1.444 . S
C1649 C1650 1.317 . S
C1650 H1612 0.930 . S
C1650 C1618 1.432 . S
C1650 C1649 1.317 . S
C1651 O1635 1.283 . S
C1651 O1638 1.243 . S
C1652 C1653 1.382 . S
C1652 C1656 1.393 . S
C1652 C1659 1.500 . S
C1653 C1652 1.382 . S
C1653 C1654 1.400 . S
C1653 H1664 0.930 . S
C1654 C1653 1.400 . S
C1654 C1655 1.384 . S
C1655 C1654 1.384 . S
C1655 C1657 1.392 . S
C1655 H1665 0.931 . S
C1656 C1652 1.393 . S
C1656 C1657 1.401 . S
C1656 H1666 0.930 . S
C1657 C1655 1.392 . S
C1657 C1656 1.401 . S
C1657 H1667 0.930 . S
C1658 O1636 1.262 . S
C1658 O1637 1.260 . S
C1659 Tb1595 2.833 . S
C1659 O1634 1.251 . S
C1659 O1639 1.256 . S
C1659 C1652 1.500 . S
H1660 C1643 0.930 . S
H1661 C1644 0.931 . S
H1662 C1645 0.930 . S
H1663 C1646 0.930 . S
H1664 C1653 0.930 . S
H1665 C1655 0.931 . S
H1666 C1656 0.930 . S
H1667 C1657 0.930 . S
Tb1668 N1699 2.660 . S
Tb1668 N1706 2.600 . S
Tb1668 O1712 2.546 . S
Tb1668 O1713 2.610 . S
Tb1668 O1715 2.320 . S
Tb1668 O1716 2.552 . S
Tb1668 O1717 2.413 . S
Tb1668 O1719 2.362 . S
Tb1668 O1720 2.421 . S
Tb1668 C1732 2.833 . S
C1669 C1672 1.432 . S
C1669 C1673 1.414 . S
C1669 N1676 1.359 . S
C1670 C1672 1.417 . S
C1670 C1674 1.432 . S
C1670 C1682 1.410 . S
C1671 C1673 1.444 . S
C1671 C1674 1.317 . S
C1671 H1694 0.929 . S
C1672 C1669 1.432 . S
C1672 C1670 1.417 . S
C1672 N1680 1.360 . S
C1673 C1669 1.414 . S
C1673 C1671 1.444 . S
C1673 C1678 1.385 . S
C1674 C1670 1.432 . S
C1674 C1671 1.317 . S
C1674 H1686 0.930 . S
C1675 C1677 1.392 . S
C1675 C1678 1.370 . S
C1675 H1687 0.931 . S
N1676 C1669 1.359 . S
N1676 C1677 1.327 . S
N1676 Tb1679 2.600 . S
C1677 C1675 1.392 . S
C1677 N1676 1.327 . S
C1677 H1684 0.930 . S
C1678 C1673 1.385 . S
C1678 C1675 1.370 . S
C1678 H1697 0.930 . S
Tb1679 N1676 2.600 . S
Tb1679 N1680 2.660 . S
Tb1679 O1713 2.362 . S
Tb1679 O1714 2.421 . S
Tb1679 O1718 2.546 . S
Tb1679 O1719 2.610 . S
Tb1679 O1721 2.320 . S
Tb1679 O1722 2.552 . S
Tb1679 O1723 2.413 . S
Tb1679 C1743 2.833 . S
N1680 C1672 1.360 . S
N1680 Tb1679 2.660 . S
N1680 C1681 1.305 . S
C1681 N1680 1.305 . S
C1681 C1683 1.407 . S
C1681 H1688 0.930 . S
C1682 C1670 1.410 . S
C1682 C1683 1.345 . S
C1682 H1690 0.930 . S
C1683 C1681 1.407 . S
C1683 C1682 1.345 . S
C1683 H1685 0.930 . S
H1684 C1677 0.930 . S
H1685 C1683 0.930 . S
H1686 C1674 0.930 . S
H1687 C1675 0.931 . S
H1688 C1681 0.930 . S
H1689 C1703 0.930 . S
H1690 C1682 0.930 . S
H1691 C1709 0.930 . S
H1692 C1700 0.930 . S
H1693 C1707 0.931 . S
H1694 C1671 0.929 . S
H1695 C1701 0.930 . S
H1696 C1734 0.930 . S
H1697 C1678 0.930 . S
H1698 C1733 0.929 . S
N1699 Tb1668 2.660 . S
N1699 C1700 1.305 . S
N1699 C1704 1.360 . S
C1700 H1692 0.930 . S
C1700 N1699 1.305 . S
C1700 C1703 1.407 . S
C1701 H1695 0.930 . S
C1701 C1702 1.410 . S
C1701 C1703 1.345 . S
C1702 C1701 1.410 . S
C1702 C1704 1.417 . S
C1702 C1734 1.432 . S
C1703 H1689 0.930 . S
C1703 C1700 1.407 . S
C1703 C1701 1.345 . S
C1704 N1699 1.360 . S
C1704 C1702 1.417 . S
C1704 C1708 1.432 . S
H1705 C1710 0.930 . S
N1706 Tb1668 2.600 . S
N1706 C1708 1.359 . S
N1706 C1709 1.327 . S
C1707 H1693 0.931 . S
C1707 C1709 1.392 . S
C1707 C1710 1.370 . S
C1708 C1704 1.432 . S
C1708 N1706 1.359 . S
C1708 C1711 1.414 . S
C1709 H1691 0.930 . S
C1709 N1706 1.327 . S
C1709 C1707 1.392 . S
C1710 H1705 0.930 . S
C1710 C1707 1.370 . S
C1710 C1711 1.385 . S
C1711 C1708 1.414 . S
C1711 C1710 1.385 . S
C1711 C1733 1.444 . S
O1712 Tb1668 2.546 . S
O1712 C1732 1.251 . S
O1713 Tb1668 2.610 . S
O1713 Tb1679 2.362 . S
O1713 C1724 1.283 . S
O1714 Tb1679 2.421 . S
O1714 C1731 1.262 . S
O1715 Tb1668 2.320 . S
O1715 C1731 1.260 . S
O1716 Tb1668 2.552 . S
O1716 C1724 1.243 . S
O1717 Tb1668 2.413 . S
O1717 C1732 1.256 . S
O1718 Tb1679 2.546 . S
O1718 C1743 1.251 . S
O1719 Tb1668 2.362 . S
O1719 Tb1679 2.610 . S
O1719 C1735 1.283 . S
O1720 Tb1668 2.421 . S
O1720 C1742 1.262 . S
O1721 Tb1679 2.320 . S
O1721 C1742 1.260 . S
O1722 Tb1679 2.552 . S
O1722 C1735 1.243 . S
O1723 Tb1679 2.413 . S
O1723 C1743 1.256 . S
C1724 O1713 1.283 . S
C1724 O1716 1.243 . S
C1725 C1727 1.382 . S
C1725 C1729 1.393 . S
C1725 C1732 1.500 . S
C1726 C1727 1.400 . S
C1726 C1728 1.384 . S
C1727 C1725 1.382 . S
C1727 C1726 1.400 . S
C1727 H1744 0.930 . S
C1728 C1726 1.384 . S
C1728 C1730 1.392 . S
C1728 H1745 0.931 . S
C1729 C1725 1.393 . S
C1729 C1730 1.401 . S
C1729 H1746 0.930 . S
C1730 C1728 1.392 . S
C1730 C1729 1.401 . S
C1730 H1747 0.930 . S
C1731 O1714 1.262 . S
C1731 O1715 1.260 . S
C1732 Tb1668 2.833 . S
C1732 O1712 1.251 . S
C1732 O1717 1.256 . S
C1732 C1725 1.500 . S
C1733 H1698 0.929 . S
C1733 C1711 1.444 . S
C1733 C1734 1.317 . S
C1734 H1696 0.930 . S
C1734 C1702 1.432 . S
C1734 C1733 1.317 . S
C1735 O1719 1.283 . S
C1735 O1722 1.243 . S
C1736 C1737 1.382 . S
C1736 C1740 1.393 . S
C1736 C1743 1.500 . S
C1737 C1736 1.382 . S
C1737 C1738 1.400 . S
C1737 H1748 0.930 . S
C1738 C1737 1.400 . S
C1738 C1739 1.384 . S
C1739 C1738 1.384 . S
C1739 C1741 1.392 . S
C1739 H1749 0.931 . S
C1740 C1736 1.393 . S
C1740 C1741 1.401 . S
C1740 H1750 0.930 . S
C1741 C1739 1.392 . S
C1741 C1740 1.401 . S
C1741 H1751 0.930 . S
C1742 O1720 1.262 . S
C1742 O1721 1.260 . S
C1743 Tb1679 2.833 . S
C1743 O1718 1.251 . S
C1743 O1723 1.256 . S
C1743 C1736 1.500 . S
H1744 C1727 0.930 . S
H1745 C1728 0.931 . S
H1746 C1729 0.930 . S
H1747 C1730 0.930 . S
H1748 C1737 0.930 . S
H1749 C1739 0.931 . S
H1750 C1740 0.930 . S
H1751 C1741 0.930 . S
Tb1752 N1783 2.660 . S
Tb1752 N1790 2.600 . S
Tb1752 O1796 2.546 . S
Tb1752 O1797 2.610 . S
Tb1752 O1799 2.320 . S
Tb1752 O1800 2.552 . S
Tb1752 O1801 2.413 . S
Tb1752 O1803 2.362 . S
Tb1752 O1804 2.421 . S
Tb1752 C1816 2.833 . S
C1753 C1756 1.432 . S
C1753 C1757 1.414 . S
C1753 N1760 1.359 . S
C1754 C1756 1.417 . S
C1754 C1758 1.432 . S
C1754 C1766 1.410 . S
C1755 C1757 1.444 . S
C1755 C1758 1.317 . S
C1755 H1778 0.929 . S
C1756 C1753 1.432 . S
C1756 C1754 1.417 . S
C1756 N1764 1.360 . S
C1757 C1753 1.414 . S
C1757 C1755 1.444 . S
C1757 C1762 1.385 . S
C1758 C1754 1.432 . S
C1758 C1755 1.317 . S
C1758 H1770 0.930 . S
C1759 C1761 1.392 . S
C1759 C1762 1.370 . S
C1759 H1771 0.931 . S
N1760 C1753 1.359 . S
N1760 C1761 1.327 . S
N1760 Tb1763 2.600 . S
C1761 C1759 1.392 . S
C1761 N1760 1.327 . S
C1761 H1768 0.930 . S
C1762 C1757 1.385 . S
C1762 C1759 1.370 . S
C1762 H1781 0.930 . S
Tb1763 N1760 2.600 . S
Tb1763 N1764 2.660 . S
Tb1763 O1797 2.362 . S
Tb1763 O1798 2.421 . S
Tb1763 O1802 2.546 . S
Tb1763 O1803 2.610 . S
Tb1763 O1805 2.320 . S
Tb1763 O1806 2.552 . S
Tb1763 O1807 2.413 . S
Tb1763 C1827 2.833 . S
N1764 C1756 1.360 . S
N1764 Tb1763 2.660 . S
N1764 C1765 1.305 . S
C1765 N1764 1.305 . S
C1765 C1767 1.407 . S
C1765 H1772 0.930 . S
C1766 C1754 1.410 . S
C1766 C1767 1.345 . S
C1766 H1774 0.930 . S
C1767 C1765 1.407 . S
C1767 C1766 1.345 . S
C1767 H1769 0.930 . S
H1768 C1761 0.930 . S
H1769 C1767 0.930 . S
H1770 C1758 0.930 . S
H1771 C1759 0.931 . S
H1772 C1765 0.930 . S
H1773 C1787 0.930 . S
H1774 C1766 0.930 . S
H1775 C1793 0.930 . S
H1776 C1784 0.930 . S
H1777 C1791 0.931 . S
H1778 C1755 0.929 . S
H1779 C1785 0.930 . S
H1780 C1818 0.930 . S
H1781 C1762 0.930 . S
H1782 C1817 0.929 . S
N1783 Tb1752 2.660 . S
N1783 C1784 1.305 . S
N1783 C1788 1.360 . S
C1784 H1776 0.930 . S
C1784 N1783 1.305 . S
C1784 C1787 1.407 . S
C1785 H1779 0.930 . S
C1785 C1786 1.410 . S
C1785 C1787 1.345 . S
C1786 C1785 1.410 . S
C1786 C1788 1.417 . S
C1786 C1818 1.432 . S
C1787 H1773 0.930 . S
C1787 C1784 1.407 . S
C1787 C1785 1.345 . S
C1788 N1783 1.360 . S
C1788 C1786 1.417 . S
C1788 C1792 1.432 . S
H1789 C1794 0.930 . S
N1790 Tb1752 2.600 . S
N1790 C1792 1.359 . S
N1790 C1793 1.327 . S
C1791 H1777 0.931 . S
C1791 C1793 1.392 . S
C1791 C1794 1.370 . S
C1792 C1788 1.432 . S
C1792 N1790 1.359 . S
C1792 C1795 1.414 . S
C1793 H1775 0.930 . S
C1793 N1790 1.327 . S
C1793 C1791 1.392 . S
C1794 H1789 0.930 . S
C1794 C1791 1.370 . S
C1794 C1795 1.385 . S
C1795 C1792 1.414 . S
C1795 C1794 1.385 . S
C1795 C1817 1.444 . S
O1796 Tb1752 2.546 . S
O1796 C1816 1.251 . S
O1797 Tb1752 2.610 . S
O1797 Tb1763 2.362 . S
O1797 C1808 1.283 . S
O1798 Tb1763 2.421 . S
O1798 C1815 1.262 . S
O1799 Tb1752 2.320 . S
O1799 C1815 1.260 . S
O1800 Tb1752 2.552 . S
O1800 C1808 1.243 . S
O1801 Tb1752 2.413 . S
O1801 C1816 1.256 . S
O1802 Tb1763 2.546 . S
O1802 C1827 1.251 . S
O1803 Tb1752 2.362 . S
O1803 Tb1763 2.610 . S
O1803 C1819 1.283 . S
O1804 Tb1752 2.421 . S
O1804 C1826 1.262 . S
O1805 Tb1763 2.320 . S
O1805 C1826 1.260 . S
O1806 Tb1763 2.552 . S
O1806 C1819 1.243 . S
O1807 Tb1763 2.413 . S
O1807 C1827 1.256 . S
C1808 O1797 1.283 . S
C1808 O1800 1.243 . S
C1809 C1811 1.382 . S
C1809 C1813 1.393 . S
C1809 C1816 1.500 . S
C1810 C1811 1.400 . S
C1810 C1812 1.384 . S
C1811 C1809 1.382 . S
C1811 C1810 1.400 . S
C1811 H1828 0.930 . S
C1812 C1810 1.384 . S
C1812 C1814 1.392 . S
C1812 H1829 0.931 . S
C1813 C1809 1.393 . S
C1813 C1814 1.401 . S
C1813 H1830 0.930 . S
C1814 C1812 1.392 . S
C1814 C1813 1.401 . S
C1814 H1831 0.930 . S
C1815 O1798 1.262 . S
C1815 O1799 1.260 . S
C1816 Tb1752 2.833 . S
C1816 O1796 1.251 . S
C1816 O1801 1.256 . S
C1816 C1809 1.500 . S
C1817 H1782 0.929 . S
C1817 C1795 1.444 . S
C1817 C1818 1.317 . S
C1818 H1780 0.930 . S
C1818 C1786 1.432 . S
C1818 C1817 1.317 . S
C1819 O1803 1.283 . S
C1819 O1806 1.243 . S
C1820 C1821 1.382 . S
C1820 C1824 1.393 . S
C1820 C1827 1.500 . S
C1821 C1820 1.382 . S
C1821 C1822 1.400 . S
C1821 H1832 0.930 . S
C1822 C1821 1.400 . S
C1822 C1823 1.384 . S
C1823 C1822 1.384 . S
C1823 C1825 1.392 . S
C1823 H1833 0.931 . S
C1824 C1820 1.393 . S
C1824 C1825 1.401 . S
C1824 H1834 0.930 . S
C1825 C1823 1.392 . S
C1825 C1824 1.401 . S
C1825 H1835 0.930 . S
C1826 O1804 1.262 . S
C1826 O1805 1.260 . S
C1827 Tb1763 2.833 . S
C1827 O1802 1.251 . S
C1827 O1807 1.256 . S
C1827 C1820 1.500 . S
H1828 C1811 0.930 . S
H1829 C1812 0.931 . S
H1830 C1813 0.930 . S
H1831 C1814 0.930 . S
H1832 C1821 0.930 . S
H1833 C1823 0.931 . S
H1834 C1824 0.930 . S
H1835 C1825 0.930 . S
H1836 C1842 0.930 . S
H1837 C1845 0.930 . S
H1838 C1846 0.930 . S
H1839 C1847 0.930 . S
H1840 C1850 0.930 . S
H1841 C1851 0.930 . S
C1842 H1836 0.930 . S
C1842 C1843 1.355 . S
C1842 C1844 1.415 . S
C1843 C1842 1.355 . S
C1843 C1845 1.419 . S
C1844 C1842 1.415 . S
C1844 C1849 1.425 . S
C1844 C1851 1.409 . S
C1845 H1837 0.930 . S
C1845 C1843 1.419 . S
C1845 C1846 1.362 . S
C1846 H1838 0.930 . S
C1846 C1845 1.362 . S
C1846 C1849 1.409 . S
C1847 H1839 0.930 . S
C1847 C1848 1.355 . S
C1847 C1849 1.415 . S
C1848 C1847 1.355 . S
C1848 C1850 1.419 . S
C1849 C1844 1.425 . S
C1849 C1846 1.409 . S
C1849 C1847 1.415 . S
C1850 H1840 0.930 . S
C1850 C1848 1.419 . S
C1850 C1851 1.362 . S
C1851 H1841 0.930 . S
C1851 C1844 1.409 . S
C1851 C1850 1.362 . S
H1852 C1858 0.930 . S
H1853 C1861 0.930 . S
H1854 C1862 0.930 . S
H1855 C1863 0.930 . S
H1856 C1866 0.930 . S
H1857 C1867 0.930 . S
C1858 H1852 0.930 . S
C1858 C1859 1.355 . S
C1858 C1860 1.415 . S
C1859 C1858 1.355 . S
C1859 C1861 1.419 . S
C1860 C1858 1.415 . S
C1860 C1865 1.425 . S
C1860 C1867 1.409 . S
C1861 H1853 0.930 . S
C1861 C1859 1.419 . S
C1861 C1862 1.362 . S
C1862 H1854 0.930 . S
C1862 C1861 1.362 . S
C1862 C1865 1.409 . S
C1863 H1855 0.930 . S
C1863 C1864 1.355 . S
C1863 C1865 1.415 . S
C1864 C1863 1.355 . S
C1864 C1866 1.419 . S
C1865 C1860 1.425 . S
C1865 C1862 1.409 . S
C1865 C1863 1.415 . S
C1866 H1856 0.930 . S
C1866 C1864 1.419 . S
C1866 C1867 1.362 . S
C1867 H1857 0.930 . S
C1867 C1860 1.409 . S
C1867 C1866 1.362 . S
H1868 C1874 0.930 . S
H1869 C1877 0.930 . S
H1870 C1878 0.930 . S
H1871 C1879 0.930 . S
H1872 C1882 0.930 . S
H1873 C1883 0.930 . S
C1874 H1868 0.930 . S
C1874 C1875 1.355 . S
C1874 C1876 1.415 . S
C1875 C1874 1.355 . S
C1875 C1877 1.419 . S
C1876 C1874 1.415 . S
C1876 C1881 1.425 . S
C1876 C1883 1.409 . S
C1877 H1869 0.930 . S
C1877 C1875 1.419 . S
C1877 C1878 1.362 . S
C1878 H1870 0.930 . S
C1878 C1877 1.362 . S
C1878 C1881 1.409 . S
C1879 H1871 0.930 . S
C1879 C1880 1.355 . S
C1879 C1881 1.415 . S
C1880 C1879 1.355 . S
C1880 C1882 1.419 . S
C1881 C1876 1.425 . S
C1881 C1878 1.409 . S
C1881 C1879 1.415 . S
C1882 H1872 0.930 . S
C1882 C1880 1.419 . S
C1882 C1883 1.362 . S
C1883 H1873 0.930 . S
C1883 C1876 1.409 . S
C1883 C1882 1.362 . S
H1884 C1890 0.930 . S
H1885 C1893 0.930 . S
H1886 C1894 0.930 . S
H1887 C1895 0.930 . S
H1888 C1898 0.925 1_554 S
H1889 C1899 0.930 . S
C1890 H1884 0.930 . S
C1890 C1891 1.355 . S
C1890 C1892 1.415 . S
C1891 C1890 1.355 . S
C1891 C1893 1.419 . S
C1892 C1890 1.415 . S
C1892 C1897 1.425 . S
C1892 C1899 1.409 . S
C1893 H1885 0.930 . S
C1893 C1891 1.419 . S
C1893 C1894 1.362 . S
C1894 H1886 0.930 . S
C1894 C1893 1.362 . S
C1894 C1897 1.409 . S
C1895 H1887 0.930 . S
C1895 C1896 1.355 . S
C1895 C1897 1.415 . S
C1896 C1895 1.355 . S
C1896 C1898 1.419 . S
C1897 C1892 1.425 . S
C1897 C1894 1.409 . S
C1897 C1895 1.415 . S
C1898 H1888 0.925 1_556 S
C1898 C1896 1.419 . S
C1898 C1899 1.362 . S
C1899 H1889 0.930 . S
C1899 C1892 1.409 . S
C1899 C1898 1.362 . S
H1900 C1906 0.930 . S
H1901 C1909 0.930 . S
H1902 C1910 0.930 . S
H1903 C1911 0.930 . S
H1904 C1914 0.930 1_554 S
H1905 C1915 0.930 1_554 S
C1906 H1900 0.930 . S
C1906 C1907 1.355 . S
C1906 C1908 1.415 . S
C1907 C1906 1.355 . S
C1907 C1909 1.419 . S
C1908 C1906 1.415 . S
C1908 C1913 1.425 . S
C1908 C1915 1.409 . S
C1909 H1901 0.930 . S
C1909 C1907 1.419 . S
C1909 C1910 1.362 . S
C1910 H1902 0.930 . S
C1910 C1909 1.362 . S
C1910 C1913 1.409 . S
C1911 H1903 0.930 . S
C1911 C1912 1.355 . S
C1911 C1913 1.415 . S
C1912 C1911 1.355 . S
C1912 C1914 1.419 . S
C1913 C1908 1.425 . S
C1913 C1910 1.409 . S
C1913 C1911 1.415 . S
C1914 H1904 0.930 1_556 S
C1914 C1912 1.419 . S
C1914 C1915 1.362 . S
C1915 H1905 0.930 1_556 S
C1915 C1908 1.409 . S
C1915 C1914 1.362 . S
H1916 C1922 0.930 . S
H1917 C1925 0.930 . S
H1918 C1926 0.930 . S
H1919 C1927 0.930 . S
H1920 C1930 0.930 1_554 S
H1921 C1931 0.930 1_554 S
C1922 H1916 0.930 . S
C1922 C1923 1.355 . S
C1922 C1924 1.415 . S
C1923 C1922 1.355 . S
C1923 C1925 1.419 . S
C1924 C1922 1.415 . S
C1924 C1929 1.425 . S
C1924 C1931 1.409 . S
C1925 H1917 0.930 . S
C1925 C1923 1.419 . S
C1925 C1926 1.362 . S
C1926 H1918 0.930 . S
C1926 C1925 1.362 . S
C1926 C1929 1.409 . S
C1927 H1919 0.930 . S
C1927 C1928 1.355 . S
C1927 C1929 1.415 . S
C1928 C1927 1.355 . S
C1928 C1930 1.419 . S
C1929 C1924 1.425 . S
C1929 C1926 1.409 . S
C1929 C1927 1.415 . S
C1930 H1920 0.930 1_556 S
C1930 C1928 1.419 . S
C1930 C1931 1.362 . S
C1931 H1921 0.930 1_556 S
C1931 C1924 1.409 . S
C1931 C1930 1.362 . S
H1932 C1938 0.930 . S
H1933 C1941 0.930 . S
H1934 C1942 0.930 . S
H1935 C1943 0.930 . S
H1936 C1946 0.930 . S
H1937 C1947 0.930 . S
C1938 H1932 0.930 . S
C1938 C1939 1.355 . S
C1938 C1940 1.415 . S
C1939 C1938 1.355 . S
C1939 C1941 1.419 . S
C1940 C1938 1.415 . S
C1940 C1945 1.425 . S
C1940 C1947 1.409 . S
C1941 H1933 0.930 . S
C1941 C1939 1.419 . S
C1941 C1942 1.362 . S
C1942 H1934 0.930 . S
C1942 C1941 1.362 . S
C1942 C1945 1.409 . S
C1943 H1935 0.930 . S
C1943 C1944 1.355 . S
C1943 C1945 1.415 . S
C1944 C1943 1.355 . S
C1944 C1946 1.419 . S
C1945 C1940 1.425 . S
C1945 C1942 1.409 . S
C1945 C1943 1.415 . S
C1946 H1936 0.930 . S
C1946 C1944 1.419 . S
C1946 C1947 1.362 . S
C1947 H1937 0.930 . S
C1947 C1940 1.409 . S
C1947 C1946 1.362 . S
H1948 C1954 0.930 . S
H1949 C1957 0.930 . S
H1950 C1958 0.930 . S
H1951 C1959 0.930 . S
H1952 C1962 0.930 . S
H1953 C1963 0.930 . S
C1954 H1948 0.930 . S
C1954 C1955 1.355 . S
C1954 C1956 1.415 . S
C1955 C1954 1.355 . S
C1955 C1957 1.419 . S
C1956 C1954 1.415 . S
C1956 C1961 1.425 . S
C1956 C1963 1.409 . S
C1957 H1949 0.930 . S
C1957 C1955 1.419 . S
C1957 C1958 1.362 . S
C1958 H1950 0.930 . S
C1958 C1957 1.362 . S
C1958 C1961 1.409 . S
C1959 H1951 0.930 . S
C1959 C1960 1.355 . S
C1959 C1961 1.415 . S
C1960 C1959 1.355 . S
C1960 C1962 1.419 . S
C1961 C1956 1.425 . S
C1961 C1958 1.409 . S
C1961 C1959 1.415 . S
C1962 H1952 0.930 . S
C1962 C1960 1.419 . S
C1962 C1963 1.362 . S
C1963 H1953 0.930 . S
C1963 C1956 1.409 . S
C1963 C1962 1.362 . S
H1964 C1970 0.930 . S
H1965 C1973 0.930 . S
H1966 C1974 0.930 . S
H1967 C1975 0.930 . S
H1968 C1978 0.930 . S
H1969 C1979 0.930 . S
C1970 H1964 0.930 . S
C1970 C1971 1.355 . S
C1970 C1972 1.415 . S
C1971 C1970 1.355 . S
C1971 C1973 1.419 . S
C1972 C1970 1.415 . S
C1972 C1977 1.425 . S
C1972 C1979 1.409 . S
C1973 H1965 0.930 . S
C1973 C1971 1.419 . S
C1973 C1974 1.362 . S
C1974 H1966 0.930 . S
C1974 C1973 1.362 . S
C1974 C1977 1.409 . S
C1975 H1967 0.930 . S
C1975 C1976 1.355 . S
C1975 C1977 1.415 . S
C1976 C1975 1.355 . S
C1976 C1978 1.419 . S
C1977 C1972 1.425 . S
C1977 C1974 1.409 . S
C1977 C1975 1.415 . S
C1978 H1968 0.930 . S
C1978 C1976 1.419 . S
C1978 C1979 1.362 . S
C1979 H1969 0.930 . S
C1979 C1972 1.409 . S
C1979 C1978 1.362 . S
H1980 C1986 0.930 . S
H1981 C1989 0.930 . S
H1982 C1990 0.930 . S
H1983 C1991 0.930 . S
H1984 C1994 0.930 . S
H1985 C1995 0.930 . S
C1986 H1980 0.930 . S
C1986 C1987 1.355 . S
C1986 C1988 1.415 . S
C1987 C1986 1.355 . S
C1987 C1989 1.419 . S
C1988 C1986 1.415 . S
C1988 C1993 1.425 . S
C1988 C1995 1.409 . S
C1989 H1981 0.930 . S
C1989 C1987 1.419 . S
C1989 C1990 1.362 . S
C1990 H1982 0.930 . S
C1990 C1989 1.362 . S
C1990 C1993 1.409 . S
C1991 H1983 0.930 . S
C1991 C1992 1.355 . S
C1991 C1993 1.415 . S
C1992 C1991 1.355 . S
C1992 C1994 1.419 . S
C1993 C1988 1.425 . S
C1993 C1990 1.409 . S
C1993 C1991 1.415 . S
C1994 H1984 0.930 . S
C1994 C1992 1.419 . S
C1994 C1995 1.362 . S
C1995 H1985 0.930 . S
C1995 C1988 1.409 . S
C1995 C1994 1.362 . S
H1996 C2002 0.930 . S
H1997 C2005 0.930 . S
H1998 C2006 0.930 . S
H1999 C2007 0.930 . S
H2000 C2010 0.930 . S
H2001 C2011 0.930 . S
C2002 H1996 0.930 . S
C2002 C2003 1.355 . S
C2002 C2004 1.415 . S
C2003 C2002 1.355 . S
C2003 C2005 1.419 . S
C2004 C2002 1.415 . S
C2004 C2009 1.425 . S
C2004 C2011 1.409 . S
C2005 H1997 0.930 . S
C2005 C2003 1.419 . S
C2005 C2006 1.362 . S
C2006 H1998 0.930 . S
C2006 C2005 1.362 . S
C2006 C2009 1.409 . S
C2007 H1999 0.930 . S
C2007 C2008 1.355 . S
C2007 C2009 1.415 . S
C2008 C2007 1.355 . S
C2008 C2010 1.419 . S
C2009 C2004 1.425 . S
C2009 C2006 1.409 . S
C2009 C2007 1.415 . S
C2010 H2000 0.930 . S
C2010 C2008 1.419 . S
C2010 C2011 1.362 . S
C2011 H2001 0.930 . S
C2011 C2004 1.409 . S
C2011 C2010 1.362 . S
H2012 C2018 0.930 . S
H2013 C2021 0.930 . S
H2014 C2022 0.930 . S
H2015 C2023 0.930 . S
H2016 C2026 0.930 . S
H2017 C2027 0.930 . S
C2018 H2012 0.930 . S
C2018 C2019 1.355 . S
C2018 C2020 1.415 . S
C2019 C2018 1.355 . S
C2019 C2021 1.419 . S
C2020 C2018 1.415 . S
C2020 C2025 1.425 . S
C2020 C2027 1.409 . S
C2021 H2013 0.930 . S
C2021 C2019 1.419 . S
C2021 C2022 1.362 . S
C2022 H2014 0.930 . S
C2022 C2021 1.362 . S
C2022 C2025 1.409 . S
C2023 H2015 0.930 . S
C2023 C2024 1.355 . S
C2023 C2025 1.415 . S
C2024 C2023 1.355 . S
C2024 C2026 1.419 . S
C2025 C2020 1.425 . S
C2025 C2022 1.409 . S
C2025 C2023 1.415 . S
C2026 H2016 0.930 . S
C2026 C2024 1.419 . S
C2026 C2027 1.362 . S
C2027 H2017 0.930 . S
C2027 C2020 1.409 . S
C2027 C2026 1.362 . S
H2028 C2034 0.930 . S
H2029 C2037 0.966 . S
H2030 C2038 0.930 . S
H2031 C2039 0.930 . S
H2032 C2042 0.930 . S
H2033 C2043 0.930 . S
C2034 H2028 0.930 . S
C2034 C2035 1.372 . S
C2034 C2036 1.415 . S
C2035 C2034 1.372 . S
C2035 C2037 1.417 1_455 S
C2036 C2034 1.415 . S
C2036 C2041 1.425 . S
C2036 C2043 1.409 . S
C2037 H2029 0.966 . S
C2037 C2035 1.417 1_655 S
C2037 C2038 1.331 1_655 S
C2038 H2030 0.930 . S
C2038 C2037 1.331 1_455 S
C2038 C2041 1.409 . S
C2039 H2031 0.930 . S
C2039 C2040 1.355 . S
C2039 C2041 1.415 . S
C2040 C2039 1.355 . S
C2040 C2042 1.419 . S
C2041 C2036 1.425 . S
C2041 C2038 1.409 . S
C2041 C2039 1.415 . S
C2042 H2032 0.930 . S
C2042 C2040 1.419 . S
C2042 C2043 1.362 . S
C2043 H2033 0.930 . S
C2043 C2036 1.409 . S
C2043 C2042 1.362 . S
H2044 C2050 0.930 . S
H2045 C2053 0.930 . S
H2046 C2054 0.930 . S
H2047 C2055 0.930 . S
H2048 C2058 0.930 . S
H2049 C2059 0.930 . S
C2050 H2044 0.930 . S
C2050 C2051 1.355 . S
C2050 C2052 1.415 . S
C2051 C2050 1.355 . S
C2051 C2053 1.419 . S
C2052 C2050 1.415 . S
C2052 C2057 1.425 . S
C2052 C2059 1.409 . S
C2053 H2045 0.930 . S
C2053 C2051 1.419 . S
C2053 C2054 1.362 . S
C2054 H2046 0.930 . S
C2054 C2053 1.362 . S
C2054 C2057 1.409 . S
C2055 H2047 0.930 . S
C2055 C2056 1.355 . S
C2055 C2057 1.415 . S
C2056 C2055 1.355 . S
C2056 C2058 1.419 . S
C2057 C2052 1.425 . S
C2057 C2054 1.409 . S
C2057 C2055 1.415 . S
C2058 H2048 0.930 . S
C2058 C2056 1.419 . S
C2058 C2059 1.362 . S
C2059 H2049 0.930 . S
C2059 C2052 1.409 . S
C2059 C2058 1.362 . S
H2060 C2066 0.930 . S
H2061 C2069 0.930 . S
H2062 C2070 0.930 . S
H2063 C2071 0.930 . S
H2064 C2074 0.930 . S
H2065 C2075 0.930 . S
C2066 H2060 0.930 . S
C2066 C2067 1.355 1_565 S
C2066 C2068 1.415 . S
C2067 C2066 1.355 1_545 S
C2067 C2069 1.419 . S
C2068 C2066 1.415 . S
C2068 C2073 1.425 . S
C2068 C2075 1.409 . S
C2069 H2061 0.930 . S
C2069 C2067 1.419 . S
C2069 C2070 1.362 1_545 S
C2070 H2062 0.930 . S
C2070 C2069 1.362 1_565 S
C2070 C2073 1.409 . S
C2071 H2063 0.930 . S
C2071 C2072 1.355 . S
C2071 C2073 1.415 . S
C2072 C2071 1.355 . S
C2072 C2074 1.419 . S
C2073 C2068 1.425 . S
C2073 C2070 1.409 . S
C2073 C2071 1.415 . S
C2074 H2064 0.930 . S
C2074 C2072 1.419 . S
C2074 C2075 1.362 . S
C2075 H2065 0.930 . S
C2075 C2068 1.409 . S
C2075 C2074 1.362 . S
H2076 C2082 0.930 . S
H2077 C2085 0.930 . S
H2078 C2086 0.930 . S
H2079 C2087 0.930 . S
H2080 C2090 0.930 . S
H2081 C2091 0.930 . S
C2082 H2076 0.930 . S
C2082 C2083 1.355 . S
C2082 C2084 1.415 . S
C2083 C2082 1.355 . S
C2083 C2085 1.419 . S
C2084 C2082 1.415 . S
C2084 C2089 1.425 . S
C2084 C2091 1.409 . S
C2085 H2077 0.930 . S
C2085 C2083 1.419 . S
C2085 C2086 1.362 . S
C2086 H2078 0.930 . S
C2086 C2085 1.362 . S
C2086 C2089 1.409 . S
C2087 H2079 0.930 . S
C2087 C2088 1.355 . S
C2087 C2089 1.415 . S
C2088 C2087 1.355 . S
C2088 C2090 1.419 . S
C2089 C2084 1.425 . S
C2089 C2086 1.409 . S
C2089 C2087 1.415 . S
C2090 H2080 0.930 . S
C2090 C2088 1.419 . S
C2090 C2091 1.362 . S
C2091 H2081 0.930 . S
C2091 C2084 1.409 . S
C2091 C2090 1.362 . S
H2092 C2098 0.930 . S
H2093 C2101 0.930 . S
H2094 C2102 0.930 . S
H2095 C2103 0.930 . S
H2096 C2106 0.930 . S
H2097 C2107 0.930 . S
C2098 H2092 0.930 . S
C2098 C2099 1.355 . S
C2098 C2100 1.415 . S
C2099 C2098 1.355 . S
C2099 C2101 1.419 . S
C2100 C2098 1.415 . S
C2100 C2105 1.425 . S
C2100 C2107 1.409 . S
C2101 H2093 0.930 . S
C2101 C2099 1.419 . S
C2101 C2102 1.362 . S
C2102 H2094 0.930 . S
C2102 C2101 1.362 . S
C2102 C2105 1.409 . S
C2103 H2095 0.930 . S
C2103 C2104 1.355 . S
C2103 C2105 1.415 . S
C2104 C2103 1.355 . S
C2104 C2106 1.419 . S
C2105 C2100 1.425 . S
C2105 C2102 1.409 . S
C2105 C2103 1.415 . S
C2106 H2096 0.930 . S
C2106 C2104 1.419 . S
C2106 C2107 1.362 . S
C2107 H2097 0.930 . S
C2107 C2100 1.409 . S
C2107 C2106 1.362 . S
H2108 C2114 0.930 . S
H2109 C2117 0.930 . S
H2110 C2118 0.930 . S
H2111 C2119 0.930 . S
H2112 C2122 0.930 . S
H2113 C2123 0.930 . S
C2114 H2108 0.930 . S
C2114 C2115 1.355 . S
C2114 C2116 1.415 . S
C2115 C2114 1.355 . S
C2115 C2117 1.419 . S
C2116 C2114 1.415 . S
C2116 C2121 1.425 . S
C2116 C2123 1.409 . S
C2117 H2109 0.930 . S
C2117 C2115 1.419 . S
C2117 C2118 1.362 . S
C2118 H2110 0.930 . S
C2118 C2117 1.362 . S
C2118 C2121 1.409 . S
C2119 H2111 0.930 . S
C2119 C2120 1.355 . S
C2119 C2121 1.415 . S
C2120 C2119 1.355 . S
C2120 C2122 1.419 . S
C2121 C2116 1.425 . S
C2121 C2118 1.409 . S
C2121 C2119 1.415 . S
C2122 H2112 0.930 . S
C2122 C2120 1.419 . S
C2122 C2123 1.362 . S
C2123 H2113 0.930 . S
C2123 C2116 1.409 . S
C2123 C2122 1.362 . S
H2124 C2130 0.930 . S
H2125 C2133 0.930 . S
H2126 C2134 0.930 . S
H2127 C2135 0.930 . S
H2128 C2138 0.930 . S
H2129 C2139 0.930 . S
C2130 H2124 0.930 . S
C2130 C2131 1.355 . S
C2130 C2132 1.415 . S
C2131 C2130 1.355 . S
C2131 C2133 1.419 . S
C2132 C2130 1.415 . S
C2132 C2137 1.425 . S
C2132 C2139 1.409 . S
C2133 H2125 0.930 . S
C2133 C2131 1.419 . S
C2133 C2134 1.362 . S
C2134 H2126 0.930 . S
C2134 C2133 1.362 . S
C2134 C2137 1.409 . S
C2135 H2127 0.930 . S
C2135 C2136 1.355 . S
C2135 C2137 1.415 . S
C2136 C2135 1.355 . S
C2136 C2138 1.419 . S
C2137 C2132 1.425 . S
C2137 C2134 1.409 . S
C2137 C2135 1.415 . S
C2138 H2128 0.930 . S
C2138 C2136 1.419 . S
C2138 C2139 1.362 . S
C2139 H2129 0.930 . S
C2139 C2132 1.409 . S
C2139 C2138 1.362 . S
H2140 C2146 0.930 . S
H2141 C2149 0.930 . S
H2142 C2150 0.930 . S
H2143 C2151 0.930 . S
H2144 C2154 0.930 . S
H2145 C2155 0.930 . S
C2146 H2140 0.930 . S
C2146 C2147 1.355 . S
C2146 C2148 1.415 . S
C2147 C2146 1.355 . S
C2147 C2149 1.419 . S
C2148 C2146 1.415 . S
C2148 C2153 1.425 . S
C2148 C2155 1.409 . S
C2149 H2141 0.930 . S
C2149 C2147 1.419 . S
C2149 C2150 1.362 . S
C2150 H2142 0.930 . S
C2150 C2149 1.362 . S
C2150 C2153 1.409 . S
C2151 H2143 0.930 . S
C2151 C2152 1.355 . S
C2151 C2153 1.415 . S
C2152 C2151 1.355 . S
C2152 C2154 1.419 . S
C2153 C2148 1.425 . S
C2153 C2150 1.409 . S
C2153 C2151 1.415 . S
C2154 H2144 0.930 . S
C2154 C2152 1.419 . S
C2154 C2155 1.362 . S
C2155 H2145 0.930 . S
C2155 C2148 1.409 . S
C2155 C2154 1.362 . S
H2156 C2162 0.930 . S
H2157 C2165 0.930 . S
H2158 C2166 0.930 . S
H2159 C2167 0.930 . S
H2160 C2170 0.930 . S
H2161 C2171 0.930 . S
C2162 H2156 0.930 . S
C2162 C2163 1.355 . S
C2162 C2164 1.415 . S
C2163 C2162 1.355 . S
C2163 C2165 1.419 . S
C2164 C2162 1.415 . S
C2164 C2169 1.425 . S
C2164 C2171 1.409 . S
C2165 H2157 0.930 . S
C2165 C2163 1.419 . S
C2165 C2166 1.362 . S
C2166 H2158 0.930 . S
C2166 C2165 1.362 . S
C2166 C2169 1.409 . S
C2167 H2159 0.930 . S
C2167 C2168 1.355 . S
C2167 C2169 1.415 . S
C2168 C2167 1.355 . S
C2168 C2170 1.419 . S
C2169 C2164 1.425 . S
C2169 C2166 1.409 . S
C2169 C2167 1.415 . S
C2170 H2160 0.930 . S
C2170 C2168 1.419 . S
C2170 C2171 1.362 . S
C2171 H2161 0.930 . S
C2171 C2164 1.409 . S
C2171 C2170 1.362 . S
H2172 C2178 0.930 . S
H2173 C2181 0.930 . S
H2174 C2182 0.930 . S
H2175 C2183 0.930 . S
H2176 C2186 0.930 . S
H2177 C2187 0.930 . S
C2178 H2172 0.930 . S
C2178 C2179 1.355 1_565 S
C2178 C2180 1.415 . S
C2179 C2178 1.355 1_545 S
C2179 C2181 1.419 . S
C2180 C2178 1.415 . S
C2180 C2185 1.425 . S
C2180 C2187 1.409 . S
C2181 H2173 0.930 . S
C2181 C2179 1.419 . S
C2181 C2182 1.362 1_545 S
C2182 H2174 0.930 . S
C2182 C2181 1.362 1_565 S
C2182 C2185 1.409 . S
C2183 H2175 0.930 . S
C2183 C2184 1.355 . S
C2183 C2185 1.415 . S
C2184 C2183 1.355 . S
C2184 C2186 1.419 . S
C2185 C2180 1.425 . S
C2185 C2182 1.409 . S
C2185 C2183 1.415 . S
C2186 H2176 0.930 . S
C2186 C2184 1.419 . S
C2186 C2187 1.362 . S
C2187 H2177 0.930 . S
C2187 C2180 1.409 . S
C2187 C2186 1.362 . S
H2188 C2194 0.930 . S
H2189 C2197 0.930 . S
H2190 C2198 0.930 . S
H2191 C2199 0.930 . S
H2192 C2202 0.930 . S
H2193 C2203 0.930 . S
C2194 H2188 0.930 . S
C2194 C2195 1.355 . S
C2194 C2196 1.415 . S
C2195 C2194 1.355 . S
C2195 C2197 1.419 . S
C2196 C2194 1.415 . S
C2196 C2201 1.425 . S
C2196 C2203 1.409 . S
C2197 H2189 0.930 . S
C2197 C2195 1.419 . S
C2197 C2198 1.362 . S
C2198 H2190 0.930 . S
C2198 C2197 1.362 . S
C2198 C2201 1.409 . S
C2199 H2191 0.930 . S
C2199 C2200 1.355 . S
C2199 C2201 1.415 . S
C2200 C2199 1.355 . S
C2200 C2202 1.419 . S
C2201 C2196 1.425 . S
C2201 C2198 1.409 . S
C2201 C2199 1.415 . S
C2202 H2192 0.930 . S
C2202 C2200 1.419 . S
C2202 C2203 1.362 . S
C2203 H2193 0.930 . S
C2203 C2196 1.409 . S
C2203 C2202 1.362 . S
H2204 C2210 0.930 . S
H2205 C2213 0.930 . S
H2206 C2214 0.930 . S
H2207 C2215 0.930 . S
H2208 C2218 0.930 . S
H2209 C2219 0.930 . S
C2210 H2204 0.930 . S
C2210 C2211 1.355 . S
C2210 C2212 1.415 . S
C2211 C2210 1.355 . S
C2211 C2213 1.419 . S
C2212 C2210 1.415 . S
C2212 C2217 1.425 . S
C2212 C2219 1.409 . S
C2213 H2205 0.930 . S
C2213 C2211 1.419 . S
C2213 C2214 1.362 . S
C2214 H2206 0.930 . S
C2214 C2213 1.362 . S
C2214 C2217 1.409 . S
C2215 H2207 0.930 . S
C2215 C2216 1.355 . S
C2215 C2217 1.415 . S
C2216 C2215 1.355 . S
C2216 C2218 1.419 . S
C2217 C2212 1.425 . S
C2217 C2214 1.409 . S
C2217 C2215 1.415 . S
C2218 H2208 0.930 . S
C2218 C2216 1.419 . S
C2218 C2219 1.362 . S
C2219 H2209 0.930 . S
C2219 C2212 1.409 . S
C2219 C2218 1.362 . S
H2220 C2226 0.930 . S
H2221 C2229 0.930 . S
H2222 C2230 0.930 . S
H2223 C2231 0.930 . S
H2224 C2234 0.930 . S
H2225 C2235 0.930 . S
C2226 H2220 0.930 . S
C2226 C2227 1.355 . S
C2226 C2228 1.415 . S
C2227 C2226 1.355 . S
C2227 C2229 1.419 . S
C2228 C2226 1.415 . S
C2228 C2233 1.425 . S
C2228 C2235 1.409 . S
C2229 H2221 0.930 . S
C2229 C2227 1.419 . S
C2229 C2230 1.362 . S
C2230 H2222 0.930 . S
C2230 C2229 1.362 . S
C2230 C2233 1.409 . S
C2231 H2223 0.930 . S
C2231 C2232 1.355 . S
C2231 C2233 1.415 . S
C2232 C2231 1.355 . S
C2232 C2234 1.419 . S
C2233 C2228 1.425 . S
C2233 C2230 1.409 . S
C2233 C2231 1.415 . S
C2234 H2224 0.930 . S
C2234 C2232 1.419 . S
C2234 C2235 1.362 . S
C2235 H2225 0.930 . S
C2235 C2228 1.409 . S
C2235 C2234 1.362 . S
H2236 C2242 0.930 . S
H2237 C2245 0.930 . S
H2238 C2246 0.930 . S
H2239 C2247 0.930 . S
H2240 C2250 0.930 . S
H2241 C2251 0.930 . S
C2242 H2236 0.930 . S
C2242 C2243 1.355 . S
C2242 C2244 1.415 . S
C2243 C2242 1.355 . S
C2243 C2245 1.419 . S
C2244 C2242 1.415 . S
C2244 C2249 1.425 . S
C2244 C2251 1.409 . S
C2245 H2237 0.930 . S
C2245 C2243 1.419 . S
C2245 C2246 1.362 . S
C2246 H2238 0.930 . S
C2246 C2245 1.362 . S
C2246 C2249 1.409 . S
C2247 H2239 0.930 . S
C2247 C2248 1.355 . S
C2247 C2249 1.415 . S
C2248 C2247 1.355 . S
C2248 C2250 1.419 . S
C2249 C2244 1.425 . S
C2249 C2246 1.409 . S
C2249 C2247 1.415 . S
C2250 H2240 0.930 . S
C2250 C2248 1.419 . S
C2250 C2251 1.362 . S
C2251 H2241 0.930 . S
C2251 C2244 1.409 . S
C2251 C2250 1.362 . S
H2252 C2258 0.930 . S
H2253 C2261 0.930 . S
H2254 C2262 0.930 . S
H2255 C2263 0.930 . S
H2256 C2266 0.930 . S
H2257 C2267 0.930 . S
C2258 H2252 0.930 . S
C2258 C2259 1.355 . S
C2258 C2260 1.415 . S
C2259 C2258 1.355 . S
C2259 C2261 1.419 . S
C2260 C2258 1.415 . S
C2260 C2265 1.425 . S
C2260 C2267 1.409 . S
C2261 H2253 0.930 . S
C2261 C2259 1.419 . S
C2261 C2262 1.362 . S
C2262 H2254 0.930 . S
C2262 C2261 1.362 . S
C2262 C2265 1.409 . S
C2263 H2255 0.930 . S
C2263 C2264 1.355 . S
C2263 C2265 1.415 . S
C2264 C2263 1.355 . S
C2264 C2266 1.419 . S
C2265 C2260 1.425 . S
C2265 C2262 1.409 . S
C2265 C2263 1.415 . S
C2266 H2256 0.930 . S
C2266 C2264 1.419 . S
C2266 C2267 1.362 . S
C2267 H2257 0.930 . S
C2267 C2260 1.409 . S
C2267 C2266 1.362 . S
H2268 C2274 0.930 . S
H2269 C2277 0.930 1_565 S
H2270 C2278 0.930 . S
H2271 C2279 0.930 . S
H2272 C2282 0.930 . S
H2273 C2283 0.930 . S
C2274 H2268 0.930 . S
C2274 C2275 1.355 1_545 S
C2274 C2276 1.415 . S
C2275 C2274 1.355 1_565 S
C2275 C2277 1.419 1_565 S
C2276 C2274 1.415 . S
C2276 C2281 1.425 . S
C2276 C2283 1.409 . S
C2277 H2269 0.930 1_545 S
C2277 C2275 1.419 1_545 S
C2277 C2278 1.362 . S
C2278 H2270 0.930 . S
C2278 C2277 1.362 . S
C2278 C2281 1.409 . S
C2279 H2271 0.930 . S
C2279 C2280 1.355 . S
C2279 C2281 1.415 . S
C2280 C2279 1.355 . S
C2280 C2282 1.419 . S
C2281 C2276 1.425 . S
C2281 C2278 1.409 . S
C2281 C2279 1.415 . S
C2282 H2272 0.930 . S
C2282 C2280 1.419 . S
C2282 C2283 1.362 . S
C2283 H2273 0.930 . S
C2283 C2276 1.409 . S
C2283 C2282 1.362 . S
H2284 C2290 0.930 . S
H2285 C2293 0.930 1_455 S
H2286 C2294 0.930 . S
H2287 C2295 0.930 . S
H2288 C2298 0.930 . S
H2289 C2299 0.930 . S
C2290 H2284 0.930 . S
C2290 C2291 1.355 . S
C2290 C2292 1.415 . S
C2291 C2290 1.355 . S
C2291 C2293 1.419 . S
C2292 C2290 1.415 . S
C2292 C2297 1.425 . S
C2292 C2299 1.409 . S
C2293 H2285 0.930 1_655 S
C2293 C2291 1.419 . S
C2293 C2294 1.362 . S
C2294 H2286 0.930 . S
C2294 C2293 1.362 . S
C2294 C2297 1.409 . S
C2295 H2287 0.930 . S
C2295 C2296 1.355 . S
C2295 C2297 1.415 . S
C2296 C2295 1.355 . S
C2296 C2298 1.419 . S
C2297 C2292 1.425 . S
C2297 C2294 1.409 . S
C2297 C2295 1.415 . S
C2298 H2288 0.930 . S
C2298 C2296 1.419 . S
C2298 C2299 1.362 . S
C2299 H2289 0.930 . S
C2299 C2292 1.409 . S
C2299 C2298 1.362 . S
H2300 C2306 0.930 . S
H2301 C2309 0.930 . S
H2302 C2310 0.930 . S
H2303 C2311 0.930 . S
H2304 C2314 0.930 . S
H2305 C2315 0.930 . S
C2306 H2300 0.930 . S
C2306 C2307 1.355 . S
C2306 C2308 1.415 . S
C2307 C2306 1.355 . S
C2307 C2309 1.419 . S
C2308 C2306 1.415 . S
C2308 C2313 1.425 . S
C2308 C2315 1.409 . S
C2309 H2301 0.930 . S
C2309 C2307 1.419 . S
C2309 C2310 1.362 . S
C2310 H2302 0.930 . S
C2310 C2309 1.362 . S
C2310 C2313 1.409 . S
C2311 H2303 0.930 . S
C2311 C2312 1.355 . S
C2311 C2313 1.415 . S
C2312 C2311 1.355 . S
C2312 C2314 1.419 . S
C2313 C2308 1.425 . S
C2313 C2310 1.409 . S
C2313 C2311 1.415 . S
C2314 H2304 0.930 . S
C2314 C2312 1.419 . S
C2314 C2315 1.362 . S
C2315 H2305 0.930 . S
C2315 C2308 1.409 . S
C2315 C2314 1.362 . S
H2316 C2322 0.930 . S
H2317 C2325 0.930 1_455 S
H2318 C2326 0.930 . S
H2319 C2327 0.930 . S
H2320 C2330 0.930 . S
H2321 C2331 0.930 . S
C2322 H2316 0.930 . S
C2322 C2323 1.398 . S
C2322 C2324 1.415 . S
C2323 C2322 1.398 . S
C2323 C2325 1.406 . S
C2324 C2322 1.415 . S
C2324 C2329 1.425 . S
C2324 C2331 1.409 . S
C2325 H2317 0.930 1_655 S
C2325 C2323 1.406 . S
C2325 C2326 1.362 . S
C2326 H2318 0.930 . S
C2326 C2325 1.362 . S
C2326 C2329 1.409 . S
C2327 H2319 0.930 . S
C2327 C2328 1.355 . S
C2327 C2329 1.415 . S
C2328 C2327 1.355 . S
C2328 C2330 1.419 . S
C2329 C2324 1.425 . S
C2329 C2326 1.409 . S
C2329 C2327 1.415 . S
C2330 H2320 0.930 . S
C2330 C2328 1.419 . S
C2330 C2331 1.362 . S
C2331 H2321 0.930 . S
C2331 C2324 1.409 . S
C2331 C2330 1.362 . S
H2332 C2338 0.930 . S
H2333 C2341 0.930 . S
H2334 C2342 0.930 . S
H2335 C2343 0.930 . S
H2336 C2346 0.930 . S
H2337 C2347 0.930 . S
C2338 H2332 0.930 . S
C2338 C2339 1.355 . S
C2338 C2340 1.415 . S
C2339 C2338 1.355 . S
C2339 C2341 1.419 . S
C2340 C2338 1.415 . S
C2340 C2345 1.425 . S
C2340 C2347 1.409 . S
C2341 H2333 0.930 . S
C2341 C2339 1.419 . S
C2341 C2342 1.362 . S
C2342 H2334 0.930 . S
C2342 C2341 1.362 . S
C2342 C2345 1.409 . S
C2343 H2335 0.930 . S
C2343 C2344 1.355 . S
C2343 C2345 1.415 . S
C2344 C2343 1.355 . S
C2344 C2346 1.419 . S
C2345 C2340 1.425 . S
C2345 C2342 1.409 . S
C2345 C2343 1.415 . S
C2346 H2336 0.930 . S
C2346 C2344 1.419 . S
C2346 C2347 1.362 . S
C2347 H2337 0.930 . S
C2347 C2340 1.409 . S
C2347 C2346 1.362 . S
H2348 C2354 0.930 . S
H2349 C2357 0.930 . S
H2350 C2358 0.930 . S
H2351 C2359 0.930 . S
H2352 C2362 0.930 . S
H2353 C2363 0.930 . S
C2354 H2348 0.930 . S
C2354 C2355 1.355 1_545 S
C2354 C2356 1.415 . S
C2355 C2354 1.355 1_565 S
C2355 C2357 1.419 . S
C2356 C2354 1.415 . S
C2356 C2361 1.425 . S
C2356 C2363 1.409 . S
C2357 H2349 0.930 . S
C2357 C2355 1.419 . S
C2357 C2358 1.362 1_565 S
C2358 H2350 0.930 . S
C2358 C2357 1.362 1_545 S
C2358 C2361 1.409 . S
C2359 H2351 0.930 . S
C2359 C2360 1.355 . S
C2359 C2361 1.415 . S
C2360 C2359 1.355 . S
C2360 C2362 1.419 . S
C2361 C2356 1.425 . S
C2361 C2358 1.409 . S
C2361 C2359 1.415 . S
C2362 H2352 0.930 . S
C2362 C2360 1.419 . S
C2362 C2363 1.362 . S
C2363 H2353 0.930 . S
C2363 C2356 1.409 . S
C2363 C2362 1.362 . S
H2364 C2370 0.930 . S
H2365 C2373 0.930 . S
H2366 C2374 0.930 . S
H2367 C2375 0.930 . S
H2368 C2378 0.930 . S
H2369 C2379 0.930 . S
C2370 H2364 0.930 . S
C2370 C2371 1.355 . S
C2370 C2372 1.415 . S
C2371 C2370 1.355 . S
C2371 C2373 1.419 . S
C2372 C2370 1.415 . S
C2372 C2377 1.425 . S
C2372 C2379 1.409 . S
C2373 H2365 0.930 . S
C2373 C2371 1.419 . S
C2373 C2374 1.362 . S
C2374 H2366 0.930 . S
C2374 C2373 1.362 . S
C2374 C2377 1.409 . S
C2375 H2367 0.930 . S
C2375 C2376 1.355 . S
C2375 C2377 1.415 . S
C2376 C2375 1.355 . S
C2376 C2378 1.419 . S
C2377 C2372 1.425 . S
C2377 C2374 1.409 . S
C2377 C2375 1.415 . S
C2378 H2368 0.930 . S
C2378 C2376 1.419 . S
C2378 C2379 1.362 . S
C2379 H2369 0.930 . S
C2379 C2372 1.409 . S
C2379 C2378 1.362 . S
H2380 C2386 0.930 . S
H2381 C2389 0.930 . S
H2382 C2390 0.930 . S
H2383 C2391 0.930 . S
H2384 C2394 0.930 . S
H2385 C2395 0.930 . S
C2386 H2380 0.930 . S
C2386 C2387 1.355 . S
C2386 C2388 1.415 . S
C2387 C2386 1.355 . S
C2387 C2389 1.419 . S
C2388 C2386 1.415 . S
C2388 C2393 1.425 . S
C2388 C2395 1.409 . S
C2389 H2381 0.930 . S
C2389 C2387 1.419 . S
C2389 C2390 1.362 . S
C2390 H2382 0.930 . S
C2390 C2389 1.362 . S
C2390 C2393 1.409 . S
C2391 H2383 0.930 . S
C2391 C2392 1.355 . S
C2391 C2393 1.415 . S
C2392 C2391 1.355 . S
C2392 C2394 1.419 . S
C2393 C2388 1.425 . S
C2393 C2390 1.409 . S
C2393 C2391 1.415 . S
C2394 H2384 0.930 . S
C2394 C2392 1.419 . S
C2394 C2395 1.362 . S
C2395 H2385 0.930 . S
C2395 C2388 1.409 . S
C2395 C2394 1.362 . S
H2396 C2402 0.930 . S
H2397 C2405 0.930 . S
H2398 C2406 0.930 . S
H2399 C2407 0.930 . S
H2400 C2410 0.930 . S
H2401 C2411 0.930 . S
C2402 H2396 0.930 . S
C2402 C2403 1.355 . S
C2402 C2404 1.415 . S
C2403 C2402 1.355 . S
C2403 C2405 1.419 . S
C2404 C2402 1.415 . S
C2404 C2409 1.425 . S
C2404 C2411 1.409 . S
C2405 H2397 0.930 . S
C2405 C2403 1.419 . S
C2405 C2406 1.362 . S
C2406 H2398 0.930 . S
C2406 C2405 1.362 . S
C2406 C2409 1.409 . S
C2407 H2399 0.930 . S
C2407 C2408 1.355 . S
C2407 C2409 1.415 . S
C2408 C2407 1.355 . S
C2408 C2410 1.419 . S
C2409 C2404 1.425 . S
C2409 C2406 1.409 . S
C2409 C2407 1.415 . S
C2410 H2400 0.930 . S
C2410 C2408 1.419 . S
C2410 C2411 1.362 . S
C2411 H2401 0.930 . S
C2411 C2404 1.409 . S
C2411 C2410 1.362 . S
H2412 C2418 0.930 . S
H2413 C2421 0.930 . S
H2414 C2422 0.930 . S
H2415 C2423 0.930 . S
H2416 C2426 0.930 . S
H2417 C2427 0.930 . S
C2418 H2412 0.930 . S
C2418 C2419 1.355 . S
C2418 C2420 1.415 . S
C2419 C2418 1.355 . S
C2419 C2421 1.419 . S
C2420 C2418 1.415 . S
C2420 C2425 1.425 . S
C2420 C2427 1.409 . S
C2421 H2413 0.930 . S
C2421 C2419 1.419 . S
C2421 C2422 1.362 . S
C2422 H2414 0.930 . S
C2422 C2421 1.362 . S
C2422 C2425 1.409 . S
C2423 H2415 0.930 . S
C2423 C2424 1.355 . S
C2423 C2425 1.415 . S
C2424 C2423 1.355 . S
C2424 C2426 1.419 . S
C2425 C2420 1.425 . S
C2425 C2422 1.409 . S
C2425 C2423 1.415 . S
C2426 H2416 0.930 . S
C2426 C2424 1.419 . S
C2426 C2427 1.362 . S
C2427 H2417 0.930 . S
C2427 C2420 1.409 . S
C2427 C2426 1.362 . S
H2428 C2434 0.930 . S
H2429 C2437 0.930 . S
H2430 C2438 0.930 . S
H2431 C2439 0.930 . S
H2432 C2442 0.930 1_655 S
H2433 C2443 0.930 1_655 S
C2434 H2428 0.930 . S
C2434 C2435 1.355 . S
C2434 C2436 1.415 . S
C2435 C2434 1.355 . S
C2435 C2437 1.419 . S
C2436 C2434 1.415 . S
C2436 C2441 1.425 . S
C2436 C2443 1.409 . S
C2437 H2429 0.930 . S
C2437 C2435 1.419 . S
C2437 C2438 1.362 . S
C2438 H2430 0.930 . S
C2438 C2437 1.362 . S
C2438 C2441 1.409 . S
C2439 H2431 0.930 . S
C2439 C2440 1.355 . S
C2439 C2441 1.415 . S
C2440 C2439 1.355 . S
C2440 C2442 1.419 . S
C2441 C2436 1.425 . S
C2441 C2438 1.409 . S
C2441 C2439 1.415 . S
C2442 H2432 0.930 1_455 S
C2442 C2440 1.419 . S
C2442 C2443 1.362 . S
C2443 H2433 0.930 1_455 S
C2443 C2436 1.409 . S
C2443 C2442 1.362 . S
H2444 C2450 0.930 . S
H2445 C2453 0.930 . S
H2446 C2454 0.930 . S
H2447 C2455 0.930 . S
H2448 C2458 0.930 . S
H2449 C2459 0.930 . S
C2450 H2444 0.930 . S
C2450 C2451 1.355 . S
C2450 C2452 1.415 . S
C2451 C2450 1.355 . S
C2451 C2453 1.419 . S
C2452 C2450 1.415 . S
C2452 C2457 1.425 . S
C2452 C2459 1.409 . S
C2453 H2445 0.930 . S
C2453 C2451 1.419 . S
C2453 C2454 1.362 . S
C2454 H2446 0.930 . S
C2454 C2453 1.362 . S
C2454 C2457 1.409 . S
C2455 H2447 0.930 . S
C2455 C2456 1.355 . S
C2455 C2457 1.415 . S
C2456 C2455 1.355 . S
C2456 C2458 1.419 . S
C2457 C2452 1.425 . S
C2457 C2454 1.409 . S
C2457 C2455 1.415 . S
C2458 H2448 0.930 . S
C2458 C2456 1.419 . S
C2458 C2459 1.362 . S
C2459 H2449 0.930 . S
C2459 C2452 1.409 . S
C2459 C2458 1.362 . S
H2460 C2466 0.930 . S
H2461 C2469 0.930 . S
H2462 C2470 0.930 . S
H2463 C2471 0.930 . S
H2464 C2474 0.930 . S
H2465 C2475 0.930 . S
C2466 H2460 0.930 . S
C2466 C2467 1.355 . S
C2466 C2468 1.415 . S
C2467 C2466 1.355 . S
C2467 C2469 1.419 . S
C2468 C2466 1.415 . S
C2468 C2473 1.425 . S
C2468 C2475 1.409 1_655 S
C2469 H2461 0.930 . S
C2469 C2467 1.419 . S
C2469 C2470 1.362 . S
C2470 H2462 0.930 . S
C2470 C2469 1.362 . S
C2470 C2473 1.409 . S
C2471 H2463 0.930 . S
C2471 C2472 1.355 . S
C2471 C2473 1.415 . S
C2472 C2471 1.355 . S
C2472 C2474 1.419 1_655 S
C2473 C2468 1.425 . S
C2473 C2470 1.409 . S
C2473 C2471 1.415 . S
C2474 H2464 0.930 . S
C2474 C2472 1.419 1_455 S
C2474 C2475 1.362 . S
C2475 H2465 0.930 . S
C2475 C2468 1.409 1_455 S
C2475 C2474 1.362 . S
H2476 C2482 0.930 . S
H2477 C2485 0.930 . S
H2478 C2486 0.930 . S
H2479 C2487 0.930 . S
H2480 C2490 0.930 . S
H2481 C2491 0.930 . S
C2482 H2476 0.930 . S
C2482 C2483 1.355 . S
C2482 C2484 1.415 . S
C2483 C2482 1.355 . S
C2483 C2485 1.419 . S
C2484 C2482 1.415 . S
C2484 C2489 1.425 . S
C2484 C2491 1.409 . S
C2485 H2477 0.930 . S
C2485 C2483 1.419 . S
C2485 C2486 1.362 . S
C2486 H2478 0.930 . S
C2486 C2485 1.362 . S
C2486 C2489 1.409 . S
C2487 H2479 0.930 . S
C2487 C2488 1.355 . S
C2487 C2489 1.415 . S
C2488 C2487 1.355 . S
C2488 C2490 1.419 . S
C2489 C2484 1.425 . S
C2489 C2486 1.409 . S
C2489 C2487 1.415 . S
C2490 H2480 0.930 . S
C2490 C2488 1.419 . S
C2490 C2491 1.362 . S
C2491 H2481 0.930 . S
C2491 C2484 1.409 . S
C2491 C2490 1.362 . S
H2492 C2498 0.930 . S
H2493 C2501 0.930 . S
H2494 C2502 0.930 . S
H2495 C2503 0.930 . S
H2496 C2506 0.930 . S
H2497 C2507 0.930 . S
C2498 H2492 0.930 . S
C2498 C2499 1.355 . S
C2498 C2500 1.415 . S
C2499 C2498 1.355 . S
C2499 C2501 1.419 . S
C2500 C2498 1.415 . S
C2500 C2505 1.425 . S
C2500 C2507 1.409 . S
C2501 H2493 0.930 . S
C2501 C2499 1.419 . S
C2501 C2502 1.362 . S
C2502 H2494 0.930 . S
C2502 C2501 1.362 . S
C2502 C2505 1.409 . S
C2503 H2495 0.930 . S
C2503 C2504 1.355 . S
C2503 C2505 1.415 . S
C2504 C2503 1.355 . S
C2504 C2506 1.419 . S
C2505 C2500 1.425 . S
C2505 C2502 1.409 . S
C2505 C2503 1.415 . S
C2506 H2496 0.930 . S
C2506 C2504 1.419 . S
C2506 C2507 1.362 . S
C2507 H2497 0.930 . S
C2507 C2500 1.409 . S
C2507 C2506 1.362 . S
H2508 C2514 0.930 . S
H2509 C2517 0.930 . S
H2510 C2518 0.930 . S
H2511 C2519 0.930 . S
H2512 C2522 0.930 . S
H2513 C2523 0.930 . S
C2514 H2508 0.930 . S
C2514 C2515 1.355 . S
C2514 C2516 1.415 . S
C2515 C2514 1.355 . S
C2515 C2517 1.419 . S
C2516 C2514 1.415 . S
C2516 C2521 1.425 . S
C2516 C2523 1.409 . S
C2517 H2509 0.930 . S
C2517 C2515 1.419 . S
C2517 C2518 1.362 . S
C2518 H2510 0.930 . S
C2518 C2517 1.362 . S
C2518 C2521 1.409 . S
C2519 H2511 0.930 . S
C2519 C2520 1.355 . S
C2519 C2521 1.415 . S
C2520 C2519 1.355 . S
C2520 C2522 1.419 . S
C2521 C2516 1.425 . S
C2521 C2518 1.409 . S
C2521 C2519 1.415 . S
C2522 H2512 0.930 . S
C2522 C2520 1.419 . S
C2522 C2523 1.362 . S
C2523 H2513 0.930 . S
C2523 C2516 1.409 . S
C2523 C2522 1.362 . S
H2524 C2530 0.930 . S
H2525 C2533 0.930 . S
H2526 C2534 0.930 . S
H2527 C2535 0.930 . S
H2528 C2538 0.930 . S
H2529 C2539 0.930 . S
C2530 H2524 0.930 . S
C2530 C2531 1.355 . S
C2530 C2532 1.415 . S
C2531 C2530 1.355 . S
C2531 C2533 1.419 . S
C2532 C2530 1.415 . S
C2532 C2537 1.425 . S
C2532 C2539 1.409 . S
C2533 H2525 0.930 . S
C2533 C2531 1.419 . S
C2533 C2534 1.362 . S
C2534 H2526 0.930 . S
C2534 C2533 1.362 . S
C2534 C2537 1.409 . S
C2535 H2527 0.930 . S
C2535 C2536 1.355 . S
C2535 C2537 1.415 . S
C2536 C2535 1.355 . S
C2536 C2538 1.419 . S
C2537 C2532 1.425 . S
C2537 C2534 1.409 . S
C2537 C2535 1.415 . S
C2538 H2528 0.930 . S
C2538 C2536 1.419 . S
C2538 C2539 1.362 . S
C2539 H2529 0.930 . S
C2539 C2532 1.409 . S
C2539 C2538 1.362 . S
H2540 C2546 0.930 . S
H2541 C2549 0.930 . S
H2542 C2550 0.930 . S
H2543 C2551 0.930 . S
H2544 C2554 0.930 . S
H2545 C2555 0.930 . S
C2546 H2540 0.930 . S
C2546 C2547 1.355 . S
C2546 C2548 1.415 . S
C2547 C2546 1.355 . S
C2547 C2549 1.419 . S
C2548 C2546 1.415 . S
C2548 C2553 1.425 . S
C2548 C2555 1.409 . S
C2549 H2541 0.930 . S
C2549 C2547 1.419 . S
C2549 C2550 1.362 . S
C2550 H2542 0.930 . S
C2550 C2549 1.362 . S
C2550 C2553 1.409 . S
C2551 H2543 0.930 . S
C2551 C2552 1.355 . S
C2551 C2553 1.415 . S
C2552 C2551 1.355 . S
C2552 C2554 1.419 . S
C2553 C2548 1.425 . S
C2553 C2550 1.409 . S
C2553 C2551 1.415 . S
C2554 H2544 0.930 . S
C2554 C2552 1.419 . S
C2554 C2555 1.362 . S
C2555 H2545 0.930 . S
C2555 C2548 1.409 . S
C2555 C2554 1.362 . S
H2556 C2562 0.930 . S
H2557 C2565 0.930 . S
H2558 C2566 0.930 . S
H2559 C2567 0.930 . S
H2560 C2570 0.930 . S
H2561 C2571 0.930 . S
C2562 H2556 0.930 . S
C2562 C2563 1.355 . S
C2562 C2564 1.415 . S
C2563 C2562 1.355 . S
C2563 C2565 1.419 . S
C2564 C2562 1.415 . S
C2564 C2569 1.425 . S
C2564 C2571 1.409 . S
C2565 H2557 0.930 . S
C2565 C2563 1.419 . S
C2565 C2566 1.362 . S
C2566 H2558 0.930 . S
C2566 C2565 1.362 . S
C2566 C2569 1.409 . S
C2567 H2559 0.930 . S
C2567 C2568 1.355 . S
C2567 C2569 1.415 . S
C2568 C2567 1.355 . S
C2568 C2570 1.419 . S
C2569 C2564 1.425 . S
C2569 C2566 1.409 . S
C2569 C2567 1.415 . S
C2570 H2560 0.930 . S
C2570 C2568 1.419 . S
C2570 C2571 1.362 . S
C2571 H2561 0.930 . S
C2571 C2564 1.409 . S
C2571 C2570 1.362 . S
H2572 C2578 0.930 . S
H2573 C2581 0.930 . S
H2574 C2582 0.930 . S
H2575 C2583 0.930 . S
H2576 C2586 0.930 . S
H2577 C2587 0.930 . S
C2578 H2572 0.930 . S
C2578 C2579 1.355 . S
C2578 C2580 1.415 . S
C2579 C2578 1.355 . S
C2579 C2581 1.419 . S
C2580 C2578 1.415 . S
C2580 C2585 1.425 . S
C2580 C2587 1.409 . S
C2581 H2573 0.930 . S
C2581 C2579 1.419 . S
C2581 C2582 1.362 . S
C2582 H2574 0.930 . S
C2582 C2581 1.362 . S
C2582 C2585 1.409 . S
C2583 H2575 0.930 . S
C2583 C2584 1.355 . S
C2583 C2585 1.415 . S
C2584 C2583 1.355 . S
C2584 C2586 1.419 . S
C2585 C2580 1.425 . S
C2585 C2582 1.409 . S
C2585 C2583 1.415 . S
C2586 H2576 0.930 . S
C2586 C2584 1.419 . S
C2586 C2587 1.362 . S
C2587 H2577 0.930 . S
C2587 C2580 1.409 . S
C2587 C2586 1.362 . S
H2588 C2594 0.930 . S
H2589 C2597 0.930 . S
H2590 C2598 0.930 . S
H2591 C2599 0.930 . S
H2592 C2602 0.930 . S
H2593 C2603 0.930 . S
C2594 H2588 0.930 . S
C2594 C2595 1.355 . S
C2594 C2596 1.415 . S
C2595 C2594 1.355 . S
C2595 C2597 1.419 . S
C2596 C2594 1.415 . S
C2596 C2601 1.425 . S
C2596 C2603 1.409 . S
C2597 H2589 0.930 . S
C2597 C2595 1.419 . S
C2597 C2598 1.362 . S
C2598 H2590 0.930 . S
C2598 C2597 1.362 . S
C2598 C2601 1.409 . S
C2599 H2591 0.930 . S
C2599 C2600 1.355 . S
C2599 C2601 1.415 . S
C2600 C2599 1.355 . S
C2600 C2602 1.419 . S
C2601 C2596 1.425 . S
C2601 C2598 1.409 . S
C2601 C2599 1.415 . S
C2602 H2592 0.930 . S
C2602 C2600 1.419 . S
C2602 C2603 1.362 . S
C2603 H2593 0.930 . S
C2603 C2596 1.409 . S
C2603 C2602 1.362 . S
H2604 C2610 0.930 . S
H2605 C2613 0.930 . S
H2606 C2614 0.930 . S
H2607 C2615 0.930 . S
H2608 C2618 0.930 . S
H2609 C2619 0.930 . S
C2610 H2604 0.930 . S
C2610 C2611 1.355 . S
C2610 C2612 1.415 . S
C2611 C2610 1.355 . S
C2611 C2613 1.419 . S
C2612 C2610 1.415 . S
C2612 C2617 1.425 . S
C2612 C2619 1.409 . S
C2613 H2605 0.930 . S
C2613 C2611 1.419 . S
C2613 C2614 1.362 . S
C2614 H2606 0.930 . S
C2614 C2613 1.362 . S
C2614 C2617 1.409 . S
C2615 H2607 0.930 . S
C2615 C2616 1.355 . S
C2615 C2617 1.415 . S
C2616 C2615 1.355 . S
C2616 C2618 1.419 . S
C2617 C2612 1.425 . S
C2617 C2614 1.409 . S
C2617 C2615 1.415 . S
C2618 H2608 0.930 . S
C2618 C2616 1.419 . S
C2618 C2619 1.362 . S
C2619 H2609 0.930 . S
C2619 C2612 1.409 . S
C2619 C2618 1.362 . S
H2620 C2626 0.930 . S
H2621 C2629 0.930 . S
H2622 C2630 0.930 . S
H2623 C2631 0.930 . S
H2624 C2634 0.930 . S
H2625 C2635 0.930 . S
C2626 H2620 0.930 . S
C2626 C2627 1.355 . S
C2626 C2628 1.415 . S
C2627 C2626 1.355 . S
C2627 C2629 1.419 . S
C2628 C2626 1.415 . S
C2628 C2633 1.425 . S
C2628 C2635 1.409 . S
C2629 H2621 0.930 . S
C2629 C2627 1.419 . S
C2629 C2630 1.362 . S
C2630 H2622 0.930 . S
C2630 C2629 1.362 . S
C2630 C2633 1.409 . S
C2631 H2623 0.930 . S
C2631 C2632 1.355 . S
C2631 C2633 1.415 . S
C2632 C2631 1.355 . S
C2632 C2634 1.419 . S
C2633 C2628 1.425 . S
C2633 C2630 1.409 . S
C2633 C2631 1.415 . S
C2634 H2624 0.930 . S
C2634 C2632 1.419 . S
C2634 C2635 1.362 . S
C2635 H2625 0.930 . S
C2635 C2628 1.409 . S
C2635 C2634 1.362 . S
H2636 C2642 0.930 . S
H2637 C2645 0.930 . S
H2638 C2646 0.930 . S
H2639 C2647 0.930 . S
H2640 C2650 0.930 . S
H2641 C2651 0.930 . S
C2642 H2636 0.930 . S
C2642 C2643 1.355 . S
C2642 C2644 1.415 . S
C2643 C2642 1.355 . S
C2643 C2645 1.419 . S
C2644 C2642 1.415 . S
C2644 C2649 1.425 . S
C2644 C2651 1.409 . S
C2645 H2637 0.930 . S
C2645 C2643 1.419 . S
C2645 C2646 1.362 . S
C2646 H2638 0.930 . S
C2646 C2645 1.362 . S
C2646 C2649 1.409 . S
C2647 H2639 0.930 . S
C2647 C2648 1.355 . S
C2647 C2649 1.415 . S
C2648 C2647 1.355 . S
C2648 C2650 1.419 . S
C2649 C2644 1.425 . S
C2649 C2646 1.409 . S
C2649 C2647 1.415 . S
C2650 H2640 0.930 . S
C2650 C2648 1.419 . S
C2650 C2651 1.362 . S
C2651 H2641 0.930 . S
C2651 C2644 1.409 . S
C2651 C2650 1.362 . S
H2652 C2658 0.930 . S
H2653 C2661 0.930 . S
H2654 C2662 0.930 . S
H2655 C2663 0.930 . S
H2656 C2666 0.930 . S
H2657 C2667 0.930 . S
C2658 H2652 0.930 . S
C2658 C2659 1.355 . S
C2658 C2660 1.415 . S
C2659 C2658 1.355 . S
C2659 C2661 1.419 . S
C2660 C2658 1.415 . S
C2660 C2665 1.425 . S
C2660 C2667 1.409 . S
C2661 H2653 0.930 . S
C2661 C2659 1.419 . S
C2661 C2662 1.362 . S
C2662 H2654 0.930 . S
C2662 C2661 1.362 . S
C2662 C2665 1.409 . S
C2663 H2655 0.930 . S
C2663 C2664 1.355 . S
C2663 C2665 1.415 . S
C2664 C2663 1.355 . S
C2664 C2666 1.419 . S
C2665 C2660 1.425 . S
C2665 C2662 1.409 . S
C2665 C2663 1.415 . S
C2666 H2656 0.930 . S
C2666 C2664 1.419 . S
C2666 C2667 1.362 . S
C2667 H2657 0.930 . S
C2667 C2660 1.409 . S
C2667 C2666 1.362 . S
H2668 C2674 0.930 . S
H2669 C2677 0.930 . S
H2670 C2678 0.930 . S
H2671 C2679 0.930 . S
H2672 C2682 0.930 . S
H2673 C2683 0.930 . S
C2674 H2668 0.930 . S
C2674 C2675 1.355 . S
C2674 C2676 1.415 . S
C2675 C2674 1.355 . S
C2675 C2677 1.419 . S
C2676 C2674 1.415 . S
C2676 C2681 1.425 . S
C2676 C2683 1.409 . S
C2677 H2669 0.930 . S
C2677 C2675 1.419 . S
C2677 C2678 1.362 . S
C2678 H2670 0.930 . S
C2678 C2677 1.362 . S
C2678 C2681 1.409 . S
C2679 H2671 0.930 . S
C2679 C2680 1.355 . S
C2679 C2681 1.415 . S
C2680 C2679 1.355 . S
C2680 C2682 1.419 . S
C2681 C2676 1.425 . S
C2681 C2678 1.409 . S
C2681 C2679 1.415 . S
C2682 H2672 0.930 . S
C2682 C2680 1.419 . S
C2682 C2683 1.362 . S
C2683 H2673 0.930 . S
C2683 C2676 1.409 . S
C2683 C2682 1.362 . S
H2684 C2690 0.930 . S
H2685 C2693 0.930 . S
H2686 C2694 0.930 . S
H2687 C2695 0.930 . S
H2688 C2698 0.930 . S
H2689 C2699 0.930 . S
C2690 H2684 0.930 . S
C2690 C2691 1.355 . S
C2690 C2692 1.415 . S
C2691 C2690 1.355 . S
C2691 C2693 1.419 . S
C2692 C2690 1.415 . S
C2692 C2697 1.425 . S
C2692 C2699 1.409 . S
C2693 H2685 0.930 . S
C2693 C2691 1.419 . S
C2693 C2694 1.362 . S
C2694 H2686 0.930 . S
C2694 C2693 1.362 . S
C2694 C2697 1.409 . S
C2695 H2687 0.930 . S
C2695 C2696 1.355 . S
C2695 C2697 1.415 . S
C2696 C2695 1.355 . S
C2696 C2698 1.419 . S
C2697 C2692 1.425 . S
C2697 C2694 1.409 . S
C2697 C2695 1.415 . S
C2698 H2688 0.930 . S
C2698 C2696 1.419 . S
C2698 C2699 1.362 . S
C2699 H2689 0.930 . S
C2699 C2692 1.409 . S
C2699 C2698 1.362 . S
C1843 C781 1.463 . S
C1848 C1147 1.331 . S
C1859 C871 1.442 . S
C1864 C1231 1.373 . S
C1875 C751 1.474 . S
C1880 C1311 1.475 . S
C1891 C691 1.432 . S
C1896 C1227 1.401 . S
C1912 C1315 1.366 . S
C1907 C571 1.385 . S
C1923 C601 1.403 . S
C1928 C1143 1.345 . S
C1944 C1136 1.376 . S
C1939 C661 1.443 . S
C1960 C1220 1.436 . S
C1955 C541 1.436 . S
C1971 C631 1.501 . S
C1976 C1322 1.471 . S
C1987 C811 1.435 . S
C1992 C1238 1.363 . S
C2003 C841 1.409 . S
C2008 C1304 1.324 . S
C2024 C1154 1.343 . S
C2019 C721 1.344 . S
C2040 C1399 1.358 . S
C2035 C61 1.441 1_455 S
C2051 C151 1.441 . S
C2056 C1483 1.423 . S
C2067 C31 1.486 . S
C2072 C1563 1.473 . S
C2083 C1051 1.430 . S
C2088 C1479 1.433 . S
C2099 C931 1.403 . S
C2104 C1567 1.382 . S
C2115 C961 1.413 . S
C2120 C1395 1.342 . S
C2131 C1021 1.418 . S
C2136 C1388 1.329 . S
C2147 C901 1.463 . S
C2152 C1472 1.372 . S
C2168 C1574 1.437 . S
C2163 C991 1.474 . S
C2179 C91 1.424 . S
C2184 C1490 1.402 . S
C2200 C1556 1.299 . S
C2195 C121 1.370 1_455 S
C2211 C1 1.348 . S
C2216 C1406 1.342 . S
C2232 C1651 1.329 . S
C2227 C421 1.461 . S
C2243 C511 1.461 . S
C2248 C1735 1.442 . S
C2264 C1815 1.476 . S
C2259 C391 1.478 . S
C2280 C1731 1.382 . S
C2275 C331 1.384 . S
C2296 C1819 1.370 . S
C2291 C211 1.412 1_655 S
C2307 C241 1.441 . S
C2312 C1647 1.374 . S
C2323 C301 1.407 1_655 S
C2328 C1640 1.404 . S
C2339 C181 1.418 . S
C2344 C1724 1.443 . S
C2360 C1826 1.476 . S
C2355 C271 1.490 . S
C2371 C451 1.454 . S
C2376 C1742 1.422 . S
C2387 C481 1.408 . S
C2392 C1808 1.303 . S
C2403 C361 1.341 . S
C2408 C1658 1.347 . S
C2419 C920 1.415 . S
C2424 C1150 1.363 . S
C2440 C1234 1.354 . S
C2435 C980 1.512 . S
C2451 C1040 1.477 . S
C2456 C1306 1.402 . S
C2467 C380 1.458 . S
C2472 C1222 1.302 . S
C2483 C440 1.465 . S
C2488 C1318 1.290 . S
C2504 C1138 1.341 . S
C2499 C500 1.423 . S
C2515 C200 1.459 . S
C2520 C1402 1.327 . S
C2531 C260 1.472 . S
C2536 C1486 1.334 . S
C2547 C320 1.470 . S
C2552 C1558 1.354 . S
C2563 C740 1.453 . S
C2568 C1474 1.302 . S
C2584 C1570 1.307 . S
C2579 C800 1.476 . S
C2595 C860 1.437 . S
C2600 C1390 1.377 . S
C2611 C560 1.413 . S
C2616 C1654 1.344 . S
C2627 C620 1.471 . S
C2632 C1738 1.376 . S
C2648 C1810 1.368 . S
C2643 C680 1.474 . S
C2659 C20 1.474 . S
C2664 C1726 1.377 . S
C2675 C80 1.433 . S
C2680 C1822 1.360 . S
C2691 C140 1.420 . S
C2696 C1642 1.328 . S
