# Generated by pormake.
# Topology zzz, (3,6)-cn, num edge types: 1
# Building blocks:
#     Node 0, Type 0, BuildingBlock: ESEHIV_clean_linker_0, # of connection points: 3
#     Node 1, Type 0, BuildingBlock: ESEHIV_clean_linker_0, # of connection points: 3
#     Node 2, Type 0, BuildingBlock: ESEHIV_clean_linker_0, # of connection points: 3
#     Node 3, Type 0, BuildingBlock: ESEHIV_clean_linker_0, # of connection points: 3
#     Node 4, Type 0, BuildingBlock: ESEHIV_clean_linker_0, # of connection points: 3
#     Node 5, Type 0, BuildingBlock: ESEHIV_clean_linker_0, # of connection points: 3
#     Node 6, Type 0, BuildingBlock: ESEHIV_clean_linker_0, # of connection points: 3
#     Node 7, Type 0, BuildingBlock: ESEHIV_clean_linker_0, # of connection points: 3
#     Node 8, Type 1, BuildingBlock: NUHQIS_clean_sbu_0, # of connection points: 6
#     Node 9, Type 1, BuildingBlock: NUHQIS_clean_sbu_0, # of connection points: 6
#     Node 10, Type 1, BuildingBlock: NUHQIS_clean_sbu_0, # of connection points: 6
#     Node 11, Type 1, BuildingBlock: NUHQIS_clean_sbu_0, # of connection points: 6
#     Edge 12, Type (0, 1), BuildingBlock: XIVTED_clean_linker_0, # of connection points: 2
#     Edge 13, Type (0, 1), BuildingBlock: XIVTED_clean_linker_0, # of connection points: 2
#     Edge 14, Type (0, 1), BuildingBlock: XIVTED_clean_linker_0, # of connection points: 2
#     Edge 15, Type (0, 1), BuildingBlock: XIVTED_clean_linker_0, # of connection points: 2
#     Edge 16, Type (0, 1), BuildingBlock: XIVTED_clean_linker_0, # of connection points: 2
#     Edge 17, Type (0, 1), BuildingBlock: XIVTED_clean_linker_0, # of connection points: 2
#     Edge 18, Type (0, 1), BuildingBlock: XIVTED_clean_linker_0, # of connection points: 2
#     Edge 19, Type (0, 1), BuildingBlock: XIVTED_clean_linker_0, # of connection points: 2
#     Edge 20, Type (0, 1), BuildingBlock: XIVTED_clean_linker_0, # of connection points: 2
#     Edge 21, Type (0, 1), BuildingBlock: XIVTED_clean_linker_0, # of connection points: 2
#     Edge 22, Type (0, 1), BuildingBlock: XIVTED_clean_linker_0, # of connection points: 2
#     Edge 23, Type (0, 1), BuildingBlock: XIVTED_clean_linker_0, # of connection points: 2
#     Edge 24, Type (0, 1), BuildingBlock: XIVTED_clean_linker_0, # of connection points: 2
#     Edge 25, Type (0, 1), BuildingBlock: XIVTED_clean_linker_0, # of connection points: 2
#     Edge 26, Type (0, 1), BuildingBlock: XIVTED_clean_linker_0, # of connection points: 2
#     Edge 27, Type (0, 1), BuildingBlock: XIVTED_clean_linker_0, # of connection points: 2
#     Edge 28, Type (0, 1), BuildingBlock: XIVTED_clean_linker_0, # of connection points: 2
#     Edge 29, Type (0, 1), BuildingBlock: XIVTED_clean_linker_0, # of connection points: 2
#     Edge 30, Type (0, 1), BuildingBlock: XIVTED_clean_linker_0, # of connection points: 2
#     Edge 31, Type (0, 1), BuildingBlock: XIVTED_clean_linker_0, # of connection points: 2
#     Edge 32, Type (0, 1), BuildingBlock: XIVTED_clean_linker_0, # of connection points: 2
#     Edge 33, Type (0, 1), BuildingBlock: XIVTED_clean_linker_0, # of connection points: 2
#     Edge 34, Type (0, 1), BuildingBlock: XIVTED_clean_linker_0, # of connection points: 2
#     Edge 35, Type (0, 1), BuildingBlock: XIVTED_clean_linker_0, # of connection points: 2
# Relax obj value: 0.478
# Max RMSD: 0.249
# Mean RMSD: 0.233
data_MOF--net-zzz--node1-NUHQIS_clean_sbu_0--node2-ESEHIV_clean_linker_0--edge1-XIVTED_clean_linker_0
_symmetry_space_group_name_H-M    P1
_symmetry_Int_Tables_number       1
_symmetry_cell_setting            triclinic
loop_
_symmetry_equiv_pos_as_xyz
'x, y, z'
_cell_length_a     45.895936
_cell_length_b     45.797781
_cell_length_c     14.842029
_cell_angle_alpha  89.858825
_cell_angle_beta   89.921554
_cell_angle_gamma 90.021167
loop_
_atom_site_label
_atom_site_type_symbol
_atom_site_fract_x
_atom_site_fract_y
_atom_site_fract_z
_atom_type_partial_charge
H0 H 0.78815 0.4377 0.37796 0.0
H1 H 0.71404 0.44002 0.20165 0.0
H2 H 0.7338 0.51403 0.36953 0.0
C3 C 0.76845 0.44831 0.35451 0.0
C4 C 0.76215 0.47648 0.38608 0.0
C5 C 0.7518 0.4352 0.28634 0.0
C6 C 0.72719 0.44993 0.25399 0.0
C7 C 0.72047 0.47825 0.28328 0.0
C8 C 0.73822 0.49179 0.34892 0.0
H9 H 0.07782 0.80094 0.32337 0.0
H10 H 0.08481 0.72388 0.16215 0.0
H11 H 0.01743 0.73023 0.36468 0.0
C12 C 0.0707 0.77898 0.30737 0.0
C13 C 0.04679 0.7673 0.35403 0.0
C14 C 0.08441 0.7636 0.23777 0.0
C15 C 0.07425 0.73569 0.21621 0.0
C16 C 0.05026 0.72305 0.26109 0.0
C17 C 0.03607 0.73934 0.32969 0.0
H18 H 0.72633 0.08104 0.36708 0.0
H19 H 0.8006 0.07594 0.19187 0.0
H20 H 0.78117 1.00493 0.37331 0.0
C21 C 0.74609 0.07006 0.34585 0.0
C22 C 0.75252 0.04253 0.38269 0.0
C23 C 0.76279 0.08203 0.27565 0.0
C24 C 0.78753 0.06691 0.24614 0.0
C25 C 0.79442 0.0392 0.28064 0.0
C26 C 0.77664 0.02673 0.3486 0.0
H27 H 0.44263 0.72419 0.37796 0.0
H28 H 0.50775 0.79163 0.38916 0.0
H29 H 0.43374 0.80006 0.21125 0.0
C30 C 0.45008 0.74572 0.35775 0.0
C31 C 0.43486 0.76112 0.29122 0.0
C32 C 0.4762 0.75634 0.39368 0.0
C33 C 0.48732 0.78345 0.36284 0.0
C34 C 0.47147 0.8 0.29848 0.0
C35 C 0.44544 0.78832 0.26333 0.0
H36 H 0.22344 0.56985 0.12166 0.0
H37 H 0.29936 0.57927 0.28602 0.0
H38 H 0.2878 0.50157 0.12489 0.0
C39 C 0.24446 0.56178 0.14391 0.0
C40 C 0.2538 0.53432 0.11435 0.0
C41 C 0.26065 0.57798 0.206 0.0
C42 C 0.28716 0.5668 0.23684 0.0
C43 C 0.29769 0.53951 0.20749 0.0
C44 C 0.28044 0.52283 0.1471 0.0
H45 H 0.93314 0.2208 0.12602 0.0
H46 H 0.92664 0.29543 0.29784 0.0
H47 H 1.00006 0.28656 0.11741 0.0
C48 C 0.94125 0.2419 0.14756 0.0
C49 C 0.96758 0.25213 0.11144 0.0
C50 C 0.92656 0.25715 0.21543 0.0
C51 C 0.93798 0.28377 0.24494 0.0
C52 C 0.96427 0.29507 0.21004 0.0
C53 C 0.97953 0.27865 0.144 0.0
H54 H 0.28653 0.94252 0.11411 0.0
H55 H 0.21086 0.94251 0.28495 0.0
H56 H 0.22919 0.01665 0.11466 0.0
C57 C 0.26627 0.95245 0.13585 0.0
C58 C 0.25919 0.98024 0.10265 0.0
C59 C 0.2495 0.93889 0.20319 0.0
C60 C 0.22408 0.95276 0.23315 0.0
C61 C 0.21646 0.98065 0.20166 0.0
C62 C 0.23432 0.99471 0.13695 0.0
H63 H 0.58721 0.29374 0.13265 0.0
H64 H 0.51324 0.23617 0.13981 0.0
H65 H 0.58861 0.21827 0.30447 0.0
C66 C 0.5773 0.27358 0.1559 0.0
C67 C 0.5914 0.2568 0.2218 0.0
C68 C 0.54933 0.26641 0.12508 0.0
C69 C 0.53514 0.24157 0.1612 0.0
C70 C 0.54977 0.22351 0.22427 0.0
C71 C 0.57785 0.23134 0.25338 0.0
Tb72 Tb 0.02771 1.00201 0.81438 0.0
Eu73 Eu 0.97903 0.01487 0.65681 0.0
C74 C 0.04738 0.01233 0.61191 0.0
C75 C 1.00269 0.0662 0.78903 0.0
C76 C 0.09263 0.97428 0.93743 0.0
C77 C 0.12606 0.9401 0.86751 0.0
C78 C 0.10523 0.96225 0.85977 0.0
C79 C 0.1028 0.96591 0.02231 0.0
C80 C 0.12327 0.9436 0.03018 0.0
C81 C 0.13401 0.9293 0.95298 0.0
C82 C 0.06618 0.99204 0.93201 0.0
O83 O 0.9856 0.99396 0.88086 0.0
O84 O 0.95428 0.0185 0.78664 0.0
O85 O 0.98195 0.96583 0.67048 0.0
O86 O 0.02738 0.96202 0.73319 0.0
C87 C 0.95991 1.00552 0.86351 0.0
O88 O 0.93648 1.00558 0.59857 0.0
O89 O 0.9659 0.03557 0.53077 0.0
O90 O 0.02113 1.0058 0.58365 0.0
O91 O 0.05249 0.01759 0.69754 0.0
O92 O 0.01259 0.04598 0.84399 0.0
O93 O 0.99259 0.05968 0.70835 0.0
C94 C 1.0053 0.95042 0.68936 0.0
O95 O 0.0668 0.01434 0.87746 0.0
O96 O 0.04209 0.9772 0.92434 0.0
C97 C 0.91574 0.04454 0.51634 0.0
C98 C 0.87605 0.09006 0.48197 0.0
C99 C 0.88092 0.08031 0.57074 0.0
C100 C 0.90082 0.05786 0.58787 0.0
C101 C 0.9093 0.05258 0.42767 0.0
C102 C 0.88973 0.07518 0.41053 0.0
C103 C 0.93982 0.02418 0.53265 0.0
H104 H 0.13424 0.92999 0.80666 0.0
H105 H 0.09762 0.96863 0.79349 0.0
H106 H 0.09327 0.97504 0.08286 0.0
H107 H 0.1284 0.93584 0.09726 0.0
H108 H 0.87058 0.09109 0.62723 0.0
H109 H 0.90549 0.05183 0.657 0.0
H110 H 0.92059 0.04245 0.3717 0.0
H111 H 0.88702 0.08227 0.34139 0.0
Tb112 Tb 0.51609 0.03454 0.83683 0.0
Eu113 Eu 0.49964 0.9873 0.67934 0.0
C114 C 0.50739 0.05546 0.63385 0.0
C115 C 0.45018 0.01566 0.80722 0.0
C116 C 0.55 0.09492 0.96854 0.0
C117 C 0.58807 0.1258 0.90623 0.0
C118 C 0.56434 0.10703 0.89374 0.0
C119 C 0.55824 0.10324 0.05538 0.0
C120 C 0.5821 0.12162 0.06799 0.0
C121 C 0.59811 0.13222 0.99369 0.0
C122 C 0.52929 0.0708 0.95835 0.0
O123 O 0.52372 0.99102 0.89528 0.0
O124 O 0.49065 0.96554 0.81223 0.0
O125 O 0.54887 0.98701 0.69131 0.0
O126 O 0.55534 0.03231 0.75379 0.0
C127 C 0.50668 0.96822 0.88456 0.0
O128 O 0.50279 0.9424 0.63076 0.0
O129 O 0.48019 0.97513 0.5513 0.0
O130 O 0.51113 0.02866 0.60482 0.0
O131 O 0.50346 0.06109 0.72003 0.0
O132 O 0.47082 0.02296 0.86437 0.0
O133 O 0.45638 1.00609 0.72573 0.0
C134 C 0.56558 1.00954 0.71004 0.0
O135 O 0.50799 0.07454 0.90162 0.0
O136 O 0.54112 0.04512 0.95007 0.0
C137 C 0.4613 0.92747 0.54989 0.0
C138 C 0.41196 0.8932 0.51047 0.0
C139 C 0.43959 0.88546 0.47664 0.0
C140 C 0.46404 0.90262 0.49569 0.0
C141 C 0.43435 0.93395 0.58955 0.0
C142 C 0.40989 0.9171 0.56969 0.0
C143 C 0.48606 0.9474 0.56141 0.0
H144 H 0.59956 0.13386 0.84746 0.0
H145 H 0.5582 0.10078 0.82601 0.0
H146 H 0.54745 0.09396 0.11381 0.0
H147 H 0.58933 0.12538 0.13634 0.0
H148 H 0.4421 0.86683 0.43262 0.0
H149 H 0.48483 0.89705 0.46566 0.0
H150 H 0.43194 0.95288 0.63258 0.0
H151 H 0.38906 0.92407 0.59635 0.0
Tb152 Tb 0.48952 0.51568 0.80994 0.0
Eu153 Eu 0.5366 0.49989 0.65124 0.0
C154 C 0.46873 0.50663 0.61069 0.0
C155 C 0.51333 0.45081 0.78753 0.0
C156 C 0.42892 0.55017 0.93618 0.0
C157 C 0.38647 0.56913 0.01397 0.0
C158 C 0.40494 0.54583 0.99311 0.0
C159 C 0.43306 0.57742 0.89501 0.0
C160 C 0.4149 0.60079 0.91663 0.0
C161 C 0.39206 0.59724 0.97924 0.0
C162 C 0.45055 0.52692 0.9248 0.0
O163 O 0.52979 0.50741 0.88404 0.0
O164 O 0.56319 0.51458 0.77092 0.0
O165 O 0.52302 0.54626 0.62448 0.0
O166 O 0.50529 0.55869 0.76425 0.0
C167 C 0.55671 0.5119 0.85687 0.0
O168 O 0.57724 0.50912 0.57988 0.0
O169 O 0.5492 0.47408 0.53455 0.0
O170 O 0.49155 0.49008 0.59599 0.0
O171 O 0.4674 0.52331 0.68224 0.0
O172 O 0.49073 0.46777 0.80364 0.0
O173 O 0.53579 0.46028 0.74103 0.0
C174 C 0.51468 0.56603 0.68307 0.0
O175 O 0.44662 0.50959 0.85641 0.0
O176 O 0.47772 0.53498 0.93237 0.0
C177 C 0.59937 0.46782 0.51378 0.0
C178 C 0.63987 0.42249 0.48736 0.0
C179 C 0.63247 0.43156 0.57509 0.0
C180 C 0.6122 0.45397 0.5882 0.0
C181 C 0.60839 0.46052 0.42674 0.0
C182 C 0.62847 0.43809 0.4135 0.0
C183 C 0.57423 0.4872 0.52482 0.0
H184 H 0.36872 0.56545 0.06074 0.0
H185 H 0.40119 0.52474 0.02434 0.0
H186 H 0.45128 0.58102 0.84986 0.0
H187 H 0.42022 0.62204 0.88904 0.0
H188 H 0.641 0.42019 0.63342 0.0
H189 H 0.6054 0.4594 0.65607 0.0
H190 H 0.59857 0.47096 0.36866 0.0
H191 H 0.63319 0.43155 0.34495 0.0
Tb192 Tb 0.99984 0.48325 0.82132 0.0
Eu193 Eu 0.01876 0.52974 0.66046 0.0
C194 C 0.00884 0.46246 0.61985 0.0
C195 C 0.06701 0.50357 0.79637 0.0
C196 C 0.96302 0.42251 0.94213 0.0
C197 C 0.94168 0.38113 0.02032 0.0
C198 C 0.96584 0.39864 1.0006 0.0
C199 C 0.93644 0.42744 0.89836 0.0
C200 C 0.91221 0.41025 0.91883 0.0
C201 C 0.91422 0.38759 0.98291 0.0
C202 C 0.98703 0.44345 0.9326 0.0
O203 O 1.00417 0.52381 0.89793 0.0
O204 O 0.01641 0.55698 0.78646 0.0
O205 O 0.97082 0.5208 0.6404 0.0
O206 O 0.95742 0.49902 0.77425 0.0
C207 C 0.01084 0.5504 0.87099 0.0
O208 O 0.01146 0.57199 0.59538 0.0
O209 O 0.0422 0.54122 0.53804 0.0
O210 O 0.02646 0.48447 0.60475 0.0
O211 O 0.99207 0.462 0.6916 0.0
O212 O 0.04776 0.4843 0.82543 0.0
O213 O 0.06018 0.52426 0.73878 0.0
C214 C 0.95077 0.51087 0.69587 0.0
O215 O 1.00432 0.43962 0.86394 0.0
O216 O 0.97992 0.47082 0.94246 0.0
C217 C 0.05372 0.59107 0.52714 0.0
C218 C 0.09928 0.63046 0.48981 0.0
C219 C 0.07191 0.63375 0.44803 0.0
C220 C 0.04939 0.61399 0.466 0.0
C221 C 0.07984 0.58949 0.57568 0.0
C222 C 0.10247 0.60889 0.55691 0.0
C223 C 0.03192 0.5678 0.5358 0.0
H224 H 0.94419 0.36347 0.06834 0.0
H225 H 0.98638 0.39429 0.034 0.0
H226 H 0.93402 0.44561 0.85212 0.0
H227 H 0.89151 0.41618 0.88912 0.0
H228 H 0.06843 0.65053 0.3977 0.0
H229 H 0.02909 0.61583 0.4292 0.0
H230 H 0.08338 0.57218 0.62435 0.0
H231 H 0.12314 0.60533 0.59018 0.0
H232 H 0.15938 0.97953 0.15018 0.0
H233 H 0.10485 0.02633 0.64246 0.0
H234 H 0.2163 0.01144 0.35777 0.0
H235 H 0.0464 0.99953 0.43065 0.0
H236 H 0.14529 0.02472 0.53523 0.0
H237 H 0.11713 0.99122 0.24564 0.0
C238 C 0.16284 0.98993 0.2147 0.0
C239 C 0.19123 0.99508 0.24556 0.0
C240 C 0.1236 0.01939 0.5119 0.0
C241 C 0.14325 1.00751 0.35691 0.0
C242 C 0.10042 0.02027 0.57333 0.0
C243 C 0.07203 0.01296 0.54605 0.0
C244 C 0.11858 0.01096 0.42216 0.0
C245 C 0.06783 1.0053 0.45518 0.0
C246 C 0.1388 0.9963 0.2697 0.0
C247 C 0.1947 1.00773 0.33087 0.0
N248 N 0.0908 1.00432 0.39688 0.0
N249 N 0.17108 0.01326 0.38379 0.0
H250 H 0.49995 0.22076 0.3266 0.0
H251 H 0.49096 0.1127 0.65867 0.0
H252 H 0.56958 0.16749 0.22323 0.0
H253 H 0.52694 0.0547 0.45872 0.0
H254 H 0.49552 0.1532 0.55185 0.0
H255 H 0.48453 0.17986 0.42323 0.0
C256 C 0.51153 0.2002 0.32275 0.0
C257 C 0.53601 0.19742 0.26672 0.0
C258 C 0.50184 0.13154 0.53046 0.0
C259 C 0.51928 0.15087 0.37925 0.0
C260 C 0.49952 0.10837 0.59198 0.0
C261 C 0.5085 0.0801 0.56793 0.0
C262 C 0.51355 0.12658 0.44417 0.0
C263 C 0.51956 0.07601 0.48041 0.0
C264 C 0.5031 0.17702 0.37913 0.0
C265 C 0.55053 0.17042 0.26526 0.0
N266 N 0.52211 0.09898 0.42237 0.0
N267 N 0.54203 0.14828 0.32075 0.0
H268 H 0.31341 0.48517 0.27672 0.0
H269 H 0.43687 0.55474 0.56988 0.0
H270 H 0.34723 0.57136 0.22512 0.0
H271 H 0.447 0.46434 0.49565 0.0
H272 H 0.39798 0.55956 0.45877 0.0
H273 H 0.35747 0.47439 0.36676 0.0
C274 C 0.33034 0.50154 0.28224 0.0
C275 C 0.32639 0.52943 0.24421 0.0
C276 C 0.40873 0.53865 0.46651 0.0
C277 C 0.37612 0.51754 0.34863 0.0
C278 C 0.43084 0.53583 0.53032 0.0
C279 C 0.44526 0.50911 0.54206 0.0
C280 C 0.40024 0.51441 0.41507 0.0
C281 C 0.43653 0.48538 0.48829 0.0
C282 C 0.35535 0.49544 0.33404 0.0
C283 C 0.34906 0.54981 0.2543 0.0
N284 N 0.41427 0.48845 0.42773 0.0
N285 N 0.3725 0.54372 0.30671 0.0
H286 H 0.93226 0.34376 0.24195 0.0
H287 H 0.0492 0.44127 0.49741 0.0
H288 H 0.01991 0.31124 0.26717 0.0
H289 H 0.96013 0.4306 0.58437 0.0
H290 H 0.04156 0.40228 0.38474 0.0
H291 H 0.94525 0.38587 0.33319 0.0
C292 C 0.95448 0.3458 0.26504 0.0
C293 C 0.97482 0.3236 0.24739 0.0
C294 C 0.02381 0.40859 0.4287 0.0
C295 C 0.98995 0.3721 0.35352 0.0
C296 C 0.02807 0.43085 0.49266 0.0
C297 C 1.00529 0.43915 0.5508 0.0
C298 C 0.99633 0.3953 0.4211 0.0
C299 C 0.9784 0.42484 0.54173 0.0
C300 C 0.96182 0.36977 0.31789 0.0
C301 C 1.00345 0.32771 0.27904 0.0
N302 N 0.97463 0.40395 0.47785 0.0
N303 N 0.01014 0.35136 0.33152 0.0
H304 H 0.79123 0.01125 0.1209 0.0
H305 H 0.96435 1.00024 0.04877 0.0
H306 H 0.85166 0.03318 0.33138 0.0
H307 H 0.90127 1.00828 0.83498 0.0
H308 H 0.92424 1.00188 0.15946 0.0
H309 H 0.83212 0.9979 0.02338 0.0
C310 C 0.81318 0.01227 0.14753 0.0
C311 C 0.81814 0.02298 0.23456 0.0
C312 C 0.91927 1.00302 0.08823 0.0
C313 C 0.86528 1.00879 0.12213 0.0
C314 C 0.94211 1.00199 0.02503 0.0
C315 C 0.93622 1.00428 0.93229 0.0
C316 C 0.89032 1.00575 0.05835 0.0
C317 C 0.90696 1.00668 0.90559 0.0
C318 C 0.83656 1.00507 0.09147 0.0
C319 C 0.84704 0.02468 0.26501 0.0
N320 N 0.88525 1.0073 0.96801 0.0
N321 N 0.86961 0.01793 0.20863 0.0
H322 H 0.52643 0.81706 0.23876 0.0
H323 H 0.45806 0.9379 0.92881 0.0
H324 H 0.43866 0.84853 0.27202 0.0
H325 H 0.54825 0.94745 1.00417 0.0
H326 H 0.45234 0.90023 0.04386 0.0
H327 H 0.53758 0.86094 0.1475 0.0
C328 C 0.50976 0.8335 0.22918 0.0
C329 C 0.4814 0.82891 0.26242 0.0
C330 C 0.4734 0.91061 0.03575 0.0
C331 C 0.49376 0.87846 0.15663 0.0
C332 C 0.47673 0.93202 0.96962 0.0
C333 C 0.50367 0.94586 0.95678 0.0
C334 C 0.49734 0.90223 0.08866 0.0
C335 C 0.52706 0.9374 0.01228 0.0
C336 C 0.51609 0.85841 0.17666 0.0
C337 C 0.46065 0.85092 0.24702 0.0
N338 N 0.5235 0.91578 0.07519 0.0
N339 N 0.46704 0.87428 0.19418 0.0
H340 H 0.66341 0.48381 0.33379 0.0
H341 H 0.61494 0.52258 0.82849 0.0
H342 H 0.72326 0.50471 0.11998 0.0
H343 H 0.55354 0.50259 0.04038 0.0
H344 H 0.65435 0.52098 0.93864 0.0
H345 H 0.62248 0.49628 0.2336 0.0
C346 C 0.66786 0.49194 0.26666 0.0
C347 C 0.69663 0.49366 0.23535 0.0
C348 C 0.63225 0.51713 0.96137 0.0
C349 C 0.65017 0.50704 0.1193 0.0
C350 C 0.60964 0.51799 0.89824 0.0
C351 C 0.58073 0.51255 0.92465 0.0
C352 C 0.62614 0.51061 0.0521 0.0
C353 C 0.57542 0.50685 0.01648 0.0
C354 C 0.64457 0.49875 0.20913 0.0
C355 C 0.70137 0.50362 0.14707 0.0
N356 N 0.59787 0.50583 0.07658 0.0
N357 N 0.67844 0.50966 0.09202 0.0
H358 H 0.99446 0.70204 0.22524 0.0
H359 H 0.05412 0.59053 0.87707 0.0
H360 H 0.08476 0.67627 0.22406 0.0
H361 H 0.97658 0.56382 0.01929 0.0
H362 H 0.06147 0.62934 0.98773 0.0
H363 H 0.98258 0.65718 0.14013 0.0
C364 C 0.01164 0.68667 0.20953 0.0
C365 C 0.04078 0.69325 0.23094 0.0
C366 C 0.04281 0.61501 0.99476 0.0
C367 C 0.02746 0.64265 0.13175 0.0
C368 C 0.03852 0.59296 0.93142 0.0
C369 C 0.01474 0.57389 0.93902 0.0
C370 C 0.02275 0.61879 0.06526 0.0
C371 C 0.9953 0.57799 1.0114 0.0
C372 C 1.00486 0.66121 0.1605 0.0
C373 C 0.06211 0.67248 0.20792 0.0
N374 N 0.99948 0.60029 0.07132 0.0
N375 N 0.05518 0.64865 0.1581 0.0
H376 H 0.91453 0.25767 0.39666 0.0
H377 H 0.84101 0.10648 0.3392 0.0
H378 H 0.88179 0.22423 0.14451 0.0
H379 H 0.87972 0.13981 0.5832 0.0
H380 H 0.83668 0.1565 0.28307 0.0
H381 H 0.88301 0.22398 0.4769 0.0
C382 C 0.90009 0.2439 0.35778 0.0
C383 C 0.90172 0.24307 0.26332 0.0
C384 C 0.84526 0.1529 0.35012 0.0
C385 C 0.86631 0.20341 0.35558 0.0
C386 C 0.84781 0.12432 0.38216 0.0
C387 C 0.86214 0.1188 0.46408 0.0
C388 C 0.85725 0.17591 0.4004 0.0
C389 C 0.86925 0.14278 0.51857 0.0
C390 C 0.88214 0.22441 0.40398 0.0
C391 C 0.88224 0.22471 0.21741 0.0
N392 N 0.86752 0.17023 0.48463 0.0
N393 N 0.86597 0.20498 0.26392 0.0
H394 H 0.24805 0.92865 0.38541 0.0
H395 H 0.40168 0.87567 0.33741 0.0
H396 H 0.28008 0.89164 0.13704 0.0
H397 H 0.35996 0.88138 0.59745 0.0
H398 H 0.35469 0.86792 0.26819 0.0
H399 H 0.28245 0.89894 0.46853 0.0
C400 C 0.26152 0.9135 0.34812 0.0
C401 C 0.26197 0.91366 0.25344 0.0
C402 C 0.35572 0.86997 0.34079 0.0
C403 C 0.30242 0.88032 0.34884 0.0
C404 C 0.38283 0.8741 0.38081 0.0
C405 C 0.38492 0.87991 0.47341 0.0
C406 C 0.33038 0.87276 0.39313 0.0
C407 C 0.35934 0.87815 0.52527 0.0
C408 C 0.28145 0.89656 0.39602 0.0
C409 C 0.27993 0.89326 0.20979 0.0
N410 N 0.33302 0.87567 0.4841 0.0
N411 N 0.30016 0.87815 0.25758 0.0
H412 H 0.63892 0.28476 0.14751 0.0
H413 H 0.6794 0.4068 0.35525 0.0
H414 H 0.60283 0.25757 0.40269 0.0
H415 H 0.632 0.37186 0.58249 0.0
H416 H 0.6859 0.35746 0.29839 0.0
H417 H 0.66967 0.31956 0.22548 0.0
C418 C 0.63808 0.28558 0.22041 0.0
C419 C 0.61731 0.26915 0.26816 0.0
C420 C 0.67437 0.36031 0.36124 0.0
C421 C 0.65234 0.30936 0.35905 0.0
C422 C 0.67087 0.38866 0.39419 0.0
C423 C 0.65384 0.39367 0.47139 0.0
C424 C 0.6603 0.33697 0.40538 0.0
C425 C 0.64461 0.36931 0.52138 0.0
C426 C 0.65575 0.30561 0.26549 0.0
C427 C 0.61798 0.27023 0.36257 0.0
N428 N 0.64724 0.34215 0.48618 0.0
N429 N 0.63455 0.2906 0.40459 0.0
H430 H 0.23125 0.6225 0.1215 0.0
H431 H 0.14886 0.64947 0.57828 0.0
H432 H 0.25986 0.59374 0.38394 0.0
H433 H 0.11076 0.64301 0.31335 0.0
H434 H 0.19692 0.65438 0.50806 0.0
H435 H 0.19652 0.65541 0.19412 0.0
C436 C 0.23084 0.62373 0.19437 0.0
C437 C 0.24757 0.60448 0.24677 0.0
C438 C 0.17778 0.65313 0.4656 0.0
C439 C 0.20813 0.64204 0.3298 0.0
C440 C 0.15035 0.65012 0.50548 0.0
C441 C 0.12571 0.64478 0.45177 0.0
C442 C 0.18038 0.6511 0.37161 0.0
C443 C 0.1289 0.647 0.35789 0.0
C444 C 0.21115 0.64263 0.23569 0.0
C445 C 0.24694 0.60773 0.3408 0.0
N446 N 0.1558 0.64932 0.32086 0.0
N447 N 0.22688 0.62554 0.37945 0.0
H448 H 0.09383 0.7589 0.05501 0.0
H449 H 0.12548 0.88134 0.84611 0.0
H450 H 0.12799 0.80102 0.29252 0.0
H451 H 0.172 0.90895 0.08374 0.0
H452 H 0.1287 0.8317 0.89594 0.0
H453 H 0.12399 0.79 0.96235 0.0
C454 C 0.10797 0.77444 0.08816 0.0
C455 C 0.10731 0.77806 0.18212 0.0
C456 C 0.13901 0.84813 0.93706 0.0
C457 C 0.14061 0.81571 0.07478 0.0
C458 C 0.13744 0.87695 0.90748 0.0
C459 C 0.14712 0.89975 0.96305 0.0
C460 C 0.14986 0.84209 0.02377 0.0
C461 C 0.16278 0.89221 0.04097 0.0
C462 C 0.12497 0.79278 0.03451 0.0
C463 C 0.12658 0.79839 0.22021 0.0
N464 N 0.16271 0.86413 0.07073 0.0
N465 N 0.14181 0.81695 0.16639 0.0
H466 H 0.73485 0.13172 0.3358 0.0
H467 H 0.64736 0.12382 0.89166 0.0
H468 H 0.76246 0.08843 0.09219 0.0
H469 H 0.61734 0.1684 0.13048 0.0
H470 H 0.69698 0.12846 0.94451 0.0
H471 H 0.70093 0.16109 0.24683 0.0
C472 C 0.7344 0.12895 0.26336 0.0
C473 C 0.75072 0.10672 0.22207 0.0
C474 C 0.67966 0.13788 0.98465 0.0
C475 C 0.71195 0.14016 0.11997 0.0
C476 C 0.65109 0.13549 0.9539 0.0
C477 C 0.62778 0.1445 1.00865 0.0
C478 C 0.68493 0.14862 0.07169 0.0
C479 C 0.63448 0.15972 0.08817 0.0
C480 C 0.71508 0.1458 0.21249 0.0
C481 C 0.75002 0.10486 0.12764 0.0
N482 N 0.66235 0.16041 0.11891 0.0
N483 N 0.73036 0.12076 0.0802 0.0
H484 H 0.42382 0.76168 0.10963 0.0
H485 H 0.37666 0.60576 0.15513 0.0
H486 H 0.39083 0.72685 0.36034 0.0
H487 H 0.37667 0.64925 0.89686 0.0
H488 H 0.36833 0.65203 0.22814 0.0
H489 H 0.39467 0.72633 0.02809 0.0
C490 C 0.40968 0.74729 0.14777 0.0
C491 C 0.41067 0.74652 0.24233 0.0
C492 C 0.36923 0.65152 0.15524 0.0
C493 C 0.37794 0.70519 0.14888 0.0
C494 C 0.37365 0.62479 0.11304 0.0
C495 C 0.37809 0.62347 0.01952 0.0
C496 C 0.37045 0.67731 0.10407 0.0
C497 C 0.37458 0.64932 0.9695 0.0
C498 C 0.39305 0.72691 0.10087 0.0
C499 C 0.3917 0.72736 0.28747 0.0
N500 N 0.37195 0.67534 0.01259 0.0
N501 N 0.3768 0.70684 0.24045 0.0
H502 H 0.75113 0.42486 0.1042 0.0
H503 H 0.90336 0.3739 0.15862 0.0
H504 H 0.78073 0.38714 0.35479 0.0
H505 H 0.86264 0.37343 0.8969 0.0
H506 H 0.85642 0.36603 0.22805 0.0
H507 H 0.78548 0.39453 0.02341 0.0
C508 C 0.76401 0.40941 0.14248 0.0
C509 C 0.76387 0.40959 0.23721 0.0
C510 C 0.85767 0.36665 0.15519 0.0
C511 C 0.80428 0.37551 0.14437 0.0
C512 C 0.88479 0.37077 0.11513 0.0
C513 C 0.88716 0.37472 0.0216 0.0
C514 C 0.83248 0.36782 0.10185 0.0
C515 C 0.8618 0.37152 0.96955 0.0
C516 C 0.7839 0.3921 0.09586 0.0
C517 C 0.7811 0.38879 0.28203 0.0
N518 N 0.83538 0.36921 1.01053 0.0
N519 N 0.80137 0.37333 0.23551 0.0
H520 H 0.01604 0.21819 0.13466 0.0
H521 H 0.97346 0.1141 0.71898 0.0
H522 H 0.94967 0.23956 0.94089 0.0
H523 H 0.03048 0.08885 0.9365 0.0
H524 H 0.97052 0.16338 0.78372 0.0
H525 H 0.02864 0.17484 0.04553 0.0
C526 C 1.00498 0.21443 0.07131 0.0
C527 C 0.98213 0.23279 0.04439 0.0
C528 C 0.98387 0.14709 0.81679 0.0
C529 C 0.9955 0.18248 0.94358 0.0
C530 C 0.98558 0.11891 0.77971 0.0
C531 C 1.00203 0.09702 0.82249 0.0
C532 C 0.99889 0.15363 0.89701 0.0
C533 C 0.01725 0.10475 0.9013 0.0
C534 C 0.01179 0.18938 0.02112 0.0
C535 C 0.96778 0.22623 0.9632 0.0
N536 N 0.01521 0.13221 0.93591 0.0
N537 N 0.97445 0.20155 0.91633 0.0
H538 H 0.27371 0.96306 0.93274 0.0
H539 H 0.4282 0.04203 0.95842 0.0
H540 H 0.29532 0.0266 0.13514 0.0
H541 H 0.40154 0.99012 0.73075 0.0
H542 H 0.37866 0.03928 0.01809 0.0
H543 H 0.31826 0.97592 0.85037 0.0
C544 C 0.28737 0.98049 0.95808 0.0
C545 C 0.28055 0.99412 0.04016 0.0
C546 C 0.38349 0.02871 0.95462 0.0
C547 C 0.33242 1.00812 0.94828 0.0
C548 C 0.4119 0.03019 0.92043 0.0
C549 C 0.4193 0.01614 0.8394 0.0
C550 C 0.36209 0.01275 0.90834 0.0
C551 C 0.397 1.0013 0.79337 0.0
C552 C 0.313 0.98761 0.9116 0.0
C553 C 0.29945 0.01597 0.0713 0.0
N554 N 0.36958 0.99974 0.82891 0.0
N555 N 0.32469 0.02198 0.02614 0.0
H556 H 0.50065 0.30079 0.14704 0.0
H557 H 0.55163 0.40678 0.74718 0.0
H558 H 0.56874 0.28045 0.95752 0.0
H559 H 0.47711 0.42559 0.91477 0.0
H560 H 0.5552 0.35866 0.81692 0.0
H561 H 0.48786 0.34391 0.05566 0.0
C562 C 0.51219 0.30482 0.08453 0.0
C563 C 0.53562 0.28688 0.05938 0.0
C564 C 0.53787 0.37314 0.83817 0.0
C565 C 0.52187 0.33665 0.95613 0.0
C566 C 0.53585 0.40078 0.79829 0.0
C567 C 0.5141 0.42052 0.82514 0.0
C568 C 0.51823 0.36498 0.90659 0.0
C569 C 0.49424 0.41119 0.89171 0.0
C570 C 0.50517 0.32964 0.03295 0.0
C571 C 0.55039 0.29358 0.97897 0.0
N572 N 0.49696 0.38427 0.93069 0.0
N573 N 0.54352 0.31798 0.93105 0.0
H574 H 0.21617 0.48966 0.15362 0.0
H575 H 0.11483 0.5345 0.738 0.0
H576 H 0.24343 0.54646 0.93807 0.0
H577 H 0.08906 0.47055 0.93675 0.0
H578 H 0.16358 0.53536 0.80338 0.0
H579 H 0.17206 0.47747 0.06756 0.0
C580 C 0.21349 0.49853 0.0864 0.0
C581 C 0.2338 0.51863 0.05213 0.0
C582 C 0.1474 0.52091 0.8324 0.0
C583 C 0.18269 0.50597 0.95489 0.0
C584 C 0.1194 0.52045 0.79506 0.0
C585 C 0.09751 0.50252 0.83188 0.0
C586 C 0.15382 0.50355 0.90812 0.0
C587 C 0.10508 0.48476 0.90585 0.0
C588 C 0.18806 0.49197 0.03783 0.0
C589 C 0.22864 0.53041 0.96613 0.0
N590 N 0.13242 0.48593 0.94192 0.0
N591 N 0.20353 0.52423 0.92121 0.0
H592 H 0.07102 0.782 0.51446 0.0
H593 H 0.96672 0.92098 0.58026 0.0
H594 H 0.99524 0.79784 0.35111 0.0
H595 H 0.0491 0.90996 0.71592 0.0
H596 H 0.97252 0.87259 0.51299 0.0
H597 H 0.05834 0.82421 0.60761 0.0
C598 C 0.05105 0.79376 0.50038 0.0
C599 C 0.03387 0.78602 0.42585 0.0
C600 C 0.98922 0.88063 0.55804 0.0
C601 C 0.01976 0.83538 0.53025 0.0
C602 C 0.98593 0.90835 0.5968 0.0
C603 C 1.00752 0.91988 0.65393 0.0
C604 C 0.01425 0.86399 0.57643 0.0
C605 C 0.03189 0.90222 0.67225 0.0
C606 C 0.04404 0.81817 0.55277 0.0
C607 C 0.00873 0.80262 0.40901 0.0
N608 N 0.03462 0.87535 0.63349 0.0
N609 N 1.0026 0.82666 0.46007 0.0
H610 H 0.71991 0.99214 0.37204 0.0
H611 H 0.60832 0.04963 0.74784 0.0
H612 H 0.73536 0.06672 0.54155 0.0
H613 H 0.5929 0.97165 0.59238 0.0
H614 H 0.65695 0.05314 0.68206 0.0
H615 H 0.67627 0.98052 0.46199 0.0
C616 C 0.71467 1.00548 0.43 0.0
C617 C 0.73139 0.03036 0.44958 0.0
C618 C 0.64309 0.03508 0.66268 0.0
C619 C 0.681 0.0178 0.55119 0.0
C620 C 0.61518 0.03308 0.70032 0.0
C621 C 0.59622 0.01038 0.67557 0.0
C622 C 0.65235 0.01441 0.59879 0.0
C623 C 0.60663 0.98957 0.61366 0.0
C624 C 0.68954 0.99909 0.48068 0.0
C625 C 0.72315 0.04729 0.52426 0.0
N626 N 0.63381 0.99223 0.5769 0.0
N627 N 0.6985 0.04091 0.57143 0.0
H628 H 0.46094 0.74327 0.56649 0.0
H629 H 0.54214 0.58985 0.53651 0.0
H630 H 0.52371 0.72207 0.36125 0.0
H631 H 0.48739 0.61372 0.76107 0.0
H632 H 0.53922 0.63981 0.4803 0.0
H633 H 0.47467 0.69893 0.64911 0.0
C634 C 0.47855 0.72988 0.54087 0.0
C635 C 0.49163 0.73669 0.45776 0.0
C636 C 0.52803 0.6343 0.54232 0.0
C637 C 0.5065 0.68497 0.54968 0.0
C638 C 0.52959 0.60562 0.57454 0.0
C639 C 0.51478 0.59728 0.65356 0.0
C640 C 0.51124 0.65509 0.58854 0.0
C641 C 0.49912 0.61898 0.69986 0.0
C642 C 0.48608 0.70431 0.58736 0.0
C643 C 0.51356 0.71801 0.42598 0.0
N644 N 0.4975 0.64674 0.66617 0.0
N645 N 0.51997 0.69285 0.47116 0.0
H646 H 0.79626 0.52503 0.36061 0.0
H647 H 0.90311 0.48264 0.76962 0.0
H648 H 0.77828 0.45657 0.55214 0.0
H649 H 0.92749 0.53945 0.5497 0.0
H650 H 0.85382 0.47951 0.70702 0.0
H651 H 0.84023 0.53784 0.44644 0.0
C652 C 0.80101 0.51339 0.42248 0.0
C653 C 0.78346 0.48985 0.44965 0.0
C654 C 0.86989 0.49289 0.67293 0.0
C655 C 0.83418 0.50378 0.54704 0.0
C656 C 0.8981 0.49474 0.70885 0.0
C657 C 0.91977 0.51112 0.66471 0.0
C658 C 0.86306 0.50768 0.59243 0.0
C659 C 0.91173 0.52632 0.58595 0.0
C660 C 0.82634 0.5204 0.47083 0.0
C661 C 0.79111 0.47499 0.52922 0.0
N662 N 0.8842 0.52411 0.55231 0.0
N663 N 0.81594 0.482 0.57451 0.0
loop_
_geom_bond_atom_site_label_1
_geom_bond_atom_site_label_2
_geom_bond_distance
_geom_bond_site_symmetry_2
_ccdc_geom_bond_type
H0 C3 0.931 . S
H1 C6 0.928 . S
H2 C8 0.930 . S
C3 H0 0.931 . S
C3 C4 1.413 . S
C3 C5 1.360 . S
C4 C3 1.413 . S
C4 C8 1.429 . S
C5 C3 1.360 . S
C5 C6 1.372 . S
C6 H1 0.928 . S
C6 C5 1.372 . S
C6 C7 1.404 . S
C7 C6 1.404 . S
C7 C8 1.391 . S
C8 H2 0.930 . S
C8 C4 1.429 . S
C8 C7 1.391 . S
H9 C12 0.931 . S
H10 C15 0.928 . S
H11 C17 0.930 . S
C12 H9 0.931 . S
C12 C13 1.413 . S
C12 C14 1.360 . S
C13 C12 1.413 . S
C13 C17 1.429 1_655 S
C14 C12 1.360 . S
C14 C15 1.372 . S
C15 H10 0.928 . S
C15 C14 1.372 . S
C15 C16 1.404 . S
C16 C15 1.404 . S
C16 C17 1.390 1_655 S
C17 H11 0.930 . S
C17 C13 1.429 1_455 S
C17 C16 1.390 1_455 S
H18 C21 0.931 . S
H19 C24 0.928 . S
H20 C26 0.930 . S
C21 H18 0.931 . S
C21 C22 1.413 . S
C21 C23 1.360 . S
C22 C21 1.413 . S
C22 C26 1.429 1_565 S
C23 C21 1.360 . S
C23 C24 1.372 . S
C24 H19 0.928 . S
C24 C23 1.372 . S
C24 C25 1.404 . S
C25 C24 1.404 . S
C25 C26 1.390 1_565 S
C26 H20 0.930 . S
C26 C22 1.429 1_545 S
C26 C25 1.390 1_545 S
H27 C30 0.931 . S
H28 C33 0.928 . S
H29 C35 0.930 . S
C30 H27 0.931 . S
C30 C31 1.413 . S
C30 C32 1.360 . S
C31 C30 1.413 . S
C31 C35 1.429 . S
C32 C30 1.360 . S
C32 C33 1.372 . S
C33 H28 0.928 . S
C33 C32 1.372 . S
C33 C34 1.404 . S
C34 C33 1.404 . S
C34 C35 1.391 . S
C35 H29 0.930 . S
C35 C31 1.429 . S
C35 C34 1.391 . S
H36 C39 0.931 . S
H37 C42 0.928 . S
H38 C44 0.930 . S
C39 H36 0.931 . S
C39 C40 1.413 1_554 S
C39 C41 1.360 . S
C40 C39 1.413 1_556 S
C40 C44 1.429 . S
C41 C39 1.360 . S
C41 C42 1.372 . S
C42 H37 0.928 . S
C42 C41 1.372 . S
C42 C43 1.404 . S
C43 C42 1.404 . S
C43 C44 1.391 1_554 S
C44 H38 0.930 . S
C44 C40 1.429 . S
C44 C43 1.391 1_556 S
H45 C48 0.931 . S
H46 C51 0.928 . S
H47 C53 0.930 . S
C48 H45 0.931 . S
C48 C49 1.413 1_554 S
C48 C50 1.360 . S
C49 C48 1.413 1_556 S
C49 C53 1.429 1_655 S
C50 C48 1.360 . S
C50 C51 1.372 . S
C51 H46 0.928 . S
C51 C50 1.372 . S
C51 C52 1.404 . S
C52 C51 1.404 . S
C52 C53 1.391 1_654 S
C53 H47 0.930 . S
C53 C49 1.429 1_455 S
C53 C52 1.391 1_456 S
H54 C57 0.931 . S
H55 C60 0.928 . S
H56 C62 0.930 . S
C57 H54 0.931 . S
C57 C58 1.413 1_554 S
C57 C59 1.360 . S
C58 C57 1.413 1_556 S
C58 C62 1.429 1_565 S
C59 C57 1.360 . S
C59 C60 1.372 . S
C60 H55 0.928 . S
C60 C59 1.372 . S
C60 C61 1.404 . S
C61 C60 1.404 . S
C61 C62 1.391 1_564 S
C62 H56 0.930 . S
C62 C58 1.429 1_545 S
C62 C61 1.391 1_546 S
H63 C66 0.931 . S
H64 C69 0.928 . S
H65 C71 0.930 . S
C66 H63 0.931 . S
C66 C67 1.413 . S
C66 C68 1.360 1_554 S
C67 C66 1.413 . S
C67 C71 1.429 . S
C68 C66 1.360 1_556 S
C68 C69 1.372 . S
C69 H64 0.928 . S
C69 C68 1.372 . S
C69 C70 1.404 1_556 S
C70 C69 1.404 1_554 S
C70 C71 1.391 . S
C71 H65 0.930 . S
C71 C67 1.429 . S
C71 C70 1.391 . S
Tb72 C82 2.825 . S
Tb72 O83 2.347 1_455 S
Tb72 O86 2.366 . S
Tb72 O91 2.418 . S
Tb72 O92 2.384 1_565 S
Tb72 O95 2.479 . S
Tb72 O96 2.471 . S
Eu73 O84 2.418 . S
Eu73 O85 2.384 1_545 S
Eu73 O88 2.479 . S
Eu73 O89 2.471 . S
Eu73 O90 2.347 1_655 S
Eu73 O93 2.366 . S
Eu73 C103 2.825 . S
C74 O90 1.259 1_565 S
C74 O91 1.265 . S
C75 O92 1.255 . S
C75 O93 1.265 1_455 S
C76 C78 1.380 . S
C76 C79 1.374 . S
C76 C82 1.507 . S
C77 C78 1.384 1_554 S
C77 C81 1.387 . S
C77 H104 0.930 . S
C78 C76 1.380 . S
C78 C77 1.384 1_556 S
C78 H105 0.931 . S
C79 C76 1.374 . S
C79 C80 1.390 1_556 S
C79 H106 0.930 1_455 S
C80 C79 1.390 1_554 S
C80 C81 1.391 . S
C80 H107 0.898 1_455 S
C81 C77 1.387 . S
C81 C80 1.391 . S
C82 Tb72 2.825 . S
C82 C76 1.507 . S
C82 O95 1.238 . S
C82 O96 1.247 . S
O83 Tb72 2.347 1_655 S
O83 C87 1.259 1_565 S
O84 Eu73 2.418 . S
O84 C87 1.265 . S
O85 Eu73 2.384 1_565 S
O85 C94 1.255 . S
O86 Tb72 2.366 . S
O86 C94 1.265 1_455 S
C87 O83 1.259 1_545 S
C87 O84 1.265 . S
O88 Eu73 2.479 . S
O88 C103 1.238 . S
O89 Eu73 2.471 . S
O89 C103 1.247 . S
O90 Eu73 2.347 1_455 S
O90 C74 1.259 1_545 S
O91 Tb72 2.418 . S
O91 C74 1.265 . S
O92 Tb72 2.384 1_545 S
O92 C75 1.255 . S
O93 Eu73 2.366 . S
O93 C75 1.265 1_655 S
C94 O85 1.255 . S
C94 O86 1.265 1_655 S
O95 Tb72 2.479 . S
O95 C82 1.238 . S
O96 Tb72 2.471 . S
O96 C82 1.247 . S
C97 C100 1.380 . S
C97 C101 1.374 . S
C97 C103 1.507 . S
C98 C99 1.387 . S
C98 C102 1.391 . S
C99 C98 1.387 . S
C99 C100 1.384 . S
C99 H108 0.930 . S
C100 C97 1.380 . S
C100 C99 1.384 . S
C100 H109 0.931 . S
C101 C97 1.374 . S
C101 C102 1.390 . S
C101 H110 0.930 1_655 S
C102 C98 1.391 . S
C102 C101 1.390 . S
C102 H111 0.930 1_655 S
C103 Eu73 2.825 . S
C103 O88 1.238 . S
C103 O89 1.247 . S
C103 C97 1.507 . S
H104 C77 0.930 . S
H105 C78 0.931 . S
H106 C79 0.930 1_655 S
H107 C80 0.898 1_655 S
H108 C99 0.930 . S
H109 C100 0.931 . S
H110 C101 0.930 1_455 S
H111 C102 0.930 1_455 S
Tb112 C122 2.825 . S
Tb112 O123 2.347 1_545 S
Tb112 O126 2.366 . S
Tb112 O131 2.418 . S
Tb112 O132 2.384 . S
Tb112 O135 2.479 . S
Tb112 O136 2.471 . S
Eu113 O124 2.418 . S
Eu113 O125 2.384 . S
Eu113 O128 2.479 . S
Eu113 O129 2.471 . S
Eu113 O130 2.347 1_565 S
Eu113 O133 2.366 . S
Eu113 C143 2.825 . S
C114 O130 1.259 . S
C114 O131 1.265 . S
C115 O132 1.255 . S
C115 O133 1.265 1_545 S
C116 C118 1.380 . S
C116 C119 1.374 . S
C116 C122 1.507 . S
C117 C118 1.384 1_554 S
C117 C121 1.387 . S
C117 H144 0.930 . S
C118 C116 1.380 . S
C118 C117 1.384 1_556 S
C118 H145 0.931 . S
C119 C116 1.374 . S
C119 C120 1.390 1_556 S
C119 H146 0.930 1_545 S
C120 C119 1.390 1_554 S
C120 C121 1.391 . S
C120 H147 0.930 1_545 S
C121 C117 1.387 . S
C121 C120 1.391 . S
C122 Tb112 2.825 . S
C122 C116 1.507 . S
C122 O135 1.238 . S
C122 O136 1.247 . S
O123 Tb112 2.347 1_565 S
O123 C127 1.259 . S
O124 Eu113 2.418 . S
O124 C127 1.265 . S
O125 Eu113 2.384 . S
O125 C134 1.255 . S
O126 Tb112 2.366 . S
O126 C134 1.265 1_545 S
C127 O123 1.259 . S
C127 O124 1.265 . S
O128 Eu113 2.479 . S
O128 C143 1.238 . S
O129 Eu113 2.471 . S
O129 C143 1.247 . S
O130 Eu113 2.347 1_545 S
O130 C114 1.259 . S
O131 Tb112 2.418 . S
O131 C114 1.265 . S
O132 Tb112 2.384 . S
O132 C115 1.255 . S
O133 Eu113 2.366 . S
O133 C115 1.265 1_565 S
C134 O125 1.255 . S
C134 O126 1.265 1_565 S
O135 Tb112 2.479 . S
O135 C122 1.238 . S
O136 Tb112 2.471 . S
O136 C122 1.247 . S
C137 C140 1.380 . S
C137 C141 1.374 . S
C137 C143 1.507 . S
C138 C139 1.387 . S
C138 C142 1.391 . S
C139 C138 1.387 . S
C139 C140 1.384 . S
C139 H148 0.930 . S
C140 C137 1.380 . S
C140 C139 1.384 . S
C140 H149 0.931 . S
C141 C137 1.374 . S
C141 C142 1.390 . S
C141 H150 0.930 1_565 S
C142 C138 1.391 . S
C142 C141 1.390 . S
C142 H151 0.930 1_565 S
C143 Eu113 2.825 . S
C143 O128 1.238 . S
C143 O129 1.247 . S
C143 C137 1.507 . S
H144 C117 0.930 . S
H145 C118 0.931 . S
H146 C119 0.930 1_565 S
H147 C120 0.930 1_565 S
H148 C139 0.930 . S
H149 C140 0.931 . S
H150 C141 0.930 1_545 S
H151 C142 0.930 1_545 S
Tb152 C162 2.825 . S
Tb152 O163 2.347 . S
Tb152 O166 2.366 . S
Tb152 O171 2.418 . S
Tb152 O172 2.384 . S
Tb152 O175 2.479 . S
Tb152 O176 2.471 . S
Eu153 O164 2.418 . S
Eu153 O165 2.384 . S
Eu153 O168 2.479 . S
Eu153 O169 2.471 . S
Eu153 O170 2.347 . S
Eu153 O173 2.366 . S
Eu153 C183 2.825 . S
C154 O170 1.259 . S
C154 O171 1.265 . S
C155 O172 1.255 . S
C155 O173 1.265 . S
C156 C158 1.380 . S
C156 C159 1.374 . S
C156 C162 1.507 . S
C157 C158 1.384 1_554 S
C157 C161 1.387 . S
C157 H184 0.930 . S
C158 C156 1.380 . S
C158 C157 1.384 1_556 S
C158 H185 0.931 . S
C159 C156 1.374 . S
C159 C160 1.390 1_556 S
C159 H186 0.930 . S
C160 C159 1.390 1_554 S
C160 C161 1.391 . S
C160 H187 0.930 . S
C161 C157 1.387 . S
C161 C160 1.391 . S
C162 Tb152 2.825 . S
C162 C156 1.507 . S
C162 O175 1.238 . S
C162 O176 1.247 . S
O163 Tb152 2.347 . S
O163 C167 1.259 . S
O164 Eu153 2.418 . S
O164 C167 1.265 . S
O165 Eu153 2.384 . S
O165 C174 1.255 . S
O166 Tb152 2.366 . S
O166 C174 1.265 . S
C167 O163 1.259 . S
C167 O164 1.265 . S
O168 Eu153 2.479 . S
O168 C183 1.238 . S
O169 Eu153 2.471 . S
O169 C183 1.247 . S
O170 Eu153 2.347 . S
O170 C154 1.259 . S
O171 Tb152 2.418 . S
O171 C154 1.265 . S
O172 Tb152 2.384 . S
O172 C155 1.255 . S
O173 Eu153 2.366 . S
O173 C155 1.265 . S
C174 O165 1.255 . S
C174 O166 1.265 . S
O175 Tb152 2.479 . S
O175 C162 1.238 . S
O176 Tb152 2.471 . S
O176 C162 1.247 . S
C177 C180 1.380 . S
C177 C181 1.374 . S
C177 C183 1.507 . S
C178 C179 1.387 . S
C178 C182 1.391 . S
C179 C178 1.387 . S
C179 C180 1.384 . S
C179 H188 0.930 . S
C180 C177 1.380 . S
C180 C179 1.384 . S
C180 H189 0.931 . S
C181 C177 1.374 . S
C181 C182 1.390 . S
C181 H190 0.930 . S
C182 C178 1.391 . S
C182 C181 1.390 . S
C182 H191 0.930 . S
C183 Eu153 2.825 . S
C183 O168 1.238 . S
C183 O169 1.247 . S
C183 C177 1.507 . S
H184 C157 0.930 . S
H185 C158 0.931 . S
H186 C159 0.930 . S
H187 C160 0.930 . S
H188 C179 0.930 . S
H189 C180 0.931 . S
H190 C181 0.930 . S
H191 C182 0.930 . S
Tb192 C202 2.825 . S
Tb192 O203 2.347 . S
Tb192 O206 2.366 . S
Tb192 O211 2.418 . S
Tb192 O212 2.384 1_655 S
Tb192 O215 2.479 . S
Tb192 O216 2.471 . S
Eu193 O204 2.418 . S
Eu193 O205 2.384 1_455 S
Eu193 O208 2.479 . S
Eu193 O209 2.471 . S
Eu193 O210 2.347 . S
Eu193 O213 2.366 . S
Eu193 C223 2.825 . S
C194 O210 1.259 1_655 S
C194 O211 1.265 . S
C195 O212 1.255 . S
C195 O213 1.265 . S
C196 C198 1.380 . S
C196 C199 1.374 . S
C196 C202 1.507 . S
C197 C198 1.384 1_554 S
C197 C201 1.387 . S
C197 H224 0.930 . S
C198 C196 1.380 . S
C198 C197 1.384 1_556 S
C198 H225 0.931 . S
C199 C196 1.374 . S
C199 C200 1.390 1_556 S
C199 H226 0.930 . S
C200 C199 1.390 1_554 S
C200 C201 1.391 . S
C200 H227 0.930 . S
C201 C197 1.387 . S
C201 C200 1.391 . S
C202 Tb192 2.825 . S
C202 C196 1.507 . S
C202 O215 1.238 . S
C202 O216 1.247 . S
O203 Tb192 2.347 . S
O203 C207 1.259 1_655 S
O204 Eu193 2.418 . S
O204 C207 1.265 . S
O205 Eu193 2.384 1_655 S
O205 C214 1.255 . S
O206 Tb192 2.366 . S
O206 C214 1.265 . S
C207 O203 1.259 1_455 S
C207 O204 1.265 . S
O208 Eu193 2.479 . S
O208 C223 1.238 . S
O209 Eu193 2.471 . S
O209 C223 1.247 . S
O210 Eu193 2.347 . S
O210 C194 1.259 1_455 S
O211 Tb192 2.418 . S
O211 C194 1.265 . S
O212 Tb192 2.384 1_455 S
O212 C195 1.255 . S
O213 Eu193 2.366 . S
O213 C195 1.265 . S
C214 O205 1.255 . S
C214 O206 1.265 . S
O215 Tb192 2.479 . S
O215 C202 1.238 . S
O216 Tb192 2.471 . S
O216 C202 1.247 . S
C217 C220 1.380 . S
C217 C221 1.374 . S
C217 C223 1.507 . S
C218 C219 1.387 . S
C218 C222 1.391 . S
C219 C218 1.387 . S
C219 C220 1.384 . S
C219 H228 0.930 . S
C220 C217 1.380 . S
C220 C219 1.384 . S
C220 H229 0.931 . S
C221 C217 1.374 . S
C221 C222 1.390 . S
C221 H230 0.930 . S
C222 C218 1.391 . S
C222 C221 1.390 . S
C222 H231 0.930 . S
C223 Eu193 2.825 . S
C223 O208 1.238 . S
C223 O209 1.247 . S
C223 C217 1.507 . S
H224 C197 0.930 . S
H225 C198 0.931 . S
H226 C199 0.930 . S
H227 C200 0.930 . S
H228 C219 0.930 . S
H229 C220 0.931 . S
H230 C221 0.930 . S
H231 C222 0.930 . S
H232 C238 0.930 . S
H233 C242 0.930 . S
H234 C247 0.929 . S
H235 C245 0.929 . S
H236 C240 0.929 . S
H237 C246 0.929 . S
C238 H232 0.930 . S
C238 C239 1.366 . S
C238 C246 1.378 . S
C239 C238 1.366 . S
C239 C247 1.434 1_565 S
C240 H236 0.929 . S
C240 C242 1.378 . S
C240 C244 1.351 . S
C241 C244 1.462 1_565 S
C241 C246 1.350 . S
C241 N249 1.427 1_565 S
C242 H233 0.930 . S
C242 C240 1.378 . S
C242 C243 1.368 . S
C243 C242 1.368 . S
C243 C245 1.432 1_545 S
C244 C240 1.351 . S
C244 C241 1.462 1_545 S
C244 N248 1.426 1_545 S
C245 H235 0.929 . S
C245 C243 1.432 1_565 S
C245 N248 1.384 . S
C246 H237 0.929 . S
C246 C238 1.378 . S
C246 C241 1.350 . S
C247 H234 0.929 . S
C247 C239 1.434 1_545 S
C247 N249 1.384 . S
N248 C244 1.426 1_565 S
N248 C245 1.384 . S
N249 C241 1.427 1_545 S
N249 C247 1.384 . S
H250 C256 0.930 . S
H251 C260 0.930 . S
H252 C265 0.929 . S
H253 C263 0.929 . S
H254 C258 0.929 . S
H255 C264 0.929 . S
C256 H250 0.930 . S
C256 C257 1.367 . S
C256 C264 1.378 . S
C257 C256 1.367 . S
C257 C265 1.433 . S
C258 H254 0.929 . S
C258 C260 1.378 . S
C258 C262 1.350 . S
C259 C262 1.463 . S
C259 C264 1.350 . S
C259 N267 1.427 . S
C260 H251 0.930 . S
C260 C258 1.378 . S
C260 C261 1.367 . S
C261 C260 1.367 . S
C261 C263 1.433 . S
C262 C258 1.350 . S
C262 C259 1.463 . S
C262 N266 1.427 . S
C263 H253 0.929 . S
C263 C261 1.433 . S
C263 N266 1.384 . S
C264 H255 0.929 . S
C264 C256 1.378 . S
C264 C259 1.350 . S
C265 H252 0.929 . S
C265 C257 1.433 . S
C265 N267 1.384 . S
N266 C262 1.427 . S
N266 C263 1.384 . S
N267 C259 1.427 . S
N267 C265 1.384 . S
H268 C274 0.930 . S
H269 C278 0.930 . S
H270 C283 0.929 . S
H271 C281 0.929 . S
H272 C276 0.929 . S
H273 C282 0.929 . S
C274 H268 0.930 . S
C274 C275 1.367 . S
C274 C282 1.378 . S
C275 C274 1.367 . S
C275 C283 1.433 . S
C276 H272 0.929 . S
C276 C278 1.378 . S
C276 C280 1.350 . S
C277 C280 1.463 . S
C277 C282 1.350 . S
C277 N285 1.427 . S
C278 H269 0.930 . S
C278 C276 1.378 . S
C278 C279 1.367 . S
C279 C278 1.367 . S
C279 C281 1.433 . S
C280 C276 1.350 . S
C280 C277 1.463 . S
C280 N284 1.427 . S
C281 H271 0.929 . S
C281 C279 1.433 . S
C281 N284 1.384 . S
C282 H273 0.929 . S
C282 C274 1.378 . S
C282 C277 1.350 . S
C283 H270 0.929 . S
C283 C275 1.433 . S
C283 N285 1.384 . S
N284 C280 1.427 . S
N284 C281 1.384 . S
N285 C277 1.427 . S
N285 C283 1.384 . S
H286 C292 0.930 . S
H287 C296 0.930 . S
H288 C301 0.929 . S
H289 C299 0.929 . S
H290 C294 0.929 . S
H291 C300 0.929 . S
C292 H286 0.930 . S
C292 C293 1.367 1_655 S
C292 C300 1.378 . S
C293 C292 1.367 1_455 S
C293 C301 1.433 . S
C294 H290 0.929 . S
C294 C296 1.378 . S
C294 C298 1.350 . S
C295 C298 1.463 . S
C295 C300 1.345 1_455 S
C295 N303 1.432 . S
C296 H287 0.930 . S
C296 C294 1.378 . S
C296 C297 1.367 . S
C297 C296 1.367 . S
C297 C299 1.433 1_455 S
C298 C294 1.350 . S
C298 C295 1.463 . S
C298 N302 1.427 1_455 S
C299 H289 0.929 . S
C299 C297 1.433 1_655 S
C299 N302 1.384 . S
C300 H291 0.929 . S
C300 C292 1.378 . S
C300 C295 1.345 1_655 S
C301 H288 0.929 . S
C301 C293 1.433 . S
C301 N303 1.384 . S
N302 C298 1.427 1_655 S
N302 C299 1.384 . S
N303 C295 1.432 . S
N303 C301 1.384 . S
H304 C310 0.930 . S
H305 C314 0.930 . S
H306 C319 0.929 . S
H307 C317 0.929 . S
H308 C312 0.929 . S
H309 C318 0.929 . S
C310 H304 0.930 . S
C310 C311 1.379 . S
C310 C318 1.378 . S
C311 C310 1.379 . S
C311 C319 1.421 1_565 S
C312 H308 0.929 . S
C312 C314 1.378 1_554 S
C312 C316 1.379 . S
C313 C316 1.461 1_565 S
C313 C318 1.370 . S
C313 N321 1.406 1_565 S
C314 H305 0.930 . S
C314 C312 1.378 1_556 S
C314 C315 1.388 . S
C315 C314 1.388 . S
C315 C317 1.413 1_545 S
C316 C312 1.379 . S
C316 C313 1.461 1_545 S
C316 N320 1.398 1_545 S
C317 H307 0.929 . S
C317 C315 1.413 1_565 S
C317 N320 1.384 1_556 S
C318 H309 0.929 . S
C318 C310 1.378 . S
C318 C313 1.370 . S
C319 H306 0.929 . S
C319 C311 1.421 1_545 S
C319 N321 1.384 . S
N320 C316 1.398 1_565 S
N320 C317 1.384 1_554 S
N321 C313 1.406 1_545 S
N321 C319 1.384 . S
H322 C328 0.930 . S
H323 C332 0.930 . S
H324 C337 0.929 . S
H325 C335 0.929 . S
H326 C330 0.929 . S
H327 C336 0.929 . S
C328 H322 0.930 . S
C328 C329 1.367 . S
C328 C336 1.378 . S
C329 C328 1.367 . S
C329 C337 1.433 . S
C330 H326 0.929 . S
C330 C332 1.378 1_554 S
C330 C334 1.350 . S
C331 C334 1.463 . S
C331 C336 1.350 . S
C331 N339 1.427 . S
C332 H323 0.930 . S
C332 C330 1.378 1_556 S
C332 C333 1.367 . S
C333 C332 1.367 . S
C333 C335 1.433 1_556 S
C334 C330 1.350 . S
C334 C331 1.463 . S
C334 N338 1.427 . S
C335 H325 0.929 . S
C335 C333 1.433 1_554 S
C335 N338 1.384 . S
C336 H327 0.929 . S
C336 C328 1.378 . S
C336 C331 1.350 . S
C337 H324 0.929 . S
C337 C329 1.433 . S
C337 N339 1.384 . S
N338 C334 1.427 . S
N338 C335 1.384 . S
N339 C331 1.427 . S
N339 C337 1.384 . S
H340 C346 0.930 . S
H341 C350 0.930 . S
H342 C355 0.929 . S
H343 C353 0.929 . S
H344 C348 0.929 . S
H345 C354 0.929 . S
C346 H340 0.930 . S
C346 C347 1.367 . S
C346 C354 1.378 . S
C347 C346 1.367 . S
C347 C355 1.433 . S
C348 H344 0.929 . S
C348 C350 1.378 1_554 S
C348 C352 1.350 . S
C349 C352 1.463 . S
C349 C354 1.350 . S
C349 N357 1.427 . S
C350 H341 0.930 . S
C350 C348 1.378 1_556 S
C350 C351 1.367 . S
C351 C350 1.367 . S
C351 C353 1.433 1_556 S
C352 C348 1.350 . S
C352 C349 1.463 . S
C352 N356 1.427 . S
C353 H343 0.929 . S
C353 C351 1.433 1_554 S
C353 N356 1.384 . S
C354 H345 0.929 . S
C354 C346 1.378 . S
C354 C349 1.350 . S
C355 H342 0.929 . S
C355 C347 1.433 . S
C355 N357 1.384 . S
N356 C352 1.427 . S
N356 C353 1.384 . S
N357 C349 1.427 . S
N357 C355 1.384 . S
H358 C364 0.930 . S
H359 C368 0.930 . S
H360 C373 0.929 . S
H361 C371 0.929 . S
H362 C366 0.929 . S
H363 C372 0.929 . S
C364 H358 0.930 . S
C364 C365 1.369 . S
C364 C372 1.378 . S
C365 C364 1.369 . S
C365 C373 1.431 1_655 S
C366 H362 0.929 . S
C366 C368 1.378 . S
C366 C370 1.345 1_456 S
C367 C370 1.463 . S
C367 C372 1.356 . S
C367 N375 1.421 1_655 S
C368 H359 0.930 . S
C368 C366 1.378 . S
C368 C369 1.367 1_455 S
C369 C368 1.367 1_655 S
C369 C371 1.433 1_556 S
C370 C366 1.345 1_654 S
C370 C367 1.463 . S
C370 N374 1.433 . S
C371 H361 0.929 . S
C371 C369 1.433 1_554 S
C371 N374 1.384 . S
C372 H363 0.929 . S
C372 C364 1.378 . S
C372 C367 1.356 . S
C373 H360 0.929 . S
C373 C365 1.431 1_455 S
C373 N375 1.384 . S
N374 C370 1.433 . S
N374 C371 1.384 . S
N375 C367 1.421 1_455 S
N375 C373 1.384 . S
H376 C382 0.930 . S
H377 C386 0.930 . S
H378 C391 0.929 . S
H379 C389 0.929 . S
H380 C384 0.929 . S
H381 C390 0.939 . S
C382 H376 0.930 . S
C382 C383 1.367 . S
C382 C390 1.390 . S
C383 C382 1.367 . S
C383 C391 1.433 1_455 S
C384 H380 0.929 . S
C384 C386 1.378 . S
C384 C388 1.350 . S
C385 C388 1.463 . S
C385 C390 1.328 1_655 S
C385 N393 1.427 . S
C386 H377 0.930 . S
C386 C384 1.378 . S
C386 C387 1.367 . S
C387 C386 1.367 . S
C387 C389 1.433 . S
C388 C384 1.350 . S
C388 C385 1.463 . S
C388 N392 1.427 . S
C389 H379 0.929 . S
C389 C387 1.433 . S
C389 N392 1.384 . S
C390 H381 0.939 . S
C390 C382 1.390 . S
C390 C385 1.328 1_455 S
C391 H378 0.929 . S
C391 C383 1.433 1_655 S
C391 N393 1.384 . S
N392 C388 1.427 . S
N392 C389 1.384 . S
N393 C385 1.427 . S
N393 C391 1.384 . S
H394 C400 0.930 . S
H395 C404 0.930 . S
H396 C409 0.929 . S
H397 C407 0.929 . S
H398 C402 0.929 . S
H399 C408 0.929 . S
C400 H394 0.930 . S
C400 C401 1.367 . S
C400 C408 1.378 1_545 S
C401 C400 1.367 . S
C401 C409 1.433 1_545 S
C402 H398 0.929 . S
C402 C404 1.378 . S
C402 C406 1.350 . S
C403 C406 1.463 . S
C403 C408 1.350 . S
C403 N411 1.427 . S
C404 H395 0.930 . S
C404 C402 1.378 . S
C404 C405 1.367 . S
C405 C404 1.367 . S
C405 C407 1.433 . S
C406 C402 1.350 . S
C406 C403 1.463 . S
C406 N410 1.427 . S
C407 H397 0.929 . S
C407 C405 1.433 . S
C407 N410 1.384 . S
C408 H399 0.929 . S
C408 C400 1.378 1_565 S
C408 C403 1.350 . S
C409 H396 0.929 . S
C409 C401 1.433 1_565 S
C409 N411 1.384 . S
N410 C406 1.427 . S
N410 C407 1.384 . S
N411 C403 1.427 . S
N411 C409 1.384 . S
H412 C418 0.930 . S
H413 C422 0.930 . S
H414 C427 0.929 . S
H415 C425 0.929 . S
H416 C420 0.929 . S
H417 C426 0.929 . S
C418 H412 0.930 . S
C418 C419 1.367 . S
C418 C426 1.378 . S
C419 C418 1.367 . S
C419 C427 1.433 . S
C420 H416 0.929 . S
C420 C422 1.378 . S
C420 C424 1.350 . S
C421 C424 1.463 . S
C421 C426 1.350 . S
C421 N429 1.427 . S
C422 H413 0.930 . S
C422 C420 1.378 . S
C422 C423 1.367 . S
C423 C422 1.367 . S
C423 C425 1.433 . S
C424 C420 1.350 . S
C424 C421 1.463 . S
C424 N428 1.427 . S
C425 H415 0.929 . S
C425 C423 1.433 . S
C425 N428 1.384 . S
C426 H417 0.929 . S
C426 C418 1.378 . S
C426 C421 1.350 . S
C427 H414 0.929 . S
C427 C419 1.433 . S
C427 N429 1.384 . S
N428 C424 1.427 . S
N428 C425 1.384 . S
N429 C421 1.427 . S
N429 C427 1.384 . S
H430 C436 0.930 . S
H431 C440 0.930 . S
H432 C445 0.929 . S
H433 C443 0.929 . S
H434 C438 0.929 . S
H435 C444 0.929 . S
C436 H430 0.930 . S
C436 C437 1.367 . S
C436 C444 1.378 . S
C437 C436 1.367 . S
C437 C445 1.433 . S
C438 H434 0.929 . S
C438 C440 1.378 . S
C438 C442 1.350 . S
C439 C442 1.463 . S
C439 C444 1.350 . S
C439 N447 1.427 . S
C440 H431 0.930 . S
C440 C438 1.378 . S
C440 C441 1.367 . S
C441 C440 1.367 . S
C441 C443 1.433 . S
C442 C438 1.350 . S
C442 C439 1.463 . S
C442 N446 1.427 . S
C443 H433 0.929 . S
C443 C441 1.433 . S
C443 N446 1.384 . S
C444 H435 0.929 . S
C444 C436 1.378 . S
C444 C439 1.350 . S
C445 H432 0.929 . S
C445 C437 1.433 . S
C445 N447 1.384 . S
N446 C442 1.427 . S
N446 C443 1.384 . S
N447 C439 1.427 . S
N447 C445 1.384 . S
H448 C454 0.930 . S
H449 C458 0.930 1_556 S
H450 C463 0.929 . S
H451 C461 0.929 . S
H452 C456 0.929 . S
H453 C462 0.929 . S
C454 H448 0.930 . S
C454 C455 1.367 . S
C454 C462 1.378 . S
C455 C454 1.367 . S
C455 C463 1.433 1_655 S
C456 H452 0.929 . S
C456 C458 1.378 . S
C456 C460 1.350 . S
C457 C460 1.463 . S
C457 C462 1.350 1_455 S
C457 N465 1.427 . S
C458 H449 0.930 1_554 S
C458 C456 1.378 . S
C458 C459 1.367 . S
C459 C458 1.367 . S
C459 C461 1.433 . S
C460 C456 1.350 . S
C460 C457 1.463 . S
C460 N464 1.427 . S
C461 H451 0.929 . S
C461 C459 1.433 . S
C461 N464 1.384 . S
C462 H453 0.929 . S
C462 C454 1.378 . S
C462 C457 1.350 1_655 S
C463 H450 0.929 . S
C463 C455 1.433 1_455 S
C463 N465 1.384 . S
N464 C460 1.427 . S
N464 C461 1.384 . S
N465 C457 1.427 . S
N465 C463 1.384 . S
H466 C472 0.930 . S
H467 C476 0.930 1_556 S
H468 C481 0.929 . S
H469 C479 0.929 . S
H470 C474 0.929 . S
H471 C480 0.929 . S
C472 H466 0.930 . S
C472 C473 1.367 1_545 S
C472 C480 1.378 . S
C473 C472 1.367 1_565 S
C473 C481 1.433 . S
C474 H470 0.929 . S
C474 C476 1.378 . S
C474 C478 1.350 . S
C475 C478 1.463 . S
C475 C480 1.350 . S
C475 N483 1.427 . S
C476 H467 0.930 1_554 S
C476 C474 1.378 . S
C476 C477 1.367 . S
C477 C476 1.367 . S
C477 C479 1.433 . S
C478 C474 1.350 . S
C478 C475 1.463 . S
C478 N482 1.427 . S
C479 H469 0.929 . S
C479 C477 1.433 . S
C479 N482 1.384 . S
C480 H471 0.929 . S
C480 C472 1.378 . S
C480 C475 1.350 . S
C481 H468 0.929 . S
C481 C473 1.433 . S
C481 N483 1.384 1_565 S
N482 C478 1.427 . S
N482 C479 1.384 . S
N483 C475 1.427 . S
N483 C481 1.384 1_545 S
H484 C490 0.930 . S
H485 C494 0.930 . S
H486 C499 0.929 . S
H487 C497 0.929 1_556 S
H488 C492 0.929 . S
H489 C498 0.929 . S
C490 H484 0.930 . S
C490 C491 1.367 . S
C490 C498 1.378 . S
C491 C490 1.367 . S
C491 C499 1.433 . S
C492 H488 0.929 . S
C492 C494 1.378 . S
C492 C496 1.350 . S
C493 C496 1.463 . S
C493 C498 1.350 . S
C493 N501 1.427 . S
C494 H485 0.930 . S
C494 C492 1.378 . S
C494 C495 1.367 . S
C495 C494 1.367 . S
C495 C497 1.433 . S
C496 C492 1.350 . S
C496 C493 1.463 . S
C496 N500 1.427 . S
C497 H487 0.929 1_554 S
C497 C495 1.433 . S
C497 N500 1.384 . S
C498 H489 0.929 . S
C498 C490 1.378 . S
C498 C493 1.350 . S
C499 H486 0.929 . S
C499 C491 1.433 . S
C499 N501 1.384 . S
N500 C496 1.427 . S
N500 C497 1.384 . S
N501 C493 1.427 . S
N501 C499 1.384 . S
H502 C508 0.930 . S
H503 C512 0.930 . S
H504 C517 0.929 . S
H505 C515 0.929 1_556 S
H506 C510 0.929 . S
H507 C516 0.929 . S
C508 H502 0.930 . S
C508 C509 1.367 . S
C508 C516 1.378 . S
C509 C508 1.367 . S
C509 C517 1.433 . S
C510 H506 0.929 . S
C510 C512 1.378 . S
C510 C514 1.350 . S
C511 C514 1.463 . S
C511 C516 1.350 . S
C511 N519 1.427 . S
C512 H503 0.930 . S
C512 C510 1.378 . S
C512 C513 1.367 . S
C513 C512 1.367 . S
C513 C515 1.433 . S
C514 C510 1.350 . S
C514 C511 1.463 . S
C514 N518 1.427 . S
C515 H505 0.929 1_554 S
C515 C513 1.433 . S
C515 N518 1.384 . S
C516 H507 0.929 . S
C516 C508 1.378 . S
C516 C511 1.350 . S
C517 H504 0.929 . S
C517 C509 1.433 . S
C517 N519 1.384 . S
N518 C514 1.427 . S
N518 C515 1.384 . S
N519 C511 1.427 . S
N519 C517 1.384 . S
H520 C526 0.930 . S
H521 C530 0.930 . S
H522 C535 0.929 . S
H523 C533 0.929 . S
H524 C528 0.929 . S
H525 C534 0.929 . S
C526 H520 0.930 . S
C526 C527 1.367 . S
C526 C534 1.378 . S
C527 C526 1.367 . S
C527 C535 1.433 1_455 S
C528 H524 0.929 . S
C528 C530 1.378 . S
C528 C532 1.350 1_655 S
C529 C532 1.463 . S
C529 C534 1.350 . S
C529 N537 1.427 1_455 S
C530 H521 0.930 . S
C530 C528 1.378 . S
C530 C531 1.367 1_655 S
C531 C530 1.367 1_455 S
C531 C533 1.433 . S
C532 C528 1.350 1_455 S
C532 C529 1.463 . S
C532 N536 1.427 . S
C533 H523 0.929 . S
C533 C531 1.433 . S
C533 N536 1.384 . S
C534 H525 0.929 . S
C534 C526 1.378 . S
C534 C529 1.350 . S
C535 H522 0.929 . S
C535 C527 1.433 1_655 S
C535 N537 1.384 . S
N536 C532 1.427 . S
N536 C533 1.384 . S
N537 C529 1.427 1_655 S
N537 C535 1.384 . S
H538 C544 0.930 . S
H539 C548 0.930 . S
H540 C553 0.929 . S
H541 C551 0.929 . S
H542 C546 0.929 . S
H543 C552 0.929 . S
C544 H538 0.930 . S
C544 C545 1.367 1_565 S
C544 C552 1.378 . S
C545 C544 1.367 1_545 S
C545 C553 1.433 . S
C546 H542 0.929 . S
C546 C548 1.378 . S
C546 C550 1.350 . S
C547 C550 1.463 . S
C547 C552 1.350 1_545 S
C547 N555 1.427 . S
C548 H539 0.930 . S
C548 C546 1.378 . S
C548 C549 1.367 . S
C549 C548 1.367 . S
C549 C551 1.433 1_545 S
C550 C546 1.350 . S
C550 C547 1.463 . S
C550 N554 1.427 1_545 S
C551 H541 0.929 . S
C551 C549 1.433 1_565 S
C551 N554 1.384 . S
C552 H543 0.929 . S
C552 C544 1.378 . S
C552 C547 1.350 1_565 S
C553 H540 0.929 . S
C553 C545 1.433 . S
C553 N555 1.384 . S
N554 C550 1.427 1_565 S
N554 C551 1.384 . S
N555 C547 1.427 . S
N555 C553 1.384 . S
H556 C562 0.930 . S
H557 C566 0.930 . S
H558 C571 0.929 . S
H559 C569 0.929 . S
H560 C564 0.929 . S
H561 C570 0.929 . S
C562 H556 0.930 . S
C562 C563 1.367 . S
C562 C570 1.378 . S
C563 C562 1.367 . S
C563 C571 1.433 . S
C564 H560 0.929 . S
C564 C566 1.378 . S
C564 C568 1.350 . S
C565 C568 1.463 . S
C565 C570 1.350 . S
C565 N573 1.427 . S
C566 H557 0.930 . S
C566 C564 1.378 . S
C566 C567 1.367 . S
C567 C566 1.367 . S
C567 C569 1.433 . S
C568 C564 1.350 . S
C568 C565 1.463 . S
C568 N572 1.427 . S
C569 H559 0.929 . S
C569 C567 1.433 . S
C569 N572 1.384 . S
C570 H561 0.929 . S
C570 C562 1.378 . S
C570 C565 1.350 . S
C571 H558 0.929 . S
C571 C563 1.433 . S
C571 N573 1.384 . S
N572 C568 1.427 . S
N572 C569 1.384 . S
N573 C565 1.427 . S
N573 C571 1.384 . S
H574 C580 0.930 1_554 S
H575 C584 0.930 . S
H576 C589 0.929 . S
H577 C587 0.929 . S
H578 C582 0.929 . S
H579 C588 0.929 . S
C580 H574 0.930 1_556 S
C580 C581 1.367 . S
C580 C588 1.378 . S
C581 C580 1.367 . S
C581 C589 1.433 . S
C582 H578 0.929 . S
C582 C584 1.378 . S
C582 C586 1.350 . S
C583 C586 1.463 . S
C583 C588 1.350 . S
C583 N591 1.427 . S
C584 H575 0.930 . S
C584 C582 1.378 . S
C584 C585 1.367 . S
C585 C584 1.367 . S
C585 C587 1.433 . S
C586 C582 1.350 . S
C586 C583 1.463 . S
C586 N590 1.427 . S
C587 H577 0.929 . S
C587 C585 1.433 . S
C587 N590 1.384 . S
C588 H579 0.929 . S
C588 C580 1.378 . S
C588 C583 1.350 . S
C589 H576 0.929 . S
C589 C581 1.433 . S
C589 N591 1.384 . S
N590 C586 1.427 . S
N590 C587 1.384 . S
N591 C583 1.427 . S
N591 C589 1.384 . S
H592 C598 0.930 . S
H593 C602 0.930 . S
H594 C607 0.929 . S
H595 C605 0.929 1_455 S
H596 C600 0.929 . S
H597 C606 0.929 . S
C598 H592 0.930 . S
C598 C599 1.367 1_455 S
C598 C606 1.378 . S
C599 C598 1.367 1_655 S
C599 C607 1.433 . S
C600 H596 0.929 . S
C600 C602 1.378 . S
C600 C604 1.350 . S
C601 C604 1.463 . S
C601 C606 1.350 1_655 S
C601 N609 1.427 . S
C602 H593 0.930 . S
C602 C600 1.378 . S
C602 C603 1.367 . S
C603 C602 1.367 . S
C603 C605 1.433 . S
C604 C600 1.350 . S
C604 C601 1.463 . S
C604 N608 1.423 1_655 S
C605 H595 0.929 1_655 S
C605 C603 1.433 . S
C605 N608 1.383 1_655 S
C606 H597 0.929 . S
C606 C598 1.378 . S
C606 C601 1.350 1_455 S
C607 H594 0.929 . S
C607 C599 1.433 . S
C607 N609 1.384 . S
N608 C604 1.423 1_455 S
N608 C605 1.383 1_455 S
N609 C601 1.427 . S
N609 C607 1.384 . S
H610 C616 0.930 . S
H611 C620 0.930 . S
H612 C625 0.929 . S
H613 C623 0.929 . S
H614 C618 0.929 . S
H615 C624 0.929 . S
C616 H610 0.930 . S
C616 C617 1.367 . S
C616 C624 1.378 . S
C617 C616 1.367 . S
C617 C625 1.433 1_565 S
C618 H614 0.929 . S
C618 C620 1.378 . S
C618 C622 1.350 1_545 S
C619 C622 1.463 . S
C619 C624 1.350 . S
C619 N627 1.427 1_565 S
C620 H611 0.930 . S
C620 C618 1.378 . S
C620 C621 1.367 1_545 S
C621 C620 1.367 1_565 S
C621 C623 1.433 . S
C622 C618 1.350 1_565 S
C622 C619 1.463 . S
C622 N626 1.427 . S
C623 H613 0.929 . S
C623 C621 1.433 . S
C623 N626 1.384 . S
C624 H615 0.929 . S
C624 C616 1.378 . S
C624 C619 1.350 . S
C625 H612 0.929 . S
C625 C617 1.433 1_545 S
C625 N627 1.384 . S
N626 C622 1.427 . S
N626 C623 1.384 . S
N627 C619 1.427 1_545 S
N627 C625 1.384 . S
H628 C634 0.930 . S
H629 C638 0.930 . S
H630 C643 0.929 . S
H631 C641 0.929 . S
H632 C636 0.929 . S
H633 C642 0.929 . S
C634 H628 0.930 . S
C634 C635 1.367 . S
C634 C642 1.378 . S
C635 C634 1.367 . S
C635 C643 1.433 . S
C636 H632 0.929 . S
C636 C638 1.378 . S
C636 C640 1.350 . S
C637 C640 1.463 . S
C637 C642 1.350 . S
C637 N645 1.427 . S
C638 H629 0.930 . S
C638 C636 1.378 . S
C638 C639 1.367 . S
C639 C638 1.367 . S
C639 C641 1.433 . S
C640 C636 1.350 . S
C640 C637 1.463 . S
C640 N644 1.427 . S
C641 H631 0.929 . S
C641 C639 1.433 . S
C641 N644 1.384 . S
C642 H633 0.929 . S
C642 C634 1.378 . S
C642 C637 1.350 . S
C643 H630 0.929 . S
C643 C635 1.433 . S
C643 N645 1.384 . S
N644 C640 1.427 . S
N644 C641 1.384 . S
N645 C637 1.427 . S
N645 C643 1.384 . S
H646 C652 0.930 . S
H647 C656 0.930 . S
H648 C661 0.929 . S
H649 C659 0.929 . S
H650 C654 0.929 . S
H651 C660 0.929 . S
C652 H646 0.930 . S
C652 C653 1.367 . S
C652 C660 1.378 . S
C653 C652 1.367 . S
C653 C661 1.433 . S
C654 H650 0.929 . S
C654 C656 1.378 . S
C654 C658 1.350 . S
C655 C658 1.463 . S
C655 C660 1.350 . S
C655 N663 1.427 . S
C656 H647 0.930 . S
C656 C654 1.378 . S
C656 C657 1.367 . S
C657 C656 1.367 . S
C657 C659 1.433 . S
C658 C654 1.350 . S
C658 C655 1.463 . S
C658 N662 1.427 . S
C659 H649 0.929 . S
C659 C657 1.433 . S
C659 N662 1.384 . S
C660 H651 0.929 . S
C660 C652 1.378 . S
C660 C655 1.350 . S
C661 H648 0.929 . S
C661 C653 1.433 . S
C661 N663 1.384 . S
N662 C658 1.427 . S
N662 C659 1.384 . S
N663 C655 1.427 . S
N663 C661 1.384 . S
C239 C61 1.811 . S
C243 C74 1.947 1_545 S
C261 C114 1.966 . S
C257 C70 1.829 . S
C279 C154 1.975 . S
C275 C43 1.839 . S
C297 C194 1.964 1_455 S
C293 C52 1.810 1_455 S
C315 C87 1.950 . S
C311 C25 1.803 . S
C329 C34 1.844 . S
C333 C127 1.971 . S
C347 C7 1.841 . S
C351 C167 1.978 . S
C365 C16 1.826 . S
C369 C207 1.963 1_655 S
C387 C98 0.469 . S
C383 C50 0.458 1_455 S
C405 C138 0.468 . S
C401 C59 0.467 1_545 S
C423 C178 0.458 . S
C419 C67 0.453 . S
C437 C41 0.431 . S
C441 C218 0.450 . S
C455 C14 0.448 . S
C459 C81 0.486 . S
C477 C121 0.474 . S
C473 C23 0.441 . S
C495 C161 0.478 . S
C491 C31 0.468 . S
C509 C5 0.450 . S
C513 C201 0.471 . S
C527 C49 2.052 1_455 S
C531 C75 2.297 . S
C545 C58 1.993 1_545 S
C549 C115 2.253 . S
C567 C155 2.231 . S
C563 C68 1.981 . S
C585 C195 2.278 . S
C581 C40 2.010 . S
C599 C13 2.054 . S
C603 C94 2.308 . S
C621 C134 2.250 . S
C617 C22 2.003 . S
C639 C174 2.233 . S
C635 C32 1.987 . S
C653 C4 2.015 . S
C657 C214 2.281 . S
