# Generated by pormake.
# Topology anh, (6,3)-cn, num edge types: 1
# Building blocks:
#     Node 0, Type 0, BuildingBlock: MIFKUJ_clean_sbu_0, # of connection points: 6
#     Node 1, Type 0, BuildingBlock: MIFKUJ_clean_sbu_0, # of connection points: 6
#     Node 2, Type 0, BuildingBlock: MIFKUJ_clean_sbu_0, # of connection points: 6
#     Node 3, Type 1, BuildingBlock: MIDCAF_clean_linker_0, # of connection points: 3
#     Node 4, Type 1, BuildingBlock: MIDCAF_clean_linker_0, # of connection points: 3
#     Node 5, Type 1, BuildingBlock: MIDCAF_clean_linker_0, # of connection points: 3
#     Node 6, Type 1, BuildingBlock: MIDCAF_clean_linker_0, # of connection points: 3
#     Node 7, Type 1, BuildingBlock: MIDCAF_clean_linker_0, # of connection points: 3
#     Node 8, Type 1, BuildingBlock: MIDCAF_clean_linker_0, # of connection points: 3
#     Edge 9, Type (0, 1), None
#     Edge 10, Type (0, 1), None
#     Edge 11, Type (0, 1), None
#     Edge 12, Type (0, 1), None
#     Edge 13, Type (0, 1), None
#     Edge 14, Type (0, 1), None
#     Edge 15, Type (0, 1), None
#     Edge 16, Type (0, 1), None
#     Edge 17, Type (0, 1), None
#     Edge 18, Type (0, 1), None
#     Edge 19, Type (0, 1), None
#     Edge 20, Type (0, 1), None
#     Edge 21, Type (0, 1), None
#     Edge 22, Type (0, 1), None
#     Edge 23, Type (0, 1), None
#     Edge 24, Type (0, 1), None
#     Edge 25, Type (0, 1), None
#     Edge 26, Type (0, 1), None
# Relax obj value: 0.135
# Max RMSD: 0.190
# Mean RMSD: 0.159
data_MOF--net-anh--node1-MIFKUJ_clean_sbu_0--node2-MIDCAF_clean_linker_0--edge1-none
_symmetry_space_group_name_H-M    P1
_symmetry_Int_Tables_number       1
_symmetry_cell_setting            triclinic
loop_
_symmetry_equiv_pos_as_xyz
'x, y, z'
_cell_length_a     21.084529
_cell_length_b     21.35994
_cell_length_c     34.518446
_cell_angle_alpha  94.763479
_cell_angle_beta   89.942382
_cell_angle_gamma 119.98403
loop_
_atom_site_label
_atom_site_type_symbol
_atom_site_fract_x
_atom_site_fract_y
_atom_site_fract_z
_atom_type_partial_charge
Zn0 Zn 0.0507 0.66811 0.16211 0.0
Zn1 Zn 0.84534 0.5263 0.16442 0.0
C2 C 0.15453 0.62166 0.15896 0.0
O3 O 0.16634 0.6536 0.19454 0.0
C4 C 0.72417 0.55304 0.17776 0.0
O5 O 0.70973 0.50943 0.20529 0.0
O6 O 0.13185 0.7709 0.17386 0.0
O7 O 0.97213 0.65952 0.12571 0.0
O8 O 0.90426 0.54051 0.11675 0.0
C9 C 0.18269 0.80077 0.15035 0.0
O10 O 0.17429 0.76956 0.11482 0.0
O11 O 0.1024 0.61676 0.13788 0.0
C12 C 0.80095 0.3787 0.17115 0.0
O13 O 0.87166 0.40799 0.17892 0.0
O14 O 0.77583 0.41922 0.1628 0.0
O15 O 0.89876 0.55199 0.21676 0.0
O16 O 0.01736 0.63173 0.21393 0.0
O17 O 0.78185 0.5715 0.15886 0.0
C18 C 0.9454 0.60106 0.10348 0.0
C19 C 0.9626 0.59054 0.23284 0.0
Zn20 Zn 0.63536 0.0582 0.4729 0.0
Zn21 Zn 0.57628 0.85158 0.47303 0.0
C22 C 0.78517 0.17358 0.47769 0.0
O23 O 0.77268 0.17351 0.51499 0.0
C24 C 0.4267 0.73559 0.48242 0.0
O25 O 0.4588 0.71274 0.50548 0.0
O26 O 0.58637 0.11686 0.48123 0.0
O27 O 0.57277 0.97183 0.43636 0.0
O28 O 0.61424 0.89771 0.42278 0.0
C29 C 0.59913 0.16911 0.46146 0.0
O30 O 0.64091 0.1813 0.43151 0.0
O31 O 0.73553 0.12521 0.45383 0.0
C32 C 0.65792 0.78928 0.50288 0.0
O33 O 0.69318 0.85195 0.52411 0.0
O34 O 0.60848 0.77868 0.47792 0.0
O35 O 0.60499 0.91476 0.52503 0.0
O36 O 0.6437 0.03256 0.52554 0.0
O37 O 0.46563 0.79402 0.46649 0.0
C38 C 0.60415 0.94821 0.41322 0.0
C39 C 0.62949 0.97754 0.54316 0.0
Zn40 Zn 0.53598 0.43235 0.81895 0.0
Zn41 Zn 0.40132 0.52146 0.80765 0.0
C42 C 0.54529 0.30316 0.82388 0.0
O43 O 0.56503 0.3302 0.86028 0.0
C44 C 0.46208 0.67619 0.82948 0.0
O45 O 0.40989 0.65511 0.85449 0.0
O46 O 0.64219 0.50836 0.82261 0.0
O47 O 0.47619 0.45531 0.78644 0.0
O48 O 0.4074 0.48069 0.7532 0.0
C49 C 0.68763 0.50296 0.80039 0.0
O50 O 0.6628 0.45145 0.77142 0.0
O51 O 0.52706 0.33595 0.8011 0.0
C52 C 0.25704 0.46687 0.83799 0.0
O53 O 0.27436 0.4269 0.85753 0.0
O54 O 0.30142 0.50771 0.81429 0.0
O55 O 0.43274 0.48414 0.85308 0.0
O56 O 0.49559 0.43314 0.8716 0.0
O57 O 0.4695 0.62872 0.80845 0.0
C58 C 0.45255 0.45824 0.75358 0.0
C59 C 0.4542 0.45982 0.87968 0.0
C60 C 0.2733 0.86744 0.20608 0.0
C61 C 0.25644 0.85762 0.16587 0.0
C62 C 0.31284 0.89587 0.14075 0.0
C63 C 0.38508 0.94121 0.15552 0.0
H64 H 0.5688 0.17481 0.16654 0.0
H65 H 0.65485 0.2972 0.15003 0.0
H66 H 0.83264 0.28617 0.20501 0.0
H67 H 0.74677 0.16446 0.22182 0.0
H68 H 0.65644 0.10612 0.31912 0.0
H69 H 0.67144 0.07936 0.38473 0.0
H70 H 0.53724 0.85002 0.35039 0.0
H71 H 0.51917 0.87668 0.28481 0.0
H72 H 0.35681 0.91595 0.25169 0.0
H73 H 0.23135 0.83856 0.22628 0.0
H74 H 0.30148 0.88922 0.10962 0.0
H75 H 0.42787 0.96886 0.13552 0.0
N76 N 0.52858 0.05036 0.19505 0.0
N77 N 0.61682 0.07111 0.2435 0.0
N78 N 0.49865 0.97042 0.24358 0.0
C79 C 0.59798 0.09105 0.21102 0.0
C80 C 0.56768 0.0106 0.2597 0.0
C81 C 0.47873 0.98989 0.21126 0.0
C82 C 0.65087 0.16032 0.19588 0.0
C83 C 0.62642 0.19804 0.1745 0.0
C84 C 0.67567 0.26828 0.1652 0.0
C85 C 0.75036 0.30161 0.17663 0.0
C86 C 0.77539 0.26215 0.19594 0.0
C87 C 0.7261 0.19243 0.20568 0.0
C88 C 0.58633 0.99341 0.29702 0.0
C89 C 0.63146 0.04992 0.32528 0.0
C90 C 0.64019 0.03473 0.3628 0.0
C91 C 0.60623 0.96279 0.37228 0.0
C92 C 0.56491 0.9059 0.34343 0.0
C93 C 0.55416 0.92116 0.30615 0.0
C94 C 0.40219 0.94751 0.1955 0.0
C95 C 0.34541 0.91124 0.22066 0.0
C96 C 0.53978 0.21192 0.51104 0.0
C97 C 0.5807 0.22393 0.47752 0.0
C98 C 0.61173 0.29209 0.4629 0.0
C99 C 0.60702 0.34884 0.48325 0.0
H100 H 0.60369 0.55124 0.47958 0.0
H101 H 0.62017 0.66388 0.45762 0.0
H102 H 0.70617 0.77297 0.57239 0.0
H103 H 0.68829 0.66006 0.59457 0.0
H104 H 0.64397 0.51696 0.67269 0.0
H105 H 0.59473 0.51837 0.73695 0.0
H106 H 0.37576 0.37186 0.68856 0.0
H107 H 0.42542 0.36772 0.62452 0.0
H108 H 0.50604 0.25812 0.55808 0.0
H109 H 0.51436 0.15967 0.52279 0.0
H110 H 0.64323 0.3029 0.43701 0.0
H111 H 0.63475 0.40176 0.47228 0.0
N112 N 0.60787 0.46757 0.5304 0.0
N113 N 0.59759 0.51733 0.59158 0.0
N114 N 0.55494 0.39251 0.58079 0.0
C115 C 0.61824 0.52602 0.55428 0.0
C116 C 0.56579 0.45078 0.60486 0.0
C117 C 0.577 0.40075 0.54361 0.0
C118 C 0.64356 0.59672 0.53895 0.0
C119 C 0.62791 0.59972 0.49983 0.0
C120 C 0.63711 0.6641 0.48728 0.0
C121 C 0.66348 0.72675 0.51345 0.0
C122 C 0.68558 0.72544 0.55159 0.0
C123 C 0.675 0.66073 0.56435 0.0
C124 C 0.53824 0.44189 0.64413 0.0
C125 C 0.58568 0.48316 0.67623 0.0
C126 C 0.55768 0.48355 0.71285 0.0
C127 C 0.48182 0.44455 0.71742 0.0
C128 C 0.43454 0.40156 0.68556 0.0
C129 C 0.46281 0.39917 0.64918 0.0
C130 C 0.57127 0.33836 0.51857 0.0
C131 C 0.53522 0.26854 0.53139 0.0
C132 C 0.79018 0.58863 0.8475 0.0
C133 C 0.76576 0.54029 0.81354 0.0
C134 C 0.81311 0.51863 0.79643 0.0
C135 C 0.87958 0.53758 0.81553 0.0
H136 H 0.09845 0.55214 0.81608 0.0
H137 H 0.18864 0.51853 0.79453 0.0
H138 H 0.18493 0.43688 0.90543 0.0
H139 H 0.09564 0.47124 0.92716 0.0
H140 H 0.00714 0.50364 -0.00444 0.0
H141 H 0.98227 0.50933 0.06452 0.0
H142 H 0.9568 0.69506 0.05195 0.0
H143 H 0.97881 0.68772 0.98232 0.0
H144 H 0.87103 0.64044 0.89424 0.0
H145 H 0.75564 0.60756 0.861 0.0
H146 H 0.79639 0.48225 0.76994 0.0
H147 H 0.91201 0.51514 0.80315 0.0
N148 N 1.00018 0.55381 0.86366 0.0
N149 N 0.04272 0.55864 0.92722 0.0
N150 N 0.95737 0.59581 0.91667 0.0
C151 C 0.04369 0.54363 0.88835 0.0
C152 C 0.00038 0.5855 0.94149 0.0
C153 C 0.95662 0.57979 0.87768 0.0
C154 C 0.091 0.51539 0.87348 0.0
C155 C 0.11603 0.52596 0.83558 0.0
C156 C 0.1676 0.50674 0.82328 0.0
C157 C 0.19396 0.47549 0.84842 0.0
C158 C 0.16539 0.46065 0.8854 0.0
C159 C 0.11479 0.48098 0.89794 0.0
C160 C 0.99447 0.59508 0.98374 0.0
C161 C 0.99714 0.54624 0.00761 0.0
C162 C 0.98257 0.54917 0.04691 0.0
C163 C 0.96736 0.60235 0.06314 0.0
C164 C 0.96861 0.65372 0.03986 0.0
C165 C 0.98089 0.64937 0.0002 0.0
C166 C 0.89953 0.57832 0.85208 0.0
C167 C 0.85642 0.60741 0.86662 0.0
C168 C 0.31316 0.71551 0.44761 0.0
C169 C 0.34701 0.6907 0.47227 0.0
C170 C 0.30482 0.62128 0.48529 0.0
C171 C 0.23112 0.57657 0.47259 0.0
H172 H 0.00217 0.39532 0.4971 0.0
H173 H 0.90612 0.28188 0.51982 0.0
H174 H 0.80958 0.20871 0.40284 0.0
H175 H 0.90444 0.32159 0.38044 0.0
H176 H 0.90127 0.45518 0.33894 0.0
H177 H 0.87085 0.48264 0.27694 0.0
H178 H 0.08531 0.67491 0.2799 0.0
H179 H 0.11573 0.64778 0.34177 0.0
H180 H 0.21648 0.69194 0.41531 0.0
H181 H 0.34372 0.76882 0.43725 0.0
H182 H 0.32921 0.60058 0.50444 0.0
H183 H 0.20078 0.52263 0.48218 0.0
N184 N 0.07794 0.48523 0.44215 0.0
N185 N 0.98953 0.46153 0.39302 0.0
N186 N 0.10008 0.57163 0.39832 0.0
C187 C 0.01093 0.44 0.42393 0.0
C188 C 0.03355 0.52733 0.38014 0.0
C189 C 0.12296 0.55146 0.42925 0.0
C190 C 0.96023 0.36788 0.43715 0.0
C191 C 0.96116 0.35438 0.47621 0.0
C192 C 0.90605 0.28946 0.48918 0.0
C193 C 0.84978 0.23656 0.4632 0.0
C194 C 0.85187 0.24827 0.42368 0.0
C195 C 0.90613 0.31331 0.41088 0.0
C196 C 0.01145 0.54855 0.34507 0.0
C197 C 0.94162 0.50386 0.32666 0.0
C198 C 0.92395 0.51984 0.29118 0.0
C199 C 0.97593 0.58056 0.2733 0.0
C200 C 0.0442 0.62737 0.29276 0.0
C201 C 0.06167 0.61169 0.3283 0.0
C202 C 0.19823 0.60043 0.44658 0.0
C203 C 0.23987 0.67109 0.43498 0.0
C204 C 0.55015 0.22301 0.7683 0.0
C205 C 0.55096 0.23937 0.80862 0.0
C206 C 0.56066 0.1963 0.834 0.0
C207 C 0.56975 0.13829 0.81932 0.0
H208 H 0.49262 0.90725 0.83185 0.0
H209 H 0.44233 0.78911 0.85753 0.0
H210 H 0.57415 0.73632 0.7805 0.0
H211 H 0.62391 0.85349 0.75498 0.0
H212 H 0.59451 0.88677 0.66394 0.0
H213 H 0.60287 0.87475 0.59352 0.0
H214 H 0.6665 0.1007 0.5906 0.0
H215 H 0.65745 0.11236 0.66052 0.0
H216 H 0.55991 0.15534 0.72241 0.0
H217 H 0.54318 0.25531 0.74794 0.0
H218 H 0.56158 0.2076 0.86524 0.0
H219 H 0.57753 0.10636 0.8396 0.0
N220 N 0.57087 0.00832 0.78472 0.0
N221 N 0.59867 0.95151 0.73164 0.0
N222 N 0.60122 0.06087 0.72547 0.0
C223 C 0.57962 0.95257 0.76917 0.0
C224 C 0.60977 0.0054 0.70962 0.0
C225 C 0.58209 0.06302 0.76296 0.0
C226 C 0.56097 0.88902 0.79078 0.0
C227 C 0.51212 0.87107 0.82114 0.0
C228 C 0.48322 0.8033 0.8358 0.0
C229 C 0.503 0.75271 0.82041 0.0
C230 C 0.55675 0.77349 0.79254 0.0
C231 C 0.58526 0.84076 0.77784 0.0
C232 C 0.62422 0.00033 0.66782 0.0
C233 C 0.61129 0.93415 0.6483 0.0
C234 C 0.61601 0.92715 0.60789 0.0
C235 C 0.63437 0.98638 0.58627 0.0
C236 C 0.65156 0.05361 0.60619 0.0
C237 C 0.6462 0.06039 0.64641 0.0
C238 C 0.57048 0.12295 0.77897 0.0
C239 C 0.56026 0.16586 0.75367 0.0
C240 C 0.67583 0.59931 0.12812 0.0
C241 C 0.66713 0.56789 0.16333 0.0
C242 C 0.60003 0.54294 0.18169 0.0
C243 C 0.54126 0.54461 0.16369 0.0
H244 H 0.36055 0.59821 0.17109 0.0
H245 H 0.26924 0.62524 0.19752 0.0
H246 H 0.15771 0.56795 0.08425 0.0
H247 H 0.24939 0.54069 0.05754 0.0
H248 H 0.36302 0.55062 0.97877 0.0
H249 H 0.37828 0.52528 0.90995 0.0
H250 H 0.49221 0.41496 0.94267 0.0
H251 H 0.47863 0.44185 0.01076 0.0
H252 H 0.62439 0.62075 0.08177 0.0
H253 H 0.72673 0.61963 0.11327 0.0
H254 H 0.59167 0.51879 0.20896 0.0
H255 H 0.48893 0.52134 0.17727 0.0
N256 N 0.42955 0.56657 0.11869 0.0
N257 N 0.36836 0.53363 0.05688 0.0
N258 N 0.47962 0.53565 0.06495 0.0
C259 C 0.37146 0.55511 0.09553 0.0
C260 C 0.42211 0.52302 0.04164 0.0
C261 C 0.48416 0.5576 0.10324 0.0
C262 C 0.31304 0.56772 0.11204 0.0
C263 C 0.31649 0.59085 0.15172 0.0
C264 C 0.26384 0.6063 0.16695 0.0
C265 C 0.20617 0.59902 0.14299 0.0
C266 C 0.20137 0.57408 0.10353 0.0
C267 C 0.2542 0.55863 0.08822 0.0
C268 C 0.42037 0.49896 7e-05 0.0
C269 C 0.39008 0.51986 0.97105 0.0
C270 C 0.39881 0.50522 0.93166 0.0
C271 C 0.43676 0.46826 0.92073 0.0
C272 C 0.46317 0.44394 0.94991 0.0
C273 C 0.45546 0.45947 -0.01097 0.0
C274 C 0.54858 0.57029 0.12689 0.0
C275 C 0.61708 0.59989 0.10999 0.0
loop_
_geom_bond_atom_site_label_1
_geom_bond_atom_site_label_2
_geom_bond_distance
_geom_bond_site_symmetry_2
_ccdc_geom_bond_type
Zn0 O6 1.969 . S
Zn0 O7 1.965 . S
Zn0 O11 2.024 . S
Zn0 O16 1.969 . S
Zn1 O8 1.969 . S
Zn1 O14 1.969 . S
Zn1 O15 1.965 . S
Zn1 O17 2.024 . S
C2 O3 1.229 . S
C2 O11 1.058 . S
O3 C2 1.229 . S
C4 O5 1.229 . S
C4 O17 1.058 . S
O5 C4 1.229 . S
O6 Zn0 1.969 . S
O6 C9 1.267 . S
O7 Zn0 1.965 . S
O7 C18 1.260 1_455 S
O8 Zn1 1.969 . S
O8 C18 1.258 . S
C9 O6 1.267 . S
C9 O10 1.228 . S
O10 C9 1.228 . S
O11 Zn0 2.024 . S
O11 C2 1.058 . S
C12 O13 1.228 . S
C12 O14 1.267 . S
O13 C12 1.228 . S
O14 Zn1 1.969 . S
O14 C12 1.267 . S
O15 Zn1 1.965 . S
O15 C19 1.260 1_655 S
O16 Zn0 1.969 . S
O16 C19 1.258 . S
O17 Zn1 2.024 . S
O17 C4 1.058 . S
C18 O7 1.260 1_655 S
C18 O8 1.258 . S
C19 O15 1.260 1_455 S
C19 O16 1.258 . S
Zn20 O26 1.969 . S
Zn20 O27 1.965 . S
Zn20 O31 2.024 . S
Zn20 O36 1.969 . S
Zn21 O28 1.969 . S
Zn21 O34 1.969 . S
Zn21 O35 1.965 . S
Zn21 O37 2.024 . S
C22 O23 1.229 . S
C22 O31 1.058 . S
O23 C22 1.229 . S
C24 O25 1.229 . S
C24 O37 1.058 . S
O25 C24 1.229 . S
O26 Zn20 1.969 . S
O26 C29 1.267 . S
O27 Zn20 1.965 . S
O27 C38 1.260 . S
O28 Zn21 1.969 . S
O28 C38 1.258 1_565 S
C29 O26 1.267 . S
C29 O30 1.228 . S
O30 C29 1.228 . S
O31 Zn20 2.024 . S
O31 C22 1.058 . S
C32 O33 1.228 . S
C32 O34 1.267 . S
O33 C32 1.228 . S
O34 Zn21 1.969 . S
O34 C32 1.267 . S
O35 Zn21 1.965 . S
O35 C39 1.260 1_565 S
O36 Zn20 1.969 . S
O36 C39 1.258 . S
O37 Zn21 2.024 . S
O37 C24 1.058 . S
C38 O27 1.260 . S
C38 O28 1.258 1_545 S
C39 O35 1.260 1_545 S
C39 O36 1.258 . S
Zn40 O46 1.969 . S
Zn40 O47 1.965 . S
Zn40 O51 2.024 . S
Zn40 O56 1.969 . S
Zn41 O48 1.969 . S
Zn41 O54 1.969 . S
Zn41 O55 1.965 . S
Zn41 O57 2.024 . S
C42 O43 1.229 . S
C42 O51 1.058 . S
O43 C42 1.229 . S
C44 O45 1.229 . S
C44 O57 1.058 . S
O45 C44 1.229 . S
O46 Zn40 1.969 . S
O46 C49 1.267 . S
O47 Zn40 1.965 . S
O47 C58 1.260 . S
O48 Zn41 1.969 . S
O48 C58 1.258 . S
C49 O46 1.267 . S
C49 O50 1.228 . S
O50 C49 1.228 . S
O51 Zn40 2.024 . S
O51 C42 1.058 . S
C52 O53 1.228 . S
C52 O54 1.267 . S
O53 C52 1.228 . S
O54 Zn41 1.969 . S
O54 C52 1.267 . S
O55 Zn41 1.965 . S
O55 C59 1.260 . S
O56 Zn40 1.969 . S
O56 C59 1.258 . S
O57 Zn41 2.024 . S
O57 C44 1.058 . S
C58 O47 1.260 . S
C58 O48 1.258 . S
C59 O55 1.260 . S
C59 O56 1.258 . S
C60 C61 1.384 . S
C60 H73 0.947 . S
C60 C95 1.382 . S
C61 C60 1.384 . S
C61 C62 1.378 . S
C62 C61 1.378 . S
C62 C63 1.378 . S
C62 H74 0.952 . S
C63 C62 1.378 . S
C63 H75 0.950 . S
C63 C94 1.383 . S
H64 C83 0.947 . S
H65 C84 0.946 . S
H66 C86 0.953 . S
H67 C87 0.945 . S
H68 C89 0.952 . S
H69 C90 0.949 . S
H70 C92 0.950 . S
H71 C93 0.948 . S
H72 C95 0.951 . S
H73 C60 0.947 . S
H74 C62 0.952 . S
H75 C63 0.950 . S
N76 C79 1.382 . S
N76 C81 1.363 1_545 S
N77 C79 1.371 . S
N77 C80 1.372 . S
N78 C80 1.361 1_565 S
N78 C81 1.377 . S
C79 N76 1.382 . S
C79 N77 1.371 . S
C79 C82 1.480 . S
C80 N77 1.372 . S
C80 N78 1.361 1_545 S
C80 C88 1.457 . S
C81 N76 1.363 1_565 S
C81 N78 1.377 . S
C81 C94 1.479 . S
C82 C79 1.480 . S
C82 C83 1.383 . S
C82 C87 1.385 . S
C83 H64 0.947 . S
C83 C82 1.383 . S
C83 C84 1.388 . S
C84 H65 0.946 . S
C84 C83 1.388 . S
C84 C85 1.384 . S
C85 C84 1.384 . S
C85 C86 1.377 . S
C86 H66 0.953 . S
C86 C85 1.377 . S
C86 C87 1.369 . S
C87 H67 0.945 . S
C87 C82 1.385 . S
C87 C86 1.369 . S
C88 C80 1.457 . S
C88 C89 1.372 . S
C88 C93 1.364 1_545 S
C89 H68 0.952 . S
C89 C88 1.372 . S
C89 C90 1.389 . S
C90 H69 0.949 . S
C90 C89 1.389 . S
C90 C91 1.387 . S
C91 C90 1.387 . S
C91 C92 1.372 1_545 S
C92 H70 0.950 . S
C92 C91 1.372 1_565 S
C92 C93 1.379 . S
C93 H71 0.948 . S
C93 C88 1.364 1_565 S
C93 C92 1.379 . S
C94 C63 1.383 . S
C94 C81 1.479 . S
C94 C95 1.398 . S
C95 C60 1.382 . S
C95 H72 0.951 . S
C95 C94 1.398 . S
C96 C97 1.384 . S
C96 H109 0.947 . S
C96 C131 1.382 . S
C97 C96 1.384 . S
C97 C98 1.378 . S
C98 C97 1.378 . S
C98 C99 1.378 . S
C98 H110 0.952 . S
C99 C98 1.378 . S
C99 H111 0.950 . S
C99 C130 1.383 . S
H100 C119 0.947 . S
H101 C120 0.946 . S
H102 C122 0.953 . S
H103 C123 0.945 . S
H104 C125 0.952 . S
H105 C126 0.949 . S
H106 C128 0.950 . S
H107 C129 0.948 . S
H108 C131 0.951 . S
H109 C96 0.947 . S
H110 C98 0.952 . S
H111 C99 0.950 . S
N112 C115 1.382 . S
N112 C117 1.363 . S
N113 C115 1.371 . S
N113 C116 1.372 . S
N114 C116 1.361 . S
N114 C117 1.377 . S
C115 N112 1.382 . S
C115 N113 1.371 . S
C115 C118 1.480 . S
C116 N113 1.372 . S
C116 N114 1.361 . S
C116 C124 1.457 . S
C117 N112 1.363 . S
C117 N114 1.377 . S
C117 C130 1.479 . S
C118 C115 1.480 . S
C118 C119 1.383 . S
C118 C123 1.385 . S
C119 H100 0.947 . S
C119 C118 1.383 . S
C119 C120 1.388 . S
C120 H101 0.946 . S
C120 C119 1.388 . S
C120 C121 1.384 . S
C121 C120 1.384 . S
C121 C122 1.377 . S
C122 H102 0.953 . S
C122 C121 1.377 . S
C122 C123 1.369 . S
C123 H103 0.945 . S
C123 C118 1.385 . S
C123 C122 1.369 . S
C124 C116 1.457 . S
C124 C125 1.372 . S
C124 C129 1.364 . S
C125 H104 0.952 . S
C125 C124 1.372 . S
C125 C126 1.389 . S
C126 H105 0.949 . S
C126 C125 1.389 . S
C126 C127 1.387 . S
C127 C126 1.387 . S
C127 C128 1.372 . S
C128 H106 0.950 . S
C128 C127 1.372 . S
C128 C129 1.379 . S
C129 H107 0.948 . S
C129 C124 1.364 . S
C129 C128 1.379 . S
C130 C99 1.383 . S
C130 C117 1.479 . S
C130 C131 1.398 . S
C131 C96 1.382 . S
C131 H108 0.951 . S
C131 C130 1.398 . S
C132 C133 1.384 . S
C132 H145 0.947 . S
C132 C167 1.382 . S
C133 C132 1.384 . S
C133 C134 1.378 . S
C134 C133 1.378 . S
C134 C135 1.378 . S
C134 H146 0.952 . S
C135 C134 1.378 . S
C135 H147 0.950 . S
C135 C166 1.383 . S
H136 C155 0.947 . S
H137 C156 0.946 . S
H138 C158 0.953 . S
H139 C159 0.945 . S
H140 C161 0.952 1_556 S
H141 C162 0.949 . S
H142 C164 0.950 . S
H143 C165 0.948 1_556 S
H144 C167 0.951 . S
H145 C132 0.947 . S
H146 C134 0.952 . S
H147 C135 0.950 . S
N148 C151 1.382 . S
N148 C153 1.363 1_455 S
N149 C151 1.371 . S
N149 C152 1.372 . S
N150 C152 1.361 1_655 S
N150 C153 1.377 . S
C151 N148 1.382 . S
C151 N149 1.371 . S
C151 C154 1.480 . S
C152 N149 1.372 . S
C152 N150 1.361 1_455 S
C152 C160 1.457 . S
C153 N148 1.363 1_655 S
C153 N150 1.377 . S
C153 C166 1.479 . S
C154 C151 1.480 . S
C154 C155 1.383 . S
C154 C159 1.385 . S
C155 H136 0.947 . S
C155 C154 1.383 . S
C155 C156 1.388 . S
C156 H137 0.946 . S
C156 C155 1.388 . S
C156 C157 1.384 . S
C157 C156 1.384 . S
C157 C158 1.377 . S
C158 H138 0.953 . S
C158 C157 1.377 . S
C158 C159 1.369 . S
C159 H139 0.945 . S
C159 C154 1.385 . S
C159 C158 1.369 . S
C160 C152 1.457 . S
C160 C161 1.372 1_556 S
C160 C165 1.364 1_456 S
C161 H140 0.952 1_554 S
C161 C160 1.372 1_554 S
C161 C162 1.389 . S
C162 H141 0.949 . S
C162 C161 1.389 . S
C162 C163 1.387 . S
C163 C162 1.387 . S
C163 C164 1.372 1_455 S
C164 H142 0.950 . S
C164 C163 1.372 1_655 S
C164 C165 1.379 . S
C165 H143 0.948 1_554 S
C165 C160 1.364 1_654 S
C165 C164 1.379 . S
C166 C135 1.383 . S
C166 C153 1.479 . S
C166 C167 1.398 . S
C167 C132 1.382 . S
C167 H144 0.951 . S
C167 C166 1.398 . S
C168 C169 1.384 . S
C168 H181 0.947 . S
C168 C203 1.382 . S
C169 C168 1.384 . S
C169 C170 1.378 . S
C170 C169 1.378 . S
C170 C171 1.378 . S
C170 H182 0.952 . S
C171 C170 1.378 . S
C171 H183 0.950 . S
C171 C202 1.383 . S
H172 C191 0.947 . S
H173 C192 0.946 . S
H174 C194 0.953 . S
H175 C195 0.945 . S
H176 C197 0.952 . S
H177 C198 0.949 . S
H178 C200 0.950 . S
H179 C201 0.948 . S
H180 C203 0.951 . S
H181 C168 0.947 . S
H182 C170 0.952 . S
H183 C171 0.950 . S
N184 C187 1.382 1_455 S
N184 C189 1.363 . S
N185 C187 1.371 . S
N185 C188 1.372 1_655 S
N186 C188 1.361 . S
N186 C189 1.377 . S
C187 N184 1.382 1_655 S
C187 N185 1.371 . S
C187 C190 1.480 . S
C188 N185 1.372 1_455 S
C188 N186 1.361 . S
C188 C196 1.457 . S
C189 N184 1.363 . S
C189 N186 1.377 . S
C189 C202 1.479 . S
C190 C187 1.480 . S
C190 C191 1.383 . S
C190 C195 1.385 . S
C191 H172 0.947 . S
C191 C190 1.383 . S
C191 C192 1.388 . S
C192 H173 0.946 . S
C192 C191 1.388 . S
C192 C193 1.384 . S
C193 C192 1.384 . S
C193 C194 1.377 . S
C194 H174 0.953 . S
C194 C193 1.377 . S
C194 C195 1.369 . S
C195 H175 0.945 . S
C195 C190 1.385 . S
C195 C194 1.369 . S
C196 C188 1.457 . S
C196 C197 1.372 1_455 S
C196 C201 1.364 . S
C197 H176 0.952 . S
C197 C196 1.372 1_655 S
C197 C198 1.389 . S
C198 H177 0.949 . S
C198 C197 1.389 . S
C198 C199 1.393 . S
C199 C198 1.393 . S
C199 C200 1.364 1_655 S
C200 H178 0.950 . S
C200 C199 1.364 1_455 S
C200 C201 1.379 . S
C201 H179 0.948 . S
C201 C196 1.364 . S
C201 C200 1.379 . S
C202 C171 1.383 . S
C202 C189 1.479 . S
C202 C203 1.398 . S
C203 C168 1.382 . S
C203 H180 0.951 . S
C203 C202 1.398 . S
C204 C205 1.384 . S
C204 H217 0.947 . S
C204 C239 1.382 . S
C205 C204 1.384 . S
C205 C206 1.378 . S
C206 C205 1.378 . S
C206 C207 1.378 . S
C206 H218 0.952 . S
C207 C206 1.378 . S
C207 H219 0.950 . S
C207 C238 1.383 . S
H208 C227 0.947 . S
H209 C228 0.946 . S
H210 C230 0.953 . S
H211 C231 0.945 . S
H212 C233 0.952 . S
H213 C234 0.949 . S
H214 C236 0.950 . S
H215 C237 0.948 . S
H216 C239 0.951 . S
H217 C204 0.947 . S
H218 C206 0.952 . S
H219 C207 0.950 . S
N220 C223 1.382 1_545 S
N220 C225 1.363 . S
N221 C223 1.371 . S
N221 C224 1.372 1_565 S
N222 C224 1.361 . S
N222 C225 1.377 . S
C223 N220 1.382 1_565 S
C223 N221 1.371 . S
C223 C226 1.480 . S
C224 N221 1.372 1_545 S
C224 N222 1.361 . S
C224 C232 1.457 . S
C225 N220 1.363 . S
C225 N222 1.377 . S
C225 C238 1.479 . S
C226 C223 1.480 . S
C226 C227 1.383 . S
C226 C231 1.385 . S
C227 H208 0.947 . S
C227 C226 1.383 . S
C227 C228 1.388 . S
C228 H209 0.946 . S
C228 C227 1.388 . S
C228 C229 1.384 . S
C229 C228 1.384 . S
C229 C230 1.377 . S
C230 H210 0.953 . S
C230 C229 1.377 . S
C230 C231 1.369 . S
C231 H211 0.945 . S
C231 C226 1.385 . S
C231 C230 1.369 . S
C232 C224 1.457 . S
C232 C233 1.372 1_545 S
C232 C237 1.364 . S
C233 H212 0.952 . S
C233 C232 1.372 1_565 S
C233 C234 1.389 . S
C234 H213 0.949 . S
C234 C233 1.389 . S
C234 C235 1.387 1_565 S
C235 C234 1.387 1_545 S
C235 C236 1.372 . S
C236 H214 0.950 . S
C236 C235 1.372 . S
C236 C237 1.379 . S
C237 H215 0.948 . S
C237 C232 1.364 . S
C237 C236 1.379 . S
C238 C207 1.383 . S
C238 C225 1.479 . S
C238 C239 1.398 . S
C239 C204 1.382 . S
C239 H216 0.951 . S
C239 C238 1.398 . S
C240 C241 1.384 . S
C240 H253 0.947 . S
C240 C275 1.382 . S
C241 C240 1.384 . S
C241 C242 1.378 . S
C242 C241 1.378 . S
C242 C243 1.378 . S
C242 H254 0.952 . S
C243 C242 1.378 . S
C243 H255 0.950 . S
C243 C274 1.383 . S
H244 C263 0.947 . S
H245 C264 0.946 . S
H246 C266 0.953 . S
H247 C267 0.945 . S
H248 C269 0.952 1_554 S
H249 C270 0.949 . S
H250 C272 0.950 . S
H251 C273 0.948 1_554 S
H252 C275 0.951 . S
H253 C240 0.947 . S
H254 C242 0.952 . S
H255 C243 0.950 . S
N256 C259 1.382 . S
N256 C261 1.363 . S
N257 C259 1.371 . S
N257 C260 1.372 . S
N258 C260 1.361 . S
N258 C261 1.377 . S
C259 N256 1.382 . S
C259 N257 1.371 . S
C259 C262 1.480 . S
C260 N257 1.372 . S
C260 N258 1.361 . S
C260 C268 1.457 . S
C261 N256 1.363 . S
C261 N258 1.377 . S
C261 C274 1.479 . S
C262 C259 1.480 . S
C262 C263 1.383 . S
C262 C267 1.385 . S
C263 H244 0.947 . S
C263 C262 1.383 . S
C263 C264 1.388 . S
C264 H245 0.946 . S
C264 C263 1.388 . S
C264 C265 1.384 . S
C265 C264 1.384 . S
C265 C266 1.377 . S
C266 H246 0.953 . S
C266 C265 1.377 . S
C266 C267 1.369 . S
C267 H247 0.945 . S
C267 C262 1.385 . S
C267 C266 1.369 . S
C268 C260 1.457 . S
C268 C269 1.372 1_554 S
C268 C273 1.364 1_554 S
C269 H248 0.952 1_556 S
C269 C268 1.372 1_556 S
C269 C270 1.389 . S
C270 H249 0.949 . S
C270 C269 1.389 . S
C270 C271 1.387 . S
C271 C270 1.387 . S
C271 C272 1.372 . S
C272 H250 0.950 . S
C272 C271 1.372 . S
C272 C273 1.379 . S
C273 H251 0.948 1_556 S
C273 C268 1.364 1_556 S
C273 C272 1.379 . S
C274 C243 1.383 . S
C274 C261 1.479 . S
C274 C275 1.398 . S
C275 C240 1.382 . S
C275 H252 0.951 . S
C275 C274 1.398 . S
C2 C265 1.656 . S
C22 C193 1.594 . S
C44 C229 1.771 . S
C4 C241 2.063 . S
C169 C24 2.164 . S
C205 C42 1.934 . S
C32 C121 1.683 . S
C49 C133 1.459 . S
C9 C61 1.430 . S
C97 C29 1.381 . S
C157 C52 1.401 . S
C12 C85 1.372 . S
C163 C18 1.423 1_455 S
C38 C91 1.392 . S
C58 C127 1.409 . S
C235 C39 1.513 . S
C271 C59 1.469 . S
C19 C199 1.472 1_455 S
