# Generated by pormake.
# Topology dag, (6,3)-cn, num edge types: 1
# Building blocks:
#     Node 0, Type 0, BuildingBlock: MIDCAF_clean_sbu_0, # of connection points: 6
#     Node 1, Type 0, BuildingBlock: MIDCAF_clean_sbu_0, # of connection points: 6
#     Node 2, Type 0, BuildingBlock: MIDCAF_clean_sbu_0, # of connection points: 6
#     Node 3, Type 0, BuildingBlock: MIDCAF_clean_sbu_0, # of connection points: 6
#     Node 4, Type 1, BuildingBlock: CUQRIR_clean_linker_1, # of connection points: 3
#     Node 5, Type 1, BuildingBlock: CUQRIR_clean_linker_1, # of connection points: 3
#     Node 6, Type 1, BuildingBlock: CUQRIR_clean_linker_1, # of connection points: 3
#     Node 7, Type 1, BuildingBlock: CUQRIR_clean_linker_1, # of connection points: 3
#     Node 8, Type 1, BuildingBlock: CUQRIR_clean_linker_1, # of connection points: 3
#     Node 9, Type 1, BuildingBlock: CUQRIR_clean_linker_1, # of connection points: 3
#     Node 10, Type 1, BuildingBlock: CUQRIR_clean_linker_1, # of connection points: 3
#     Node 11, Type 1, BuildingBlock: CUQRIR_clean_linker_1, # of connection points: 3
#     Edge 12, Type (0, 1), BuildingBlock: UVAHIK_clean_linker_0, # of connection points: 2
#     Edge 13, Type (0, 1), BuildingBlock: UVAHIK_clean_linker_0, # of connection points: 2
#     Edge 14, Type (0, 1), BuildingBlock: UVAHIK_clean_linker_0, # of connection points: 2
#     Edge 15, Type (0, 1), BuildingBlock: UVAHIK_clean_linker_0, # of connection points: 2
#     Edge 16, Type (0, 1), BuildingBlock: UVAHIK_clean_linker_0, # of connection points: 2
#     Edge 17, Type (0, 1), BuildingBlock: UVAHIK_clean_linker_0, # of connection points: 2
#     Edge 18, Type (0, 1), BuildingBlock: UVAHIK_clean_linker_0, # of connection points: 2
#     Edge 19, Type (0, 1), BuildingBlock: UVAHIK_clean_linker_0, # of connection points: 2
#     Edge 20, Type (0, 1), BuildingBlock: UVAHIK_clean_linker_0, # of connection points: 2
#     Edge 21, Type (0, 1), BuildingBlock: UVAHIK_clean_linker_0, # of connection points: 2
#     Edge 22, Type (0, 1), BuildingBlock: UVAHIK_clean_linker_0, # of connection points: 2
#     Edge 23, Type (0, 1), BuildingBlock: UVAHIK_clean_linker_0, # of connection points: 2
#     Edge 24, Type (0, 1), BuildingBlock: UVAHIK_clean_linker_0, # of connection points: 2
#     Edge 25, Type (0, 1), BuildingBlock: UVAHIK_clean_linker_0, # of connection points: 2
#     Edge 26, Type (0, 1), BuildingBlock: UVAHIK_clean_linker_0, # of connection points: 2
#     Edge 27, Type (0, 1), BuildingBlock: UVAHIK_clean_linker_0, # of connection points: 2
#     Edge 28, Type (0, 1), BuildingBlock: UVAHIK_clean_linker_0, # of connection points: 2
#     Edge 29, Type (0, 1), BuildingBlock: UVAHIK_clean_linker_0, # of connection points: 2
#     Edge 30, Type (0, 1), BuildingBlock: UVAHIK_clean_linker_0, # of connection points: 2
#     Edge 31, Type (0, 1), BuildingBlock: UVAHIK_clean_linker_0, # of connection points: 2
#     Edge 32, Type (0, 1), BuildingBlock: UVAHIK_clean_linker_0, # of connection points: 2
#     Edge 33, Type (0, 1), BuildingBlock: UVAHIK_clean_linker_0, # of connection points: 2
#     Edge 34, Type (0, 1), BuildingBlock: UVAHIK_clean_linker_0, # of connection points: 2
#     Edge 35, Type (0, 1), BuildingBlock: UVAHIK_clean_linker_0, # of connection points: 2
# Relax obj value: 0.121
# Max RMSD: 0.122
# Mean RMSD: 0.090
data_MOF--net-dag--node1-MIDCAF_clean_sbu_0--node2-CUQRIR_clean_linker_1--edge1-UVAHIK_clean_linker_0
_symmetry_space_group_name_H-M    P1
_symmetry_Int_Tables_number       1
_symmetry_cell_setting            triclinic
loop_
_symmetry_equiv_pos_as_xyz
'x, y, z'
_cell_length_a     49.852679
_cell_length_b     49.812878
_cell_length_c     39.174337
_cell_angle_alpha  89.94532
_cell_angle_beta   90.263364
_cell_angle_gamma 89.861123
loop_
_atom_site_label
_atom_site_type_symbol
_atom_site_fract_x
_atom_site_fract_y
_atom_site_fract_z
_atom_type_partial_charge
Zn0 Zn 0.11285 0.84487 0.09055 0.0
Zn1 Zn 0.13311 0.88417 0.91618 0.0
Zn2 Zn 0.11413 0.8787 0.9974 0.0
C3 C 0.11154 0.93096 0.95027 0.0
C4 C 0.10734 0.84002 0.93753 0.0
O5 O 0.13555 0.84034 0.99738 0.0
O6 O 0.10946 0.83335 0.04062 0.0
C7 C 0.13712 0.89208 0.07298 0.0
O8 O 0.11663 0.91941 0.97875 0.0
O9 O 0.11181 0.91817 0.92233 0.0
O10 O 0.11241 0.84926 0.90822 0.0
O11 O 0.12256 0.84797 0.96187 0.0
O12 O 0.13618 0.87898 0.10073 0.0
O13 O 0.12554 0.88198 0.04734 0.0
O14 O 0.07333 0.87182 0.01388 0.0
O15 O 0.07571 0.85282 0.06598 0.0
C16 C 0.06219 0.86194 0.0406 0.0
O17 O 0.1509 0.85622 0.97676 0.0
O18 O 0.16989 0.88323 0.93908 0.0
C19 C 0.12913 0.82556 0.02307 0.0
C20 C 0.17212 0.86437 0.96056 0.0
Zn21 Zn 0.60365 0.62943 0.4095 0.0
Zn22 Zn 0.62693 0.61607 0.57279 0.0
Zn23 Zn 0.61205 0.61437 0.49724 0.0
C24 C 0.60744 0.56772 0.55053 0.0
C25 C 0.60544 0.66241 0.54657 0.0
O26 O 0.63539 0.65123 0.48545 0.0
O27 O 0.62674 0.65943 0.42975 0.0
C28 C 0.63027 0.58723 0.42705 0.0
O29 O 0.61744 0.57581 0.52234 0.0
O30 O 0.6019 0.58459 0.57356 0.0
O31 O 0.61171 0.65384 0.57596 0.0
O32 O 0.61863 0.65257 0.52129 0.0
O33 O 0.62477 0.59471 0.397 0.0
O34 O 0.62099 0.60116 0.45104 0.0
O35 O 0.57014 0.61922 0.48731 0.0
O36 O 0.56635 0.62579 0.43091 0.0
C37 C 0.556 0.62271 0.4603 0.0
O38 O 0.64677 0.6391 0.51526 0.0
O39 O 0.66382 0.61049 0.55239 0.0
C40 C 0.63789 0.66561 0.45795 0.0
C41 C 0.66701 0.63051 0.53307 0.0
Zn42 Zn 0.85952 0.11405 0.91412 0.0
Zn43 Zn 0.88259 0.09569 0.05031 0.0
Zn44 Zn 0.87672 0.11373 0.99611 0.0
C45 C 0.93014 0.10933 0.03481 0.0
C46 C 0.832 0.08285 0.029 0.0
O47 O 0.83674 0.13366 0.9919 0.0
O48 O 0.82732 0.13224 0.93579 0.0
C49 C 0.9002 0.14474 0.92853 0.0
O50 O 0.91376 0.12654 0.02218 0.0
O51 O 0.92126 0.08629 0.04215 0.0
O52 O 0.8516 0.07068 0.04271 0.0
O53 O 0.83591 0.10545 0.0141 0.0
O54 O 0.889 0.14047 0.90005 0.0
O55 O 0.89115 0.13281 0.95448 0.0
O56 O 0.87971 0.07278 0.98281 0.0
O57 O 0.87008 0.07526 0.92719 0.0
C58 C 0.87696 0.06188 0.95354 0.0
O59 O 0.84742 0.13544 0.02548 0.0
O60 O 0.87346 0.13319 0.07081 0.0
C61 C 0.82148 0.13932 0.96598 0.0
C62 C 0.85461 0.14476 0.05467 0.0
Zn63 Zn 0.3607 0.37165 0.58474 0.0
Zn64 Zn 0.38495 0.37503 0.44935 0.0
Zn65 Zn 0.38468 0.37295 0.50871 0.0
C66 C 0.43772 0.3775 0.47038 0.0
C67 C 0.35208 0.41639 0.47379 0.0
O68 O 0.34729 0.34848 0.51946 0.0
O69 O 0.3269 0.37591 0.55531 0.0
C70 C 0.38705 0.32945 0.56147 0.0
O71 O 0.42649 0.36666 0.49615 0.0
O72 O 0.42323 0.38775 0.44719 0.0
O73 O 0.35419 0.40141 0.44792 0.0
O74 O 0.36597 0.4114 0.50063 0.0
O75 O 0.37802 0.33428 0.59093 0.0
O76 O 0.37348 0.33933 0.53675 0.0
O77 O 0.37978 0.41272 0.53281 0.0
O78 O 0.38416 0.40467 0.58845 0.0
C79 C 0.38464 0.42084 0.56346 0.0
O80 O 0.36121 0.33767 0.49222 0.0
O81 O 0.37721 0.33603 0.43985 0.0
C82 C 0.32532 0.35715 0.53368 0.0
C83 C 0.3639 0.32529 0.46353 0.0
C84 C 0.17842 0.16422 0.24791 0.0
N85 N 0.17282 0.14694 0.2221 0.0
N86 N 0.20206 0.15772 0.26299 0.0
C87 C 0.16046 0.18663 0.25955 0.0
C88 C 0.21082 0.13612 0.24544 0.0
N89 N 0.19305 0.12951 0.22071 0.0
C90 C 0.2372 0.12217 0.25161 0.0
H91 H 0.16482 0.20485 0.24427 0.0
H92 H 0.16413 0.19136 0.28685 0.0
H93 H 0.13905 0.18129 0.25578 0.0
H94 H 0.23393 0.10502 0.26917 0.0
H95 H 0.252 0.13589 0.26356 0.0
H96 H 0.24547 0.11423 0.22737 0.0
C97 C 0.32911 0.6839 0.74066 0.0
N98 N 0.3472 0.67818 0.71607 0.0
N99 N 0.33458 0.70804 0.75505 0.0
C100 C 0.30734 0.6652 0.75223 0.0
C101 C 0.35664 0.71673 0.73837 0.0
N102 N 0.36423 0.6986 0.71467 0.0
C103 C 0.37037 0.74309 0.74477 0.0
H104 H 0.28929 0.66855 0.73609 0.0
H105 H 0.3019 0.66902 0.77923 0.0
H106 H 0.31362 0.64395 0.7493 0.0
H107 H 0.38609 0.74016 0.76458 0.0
H108 H 0.35589 0.75831 0.75415 0.0
H109 H 0.38013 0.75056 0.72121 0.0
C110 C 0.77893 0.86521 0.24741 0.0
N111 N 0.79597 0.87308 0.22252 0.0
N112 N 0.78857 0.84321 0.26358 0.0
C113 C 0.75186 0.87755 0.25403 0.0
C114 C 0.81197 0.8378 0.24753 0.0
N115 N 0.81652 0.85596 0.22238 0.0
C116 C 0.83086 0.81562 0.2578 0.0
H117 H 0.7543 0.89446 0.2722 0.0
H118 H 0.73794 0.86274 0.26544 0.0
H119 H 0.74291 0.88553 0.23009 0.0
H120 H 0.82617 0.79743 0.24259 0.0
H121 H 0.82848 0.81056 0.28521 0.0
H122 H 0.85199 0.82138 0.25296 0.0
C123 C 0.66378 0.31161 0.74709 0.0
N124 N 0.64747 0.3178 0.72055 0.0
N125 N 0.65878 0.28639 0.75821 0.0
C126 C 0.6858 0.32925 0.76067 0.0
C127 C 0.63876 0.27752 0.73767 0.0
N128 N 0.6319 0.29667 0.71474 0.0
C129 C 0.62493 0.25092 0.74143 0.0
H130 H 0.70532 0.32146 0.75141 0.0
H131 H 0.68626 0.32856 0.78895 0.0
H132 H 0.6835 0.35033 0.75206 0.0
H133 H 0.62648 0.2434 0.76804 0.0
H134 H 0.63475 0.23615 0.72435 0.0
H135 H 0.60349 0.25248 0.73394 0.0
C136 C 0.67993 0.3332 0.25062 0.0
N137 N 0.67522 0.35052 0.27657 0.0
N138 N 0.70371 0.3387 0.23556 0.0
C139 C 0.66143 0.31106 0.23963 0.0
C140 C 0.71351 0.3597 0.2535 0.0
N141 N 0.69616 0.36693 0.27822 0.0
C142 C 0.74097 0.37164 0.24891 0.0
H143 H 0.66604 0.29277 0.25475 0.0
H144 H 0.66434 0.30631 0.21222 0.0
H145 H 0.64019 0.31672 0.24411 0.0
H146 H 0.73895 0.39096 0.23499 0.0
H147 H 0.75436 0.35823 0.23412 0.0
H148 H 0.75028 0.37593 0.2741 0.0
C149 C 0.14167 0.21791 0.76192 0.0
N150 N 0.13391 0.20057 0.78635 0.0
N151 N 0.16415 0.20882 0.74643 0.0
C152 C 0.12583 0.24229 0.75117 0.0
C153 C 0.16956 0.18516 0.76231 0.0
N154 N 0.15103 0.18009 0.78661 0.0
C155 C 0.19394 0.1681 0.7559 0.0
H156 H 0.12825 0.24631 0.72349 0.0
H157 H 0.13317 0.25996 0.76565 0.0
H158 H 0.1042 0.23972 0.7568 0.0
H159 H 0.21094 0.1806 0.74703 0.0
H160 H 0.18919 0.15315 0.73582 0.0
H161 H 0.19998 0.15713 0.77939 0.0
C162 C 0.28292 0.63332 0.24462 0.0
N163 N 0.29966 0.62518 0.26976 0.0
N164 N 0.29338 0.6547 0.22802 0.0
C165 C 0.2553 0.62214 0.23838 0.0
C166 C 0.31698 0.65933 0.24427 0.0
N167 N 0.32078 0.64136 0.26975 0.0
C168 C 0.3366 0.68084 0.23449 0.0
H169 H 0.2558 0.60925 0.21531 0.0
H170 H 0.24078 0.63865 0.23358 0.0
H171 H 0.24826 0.60987 0.2602 0.0
H172 H 0.33259 0.69911 0.24983 0.0
H173 H 0.33446 0.68608 0.20706 0.0
H174 H 0.35748 0.6742 0.23974 0.0
C175 C 0.827 0.80804 0.76042 0.0
N176 N 0.84577 0.81434 0.78405 0.0
N177 N 0.83316 0.78434 0.74516 0.0
C178 C 0.80297 0.82513 0.75206 0.0
C179 C 0.85643 0.77663 0.76037 0.0
N180 N 0.86392 0.79485 0.784 0.0
C181 C 0.87212 0.75175 0.75157 0.0
H182 H 0.78605 0.8126 0.74287 0.0
H183 H 0.80842 0.83954 0.73164 0.0
H184 H 0.79647 0.83681 0.77464 0.0
H185 H 0.86982 0.74681 0.7241 0.0
H186 H 0.86437 0.7347 0.76681 0.0
H187 H 0.89371 0.75407 0.75764 0.0
C188 C 0.179 0.91859 0.07887 0.0
C189 C 0.1517 0.91746 0.07058 0.0
C190 C 0.19189 0.94337 0.08155 0.0
C191 C 0.17838 0.01835 0.07861 0.0
H192 H 0.22522 0.01647 0.15772 0.0
C193 C 0.19642 0.11273 0.16169 0.0
C194 C 0.19565 0.10779 0.1969 0.0
C195 C 0.19838 0.09135 0.13866 0.0
C196 C 0.21205 0.01742 0.13568 0.0
H197 H 0.11671 0.9405 0.05604 0.0
H198 H 0.13815 0.98377 0.06355 0.0
H199 H 0.21509 0.97539 0.12827 0.0
H200 H 0.19616 0.07734 0.23606 0.0
H201 H 0.19857 0.03988 0.19637 0.0
H202 H 0.17318 0.0602 0.08879 0.0
C203 C 0.15036 0.96596 0.06673 0.0
C204 C 0.20659 0.99374 0.11811 0.0
C205 C 0.13781 0.94112 0.06277 0.0
C206 C 0.19707 0.0814 0.20893 0.0
C207 C 0.19871 0.06006 0.18609 0.0
C208 C 0.18327 0.04198 0.09685 0.0
C209 C 0.17733 0.96752 0.07769 0.0
C210 C 0.18853 0.99354 0.09033 0.0
C211 C 0.19936 0.06469 0.1506 0.0
C212 C 0.19906 0.04147 0.12669 0.0
H213 H 0.19015 0.90034 0.08419 0.0
H214 H 0.21294 0.94348 0.08838 0.0
H215 H 0.16534 0.0194 0.05648 0.0
H216 H 0.19547 0.13313 0.15216 0.0
H217 H 0.19902 0.09571 0.1116 0.0
C218 C 0.56656 0.69363 0.54388 0.0
C219 C 0.57656 0.66732 0.54325 0.0
C220 C 0.53999 0.69845 0.55378 0.0
C221 C 0.4947 0.66686 0.61347 0.0
H222 H 0.44344 0.72197 0.58769 0.0
C223 C 0.41285 0.70112 0.70528 0.0
C224 C 0.38674 0.70016 0.69207 0.0
C225 C 0.4348 0.69935 0.6834 0.0
C226 C 0.45762 0.70647 0.595 0.0
H227 H 0.56674 0.62548 0.55118 0.0
H228 H 0.52016 0.63359 0.56548 0.0
H229 H 0.48256 0.7133 0.55121 0.0
H230 H 0.36261 0.69758 0.64628 0.0
H231 H 0.40117 0.69487 0.60753 0.0
H232 H 0.47025 0.66012 0.65725 0.0
C233 C 0.53265 0.65057 0.55887 0.0
C234 C 0.47993 0.70158 0.57424 0.0
C235 C 0.55917 0.64587 0.54991 0.0
C236 C 0.38275 0.69845 0.65669 0.0
C237 C 0.40469 0.69702 0.6347 0.0
C238 C 0.47271 0.67191 0.63422 0.0
C239 C 0.52331 0.67693 0.56318 0.0
C240 C 0.49865 0.68164 0.5833 0.0
C241 C 0.4309 0.69684 0.64796 0.0
C242 C 0.45405 0.69185 0.62537 0.0
H243 H 0.57989 0.71048 0.53988 0.0
H244 H 0.53335 0.719 0.55709 0.0
H245 H 0.50902 0.65173 0.62158 0.0
H246 H 0.41616 0.70213 0.73259 0.0
H247 H 0.45484 0.69935 0.69422 0.0
C248 C 0.79449 0.07396 0.0671 0.0
C249 C 0.80536 0.07149 0.03432 0.0
C250 C 0.78048 0.05253 0.08151 0.0
C251 C 0.79156 0.98142 0.07498 0.0
H252 H 0.74551 0.978 0.15426 0.0
C253 C 0.79105 0.88886 0.16322 0.0
C254 C 0.79137 0.89432 0.19829 0.0
C255 C 0.78595 0.90939 0.13973 0.0
C256 C 0.75847 0.97868 0.13217 0.0
H257 H 0.80612 0.04743 0.98851 0.0
H258 H 0.78082 0.0103 0.01307 0.0
H259 H 0.74322 0.01709 0.11644 0.0
H260 H 0.78682 0.92508 0.23667 0.0
H261 H 0.77818 0.96128 0.19571 0.0
H262 H 0.80792 0.94393 0.09146 0.0
C263 C 0.78374 0.02828 0.02818 0.0
C264 C 0.75698 0.00094 0.11039 0.0
C265 C 0.79787 0.04968 0.01389 0.0
C266 C 0.78644 0.92054 0.20964 0.0
C267 C 0.78133 0.9411 0.18622 0.0
C268 C 0.79309 0.95929 0.09671 0.0
C269 C 0.77722 0.02852 0.06309 0.0
C270 C 0.77398 0.00285 0.08197 0.0
C271 C 0.78104 0.93578 0.15096 0.0
C272 C 0.77705 0.95793 0.12601 0.0
H273 H 0.80026 0.0906 0.08335 0.0
H274 H 0.77557 0.05355 0.10838 0.0
H275 H 0.80551 0.98246 0.0539 0.0
H276 H 0.79447 0.86863 0.15411 0.0
H277 H 0.78567 0.90455 0.11279 0.0
C278 C 0.42914 0.30672 0.54274 0.0
C279 C 0.41638 0.32818 0.55918 0.0
C280 C 0.45679 0.30266 0.54718 0.0
C281 C 0.51849 0.33416 0.58383 0.0
H282 H 0.53283 0.26293 0.61981 0.0
C283 C 0.58952 0.31627 0.69486 0.0
C284 C 0.60942 0.29656 0.69167 0.0
C285 C 0.56922 0.31847 0.67053 0.0
C286 C 0.52933 0.28273 0.60921 0.0
H287 H 0.42225 0.36351 0.59044 0.0
H288 H 0.47 0.35666 0.5982 0.0
H289 H 0.49167 0.27126 0.58727 0.0
H290 H 0.62331 0.26279 0.66197 0.0
H291 H 0.58679 0.26598 0.61935 0.0
H292 H 0.55515 0.34604 0.60806 0.0
C293 C 0.45918 0.34288 0.58182 0.0
C294 C 0.50586 0.28751 0.59041 0.0
C295 C 0.43174 0.34674 0.57764 0.0
C296 C 0.60803 0.27811 0.66469 0.0
C297 C 0.58736 0.28004 0.64041 0.0
C298 C 0.54172 0.32944 0.60288 0.0
C299 C 0.47189 0.32026 0.56776 0.0
C300 C 0.49962 0.31358 0.57891 0.0
C301 C 0.56819 0.30068 0.64278 0.0
C302 C 0.54675 0.30398 0.61693 0.0
H303 H 0.41754 0.29225 0.5283 0.0
H304 H 0.46612 0.28522 0.53575 0.0
H305 H 0.5145 0.35432 0.57472 0.0
H306 H 0.59002 0.33025 0.71599 0.0
H307 H 0.55428 0.33412 0.6734 0.0
C308 C 0.67392 0.56424 0.43506 0.0
C309 C 0.64589 0.56303 0.43364 0.0
C310 C 0.689 0.54058 0.43516 0.0
C311 C 0.68174 0.46537 0.43082 0.0
H312 H 0.73258 0.47386 0.3571 0.0
C313 C 0.70225 0.37855 0.33872 0.0
C314 C 0.7009 0.38643 0.30442 0.0
C315 C 0.7054 0.39776 0.36437 0.0
C316 C 0.7185 0.47107 0.37778 0.0
H317 H 0.61123 0.53716 0.43454 0.0
H318 H 0.63712 0.49584 0.43336 0.0
H319 H 0.71892 0.51272 0.3896 0.0
H320 H 0.70242 0.41977 0.26935 0.0
H321 H 0.70685 0.45367 0.3138 0.0
H322 H 0.67895 0.42425 0.41617 0.0
C323 C 0.64791 0.51462 0.43507 0.0
C324 C 0.71098 0.49337 0.39698 0.0
C325 C 0.63294 0.53826 0.43528 0.0
C326 C 0.70357 0.41351 0.2958 0.0
C327 C 0.7064 0.43276 0.32133 0.0
C328 C 0.68882 0.44316 0.41109 0.0
C329 C 0.67615 0.51547 0.43319 0.0
C330 C 0.69105 0.49111 0.42215 0.0
C331 C 0.70698 0.42519 0.35601 0.0
C332 C 0.70591 0.44619 0.38288 0.0
H333 H 0.68411 0.58343 0.43429 0.0
H334 H 0.71066 0.542 0.4346 0.0
H335 H 0.66712 0.46273 0.4509 0.0
H336 H 0.70051 0.35756 0.34555 0.0
H337 H 0.70604 0.39118 0.39071 0.0
C338 C 0.94479 0.15294 0.95441 0.0
C339 C 0.92467 0.16074 0.9313 0.0
C340 C 0.96964 0.16555 0.95416 0.0
C341 C 0.00973 0.21825 0.90997 0.0
H342 H 0.05728 0.15803 0.89297 0.0
C343 C 0.10935 0.22326 0.83215 0.0
C344 C 0.11076 0.20289 0.80756 0.0
C345 C 0.08901 0.22296 0.85653 0.0
C346 C 0.04439 0.17512 0.89802 0.0
H347 H 0.91357 0.189 0.89173 0.0
H348 H 0.95741 0.21052 0.89008 0.0
H349 H 0.01658 0.151 0.9251 0.0
H350 H 0.09178 0.1675 0.78697 0.0
H351 H 0.05584 0.16695 0.82924 0.0
H352 H 0.03691 0.24174 0.88007 0.0
C353 C 0.95394 0.19512 0.90907 0.0
C354 C 0.02123 0.17123 0.91691 0.0
C355 C 0.929 0.18254 0.9095 0.0
C356 C 0.09093 0.18314 0.80613 0.0
C357 C 0.07072 0.18274 0.83041 0.0
C358 C 0.03304 0.22214 0.89095 0.0
C359 C 0.9749 0.18581 0.9302 0.0
C360 C 0.00286 0.19239 0.92127 0.0
C361 C 0.07007 0.20218 0.8564 0.0
C362 C 0.04957 0.20017 0.88317 0.0
H363 H 0.94213 0.13572 0.97078 0.0
H364 H 0.98538 0.15801 0.97079 0.0
H365 H 0.99609 0.23496 0.91351 0.0
H366 H 0.12471 0.23856 0.83336 0.0
H367 H 0.08869 0.23824 0.87617 0.0
C368 C 0.30876 0.43863 0.46102 0.0
C369 C 0.33572 0.44067 0.47089 0.0
C370 C 0.29483 0.4613 0.44965 0.0
C371 C 0.30252 0.53515 0.433 0.0
H372 H 0.26817 0.51638 0.34734 0.0
C373 C 0.28675 0.61445 0.32846 0.0
C374 C 0.29387 0.60586 0.29574 0.0
C375 C 0.28293 0.59574 0.35452 0.0
C376 C 0.27769 0.52201 0.37117 0.0
H377 H 0.36909 0.46761 0.4786 0.0
H378 H 0.34537 0.50708 0.45779 0.0
H379 H 0.27781 0.48158 0.38877 0.0
H380 H 0.30203 0.57178 0.26355 0.0
H381 H 0.29667 0.53879 0.30921 0.0
H382 H 0.3048 0.57517 0.41383 0.0
C383 C 0.33439 0.48842 0.4597 0.0
C384 C 0.2828 0.50207 0.39535 0.0
C385 C 0.34812 0.46581 0.47153 0.0
C386 C 0.29641 0.57848 0.28883 0.0
C387 C 0.29306 0.55975 0.31493 0.0
C388 C 0.29781 0.55503 0.40855 0.0
C389 C 0.30798 0.48618 0.44703 0.0
C390 C 0.2964 0.50819 0.42592 0.0
C391 C 0.28664 0.56817 0.34826 0.0
C392 C 0.28643 0.54844 0.37672 0.0
H393 H 0.29893 0.41925 0.46035 0.0
H394 H 0.27434 0.45896 0.44088 0.0
H395 H 0.31242 0.54069 0.45662 0.0
H396 H 0.28458 0.63566 0.33382 0.0
H397 H 0.2776 0.60292 0.37967 0.0
C398 C 0.06077 0.85578 0.94292 0.0
C399 C 0.07907 0.83441 0.94371 0.0
C400 C 0.03364 0.85092 0.93714 0.0
C401 C 0.98224 0.79831 0.9213 0.0
H402 H 0.96501 0.84381 0.84372 0.0
C403 C 0.88369 0.79257 0.84123 0.0
C404 C 0.88704 0.79417 0.80581 0.0
C405 C 0.90558 0.79616 0.86307 0.0
C406 C 0.96956 0.83094 0.86531 0.0
H407 H 0.08377 0.79131 0.94159 0.0
H408 H 0.03624 0.78264 0.93052 0.0
H409 H 0.00426 0.85363 0.87829 0.0
H410 H 0.91517 0.80062 0.76493 0.0
H411 H 0.95387 0.80662 0.80301 0.0
H412 H 0.94772 0.77511 0.90715 0.0
C413 C 0.04259 0.80308 0.93531 0.0
C414 C 0.99178 0.83681 0.88552 0.0
C415 C 0.06976 0.80798 0.94157 0.0
C416 C 0.91252 0.79879 0.79225 0.0
C417 C 0.9344 0.80253 0.814 0.0
C418 C 0.95977 0.79252 0.9011 0.0
C419 C 0.02462 0.82466 0.93097 0.0
C420 C -0.00135 0.82034 0.91339 0.0
C421 C 0.93101 0.80178 0.84963 0.0
C422 C 0.95365 0.80847 0.87248 0.0
H423 H 0.06777 0.87635 0.94401 0.0
H424 H 0.02014 0.86788 0.9345 0.0
H425 H 0.98711 0.78529 0.94262 0.0
H426 H 0.86393 0.78947 0.85186 0.0
H427 H 0.90241 0.79574 0.8904 0.0
C428 C 0.86353 0.01422 0.96167 0.0
C429 C 0.88171 0.03307 0.9488 0.0
C430 C 0.86304 0.9881 0.94839 0.0
C431 C 0.8784 0.95608 0.86664 0.0
H432 H 0.85822 0.89005 0.91205 0.0
C433 C 0.87029 0.85617 0.79403 0.0
C434 C 0.84887 0.83923 0.80212 0.0
C435 C 0.8756 0.87882 0.81383 0.0
C436 C 0.86362 0.90842 0.89901 0.0
H437 H 0.91517 0.03927 0.91478 0.0
H438 H 0.91526 0.99348 0.89278 0.0
H439 H 0.86765 0.93022 0.946 0.0
H440 H 0.81626 0.83206 0.83696 0.0
H441 H 0.82489 0.87238 0.87147 0.0
H442 H 0.87397 0.93471 0.81974 0.0
C443 C 0.9008 -0.00116 0.91218 0.0
C444 C 0.86913 0.93137 0.91847 0.0
C445 C 0.90099 0.02493 0.92502 0.0
C446 C 0.83258 0.84529 0.83012 0.0
C447 C 0.83782 0.86805 0.85002 0.0
C448 C 0.8729 0.93327 0.84729 0.0
C449 C 0.88086 0.98059 0.92226 0.0
C450 C 0.87658 0.95548 0.90246 0.0
C451 C 0.85951 0.885 0.84218 0.0
C452 C 0.86537 0.90916 0.86317 0.0
H453 H 0.84833 0.02026 0.97979 0.0
H454 H 0.84742 0.97456 0.95671 0.0
H455 H 0.88336 0.97447 0.85333 0.0
H456 H 0.88326 0.85144 0.77276 0.0
H457 H 0.89269 0.89117 0.80735 0.0
C458 C 0.48071 0.35135 0.46931 0.0
C459 C 0.46688 0.37566 0.46437 0.0
C460 C 0.50623 0.34762 0.45503 0.0
C461 C 0.56355 0.38305 0.41453 0.0
H462 H 0.56819 0.31985 0.35708 0.0
C463 C 0.63856 0.37602 0.30352 0.0
C464 C 0.65217 0.35166 0.2987 0.0
C465 C 0.61742 0.37783 0.32674 0.0
C466 C 0.56744 0.3374 0.37335 0.0
H467 H 0.46954 0.41573 0.44326 0.0
H468 H 0.51415 0.4096 0.41939 0.0
H469 H 0.53034 0.32512 0.39591 0.0
H470 H 0.65446 0.31004 0.31414 0.0
H471 H 0.61709 0.31291 0.35447 0.0
H472 H 0.60033 0.39563 0.39153 0.0
C473 C 0.50541 0.39329 0.43382 0.0
C474 C 0.54579 0.34037 0.39573 0.0
C475 C 0.47983 0.39682 0.44748 0.0
C476 C 0.64394 0.32893 0.31705 0.0
C477 C 0.62265 0.33065 0.34018 0.0
C478 C 0.5852 0.38007 0.39224 0.0
C479 C 0.51848 0.36832 0.43621 0.0
C480 C 0.54334 0.36346 0.41615 0.0
C481 C 0.60933 0.35522 0.34562 0.0
C482 C 0.58717 0.35745 0.3709 0.0
H483 H 0.47104 0.33464 0.48194 0.0
H484 H 0.51593 0.32824 0.45758 0.0
H485 H 0.5624 0.40094 0.43016 0.0
H486 H 0.64444 0.39373 0.28937 0.0
H487 H 0.60731 0.39694 0.32978 0.0
C488 C 0.12963 0.97697 0.95884 0.0
C489 C 0.10869 0.96028 0.94793 0.0
C490 C 0.13119 0.00346 0.94695 0.0
C491 C 0.10764 0.04258 0.87177 0.0
H492 H 0.14819 0.09953 0.91492 0.0
C493 C 0.14765 0.13091 0.79262 0.0
C494 C 0.14856 0.15642 0.80763 0.0
C495 C 0.14189 0.10825 0.81233 0.0
C496 C 0.13648 0.08405 0.90253 0.0
H497 H 0.07157 0.95854 0.91927 0.0
H498 H 0.07306 0.00517 0.9006 0.0
H499 H 0.13644 0.05984 0.94769 0.0
H500 H 0.14514 0.17826 0.85508 0.0
H501 H 0.1336 0.13909 0.88933 0.0
H502 H 0.1067 0.06708 0.82708 0.0
C503 C 0.08911 -0.00228 0.91677 0.0
C504 C 0.13002 0.06103 0.9213 0.0
C505 C 0.08795 0.97113 0.92791 0.0
C506 C 0.14433 0.15877 0.8429 0.0
C507 C 0.13797 0.13624 0.86254 0.0
C508 C 0.11369 0.06572 0.85324 0.0
C509 C 0.11154 0.0138 0.92444 0.0
C510 C 0.1159 0.03973 0.90602 0.0
C511 C 0.13637 0.11063 0.84747 0.0
C512 C 0.1287 0.08659 0.86806 0.0
H513 H 0.14603 0.96888 0.97395 0.0
H514 H 0.14884 0.01502 0.95343 0.0
H515 H 0.09716 0.02659 0.85867 0.0
H516 H 0.15056 0.12864 0.76541 0.0
H517 H 0.14155 0.08888 0.79983 0.0
C518 C 0.51312 0.64763 0.46422 0.0
C519 C 0.52661 0.623 0.46163 0.0
C520 C 0.48672 0.65016 0.45224 0.0
C521 C 0.42863 0.61208 0.41545 0.0
H522 H 0.42361 0.67369 0.35511 0.0
C523 C 0.35642 0.61631 0.29988 0.0
C524 C 0.3425 0.64039 0.29413 0.0
C525 C 0.37658 0.61489 0.32474 0.0
C526 C 0.42448 0.65658 0.37218 0.0
H527 H 0.52295 0.58136 0.44696 0.0
H528 H 0.47695 0.5855 0.42637 0.0
H529 H 0.46123 0.66989 0.3946 0.0
H530 H 0.33829 0.68177 0.30982 0.0
H531 H 0.37406 0.67964 0.35286 0.0
H532 H 0.39228 0.59835 0.39185 0.0
C533 C 0.48632 0.60289 0.43789 0.0
C534 C 0.44598 0.65446 0.39504 0.0
C535 C 0.51266 0.60042 0.44983 0.0
C536 C 0.34917 0.66314 0.31342 0.0
C537 C 0.36949 0.66184 0.3381 0.0
C538 C 0.40716 0.61415 0.39243 0.0
C539 C 0.47354 0.62811 0.43722 0.0
C540 C 0.44859 0.63198 0.41663 0.0
C541 C 0.38333 0.63764 0.34417 0.0
C542 C 0.40509 0.63623 0.37018 0.0
H543 H 0.52371 0.6654 0.47274 0.0
H544 H 0.47729 0.66976 0.45273 0.0
H545 H 0.42983 0.59464 0.43193 0.0
H546 H 0.35172 0.59862 0.285 0.0
H547 H 0.38716 0.59608 0.32841 0.0
C548 C 0.40442 0.45902 0.59582 0.0
C549 C 0.38599 0.44971 0.57142 0.0
C550 C 0.40258 0.48522 0.60839 0.0
C551 C 0.36894 0.55154 0.59559 0.0
H552 H 0.37783 0.55663 0.69378 0.0
C553 C 0.33308 0.64322 0.67518 0.0
C554 C 0.35133 0.65272 0.69961 0.0
C555 C 0.33811 0.61905 0.65804 0.0
C556 C 0.37551 0.55562 0.66631 0.0
H557 H 0.35109 0.46018 0.54133 0.0
H558 H 0.34784 0.50602 0.56284 0.0
H559 H 0.38668 0.51421 0.6652 0.0
H560 H 0.38868 0.64488 0.7259 0.0
H561 H 0.39751 0.60247 0.69638 0.0
H562 H 0.35718 0.593 0.59709 0.0
C563 C 0.36424 0.49347 0.57164 0.0
C564 C 0.38074 0.53132 0.64984 0.0
C565 C 0.36623 0.46729 0.55896 0.0
C566 C 0.37442 0.63771 0.70709 0.0
C567 C 0.37935 0.6135 0.6903 0.0
C568 C 0.36355 0.57587 0.61215 0.0
C569 C 0.38194 0.50252 0.59725 0.0
C570 C 0.37753 0.52892 0.61426 0.0
C571 C 0.36132 0.60393 0.66547 0.0
C572 C 0.36678 0.57815 0.6477 0.0
H573 H 0.41972 0.44572 0.606 0.0
H574 H 0.41686 0.49164 0.6276 0.0
H575 H 0.36651 0.55051 0.56814 0.0
H576 H 0.31523 0.65472 0.6691 0.0
H577 H 0.32375 0.61206 0.63924 0.0
C578 C 0.01858 0.88552 0.049 0.0
C579 C 0.03277 0.86151 0.04402 0.0
C580 C 0.99275 0.88508 0.06309 0.0
C581 C 0.95197 0.8403 0.11839 0.0
H582 H 0.89697 0.89457 0.10555 0.0
C583 C 0.8478 0.83408 0.18214 0.0
C584 C 0.83941 0.85708 0.19987 0.0
C585 C 0.8703 0.83492 0.16096 0.0
C586 C 0.91225 0.87936 0.10945 0.0
H587 H 0.03062 0.81824 0.04699 0.0
H588 H 0.98508 0.81722 0.06942 0.0
H589 H 0.9368 0.89484 0.06921 0.0
H590 H 0.84772 0.89906 0.20904 0.0
H591 H 0.88672 0.90084 0.171 0.0
H592 H 0.92719 0.82465 0.15824 0.0
C593 C 0.99404 0.83653 0.06396 0.0
C594 C 0.93512 0.8795 0.08868 0.0
C595 C 0.01996 0.83702 0.05053 0.0
C596 C 0.85365 0.88113 0.19539 0.0
C597 C 0.87592 0.88212 0.17371 0.0
C598 C 0.929 0.83996 0.13872 0.0
C599 C 0.98058 0.86057 0.07216 0.0
C600 C 0.95537 0.85997 0.09287 0.0
C601 C 0.88463 0.85893 0.1565 0.0
C602 C 0.90892 0.85949 0.13458 0.0
H603 H 0.02828 0.90466 0.04471 0.0
H604 H 0.9832 0.90404 0.06902 0.0
H605 H 0.96734 0.8254 0.12331 0.0
H606 H 0.83684 0.81546 0.1846 0.0
H607 H 0.87637 0.81681 0.14776 0.0
C608 C 0.62193 0.51957 0.54233 0.0
C609 C 0.60654 0.53886 0.55975 0.0
C610 C 0.6251 0.49364 0.55594 0.0
C611 C 0.62926 0.46314 0.63924 0.0
H612 H 0.61999 0.39381 0.59609 0.0
C613 C 0.63606 0.36573 0.7174 0.0
C614 C 0.64615 0.34259 0.70181 0.0
C615 C 0.63147 0.38894 0.6982 0.0
C616 C 0.62316 0.41301 0.60837 0.0
H617 H 0.58021 0.54524 0.60302 0.0
H618 H 0.58597 0.50045 0.62658 0.0
H619 H 0.61032 0.43487 0.56377 0.0
H620 H 0.65954 0.32507 0.6545 0.0
H621 H 0.65303 0.36611 0.62086 0.0
H622 H 0.64284 0.44193 0.68336 0.0
C623 C 0.59592 0.50541 0.60287 0.0
C624 C 0.61745 0.43646 0.58985 0.0
C625 C 0.59264 0.53106 0.5893 0.0
C626 C 0.65205 0.34299 0.66688 0.0
C627 C 0.64792 0.36635 0.64768 0.0
C628 C 0.63538 0.43986 0.6575 0.0
C629 C 0.61298 0.48681 0.58711 0.0
C630 C 0.62006 0.4617 0.60537 0.0
C631 C 0.63731 0.38961 0.66301 0.0
C632 C 0.63204 0.41441 0.64258 0.0
H633 H 0.63279 0.52493 0.51943 0.0
H634 H 0.63828 0.47954 0.54326 0.0
H635 H 0.63189 0.48241 0.65161 0.0
H636 H 0.63076 0.36542 0.74417 0.0
H637 H 0.62265 0.40611 0.71085 0.0
C638 C 0.96679 0.14312 0.04679 0.0
C639 C 0.95807 0.11633 0.04478 0.0
C640 C 0.99206 0.14924 0.0608 0.0
C641 C 0.05708 0.11753 0.08816 0.0
H642 H 0.05967 0.17593 0.15346 0.0
C643 C 0.1348 0.12205 0.19696 0.0
C644 C 0.14901 0.14614 0.20096 0.0
C645 C 0.11275 0.12067 0.1749 0.0
C646 C 0.05932 0.15975 0.13502 0.0
H647 H 0.96974 0.07497 0.0541 0.0
H648 H 0.013 0.08549 0.0787 0.0
H649 H 0.01961 0.16976 0.11804 0.0
H650 H 0.15102 0.18782 0.18569 0.0
H651 H 0.11154 0.18576 0.14797 0.0
H652 H 0.09628 0.10681 0.10638 0.0
C653 C 0.00073 0.10191 0.06934 0.0
C654 C 0.03644 0.15627 0.11454 0.0
C655 C 0.97567 0.09585 0.05542 0.0
C656 C 0.1402 0.1691 0.18328 0.0
C657 C 0.11776 0.16787 0.16164 0.0
C658 C 0.07972 0.12079 0.10891 0.0
C659 C 0.00913 0.12869 0.07293 0.0
C660 C 0.03477 0.13474 0.09134 0.0
C661 C 0.10407 0.14351 0.15685 0.0
C662 C 0.08088 0.14161 0.133 0.0
H663 H 0.95377 0.15937 0.03868 0.0
H664 H -0.00199 0.17008 0.06266 0.0
H665 H 0.05688 0.10112 0.07005 0.0
H666 H 0.14085 0.10423 0.21086 0.0
H667 H 0.10232 0.10174 0.17213 0.0
C668 C 0.16551 0.8181 0.06522 0.0
C669 C 0.14939 0.80818 0.03879 0.0
C670 C 0.18259 0.8009 0.08314 0.0
C671 C 0.21776 0.73644 0.08101 0.0
H672 H 0.21146 0.74047 0.17954 0.0
C673 C 0.26907 0.6609 0.17368 0.0
C674 C 0.27986 0.67167 0.20379 0.0
C675 C 0.25388 0.67703 0.15164 0.0
C676 C 0.21374 0.73931 0.15209 0.0
H677 H 0.13884 0.77319 0.00902 0.0
H678 H 0.16924 0.74282 0.04022 0.0
H679 H 0.18425 0.76987 0.14374 0.0
H680 H 0.28361 0.70739 0.23469 0.0
H681 H 0.25786 0.73593 0.19586 0.0
H682 H 0.24756 0.70604 0.08946 0.0
C683 C 0.16861 0.76386 0.04713 0.0
C684 C 0.19811 0.75611 0.13163 0.0
C685 C 0.15127 0.7811 0.02941 0.0
C686 C 0.27577 0.69886 0.21129 0.0
C687 C 0.2607 0.715 0.18932 0.0
C688 C 0.23361 0.71969 0.10156 0.0
C689 C 0.18392 0.77352 0.0747 0.0
C690 C 0.20016 0.75503 0.09594 0.0
C691 C 0.24924 0.70419 0.15949 0.0
C692 C 0.23195 0.72117 0.13735 0.0
H693 H 0.16448 0.83902 0.0725 0.0
H694 H 0.19449 0.80891 0.10396 0.0
H695 H 0.21971 0.73529 0.05352 0.0
H696 H 0.27209 0.63992 0.16757 0.0
H697 H 0.24516 0.66807 0.129 0.0
C698 C 0.71347 0.63765 0.55494 0.0
C699 C 0.68985 0.64833 0.54068 0.0
C700 C 0.73261 0.65455 0.56965 0.0
C701 C 0.73479 0.72178 0.60946 0.0
H702 H 0.80953 0.70321 0.6243 0.0
C703 C 0.81162 0.78455 0.68833 0.0
C704 C 0.81895 0.77077 0.71825 0.0
C705 C 0.79805 0.77121 0.6621 0.0
C706 C 0.78872 0.70864 0.62004 0.0
H707 H 0.66836 0.68514 0.52924 0.0
H708 H 0.70264 0.71467 0.55202 0.0
H709 H 0.783 0.67784 0.58272 0.0
H710 H 0.8179 0.73253 0.74444 0.0
H711 H 0.79511 0.70882 0.6978 0.0
H712 H 0.74085 0.75276 0.64662 0.0
C713 C 0.70607 0.69322 0.55309 0.0
C714 C 0.77346 0.69408 0.59647 0.0
C715 C 0.68663 0.67629 0.53923 0.0
C716 C 0.8128 0.7434 0.72136 0.0
C717 C 0.7998 0.72992 0.69486 0.0
C718 C 0.75021 0.73664 0.63239 0.0
C719 C 0.72866 0.68254 0.57003 0.0
C720 C 0.74609 0.70009 0.59141 0.0
C721 C 0.79226 0.74378 0.66517 0.0
C722 C 0.77707 0.72982 0.6383 0.0
H723 H 0.71638 0.61613 0.55659 0.0
H724 H 0.74954 0.64543 0.58263 0.0
H725 H 0.71371 0.72668 0.60711 0.0
H726 H 0.81658 0.80554 0.68518 0.0
H727 H 0.79225 0.78219 0.63934 0.0
C728 C 0.85584 0.18752 0.08756 0.0
C729 C 0.84121 0.16864 0.06866 0.0
C730 C 0.84325 0.21052 0.10017 0.0
C731 C 0.7789 0.24981 0.09683 0.0
H732 H 0.79979 0.26883 0.18909 0.0
C733 C 0.7238 0.3304 0.17923 0.0
C734 C 0.71847 0.32192 0.21264 0.0
C735 C 0.74033 0.31495 0.15807 0.0
C736 C 0.79373 0.26377 0.1633 0.0
H737 H 0.80224 0.15893 0.0475 0.0
H738 H 0.77978 0.19814 0.07119 0.0
H739 H 0.82606 0.23612 0.15792 0.0
H740 H 0.72582 0.2914 0.25064 0.0
H741 H 0.75467 0.2642 0.21396 0.0
H742 H 0.74553 0.27655 0.10344 0.0
C743 C 0.80115 0.19593 0.07536 0.0
C744 C 0.80903 0.24524 0.14515 0.0
C745 C 0.81391 0.17325 0.06209 0.0
C746 C 0.72959 0.29792 0.22472 0.0
C747 C 0.74628 0.28267 0.20388 0.0
C748 C 0.76346 0.26829 0.11518 0.0
C749 C 0.81559 0.21476 0.09491 0.0
C750 C 0.80141 0.23738 0.11203 0.0
C751 C 0.75207 0.29112 0.17045 0.0
C752 C 0.77027 0.27475 0.149 0.0
H753 H 0.8771 0.18467 0.09219 0.0
H754 H 0.85521 0.22486 0.11431 0.0
H755 H 0.77277 0.24474 0.07109 0.0
H756 H 0.71548 0.34912 0.16984 0.0
H757 H 0.74447 0.32194 0.13245 0.0
C758 C 0.27741 0.34994 0.54855 0.0
C759 C 0.30171 0.33951 0.53623 0.0
C760 C 0.2578 0.3328 0.56145 0.0
C761 C 0.25762 0.26636 0.60253 0.0
H762 H 0.1833 0.28451 0.62012 0.0
C763 C 0.18463 0.20616 0.68937 0.0
C764 C 0.17816 0.22112 0.71855 0.0
C765 C 0.19725 0.21845 0.66174 0.0
C766 C 0.20398 0.27918 0.61505 0.0
H767 H 0.32339 0.30288 0.52476 0.0
H768 H 0.28824 0.27301 0.54387 0.0
H769 H 0.20781 0.30871 0.5757 0.0
H770 H 0.18006 0.26033 0.74219 0.0
H771 H 0.20122 0.28219 0.69311 0.0
H772 H 0.25354 0.23681 0.64191 0.0
C773 C 0.28476 0.29444 0.54523 0.0
C774 C 0.21807 0.29304 0.58982 0.0
C775 C 0.30472 0.3116 0.5334 0.0
C776 C 0.18449 0.24855 0.7197 0.0
C777 C 0.19652 0.26098 0.6918 0.0
C778 C 0.24337 0.2522 0.62714 0.0
C779 C 0.26197 0.30484 0.5617 0.0
C780 C 0.24532 0.28727 0.58384 0.0
C781 C 0.20293 0.24599 0.66269 0.0
C782 C 0.21671 0.25895 0.63407 0.0
H783 H 0.27453 0.37143 0.55094 0.0
H784 H 0.24059 0.3417 0.57383 0.0
H785 H 0.2787 0.26172 0.59956 0.0
H786 H 0.17953 0.18509 0.68777 0.0
H787 H 0.20225 0.20661 0.63947 0.0
C788 C 0.68372 0.68494 0.4588 0.0
C789 C 0.65591 0.68889 0.45712 0.0
C790 C 0.70121 0.70512 0.44802 0.0
C791 C 0.70422 0.77546 0.41321 0.0
H792 H 0.75782 0.74371 0.35424 0.0
C793 C 0.77052 0.83904 0.32184 0.0
C794 C 0.77571 0.82773 0.28977 0.0
C795 C 0.75808 0.82384 0.34733 0.0
C796 C 0.74287 0.75297 0.3704 0.0
H797 H 0.62441 0.71704 0.44419 0.0
H798 H 0.65467 0.75205 0.42451 0.0
H799 H 0.73282 0.71534 0.39278 0.0
H800 H 0.77138 0.79246 0.25835 0.0
H801 H 0.74889 0.76596 0.30219 0.0
H802 H 0.71327 0.81292 0.38898 0.0
C803 C 0.66328 0.73388 0.43512 0.0
C804 C 0.72882 0.73671 0.39314 0.0
C805 C 0.64586 0.71381 0.44632 0.0
C806 C 0.7679 0.80127 0.2832 0.0
C807 C 0.75519 0.78616 0.30842 0.0
C808 C 0.71819 0.79175 0.39018 0.0
C809 C 0.69115 0.7293 0.43427 0.0
C810 C 0.70888 0.74758 0.41436 0.0
C811 C 0.75037 0.79711 0.34099 0.0
C812 C 0.73723 0.78056 0.36787 0.0
H813 H 0.69188 0.66559 0.46614 0.0
H814 H 0.72256 0.70107 0.44843 0.0
H815 H 0.68924 0.78461 0.42944 0.0
H816 H 0.77643 0.85952 0.32717 0.0
H817 H 0.75487 0.83289 0.3721 0.0
C818 C 0.77219 0.14378 0.96399 0.0
C819 C 0.79722 0.15564 0.96991 0.0
C820 C 0.75065 0.15937 0.9524 0.0
C821 C 0.73092 0.22921 0.92495 0.0
H822 H 0.70176 0.19039 0.84754 0.0
C823 C 0.66614 0.28076 0.81991 0.0
C824 C 0.67109 0.27255 0.78632 0.0
C825 C 0.67765 0.26687 0.84738 0.0
C826 C 0.70979 0.20161 0.86891 0.0
H827 H 0.81897 0.19306 0.97195 0.0
H828 H 0.78185 0.22026 0.95084 0.0
H829 H 0.72696 0.16638 0.8907 0.0
H830 H 0.69162 0.24391 0.75446 0.0
H831 H 0.71259 0.21989 0.80218 0.0
H832 H 0.71512 0.26479 0.90151 0.0
C833 C 0.7783 0.19917 0.95566 0.0
C834 C 0.72385 0.18771 0.89422 0.0
C835 C 0.79966 0.18361 0.9679 0.0
C836 C 0.68766 0.25037 0.78034 0.0
C837 C 0.69937 0.2366 0.80768 0.0
C838 C 0.71697 0.2432 0.89937 0.0
C839 C 0.75412 0.1869 0.94549 0.0
C840 C 0.73516 0.20134 0.92225 0.0
C841 C 0.69439 0.24455 0.8416 0.0
C842 C 0.70685 0.22962 0.87059 0.0
H843 H 0.77 0.12216 0.9652 0.0
H844 H 0.73203 0.14938 0.94599 0.0
H845 H 0.73907 0.24037 0.9463 0.0
H846 H 0.6531 0.29774 0.82476 0.0
H847 H 0.67312 0.27336 0.87308 0.0
C848 C 0.36042 0.27784 0.44396 0.0
C849 C 0.34792 0.30137 0.45547 0.0
C850 C 0.34508 0.25695 0.43022 0.0
C851 C 0.27514 0.2323 0.41719 0.0
H852 H 0.30196 0.21041 0.32869 0.0
C853 C 0.21756 0.16218 0.32242 0.0
C854 C 0.21643 0.17206 0.28892 0.0
C855 C 0.23385 0.17473 0.34684 0.0
C856 C 0.29426 0.21624 0.35343 0.0
H857 H 0.31 0.32193 0.46139 0.0
H858 H 0.28309 0.28549 0.43787 0.0
H859 H 0.33048 0.23667 0.36658 0.0
H860 H 0.23098 0.2022 0.25412 0.0
H861 H 0.25973 0.22424 0.29659 0.0
H862 H 0.23848 0.21255 0.40319 0.0
C863 C 0.30456 0.28264 0.4403 0.0
C864 C 0.31071 0.231 0.37534 0.0
C865 C 0.31992 0.3035 0.45387 0.0
C866 C 0.23151 0.19463 0.28003 0.0
C867 C 0.24806 0.20693 0.30419 0.0
C868 C 0.25873 0.21727 0.39532 0.0
C869 C 0.31701 0.25944 0.42736 0.0
C870 C 0.3011 0.23988 0.40707 0.0
C871 C 0.24962 0.19696 0.33775 0.0
C872 C 0.26788 0.20984 0.3628 0.0
H873 H 0.38208 0.27605 0.44447 0.0
H874 H 0.35524 0.23927 0.42064 0.0
H875 H 0.26725 0.23864 0.44162 0.0
H876 H 0.20619 0.14452 0.32936 0.0
H877 H 0.23473 0.16661 0.37248 0.0
C878 C 0.2194 0.85646 0.94211 0.0
C879 C 0.19596 0.84673 0.95758 0.0
C880 C 0.2391 0.8387 0.93055 0.0
C881 C 0.23986 0.77056 0.89664 0.0
H882 H 0.3146 0.78648 0.87908 0.0
C883 C 0.29403 0.72797 0.77995 0.0
C884 C 0.3211 0.72082 0.78298 0.0
C885 C 0.28102 0.74095 0.80679 0.0
C886 C 0.29386 0.78147 0.88411 0.0
H887 H 0.17633 0.81089 0.97622 0.0
H888 H 0.21104 0.7801 0.95756 0.0
H889 H 0.29002 0.81288 0.92116 0.0
H890 H 0.3559 0.72093 0.81602 0.0
H891 H 0.33311 0.74326 0.86359 0.0
H892 H 0.24351 0.73937 0.85958 0.0
C893 C 0.21387 0.80141 0.95341 0.0
C894 C 0.27973 0.79675 0.90806 0.0
C895 C 0.19408 0.81916 0.96467 0.0
C896 C 0.335 0.72655 0.81329 0.0
C897 C 0.32198 0.73936 0.84032 0.0
C898 C 0.25397 0.75529 0.87288 0.0
C899 C 0.23579 0.81083 0.93439 0.0
C900 C 0.25235 0.79192 0.91395 0.0
C901 C 0.29482 0.74677 0.83737 0.0
C902 C 0.2809 0.76104 0.86556 0.0
H903 H 0.22163 0.87767 0.93666 0.0
H904 H 0.25572 0.84675 0.91612 0.0
H905 H 0.21873 0.76643 0.90006 0.0
H906 H 0.28315 0.72387 0.75654 0.0
H907 H 0.26028 0.74687 0.80331 0.0
loop_
_geom_bond_atom_site_label_1
_geom_bond_atom_site_label_2
_geom_bond_distance
_geom_bond_site_symmetry_2
_ccdc_geom_bond_type
Zn0 O6 1.920 . S
Zn0 O12 1.898 . S
Zn0 O15 1.905 . S
Zn1 O9 1.905 . S
Zn1 O10 1.898 . S
Zn1 O18 1.920 . S
Zn2 O5 2.086 . S
Zn2 O8 2.108 1_554 S
Zn2 O11 2.114 1_554 S
Zn2 O13 2.126 . S
Zn2 O14 2.119 . S
Zn2 O17 2.075 1_554 S
C3 O8 1.166 . S
C3 O9 1.182 . S
C4 O10 1.167 . S
C4 O11 1.299 . S
O5 Zn2 2.086 . S
O5 C19 1.305 . S
O6 Zn0 1.920 . S
O6 C19 1.234 . S
C7 O12 1.167 . S
C7 O13 1.299 . S
O8 Zn2 2.108 1_556 S
O8 C3 1.166 . S
O9 Zn1 1.905 . S
O9 C3 1.182 . S
O10 Zn1 1.898 . S
O10 C4 1.167 . S
O11 Zn2 2.114 1_556 S
O11 C4 1.299 . S
O12 Zn0 1.898 . S
O12 C7 1.167 . S
O13 Zn2 2.126 . S
O13 C7 1.299 . S
O14 Zn2 2.119 . S
O14 C16 1.166 . S
O15 Zn0 1.905 . S
O15 C16 1.182 . S
C16 O14 1.166 . S
C16 O15 1.182 . S
O17 Zn2 2.075 1_556 S
O17 C20 1.305 . S
O18 Zn1 1.920 . S
O18 C20 1.234 . S
C19 O5 1.305 . S
C19 O6 1.234 . S
C20 O17 1.305 . S
C20 O18 1.234 . S
Zn21 O27 1.920 . S
Zn21 O33 1.898 . S
Zn21 O36 1.905 . S
Zn22 O30 1.905 . S
Zn22 O31 1.898 . S
Zn22 O39 1.920 . S
Zn23 O26 2.080 . S
Zn23 O29 2.114 . S
Zn23 O32 2.120 . S
Zn23 O34 2.120 . S
Zn23 O35 2.114 . S
Zn23 O38 2.080 . S
C24 O29 1.166 . S
C24 O30 1.182 . S
C25 O31 1.167 . S
C25 O32 1.299 . S
O26 Zn23 2.080 . S
O26 C40 1.305 . S
O27 Zn21 1.920 . S
O27 C40 1.234 . S
C28 O33 1.167 . S
C28 O34 1.299 . S
O29 Zn23 2.114 . S
O29 C24 1.166 . S
O30 Zn22 1.905 . S
O30 C24 1.182 . S
O31 Zn22 1.898 . S
O31 C25 1.167 . S
O32 Zn23 2.120 . S
O32 C25 1.299 . S
O33 Zn21 1.898 . S
O33 C28 1.167 . S
O34 Zn23 2.120 . S
O34 C28 1.299 . S
O35 Zn23 2.114 . S
O35 C37 1.166 . S
O36 Zn21 1.905 . S
O36 C37 1.182 . S
C37 O35 1.166 . S
C37 O36 1.182 . S
O38 Zn23 2.080 . S
O38 C41 1.305 . S
O39 Zn22 1.920 . S
O39 C41 1.234 . S
C40 O26 1.305 . S
C40 O27 1.234 . S
C41 O38 1.305 . S
C41 O39 1.234 . S
Zn42 O48 1.920 . S
Zn42 O54 1.898 . S
Zn42 O57 1.905 . S
Zn43 O51 1.905 . S
Zn43 O52 1.898 . S
Zn43 O60 1.920 . S
Zn44 O47 2.074 1_554 S
Zn44 O50 2.120 . S
Zn44 O53 2.126 . S
Zn44 O55 2.114 1_554 S
Zn44 O56 2.108 1_554 S
Zn44 O59 2.086 . S
C45 O50 1.166 . S
C45 O51 1.182 . S
C46 O52 1.167 . S
C46 O53 1.299 . S
O47 Zn44 2.074 1_556 S
O47 C61 1.305 . S
O48 Zn42 1.920 . S
O48 C61 1.234 . S
C49 O54 1.167 . S
C49 O55 1.299 . S
O50 Zn44 2.120 . S
O50 C45 1.166 . S
O51 Zn43 1.905 . S
O51 C45 1.182 . S
O52 Zn43 1.898 . S
O52 C46 1.167 . S
O53 Zn44 2.126 . S
O53 C46 1.299 . S
O54 Zn42 1.898 . S
O54 C49 1.167 . S
O55 Zn44 2.114 1_556 S
O55 C49 1.299 . S
O56 Zn44 2.108 1_556 S
O56 C58 1.166 . S
O57 Zn42 1.905 . S
O57 C58 1.182 . S
C58 O56 1.166 . S
C58 O57 1.182 . S
O59 Zn44 2.086 . S
O59 C62 1.305 . S
O60 Zn43 1.920 . S
O60 C62 1.234 . S
C61 O47 1.305 . S
C61 O48 1.234 . S
C62 O59 1.305 . S
C62 O60 1.234 . S
Zn63 O69 1.920 . S
Zn63 O75 1.898 . S
Zn63 O78 1.905 . S
Zn64 O72 1.905 . S
Zn64 O73 1.898 . S
Zn64 O81 1.920 . S
Zn65 O68 2.080 . S
Zn65 O71 2.114 . S
Zn65 O74 2.120 . S
Zn65 O76 2.120 . S
Zn65 O77 2.114 . S
Zn65 O80 2.080 . S
C66 O71 1.166 . S
C66 O72 1.182 . S
C67 O73 1.167 . S
C67 O74 1.299 . S
O68 Zn65 2.080 . S
O68 C82 1.305 . S
O69 Zn63 1.920 . S
O69 C82 1.234 . S
C70 O75 1.167 . S
C70 O76 1.299 . S
O71 Zn65 2.114 . S
O71 C66 1.166 . S
O72 Zn64 1.905 . S
O72 C66 1.182 . S
O73 Zn64 1.898 . S
O73 C67 1.167 . S
O74 Zn65 2.120 . S
O74 C67 1.299 . S
O75 Zn63 1.898 . S
O75 C70 1.167 . S
O76 Zn65 2.120 . S
O76 C70 1.299 . S
O77 Zn65 2.114 . S
O77 C79 1.166 . S
O78 Zn63 1.905 . S
O78 C79 1.182 . S
C79 O77 1.166 . S
C79 O78 1.182 . S
O80 Zn65 2.080 . S
O80 C83 1.305 . S
O81 Zn64 1.920 . S
O81 C83 1.234 . S
C82 O68 1.305 . S
C82 O69 1.234 . S
C83 O80 1.305 . S
C83 O81 1.234 . S
C84 N85 1.317 . S
C84 N86 1.348 . S
C84 C87 1.485 . S
N85 C84 1.317 . S
N85 N89 1.370 . S
N86 C84 1.348 . S
N86 C88 1.346 . S
C87 C84 1.485 . S
C87 H91 0.960 . S
C87 H92 0.961 . S
C87 H93 0.960 . S
C88 N86 1.346 . S
C88 N89 1.307 . S
C88 C90 1.486 . S
N89 N85 1.370 . S
N89 C88 1.307 . S
C90 C88 1.486 . S
C90 H94 0.960 . S
C90 H95 0.960 . S
C90 H96 0.959 . S
H91 C87 0.960 . S
H92 C87 0.961 . S
H93 C87 0.960 . S
H94 C90 0.960 . S
H95 C90 0.960 . S
H96 C90 0.959 . S
C97 N98 1.317 . S
C97 N99 1.348 . S
C97 C100 1.485 . S
N98 C97 1.317 . S
N98 N102 1.370 . S
N99 C97 1.348 . S
N99 C101 1.346 . S
C100 C97 1.485 . S
C100 H104 0.960 . S
C100 H105 0.961 . S
C100 H106 0.960 . S
C101 N99 1.346 . S
C101 N102 1.307 . S
C101 C103 1.486 . S
N102 N98 1.370 . S
N102 C101 1.307 . S
C103 C101 1.486 . S
C103 H107 0.960 . S
C103 H108 0.960 . S
C103 H109 0.959 . S
H104 C100 0.960 . S
H105 C100 0.961 . S
H106 C100 0.960 . S
H107 C103 0.960 . S
H108 C103 0.960 . S
H109 C103 0.959 . S
C110 N111 1.317 . S
C110 N112 1.348 . S
C110 C113 1.485 . S
N111 C110 1.317 . S
N111 N115 1.370 . S
N112 C110 1.348 . S
N112 C114 1.346 . S
C113 C110 1.485 . S
C113 H117 0.960 . S
C113 H118 0.961 . S
C113 H119 0.960 . S
C114 N112 1.346 . S
C114 N115 1.307 . S
C114 C116 1.486 . S
N115 N111 1.370 . S
N115 C114 1.307 . S
C116 C114 1.486 . S
C116 H120 0.960 . S
C116 H121 0.960 . S
C116 H122 0.959 . S
H117 C113 0.960 . S
H118 C113 0.961 . S
H119 C113 0.960 . S
H120 C116 0.960 . S
H121 C116 0.960 . S
H122 C116 0.959 . S
C123 N124 1.317 . S
C123 N125 1.348 . S
C123 C126 1.485 . S
N124 C123 1.317 . S
N124 N128 1.370 . S
N125 C123 1.348 . S
N125 C127 1.346 . S
C126 C123 1.485 . S
C126 H130 0.960 . S
C126 H131 0.961 . S
C126 H132 0.960 . S
C127 N125 1.346 . S
C127 N128 1.307 . S
C127 C129 1.486 . S
N128 N124 1.370 . S
N128 C127 1.307 . S
C129 C127 1.486 . S
C129 H133 0.960 . S
C129 H134 0.960 . S
C129 H135 0.959 . S
H130 C126 0.960 . S
H131 C126 0.961 . S
H132 C126 0.960 . S
H133 C129 0.960 . S
H134 C129 0.960 . S
H135 C129 0.959 . S
C136 N137 1.317 . S
C136 N138 1.348 . S
C136 C139 1.485 . S
N137 C136 1.317 . S
N137 N141 1.370 . S
N138 C136 1.348 . S
N138 C140 1.346 . S
C139 C136 1.485 . S
C139 H143 0.960 . S
C139 H144 0.961 . S
C139 H145 0.960 . S
C140 N138 1.346 . S
C140 N141 1.307 . S
C140 C142 1.486 . S
N141 N137 1.370 . S
N141 C140 1.307 . S
C142 C140 1.486 . S
C142 H146 0.960 . S
C142 H147 0.960 . S
C142 H148 0.959 . S
H143 C139 0.960 . S
H144 C139 0.961 . S
H145 C139 0.960 . S
H146 C142 0.960 . S
H147 C142 0.960 . S
H148 C142 0.959 . S
C149 N150 1.317 . S
C149 N151 1.348 . S
C149 C152 1.485 . S
N150 C149 1.317 . S
N150 N154 1.370 . S
N151 C149 1.348 . S
N151 C153 1.346 . S
C152 C149 1.485 . S
C152 H156 0.960 . S
C152 H157 0.961 . S
C152 H158 0.960 . S
C153 N151 1.346 . S
C153 N154 1.307 . S
C153 C155 1.486 . S
N154 N150 1.370 . S
N154 C153 1.307 . S
C155 C153 1.486 . S
C155 H159 0.960 . S
C155 H160 0.960 . S
C155 H161 0.959 . S
H156 C152 0.960 . S
H157 C152 0.961 . S
H158 C152 0.960 . S
H159 C155 0.960 . S
H160 C155 0.960 . S
H161 C155 0.959 . S
C162 N163 1.317 . S
C162 N164 1.348 . S
C162 C165 1.485 . S
N163 C162 1.317 . S
N163 N167 1.370 . S
N164 C162 1.348 . S
N164 C166 1.346 . S
C165 C162 1.485 . S
C165 H169 0.960 . S
C165 H170 0.961 . S
C165 H171 0.960 . S
C166 N164 1.346 . S
C166 N167 1.307 . S
C166 C168 1.486 . S
N167 N163 1.370 . S
N167 C166 1.307 . S
C168 C166 1.486 . S
C168 H172 0.960 . S
C168 H173 0.960 . S
C168 H174 0.959 . S
H169 C165 0.960 . S
H170 C165 0.961 . S
H171 C165 0.960 . S
H172 C168 0.960 . S
H173 C168 0.960 . S
H174 C168 0.959 . S
C175 N176 1.317 . S
C175 N177 1.348 . S
C175 C178 1.485 . S
N176 C175 1.317 . S
N176 N180 1.370 . S
N177 C175 1.348 . S
N177 C179 1.346 . S
C178 C175 1.485 . S
C178 H182 0.960 . S
C178 H183 0.961 . S
C178 H184 0.960 . S
C179 N177 1.346 . S
C179 N180 1.307 . S
C179 C181 1.486 . S
N180 N176 1.370 . S
N180 C179 1.307 . S
C181 C179 1.486 . S
C181 H185 0.960 . S
C181 H186 0.960 . S
C181 H187 0.959 . S
H182 C178 0.960 . S
H183 C178 0.961 . S
H184 C178 0.960 . S
H185 C181 0.960 . S
H186 C181 0.960 . S
H187 C181 0.959 . S
C188 C189 1.349 . S
C188 C190 1.327 . S
C188 H213 0.950 . S
C189 C188 1.349 . S
C189 C205 1.349 . S
C190 C188 1.327 . S
C190 C209 1.429 . S
C190 H214 0.950 . S
C191 C208 1.574 . S
C191 C210 1.368 1_545 S
C191 H215 0.949 . S
H192 C196 0.949 . S
C193 C194 1.349 . S
C193 C195 1.327 . S
C193 H216 0.950 . S
C194 C193 1.349 . S
C194 C206 1.349 . S
C195 C193 1.327 . S
C195 C211 1.429 . S
C195 H217 0.950 . S
C196 H192 0.949 . S
C196 C204 1.574 1_545 S
C196 C212 1.368 . S
H197 C205 0.950 . S
H198 C203 0.950 . S
H199 C204 0.949 . S
H200 C206 0.950 . S
H201 C207 0.950 . S
H202 C208 0.949 . S
C203 H198 0.950 . S
C203 C205 1.327 . S
C203 C209 1.429 . S
C204 C196 1.574 1_565 S
C204 H199 0.949 . S
C204 C210 1.368 . S
C205 C189 1.349 . S
C205 H197 0.950 . S
C205 C203 1.327 . S
C206 C194 1.349 . S
C206 H200 0.950 . S
C206 C207 1.327 . S
C207 H201 0.950 . S
C207 C206 1.327 . S
C207 C211 1.429 . S
C208 C191 1.574 . S
C208 H202 0.949 . S
C208 C212 1.368 . S
C209 C190 1.429 . S
C209 C203 1.429 . S
C209 C210 1.523 . S
C210 C191 1.368 1_565 S
C210 C204 1.368 . S
C210 C209 1.523 . S
C211 C195 1.429 . S
C211 C207 1.429 . S
C211 C212 1.523 . S
C212 C196 1.368 . S
C212 C208 1.368 . S
C212 C211 1.523 . S
H213 C188 0.950 . S
H214 C190 0.950 . S
H215 C191 0.949 . S
H216 C193 0.950 . S
H217 C195 0.950 . S
C218 C219 1.349 . S
C218 C220 1.327 . S
C218 H243 0.950 . S
C219 C218 1.349 . S
C219 C235 1.349 . S
C220 C218 1.327 . S
C220 C239 1.429 . S
C220 H244 0.950 . S
C221 C238 1.574 . S
C221 C240 1.368 . S
C221 H245 0.949 . S
H222 C226 0.949 . S
C223 C224 1.349 . S
C223 C225 1.327 . S
C223 H246 0.950 . S
C224 C223 1.349 . S
C224 C236 1.349 . S
C225 C223 1.327 . S
C225 C241 1.429 . S
C225 H247 0.950 . S
C226 H222 0.949 . S
C226 C234 1.574 . S
C226 C242 1.368 . S
H227 C235 0.950 . S
H228 C233 0.950 . S
H229 C234 0.949 . S
H230 C236 0.950 . S
H231 C237 0.950 . S
H232 C238 0.949 . S
C233 H228 0.950 . S
C233 C235 1.327 . S
C233 C239 1.429 . S
C234 C226 1.574 . S
C234 H229 0.949 . S
C234 C240 1.368 . S
C235 C219 1.349 . S
C235 H227 0.950 . S
C235 C233 1.327 . S
C236 C224 1.349 . S
C236 H230 0.950 . S
C236 C237 1.327 . S
C237 H231 0.950 . S
C237 C236 1.327 . S
C237 C241 1.429 . S
C238 C221 1.574 . S
C238 H232 0.949 . S
C238 C242 1.368 . S
C239 C220 1.429 . S
C239 C233 1.429 . S
C239 C240 1.523 . S
C240 C221 1.368 . S
C240 C234 1.368 . S
C240 C239 1.523 . S
C241 C225 1.429 . S
C241 C237 1.429 . S
C241 C242 1.523 . S
C242 C226 1.368 . S
C242 C238 1.368 . S
C242 C241 1.523 . S
H243 C218 0.950 . S
H244 C220 0.950 . S
H245 C221 0.949 . S
H246 C223 0.950 . S
H247 C225 0.950 . S
C248 C249 1.349 . S
C248 C250 1.327 . S
C248 H273 0.950 . S
C249 C248 1.349 . S
C249 C265 1.349 . S
C250 C248 1.327 . S
C250 C269 1.429 . S
C250 H274 0.950 . S
C251 C268 1.574 . S
C251 C270 1.368 1_565 S
C251 H275 0.949 . S
H252 C256 0.949 . S
C253 C254 1.349 . S
C253 C255 1.327 . S
C253 H276 0.950 . S
C254 C253 1.349 . S
C254 C266 1.349 . S
C255 C253 1.327 . S
C255 C271 1.429 . S
C255 H277 0.950 . S
C256 H252 0.949 . S
C256 C264 1.574 1_565 S
C256 C272 1.368 . S
H257 C265 0.950 . S
H258 C263 0.950 . S
H259 C264 0.949 . S
H260 C266 0.950 . S
H261 C267 0.950 . S
H262 C268 0.949 . S
C263 H258 0.950 . S
C263 C265 1.327 . S
C263 C269 1.429 . S
C264 C256 1.574 1_545 S
C264 H259 0.949 . S
C264 C270 1.368 . S
C265 C249 1.349 . S
C265 H257 0.950 . S
C265 C263 1.327 . S
C266 C254 1.349 . S
C266 H260 0.950 . S
C266 C267 1.327 . S
C267 H261 0.950 . S
C267 C266 1.327 . S
C267 C271 1.429 . S
C268 C251 1.574 . S
C268 H262 0.949 . S
C268 C272 1.368 . S
C269 C250 1.429 . S
C269 C263 1.429 . S
C269 C270 1.523 . S
C270 C251 1.368 1_545 S
C270 C264 1.368 . S
C270 C269 1.523 . S
C271 C255 1.429 . S
C271 C267 1.429 . S
C271 C272 1.523 . S
C272 C256 1.368 . S
C272 C268 1.368 . S
C272 C271 1.523 . S
H273 C248 0.950 . S
H274 C250 0.950 . S
H275 C251 0.949 . S
H276 C253 0.950 . S
H277 C255 0.950 . S
C278 C279 1.349 . S
C278 C280 1.327 . S
C278 H303 0.950 . S
C279 C278 1.349 . S
C279 C295 1.349 . S
C280 C278 1.327 . S
C280 C299 1.429 . S
C280 H304 0.950 . S
C281 C298 1.574 . S
C281 C300 1.368 . S
C281 H305 0.949 . S
H282 C286 0.949 . S
C283 C284 1.349 . S
C283 C285 1.327 . S
C283 H306 0.950 . S
C284 C283 1.349 . S
C284 C296 1.349 . S
C285 C283 1.327 . S
C285 C301 1.429 . S
C285 H307 0.950 . S
C286 H282 0.949 . S
C286 C294 1.574 . S
C286 C302 1.368 . S
H287 C295 0.950 . S
H288 C293 0.950 . S
H289 C294 0.949 . S
H290 C296 0.950 . S
H291 C297 0.950 . S
H292 C298 0.949 . S
C293 H288 0.950 . S
C293 C295 1.327 . S
C293 C299 1.429 . S
C294 C286 1.574 . S
C294 H289 0.949 . S
C294 C300 1.368 . S
C295 C279 1.349 . S
C295 H287 0.950 . S
C295 C293 1.327 . S
C296 C284 1.349 . S
C296 H290 0.950 . S
C296 C297 1.327 . S
C297 H291 0.950 . S
C297 C296 1.327 . S
C297 C301 1.429 . S
C298 C281 1.574 . S
C298 H292 0.949 . S
C298 C302 1.368 . S
C299 C280 1.429 . S
C299 C293 1.429 . S
C299 C300 1.523 . S
C300 C281 1.368 . S
C300 C294 1.368 . S
C300 C299 1.523 . S
C301 C285 1.429 . S
C301 C297 1.429 . S
C301 C302 1.523 . S
C302 C286 1.368 . S
C302 C298 1.368 . S
C302 C301 1.523 . S
H303 C278 0.950 . S
H304 C280 0.950 . S
H305 C281 0.949 . S
H306 C283 0.950 . S
H307 C285 0.950 . S
C308 C309 1.349 . S
C308 C310 1.327 . S
C308 H333 0.950 . S
C309 C308 1.349 . S
C309 C325 1.349 . S
C310 C308 1.327 . S
C310 C329 1.429 . S
C310 H334 0.950 . S
C311 C328 1.574 . S
C311 C330 1.368 . S
C311 H335 0.949 . S
H312 C316 0.949 . S
C313 C314 1.349 . S
C313 C315 1.327 . S
C313 H336 0.950 . S
C314 C313 1.349 . S
C314 C326 1.349 . S
C315 C313 1.327 . S
C315 C331 1.429 . S
C315 H337 0.950 . S
C316 H312 0.949 . S
C316 C324 1.574 . S
C316 C332 1.368 . S
H317 C325 0.950 . S
H318 C323 0.950 . S
H319 C324 0.949 . S
H320 C326 0.950 . S
H321 C327 0.950 . S
H322 C328 0.949 . S
C323 H318 0.950 . S
C323 C325 1.327 . S
C323 C329 1.429 . S
C324 C316 1.574 . S
C324 H319 0.949 . S
C324 C330 1.368 . S
C325 C309 1.349 . S
C325 H317 0.950 . S
C325 C323 1.327 . S
C326 C314 1.349 . S
C326 H320 0.950 . S
C326 C327 1.327 . S
C327 H321 0.950 . S
C327 C326 1.327 . S
C327 C331 1.429 . S
C328 C311 1.574 . S
C328 H322 0.949 . S
C328 C332 1.368 . S
C329 C310 1.429 . S
C329 C323 1.429 . S
C329 C330 1.523 . S
C330 C311 1.368 . S
C330 C324 1.368 . S
C330 C329 1.523 . S
C331 C315 1.429 . S
C331 C327 1.429 . S
C331 C332 1.523 . S
C332 C316 1.368 . S
C332 C328 1.368 . S
C332 C331 1.523 . S
H333 C308 0.950 . S
H334 C310 0.950 . S
H335 C311 0.949 . S
H336 C313 0.950 . S
H337 C315 0.950 . S
C338 C339 1.349 . S
C338 C340 1.327 . S
C338 H363 0.950 . S
C339 C338 1.349 . S
C339 C355 1.349 . S
C340 C338 1.327 . S
C340 C359 1.429 . S
C340 H364 0.950 . S
C341 C358 1.556 1_655 S
C341 C360 1.374 . S
C341 H365 0.960 . S
H342 C346 0.949 . S
C343 C344 1.349 . S
C343 C345 1.327 . S
C343 H366 0.950 . S
C344 C343 1.349 . S
C344 C356 1.349 . S
C345 C343 1.327 . S
C345 C361 1.429 . S
C345 H367 0.950 . S
C346 H342 0.949 . S
C346 C354 1.574 . S
C346 C362 1.368 . S
H347 C355 0.950 . S
H348 C353 0.950 . S
H349 C354 0.949 1_655 S
H350 C356 0.950 . S
H351 C357 0.950 . S
H352 C358 0.949 . S
C353 H348 0.950 . S
C353 C355 1.327 . S
C353 C359 1.429 . S
C354 C346 1.574 . S
C354 H349 0.949 1_455 S
C354 C360 1.368 1_455 S
C355 C339 1.349 . S
C355 H347 0.950 . S
C355 C353 1.327 . S
C356 C344 1.349 . S
C356 H350 0.950 . S
C356 C357 1.327 . S
C357 H351 0.950 . S
C357 C356 1.327 . S
C357 C361 1.429 . S
C358 C341 1.556 1_455 S
C358 H352 0.949 . S
C358 C362 1.368 . S
C359 C340 1.429 . S
C359 C353 1.429 . S
C359 C360 1.523 . S
C360 C341 1.374 . S
C360 C354 1.368 1_655 S
C360 C359 1.523 . S
C361 C345 1.429 . S
C361 C357 1.429 . S
C361 C362 1.523 . S
C362 C346 1.368 . S
C362 C358 1.368 . S
C362 C361 1.523 . S
H363 C338 0.950 . S
H364 C340 0.950 . S
H365 C341 0.960 . S
H366 C343 0.950 . S
H367 C345 0.950 . S
C368 C369 1.349 . S
C368 C370 1.327 . S
C368 H393 0.950 . S
C369 C368 1.349 . S
C369 C385 1.349 . S
C370 C368 1.327 . S
C370 C389 1.429 . S
C370 H394 0.950 . S
C371 C388 1.574 . S
C371 C390 1.368 . S
C371 H395 0.949 . S
H372 C376 0.949 . S
C373 C374 1.349 . S
C373 C375 1.327 . S
C373 H396 0.950 . S
C374 C373 1.349 . S
C374 C386 1.349 . S
C375 C373 1.327 . S
C375 C391 1.429 . S
C375 H397 0.950 . S
C376 H372 0.949 . S
C376 C384 1.574 . S
C376 C392 1.368 . S
H377 C385 0.950 . S
H378 C383 0.950 . S
H379 C384 0.949 . S
H380 C386 0.950 . S
H381 C387 0.950 . S
H382 C388 0.949 . S
C383 H378 0.950 . S
C383 C385 1.327 . S
C383 C389 1.429 . S
C384 C376 1.574 . S
C384 H379 0.949 . S
C384 C390 1.368 . S
C385 C369 1.349 . S
C385 H377 0.950 . S
C385 C383 1.327 . S
C386 C374 1.349 . S
C386 H380 0.950 . S
C386 C387 1.327 . S
C387 H381 0.950 . S
C387 C386 1.327 . S
C387 C391 1.429 . S
C388 C371 1.574 . S
C388 H382 0.949 . S
C388 C392 1.368 . S
C389 C370 1.429 . S
C389 C383 1.429 . S
C389 C390 1.523 . S
C390 C371 1.368 . S
C390 C384 1.368 . S
C390 C389 1.523 . S
C391 C375 1.429 . S
C391 C387 1.429 . S
C391 C392 1.523 . S
C392 C376 1.368 . S
C392 C388 1.368 . S
C392 C391 1.523 . S
H393 C368 0.950 . S
H394 C370 0.950 . S
H395 C371 0.949 . S
H396 C373 0.950 . S
H397 C375 0.950 . S
C398 C399 1.349 . S
C398 C400 1.327 . S
C398 H423 0.950 . S
C399 C398 1.349 . S
C399 C415 1.349 . S
C400 C398 1.327 . S
C400 C419 1.429 . S
C400 H424 0.950 . S
C401 C418 1.574 . S
C401 C420 1.368 1_655 S
C401 H425 0.949 . S
H402 C406 0.949 . S
C403 C404 1.349 . S
C403 C405 1.327 . S
C403 H426 0.950 . S
C404 C403 1.349 . S
C404 C416 1.349 . S
C405 C403 1.327 . S
C405 C421 1.429 . S
C405 H427 0.950 . S
C406 H402 0.949 . S
C406 C414 1.574 1_655 S
C406 C422 1.368 . S
H407 C415 0.950 . S
H408 C413 0.950 . S
H409 C414 0.949 . S
H410 C416 0.950 . S
H411 C417 0.950 . S
H412 C418 0.949 . S
C413 H408 0.950 . S
C413 C415 1.327 . S
C413 C419 1.429 . S
C414 C406 1.574 1_455 S
C414 H409 0.949 . S
C414 C420 1.368 . S
C415 C399 1.349 . S
C415 H407 0.950 . S
C415 C413 1.327 . S
C416 C404 1.349 . S
C416 H410 0.950 . S
C416 C417 1.327 . S
C417 H411 0.950 . S
C417 C416 1.327 . S
C417 C421 1.429 . S
C418 C401 1.574 . S
C418 H412 0.949 . S
C418 C422 1.368 . S
C419 C400 1.429 . S
C419 C413 1.429 . S
C419 C420 1.523 . S
C420 C401 1.368 1_455 S
C420 C414 1.368 . S
C420 C419 1.523 . S
C421 C405 1.429 . S
C421 C417 1.429 . S
C421 C422 1.523 . S
C422 C406 1.368 . S
C422 C418 1.368 . S
C422 C421 1.523 . S
H423 C398 0.950 . S
H424 C400 0.950 . S
H425 C401 0.949 . S
H426 C403 0.950 . S
H427 C405 0.950 . S
C428 C429 1.349 . S
C428 C430 1.327 . S
C428 H453 0.950 . S
C429 C428 1.349 . S
C429 C445 1.349 . S
C430 C428 1.327 . S
C430 C449 1.423 1_545 S
C430 H454 0.950 1_545 S
C431 C448 1.574 . S
C431 C450 1.368 . S
C431 H455 0.949 . S
H432 C436 0.949 . S
C433 C434 1.349 . S
C433 C435 1.327 . S
C433 H456 0.950 . S
C434 C433 1.349 . S
C434 C446 1.349 . S
C435 C433 1.327 . S
C435 C451 1.429 . S
C435 H457 0.950 . S
C436 H432 0.949 . S
C436 C444 1.574 . S
C436 C452 1.368 . S
H437 C445 0.950 . S
H438 C443 0.950 . S
H439 C444 0.949 . S
H440 C446 0.950 . S
H441 C447 0.950 . S
H442 C448 0.949 . S
C443 H438 0.950 . S
C443 C445 1.327 . S
C443 C449 1.399 1_545 S
C444 C436 1.574 . S
C444 H439 0.949 . S
C444 C450 1.368 . S
C445 C429 1.349 . S
C445 H437 0.950 . S
C445 C443 1.327 . S
C446 C434 1.349 . S
C446 H440 0.950 . S
C446 C447 1.327 . S
C447 H441 0.950 . S
C447 C446 1.327 . S
C447 C451 1.429 . S
C448 C431 1.574 . S
C448 H442 0.949 . S
C448 C452 1.368 . S
C449 C430 1.423 1_565 S
C449 C443 1.399 1_565 S
C449 C450 1.556 . S
C450 C431 1.368 . S
C450 C444 1.368 . S
C450 C449 1.556 . S
C451 C435 1.429 . S
C451 C447 1.429 . S
C451 C452 1.523 . S
C452 C436 1.368 . S
C452 C448 1.368 . S
C452 C451 1.523 . S
H453 C428 0.950 . S
H454 C430 0.950 1_565 S
H455 C431 0.949 . S
H456 C433 0.950 . S
H457 C435 0.950 . S
C458 C459 1.349 . S
C458 C460 1.327 . S
C458 H483 0.950 . S
C459 C458 1.349 . S
C459 C475 1.349 . S
C460 C458 1.327 . S
C460 C479 1.429 . S
C460 H484 0.950 . S
C461 C478 1.574 . S
C461 C480 1.368 . S
C461 H485 0.949 . S
H462 C466 0.949 . S
C463 C464 1.349 . S
C463 C465 1.327 . S
C463 H486 0.950 . S
C464 C463 1.349 . S
C464 C476 1.349 . S
C465 C463 1.327 . S
C465 C481 1.429 . S
C465 H487 0.950 . S
C466 H462 0.949 . S
C466 C474 1.574 . S
C466 C482 1.368 . S
H467 C475 0.950 . S
H468 C473 0.950 . S
H469 C474 0.949 . S
H470 C476 0.950 . S
H471 C477 0.950 . S
H472 C478 0.949 . S
C473 H468 0.950 . S
C473 C475 1.327 . S
C473 C479 1.429 . S
C474 C466 1.574 . S
C474 H469 0.949 . S
C474 C480 1.368 . S
C475 C459 1.349 . S
C475 H467 0.950 . S
C475 C473 1.327 . S
C476 C464 1.349 . S
C476 H470 0.950 . S
C476 C477 1.327 . S
C477 H471 0.950 . S
C477 C476 1.327 . S
C477 C481 1.429 . S
C478 C461 1.574 . S
C478 H472 0.949 . S
C478 C482 1.368 . S
C479 C460 1.429 . S
C479 C473 1.429 . S
C479 C480 1.523 . S
C480 C461 1.368 . S
C480 C474 1.368 . S
C480 C479 1.523 . S
C481 C465 1.429 . S
C481 C477 1.429 . S
C481 C482 1.523 . S
C482 C466 1.368 . S
C482 C478 1.368 . S
C482 C481 1.523 . S
H483 C458 0.950 . S
H484 C460 0.950 . S
H485 C461 0.949 . S
H486 C463 0.950 . S
H487 C465 0.950 . S
C488 C489 1.349 . S
C488 C490 1.327 . S
C488 H513 0.950 . S
C489 C488 1.349 . S
C489 C505 1.349 . S
C490 C488 1.327 . S
C490 C509 1.429 1_565 S
C490 H514 0.950 1_565 S
C491 C508 1.574 . S
C491 C510 1.368 . S
C491 H515 0.949 . S
H492 C496 0.949 . S
C493 C494 1.349 . S
C493 C495 1.327 . S
C493 H516 0.950 . S
C494 C493 1.349 . S
C494 C506 1.349 . S
C495 C493 1.327 . S
C495 C511 1.429 . S
C495 H517 0.950 . S
C496 H492 0.949 . S
C496 C504 1.574 . S
C496 C512 1.368 . S
H497 C505 0.950 . S
H498 C503 0.950 . S
H499 C504 0.949 . S
H500 C506 0.950 . S
H501 C507 0.950 . S
H502 C508 0.949 . S
C503 H498 0.950 . S
C503 C505 1.327 . S
C503 C509 1.429 1_565 S
C504 C496 1.574 . S
C504 H499 0.949 . S
C504 C510 1.368 . S
C505 C489 1.349 . S
C505 H497 0.950 . S
C505 C503 1.327 . S
C506 C494 1.349 . S
C506 H500 0.950 . S
C506 C507 1.327 . S
C507 H501 0.950 . S
C507 C506 1.327 . S
C507 C511 1.429 . S
C508 C491 1.574 . S
C508 H502 0.949 . S
C508 C512 1.368 . S
C509 C490 1.429 1_545 S
C509 C503 1.429 1_545 S
C509 C510 1.523 . S
C510 C491 1.368 . S
C510 C504 1.368 . S
C510 C509 1.523 . S
C511 C495 1.429 . S
C511 C507 1.429 . S
C511 C512 1.523 . S
C512 C496 1.368 . S
C512 C508 1.368 . S
C512 C511 1.523 . S
H513 C488 0.950 . S
H514 C490 0.950 1_545 S
H515 C491 0.949 . S
H516 C493 0.950 . S
H517 C495 0.950 . S
C518 C519 1.349 . S
C518 C520 1.327 . S
C518 H543 0.950 . S
C519 C518 1.349 . S
C519 C535 1.349 . S
C520 C518 1.327 . S
C520 C539 1.429 . S
C520 H544 0.950 . S
C521 C538 1.574 . S
C521 C540 1.368 . S
C521 H545 0.949 . S
H522 C526 0.949 . S
C523 C524 1.349 . S
C523 C525 1.327 . S
C523 H546 0.950 . S
C524 C523 1.349 . S
C524 C536 1.349 . S
C525 C523 1.327 . S
C525 C541 1.429 . S
C525 H547 0.950 . S
C526 H522 0.949 . S
C526 C534 1.574 . S
C526 C542 1.368 . S
H527 C535 0.950 . S
H528 C533 0.950 . S
H529 C534 0.949 . S
H530 C536 0.950 . S
H531 C537 0.950 . S
H532 C538 0.949 . S
C533 H528 0.950 . S
C533 C535 1.327 . S
C533 C539 1.429 . S
C534 C526 1.574 . S
C534 H529 0.949 . S
C534 C540 1.368 . S
C535 C519 1.349 . S
C535 H527 0.950 . S
C535 C533 1.327 . S
C536 C524 1.349 . S
C536 H530 0.950 . S
C536 C537 1.327 . S
C537 H531 0.950 . S
C537 C536 1.327 . S
C537 C541 1.429 . S
C538 C521 1.574 . S
C538 H532 0.949 . S
C538 C542 1.368 . S
C539 C520 1.429 . S
C539 C533 1.429 . S
C539 C540 1.523 . S
C540 C521 1.368 . S
C540 C534 1.368 . S
C540 C539 1.523 . S
C541 C525 1.429 . S
C541 C537 1.429 . S
C541 C542 1.523 . S
C542 C526 1.368 . S
C542 C538 1.368 . S
C542 C541 1.523 . S
H543 C518 0.950 . S
H544 C520 0.950 . S
H545 C521 0.949 . S
H546 C523 0.950 . S
H547 C525 0.950 . S
C548 C549 1.349 . S
C548 C550 1.327 . S
C548 H573 0.950 . S
C549 C548 1.349 . S
C549 C565 1.349 . S
C550 C548 1.327 . S
C550 C569 1.429 . S
C550 H574 0.950 . S
C551 C568 1.574 . S
C551 C570 1.368 . S
C551 H575 0.949 . S
H552 C556 0.949 . S
C553 C554 1.349 . S
C553 C555 1.327 . S
C553 H576 0.950 . S
C554 C553 1.349 . S
C554 C566 1.349 . S
C555 C553 1.327 . S
C555 C571 1.429 . S
C555 H577 0.950 . S
C556 H552 0.949 . S
C556 C564 1.574 . S
C556 C572 1.368 . S
H557 C565 0.950 . S
H558 C563 0.950 . S
H559 C564 0.949 . S
H560 C566 0.950 . S
H561 C567 0.950 . S
H562 C568 0.949 . S
C563 H558 0.950 . S
C563 C565 1.327 . S
C563 C569 1.429 . S
C564 C556 1.574 . S
C564 H559 0.949 . S
C564 C570 1.368 . S
C565 C549 1.349 . S
C565 H557 0.950 . S
C565 C563 1.327 . S
C566 C554 1.349 . S
C566 H560 0.950 . S
C566 C567 1.327 . S
C567 H561 0.950 . S
C567 C566 1.327 . S
C567 C571 1.429 . S
C568 C551 1.574 . S
C568 H562 0.949 . S
C568 C572 1.368 . S
C569 C550 1.429 . S
C569 C563 1.429 . S
C569 C570 1.523 . S
C570 C551 1.368 . S
C570 C564 1.368 . S
C570 C569 1.523 . S
C571 C555 1.429 . S
C571 C567 1.429 . S
C571 C572 1.523 . S
C572 C556 1.368 . S
C572 C568 1.368 . S
C572 C571 1.523 . S
H573 C548 0.950 . S
H574 C550 0.950 . S
H575 C551 0.949 . S
H576 C553 0.950 . S
H577 C555 0.950 . S
C578 C579 1.349 . S
C578 C580 1.327 . S
C578 H603 0.950 . S
C579 C578 1.349 . S
C579 C595 1.349 . S
C580 C578 1.327 . S
C580 C599 1.429 1_455 S
C580 H604 0.950 1_455 S
C581 C598 1.574 . S
C581 C600 1.368 . S
C581 H605 0.949 . S
H582 C586 0.949 . S
C583 C584 1.349 . S
C583 C585 1.327 . S
C583 H606 0.950 . S
C584 C583 1.349 . S
C584 C596 1.349 . S
C585 C583 1.327 . S
C585 C601 1.429 . S
C585 H607 0.950 . S
C586 H582 0.949 . S
C586 C594 1.574 . S
C586 C602 1.368 . S
H587 C595 0.950 . S
H588 C593 0.950 . S
H589 C594 0.949 . S
H590 C596 0.950 . S
H591 C597 0.950 . S
H592 C598 0.949 . S
C593 H588 0.950 . S
C593 C595 1.327 . S
C593 C599 1.429 1_455 S
C594 C586 1.574 . S
C594 H589 0.949 . S
C594 C600 1.368 . S
C595 C579 1.349 . S
C595 H587 0.950 . S
C595 C593 1.327 . S
C596 C584 1.349 . S
C596 H590 0.950 . S
C596 C597 1.327 . S
C597 H591 0.950 . S
C597 C596 1.327 . S
C597 C601 1.429 . S
C598 C581 1.574 . S
C598 H592 0.949 . S
C598 C602 1.368 . S
C599 C580 1.429 1_655 S
C599 C593 1.429 1_655 S
C599 C600 1.523 . S
C600 C581 1.368 . S
C600 C594 1.368 . S
C600 C599 1.523 . S
C601 C585 1.429 . S
C601 C597 1.429 . S
C601 C602 1.523 . S
C602 C586 1.368 . S
C602 C598 1.368 . S
C602 C601 1.523 . S
H603 C578 0.950 . S
H604 C580 0.950 1_655 S
H605 C581 0.949 . S
H606 C583 0.950 . S
H607 C585 0.950 . S
C608 C609 1.349 . S
C608 C610 1.327 . S
C608 H633 0.950 . S
C609 C608 1.349 . S
C609 C625 1.349 . S
C610 C608 1.327 . S
C610 C629 1.429 . S
C610 H634 0.950 . S
C611 C628 1.574 . S
C611 C630 1.368 . S
C611 H635 0.949 . S
H612 C616 0.949 . S
C613 C614 1.349 . S
C613 C615 1.327 . S
C613 H636 0.950 . S
C614 C613 1.349 . S
C614 C626 1.349 . S
C615 C613 1.327 . S
C615 C631 1.429 . S
C615 H637 0.950 . S
C616 H612 0.949 . S
C616 C624 1.574 . S
C616 C632 1.368 . S
H617 C625 0.950 . S
H618 C623 0.950 . S
H619 C624 0.949 . S
H620 C626 0.950 . S
H621 C627 0.950 . S
H622 C628 0.949 . S
C623 H618 0.950 . S
C623 C625 1.327 . S
C623 C629 1.429 . S
C624 C616 1.574 . S
C624 H619 0.949 . S
C624 C630 1.368 . S
C625 C609 1.349 . S
C625 H617 0.950 . S
C625 C623 1.327 . S
C626 C614 1.349 . S
C626 H620 0.950 . S
C626 C627 1.327 . S
C627 H621 0.950 . S
C627 C626 1.327 . S
C627 C631 1.429 . S
C628 C611 1.574 . S
C628 H622 0.949 . S
C628 C632 1.368 . S
C629 C610 1.429 . S
C629 C623 1.429 . S
C629 C630 1.523 . S
C630 C611 1.368 . S
C630 C624 1.368 . S
C630 C629 1.523 . S
C631 C615 1.429 . S
C631 C627 1.429 . S
C631 C632 1.523 . S
C632 C616 1.368 . S
C632 C628 1.368 . S
C632 C631 1.523 . S
H633 C608 0.950 . S
H634 C610 0.950 . S
H635 C611 0.949 . S
H636 C613 0.950 . S
H637 C615 0.950 . S
C638 C639 1.349 . S
C638 C640 1.327 . S
C638 H663 0.950 . S
C639 C638 1.349 . S
C639 C655 1.349 . S
C640 C638 1.327 . S
C640 C659 1.399 1_655 S
C640 H664 0.950 . S
C641 C658 1.574 . S
C641 C660 1.368 . S
C641 H665 0.949 . S
H642 C646 0.949 . S
C643 C644 1.349 . S
C643 C645 1.327 . S
C643 H666 0.950 . S
C644 C643 1.349 . S
C644 C656 1.349 . S
C645 C643 1.327 . S
C645 C661 1.429 . S
C645 H667 0.950 . S
C646 H642 0.949 . S
C646 C654 1.574 . S
C646 C662 1.368 . S
H647 C655 0.950 . S
H648 C653 0.950 1_455 S
H649 C654 0.949 . S
H650 C656 0.950 . S
H651 C657 0.950 . S
H652 C658 0.949 . S
C653 H648 0.950 1_655 S
C653 C655 1.327 . S
C653 C659 1.417 1_655 S
C654 C646 1.574 . S
C654 H649 0.949 . S
C654 C660 1.368 . S
C655 C639 1.349 . S
C655 H647 0.950 . S
C655 C653 1.327 . S
C656 C644 1.349 . S
C656 H650 0.950 . S
C656 C657 1.327 . S
C657 H651 0.950 . S
C657 C656 1.327 . S
C657 C661 1.429 . S
C658 C641 1.574 . S
C658 H652 0.949 . S
C658 C662 1.368 . S
C659 C640 1.399 1_455 S
C659 C653 1.417 1_455 S
C659 C660 1.562 . S
C660 C641 1.368 . S
C660 C654 1.368 . S
C660 C659 1.562 . S
C661 C645 1.429 . S
C661 C657 1.429 . S
C661 C662 1.523 . S
C662 C646 1.368 . S
C662 C658 1.368 . S
C662 C661 1.523 . S
H663 C638 0.950 . S
H664 C640 0.950 . S
H665 C641 0.949 . S
H666 C643 0.950 . S
H667 C645 0.950 . S
C668 C669 1.349 . S
C668 C670 1.327 . S
C668 H693 0.950 . S
C669 C668 1.349 . S
C669 C685 1.349 . S
C670 C668 1.327 . S
C670 C689 1.429 . S
C670 H694 0.950 . S
C671 C688 1.574 . S
C671 C690 1.368 . S
C671 H695 0.949 . S
H672 C676 0.949 . S
C673 C674 1.349 . S
C673 C675 1.327 . S
C673 H696 0.950 . S
C674 C673 1.349 . S
C674 C686 1.349 . S
C675 C673 1.327 . S
C675 C691 1.429 . S
C675 H697 0.950 . S
C676 H672 0.949 . S
C676 C684 1.574 . S
C676 C692 1.368 . S
H677 C685 0.950 . S
H678 C683 0.950 . S
H679 C684 0.949 . S
H680 C686 0.950 . S
H681 C687 0.950 . S
H682 C688 0.949 . S
C683 H678 0.950 . S
C683 C685 1.327 . S
C683 C689 1.429 . S
C684 C676 1.574 . S
C684 H679 0.949 . S
C684 C690 1.368 . S
C685 C669 1.349 . S
C685 H677 0.950 . S
C685 C683 1.327 . S
C686 C674 1.349 . S
C686 H680 0.950 . S
C686 C687 1.327 . S
C687 H681 0.950 . S
C687 C686 1.327 . S
C687 C691 1.429 . S
C688 C671 1.574 . S
C688 H682 0.949 . S
C688 C692 1.368 . S
C689 C670 1.429 . S
C689 C683 1.429 . S
C689 C690 1.523 . S
C690 C671 1.368 . S
C690 C684 1.368 . S
C690 C689 1.523 . S
C691 C675 1.429 . S
C691 C687 1.429 . S
C691 C692 1.523 . S
C692 C676 1.368 . S
C692 C688 1.368 . S
C692 C691 1.523 . S
H693 C668 0.950 . S
H694 C670 0.950 . S
H695 C671 0.949 . S
H696 C673 0.950 . S
H697 C675 0.950 . S
C698 C699 1.349 . S
C698 C700 1.327 . S
C698 H723 0.950 . S
C699 C698 1.349 . S
C699 C715 1.349 . S
C700 C698 1.327 . S
C700 C719 1.429 . S
C700 H724 0.950 . S
C701 C718 1.574 . S
C701 C720 1.368 . S
C701 H725 0.949 . S
H702 C706 0.949 . S
C703 C704 1.349 . S
C703 C705 1.327 . S
C703 H726 0.950 . S
C704 C703 1.349 . S
C704 C716 1.349 . S
C705 C703 1.327 . S
C705 C721 1.429 . S
C705 H727 0.950 . S
C706 H702 0.949 . S
C706 C714 1.574 . S
C706 C722 1.368 . S
H707 C715 0.950 . S
H708 C713 0.950 . S
H709 C714 0.949 . S
H710 C716 0.950 . S
H711 C717 0.950 . S
H712 C718 0.949 . S
C713 H708 0.950 . S
C713 C715 1.327 . S
C713 C719 1.429 . S
C714 C706 1.574 . S
C714 H709 0.949 . S
C714 C720 1.368 . S
C715 C699 1.349 . S
C715 H707 0.950 . S
C715 C713 1.327 . S
C716 C704 1.349 . S
C716 H710 0.950 . S
C716 C717 1.327 . S
C717 H711 0.950 . S
C717 C716 1.327 . S
C717 C721 1.429 . S
C718 C701 1.574 . S
C718 H712 0.949 . S
C718 C722 1.368 . S
C719 C700 1.429 . S
C719 C713 1.429 . S
C719 C720 1.523 . S
C720 C701 1.368 . S
C720 C714 1.368 . S
C720 C719 1.523 . S
C721 C705 1.429 . S
C721 C717 1.429 . S
C721 C722 1.523 . S
C722 C706 1.368 . S
C722 C718 1.368 . S
C722 C721 1.523 . S
H723 C698 0.950 . S
H724 C700 0.950 . S
H725 C701 0.949 . S
H726 C703 0.950 . S
H727 C705 0.950 . S
C728 C729 1.349 . S
C728 C730 1.327 . S
C728 H753 0.950 . S
C729 C728 1.349 . S
C729 C745 1.349 . S
C730 C728 1.327 . S
C730 C749 1.429 . S
C730 H754 0.950 . S
C731 C748 1.574 . S
C731 C750 1.368 . S
C731 H755 0.949 . S
H732 C736 0.949 . S
C733 C734 1.349 . S
C733 C735 1.327 . S
C733 H756 0.950 . S
C734 C733 1.349 . S
C734 C746 1.349 . S
C735 C733 1.327 . S
C735 C751 1.429 . S
C735 H757 0.950 . S
C736 H732 0.949 . S
C736 C744 1.574 . S
C736 C752 1.368 . S
H737 C745 0.950 . S
H738 C743 0.950 . S
H739 C744 0.949 . S
H740 C746 0.950 . S
H741 C747 0.950 . S
H742 C748 0.949 . S
C743 H738 0.950 . S
C743 C745 1.327 . S
C743 C749 1.429 . S
C744 C736 1.574 . S
C744 H739 0.949 . S
C744 C750 1.368 . S
C745 C729 1.349 . S
C745 H737 0.950 . S
C745 C743 1.327 . S
C746 C734 1.349 . S
C746 H740 0.950 . S
C746 C747 1.327 . S
C747 H741 0.950 . S
C747 C746 1.327 . S
C747 C751 1.429 . S
C748 C731 1.574 . S
C748 H742 0.949 . S
C748 C752 1.368 . S
C749 C730 1.429 . S
C749 C743 1.429 . S
C749 C750 1.523 . S
C750 C731 1.368 . S
C750 C744 1.368 . S
C750 C749 1.523 . S
C751 C735 1.429 . S
C751 C747 1.429 . S
C751 C752 1.523 . S
C752 C736 1.368 . S
C752 C748 1.368 . S
C752 C751 1.523 . S
H753 C728 0.950 . S
H754 C730 0.950 . S
H755 C731 0.949 . S
H756 C733 0.950 . S
H757 C735 0.950 . S
C758 C759 1.349 . S
C758 C760 1.327 . S
C758 H783 0.950 . S
C759 C758 1.349 . S
C759 C775 1.349 . S
C760 C758 1.327 . S
C760 C779 1.429 . S
C760 H784 0.950 . S
C761 C778 1.574 . S
C761 C780 1.368 . S
C761 H785 0.949 . S
H762 C766 0.949 . S
C763 C764 1.349 . S
C763 C765 1.327 . S
C763 H786 0.950 . S
C764 C763 1.349 . S
C764 C776 1.349 . S
C765 C763 1.327 . S
C765 C781 1.429 . S
C765 H787 0.950 . S
C766 H762 0.949 . S
C766 C774 1.574 . S
C766 C782 1.368 . S
H767 C775 0.950 . S
H768 C773 0.950 . S
H769 C774 0.949 . S
H770 C776 0.950 . S
H771 C777 0.950 . S
H772 C778 0.949 . S
C773 H768 0.950 . S
C773 C775 1.327 . S
C773 C779 1.429 . S
C774 C766 1.574 . S
C774 H769 0.949 . S
C774 C780 1.368 . S
C775 C759 1.349 . S
C775 H767 0.950 . S
C775 C773 1.327 . S
C776 C764 1.349 . S
C776 H770 0.950 . S
C776 C777 1.327 . S
C777 H771 0.950 . S
C777 C776 1.327 . S
C777 C781 1.429 . S
C778 C761 1.574 . S
C778 H772 0.949 . S
C778 C782 1.368 . S
C779 C760 1.429 . S
C779 C773 1.429 . S
C779 C780 1.523 . S
C780 C761 1.368 . S
C780 C774 1.368 . S
C780 C779 1.523 . S
C781 C765 1.429 . S
C781 C777 1.429 . S
C781 C782 1.523 . S
C782 C766 1.368 . S
C782 C778 1.368 . S
C782 C781 1.523 . S
H783 C758 0.950 . S
H784 C760 0.950 . S
H785 C761 0.949 . S
H786 C763 0.950 . S
H787 C765 0.950 . S
C788 C789 1.349 . S
C788 C790 1.327 . S
C788 H813 0.950 . S
C789 C788 1.349 . S
C789 C805 1.349 . S
C790 C788 1.327 . S
C790 C809 1.429 . S
C790 H814 0.950 . S
C791 C808 1.574 . S
C791 C810 1.368 . S
C791 H815 0.949 . S
H792 C796 0.949 . S
C793 C794 1.349 . S
C793 C795 1.327 . S
C793 H816 0.950 . S
C794 C793 1.349 . S
C794 C806 1.349 . S
C795 C793 1.327 . S
C795 C811 1.429 . S
C795 H817 0.950 . S
C796 H792 0.949 . S
C796 C804 1.574 . S
C796 C812 1.368 . S
H797 C805 0.950 . S
H798 C803 0.950 . S
H799 C804 0.949 . S
H800 C806 0.950 . S
H801 C807 0.950 . S
H802 C808 0.949 . S
C803 H798 0.950 . S
C803 C805 1.327 . S
C803 C809 1.429 . S
C804 C796 1.574 . S
C804 H799 0.949 . S
C804 C810 1.368 . S
C805 C789 1.349 . S
C805 H797 0.950 . S
C805 C803 1.327 . S
C806 C794 1.349 . S
C806 H800 0.950 . S
C806 C807 1.327 . S
C807 H801 0.950 . S
C807 C806 1.327 . S
C807 C811 1.429 . S
C808 C791 1.574 . S
C808 H802 0.949 . S
C808 C812 1.368 . S
C809 C790 1.429 . S
C809 C803 1.429 . S
C809 C810 1.523 . S
C810 C791 1.368 . S
C810 C804 1.368 . S
C810 C809 1.523 . S
C811 C795 1.429 . S
C811 C807 1.429 . S
C811 C812 1.523 . S
C812 C796 1.368 . S
C812 C808 1.368 . S
C812 C811 1.523 . S
H813 C788 0.950 . S
H814 C790 0.950 . S
H815 C791 0.949 . S
H816 C793 0.950 . S
H817 C795 0.950 . S
C818 C819 1.349 . S
C818 C820 1.327 . S
C818 H843 0.950 . S
C819 C818 1.349 . S
C819 C835 1.349 . S
C820 C818 1.327 . S
C820 C839 1.429 . S
C820 H844 0.950 . S
C821 C838 1.574 . S
C821 C840 1.368 . S
C821 H845 0.949 . S
H822 C826 0.949 . S
C823 C824 1.349 . S
C823 C825 1.327 . S
C823 H846 0.950 . S
C824 C823 1.349 . S
C824 C836 1.349 . S
C825 C823 1.327 . S
C825 C841 1.429 . S
C825 H847 0.950 . S
C826 H822 0.949 . S
C826 C834 1.574 . S
C826 C842 1.368 . S
H827 C835 0.950 . S
H828 C833 0.950 . S
H829 C834 0.949 . S
H830 C836 0.950 . S
H831 C837 0.950 . S
H832 C838 0.949 . S
C833 H828 0.950 . S
C833 C835 1.327 . S
C833 C839 1.429 . S
C834 C826 1.574 . S
C834 H829 0.949 . S
C834 C840 1.368 . S
C835 C819 1.349 . S
C835 H827 0.950 . S
C835 C833 1.327 . S
C836 C824 1.349 . S
C836 H830 0.950 . S
C836 C837 1.327 . S
C837 H831 0.950 . S
C837 C836 1.327 . S
C837 C841 1.429 . S
C838 C821 1.574 . S
C838 H832 0.949 . S
C838 C842 1.368 . S
C839 C820 1.429 . S
C839 C833 1.429 . S
C839 C840 1.523 . S
C840 C821 1.368 . S
C840 C834 1.368 . S
C840 C839 1.523 . S
C841 C825 1.429 . S
C841 C837 1.429 . S
C841 C842 1.523 . S
C842 C826 1.368 . S
C842 C838 1.368 . S
C842 C841 1.523 . S
H843 C818 0.950 . S
H844 C820 0.950 . S
H845 C821 0.949 . S
H846 C823 0.950 . S
H847 C825 0.950 . S
C848 C849 1.349 . S
C848 C850 1.327 . S
C848 H873 0.950 . S
C849 C848 1.349 . S
C849 C865 1.349 . S
C850 C848 1.327 . S
C850 C869 1.429 . S
C850 H874 0.950 . S
C851 C868 1.574 . S
C851 C870 1.368 . S
C851 H875 0.949 . S
H852 C856 0.949 . S
C853 C854 1.349 . S
C853 C855 1.327 . S
C853 H876 0.950 . S
C854 C853 1.349 . S
C854 C866 1.349 . S
C855 C853 1.327 . S
C855 C871 1.429 . S
C855 H877 0.950 . S
C856 H852 0.949 . S
C856 C864 1.574 . S
C856 C872 1.368 . S
H857 C865 0.950 . S
H858 C863 0.950 . S
H859 C864 0.949 . S
H860 C866 0.950 . S
H861 C867 0.950 . S
H862 C868 0.949 . S
C863 H858 0.950 . S
C863 C865 1.327 . S
C863 C869 1.429 . S
C864 C856 1.574 . S
C864 H859 0.949 . S
C864 C870 1.368 . S
C865 C849 1.349 . S
C865 H857 0.950 . S
C865 C863 1.327 . S
C866 C854 1.349 . S
C866 H860 0.950 . S
C866 C867 1.327 . S
C867 H861 0.950 . S
C867 C866 1.327 . S
C867 C871 1.429 . S
C868 C851 1.574 . S
C868 H862 0.949 . S
C868 C872 1.368 . S
C869 C850 1.429 . S
C869 C863 1.429 . S
C869 C870 1.523 . S
C870 C851 1.368 . S
C870 C864 1.368 . S
C870 C869 1.523 . S
C871 C855 1.429 . S
C871 C867 1.429 . S
C871 C872 1.523 . S
C872 C856 1.368 . S
C872 C868 1.368 . S
C872 C871 1.523 . S
H873 C848 0.950 . S
H874 C850 0.950 . S
H875 C851 0.949 . S
H876 C853 0.950 . S
H877 C855 0.950 . S
C878 C879 1.349 . S
C878 C880 1.327 . S
C878 H903 0.950 . S
C879 C878 1.349 . S
C879 C895 1.349 . S
C880 C878 1.327 . S
C880 C899 1.429 . S
C880 H904 0.950 . S
C881 C898 1.574 . S
C881 C900 1.368 . S
C881 H905 0.949 . S
H882 C886 0.949 . S
C883 C884 1.349 . S
C883 C885 1.327 . S
C883 H906 0.950 . S
C884 C883 1.349 . S
C884 C896 1.349 . S
C885 C883 1.327 . S
C885 C901 1.429 . S
C885 H907 0.950 . S
C886 H882 0.949 . S
C886 C894 1.574 . S
C886 C902 1.368 . S
H887 C895 0.950 . S
H888 C893 0.950 . S
H889 C894 0.949 . S
H890 C896 0.950 . S
H891 C897 0.950 . S
H892 C898 0.949 . S
C893 H888 0.950 . S
C893 C895 1.327 . S
C893 C899 1.429 . S
C894 C886 1.574 . S
C894 H889 0.949 . S
C894 C900 1.368 . S
C895 C879 1.349 . S
C895 H887 0.950 . S
C895 C893 1.327 . S
C896 C884 1.349 . S
C896 H890 0.950 . S
C896 C897 1.327 . S
C897 H891 0.950 . S
C897 C896 1.327 . S
C897 C901 1.429 . S
C898 C881 1.574 . S
C898 H892 0.949 . S
C898 C902 1.368 . S
C899 C880 1.429 . S
C899 C893 1.429 . S
C899 C900 1.523 . S
C900 C881 1.368 . S
C900 C894 1.368 . S
C900 C899 1.523 . S
C901 C885 1.429 . S
C901 C897 1.429 . S
C901 C902 1.523 . S
C902 C886 1.368 . S
C902 C898 1.368 . S
C902 C901 1.523 . S
H903 C878 0.950 . S
H904 C880 0.950 . S
H905 C881 0.949 . S
H906 C883 0.950 . S
H907 C885 0.950 . S
C189 C7 0.656 . S
C194 N89 0.594 . S
C219 C25 0.658 . S
C224 N102 0.596 . S
C249 C46 0.655 . S
C254 N111 0.593 . S
C284 N128 0.590 . S
C279 C70 0.654 . S
C314 N141 0.593 . S
C309 C28 0.656 . S
C339 C49 0.655 . S
C344 N150 0.593 . S
C369 C67 0.658 . S
C374 N163 0.598 . S
C399 C4 0.657 . S
C404 N180 0.595 . S
C429 C58 1.669 . S
C434 N176 1.787 . S
C464 N137 1.785 . S
C459 C66 1.667 . S
C494 N154 1.794 . S
C489 C3 1.673 . S
C519 C37 1.673 . S
C524 N167 1.794 . S
C554 N98 1.790 . S
C549 C79 1.672 . S
C579 C16 1.674 . S
C584 N115 1.795 . S
C614 N124 1.787 . S
C609 C24 1.669 . S
C644 N85 1.788 . S
C639 C45 1.669 . S
C674 N164 1.335 . S
C669 C19 1.204 . S
C704 N177 1.330 . S
C699 C41 1.202 . S
C729 C62 1.200 . S
C734 N138 1.328 . S
C764 N151 1.332 . S
C759 C82 1.201 . S
C794 N112 1.333 . S
C789 C40 1.202 . S
C819 C61 1.199 . S
C824 N125 1.327 . S
C854 N86 1.330 . S
C849 C83 1.201 . S
C884 N99 1.332 . S
C879 C20 1.204 . S
