# Generated by pormake.
# Topology zzz, (3,6)-cn, num edge types: 1
# Building blocks:
#     Node 0, Type 0, BuildingBlock: BELTOD_clean_linker_0, # of connection points: 3
#     Node 1, Type 0, BuildingBlock: BELTOD_clean_linker_0, # of connection points: 3
#     Node 2, Type 0, BuildingBlock: BELTOD_clean_linker_0, # of connection points: 3
#     Node 3, Type 0, BuildingBlock: BELTOD_clean_linker_0, # of connection points: 3
#     Node 4, Type 0, BuildingBlock: BELTOD_clean_linker_0, # of connection points: 3
#     Node 5, Type 0, BuildingBlock: BELTOD_clean_linker_0, # of connection points: 3
#     Node 6, Type 0, BuildingBlock: BELTOD_clean_linker_0, # of connection points: 3
#     Node 7, Type 0, BuildingBlock: BELTOD_clean_linker_0, # of connection points: 3
#     Node 8, Type 1, BuildingBlock: PAMTUU_clean_sbu_0, # of connection points: 6
#     Node 9, Type 1, BuildingBlock: PAMTUU_clean_sbu_0, # of connection points: 6
#     Node 10, Type 1, BuildingBlock: PAMTUU_clean_sbu_0, # of connection points: 6
#     Node 11, Type 1, BuildingBlock: PAMTUU_clean_sbu_0, # of connection points: 6
#     Edge 12, Type (0, 1), BuildingBlock: CIFDUS_clean_linker_0, # of connection points: 2
#     Edge 13, Type (0, 1), BuildingBlock: CIFDUS_clean_linker_0, # of connection points: 2
#     Edge 14, Type (0, 1), BuildingBlock: CIFDUS_clean_linker_0, # of connection points: 2
#     Edge 15, Type (0, 1), BuildingBlock: CIFDUS_clean_linker_0, # of connection points: 2
#     Edge 16, Type (0, 1), BuildingBlock: CIFDUS_clean_linker_0, # of connection points: 2
#     Edge 17, Type (0, 1), BuildingBlock: CIFDUS_clean_linker_0, # of connection points: 2
#     Edge 18, Type (0, 1), BuildingBlock: CIFDUS_clean_linker_0, # of connection points: 2
#     Edge 19, Type (0, 1), BuildingBlock: CIFDUS_clean_linker_0, # of connection points: 2
#     Edge 20, Type (0, 1), BuildingBlock: CIFDUS_clean_linker_0, # of connection points: 2
#     Edge 21, Type (0, 1), BuildingBlock: CIFDUS_clean_linker_0, # of connection points: 2
#     Edge 22, Type (0, 1), BuildingBlock: CIFDUS_clean_linker_0, # of connection points: 2
#     Edge 23, Type (0, 1), BuildingBlock: CIFDUS_clean_linker_0, # of connection points: 2
#     Edge 24, Type (0, 1), BuildingBlock: CIFDUS_clean_linker_0, # of connection points: 2
#     Edge 25, Type (0, 1), BuildingBlock: CIFDUS_clean_linker_0, # of connection points: 2
#     Edge 26, Type (0, 1), BuildingBlock: CIFDUS_clean_linker_0, # of connection points: 2
#     Edge 27, Type (0, 1), BuildingBlock: CIFDUS_clean_linker_0, # of connection points: 2
#     Edge 28, Type (0, 1), BuildingBlock: CIFDUS_clean_linker_0, # of connection points: 2
#     Edge 29, Type (0, 1), BuildingBlock: CIFDUS_clean_linker_0, # of connection points: 2
#     Edge 30, Type (0, 1), BuildingBlock: CIFDUS_clean_linker_0, # of connection points: 2
#     Edge 31, Type (0, 1), BuildingBlock: CIFDUS_clean_linker_0, # of connection points: 2
#     Edge 32, Type (0, 1), BuildingBlock: CIFDUS_clean_linker_0, # of connection points: 2
#     Edge 33, Type (0, 1), BuildingBlock: CIFDUS_clean_linker_0, # of connection points: 2
#     Edge 34, Type (0, 1), BuildingBlock: CIFDUS_clean_linker_0, # of connection points: 2
#     Edge 35, Type (0, 1), BuildingBlock: CIFDUS_clean_linker_0, # of connection points: 2
# Relax obj value: 0.384
# Max RMSD: 0.277
# Mean RMSD: 0.210
data_MOF--net-zzz--node1-PAMTUU_clean_sbu_0--node2-BELTOD_clean_linker_0--edge1-CIFDUS_clean_linker_0
_symmetry_space_group_name_H-M    P1
_symmetry_Int_Tables_number       1
_symmetry_cell_setting            triclinic
loop_
_symmetry_equiv_pos_as_xyz
'x, y, z'
_cell_length_a     47.827538
_cell_length_b     51.699196
_cell_length_c     17.311553
_cell_angle_alpha  100.54284
_cell_angle_beta   90.034169
_cell_angle_gamma 89.518911
loop_
_atom_site_label
_atom_site_type_symbol
_atom_site_fract_x
_atom_site_fract_y
_atom_site_fract_z
_atom_type_partial_charge
P0 P 0.7296 0.46113 0.38702 0.0
H1 H 0.74349 0.46056 0.55129 0.0
H2 H 0.78505 0.47272 0.62856 0.0
H3 H 0.81717 0.51135 0.44602 0.0
H4 H 0.77557 0.49762 0.36657 0.0
H5 H 0.6699 0.45093 0.37587 0.0
H6 H 0.63452 0.46397 0.29147 0.0
H7 H 0.68916 0.52446 0.23691 0.0
H8 H 0.7256 0.50969 0.31871 0.0
H9 H 0.78384 0.43445 0.36043 0.0
H10 H 0.71244 0.44832 0.21996 0.0
O11 O 0.71621 0.43782 0.43088 0.0
H12 H 0.80913 0.41521 0.24105 0.0
H13 H 0.73769 0.42922 0.10119 0.0
C14 C 0.7561 0.47817 0.45275 0.0
C15 C 0.75908 0.47216 0.52818 0.0
C16 C 0.78316 0.47928 0.57292 0.0
C17 C 0.80507 0.49298 0.54417 0.0
C18 C 0.80124 0.50037 0.47013 0.0
C19 C 0.77709 0.49298 0.42495 0.0
C20 C 0.70054 0.47946 0.35498 0.0
C21 C 0.6741 0.46766 0.34829 0.0
C22 C 0.65359 0.47524 0.29908 0.0
C23 C 0.65865 0.4952 0.25536 0.0
C24 C 0.68445 0.50855 0.26748 0.0
C25 C 0.70524 0.50058 0.31606 0.0
C26 C 0.74675 0.44408 0.29938 0.0
C27 C 0.77352 0.4333 0.30422 0.0
C28 C 0.78781 0.42193 0.23596 0.0
C29 C 0.7754 0.42096 0.16181 0.0
C30 C 0.74785 0.43007 0.15754 0.0
C31 C 0.73353 0.44127 0.22581 0.0
P32 P 0.04806 0.71832 0.47863 0.0
H33 H 0.05522 0.73838 0.64633 0.0
H34 H 0.03675 0.77825 0.72663 0.0
H35 H 0.97421 0.78366 0.5499 0.0
H36 H 0.99358 0.74429 0.46845 0.0
H37 H 0.0551 0.66146 0.46425 0.0
H38 H 0.03848 0.6245 0.3682 0.0
H39 H 0.98581 0.67731 0.26454 0.0
H40 H 1.0037 0.7144 0.3585 0.0
H41 H 0.06821 0.77205 0.52029 0.0
H42 H 0.05894 0.71431 0.3078 0.0
O43 O 0.07521 0.7071 0.52378 0.0
H44 H 0.0796 0.80529 0.4427 0.0
H45 H 0.06988 0.74781 0.22968 0.0
C46 C 0.02592 0.73821 0.55089 0.0
C47 C 0.03674 0.74739 0.62614 0.0
C48 C 0.02612 0.77039 0.67226 0.0
C49 C 1.00437 0.78461 0.64395 0.0
C50 C 0.99143 0.77358 0.57264 0.0
C51 C 1.00224 0.75067 0.52632 0.0
C52 C 0.0307 0.69081 0.41886 0.0
C53 C 0.03961 0.66511 0.42183 0.0
C54 C 0.0299 0.64387 0.36689 0.0
C55 C 1.01092 0.64787 0.30796 0.0
C56 C 1.00073 0.67352 0.30827 0.0
C57 C 1.0106 0.69478 0.36307 0.0
C58 C 0.06136 0.74095 0.41993 0.0
C59 C 0.06856 0.76645 0.45694 0.0
C60 C 0.07506 0.78551 0.41253 0.0
C61 C 0.0749 0.77932 0.33012 0.0
C62 C 0.06991 0.7532 0.29315 0.0
C63 C 0.06333 0.73409 0.33785 0.0
P64 P 0.80743 0.02635 0.49239 0.0
H65 H 0.79381 0.00657 0.63625 0.0
H66 H 0.74878 -0.00091 0.69397 0.0
H67 H 0.7081 0.00216 0.47331 0.0
H68 H 0.75348 0.00959 0.41538 0.0
H69 H 0.8679 0.03068 0.48956 0.0
H70 H 0.90291 0.01802 0.38861 0.0
H71 H 0.84059 0.97544 0.23638 0.0
H72 H 0.80503 0.98846 0.33965 0.0
H73 H 0.77334 0.07048 0.56683 0.0
H74 H 0.80683 0.04167 0.33532 0.0
O75 O 0.82414 0.0393 0.57497 0.0
H76 H 0.74018 0.09818 0.51097 0.0
H77 H 0.7736 0.06861 0.27962 0.0
C78 C 0.77732 0.00882 0.52124 0.0
C79 C 0.77547 0.00469 0.59903 0.0
C80 C 0.74949 0.00076 0.63254 0.0
C81 C 0.72458 0.00066 0.58905 0.0
C82 C 0.72676 0.00216 0.50878 0.0
C83 C 0.75285 0.00621 0.47527 0.0
C84 C 0.83372 0.01016 0.42343 0.0
C85 C 0.86168 0.01791 0.4357 0.0
C86 C 0.88189 0.01066 0.37724 0.0
C87 C 0.8748 0.99563 0.30375 0.0
C88 C 0.84686 0.98715 0.29197 0.0
C89 C 0.82655 0.99423 0.35144 0.0
C90 C 0.79217 0.05354 0.45525 0.0
C91 C 0.77436 0.07087 0.50454 0.0
C92 C 0.75537 0.08664 0.47258 0.0
C93 C 0.75394 0.08515 0.39081 0.0
C94 C 0.77419 0.07025 0.34288 0.0
C95 C 0.79311 0.05446 0.37487 0.0
P96 P 0.50724 0.77988 0.24231 0.0
H97 H 0.48016 0.76571 0.37866 0.0
H98 H 0.49437 0.73661 0.46716 0.0
H99 H 0.57783 0.73249 0.37044 0.0
H100 H 0.56353 0.76254 0.28261 0.0
H101 H 0.54411 0.78288 0.1061 0.0
H102 H 0.55954 0.82011 0.05106 0.0
H103 H 0.52736 0.87305 0.25437 0.0
H104 H 0.5128 0.83534 0.31114 0.0
H105 H 0.45829 0.7551 0.15741 0.0
H106 H 0.54764 0.74252 0.15577 0.0
O107 O 0.47546 0.79233 0.2668 0.0
H108 H 0.45284 0.71436 0.06137 0.0
H109 H 0.54227 0.70225 0.05919 0.0
C110 C 0.52079 0.76646 0.32403 0.0
C111 C 0.50183 0.75949 0.37834 0.0
C112 C 0.50998 0.74268 0.42896 0.0
C113 C 0.53717 0.73204 0.42537 0.0
C114 C 0.55665 0.7402 0.374 0.0
C115 C 0.54855 0.75748 0.32414 0.0
C116 C 0.52692 0.80615 0.21284 0.0
C117 C 0.54112 0.80227 0.14067 0.0
C118 C 0.54976 0.82376 0.1085 0.0
C119 C 0.54406 0.84961 0.14724 0.0
C120 C 0.53212 0.85343 0.22281 0.0
C121 C 0.52372 0.83183 0.25536 0.0
C122 C 0.50342 0.75206 0.16348 0.0
C123 C 0.47678 0.74394 0.13549 0.0
C124 C 0.47365 0.72067 0.08069 0.0
C125 C 0.49716 0.70536 0.05257 0.0
C126 C 0.52384 0.71394 0.07894 0.0
C127 C 0.5269 0.73691 0.13456 0.0
P128 P 0.29683 0.46377 0.14099 0.0
H129 H 0.28485 0.47186 0.98018 0.0
H130 H 0.24234 0.48623 0.92124 0.0
H131 H 0.20697 0.51144 0.15214 0.0
H132 H 0.24993 0.49767 0.21117 0.0
H133 H 0.3576 0.45849 0.1421 0.0
H134 H 0.39218 0.47081 0.24454 0.0
H135 H 0.32982 0.51764 0.38892 0.0
H136 H 0.29497 0.50451 0.28546 0.0
H137 H 0.2413 0.43977 0.12352 0.0
H138 H 0.31062 0.44189 0.28371 0.0
O139 O 0.31216 0.44332 0.06708 0.0
H140 H 0.20946 0.43333 0.22573 0.0
H141 H 0.27904 0.43326 0.38588 0.0
C142 C 0.27081 0.48358 0.10041 0.0
C143 C 0.26848 0.48139 0.01856 0.0
C144 C 0.24397 0.48948 0.98468 0.0
C145 C 0.22099 0.49955 0.03184 0.0
C146 C 0.22411 0.50345 0.11405 0.0
C147 C 0.24892 0.49594 0.14795 0.0
C148 C 0.32367 0.48089 0.20482 0.0
C149 C 0.35149 0.47215 0.19442 0.0
C150 C 0.37136 0.4792 0.25381 0.0
C151 C 0.36397 0.49518 0.32596 0.0
C152 C 0.33632 0.50504 0.33481 0.0
C153 C 0.31641 0.49797 0.27489 0.0
C154 C 0.27778 0.44406 0.19862 0.0
C155 C 0.24984 0.43793 0.18023 0.0
C156 C 0.23154 0.4338 0.23927 0.0
C157 C 0.24136 0.43475 0.31659 0.0
C158 C 0.27048 0.43433 0.32862 0.0
C159 C 0.28864 0.43924 0.26996 0.0
P160 P 0.09364 0.25409 0.24648 0.0
H161 H 0.11573 0.22932 0.09285 0.0
H162 H 0.09833 0.19202 0.99855 0.0
H163 H 0.01883 0.19871 0.11899 0.0
H164 H 0.03624 0.23608 0.21269 0.0
H165 H 0.11946 0.29744 0.34924 0.0
H166 H 0.10154 0.33919 0.42048 0.0
H167 H 0.0228 0.32524 0.29799 0.0
H168 H 0.04105 0.28317 0.22651 0.0
H169 H 0.12006 0.20684 0.28308 0.0
H170 H 0.05021 0.2575 0.36749 0.0
O171 O 0.12814 0.25471 0.23239 0.0
H172 H 0.10451 0.1751 0.36264 0.0
H173 H 0.03472 0.22602 0.44701 0.0
C174 C 0.07731 0.23564 0.15997 0.0
C175 C 0.09417 0.22354 0.0972 0.0
C176 C 0.08429 0.20197 0.04369 0.0
C177 C 0.05739 0.19208 0.05223 0.0
C178 C 0.03961 0.20589 0.11047 0.0
C179 C 0.04953 0.22746 0.164 0.0
C180 C 0.08175 0.28729 0.28192 0.0
C181 C 0.09862 0.30368 0.33582 0.0
C182 C 0.08831 0.32762 0.37665 0.0
C183 C 0.0607 0.33558 0.36506 0.0
C184 C 0.04409 0.31955 0.30867 0.0
C185 C 0.05457 0.29557 0.26733 0.0
C186 C 0.08666 0.23477 0.32052 0.0
C187 C 0.10196 0.21156 0.32076 0.0
C188 C 0.09299 0.1934 0.36596 0.0
C189 C 0.06831 0.19807 0.41056 0.0
C190 C 0.05368 0.22185 0.41261 0.0
C191 C 0.06274 0.24001 0.36781 0.0
P192 P 0.23268 0.03534 0.2008 0.0
H193 H 0.24027 0.0203 0.03004 0.0
H194 H 0.28239 0.00654 0.95466 0.0
H195 H 0.32168 0.98763 0.1622 0.0
H196 H 0.27924 0.00165 0.23772 0.0
H197 H 0.18327 0.06245 0.26843 0.0
H198 H 0.14762 0.05351 0.35904 0.0
H199 H 0.18634 0.97819 0.36631 0.0
H200 H 0.22298 0.98784 0.27518 0.0
H201 H 0.27401 0.07142 0.16195 0.0
H202 H 0.24693 0.0431 0.36894 0.0
O203 O 0.21707 0.0534 0.14231 0.0
H204 H 0.31965 0.08193 0.22233 0.0
H205 H 0.29206 0.05453 0.43017 0.0
C206 C 0.25626 0.01216 0.14016 0.0
C207 C 0.25738 0.01211 0.059 0.0
C208 C 0.28182 0.00436 0.01566 0.0
C209 C 0.30595 0.9965 0.0523 0.0
C210 C 0.30384 0.99412 0.13202 0.0
C211 C 0.27923 0.00164 0.17516 0.0
C212 C 0.20541 0.02552 0.26266 0.0
C213 C 0.18397 0.04374 0.28812 0.0
C214 C 0.16341 0.03854 0.34034 0.0
C215 C 0.16351 0.01485 0.36947 0.0
C216 C 0.18542 0.99662 0.34513 0.0
C217 C 0.20625 0.00196 0.29232 0.0
C218 C 0.25714 0.05629 0.26063 0.0
C219 C 0.27715 0.06913 0.22232 0.0
C220 C 0.30327 0.07508 0.25664 0.0
C221 C 0.30924 0.06886 0.33043 0.0
C222 C 0.28776 0.05972 0.37343 0.0
C223 C 0.26188 0.05317 0.33832 0.0
P224 P 0.42324 0.23923 0.48356 0.0
H225 H 0.38271 0.25238 0.37017 0.0
H226 H 0.38703 0.27934 0.26959 0.0
H227 H 0.47691 0.27686 0.29013 0.0
H228 H 0.47257 0.24941 0.39027 0.0
H229 H 0.39897 0.20207 0.56958 0.0
H230 H 0.41502 0.16076 0.60174 0.0
H231 H 0.48884 0.16333 0.45988 0.0
H232 H 0.47207 0.20495 0.42561 0.0
H233 H 0.4034 0.28431 0.59745 0.0
H234 H 0.48282 0.24786 0.52324 0.0
O235 O 0.38921 0.2417 0.50576 0.0
H236 H 0.42751 0.32043 0.68033 0.0
H237 H 0.50714 0.28489 0.60409 0.0
C238 C 0.4273 0.24915 0.38934 0.0
C239 C 0.40346 0.25684 0.35169 0.0
C240 C 0.4059 0.27252 0.29443 0.0
C241 C 0.43227 0.28084 0.27348 0.0
C242 C 0.45628 0.2709 0.30531 0.0
C243 C 0.45379 0.25515 0.36282 0.0
C244 C 0.43412 0.20658 0.49434 0.0
C245 C 0.41834 0.19363 0.54368 0.0
C246 C 0.4277 0.17004 0.56292 0.0
C247 C 0.45339 0.15891 0.53433 0.0
C248 C 0.46889 0.17138 0.4826 0.0
C249 C 0.45936 0.19518 0.46305 0.0
C250 C 0.44125 0.2633 0.55413 0.0
C251 C 0.426 0.28379 0.59984 0.0
C252 C 0.43981 0.30447 0.64723 0.0
C253 C 0.46915 0.30535 0.64849 0.0
C254 C 0.48449 0.2846 0.60394 0.0
C255 C 0.47059 0.26351 0.5578 0.0
Tb256 Tb 0.99617 0.00071 0.76781 0.0
Tb257 Tb 0.04177 0.97937 0.88291 0.0
C258 C 0.9778 0.98819 0.9313 0.0
C259 C 0.9682 0.04484 0.64776 0.0
C260 C 0.9844 0.08816 0.58109 0.0
C261 C 0.96748 0.06836 0.53852 0.0
C262 C 0.95952 0.04676 0.57164 0.0
C263 C 0.9841 0.06515 0.69127 0.0
C264 C 0.99199 0.08663 0.65847 0.0
C265 C 0.96413 0.02044 0.67838 0.0
O266 O 1.00945 0.03471 0.85315 0.0
O267 O 0.05261 0.02004 0.88321 0.0
O268 O 0.06226 0.97612 0.76832 0.0
O269 O 0.03705 0.00725 0.71899 0.0
O270 O 0.06232 0.98388 0.99171 0.0
O271 O 0.0725 0.95154 0.89792 0.0
O272 O 1.01472 0.94632 0.84106 0.0
O273 O 1.00012 0.95844 0.72664 0.0
O274 O 0.97103 0.98691 0.85697 0.0
O275 O 1.00411 0.98989 0.95443 0.0
C276 C 0.03476 0.0393 0.88126 0.0
O277 O 0.98227 0.00189 0.65325 0.0
O278 O 0.96042 0.02331 0.75411 0.0
C279 C 0.05919 0.99193 0.71728 0.0
C280 C 0.07442 0.94321 0.02601 0.0
C281 C 0.07144 0.90493 0.12204 0.0
C282 C 0.09742 0.91215 0.09488 0.0
C283 C 0.09887 0.93119 0.04728 0.0
C284 C 0.04845 0.93625 0.05338 0.0
C285 C 0.04698 0.91733 0.1014 0.0
C286 C 0.07613 0.96181 0.9717 0.0
C287 C 1.00429 0.9404 0.77002 0.0
H288 H 0.96146 0.06899 0.47856 0.0
H289 H 0.94755 0.03111 0.53683 0.0
H290 H 0.99131 0.06401 0.7498 0.0
H291 H 1.00464 0.10177 0.69312 0.0
H292 H 0.1166 0.90309 0.11051 0.0
H293 H 0.11906 0.93629 0.02623 0.0
H294 H 0.02931 0.94515 0.03665 0.0
H295 H 0.02666 0.91194 0.12077 0.0
Tb296 Tb 0.50279 0.98152 0.73415 0.0
Tb297 Tb 0.52586 0.01946 0.89178 0.0
C298 C 0.52809 0.95788 0.87533 0.0
C299 C 0.4723 0.96772 0.53988 0.0
C300 C 0.44132 0.99347 0.43823 0.0
C301 C 0.43467 0.96762 0.44598 0.0
C302 C 0.44998 0.95487 0.49705 0.0
C303 C 0.4801 0.99283 0.52776 0.0
C304 C 0.46461 0.00569 0.47781 0.0
C305 C 0.48497 0.95682 0.60447 0.0
O306 O 0.46501 0.99416 0.80441 0.0
O307 O 0.48546 0.00604 0.92535 0.0
O308 O 0.49739 0.04233 0.83268 0.0
O309 O 0.50632 0.02103 0.70884 0.0
O310 O 0.52927 0.02997 0.01389 0.0
O311 O 0.54482 0.05556 0.93822 0.0
O312 O 0.56055 0.01561 0.80723 0.0
O313 O 0.54811 0.97667 0.72972 0.0
O314 O 0.50994 0.95538 0.81716 0.0
O315 O 0.54056 0.98031 0.90299 0.0
C316 C 0.46319 -0.00013 0.88172 0.0
O317 O 0.51113 0.96248 0.61849 0.0
O318 O 0.47043 0.96035 0.66911 0.0
C319 C 0.49796 0.04212 0.75707 0.0
C320 C 0.56723 0.0575 0.06099 0.0
C321 C 0.61071 0.07126 0.16964 0.0
C322 C 0.59941 0.09004 0.12906 0.0
C323 C 0.57768 0.08322 0.07547 0.0
C324 C 0.57913 0.03851 0.09979 0.0
C325 C 0.60063 0.04538 0.15385 0.0
C326 C 0.54264 0.05157 0.01014 0.0
C327 C 0.56665 0.99509 0.75254 0.0
H328 H 0.41657 0.95794 0.41649 0.0
H329 H 0.44356 0.93559 0.506 0.0
H330 H 0.49742 0.00304 0.55962 0.0
H331 H 0.47013 0.02558 0.47248 0.0
H332 H 0.60688 0.1101 0.14029 0.0
H333 H 0.56864 0.09818 0.04643 0.0
H334 H 0.57155 0.01848 0.08951 0.0
H335 H 0.6094 0.03043 0.18341 0.0
Tb336 Tb 0.47147 0.49416 0.8858 0.0
Tb337 Tb 0.52159 0.51117 0.77189 0.0
C338 C 0.45824 0.50533 0.71666 0.0
C339 C 0.43257 0.45498 0.0081 0.0
C340 C 0.42773 0.41042 0.08028 0.0
C341 C 0.40379 0.42423 0.06244 0.0
C342 C 0.40621 0.44633 0.02694 0.0
C343 C 0.45654 0.44096 0.0239 0.0
C344 C 0.45416 0.41893 0.05989 0.0
C345 C 0.43473 0.47824 0.97051 0.0
O346 O 0.48495 0.45885 0.80817 0.0
O347 O 0.52866 0.46914 0.7666 0.0
O348 O 0.54025 0.51267 0.88824 0.0
O349 O 0.51062 0.48555 0.94026 0.0
O350 O 0.54052 0.50962 0.6612 0.0
O351 O 0.55665 0.53466 0.76424 0.0
O352 O 0.49626 0.54608 0.81226 0.0
O353 O 0.47771 0.53586 0.92511 0.0
O354 O 0.44994 0.50844 0.79033 0.0
O355 O 0.48479 0.50165 0.69731 0.0
C356 C 0.50955 0.45198 0.7774 0.0
O357 O 0.43418 0.47356 0.89401 0.0
O358 O 0.45405 0.49512 0.99764 0.0
C359 C 0.53416 0.49859 0.942 0.0
C360 C 0.55781 0.55118 0.64713 0.0
C361 C 0.55938 0.59644 0.57718 0.0
C362 C 0.58214 0.57868 0.56949 0.0
C363 C 0.58138 0.5563 0.60445 0.0
C364 C 0.5349 0.56859 0.65395 0.0
C365 C 0.53569 0.59101 0.61951 0.0
C366 C 0.55772 0.52857 0.68797 0.0
C367 C 0.48462 0.55307 0.88162 0.0
H368 H 0.38309 0.41788 0.07561 0.0
H369 H 0.38746 0.45667 0.01412 0.0
H370 H 0.47711 0.44717 0.00894 0.0
H371 H 0.47305 0.40891 0.07317 0.0
H372 H 0.60077 0.58237 0.53777 0.0
H373 H 0.59933 0.54317 0.59899 0.0
H374 H 0.51647 0.56495 0.68654 0.0
H375 H 0.51763 0.60401 0.62551 0.0
Tb376 Tb 0.02476 0.52507 0.74309 0.0
Tb377 Tb 1.00038 0.48271 0.84279 0.0
C378 C 1.00055 0.54334 0.90906 0.0
C379 C 0.07397 0.54637 0.61727 0.0
C380 C 0.11672 0.51374 0.54099 0.0
C381 C 0.09588 0.52379 0.49706 0.0
C382 C 0.0747 0.54007 0.53495 0.0
C383 C 0.09649 0.53863 0.66042 0.0
C384 C 0.11763 0.52239 0.62263 0.0
C385 C 0.04687 0.5529 0.65655 0.0
O386 O 0.05912 0.52047 0.82344 0.0
O387 O 0.04513 0.48323 0.86764 0.0
O388 O 1.00565 0.46307 0.72107 0.0
O389 O 0.04309 0.48696 0.69681 0.0
O390 O 0.97502 0.47342 0.93214 0.0
O391 O 1.00187 0.44398 0.86367 0.0
O392 O 0.96285 0.49709 0.7914 0.0
O393 O 0.98398 0.51332 0.69134 0.0
O394 O 1.0 0.54769 0.83678 0.0
O395 O 1.00616 0.5198 0.92372 0.0
C396 C 0.06396 0.50124 0.86226 0.0
O397 O 0.02758 0.53568 0.63223 0.0
O398 O 0.0472 0.55921 0.73317 0.0
C399 C 0.02819 0.4656 0.6802 0.0
C400 C 0.95968 0.42986 0.91107 0.0
C401 C 0.91052 0.40115 0.919 0.0
C402 C 0.93205 0.40081 0.97438 0.0
C403 C 0.9564 0.41509 0.97036 0.0
C404 C 0.93956 0.42848 0.85155 0.0
C405 C 0.91516 0.41404 0.85522 0.0
C406 C 0.98253 0.44869 0.91748 0.0
C407 C 0.96152 0.50549 0.72418 0.0
H408 H 0.09515 0.518 0.43372 0.0
H409 H 0.05751 0.54566 0.50046 0.0
H410 H 0.09654 0.54308 0.72399 0.0
H411 H 0.1335 0.51509 0.65805 0.0
H412 H 0.92921 0.39146 0.02487 0.0
H413 H 0.97187 0.41595 0.01653 0.0
H414 H 0.942 0.4397 0.80493 0.0
H415 H 0.89917 0.41439 0.81107 0.0
H416 H 0.16701 0.9912 0.50058 0.0
H417 H 0.10789 0.02708 0.36288 0.0
H418 H 0.07116 0.02372 0.45752 0.0
H419 H 0.05555 0.0119 0.5817 0.0
H420 H 0.11341 0.97401 0.7174 0.0
H421 H 0.15039 0.97663 0.62156 0.0
C422 C 0.14603 0.99796 0.49059 0.0
C423 C 0.14065 0.00986 0.4247 0.0
C424 C 0.12457 0.99573 0.54545 0.0
C425 C 0.11312 0.01848 0.41361 0.0
C426 C 0.09191 0.01645 0.46773 0.0
C427 C 0.07623 0.00419 0.59048 0.0
C428 C 0.08157 0.99294 0.65741 0.0
C429 C 0.09742 0.00545 0.53446 0.0
C430 C 0.10854 0.9828 0.66675 0.0
C431 C 0.12979 0.98431 0.61181 0.0
H432 H 0.45332 0.15023 0.68377 0.0
H433 H 0.478 0.11451 0.4486 0.0
H434 H 0.49403 0.07507 0.49643 0.0
H435 H 0.50044 0.05071 0.6056 0.0
H436 H 0.47491 0.08708 0.83994 0.0
H437 H 0.45961 0.12622 0.79158 0.0
C438 C 0.46201 0.13374 0.64273 0.0
C439 C 0.46424 0.13523 0.5626 0.0
C440 C 0.471 0.11123 0.67052 0.0
C441 C 0.47617 0.11392 0.51061 0.0
C442 C 0.48519 0.09133 0.5379 0.0
C443 C 0.4914 0.06712 0.64604 0.0
C444 C 0.48875 0.0658 0.72637 0.0
C445 C 0.4826 0.08973 0.61779 0.0
C446 C 0.47725 0.08745 0.77792 0.0
C447 C 0.46846 0.1099 0.75033 0.0
H448 H 0.35461 0.49755 0.48402 0.0
H449 H 0.42045 0.50375 0.31806 0.0
H450 H 0.45501 0.50755 0.42304 0.0
H451 H 0.46709 0.50766 0.56155 0.0
H452 H 0.40121 0.50279 0.72841 0.0
H453 H 0.3664 0.5004 0.62413 0.0
C454 C 0.37643 0.5002 0.47077 0.0
C455 C 0.38469 0.50011 0.39234 0.0
C456 C 0.39638 0.50254 0.53188 0.0
C457 C 0.41329 0.50322 0.37708 0.0
C458 C 0.43317 0.50553 0.43737 0.0
C459 C 0.44512 0.50616 0.57535 0.0
C460 C 0.43697 0.50527 0.65319 0.0
C461 C 0.42505 0.50487 0.51487 0.0
C462 C 0.40827 0.50354 0.66944 0.0
C463 C 0.38826 0.50211 0.6096 0.0
H464 H 0.08548 0.38318 0.41153 0.0
H465 H 1.00947 0.34107 0.43632 0.0
H466 H 0.99221 0.37793 0.53389 0.0
H467 H 1.00006 0.42086 0.61887 0.0
H468 H 0.07651 0.46262 0.59496 0.0
H469 H 0.09234 0.42698 0.49157 0.0
C470 C 0.0651 0.3821 0.43812 0.0
C471 C 0.04887 0.35932 0.41679 0.0
C472 C 0.0555 0.40318 0.49519 0.0
C473 C 0.02229 0.35845 0.45088 0.0
C474 C 1.01251 0.37943 0.50734 0.0
C475 C 0.02015 0.42221 0.59093 0.0
C476 C 0.03716 0.44427 0.61544 0.0
C477 C 0.02915 0.40168 0.53102 0.0
C478 C 0.06302 0.44581 0.57784 0.0
C479 C 0.07211 0.42546 0.51848 0.0
H480 H 0.86898 0.99684 0.14605 0.0
H481 H 0.92998 0.98237 0.31724 0.0
H482 H 0.96683 0.97865 0.21844 0.0
H483 H 0.9825 0.98142 0.08452 0.0
H484 H 0.92149 0.99484 0.9121 0.0
H485 H 0.88425 0.99675 0.00946 0.0
C486 C 0.89022 0.99242 0.16154 0.0
C487 C 0.89651 0.99019 0.23981 0.0
C488 C 0.91156 0.99029 0.10402 0.0
C489 C 0.92439 0.98469 0.25824 0.0
C490 C 0.94558 0.98248 0.20153 0.0
C491 C 0.96106 0.98471 0.06803 0.0
C492 C 0.95504 0.98816 0.99071 0.0
C493 C 0.93955 0.98567 0.1245 0.0
C494 C 0.92696 0.99213 0.97082 0.0
C495 C 0.90554 0.99326 0.02669 0.0
H496 H 0.53077 0.85029 0.99562 0.0
H497 H 0.56302 0.89969 0.20409 0.0
H498 H 0.56285 0.9374 0.13647 0.0
H499 H 0.5506 0.9568 0.02022 0.0
H500 H 0.51737 0.90667 0.81407 0.0
H501 H 0.52148 0.8687 0.87834 0.0
C502 C 0.53844 0.86912 0.02593 0.0
C503 C 0.54703 0.87206 0.10481 0.0
C504 C 0.53799 0.89066 0.98711 0.0
C505 C 0.55614 0.89687 0.14354 0.0
C506 C 0.55608 0.91843 0.10484 0.0
C507 C 0.54463 0.9375 0.98901 0.0
C508 C 0.53354 0.93467 0.91249 0.0
C509 C 0.5466 0.91565 0.02693 0.0
C510 C 0.52575 0.90952 0.87315 0.0
C511 C 0.52809 0.88774 0.90985 0.0
H512 H 0.60119 0.48939 0.25173 0.0
H513 H 0.66959 0.51173 0.11529 0.0
H514 H 0.63738 0.51612 0.00959 0.0
H515 H 0.59002 0.51112 0.95112 0.0
H516 H 0.52299 0.48442 0.083 0.0
H517 H 0.5546 0.48335 0.19294 0.0
C518 C 0.60938 0.49491 0.19879 0.0
C519 C 0.63822 0.50013 0.1929 0.0
C520 C 0.59089 0.49628 0.13607 0.0
C521 C 0.64767 0.50804 0.12363 0.0
C522 C 0.62922 0.51023 0.06208 0.0
C523 C 0.58231 0.5051 1.00394 0.0
C524 C 0.55404 0.49781 0.00821 0.0
C525 C 0.60083 0.50405 0.06706 0.0
C526 C 0.54459 0.48996 0.07732 0.0
C527 C 0.56267 0.48944 0.14063 0.0
H528 H 1.00534 0.64976 0.15244 0.0
H529 H 1.0013 0.59614 0.31617 0.0
H530 H 0.9962 0.55916 0.20717 0.0
H531 H 0.99624 0.54178 0.06512 0.0
H532 H 0.99937 0.59573 0.90214 0.0
H533 H 1.00071 0.63287 0.01143 0.0
C534 C 1.00265 0.63011 0.1647 0.0
C535 C 1.00396 0.62582 0.24268 0.0
C536 C 0.99966 0.60892 0.10177 0.0
C537 C 1.00089 0.60003 0.2568 0.0
C538 C 0.99786 0.57886 0.19447 0.0
C539 C 0.99694 0.56167 0.05342 0.0
C540 C 0.99799 0.56587 0.97538 0.0
C541 C 0.99783 0.58301 0.11664 0.0
C542 C 0.99862 0.59183 0.96147 0.0
C543 C 0.99948 0.61313 0.02401 0.0
H544 H 0.01486 0.18099 0.40552 0.0
H545 H 0.09598 0.16846 0.50207 0.0
H546 H 0.07701 0.13324 0.56312 0.0
H547 H 0.03758 0.10585 0.58747 0.0
H548 H 0.95642 0.11817 0.4908 0.0
H549 H 0.97526 0.15369 0.43067 0.0
C550 C 0.02828 0.17076 0.4408 0.0
C551 C 0.05671 0.1774 0.44992 0.0
C552 C 0.01728 0.15048 0.4751 0.0
C553 C 0.07405 0.16361 0.49417 0.0
C554 C 0.06321 0.14355 0.5291 0.0
C555 C 0.02394 0.11651 0.55396 0.0
C556 C 0.9956 0.10958 0.54407 0.0
C557 C 0.03489 0.13681 0.51977 0.0
C558 C 0.97833 0.1231 0.49891 0.0
C559 C 0.98905 0.14345 0.4649 0.0
H560 H 0.34496 0.03488 0.24768 0.0
H561 H 0.33729 0.09094 0.46382 0.0
H562 H 0.38131 0.07473 0.51117 0.0
H563 H 0.41737 0.04007 0.49861 0.0
H564 H 0.42111 0.9805 0.28897 0.0
H565 H 0.38319 0.00255 0.23063 0.0
C566 C 0.35352 0.0441 0.30398 0.0
C567 C 0.33839 0.06426 0.35202 0.0
C568 C 0.37775 0.03366 0.33216 0.0
C569 C 0.34896 0.07562 0.42587 0.0
C570 C 0.3739 0.06619 0.45298 0.0
C571 C 0.41029 0.03236 0.43936 0.0
C572 C 0.42183 0.00878 0.39781 0.0
C573 C 0.38782 0.04455 0.40784 0.0
C574 C 0.41233 -0.0014 0.32175 0.0
C575 C 0.39072 0.0112 0.28859 0.0
H576 H 0.50609 0.33681 0.59151 0.0
H577 H 0.46243 0.32716 0.80213 0.0
H578 H 0.47644 0.37115 0.86672 0.0
H579 H 0.4938 0.41442 0.8549 0.0
H580 H 0.53475 0.42601 0.6424 0.0
H581 H 0.52993 0.37897 0.58722 0.0
C582 C 0.50044 0.34413 0.6523 0.0
C583 C 0.48308 0.32902 0.69206 0.0
C584 C 0.50786 0.3698 0.68814 0.0
C585 C 0.4756 0.33864 0.77049 0.0
C586 C 0.48353 0.36376 0.80723 0.0
C587 C 0.50229 0.40647 0.79719 0.0
C588 C 0.51425 0.42351 0.7521 0.0
C589 C 0.49856 0.37986 0.76539 0.0
C590 C 0.52551 0.41314 0.678 0.0
C591 C 0.52245 0.38634 0.64629 0.0
H592 H 0.18549 0.42372 0.32863 0.0
H593 H 0.25325 0.4667 0.45757 0.0
H594 H 0.22013 0.49292 0.54436 0.0
H595 H 0.17247 0.51006 0.56685 0.0
H596 H 0.10462 0.47053 0.43058 0.0
H597 H 0.13723 0.43775 0.36108 0.0
C598 C 0.19312 0.43868 0.37594 0.0
C599 C 0.222 0.44353 0.38402 0.0
C600 C 0.17387 0.45523 0.42264 0.0
C601 C 0.23131 0.4622 0.44865 0.0
C602 C 0.21228 0.47775 0.49796 0.0
C603 C 0.16478 0.49405 0.52276 0.0
C604 C 0.13634 0.49308 0.50246 0.0
C605 C 0.18362 0.47546 0.48256 0.0
C606 C 0.12662 0.47217 0.4454 0.0
C607 C 0.14519 0.45326 0.40629 0.0
H608 H 0.04989 0.82721 0.35665 0.0
H609 H 0.10673 0.77856 0.19819 0.0
H610 H 0.11098 0.81339 0.12029 0.0
H611 H 0.098 0.85747 0.09677 0.0
H612 H 0.04096 0.90579 0.25552 0.0
H613 H 0.03739 0.87125 0.33423 0.0
C614 C 0.0635 0.82436 0.30562 0.0
C615 C 0.07815 0.80045 0.28347 0.0
C616 C 0.06571 0.84434 0.26119 0.0
C617 C 0.09517 0.79677 0.21617 0.0
C618 C 0.09766 0.81669 0.17185 0.0
C619 C 0.08502 0.86051 0.14907 0.0
C620 C 0.0698 0.88414 0.17046 0.0
C621 C 0.08298 0.84053 0.19376 0.0
C622 C 0.05268 0.88767 0.23755 0.0
C623 C 0.05072 0.86799 0.28268 0.0
H624 H 0.70121 0.07633 0.43171 0.0
H625 H 0.74896 0.11048 0.26498 0.0
H626 H 0.70696 0.11222 0.18491 0.0
H627 H 0.65869 0.09743 0.15304 0.0
H628 H 0.61256 0.06082 0.3175 0.0
H629 H 0.65195 0.06684 0.40852 0.0
C630 C 0.70228 0.08511 0.37946 0.0
C631 C 0.72813 0.09326 0.35418 0.0
C632 C 0.67846 0.08505 0.3326 0.0
C633 C 0.72926 0.10401 0.28534 0.0
C634 C 0.70532 0.10483 0.23941 0.0
C635 C 0.65715 0.09133 0.20958 0.0
C636 C 0.63306 0.07835 0.22833 0.0
C637 C 0.68011 0.09435 0.26085 0.0
C638 C 0.63119 0.0704 0.30146 0.0
C639 C 0.65361 0.07393 0.35352 0.0
H640 H 0.46339 0.66631 0.07827 0.0
H641 H 0.5246 0.68578 0.91588 0.0
H642 H 0.52395 0.64046 0.84296 0.0
H643 H 0.50926 0.59459 0.8336 0.0
H644 H 0.45022 0.57485 1.00188 0.0
H645 H 0.44651 0.62108 0.06394 0.0
C646 C 0.47611 0.66072 0.02589 0.0
C647 C 0.49396 0.67921 1.00216 0.0
C648 C 0.47622 0.63456 0.98595 0.0
C649 C 0.51076 0.67172 0.93514 0.0
C650 C 0.51043 0.64587 0.89367 0.0
C651 C 0.49526 0.60045 0.8831 0.0
C652 C 0.48017 0.5813 0.9134 0.0
C653 C 0.49375 0.62698 0.91975 0.0
C654 C 0.46226 0.58919 0.97788 0.0
C655 C 0.4601 0.61561 0.01341 0.0
H656 H 0.81054 0.37891 0.12188 0.0
H657 H 0.77908 0.44782 0.04147 0.0
H658 H 0.81561 0.44347 0.94195 0.0
H659 H 0.8619 0.42658 0.90089 0.0
H660 H 0.89486 0.35845 0.98284 0.0
H661 H 0.85207 0.35577 0.05784 0.0
C662 C 0.81136 0.39254 0.08119 0.0
C663 C 0.79258 0.41393 0.08993 0.0
C664 C 0.83288 0.39033 0.02529 0.0
C665 C 0.79337 0.43121 0.03604 0.0
C666 C 0.8144 0.42887 0.97947 0.0
C667 C 0.85939 0.41039 0.93219 0.0
C668 C 0.88195 0.39325 0.93826 0.0
C669 C 0.83511 0.40939 0.9766 0.0
C670 C 0.8781 0.37239 0.97914 0.0
C671 C 0.85369 0.3709 0.02227 0.0
H672 H 0.08939 0.14792 0.02747 0.0
H673 H 1.00716 0.17661 0.98226 0.0
H674 H 0.993 0.13188 0.92356 0.0
H675 H 1.0035 0.08436 0.89089 0.0
H676 H 0.0859 0.05621 0.93853 0.0
H677 H 0.10045 0.10107 0.9901 0.0
C678 C 0.06853 0.14452 1.00327 0.0
C679 C 0.04942 0.16563 0.00872 0.0
C680 C 0.06047 0.1188 0.97077 0.0
C681 C 0.02225 0.16071 0.97891 0.0
C682 C 1.01415 0.13514 0.94544 0.0
C683 C 0.02469 0.08801 0.91212 0.0
C684 C 0.04351 0.0668 0.91097 0.0
C685 C 0.03299 0.11396 0.9421 0.0
C686 C 0.07088 0.07203 0.93892 0.0
C687 C 0.07928 0.09773 0.96837 0.0
H688 H 0.3579 0.01154 0.10938 0.0
H689 H 0.3164 0.97448 0.89712 0.0
H690 H 0.3606 0.97253 0.82514 0.0
H691 H 0.41152 0.9821 0.82151 0.0
H692 H 0.45223 0.01833 0.03653 0.0
H693 H 0.40831 0.01945 0.10735 0.0
C694 C 0.35849 0.00253 0.04777 0.0
C695 C 0.33354 0.99313 0.00938 0.0
C696 C 0.38408 0.00142 1.00651 0.0
C697 C 0.335 0.98215 0.92865 0.0
C698 C 0.3604 0.98095 0.88724 0.0
C699 C 0.41079 0.99025 0.8838 0.0
C700 C 0.4355 0.00016 0.92292 0.0
C701 C 0.38513 0.99075 0.92529 0.0
C702 C 0.43387 0.01049 1.00408 0.0
C703 C 0.40861 0.01117 0.04512 0.0
H704 H 0.402 0.32596 0.2918 0.0
H705 H 0.46794 0.28381 0.15091 0.0
H706 H 0.47228 0.32004 0.07798 0.0
H707 H 0.45726 0.36388 0.05499 0.0
H708 H 0.39231 0.40611 0.2007 0.0
H709 H 0.3873 0.3694 0.26979 0.0
C710 C 0.41705 0.32449 0.24432 0.0
C711 C 0.43439 0.30206 0.22618 0.0
C712 C 0.41958 0.34542 0.20343 0.0
C713 C 0.45433 0.30084 0.16596 0.0
C714 C 0.45678 0.32153 0.12425 0.0
C715 C 0.44215 0.36514 0.10222 0.0
C716 C 0.42505 0.38775 0.12202 0.0
C717 C 0.43959 0.344 0.14275 0.0
C718 C 0.40538 0.38883 0.18296 0.0
C719 C 0.40261 0.36789 0.22301 0.0
H720 H 0.1697 0.48239 0.06801 0.0
H721 H 0.2103 0.52605 0.91115 0.0
H722 H 0.16555 0.53126 0.84629 0.0
H723 H 0.11468 0.52245 0.83205 0.0
H724 H 0.07515 0.47646 0.98495 0.0
H725 H 0.11933 0.47323 0.053 0.0
C726 C 0.16869 0.49334 0.02027 0.0
C727 C 0.19338 0.50403 0.99511 0.0
C728 C 0.14296 0.49572 0.98202 0.0
C729 C 0.1917 0.51764 0.93187 0.0
C730 C 0.16607 0.52062 0.89472 0.0
C731 C 0.11569 0.51183 0.88045 0.0
C732 C 0.09138 0.49976 0.90307 0.0
C733 C 0.14152 0.5096 0.91888 0.0
C734 C 0.09337 0.48585 0.96563 0.0
C735 C 0.1187 0.48403 1.00494 0.0
H736 H 0.99444 0.8262 0.57159 0.0
H737 H 1.00227 0.80585 0.80171 0.0
H738 H 1.00134 0.85249 0.86162 0.0
H739 H 1.00246 0.89898 0.84735 0.0
H740 H 0.99394 0.91886 0.61673 0.0
H741 H 0.9903 0.87235 0.55865 0.0
C742 C 0.99508 0.8318 0.63506 0.0
C743 C 0.99857 0.81241 0.68191 0.0
C744 C 0.99465 0.85862 0.66905 0.0
C745 C 0.99996 0.8203 0.76403 0.0
C746 C 0.99941 0.84699 0.79837 0.0
C747 C 0.99953 0.89317 0.78445 0.0
C748 C 0.99882 0.91242 0.73643 0.0
C749 C 0.99752 0.86633 0.75124 0.0
C750 C 0.99466 0.90452 0.65516 0.0
C751 C 0.99265 0.87788 0.62178 0.0
H752 H 0.67634 0.97333 0.54066 0.0
H753 H 0.70966 0.03107 0.72902 0.0
H754 H 0.66453 0.03459 0.79586 0.0
H755 H 0.61499 0.02182 0.80111 0.0
H756 H 0.58193 0.96296 0.61519 0.0
H757 H 0.62703 0.95948 0.54807 0.0
C758 C 0.67372 0.98667 0.59632 0.0
C759 C 0.69666 0.00177 0.62963 0.0
C760 C 0.64753 0.98848 0.63531 0.0
C761 C 0.6927 0.01886 0.70222 0.0
C762 C 0.66674 0.02103 0.74049 0.0
C763 C 0.61763 0.0082 0.74598 0.0
C764 C 0.59482 0.99273 0.71364 0.0
C765 C 0.64393 0.00599 0.7077 0.0
C766 C 0.59894 0.97508 0.64214 0.0
C767 C 0.62482 0.9731 0.60332 0.0
H768 H 0.56305 0.68529 0.36991 0.0
H769 H 0.52538 0.73031 0.57883 0.0
H770 H 0.53001 0.69265 0.64533 0.0
H771 H 0.54201 0.64609 0.64127 0.0
H772 H 0.57853 0.60067 0.43107 0.0
H773 H 0.57756 0.63938 0.36853 0.0
C774 C 0.55642 0.68703 0.43057 0.0
C775 C 0.54386 0.71058 0.46933 0.0
C776 C 0.55873 0.66513 0.46803 0.0
C777 C 0.53495 0.71236 0.54753 0.0
C778 C 0.53755 0.69082 0.58553 0.0
C779 C 0.54971 0.64464 0.5817 0.0
C780 C 0.56013 0.62042 0.54079 0.0
C781 C 0.54884 0.66693 0.54578 0.0
C782 C 0.57055 0.61907 0.46417 0.0
C783 C 0.56987 0.64118 0.42818 0.0
H784 H 0.85896 0.49491 0.48776 0.0
H785 H 0.81265 0.50287 0.70513 0.0
H786 H 0.85618 0.50646 0.77892 0.0
H787 H 0.90796 0.50639 0.78292 0.0
H788 H 0.95389 0.50221 0.56658 0.0
H789 H 0.91023 0.49866 0.4925 0.0
C790 C 0.85815 0.49794 0.55132 0.0
C791 C 0.83205 0.49811 0.58981 0.0
C792 C 0.88347 0.50066 0.59427 0.0
C793 C 0.83208 0.50181 0.67268 0.0
C794 C 0.85712 0.50409 0.71546 0.0
C795 C 0.90841 0.50478 0.71959 0.0
C796 C 0.93437 0.50446 0.68068 0.0
C797 C 0.88301 0.50323 0.67697 0.0
C798 C 0.93437 0.50261 0.5985 0.0
C799 C 0.90932 0.50051 0.55583 0.0
loop_
_geom_bond_atom_site_label_1
_geom_bond_atom_site_label_2
_geom_bond_distance
_geom_bond_site_symmetry_2
_ccdc_geom_bond_type
P0 O11 1.490 . S
P0 C14 1.812 . S
P0 C20 1.803 . S
P0 C26 1.819 . S
H1 C15 0.941 . S
H2 C16 0.939 . S
H3 C18 0.940 . S
H4 C19 0.940 . S
H5 C21 0.939 . S
H6 C22 0.942 . S
H7 C24 0.940 . S
H8 C25 0.939 . S
H9 C27 0.941 . S
H10 C31 0.939 . S
O11 P0 1.490 . S
H12 C28 0.939 . S
H13 C30 0.940 . S
C14 P0 1.812 . S
C14 C15 1.389 . S
C14 C19 1.391 . S
C15 H1 0.941 . S
C15 C14 1.389 . S
C15 C16 1.397 . S
C16 H2 0.939 . S
C16 C15 1.397 . S
C16 C17 1.378 . S
C17 C16 1.378 . S
C17 C18 1.378 . S
C18 H3 0.940 . S
C18 C17 1.378 . S
C18 C19 1.396 . S
C19 H4 0.940 . S
C19 C14 1.391 . S
C19 C18 1.396 . S
C20 P0 1.803 . S
C20 C21 1.378 . S
C20 C25 1.400 . S
C21 H5 0.939 . S
C21 C20 1.378 . S
C21 C22 1.361 . S
C22 H6 0.942 . S
C22 C21 1.361 . S
C22 C23 1.369 . S
C23 C22 1.369 . S
C23 C24 1.404 . S
C24 H7 0.940 . S
C24 C23 1.404 . S
C24 C25 1.389 . S
C25 H8 0.939 . S
C25 C20 1.400 . S
C25 C24 1.389 . S
C26 P0 1.819 . S
C26 C27 1.391 . S
C26 C31 1.391 . S
C27 H9 0.941 . S
C27 C26 1.391 . S
C27 C28 1.396 . S
C28 H12 0.939 . S
C28 C27 1.396 . S
C28 C29 1.397 . S
C29 C28 1.397 . S
C29 C30 1.385 . S
C30 H13 0.940 . S
C30 C29 1.385 . S
C30 C31 1.388 . S
C31 H10 0.939 . S
C31 C26 1.391 . S
C31 C30 1.388 . S
P32 O43 1.490 . S
P32 C46 1.812 . S
P32 C52 1.803 . S
P32 C58 1.819 . S
H33 C47 0.941 . S
H34 C48 0.939 . S
H35 C50 0.940 . S
H36 C51 0.961 . S
H37 C53 0.939 . S
H38 C54 0.942 . S
H39 C56 0.940 . S
H40 C57 0.939 . S
H41 C59 0.941 . S
H42 C63 0.939 1_655 S
O43 P32 1.490 . S
H44 C60 0.939 . S
H45 C62 0.940 . S
C46 P32 1.812 . S
C46 C47 1.389 . S
C46 C51 1.359 1_455 S
C47 H33 0.941 . S
C47 C46 1.389 . S
C47 C48 1.397 . S
C48 H34 0.939 . S
C48 C47 1.397 . S
C48 C49 1.378 . S
C49 C48 1.378 . S
C49 C50 1.378 1_455 S
C50 H35 0.940 . S
C50 C49 1.378 1_655 S
C50 C51 1.409 . S
C51 H36 0.961 . S
C51 C46 1.359 1_655 S
C51 C50 1.409 . S
C52 P32 1.803 . S
C52 C53 1.378 . S
C52 C57 1.400 1_455 S
C53 H37 0.939 . S
C53 C52 1.378 . S
C53 C54 1.361 . S
C54 H38 0.942 . S
C54 C53 1.361 . S
C54 C55 1.369 . S
C55 C54 1.369 . S
C55 C56 1.404 1_455 S
C56 H39 0.940 . S
C56 C55 1.404 1_655 S
C56 C57 1.389 . S
C57 H40 0.939 . S
C57 C52 1.400 1_655 S
C57 C56 1.389 . S
C58 P32 1.819 . S
C58 C59 1.391 . S
C58 C63 1.391 . S
C59 H41 0.941 . S
C59 C58 1.391 . S
C59 C60 1.396 . S
C60 H44 0.939 . S
C60 C59 1.396 . S
C60 C61 1.397 . S
C61 C60 1.397 . S
C61 C62 1.385 1_455 S
C62 H45 0.940 . S
C62 C61 1.385 1_655 S
C62 C63 1.388 1_655 S
C63 H42 0.939 1_455 S
C63 C58 1.391 . S
C63 C62 1.388 1_455 S
P64 O75 1.490 . S
P64 C78 1.812 . S
P64 C84 1.803 . S
P64 C90 1.819 . S
H65 C79 0.941 . S
H66 C80 0.939 . S
H67 C82 0.940 . S
H68 C83 0.947 . S
H69 C85 0.939 . S
H70 C86 0.942 . S
H71 C88 0.940 . S
H72 C89 0.963 . S
H73 C91 0.941 . S
H74 C95 0.930 1_565 S
O75 P64 1.490 . S
H76 C92 0.939 . S
H77 C94 0.940 . S
C78 P64 1.812 . S
C78 C79 1.389 . S
C78 C83 1.375 1_545 S
C79 H65 0.941 . S
C79 C78 1.389 . S
C79 C80 1.397 . S
C80 H66 0.939 . S
C80 C79 1.397 . S
C80 C81 1.378 . S
C81 C80 1.378 . S
C81 C82 1.378 1_545 S
C82 H67 0.940 . S
C82 C81 1.378 1_565 S
C82 C83 1.406 . S
C83 H68 0.947 . S
C83 C78 1.375 1_565 S
C83 C82 1.406 . S
C84 P64 1.803 . S
C84 C85 1.378 . S
C84 C89 1.367 1_545 S
C85 H69 0.939 . S
C85 C84 1.378 . S
C85 C86 1.361 . S
C86 H70 0.942 . S
C86 C85 1.361 . S
C86 C87 1.369 . S
C87 C86 1.369 . S
C87 C88 1.404 1_545 S
C88 H71 0.940 . S
C88 C87 1.404 1_565 S
C88 C89 1.400 . S
C89 H72 0.963 . S
C89 C84 1.367 1_565 S
C89 C88 1.400 . S
C90 P64 1.819 . S
C90 C91 1.391 . S
C90 C95 1.391 . S
C91 H73 0.941 . S
C91 C90 1.391 . S
C91 C92 1.396 . S
C92 H76 0.939 . S
C92 C91 1.396 . S
C92 C93 1.397 . S
C93 C92 1.397 . S
C93 C94 1.385 1_545 S
C94 H77 0.940 . S
C94 C93 1.385 1_565 S
C94 C95 1.388 1_565 S
C95 H74 0.930 1_545 S
C95 C90 1.391 . S
C95 C94 1.388 1_545 S
P96 O107 1.490 . S
P96 C110 1.812 . S
P96 C116 1.803 1_554 S
P96 C122 1.819 1_554 S
H97 C111 0.941 . S
H98 C112 0.939 . S
H99 C114 0.940 . S
H100 C115 0.940 . S
H101 C117 0.939 . S
H102 C118 0.942 . S
H103 C120 0.940 1_554 S
H104 C121 0.939 . S
H105 C123 0.941 . S
H106 C127 0.939 . S
O107 P96 1.490 . S
H108 C124 0.939 . S
H109 C126 0.940 . S
C110 P96 1.812 . S
C110 C111 1.389 . S
C110 C115 1.391 . S
C111 H97 0.941 . S
C111 C110 1.389 . S
C111 C112 1.397 . S
C112 H98 0.939 . S
C112 C111 1.397 . S
C112 C113 1.378 . S
C113 C112 1.378 . S
C113 C114 1.378 . S
C114 H99 0.940 . S
C114 C113 1.378 . S
C114 C115 1.396 . S
C115 H100 0.940 . S
C115 C110 1.391 . S
C115 C114 1.396 . S
C116 P96 1.803 1_556 S
C116 C117 1.378 . S
C116 C121 1.400 1_556 S
C117 H101 0.939 . S
C117 C116 1.378 . S
C117 C118 1.361 . S
C118 H102 0.942 . S
C118 C117 1.361 . S
C118 C119 1.369 . S
C119 C118 1.369 . S
C119 C120 1.404 . S
C120 H103 0.940 1_556 S
C120 C119 1.404 . S
C120 C121 1.389 1_556 S
C121 H104 0.939 . S
C121 C116 1.400 1_554 S
C121 C120 1.389 1_554 S
C122 P96 1.819 1_556 S
C122 C123 1.391 . S
C122 C127 1.391 . S
C123 H105 0.941 . S
C123 C122 1.391 . S
C123 C124 1.396 . S
C124 H108 0.939 . S
C124 C123 1.396 . S
C124 C125 1.397 . S
C125 C124 1.397 . S
C125 C126 1.385 . S
C126 H109 0.940 . S
C126 C125 1.385 . S
C126 C127 1.388 . S
C127 H106 0.939 . S
C127 C122 1.391 . S
C127 C126 1.388 . S
P128 O139 1.490 . S
P128 C142 1.812 . S
P128 C148 1.803 . S
P128 C154 1.819 . S
H129 C143 0.941 . S
H130 C144 0.939 . S
H131 C146 0.940 . S
H132 C147 0.940 . S
H133 C149 0.939 . S
H134 C150 0.942 . S
H135 C152 0.940 . S
H136 C153 0.939 . S
H137 C155 0.941 . S
H138 C159 0.939 . S
O139 P128 1.490 . S
H140 C156 0.939 . S
H141 C158 0.940 . S
C142 P128 1.812 . S
C142 C143 1.389 1_554 S
C142 C147 1.391 . S
C143 H129 0.941 . S
C143 C142 1.389 1_556 S
C143 C144 1.397 . S
C144 H130 0.939 . S
C144 C143 1.397 . S
C144 C145 1.378 . S
C145 C144 1.378 . S
C145 C146 1.378 1_556 S
C146 H131 0.940 . S
C146 C145 1.378 1_554 S
C146 C147 1.396 . S
C147 H132 0.940 . S
C147 C142 1.391 . S
C147 C146 1.396 . S
C148 P128 1.803 . S
C148 C149 1.378 . S
C148 C153 1.400 . S
C149 H133 0.939 . S
C149 C148 1.378 . S
C149 C150 1.361 . S
C150 H134 0.942 . S
C150 C149 1.361 . S
C150 C151 1.369 . S
C151 C150 1.369 . S
C151 C152 1.404 . S
C152 H135 0.940 . S
C152 C151 1.404 . S
C152 C153 1.389 . S
C153 H136 0.939 . S
C153 C148 1.400 . S
C153 C152 1.389 . S
C154 P128 1.819 . S
C154 C155 1.391 . S
C154 C159 1.391 . S
C155 H137 0.941 . S
C155 C154 1.391 . S
C155 C156 1.396 . S
C156 H140 0.939 . S
C156 C155 1.396 . S
C156 C157 1.397 . S
C157 C156 1.397 . S
C157 C158 1.385 . S
C158 H141 0.940 . S
C158 C157 1.385 . S
C158 C159 1.388 . S
C159 H138 0.939 . S
C159 C154 1.391 . S
C159 C158 1.388 . S
P160 O171 1.490 . S
P160 C174 1.812 . S
P160 C180 1.803 . S
P160 C186 1.819 . S
H161 C175 0.941 . S
H162 C176 0.939 . S
H163 C178 0.940 . S
H164 C179 0.927 1_655 S
H165 C181 0.939 . S
H166 C182 0.942 . S
H167 C184 0.940 . S
H168 C185 0.935 1_655 S
H169 C187 0.941 . S
H170 C191 0.943 . S
O171 P160 1.490 . S
H172 C188 0.939 . S
H173 C190 0.940 . S
C174 P160 1.812 . S
C174 C175 1.389 . S
C174 C179 1.412 . S
C175 H161 0.941 . S
C175 C174 1.389 . S
C175 C176 1.397 1_554 S
C176 H162 0.939 . S
C176 C175 1.397 1_556 S
C176 C177 1.378 . S
C177 C176 1.378 . S
C177 C178 1.378 1_456 S
C178 H163 0.940 . S
C178 C177 1.378 1_654 S
C178 C179 1.389 1_655 S
C179 H164 0.927 1_455 S
C179 C174 1.412 . S
C179 C178 1.389 1_455 S
C180 P160 1.803 . S
C180 C181 1.378 . S
C180 C185 1.406 . S
C181 H165 0.939 . S
C181 C180 1.378 . S
C181 C182 1.361 . S
C182 H166 0.942 . S
C182 C181 1.361 . S
C182 C183 1.369 . S
C183 C182 1.369 . S
C183 C184 1.404 1_455 S
C184 H167 0.940 . S
C184 C183 1.404 1_655 S
C184 C185 1.387 1_655 S
C185 H168 0.935 1_455 S
C185 C180 1.406 . S
C185 C184 1.387 1_455 S
C186 P160 1.819 . S
C186 C187 1.391 . S
C186 C191 1.391 . S
C187 H169 0.941 . S
C187 C186 1.391 . S
C187 C188 1.396 . S
C188 H172 0.939 . S
C188 C187 1.396 . S
C188 C189 1.397 . S
C189 C188 1.397 . S
C189 C190 1.385 1_455 S
C190 H173 0.940 . S
C190 C189 1.385 1_655 S
C190 C191 1.388 1_655 S
C191 H170 0.943 . S
C191 C186 1.391 . S
C191 C190 1.388 1_455 S
P192 O203 1.490 . S
P192 C206 1.812 . S
P192 C212 1.803 . S
P192 C218 1.819 . S
H193 C207 0.941 . S
H194 C208 0.939 . S
H195 C210 0.940 . S
H196 C211 0.946 . S
H197 C213 0.939 . S
H198 C214 0.942 . S
H199 C216 0.940 . S
H200 C217 0.951 . S
H201 C219 0.941 . S
H202 C223 0.932 1_565 S
O203 P192 1.490 . S
H204 C220 0.939 . S
H205 C222 0.940 . S
C206 P192 1.812 . S
C206 C207 1.389 . S
C206 C211 1.384 1_545 S
C207 H193 0.941 . S
C207 C206 1.389 . S
C207 C208 1.397 1_554 S
C208 H194 0.939 . S
C208 C207 1.397 1_556 S
C208 C209 1.378 . S
C209 C208 1.378 . S
C209 C210 1.378 1_546 S
C210 H195 0.940 . S
C210 C209 1.378 1_564 S
C210 C211 1.398 . S
C211 H196 0.946 . S
C211 C206 1.384 1_565 S
C211 C210 1.398 . S
C212 P192 1.803 . S
C212 C213 1.378 . S
C212 C217 1.379 1_545 S
C213 H197 0.939 . S
C213 C212 1.378 . S
C213 C214 1.361 . S
C214 H198 0.942 . S
C214 C213 1.361 . S
C214 C215 1.369 . S
C215 C214 1.369 . S
C215 C216 1.404 1_545 S
C216 H199 0.940 . S
C216 C215 1.404 1_565 S
C216 C217 1.399 . S
C217 H200 0.951 . S
C217 C212 1.379 1_565 S
C217 C216 1.399 . S
C218 P192 1.819 . S
C218 C219 1.391 . S
C218 C223 1.391 . S
C219 H201 0.941 . S
C219 C218 1.391 . S
C219 C220 1.396 . S
C220 H204 0.939 . S
C220 C219 1.396 . S
C220 C221 1.397 . S
C221 C220 1.397 . S
C221 C222 1.385 1_545 S
C222 H205 0.940 . S
C222 C221 1.385 1_565 S
C222 C223 1.388 1_565 S
C223 H202 0.932 1_545 S
C223 C218 1.391 . S
C223 C222 1.388 1_545 S
P224 O235 1.490 . S
P224 C238 1.812 . S
P224 C244 1.803 . S
P224 C250 1.819 . S
H225 C239 0.941 . S
H226 C240 0.939 . S
H227 C242 0.940 . S
H228 C243 0.940 . S
H229 C245 0.939 . S
H230 C246 0.942 . S
H231 C248 0.940 . S
H232 C249 0.939 . S
H233 C251 0.941 . S
H234 C255 0.939 . S
O235 P224 1.490 . S
H236 C252 0.939 . S
H237 C254 0.940 . S
C238 P224 1.812 . S
C238 C239 1.389 . S
C238 C243 1.391 . S
C239 H225 0.941 . S
C239 C238 1.389 . S
C239 C240 1.397 . S
C240 H226 0.939 . S
C240 C239 1.397 . S
C240 C241 1.378 . S
C241 C240 1.378 . S
C241 C242 1.378 . S
C242 H227 0.940 . S
C242 C241 1.378 . S
C242 C243 1.396 . S
C243 H228 0.940 . S
C243 C238 1.391 . S
C243 C242 1.396 . S
C244 P224 1.803 . S
C244 C245 1.378 . S
C244 C249 1.400 . S
C245 H229 0.939 . S
C245 C244 1.378 . S
C245 C246 1.361 . S
C246 H230 0.942 . S
C246 C245 1.361 . S
C246 C247 1.369 . S
C247 C246 1.369 . S
C247 C248 1.404 . S
C248 H231 0.940 . S
C248 C247 1.404 . S
C248 C249 1.389 . S
C249 H232 0.939 . S
C249 C244 1.400 . S
C249 C248 1.389 . S
C250 P224 1.819 . S
C250 C251 1.391 . S
C250 C255 1.391 . S
C251 H233 0.941 . S
C251 C250 1.391 . S
C251 C252 1.396 . S
C252 H236 0.939 . S
C252 C251 1.396 . S
C252 C253 1.397 . S
C253 C252 1.397 . S
C253 C254 1.385 . S
C254 H237 0.940 . S
C254 C253 1.385 . S
C254 C255 1.388 . S
C255 H234 0.939 . S
C255 C250 1.391 . S
C255 C254 1.388 . S
Tb256 C265 2.764 . S
Tb256 O266 2.325 . S
Tb256 O269 2.303 1_655 S
Tb256 O273 2.322 1_545 S
Tb256 O274 2.349 . S
Tb256 O277 2.415 . S
Tb256 O278 2.399 . S
Tb257 O267 2.322 1_565 S
Tb257 O268 2.349 . S
Tb257 O270 2.415 . S
Tb257 O271 2.399 . S
Tb257 O272 2.325 . S
Tb257 O275 2.303 1_455 S
Tb257 C286 2.764 . S
C258 O274 1.286 . S
C258 O275 1.250 1_545 S
C259 C262 1.358 . S
C259 C263 1.332 . S
C259 C265 1.504 . S
C260 C261 1.373 . S
C260 C264 1.308 . S
C261 C260 1.373 . S
C261 C262 1.429 . S
C261 H288 0.932 . S
C262 C259 1.358 . S
C262 C261 1.429 . S
C262 H289 0.930 . S
C263 C259 1.332 . S
C263 C264 1.394 . S
C263 H290 0.932 1_655 S
C264 C260 1.308 . S
C264 C263 1.394 . S
C264 H291 0.929 . S
C265 Tb256 2.764 . S
C265 C259 1.504 . S
C265 O277 1.239 . S
C265 O278 1.263 . S
O266 Tb256 2.325 . S
O266 C276 1.236 1_655 S
O267 Tb257 2.322 1_545 S
O267 C276 1.257 . S
O268 Tb257 2.349 . S
O268 C279 1.280 . S
O269 Tb256 2.303 1_455 S
O269 C279 1.252 1_545 S
O270 Tb257 2.415 . S
O270 C286 1.239 . S
O271 Tb257 2.399 . S
O271 C286 1.263 . S
O272 Tb257 2.325 . S
O272 C287 1.236 1_455 S
O273 Tb256 2.322 1_565 S
O273 C287 1.257 . S
O274 Tb256 2.349 . S
O274 C258 1.286 . S
O275 Tb257 2.303 1_655 S
O275 C258 1.250 1_565 S
C276 O266 1.236 1_455 S
C276 O267 1.257 . S
O277 Tb256 2.415 . S
O277 C265 1.239 . S
O278 Tb256 2.399 . S
O278 C265 1.263 . S
C279 O268 1.280 . S
C279 O269 1.252 1_565 S
C280 C283 1.358 . S
C280 C284 1.332 1_556 S
C280 C286 1.504 . S
C281 C282 1.373 . S
C281 C285 1.308 . S
C282 C281 1.373 . S
C282 C283 1.429 1_554 S
C282 H292 0.932 . S
C283 C280 1.358 . S
C283 C282 1.429 1_556 S
C283 H293 0.930 . S
C284 C280 1.332 1_554 S
C284 C285 1.394 . S
C284 H294 0.932 1_454 S
C285 C281 1.308 . S
C285 C284 1.394 . S
C285 H295 0.929 . S
C286 Tb257 2.764 . S
C286 O270 1.239 . S
C286 O271 1.263 . S
C286 C280 1.504 . S
C287 O272 1.236 1_655 S
C287 O273 1.257 . S
H288 C261 0.932 . S
H289 C262 0.930 . S
H290 C263 0.932 1_455 S
H291 C264 0.929 . S
H292 C282 0.932 . S
H293 C283 0.930 . S
H294 C284 0.932 1_656 S
H295 C285 0.929 . S
Tb296 C305 2.764 . S
Tb296 O306 2.325 . S
Tb296 O309 2.303 1_565 S
Tb296 O313 2.322 . S
Tb296 O314 2.349 . S
Tb296 O317 2.415 1_565 S
Tb296 O318 2.399 . S
Tb297 O307 2.322 . S
Tb297 O308 2.349 . S
Tb297 O310 2.415 1_545 S
Tb297 O311 2.399 . S
Tb297 O312 2.325 . S
Tb297 O315 2.303 1_545 S
Tb297 C326 2.764 . S
C298 O314 1.261 . S
C298 O315 1.257 . S
C299 C302 1.358 . S
C299 C303 1.332 1_565 S
C299 C305 1.504 . S
C300 C301 1.373 . S
C300 C304 1.326 . S
C301 C300 1.373 . S
C301 C302 1.429 . S
C301 H328 0.932 . S
C302 C299 1.358 . S
C302 C301 1.429 . S
C302 H329 0.930 . S
C303 C299 1.332 1_545 S
C303 C304 1.395 1_545 S
C303 H330 0.932 . S
C304 C300 1.326 . S
C304 C303 1.395 1_565 S
C304 H331 0.910 1_565 S
C305 Tb296 2.764 . S
C305 C299 1.504 . S
C305 O317 1.239 1_565 S
C305 O318 1.263 . S
O306 Tb296 2.325 . S
O306 C316 1.236 1_565 S
O307 Tb297 2.322 . S
O307 C316 1.257 . S
O308 Tb297 2.349 . S
O308 C319 1.261 . S
O309 Tb296 2.303 1_545 S
O309 C319 1.257 . S
O310 Tb297 2.415 1_565 S
O310 C326 1.239 1_565 S
O311 Tb297 2.399 . S
O311 C326 1.263 . S
O312 Tb297 2.325 . S
O312 C327 1.236 1_545 S
O313 Tb296 2.322 . S
O313 C327 1.257 . S
O314 Tb296 2.349 . S
O314 C298 1.261 . S
O315 Tb297 2.303 1_565 S
O315 C298 1.257 . S
C316 O306 1.236 1_545 S
C316 O307 1.257 . S
O317 Tb296 2.415 1_545 S
O317 C305 1.239 1_545 S
O318 Tb296 2.399 . S
O318 C305 1.263 . S
C319 O308 1.261 . S
C319 O309 1.257 . S
C320 C323 1.358 . S
C320 C324 1.299 1_545 S
C320 C326 1.504 1_554 S
C321 C322 1.373 . S
C321 C325 1.334 . S
C322 C321 1.373 . S
C322 C323 1.429 . S
C322 H332 0.932 . S
C323 C320 1.358 . S
C323 C322 1.429 . S
C323 H333 0.930 . S
C324 C320 1.299 1_565 S
C324 C325 1.398 1_565 S
C324 H334 0.965 1_554 S
C325 C321 1.334 . S
C325 C324 1.398 1_545 S
C325 H335 0.902 1_545 S
C326 Tb297 2.764 . S
C326 O310 1.239 1_545 S
C326 O311 1.263 . S
C326 C320 1.504 1_556 S
C327 O312 1.236 1_565 S
C327 O313 1.257 . S
H328 C301 0.932 . S
H329 C302 0.930 . S
H330 C303 0.932 . S
H331 C304 0.910 1_545 S
H332 C322 0.932 . S
H333 C323 0.930 . S
H334 C324 0.965 1_556 S
H335 C325 0.902 1_565 S
Tb336 C345 2.764 . S
Tb336 O346 2.325 . S
Tb336 O349 2.303 . S
Tb336 O353 2.322 . S
Tb336 O354 2.349 . S
Tb336 O357 2.415 . S
Tb336 O358 2.399 . S
Tb337 O347 2.322 . S
Tb337 O348 2.349 . S
Tb337 O350 2.415 . S
Tb337 O351 2.399 . S
Tb337 O352 2.325 . S
Tb337 O355 2.303 . S
Tb337 C366 2.764 . S
C338 O354 1.261 . S
C338 O355 1.257 . S
C339 C342 1.358 . S
C339 C343 1.332 . S
C339 C345 1.504 1_554 S
C340 C341 1.373 . S
C340 C344 1.308 . S
C341 C340 1.373 . S
C341 C342 1.429 . S
C341 H368 0.932 . S
C342 C339 1.358 . S
C342 C341 1.429 . S
C342 H369 0.930 . S
C343 C339 1.332 . S
C343 C344 1.394 . S
C343 H370 0.932 . S
C344 C340 1.308 . S
C344 C343 1.394 . S
C344 H371 0.929 . S
C345 Tb336 2.764 . S
C345 C339 1.504 1_556 S
C345 O357 1.239 . S
C345 O358 1.263 . S
O346 Tb336 2.325 . S
O346 C356 1.236 . S
O347 Tb337 2.322 . S
O347 C356 1.257 . S
O348 Tb337 2.349 . S
O348 C359 1.261 . S
O349 Tb336 2.303 . S
O349 C359 1.257 . S
O350 Tb337 2.415 . S
O350 C366 1.239 . S
O351 Tb337 2.399 . S
O351 C366 1.263 . S
O352 Tb337 2.325 . S
O352 C367 1.236 . S
O353 Tb336 2.322 . S
O353 C367 1.257 . S
O354 Tb336 2.349 . S
O354 C338 1.261 . S
O355 Tb337 2.303 . S
O355 C338 1.257 . S
C356 O346 1.236 . S
C356 O347 1.257 . S
O357 Tb336 2.415 . S
O357 C345 1.239 . S
O358 Tb336 2.399 . S
O358 C345 1.263 . S
C359 O348 1.261 . S
C359 O349 1.257 . S
C360 C363 1.358 . S
C360 C364 1.332 . S
C360 C366 1.504 . S
C361 C362 1.373 . S
C361 C365 1.308 . S
C362 C361 1.373 . S
C362 C363 1.429 . S
C362 H372 0.932 . S
C363 C360 1.358 . S
C363 C362 1.429 . S
C363 H373 0.930 . S
C364 C360 1.332 . S
C364 C365 1.394 . S
C364 H374 0.932 . S
C365 C361 1.308 . S
C365 C364 1.394 . S
C365 H375 0.929 . S
C366 Tb337 2.764 . S
C366 O350 1.239 . S
C366 O351 1.263 . S
C366 C360 1.504 . S
C367 O352 1.236 . S
C367 O353 1.257 . S
H368 C341 0.932 . S
H369 C342 0.930 . S
H370 C343 0.932 . S
H371 C344 0.929 . S
H372 C362 0.932 . S
H373 C363 0.930 . S
H374 C364 0.932 . S
H375 C365 0.929 . S
Tb376 C385 2.764 . S
Tb376 O386 2.325 . S
Tb376 O389 2.303 . S
Tb376 O393 2.322 1_455 S
Tb376 O394 2.349 . S
Tb376 O397 2.415 . S
Tb376 O398 2.399 . S
Tb377 O387 2.322 1_655 S
Tb377 O388 2.349 . S
Tb377 O390 2.415 . S
Tb377 O391 2.399 . S
Tb377 O392 2.325 . S
Tb377 O395 2.303 . S
Tb377 C406 2.764 . S
C378 O394 1.261 . S
C378 O395 1.257 1_455 S
C379 C382 1.358 . S
C379 C383 1.332 . S
C379 C385 1.504 . S
C380 C381 1.373 . S
C380 C384 1.308 . S
C381 C380 1.373 . S
C381 C382 1.429 . S
C381 H408 0.932 . S
C382 C379 1.358 . S
C382 C381 1.429 . S
C382 H409 0.930 . S
C383 C379 1.332 . S
C383 C384 1.394 . S
C383 H410 0.932 . S
C384 C380 1.308 . S
C384 C383 1.394 . S
C384 H411 0.929 . S
C385 Tb376 2.764 . S
C385 C379 1.504 . S
C385 O397 1.239 . S
C385 O398 1.263 . S
O386 Tb376 2.325 . S
O386 C396 1.236 . S
O387 Tb377 2.322 1_455 S
O387 C396 1.257 . S
O388 Tb377 2.349 . S
O388 C399 1.261 . S
O389 Tb376 2.303 . S
O389 C399 1.257 1_455 S
O390 Tb377 2.415 . S
O390 C406 1.239 . S
O391 Tb377 2.399 . S
O391 C406 1.263 . S
O392 Tb377 2.325 . S
O392 C407 1.236 . S
O393 Tb376 2.322 1_655 S
O393 C407 1.257 . S
O394 Tb376 2.349 . S
O394 C378 1.261 . S
O395 Tb377 2.303 . S
O395 C378 1.257 1_655 S
C396 O386 1.236 . S
C396 O387 1.257 . S
O397 Tb376 2.415 . S
O397 C385 1.239 . S
O398 Tb376 2.399 . S
O398 C385 1.263 . S
C399 O388 1.261 . S
C399 O389 1.257 1_655 S
C400 C403 1.358 . S
C400 C404 1.332 . S
C400 C406 1.504 1_554 S
C401 C402 1.373 . S
C401 C405 1.308 . S
C402 C401 1.373 . S
C402 C403 1.429 . S
C402 H412 0.932 . S
C403 C400 1.358 . S
C403 C402 1.429 . S
C403 H413 0.930 1_554 S
C404 C400 1.332 . S
C404 C405 1.394 . S
C404 H414 0.932 . S
C405 C401 1.308 . S
C405 C404 1.394 . S
C405 H415 0.929 . S
C406 Tb377 2.764 . S
C406 O390 1.239 . S
C406 O391 1.263 . S
C406 C400 1.504 1_556 S
C407 O392 1.236 . S
C407 O393 1.257 . S
H408 C381 0.932 . S
H409 C382 0.930 . S
H410 C383 0.932 . S
H411 C384 0.929 . S
H412 C402 0.932 . S
H413 C403 0.930 1_556 S
H414 C404 0.932 . S
H415 C405 0.929 . S
H416 C422 0.930 . S
H417 C425 0.930 . S
H418 C426 0.930 . S
H419 C427 0.930 . S
H420 C430 0.930 . S
H421 C431 0.930 . S
C422 H416 0.930 . S
C422 C423 1.347 1_565 S
C422 C424 1.415 . S
C423 C422 1.347 1_545 S
C423 C425 1.425 . S
C424 C422 1.415 . S
C424 C429 1.425 1_565 S
C424 C431 1.409 . S
C425 H417 0.930 . S
C425 C423 1.425 . S
C425 C426 1.362 . S
C426 H418 0.930 . S
C426 C425 1.362 . S
C426 C429 1.409 . S
C427 H419 0.930 . S
C427 C428 1.355 . S
C427 C429 1.415 . S
C428 C427 1.355 . S
C428 C430 1.419 1_545 S
C429 C424 1.425 1_545 S
C429 C426 1.409 . S
C429 C427 1.415 . S
C430 H420 0.930 . S
C430 C428 1.419 1_565 S
C430 C431 1.362 . S
C431 H421 0.930 . S
C431 C424 1.409 . S
C431 C430 1.362 . S
H432 C438 0.930 . S
H433 C441 0.930 . S
H434 C442 0.930 . S
H435 C443 0.930 . S
H436 C446 0.930 . S
H437 C447 0.930 . S
C438 H432 0.930 . S
C438 C439 1.355 . S
C438 C440 1.415 . S
C439 C438 1.355 . S
C439 C441 1.419 . S
C440 C438 1.415 . S
C440 C445 1.425 . S
C440 C447 1.409 . S
C441 H433 0.930 . S
C441 C439 1.419 . S
C441 C442 1.362 . S
C442 H434 0.930 . S
C442 C441 1.362 . S
C442 C445 1.409 . S
C443 H435 0.930 . S
C443 C444 1.355 . S
C443 C445 1.415 . S
C444 C443 1.355 . S
C444 C446 1.419 . S
C445 C440 1.425 . S
C445 C442 1.409 . S
C445 C443 1.415 . S
C446 H436 0.930 . S
C446 C444 1.419 . S
C446 C447 1.362 . S
C447 H437 0.930 . S
C447 C440 1.409 . S
C447 C446 1.362 . S
H448 C454 0.930 . S
H449 C457 0.930 . S
H450 C458 0.930 . S
H451 C459 0.930 . S
H452 C462 0.930 . S
H453 C463 0.930 . S
C454 H448 0.930 . S
C454 C455 1.355 . S
C454 C456 1.415 . S
C455 C454 1.355 . S
C455 C457 1.419 . S
C456 C454 1.415 . S
C456 C461 1.425 . S
C456 C463 1.409 . S
C457 H449 0.930 . S
C457 C455 1.419 . S
C457 C458 1.362 . S
C458 H450 0.930 . S
C458 C457 1.362 . S
C458 C461 1.409 . S
C459 H451 0.930 . S
C459 C460 1.355 . S
C459 C461 1.415 . S
C460 C459 1.355 . S
C460 C462 1.419 . S
C461 C456 1.425 . S
C461 C458 1.409 . S
C461 C459 1.415 . S
C462 H452 0.930 . S
C462 C460 1.419 . S
C462 C463 1.362 . S
C463 H453 0.930 . S
C463 C456 1.409 . S
C463 C462 1.362 . S
H464 C470 0.930 . S
H465 C473 0.930 . S
H466 C474 0.930 . S
H467 C475 0.930 . S
H468 C478 0.930 . S
H469 C479 0.930 . S
C470 H464 0.930 . S
C470 C471 1.355 1_455 S
C470 C472 1.415 . S
C471 C470 1.355 1_655 S
C471 C473 1.419 . S
C472 C470 1.415 . S
C472 C477 1.425 1_455 S
C472 C479 1.409 . S
C473 H465 0.930 . S
C473 C471 1.419 . S
C473 C474 1.362 . S
C474 H466 0.930 . S
C474 C473 1.362 . S
C474 C477 1.409 . S
C475 H467 0.930 . S
C475 C476 1.355 1_655 S
C475 C477 1.415 . S
C476 C475 1.355 1_455 S
C476 C478 1.419 . S
C477 C472 1.425 1_655 S
C477 C474 1.409 . S
C477 C475 1.415 . S
C478 H468 0.930 . S
C478 C476 1.419 . S
C478 C479 1.362 . S
C479 H469 0.930 . S
C479 C472 1.409 . S
C479 C478 1.362 . S
H480 C486 0.930 . S
H481 C489 0.930 . S
H482 C490 0.930 . S
H483 C491 0.930 . S
H484 C494 0.930 1_556 S
H485 C495 0.930 . S
C486 H480 0.930 . S
C486 C487 1.355 1_545 S
C486 C488 1.415 . S
C487 C486 1.355 1_565 S
C487 C489 1.419 . S
C488 C486 1.415 . S
C488 C493 1.425 1_545 S
C488 C495 1.409 . S
C489 H481 0.930 . S
C489 C487 1.419 . S
C489 C490 1.362 . S
C490 H482 0.930 . S
C490 C489 1.362 . S
C490 C493 1.409 . S
C491 H483 0.930 . S
C491 C492 1.359 . S
C491 C493 1.415 . S
C492 C491 1.359 . S
C492 C494 1.419 1_565 S
C493 C488 1.425 1_565 S
C493 C490 1.409 . S
C493 C491 1.415 . S
C494 H484 0.930 1_554 S
C494 C492 1.419 1_545 S
C494 C495 1.362 . S
C495 H485 0.930 . S
C495 C488 1.409 . S
C495 C494 1.362 . S
H496 C502 0.930 . S
H497 C505 0.930 . S
H498 C506 0.930 . S
H499 C507 0.930 . S
H500 C510 0.930 . S
H501 C511 0.930 . S
C502 H496 0.930 . S
C502 C503 1.355 . S
C502 C504 1.415 . S
C503 C502 1.355 . S
C503 C505 1.419 . S
C504 C502 1.415 . S
C504 C509 1.425 . S
C504 C511 1.409 . S
C505 H497 0.930 . S
C505 C503 1.419 . S
C505 C506 1.362 . S
C506 H498 0.930 . S
C506 C505 1.362 . S
C506 C509 1.409 . S
C507 H499 0.930 . S
C507 C508 1.355 . S
C507 C509 1.415 . S
C508 C507 1.355 . S
C508 C510 1.419 . S
C509 C504 1.425 . S
C509 C506 1.409 . S
C509 C507 1.415 . S
C510 H500 0.930 . S
C510 C508 1.419 . S
C510 C511 1.362 . S
C511 H501 0.930 . S
C511 C504 1.409 . S
C511 C510 1.362 . S
H512 C518 0.930 . S
H513 C521 0.930 . S
H514 C522 0.930 . S
H515 C523 0.930 . S
H516 C526 0.930 . S
H517 C527 0.930 . S
C518 H512 0.930 . S
C518 C519 1.355 . S
C518 C520 1.415 . S
C519 C518 1.355 . S
C519 C521 1.419 . S
C520 C518 1.415 . S
C520 C525 1.425 . S
C520 C527 1.409 . S
C521 H513 0.930 . S
C521 C519 1.419 . S
C521 C522 1.362 . S
C522 H514 0.930 . S
C522 C521 1.362 . S
C522 C525 1.409 . S
C523 H515 0.930 . S
C523 C524 1.355 . S
C523 C525 1.415 . S
C524 C523 1.355 . S
C524 C526 1.419 . S
C525 C520 1.425 . S
C525 C522 1.409 . S
C525 C523 1.415 . S
C526 H516 0.930 . S
C526 C524 1.419 . S
C526 C527 1.362 . S
C527 H517 0.930 . S
C527 C520 1.409 . S
C527 C526 1.362 . S
H528 C534 0.930 . S
H529 C537 0.930 . S
H530 C538 0.930 . S
H531 C539 0.930 . S
H532 C542 0.930 . S
H533 C543 0.930 . S
C534 H528 0.930 . S
C534 C535 1.355 1_455 S
C534 C536 1.415 . S
C535 C534 1.355 1_655 S
C535 C537 1.419 . S
C536 C534 1.415 . S
C536 C541 1.425 1_455 S
C536 C543 1.409 . S
C537 H529 0.930 . S
C537 C535 1.419 . S
C537 C538 1.362 . S
C538 H530 0.930 . S
C538 C537 1.362 . S
C538 C541 1.409 . S
C539 H531 0.930 . S
C539 C540 1.355 1_654 S
C539 C541 1.415 . S
C540 C539 1.355 1_456 S
C540 C542 1.419 . S
C541 C536 1.425 1_655 S
C541 C538 1.409 . S
C541 C539 1.415 . S
C542 H532 0.930 . S
C542 C540 1.419 . S
C542 C543 1.362 1_556 S
C543 H533 0.930 . S
C543 C536 1.409 . S
C543 C542 1.362 1_554 S
H544 C550 0.930 . S
H545 C553 0.930 . S
H546 C554 0.930 . S
H547 C555 0.930 . S
H548 C558 0.930 . S
H549 C559 0.930 . S
C550 H544 0.930 . S
C550 C551 1.355 1_655 S
C550 C552 1.415 . S
C551 C550 1.355 1_455 S
C551 C553 1.419 . S
C552 C550 1.415 . S
C552 C557 1.425 . S
C552 C559 1.409 . S
C553 H545 0.930 . S
C553 C551 1.419 . S
C553 C554 1.362 . S
C554 H546 0.930 . S
C554 C553 1.362 . S
C554 C557 1.409 1_455 S
C555 H547 0.930 . S
C555 C556 1.355 . S
C555 C557 1.415 . S
C556 C555 1.355 . S
C556 C558 1.419 . S
C557 C552 1.425 . S
C557 C554 1.409 1_655 S
C557 C555 1.415 . S
C558 H548 0.930 . S
C558 C556 1.419 . S
C558 C559 1.362 . S
C559 H549 0.930 . S
C559 C552 1.409 . S
C559 C558 1.362 . S
H560 C566 0.930 . S
H561 C569 0.930 . S
H562 C570 0.930 . S
H563 C571 0.930 . S
H564 C574 0.930 . S
H565 C575 0.930 1_545 S
C566 H560 0.930 . S
C566 C567 1.355 . S
C566 C568 1.415 1_545 S
C567 C566 1.355 . S
C567 C569 1.419 1_545 S
C568 C566 1.415 1_565 S
C568 C573 1.425 . S
C568 C575 1.409 . S
C569 H561 0.930 . S
C569 C567 1.419 1_565 S
C569 C570 1.362 . S
C570 H562 0.930 . S
C570 C569 1.362 . S
C570 C573 1.409 . S
C571 H563 0.930 . S
C571 C572 1.355 . S
C571 C573 1.415 . S
C572 C571 1.355 . S
C572 C574 1.419 . S
C573 C568 1.425 . S
C573 C570 1.409 . S
C573 C571 1.415 . S
C574 H564 0.930 . S
C574 C572 1.419 . S
C574 C575 1.362 . S
C575 H565 0.930 1_565 S
C575 C568 1.409 . S
C575 C574 1.362 . S
H576 C582 0.930 . S
H577 C585 0.930 . S
H578 C586 0.930 . S
H579 C587 0.930 . S
H580 C590 0.930 . S
H581 C591 0.930 . S
C582 H576 0.930 . S
C582 C583 1.355 . S
C582 C584 1.415 . S
C583 C582 1.355 . S
C583 C585 1.419 . S
C584 C582 1.415 . S
C584 C589 1.425 . S
C584 C591 1.409 . S
C585 H577 0.930 . S
C585 C583 1.419 . S
C585 C586 1.362 . S
C586 H578 0.930 . S
C586 C585 1.362 . S
C586 C589 1.409 . S
C587 H579 0.930 . S
C587 C588 1.355 . S
C587 C589 1.415 . S
C588 C587 1.355 . S
C588 C590 1.419 . S
C589 C584 1.425 . S
C589 C586 1.409 . S
C589 C587 1.415 . S
C590 H580 0.930 . S
C590 C588 1.419 . S
C590 C591 1.362 . S
C591 H581 0.930 . S
C591 C584 1.409 . S
C591 C590 1.362 . S
H592 C598 0.930 . S
H593 C601 0.930 . S
H594 C602 0.930 . S
H595 C603 0.930 . S
H596 C606 0.930 . S
H597 C607 0.930 . S
C598 H592 0.930 . S
C598 C599 1.355 . S
C598 C600 1.415 . S
C599 C598 1.355 . S
C599 C601 1.419 . S
C600 C598 1.415 . S
C600 C605 1.425 . S
C600 C607 1.409 . S
C601 H593 0.930 . S
C601 C599 1.419 . S
C601 C602 1.362 . S
C602 H594 0.930 . S
C602 C601 1.362 . S
C602 C605 1.409 . S
C603 H595 0.930 . S
C603 C604 1.355 . S
C603 C605 1.415 . S
C604 C603 1.355 . S
C604 C606 1.419 . S
C605 C600 1.425 . S
C605 C602 1.409 . S
C605 C603 1.415 . S
C606 H596 0.930 . S
C606 C604 1.419 . S
C606 C607 1.362 . S
C607 H597 0.930 . S
C607 C600 1.409 . S
C607 C606 1.362 . S
H608 C614 0.930 1_655 S
H609 C617 0.930 . S
H610 C618 0.930 . S
H611 C619 0.930 . S
H612 C622 0.930 . S
H613 C623 0.930 . S
C614 H608 0.930 1_455 S
C614 C615 1.355 . S
C614 C616 1.415 . S
C615 C614 1.355 . S
C615 C617 1.419 . S
C616 C614 1.415 . S
C616 C621 1.425 . S
C616 C623 1.409 . S
C617 H609 0.930 . S
C617 C615 1.419 . S
C617 C618 1.362 . S
C618 H610 0.930 . S
C618 C617 1.362 . S
C618 C621 1.409 . S
C619 H611 0.930 . S
C619 C620 1.355 . S
C619 C621 1.415 . S
C620 C619 1.355 . S
C620 C622 1.419 . S
C621 C616 1.425 . S
C621 C618 1.409 . S
C621 C619 1.415 . S
C622 H612 0.930 . S
C622 C620 1.419 . S
C622 C623 1.362 . S
C623 H613 0.930 . S
C623 C616 1.409 . S
C623 C622 1.362 . S
H624 C630 0.930 . S
H625 C633 0.930 . S
H626 C634 0.930 . S
H627 C635 0.930 . S
H628 C638 0.930 . S
H629 C639 0.930 . S
C630 H624 0.930 . S
C630 C631 1.355 . S
C630 C632 1.415 . S
C631 C630 1.355 . S
C631 C633 1.419 1_565 S
C632 C630 1.415 . S
C632 C637 1.425 1_565 S
C632 C639 1.409 . S
C633 H625 0.930 . S
C633 C631 1.419 1_545 S
C633 C634 1.362 . S
C634 H626 0.930 . S
C634 C633 1.362 . S
C634 C637 1.409 . S
C635 H627 0.930 . S
C635 C636 1.355 . S
C635 C637 1.415 . S
C636 C635 1.355 . S
C636 C638 1.419 1_545 S
C637 C632 1.425 1_545 S
C637 C634 1.409 . S
C637 C635 1.415 . S
C638 H628 0.930 . S
C638 C636 1.419 1_565 S
C638 C639 1.362 . S
C639 H629 0.930 . S
C639 C632 1.409 . S
C639 C638 1.362 . S
H640 C646 0.930 . S
H641 C649 0.930 . S
H642 C650 0.930 . S
H643 C651 0.930 . S
H644 C654 0.930 . S
H645 C655 0.930 . S
C646 H640 0.930 . S
C646 C647 1.355 . S
C646 C648 1.415 . S
C647 C646 1.355 . S
C647 C649 1.419 . S
C648 C646 1.415 . S
C648 C653 1.425 . S
C648 C655 1.409 . S
C649 H641 0.930 . S
C649 C647 1.419 . S
C649 C650 1.362 . S
C650 H642 0.930 . S
C650 C649 1.362 . S
C650 C653 1.409 . S
C651 H643 0.930 . S
C651 C652 1.355 . S
C651 C653 1.415 . S
C652 C651 1.355 . S
C652 C654 1.419 . S
C653 C648 1.425 . S
C653 C650 1.409 . S
C653 C651 1.415 . S
C654 H644 0.930 . S
C654 C652 1.419 . S
C654 C655 1.362 . S
C655 H645 0.930 . S
C655 C648 1.409 . S
C655 C654 1.362 . S
H656 C662 0.930 . S
H657 C665 0.930 . S
H658 C666 0.930 . S
H659 C667 0.930 . S
H660 C670 0.930 . S
H661 C671 0.930 . S
C662 H656 0.930 . S
C662 C663 1.355 . S
C662 C664 1.415 . S
C663 C662 1.355 . S
C663 C665 1.419 . S
C664 C662 1.415 . S
C664 C669 1.425 . S
C664 C671 1.409 . S
C665 H657 0.930 . S
C665 C663 1.419 . S
C665 C666 1.362 . S
C666 H658 0.930 . S
C666 C665 1.362 . S
C666 C669 1.409 . S
C667 H659 0.930 . S
C667 C668 1.355 . S
C667 C669 1.415 . S
C668 C667 1.355 . S
C668 C670 1.419 . S
C669 C664 1.425 . S
C669 C666 1.409 . S
C669 C667 1.415 . S
C670 H660 0.930 . S
C670 C668 1.419 . S
C670 C671 1.362 . S
C671 H661 0.930 . S
C671 C664 1.409 . S
C671 C670 1.362 . S
H672 C678 0.930 . S
H673 C681 0.930 1_554 S
H674 C682 0.930 1_554 S
H675 C683 0.930 . S
H676 C686 0.930 . S
H677 C687 0.930 . S
C678 H672 0.930 . S
C678 C679 1.355 . S
C678 C680 1.415 . S
C679 C678 1.355 . S
C679 C681 1.419 1_455 S
C680 C678 1.415 . S
C680 C685 1.425 1_455 S
C680 C687 1.409 . S
C681 H673 0.930 1_556 S
C681 C679 1.419 1_655 S
C681 C682 1.362 . S
C682 H674 0.930 1_556 S
C682 C681 1.362 . S
C682 C685 1.409 . S
C683 H675 0.930 . S
C683 C684 1.355 1_655 S
C683 C685 1.415 . S
C684 C683 1.355 1_455 S
C684 C686 1.419 . S
C685 C680 1.425 1_655 S
C685 C682 1.409 . S
C685 C683 1.415 . S
C686 H676 0.930 . S
C686 C684 1.419 . S
C686 C687 1.362 . S
C687 H677 0.930 . S
C687 C680 1.409 . S
C687 C686 1.362 . S
H688 C694 0.930 1_554 S
H689 C697 0.930 . S
H690 C698 0.930 . S
H691 C699 0.930 . S
H692 C702 0.930 1_554 S
H693 C703 0.930 . S
C694 H688 0.930 1_556 S
C694 C695 1.355 . S
C694 C696 1.415 . S
C695 C694 1.355 . S
C695 C697 1.419 1_545 S
C696 C694 1.415 . S
C696 C701 1.425 1_545 S
C696 C703 1.409 1_556 S
C697 H689 0.930 . S
C697 C695 1.419 1_565 S
C697 C698 1.362 . S
C698 H690 0.930 . S
C698 C697 1.362 . S
C698 C701 1.409 . S
C699 H691 0.930 . S
C699 C700 1.355 1_565 S
C699 C701 1.415 . S
C700 C699 1.355 1_545 S
C700 C702 1.419 . S
C701 C696 1.425 1_565 S
C701 C698 1.409 . S
C701 C699 1.415 . S
C702 H692 0.930 1_556 S
C702 C700 1.419 . S
C702 C703 1.362 1_556 S
C703 H693 0.930 . S
C703 C696 1.409 1_554 S
C703 C702 1.362 1_554 S
H704 C710 0.930 . S
H705 C713 0.930 . S
H706 C714 0.930 . S
H707 C715 0.930 . S
H708 C718 0.930 . S
H709 C719 0.930 . S
C710 H704 0.930 . S
C710 C711 1.355 . S
C710 C712 1.415 . S
C711 C710 1.355 . S
C711 C713 1.419 . S
C712 C710 1.415 . S
C712 C717 1.425 . S
C712 C719 1.409 . S
C713 H705 0.930 . S
C713 C711 1.419 . S
C713 C714 1.362 . S
C714 H706 0.930 . S
C714 C713 1.362 . S
C714 C717 1.409 . S
C715 H707 0.930 . S
C715 C716 1.355 . S
C715 C717 1.415 . S
C716 C715 1.355 . S
C716 C718 1.419 . S
C717 C712 1.425 . S
C717 C714 1.409 . S
C717 C715 1.415 . S
C718 H708 0.930 . S
C718 C716 1.419 . S
C718 C719 1.362 . S
C719 H709 0.930 . S
C719 C712 1.409 . S
C719 C718 1.362 . S
H720 C726 0.930 . S
H721 C729 0.930 . S
H722 C730 0.930 . S
H723 C731 0.930 . S
H724 C734 0.930 . S
H725 C735 0.930 1_554 S
C726 H720 0.930 . S
C726 C727 1.355 . S
C726 C728 1.415 . S
C727 C726 1.355 . S
C727 C729 1.419 . S
C728 C726 1.415 . S
C728 C733 1.425 . S
C728 C735 1.409 . S
C729 H721 0.930 . S
C729 C727 1.419 . S
C729 C730 1.362 . S
C730 H722 0.930 . S
C730 C729 1.362 . S
C730 C733 1.409 . S
C731 H723 0.930 . S
C731 C732 1.355 . S
C731 C733 1.415 . S
C732 C731 1.355 . S
C732 C734 1.419 . S
C733 C728 1.425 . S
C733 C730 1.409 . S
C733 C731 1.415 . S
C734 H724 0.930 . S
C734 C732 1.419 . S
C734 C735 1.362 . S
C735 H725 0.930 1_556 S
C735 C728 1.409 . S
C735 C734 1.362 . S
H736 C742 0.930 . S
H737 C745 0.930 . S
H738 C746 0.928 1_455 S
H739 C747 0.930 . S
H740 C750 0.930 . S
H741 C751 0.930 . S
C742 H736 0.930 . S
C742 C743 1.355 . S
C742 C744 1.415 . S
C743 C742 1.355 . S
C743 C745 1.419 1_655 S
C744 C742 1.415 . S
C744 C749 1.425 . S
C744 C751 1.409 . S
C745 H737 0.930 . S
C745 C743 1.419 1_455 S
C745 C746 1.361 1_455 S
C746 H738 0.928 1_655 S
C746 C745 1.361 1_655 S
C746 C749 1.413 . S
C747 H739 0.930 . S
C747 C748 1.355 . S
C747 C749 1.415 . S
C748 C747 1.355 . S
C748 C750 1.419 . S
C749 C744 1.425 . S
C749 C746 1.413 . S
C749 C747 1.415 . S
C750 H740 0.930 . S
C750 C748 1.419 . S
C750 C751 1.362 . S
C751 H741 0.930 . S
C751 C744 1.409 . S
C751 C750 1.362 . S
H752 C758 0.930 . S
H753 C761 0.930 . S
H754 C762 0.930 . S
H755 C763 0.930 . S
H756 C766 0.930 . S
H757 C767 0.930 . S
C758 H752 0.930 . S
C758 C759 1.325 1_565 S
C758 C760 1.415 . S
C759 C758 1.325 1_545 S
C759 C761 1.454 . S
C760 C758 1.415 . S
C760 C765 1.425 1_565 S
C760 C767 1.409 . S
C761 H753 0.930 . S
C761 C759 1.454 . S
C761 C762 1.362 . S
C762 H754 0.930 . S
C762 C761 1.362 . S
C762 C765 1.409 . S
C763 H755 0.930 . S
C763 C764 1.355 1_545 S
C763 C765 1.415 . S
C764 C763 1.355 1_565 S
C764 C766 1.419 . S
C765 C760 1.425 1_545 S
C765 C762 1.409 . S
C765 C763 1.415 . S
C766 H756 0.930 . S
C766 C764 1.419 . S
C766 C767 1.362 . S
C767 H757 0.930 . S
C767 C760 1.409 . S
C767 C766 1.362 . S
H768 C774 0.930 . S
H769 C777 0.930 . S
H770 C778 0.930 . S
H771 C779 0.930 . S
H772 C782 0.930 . S
H773 C783 0.930 . S
C774 H768 0.930 . S
C774 C775 1.355 . S
C774 C776 1.415 . S
C775 C774 1.355 . S
C775 C777 1.419 . S
C776 C774 1.415 . S
C776 C781 1.425 . S
C776 C783 1.409 . S
C777 H769 0.930 . S
C777 C775 1.419 . S
C777 C778 1.362 . S
C778 H770 0.930 . S
C778 C777 1.362 . S
C778 C781 1.409 . S
C779 H771 0.930 . S
C779 C780 1.355 . S
C779 C781 1.415 . S
C780 C779 1.355 . S
C780 C782 1.419 . S
C781 C776 1.425 . S
C781 C778 1.409 . S
C781 C779 1.415 . S
C782 H772 0.930 . S
C782 C780 1.419 . S
C782 C783 1.362 . S
C783 H773 0.930 . S
C783 C776 1.409 . S
C783 C782 1.362 . S
H784 C790 0.930 . S
H785 C793 0.930 . S
H786 C794 0.930 . S
H787 C795 0.930 . S
H788 C798 0.930 . S
H789 C799 0.930 . S
C790 H784 0.930 . S
C790 C791 1.355 . S
C790 C792 1.415 . S
C791 C790 1.355 . S
C791 C793 1.419 . S
C792 C790 1.415 . S
C792 C797 1.425 . S
C792 C799 1.409 . S
C793 H785 0.930 . S
C793 C791 1.419 . S
C793 C794 1.362 . S
C794 H786 0.930 . S
C794 C793 1.362 . S
C794 C797 1.409 . S
C795 H787 0.930 . S
C795 C796 1.355 . S
C795 C797 1.415 . S
C796 C795 1.355 . S
C796 C798 1.419 . S
C797 C792 1.425 . S
C797 C794 1.409 . S
C797 C795 1.415 . S
C798 H788 0.930 . S
C798 C796 1.419 . S
C798 C799 1.362 . S
C799 H789 0.930 . S
C799 C792 1.409 . S
C799 C798 1.362 . S
C423 C215 2.237 . S
C428 C279 2.402 1_545 S
C444 C319 1.630 . S
C439 C247 1.640 . S
C460 C338 2.459 . S
C455 C151 2.327 . S
C476 C399 1.764 1_455 S
C471 C183 1.615 1_655 S
C492 C258 2.380 1_564 S
C487 C87 2.234 1_565 S
C503 C119 1.585 . S
C508 C298 1.635 . S
C519 C23 2.173 . S
C524 C359 2.431 1_554 S
C535 C55 1.635 1_655 S
C540 C378 1.736 . S
C556 C260 0.950 . S
C551 C189 0.912 . S
C572 C300 0.371 . S
C567 C221 0.353 . S
C588 C356 1.142 . S
C583 C253 1.049 . S
C599 C157 0.460 . S
C604 C380 0.454 . S
C615 C61 0.878 . S
C620 C281 0.881 . S
C636 C321 0.320 . S
C631 C93 0.423 1_565 S
C652 C367 1.088 . S
C647 C125 0.980 . S
C663 C29 0.747 . S
C668 C401 0.666 . S
C679 C177 2.011 . S
C684 C276 2.289 . S
C695 C209 2.690 . S
C700 C316 2.973 . S
C716 C340 1.861 . S
C711 C241 1.829 . S
C732 C396 2.958 . S
C727 C145 2.704 . S
C743 C49 2.073 1_655 S
C748 C287 2.301 . S
C764 C327 2.966 . S
C759 C81 2.650 . S
C780 C361 1.853 . S
C775 C113 1.853 . S
C791 C17 2.665 . S
C796 C407 2.962 . S
