# Generated by pormake.
# Topology llk, (3,12)-cn, num edge types: 1
# Building blocks:
#     Node 0, Type 0, BuildingBlock: ESEHIV_clean_linker_0, # of connection points: 3
#     Node 1, Type 0, BuildingBlock: ESEHIV_clean_linker_0, # of connection points: 3
#     Node 2, Type 0, BuildingBlock: ESEHIV_clean_linker_0, # of connection points: 3
#     Node 3, Type 0, BuildingBlock: ESEHIV_clean_linker_0, # of connection points: 3
#     Node 4, Type 0, BuildingBlock: ESEHIV_clean_linker_0, # of connection points: 3
#     Node 5, Type 0, BuildingBlock: ESEHIV_clean_linker_0, # of connection points: 3
#     Node 6, Type 0, BuildingBlock: ESEHIV_clean_linker_0, # of connection points: 3
#     Node 7, Type 0, BuildingBlock: ESEHIV_clean_linker_0, # of connection points: 3
#     Node 8, Type 0, BuildingBlock: ESEHIV_clean_linker_0, # of connection points: 3
#     Node 9, Type 0, BuildingBlock: ESEHIV_clean_linker_0, # of connection points: 3
#     Node 10, Type 0, BuildingBlock: ESEHIV_clean_linker_0, # of connection points: 3
#     Node 11, Type 0, BuildingBlock: ESEHIV_clean_linker_0, # of connection points: 3
#     Node 12, Type 0, BuildingBlock: ESEHIV_clean_linker_0, # of connection points: 3
#     Node 13, Type 0, BuildingBlock: ESEHIV_clean_linker_0, # of connection points: 3
#     Node 14, Type 0, BuildingBlock: ESEHIV_clean_linker_0, # of connection points: 3
#     Node 15, Type 0, BuildingBlock: ESEHIV_clean_linker_0, # of connection points: 3
#     Node 16, Type 0, BuildingBlock: ESEHIV_clean_linker_0, # of connection points: 3
#     Node 17, Type 0, BuildingBlock: ESEHIV_clean_linker_0, # of connection points: 3
#     Node 18, Type 0, BuildingBlock: ESEHIV_clean_linker_0, # of connection points: 3
#     Node 19, Type 0, BuildingBlock: ESEHIV_clean_linker_0, # of connection points: 3
#     Node 20, Type 0, BuildingBlock: ESEHIV_clean_linker_0, # of connection points: 3
#     Node 21, Type 0, BuildingBlock: ESEHIV_clean_linker_0, # of connection points: 3
#     Node 22, Type 0, BuildingBlock: ESEHIV_clean_linker_0, # of connection points: 3
#     Node 23, Type 0, BuildingBlock: ESEHIV_clean_linker_0, # of connection points: 3
#     Node 24, Type 1, BuildingBlock: EZIPEK_clean_sbu_0, # of connection points: 12
#     Node 25, Type 1, BuildingBlock: EZIPEK_clean_sbu_0, # of connection points: 12
#     Node 26, Type 1, BuildingBlock: EZIPEK_clean_sbu_0, # of connection points: 12
#     Node 27, Type 1, BuildingBlock: EZIPEK_clean_sbu_0, # of connection points: 12
#     Node 28, Type 1, BuildingBlock: EZIPEK_clean_sbu_0, # of connection points: 12
#     Node 29, Type 1, BuildingBlock: EZIPEK_clean_sbu_0, # of connection points: 12
#     Edge 30, Type (0, 1), BuildingBlock: CIFDUS_clean_linker_0, # of connection points: 2
#     Edge 31, Type (0, 1), BuildingBlock: CIFDUS_clean_linker_0, # of connection points: 2
#     Edge 32, Type (0, 1), BuildingBlock: CIFDUS_clean_linker_0, # of connection points: 2
#     Edge 33, Type (0, 1), BuildingBlock: CIFDUS_clean_linker_0, # of connection points: 2
#     Edge 34, Type (0, 1), BuildingBlock: CIFDUS_clean_linker_0, # of connection points: 2
#     Edge 35, Type (0, 1), BuildingBlock: CIFDUS_clean_linker_0, # of connection points: 2
#     Edge 36, Type (0, 1), BuildingBlock: CIFDUS_clean_linker_0, # of connection points: 2
#     Edge 37, Type (0, 1), BuildingBlock: CIFDUS_clean_linker_0, # of connection points: 2
#     Edge 38, Type (0, 1), BuildingBlock: CIFDUS_clean_linker_0, # of connection points: 2
#     Edge 39, Type (0, 1), BuildingBlock: CIFDUS_clean_linker_0, # of connection points: 2
#     Edge 40, Type (0, 1), BuildingBlock: CIFDUS_clean_linker_0, # of connection points: 2
#     Edge 41, Type (0, 1), BuildingBlock: CIFDUS_clean_linker_0, # of connection points: 2
#     Edge 42, Type (0, 1), BuildingBlock: CIFDUS_clean_linker_0, # of connection points: 2
#     Edge 43, Type (0, 1), BuildingBlock: CIFDUS_clean_linker_0, # of connection points: 2
#     Edge 44, Type (0, 1), BuildingBlock: CIFDUS_clean_linker_0, # of connection points: 2
#     Edge 45, Type (0, 1), BuildingBlock: CIFDUS_clean_linker_0, # of connection points: 2
#     Edge 46, Type (0, 1), BuildingBlock: CIFDUS_clean_linker_0, # of connection points: 2
#     Edge 47, Type (0, 1), BuildingBlock: CIFDUS_clean_linker_0, # of connection points: 2
#     Edge 48, Type (0, 1), BuildingBlock: CIFDUS_clean_linker_0, # of connection points: 2
#     Edge 49, Type (0, 1), BuildingBlock: CIFDUS_clean_linker_0, # of connection points: 2
#     Edge 50, Type (0, 1), BuildingBlock: CIFDUS_clean_linker_0, # of connection points: 2
#     Edge 51, Type (0, 1), BuildingBlock: CIFDUS_clean_linker_0, # of connection points: 2
#     Edge 52, Type (0, 1), BuildingBlock: CIFDUS_clean_linker_0, # of connection points: 2
#     Edge 53, Type (0, 1), BuildingBlock: CIFDUS_clean_linker_0, # of connection points: 2
#     Edge 54, Type (0, 1), BuildingBlock: CIFDUS_clean_linker_0, # of connection points: 2
#     Edge 55, Type (0, 1), BuildingBlock: CIFDUS_clean_linker_0, # of connection points: 2
#     Edge 56, Type (0, 1), BuildingBlock: CIFDUS_clean_linker_0, # of connection points: 2
#     Edge 57, Type (0, 1), BuildingBlock: CIFDUS_clean_linker_0, # of connection points: 2
#     Edge 58, Type (0, 1), BuildingBlock: CIFDUS_clean_linker_0, # of connection points: 2
#     Edge 59, Type (0, 1), BuildingBlock: CIFDUS_clean_linker_0, # of connection points: 2
#     Edge 60, Type (0, 1), BuildingBlock: CIFDUS_clean_linker_0, # of connection points: 2
#     Edge 61, Type (0, 1), BuildingBlock: CIFDUS_clean_linker_0, # of connection points: 2
#     Edge 62, Type (0, 1), BuildingBlock: CIFDUS_clean_linker_0, # of connection points: 2
#     Edge 63, Type (0, 1), BuildingBlock: CIFDUS_clean_linker_0, # of connection points: 2
#     Edge 64, Type (0, 1), BuildingBlock: CIFDUS_clean_linker_0, # of connection points: 2
#     Edge 65, Type (0, 1), BuildingBlock: CIFDUS_clean_linker_0, # of connection points: 2
#     Edge 66, Type (0, 1), BuildingBlock: CIFDUS_clean_linker_0, # of connection points: 2
#     Edge 67, Type (0, 1), BuildingBlock: CIFDUS_clean_linker_0, # of connection points: 2
#     Edge 68, Type (0, 1), BuildingBlock: CIFDUS_clean_linker_0, # of connection points: 2
#     Edge 69, Type (0, 1), BuildingBlock: CIFDUS_clean_linker_0, # of connection points: 2
#     Edge 70, Type (0, 1), BuildingBlock: CIFDUS_clean_linker_0, # of connection points: 2
#     Edge 71, Type (0, 1), BuildingBlock: CIFDUS_clean_linker_0, # of connection points: 2
#     Edge 72, Type (0, 1), BuildingBlock: CIFDUS_clean_linker_0, # of connection points: 2
#     Edge 73, Type (0, 1), BuildingBlock: CIFDUS_clean_linker_0, # of connection points: 2
#     Edge 74, Type (0, 1), BuildingBlock: CIFDUS_clean_linker_0, # of connection points: 2
#     Edge 75, Type (0, 1), BuildingBlock: CIFDUS_clean_linker_0, # of connection points: 2
#     Edge 76, Type (0, 1), BuildingBlock: CIFDUS_clean_linker_0, # of connection points: 2
#     Edge 77, Type (0, 1), BuildingBlock: CIFDUS_clean_linker_0, # of connection points: 2
#     Edge 78, Type (0, 1), BuildingBlock: CIFDUS_clean_linker_0, # of connection points: 2
#     Edge 79, Type (0, 1), BuildingBlock: CIFDUS_clean_linker_0, # of connection points: 2
#     Edge 80, Type (0, 1), BuildingBlock: CIFDUS_clean_linker_0, # of connection points: 2
#     Edge 81, Type (0, 1), BuildingBlock: CIFDUS_clean_linker_0, # of connection points: 2
#     Edge 82, Type (0, 1), BuildingBlock: CIFDUS_clean_linker_0, # of connection points: 2
#     Edge 83, Type (0, 1), BuildingBlock: CIFDUS_clean_linker_0, # of connection points: 2
#     Edge 84, Type (0, 1), BuildingBlock: CIFDUS_clean_linker_0, # of connection points: 2
#     Edge 85, Type (0, 1), BuildingBlock: CIFDUS_clean_linker_0, # of connection points: 2
#     Edge 86, Type (0, 1), BuildingBlock: CIFDUS_clean_linker_0, # of connection points: 2
#     Edge 87, Type (0, 1), BuildingBlock: CIFDUS_clean_linker_0, # of connection points: 2
#     Edge 88, Type (0, 1), BuildingBlock: CIFDUS_clean_linker_0, # of connection points: 2
#     Edge 89, Type (0, 1), BuildingBlock: CIFDUS_clean_linker_0, # of connection points: 2
#     Edge 90, Type (0, 1), BuildingBlock: CIFDUS_clean_linker_0, # of connection points: 2
#     Edge 91, Type (0, 1), BuildingBlock: CIFDUS_clean_linker_0, # of connection points: 2
#     Edge 92, Type (0, 1), BuildingBlock: CIFDUS_clean_linker_0, # of connection points: 2
#     Edge 93, Type (0, 1), BuildingBlock: CIFDUS_clean_linker_0, # of connection points: 2
#     Edge 94, Type (0, 1), BuildingBlock: CIFDUS_clean_linker_0, # of connection points: 2
#     Edge 95, Type (0, 1), BuildingBlock: CIFDUS_clean_linker_0, # of connection points: 2
#     Edge 96, Type (0, 1), BuildingBlock: CIFDUS_clean_linker_0, # of connection points: 2
#     Edge 97, Type (0, 1), BuildingBlock: CIFDUS_clean_linker_0, # of connection points: 2
#     Edge 98, Type (0, 1), BuildingBlock: CIFDUS_clean_linker_0, # of connection points: 2
#     Edge 99, Type (0, 1), BuildingBlock: CIFDUS_clean_linker_0, # of connection points: 2
#     Edge 100, Type (0, 1), BuildingBlock: CIFDUS_clean_linker_0, # of connection points: 2
#     Edge 101, Type (0, 1), BuildingBlock: CIFDUS_clean_linker_0, # of connection points: 2
# Relax obj value: 0.107
# Max RMSD: 0.160
# Mean RMSD: 0.134
data_MOF--net-llk--node1-EZIPEK_clean_sbu_0--node2-ESEHIV_clean_linker_0--edge1-CIFDUS_clean_linker_0
_symmetry_space_group_name_H-M    P1
_symmetry_Int_Tables_number       1
_symmetry_cell_setting            triclinic
loop_
_symmetry_equiv_pos_as_xyz
'x, y, z'
_cell_length_a     38.74447
_cell_length_b     38.630618
_cell_length_c     38.685158
_cell_angle_alpha  90.081074
_cell_angle_beta   89.99671
_cell_angle_gamma 89.988948
loop_
_atom_site_label
_atom_site_type_symbol
_atom_site_fract_x
_atom_site_fract_y
_atom_site_fract_z
_atom_type_partial_charge
H0 H 0.04461 0.25102 0.32716 0.0
H1 H 0.04909 0.32788 0.24883 0.0
H2 H 0.01317 0.22509 0.22311 0.0
C3 C 0.04175 0.25784 0.30012 0.0
C4 C 0.02838 0.23349 0.27671 0.0
C5 C 0.04775 0.29187 0.29033 0.0
C6 C 0.04464 0.30104 0.25573 0.0
C7 C 0.03295 0.27744 0.23069 0.0
C8 C 0.024 0.24328 0.24146 0.0
H9 H 0.68887 0.96732 0.25013 0.0
H10 H 0.77169 0.96112 0.32214 0.0
H11 H 0.79078 1.00118 0.21978 0.0
C12 C 0.71632 0.96971 0.2552 0.0
C13 C 0.73844 0.98301 0.22967 0.0
C14 C 0.72818 0.96291 0.2885 0.0
C15 C 0.7631 0.96587 0.29583 0.0
C16 C 0.78592 0.98072 0.27199 0.0
C17 C 0.77376 0.98881 0.23821 0.0
H18 H 0.06666 0.77507 0.31201 0.0
H19 H 0.0488 0.69281 0.24124 0.0
H20 H 1.01019 0.79485 0.21773 0.0
C21 C 0.05746 0.76695 0.2868 0.0
C22 C 0.03924 0.79024 0.2658 0.0
C23 C 0.05876 0.73177 0.27919 0.0
C24 C 0.04716 0.7202 0.2472 0.0
C25 C 0.0299 0.7425 0.22443 0.0
C26 C 0.02525 0.7778 0.23403 0.0
H27 H 0.25627 0.96907 0.3256 0.0
H28 H 0.32843 0.96536 0.24261 0.0
H29 H 0.22488 1.00213 0.22391 0.0
C30 C 0.26138 0.97124 0.29813 0.0
C31 C 0.23504 0.9825 0.27583 0.0
C32 C 0.29493 0.9658 0.28648 0.0
C33 C 0.30234 0.97031 0.25162 0.0
C34 C 0.27826 0.98518 0.22912 0.0
C35 C 0.24391 0.99087 0.24102 0.0
H36 H 0.06801 0.77915 0.69629 0.0
H37 H 0.08143 0.70622 0.77724 0.0
H38 H 1.01097 0.7919 0.79099 0.0
C39 C 0.06328 0.77166 0.72289 0.0
C40 C 0.03971 0.79076 0.74268 0.0
C41 C 0.07584 0.74002 0.73448 0.0
C42 C 0.07108 0.73096 0.76903 0.0
C43 C 0.04681 0.74831 0.78984 0.0
C44 C 0.03081 0.77871 0.7763 0.0
H45 H 0.23858 0.0602 0.69639 0.0
H46 H 0.31981 0.05113 0.7705 0.0
H47 H 0.2218 1.00221 0.79012 0.0
C48 C 0.24743 0.05162 0.72159 0.0
C49 C 0.22577 0.03088 0.74189 0.0
C50 C 0.28185 0.05706 0.73068 0.0
C51 C 0.2931 0.04681 0.76333 0.0
C52 C 0.27182 0.02742 0.7854 0.0
C53 C 0.23778 0.01906 0.77451 0.0
H54 H 0.96806 0.32354 0.76839 0.0
H55 H 0.96874 0.24719 0.68921 0.0
H56 H 1.00014 0.21916 0.79252 0.0
C57 C 0.9717 0.29666 0.76097 0.0
C58 C 0.98524 0.27306 0.78481 0.0
C59 C 0.9672 0.28764 0.72651 0.0
C60 C 0.97104 0.25338 0.71648 0.0
C61 C 0.98125 0.2277 0.74001 0.0
C62 C 0.9897 0.23786 0.77451 0.0
H63 H 0.69368 0.94326 0.77149 0.0
H64 H 0.76866 0.9436 0.69114 0.0
H65 H 0.79087 0.99524 0.78757 0.0
C66 C 0.71997 0.94856 0.76331 0.0
C67 C 0.74148 0.9685 0.78462 0.0
C68 C 0.7287 0.94236 0.72903 0.0
C69 C 0.76232 0.94883 0.71798 0.0
C70 C 0.78522 0.96818 0.73845 0.0
C71 C 0.77467 0.97828 0.77226 0.0
H72 H 0.25395 0.32865 0.03935 0.0
H73 H 0.32882 0.24796 0.03841 0.0
H74 H 0.22339 0.22528 1.00998 0.0
C75 C 0.25979 0.30132 0.03671 0.0
C76 C 0.23351 0.27809 0.02736 0.0
C77 C 0.29389 0.29069 0.04026 0.0
C78 C 0.30223 0.2561 0.03495 0.0
C79 C 0.27773 0.23244 0.02264 0.0
C80 C 0.24274 0.24326 0.01923 0.0
H81 H 0.31835 0.77315 0.06042 0.0
H82 H 0.23629 0.6997 0.06686 0.0
H83 H 0.22296 0.79268 1.00663 0.0
C84 C 0.29175 0.7662 0.05511 0.0
C85 C 0.27171 0.78808 0.03428 0.0
C86 C 0.27989 0.7336 0.06495 0.0
C87 C 0.24554 0.72489 0.05858 0.0
C88 C 0.22497 0.74504 0.03661 0.0
C89 C 0.23793 0.77732 0.02459 0.0
H90 H 0.69586 0.24167 0.04052 0.0
H91 H 0.76752 0.32432 0.02521 0.0
H92 H 0.79337 0.2215 0.99073 0.0
C93 C 0.72092 0.25067 0.03181 0.0
C94 C 0.74284 0.2275 0.01467 0.0
C95 C 0.72827 0.28597 0.03298 0.0
C96 C 0.76125 0.29705 0.02364 0.0
C97 C 0.78556 0.27416 1.00941 0.0
C98 C 0.77606 0.23897 1.00413 0.0
H99 H 0.70304 0.79025 0.06872 0.0
H100 H 0.76609 0.70016 0.06157 0.0
H101 H 0.79448 0.7917 1.00521 0.0
C102 C 0.72679 0.77806 0.06004 0.0
C103 C 0.74734 0.79499 0.03561 0.0
C104 C 0.73193 0.74317 0.06721 0.0
C105 C 0.76272 0.72758 0.05681 0.0
C106 C 0.78708 0.74519 0.03639 0.0
C107 C 0.77828 0.77883 0.02401 0.0
H108 H 0.43613 0.74184 0.81779 0.0
H109 H 0.44313 0.82879 0.75057 0.0
H110 H 0.49938 0.736 0.72625 0.0
C111 C 0.44462 0.75279 0.79339 0.0
C112 C 0.46898 0.73481 0.77356 0.0
C113 C 0.43799 0.78762 0.78696 0.0
C114 C 0.44778 0.80152 0.75518 0.0
C115 C 0.46814 0.78278 0.73158 0.0
C116 C 0.48052 0.74955 0.74187 0.0
H117 H 0.1997 0.46775 0.74911 0.0
H118 H 0.28002 0.46328 0.82401 0.0
H119 H 0.29864 0.51311 0.72585 0.0
C120 C 0.22671 0.47147 0.75548 0.0
C121 C 0.24857 0.48782 0.73157 0.0
C122 C 0.23759 0.46372 0.78882 0.0
C123 C 0.27175 0.4699 0.79803 0.0
C124 C 0.29368 0.48918 0.77661 0.0
C125 C 0.28222 0.49799 0.74271 0.0
H126 H 0.48324 0.20703 0.75472 0.0
H127 H 0.47266 0.29279 0.82395 0.0
H128 H 0.52112 0.30728 0.72473 0.0
C129 C 0.48606 0.23436 0.76013 0.0
C130 C 0.50073 0.25569 0.73471 0.0
C131 C 0.47778 0.24696 0.79299 0.0
C132 C 0.48055 0.28244 0.79909 0.0
C133 C 0.49793 0.30411 0.77592 0.0
C134 C 0.50746 0.29098 0.7429 0.0
H135 H 0.74924 0.58682 0.82291 0.0
H136 H 0.8269 0.58048 0.74534 0.0
H137 H 0.72933 0.52917 0.72937 0.0
C138 C 0.75644 0.57956 0.79676 0.0
C139 C 0.73399 0.55893 0.77706 0.0
C140 C 0.7906 0.58457 0.78658 0.0
C141 C 0.80034 0.57598 0.75308 0.0
C142 C 0.77903 0.55545 0.73214 0.0
C143 C 0.74535 0.54673 0.74417 0.0
H144 H 0.56123 0.27489 0.1909 0.0
H145 H 0.55402 0.19613 0.2677 0.0
H146 H 0.51934 0.29965 0.29139 0.0
C147 C 0.55507 0.26748 0.21725 0.0
C148 C 0.54005 0.2918 0.23961 0.0
C149 C 0.55822 0.23281 0.22657 0.0
C150 C 0.55136 0.22313 0.26054 0.0
C151 C 0.53754 0.24673 0.28447 0.0
C152 C 0.53173 0.28156 0.27395 0.0
H153 H 0.75391 0.49613 0.20031 0.0
H154 H 0.81977 0.48021 0.28763 0.0
H155 H 0.72407 0.5356 0.30004 0.0
C156 C 0.75877 0.49844 0.22776 0.0
C157 C 0.73382 0.51455 0.24869 0.0
C158 C 0.79053 0.48766 0.24113 0.0
C159 C 0.79586 0.48988 0.2767 0.0
C160 C 0.77354 0.509 0.29781 0.0
C161 C 0.74163 0.52074 0.28408 0.0
H162 H 0.5653 0.83289 0.27241 0.0
H163 H 0.56209 0.75161 0.19834 0.0
H164 H 0.52629 0.73272 0.30233 0.0
C165 C 0.56169 0.80556 0.26704 0.0
C166 C 0.54911 0.78356 0.29304 0.0
C167 C 0.56527 0.7944 0.2331 0.0
C168 C 0.55895 0.75992 0.22499 0.0
C169 C 0.54337 0.73772 0.24892 0.0
C170 C 0.53865 0.74939 0.28357 0.0
H171 H 0.19456 0.54645 0.261 0.0
H172 H 0.28331 0.55946 0.19668 0.0
H173 H 0.29379 0.51085 0.29626 0.0
C174 C 0.22209 0.54415 0.25709 0.0
C175 C 0.24247 0.53035 0.28381 0.0
C176 C 0.23618 0.55262 0.22488 0.0
C177 C 0.27188 0.55117 0.22089 0.0
C178 C 0.29256 0.53388 0.24494 0.0
C179 C 0.27812 0.52418 0.27729 0.0
H180 H 0.75533 0.83093 0.57719 0.0
H181 H 0.82281 0.74431 0.58239 0.0
H182 H 0.72403 0.73407 0.53185 0.0
C183 C 0.75905 0.80328 0.57413 0.0
C184 C 0.73322 0.78341 0.55805 0.0
C185 C 0.79154 0.78972 0.58138 0.0
C186 C 0.79743 0.75458 0.57628 0.0
C187 C 0.77465 0.73474 0.55637 0.0
C188 C 0.74184 0.74898 0.54745 0.0
H189 H 0.82379 0.26542 0.49819 0.0
H190 H 0.73232 0.20467 0.4946 0.0
H191 H 0.72627 0.31069 0.52924 0.0
C192 C 0.7961 0.26383 0.50171 0.0
C193 C 0.77725 0.29316 0.51254 0.0
C194 C 0.78006 0.23184 0.49701 0.0
C195 C 0.74455 0.2295 0.4996 0.0
C196 C 0.72501 0.25672 0.51296 0.0
C197 C 0.74112 0.28932 0.51887 0.0
H198 H 0.20219 0.76443 0.55074 0.0
H199 H 0.29266 0.82679 0.56306 0.0
H200 H 0.29743 0.73273 0.50339 0.0
C201 C 0.22949 0.76854 0.54677 0.0
C202 C 0.24826 0.74321 0.52863 0.0
C203 C 0.24459 0.7999 0.55708 0.0
C204 C 0.28019 0.80357 0.55343 0.0
C205 C 0.29898 0.78124 0.53203 0.0
C206 C 0.28329 0.75019 0.52012 0.0
H207 H 0.19111 0.27579 0.4733 0.0
H208 H 0.26863 0.19792 0.4708 0.0
H209 H 0.29649 0.30249 0.4988 0.0
C210 C 0.21813 0.26883 0.47589 0.0
C211 C 0.24214 0.2936 0.48709 0.0
C212 C 0.22764 0.23454 0.47054 0.0
C213 C 0.26208 0.22512 0.47331 0.0
C214 C 0.28771 0.24917 0.48226 0.0
C215 C 0.27754 0.28384 0.49004 0.0
C216 C 1.00522 0.92077 0.5886 0.0
C217 C 0.01537 0.92442 0.41854 0.0
C218 C 0.9988 0.08741 0.59192 0.0
C219 C 1.0069 0.09101 0.42238 0.0
C220 C 0.9223 0.08643 0.4958 0.0
C221 C 0.92743 0.91959 0.50815 0.0
C222 C 0.08702 0.09166 0.50696 0.0
C223 C 0.09088 0.92523 0.52077 0.0
C224 C 0.09126 1.00189 0.42149 0.0
C225 C 0.92459 1.00522 0.41935 0.0
C226 C 0.08976 1.00595 0.59096 0.0
C227 C 0.922 1.00439 0.58904 0.0
Eu228 Eu 1.00898 0.94037 0.50381 0.0
O229 O 0.97704 0.97424 0.47295 0.0
O230 O 0.03712 0.97637 0.53524 0.0
Eu231 Eu 0.94155 1.00384 0.50448 0.0
Eu232 Eu 0.07242 1.00744 0.50605 0.0
O233 O 0.97737 0.97419 0.53476 0.0
O234 O 0.03937 0.97611 0.47395 0.0
Eu235 Eu 1.00608 1.0049 0.57128 0.0
Eu236 Eu 1.00793 1.00675 0.43949 0.0
O237 O 0.97449 0.0353 0.53676 0.0
O238 O 0.97663 0.03525 0.47535 0.0
O239 O 0.03717 0.03781 0.47551 0.0
O240 O 0.03677 0.03693 0.53746 0.0
Eu241 Eu 1.00501 0.07086 0.50688 0.0
O242 O 1.00502 0.91079 0.55529 0.0
O243 O 0.01762 0.91319 0.45134 0.0
O244 O 0.99673 0.0983 0.55904 0.0
O245 O 1.00626 0.10064 0.45573 0.0
O246 O 0.91165 0.05383 0.49949 0.0
O247 O 0.91549 0.9519 0.51031 0.0
O248 O 0.09907 0.05951 0.50306 0.0
O249 O 0.10141 0.95781 0.51642 0.0
O250 O 0.05895 1.00662 0.41063 0.0
O251 O 0.95755 1.00636 0.40935 0.0
O252 O 0.05681 1.00471 0.60111 0.0
O253 O 0.95471 1.00266 0.59988 0.0
O254 O 0.05419 0.10093 0.51081 0.0
O255 O 0.95461 0.09781 0.49808 0.0
O256 O 0.05902 0.91342 0.51563 0.0
O257 O 0.95984 0.91009 0.50212 0.0
O258 O 1.00984 0.95699 0.40893 0.0
O259 O 1.00782 0.05833 0.41109 0.0
O260 O 1.00651 0.95353 0.5995 0.0
O261 O 1.00412 0.05486 0.60183 0.0
O262 O 0.91213 1.00618 0.55583 0.0
O263 O 0.91361 1.00349 0.45222 0.0
O264 O 0.1005 1.0081 0.55806 0.0
O265 O 0.10127 1.00007 0.45467 0.0
C266 C 0.51124 0.92897 0.09095 0.0
C267 C 0.51328 0.09616 0.08119 0.0
C268 C 0.50013 0.91883 0.92654 0.0
C269 C 0.49773 0.08549 0.91612 0.0
C270 C 0.5912 1.00433 0.91882 0.0
C271 C 0.59328 1.01189 0.08669 0.0
C272 C 0.42154 1.00089 0.9216 0.0
C273 C 0.42385 0.01228 0.08883 0.0
C274 C 0.42239 0.09051 0.99975 0.0
C275 C 0.59208 0.09082 0.99587 0.0
C276 C 0.42353 0.92314 1.00673 0.0
C277 C 0.59325 0.92424 1.0044 0.0
Eu278 Eu 0.50848 1.01147 0.06923 0.0
O279 O 0.5385 0.03966 0.03189 0.0
O280 O 0.47729 0.97823 0.03697 0.0
Eu281 Eu 0.57343 1.00751 1.00283 0.0
Eu282 Eu 0.44168 1.00705 1.00513 0.0
O283 O 0.53899 0.97888 0.03575 0.0
O284 O 0.47675 0.04008 0.03342 0.0
Eu285 Eu 0.50823 0.94242 1.00732 0.0
Eu286 Eu 0.50725 0.07238 0.99977 0.0
O287 O 0.5385 0.97487 0.97376 0.0
O288 O 0.53797 0.03627 0.97049 0.0
O289 O 0.47635 0.03545 0.97216 0.0
O290 O 0.47699 0.97558 0.97585 0.0
Eu291 Eu 0.50652 1.00346 0.93808 0.0
O292 O 0.51179 0.96214 0.10049 0.0
O293 O 0.51329 0.06422 0.09428 0.0
O294 O 0.50089 0.95067 0.91325 0.0
O295 O 0.49914 0.05231 0.90669 0.0
O296 O 0.60197 1.0051 0.9516 0.0
O297 O 0.60349 1.00909 0.05375 0.0
O298 O 0.41159 1.00423 0.95453 0.0
O299 O 0.41306 1.00852 0.05629 0.0
O300 O 0.45539 0.10098 0.99827 0.0
O301 O 0.55897 0.10102 0.99403 0.0
O302 O 0.4567 0.91311 1.0074 0.0
O303 O 0.56024 0.91359 1.00513 0.0
O304 O 0.45438 0.99983 0.9107 0.0
O305 O 0.55803 1.00384 0.90865 0.0
O306 O 0.45703 0.01454 0.09871 0.0
O307 O 0.56035 0.01351 0.09723 0.0
O308 O 0.51013 0.10459 0.048 0.0
O309 O 0.5017 0.09768 0.94806 0.0
O310 O 0.50919 0.91667 0.05893 0.0
O311 O 0.50421 0.91036 0.95952 0.0
O312 O 0.60335 0.95722 1.00431 0.0
O313 O 0.60259 0.05826 1.00027 0.0
O314 O 0.41274 0.95594 1.00652 0.0
O315 O 0.41203 0.05774 1.00296 0.0
C316 C 1.01097 0.42242 0.08768 0.0
C317 C 1.01081 0.42354 0.92103 0.0
C318 C 0.9986 0.59227 0.08945 0.0
C319 C 0.01637 0.59425 0.92355 0.0
C320 C 0.92316 0.59213 1.00781 0.0
C321 C 0.92437 0.42277 0.99537 0.0
C322 C 0.08998 0.59339 1.00689 0.0
C323 C 0.08971 0.42359 0.01454 0.0
C324 C 0.09578 0.50226 0.92889 0.0
C325 C 0.92887 0.51656 0.91852 0.0
C326 C 0.08369 0.52173 0.09362 0.0
C327 C 0.91973 0.49527 0.0836 0.0
Eu328 Eu 1.00712 0.44228 1.00469 0.0
O329 O 0.97854 0.47759 0.97243 0.0
O330 O 0.03574 0.47698 0.03789 0.0
Eu331 Eu 0.94197 0.50744 1.00212 0.0
Eu332 Eu 0.07176 0.50848 1.00995 0.0
O333 O 0.97487 0.47655 0.03437 0.0
O334 O 0.03928 0.47796 0.97654 0.0
Eu335 Eu 1.00319 0.50742 0.07109 0.0
Eu336 Eu 0.0112 0.5088 0.93961 0.0
O337 O 0.9745 0.53844 0.03488 0.0
O338 O 0.97816 0.53874 0.97335 0.0
O339 O 0.03909 0.53924 0.97701 0.0
O340 O 0.03493 0.53878 0.03809 0.0
Eu341 Eu 1.00644 0.5739 1.00597 0.0
O342 O 1.00648 0.41222 0.05505 0.0
O343 O 1.00937 0.41312 0.95385 0.0
O344 O 1.00409 0.60269 0.05704 0.0
O345 O 1.00966 0.60402 0.95589 0.0
O346 O 0.91295 0.55894 1.00909 0.0
O347 O 0.91405 0.45586 0.99358 0.0
O348 O 0.10041 0.56026 1.00635 0.0
O349 O 0.09961 0.45667 0.01845 0.0
O350 O 0.06415 0.50321 0.91518 0.0
O351 O 0.96191 0.51578 0.9087 0.0
O352 O 0.05074 0.51821 0.10273 0.0
O353 O 0.9516 0.49883 0.09608 0.0
O354 O 0.0571 0.60372 1.00826 0.0
O355 O 0.95565 0.60291 1.00455 0.0
O356 O 0.05783 0.41308 1.00697 0.0
O357 O 0.95672 0.41246 1.00117 0.0
O358 O 0.01124 0.45672 0.91052 0.0
O359 O 0.01962 0.56137 0.91262 0.0
O360 O 0.01229 0.45543 0.09855 0.0
O361 O 0.99566 0.55912 0.09954 0.0
O362 O 0.91054 0.49782 0.05047 0.0
O363 O 0.9167 0.51336 0.95051 0.0
O364 O 0.09647 0.51761 0.06187 0.0
O365 O 0.10384 0.50427 0.96222 0.0
C366 C 0.51741 0.43601 0.09496 0.0
C367 C 0.50588 0.60321 0.09982 0.0
C368 C 0.52293 0.44087 0.92539 0.0
C369 C 0.50541 0.607 0.92917 0.0
C370 C 0.59698 0.52974 0.92831 0.0
C371 C 0.59625 0.53105 0.0979 0.0
C372 C 0.42975 0.51759 0.92743 0.0
C373 C 0.43045 0.51078 0.09766 0.0
C374 C 0.42001 0.59394 0.02067 0.0
C375 C 0.5847 0.61445 0.02113 0.0
C376 C 0.44036 0.42914 1.01075 0.0
C377 C 0.60451 0.44826 0.01841 0.0
Eu378 Eu 0.51334 0.52023 0.07865 0.0
O379 O 0.5393 0.5548 0.04381 0.0
O380 O 0.48634 0.48748 0.04252 0.0
Eu381 Eu 0.57797 0.52928 0.01318 0.0
Eu382 Eu 0.44816 0.51424 0.01249 0.0
O383 O 0.54699 0.49392 0.04294 0.0
O384 O 0.47928 0.54784 0.04415 0.0
Eu385 Eu 0.52019 0.45713 1.01073 0.0
Eu386 Eu 0.50494 0.58703 0.01419 0.0
O387 O 0.54707 0.4957 0.98107 0.0
O388 O 0.54002 0.55682 0.98273 0.0
O389 O 0.47875 0.54971 0.98218 0.0
O390 O 0.48579 0.48855 0.98048 0.0
Eu391 Eu 0.51314 0.52347 0.9467 0.0
O392 O 0.51689 0.46856 0.1066 0.0
O393 O 0.51033 0.5703 0.10924 0.0
O394 O 0.51719 0.47356 0.91587 0.0
O395 O 0.5087 0.5744 0.91833 0.0
O396 O 0.60701 0.53077 0.96154 0.0
O397 O 0.60633 0.53377 0.06486 0.0
O398 O 0.41943 0.51539 0.96053 0.0
O399 O 0.42009 0.50845 0.06458 0.0
O400 O 0.45099 0.60901 0.01958 0.0
O401 O 0.55121 0.62145 0.01854 0.0
O402 O 0.47391 0.4223 1.00833 0.0
O403 O 0.5731 0.43473 0.01514 0.0
O404 O 0.46254 0.51987 0.917 0.0
O405 O 0.56422 0.52788 0.91757 0.0
O406 O 0.46287 0.51605 0.10798 0.0
O407 O 0.56392 0.52498 0.10823 0.0
O408 O 0.50267 0.61432 0.06707 0.0
O409 O 0.50342 0.61692 0.9625 0.0
O410 O 0.51824 0.42672 0.06153 0.0
O411 O 0.52594 0.42995 0.95819 0.0
O412 O 0.61226 0.48192 0.01817 0.0
O413 O 0.59956 0.58336 0.01886 0.0
O414 O 0.42586 0.46037 0.0126 0.0
O415 O 0.41349 0.56032 0.01745 0.0
C416 C 0.01271 0.43424 0.59307 0.0
C417 C 0.01157 0.44035 0.42618 0.0
C418 C 0.02123 0.59932 0.59942 0.0
C419 C 0.01628 0.60649 0.43351 0.0
C420 C 0.92632 0.60296 0.51821 0.0
C421 C 0.92837 0.43507 0.51471 0.0
C422 C 0.09615 0.60516 0.50975 0.0
C423 C 0.09775 0.43698 0.5114 0.0
C424 C 0.09398 0.5181 0.42603 0.0
C425 C 0.92488 0.5268 0.4321 0.0
C426 C 0.09993 0.51376 0.59274 0.0
C427 C 0.92984 0.51787 0.59867 0.0
Eu428 Eu 0.01277 0.45462 0.51034 0.0
O429 O 0.98033 0.48983 0.48161 0.0
O430 O 0.0443 0.48881 0.5408 0.0
Eu431 Eu 0.94639 0.51939 0.51469 0.0
Eu432 Eu 0.07832 0.52084 0.51042 0.0
O433 O 0.98274 0.48818 0.54291 0.0
O434 O 0.04221 0.49101 0.48024 0.0
Eu435 Eu 0.01442 0.51754 0.57776 0.0
Eu436 Eu 1.01006 0.52258 0.44769 0.0
O437 O 0.98195 0.54951 0.54572 0.0
O438 O 0.98024 0.55182 0.48451 0.0
O439 O 0.04157 0.55207 0.48276 0.0
O440 O 0.04405 0.54996 0.54355 0.0
Eu441 Eu 0.01172 0.58573 0.51566 0.0
O442 O 0.01139 0.42421 0.56012 0.0
O443 O 0.01499 0.42825 0.45827 0.0
O444 O 0.0189 0.6121 0.56748 0.0
O445 O 0.0123 0.61617 0.4663 0.0
O446 O 0.91643 0.56986 0.5178 0.0
O447 O 0.9174 0.46789 0.51537 0.0
O448 O 0.10708 0.57233 0.50966 0.0
O449 O 0.10805 0.46991 0.50923 0.0
O450 O 0.06053 0.51822 0.417 0.0
O451 O 0.9576 0.52866 0.42081 0.0
O452 O 0.0673 0.51127 0.60414 0.0
O453 O 0.96323 0.51711 0.6082 0.0
O454 O 0.06299 0.61507 0.51167 0.0
O455 O 0.95928 0.61395 0.51756 0.0
O456 O 0.06477 0.42641 0.51263 0.0
O457 O 0.9615 0.42524 0.5122 0.0
O458 O 1.00725 0.47327 0.41709 0.0
O459 O 0.0166 0.57415 0.4215 0.0
O460 O 0.01439 0.46652 0.60475 0.0
O461 O 0.01909 0.56623 0.60845 0.0
O462 O 0.91859 0.51879 0.56612 0.0
O463 O 0.91547 0.52192 0.46491 0.0
O464 O 0.10935 0.51908 0.56006 0.0
O465 O 0.10575 0.52017 0.45841 0.0
C466 C 0.49994 0.93478 0.59564 0.0
C467 C 0.52783 0.93366 0.43161 0.0
C468 C 0.51165 0.1044 0.59618 0.0
C469 C 0.51541 0.10326 0.42858 0.0
C470 C 0.42985 0.10303 0.49969 0.0
C471 C 0.43152 0.93283 0.50498 0.0
C472 C 0.59378 0.10664 0.52303 0.0
C473 C 0.59683 0.93566 0.5266 0.0
C474 C 0.60502 0.02029 0.43898 0.0
C475 C 0.44149 1.00943 0.42019 0.0
C476 C 0.58646 0.01481 0.60433 0.0
C477 C 0.42073 0.02738 0.58496 0.0
Eu478 Eu 0.51427 0.95355 0.51352 0.0
O479 O 0.48711 0.98772 0.47915 0.0
O480 O 0.54049 0.98969 0.54666 0.0
Eu481 Eu 0.44839 0.01811 0.50491 0.0
Eu482 Eu 0.57844 0.02067 0.52005 0.0
O483 O 0.47947 0.98809 0.54014 0.0
O484 O 0.5478 0.98878 0.48628 0.0
Eu485 Eu 0.50561 0.01957 0.57803 0.0
Eu486 Eu 0.52093 0.01883 0.44805 0.0
O487 O 0.47882 0.04969 0.53949 0.0
O488 O 0.48597 0.04937 0.47861 0.0
O489 O 0.54717 0.05108 0.48529 0.0
O490 O 0.53934 0.05042 0.54623 0.0
Eu491 Eu 0.5121 0.08515 0.51239 0.0
O492 O 0.50878 0.92436 0.56402 0.0
O493 O 0.52041 0.92351 0.46364 0.0
O494 O 0.51011 0.11481 0.5633 0.0
O495 O 0.51478 0.11426 0.46132 0.0
O496 O 0.42043 0.06983 0.49531 0.0
O497 O 0.42042 0.96573 0.50357 0.0
O498 O 0.60518 0.07385 0.52575 0.0
O499 O 0.60683 0.96893 0.52841 0.0
O500 O 0.57373 0.02325 0.42527 0.0
O501 O 0.47498 0.01251 0.41332 0.0
O502 O 0.55294 1.01153 0.61156 0.0
O503 O 0.4519 0.0279 0.59972 0.0
O504 O 0.56134 0.1159 0.51655 0.0
O505 O 0.46131 0.11382 0.50845 0.0
O506 O 0.56484 0.92475 0.52014 0.0
O507 O 0.46439 0.92315 0.50852 0.0
O508 O 0.53053 0.96663 0.42102 0.0
O509 O 0.51713 0.07004 0.4186 0.0
O510 O 0.49553 0.96782 0.60552 0.0
O511 O 0.51102 0.07129 0.60667 0.0
O512 O 0.41404 0.02252 0.55151 0.0
O513 O 0.42666 1.01097 0.45126 0.0
O514 O 0.6004 0.02091 0.57353 0.0
O515 O 0.61269 0.01753 0.4725 0.0
H516 H 0.1727 0.22838 0.51201 0.0
H517 H 0.22499 0.17885 0.42679 0.0
H518 H 0.18682 0.12855 0.43196 0.0
H519 H 0.13997 0.09819 0.46243 0.0
H520 H 0.08733 0.14914 0.54658 0.0
H521 H 0.1247 0.19965 0.54039 0.0
C522 C 0.17513 0.20698 0.49395 0.0
C523 C 0.20125 0.20724 0.46889 0.0
C524 C 0.15366 0.17829 0.49743 0.0
C525 C 0.20483 0.17904 0.44621 0.0
C526 C 0.18327 0.15031 0.44932 0.0
C527 C 0.13715 0.12025 0.4796 0.0
C528 C 0.11157 0.12013 0.50519 0.0
C529 C 0.15805 0.14943 0.47529 0.0
C530 C 0.10722 0.14892 0.52688 0.0
C531 C 0.12834 0.17774 0.52323 0.0
H532 H 0.83685 0.21825 0.45808 0.0
H533 H 0.76889 0.17363 0.53444 0.0
H534 H 0.80486 0.12225 0.53769 0.0
H535 H 0.85875 0.09254 0.52338 0.0
H536 H 0.92848 0.13826 0.4499 0.0
H537 H 0.88901 0.18668 0.44095 0.0
C538 C 0.82991 0.19714 0.47518 0.0
C539 C 0.80034 0.19962 0.49576 0.0
C540 C 0.85119 0.16804 0.47773 0.0
C541 C 0.79132 0.17204 0.51778 0.0
C542 C 0.81198 0.14275 0.51995 0.0
C543 C 0.86487 0.11291 0.50508 0.0
C544 C 0.89649 0.11264 0.4878 0.0
C545 C 0.84235 0.14081 0.50063 0.0
C546 C 0.9045 0.13887 0.46409 0.0
C547 C 0.88192 0.16633 0.45886 0.0
H548 H 0.84699 0.78432 0.54067 0.0
H549 H 0.80094 0.84998 0.61842 0.0
H550 H 0.83918 0.8975 0.60116 0.0
H551 H 0.88081 0.92147 0.55942 0.0
H552 H 0.92473 0.85506 0.48109 0.0
H553 H 0.89107 0.80626 0.50277 0.0
C554 C 0.84603 0.80852 0.55487 0.0
C555 C 0.82115 0.8137 0.58077 0.0
C556 C 0.86659 0.83577 0.54373 0.0
C557 C 0.82 0.84549 0.59842 0.0
C558 C 0.8414 0.8727 0.58819 0.0
C559 C 0.88243 0.8964 0.5468 0.0
C560 C 0.9042 0.89176 0.51816 0.0
C561 C 0.86365 0.86846 0.55986 0.0
C562 C 0.90742 0.85908 0.50273 0.0
C563 C 0.88859 0.83124 0.51534 0.0
H564 H 0.1786 0.80422 0.58355 0.0
H565 H 0.26033 0.86775 0.54091 0.0
H566 H 0.21994 0.91362 0.53032 0.0
H567 H 0.16044 0.93137 0.52109 0.0
H568 H 0.07739 0.86467 0.55432 0.0
H569 H 0.11898 0.82371 0.57795 0.0
C570 C 0.18776 0.82792 0.57176 0.0
C571 C 0.2226 0.83127 0.56201 0.0
C572 C 0.16381 0.85333 0.56232 0.0
C573 C 0.23395 0.86349 0.54895 0.0
C574 C 0.21061 0.8899 0.542 0.0
C575 C 0.1514 0.90794 0.53359 0.0
C576 C 0.11602 0.90059 0.53502 0.0
C577 C 0.17533 0.88421 0.54653 0.0
C578 C 0.10465 0.87039 0.55184 0.0
C579 C 0.12836 0.84715 0.56577 0.0
H580 H 0.5228 0.23289 0.16697 0.0
H581 H 0.59454 0.17147 0.22633 0.0
H582 H 0.58595 0.12272 0.18661 0.0
H583 H 0.55518 0.09703 0.13697 0.0
H584 H 0.48476 0.15996 0.07773 0.0
H585 H 0.49582 0.20917 0.11577 0.0
C586 C 0.53753 0.2093 0.17072 0.0
C587 C 0.55949 0.20586 0.19941 0.0
C588 C 0.53212 0.18158 0.14828 0.0
C589 C 0.57749 0.17467 0.20438 0.0
C590 C 0.57243 0.14682 0.18185 0.0
C591 C 0.54212 0.12148 0.1327 0.0
C592 C 0.51884 0.12496 0.10513 0.0
C593 C 0.54913 0.14978 0.15423 0.0
C594 C 0.50262 0.15683 0.09906 0.0
C595 C 0.50902 0.18491 0.12064 0.0
H596 H 0.79081 0.4592 0.17571 0.0
H597 H 0.85818 0.50478 0.25277 0.0
H598 H 0.90435 0.50736 0.21141 0.0
H599 H 0.92352 0.50525 0.15224 0.0
H600 H 0.85552 0.46738 0.07224 0.0
H601 H 0.81109 0.45534 0.11562 0.0
C602 C 0.8155 0.46978 0.18356 0.0
C603 C 0.82038 0.48188 0.2176 0.0
C604 C 0.84163 0.47381 0.15883 0.0
C605 C 0.85322 0.49437 0.22728 0.0
C606 C 0.87977 0.49663 0.20334 0.0
C607 C 0.89913 0.49406 0.14415 0.0
C608 C 0.89269 0.48751 0.1091 0.0
C609 C 0.87381 0.48772 0.16889 0.0
C610 C 0.86087 0.47316 0.09912 0.0
C611 C 0.8356 0.46602 0.1239 0.0
H612 H 0.51974 0.79685 0.18174 0.0
H613 H 0.60692 0.85142 0.22473 0.0
H614 H 0.59596 0.90023 0.1856 0.0
H615 H 0.55983 0.92757 0.14054 0.0
H616 H 0.47329 0.87136 0.0984 0.0
H617 H 0.48533 0.82267 0.1367 0.0
C618 C 0.53707 0.81893 0.18187 0.0
C619 C 0.56447 0.82045 0.20546 0.0
C620 C 0.53003 0.84678 0.16033 0.0
C621 C 0.58595 0.84971 0.20628 0.0
C622 C 0.57944 0.87762 0.1843 0.0
C623 C 0.54337 0.90483 0.14043 0.0
C624 C 0.51545 0.90283 0.1175 0.0
C625 C 0.55109 0.87665 0.16173 0.0
C626 C 0.49464 0.87321 0.11642 0.0
C627 C 0.5017 0.8454 0.13794 0.0
H628 H 0.16963 0.57734 0.21972 0.0
H629 H 0.25133 0.53032 0.15916 0.0
H630 H 0.21166 0.5199 0.1126 0.0
H631 H 0.15285 0.51536 0.09214 0.0
H632 H 0.06909 0.55453 0.15459 0.0
H633 H 0.11026 0.57442 0.19816 0.0
C634 C 0.17889 0.56469 0.19648 0.0
C635 C 0.21365 0.55441 0.19375 0.0
C636 C 0.15529 0.55596 0.17047 0.0
C637 C 0.22512 0.53937 0.16249 0.0
C638 C 0.2022 0.53256 0.13577 0.0
C639 C 0.14353 0.52837 0.1152 0.0
C640 C 0.10806 0.53298 0.12042 0.0
C641 C 0.1671 0.53934 0.14014 0.0
C642 C 0.09636 0.54997 0.15038 0.0
C643 C 0.11986 0.5617 0.1751 0.0
H644 H 0.46924 0.78174 0.84867 0.0
H645 H 0.40049 0.84847 0.79142 0.0
H646 H 0.41465 0.89647 0.83042 0.0
H647 H 0.45305 0.92062 0.8754 0.0
H648 H 0.52333 0.853 0.9294 0.0
H649 H 0.50261 0.80372 0.89589 0.0
C650 C 0.45624 0.80628 0.84509 0.0
C651 C 0.43434 0.81163 0.81662 0.0
C652 C 0.46594 0.83381 0.86608 0.0
C653 C 0.41782 0.84383 0.81289 0.0
C654 C 0.42631 0.87134 0.83481 0.0
C655 C 0.4641 0.89516 0.87928 0.0
C656 C 0.49028 0.89035 0.90387 0.0
C657 C 0.45174 0.86696 0.86027 0.0
C658 C 0.50361 0.85718 0.90998 0.0
C659 C 0.49153 0.82905 0.89119 0.0
H660 H 0.23483 0.49841 0.84853 0.0
H661 H 0.18027 0.42153 0.78872 0.0
H662 H 0.13006 0.42744 0.82693 0.0
H663 H 0.10057 0.45845 0.87455 0.0
H664 H 0.15668 0.53518 0.93307 0.0
H665 H 0.20781 0.52554 0.89765 0.0
C666 C 0.21251 0.48194 0.84446 0.0
C667 C 0.21126 0.45942 0.81602 0.0
C668 C 0.18383 0.48622 0.86564 0.0
C669 C 0.18172 0.43899 0.8106 0.0
C670 C 0.153 0.44264 0.83215 0.0
C671 C 0.12398 0.47317 0.87912 0.0
C672 C 0.12506 0.49782 0.90572 0.0
C673 C 0.15344 0.46703 0.85906 0.0
C674 C 0.1555 0.51628 0.91236 0.0
C675 C 0.18468 0.51064 0.89235 0.0
H676 H 0.45013 0.18115 0.79363 0.0
H677 H 0.49996 0.25696 0.85957 0.0
H678 H 0.50807 0.21387 0.90354 0.0
H679 H 0.50921 0.15389 0.92038 0.0
H680 H 0.46649 0.07546 0.85322 0.0
H681 H 0.45 0.12016 0.8115 0.0
C682 C 0.46291 0.18836 0.81748 0.0
C683 C 0.47465 0.22254 0.82255 0.0
C684 C 0.47021 0.16272 0.84198 0.0
C685 C 0.48983 0.23136 0.85453 0.0
C686 C 0.49532 0.20644 0.87971 0.0
C687 C 0.49617 0.14641 0.89669 0.0
C688 C 0.48939 0.11145 0.8897 0.0
C689 C 0.48693 0.17193 0.87308 0.0
C690 C 0.47257 0.10225 0.85885 0.0
C691 C 0.46278 0.12778 0.83523 0.0
H692 H 0.79385 0.53672 0.83517 0.0
H693 H 0.84952 0.62415 0.7943 0.0
H694 H 0.89975 0.60888 0.83019 0.0
H695 H 0.92777 0.5687 0.87192 0.0
H696 H 0.87054 0.48066 0.90956 0.0
H697 H 0.82071 0.49759 0.87508 0.0
C698 C 0.81649 0.55325 0.83494 0.0
C699 C 0.81771 0.58218 0.81314 0.0
C700 C 0.8452 0.54338 0.85399 0.0
C701 C 0.84784 0.60232 0.81176 0.0
C702 C 0.87659 0.59324 0.83176 0.0
C703 C 0.90457 0.55297 0.87174 0.0
C704 C 0.90257 0.52331 0.89257 0.0
C705 C 0.87573 0.56335 0.85245 0.0
C706 C 0.8724 0.50336 0.89321 0.0
C707 C 0.84392 0.51322 0.87392 0.0
H708 H 0.66874 0.75019 0.03928 0.0
H709 H 0.72757 0.68491 0.10816 0.0
H710 H 0.68534 0.63841 0.10025 0.0
H711 H 0.63709 0.6142 0.0665 0.0
H712 H 0.57987 0.68009 0.9972 0.0
H713 H 0.61672 0.7291 0.01251 0.0
C714 C 0.67187 0.72643 0.05384 0.0
C715 C 0.70166 0.72081 0.07385 0.0
C716 C 0.6485 0.69971 0.04811 0.0
C717 C 0.70508 0.68962 0.09222 0.0
C718 C 0.68121 0.66298 0.08739 0.0
C719 C 0.63299 0.63929 0.05469 0.0
C720 C 0.60685 0.64361 0.03 0.0
C721 C 0.65394 0.66724 0.06392 0.0
C722 C 0.60048 0.67632 0.01576 0.0
C723 C 0.62129 0.70425 0.02467 0.0
H724 H 0.27963 0.67122 0.03438 0.0
H725 H 0.33902 0.73434 0.10483 0.0
H726 H 0.38883 0.69601 0.09688 0.0
H727 H 0.41681 0.64847 0.06443 0.0
H728 H 0.35604 0.58673 0.99405 0.0
H729 H 0.30499 0.62114 1.0074 0.0
C730 C 0.30289 0.67607 0.04921 0.0
C731 C 0.30562 0.70574 0.07009 0.0
C732 C 0.33138 0.65482 0.04364 0.0
C733 C 0.33638 0.71174 0.08844 0.0
C734 C 0.3649 0.69009 0.08361 0.0
C735 C 0.39238 0.64288 0.05191 0.0
C736 C 0.39007 0.61581 0.02777 0.0
C737 C 0.36304 0.66243 0.06012 0.0
C738 C 0.35828 0.60784 0.0124 0.0
C739 C 0.32913 0.62729 0.02017 0.0
H740 H 0.35342 0.29313 1.00441 0.0
H741 H 0.29528 0.34736 0.08285 0.0
H742 H 0.33599 0.39566 0.08022 0.0
H743 H 0.38569 0.42361 0.05272 0.0
H744 H 0.44494 0.36817 0.97617 0.0
H745 H 0.40607 0.31848 0.9812 0.0
C746 C 0.35016 0.31502 0.02171 0.0
C747 C 0.3214 0.31682 0.04372 0.0
C748 C 0.37343 0.34248 0.01997 0.0
C749 C 0.31713 0.34567 0.06546 0.0
C750 C 0.34028 0.37322 0.06391 0.0
C751 C 0.38986 0.40064 0.03707 0.0
C752 C 0.41738 0.39944 0.01361 0.0
C753 C 0.36796 0.3722 0.04062 0.0
C754 C 0.4235 0.36945 0.99412 0.0
C755 C 0.40143 0.34117 0.99705 0.0
H756 H 0.72944 0.35236 0.05937 0.0
H757 H 0.66241 0.27762 1.00948 0.0
H758 H 0.61908 0.32135 1.00149 0.0
H759 H 0.60219 0.38096 1.0024 0.0
H760 H 0.66845 0.45848 0.04791 0.0
H761 H 0.71131 0.41364 0.06139 0.0
C762 C 0.70538 0.34557 0.04677 0.0
C763 C 0.69962 0.31142 0.03521 0.0
C764 C 0.68094 0.37151 0.04014 0.0
C765 C 0.66774 0.30316 0.01969 0.0
C766 C 0.64297 0.32841 0.0143 0.0
C767 C 0.6259 0.38827 0.01546 0.0
C768 C 0.63219 0.42293 0.02414 0.0
C769 C 0.64977 0.36268 0.02345 0.0
C770 C 0.66325 0.43191 0.04059 0.0
C771 C 0.6875 0.40628 0.04865 0.0
H772 H 0.04421 0.67874 0.7369 0.0
H773 H 0.11215 0.73978 0.67282 0.0
H774 H 0.10007 0.70134 0.62368 0.0
H775 H 0.06515 0.65384 0.59824 0.0
H776 H 0.99603 0.59602 0.66399 0.0
H777 H 0.01331 0.63065 0.7136 0.0
C778 C 0.05766 0.68312 0.7127 0.0
C779 C 0.07925 0.71203 0.7086 0.0
C780 C 0.04933 0.6623 0.68467 0.0
C781 C 0.09554 0.71755 0.6766 0.0
C782 C 0.08823 0.69595 0.64847 0.0
C783 C 0.05364 0.64934 0.62341 0.0
C784 C 0.029 0.62304 0.62766 0.0
C785 C 0.06406 0.66909 0.65196 0.0
C786 C 0.0148 0.61649 0.66032 0.0
C787 C 0.02487 0.63599 0.68865 0.0
H788 H 0.28193 0.03021 0.66653 0.0
H789 H 0.34102 0.09674 0.73406 0.0
H790 H 0.38995 0.09369 0.69406 0.0
H791 H 0.41735 0.06705 0.64281 0.0
H792 H 0.35666 1.00102 0.57624 0.0
H793 H 0.30645 1.0093 0.61318 0.0
C794 C 0.30492 0.04525 0.6721 0.0
C795 C 0.30778 0.06367 0.70333 0.0
C796 C 0.33284 0.04284 0.64953 0.0
C797 C 0.33826 0.08218 0.71028 0.0
C798 C 0.36627 0.08026 0.68756 0.0
C799 C 0.39309 0.05451 0.63654 0.0
C800 C 0.39069 0.03304 0.60728 0.0
C801 C 0.36419 0.05964 0.65773 0.0
C802 C 0.35906 0.01751 0.59879 0.0
C803 C 0.33037 0.02228 0.61982 0.0
H804 H 1.01033 0.34132 0.72423 0.0
H805 H 0.92677 0.2929 0.66849 0.0
H806 H 0.93536 0.33323 0.62026 0.0
H807 H 0.9678 0.38147 0.59423 0.0
H808 H 0.05028 0.42976 0.65144 0.0
H809 H 0.04121 0.38967 0.69937 0.0
C810 C 0.99332 0.34016 0.70196 0.0
C811 C 0.96758 0.31476 0.69995 0.0
C812 C 0.99879 0.36274 0.67458 0.0
C813 C 0.94651 0.31266 0.6705 0.0
C814 C 0.9516 0.33541 0.64298 0.0
C815 C 0.98405 0.3826 0.61699 0.0
C816 C 1.00991 0.40776 0.6195 0.0
C817 C 0.97803 0.36019 0.64462 0.0
C818 C 0.03041 0.41013 0.64924 0.0
C819 C 0.0251 0.3875 0.67656 0.0
H820 H 0.71972 0.99785 0.69081 0.0
H821 H 0.67377 0.89913 0.71447 0.0
H822 H 0.62246 0.91477 0.68015 0.0
H823 H 0.59125 0.9576 0.64378 0.0
H824 H 0.63865 0.05635 0.62268 0.0
H825 H 0.68888 0.04021 0.65711 0.0
C826 C 0.69885 0.97934 0.68768 0.0
C827 C 0.70075 0.94695 0.70382 0.0
C828 C 0.66945 0.98913 0.66964 0.0
C829 C 0.67302 0.92377 0.70116 0.0
C830 C 0.64366 0.93296 0.68212 0.0
C831 C 0.61223 0.97578 0.64776 0.0
C832 C 0.61142 1.00827 0.63156 0.0
C833 C 0.64147 0.96583 0.66665 0.0
C834 C 0.63887 0.03148 0.63562 0.0
C835 C 0.66764 0.02209 0.65478 0.0
H836 H 1.01069 0.35039 0.29193 0.0
H837 H 0.08702 0.29297 0.34944 0.0
H838 H 0.0815 0.33378 0.39771 0.0
H839 H 0.05298 0.38435 0.42391 0.0
H840 H 0.97794 0.44196 0.36487 0.0
H841 H 0.98509 0.40223 0.31627 0.0
C842 C 0.02693 0.34732 0.31457 0.0
C843 C 0.04949 0.31901 0.31709 0.0
C844 C 0.02339 0.37046 0.34196 0.0
C845 C 0.06953 0.31472 0.34703 0.0
C846 C 0.06625 0.33787 0.37458 0.0
C847 C 0.03802 0.38789 0.40047 0.0
C848 C 0.01464 0.4155 0.39788 0.0
C849 C 0.04276 0.36543 0.3725 0.0
C850 C 0.99594 0.42061 0.36728 0.0
C851 C 1.00008 0.39806 0.33955 0.0
H852 H 0.69046 0.0178 0.30357 0.0
H853 H 0.71552 0.91549 0.33985 0.0
H854 H 0.68233 0.92604 0.39313 0.0
H855 H 0.64578 0.96501 0.42862 0.0
H856 H 0.62234 0.0674 0.39124 0.0
H857 H 0.65667 0.05689 0.33929 0.0
C858 C 0.68797 0.99758 0.32289 0.0
C859 C 0.70415 0.96558 0.31769 0.0
C860 C 0.67034 1.0044 0.35351 0.0
C861 C 0.70222 0.93993 0.34323 0.0
C862 C 0.68378 0.94618 0.37371 0.0
C863 C 0.64931 0.98524 0.40951 0.0
C864 C 0.63257 0.01717 0.41368 0.0
C865 C 0.66803 0.9785 0.37923 0.0
C866 C 0.6359 0.04299 0.38853 0.0
C867 C 0.65497 0.03679 0.35874 0.0
H868 H 0.02904 0.73773 0.34132 0.0
H869 H 0.09262 0.66899 0.28039 0.0
H870 H 0.08488 0.62335 0.32374 0.0
H871 H 0.05597 0.60237 0.37638 0.0
H872 H 0.99273 0.67245 0.43619 0.0
H873 H 1.00487 0.71895 0.39543 0.0
C874 C 0.04241 0.71328 0.33794 0.0
C875 C 0.06168 0.7068 0.30785 0.0
C876 C 0.03731 0.68741 0.36229 0.0
C877 C 0.07773 0.6745 0.30345 0.0
C878 C 0.07311 0.64845 0.32803 0.0
C879 C 0.0447 0.6278 0.38026 0.0
C880 C 0.02299 0.63405 0.40867 0.0
C881 C 0.05208 0.65441 0.35699 0.0
C882 C 1.00927 0.66717 0.41421 0.0
C883 C 0.01628 0.69369 0.39107 0.0
H884 H 0.35503 1.00056 0.28466 0.0
H885 H 0.29775 0.92676 0.34575 0.0
H886 H 0.33904 0.93374 0.39315 0.0
H887 H 0.38822 0.965 0.41853 0.0
H888 H 0.44577 0.0373 0.3562 0.0
H889 H 0.40738 0.02637 0.30724 0.0
C890 C 0.35211 0.98499 0.30779 0.0
C891 C 0.32334 0.96324 0.31178 0.0
C892 C 0.37553 0.98937 0.33474 0.0
C893 C 0.3196 0.9439 0.3423 0.0
C894 C 0.34305 0.94799 0.36936 0.0
C895 C 0.39216 0.97833 0.39418 0.0
C896 C 0.41903 1.00238 0.39082 0.0
C897 C 0.37042 0.97151 0.36619 0.0
C898 C 0.42486 0.01891 0.35914 0.0
C899 C 0.40306 0.01263 0.33127 0.0
H900 H 0.98682 0.22518 0.33165 0.0
H901 H 0.04657 0.16642 0.25834 0.0
H902 H 0.04259 0.11521 0.29608 0.0
H903 H 0.02891 0.09002 0.35424 0.0
H904 H 0.98124 0.15588 0.43086 0.0
H905 H 0.97465 0.20153 0.38835 0.0
C906 C 0.99852 0.20095 0.32355 0.0
C907 C 0.01713 0.19978 0.29221 0.0
C908 C 0.99912 0.17309 0.34676 0.0
C909 C 0.03183 0.16809 0.28206 0.0
C910 C 0.03012 0.13903 0.30406 0.0
C911 C 0.01692 0.11431 0.36153 0.0
C912 C 1.00483 0.11901 0.39581 0.0
C913 C 0.01506 0.14167 0.33719 0.0
C914 C 0.99006 0.15101 0.40479 0.0
C915 C 0.98634 0.17729 0.3804 0.0
H916 H 0.79499 0.02679 0.32291 0.0
H917 H 0.85158 0.95723 0.25695 0.0
H918 H 0.90157 0.96085 0.29608 0.0
H919 H 0.92568 0.97731 0.35379 0.0
H920 H 0.86371 0.03957 0.42264 0.0
H921 H 0.81909 0.04458 0.3784 0.0
C922 C 0.81875 0.01333 0.3165 0.0
C923 C 0.81969 0.9921 0.28677 0.0
C924 C 0.84595 0.0132 0.34053 0.0
C925 C 0.85036 0.97428 0.27916 0.0
C926 C 0.87866 0.97581 0.302 0.0
C927 C 0.90246 0.99211 0.35894 0.0
C928 C 0.89791 1.00778 0.39172 0.0
C929 C 0.8762 0.99402 0.33354 0.0
C930 C 0.86764 0.02678 0.398 0.0
C931 C 0.84223 0.02992 0.37256 0.0
H932 H 0.0822 0.83293 0.30155 0.0
H933 H 0.97612 0.82325 0.26947 0.0
H934 H 0.95896 0.86553 0.3137 0.0
H935 H 0.97337 0.89911 0.36727 0.0
H936 H 0.07816 0.8985 0.40456 0.0
H937 H 0.09638 0.86505 0.35401 0.0
C938 C 0.05529 0.8404 0.30384 0.0
C939 C 0.0305 0.82439 0.28229 0.0
C940 C 0.04522 0.86169 0.33157 0.0
C941 C 0.99592 0.83512 0.2853 0.0
C942 C 0.98598 0.85871 0.31125 0.0
C943 C 1.00004 0.89109 0.36443 0.0
C944 C 0.02433 0.9004 0.39004 0.0
C945 C 1.01017 0.87088 0.3356 0.0
C946 C 0.05893 0.8907 0.38575 0.0
C947 C 0.0694 0.87202 0.3566 0.0
H948 H 0.20229 0.93958 0.32016 0.0
H949 H 0.19007 0.03827 0.26982 0.0
H950 H 0.14238 0.05251 0.30941 0.0
H951 H 0.10886 0.03933 0.36345 0.0
H952 H 0.1305 0.94466 0.41826 0.0
H953 H 0.17065 0.92697 0.37291 0.0
C954 C 0.18908 0.96421 0.31756 0.0
C955 C 0.20023 0.98796 0.29215 0.0
C956 C 0.16406 0.97336 0.34218 0.0
C957 C 0.18211 0.01934 0.28883 0.0
C958 C 0.15523 0.02773 0.31197 0.0
C959 C 0.12263 0.01498 0.36541 0.0
C960 C 0.11714 0.99347 0.39445 0.0
C961 C 0.14687 1.00548 0.33963 0.0
C962 C 0.13484 0.96189 0.3966 0.0
C963 C 0.15753 0.95162 0.37048 0.0
H964 H 1.00286 0.78741 0.68359 0.0
H965 H 0.04129 0.86012 0.75874 0.0
H966 H 0.03145 0.90781 0.71789 0.0
H967 H 0.02007 0.92724 0.65787 0.0
H968 H 0.98747 0.85246 0.58142 0.0
H969 H 0.98775 0.80715 0.62531 0.0
C970 C 1.00804 0.8139 0.69142 0.0
C971 C 0.02261 0.8202 0.72435 0.0
C972 C 1.00455 0.84065 0.667 0.0
C973 C 0.02956 0.85456 0.73393 0.0
C974 C 0.02455 0.88172 0.71024 0.0
C975 C 0.01268 0.90111 0.65077 0.0
C976 C 1.00407 0.89342 0.61599 0.0
C977 C 0.01345 0.87485 0.6762 0.0
C978 C 0.99466 0.85927 0.60761 0.0
C979 C 0.9946 0.8333 0.63284 0.0
H980 H 0.22277 0.99237 0.68434 0.0
H981 H 0.15765 0.04401 0.75834 0.0
H982 H 0.10827 0.03859 0.71862 0.0
H983 H 0.08596 0.02595 0.65936 0.0
H984 H 0.15458 0.97996 0.58426 0.0
H985 H 0.20026 0.97699 0.62742 0.0
C986 C 0.19746 1.00151 0.6922 0.0
C987 C 0.19379 0.01824 0.72443 0.0
C988 C 0.17007 1.00031 0.66842 0.0
C989 C 0.16103 0.03046 0.73404 0.0
C990 C 0.13299 0.0279 0.711 0.0
C991 C 0.11084 0.01505 0.65256 0.0
C992 C 0.11686 1.00363 0.6183 0.0
C993 C 0.13753 0.01404 0.67755 0.0
C994 C 0.14931 0.98958 0.61005 0.0
C995 C 0.17544 0.9876 0.63485 0.0
H996 H 0.93672 0.19356 0.69871 0.0
H997 H 0.03734 0.18328 0.74494 0.0
H998 H 0.05125 0.13648 0.70398 0.0
H999 H 0.0373 0.10424 0.6493 0.0
H1000 H 0.94081 0.12519 0.59787 0.0
H1001 H 0.92333 0.16318 0.6453 0.0
C1002 C 0.96158 0.1807 0.70027 0.0
C1003 C 0.98602 0.19225 0.72483 0.0
C1004 C 0.9706 0.1567 0.67453 0.0
C1005 C 0.01787 0.1749 0.72667 0.0
C1006 C 0.02608 0.14865 0.70266 0.0
C1007 C 0.01258 0.1174 0.64854 0.0
C1008 C 0.99048 0.11237 0.61988 0.0
C1009 C 1.00321 0.14042 0.67549 0.0
C1010 C 0.95846 0.12924 0.61924 0.0
C1011 C 0.94832 0.15063 0.64655 0.0
H1012 H 0.78676 1.00702 0.6807 0.0
H1013 H 0.85391 0.95755 0.75427 0.0
H1014 H 0.90327 0.96648 0.71519 0.0
H1015 H 0.92562 0.98224 0.6568 0.0
H1016 H 0.85565 0.02696 0.58226 0.0
H1017 H 0.80916 0.02535 0.62459 0.0
C1018 C 0.8124 0.99888 0.68855 0.0
C1019 C 0.81664 0.98173 0.72048 0.0
C1020 C 0.84002 1.00242 0.66523 0.0
C1021 C 0.84996 0.97121 0.73016 0.0
C1022 C 0.87806 0.97586 0.7075 0.0
C1023 C 0.90028 0.99194 0.6499 0.0
C1024 C 0.89429 1.00448 0.61602 0.0
C1025 C 0.87317 0.99041 0.67443 0.0
C1026 C 0.86114 0.01677 0.60775 0.0
C1027 C 0.83447 0.01604 0.63208 0.0
H1028 H 0.32903 0.03147 0.22045 0.0
H1029 H 0.26262 0.96307 0.16302 0.0
H1030 H 0.30122 0.96761 0.11268 0.0
H1031 H 0.35847 0.98438 0.08839 0.0
H1032 H 0.42763 0.04616 0.15051 0.0
H1033 H 0.38403 0.05008 0.19587 0.0
C1034 C 0.32239 0.01847 0.19645 0.0
C1035 C 0.2927 0.99727 0.19539 0.0
C1036 C 0.34606 0.01899 0.1689 0.0
C1037 C 0.28479 0.98009 0.16437 0.0
C1038 C 0.30734 0.98214 0.13586 0.0
C1039 C 0.36388 0.99894 0.11176 0.0
C1040 C 0.39659 0.01477 0.11605 0.0
C1041 C 0.33881 1.00035 0.13835 0.0
C1042 C 0.40308 0.03333 0.14661 0.0
C1043 C 0.37798 0.03582 0.17249 0.0
H1044 H 0.07644 0.31796 0.19393 0.0
H1045 H 0.97516 0.27224 0.18886 0.0
H1046 H 0.95961 0.31212 0.14185 0.0
H1047 H 0.97257 0.36583 0.10771 0.0
H1048 H 0.07067 0.41641 0.12234 0.0
H1049 H 0.08925 0.37003 0.16097 0.0
C1050 C 0.05105 0.31629 0.1822 0.0
C1051 C 0.02694 0.29219 0.19529 0.0
C1052 C 0.04131 0.34132 0.15776 0.0
C1053 C 0.9944 0.29016 0.1793 0.0
C1054 C 0.98527 0.31355 0.15288 0.0
C1055 C 0.99788 0.36664 0.11963 0.0
C1056 C 0.02007 0.39484 0.11273 0.0
C1057 C 1.00801 0.34026 0.14295 0.0
C1058 C 0.05293 0.39546 0.12792 0.0
C1059 C 0.06368 0.36874 0.14969 0.0
H1060 H 0.68375 0.02556 0.22195 0.0
H1061 H 0.75427 0.96282 0.16293 0.0
H1062 H 0.71674 0.96839 0.11185 0.0
H1063 H 0.65976 0.98535 0.08634 0.0
H1064 H 0.58791 0.0431 0.14935 0.0
H1065 H 0.62955 0.04478 0.19633 0.0
C1066 C 0.69131 0.01364 0.19768 0.0
C1067 C 0.72184 0.99375 0.19635 0.0
C1068 C 0.66875 0.0154 0.16924 0.0
C1069 C 0.73121 0.97858 0.16466 0.0
C1070 C 0.7094 0.98136 0.1356 0.0
C1071 C 0.6534 0.9986 0.11023 0.0
C1072 C 0.62041 0.01394 0.11417 0.0
C1073 C 0.67745 0.99874 0.13791 0.0
C1074 C 0.61273 0.03079 0.14549 0.0
C1075 C 0.63666 0.03189 0.17246 0.0
H1076 H 0.98633 0.68804 0.22153 0.0
H1077 H 0.04337 0.75795 0.15643 0.0
H1078 H 0.03606 0.7182 0.1073 0.0
H1079 H 0.02121 0.65956 0.08572 0.0
H1080 H 0.96991 0.58759 0.1539 0.0
H1081 H 0.96801 0.63165 0.19913 0.0
C1082 C 0.99628 0.69506 0.19626 0.0
C1083 C 0.01534 0.72602 0.19265 0.0
C1084 C 0.99405 0.67103 0.16901 0.0
C1085 C 0.02822 0.73465 0.15985 0.0
C1086 C 0.02459 0.71153 0.13195 0.0
C1087 C 1.00924 0.65357 0.11033 0.0
C1088 C 0.99597 0.61996 0.11635 0.0
C1089 C 1.00887 0.67897 0.13666 0.0
C1090 C 0.98072 0.61288 0.14854 0.0
C1091 C 0.97944 0.6382 0.17441 0.0
H1092 H 0.32815 0.98691 0.78851 0.0
H1093 H 0.25498 0.03987 0.85347 0.0
H1094 H 0.29417 0.03359 0.90312 0.0
H1095 H 0.35312 0.0206 0.9255 0.0
H1096 H 0.42787 0.97436 0.85663 0.0
H1097 H 0.38468 0.9709 0.81121 0.0
C1098 C 0.32035 0.99616 0.81384 0.0
C1099 C 0.2886 0.0137 0.81732 0.0
C1100 C 0.34392 0.99457 0.84139 0.0
C1101 C 0.27896 0.02583 0.85017 0.0
C1102 C 0.30172 0.02279 0.87838 0.0
C1103 C 0.35986 1.00944 0.90067 0.0
C1104 C 0.394 0.99782 0.89469 0.0
C1105 C 0.33492 1.0085 0.87393 0.0
C1106 C 0.4021 0.98364 0.86217 0.0
C1107 C 0.37729 0.98156 0.83607 0.0
H1108 H 0.03132 0.32443 0.79244 0.0
H1109 H 0.96292 0.25939 0.85126 0.0
H1110 H 0.96686 0.29978 0.90038 0.0
H1111 H 0.98309 0.35807 0.92302 0.0
H1112 H 0.0441 0.42606 0.85905 0.0
H1113 H 0.04884 0.3808 0.81516 0.0
C1114 C 0.0181 0.31854 0.81646 0.0
C1115 C 0.99703 0.28869 0.81821 0.0
C1116 C 0.01809 0.34329 0.84315 0.0
C1117 C 0.97976 0.28168 0.84933 0.0
C1118 C 0.98145 0.30525 0.87712 0.0
C1119 C 0.99757 0.36289 0.89952 0.0
C1120 C 0.01306 0.39569 0.8943 0.0
C1121 C 0.99934 0.33689 0.87375 0.0
C1122 C 0.03156 0.40143 0.86362 0.0
C1123 C 0.03451 0.37539 0.83861 0.0
H1124 H 0.68587 1.00989 0.78581 0.0
H1125 H 0.75696 0.9575 0.85338 0.0
H1126 H 0.71718 0.96633 0.90223 0.0
H1127 H 0.6585 0.98197 0.9235 0.0
H1128 H 0.58555 0.0277 0.8526 0.0
H1129 H 0.6292 0.02764 0.80715 0.0
C1130 C 0.69311 1.00131 0.81152 0.0
C1131 C 0.72453 0.98333 0.81602 0.0
C1132 C 0.66911 1.00424 0.83861 0.0
C1133 C 0.73334 0.97193 0.84931 0.0
C1134 C 0.71023 0.97642 0.87706 0.0
C1135 C 0.65223 0.99218 0.89817 0.0
C1136 C 0.61848 1.0046 0.89152 0.0
C1137 C 0.67742 0.99133 0.87169 0.0
C1138 C 0.61095 0.01755 0.85844 0.0
C1139 C 0.63604 0.01777 0.83245 0.0
H1140 H 0.08602 0.71322 0.83679 0.0
H1141 H 0.9801 0.73795 0.81324 0.0
H1142 H 0.96072 0.69269 0.85325 0.0
H1143 H 0.97427 0.6412 0.89039 0.0
H1144 H 0.08065 0.61241 0.9055 0.0
H1145 H 0.09943 0.66271 0.87213 0.0
C1146 C 0.05859 0.709 0.8405 0.0
C1147 C 0.03467 0.72906 0.82148 0.0
C1148 C 0.04774 0.68106 0.86114 0.0
C1149 C 0.99927 0.72346 0.82754 0.0
C1150 C 0.98816 0.69696 0.84995 0.0
C1151 C 1.0015 0.64583 0.88587 0.0
C1152 C 0.02612 0.62267 0.89969 0.0
C1153 C 0.01216 0.6747 0.86591 0.0
C1154 C 0.0613 0.62931 0.89435 0.0
C1155 C 0.07203 0.65833 0.87564 0.0
H1156 H 0.2016 0.32065 0.07265 0.0
H1157 H 0.18662 0.27191 0.97353 0.0
H1158 H 0.13841 0.3116 0.96152 0.0
H1159 H 0.10576 0.36569 0.97634 0.0
H1160 H 0.12976 0.41908 0.07132 0.0
H1161 H 0.17006 0.37315 0.08727 0.0
C1162 C 0.1875 0.31831 0.04852 0.0
C1163 C 0.19808 0.29342 0.0239 0.0
C1164 C 0.1622 0.34309 0.04059 0.0
C1165 C 0.17905 0.2905 0.99309 0.0
C1166 C 0.1519 0.31373 0.98597 0.0
C1167 C 0.11998 0.36717 1.00044 0.0
C1168 C 0.11519 0.39601 0.02247 0.0
C1169 C 0.14421 0.34107 1.00892 0.0
C1170 C 0.13355 0.39759 0.05368 0.0
C1171 C 0.15631 0.37114 0.06295 0.0
H1172 H 0.22337 0.68743 0.99788 0.0
H1173 H 0.15642 0.7611 0.04765 0.0
H1174 H 0.10741 0.72114 0.04066 0.0
H1175 H 0.08567 0.66187 0.02708 0.0
H1176 H 0.15579 0.58704 0.98278 0.0
H1177 H 0.20144 0.63036 0.98157 0.0
C1178 C 0.19776 0.69518 1.00622 0.0
C1179 C 0.19347 0.72746 0.02284 0.0
C1180 C 0.17047 0.67125 1.00407 0.0
C1181 C 0.16031 0.73685 0.03413 0.0
C1182 C 0.13245 0.71365 0.03067 0.0
C1183 C 0.11085 0.65512 0.01687 0.0
C1184 C 0.11718 0.62087 1.00533 0.0
C1185 C 0.13751 0.68023 0.01682 0.0
C1186 C 0.15011 0.6128 0.9923 0.0
C1187 C 0.17627 0.63771 0.99137 0.0
H1188 H 0.32743 0.22107 0.97569 0.0
H1189 H 0.26224 0.16753 0.04812 0.0
H1190 H 0.30048 0.11673 0.04522 0.0
H1191 H 0.35745 0.09134 0.02866 0.0
H1192 H 0.42551 0.15007 0.96268 0.0
H1193 H 0.38189 0.19528 0.9572 0.0
C1194 C 0.32099 0.1978 0.99002 0.0
C1195 C 0.29183 0.19804 0.01192 0.0
C1196 C 0.34451 0.1701 0.99036 0.0
C1197 C 0.28407 0.1679 0.03064 0.0
C1198 C 0.30641 0.13914 0.02949 0.0
C1199 C 0.36257 0.11395 0.0129 0.0
C1200 C 0.39499 0.11743 0.99639 0.0
C1201 C 0.33753 0.14055 1.01061 0.0
C1202 C 0.40118 0.14693 0.97614 0.0
C1203 C 0.37608 0.1727 0.97275 0.0
H1204 H 0.7947 0.32809 0.96612 0.0
H1205 H 0.85108 0.2576 0.03114 0.0
H1206 H 0.90111 0.29672 0.03016 0.0
H1207 H 0.92502 0.35535 0.01829 0.0
H1208 H 0.86414 0.42803 0.95945 0.0
H1209 H 0.81944 0.38433 0.9514 0.0
C1210 C 0.81837 0.3208 0.97924 0.0
C1211 C 0.81913 0.28989 0.99867 0.0
C1212 C 0.84578 0.34459 0.98075 0.0
C1213 C 0.84989 0.2809 0.01564 0.0
C1214 C 0.87824 0.30368 0.01564 0.0
C1215 C 0.9021 0.36152 1.00345 0.0
C1216 C 0.89789 0.39524 0.98983 0.0
C1217 C 0.87587 0.33633 0.99958 0.0
C1218 C 0.86794 0.40266 0.97072 0.0
C1219 C 0.84242 0.37753 0.96586 0.0
H1220 H 0.69188 0.79391 0.99447 0.0
H1221 H 0.76258 0.86412 0.04396 0.0
H1222 H 0.72112 0.91171 0.03638 0.0
H1223 H 0.66126 0.93089 0.02357 0.0
H1224 H 0.58848 0.8574 0.98152 0.0
H1225 H 0.63365 0.81335 0.97932 0.0
C1226 C 0.69873 0.81999 1.00236 0.0
C1227 C 0.73065 0.8256 0.01912 0.0
C1228 C 0.67364 0.84629 1.00057 0.0
C1229 C 0.73875 0.85926 0.03015 0.0
C1230 C 0.71462 0.88626 0.02651 0.0
C1231 C 0.6553 0.90532 0.01364 0.0
C1232 C 0.6212 0.89754 1.00294 0.0
C1233 C 0.6814 0.87971 0.01312 0.0
C1234 C 0.61415 0.86413 0.99037 0.0
C1235 C 0.64011 0.83896 0.98881 0.0
H1236 H 0.82441 0.70144 0.07633 0.0
H1237 H 0.82057 0.74202 0.97261 0.0
H1238 H 0.86352 0.69879 0.95432 0.0
H1239 H 0.89852 0.64541 0.96721 0.0
H1240 H 0.89248 0.60078 0.06912 0.0
H1241 H 0.85573 0.64843 0.08833 0.0
C1242 C 0.8327 0.70092 0.04955 0.0
C1243 C 0.81858 0.72487 0.02585 0.0
C1244 C 0.85493 0.67436 0.0387 0.0
C1245 C 0.83086 0.72425 0.99161 0.0
C1246 C 0.85504 0.69905 0.981 0.0
C1247 C 0.88865 0.64605 0.99344 0.0
C1248 C 0.89766 0.61931 0.01668 0.0
C1249 C 0.86647 0.67325 1.0041 0.0
C1250 C 0.88524 0.6206 0.05068 0.0
C1251 C 0.86457 0.64805 0.06174 0.0
H1252 H 0.33034 0.78903 0.99684 0.0
H1253 H 0.25541 0.85693 0.04336 0.0
H1254 H 0.29543 0.90595 0.03693 0.0
H1255 H 0.3549 0.92749 0.02512 0.0
H1256 H 0.43091 0.85664 0.98419 0.0
H1257 H 0.38778 0.81076 0.98221 0.0
C1258 C 0.32238 0.81481 1.00469 0.0
C1259 C 0.28978 0.81933 0.02039 0.0
C1260 C 0.34632 0.84213 1.00298 0.0
C1261 C 0.28 0.85279 0.03071 0.0
C1262 C 0.30322 0.88067 0.0276 0.0
C1263 C 0.36198 0.90207 0.01555 0.0
C1264 C 0.39646 0.89558 1.00521 0.0
C1265 C 0.33697 0.87535 0.015 0.0
C1266 C 0.40496 0.86239 0.9929 0.0
C1267 C 0.38016 0.83613 0.99148 0.0
H1268 H 0.68855 0.22068 0.97248 0.0
H1269 H 0.7577 0.16086 0.03576 0.0
H1270 H 0.71747 0.11158 0.03342 0.0
H1271 H 0.65883 0.08888 0.01997 0.0
H1272 H 0.58757 0.1531 0.96299 0.0
H1273 H 0.63187 0.19759 0.95708 0.0
C1274 C 0.69533 0.19639 0.98482 0.0
C1275 C 0.72635 0.19427 1.00388 0.0
C1276 C 0.67098 0.16944 0.98554 0.0
C1277 C 0.73448 0.16295 0.02033 0.0
C1278 C 0.71107 0.13506 0.01953 0.0
C1279 C 0.65307 0.1125 1.00602 0.0
C1280 C 0.61962 0.11763 0.99215 0.0
C1281 C 0.67861 0.13853 1.00337 0.0
C1282 C 0.61273 0.14854 0.97434 0.0
C1283 C 0.6382 0.17393 0.9707 0.0
H1284 H 0.50862 0.73773 0.83036 0.0
H1285 H 0.46299 0.66508 0.75941 0.0
H1286 H 0.47227 0.61812 0.80131 0.0
H1287 H 0.486 0.59969 0.86128 0.0
H1288 H 0.52366 0.67528 0.93443 0.0
H1289 H 0.52351 0.71942 0.88919 0.0
C1290 C 0.50157 0.71139 0.82372 0.0
C1291 C 0.48553 0.70487 0.79153 0.0
C1292 C 0.50427 0.68536 0.84902 0.0
C1293 C 0.47611 0.67072 0.78349 0.0
C1294 C 0.48074 0.64405 0.80784 0.0
C1295 C 0.49437 0.62578 0.86734 0.0
C1296 C 0.50466 0.63407 0.90153 0.0
C1297 C 0.49352 0.65136 0.84121 0.0
C1298 C 0.51519 0.66814 0.9087 0.0
C1299 C 0.51541 0.69335 0.88269 0.0
H1300 H 0.29672 0.52911 0.83337 0.0
H1301 H 0.36208 0.47637 0.76035 0.0
H1302 H 0.41137 0.48264 0.8001 0.0
H1303 H 0.43361 0.49641 0.85927 0.0
H1304 H 0.36433 0.54226 0.93383 0.0
H1305 H 0.31879 0.54455 0.89043 0.0
C1306 C 0.32205 0.51984 0.82571 0.0
C1307 C 0.32572 0.50256 0.7937 0.0
C1308 C 0.34932 0.52125 0.84967 0.0
C1309 C 0.35859 0.49032 0.7844 0.0
C1310 C 0.38659 0.49334 0.80751 0.0
C1311 C 0.4086 0.50709 0.86592 0.0
C1312 C 0.40245 0.51887 0.9001 0.0
C1313 C 0.38193 0.50758 0.84081 0.0
C1314 C 0.36978 0.53251 0.90813 0.0
C1315 C 0.34373 0.5341 0.88317 0.0
H1316 H 0.54385 0.31174 0.82697 0.0
H1317 H 0.47557 0.37037 0.76173 0.0
H1318 H 0.47958 0.41984 0.80167 0.0
H1319 H 0.4958 0.44282 0.85964 0.0
H1320 H 0.55807 0.37972 0.92738 0.0
H1321 H 0.56252 0.33543 0.88256 0.0
C1322 C 0.53092 0.33589 0.82083 0.0
C1323 C 0.50998 0.33759 0.791 0.0
C1324 C 0.53127 0.36297 0.84519 0.0
C1325 C 0.49255 0.36865 0.7839 0.0
C1326 C 0.4943 0.39664 0.80721 0.0
C1327 C 0.51066 0.41953 0.86446 0.0
C1328 C 0.52641 0.41463 0.89714 0.0
C1329 C 0.51244 0.39356 0.83867 0.0
C1330 C 0.54532 0.38412 0.90285 0.0
C1331 C 0.54808 0.35883 0.87707 0.0
H1332 H 0.73204 0.52287 0.8365 0.0
H1333 H 0.66516 0.56901 0.76063 0.0
H1334 H 0.61574 0.5622 0.80016 0.0
H1335 H 0.59321 0.54913 0.85943 0.0
H1336 H 0.66356 0.50884 0.93609 0.0
H1337 H 0.7099 0.50819 0.89363 0.0
C1338 C 0.70648 0.5308 0.82827 0.0
C1339 C 0.70236 0.54629 0.79548 0.0
C1340 C 0.67892 0.52876 0.85186 0.0
C1341 C 0.66906 0.55653 0.78537 0.0
C1342 C 0.64093 0.55315 0.8083 0.0
C1343 C 0.61864 0.54004 0.86678 0.0
C1344 C 0.62474 0.52936 0.9013 0.0
C1345 C 0.64577 0.54035 0.84212 0.0
C1346 C 0.65799 0.51772 0.91013 0.0
C1347 C 0.68457 0.51709 0.88571 0.0
H1348 H 0.4999 0.30001 0.18365 0.0
H1349 H 0.55924 0.35855 0.25745 0.0
H1350 H 0.55549 0.40988 0.21988 0.0
H1351 H 0.5413 0.43563 0.16224 0.0
H1352 H 0.48808 0.37276 0.08681 0.0
H1353 H 0.48428 0.32548 0.12824 0.0
C1354 C 0.5114 0.32427 0.19191 0.0
C1355 C 0.52977 0.32543 0.22341 0.0
C1356 C 0.51113 0.35263 0.16922 0.0
C1357 C 0.54458 0.357 0.23366 0.0
C1358 C 0.54291 0.38616 0.21182 0.0
C1359 C 0.52872 0.41162 0.15499 0.0
C1360 C 0.5153 0.40773 0.12115 0.0
C1361 C 0.52731 0.3839 0.17892 0.0
C1362 C 0.49915 0.37639 0.11228 0.0
C1363 C 0.4967 0.34937 0.13611 0.0
H1364 H 0.72833 0.55386 0.19115 0.0
H1365 H 0.66663 0.49829 0.26516 0.0
H1366 H 0.61692 0.50087 0.22571 0.0
H1367 H 0.5939 0.51162 0.16654 0.0
H1368 H 0.65968 0.56089 0.09105 0.0
H1369 H 0.70484 0.56739 0.1342 0.0
C1370 C 0.70372 0.543 0.19902 0.0
C1371 C 0.70129 0.52578 0.23109 0.0
C1372 C 0.67621 0.54253 0.17533 0.0
C1373 C 0.6692 0.51199 0.24089 0.0
C1374 C 0.64096 0.51293 0.21799 0.0
C1375 C 0.618 0.52403 0.15958 0.0
C1376 C 0.6232 0.53559 0.12525 0.0
C1377 C 0.6446 0.52687 0.18453 0.0
C1378 C 0.65477 0.55151 0.11694 0.0
C1379 C 0.68071 0.55537 0.14173 0.0
H1380 H 0.49495 0.73269 0.1995 0.0
H1381 H 0.56257 0.67023 0.26187 0.0
H1382 H 0.55445 0.62129 0.22194 0.0
H1383 H 0.53508 0.59959 0.1645 0.0
H1384 H 0.47368 0.66611 0.09931 0.0
H1385 H 0.47305 0.71031 0.14448 0.0
C1386 C 0.50695 0.70792 0.205 0.0
C1387 C 0.52904 0.70503 0.23394 0.0
C1388 C 0.50427 0.68103 0.18056 0.0
C1389 C 0.54493 0.67301 0.24034 0.0
C1390 C 0.54081 0.64527 0.21702 0.0
C1391 C 0.52124 0.62362 0.16031 0.0
C1392 C 0.5046 0.62949 0.12823 0.0
C1393 C 0.52173 0.64949 0.18626 0.0
C1394 C 0.48704 0.66093 0.12335 0.0
C1395 C 0.48648 0.68618 0.14934 0.0
H1396 H 0.30159 0.48693 0.19501 0.0
H1397 H 0.35803 0.55709 0.26043 0.0
H1398 H 0.40776 0.55379 0.22103 0.0
H1399 H 0.43127 0.53801 0.16327 0.0
H1400 H 0.36999 0.47464 0.09478 0.0
H1401 H 0.32579 0.46892 0.1394 0.0
C1402 C 0.32538 0.50038 0.20135 0.0
C1403 C 0.32635 0.52169 0.23104 0.0
C1404 C 0.35244 0.50068 0.17711 0.0
C1405 C 0.35688 0.53982 0.23838 0.0
C1406 C 0.38499 0.53852 0.21534 0.0
C1407 C 0.40838 0.52267 0.15823 0.0
C1408 C 0.40395 0.50694 0.12544 0.0
C1409 C 0.38245 0.52025 0.18386 0.0
C1410 C 0.37398 0.48738 0.11942 0.0
C1411 C 0.34876 0.48388 0.14508 0.0
H1412 H 0.83522 0.51444 0.73213 0.0
H1413 H 0.76367 0.56438 0.66317 0.0
H1414 H 0.8037 0.55498 0.61468 0.0
H1415 H 0.86243 0.53958 0.59394 0.0
H1416 H 0.93584 0.49574 0.66559 0.0
H1417 H 0.89217 0.49655 0.71112 0.0
C1418 C 0.82792 0.52231 0.70621 0.0
C1419 C 0.79626 0.53981 0.70123 0.0
C1420 C 0.85204 0.51896 0.6792 0.0
C1421 C 0.78743 0.5503 0.66765 0.0
C1422 C 0.81069 0.54549 0.64009 0.0
C1423 C 0.86885 0.52988 0.61943 0.0
C1424 C 0.90272 0.51776 0.62623 0.0
C1425 C 0.84364 0.53105 0.64585 0.0
C1426 C 0.91036 0.50557 0.65956 0.0
C1427 C 0.88525 0.50581 0.68561 0.0
H1428 H 0.42864 0.82454 0.69161 0.0
H1429 H 0.53264 0.78569 0.69988 0.0
H1430 H 0.55181 0.82852 0.65699 0.0
H1431 H 0.53962 0.88158 0.62145 0.0
H1432 H 0.43708 0.92494 0.62311 0.0
H1433 H 0.41702 0.87699 0.659 0.0
C1434 C 0.45562 0.82526 0.68411 0.0
C1435 C 0.47916 0.80197 0.69956 0.0
C1436 C 0.46687 0.85171 0.66196 0.0
C1437 C 0.51376 0.80291 0.68851 0.0
C1438 C 0.52484 0.82791 0.66439 0.0
C1439 C 0.513 0.88054 0.63005 0.0
C1440 C 0.48986 0.90702 0.62009 0.0
C1441 C 0.50183 0.85325 0.65181 0.0
C1442 C 0.45542 0.90529 0.63103 0.0
C1443 C 0.44389 0.87767 0.65123 0.0
H1444 H 0.21022 0.4459 0.69102 0.0
H1445 H 0.24802 0.55061 0.69671 0.0
H1446 H 0.2061 0.56813 0.65223 0.0
H1447 H 0.15318 0.55464 0.61698 0.0
H1448 H 0.11069 0.4516 0.6213 0.0
H1449 H 0.1587 0.43273 0.65761 0.0
C1450 C 0.20972 0.47255 0.6822 0.0
C1451 C 0.23225 0.4969 0.69752 0.0
C1452 C 0.18357 0.48295 0.6593 0.0
C1453 C 0.23139 0.53117 0.68531 0.0
C1454 C 0.20684 0.54132 0.66036 0.0
C1455 C 0.15447 0.52818 0.6262 0.0
C1456 C 0.12813 0.50457 0.61699 0.0
C1457 C 0.18182 0.51771 0.64821 0.0
C1458 C 0.13021 0.4703 0.62868 0.0
C1459 C 0.15787 0.45944 0.64911 0.0
H1460 H 0.54005 0.19843 0.72699 0.0
H1461 H 0.48072 0.27198 0.66826 0.0
H1462 H 0.48075 0.23221 0.61851 0.0
H1463 H 0.49085 0.1728 0.59486 0.0
H1464 H 0.5437 0.09771 0.65827 0.0
H1465 H 0.55197 0.14113 0.70324 0.0
C1466 C 0.52779 0.20614 0.70298 0.0
C1467 C 0.51037 0.23823 0.70145 0.0
C1468 C 0.52567 0.18216 0.67569 0.0
C1469 C 0.49468 0.24776 0.67012 0.0
C1470 C 0.49413 0.22465 0.64191 0.0
C1471 C 0.5043 0.16602 0.61847 0.0
C1472 C 0.51625 0.1317 0.62322 0.0
C1473 C 0.50832 0.19115 0.64489 0.0
C1474 C 0.53364 0.12353 0.65403 0.0
C1475 C 0.53868 0.1485 0.67971 0.0
H1476 H 0.82572 0.55346 0.30523 0.0
H1477 H 0.75881 0.48681 0.36385 0.0
H1478 H 0.79945 0.48867 0.41268 0.0
H1479 H 0.85831 0.50214 0.43479 0.0
H1480 H 0.92759 0.56223 0.37132 0.0
H1481 H 0.88235 0.56935 0.32806 0.0
C1482 C 0.81939 0.5405 0.3293 0.0
C1483 C 0.78889 0.52062 0.33118 0.0
C1484 C 0.84414 0.53938 0.35586 0.0
C1485 C 0.78153 0.50304 0.36205 0.0
C1486 C 0.80523 0.5035 0.38964 0.0
C1487 C 0.8634 0.51704 0.41162 0.0
C1488 C 0.89661 0.53136 0.40627 0.0
C1489 C 0.83732 0.52035 0.38623 0.0
C1490 C 0.90265 0.55046 0.37598 0.0
C1491 C 0.87663 0.5548 0.3513 0.0
H1492 H 0.59253 0.82664 0.32713 0.0
H1493 H 0.49195 0.77982 0.33612 0.0
H1494 H 0.47699 0.82129 0.38202 0.0
H1495 H 0.49012 0.87614 0.41411 0.0
H1496 H 0.58673 0.92806 0.39487 0.0
H1497 H 0.60505 0.8806 0.35723 0.0
C1498 C 0.56734 0.82519 0.33932 0.0
C1499 C 0.54328 0.80023 0.32768 0.0
C1500 C 0.55779 0.8511 0.36294 0.0
C1501 C 0.51114 0.79841 0.34448 0.0
C1502 C 0.50234 0.82267 0.37026 0.0
C1503 C 0.51506 0.87699 0.40143 0.0
C1504 C 0.53695 0.90576 0.40687 0.0
C1505 C 0.52493 0.85004 0.37866 0.0
C1506 C 0.56925 0.90658 0.39054 0.0
C1507 C 0.57985 0.87925 0.36934 0.0
H1508 H 0.18292 0.49399 0.29097 0.0
H1509 H 0.2598 0.54798 0.35074 0.0
H1510 H 0.22127 0.54713 0.40127 0.0
H1511 H 0.16259 0.53739 0.42605 0.0
H1512 H 0.08451 0.48919 0.3625 0.0
H1513 H 0.12608 0.48257 0.31569 0.0
C1514 C 0.19151 0.50524 0.3152 0.0
C1515 C 0.22422 0.52135 0.31684 0.0
C1516 C 0.16844 0.50663 0.34324 0.0
C1517 C 0.23501 0.5352 0.34867 0.0
C1518 C 0.21266 0.53522 0.37741 0.0
C1519 C 0.15472 0.52529 0.40201 0.0
C1520 C 0.12013 0.51416 0.39785 0.0
C1521 C 0.1788 0.52213 0.37462 0.0
C1522 C 0.11058 0.49855 0.36642 0.0
C1523 C 0.13448 0.49449 0.33963 0.0
H1524 H 0.49408 0.19337 0.29437 0.0
H1525 H 0.55889 0.26459 0.3502 0.0
H1526 H 0.55548 0.22737 0.40171 0.0
H1527 H 0.54066 0.17003 0.4278 0.0
H1528 H 0.48247 0.09651 0.3672 0.0
H1529 H 0.4774 0.13849 0.3205 0.0
C1530 C 0.50675 0.20122 0.31814 0.0
C1531 C 0.52668 0.23179 0.31842 0.0
C1532 C 0.50679 0.1785 0.34648 0.0
C1533 C 0.54303 0.24152 0.34936 0.0
C1534 C 0.54158 0.21984 0.37859 0.0
C1535 C 0.5267 0.16337 0.40443 0.0
C1536 C 0.51228 0.1299 0.40091 0.0
C1537 C 0.5247 0.18752 0.37698 0.0
C1538 C 0.49431 0.12171 0.37043 0.0
C1539 C 0.49117 0.14585 0.34377 0.0
H1540 H 0.69904 0.83061 0.59746 0.0
H1541 H 0.69361 0.78049 0.49791 0.0
H1542 H 0.6494 0.82234 0.47964 0.0
H1543 H 0.61653 0.87748 0.49025 0.0
H1544 H 0.63246 0.93211 0.5862 0.0
H1545 H 0.66963 0.88547 0.60694 0.0
C1546 C 0.68839 0.82869 0.57159 0.0
C1547 C 0.70039 0.80244 0.54899 0.0
C1548 C 0.66559 0.8546 0.56026 0.0
C1549 C 0.68506 0.80002 0.51609 0.0
C1550 C 0.66017 0.82446 0.5054 0.0
C1551 C 0.6285 0.87917 0.51553 0.0
C1552 C 0.62206 0.90846 0.5366 0.0
C1553 C 0.65108 0.8526 0.52686 0.0
C1554 C 0.63749 0.91026 0.56935 0.0
C1555 C 0.65846 0.88338 0.58132 0.0
H1556 H 0.70901 0.21446 0.56517 0.0
H1557 H 0.66335 0.27124 0.48122 0.0
H1558 H 0.61595 0.22919 0.47845 0.0
H1559 H 0.5942 0.17035 0.49233 0.0
H1560 H 0.64765 0.10886 0.56841 0.0
H1561 H 0.68626 0.15749 0.58072 0.0
C1562 C 0.68766 0.21855 0.54745 0.0
C1563 C 0.68959 0.24628 0.52368 0.0
C1564 C 0.66313 0.19201 0.54316 0.0
C1565 C 0.66227 0.25072 0.50025 0.0
C1566 C 0.63574 0.22597 0.49798 0.0
C1567 C 0.61427 0.16765 0.51168 0.0
C1568 C 0.6183 0.13573 0.52914 0.0
C1569 C 0.63709 0.19549 0.5179 0.0
C1570 C 0.64443 0.13273 0.5541 0.0
C1571 C 0.66621 0.16073 0.56146 0.0
H1572 H 0.82606 0.73231 0.51002 0.0
H1573 H 0.76153 0.66627 0.5719 0.0
H1574 H 0.80241 0.61821 0.56359 0.0
H1575 H 0.86077 0.59774 0.54541 0.0
H1576 H 0.92816 0.66809 0.49111 0.0
H1577 H 0.88272 0.71191 0.49073 0.0
C1578 C 0.82036 0.707 0.52071 0.0
C1579 C 0.79032 0.70279 0.54103 0.0
C1580 C 0.84539 0.68065 0.51832 0.0
C1581 C 0.78379 0.67007 0.5554 0.0
C1582 C 0.80766 0.64282 0.55126 0.0
C1583 C 0.86543 0.6226 0.53329 0.0
C1584 C 0.89817 0.62956 0.51845 0.0
C1585 C 0.83925 0.64824 0.53394 0.0
C1586 C 0.90363 0.66205 0.50311 0.0
C1587 C 0.87746 0.68707 0.50262 0.0
H1588 H 0.30311 0.83341 0.48708 0.0
H1589 H 0.3663 0.7664 0.54933 0.0
H1590 H 0.41474 0.80718 0.54412 0.0
H1591 H 0.43575 0.86612 0.52923 0.0
H1592 H 0.36831 0.93569 0.47393 0.0
H1593 H 0.32474 0.89028 0.46968 0.0
C1594 C 0.32803 0.82706 0.49823 0.0
C1595 C 0.33136 0.79645 0.51786 0.0
C1596 C 0.35455 0.85192 0.49752 0.0
C1597 C 0.36335 0.78915 0.53327 0.0
C1598 C 0.39076 0.81293 0.53091 0.0
C1599 C 0.41165 0.87125 0.51593 0.0
C1600 C 0.40537 0.90455 0.50204 0.0
C1601 C 0.38614 0.8451 0.51437 0.0
C1602 C 0.37383 0.91063 0.48517 0.0
C1603 C 0.34893 0.88453 0.48253 0.0
H1604 H 0.19141 0.30498 0.53317 0.0
H1605 H 0.2573 0.35867 0.46148 0.0
H1606 H 0.21942 0.40977 0.46475 0.0
H1607 H 0.16274 0.43584 0.48195 0.0
H1608 H 0.09441 0.37707 0.54761 0.0
H1609 H 0.13735 0.33118 0.55206 0.0
C1610 C 0.19802 0.32825 0.51893 0.0
C1611 C 0.22731 0.32798 0.4972 0.0
C1612 C 0.17485 0.35626 0.51899 0.0
C1613 C 0.23534 0.35826 0.47879 0.0
C1614 C 0.21322 0.38723 0.48018 0.0
C1615 C 0.15742 0.41307 0.49741 0.0
C1616 C 0.12507 0.40983 0.51416 0.0
C1617 C 0.18212 0.38602 0.49913 0.0
C1618 C 0.11867 0.38009 0.534 0.0
C1619 C 0.14338 0.35389 0.53679 0.0
H1620 H 0.32096 0.20699 0.43757 0.0
H1621 H 0.33361 0.25615 0.53679 0.0
H1622 H 0.38109 0.21608 0.55037 0.0
H1623 H 0.41334 0.16139 0.53694 0.0
H1624 H 0.39062 0.10705 0.44218 0.0
H1625 H 0.35165 0.15355 0.42459 0.0
C1626 C 0.33448 0.20939 0.46203 0.0
C1627 C 0.32339 0.23452 0.48621 0.0
C1628 C 0.35901 0.18418 0.47099 0.0
C1629 C 0.34161 0.23743 0.51752 0.0
C1630 C 0.36827 0.21394 0.52557 0.0
C1631 C 0.39965 0.15979 0.51254 0.0
C1632 C 0.4045 0.13055 0.49102 0.0
C1633 C 0.37613 0.18622 0.50312 0.0
C1634 C 0.38681 0.12885 0.45944 0.0
C1635 C 0.36483 0.15564 0.44922 0.0
H1636 H 0.83987 0.30069 0.54355 0.0
H1637 H 0.76031 0.36018 0.4933 0.0
H1638 H 0.7992 0.41053 0.49129 0.0
H1639 H 0.85854 0.43561 0.49848 0.0
H1640 H 0.93884 0.37089 0.54103 0.0
H1641 H 0.89748 0.32458 0.55027 0.0
C1642 C 0.83084 0.3246 0.532 0.0
C1643 C 0.79719 0.3262 0.51799 0.0
C1644 C 0.85397 0.35247 0.5289 0.0
C1645 C 0.78589 0.35799 0.50436 0.0
C1646 C 0.80839 0.38668 0.50277 0.0
C1647 C 0.86692 0.41138 0.50982 0.0
C1648 C 0.90206 0.407 0.51909 0.0
C1649 C 0.84293 0.38391 0.514 0.0
C1650 C 0.91228 0.37524 0.53356 0.0
C1651 C 0.88852 0.34863 0.53897 0.0
H1652 H 0.18664 0.74079 0.4953 0.0
H1653 H 0.26495 0.67449 0.53836 0.0
H1654 H 0.2254 0.62484 0.53429 0.0
H1655 H 0.16579 0.60204 0.5251 0.0
H1656 H 0.08691 0.67133 0.48726 0.0
H1657 H 0.12898 0.71801 0.48367 0.0
C1658 C 0.19531 0.71534 0.50335 0.0
C1659 C 0.22878 0.71153 0.51738 0.0
C1660 C 0.17183 0.68755 0.50278 0.0
C1661 C 0.23958 0.67824 0.52722 0.0
C1662 C 0.21669 0.64995 0.52539 0.0
C1663 C 0.15785 0.62728 0.51584 0.0
C1664 C 0.12286 0.63304 0.50683 0.0
C1665 C 0.1823 0.65455 0.51435 0.0
C1666 C 0.11328 0.66606 0.49492 0.0
C1667 C 0.13746 0.69282 0.49261 0.0
loop_
_geom_bond_atom_site_label_1
_geom_bond_atom_site_label_2
_geom_bond_distance
_geom_bond_site_symmetry_2
_ccdc_geom_bond_type
H0 C3 0.931 . S
H1 C6 0.928 . S
H2 C8 0.931 . S
C3 H0 0.931 . S
C3 C4 1.413 1_655 S
C3 C5 1.360 . S
C4 C3 1.413 1_455 S
C4 C8 1.429 . S
C5 C3 1.360 . S
C5 C6 1.372 . S
C6 H1 0.928 . S
C6 C5 1.372 . S
C6 C7 1.404 . S
C7 C6 1.404 . S
C7 C8 1.390 1_655 S
C8 H2 0.931 . S
C8 C4 1.429 . S
C8 C7 1.390 1_455 S
H9 C12 0.931 . S
H10 C15 0.928 . S
H11 C17 0.930 1_565 S
C12 H9 0.931 . S
C12 C13 1.413 . S
C12 C14 1.360 . S
C13 C12 1.413 . S
C13 C17 1.429 . S
C14 C12 1.360 . S
C14 C15 1.373 . S
C15 H10 0.928 . S
C15 C14 1.373 . S
C15 C16 1.405 . S
C16 C15 1.405 . S
C16 C17 1.390 . S
C17 H11 0.930 1_545 S
C17 C13 1.429 . S
C17 C16 1.390 . S
H18 C21 0.931 . S
H19 C24 0.928 . S
H20 C26 0.930 1_655 S
C21 H18 0.931 . S
C21 C22 1.413 . S
C21 C23 1.360 . S
C22 C21 1.413 . S
C22 C26 1.429 . S
C23 C21 1.360 . S
C23 C24 1.373 . S
C24 H19 0.928 . S
C24 C23 1.373 . S
C24 C25 1.405 . S
C25 C24 1.405 . S
C25 C26 1.390 . S
C26 H20 0.930 1_455 S
C26 C22 1.429 . S
C26 C25 1.390 . S
H27 C30 0.931 . S
H28 C33 0.928 . S
H29 C35 0.930 . S
C30 H27 0.931 . S
C30 C31 1.413 . S
C30 C32 1.360 . S
C31 C30 1.413 . S
C31 C35 1.429 1_545 S
C32 C30 1.360 . S
C32 C33 1.373 . S
C33 H28 0.928 . S
C33 C32 1.373 . S
C33 C34 1.405 . S
C34 C33 1.405 . S
C34 C35 1.390 1_545 S
C35 H29 0.930 . S
C35 C31 1.429 1_565 S
C35 C34 1.390 1_565 S
H36 C39 0.931 . S
H37 C42 0.928 . S
H38 C44 0.931 . S
C39 H36 0.931 . S
C39 C40 1.413 1_655 S
C39 C41 1.360 . S
C40 C39 1.413 1_455 S
C40 C44 1.429 . S
C41 C39 1.360 . S
C41 C42 1.372 . S
C42 H37 0.928 . S
C42 C41 1.372 . S
C42 C43 1.404 . S
C43 C42 1.404 . S
C43 C44 1.390 1_655 S
C44 H38 0.931 . S
C44 C40 1.429 . S
C44 C43 1.390 1_455 S
H45 C48 0.931 . S
H46 C51 0.928 . S
H47 C53 0.931 . S
C48 H45 0.931 . S
C48 C49 1.413 . S
C48 C50 1.360 . S
C49 C48 1.413 . S
C49 C53 1.429 1_565 S
C50 C48 1.360 . S
C50 C51 1.372 . S
C51 H46 0.928 . S
C51 C50 1.372 . S
C51 C52 1.404 . S
C52 C51 1.404 . S
C52 C53 1.390 1_565 S
C53 H47 0.931 . S
C53 C49 1.429 1_545 S
C53 C52 1.390 1_545 S
H54 C57 0.931 . S
H55 C60 0.928 . S
H56 C62 0.931 . S
C57 H54 0.931 . S
C57 C58 1.413 1_655 S
C57 C59 1.360 . S
C58 C57 1.413 1_455 S
C58 C62 1.429 . S
C59 C57 1.360 . S
C59 C60 1.372 . S
C60 H55 0.928 . S
C60 C59 1.372 . S
C60 C61 1.404 1_655 S
C61 C60 1.404 1_455 S
C61 C62 1.390 . S
C62 H56 0.931 . S
C62 C58 1.429 . S
C62 C61 1.390 . S
H63 C66 0.931 . S
H64 C69 0.928 . S
H65 C71 0.931 . S
C66 H63 0.931 . S
C66 C67 1.413 . S
C66 C68 1.360 . S
C67 C66 1.413 . S
C67 C71 1.429 1_565 S
C68 C66 1.360 . S
C68 C69 1.372 . S
C69 H64 0.928 . S
C69 C68 1.372 . S
C69 C70 1.404 . S
C70 C69 1.404 . S
C70 C71 1.390 1_565 S
C71 H65 0.931 . S
C71 C67 1.429 1_545 S
C71 C70 1.390 1_545 S
H72 C75 0.931 . S
H73 C78 0.928 . S
H74 C80 0.931 . S
C75 H72 0.931 . S
C75 C76 1.413 . S
C75 C77 1.360 . S
C76 C75 1.413 . S
C76 C80 1.429 1_556 S
C77 C75 1.360 . S
C77 C78 1.372 . S
C78 H73 0.928 . S
C78 C77 1.372 . S
C78 C79 1.404 . S
C79 C78 1.404 . S
C79 C80 1.390 1_556 S
C80 H74 0.931 . S
C80 C76 1.429 1_554 S
C80 C79 1.390 1_554 S
H81 C84 0.931 . S
H82 C87 0.928 . S
H83 C89 0.931 . S
C84 H81 0.931 . S
C84 C85 1.413 . S
C84 C86 1.360 . S
C85 C84 1.413 . S
C85 C89 1.429 1_556 S
C86 C84 1.360 . S
C86 C87 1.372 . S
C87 H82 0.928 . S
C87 C86 1.372 . S
C87 C88 1.404 . S
C88 C87 1.404 . S
C88 C89 1.390 1_556 S
C89 H83 0.931 . S
C89 C85 1.429 1_554 S
C89 C88 1.390 1_554 S
H90 C93 0.931 . S
H91 C96 0.928 . S
H92 C98 0.931 . S
C93 H90 0.931 . S
C93 C94 1.413 . S
C93 C95 1.360 . S
C94 C93 1.413 . S
C94 C98 1.429 1_556 S
C95 C93 1.360 . S
C95 C96 1.372 . S
C96 H91 0.928 . S
C96 C95 1.372 . S
C96 C97 1.404 . S
C97 C96 1.404 . S
C97 C98 1.390 1_556 S
C98 H92 0.931 . S
C98 C94 1.429 1_554 S
C98 C97 1.390 1_554 S
H99 C102 0.931 . S
H100 C105 0.928 . S
H101 C107 0.930 . S
C102 H99 0.931 . S
C102 C103 1.413 . S
C102 C104 1.360 . S
C103 C102 1.413 . S
C103 C107 1.429 1_554 S
C104 C102 1.360 . S
C104 C105 1.373 . S
C105 H100 0.928 . S
C105 C104 1.373 . S
C105 C106 1.405 . S
C106 C105 1.405 . S
C106 C107 1.390 1_554 S
C107 H101 0.930 . S
C107 C103 1.429 1_556 S
C107 C106 1.390 1_556 S
H108 C111 0.931 . S
H109 C114 0.928 . S
H110 C116 0.930 . S
C111 H108 0.931 . S
C111 C112 1.413 . S
C111 C113 1.360 . S
C112 C111 1.413 . S
C112 C116 1.429 . S
C113 C111 1.360 . S
C113 C114 1.372 . S
C114 H109 0.928 . S
C114 C113 1.372 . S
C114 C115 1.404 . S
C115 C114 1.404 . S
C115 C116 1.391 . S
C116 H110 0.930 . S
C116 C112 1.429 . S
C116 C115 1.391 . S
H117 C120 0.931 . S
H118 C123 0.928 . S
H119 C125 0.930 . S
C120 H117 0.931 . S
C120 C121 1.413 . S
C120 C122 1.360 . S
C121 C120 1.413 . S
C121 C125 1.429 . S
C122 C120 1.360 . S
C122 C123 1.372 . S
C123 H118 0.928 . S
C123 C122 1.372 . S
C123 C124 1.404 . S
C124 C123 1.404 . S
C124 C125 1.391 . S
C125 H119 0.930 . S
C125 C121 1.429 . S
C125 C124 1.391 . S
H126 C129 0.931 . S
H127 C132 0.928 . S
H128 C134 0.930 . S
C129 H126 0.931 . S
C129 C130 1.413 . S
C129 C131 1.360 . S
C130 C129 1.413 . S
C130 C134 1.429 . S
C131 C129 1.360 . S
C131 C132 1.372 . S
C132 H127 0.928 . S
C132 C131 1.372 . S
C132 C133 1.404 . S
C133 C132 1.404 . S
C133 C134 1.391 . S
C134 H128 0.930 . S
C134 C130 1.429 . S
C134 C133 1.391 . S
H135 C138 0.931 . S
H136 C141 0.928 . S
H137 C143 0.930 . S
C138 H135 0.931 . S
C138 C139 1.413 . S
C138 C140 1.360 . S
C139 C138 1.413 . S
C139 C143 1.429 . S
C140 C138 1.360 . S
C140 C141 1.372 . S
C141 H136 0.928 . S
C141 C140 1.372 . S
C141 C142 1.404 . S
C142 C141 1.404 . S
C142 C143 1.391 . S
C143 H137 0.930 . S
C143 C139 1.429 . S
C143 C142 1.391 . S
H144 C147 0.931 . S
H145 C150 0.928 . S
H146 C152 0.930 . S
C147 H144 0.931 . S
C147 C148 1.413 . S
C147 C149 1.360 . S
C148 C147 1.413 . S
C148 C152 1.429 . S
C149 C147 1.360 . S
C149 C150 1.372 . S
C150 H145 0.928 . S
C150 C149 1.372 . S
C150 C151 1.404 . S
C151 C150 1.404 . S
C151 C152 1.391 . S
C152 H146 0.930 . S
C152 C148 1.429 . S
C152 C151 1.391 . S
H153 C156 0.931 . S
H154 C159 0.928 . S
H155 C161 0.930 . S
C156 H153 0.931 . S
C156 C157 1.413 . S
C156 C158 1.360 . S
C157 C156 1.413 . S
C157 C161 1.429 . S
C158 C156 1.360 . S
C158 C159 1.372 . S
C159 H154 0.928 . S
C159 C158 1.372 . S
C159 C160 1.404 . S
C160 C159 1.404 . S
C160 C161 1.391 . S
C161 H155 0.930 . S
C161 C157 1.429 . S
C161 C160 1.391 . S
H162 C165 0.931 . S
H163 C168 0.928 . S
H164 C170 0.930 . S
C165 H162 0.931 . S
C165 C166 1.413 . S
C165 C167 1.360 . S
C166 C165 1.413 . S
C166 C170 1.429 . S
C167 C165 1.360 . S
C167 C168 1.372 . S
C168 H163 0.928 . S
C168 C167 1.372 . S
C168 C169 1.404 . S
C169 C168 1.404 . S
C169 C170 1.391 . S
C170 H164 0.930 . S
C170 C166 1.429 . S
C170 C169 1.391 . S
H171 C174 0.931 . S
H172 C177 0.928 . S
H173 C179 0.930 . S
C174 H171 0.931 . S
C174 C175 1.413 . S
C174 C176 1.360 . S
C175 C174 1.413 . S
C175 C179 1.429 . S
C176 C174 1.360 . S
C176 C177 1.372 . S
C177 H172 0.928 . S
C177 C176 1.372 . S
C177 C178 1.404 . S
C178 C177 1.404 . S
C178 C179 1.391 . S
C179 H173 0.930 . S
C179 C175 1.429 . S
C179 C178 1.391 . S
H180 C183 0.931 . S
H181 C186 0.928 . S
H182 C188 0.930 . S
C183 H180 0.931 . S
C183 C184 1.413 . S
C183 C185 1.360 . S
C184 C183 1.413 . S
C184 C188 1.429 . S
C185 C183 1.360 . S
C185 C186 1.372 . S
C186 H181 0.928 . S
C186 C185 1.372 . S
C186 C187 1.404 . S
C187 C186 1.404 . S
C187 C188 1.391 . S
C188 H182 0.930 . S
C188 C184 1.429 . S
C188 C187 1.391 . S
H189 C192 0.931 . S
H190 C195 0.928 . S
H191 C197 0.930 . S
C192 H189 0.931 . S
C192 C193 1.413 . S
C192 C194 1.360 . S
C193 C192 1.413 . S
C193 C197 1.429 . S
C194 C192 1.360 . S
C194 C195 1.372 . S
C195 H190 0.928 . S
C195 C194 1.372 . S
C195 C196 1.404 . S
C196 C195 1.404 . S
C196 C197 1.391 . S
C197 H191 0.930 . S
C197 C193 1.429 . S
C197 C196 1.391 . S
H198 C201 0.931 . S
H199 C204 0.928 . S
H200 C206 0.930 . S
C201 H198 0.931 . S
C201 C202 1.413 . S
C201 C203 1.360 . S
C202 C201 1.413 . S
C202 C206 1.429 . S
C203 C201 1.360 . S
C203 C204 1.372 . S
C204 H199 0.928 . S
C204 C203 1.372 . S
C204 C205 1.404 . S
C205 C204 1.404 . S
C205 C206 1.391 . S
C206 H200 0.930 . S
C206 C202 1.429 . S
C206 C205 1.391 . S
H207 C210 0.931 . S
H208 C213 0.928 . S
H209 C215 0.930 . S
C210 H207 0.931 . S
C210 C211 1.413 . S
C210 C212 1.360 . S
C211 C210 1.413 . S
C211 C215 1.429 . S
C212 C210 1.360 . S
C212 C213 1.372 . S
C213 H208 0.928 . S
C213 C212 1.372 . S
C213 C214 1.404 . S
C214 C213 1.404 . S
C214 C215 1.391 . S
C215 H209 0.930 . S
C215 C211 1.429 . S
C215 C214 1.391 . S
C216 O242 1.283 . S
C216 O260 1.283 . S
C217 O243 1.283 . S
C217 O258 1.283 . S
C218 O244 1.283 . S
C218 O261 1.283 . S
C219 O245 1.283 . S
C219 O259 1.283 . S
C220 O246 1.283 . S
C220 O255 1.283 . S
C221 O247 1.283 . S
C221 O257 1.283 . S
C222 O248 1.283 . S
C222 O254 1.283 . S
C223 O249 1.283 . S
C223 O256 1.283 . S
C224 O250 1.283 . S
C224 O265 1.283 . S
C225 O251 1.283 . S
C225 O263 1.283 . S
C226 O252 1.283 . S
C226 O264 1.283 . S
C227 O253 1.283 . S
C227 O262 1.283 . S
Eu228 O229 2.361 1_455 S
Eu228 O230 2.379 . S
Eu228 O233 2.361 1_455 S
Eu228 O234 2.379 . S
Eu228 O242 2.363 . S
Eu228 O243 2.363 . S
Eu228 O256 2.378 . S
Eu228 O257 2.348 1_455 S
O229 Eu228 2.361 1_655 S
O229 Eu231 2.367 1_565 S
O229 Eu236 2.358 1_665 S
O230 Eu228 2.379 . S
O230 Eu232 2.367 1_565 S
O230 Eu235 2.376 1_565 S
Eu231 O229 2.367 1_545 S
Eu231 O233 2.367 1_545 S
Eu231 O237 2.373 . S
Eu231 O238 2.373 . S
Eu231 O246 2.368 . S
Eu231 O247 2.358 1_545 S
Eu231 O262 2.363 . S
Eu231 O263 2.363 . S
Eu232 O230 2.367 1_545 S
Eu232 O234 2.367 1_545 S
Eu232 O239 2.373 . S
Eu232 O240 2.373 . S
Eu232 O248 2.368 . S
Eu232 O249 2.358 1_545 S
Eu232 O264 2.363 . S
Eu232 O265 2.363 . S
O233 Eu228 2.361 1_655 S
O233 Eu231 2.367 1_565 S
O233 Eu235 2.358 1_665 S
O234 Eu228 2.379 . S
O234 Eu232 2.367 1_565 S
O234 Eu236 2.376 1_565 S
Eu235 O230 2.376 1_545 S
Eu235 O233 2.358 1_445 S
Eu235 O237 2.364 1_455 S
Eu235 O240 2.382 . S
Eu235 O252 2.378 . S
Eu235 O253 2.348 1_455 S
Eu235 O260 2.358 1_545 S
Eu235 O261 2.368 . S
Eu236 O229 2.358 1_445 S
Eu236 O234 2.376 1_545 S
Eu236 O238 2.364 1_455 S
Eu236 O239 2.382 . S
Eu236 O250 2.378 . S
Eu236 O251 2.348 1_455 S
Eu236 O258 2.358 1_545 S
Eu236 O259 2.368 . S
O237 Eu231 2.373 . S
O237 Eu235 2.364 1_655 S
O237 Eu241 2.361 1_655 S
O238 Eu231 2.373 . S
O238 Eu236 2.364 1_655 S
O238 Eu241 2.361 1_655 S
O239 Eu232 2.373 . S
O239 Eu236 2.382 . S
O239 Eu241 2.379 . S
O240 Eu232 2.373 . S
O240 Eu235 2.382 . S
O240 Eu241 2.379 . S
Eu241 O237 2.361 1_455 S
Eu241 O238 2.361 1_455 S
Eu241 O239 2.379 . S
Eu241 O240 2.379 . S
Eu241 O244 2.363 . S
Eu241 O245 2.363 . S
Eu241 O254 2.378 . S
Eu241 O255 2.348 1_455 S
O242 C216 1.283 . S
O242 Eu228 2.363 . S
O243 C217 1.283 . S
O243 Eu228 2.363 . S
O244 C218 1.283 . S
O244 Eu241 2.363 . S
O245 C219 1.283 . S
O245 Eu241 2.363 . S
O246 C220 1.283 . S
O246 Eu231 2.368 . S
O247 C221 1.283 . S
O247 Eu231 2.358 1_565 S
O248 C222 1.283 . S
O248 Eu232 2.368 . S
O249 C223 1.283 . S
O249 Eu232 2.358 1_565 S
O250 C224 1.283 . S
O250 Eu236 2.378 . S
O251 C225 1.283 . S
O251 Eu236 2.348 1_655 S
O252 C226 1.283 . S
O252 Eu235 2.378 . S
O253 C227 1.283 . S
O253 Eu235 2.348 1_655 S
O254 C222 1.283 . S
O254 Eu241 2.378 . S
O255 C220 1.283 . S
O255 Eu241 2.348 1_655 S
O256 C223 1.283 . S
O256 Eu228 2.378 . S
O257 C221 1.283 . S
O257 Eu228 2.348 1_655 S
O258 C217 1.283 . S
O258 Eu236 2.358 1_565 S
O259 C219 1.283 . S
O259 Eu236 2.368 . S
O260 C216 1.283 . S
O260 Eu235 2.358 1_565 S
O261 C218 1.283 . S
O261 Eu235 2.368 . S
O262 C227 1.283 . S
O262 Eu231 2.363 . S
O263 C225 1.283 . S
O263 Eu231 2.363 . S
O264 C226 1.283 . S
O264 Eu232 2.363 . S
O265 C224 1.283 . S
O265 Eu232 2.363 . S
C266 O292 1.283 . S
C266 O310 1.283 . S
C267 O293 1.283 . S
C267 O308 1.283 . S
C268 O294 1.283 . S
C268 O311 1.283 . S
C269 O295 1.283 . S
C269 O309 1.283 . S
C270 O296 1.283 . S
C270 O305 1.283 . S
C271 O297 1.283 . S
C271 O307 1.283 . S
C272 O298 1.283 . S
C272 O304 1.283 . S
C273 O299 1.283 . S
C273 O306 1.283 . S
C274 O300 1.283 . S
C274 O315 1.283 . S
C275 O301 1.283 . S
C275 O313 1.283 . S
C276 O302 1.283 . S
C276 O314 1.283 . S
C277 O303 1.283 . S
C277 O312 1.283 . S
Eu278 O279 2.370 . S
Eu278 O280 2.370 1_545 S
Eu278 O283 2.370 1_545 S
Eu278 O284 2.370 . S
Eu278 O292 2.363 1_545 S
Eu278 O293 2.363 . S
Eu278 O306 2.363 . S
Eu278 O307 2.363 . S
O279 Eu278 2.370 . S
O279 Eu281 2.373 . S
O279 Eu286 2.372 . S
O280 Eu278 2.370 1_565 S
O280 Eu282 2.373 1_565 S
O280 Eu285 2.373 . S
Eu281 O279 2.373 . S
Eu281 O283 2.372 1_545 S
Eu281 O287 2.368 1_544 S
Eu281 O288 2.368 1_554 S
Eu281 O296 2.359 1_554 S
Eu281 O297 2.367 . S
Eu281 O312 2.363 1_545 S
Eu281 O313 2.363 . S
Eu282 O280 2.373 1_545 S
Eu282 O284 2.372 . S
Eu282 O289 2.368 1_554 S
Eu282 O290 2.368 1_544 S
Eu282 O298 2.359 1_554 S
Eu282 O299 2.367 . S
Eu282 O314 2.363 1_545 S
Eu282 O315 2.363 . S
O283 Eu278 2.370 1_565 S
O283 Eu281 2.372 1_565 S
O283 Eu285 2.373 . S
O284 Eu278 2.370 . S
O284 Eu282 2.372 . S
O284 Eu286 2.372 . S
Eu285 O280 2.373 . S
Eu285 O283 2.373 . S
Eu285 O287 2.368 1_554 S
Eu285 O290 2.368 1_554 S
Eu285 O302 2.363 . S
Eu285 O303 2.363 . S
Eu285 O310 2.367 . S
Eu285 O311 2.359 1_554 S
Eu286 O279 2.372 . S
Eu286 O284 2.372 . S
Eu286 O288 2.368 1_554 S
Eu286 O289 2.368 1_554 S
Eu286 O300 2.363 . S
Eu286 O301 2.363 . S
Eu286 O308 2.367 . S
Eu286 O309 2.359 1_554 S
O287 Eu281 2.368 1_566 S
O287 Eu285 2.368 1_556 S
O287 Eu291 2.370 1_565 S
O288 Eu281 2.368 1_556 S
O288 Eu286 2.368 1_556 S
O288 Eu291 2.370 . S
O289 Eu282 2.368 1_556 S
O289 Eu286 2.368 1_556 S
O289 Eu291 2.370 . S
O290 Eu282 2.368 1_566 S
O290 Eu285 2.368 1_556 S
O290 Eu291 2.370 1_565 S
Eu291 O287 2.370 1_545 S
Eu291 O288 2.370 . S
Eu291 O289 2.370 . S
Eu291 O290 2.370 1_545 S
Eu291 O294 2.363 1_545 S
Eu291 O295 2.363 . S
Eu291 O304 2.363 . S
Eu291 O305 2.363 . S
O292 C266 1.283 . S
O292 Eu278 2.363 1_565 S
O293 C267 1.283 . S
O293 Eu278 2.363 . S
O294 C268 1.283 . S
O294 Eu291 2.363 1_565 S
O295 C269 1.283 . S
O295 Eu291 2.363 . S
O296 C270 1.283 . S
O296 Eu281 2.359 1_556 S
O297 C271 1.283 . S
O297 Eu281 2.367 . S
O298 C272 1.283 . S
O298 Eu282 2.359 1_556 S
O299 C273 1.283 . S
O299 Eu282 2.367 . S
O300 C274 1.283 . S
O300 Eu286 2.363 . S
O301 C275 1.283 . S
O301 Eu286 2.363 . S
O302 C276 1.283 . S
O302 Eu285 2.363 . S
O303 C277 1.283 . S
O303 Eu285 2.363 . S
O304 C272 1.283 . S
O304 Eu291 2.363 . S
O305 C270 1.283 . S
O305 Eu291 2.363 . S
O306 C273 1.283 . S
O306 Eu278 2.363 . S
O307 C271 1.283 . S
O307 Eu278 2.363 . S
O308 C267 1.283 . S
O308 Eu286 2.367 . S
O309 C269 1.283 . S
O309 Eu286 2.359 1_556 S
O310 C266 1.283 . S
O310 Eu285 2.367 . S
O311 C268 1.283 . S
O311 Eu285 2.359 1_556 S
O312 C277 1.283 . S
O312 Eu281 2.363 1_565 S
O313 C275 1.283 . S
O313 Eu281 2.363 . S
O314 C276 1.283 . S
O314 Eu282 2.363 1_565 S
O315 C274 1.283 . S
O315 Eu282 2.363 . S
C316 O342 1.283 . S
C316 O360 1.283 . S
C317 O343 1.283 . S
C317 O358 1.283 . S
C318 O344 1.283 . S
C318 O361 1.283 . S
C319 O345 1.283 . S
C319 O359 1.283 . S
C320 O346 1.283 . S
C320 O355 1.283 . S
C321 O347 1.283 . S
C321 O357 1.283 . S
C322 O348 1.283 . S
C322 O354 1.283 . S
C323 O349 1.283 . S
C323 O356 1.283 . S
C324 O350 1.283 . S
C324 O365 1.283 . S
C325 O351 1.283 . S
C325 O363 1.283 . S
C326 O352 1.283 . S
C326 O364 1.283 . S
C327 O353 1.283 . S
C327 O362 1.283 . S
Eu328 O329 2.367 1_454 S
Eu328 O330 2.373 . S
Eu328 O333 2.367 1_455 S
Eu328 O334 2.373 1_554 S
Eu328 O342 2.363 . S
Eu328 O343 2.363 1_554 S
Eu328 O356 2.368 . S
Eu328 O357 2.357 1_455 S
O329 Eu328 2.367 1_656 S
O329 Eu331 2.370 1_556 S
O329 Eu336 2.367 1_655 S
O330 Eu328 2.373 . S
O330 Eu332 2.370 . S
O330 Eu335 2.373 . S
Eu331 O329 2.370 1_554 S
Eu331 O333 2.370 . S
Eu331 O337 2.370 . S
Eu331 O338 2.370 1_554 S
Eu331 O346 2.363 . S
Eu331 O347 2.363 . S
Eu331 O362 2.363 . S
Eu331 O363 2.363 1_554 S
Eu332 O330 2.370 . S
Eu332 O334 2.370 1_554 S
Eu332 O339 2.370 1_554 S
Eu332 O340 2.370 . S
Eu332 O348 2.363 . S
Eu332 O349 2.363 . S
Eu332 O364 2.363 . S
Eu332 O365 2.363 1_554 S
O333 Eu328 2.367 1_655 S
O333 Eu331 2.370 . S
O333 Eu335 2.367 1_655 S
O334 Eu328 2.373 1_556 S
O334 Eu332 2.370 1_556 S
O334 Eu336 2.373 . S
Eu335 O330 2.373 . S
Eu335 O333 2.367 1_455 S
Eu335 O337 2.367 1_455 S
Eu335 O340 2.373 . S
Eu335 O352 2.368 . S
Eu335 O353 2.357 1_455 S
Eu335 O360 2.363 . S
Eu335 O361 2.363 . S
Eu336 O329 2.367 1_455 S
Eu336 O334 2.373 . S
Eu336 O338 2.367 1_455 S
Eu336 O339 2.373 . S
Eu336 O350 2.368 . S
Eu336 O351 2.357 1_455 S
Eu336 O358 2.363 . S
Eu336 O359 2.363 . S
O337 Eu331 2.370 . S
O337 Eu335 2.367 1_655 S
O337 Eu341 2.367 1_655 S
O338 Eu331 2.370 1_556 S
O338 Eu336 2.367 1_655 S
O338 Eu341 2.367 1_656 S
O339 Eu332 2.370 1_556 S
O339 Eu336 2.373 . S
O339 Eu341 2.373 1_556 S
O340 Eu332 2.370 . S
O340 Eu335 2.373 . S
O340 Eu341 2.373 . S
Eu341 O337 2.367 1_455 S
Eu341 O338 2.367 1_454 S
Eu341 O339 2.373 1_554 S
Eu341 O340 2.373 . S
Eu341 O344 2.363 . S
Eu341 O345 2.363 1_554 S
Eu341 O354 2.368 . S
Eu341 O355 2.357 1_455 S
O342 C316 1.283 . S
O342 Eu328 2.363 . S
O343 C317 1.283 . S
O343 Eu328 2.363 1_556 S
O344 C318 1.283 . S
O344 Eu341 2.363 . S
O345 C319 1.283 . S
O345 Eu341 2.363 1_556 S
O346 C320 1.283 . S
O346 Eu331 2.363 . S
O347 C321 1.283 . S
O347 Eu331 2.363 . S
O348 C322 1.283 . S
O348 Eu332 2.363 . S
O349 C323 1.283 . S
O349 Eu332 2.363 . S
O350 C324 1.283 . S
O350 Eu336 2.368 . S
O351 C325 1.283 . S
O351 Eu336 2.357 1_655 S
O352 C326 1.283 . S
O352 Eu335 2.368 . S
O353 C327 1.283 . S
O353 Eu335 2.357 1_655 S
O354 C322 1.283 . S
O354 Eu341 2.368 . S
O355 C320 1.283 . S
O355 Eu341 2.357 1_655 S
O356 C323 1.283 . S
O356 Eu328 2.368 . S
O357 C321 1.283 . S
O357 Eu328 2.357 1_655 S
O358 C317 1.283 . S
O358 Eu336 2.363 . S
O359 C319 1.283 . S
O359 Eu336 2.363 . S
O360 C316 1.283 . S
O360 Eu335 2.363 . S
O361 C318 1.283 . S
O361 Eu335 2.363 . S
O362 C327 1.283 . S
O362 Eu331 2.363 . S
O363 C325 1.283 . S
O363 Eu331 2.363 1_556 S
O364 C326 1.283 . S
O364 Eu332 2.363 . S
O365 C324 1.283 . S
O365 Eu332 2.363 1_556 S
C366 O392 1.283 . S
C366 O410 1.283 . S
C367 O393 1.283 . S
C367 O408 1.283 . S
C368 O394 1.283 . S
C368 O411 1.283 . S
C369 O395 1.283 . S
C369 O409 1.283 . S
C370 O396 1.283 . S
C370 O405 1.283 . S
C371 O397 1.283 . S
C371 O407 1.283 . S
C372 O398 1.283 . S
C372 O404 1.283 . S
C373 O399 1.283 . S
C373 O406 1.283 . S
C374 O400 1.283 . S
C374 O415 1.283 . S
C375 O401 1.283 . S
C375 O413 1.283 . S
C376 O402 1.283 . S
C376 O414 1.283 . S
C377 O403 1.283 . S
C377 O412 1.283 . S
Eu378 O379 2.370 . S
Eu378 O380 2.370 . S
Eu378 O383 2.370 . S
Eu378 O384 2.370 . S
Eu378 O392 2.363 . S
Eu378 O393 2.363 . S
Eu378 O406 2.363 . S
Eu378 O407 2.363 . S
O379 Eu378 2.370 . S
O379 Eu381 2.373 . S
O379 Eu386 2.373 . S
O380 Eu378 2.370 . S
O380 Eu382 2.373 . S
O380 Eu385 2.373 . S
Eu381 O379 2.373 . S
Eu381 O383 2.373 . S
Eu381 O387 2.367 1_554 S
Eu381 O388 2.367 1_554 S
Eu381 O396 2.358 1_554 S
Eu381 O397 2.368 . S
Eu381 O412 2.363 . S
Eu381 O413 2.363 . S
Eu382 O380 2.373 . S
Eu382 O384 2.373 . S
Eu382 O389 2.367 1_554 S
Eu382 O390 2.367 1_554 S
Eu382 O398 2.358 1_554 S
Eu382 O399 2.368 . S
Eu382 O414 2.363 . S
Eu382 O415 2.363 . S
O383 Eu378 2.370 . S
O383 Eu381 2.373 . S
O383 Eu385 2.373 . S
O384 Eu378 2.370 . S
O384 Eu382 2.373 . S
O384 Eu386 2.373 . S
Eu385 O380 2.373 . S
Eu385 O383 2.373 . S
Eu385 O387 2.367 1_554 S
Eu385 O390 2.367 1_554 S
Eu385 O402 2.363 . S
Eu385 O403 2.363 . S
Eu385 O410 2.368 . S
Eu385 O411 2.358 1_554 S
Eu386 O379 2.373 . S
Eu386 O384 2.373 . S
Eu386 O388 2.367 1_554 S
Eu386 O389 2.367 1_554 S
Eu386 O400 2.363 . S
Eu386 O401 2.363 . S
Eu386 O408 2.368 . S
Eu386 O409 2.358 1_554 S
O387 Eu381 2.367 1_556 S
O387 Eu385 2.367 1_556 S
O387 Eu391 2.370 . S
O388 Eu381 2.367 1_556 S
O388 Eu386 2.367 1_556 S
O388 Eu391 2.370 . S
O389 Eu382 2.367 1_556 S
O389 Eu386 2.367 1_556 S
O389 Eu391 2.370 . S
O390 Eu382 2.367 1_556 S
O390 Eu385 2.367 1_556 S
O390 Eu391 2.370 . S
Eu391 O387 2.370 . S
Eu391 O388 2.370 . S
Eu391 O389 2.370 . S
Eu391 O390 2.370 . S
Eu391 O394 2.363 . S
Eu391 O395 2.363 . S
Eu391 O404 2.363 . S
Eu391 O405 2.363 . S
O392 C366 1.283 . S
O392 Eu378 2.363 . S
O393 C367 1.283 . S
O393 Eu378 2.363 . S
O394 C368 1.283 . S
O394 Eu391 2.363 . S
O395 C369 1.283 . S
O395 Eu391 2.363 . S
O396 C370 1.283 . S
O396 Eu381 2.358 1_556 S
O397 C371 1.283 . S
O397 Eu381 2.368 . S
O398 C372 1.283 . S
O398 Eu382 2.358 1_556 S
O399 C373 1.283 . S
O399 Eu382 2.368 . S
O400 C374 1.283 . S
O400 Eu386 2.363 . S
O401 C375 1.283 . S
O401 Eu386 2.363 . S
O402 C376 1.283 . S
O402 Eu385 2.363 . S
O403 C377 1.283 . S
O403 Eu385 2.363 . S
O404 C372 1.283 . S
O404 Eu391 2.363 . S
O405 C370 1.283 . S
O405 Eu391 2.363 . S
O406 C373 1.283 . S
O406 Eu378 2.363 . S
O407 C371 1.283 . S
O407 Eu378 2.363 . S
O408 C367 1.283 . S
O408 Eu386 2.368 . S
O409 C369 1.283 . S
O409 Eu386 2.358 1_556 S
O410 C366 1.283 . S
O410 Eu385 2.368 . S
O411 C368 1.283 . S
O411 Eu385 2.358 1_556 S
O412 C377 1.283 . S
O412 Eu381 2.363 . S
O413 C375 1.283 . S
O413 Eu381 2.363 . S
O414 C376 1.283 . S
O414 Eu382 2.363 . S
O415 C374 1.283 . S
O415 Eu382 2.363 . S
C416 O442 1.283 . S
C416 O460 1.283 . S
C417 O443 1.283 . S
C417 O458 1.283 . S
C418 O444 1.283 . S
C418 O461 1.283 . S
C419 O445 1.283 . S
C419 O459 1.283 . S
C420 O446 1.283 . S
C420 O455 1.283 . S
C421 O447 1.283 . S
C421 O457 1.283 . S
C422 O448 1.283 . S
C422 O454 1.283 . S
C423 O449 1.283 . S
C423 O456 1.283 . S
C424 O450 1.283 . S
C424 O465 1.283 . S
C425 O451 1.283 . S
C425 O463 1.283 . S
C426 O452 1.283 . S
C426 O464 1.283 . S
C427 O453 1.283 . S
C427 O462 1.283 . S
Eu428 O429 2.364 1_455 S
Eu428 O430 2.376 . S
Eu428 O433 2.364 1_455 S
Eu428 O434 2.376 . S
Eu428 O442 2.363 . S
Eu428 O443 2.363 . S
Eu428 O456 2.373 . S
Eu428 O457 2.353 1_455 S
O429 Eu428 2.364 1_655 S
O429 Eu431 2.370 . S
O429 Eu436 2.364 1_655 S
O430 Eu428 2.376 . S
O430 Eu432 2.370 . S
O430 Eu435 2.376 . S
Eu431 O429 2.370 . S
Eu431 O433 2.370 . S
Eu431 O437 2.370 . S
Eu431 O438 2.370 . S
Eu431 O446 2.363 . S
Eu431 O447 2.363 . S
Eu431 O462 2.363 . S
Eu431 O463 2.363 . S
Eu432 O430 2.370 . S
Eu432 O434 2.370 . S
Eu432 O439 2.370 . S
Eu432 O440 2.370 . S
Eu432 O448 2.363 . S
Eu432 O449 2.363 . S
Eu432 O464 2.363 . S
Eu432 O465 2.363 . S
O433 Eu428 2.364 1_655 S
O433 Eu431 2.370 . S
O433 Eu435 2.364 1_655 S
O434 Eu428 2.376 . S
O434 Eu432 2.370 . S
O434 Eu436 2.376 . S
Eu435 O430 2.376 . S
Eu435 O433 2.364 1_455 S
Eu435 O437 2.364 1_455 S
Eu435 O440 2.376 . S
Eu435 O452 2.373 . S
Eu435 O453 2.353 1_455 S
Eu435 O460 2.363 . S
Eu435 O461 2.363 . S
Eu436 O429 2.364 1_455 S
Eu436 O434 2.376 . S
Eu436 O438 2.364 1_455 S
Eu436 O439 2.376 . S
Eu436 O450 2.373 . S
Eu436 O451 2.353 1_455 S
Eu436 O458 2.363 . S
Eu436 O459 2.363 . S
O437 Eu431 2.370 . S
O437 Eu435 2.364 1_655 S
O437 Eu441 2.364 1_655 S
O438 Eu431 2.370 . S
O438 Eu436 2.364 1_655 S
O438 Eu441 2.364 1_655 S
O439 Eu432 2.370 . S
O439 Eu436 2.376 . S
O439 Eu441 2.376 . S
O440 Eu432 2.370 . S
O440 Eu435 2.376 . S
O440 Eu441 2.376 . S
Eu441 O437 2.364 1_455 S
Eu441 O438 2.364 1_455 S
Eu441 O439 2.376 . S
Eu441 O440 2.376 . S
Eu441 O444 2.363 . S
Eu441 O445 2.363 . S
Eu441 O454 2.373 . S
Eu441 O455 2.353 1_455 S
O442 C416 1.283 . S
O442 Eu428 2.363 . S
O443 C417 1.283 . S
O443 Eu428 2.363 . S
O444 C418 1.283 . S
O444 Eu441 2.363 . S
O445 C419 1.283 . S
O445 Eu441 2.363 . S
O446 C420 1.283 . S
O446 Eu431 2.363 . S
O447 C421 1.283 . S
O447 Eu431 2.363 . S
O448 C422 1.283 . S
O448 Eu432 2.363 . S
O449 C423 1.283 . S
O449 Eu432 2.363 . S
O450 C424 1.283 . S
O450 Eu436 2.373 . S
O451 C425 1.283 . S
O451 Eu436 2.353 1_655 S
O452 C426 1.283 . S
O452 Eu435 2.373 . S
O453 C427 1.283 . S
O453 Eu435 2.353 1_655 S
O454 C422 1.283 . S
O454 Eu441 2.373 . S
O455 C420 1.283 . S
O455 Eu441 2.353 1_655 S
O456 C423 1.283 . S
O456 Eu428 2.373 . S
O457 C421 1.283 . S
O457 Eu428 2.353 1_655 S
O458 C417 1.283 . S
O458 Eu436 2.363 . S
O459 C419 1.283 . S
O459 Eu436 2.363 . S
O460 C416 1.283 . S
O460 Eu435 2.363 . S
O461 C418 1.283 . S
O461 Eu435 2.363 . S
O462 C427 1.283 . S
O462 Eu431 2.363 . S
O463 C425 1.283 . S
O463 Eu431 2.363 . S
O464 C426 1.283 . S
O464 Eu432 2.363 . S
O465 C424 1.283 . S
O465 Eu432 2.363 . S
C466 O492 1.283 . S
C466 O510 1.283 . S
C467 O493 1.283 . S
C467 O508 1.283 . S
C468 O494 1.283 . S
C468 O511 1.283 . S
C469 O495 1.283 . S
C469 O509 1.283 . S
C470 O496 1.283 . S
C470 O505 1.283 . S
C471 O497 1.283 . S
C471 O507 1.283 . S
C472 O498 1.283 . S
C472 O504 1.283 . S
C473 O499 1.283 . S
C473 O506 1.283 . S
C474 O500 1.283 . S
C474 O515 1.283 . S
C475 O501 1.283 . S
C475 O513 1.283 . S
C476 O502 1.283 . S
C476 O514 1.283 . S
C477 O503 1.283 . S
C477 O512 1.283 . S
Eu478 O479 2.370 . S
Eu478 O480 2.370 . S
Eu478 O483 2.370 . S
Eu478 O484 2.370 . S
Eu478 O492 2.363 . S
Eu478 O493 2.363 . S
Eu478 O506 2.363 . S
Eu478 O507 2.363 . S
O479 Eu478 2.370 . S
O479 Eu481 2.367 1_565 S
O479 Eu486 2.367 1_565 S
O480 Eu478 2.370 . S
O480 Eu482 2.367 1_565 S
O480 Eu485 2.367 1_565 S
Eu481 O479 2.367 1_545 S
Eu481 O483 2.367 1_545 S
Eu481 O487 2.373 . S
Eu481 O488 2.373 . S
Eu481 O496 2.369 . S
Eu481 O497 2.357 1_545 S
Eu481 O512 2.363 . S
Eu481 O513 2.363 . S
Eu482 O480 2.367 1_545 S
Eu482 O484 2.367 1_545 S
Eu482 O489 2.374 . S
Eu482 O490 2.374 . S
Eu482 O498 2.369 . S
Eu482 O499 2.357 1_545 S
Eu482 O514 2.363 . S
Eu482 O515 2.363 . S
O483 Eu478 2.370 . S
O483 Eu481 2.367 1_565 S
O483 Eu485 2.367 1_565 S
O484 Eu478 2.370 . S
O484 Eu482 2.367 1_565 S
O484 Eu486 2.367 1_565 S
Eu485 O480 2.367 1_545 S
Eu485 O483 2.367 1_545 S
Eu485 O487 2.374 . S
Eu485 O490 2.374 . S
Eu485 O502 2.363 . S
Eu485 O503 2.363 . S
Eu485 O510 2.357 1_545 S
Eu485 O511 2.369 . S
Eu486 O479 2.367 1_545 S
Eu486 O484 2.367 1_545 S
Eu486 O488 2.374 . S
Eu486 O489 2.374 . S
Eu486 O500 2.363 . S
Eu486 O501 2.363 . S
Eu486 O508 2.357 1_545 S
Eu486 O509 2.369 . S
O487 Eu481 2.373 . S
O487 Eu485 2.374 . S
O487 Eu491 2.370 . S
O488 Eu481 2.373 . S
O488 Eu486 2.374 . S
O488 Eu491 2.370 . S
O489 Eu482 2.374 . S
O489 Eu486 2.374 . S
O489 Eu491 2.370 . S
O490 Eu482 2.374 . S
O490 Eu485 2.374 . S
O490 Eu491 2.370 . S
Eu491 O487 2.370 . S
Eu491 O488 2.370 . S
Eu491 O489 2.370 . S
Eu491 O490 2.370 . S
Eu491 O494 2.363 . S
Eu491 O495 2.363 . S
Eu491 O504 2.363 . S
Eu491 O505 2.363 . S
O492 C466 1.283 . S
O492 Eu478 2.363 . S
O493 C467 1.283 . S
O493 Eu478 2.363 . S
O494 C468 1.283 . S
O494 Eu491 2.363 . S
O495 C469 1.283 . S
O495 Eu491 2.363 . S
O496 C470 1.283 . S
O496 Eu481 2.369 . S
O497 C471 1.283 . S
O497 Eu481 2.357 1_565 S
O498 C472 1.283 . S
O498 Eu482 2.369 . S
O499 C473 1.283 . S
O499 Eu482 2.357 1_565 S
O500 C474 1.283 . S
O500 Eu486 2.363 . S
O501 C475 1.283 . S
O501 Eu486 2.363 . S
O502 C476 1.283 . S
O502 Eu485 2.363 . S
O503 C477 1.283 . S
O503 Eu485 2.363 . S
O504 C472 1.283 . S
O504 Eu491 2.363 . S
O505 C470 1.283 . S
O505 Eu491 2.363 . S
O506 C473 1.283 . S
O506 Eu478 2.363 . S
O507 C471 1.283 . S
O507 Eu478 2.363 . S
O508 C467 1.283 . S
O508 Eu486 2.357 1_565 S
O509 C469 1.283 . S
O509 Eu486 2.369 . S
O510 C466 1.283 . S
O510 Eu485 2.357 1_565 S
O511 C468 1.283 . S
O511 Eu485 2.369 . S
O512 C477 1.283 . S
O512 Eu481 2.363 . S
O513 C475 1.283 . S
O513 Eu481 2.363 . S
O514 C476 1.283 . S
O514 Eu482 2.363 . S
O515 C474 1.283 . S
O515 Eu482 2.363 . S
H516 C522 0.930 . S
H517 C525 0.930 . S
H518 C526 0.930 . S
H519 C527 0.930 . S
H520 C530 0.930 . S
H521 C531 0.930 . S
C522 H516 0.930 . S
C522 C523 1.355 . S
C522 C524 1.415 . S
C523 C522 1.355 . S
C523 C525 1.419 . S
C524 C522 1.415 . S
C524 C529 1.425 . S
C524 C531 1.409 . S
C525 H517 0.930 . S
C525 C523 1.419 . S
C525 C526 1.362 . S
C526 H518 0.930 . S
C526 C525 1.362 . S
C526 C529 1.409 . S
C527 H519 0.930 . S
C527 C528 1.355 . S
C527 C529 1.415 . S
C528 C527 1.355 . S
C528 C530 1.419 . S
C529 C524 1.425 . S
C529 C526 1.409 . S
C529 C527 1.415 . S
C530 H520 0.930 . S
C530 C528 1.419 . S
C530 C531 1.362 . S
C531 H521 0.930 . S
C531 C524 1.409 . S
C531 C530 1.362 . S
H532 C538 0.930 . S
H533 C541 0.930 . S
H534 C542 0.930 . S
H535 C543 0.930 . S
H536 C546 0.930 . S
H537 C547 0.930 . S
C538 H532 0.930 . S
C538 C539 1.355 . S
C538 C540 1.415 . S
C539 C538 1.355 . S
C539 C541 1.419 . S
C540 C538 1.415 . S
C540 C545 1.425 . S
C540 C547 1.409 . S
C541 H533 0.930 . S
C541 C539 1.419 . S
C541 C542 1.362 . S
C542 H534 0.930 . S
C542 C541 1.362 . S
C542 C545 1.409 . S
C543 H535 0.930 . S
C543 C544 1.355 . S
C543 C545 1.415 . S
C544 C543 1.355 . S
C544 C546 1.419 . S
C545 C540 1.425 . S
C545 C542 1.409 . S
C545 C543 1.415 . S
C546 H536 0.930 . S
C546 C544 1.419 . S
C546 C547 1.362 . S
C547 H537 0.930 . S
C547 C540 1.409 . S
C547 C546 1.362 . S
H548 C554 0.930 . S
H549 C557 0.930 . S
H550 C558 0.930 . S
H551 C559 0.930 . S
H552 C562 0.930 . S
H553 C563 0.930 . S
C554 H548 0.930 . S
C554 C555 1.355 . S
C554 C556 1.415 . S
C555 C554 1.355 . S
C555 C557 1.419 . S
C556 C554 1.415 . S
C556 C561 1.425 . S
C556 C563 1.409 . S
C557 H549 0.930 . S
C557 C555 1.419 . S
C557 C558 1.362 . S
C558 H550 0.930 . S
C558 C557 1.362 . S
C558 C561 1.409 . S
C559 H551 0.930 . S
C559 C560 1.355 . S
C559 C561 1.415 . S
C560 C559 1.355 . S
C560 C562 1.419 . S
C561 C556 1.425 . S
C561 C558 1.409 . S
C561 C559 1.415 . S
C562 H552 0.930 . S
C562 C560 1.419 . S
C562 C563 1.362 . S
C563 H553 0.930 . S
C563 C556 1.409 . S
C563 C562 1.362 . S
H564 C570 0.930 . S
H565 C573 0.930 . S
H566 C574 0.930 . S
H567 C575 0.930 . S
H568 C578 0.930 . S
H569 C579 0.930 . S
C570 H564 0.930 . S
C570 C571 1.355 . S
C570 C572 1.415 . S
C571 C570 1.355 . S
C571 C573 1.419 . S
C572 C570 1.415 . S
C572 C577 1.425 . S
C572 C579 1.409 . S
C573 H565 0.930 . S
C573 C571 1.419 . S
C573 C574 1.362 . S
C574 H566 0.930 . S
C574 C573 1.362 . S
C574 C577 1.409 . S
C575 H567 0.930 . S
C575 C576 1.355 . S
C575 C577 1.415 . S
C576 C575 1.355 . S
C576 C578 1.419 . S
C577 C572 1.425 . S
C577 C574 1.409 . S
C577 C575 1.415 . S
C578 H568 0.930 . S
C578 C576 1.419 . S
C578 C579 1.362 . S
C579 H569 0.930 . S
C579 C572 1.409 . S
C579 C578 1.362 . S
H580 C586 0.930 . S
H581 C589 0.930 . S
H582 C590 0.930 . S
H583 C591 0.930 . S
H584 C594 0.930 . S
H585 C595 0.930 . S
C586 H580 0.930 . S
C586 C587 1.355 . S
C586 C588 1.415 . S
C587 C586 1.355 . S
C587 C589 1.419 . S
C588 C586 1.415 . S
C588 C593 1.425 . S
C588 C595 1.409 . S
C589 H581 0.930 . S
C589 C587 1.419 . S
C589 C590 1.362 . S
C590 H582 0.930 . S
C590 C589 1.362 . S
C590 C593 1.409 . S
C591 H583 0.930 . S
C591 C592 1.355 . S
C591 C593 1.415 . S
C592 C591 1.355 . S
C592 C594 1.419 . S
C593 C588 1.425 . S
C593 C590 1.409 . S
C593 C591 1.415 . S
C594 H584 0.930 . S
C594 C592 1.419 . S
C594 C595 1.362 . S
C595 H585 0.930 . S
C595 C588 1.409 . S
C595 C594 1.362 . S
H596 C602 0.930 . S
H597 C605 0.930 . S
H598 C606 0.930 . S
H599 C607 0.930 . S
H600 C610 0.930 . S
H601 C611 0.930 . S
C602 H596 0.930 . S
C602 C603 1.355 . S
C602 C604 1.415 . S
C603 C602 1.355 . S
C603 C605 1.419 . S
C604 C602 1.415 . S
C604 C609 1.425 . S
C604 C611 1.409 . S
C605 H597 0.930 . S
C605 C603 1.419 . S
C605 C606 1.362 . S
C606 H598 0.930 . S
C606 C605 1.362 . S
C606 C609 1.409 . S
C607 H599 0.930 . S
C607 C608 1.355 . S
C607 C609 1.415 . S
C608 C607 1.355 . S
C608 C610 1.419 . S
C609 C604 1.425 . S
C609 C606 1.409 . S
C609 C607 1.415 . S
C610 H600 0.930 . S
C610 C608 1.419 . S
C610 C611 1.362 . S
C611 H601 0.930 . S
C611 C604 1.409 . S
C611 C610 1.362 . S
H612 C618 0.930 . S
H613 C621 0.930 . S
H614 C622 0.930 . S
H615 C623 0.930 . S
H616 C626 0.930 . S
H617 C627 0.930 . S
C618 H612 0.930 . S
C618 C619 1.355 . S
C618 C620 1.415 . S
C619 C618 1.355 . S
C619 C621 1.419 . S
C620 C618 1.415 . S
C620 C625 1.425 . S
C620 C627 1.409 . S
C621 H613 0.930 . S
C621 C619 1.419 . S
C621 C622 1.362 . S
C622 H614 0.930 . S
C622 C621 1.362 . S
C622 C625 1.409 . S
C623 H615 0.930 . S
C623 C624 1.355 . S
C623 C625 1.415 . S
C624 C623 1.355 . S
C624 C626 1.419 . S
C625 C620 1.425 . S
C625 C622 1.409 . S
C625 C623 1.415 . S
C626 H616 0.930 . S
C626 C624 1.419 . S
C626 C627 1.362 . S
C627 H617 0.930 . S
C627 C620 1.409 . S
C627 C626 1.362 . S
H628 C634 0.930 . S
H629 C637 0.930 . S
H630 C638 0.930 . S
H631 C639 0.930 . S
H632 C642 0.930 . S
H633 C643 0.930 . S
C634 H628 0.930 . S
C634 C635 1.355 . S
C634 C636 1.415 . S
C635 C634 1.355 . S
C635 C637 1.419 . S
C636 C634 1.415 . S
C636 C641 1.425 . S
C636 C643 1.409 . S
C637 H629 0.930 . S
C637 C635 1.419 . S
C637 C638 1.362 . S
C638 H630 0.930 . S
C638 C637 1.362 . S
C638 C641 1.409 . S
C639 H631 0.930 . S
C639 C640 1.355 . S
C639 C641 1.415 . S
C640 C639 1.355 . S
C640 C642 1.419 . S
C641 C636 1.425 . S
C641 C638 1.409 . S
C641 C639 1.415 . S
C642 H632 0.930 . S
C642 C640 1.419 . S
C642 C643 1.362 . S
C643 H633 0.930 . S
C643 C636 1.409 . S
C643 C642 1.362 . S
H644 C650 0.930 . S
H645 C653 0.930 . S
H646 C654 0.930 . S
H647 C655 0.930 . S
H648 C658 0.930 . S
H649 C659 0.930 . S
C650 H644 0.930 . S
C650 C651 1.355 . S
C650 C652 1.415 . S
C651 C650 1.355 . S
C651 C653 1.419 . S
C652 C650 1.415 . S
C652 C657 1.425 . S
C652 C659 1.409 . S
C653 H645 0.930 . S
C653 C651 1.419 . S
C653 C654 1.362 . S
C654 H646 0.930 . S
C654 C653 1.362 . S
C654 C657 1.409 . S
C655 H647 0.930 . S
C655 C656 1.355 . S
C655 C657 1.415 . S
C656 C655 1.355 . S
C656 C658 1.419 . S
C657 C652 1.425 . S
C657 C654 1.409 . S
C657 C655 1.415 . S
C658 H648 0.930 . S
C658 C656 1.419 . S
C658 C659 1.362 . S
C659 H649 0.930 . S
C659 C652 1.409 . S
C659 C658 1.362 . S
H660 C666 0.930 . S
H661 C669 0.930 . S
H662 C670 0.930 . S
H663 C671 0.930 . S
H664 C674 0.930 . S
H665 C675 0.930 . S
C666 H660 0.930 . S
C666 C667 1.355 . S
C666 C668 1.415 . S
C667 C666 1.355 . S
C667 C669 1.419 . S
C668 C666 1.415 . S
C668 C673 1.425 . S
C668 C675 1.409 . S
C669 H661 0.930 . S
C669 C667 1.419 . S
C669 C670 1.362 . S
C670 H662 0.930 . S
C670 C669 1.362 . S
C670 C673 1.409 . S
C671 H663 0.930 . S
C671 C672 1.355 . S
C671 C673 1.415 . S
C672 C671 1.355 . S
C672 C674 1.419 . S
C673 C668 1.425 . S
C673 C670 1.409 . S
C673 C671 1.415 . S
C674 H664 0.930 . S
C674 C672 1.419 . S
C674 C675 1.362 . S
C675 H665 0.930 . S
C675 C668 1.409 . S
C675 C674 1.362 . S
H676 C682 0.930 . S
H677 C685 0.930 . S
H678 C686 0.930 . S
H679 C687 0.930 . S
H680 C690 0.930 . S
H681 C691 0.930 . S
C682 H676 0.930 . S
C682 C683 1.355 . S
C682 C684 1.415 . S
C683 C682 1.355 . S
C683 C685 1.419 . S
C684 C682 1.415 . S
C684 C689 1.425 . S
C684 C691 1.409 . S
C685 H677 0.930 . S
C685 C683 1.419 . S
C685 C686 1.362 . S
C686 H678 0.930 . S
C686 C685 1.362 . S
C686 C689 1.409 . S
C687 H679 0.930 . S
C687 C688 1.355 . S
C687 C689 1.415 . S
C688 C687 1.355 . S
C688 C690 1.419 . S
C689 C684 1.425 . S
C689 C686 1.409 . S
C689 C687 1.415 . S
C690 H680 0.930 . S
C690 C688 1.419 . S
C690 C691 1.362 . S
C691 H681 0.930 . S
C691 C684 1.409 . S
C691 C690 1.362 . S
H692 C698 0.930 . S
H693 C701 0.930 . S
H694 C702 0.930 . S
H695 C703 0.930 . S
H696 C706 0.930 . S
H697 C707 0.930 . S
C698 H692 0.930 . S
C698 C699 1.355 . S
C698 C700 1.415 . S
C699 C698 1.355 . S
C699 C701 1.419 . S
C700 C698 1.415 . S
C700 C705 1.425 . S
C700 C707 1.409 . S
C701 H693 0.930 . S
C701 C699 1.419 . S
C701 C702 1.362 . S
C702 H694 0.930 . S
C702 C701 1.362 . S
C702 C705 1.409 . S
C703 H695 0.930 . S
C703 C704 1.355 . S
C703 C705 1.415 . S
C704 C703 1.355 . S
C704 C706 1.419 . S
C705 C700 1.425 . S
C705 C702 1.409 . S
C705 C703 1.415 . S
C706 H696 0.930 . S
C706 C704 1.419 . S
C706 C707 1.362 . S
C707 H697 0.930 . S
C707 C700 1.409 . S
C707 C706 1.362 . S
H708 C714 0.930 . S
H709 C717 0.930 . S
H710 C718 0.930 . S
H711 C719 0.930 . S
H712 C722 0.930 . S
H713 C723 0.930 . S
C714 H708 0.930 . S
C714 C715 1.358 . S
C714 C716 1.415 . S
C715 C714 1.358 . S
C715 C717 1.415 1_554 S
C716 C714 1.415 . S
C716 C721 1.425 1_554 S
C716 C723 1.409 . S
C717 H709 0.930 . S
C717 C715 1.415 1_556 S
C717 C718 1.362 . S
C718 H710 0.930 . S
C718 C717 1.362 . S
C718 C721 1.409 . S
C719 H711 0.930 . S
C719 C720 1.356 . S
C719 C721 1.415 . S
C720 C719 1.356 . S
C720 C722 1.418 1_556 S
C721 C716 1.425 1_556 S
C721 C718 1.409 . S
C721 C719 1.415 . S
C722 H712 0.930 . S
C722 C720 1.418 1_554 S
C722 C723 1.362 . S
C723 H713 0.930 . S
C723 C716 1.409 . S
C723 C722 1.362 . S
H724 C730 0.930 . S
H725 C733 0.930 . S
H726 C734 0.930 . S
H727 C735 0.930 . S
H728 C738 0.930 . S
H729 C739 0.930 . S
C730 H724 0.930 . S
C730 C731 1.355 1_556 S
C730 C732 1.415 . S
C731 C730 1.355 1_554 S
C731 C733 1.419 . S
C732 C730 1.415 . S
C732 C737 1.425 1_556 S
C732 C739 1.409 . S
C733 H725 0.930 . S
C733 C731 1.419 . S
C733 C734 1.362 . S
C734 H726 0.930 . S
C734 C733 1.362 . S
C734 C737 1.409 . S
C735 H727 0.930 . S
C735 C736 1.355 1_554 S
C735 C737 1.415 . S
C736 C735 1.355 1_556 S
C736 C738 1.419 . S
C737 C732 1.425 1_554 S
C737 C734 1.409 . S
C737 C735 1.415 . S
C738 H728 0.930 . S
C738 C736 1.419 . S
C738 C739 1.362 . S
C739 H729 0.930 . S
C739 C732 1.409 . S
C739 C738 1.362 . S
H740 C746 0.930 . S
H741 C749 0.930 . S
H742 C750 0.930 . S
H743 C751 0.930 . S
H744 C754 0.930 . S
H745 C755 0.930 . S
C746 H740 0.930 . S
C746 C747 1.355 1_556 S
C746 C748 1.415 . S
C747 C746 1.355 1_554 S
C747 C749 1.419 . S
C748 C746 1.415 . S
C748 C753 1.425 1_556 S
C748 C755 1.409 . S
C749 H741 0.930 . S
C749 C747 1.419 . S
C749 C750 1.362 . S
C750 H742 0.930 . S
C750 C749 1.362 . S
C750 C753 1.409 . S
C751 H743 0.930 . S
C751 C752 1.355 1_554 S
C751 C753 1.415 . S
C752 C751 1.355 1_556 S
C752 C754 1.419 . S
C753 C748 1.425 1_554 S
C753 C750 1.409 . S
C753 C751 1.415 . S
C754 H744 0.930 . S
C754 C752 1.419 . S
C754 C755 1.362 . S
C755 H745 0.930 . S
C755 C748 1.409 . S
C755 C754 1.362 . S
H756 C762 0.930 . S
H757 C765 0.930 . S
H758 C766 0.930 . S
H759 C767 0.930 . S
H760 C770 0.930 . S
H761 C771 0.930 . S
C762 H756 0.930 . S
C762 C763 1.358 . S
C762 C764 1.415 . S
C763 C762 1.358 . S
C763 C765 1.416 1_554 S
C764 C762 1.415 . S
C764 C769 1.425 1_554 S
C764 C771 1.409 . S
C765 H757 0.930 . S
C765 C763 1.416 1_556 S
C765 C766 1.362 . S
C766 H758 0.930 . S
C766 C765 1.362 . S
C766 C769 1.409 . S
C767 H759 0.930 . S
C767 C768 1.356 . S
C767 C769 1.415 . S
C768 C767 1.356 . S
C768 C770 1.417 1_556 S
C769 C764 1.425 1_556 S
C769 C766 1.409 . S
C769 C767 1.415 . S
C770 H760 0.930 . S
C770 C768 1.417 1_554 S
C770 C771 1.362 . S
C771 H761 0.930 . S
C771 C764 1.409 . S
C771 C770 1.362 . S
H772 C778 0.930 . S
H773 C781 0.930 . S
H774 C782 0.930 . S
H775 C783 0.930 . S
H776 C786 0.930 . S
H777 C787 0.930 . S
C778 H772 0.930 . S
C778 C779 1.355 1_655 S
C778 C780 1.415 . S
C779 C778 1.355 1_455 S
C779 C781 1.419 . S
C780 C778 1.415 . S
C780 C785 1.425 1_655 S
C780 C787 1.409 . S
C781 H773 0.930 . S
C781 C779 1.419 . S
C781 C782 1.362 . S
C782 H774 0.930 . S
C782 C781 1.362 . S
C782 C785 1.409 . S
C783 H775 0.930 . S
C783 C784 1.355 1_455 S
C783 C785 1.415 . S
C784 C783 1.355 1_655 S
C784 C786 1.419 . S
C785 C780 1.425 1_455 S
C785 C782 1.409 . S
C785 C783 1.415 . S
C786 H776 0.930 . S
C786 C784 1.419 . S
C786 C787 1.362 . S
C787 H777 0.930 . S
C787 C780 1.409 . S
C787 C786 1.362 . S
H788 C794 0.930 . S
H789 C797 0.930 . S
H790 C798 0.930 . S
H791 C799 0.930 . S
H792 C802 0.930 . S
H793 C803 0.930 . S
C794 H788 0.930 . S
C794 C795 1.356 . S
C794 C796 1.415 . S
C795 C794 1.356 . S
C795 C797 1.418 1_565 S
C796 C794 1.415 . S
C796 C801 1.425 1_565 S
C796 C803 1.409 . S
C797 H789 0.930 . S
C797 C795 1.418 1_545 S
C797 C798 1.362 . S
C798 H790 0.930 . S
C798 C797 1.362 . S
C798 C801 1.409 . S
C799 H791 0.930 . S
C799 C800 1.359 . S
C799 C801 1.415 . S
C800 C799 1.359 . S
C800 C802 1.415 1_545 S
C801 C796 1.425 1_545 S
C801 C798 1.409 . S
C801 C799 1.415 . S
C802 H792 0.930 . S
C802 C800 1.415 1_565 S
C802 C803 1.362 . S
C803 H793 0.930 . S
C803 C796 1.409 . S
C803 C802 1.362 . S
H804 C810 0.930 . S
H805 C813 0.930 . S
H806 C814 0.930 . S
H807 C815 0.930 . S
H808 C818 0.930 . S
H809 C819 0.930 . S
C810 H804 0.930 . S
C810 C811 1.355 1_455 S
C810 C812 1.415 . S
C811 C810 1.355 1_655 S
C811 C813 1.419 . S
C812 C810 1.415 . S
C812 C817 1.425 1_455 S
C812 C819 1.409 . S
C813 H805 0.930 . S
C813 C811 1.419 . S
C813 C814 1.362 . S
C814 H806 0.930 . S
C814 C813 1.362 . S
C814 C817 1.409 . S
C815 H807 0.930 . S
C815 C816 1.355 1_655 S
C815 C817 1.415 . S
C816 C815 1.355 1_455 S
C816 C818 1.419 . S
C817 C812 1.425 1_655 S
C817 C814 1.409 . S
C817 C815 1.415 . S
C818 H808 0.930 . S
C818 C816 1.419 . S
C818 C819 1.362 . S
C819 H809 0.930 . S
C819 C812 1.409 . S
C819 C818 1.362 . S
H820 C826 0.930 . S
H821 C829 0.930 . S
H822 C830 0.930 . S
H823 C831 0.930 . S
H824 C834 0.930 . S
H825 C835 0.930 . S
C826 H820 0.930 . S
C826 C827 1.350 1_545 S
C826 C828 1.415 . S
C827 C826 1.350 1_565 S
C827 C829 1.425 . S
C828 C826 1.415 . S
C828 C833 1.425 1_545 S
C828 C835 1.409 . S
C829 H821 0.930 . S
C829 C827 1.425 . S
C829 C830 1.362 . S
C830 H822 0.930 . S
C830 C829 1.362 . S
C830 C833 1.409 . S
C831 H823 0.930 . S
C831 C832 1.343 1_565 S
C831 C833 1.415 . S
C832 C831 1.343 1_545 S
C832 C834 1.434 . S
C833 C828 1.425 1_565 S
C833 C830 1.409 . S
C833 C831 1.415 . S
C834 H824 0.930 . S
C834 C832 1.434 . S
C834 C835 1.362 . S
C835 H825 0.930 . S
C835 C828 1.409 . S
C835 C834 1.362 . S
H836 C842 0.930 . S
H837 C845 0.930 . S
H838 C846 0.930 . S
H839 C847 0.930 . S
H840 C850 0.930 . S
H841 C851 0.930 . S
C842 H836 0.930 . S
C842 C843 1.355 1_655 S
C842 C844 1.415 . S
C843 C842 1.355 1_455 S
C843 C845 1.419 . S
C844 C842 1.415 . S
C844 C849 1.425 1_655 S
C844 C851 1.409 . S
C845 H837 0.930 . S
C845 C843 1.419 . S
C845 C846 1.362 . S
C846 H838 0.930 . S
C846 C845 1.362 . S
C846 C849 1.409 . S
C847 H839 0.930 . S
C847 C848 1.355 1_455 S
C847 C849 1.415 . S
C848 C847 1.355 1_655 S
C848 C850 1.419 . S
C849 C844 1.425 1_455 S
C849 C846 1.409 . S
C849 C847 1.415 . S
C850 H840 0.930 . S
C850 C848 1.419 . S
C850 C851 1.362 . S
C851 H841 0.930 . S
C851 C844 1.409 . S
C851 C850 1.362 . S
H852 C858 0.930 . S
H853 C861 0.930 . S
H854 C862 0.930 . S
H855 C863 0.930 . S
H856 C866 0.930 . S
H857 C867 0.930 . S
C858 H852 0.930 . S
C858 C859 1.355 1_545 S
C858 C860 1.415 . S
C859 C858 1.355 1_565 S
C859 C861 1.419 . S
C860 C858 1.415 . S
C860 C865 1.425 1_545 S
C860 C867 1.409 . S
C861 H853 0.930 . S
C861 C859 1.419 . S
C861 C862 1.362 . S
C862 H854 0.930 . S
C862 C861 1.362 . S
C862 C865 1.409 . S
C863 H855 0.930 . S
C863 C864 1.355 1_565 S
C863 C865 1.415 . S
C864 C863 1.355 1_545 S
C864 C866 1.419 . S
C865 C860 1.425 1_565 S
C865 C862 1.409 . S
C865 C863 1.415 . S
C866 H856 0.930 . S
C866 C864 1.419 . S
C866 C867 1.362 . S
C867 H857 0.930 . S
C867 C860 1.409 . S
C867 C866 1.362 . S
H868 C874 0.930 . S
H869 C877 0.930 . S
H870 C878 0.930 . S
H871 C879 0.930 . S
H872 C882 0.930 . S
H873 C883 0.930 . S
C874 H868 0.930 . S
C874 C875 1.355 1_655 S
C874 C876 1.415 . S
C875 C874 1.355 1_455 S
C875 C877 1.419 . S
C876 C874 1.415 . S
C876 C881 1.425 1_655 S
C876 C883 1.409 . S
C877 H869 0.930 . S
C877 C875 1.419 . S
C877 C878 1.362 . S
C878 H870 0.930 . S
C878 C877 1.362 . S
C878 C881 1.409 . S
C879 H871 0.930 . S
C879 C880 1.355 1_455 S
C879 C881 1.415 . S
C880 C879 1.355 1_655 S
C880 C882 1.419 . S
C881 C876 1.425 1_455 S
C881 C878 1.409 . S
C881 C879 1.415 . S
C882 H872 0.930 . S
C882 C880 1.419 . S
C882 C883 1.362 . S
C883 H873 0.930 . S
C883 C876 1.409 . S
C883 C882 1.362 . S
H884 C890 0.930 . S
H885 C893 0.930 . S
H886 C894 0.930 . S
H887 C895 0.930 . S
H888 C898 0.930 . S
H889 C899 0.930 . S
C890 H884 0.930 . S
C890 C891 1.355 1_545 S
C890 C892 1.415 . S
C891 C890 1.355 1_565 S
C891 C893 1.419 . S
C892 C890 1.415 . S
C892 C897 1.425 1_545 S
C892 C899 1.409 . S
C893 H885 0.930 . S
C893 C891 1.419 . S
C893 C894 1.362 . S
C894 H886 0.930 . S
C894 C893 1.362 . S
C894 C897 1.409 . S
C895 H887 0.930 . S
C895 C896 1.355 1_565 S
C895 C897 1.415 . S
C896 C895 1.355 1_545 S
C896 C898 1.419 . S
C897 C892 1.425 1_565 S
C897 C894 1.409 . S
C897 C895 1.415 . S
C898 H888 0.930 . S
C898 C896 1.419 . S
C898 C899 1.362 . S
C899 H889 0.930 . S
C899 C892 1.409 . S
C899 C898 1.362 . S
H900 C906 0.930 . S
H901 C909 0.930 . S
H902 C910 0.930 . S
H903 C911 0.930 . S
H904 C914 0.930 . S
H905 C915 0.930 . S
C906 H900 0.930 . S
C906 C907 1.352 1_655 S
C906 C908 1.415 . S
C907 C906 1.352 1_455 S
C907 C909 1.423 . S
C908 C906 1.415 . S
C908 C913 1.425 1_655 S
C908 C915 1.409 . S
C909 H901 0.930 . S
C909 C907 1.423 . S
C909 C910 1.362 . S
C910 H902 0.930 . S
C910 C909 1.362 . S
C910 C913 1.409 . S
C911 H903 0.930 . S
C911 C912 1.359 . S
C911 C913 1.415 . S
C912 C911 1.359 . S
C912 C914 1.414 1_455 S
C913 C908 1.425 1_455 S
C913 C910 1.409 . S
C913 C911 1.415 . S
C914 H904 0.930 . S
C914 C912 1.414 1_655 S
C914 C915 1.362 . S
C915 H905 0.930 . S
C915 C908 1.409 . S
C915 C914 1.362 . S
H916 C922 0.930 . S
H917 C925 0.930 . S
H918 C926 0.930 . S
H919 C927 0.930 . S
H920 C930 0.930 . S
H921 C931 0.930 . S
C922 H916 0.930 . S
C922 C923 1.355 1_545 S
C922 C924 1.415 . S
C923 C922 1.355 1_565 S
C923 C925 1.419 . S
C924 C922 1.415 . S
C924 C929 1.425 1_545 S
C924 C931 1.409 . S
C925 H917 0.930 . S
C925 C923 1.419 . S
C925 C926 1.362 . S
C926 H918 0.930 . S
C926 C925 1.362 . S
C926 C929 1.409 . S
C927 H919 0.930 . S
C927 C928 1.355 1_565 S
C927 C929 1.415 . S
C928 C927 1.355 1_545 S
C928 C930 1.419 . S
C929 C924 1.425 1_565 S
C929 C926 1.409 . S
C929 C927 1.415 . S
C930 H920 0.930 . S
C930 C928 1.419 . S
C930 C931 1.362 . S
C931 H921 0.930 . S
C931 C924 1.409 . S
C931 C930 1.362 . S
H932 C938 0.930 . S
H933 C941 0.930 . S
H934 C942 0.930 . S
H935 C943 0.930 . S
H936 C946 0.930 . S
H937 C947 0.930 . S
C938 H932 0.930 . S
C938 C939 1.355 1_455 S
C938 C940 1.415 . S
C939 C938 1.355 1_655 S
C939 C941 1.419 . S
C940 C938 1.415 . S
C940 C945 1.425 1_455 S
C940 C947 1.409 . S
C941 H933 0.930 . S
C941 C939 1.419 . S
C941 C942 1.362 . S
C942 H934 0.930 . S
C942 C941 1.362 . S
C942 C945 1.409 . S
C943 H935 0.930 . S
C943 C944 1.355 1_655 S
C943 C945 1.415 . S
C944 C943 1.355 1_455 S
C944 C946 1.419 . S
C945 C940 1.425 1_655 S
C945 C942 1.409 . S
C945 C943 1.415 . S
C946 H936 0.930 . S
C946 C944 1.419 . S
C946 C947 1.362 . S
C947 H937 0.930 . S
C947 C940 1.409 . S
C947 C946 1.362 . S
H948 C954 0.930 . S
H949 C957 0.930 . S
H950 C958 0.930 . S
H951 C959 0.930 . S
H952 C962 0.930 . S
H953 C963 0.930 . S
C954 H948 0.930 . S
C954 C955 1.355 1_565 S
C954 C956 1.415 . S
C955 C954 1.355 1_545 S
C955 C957 1.419 . S
C956 C954 1.415 . S
C956 C961 1.425 1_565 S
C956 C963 1.409 . S
C957 H949 0.930 . S
C957 C955 1.419 . S
C957 C958 1.362 . S
C958 H950 0.930 . S
C958 C957 1.362 . S
C958 C961 1.409 . S
C959 H951 0.930 . S
C959 C960 1.355 1_545 S
C959 C961 1.415 . S
C960 C959 1.355 1_565 S
C960 C962 1.419 . S
C961 C956 1.425 1_545 S
C961 C958 1.409 . S
C961 C959 1.415 . S
C962 H952 0.930 . S
C962 C960 1.419 . S
C962 C963 1.362 . S
C963 H953 0.930 . S
C963 C956 1.409 . S
C963 C962 1.362 . S
H964 C970 0.930 . S
H965 C973 0.930 . S
H966 C974 0.930 . S
H967 C975 0.930 . S
H968 C978 0.930 . S
H969 C979 0.930 . S
C970 H964 0.930 . S
C970 C971 1.355 1_655 S
C970 C972 1.415 . S
C971 C970 1.355 1_455 S
C971 C973 1.419 . S
C972 C970 1.415 . S
C972 C977 1.425 1_655 S
C972 C979 1.409 . S
C973 H965 0.930 . S
C973 C971 1.419 . S
C973 C974 1.362 . S
C974 H966 0.930 . S
C974 C973 1.362 . S
C974 C977 1.409 . S
C975 H967 0.930 . S
C975 C976 1.355 1_455 S
C975 C977 1.415 . S
C976 C975 1.355 1_655 S
C976 C978 1.419 . S
C977 C972 1.425 1_455 S
C977 C974 1.409 . S
C977 C975 1.415 . S
C978 H968 0.930 . S
C978 C976 1.419 . S
C978 C979 1.362 . S
C979 H969 0.930 . S
C979 C972 1.409 . S
C979 C978 1.362 . S
H980 C986 0.930 . S
H981 C989 0.930 . S
H982 C990 0.930 . S
H983 C991 0.930 . S
H984 C994 0.930 . S
H985 C995 0.930 . S
C986 H980 0.930 . S
C986 C987 1.344 1_565 S
C986 C988 1.415 . S
C987 C986 1.344 1_545 S
C987 C989 1.433 . S
C988 C986 1.415 . S
C988 C993 1.425 1_565 S
C988 C995 1.409 . S
C989 H981 0.930 . S
C989 C987 1.433 . S
C989 C990 1.362 . S
C990 H982 0.930 . S
C990 C989 1.362 . S
C990 C993 1.409 . S
C991 H983 0.930 . S
C991 C992 1.350 1_545 S
C991 C993 1.415 . S
C992 C991 1.350 1_565 S
C992 C994 1.425 . S
C993 C988 1.425 1_545 S
C993 C990 1.409 . S
C993 C991 1.415 . S
C994 H984 0.930 . S
C994 C992 1.425 . S
C994 C995 1.362 . S
C995 H985 0.930 . S
C995 C988 1.409 . S
C995 C994 1.362 . S
H996 C1002 0.930 . S
H997 C1005 0.930 . S
H998 C1006 0.930 . S
H999 C1007 0.930 . S
H1000 C1010 0.930 . S
H1001 C1011 0.930 . S
C1002 H996 0.930 . S
C1002 C1003 1.355 1_655 S
C1002 C1004 1.415 . S
C1003 C1002 1.355 1_455 S
C1003 C1005 1.419 . S
C1004 C1002 1.415 . S
C1004 C1009 1.425 1_655 S
C1004 C1011 1.409 . S
C1005 H997 0.930 . S
C1005 C1003 1.419 . S
C1005 C1006 1.362 . S
C1006 H998 0.930 . S
C1006 C1005 1.362 . S
C1006 C1009 1.409 . S
C1007 H999 0.930 . S
C1007 C1008 1.355 1_455 S
C1007 C1009 1.415 . S
C1008 C1007 1.355 1_655 S
C1008 C1010 1.419 . S
C1009 C1004 1.425 1_455 S
C1009 C1006 1.409 . S
C1009 C1007 1.415 . S
C1010 H1000 0.930 . S
C1010 C1008 1.419 . S
C1010 C1011 1.362 . S
C1011 H1001 0.930 . S
C1011 C1004 1.409 . S
C1011 C1010 1.362 . S
H1012 C1018 0.930 . S
H1013 C1021 0.930 . S
H1014 C1022 0.930 . S
H1015 C1023 0.930 . S
H1016 C1026 0.930 . S
H1017 C1027 0.930 . S
C1018 H1012 0.930 . S
C1018 C1019 1.357 . S
C1018 C1020 1.415 . S
C1019 C1018 1.357 . S
C1019 C1021 1.416 1_545 S
C1020 C1018 1.415 . S
C1020 C1025 1.425 1_545 S
C1020 C1027 1.409 . S
C1021 H1013 0.930 . S
C1021 C1019 1.416 1_565 S
C1021 C1022 1.362 . S
C1022 H1014 0.930 . S
C1022 C1021 1.362 . S
C1022 C1025 1.409 . S
C1023 H1015 0.930 . S
C1023 C1024 1.354 . S
C1023 C1025 1.415 . S
C1024 C1023 1.354 . S
C1024 C1026 1.420 1_565 S
C1025 C1020 1.425 1_565 S
C1025 C1022 1.409 . S
C1025 C1023 1.415 . S
C1026 H1016 0.930 . S
C1026 C1024 1.420 1_545 S
C1026 C1027 1.362 . S
C1027 H1017 0.930 . S
C1027 C1020 1.409 . S
C1027 C1026 1.362 . S
H1028 C1034 0.930 . S
H1029 C1037 0.930 . S
H1030 C1038 0.930 . S
H1031 C1039 0.930 . S
H1032 C1042 0.930 . S
H1033 C1043 0.930 . S
C1034 H1028 0.930 . S
C1034 C1035 1.352 1_545 S
C1034 C1036 1.415 . S
C1035 C1034 1.352 1_565 S
C1035 C1037 1.422 . S
C1036 C1034 1.415 . S
C1036 C1041 1.425 1_545 S
C1036 C1043 1.409 . S
C1037 H1029 0.930 . S
C1037 C1035 1.422 . S
C1037 C1038 1.362 . S
C1038 H1030 0.930 . S
C1038 C1037 1.362 . S
C1038 C1041 1.409 . S
C1039 H1031 0.930 . S
C1039 C1040 1.348 1_565 S
C1039 C1041 1.415 . S
C1040 C1039 1.348 1_545 S
C1040 C1042 1.428 . S
C1041 C1036 1.425 1_565 S
C1041 C1038 1.409 . S
C1041 C1039 1.415 . S
C1042 H1032 0.930 . S
C1042 C1040 1.428 . S
C1042 C1043 1.362 . S
C1043 H1033 0.930 . S
C1043 C1036 1.409 . S
C1043 C1042 1.362 . S
H1044 C1050 0.930 . S
H1045 C1053 0.930 . S
H1046 C1054 0.930 . S
H1047 C1055 0.930 . S
H1048 C1058 0.930 . S
H1049 C1059 0.930 . S
C1050 H1044 0.930 . S
C1050 C1051 1.352 1_455 S
C1050 C1052 1.415 . S
C1051 C1050 1.352 1_655 S
C1051 C1053 1.423 . S
C1052 C1050 1.415 . S
C1052 C1057 1.425 1_455 S
C1052 C1059 1.409 . S
C1053 H1045 0.930 . S
C1053 C1051 1.423 . S
C1053 C1054 1.362 . S
C1054 H1046 0.930 . S
C1054 C1053 1.362 . S
C1054 C1057 1.409 . S
C1055 H1047 0.930 . S
C1055 C1056 1.342 1_655 S
C1055 C1057 1.415 . S
C1056 C1055 1.342 1_455 S
C1056 C1058 1.435 . S
C1057 C1052 1.425 1_655 S
C1057 C1054 1.409 . S
C1057 C1055 1.415 . S
C1058 H1048 0.930 . S
C1058 C1056 1.435 . S
C1058 C1059 1.362 . S
C1059 H1049 0.930 . S
C1059 C1052 1.409 . S
C1059 C1058 1.362 . S
H1060 C1066 0.930 . S
H1061 C1069 0.930 . S
H1062 C1070 0.930 . S
H1063 C1071 0.930 . S
H1064 C1074 0.930 . S
H1065 C1075 0.930 . S
C1066 H1060 0.930 . S
C1066 C1067 1.348 1_545 S
C1066 C1068 1.415 . S
C1067 C1066 1.348 1_565 S
C1067 C1069 1.427 . S
C1068 C1066 1.415 . S
C1068 C1073 1.425 1_545 S
C1068 C1075 1.409 . S
C1069 H1061 0.930 . S
C1069 C1067 1.427 . S
C1069 C1070 1.362 . S
C1070 H1062 0.930 . S
C1070 C1069 1.362 . S
C1070 C1073 1.409 . S
C1071 H1063 0.930 . S
C1071 C1072 1.344 1_565 S
C1071 C1073 1.415 . S
C1072 C1071 1.344 1_545 S
C1072 C1074 1.433 . S
C1073 C1068 1.425 1_565 S
C1073 C1070 1.409 . S
C1073 C1071 1.415 . S
C1074 H1064 0.930 . S
C1074 C1072 1.433 . S
C1074 C1075 1.362 . S
C1075 H1065 0.930 . S
C1075 C1068 1.409 . S
C1075 C1074 1.362 . S
H1076 C1082 0.930 . S
H1077 C1085 0.930 . S
H1078 C1086 0.930 . S
H1079 C1087 0.930 . S
H1080 C1090 0.930 . S
H1081 C1091 0.930 . S
C1082 H1076 0.930 . S
C1082 C1083 1.355 1_655 S
C1082 C1084 1.415 . S
C1083 C1082 1.355 1_455 S
C1083 C1085 1.419 . S
C1084 C1082 1.415 . S
C1084 C1089 1.425 1_655 S
C1084 C1091 1.409 . S
C1085 H1077 0.930 . S
C1085 C1083 1.419 . S
C1085 C1086 1.362 . S
C1086 H1078 0.930 . S
C1086 C1085 1.362 . S
C1086 C1089 1.409 . S
C1087 H1079 0.930 . S
C1087 C1088 1.355 1_455 S
C1087 C1089 1.415 . S
C1088 C1087 1.355 1_655 S
C1088 C1090 1.419 . S
C1089 C1084 1.425 1_455 S
C1089 C1086 1.409 . S
C1089 C1087 1.415 . S
C1090 H1080 0.930 . S
C1090 C1088 1.419 . S
C1090 C1091 1.362 . S
C1091 H1081 0.930 . S
C1091 C1084 1.409 . S
C1091 C1090 1.362 . S
H1092 C1098 0.930 . S
H1093 C1101 0.930 . S
H1094 C1102 0.930 . S
H1095 C1103 0.930 . S
H1096 C1106 0.930 . S
H1097 C1107 0.930 . S
C1098 H1092 0.930 . S
C1098 C1099 1.355 1_565 S
C1098 C1100 1.415 . S
C1099 C1098 1.355 1_545 S
C1099 C1101 1.419 . S
C1100 C1098 1.415 . S
C1100 C1105 1.425 1_565 S
C1100 C1107 1.409 . S
C1101 H1093 0.930 . S
C1101 C1099 1.419 . S
C1101 C1102 1.362 . S
C1102 H1094 0.930 . S
C1102 C1101 1.362 . S
C1102 C1105 1.409 . S
C1103 H1095 0.930 . S
C1103 C1104 1.355 1_545 S
C1103 C1105 1.415 . S
C1104 C1103 1.355 1_565 S
C1104 C1106 1.419 . S
C1105 C1100 1.425 1_545 S
C1105 C1102 1.409 . S
C1105 C1103 1.415 . S
C1106 H1096 0.930 . S
C1106 C1104 1.419 . S
C1106 C1107 1.362 . S
C1107 H1097 0.930 . S
C1107 C1100 1.409 . S
C1107 C1106 1.362 . S
H1108 C1114 0.930 . S
H1109 C1117 0.930 . S
H1110 C1118 0.930 . S
H1111 C1119 0.930 . S
H1112 C1122 0.930 . S
H1113 C1123 0.930 . S
C1114 H1108 0.930 . S
C1114 C1115 1.355 1_455 S
C1114 C1116 1.415 . S
C1115 C1114 1.355 1_655 S
C1115 C1117 1.419 . S
C1116 C1114 1.415 . S
C1116 C1121 1.425 1_455 S
C1116 C1123 1.409 . S
C1117 H1109 0.930 . S
C1117 C1115 1.419 . S
C1117 C1118 1.362 . S
C1118 H1110 0.930 . S
C1118 C1117 1.362 . S
C1118 C1121 1.409 . S
C1119 H1111 0.930 . S
C1119 C1120 1.355 1_655 S
C1119 C1121 1.415 . S
C1120 C1119 1.355 1_455 S
C1120 C1122 1.419 . S
C1121 C1116 1.425 1_655 S
C1121 C1118 1.409 . S
C1121 C1119 1.415 . S
C1122 H1112 0.930 . S
C1122 C1120 1.419 . S
C1122 C1123 1.362 . S
C1123 H1113 0.930 . S
C1123 C1116 1.409 . S
C1123 C1122 1.362 . S
H1124 C1130 0.930 . S
H1125 C1133 0.930 . S
H1126 C1134 0.930 . S
H1127 C1135 0.930 . S
H1128 C1138 0.930 . S
H1129 C1139 0.930 . S
C1130 H1124 0.930 . S
C1130 C1131 1.358 . S
C1130 C1132 1.415 . S
C1131 C1130 1.358 . S
C1131 C1133 1.415 1_545 S
C1132 C1130 1.415 . S
C1132 C1137 1.425 1_545 S
C1132 C1139 1.409 . S
C1133 H1125 0.930 . S
C1133 C1131 1.415 1_565 S
C1133 C1134 1.362 . S
C1134 H1126 0.930 . S
C1134 C1133 1.362 . S
C1134 C1137 1.409 . S
C1135 H1127 0.930 . S
C1135 C1136 1.357 . S
C1135 C1137 1.415 . S
C1136 C1135 1.357 . S
C1136 C1138 1.417 1_565 S
C1137 C1132 1.425 1_565 S
C1137 C1134 1.409 . S
C1137 C1135 1.415 . S
C1138 H1128 0.930 . S
C1138 C1136 1.417 1_545 S
C1138 C1139 1.362 . S
C1139 H1129 0.930 . S
C1139 C1132 1.409 . S
C1139 C1138 1.362 . S
H1140 C1146 0.930 . S
H1141 C1149 0.930 . S
H1142 C1150 0.930 . S
H1143 C1151 0.930 . S
H1144 C1154 0.930 . S
H1145 C1155 0.930 . S
C1146 H1140 0.930 . S
C1146 C1147 1.354 1_455 S
C1146 C1148 1.415 . S
C1147 C1146 1.354 1_655 S
C1147 C1149 1.420 . S
C1148 C1146 1.415 . S
C1148 C1153 1.425 1_455 S
C1148 C1155 1.409 . S
C1149 H1141 0.930 . S
C1149 C1147 1.420 . S
C1149 C1150 1.362 . S
C1150 H1142 0.930 . S
C1150 C1149 1.362 . S
C1150 C1153 1.409 . S
C1151 H1143 0.930 . S
C1151 C1152 1.346 1_655 S
C1151 C1153 1.415 . S
C1152 C1151 1.346 1_455 S
C1152 C1154 1.430 . S
C1153 C1148 1.425 1_655 S
C1153 C1150 1.409 . S
C1153 C1151 1.415 . S
C1154 H1144 0.930 . S
C1154 C1152 1.430 . S
C1154 C1155 1.362 . S
C1155 H1145 0.930 . S
C1155 C1148 1.409 . S
C1155 C1154 1.362 . S
H1156 C1162 0.930 . S
H1157 C1165 0.930 . S
H1158 C1166 0.930 . S
H1159 C1167 0.930 . S
H1160 C1170 0.930 . S
H1161 C1171 0.930 . S
C1162 H1156 0.930 . S
C1162 C1163 1.355 1_554 S
C1162 C1164 1.415 . S
C1163 C1162 1.355 1_556 S
C1163 C1165 1.419 . S
C1164 C1162 1.415 . S
C1164 C1169 1.425 1_554 S
C1164 C1171 1.409 . S
C1165 H1157 0.930 . S
C1165 C1163 1.419 . S
C1165 C1166 1.362 . S
C1166 H1158 0.930 . S
C1166 C1165 1.362 . S
C1166 C1169 1.409 . S
C1167 H1159 0.930 . S
C1167 C1168 1.355 1_556 S
C1167 C1169 1.415 . S
C1168 C1167 1.355 1_554 S
C1168 C1170 1.419 . S
C1169 C1164 1.425 1_556 S
C1169 C1166 1.409 . S
C1169 C1167 1.415 . S
C1170 H1160 0.930 . S
C1170 C1168 1.419 . S
C1170 C1171 1.362 . S
C1171 H1161 0.930 . S
C1171 C1164 1.409 . S
C1171 C1170 1.362 . S
H1172 C1178 0.930 . S
H1173 C1181 0.930 . S
H1174 C1182 0.930 . S
H1175 C1183 0.930 . S
H1176 C1186 0.930 . S
H1177 C1187 0.930 . S
C1178 H1172 0.930 . S
C1178 C1179 1.355 1_556 S
C1178 C1180 1.415 . S
C1179 C1178 1.355 1_554 S
C1179 C1181 1.419 . S
C1180 C1178 1.415 . S
C1180 C1185 1.425 1_556 S
C1180 C1187 1.409 . S
C1181 H1173 0.930 . S
C1181 C1179 1.419 . S
C1181 C1182 1.362 . S
C1182 H1174 0.930 . S
C1182 C1181 1.362 . S
C1182 C1185 1.409 . S
C1183 H1175 0.930 . S
C1183 C1184 1.355 1_554 S
C1183 C1185 1.415 . S
C1184 C1183 1.355 1_556 S
C1184 C1186 1.419 . S
C1185 C1180 1.425 1_554 S
C1185 C1182 1.409 . S
C1185 C1183 1.415 . S
C1186 H1176 0.930 . S
C1186 C1184 1.419 . S
C1186 C1187 1.362 . S
C1187 H1177 0.930 . S
C1187 C1180 1.409 . S
C1187 C1186 1.362 . S
H1188 C1194 0.930 . S
H1189 C1197 0.930 . S
H1190 C1198 0.930 . S
H1191 C1199 0.930 . S
H1192 C1202 0.930 . S
H1193 C1203 0.930 . S
C1194 H1188 0.930 . S
C1194 C1195 1.355 1_556 S
C1194 C1196 1.415 . S
C1195 C1194 1.355 1_554 S
C1195 C1197 1.419 . S
C1196 C1194 1.415 . S
C1196 C1201 1.425 1_556 S
C1196 C1203 1.409 . S
C1197 H1189 0.930 . S
C1197 C1195 1.419 . S
C1197 C1198 1.362 . S
C1198 H1190 0.930 . S
C1198 C1197 1.362 . S
C1198 C1201 1.409 . S
C1199 H1191 0.930 . S
C1199 C1200 1.355 1_554 S
C1199 C1201 1.415 . S
C1200 C1199 1.355 1_556 S
C1200 C1202 1.419 . S
C1201 C1196 1.425 1_554 S
C1201 C1198 1.409 . S
C1201 C1199 1.415 . S
C1202 H1192 0.930 . S
C1202 C1200 1.419 . S
C1202 C1203 1.362 . S
C1203 H1193 0.930 . S
C1203 C1196 1.409 . S
C1203 C1202 1.362 . S
H1204 C1210 0.930 . S
H1205 C1213 0.930 . S
H1206 C1214 0.930 . S
H1207 C1215 0.930 . S
H1208 C1218 0.930 . S
H1209 C1219 0.930 . S
C1210 H1204 0.930 . S
C1210 C1211 1.355 1_556 S
C1210 C1212 1.415 . S
C1211 C1210 1.355 1_554 S
C1211 C1213 1.419 . S
C1212 C1210 1.415 . S
C1212 C1217 1.425 1_556 S
C1212 C1219 1.409 . S
C1213 H1205 0.930 . S
C1213 C1211 1.419 . S
C1213 C1214 1.362 . S
C1214 H1206 0.930 . S
C1214 C1213 1.362 . S
C1214 C1217 1.409 . S
C1215 H1207 0.930 . S
C1215 C1216 1.355 1_554 S
C1215 C1217 1.415 . S
C1216 C1215 1.355 1_556 S
C1216 C1218 1.419 . S
C1217 C1212 1.425 1_554 S
C1217 C1214 1.409 . S
C1217 C1215 1.415 . S
C1218 H1208 0.930 . S
C1218 C1216 1.419 . S
C1218 C1219 1.362 . S
C1219 H1209 0.930 . S
C1219 C1212 1.409 . S
C1219 C1218 1.362 . S
H1220 C1226 0.930 . S
H1221 C1229 0.930 . S
H1222 C1230 0.930 . S
H1223 C1231 0.930 . S
H1224 C1234 0.930 . S
H1225 C1235 0.930 . S
C1226 H1220 0.930 . S
C1226 C1227 1.355 1_556 S
C1226 C1228 1.415 . S
C1227 C1226 1.355 1_554 S
C1227 C1229 1.419 . S
C1228 C1226 1.415 . S
C1228 C1233 1.425 1_556 S
C1228 C1235 1.409 . S
C1229 H1221 0.930 . S
C1229 C1227 1.419 . S
C1229 C1230 1.362 . S
C1230 H1222 0.930 . S
C1230 C1229 1.362 . S
C1230 C1233 1.409 . S
C1231 H1223 0.930 . S
C1231 C1232 1.355 1_554 S
C1231 C1233 1.415 . S
C1232 C1231 1.355 1_556 S
C1232 C1234 1.419 . S
C1233 C1228 1.425 1_554 S
C1233 C1230 1.409 . S
C1233 C1231 1.415 . S
C1234 H1224 0.930 . S
C1234 C1232 1.419 . S
C1234 C1235 1.362 . S
C1235 H1225 0.930 . S
C1235 C1228 1.409 . S
C1235 C1234 1.362 . S
H1236 C1242 0.930 . S
H1237 C1245 0.930 . S
H1238 C1246 0.930 . S
H1239 C1247 0.930 . S
H1240 C1250 0.930 . S
H1241 C1251 0.930 . S
C1242 H1236 0.930 . S
C1242 C1243 1.355 1_554 S
C1242 C1244 1.415 . S
C1243 C1242 1.355 1_556 S
C1243 C1245 1.419 . S
C1244 C1242 1.415 . S
C1244 C1249 1.425 1_554 S
C1244 C1251 1.409 . S
C1245 H1237 0.930 . S
C1245 C1243 1.419 . S
C1245 C1246 1.362 . S
C1246 H1238 0.930 . S
C1246 C1245 1.362 . S
C1246 C1249 1.409 . S
C1247 H1239 0.930 . S
C1247 C1248 1.355 1_556 S
C1247 C1249 1.415 . S
C1248 C1247 1.355 1_554 S
C1248 C1250 1.419 . S
C1249 C1244 1.425 1_556 S
C1249 C1246 1.409 . S
C1249 C1247 1.415 . S
C1250 H1240 0.930 . S
C1250 C1248 1.419 . S
C1250 C1251 1.362 . S
C1251 H1241 0.930 . S
C1251 C1244 1.409 . S
C1251 C1250 1.362 . S
H1252 C1258 0.930 . S
H1253 C1261 0.930 . S
H1254 C1262 0.930 . S
H1255 C1263 0.930 . S
H1256 C1266 0.930 . S
H1257 C1267 0.930 . S
C1258 H1252 0.930 . S
C1258 C1259 1.355 1_556 S
C1258 C1260 1.415 . S
C1259 C1258 1.355 1_554 S
C1259 C1261 1.419 . S
C1260 C1258 1.415 . S
C1260 C1265 1.425 1_556 S
C1260 C1267 1.409 . S
C1261 H1253 0.930 . S
C1261 C1259 1.419 . S
C1261 C1262 1.362 . S
C1262 H1254 0.930 . S
C1262 C1261 1.362 . S
C1262 C1265 1.409 . S
C1263 H1255 0.930 . S
C1263 C1264 1.355 1_554 S
C1263 C1265 1.415 . S
C1264 C1263 1.355 1_556 S
C1264 C1266 1.419 . S
C1265 C1260 1.425 1_554 S
C1265 C1262 1.409 . S
C1265 C1263 1.415 . S
C1266 H1256 0.930 . S
C1266 C1264 1.419 . S
C1266 C1267 1.362 . S
C1267 H1257 0.930 . S
C1267 C1260 1.409 . S
C1267 C1266 1.362 . S
H1268 C1274 0.930 . S
H1269 C1277 0.930 . S
H1270 C1278 0.930 . S
H1271 C1279 0.930 . S
H1272 C1282 0.930 . S
H1273 C1283 0.930 . S
C1274 H1268 0.930 . S
C1274 C1275 1.355 1_556 S
C1274 C1276 1.415 . S
C1275 C1274 1.355 1_554 S
C1275 C1277 1.419 . S
C1276 C1274 1.415 . S
C1276 C1281 1.425 1_556 S
C1276 C1283 1.409 . S
C1277 H1269 0.930 . S
C1277 C1275 1.419 . S
C1277 C1278 1.362 . S
C1278 H1270 0.930 . S
C1278 C1277 1.362 . S
C1278 C1281 1.409 . S
C1279 H1271 0.930 . S
C1279 C1280 1.355 1_554 S
C1279 C1281 1.415 . S
C1280 C1279 1.355 1_556 S
C1280 C1282 1.419 . S
C1281 C1276 1.425 1_554 S
C1281 C1278 1.409 . S
C1281 C1279 1.415 . S
C1282 H1272 0.930 . S
C1282 C1280 1.419 . S
C1282 C1283 1.362 . S
C1283 H1273 0.930 . S
C1283 C1276 1.409 . S
C1283 C1282 1.362 . S
H1284 C1290 0.930 . S
H1285 C1293 0.930 . S
H1286 C1294 0.930 . S
H1287 C1295 0.930 . S
H1288 C1298 0.930 . S
H1289 C1299 0.930 . S
C1290 H1284 0.930 . S
C1290 C1291 1.355 . S
C1290 C1292 1.415 . S
C1291 C1290 1.355 . S
C1291 C1293 1.419 . S
C1292 C1290 1.415 . S
C1292 C1297 1.425 . S
C1292 C1299 1.409 . S
C1293 H1285 0.930 . S
C1293 C1291 1.419 . S
C1293 C1294 1.362 . S
C1294 H1286 0.930 . S
C1294 C1293 1.362 . S
C1294 C1297 1.409 . S
C1295 H1287 0.930 . S
C1295 C1296 1.355 . S
C1295 C1297 1.415 . S
C1296 C1295 1.355 . S
C1296 C1298 1.419 . S
C1297 C1292 1.425 . S
C1297 C1294 1.409 . S
C1297 C1295 1.415 . S
C1298 H1288 0.930 . S
C1298 C1296 1.419 . S
C1298 C1299 1.362 . S
C1299 H1289 0.930 . S
C1299 C1292 1.409 . S
C1299 C1298 1.362 . S
H1300 C1306 0.930 . S
H1301 C1309 0.930 . S
H1302 C1310 0.930 . S
H1303 C1311 0.930 . S
H1304 C1314 0.930 . S
H1305 C1315 0.930 . S
C1306 H1300 0.930 . S
C1306 C1307 1.355 . S
C1306 C1308 1.415 . S
C1307 C1306 1.355 . S
C1307 C1309 1.419 . S
C1308 C1306 1.415 . S
C1308 C1313 1.425 . S
C1308 C1315 1.409 . S
C1309 H1301 0.930 . S
C1309 C1307 1.419 . S
C1309 C1310 1.362 . S
C1310 H1302 0.930 . S
C1310 C1309 1.362 . S
C1310 C1313 1.409 . S
C1311 H1303 0.930 . S
C1311 C1312 1.355 . S
C1311 C1313 1.415 . S
C1312 C1311 1.355 . S
C1312 C1314 1.419 . S
C1313 C1308 1.425 . S
C1313 C1310 1.409 . S
C1313 C1311 1.415 . S
C1314 H1304 0.930 . S
C1314 C1312 1.419 . S
C1314 C1315 1.362 . S
C1315 H1305 0.930 . S
C1315 C1308 1.409 . S
C1315 C1314 1.362 . S
H1316 C1322 0.930 . S
H1317 C1325 0.930 . S
H1318 C1326 0.930 . S
H1319 C1327 0.930 . S
H1320 C1330 0.930 . S
H1321 C1331 0.930 . S
C1322 H1316 0.930 . S
C1322 C1323 1.355 . S
C1322 C1324 1.415 . S
C1323 C1322 1.355 . S
C1323 C1325 1.419 . S
C1324 C1322 1.415 . S
C1324 C1329 1.425 . S
C1324 C1331 1.409 . S
C1325 H1317 0.930 . S
C1325 C1323 1.419 . S
C1325 C1326 1.362 . S
C1326 H1318 0.930 . S
C1326 C1325 1.362 . S
C1326 C1329 1.409 . S
C1327 H1319 0.930 . S
C1327 C1328 1.355 . S
C1327 C1329 1.415 . S
C1328 C1327 1.355 . S
C1328 C1330 1.419 . S
C1329 C1324 1.425 . S
C1329 C1326 1.409 . S
C1329 C1327 1.415 . S
C1330 H1320 0.930 . S
C1330 C1328 1.419 . S
C1330 C1331 1.362 . S
C1331 H1321 0.930 . S
C1331 C1324 1.409 . S
C1331 C1330 1.362 . S
H1332 C1338 0.930 . S
H1333 C1341 0.930 . S
H1334 C1342 0.930 . S
H1335 C1343 0.930 . S
H1336 C1346 0.930 . S
H1337 C1347 0.930 . S
C1338 H1332 0.930 . S
C1338 C1339 1.355 . S
C1338 C1340 1.415 . S
C1339 C1338 1.355 . S
C1339 C1341 1.419 . S
C1340 C1338 1.415 . S
C1340 C1345 1.425 . S
C1340 C1347 1.409 . S
C1341 H1333 0.930 . S
C1341 C1339 1.419 . S
C1341 C1342 1.362 . S
C1342 H1334 0.930 . S
C1342 C1341 1.362 . S
C1342 C1345 1.409 . S
C1343 H1335 0.930 . S
C1343 C1344 1.355 . S
C1343 C1345 1.415 . S
C1344 C1343 1.355 . S
C1344 C1346 1.419 . S
C1345 C1340 1.425 . S
C1345 C1342 1.409 . S
C1345 C1343 1.415 . S
C1346 H1336 0.930 . S
C1346 C1344 1.419 . S
C1346 C1347 1.362 . S
C1347 H1337 0.930 . S
C1347 C1340 1.409 . S
C1347 C1346 1.362 . S
H1348 C1354 0.930 . S
H1349 C1357 0.930 . S
H1350 C1358 0.930 . S
H1351 C1359 0.930 . S
H1352 C1362 0.930 . S
H1353 C1363 0.930 . S
C1354 H1348 0.930 . S
C1354 C1355 1.355 . S
C1354 C1356 1.415 . S
C1355 C1354 1.355 . S
C1355 C1357 1.419 . S
C1356 C1354 1.415 . S
C1356 C1361 1.425 . S
C1356 C1363 1.409 . S
C1357 H1349 0.930 . S
C1357 C1355 1.419 . S
C1357 C1358 1.362 . S
C1358 H1350 0.930 . S
C1358 C1357 1.362 . S
C1358 C1361 1.409 . S
C1359 H1351 0.930 . S
C1359 C1360 1.355 . S
C1359 C1361 1.415 . S
C1360 C1359 1.355 . S
C1360 C1362 1.419 . S
C1361 C1356 1.425 . S
C1361 C1358 1.409 . S
C1361 C1359 1.415 . S
C1362 H1352 0.930 . S
C1362 C1360 1.419 . S
C1362 C1363 1.362 . S
C1363 H1353 0.930 . S
C1363 C1356 1.409 . S
C1363 C1362 1.362 . S
H1364 C1370 0.930 . S
H1365 C1373 0.930 . S
H1366 C1374 0.930 . S
H1367 C1375 0.930 . S
H1368 C1378 0.930 . S
H1369 C1379 0.930 . S
C1370 H1364 0.930 . S
C1370 C1371 1.355 . S
C1370 C1372 1.415 . S
C1371 C1370 1.355 . S
C1371 C1373 1.419 . S
C1372 C1370 1.415 . S
C1372 C1377 1.425 . S
C1372 C1379 1.409 . S
C1373 H1365 0.930 . S
C1373 C1371 1.419 . S
C1373 C1374 1.362 . S
C1374 H1366 0.930 . S
C1374 C1373 1.362 . S
C1374 C1377 1.409 . S
C1375 H1367 0.930 . S
C1375 C1376 1.355 . S
C1375 C1377 1.415 . S
C1376 C1375 1.355 . S
C1376 C1378 1.419 . S
C1377 C1372 1.425 . S
C1377 C1374 1.409 . S
C1377 C1375 1.415 . S
C1378 H1368 0.930 . S
C1378 C1376 1.419 . S
C1378 C1379 1.362 . S
C1379 H1369 0.930 . S
C1379 C1372 1.409 . S
C1379 C1378 1.362 . S
H1380 C1386 0.930 . S
H1381 C1389 0.930 . S
H1382 C1390 0.930 . S
H1383 C1391 0.930 . S
H1384 C1394 0.930 . S
H1385 C1395 0.930 . S
C1386 H1380 0.930 . S
C1386 C1387 1.355 . S
C1386 C1388 1.415 . S
C1387 C1386 1.355 . S
C1387 C1389 1.419 . S
C1388 C1386 1.415 . S
C1388 C1393 1.425 . S
C1388 C1395 1.409 . S
C1389 H1381 0.930 . S
C1389 C1387 1.419 . S
C1389 C1390 1.362 . S
C1390 H1382 0.930 . S
C1390 C1389 1.362 . S
C1390 C1393 1.409 . S
C1391 H1383 0.930 . S
C1391 C1392 1.355 . S
C1391 C1393 1.415 . S
C1392 C1391 1.355 . S
C1392 C1394 1.419 . S
C1393 C1388 1.425 . S
C1393 C1390 1.409 . S
C1393 C1391 1.415 . S
C1394 H1384 0.930 . S
C1394 C1392 1.419 . S
C1394 C1395 1.362 . S
C1395 H1385 0.930 . S
C1395 C1388 1.409 . S
C1395 C1394 1.362 . S
H1396 C1402 0.930 . S
H1397 C1405 0.930 . S
H1398 C1406 0.930 . S
H1399 C1407 0.930 . S
H1400 C1410 0.930 . S
H1401 C1411 0.930 . S
C1402 H1396 0.930 . S
C1402 C1403 1.355 . S
C1402 C1404 1.415 . S
C1403 C1402 1.355 . S
C1403 C1405 1.419 . S
C1404 C1402 1.415 . S
C1404 C1409 1.425 . S
C1404 C1411 1.409 . S
C1405 H1397 0.930 . S
C1405 C1403 1.419 . S
C1405 C1406 1.362 . S
C1406 H1398 0.930 . S
C1406 C1405 1.362 . S
C1406 C1409 1.409 . S
C1407 H1399 0.930 . S
C1407 C1408 1.355 . S
C1407 C1409 1.415 . S
C1408 C1407 1.355 . S
C1408 C1410 1.419 . S
C1409 C1404 1.425 . S
C1409 C1406 1.409 . S
C1409 C1407 1.415 . S
C1410 H1400 0.930 . S
C1410 C1408 1.419 . S
C1410 C1411 1.362 . S
C1411 H1401 0.930 . S
C1411 C1404 1.409 . S
C1411 C1410 1.362 . S
H1412 C1418 0.930 . S
H1413 C1421 0.930 . S
H1414 C1422 0.930 . S
H1415 C1423 0.930 . S
H1416 C1426 0.930 . S
H1417 C1427 0.930 . S
C1418 H1412 0.930 . S
C1418 C1419 1.355 . S
C1418 C1420 1.415 . S
C1419 C1418 1.355 . S
C1419 C1421 1.419 . S
C1420 C1418 1.415 . S
C1420 C1425 1.425 . S
C1420 C1427 1.409 . S
C1421 H1413 0.930 . S
C1421 C1419 1.419 . S
C1421 C1422 1.362 . S
C1422 H1414 0.930 . S
C1422 C1421 1.362 . S
C1422 C1425 1.409 . S
C1423 H1415 0.930 . S
C1423 C1424 1.355 . S
C1423 C1425 1.415 . S
C1424 C1423 1.355 . S
C1424 C1426 1.419 . S
C1425 C1420 1.425 . S
C1425 C1422 1.409 . S
C1425 C1423 1.415 . S
C1426 H1416 0.930 . S
C1426 C1424 1.419 . S
C1426 C1427 1.362 . S
C1427 H1417 0.930 . S
C1427 C1420 1.409 . S
C1427 C1426 1.362 . S
H1428 C1434 0.930 . S
H1429 C1437 0.930 . S
H1430 C1438 0.930 . S
H1431 C1439 0.930 . S
H1432 C1442 0.930 . S
H1433 C1443 0.930 . S
C1434 H1428 0.930 . S
C1434 C1435 1.355 . S
C1434 C1436 1.415 . S
C1435 C1434 1.355 . S
C1435 C1437 1.419 . S
C1436 C1434 1.415 . S
C1436 C1441 1.425 . S
C1436 C1443 1.409 . S
C1437 H1429 0.930 . S
C1437 C1435 1.419 . S
C1437 C1438 1.362 . S
C1438 H1430 0.930 . S
C1438 C1437 1.362 . S
C1438 C1441 1.409 . S
C1439 H1431 0.930 . S
C1439 C1440 1.355 . S
C1439 C1441 1.415 . S
C1440 C1439 1.355 . S
C1440 C1442 1.419 . S
C1441 C1436 1.425 . S
C1441 C1438 1.409 . S
C1441 C1439 1.415 . S
C1442 H1432 0.930 . S
C1442 C1440 1.419 . S
C1442 C1443 1.362 . S
C1443 H1433 0.930 . S
C1443 C1436 1.409 . S
C1443 C1442 1.362 . S
H1444 C1450 0.930 . S
H1445 C1453 0.930 . S
H1446 C1454 0.930 . S
H1447 C1455 0.930 . S
H1448 C1458 0.930 . S
H1449 C1459 0.930 . S
C1450 H1444 0.930 . S
C1450 C1451 1.355 . S
C1450 C1452 1.415 . S
C1451 C1450 1.355 . S
C1451 C1453 1.419 . S
C1452 C1450 1.415 . S
C1452 C1457 1.425 . S
C1452 C1459 1.409 . S
C1453 H1445 0.930 . S
C1453 C1451 1.419 . S
C1453 C1454 1.362 . S
C1454 H1446 0.930 . S
C1454 C1453 1.362 . S
C1454 C1457 1.409 . S
C1455 H1447 0.930 . S
C1455 C1456 1.355 . S
C1455 C1457 1.415 . S
C1456 C1455 1.355 . S
C1456 C1458 1.419 . S
C1457 C1452 1.425 . S
C1457 C1454 1.409 . S
C1457 C1455 1.415 . S
C1458 H1448 0.930 . S
C1458 C1456 1.419 . S
C1458 C1459 1.362 . S
C1459 H1449 0.930 . S
C1459 C1452 1.409 . S
C1459 C1458 1.362 . S
H1460 C1466 0.930 . S
H1461 C1469 0.930 . S
H1462 C1470 0.930 . S
H1463 C1471 0.930 . S
H1464 C1474 0.930 . S
H1465 C1475 0.930 . S
C1466 H1460 0.930 . S
C1466 C1467 1.355 . S
C1466 C1468 1.415 . S
C1467 C1466 1.355 . S
C1467 C1469 1.419 . S
C1468 C1466 1.415 . S
C1468 C1473 1.425 . S
C1468 C1475 1.409 . S
C1469 H1461 0.930 . S
C1469 C1467 1.419 . S
C1469 C1470 1.362 . S
C1470 H1462 0.930 . S
C1470 C1469 1.362 . S
C1470 C1473 1.409 . S
C1471 H1463 0.930 . S
C1471 C1472 1.355 . S
C1471 C1473 1.415 . S
C1472 C1471 1.355 . S
C1472 C1474 1.419 . S
C1473 C1468 1.425 . S
C1473 C1470 1.409 . S
C1473 C1471 1.415 . S
C1474 H1464 0.930 . S
C1474 C1472 1.419 . S
C1474 C1475 1.362 . S
C1475 H1465 0.930 . S
C1475 C1468 1.409 . S
C1475 C1474 1.362 . S
H1476 C1482 0.930 . S
H1477 C1485 0.930 . S
H1478 C1486 0.930 . S
H1479 C1487 0.930 . S
H1480 C1490 0.930 . S
H1481 C1491 0.930 . S
C1482 H1476 0.930 . S
C1482 C1483 1.355 . S
C1482 C1484 1.415 . S
C1483 C1482 1.355 . S
C1483 C1485 1.419 . S
C1484 C1482 1.415 . S
C1484 C1489 1.425 . S
C1484 C1491 1.409 . S
C1485 H1477 0.930 . S
C1485 C1483 1.419 . S
C1485 C1486 1.362 . S
C1486 H1478 0.930 . S
C1486 C1485 1.362 . S
C1486 C1489 1.409 . S
C1487 H1479 0.930 . S
C1487 C1488 1.355 . S
C1487 C1489 1.415 . S
C1488 C1487 1.355 . S
C1488 C1490 1.419 . S
C1489 C1484 1.425 . S
C1489 C1486 1.409 . S
C1489 C1487 1.415 . S
C1490 H1480 0.930 . S
C1490 C1488 1.419 . S
C1490 C1491 1.362 . S
C1491 H1481 0.930 . S
C1491 C1484 1.409 . S
C1491 C1490 1.362 . S
H1492 C1498 0.930 . S
H1493 C1501 0.930 . S
H1494 C1502 0.930 . S
H1495 C1503 0.930 . S
H1496 C1506 0.930 . S
H1497 C1507 0.930 . S
C1498 H1492 0.930 . S
C1498 C1499 1.355 . S
C1498 C1500 1.415 . S
C1499 C1498 1.355 . S
C1499 C1501 1.419 . S
C1500 C1498 1.415 . S
C1500 C1505 1.425 . S
C1500 C1507 1.409 . S
C1501 H1493 0.930 . S
C1501 C1499 1.419 . S
C1501 C1502 1.362 . S
C1502 H1494 0.930 . S
C1502 C1501 1.362 . S
C1502 C1505 1.409 . S
C1503 H1495 0.930 . S
C1503 C1504 1.355 . S
C1503 C1505 1.415 . S
C1504 C1503 1.355 . S
C1504 C1506 1.419 . S
C1505 C1500 1.425 . S
C1505 C1502 1.409 . S
C1505 C1503 1.415 . S
C1506 H1496 0.930 . S
C1506 C1504 1.419 . S
C1506 C1507 1.362 . S
C1507 H1497 0.930 . S
C1507 C1500 1.409 . S
C1507 C1506 1.362 . S
H1508 C1514 0.930 . S
H1509 C1517 0.930 . S
H1510 C1518 0.930 . S
H1511 C1519 0.930 . S
H1512 C1522 0.930 . S
H1513 C1523 0.930 . S
C1514 H1508 0.930 . S
C1514 C1515 1.355 . S
C1514 C1516 1.415 . S
C1515 C1514 1.355 . S
C1515 C1517 1.419 . S
C1516 C1514 1.415 . S
C1516 C1521 1.425 . S
C1516 C1523 1.409 . S
C1517 H1509 0.930 . S
C1517 C1515 1.419 . S
C1517 C1518 1.362 . S
C1518 H1510 0.930 . S
C1518 C1517 1.362 . S
C1518 C1521 1.409 . S
C1519 H1511 0.930 . S
C1519 C1520 1.355 . S
C1519 C1521 1.415 . S
C1520 C1519 1.355 . S
C1520 C1522 1.419 . S
C1521 C1516 1.425 . S
C1521 C1518 1.409 . S
C1521 C1519 1.415 . S
C1522 H1512 0.930 . S
C1522 C1520 1.419 . S
C1522 C1523 1.362 . S
C1523 H1513 0.930 . S
C1523 C1516 1.409 . S
C1523 C1522 1.362 . S
H1524 C1530 0.930 . S
H1525 C1533 0.930 . S
H1526 C1534 0.930 . S
H1527 C1535 0.930 . S
H1528 C1538 0.930 . S
H1529 C1539 0.930 . S
C1530 H1524 0.930 . S
C1530 C1531 1.355 . S
C1530 C1532 1.415 . S
C1531 C1530 1.355 . S
C1531 C1533 1.419 . S
C1532 C1530 1.415 . S
C1532 C1537 1.425 . S
C1532 C1539 1.409 . S
C1533 H1525 0.930 . S
C1533 C1531 1.419 . S
C1533 C1534 1.362 . S
C1534 H1526 0.930 . S
C1534 C1533 1.362 . S
C1534 C1537 1.409 . S
C1535 H1527 0.930 . S
C1535 C1536 1.355 . S
C1535 C1537 1.415 . S
C1536 C1535 1.355 . S
C1536 C1538 1.419 . S
C1537 C1532 1.425 . S
C1537 C1534 1.409 . S
C1537 C1535 1.415 . S
C1538 H1528 0.930 . S
C1538 C1536 1.419 . S
C1538 C1539 1.362 . S
C1539 H1529 0.930 . S
C1539 C1532 1.409 . S
C1539 C1538 1.362 . S
H1540 C1546 0.930 . S
H1541 C1549 0.930 . S
H1542 C1550 0.930 . S
H1543 C1551 0.930 . S
H1544 C1554 0.930 . S
H1545 C1555 0.930 . S
C1546 H1540 0.930 . S
C1546 C1547 1.355 . S
C1546 C1548 1.415 . S
C1547 C1546 1.355 . S
C1547 C1549 1.419 . S
C1548 C1546 1.415 . S
C1548 C1553 1.425 . S
C1548 C1555 1.409 . S
C1549 H1541 0.930 . S
C1549 C1547 1.419 . S
C1549 C1550 1.362 . S
C1550 H1542 0.930 . S
C1550 C1549 1.362 . S
C1550 C1553 1.409 . S
C1551 H1543 0.930 . S
C1551 C1552 1.355 . S
C1551 C1553 1.415 . S
C1552 C1551 1.355 . S
C1552 C1554 1.419 . S
C1553 C1548 1.425 . S
C1553 C1550 1.409 . S
C1553 C1551 1.415 . S
C1554 H1544 0.930 . S
C1554 C1552 1.419 . S
C1554 C1555 1.362 . S
C1555 H1545 0.930 . S
C1555 C1548 1.409 . S
C1555 C1554 1.362 . S
H1556 C1562 0.930 . S
H1557 C1565 0.930 . S
H1558 C1566 0.930 . S
H1559 C1567 0.930 . S
H1560 C1570 0.930 . S
H1561 C1571 0.930 . S
C1562 H1556 0.930 . S
C1562 C1563 1.355 . S
C1562 C1564 1.415 . S
C1563 C1562 1.355 . S
C1563 C1565 1.419 . S
C1564 C1562 1.415 . S
C1564 C1569 1.425 . S
C1564 C1571 1.409 . S
C1565 H1557 0.930 . S
C1565 C1563 1.419 . S
C1565 C1566 1.362 . S
C1566 H1558 0.930 . S
C1566 C1565 1.362 . S
C1566 C1569 1.409 . S
C1567 H1559 0.930 . S
C1567 C1568 1.355 . S
C1567 C1569 1.415 . S
C1568 C1567 1.355 . S
C1568 C1570 1.419 . S
C1569 C1564 1.425 . S
C1569 C1566 1.409 . S
C1569 C1567 1.415 . S
C1570 H1560 0.930 . S
C1570 C1568 1.419 . S
C1570 C1571 1.362 . S
C1571 H1561 0.930 . S
C1571 C1564 1.409 . S
C1571 C1570 1.362 . S
H1572 C1578 0.930 . S
H1573 C1581 0.930 . S
H1574 C1582 0.930 . S
H1575 C1583 0.930 . S
H1576 C1586 0.930 . S
H1577 C1587 0.930 . S
C1578 H1572 0.930 . S
C1578 C1579 1.355 . S
C1578 C1580 1.415 . S
C1579 C1578 1.355 . S
C1579 C1581 1.419 . S
C1580 C1578 1.415 . S
C1580 C1585 1.425 . S
C1580 C1587 1.409 . S
C1581 H1573 0.930 . S
C1581 C1579 1.419 . S
C1581 C1582 1.362 . S
C1582 H1574 0.930 . S
C1582 C1581 1.362 . S
C1582 C1585 1.409 . S
C1583 H1575 0.930 . S
C1583 C1584 1.355 . S
C1583 C1585 1.415 . S
C1584 C1583 1.355 . S
C1584 C1586 1.419 . S
C1585 C1580 1.425 . S
C1585 C1582 1.409 . S
C1585 C1583 1.415 . S
C1586 H1576 0.930 . S
C1586 C1584 1.419 . S
C1586 C1587 1.362 . S
C1587 H1577 0.930 . S
C1587 C1580 1.409 . S
C1587 C1586 1.362 . S
H1588 C1594 0.930 . S
H1589 C1597 0.930 . S
H1590 C1598 0.930 . S
H1591 C1599 0.930 . S
H1592 C1602 0.930 . S
H1593 C1603 0.930 . S
C1594 H1588 0.930 . S
C1594 C1595 1.355 . S
C1594 C1596 1.415 . S
C1595 C1594 1.355 . S
C1595 C1597 1.419 . S
C1596 C1594 1.415 . S
C1596 C1601 1.425 . S
C1596 C1603 1.409 . S
C1597 H1589 0.930 . S
C1597 C1595 1.419 . S
C1597 C1598 1.362 . S
C1598 H1590 0.930 . S
C1598 C1597 1.362 . S
C1598 C1601 1.409 . S
C1599 H1591 0.930 . S
C1599 C1600 1.355 . S
C1599 C1601 1.415 . S
C1600 C1599 1.355 . S
C1600 C1602 1.419 . S
C1601 C1596 1.425 . S
C1601 C1598 1.409 . S
C1601 C1599 1.415 . S
C1602 H1592 0.930 . S
C1602 C1600 1.419 . S
C1602 C1603 1.362 . S
C1603 H1593 0.930 . S
C1603 C1596 1.409 . S
C1603 C1602 1.362 . S
H1604 C1610 0.930 . S
H1605 C1613 0.930 . S
H1606 C1614 0.930 . S
H1607 C1615 0.930 . S
H1608 C1618 0.930 . S
H1609 C1619 0.930 . S
C1610 H1604 0.930 . S
C1610 C1611 1.355 . S
C1610 C1612 1.415 . S
C1611 C1610 1.355 . S
C1611 C1613 1.419 . S
C1612 C1610 1.415 . S
C1612 C1617 1.425 . S
C1612 C1619 1.409 . S
C1613 H1605 0.930 . S
C1613 C1611 1.419 . S
C1613 C1614 1.362 . S
C1614 H1606 0.930 . S
C1614 C1613 1.362 . S
C1614 C1617 1.409 . S
C1615 H1607 0.930 . S
C1615 C1616 1.355 . S
C1615 C1617 1.415 . S
C1616 C1615 1.355 . S
C1616 C1618 1.419 . S
C1617 C1612 1.425 . S
C1617 C1614 1.409 . S
C1617 C1615 1.415 . S
C1618 H1608 0.930 . S
C1618 C1616 1.419 . S
C1618 C1619 1.362 . S
C1619 H1609 0.930 . S
C1619 C1612 1.409 . S
C1619 C1618 1.362 . S
H1620 C1626 0.930 . S
H1621 C1629 0.930 . S
H1622 C1630 0.930 . S
H1623 C1631 0.930 . S
H1624 C1634 0.930 . S
H1625 C1635 0.930 . S
C1626 H1620 0.930 . S
C1626 C1627 1.355 . S
C1626 C1628 1.415 . S
C1627 C1626 1.355 . S
C1627 C1629 1.419 . S
C1628 C1626 1.415 . S
C1628 C1633 1.425 . S
C1628 C1635 1.409 . S
C1629 H1621 0.930 . S
C1629 C1627 1.419 . S
C1629 C1630 1.362 . S
C1630 H1622 0.930 . S
C1630 C1629 1.362 . S
C1630 C1633 1.409 . S
C1631 H1623 0.930 . S
C1631 C1632 1.355 . S
C1631 C1633 1.415 . S
C1632 C1631 1.355 . S
C1632 C1634 1.419 . S
C1633 C1628 1.425 . S
C1633 C1630 1.409 . S
C1633 C1631 1.415 . S
C1634 H1624 0.930 . S
C1634 C1632 1.419 . S
C1634 C1635 1.362 . S
C1635 H1625 0.930 . S
C1635 C1628 1.409 . S
C1635 C1634 1.362 . S
H1636 C1642 0.930 . S
H1637 C1645 0.930 . S
H1638 C1646 0.930 . S
H1639 C1647 0.930 . S
H1640 C1650 0.930 . S
H1641 C1651 0.930 . S
C1642 H1636 0.930 . S
C1642 C1643 1.355 . S
C1642 C1644 1.415 . S
C1643 C1642 1.355 . S
C1643 C1645 1.419 . S
C1644 C1642 1.415 . S
C1644 C1649 1.425 . S
C1644 C1651 1.409 . S
C1645 H1637 0.930 . S
C1645 C1643 1.419 . S
C1645 C1646 1.362 . S
C1646 H1638 0.930 . S
C1646 C1645 1.362 . S
C1646 C1649 1.409 . S
C1647 H1639 0.930 . S
C1647 C1648 1.355 . S
C1647 C1649 1.415 . S
C1648 C1647 1.355 . S
C1648 C1650 1.419 . S
C1649 C1644 1.425 . S
C1649 C1646 1.409 . S
C1649 C1647 1.415 . S
C1650 H1640 0.930 . S
C1650 C1648 1.419 . S
C1650 C1651 1.362 . S
C1651 H1641 0.930 . S
C1651 C1644 1.409 . S
C1651 C1650 1.362 . S
H1652 C1658 0.930 . S
H1653 C1661 0.930 . S
H1654 C1662 0.930 . S
H1655 C1663 0.930 . S
H1656 C1666 0.930 . S
H1657 C1667 0.930 . S
C1658 H1652 0.930 . S
C1658 C1659 1.355 . S
C1658 C1660 1.415 . S
C1659 C1658 1.355 . S
C1659 C1661 1.419 . S
C1660 C1658 1.415 . S
C1660 C1665 1.425 . S
C1660 C1667 1.409 . S
C1661 H1653 0.930 . S
C1661 C1659 1.419 . S
C1661 C1662 1.362 . S
C1662 H1654 0.930 . S
C1662 C1661 1.362 . S
C1662 C1665 1.409 . S
C1663 H1655 0.930 . S
C1663 C1664 1.355 . S
C1663 C1665 1.415 . S
C1664 C1663 1.355 . S
C1664 C1666 1.419 . S
C1665 C1660 1.425 . S
C1665 C1662 1.409 . S
C1665 C1663 1.415 . S
C1666 H1656 0.930 . S
C1666 C1664 1.419 . S
C1666 C1667 1.362 . S
C1667 H1657 0.930 . S
C1667 C1660 1.409 . S
C1667 C1666 1.362 . S
C528 C222 1.169 . S
C523 C212 1.168 . S
C539 C194 1.172 . S
C544 C220 1.172 . S
C560 C221 1.172 . S
C555 C185 1.174 . S
C571 C203 1.166 . S
C576 C223 1.169 . S
C592 C267 1.172 . S
C587 C149 1.171 . S
C608 C327 1.172 . S
C603 C158 1.169 . S
C619 C167 1.172 . S
C624 C266 1.169 . S
C640 C326 1.175 . S
C635 C176 1.172 . S
C651 C113 1.167 . S
C656 C268 1.169 . S
C672 C324 1.172 . S
C667 C122 1.175 . S
C683 C131 1.171 . S
C688 C269 1.172 . S
C699 C140 1.166 . S
C704 C325 1.170 . S
C720 C375 1.168 1_556 S
C715 C104 1.166 . S
C731 C86 1.172 1_554 S
C736 C374 1.170 1_556 S
C747 C77 1.176 1_554 S
C752 C376 1.174 1_556 S
C768 C377 1.171 1_556 S
C763 C95 1.172 1_554 S
C779 C41 1.171 1_455 S
C784 C418 1.168 1_655 S
C795 C50 1.168 . S
C800 C477 1.170 . S
C811 C59 1.166 . S
C816 C416 1.170 . S
C827 C68 1.174 . S
C832 C476 1.173 . S
C848 C417 1.171 1_655 S
C843 C5 1.175 1_455 S
C864 C474 1.174 . S
C859 C14 1.172 1_565 S
C875 C23 1.171 . S
C880 C419 1.171 1_655 S
C896 C475 1.172 . S
C891 C32 1.171 1_565 S
C912 C219 1.560 . S
C907 C4 1.463 . S
C923 C16 1.457 1_565 S
C928 C225 1.560 . S
C939 C22 1.530 1_655 S
C944 C217 1.571 . S
C955 C31 1.514 . S
C960 C224 1.569 1_565 S
C971 C40 1.525 . S
C976 C216 1.567 1_655 S
C992 C226 1.563 1_565 S
C987 C49 1.466 1_545 S
C1003 C61 1.515 . S
C1008 C218 1.562 1_655 S
C1024 C227 1.558 1_565 S
C1019 C70 1.450 1_545 S
C1040 C273 1.567 . S
C1035 C34 1.527 1_565 S
C1051 C7 1.449 . S
C1056 C316 1.556 . S
C1072 C271 1.564 . S
C1067 C13 1.468 1_565 S
C1088 C318 1.564 1_655 S
C1083 C25 1.510 . S
C1099 C52 1.452 1_545 S
C1104 C272 1.557 1_565 S
C1120 C317 1.570 . S
C1115 C58 1.533 1_655 S
C1136 C270 1.575 1_565 S
C1131 C67 1.541 1_545 S
C1152 C319 1.554 . S
C1147 C43 1.446 . S
C1168 C323 1.568 . S
C1163 C76 1.493 . S
C1179 C88 1.465 1_554 S
C1184 C322 1.560 1_556 S
C1200 C274 1.555 1_556 S
C1195 C79 1.451 1_554 S
C1216 C321 1.560 1_556 S
C1211 C97 1.484 1_554 S
C1227 C103 1.507 . S
C1232 C277 1.565 1_556 S
C1243 C106 1.449 1_556 S
C1248 C320 1.554 . S
C1264 C276 1.567 1_556 S
C1259 C85 1.526 1_554 S
C1280 C275 1.571 1_556 S
C1275 C94 1.535 1_554 S
C1296 C369 1.569 . S
C1291 C112 1.534 . S
C1312 C372 1.568 . S
C1307 C124 1.522 . S
C1323 C133 1.450 . S
C1328 C368 1.556 . S
C1344 C370 1.574 . S
C1339 C139 1.541 . S
C1360 C366 1.561 . S
C1355 C148 1.465 . S
C1371 C157 1.474 . S
C1376 C371 1.564 . S
C1387 C169 1.500 . S
C1392 C367 1.560 . S
C1408 C373 1.570 . S
C1403 C178 1.530 . S
C1424 C427 1.562 . S
C1419 C142 1.495 . S
C1435 C115 1.470 . S
C1440 C466 1.558 . S
C1456 C426 1.564 . S
C1451 C121 1.472 . S
C1472 C468 1.564 . S
C1467 C130 1.487 . S
C1488 C425 1.558 . S
C1483 C160 1.450 . S
C1499 C166 1.506 . S
C1504 C467 1.567 . S
C1520 C424 1.567 . S
C1515 C175 1.476 . S
C1536 C469 1.561 . S
C1531 C151 1.486 . S
C1552 C473 1.565 . S
C1547 C184 1.470 . S
C1563 C196 1.449 . S
C1568 C472 1.557 . S
C1584 C420 1.565 . S
C1579 C187 1.525 . S
C1595 C205 1.525 . S
C1600 C471 1.566 . S
C1616 C423 1.570 . S
C1611 C211 1.530 . S
C1632 C470 1.563 . S
C1627 C214 1.513 . S
C1648 C421 1.561 . S
C1643 C193 1.470 . S
C1659 C202 1.521 . S
C1664 C422 1.568 . S
