# Generated by pormake.
# Topology anh, (6,3)-cn, num edge types: 1
# Building blocks:
#     Node 0, Type 0, BuildingBlock: GEDQOX_clean_sbu_0, # of connection points: 6
#     Node 1, Type 0, BuildingBlock: GEDQOX_clean_sbu_0, # of connection points: 6
#     Node 2, Type 0, BuildingBlock: GEDQOX_clean_sbu_0, # of connection points: 6
#     Node 3, Type 1, BuildingBlock: PAMTOO_clean_linker_0, # of connection points: 3
#     Node 4, Type 1, BuildingBlock: PAMTOO_clean_linker_0, # of connection points: 3
#     Node 5, Type 1, BuildingBlock: PAMTOO_clean_linker_0, # of connection points: 3
#     Node 6, Type 1, BuildingBlock: PAMTOO_clean_linker_0, # of connection points: 3
#     Node 7, Type 1, BuildingBlock: PAMTOO_clean_linker_0, # of connection points: 3
#     Node 8, Type 1, BuildingBlock: PAMTOO_clean_linker_0, # of connection points: 3
#     Edge 9, Type (0, 1), BuildingBlock: CIFDUS_clean_linker_0, # of connection points: 2
#     Edge 10, Type (0, 1), BuildingBlock: CIFDUS_clean_linker_0, # of connection points: 2
#     Edge 11, Type (0, 1), BuildingBlock: CIFDUS_clean_linker_0, # of connection points: 2
#     Edge 12, Type (0, 1), BuildingBlock: CIFDUS_clean_linker_0, # of connection points: 2
#     Edge 13, Type (0, 1), BuildingBlock: CIFDUS_clean_linker_0, # of connection points: 2
#     Edge 14, Type (0, 1), BuildingBlock: CIFDUS_clean_linker_0, # of connection points: 2
#     Edge 15, Type (0, 1), BuildingBlock: CIFDUS_clean_linker_0, # of connection points: 2
#     Edge 16, Type (0, 1), BuildingBlock: CIFDUS_clean_linker_0, # of connection points: 2
#     Edge 17, Type (0, 1), BuildingBlock: CIFDUS_clean_linker_0, # of connection points: 2
#     Edge 18, Type (0, 1), BuildingBlock: CIFDUS_clean_linker_0, # of connection points: 2
#     Edge 19, Type (0, 1), BuildingBlock: CIFDUS_clean_linker_0, # of connection points: 2
#     Edge 20, Type (0, 1), BuildingBlock: CIFDUS_clean_linker_0, # of connection points: 2
#     Edge 21, Type (0, 1), BuildingBlock: CIFDUS_clean_linker_0, # of connection points: 2
#     Edge 22, Type (0, 1), BuildingBlock: CIFDUS_clean_linker_0, # of connection points: 2
#     Edge 23, Type (0, 1), BuildingBlock: CIFDUS_clean_linker_0, # of connection points: 2
#     Edge 24, Type (0, 1), BuildingBlock: CIFDUS_clean_linker_0, # of connection points: 2
#     Edge 25, Type (0, 1), BuildingBlock: CIFDUS_clean_linker_0, # of connection points: 2
#     Edge 26, Type (0, 1), BuildingBlock: CIFDUS_clean_linker_0, # of connection points: 2
# Relax obj value: 0.186
# Max RMSD: 0.200
# Mean RMSD: 0.131
data_MOF--net-anh--node1-GEDQOX_clean_sbu_0--node2-PAMTOO_clean_linker_0--edge1-CIFDUS_clean_linker_0
_symmetry_space_group_name_H-M    P1
_symmetry_Int_Tables_number       1
_symmetry_cell_setting            triclinic
loop_
_symmetry_equiv_pos_as_xyz
'x, y, z'
_cell_length_a     26.10553
_cell_length_b     25.529967
_cell_length_c     43.945727
_cell_angle_alpha  90.122891
_cell_angle_beta   91.804016
_cell_angle_gamma 98.436314
loop_
_atom_site_label
_atom_site_type_symbol
_atom_site_fract_x
_atom_site_fract_y
_atom_site_fract_z
_atom_type_partial_charge
Nd0 Nd 0.13358 0.58013 0.13391 0.0
Nd1 Nd 0.12377 0.45978 0.14215 0.0
C2 C 0.16253 0.67914 0.11694 0.0
C3 C 0.20837 0.72018 0.12225 0.0
C4 C 0.23998 0.73759 0.09792 0.0
C5 C 0.28352 0.77617 0.10253 0.0
C6 C 0.29635 0.79848 0.13159 0.0
C7 C 0.2646 0.78094 0.15593 0.0
C8 C 0.22121 0.74223 0.15135 0.0
C9 C 0.13065 0.5479 0.19343 0.0
C10 C 0.24058 0.52022 0.13686 0.0
C11 C 1.09684 0.36162 0.16107 0.0
C12 C 1.04835 0.32454 0.1654 0.0
C13 C 1.0333 0.31035 0.19503 0.0
C14 C 0.98733 0.27621 0.19981 0.0
C15 C 0.9555 0.25499 0.17504 0.0
C16 C 0.97086 0.26853 0.14535 0.0
C17 C 1.01672 0.3031 0.14056 0.0
C18 C 0.1342 0.49547 0.08379 0.0
C19 C 1.0161 0.51656 0.13233 0.0
O20 O 0.16937 0.63822 0.10039 0.0
O21 O 0.13289 0.66616 0.14002 0.0
O22 O 1.10998 0.58798 0.18342 0.0
O23 O 0.15455 0.52851 0.17273 0.0
O24 O 0.21825 0.5617 0.12837 0.0
O25 O 0.21279 0.47688 0.14745 0.0
O26 O 1.1053 0.40262 0.17948 0.0
O27 O 1.11024 0.37326 0.13312 0.0
O28 O 0.1562 0.45629 0.0942 0.0
O29 O 1.10606 0.51151 0.10346 0.0
O30 O 1.03793 0.47585 0.14254 0.0
O31 O 1.04496 0.5611 0.1241 0.0
H32 H 0.23107 0.72121 0.07527 0.0
H33 H 0.30739 0.78817 0.08332 0.0
H34 H 0.27275 0.79775 0.17852 0.0
H35 H 0.19769 0.7298 0.17064 0.0
H36 H 1.0571 0.32585 0.21458 0.0
H37 H 0.97696 0.26594 0.22294 0.0
H38 H 0.94698 0.25307 0.12583 0.0
H39 H 1.02714 0.31317 0.11741 0.0
Nd40 Nd 0.61397 1.00522 0.51359 0.0
Nd41 Nd 0.72586 0.02554 0.49663 0.0
C42 C 0.52176 0.96988 0.53472 0.0
C43 C 0.47917 0.92906 0.52385 0.0
C44 C 0.45441 0.89232 0.54428 0.0
C45 C 0.41596 0.85165 0.53379 0.0
C46 C 0.40152 0.84714 0.50264 0.0
C47 C 0.426 0.88463 0.48236 0.0
C48 C 0.46461 0.92487 0.4928 0.0
C49 C 0.6288 1.01258 0.45184 0.0
C50 C 0.67761 0.9039 0.50307 0.0
C51 C 0.81559 0.05953 0.47188 0.0
C52 C 0.85087 0.10975 0.4694 0.0
C53 C 0.8729 0.12366 0.44138 0.0
C54 C 0.90599 0.17139 0.43828 0.0
C55 C 0.91805 0.20607 0.46328 0.0
C56 C 0.8957 0.19199 0.49138 0.0
C57 C 0.86222 0.14438 0.49439 0.0
C58 C 0.71222 1.01025 0.55759 0.0
C59 C 0.66422 0.12649 0.5102 0.0
O60 O 0.56408 0.95267 0.54447 0.0
O61 O 0.53109 1.01225 0.51794 0.0
O62 O 0.59121 0.03041 0.46506 0.0
O63 O 0.65458 0.98925 0.47062 0.0
O64 O 0.63921 0.92209 0.51666 0.0
O65 O 0.7134 0.93601 0.48899 0.0
O66 O 0.77111 0.05668 0.45698 0.0
O67 O 0.81156 0.03803 0.49884 0.0
O68 O 0.74839 0.99312 0.54254 0.0
O69 O 0.68597 0.03764 0.541 0.0
O70 O 0.70055 0.10846 0.49468 0.0
O71 O 0.63001 0.09375 0.52501 0.0
H72 H 0.46542 0.89456 0.56828 0.0
H73 H 0.39843 0.8231 0.54999 0.0
H74 H 0.41534 0.88297 0.45832 0.0
H75 H 0.48335 0.95243 0.47645 0.0
H76 H 0.86419 0.09769 0.42177 0.0
H77 H 0.92151 0.18141 0.41613 0.0
H78 H 0.90443 0.21749 0.51116 0.0
H79 H 0.84529 0.13469 0.51623 0.0
Nd80 Nd 0.62337 0.49085 0.80526 0.0
Nd81 Nd 0.73623 0.51408 0.82619 0.0
C82 C 0.53427 0.48988 0.7749 0.0
C83 C 0.50319 0.53194 0.76702 0.0
C84 C 0.4515 0.52681 0.77569 0.0
C85 C 0.42532 0.57076 0.77529 0.0
C86 C 0.45058 0.6205 0.76623 0.0
C87 C 0.50026 0.6241 0.75438 0.0
C88 C 0.52652 0.58025 0.75489 0.0
C89 C 0.63998 0.49485 0.86757 0.0
C90 C 0.67766 0.61479 0.81512 0.0
C91 C 0.82919 0.52185 0.85286 0.0
C92 C 0.88159 0.51072 0.8466 0.0
C93 C 0.91045 0.49028 0.8699 0.0
C94 C 0.96284 0.48719 0.86632 0.0
C95 C 0.98742 0.50483 0.83938 0.0
C96 C 0.95757 0.52217 0.81529 0.0
C97 C 0.90496 0.5249 0.81882 0.0
C98 C 0.72095 0.50833 0.7641 0.0
C99 C 0.67795 0.38962 0.82047 0.0
O100 O 0.57871 0.49198 0.76166 0.0
O101 O 0.5374 0.47879 0.80391 0.0
O102 O 0.60362 0.46182 0.85407 0.0
O103 O 0.66334 0.52576 0.84863 0.0
O104 O 0.64335 0.58175 0.79905 0.0
O105 O 0.71281 0.59653 0.83277 0.0
O106 O 0.7931 0.48143 0.8569 0.0
O107 O 0.81282 0.55991 0.83721 0.0
O108 O 0.75782 0.54038 0.77748 0.0
O109 O 0.6969 0.47832 0.78312 0.0
O110 O 0.71428 0.42363 0.83466 0.0
O111 O 0.64113 0.40619 0.80342 0.0
H112 H 0.43271 0.48987 0.78497 0.0
H113 H 0.38716 0.56681 0.78478 0.0
H114 H 0.52019 0.66176 0.74686 0.0
H115 H 0.56626 0.58531 0.74774 0.0
H116 H 0.89312 0.47916 0.89147 0.0
H117 H 0.98483 0.47435 0.8855 0.0
H118 H 0.97538 0.53567 0.79423 0.0
H119 H 0.88324 0.54031 0.80034 0.0
H120 H 0.70807 0.09877 0.27985 0.0
H121 H 0.57166 0.98908 0.2559 0.0
H122 H 0.66682 0.06264 0.18544 0.0
H123 H 0.55121 0.03381 0.16368 0.0
C124 C 0.54065 1.01165 0.18488 0.0
O125 O 0.58455 0.99433 0.19717 0.0
H126 H 0.52522 0.03895 0.20088 0.0
C127 C 0.6824 0.07787 0.26251 0.0
C128 C 0.69299 0.08584 0.23151 0.0
C129 C 0.63857 0.04355 0.27147 0.0
C130 C 0.60544 1.01596 0.24924 0.0
C131 C 0.61603 1.02244 0.21832 0.0
C132 C 0.65961 0.05734 0.20946 0.0
H133 H 0.68419 0.63088 0.58607 0.0
H134 H 0.68041 0.46224 0.5764 0.0
H135 H 0.6395 0.55426 0.50007 0.0
H136 H 0.58612 0.43045 0.49385 0.0
C137 C 0.60387 0.42579 0.5168 0.0
O138 O 0.65096 0.45861 0.51914 0.0
H139 H 0.57658 0.43713 0.53382 0.0
C140 C 0.67785 0.59517 0.5722 0.0
C141 C 0.66165 0.59838 0.54166 0.0
C142 C 0.68447 0.54627 0.58515 0.0
C143 C 0.675 0.50032 0.56698 0.0
C144 C 0.65889 0.50316 0.5364 0.0
C145 C 0.65207 0.5522 0.52372 0.0
H146 H 0.21172 0.59272 0.92703 0.0
H147 H 0.33939 0.70675 0.9596 0.0
H148 H 0.30958 0.68203 0.86327 0.0
H149 H 0.38869 0.81715 0.90687 0.0
C150 C 0.36764 0.78544 0.8919 0.0
O151 O 0.37018 0.73669 0.90519 0.0
H152 H 0.32689 0.79331 0.88904 0.0
C153 C 0.24487 0.62218 0.92236 0.0
C154 C 0.25674 0.63493 0.8922 0.0
C155 C 0.27446 0.64738 0.94672 0.0
C156 C 0.31616 0.68698 0.94091 0.0
C157 C 0.32853 0.70021 0.91076 0.0
C158 C 0.29954 0.67311 0.88649 0.0
H159 H 1.09823 0.44324 0.36657 0.0
H160 H 0.18387 0.59623 0.38944 0.0
H161 H 0.13665 0.48573 0.46027 0.0
H162 H 0.13796 0.60181 0.47888 0.0
C163 C 0.1639 0.61903 0.46071 0.0
O164 O 0.18722 0.57932 0.44811 0.0
H165 H 0.14025 0.63691 0.44315 0.0
C166 C 1.11707 0.47131 0.38344 0.0
C167 C 1.11487 0.45825 0.41442 0.0
C168 C 0.14113 0.52123 0.37416 0.0
C169 C 0.16446 0.55776 0.39621 0.0
C170 C 0.16297 0.54477 0.42716 0.0
C171 C 0.13771 0.49537 0.43628 0.0
H172 H 0.64392 0.89782 0.72718 0.0
H173 H 0.66899 0.06365 0.75038 0.0
H174 H 0.65989 0.94715 0.82121 0.0
H175 H 0.63727 0.06422 0.84774 0.0
C176 C 0.63475 0.07143 0.82285 0.0
O177 O 0.67355 0.04938 0.8091 0.0
H178 H 0.59561 0.05192 0.81483 0.0
C179 C 0.64911 0.92902 0.74427 0.0
C180 C 0.65009 0.91559 0.77526 0.0
C181 C 0.65622 0.98214 0.73495 0.0
C182 C 0.66287 1.02245 0.75711 0.0
C183 C 0.66421 1.00988 0.78812 0.0
C184 C 0.65836 0.95652 0.7972 0.0
H185 H 0.73529 0.5021 0.04998 0.0
H186 H 0.57158 0.50485 0.05784 0.0
H187 H 0.67288 0.53072 0.13718 0.0
H188 H 0.56105 0.46124 0.14641 0.0
C189 C 0.5417 0.47696 0.1262 0.0
O190 O 0.57401 0.5213 0.1161 0.0
H191 H 0.5368 0.44549 0.10833 0.0
C192 C 0.70245 0.50646 0.06378 0.0
C193 C 0.71076 0.51716 0.09513 0.0
C194 C 0.65253 0.50195 0.05001 0.0
C195 C 0.61018 0.5076 0.06811 0.0
C196 C 0.61673 0.51706 0.0995 0.0
C197 C 0.66739 0.5225 0.11302 0.0
H198 H 0.30747 0.46242 0.16673 0.0
H199 H 0.30327 0.5818 0.09786 0.0
H200 H 0.39534 0.58169 0.08898 0.0
H201 H 0.47764 0.54455 0.09927 0.0
H202 H 0.48128 0.42803 0.16981 0.0
H203 H 0.39022 0.4305 0.17951 0.0
C204 C 0.32669 0.48867 0.14989 0.0
C205 C 0.29787 0.52189 0.13297 0.0
C206 C 0.38027 0.48916 0.14523 0.0
C207 C 0.32406 0.55586 0.1114 0.0
C208 C 0.37697 0.55575 0.10621 0.0
C209 C 0.45882 0.52071 0.11724 0.0
C210 C 0.48722 0.48709 0.13431 0.0
C211 C 0.40566 0.52235 0.12286 0.0
C212 C 0.4612 0.45526 0.15682 0.0
C213 C 0.40875 0.45629 0.16226 0.0
H214 H 1.0056 0.22388 0.43049 0.0
H215 H 0.90968 0.30288 0.48826 0.0
H216 H 0.96528 0.38705 0.4806 0.0
H217 H 1.03777 0.43945 0.4546 0.0
H218 H 0.12943 0.36118 0.39405 0.0
H219 H 1.07852 0.27556 0.40535 0.0
C220 C 0.99654 0.25952 0.44125 0.0
C221 C 0.95326 0.25693 0.45978 0.0
C222 C 1.02785 0.308 0.43614 0.0
C223 C 0.94299 0.30345 0.47413 0.0
C224 C 0.97457 0.35175 0.46959 0.0
C225 C 1.04691 0.40344 0.44429 0.0
C226 C 1.08714 0.4063 0.4236 0.0
C227 C 1.0167 0.35461 0.45034 0.0
C228 C 1.0984 0.35968 0.40998 0.0
C229 C 1.06934 0.31086 0.41641 0.0
H230 H 0.60835 0.66622 0.78358 0.0
H231 H 0.74436 0.69467 0.84307 0.0
H232 H 0.74536 0.79013 0.83832 0.0
H233 H 0.71082 0.86616 0.81453 0.0
H234 H 0.57572 0.83674 0.75451 0.0
H235 H 0.57135 0.74177 0.76215 0.0
C236 C 0.63811 0.69317 0.79565 0.0
C237 C 0.67642 0.67293 0.81347 0.0
C238 C 0.63869 0.74819 0.79269 0.0
C239 C 0.71444 0.70883 0.82907 0.0
C240 C 0.71507 0.76361 0.82638 0.0
C241 C 0.67983 0.83889 0.80366 0.0
C242 C 0.64381 0.85858 0.78384 0.0
C243 C 0.67777 0.78383 0.80794 0.0
C244 C 0.6042 0.82265 0.76966 0.0
C245 C 0.60161 0.7682 0.77406 0.0
H246 H 0.94831 0.59103 0.13286 0.0
H247 H 0.9526 0.42412 0.12026 0.0
H248 H 0.85948 0.40901 0.10923 0.0
H249 H 0.77633 0.44323 0.10059 0.0
H250 H 0.76922 0.60831 0.11655 0.0
H251 H 0.86264 0.62391 0.12906 0.0
C252 C 0.92882 0.55135 0.12783 0.0
C253 C 0.95814 0.5089 0.12722 0.0
C254 C 0.87422 0.54246 0.12219 0.0
C255 C 0.93162 0.45768 0.12099 0.0
C256 C 0.87806 0.4489 0.11459 0.0
C257 C 0.79509 0.48241 0.10741 0.0
C258 C 0.7655 0.52446 0.10789 0.0
C259 C 0.8489 0.49093 0.11488 0.0
C260 C 0.7907 0.5751 0.11645 0.0
C261 C 0.84436 0.58408 0.12334 0.0
H262 H 0.31148 0.80483 0.52912 0.0
H263 H 0.40256 0.78994 0.45005 0.0
H264 H 0.33696 0.71957 0.43 0.0
H265 H 0.25359 0.66216 0.43468 0.0
H266 H 0.164 0.67368 0.5145 0.0
H267 H 0.22922 0.74525 0.53459 0.0
C268 C 0.31732 0.7858 0.50769 0.0
C269 C 0.36185 0.80311 0.49107 0.0
C270 C 0.27972 0.74465 0.49643 0.0
C271 C 0.36828 0.77831 0.4631 0.0
C272 C 0.33093 0.73774 0.45166 0.0
C273 C 0.24873 0.68001 0.45663 0.0
C274 C 0.20475 0.66202 0.47344 0.0
C275 C 0.28649 0.72067 0.46809 0.0
C276 C 0.19809 0.68633 0.50145 0.0
C277 C 0.23527 0.72725 0.51289 0.0
H278 H 0.62298 0.30982 0.78651 0.0
H279 H 0.73403 0.33886 0.86171 0.0
H280 H 0.7321 0.24352 0.8683 0.0
H281 H 0.69631 0.15131 0.85384 0.0
H282 H 0.5867 0.1228 0.77817 0.0
H283 H 0.59092 0.21831 0.7704 0.0
C284 C 0.64683 0.2954 0.80436 0.0
C285 C 0.67829 0.33167 0.82375 0.0
C286 C 0.64574 0.24047 0.80792 0.0
C287 C 0.70938 0.31203 0.84648 0.0
C288 C 0.70825 0.25742 0.85029 0.0
C289 C 0.67358 0.16623 0.83561 0.0
C290 C 0.64046 0.13029 0.81695 0.0
C291 C 0.67625 0.22124 0.83133 0.0
C292 C 0.61182 0.14984 0.79307 0.0
C293 C 0.61423 0.20438 0.78866 0.0
H294 H 0.60081 0.82328 0.51523 0.0
H295 H 0.76295 0.8559 0.49478 0.0
H296 H 0.77141 0.76273 0.50237 0.0
H297 H 0.73421 0.67313 0.51893 0.0
H298 H 0.57229 0.64037 0.53881 0.0
H299 H 0.5619 0.73219 0.52705 0.0
C300 C 0.6379 0.80991 0.51219 0.0
C301 C 0.68129 0.8466 0.50472 0.0
C302 C 0.64244 0.75621 0.51646 0.0
C303 C 0.72892 0.82852 0.50051 0.0
C304 C 0.73385 0.77525 0.50494 0.0
C305 C 0.69653 0.68609 0.51997 0.0
C306 C 0.6539 0.65047 0.52938 0.0
C307 C 0.69111 0.73892 0.51341 0.0
C308 C 0.60532 0.66732 0.5312 0.0
C309 C 0.59955 0.71977 0.52471 0.0
H310 H 1.0503 0.59123 0.81962 0.0
H311 H 1.05335 0.43673 0.85861 0.0
H312 H 0.14537 0.46054 0.87197 0.0
H313 H 0.21763 0.53162 0.88289 0.0
H314 H 0.21191 0.68797 0.84742 0.0
H315 H 0.12936 0.6565 0.82097 0.0
C316 C 1.07152 0.56201 0.82994 0.0
C317 C 1.04483 0.5127 0.83876 0.0
C318 C 0.12397 0.57659 0.8384 0.0
C319 C 1.07288 0.47535 0.85221 0.0
C320 C 0.12545 0.48897 0.85988 0.0
C321 C 0.19902 0.55825 0.8685 0.0
C322 C 0.21991 0.61221 0.86766 0.0
C323 C 0.15043 0.54049 0.85471 0.0
C324 C 0.19631 0.64631 0.84855 0.0
C325 C 0.14874 0.62846 0.83377 0.0
H326 H 0.36549 0.81093 0.18003 0.0
H327 H 0.32995 0.88109 0.09406 0.0
H328 H 0.40343 0.9511 0.10223 0.0
H329 H 0.47616 0.99451 0.13461 0.0
H330 H 0.50934 0.92675 0.22147 0.0
H331 H 0.43808 0.85425 0.21237 0.0
C332 C 0.37352 0.84171 0.16315 0.0
C333 C 0.34203 0.84052 0.13644 0.0
C334 C 0.41549 0.8824 0.16818 0.0
C335 C 0.35379 0.88039 0.11462 0.0
C336 C 0.39566 0.92076 0.11937 0.0
C337 C 0.46807 0.96349 0.15135 0.0
C338 C 0.49866 0.9653 0.17836 0.0
C339 C 0.42662 0.92232 0.14611 0.0
C340 C 0.487 0.92561 0.20024 0.0
C341 C 0.44613 0.8843 0.19509 0.0
H342 H 0.5982 0.17987 0.54104 0.0
H343 H 0.72438 0.20335 0.47892 0.0
H344 H 0.71776 0.29741 0.47614 0.0
H345 H 0.67411 0.37297 0.48974 0.0
H346 H 0.54881 0.35031 0.55212 0.0
H347 H 0.55697 0.25629 0.55632 0.0
C348 C 0.62444 0.20556 0.52701 0.0
C349 C 0.66155 0.18424 0.51013 0.0
C350 C 0.62052 0.25994 0.52549 0.0
C351 C 0.69532 0.21839 0.49216 0.0
C352 C 0.69157 0.27234 0.49049 0.0
C353 C 0.64909 0.34747 0.50452 0.0
C354 C 0.6114 0.36862 0.5209 0.0
C355 C 0.65407 0.29349 0.50684 0.0
C356 C 0.57854 0.33504 0.53956 0.0
C357 C 0.58311 0.28127 0.54191 0.0
H358 H 0.50318 0.70198 0.79808 0.0
H359 H 0.35221 0.64516 0.75826 0.0
H360 H 0.31404 0.70819 0.78933 0.0
H361 H 0.32137 0.76198 0.83612 0.0
H362 H 0.47079 0.80542 0.8808 0.0
H363 H 0.51264 0.76868 0.83838 0.0
C364 C 0.46237 0.7052 0.79506 0.0
C365 C 0.43042 0.66884 0.77611 0.0
C366 C 0.44051 0.73928 0.81416 0.0
C367 C 0.37738 0.67259 0.77292 0.0
C368 C 0.3556 0.70842 0.79078 0.0
C369 C 0.36323 0.76479 0.83597 0.0
C370 C 0.39299 0.78506 0.86169 0.0
C371 C 0.38634 0.73942 0.81283 0.0
C372 C 0.44721 0.78964 0.86122 0.0
C373 C 0.47098 0.76791 0.8372 0.0
H374 H 0.88232 0.26775 0.21585 0.0
H375 H 0.91858 0.16135 0.14604 0.0
H376 H 0.83962 0.10041 0.15634 0.0
H377 H 0.76208 0.07557 0.18694 0.0
H378 H 0.726 0.18361 0.2561 0.0
H379 H 0.80329 0.24514 0.24458 0.0
C380 C 0.87302 0.23112 0.20297 0.0
C381 C 0.90647 0.21895 0.18038 0.0
C382 C 0.82769 0.19633 0.20903 0.0
C383 C 0.89335 0.1718 0.16346 0.0
C384 C 0.84833 0.13682 0.16944 0.0
C385 C 0.77078 0.11286 0.19922 0.0
C386 C 0.73848 0.12449 0.22265 0.0
C387 C 0.81537 0.14847 0.19236 0.0
C388 C 0.75066 0.17298 0.23843 0.0
C389 C 0.79475 0.20842 0.23175 0.0
H390 H 0.23207 0.51084 0.06342 0.0
H391 H 1.08084 0.55694 0.04883 0.0
H392 H 1.11346 0.61545 0.0075 0.0
H393 H 0.18338 0.64819 0.97338 0.0
H394 H 0.33509 0.60384 -0.01182 0.0
H395 H 0.30475 0.55163 0.03266 0.0
C396 C 0.20635 0.53352 0.05099 0.0
C397 C 0.15391 0.5288 0.05835 0.0
C398 C 0.22576 0.5681 0.02792 0.0
C399 C 0.12113 0.55943 0.04294 0.0
C400 C 0.13982 0.59309 0.01957 0.0
C401 C 0.20999 0.62812 -0.0131 0.0
C402 C 0.26119 0.62952 0.97773 0.0
C403 C 0.19188 0.59725 0.01168 0.0
C404 C 0.29563 0.60356 -0.00483 0.0
C405 C 0.27806 0.57311 0.02021 0.0
H406 H 0.56469 0.04148 0.40697 0.0
H407 H 0.71102 0.98495 0.42257 0.0
H408 H 0.72732 0.99004 0.36818 0.0
H409 H 0.70056 1.01189 0.31609 0.0
H410 H 0.55154 0.06173 0.29967 0.0
H411 H 0.53517 0.05732 0.35432 0.0
C412 C 0.60008 0.03028 0.39839 0.0
C413 C 0.6371 1.0139 0.41876 0.0
C414 C 0.60851 0.03183 0.36694 0.0
C415 C 0.68238 0.9986 0.40737 0.0
C416 C 0.69164 1.00127 0.37626 0.0
C417 C 0.66449 1.02156 0.3246 0.0
C418 C 0.62738 0.03739 0.30415 0.0
C419 C 0.65513 1.0181 0.35586 0.0
C420 C 0.58049 0.04931 0.31515 0.0
C421 C 0.57128 0.04699 0.34633 0.0
H422 H 0.76705 0.57378 0.72159 0.0
H423 H 0.65068 0.43727 0.73255 0.0
H424 H 0.63036 0.43564 0.67779 0.0
H425 H 0.64367 0.47517 0.62709 0.0
H426 H 0.76027 0.61169 0.61639 0.0
H427 H 0.78256 0.6112 0.67076 0.0
C428 C 0.73745 0.54352 0.71193 0.0
C429 C 0.71017 0.50591 0.73098 0.0
C430 C 0.72596 0.54293 0.68052 0.0
C431 C 0.67193 0.46688 0.71827 0.0
C432 C 0.66037 0.46588 0.68699 0.0
C433 C 0.67444 0.50433 0.63662 0.0
C434 C 0.70015 0.54351 0.61778 0.0
C435 C 0.68689 0.50396 0.66793 0.0
C436 C 0.73948 0.58151 0.6305 0.0
C437 C 0.75235 0.58116 0.66155 0.0
H438 H 0.65139 0.05537 0.59705 0.0
H439 H 0.7585 0.94215 0.59165 0.0
H440 H 0.75042 0.92377 0.64567 0.0
H441 H 0.71408 0.93977 0.69452 0.0
H442 H 0.60839 0.05359 0.70192 0.0
H443 H 0.61516 0.07238 0.64727 0.0
C444 C 0.67279 0.0267 0.6078 0.0
C445 C 0.70552 1.00018 0.59039 0.0
C446 C 0.66841 1.01656 0.63922 0.0
C447 C 0.7332 0.96323 0.60455 0.0
C448 C 0.72862 0.95261 0.63546 0.0
C449 C 0.69214 0.96838 0.68413 0.0
C450 C 0.66037 0.99482 0.70209 0.0
C451 C 0.69646 0.97901 0.65299 0.0
C452 C 0.63316 0.03275 0.68849 0.0
C453 C 0.6369 0.04332 0.65727 0.0
H454 H 0.5846 0.44242 0.91285 0.0
H455 H 0.71847 0.55851 0.89697 0.0
H456 H 0.73516 0.56977 0.95172 0.0
H457 H 0.71038 0.5489 0.00425 0.0
H458 H 0.57621 0.4335 0.0206 0.0
H459 H 0.56081 0.42007 0.96578 0.0
C460 C 0.61748 0.47001 0.92144 0.0
C461 C 0.65009 0.49973 0.90088 0.0
C462 C 0.62669 0.47665 0.95309 0.0
C463 C 0.69258 0.53535 0.91231 0.0
C464 C 0.70221 0.54181 0.94364 0.0
C465 C 0.67813 0.52033 -0.00416 0.0
C466 C 0.64451 0.49232 0.01658 0.0
C467 C 0.66937 0.51295 0.96426 0.0
C468 C 0.6024 0.45606 0.00519 0.0
C469 C 0.59367 0.44818 0.97381 0.0
H470 H 1.10695 0.6055 0.2414 0.0
H471 H 0.169 0.4635 0.2184 0.0
H472 H 0.17813 0.4427 0.27242 0.0
H473 H 0.16772 0.46476 0.32627 0.0
H474 H 1.11053 0.60945 0.34921 0.0
H475 H 1.1012 0.63005 0.29514 0.0
C476 C 0.12236 0.56995 0.24824 0.0
C477 C 0.13642 0.53554 0.22601 0.0
C478 C 0.12885 0.5591 0.2793 0.0
C479 C 0.15713 0.4901 0.23513 0.0
C480 C 0.16262 0.47836 0.266 0.0
C481 C 0.15338 0.50084 0.31933 0.0
C482 C 0.13966 0.5355 0.34155 0.0
C483 C 0.14847 0.51252 0.28827 0.0
C484 C 0.12168 0.58244 0.33243 0.0
C485 C 1.11602 0.59401 0.30157 0.0
loop_
_geom_bond_atom_site_label_1
_geom_bond_atom_site_label_2
_geom_bond_distance
_geom_bond_site_symmetry_2
_ccdc_geom_bond_type
Nd0 C2 2.836 . S
Nd0 O20 2.500 . S
Nd0 O21 2.492 . S
Nd0 O22 2.487 . S
Nd0 O23 2.683 . S
Nd0 O24 2.410 . S
Nd0 O29 2.414 . S
Nd0 O31 2.424 1_455 S
Nd1 C11 2.836 . S
Nd1 O23 2.415 1_655 S
Nd1 O25 2.424 1_655 S
Nd1 O26 2.500 . S
Nd1 O27 2.492 . S
Nd1 O28 2.487 . S
Nd1 O29 2.682 1_655 S
Nd1 O30 2.410 . S
C2 Nd0 2.836 . S
C2 C3 1.498 . S
C2 O20 1.258 . S
C2 O21 1.239 . S
C3 C2 1.498 . S
C3 C4 1.366 . S
C3 C8 1.407 . S
C4 C3 1.366 . S
C4 C5 1.392 . S
C4 H32 0.930 . S
C5 C4 1.392 . S
C5 C6 1.398 . S
C5 H33 0.929 . S
C6 C5 1.398 . S
C6 C7 1.352 . S
C7 C6 1.352 . S
C7 C8 1.384 . S
C7 H34 0.930 . S
C8 C3 1.407 . S
C8 C7 1.384 . S
C8 H35 0.929 . S
C9 O22 1.241 . S
C9 O23 1.274 . S
C10 O24 1.251 . S
C10 O25 1.268 . S
C11 Nd1 2.836 . S
C11 C12 1.498 . S
C11 O26 1.258 . S
C11 O27 1.239 . S
C12 C11 1.498 . S
C12 C13 1.366 . S
C12 C17 1.407 . S
C13 C12 1.366 . S
C13 C14 1.392 . S
C13 H36 0.930 . S
C14 C13 1.392 . S
C14 C15 1.398 . S
C14 H37 0.929 . S
C15 C14 1.398 . S
C15 C16 1.352 . S
C16 C15 1.352 . S
C16 C17 1.384 . S
C16 H38 0.930 . S
C17 C12 1.407 . S
C17 C16 1.384 . S
C17 H39 0.929 . S
C18 O28 1.241 1_455 S
C18 O29 1.273 . S
C19 O30 1.251 . S
C19 O31 1.268 . S
O20 Nd0 2.500 . S
O20 C2 1.258 . S
O21 Nd0 2.492 . S
O21 C2 1.239 . S
O22 Nd0 2.487 . S
O22 C9 1.241 . S
O23 Nd0 2.683 . S
O23 Nd1 2.415 1_455 S
O23 C9 1.274 . S
O24 Nd0 2.410 . S
O24 C10 1.251 . S
O25 Nd1 2.424 1_455 S
O25 C10 1.268 . S
O26 Nd1 2.500 . S
O26 C11 1.258 . S
O27 Nd1 2.492 . S
O27 C11 1.239 . S
O28 Nd1 2.487 . S
O28 C18 1.241 1_655 S
O29 Nd0 2.414 . S
O29 Nd1 2.682 1_455 S
O29 C18 1.273 . S
O30 Nd1 2.410 . S
O30 C19 1.251 . S
O31 Nd0 2.424 1_655 S
O31 C19 1.268 . S
H32 C4 0.930 . S
H33 C5 0.929 . S
H34 C7 0.930 . S
H35 C8 0.929 . S
H36 C13 0.930 . S
H37 C14 0.929 . S
H38 C16 0.930 . S
H39 C17 0.929 . S
Nd40 C42 2.836 . S
Nd40 O60 2.500 . S
Nd40 O61 2.492 . S
Nd40 O62 2.487 . S
Nd40 O63 2.682 1_565 S
Nd40 O64 2.410 . S
Nd40 O69 2.414 . S
Nd40 O71 2.424 1_565 S
Nd41 C51 2.836 . S
Nd41 O63 2.414 . S
Nd41 O65 2.424 1_545 S
Nd41 O66 2.500 . S
Nd41 O67 2.492 . S
Nd41 O68 2.487 . S
Nd41 O69 2.682 1_545 S
Nd41 O70 2.410 . S
C42 Nd40 2.836 . S
C42 C43 1.498 . S
C42 O60 1.258 . S
C42 O61 1.239 . S
C43 C42 1.498 . S
C43 C44 1.366 . S
C43 C48 1.407 . S
C44 C43 1.366 . S
C44 C45 1.392 . S
C44 H72 0.930 . S
C45 C44 1.392 . S
C45 C46 1.398 . S
C45 H73 0.929 . S
C46 C45 1.398 . S
C46 C47 1.352 . S
C47 C46 1.352 . S
C47 C48 1.384 . S
C47 H74 0.930 . S
C48 C43 1.407 . S
C48 C47 1.384 . S
C48 H75 0.929 . S
C49 O62 1.241 1_545 S
C49 O63 1.273 . S
C50 O64 1.251 . S
C50 O65 1.268 . S
C51 Nd41 2.836 . S
C51 C52 1.498 . S
C51 O66 1.258 . S
C51 O67 1.239 . S
C52 C51 1.498 . S
C52 C53 1.366 . S
C52 C57 1.407 . S
C53 C52 1.366 . S
C53 C54 1.392 . S
C53 H76 0.930 . S
C54 C53 1.392 . S
C54 C55 1.398 . S
C54 H77 0.929 . S
C55 C54 1.398 . S
C55 C56 1.352 . S
C56 C55 1.352 . S
C56 C57 1.384 . S
C56 H78 0.930 . S
C57 C52 1.407 . S
C57 C56 1.384 . S
C57 H79 0.929 . S
C58 O68 1.241 . S
C58 O69 1.273 1_545 S
C59 O70 1.251 . S
C59 O71 1.268 . S
O60 Nd40 2.500 . S
O60 C42 1.258 . S
O61 Nd40 2.492 . S
O61 C42 1.239 . S
O62 Nd40 2.487 . S
O62 C49 1.241 1_565 S
O63 Nd40 2.682 1_545 S
O63 Nd41 2.414 . S
O63 C49 1.273 . S
O64 Nd40 2.410 . S
O64 C50 1.251 . S
O65 Nd41 2.424 1_565 S
O65 C50 1.268 . S
O66 Nd41 2.500 . S
O66 C51 1.258 . S
O67 Nd41 2.492 . S
O67 C51 1.239 . S
O68 Nd41 2.487 . S
O68 C58 1.241 . S
O69 Nd40 2.414 . S
O69 Nd41 2.682 1_565 S
O69 C58 1.273 1_565 S
O70 Nd41 2.410 . S
O70 C59 1.251 . S
O71 Nd40 2.424 1_545 S
O71 C59 1.268 . S
H72 C44 0.930 . S
H73 C45 0.929 . S
H74 C47 0.930 . S
H75 C48 0.929 . S
H76 C53 0.930 . S
H77 C54 0.929 . S
H78 C56 0.930 . S
H79 C57 0.929 . S
Nd80 C82 2.836 . S
Nd80 O100 2.500 . S
Nd80 O101 2.492 . S
Nd80 O102 2.487 . S
Nd80 O103 2.682 . S
Nd80 O104 2.410 . S
Nd80 O109 2.414 . S
Nd80 O111 2.424 . S
Nd81 C91 2.836 . S
Nd81 O103 2.414 . S
Nd81 O105 2.424 . S
Nd81 O106 2.500 . S
Nd81 O107 2.492 . S
Nd81 O108 2.487 . S
Nd81 O109 2.682 . S
Nd81 O110 2.410 . S
C82 Nd80 2.836 . S
C82 C83 1.498 . S
C82 O100 1.258 . S
C82 O101 1.239 . S
C83 C82 1.498 . S
C83 C84 1.366 . S
C83 C88 1.407 . S
C84 C83 1.366 . S
C84 C85 1.392 . S
C84 H112 0.930 . S
C85 C84 1.392 . S
C85 C86 1.398 . S
C85 H113 0.929 . S
C86 C85 1.398 . S
C86 C87 1.352 . S
C87 C86 1.352 . S
C87 C88 1.384 . S
C87 H114 0.930 . S
C88 C83 1.407 . S
C88 C87 1.384 . S
C88 H115 0.929 . S
C89 O102 1.241 . S
C89 O103 1.273 . S
C90 O104 1.251 . S
C90 O105 1.268 . S
C91 Nd81 2.836 . S
C91 C92 1.498 . S
C91 O106 1.258 . S
C91 O107 1.239 . S
C92 C91 1.498 . S
C92 C93 1.366 . S
C92 C97 1.407 . S
C93 C92 1.366 . S
C93 C94 1.392 . S
C93 H116 0.930 . S
C94 C93 1.392 . S
C94 C95 1.398 . S
C94 H117 0.929 . S
C95 C94 1.398 . S
C95 C96 1.352 . S
C96 C95 1.352 . S
C96 C97 1.384 . S
C96 H118 0.930 . S
C97 C92 1.407 . S
C97 C96 1.384 . S
C97 H119 0.929 . S
C98 O108 1.241 . S
C98 O109 1.273 . S
C99 O110 1.251 . S
C99 O111 1.268 . S
O100 Nd80 2.500 . S
O100 C82 1.258 . S
O101 Nd80 2.492 . S
O101 C82 1.239 . S
O102 Nd80 2.487 . S
O102 C89 1.241 . S
O103 Nd80 2.682 . S
O103 Nd81 2.414 . S
O103 C89 1.273 . S
O104 Nd80 2.410 . S
O104 C90 1.251 . S
O105 Nd81 2.424 . S
O105 C90 1.268 . S
O106 Nd81 2.500 . S
O106 C91 1.258 . S
O107 Nd81 2.492 . S
O107 C91 1.239 . S
O108 Nd81 2.487 . S
O108 C98 1.241 . S
O109 Nd80 2.414 . S
O109 Nd81 2.682 . S
O109 C98 1.273 . S
O110 Nd81 2.410 . S
O110 C99 1.251 . S
O111 Nd80 2.424 . S
O111 C99 1.268 . S
H112 C84 0.930 . S
H113 C85 0.929 . S
H114 C87 0.930 . S
H115 C88 0.929 . S
H116 C93 0.930 . S
H117 C94 0.929 . S
H118 C96 0.930 . S
H119 C97 0.929 . S
H120 C127 0.929 . S
H121 C130 0.930 . S
H122 C132 0.929 . S
H123 C124 0.969 . S
C124 H123 0.969 . S
C124 O125 1.550 . S
C124 H126 0.973 . S
O125 C124 1.550 . S
O125 C131 1.412 . S
H126 C124 0.973 . S
C127 H120 0.929 . S
C127 C128 1.400 . S
C127 C129 1.364 . S
C128 C127 1.400 . S
C128 C132 1.377 . S
C129 C127 1.364 . S
C129 C130 1.374 1_545 S
C130 H121 0.930 . S
C130 C129 1.374 1_565 S
C130 C131 1.383 . S
C131 O125 1.412 . S
C131 C130 1.383 . S
C131 C132 1.394 1_565 S
C132 H122 0.929 . S
C132 C128 1.377 . S
C132 C131 1.394 1_545 S
H133 C140 0.929 . S
H134 C143 0.930 . S
H135 C145 0.929 . S
H136 C137 0.969 . S
C137 H136 0.969 . S
C137 O138 1.550 . S
C137 H139 0.973 . S
O138 C137 1.550 . S
O138 C144 1.412 . S
H139 C137 0.973 . S
C140 H133 0.929 . S
C140 C141 1.400 . S
C140 C142 1.364 . S
C141 C140 1.400 . S
C141 C145 1.377 . S
C142 C140 1.364 . S
C142 C143 1.374 . S
C143 H134 0.930 . S
C143 C142 1.374 . S
C143 C144 1.383 . S
C144 O138 1.412 . S
C144 C143 1.383 . S
C144 C145 1.394 . S
C145 H135 0.929 . S
C145 C141 1.377 . S
C145 C144 1.394 . S
H146 C153 0.929 1_655 S
H147 C156 0.930 . S
H148 C158 0.929 . S
H149 C150 0.969 . S
C150 H149 0.969 . S
C150 O151 1.550 . S
C150 H152 0.973 . S
O151 C150 1.550 . S
O151 C157 1.412 . S
H152 C150 0.973 . S
C153 H146 0.929 1_455 S
C153 C154 1.400 . S
C153 C155 1.364 . S
C154 C153 1.400 . S
C154 C158 1.377 . S
C155 C153 1.364 . S
C155 C156 1.374 . S
C156 H147 0.930 . S
C156 C155 1.374 . S
C156 C157 1.383 . S
C157 O151 1.412 . S
C157 C156 1.383 . S
C157 C158 1.394 . S
C158 H148 0.929 . S
C158 C154 1.377 . S
C158 C157 1.394 . S
H159 C166 0.929 . S
H160 C169 0.930 . S
H161 C171 0.929 . S
H162 C163 0.969 . S
C163 H162 0.969 . S
C163 O164 1.550 . S
C163 H165 0.973 . S
O164 C163 1.550 . S
O164 C170 1.412 . S
H165 C163 0.973 . S
C166 H159 0.929 . S
C166 C167 1.400 . S
C166 C168 1.364 1_655 S
C167 C166 1.400 . S
C167 C171 1.377 1_655 S
C168 C166 1.364 1_455 S
C168 C169 1.374 . S
C169 H160 0.930 . S
C169 C168 1.374 . S
C169 C170 1.383 . S
C170 O164 1.412 . S
C170 C169 1.383 . S
C170 C171 1.394 . S
C171 H161 0.929 . S
C171 C167 1.377 1_455 S
C171 C170 1.394 . S
H172 C179 0.929 . S
H173 C182 0.930 . S
H174 C184 0.929 . S
H175 C176 0.969 . S
C176 H175 0.969 . S
C176 O177 1.550 . S
C176 H178 0.973 . S
O177 C176 1.550 . S
O177 C183 1.412 . S
H178 C176 0.973 . S
C179 H172 0.929 . S
C179 C180 1.400 . S
C179 C181 1.364 . S
C180 C179 1.400 . S
C180 C184 1.377 . S
C181 C179 1.364 . S
C181 C182 1.374 1_565 S
C182 H173 0.930 . S
C182 C181 1.374 1_545 S
C182 C183 1.383 . S
C183 O177 1.412 . S
C183 C182 1.383 . S
C183 C184 1.394 1_545 S
C184 H174 0.929 . S
C184 C180 1.377 . S
C184 C183 1.394 1_565 S
H185 C192 0.929 . S
H186 C195 0.930 . S
H187 C197 0.929 . S
H188 C189 0.969 . S
C189 H188 0.969 . S
C189 O190 1.550 . S
C189 H191 0.973 . S
O190 C189 1.550 . S
O190 C196 1.412 . S
H191 C189 0.973 . S
C192 H185 0.929 . S
C192 C193 1.400 . S
C192 C194 1.364 . S
C193 C192 1.400 . S
C193 C197 1.377 . S
C194 C192 1.364 . S
C194 C195 1.374 . S
C195 H186 0.930 . S
C195 C194 1.374 . S
C195 C196 1.383 . S
C196 O190 1.412 . S
C196 C195 1.383 . S
C196 C197 1.394 . S
C197 H187 0.929 . S
C197 C193 1.377 . S
C197 C196 1.394 . S
H198 C204 0.930 . S
H199 C207 0.930 . S
H200 C208 0.930 . S
H201 C209 0.930 . S
H202 C212 0.930 . S
H203 C213 0.930 . S
C204 H198 0.930 . S
C204 C205 1.355 . S
C204 C206 1.415 . S
C205 C204 1.355 . S
C205 C207 1.419 . S
C206 C204 1.415 . S
C206 C211 1.425 . S
C206 C213 1.409 . S
C207 H199 0.930 . S
C207 C205 1.419 . S
C207 C208 1.362 . S
C208 H200 0.930 . S
C208 C207 1.362 . S
C208 C211 1.409 . S
C209 H201 0.930 . S
C209 C210 1.355 . S
C209 C211 1.415 . S
C210 C209 1.355 . S
C210 C212 1.419 . S
C211 C206 1.425 . S
C211 C208 1.409 . S
C211 C209 1.415 . S
C212 H202 0.930 . S
C212 C210 1.419 . S
C212 C213 1.362 . S
C213 H203 0.930 . S
C213 C206 1.409 . S
C213 C212 1.362 . S
H214 C220 0.930 . S
H215 C223 0.930 . S
H216 C224 0.930 . S
H217 C225 0.930 . S
H218 C228 0.930 . S
H219 C229 0.930 . S
C220 H214 0.930 . S
C220 C221 1.355 . S
C220 C222 1.415 . S
C221 C220 1.355 . S
C221 C223 1.419 . S
C222 C220 1.415 . S
C222 C227 1.425 . S
C222 C229 1.409 . S
C223 H215 0.930 . S
C223 C221 1.419 . S
C223 C224 1.362 . S
C224 H216 0.930 . S
C224 C223 1.362 . S
C224 C227 1.409 . S
C225 H217 0.930 . S
C225 C226 1.355 . S
C225 C227 1.415 . S
C226 C225 1.355 . S
C226 C228 1.419 . S
C227 C222 1.425 . S
C227 C224 1.409 . S
C227 C225 1.415 . S
C228 H218 0.930 . S
C228 C226 1.419 . S
C228 C229 1.362 . S
C229 H219 0.930 . S
C229 C222 1.409 . S
C229 C228 1.362 . S
H230 C236 0.930 . S
H231 C239 0.930 . S
H232 C240 0.930 . S
H233 C241 0.930 . S
H234 C244 0.930 . S
H235 C245 0.930 . S
C236 H230 0.930 . S
C236 C237 1.355 . S
C236 C238 1.415 . S
C237 C236 1.355 . S
C237 C239 1.419 . S
C238 C236 1.415 . S
C238 C243 1.425 . S
C238 C245 1.409 . S
C239 H231 0.930 . S
C239 C237 1.419 . S
C239 C240 1.362 . S
C240 H232 0.930 . S
C240 C239 1.362 . S
C240 C243 1.409 . S
C241 H233 0.930 . S
C241 C242 1.355 . S
C241 C243 1.415 . S
C242 C241 1.355 . S
C242 C244 1.419 . S
C243 C238 1.425 . S
C243 C240 1.409 . S
C243 C241 1.415 . S
C244 H234 0.930 . S
C244 C242 1.419 . S
C244 C245 1.362 . S
C245 H235 0.930 . S
C245 C238 1.409 . S
C245 C244 1.362 . S
H246 C252 0.930 . S
H247 C255 0.930 . S
H248 C256 0.930 . S
H249 C257 0.930 . S
H250 C260 0.930 . S
H251 C261 0.930 . S
C252 H246 0.930 . S
C252 C253 1.355 . S
C252 C254 1.415 . S
C253 C252 1.355 . S
C253 C255 1.419 . S
C254 C252 1.415 . S
C254 C259 1.425 . S
C254 C261 1.409 . S
C255 H247 0.930 . S
C255 C253 1.419 . S
C255 C256 1.362 . S
C256 H248 0.930 . S
C256 C255 1.362 . S
C256 C259 1.409 . S
C257 H249 0.930 . S
C257 C258 1.355 . S
C257 C259 1.415 . S
C258 C257 1.355 . S
C258 C260 1.419 . S
C259 C254 1.425 . S
C259 C256 1.409 . S
C259 C257 1.415 . S
C260 H250 0.930 . S
C260 C258 1.419 . S
C260 C261 1.362 . S
C261 H251 0.930 . S
C261 C254 1.409 . S
C261 C260 1.362 . S
H262 C268 0.930 . S
H263 C271 0.930 . S
H264 C272 0.930 . S
H265 C273 0.930 . S
H266 C276 0.930 . S
H267 C277 0.930 . S
C268 H262 0.930 . S
C268 C269 1.355 . S
C268 C270 1.415 . S
C269 C268 1.355 . S
C269 C271 1.419 . S
C270 C268 1.415 . S
C270 C275 1.425 . S
C270 C277 1.409 . S
C271 H263 0.930 . S
C271 C269 1.419 . S
C271 C272 1.362 . S
C272 H264 0.930 . S
C272 C271 1.362 . S
C272 C275 1.409 . S
C273 H265 0.930 . S
C273 C274 1.355 . S
C273 C275 1.415 . S
C274 C273 1.355 . S
C274 C276 1.419 . S
C275 C270 1.425 . S
C275 C272 1.409 . S
C275 C273 1.415 . S
C276 H266 0.930 . S
C276 C274 1.419 . S
C276 C277 1.362 . S
C277 H267 0.930 . S
C277 C270 1.409 . S
C277 C276 1.362 . S
H278 C284 0.930 . S
H279 C287 0.930 . S
H280 C288 0.930 . S
H281 C289 0.930 . S
H282 C292 0.930 . S
H283 C293 0.930 . S
C284 H278 0.930 . S
C284 C285 1.355 . S
C284 C286 1.415 . S
C285 C284 1.355 . S
C285 C287 1.419 . S
C286 C284 1.415 . S
C286 C291 1.425 . S
C286 C293 1.409 . S
C287 H279 0.930 . S
C287 C285 1.419 . S
C287 C288 1.362 . S
C288 H280 0.930 . S
C288 C287 1.362 . S
C288 C291 1.409 . S
C289 H281 0.930 . S
C289 C290 1.355 . S
C289 C291 1.415 . S
C290 C289 1.355 . S
C290 C292 1.419 . S
C291 C286 1.425 . S
C291 C288 1.409 . S
C291 C289 1.415 . S
C292 H282 0.930 . S
C292 C290 1.419 . S
C292 C293 1.362 . S
C293 H283 0.930 . S
C293 C286 1.409 . S
C293 C292 1.362 . S
H294 C300 0.930 . S
H295 C303 0.930 . S
H296 C304 0.930 . S
H297 C305 0.930 . S
H298 C308 0.930 . S
H299 C309 0.930 . S
C300 H294 0.930 . S
C300 C301 1.355 . S
C300 C302 1.415 . S
C301 C300 1.355 . S
C301 C303 1.419 . S
C302 C300 1.415 . S
C302 C307 1.425 . S
C302 C309 1.409 . S
C303 H295 0.930 . S
C303 C301 1.419 . S
C303 C304 1.362 . S
C304 H296 0.930 . S
C304 C303 1.362 . S
C304 C307 1.409 . S
C305 H297 0.930 . S
C305 C306 1.355 . S
C305 C307 1.415 . S
C306 C305 1.355 . S
C306 C308 1.419 . S
C307 C302 1.425 . S
C307 C304 1.409 . S
C307 C305 1.415 . S
C308 H298 0.930 . S
C308 C306 1.419 . S
C308 C309 1.362 . S
C309 H299 0.930 . S
C309 C302 1.409 . S
C309 C308 1.362 . S
H310 C316 0.930 . S
H311 C319 0.930 . S
H312 C320 0.930 . S
H313 C321 0.930 . S
H314 C324 0.930 . S
H315 C325 0.930 . S
C316 H310 0.930 . S
C316 C317 1.355 . S
C316 C318 1.415 . S
C317 C316 1.355 . S
C317 C319 1.419 . S
C318 C316 1.415 . S
C318 C323 1.425 . S
C318 C325 1.409 . S
C319 H311 0.930 . S
C319 C317 1.419 . S
C319 C320 1.362 . S
C320 H312 0.930 . S
C320 C319 1.362 . S
C320 C323 1.409 . S
C321 H313 0.930 . S
C321 C322 1.355 . S
C321 C323 1.415 . S
C322 C321 1.355 . S
C322 C324 1.419 . S
C323 C318 1.425 . S
C323 C320 1.409 . S
C323 C321 1.415 . S
C324 H314 0.930 . S
C324 C322 1.419 . S
C324 C325 1.362 . S
C325 H315 0.930 . S
C325 C318 1.409 . S
C325 C324 1.362 . S
H326 C332 0.930 . S
H327 C335 0.930 . S
H328 C336 0.930 . S
H329 C337 0.930 . S
H330 C340 0.930 . S
H331 C341 0.930 . S
C332 H326 0.930 . S
C332 C333 1.355 . S
C332 C334 1.415 . S
C333 C332 1.355 . S
C333 C335 1.419 . S
C334 C332 1.415 . S
C334 C339 1.425 . S
C334 C341 1.409 . S
C335 H327 0.930 . S
C335 C333 1.419 . S
C335 C336 1.362 . S
C336 H328 0.930 . S
C336 C335 1.362 . S
C336 C339 1.409 . S
C337 H329 0.930 . S
C337 C338 1.355 . S
C337 C339 1.415 . S
C338 C337 1.355 . S
C338 C340 1.419 . S
C339 C334 1.425 . S
C339 C336 1.409 . S
C339 C337 1.415 . S
C340 H330 0.930 . S
C340 C338 1.419 . S
C340 C341 1.362 . S
C341 H331 0.930 . S
C341 C334 1.409 . S
C341 C340 1.362 . S
H342 C348 0.930 . S
H343 C351 0.930 . S
H344 C352 0.930 . S
H345 C353 0.930 . S
H346 C356 0.930 . S
H347 C357 0.930 . S
C348 H342 0.930 . S
C348 C349 1.355 . S
C348 C350 1.415 . S
C349 C348 1.355 . S
C349 C351 1.419 . S
C350 C348 1.415 . S
C350 C355 1.425 . S
C350 C357 1.409 . S
C351 H343 0.930 . S
C351 C349 1.419 . S
C351 C352 1.362 . S
C352 H344 0.930 . S
C352 C351 1.362 . S
C352 C355 1.409 . S
C353 H345 0.930 . S
C353 C354 1.355 . S
C353 C355 1.415 . S
C354 C353 1.355 . S
C354 C356 1.419 . S
C355 C350 1.425 . S
C355 C352 1.409 . S
C355 C353 1.415 . S
C356 H346 0.930 . S
C356 C354 1.419 . S
C356 C357 1.362 . S
C357 H347 0.930 . S
C357 C350 1.409 . S
C357 C356 1.362 . S
H358 C364 0.930 . S
H359 C367 0.930 . S
H360 C368 0.930 . S
H361 C369 0.930 . S
H362 C372 0.930 . S
H363 C373 0.930 . S
C364 H358 0.930 . S
C364 C365 1.355 . S
C364 C366 1.415 . S
C365 C364 1.355 . S
C365 C367 1.419 . S
C366 C364 1.415 . S
C366 C371 1.425 . S
C366 C373 1.409 . S
C367 H359 0.930 . S
C367 C365 1.419 . S
C367 C368 1.362 . S
C368 H360 0.930 . S
C368 C367 1.362 . S
C368 C371 1.409 . S
C369 H361 0.930 . S
C369 C370 1.355 . S
C369 C371 1.415 . S
C370 C369 1.355 . S
C370 C372 1.419 . S
C371 C366 1.425 . S
C371 C368 1.409 . S
C371 C369 1.415 . S
C372 H362 0.930 . S
C372 C370 1.419 . S
C372 C373 1.362 . S
C373 H363 0.930 . S
C373 C366 1.409 . S
C373 C372 1.362 . S
H374 C380 0.930 . S
H375 C383 0.930 . S
H376 C384 0.930 . S
H377 C385 0.930 . S
H378 C388 0.930 . S
H379 C389 0.930 . S
C380 H374 0.930 . S
C380 C381 1.355 . S
C380 C382 1.415 . S
C381 C380 1.355 . S
C381 C383 1.419 . S
C382 C380 1.415 . S
C382 C387 1.425 . S
C382 C389 1.409 . S
C383 H375 0.930 . S
C383 C381 1.419 . S
C383 C384 1.362 . S
C384 H376 0.930 . S
C384 C383 1.362 . S
C384 C387 1.409 . S
C385 H377 0.930 . S
C385 C386 1.355 . S
C385 C387 1.415 . S
C386 C385 1.355 . S
C386 C388 1.419 . S
C387 C382 1.425 . S
C387 C384 1.409 . S
C387 C385 1.415 . S
C388 H378 0.930 . S
C388 C386 1.419 . S
C388 C389 1.362 . S
C389 H379 0.930 . S
C389 C382 1.409 . S
C389 C388 1.362 . S
H390 C396 0.930 . S
H391 C399 0.930 . S
H392 C400 0.930 . S
H393 C401 0.930 1_655 S
H394 C404 0.930 . S
H395 C405 0.930 . S
C396 H390 0.930 . S
C396 C397 1.355 . S
C396 C398 1.415 . S
C397 C396 1.355 . S
C397 C399 1.419 1_455 S
C398 C396 1.415 . S
C398 C403 1.425 . S
C398 C405 1.409 . S
C399 H391 0.930 . S
C399 C397 1.419 1_655 S
C399 C400 1.362 . S
C400 H392 0.930 . S
C400 C399 1.362 . S
C400 C403 1.409 1_655 S
C401 H393 0.930 1_455 S
C401 C402 1.355 . S
C401 C403 1.415 1_556 S
C402 C401 1.355 . S
C402 C404 1.419 . S
C403 C398 1.425 . S
C403 C400 1.409 1_455 S
C403 C401 1.415 1_554 S
C404 H394 0.930 . S
C404 C402 1.419 . S
C404 C405 1.362 1_556 S
C405 H395 0.930 . S
C405 C398 1.409 . S
C405 C404 1.362 1_554 S
H406 C412 0.930 . S
H407 C415 0.930 . S
H408 C416 0.930 . S
H409 C417 0.930 . S
H410 C420 0.930 . S
H411 C421 0.930 . S
C412 H406 0.930 . S
C412 C413 1.355 . S
C412 C414 1.415 . S
C413 C412 1.355 . S
C413 C415 1.419 1_545 S
C414 C412 1.415 . S
C414 C419 1.425 1_545 S
C414 C421 1.409 . S
C415 H407 0.930 . S
C415 C413 1.419 1_565 S
C415 C416 1.362 . S
C416 H408 0.930 . S
C416 C415 1.362 . S
C416 C419 1.409 . S
C417 H409 0.930 . S
C417 C418 1.355 1_565 S
C417 C419 1.415 . S
C418 C417 1.355 1_545 S
C418 C420 1.419 . S
C419 C414 1.425 1_565 S
C419 C416 1.409 . S
C419 C417 1.415 . S
C420 H410 0.930 . S
C420 C418 1.419 . S
C420 C421 1.362 . S
C421 H411 0.930 . S
C421 C414 1.409 . S
C421 C420 1.362 . S
H422 C428 0.930 . S
H423 C431 0.930 . S
H424 C432 0.930 . S
H425 C433 0.930 . S
H426 C436 0.930 . S
H427 C437 0.930 . S
C428 H422 0.930 . S
C428 C429 1.355 . S
C428 C430 1.415 . S
C429 C428 1.355 . S
C429 C431 1.419 . S
C430 C428 1.415 . S
C430 C435 1.425 . S
C430 C437 1.409 . S
C431 H423 0.930 . S
C431 C429 1.419 . S
C431 C432 1.362 . S
C432 H424 0.930 . S
C432 C431 1.362 . S
C432 C435 1.409 . S
C433 H425 0.930 . S
C433 C434 1.355 . S
C433 C435 1.415 . S
C434 C433 1.355 . S
C434 C436 1.419 . S
C435 C430 1.425 . S
C435 C432 1.409 . S
C435 C433 1.415 . S
C436 H426 0.930 . S
C436 C434 1.419 . S
C436 C437 1.362 . S
C437 H427 0.930 . S
C437 C430 1.409 . S
C437 C436 1.362 . S
H438 C444 0.930 . S
H439 C447 0.930 . S
H440 C448 0.930 . S
H441 C449 0.930 . S
H442 C452 0.930 . S
H443 C453 0.930 . S
C444 H438 0.930 . S
C444 C445 1.343 1_565 S
C444 C446 1.415 . S
C445 C444 1.343 1_545 S
C445 C447 1.435 . S
C446 C444 1.415 . S
C446 C451 1.425 1_565 S
C446 C453 1.409 . S
C447 H439 0.930 . S
C447 C445 1.435 . S
C447 C448 1.362 . S
C448 H440 0.930 . S
C448 C447 1.362 . S
C448 C451 1.409 . S
C449 H441 0.930 . S
C449 C450 1.355 1_545 S
C449 C451 1.415 . S
C450 C449 1.355 1_565 S
C450 C452 1.419 . S
C451 C446 1.425 1_545 S
C451 C448 1.409 . S
C451 C449 1.415 . S
C452 H442 0.930 . S
C452 C450 1.419 . S
C452 C453 1.362 . S
C453 H443 0.930 . S
C453 C446 1.409 . S
C453 C452 1.362 . S
H454 C460 0.930 . S
H455 C463 0.930 . S
H456 C464 0.930 . S
H457 C465 0.930 . S
H458 C468 0.930 . S
H459 C469 0.930 1_556 S
C460 H454 0.930 . S
C460 C461 1.355 . S
C460 C462 1.415 . S
C461 C460 1.355 . S
C461 C463 1.419 . S
C462 C460 1.415 . S
C462 C467 1.425 . S
C462 C469 1.409 1_556 S
C463 H455 0.930 . S
C463 C461 1.419 . S
C463 C464 1.362 . S
C464 H456 0.930 . S
C464 C463 1.362 . S
C464 C467 1.409 . S
C465 H457 0.930 . S
C465 C466 1.355 . S
C465 C467 1.415 1_554 S
C466 C465 1.355 . S
C466 C468 1.419 . S
C467 C462 1.425 . S
C467 C464 1.409 . S
C467 C465 1.415 1_556 S
C468 H458 0.930 . S
C468 C466 1.419 . S
C468 C469 1.362 . S
C469 H459 0.930 1_554 S
C469 C462 1.409 1_554 S
C469 C468 1.362 . S
H470 C476 0.930 . S
H471 C479 0.930 . S
H472 C480 0.930 . S
H473 C481 0.930 . S
H474 C484 0.930 . S
H475 C485 0.930 . S
C476 H470 0.930 . S
C476 C477 1.355 . S
C476 C478 1.415 . S
C477 C476 1.355 . S
C477 C479 1.419 1_455 S
C478 C476 1.415 . S
C478 C483 1.418 1_455 S
C478 C485 1.409 . S
C479 H471 0.930 . S
C479 C477 1.419 1_655 S
C479 C480 1.362 . S
C480 H472 0.930 . S
C480 C479 1.362 . S
C480 C483 1.414 . S
C481 H473 0.930 . S
C481 C482 1.355 1_655 S
C481 C483 1.417 . S
C482 C481 1.355 1_455 S
C482 C484 1.419 . S
C483 C478 1.418 1_655 S
C483 C480 1.414 . S
C483 C481 1.417 . S
C484 H474 0.930 . S
C484 C482 1.419 . S
C484 C485 1.362 . S
C485 H475 0.930 . S
C485 C478 1.409 . S
C485 C484 1.362 . S
C205 C10 3.158 . S
C210 C189 2.960 . S
C221 C55 1.138 . S
C226 C167 1.104 . S
C237 C90 1.839 . S
C242 C180 1.843 . S
C253 C19 2.970 . S
C258 C193 2.944 . S
C274 C163 1.411 . S
C269 C46 1.369 . S
C290 C176 1.915 . S
C285 C99 2.056 . S
C301 C50 1.853 . S
C306 C141 1.837 . S
C317 C95 0.632 . S
C322 C154 0.518 1_655 S
C333 C6 1.311 . S
C338 C124 1.288 . S
C354 C137 1.857 . S
C349 C59 2.032 . S
C370 C150 0.703 . S
C365 C86 0.579 . S
C381 C15 1.200 . S
C386 C128 1.230 . S
C402 C155 1.231 . S
C397 C18 1.225 . S
C413 C49 1.449 . S
C418 C129 1.534 . S
C429 C98 1.455 . S
C434 C142 1.463 . S
C450 C181 1.474 . S
C445 C58 1.439 . S
C466 C194 1.748 . S
C461 C89 1.636 . S
C477 C9 1.526 . S
C482 C168 1.577 . S
