# Generated by pormake.
# Topology ssa, (4,4)-cn, num edge types: 1
# Building blocks:
#     Node 0, Type 0, BuildingBlock: ESEHIV_clean_sbu_0, # of connection points: 4
#     Node 1, Type 0, BuildingBlock: ESEHIV_clean_sbu_0, # of connection points: 4
#     Node 2, Type 0, BuildingBlock: ESEHIV_clean_sbu_0, # of connection points: 4
#     Node 3, Type 0, BuildingBlock: ESEHIV_clean_sbu_0, # of connection points: 4
#     Node 4, Type 0, BuildingBlock: ESEHIV_clean_sbu_0, # of connection points: 4
#     Node 5, Type 0, BuildingBlock: ESEHIV_clean_sbu_0, # of connection points: 4
#     Node 6, Type 1, BuildingBlock: AZAVOO_clean_linker_0, # of connection points: 4
#     Node 7, Type 1, BuildingBlock: AZAVOO_clean_linker_0, # of connection points: 4
#     Node 8, Type 1, BuildingBlock: AZAVOO_clean_linker_0, # of connection points: 4
#     Node 9, Type 1, BuildingBlock: AZAVOO_clean_linker_0, # of connection points: 4
#     Node 10, Type 1, BuildingBlock: AZAVOO_clean_linker_0, # of connection points: 4
#     Node 11, Type 1, BuildingBlock: AZAVOO_clean_linker_0, # of connection points: 4
#     Edge 12, Type (0, 1), BuildingBlock: XIVTED_clean_linker_0, # of connection points: 2
#     Edge 13, Type (0, 1), BuildingBlock: XIVTED_clean_linker_0, # of connection points: 2
#     Edge 14, Type (0, 1), BuildingBlock: XIVTED_clean_linker_0, # of connection points: 2
#     Edge 15, Type (0, 1), BuildingBlock: XIVTED_clean_linker_0, # of connection points: 2
#     Edge 16, Type (0, 1), BuildingBlock: XIVTED_clean_linker_0, # of connection points: 2
#     Edge 17, Type (0, 1), BuildingBlock: XIVTED_clean_linker_0, # of connection points: 2
#     Edge 18, Type (0, 1), BuildingBlock: XIVTED_clean_linker_0, # of connection points: 2
#     Edge 19, Type (0, 1), BuildingBlock: XIVTED_clean_linker_0, # of connection points: 2
#     Edge 20, Type (0, 1), BuildingBlock: XIVTED_clean_linker_0, # of connection points: 2
#     Edge 21, Type (0, 1), BuildingBlock: XIVTED_clean_linker_0, # of connection points: 2
#     Edge 22, Type (0, 1), BuildingBlock: XIVTED_clean_linker_0, # of connection points: 2
#     Edge 23, Type (0, 1), BuildingBlock: XIVTED_clean_linker_0, # of connection points: 2
#     Edge 24, Type (0, 1), BuildingBlock: XIVTED_clean_linker_0, # of connection points: 2
#     Edge 25, Type (0, 1), BuildingBlock: XIVTED_clean_linker_0, # of connection points: 2
#     Edge 26, Type (0, 1), BuildingBlock: XIVTED_clean_linker_0, # of connection points: 2
#     Edge 27, Type (0, 1), BuildingBlock: XIVTED_clean_linker_0, # of connection points: 2
#     Edge 28, Type (0, 1), BuildingBlock: XIVTED_clean_linker_0, # of connection points: 2
#     Edge 29, Type (0, 1), BuildingBlock: XIVTED_clean_linker_0, # of connection points: 2
#     Edge 30, Type (0, 1), BuildingBlock: XIVTED_clean_linker_0, # of connection points: 2
#     Edge 31, Type (0, 1), BuildingBlock: XIVTED_clean_linker_0, # of connection points: 2
#     Edge 32, Type (0, 1), BuildingBlock: XIVTED_clean_linker_0, # of connection points: 2
#     Edge 33, Type (0, 1), BuildingBlock: XIVTED_clean_linker_0, # of connection points: 2
#     Edge 34, Type (0, 1), BuildingBlock: XIVTED_clean_linker_0, # of connection points: 2
#     Edge 35, Type (0, 1), BuildingBlock: XIVTED_clean_linker_0, # of connection points: 2
# Relax obj value: 0.074
# Max RMSD: 0.230
# Mean RMSD: 0.156
data_MOF--net-ssa--node1-ESEHIV_clean_sbu_0--node2-AZAVOO_clean_linker_0--edge1-XIVTED_clean_linker_0
_symmetry_space_group_name_H-M    P1
_symmetry_Int_Tables_number       1
_symmetry_cell_setting            triclinic
loop_
_symmetry_equiv_pos_as_xyz
'x, y, z'
_cell_length_a     49.786826
_cell_length_b     53.608238
_cell_length_c     48.974128
_cell_angle_alpha  88.158921
_cell_angle_beta   93.572554
_cell_angle_gamma 122.42396
loop_
_atom_site_label
_atom_site_type_symbol
_atom_site_fract_x
_atom_site_fract_y
_atom_site_fract_z
_atom_type_partial_charge
Cu0 Cu 0.15807 0.57217 0.00374 0.0
N1 N 0.15479 0.55629 0.96959 0.0
N2 N 0.13051 0.52391 0.9353 0.0
C3 C 0.12739 0.53283 0.95965 0.0
C4 C 0.16137 0.54259 0.92966 0.0
C5 C 0.17634 0.56279 0.95089 0.0
O6 O 0.12201 0.57684 0.00475 0.0
C7 C 0.17386 0.53416 0.02934 0.0
O8 O 0.18785 0.53808 0.00634 0.0
H9 H 0.10579 0.52186 0.97075 0.0
H10 H 0.20118 0.58043 0.95285 0.0
N11 N 0.19609 0.60811 0.01085 0.0
N12 N 0.23546 0.64318 0.03759 0.0
C13 C 0.2101 0.61525 0.03611 0.0
C14 C 0.21336 0.63238 0.99549 0.0
C15 C 0.23764 0.65428 0.01212 0.0
C16 C 0.12097 0.5946 0.98748 0.0
O17 O 0.14488 0.60977 0.97154 0.0
H18 H 0.20074 0.60061 0.05349 0.0
H19 H 0.20816 0.63435 0.97406 0.0
O20 O 0.15743 0.54563 0.03206 0.0
H21 H 0.17235 0.54162 0.91167 0.0
H22 H 0.25507 0.67666 0.00612 0.0
Cu23 Cu 0.61731 0.06543 0.52928 0.0
N24 N 0.63876 0.06534 0.49936 0.0
N25 N 0.655 0.04448 0.47133 0.0
C26 C 0.63609 0.04023 0.49177 0.0
C27 C 0.67036 0.07367 0.46574 0.0
C28 C 0.66018 0.08654 0.48306 0.0
O29 O 0.57439 0.0316 0.52267 0.0
C30 C 0.66961 0.08489 0.56296 0.0
O31 O 0.67981 0.1041 0.54284 0.0
H32 H 0.62142 0.01937 0.50205 0.0
H33 H 0.66869 0.10974 0.48423 0.0
N34 N 0.61505 0.09874 0.53345 0.0
N35 N 0.60405 0.12812 0.55498 0.0
C36 C 0.60044 0.10136 0.55433 0.0
C37 C 0.62839 0.12477 0.52017 0.0
C38 C 0.6217 0.14302 0.53352 0.0
C39 C 0.56086 0.03479 0.50109 0.0
O40 O 0.57547 0.0605 0.48863 0.0
H41 H 0.5886 0.08428 0.56953 0.0
H42 H 0.64257 0.13041 0.50254 0.0
O43 O 0.64051 0.06367 0.56185 0.0
H44 H 0.68794 0.08498 0.45054 0.0
H45 H 0.62955 0.16557 0.52805 0.0
Cu46 Cu 0.61957 0.51583 0.09938 0.0
N47 N 0.61338 0.47881 0.09375 0.0
N48 N 0.60354 0.43987 0.06951 0.0
C49 C 0.60991 0.4677 0.06866 0.0
C50 C 0.60303 0.43319 0.0964 0.0
C51 C 0.60921 0.45737 0.11135 0.0
O52 O 0.64441 0.54003 0.06917 0.0
C53 C 0.55227 0.48831 0.10138 0.0
O54 O 0.55087 0.46394 0.09533 0.0
H55 H 0.61077 0.47955 0.05009 0.0
H56 H 0.6098 0.45891 0.13337 0.0
N57 N 0.64179 0.5332 0.13243 0.0
N58 N 0.65996 0.56494 0.1675 0.0
C59 C 0.64254 0.55617 0.14352 0.0
C60 C 0.65919 0.52685 0.14999 0.0
C61 C 0.67046 0.54644 0.1717 0.0
C62 C 0.67309 0.54655 0.06979 0.0
O63 O 0.68411 0.53894 0.09139 0.0
H64 H 0.62994 0.56585 0.13418 0.0
H65 H 0.6635 0.50939 0.14716 0.0
O66 O 0.57897 0.51284 0.1014 0.0
H67 H 0.59829 0.41233 0.10468 0.0
H68 H 0.68548 0.54716 0.18899 0.0
Cu69 Cu 0.03095 0.44501 0.54678 0.0
N70 N 0.01816 0.42095 0.51616 0.0
N71 N 0.02552 0.40157 0.47991 0.0
C72 C 0.03717 0.41402 0.50478 0.0
C73 C 0.99785 0.40045 0.47549 0.0
C74 C 0.99329 0.41238 0.49803 0.0
O75 O 0.07348 0.47762 0.5392 0.0
C76 C 0.03779 0.43167 0.60284 0.0
O77 O 0.05222 0.46025 0.60699 0.0
H78 H 0.06051 0.42043 0.51358 0.0
H79 H 0.97435 0.41628 0.50024 0.0
N80 N 0.00436 0.45918 0.55019 0.0
N81 N 0.97674 0.47492 0.56979 0.0
C82 C 0.99161 0.46004 0.57327 0.0
C83 C 0.99714 0.47377 0.53131 0.0
C84 C 0.98009 0.48354 0.54335 0.0
C85 C 0.08476 0.50462 0.54474 0.0
O86 O 0.06957 0.5115 0.56087 0.0
H87 H 0.99455 0.45122 0.59258 0.0
H88 H 0.00476 0.47791 0.51055 0.0
O89 O 0.02865 0.42156 0.57862 0.0
H90 H 0.98286 0.39295 0.45682 0.0
H91 H 0.97143 0.49649 0.53355 0.0
Cu92 Cu 0.57973 0.03842 0.10579 0.0
N93 N 0.57027 0.0677 0.10359 0.0
N94 N 0.5578 0.09824 0.08294 0.0
C95 C 0.55933 0.07407 0.08036 0.0
C96 C 0.56823 0.10749 0.10899 0.0
C97 C 0.57586 0.08849 0.12174 0.0
O98 O 0.59056 0.03575 0.06903 0.0
C99 C 0.51759 0.99638 0.12463 0.0
O100 O 0.51025 0.01577 0.11683 0.0
H101 H 0.55417 0.06199 0.06146 0.0
H102 H 0.5858 0.09032 0.1424 0.0
N103 N 0.61543 0.04951 0.12902 0.0
N104 N 0.65195 0.04383 0.15194 0.0
C105 C 0.62265 0.0302 0.13939 0.0
C106 C 0.64082 0.07648 0.13567 0.0
C107 C 0.66344 0.07301 0.15006 0.0
C108 C 0.60838 0.02668 0.06288 0.0
O109 O 0.61622 0.01314 0.08144 0.0
H110 H 0.6072 0.00653 0.1366 0.0
H111 H 0.64338 0.09713 0.12932 0.0
O112 O 0.54495 0.00139 0.11999 0.0
H113 H 0.57075 0.12685 0.11801 0.0
H114 H 0.68711 0.0905 0.15709 0.0
Cu115 Cu 0.54144 0.52248 0.57979 0.0
N116 N 0.54102 0.5564 0.57139 0.0
N117 N 0.5511 0.59637 0.54744 0.0
C118 C 0.55283 0.57213 0.54849 0.0
C119 C 0.5376 0.59593 0.57066 0.0
C120 C 0.53111 0.57099 0.58536 0.0
O121 O 0.53179 0.50223 0.54481 0.0
C122 C 0.59347 0.55207 0.61625 0.0
O123 O 0.5774 0.56397 0.62229 0.0
H124 H 0.56332 0.56625 0.53322 0.0
H125 H 0.52049 0.56425 0.60498 0.0
N126 N 0.51271 0.4992 0.60616 0.0
N127 N 0.4957 0.4708 0.64337 0.0
C128 C 0.52006 0.48651 0.62691 0.0
C129 C 0.48252 0.49138 0.60957 0.0
C130 C 0.47181 0.47352 0.63249 0.0
C131 C 0.50535 0.47866 0.53829 0.0
O132 O 0.4851 0.46381 0.55728 0.0
H133 H 0.5428 0.48834 0.62959 0.0
H134 H 0.46924 0.498 0.59628 0.0
O135 O 0.58304 0.53384 0.59638 0.0
H136 H 0.53273 0.61237 0.57653 0.0
H137 H 0.44848 0.46357 0.64063 0.0
H138 H 0.33305 0.45548 0.47587 0.0
H139 H 0.10358 0.41273 0.23014 0.0
H140 H 0.37127 0.50207 0.33124 0.0
H141 H 0.41162 0.50362 0.36338 0.0
H142 H 0.37844 0.41351 0.34239 0.0
H143 H 0.33795 0.41224 0.31015 0.0
H144 H 0.31116 0.48577 0.36436 0.0
H145 H 0.32145 0.48094 0.41318 0.0
H146 H 0.3041 0.39427 0.39821 0.0
H147 H 0.29347 0.39927 0.34952 0.0
H148 H 0.2496 0.48003 0.3291 0.0
H149 H 0.2039 0.46663 0.35603 0.0
H150 H 0.18431 0.37801 0.3652 0.0
H151 H 0.22997 0.39157 0.33798 0.0
H152 H 0.25796 0.49438 0.26943 0.0
H153 H 0.20967 0.49123 0.25023 0.0
H154 H 0.1578 0.39606 0.25783 0.0
H155 H 0.20644 0.39952 0.27661 0.0
H156 H 0.31723 0.50961 0.24349 0.0
H157 H 0.29927 0.52185 0.2003 0.0
H158 H 0.23334 0.42888 0.18379 0.0
H159 H 0.25133 0.41686 0.22706 0.0
H160 H 0.37937 0.50428 0.27454 0.0
H161 H 0.41836 0.51089 0.24229 0.0
H162 H 0.34778 0.42741 0.20419 0.0
H163 H 0.30986 0.42032 0.23743 0.0
O164 O 0.32838 0.45673 0.45658 0.0
O165 O 0.31959 0.41244 0.44772 0.0
O166 O 0.15086 0.46359 0.23396 0.0
O167 O 0.12303 0.41461 0.2377 0.0
C168 C 0.32186 0.45353 0.30607 0.0
C169 C 0.29728 0.44669 0.32371 0.0
C170 C 0.26895 0.44423 0.31322 0.0
C171 C 0.26529 0.44911 0.28517 0.0
C172 C 0.28962 0.45571 0.26742 0.0
C173 C 0.31777 0.45742 0.27772 0.0
C174 C 0.3518 0.45711 0.31826 0.0
C175 C 0.37362 0.48311 0.3327 0.0
C176 C 0.39661 0.48388 0.35116 0.0
C177 C 0.39802 0.45856 0.35568 0.0
C178 C 0.3777 0.43326 0.33957 0.0
C179 C 0.35486 0.43261 0.32089 0.0
C180 C 0.30169 0.44292 0.35348 0.0
C181 C 0.30934 0.46567 0.37174 0.0
C182 C 0.31532 0.46289 0.39958 0.0
C183 C 0.31373 0.43726 0.40959 0.0
C184 C 0.30559 0.41432 0.39118 0.0
C185 C 0.29952 0.4171 0.36338 0.0
C186 C 0.243 0.43675 0.33156 0.0
C187 C 0.23548 0.45777 0.33702 0.0
C188 C 0.2093 0.45002 0.35223 0.0
C189 C 0.19038 0.42119 0.36249 0.0
C190 C 0.19855 0.40041 0.35765 0.0
C191 C 0.2246 0.40812 0.34219 0.0
C192 C 0.23568 0.44717 0.27424 0.0
C193 C 0.23616 0.47288 0.26683 0.0
C194 C 0.20854 0.47101 0.25594 0.0
C195 C 0.17986 0.44337 0.25247 0.0
C196 C 0.17947 0.41768 0.2602 0.0
C197 C 0.20716 0.41958 0.27098 0.0
C198 C 0.28561 0.46237 0.23835 0.0
C199 C 0.29975 0.49189 0.23007 0.0
C200 C 0.28917 0.49883 0.20561 0.0
C201 C 0.26459 0.47631 0.18893 0.0
C202 C 0.25237 0.44667 0.1962 0.0
C203 C 0.26272 0.43976 0.2208 0.0
C204 C 0.34184 0.46171 0.2585 0.0
C205 C 0.37256 0.48727 0.25945 0.0
C206 C 0.39466 0.49118 0.24073 0.0
C207 C 0.38632 0.46967 0.22056 0.0
C208 C 0.35536 0.4442 0.21967 0.0
C209 C 0.33349 0.4402 0.23853 0.0
C210 C 0.32069 0.4346 0.43907 0.0
C211 C 0.15046 0.44126 0.24082 0.0
H212 H 0.86536 0.27974 0.00465 0.0
H213 H 0.69857 0.02078 0.80895 0.0
H214 H 0.87344 0.28557 0.85582 0.0
H215 H 0.91673 0.33609 0.86658 0.0
H216 H 0.98504 0.31046 0.86007 0.0
H217 H 0.94133 0.26016 0.84805 0.0
H218 H 0.82243 0.23596 0.89253 0.0
H219 H 0.83254 0.25486 0.93932 0.0
H220 H 0.91628 0.24948 0.94791 0.0
H221 H 0.9057 0.23032 0.90118 0.0
H222 H 0.76964 0.17777 0.85904 0.0
H223 H 0.72958 0.14578 0.89114 0.0
H224 H 0.79952 0.13476 0.93726 0.0
H225 H 0.83907 0.1657 0.90399 0.0
H226 H 0.77171 0.16746 0.79988 0.0
H227 H 0.72608 0.11817 0.78786 0.0
H228 H 0.7704 0.07918 0.83566 0.0
H229 H 0.8161 0.12861 0.84719 0.0
H230 H 0.82763 0.22198 0.76784 0.0
H231 H 0.80559 0.19956 0.72277 0.0
H232 H 0.82117 0.12944 0.74444 0.0
H233 H 0.84492 0.15288 0.78918 0.0
H234 H 0.87432 0.27814 0.79884 0.0
H235 H 0.908 0.31306 0.76429 0.0
H236 H 0.94693 0.25947 0.75113 0.0
H237 H 0.91319 0.22463 0.78615 0.0
O238 O 0.86171 0.2721 0.98625 0.0
O239 O 0.90455 0.26894 0.98961 0.0
O240 O 0.69472 0.0617 0.78884 0.0
O241 O 0.71633 0.04055 0.81337 0.0
C242 C 0.87768 0.23872 0.84451 0.0
C243 C 0.85727 0.22049 0.86507 0.0
C244 C 0.83071 0.1921 0.8583 0.0
C245 C 0.82527 0.18156 0.83117 0.0
C246 C 0.84578 0.19976 0.81057 0.0
C247 C 0.87171 0.22861 0.81715 0.0
C248 C 0.90429 0.26925 0.85137 0.0
C249 C 0.89778 0.29094 0.85673 0.0
C250 C 0.9226 0.31977 0.86301 0.0
C251 C 0.95449 0.32741 0.86446 0.0
C252 C 0.96088 0.30554 0.85882 0.0
C253 C 0.93597 0.27673 0.85219 0.0
C254 C 0.86324 0.23164 0.89356 0.0
C255 C 0.84282 0.23871 0.90463 0.0
C256 C 0.84871 0.24958 0.93132 0.0
C257 C 0.87522 0.25367 0.94737 0.0
C258 C 0.89565 0.24658 0.93613 0.0
C259 C 0.88969 0.23565 0.90945 0.0
C260 C 0.80722 0.17395 0.87909 0.0
C261 C 0.77626 0.16834 0.87604 0.0
C262 C 0.75346 0.15023 0.89459 0.0
C263 C 0.76123 0.13763 0.9169 0.0
C264 C 0.79251 0.14368 0.92011 0.0
C265 C 0.81527 0.16161 0.90132 0.0
C266 C 0.7973 0.15159 0.82423 0.0
C267 C 0.77157 0.14824 0.80761 0.0
C268 C 0.74552 0.12007 0.80085 0.0
C269 C 0.74462 0.09472 0.81077 0.0
C270 C 0.77034 0.09821 0.82764 0.0
C271 C 0.79644 0.1264 0.8343 0.0
C272 C 0.83804 0.18917 0.78178 0.0
C273 C 0.82749 0.20245 0.76254 0.0
C274 C 0.81467 0.18951 0.73692 0.0
C275 C 0.81157 0.16274 0.73038 0.0
C276 C 0.82323 0.15002 0.74918 0.0
C277 C 0.83686 0.16343 0.77458 0.0
C278 C 0.89157 0.24902 0.79529 0.0
C279 C 0.89032 0.27405 0.78869 0.0
C280 C 0.90963 0.29401 0.76898 0.0
C281 C 0.93039 0.2892 0.75516 0.0
C282 C 0.93112 0.26374 0.76137 0.0
C283 C 0.91193 0.24386 0.78135 0.0
C284 C 0.88148 0.26534 0.97568 0.0
C285 C 0.71701 0.06473 0.80361 0.0
H286 H 0.72221 0.77598 0.15527 0.0
H287 H 0.74833 0.01422 0.36243 0.0
H288 H 0.64607 0.75952 0.2972 0.0
H289 H 0.63784 0.71421 0.27816 0.0
H290 H 0.73704 0.74589 0.29683 0.0
H291 H 0.74496 0.79116 0.31627 0.0
H292 H 0.67183 0.79422 0.25219 0.0
H293 H 0.68359 0.78132 0.20897 0.0
H294 H 0.78446 0.8375 0.23026 0.0
H295 H 0.7723 0.84985 0.27364 0.0
H296 H 0.67798 0.84847 0.25385 0.0
H297 H 0.68017 0.88535 0.22217 0.0
H298 H 0.77347 0.95046 0.25699 0.0
H299 H 0.77129 0.91292 0.28849 0.0
H300 H 0.66909 0.87881 0.30811 0.0
H301 H 0.67209 0.92489 0.31735 0.0
H302 H 0.76646 0.96088 0.35549 0.0
H303 H 0.76318 0.91474 0.34594 0.0
H304 H 0.64333 0.83238 0.35413 0.0
H305 H 0.63384 0.86195 0.38419 0.0
H306 H 0.7304 0.90315 0.41861 0.0
H307 H 0.73969 0.8735 0.38813 0.0
H308 H 0.63337 0.77072 0.34077 0.0
H309 H 0.60787 0.73381 0.37672 0.0
H310 H 0.69831 0.77269 0.42273 0.0
H311 H 0.72376 0.80936 0.38631 0.0
O312 O 0.71811 0.78145 0.17244 0.0
O313 O 0.7697 0.81096 0.18414 0.0
O314 O 0.69891 0.97711 0.33688 0.0
O315 O 0.7469 0.99611 0.35778 0.0
C316 C 0.70232 0.80826 0.3139 0.0
C317 C 0.71412 0.82969 0.29279 0.0
C318 C 0.71876 0.8577 0.29687 0.0
C319 C 0.713 0.86476 0.32245 0.0
C320 C 0.7014 0.84351 0.34361 0.0
C321 C 0.69544 0.81505 0.33922 0.0
C322 C 0.696 0.77845 0.30848 0.0
C323 C 0.66572 0.75618 0.29822 0.0
C324 C 0.66118 0.7305 0.28698 0.0
C325 C 0.68688 0.72665 0.28577 0.0
C326 C 0.71676 0.74815 0.29768 0.0
C327 C 0.72131 0.77396 0.30883 0.0
C328 C 0.72122 0.82269 0.26613 0.0
C329 C 0.69644 0.80357 0.24754 0.0
C330 C 0.70323 0.79632 0.22283 0.0
C331 C 0.73497 0.8083 0.21619 0.0
C332 C 0.75976 0.82783 0.23476 0.0
C333 C 0.7529 0.83497 0.25951 0.0
C334 C 0.72447 0.87796 0.27346 0.0
C335 C 0.6995 0.87031 0.25387 0.0
C336 C 0.70076 0.89152 0.23584 0.0
C337 C 0.72691 0.92091 0.23725 0.0
C338 C 0.7529 0.92806 0.25564 0.0
C339 C 0.7518 0.90664 0.27347 0.0
C340 C 0.7159 0.89352 0.3264 0.0
C341 C 0.69048 0.89681 0.31822 0.0
C342 C 0.69224 0.92309 0.3236 0.0
C343 C 0.71948 0.94653 0.33729 0.0
C344 C 0.74513 0.94327 0.34498 0.0
C345 C 0.74336 0.917 0.33951 0.0
C346 C 0.69221 0.85091 0.3689 0.0
C347 C 0.66187 0.84661 0.36919 0.0
C348 C 0.6566 0.86377 0.38626 0.0
C349 C 0.68164 0.88542 0.40331 0.0
C350 C 0.71087 0.88708 0.40528 0.0
C351 C 0.71606 0.8698 0.38825 0.0
C352 C 0.68052 0.7922 0.36065 0.0
C353 C 0.64778 0.77088 0.35835 0.0
C354 C 0.63325 0.74994 0.37895 0.0
C355 C 0.65113 0.75028 0.40247 0.0
C356 C 0.68391 0.77198 0.40489 0.0
C357 C 0.69851 0.79276 0.38409 0.0
C358 C 0.7421 0.80041 0.19 0.0
C359 C 0.72104 0.97413 0.34386 0.0
H360 H 0.77689 0.56774 0.64341 0.0
H361 H 0.01084 0.53491 0.84998 0.0
H362 H 0.82238 0.61087 0.78932 0.0
H363 H 0.77993 0.60976 0.76057 0.0
H364 H 0.71756 0.51679 0.77786 0.0
H365 H 0.76037 0.51818 0.80673 0.0
H366 H 0.8552 0.59901 0.74578 0.0
H367 H 0.82934 0.59424 0.70035 0.0
H368 H 0.76005 0.50229 0.71684 0.0
H369 H 0.78627 0.50739 0.76212 0.0
H370 H 0.9163 0.59193 0.76219 0.0
H371 H 0.93607 0.57819 0.72438 0.0
H372 H 0.85779 0.48745 0.73133 0.0
H373 H 0.83875 0.50133 0.76928 0.0
H374 H 0.9372 0.60799 0.82874 0.0
H375 H 0.98586 0.60842 0.84085 0.0
H376 H 0.93348 0.5136 0.82997 0.0
H377 H 0.88485 0.51346 0.81834 0.0
H378 H 0.89793 0.61595 0.86877 0.0
H379 H 0.9366 0.62545 0.90678 0.0
H380 H 0.90347 0.53258 0.90889 0.0
H381 H 0.86434 0.52333 0.87173 0.0
H382 H 0.82457 0.60948 0.84507 0.0
H383 H 0.79731 0.61232 0.88391 0.0
H384 H 0.78315 0.53003 0.91492 0.0
H385 H 0.80912 0.52666 0.8757 0.0
O386 O 0.7873 0.56893 0.66113 0.0
O387 O 0.7522 0.52181 0.67068 0.0
O388 O 0.01777 0.58411 0.85048 0.0
O389 O 0.99206 0.53542 0.84484 0.0
C390 C 0.8227 0.5628 0.80715 0.0
C391 C 0.8365 0.55732 0.78556 0.0
C392 C 0.86356 0.55563 0.7908 0.0
C393 C 0.87766 0.56041 0.81747 0.0
C394 C 0.86338 0.56493 0.83938 0.0
C395 C 0.83554 0.56581 0.83432 0.0
C396 C 0.79441 0.56465 0.8002 0.0
C397 C 0.79903 0.59065 0.7881 0.0
C398 C 0.7748 0.58989 0.77144 0.0
C399 C 0.74563 0.56303 0.76653 0.0
C400 C 0.74 0.53768 0.78095 0.0
C401 C 0.7642 0.53854 0.79784 0.0
C402 C 0.82252 0.55357 0.75716 0.0
C403 C 0.83466 0.5778 0.73937 0.0
C404 C 0.81975 0.57503 0.71351 0.0
C405 C 0.7925 0.54792 0.70503 0.0
C406 C 0.78092 0.52349 0.72275 0.0
C407 C 0.79588 0.5263 0.74857 0.0
C408 C 0.87618 0.54758 0.76839 0.0
C409 C 0.90363 0.5691 0.75555 0.0
C410 C 0.9147 0.56124 0.73389 0.0
C411 C 0.89849 0.53171 0.72488 0.0
C412 C 0.87106 0.51028 0.738 0.0
C413 C 0.86003 0.51816 0.75955 0.0
C414 C 0.90757 0.56071 0.82264 0.0
C415 C 0.93635 0.58737 0.82884 0.0
C416 C 0.96409 0.58754 0.83578 0.0
C417 C 0.96355 0.56101 0.83643 0.0
C418 C 0.93473 0.5344 0.82968 0.0
C419 C 0.90696 0.53426 0.82287 0.0
C420 C 0.87856 0.56901 0.86735 0.0
C421 C 0.8981 0.59752 0.87831 0.0
C422 C 0.9205 0.60293 0.89977 0.0
C423 C 0.92371 0.5799 0.9105 0.0
C424 C 0.9017 0.55087 0.90131 0.0
C425 C 0.87924 0.54548 0.88001 0.0
C426 C 0.81894 0.56788 0.85752 0.0
C427 C 0.81518 0.59187 0.86003 0.0
C428 C 0.7997 0.59351 0.8822 0.0
C429 C 0.78833 0.57147 0.90242 0.0
C430 C 0.79201 0.54747 0.89976 0.0
C431 C 0.80689 0.54556 0.87742 0.0
C432 C 0.77607 0.5453 0.67793 0.0
C433 C 0.99282 0.56101 0.84432 0.0
H434 H 0.28786 0.78699 0.51123 0.0
H435 H 0.18892 0.56222 0.28742 0.0
H436 H 0.31461 0.81833 0.37288 0.0
H437 H 0.35274 0.8634 0.39878 0.0
H438 H 0.43004 0.85594 0.37464 0.0
H439 H 0.3918 0.81005 0.35002 0.0
H440 H 0.26128 0.75663 0.3949 0.0
H441 H 0.26338 0.76765 0.44336 0.0
H442 H 0.35872 0.78459 0.45299 0.0
H443 H 0.35614 0.77311 0.40458 0.0
H444 H 0.22118 0.69512 0.35762 0.0
H445 H 0.18866 0.65601 0.39018 0.0
H446 H 0.2741 0.66982 0.43282 0.0
H447 H 0.3065 0.70782 0.39945 0.0
H448 H 0.23181 0.70318 0.29465 0.0
H449 H 0.1952 0.65316 0.27681 0.0
H450 H 0.25118 0.62378 0.32119 0.0
H451 H 0.2878 0.67398 0.33865 0.0
H452 H 0.28059 0.76204 0.26702 0.0
H453 H 0.27721 0.74952 0.21877 0.0
H454 H 0.32387 0.70236 0.2402 0.0
H455 H 0.32618 0.71428 0.28837 0.0
H456 H 0.32507 0.82354 0.30466 0.0
H457 H 0.35807 0.86108 0.2713 0.0
H458 H 0.40612 0.81525 0.25891 0.0
H459 H 0.37417 0.77886 0.2932 0.0
O460 O 0.28747 0.78254 0.49215 0.0
O461 O 0.3365 0.79116 0.49599 0.0
O462 O 0.17518 0.59847 0.27163 0.0
O463 O 0.20306 0.5822 0.29412 0.0
C464 C 0.32711 0.78074 0.34856 0.0
C465 C 0.30727 0.75776 0.36666 0.0
C466 C 0.28621 0.72865 0.35674 0.0
C467 C 0.28465 0.72263 0.32859 0.0
C468 C 0.30446 0.74554 0.31052 0.0
C469 C 0.32585 0.7746 0.32047 0.0
C470 C 0.35039 0.81079 0.35968 0.0
C471 C 0.3398 0.82657 0.37296 0.0
C472 C 0.36147 0.85214 0.38779 0.0
C473 C 0.39411 0.86278 0.38877 0.0
C474 C 0.40491 0.84804 0.3741 0.0
C475 C 0.38317 0.82204 0.35988 0.0
C476 C 0.30858 0.76415 0.39622 0.0
C477 C 0.28253 0.7626 0.40755 0.0
C478 C 0.28383 0.76897 0.43521 0.0
C479 C 0.31125 0.77707 0.45204 0.0
C480 C 0.33727 0.77847 0.4406 0.0
C481 C 0.33589 0.77199 0.41296 0.0
C482 C 0.26628 0.70441 0.37611 0.0
C483 C 0.23289 0.68944 0.37374 0.0
C484 C 0.21437 0.66723 0.39236 0.0
C485 C 0.22896 0.66011 0.41403 0.0
C486 C 0.26234 0.67513 0.41643 0.0
C487 C 0.28081 0.6968 0.39742 0.0
C488 C 0.26243 0.69218 0.31793 0.0
C489 C 0.23617 0.68592 0.3004 0.0
C490 C 0.21527 0.65732 0.2903 0.0
C491 C 0.22025 0.63445 0.29759 0.0
C492 C 0.24663 0.64085 0.31518 0.0
C493 C 0.26755 0.66948 0.32523 0.0
C494 C 0.30336 0.73883 0.28114 0.0
C495 C 0.29012 0.74907 0.26118 0.0
C496 C 0.28846 0.74208 0.23362 0.0
C497 C 0.30017 0.72482 0.22555 0.0
C498 C 0.31409 0.71522 0.24568 0.0
C499 C 0.31555 0.72206 0.27321 0.0
C500 C 0.34708 0.79837 0.30131 0.0
C501 C 0.34301 0.82188 0.29495 0.0
C502 C 0.36168 0.84312 0.27563 0.0
C503 C 0.38473 0.8412 0.26217 0.0
C504 C 0.38898 0.81778 0.26901 0.0
C505 C 0.37052 0.79674 0.28847 0.0
C506 C 0.31262 0.78402 0.48138 0.0
C507 C 0.19808 0.60401 0.28695 0.0
H508 H 0.54002 0.30986 0.6399 0.0
H509 H 0.50734 0.0674 0.8291 0.0
H510 H 0.56991 0.32115 0.78715 0.0
H511 H 0.56204 0.35952 0.7681 0.0
H512 H 0.46513 0.31039 0.79367 0.0
H513 H 0.47316 0.27164 0.81211 0.0
H514 H 0.57161 0.27925 0.74771 0.0
H515 H 0.5677 0.29534 0.7011 0.0
H516 H 0.468 0.26178 0.71004 0.0
H517 H 0.47217 0.24545 0.75648 0.0
H518 H 0.58193 0.23089 0.77626 0.0
H519 H 0.59229 0.21287 0.73543 0.0
H520 H 0.49433 0.17491 0.706 0.0
H521 H 0.48409 0.19274 0.74723 0.0
H522 H 0.57734 0.21369 0.83824 0.0
H523 H 0.57927 0.16939 0.84645 0.0
H524 H 0.48377 0.11579 0.80979 0.0
H525 H 0.48203 0.16024 0.80198 0.0
H526 H 0.5769 0.25581 0.87637 0.0
H527 H 0.57863 0.23501 0.92123 0.0
H528 H 0.48038 0.16391 0.90682 0.0
H529 H 0.47924 0.18457 0.86184 0.0
H530 H 0.57893 0.31237 0.84543 0.0
H531 H 0.59025 0.34243 0.88596 0.0
H532 H 0.49759 0.27725 0.91482 0.0
H533 H 0.48668 0.24703 0.87411 0.0
O534 O 0.54101 0.30322 0.65833 0.0
O535 O 0.48994 0.28586 0.66407 0.0
O536 O 0.55627 0.11381 0.84478 0.0
O537 O 0.50724 0.08527 0.82607 0.0
C538 C 0.5246 0.26749 0.80624 0.0
C539 C 0.52459 0.25155 0.78375 0.0
C540 C 0.52744 0.2269 0.7882 0.0
C541 C 0.52809 0.21693 0.81512 0.0
C542 C 0.52766 0.23259 0.83767 0.0
C543 C 0.52705 0.25851 0.83324 0.0
C544 C 0.5221 0.29362 0.80093 0.0
C545 C 0.54727 0.31909 0.7893 0.0
C546 C 0.54269 0.34102 0.77845 0.0
C547 C 0.51282 0.33794 0.77911 0.0
C548 C 0.48826 0.31323 0.79244 0.0
C549 C 0.4929 0.29126 0.8033 0.0
C550 C 0.52215 0.26111 0.75538 0.0
C551 C 0.54892 0.27525 0.73948 0.0
C552 C 0.54662 0.28449 0.71291 0.0
C553 C 0.51753 0.27984 0.70184 0.0
C554 C 0.49076 0.26568 0.71793 0.0
C555 C 0.49306 0.25636 0.74445 0.0
C556 C 0.53227 0.21309 0.76471 0.0
C557 C 0.56261 0.21831 0.76118 0.0
C558 C 0.56855 0.20828 0.73771 0.0
C559 C 0.54421 0.19272 0.71734 0.0
C560 C 0.51352 0.1867 0.72138 0.0
C561 C 0.50763 0.19688 0.74485 0.0
C562 C 0.52949 0.19012 0.81966 0.0
C563 C 0.55682 0.19234 0.83211 0.0
C564 C 0.55789 0.16702 0.83671 0.0
C565 C 0.53163 0.13902 0.82881 0.0
C566 C 0.50437 0.13697 0.81615 0.0
C567 C 0.50333 0.16231 0.81161 0.0
C568 C 0.52798 0.22164 0.86587 0.0
C569 C 0.55569 0.23595 0.88312 0.0
C570 C 0.55656 0.22407 0.90878 0.0
C571 C 0.52969 0.19764 0.91761 0.0
C572 C 0.50167 0.18397 0.90051 0.0
C573 C 0.50087 0.19582 0.87488 0.0
C574 C 0.53194 0.27761 0.85674 0.0
C575 C 0.56087 0.3048 0.86029 0.0
C576 C 0.56727 0.32196 0.8835 0.0
C577 C 0.54483 0.3123 0.9037 0.0
C578 C 0.51556 0.28518 0.89984 0.0
C579 C 0.50916 0.268 0.87652 0.0
C580 C 0.5152 0.28977 0.67364 0.0
C581 C 0.53259 0.11203 0.83374 0.0
H582 H 0.19723 0.49839 0.02839 0.0
H583 H 0.24545 0.51542 0.18794 0.0
H584 H 0.16959 0.5406 0.08395 0.0
H585 H 0.2492 0.45338 0.1369 0.0
H586 H 0.2197 0.5266 0.14959 0.0
H587 H 0.21736 0.4824 0.06744 0.0
C588 C 0.19504 0.50398 0.04885 0.0
C589 C 0.18174 0.52088 0.05293 0.0
C590 C 0.22609 0.5105 0.14676 0.0
C591 C 0.20529 0.50311 0.0977 0.0
C592 C 0.24109 0.50435 0.16854 0.0
C593 C 0.24978 0.48369 0.16545 0.0
C594 C 0.21997 0.49611 0.12158 0.0
C595 C 0.24291 0.46948 0.14009 0.0
C596 C 0.20657 0.49486 0.07113 0.0
C597 C 0.1795 0.52747 0.07988 0.0
N598 N 0.22862 0.47611 0.11905 0.0
N599 N 0.19151 0.51887 0.10123 0.0
H600 H 0.65586 0.05872 0.61401 0.0
H601 H 0.82359 0.18442 0.67863 0.0
H602 H 0.73357 0.12342 0.56644 0.0
H603 H 0.7595 0.10667 0.72427 0.0
H604 H 0.79063 0.16108 0.63697 0.0
H605 H 0.69292 0.07395 0.65459 0.0
C606 C 0.68072 0.07576 0.61201 0.0
C607 C 0.69154 0.09016 0.58694 0.0
C608 C 0.78391 0.14887 0.65598 0.0
C609 C 0.73374 0.10775 0.63301 0.0
C610 C 0.80272 0.16223 0.6797 0.0
C611 C 0.79415 0.14737 0.70472 0.0
C612 C 0.75593 0.12066 0.6574 0.0
C613 C 0.76691 0.11868 0.70519 0.0
C614 C 0.70182 0.08445 0.63513 0.0
C615 C 0.724 0.11204 0.58544 0.0
N616 N 0.74842 0.10635 0.68189 0.0
N617 N 0.7438 0.12037 0.60817 0.0
H618 H 0.65473 0.61153 0.15253 0.0
H619 H 0.70798 0.68941 0.2993 0.0
H620 H 0.67862 0.57387 0.2219 0.0
H621 H 0.65822 0.70836 0.23498 0.0
H622 H 0.7027 0.6499 0.27074 0.0
H623 H 0.66147 0.65027 0.18188 0.0
C624 C 0.66117 0.61115 0.17396 0.0
C625 C 0.6656 0.58891 0.18469 0.0
C626 C 0.69282 0.66265 0.26302 0.0
C627 C 0.67401 0.63402 0.21859 0.0
C628 C 0.69589 0.68519 0.27924 0.0
C629 C 0.68322 0.70195 0.26959 0.0
C630 C 0.67745 0.65726 0.23686 0.0
C631 C 0.66782 0.69563 0.24345 0.0
C632 C 0.66518 0.6335 0.19075 0.0
C633 C 0.67498 0.59049 0.21262 0.0
N634 N 0.6655 0.67393 0.22801 0.0
N635 N 0.67883 0.61263 0.22862 0.0
H636 H 0.97115 0.52264 0.57147 0.0
H637 H 0.90191 0.48271 0.72072 0.0
H638 H 0.95172 0.44459 0.61643 0.0
H639 H 0.921 0.56108 0.67653 0.0
H640 H 0.91919 0.46806 0.68215 0.0
H641 H 0.95133 0.53644 0.60888 0.0
C642 C 0.96243 0.50823 0.58904 0.0
C643 C 0.96326 0.48245 0.59083 0.0
C644 C 0.91961 0.48847 0.68083 0.0
C645 C 0.94094 0.49835 0.63392 0.0
C646 C 0.90962 0.49679 0.70283 0.0
C647 C 0.90992 0.52313 0.70183 0.0
C648 C 0.93001 0.50658 0.65757 0.0
C649 C 0.92069 0.54075 0.67829 0.0
C650 C 0.95133 0.51625 0.61051 0.0
C651 C 0.95202 0.46487 0.61433 0.0
N652 N 0.93025 0.53213 0.65707 0.0
N653 N 0.94141 0.47318 0.63494 0.0
H654 H 0.45614 0.97683 0.13644 0.0
H655 H 0.44769 0.86459 0.25208 0.0
H656 H 0.52994 0.95828 0.1529 0.0
H657 H 0.36606 0.86834 0.2236 0.0
H658 H 0.47856 0.89996 0.21674 0.0
H659 H 0.42303 0.93806 0.16881 0.0
C660 C 0.46529 0.96445 0.14665 0.0
C661 C 0.49594 0.97093 0.14195 0.0
C662 C 0.45386 0.89298 0.21816 0.0
C663 C 0.45826 0.92673 0.17935 0.0
C664 C 0.4361 0.87264 0.23832 0.0
C665 C 0.40406 0.86328 0.24094 0.0
C666 C 0.43969 0.90439 0.20051 0.0
C667 C 0.39075 0.87515 0.22275 0.0
C668 C 0.44637 0.94232 0.16517 0.0
C669 C 0.50648 0.95409 0.15581 0.0
N670 N 0.40862 0.8951 0.20339 0.0
N671 N 0.4878 0.93298 0.17402 0.0
H672 H 0.54536 0.48503 0.67916 0.0
H673 H 0.45938 0.32573 0.7478 0.0
H674 H 0.44642 0.41848 0.66132 0.0
H675 H 0.55262 0.39826 0.77489 0.0
H676 H 0.45256 0.35975 0.71826 0.0
H677 H 0.54725 0.45421 0.71602 0.0
C678 C 0.52396 0.46392 0.68314 0.0
C679 C 0.49578 0.45412 0.66699 0.0
C680 C 0.47435 0.36829 0.73092 0.0
C681 C 0.49773 0.41854 0.70918 0.0
C682 C 0.4782 0.3489 0.74798 0.0
C683 C 0.50675 0.35906 0.76379 0.0
C684 C 0.4993 0.39805 0.72945 0.0
C685 C 0.53046 0.38928 0.76272 0.0
C686 C 0.52499 0.44637 0.70428 0.0
C687 C 0.46858 0.42683 0.67333 0.0
N688 N 0.52632 0.4076 0.74567 0.0
N689 N 0.47032 0.40978 0.69372 0.0
H690 H 0.70777 0.05261 0.44871 0.0
H691 H 0.63065 0.87865 0.42904 0.0
H692 H 0.61163 0.98556 0.46798 0.0
H693 H 0.72514 0.94505 0.40518 0.0
H694 H 0.62409 0.91778 0.44481 0.0
H695 H 0.7151 0.01384 0.43286 0.0
C696 C 0.68813 0.02981 0.44939 0.0
C697 C 0.65913 0.02235 0.45992 0.0
C698 C 0.64635 0.92381 0.43627 0.0
C699 C 0.66746 0.97785 0.44223 0.0
C700 C 0.6501 0.90145 0.4273 0.0
C701 C 0.67852 0.90853 0.41589 0.0
C702 C 0.67115 0.95355 0.43371 0.0
C703 C 0.70301 0.9385 0.41428 0.0
C704 C 0.69239 0.00766 0.44055 0.0
C705 C 0.63459 0.99235 0.46054 0.0
N706 N 0.69871 0.95989 0.42296 0.0
N707 N 0.63935 0.97127 0.45193 0.0
H708 H 0.73597 0.56688 0.06728 0.0
H709 H 0.73916 0.5806 0.90413 0.0
H710 H 0.65442 0.55188 0.01672 0.0
H711 H 0.80347 0.56696 0.95587 0.0
H712 H 0.71251 0.58018 0.94504 0.0
H713 H 0.76596 0.57807 0.02648 0.0
C714 C 0.72443 0.56627 0.04759 0.0
C715 C 0.69245 0.55804 0.04542 0.0
C716 C 0.7326 0.5775 0.94737 0.0
C717 C 0.7268 0.57067 0.99841 0.0
C718 C 0.74784 0.57786 0.92413 0.0
C719 C 0.77332 0.57355 0.92672 0.0
C720 C 0.74335 0.57332 0.97329 0.0
C721 C 0.78365 0.56999 0.95299 0.0
C722 C 0.74159 0.57258 0.02426 0.0
C723 C 0.67897 0.558 0.01932 0.0
N724 N 0.76864 0.56994 0.97521 0.0
N725 N 0.69614 0.56391 0.99674 0.0
H726 H 0.12114 0.56452 0.55419 0.0
H727 H 0.18052 0.60324 0.40361 0.0
H728 H 0.10663 0.49779 0.49751 0.0
H729 H 0.23307 0.66461 0.46982 0.0
H730 H 0.14827 0.56518 0.43703 0.0
H731 H 0.15858 0.60278 0.52319 0.0
C732 C 0.12611 0.55791 0.53545 0.0
C733 C 0.11071 0.5279 0.52846 0.0
C734 C 0.16696 0.58695 0.44424 0.0
C735 C 0.15272 0.57144 0.49274 0.0
C736 C 0.18516 0.60865 0.42521 0.0
C737 C 0.20941 0.63699 0.43406 0.0
C738 C 0.17259 0.59383 0.47228 0.0
C739 C 0.21466 0.64291 0.46226 0.0
C740 C 0.14743 0.57972 0.5178 0.0
C741 C 0.118 0.52061 0.50384 0.0
N742 N 0.19617 0.62158 0.48042 0.0
N743 N 0.13809 0.54221 0.48671 0.0
H744 H 0.51728 0.07184 0.03889 0.0
H745 H 0.5597 0.22425 0.96704 0.0
H746 H 0.57996 0.15684 0.07724 0.0
H747 H 0.50377 0.13874 0.92796 0.0
H748 H 0.56403 0.20023 0.00903 0.0
H749 H 0.50809 0.09614 0.99984 0.0
C750 C 0.52908 0.09565 0.03911 0.0
C751 C 0.54974 0.11233 0.06125 0.0
C752 C 0.55065 0.18676 0.99129 0.0
C753 C 0.53924 0.14047 0.01647 0.0
C754 C 0.5483 0.20045 0.96725 0.0
C755 C 0.53134 0.18353 0.94383 0.0
C756 C 0.53597 0.1559 0.99193 0.0
C757 C 0.51669 0.15272 0.94552 0.0
C758 C 0.52376 0.10955 0.01681 0.0
C759 C 0.5638 0.14311 0.06067 0.0
N760 N 0.51944 0.13998 0.96906 0.0
N761 N 0.55851 0.15623 0.03851 0.0
H762 H 0.53478 0.51188 0.49318 0.0
H763 H 0.38109 0.4142 0.39309 0.0
H764 H 0.45101 0.42992 0.51662 0.0
H765 H 0.45945 0.50112 0.37275 0.0
H766 H 0.41069 0.41561 0.43531 0.0
H767 H 0.51193 0.50413 0.44625 0.0
C768 C 0.51186 0.49196 0.4884 0.0
C769 C 0.49466 0.47165 0.50902 0.0
C770 C 0.42162 0.43424 0.42147 0.0
C771 C 0.46822 0.46283 0.45527 0.0
C772 C 0.40484 0.43334 0.39719 0.0
C773 C 0.41777 0.45761 0.37931 0.0
C774 C 0.45162 0.45961 0.42804 0.0
C775 C 0.44841 0.48205 0.38606 0.0
C776 C 0.49874 0.48765 0.46159 0.0
C777 C 0.46503 0.4463 0.5015 0.0
N778 N 0.46418 0.48251 0.40995 0.0
N779 N 0.45264 0.44277 0.47534 0.0
H780 H 0.13779 0.48869 0.90153 0.0
H781 H 0.95365 0.36365 0.90211 0.0
H782 H 0.06702 0.50041 0.93476 0.0
H783 H 0.01545 0.36062 0.84598 0.0
H784 H 0.99631 0.41321 0.91554 0.0
H785 H 0.09478 0.44157 0.88132 0.0
C786 C 0.11327 0.4816 0.90425 0.0
C787 C 0.10599 0.49825 0.92027 0.0
C788 C 1.00054 0.40183 0.90013 0.0
C789 C 0.05693 0.44441 0.89769 0.0
C790 C 0.97605 0.37348 0.8923 0.0
C791 C 0.98072 0.35783 0.87266 0.0
C792 C 0.03028 0.41473 0.88861 0.0
C793 C 0.01079 0.37163 0.86142 0.0
C794 C 0.08878 0.45467 0.89284 0.0
C795 C 0.07379 0.48794 0.92322 0.0
N796 N 0.03451 0.39926 0.86965 0.0
N797 N 0.05054 0.46161 0.91231 0.0
H798 H 0.06093 0.5568 0.00615 0.0
H799 H 0.98509 0.6264 0.90611 0.0
H800 H 0.11506 0.6351 0.95733 0.0
H801 H 0.92821 0.54781 0.95391 0.0
H802 H 0.03292 0.63331 0.92987 0.0
H803 H 0.01237 0.55624 0.99222 0.0
C804 C 0.06269 0.57412 0.99287 0.0
C805 C 0.09205 0.59585 0.98266 0.0
C806 C 0.01 0.61472 0.93547 0.0
C807 C 0.0367 0.59526 0.96656 0.0
C808 C 0.98251 0.61092 0.92207 0.0
C809 C 0.95239 0.58644 0.92794 0.0
C810 C 0.00761 0.59378 0.9548 0.0
C811 C 0.95091 0.56679 0.94842 0.0
C812 C 0.03496 0.57373 0.98485 0.0
C813 C 0.09292 0.61771 0.96548 0.0
N814 N 0.97812 0.57071 0.96092 0.0
N815 N 0.06569 0.61671 0.95783 0.0
H816 H 0.52189 0.97773 0.5199 0.0
H817 H 0.44582 0.91429 0.37239 0.0
H818 H 0.53593 0.03388 0.44997 0.0
H819 H 0.39413 0.86935 0.44377 0.0
H820 H 0.48438 0.9565 0.40126 0.0
H821 H 0.47886 0.93541 0.49321 0.0
C822 C 0.51575 0.98122 0.49914 0.0
C823 C 0.53261 0.00936 0.48714 0.0
C824 C 0.46449 0.93746 0.41058 0.0
C825 C 0.4843 0.9613 0.4566 0.0
C826 C 0.44266 0.91346 0.39417 0.0
C827 C 0.41686 0.88863 0.40582 0.0
C828 C 0.46085 0.93628 0.4389 0.0
C829 C 0.41369 0.88838 0.43413 0.0
C830 C 0.49129 0.95715 0.48398 0.0
C831 C 0.52371 0.01265 0.46012 0.0
N832 N 0.43567 0.91181 0.44985 0.0
N833 N 0.5005 0.98888 0.44569 0.0
H834 H 0.62384 0.45723 0.01822 0.0
H835 H 0.53117 0.29324 0.95686 0.0
H836 H 0.56782 0.3796 0.06732 0.0
H837 H 0.57599 0.37257 0.90795 0.0
H838 H 0.54594 0.32376 0.99793 0.0
H839 H 0.60905 0.42587 0.9782 0.0
C840 C 0.60832 0.43357 0.02062 0.0
C841 C 0.59677 0.42113 0.04622 0.0
C842 C 0.55248 0.33444 0.97819 0.0
C843 C 0.5799 0.38484 1.00023 0.0
C844 C 0.54386 0.31703 0.95469 0.0
C845 C 0.5524 0.33032 0.92883 0.0
C846 C 0.56985 0.36538 0.97585 0.0
C847 C 0.56931 0.3613 0.92741 0.0
C848 C 0.59994 0.41561 0.9977 0.0
C849 C 0.5774 0.39019 0.04807 0.0
N850 N 0.5775 0.3777 0.95054 0.0
N851 N 0.56946 0.37309 0.02535 0.0
H852 H 0.02594 0.41053 0.42502 0.0
H853 H 0.17186 0.38943 0.41005 0.0
H854 H 0.06548 0.38256 0.49086 0.0
H855 H 0.14469 0.43404 0.35038 0.0
H856 H 0.12676 0.3784 0.43673 0.0
H857 H 0.06262 0.41028 0.39411 0.0
C858 C 0.04186 0.40372 0.43281 0.0
C859 C 0.04293 0.3968 0.46057 0.0
C860 C 0.13056 0.39044 0.41771 0.0
C861 C 0.08518 0.39686 0.42553 0.0
C862 C 0.1562 0.39663 0.40244 0.0
C863 C 0.16219 0.41293 0.37813 0.0
C864 C 0.11065 0.40047 0.40853 0.0
C865 C 0.14125 0.42188 0.36928 0.0
C866 C 0.063 0.40385 0.41525 0.0
C867 C 0.06427 0.38844 0.46967 0.0
N868 N 0.11648 0.41563 0.38452 0.0
N869 N 0.08473 0.38891 0.45226 0.0
H870 H 0.60311 0.06078 0.02271 0.0
H871 H 0.75202 0.0875 0.94306 0.0
H872 H 0.65364 0.0175 0.04495 0.0
H873 H 0.71436 0.14378 0.936 0.0
H874 H 0.71179 0.05678 0.97582 0.0
H875 H 0.63819 0.08523 0.98515 0.0
C876 C 0.62125 0.05602 0.01947 0.0
C877 C 0.6256 0.03724 0.03726 0.0
C878 C 0.71231 0.07579 0.96697 0.0
C879 C 0.66617 0.06554 0.99432 0.0
C880 C 0.73544 0.09351 0.94842 0.0
C881 C 0.73676 0.11842 0.9367 0.0
C882 C 0.69017 0.08287 0.97376 0.0
C883 C 0.7141 0.12463 0.94409 0.0
C884 C 0.64144 0.07018 0.99809 0.0
C885 C 0.64951 0.03192 0.03189 0.0
N886 N 0.69184 0.10704 0.96211 0.0
N887 N 0.66908 0.0462 0.01104 0.0
H888 H 0.55079 0.58738 0.49345 0.0
H889 H 0.65779 0.75915 0.45799 0.0
H890 H 0.5782 0.65554 0.55307 0.0
H891 H 0.60889 0.69076 0.39668 0.0
H892 H 0.63157 0.72178 0.4936 0.0
H893 H 0.57423 0.62515 0.45802 0.0
C894 C 0.56173 0.61036 0.49904 0.0
C895 C 0.56271 0.6184 0.52622 0.0
C896 C 0.6265 0.715 0.47234 0.0
C897 C 0.58974 0.66183 0.48581 0.0
C898 C 0.64162 0.73626 0.45205 0.0
C899 C 0.63552 0.72802 0.42435 0.0
C900 C 0.60543 0.68525 0.46488 0.0
C901 C 0.61407 0.69811 0.41776 0.0
C902 C 0.57499 0.6319 0.4788 0.0
C903 C 0.57679 0.64845 0.53231 0.0
N904 N 0.59996 0.67781 0.43787 0.0
N905 N 0.59004 0.66914 0.51229 0.0
H906 H 0.63217 0.1846 0.57318 0.0
H907 H 0.50813 0.13971 0.6902 0.0
H908 H 0.55191 0.09601 0.58475 0.0
H909 H 0.59598 0.22474 0.68614 0.0
H910 H 0.52081 0.12475 0.64864 0.0
H911 H 0.61609 0.20125 0.61138 0.0
C912 C 0.61097 0.16872 0.58353 0.0
C913 C 0.5935 0.13882 0.57589 0.0
C914 C 0.53729 0.1467 0.65682 0.0
C915 C 0.57509 0.15763 0.61978 0.0
C916 C 0.52999 0.15529 0.68047 0.0
C917 C 0.55113 0.18344 0.69179 0.0
C918 C 0.56586 0.16647 0.64423 0.0
C919 C 0.57924 0.20265 0.6784 0.0
C920 C 0.60192 0.17818 0.60548 0.0
C921 C 0.56637 0.11916 0.59024 0.0
N922 N 0.58579 0.19381 0.65537 0.0
N923 N 0.55806 0.12888 0.6115 0.0
H924 H 0.49381 0.43873 0.10947 0.0
H925 H 0.43206 0.52088 0.19579 0.0
H926 H 0.54794 0.53326 0.12163 0.0
H927 H 0.39418 0.42716 0.19972 0.0
H928 H 0.47045 0.52623 0.16351 0.0
H929 H 0.4519 0.43468 0.13614 0.0
C930 C 0.49673 0.45872 0.1174 0.0
C931 C 0.52465 0.48636 0.11348 0.0
C932 C 0.4536 0.50451 0.1714 0.0
C933 C 0.4767 0.48178 0.14435 0.0
C934 C 0.43181 0.50143 0.19 0.0
C935 C 0.40973 0.4735 0.20063 0.0
C936 C 0.45321 0.47947 0.16317 0.0
C937 C 0.41027 0.44907 0.19184 0.0
C938 C 0.47282 0.45634 0.13279 0.0
C939 C 0.52692 0.51147 0.12422 0.0
N940 N 0.4316 0.45264 0.17368 0.0
N941 N 0.50336 0.50856 0.13935 0.0
H942 H 0.01044 0.37167 0.60163 0.0
H943 H 0.96501 0.34967 0.75795 0.0
H944 H 0.04148 0.44406 0.6574 0.0
H945 H 0.94225 0.27766 0.70457 0.0
H946 H 0.99533 0.38465 0.72203 0.0
H947 H 0.98809 0.33709 0.63965 0.0
C948 C 0.01287 0.38035 0.62193 0.0
C949 C 0.02771 0.41086 0.62626 0.0
C950 C 0.98391 0.36122 0.7182 0.0
C951 C 0.0018 0.37125 0.66992 0.0
C952 C 0.96643 0.34122 0.73866 0.0
C953 C 0.95081 0.31066 0.73418 0.0
C954 C 0.98566 0.35066 0.69292 0.0
C955 C 0.954 0.30101 0.70896 0.0
C956 C 1.00005 0.36055 0.64364 0.0
C957 C 0.03022 0.42076 0.65305 0.0
N958 N 0.97081 0.32092 0.68921 0.0
N959 N 0.01712 0.401 0.67379 0.0
H960 H 0.6481 0.99653 0.1298 0.0
H961 H 0.74252 0.975 0.25582 0.0
H962 H 0.694 0.05944 0.19585 0.0
H963 H 0.70584 0.91949 0.18396 0.0
H964 H 0.73005 0.00906 0.23278 0.0
H965 H 0.67305 0.9705 0.14799 0.0
C966 C 0.66345 0.00481 0.14823 0.0
C967 C 0.66856 0.02983 0.16167 0.0
C968 C 0.7252 0.98968 0.2219 0.0
C969 C 0.69747 1.00019 0.18265 0.0
C970 C 0.73256 0.97034 0.23494 0.0
C971 C 0.72496 0.94423 0.22184 0.0
C972 C 0.70999 0.98275 0.19564 0.0
C973 C 0.71163 0.93911 0.19497 0.0
C974 C 0.67792 0.99008 0.15851 0.0
C975 C 0.68938 0.04012 0.18503 0.0
N976 N 0.70426 0.958 0.1829 0.0
N977 N 0.70279 0.02501 0.19504 0.0
H978 H 0.62676 0.59553 0.65424 0.0
H979 H 0.71495 0.52071 0.72672 0.0
H980 H 0.61941 0.51784 0.62245 0.0
H981 H 0.72567 0.60118 0.75485 0.0
H982 H 0.68043 0.51928 0.68819 0.0
H983 H 0.66456 0.59871 0.69018 0.0
C984 C 0.6334 0.5793 0.65463 0.0
C985 C 0.61983 0.55633 0.63533 0.0
C986 C 0.69023 0.53719 0.70283 0.0
C987 C 0.66289 0.55959 0.67684 0.0
C988 C 0.70965 0.53786 0.725 0.0
C989 C 0.7229 0.56094 0.74422 0.0
C990 C 0.6839 0.55973 0.69985 0.0
C991 C 0.71596 0.58299 0.74054 0.0
C992 C 0.65494 0.58108 0.67525 0.0
C993 C 0.62941 0.53599 0.63683 0.0
N994 N 0.69688 0.58179 0.71885 0.0
N995 N 0.65015 0.53793 0.65741 0.0
H996 H 0.25134 0.6198 0.08024 0.0
H997 H 0.30625 0.75711 0.17873 0.0
H998 H 0.25926 0.70027 0.05176 0.0
H999 H 0.2854 0.67137 0.20601 0.0
H1000 H 0.29661 0.73988 0.13129 0.0
H1001 H 0.2727 0.64204 0.12531 0.0
C1002 C 0.25795 0.64234 0.08348 0.0
C1003 C 0.25316 0.65811 0.06242 0.0
C1004 C 0.29445 0.72499 0.1477 0.0
C1005 C 0.27735 0.68374 0.11408 0.0
C1006 C 0.29973 0.73472 0.1748 0.0
C1007 C 0.29652 0.71565 0.19651 0.0
C1008 C 0.28593 0.696 0.14226 0.0
C1009 C 0.2886 0.68705 0.19008 0.0
C1010 C 0.27011 0.65504 0.10921 0.0
C1011 C 0.26262 0.68741 0.06749 0.0
N1012 N 0.28345 0.67812 0.16362 0.0
N1013 N 0.27389 0.6992 0.09298 0.0
loop_
_geom_bond_atom_site_label_1
_geom_bond_atom_site_label_2
_geom_bond_distance
_geom_bond_site_symmetry_2
_ccdc_geom_bond_type
Cu0 N1 1.999 1_554 S
Cu0 O6 1.974 1_554 S
Cu0 N11 1.985 . S
Cu0 O20 1.959 . S
N1 Cu0 1.999 1_556 S
N1 C3 1.263 . S
N1 C5 1.389 . S
N2 C3 1.358 . S
N2 C4 1.400 . S
C3 N1 1.263 . S
C3 N2 1.358 . S
C3 H9 0.930 . S
C4 N2 1.400 . S
C4 C5 1.351 . S
C4 H21 0.930 . S
C5 N1 1.389 . S
C5 C4 1.351 . S
C5 H10 0.930 1_556 S
O6 Cu0 1.974 1_556 S
O6 C16 1.282 . S
C7 O8 1.261 . S
C7 O20 1.251 . S
O8 C7 1.261 . S
H9 C3 0.930 . S
H10 C5 0.930 1_554 S
N11 Cu0 1.985 . S
N11 C13 1.335 . S
N11 C14 1.390 . S
N12 C13 1.345 . S
N12 C15 1.336 . S
C13 N11 1.335 . S
C13 N12 1.345 . S
C13 H18 0.930 . S
C14 N11 1.390 . S
C14 C15 1.346 . S
C14 H19 0.905 1_554 S
C15 N12 1.336 . S
C15 C14 1.346 . S
C15 H22 0.929 . S
C16 O6 1.282 . S
C16 O17 1.216 . S
O17 C16 1.216 . S
H18 C13 0.930 . S
H19 C14 0.905 1_556 S
O20 Cu0 1.959 . S
O20 C7 1.251 . S
H21 C4 0.930 . S
H22 C15 0.929 . S
Cu23 N24 1.999 . S
Cu23 O29 1.974 . S
Cu23 N34 1.985 1_565 S
Cu23 O43 1.959 1_565 S
N24 Cu23 1.999 . S
N24 C26 1.263 . S
N24 C28 1.389 . S
N25 C26 1.358 . S
N25 C27 1.400 . S
C26 N24 1.263 . S
C26 N25 1.358 . S
C26 H32 0.930 . S
C27 N25 1.400 . S
C27 C28 1.351 . S
C27 H44 0.930 . S
C28 N24 1.389 . S
C28 C27 1.351 . S
C28 H33 0.930 . S
O29 Cu23 1.974 . S
O29 C39 1.282 . S
C30 O31 1.261 . S
C30 O43 1.251 . S
O31 C30 1.261 . S
H32 C26 0.930 . S
H33 C28 0.930 . S
N34 Cu23 1.985 1_545 S
N34 C36 1.335 . S
N34 C37 1.390 . S
N35 C36 1.345 . S
N35 C38 1.336 . S
C36 N34 1.335 . S
C36 N35 1.345 . S
C36 H41 0.930 . S
C37 N34 1.390 . S
C37 C38 1.346 . S
C37 H42 0.930 . S
C38 N35 1.336 . S
C38 C37 1.346 . S
C38 H45 0.929 . S
C39 O29 1.282 . S
C39 O40 1.216 1_565 S
O40 C39 1.216 1_545 S
H41 C36 0.930 . S
H42 C37 0.930 . S
O43 Cu23 1.959 1_545 S
O43 C30 1.251 . S
H44 C27 0.930 . S
H45 C38 0.929 . S
Cu46 N47 1.999 . S
Cu46 O52 1.974 . S
Cu46 N57 1.985 . S
Cu46 O66 1.959 . S
N47 Cu46 1.999 . S
N47 C49 1.263 . S
N47 C51 1.389 . S
N48 C49 1.358 . S
N48 C50 1.400 . S
C49 N47 1.263 . S
C49 N48 1.358 . S
C49 H55 0.930 . S
C50 N48 1.400 . S
C50 C51 1.351 . S
C50 H67 0.930 . S
C51 N47 1.389 . S
C51 C50 1.351 . S
C51 H56 0.930 . S
O52 Cu46 1.974 . S
O52 C62 1.282 . S
C53 O54 1.261 . S
C53 O66 1.251 . S
O54 C53 1.261 . S
H55 C49 0.930 . S
H56 C51 0.930 . S
N57 Cu46 1.985 . S
N57 C59 1.335 . S
N57 C60 1.390 . S
N58 C59 1.345 . S
N58 C61 1.336 . S
C59 N57 1.335 . S
C59 N58 1.345 . S
C59 H64 0.930 . S
C60 N57 1.390 . S
C60 C61 1.346 . S
C60 H65 0.930 . S
C61 N58 1.336 . S
C61 C60 1.346 . S
C61 H68 0.929 . S
C62 O52 1.282 . S
C62 O63 1.216 . S
O63 C62 1.216 . S
H64 C59 0.930 . S
H65 C60 0.930 . S
O66 Cu46 1.959 . S
O66 C53 1.251 . S
H67 C50 0.930 . S
H68 C61 0.929 . S
Cu69 N70 1.999 1_655 S
Cu69 O75 1.974 1_655 S
Cu69 N80 1.985 . S
Cu69 O89 1.959 . S
N70 Cu69 1.999 1_455 S
N70 C72 1.263 . S
N70 C74 1.389 1_455 S
N71 C72 1.358 . S
N71 C73 1.400 . S
C72 N70 1.263 . S
C72 N71 1.358 . S
C72 H78 0.930 . S
C73 N71 1.400 . S
C73 C74 1.351 1_455 S
C73 H90 0.930 1_455 S
C74 N70 1.389 1_655 S
C74 C73 1.351 1_655 S
C74 H79 0.930 . S
O75 Cu69 1.974 1_455 S
O75 C85 1.282 . S
C76 O77 1.261 1_655 S
C76 O89 1.251 . S
O77 C76 1.261 1_455 S
H78 C72 0.930 . S
H79 C74 0.930 . S
N80 Cu69 1.985 . S
N80 C82 1.335 . S
N80 C83 1.390 . S
N81 C82 1.345 . S
N81 C84 1.336 . S
C82 N80 1.335 . S
C82 N81 1.345 . S
C82 H87 0.930 . S
C83 N80 1.390 . S
C83 C84 1.346 . S
C83 H88 0.930 1_655 S
C84 N81 1.336 . S
C84 C83 1.346 . S
C84 H91 0.929 . S
C85 O75 1.282 . S
C85 O86 1.216 . S
O86 C85 1.216 . S
H87 C82 0.930 . S
H88 C83 0.930 1_455 S
O89 Cu69 1.959 . S
O89 C76 1.251 . S
H90 C73 0.930 1_655 S
H91 C84 0.929 . S
Cu92 N93 1.999 . S
Cu92 O98 1.974 . S
Cu92 N103 1.985 . S
Cu92 O112 1.959 . S
N93 Cu92 1.999 . S
N93 C95 1.263 . S
N93 C97 1.389 . S
N94 C95 1.358 . S
N94 C96 1.400 . S
C95 N93 1.263 . S
C95 N94 1.358 . S
C95 H101 0.930 . S
C96 N94 1.400 . S
C96 C97 1.351 . S
C96 H113 0.930 . S
C97 N93 1.389 . S
C97 C96 1.351 . S
C97 H102 0.930 . S
O98 Cu92 1.974 . S
O98 C108 1.282 . S
C99 O100 1.261 . S
C99 O112 1.251 . S
O100 C99 1.261 . S
H101 C95 0.930 . S
H102 C97 0.930 . S
N103 Cu92 1.985 . S
N103 C105 1.335 . S
N103 C106 1.390 . S
N104 C105 1.345 . S
N104 C107 1.336 . S
C105 N103 1.335 . S
C105 N104 1.345 . S
C105 H110 0.930 . S
C106 N103 1.390 . S
C106 C107 1.346 . S
C106 H111 0.930 . S
C107 N104 1.336 . S
C107 C106 1.346 . S
C107 H114 0.929 . S
C108 O98 1.282 . S
C108 O109 1.216 . S
O109 C108 1.216 . S
H110 C105 0.930 . S
H111 C106 0.930 . S
O112 Cu92 1.959 . S
O112 C99 1.251 . S
H113 C96 0.930 . S
H114 C107 0.929 . S
Cu115 N116 1.999 . S
Cu115 O121 1.974 . S
Cu115 N126 1.985 . S
Cu115 O135 1.959 . S
N116 Cu115 1.999 . S
N116 C118 1.263 . S
N116 C120 1.389 . S
N117 C118 1.358 . S
N117 C119 1.400 . S
C118 N116 1.263 . S
C118 N117 1.358 . S
C118 H124 0.930 . S
C119 N117 1.400 . S
C119 C120 1.351 . S
C119 H136 0.930 . S
C120 N116 1.389 . S
C120 C119 1.351 . S
C120 H125 0.930 . S
O121 Cu115 1.974 . S
O121 C131 1.282 . S
C122 O123 1.261 . S
C122 O135 1.251 . S
O123 C122 1.261 . S
H124 C118 0.930 . S
H125 C120 0.930 . S
N126 Cu115 1.985 . S
N126 C128 1.335 . S
N126 C129 1.390 . S
N127 C128 1.345 . S
N127 C130 1.336 . S
C128 N126 1.335 . S
C128 N127 1.345 . S
C128 H133 0.930 . S
C129 N126 1.390 . S
C129 C130 1.346 . S
C129 H134 0.930 . S
C130 N127 1.336 . S
C130 C129 1.346 . S
C130 H137 0.929 . S
C131 O121 1.282 . S
C131 O132 1.216 . S
O132 C131 1.216 . S
H133 C128 0.930 . S
H134 C129 0.930 . S
O135 Cu115 1.959 . S
O135 C122 1.251 . S
H136 C119 0.930 . S
H137 C130 0.929 . S
H138 O164 0.856 . S
H139 O167 0.854 . S
H140 C175 0.930 . S
H141 C176 0.930 . S
H142 C178 0.930 . S
H143 C179 0.930 . S
H144 C181 0.931 . S
H145 C182 0.930 . S
H146 C184 0.930 . S
H147 C185 0.929 . S
H148 C187 0.930 . S
H149 C188 0.931 . S
H150 C190 0.930 . S
H151 C191 0.929 . S
H152 C193 0.931 . S
H153 C194 0.930 . S
H154 C196 0.930 . S
H155 C197 0.932 . S
H156 C199 0.930 . S
H157 C200 0.929 . S
H158 C202 0.931 . S
H159 C203 0.930 . S
H160 C205 0.929 . S
H161 C206 0.931 . S
H162 C208 0.930 . S
H163 C209 0.929 . S
O164 H138 0.856 . S
O164 C210 1.300 . S
O165 C210 1.209 . S
O166 C211 1.199 . S
O167 H139 0.854 . S
O167 C211 1.297 . S
C168 C169 1.404 . S
C168 C173 1.397 . S
C168 C174 1.492 . S
C169 C168 1.404 . S
C169 C170 1.396 . S
C169 C180 1.492 . S
C170 C169 1.396 . S
C170 C171 1.397 . S
C170 C186 1.509 . S
C171 C170 1.397 . S
C171 C172 1.412 . S
C171 C192 1.485 . S
C172 C171 1.412 . S
C172 C173 1.388 . S
C172 C198 1.490 . S
C173 C168 1.397 . S
C173 C172 1.388 . S
C173 C204 1.519 . S
C174 C168 1.492 . S
C174 C175 1.363 . S
C174 C179 1.390 . S
C175 H140 0.930 . S
C175 C174 1.363 . S
C175 C176 1.372 . S
C176 H141 0.930 . S
C176 C175 1.372 . S
C176 C177 1.383 . S
C177 C176 1.383 . S
C177 C178 1.395 . S
C178 H142 0.930 . S
C178 C177 1.395 . S
C178 C179 1.362 . S
C179 H143 0.930 . S
C179 C174 1.390 . S
C179 C178 1.362 . S
C180 C169 1.492 . S
C180 C181 1.377 . S
C180 C185 1.397 . S
C181 H144 0.931 . S
C181 C180 1.377 . S
C181 C182 1.376 . S
C182 H145 0.930 . S
C182 C181 1.376 . S
C182 C183 1.376 . S
C183 C182 1.376 . S
C183 C184 1.378 . S
C183 C210 1.486 . S
C184 H146 0.930 . S
C184 C183 1.378 . S
C184 C185 1.376 . S
C185 H147 0.929 . S
C185 C180 1.397 . S
C185 C184 1.376 . S
C186 C170 1.509 . S
C186 C187 1.391 . S
C186 C191 1.386 . S
C187 H148 0.930 . S
C187 C186 1.391 . S
C187 C188 1.375 . S
C188 H149 0.931 . S
C188 C187 1.375 . S
C188 C189 1.375 . S
C189 C188 1.375 . S
C189 C190 1.361 . S
C190 H150 0.930 . S
C190 C189 1.361 . S
C190 C191 1.399 . S
C191 H151 0.929 . S
C191 C186 1.386 . S
C191 C190 1.399 . S
C192 C171 1.485 . S
C192 C193 1.394 . S
C192 C197 1.360 . S
C193 H152 0.931 . S
C193 C192 1.394 . S
C193 C194 1.372 . S
C194 H153 0.930 . S
C194 C193 1.372 . S
C194 C195 1.397 . S
C195 C194 1.397 . S
C195 C196 1.390 . S
C195 C211 1.476 . S
C196 H154 0.930 . S
C196 C195 1.390 . S
C196 C197 1.366 . S
C197 H155 0.932 . S
C197 C192 1.360 . S
C197 C196 1.366 . S
C198 C172 1.490 . S
C198 C199 1.380 . S
C198 C203 1.386 . S
C199 H156 0.930 . S
C199 C198 1.380 . S
C199 C200 1.381 . S
C200 H157 0.929 . S
C200 C199 1.381 . S
C200 C201 1.371 . S
C201 C200 1.371 . S
C201 C202 1.380 . S
C202 H158 0.931 . S
C202 C201 1.380 . S
C202 C203 1.387 . S
C203 H159 0.930 . S
C203 C198 1.386 . S
C203 C202 1.387 . S
C204 C173 1.519 . S
C204 C205 1.377 . S
C204 C209 1.361 . S
C205 H160 0.929 . S
C205 C204 1.377 . S
C205 C206 1.386 . S
C206 H161 0.931 . S
C206 C205 1.386 . S
C206 C207 1.363 . S
C207 C206 1.363 . S
C207 C208 1.385 . S
C208 H162 0.930 . S
C208 C207 1.385 . S
C208 C209 1.396 . S
C209 H163 0.929 . S
C209 C204 1.361 . S
C209 C208 1.396 . S
C210 O164 1.300 . S
C210 O165 1.209 . S
C210 C183 1.486 . S
C211 O166 1.199 . S
C211 O167 1.297 . S
C211 C195 1.476 . S
H212 O238 0.856 . S
H213 O241 0.854 . S
H214 C249 0.930 . S
H215 C250 0.930 . S
H216 C252 0.930 1_455 S
H217 C253 0.930 . S
H218 C255 0.931 . S
H219 C256 0.930 . S
H220 C258 0.930 . S
H221 C259 0.929 . S
H222 C261 0.930 . S
H223 C262 0.931 . S
H224 C264 0.930 . S
H225 C265 0.929 . S
H226 C267 0.931 . S
H227 C268 0.930 . S
H228 C270 0.930 . S
H229 C271 0.932 . S
H230 C273 0.930 . S
H231 C274 0.929 . S
H232 C276 0.931 . S
H233 C277 0.930 . S
H234 C279 0.929 . S
H235 C280 0.931 . S
H236 C282 0.930 . S
H237 C283 0.929 . S
O238 H212 0.856 . S
O238 C284 1.300 . S
O239 C284 1.209 . S
O240 C285 1.199 . S
O241 H213 0.854 . S
O241 C285 1.297 . S
C242 C243 1.404 . S
C242 C247 1.397 . S
C242 C248 1.492 . S
C243 C242 1.404 . S
C243 C244 1.396 . S
C243 C254 1.492 . S
C244 C243 1.396 . S
C244 C245 1.397 . S
C244 C260 1.509 . S
C245 C244 1.397 . S
C245 C246 1.412 . S
C245 C266 1.485 . S
C246 C245 1.412 . S
C246 C247 1.388 . S
C246 C272 1.490 . S
C247 C242 1.397 . S
C247 C246 1.388 . S
C247 C278 1.519 . S
C248 C242 1.492 . S
C248 C249 1.363 . S
C248 C253 1.390 . S
C249 H214 0.930 . S
C249 C248 1.363 . S
C249 C250 1.372 . S
C250 H215 0.930 . S
C250 C249 1.372 . S
C250 C251 1.383 . S
C251 C250 1.383 . S
C251 C252 1.395 . S
C252 H216 0.930 1_655 S
C252 C251 1.395 . S
C252 C253 1.362 . S
C253 H217 0.930 . S
C253 C248 1.390 . S
C253 C252 1.362 . S
C254 C243 1.492 . S
C254 C255 1.377 . S
C254 C259 1.397 . S
C255 H218 0.931 . S
C255 C254 1.377 . S
C255 C256 1.376 . S
C256 H219 0.930 . S
C256 C255 1.376 . S
C256 C257 1.376 . S
C257 C256 1.376 . S
C257 C258 1.378 . S
C257 C284 1.486 . S
C258 H220 0.930 . S
C258 C257 1.378 . S
C258 C259 1.376 . S
C259 H221 0.929 . S
C259 C254 1.397 . S
C259 C258 1.376 . S
C260 C244 1.509 . S
C260 C261 1.391 . S
C260 C265 1.386 . S
C261 H222 0.930 . S
C261 C260 1.391 . S
C261 C262 1.375 . S
C262 H223 0.931 . S
C262 C261 1.375 . S
C262 C263 1.375 . S
C263 C262 1.375 . S
C263 C264 1.361 . S
C264 H224 0.930 . S
C264 C263 1.361 . S
C264 C265 1.399 . S
C265 H225 0.929 . S
C265 C260 1.386 . S
C265 C264 1.399 . S
C266 C245 1.485 . S
C266 C267 1.394 . S
C266 C271 1.360 . S
C267 H226 0.931 . S
C267 C266 1.394 . S
C267 C268 1.372 . S
C268 H227 0.930 . S
C268 C267 1.372 . S
C268 C269 1.397 . S
C269 C268 1.397 . S
C269 C270 1.390 . S
C269 C285 1.476 . S
C270 H228 0.930 . S
C270 C269 1.390 . S
C270 C271 1.366 . S
C271 H229 0.932 . S
C271 C266 1.360 . S
C271 C270 1.366 . S
C272 C246 1.490 . S
C272 C273 1.380 . S
C272 C277 1.386 . S
C273 H230 0.930 . S
C273 C272 1.380 . S
C273 C274 1.381 . S
C274 H231 0.929 . S
C274 C273 1.381 . S
C274 C275 1.371 . S
C275 C274 1.371 . S
C275 C276 1.380 . S
C276 H232 0.931 . S
C276 C275 1.380 . S
C276 C277 1.387 . S
C277 H233 0.930 . S
C277 C272 1.386 . S
C277 C276 1.387 . S
C278 C247 1.519 . S
C278 C279 1.377 . S
C278 C283 1.361 . S
C279 H234 0.929 . S
C279 C278 1.377 . S
C279 C280 1.386 . S
C280 H235 0.931 . S
C280 C279 1.386 . S
C280 C281 1.363 . S
C281 C280 1.363 . S
C281 C282 1.385 . S
C282 H236 0.930 . S
C282 C281 1.385 . S
C282 C283 1.396 . S
C283 H237 0.929 . S
C283 C278 1.361 . S
C283 C282 1.396 . S
C284 O238 1.300 . S
C284 O239 1.209 . S
C284 C257 1.486 . S
C285 O240 1.199 . S
C285 O241 1.297 . S
C285 C269 1.476 . S
H286 O312 0.856 . S
H287 O315 0.854 . S
H288 C323 0.930 . S
H289 C324 0.930 . S
H290 C326 0.930 . S
H291 C327 0.930 . S
H292 C329 0.931 . S
H293 C330 0.930 . S
H294 C332 0.930 . S
H295 C333 0.929 . S
H296 C335 0.930 . S
H297 C336 0.931 . S
H298 C338 0.930 . S
H299 C339 0.929 . S
H300 C341 0.931 . S
H301 C342 0.930 . S
H302 C344 0.930 . S
H303 C345 0.932 . S
H304 C347 0.930 . S
H305 C348 0.929 . S
H306 C350 0.931 . S
H307 C351 0.930 . S
H308 C353 0.929 . S
H309 C354 0.931 . S
H310 C356 0.930 . S
H311 C357 0.929 . S
O312 H286 0.856 . S
O312 C358 1.300 . S
O313 C358 1.209 . S
O314 C359 1.199 . S
O315 H287 0.854 . S
O315 C359 1.297 1_545 S
C316 C317 1.404 . S
C316 C321 1.397 . S
C316 C322 1.492 . S
C317 C316 1.404 . S
C317 C318 1.396 . S
C317 C328 1.492 . S
C318 C317 1.396 . S
C318 C319 1.397 . S
C318 C334 1.509 . S
C319 C318 1.397 . S
C319 C320 1.412 . S
C319 C340 1.485 . S
C320 C319 1.412 . S
C320 C321 1.388 . S
C320 C346 1.490 . S
C321 C316 1.397 . S
C321 C320 1.388 . S
C321 C352 1.519 . S
C322 C316 1.492 . S
C322 C323 1.363 . S
C322 C327 1.390 . S
C323 H288 0.930 . S
C323 C322 1.363 . S
C323 C324 1.372 . S
C324 H289 0.930 . S
C324 C323 1.372 . S
C324 C325 1.383 . S
C325 C324 1.383 . S
C325 C326 1.395 . S
C326 H290 0.930 . S
C326 C325 1.395 . S
C326 C327 1.362 . S
C327 H291 0.930 . S
C327 C322 1.390 . S
C327 C326 1.362 . S
C328 C317 1.492 . S
C328 C329 1.377 . S
C328 C333 1.397 . S
C329 H292 0.931 . S
C329 C328 1.377 . S
C329 C330 1.376 . S
C330 H293 0.930 . S
C330 C329 1.376 . S
C330 C331 1.376 . S
C331 C330 1.376 . S
C331 C332 1.378 . S
C331 C358 1.486 . S
C332 H294 0.930 . S
C332 C331 1.378 . S
C332 C333 1.376 . S
C333 H295 0.929 . S
C333 C328 1.397 . S
C333 C332 1.376 . S
C334 C318 1.509 . S
C334 C335 1.391 . S
C334 C339 1.386 . S
C335 H296 0.930 . S
C335 C334 1.391 . S
C335 C336 1.375 . S
C336 H297 0.931 . S
C336 C335 1.375 . S
C336 C337 1.375 . S
C337 C336 1.375 . S
C337 C338 1.361 . S
C338 H298 0.930 . S
C338 C337 1.361 . S
C338 C339 1.399 . S
C339 H299 0.929 . S
C339 C334 1.386 . S
C339 C338 1.399 . S
C340 C319 1.485 . S
C340 C341 1.394 . S
C340 C345 1.360 . S
C341 H300 0.931 . S
C341 C340 1.394 . S
C341 C342 1.372 . S
C342 H301 0.930 . S
C342 C341 1.372 . S
C342 C343 1.397 . S
C343 C342 1.397 . S
C343 C344 1.390 . S
C343 C359 1.476 . S
C344 H302 0.930 . S
C344 C343 1.390 . S
C344 C345 1.366 . S
C345 H303 0.932 . S
C345 C340 1.360 . S
C345 C344 1.366 . S
C346 C320 1.490 . S
C346 C347 1.380 . S
C346 C351 1.386 . S
C347 H304 0.930 . S
C347 C346 1.380 . S
C347 C348 1.381 . S
C348 H305 0.929 . S
C348 C347 1.381 . S
C348 C349 1.371 . S
C349 C348 1.371 . S
C349 C350 1.380 . S
C350 H306 0.931 . S
C350 C349 1.380 . S
C350 C351 1.387 . S
C351 H307 0.930 . S
C351 C346 1.386 . S
C351 C350 1.387 . S
C352 C321 1.519 . S
C352 C353 1.377 . S
C352 C357 1.361 . S
C353 H308 0.929 . S
C353 C352 1.377 . S
C353 C354 1.386 . S
C354 H309 0.931 . S
C354 C353 1.386 . S
C354 C355 1.363 . S
C355 C354 1.363 . S
C355 C356 1.385 . S
C356 H310 0.930 . S
C356 C355 1.385 . S
C356 C357 1.396 . S
C357 H311 0.929 . S
C357 C352 1.361 . S
C357 C356 1.396 . S
C358 O312 1.300 . S
C358 O313 1.209 . S
C358 C331 1.486 . S
C359 O314 1.199 . S
C359 O315 1.297 1_565 S
C359 C343 1.476 . S
H360 O386 0.856 . S
H361 O389 0.854 . S
H362 C397 0.930 . S
H363 C398 0.930 . S
H364 C400 0.930 . S
H365 C401 0.930 . S
H366 C403 0.931 . S
H367 C404 0.930 . S
H368 C406 0.930 . S
H369 C407 0.929 . S
H370 C409 0.930 . S
H371 C410 0.931 . S
H372 C412 0.930 . S
H373 C413 0.929 . S
H374 C415 0.931 . S
H375 C416 0.930 . S
H376 C418 0.930 . S
H377 C419 0.932 . S
H378 C421 0.930 . S
H379 C422 0.929 . S
H380 C424 0.931 . S
H381 C425 0.930 . S
H382 C427 0.929 . S
H383 C428 0.931 . S
H384 C430 0.930 . S
H385 C431 0.929 . S
O386 H360 0.856 . S
O386 C432 1.300 . S
O387 C432 1.209 . S
O388 C433 1.199 . S
O389 H361 0.854 . S
O389 C433 1.297 . S
C390 C391 1.404 . S
C390 C395 1.397 . S
C390 C396 1.492 . S
C391 C390 1.404 . S
C391 C392 1.396 . S
C391 C402 1.492 . S
C392 C391 1.396 . S
C392 C393 1.397 . S
C392 C408 1.509 . S
C393 C392 1.397 . S
C393 C394 1.412 . S
C393 C414 1.485 . S
C394 C393 1.412 . S
C394 C395 1.388 . S
C394 C420 1.490 . S
C395 C390 1.397 . S
C395 C394 1.388 . S
C395 C426 1.519 . S
C396 C390 1.492 . S
C396 C397 1.363 . S
C396 C401 1.390 . S
C397 H362 0.930 . S
C397 C396 1.363 . S
C397 C398 1.372 . S
C398 H363 0.930 . S
C398 C397 1.372 . S
C398 C399 1.383 . S
C399 C398 1.383 . S
C399 C400 1.395 . S
C400 H364 0.930 . S
C400 C399 1.395 . S
C400 C401 1.362 . S
C401 H365 0.930 . S
C401 C396 1.390 . S
C401 C400 1.362 . S
C402 C391 1.492 . S
C402 C403 1.377 . S
C402 C407 1.397 . S
C403 H366 0.931 . S
C403 C402 1.377 . S
C403 C404 1.376 . S
C404 H367 0.930 . S
C404 C403 1.376 . S
C404 C405 1.376 . S
C405 C404 1.376 . S
C405 C406 1.378 . S
C405 C432 1.486 . S
C406 H368 0.930 . S
C406 C405 1.378 . S
C406 C407 1.376 . S
C407 H369 0.929 . S
C407 C402 1.397 . S
C407 C406 1.376 . S
C408 C392 1.509 . S
C408 C409 1.391 . S
C408 C413 1.386 . S
C409 H370 0.930 . S
C409 C408 1.391 . S
C409 C410 1.375 . S
C410 H371 0.931 . S
C410 C409 1.375 . S
C410 C411 1.375 . S
C411 C410 1.375 . S
C411 C412 1.361 . S
C412 H372 0.930 . S
C412 C411 1.361 . S
C412 C413 1.399 . S
C413 H373 0.929 . S
C413 C408 1.386 . S
C413 C412 1.399 . S
C414 C393 1.485 . S
C414 C415 1.394 . S
C414 C419 1.360 . S
C415 H374 0.931 . S
C415 C414 1.394 . S
C415 C416 1.372 1_655 S
C416 H375 0.930 . S
C416 C415 1.372 1_455 S
C416 C417 1.397 . S
C417 C416 1.397 . S
C417 C418 1.390 1_455 S
C417 C433 1.476 . S
C418 H376 0.930 . S
C418 C417 1.390 1_655 S
C418 C419 1.366 . S
C419 H377 0.932 . S
C419 C414 1.360 . S
C419 C418 1.366 . S
C420 C394 1.490 . S
C420 C421 1.380 . S
C420 C425 1.386 . S
C421 H378 0.930 . S
C421 C420 1.380 . S
C421 C422 1.381 . S
C422 H379 0.929 . S
C422 C421 1.381 . S
C422 C423 1.371 . S
C423 C422 1.371 . S
C423 C424 1.380 . S
C424 H380 0.931 . S
C424 C423 1.380 . S
C424 C425 1.387 . S
C425 H381 0.930 . S
C425 C420 1.386 . S
C425 C424 1.387 . S
C426 C395 1.519 . S
C426 C427 1.377 . S
C426 C431 1.361 . S
C427 H382 0.929 . S
C427 C426 1.377 . S
C427 C428 1.386 . S
C428 H383 0.931 . S
C428 C427 1.386 . S
C428 C429 1.363 . S
C429 C428 1.363 . S
C429 C430 1.385 . S
C430 H384 0.930 . S
C430 C429 1.385 . S
C430 C431 1.396 . S
C431 H385 0.929 . S
C431 C426 1.361 . S
C431 C430 1.396 . S
C432 O386 1.300 . S
C432 O387 1.209 . S
C432 C405 1.486 . S
C433 O388 1.199 . S
C433 O389 1.297 . S
C433 C417 1.476 . S
H434 O460 0.856 . S
H435 O463 0.854 . S
H436 C471 0.930 . S
H437 C472 0.930 . S
H438 C474 0.930 . S
H439 C475 0.930 . S
H440 C477 0.931 . S
H441 C478 0.930 . S
H442 C480 0.930 . S
H443 C481 0.929 . S
H444 C483 0.930 . S
H445 C484 0.931 . S
H446 C486 0.930 . S
H447 C487 0.929 . S
H448 C489 0.931 . S
H449 C490 0.930 . S
H450 C492 0.930 . S
H451 C493 0.932 . S
H452 C495 0.930 . S
H453 C496 0.929 . S
H454 C498 0.931 . S
H455 C499 0.930 . S
H456 C501 0.929 . S
H457 C502 0.931 . S
H458 C504 0.930 . S
H459 C505 0.929 . S
O460 H434 0.856 . S
O460 C506 1.300 . S
O461 C506 1.209 . S
O462 C507 1.199 . S
O463 H435 0.854 . S
O463 C507 1.297 . S
C464 C465 1.404 . S
C464 C469 1.397 . S
C464 C470 1.492 . S
C465 C464 1.404 . S
C465 C466 1.396 . S
C465 C476 1.492 . S
C466 C465 1.396 . S
C466 C467 1.397 . S
C466 C482 1.509 . S
C467 C466 1.397 . S
C467 C468 1.412 . S
C467 C488 1.485 . S
C468 C467 1.412 . S
C468 C469 1.388 . S
C468 C494 1.490 . S
C469 C464 1.397 . S
C469 C468 1.388 . S
C469 C500 1.519 . S
C470 C464 1.492 . S
C470 C471 1.363 . S
C470 C475 1.390 . S
C471 H436 0.930 . S
C471 C470 1.363 . S
C471 C472 1.372 . S
C472 H437 0.930 . S
C472 C471 1.372 . S
C472 C473 1.383 . S
C473 C472 1.383 . S
C473 C474 1.395 . S
C474 H438 0.930 . S
C474 C473 1.395 . S
C474 C475 1.362 . S
C475 H439 0.930 . S
C475 C470 1.390 . S
C475 C474 1.362 . S
C476 C465 1.492 . S
C476 C477 1.377 . S
C476 C481 1.397 . S
C477 H440 0.931 . S
C477 C476 1.377 . S
C477 C478 1.376 . S
C478 H441 0.930 . S
C478 C477 1.376 . S
C478 C479 1.376 . S
C479 C478 1.376 . S
C479 C480 1.378 . S
C479 C506 1.486 . S
C480 H442 0.930 . S
C480 C479 1.378 . S
C480 C481 1.376 . S
C481 H443 0.929 . S
C481 C476 1.397 . S
C481 C480 1.376 . S
C482 C466 1.509 . S
C482 C483 1.391 . S
C482 C487 1.386 . S
C483 H444 0.930 . S
C483 C482 1.391 . S
C483 C484 1.375 . S
C484 H445 0.931 . S
C484 C483 1.375 . S
C484 C485 1.375 . S
C485 C484 1.375 . S
C485 C486 1.361 . S
C486 H446 0.930 . S
C486 C485 1.361 . S
C486 C487 1.399 . S
C487 H447 0.929 . S
C487 C482 1.386 . S
C487 C486 1.399 . S
C488 C467 1.485 . S
C488 C489 1.394 . S
C488 C493 1.360 . S
C489 H448 0.931 . S
C489 C488 1.394 . S
C489 C490 1.372 . S
C490 H449 0.930 . S
C490 C489 1.372 . S
C490 C491 1.397 . S
C491 C490 1.397 . S
C491 C492 1.390 . S
C491 C507 1.476 . S
C492 H450 0.930 . S
C492 C491 1.390 . S
C492 C493 1.366 . S
C493 H451 0.932 . S
C493 C488 1.360 . S
C493 C492 1.366 . S
C494 C468 1.490 . S
C494 C495 1.380 . S
C494 C499 1.386 . S
C495 H452 0.930 . S
C495 C494 1.380 . S
C495 C496 1.381 . S
C496 H453 0.929 . S
C496 C495 1.381 . S
C496 C497 1.371 . S
C497 C496 1.371 . S
C497 C498 1.380 . S
C498 H454 0.931 . S
C498 C497 1.380 . S
C498 C499 1.387 . S
C499 H455 0.930 . S
C499 C494 1.386 . S
C499 C498 1.387 . S
C500 C469 1.519 . S
C500 C501 1.377 . S
C500 C505 1.361 . S
C501 H456 0.929 . S
C501 C500 1.377 . S
C501 C502 1.386 . S
C502 H457 0.931 . S
C502 C501 1.386 . S
C502 C503 1.363 . S
C503 C502 1.363 . S
C503 C504 1.385 . S
C504 H458 0.930 . S
C504 C503 1.385 . S
C504 C505 1.396 . S
C505 H459 0.929 . S
C505 C500 1.361 . S
C505 C504 1.396 . S
C506 O460 1.300 . S
C506 O461 1.209 . S
C506 C479 1.486 . S
C507 O462 1.199 . S
C507 O463 1.297 . S
C507 C491 1.476 . S
H508 O534 0.856 . S
H509 O537 0.854 . S
H510 C545 0.930 . S
H511 C546 0.930 . S
H512 C548 0.930 . S
H513 C549 0.930 . S
H514 C551 0.931 . S
H515 C552 0.930 . S
H516 C554 0.930 . S
H517 C555 0.929 . S
H518 C557 0.930 . S
H519 C558 0.931 . S
H520 C560 0.930 . S
H521 C561 0.929 . S
H522 C563 0.931 . S
H523 C564 0.930 . S
H524 C566 0.930 . S
H525 C567 0.932 . S
H526 C569 0.930 . S
H527 C570 0.929 . S
H528 C572 0.931 . S
H529 C573 0.930 . S
H530 C575 0.929 . S
H531 C576 0.931 . S
H532 C578 0.930 . S
H533 C579 0.929 . S
O534 H508 0.856 . S
O534 C580 1.300 . S
O535 C580 1.209 . S
O536 C581 1.199 . S
O537 H509 0.854 . S
O537 C581 1.297 . S
C538 C539 1.404 . S
C538 C543 1.397 . S
C538 C544 1.492 . S
C539 C538 1.404 . S
C539 C540 1.396 . S
C539 C550 1.492 . S
C540 C539 1.396 . S
C540 C541 1.397 . S
C540 C556 1.509 . S
C541 C540 1.397 . S
C541 C542 1.412 . S
C541 C562 1.485 . S
C542 C541 1.412 . S
C542 C543 1.388 . S
C542 C568 1.490 . S
C543 C538 1.397 . S
C543 C542 1.388 . S
C543 C574 1.519 . S
C544 C538 1.492 . S
C544 C545 1.363 . S
C544 C549 1.390 . S
C545 H510 0.930 . S
C545 C544 1.363 . S
C545 C546 1.372 . S
C546 H511 0.930 . S
C546 C545 1.372 . S
C546 C547 1.383 . S
C547 C546 1.383 . S
C547 C548 1.395 . S
C548 H512 0.930 . S
C548 C547 1.395 . S
C548 C549 1.362 . S
C549 H513 0.930 . S
C549 C544 1.390 . S
C549 C548 1.362 . S
C550 C539 1.492 . S
C550 C551 1.377 . S
C550 C555 1.397 . S
C551 H514 0.931 . S
C551 C550 1.377 . S
C551 C552 1.376 . S
C552 H515 0.930 . S
C552 C551 1.376 . S
C552 C553 1.376 . S
C553 C552 1.376 . S
C553 C554 1.378 . S
C553 C580 1.486 . S
C554 H516 0.930 . S
C554 C553 1.378 . S
C554 C555 1.376 . S
C555 H517 0.929 . S
C555 C550 1.397 . S
C555 C554 1.376 . S
C556 C540 1.509 . S
C556 C557 1.391 . S
C556 C561 1.386 . S
C557 H518 0.930 . S
C557 C556 1.391 . S
C557 C558 1.375 . S
C558 H519 0.931 . S
C558 C557 1.375 . S
C558 C559 1.375 . S
C559 C558 1.375 . S
C559 C560 1.361 . S
C560 H520 0.930 . S
C560 C559 1.361 . S
C560 C561 1.399 . S
C561 H521 0.929 . S
C561 C556 1.386 . S
C561 C560 1.399 . S
C562 C541 1.485 . S
C562 C563 1.394 . S
C562 C567 1.360 . S
C563 H522 0.931 . S
C563 C562 1.394 . S
C563 C564 1.372 . S
C564 H523 0.930 . S
C564 C563 1.372 . S
C564 C565 1.397 . S
C565 C564 1.397 . S
C565 C566 1.390 . S
C565 C581 1.476 . S
C566 H524 0.930 . S
C566 C565 1.390 . S
C566 C567 1.366 . S
C567 H525 0.932 . S
C567 C562 1.360 . S
C567 C566 1.366 . S
C568 C542 1.490 . S
C568 C569 1.380 . S
C568 C573 1.386 . S
C569 H526 0.930 . S
C569 C568 1.380 . S
C569 C570 1.381 . S
C570 H527 0.929 . S
C570 C569 1.381 . S
C570 C571 1.371 . S
C571 C570 1.371 . S
C571 C572 1.380 . S
C572 H528 0.931 . S
C572 C571 1.380 . S
C572 C573 1.387 . S
C573 H529 0.930 . S
C573 C568 1.386 . S
C573 C572 1.387 . S
C574 C543 1.519 . S
C574 C575 1.377 . S
C574 C579 1.361 . S
C575 H530 0.929 . S
C575 C574 1.377 . S
C575 C576 1.386 . S
C576 H531 0.931 . S
C576 C575 1.386 . S
C576 C577 1.363 . S
C577 C576 1.363 . S
C577 C578 1.385 . S
C578 H532 0.930 . S
C578 C577 1.385 . S
C578 C579 1.396 . S
C579 H533 0.929 . S
C579 C574 1.361 . S
C579 C578 1.396 . S
C580 O534 1.300 . S
C580 O535 1.209 . S
C580 C553 1.486 . S
C581 O536 1.199 . S
C581 O537 1.297 . S
C581 C565 1.476 . S
H582 C588 0.930 . S
H583 C592 0.930 . S
H584 C597 0.929 . S
H585 C595 0.929 . S
H586 C590 0.929 . S
H587 C596 0.929 . S
C588 H582 0.930 . S
C588 C589 1.367 . S
C588 C596 1.378 . S
C589 C588 1.367 . S
C589 C597 1.433 . S
C590 H586 0.929 . S
C590 C592 1.378 . S
C590 C594 1.350 . S
C591 C594 1.463 . S
C591 C596 1.350 . S
C591 N599 1.427 . S
C592 H583 0.930 . S
C592 C590 1.378 . S
C592 C593 1.367 . S
C593 C592 1.367 . S
C593 C595 1.433 . S
C594 C590 1.350 . S
C594 C591 1.463 . S
C594 N598 1.427 . S
C595 H585 0.929 . S
C595 C593 1.433 . S
C595 N598 1.384 . S
C596 H587 0.929 . S
C596 C588 1.378 . S
C596 C591 1.350 . S
C597 H584 0.929 . S
C597 C589 1.433 . S
C597 N599 1.384 . S
N598 C594 1.427 . S
N598 C595 1.384 . S
N599 C591 1.427 . S
N599 C597 1.384 . S
H600 C606 0.930 . S
H601 C610 0.930 . S
H602 C615 0.929 . S
H603 C613 0.929 . S
H604 C608 0.929 . S
H605 C614 0.929 . S
C606 H600 0.930 . S
C606 C607 1.367 . S
C606 C614 1.378 . S
C607 C606 1.367 . S
C607 C615 1.433 . S
C608 H604 0.929 . S
C608 C610 1.378 . S
C608 C612 1.350 . S
C609 C612 1.463 . S
C609 C614 1.350 . S
C609 N617 1.427 . S
C610 H601 0.930 . S
C610 C608 1.378 . S
C610 C611 1.367 . S
C611 C610 1.367 . S
C611 C613 1.433 . S
C612 C608 1.350 . S
C612 C609 1.463 . S
C612 N616 1.427 . S
C613 H603 0.929 . S
C613 C611 1.433 . S
C613 N616 1.384 . S
C614 H605 0.929 . S
C614 C606 1.378 . S
C614 C609 1.350 . S
C615 H602 0.929 . S
C615 C607 1.433 . S
C615 N617 1.384 . S
N616 C612 1.427 . S
N616 C613 1.384 . S
N617 C609 1.427 . S
N617 C615 1.384 . S
H618 C624 0.930 . S
H619 C628 0.930 . S
H620 C633 0.929 . S
H621 C631 0.929 . S
H622 C626 0.929 . S
H623 C632 0.929 . S
C624 H618 0.930 . S
C624 C625 1.367 . S
C624 C632 1.378 . S
C625 C624 1.367 . S
C625 C633 1.433 . S
C626 H622 0.929 . S
C626 C628 1.378 . S
C626 C630 1.350 . S
C627 C630 1.463 . S
C627 C632 1.350 . S
C627 N635 1.427 . S
C628 H619 0.930 . S
C628 C626 1.378 . S
C628 C629 1.367 . S
C629 C628 1.367 . S
C629 C631 1.433 . S
C630 C626 1.350 . S
C630 C627 1.463 . S
C630 N634 1.427 . S
C631 H621 0.929 . S
C631 C629 1.433 . S
C631 N634 1.384 . S
C632 H623 0.929 . S
C632 C624 1.378 . S
C632 C627 1.350 . S
C633 H620 0.929 . S
C633 C625 1.433 . S
C633 N635 1.384 . S
N634 C630 1.427 . S
N634 C631 1.384 . S
N635 C627 1.427 . S
N635 C633 1.384 . S
H636 C642 0.930 . S
H637 C646 0.930 . S
H638 C651 0.929 . S
H639 C649 0.929 . S
H640 C644 0.929 . S
H641 C650 0.929 . S
C642 H636 0.930 . S
C642 C643 1.367 . S
C642 C650 1.378 . S
C643 C642 1.367 . S
C643 C651 1.433 . S
C644 H640 0.929 . S
C644 C646 1.378 . S
C644 C648 1.350 . S
C645 C648 1.463 . S
C645 C650 1.350 . S
C645 N653 1.427 . S
C646 H637 0.930 . S
C646 C644 1.378 . S
C646 C647 1.367 . S
C647 C646 1.367 . S
C647 C649 1.433 . S
C648 C644 1.350 . S
C648 C645 1.463 . S
C648 N652 1.427 . S
C649 H639 0.929 . S
C649 C647 1.433 . S
C649 N652 1.384 . S
C650 H641 0.929 . S
C650 C642 1.378 . S
C650 C645 1.350 . S
C651 H638 0.929 . S
C651 C643 1.433 . S
C651 N653 1.384 . S
N652 C648 1.427 . S
N652 C649 1.384 . S
N653 C645 1.427 . S
N653 C651 1.384 . S
H654 C660 0.930 . S
H655 C664 0.930 . S
H656 C669 0.929 . S
H657 C667 0.929 . S
H658 C662 0.929 . S
H659 C668 0.929 . S
C660 H654 0.930 . S
C660 C661 1.367 . S
C660 C668 1.378 1_545 S
C661 C660 1.367 . S
C661 C669 1.433 1_545 S
C662 H658 0.929 . S
C662 C664 1.378 . S
C662 C666 1.350 . S
C663 C666 1.463 . S
C663 C668 1.350 . S
C663 N671 1.427 . S
C664 H655 0.930 . S
C664 C662 1.378 . S
C664 C665 1.367 . S
C665 C664 1.367 . S
C665 C667 1.433 . S
C666 C662 1.350 . S
C666 C663 1.463 . S
C666 N670 1.427 . S
C667 H657 0.929 . S
C667 C665 1.433 . S
C667 N670 1.384 . S
C668 H659 0.929 . S
C668 C660 1.378 1_565 S
C668 C663 1.350 . S
C669 H656 0.929 . S
C669 C661 1.433 1_565 S
C669 N671 1.384 . S
N670 C666 1.427 . S
N670 C667 1.384 . S
N671 C663 1.427 . S
N671 C669 1.384 . S
H672 C678 0.930 . S
H673 C682 0.930 . S
H674 C687 0.929 . S
H675 C685 0.929 . S
H676 C680 0.929 . S
H677 C686 0.929 . S
C678 H672 0.930 . S
C678 C679 1.367 . S
C678 C686 1.378 . S
C679 C678 1.367 . S
C679 C687 1.433 . S
C680 H676 0.929 . S
C680 C682 1.378 . S
C680 C684 1.350 . S
C681 C684 1.463 . S
C681 C686 1.350 . S
C681 N689 1.427 . S
C682 H673 0.930 . S
C682 C680 1.378 . S
C682 C683 1.367 . S
C683 C682 1.367 . S
C683 C685 1.433 . S
C684 C680 1.350 . S
C684 C681 1.463 . S
C684 N688 1.427 . S
C685 H675 0.929 . S
C685 C683 1.433 . S
C685 N688 1.384 . S
C686 H677 0.929 . S
C686 C678 1.378 . S
C686 C681 1.350 . S
C687 H674 0.929 . S
C687 C679 1.433 . S
C687 N689 1.384 . S
N688 C684 1.427 . S
N688 C685 1.384 . S
N689 C681 1.427 . S
N689 C687 1.384 . S
H690 C696 0.930 . S
H691 C700 0.930 . S
H692 C705 0.929 . S
H693 C703 0.929 . S
H694 C698 0.929 . S
H695 C704 0.929 . S
C696 H690 0.930 . S
C696 C697 1.367 . S
C696 C704 1.378 . S
C697 C696 1.367 . S
C697 C705 1.433 . S
C698 H694 0.929 . S
C698 C700 1.378 . S
C698 C702 1.350 . S
C699 C702 1.463 . S
C699 C704 1.350 . S
C699 N707 1.427 . S
C700 H691 0.930 . S
C700 C698 1.378 . S
C700 C701 1.367 . S
C701 C700 1.367 . S
C701 C703 1.433 . S
C702 C698 1.350 . S
C702 C699 1.463 . S
C702 N706 1.427 . S
C703 H693 0.929 . S
C703 C701 1.433 . S
C703 N706 1.384 . S
C704 H695 0.929 . S
C704 C696 1.378 . S
C704 C699 1.350 . S
C705 H692 0.929 . S
C705 C697 1.433 . S
C705 N707 1.384 . S
N706 C702 1.427 . S
N706 C703 1.384 . S
N707 C699 1.427 . S
N707 C705 1.384 . S
H708 C714 0.930 . S
H709 C718 0.930 . S
H710 C723 0.929 . S
H711 C721 0.929 . S
H712 C716 0.929 . S
H713 C722 0.929 . S
C714 H708 0.930 . S
C714 C715 1.367 . S
C714 C722 1.378 . S
C715 C714 1.367 . S
C715 C723 1.433 . S
C716 H712 0.929 . S
C716 C718 1.378 . S
C716 C720 1.350 . S
C717 C720 1.463 . S
C717 C722 1.350 1_556 S
C717 N725 1.435 . S
C718 H709 0.930 . S
C718 C716 1.378 . S
C718 C719 1.367 . S
C719 C718 1.367 . S
C719 C721 1.433 . S
C720 C716 1.350 . S
C720 C717 1.463 . S
C720 N724 1.427 . S
C721 H711 0.929 . S
C721 C719 1.433 . S
C721 N724 1.384 . S
C722 H713 0.929 . S
C722 C714 1.378 . S
C722 C717 1.350 1_554 S
C723 H710 0.929 . S
C723 C715 1.433 . S
C723 N725 1.360 1_554 S
N724 C720 1.427 . S
N724 C721 1.384 . S
N725 C717 1.435 . S
N725 C723 1.360 1_556 S
H726 C732 0.930 . S
H727 C736 0.930 . S
H728 C741 0.929 . S
H729 C739 0.929 . S
H730 C734 0.929 . S
H731 C740 0.929 . S
C732 H726 0.930 . S
C732 C733 1.367 . S
C732 C740 1.378 . S
C733 C732 1.367 . S
C733 C741 1.433 . S
C734 H730 0.929 . S
C734 C736 1.378 . S
C734 C738 1.350 . S
C735 C738 1.463 . S
C735 C740 1.350 . S
C735 N743 1.427 . S
C736 H727 0.930 . S
C736 C734 1.378 . S
C736 C737 1.367 . S
C737 C736 1.367 . S
C737 C739 1.433 . S
C738 C734 1.350 . S
C738 C735 1.463 . S
C738 N742 1.427 . S
C739 H729 0.929 . S
C739 C737 1.433 . S
C739 N742 1.384 . S
C740 H731 0.929 . S
C740 C732 1.378 . S
C740 C735 1.350 . S
C741 H728 0.929 . S
C741 C733 1.433 . S
C741 N743 1.384 . S
N742 C738 1.427 . S
N742 C739 1.384 . S
N743 C735 1.427 . S
N743 C741 1.384 . S
H744 C750 0.930 . S
H745 C754 0.930 . S
H746 C759 0.929 . S
H747 C757 0.929 . S
H748 C752 0.929 . S
H749 C758 0.929 1_556 S
C750 H744 0.930 . S
C750 C751 1.367 . S
C750 C758 1.378 . S
C751 C750 1.367 . S
C751 C759 1.433 . S
C752 H748 0.929 . S
C752 C754 1.378 . S
C752 C756 1.350 . S
C753 C756 1.463 . S
C753 C758 1.350 1_556 S
C753 N761 1.427 1_556 S
C754 H745 0.930 . S
C754 C752 1.378 . S
C754 C755 1.367 . S
C755 C754 1.367 . S
C755 C757 1.433 . S
C756 C752 1.350 . S
C756 C753 1.463 . S
C756 N760 1.427 . S
C757 H747 0.929 . S
C757 C755 1.433 . S
C757 N760 1.384 . S
C758 H749 0.929 1_554 S
C758 C750 1.378 . S
C758 C753 1.350 1_554 S
C759 H746 0.929 . S
C759 C751 1.433 . S
C759 N761 1.384 . S
N760 C756 1.427 . S
N760 C757 1.384 . S
N761 C753 1.427 1_554 S
N761 C759 1.384 . S
H762 C768 0.930 . S
H763 C772 0.930 . S
H764 C777 0.929 . S
H765 C775 0.929 . S
H766 C770 0.929 . S
H767 C776 0.929 . S
C768 H762 0.930 . S
C768 C769 1.367 . S
C768 C776 1.378 . S
C769 C768 1.367 . S
C769 C777 1.433 . S
C770 H766 0.929 . S
C770 C772 1.378 . S
C770 C774 1.350 . S
C771 C774 1.463 . S
C771 C776 1.350 . S
C771 N779 1.427 . S
C772 H763 0.930 . S
C772 C770 1.378 . S
C772 C773 1.367 . S
C773 C772 1.367 . S
C773 C775 1.433 . S
C774 C770 1.350 . S
C774 C771 1.463 . S
C774 N778 1.427 . S
C775 H765 0.929 . S
C775 C773 1.433 . S
C775 N778 1.384 . S
C776 H767 0.929 . S
C776 C768 1.378 . S
C776 C771 1.350 . S
C777 H764 0.929 . S
C777 C769 1.433 . S
C777 N779 1.384 . S
N778 C774 1.427 . S
N778 C775 1.384 . S
N779 C771 1.427 . S
N779 C777 1.384 . S
H780 C786 0.930 . S
H781 C790 0.955 . S
H782 C795 0.929 . S
H783 C793 0.929 . S
H784 C788 0.929 . S
H785 C794 0.929 . S
C786 H780 0.930 . S
C786 C787 1.367 . S
C786 C794 1.378 . S
C787 C786 1.367 . S
C787 C795 1.433 . S
C788 H784 0.929 . S
C788 C790 1.373 1_455 S
C788 C792 1.350 . S
C789 C792 1.463 . S
C789 C794 1.350 . S
C789 N797 1.427 . S
C790 H781 0.955 . S
C790 C788 1.373 1_655 S
C790 C791 1.347 1_655 S
C791 C790 1.347 1_455 S
C791 C793 1.433 . S
C792 C788 1.350 . S
C792 C789 1.463 . S
C792 N796 1.427 . S
C793 H783 0.929 . S
C793 C791 1.433 . S
C793 N796 1.384 . S
C794 H785 0.929 . S
C794 C786 1.378 . S
C794 C789 1.350 . S
C795 H782 0.929 . S
C795 C787 1.433 . S
C795 N797 1.384 . S
N796 C792 1.427 . S
N796 C793 1.384 . S
N797 C789 1.427 . S
N797 C795 1.384 . S
H798 C804 0.930 . S
H799 C808 0.913 1_655 S
H800 C813 0.929 . S
H801 C811 0.929 . S
H802 C806 0.929 . S
H803 C812 0.929 . S
C804 H798 0.930 . S
C804 C805 1.367 . S
C804 C812 1.378 . S
C805 C804 1.367 . S
C805 C813 1.433 . S
C806 H802 0.929 . S
C806 C808 1.378 . S
C806 C810 1.350 . S
C807 C810 1.463 . S
C807 C812 1.350 . S
C807 N815 1.427 . S
C808 H799 0.913 1_455 S
C808 C806 1.378 . S
C808 C809 1.367 . S
C809 C808 1.367 . S
C809 C811 1.433 . S
C810 C806 1.350 . S
C810 C807 1.463 . S
C810 N814 1.427 . S
C811 H801 0.929 . S
C811 C809 1.433 . S
C811 N814 1.384 . S
C812 H803 0.929 . S
C812 C804 1.378 . S
C812 C807 1.350 . S
C813 H800 0.929 . S
C813 C805 1.433 . S
C813 N815 1.384 . S
N814 C810 1.427 . S
N814 C811 1.384 . S
N815 C807 1.427 . S
N815 C813 1.384 . S
H816 C822 0.930 . S
H817 C826 0.930 . S
H818 C831 0.929 . S
H819 C829 0.929 . S
H820 C824 0.929 . S
H821 C830 0.929 . S
C822 H816 0.930 . S
C822 C823 1.367 . S
C822 C830 1.378 . S
C823 C822 1.367 . S
C823 C831 1.433 . S
C824 H820 0.929 . S
C824 C826 1.378 . S
C824 C828 1.350 . S
C825 C828 1.463 . S
C825 C830 1.350 . S
C825 N833 1.427 . S
C826 H817 0.930 . S
C826 C824 1.378 . S
C826 C827 1.367 . S
C827 C826 1.367 . S
C827 C829 1.433 . S
C828 C824 1.350 . S
C828 C825 1.463 . S
C828 N832 1.427 . S
C829 H819 0.929 . S
C829 C827 1.433 . S
C829 N832 1.384 . S
C830 H821 0.929 . S
C830 C822 1.378 . S
C830 C825 1.350 . S
C831 H818 0.929 . S
C831 C823 1.433 . S
C831 N833 1.384 . S
N832 C828 1.427 . S
N832 C829 1.384 . S
N833 C825 1.427 . S
N833 C831 1.384 . S
H834 C840 0.930 . S
H835 C844 0.930 . S
H836 C849 0.929 . S
H837 C847 0.929 . S
H838 C842 0.929 . S
H839 C848 0.929 . S
C840 H834 0.930 . S
C840 C841 1.367 1_556 S
C840 C848 1.378 . S
C841 C840 1.367 1_554 S
C841 C849 1.433 . S
C842 H838 0.929 . S
C842 C844 1.378 . S
C842 C846 1.350 . S
C843 C846 1.463 . S
C843 C848 1.350 . S
C843 N851 1.424 . S
C844 H835 0.930 . S
C844 C842 1.378 . S
C844 C845 1.367 . S
C845 C844 1.367 . S
C845 C847 1.433 . S
C846 C842 1.350 . S
C846 C843 1.463 . S
C846 N850 1.427 . S
C847 H837 0.929 . S
C847 C845 1.433 . S
C847 N850 1.384 . S
C848 H839 0.929 . S
C848 C840 1.378 . S
C848 C843 1.350 . S
C849 H836 0.929 . S
C849 C841 1.433 . S
C849 N851 1.386 1_554 S
N850 C846 1.427 . S
N850 C847 1.384 . S
N851 C843 1.424 . S
N851 C849 1.386 1_556 S
H852 C858 0.930 . S
H853 C862 0.930 . S
H854 C867 0.929 . S
H855 C865 0.929 . S
H856 C860 0.929 . S
H857 C866 0.929 . S
C858 H852 0.930 . S
C858 C859 1.367 . S
C858 C866 1.378 . S
C859 C858 1.367 . S
C859 C867 1.433 . S
C860 H856 0.929 . S
C860 C862 1.378 . S
C860 C864 1.350 . S
C861 C864 1.463 . S
C861 C866 1.350 . S
C861 N869 1.427 . S
C862 H853 0.930 . S
C862 C860 1.378 . S
C862 C863 1.367 . S
C863 C862 1.367 . S
C863 C865 1.433 . S
C864 C860 1.350 . S
C864 C861 1.463 . S
C864 N868 1.427 . S
C865 H855 0.929 . S
C865 C863 1.433 . S
C865 N868 1.384 . S
C866 H857 0.929 . S
C866 C858 1.378 . S
C866 C861 1.350 . S
C867 H854 0.929 . S
C867 C859 1.433 . S
C867 N869 1.384 . S
N868 C864 1.427 . S
N868 C865 1.384 . S
N869 C861 1.427 . S
N869 C867 1.384 . S
H870 C876 0.930 . S
H871 C880 0.930 . S
H872 C885 0.929 . S
H873 C883 0.929 . S
H874 C878 0.929 . S
H875 C884 0.929 1_556 S
C876 H870 0.930 . S
C876 C877 1.367 . S
C876 C884 1.378 . S
C877 C876 1.367 . S
C877 C885 1.433 . S
C878 H874 0.929 . S
C878 C880 1.378 . S
C878 C882 1.350 . S
C879 C882 1.455 1_554 S
C879 C884 1.351 . S
C879 N887 1.434 . S
C880 H871 0.930 . S
C880 C878 1.378 . S
C880 C881 1.367 . S
C881 C880 1.367 . S
C881 C883 1.433 . S
C882 C878 1.350 . S
C882 C879 1.455 1_556 S
C882 N886 1.427 . S
C883 H873 0.929 . S
C883 C881 1.433 . S
C883 N886 1.384 . S
C884 H875 0.929 1_554 S
C884 C876 1.378 . S
C884 C879 1.351 . S
C885 H872 0.929 . S
C885 C877 1.433 . S
C885 N887 1.384 . S
N886 C882 1.427 . S
N886 C883 1.384 . S
N887 C879 1.434 . S
N887 C885 1.384 . S
H888 C894 0.930 . S
H889 C898 0.930 . S
H890 C903 0.929 . S
H891 C901 0.929 . S
H892 C896 0.929 . S
H893 C902 0.929 . S
C894 H888 0.930 . S
C894 C895 1.367 . S
C894 C902 1.378 . S
C895 C894 1.367 . S
C895 C903 1.433 . S
C896 H892 0.929 . S
C896 C898 1.378 . S
C896 C900 1.350 . S
C897 C900 1.463 . S
C897 C902 1.350 . S
C897 N905 1.427 . S
C898 H889 0.930 . S
C898 C896 1.378 . S
C898 C899 1.367 . S
C899 C898 1.367 . S
C899 C901 1.433 . S
C900 C896 1.350 . S
C900 C897 1.463 . S
C900 N904 1.427 . S
C901 H891 0.929 . S
C901 C899 1.433 . S
C901 N904 1.384 . S
C902 H893 0.929 . S
C902 C894 1.378 . S
C902 C897 1.350 . S
C903 H890 0.929 . S
C903 C895 1.433 . S
C903 N905 1.384 . S
N904 C900 1.427 . S
N904 C901 1.384 . S
N905 C897 1.427 . S
N905 C903 1.384 . S
H906 C912 0.930 . S
H907 C916 0.930 . S
H908 C921 0.929 . S
H909 C919 0.929 . S
H910 C914 0.929 . S
H911 C920 0.929 . S
C912 H906 0.930 . S
C912 C913 1.367 . S
C912 C920 1.378 . S
C913 C912 1.367 . S
C913 C921 1.433 . S
C914 H910 0.929 . S
C914 C916 1.378 . S
C914 C918 1.350 . S
C915 C918 1.463 . S
C915 C920 1.350 . S
C915 N923 1.427 . S
C916 H907 0.930 . S
C916 C914 1.378 . S
C916 C917 1.367 . S
C917 C916 1.367 . S
C917 C919 1.433 . S
C918 C914 1.350 . S
C918 C915 1.463 . S
C918 N922 1.427 . S
C919 H909 0.929 . S
C919 C917 1.433 . S
C919 N922 1.384 . S
C920 H911 0.929 . S
C920 C912 1.378 . S
C920 C915 1.350 . S
C921 H908 0.929 . S
C921 C913 1.433 . S
C921 N923 1.384 . S
N922 C918 1.427 . S
N922 C919 1.384 . S
N923 C915 1.427 . S
N923 C921 1.384 . S
H924 C930 0.930 . S
H925 C934 0.930 . S
H926 C939 0.929 . S
H927 C937 0.929 . S
H928 C932 0.929 . S
H929 C938 0.929 . S
C930 H924 0.930 . S
C930 C931 1.367 . S
C930 C938 1.378 . S
C931 C930 1.367 . S
C931 C939 1.433 . S
C932 H928 0.929 . S
C932 C934 1.378 . S
C932 C936 1.350 . S
C933 C936 1.463 . S
C933 C938 1.350 . S
C933 N941 1.427 . S
C934 H925 0.930 . S
C934 C932 1.378 . S
C934 C935 1.367 . S
C935 C934 1.367 . S
C935 C937 1.433 . S
C936 C932 1.350 . S
C936 C933 1.463 . S
C936 N940 1.427 . S
C937 H927 0.929 . S
C937 C935 1.433 . S
C937 N940 1.384 . S
C938 H929 0.929 . S
C938 C930 1.378 . S
C938 C933 1.350 . S
C939 H926 0.929 . S
C939 C931 1.433 . S
C939 N941 1.384 . S
N940 C936 1.427 . S
N940 C937 1.384 . S
N941 C933 1.427 . S
N941 C939 1.384 . S
H942 C948 0.930 . S
H943 C952 0.930 . S
H944 C957 0.929 . S
H945 C955 0.929 . S
H946 C950 0.929 . S
H947 C956 0.929 . S
C948 H942 0.930 . S
C948 C949 1.367 . S
C948 C956 1.378 . S
C949 C948 1.367 . S
C949 C957 1.433 . S
C950 H946 0.929 . S
C950 C952 1.378 . S
C950 C954 1.350 . S
C951 C954 1.463 . S
C951 C956 1.350 . S
C951 N959 1.427 . S
C952 H943 0.930 . S
C952 C950 1.378 . S
C952 C953 1.367 . S
C953 C952 1.367 . S
C953 C955 1.433 . S
C954 C950 1.350 . S
C954 C951 1.463 . S
C954 N958 1.427 . S
C955 H945 0.929 . S
C955 C953 1.433 . S
C955 N958 1.384 . S
C956 H947 0.929 . S
C956 C948 1.378 . S
C956 C951 1.350 . S
C957 H944 0.929 . S
C957 C949 1.433 . S
C957 N959 1.384 . S
N958 C954 1.427 . S
N958 C955 1.384 . S
N959 C951 1.427 . S
N959 C957 1.384 . S
H960 C966 0.930 . S
H961 C970 0.930 . S
H962 C975 0.929 . S
H963 C973 0.929 . S
H964 C968 0.929 1_545 S
H965 C974 0.929 . S
C966 H960 0.930 . S
C966 C967 1.367 1_565 S
C966 C974 1.378 . S
C967 C966 1.367 1_545 S
C967 C975 1.433 . S
C968 H964 0.929 1_565 S
C968 C970 1.378 . S
C968 C972 1.350 . S
C969 C972 1.463 . S
C969 C974 1.350 . S
C969 N977 1.427 1_565 S
C970 H961 0.930 . S
C970 C968 1.378 . S
C970 C971 1.367 . S
C971 C970 1.367 . S
C971 C973 1.433 . S
C972 C968 1.350 . S
C972 C969 1.463 . S
C972 N976 1.427 . S
C973 H963 0.929 . S
C973 C971 1.433 . S
C973 N976 1.384 . S
C974 H965 0.929 . S
C974 C966 1.378 . S
C974 C969 1.350 . S
C975 H962 0.929 . S
C975 C967 1.433 . S
C975 N977 1.384 . S
N976 C972 1.427 . S
N976 C973 1.384 . S
N977 C969 1.427 1_545 S
N977 C975 1.384 . S
H978 C984 0.930 . S
H979 C988 0.930 . S
H980 C993 0.929 . S
H981 C991 0.929 . S
H982 C986 0.929 . S
H983 C992 0.929 . S
C984 H978 0.930 . S
C984 C985 1.367 . S
C984 C992 1.378 . S
C985 C984 1.367 . S
C985 C993 1.433 . S
C986 H982 0.929 . S
C986 C988 1.378 . S
C986 C990 1.350 . S
C987 C990 1.463 . S
C987 C992 1.350 . S
C987 N995 1.427 . S
C988 H979 0.930 . S
C988 C986 1.378 . S
C988 C989 1.367 . S
C989 C988 1.367 . S
C989 C991 1.433 . S
C990 C986 1.350 . S
C990 C987 1.463 . S
C990 N994 1.427 . S
C991 H981 0.929 . S
C991 C989 1.433 . S
C991 N994 1.384 . S
C992 H983 0.929 . S
C992 C984 1.378 . S
C992 C987 1.350 . S
C993 H980 0.929 . S
C993 C985 1.433 . S
C993 N995 1.384 . S
N994 C990 1.427 . S
N994 C991 1.384 . S
N995 C987 1.427 . S
N995 C993 1.384 . S
H996 C1002 0.930 . S
H997 C1006 0.930 . S
H998 C1011 0.929 . S
H999 C1009 0.929 . S
H1000 C1004 0.929 . S
H1001 C1010 0.929 . S
C1002 H996 0.930 . S
C1002 C1003 1.367 . S
C1002 C1010 1.378 . S
C1003 C1002 1.367 . S
C1003 C1011 1.433 . S
C1004 H1000 0.929 . S
C1004 C1006 1.378 . S
C1004 C1008 1.350 . S
C1005 C1008 1.463 . S
C1005 C1010 1.350 . S
C1005 N1013 1.427 . S
C1006 H997 0.930 . S
C1006 C1004 1.378 . S
C1006 C1007 1.367 . S
C1007 C1006 1.367 . S
C1007 C1009 1.433 . S
C1008 C1004 1.350 . S
C1008 C1005 1.463 . S
C1008 N1012 1.427 . S
C1009 H999 0.929 . S
C1009 C1007 1.433 . S
C1009 N1012 1.384 . S
C1010 H1001 0.929 . S
C1010 C1002 1.378 . S
C1010 C1005 1.350 . S
C1011 H998 0.929 . S
C1011 C1003 1.433 . S
C1011 N1013 1.384 . S
N1012 C1008 1.427 . S
N1012 C1009 1.384 . S
N1013 C1005 1.427 . S
N1013 C1011 1.384 . S
C589 C7 2.375 . S
C593 C201 2.328 . S
C607 C30 1.314 . S
C611 C275 1.286 . S
C629 C325 1.788 . S
C625 N58 1.807 . S
C647 C411 1.165 . S
C643 N81 1.096 . S
C665 C503 2.021 . S
C661 C99 2.021 . S
C683 C547 1.652 . S
C679 N127 1.674 . S
C697 N25 1.241 . S
C701 C349 1.234 . S
C715 C62 2.463 . S
C719 C429 2.425 . S
C737 C485 1.479 . S
C733 C85 1.447 . S
C755 C571 1.276 . S
C751 N94 1.284 . S
C769 C131 2.427 . S
C773 C177 2.267 . S
C791 C251 1.695 1_455 S
C787 N2 1.662 . S
C809 C423 2.133 1_455 S
C805 C16 2.341 . S
C823 C39 2.021 . S
C827 C473 1.903 . S
C845 C577 2.257 . S
C841 N48 2.250 . S
C859 N71 1.299 . S
C863 C189 1.295 . S
C877 C108 1.952 . S
C881 C263 1.908 . S
C895 N117 2.028 . S
C899 C355 2.040 . S
C913 N35 1.849 . S
C917 C559 1.836 . S
C935 C207 2.143 . S
C931 C53 2.161 . S
C949 C76 2.447 . S
C953 C281 2.348 . S
C967 N104 1.549 . S
C971 C337 1.548 . S
C985 C122 1.810 . S
C989 C399 1.640 . S
C1003 N12 1.772 . S
C1007 C497 1.718 . S
