# Generated by pormake.
# Topology ctn, (3,4)-cn, num edge types: 1
# Building blocks:
#     Node 0, Type 0, BuildingBlock: QEWDON_clean_linker_0, # of connection points: 3
#     Node 1, Type 0, BuildingBlock: QEWDON_clean_linker_0, # of connection points: 3
#     Node 2, Type 0, BuildingBlock: QEWDON_clean_linker_0, # of connection points: 3
#     Node 3, Type 0, BuildingBlock: QEWDON_clean_linker_0, # of connection points: 3
#     Node 4, Type 0, BuildingBlock: QEWDON_clean_linker_0, # of connection points: 3
#     Node 5, Type 0, BuildingBlock: QEWDON_clean_linker_0, # of connection points: 3
#     Node 6, Type 0, BuildingBlock: QEWDON_clean_linker_0, # of connection points: 3
#     Node 7, Type 0, BuildingBlock: QEWDON_clean_linker_0, # of connection points: 3
#     Node 8, Type 0, BuildingBlock: QEWDON_clean_linker_0, # of connection points: 3
#     Node 9, Type 0, BuildingBlock: QEWDON_clean_linker_0, # of connection points: 3
#     Node 10, Type 0, BuildingBlock: QEWDON_clean_linker_0, # of connection points: 3
#     Node 11, Type 0, BuildingBlock: QEWDON_clean_linker_0, # of connection points: 3
#     Node 12, Type 0, BuildingBlock: QEWDON_clean_linker_0, # of connection points: 3
#     Node 13, Type 0, BuildingBlock: QEWDON_clean_linker_0, # of connection points: 3
#     Node 14, Type 0, BuildingBlock: QEWDON_clean_linker_0, # of connection points: 3
#     Node 15, Type 0, BuildingBlock: QEWDON_clean_linker_0, # of connection points: 3
#     Node 16, Type 1, BuildingBlock: KUFVIS_clean_sbu_0, # of connection points: 4
#     Node 17, Type 1, BuildingBlock: KUFVIS_clean_sbu_0, # of connection points: 4
#     Node 18, Type 1, BuildingBlock: KUFVIS_clean_sbu_0, # of connection points: 4
#     Node 19, Type 1, BuildingBlock: KUFVIS_clean_sbu_0, # of connection points: 4
#     Node 20, Type 1, BuildingBlock: KUFVIS_clean_sbu_0, # of connection points: 4
#     Node 21, Type 1, BuildingBlock: KUFVIS_clean_sbu_0, # of connection points: 4
#     Node 22, Type 1, BuildingBlock: KUFVIS_clean_sbu_0, # of connection points: 4
#     Node 23, Type 1, BuildingBlock: KUFVIS_clean_sbu_0, # of connection points: 4
#     Node 24, Type 1, BuildingBlock: KUFVIS_clean_sbu_0, # of connection points: 4
#     Node 25, Type 1, BuildingBlock: KUFVIS_clean_sbu_0, # of connection points: 4
#     Node 26, Type 1, BuildingBlock: KUFVIS_clean_sbu_0, # of connection points: 4
#     Node 27, Type 1, BuildingBlock: KUFVIS_clean_sbu_0, # of connection points: 4
#     Edge 28, Type (0, 1), BuildingBlock: AJUNOK_clean_linker_0, # of connection points: 2
#     Edge 29, Type (0, 1), BuildingBlock: AJUNOK_clean_linker_0, # of connection points: 2
#     Edge 30, Type (0, 1), BuildingBlock: AJUNOK_clean_linker_0, # of connection points: 2
#     Edge 31, Type (0, 1), BuildingBlock: AJUNOK_clean_linker_0, # of connection points: 2
#     Edge 32, Type (0, 1), BuildingBlock: AJUNOK_clean_linker_0, # of connection points: 2
#     Edge 33, Type (0, 1), BuildingBlock: AJUNOK_clean_linker_0, # of connection points: 2
#     Edge 34, Type (0, 1), BuildingBlock: AJUNOK_clean_linker_0, # of connection points: 2
#     Edge 35, Type (0, 1), BuildingBlock: AJUNOK_clean_linker_0, # of connection points: 2
#     Edge 36, Type (0, 1), BuildingBlock: AJUNOK_clean_linker_0, # of connection points: 2
#     Edge 37, Type (0, 1), BuildingBlock: AJUNOK_clean_linker_0, # of connection points: 2
#     Edge 38, Type (0, 1), BuildingBlock: AJUNOK_clean_linker_0, # of connection points: 2
#     Edge 39, Type (0, 1), BuildingBlock: AJUNOK_clean_linker_0, # of connection points: 2
#     Edge 40, Type (0, 1), BuildingBlock: AJUNOK_clean_linker_0, # of connection points: 2
#     Edge 41, Type (0, 1), BuildingBlock: AJUNOK_clean_linker_0, # of connection points: 2
#     Edge 42, Type (0, 1), BuildingBlock: AJUNOK_clean_linker_0, # of connection points: 2
#     Edge 43, Type (0, 1), BuildingBlock: AJUNOK_clean_linker_0, # of connection points: 2
#     Edge 44, Type (0, 1), BuildingBlock: AJUNOK_clean_linker_0, # of connection points: 2
#     Edge 45, Type (0, 1), BuildingBlock: AJUNOK_clean_linker_0, # of connection points: 2
#     Edge 46, Type (0, 1), BuildingBlock: AJUNOK_clean_linker_0, # of connection points: 2
#     Edge 47, Type (0, 1), BuildingBlock: AJUNOK_clean_linker_0, # of connection points: 2
#     Edge 48, Type (0, 1), BuildingBlock: AJUNOK_clean_linker_0, # of connection points: 2
#     Edge 49, Type (0, 1), BuildingBlock: AJUNOK_clean_linker_0, # of connection points: 2
#     Edge 50, Type (0, 1), BuildingBlock: AJUNOK_clean_linker_0, # of connection points: 2
#     Edge 51, Type (0, 1), BuildingBlock: AJUNOK_clean_linker_0, # of connection points: 2
#     Edge 52, Type (0, 1), BuildingBlock: AJUNOK_clean_linker_0, # of connection points: 2
#     Edge 53, Type (0, 1), BuildingBlock: AJUNOK_clean_linker_0, # of connection points: 2
#     Edge 54, Type (0, 1), BuildingBlock: AJUNOK_clean_linker_0, # of connection points: 2
#     Edge 55, Type (0, 1), BuildingBlock: AJUNOK_clean_linker_0, # of connection points: 2
#     Edge 56, Type (0, 1), BuildingBlock: AJUNOK_clean_linker_0, # of connection points: 2
#     Edge 57, Type (0, 1), BuildingBlock: AJUNOK_clean_linker_0, # of connection points: 2
#     Edge 58, Type (0, 1), BuildingBlock: AJUNOK_clean_linker_0, # of connection points: 2
#     Edge 59, Type (0, 1), BuildingBlock: AJUNOK_clean_linker_0, # of connection points: 2
#     Edge 60, Type (0, 1), BuildingBlock: AJUNOK_clean_linker_0, # of connection points: 2
#     Edge 61, Type (0, 1), BuildingBlock: AJUNOK_clean_linker_0, # of connection points: 2
#     Edge 62, Type (0, 1), BuildingBlock: AJUNOK_clean_linker_0, # of connection points: 2
#     Edge 63, Type (0, 1), BuildingBlock: AJUNOK_clean_linker_0, # of connection points: 2
#     Edge 64, Type (0, 1), BuildingBlock: AJUNOK_clean_linker_0, # of connection points: 2
#     Edge 65, Type (0, 1), BuildingBlock: AJUNOK_clean_linker_0, # of connection points: 2
#     Edge 66, Type (0, 1), BuildingBlock: AJUNOK_clean_linker_0, # of connection points: 2
#     Edge 67, Type (0, 1), BuildingBlock: AJUNOK_clean_linker_0, # of connection points: 2
#     Edge 68, Type (0, 1), BuildingBlock: AJUNOK_clean_linker_0, # of connection points: 2
#     Edge 69, Type (0, 1), BuildingBlock: AJUNOK_clean_linker_0, # of connection points: 2
#     Edge 70, Type (0, 1), BuildingBlock: AJUNOK_clean_linker_0, # of connection points: 2
#     Edge 71, Type (0, 1), BuildingBlock: AJUNOK_clean_linker_0, # of connection points: 2
#     Edge 72, Type (0, 1), BuildingBlock: AJUNOK_clean_linker_0, # of connection points: 2
#     Edge 73, Type (0, 1), BuildingBlock: AJUNOK_clean_linker_0, # of connection points: 2
#     Edge 74, Type (0, 1), BuildingBlock: AJUNOK_clean_linker_0, # of connection points: 2
#     Edge 75, Type (0, 1), BuildingBlock: AJUNOK_clean_linker_0, # of connection points: 2
# Relax obj value: 0.131
# Max RMSD: 0.267
# Mean RMSD: 0.158
data_MOF--net-ctn--node1-KUFVIS_clean_sbu_0--node2-QEWDON_clean_linker_0--edge1-AJUNOK_clean_linker_0
_symmetry_space_group_name_H-M    P1
_symmetry_Int_Tables_number       1
_symmetry_cell_setting            triclinic
loop_
_symmetry_equiv_pos_as_xyz
'x, y, z'
_cell_length_a     37.66662
_cell_length_b     39.472127
_cell_length_c     42.454842
_cell_angle_alpha  99.727575
_cell_angle_beta   92.771086
_cell_angle_gamma 96.753829
loop_
_atom_site_label
_atom_site_type_symbol
_atom_site_fract_x
_atom_site_fract_y
_atom_site_fract_z
_atom_type_partial_charge
H0 H 0.12978 0.04099 0.05254 0.0
C1 C 0.11825 0.0345 0.07396 0.0
C2 C 0.12252 1.00255 0.0836 0.0
C3 C 0.10068 0.05923 0.09258 0.0
H4 H 0.10607 0.96939 0.11767 0.0
C5 C 0.10443 0.99427 0.11061 0.0
C6 C 0.08443 0.01837 0.12852 0.0
C7 C 0.08417 0.05101 0.11958 0.0
C8 C 0.10229 0.09517 0.08621 0.0
H9 H 0.07112 0.07068 0.13397 0.0
C10 C 0.08843 0.10254 0.05701 0.0
C11 C 0.08774 0.13725 0.0531 0.0
C12 C 0.11655 0.12267 0.11072 0.0
H13 H 0.12758 0.11759 0.13326 0.0
C14 C 0.11653 0.15692 0.10656 0.0
H15 H 0.07709 0.08158 0.03803 0.0
C16 C 0.10197 0.16421 0.07806 0.0
H17 H 0.10188 0.19103 0.07541 0.0
H18 H 0.12751 0.17788 0.12562 0.0
H19 H 0.427 0.74155 0.24685 0.0
C20 C 0.40319 0.72288 0.24552 0.0
C21 C 0.40301 0.69633 0.26366 0.0
C22 C 0.37225 0.72788 0.2281 0.0
H23 H 0.37232 0.65069 0.27421 0.0
C24 C 0.37253 0.67161 0.26073 0.0
C25 C 0.3415 0.67493 0.24206 0.0
C26 C 0.34158 0.70331 0.22575 0.0
C27 C 0.37147 0.76167 0.21714 0.0
H28 H 0.31726 0.7074 0.213 0.0
C29 C 0.35905 0.76406 0.18582 0.0
C30 C 0.362 0.79661 0.17594 0.0
C31 C 0.38494 0.79228 0.23861 0.0
H32 H 0.39381 0.7914 0.2631 0.0
C33 C 0.3874 0.82436 0.22887 0.0
H34 H 0.34813 0.74088 0.1691 0.0
C35 C 0.37631 0.82653 0.19765 0.0
H36 H 0.37818 0.85177 0.19056 0.0
H37 H 0.39796 0.84762 0.2456 0.0
H38 H 0.07241 0.51004 0.06976 0.0
C39 C 0.04929 0.52265 0.06457 0.0
C40 C 0.03369 0.54254 0.08957 0.0
C41 C 0.03659 0.52017 0.03263 0.0
H42 H 0.99224 0.57542 0.10098 0.0
C43 C 1.00451 0.56001 0.08194 0.0
C44 C 0.99086 0.55712 0.04976 0.0
C45 C 1.0077 0.53758 0.0254 0.0
C46 C 0.05349 0.49925 1.00662 0.0
H47 H 0.99842 0.53596 1.00056 0.0
C48 C 0.05655 0.4642 1.00728 0.0
C49 C 0.06909 0.44316 0.98102 0.0
C50 C 0.06509 0.51379 0.98035 0.0
H51 H 0.06318 0.5408 0.97948 0.0
C52 C 0.07926 0.49357 0.955 0.0
H53 H 0.04795 0.45315 0.02776 0.0
C54 C 0.08096 0.45846 0.95512 0.0
H55 H 0.09044 0.44303 0.93439 0.0
H56 H 0.08812 0.50495 0.93479 0.0
H57 H 0.77097 0.8565 0.24526 0.0
C58 C 0.77626 0.8466 0.22108 0.0
C59 C 0.79961 0.86557 0.20312 0.0
C60 C 0.7602 0.81283 0.20853 0.0
H61 H 0.82048 0.86256 0.15559 0.0
C62 C 0.80222 0.85052 0.17049 0.0
C63 C 0.78201 0.81868 0.15665 0.0
C64 C 0.76149 0.80004 0.17597 0.0
C65 C 0.74859 0.78837 0.23014 0.0
H66 H 0.7484 0.77418 0.16605 0.0
C67 C 0.72576 0.79669 0.25487 0.0
C68 C 0.71746 0.77334 0.27594 0.0
C69 C 0.7628 0.75659 0.22687 0.0
H70 H 0.78108 0.74984 0.20857 0.0
C71 C 0.75435 0.73348 0.24755 0.0
H72 H 0.71468 0.82107 0.25777 0.0
C73 C 0.73182 0.74172 0.27192 0.0
H74 H 0.72524 0.72314 0.28752 0.0
H75 H 0.76541 0.70913 0.24475 0.0
H76 H 0.15114 1.00387 0.52503 0.0
C77 C 0.13141 1.0063 0.50637 0.0
C78 C 0.1374 0.03365 0.48894 0.0
C79 C 0.10193 0.98011 0.49778 0.0
H80 H 0.11848 0.0541 0.4482 0.0
C81 C 0.11315 0.03457 0.46289 0.0
C82 C 0.08368 1.00893 0.45386 0.0
C83 C 0.07802 0.98193 0.47172 0.0
C84 C 0.10206 0.94663 0.50962 0.0
H85 H 0.05656 0.96092 0.46384 0.0
C86 C 0.0782 0.93549 0.53185 0.0
C87 C 0.0795 0.90263 0.541 0.0
C88 C 0.12661 0.92473 0.49695 0.0
H89 H 0.14491 0.93257 0.4798 0.0
C90 C 0.12761 0.89244 0.50577 0.0
H91 H 0.05915 0.9521 0.54191 0.0
C92 C 0.1043 0.88146 0.52754 0.0
H93 H 0.10582 0.85631 0.5342 0.0
H94 H 0.14661 0.87581 0.49567 0.0
H95 H 0.3075 0.67194 0.78775 0.0
C96 C 0.3001 0.68572 0.81031 0.0
C97 C 0.31791 0.68163 0.83904 0.0
C98 C 0.27332 0.70773 0.81015 0.0
H99 H 0.32301 0.69855 0.8905 0.0
C100 C 0.3087 0.70053 0.86826 0.0
C101 C 0.28158 0.72272 0.86856 0.0
C102 C 0.26364 0.7253 0.83936 0.0
C103 C 0.25891 0.71561 0.77928 0.0
H104 H 0.24371 0.74291 0.83914 0.0
C105 C 0.22174 0.71483 0.77185 0.0
C106 C 0.2093 0.72203 0.74202 0.0
C107 C 0.28319 0.7248 0.7571 0.0
H108 H 0.31182 0.72624 0.7624 0.0
C109 C 0.271 0.73291 0.72814 0.0
H110 H 0.20268 0.70767 0.78865 0.0
C111 C 0.23441 0.73154 0.72061 0.0
H112 H 0.22565 0.73798 0.69791 0.0
H113 H 0.29001 0.74025 0.7114 0.0
H114 H 0.99536 0.60695 0.48164 0.0
C115 C 0.97884 0.58643 0.49013 0.0
C116 C 0.97028 0.59086 0.52245 0.0
C117 C 0.96361 0.5567 0.4683 0.0
H118 H 0.93965 0.56852 0.55712 0.0
C119 C 0.94685 0.56498 0.53268 0.0
C120 C 0.93244 0.53473 0.51149 0.0
C121 C 0.94143 0.53072 0.47954 0.0
C122 C 0.96625 0.554 0.43309 0.0
H123 H 0.92951 0.50788 0.46281 0.0
C124 C 0.9994 0.55785 0.41901 0.0
C125 C 1.00033 0.55197 0.38528 0.0
C126 C 0.9344 0.54583 0.41307 0.0
H127 H 0.90855 0.54333 0.42317 0.0
C128 C 0.93539 0.54055 0.37988 0.0
H129 H 0.02418 0.56421 0.43403 0.0
C130 C 0.96809 0.54329 0.36604 0.0
H131 H 0.96825 0.53903 0.34016 0.0
H132 H 0.91068 0.53415 0.36482 0.0
H133 H 0.87163 0.85737 0.80347 0.0
C134 C 0.87136 0.84111 0.82163 0.0
C135 C 0.8936 0.81448 0.81972 0.0
C136 C 0.84857 0.84654 0.84695 0.0
H137 H 0.9108 0.77391 0.84303 0.0
C138 C 0.89302 0.79366 0.84381 0.0
C139 C 0.8696 0.79778 0.86858 0.0
C140 C 0.84747 0.82416 0.86964 0.0
C141 C 0.82665 0.8761 0.85142 0.0
H142 H 0.82871 0.82706 0.88818 0.0
C143 C 0.80633 0.88547 0.82593 0.0
C144 C 0.78403 0.912 0.83232 0.0
C145 C 0.82522 0.89468 0.88266 0.0
H146 H 0.8411 0.88897 0.90262 0.0
C147 C 0.80339 0.92079 0.88877 0.0
H148 H 0.80726 0.87194 0.80162 0.0
C149 C 0.78275 0.92923 0.86389 0.0
H150 H 0.76618 0.94987 0.86919 0.0
H151 H 0.80252 0.93463 0.91296 0.0
H152 H 0.39132 0.36039 0.29628 0.0
C153 C 0.38589 0.34477 0.31462 0.0
C154 C 0.40001 0.31317 0.31324 0.0
C155 C 0.36451 0.35636 0.33936 0.0
H156 H 0.40359 0.26902 0.33689 0.0
C157 C 0.39296 0.29345 0.33773 0.0
C158 C 0.37129 0.30453 0.36269 0.0
C159 C 0.35738 0.33629 0.36322 0.0
C160 C 0.35368 0.39159 0.34256 0.0
H161 H 0.34139 0.34579 0.38258 0.0
C162 C 0.32005 0.39792 0.33001 0.0
C163 C 0.31118 0.4322 0.33364 0.0
C164 C 0.37816 0.41945 0.35841 0.0
H165 H 0.40405 0.41504 0.36807 0.0
C166 C 0.3696 0.45317 0.36189 0.0
H167 H 0.301 0.37642 0.31788 0.0
C168 C 0.33653 0.45954 0.34964 0.0
H169 H 0.3309 0.48613 0.3524 0.0
H170 H 0.38875 0.47452 0.37407 0.0
H171 H 0.56812 1.01624 0.56668 0.0
C172 C 0.54543 0.02927 0.56111 0.0
C173 C 0.53061 0.05057 0.58568 0.0
C174 C 0.5328 0.026 0.52907 0.0
H175 H 0.48928 0.08401 0.59607 0.0
C176 C 0.50161 0.06809 0.57744 0.0
C177 C 0.48814 0.06464 0.54511 0.0
C178 C 0.50457 0.04396 0.52122 0.0
C179 C 0.55004 1.0046 0.50359 0.0
H180 H 0.49556 0.04193 0.49626 0.0
C181 C 0.55368 0.9698 0.5051 0.0
C182 C 0.56907 0.9491 0.48038 0.0
C183 C 0.56265 0.01886 0.4775 0.0
H184 H 0.56035 0.04565 0.47597 0.0
C185 C 0.5785 0.99872 0.45322 0.0
H186 H 0.54368 0.95863 0.5251 0.0
C187 C 0.58144 0.96404 0.45444 0.0
H188 H 0.5923 0.94864 0.43449 0.0
H189 H 0.58796 1.00985 0.43307 0.0
H190 H 0.27526 0.36002 0.74733 0.0
C191 C 0.27715 0.34961 0.72236 0.0
C192 C 0.29609 0.3692 0.70197 0.0
C193 C 0.26307 0.31489 0.71161 0.0
H194 H 0.31302 0.36577 0.65315 0.0
C195 C 0.29717 0.35335 0.66945 0.0
C196 C 0.27915 0.31994 0.65772 0.0
C197 C 0.2626 0.30089 0.67908 0.0
C198 C 0.25592 0.29124 0.73483 0.0
H199 H 0.25141 0.27407 0.67075 0.0
C200 C 0.23151 0.29711 0.75867 0.0
C201 C 0.22644 0.27432 0.78079 0.0
C202 C 0.27534 0.26277 0.73358 0.0
H203 H 0.29475 0.25811 0.71583 0.0
C204 C 0.27037 0.2403 0.7554 0.0
H205 H 0.2165 0.31904 0.75988 0.0
C206 C 0.24599 0.24586 0.77874 0.0
H207 H 0.24193 0.22747 0.79491 0.0
H208 H 0.28535 0.21838 0.75411 0.0
H209 H 0.93355 0.23405 0.74095 0.0
C210 C 0.9094 0.21582 0.73968 0.0
C211 C 0.90878 0.18896 0.75748 0.0
C212 C 0.87846 0.22197 0.72311 0.0
H213 H 0.87777 0.14293 0.76683 0.0
C214 C 0.87805 0.16441 0.75408 0.0
C215 C 0.84706 0.16856 0.73568 0.0
C216 C 0.84748 0.19779 0.72048 0.0
C217 C 0.87805 0.25633 0.71323 0.0
H218 H 0.82321 0.20276 0.70824 0.0
C219 C 0.86372 0.25987 0.68287 0.0
C220 C 0.86618 0.29285 0.67393 0.0
C221 C 0.89326 0.28629 0.7348 0.0
H222 H 0.90352 0.28459 0.7587 0.0
C223 C 0.89551 0.3188 0.72594 0.0
H224 H 0.85151 0.23721 0.66611 0.0
C225 C 0.88236 0.32208 0.69559 0.0
H226 H 0.88401 0.34766 0.68924 0.0
H227 H 0.90742 0.34153 0.7427 0.0
H228 H 0.62543 0.53807 0.55166 0.0
C229 C 0.61435 0.53174 0.57329 0.0
C230 C 0.62129 0.50119 0.5844 0.0
C231 C 0.59459 0.55543 0.59075 0.0
H232 H 0.61147 0.47129 0.62218 0.0
C233 C 0.60538 0.49388 0.6127 0.0
C234 C 0.58303 0.51653 0.62943 0.0
C235 C 0.57806 0.54702 0.6177 0.0
C236 C 0.59617 0.59151 0.58466 0.0
H237 H 0.56159 0.56513 0.62988 0.0
C238 C 0.58397 0.59951 0.55514 0.0
C239 C 0.58645 0.6344 0.55092 0.0
C240 C 0.61084 0.61858 0.60944 0.0
H241 H 0.62061 0.61306 0.63223 0.0
C242 C 0.61351 0.65293 0.60507 0.0
H243 H 0.57249 0.57895 0.53586 0.0
C244 C 0.60145 0.66084 0.576 0.0
H245 H 0.60355 0.68775 0.57312 0.0
H246 H 0.62496 0.67351 0.6243 0.0
H247 H 0.64922 0.50085 0.0215 0.0
C248 C 0.6292 0.50392 1.00333 0.0
C249 C 0.63501 0.53191 0.98669 0.0
C250 C 0.59949 0.47801 0.9945 0.0
H251 H 0.61539 0.55453 0.94763 0.0
C252 C 0.61021 0.53416 0.96149 0.0
C253 C 0.58037 0.50887 0.95229 0.0
C254 C 0.57518 0.4809 0.96907 0.0
C255 C 0.59961 0.44389 1.00518 0.0
H256 H 0.55351 0.46015 0.96096 0.0
C257 C 0.57597 0.43194 0.02724 0.0
C258 C 0.57687 0.39833 0.03488 0.0
C259 C 0.62369 0.42213 0.99134 0.0
H260 H 0.64183 0.43059 0.97433 0.0
C261 C 0.62436 0.38916 0.99873 0.0
H262 H 0.55731 0.44844 0.03822 0.0
C263 C 0.60116 0.37732 0.0202 0.0
H264 H 0.60246 0.35165 0.02574 0.0
H265 H 0.64299 0.37265 0.98773 0.0
H266 H 0.81129 0.16649 0.29267 0.0
C267 C 0.80407 0.18138 0.31478 0.0
C268 C 0.82128 0.17787 0.34395 0.0
C269 C 0.77808 0.20404 0.31357 0.0
H270 H 0.82576 0.19617 0.39527 0.0
C271 C 0.81203 0.19783 0.37267 0.0
C272 C 0.78545 0.22049 0.37196 0.0
C273 C 0.76842 0.22278 0.34229 0.0
C274 C 0.76403 0.21084 0.28209 0.0
H275 H 0.74908 0.24088 0.34138 0.0
C276 C 0.72745 0.21402 0.27573 0.0
C277 C 0.71555 0.2221 0.24617 0.0
C278 C 0.78812 0.21566 0.25843 0.0
H279 H 0.81642 0.21411 0.26274 0.0
C280 C 0.77627 0.2234 0.22919 0.0
H281 H 0.70845 0.21045 0.29363 0.0
C282 C 0.7403 0.22665 0.22307 0.0
H283 H 0.73168 0.23259 0.20012 0.0
H284 H 0.79513 0.22711 0.21124 0.0
H285 H 0.50234 0.10188 0.97587 0.0
C286 C 0.48472 0.08211 0.98434 0.0
C287 C 0.47533 0.0875 0.01644 0.0
C288 C 0.46888 0.05253 0.9626 0.0
H289 H 0.44175 0.06746 0.05043 0.0
C290 C 0.45019 0.06284 0.02642 0.0
C291 C 0.43553 0.03245 1.00559 0.0
C292 C 0.44551 0.02739 0.9739 0.0
C293 C 0.47215 0.04929 0.92735 0.0
H294 H 0.43341 1.00449 0.95736 0.0
C295 C 0.50552 0.05357 0.91359 0.0
C296 C 0.5069 0.04769 0.87986 0.0
C297 C 0.44059 0.04069 0.90695 0.0
H298 H 0.41455 0.03803 0.9167 0.0
C299 C 0.44202 0.03536 0.87382 0.0
H300 H 0.53011 0.06034 0.92885 0.0
C301 C 0.47489 0.03853 0.86034 0.0
H302 H 0.47533 0.03427 0.83447 0.0
H303 H 0.4175 0.02864 0.85851 0.0
Mn304 Mn 0.27245 0.86438 0.02626 0.0
Mn305 Mn 0.26479 0.8959 0.95831 0.0
C306 C 0.25505 0.8265 0.9779 0.0
C307 C 0.30315 0.84161 0.06503 0.0
C308 C 0.21735 0.91125 1.01405 0.0
O309 O 0.30494 0.91189 0.0355 0.0
O310 O 0.30569 0.92421 0.98511 0.0
C311 C 0.33159 0.88178 0.92743 0.0
N312 N 0.29515 0.87691 0.92692 0.0
C313 C 0.29085 0.83963 0.87543 0.0
C314 C 0.32833 0.84426 0.87541 0.0
C315 C 0.34878 0.8654 0.90154 0.0
C316 C 0.27521 0.85663 0.9019 0.0
H317 H 0.3474 0.89795 0.94749 0.0
C318 C 0.31733 0.92965 1.01467 0.0
O319 O 0.27558 0.85762 0.07126 0.0
O320 O 0.31436 0.84003 0.03638 0.0
N321 N 0.22604 0.86872 0.93102 0.0
C322 C 0.19033 0.86528 0.93558 0.0
C323 C 0.16621 0.84429 0.91195 0.0
C324 C 0.17901 0.8271 0.88388 0.0
C325 C 0.21587 0.83098 0.87973 0.0
C326 C 0.23862 0.85233 0.90404 0.0
H327 H 0.18029 0.87844 0.95705 0.0
O328 O 0.24572 0.81795 1.00487 0.0
O329 O 0.27203 0.85743 0.98052 0.0
O330 O 0.22645 0.88744 0.02818 0.0
O331 O 0.23171 0.91809 0.9888 0.0
C332 C 0.23095 0.81414 0.8526 0.0
C333 C 0.26843 0.8184 0.85048 0.0
H334 H 0.34169 0.83153 0.85556 0.0
H335 H 0.37772 0.869 0.90175 0.0
H336 H 0.1378 0.84133 0.91539 0.0
H337 H 0.16033 0.81077 0.8658 0.0
H338 H 0.214 0.7975 0.83339 0.0
H339 H 0.27974 0.80493 0.8297 0.0
Mn340 Mn 0.17076 0.53828 0.25816 0.0
Mn341 Mn 0.15376 0.62109 0.26527 0.0
C342 C 0.21124 0.57973 0.24172 0.0
C343 C 0.19775 0.49686 0.28177 0.0
C344 C 0.11719 0.5632 0.21282 0.0
O345 O 0.13097 0.54048 0.28936 0.0
O346 O 0.12511 0.59739 0.29545 0.0
C347 C 0.18612 0.64682 0.33125 0.0
N348 N 0.18443 0.64901 0.29955 0.0
C349 C 0.23172 0.69695 0.30838 0.0
C350 C 0.23328 0.69576 0.34123 0.0
C351 C 0.21048 0.67047 0.35268 0.0
C352 C 0.20654 0.67299 0.28823 0.0
H353 H 0.1693 0.62694 0.34007 0.0
C354 C 0.11748 0.56719 0.30263 0.0
O355 O 0.1735 0.48729 0.25804 0.0
O356 O 0.20494 0.52976 0.29218 0.0
N357 N 0.18035 0.64697 0.23786 0.0
C358 C 0.17643 0.64387 0.20538 0.0
C359 C 0.19809 0.66658 0.18999 0.0
C360 C 0.22352 0.69224 0.20813 0.0
C361 C 0.22694 0.69507 0.24153 0.0
C362 C 0.20432 0.67198 0.25558 0.0
H363 H 0.15711 0.6241 0.19127 0.0
O364 O 0.21185 0.54711 0.23089 0.0
O365 O 0.187 0.58674 0.26165 0.0
O366 O 0.13401 0.53892 0.22036 0.0
O367 O 0.12202 0.5942 0.22869 0.0
C368 C 0.25228 0.71956 0.26138 0.0
C369 C 0.25472 0.72046 0.29477 0.0
H370 H 0.25236 0.71367 0.35777 0.0
H371 H 0.21196 0.66897 0.37792 0.0
H372 H 0.19535 0.66417 0.16419 0.0
H373 H 0.24047 0.70944 0.19614 0.0
H374 H 0.27028 0.7376 0.25117 0.0
H375 H 0.27462 0.73911 0.30973 0.0
Mn376 Mn 0.82348 0.66224 1.00912 0.0
Mn377 Mn 0.75149 0.68811 0.97303 0.0
C378 C 0.76598 0.63142 1.00829 0.0
C379 C 0.87348 0.63213 1.01436 0.0
C380 C 0.78674 0.72524 0.03686 0.0
O381 O 0.84698 0.6929 0.97889 0.0
O382 O 0.79655 0.70808 0.95687 0.0
C383 C 0.75648 0.65279 0.90636 0.0
N384 N 0.73751 0.65851 0.93282 0.0
C385 C 0.68452 0.62486 0.90463 0.0
C386 C 0.70349 0.61864 0.87706 0.0
C387 C 0.73972 0.63247 0.87801 0.0
C388 C 0.70283 0.64487 0.93231 0.0
H389 H 0.78408 0.66387 0.90685 0.0
C390 C 0.83067 0.70893 0.95982 0.0
O391 O 0.87003 0.66098 0.03271 0.0
O392 O 0.84847 0.62113 0.99138 0.0
N393 N 0.70604 0.67056 0.98605 0.0
C394 C 0.69187 0.67818 1.01495 0.0
C395 C 0.65614 0.66532 0.01837 0.0
C396 C 0.63517 0.64544 0.99189 0.0
C397 C 0.65024 0.63836 0.96231 0.0
C398 C 0.68614 0.65131 0.9605 0.0
H399 H 0.70775 0.69384 0.03525 0.0
O400 O 0.79044 0.6306 0.0307 0.0
O401 O 0.77545 0.65075 0.98739 0.0
O402 O 0.81036 0.70499 0.03764 0.0
O403 O 0.76234 0.72097 1.01418 0.0
C404 C 0.63097 0.61919 0.93446 0.0
C405 C 0.64816 0.61207 0.90574 0.0
H406 H 0.69055 0.60319 0.85509 0.0
H407 H 0.75458 0.62777 0.85686 0.0
H408 H 0.64472 0.67095 0.04129 0.0
H409 H 0.60755 0.63576 0.99454 0.0
H410 H 0.60295 0.60963 0.93492 0.0
H411 H 0.63315 0.59678 0.88466 0.0
Mn412 Mn 0.94749 0.02763 0.28782 0.0
Mn413 Mn 0.96814 0.94511 0.27492 0.0
C414 C 0.90827 0.98288 0.25668 0.0
C415 C 0.91956 0.07385 0.31595 0.0
C416 C 1.00235 1.0007 0.24058 0.0
O417 O 0.98634 0.0284 0.32454 0.0
O418 O 0.995 0.97217 0.31415 0.0
C419 C 0.93986 0.91918 0.3315 0.0
N420 N 0.93989 0.91673 0.29911 0.0
C421 C 0.90022 0.86304 0.29053 0.0
C422 C 0.89986 0.86495 0.3238 0.0
C423 C 0.91964 0.89323 0.34436 0.0
C424 C 0.92095 0.88963 0.27912 0.0
H425 H 0.95539 0.9406 0.34742 0.0
C426 C 1.00102 1.00245 0.33139 0.0
O427 O 0.9457 0.07913 0.29783 0.0
O428 O 0.91118 0.04191 0.31945 0.0
N429 N 0.94315 0.91617 0.23791 0.0
C430 C 0.94625 0.91827 0.20642 0.0
C431 C 0.92719 0.89257 0.18275 0.0
C432 C 0.90553 0.86481 0.19168 0.0
C433 C 0.90301 0.86299 0.22419 0.0
C434 C 0.92251 0.88944 0.24672 0.0
H435 H 0.96302 0.93945 0.19939 0.0
O436 O 0.90725 1.0148 0.25328 0.0
O437 O 0.93238 0.97796 0.2778 0.0
O438 O 0.98483 0.02484 0.25321 0.0
O439 O 0.99895 0.97063 0.24805 0.0
C440 C 0.88172 0.83611 0.23511 0.0
C441 C 0.88043 0.83607 0.26826 0.0
H442 H 0.88421 0.84506 0.33382 0.0
H443 H 0.91942 0.89493 0.37005 0.0
H444 H 0.92923 0.8941 0.15768 0.0
H445 H 0.89092 0.84509 0.17339 0.0
H446 H 0.86612 0.81544 0.21822 0.0
H447 H 0.86388 0.81534 0.27638 0.0
Mn448 Mn 0.32125 0.16993 0.50432 0.0
Mn449 Mn 0.24394 0.19115 0.47316 0.0
C450 C 0.2657 0.13648 0.50719 0.0
C451 C 0.3729 0.14144 0.50749 0.0
C452 C 0.28162 0.22971 0.5353 0.0
O453 O 0.34015 0.20107 0.47216 0.0
O454 O 0.28639 0.21394 0.45571 0.0
C455 C 0.24802 0.157 0.40592 0.0
N456 N 0.22975 0.16174 0.4329 0.0
C457 C 0.17715 0.1263 0.40581 0.0
C458 C 0.19537 0.12106 0.37771 0.0
C459 C 0.23104 0.13628 0.37784 0.0
C460 C 0.19567 0.14668 0.4332 0.0
H461 H 0.27524 0.16909 0.40578 0.0
C462 C 0.32057 0.21682 0.45516 0.0
O463 O 0.36985 0.17068 0.52541 0.0
O464 O 0.34691 0.12964 0.48559 0.0
N465 N 0.20033 0.17079 0.48739 0.0
C466 C 0.18732 0.1767 0.51695 0.0
C467 C 0.15238 0.16224 0.52122 0.0
C468 C 0.13089 0.14265 0.49492 0.0
C469 C 0.14472 0.13734 0.46465 0.0
C470 C 0.17997 0.15176 0.462 0.0
H471 H 0.20358 0.19214 0.53712 0.0
O472 O 0.29211 0.13742 0.52825 0.0
O473 O 0.27196 0.15566 0.48558 0.0
O474 O 0.30788 0.21225 0.5336 0.0
O475 O 0.25493 0.22322 0.51465 0.0
C476 C 0.12496 0.11827 0.43701 0.0
C477 C 0.14131 0.11226 0.40772 0.0
H478 H 0.18224 0.10539 0.35591 0.0
H479 H 0.24529 0.13234 0.35625 0.0
H480 H 0.14194 0.16642 0.54468 0.0
H481 H 0.10387 0.13171 0.49826 0.0
H482 H 0.09734 0.1075 0.43815 0.0
H483 H 0.12609 0.09678 0.38684 0.0
Mn484 Mn 0.44408 0.52986 0.78632 0.0
Mn485 Mn 0.4602 0.44598 0.77682 0.0
C486 C 0.40374 0.48594 0.75555 0.0
C487 C 0.41697 0.57797 0.81201 0.0
C488 C 0.49782 0.4977 0.74 0.0
O489 O 0.48085 0.5307 0.82428 0.0
O490 O 0.48921 0.47439 0.81459 0.0
C491 C 0.43024 0.42811 0.83609 0.0
N492 N 0.43155 0.42132 0.80366 0.0
C493 C 0.3906 0.36886 0.79955 0.0
C494 C 0.38899 0.37521 0.83293 0.0
C495 C 0.40879 0.40503 0.85125 0.0
C496 C 0.41258 0.39271 0.7858 0.0
H497 H 0.44548 0.45093 0.85029 0.0
C498 C 0.49529 0.50488 0.83154 0.0
O499 O 0.44414 0.58175 0.79466 0.0
O500 O 0.40713 0.54653 0.81618 0.0
N501 N 0.43346 0.415 0.74183 0.0
C502 C 0.43374 0.4154 0.70983 0.0
C503 C 0.41404 0.38818 0.68803 0.0
C504 C 0.3941 0.36095 0.69939 0.0
C505 C 0.39345 0.36152 0.73245 0.0
C506 C 0.4139 0.38916 0.75301 0.0
H507 H 0.44815 0.43678 0.70109 0.0
O508 O 0.40517 0.51763 0.75073 0.0
O509 O 0.42638 0.48055 0.77772 0.0
O510 O 0.48343 0.52392 0.75334 0.0
O511 O 0.49081 0.46771 0.74731 0.0
C512 C 0.37207 0.33657 0.7458 0.0
C513 C 0.37058 0.34028 0.77933 0.0
H514 H 0.37233 0.35757 0.8447 0.0
H515 H 0.40754 0.41018 0.877 0.0
H516 H 0.41392 0.38835 0.66257 0.0
H517 H 0.37861 0.34021 0.68262 0.0
H518 H 0.35582 0.315 0.73047 0.0
H519 H 0.35335 0.3214 0.78928 0.0
Mn520 Mn 0.77187 0.36308 0.52768 0.0
Mn521 Mn 0.76505 0.39509 0.46004 0.0
C522 C 0.7553 0.32539 0.4791 0.0
C523 C 0.80234 0.3398 0.56607 0.0
C524 C 0.71701 0.41015 0.51547 0.0
O525 O 0.80398 0.41068 0.53758 0.0
O526 O 0.80554 0.42348 0.48739 0.0
C527 C 0.83236 0.3815 0.42987 0.0
N528 N 0.79591 0.37637 0.42898 0.0
C529 C 0.79246 0.33862 0.3778 0.0
C530 C 0.82996 0.34352 0.37815 0.0
C531 C 0.84999 0.36504 0.40432 0.0
C532 C 0.77637 0.35578 0.40389 0.0
H533 H 0.84786 0.39789 0.45 0.0
C534 C 0.81659 0.42877 0.5171 0.0
O535 O 0.77474 0.35571 0.57252 0.0
O536 O 0.81381 0.33885 0.53758 0.0
N537 N 0.7267 0.36781 0.43233 0.0
C538 C 0.69091 0.36417 0.43652 0.0
C539 C 0.66716 0.34282 0.41281 0.0
C540 C 0.68043 0.32541 0.38507 0.0
C541 C 0.71737 0.32949 0.38131 0.0
C542 C 0.73972 0.35127 0.40565 0.0
H543 H 0.68053 0.37742 0.45777 0.0
O544 O 0.74548 0.31668 0.50587 0.0
O545 O 0.77207 0.35646 0.48204 0.0
O546 O 0.72581 0.38609 0.52943 0.0
O547 O 0.73151 0.417 0.49027 0.0
C548 C 0.73292 0.31239 0.35458 0.0
C549 C 0.77045 0.31693 0.35284 0.0
H550 H 0.84366 0.3307 0.35859 0.0
H551 H 0.87895 0.36885 0.40483 0.0
H552 H 0.6387 0.33968 0.41596 0.0
H553 H 0.66205 0.30877 0.36696 0.0
H554 H 0.71631 0.29536 0.33539 0.0
H555 H 0.78213 0.30329 0.33235 0.0
Mn556 Mn 0.6718 0.03651 0.74732 0.0
Mn557 Mn 0.65928 0.12072 0.76067 0.0
C558 C 0.71272 0.07777 0.73123 0.0
C559 C 0.6989 0.99188 0.76553 0.0
C560 C 0.61745 0.06748 0.70721 0.0
O561 O 0.63512 0.03851 0.78139 0.0
O562 O 0.63064 0.09577 0.7901 0.0
C563 C 0.69466 0.14039 0.82619 0.0
N564 N 0.6923 0.14489 0.79508 0.0
C565 C 0.74224 0.19025 0.80497 0.0
C566 C 0.74473 0.18653 0.83724 0.0
C567 C 0.72089 0.16141 0.84785 0.0
C568 C 0.71527 0.16884 0.78456 0.0
H569 H 0.67688 0.12071 0.83436 0.0
C570 C 0.62276 0.06514 0.79629 0.0
O571 O 0.67188 0.98465 0.74418 0.0
O572 O 0.70837 0.02421 0.77719 0.0
N573 N 0.68613 0.14772 0.73426 0.0
C574 C 0.68121 0.14708 0.70213 0.0
C575 C 0.70345 0.17013 0.68757 0.0
C576 C 0.7306 0.19353 0.70613 0.0
C577 C 0.7352 0.19371 0.73913 0.0
C578 C 0.71192 0.17043 0.75239 0.0
H579 H 0.66072 0.12889 0.68766 0.0
O580 O 0.7107 0.0455 0.71786 0.0
O581 O 0.69024 0.08457 0.7529 0.0
O582 O 0.63256 0.04132 0.71276 0.0
O583 O 0.6252 0.09777 0.72417 0.0
C584 C 0.76234 0.21569 0.75927 0.0
C585 C 0.76592 0.2139 0.79215 0.0
H586 H 0.76521 0.20241 0.85393 0.0
H587 H 0.72296 0.15804 0.87262 0.0
H588 H 0.69986 0.16969 0.66206 0.0
H589 H 0.74797 0.21099 0.69474 0.0
H590 H 0.78084 0.23383 0.74967 0.0
H591 H 0.78717 0.23062 0.80732 0.0
Mn592 Mn 0.06746 0.23726 0.89434 0.0
Mn593 Mn 0.98483 0.23891 0.92121 0.0
C594 C 1.01776 0.20724 0.86301 0.0
C595 C 0.11467 0.25964 0.86727 0.0
C596 C 0.03974 0.19762 0.94611 0.0
O597 O 0.07393 0.28023 0.9295 0.0
O598 O 1.01706 0.28015 0.94362 0.0
C599 C 0.96526 0.30148 0.89816 0.0
N600 N 0.95834 0.26692 0.8987 0.0
C601 C 0.90437 0.26193 0.86466 0.0
C602 C 0.91084 0.29747 0.86385 0.0
C603 C 0.94148 0.31731 0.88063 0.0
C604 C 0.92895 0.24759 0.88266 0.0
H605 H 0.9888 0.31689 0.91091 0.0
C606 C 0.04975 0.29407 0.94545 0.0
O607 O 0.11972 0.24082 0.88896 0.0
O608 O 0.08217 0.26609 0.86169 0.0
N609 N 0.95112 0.20077 0.9001 0.0
C610 C 0.95045 0.16637 0.90097 0.0
C611 C 0.92242 0.14269 0.88402 0.0
C612 C 0.89529 0.15465 0.86656 0.0
C613 C 0.89658 0.19019 0.86603 0.0
C614 C 0.92518 0.21254 0.8833 0.0
H615 H 0.97128 0.15708 0.91433 0.0
O616 O 0.04927 0.19771 0.85861 0.0
O617 O 1.01657 0.23302 0.88615 0.0
O618 O 0.06385 0.20539 0.9276 0.0
O619 O 1.00942 0.20911 0.94601 0.0
C620 C 0.87089 0.20429 0.84867 0.0
C621 C 0.87486 0.24006 0.84781 0.0
H622 H 0.89266 0.30972 0.85019 0.0
H623 H 0.94677 0.34473 0.88001 0.0
H624 H 0.92174 0.11527 0.88438 0.0
H625 H 0.87382 0.13628 0.8534 0.0
H626 H 0.84805 0.18794 0.83577 0.0
H627 H 0.85526 0.2504 0.83384 0.0
Mn628 Mn 0.56583 0.74328 0.39644 0.0
Mn629 Mn 0.48512 0.74544 0.42698 0.0
C630 C 0.51476 0.71408 0.3668 0.0
C631 C 0.61169 0.76544 0.36788 0.0
C632 C 0.54081 0.70295 0.44866 0.0
O633 O 0.57416 0.78587 0.43173 0.0
O634 O 0.51844 0.78652 0.44869 0.0
C635 C 0.46466 0.80852 0.40544 0.0
N636 N 0.45761 0.77398 0.40603 0.0
C637 C 0.40217 0.76973 0.37417 0.0
C638 C 0.40869 0.80528 0.37347 0.0
C639 C 0.44014 0.82473 0.38909 0.0
C640 C 0.42749 0.75499 0.39099 0.0
H641 H 0.48887 0.82361 0.4172 0.0
C642 C 0.55114 0.80012 0.44885 0.0
O643 O 0.61755 0.74627 0.38909 0.0
O644 O 0.57912 0.77235 0.3636 0.0
N645 N 0.45045 0.70768 0.40671 0.0
C646 C 0.44994 0.67314 0.40683 0.0
C647 C 0.42117 0.64978 0.3907 0.0
C648 C 0.39321 0.66219 0.37472 0.0
C649 C 0.39442 0.69784 0.3748 0.0
C650 C 0.42375 0.71986 0.39126 0.0
H651 H 0.47148 0.66346 0.4189 0.0
O652 O 0.54586 0.70417 0.36101 0.0
O653 O 0.51477 0.73972 0.39034 0.0
O654 O 0.56384 0.71104 0.42934 0.0
O655 O 0.51068 0.71478 0.45015 0.0
C656 C 0.36799 0.71236 0.35877 0.0
C657 C 0.37192 0.74819 0.35826 0.0
H658 H 0.38995 0.81782 0.36069 0.0
H659 H 0.44553 0.85215 0.38847 0.0
H660 H 0.42061 0.62227 0.39049 0.0
H661 H 0.37118 0.64408 0.36214 0.0
H662 H 0.3446 0.69624 0.3466 0.0
H663 H 0.35172 0.75884 0.34525 0.0
Mn664 Mn 0.02155 0.76852 0.65389 0.0
Mn665 Mn 0.98634 0.69428 0.67705 0.0
C666 C 1.0146 0.71498 0.61848 0.0
C667 C 0.02278 0.81837 0.62939 0.0
C668 C 0.06264 0.72631 0.69498 0.0
O669 O 0.99433 0.78785 0.69307 0.0
O670 O 0.97788 0.7361 0.70697 0.0
C671 C 0.9102 0.70544 0.66826 0.0
N672 N 0.93664 0.68482 0.66281 0.0
C673 C 0.89422 0.6368 0.63667 0.0
C674 C 0.86649 0.65735 0.64239 0.0
C675 C 0.87458 0.69194 0.65796 0.0
C676 C 0.92928 0.65188 0.64693 0.0
H677 H 0.91617 0.73194 0.68041 0.0
C678 C 0.97901 0.76908 0.71173 0.0
O679 O 0.04702 0.81515 0.65094 0.0
O680 O 0.99589 0.79376 0.62376 0.0
N681 N 0.99099 0.65087 0.65061 0.0
C682 C 0.02086 0.6348 0.64589 0.0
C683 C 1.01755 0.60046 0.62949 0.0
C684 C 0.98343 0.58249 0.61921 0.0
C685 C 0.95295 0.59922 0.62506 0.0
C686 C 0.95801 0.63375 0.6408 0.0
H687 H 0.04693 0.64802 0.65478 0.0
O688 O 0.03908 0.73985 0.61505 0.0
O689 O 0.99531 0.72149 0.64275 0.0
O690 O 0.05942 0.75368 0.68354 0.0
O691 O 0.03766 0.70103 0.69241 0.0
C692 C 0.91771 0.58296 0.61603 0.0
C693 C 0.88842 0.60188 0.6214 0.0
H694 H 0.83893 0.64689 0.63479 0.0
H695 H 0.85338 0.70807 0.66228 0.0
H696 H 0.0412 0.58768 0.62526 0.0
H697 H 0.98094 0.55586 0.6069 0.0
H698 H 0.91284 0.556 0.60453 0.0
H699 H 0.86154 0.58929 0.61381 0.0
Mn700 Mn 0.52756 0.26351 0.14848 0.0
Mn701 Mn 0.49833 0.18799 0.17254 0.0
C702 C 0.52383 0.20992 0.11345 0.0
C703 C 0.52439 0.31277 0.12372 0.0
C704 C 0.57151 0.22797 0.1935 0.0
O705 O 0.49901 0.28012 0.18784 0.0
O706 O 0.48093 0.22747 0.19976 0.0
C707 C 0.42075 0.1857 0.15509 0.0
N708 N 0.45118 0.17019 0.15409 0.0
C709 C 0.41895 0.1159 0.12741 0.0
C710 C 0.38701 0.13094 0.12906 0.0
C711 C 0.38801 0.16615 0.14254 0.0
C712 C 0.45078 0.13684 0.13981 0.0
H713 H 0.42156 0.21277 0.16529 0.0
C714 C 0.48146 0.26042 0.20467 0.0
O715 O 0.54927 0.31141 0.14536 0.0
O716 O 0.49916 0.28653 0.11822 0.0
N717 N 0.51284 0.1473 0.14812 0.0
C718 C 0.54642 0.13809 0.14511 0.0
C719 C 0.55058 0.10458 0.12959 0.0
C720 C 0.52019 0.08065 0.11816 0.0
C721 C 0.48591 0.09069 0.12185 0.0
C722 C 0.48348 0.12467 0.13673 0.0
H723 H 0.5698 0.15618 0.15452 0.0
O724 O 0.54639 0.23606 0.10936 0.0
O725 O 0.50523 0.21541 0.13822 0.0
O726 O 0.56741 0.25218 0.17791 0.0
O727 O 0.54731 0.20247 0.19312 0.0
C728 C 0.45405 0.06836 0.11132 0.0
C729 C 0.42058 0.08105 0.11375 0.0
H730 H 0.36169 0.11587 0.1196 0.0
H731 H 0.36358 0.17812 0.14341 0.0
H732 H 0.57713 0.09707 0.12681 0.0
H733 H 0.52348 0.05471 0.10651 0.0
H734 H 0.455 0.04167 0.1003 0.0
H735 H 0.39635 0.06394 0.10457 0.0
C736 C 0.30229 0.76976 0.91584 0.0
C737 C 0.27422 0.74643 0.89838 0.0
C738 C 0.29556 0.79555 0.94127 0.0
C739 C 0.26053 0.79901 0.95052 0.0
H740 H 0.32957 0.76892 0.90906 0.0
H741 H 0.31805 0.81313 0.95374 0.0
S742 S 0.17784 0.74334 0.91409 0.0
N743 N 0.20998 0.7279 0.89301 0.0
N744 N 0.19773 0.77572 0.94142 0.0
C745 C 0.23239 0.77513 0.93416 0.0
C746 C 0.23911 0.74919 0.90786 0.0
C747 C 0.04334 0.5267 0.34775 0.0
C748 C 0.03426 0.55522 0.36907 0.0
C749 C 0.07127 0.53049 0.32736 0.0
C750 C 0.09069 0.56316 0.32697 0.0
H751 H 0.02785 0.50144 0.34605 0.0
H752 H 0.07655 0.50788 0.3108 0.0
S753 S 0.0783 0.64569 0.37983 0.0
N754 N 0.04782 0.61665 0.39001 0.0
N755 N 0.09977 0.62434 0.35145 0.0
C756 C 0.08254 0.59169 0.34913 0.0
C757 C 0.0545 0.58758 0.37024 0.0
C758 C 0.8634 0.78804 0.9255 0.0
C759 C 0.86696 0.77426 0.89304 0.0
C760 C 0.85517 0.76646 0.94806 0.0
C761 C 0.8509 0.73017 0.93935 0.0
H762 H 0.86544 0.81582 0.93331 0.0
H763 H 0.85003 0.77827 0.97208 0.0
S764 S 0.85956 0.68048 0.85849 0.0
N765 N 0.86683 0.72142 0.85398 0.0
N766 N 0.85281 0.68126 0.89674 0.0
C767 C 0.85658 0.71597 0.90764 0.0
C768 C 0.8644 0.73787 0.88446 0.0
C769 C 0.04446 0.0353 0.41671 0.0
C770 C 0.06264 1.00754 0.42277 0.0
C771 C 0.02545 0.03425 0.38692 0.0
C772 C 0.02436 1.0056 0.36183 0.0
H773 H 0.04449 0.05775 0.43532 0.0
H774 H 1.01097 0.05572 0.38382 0.0
S775 S 0.07195 0.92832 0.36465 0.0
N776 N 0.08086 0.95212 0.40062 0.0
N777 N 0.04641 0.95002 0.3449 0.0
C778 C 0.04393 0.97838 0.36746 0.0
C779 C 0.06267 0.97936 0.39778 0.0
C780 C 0.24847 0.28713 0.60604 0.0
C781 C 0.28047 0.3025 0.62398 0.0
C782 C 0.24896 0.26523 0.57637 0.0
C783 C 0.28151 0.2573 0.56385 0.0
H784 H 0.22284 0.29111 0.6156 0.0
H785 H 0.22365 0.25308 0.56404 0.0
S786 S 0.37272 0.29356 0.60011 0.0
N787 N 0.34545 0.31037 0.62597 0.0
N788 N 0.34662 0.26915 0.57046 0.0
C789 C 0.31369 0.27398 0.58082 0.0
C790 C 0.31311 0.2966 0.61079 0.0
C791 C 0.56023 0.53825 0.68375 0.0
C792 C 0.56503 0.51007 0.65945 0.0
C793 C 0.53904 0.53409 0.70965 0.0
C794 C 0.52254 0.50133 0.71348 0.0
H795 H 0.57247 0.5642 0.68263 0.0
H796 H 0.53551 0.5569 0.72677 0.0
S797 S 0.52957 0.41811 0.65906 0.0
N798 N 0.55229 0.44773 0.64218 0.0
N799 N 0.51559 0.43939 0.69204 0.0
C800 C 0.52916 0.47251 0.69066 0.0
C801 C 0.54967 0.47695 0.66357 0.0
C802 C 0.87171 0.31458 0.62219 0.0
C803 C 0.85031 0.29809 0.6429 0.0
C804 C 0.8562 0.32629 0.59595 0.0
C805 C 0.81881 0.32268 0.59028 0.0
H806 H 0.90052 0.31966 0.62712 0.0
H807 H 0.87339 0.33998 0.58122 0.0
S808 S 0.7514 0.2786 0.63572 0.0
N809 N 0.79027 0.27629 0.65445 0.0
N810 N 0.76095 0.29902 0.60568 0.0
C811 C 0.7973 0.30477 0.60988 0.0
C812 C 0.81311 0.29224 0.63609 0.0
C813 C 0.5587 0.02644 0.63102 0.0
C814 C 0.54751 0.05514 0.6192 0.0
C815 C 0.58014 0.03047 0.65984 0.0
C816 C 0.5912 0.0634 0.67853 0.0
H817 H 0.55172 1.00054 0.61734 0.0
H818 H 0.5888 1.00753 0.66704 0.0
S819 S 0.56679 0.14694 0.65969 0.0
N820 N 0.54788 0.11756 0.62937 0.0
N821 N 0.58664 0.12527 0.68391 0.0
C822 C 0.57842 0.09219 0.66788 0.0
C823 C 0.55695 0.08804 0.63827 0.0
C824 C 0.95076 0.22434 0.80114 0.0
C825 C 0.93749 0.19128 0.78363 0.0
C826 C 0.97703 0.2287 0.82615 0.0
C827 C 0.99013 0.20022 0.83617 0.0
H828 H 0.94044 0.24743 0.79598 0.0
H829 H 0.98684 0.25485 0.83807 0.0
S830 S 0.96615 0.10815 0.79857 0.0
N831 N 0.94136 0.12931 0.77741 0.0
N832 N 0.98969 0.13783 0.82628 0.0
C833 C 0.97783 0.16696 0.81906 0.0
C834 C 0.95139 0.16238 0.7927 0.0
C835 C 0.53681 0.89132 0.48536 0.0
C836 C 0.56853 0.91116 0.47954 0.0
C837 C 0.53281 0.85507 0.47842 0.0
C838 C 0.5602 0.83701 0.46491 0.0
H839 H 0.5139 0.90384 0.49326 0.0
H840 H 0.50694 0.84134 0.48154 0.0
S841 S 0.6516 0.87692 0.45226 0.0
N842 N 0.63016 0.91019 0.46521 0.0
N843 N 0.6225 0.84199 0.45133 0.0
C844 C 0.59338 0.85651 0.46208 0.0
C845 C 0.59751 0.89354 0.46943 0.0
C846 C 0.16344 0.27968 0.79527 0.0
C847 C 0.19938 0.27823 0.80496 0.0
C848 C 0.13621 0.27586 0.81633 0.0
C849 C 0.14404 0.27023 0.84766 0.0
H850 H 0.15604 0.28162 0.77072 0.0
H851 H 0.10868 0.27521 0.80735 0.0
S852 S 0.23467 0.27109 0.88633 0.0
N853 N 0.24193 0.27603 0.84923 0.0
N854 N 0.19081 0.26826 0.88861 0.0
C855 C 0.18016 0.27146 0.85832 0.0
C856 C 0.20781 0.27563 0.83701 0.0
C857 C 0.59817 0.65905 0.5017 0.0
C858 C 0.57336 0.64462 0.52092 0.0
C859 C 0.5871 0.67633 0.47741 0.0
C860 C 0.55076 0.68049 0.47178 0.0
H861 H 0.62658 0.65833 0.50647 0.0
H862 H 0.60754 0.68797 0.46405 0.0
S863 S 0.47501 0.64478 0.51439 0.0
N864 N 0.51088 0.6334 0.53174 0.0
N865 N 0.4897 0.66611 0.48631 0.0
C866 C 0.52549 0.66466 0.49002 0.0
C867 C 0.53687 0.64669 0.51453 0.0
C868 C 0.91314 0.77061 0.777 0.0
C869 C 0.91521 0.80553 0.79143 0.0
C870 C 0.93377 0.75995 0.75164 0.0
C871 C 0.95774 0.78356 0.73878 0.0
H872 H 0.89523 0.75102 0.78541 0.0
H873 H 0.93047 0.73247 0.74204 0.0
S874 S 0.97266 0.87864 0.76727 0.0
N875 N 0.94273 0.86435 0.79078 0.0
N876 N 0.98143 0.84419 0.7423 0.0
C877 C 0.95957 0.8189 0.75238 0.0
C878 C 0.93836 0.82989 0.77874 0.0
C879 C 0.07046 0.8948 0.59739 0.0
C880 C 0.05684 0.88927 0.56526 0.0
C881 C 0.05706 0.87352 0.61877 0.0
C882 C 0.02948 0.84569 0.60895 0.0
H883 H 0.09356 0.91396 0.6054 0.0
H884 H 0.07007 0.8776 0.64267 0.0
S885 S 0.98239 0.82254 0.5279 0.0
N886 N 1.01254 0.8557 0.52522 0.0
N887 N 0.98694 0.81606 0.56525 0.0
C888 C 1.01377 0.84167 0.5775 0.0
C889 C 0.02764 0.86326 0.55569 0.0
C890 C 0.14772 0.73974 0.75038 0.0
C891 C 0.17039 0.71941 0.73219 0.0
C892 C 0.11238 0.74137 0.73865 0.0
C893 C 0.09849 0.7223 0.70864 0.0
H894 H 0.15785 0.75559 0.77313 0.0
H895 H 0.09607 0.75813 0.75282 0.0
S896 S 0.14637 0.66443 0.65233 0.0
N897 N 0.17572 0.67891 0.68322 0.0
N898 N 0.10993 0.6825 0.66125 0.0
C899 C 0.12054 0.70127 0.69074 0.0
C900 C 0.15631 0.69964 0.70253 0.0
C901 C 0.95758 0.64341 0.56007 0.0
C902 C 0.98286 0.62367 0.54521 0.0
C903 C 0.96829 0.67332 0.58308 0.0
C904 C 1.00466 0.68423 0.59279 0.0
H905 H 0.92919 0.6355 0.55404 0.0
H906 H 0.94783 0.68773 0.59377 0.0
S907 S 0.08153 0.64221 0.56079 0.0
N908 N 0.04601 0.61779 0.54112 0.0
N909 N 0.0661 0.67379 0.58484 0.0
C910 C 0.03032 0.66543 0.57743 0.0
C911 C 0.01941 0.63507 0.55369 0.0
C912 C 0.84023 0.92098 0.19875 0.0
C913 C 0.82358 0.89883 0.21838 0.0
C914 C 0.86708 0.94858 0.21109 0.0
C915 C 0.87809 0.95586 0.24374 0.0
H916 H 0.83316 0.91709 0.17334 0.0
H917 H 0.88005 0.96362 0.19479 0.0
S918 S 0.8363 0.91623 0.30808 0.0
N919 N 0.81699 0.8926 0.27459 0.0
N920 N 0.86482 0.946 0.29675 0.0
C921 C 0.85907 0.93755 0.26433 0.0
C922 C 0.83248 0.90876 0.25199 0.0
C923 C 0.87916 0.15922 0.32422 0.0
C924 C 0.84968 0.15402 0.34287 0.0
C925 C 0.90266 0.13409 0.31733 0.0
C926 C 0.89757 0.10216 0.32829 0.0
H927 H 0.88329 0.18249 0.3138 0.0
H928 H 0.92406 0.13919 0.30196 0.0
S929 S 0.8256 0.07651 0.37976 0.0
N930 N 0.81787 0.11533 0.37369 0.0
N931 N 0.86152 0.06791 0.36058 0.0
C932 C 0.86903 0.09726 0.34816 0.0
C933 C 0.8453 0.12316 0.35547 0.0
C934 C 0.41085 0.9711 1.00825 0.0
C935 C 0.40784 1.00675 1.01562 0.0
C936 C 0.38234 0.94599 1.01175 0.0
C937 C 0.34968 0.95543 0.02282 0.0
H938 H 0.43481 0.96253 0.99812 0.0
H939 H 0.38497 0.91893 1.00352 0.0
S940 S 0.32884 0.045 0.04799 0.0
N941 N 0.37021 0.05011 0.03672 0.0
N942 N 0.31673 1.00272 0.04317 0.0
C943 C 0.34705 0.99084 0.03226 0.0
C944 C 0.37615 1.01654 0.02879 0.0
C945 C 0.25805 0.4647 0.34068 0.0
C946 C 0.27622 0.44095 0.32101 0.0
C947 C 0.23049 0.48049 0.32805 0.0
C948 C 0.21929 0.47279 0.29528 0.0
H949 H 0.2667 0.47277 0.36583 0.0
H950 H 0.21914 0.50033 0.34383 0.0
S951 S 0.25495 0.40953 0.23397 0.0
N952 N 0.27883 0.40837 0.26739 0.0
N953 N 0.22622 0.43749 0.2438 0.0
C954 C 0.23495 0.44692 0.27576 0.0
C955 C 0.26355 0.43108 0.28859 0.0
C956 C 0.19159 0.06526 0.46927 0.0
C957 C 0.17101 0.05899 0.49505 0.0
C958 C 0.22236 0.08985 0.47369 0.0
C959 C 0.23378 0.10965 0.50398 0.0
H960 H 0.18382 0.05105 0.44533 0.0
H961 H 0.23719 0.09364 0.45305 0.0
S962 S 0.19055 0.10281 0.57962 0.0
N963 N 0.16515 0.07421 0.5523 0.0
N964 N 0.22317 0.1203 0.5605 0.0
C965 C 0.2144 0.10288 0.5302 0.0
C966 C 0.18291 0.07776 0.52573 0.0
C967 C 0.79183 0.1332 0.70556 0.0
C968 C 0.81327 0.14422 0.73453 0.0
C969 C 0.75933 0.11122 0.70418 0.0
C970 C 0.74681 0.10037 0.73191 0.0
H971 H 0.80026 0.14153 0.68375 0.0
H972 H 0.74358 0.10333 0.68154 0.0
S973 S 0.79377 0.11806 0.81274 0.0
N974 N 0.81978 0.14016 0.79113 0.0
N975 N 0.75945 0.09869 0.78808 0.0
C976 C 0.76838 0.1099 0.76057 0.0
C977 C 0.80134 0.13199 0.76204 0.0
C978 C 0.45825 0.11898 0.54733 0.0
C979 C 0.45795 0.08342 0.53556 0.0
C980 C 0.43135 0.13752 0.53724 0.0
C981 C 0.4028 0.12144 0.51487 0.0
H982 H 0.47975 0.13279 0.56419 0.0
H983 H 0.43289 0.1648 0.54734 0.0
S984 S 0.38831 0.02827 0.47802 0.0
N985 N 0.42563 0.03244 0.50118 0.0
N986 N 0.37558 0.06731 0.48204 0.0
C987 C 0.40211 0.08585 0.50296 0.0
C988 C 0.42944 0.0669 0.51335 0.0
C989 C 0.63918 0.44156 0.56303 0.0
C990 C 0.64616 0.47805 0.56689 0.0
C991 C 0.66165 0.4197 0.54598 0.0
C992 C 0.69164 0.43323 0.53124 0.0
H993 H 0.61599 0.42966 0.57306 0.0
H994 H 0.65534 0.39192 0.54414 0.0
S995 S 0.7246 0.52647 0.53671 0.0
N996 N 0.68833 0.52628 0.55698 0.0
N997 N 0.7283 0.48539 0.52328 0.0
C998 C 0.69911 0.46948 0.53501 0.0
C999 C 0.67704 0.49175 0.55318 0.0
C1000 C 0.80476 0.26862 0.4188 0.0
C1001 C 0.77728 0.24465 0.40121 0.0
C1002 C 0.79713 0.29474 0.44358 0.0
C1003 C 0.76176 0.29791 0.45203 0.0
H1004 H 0.83227 0.26795 0.41263 0.0
H1005 H 0.8192 0.31274 0.45624 0.0
S1006 S 0.6803 0.2408 0.41474 0.0
N1007 N 0.71319 0.22541 0.39471 0.0
N1008 N 0.69927 0.27379 0.44191 0.0
C1009 C 0.73419 0.27349 0.43547 0.0
C1010 C 0.74183 0.24722 0.40983 0.0
C1011 C 0.5499 0.02326 0.84183 0.0
C1012 C 0.54099 0.05135 0.86382 0.0
C1013 C 0.57745 0.02761 0.82116 0.0
C1014 C 0.59677 0.06043 0.82119 0.0
H1015 H 0.53442 0.99794 0.83971 0.0
H1016 H 0.58241 1.00534 0.80402 0.0
S1017 S 0.58534 0.14184 0.8762 0.0
N1018 N 0.55495 0.11246 0.88603 0.0
N1019 N 0.60638 0.12115 0.84711 0.0
C1020 C 0.58906 0.08846 0.8442 0.0
C1021 C 0.56132 0.08379 0.86554 0.0
C1022 C 0.3244 0.27734 0.39375 0.0
C1023 C 0.36054 0.28212 0.38688 0.0
C1024 C 0.31256 0.2567 0.41586 0.0
C1025 C 0.3361 0.23935 0.43258 0.0
H1026 H 0.30468 0.28935 0.38152 0.0
H1027 H 0.2842 0.25433 0.41957 0.0
S1028 S 0.43409 0.24382 0.42403 0.0
N1029 N 0.4204 0.26832 0.3991 0.0
N1030 N 0.39799 0.22902 0.44063 0.0
C1031 C 0.37255 0.24393 0.42611 0.0
C1032 C 0.38473 0.26523 0.40329 0.0
C1033 C 0.55476 0.48017 0.89737 0.0
C1034 C 0.55803 0.50903 0.92218 0.0
C1035 C 0.53555 0.47985 0.86815 0.0
C1036 C 0.51834 0.50835 0.86215 0.0
H1037 H 0.5676 0.45765 0.90041 0.0
H1038 H 0.53403 0.45664 0.85016 0.0
S1039 S 0.5182 0.59029 0.91994 0.0
N1040 N 0.54224 0.56686 0.93927 0.0
N1041 N 0.506 0.56644 0.88436 0.0
C1042 C 0.5216 0.53759 0.88683 0.0
C1043 C 0.5414 0.53788 0.91673 0.0
C1044 C 0.7543 0.7902 0.10244 0.0
C1045 C 0.78531 0.80153 0.12318 0.0
C1046 C 0.75525 0.7671 0.0735 0.0
C1047 C 0.78717 0.75397 0.06458 0.0
H1048 H 0.72876 0.79802 0.1094 0.0
H1049 H 0.73043 0.75804 0.05899 0.0
S1050 S 0.87636 0.77818 0.10932 0.0
N1051 N 0.84906 0.79977 0.13184 0.0
N1052 N 0.8513 0.75678 0.07758 0.0
C1053 C 0.81876 0.76676 0.08431 0.0
C1054 C 0.81773 0.79042 0.11357 0.0
C1055 C 0.03039 0.02421 0.16118 0.0
C1056 C 0.0637 1.01134 0.15686 0.0
C1057 C 1.01173 0.02201 0.18881 0.0
C1058 C 0.0248 1.00593 0.21327 0.0
H1059 H 0.01844 0.03634 0.14294 0.0
H1060 H 0.98625 0.03215 0.19057 0.0
S1061 S 0.11 0.9673 0.21452 0.0
N1062 N 0.10892 0.98216 0.18041 0.0
N1063 N 0.07276 0.97618 0.23135 0.0
C1064 C 0.05748 0.99207 0.20915 0.0
C1065 C 0.07706 0.99509 0.18125 0.0
C1066 C 0.31117 0.79708 0.13665 0.0
C1067 C 0.34831 0.8008 0.14382 0.0
C1068 C 0.29696 0.80921 0.11018 0.0
C1069 C 0.31942 0.82486 0.08969 0.0
H1070 H 0.29298 0.78679 0.15273 0.0
H1071 H 0.2681 0.80731 0.1063 0.0
S1072 S 0.41861 0.83801 0.0968 0.0
N1073 N 0.40739 0.8195 0.12764 0.0
N1074 N 0.38056 0.84129 0.07714 0.0
C1075 C 0.35662 0.82669 0.09542 0.0
C1076 C 0.3711 0.81495 0.12276 0.0
C1077 C 0.05955 0.57967 0.14157 0.0
C1078 C 0.05007 0.5465 0.12307 0.0
C1079 C 0.0801 0.58451 0.1709 0.0
C1080 C 0.09233 0.55641 0.1831 0.0
H1081 H 0.05245 0.6023 0.13266 0.0
H1082 H 0.08746 0.61083 0.1835 0.0
S1083 S 0.07018 0.46362 0.14594 0.0
N1084 N 0.05092 0.48463 0.12072 0.0
N1085 N 0.08997 0.49367 0.17539 0.0
C1086 C 0.08136 0.52287 0.16556 0.0
C1087 C 0.06019 0.51796 0.13576 0.0
C1088 C 0.44523 0.73167 0.3072 0.0
C1089 C 0.43209 0.69872 0.28944 0.0
C1090 C 0.47205 0.73589 0.33178 0.0
C1091 C 0.48592 0.70734 0.34097 0.0
H1092 H 0.43448 0.75471 0.30244 0.0
H1093 H 0.4819 0.76197 0.34385 0.0
S1094 S 0.46235 0.61555 0.30233 0.0
N1095 N 0.43668 0.63684 0.28211 0.0
N1096 N 0.48614 0.64504 0.33003 0.0
C1097 C 0.47362 0.6742 0.3236 0.0
C1098 C 0.44659 0.66979 0.29777 0.0
C1099 C 0.09454 0.38698 0.96591 0.0
C1100 C 0.06683 0.40484 0.97882 0.0
C1101 C 0.09017 0.35069 0.95781 0.0
C1102 C 0.05789 0.33072 0.96237 0.0
H1103 H 0.11924 0.40125 0.96062 0.0
H1104 H 0.11146 0.3385 0.94603 0.0
S1105 S 0.97895 0.36465 0.99988 0.0
N1106 N 1.00716 0.39953 0.99846 0.0
N1107 N 0.99961 0.33158 0.98496 0.0
C1108 C 0.03129 0.34815 0.97811 0.0
C1109 C 0.03554 0.38511 0.98586 0.0
C1110 C 0.65682 0.78387 0.29371 0.0
C1111 C 0.6927 0.78033 0.30158 0.0
C1112 C 0.63089 0.78161 0.31621 0.0
C1113 C 0.64009 0.77553 0.34714 0.0
H1114 H 0.6483 0.78595 0.26944 0.0
H1115 H 0.60315 0.78225 0.30858 0.0
S1116 S 0.73179 0.77145 0.38111 0.0
N1117 N 0.73709 0.77576 0.34354 0.0
N1118 N 0.68851 0.77132 0.38578 0.0
C1119 C 0.67645 0.77507 0.35602 0.0
C1120 C 0.70274 0.77753 0.33323 0.0
C1121 C 0.04299 0.1662 0.02573 0.0
C1122 C 0.07175 0.14642 0.02361 0.0
C1123 C 0.03139 0.18087 0.99982 0.0
C1124 C 0.04861 0.1769 0.97094 0.0
H1125 H 0.03026 0.17148 0.04808 0.0
H1126 H 1.01004 0.197 1.00314 0.0
S1127 S 0.1232 0.12455 0.95245 0.0
N1128 N 0.1154 0.12123 0.98983 0.0
N1129 N 0.09408 0.14905 0.94101 0.0
C1130 C 0.07628 0.1556 0.96802 0.0
C1131 C 0.08772 0.14029 0.99437 0.0
C1132 C 0.44762 0.32178 0.27382 0.0
C1133 C 0.42049 0.30003 0.28528 0.0
C1134 C 0.46679 0.30944 0.24733 0.0
C1135 C 0.45968 0.2748 0.23132 0.0
H1136 H 0.45447 0.34843 0.28573 0.0
H1137 H 0.48779 0.32691 0.23984 0.0
S1138 S 0.38839 0.20845 0.24987 0.0
N1139 N 0.38543 0.24328 0.27665 0.0
N1140 N 0.42155 0.21964 0.22826 0.0
C1141 C 0.43188 0.25318 0.24228 0.0
C1142 C 0.41234 0.26585 0.26884 0.0
C1143 C 0.5668 0.39127 0.09139 0.0
C1144 C 0.55445 0.38403 0.05888 0.0
C1145 C 0.55442 0.36971 0.11293 0.0
C1146 C 0.52911 0.33996 0.10293 0.0
H1147 H 0.58833 0.41206 0.09968 0.0
H1148 H 0.5666 0.37518 0.13719 0.0
S1149 S 0.4856 0.31188 0.02082 0.0
N1150 N 0.51344 0.34676 0.01824 0.0
N1151 N 0.48973 0.30664 0.05856 0.0
C1152 C 0.51442 0.33416 0.07102 0.0
C1153 C 0.52728 0.35599 0.04906 0.0
C1154 C 0.65091 0.19693 0.23486 0.0
C1155 C 0.67746 0.22572 0.23841 0.0
C1156 C 0.61625 0.19827 0.22155 0.0
C1157 C 0.60688 0.22847 0.21127 0.0
H1158 H 0.6575 0.17271 0.24088 0.0
H1159 H 0.59718 0.17495 0.21808 0.0
S1160 S 0.66598 0.31236 0.21986 0.0
N1161 N 0.69145 0.28612 0.23372 0.0
N1162 N 0.62661 0.28906 0.20908 0.0
C1163 C 0.63283 0.25806 0.21663 0.0
C1164 C 0.668 0.25657 0.23007 0.0
C1165 C 0.46466 0.13975 0.05557 0.0
C1166 C 0.4891 0.12 0.03932 0.0
C1167 C 0.47642 0.16912 0.07883 0.0
C1168 C 0.51309 0.17966 0.0874 0.0
H1169 H 0.43608 0.13229 0.05039 0.0
H1170 H 0.4565 0.18352 0.09051 0.0
S1171 S 0.58816 0.1377 0.05159 0.0
N1172 N 0.55188 0.11376 0.03281 0.0
N1173 N 0.57391 0.16902 0.07687 0.0
C1174 C 0.53793 0.16096 0.07069 0.0
C1175 C 0.52594 0.13102 0.04672 0.0
C1176 C 0.33064 0.41056 0.74873 0.0
C1177 C 0.31865 0.40338 0.71585 0.0
C1178 C 0.35647 0.43854 0.76142 0.0
C1179 C 0.37311 0.45979 0.7418 0.0
H1180 H 0.32223 0.39361 0.76513 0.0
H1181 H 0.36482 0.44246 0.78668 0.0
S1182 S 0.34478 0.46094 0.65735 0.0
N1183 N 0.31924 0.42746 0.66636 0.0
N1184 N 0.37091 0.47758 0.68995 0.0
C1185 C 0.35917 0.45593 0.71002 0.0
C1186 C 0.33152 0.42816 0.69709 0.0
C1187 C 0.34209 0.62677 0.84875 0.0
C1188 C 0.34682 0.65832 0.83726 0.0
C1189 C 0.36578 0.60164 0.84177 0.0
C1190 C 0.39541 0.60705 0.82318 0.0
H1191 H 0.3189 0.62071 0.86187 0.0
H1192 H 0.36001 0.57725 0.85009 0.0
S1193 S 0.4213 0.687 0.7899 0.0
N1194 N 0.38454 0.69452 0.80813 0.0
N1195 N 0.42911 0.64805 0.79544 0.0
C1196 C 0.40136 0.63938 0.81304 0.0
C1197 C 0.37708 0.66472 0.81991 0.0
C1198 C 0.90973 0.47285 0.51361 0.0
C1199 C 0.90556 0.50822 0.52127 0.0
C1200 C 0.88158 0.4469 0.51596 0.0
C1201 C 0.84821 0.45525 0.52613 0.0
H1202 H 0.93426 0.46519 0.50395 0.0
H1203 H 0.88511 0.4201 0.50751 0.0
S1204 S 0.82414 0.54363 0.55116 0.0
N1205 N 0.86603 0.55011 0.54144 0.0
N1206 N 0.81319 0.50116 0.54571 0.0
C1207 C 0.84438 0.49035 0.53583 0.0
C1208 C 0.87309 0.51689 0.53353 0.0
C1209 C 0.7256 0.91721 0.80366 0.0
C1210 C 0.76331 0.92455 0.80691 0.0
C1211 C 0.70444 0.93718 0.78767 0.0
C1212 C 0.72039 0.96567 0.77522 0.0
H1213 H 0.71232 0.8974 0.8154 0.0
H1214 H 0.67552 0.93197 0.78725 0.0
S1215 S 0.81791 0.99396 0.77539 0.0
N1216 N 0.8155 0.96052 0.79428 0.0
N1217 N 0.77611 0.99844 0.76504 0.0
C1218 C 0.75806 0.97192 0.77678 0.0
C1219 C 0.77945 0.95127 0.79243 0.0
C1220 C 0.67884 0.57744 0.02282 0.0
C1221 C 0.66908 0.55647 0.99264 0.0
C1222 C 0.71035 0.6015 0.02799 0.0
C1223 C 0.73294 0.60574 1.00305 0.0
H1224 H 0.66171 0.57563 0.04239 0.0
H1225 H 0.71663 0.61748 0.05142 0.0
S1226 S 0.72301 0.55248 0.92159 0.0
N1227 N 0.68699 0.5387 0.93879 0.0
N1228 N 0.74592 0.58337 0.94857 0.0
C1229 C 0.72438 0.58365 0.97336 0.0
C1230 C 0.69248 0.5593 0.9681 0.0
C1231 C 0.28758 0.63618 0.21316 0.0
C1232 C 0.30808 0.65053 0.24203 0.0
C1233 C 0.25618 0.6129 0.21282 0.0
C1234 C 0.24379 0.60418 0.24145 0.0
H1235 H 0.29608 0.64267 0.19067 0.0
H1236 H 0.24122 0.60215 0.19021 0.0
S1237 S 0.28861 0.6317 0.32279 0.0
N1238 N 0.31386 0.65255 0.29971 0.0
N1239 N 0.25558 0.60865 0.2987 0.0
C1240 C 0.26434 0.61744 0.27017 0.0
C1241 C 0.29619 0.64082 0.27058 0.0
C1242 C 0.95936 0.61045 0.05359 0.0
C1243 C 0.95996 0.57525 0.04093 0.0
C1244 C 0.9318 0.62855 0.04417 0.0
C1245 C 0.9035 0.61235 0.02161 0.0
H1246 H 0.98071 0.62436 0.07056 0.0
H1247 H 0.93276 0.65562 0.05481 0.0
S1248 S 0.89117 0.51987 0.98269 0.0
N1249 N 0.92866 0.52433 1.00566 0.0
N1250 N 0.87734 0.55848 0.98772 0.0
C1251 C 0.9036 0.57708 1.00889 0.0
C1252 C 0.93162 0.55855 0.01861 0.0
C1253 C 0.13846 0.94262 0.05999 0.0
C1254 C 0.14689 0.97908 0.06581 0.0
C1255 C 0.16084 0.92075 0.04282 0.0
C1256 C 0.19213 0.93434 0.02989 0.0
H1257 H 0.11425 0.93078 0.06857 0.0
H1258 H 0.15347 0.89295 0.03944 0.0
S1259 S 0.22905 0.02715 0.04099 0.0
N1260 N 0.1918 0.02701 0.05987 0.0
N1261 N 0.23152 0.98625 0.02575 0.0
C1262 C 0.20103 0.9705 0.03563 0.0
C1263 C 0.17911 0.99269 0.05398 0.0
loop_
_geom_bond_atom_site_label_1
_geom_bond_atom_site_label_2
_geom_bond_distance
_geom_bond_site_symmetry_2
_ccdc_geom_bond_type
H0 C1 0.949 . S
C1 H0 0.949 . S
C1 C2 1.395 1_545 S
C1 C3 1.391 . S
C2 C1 1.395 1_565 S
C2 C5 1.390 . S
C3 C1 1.391 . S
C3 C7 1.387 . S
C3 C8 1.491 . S
H4 C5 0.950 . S
C5 C2 1.390 . S
C5 H4 0.950 . S
C5 C6 1.378 1_565 S
C6 C5 1.378 1_545 S
C6 C7 1.409 . S
C7 C3 1.387 . S
C7 C6 1.409 . S
C7 H9 0.951 . S
C8 C3 1.491 . S
C8 C10 1.382 1_554 S
C8 C12 1.404 . S
H9 C7 0.951 . S
C10 C8 1.382 1_556 S
C10 C11 1.390 . S
C10 H15 0.949 . S
C11 C10 1.390 . S
C11 C16 1.399 . S
C12 C8 1.404 . S
C12 H13 0.950 . S
C12 C14 1.375 . S
H13 C12 0.950 . S
C14 C12 1.375 . S
C14 C16 1.382 1_554 S
C14 H18 0.950 . S
H15 C10 0.949 . S
C16 C11 1.399 . S
C16 C14 1.382 1_556 S
C16 H17 0.952 . S
H17 C16 0.952 . S
H18 C14 0.950 . S
H19 C20 0.949 . S
C20 H19 0.949 . S
C20 C21 1.395 . S
C20 C22 1.391 . S
C21 C20 1.395 . S
C21 C24 1.390 . S
C22 C20 1.391 . S
C22 C26 1.387 . S
C22 C27 1.491 . S
H23 C24 0.950 . S
C24 C21 1.390 . S
C24 H23 0.950 . S
C24 C25 1.378 . S
C25 C24 1.378 . S
C25 C26 1.409 . S
C26 C22 1.387 . S
C26 C25 1.409 . S
C26 H28 0.951 . S
C27 C22 1.491 . S
C27 C29 1.382 . S
C27 C31 1.404 . S
H28 C26 0.951 . S
C29 C27 1.382 . S
C29 C30 1.390 . S
C29 H34 0.949 . S
C30 C29 1.390 . S
C30 C35 1.399 . S
C31 C27 1.404 . S
C31 H32 0.950 . S
C31 C33 1.375 . S
H32 C31 0.950 . S
C33 C31 1.375 . S
C33 C35 1.382 . S
C33 H37 0.950 . S
H34 C29 0.949 . S
C35 C30 1.399 . S
C35 C33 1.382 . S
C35 H36 0.952 . S
H36 C35 0.952 . S
H37 C33 0.950 . S
H38 C39 0.949 . S
C39 H38 0.949 . S
C39 C40 1.395 . S
C39 C41 1.391 1_455 S
C40 C39 1.395 . S
C40 C43 1.390 1_455 S
C41 C39 1.391 1_655 S
C41 C45 1.387 . S
C41 C46 1.491 1_654 S
H42 C43 0.950 . S
C43 C40 1.390 1_655 S
C43 H42 0.950 . S
C43 C44 1.378 . S
C44 C43 1.378 . S
C44 C45 1.409 . S
C45 C41 1.387 . S
C45 C44 1.409 . S
C45 H47 0.951 1_554 S
C46 C41 1.491 1_456 S
C46 C48 1.381 . S
C46 C50 1.404 . S
H47 C45 0.951 1_556 S
C48 C46 1.381 . S
C48 C49 1.390 . S
C48 H53 0.929 1_556 S
C49 C48 1.390 . S
C49 C54 1.399 . S
C50 C46 1.404 . S
C50 H51 0.948 1_455 S
C50 C52 1.377 . S
H51 C50 0.948 1_655 S
C52 C50 1.377 . S
C52 C54 1.382 . S
C52 H56 0.950 . S
H53 C48 0.929 1_554 S
C54 C49 1.399 . S
C54 C52 1.382 . S
C54 H55 0.952 . S
H55 C54 0.952 . S
H56 C52 0.950 . S
H57 C58 0.949 . S
C58 H57 0.949 . S
C58 C59 1.395 . S
C58 C60 1.391 . S
C59 C58 1.395 . S
C59 C62 1.390 . S
C60 C58 1.391 . S
C60 C64 1.387 . S
C60 C65 1.491 . S
H61 C62 0.950 . S
C62 C59 1.390 . S
C62 H61 0.950 . S
C62 C63 1.378 . S
C63 C62 1.378 . S
C63 C64 1.409 . S
C64 C60 1.387 . S
C64 C63 1.409 . S
C64 H66 0.951 . S
C65 C60 1.491 . S
C65 C67 1.382 . S
C65 C69 1.404 . S
H66 C64 0.951 . S
C67 C65 1.382 . S
C67 C68 1.390 . S
C67 H72 0.949 . S
C68 C67 1.390 . S
C68 C73 1.399 . S
C69 C65 1.404 . S
C69 H70 0.950 . S
C69 C71 1.375 . S
H70 C69 0.950 . S
C71 C69 1.375 . S
C71 C73 1.382 . S
C71 H75 0.950 . S
H72 C67 0.949 . S
C73 C68 1.399 . S
C73 C71 1.382 . S
C73 H74 0.952 . S
H74 C73 0.952 . S
H75 C71 0.950 . S
H76 C77 0.949 . S
C77 H76 0.949 . S
C77 C78 1.395 1_565 S
C77 C79 1.391 . S
C78 C77 1.395 1_545 S
C78 C81 1.390 . S
C79 C77 1.391 . S
C79 C83 1.387 . S
C79 C84 1.491 . S
H80 C81 0.950 . S
C81 C78 1.390 . S
C81 H80 0.950 . S
C81 C82 1.378 1_545 S
C82 C81 1.378 1_565 S
C82 C83 1.409 . S
C83 C79 1.387 . S
C83 C82 1.409 . S
C83 H85 0.951 . S
C84 C79 1.491 . S
C84 C86 1.382 . S
C84 C88 1.404 . S
H85 C83 0.951 . S
C86 C84 1.382 . S
C86 C87 1.390 . S
C86 H91 0.949 . S
C87 C86 1.390 . S
C87 C92 1.399 . S
C88 C84 1.404 . S
C88 H89 0.950 . S
C88 C90 1.375 . S
H89 C88 0.950 . S
C90 C88 1.375 . S
C90 C92 1.382 . S
C90 H94 0.950 . S
H91 C86 0.949 . S
C92 C87 1.399 . S
C92 C90 1.382 . S
C92 H93 0.952 . S
H93 C92 0.952 . S
H94 C90 0.950 . S
H95 C96 0.949 . S
C96 H95 0.949 . S
C96 C97 1.395 . S
C96 C98 1.391 . S
C97 C96 1.395 . S
C97 C100 1.390 . S
C98 C96 1.391 . S
C98 C102 1.387 . S
C98 C103 1.491 . S
H99 C100 0.950 . S
C100 C97 1.390 . S
C100 H99 0.950 . S
C100 C101 1.378 . S
C101 C100 1.378 . S
C101 C102 1.409 . S
C102 C98 1.387 . S
C102 C101 1.409 . S
C102 H104 0.951 . S
C103 C98 1.491 . S
C103 C105 1.382 . S
C103 C107 1.404 . S
H104 C102 0.951 . S
C105 C103 1.382 . S
C105 C106 1.390 . S
C105 H110 0.949 . S
C106 C105 1.390 . S
C106 C111 1.399 . S
C107 C103 1.404 . S
C107 H108 0.950 . S
C107 C109 1.375 . S
H108 C107 0.950 . S
C109 C107 1.375 . S
C109 C111 1.382 . S
C109 H113 0.950 . S
H110 C105 0.949 . S
C111 C106 1.399 . S
C111 C109 1.382 . S
C111 H112 0.952 . S
H112 C111 0.952 . S
H113 C109 0.950 . S
H114 C115 0.949 1_455 S
C115 H114 0.949 1_655 S
C115 C116 1.395 . S
C115 C117 1.391 . S
C116 C115 1.395 . S
C116 C119 1.390 . S
C117 C115 1.391 . S
C117 C121 1.387 . S
C117 C122 1.491 . S
H118 C119 0.950 . S
C119 C116 1.390 . S
C119 H118 0.950 . S
C119 C120 1.378 . S
C120 C119 1.378 . S
C120 C121 1.409 . S
C121 C117 1.387 . S
C121 C120 1.409 . S
C121 H123 0.951 . S
C122 C117 1.491 . S
C122 C124 1.382 1_655 S
C122 C126 1.404 . S
H123 C121 0.951 . S
C124 C122 1.382 1_455 S
C124 C125 1.390 . S
C124 H129 0.949 . S
C125 C124 1.390 . S
C125 C130 1.399 . S
C126 C122 1.404 . S
C126 H127 0.950 . S
C126 C128 1.375 . S
H127 C126 0.950 . S
C128 C126 1.375 . S
C128 C130 1.382 1_655 S
C128 H132 0.950 . S
H129 C124 0.949 . S
C130 C125 1.399 . S
C130 C128 1.382 1_455 S
C130 H131 0.952 . S
H131 C130 0.952 . S
H132 C128 0.950 . S
H133 C134 0.949 . S
C134 H133 0.949 . S
C134 C135 1.395 . S
C134 C136 1.391 . S
C135 C134 1.395 . S
C135 C138 1.390 . S
C136 C134 1.391 . S
C136 C140 1.387 . S
C136 C141 1.491 . S
H137 C138 0.950 . S
C138 C135 1.390 . S
C138 H137 0.950 . S
C138 C139 1.378 . S
C139 C138 1.378 . S
C139 C140 1.409 . S
C140 C136 1.387 . S
C140 C139 1.409 . S
C140 H142 0.951 . S
C141 C136 1.491 . S
C141 C143 1.382 . S
C141 C145 1.404 . S
H142 C140 0.951 . S
C143 C141 1.382 . S
C143 C144 1.390 . S
C143 H148 0.949 . S
C144 C143 1.390 . S
C144 C149 1.399 . S
C145 C141 1.404 . S
C145 H146 0.950 . S
C145 C147 1.375 . S
H146 C145 0.950 . S
C147 C145 1.375 . S
C147 C149 1.382 . S
C147 H151 0.950 . S
H148 C143 0.949 . S
C149 C144 1.399 . S
C149 C147 1.382 . S
C149 H150 0.952 . S
H150 C149 0.952 . S
H151 C147 0.950 . S
H152 C153 0.949 . S
C153 H152 0.949 . S
C153 C154 1.395 . S
C153 C155 1.391 . S
C154 C153 1.395 . S
C154 C157 1.390 . S
C155 C153 1.391 . S
C155 C159 1.387 . S
C155 C160 1.491 . S
H156 C157 0.950 . S
C157 C154 1.390 . S
C157 H156 0.950 . S
C157 C158 1.378 . S
C158 C157 1.378 . S
C158 C159 1.409 . S
C159 C155 1.387 . S
C159 C158 1.409 . S
C159 H161 0.951 . S
C160 C155 1.491 . S
C160 C162 1.382 . S
C160 C164 1.404 . S
H161 C159 0.951 . S
C162 C160 1.382 . S
C162 C163 1.390 . S
C162 H167 0.949 . S
C163 C162 1.390 . S
C163 C168 1.399 . S
C164 C160 1.404 . S
C164 H165 0.950 . S
C164 C166 1.375 . S
H165 C164 0.950 . S
C166 C164 1.375 . S
C166 C168 1.382 . S
C166 H170 0.950 . S
H167 C162 0.949 . S
C168 C163 1.399 . S
C168 C166 1.382 . S
C168 H169 0.952 . S
H169 C168 0.952 . S
H170 C166 0.950 . S
H171 C172 0.949 . S
C172 H171 0.949 . S
C172 C173 1.395 . S
C172 C174 1.391 . S
C173 C172 1.395 . S
C173 C176 1.390 1_565 S
C174 C172 1.391 . S
C174 C178 1.387 . S
C174 C179 1.491 . S
H175 C176 0.950 . S
C176 C173 1.390 1_545 S
C176 H175 0.950 . S
C176 C177 1.378 . S
C177 C176 1.378 . S
C177 C178 1.409 1_545 S
C178 C174 1.387 . S
C178 C177 1.409 1_565 S
C178 H180 0.951 . S
C179 C174 1.491 . S
C179 C181 1.382 . S
C179 C183 1.404 . S
H180 C178 0.951 . S
C181 C179 1.382 . S
C181 C182 1.390 . S
C181 H186 0.949 . S
C182 C181 1.390 . S
C182 C187 1.399 . S
C183 C179 1.404 . S
C183 H184 0.950 . S
C183 C185 1.375 . S
H184 C183 0.950 . S
C185 C183 1.375 . S
C185 C187 1.382 . S
C185 H189 0.950 . S
H186 C181 0.949 . S
C187 C182 1.399 . S
C187 C185 1.382 . S
C187 H188 0.952 . S
H188 C187 0.952 . S
H189 C185 0.950 . S
H190 C191 0.949 . S
C191 H190 0.949 . S
C191 C192 1.395 . S
C191 C193 1.391 . S
C192 C191 1.395 . S
C192 C195 1.390 . S
C193 C191 1.391 . S
C193 C197 1.387 . S
C193 C198 1.491 . S
H194 C195 0.950 . S
C195 C192 1.390 . S
C195 H194 0.950 . S
C195 C196 1.378 . S
C196 C195 1.378 . S
C196 C197 1.409 . S
C197 C193 1.387 . S
C197 C196 1.409 . S
C197 H199 0.951 . S
C198 C193 1.491 . S
C198 C200 1.382 . S
C198 C202 1.404 . S
H199 C197 0.951 . S
C200 C198 1.382 . S
C200 C201 1.390 . S
C200 H205 0.949 . S
C201 C200 1.390 . S
C201 C206 1.399 . S
C202 C198 1.404 . S
C202 H203 0.950 . S
C202 C204 1.375 . S
H203 C202 0.950 . S
C204 C202 1.375 . S
C204 C206 1.382 . S
C204 H208 0.950 . S
H205 C200 0.949 . S
C206 C201 1.399 . S
C206 C204 1.382 . S
C206 H207 0.952 . S
H207 C206 0.952 . S
H208 C204 0.950 . S
H209 C210 0.949 . S
C210 H209 0.949 . S
C210 C211 1.395 . S
C210 C212 1.391 . S
C211 C210 1.395 . S
C211 C214 1.390 . S
C212 C210 1.391 . S
C212 C216 1.387 . S
C212 C217 1.491 . S
H213 C214 0.950 . S
C214 C211 1.390 . S
C214 H213 0.950 . S
C214 C215 1.378 . S
C215 C214 1.378 . S
C215 C216 1.409 . S
C216 C212 1.387 . S
C216 C215 1.409 . S
C216 H218 0.951 . S
C217 C212 1.491 . S
C217 C219 1.382 . S
C217 C221 1.404 . S
H218 C216 0.951 . S
C219 C217 1.382 . S
C219 C220 1.390 . S
C219 H224 0.949 . S
C220 C219 1.390 . S
C220 C225 1.399 . S
C221 C217 1.404 . S
C221 H222 0.950 . S
C221 C223 1.375 . S
H222 C221 0.950 . S
C223 C221 1.375 . S
C223 C225 1.382 . S
C223 H227 0.950 . S
H224 C219 0.949 . S
C225 C220 1.399 . S
C225 C223 1.382 . S
C225 H226 0.952 . S
H226 C225 0.952 . S
H227 C223 0.950 . S
H228 C229 0.949 . S
C229 H228 0.949 . S
C229 C230 1.395 . S
C229 C231 1.391 . S
C230 C229 1.395 . S
C230 C233 1.390 . S
C231 C229 1.391 . S
C231 C235 1.387 . S
C231 C236 1.491 . S
H232 C233 0.950 . S
C233 C230 1.390 . S
C233 H232 0.950 . S
C233 C234 1.378 . S
C234 C233 1.378 . S
C234 C235 1.409 . S
C235 C231 1.387 . S
C235 C234 1.409 . S
C235 H237 0.951 . S
C236 C231 1.491 . S
C236 C238 1.382 . S
C236 C240 1.404 . S
H237 C235 0.951 . S
C238 C236 1.382 . S
C238 C239 1.390 . S
C238 H243 0.949 . S
C239 C238 1.390 . S
C239 C244 1.399 . S
C240 C236 1.404 . S
C240 H241 0.950 . S
C240 C242 1.375 . S
H241 C240 0.950 . S
C242 C240 1.375 . S
C242 C244 1.382 . S
C242 H246 0.950 . S
H243 C238 0.949 . S
C244 C239 1.399 . S
C244 C242 1.382 . S
C244 H245 0.952 . S
H245 C244 0.952 . S
H246 C242 0.950 . S
H247 C248 0.949 1_554 S
C248 H247 0.949 1_556 S
C248 C249 1.395 . S
C248 C250 1.391 . S
C249 C248 1.395 . S
C249 C252 1.390 . S
C250 C248 1.391 . S
C250 C254 1.387 . S
C250 C255 1.491 . S
H251 C252 0.950 . S
C252 C249 1.390 . S
C252 H251 0.950 . S
C252 C253 1.378 . S
C253 C252 1.378 . S
C253 C254 1.409 . S
C254 C250 1.387 . S
C254 C253 1.409 . S
C254 H256 0.951 . S
C255 C250 1.491 . S
C255 C257 1.382 1_556 S
C255 C259 1.404 . S
H256 C254 0.951 . S
C257 C255 1.382 1_554 S
C257 C258 1.390 . S
C257 H262 0.949 . S
C258 C257 1.390 . S
C258 C263 1.399 . S
C259 C255 1.404 . S
C259 H260 0.950 . S
C259 C261 1.375 . S
H260 C259 0.950 . S
C261 C259 1.375 . S
C261 C263 1.382 1_556 S
C261 H265 0.950 . S
H262 C257 0.949 . S
C263 C258 1.399 . S
C263 C261 1.382 1_554 S
C263 H264 0.952 . S
H264 C263 0.952 . S
H265 C261 0.950 . S
H266 C267 0.949 . S
C267 H266 0.949 . S
C267 C268 1.395 . S
C267 C269 1.391 . S
C268 C267 1.395 . S
C268 C271 1.390 . S
C269 C267 1.391 . S
C269 C273 1.387 . S
C269 C274 1.491 . S
H270 C271 0.950 . S
C271 C268 1.390 . S
C271 H270 0.950 . S
C271 C272 1.378 . S
C272 C271 1.378 . S
C272 C273 1.409 . S
C273 C269 1.387 . S
C273 C272 1.409 . S
C273 H275 0.951 . S
C274 C269 1.491 . S
C274 C276 1.382 . S
C274 C278 1.404 . S
H275 C273 0.951 . S
C276 C274 1.382 . S
C276 C277 1.390 . S
C276 H281 0.949 . S
C277 C276 1.390 . S
C277 C282 1.399 . S
C278 C274 1.404 . S
C278 H279 0.950 . S
C278 C280 1.375 . S
H279 C278 0.950 . S
C280 C278 1.375 . S
C280 C282 1.382 . S
C280 H284 0.950 . S
H281 C276 0.949 . S
C282 C277 1.399 . S
C282 C280 1.382 . S
C282 H283 0.952 . S
H283 C282 0.952 . S
H284 C280 0.950 . S
H285 C286 0.949 . S
C286 H285 0.949 . S
C286 C287 1.395 1_556 S
C286 C288 1.391 . S
C287 C286 1.395 1_554 S
C287 C290 1.390 . S
C288 C286 1.391 . S
C288 C292 1.387 . S
C288 C293 1.491 . S
H289 C290 0.950 . S
C290 C287 1.390 . S
C290 H289 0.950 . S
C290 C291 1.378 1_554 S
C291 C290 1.378 1_556 S
C291 C292 1.409 . S
C292 C288 1.387 . S
C292 C291 1.409 . S
C292 H294 0.951 1_545 S
C293 C288 1.491 . S
C293 C295 1.382 . S
C293 C297 1.404 . S
H294 C292 0.951 1_565 S
C295 C293 1.382 . S
C295 C296 1.390 . S
C295 H300 0.949 . S
C296 C295 1.390 . S
C296 C301 1.399 . S
C297 C293 1.404 . S
C297 H298 0.950 . S
C297 C299 1.375 . S
H298 C297 0.950 . S
C299 C297 1.375 . S
C299 C301 1.382 . S
C299 H303 0.950 . S
H300 C295 0.949 . S
C301 C296 1.399 . S
C301 C299 1.382 . S
C301 H302 0.952 . S
H302 C301 0.952 . S
H303 C299 0.950 . S
Mn304 O309 2.095 . S
Mn304 O319 2.162 . S
Mn304 O320 2.297 . S
Mn304 O328 2.385 . S
Mn304 O329 2.172 1_554 S
Mn304 O330 2.094 . S
Mn305 O310 2.121 1_556 S
Mn305 N312 2.257 . S
Mn305 N321 2.282 . S
Mn305 O329 2.235 . S
Mn305 O331 2.117 1_556 S
C306 O328 1.234 1_556 S
C306 O329 1.277 . S
C307 O319 1.281 . S
C307 O320 1.236 . S
C308 O330 1.240 . S
C308 O331 1.264 . S
O309 Mn304 2.095 . S
O309 C318 1.250 . S
O310 Mn305 2.121 1_554 S
O310 C318 1.258 . S
C311 N312 1.326 . S
C311 C315 1.460 . S
C311 H317 0.929 . S
N312 Mn305 2.257 . S
N312 C311 1.326 . S
N312 C316 1.362 . S
C313 C314 1.258 . S
C313 C316 1.431 . S
C313 C333 1.449 . S
C314 C313 1.258 . S
C314 C315 1.477 . S
C314 H334 0.931 . S
C315 C311 1.460 . S
C315 C314 1.477 . S
C315 H335 0.930 . S
C316 N312 1.362 . S
C316 C313 1.431 . S
C316 C326 1.476 . S
H317 C311 0.929 . S
C318 O309 1.250 . S
C318 O310 1.258 . S
O319 Mn304 2.162 . S
O319 C307 1.281 . S
O320 Mn304 2.297 . S
O320 C307 1.236 . S
N321 Mn305 2.282 . S
N321 C322 1.328 . S
N321 C326 1.318 . S
C322 N321 1.328 . S
C322 C323 1.457 . S
C322 H327 0.929 . S
C323 C322 1.457 . S
C323 C324 1.291 . S
C323 H336 0.931 . S
C324 C323 1.291 . S
C324 C325 1.373 . S
C324 H337 0.929 . S
C325 C324 1.373 . S
C325 C326 1.396 . S
C325 C332 1.403 . S
C326 C316 1.476 . S
C326 N321 1.318 . S
C326 C325 1.396 . S
H327 C322 0.929 . S
O328 Mn304 2.385 . S
O328 C306 1.234 1_554 S
O329 Mn304 2.172 1_556 S
O329 Mn305 2.235 . S
O329 C306 1.277 . S
O330 Mn304 2.094 . S
O330 C308 1.240 . S
O331 Mn305 2.117 1_554 S
O331 C308 1.264 . S
C332 C325 1.403 . S
C332 C333 1.399 . S
C332 H338 0.929 . S
C333 C313 1.449 . S
C333 C332 1.399 . S
C333 H339 0.930 . S
H334 C314 0.931 . S
H335 C315 0.930 . S
H336 C323 0.931 . S
H337 C324 0.929 . S
H338 C332 0.929 . S
H339 C333 0.930 . S
Mn340 O345 2.095 . S
Mn340 O355 2.162 . S
Mn340 O356 2.297 . S
Mn340 O364 2.385 . S
Mn340 O365 2.209 . S
Mn340 O366 2.094 . S
Mn341 O346 2.121 . S
Mn341 N348 2.257 . S
Mn341 N357 2.282 . S
Mn341 O365 2.215 . S
Mn341 O367 2.117 . S
C342 O364 1.234 . S
C342 O365 1.283 . S
C343 O355 1.281 . S
C343 O356 1.236 . S
C344 O366 1.240 . S
C344 O367 1.264 . S
O345 Mn340 2.095 . S
O345 C354 1.250 . S
O346 Mn341 2.121 . S
O346 C354 1.258 . S
C347 N348 1.326 . S
C347 C351 1.460 . S
C347 H353 0.929 . S
N348 Mn341 2.257 . S
N348 C347 1.326 . S
N348 C352 1.362 . S
C349 C350 1.258 . S
C349 C352 1.431 . S
C349 C369 1.449 . S
C350 C349 1.258 . S
C350 C351 1.477 . S
C350 H370 0.931 . S
C351 C347 1.460 . S
C351 C350 1.477 . S
C351 H371 0.930 . S
C352 N348 1.362 . S
C352 C349 1.431 . S
C352 C362 1.476 . S
H353 C347 0.929 . S
C354 O345 1.250 . S
C354 O346 1.258 . S
O355 Mn340 2.162 . S
O355 C343 1.281 . S
O356 Mn340 2.297 . S
O356 C343 1.236 . S
N357 Mn341 2.282 . S
N357 C358 1.328 . S
N357 C362 1.318 . S
C358 N357 1.328 . S
C358 C359 1.457 . S
C358 H363 0.929 . S
C359 C358 1.457 . S
C359 C360 1.291 . S
C359 H372 0.931 . S
C360 C359 1.291 . S
C360 C361 1.373 . S
C360 H373 0.929 . S
C361 C360 1.373 . S
C361 C362 1.396 . S
C361 C368 1.403 . S
C362 C352 1.476 . S
C362 N357 1.318 . S
C362 C361 1.396 . S
H363 C358 0.929 . S
O364 Mn340 2.385 . S
O364 C342 1.234 . S
O365 Mn340 2.209 . S
O365 Mn341 2.215 . S
O365 C342 1.283 . S
O366 Mn340 2.094 . S
O366 C344 1.240 . S
O367 Mn341 2.117 . S
O367 C344 1.264 . S
C368 C361 1.403 . S
C368 C369 1.399 . S
C368 H374 0.929 . S
C369 C349 1.449 . S
C369 C368 1.399 . S
C369 H375 0.930 . S
H370 C350 0.931 . S
H371 C351 0.930 . S
H372 C359 0.931 . S
H373 C360 0.929 . S
H374 C368 0.929 . S
H375 C369 0.930 . S
Mn376 O381 2.095 1_554 S
Mn376 O391 2.162 . S
Mn376 O392 2.297 1_554 S
Mn376 O400 2.385 . S
Mn376 O401 2.209 1_554 S
Mn376 O402 2.094 . S
Mn377 O382 2.121 . S
Mn377 N384 2.257 . S
Mn377 N393 2.282 1_556 S
Mn377 O401 2.215 . S
Mn377 O403 2.117 1_556 S
C378 O400 1.204 1_556 S
C378 O401 1.309 . S
C379 O391 1.281 1_556 S
C379 O392 1.236 . S
C380 O402 1.240 . S
C380 O403 1.264 . S
O381 Mn376 2.095 1_556 S
O381 C390 1.250 . S
O382 Mn377 2.121 . S
O382 C390 1.258 . S
C383 N384 1.326 . S
C383 C387 1.460 . S
C383 H389 0.929 . S
N384 Mn377 2.257 . S
N384 C383 1.326 . S
N384 C388 1.362 . S
C385 C386 1.258 . S
C385 C388 1.431 . S
C385 C405 1.449 . S
C386 C385 1.258 . S
C386 C387 1.477 . S
C386 H406 0.931 . S
C387 C383 1.460 . S
C387 C386 1.477 . S
C387 H407 0.930 . S
C388 N384 1.362 . S
C388 C385 1.431 . S
C388 C398 1.476 . S
H389 C383 0.929 . S
C390 O381 1.250 . S
C390 O382 1.258 . S
O391 Mn376 2.162 . S
O391 C379 1.281 1_554 S
O392 Mn376 2.297 1_556 S
O392 C379 1.236 . S
N393 Mn377 2.282 1_554 S
N393 C394 1.328 . S
N393 C398 1.318 1_554 S
C394 N393 1.328 . S
C394 C395 1.457 . S
C394 H399 0.929 . S
C395 C394 1.457 . S
C395 C396 1.291 . S
C395 H408 0.931 . S
C396 C395 1.291 . S
C396 C397 1.373 1_554 S
C396 H409 0.929 . S
C397 C396 1.373 1_556 S
C397 C398 1.396 . S
C397 C404 1.403 . S
C398 C388 1.476 . S
C398 N393 1.318 1_556 S
C398 C397 1.396 . S
H399 C394 0.929 . S
O400 Mn376 2.385 . S
O400 C378 1.204 1_554 S
O401 Mn376 2.209 1_556 S
O401 Mn377 2.215 . S
O401 C378 1.309 . S
O402 Mn376 2.094 . S
O402 C380 1.240 . S
O403 Mn377 2.117 1_554 S
O403 C380 1.264 . S
C404 C397 1.403 . S
C404 C405 1.399 . S
C404 H410 0.929 . S
C405 C385 1.449 . S
C405 C404 1.399 . S
C405 H411 0.930 . S
H406 C386 0.931 . S
H407 C387 0.930 . S
H408 C395 0.931 . S
H409 C396 0.929 . S
H410 C404 0.929 . S
H411 C405 0.930 . S
Mn412 O417 2.095 . S
Mn412 O427 2.162 . S
Mn412 O428 2.297 . S
Mn412 O436 2.385 . S
Mn412 O437 2.209 1_545 S
Mn412 O438 2.094 . S
Mn413 O418 2.121 . S
Mn413 N420 2.257 . S
Mn413 N429 2.282 . S
Mn413 O437 2.215 . S
Mn413 O439 2.117 . S
C414 O436 1.234 1_565 S
C414 O437 1.283 . S
C415 O427 1.281 . S
C415 O428 1.236 . S
C416 O438 1.240 . S
C416 O439 1.264 1_545 S
O417 Mn412 2.095 . S
O417 C426 1.250 . S
O418 Mn413 2.121 . S
O418 C426 1.258 1_565 S
C419 N420 1.326 . S
C419 C423 1.460 . S
C419 H425 0.929 . S
N420 Mn413 2.257 . S
N420 C419 1.326 . S
N420 C424 1.362 . S
C421 C422 1.258 . S
C421 C424 1.431 . S
C421 C441 1.449 . S
C422 C421 1.258 . S
C422 C423 1.477 . S
C422 H442 0.931 . S
C423 C419 1.460 . S
C423 C422 1.477 . S
C423 H443 0.930 . S
C424 N420 1.362 . S
C424 C421 1.431 . S
C424 C434 1.476 . S
H425 C419 0.929 . S
C426 O417 1.250 . S
C426 O418 1.258 1_545 S
O427 Mn412 2.162 . S
O427 C415 1.281 . S
O428 Mn412 2.297 . S
O428 C415 1.236 . S
N429 Mn413 2.282 . S
N429 C430 1.328 . S
N429 C434 1.318 . S
C430 N429 1.328 . S
C430 C431 1.457 . S
C430 H435 0.929 . S
C431 C430 1.457 . S
C431 C432 1.291 . S
C431 H444 0.931 . S
C432 C431 1.291 . S
C432 C433 1.373 . S
C432 H445 0.929 . S
C433 C432 1.373 . S
C433 C434 1.396 . S
C433 C440 1.403 . S
C434 C424 1.476 . S
C434 N429 1.318 . S
C434 C433 1.396 . S
H435 C430 0.929 . S
O436 Mn412 2.385 . S
O436 C414 1.234 1_545 S
O437 Mn412 2.209 1_565 S
O437 Mn413 2.215 . S
O437 C414 1.283 . S
O438 Mn412 2.094 . S
O438 C416 1.240 . S
O439 Mn413 2.117 . S
O439 C416 1.264 1_565 S
C440 C433 1.403 . S
C440 C441 1.399 . S
C440 H446 0.929 . S
C441 C421 1.449 . S
C441 C440 1.399 . S
C441 H447 0.930 . S
H442 C422 0.931 . S
H443 C423 0.930 . S
H444 C431 0.931 . S
H445 C432 0.929 . S
H446 C440 0.929 . S
H447 C441 0.930 . S
Mn448 O453 2.095 . S
Mn448 O463 2.162 . S
Mn448 O464 2.297 . S
Mn448 O472 2.385 . S
Mn448 O473 2.209 . S
Mn448 O474 2.094 . S
Mn449 O454 2.121 . S
Mn449 N456 2.257 . S
Mn449 N465 2.282 . S
Mn449 O473 2.215 . S
Mn449 O475 2.117 . S
C450 O472 1.234 . S
C450 O473 1.283 . S
C451 O463 1.281 . S
C451 O464 1.236 . S
C452 O474 1.240 . S
C452 O475 1.264 . S
O453 Mn448 2.095 . S
O453 C462 1.250 . S
O454 Mn449 2.121 . S
O454 C462 1.258 . S
C455 N456 1.326 . S
C455 C459 1.460 . S
C455 H461 0.929 . S
N456 Mn449 2.257 . S
N456 C455 1.326 . S
N456 C460 1.362 . S
C457 C458 1.258 . S
C457 C460 1.431 . S
C457 C477 1.449 . S
C458 C457 1.258 . S
C458 C459 1.477 . S
C458 H478 0.931 . S
C459 C455 1.460 . S
C459 C458 1.477 . S
C459 H479 0.930 . S
C460 N456 1.362 . S
C460 C457 1.431 . S
C460 C470 1.476 . S
H461 C455 0.929 . S
C462 O453 1.250 . S
C462 O454 1.258 . S
O463 Mn448 2.162 . S
O463 C451 1.281 . S
O464 Mn448 2.297 . S
O464 C451 1.236 . S
N465 Mn449 2.282 . S
N465 C466 1.328 . S
N465 C470 1.318 . S
C466 N465 1.328 . S
C466 C467 1.457 . S
C466 H471 0.929 . S
C467 C466 1.457 . S
C467 C468 1.291 . S
C467 H480 0.931 . S
C468 C467 1.291 . S
C468 C469 1.373 . S
C468 H481 0.929 . S
C469 C468 1.373 . S
C469 C470 1.396 . S
C469 C476 1.403 . S
C470 C460 1.476 . S
C470 N465 1.318 . S
C470 C469 1.396 . S
H471 C466 0.929 . S
O472 Mn448 2.385 . S
O472 C450 1.234 . S
O473 Mn448 2.209 . S
O473 Mn449 2.215 . S
O473 C450 1.283 . S
O474 Mn448 2.094 . S
O474 C452 1.240 . S
O475 Mn449 2.117 . S
O475 C452 1.264 . S
C476 C469 1.403 . S
C476 C477 1.399 . S
C476 H482 0.929 . S
C477 C457 1.449 . S
C477 C476 1.399 . S
C477 H483 0.930 . S
H478 C458 0.931 . S
H479 C459 0.930 . S
H480 C467 0.931 . S
H481 C468 0.929 . S
H482 C476 0.929 . S
H483 C477 0.930 . S
Mn484 O489 2.095 . S
Mn484 O499 2.162 . S
Mn484 O500 2.297 . S
Mn484 O508 2.385 . S
Mn484 O509 2.209 . S
Mn484 O510 2.094 . S
Mn485 O490 2.121 . S
Mn485 N492 2.257 . S
Mn485 N501 2.282 . S
Mn485 O509 2.215 . S
Mn485 O511 2.117 . S
C486 O508 1.234 . S
C486 O509 1.283 . S
C487 O499 1.281 . S
C487 O500 1.236 . S
C488 O510 1.240 . S
C488 O511 1.264 . S
O489 Mn484 2.095 . S
O489 C498 1.250 . S
O490 Mn485 2.121 . S
O490 C498 1.258 . S
C491 N492 1.326 . S
C491 C495 1.460 . S
C491 H497 0.929 . S
N492 Mn485 2.257 . S
N492 C491 1.326 . S
N492 C496 1.362 . S
C493 C494 1.258 . S
C493 C496 1.431 . S
C493 C513 1.449 . S
C494 C493 1.258 . S
C494 C495 1.477 . S
C494 H514 0.931 . S
C495 C491 1.460 . S
C495 C494 1.477 . S
C495 H515 0.930 . S
C496 N492 1.362 . S
C496 C493 1.431 . S
C496 C506 1.476 . S
H497 C491 0.929 . S
C498 O489 1.250 . S
C498 O490 1.258 . S
O499 Mn484 2.162 . S
O499 C487 1.281 . S
O500 Mn484 2.297 . S
O500 C487 1.236 . S
N501 Mn485 2.282 . S
N501 C502 1.328 . S
N501 C506 1.318 . S
C502 N501 1.328 . S
C502 C503 1.457 . S
C502 H507 0.929 . S
C503 C502 1.457 . S
C503 C504 1.291 . S
C503 H516 0.931 . S
C504 C503 1.291 . S
C504 C505 1.373 . S
C504 H517 0.929 . S
C505 C504 1.373 . S
C505 C506 1.396 . S
C505 C512 1.403 . S
C506 C496 1.476 . S
C506 N501 1.318 . S
C506 C505 1.396 . S
H507 C502 0.929 . S
O508 Mn484 2.385 . S
O508 C486 1.234 . S
O509 Mn484 2.209 . S
O509 Mn485 2.215 . S
O509 C486 1.283 . S
O510 Mn484 2.094 . S
O510 C488 1.240 . S
O511 Mn485 2.117 . S
O511 C488 1.264 . S
C512 C505 1.403 . S
C512 C513 1.399 . S
C512 H518 0.929 . S
C513 C493 1.449 . S
C513 C512 1.399 . S
C513 H519 0.930 . S
H514 C494 0.931 . S
H515 C495 0.930 . S
H516 C503 0.931 . S
H517 C504 0.929 . S
H518 C512 0.929 . S
H519 C513 0.930 . S
Mn520 O525 2.095 . S
Mn520 O535 2.162 . S
Mn520 O536 2.297 . S
Mn520 O544 2.385 . S
Mn520 O545 2.209 . S
Mn520 O546 2.094 . S
Mn521 O526 2.121 . S
Mn521 N528 2.257 . S
Mn521 N537 2.282 . S
Mn521 O545 2.215 . S
Mn521 O547 2.117 . S
C522 O544 1.234 . S
C522 O545 1.283 . S
C523 O535 1.281 . S
C523 O536 1.236 . S
C524 O546 1.240 . S
C524 O547 1.264 . S
O525 Mn520 2.095 . S
O525 C534 1.250 . S
O526 Mn521 2.121 . S
O526 C534 1.258 . S
C527 N528 1.326 . S
C527 C531 1.460 . S
C527 H533 0.929 . S
N528 Mn521 2.257 . S
N528 C527 1.326 . S
N528 C532 1.362 . S
C529 C530 1.258 . S
C529 C532 1.431 . S
C529 C549 1.449 . S
C530 C529 1.258 . S
C530 C531 1.477 . S
C530 H550 0.931 . S
C531 C527 1.460 . S
C531 C530 1.477 . S
C531 H551 0.930 . S
C532 N528 1.362 . S
C532 C529 1.431 . S
C532 C542 1.476 . S
H533 C527 0.929 . S
C534 O525 1.250 . S
C534 O526 1.258 . S
O535 Mn520 2.162 . S
O535 C523 1.281 . S
O536 Mn520 2.297 . S
O536 C523 1.236 . S
N537 Mn521 2.282 . S
N537 C538 1.328 . S
N537 C542 1.318 . S
C538 N537 1.328 . S
C538 C539 1.457 . S
C538 H543 0.929 . S
C539 C538 1.457 . S
C539 C540 1.291 . S
C539 H552 0.931 . S
C540 C539 1.291 . S
C540 C541 1.373 . S
C540 H553 0.929 . S
C541 C540 1.373 . S
C541 C542 1.396 . S
C541 C548 1.403 . S
C542 C532 1.476 . S
C542 N537 1.318 . S
C542 C541 1.396 . S
H543 C538 0.929 . S
O544 Mn520 2.385 . S
O544 C522 1.234 . S
O545 Mn520 2.209 . S
O545 Mn521 2.215 . S
O545 C522 1.283 . S
O546 Mn520 2.094 . S
O546 C524 1.240 . S
O547 Mn521 2.117 . S
O547 C524 1.264 . S
C548 C541 1.403 . S
C548 C549 1.399 . S
C548 H554 0.929 . S
C549 C529 1.449 . S
C549 C548 1.399 . S
C549 H555 0.930 . S
H550 C530 0.931 . S
H551 C531 0.930 . S
H552 C539 0.931 . S
H553 C540 0.929 . S
H554 C548 0.929 . S
H555 C549 0.930 . S
Mn556 O561 2.095 . S
Mn556 O571 2.162 1_545 S
Mn556 O572 2.297 . S
Mn556 O580 2.385 . S
Mn556 O581 2.209 . S
Mn556 O582 2.094 . S
Mn557 O562 2.121 . S
Mn557 N564 2.257 . S
Mn557 N573 2.282 . S
Mn557 O581 2.215 . S
Mn557 O583 2.117 . S
C558 O580 1.234 . S
C558 O581 1.283 . S
C559 O571 1.281 . S
C559 O572 1.236 1_565 S
C560 O582 1.240 . S
C560 O583 1.264 . S
O561 Mn556 2.095 . S
O561 C570 1.250 . S
O562 Mn557 2.121 . S
O562 C570 1.258 . S
C563 N564 1.326 . S
C563 C567 1.460 . S
C563 H569 0.929 . S
N564 Mn557 2.257 . S
N564 C563 1.326 . S
N564 C568 1.362 . S
C565 C566 1.258 . S
C565 C568 1.431 . S
C565 C585 1.449 . S
C566 C565 1.258 . S
C566 C567 1.477 . S
C566 H586 0.931 . S
C567 C563 1.460 . S
C567 C566 1.477 . S
C567 H587 0.930 . S
C568 N564 1.362 . S
C568 C565 1.431 . S
C568 C578 1.476 . S
H569 C563 0.929 . S
C570 O561 1.250 . S
C570 O562 1.258 . S
O571 Mn556 2.162 1_565 S
O571 C559 1.281 . S
O572 Mn556 2.297 . S
O572 C559 1.236 1_545 S
N573 Mn557 2.282 . S
N573 C574 1.328 . S
N573 C578 1.318 . S
C574 N573 1.328 . S
C574 C575 1.457 . S
C574 H579 0.929 . S
C575 C574 1.457 . S
C575 C576 1.291 . S
C575 H588 0.931 . S
C576 C575 1.291 . S
C576 C577 1.373 . S
C576 H589 0.929 . S
C577 C576 1.373 . S
C577 C578 1.396 . S
C577 C584 1.403 . S
C578 C568 1.476 . S
C578 N573 1.318 . S
C578 C577 1.396 . S
H579 C574 0.929 . S
O580 Mn556 2.385 . S
O580 C558 1.234 . S
O581 Mn556 2.209 . S
O581 Mn557 2.215 . S
O581 C558 1.283 . S
O582 Mn556 2.094 . S
O582 C560 1.240 . S
O583 Mn557 2.117 . S
O583 C560 1.264 . S
C584 C577 1.403 . S
C584 C585 1.399 . S
C584 H590 0.929 . S
C585 C565 1.449 . S
C585 C584 1.399 . S
C585 H591 0.930 . S
H586 C566 0.931 . S
H587 C567 0.930 . S
H588 C575 0.931 . S
H589 C576 0.929 . S
H590 C584 0.929 . S
H591 C585 0.930 . S
Mn592 O597 2.095 . S
Mn592 O607 2.162 . S
Mn592 O608 2.297 . S
Mn592 O616 2.385 1_455 S
Mn592 O617 2.209 1_455 S
Mn592 O618 2.094 . S
Mn593 O598 2.121 . S
Mn593 N600 2.257 . S
Mn593 N609 2.282 . S
Mn593 O617 2.215 . S
Mn593 O619 2.117 . S
C594 O616 1.234 . S
C594 O617 1.283 . S
C595 O607 1.281 . S
C595 O608 1.236 . S
C596 O618 1.240 . S
C596 O619 1.264 1_455 S
O597 Mn592 2.095 . S
O597 C606 1.250 . S
O598 Mn593 2.121 . S
O598 C606 1.258 1_655 S
C599 N600 1.326 . S
C599 C603 1.460 . S
C599 H605 0.929 . S
N600 Mn593 2.257 . S
N600 C599 1.326 . S
N600 C604 1.362 . S
C601 C602 1.258 . S
C601 C604 1.431 . S
C601 C621 1.449 . S
C602 C601 1.258 . S
C602 C603 1.477 . S
C602 H622 0.931 . S
C603 C599 1.460 . S
C603 C602 1.477 . S
C603 H623 0.930 . S
C604 N600 1.362 . S
C604 C601 1.431 . S
C604 C614 1.476 . S
H605 C599 0.929 . S
C606 O597 1.250 . S
C606 O598 1.258 1_455 S
O607 Mn592 2.162 . S
O607 C595 1.281 . S
O608 Mn592 2.297 . S
O608 C595 1.236 . S
N609 Mn593 2.282 . S
N609 C610 1.328 . S
N609 C614 1.318 . S
C610 N609 1.328 . S
C610 C611 1.457 . S
C610 H615 0.929 . S
C611 C610 1.457 . S
C611 C612 1.291 . S
C611 H624 0.931 . S
C612 C611 1.291 . S
C612 C613 1.373 . S
C612 H625 0.929 . S
C613 C612 1.373 . S
C613 C614 1.396 . S
C613 C620 1.403 . S
C614 C604 1.476 . S
C614 N609 1.318 . S
C614 C613 1.396 . S
H615 C610 0.929 . S
O616 Mn592 2.385 1_655 S
O616 C594 1.234 . S
O617 Mn592 2.209 1_655 S
O617 Mn593 2.215 . S
O617 C594 1.283 . S
O618 Mn592 2.094 . S
O618 C596 1.240 . S
O619 Mn593 2.117 . S
O619 C596 1.264 1_655 S
C620 C613 1.403 . S
C620 C621 1.399 . S
C620 H626 0.929 . S
C621 C601 1.449 . S
C621 C620 1.399 . S
C621 H627 0.930 . S
H622 C602 0.931 . S
H623 C603 0.930 . S
H624 C611 0.931 . S
H625 C612 0.929 . S
H626 C620 0.929 . S
H627 C621 0.930 . S
Mn628 O633 2.095 . S
Mn628 O643 2.162 . S
Mn628 O644 2.297 . S
Mn628 O652 2.385 . S
Mn628 O653 2.209 . S
Mn628 O654 2.094 . S
Mn629 O634 2.121 . S
Mn629 N636 2.257 . S
Mn629 N645 2.282 . S
Mn629 O653 2.215 . S
Mn629 O655 2.117 . S
C630 O652 1.234 . S
C630 O653 1.283 . S
C631 O643 1.281 . S
C631 O644 1.236 . S
C632 O654 1.240 . S
C632 O655 1.264 . S
O633 Mn628 2.095 . S
O633 C642 1.250 . S
O634 Mn629 2.121 . S
O634 C642 1.258 . S
C635 N636 1.326 . S
C635 C639 1.460 . S
C635 H641 0.929 . S
N636 Mn629 2.257 . S
N636 C635 1.326 . S
N636 C640 1.362 . S
C637 C638 1.258 . S
C637 C640 1.431 . S
C637 C657 1.449 . S
C638 C637 1.258 . S
C638 C639 1.477 . S
C638 H658 0.931 . S
C639 C635 1.460 . S
C639 C638 1.477 . S
C639 H659 0.930 . S
C640 N636 1.362 . S
C640 C637 1.431 . S
C640 C650 1.476 . S
H641 C635 0.929 . S
C642 O633 1.250 . S
C642 O634 1.258 . S
O643 Mn628 2.162 . S
O643 C631 1.281 . S
O644 Mn628 2.297 . S
O644 C631 1.236 . S
N645 Mn629 2.282 . S
N645 C646 1.328 . S
N645 C650 1.318 . S
C646 N645 1.328 . S
C646 C647 1.457 . S
C646 H651 0.929 . S
C647 C646 1.457 . S
C647 C648 1.291 . S
C647 H660 0.931 . S
C648 C647 1.291 . S
C648 C649 1.373 . S
C648 H661 0.929 . S
C649 C648 1.373 . S
C649 C650 1.396 . S
C649 C656 1.403 . S
C650 C640 1.476 . S
C650 N645 1.318 . S
C650 C649 1.396 . S
H651 C646 0.929 . S
O652 Mn628 2.385 . S
O652 C630 1.234 . S
O653 Mn628 2.209 . S
O653 Mn629 2.215 . S
O653 C630 1.283 . S
O654 Mn628 2.094 . S
O654 C632 1.240 . S
O655 Mn629 2.117 . S
O655 C632 1.264 . S
C656 C649 1.403 . S
C656 C657 1.399 . S
C656 H662 0.929 . S
C657 C637 1.449 . S
C657 C656 1.399 . S
C657 H663 0.930 . S
H658 C638 0.931 . S
H659 C639 0.930 . S
H660 C647 0.931 . S
H661 C648 0.929 . S
H662 C656 0.929 . S
H663 C657 0.930 . S
Mn664 O669 2.095 1_455 S
Mn664 O679 2.162 . S
Mn664 O680 2.297 1_455 S
Mn664 O688 2.385 . S
Mn664 O689 2.209 1_455 S
Mn664 O690 2.094 . S
Mn665 O670 2.121 . S
Mn665 N672 2.257 . S
Mn665 N681 2.282 . S
Mn665 O689 2.215 . S
Mn665 O691 2.117 1_655 S
C666 O688 1.234 . S
C666 O689 1.283 1_455 S
C667 O679 1.281 . S
C667 O680 1.236 1_455 S
C668 O690 1.240 . S
C668 O691 1.264 . S
O669 Mn664 2.095 1_655 S
O669 C678 1.250 . S
O670 Mn665 2.121 . S
O670 C678 1.258 . S
C671 N672 1.326 . S
C671 C675 1.460 . S
C671 H677 0.929 . S
N672 Mn665 2.257 . S
N672 C671 1.326 . S
N672 C676 1.362 . S
C673 C674 1.258 . S
C673 C676 1.431 . S
C673 C693 1.449 . S
C674 C673 1.258 . S
C674 C675 1.477 . S
C674 H694 0.931 . S
C675 C671 1.460 . S
C675 C674 1.477 . S
C675 H695 0.930 . S
C676 N672 1.362 . S
C676 C673 1.431 . S
C676 C686 1.476 . S
H677 C671 0.929 . S
C678 O669 1.250 . S
C678 O670 1.258 . S
O679 Mn664 2.162 . S
O679 C667 1.281 . S
O680 Mn664 2.297 1_655 S
O680 C667 1.236 1_655 S
N681 Mn665 2.282 . S
N681 C682 1.328 1_655 S
N681 C686 1.318 . S
C682 N681 1.328 1_455 S
C682 C683 1.457 . S
C682 H687 0.929 . S
C683 C682 1.457 . S
C683 C684 1.291 . S
C683 H696 0.931 . S
C684 C683 1.291 . S
C684 C685 1.373 1_455 S
C684 H697 0.929 . S
C685 C684 1.373 1_655 S
C685 C686 1.396 . S
C685 C692 1.403 . S
C686 C676 1.476 . S
C686 N681 1.318 . S
C686 C685 1.396 . S
H687 C682 0.929 . S
O688 Mn664 2.385 . S
O688 C666 1.234 . S
O689 Mn664 2.209 1_655 S
O689 Mn665 2.215 . S
O689 C666 1.283 1_655 S
O690 Mn664 2.094 . S
O690 C668 1.240 . S
O691 Mn665 2.117 1_455 S
O691 C668 1.264 . S
C692 C685 1.403 . S
C692 C693 1.399 . S
C692 H698 0.929 . S
C693 C673 1.449 . S
C693 C692 1.399 . S
C693 H699 0.930 . S
H694 C674 0.931 . S
H695 C675 0.930 . S
H696 C683 0.931 . S
H697 C684 0.929 . S
H698 C692 0.929 . S
H699 C693 0.930 . S
Mn700 O705 2.095 . S
Mn700 O715 2.162 . S
Mn700 O716 2.297 . S
Mn700 O724 2.385 . S
Mn700 O725 2.209 . S
Mn700 O726 2.094 . S
Mn701 O706 2.121 . S
Mn701 N708 2.257 . S
Mn701 N717 2.282 . S
Mn701 O725 2.215 . S
Mn701 O727 2.117 . S
C702 O724 1.234 . S
C702 O725 1.283 . S
C703 O715 1.281 . S
C703 O716 1.236 . S
C704 O726 1.240 . S
C704 O727 1.264 . S
O705 Mn700 2.095 . S
O705 C714 1.250 . S
O706 Mn701 2.121 . S
O706 C714 1.258 . S
C707 N708 1.326 . S
C707 C711 1.460 . S
C707 H713 0.929 . S
N708 Mn701 2.257 . S
N708 C707 1.326 . S
N708 C712 1.362 . S
C709 C710 1.258 . S
C709 C712 1.431 . S
C709 C729 1.449 . S
C710 C709 1.258 . S
C710 C711 1.477 . S
C710 H730 0.931 . S
C711 C707 1.460 . S
C711 C710 1.477 . S
C711 H731 0.930 . S
C712 N708 1.362 . S
C712 C709 1.431 . S
C712 C722 1.476 . S
H713 C707 0.929 . S
C714 O705 1.250 . S
C714 O706 1.258 . S
O715 Mn700 2.162 . S
O715 C703 1.281 . S
O716 Mn700 2.297 . S
O716 C703 1.236 . S
N717 Mn701 2.282 . S
N717 C718 1.328 . S
N717 C722 1.318 . S
C718 N717 1.328 . S
C718 C719 1.457 . S
C718 H723 0.929 . S
C719 C718 1.457 . S
C719 C720 1.291 . S
C719 H732 0.931 . S
C720 C719 1.291 . S
C720 C721 1.373 . S
C720 H733 0.929 . S
C721 C720 1.373 . S
C721 C722 1.396 . S
C721 C728 1.403 . S
C722 C712 1.476 . S
C722 N717 1.318 . S
C722 C721 1.396 . S
H723 C718 0.929 . S
O724 Mn700 2.385 . S
O724 C702 1.234 . S
O725 Mn700 2.209 . S
O725 Mn701 2.215 . S
O725 C702 1.283 . S
O726 Mn700 2.094 . S
O726 C704 1.240 . S
O727 Mn701 2.117 . S
O727 C704 1.264 . S
C728 C721 1.403 . S
C728 C729 1.399 . S
C728 H734 0.929 . S
C729 C709 1.449 . S
C729 C728 1.399 . S
C729 H735 0.930 . S
H730 C710 0.931 . S
H731 C711 0.930 . S
H732 C719 0.931 . S
H733 C720 0.929 . S
H734 C728 0.929 . S
H735 C729 0.930 . S
C736 C737 1.369 . S
C736 C738 1.419 . S
C736 H740 0.930 . S
C737 C736 1.369 . S
C737 C746 1.429 . S
C738 C736 1.419 . S
C738 C739 1.363 . S
C738 H741 0.929 . S
C739 C738 1.363 . S
C739 C745 1.428 . S
H740 C736 0.930 . S
H741 C738 0.929 . S
S742 N743 1.613 1_554 S
S742 N744 1.610 . S
N743 S742 1.613 1_556 S
N743 C746 1.350 . S
N744 S742 1.610 . S
N744 C745 1.351 1_554 S
C745 C739 1.428 . S
C745 N744 1.351 1_556 S
C745 C746 1.434 . S
C746 C737 1.429 . S
C746 N743 1.350 . S
C746 C745 1.434 . S
C747 C748 1.369 . S
C747 C749 1.419 . S
C747 H751 0.930 . S
C748 C747 1.369 . S
C748 C757 1.429 . S
C749 C747 1.419 . S
C749 C750 1.363 . S
C749 H752 0.929 . S
C750 C749 1.363 . S
C750 C756 1.428 . S
H751 C747 0.930 . S
H752 C749 0.929 . S
S753 N754 1.613 . S
S753 N755 1.610 . S
N754 S753 1.613 . S
N754 C757 1.350 . S
N755 S753 1.610 . S
N755 C756 1.351 . S
C756 C750 1.428 . S
C756 N755 1.351 . S
C756 C757 1.434 . S
C757 C748 1.429 . S
C757 N754 1.350 . S
C757 C756 1.434 . S
C758 C759 1.369 . S
C758 C760 1.419 . S
C758 H762 0.930 . S
C759 C758 1.369 . S
C759 C768 1.429 . S
C760 C758 1.419 . S
C760 C761 1.363 . S
C760 H763 0.929 . S
C761 C760 1.363 . S
C761 C767 1.428 . S
H762 C758 0.930 . S
H763 C760 0.929 . S
S764 N765 1.613 . S
S764 N766 1.610 . S
N765 S764 1.613 . S
N765 C768 1.350 . S
N766 S764 1.610 . S
N766 C767 1.351 . S
C767 C761 1.428 . S
C767 N766 1.351 . S
C767 C768 1.434 . S
C768 C759 1.429 . S
C768 N765 1.350 . S
C768 C767 1.434 . S
C769 C770 1.369 . S
C769 C771 1.419 . S
C769 H773 0.930 . S
C770 C769 1.369 . S
C770 C779 1.429 1_545 S
C771 C769 1.419 . S
C771 C772 1.363 . S
C771 H774 0.929 . S
C772 C771 1.363 . S
C772 C778 1.428 1_545 S
H773 C769 0.930 . S
H774 C771 0.929 . S
S775 N776 1.613 1_655 S
S775 N777 1.610 . S
N776 S775 1.613 1_455 S
N776 C779 1.350 . S
N777 S775 1.610 . S
N777 C778 1.351 1_655 S
C778 C772 1.428 1_565 S
C778 N777 1.351 1_455 S
C778 C779 1.434 . S
C779 C770 1.429 1_565 S
C779 N776 1.350 . S
C779 C778 1.434 . S
C780 C781 1.369 . S
C780 C782 1.419 . S
C780 H784 0.930 . S
C781 C780 1.369 . S
C781 C790 1.429 . S
C782 C780 1.419 . S
C782 C783 1.363 . S
C782 H785 0.929 . S
C783 C782 1.363 . S
C783 C789 1.428 . S
H784 C780 0.930 . S
H785 C782 0.929 . S
S786 N787 1.613 . S
S786 N788 1.610 . S
N787 S786 1.613 . S
N787 C790 1.350 . S
N788 S786 1.610 . S
N788 C789 1.351 . S
C789 C783 1.428 . S
C789 N788 1.351 . S
C789 C790 1.434 . S
C790 C781 1.429 . S
C790 N787 1.350 . S
C790 C789 1.434 . S
C791 C792 1.369 . S
C791 C793 1.419 . S
C791 H795 0.930 . S
C792 C791 1.369 . S
C792 C801 1.429 . S
C793 C791 1.419 . S
C793 C794 1.363 . S
C793 H796 0.929 . S
C794 C793 1.363 . S
C794 C800 1.428 . S
H795 C791 0.930 . S
H796 C793 0.929 . S
S797 N798 1.613 . S
S797 N799 1.610 . S
N798 S797 1.613 . S
N798 C801 1.350 . S
N799 S797 1.610 . S
N799 C800 1.351 . S
C800 C794 1.428 . S
C800 N799 1.351 . S
C800 C801 1.434 . S
C801 C792 1.429 . S
C801 N798 1.350 . S
C801 C800 1.434 . S
C802 C803 1.369 . S
C802 C804 1.419 . S
C802 H806 0.930 . S
C803 C802 1.369 . S
C803 C812 1.429 . S
C804 C802 1.419 . S
C804 C805 1.363 . S
C804 H807 0.929 . S
C805 C804 1.363 . S
C805 C811 1.428 . S
H806 C802 0.930 . S
H807 C804 0.929 . S
S808 N809 1.613 . S
S808 N810 1.610 . S
N809 S808 1.613 . S
N809 C812 1.350 . S
N810 S808 1.610 . S
N810 C811 1.351 . S
C811 C805 1.428 . S
C811 N810 1.351 . S
C811 C812 1.434 . S
C812 C803 1.429 . S
C812 N809 1.350 . S
C812 C811 1.434 . S
C813 C814 1.360 1_565 S
C813 C815 1.419 . S
C813 H817 0.930 . S
C814 C813 1.360 1_545 S
C814 C823 1.437 . S
C815 C813 1.419 . S
C815 C816 1.363 1_565 S
C815 H818 0.929 . S
C816 C815 1.363 1_545 S
C816 C822 1.428 . S
H817 C813 0.930 . S
H818 C815 0.929 . S
S819 N820 1.613 . S
S819 N821 1.610 . S
N820 S819 1.613 . S
N820 C823 1.350 . S
N821 S819 1.610 . S
N821 C822 1.351 . S
C822 C816 1.428 . S
C822 N821 1.351 . S
C822 C823 1.434 . S
C823 C814 1.437 . S
C823 N820 1.350 . S
C823 C822 1.434 . S
C824 C825 1.369 . S
C824 C826 1.419 . S
C824 H828 0.930 . S
C825 C824 1.369 . S
C825 C834 1.429 . S
C826 C824 1.419 . S
C826 C827 1.363 . S
C826 H829 0.929 . S
C827 C826 1.363 . S
C827 C833 1.428 . S
H828 C824 0.930 . S
H829 C826 0.929 . S
S830 N831 1.613 . S
S830 N832 1.610 . S
N831 S830 1.613 . S
N831 C834 1.350 . S
N832 S830 1.610 . S
N832 C833 1.351 . S
C833 C827 1.428 . S
C833 N832 1.351 . S
C833 C834 1.434 . S
C834 C825 1.429 . S
C834 N831 1.350 . S
C834 C833 1.434 . S
C835 C836 1.369 . S
C835 C837 1.419 . S
C835 H839 0.930 . S
C836 C835 1.369 . S
C836 C845 1.429 . S
C837 C835 1.419 . S
C837 C838 1.363 . S
C837 H840 0.929 . S
C838 C837 1.363 . S
C838 C844 1.428 . S
H839 C835 0.930 . S
H840 C837 0.929 . S
S841 N842 1.613 . S
S841 N843 1.610 . S
N842 S841 1.613 . S
N842 C845 1.350 . S
N843 S841 1.610 . S
N843 C844 1.351 . S
C844 C838 1.428 . S
C844 N843 1.351 . S
C844 C845 1.434 . S
C845 C836 1.429 . S
C845 N842 1.350 . S
C845 C844 1.434 . S
C846 C847 1.369 . S
C846 C848 1.419 . S
C846 H850 0.930 . S
C847 C846 1.369 . S
C847 C856 1.429 . S
C848 C846 1.419 . S
C848 C849 1.363 . S
C848 H851 0.929 . S
C849 C848 1.363 . S
C849 C855 1.428 . S
H850 C846 0.930 . S
H851 C848 0.929 . S
S852 N853 1.613 . S
S852 N854 1.610 . S
N853 S852 1.613 . S
N853 C856 1.350 . S
N854 S852 1.610 . S
N854 C855 1.351 . S
C855 C849 1.428 . S
C855 N854 1.351 . S
C855 C856 1.434 . S
C856 C847 1.429 . S
C856 N853 1.350 . S
C856 C855 1.434 . S
C857 C858 1.369 . S
C857 C859 1.419 . S
C857 H861 0.930 . S
C858 C857 1.369 . S
C858 C867 1.429 . S
C859 C857 1.419 . S
C859 C860 1.363 . S
C859 H862 0.929 . S
C860 C859 1.363 . S
C860 C866 1.428 . S
H861 C857 0.930 . S
H862 C859 0.929 . S
S863 N864 1.613 . S
S863 N865 1.610 . S
N864 S863 1.613 . S
N864 C867 1.350 . S
N865 S863 1.610 . S
N865 C866 1.351 . S
C866 C860 1.428 . S
C866 N865 1.351 . S
C866 C867 1.434 . S
C867 C858 1.429 . S
C867 N864 1.350 . S
C867 C866 1.434 . S
C868 C869 1.369 . S
C868 C870 1.419 . S
C868 H872 0.930 . S
C869 C868 1.369 . S
C869 C878 1.429 . S
C870 C868 1.419 . S
C870 C871 1.363 . S
C870 H873 0.929 . S
C871 C870 1.363 . S
C871 C877 1.428 . S
H872 C868 0.930 . S
H873 C870 0.929 . S
S874 N875 1.613 . S
S874 N876 1.610 . S
N875 S874 1.613 . S
N875 C878 1.350 . S
N876 S874 1.610 . S
N876 C877 1.351 . S
C877 C871 1.428 . S
C877 N876 1.351 . S
C877 C878 1.434 . S
C878 C869 1.429 . S
C878 N875 1.350 . S
C878 C877 1.434 . S
C879 C880 1.369 . S
C879 C881 1.419 . S
C879 H883 0.930 . S
C880 C879 1.369 . S
C880 C889 1.429 . S
C881 C879 1.419 . S
C881 C882 1.363 . S
C881 H884 0.929 . S
C882 C881 1.363 . S
C882 C888 1.428 . S
H883 C879 0.930 . S
H884 C881 0.929 . S
S885 N886 1.613 1_655 S
S885 N887 1.610 . S
N886 S885 1.613 1_455 S
N886 C889 1.350 . S
N887 S885 1.610 . S
N887 C888 1.351 1_655 S
C888 C882 1.428 . S
C888 N887 1.351 1_455 S
C888 C889 1.434 . S
C889 C880 1.429 . S
C889 N886 1.350 . S
C889 C888 1.434 . S
C890 C891 1.369 . S
C890 C892 1.419 . S
C890 H894 0.930 . S
C891 C890 1.369 . S
C891 C900 1.429 . S
C892 C890 1.419 . S
C892 C893 1.363 . S
C892 H895 0.929 . S
C893 C892 1.363 . S
C893 C899 1.428 . S
H894 C890 0.930 . S
H895 C892 0.929 . S
S896 N897 1.613 . S
S896 N898 1.610 . S
N897 S896 1.613 . S
N897 C900 1.350 . S
N898 S896 1.610 . S
N898 C899 1.351 . S
C899 C893 1.428 . S
C899 N898 1.351 . S
C899 C900 1.434 . S
C900 C891 1.429 . S
C900 N897 1.350 . S
C900 C899 1.434 . S
C901 C902 1.369 . S
C901 C903 1.419 . S
C901 H905 0.930 . S
C902 C901 1.369 . S
C902 C911 1.429 1_655 S
C903 C901 1.419 . S
C903 C904 1.363 . S
C903 H906 0.929 . S
C904 C903 1.363 . S
C904 C910 1.428 1_655 S
H905 C901 0.930 . S
H906 C903 0.929 . S
S907 N908 1.613 . S
S907 N909 1.610 . S
N908 S907 1.613 . S
N908 C911 1.350 . S
N909 S907 1.610 . S
N909 C910 1.351 . S
C910 C904 1.428 1_455 S
C910 N909 1.351 . S
C910 C911 1.434 . S
C911 C902 1.429 1_455 S
C911 N908 1.350 . S
C911 C910 1.434 . S
C912 C913 1.369 . S
C912 C914 1.419 . S
C912 H916 0.930 . S
C913 C912 1.369 . S
C913 C922 1.429 . S
C914 C912 1.419 . S
C914 C915 1.363 . S
C914 H917 0.929 . S
C915 C914 1.363 . S
C915 C921 1.428 . S
H916 C912 0.930 . S
H917 C914 0.929 . S
S918 N919 1.613 . S
S918 N920 1.610 . S
N919 S918 1.613 . S
N919 C922 1.350 . S
N920 S918 1.610 . S
N920 C921 1.351 . S
C921 C915 1.428 . S
C921 N920 1.351 . S
C921 C922 1.434 . S
C922 C913 1.429 . S
C922 N919 1.350 . S
C922 C921 1.434 . S
C923 C924 1.369 . S
C923 C925 1.419 . S
C923 H927 0.930 . S
C924 C923 1.369 . S
C924 C933 1.429 . S
C925 C923 1.419 . S
C925 C926 1.363 . S
C925 H928 0.929 . S
C926 C925 1.363 . S
C926 C932 1.428 . S
H927 C923 0.930 . S
H928 C925 0.929 . S
S929 N930 1.613 . S
S929 N931 1.610 . S
N930 S929 1.613 . S
N930 C933 1.350 . S
N931 S929 1.610 . S
N931 C932 1.351 . S
C932 C926 1.428 . S
C932 N931 1.351 . S
C932 C933 1.434 . S
C933 C924 1.429 . S
C933 N930 1.350 . S
C933 C932 1.434 . S
C934 C935 1.369 . S
C934 C936 1.419 . S
C934 H938 0.930 1_565 S
C935 C934 1.369 . S
C935 C944 1.429 1_554 S
C936 C934 1.419 . S
C936 C937 1.363 . S
C936 H939 0.929 . S
C937 C936 1.363 . S
C937 C943 1.428 1_554 S
H938 C934 0.930 1_545 S
H939 C936 0.929 . S
S940 N941 1.613 . S
S940 N942 1.610 . S
N941 S940 1.613 . S
N941 C944 1.350 . S
N942 S940 1.610 . S
N942 C943 1.351 . S
C943 C937 1.428 1_556 S
C943 N942 1.351 . S
C943 C944 1.434 . S
C944 C935 1.429 1_556 S
C944 N941 1.350 . S
C944 C943 1.434 . S
C945 C946 1.369 . S
C945 C947 1.419 . S
C945 H949 0.930 . S
C946 C945 1.369 . S
C946 C955 1.429 . S
C947 C945 1.419 . S
C947 C948 1.363 . S
C947 H950 0.929 . S
C948 C947 1.363 . S
C948 C954 1.428 . S
H949 C945 0.930 . S
H950 C947 0.929 . S
S951 N952 1.613 . S
S951 N953 1.610 . S
N952 S951 1.613 . S
N952 C955 1.350 . S
N953 S951 1.610 . S
N953 C954 1.351 . S
C954 C948 1.428 . S
C954 N953 1.351 . S
C954 C955 1.434 . S
C955 C946 1.429 . S
C955 N952 1.350 . S
C955 C954 1.434 . S
C956 C957 1.369 . S
C956 C958 1.419 . S
C956 H960 0.930 . S
C957 C956 1.369 . S
C957 C966 1.429 . S
C958 C956 1.419 . S
C958 C959 1.363 . S
C958 H961 0.929 . S
C959 C958 1.363 . S
C959 C965 1.428 . S
H960 C956 0.930 . S
H961 C958 0.929 . S
S962 N963 1.613 . S
S962 N964 1.610 . S
N963 S962 1.613 . S
N963 C966 1.350 . S
N964 S962 1.610 . S
N964 C965 1.351 . S
C965 C959 1.428 . S
C965 N964 1.351 . S
C965 C966 1.434 . S
C966 C957 1.429 . S
C966 N963 1.350 . S
C966 C965 1.434 . S
C967 C968 1.369 . S
C967 C969 1.419 . S
C967 H971 0.930 . S
C968 C967 1.369 . S
C968 C977 1.429 . S
C969 C967 1.419 . S
C969 C970 1.363 . S
C969 H972 0.929 . S
C970 C969 1.363 . S
C970 C976 1.428 . S
H971 C967 0.930 . S
H972 C969 0.929 . S
S973 N974 1.613 . S
S973 N975 1.610 . S
N974 S973 1.613 . S
N974 C977 1.350 . S
N975 S973 1.610 . S
N975 C976 1.351 . S
C976 C970 1.428 . S
C976 N975 1.351 . S
C976 C977 1.434 . S
C977 C968 1.429 . S
C977 N974 1.350 . S
C977 C976 1.434 . S
C978 C979 1.369 . S
C978 C980 1.419 . S
C978 H982 0.930 . S
C979 C978 1.369 . S
C979 C988 1.429 . S
C980 C978 1.419 . S
C980 C981 1.363 . S
C980 H983 0.929 . S
C981 C980 1.363 . S
C981 C987 1.428 . S
H982 C978 0.930 . S
H983 C980 0.929 . S
S984 N985 1.613 . S
S984 N986 1.610 . S
N985 S984 1.613 . S
N985 C988 1.350 . S
N986 S984 1.610 . S
N986 C987 1.351 . S
C987 C981 1.428 . S
C987 N986 1.351 . S
C987 C988 1.434 . S
C988 C979 1.429 . S
C988 N985 1.350 . S
C988 C987 1.434 . S
C989 C990 1.369 . S
C989 C991 1.419 . S
C989 H993 0.930 . S
C990 C989 1.369 . S
C990 C999 1.429 . S
C991 C989 1.419 . S
C991 C992 1.363 . S
C991 H994 0.929 . S
C992 C991 1.363 . S
C992 C998 1.428 . S
H993 C989 0.930 . S
H994 C991 0.929 . S
S995 N996 1.613 . S
S995 N997 1.610 . S
N996 S995 1.613 . S
N996 C999 1.350 . S
N997 S995 1.610 . S
N997 C998 1.351 . S
C998 C992 1.428 . S
C998 N997 1.351 . S
C998 C999 1.434 . S
C999 C990 1.429 . S
C999 N996 1.350 . S
C999 C998 1.434 . S
C1000 C1001 1.369 . S
C1000 C1002 1.419 . S
C1000 H1004 0.930 . S
C1001 C1000 1.369 . S
C1001 C1010 1.429 . S
C1002 C1000 1.419 . S
C1002 C1003 1.363 . S
C1002 H1005 0.929 . S
C1003 C1002 1.363 . S
C1003 C1009 1.428 . S
H1004 C1000 0.930 . S
H1005 C1002 0.929 . S
S1006 N1007 1.613 . S
S1006 N1008 1.610 . S
N1007 S1006 1.613 . S
N1007 C1010 1.350 . S
N1008 S1006 1.610 . S
N1008 C1009 1.351 . S
C1009 C1003 1.428 . S
C1009 N1008 1.351 . S
C1009 C1010 1.434 . S
C1010 C1001 1.429 . S
C1010 N1007 1.350 . S
C1010 C1009 1.434 . S
C1011 C1012 1.369 . S
C1011 C1013 1.419 . S
C1011 H1015 0.930 1_545 S
C1012 C1011 1.369 . S
C1012 C1021 1.429 . S
C1013 C1011 1.419 . S
C1013 C1014 1.363 . S
C1013 H1016 0.929 1_545 S
C1014 C1013 1.363 . S
C1014 C1020 1.428 . S
H1015 C1011 0.930 1_565 S
H1016 C1013 0.929 1_565 S
S1017 N1018 1.613 . S
S1017 N1019 1.610 . S
N1018 S1017 1.613 . S
N1018 C1021 1.350 . S
N1019 S1017 1.610 . S
N1019 C1020 1.351 . S
C1020 C1014 1.428 . S
C1020 N1019 1.351 . S
C1020 C1021 1.434 . S
C1021 C1012 1.429 . S
C1021 N1018 1.350 . S
C1021 C1020 1.434 . S
C1022 C1023 1.369 . S
C1022 C1024 1.419 . S
C1022 H1026 0.930 . S
C1023 C1022 1.369 . S
C1023 C1032 1.429 . S
C1024 C1022 1.419 . S
C1024 C1025 1.363 . S
C1024 H1027 0.929 . S
C1025 C1024 1.363 . S
C1025 C1031 1.428 . S
H1026 C1022 0.930 . S
H1027 C1024 0.929 . S
S1028 N1029 1.613 . S
S1028 N1030 1.610 . S
N1029 S1028 1.613 . S
N1029 C1032 1.350 . S
N1030 S1028 1.610 . S
N1030 C1031 1.351 . S
C1031 C1025 1.428 . S
C1031 N1030 1.351 . S
C1031 C1032 1.434 . S
C1032 C1023 1.429 . S
C1032 N1029 1.350 . S
C1032 C1031 1.434 . S
C1033 C1034 1.369 . S
C1033 C1035 1.419 . S
C1033 H1037 0.930 . S
C1034 C1033 1.369 . S
C1034 C1043 1.429 . S
C1035 C1033 1.419 . S
C1035 C1036 1.363 . S
C1035 H1038 0.929 . S
C1036 C1035 1.363 . S
C1036 C1042 1.428 . S
H1037 C1033 0.930 . S
H1038 C1035 0.929 . S
S1039 N1040 1.613 . S
S1039 N1041 1.610 . S
N1040 S1039 1.613 . S
N1040 C1043 1.350 . S
N1041 S1039 1.610 . S
N1041 C1042 1.351 . S
C1042 C1036 1.428 . S
C1042 N1041 1.351 . S
C1042 C1043 1.434 . S
C1043 C1034 1.429 . S
C1043 N1040 1.350 . S
C1043 C1042 1.434 . S
C1044 C1045 1.369 . S
C1044 C1046 1.419 . S
C1044 H1048 0.930 . S
C1045 C1044 1.369 . S
C1045 C1054 1.429 . S
C1046 C1044 1.419 . S
C1046 C1047 1.363 . S
C1046 H1049 0.929 . S
C1047 C1046 1.363 . S
C1047 C1053 1.428 . S
H1048 C1044 0.930 . S
H1049 C1046 0.929 . S
S1050 N1051 1.613 . S
S1050 N1052 1.610 . S
N1051 S1050 1.613 . S
N1051 C1054 1.350 . S
N1052 S1050 1.610 . S
N1052 C1053 1.351 . S
C1053 C1047 1.428 . S
C1053 N1052 1.351 . S
C1053 C1054 1.434 . S
C1054 C1045 1.429 . S
C1054 N1051 1.350 . S
C1054 C1053 1.434 . S
C1055 C1056 1.369 1_655 S
C1055 C1057 1.419 . S
C1055 H1059 0.930 1_545 S
C1056 C1055 1.369 1_455 S
C1056 C1065 1.429 . S
C1057 C1055 1.419 . S
C1057 C1058 1.363 1_655 S
C1057 H1060 0.929 . S
C1058 C1057 1.363 1_455 S
C1058 C1064 1.428 . S
H1059 C1055 0.930 1_565 S
H1060 C1057 0.929 . S
S1061 N1062 1.613 . S
S1061 N1063 1.610 . S
N1062 S1061 1.613 . S
N1062 C1065 1.350 . S
N1063 S1061 1.610 . S
N1063 C1064 1.351 . S
C1064 C1058 1.428 . S
C1064 N1063 1.351 . S
C1064 C1065 1.434 . S
C1065 C1056 1.429 . S
C1065 N1062 1.350 . S
C1065 C1064 1.434 . S
C1066 C1067 1.369 . S
C1066 C1068 1.419 . S
C1066 H1070 0.930 . S
C1067 C1066 1.369 . S
C1067 C1076 1.429 . S
C1068 C1066 1.419 . S
C1068 C1069 1.363 . S
C1068 H1071 0.929 . S
C1069 C1068 1.363 . S
C1069 C1075 1.428 . S
H1070 C1066 0.930 . S
H1071 C1068 0.929 . S
S1072 N1073 1.613 . S
S1072 N1074 1.610 . S
N1073 S1072 1.613 . S
N1073 C1076 1.350 . S
N1074 S1072 1.610 . S
N1074 C1075 1.351 . S
C1075 C1069 1.428 . S
C1075 N1074 1.351 . S
C1075 C1076 1.434 . S
C1076 C1067 1.429 . S
C1076 N1073 1.350 . S
C1076 C1075 1.434 . S
C1077 C1078 1.369 . S
C1077 C1079 1.419 . S
C1077 H1081 0.930 . S
C1078 C1077 1.369 . S
C1078 C1087 1.429 . S
C1079 C1077 1.419 . S
C1079 C1080 1.363 . S
C1079 H1082 0.929 . S
C1080 C1079 1.363 . S
C1080 C1086 1.428 . S
H1081 C1077 0.930 . S
H1082 C1079 0.929 . S
S1083 N1084 1.613 . S
S1083 N1085 1.610 . S
N1084 S1083 1.613 . S
N1084 C1087 1.350 . S
N1085 S1083 1.610 . S
N1085 C1086 1.351 . S
C1086 C1080 1.428 . S
C1086 N1085 1.351 . S
C1086 C1087 1.434 . S
C1087 C1078 1.429 . S
C1087 N1084 1.350 . S
C1087 C1086 1.434 . S
C1088 C1089 1.369 . S
C1088 C1090 1.419 . S
C1088 H1092 0.930 . S
C1089 C1088 1.369 . S
C1089 C1098 1.429 . S
C1090 C1088 1.419 . S
C1090 C1091 1.363 . S
C1090 H1093 0.929 . S
C1091 C1090 1.363 . S
C1091 C1097 1.428 . S
H1092 C1088 0.930 . S
H1093 C1090 0.929 . S
S1094 N1095 1.613 . S
S1094 N1096 1.610 . S
N1095 S1094 1.613 . S
N1095 C1098 1.350 . S
N1096 S1094 1.610 . S
N1096 C1097 1.351 . S
C1097 C1091 1.428 . S
C1097 N1096 1.351 . S
C1097 C1098 1.434 . S
C1098 C1089 1.429 . S
C1098 N1095 1.350 . S
C1098 C1097 1.434 . S
C1099 C1100 1.369 . S
C1099 C1101 1.419 . S
C1099 H1103 0.930 . S
C1100 C1099 1.369 . S
C1100 C1109 1.429 1_455 S
C1101 C1099 1.419 . S
C1101 C1102 1.363 . S
C1101 H1104 0.929 . S
C1102 C1101 1.363 . S
C1102 C1108 1.428 1_455 S
H1103 C1099 0.930 . S
H1104 C1101 0.929 . S
S1105 N1106 1.613 . S
S1105 N1107 1.610 . S
N1106 S1105 1.613 . S
N1106 C1109 1.350 . S
N1107 S1105 1.610 . S
N1107 C1108 1.351 . S
C1108 C1102 1.428 1_655 S
C1108 N1107 1.351 . S
C1108 C1109 1.434 . S
C1109 C1100 1.429 1_655 S
C1109 N1106 1.350 . S
C1109 C1108 1.434 . S
C1110 C1111 1.369 . S
C1110 C1112 1.419 . S
C1110 H1114 0.930 . S
C1111 C1110 1.369 . S
C1111 C1120 1.429 . S
C1112 C1110 1.419 . S
C1112 C1113 1.363 . S
C1112 H1115 0.929 . S
C1113 C1112 1.363 . S
C1113 C1119 1.428 . S
H1114 C1110 0.930 . S
H1115 C1112 0.929 . S
S1116 N1117 1.613 . S
S1116 N1118 1.610 . S
N1117 S1116 1.613 . S
N1117 C1120 1.350 . S
N1118 S1116 1.610 . S
N1118 C1119 1.351 . S
C1119 C1113 1.428 . S
C1119 N1118 1.351 . S
C1119 C1120 1.434 . S
C1120 C1111 1.429 . S
C1120 N1117 1.350 . S
C1120 C1119 1.434 . S
C1121 C1122 1.369 . S
C1121 C1123 1.419 . S
C1121 H1125 0.930 . S
C1122 C1121 1.369 . S
C1122 C1131 1.429 . S
C1123 C1121 1.419 . S
C1123 C1124 1.363 . S
C1123 H1126 0.930 . S
C1124 C1123 1.363 . S
C1124 C1130 1.428 . S
H1125 C1121 0.930 . S
H1126 C1123 0.930 . S
S1127 N1128 1.613 . S
S1127 N1129 1.610 . S
N1128 S1127 1.613 . S
N1128 C1131 1.350 . S
N1129 S1127 1.610 . S
N1129 C1130 1.351 . S
C1130 C1124 1.428 . S
C1130 N1129 1.351 . S
C1130 C1131 1.434 . S
C1131 C1122 1.429 . S
C1131 N1128 1.350 . S
C1131 C1130 1.434 . S
C1132 C1133 1.369 . S
C1132 C1134 1.419 . S
C1132 H1136 0.930 . S
C1133 C1132 1.369 . S
C1133 C1142 1.429 . S
C1134 C1132 1.419 . S
C1134 C1135 1.363 . S
C1134 H1137 0.929 . S
C1135 C1134 1.363 . S
C1135 C1141 1.428 . S
H1136 C1132 0.930 . S
H1137 C1134 0.929 . S
S1138 N1139 1.613 . S
S1138 N1140 1.610 . S
N1139 S1138 1.613 . S
N1139 C1142 1.350 . S
N1140 S1138 1.610 . S
N1140 C1141 1.351 . S
C1141 C1135 1.428 . S
C1141 N1140 1.351 . S
C1141 C1142 1.434 . S
C1142 C1133 1.429 . S
C1142 N1139 1.350 . S
C1142 C1141 1.434 . S
C1143 C1144 1.369 . S
C1143 C1145 1.419 . S
C1143 H1147 0.930 . S
C1144 C1143 1.369 . S
C1144 C1153 1.429 . S
C1145 C1143 1.419 . S
C1145 C1146 1.363 . S
C1145 H1148 0.929 . S
C1146 C1145 1.363 . S
C1146 C1152 1.428 . S
H1147 C1143 0.930 . S
H1148 C1145 0.929 . S
S1149 N1150 1.613 . S
S1149 N1151 1.610 . S
N1150 S1149 1.613 . S
N1150 C1153 1.350 . S
N1151 S1149 1.610 . S
N1151 C1152 1.351 . S
C1152 C1146 1.428 . S
C1152 N1151 1.351 . S
C1152 C1153 1.434 . S
C1153 C1144 1.429 . S
C1153 N1150 1.350 . S
C1153 C1152 1.434 . S
C1154 C1155 1.369 . S
C1154 C1156 1.419 . S
C1154 H1158 0.930 . S
C1155 C1154 1.369 . S
C1155 C1164 1.429 . S
C1156 C1154 1.419 . S
C1156 C1157 1.363 . S
C1156 H1159 0.929 . S
C1157 C1156 1.363 . S
C1157 C1163 1.428 . S
H1158 C1154 0.930 . S
H1159 C1156 0.929 . S
S1160 N1161 1.613 . S
S1160 N1162 1.610 . S
N1161 S1160 1.613 . S
N1161 C1164 1.350 . S
N1162 S1160 1.610 . S
N1162 C1163 1.351 . S
C1163 C1157 1.428 . S
C1163 N1162 1.351 . S
C1163 C1164 1.434 . S
C1164 C1155 1.429 . S
C1164 N1161 1.350 . S
C1164 C1163 1.434 . S
C1165 C1166 1.369 . S
C1165 C1167 1.419 . S
C1165 H1169 0.930 . S
C1166 C1165 1.369 . S
C1166 C1175 1.429 . S
C1167 C1165 1.419 . S
C1167 C1168 1.363 . S
C1167 H1170 0.929 . S
C1168 C1167 1.363 . S
C1168 C1174 1.428 . S
H1169 C1165 0.930 . S
H1170 C1167 0.929 . S
S1171 N1172 1.613 . S
S1171 N1173 1.610 . S
N1172 S1171 1.613 . S
N1172 C1175 1.350 . S
N1173 S1171 1.610 . S
N1173 C1174 1.351 . S
C1174 C1168 1.428 . S
C1174 N1173 1.351 . S
C1174 C1175 1.434 . S
C1175 C1166 1.429 . S
C1175 N1172 1.350 . S
C1175 C1174 1.434 . S
C1176 C1177 1.369 . S
C1176 C1178 1.419 . S
C1176 H1180 0.930 . S
C1177 C1176 1.369 . S
C1177 C1186 1.429 . S
C1178 C1176 1.419 . S
C1178 C1179 1.363 . S
C1178 H1181 0.929 . S
C1179 C1178 1.363 . S
C1179 C1185 1.428 . S
H1180 C1176 0.930 . S
H1181 C1178 0.929 . S
S1182 N1183 1.613 . S
S1182 N1184 1.610 . S
N1183 S1182 1.613 . S
N1183 C1186 1.350 . S
N1184 S1182 1.610 . S
N1184 C1185 1.351 . S
C1185 C1179 1.428 . S
C1185 N1184 1.351 . S
C1185 C1186 1.434 . S
C1186 C1177 1.429 . S
C1186 N1183 1.350 . S
C1186 C1185 1.434 . S
C1187 C1188 1.369 . S
C1187 C1189 1.419 . S
C1187 H1191 0.930 . S
C1188 C1187 1.369 . S
C1188 C1197 1.429 . S
C1189 C1187 1.419 . S
C1189 C1190 1.363 . S
C1189 H1192 0.929 . S
C1190 C1189 1.363 . S
C1190 C1196 1.428 . S
H1191 C1187 0.930 . S
H1192 C1189 0.929 . S
S1193 N1194 1.613 . S
S1193 N1195 1.610 . S
N1194 S1193 1.613 . S
N1194 C1197 1.350 . S
N1195 S1193 1.610 . S
N1195 C1196 1.351 . S
C1196 C1190 1.428 . S
C1196 N1195 1.351 . S
C1196 C1197 1.434 . S
C1197 C1188 1.429 . S
C1197 N1194 1.350 . S
C1197 C1196 1.434 . S
C1198 C1199 1.369 . S
C1198 C1200 1.419 . S
C1198 H1202 0.930 . S
C1199 C1198 1.369 . S
C1199 C1208 1.429 . S
C1200 C1198 1.419 . S
C1200 C1201 1.363 . S
C1200 H1203 0.929 . S
C1201 C1200 1.363 . S
C1201 C1207 1.428 . S
H1202 C1198 0.930 . S
H1203 C1200 0.929 . S
S1204 N1205 1.613 . S
S1204 N1206 1.610 . S
N1205 S1204 1.613 . S
N1205 C1208 1.350 . S
N1206 S1204 1.610 . S
N1206 C1207 1.351 . S
C1207 C1201 1.428 . S
C1207 N1206 1.351 . S
C1207 C1208 1.434 . S
C1208 C1199 1.429 . S
C1208 N1205 1.350 . S
C1208 C1207 1.434 . S
C1209 C1210 1.369 . S
C1209 C1211 1.419 . S
C1209 H1213 0.930 . S
C1210 C1209 1.369 . S
C1210 C1219 1.429 . S
C1211 C1209 1.419 . S
C1211 C1212 1.363 . S
C1211 H1214 0.929 . S
C1212 C1211 1.363 . S
C1212 C1218 1.428 . S
H1213 C1209 0.930 . S
H1214 C1211 0.929 . S
S1215 N1216 1.613 . S
S1215 N1217 1.610 . S
N1216 S1215 1.613 . S
N1216 C1219 1.350 . S
N1217 S1215 1.610 . S
N1217 C1218 1.351 . S
C1218 C1212 1.428 . S
C1218 N1217 1.351 . S
C1218 C1219 1.434 . S
C1219 C1210 1.429 . S
C1219 N1216 1.350 . S
C1219 C1218 1.434 . S
C1220 C1221 1.369 . S
C1220 C1222 1.419 . S
C1220 H1224 0.930 . S
C1221 C1220 1.369 . S
C1221 C1230 1.429 . S
C1222 C1220 1.419 . S
C1222 C1223 1.363 . S
C1222 H1225 0.929 . S
C1223 C1222 1.363 . S
C1223 C1229 1.428 . S
H1224 C1220 0.930 . S
H1225 C1222 0.929 . S
S1226 N1227 1.613 . S
S1226 N1228 1.610 . S
N1227 S1226 1.613 . S
N1227 C1230 1.350 . S
N1228 S1226 1.610 . S
N1228 C1229 1.351 . S
C1229 C1223 1.428 . S
C1229 N1228 1.351 . S
C1229 C1230 1.434 . S
C1230 C1221 1.429 . S
C1230 N1227 1.350 . S
C1230 C1229 1.434 . S
C1231 C1232 1.369 . S
C1231 C1233 1.419 . S
C1231 H1235 0.930 . S
C1232 C1231 1.369 . S
C1232 C1241 1.429 . S
C1233 C1231 1.419 . S
C1233 C1234 1.363 . S
C1233 H1236 0.929 . S
C1234 C1233 1.363 . S
C1234 C1240 1.428 . S
H1235 C1231 0.930 . S
H1236 C1233 0.929 . S
S1237 N1238 1.613 . S
S1237 N1239 1.610 . S
N1238 S1237 1.613 . S
N1238 C1241 1.350 . S
N1239 S1237 1.610 . S
N1239 C1240 1.351 . S
C1240 C1234 1.428 . S
C1240 N1239 1.351 . S
C1240 C1241 1.434 . S
C1241 C1232 1.429 . S
C1241 N1238 1.350 . S
C1241 C1240 1.434 . S
C1242 C1243 1.369 . S
C1242 C1244 1.419 . S
C1242 H1246 0.930 . S
C1243 C1242 1.369 . S
C1243 C1252 1.429 . S
C1244 C1242 1.419 . S
C1244 C1245 1.363 . S
C1244 H1247 0.929 . S
C1245 C1244 1.363 . S
C1245 C1251 1.428 1_554 S
H1246 C1242 0.930 . S
H1247 C1244 0.929 . S
S1248 N1249 1.613 . S
S1248 N1250 1.610 . S
N1249 S1248 1.613 . S
N1249 C1252 1.350 1_556 S
N1250 S1248 1.610 . S
N1250 C1251 1.351 . S
C1251 C1245 1.428 1_556 S
C1251 N1250 1.351 . S
C1251 C1252 1.434 1_556 S
C1252 C1243 1.429 . S
C1252 N1249 1.350 1_554 S
C1252 C1251 1.434 1_554 S
C1253 C1254 1.369 . S
C1253 C1255 1.419 . S
C1253 H1257 0.930 . S
C1254 C1253 1.369 . S
C1254 C1263 1.429 . S
C1255 C1253 1.419 . S
C1255 C1256 1.363 . S
C1255 H1258 0.929 . S
C1256 C1255 1.363 . S
C1256 C1262 1.428 . S
H1257 C1253 0.930 . S
H1258 C1255 0.929 . S
S1259 N1260 1.613 . S
S1259 N1261 1.610 . S
N1260 S1259 1.613 . S
N1260 C1263 1.350 1_545 S
N1261 S1259 1.610 . S
N1261 C1262 1.351 1_545 S
C1262 C1256 1.428 . S
C1262 N1261 1.351 1_565 S
C1262 C1263 1.434 . S
C1263 C1254 1.429 . S
C1263 N1260 1.350 1_565 S
C1263 C1262 1.434 . S
C739 C306 1.852 . S
C737 C101 1.824 . S
C750 C354 1.302 . S
C748 C125 1.187 . S
C759 C139 1.869 . S
C761 C390 1.773 . S
C772 C426 1.720 1_455 S
C770 C82 1.802 1_545 S
C783 C452 1.531 . S
C781 C196 1.527 . S
C794 C488 1.844 . S
C792 C234 1.882 . S
C803 C220 1.079 . S
C805 C523 1.252 . S
C816 C560 1.725 . S
C814 C173 1.735 1_545 S
C825 C211 1.196 . S
C827 C594 1.223 . S
C838 C642 1.226 . S
C836 C182 1.173 . S
C847 C201 1.178 . S
C849 C595 1.394 . S
C860 C632 1.511 . S
C858 C239 1.373 . S
C869 C135 1.645 . S
C871 C678 1.560 . S
C880 C87 1.709 . S
C882 C667 1.878 . S
C891 C106 1.182 . S
C893 C668 1.395 . S
C902 C116 1.341 . S
C904 C666 1.343 1_655 S
C913 C59 1.711 . S
C915 C414 1.713 . S
C924 C268 2.064 . S
C926 C415 2.085 . S
C937 C318 1.343 . S
C935 C291 1.461 1_564 S
C948 C343 1.430 . S
C946 C163 1.345 . S
C957 C78 2.041 . S
C959 C450 2.051 . S
C970 C558 1.311 . S
C968 C215 1.334 . S
C981 C451 1.623 . S
C979 C177 1.640 . S
C992 C524 1.842 . S
C990 C230 1.842 . S
C1003 C522 1.851 . S
C1001 C272 1.824 . S
C1012 C296 1.192 . S
C1014 C570 1.301 . S
C1023 C158 1.870 . S
C1025 C462 1.779 . S
C1036 C498 1.727 . S
C1034 C253 1.803 . S
C1045 C63 1.526 . S
C1047 C380 1.531 . S
C1058 C416 1.847 1_455 S
C1056 C6 1.879 . S
C1069 C307 1.256 . S
C1067 C30 1.073 . S
C1080 C344 1.728 . S
C1078 C40 1.737 . S
C1089 C21 1.202 . S
C1091 C630 1.219 . S
C1100 C49 1.183 . S
C1102 C606 1.220 . S
C1111 C68 1.176 . S
C1113 C631 1.395 . S
C1122 C11 1.360 . S
C1124 C596 1.509 . S
C1135 C714 1.552 . S
C1133 C154 1.644 . S
C1146 C703 1.878 . S
C1144 C258 1.702 . S
C1157 C704 1.395 . S
C1155 C277 1.183 . S
C1166 C287 1.346 . S
C1168 C702 1.341 . S
C1177 C192 1.708 . S
C1179 C486 1.712 . S
C1190 C487 2.087 . S
C1188 C97 2.059 . S
C1201 C534 1.344 . S
C1199 C120 1.461 . S
C1212 C559 1.430 . S
C1210 C144 1.334 . S
C1221 C249 2.043 . S
C1223 C378 2.051 . S
C1234 C342 1.311 . S
C1232 C25 1.334 . S
C1243 C44 1.641 . S
C1245 C379 1.620 1_554 S
C1256 C308 1.842 . S
C1254 C2 1.843 . S
