# Generated by pormake.
# Topology hwx, (6,3)-cn, num edge types: 1
# Building blocks:
#     Node 0, Type 0, BuildingBlock: IZENUY_clean_sbu_0, # of connection points: 6
#     Node 1, Type 0, BuildingBlock: IZENUY_clean_sbu_0, # of connection points: 6
#     Node 2, Type 0, BuildingBlock: IZENUY_clean_sbu_0, # of connection points: 6
#     Node 3, Type 0, BuildingBlock: IZENUY_clean_sbu_0, # of connection points: 6
#     Node 4, Type 1, BuildingBlock: VETTIZ_charged_linker_0, # of connection points: 3
#     Node 5, Type 1, BuildingBlock: VETTIZ_charged_linker_0, # of connection points: 3
#     Node 6, Type 1, BuildingBlock: VETTIZ_charged_linker_0, # of connection points: 3
#     Node 7, Type 1, BuildingBlock: VETTIZ_charged_linker_0, # of connection points: 3
#     Node 8, Type 1, BuildingBlock: VETTIZ_charged_linker_0, # of connection points: 3
#     Node 9, Type 1, BuildingBlock: VETTIZ_charged_linker_0, # of connection points: 3
#     Node 10, Type 1, BuildingBlock: VETTIZ_charged_linker_0, # of connection points: 3
#     Node 11, Type 1, BuildingBlock: VETTIZ_charged_linker_0, # of connection points: 3
#     Edge 12, Type (0, 1), BuildingBlock: TEMPAE_clean_linker_10, # of connection points: 2
#     Edge 13, Type (0, 1), BuildingBlock: TEMPAE_clean_linker_10, # of connection points: 2
#     Edge 14, Type (0, 1), BuildingBlock: TEMPAE_clean_linker_10, # of connection points: 2
#     Edge 15, Type (0, 1), BuildingBlock: TEMPAE_clean_linker_10, # of connection points: 2
#     Edge 16, Type (0, 1), BuildingBlock: TEMPAE_clean_linker_10, # of connection points: 2
#     Edge 17, Type (0, 1), BuildingBlock: TEMPAE_clean_linker_10, # of connection points: 2
#     Edge 18, Type (0, 1), BuildingBlock: TEMPAE_clean_linker_10, # of connection points: 2
#     Edge 19, Type (0, 1), BuildingBlock: TEMPAE_clean_linker_10, # of connection points: 2
#     Edge 20, Type (0, 1), BuildingBlock: TEMPAE_clean_linker_10, # of connection points: 2
#     Edge 21, Type (0, 1), BuildingBlock: TEMPAE_clean_linker_10, # of connection points: 2
#     Edge 22, Type (0, 1), BuildingBlock: TEMPAE_clean_linker_10, # of connection points: 2
#     Edge 23, Type (0, 1), BuildingBlock: TEMPAE_clean_linker_10, # of connection points: 2
#     Edge 24, Type (0, 1), BuildingBlock: TEMPAE_clean_linker_10, # of connection points: 2
#     Edge 25, Type (0, 1), BuildingBlock: TEMPAE_clean_linker_10, # of connection points: 2
#     Edge 26, Type (0, 1), BuildingBlock: TEMPAE_clean_linker_10, # of connection points: 2
#     Edge 27, Type (0, 1), BuildingBlock: TEMPAE_clean_linker_10, # of connection points: 2
#     Edge 28, Type (0, 1), BuildingBlock: TEMPAE_clean_linker_10, # of connection points: 2
#     Edge 29, Type (0, 1), BuildingBlock: TEMPAE_clean_linker_10, # of connection points: 2
#     Edge 30, Type (0, 1), BuildingBlock: TEMPAE_clean_linker_10, # of connection points: 2
#     Edge 31, Type (0, 1), BuildingBlock: TEMPAE_clean_linker_10, # of connection points: 2
#     Edge 32, Type (0, 1), BuildingBlock: TEMPAE_clean_linker_10, # of connection points: 2
#     Edge 33, Type (0, 1), BuildingBlock: TEMPAE_clean_linker_10, # of connection points: 2
#     Edge 34, Type (0, 1), BuildingBlock: TEMPAE_clean_linker_10, # of connection points: 2
#     Edge 35, Type (0, 1), BuildingBlock: TEMPAE_clean_linker_10, # of connection points: 2
# Relax obj value: 0.054
# Max RMSD: 0.077
# Mean RMSD: 0.070
data_MOF--net-hwx--node1-IZENUY_clean_sbu_0--node2-VETTIZ_charged_linker_0--edge1-TEMPAE_clean_linker_10
_symmetry_space_group_name_H-M    P1
_symmetry_Int_Tables_number       1
_symmetry_cell_setting            triclinic
loop_
_symmetry_equiv_pos_as_xyz
'x, y, z'
_cell_length_a     57.88039
_cell_length_b     57.851625
_cell_length_c     28.29802
_cell_angle_alpha  90.003934
_cell_angle_beta   89.996042
_cell_angle_gamma 89.996548
loop_
_atom_site_label
_atom_site_type_symbol
_atom_site_fract_x
_atom_site_fract_y
_atom_site_fract_z
_atom_type_partial_charge
Fe0 Fe 0.23962 0.21102 0.051 0.0
Fe1 Fe 0.23911 0.21008 0.94257 0.0
O2 O 0.2324 0.19693 0.99752 0.0
Fe3 Fe 0.21847 0.16967 0.999 0.0
O4 O 0.19407 0.18126 0.0314 0.0
O5 O 0.21478 0.19984 0.08411 0.0
O6 O 0.22192 0.23584 0.03607 0.0
C7 C 0.22446 0.24783 0.99921 0.0
C8 C 0.25105 0.16659 0.07369 0.0
O9 O 0.23535 0.23987 0.96393 0.0
C10 C 0.24878 0.16265 0.92656 0.0
O11 O 0.26585 0.22461 0.02776 0.0
O12 O 0.26973 0.2105 0.95597 0.0
O13 O 0.23272 0.15986 0.05347 0.0
O14 O 0.25781 0.1872 0.0695 0.0
C15 C 0.19608 0.19308 0.9239 0.0
O16 O 0.24404 0.18267 0.9112 0.0
O17 O 0.24196 0.15621 0.96675 0.0
C18 C 0.27831 0.21959 0.99247 0.0
O19 O 0.20899 0.21062 0.92546 0.0
O20 O 0.20159 0.17456 0.94496 0.0
C21 C 0.19566 0.19154 0.07053 0.0
Fe22 Fe 0.26176 0.7104 0.55302 0.0
Fe23 Fe 0.28111 0.66788 0.50238 0.0
O24 O 0.26886 0.69588 0.50002 0.0
Fe25 Fe 0.26371 0.70932 0.44491 0.0
O26 O 0.28229 0.73355 0.45973 0.0
O27 O 0.26726 0.73956 0.52983 0.0
O28 O 0.29161 0.70983 0.57245 0.0
C29 C 0.30296 0.69141 0.57797 0.0
C30 C 0.22421 0.72107 0.4992 0.0
O31 O 0.29656 0.67282 0.55821 0.0
C32 C 0.25054 0.66508 0.42433 0.0
O33 O 0.25483 0.68397 0.58611 0.0
O34 O 0.25596 0.65643 0.53278 0.0
O35 O 0.23766 0.72477 0.46464 0.0
O36 O 0.23155 0.71178 0.53663 0.0
C37 C 0.30711 0.68734 0.4324 0.0
O38 O 0.26798 0.65786 0.44699 0.0
O39 O 0.24475 0.68607 0.42619 0.0
C40 C 0.24892 0.66405 0.57197 0.0
O41 O 0.30697 0.67755 0.47222 0.0
O42 O 0.28883 0.69623 0.41562 0.0
C43 C 0.27923 0.74644 0.49511 0.0
Fe44 Fe 0.76052 0.80013 0.94455 0.0
Fe45 Fe 0.76055 0.80063 0.05281 0.0
O46 O 0.76792 0.81384 0.99841 0.0
Fe47 Fe 0.78259 0.84071 0.99814 0.0
O48 O 0.75959 0.85453 0.96524 0.0
O49 O 0.75569 0.82713 0.91201 0.0
O50 O 0.73005 0.80071 0.95912 0.0
C51 C 0.72153 0.79153 0.99552 0.0
C52 C 0.80393 0.81583 0.92378 0.0
O53 O 0.73417 0.78672 0.03066 0.0
C54 C 0.80487 0.8194 0.0709 0.0
O55 O 0.76401 0.77056 0.9676 0.0
O56 O 0.77793 0.77542 0.03921 0.0
O57 O 0.79917 0.83467 0.94436 0.0
O58 O 0.79046 0.79873 0.92614 0.0
C59 C 0.74988 0.84566 0.072 0.0
O60 O 0.78551 0.81202 0.08521 0.0
O61 O 0.8067 0.82886 0.03099 0.0
C62 C 0.77503 0.76296 0.00309 0.0
O63 O 0.74272 0.82508 0.06965 0.0
O64 O 0.76856 0.85154 0.05196 0.0
C65 C 0.75175 0.84751 0.92626 0.0
Fe66 Fe 0.71841 0.34239 0.49696 0.0
Fe67 Fe 0.73808 0.30122 0.55177 0.0
O68 O 0.731 0.31452 0.49743 0.0
Fe69 Fe 0.73654 0.29992 0.44377 0.0
O70 O 0.75552 0.32282 0.42359 0.0
O71 O 0.73201 0.35136 0.44122 0.0
O72 O 0.74316 0.35474 0.52705 0.0
C73 C 0.75011 0.34812 0.567 0.0
C74 C 0.69325 0.32165 0.42739 0.0
O75 O 0.74448 0.32842 0.58282 0.0
C76 C 0.72081 0.264 0.49711 0.0
O77 O 0.70248 0.33833 0.55268 0.0
O78 O 0.70817 0.30176 0.57038 0.0
O79 O 0.71166 0.31231 0.41244 0.0
O80 O 0.69288 0.33192 0.46669 0.0
C81 C 0.77591 0.28976 0.49961 0.0
O82 O 0.73296 0.27156 0.53098 0.0
O83 O 0.7179 0.27604 0.46044 0.0
C84 C 0.69625 0.31994 0.57347 0.0
O85 O 0.76841 0.29989 0.53599 0.0
O86 O 0.76249 0.285 0.46554 0.0
C87 C 0.74962 0.34372 0.41965 0.0
C88 C 0.18293 0.5416 0.83432 0.0
C89 C 0.18243 0.5657 0.82802 0.0
C90 C 0.17814 0.58007 0.86723 0.0
C91 C 0.17758 0.54668 0.9188 0.0
C92 C 0.18018 0.53247 0.8799 0.0
C93 C 0.1803 0.50729 0.89333 0.0
H94 H 0.18734 0.42566 0.06393 0.0
C95 C 0.17747 0.53203 0.9615 0.0
C96 C 0.17857 0.50888 0.94688 0.0
H97 H 0.18151 0.41577 0.91296 0.0
H98 H 0.17777 0.45693 0.90169 0.0
H99 H 0.22102 0.47026 0.05884 0.0
H100 H 0.14707 0.46409 0.07144 0.0
H101 H 0.15588 0.48682 0.10848 0.0
H102 H 0.16612 0.45787 0.11983 0.0
H103 H 0.20718 0.45964 0.11131 0.0
H104 H 0.21163 0.49008 0.10177 0.0
C105 C 0.2036 0.49673 0.87728 0.0
C106 C 0.15873 0.49561 0.87123 0.0
C107 C 0.18585 0.56988 0.12227 0.0
C108 C 0.18916 0.56108 0.16806 0.0
C109 C 0.18777 0.537 0.1753 0.0
C110 C 0.18417 0.5219 0.13716 0.0
C111 C 0.18204 0.53094 0.09122 0.0
C112 C 0.18241 0.55461 0.0846 0.0
C113 C 0.18001 0.56124 0.0335 0.0
C114 C 0.17856 0.53762 0.01031 0.0
C115 C 0.17993 0.51992 0.04419 0.0
C116 C 0.20218 0.5745 0.01899 0.0
C117 C 0.15732 0.5752 0.02746 0.0
C118 C 0.18528 0.43242 0.02848 0.0
C119 C 0.18481 0.41748 0.98925 0.0
C120 C 0.18174 0.4269 0.94374 0.0
C121 C 0.17971 0.45082 0.93723 0.0
C122 C 0.18075 0.46557 0.97661 0.0
C123 C 0.18305 0.4563 0.02138 0.0
C124 C 0.18319 0.47466 0.05908 0.0
C125 C 0.18054 0.49643 0.02951 0.0
C126 C 0.17953 0.49097 0.98116 0.0
C127 C 0.20687 0.47367 0.08453 0.0
C128 C 0.16211 0.47072 0.09183 0.0
H129 H 0.17307 0.58256 0.94113 0.0
H130 H 0.18581 0.53019 0.80456 0.0
H131 H 0.14471 0.50834 0.86435 0.0
H132 H 0.1508 0.4827 0.89515 0.0
H133 H 0.16298 0.48719 0.83703 0.0
H134 H 0.21817 0.50837 0.88688 0.0
H135 H 0.20394 0.49426 0.83836 0.0
H136 H 0.20746 0.48002 0.89421 0.0
H137 H 0.18643 0.58832 0.11571 0.0
H138 H 0.19032 0.52978 0.21022 0.0
H139 H 0.18375 0.50374 0.14477 0.0
H140 H 0.2178 0.56583 0.03354 0.0
H141 H 0.20188 0.59248 0.03276 0.0
H142 H 0.20496 0.57519 0.98053 0.0
H143 H 0.14443 0.57064 0.05512 0.0
H144 H 0.1485 0.57137 0.99364 0.0
H145 H 0.16053 0.59408 0.02998 0.0
H146 H 0.17773 0.59869 0.86314 0.0
C147 C 0.17568 0.57069 0.91253 0.0
C148 C 0.04942 0.78981 0.52356 0.0
C149 C 0.06242 0.78491 0.48282 0.0
C150 C 0.05262 0.78896 0.43801 0.0
C151 C 0.01712 0.8019 0.47474 0.0
C152 C 0.02682 0.79813 0.5187 0.0
C153 C 0.01015 0.80308 0.55824 0.0
H154 H 0.90102 0.82865 0.62556 0.0
C155 C 0.99313 0.80981 0.48184 0.0
C156 C 0.98891 0.81054 0.53072 0.0
H157 H 0.95956 0.81351 0.71552 0.0
H158 H 0.98424 0.81085 0.64688 0.0
H159 H 0.92763 0.86443 0.56112 0.0
H160 H 0.912 0.79227 0.54514 0.0
H161 H 0.90631 0.80577 0.49072 0.0
H162 H 0.89063 0.81472 0.54246 0.0
H163 H 0.89989 0.85478 0.54099 0.0
H164 H 0.92337 0.86019 0.50035 0.0
C165 C 0.02008 0.82304 0.58852 0.0
C166 C 0.00606 0.78029 0.58577 0.0
C167 C 0.9414 0.82455 0.33967 0.0
C168 C 0.91811 0.83122 0.33555 0.0
C169 C 0.90549 0.83638 0.37684 0.0
C170 C 0.91563 0.83437 0.42148 0.0
C171 C 0.93866 0.827 0.42515 0.0
C172 C 0.9513 0.82265 0.38469 0.0
C173 C 0.97562 0.81519 0.39569 0.0
C174 C 0.97534 0.81559 0.44939 0.0
C175 C 0.95358 0.82229 0.4663 0.0
C176 C 0.99236 0.83349 0.37508 0.0
C177 C 0.97906 0.79042 0.37595 0.0
C178 C 0.91921 0.82513 0.63082 0.0
C179 C 0.92822 0.82114 0.67626 0.0
C180 C 0.95201 0.81624 0.68095 0.0
C181 C 0.96635 0.8148 0.64104 0.0
C182 C 0.95686 0.81827 0.59585 0.0
C183 C 0.93375 0.82378 0.59152 0.0
C184 C 0.9266 0.82742 0.54107 0.0
C185 C 0.94912 0.82263 0.51557 0.0
C186 C 0.96675 0.81706 0.5477 0.0
C187 C 0.91879 0.85293 0.53529 0.0
C188 C 0.9078 0.80928 0.5289 0.0
H189 H 0.02362 0.80017 0.39868 0.0
H190 H 0.05646 0.78664 0.55843 0.0
H191 H 0.00533 0.7653 0.56116 0.0
H192 H 0.98945 0.77992 0.6048 0.0
H193 H 0.02025 0.77703 0.61135 0.0
H194 H 0.02928 0.83583 0.56597 0.0
H195 H 0.0326 0.81645 0.61505 0.0
H196 H 0.00653 0.8331 0.60676 0.0
H197 H 0.95161 0.82065 0.30859 0.0
H198 H 0.88744 0.84124 0.37475 0.0
H199 H 0.90494 0.83814 0.45145 0.0
H200 H 0.98496 0.85118 0.37838 0.0
H201 H 0.99572 0.83027 0.337 0.0
H202 H 0.00899 0.8343 0.39412 0.0
H203 H 0.96283 0.78019 0.37866 0.0
H204 H 0.99192 0.78028 0.39596 0.0
H205 H 0.98416 0.79084 0.33812 0.0
H206 H 0.06245 0.78553 0.4062 0.0
C207 C 0.0301 0.79753 0.43376 0.0
C208 C 0.80928 0.45911 0.1427 0.0
C209 C 0.80891 0.43478 0.14251 0.0
C210 C 0.81298 0.42296 0.09977 0.0
C211 C 0.81519 0.45934 0.05773 0.0
C212 C 0.81241 0.471 0.09996 0.0
C213 C 0.81192 0.49682 0.09309 0.0
H214 H 0.80946 0.58834 0.9435 0.0
C215 C 0.8158 0.47656 0.01925 0.0
C216 C 0.81407 0.4986 0.03966 0.0
H217 H 0.80798 0.58918 0.09618 0.0
H218 H 0.8112 0.54755 0.09785 0.0
H219 H 0.84971 0.54729 0.93207 0.0
H220 H 0.77535 0.54806 0.93198 0.0
H221 H 0.78363 0.52623 0.89249 0.0
H222 H 0.79166 0.55582 0.88048 0.0
H223 H 0.83261 0.56082 0.8869 0.0
H224 H 0.83971 0.53056 0.88411 0.0
C225 C 0.83315 0.50727 0.11867 0.0
C226 C 0.78832 0.50596 0.11098 0.0
C227 C 0.81401 0.44893 0.84926 0.0
C228 C 0.81045 0.46038 0.80616 0.0
C229 C 0.80977 0.48472 0.80543 0.0
C230 C 0.81216 0.49746 0.84737 0.0
C231 C 0.81477 0.48571 0.89058 0.0
C232 C 0.81581 0.46184 0.89089 0.0
C233 C 0.8168 0.45212 0.94007 0.0
C234 C 0.81618 0.47407 0.96936 0.0
C235 C 0.81517 0.4937 0.94026 0.0
C236 C 0.84003 0.43911 0.94577 0.0
C237 C 0.79497 0.43695 0.94772 0.0
C238 C 0.8102 0.57954 0.97726 0.0
C239 C 0.80856 0.59201 0.01978 0.0
C240 C 0.80907 0.5799 0.06299 0.0
C241 C 0.81101 0.55575 0.06387 0.0
C242 C 0.8122 0.54348 0.02105 0.0
C243 C 0.81192 0.5554 0.97871 0.0
C244 C 0.81257 0.53947 0.9367 0.0
C245 C 0.81391 0.51607 0.96082 0.0
C246 C 0.81353 0.51851 0.01023 0.0
C247 C 0.83471 0.54477 0.90802 0.0
C248 C 0.78977 0.54253 0.90854 0.0
H249 H 0.81876 0.42504 0.02609 0.0
H250 H 0.80617 0.46868 0.17497 0.0
H251 H 0.77418 0.49381 0.10139 0.0
H252 H 0.78333 0.52261 0.09496 0.0
H253 H 0.78831 0.50786 0.15004 0.0
H254 H 0.84818 0.49529 0.11714 0.0
H255 H 0.82933 0.51063 0.15652 0.0
H256 H 0.83937 0.52338 0.10199 0.0
H257 H 0.81403 0.43021 0.85092 0.0
H258 H 0.80697 0.49382 0.77247 0.0
H259 H 0.81127 0.51594 0.84468 0.0
H260 H 0.85409 0.44807 0.92621 0.0
H261 H 0.83882 0.42122 0.93172 0.0
H262 H 0.84605 0.43848 0.98281 0.0
H263 H 0.78 0.44375 0.92732 0.0
H264 H 0.7889 0.4368 0.98468 0.0
H265 H 0.798 0.41887 0.936 0.0
H266 H 0.81322 0.40424 0.0989 0.0
C267 C 0.81621 0.43508 0.05751 0.0
C268 C 0.0593 0.18772 0.34009 0.0
C269 C 0.08249 0.18073 0.33587 0.0
C270 C 0.095 0.17517 0.3771 0.0
C271 C 0.06185 0.18456 0.4255 0.0
C272 C 0.04935 0.18943 0.38512 0.0
C273 C 0.02511 0.19713 0.39625 0.0
H274 H 0.9442 0.22463 0.5598 0.0
C275 C 0.04689 0.189 0.46673 0.0
C276 C 0.02525 0.19616 0.44993 0.0
H277 H 0.93854 0.22784 0.40763 0.0
H278 H 0.97727 0.21296 0.39963 0.0
H279 H 0.97049 0.17518 0.56467 0.0
H280 H 0.99573 0.24528 0.56431 0.0
H281 H 0.01109 0.22979 0.60747 0.0
H282 H 0.98031 0.23312 0.61343 0.0
H283 H 0.96765 0.19378 0.6151 0.0
H284 H 0.99336 0.17675 0.60541 0.0
C285 C 0.00815 0.1793 0.37468 0.0
C286 C 0.02207 0.22215 0.37758 0.0
C287 C 0.08064 0.18342 0.63154 0.0
C288 C 0.0715 0.18686 0.67707 0.0
C289 C 0.04773 0.19189 0.68169 0.0
C290 C 0.03356 0.19406 0.64167 0.0
C291 C 0.0432 0.19119 0.59643 0.0
C292 C 0.06626 0.18548 0.59211 0.0
C293 C 0.07355 0.18247 0.54155 0.0
C294 C 0.05118 0.18791 0.51602 0.0
C295 C 0.0335 0.19323 0.54823 0.0
C296 C 0.08107 0.15696 0.53437 0.0
C297 C 0.09261 0.20055 0.53072 0.0
C298 C 0.95128 0.22189 0.52481 0.0
C299 C 0.93839 0.22744 0.48428 0.0
C300 C 0.94827 0.22392 0.43934 0.0
C301 C 0.97073 0.2152 0.43479 0.0
C302 C 0.98357 0.21012 0.47561 0.0
C303 C 0.9738 0.2134 0.51968 0.0
C304 C 0.99028 0.20765 0.55908 0.0
C305 C 0.0115 0.2003 0.53136 0.0
C306 C 0.00744 0.20178 0.48249 0.0
C307 C 0.97999 0.1874 0.58802 0.0
C308 C 0.99459 0.22997 0.58802 0.0
H309 H 0.0954 0.17285 0.45164 0.0
H310 H 0.04917 0.19196 0.30908 0.0
H311 H 0.03844 0.2321 0.38084 0.0
H312 H 0.00932 0.23225 0.39795 0.0
H313 H 0.01703 0.22219 0.33971 0.0
H314 H 0.0152 0.16146 0.37763 0.0
H315 H 0.00509 0.18286 0.33662 0.0
H316 H 0.99139 0.17869 0.39326 0.0
H317 H 0.09881 0.17982 0.62632 0.0
H318 H 0.04007 0.1942 0.71628 0.0
H319 H 0.01569 0.1981 0.64748 0.0
H320 H 0.07195 0.14521 0.5593 0.0
H321 H 0.09991 0.15479 0.54033 0.0
H322 H 0.07657 0.15027 0.49891 0.0
H323 H 0.08859 0.21735 0.54802 0.0
H324 H 0.09421 0.20463 0.49279 0.0
H325 H 0.10968 0.19468 0.54405 0.0
H326 H 0.11298 0.17009 0.375 0.0
C327 C 0.08481 0.17698 0.42174 0.0
C328 C 0.68913 0.96903 0.65747 0.0
C329 C 0.69282 0.9451 0.66158 0.0
C330 C 0.69074 0.93094 0.62143 0.0
C331 C 0.68371 0.96458 0.57281 0.0
C332 C 0.68473 0.97843 0.61258 0.0
C333 C 0.6823 0.00369 0.60042 0.0
H334 H 0.68272 0.08715 0.43255 0.0
C335 C 0.68137 0.97965 0.53107 0.0
C336 C 0.68041 0.00262 0.54678 0.0
H337 H 0.678 0.09557 0.58403 0.0
H338 H 0.67598 0.05416 0.59397 0.0
H339 H 0.71834 0.04494 0.43354 0.0
H340 H 0.64394 0.0462 0.42629 0.0
H341 H 0.65373 0.02464 0.3874 0.0
H342 H 0.66173 0.05438 0.37709 0.0
H343 H 0.70298 0.05501 0.3824 0.0
H344 H 0.70952 0.02485 0.39057 0.0
C345 C 0.70455 0.01626 0.61669 0.0
C346 C 0.65983 0.01289 0.62348 0.0
C347 C 0.68788 0.94376 0.36851 0.0
C348 C 0.68992 0.95302 0.32284 0.0
C349 C 0.68711 0.97704 0.31645 0.0
C350 C 0.68345 0.99167 0.35539 0.0
C351 C 0.6827 0.9822 0.40117 0.0
C352 C 0.68447 0.95855 0.40687 0.0
C353 C 0.68409 0.95139 0.4578 0.0
C354 C 0.68186 0.97465 0.48202 0.0
C355 C 0.6811 0.99266 0.44885 0.0
C356 C 0.70745 0.9393 0.46915 0.0
C357 C 0.6624 0.93618 0.46586 0.0
C358 C 0.68126 0.08003 0.46783 0.0
C359 C 0.68073 0.09461 0.50759 0.0
C360 C 0.67836 0.08471 0.55286 0.0
C361 C 0.67737 0.06066 0.55859 0.0
C362 C 0.67886 0.04629 0.51867 0.0
C363 C 0.68015 0.05604 0.47414 0.0
C364 C 0.68089 0.03808 0.43572 0.0
C365 C 0.68015 0.01597 0.46456 0.0
C366 C 0.67935 0.02089 0.51322 0.0
C367 C 0.70401 0.0408 0.4087 0.0
C368 C 0.65907 0.04093 0.40457 0.0
H369 H 0.68508 0.92881 0.5479 0.0
H370 H 0.69073 0.9802 0.68801 0.0
H371 H 0.64657 0.99903 0.62627 0.0
H372 H 0.65149 0.02659 0.60224 0.0
H373 H 0.66315 0.0195 0.65971 0.0
H374 H 0.72011 0.00592 0.60741 0.0
H375 H 0.70455 0.01883 0.6556 0.0
H376 H 0.7071 0.03317 0.59959 0.0
H377 H 0.68963 0.92535 0.37456 0.0
H378 H 0.68866 0.98461 0.28159 0.0
H379 H 0.682 0.00985 0.34846 0.0
H380 H 0.72153 0.94553 0.44559 0.0
H381 H 0.70618 0.92028 0.46451 0.0
H382 H 0.71382 0.94307 0.50512 0.0
H383 H 0.64755 0.94262 0.44463 0.0
H384 H 0.65625 0.93653 0.50283 0.0
H385 H 0.66566 0.91798 0.45524 0.0
H386 H 0.69338 0.91244 0.62421 0.0
C387 C 0.686 0.94051 0.5772 0.0
C388 C 0.55478 0.33379 0.1636 0.0
C389 C 0.5779 0.34096 0.16871 0.0
C390 C 0.5907 0.34666 0.12794 0.0
C391 C 0.55847 0.33587 0.07823 0.0
C392 C 0.54544 0.33138 0.11811 0.0
C393 C 0.52157 0.32288 0.10591 0.0
H394 H 0.44815 0.28063 0.94084 0.0
C395 C 0.54471 0.32933 0.03645 0.0
C396 C 0.52302 0.32178 0.05227 0.0
H397 H 0.43431 0.29328 0.08855 0.0
H398 H 0.4726 0.30949 0.09843 0.0
H399 H 0.47205 0.33036 0.92331 0.0
H400 H 0.50014 0.26287 0.95186 0.0
H401 H 0.51786 0.27581 0.90902 0.0
H402 H 0.48787 0.27036 0.89566 0.0
H403 H 0.4719 0.30757 0.88028 0.0
H404 H 0.49628 0.32674 0.88666 0.0
C405 C 0.50377 0.3411 0.1229 0.0
C406 C 0.51834 0.29864 0.12812 0.0
C407 C 0.58259 0.32978 0.87479 0.0
C408 C 0.57583 0.32124 0.83033 0.0
C409 C 0.55342 0.31194 0.82523 0.0
C410 C 0.53827 0.31078 0.86383 0.0
C411 C 0.5456 0.31881 0.90826 0.0
C412 C 0.56742 0.32814 0.91308 0.0
C413 C 0.57286 0.33456 0.96331 0.0
C414 C 0.55053 0.32788 0.98782 0.0
C415 C 0.5346 0.31877 0.95542 0.0
C416 C 0.57707 0.36098 0.96538 0.0
C417 C 0.59365 0.31962 0.97987 0.0
C418 C 0.45352 0.28679 0.9753 0.0
C419 C 0.43852 0.2855 0.01416 0.0
C420 C 0.44574 0.29411 0.05828 0.0
C421 C 0.46792 0.30344 0.06391 0.0
C422 C 0.48292 0.30431 0.02489 0.0
C423 C 0.47544 0.29653 0.9813 0.0
C424 C 0.49318 0.30016 0.94323 0.0
C425 C 0.5126 0.31123 0.97123 0.0
C426 C 0.50667 0.3132 0.01921 0.0
C427 C 0.48294 0.31694 0.90605 0.0
C428 C 0.50014 0.27616 0.92343 0.0
H429 H 0.59195 0.34837 0.05335 0.0
H430 H 0.54439 0.32963 0.19427 0.0
H431 H 0.53381 0.28769 0.12142 0.0
H432 H 0.50357 0.28905 0.11333 0.0
H433 H 0.51595 0.29991 0.16699 0.0
H434 H 0.51155 0.35867 0.12484 0.0
H435 H 0.49705 0.33682 0.15861 0.0
H436 H 0.48909 0.34299 0.09813 0.0
H437 H 0.59952 0.33732 0.88009 0.0
H438 H 0.54778 0.30493 0.79168 0.0
H439 H 0.52159 0.30326 0.85775 0.0
H440 H 0.56481 0.37028 0.94178 0.0
H441 H 0.59487 0.36537 0.95377 0.0
H442 H 0.57408 0.36833 0.00089 0.0
H443 H 0.59444 0.3029 0.96046 0.0
H444 H 0.59247 0.31452 0.01741 0.0
H445 H 0.61031 0.32868 0.97386 0.0
H446 H 0.60859 0.35199 0.13066 0.0
C447 C 0.5811 0.34427 0.08289 0.0
C448 C 0.30965 0.0498 0.35007 0.0
C449 C 0.30861 0.07411 0.34996 0.0
C450 C 0.312 0.08614 0.3927 0.0
C451 C 0.31479 0.04996 0.43525 0.0
C452 C 0.31273 0.03811 0.39306 0.0
C453 C 0.31296 0.0123 0.40025 0.0
H454 H 0.31187 0.92114 0.55086 0.0
C455 C 0.31551 0.03287 0.47396 0.0
C456 C 0.31463 0.01074 0.45379 0.0
H457 H 0.31216 0.9199 0.39815 0.0
H458 H 0.31401 0.9616 0.39615 0.0
H459 H 0.35058 0.96372 0.56382 0.0
H460 H 0.27628 0.96043 0.56021 0.0
H461 H 0.28344 0.98256 0.59994 0.0
H462 H 0.29222 0.95324 0.61253 0.0
H463 H 0.33343 0.94951 0.60804 0.0
H464 H 0.33934 0.98001 0.61129 0.0
C465 C 0.33475 0.00243 0.37566 0.0
C466 C 0.28983 0.00239 0.38153 0.0
C467 C 0.31153 0.06107 0.64337 0.0
C468 C 0.30789 0.04972 0.68655 0.0
C469 C 0.30759 0.02538 0.68766 0.0
C470 C 0.31055 0.01251 0.64601 0.0
C471 C 0.31336 0.02415 0.6027 0.0
C472 C 0.3139 0.04803 0.60204 0.0
C473 C 0.31511 0.0576 0.55276 0.0
C474 C 0.3153 0.03553 0.52382 0.0
C475 C 0.31448 0.01598 0.55316 0.0
C476 C 0.33808 0.07113 0.54775 0.0
C477 C 0.29301 0.07222 0.54404 0.0
C478 C 0.31271 0.92988 0.51704 0.0
C479 C 0.31197 0.91727 0.47459 0.0
C480 C 0.31258 0.92928 0.43128 0.0
C481 C 0.31372 0.95348 0.43022 0.0
C482 C 0.31399 0.96589 0.47293 0.0
C483 C 0.31363 0.95408 0.5154 0.0
C484 C 0.31326 0.97015 0.55722 0.0
C485 C 0.31412 0.99352 0.53287 0.0
C486 C 0.31438 0.99092 0.48348 0.0
C487 C 0.3352 0.96565 0.58707 0.0
C488 C 0.29025 0.96643 0.5843 0.0
H489 H 0.31716 0.08443 0.46658 0.0
H490 H 0.3071 0.04006 0.31779 0.0
H491 H 0.27522 0.01407 0.39066 0.0
H492 H 0.28528 0.98557 0.39732 0.0
H493 H 0.29021 1.00053 0.34247 0.0
H494 H 0.34933 0.01495 0.37726 0.0
H495 H 0.33134 0.99865 0.33781 0.0
H496 H 0.34141 0.98669 0.39307 0.0
H497 H 0.31126 0.07977 0.64141 0.0
H498 H 0.30472 0.01636 0.72069 0.0
H499 H 0.30999 0.99403 0.64896 0.0
H500 H 0.35218 0.06255 0.56796 0.0
H501 H 0.33633 0.08903 0.56152 0.0
H502 H 0.34443 0.07179 0.51095 0.0
H503 H 0.27805 0.06525 0.56423 0.0
H504 H 0.28718 0.07194 0.50691 0.0
H505 H 0.29556 0.09044 0.55523 0.0
H506 H 0.31177 0.10487 0.39337 0.0
C507 C 0.31516 0.07423 0.43521 0.0
C508 C 0.54691 0.72517 0.02779 0.0
C509 C 0.55856 0.73048 0.98559 0.0
C510 C 0.5475 0.72646 0.94203 0.0
C511 C 0.51348 0.71255 0.98295 0.0
C512 C 0.52454 0.71606 0.02564 0.0
C513 C 0.50983 0.70902 0.06705 0.0
H514 H 0.40694 0.67043 0.1485 0.0
C515 C 0.49035 0.70301 0.99291 0.0
C516 C 0.48821 0.70056 0.04211 0.0
H517 H 0.46621 0.69193 0.23036 0.0
H518 H 0.48796 0.69808 0.15841 0.0
H519 H 0.41067 0.71044 0.07289 0.0
H520 H 0.43431 0.63999 0.073 0.0
H521 H 0.42624 0.64608 0.0145 0.0
H522 H 0.40478 0.64726 0.06085 0.0
H523 H 0.3916 0.686 0.0702 0.0
H524 H 0.4038 0.69845 0.01765 0.0
C525 C 0.50515 0.73081 0.0974 0.0
C526 C 0.52232 0.68923 0.09365 0.0
C527 C 0.43256 0.69265 0.85931 0.0
C528 C 0.40974 0.68423 0.85799 0.0
C529 C 0.40014 0.67476 0.89955 0.0
C530 C 0.41248 0.6748 0.94204 0.0
C531 C 0.43476 0.68433 0.94325 0.0
C532 C 0.44475 0.69236 0.90209 0.0
C533 C 0.46913 0.70057 0.90981 0.0
C534 C 0.47163 0.69715 0.96282 0.0
C535 C 0.45133 0.68793 0.98219 0.0
C536 C 0.47039 0.72643 0.89588 0.0
C537 C 0.48566 0.68467 0.8814 0.0
C538 C 0.42477 0.67597 0.15105 0.0
C539 C 0.43491 0.68061 0.19515 0.0
C540 C 0.45799 0.68837 0.19675 0.0
C541 C 0.47055 0.69193 0.15495 0.0
C542 C 0.45985 0.68795 0.11105 0.0
C543 C 0.43742 0.67983 0.10975 0.0
C544 C 0.42843 0.67728 0.06024 0.0
C545 C 0.44913 0.68532 0.03185 0.0
C546 C 0.46748 0.69159 0.0617 0.0
C547 C 0.40744 0.69372 0.05461 0.0
C548 C 0.42295 0.65139 0.05145 0.0
H549 H 0.51742 0.71511 0.9063 0.0
H550 H 0.55516 0.72778 0.06174 0.0
H551 H 0.53118 0.67746 0.06837 0.0
H552 H 0.51035 0.67802 0.11359 0.0
H553 H 0.53559 0.69616 0.1182 0.0
H554 H 0.50308 0.74637 0.07467 0.0
H555 H 0.51967 0.73419 0.12212 0.0
H556 H 0.48891 0.72975 0.11772 0.0
H557 H 0.44061 0.69992 0.82813 0.0
H558 H 0.38294 0.66739 0.89939 0.0
H559 H 0.40403 0.6677 0.97248 0.0
H560 H 0.45521 0.73597 0.91007 0.0
H561 H 0.47041 0.7285 0.85685 0.0
H562 H 0.48569 0.73533 0.91029 0.0
H563 H 0.47793 0.66731 0.87524 0.0
H564 H 0.50194 0.68109 0.90057 0.0
H565 H 0.48978 0.69219 0.84628 0.0
H566 H 0.55616 0.73052 0.90912 0.0
C567 C 0.52501 0.71757 0.94049 0.0
C568 C 0.15497 0.18049 0.0917 0.0
C569 C 0.17592 0.1912 0.10386 0.0
C570 C 0.13693 0.17857 0.12471 0.0
C571 C 0.14 0.18748 0.17087 0.0
C572 C 0.16078 0.19898 0.18277 0.0
C573 C 0.17842 0.20077 0.14913 0.0
C574 C 0.1149 0.16642 0.11067 0.0
C575 C 0.16473 0.20874 0.23165 0.0
C576 C 0.09169 0.19915 0.258 0.0
C577 C 0.09432 0.18054 0.28934 0.0
C578 C 0.10545 0.20091 0.2173 0.0
C579 C 0.12225 0.18372 0.20801 0.0
C580 C 0.12392 0.16417 0.23789 0.0
C581 C 0.10988 0.16279 0.27813 0.0
C582 C 0.10302 0.2219 0.18601 0.0
C583 C 0.14156 0.14542 0.2291 0.0
H584 H 0.15281 0.17319 0.05671 0.0
H585 H 0.19444 0.20922 0.15882 0.0
H586 H 0.11333 0.14997 0.13057 0.0
H587 H 0.09968 0.17717 0.11988 0.0
H588 H 0.11435 0.16247 0.07226 0.0
H589 H 0.18146 0.21804 0.23457 0.0
H590 H 0.15061 0.22086 0.24111 0.0
H591 H 0.16455 0.19454 0.25801 0.0
H592 H 0.07978 0.21298 0.26655 0.0
H593 H 0.11162 0.14815 0.30176 0.0
H594 H 0.10286 0.21681 0.14822 0.0
H595 H 0.11807 0.23348 0.1914 0.0
H596 H 0.08702 0.23179 0.19387 0.0
H597 H 0.14069 0.13943 0.19191 0.0
H598 H 0.13907 0.13031 0.25278 0.0
H599 H 0.15917 0.15244 0.235 0.0
C600 C 0.23787 0.65256 0.65373 0.0
C601 C 0.23673 0.64841 0.60497 0.0
C602 C 0.22745 0.6375 0.68606 0.0
C603 C 0.21513 0.61802 0.66927 0.0
C604 C 0.21342 0.61399 0.62002 0.0
C605 C 0.22449 0.62912 0.58839 0.0
C606 C 0.23004 0.64222 0.73833 0.0
C607 C 0.2 0.59368 0.60086 0.0
C608 C 0.20959 0.57043 0.76047 0.0
C609 C 0.18859 0.57621 0.78204 0.0
C610 C 0.2179 0.58312 0.72178 0.0
C611 C 0.20465 0.60174 0.70385 0.0
C612 C 0.18263 0.60651 0.72336 0.0
C613 C 0.17497 0.59385 0.76266 0.0
C614 C 0.24162 0.5777 0.70254 0.0
C615 C 0.16776 0.62588 0.70456 0.0
H616 H 0.24745 0.66734 0.66682 0.0
H617 H 0.22345 0.62594 0.55069 0.0
H618 H 0.21279 0.64438 0.75482 0.0
H619 H 0.23853 0.6273 0.75582 0.0
H620 H 0.24042 0.65799 0.74552 0.0
H621 H 0.19938 0.59361 0.56162 0.0
H622 H 0.20798 0.57729 0.61298 0.0
H623 H 0.18206 0.59402 0.61466 0.0
H624 H 0.22023 0.55693 0.77575 0.0
H625 H 0.15864 0.59819 0.77922 0.0
H626 H 0.25368 0.59189 0.71195 0.0
H627 H 0.2412 0.57653 0.66344 0.0
H628 H 0.24862 0.56126 0.7169 0.0
H629 H 0.17539 0.64274 0.7148 0.0
H630 H 0.14985 0.62507 0.7186 0.0
H631 H 0.16708 0.62533 0.66539 0.0
C632 C 0.84555 0.83056 0.09169 0.0
C633 C 0.82465 0.81984 0.10409 0.0
C634 C 0.8636 0.83267 0.1246 0.0
C635 C 0.8606 0.82389 0.17087 0.0
C636 C 0.83989 0.81231 0.18299 0.0
C637 C 0.82222 0.81038 0.14946 0.0
C638 C 0.88555 0.84492 0.11037 0.0
C639 C 0.83605 0.80263 0.23197 0.0
C640 C 0.90907 0.81272 0.25777 0.0
C641 C 0.90632 0.83133 0.28904 0.0
C642 C 0.89529 0.81079 0.21717 0.0
C643 C 0.87835 0.82783 0.20788 0.0
C644 C 0.87657 0.84742 0.23765 0.0
C645 C 0.89061 0.84894 0.27785 0.0
C646 C 0.89782 0.78975 0.18604 0.0
C647 C 0.8588 0.86604 0.22878 0.0
H648 H 0.84765 0.83779 0.05661 0.0
H649 H 0.80623 0.80189 0.15929 0.0
H650 H 0.88701 0.86144 0.13004 0.0
H651 H 0.90085 0.83431 0.11969 0.0
H652 H 0.88606 0.84875 0.07191 0.0
H653 H 0.81939 0.7932 0.23502 0.0
H654 H 0.85027 0.79065 0.24149 0.0
H655 H 0.83613 0.81689 0.2582 0.0
H656 H 0.9211 0.79898 0.26636 0.0
H657 H 0.88875 0.86358 0.30148 0.0
H658 H 0.89789 0.79476 0.1482 0.0
H659 H 0.88286 0.77807 0.19162 0.0
H660 H 0.9139 0.77998 0.19388 0.0
H661 H 0.85957 0.87193 0.19152 0.0
H662 H 0.86125 0.88123 0.25228 0.0
H663 H 0.84124 0.85893 0.23491 0.0
C664 C 0.77399 0.38368 0.57984 0.0
C665 C 0.7618 0.36481 0.59851 0.0
C666 C 0.78419 0.40018 0.60972 0.0
C667 C 0.78162 0.39802 0.65928 0.0
C668 C 0.76951 0.37888 0.67825 0.0
C669 C 0.76 0.36238 0.64766 0.0
C670 C 0.79746 0.42005 0.5883 0.0
C671 C 0.76603 0.37615 0.73087 0.0
C672 C 0.81934 0.42843 0.74954 0.0
C673 C 0.805 0.44671 0.76344 0.0
C674 C 0.81261 0.41324 0.71339 0.0
C675 C 0.79076 0.41611 0.69165 0.0
C676 C 0.77663 0.43512 0.70434 0.0
C677 C 0.78405 0.45034 0.73983 0.0
C678 C 0.82839 0.39351 0.70005 0.0
C679 C 0.75304 0.43855 0.68266 0.0
H680 H 0.77556 0.38552 0.54185 0.0
H681 H 0.75046 0.34793 0.66228 0.0
H682 H 0.78857 0.43658 0.59624 0.0
H683 H 0.81497 0.42107 0.60413 0.0
H684 H 0.79921 0.41837 0.54935 0.0
H685 H 0.75621 0.36025 0.73988 0.0
H686 H 0.78297 0.37551 0.7491 0.0
H687 H 0.75652 0.39132 0.745 0.0
H688 H 0.83559 0.42571 0.76781 0.0
H689 H 0.77284 0.46433 0.75103 0.0
H690 H 0.83001 0.39226 0.66107 0.0
H691 H 0.82092 0.37698 0.71276 0.0
H692 H 0.8459 0.39549 0.71558 0.0
H693 H 0.75419 0.4383 0.64355 0.0
H694 H 0.74495 0.45508 0.69383 0.0
H695 H 0.74153 0.42411 0.69332 0.0
C696 C 0.65273 0.33462 0.40967 0.0
C697 C 0.67307 0.3234 0.39532 0.0
C698 C 0.63432 0.33794 0.378 0.0
C699 C 0.63641 0.32998 0.3309 0.0
C700 C 0.65658 0.31801 0.31669 0.0
C701 C 0.67458 0.31479 0.34908 0.0
C702 C 0.61294 0.35052 0.39451 0.0
C703 C 0.65949 0.30924 0.26674 0.0
C704 C 0.58673 0.32142 0.24559 0.0
C705 C 0.58958 0.34047 0.21544 0.0
C706 C 0.60081 0.31856 0.28555 0.0
C707 C 0.61822 0.33507 0.2953 0.0
C708 C 0.62004 0.35515 0.26696 0.0
C709 C 0.60563 0.35765 0.22748 0.0
C710 C 0.59814 0.29706 0.31527 0.0
C711 C 0.63832 0.37321 0.27628 0.0
H712 H 0.65132 0.3412 0.44542 0.0
H713 H 0.69015 0.306 0.33763 0.0
H714 H 0.61161 0.3674 0.37612 0.0
H715 H 0.59723 0.34046 0.38545 0.0
H716 H 0.61311 0.35369 0.43323 0.0
H717 H 0.6759 0.29957 0.26184 0.0
H718 H 0.6449 0.29773 0.25717 0.0
H719 H 0.6593 0.32401 0.24171 0.0
H720 H 0.57446 0.30799 0.23643 0.0
H721 H 0.60758 0.37263 0.20482 0.0
H722 H 0.59882 0.30137 0.35344 0.0
H723 H 0.61263 0.28505 0.30777 0.0
H724 H 0.58166 0.28793 0.3078 0.0
H725 H 0.63825 0.37834 0.31404 0.0
H726 H 0.63584 0.38892 0.25426 0.0
H727 H 0.65562 0.36588 0.2684 0.0
C728 C 0.25769 0.14815 0.84554 0.0
C729 C 0.25972 0.14562 0.89463 0.0
C730 C 0.26678 0.13153 0.81465 0.0
C731 C 0.2787 0.11217 0.83324 0.0
C732 C 0.28137 0.10984 0.88274 0.0
C733 C 0.27159 0.12647 0.91292 0.0
C734 C 0.26317 0.13444 0.7621 0.0
C735 C 0.29445 0.08975 0.90377 0.0
C736 C 0.28114 0.05995 0.75227 0.0
C737 C 0.3022 0.0635 0.72901 0.0
C738 C 0.27363 0.07521 0.78762 0.0
C739 C 0.28776 0.09418 0.80054 0.0
C740 C 0.30968 0.09701 0.77905 0.0
C741 C 0.31651 0.08179 0.74303 0.0
C742 C 0.24997 0.07183 0.80903 0.0
C743 C 0.32547 0.11669 0.79261 0.0
H744 H 0.24838 0.16283 0.83122 0.0
H745 H 0.27333 0.12456 0.95087 0.0
H746 H 0.28009 0.13513 0.74374 0.0
H747 H 0.25363 0.11933 0.74784 0.0
H748 H 0.25335 0.15038 0.75342 0.0
H749 H 0.29603 0.09111 0.9428 0.0
H750 H 0.28554 0.07331 0.8951 0.0
H751 H 0.31203 0.08879 0.88825 0.0
H752 H 0.26997 0.04596 0.74094 0.0
H753 H 0.33283 0.08446 0.72501 0.0
H754 H 0.23856 0.08637 0.79847 0.0
H755 H 0.25104 0.07195 0.84815 0.0
H756 H 0.24182 0.05538 0.79756 0.0
H757 H 0.31797 0.13328 0.7803 0.0
H758 H 0.34296 0.11481 0.77693 0.0
H759 H 0.32716 0.11776 0.83161 0.0
C760 C 0.32792 0.6958 0.35701 0.0
C761 C 0.32818 0.68638 0.40268 0.0
C762 C 0.34728 0.69425 0.32748 0.0
C763 C 0.36749 0.6831 0.34401 0.0
C764 C 0.36812 0.674 0.3904 0.0
C765 C 0.34843 0.67573 0.41923 0.0
C766 C 0.34593 0.7042 0.27817 0.0
C767 C 0.38943 0.66212 0.40925 0.0
C768 C 0.40504 0.66079 0.24455 0.0
C769 C 0.42059 0.67914 0.23854 0.0
C770 C 0.38849 0.66118 0.2807 0.0
C771 C 0.38754 0.68037 0.31167 0.0
C772 C 0.40422 0.69817 0.30787 0.0
C773 C 0.42056 0.69736 0.27125 0.0
C774 C 0.37108 0.6418 0.28374 0.0
C775 C 0.40386 0.71884 0.34043 0.0
H776 H 0.31243 0.70416 0.34392 0.0
H777 H 0.34885 0.66851 0.45456 0.0
H778 H 0.36 0.71694 0.27273 0.0
H779 H 0.34833 0.69024 0.25174 0.0
H780 H 0.32913 0.71285 0.27119 0.0
H781 H 0.38756 0.65709 0.44694 0.0
H782 H 0.39303 0.64635 0.38818 0.0
H783 H 0.40467 0.67363 0.40571 0.0
H784 H 0.40525 0.64649 0.21978 0.0
H785 H 0.43243 0.71167 0.26662 0.0
H786 H 0.35382 0.6483 0.27303 0.0
H787 H 0.36959 0.63547 0.32062 0.0
H788 H 0.3757 0.62701 0.26053 0.0
H789 H 0.38879 0.7299 0.33172 0.0
H790 H 0.41979 0.72943 0.3372 0.0
H791 H 0.40192 0.71328 0.37773 0.0
C792 C 0.74375 0.88783 0.89846 0.0
C793 C 0.74009 0.86395 0.89416 0.0
C794 C 0.7347 0.90331 0.86499 0.0
C795 C 0.72142 0.89468 0.82687 0.0
C796 C 0.71653 0.87073 0.82405 0.0
C797 C 0.72608 0.85564 0.85751 0.0
C798 C 0.74047 0.92868 0.86893 0.0
C799 C 0.7021 0.86088 0.7844 0.0
C800 C 0.68657 0.93408 0.74614 0.0
C801 C 0.70084 0.93473 0.70624 0.0
C802 C 0.6933 0.92167 0.78662 0.0
C803 C 0.71486 0.91005 0.78698 0.0
C804 C 0.72974 0.91172 0.74741 0.0
C805 C 0.72244 0.9239 0.70738 0.0
C806 C 0.67692 0.92007 0.82797 0.0
C807 C 0.75302 0.8999 0.74658 0.0
H808 H 0.75454 0.89436 0.92679 0.0
H809 H 0.7229 0.83723 0.85447 0.0
H810 H 0.75258 0.93353 0.84019 0.0
H811 H 0.7247 0.93936 0.8646 0.0
H812 H 0.74864 0.93298 0.90335 0.0
H813 H 0.69775 0.8424 0.79025 0.0
H814 H 0.68581 0.87081 0.78049 0.0
H815 H 0.7117 0.86236 0.75059 0.0
H816 H 0.66982 0.94244 0.7449 0.0
H817 H 0.73345 0.9246 0.67639 0.0
H818 H 0.68601 0.92427 0.8614 0.0
H819 H 0.67043 0.90209 0.83114 0.0
H820 H 0.66189 0.93186 0.82404 0.0
H821 H 0.76315 0.90465 0.77842 0.0
H822 H 0.76323 0.90448 0.71468 0.0
H823 H 0.7506 0.88088 0.74719 0.0
C824 C 0.82425 0.80055 0.85245 0.0
C825 C 0.82424 0.81491 0.89231 0.0
C826 C 0.84254 0.80121 0.81994 0.0
C827 C 0.86149 0.81618 0.8282 0.0
C828 C 0.86208 0.82987 0.86962 0.0
C829 C 0.84329 0.82929 0.90091 0.0
C830 C 0.84111 0.78664 0.77575 0.0
C831 C 0.88225 0.84558 0.88025 0.0
C832 C 0.91509 0.80492 0.7542 0.0
C833 C 0.91254 0.8213 0.71795 0.0
C834 C 0.89907 0.80358 0.79139 0.0
C835 C 0.87982 0.81867 0.7918 0.0
C836 C 0.8775 0.83565 0.75614 0.0
C837 C 0.89403 0.83695 0.72007 0.0
C838 C 0.90237 0.78559 0.82944 0.0
C839 C 0.85712 0.85197 0.75515 0.0
H840 H 0.8095 0.78949 0.84563 0.0
H841 H 0.84344 0.84021 0.93206 0.0
H842 H 0.84036 0.79805 0.74425 0.0
H843 H 0.85678 0.77575 0.77221 0.0
H844 H 0.82567 0.77522 0.77557 0.0
H845 H 0.88114 0.85323 0.9162 0.0
H846 H 0.89874 0.83592 0.8772 0.0
H847 H 0.8828 0.85984 0.85408 0.0
H848 H 0.92917 0.7926 0.75277 0.0
H849 H 0.89221 0.85005 0.69296 0.0
H850 H 0.88855 0.77238 0.82686 0.0
H851 H 0.901 0.79365 0.86492 0.0
H852 H 0.91937 0.77677 0.82661 0.0
H853 H 0.84084 0.84194 0.75211 0.0
H854 H 0.85802 0.86436 0.72521 0.0
H855 H 0.85622 0.86191 0.7886 0.0
C856 C 0.75188 0.38011 0.3721 0.0
C857 C 0.76133 0.35858 0.38431 0.0
C858 C 0.76134 0.39339 0.33542 0.0
C859 C 0.78086 0.38505 0.31058 0.0
C860 C 0.7912 0.3639 0.32427 0.0
C861 C 0.78126 0.35087 0.36087 0.0
C862 C 0.74973 0.41579 0.32175 0.0
C863 C 0.81218 0.35457 0.29894 0.0
C864 C 0.7863 0.40381 0.18278 0.0
C865 C 0.80261 0.42168 0.1857 0.0
C866 C 0.77934 0.39162 0.2231 0.0
C867 C 0.78899 0.39735 0.26754 0.0
C868 C 0.80568 0.41518 0.27075 0.0
C869 C 0.81221 0.42726 0.22975 0.0
C870 C 0.7613 0.37289 0.21822 0.0
C871 C 0.81647 0.42161 0.3175 0.0
H872 H 0.73655 0.3863 0.3901 0.0
H873 H 0.78884 0.33438 0.37037 0.0
H874 H 0.76258 0.42999 0.32001 0.0
H875 H 0.74199 0.41404 0.28605 0.0
H876 H 0.73588 0.42078 0.34696 0.0
H877 H 0.8196 0.33924 0.31705 0.0
H878 H 0.80737 0.34953 0.26241 0.0
H879 H 0.82571 0.36809 0.29624 0.0
H880 H 0.77853 0.3997 0.14895 0.0
H881 H 0.82492 0.44097 0.23206 0.0
H882 H 0.74585 0.37738 0.23954 0.0
H883 H 0.76811 0.35628 0.23203 0.0
H884 H 0.75583 0.37028 0.18097 0.0
H885 H 0.80294 0.42788 0.34213 0.0
H886 H 0.82984 0.43526 0.31373 0.0
H887 H 0.82449 0.40616 0.33394 0.0
C888 C 0.15718 0.17813 0.90114 0.0
C889 C 0.17574 0.19312 0.89242 0.0
C890 C 0.13831 0.17704 0.87008 0.0
C891 C 0.13834 0.19084 0.82877 0.0
C892 C 0.15685 0.2063 0.82027 0.0
C893 C 0.1752 0.20746 0.85253 0.0
C894 C 0.11859 0.16082 0.88097 0.0
C895 C 0.15771 0.22099 0.77618 0.0
C896 C 0.10561 0.17056 0.72046 0.0
C897 C 0.08705 0.18617 0.71897 0.0
C898 C 0.12215 0.17158 0.75658 0.0
C899 C 0.11976 0.18821 0.79292 0.0
C900 C 0.10038 0.20312 0.79326 0.0
C901 C 0.08438 0.2021 0.75602 0.0
C902 C 0.14268 0.15548 0.75474 0.0
C903 C 0.09699 0.22073 0.83204 0.0
H904 H 0.15745 0.16721 0.93228 0.0
H905 H 0.18957 0.21899 0.84557 0.0
H906 H 0.10187 0.17015 0.87885 0.0
H907 H 0.11807 0.14675 0.85436 0.0
H908 H 0.12018 0.15293 0.91662 0.0
H909 H 0.17303 0.23255 0.77545 0.0
H910 H 0.15822 0.20969 0.7445 0.0
H911 H 0.1419 0.23175 0.7735 0.0
H912 H 0.10753 0.15778 0.69275 0.0
H913 H 0.07025 0.21438 0.75513 0.0
H914 H 0.14402 0.14551 0.78809 0.0
H915 H 0.15881 0.16571 0.75112 0.0
H916 H 0.14165 0.14313 0.72476 0.0
H917 H 0.09887 0.21246 0.8672 0.0
H918 H 0.07977 0.22916 0.83011 0.0
H919 H 0.11046 0.2343 0.82933 0.0
C920 C 0.24743 0.62696 0.38302 0.0
C921 C 0.23874 0.6493 0.39076 0.0
C922 C 0.23768 0.61238 0.34884 0.0
C923 C 0.21863 0.62021 0.3219 0.0
C924 C 0.20915 0.64235 0.33078 0.0
C925 C 0.21936 0.65667 0.36502 0.0
C926 C 0.24836 0.58892 0.34031 0.0
C927 C 0.1887 0.6512 0.30305 0.0
C928 C 0.21251 0.59389 0.19983 0.0
C929 C 0.19566 0.57686 0.20728 0.0
C930 C 0.21976 0.60838 0.23663 0.0
C931 C 0.20987 0.60587 0.28208 0.0
C932 C 0.19252 0.589 0.28971 0.0
C933 C 0.1857 0.57459 0.25222 0.0
C934 C 0.23846 0.62599 0.22712 0.0
C935 C 0.18145 0.58597 0.33761 0.0
H936 H 0.26232 0.62102 0.40283 0.0
H937 H 0.21238 0.67381 0.37101 0.0
H938 H 0.23498 0.57524 0.34236 0.0
H939 H 0.25584 0.5883 0.30422 0.0
H940 H 0.26223 0.58487 0.36616 0.0
H941 H 0.1821 0.66788 0.31709 0.0
H942 H 0.19374 0.65373 0.26558 0.0
H943 H 0.17448 0.63835 0.30361 0.0
H944 H 0.22053 0.59548 0.16536 0.0
H945 H 0.17253 0.56157 0.25801 0.0
H946 H 0.25385 0.62209 0.24911 0.0
H947 H 0.2324 0.64352 0.23707 0.0
H948 H 0.24382 0.62627 0.18942 0.0
H949 H 0.19465 0.58044 0.36368 0.0
H950 H 0.16735 0.57294 0.33709 0.0
H951 H 0.1743 0.60268 0.35012 0.0
C952 C 0.32719 0.66948 0.6354 0.0
C953 C 0.32141 0.69058 0.61403 0.0
C954 C 0.343 0.66856 0.67284 0.0
C955 C 0.35363 0.68919 0.68866 0.0
C956 C 0.34871 0.71038 0.66575 0.0
C957 C 0.33245 0.71087 0.62896 0.0
C958 C 0.34748 0.64569 0.6969 0.0
C959 C 0.36009 0.73264 0.68105 0.0
C960 C 0.372 0.69112 0.81704 0.0
C961 C 0.39564 0.68589 0.81413 0.0
C962 C 0.35822 0.69233 0.77645 0.0
C963 C 0.36839 0.68877 0.73158 0.0
C964 C 0.39232 0.68407 0.72809 0.0
C965 C 0.40564 0.68247 0.76945 0.0
C966 C 0.33268 0.69714 0.78168 0.0
C967 C 0.40379 0.6805 0.68072 0.0
H968 H 0.31865 0.65373 0.62416 0.0
H969 H 0.32819 0.72718 0.61222 0.0
H970 H 0.36629 0.64214 0.69841 0.0
H971 H 0.3411 0.64641 0.73386 0.0
H972 H 0.33882 0.63106 0.67862 0.0
H973 H 0.3562 0.74715 0.6566 0.0
H974 H 0.354 0.73742 0.71691 0.0
H975 H 0.3791 0.73037 0.68305 0.0
H976 H 0.36419 0.6944 0.85119 0.0
H977 H 0.42382 0.67821 0.76675 0.0
H978 H 0.32255 0.6827 0.76627 0.0
H979 H 0.32799 0.71304 0.76199 0.0
H980 H 0.32745 0.69935 0.81918 0.0
H981 H 0.39663 0.66485 0.66344 0.0
H982 H 0.42281 0.67845 0.68387 0.0
H983 H 0.40011 0.69537 0.65714 0.0
C984 C 0.74661 0.88504 0.1078 0.0
C985 C 0.73804 0.86244 0.10333 0.0
C986 C 0.73698 0.90061 0.14023 0.0
C987 C 0.71826 0.89346 0.16888 0.0
C988 C 0.70878 0.87108 0.163 0.0
C989 C 0.71879 0.85582 0.13028 0.0
C990 C 0.74757 0.92434 0.14542 0.0
C991 C 0.68876 0.86289 0.19279 0.0
C992 C 0.71425 0.92138 0.2896 0.0
C993 C 0.69668 0.93776 0.28301 0.0
C994 C 0.72117 0.90672 0.25287 0.0
C995 C 0.71031 0.90851 0.20823 0.0
C996 C 0.69254 0.92499 0.20119 0.0
C997 C 0.68596 0.93951 0.23871 0.0
C998 C 0.74032 0.88951 0.26176 0.0
C999 C 0.68058 0.92731 0.15404 0.0
H1000 H 0.76132 0.89044 0.08682 0.0
H1001 H 0.7119 0.83848 0.1268 0.0
H1002 H 0.73399 0.93784 0.14397 0.0
H1003 H 0.75613 0.92574 0.18038 0.0
H1004 H 0.76058 0.92798 0.11754 0.0
H1005 H 0.68183 0.84602 0.18047 0.0
H1006 H 0.69445 0.86096 0.23003 0.0
H1007 H 0.6746 0.87581 0.19235 0.0
H1008 H 0.72293 0.92025 0.32348 0.0
H1009 H 0.67229 0.95206 0.23357 0.0
H1010 H 0.75509 0.89312 0.23786 0.0
H1011 H 0.73421 0.87175 0.2539 0.0
H1012 H 0.74663 0.89001 0.29882 0.0
H1013 H 0.69333 0.93199 0.12639 0.0
H1014 H 0.66676 0.94064 0.15461 0.0
H1015 H 0.67284 0.91052 0.14365 0.0
C1016 C 0.66988 0.34142 0.62777 0.0
C1017 C 0.67663 0.32053 0.60677 0.0
C1018 C 0.65247 0.34194 0.66223 0.0
C1019 C 0.64124 0.32114 0.67518 0.0
C1020 C 0.64732 0.30016 0.65263 0.0
C1021 C 0.66514 0.30006 0.61903 0.0
C1022 C 0.64676 0.36457 0.68613 0.0
C1023 C 0.63541 0.27772 0.66484 0.0
C1024 C 0.61594 0.31665 0.79829 0.0
C1025 C 0.59244 0.32121 0.79018 0.0
C1026 C 0.63197 0.31681 0.76122 0.0
C1027 C 0.62429 0.32107 0.71458 0.0
C1028 C 0.60059 0.3253 0.70583 0.0
C1029 C 0.58497 0.32553 0.7438 0.0
C1030 C 0.65716 0.31244 0.77205 0.0
C1031 C 0.59177 0.32959 0.6564 0.0
H1032 H 0.6788 0.35727 0.61855 0.0
H1033 H 0.67016 0.28392 0.60246 0.0
H1034 H 0.62797 0.3681 0.68374 0.0
H1035 H 0.6512 0.36348 0.72422 0.0
H1036 H 0.65629 0.37936 0.67039 0.0
H1037 H 0.64078 0.26334 0.64125 0.0
H1038 H 0.63948 0.27284 0.70182 0.0
H1039 H 0.61639 0.2798 0.66239 0.0
H1040 H 0.62185 0.31272 0.83372 0.0
H1041 H 0.56693 0.32932 0.73716 0.0
H1042 H 0.6678 0.32711 0.75925 0.0
H1043 H 0.66314 0.29672 0.75324 0.0
H1044 H 0.66038 0.31011 0.81045 0.0
H1045 H 0.6 0.3453 0.64153 0.0
H1046 H 0.57272 0.33187 0.65537 0.0
H1047 H 0.59651 0.31491 0.6331 0.0
C1048 C 0.28252 0.15852 0.13232 0.0
C1049 C 0.26268 0.15115 0.10809 0.0
C1050 C 0.29218 0.14507 0.16858 0.0
C1051 C 0.28172 0.1238 0.18098 0.0
C1052 C 0.26244 0.11572 0.15506 0.0
C1053 C 0.25319 0.12945 0.11885 0.0
C1054 C 0.31289 0.15419 0.19515 0.0
C1055 C 0.25078 0.09313 0.1672 0.0
C1056 C 0.31248 0.08155 0.26275 0.0
C1057 C 0.30238 0.08698 0.30642 0.0
C1058 C 0.3062 0.09358 0.22152 0.0
C1059 C 0.2893 0.11125 0.22413 0.0
C1060 C 0.27907 0.11674 0.26815 0.0
C1061 C 0.28575 0.10457 0.30868 0.0
C1062 C 0.31756 0.08738 0.17521 0.0
C1063 C 0.26082 0.1353 0.2724 0.0
H1064 H 0.29015 0.17513 0.12393 0.0
H1065 H 0.23798 0.12349 0.10013 0.0
H1066 H 0.30764 0.15906 0.23153 0.0
H1067 H 0.32634 0.14062 0.19826 0.0
H1068 H 0.32057 0.16959 0.17776 0.0
H1069 H 0.23745 0.08822 0.1408 0.0
H1070 H 0.26369 0.07901 0.16957 0.0
H1071 H 0.24236 0.0946 0.20231 0.0
H1072 H 0.32542 0.06804 0.26093 0.0
H1073 H 0.27757 0.10854 0.34218 0.0
H1074 H 0.32596 0.10287 0.15974 0.0
H1075 H 0.30432 0.08143 0.14961 0.0
H1076 H 0.33075 0.07357 0.17933 0.0
H1077 H 0.26771 0.15204 0.25945 0.0
H1078 H 0.25478 0.13764 0.30936 0.0
H1079 H 0.24572 0.13083 0.25003 0.0
C1080 C 0.20205 0.28083 0.03416 0.0
C1081 C 0.21692 0.27234 0.99903 0.0
C1082 C 0.19533 0.30418 0.03479 0.0
C1083 C 0.20391 0.31944 -0.00019 0.0
C1084 C 0.21882 0.31093 0.96415 0.0
C1085 C 0.22501 0.28749 0.96401 0.0
C1086 C 0.17917 0.31256 0.073 0.0
C1087 C 0.22851 0.32668 0.92646 0.0
C1088 C 0.17431 0.37638 0.97138 0.0
C1089 C 0.18843 0.39225 0.99521 0.0
C1090 C 0.17862 0.35253 0.97401 0.0
C1091 C 0.19768 0.3444 0.00062 0.0
C1092 C 0.21165 0.36033 0.02571 0.0
C1093 C 0.20677 0.38406 0.0229 0.0
C1094 C 0.16314 0.33607 0.9473 0.0
C1095 C 0.23227 0.35238 0.05407 0.0
H1096 H 0.19561 0.26922 0.06117 0.0
H1097 H 0.23657 0.28114 0.93681 0.0
H1098 H 0.18785 0.32598 0.09466 0.0
H1099 H 0.1637 0.32069 0.05688 0.0
H1100 H 0.17344 0.29836 0.09669 0.0
H1101 H 0.23987 0.31735 0.90121 0.0
H1102 H 0.21423 0.33486 0.90636 0.0
H1103 H 0.23862 0.3408 0.94313 0.0
H1104 H 0.15996 0.38266 0.95039 0.0
H1105 H 0.21786 0.3963 0.041 0.0
H1106 H 0.15676 0.32228 0.97122 0.0
H1107 H 0.17311 0.32753 0.91874 0.0
H1108 H 0.14806 0.34498 0.93126 0.0
H1109 H 0.22701 0.33895 0.07988 0.0
H1110 H 0.24064 0.36681 0.07351 0.0
H1111 H 0.24522 0.34444 0.03014 0.0
C1112 C 0.19407 0.74666 0.46382 0.0
C1113 C 0.20029 0.73 0.4975 0.0
C1114 C 0.17161 0.7557 0.46233 0.0
C1115 C 0.15488 0.74761 0.49483 0.0
C1116 C 0.16097 0.73065 0.52866 0.0
C1117 C 0.18367 0.72215 0.52981 0.0
C1118 C 0.16582 0.77398 0.4261 0.0
C1119 C 0.14347 0.7214 0.56343 0.0
C1120 C 0.10223 0.7852 0.51713 0.0
C1121 C 0.08596 0.77514 0.48679 0.0
C1122 C 0.12474 0.77634 0.52032 0.0
C1123 C 0.13094 0.75679 0.49298 0.0
C1124 C 0.11443 0.74634 0.46293 0.0
C1125 C 0.09215 0.75574 0.45998 0.0
C1126 C 0.142 0.78812 0.55228 0.0
C1127 C 0.12032 0.72529 0.43372 0.0
H1128 H 0.20686 0.75293 0.43894 0.0
H1129 H 0.18835 0.70918 0.55575 0.0
H1130 H 0.15184 0.76772 0.40255 0.0
H1131 H 0.15935 0.78976 0.44403 0.0
H1132 H 0.18096 0.77875 0.40402 0.0
H1133 H 0.15094 0.70807 0.58722 0.0
H1134 H 0.13656 0.73571 0.58535 0.0
H1135 H 0.12866 0.7137 0.54415 0.0
H1136 H 0.09746 0.8003 0.53762 0.0
H1137 H 0.07946 0.74778 0.43697 0.0
H1138 H 0.15684 0.79446 0.53112 0.0
H1139 H 0.14891 0.77561 0.57841 0.0
H1140 H 0.13433 0.80297 0.57163 0.0
H1141 H 0.13438 0.72951 0.40852 0.0
H1142 H 0.10525 0.71876 0.41341 0.0
H1143 H 0.12674 0.71124 0.45695 0.0
C1144 C 0.7974 0.73027 0.03906 0.0
C1145 C 0.7819 0.73828 0.00463 0.0
C1146 C 0.80325 0.70674 0.04198 0.0
C1147 C 0.79309 0.69081 0.01016 0.0
C1148 C 0.77765 0.69884 0.975 0.0
C1149 C 0.77239 0.72248 0.97243 0.0
C1150 C 0.82005 0.69887 0.07947 0.0
C1151 C 0.76625 0.68237 0.94076 0.0
C1152 C 0.81934 0.63137 0.99008 0.0
C1153 C 0.80542 0.61745 0.01898 0.0
C1154 C 0.81593 0.65538 0.98778 0.0
C1155 C 0.79795 0.66563 0.01447 0.0
C1156 C 0.78398 0.65167 0.04403 0.0
C1157 C 0.78798 0.62777 0.04615 0.0
C1158 C 0.83139 0.66974 0.95638 0.0
C1159 C 0.76443 0.66189 0.07253 0.0
H1160 H 0.80496 0.7424 0.06384 0.0
H1161 H 0.76033 0.72849 0.94582 0.0
H1162 H 0.81126 0.68699 0.10443 0.0
H1163 H 0.83447 0.68911 0.06304 0.0
H1164 H 0.82736 0.71357 0.09985 0.0
H1165 H 0.75494 0.69144 0.91501 0.0
H1166 H 0.77955 0.67255 0.92094 0.0
H1167 H 0.75566 0.66962 0.96048 0.0
H1168 H 0.83297 0.62344 0.96937 0.0
H1169 H 0.77703 0.61701 0.0681 0.0
H1170 H 0.83939 0.68391 0.97711 0.0
H1171 H 0.821 0.67786 0.92794 0.0
H1172 H 0.84533 0.6593 0.93985 0.0
H1173 H 0.77104 0.67575 0.096 0.0
H1174 H 0.7555 0.64874 0.09457 0.0
H1175 H 0.75158 0.6699 0.04846 0.0
C1176 C 0.8066 0.26451 0.46513 0.0
C1177 C 0.79996 0.2811 0.49866 0.0
C1178 C 0.8292 0.25584 0.46399 0.0
C1179 C 0.84567 0.26417 0.49678 0.0
C1180 C 0.83917 0.28102 0.53054 0.0
C1181 C 0.81633 0.2892 0.53126 0.0
C1182 C 0.83543 0.2377 0.42775 0.0
C1183 C 0.85637 0.29049 0.56567 0.0
C1184 C 0.89862 0.22696 0.51887 0.0
C1185 C 0.91484 0.2372 0.48865 0.0
C1186 C 0.87607 0.23572 0.5223 0.0
C1187 C 0.86975 0.25533 0.49526 0.0
C1188 C 0.88622 0.266 0.46542 0.0
C1189 C 0.90855 0.25672 0.46228 0.0
C1190 C 0.85888 0.22372 0.55408 0.0
C1191 C 0.88019 0.28708 0.43646 0.0
H1192 H 0.79404 0.25806 0.43996 0.0
H1193 H 0.81135 0.30211 0.55711 0.0
H1194 H 0.84941 0.24422 0.40448 0.0
H1195 H 0.84208 0.22199 0.44568 0.0
H1196 H 0.82047 0.23273 0.40537 0.0
H1197 H 0.84858 0.30363 0.58946 0.0
H1198 H 0.86344 0.27624 0.58756 0.0
H1199 H 0.87112 0.29848 0.5467 0.0
H1200 H 0.90343 0.21177 0.53902 0.0
H1201 H 0.92119 0.26484 0.43939 0.0
H1202 H 0.84424 0.21709 0.53271 0.0
H1203 H 0.85166 0.23616 0.58 0.0
H1204 H 0.86671 0.20904 0.57365 0.0
H1205 H 0.86632 0.28276 0.41089 0.0
H1206 H 0.89528 0.29389 0.41656 0.0
H1207 H 0.87347 0.30096 0.45976 0.0
C1208 C 0.69702 0.23147 0.46411 0.0
C1209 C 0.71257 0.23973 0.49822 0.0
C1210 C 0.6899 0.20824 0.46404 0.0
C1211 C 0.69876 0.19287 0.49853 0.0
C1212 C 0.7142 0.20119 0.5334 0.0
C1213 C 0.72078 0.22451 0.533 0.0
C1214 C 0.67317 0.20005 0.42671 0.0
C1215 C 0.72421 0.18533 0.57053 0.0
C1216 C 0.66999 0.13551 0.5272 0.0
C1217 C 0.68398 0.11992 0.50227 0.0
C1218 C 0.67402 0.15943 0.52485 0.0
C1219 C 0.69266 0.16788 0.49744 0.0
C1220 C 0.70649 0.15224 0.47134 0.0
C1221 C 0.70191 0.12846 0.4739 0.0
C1222 C 0.65871 0.17559 0.55267 0.0
C1223 C 0.72671 0.16053 0.44215 0.0
H1224 H 0.69045 0.24314 0.43733 0.0
H1225 H 0.73282 0.23069 0.55948 0.0
H1226 H 0.68163 0.18695 0.4039 0.0
H1227 H 0.65807 0.19158 0.44355 0.0
H1228 H 0.66691 0.21441 0.40402 0.0
H1229 H 0.73568 0.1946 0.59565 0.0
H1230 H 0.71012 0.17696 0.59086 0.0
H1231 H 0.7343 0.17136 0.5533 0.0
H1232 H 0.65597 0.12896 0.54879 0.0
H1233 H 0.71292 0.11644 0.455 0.0
H1234 H 0.65199 0.1895 0.52941 0.0
H1235 H 0.66891 0.18403 0.58102 0.0
H1236 H 0.64385 0.16647 0.56912 0.0
H1237 H 0.72102 0.17401 0.41685 0.0
H1238 H 0.73501 0.14628 0.42205 0.0
H1239 H 0.73985 0.1685 0.46561 0.0
C1240 C 0.31528 0.2261 0.03487 0.0
C1241 C 0.30266 0.22694 0.99269 0.0
C1242 C 0.33798 0.23445 0.03697 0.0
C1243 C 0.34798 0.24452 0.99623 0.0
C1244 C 0.33539 0.24513 0.95331 0.0
C1245 C 0.31293 0.23599 0.95188 0.0
C1246 C 0.35107 0.23289 0.08303 0.0
C1247 C 0.3453 0.25621 0.90947 0.0
C1248 C 0.39564 0.28804 0.01974 0.0
C1249 C 0.41538 0.27517 0.00868 0.0
C1250 C 0.37354 0.27845 0.0146 0.0
C1251 C 0.37126 0.25525 0.99924 0.0
C1252 C 0.39121 0.24216 0.9882 0.0
C1253 C 0.41308 0.25241 0.9925 0.0
C1254 C 0.35264 0.2931 0.02573 0.0
C1255 C 0.38949 0.21722 0.97286 0.0
H1256 H 0.30734 0.2189 0.06632 0.0
H1257 H 0.30304 0.2368 0.91938 0.0
H1258 H 0.36814 0.22463 0.07722 0.0
H1259 H 0.35431 0.25051 0.09703 0.0
H1260 H 0.34152 0.22285 0.1102 0.0
H1261 H 0.33355 0.25466 0.87859 0.0
H1262 H 0.34859 0.27482 0.91624 0.0
H1263 H 0.36212 0.24818 0.90035 0.0
H1264 H 0.39754 0.30572 0.03187 0.0
H1265 H 0.42846 0.2425 0.98423 0.0
H1266 H 0.34308 0.28556 0.05601 0.0
H1267 H 0.34068 0.29331 0.99507 0.0
H1268 H 0.35735 0.31119 0.03466 0.0
H1269 H 0.38096 0.20691 0.00095 0.0
H1270 H 0.40668 0.20951 0.96534 0.0
H1271 H 0.37864 0.2158 0.94069 0.0
C1272 C 0.27711 0.78713 0.52449 0.0
C1273 C 0.28669 0.77094 0.49317 0.0
C1274 C 0.28257 0.81069 0.52118 0.0
C1275 C 0.2983 0.81828 0.48617 0.0
C1276 C 0.30864 0.80196 0.45541 0.0
C1277 C 0.30257 0.77849 0.45903 0.0
C1278 C 0.27095 0.82756 0.5543 0.0
C1279 C 0.32578 0.80936 0.41816 0.0
C1280 C 0.29262 0.88092 0.44779 0.0
C1281 C 0.30953 0.89174 0.47549 0.0
C1282 C 0.28911 0.85695 0.45023 0.0
C1283 C 0.30306 0.84343 0.48068 0.0
C1284 C 0.32063 0.85418 0.50772 0.0
C1285 C 0.32352 0.87826 0.5051 0.0
C1286 C 0.26997 0.84621 0.42137 0.0
C1287 C 0.33606 0.84031 0.54004 0.0
H1288 H 0.26476 0.78151 0.55089 0.0
H1289 H 0.31017 0.76608 0.43491 0.0
H1290 H 0.28412 0.83767 0.57388 0.0
H1291 H 0.26043 0.84003 0.53368 0.0
H1292 H 0.25953 0.8188 0.58029 0.0
H1293 H 0.33342 0.79439 0.39915 0.0
H1294 H 0.31714 0.82073 0.392 0.0
H1295 H 0.33993 0.81953 0.43452 0.0
H1296 H 0.28161 0.89134 0.42527 0.0
H1297 H 0.33676 0.88658 0.52622 0.0
H1298 H 0.25691 0.83844 0.44527 0.0
H1299 H 0.27693 0.83209 0.39899 0.0
H1300 H 0.26121 0.859 0.39821 0.0
H1301 H 0.32563 0.83257 0.56886 0.0
H1302 H 0.34993 0.85102 0.55608 0.0
H1303 H 0.34415 0.82586 0.52025 0.0
C1304 C 0.68961 0.76701 0.02735 0.0
C1305 C 0.6972 0.78372 0.99495 0.0
C1306 C 0.66689 0.75865 0.02607 0.0
C1307 C 0.65129 0.76747 0.99206 0.0
C1308 C 0.65869 0.78469 0.95988 0.0
C1309 C 0.68164 0.79249 0.96148 0.0
C1310 C 0.6597 0.74007 0.06057 0.0
C1311 C 0.64242 0.79473 0.92359 0.0
C1312 C 0.59967 0.73049 0.95878 0.0
C1313 C 0.58223 0.74012 0.98689 0.0
C1314 C 0.62224 0.73926 0.96006 0.0
C1315 C 0.62735 0.75832 0.98968 0.0
C1316 C 0.60971 0.76829 0.01772 0.0
C1317 C 0.58736 0.75893 0.01625 0.0
C1318 C 0.6407 0.72795 0.93023 0.0
C1319 C 0.61445 0.78881 0.04924 0.0
H1320 H 0.70157 0.76006 0.05317 0.0
H1321 H 0.68737 0.80552 0.93656 0.0
H1322 H 0.64477 0.74606 0.08187 0.0
H1323 H 0.65406 0.72443 0.04101 0.0
H1324 H 0.67391 0.73514 0.08498 0.0
H1325 H 0.65064 0.80862 0.90231 0.0
H1326 H 0.63642 0.78093 0.89929 0.0
H1327 H 0.6269 0.80192 0.9413 0.0
H1328 H 0.59573 0.71579 0.93641 0.0
H1329 H 0.57379 0.76651 0.03763 0.0
H1330 H 0.65478 0.72142 0.95324 0.0
H1331 H 0.64844 0.74081 0.90585 0.0
H1332 H 0.63386 0.71331 0.90903 0.0
H1333 H 0.6276 0.78418 0.07613 0.0
H1334 H 0.59866 0.79494 0.06772 0.0
H1335 H 0.62161 0.80327 0.02805 0.0
loop_
_geom_bond_atom_site_label_1
_geom_bond_atom_site_label_2
_geom_bond_distance
_geom_bond_site_symmetry_2
_ccdc_geom_bond_type
Fe0 O2 1.918 . S
Fe0 O5 1.997 . S
Fe0 O6 2.002 . S
Fe0 O11 1.976 . S
Fe0 O14 1.996 . S
Fe1 O2 1.918 1_556 S
Fe1 O9 1.997 . S
Fe1 O12 1.996 . S
Fe1 O16 1.976 . S
Fe1 O19 2.002 . S
O2 Fe0 1.918 . S
O2 Fe1 1.918 1_554 S
O2 Fe3 1.918 1_554 S
Fe3 O2 1.918 1_556 S
Fe3 O4 1.997 1_556 S
Fe3 O13 1.971 1_556 S
Fe3 O17 2.001 . S
Fe3 O20 2.002 . S
O4 Fe3 1.997 1_554 S
O4 C21 1.295 . S
O5 Fe0 1.997 . S
O5 C21 1.235 . S
O6 Fe0 2.002 . S
O6 C7 1.295 . S
C7 O6 1.295 . S
C7 O9 1.235 1_554 S
C8 O13 1.287 . S
C8 O14 1.255 . S
O9 Fe1 1.997 . S
O9 C7 1.235 1_556 S
C10 O16 1.287 . S
C10 O17 1.255 . S
O11 Fe0 1.976 . S
O11 C18 1.287 1_554 S
O12 Fe1 1.996 . S
O12 C18 1.255 . S
O13 Fe3 1.971 1_554 S
O13 C8 1.287 . S
O14 Fe0 1.996 . S
O14 C8 1.255 . S
C15 O19 1.295 . S
C15 O20 1.235 . S
O16 Fe1 1.976 . S
O16 C10 1.287 . S
O17 Fe3 2.001 . S
O17 C10 1.255 . S
C18 O11 1.287 1_556 S
C18 O12 1.255 . S
O19 Fe1 2.002 . S
O19 C15 1.295 . S
O20 Fe3 2.002 . S
O20 C15 1.235 . S
C21 O4 1.295 . S
C21 O5 1.235 . S
Fe22 O24 1.918 . S
Fe22 O27 1.997 . S
Fe22 O28 2.002 . S
Fe22 O33 1.976 . S
Fe22 O36 1.996 . S
Fe23 O24 1.918 . S
Fe23 O31 1.997 . S
Fe23 O34 1.996 . S
Fe23 O38 1.976 . S
Fe23 O41 2.002 . S
O24 Fe22 1.918 . S
O24 Fe23 1.918 . S
O24 Fe25 1.918 . S
Fe25 O24 1.918 . S
Fe25 O26 2.002 . S
Fe25 O35 1.976 . S
Fe25 O39 1.996 . S
Fe25 O42 1.997 . S
O26 Fe25 2.002 . S
O26 C43 1.295 . S
O27 Fe22 1.997 . S
O27 C43 1.235 . S
O28 Fe22 2.002 . S
O28 C29 1.295 . S
C29 O28 1.295 . S
C29 O31 1.235 . S
C30 O35 1.287 . S
C30 O36 1.255 . S
O31 Fe23 1.997 . S
O31 C29 1.235 . S
C32 O38 1.287 . S
C32 O39 1.255 . S
O33 Fe22 1.976 . S
O33 C40 1.287 . S
O34 Fe23 1.996 . S
O34 C40 1.255 . S
O35 Fe25 1.976 . S
O35 C30 1.287 . S
O36 Fe22 1.996 . S
O36 C30 1.255 . S
C37 O41 1.295 . S
C37 O42 1.235 . S
O38 Fe23 1.976 . S
O38 C32 1.287 . S
O39 Fe25 1.996 . S
O39 C32 1.255 . S
C40 O33 1.287 . S
C40 O34 1.255 . S
O41 Fe23 2.002 . S
O41 C37 1.295 . S
O42 Fe25 1.997 . S
O42 C37 1.235 . S
C43 O26 1.295 . S
C43 O27 1.235 . S
Fe44 O46 1.918 1_556 S
Fe44 O49 1.997 . S
Fe44 O50 2.002 . S
Fe44 O55 1.976 . S
Fe44 O58 1.996 . S
Fe45 O46 1.918 . S
Fe45 O53 1.997 . S
Fe45 O56 1.996 . S
Fe45 O60 1.976 . S
Fe45 O63 2.002 . S
O46 Fe44 1.918 1_554 S
O46 Fe45 1.918 . S
O46 Fe47 1.918 . S
Fe47 O46 1.918 . S
Fe47 O48 1.994 1_554 S
Fe47 O57 1.967 1_554 S
Fe47 O61 2.005 . S
Fe47 O64 2.006 . S
O48 Fe47 1.994 1_556 S
O48 C65 1.295 . S
O49 Fe44 1.997 . S
O49 C65 1.235 . S
O50 Fe44 2.002 . S
O50 C51 1.295 . S
C51 O50 1.295 . S
C51 O53 1.235 1_556 S
C52 O57 1.287 . S
C52 O58 1.255 . S
O53 Fe45 1.997 . S
O53 C51 1.235 1_554 S
C54 O60 1.287 . S
C54 O61 1.255 . S
O55 Fe44 1.976 . S
O55 C62 1.287 1_556 S
O56 Fe45 1.996 . S
O56 C62 1.255 . S
O57 Fe47 1.967 1_556 S
O57 C52 1.287 . S
O58 Fe44 1.996 . S
O58 C52 1.255 . S
C59 O63 1.295 . S
C59 O64 1.235 . S
O60 Fe45 1.976 . S
O60 C54 1.287 . S
O61 Fe47 2.005 . S
O61 C54 1.255 . S
C62 O55 1.287 1_554 S
C62 O56 1.255 . S
O63 Fe45 2.002 . S
O63 C59 1.295 . S
O64 Fe47 2.006 . S
O64 C59 1.235 . S
C65 O48 1.295 . S
C65 O49 1.235 . S
Fe66 O68 1.918 . S
Fe66 O71 1.997 . S
Fe66 O72 2.002 . S
Fe66 O77 1.976 . S
Fe66 O80 1.996 . S
Fe67 O68 1.918 . S
Fe67 O75 1.997 . S
Fe67 O78 1.996 . S
Fe67 O82 1.976 . S
Fe67 O85 2.002 . S
O68 Fe66 1.918 . S
O68 Fe67 1.918 . S
O68 Fe69 1.918 . S
Fe69 O68 1.918 . S
Fe69 O70 2.002 . S
Fe69 O79 1.976 . S
Fe69 O83 1.996 . S
Fe69 O86 1.997 . S
O70 Fe69 2.002 . S
O70 C87 1.295 . S
O71 Fe66 1.997 . S
O71 C87 1.235 . S
O72 Fe66 2.002 . S
O72 C73 1.295 . S
C73 O72 1.295 . S
C73 O75 1.235 . S
C74 O79 1.287 . S
C74 O80 1.255 . S
O75 Fe67 1.997 . S
O75 C73 1.235 . S
C76 O82 1.287 . S
C76 O83 1.255 . S
O77 Fe66 1.976 . S
O77 C84 1.287 . S
O78 Fe67 1.996 . S
O78 C84 1.255 . S
O79 Fe69 1.976 . S
O79 C74 1.287 . S
O80 Fe66 1.996 . S
O80 C74 1.255 . S
C81 O85 1.295 . S
C81 O86 1.235 . S
O82 Fe67 1.976 . S
O82 C76 1.287 . S
O83 Fe69 1.996 . S
O83 C76 1.255 . S
C84 O77 1.287 . S
C84 O78 1.255 . S
O85 Fe67 2.002 . S
O85 C81 1.295 . S
O86 Fe69 1.997 . S
O86 C81 1.235 . S
C87 O70 1.295 . S
C87 O71 1.235 . S
C88 C89 1.391 . S
C88 C92 1.391 . S
C88 H130 0.948 . S
C89 C88 1.391 . S
C89 C90 1.391 . S
C90 C89 1.391 . S
C90 H146 0.947 . S
C90 C147 1.392 . S
C91 C92 1.391 . S
C91 C95 1.397 . S
C91 C147 1.419 . S
C92 C88 1.391 . S
C92 C91 1.391 . S
C92 C93 1.399 . S
C93 C92 1.399 . S
C93 C96 1.396 . S
C93 C105 1.453 . S
C93 C106 1.684 . S
H94 C118 0.948 . S
C95 C91 1.397 . S
C95 C96 1.394 . S
C95 C114 1.723 1_556 S
C96 C93 1.396 . S
C96 C95 1.394 . S
C96 C126 1.723 . S
H97 C120 0.947 . S
H98 C121 0.948 . S
H99 C127 0.982 . S
H100 C128 0.979 . S
H101 C128 0.980 . S
H102 C128 0.983 . S
H103 C127 0.979 . S
H104 C127 0.977 . S
C105 C93 1.453 . S
C105 H134 0.982 . S
C105 H135 0.979 . S
C105 H136 0.977 . S
C106 C93 1.684 . S
C106 H131 0.979 . S
C106 H132 0.980 . S
C106 H133 0.983 . S
C107 C108 1.391 . S
C107 C112 1.391 . S
C107 H137 0.948 . S
C108 C107 1.391 . S
C108 C109 1.391 . S
C109 C108 1.391 . S
C109 C110 1.392 . S
C109 H138 0.947 . S
C110 C109 1.392 . S
C110 C111 1.419 . S
C110 H139 0.948 . S
C111 C110 1.419 . S
C111 C112 1.391 . S
C111 C115 1.397 . S
C112 C107 1.391 . S
C112 C111 1.391 . S
C112 C113 1.399 . S
C113 C112 1.399 . S
C113 C114 1.396 . S
C113 C116 1.453 . S
C113 C117 1.684 . S
C114 C95 1.723 1_554 S
C114 C113 1.396 . S
C114 C115 1.394 . S
C115 C111 1.397 . S
C115 C114 1.394 . S
C115 C125 1.723 . S
C116 C113 1.453 . S
C116 H140 0.982 . S
C116 H141 0.979 . S
C116 H142 0.977 1_554 S
C117 C113 1.684 . S
C117 H143 0.979 . S
C117 H144 0.980 1_554 S
C117 H145 0.983 . S
C118 H94 0.948 . S
C118 C119 1.391 1_554 S
C118 C123 1.391 . S
C119 C118 1.391 1_556 S
C119 C120 1.391 . S
C120 H97 0.947 . S
C120 C119 1.391 . S
C120 C121 1.392 . S
C121 H98 0.948 . S
C121 C120 1.392 . S
C121 C122 1.419 . S
C122 C121 1.419 . S
C122 C123 1.391 1_556 S
C122 C126 1.397 . S
C123 C118 1.391 . S
C123 C122 1.391 1_554 S
C123 C124 1.399 . S
C124 C123 1.399 . S
C124 C125 1.396 . S
C124 C127 1.453 . S
C124 C128 1.684 . S
C125 C115 1.723 . S
C125 C124 1.396 . S
C125 C126 1.394 1_554 S
C126 C96 1.723 . S
C126 C122 1.397 . S
C126 C125 1.394 1_556 S
C127 H99 0.982 . S
C127 H103 0.979 . S
C127 H104 0.977 . S
C127 C124 1.453 . S
C128 H100 0.979 . S
C128 H101 0.980 . S
C128 H102 0.983 . S
C128 C124 1.684 . S
H129 C147 0.948 . S
H130 C88 0.948 . S
H131 C106 0.979 . S
H132 C106 0.980 . S
H133 C106 0.983 . S
H134 C105 0.982 . S
H135 C105 0.979 . S
H136 C105 0.977 . S
H137 C107 0.948 . S
H138 C109 0.947 . S
H139 C110 0.948 . S
H140 C116 0.982 . S
H141 C116 0.979 . S
H142 C116 0.977 1_556 S
H143 C117 0.979 . S
H144 C117 0.980 1_556 S
H145 C117 0.983 . S
H146 C90 0.947 . S
C147 C90 1.392 . S
C147 C91 1.419 . S
C147 H129 0.948 . S
C148 C149 1.391 . S
C148 C152 1.391 . S
C148 H190 0.948 . S
C149 C148 1.391 . S
C149 C150 1.391 . S
C150 C149 1.391 . S
C150 H206 0.947 . S
C150 C207 1.392 . S
C151 C152 1.391 . S
C151 C155 1.397 . S
C151 C207 1.419 . S
C152 C148 1.391 . S
C152 C151 1.391 . S
C152 C153 1.399 . S
C153 C152 1.399 . S
C153 C156 1.420 . S
C153 C165 1.453 . S
C153 C166 1.684 . S
H154 C178 0.948 . S
C155 C151 1.397 . S
C155 C156 1.399 . S
C155 C174 1.723 1_455 S
C156 C153 1.420 . S
C156 C155 1.399 . S
C156 C186 1.694 1_455 S
H157 C180 0.947 . S
H158 C181 0.948 . S
H159 C187 0.982 . S
H160 C188 0.979 . S
H161 C188 0.980 . S
H162 C188 0.983 . S
H163 C187 0.979 . S
H164 C187 0.977 . S
C165 C153 1.453 . S
C165 H194 0.982 . S
C165 H195 0.979 . S
C165 H196 0.977 . S
C166 C153 1.684 . S
C166 H191 0.979 . S
C166 H192 0.980 . S
C166 H193 0.983 . S
C167 C168 1.391 . S
C167 C172 1.391 . S
C167 H197 0.948 . S
C168 C167 1.391 . S
C168 C169 1.391 . S
C169 C168 1.391 . S
C169 C170 1.392 . S
C169 H198 0.947 . S
C170 C169 1.392 . S
C170 C171 1.419 . S
C170 H199 0.948 . S
C171 C170 1.419 . S
C171 C172 1.391 . S
C171 C175 1.397 . S
C172 C167 1.391 . S
C172 C171 1.391 . S
C172 C173 1.399 . S
C173 C172 1.399 . S
C173 C174 1.396 . S
C173 C176 1.453 1_655 S
C173 C177 1.684 . S
C174 C155 1.723 1_655 S
C174 C173 1.396 . S
C174 C175 1.394 . S
C175 C171 1.397 . S
C175 C174 1.394 . S
C175 C185 1.723 . S
C176 C173 1.453 1_455 S
C176 H200 0.982 . S
C176 H201 0.979 . S
C176 H202 0.977 . S
C177 C173 1.684 . S
C177 H203 0.979 . S
C177 H204 0.980 1_655 S
C177 H205 0.983 . S
C178 H154 0.948 . S
C178 C179 1.391 . S
C178 C183 1.391 . S
C179 C178 1.391 . S
C179 C180 1.391 . S
C180 H157 0.947 . S
C180 C179 1.391 . S
C180 C181 1.392 . S
C181 H158 0.948 . S
C181 C180 1.392 . S
C181 C182 1.419 . S
C182 C181 1.419 . S
C182 C183 1.391 . S
C182 C186 1.397 . S
C183 C178 1.391 . S
C183 C182 1.391 . S
C183 C184 1.399 . S
C184 C183 1.399 . S
C184 C185 1.396 . S
C184 C187 1.453 . S
C184 C188 1.684 . S
C185 C175 1.723 . S
C185 C184 1.396 . S
C185 C186 1.394 . S
C186 C156 1.694 1_655 S
C186 C182 1.397 . S
C186 C185 1.394 . S
C187 H159 0.982 . S
C187 H163 0.979 . S
C187 H164 0.977 . S
C187 C184 1.453 . S
C188 H160 0.979 . S
C188 H161 0.980 . S
C188 H162 0.983 . S
C188 C184 1.684 . S
H189 C207 0.948 . S
H190 C148 0.948 . S
H191 C166 0.979 . S
H192 C166 0.980 . S
H193 C166 0.983 . S
H194 C165 0.982 . S
H195 C165 0.979 . S
H196 C165 0.977 . S
H197 C167 0.948 . S
H198 C169 0.947 . S
H199 C170 0.948 . S
H200 C176 0.982 . S
H201 C176 0.979 . S
H202 C176 0.977 . S
H203 C177 0.979 . S
H204 C177 0.980 1_455 S
H205 C177 0.983 . S
H206 C150 0.947 . S
C207 C150 1.392 . S
C207 C151 1.419 . S
C207 H189 0.948 . S
C208 C209 1.391 . S
C208 C212 1.391 . S
C208 H250 0.948 . S
C209 C208 1.391 . S
C209 C210 1.391 . S
C210 C209 1.391 . S
C210 H266 0.947 . S
C210 C267 1.392 . S
C211 C212 1.391 . S
C211 C215 1.397 . S
C211 C267 1.419 . S
C212 C208 1.391 . S
C212 C211 1.391 . S
C212 C213 1.399 . S
C213 C212 1.399 . S
C213 C216 1.396 . S
C213 C225 1.453 . S
C213 C226 1.684 . S
H214 C238 0.948 . S
C215 C211 1.397 . S
C215 C216 1.394 . S
C215 C234 1.723 1_554 S
C216 C213 1.396 . S
C216 C215 1.394 . S
C216 C246 1.723 . S
H217 C240 0.947 . S
H218 C241 0.948 . S
H219 C247 0.982 . S
H220 C248 0.979 . S
H221 C248 0.980 . S
H222 C248 0.983 . S
H223 C247 0.979 . S
H224 C247 0.977 . S
C225 C213 1.453 . S
C225 H254 0.982 . S
C225 H255 0.979 . S
C225 H256 0.977 . S
C226 C213 1.684 . S
C226 H251 0.979 . S
C226 H252 0.980 . S
C226 H253 0.983 . S
C227 C228 1.391 . S
C227 C232 1.391 . S
C227 H257 0.948 . S
C228 C227 1.391 . S
C228 C229 1.391 . S
C229 C228 1.391 . S
C229 C230 1.392 . S
C229 H258 0.947 . S
C230 C229 1.392 . S
C230 C231 1.419 . S
C230 H259 0.948 . S
C231 C230 1.419 . S
C231 C232 1.391 . S
C231 C235 1.397 . S
C232 C227 1.391 . S
C232 C231 1.391 . S
C232 C233 1.399 . S
C233 C232 1.399 . S
C233 C234 1.396 . S
C233 C236 1.453 . S
C233 C237 1.684 . S
C234 C215 1.723 1_556 S
C234 C233 1.396 . S
C234 C235 1.394 . S
C235 C231 1.397 . S
C235 C234 1.394 . S
C235 C245 1.723 . S
C236 C233 1.453 . S
C236 H260 0.982 . S
C236 H261 0.979 . S
C236 H262 0.977 1_556 S
C237 C233 1.684 . S
C237 H263 0.979 . S
C237 H264 0.980 1_556 S
C237 H265 0.983 . S
C238 H214 0.948 . S
C238 C239 1.391 1_556 S
C238 C243 1.391 . S
C239 C238 1.391 1_554 S
C239 C240 1.391 . S
C240 H217 0.947 . S
C240 C239 1.391 . S
C240 C241 1.392 . S
C241 H218 0.948 . S
C241 C240 1.392 . S
C241 C242 1.419 . S
C242 C241 1.419 . S
C242 C243 1.391 1_554 S
C242 C246 1.397 . S
C243 C238 1.391 . S
C243 C242 1.391 1_556 S
C243 C244 1.399 . S
C244 C243 1.399 . S
C244 C245 1.396 . S
C244 C247 1.453 . S
C244 C248 1.684 . S
C245 C235 1.723 . S
C245 C244 1.396 . S
C245 C246 1.394 1_556 S
C246 C216 1.723 . S
C246 C242 1.397 . S
C246 C245 1.394 1_554 S
C247 H219 0.982 . S
C247 H223 0.979 . S
C247 H224 0.977 . S
C247 C244 1.453 . S
C248 H220 0.979 . S
C248 H221 0.980 . S
C248 H222 0.983 . S
C248 C244 1.684 . S
H249 C267 0.948 . S
H250 C208 0.948 . S
H251 C226 0.979 . S
H252 C226 0.980 . S
H253 C226 0.983 . S
H254 C225 0.982 . S
H255 C225 0.979 . S
H256 C225 0.977 . S
H257 C227 0.948 . S
H258 C229 0.947 . S
H259 C230 0.948 . S
H260 C236 0.982 . S
H261 C236 0.979 . S
H262 C236 0.977 1_554 S
H263 C237 0.979 . S
H264 C237 0.980 1_554 S
H265 C237 0.983 . S
H266 C210 0.947 . S
C267 C210 1.392 . S
C267 C211 1.419 . S
C267 H249 0.948 . S
C268 C269 1.391 . S
C268 C272 1.391 . S
C268 H310 0.948 . S
C269 C268 1.391 . S
C269 C270 1.391 . S
C270 C269 1.391 . S
C270 H326 0.947 . S
C270 C327 1.392 . S
C271 C272 1.391 . S
C271 C275 1.397 . S
C271 C327 1.419 . S
C272 C268 1.391 . S
C272 C271 1.391 . S
C272 C273 1.399 . S
C273 C272 1.399 . S
C273 C276 1.396 . S
C273 C285 1.453 1_455 S
C273 C286 1.684 . S
H274 C298 0.948 . S
C275 C271 1.397 . S
C275 C276 1.394 . S
C275 C294 1.723 . S
C276 C273 1.396 . S
C276 C275 1.394 . S
C276 C306 1.723 1_455 S
H277 C300 0.947 . S
H278 C301 0.948 . S
H279 C307 0.982 . S
H280 C308 0.979 . S
H281 C308 0.980 . S
H282 C308 0.983 . S
H283 C307 0.979 . S
H284 C307 0.977 . S
C285 C273 1.453 1_655 S
C285 H314 0.978 1_655 S
C285 H315 0.979 . S
C285 H316 0.977 . S
C286 C273 1.684 . S
C286 H311 0.979 . S
C286 H312 0.980 1_455 S
C286 H313 0.983 . S
C287 C288 1.391 . S
C287 C292 1.391 . S
C287 H317 0.948 . S
C288 C287 1.391 . S
C288 C289 1.391 . S
C289 C288 1.391 . S
C289 C290 1.392 . S
C289 H318 0.947 . S
C290 C289 1.392 . S
C290 C291 1.419 . S
C290 H319 0.948 . S
C291 C290 1.419 . S
C291 C292 1.391 . S
C291 C295 1.397 . S
C292 C287 1.391 . S
C292 C291 1.391 . S
C292 C293 1.399 . S
C293 C292 1.399 . S
C293 C294 1.396 . S
C293 C296 1.453 . S
C293 C297 1.684 . S
C294 C275 1.723 . S
C294 C293 1.396 . S
C294 C295 1.394 . S
C295 C291 1.397 . S
C295 C294 1.394 . S
C295 C305 1.720 . S
C296 C293 1.453 . S
C296 H320 0.982 . S
C296 H321 0.979 . S
C296 H322 0.977 . S
C297 C293 1.684 . S
C297 H323 0.979 . S
C297 H324 0.980 . S
C297 H325 0.983 . S
C298 H274 0.948 . S
C298 C299 1.391 . S
C298 C303 1.391 . S
C299 C298 1.391 . S
C299 C300 1.391 . S
C300 H277 0.947 . S
C300 C299 1.391 . S
C300 C301 1.392 . S
C301 H278 0.948 . S
C301 C300 1.392 . S
C301 C302 1.419 . S
C302 C301 1.419 . S
C302 C303 1.391 . S
C302 C306 1.397 . S
C303 C298 1.391 . S
C303 C302 1.391 . S
C303 C304 1.399 . S
C304 C303 1.399 . S
C304 C305 1.399 1_655 S
C304 C307 1.453 . S
C304 C308 1.684 . S
C305 C295 1.720 . S
C305 C304 1.399 1_455 S
C305 C306 1.395 1_455 S
C306 C276 1.723 1_655 S
C306 C302 1.397 . S
C306 C305 1.395 1_655 S
C307 H279 0.982 . S
C307 H283 0.979 . S
C307 H284 0.977 . S
C307 C304 1.453 . S
C308 H280 0.979 . S
C308 H281 0.980 . S
C308 H282 0.983 . S
C308 C304 1.684 . S
H309 C327 0.948 . S
H310 C268 0.948 . S
H311 C286 0.979 . S
H312 C286 0.980 1_655 S
H313 C286 0.983 . S
H314 C285 0.978 1_455 S
H315 C285 0.979 . S
H316 C285 0.977 . S
H317 C287 0.948 . S
H318 C289 0.947 . S
H319 C290 0.948 . S
H320 C296 0.982 . S
H321 C296 0.979 . S
H322 C296 0.977 . S
H323 C297 0.979 . S
H324 C297 0.980 . S
H325 C297 0.983 . S
H326 C270 0.947 . S
C327 C270 1.392 . S
C327 C271 1.419 . S
C327 H309 0.948 . S
C328 C329 1.391 . S
C328 C332 1.391 . S
C328 H370 0.948 . S
C329 C328 1.391 . S
C329 C330 1.391 . S
C330 C329 1.391 . S
C330 H386 0.947 . S
C330 C387 1.392 . S
C331 C332 1.391 . S
C331 C335 1.397 . S
C331 C387 1.419 . S
C332 C328 1.391 . S
C332 C331 1.391 . S
C332 C333 1.399 . S
C333 C332 1.399 . S
C333 C336 1.399 . S
C333 C345 1.453 1_565 S
C333 C346 1.684 1_565 S
H334 C358 0.948 . S
C335 C331 1.397 . S
C335 C336 1.436 . S
C335 C354 1.723 . S
C336 C333 1.399 . S
C336 C335 1.436 . S
C336 C366 1.695 1_565 S
H337 C360 0.947 . S
H338 C361 0.948 . S
H339 C367 0.982 . S
H340 C368 0.979 . S
H341 C368 0.980 . S
H342 C368 0.983 . S
H343 C367 0.979 . S
H344 C367 0.977 . S
C345 C333 1.453 1_545 S
C345 H374 0.982 . S
C345 H375 0.979 . S
C345 H376 0.977 . S
C346 C333 1.684 1_545 S
C346 H371 0.979 . S
C346 H372 0.980 . S
C346 H373 0.983 . S
C347 C348 1.391 . S
C347 C352 1.391 . S
C347 H377 0.948 . S
C348 C347 1.391 . S
C348 C349 1.391 . S
C349 C348 1.391 . S
C349 C350 1.392 . S
C349 H378 0.947 . S
C350 C349 1.392 . S
C350 C351 1.419 . S
C350 H379 0.948 1_565 S
C351 C350 1.419 . S
C351 C352 1.391 . S
C351 C355 1.397 . S
C352 C347 1.391 . S
C352 C351 1.391 . S
C352 C353 1.399 . S
C353 C352 1.399 . S
C353 C354 1.396 . S
C353 C356 1.453 . S
C353 C357 1.684 . S
C354 C335 1.723 . S
C354 C353 1.396 . S
C354 C355 1.394 . S
C355 C351 1.397 . S
C355 C354 1.394 . S
C355 C365 1.723 1_565 S
C356 C353 1.453 . S
C356 H380 0.982 . S
C356 H381 0.979 . S
C356 H382 0.977 . S
C357 C353 1.684 . S
C357 H383 0.979 . S
C357 H384 0.980 . S
C357 H385 0.983 . S
C358 H334 0.948 . S
C358 C359 1.391 . S
C358 C363 1.391 . S
C359 C358 1.391 . S
C359 C360 1.391 . S
C360 H337 0.947 . S
C360 C359 1.391 . S
C360 C361 1.392 . S
C361 H338 0.948 . S
C361 C360 1.392 . S
C361 C362 1.419 . S
C362 C361 1.419 . S
C362 C363 1.391 . S
C362 C366 1.397 . S
C363 C358 1.391 . S
C363 C362 1.391 . S
C363 C364 1.399 . S
C364 C363 1.399 . S
C364 C365 1.396 . S
C364 C367 1.453 . S
C364 C368 1.684 . S
C365 C355 1.723 1_545 S
C365 C364 1.396 . S
C365 C366 1.394 . S
C366 C336 1.695 1_545 S
C366 C362 1.397 . S
C366 C365 1.394 . S
C367 H339 0.982 . S
C367 H343 0.979 . S
C367 H344 0.977 . S
C367 C364 1.453 . S
C368 H340 0.979 . S
C368 H341 0.980 . S
C368 H342 0.983 . S
C368 C364 1.684 . S
H369 C387 0.948 . S
H370 C328 0.948 . S
H371 C346 0.979 . S
H372 C346 0.980 . S
H373 C346 0.983 . S
H374 C345 0.982 . S
H375 C345 0.979 . S
H376 C345 0.977 . S
H377 C347 0.948 . S
H378 C349 0.947 . S
H379 C350 0.948 1_545 S
H380 C356 0.982 . S
H381 C356 0.979 . S
H382 C356 0.977 . S
H383 C357 0.979 . S
H384 C357 0.980 . S
H385 C357 0.983 . S
H386 C330 0.947 . S
C387 C330 1.392 . S
C387 C331 1.419 . S
C387 H369 0.948 . S
C388 C389 1.391 . S
C388 C392 1.391 . S
C388 H430 0.948 . S
C389 C388 1.391 . S
C389 C390 1.391 . S
C390 C389 1.391 . S
C390 H446 0.947 . S
C390 C447 1.392 . S
C391 C392 1.391 . S
C391 C395 1.397 . S
C391 C447 1.419 . S
C392 C388 1.391 . S
C392 C391 1.391 . S
C392 C393 1.399 . S
C393 C392 1.399 . S
C393 C396 1.396 . S
C393 C405 1.453 . S
C393 C406 1.684 . S
H394 C418 0.948 . S
C395 C391 1.397 . S
C395 C396 1.394 . S
C395 C414 1.723 1_554 S
C396 C393 1.396 . S
C396 C395 1.394 . S
C396 C426 1.723 . S
H397 C420 0.947 . S
H398 C421 0.948 . S
H399 C427 0.982 . S
H400 C428 0.979 . S
H401 C428 0.980 . S
H402 C428 0.983 . S
H403 C427 0.979 . S
H404 C427 0.977 . S
C405 C393 1.453 . S
C405 H434 0.982 . S
C405 H435 0.979 . S
C405 H436 0.977 . S
C406 C393 1.684 . S
C406 H431 0.979 . S
C406 H432 0.980 . S
C406 H433 0.983 . S
C407 C408 1.391 . S
C407 C412 1.391 . S
C407 H437 0.948 . S
C408 C407 1.391 . S
C408 C409 1.391 . S
C409 C408 1.391 . S
C409 C410 1.392 . S
C409 H438 0.947 . S
C410 C409 1.392 . S
C410 C411 1.419 . S
C410 H439 0.948 . S
C411 C410 1.419 . S
C411 C412 1.391 . S
C411 C415 1.397 . S
C412 C407 1.391 . S
C412 C411 1.391 . S
C412 C413 1.399 . S
C413 C412 1.399 . S
C413 C414 1.396 . S
C413 C416 1.453 . S
C413 C417 1.684 . S
C414 C395 1.723 1_556 S
C414 C413 1.396 . S
C414 C415 1.394 . S
C415 C411 1.397 . S
C415 C414 1.394 . S
C415 C425 1.723 . S
C416 C413 1.453 . S
C416 H440 0.982 . S
C416 H441 0.979 . S
C416 H442 0.977 1_556 S
C417 C413 1.684 . S
C417 H443 0.979 . S
C417 H444 0.980 1_556 S
C417 H445 0.983 . S
C418 H394 0.948 . S
C418 C419 1.391 1_556 S
C418 C423 1.391 . S
C419 C418 1.391 1_554 S
C419 C420 1.391 . S
C420 H397 0.947 . S
C420 C419 1.391 . S
C420 C421 1.392 . S
C421 H398 0.948 . S
C421 C420 1.392 . S
C421 C422 1.419 . S
C422 C421 1.419 . S
C422 C423 1.391 1_554 S
C422 C426 1.397 . S
C423 C418 1.391 . S
C423 C422 1.391 1_556 S
C423 C424 1.399 . S
C424 C423 1.399 . S
C424 C425 1.396 . S
C424 C427 1.453 . S
C424 C428 1.684 . S
C425 C415 1.723 . S
C425 C424 1.396 . S
C425 C426 1.394 1_556 S
C426 C396 1.723 . S
C426 C422 1.397 . S
C426 C425 1.394 1_554 S
C427 H399 0.982 . S
C427 H403 0.979 . S
C427 H404 0.977 . S
C427 C424 1.453 . S
C428 H400 0.979 . S
C428 H401 0.980 . S
C428 H402 0.983 . S
C428 C424 1.684 . S
H429 C447 0.948 . S
H430 C388 0.948 . S
H431 C406 0.979 . S
H432 C406 0.980 . S
H433 C406 0.983 . S
H434 C405 0.982 . S
H435 C405 0.979 . S
H436 C405 0.977 . S
H437 C407 0.948 . S
H438 C409 0.947 . S
H439 C410 0.948 . S
H440 C416 0.982 . S
H441 C416 0.979 . S
H442 C416 0.977 1_554 S
H443 C417 0.979 . S
H444 C417 0.980 1_554 S
H445 C417 0.983 . S
H446 C390 0.947 . S
C447 C390 1.392 . S
C447 C391 1.419 . S
C447 H429 0.948 . S
C448 C449 1.391 . S
C448 C452 1.391 . S
C448 H490 0.948 . S
C449 C448 1.391 . S
C449 C450 1.391 . S
C450 C449 1.391 . S
C450 H506 0.947 . S
C450 C507 1.392 . S
C451 C452 1.391 . S
C451 C455 1.397 . S
C451 C507 1.419 . S
C452 C448 1.391 . S
C452 C451 1.391 . S
C452 C453 1.399 . S
C453 C452 1.399 . S
C453 C456 1.396 . S
C453 C465 1.453 1_545 S
C453 C466 1.684 1_545 S
H454 C478 0.948 . S
C455 C451 1.397 . S
C455 C456 1.394 . S
C455 C474 1.723 . S
C456 C453 1.396 . S
C456 C455 1.394 . S
C456 C486 1.723 1_545 S
H457 C480 0.947 . S
H458 C481 0.948 . S
H459 C487 0.982 . S
H460 C488 0.979 . S
H461 C488 0.980 . S
H462 C488 0.983 . S
H463 C487 0.979 . S
H464 C487 0.977 . S
C465 C453 1.453 1_565 S
C465 H494 0.982 1_565 S
C465 H495 0.979 . S
C465 H496 0.977 . S
C466 C453 1.684 1_565 S
C466 H491 0.979 . S
C466 H492 0.980 . S
C466 H493 0.983 . S
C467 C468 1.391 . S
C467 C472 1.391 . S
C467 H497 0.948 . S
C468 C467 1.391 . S
C468 C469 1.391 . S
C469 C468 1.391 . S
C469 C470 1.392 . S
C469 H498 0.947 . S
C470 C469 1.392 . S
C470 C471 1.419 . S
C470 H499 0.948 . S
C471 C470 1.419 . S
C471 C472 1.391 . S
C471 C475 1.397 . S
C472 C467 1.391 . S
C472 C471 1.391 . S
C472 C473 1.399 . S
C473 C472 1.399 . S
C473 C474 1.396 . S
C473 C476 1.453 . S
C473 C477 1.684 . S
C474 C455 1.723 . S
C474 C473 1.396 . S
C474 C475 1.394 . S
C475 C471 1.397 . S
C475 C474 1.394 . S
C475 C485 1.723 1_545 S
C476 C473 1.453 . S
C476 H500 0.982 . S
C476 H501 0.979 . S
C476 H502 0.977 . S
C477 C473 1.684 . S
C477 H503 0.979 . S
C477 H504 0.980 . S
C477 H505 0.983 . S
C478 H454 0.948 . S
C478 C479 1.391 . S
C478 C483 1.391 . S
C479 C478 1.391 . S
C479 C480 1.391 . S
C480 H457 0.947 . S
C480 C479 1.391 . S
C480 C481 1.392 . S
C481 H458 0.948 . S
C481 C480 1.392 . S
C481 C482 1.419 . S
C482 C481 1.419 . S
C482 C483 1.391 . S
C482 C486 1.397 . S
C483 C478 1.391 . S
C483 C482 1.391 . S
C483 C484 1.399 . S
C484 C483 1.399 . S
C484 C485 1.396 . S
C484 C487 1.453 . S
C484 C488 1.684 . S
C485 C475 1.723 1_565 S
C485 C484 1.396 . S
C485 C486 1.394 . S
C486 C456 1.723 1_565 S
C486 C482 1.397 . S
C486 C485 1.394 . S
C487 H459 0.982 . S
C487 H463 0.979 . S
C487 H464 0.977 . S
C487 C484 1.453 . S
C488 H460 0.979 . S
C488 H461 0.980 . S
C488 H462 0.983 . S
C488 C484 1.684 . S
H489 C507 0.948 . S
H490 C448 0.948 . S
H491 C466 0.979 . S
H492 C466 0.980 . S
H493 C466 0.983 . S
H494 C465 0.982 1_545 S
H495 C465 0.979 . S
H496 C465 0.977 . S
H497 C467 0.948 . S
H498 C469 0.947 . S
H499 C470 0.948 . S
H500 C476 0.982 . S
H501 C476 0.979 . S
H502 C476 0.977 . S
H503 C477 0.979 . S
H504 C477 0.980 . S
H505 C477 0.983 . S
H506 C450 0.947 . S
C507 C450 1.392 . S
C507 C451 1.419 . S
C507 H489 0.948 . S
C508 C509 1.391 1_554 S
C508 C512 1.391 . S
C508 H550 0.948 . S
C509 C508 1.391 1_556 S
C509 C510 1.391 . S
C510 C509 1.391 . S
C510 H566 0.947 . S
C510 C567 1.392 . S
C511 C512 1.391 1_556 S
C511 C515 1.397 . S
C511 C567 1.419 . S
C512 C508 1.391 . S
C512 C511 1.391 1_554 S
C512 C513 1.399 . S
C513 C512 1.399 . S
C513 C516 1.396 . S
C513 C525 1.453 . S
C513 C526 1.684 . S
H514 C538 0.948 . S
C515 C511 1.397 . S
C515 C516 1.394 1_556 S
C515 C534 1.723 . S
C516 C513 1.396 . S
C516 C515 1.394 1_554 S
C516 C546 1.723 . S
H517 C540 0.947 . S
H518 C541 0.948 . S
H519 C547 0.982 . S
H520 C548 0.979 . S
H521 C548 0.980 1_556 S
H522 C548 0.983 . S
H523 C547 0.979 . S
H524 C547 0.977 1_556 S
C525 C513 1.453 . S
C525 H554 0.982 . S
C525 H555 0.979 . S
C525 H556 0.977 . S
C526 C513 1.684 . S
C526 H551 0.979 . S
C526 H552 0.980 . S
C526 H553 0.983 . S
C527 C528 1.391 . S
C527 C532 1.391 . S
C527 H557 0.948 . S
C528 C527 1.391 . S
C528 C529 1.391 . S
C529 C528 1.391 . S
C529 C530 1.392 . S
C529 H558 0.947 . S
C530 C529 1.392 . S
C530 C531 1.419 . S
C530 H559 0.948 . S
C531 C530 1.419 . S
C531 C532 1.391 . S
C531 C535 1.397 . S
C532 C527 1.391 . S
C532 C531 1.391 . S
C532 C533 1.399 . S
C533 C532 1.399 . S
C533 C534 1.396 . S
C533 C536 1.453 . S
C533 C537 1.684 . S
C534 C515 1.723 . S
C534 C533 1.396 . S
C534 C535 1.394 . S
C535 C531 1.397 . S
C535 C534 1.394 . S
C535 C545 1.723 1_556 S
C536 C533 1.453 . S
C536 H560 0.982 . S
C536 H561 0.979 . S
C536 H562 0.977 . S
C537 C533 1.684 . S
C537 H563 0.979 . S
C537 H564 0.980 . S
C537 H565 0.983 . S
C538 H514 0.948 . S
C538 C539 1.391 . S
C538 C543 1.391 . S
C539 C538 1.391 . S
C539 C540 1.391 . S
C540 H517 0.947 . S
C540 C539 1.391 . S
C540 C541 1.392 . S
C541 H518 0.948 . S
C541 C540 1.392 . S
C541 C542 1.419 . S
C542 C541 1.419 . S
C542 C543 1.391 . S
C542 C546 1.397 . S
C543 C538 1.391 . S
C543 C542 1.391 . S
C543 C544 1.399 . S
C544 C543 1.399 . S
C544 C545 1.396 . S
C544 C547 1.453 . S
C544 C548 1.684 . S
C545 C535 1.723 1_554 S
C545 C544 1.396 . S
C545 C546 1.394 . S
C546 C516 1.723 . S
C546 C542 1.397 . S
C546 C545 1.394 . S
C547 H519 0.982 . S
C547 H523 0.979 . S
C547 H524 0.977 1_554 S
C547 C544 1.453 . S
C548 H520 0.979 . S
C548 H521 0.980 1_554 S
C548 H522 0.983 . S
C548 C544 1.684 . S
H549 C567 0.948 . S
H550 C508 0.948 . S
H551 C526 0.979 . S
H552 C526 0.980 . S
H553 C526 0.983 . S
H554 C525 0.982 . S
H555 C525 0.979 . S
H556 C525 0.977 . S
H557 C527 0.948 . S
H558 C529 0.947 . S
H559 C530 0.948 . S
H560 C536 0.982 . S
H561 C536 0.979 . S
H562 C536 0.977 . S
H563 C537 0.979 . S
H564 C537 0.980 . S
H565 C537 0.983 . S
H566 C510 0.947 . S
C567 C510 1.392 . S
C567 C511 1.419 . S
C567 H549 0.948 . S
C568 C569 1.391 . S
C568 C570 1.394 . S
C568 H584 0.931 . S
C569 C568 1.391 . S
C569 C573 1.376 . S
C570 C568 1.394 . S
C570 C571 1.369 . S
C570 C574 1.531 . S
C571 C570 1.369 . S
C571 C572 1.410 . S
C571 C579 1.503 . S
C572 C571 1.410 . S
C572 C573 1.392 . S
C572 C575 1.511 . S
C573 C569 1.376 . S
C573 C572 1.392 . S
C573 H585 0.929 . S
C574 C570 1.531 . S
C574 H586 0.960 . S
C574 H587 0.962 . S
C574 H588 0.960 . S
C575 C572 1.511 . S
C575 H589 0.961 . S
C575 H590 0.961 . S
C575 H591 0.961 . S
C576 C577 1.370 . S
C576 C578 1.363 . S
C576 H592 0.931 . S
C577 C576 1.370 . S
C577 C581 1.408 . S
C578 C576 1.363 . S
C578 C579 1.370 . S
C578 C582 1.524 . S
C579 C571 1.503 . S
C579 C578 1.370 . S
C579 C580 1.403 . S
C580 C579 1.403 . S
C580 C581 1.404 . S
C580 C583 1.539 . S
C581 C577 1.408 . S
C581 C580 1.404 . S
C581 H593 0.930 . S
C582 C578 1.524 . S
C582 H594 0.956 . S
C582 H595 0.961 . S
C582 H596 0.961 . S
C583 C580 1.539 . S
C583 H597 0.958 . S
C583 H598 0.961 . S
C583 H599 0.960 . S
H584 C568 0.931 . S
H585 C573 0.929 . S
H586 C574 0.960 . S
H587 C574 0.962 . S
H588 C574 0.960 . S
H589 C575 0.961 . S
H590 C575 0.961 . S
H591 C575 0.961 . S
H592 C576 0.931 . S
H593 C581 0.930 . S
H594 C582 0.956 . S
H595 C582 0.961 . S
H596 C582 0.961 . S
H597 C583 0.958 . S
H598 C583 0.961 . S
H599 C583 0.960 . S
C600 C601 1.391 . S
C600 C602 1.394 . S
C600 H616 0.931 . S
C601 C600 1.391 . S
C601 C605 1.376 . S
C602 C600 1.394 . S
C602 C603 1.369 . S
C602 C606 1.531 . S
C603 C602 1.369 . S
C603 C604 1.410 . S
C603 C611 1.503 . S
C604 C603 1.410 . S
C604 C605 1.392 . S
C604 C607 1.511 . S
C605 C601 1.376 . S
C605 C604 1.392 . S
C605 H617 0.929 . S
C606 C602 1.531 . S
C606 H618 0.960 . S
C606 H619 0.962 . S
C606 H620 0.960 . S
C607 C604 1.511 . S
C607 H621 0.961 . S
C607 H622 0.961 . S
C607 H623 0.961 . S
C608 C609 1.370 . S
C608 C610 1.363 . S
C608 H624 0.931 . S
C609 C608 1.370 . S
C609 C613 1.408 . S
C610 C608 1.363 . S
C610 C611 1.370 . S
C610 C614 1.524 . S
C611 C603 1.503 . S
C611 C610 1.370 . S
C611 C612 1.403 . S
C612 C611 1.403 . S
C612 C613 1.404 . S
C612 C615 1.539 . S
C613 C609 1.408 . S
C613 C612 1.404 . S
C613 H625 0.930 . S
C614 C610 1.524 . S
C614 H626 0.956 . S
C614 H627 0.961 . S
C614 H628 0.961 . S
C615 C612 1.539 . S
C615 H629 0.958 . S
C615 H630 0.961 . S
C615 H631 0.960 . S
H616 C600 0.931 . S
H617 C605 0.929 . S
H618 C606 0.960 . S
H619 C606 0.962 . S
H620 C606 0.960 . S
H621 C607 0.961 . S
H622 C607 0.961 . S
H623 C607 0.961 . S
H624 C608 0.931 . S
H625 C613 0.930 . S
H626 C614 0.956 . S
H627 C614 0.961 . S
H628 C614 0.961 . S
H629 C615 0.958 . S
H630 C615 0.961 . S
H631 C615 0.960 . S
C632 C633 1.391 . S
C632 C634 1.394 . S
C632 H648 0.931 . S
C633 C632 1.391 . S
C633 C637 1.376 . S
C634 C632 1.394 . S
C634 C635 1.369 . S
C634 C638 1.531 . S
C635 C634 1.369 . S
C635 C636 1.410 . S
C635 C643 1.503 . S
C636 C635 1.410 . S
C636 C637 1.392 . S
C636 C639 1.511 . S
C637 C633 1.376 . S
C637 C636 1.392 . S
C637 H649 0.929 . S
C638 C634 1.531 . S
C638 H650 0.960 . S
C638 H651 0.962 . S
C638 H652 0.960 . S
C639 C636 1.511 . S
C639 H653 0.961 . S
C639 H654 0.961 . S
C639 H655 0.961 . S
C640 C641 1.370 . S
C640 C642 1.363 . S
C640 H656 0.931 . S
C641 C640 1.370 . S
C641 C645 1.408 . S
C642 C640 1.363 . S
C642 C643 1.370 . S
C642 C646 1.524 . S
C643 C635 1.503 . S
C643 C642 1.370 . S
C643 C644 1.403 . S
C644 C643 1.403 . S
C644 C645 1.404 . S
C644 C647 1.539 . S
C645 C641 1.408 . S
C645 C644 1.404 . S
C645 H657 0.930 . S
C646 C642 1.524 . S
C646 H658 0.956 . S
C646 H659 0.961 . S
C646 H660 0.961 . S
C647 C644 1.539 . S
C647 H661 0.958 . S
C647 H662 0.961 . S
C647 H663 0.960 . S
H648 C632 0.931 . S
H649 C637 0.929 . S
H650 C638 0.960 . S
H651 C638 0.962 . S
H652 C638 0.960 . S
H653 C639 0.961 . S
H654 C639 0.961 . S
H655 C639 0.961 . S
H656 C640 0.931 . S
H657 C645 0.930 . S
H658 C646 0.956 . S
H659 C646 0.961 . S
H660 C646 0.961 . S
H661 C647 0.958 . S
H662 C647 0.961 . S
H663 C647 0.960 . S
C664 C665 1.391 . S
C664 C666 1.394 . S
C664 H680 0.931 . S
C665 C664 1.391 . S
C665 C669 1.376 . S
C666 C664 1.394 . S
C666 C667 1.369 . S
C666 C670 1.531 . S
C667 C666 1.369 . S
C667 C668 1.410 . S
C667 C675 1.503 . S
C668 C667 1.410 . S
C668 C669 1.392 . S
C668 C671 1.511 . S
C669 C665 1.376 . S
C669 C668 1.392 . S
C669 H681 0.929 . S
C670 C666 1.531 . S
C670 H682 0.960 . S
C670 H683 0.962 . S
C670 H684 0.960 . S
C671 C668 1.511 . S
C671 H685 0.961 . S
C671 H686 0.961 . S
C671 H687 0.961 . S
C672 C673 1.370 . S
C672 C674 1.363 . S
C672 H688 0.931 . S
C673 C672 1.370 . S
C673 C677 1.408 . S
C674 C672 1.363 . S
C674 C675 1.370 . S
C674 C678 1.524 . S
C675 C667 1.503 . S
C675 C674 1.370 . S
C675 C676 1.403 . S
C676 C675 1.403 . S
C676 C677 1.404 . S
C676 C679 1.539 . S
C677 C673 1.408 . S
C677 C676 1.404 . S
C677 H689 0.930 . S
C678 C674 1.524 . S
C678 H690 0.956 . S
C678 H691 0.961 . S
C678 H692 0.961 . S
C679 C676 1.539 . S
C679 H693 0.958 . S
C679 H694 0.961 . S
C679 H695 0.960 . S
H680 C664 0.931 . S
H681 C669 0.929 . S
H682 C670 0.960 . S
H683 C670 0.962 . S
H684 C670 0.960 . S
H685 C671 0.961 . S
H686 C671 0.961 . S
H687 C671 0.961 . S
H688 C672 0.931 . S
H689 C677 0.930 . S
H690 C678 0.956 . S
H691 C678 0.961 . S
H692 C678 0.961 . S
H693 C679 0.958 . S
H694 C679 0.961 . S
H695 C679 0.960 . S
C696 C697 1.391 . S
C696 C698 1.394 . S
C696 H712 0.931 . S
C697 C696 1.391 . S
C697 C701 1.376 . S
C698 C696 1.394 . S
C698 C699 1.369 . S
C698 C702 1.531 . S
C699 C698 1.369 . S
C699 C700 1.410 . S
C699 C707 1.503 . S
C700 C699 1.410 . S
C700 C701 1.392 . S
C700 C703 1.511 . S
C701 C697 1.376 . S
C701 C700 1.392 . S
C701 H713 0.929 . S
C702 C698 1.531 . S
C702 H714 0.960 . S
C702 H715 0.962 . S
C702 H716 0.960 . S
C703 C700 1.511 . S
C703 H717 0.961 . S
C703 H718 0.961 . S
C703 H719 0.961 . S
C704 C705 1.370 . S
C704 C706 1.363 . S
C704 H720 0.931 . S
C705 C704 1.370 . S
C705 C709 1.408 . S
C706 C704 1.363 . S
C706 C707 1.370 . S
C706 C710 1.524 . S
C707 C699 1.503 . S
C707 C706 1.370 . S
C707 C708 1.403 . S
C708 C707 1.403 . S
C708 C709 1.404 . S
C708 C711 1.539 . S
C709 C705 1.408 . S
C709 C708 1.404 . S
C709 H721 0.930 . S
C710 C706 1.524 . S
C710 H722 0.956 . S
C710 H723 0.961 . S
C710 H724 0.961 . S
C711 C708 1.539 . S
C711 H725 0.958 . S
C711 H726 0.961 . S
C711 H727 0.960 . S
H712 C696 0.931 . S
H713 C701 0.929 . S
H714 C702 0.960 . S
H715 C702 0.962 . S
H716 C702 0.960 . S
H717 C703 0.961 . S
H718 C703 0.961 . S
H719 C703 0.961 . S
H720 C704 0.931 . S
H721 C709 0.930 . S
H722 C710 0.956 . S
H723 C710 0.961 . S
H724 C710 0.961 . S
H725 C711 0.958 . S
H726 C711 0.961 . S
H727 C711 0.960 . S
C728 C729 1.391 . S
C728 C730 1.394 . S
C728 H744 0.931 . S
C729 C728 1.391 . S
C729 C733 1.376 . S
C730 C728 1.394 . S
C730 C731 1.369 . S
C730 C734 1.531 . S
C731 C730 1.369 . S
C731 C732 1.410 . S
C731 C739 1.503 . S
C732 C731 1.410 . S
C732 C733 1.392 . S
C732 C735 1.511 . S
C733 C729 1.376 . S
C733 C732 1.392 . S
C733 H745 0.929 . S
C734 C730 1.531 . S
C734 H746 0.960 . S
C734 H747 0.962 . S
C734 H748 0.960 . S
C735 C732 1.511 . S
C735 H749 0.961 . S
C735 H750 0.961 . S
C735 H751 0.961 . S
C736 C737 1.370 . S
C736 C738 1.363 . S
C736 H752 0.931 . S
C737 C736 1.370 . S
C737 C741 1.408 . S
C738 C736 1.363 . S
C738 C739 1.370 . S
C738 C742 1.524 . S
C739 C731 1.503 . S
C739 C738 1.370 . S
C739 C740 1.403 . S
C740 C739 1.403 . S
C740 C741 1.404 . S
C740 C743 1.539 . S
C741 C737 1.408 . S
C741 C740 1.404 . S
C741 H753 0.930 . S
C742 C738 1.524 . S
C742 H754 0.956 . S
C742 H755 0.961 . S
C742 H756 0.961 . S
C743 C740 1.539 . S
C743 H757 0.958 . S
C743 H758 0.961 . S
C743 H759 0.960 . S
H744 C728 0.931 . S
H745 C733 0.929 . S
H746 C734 0.960 . S
H747 C734 0.962 . S
H748 C734 0.960 . S
H749 C735 0.961 . S
H750 C735 0.961 . S
H751 C735 0.961 . S
H752 C736 0.931 . S
H753 C741 0.930 . S
H754 C742 0.956 . S
H755 C742 0.961 . S
H756 C742 0.961 . S
H757 C743 0.958 . S
H758 C743 0.961 . S
H759 C743 0.960 . S
C760 C761 1.391 . S
C760 C762 1.394 . S
C760 H776 0.931 . S
C761 C760 1.391 . S
C761 C765 1.376 . S
C762 C760 1.394 . S
C762 C763 1.369 . S
C762 C766 1.531 . S
C763 C762 1.369 . S
C763 C764 1.410 . S
C763 C771 1.503 . S
C764 C763 1.410 . S
C764 C765 1.392 . S
C764 C767 1.511 . S
C765 C761 1.376 . S
C765 C764 1.392 . S
C765 H777 0.929 . S
C766 C762 1.531 . S
C766 H778 0.960 . S
C766 H779 0.962 . S
C766 H780 0.960 . S
C767 C764 1.511 . S
C767 H781 0.961 . S
C767 H782 0.961 . S
C767 H783 0.961 . S
C768 C769 1.370 . S
C768 C770 1.363 . S
C768 H784 0.931 . S
C769 C768 1.370 . S
C769 C773 1.408 . S
C770 C768 1.363 . S
C770 C771 1.370 . S
C770 C774 1.524 . S
C771 C763 1.503 . S
C771 C770 1.370 . S
C771 C772 1.403 . S
C772 C771 1.403 . S
C772 C773 1.404 . S
C772 C775 1.539 . S
C773 C769 1.408 . S
C773 C772 1.404 . S
C773 H785 0.930 . S
C774 C770 1.524 . S
C774 H786 0.956 . S
C774 H787 0.961 . S
C774 H788 0.961 . S
C775 C772 1.539 . S
C775 H789 0.958 . S
C775 H790 0.961 . S
C775 H791 0.960 . S
H776 C760 0.931 . S
H777 C765 0.929 . S
H778 C766 0.960 . S
H779 C766 0.962 . S
H780 C766 0.960 . S
H781 C767 0.961 . S
H782 C767 0.961 . S
H783 C767 0.961 . S
H784 C768 0.931 . S
H785 C773 0.930 . S
H786 C774 0.956 . S
H787 C774 0.961 . S
H788 C774 0.961 . S
H789 C775 0.958 . S
H790 C775 0.961 . S
H791 C775 0.960 . S
C792 C793 1.391 . S
C792 C794 1.394 . S
C792 H808 0.931 . S
C793 C792 1.391 . S
C793 C797 1.376 . S
C794 C792 1.394 . S
C794 C795 1.369 . S
C794 C798 1.531 . S
C795 C794 1.369 . S
C795 C796 1.410 . S
C795 C803 1.503 . S
C796 C795 1.410 . S
C796 C797 1.392 . S
C796 C799 1.511 . S
C797 C793 1.376 . S
C797 C796 1.392 . S
C797 H809 0.929 . S
C798 C794 1.531 . S
C798 H810 0.960 . S
C798 H811 0.962 . S
C798 H812 0.960 . S
C799 C796 1.511 . S
C799 H813 0.961 . S
C799 H814 0.961 . S
C799 H815 0.961 . S
C800 C801 1.370 . S
C800 C802 1.363 . S
C800 H816 0.931 . S
C801 C800 1.370 . S
C801 C805 1.408 . S
C802 C800 1.363 . S
C802 C803 1.370 . S
C802 C806 1.524 . S
C803 C795 1.503 . S
C803 C802 1.370 . S
C803 C804 1.403 . S
C804 C803 1.403 . S
C804 C805 1.404 . S
C804 C807 1.539 . S
C805 C801 1.408 . S
C805 C804 1.404 . S
C805 H817 0.930 . S
C806 C802 1.524 . S
C806 H818 0.956 . S
C806 H819 0.961 . S
C806 H820 0.961 . S
C807 C804 1.539 . S
C807 H821 0.958 . S
C807 H822 0.961 . S
C807 H823 0.960 . S
H808 C792 0.931 . S
H809 C797 0.929 . S
H810 C798 0.960 . S
H811 C798 0.962 . S
H812 C798 0.960 . S
H813 C799 0.961 . S
H814 C799 0.961 . S
H815 C799 0.961 . S
H816 C800 0.931 . S
H817 C805 0.930 . S
H818 C806 0.956 . S
H819 C806 0.961 . S
H820 C806 0.961 . S
H821 C807 0.958 . S
H822 C807 0.961 . S
H823 C807 0.960 . S
C824 C825 1.391 . S
C824 C826 1.394 . S
C824 H840 0.931 . S
C825 C824 1.391 . S
C825 C829 1.376 . S
C826 C824 1.394 . S
C826 C827 1.369 . S
C826 C830 1.531 . S
C827 C826 1.369 . S
C827 C828 1.410 . S
C827 C835 1.503 . S
C828 C827 1.410 . S
C828 C829 1.392 . S
C828 C831 1.511 . S
C829 C825 1.376 . S
C829 C828 1.392 . S
C829 H841 0.929 . S
C830 C826 1.531 . S
C830 H842 0.960 . S
C830 H843 0.962 . S
C830 H844 0.960 . S
C831 C828 1.511 . S
C831 H845 0.961 . S
C831 H846 0.961 . S
C831 H847 0.961 . S
C832 C833 1.370 . S
C832 C834 1.363 . S
C832 H848 0.931 . S
C833 C832 1.370 . S
C833 C837 1.408 . S
C834 C832 1.363 . S
C834 C835 1.370 . S
C834 C838 1.524 . S
C835 C827 1.503 . S
C835 C834 1.370 . S
C835 C836 1.403 . S
C836 C835 1.403 . S
C836 C837 1.404 . S
C836 C839 1.539 . S
C837 C833 1.408 . S
C837 C836 1.404 . S
C837 H849 0.930 . S
C838 C834 1.524 . S
C838 H850 0.956 . S
C838 H851 0.961 . S
C838 H852 0.961 . S
C839 C836 1.539 . S
C839 H853 0.958 . S
C839 H854 0.961 . S
C839 H855 0.960 . S
H840 C824 0.931 . S
H841 C829 0.929 . S
H842 C830 0.960 . S
H843 C830 0.962 . S
H844 C830 0.960 . S
H845 C831 0.961 . S
H846 C831 0.961 . S
H847 C831 0.961 . S
H848 C832 0.931 . S
H849 C837 0.930 . S
H850 C838 0.956 . S
H851 C838 0.961 . S
H852 C838 0.961 . S
H853 C839 0.958 . S
H854 C839 0.961 . S
H855 C839 0.960 . S
C856 C857 1.391 . S
C856 C858 1.394 . S
C856 H872 0.931 . S
C857 C856 1.391 . S
C857 C861 1.376 . S
C858 C856 1.394 . S
C858 C859 1.369 . S
C858 C862 1.531 . S
C859 C858 1.369 . S
C859 C860 1.410 . S
C859 C867 1.503 . S
C860 C859 1.410 . S
C860 C861 1.392 . S
C860 C863 1.511 . S
C861 C857 1.376 . S
C861 C860 1.392 . S
C861 H873 0.929 . S
C862 C858 1.531 . S
C862 H874 0.960 . S
C862 H875 0.962 . S
C862 H876 0.960 . S
C863 C860 1.511 . S
C863 H877 0.961 . S
C863 H878 0.961 . S
C863 H879 0.961 . S
C864 C865 1.370 . S
C864 C866 1.363 . S
C864 H880 0.931 . S
C865 C864 1.370 . S
C865 C869 1.408 . S
C866 C864 1.363 . S
C866 C867 1.370 . S
C866 C870 1.524 . S
C867 C859 1.503 . S
C867 C866 1.370 . S
C867 C868 1.403 . S
C868 C867 1.403 . S
C868 C869 1.404 . S
C868 C871 1.539 . S
C869 C865 1.408 . S
C869 C868 1.404 . S
C869 H881 0.930 . S
C870 C866 1.524 . S
C870 H882 0.956 . S
C870 H883 0.961 . S
C870 H884 0.961 . S
C871 C868 1.539 . S
C871 H885 0.958 . S
C871 H886 0.961 . S
C871 H887 0.960 . S
H872 C856 0.931 . S
H873 C861 0.929 . S
H874 C862 0.960 . S
H875 C862 0.962 . S
H876 C862 0.960 . S
H877 C863 0.961 . S
H878 C863 0.961 . S
H879 C863 0.961 . S
H880 C864 0.931 . S
H881 C869 0.930 . S
H882 C870 0.956 . S
H883 C870 0.961 . S
H884 C870 0.961 . S
H885 C871 0.958 . S
H886 C871 0.961 . S
H887 C871 0.960 . S
C888 C889 1.391 . S
C888 C890 1.394 . S
C888 H904 0.931 . S
C889 C888 1.391 . S
C889 C893 1.376 . S
C890 C888 1.394 . S
C890 C891 1.369 . S
C890 C894 1.531 . S
C891 C890 1.369 . S
C891 C892 1.410 . S
C891 C899 1.503 . S
C892 C891 1.410 . S
C892 C893 1.392 . S
C892 C895 1.511 . S
C893 C889 1.376 . S
C893 C892 1.392 . S
C893 H905 0.929 . S
C894 C890 1.531 . S
C894 H906 0.960 . S
C894 H907 0.962 . S
C894 H908 0.960 . S
C895 C892 1.511 . S
C895 H909 0.961 . S
C895 H910 0.961 . S
C895 H911 0.961 . S
C896 C897 1.370 . S
C896 C898 1.363 . S
C896 H912 0.931 . S
C897 C896 1.370 . S
C897 C901 1.408 . S
C898 C896 1.363 . S
C898 C899 1.370 . S
C898 C902 1.524 . S
C899 C891 1.503 . S
C899 C898 1.370 . S
C899 C900 1.403 . S
C900 C899 1.403 . S
C900 C901 1.404 . S
C900 C903 1.539 . S
C901 C897 1.408 . S
C901 C900 1.404 . S
C901 H913 0.930 . S
C902 C898 1.524 . S
C902 H914 0.956 . S
C902 H915 0.961 . S
C902 H916 0.961 . S
C903 C900 1.539 . S
C903 H917 0.958 . S
C903 H918 0.961 . S
C903 H919 0.960 . S
H904 C888 0.931 . S
H905 C893 0.929 . S
H906 C894 0.960 . S
H907 C894 0.962 . S
H908 C894 0.960 . S
H909 C895 0.961 . S
H910 C895 0.961 . S
H911 C895 0.961 . S
H912 C896 0.931 . S
H913 C901 0.930 . S
H914 C902 0.956 . S
H915 C902 0.961 . S
H916 C902 0.961 . S
H917 C903 0.958 . S
H918 C903 0.961 . S
H919 C903 0.960 . S
C920 C921 1.391 . S
C920 C922 1.394 . S
C920 H936 0.931 . S
C921 C920 1.391 . S
C921 C925 1.376 . S
C922 C920 1.394 . S
C922 C923 1.369 . S
C922 C926 1.531 . S
C923 C922 1.369 . S
C923 C924 1.410 . S
C923 C931 1.503 . S
C924 C923 1.410 . S
C924 C925 1.392 . S
C924 C927 1.511 . S
C925 C921 1.376 . S
C925 C924 1.392 . S
C925 H937 0.929 . S
C926 C922 1.531 . S
C926 H938 0.960 . S
C926 H939 0.962 . S
C926 H940 0.960 . S
C927 C924 1.511 . S
C927 H941 0.961 . S
C927 H942 0.961 . S
C927 H943 0.961 . S
C928 C929 1.370 . S
C928 C930 1.363 . S
C928 H944 0.931 . S
C929 C928 1.370 . S
C929 C933 1.408 . S
C930 C928 1.363 . S
C930 C931 1.370 . S
C930 C934 1.524 . S
C931 C923 1.503 . S
C931 C930 1.370 . S
C931 C932 1.403 . S
C932 C931 1.403 . S
C932 C933 1.404 . S
C932 C935 1.539 . S
C933 C929 1.408 . S
C933 C932 1.404 . S
C933 H945 0.930 . S
C934 C930 1.524 . S
C934 H946 0.956 . S
C934 H947 0.961 . S
C934 H948 0.961 . S
C935 C932 1.539 . S
C935 H949 0.958 . S
C935 H950 0.961 . S
C935 H951 0.960 . S
H936 C920 0.931 . S
H937 C925 0.929 . S
H938 C926 0.960 . S
H939 C926 0.962 . S
H940 C926 0.960 . S
H941 C927 0.961 . S
H942 C927 0.961 . S
H943 C927 0.961 . S
H944 C928 0.931 . S
H945 C933 0.930 . S
H946 C934 0.956 . S
H947 C934 0.961 . S
H948 C934 0.961 . S
H949 C935 0.958 . S
H950 C935 0.961 . S
H951 C935 0.960 . S
C952 C953 1.391 . S
C952 C954 1.394 . S
C952 H968 0.931 . S
C953 C952 1.391 . S
C953 C957 1.376 . S
C954 C952 1.394 . S
C954 C955 1.369 . S
C954 C958 1.531 . S
C955 C954 1.369 . S
C955 C956 1.410 . S
C955 C963 1.503 . S
C956 C955 1.410 . S
C956 C957 1.392 . S
C956 C959 1.511 . S
C957 C953 1.376 . S
C957 C956 1.392 . S
C957 H969 0.929 . S
C958 C954 1.531 . S
C958 H970 0.960 . S
C958 H971 0.962 . S
C958 H972 0.960 . S
C959 C956 1.511 . S
C959 H973 0.961 . S
C959 H974 0.961 . S
C959 H975 0.961 . S
C960 C961 1.370 . S
C960 C962 1.363 . S
C960 H976 0.931 . S
C961 C960 1.370 . S
C961 C965 1.408 . S
C962 C960 1.363 . S
C962 C963 1.370 . S
C962 C966 1.524 . S
C963 C955 1.503 . S
C963 C962 1.370 . S
C963 C964 1.403 . S
C964 C963 1.403 . S
C964 C965 1.404 . S
C964 C967 1.539 . S
C965 C961 1.408 . S
C965 C964 1.404 . S
C965 H977 0.930 . S
C966 C962 1.524 . S
C966 H978 0.956 . S
C966 H979 0.961 . S
C966 H980 0.961 . S
C967 C964 1.539 . S
C967 H981 0.958 . S
C967 H982 0.961 . S
C967 H983 0.960 . S
H968 C952 0.931 . S
H969 C957 0.929 . S
H970 C958 0.960 . S
H971 C958 0.962 . S
H972 C958 0.960 . S
H973 C959 0.961 . S
H974 C959 0.961 . S
H975 C959 0.961 . S
H976 C960 0.931 . S
H977 C965 0.930 . S
H978 C966 0.956 . S
H979 C966 0.961 . S
H980 C966 0.961 . S
H981 C967 0.958 . S
H982 C967 0.961 . S
H983 C967 0.960 . S
C984 C985 1.391 . S
C984 C986 1.394 . S
C984 H1000 0.931 . S
C985 C984 1.391 . S
C985 C989 1.376 . S
C986 C984 1.394 . S
C986 C987 1.369 . S
C986 C990 1.531 . S
C987 C986 1.369 . S
C987 C988 1.410 . S
C987 C995 1.503 . S
C988 C987 1.410 . S
C988 C989 1.392 . S
C988 C991 1.511 . S
C989 C985 1.376 . S
C989 C988 1.392 . S
C989 H1001 0.929 . S
C990 C986 1.531 . S
C990 H1002 0.960 . S
C990 H1003 0.962 . S
C990 H1004 0.960 . S
C991 C988 1.511 . S
C991 H1005 0.961 . S
C991 H1006 0.961 . S
C991 H1007 0.961 . S
C992 C993 1.370 . S
C992 C994 1.363 . S
C992 H1008 0.931 . S
C993 C992 1.370 . S
C993 C997 1.408 . S
C994 C992 1.363 . S
C994 C995 1.370 . S
C994 C998 1.524 . S
C995 C987 1.503 . S
C995 C994 1.370 . S
C995 C996 1.403 . S
C996 C995 1.403 . S
C996 C997 1.404 . S
C996 C999 1.539 . S
C997 C993 1.408 . S
C997 C996 1.404 . S
C997 H1009 0.930 . S
C998 C994 1.524 . S
C998 H1010 0.956 . S
C998 H1011 0.961 . S
C998 H1012 0.961 . S
C999 C996 1.539 . S
C999 H1013 0.958 . S
C999 H1014 0.961 . S
C999 H1015 0.960 . S
H1000 C984 0.931 . S
H1001 C989 0.929 . S
H1002 C990 0.960 . S
H1003 C990 0.962 . S
H1004 C990 0.960 . S
H1005 C991 0.961 . S
H1006 C991 0.961 . S
H1007 C991 0.961 . S
H1008 C992 0.931 . S
H1009 C997 0.930 . S
H1010 C998 0.956 . S
H1011 C998 0.961 . S
H1012 C998 0.961 . S
H1013 C999 0.958 . S
H1014 C999 0.961 . S
H1015 C999 0.960 . S
C1016 C1017 1.391 . S
C1016 C1018 1.394 . S
C1016 H1032 0.931 . S
C1017 C1016 1.391 . S
C1017 C1021 1.376 . S
C1018 C1016 1.394 . S
C1018 C1019 1.369 . S
C1018 C1022 1.531 . S
C1019 C1018 1.369 . S
C1019 C1020 1.410 . S
C1019 C1027 1.503 . S
C1020 C1019 1.410 . S
C1020 C1021 1.392 . S
C1020 C1023 1.511 . S
C1021 C1017 1.376 . S
C1021 C1020 1.392 . S
C1021 H1033 0.929 . S
C1022 C1018 1.531 . S
C1022 H1034 0.960 . S
C1022 H1035 0.962 . S
C1022 H1036 0.960 . S
C1023 C1020 1.511 . S
C1023 H1037 0.961 . S
C1023 H1038 0.961 . S
C1023 H1039 0.961 . S
C1024 C1025 1.370 . S
C1024 C1026 1.363 . S
C1024 H1040 0.931 . S
C1025 C1024 1.370 . S
C1025 C1029 1.408 . S
C1026 C1024 1.363 . S
C1026 C1027 1.370 . S
C1026 C1030 1.524 . S
C1027 C1019 1.503 . S
C1027 C1026 1.370 . S
C1027 C1028 1.403 . S
C1028 C1027 1.403 . S
C1028 C1029 1.404 . S
C1028 C1031 1.539 . S
C1029 C1025 1.408 . S
C1029 C1028 1.404 . S
C1029 H1041 0.930 . S
C1030 C1026 1.524 . S
C1030 H1042 0.956 . S
C1030 H1043 0.961 . S
C1030 H1044 0.961 . S
C1031 C1028 1.539 . S
C1031 H1045 0.958 . S
C1031 H1046 0.961 . S
C1031 H1047 0.960 . S
H1032 C1016 0.931 . S
H1033 C1021 0.929 . S
H1034 C1022 0.960 . S
H1035 C1022 0.962 . S
H1036 C1022 0.960 . S
H1037 C1023 0.961 . S
H1038 C1023 0.961 . S
H1039 C1023 0.961 . S
H1040 C1024 0.931 . S
H1041 C1029 0.930 . S
H1042 C1030 0.956 . S
H1043 C1030 0.961 . S
H1044 C1030 0.961 . S
H1045 C1031 0.958 . S
H1046 C1031 0.961 . S
H1047 C1031 0.960 . S
C1048 C1049 1.391 . S
C1048 C1050 1.394 . S
C1048 H1064 0.931 . S
C1049 C1048 1.391 . S
C1049 C1053 1.376 . S
C1050 C1048 1.394 . S
C1050 C1051 1.369 . S
C1050 C1054 1.531 . S
C1051 C1050 1.369 . S
C1051 C1052 1.410 . S
C1051 C1059 1.503 . S
C1052 C1051 1.410 . S
C1052 C1053 1.392 . S
C1052 C1055 1.511 . S
C1053 C1049 1.376 . S
C1053 C1052 1.392 . S
C1053 H1065 0.929 . S
C1054 C1050 1.531 . S
C1054 H1066 0.960 . S
C1054 H1067 0.962 . S
C1054 H1068 0.960 . S
C1055 C1052 1.511 . S
C1055 H1069 0.961 . S
C1055 H1070 0.961 . S
C1055 H1071 0.961 . S
C1056 C1057 1.370 . S
C1056 C1058 1.363 . S
C1056 H1072 0.931 . S
C1057 C1056 1.370 . S
C1057 C1061 1.408 . S
C1058 C1056 1.363 . S
C1058 C1059 1.370 . S
C1058 C1062 1.524 . S
C1059 C1051 1.503 . S
C1059 C1058 1.370 . S
C1059 C1060 1.403 . S
C1060 C1059 1.403 . S
C1060 C1061 1.404 . S
C1060 C1063 1.539 . S
C1061 C1057 1.408 . S
C1061 C1060 1.404 . S
C1061 H1073 0.930 . S
C1062 C1058 1.524 . S
C1062 H1074 0.956 . S
C1062 H1075 0.961 . S
C1062 H1076 0.961 . S
C1063 C1060 1.539 . S
C1063 H1077 0.958 . S
C1063 H1078 0.961 . S
C1063 H1079 0.960 . S
H1064 C1048 0.931 . S
H1065 C1053 0.929 . S
H1066 C1054 0.960 . S
H1067 C1054 0.962 . S
H1068 C1054 0.960 . S
H1069 C1055 0.961 . S
H1070 C1055 0.961 . S
H1071 C1055 0.961 . S
H1072 C1056 0.931 . S
H1073 C1061 0.930 . S
H1074 C1062 0.956 . S
H1075 C1062 0.961 . S
H1076 C1062 0.961 . S
H1077 C1063 0.958 . S
H1078 C1063 0.961 . S
H1079 C1063 0.960 . S
C1080 C1081 1.391 . S
C1080 C1082 1.394 . S
C1080 H1096 0.931 . S
C1081 C1080 1.391 . S
C1081 C1085 1.376 1_554 S
C1082 C1080 1.394 . S
C1082 C1083 1.369 . S
C1082 C1086 1.531 . S
C1083 C1082 1.369 . S
C1083 C1084 1.410 1_554 S
C1083 C1091 1.503 . S
C1084 C1083 1.410 1_556 S
C1084 C1085 1.392 . S
C1084 C1087 1.511 . S
C1085 C1081 1.376 1_556 S
C1085 C1084 1.392 . S
C1085 H1097 0.929 . S
C1086 C1082 1.531 . S
C1086 H1098 0.960 . S
C1086 H1099 0.962 . S
C1086 H1100 0.960 . S
C1087 C1084 1.511 . S
C1087 H1101 0.961 . S
C1087 H1102 0.961 . S
C1087 H1103 0.961 . S
C1088 C1089 1.370 1_556 S
C1088 C1090 1.363 . S
C1088 H1104 0.931 . S
C1089 C1088 1.370 1_554 S
C1089 C1093 1.408 . S
C1090 C1088 1.363 . S
C1090 C1091 1.370 1_556 S
C1090 C1094 1.524 . S
C1091 C1083 1.503 . S
C1091 C1090 1.370 1_554 S
C1091 C1092 1.403 . S
C1092 C1091 1.403 . S
C1092 C1093 1.404 . S
C1092 C1095 1.539 . S
C1093 C1089 1.408 . S
C1093 C1092 1.404 . S
C1093 H1105 0.930 . S
C1094 C1090 1.524 . S
C1094 H1106 0.956 . S
C1094 H1107 0.961 . S
C1094 H1108 0.961 . S
C1095 C1092 1.539 . S
C1095 H1109 0.958 . S
C1095 H1110 0.961 . S
C1095 H1111 0.960 . S
H1096 C1080 0.931 . S
H1097 C1085 0.929 . S
H1098 C1086 0.960 . S
H1099 C1086 0.962 . S
H1100 C1086 0.960 . S
H1101 C1087 0.961 . S
H1102 C1087 0.961 . S
H1103 C1087 0.961 . S
H1104 C1088 0.931 . S
H1105 C1093 0.930 . S
H1106 C1094 0.956 . S
H1107 C1094 0.961 . S
H1108 C1094 0.961 . S
H1109 C1095 0.958 . S
H1110 C1095 0.961 . S
H1111 C1095 0.960 . S
C1112 C1113 1.391 . S
C1112 C1114 1.394 . S
C1112 H1128 0.931 . S
C1113 C1112 1.391 . S
C1113 C1117 1.376 . S
C1114 C1112 1.394 . S
C1114 C1115 1.369 . S
C1114 C1118 1.531 . S
C1115 C1114 1.369 . S
C1115 C1116 1.410 . S
C1115 C1123 1.503 . S
C1116 C1115 1.410 . S
C1116 C1117 1.392 . S
C1116 C1119 1.511 . S
C1117 C1113 1.376 . S
C1117 C1116 1.392 . S
C1117 H1129 0.929 . S
C1118 C1114 1.531 . S
C1118 H1130 0.960 . S
C1118 H1131 0.962 . S
C1118 H1132 0.960 . S
C1119 C1116 1.511 . S
C1119 H1133 0.961 . S
C1119 H1134 0.961 . S
C1119 H1135 0.961 . S
C1120 C1121 1.370 . S
C1120 C1122 1.363 . S
C1120 H1136 0.931 . S
C1121 C1120 1.370 . S
C1121 C1125 1.408 . S
C1122 C1120 1.363 . S
C1122 C1123 1.370 . S
C1122 C1126 1.524 . S
C1123 C1115 1.503 . S
C1123 C1122 1.370 . S
C1123 C1124 1.403 . S
C1124 C1123 1.403 . S
C1124 C1125 1.404 . S
C1124 C1127 1.539 . S
C1125 C1121 1.408 . S
C1125 C1124 1.404 . S
C1125 H1137 0.930 . S
C1126 C1122 1.524 . S
C1126 H1138 0.956 . S
C1126 H1139 0.961 . S
C1126 H1140 0.961 . S
C1127 C1124 1.539 . S
C1127 H1141 0.958 . S
C1127 H1142 0.961 . S
C1127 H1143 0.960 . S
H1128 C1112 0.931 . S
H1129 C1117 0.929 . S
H1130 C1118 0.960 . S
H1131 C1118 0.962 . S
H1132 C1118 0.960 . S
H1133 C1119 0.961 . S
H1134 C1119 0.961 . S
H1135 C1119 0.961 . S
H1136 C1120 0.931 . S
H1137 C1125 0.930 . S
H1138 C1126 0.956 . S
H1139 C1126 0.961 . S
H1140 C1126 0.961 . S
H1141 C1127 0.958 . S
H1142 C1127 0.961 . S
H1143 C1127 0.960 . S
C1144 C1145 1.391 . S
C1144 C1146 1.394 . S
C1144 H1160 0.931 . S
C1145 C1144 1.391 . S
C1145 C1149 1.376 1_554 S
C1146 C1144 1.394 . S
C1146 C1147 1.369 . S
C1146 C1150 1.531 . S
C1147 C1146 1.369 . S
C1147 C1148 1.405 1_554 S
C1147 C1155 1.503 . S
C1148 C1147 1.405 1_556 S
C1148 C1149 1.394 . S
C1148 C1151 1.515 . S
C1149 C1145 1.376 1_556 S
C1149 C1148 1.394 . S
C1149 H1161 0.929 . S
C1150 C1146 1.531 . S
C1150 H1162 0.960 . S
C1150 H1163 0.962 . S
C1150 H1164 0.960 . S
C1151 C1148 1.515 . S
C1151 H1165 0.961 . S
C1151 H1166 0.961 . S
C1151 H1167 0.961 1_556 S
C1152 C1153 1.370 1_556 S
C1152 C1154 1.363 . S
C1152 H1168 0.931 . S
C1153 C1152 1.370 1_554 S
C1153 C1157 1.408 . S
C1154 C1152 1.363 . S
C1154 C1155 1.370 1_556 S
C1154 C1158 1.524 . S
C1155 C1147 1.503 . S
C1155 C1154 1.370 1_554 S
C1155 C1156 1.403 . S
C1156 C1155 1.403 . S
C1156 C1157 1.404 . S
C1156 C1159 1.539 . S
C1157 C1153 1.408 . S
C1157 C1156 1.404 . S
C1157 H1169 0.930 . S
C1158 C1154 1.524 . S
C1158 H1170 0.956 . S
C1158 H1171 0.961 . S
C1158 H1172 0.961 . S
C1159 C1156 1.539 . S
C1159 H1173 0.958 . S
C1159 H1174 0.961 . S
C1159 H1175 0.960 . S
H1160 C1144 0.931 . S
H1161 C1149 0.929 . S
H1162 C1150 0.960 . S
H1163 C1150 0.962 . S
H1164 C1150 0.960 . S
H1165 C1151 0.961 . S
H1166 C1151 0.961 . S
H1167 C1151 0.961 1_554 S
H1168 C1152 0.931 . S
H1169 C1157 0.930 . S
H1170 C1158 0.956 . S
H1171 C1158 0.961 . S
H1172 C1158 0.961 . S
H1173 C1159 0.958 . S
H1174 C1159 0.961 . S
H1175 C1159 0.960 . S
C1176 C1177 1.391 . S
C1176 C1178 1.394 . S
C1176 H1192 0.931 . S
C1177 C1176 1.391 . S
C1177 C1181 1.376 . S
C1178 C1176 1.394 . S
C1178 C1179 1.369 . S
C1178 C1182 1.531 . S
C1179 C1178 1.369 . S
C1179 C1180 1.410 . S
C1179 C1187 1.503 . S
C1180 C1179 1.410 . S
C1180 C1181 1.392 . S
C1180 C1183 1.511 . S
C1181 C1177 1.376 . S
C1181 C1180 1.392 . S
C1181 H1193 0.929 . S
C1182 C1178 1.531 . S
C1182 H1194 0.960 . S
C1182 H1195 0.962 . S
C1182 H1196 0.960 . S
C1183 C1180 1.511 . S
C1183 H1197 0.961 . S
C1183 H1198 0.961 . S
C1183 H1199 0.961 . S
C1184 C1185 1.370 . S
C1184 C1186 1.363 . S
C1184 H1200 0.931 . S
C1185 C1184 1.370 . S
C1185 C1189 1.408 . S
C1186 C1184 1.363 . S
C1186 C1187 1.370 . S
C1186 C1190 1.524 . S
C1187 C1179 1.503 . S
C1187 C1186 1.370 . S
C1187 C1188 1.403 . S
C1188 C1187 1.403 . S
C1188 C1189 1.404 . S
C1188 C1191 1.539 . S
C1189 C1185 1.408 . S
C1189 C1188 1.404 . S
C1189 H1201 0.930 . S
C1190 C1186 1.524 . S
C1190 H1202 0.956 . S
C1190 H1203 0.961 . S
C1190 H1204 0.961 . S
C1191 C1188 1.539 . S
C1191 H1205 0.958 . S
C1191 H1206 0.961 . S
C1191 H1207 0.960 . S
H1192 C1176 0.931 . S
H1193 C1181 0.929 . S
H1194 C1182 0.960 . S
H1195 C1182 0.962 . S
H1196 C1182 0.960 . S
H1197 C1183 0.961 . S
H1198 C1183 0.961 . S
H1199 C1183 0.961 . S
H1200 C1184 0.931 . S
H1201 C1189 0.930 . S
H1202 C1190 0.956 . S
H1203 C1190 0.961 . S
H1204 C1190 0.961 . S
H1205 C1191 0.958 . S
H1206 C1191 0.961 . S
H1207 C1191 0.960 . S
C1208 C1209 1.391 . S
C1208 C1210 1.394 . S
C1208 H1224 0.931 . S
C1209 C1208 1.391 . S
C1209 C1213 1.376 . S
C1210 C1208 1.394 . S
C1210 C1211 1.369 . S
C1210 C1214 1.531 . S
C1211 C1210 1.369 . S
C1211 C1212 1.410 . S
C1211 C1219 1.503 . S
C1212 C1211 1.410 . S
C1212 C1213 1.392 . S
C1212 C1215 1.511 . S
C1213 C1209 1.376 . S
C1213 C1212 1.392 . S
C1213 H1225 0.929 . S
C1214 C1210 1.531 . S
C1214 H1226 0.960 . S
C1214 H1227 0.962 . S
C1214 H1228 0.960 . S
C1215 C1212 1.511 . S
C1215 H1229 0.961 . S
C1215 H1230 0.961 . S
C1215 H1231 0.961 . S
C1216 C1217 1.370 . S
C1216 C1218 1.363 . S
C1216 H1232 0.931 . S
C1217 C1216 1.370 . S
C1217 C1221 1.408 . S
C1218 C1216 1.363 . S
C1218 C1219 1.370 . S
C1218 C1222 1.524 . S
C1219 C1211 1.503 . S
C1219 C1218 1.370 . S
C1219 C1220 1.403 . S
C1220 C1219 1.403 . S
C1220 C1221 1.404 . S
C1220 C1223 1.539 . S
C1221 C1217 1.408 . S
C1221 C1220 1.404 . S
C1221 H1233 0.930 . S
C1222 C1218 1.524 . S
C1222 H1234 0.956 . S
C1222 H1235 0.961 . S
C1222 H1236 0.961 . S
C1223 C1220 1.539 . S
C1223 H1237 0.958 . S
C1223 H1238 0.961 . S
C1223 H1239 0.960 . S
H1224 C1208 0.931 . S
H1225 C1213 0.929 . S
H1226 C1214 0.960 . S
H1227 C1214 0.962 . S
H1228 C1214 0.960 . S
H1229 C1215 0.961 . S
H1230 C1215 0.961 . S
H1231 C1215 0.961 . S
H1232 C1216 0.931 . S
H1233 C1221 0.930 . S
H1234 C1222 0.956 . S
H1235 C1222 0.961 . S
H1236 C1222 0.961 . S
H1237 C1223 0.958 . S
H1238 C1223 0.961 . S
H1239 C1223 0.960 . S
C1240 C1241 1.391 1_554 S
C1240 C1242 1.393 1_554 S
C1240 H1256 0.931 . S
C1241 C1240 1.391 1_556 S
C1241 C1245 1.376 . S
C1242 C1240 1.393 1_556 S
C1242 C1243 1.370 . S
C1242 C1246 1.530 1_556 S
C1243 C1242 1.370 . S
C1243 C1244 1.410 . S
C1243 C1251 1.503 . S
C1244 C1243 1.410 . S
C1244 C1245 1.392 . S
C1244 C1247 1.511 . S
C1245 C1241 1.376 . S
C1245 C1244 1.392 . S
C1245 H1257 0.929 . S
C1246 C1242 1.530 1_554 S
C1246 H1258 0.960 1_554 S
C1246 H1259 0.962 . S
C1246 H1260 0.960 1_554 S
C1247 C1244 1.511 . S
C1247 H1261 0.961 . S
C1247 H1262 0.961 . S
C1247 H1263 0.961 . S
C1248 C1249 1.370 1_554 S
C1248 C1250 1.363 . S
C1248 H1264 0.931 . S
C1249 C1248 1.370 1_556 S
C1249 C1253 1.408 . S
C1250 C1248 1.363 . S
C1250 C1251 1.370 1_554 S
C1250 C1254 1.524 . S
C1251 C1243 1.503 . S
C1251 C1250 1.370 1_556 S
C1251 C1252 1.403 . S
C1252 C1251 1.403 . S
C1252 C1253 1.404 . S
C1252 C1255 1.539 . S
C1253 C1249 1.408 . S
C1253 C1252 1.404 . S
C1253 H1265 0.930 . S
C1254 C1250 1.524 . S
C1254 H1266 0.956 . S
C1254 H1267 0.961 . S
C1254 H1268 0.961 . S
C1255 C1252 1.539 . S
C1255 H1269 0.958 . S
C1255 H1270 0.961 . S
C1255 H1271 0.960 . S
H1256 C1240 0.931 . S
H1257 C1245 0.929 . S
H1258 C1246 0.960 1_556 S
H1259 C1246 0.962 . S
H1260 C1246 0.960 1_556 S
H1261 C1247 0.961 . S
H1262 C1247 0.961 . S
H1263 C1247 0.961 . S
H1264 C1248 0.931 . S
H1265 C1253 0.930 . S
H1266 C1254 0.956 . S
H1267 C1254 0.961 . S
H1268 C1254 0.961 . S
H1269 C1255 0.958 . S
H1270 C1255 0.961 . S
H1271 C1255 0.960 . S
C1272 C1273 1.391 . S
C1272 C1274 1.394 . S
C1272 H1288 0.931 . S
C1273 C1272 1.391 . S
C1273 C1277 1.376 . S
C1274 C1272 1.394 . S
C1274 C1275 1.369 . S
C1274 C1278 1.531 . S
C1275 C1274 1.369 . S
C1275 C1276 1.410 . S
C1275 C1283 1.503 . S
C1276 C1275 1.410 . S
C1276 C1277 1.392 . S
C1276 C1279 1.511 . S
C1277 C1273 1.376 . S
C1277 C1276 1.392 . S
C1277 H1289 0.929 . S
C1278 C1274 1.531 . S
C1278 H1290 0.960 . S
C1278 H1291 0.962 . S
C1278 H1292 0.960 . S
C1279 C1276 1.511 . S
C1279 H1293 0.961 . S
C1279 H1294 0.961 . S
C1279 H1295 0.961 . S
C1280 C1281 1.370 . S
C1280 C1282 1.363 . S
C1280 H1296 0.931 . S
C1281 C1280 1.370 . S
C1281 C1285 1.408 . S
C1282 C1280 1.363 . S
C1282 C1283 1.370 . S
C1282 C1286 1.524 . S
C1283 C1275 1.503 . S
C1283 C1282 1.370 . S
C1283 C1284 1.403 . S
C1284 C1283 1.403 . S
C1284 C1285 1.404 . S
C1284 C1287 1.539 . S
C1285 C1281 1.408 . S
C1285 C1284 1.404 . S
C1285 H1297 0.930 . S
C1286 C1282 1.524 . S
C1286 H1298 0.956 . S
C1286 H1299 0.961 . S
C1286 H1300 0.961 . S
C1287 C1284 1.539 . S
C1287 H1301 0.958 . S
C1287 H1302 0.961 . S
C1287 H1303 0.960 . S
H1288 C1272 0.931 . S
H1289 C1277 0.929 . S
H1290 C1278 0.960 . S
H1291 C1278 0.962 . S
H1292 C1278 0.960 . S
H1293 C1279 0.961 . S
H1294 C1279 0.961 . S
H1295 C1279 0.961 . S
H1296 C1280 0.931 . S
H1297 C1285 0.930 . S
H1298 C1286 0.956 . S
H1299 C1286 0.961 . S
H1300 C1286 0.961 . S
H1301 C1287 0.958 . S
H1302 C1287 0.961 . S
H1303 C1287 0.960 . S
C1304 C1305 1.391 . S
C1304 C1306 1.394 . S
C1304 H1320 0.931 . S
C1305 C1304 1.391 . S
C1305 C1309 1.376 1_554 S
C1306 C1304 1.394 . S
C1306 C1307 1.369 . S
C1306 C1310 1.531 . S
C1307 C1306 1.369 . S
C1307 C1308 1.410 1_554 S
C1307 C1315 1.503 . S
C1308 C1307 1.410 1_556 S
C1308 C1309 1.392 . S
C1308 C1311 1.511 . S
C1309 C1305 1.376 1_556 S
C1309 C1308 1.392 . S
C1309 H1321 0.929 . S
C1310 C1306 1.531 . S
C1310 H1322 0.960 . S
C1310 H1323 0.962 . S
C1310 H1324 0.960 . S
C1311 C1308 1.511 . S
C1311 H1325 0.961 . S
C1311 H1326 0.961 . S
C1311 H1327 0.961 . S
C1312 C1313 1.370 1_556 S
C1312 C1314 1.363 . S
C1312 H1328 0.931 . S
C1313 C1312 1.370 1_554 S
C1313 C1317 1.408 . S
C1314 C1312 1.363 . S
C1314 C1315 1.370 1_556 S
C1314 C1318 1.524 . S
C1315 C1307 1.503 . S
C1315 C1314 1.370 1_554 S
C1315 C1316 1.403 . S
C1316 C1315 1.403 . S
C1316 C1317 1.404 . S
C1316 C1319 1.539 . S
C1317 C1313 1.408 . S
C1317 C1316 1.404 . S
C1317 H1329 0.930 . S
C1318 C1314 1.524 . S
C1318 H1330 0.956 . S
C1318 H1331 0.961 . S
C1318 H1332 0.961 . S
C1319 C1316 1.539 . S
C1319 H1333 0.958 . S
C1319 H1334 0.961 . S
C1319 H1335 0.960 . S
H1320 C1304 0.931 . S
H1321 C1309 0.929 . S
H1322 C1310 0.960 . S
H1323 C1310 0.962 . S
H1324 C1310 0.960 . S
H1325 C1311 0.961 . S
H1326 C1311 0.961 . S
H1327 C1311 0.961 . S
H1328 C1312 0.931 . S
H1329 C1317 0.930 . S
H1330 C1318 0.956 . S
H1331 C1318 0.961 . S
H1332 C1318 0.961 . S
H1333 C1319 0.958 . S
H1334 C1319 0.961 . S
H1335 C1319 0.960 . S
C569 C21 1.600 . S
C577 C269 1.524 . S
C601 C40 1.731 . S
C609 C89 1.666 . S
C641 C168 1.485 . S
C633 C54 1.577 . S
C665 C73 1.774 . S
C673 C228 1.667 . S
C705 C389 1.487 . S
C697 C74 1.577 . S
C737 C468 1.648 . S
C729 C10 1.732 . S
C769 C539 1.634 . S
C761 C37 1.636 . S
C801 C329 1.705 . S
C793 C65 1.770 . S
C825 C52 1.586 . S
C833 C179 1.553 . S
C857 C87 1.780 . S
C865 C209 1.644 . S
C889 C15 1.632 . S
C897 C288 1.574 . S
C929 C108 1.719 . S
C921 C32 1.728 . S
C953 C29 1.625 . S
C961 C528 1.602 . S
C993 C348 1.760 . S
C985 C59 1.778 . S
C1025 C408 1.546 . S
C1017 C84 1.594 . S
C1049 C8 1.735 . S
C1057 C449 1.574 . S
C1089 C119 1.811 1_554 S
C1081 C7 1.844 . S
C1121 C149 1.599 . S
C1113 C30 1.685 . S
C1145 C62 1.862 . S
C1153 C239 1.731 . S
C1177 C81 1.666 . S
C1185 C299 1.603 . S
C1217 C359 1.823 . S
C1209 C76 1.866 . S
C1241 C18 1.682 . S
C1249 C419 1.615 1_556 S
C1273 C43 1.848 . S
C1281 C479 1.737 . S
C1305 C51 1.673 1_554 S
C1313 C509 1.674 1_554 S
