# Generated by pormake.
# Topology pth, (4,4)-cn, num edge types: 1
# Building blocks:
#     Node 0, Type 0, BuildingBlock: KUFVIS_clean_sbu_0, # of connection points: 4
#     Node 1, Type 0, BuildingBlock: KUFVIS_clean_sbu_0, # of connection points: 4
#     Node 2, Type 0, BuildingBlock: KUFVIS_clean_sbu_0, # of connection points: 4
#     Node 3, Type 1, BuildingBlock: NAHDIM_clean_linker_0, # of connection points: 4
#     Node 4, Type 1, BuildingBlock: NAHDIM_clean_linker_0, # of connection points: 4
#     Node 5, Type 1, BuildingBlock: NAHDIM_clean_linker_0, # of connection points: 4
#     Edge 6, Type (0, 1), BuildingBlock: EZIPEK_clean_linker_0, # of connection points: 2
#     Edge 7, Type (0, 1), BuildingBlock: EZIPEK_clean_linker_0, # of connection points: 2
#     Edge 8, Type (0, 1), BuildingBlock: EZIPEK_clean_linker_0, # of connection points: 2
#     Edge 9, Type (0, 1), BuildingBlock: EZIPEK_clean_linker_0, # of connection points: 2
#     Edge 10, Type (0, 1), BuildingBlock: EZIPEK_clean_linker_0, # of connection points: 2
#     Edge 11, Type (0, 1), BuildingBlock: EZIPEK_clean_linker_0, # of connection points: 2
#     Edge 12, Type (0, 1), BuildingBlock: EZIPEK_clean_linker_0, # of connection points: 2
#     Edge 13, Type (0, 1), BuildingBlock: EZIPEK_clean_linker_0, # of connection points: 2
#     Edge 14, Type (0, 1), BuildingBlock: EZIPEK_clean_linker_0, # of connection points: 2
#     Edge 15, Type (0, 1), BuildingBlock: EZIPEK_clean_linker_0, # of connection points: 2
#     Edge 16, Type (0, 1), BuildingBlock: EZIPEK_clean_linker_0, # of connection points: 2
#     Edge 17, Type (0, 1), BuildingBlock: EZIPEK_clean_linker_0, # of connection points: 2
# Relax obj value: 0.014
# Max RMSD: 0.083
# Mean RMSD: 0.063
data_MOF--net-pth--node1-KUFVIS_clean_sbu_0--node2-NAHDIM_clean_linker_0--edge1-EZIPEK_clean_linker_0
_symmetry_space_group_name_H-M    P1
_symmetry_Int_Tables_number       1
_symmetry_cell_setting            triclinic
loop_
_symmetry_equiv_pos_as_xyz
'x, y, z'
_cell_length_a     25.450434
_cell_length_b     25.486725
_cell_length_c     65.857632
_cell_angle_alpha  90.003337
_cell_angle_beta   92.772943
_cell_angle_gamma 120.28618
loop_
_atom_site_label
_atom_site_type_symbol
_atom_site_fract_x
_atom_site_fract_y
_atom_site_fract_z
_atom_type_partial_charge
Mn0 Mn 0.07158 0.10258 0.0777 0.0
Mn1 Mn 0.99172 0.16402 0.05669 0.0
C2 C 0.0061 0.05447 0.04991 0.0
C3 C 0.08045 0.04359 0.10295 0.0
C4 C 0.12492 0.21071 0.04936 0.0
O5 O 0.08372 0.16608 0.0986 0.0
O6 O 0.02541 0.20094 0.0844 0.0
C7 C 0.89199 0.11011 0.08504 0.0
N8 N 0.91069 0.11817 0.06568 0.0
C9 C 0.80756 0.05623 0.05196 0.0
C10 C 0.78718 0.04749 0.07175 0.0
C11 C 0.82963 0.07439 0.08837 0.0
C12 C 0.87034 0.09177 0.04962 0.0
H13 H 0.92443 0.1307 0.09785 0.0
C14 C 0.06123 0.20062 0.09865 0.0
O15 O 0.12809 0.08462 0.09414 0.0
O16 O 0.02807 0.03719 0.09716 0.0
N17 N 0.95512 0.13402 0.02999 0.0
C18 C 0.98175 0.14945 0.01184 0.0
C19 C 0.94559 0.12709 0.99366 0.0
C20 C 0.88205 0.09068 0.99429 0.0
C21 C 0.8553 0.07727 0.01309 0.0
C22 C 0.89377 0.10089 0.0307 0.0
H23 H 0.02997 0.17968 0.01128 0.0
O24 O 0.0473 0.04094 0.0555 0.0
O25 O 0.00228 0.0938 0.06154 0.0
O26 O 0.13028 0.1709 0.05967 0.0
O27 O 0.07521 0.21192 0.04681 0.0
C28 C 0.79192 0.0418 0.01504 0.0
C29 C 0.76809 0.03094 0.03448 0.0
H30 H 0.73909 0.02014 0.07436 0.0
H31 H 0.81431 0.06772 0.10369 0.0
H32 H 0.96654 0.13868 0.97918 0.0
H33 H 0.8541 0.07407 0.98025 0.0
H34 H 0.76113 0.02249 0.00169 0.0
H35 H 0.71932 0.00324 0.03581 0.0
Mn36 Mn 0.99491 0.02337 0.40348 0.0
Mn37 Mn 0.11141 0.15805 0.4212 0.0
C38 C 0.06435 0.02443 0.4273 0.0
C39 C 0.95573 0.94743 0.37838 0.0
C40 C 0.98061 0.10668 0.43304 0.0
O41 O 0.99542 0.08427 0.38354 0.0
O42 O 0.08275 0.16957 0.39381 0.0
C43 C 0.20373 0.17682 0.39202 0.0
N44 N 0.18661 0.17132 0.41154 0.0
C45 C 0.28524 0.19175 0.42462 0.0
C46 C 0.30409 0.19798 0.40466 0.0
C47 C 0.26302 0.19014 0.38829 0.0
C48 C 0.22548 0.17805 0.42738 0.0
H49 H 0.17234 0.17115 0.37942 0.0
C50 C 0.03613 0.13967 0.38149 0.0
O51 O 0.9196 0.95607 0.38939 0.0
O52 O 0.01389 0.98301 0.38174 0.0
N53 N 0.144 0.15329 0.44755 0.0
C54 C 0.11697 0.13986 0.46565 0.0
C55 C 0.15116 0.14353 0.48354 0.0
C56 C 0.21263 0.16017 0.48261 0.0
C57 C 0.23921 0.17256 0.46376 0.0
C58 C 0.203 0.16876 0.44648 0.0
H59 H 0.06911 0.12412 0.46633 0.0
O60 O 0.01149 0.97571 0.42412 0.0
O61 O 0.07504 0.0705 0.41608 0.0
O62 O 0.9597 0.05401 0.42472 0.0
O63 O 0.03594 0.14909 0.432 0.0
C64 C 0.29994 0.18762 0.4614 0.0
C65 C 0.32302 0.19743 0.44185 0.0
H66 H 0.34977 0.20822 0.40173 0.0
H67 H 0.27713 0.19457 0.37284 0.0
H68 H 0.12985 0.13244 0.49796 0.0
H69 H 0.23864 0.16214 0.4964 0.0
H70 H 0.32902 0.19095 0.47449 0.0
H71 H 0.36948 0.20806 0.44019 0.0
Mn72 Mn 0.02102 0.02691 0.73972 0.0
Mn73 Mn 0.98245 0.10545 0.77081 0.0
C74 C 0.08785 0.08613 0.76634 0.0
C75 C 0.06497 0.01943 0.71033 0.0
C76 C 0.92655 0.96869 0.77142 0.0
O77 O 0.95203 0.0293 0.72359 0.0
O78 O 0.93712 0.09057 0.74401 0.0
C79 C 0.03524 0.22125 0.74903 0.0
N80 N 0.0327 0.19028 0.76616 0.0
C81 C 0.10976 0.28174 0.78374 0.0
C82 C 0.11314 0.31465 0.7663 0.0
C83 C 0.07582 0.28423 0.74886 0.0
C84 C 0.06887 0.219 0.78294 0.0
H85 H 0.00667 0.19804 0.73559 0.0
C86 C 0.92511 0.05869 0.72755 0.0
O87 O 0.02432 0.97165 0.71916 0.0
O88 O 0.07846 0.07158 0.7183 0.0
N89 N 0.02433 0.12327 0.79706 0.0
C90 C 0.01451 0.08515 0.81276 0.0
C91 C 0.04809 0.10849 0.83138 0.0
C92 C 0.09088 0.17084 0.83372 0.0
C93 C 0.09902 0.20944 0.81752 0.0
C94 C 0.06407 0.18362 0.79936 0.0
H95 H 0.98137 0.03729 0.8111 0.0
O96 O 0.09202 0.04185 0.7584 0.0
O97 O 0.04369 0.09274 0.75872 0.0
O98 O 0.9606 0.96533 0.75859 0.0
O99 O 0.92943 0.01828 0.77686 0.0
C100 C 0.14012 0.27258 0.81873 0.0
C101 C 0.14536 0.30871 0.80187 0.0
H102 H 0.14426 0.36326 0.76613 0.0
H103 H 0.07826 0.30928 0.73533 0.0
H104 H 0.04111 0.07847 0.84387 0.0
H105 H 0.11692 0.18863 0.84807 0.0
H106 H 0.16783 0.29383 0.83256 0.0
H107 H 0.17707 0.35722 0.80299 0.0
C108 C 0.83714 0.75798 0.30045 0.0
C109 C 0.88653 0.75993 0.31541 0.0
C110 C 0.94925 0.72406 0.29982 0.0
C111 C 0.0103 0.74184 0.29783 0.0
C112 C 0.0272 0.70059 0.2911 0.0
C113 C 0.98142 0.64047 0.28537 0.0
C114 C 0.9194 0.62173 0.28766 0.0
C115 C 0.9039 0.66366 0.29505 0.0
C116 C 0.09401 0.72194 0.28959 0.0
C117 C 0.86949 0.55807 0.28164 0.0
C118 C 0.10481 0.30799 0.30682 0.0
C119 C 0.04295 0.29072 0.31537 0.0
C120 C 0.04043 0.38513 0.31399 0.0
C121 C 0.98838 0.36762 0.30111 0.0
C122 C 0.98076 0.41113 0.2904 0.0
C123 C 0.02642 0.47322 0.29251 0.0
C124 C 0.07755 0.49116 0.30621 0.0
C125 C 0.08341 0.44675 0.31701 0.0
C126 C 0.92463 0.39068 0.27646 0.0
C127 C 0.12689 0.55698 0.30895 0.0
C128 C 0.17693 0.45002 0.17567 0.0
C129 C 0.11364 0.42581 0.17503 0.0
C130 C 0.08892 0.46051 0.18189 0.0
C131 C 0.12839 0.52018 0.18986 0.0
C132 C 0.19226 0.54522 0.18995 0.0
C133 C 0.21563 0.50995 0.18256 0.0
C134 C 0.02064 0.43314 0.18088 0.0
C135 C 0.23582 0.60872 0.19825 0.0
C136 C 0.07226 0.8864 0.18521 0.0
C137 C 0.10438 0.89276 0.16535 0.0
C138 C 0.08865 0.78937 0.16471 0.0
C139 C 0.04397 0.73026 0.15863 0.0
C140 C 0.04142 0.67972 0.16807 0.0
C141 C 0.08576 0.68888 0.18362 0.0
C142 C 0.13359 0.74853 0.18888 0.0
C143 C 0.1343 0.79823 0.17947 0.0
C144 C 0.99014 0.61677 0.16199 0.0
C145 C 0.18301 0.75995 0.20488 0.0
C146 C 0.99859 0.59918 0.27554 0.0
C147 C 0.00175 0.55498 0.28727 0.0
C148 C 0.02298 0.51866 0.27928 0.0
C149 C 0.04229 0.5269 0.25914 0.0
C150 C 0.06617 0.49285 0.25091 0.0
C151 C 0.08579 0.50186 0.2312 0.0
C152 C 0.08238 0.5453 0.21891 0.0
C153 C 0.10299 0.55542 0.19893 0.0
C154 C 0.10194 0.60123 0.18754 0.0
C155 C 0.07997 0.63689 0.19549 0.0
C156 C 0.05654 0.6255 0.21506 0.0
C157 C 0.03161 0.65876 0.22312 0.0
C158 C 0.0114 0.64931 0.24274 0.0
C159 C 0.01574 0.60657 0.25515 0.0
C160 C 0.03849 0.57092 0.24704 0.0
C161 C 0.05872 0.58025 0.22693 0.0
C162 C 0.22832 0.34008 0.17362 0.0
C163 C 0.1774 0.35508 0.17015 0.0
O164 O 0.93636 0.76741 0.30542 0.0
O165 O 0.08552 0.83641 0.15625 0.0
O166 O 0.20255 0.41752 0.16961 0.0
O167 O 0.05002 0.34382 0.32397 0.0
H168 H 0.86286 0.71475 0.32241 0.0
H169 H 0.81747 0.71651 0.2905 0.0
H170 H 0.85433 0.79731 0.29038 0.0
H171 H 0.79964 0.75604 0.309 0.0
H172 H 0.04491 0.78854 0.30159 0.0
H173 H 0.85642 0.64957 0.29636 0.0
H174 H 0.10449 0.68707 0.29535 0.0
H175 H 0.12357 0.7653 0.29828 0.0
H176 H 0.1056 0.72933 0.27342 0.0
H177 H 0.82334 0.55116 0.28364 0.0
H178 H 0.87521 0.52487 0.291 0.0
H179 H 0.87281 0.54818 0.26548 0.0
H180 H 0.00739 0.27291 0.30272 0.0
H181 H 0.14013 0.32079 0.31942 0.0
H182 H 0.11954 0.34762 0.29684 0.0
H183 H 0.10308 0.27111 0.29743 0.0
H184 H 0.95346 0.32014 0.2995 0.0
H185 H 0.12279 0.45975 0.32732 0.0
H186 H 0.90394 0.41917 0.27926 0.0
H187 H 0.8899 0.34222 0.27847 0.0
H188 H 0.93762 0.3965 0.26042 0.0
H189 H 0.16453 0.56325 0.31982 0.0
H190 H 0.10719 0.58401 0.31462 0.0
H191 H 0.14603 0.57536 0.29407 0.0
H192 H 0.15226 0.33977 0.18416 0.0
H193 H 0.08347 0.38028 0.16898 0.0
H194 H 0.26447 0.52844 0.18268 0.0
H195 H 0.00414 0.42394 0.19649 0.0
H196 H 0.99678 0.38983 0.17178 0.0
H197 H 0.00815 0.46558 0.17413 0.0
H198 H 0.28402 0.61971 0.19865 0.0
H199 H 0.22433 0.61408 0.21388 0.0
H200 H 0.2313 0.64214 0.18863 0.0
H201 H 0.15407 0.91384 0.16881 0.0
H202 H 0.08519 0.93176 0.19174 0.0
H203 H 0.08567 0.86301 0.19675 0.0
H204 H 0.022 0.8601 0.18261 0.0
H205 H 0.00948 0.72395 0.147 0.0
H206 H 0.17021 0.84375 0.18386 0.0
H207 H 0.96381 0.59421 0.17545 0.0
H208 H 0.00914 0.58894 0.15647 0.0
H209 H 0.95858 0.61742 0.14987 0.0
H210 H 0.22183 0.80742 0.20486 0.0
H211 H 0.20035 0.72836 0.20245 0.0
H212 H 0.16388 0.75144 0.22012 0.0
H213 H 0.98867 0.54959 0.3029 0.0
H214 H 0.07042 0.45908 0.25964 0.0
H215 H 0.10414 0.47458 0.22579 0.0
H216 H 0.11961 0.61008 0.17248 0.0
H217 H 0.02766 0.69271 0.21439 0.0
H218 H 0.99282 0.67642 0.24812 0.0
H219 H 0.20838 0.29033 0.17537 0.0
H220 H 0.25603 0.36352 0.18778 0.0
H221 H 0.25912 0.35448 0.16085 0.0
C222 C 0.31748 0.09675 0.69564 0.0
C223 C 0.28195 0.07832 0.67482 0.0
C224 C 0.34799 0.05534 0.65486 0.0
C225 C 0.39508 0.11558 0.65245 0.0
C226 C 0.44767 0.12787 0.64257 0.0
C227 C 0.45349 0.07908 0.63514 0.0
C228 C 0.40693 0.01849 0.63803 0.0
C229 C 0.35456 0.00755 0.64767 0.0
C230 C 0.49644 0.19299 0.63966 0.0
C231 C 0.41191 0.96524 0.63058 0.0
C232 C 0.94645 0.20562 0.65566 0.0
C233 C 0.87851 0.1596 0.65723 0.0
C234 C 0.78774 0.16927 0.65069 0.0
C235 C 0.74475 0.10714 0.6479 0.0
C236 C 0.68564 0.08794 0.6397 0.0
C237 C 0.6695 0.13184 0.63418 0.0
C238 C 0.71179 0.1943 0.63798 0.0
C239 C 0.77029 0.21209 0.64634 0.0
C240 C 0.64105 0.02093 0.63631 0.0
C241 C 0.69589 0.24233 0.63252 0.0
C242 C 0.71942 0.09584 0.49662 0.0
C243 C 0.67755 0.04069 0.50484 0.0
C244 C 0.63592 0.03763 0.51864 0.0
C245 C 0.63635 0.09133 0.52432 0.0
C246 C 0.67993 0.14773 0.51665 0.0
C247 C 0.72123 0.14953 0.50292 0.0
C248 C 0.59034 0.97683 0.52671 0.0
C249 C 0.68169 0.20585 0.52255 0.0
C250 C 0.25536 0.94804 0.46251 0.0
C251 C 0.24084 0.98901 0.47562 0.0
C252 C 0.33555 0.04694 0.49728 0.0
C253 C 0.33218 0.99755 0.50788 0.0
C254 C 0.38031 0.0056 0.52134 0.0
C255 C 0.4316 0.06446 0.52477 0.0
C256 C 0.43339 0.11468 0.51499 0.0
C257 C 0.38548 0.10505 0.50123 0.0
C258 C 0.37722 0.95098 0.53142 0.0
C259 C 0.48681 0.1783 0.51853 0.0
C260 C 0.50603 0.09106 0.62307 0.0
C261 C 0.56093 0.10431 0.63336 0.0
C262 C 0.61089 0.11328 0.62268 0.0
C263 C 0.60561 0.10699 0.60121 0.0
C264 C 0.65417 0.11323 0.59005 0.0
C265 C 0.64832 0.10641 0.56896 0.0
C266 C 0.59419 0.09437 0.55821 0.0
C267 C 0.58779 0.08767 0.5368 0.0
C268 C 0.53397 0.07714 0.52654 0.0
C269 C 0.48581 0.07305 0.53705 0.0
C270 C 0.49066 0.07847 0.5585 0.0
C271 C 0.44282 0.07403 0.56956 0.0
C272 C 0.44767 0.07807 0.5907 0.0
C273 C 0.50099 0.08778 0.60156 0.0
C274 C 0.55055 0.09454 0.59065 0.0
C275 C 0.5451 0.08904 0.56911 0.0
C276 C 0.76654 0.15981 0.4544 0.0
C277 C 0.79801 0.1422 0.47146 0.0
O278 O 0.29532 0.04078 0.66373 0.0
O279 O 0.29305 0.04112 0.4828 0.0
O280 O 0.75595 0.09449 0.48249 0.0
O281 O 0.84632 0.19008 0.6575 0.0
H282 H 0.29765 0.12158 0.6669 0.0
H283 H 0.3671 0.12532 0.69362 0.0
H284 H 0.31029 0.05699 0.70452 0.0
H285 H 0.30343 0.12399 0.70468 0.0
H286 H 0.39102 0.1533 0.65789 0.0
H287 H 0.31817 0.96129 0.64965 0.0
H288 H 0.5398 0.20189 0.64757 0.0
H289 H 0.48413 0.22591 0.64563 0.0
H290 H 0.50467 0.20097 0.62324 0.0
H291 H 0.37584 0.92141 0.63635 0.0
H292 H 0.45717 0.97143 0.63539 0.0
H293 H 0.40777 0.96269 0.61371 0.0
H294 H 0.86577 0.13343 0.64271 0.0
H295 H 0.97223 0.18142 0.65415 0.0
H296 H 0.96583 0.23679 0.66919 0.0
H297 H 0.95321 0.2334 0.64198 0.0
H298 H 0.757 0.07357 0.65204 0.0
H299 H 0.80351 0.2599 0.64891 0.0
H300 H 0.59702 0.00878 0.64284 0.0
H301 H 0.6584 0.99239 0.6432 0.0
H302 H 0.63196 0.01017 0.61973 0.0
H303 H 0.73331 0.28887 0.637 0.0
H304 H 0.65427 0.23336 0.64013 0.0
H305 H 0.68573 0.24041 0.61586 0.0
H306 H 0.82321 0.18397 0.48117 0.0
H307 H 0.6768 0.99962 0.50004 0.0
H308 H 0.75378 0.19291 0.49703 0.0
H309 H 0.59206 0.97945 0.54359 0.0
H310 H 0.59873 0.93998 0.52195 0.0
H311 H 0.54364 0.96481 0.52111 0.0
H312 H 0.72024 0.2465 0.51605 0.0
H313 H 0.68568 0.21168 0.53936 0.0
H314 H 0.63843 0.20326 0.51713 0.0
H315 H 0.2167 0.96015 0.48844 0.0
H316 H 0.26569 0.91861 0.47231 0.0
H317 H 0.21544 0.91735 0.45222 0.0
H318 H 0.29553 0.97437 0.45337 0.0
H319 H 0.293 0.95253 0.50549 0.0
H320 H 0.3873 0.14293 0.49315 0.0
H321 H 0.37779 0.95622 0.54817 0.0
H322 H 0.4178 0.94775 0.52797 0.0
H323 H 0.33554 0.90784 0.52637 0.0
H324 H 0.47691 0.21318 0.51237 0.0
H325 H 0.52668 0.18237 0.51096 0.0
H326 H 0.49957 0.18795 0.53504 0.0
H327 H 0.56492 0.10799 0.64984 0.0
H328 H 0.69712 0.12289 0.59747 0.0
H329 H 0.6869 0.11108 0.56117 0.0
H330 H 0.52968 0.07254 0.51007 0.0
H331 H 0.40086 0.06679 0.562 0.0
H332 H 0.40913 0.0738 0.59841 0.0
H333 H 0.72964 0.11988 0.44577 0.0
H334 H 0.80046 0.19062 0.44368 0.0
H335 H 0.74549 0.18453 0.46093 0.0
C336 C 0.75535 0.69071 0.76744 0.0
C337 C 0.74555 0.71961 0.78624 0.0
C338 C 0.70875 0.66357 0.81787 0.0
C339 C 0.66561 0.68033 0.82215 0.0
C340 C 0.62308 0.65019 0.83691 0.0
C341 C 0.62455 0.60314 0.84784 0.0
C342 C 0.66904 0.5873 0.84396 0.0
C343 C 0.71078 0.61803 0.82906 0.0
C344 C 0.5769 0.66891 0.84099 0.0
C345 C 0.67247 0.53796 0.85555 0.0
C346 C 0.306 0.35135 0.79604 0.0
C347 C 0.29924 0.29391 0.8066 0.0
C348 C 0.32729 0.33477 0.8409 0.0
C349 C 0.37939 0.33107 0.8459 0.0
C350 C 0.4285 0.3773 0.85758 0.0
C351 C 0.42594 0.42907 0.86386 0.0
C352 C 0.37163 0.43091 0.85993 0.0
C353 C 0.32223 0.38268 0.84889 0.0
C354 C 0.48455 0.37241 0.86207 0.0
C355 C 0.36722 0.48559 0.86604 0.0
C356 C 0.40713 0.4767 0.00187 0.0
C357 C 0.4528 0.46344 0.99812 0.0
C358 C 0.49204 0.49097 0.98232 0.0
C359 C 0.48557 0.53324 0.97013 0.0
C360 C 0.43991 0.54747 0.97395 0.0
C361 C 0.40129 0.51927 0.98984 0.0
C362 C 0.54075 0.47536 0.97874 0.0
C363 C 0.4326 0.5932 0.96141 0.0
C364 C 0.86737 0.96607 0.96058 0.0
C365 C 0.84383 0.92575 0.97927 0.0
C366 C 0.78393 0.81832 0.96764 0.0
C367 C 0.78292 0.76308 0.96837 0.0
C368 C 0.73153 0.7089 0.96115 0.0
C369 C 0.67995 0.71032 0.95293 0.0
C370 C 0.68082 0.76618 0.95184 0.0
C371 C 0.73303 0.81982 0.95909 0.0
C372 C 0.73219 0.65011 0.96236 0.0
C373 C 0.6265 0.76905 0.94303 0.0
C374 C 0.58011 0.57092 0.86355 0.0
C375 C 0.52563 0.51827 0.85761 0.0
C376 C 0.48255 0.48426 0.87173 0.0
C377 C 0.49409 0.50325 0.89245 0.0
C378 C 0.45282 0.4694 0.90721 0.0
C379 C 0.46407 0.4895 0.92747 0.0
C380 C 0.51725 0.54394 0.93373 0.0
C381 C 0.52885 0.56538 0.95418 0.0
C382 C 0.58215 0.61952 0.95989 0.0
C383 C 0.62478 0.65318 0.94571 0.0
C384 C 0.61437 0.63259 0.92521 0.0
C385 C 0.6568 0.66525 0.91063 0.0
C386 C 0.64584 0.64497 0.89044 0.0
C387 C 0.59189 0.59146 0.88406 0.0
C388 C 0.54866 0.55754 0.89855 0.0
C389 C 0.56013 0.57797 0.91918 0.0
C390 C 0.3167 0.48855 0.03476 0.0
C391 C 0.31335 0.43994 0.02007 0.0
O392 O 0.75017 0.69085 0.80353 0.0
O393 O 0.83518 0.86858 0.97518 0.0
O394 O 0.37066 0.44825 0.01739 0.0
O395 O 0.28498 0.29673 0.82653 0.0
H396 H 0.69793 0.70865 0.78358 0.0
H397 H 0.72143 0.64125 0.76651 0.0
H398 H 0.80149 0.69631 0.76778 0.0
H399 H 0.74892 0.71161 0.75343 0.0
H400 H 0.6655 0.71741 0.81433 0.0
H401 H 0.74494 0.60613 0.82588 0.0
H402 H 0.53014 0.62906 0.83878 0.0
H403 H 0.58088 0.70553 0.83089 0.0
H404 H 0.58307 0.68515 0.85705 0.0
H405 H 0.71019 0.53147 0.85085 0.0
H406 H 0.62883 0.49436 0.8531 0.0
H407 H 0.67915 0.54937 0.8721 0.0
H408 H 0.34342 0.29493 0.80633 0.0
H409 H 0.33865 0.36625 0.78386 0.0
H410 H 0.32486 0.39097 0.80678 0.0
H411 H 0.26148 0.34366 0.78966 0.0
H412 H 0.38262 0.2932 0.83999 0.0
H413 H 0.28149 0.38476 0.84494 0.0
H414 H 0.50471 0.39059 0.8776 0.0
H415 H 0.51914 0.39964 0.85102 0.0
H416 H 0.47421 0.32463 0.86069 0.0
H417 H 0.32364 0.48189 0.86033 0.0
H418 H 0.40557 0.52754 0.8601 0.0
H419 H 0.37063 0.49059 0.88285 0.0
H420 H 0.29439 0.44714 0.00554 0.0
H421 H 0.45736 0.43104 0.0076 0.0
H422 H 0.36755 0.53165 0.99294 0.0
H423 H 0.53642 0.45939 0.96273 0.0
H424 H 0.53816 0.43962 0.989 0.0
H425 H 0.58639 0.5167 0.9812 0.0
H426 H 0.39379 0.59812 0.96594 0.0
H427 H 0.42529 0.57924 0.94507 0.0
H428 H 0.47499 0.63823 0.9631 0.0
H429 H 0.80022 0.92378 0.98187 0.0
H430 H 0.89342 0.01495 0.96509 0.0
H431 H 0.82828 0.95855 0.95022 0.0
H432 H 0.89646 0.95521 0.95154 0.0
H433 H 0.82265 0.76255 0.97482 0.0
H434 H 0.73359 0.86238 0.95787 0.0
H435 H 0.72179 0.62793 0.94702 0.0
H436 H 0.69619 0.61852 0.97233 0.0
H437 H 0.77681 0.65708 0.96845 0.0
H438 H 0.63378 0.81584 0.9437 0.0
H439 H 0.58559 0.73865 0.95144 0.0
H440 H 0.61686 0.75259 0.92692 0.0
H441 H 0.51675 0.50333 0.84175 0.0
H442 H 0.41123 0.42717 0.90321 0.0
H443 H 0.43052 0.46194 0.93817 0.0
H444 H 0.59047 0.63582 0.9756 0.0
H445 H 0.69896 0.70691 0.91465 0.0
H446 H 0.68008 0.67203 0.87987 0.0
H447 H 0.33928 0.49022 0.04973 0.0
H448 H 0.27006 0.47975 0.03718 0.0
H449 H 0.34291 0.53417 0.02815 0.0
C450 C 0.1264 0.30546 0.11346 0.0
C451 C 0.08034 0.24452 0.11593 0.0
C452 C 0.08229 0.26599 0.1522 0.0
C453 C 0.13834 0.32214 0.15066 0.0
N454 N 0.21699 0.39137 0.12841 0.0
N455 N 0.01657 0.16438 0.13796 0.0
C456 C 0.16099 0.34138 0.13087 0.0
C457 C 0.05888 0.22407 0.1354 0.0
N458 N 0.13823 0.32886 0.09446 0.0
N459 N 0.0497 0.25302 0.16924 0.0
H460 H 0.9961 0.1329 0.12585 0.0
H461 H 0.00507 0.14543 0.15223 0.0
H462 H 0.06019 0.28374 0.18127 0.0
H463 H 0.00667 0.21463 0.17017 0.0
H464 H 0.16705 0.37493 0.09197 0.0
H465 H 0.11502 0.30346 0.08127 0.0
H466 H 0.23764 0.40149 0.11454 0.0
H467 H 0.24612 0.42016 0.14009 0.0
C468 C 0.87578 0.09219 0.43419 0.0
C469 C 0.9363 0.11952 0.44299 0.0
C470 C 0.90334 0.15172 0.47266 0.0
C471 C 0.84352 0.1256 0.46345 0.0
N472 N 0.76937 0.045 0.44079 0.0
N473 N 0.00907 0.18615 0.46993 0.0
C474 C 0.82852 0.08785 0.44582 0.0
C475 C 0.95058 0.15242 0.46194 0.0
N476 N 0.86389 0.07443 0.4141 0.0
N477 N 0.91661 0.17414 0.49219 0.0
H478 H 0.04729 0.19773 0.46192 0.0
H479 H 0.01982 0.2086 0.4841 0.0
H480 H 0.88423 0.17015 0.50216 0.0
H481 H 0.88423 0.17015 0.50216 0.0
H482 H 0.82138 0.05917 0.40664 0.0
H483 H 0.8981 0.08288 0.40429 0.0
H484 H 0.75691 0.01309 0.42894 0.0
H485 H 0.73405 0.03586 0.45017 0.0
C486 C 0.89766 0.87426 0.79042 0.0
C487 C 0.87944 0.91073 0.77958 0.0
C488 C 0.77294 0.83037 0.78106 0.0
C489 C 0.79173 0.78846 0.78756 0.0
N490 N 0.87711 0.77322 0.79724 0.0
N491 N 0.79963 0.92107 0.76221 0.0
C492 C 0.85546 0.81123 0.79221 0.0
C493 C 0.81705 0.88843 0.7744 0.0
N494 N 0.9556 0.90002 0.79902 0.0
N495 N 0.71364 0.81633 0.78166 0.0
H496 H 0.83015 0.96396 0.75698 0.0
H497 H 0.7554 0.90317 0.75586 0.0
H498 H 0.67949 0.77709 0.78779 0.0
H499 H 0.69985 0.84787 0.77866 0.0
H500 H 0.9698 0.87734 0.80901 0.0
H501 H 0.98749 0.94611 0.79785 0.0
H502 H 0.92337 0.78727 0.79789 0.0
H503 H 0.85036 0.72681 0.79922 0.0
C504 C 0.04533 0.9424 0.11859 0.0
C505 C 0.08535 0.00613 0.11932 0.0
C506 C 0.13331 0.99777 0.15149 0.0
C507 C 0.093 0.93334 0.15068 0.0
N508 N 0.99486 0.85091 0.13648 0.0
N509 N 0.1542 0.09612 0.1395 0.0
C510 C 0.04423 0.90776 0.13541 0.0
C511 C 0.1259 0.03441 0.13658 0.0
N512 N 0.00754 0.91389 0.10179 0.0
N513 N 0.17876 0.0245 0.16647 0.0
H514 H 0.14812 0.12444 0.12944 0.0
H515 H 0.17869 0.11882 0.15289 0.0
H516 H 0.1816 0.00248 0.17943 0.0
H517 H 0.21512 0.06886 0.16579 0.0
H518 H 0.9776 0.86697 0.10091 0.0
H519 H 0.00895 0.93608 0.08835 0.0
H520 H 0.98569 0.82311 0.14898 0.0
H521 H 0.98569 0.82311 0.14898 0.0
C522 C 0.16514 0.0294 0.43127 0.0
C523 C 0.11199 0.02149 0.44012 0.0
C524 C 0.14792 0.00354 0.47307 0.0
C525 C 0.1998 0.0082 0.46404 0.0
N526 N 0.26955 0.0543 0.4372 0.0
N527 N 0.05119 0.99877 0.46946 0.0
C528 C 0.21206 0.02976 0.44389 0.0
C529 C 0.10277 0.00733 0.46091 0.0
N530 N 0.16975 0.03358 0.41066 0.0
N531 N 0.14186 -0.00024 0.49354 0.0
H532 H 0.01745 0.0035 0.4615 0.0
H533 H 0.04264 0.98746 0.48466 0.0
H534 H 0.17547 0.00397 0.50424 0.0
H535 H 0.17547 0.00397 0.50424 0.0
H536 H 0.20442 0.03247 0.40324 0.0
H537 H 0.13603 0.03225 0.40068 0.0
H538 H 0.28177 0.07382 0.42305 0.0
H539 H 0.3071 0.06352 0.44679 0.0
C540 C 0.16328 0.1296 0.7965 0.0
C541 C 0.1427 0.13702 0.77689 0.0
C542 C 0.23893 0.2321 0.77446 0.0
C543 C 0.2505 0.23402 0.79575 0.0
N544 N 0.23664 0.16898 0.82453 0.0
N545 N 0.16265 0.19918 0.74705 0.0
C546 C 0.21673 0.1786 0.80614 0.0
C547 C 0.18071 0.1896 0.76586 0.0
N548 N 0.13219 0.07567 0.80607 0.0
N549 N 0.28547 0.26561 0.76218 0.0
H550 H 0.12116 0.16918 0.73954 0.0
H551 H 0.18752 0.2401 0.73967 0.0
H552 H 0.33077 0.28815 0.76784 0.0
H553 H 0.28004 0.26248 0.74635 0.0
H554 H 0.14577 0.06875 0.82055 0.0
H555 H 0.09297 0.03829 0.79954 0.0
H556 H 0.27884 0.19905 0.83174 0.0
H557 H 0.27884 0.19905 0.83174 0.0
C558 C 0.87438 0.0355 0.69172 0.0
C559 C 0.88587 0.06498 0.71102 0.0
C560 C 0.87398 0.14587 0.69618 0.0
C561 C 0.86912 0.12107 0.67619 0.0
N562 N 0.83913 0.02817 0.65647 0.0
N563 N 0.85241 0.12009 0.73125 0.0
C564 C 0.86125 0.06136 0.67434 0.0
C565 C 0.87088 0.11083 0.71317 0.0
N566 N 0.87451 0.98217 0.69008 0.0
N567 N 0.88504 0.20362 0.69948 0.0
H568 H 0.84386 0.09066 0.74329 0.0
H569 H 0.83723 0.15084 0.73309 0.0
H570 H 0.89074 0.23422 0.68821 0.0
H571 H 0.89468 0.2236 0.71403 0.0
H572 H 0.8775 0.96375 0.67637 0.0
H573 H 0.87098 0.95605 0.7027 0.0
H574 H 0.82841 0.98317 0.65488 0.0
H575 H 0.82384 0.04158 0.6437 0.0
C576 C 0.98842 0.01996 0.01348 0.0
C577 C 0.96379 0.02086 0.03226 0.0
C578 C 0.86106 0.94839 0.01789 0.0
C579 C 0.8858 0.95205 0.99859 0.0
N580 N 0.97392 0.96274 0.98254 0.0
N581 N 0.88012 0.97142 0.05426 0.0
C582 C 0.94985 0.97937 0.99764 0.0
C583 C 0.90095 0.98087 0.03506 0.0
N584 N 0.04885 0.0581 0.01064 0.0
N585 N 0.79978 0.91266 0.01998 0.0
H586 H 0.908 0.99381 0.06718 0.0
H587 H 0.83626 0.9386 0.05774 0.0
H588 H 0.77063 0.8791 0.00929 0.0
H589 H 0.77764 0.91573 0.0324 0.0
H590 H 0.06729 0.06447 0.99644 0.0
H591 H 0.07967 0.08685 0.02209 0.0
H592 H 0.02026 0.9778 0.98211 0.0
H593 H 0.94708 0.92694 0.97227 0.0
C594 C 0.91824 0.83949 0.36811 0.0
C595 C 0.93278 0.89874 0.36257 0.0
C596 C 0.92892 0.8719 0.32664 0.0
C597 C 0.90871 0.81048 0.33189 0.0
N598 N 0.91348 0.74597 0.35803 0.0
N599 N 0.94246 0.96954 0.33687 0.0
C600 C 0.91116 0.79674 0.35279 0.0
C601 C 0.93542 0.91439 0.34192 0.0
N602 N 0.91069 0.82392 0.38807 0.0
N603 N 0.94782 0.89141 0.3076 0.0
H604 H 0.94665 0.00141 0.34774 0.0
H605 H 0.93797 0.98122 0.32199 0.0
H606 H 0.95076 0.86421 0.29646 0.0
H607 H 0.96851 0.93681 0.3036 0.0
H608 H 0.89298 0.77949 0.39287 0.0
H609 H 0.91699 0.85459 0.39974 0.0
H610 H 0.92039 0.73619 0.37293 0.0
H611 H 0.91771 0.718 0.34749 0.0
C612 C 0.1274 0.06439 0.67998 0.0
C613 C 0.10152 0.01644 0.69381 0.0
C614 C 0.18144 0.99242 0.68846 0.0
C615 C 0.21295 0.04681 0.67731 0.0
N616 N 0.19773 0.11013 0.65322 0.0
N617 N 0.08445 0.91629 0.70078 0.0
C618 C 0.18018 0.07529 0.67006 0.0
C619 C 0.12206 0.97415 0.69473 0.0
N620 N 0.10155 0.09945 0.67643 0.0
N621 N 0.20801 0.95879 0.69351 0.0
H622 H 0.03858 0.89964 0.7031 0.0
H623 H 0.09577 0.88233 0.70042 0.0
H624 H 0.24857 0.96623 0.68785 0.0
H625 H 0.19063 0.92447 0.70409 0.0
H626 H 0.12256 0.1399 0.6686 0.0
H627 H 0.05925 0.08811 0.6818 0.0
H628 H 0.17333 0.12902 0.64658 0.0
H629 H 0.23172 0.11296 0.64426 0.0
C630 C 0.22905 0.30397 0.05483 0.0
C631 C 0.18054 0.26216 0.04133 0.0
C632 C 0.22363 0.3322 0.01351 0.0
C633 C 0.27116 0.37506 0.02706 0.0
N634 N 0.33289 0.38727 0.05791 0.0
N635 N 0.14733 0.22637 0.0068 0.0
C636 C 0.27851 0.35651 0.04689 0.0
C637 C 0.18249 0.27316 0.02027 0.0
N638 N 0.22716 0.29539 0.07532 0.0
N639 N 0.21802 0.34957 0.99435 0.0
H640 H 0.12011 0.18229 0.01163 0.0
H641 H 0.15088 0.22944 0.99111 0.0
H642 H 0.18206 0.32334 0.98381 0.0
H643 H 0.18206 0.32334 0.98381 0.0
H644 H 0.25783 0.32856 0.08586 0.0
H645 H 0.19237 0.25756 0.082 0.0
H646 H 0.34153 0.37188 0.07163 0.0
H647 H 0.37168 0.42371 0.05233 0.0
C648 C 0.00963 0.21487 0.36719 0.0
C649 C 0.02822 0.1717 0.36401 0.0
C650 C 0.02932 0.18886 0.32746 0.0
C651 C 0.02439 0.24096 0.33131 0.0
N652 N 0.96935 0.27405 0.35147 0.0
N653 N 0.05598 0.1167 0.34117 0.0
C654 C 0.00266 0.24582 0.35027 0.0
C655 C 0.03707 0.15757 0.3441 0.0
N656 N 0.99932 0.22684 0.38636 0.0
N657 N 0.02187 0.16678 0.30801 0.0
H658 H 0.06224 0.09279 0.35299 0.0
H659 H 0.06971 0.10984 0.32725 0.0
H660 H 0.01016 0.18562 0.29579 0.0
H661 H 0.01958 0.12586 0.30439 0.0
H662 H 0.99307 0.26309 0.38992 0.0
H663 H 0.00044 0.20262 0.39898 0.0
H664 H 0.94839 0.27529 0.36451 0.0
H665 H 0.95483 0.2879 0.33854 0.0
loop_
_geom_bond_atom_site_label_1
_geom_bond_atom_site_label_2
_geom_bond_distance
_geom_bond_site_symmetry_2
_ccdc_geom_bond_type
Mn0 O5 2.095 . S
Mn0 O15 2.162 . S
Mn0 O16 2.297 1_545 S
Mn0 O24 2.385 1_545 S
Mn0 O25 2.209 1_455 S
Mn0 O26 2.094 . S
Mn1 O6 2.121 . S
Mn1 N8 2.257 1_455 S
Mn1 N17 2.282 1_455 S
Mn1 O25 2.215 1_455 S
Mn1 O27 2.117 . S
C2 O24 1.234 1_655 S
C2 O25 1.283 1_565 S
C3 O15 1.281 1_565 S
C3 O16 1.236 . S
C4 O26 1.240 . S
C4 O27 1.264 . S
O5 Mn0 2.095 . S
O5 C14 1.250 . S
O6 Mn1 2.121 . S
O6 C14 1.258 . S
C7 N8 1.326 . S
C7 C11 1.460 . S
C7 H13 0.929 . S
N8 Mn1 2.257 1_655 S
N8 C7 1.326 . S
N8 C12 1.362 . S
C9 C10 1.258 . S
C9 C12 1.431 . S
C9 C29 1.492 . S
C10 C9 1.258 . S
C10 C11 1.477 . S
C10 H30 0.931 . S
C11 C7 1.460 . S
C11 C10 1.477 . S
C11 H31 0.930 . S
C12 N8 1.362 . S
C12 C9 1.431 . S
C12 C22 1.476 . S
H13 C7 0.929 . S
C14 O5 1.250 . S
C14 O6 1.258 . S
O15 Mn0 2.162 . S
O15 C3 1.281 1_545 S
O16 Mn0 2.297 1_565 S
O16 C3 1.236 . S
N17 Mn1 2.282 1_655 S
N17 C18 1.328 1_655 S
N17 C22 1.318 . S
C18 N17 1.328 1_455 S
C18 C19 1.457 1_454 S
C18 H23 0.929 . S
C19 C18 1.457 1_656 S
C19 C20 1.291 . S
C19 H32 0.930 1_655 S
C20 C19 1.291 . S
C20 C21 1.373 . S
C20 H33 0.929 . S
C21 C20 1.373 . S
C21 C22 1.396 1_556 S
C21 C28 1.403 . S
C22 C12 1.476 . S
C22 N17 1.318 . S
C22 C21 1.396 1_554 S
H23 C18 0.929 . S
O24 Mn0 2.385 1_565 S
O24 C2 1.234 1_455 S
O25 Mn0 2.209 1_655 S
O25 Mn1 2.215 1_655 S
O25 C2 1.283 1_545 S
O26 Mn0 2.094 . S
O26 C4 1.240 . S
O27 Mn1 2.117 . S
O27 C4 1.264 . S
C28 C21 1.403 . S
C28 C29 1.367 1_556 S
C28 H34 0.929 . S
C29 C9 1.492 . S
C29 C28 1.367 1_554 S
C29 H35 0.921 1_554 S
H30 C10 0.931 . S
H31 C11 0.930 . S
H32 C19 0.930 1_455 S
H33 C20 0.929 . S
H34 C28 0.929 . S
H35 C29 0.921 1_556 S
Mn36 O41 2.095 . S
Mn36 O51 2.162 1_445 S
Mn36 O52 2.297 . S
Mn36 O60 2.385 . S
Mn36 O61 2.209 . S
Mn36 O62 2.094 1_455 S
Mn37 O42 2.121 . S
Mn37 N44 2.257 . S
Mn37 N53 2.282 . S
Mn37 O61 2.215 . S
Mn37 O63 2.117 1_455 S
C38 O60 1.234 . S
C38 O61 1.283 . S
C39 O51 1.281 1_455 S
C39 O52 1.236 1_565 S
C40 O62 1.240 . S
C40 O63 1.264 . S
O41 Mn36 2.095 . S
O41 C50 1.250 . S
O42 Mn37 2.121 . S
O42 C50 1.258 . S
C43 N44 1.326 . S
C43 C47 1.460 . S
C43 H49 0.929 . S
N44 Mn37 2.257 . S
N44 C43 1.326 . S
N44 C48 1.362 . S
C45 C46 1.258 . S
C45 C48 1.431 . S
C45 C65 1.449 . S
C46 C45 1.258 . S
C46 C47 1.477 . S
C46 H66 0.931 . S
C47 C43 1.460 . S
C47 C46 1.477 . S
C47 H67 0.930 . S
C48 N44 1.362 . S
C48 C45 1.431 . S
C48 C58 1.476 . S
H49 C43 0.929 . S
C50 O41 1.250 . S
C50 O42 1.258 . S
O51 Mn36 2.162 1_665 S
O51 C39 1.281 1_655 S
O52 Mn36 2.297 . S
O52 C39 1.236 1_545 S
N53 Mn37 2.282 . S
N53 C54 1.328 . S
N53 C58 1.318 . S
C54 N53 1.328 . S
C54 C55 1.457 . S
C54 H59 0.929 . S
C55 C54 1.457 . S
C55 C56 1.291 . S
C55 H68 0.931 . S
C56 C55 1.291 . S
C56 C57 1.373 . S
C56 H69 0.929 . S
C57 C56 1.373 . S
C57 C58 1.396 . S
C57 C64 1.403 . S
C58 C48 1.476 . S
C58 N53 1.318 . S
C58 C57 1.396 . S
H59 C54 0.929 . S
O60 Mn36 2.385 . S
O60 C38 1.234 . S
O61 Mn36 2.209 . S
O61 Mn37 2.215 . S
O61 C38 1.283 . S
O62 Mn36 2.094 1_655 S
O62 C40 1.240 . S
O63 Mn37 2.117 1_655 S
O63 C40 1.264 . S
C64 C57 1.403 . S
C64 C65 1.399 . S
C64 H70 0.929 . S
C65 C45 1.449 . S
C65 C64 1.399 . S
C65 H71 0.930 . S
H66 C46 0.931 . S
H67 C47 0.930 . S
H68 C55 0.931 . S
H69 C56 0.929 . S
H70 C64 0.929 . S
H71 C65 0.930 . S
Mn72 O77 2.095 1_455 S
Mn72 O87 2.162 . S
Mn72 O88 2.297 . S
Mn72 O96 2.385 . S
Mn72 O97 2.209 . S
Mn72 O98 2.094 1_445 S
Mn73 O78 2.121 . S
Mn73 N80 2.257 1_655 S
Mn73 N89 2.282 1_655 S
Mn73 O97 2.215 1_655 S
Mn73 O99 2.117 . S
C74 O96 1.234 . S
C74 O97 1.283 . S
C75 O87 1.281 . S
C75 O88 1.236 . S
C76 O98 1.240 . S
C76 O99 1.264 1_565 S
O77 Mn72 2.095 1_655 S
O77 C86 1.250 . S
O78 Mn73 2.121 . S
O78 C86 1.258 . S
C79 N80 1.326 . S
C79 C83 1.460 . S
C79 H85 0.929 1_455 S
N80 Mn73 2.257 1_455 S
N80 C79 1.326 . S
N80 C84 1.362 . S
C81 C82 1.258 . S
C81 C84 1.431 . S
C81 C101 1.449 . S
C82 C81 1.258 . S
C82 C83 1.477 . S
C82 H102 0.931 . S
C83 C79 1.460 . S
C83 C82 1.477 . S
C83 H103 0.930 . S
C84 N80 1.362 . S
C84 C81 1.431 . S
C84 C94 1.476 . S
H85 C79 0.929 1_655 S
C86 O77 1.250 . S
C86 O78 1.258 . S
O87 Mn72 2.162 . S
O87 C75 1.281 . S
O88 Mn72 2.297 . S
O88 C75 1.236 . S
N89 Mn73 2.282 1_455 S
N89 C90 1.328 . S
N89 C94 1.318 . S
C90 N89 1.328 . S
C90 C91 1.457 . S
C90 H95 0.929 . S
C91 C90 1.457 . S
C91 C92 1.291 . S
C91 H104 0.931 . S
C92 C91 1.291 . S
C92 C93 1.373 . S
C92 H105 0.929 . S
C93 C92 1.373 . S
C93 C94 1.396 . S
C93 C100 1.403 . S
C94 C84 1.476 . S
C94 N89 1.318 . S
C94 C93 1.396 . S
H95 C90 0.929 . S
O96 Mn72 2.385 . S
O96 C74 1.234 . S
O97 Mn72 2.209 . S
O97 Mn73 2.215 1_455 S
O97 C74 1.283 . S
O98 Mn72 2.094 1_665 S
O98 C76 1.240 . S
O99 Mn73 2.117 . S
O99 C76 1.264 1_545 S
C100 C93 1.403 . S
C100 C101 1.399 . S
C100 H106 0.929 . S
C101 C81 1.449 . S
C101 C100 1.399 . S
C101 H107 0.930 . S
H102 C82 0.931 . S
H103 C83 0.930 . S
H104 C91 0.931 . S
H105 C92 0.929 . S
H106 C100 0.929 . S
H107 C101 0.930 . S
C108 C109 1.560 1_655 S
C108 H169 0.959 . S
C108 H170 0.959 . S
C108 H171 0.960 . S
C109 C108 1.560 1_455 S
C109 O164 1.426 1_455 S
C109 H168 0.980 . S
C110 C111 1.407 1_655 S
C110 C115 1.418 . S
C110 O164 1.334 . S
C111 C110 1.407 1_455 S
C111 C112 1.360 . S
C111 H172 0.929 . S
C112 C111 1.360 . S
C112 C113 1.401 . S
C112 C116 1.527 . S
C113 C112 1.401 . S
C113 C114 1.405 1_455 S
C113 C146 1.587 . S
C114 C113 1.405 1_655 S
C114 C115 1.332 . S
C114 C117 1.496 . S
C115 C110 1.418 . S
C115 C114 1.332 . S
C115 H173 0.929 . S
C116 C112 1.527 . S
C116 H174 0.959 . S
C116 H175 0.961 . S
C116 H176 0.961 . S
C117 C114 1.496 . S
C117 H177 0.960 . S
C117 H178 0.960 . S
C117 H179 0.961 . S
C118 C119 1.517 . S
C118 H181 0.961 . S
C118 H182 0.960 . S
C118 H183 0.959 . S
C119 C118 1.517 . S
C119 O167 1.468 . S
C119 H180 0.980 . S
C120 C121 1.349 . S
C120 C125 1.367 . S
C120 O167 1.408 . S
C121 C120 1.349 . S
C121 C122 1.407 . S
C121 H184 0.930 . S
C122 C121 1.407 . S
C122 C123 1.449 . S
C122 C126 1.535 1_455 S
C123 C122 1.449 . S
C123 C124 1.384 . S
C123 C148 1.553 . S
C124 C123 1.384 . S
C124 C125 1.364 . S
C124 C127 1.450 . S
C125 C120 1.367 . S
C125 C124 1.364 . S
C125 H185 0.931 . S
C126 C122 1.535 1_655 S
C126 H186 0.959 . S
C126 H187 0.961 . S
C126 H188 0.959 . S
C127 C124 1.450 . S
C127 H189 0.960 . S
C127 H190 0.960 . S
C127 H191 0.960 . S
C128 C129 1.309 . S
C128 C133 1.304 . S
C128 O166 1.435 . S
C129 C128 1.309 . S
C129 C130 1.476 . S
C129 H193 0.930 . S
C130 C129 1.476 . S
C130 C131 1.400 . S
C130 C134 1.567 1_455 S
C131 C130 1.400 . S
C131 C132 1.373 . S
C131 C153 1.432 . S
C132 C131 1.373 . S
C132 C133 1.339 . S
C132 C135 1.530 . S
C133 C128 1.304 . S
C133 C132 1.339 . S
C133 H194 0.930 . S
C134 C130 1.567 1_655 S
C134 H195 0.961 . S
C134 H196 0.960 . S
C134 H197 0.958 . S
C135 C132 1.530 . S
C135 H198 0.961 . S
C135 H199 0.960 . S
C135 H200 0.960 . S
C136 C137 1.530 1_655 S
C136 H202 0.961 1_655 S
C136 H203 0.961 . S
C136 H204 0.959 . S
C137 C136 1.530 1_455 S
C137 O165 1.412 1_455 S
C137 H201 0.980 . S
C138 C139 1.288 1_455 S
C138 C143 1.377 . S
C138 O165 1.393 1_455 S
C139 C138 1.288 1_655 S
C139 C140 1.369 . S
C139 H205 0.932 . S
C140 C139 1.369 . S
C140 C141 1.398 1_655 S
C140 C144 1.527 . S
C141 C140 1.398 1_455 S
C141 C142 1.380 . S
C141 C155 1.497 . S
C142 C141 1.380 . S
C142 C143 1.383 . S
C142 C145 1.603 . S
C143 C138 1.377 . S
C143 C142 1.383 . S
C143 H206 0.929 . S
C144 C140 1.527 . S
C144 H207 0.961 . S
C144 H208 0.959 . S
C144 H209 0.959 . S
C145 C142 1.603 . S
C145 H210 0.960 . S
C145 H211 0.962 . S
C145 H212 0.961 . S
C146 C113 1.587 . S
C146 C147 1.360 . S
C146 C159 1.412 . S
C147 C146 1.360 . S
C147 C148 1.365 . S
C147 H213 0.929 . S
C148 C123 1.553 . S
C148 C147 1.365 . S
C148 C149 1.404 . S
C149 C148 1.404 . S
C149 C150 1.395 . S
C149 C160 1.451 . S
C150 C149 1.395 . S
C150 C151 1.322 . S
C150 H214 0.930 . S
C151 C150 1.322 . S
C151 C152 1.459 . S
C151 H215 0.929 . S
C152 C151 1.459 . S
C152 C153 1.445 . S
C152 C161 1.395 . S
C153 C131 1.432 . S
C153 C152 1.445 . S
C153 C154 1.370 . S
C154 C153 1.370 . S
C154 C155 1.438 . S
C154 H216 0.930 . S
C155 C141 1.497 . S
C155 C154 1.438 . S
C155 C156 1.360 . S
C156 C155 1.360 . S
C156 C157 1.401 . S
C156 C161 1.446 . S
C157 C156 1.401 . S
C157 C158 1.347 . S
C157 H217 0.929 . S
C158 C157 1.347 . S
C158 C159 1.455 . S
C158 H218 0.930 . S
C159 C146 1.412 . S
C159 C158 1.455 . S
C159 C160 1.331 . S
C160 C149 1.451 . S
C160 C159 1.331 . S
C160 C161 1.497 . S
C161 C152 1.395 . S
C161 C156 1.446 . S
C161 C160 1.497 . S
C162 C163 1.582 . S
C162 H219 0.962 . S
C162 H220 0.959 . S
C162 H221 0.958 . S
C163 C162 1.582 . S
C163 O166 1.458 . S
C163 H192 0.980 . S
O164 C109 1.426 1_655 S
O164 C110 1.334 . S
O165 C137 1.412 1_655 S
O165 C138 1.393 1_655 S
O166 C128 1.435 . S
O166 C163 1.458 . S
O167 C119 1.468 . S
O167 C120 1.408 . S
H168 C109 0.980 . S
H169 C108 0.959 . S
H170 C108 0.959 . S
H171 C108 0.960 . S
H172 C111 0.929 . S
H173 C115 0.929 . S
H174 C116 0.959 . S
H175 C116 0.961 . S
H176 C116 0.961 . S
H177 C117 0.960 . S
H178 C117 0.960 . S
H179 C117 0.961 . S
H180 C119 0.980 . S
H181 C118 0.961 . S
H182 C118 0.960 . S
H183 C118 0.959 . S
H184 C121 0.930 . S
H185 C125 0.931 . S
H186 C126 0.959 . S
H187 C126 0.961 . S
H188 C126 0.959 . S
H189 C127 0.960 . S
H190 C127 0.960 . S
H191 C127 0.960 . S
H192 C163 0.980 . S
H193 C129 0.930 . S
H194 C133 0.930 . S
H195 C134 0.961 . S
H196 C134 0.960 . S
H197 C134 0.958 . S
H198 C135 0.961 . S
H199 C135 0.960 . S
H200 C135 0.960 . S
H201 C137 0.980 . S
H202 C136 0.961 1_455 S
H203 C136 0.961 . S
H204 C136 0.959 . S
H205 C139 0.932 . S
H206 C143 0.929 . S
H207 C144 0.961 . S
H208 C144 0.959 . S
H209 C144 0.959 . S
H210 C145 0.960 . S
H211 C145 0.962 . S
H212 C145 0.961 . S
H213 C147 0.929 . S
H214 C150 0.930 . S
H215 C151 0.929 . S
H216 C154 0.930 . S
H217 C157 0.929 . S
H218 C158 0.930 . S
H219 C162 0.962 . S
H220 C162 0.959 . S
H221 C162 0.958 . S
C222 C223 1.560 . S
C222 H283 0.959 . S
C222 H284 0.959 1_545 S
C222 H285 0.960 . S
C223 C222 1.560 . S
C223 O278 1.426 . S
C223 H282 0.980 . S
C224 C225 1.407 . S
C224 C229 1.418 . S
C224 O278 1.334 . S
C225 C224 1.407 . S
C225 C226 1.360 . S
C225 H286 0.929 . S
C226 C225 1.360 . S
C226 C227 1.401 . S
C226 C230 1.527 . S
C227 C226 1.401 . S
C227 C228 1.405 . S
C227 C260 1.587 . S
C228 C227 1.405 . S
C228 C229 1.332 . S
C228 C231 1.496 1_545 S
C229 C224 1.418 . S
C229 C228 1.332 . S
C229 H287 0.929 1_545 S
C230 C226 1.527 . S
C230 H288 0.959 . S
C230 H289 0.961 . S
C230 H290 0.961 . S
C231 C228 1.496 1_565 S
C231 H291 0.960 . S
C231 H292 0.960 1_565 S
C231 H293 0.961 1_565 S
C232 C233 1.517 . S
C232 H295 0.961 . S
C232 H296 0.960 . S
C232 H297 0.959 . S
C233 C232 1.517 . S
C233 O281 1.468 . S
C233 H294 0.980 . S
C234 C235 1.349 . S
C234 C239 1.367 . S
C234 O281 1.408 . S
C235 C234 1.349 . S
C235 C236 1.407 . S
C235 H298 0.930 . S
C236 C235 1.407 . S
C236 C237 1.449 . S
C236 C240 1.535 . S
C237 C236 1.449 . S
C237 C238 1.384 . S
C237 C262 1.553 . S
C238 C237 1.384 . S
C238 C239 1.364 . S
C238 C241 1.450 . S
C239 C234 1.367 . S
C239 C238 1.364 . S
C239 H299 0.931 . S
C240 C236 1.535 . S
C240 H300 0.959 . S
C240 H301 0.961 . S
C240 H302 0.959 . S
C241 C238 1.450 . S
C241 H303 0.960 . S
C241 H304 0.960 . S
C241 H305 0.960 . S
C242 C243 1.309 . S
C242 C247 1.304 . S
C242 O280 1.435 . S
C243 C242 1.309 . S
C243 C244 1.476 . S
C243 H307 0.930 . S
C244 C243 1.476 . S
C244 C245 1.400 . S
C244 C248 1.567 . S
C245 C244 1.400 . S
C245 C246 1.373 . S
C245 C267 1.432 . S
C246 C245 1.373 . S
C246 C247 1.339 . S
C246 C249 1.530 . S
C247 C242 1.304 . S
C247 C246 1.339 . S
C247 H308 0.930 . S
C248 C244 1.567 . S
C248 H309 0.961 . S
C248 H310 0.960 . S
C248 H311 0.958 . S
C249 C246 1.530 . S
C249 H312 0.961 . S
C249 H313 0.960 . S
C249 H314 0.960 . S
C250 C251 1.530 . S
C250 H316 0.961 . S
C250 H317 0.961 . S
C250 H318 0.959 . S
C251 C250 1.530 . S
C251 O279 1.412 . S
C251 H315 0.980 . S
C252 C253 1.288 . S
C252 C257 1.377 . S
C252 O279 1.393 . S
C253 C252 1.288 . S
C253 C254 1.369 . S
C253 H319 0.932 1_545 S
C254 C253 1.369 . S
C254 C255 1.398 . S
C254 C258 1.527 1_545 S
C255 C254 1.398 . S
C255 C256 1.380 . S
C255 C269 1.497 . S
C256 C255 1.380 . S
C256 C257 1.383 . S
C256 C259 1.603 . S
C257 C252 1.377 . S
C257 C256 1.383 . S
C257 H320 0.929 . S
C258 C254 1.527 1_565 S
C258 H321 0.961 . S
C258 H322 0.959 . S
C258 H323 0.959 . S
C259 C256 1.603 . S
C259 H324 0.960 . S
C259 H325 0.962 . S
C259 H326 0.961 . S
C260 C227 1.587 . S
C260 C261 1.360 . S
C260 C273 1.412 . S
C261 C260 1.360 . S
C261 C262 1.365 . S
C261 H327 0.929 . S
C262 C237 1.553 . S
C262 C261 1.365 . S
C262 C263 1.404 . S
C263 C262 1.404 . S
C263 C264 1.395 . S
C263 C274 1.451 . S
C264 C263 1.395 . S
C264 C265 1.322 . S
C264 H328 0.930 . S
C265 C264 1.322 . S
C265 C266 1.459 . S
C265 H329 0.929 . S
C266 C265 1.459 . S
C266 C267 1.445 . S
C266 C275 1.395 . S
C267 C245 1.432 . S
C267 C266 1.445 . S
C267 C268 1.370 . S
C268 C267 1.370 . S
C268 C269 1.438 . S
C268 H330 0.930 . S
C269 C255 1.497 . S
C269 C268 1.438 . S
C269 C270 1.360 . S
C270 C269 1.360 . S
C270 C271 1.401 . S
C270 C275 1.446 . S
C271 C270 1.401 . S
C271 C272 1.347 . S
C271 H331 0.929 . S
C272 C271 1.347 . S
C272 C273 1.455 . S
C272 H332 0.930 . S
C273 C260 1.412 . S
C273 C272 1.455 . S
C273 C274 1.331 . S
C274 C263 1.451 . S
C274 C273 1.331 . S
C274 C275 1.497 . S
C275 C266 1.395 . S
C275 C270 1.446 . S
C275 C274 1.497 . S
C276 C277 1.582 . S
C276 H333 0.962 . S
C276 H334 0.959 . S
C276 H335 0.958 . S
C277 C276 1.582 . S
C277 O280 1.458 . S
C277 H306 0.980 . S
O278 C223 1.426 . S
O278 C224 1.334 . S
O279 C251 1.412 . S
O279 C252 1.393 . S
O280 C242 1.435 . S
O280 C277 1.458 . S
O281 C233 1.468 . S
O281 C234 1.408 . S
H282 C223 0.980 . S
H283 C222 0.959 . S
H284 C222 0.959 1_565 S
H285 C222 0.960 . S
H286 C225 0.929 . S
H287 C229 0.929 1_565 S
H288 C230 0.959 . S
H289 C230 0.961 . S
H290 C230 0.961 . S
H291 C231 0.960 . S
H292 C231 0.960 1_545 S
H293 C231 0.961 1_545 S
H294 C233 0.980 . S
H295 C232 0.961 . S
H296 C232 0.960 . S
H297 C232 0.959 . S
H298 C235 0.930 . S
H299 C239 0.931 . S
H300 C240 0.959 . S
H301 C240 0.961 . S
H302 C240 0.959 . S
H303 C241 0.960 . S
H304 C241 0.960 . S
H305 C241 0.960 . S
H306 C277 0.980 . S
H307 C243 0.930 . S
H308 C247 0.930 . S
H309 C248 0.961 . S
H310 C248 0.960 . S
H311 C248 0.958 . S
H312 C249 0.961 . S
H313 C249 0.960 . S
H314 C249 0.960 . S
H315 C251 0.980 . S
H316 C250 0.961 . S
H317 C250 0.961 . S
H318 C250 0.959 . S
H319 C253 0.932 1_565 S
H320 C257 0.929 . S
H321 C258 0.961 . S
H322 C258 0.959 . S
H323 C258 0.959 . S
H324 C259 0.960 . S
H325 C259 0.962 . S
H326 C259 0.961 . S
H327 C261 0.929 . S
H328 C264 0.930 . S
H329 C265 0.929 . S
H330 C268 0.930 . S
H331 C271 0.929 . S
H332 C272 0.930 . S
H333 C276 0.962 . S
H334 C276 0.959 . S
H335 C276 0.958 . S
C336 C337 1.560 . S
C336 H397 0.959 . S
C336 H398 0.959 . S
C336 H399 0.960 . S
C337 C336 1.560 . S
C337 O392 1.426 . S
C337 H396 0.980 . S
C338 C339 1.407 . S
C338 C343 1.418 . S
C338 O392 1.334 . S
C339 C338 1.407 . S
C339 C340 1.360 . S
C339 H400 0.929 . S
C340 C339 1.360 . S
C340 C341 1.401 . S
C340 C344 1.527 . S
C341 C340 1.401 . S
C341 C342 1.405 . S
C341 C374 1.587 . S
C342 C341 1.405 . S
C342 C343 1.332 . S
C342 C345 1.496 . S
C343 C338 1.418 . S
C343 C342 1.332 . S
C343 H401 0.929 . S
C344 C340 1.527 . S
C344 H402 0.959 . S
C344 H403 0.961 . S
C344 H404 0.961 . S
C345 C342 1.496 . S
C345 H405 0.960 . S
C345 H406 0.960 . S
C345 H407 0.961 . S
C346 C347 1.517 . S
C346 H409 0.961 . S
C346 H410 0.960 . S
C346 H411 0.959 . S
C347 C346 1.517 . S
C347 O395 1.468 . S
C347 H408 0.980 . S
C348 C349 1.349 . S
C348 C353 1.367 . S
C348 O395 1.408 . S
C349 C348 1.349 . S
C349 C350 1.407 . S
C349 H412 0.930 . S
C350 C349 1.407 . S
C350 C351 1.449 . S
C350 C354 1.535 . S
C351 C350 1.449 . S
C351 C352 1.384 . S
C351 C376 1.553 . S
C352 C351 1.384 . S
C352 C353 1.364 . S
C352 C355 1.450 . S
C353 C348 1.367 . S
C353 C352 1.364 . S
C353 H413 0.931 . S
C354 C350 1.535 . S
C354 H414 0.959 . S
C354 H415 0.961 . S
C354 H416 0.959 . S
C355 C352 1.450 . S
C355 H417 0.960 . S
C355 H418 0.960 . S
C355 H419 0.960 . S
C356 C357 1.309 . S
C356 C361 1.304 . S
C356 O394 1.435 . S
C357 C356 1.309 . S
C357 C358 1.476 . S
C357 H421 0.930 . S
C358 C357 1.476 . S
C358 C359 1.400 . S
C358 C362 1.567 . S
C359 C358 1.400 . S
C359 C360 1.373 . S
C359 C381 1.432 . S
C360 C359 1.373 . S
C360 C361 1.339 . S
C360 C363 1.530 . S
C361 C356 1.304 . S
C361 C360 1.339 . S
C361 H422 0.930 . S
C362 C358 1.567 . S
C362 H423 0.961 . S
C362 H424 0.960 . S
C362 H425 0.958 . S
C363 C360 1.530 . S
C363 H426 0.961 . S
C363 H427 0.960 . S
C363 H428 0.960 . S
C364 C365 1.530 1_554 S
C364 H430 0.961 . S
C364 H431 0.961 1_554 S
C364 H432 0.959 . S
C365 C364 1.530 1_556 S
C365 O393 1.412 . S
C365 H429 0.980 . S
C366 C367 1.288 . S
C366 C371 1.377 . S
C366 O393 1.393 . S
C367 C366 1.288 . S
C367 C368 1.369 . S
C367 H433 0.932 . S
C368 C367 1.369 . S
C368 C369 1.398 . S
C368 C372 1.527 . S
C369 C368 1.398 . S
C369 C370 1.380 . S
C369 C383 1.497 . S
C370 C369 1.380 . S
C370 C371 1.383 . S
C370 C373 1.603 . S
C371 C366 1.377 . S
C371 C370 1.383 . S
C371 H434 0.929 . S
C372 C368 1.527 . S
C372 H435 0.961 . S
C372 H436 0.959 . S
C372 H437 0.959 . S
C373 C370 1.603 . S
C373 H438 0.960 . S
C373 H439 0.962 . S
C373 H440 0.961 . S
C374 C341 1.587 . S
C374 C375 1.360 . S
C374 C387 1.412 . S
C375 C374 1.360 . S
C375 C376 1.365 . S
C375 H441 0.929 . S
C376 C351 1.553 . S
C376 C375 1.365 . S
C376 C377 1.404 . S
C377 C376 1.404 . S
C377 C378 1.395 . S
C377 C388 1.451 . S
C378 C377 1.395 . S
C378 C379 1.322 . S
C378 H442 0.930 . S
C379 C378 1.322 . S
C379 C380 1.459 . S
C379 H443 0.929 . S
C380 C379 1.459 . S
C380 C381 1.445 . S
C380 C389 1.395 . S
C381 C359 1.432 . S
C381 C380 1.445 . S
C381 C382 1.370 . S
C382 C381 1.370 . S
C382 C383 1.438 . S
C382 H444 0.930 . S
C383 C369 1.497 . S
C383 C382 1.438 . S
C383 C384 1.360 . S
C384 C383 1.360 . S
C384 C385 1.401 . S
C384 C389 1.446 . S
C385 C384 1.401 . S
C385 C386 1.347 . S
C385 H445 0.929 . S
C386 C385 1.347 . S
C386 C387 1.455 . S
C386 H446 0.930 . S
C387 C374 1.412 . S
C387 C386 1.455 . S
C387 C388 1.331 . S
C388 C377 1.451 . S
C388 C387 1.331 . S
C388 C389 1.497 . S
C389 C380 1.395 . S
C389 C384 1.446 . S
C389 C388 1.497 . S
C390 C391 1.580 . S
C390 H447 0.964 1_556 S
C390 H448 0.957 . S
C390 H449 0.960 1_556 S
C391 C390 1.580 . S
C391 O394 1.458 . S
C391 H420 0.980 . S
O392 C337 1.426 . S
O392 C338 1.334 . S
O393 C365 1.412 . S
O393 C366 1.393 . S
O394 C356 1.435 . S
O394 C391 1.458 . S
O395 C347 1.468 . S
O395 C348 1.408 . S
H396 C337 0.980 . S
H397 C336 0.959 . S
H398 C336 0.959 . S
H399 C336 0.960 . S
H400 C339 0.929 . S
H401 C343 0.929 . S
H402 C344 0.959 . S
H403 C344 0.961 . S
H404 C344 0.961 . S
H405 C345 0.960 . S
H406 C345 0.960 . S
H407 C345 0.961 . S
H408 C347 0.980 . S
H409 C346 0.961 . S
H410 C346 0.960 . S
H411 C346 0.959 . S
H412 C349 0.930 . S
H413 C353 0.931 . S
H414 C354 0.959 . S
H415 C354 0.961 . S
H416 C354 0.959 . S
H417 C355 0.960 . S
H418 C355 0.960 . S
H419 C355 0.960 . S
H420 C391 0.980 . S
H421 C357 0.930 . S
H422 C361 0.930 . S
H423 C362 0.961 . S
H424 C362 0.960 . S
H425 C362 0.958 . S
H426 C363 0.961 . S
H427 C363 0.960 . S
H428 C363 0.960 . S
H429 C365 0.980 . S
H430 C364 0.961 . S
H431 C364 0.961 1_556 S
H432 C364 0.959 . S
H433 C367 0.932 . S
H434 C371 0.929 . S
H435 C372 0.961 . S
H436 C372 0.959 . S
H437 C372 0.959 . S
H438 C373 0.960 . S
H439 C373 0.962 . S
H440 C373 0.961 . S
H441 C375 0.929 . S
H442 C378 0.930 . S
H443 C379 0.929 . S
H444 C382 0.930 . S
H445 C385 0.929 . S
H446 C386 0.930 . S
H447 C390 0.964 1_554 S
H448 C390 0.957 . S
H449 C390 0.960 1_554 S
C450 C451 1.363 . S
C450 C456 1.379 . S
C450 N458 1.356 . S
C451 C450 1.363 . S
C451 C457 1.363 1_455 S
C452 C453 1.363 1_655 S
C452 C457 1.379 . S
C452 N459 1.356 . S
C453 C452 1.363 1_455 S
C453 C456 1.363 . S
N454 C456 1.356 . S
N454 H466 0.984 . S
N454 H467 0.985 . S
N455 C457 1.356 . S
N455 H460 0.984 . S
N455 H461 0.985 . S
C456 C450 1.379 . S
C456 C453 1.363 . S
C456 N454 1.356 . S
C457 C451 1.363 1_655 S
C457 C452 1.379 . S
C457 N455 1.356 . S
N458 C450 1.356 . S
N458 H464 0.984 . S
N458 H465 0.984 . S
N459 C452 1.356 . S
N459 H462 0.984 . S
N459 H463 0.985 . S
H460 N455 0.984 . S
H461 N455 0.985 . S
H462 N459 0.984 . S
H463 N459 0.985 . S
H464 N458 0.984 . S
H465 N458 0.984 . S
H466 N454 0.984 . S
H467 N454 0.985 . S
C468 C469 1.363 . S
C468 C474 1.379 . S
C468 N476 1.356 1_545 S
C469 C468 1.363 . S
C469 C475 1.363 . S
C470 C471 1.363 . S
C470 C475 1.379 . S
C470 N477 1.356 . S
C471 C470 1.363 . S
C471 C474 1.363 . S
N472 C474 1.356 1_565 S
N472 H484 0.984 . S
N472 H485 0.985 1_565 S
N473 C475 1.356 . S
N473 H478 0.984 . S
N473 H479 0.985 1_655 S
C474 C468 1.379 . S
C474 C471 1.363 . S
C474 N472 1.356 1_545 S
C475 C469 1.363 . S
C475 C470 1.379 . S
C475 N473 1.356 . S
N476 C468 1.356 1_565 S
N476 H482 0.984 . S
N476 H483 0.984 . S
N477 C470 1.356 . S
N477 H480 0.984 . S
N477 H481 0.985 . S
H478 N473 0.984 . S
H479 N473 0.985 1_455 S
H480 N477 0.984 . S
H481 N477 0.985 . S
H482 N476 0.984 . S
H483 N476 0.984 . S
H484 N472 0.984 . S
H485 N472 0.985 1_545 S
C486 C487 1.363 . S
C486 C492 1.379 . S
C486 N494 1.356 . S
C487 C486 1.363 . S
C487 C493 1.363 . S
C488 C489 1.363 . S
C488 C493 1.379 . S
C488 N495 1.356 . S
C489 C488 1.363 . S
C489 C492 1.363 . S
N490 C492 1.356 . S
N490 H502 0.984 . S
N490 H503 0.985 . S
N491 C493 1.356 . S
N491 H496 0.984 . S
N491 H497 0.985 . S
C492 C486 1.379 . S
C492 C489 1.363 . S
C492 N490 1.356 . S
C493 C487 1.363 . S
C493 C488 1.379 . S
C493 N491 1.356 . S
N494 C486 1.356 . S
N494 H500 0.984 1_655 S
N494 H501 0.984 1_655 S
N495 C488 1.356 . S
N495 H498 0.984 . S
N495 H499 0.985 . S
H496 N491 0.984 . S
H497 N491 0.985 . S
H498 N495 0.984 . S
H499 N495 0.985 . S
H500 N494 0.984 1_455 S
H501 N494 0.984 1_455 S
H502 N490 0.984 . S
H503 N490 0.985 . S
C504 C505 1.363 . S
C504 C510 1.379 . S
C504 N512 1.356 1_455 S
C505 C504 1.363 . S
C505 C511 1.363 . S
C506 C507 1.363 . S
C506 C511 1.379 . S
C506 N513 1.356 . S
C507 C506 1.363 . S
C507 C510 1.363 . S
N508 C510 1.356 1_655 S
N508 H520 0.984 . S
N508 H521 0.985 . S
N509 C511 1.356 . S
N509 H514 0.984 1_565 S
N509 H515 0.985 . S
C510 C504 1.379 . S
C510 C507 1.363 . S
C510 N508 1.356 1_455 S
C511 C505 1.363 . S
C511 C506 1.379 . S
C511 N509 1.356 . S
N512 C504 1.356 1_655 S
N512 H518 0.984 . S
N512 H519 0.984 . S
N513 C506 1.356 . S
N513 H516 0.984 . S
N513 H517 0.985 . S
H514 N509 0.984 1_545 S
H515 N509 0.985 . S
H516 N513 0.984 . S
H517 N513 0.985 . S
H518 N512 0.984 . S
H519 N512 0.984 . S
H520 N508 0.984 . S
H521 N508 0.985 . S
C522 C523 1.363 . S
C522 C528 1.379 . S
C522 N530 1.356 . S
C523 C522 1.363 . S
C523 C529 1.363 . S
C524 C525 1.363 . S
C524 C529 1.379 . S
C524 N531 1.356 . S
C525 C524 1.363 . S
C525 C528 1.363 . S
N526 C528 1.356 . S
N526 H538 0.984 . S
N526 H539 0.985 . S
N527 C529 1.356 . S
N527 H532 0.984 . S
N527 H533 0.985 1_545 S
C528 C522 1.379 . S
C528 C525 1.363 . S
C528 N526 1.356 . S
C529 C523 1.363 . S
C529 C524 1.379 . S
C529 N527 1.356 . S
N530 C522 1.356 . S
N530 H536 0.984 . S
N530 H537 0.984 . S
N531 C524 1.356 . S
N531 H534 0.984 . S
N531 H535 0.985 . S
H532 N527 0.984 . S
H533 N527 0.985 1_565 S
H534 N531 0.984 . S
H535 N531 0.985 . S
H536 N530 0.984 . S
H537 N530 0.984 . S
H538 N526 0.984 . S
H539 N526 0.985 . S
C540 C541 1.363 . S
C540 C546 1.379 . S
C540 N548 1.356 . S
C541 C540 1.363 . S
C541 C547 1.363 . S
C542 C543 1.363 . S
C542 C547 1.379 . S
C542 N549 1.356 . S
C543 C542 1.363 . S
C543 C546 1.363 . S
N544 C546 1.356 . S
N544 H556 0.984 . S
N544 H557 0.985 . S
N545 C547 1.356 . S
N545 H550 0.984 . S
N545 H551 0.985 . S
C546 C540 1.379 . S
C546 C543 1.363 . S
C546 N544 1.356 . S
C547 C541 1.363 . S
C547 C542 1.379 . S
C547 N545 1.356 . S
N548 C540 1.356 . S
N548 H554 0.984 . S
N548 H555 0.984 . S
N549 C542 1.356 . S
N549 H552 0.984 . S
N549 H553 0.985 . S
H550 N545 0.984 . S
H551 N545 0.985 . S
H552 N549 0.984 . S
H553 N549 0.985 . S
H554 N548 0.984 . S
H555 N548 0.984 . S
H556 N544 0.984 . S
H557 N544 0.985 . S
C558 C559 1.363 . S
C558 C564 1.379 . S
C558 N566 1.356 . S
C559 C558 1.363 . S
C559 C565 1.363 . S
C560 C561 1.363 . S
C560 C565 1.379 . S
C560 N567 1.356 . S
C561 C560 1.363 . S
C561 C564 1.363 . S
N562 C564 1.356 . S
N562 H574 0.984 1_545 S
N562 H575 0.985 . S
N563 C565 1.356 . S
N563 H568 0.984 . S
N563 H569 0.985 . S
C564 C558 1.379 . S
C564 C561 1.363 . S
C564 N562 1.356 . S
C565 C559 1.363 . S
C565 C560 1.379 . S
C565 N563 1.356 . S
N566 C558 1.356 . S
N566 H572 0.984 1_545 S
N566 H573 0.984 . S
N567 C560 1.356 . S
N567 H570 0.984 . S
N567 H571 0.985 . S
H568 N563 0.984 . S
H569 N563 0.985 . S
H570 N567 0.984 . S
H571 N567 0.985 . S
H572 N566 0.984 1_565 S
H573 N566 0.984 . S
H574 N562 0.984 1_565 S
H575 N562 0.985 . S
C576 C577 1.363 . S
C576 C582 1.379 . S
C576 N584 1.356 . S
C577 C576 1.363 . S
C577 C583 1.363 . S
C578 C579 1.363 . S
C578 C583 1.379 . S
C578 N585 1.353 1_554 S
C579 C578 1.363 . S
C579 C582 1.363 . S
N580 C582 1.356 . S
N580 H592 0.984 . S
N580 H593 0.985 . S
N581 C583 1.356 1_545 S
N581 H586 0.984 . S
N581 H587 0.985 . S
C582 C576 1.379 . S
C582 C579 1.363 . S
C582 N580 1.356 . S
C583 C577 1.363 . S
C583 C578 1.379 . S
C583 N581 1.356 1_565 S
N584 C576 1.356 . S
N584 H590 0.984 . S
N584 H591 0.984 . S
N585 C578 1.353 1_556 S
N585 H588 0.987 . S
N585 H589 0.985 . S
H586 N581 0.984 . S
H587 N581 0.985 . S
H588 N585 0.987 . S
H589 N585 0.985 . S
H590 N584 0.984 . S
H591 N584 0.984 . S
H592 N580 0.984 . S
H593 N580 0.985 . S
C594 C595 1.363 . S
C594 C600 1.379 . S
C594 N602 1.356 . S
C595 C594 1.363 . S
C595 C601 1.363 . S
C596 C597 1.363 . S
C596 C601 1.379 . S
C596 N603 1.356 . S
C597 C596 1.363 . S
C597 C600 1.363 . S
N598 C600 1.356 . S
N598 H610 0.984 . S
N598 H611 0.985 . S
N599 C601 1.356 . S
N599 H604 0.984 1_565 S
N599 H605 0.985 . S
C600 C594 1.379 . S
C600 C597 1.363 . S
C600 N598 1.356 . S
C601 C595 1.363 . S
C601 C596 1.379 . S
C601 N599 1.356 . S
N602 C594 1.356 . S
N602 H608 0.984 . S
N602 H609 0.984 . S
N603 C596 1.356 . S
N603 H606 0.984 . S
N603 H607 0.985 . S
H604 N599 0.984 1_545 S
H605 N599 0.985 . S
H606 N603 0.984 . S
H607 N603 0.985 . S
H608 N602 0.984 . S
H609 N602 0.984 . S
H610 N598 0.984 . S
H611 N598 0.985 . S
C612 C613 1.363 . S
C612 C618 1.379 . S
C612 N620 1.356 . S
C613 C612 1.363 . S
C613 C619 1.363 . S
C614 C615 1.363 . S
C614 C619 1.379 . S
C614 N621 1.356 1_545 S
C615 C614 1.363 . S
C615 C618 1.363 . S
N616 C618 1.356 . S
N616 H628 0.984 . S
N616 H629 0.985 . S
N617 C619 1.356 1_565 S
N617 H622 0.984 . S
N617 H623 0.985 . S
C618 C612 1.379 . S
C618 C615 1.363 . S
C618 N616 1.356 . S
C619 C613 1.363 . S
C619 C614 1.379 . S
C619 N617 1.356 1_545 S
N620 C612 1.356 . S
N620 H626 0.984 . S
N620 H627 0.984 . S
N621 C614 1.356 1_565 S
N621 H624 0.984 1_565 S
N621 H625 0.985 . S
H622 N617 0.984 . S
H623 N617 0.985 . S
H624 N621 0.984 1_545 S
H625 N621 0.985 . S
H626 N620 0.984 . S
H627 N620 0.984 . S
H628 N616 0.984 . S
H629 N616 0.985 . S
C630 C631 1.363 . S
C630 C636 1.379 . S
C630 N638 1.356 . S
C631 C630 1.363 . S
C631 C637 1.363 . S
C632 C633 1.360 1_556 S
C632 C637 1.350 1_556 S
C632 N639 1.393 . S
C633 C632 1.360 1_554 S
C633 C636 1.363 . S
N634 C636 1.356 . S
N634 H646 0.984 . S
N634 H647 0.985 . S
N635 C637 1.356 . S
N635 H640 0.984 . S
N635 H641 0.985 . S
C636 C630 1.379 . S
C636 C633 1.363 . S
C636 N634 1.356 . S
C637 C631 1.363 . S
C637 C632 1.350 1_554 S
C637 N635 1.356 . S
N638 C630 1.356 . S
N638 H644 0.984 . S
N638 H645 0.984 . S
N639 C632 1.393 . S
N639 H642 0.984 . S
N639 H643 0.985 . S
H640 N635 0.984 . S
H641 N635 0.985 . S
H642 N639 0.984 . S
H643 N639 0.985 . S
H644 N638 0.984 . S
H645 N638 0.984 . S
H646 N634 0.984 . S
H647 N634 0.985 . S
C648 C649 1.363 . S
C648 C654 1.379 . S
C648 N656 1.356 . S
C649 C648 1.363 . S
C649 C655 1.363 . S
C650 C651 1.363 . S
C650 C655 1.379 . S
C650 N657 1.356 . S
C651 C650 1.363 . S
C651 C654 1.363 . S
N652 C654 1.356 . S
N652 H664 0.984 . S
N652 H665 0.985 . S
N653 C655 1.356 . S
N653 H658 0.984 . S
N653 H659 0.985 . S
C654 C648 1.379 . S
C654 C651 1.363 . S
C654 N652 1.356 . S
C655 C649 1.363 . S
C655 C650 1.379 . S
C655 N653 1.356 . S
N656 C648 1.356 . S
N656 H662 0.984 . S
N656 H663 0.984 . S
N657 C650 1.356 . S
N657 H660 0.984 . S
N657 H661 0.985 . S
H658 N653 0.984 . S
H659 N653 0.985 . S
H660 N657 0.984 . S
H661 N657 0.985 . S
H662 N656 0.984 . S
H663 N656 0.984 . S
H664 N652 0.984 . S
H665 N652 0.985 . S
C453 C163 1.162 . S
C451 C14 1.531 . S
C469 C40 1.554 . S
C471 C277 1.224 . S
C487 C76 1.341 . S
C489 C337 1.059 . S
C505 C3 1.417 . S
C507 C137 1.116 . S
C525 C251 1.118 . S
C523 C38 1.480 . S
C541 C74 1.484 . S
C543 C347 0.915 . S
C561 C233 0.928 . S
C559 C86 1.461 . S
C577 C2 1.445 . S
C579 C365 1.111 1_554 S
C597 C109 1.071 . S
C595 C39 1.332 . S
C615 C223 1.040 . S
C613 C75 1.350 . S
C633 C391 1.191 1_554 S
C631 C4 1.535 . S
C649 C50 1.476 . S
C651 C119 0.868 . S
