# Generated by pormake.
# Topology zzz, (3,6)-cn, num edge types: 1
# Building blocks:
#     Node 0, Type 0, BuildingBlock: MIDCAF_clean_linker_0, # of connection points: 3
#     Node 1, Type 0, BuildingBlock: MIDCAF_clean_linker_0, # of connection points: 3
#     Node 2, Type 0, BuildingBlock: MIDCAF_clean_linker_0, # of connection points: 3
#     Node 3, Type 0, BuildingBlock: MIDCAF_clean_linker_0, # of connection points: 3
#     Node 4, Type 0, BuildingBlock: MIDCAF_clean_linker_0, # of connection points: 3
#     Node 5, Type 0, BuildingBlock: MIDCAF_clean_linker_0, # of connection points: 3
#     Node 6, Type 0, BuildingBlock: MIDCAF_clean_linker_0, # of connection points: 3
#     Node 7, Type 0, BuildingBlock: MIDCAF_clean_linker_0, # of connection points: 3
#     Node 8, Type 1, BuildingBlock: KUMJIN_clean_sbu_0, # of connection points: 6
#     Node 9, Type 1, BuildingBlock: KUMJIN_clean_sbu_0, # of connection points: 6
#     Node 10, Type 1, BuildingBlock: KUMJIN_clean_sbu_0, # of connection points: 6
#     Node 11, Type 1, BuildingBlock: KUMJIN_clean_sbu_0, # of connection points: 6
#     Edge 12, Type (0, 1), BuildingBlock: TEMPAE_clean_linker_10, # of connection points: 2
#     Edge 13, Type (0, 1), BuildingBlock: TEMPAE_clean_linker_10, # of connection points: 2
#     Edge 14, Type (0, 1), BuildingBlock: TEMPAE_clean_linker_10, # of connection points: 2
#     Edge 15, Type (0, 1), BuildingBlock: TEMPAE_clean_linker_10, # of connection points: 2
#     Edge 16, Type (0, 1), BuildingBlock: TEMPAE_clean_linker_10, # of connection points: 2
#     Edge 17, Type (0, 1), BuildingBlock: TEMPAE_clean_linker_10, # of connection points: 2
#     Edge 18, Type (0, 1), BuildingBlock: TEMPAE_clean_linker_10, # of connection points: 2
#     Edge 19, Type (0, 1), BuildingBlock: TEMPAE_clean_linker_10, # of connection points: 2
#     Edge 20, Type (0, 1), BuildingBlock: TEMPAE_clean_linker_10, # of connection points: 2
#     Edge 21, Type (0, 1), BuildingBlock: TEMPAE_clean_linker_10, # of connection points: 2
#     Edge 22, Type (0, 1), BuildingBlock: TEMPAE_clean_linker_10, # of connection points: 2
#     Edge 23, Type (0, 1), BuildingBlock: TEMPAE_clean_linker_10, # of connection points: 2
#     Edge 24, Type (0, 1), BuildingBlock: TEMPAE_clean_linker_10, # of connection points: 2
#     Edge 25, Type (0, 1), BuildingBlock: TEMPAE_clean_linker_10, # of connection points: 2
#     Edge 26, Type (0, 1), BuildingBlock: TEMPAE_clean_linker_10, # of connection points: 2
#     Edge 27, Type (0, 1), BuildingBlock: TEMPAE_clean_linker_10, # of connection points: 2
#     Edge 28, Type (0, 1), BuildingBlock: TEMPAE_clean_linker_10, # of connection points: 2
#     Edge 29, Type (0, 1), BuildingBlock: TEMPAE_clean_linker_10, # of connection points: 2
#     Edge 30, Type (0, 1), BuildingBlock: TEMPAE_clean_linker_10, # of connection points: 2
#     Edge 31, Type (0, 1), BuildingBlock: TEMPAE_clean_linker_10, # of connection points: 2
#     Edge 32, Type (0, 1), BuildingBlock: TEMPAE_clean_linker_10, # of connection points: 2
#     Edge 33, Type (0, 1), BuildingBlock: TEMPAE_clean_linker_10, # of connection points: 2
#     Edge 34, Type (0, 1), BuildingBlock: TEMPAE_clean_linker_10, # of connection points: 2
#     Edge 35, Type (0, 1), BuildingBlock: TEMPAE_clean_linker_10, # of connection points: 2
# Relax obj value: 0.299
# Max RMSD: 0.226
# Mean RMSD: 0.213
data_MOF--net-zzz--node1-KUMJIN_clean_sbu_0--node2-MIDCAF_clean_linker_0--edge1-TEMPAE_clean_linker_10
_symmetry_space_group_name_H-M    P1
_symmetry_Int_Tables_number       1
_symmetry_cell_setting            triclinic
loop_
_symmetry_equiv_pos_as_xyz
'x, y, z'
_cell_length_a     57.604465
_cell_length_b     57.566988
_cell_length_c     20.213422
_cell_angle_alpha  90.381758
_cell_angle_beta   90.071558
_cell_angle_gamma 89.956712
loop_
_atom_site_label
_atom_site_type_symbol
_atom_site_fract_x
_atom_site_fract_y
_atom_site_fract_z
_atom_type_partial_charge
C0 C 0.79736 0.54824 0.35066 0.0
C1 C 0.81395 0.53129 0.33312 0.0
C2 C 0.81054 0.51876 0.27375 0.0
C3 C 0.79203 0.52411 0.23112 0.0
H4 H 0.71031 0.51413 0.11583 0.0
H5 H 0.67435 0.50356 0.05708 0.0
H6 H 0.66428 0.57536 1.00388 0.0
H7 H 0.69976 0.58577 0.06199 0.0
H8 H 0.75717 0.59391 0.97817 0.0
H9 H 0.78685 0.60782 0.90223 0.0
H10 H 0.8343 0.61653 0.06622 0.0
H11 H 0.8047 0.60325 0.14177 0.0
H12 H 0.76774 0.56821 0.31991 0.0
H13 H 0.79948 0.55843 0.39548 0.0
H14 H 0.82278 0.50543 0.25882 0.0
H15 H 0.79097 0.51537 0.18358 0.0
N16 N 0.74176 0.54641 0.17194 0.0
N17 N 0.74311 0.57445 0.08745 0.0
N18 N 0.77443 0.57055 0.15982 0.0
C19 C 0.73138 0.5574 0.11955 0.0
C20 C 0.76459 0.58112 0.10717 0.0
C21 C 0.76333 0.55342 0.19265 0.0
C22 C 0.70799 0.55078 0.09362 0.0
C23 C 0.70013 0.52766 0.09271 0.0
C24 C 0.67964 0.5216 0.05844 0.0
C25 C 0.66638 0.53859 0.02534 0.0
C26 C 0.67381 0.56181 0.02907 0.0
C27 C 0.69431 0.56776 0.06228 0.0
C28 C 0.77891 0.59661 0.06566 0.0
C29 C 0.77361 0.59971 0.99836 0.0
C30 C 0.79064 0.60768 0.95474 0.0
C31 C 0.81316 0.61263 0.97781 0.0
C32 C 0.81721 0.61282 0.04643 0.0
C33 C 0.80026 0.60487 0.0899 0.0
C34 C 0.77641 0.54207 0.24676 0.0
C35 C 0.77898 0.55371 0.30767 0.0
C36 C 0.96398 0.81924 0.31865 0.0
C37 C 0.98737 0.82466 0.33 0.0
C38 C 1.00447 0.80984 0.30279 0.0
C39 C 0.99817 0.79102 0.26104 0.0
H40 H 0.97397 0.69622 0.16825 0.0
H41 H 0.98369 0.66003 0.10883 0.0
H42 H 1.00054 0.69986 0.93515 0.0
H43 H 0.991 0.73555 0.9945 0.0
H44 H 0.92449 0.75275 0.97857 0.0
H45 H 0.90662 0.77695 0.89422 0.0
H46 H 0.90241 0.83373 0.0347 0.0
H47 H 0.91903 0.80944 0.1191 0.0
H48 H 0.93944 0.79764 0.26861 0.0
H49 H 0.95041 0.83009 0.33942 0.0
H50 H 0.02268 0.81361 0.31071 0.0
H51 H 0.01167 0.78096 0.23703 0.0
N52 N 0.97837 0.75162 0.16957 0.0
N53 N 0.95257 0.74856 0.07891 0.0
N54 N 0.94879 0.77925 0.15374 0.0
C55 C 0.97072 0.73993 0.11407 0.0
C56 C 0.9414 0.76811 0.09858 0.0
C57 C 0.96705 0.77147 0.18977 0.0
C58 C 0.98227 0.71881 0.08663 0.0
C59 C 0.98059 0.69719 0.11822 0.0
C60 C 0.98576 0.67643 0.08362 0.0
C61 C 0.99285 0.67683 0.01673 0.0
C62 C 0.99548 0.69866 0.98658 0.0
C63 C 0.99011 0.71923 0.02079 0.0
C64 C 0.92422 0.77951 0.05475 0.0
C65 C 0.91896 0.77013 0.9921 0.0
C66 C 0.90869 0.78402 0.94366 0.0
C67 C 0.90394 0.80761 0.95673 0.0
C68 C 0.90596 0.81576 0.02223 0.0
C69 C 0.91589 0.80181 0.07079 0.0
C70 C 0.97465 0.78663 0.24637 0.0
C71 C 0.95774 0.8005 0.27808 0.0
C72 C 0.70036 0.94823 0.32425 0.0
C73 C 0.69623 0.97181 0.33822 0.0
C74 C 0.71154 0.9884 0.31147 0.0
C75 C 0.72929 0.98158 0.26717 0.0
H76 H 0.80113 0.99091 0.11911 0.0
H77 H 0.83827 0.99911 0.06381 0.0
H78 H 0.84596 0.92611 0.01809 0.0
H79 H 0.80945 0.91814 0.07338 0.0
H80 H 0.7541 0.92367 0.95645 0.0
H81 H 0.72638 0.91875 0.86653 0.0
H82 H 0.67164 0.90732 0.00802 0.0
H83 H 0.69918 0.9125 0.09839 0.0
H84 H 0.71951 0.92324 0.26774 0.0
H85 H 0.68913 0.93499 0.34458 0.0
H86 H 0.70877 0.00673 0.32108 0.0
H87 H 0.73959 0.9948 0.24314 0.0
N88 N 0.76748 0.9569 0.17575 0.0
N89 N 0.76549 0.93577 0.07542 0.0
N90 N 0.73313 0.93752 0.14423 0.0
C91 C 0.77792 0.94884 0.11898 0.0
C92 C 0.74311 0.93014 0.08731 0.0
C93 C 0.74493 0.95073 0.18881 0.0
C94 C 0.80245 0.95386 0.10111 0.0
C95 C 0.81121 0.97662 0.09913 0.0
C96 C 0.83232 0.98131 0.06651 0.0
C97 C 0.84516 0.9633 0.03586 0.0
C98 C 0.83686 0.94044 0.04146 0.0
C99 C 0.81583 0.93584 0.07326 0.0
C100 C 0.72865 0.91942 0.03467 0.0
C101 C 0.73636 0.91921 0.96861 0.0
C102 C 0.72051 0.91614 0.91684 0.0
C103 C 0.69682 0.91316 0.93051 0.0
C104 C 0.68981 0.90988 0.99633 0.0
C105 C 0.70558 0.91306 0.04806 0.0
C106 C 0.73203 0.95806 0.24931 0.0
C107 C 0.71792 0.94149 0.28051 0.0
C108 C 0.61692 0.70351 0.04213 0.0
C109 C 0.61028 0.70567 0.97526 0.0
C110 C 0.6011 0.72708 0.95434 0.0
C111 C 0.59566 0.74442 1.00023 0.0
H112 H 0.54356 0.79279 0.01511 0.0
H113 H 0.53613 0.8287 0.95614 0.0
H114 H 0.55232 0.86818 0.13256 0.0
H115 H 0.55953 0.83166 0.19247 0.0
H116 H 0.52066 0.74125 0.23492 0.0
H117 H 0.50942 0.7107 0.31298 0.0
H118 H 0.57732 0.71392 0.40245 0.0
H119 H 0.58881 0.74377 0.32276 0.0
H120 H 0.61415 0.7175 0.14036 0.0
H121 H 0.62498 0.68773 0.05983 0.0
H122 H 0.59573 0.72972 0.90363 0.0
H123 H 0.58677 0.75978 0.98265 0.0
N124 N 0.57723 0.77586 0.09746 0.0
N125 N 0.55514 0.77854 0.19503 0.0
N126 N 0.57968 0.74637 0.17573 0.0
C127 C 0.56208 0.7878 0.13611 0.0
C128 C 0.56429 0.75777 0.21522 0.0
C129 C 0.58622 0.75528 0.11672 0.0
C130 C 0.55213 0.80942 0.10838 0.0
C131 C 0.54497 0.8091 0.04192 0.0
C132 C 0.54096 0.82972 0.00789 0.0
C133 C 0.54421 0.85137 0.03905 0.0
C134 C 0.54975 0.85177 0.10706 0.0
C135 C 0.55372 0.83091 0.14152 0.0
C136 C 0.55545 0.74521 0.27372 0.0
C137 C 0.53284 0.73606 0.27293 0.0
C138 C 0.52651 0.71842 0.31707 0.0
C139 C 0.54251 0.70996 0.36378 0.0
C140 C 0.56458 0.72026 0.36746 0.0
C141 C 0.5711 0.73743 0.32218 0.0
C142 C 0.59885 0.74062 0.06824 0.0
C143 C 0.61085 0.72064 0.08841 0.0
C144 C 0.22286 0.46622 0.8953 0.0
C145 C 0.20881 0.48563 0.90986 0.0
C146 C 0.21354 0.49837 0.96812 0.0
C147 C 0.2309 0.49112 0.01236 0.0
H148 H 0.31715 0.42574 0.19601 0.0
H149 H 0.35346 0.43578 0.25104 0.0
H150 H 0.34791 0.50581 0.1779 0.0
H151 H 0.31135 0.49567 0.122 0.0
H152 H 0.26177 0.41614 0.26731 0.0
H153 H 0.23256 0.40421 0.34729 0.0
H154 H 0.1805 0.40442 0.19344 0.0
H155 H 0.20956 0.41578 0.11346 0.0
H156 H 0.24924 0.4428 0.92989 0.0
H157 H 0.21959 0.45583 0.85142 0.0
H158 H 0.2032 0.51347 0.98078 0.0
H159 H 0.23305 0.50039 0.05879 0.0
N160 N 0.27788 0.46513 0.07548 0.0
N161 N 0.27488 0.43785 0.1615 0.0
N162 N 0.2439 0.44295 0.08835 0.0
C163 C 0.28758 0.45402 0.12863 0.0
C164 C 0.25304 0.43224 0.14189 0.0
C165 C 0.25603 0.45918 0.05469 0.0
C166 C 0.31119 0.45992 0.15458 0.0
C167 C 0.32375 0.44325 0.19081 0.0
C168 C 0.3447 0.44895 0.22222 0.0
C169 C 0.35363 0.47163 0.21933 0.0
C170 C 0.34144 0.48821 0.18162 0.0
C171 C 0.32058 0.48237 0.1491 0.0
C172 C 0.23782 0.41787 0.18445 0.0
C173 C 0.2443 0.41276 0.2499 0.0
C174 C 0.22756 0.40584 0.29584 0.0
C175 C 0.20409 0.40399 0.27716 0.0
C176 C 0.19837 0.40573 0.20975 0.0
C177 C 0.21507 0.41261 0.16385 0.0
C178 C 0.24393 0.47096 0.99952 0.0
C179 C 0.24 0.45883 0.93998 0.0
C180 C 0.04841 0.21412 0.91589 0.0
C181 C 0.03411 0.19623 0.94018 0.0
C182 C 0.02446 0.1991 1.00376 0.0
C183 C 0.0302 0.21837 0.04349 0.0
H184 H 0.02042 0.3048 0.14628 0.0
H185 H 0.01104 0.34098 0.20591 0.0
H186 H 0.084 0.35246 0.24266 0.0
H187 H 0.0932 0.31683 0.18312 0.0
H188 H 0.10816 0.26558 0.26803 0.0
H189 H 0.12022 0.24073 0.35877 0.0
H190 H 0.1118 0.18036 0.23313 0.0
H191 H 0.10027 0.20501 0.14228 0.0
H192 H 0.0669 0.24574 0.93804 0.0
H193 H 0.05632 0.2125 0.86751 0.0
H194 H 0.01314 0.18593 0.024 0.0
H195 H 0.02384 0.21907 0.09389 0.0
N196 N 0.05179 0.27229 0.087 0.0
N197 N 0.081 0.27274 0.16875 0.0
N198 N 0.07537 0.23942 0.10455 0.0
C199 C 0.06372 0.28391 0.13601 0.0
C200 C 0.08691 0.25055 0.15371 0.0
C201 C 0.05812 0.24998 0.07044 0.0
C202 C 0.05756 0.30784 0.15965 0.0
C203 C 0.03443 0.3154 0.16557 0.0
C204 C 0.02908 0.33601 0.20062 0.0
C205 C 0.04674 0.34971 0.2299 0.0
C206 C 0.06989 0.34265 0.22068 0.0
C207 C 0.07517 0.32207 0.18649 0.0
C208 C 0.10215 0.23718 0.19879 0.0
C209 C 0.10977 0.24709 0.25882 0.0
C210 C 0.11678 0.23286 0.31091 0.0
C211 C 0.11618 0.20856 0.30377 0.0
C212 C 0.11229 0.19901 0.24056 0.0
C213 C 0.10536 0.21321 0.18845 0.0
C214 C 0.04563 0.23545 0.02085 0.0
C215 C 0.05428 0.23336 0.95602 0.0
C216 C 0.32107 0.02639 0.97444 0.0
C217 C 0.32402 0.0358 0.91097 0.0
C218 C 0.30651 0.05034 0.88574 0.0
C219 C 0.28746 0.0568 0.92529 0.0
H220 H 0.19695 0.05207 0.06371 0.0
H221 H 0.16111 0.04514 0.12715 0.0
H222 H 0.20062 0.04821 0.30877 0.0
H223 H 0.23571 0.05565 0.24605 0.0
H224 H 0.25737 0.11375 0.23341 0.0
H225 H 0.28365 0.12822 0.31849 0.0
H226 H 0.34139 0.1198 0.18439 0.0
H227 H 0.31528 0.10592 0.09912 0.0
H228 H 0.30094 0.02626 0.06374 0.0
H229 H 0.33423 0.01511 0.99518 0.0
H230 H 0.30839 0.058 0.83724 0.0
H231 H 0.27535 0.06965 0.90695 0.0
N232 N 0.25043 0.05256 0.06359 0.0
N233 N 0.25051 0.08241 0.14381 0.0
N234 N 0.28087 0.07987 0.06803 0.0
C235 C 0.23999 0.06367 0.11585 0.0
C236 C 0.27082 0.09074 0.12027 0.0
C237 C 0.27088 0.06107 0.03898 0.0
C238 C 0.21911 0.05445 0.14992 0.0
C239 C 0.1979 0.05071 0.11706 0.0
C240 C 0.17739 0.04688 0.15354 0.0
C241 C 0.17778 0.04669 0.22345 0.0
C242 C 0.19937 0.04898 0.25536 0.0
C243 C 0.21961 0.05295 0.21927 0.0
C244 C 0.2844 0.10756 0.1605 0.0
C245 C 0.27554 0.11586 0.22106 0.0
C246 C 0.29059 0.12424 0.26992 0.0
C247 C 0.31468 0.12431 0.25903 0.0
C248 C 0.32295 0.11977 0.1948 0.0
C249 C 0.30791 0.11152 0.14585 0.0
C250 C 0.28518 0.04829 0.99 0.0
C251 C 0.30183 0.03247 0.01332 0.0
C252 C 0.40094 0.32981 0.22274 0.0
C253 C 0.39879 0.32269 0.28888 0.0
C254 C 0.39962 0.29879 0.30277 0.0
C255 C 0.4058 0.28281 0.25339 0.0
H256 H 0.4151 0.2098 0.18145 0.0
H257 H 0.42469 0.17328 0.2352 0.0
H258 H 0.49583 0.18004 0.17138 0.0
H259 H 0.48611 0.2168 0.11667 0.0
H260 H 0.44304 0.27113 0.92062 0.0
H261 H 0.45614 0.29988 0.83957 0.0
H262 H 0.49893 0.3322 0.98972 0.0
H263 H 0.48537 0.30384 0.07023 0.0
H264 H 0.41055 0.32034 0.12426 0.0
H265 H 0.40046 0.34805 0.21002 0.0
H266 H 0.39765 0.29273 0.35307 0.0
H267 H 0.40831 0.26483 0.26713 0.0
N268 N 0.42911 0.253 0.15832 0.0
N269 N 0.45565 0.25017 0.07003 0.0
N270 N 0.43573 0.28514 0.09107 0.0
C271 C 0.4444 0.24015 0.12215 0.0
C272 C 0.45094 0.2727 0.05392 0.0
C273 C 0.42465 0.27548 0.14319 0.0
C274 C 0.44985 0.21623 0.14474 0.0
C275 C 0.43272 0.20332 0.17775 0.0
C276 C 0.43819 0.18232 0.20842 0.0
C277 C 0.46104 0.17378 0.20787 0.0
C278 C 0.47809 0.18626 0.17301 0.0
C279 C 0.47249 0.20717 0.14116 0.0
C280 C 0.46352 0.28509 1.00123 0.0
C281 C 0.45589 0.2839 0.9353 0.0
C282 C 0.46332 0.30046 0.88909 0.0
C283 C 0.47834 0.31863 0.90826 0.0
C284 C 0.48703 0.31876 0.97341 0.0
C285 C 0.47956 0.30232 0.01937 0.0
C286 C 0.41122 0.29048 0.18929 0.0
C287 C 0.40709 0.31387 0.17347 0.0
Eu288 Eu 0.03628 1.00028 0.69463 0.0
C289 C 0.94423 0.98771 0.5359 0.0
C290 C 0.95363 0.96938 0.43126 0.0
C291 C 0.91566 0.96331 0.48026 0.0
C292 C 0.96017 0.98308 0.48638 0.0
C293 C 0.92169 0.97813 0.53295 0.0
C294 C 0.93153 0.95912 0.42919 0.0
C295 C 0.91174 1.00072 0.62999 0.0
N296 N 0.95028 1.00264 0.58502 0.0
C297 C 0.93411 0.01012 0.63001 0.0
C298 C 0.90559 0.9844 0.58174 0.0
Eu299 Eu 0.98881 0.01711 0.58383 0.0
N300 N 0.98153 0.99304 0.48997 0.0
C301 C 0.99683 0.99054 0.43867 0.0
C302 C 0.96918 0.96706 0.37868 0.0
C303 C 0.99094 0.97749 0.38266 0.0
H304 H 0.93884 0.02273 0.66752 0.0
H305 H 1.00311 0.97571 0.3422 0.0
H306 H 0.92639 0.94828 0.38765 0.0
H307 H 0.89928 0.00609 0.66712 0.0
H308 H 0.01367 0.99856 0.4396 0.0
H309 H 0.02263 0.05081 0.9221 0.0
H310 H 0.96439 0.95762 0.33423 0.0
H311 H 0.08738 0.98399 0.63205 0.0
H312 H 0.01207 0.02465 0.83146 0.0
H313 H 0.12838 0.99659 0.63284 0.0
H314 H 0.89851 0.95566 0.47739 0.0
H315 H 0.06205 0.06776 0.92722 0.0
H316 H 0.10172 0.0713 0.87787 0.0
H317 H 0.88818 0.97729 0.58141 0.0
H318 H 0.13052 0.05703 0.79739 0.0
N319 N 0.04485 0.02665 0.78304 0.0
C320 C 0.02925 0.0318 0.83194 0.0
C321 C 0.05732 0.0565 0.88634 0.0
C322 C 0.07348 0.05069 0.83757 0.0
C323 C 0.03517 0.04682 0.88384 0.0
C324 C 0.06676 0.03519 0.7867 0.0
H325 H 0.14072 0.02891 0.70618 0.0
N326 N 0.07628 0.01021 0.69938 0.0
C327 C 0.11577 1.00547 0.66357 0.0
C328 C 0.08295 0.02694 0.74258 0.0
C329 C 0.09251 0.99851 0.6628 0.0
C330 C 0.12264 0.02374 0.70486 0.0
C331 C 0.1063 0.03426 0.74655 0.0
O332 O 0.05529 0.96845 0.71647 0.0
O333 O 0.01092 0.98809 0.61781 0.0
O334 O 0.97536 0.99147 0.65961 0.0
O335 O 1.00057 1.00008 0.74522 0.0
O336 O 0.04389 0.9747 0.61051 0.0
O337 O 0.02661 0.97855 0.77856 0.0
O338 O 0.96456 0.04584 0.5727 0.0
O339 O 0.01528 0.0304 0.65747 0.0
O340 O 0.05353 0.01865 0.60863 0.0
O341 O 0.02369 0.02104 0.53007 0.0
O342 O 0.98144 0.0414 0.67003 0.0
O343 O 0.99263 0.04157 0.50245 0.0
C344 C 0.02345 0.9742 0.58471 0.0
C345 C 0.0284 0.93929 0.7436 0.0
C346 C 0.99334 0.91558 0.74144 0.0
C347 C 0.00558 0.93496 0.76525 0.0
C348 C 1.00412 0.90022 0.69689 0.0
C349 C 0.03911 0.92331 0.70041 0.0
C350 C 0.02701 0.90394 0.67734 0.0
C351 C 0.98032 0.99225 0.72336 0.0
C352 C 0.03998 0.96155 0.75926 0.0
C353 C 0.11274 0.05099 0.79397 0.0
C354 C 0.09636 0.05909 0.83978 0.0
C355 C 1.0024 0.04396 0.691 0.0
C356 C 0.98414 0.07977 0.54096 0.0
C357 C 0.00566 0.08805 0.51865 0.0
C358 C 0.01381 0.10985 0.53893 0.0
C359 C 1.00002 0.12388 0.57997 0.0
C360 C 0.97049 0.09408 0.58217 0.0
C361 C 0.97844 0.116 0.60149 0.0
C362 C 0.04586 0.02255 0.54781 0.0
C363 C 0.97689 0.05563 0.52668 0.0
H364 H 0.99716 0.94675 0.79971 0.0
H365 H 0.99511 0.88486 0.67929 0.0
H366 H 0.05668 0.92605 0.68314 0.0
H367 H 0.03551 0.89177 0.64447 0.0
H368 H 0.01632 0.07748 0.48641 0.0
H369 H 0.00574 0.14114 0.59376 0.0
H370 H 0.95383 0.08818 0.60033 0.0
H371 H 0.96785 0.1269 0.6332 0.0
Eu372 Eu 0.51747 0.03683 0.66394 0.0
C373 C 0.52774 0.93913 0.51992 0.0
C374 C 0.54939 0.9462 0.41998 0.0
C375 C 0.55062 0.90804 0.47028 0.0
C376 C 0.53526 0.9543 0.47227 0.0
C377 C 0.53498 0.91569 0.51899 0.0
C378 C 0.55759 0.92322 0.42029 0.0
C379 C 0.5078 0.90821 0.607 0.0
N380 N 0.51166 0.94677 0.56361 0.0
C381 C 0.50068 0.9314 0.60423 0.0
C382 C 0.52533 0.90037 0.56483 0.0
Eu383 Eu 0.5011 0.98666 0.56113 0.0
N384 N 0.52702 0.97639 0.47358 0.0
C385 C 0.53167 0.99096 0.4221 0.0
C386 C 0.55385 0.96105 0.3672 0.0
C387 C 0.54517 0.98361 0.36859 0.0
H388 H 0.48648 0.93716 0.63497 0.0
H389 H 0.54862 0.99528 0.32802 0.0
H390 H 0.56879 0.91685 0.3811 0.0
H391 H 0.4995 0.89633 0.64083 0.0
H392 H 0.52503 0.00835 0.42114 0.0
H393 H 0.47315 0.02795 0.90184 0.0
H394 H 0.56359 0.9551 0.32452 0.0
H395 H 0.52341 0.08437 0.5702 0.0
H396 H 0.49729 0.01521 0.80901 0.0
H397 H 0.50692 0.12394 0.5622 0.0
H398 H 0.55653 0.89017 0.469 0.0
H399 H 0.45484 0.06674 0.90063 0.0
H400 H 0.44636 0.10351 0.8399 0.0
H401 H 0.53052 0.88228 0.56598 0.0
H402 H 0.45472 0.12923 0.74629 0.0
N403 N 0.49223 0.04611 0.7529 0.0
C404 C 0.48919 0.03203 0.80641 0.0
C405 C 0.46486 0.06095 0.85837 0.0
C406 C 0.46792 0.07531 0.80365 0.0
C407 C 0.47541 0.03917 0.85958 0.0
C408 C 0.48226 0.06753 0.75147 0.0
H409 H 0.47735 0.13707 0.64286 0.0
N410 N 0.50253 0.07495 0.65253 0.0
C411 C 0.50116 0.11237 0.60084 0.0
C412 C 0.48729 0.08222 0.69937 0.0
C413 C 0.51045 0.09001 0.60552 0.0
C414 C 0.48443 0.11967 0.64632 0.0
C415 C 0.4777 0.10478 0.6973 0.0
O416 O 0.54585 0.06158 0.67087 0.0
O417 O 0.53074 0.00836 0.59712 0.0
O418 O 0.52001 0.97189 0.65005 0.0
O419 O 0.52222 1.00343 0.72393 0.0
O420 O 0.54312 0.04129 0.57919 0.0
O421 O 0.53943 0.03783 0.75191 0.0
O422 O 0.46923 0.96716 0.54302 0.0
O423 O 0.48857 0.0136 0.63314 0.0
O424 O 0.49147 0.04802 0.5865 0.0
O425 O 0.50099 0.0213 0.50541 0.0
O426 O 0.47589 0.9805 0.64561 0.0
O427 O 0.4792 0.99418 0.47546 0.0
C428 C 0.54479 0.01978 0.56212 0.0
C429 C 0.57807 0.04911 0.73063 0.0
C430 C 0.61125 0.02338 0.71325 0.0
C431 C 0.5873 0.02798 0.70764 0.0
C432 C 0.62572 0.041 0.73959 0.0
C433 C 0.59277 0.06633 0.75585 0.0
C434 C 0.61655 0.06233 0.75976 0.0
C435 C 0.52389 0.98094 0.70957 0.0
C436 C 0.55315 0.05368 0.72736 0.0
C437 C 0.4624 0.11205 0.74732 0.0
C438 C 0.45766 0.09742 0.80064 0.0
C439 C 0.47495 1.00149 0.66784 0.0
C440 C 0.43965 0.99253 0.50737 0.0
C441 C 0.43512 0.01486 0.48215 0.0
C442 C 0.41465 0.02663 0.49944 0.0
C443 C 0.39844 0.01584 0.54077 0.0
C444 C 0.42297 0.98189 0.54786 0.0
C445 C 0.40251 0.99349 0.56426 0.0
C446 C 0.49261 0.04177 0.52374 0.0
C447 C 0.46234 0.98109 0.49649 0.0
H448 H 0.57564 0.01515 0.68668 0.0
H449 H 0.64408 0.0382 0.74746 0.0
H450 H 0.58582 0.08282 0.77282 0.0
H451 H 0.62787 0.07558 0.78008 0.0
H452 H 0.4475 0.02324 0.44979 0.0
H453 H 0.38225 0.02445 0.55292 0.0
H454 H 0.42586 0.96469 0.56768 0.0
H455 H 0.38974 0.98504 0.59492 0.0
Eu456 Eu 0.53728 0.50326 0.56695 0.0
C457 C 0.43575 0.49023 0.67018 0.0
C458 C 0.4098 0.50942 0.59359 0.0
C459 C 0.39564 0.47744 0.66019 0.0
C460 C 0.43204 0.50674 0.62179 0.0
C461 C 0.41751 0.47555 0.6904 0.0
C462 C 0.39173 0.49448 0.61231 0.0
C463 C 0.44306 0.45997 0.774 0.0
N464 N 0.45686 0.48925 0.69974 0.0
C465 C 0.46045 0.47514 0.75303 0.0
C466 C 0.42157 0.45995 0.74199 0.0
Eu467 Eu 0.48504 0.51613 0.6629 0.0
N468 N 0.4499 0.5208 0.6041 0.0
C469 C 0.4464 0.53854 0.56069 0.0
C470 C 0.40622 0.52739 0.54858 0.0
C471 C 0.42458 0.54206 0.53221 0.0
H472 H 0.47702 0.47517 0.77815 0.0
H473 H 0.42191 0.5562 0.49803 0.0
H474 H 0.37461 0.49613 0.59057 0.0
H475 H 0.44619 0.44838 0.81497 0.0
H476 H 0.46034 0.55014 0.54792 0.0
H477 H 0.6052 0.46769 0.72453 0.0
H478 H 0.38924 0.53036 0.52729 0.0
H479 H 0.54162 0.54265 0.44493 0.0
H480 H 0.56557 0.4717 0.68035 0.0
H481 H 0.57069 0.56954 0.39949 0.0
H482 H 0.38146 0.46625 0.67482 0.0
H483 H 0.63614 0.49456 0.68816 0.0
H484 H 0.64812 0.52836 0.61888 0.0
H485 H 0.40805 0.44831 0.75868 0.0
H486 H 0.6386 0.55638 0.53157 0.0
N487 N 0.57376 0.50071 0.62005 0.0
C488 C 0.57883 0.48367 0.6645 0.0
C489 C 0.61867 0.49653 0.66919 0.0
C490 C 0.61349 0.51373 0.62293 0.0
C491 C 0.60129 0.48135 0.68977 0.0
C492 C 0.59066 0.51514 0.59796 0.0
H493 H 0.6099 0.57169 0.44913 0.0
N494 N 0.56379 0.53025 0.52138 0.0
C495 C 0.57508 0.5587 0.44123 0.0
C496 C 0.58546 0.53055 0.54775 0.0
C497 C 0.55864 0.5434 0.46714 0.0
C498 C 0.59715 0.55991 0.46954 0.0
C499 C 0.60273 0.54546 0.52266 0.0
O500 O 0.543 0.49008 0.46693 0.0
O501 O 0.49837 0.50269 0.56681 0.0
O502 O 0.48606 0.4775 0.64065 0.0
O503 O 0.5259 0.4726 0.63162 0.0
O504 O 0.51381 0.51307 0.48055 0.0
O505 O 0.55302 0.46926 0.55151 0.0
O506 O 0.47509 0.52569 0.76334 0.0
O507 O 0.52392 0.5162 0.66418 0.0
O508 O 0.53725 0.54191 0.58875 0.0
O509 O 0.49758 0.54759 0.60287 0.0
O510 O 0.50793 0.50574 0.74984 0.0
O511 O 0.47206 0.55095 0.68414 0.0
C512 C 0.49416 0.50919 0.50847 0.0
C513 C 0.54291 0.44935 0.45426 0.0
C514 C 0.51166 0.42396 0.41757 0.0
C515 C 0.51907 0.44432 0.44998 0.0
C516 C 0.52839 0.4086 0.39127 0.0
C517 C 0.55925 0.43396 0.42736 0.0
C518 C 0.55198 0.41361 0.39614 0.0
C519 C 0.50483 0.46429 0.64354 0.0
C520 C 0.55137 0.47031 0.48733 0.0
C521 C 0.62515 0.54496 0.54991 0.0
C522 C 0.63057 0.52902 0.59962 0.0
C523 C 0.52774 0.50948 0.72264 0.0
C524 C 0.47753 0.56511 0.79345 0.0
C525 C 0.49672 0.57939 0.78001 0.0
C526 C 0.50312 0.59688 0.82534 0.0
C527 C 0.49045 0.59945 0.88455 0.0
C528 C 0.46506 0.56807 0.85238 0.0
C529 C 0.47156 0.58514 0.8978 0.0
C530 C 0.51873 0.55555 0.58961 0.0
C531 C 0.46986 0.54697 0.74738 0.0
H532 H 0.50646 0.45628 0.47088 0.0
H533 H 0.52322 0.39251 0.36736 0.0
H534 H 0.57766 0.43766 0.43081 0.0
H535 H 0.56466 0.40168 0.37575 0.0
H536 H 0.50638 0.57712 0.73441 0.0
H537 H 0.49533 0.61238 0.92116 0.0
H538 H 0.45028 0.55712 0.86329 0.0
H539 H 0.46197 0.58726 0.94346 0.0
Eu540 Eu 0.01982 0.53765 0.56649 0.0
C541 C 0.02864 0.43844 0.69217 0.0
C542 C 0.00949 0.4112 0.61845 0.0
C543 C 0.04041 0.3978 0.69046 0.0
C544 C 0.01242 0.43408 0.64283 0.0
C545 C 0.04254 0.42025 0.71713 0.0
C546 C 0.02381 0.39325 0.64158 0.0
C547 C 0.05799 0.44708 0.7982 0.0
N548 N 0.02999 0.46014 0.71837 0.0
C549 C 0.04368 0.46444 0.77258 0.0
C550 C 0.05766 0.42496 0.76978 0.0
Eu551 Eu 0.0055 0.48878 0.6715 0.0
N552 N 0.99887 0.45183 0.62068 0.0
C553 C 0.98164 0.44742 0.57566 0.0
C554 C 0.99184 0.40682 0.57274 0.0
C555 C 0.97793 0.42501 0.55109 0.0
H556 H 0.04406 0.48148 0.7951 0.0
H557 H 0.9642 0.42178 0.51559 0.0
H558 H 0.02192 0.37569 0.62267 0.0
H559 H 0.06926 0.45079 0.83984 0.0
H560 H 0.97064 0.46087 0.55721 0.0
H561 H 0.05254 0.60921 0.71721 0.0
H562 H 0.98852 0.38937 0.55491 0.0
H563 H 0.98288 0.53976 0.43735 0.0
H564 H 0.0505 0.56896 0.67592 0.0
H565 H 0.95524 0.56726 0.38707 0.0
H566 H 0.05104 0.38368 0.70868 0.0
H567 H 0.02363 0.63826 0.67993 0.0
H568 H 0.98937 0.64785 0.60896 0.0
H569 H 0.06866 0.41147 0.79001 0.0
H570 H 0.96271 0.63634 0.51944 0.0
N571 N 0.02079 0.57497 0.61577 0.0
C572 C 0.03775 0.5814 0.65943 0.0
C573 C 0.02261 0.62052 0.66206 0.0
C574 C 0.00571 0.61402 0.61585 0.0
C575 C 0.03891 0.60421 0.68321 0.0
C576 C 0.00557 0.59092 0.59214 0.0
H577 H 0.95014 0.60648 0.43566 0.0
N578 N 0.99267 0.56282 0.51531 0.0
C579 C 0.96512 0.57235 0.43039 0.0
C580 C 0.99092 0.58461 0.5408 0.0
C581 C 0.9808 0.55682 0.45902 0.0
C582 C 0.96222 0.59443 0.45813 0.0
C583 C 0.97553 0.60098 0.51314 0.0
O584 O 0.03266 0.54224 0.46614 0.0
O585 O 0.02067 0.49874 0.5747 0.0
O586 O 0.04472 0.48975 0.6599 0.0
O587 O 0.05118 0.52827 0.63191 0.0
O588 O 0.01135 0.51177 0.48415 0.0
O589 O 0.05352 0.55377 0.54957 0.0
O590 O 0.9934 0.47221 0.76192 0.0
O591 O 0.00681 0.5278 0.66684 0.0
O592 O 0.98069 0.53672 0.58092 0.0
O593 O 0.97575 0.4973 0.59959 0.0
O594 O 0.01957 0.51292 0.75163 0.0
O595 O 0.97064 0.4955 0.70978 0.0
C596 C 0.01488 0.49296 0.51654 0.0
C597 C 0.07326 0.54281 0.45278 0.0
C598 C 0.09774 0.5116 0.41105 0.0
C599 C 0.0777 0.51893 0.44473 0.0
C600 C 0.11345 0.52836 0.38742 0.0
C601 C 0.08901 0.55921 0.4287 0.0
C602 C 0.10909 0.55198 0.39631 0.0
C603 C 0.05855 0.50798 0.65472 0.0
C604 C 0.05229 0.55124 0.48559 0.0
C605 C 0.97455 0.62357 0.53961 0.0
C606 C 0.98972 0.63012 0.59062 0.0
C607 C 0.01502 0.53242 0.72368 0.0
C608 C 0.97187 0.49902 0.82627 0.0
C609 C 0.95554 0.51713 0.82782 0.0
C610 C 0.95377 0.53181 0.88329 0.0
C611 C 0.96853 0.52822 0.93769 0.0
C612 C 0.98643 0.49565 0.8814 0.0
C613 C 0.98477 0.51025 0.93656 0.0
C614 C 0.96762 0.5178 0.58035 0.0
C615 C 0.97481 0.48498 0.76539 0.0
H616 H 0.06549 0.50625 0.46343 0.0
H617 H 0.12929 0.52317 0.36249 0.0
H618 H 0.08576 0.57764 0.43494 0.0
H619 H 0.12128 0.56469 0.37797 0.0
H620 H 0.94404 0.51971 0.78598 0.0
H621 H 0.96749 0.53931 0.98109 0.0
H622 H 0.99935 0.48197 0.88166 0.0
H623 H 0.99613 0.50764 0.97855 0.0
C624 C 0.1537 0.05829 0.32234 0.0
C625 C 0.15602 0.045 0.26404 0.0
C626 C 0.13448 0.05574 0.36451 0.0
C627 C 0.11679 0.03964 0.34819 0.0
C628 C 0.11842 0.0269 0.28801 0.0
C629 C 0.13798 0.02971 0.24672 0.0
C630 C 0.1337 0.06956 0.42823 0.0
C631 C 0.09993 0.00961 0.2685 0.0
C632 C 0.0841 0.01404 0.4944 0.0
C633 C 0.06346 0.02691 0.49533 0.0
C634 C 0.10127 0.01773 0.44631 0.0
C635 C 0.09781 0.03476 0.39703 0.0
C636 C 0.07673 0.04756 0.39664 0.0
C637 C 0.05968 0.04322 0.44519 0.0
C638 C 0.12327 1.00345 0.44876 0.0
C639 C 0.07239 0.06616 0.34585 0.0
H640 H 0.16716 0.07061 0.33567 0.0
H641 H 0.1395 0.01932 0.20204 0.0
H642 H 0.11633 0.07753 0.43529 0.0
H643 H 0.13676 0.05778 0.47058 0.0
H644 H 0.14705 0.08347 0.42972 0.0
H645 H 0.10262 1.00257 0.21777 0.0
H646 H 0.09999 0.99492 0.30378 0.0
H647 H 0.08252 0.0178 0.27107 0.0
H648 H 0.08665 1.00056 0.5304 0.0
H649 H 0.04358 0.05286 0.44451 0.0
H650 H 0.13847 0.01503 0.45588 0.0
H651 H 0.12576 0.99408 0.40116 0.0
H652 H 0.12307 0.99056 0.48942 0.0
H653 H 0.08562 0.08006 0.35102 0.0
H654 H 0.0549 0.07412 0.351 0.0
H655 H 0.07411 0.05876 0.29527 0.0
C656 C 0.45285 0.13297 0.24502 0.0
C657 C 0.46707 0.15276 0.2472 0.0
C658 C 0.45704 0.11391 0.28657 0.0
C659 C 0.47572 0.11468 0.33212 0.0
C660 C 0.49052 0.13433 0.33335 0.0
C661 C 0.48608 0.15307 0.29072 0.0
C662 C 0.44102 0.09322 0.28348 0.0
C663 C 0.5106 0.13588 0.3812 0.0
C664 C 0.47227 0.07814 0.4886 0.0
C665 C 0.48665 0.05926 0.4727 0.0
C666 C 0.4685 0.09622 0.44348 0.0
C667 C 0.47915 0.09533 0.38026 0.0
C668 C 0.49313 0.07594 0.36323 0.0
C669 C 0.49663 0.05813 0.40951 0.0
C670 C 0.45409 0.11674 0.46559 0.0
C671 C 0.5051 0.0744 0.29694 0.0
H672 H 0.43823 0.13252 0.2112 0.0
H673 H 0.497 0.16838 0.29327 0.0
H674 H 0.45107 0.07708 0.27452 0.0
H675 H 0.43221 0.09129 0.33186 0.0
H676 H 0.42771 0.09489 0.244 0.0
H677 H 0.52164 0.15135 0.37223 0.0
H678 H 0.50386 0.13685 0.43254 0.0
H679 H 0.52155 0.12006 0.37752 0.0
H680 H 0.46432 0.0791 0.53717 0.0
H681 H 0.50789 0.04374 0.39681 0.0
H682 H 0.44481 0.12493 0.42384 0.0
H683 H 0.46572 0.13 0.48787 0.0
H684 H 0.44127 0.11167 0.50385 0.0
H685 H 0.49223 0.07592 0.25634 0.0
H686 H 0.5148 0.05785 0.29046 0.0
H687 H 0.51746 0.08906 0.29185 0.0
C688 C 0.37499 0.4984 0.29733 0.0
C689 C 0.37479 0.4781 0.25866 0.0
C690 C 0.39405 0.50414 0.33795 0.0
C691 C 0.4137 0.48921 0.34049 0.0
C692 C 0.41397 0.46912 0.29937 0.0
C693 C 0.39446 0.46364 0.25988 0.0
C694 C 0.39236 0.52624 0.37799 0.0
C695 C 0.43514 0.45371 0.29569 0.0
C696 C 0.47017 0.51563 0.40712 0.0
C697 C 0.47282 0.50458 0.46838 0.0
C698 C 0.45131 0.5106 0.36495 0.0
C699 C 0.43407 0.49458 0.385 0.0
C700 C 0.43654 0.48353 0.44727 0.0
C701 C 0.45627 0.488 0.48693 0.0
C702 C 0.44986 0.52247 0.29874 0.0
C703 C 0.41819 0.46719 0.47249 0.0
H704 H 0.3599 0.50967 0.29725 0.0
H705 H 0.3947 0.44813 0.22921 0.0
H706 H 0.37838 0.5243 0.41522 0.0
H707 H 0.4087 0.531 0.40333 0.0
H708 H 0.38723 0.54082 0.34536 0.0
H709 H 0.43322 0.43957 0.25841 0.0
H710 H 0.45063 0.46422 0.28294 0.0
H711 H 0.43852 0.44579 0.34454 0.0
H712 H 0.48313 0.52811 0.39163 0.0
H713 H 0.45863 0.47861 0.53269 0.0
H714 H 0.43479 0.53448 0.29835 0.0
H715 H 0.4471 0.50943 0.25879 0.0
H716 H 0.46577 0.53259 0.28746 0.0
H717 H 0.40071 0.47514 0.46726 0.0
H718 H 0.421 0.46261 0.52516 0.0
H719 H 0.41834 0.451 0.44279 0.0
C720 C 0.02284 0.36973 0.3184 0.0
C721 C 0.04124 0.37047 0.27299 0.0
C722 C 0.01808 0.38851 0.36152 0.0
C723 C 0.0321 0.40879 0.36014 0.0
C724 C 0.05065 0.40972 0.31404 0.0
C725 C 0.05504 0.39064 0.27149 0.0
C726 C 0.99848 0.38589 0.41007 0.0
C727 C 0.06568 0.4311 0.30887 0.0
C728 C 0.00645 0.46637 0.42168 0.0
C729 C 0.01809 0.47015 0.48188 0.0
C730 C 0.01064 0.44649 0.38249 0.0
C731 C 0.02675 0.42951 0.40388 0.0
C732 C 0.03812 0.43287 0.46571 0.0
C733 C 0.03407 0.45336 0.50321 0.0
C734 C 0.99796 0.4438 0.31751 0.0
C735 C 0.05453 0.41477 0.49215 0.0
H736 H 0.01238 0.35414 0.32153 0.0
H737 H 0.0692 0.39164 0.2364 0.0
H738 H 0.00561 0.37807 0.45577 0.0
H739 H 0.99029 0.40275 0.42287 0.0
H740 H 0.98486 0.37402 0.39062 0.0
H741 H 0.07975 0.42901 0.27178 0.0
H742 H 0.05484 0.44624 0.29485 0.0
H743 H 0.07361 0.43518 0.35757 0.0
H744 H 0.99423 0.47933 0.40441 0.0
H745 H 0.0436 0.45635 0.54874 0.0
H746 H 0.98747 0.42763 0.31791 0.0
H747 H 0.01064 0.44221 0.27644 0.0
H748 H 0.98624 0.45868 0.30723 0.0
H749 H 0.04557 0.39773 0.49442 0.0
H750 H 0.06106 0.41927 0.54234 0.0
H751 H 0.06951 0.41271 0.45819 0.0
C752 C 0.86665 0.98694 0.95058 0.0
C753 C 0.86625 0.96811 0.99446 0.0
C754 C 0.88547 0.99044 0.90717 0.0
C755 C 0.90452 0.97482 0.90744 0.0
C756 C 0.90444 0.95606 0.95243 0.0
C757 C 0.88539 0.95292 0.99513 0.0
C758 C 0.8848 0.0107 0.86014 0.0
C759 C 0.92439 0.93909 0.95479 0.0
C760 C 0.94307 0.9721 0.75338 0.0
C761 C 0.96181 0.98631 0.77187 0.0
C762 C 0.92448 0.96799 0.79704 0.0
C763 C 0.92459 0.97823 0.8611 0.0
C764 C 0.94381 0.99203 0.8806 0.0
C765 C 0.96215 0.99581 0.83599 0.0
C766 C 0.90459 0.95291 0.77419 0.0
C767 C 0.94476 1.0033 0.94821 0.0
H768 H 0.85189 0.9986 0.94866 0.0
H769 H 0.88548 0.93843 0.02911 0.0
H770 H 0.90023 0.02191 0.868 0.0
H771 H 0.88548 1.00426 0.8083 0.0
H772 H 0.86892 0.02145 0.86641 0.0
H773 H 0.92197 0.92562 0.99326 0.0
H774 H 0.9262 0.93041 0.90598 0.0
H775 H 0.94088 0.94841 0.96477 0.0
H776 H 0.94281 0.96436 0.70434 0.0
H777 H 0.97645 0.00682 0.85092 0.0
H778 H 0.8881 0.96283 0.77663 0.0
H779 H 0.90283 0.93782 0.80757 0.0
H780 H 0.90701 0.9464 0.72279 0.0
H781 H 0.93003 0.01557 0.95401 0.0
H782 H 0.96121 0.01296 0.95659 0.0
H783 H 0.94299 0.98995 0.98719 0.0
C784 C 0.5311 0.89281 0.01968 0.0
C785 C 0.54331 0.873 0.99851 0.0
C786 C 0.52878 0.91236 0.9783 0.0
C787 C 0.53907 0.91218 0.9145 0.0
C788 C 0.55219 0.89257 0.89429 0.0
C789 C 0.55417 0.87337 0.93636 0.0
C790 C 0.51438 0.93272 1.00162 0.0
C791 C 0.56346 0.89146 0.82697 0.0
C792 C 0.5123 0.94577 0.77207 0.0
C793 C 0.52762 0.96443 0.76465 0.0
C794 C 0.51546 0.92914 0.82168 0.0
C795 C 0.53439 0.93124 0.86604 0.0
C796 C 0.54945 0.95068 0.86071 0.0
C797 C 0.54577 0.96719 0.81029 0.0
C798 C 0.49869 0.90904 0.82573 0.0
C799 C 0.56962 0.9538 0.90753 0.0
H800 H 0.52263 0.89268 0.06752 0.0
H801 H 0.56407 0.85836 0.92008 0.0
H802 H 0.52378 0.94926 0.99349 0.0
H803 H 0.49808 0.93349 0.97242 0.0
H804 H 0.50982 0.93142 0.05485 0.0
H805 H 0.5748 0.87597 0.82094 0.0
H806 H 0.54989 0.89095 0.78798 0.0
H807 H 0.57399 0.90725 0.81883 0.0
H808 H 0.49749 0.94437 0.73954 0.0
H809 H 0.55735 0.98192 0.80565 0.0
H810 H 0.49129 0.90795 0.87625 0.0
H811 H 0.50799 0.8925 0.81581 0.0
H812 H 0.4842 0.91058 0.78967 0.0
H813 H 0.56326 0.95459 0.95926 0.0
H814 H 0.5796 0.96987 0.89722 0.0
H815 H 0.58147 0.93864 0.90389 0.0
C816 C 0.64629 0.5132 0.94059 0.0
C817 C 0.6456 0.53232 0.98399 0.0
C818 C 0.62769 0.50821 0.89736 0.0
C819 C 0.60775 0.52274 0.89683 0.0
C820 C 0.60665 0.54162 0.94218 0.0
C821 C 0.62555 0.54625 0.98469 0.0
C822 C 0.63016 0.48785 0.85067 0.0
C823 C 0.5854 0.55695 0.94599 0.0
C824 C 0.5668 0.52805 0.74769 0.0
C825 C 0.54931 0.51202 0.7631 0.0
C826 C 0.58652 0.53069 0.78882 0.0
C827 C 0.588 0.51841 0.84937 0.0
C828 C 0.57001 0.50274 0.86589 0.0
C829 C 0.55117 0.49952 0.82232 0.0
C830 C 0.60606 0.54627 0.76708 0.0
C831 C 0.57049 0.48957 0.93019 0.0
H832 H 0.66175 0.50248 0.93877 0.0
H833 H 0.62462 0.56087 0.01866 0.0
H834 H 0.6132 0.47998 0.83773 0.0
H835 H 0.63852 0.49398 0.8047 0.0
H836 H 0.64146 0.47417 0.87209 0.0
H837 H 0.5869 0.57047 0.98524 0.0
H838 H 0.58252 0.56565 0.89787 0.0
H839 H 0.56982 0.54622 0.95604 0.0
H840 H 0.56518 0.53838 0.70333 0.0
H841 H 0.53753 0.48741 0.83533 0.0
H842 H 0.62235 0.53603 0.76361 0.0
H843 H 0.60911 0.56007 0.80452 0.0
H844 H 0.6026 0.55437 0.71833 0.0
H845 H 0.58613 0.47834 0.93211 0.0
H846 H 0.55488 0.4785 0.93671 0.0
H847 H 0.57159 0.50195 0.97242 0.0
C848 C 0.98129 0.63588 0.98262 0.0
C849 C 0.9965 0.65485 0.97706 0.0
C850 C 0.98374 0.6158 0.9425 0.0
C851 C 1.00174 0.61447 0.89446 0.0
C852 C 0.01753 0.63338 0.89019 0.0
C853 C 0.01461 0.65319 0.93081 0.0
C854 C 0.96654 0.59639 0.95161 0.0
C855 C 0.03728 0.63339 0.84144 0.0
C856 C 0.02382 0.55636 0.82447 0.0
C857 C 0.01145 0.55396 0.76483 0.0
C858 C 0.0203 0.57542 0.86753 0.0
C859 C 1.0045 0.59328 0.85017 0.0
C860 C 0.99154 0.59074 0.79062 0.0
C861 C 0.9947 0.57087 0.74969 0.0
C862 C 0.03339 0.57633 0.93219 0.0
C863 C 0.97448 0.60916 0.76985 0.0
H864 H 0.96701 0.63688 0.01739 0.0
H865 H 0.02669 0.66752 0.92622 0.0
H866 H 0.95067 0.60039 0.92274 0.0
H867 H 0.97349 0.57941 0.93494 0.0
H868 H 0.9613 0.59495 1.0043 0.0
H869 H 0.05171 0.64475 0.85847 0.0
H870 H 0.04432 0.61575 0.83248 0.0
H871 H 0.03082 0.64039 0.794 0.0
H872 H 0.03624 0.54304 0.83803 0.0
H873 H 0.9842 0.56869 0.70559 0.0
H874 H 0.02101 0.57864 0.9738 0.0
H875 H 0.04528 0.59148 0.93273 0.0
H876 H 0.04375 0.56036 0.94084 0.0
H877 H 0.96074 0.61105 0.80787 0.0
H878 H 0.96617 0.60506 0.72153 0.0
H879 H 0.98346 0.62616 0.76614 0.0
C880 C 0.12137 0.17088 0.36426 0.0
C881 C 0.1126 0.19362 0.36242 0.0
C882 C 0.1114 0.15423 0.40606 0.0
C883 C 0.09186 0.16041 0.44469 0.0
C884 C 0.08505 0.18399 0.44936 0.0
C885 C 0.0957 0.20035 0.40866 0.0
C886 C 0.12038 0.12964 0.40434 0.0
C887 C 0.06449 0.19149 0.49073 0.0
C888 C 0.03857 0.12268 0.44626 0.0
C889 C 0.03606 0.11868 0.51389 0.0
C890 C 0.05785 0.13472 0.42222 0.0
C891 C 0.07528 0.14236 0.46707 0.0
C892 C 0.07392 0.13607 0.53458 0.0
C893 C 0.054 0.12466 0.55754 0.0
C894 C 0.05843 0.14103 0.34976 0.0
C895 C 0.09263 0.1425 0.58361 0.0
H896 H 0.13482 0.1657 0.32968 0.0
H897 H 0.08881 0.21788 0.40783 0.0
H898 H 0.1194 0.12175 0.45422 0.0
H899 H 0.10957 0.11901 0.37031 0.0
H900 H 0.13861 0.12889 0.3866 0.0
H901 H 0.06248 0.21068 0.49246 0.0
H902 H 0.04835 0.18387 0.46982 0.0
H903 H 0.06634 0.18512 0.54206 0.0
H904 H 0.02467 0.11774 0.41277 0.0
H905 H 0.05218 0.12094 0.60978 0.0
H906 H 0.07491 0.1351 0.32701 0.0
H907 H 0.05754 0.16019 0.34444 0.0
H908 H 0.0438 0.1332 0.32155 0.0
H909 H 0.09452 0.12875 0.62157 0.0
H910 H 0.08765 0.15874 0.60982 0.0
H911 H 0.10967 0.14523 0.55931 0.0
C912 C 0.3258 0.10615 0.36532 0.0
C913 C 0.331 0.12219 0.31557 0.0
C914 C 0.34334 0.09666 0.40469 0.0
C915 C 0.36664 0.10366 0.39468 0.0
C916 C 0.3714 0.12245 0.35185 0.0
C917 C 0.3535 0.13138 0.31217 0.0
C918 C 0.33722 0.07691 0.45041 0.0
C919 C 0.39556 0.13173 0.3422 0.0
C920 C 0.40467 0.06874 0.50896 0.0
C921 C 0.40867 0.04909 0.4693 0.0
C922 C 0.3935 0.08836 0.48287 0.0
C923 C 0.3854 0.08771 0.41676 0.0
C924 C 0.39145 0.06871 0.3752 0.0
C925 C 0.40329 0.0497 0.40196 0.0
C926 C 0.38881 0.10899 0.5272 0.0
C927 C 0.3834 0.06731 0.30414 0.0
H928 H 0.30847 0.09892 0.36861 0.0
H929 H 0.35755 0.14421 0.27489 0.0
H930 H 0.34364 0.06031 0.42898 0.0
H931 H 0.34564 0.07928 0.49931 0.0
H932 H 0.31819 0.07538 0.45805 0.0
H933 H 0.40204 0.12611 0.29301 0.0
H934 H 0.39525 0.15103 0.34228 0.0
H935 H 0.40772 0.12578 0.38095 0.0
H936 H 0.40924 0.06828 0.56098 0.0
H937 H 0.40652 0.03445 0.37151 0.0
H938 H 0.37044 0.10875 0.54351 0.0
H939 H 0.39168 0.12542 0.49994 0.0
H940 H 0.40007 0.10885 0.57188 0.0
H941 H 0.36441 0.06408 0.30288 0.0
H942 H 0.39222 0.05313 0.27634 0.0
H943 H 0.38667 0.08394 0.27843 0.0
C944 C 0.39298 0.36262 0.33728 0.0
C945 C 0.40239 0.34019 0.34234 0.0
C946 C 0.40384 0.38159 0.36863 0.0
C947 C 0.42485 0.37792 0.40346 0.0
C948 C 0.43173 0.35492 0.41863 0.0
C949 C 0.42022 0.33629 0.38826 0.0
C950 C 0.39458 0.40568 0.35665 0.0
C951 C 0.45364 0.34996 0.45723 0.0
C952 C 0.47872 0.40914 0.35052 0.0
C953 C 0.48672 0.4181 0.41082 0.0
C954 C 0.45732 0.39788 0.34605 0.0
C955 C 0.44317 0.39613 0.40324 0.0
C956 C 0.44975 0.408 0.46199 0.0
C957 C 0.47168 0.41872 0.46539 0.0
C958 C 0.45104 0.38599 0.28149 0.0
C959 C 0.43454 0.40806 0.52263 0.0
H960 H 0.37861 0.36569 0.30378 0.0
H961 H 0.42741 0.31899 0.39359 0.0
H962 H 0.39978 0.41782 0.39678 0.0
H963 H 0.40148 0.41228 0.3092 0.0
H964 H 0.37535 0.40548 0.35277 0.0
H965 H 0.45518 0.33132 0.47049 0.0
H966 H 0.469 0.35476 0.42711 0.0
H967 H 0.45416 0.36041 0.50336 0.0
H968 H 0.48999 0.40956 0.3076 0.0
H969 H 0.47758 0.42616 0.51187 0.0
H970 H 0.43382 0.392 0.2641 0.0
H971 H 0.45003 0.36692 0.28868 0.0
H972 H 0.46388 0.38945 0.2418 0.0
H973 H 0.41588 0.4068 0.50931 0.0
H974 H 0.43737 0.42404 0.55263 0.0
H975 H 0.43905 0.39307 0.55427 0.0
C976 C 0.16362 0.39644 0.31916 0.0
C977 C 0.18537 0.40715 0.32703 0.0
C978 C 0.14369 0.40603 0.34888 0.0
C979 C 0.14562 0.4272 0.38452 0.0
C980 C 0.16796 0.43587 0.40081 0.0
C981 C 0.18757 0.42548 0.37259 0.0
C982 C 0.12044 0.3949 0.33543 0.0
C983 C 0.17114 0.45838 0.43877 0.0
C984 C 0.11098 0.47946 0.33824 0.0
C985 C 0.10301 0.48669 0.40037 0.0
C986 C 0.12263 0.45834 0.33046 0.0
C987 C 0.12589 0.44386 0.3862 0.0
C988 C 0.1145 0.44935 0.44639 0.0
C989 C 0.10334 0.47099 0.45319 0.0
C990 C 0.13363 0.45294 0.26424 0.0
C991 C 0.11567 0.43328 0.50489 0.0
H992 H 0.16186 0.3818 0.28554 0.0
H993 H 0.20428 0.43379 0.37953 0.0
H994 H 0.10691 0.40101 0.37053 0.0
H995 H 0.11479 0.39895 0.28432 0.0
H996 H 0.1219 0.37571 0.33878 0.0
H997 H 0.1896 0.4616 0.4519 0.0
H998 H 0.16493 0.47311 0.40827 0.0
H999 H 0.16087 0.45832 0.485 0.0
H1000 H 0.10977 0.49126 0.29676 0.0
H1001 H 0.09651 0.47627 0.50094 0.0
H1002 H 0.12799 0.4356 0.24643 0.0
H1003 H 0.15283 0.45259 0.26921 0.0
H1004 H 0.129 0.4659 0.22594 0.0
H1005 H 0.11436 0.41489 0.48845 0.0
H1006 H 0.10164 0.43708 0.54104 0.0
H1007 H 0.13252 0.43541 0.53074 0.0
C1008 C 0.89158 0.84602 0.90912 0.0
C1009 C 0.90342 0.8248 0.90201 0.0
C1010 C 0.89838 0.8656 0.87279 0.0
C1011 C 0.91754 0.86379 0.82932 0.0
C1012 C 0.92682 0.84159 0.81413 0.0
C1013 C 0.91954 0.82235 0.85045 0.0
C1014 C 0.88672 0.88856 0.8868 0.0
C1015 C 0.94687 0.83857 0.76661 0.0
C1016 C 0.95137 0.906 0.72694 0.0
C1017 C 0.97047 0.90949 0.76873 0.0
C1018 C 0.93174 0.89393 0.74929 0.0
C1019 C 0.93192 0.88444 0.81368 0.0
C1020 C 0.95005 0.89048 0.85819 0.0
C1021 C 0.96903 0.90322 0.83518 0.0
C1022 C 0.91199 0.8895 0.70193 0.0
C1023 C 0.95088 0.88113 0.92783 0.0
H1024 H 0.87843 0.8479 0.94711 0.0
H1025 H 0.9287 0.80607 0.84359 0.0
H1026 H 0.89453 0.89654 0.93166 0.0
H1027 H 0.88868 0.90077 0.84502 0.0
H1028 H 0.86794 0.88601 0.89686 0.0
H1029 H 0.95055 0.81999 0.75568 0.0
H1030 H 0.94322 0.84748 0.71931 0.0
H1031 H 0.96276 0.84648 0.78824 0.0
H1032 H 0.95234 0.91148 0.67588 0.0
H1033 H 0.98379 0.90621 0.86748 0.0
H1034 H 0.8953 0.88738 0.72857 0.0
H1035 H 0.91544 0.87335 0.67336 0.0
H1036 H 0.91029 0.90394 0.66605 0.0
H1037 H 0.93394 0.88359 0.95283 0.0
H1038 H 0.96453 0.88973 0.95817 0.0
H1039 H 0.95457 0.8622 0.92615 0.0
C1040 C 0.6649 0.93894 0.89666 0.0
C1041 C 0.67952 0.92035 0.88052 0.0
C1042 C 0.65206 0.95034 0.84819 0.0
C1043 C 0.65313 0.94241 0.78158 0.0
C1044 C 0.66635 0.92235 0.76577 0.0
C1045 C 0.67989 0.91184 0.81535 0.0
C1046 C 0.63874 0.97196 0.86816 0.0
C1047 C 0.66717 0.91234 0.69671 0.0
C1048 C 0.60735 0.9797 0.71306 0.0
C1049 C 0.62085 0.9996 0.70091 0.0
C1050 C 0.61802 0.95826 0.72556 0.0
C1051 C 0.64244 0.95722 0.72982 0.0
C1052 C 0.65574 0.97565 0.70384 0.0
C1053 C 0.64466 0.9966 0.68849 0.0
C1054 C 0.60334 0.93773 0.74433 0.0
C1055 C 0.68188 0.97454 0.70177 0.0
H1056 H 0.66489 0.9458 0.94676 0.0
H1057 H 0.69121 0.89741 0.8028 0.0
H1058 H 0.6449 0.9871 0.83938 0.0
H1059 H 0.62002 0.96963 0.85761 0.0
H1060 H 0.64062 0.97618 0.92161 0.0
H1061 H 0.66535 0.89315 0.69863 0.0
H1062 H 0.65342 0.91939 0.66401 0.0
H1063 H 0.68439 0.91601 0.67455 0.0
H1064 H 0.58878 0.98102 0.71955 0.0
H1065 H 0.65511 0.01125 0.67329 0.0
H1066 H 0.60316 0.93612 0.79891 0.0
H1067 H 0.61088 0.92148 0.72365 0.0
H1068 H 0.58516 0.93963 0.72667 0.0
H1069 H 0.68887 0.97496 0.75298 0.0
H1070 H 0.68946 0.98928 0.67395 0.0
H1071 H 0.6876 0.95807 0.67821 0.0
C1072 C 0.60677 0.68656 0.86282 0.0
C1073 C 0.60731 0.68467 0.9322 0.0
C1074 C 0.59492 0.67008 0.82385 0.0
C1075 C 0.58376 0.65126 0.85516 0.0
C1076 C 0.58796 0.6471 0.92308 0.0
C1077 C 0.59958 0.6639 0.96082 0.0
C1078 C 0.59213 0.67445 0.75079 0.0
C1079 C 0.5772 0.6267 0.95831 0.0
C1080 C 0.52137 0.63597 0.82923 0.0
C1081 C 0.52321 0.61234 0.81319 0.0
C1082 C 0.54115 0.64983 0.83548 0.0
C1083 C 0.56329 0.63986 0.8242 0.0
C1084 C 0.56492 0.6171 0.7979 0.0
C1085 C 0.5448 0.60333 0.79357 0.0
C1086 C 0.53842 0.67439 0.86123 0.0
C1087 C 0.58803 0.60664 0.7799 0.0
H1088 H 0.61374 0.70192 0.83938 0.0
H1089 H 0.60005 0.66174 0.01396 0.0
H1090 H 0.58819 0.65828 0.72283 0.0
H1091 H 0.57767 0.68688 0.743 0.0
H1092 H 0.60812 0.68241 0.73024 0.0
H1093 H 0.58495 0.624 0.00804 0.0
H1094 H 0.5583 0.62979 0.9645 0.0
H1095 H 0.57939 0.61053 0.92899 0.0
H1096 H 0.50452 0.64321 0.84159 0.0
H1097 H 0.54629 0.58518 0.77949 0.0
H1098 H 0.54855 0.68662 0.83053 0.0
H1099 H 0.54521 0.67553 0.91258 0.0
H1100 H 0.52001 0.68012 0.86154 0.0
H1101 H 0.60002 0.61995 0.76008 0.0
H1102 H 0.58591 0.59261 0.74248 0.0
H1103 H 0.59614 0.59921 0.82478 0.0
C1104 C 0.83458 0.59258 0.88751 0.0
C1105 C 0.83342 0.61123 0.93246 0.0
C1106 C 0.85599 0.58447 0.86424 0.0
C1107 C 0.87662 0.59547 0.88598 0.0
C1108 C 0.87525 0.61664 0.92172 0.0
C1109 C 0.85357 0.62425 0.94512 0.0
C1110 C 0.85659 0.56204 0.82503 0.0
C1111 C 0.89686 0.62958 0.94239 0.0
C1112 C 0.92133 0.55174 0.94127 0.0
C1113 C 0.93561 0.54995 0.88563 0.0
C1114 C 0.90268 0.56728 0.94272 0.0
C1115 C 0.89838 0.58166 0.8873 0.0
C1116 C 0.91343 0.58074 0.83206 0.0
C1117 C 0.93183 0.5647 0.83165 0.0
C1118 C 0.8869 0.5674 1.00248 0.0
C1119 C 0.91009 0.59655 0.77356 0.0
H1120 H 0.81916 0.58245 0.87685 0.0
H1121 H 0.85271 0.6391 0.97831 0.0
H1122 H 0.86972 0.56283 0.78507 0.0
H1123 H 0.86149 0.54759 0.85837 0.0
H1124 H 0.83944 0.55794 0.80264 0.0
H1125 H 0.89296 0.64798 0.95502 0.0
H1126 H 0.90447 0.62122 0.98673 0.0
H1127 H 0.91011 0.62905 0.90262 0.0
H1128 H 0.92416 0.54023 0.98277 0.0
H1129 H 0.94321 0.56361 0.78908 0.0
H1130 H 0.86903 0.56243 0.98748 0.0
H1131 H 0.88603 0.5851 0.02433 0.0
H1132 H 0.89284 0.55523 0.04143 0.0
H1133 H 0.89175 0.59648 0.75676 0.0
H1134 H 0.92138 0.59159 0.73123 0.0
H1135 H 0.91435 0.61463 0.78854 0.0
C1136 C 0.02639 0.17376 0.8336 0.0
C1137 C 0.03066 0.17391 0.90203 0.0
C1138 C 0.02297 0.15274 0.79821 0.0
C1139 C 0.02426 0.13105 0.83127 0.0
C1140 C 0.0287 0.13122 0.90045 0.0
C1141 C 0.03193 0.15244 0.93447 0.0
C1142 C 0.017 0.15383 0.72577 0.0
C1143 C 0.03041 0.10924 0.94016 0.0
C1144 C 0.99202 0.07762 0.76393 0.0
C1145 C 0.00922 0.06555 0.72834 0.0
C1146 C 0.99661 0.09893 0.79604 0.0
C1147 C 0.01925 0.10853 0.79461 0.0
C1148 C 0.03685 0.09637 0.75913 0.0
C1149 C 0.03149 0.07541 0.725 0.0
C1150 C 0.97713 0.11112 0.83211 0.0
C1151 C 0.06147 0.10521 0.75851 0.0
H1152 H 0.02514 0.19018 0.80788 0.0
H1153 H 0.0357 0.15213 0.98702 0.0
H1154 H 0.02946 0.14327 0.69666 0.0
H1155 H 0.99946 0.14636 0.71779 0.0
H1156 H 0.01716 0.17187 0.70658 0.0
H1157 H 0.02191 0.11156 0.98907 0.0
H1158 H 0.02249 0.09405 0.91515 0.0
H1159 H 0.04901 0.10557 0.94967 0.0
H1160 H 0.97465 0.07045 0.76616 0.0
H1161 H 0.04475 0.06669 0.69606 0.0
H1162 H 0.97577 0.12941 0.81544 0.0
H1163 H 0.98089 0.11145 0.88597 0.0
H1164 H 0.96011 0.10247 0.82418 0.0
H1165 H 0.0621 0.12291 0.73733 0.0
H1166 H 0.07323 0.09371 0.72955 0.0
H1167 H 0.06805 0.10647 0.81008 0.0
C1168 C 0.36747 0.0376 0.90535 0.0
C1169 C 0.34632 0.03228 0.87442 0.0
C1170 C 0.38881 0.03459 0.87243 0.0
C1171 C 0.38927 0.02578 0.80671 0.0
C1172 C 0.36783 0.02042 0.77527 0.0
C1173 C 0.34666 0.02403 0.80903 0.0
C1174 C 0.4107 0.04167 0.9079 0.0
C1175 C 0.36727 0.01018 0.7066 0.0
C1176 C 0.44349 0.03083 0.69627 0.0
C1177 C 0.45451 0.00945 0.70728 0.0
C1178 C 0.4227 0.03677 0.72962 0.0
C1179 C 0.41205 0.02055 0.77282 0.0
C1180 C 0.42315 0.99891 0.78345 0.0
C1181 C 0.44417 0.99375 0.75107 0.0
C1182 C 0.41206 0.06034 0.71822 0.0
C1183 C 0.41268 0.98099 0.82869 0.0
H1184 H 0.36731 0.04449 0.95541 0.0
H1185 H 0.33036 0.01986 0.78487 0.0
H1186 H 0.42528 0.02969 0.89681 0.0
H1187 H 0.41547 0.05929 0.89093 0.0
H1188 H 0.40823 0.04242 0.96238 0.0
H1189 H 0.34931 0.00776 0.68775 0.0
H1190 H 0.37682 0.02161 0.67223 0.0
H1191 H 0.37616 0.99307 0.70677 0.0
H1192 H 0.45091 0.04277 0.66089 0.0
H1193 H 0.45238 0.97704 0.7591 0.0
H1194 H 0.40838 0.06898 0.76635 0.0
H1195 H 0.3953 0.05837 0.69169 0.0
H1196 H 0.42355 0.07177 0.68869 0.0
H1197 H 0.41148 0.98813 0.87971 0.0
H1198 H 0.42301 0.9647 0.83006 0.0
H1199 H 0.39478 0.97675 0.81224 0.0
C1200 C 0.48295 0.36137 0.88763 0.0
C1201 C 0.48334 0.33849 0.86296 0.0
C1202 C 0.48699 0.38048 0.84634 0.0
C1203 C 0.49158 0.37683 0.77823 0.0
C1204 C 0.49204 0.35382 0.75276 0.0
C1205 C 0.48783 0.33495 0.79532 0.0
C1206 C 0.48603 0.40468 0.87563 0.0
C1207 C 0.49701 0.34917 0.6806 0.0
C1208 C 0.48022 0.42966 0.67033 0.0
C1209 C 0.5022 0.44016 0.66849 0.0
C1210 C 0.47666 0.40856 0.70345 0.0
C1211 C 0.49565 0.3973 0.73431 0.0
C1212 C 0.51818 0.40697 0.72845 0.0
C1213 C 0.52118 0.42829 0.69579 0.0
C1214 C 0.45234 0.399 0.70839 0.0
C1215 C 0.53897 0.39546 0.75983 0.0
H1216 H 0.47899 0.36442 0.93936 0.0
H1217 H 0.48827 0.31738 0.77575 0.0
H1218 H 0.50279 0.4137 0.86761 0.0
H1219 H 0.47238 0.41496 0.85041 0.0
H1220 H 0.48229 0.40459 0.92953 0.0
H1221 H 0.49714 0.33031 0.66861 0.0
H1222 H 0.48374 0.35778 0.64938 0.0
H1223 H 0.5141 0.35665 0.66711 0.0
H1224 H 0.46554 0.43842 0.64799 0.0
H1225 H 0.53827 0.43612 0.69427 0.0
H1226 H 0.44691 0.39851 0.76102 0.0
H1227 H 0.45183 0.38092 0.68917 0.0
H1228 H 0.43954 0.40958 0.68054 0.0
H1229 H 0.5376 0.3968 0.81448 0.0
H1230 H 0.55556 0.40359 0.74431 0.0
H1231 H 0.53946 0.37672 0.74681 0.0
C1232 C 0.16644 0.49566 0.89721 0.0
C1233 C 0.18808 0.4912 0.86772 0.0
C1234 C 0.14633 0.4992 0.8588 0.0
C1235 C 0.14774 0.49863 0.78877 0.0
C1236 C 0.16964 0.49472 0.7586 0.0
C1237 C 0.18944 0.49084 0.7983 0.0
C1238 C 0.12337 0.50285 0.89334 0.0
C1239 C 0.17209 0.49433 0.68426 0.0
C1240 C 0.09185 0.48373 0.69573 0.0
C1241 C 0.08269 0.50576 0.68133 0.0
C1242 C 0.1131 0.48117 0.72936 0.0
C1243 C 0.1261 0.50111 0.74764 0.0
C1244 C 0.11767 0.52337 0.72957 0.0
C1245 C 0.09605 0.52544 0.69708 0.0
C1246 C 0.1211 0.45709 0.74784 0.0
C1247 C 0.13113 0.54508 0.74648 0.0
H1248 H 0.16506 0.49561 0.95068 0.0
H1249 H 0.20606 0.48754 0.77495 0.0
H1250 H 0.1154 0.51943 0.87727 0.0
H1251 H 0.11119 0.48869 0.87949 0.0
H1252 H 0.12519 0.50322 0.94806 0.0
H1253 H 0.19046 0.49255 0.66838 0.0
H1254 H 0.16203 0.47961 0.66318 0.0
H1255 H 0.16483 0.51051 0.66299 0.0
H1256 H 0.0821 0.46834 0.68213 0.0
H1257 H 0.08931 0.54255 0.68586 0.0
H1258 H 0.12107 0.45538 0.8025 0.0
H1259 H 0.13914 0.45409 0.73074 0.0
H1260 H 0.10979 0.44331 0.72652 0.0
H1261 H 0.13141 0.54764 0.80091 0.0
H1262 H 0.12349 0.5608 0.72344 0.0
H1263 H 0.14942 0.54331 0.72993 0.0
C1264 C 0.00601 0.84711 0.42451 0.0
C1265 C 0.99332 0.84687 0.36527 0.0
C1266 C 0.0099 0.86807 0.45988 0.0
C1267 C 1.00134 0.88951 0.43501 0.0
C1268 C 0.98901 0.8892 0.37423 0.0
C1269 C 0.98491 0.86802 0.34086 0.0
C1270 C 0.02254 0.86714 0.525 0.0
C1271 C 0.97974 0.91123 0.34465 0.0
C1272 C 0.99498 0.94246 0.55213 0.0
C1273 C 0.01589 0.95437 0.54155 0.0
C1274 C 0.98977 0.92165 0.51727 0.0
C1275 C 0.00593 0.91225 0.47105 0.0
C1276 C 0.02676 0.92468 0.45922 0.0
C1277 C 0.03155 0.94528 0.49493 0.0
C1278 C 0.96732 0.90933 0.53214 0.0
C1279 C 0.04425 0.91604 0.40926 0.0
H1280 H 0.0123 0.8308 0.44418 0.0
H1281 H 0.97505 0.86798 0.29511 0.0
H1282 H 0.03686 0.88001 0.52611 0.0
H1283 H 0.01022 0.87171 0.56515 0.0
H1284 H 0.02983 0.84965 0.53508 0.0
H1285 H 0.97287 0.90855 0.29378 0.0
H1286 H 0.96546 0.91786 0.37628 0.0
H1287 H 0.99358 0.9246 0.34305 0.0
H1288 H 0.98303 0.94894 0.58931 0.0
H1289 H 0.04785 0.95424 0.4869 0.0
H1290 H 0.97094 0.89449 0.56538 0.0
H1291 H 0.95925 0.90226 0.48644 0.0
H1292 H 0.95463 0.92106 0.55683 0.0
H1293 H 0.05113 0.89891 0.42477 0.0
H1294 H 0.05906 0.9282 0.40338 0.0
H1295 H 0.03576 0.91356 0.36041 0.0
C1296 C 0.65313 0.96951 0.35127 0.0
C1297 C 0.67433 0.97868 0.3733 0.0
C1298 C 0.63204 0.97535 0.38203 0.0
C1299 C 0.63177 0.99042 0.43775 0.0
C1300 C 0.65324 0.99965 0.46079 0.0
C1301 C 0.67419 0.99396 0.42773 0.0
C1302 C 0.60992 0.96573 0.3536 0.0
C1303 C 0.65433 0.016 0.51932 0.0
C1304 C 0.57628 0.02441 0.4784 0.0
C1305 C 0.56577 0.01072 0.52709 0.0
C1306 C 0.59741 0.01783 0.44854 0.0
C1307 C 0.60893 0.99731 0.469 0.0
C1308 C 0.59838 0.9834 0.51846 0.0
C1309 C 0.57686 0.99014 0.54644 0.0
C1310 C 0.60753 0.03304 0.39538 0.0
C1311 C 0.61024 0.96181 0.54351 0.0
H1312 H 0.65299 0.95801 0.30858 0.0
H1313 H 0.69046 1.00122 0.44512 0.0
H1314 H 0.60118 0.95493 0.39127 0.0
H1315 H 0.59818 0.98027 0.34048 0.0
H1316 H 0.61286 0.95488 0.30871 0.0
H1317 H 0.67081 0.01367 0.54715 0.0
H1318 H 0.65388 0.03415 0.50126 0.0
H1319 H 0.63956 0.01358 0.55368 0.0
H1320 H 0.5679 0.04043 0.46361 0.0
H1321 H 0.56914 0.97974 0.58513 0.0
H1322 H 0.61124 0.02255 0.35034 0.0
H1323 H 0.62421 0.04051 0.41279 0.0
H1324 H 0.59573 0.04752 0.38177 0.0
H1325 H 0.61376 0.94964 0.50197 0.0
H1326 H 0.5997 0.95263 0.58116 0.0
H1327 H 0.62724 0.96656 0.56568 0.0
C1328 C 0.53847 0.68907 0.47251 0.0
C1329 C 0.53723 0.6888 0.40318 0.0
C1330 C 0.53457 0.66871 0.50941 0.0
C1331 C 0.53013 0.64739 0.47606 0.0
C1332 C 0.52902 0.6471 0.40596 0.0
C1333 C 0.53224 0.66782 0.37057 0.0
C1334 C 0.53537 0.66996 0.584 0.0
C1335 C 0.52505 0.62474 0.36812 0.0
C1336 C 0.54385 0.58946 0.55816 0.0
C1337 C 0.52161 0.58028 0.56914 0.0
C1338 C 0.54691 0.61146 0.52955 0.0
C1339 C 0.52727 0.62519 0.51372 0.0
C1340 C 0.50482 0.6168 0.52961 0.0
C1341 C 0.50224 0.59441 0.55646 0.0
C1342 C 0.57118 0.61935 0.51276 0.0
C1343 C 0.48343 0.63116 0.51604 0.0
H1344 H 0.54237 0.70526 0.49783 0.0
H1345 H 0.53161 0.66749 0.31695 0.0
H1346 H 0.51928 0.66244 0.60509 0.0
H1347 H 0.55013 0.6595 0.60274 0.0
H1348 H 0.53731 0.68806 0.60253 0.0
H1349 H 0.52507 0.62735 0.31371 0.0
H1350 H 0.53879 0.61198 0.38071 0.0
H1351 H 0.50818 0.61701 0.38246 0.0
H1352 H 0.55901 0.57912 0.56984 0.0
H1353 H 0.48496 0.58779 0.5658 0.0
H1354 H 0.57416 0.63741 0.53011 0.0
H1355 H 0.57338 0.61916 0.45822 0.0
H1356 H 0.58467 0.60796 0.5348 0.0
H1357 H 0.48572 0.64908 0.5355 0.0
H1358 H 0.46762 0.62352 0.53855 0.0
H1359 H 0.48066 0.63244 0.46187 0.0
C1360 C 0.8574 0.52643 0.34206 0.0
C1361 C 0.83568 0.52819 0.3734 0.0
C1362 C 0.87817 0.52475 0.37871 0.0
C1363 C 0.87742 0.52458 0.44882 0.0
C1364 C 0.85556 0.52611 0.48085 0.0
C1365 C 0.83504 0.52804 0.44291 0.0
C1366 C 0.901 0.52348 0.34226 0.0
C1367 C 0.85386 0.52579 0.55533 0.0
C1368 C 0.93083 0.49943 0.53578 0.0
C1369 C 0.94346 0.51947 0.55291 0.0
C1370 C 0.90911 0.50084 0.50375 0.0
C1371 C 0.89956 0.52285 0.48819 0.0
C1372 C 0.91173 0.54316 0.50789 0.0
C1373 C 0.93329 0.54121 0.54052 0.0
C1374 C 0.89668 0.47869 0.48486 0.0
C1375 C 0.90242 0.56703 0.49238 0.0
H1376 H 0.85824 0.52697 0.28854 0.0
H1377 H 0.81842 0.52928 0.46776 0.0
H1378 H 0.91225 0.53824 0.35739 0.0
H1379 H 0.9103 0.50726 0.3554 0.0
H1380 H 0.89871 0.52392 0.2877 0.0
H1381 H 0.8356 0.5267 0.57283 0.0
H1382 H 0.86192 0.5097 0.57474 0.0
H1383 H 0.86359 0.54068 0.5767 0.0
H1384 H 0.93807 0.48252 0.54599 0.0
H1385 H 0.94241 0.55687 0.55522 0.0
H1386 H 0.89563 0.47721 0.43018 0.0
H1387 H 0.87864 0.47901 0.50394 0.0
H1388 H 0.90559 0.46301 0.50419 0.0
H1389 H 0.90271 0.5697 0.43807 0.0
H1390 H 0.91278 0.58104 0.51629 0.0
H1391 H 0.88412 0.56865 0.50874 0.0
loop_
_geom_bond_atom_site_label_1
_geom_bond_atom_site_label_2
_geom_bond_distance
_geom_bond_site_symmetry_2
_ccdc_geom_bond_type
C0 C1 1.384 . S
C0 H13 0.947 . S
C0 C35 1.382 . S
C1 C0 1.384 . S
C1 C2 1.378 . S
C2 C1 1.378 . S
C2 C3 1.378 . S
C2 H14 0.952 . S
C3 C2 1.378 . S
C3 H15 0.950 . S
C3 C34 1.383 . S
H4 C23 0.947 . S
H5 C24 0.946 . S
H6 C26 0.953 . S
H7 C27 0.945 . S
H8 C29 0.952 . S
H9 C30 0.949 . S
H10 C32 0.950 . S
H11 C33 0.948 . S
H12 C35 0.951 . S
H13 C0 0.947 . S
H14 C2 0.952 . S
H15 C3 0.950 . S
N16 C19 1.382 . S
N16 C21 1.363 . S
N17 C19 1.371 . S
N17 C20 1.372 . S
N18 C20 1.361 . S
N18 C21 1.377 . S
C19 N16 1.382 . S
C19 N17 1.371 . S
C19 C22 1.480 . S
C20 N17 1.372 . S
C20 N18 1.361 . S
C20 C28 1.457 . S
C21 N16 1.363 . S
C21 N18 1.377 . S
C21 C34 1.479 . S
C22 C19 1.480 . S
C22 C23 1.383 . S
C22 C27 1.385 . S
C23 H4 0.947 . S
C23 C22 1.383 . S
C23 C24 1.388 . S
C24 H5 0.946 . S
C24 C23 1.388 . S
C24 C25 1.384 . S
C25 C24 1.384 . S
C25 C26 1.377 . S
C26 H6 0.953 . S
C26 C25 1.377 . S
C26 C27 1.369 . S
C27 H7 0.945 . S
C27 C22 1.385 . S
C27 C26 1.369 . S
C28 C20 1.457 . S
C28 C29 1.372 . S
C28 C33 1.364 . S
C29 H8 0.952 . S
C29 C28 1.372 . S
C29 C30 1.389 1_554 S
C30 H9 0.949 . S
C30 C29 1.389 1_556 S
C30 C31 1.387 1_556 S
C31 C30 1.387 1_554 S
C31 C32 1.372 . S
C32 H10 0.950 . S
C32 C31 1.372 . S
C32 C33 1.379 . S
C33 H11 0.948 . S
C33 C28 1.364 . S
C33 C32 1.379 . S
C34 C3 1.383 . S
C34 C21 1.479 . S
C34 C35 1.398 . S
C35 C0 1.382 . S
C35 H12 0.951 . S
C35 C34 1.398 . S
C36 C37 1.384 . S
C36 H49 0.947 . S
C36 C71 1.382 . S
C37 C36 1.384 . S
C37 C38 1.378 . S
C38 C37 1.378 . S
C38 C39 1.378 . S
C38 H50 0.952 . S
C39 C38 1.378 . S
C39 H51 0.950 . S
C39 C70 1.383 . S
H40 C59 0.947 . S
H41 C60 0.946 . S
H42 C62 0.953 . S
H43 C63 0.945 . S
H44 C65 0.952 . S
H45 C66 0.949 1_556 S
H46 C68 0.950 . S
H47 C69 0.948 . S
H48 C71 0.951 . S
H49 C36 0.947 . S
H50 C38 0.952 . S
H51 C39 0.950 . S
N52 C55 1.382 . S
N52 C57 1.363 . S
N53 C55 1.371 . S
N53 C56 1.372 . S
N54 C56 1.361 . S
N54 C57 1.377 . S
C55 N52 1.382 . S
C55 N53 1.371 . S
C55 C58 1.480 . S
C56 N53 1.372 . S
C56 N54 1.361 . S
C56 C64 1.457 . S
C57 N52 1.363 . S
C57 N54 1.377 . S
C57 C70 1.479 . S
C58 C55 1.480 . S
C58 C59 1.383 . S
C58 C63 1.385 . S
C59 H40 0.947 . S
C59 C58 1.383 . S
C59 C60 1.388 . S
C60 H41 0.946 . S
C60 C59 1.388 . S
C60 C61 1.384 . S
C61 C60 1.384 . S
C61 C62 1.377 . S
C62 H42 0.953 . S
C62 C61 1.377 . S
C62 C63 1.369 . S
C63 H43 0.945 . S
C63 C58 1.385 . S
C63 C62 1.369 . S
C64 C56 1.457 . S
C64 C65 1.372 . S
C64 C69 1.364 . S
C65 H44 0.952 . S
C65 C64 1.372 . S
C65 C66 1.389 . S
C66 H45 0.949 1_554 S
C66 C65 1.389 . S
C66 C67 1.387 . S
C67 C66 1.387 . S
C67 C68 1.372 . S
C68 H46 0.950 . S
C68 C67 1.372 . S
C68 C69 1.379 . S
C69 H47 0.948 . S
C69 C64 1.364 . S
C69 C68 1.379 . S
C70 C39 1.383 . S
C70 C57 1.479 . S
C70 C71 1.398 . S
C71 C36 1.382 . S
C71 H48 0.951 . S
C71 C70 1.398 . S
C72 C73 1.384 . S
C72 H85 0.947 . S
C72 C107 1.382 . S
C73 C72 1.384 . S
C73 C74 1.378 . S
C74 C73 1.378 . S
C74 C75 1.378 . S
C74 H86 0.952 . S
C75 C74 1.378 . S
C75 H87 0.950 . S
C75 C106 1.383 . S
H76 C95 0.947 . S
H77 C96 0.946 . S
H78 C98 0.953 . S
H79 C99 0.945 . S
H80 C101 0.952 . S
H81 C102 0.949 1_556 S
H82 C104 0.950 . S
H83 C105 0.948 . S
H84 C107 0.951 . S
H85 C72 0.947 . S
H86 C74 0.952 . S
H87 C75 0.950 . S
N88 C91 1.382 . S
N88 C93 1.363 . S
N89 C91 1.371 . S
N89 C92 1.372 . S
N90 C92 1.361 . S
N90 C93 1.377 . S
C91 N88 1.382 . S
C91 N89 1.371 . S
C91 C94 1.480 . S
C92 N89 1.372 . S
C92 N90 1.361 . S
C92 C100 1.457 . S
C93 N88 1.363 . S
C93 N90 1.377 . S
C93 C106 1.479 . S
C94 C91 1.480 . S
C94 C95 1.383 . S
C94 C99 1.385 . S
C95 H76 0.947 . S
C95 C94 1.383 . S
C95 C96 1.388 . S
C96 H77 0.946 . S
C96 C95 1.388 . S
C96 C97 1.384 . S
C97 C96 1.384 . S
C97 C98 1.377 . S
C98 H78 0.953 . S
C98 C97 1.377 . S
C98 C99 1.369 . S
C99 H79 0.945 . S
C99 C94 1.385 . S
C99 C98 1.369 . S
C100 C92 1.457 . S
C100 C101 1.372 . S
C100 C105 1.364 . S
C101 H80 0.952 . S
C101 C100 1.372 . S
C101 C102 1.389 . S
C102 H81 0.949 1_554 S
C102 C101 1.389 . S
C102 C103 1.387 . S
C103 C102 1.387 . S
C103 C104 1.372 . S
C104 H82 0.950 . S
C104 C103 1.372 . S
C104 C105 1.379 . S
C105 H83 0.948 . S
C105 C100 1.364 . S
C105 C104 1.379 . S
C106 C75 1.383 . S
C106 C93 1.479 . S
C106 C107 1.398 . S
C107 C72 1.382 . S
C107 H84 0.951 . S
C107 C106 1.398 . S
C108 C109 1.384 . S
C108 H121 0.947 . S
C108 C143 1.382 . S
C109 C108 1.384 . S
C109 C110 1.378 1_554 S
C110 C109 1.378 1_556 S
C110 C111 1.378 1_556 S
C110 H122 0.952 . S
C111 C110 1.378 1_554 S
C111 H123 0.950 . S
C111 C142 1.383 . S
H112 C131 0.947 . S
H113 C132 0.946 . S
H114 C134 0.953 . S
H115 C135 0.945 . S
H116 C137 0.952 . S
H117 C138 0.949 . S
H118 C140 0.950 . S
H119 C141 0.948 . S
H120 C143 0.951 . S
H121 C108 0.947 . S
H122 C110 0.952 . S
H123 C111 0.950 . S
N124 C127 1.382 . S
N124 C129 1.363 . S
N125 C127 1.371 . S
N125 C128 1.372 . S
N126 C128 1.361 . S
N126 C129 1.377 . S
C127 N124 1.382 . S
C127 N125 1.371 . S
C127 C130 1.480 . S
C128 N125 1.372 . S
C128 N126 1.361 . S
C128 C136 1.457 . S
C129 N124 1.363 . S
C129 N126 1.377 . S
C129 C142 1.479 . S
C130 C127 1.480 . S
C130 C131 1.383 . S
C130 C135 1.385 . S
C131 H112 0.947 . S
C131 C130 1.383 . S
C131 C132 1.388 . S
C132 H113 0.946 . S
C132 C131 1.388 . S
C132 C133 1.384 . S
C133 C132 1.384 . S
C133 C134 1.377 . S
C134 H114 0.953 . S
C134 C133 1.377 . S
C134 C135 1.369 . S
C135 H115 0.945 . S
C135 C130 1.385 . S
C135 C134 1.369 . S
C136 C128 1.457 . S
C136 C137 1.372 . S
C136 C141 1.364 . S
C137 H116 0.952 . S
C137 C136 1.372 . S
C137 C138 1.389 . S
C138 H117 0.949 . S
C138 C137 1.389 . S
C138 C139 1.387 . S
C139 C138 1.387 . S
C139 C140 1.372 . S
C140 H118 0.950 . S
C140 C139 1.372 . S
C140 C141 1.379 . S
C141 H119 0.948 . S
C141 C136 1.364 . S
C141 C140 1.379 . S
C142 C111 1.383 . S
C142 C129 1.479 . S
C142 C143 1.398 . S
C143 C108 1.382 . S
C143 H120 0.951 . S
C143 C142 1.398 . S
C144 C145 1.384 . S
C144 H157 0.947 . S
C144 C179 1.382 . S
C145 C144 1.384 . S
C145 C146 1.378 . S
C146 C145 1.378 . S
C146 C147 1.378 . S
C146 H158 0.952 . S
C147 C146 1.378 . S
C147 H159 0.950 . S
C147 C178 1.383 . S
H148 C167 0.947 1_556 S
H149 C168 0.946 1_556 S
H150 C170 0.953 . S
H151 C171 0.945 . S
H152 C173 0.952 . S
H153 C174 0.949 . S
H154 C176 0.950 . S
H155 C177 0.948 . S
H156 C179 0.951 . S
H157 C144 0.947 . S
H158 C146 0.952 . S
H159 C147 0.950 . S
N160 C163 1.382 1_556 S
N160 C165 1.363 . S
N161 C163 1.371 . S
N161 C164 1.372 . S
N162 C164 1.361 . S
N162 C165 1.377 1_554 S
C163 N160 1.382 1_554 S
C163 N161 1.371 . S
C163 C166 1.480 . S
C164 N161 1.372 . S
C164 N162 1.361 . S
C164 C172 1.457 . S
C165 N160 1.363 . S
C165 N162 1.377 1_556 S
C165 C178 1.479 . S
C166 C163 1.480 . S
C166 C167 1.383 . S
C166 C171 1.385 . S
C167 H148 0.947 1_554 S
C167 C166 1.383 . S
C167 C168 1.388 . S
C168 H149 0.946 1_554 S
C168 C167 1.388 . S
C168 C169 1.384 . S
C169 C168 1.384 . S
C169 C170 1.377 . S
C170 H150 0.953 . S
C170 C169 1.377 . S
C170 C171 1.369 . S
C171 H151 0.945 . S
C171 C166 1.385 . S
C171 C170 1.369 . S
C172 C164 1.457 . S
C172 C173 1.372 . S
C172 C177 1.364 . S
C173 H152 0.952 . S
C173 C172 1.372 . S
C173 C174 1.389 . S
C174 H153 0.949 . S
C174 C173 1.389 . S
C174 C175 1.387 . S
C175 C174 1.387 . S
C175 C176 1.372 . S
C176 H154 0.950 . S
C176 C175 1.372 . S
C176 C177 1.379 . S
C177 H155 0.948 . S
C177 C172 1.364 . S
C177 C176 1.379 . S
C178 C147 1.383 . S
C178 C165 1.479 . S
C178 C179 1.398 . S
C179 C144 1.382 . S
C179 H156 0.951 . S
C179 C178 1.398 . S
C180 C181 1.384 . S
C180 H193 0.947 . S
C180 C215 1.382 . S
C181 C180 1.384 . S
C181 C182 1.378 . S
C182 C181 1.378 . S
C182 C183 1.378 . S
C182 H194 0.952 . S
C183 C182 1.378 . S
C183 H195 0.950 . S
C183 C214 1.383 . S
H184 C203 0.947 1_556 S
H185 C204 0.946 1_556 S
H186 C206 0.953 . S
H187 C207 0.945 . S
H188 C209 0.952 . S
H189 C210 0.949 . S
H190 C212 0.950 . S
H191 C213 0.948 . S
H192 C215 0.951 . S
H193 C180 0.947 . S
H194 C182 0.952 . S
H195 C183 0.950 . S
N196 C199 1.382 1_556 S
N196 C201 1.363 . S
N197 C199 1.371 . S
N197 C200 1.372 . S
N198 C200 1.361 . S
N198 C201 1.377 1_554 S
C199 N196 1.382 1_554 S
C199 N197 1.371 . S
C199 C202 1.480 . S
C200 N197 1.372 . S
C200 N198 1.361 . S
C200 C208 1.457 . S
C201 N196 1.363 . S
C201 N198 1.377 1_556 S
C201 C214 1.479 . S
C202 C199 1.480 . S
C202 C203 1.383 . S
C202 C207 1.385 . S
C203 H184 0.947 1_554 S
C203 C202 1.383 . S
C203 C204 1.388 . S
C204 H185 0.946 1_554 S
C204 C203 1.388 . S
C204 C205 1.384 . S
C205 C204 1.384 . S
C205 C206 1.377 . S
C206 H186 0.953 . S
C206 C205 1.377 . S
C206 C207 1.369 . S
C207 H187 0.945 . S
C207 C202 1.385 . S
C207 C206 1.369 . S
C208 C200 1.457 . S
C208 C209 1.372 . S
C208 C213 1.364 . S
C209 H188 0.952 . S
C209 C208 1.372 . S
C209 C210 1.389 . S
C210 H189 0.949 . S
C210 C209 1.389 . S
C210 C211 1.387 . S
C211 C210 1.387 . S
C211 C212 1.372 . S
C212 H190 0.950 . S
C212 C211 1.372 . S
C212 C213 1.379 . S
C213 H191 0.948 . S
C213 C208 1.364 . S
C213 C212 1.379 . S
C214 C183 1.383 . S
C214 C201 1.479 . S
C214 C215 1.398 . S
C215 C180 1.382 . S
C215 H192 0.951 . S
C215 C214 1.398 . S
C216 C217 1.384 . S
C216 H229 0.947 . S
C216 C251 1.382 . S
C217 C216 1.384 . S
C217 C218 1.378 . S
C218 C217 1.378 . S
C218 C219 1.378 . S
C218 H230 0.952 . S
C219 C218 1.378 . S
C219 H231 0.950 . S
C219 C250 1.383 . S
H220 C239 0.931 1_556 S
H221 C240 0.946 1_556 S
H222 C242 0.953 . S
H223 C243 0.945 . S
H224 C245 0.952 . S
H225 C246 0.949 . S
H226 C248 0.950 . S
H227 C249 0.948 . S
H228 C251 0.951 . S
H229 C216 0.947 . S
H230 C218 0.952 . S
H231 C219 0.950 . S
N232 C235 1.382 1_556 S
N232 C237 1.363 . S
N233 C235 1.371 . S
N233 C236 1.372 . S
N234 C236 1.361 . S
N234 C237 1.377 1_554 S
C235 N232 1.382 1_554 S
C235 N233 1.371 . S
C235 C238 1.480 . S
C236 N233 1.372 . S
C236 N234 1.361 . S
C236 C244 1.457 . S
C237 N232 1.363 . S
C237 N234 1.377 1_556 S
C237 C250 1.479 . S
C238 C235 1.480 . S
C238 C239 1.396 . S
C238 C243 1.385 . S
C239 H220 0.931 1_554 S
C239 C238 1.396 . S
C239 C240 1.393 . S
C240 H221 0.946 1_554 S
C240 C239 1.393 . S
C240 C241 1.384 . S
C241 C240 1.384 . S
C241 C242 1.377 . S
C242 H222 0.953 . S
C242 C241 1.377 . S
C242 C243 1.369 . S
C243 H223 0.945 . S
C243 C238 1.385 . S
C243 C242 1.369 . S
C244 C236 1.457 . S
C244 C245 1.372 . S
C244 C249 1.364 . S
C245 H224 0.952 . S
C245 C244 1.372 . S
C245 C246 1.389 . S
C246 H225 0.949 . S
C246 C245 1.389 . S
C246 C247 1.387 . S
C247 C246 1.387 . S
C247 C248 1.372 . S
C248 H226 0.950 . S
C248 C247 1.372 . S
C248 C249 1.379 . S
C249 H227 0.948 . S
C249 C244 1.364 . S
C249 C248 1.379 . S
C250 C219 1.383 . S
C250 C237 1.479 . S
C250 C251 1.398 . S
C251 C216 1.382 . S
C251 H228 0.951 . S
C251 C250 1.398 . S
C252 C253 1.384 . S
C252 H265 0.947 . S
C252 C287 1.382 . S
C253 C252 1.384 . S
C253 C254 1.378 . S
C254 C253 1.378 . S
C254 C255 1.378 . S
C254 H266 0.952 . S
C255 C254 1.378 . S
C255 H267 0.950 . S
C255 C286 1.383 . S
H256 C275 0.947 . S
H257 C276 0.946 . S
H258 C278 0.953 1_556 S
H259 C279 0.945 1_556 S
H260 C281 0.952 . S
H261 C282 0.949 . S
H262 C284 0.950 . S
H263 C285 0.948 . S
H264 C287 0.951 . S
H265 C252 0.947 . S
H266 C254 0.952 . S
H267 C255 0.950 . S
N268 C271 1.382 . S
N268 C273 1.363 . S
N269 C271 1.371 1_556 S
N269 C272 1.372 . S
N270 C272 1.361 1_554 S
N270 C273 1.377 . S
C271 N268 1.382 . S
C271 N269 1.371 1_554 S
C271 C274 1.480 . S
C272 N269 1.372 . S
C272 N270 1.361 1_556 S
C272 C280 1.457 . S
C273 N268 1.363 . S
C273 N270 1.377 . S
C273 C286 1.479 . S
C274 C271 1.480 . S
C274 C275 1.383 . S
C274 C279 1.385 . S
C275 H256 0.947 . S
C275 C274 1.383 . S
C275 C276 1.388 . S
C276 H257 0.946 . S
C276 C275 1.388 . S
C276 C277 1.384 . S
C277 C276 1.384 . S
C277 C278 1.377 . S
C278 H258 0.953 1_554 S
C278 C277 1.377 . S
C278 C279 1.369 . S
C279 H259 0.945 1_554 S
C279 C274 1.385 . S
C279 C278 1.369 . S
C280 C272 1.457 . S
C280 C281 1.372 . S
C280 C285 1.364 . S
C281 H260 0.952 . S
C281 C280 1.372 . S
C281 C282 1.389 . S
C282 H261 0.949 . S
C282 C281 1.389 . S
C282 C283 1.387 . S
C283 C282 1.387 . S
C283 C284 1.372 . S
C284 H262 0.950 . S
C284 C283 1.372 . S
C284 C285 1.379 . S
C285 H263 0.948 . S
C285 C280 1.364 . S
C285 C284 1.379 . S
C286 C255 1.383 . S
C286 C273 1.479 . S
C286 C287 1.398 . S
C287 C252 1.382 . S
C287 H264 0.951 . S
C287 C286 1.398 . S
Eu288 N319 2.657 1_565 S
Eu288 N326 2.609 . S
Eu288 O332 2.558 . S
Eu288 O333 2.612 1_455 S
Eu288 O335 2.339 1_455 S
Eu288 O336 2.563 . S
Eu288 O337 2.419 . S
Eu288 O339 2.380 1_565 S
Eu288 O340 2.432 . S
Eu288 C352 2.848 . S
C289 C292 1.429 1_545 S
C289 C293 1.411 . S
C289 N296 1.377 . S
C290 C292 1.420 . S
C290 C294 1.423 . S
C290 C302 1.392 . S
C291 C293 1.420 1_565 S
C291 C294 1.351 . S
C291 H314 0.931 . S
C292 C289 1.429 1_565 S
C292 C290 1.420 . S
C292 N300 1.363 . S
C293 C289 1.411 . S
C293 C291 1.420 1_545 S
C293 C298 1.395 . S
C294 C290 1.423 . S
C294 C291 1.351 . S
C294 H306 0.930 . S
C295 C297 1.400 . S
C295 C298 1.386 . S
C295 H307 0.930 . S
N296 C289 1.377 . S
N296 C297 1.321 . S
N296 Eu299 2.609 . S
C297 C295 1.400 . S
C297 N296 1.321 . S
C297 H304 0.930 . S
C298 C293 1.395 . S
C298 C295 1.386 . S
C298 H317 0.930 . S
Eu299 N296 2.609 . S
Eu299 N300 2.654 1_545 S
Eu299 O333 2.380 1_545 S
Eu299 O334 2.432 . S
Eu299 O338 2.558 . S
Eu299 O339 2.612 1_655 S
Eu299 O341 2.339 1_655 S
Eu299 O342 2.563 1_655 S
Eu299 O343 2.419 . S
Eu299 C363 2.848 . S
N300 C292 1.363 . S
N300 Eu299 2.654 1_565 S
N300 C301 1.336 1_655 S
C301 N300 1.336 1_455 S
C301 C303 1.413 1_455 S
C301 H308 0.929 . S
C302 C290 1.392 . S
C302 C303 1.372 . S
C302 H310 0.930 . S
C303 C301 1.413 1_655 S
C303 C302 1.372 . S
C303 H305 0.926 1_655 S
H304 C297 0.930 . S
H305 C303 0.926 1_455 S
H306 C294 0.930 . S
H307 C295 0.930 . S
H308 C301 0.929 . S
H309 C323 0.930 1_655 S
H310 C302 0.930 . S
H311 C329 0.930 . S
H312 C320 0.929 1_655 S
H313 C327 0.930 . S
H314 C291 0.931 . S
H315 C321 0.930 . S
H316 C354 0.930 . S
H317 C298 0.930 . S
H318 C353 0.931 . S
N319 Eu288 2.657 1_545 S
N319 C320 1.334 . S
N319 C324 1.362 . S
C320 H312 0.929 1_455 S
C320 N319 1.334 . S
C320 C323 1.413 . S
C321 H315 0.930 . S
C321 C322 1.392 . S
C321 C323 1.367 . S
C322 C321 1.392 . S
C322 C324 1.420 . S
C322 C354 1.423 . S
C323 H309 0.930 1_455 S
C323 C320 1.413 . S
C323 C321 1.367 . S
C324 N319 1.362 . S
C324 C322 1.420 . S
C324 C328 1.429 . S
H325 C330 0.928 . S
N326 Eu288 2.609 . S
N326 C328 1.377 1_565 S
N326 C329 1.321 . S
C327 H313 0.930 . S
C327 C329 1.400 . S
C327 C330 1.408 . S
C328 C324 1.429 . S
C328 N326 1.377 1_545 S
C328 C331 1.411 . S
C329 H311 0.930 . S
C329 N326 1.321 . S
C329 C327 1.400 . S
C330 H325 0.928 . S
C330 C327 1.408 . S
C330 C331 1.376 1_565 S
C331 C328 1.411 . S
C331 C330 1.376 1_545 S
C331 C353 1.420 . S
O332 Eu288 2.558 . S
O332 C352 1.257 . S
O333 Eu288 2.612 1_655 S
O333 Eu299 2.380 1_565 S
O333 C344 1.276 . S
O334 Eu299 2.432 . S
O334 C351 1.264 . S
O335 Eu288 2.339 1_655 S
O335 C351 1.254 1_565 S
O336 Eu288 2.563 . S
O336 C344 1.235 1_455 S
O337 Eu288 2.419 . S
O337 C352 1.249 . S
O338 Eu299 2.558 . S
O338 C363 1.257 . S
O339 Eu288 2.380 1_545 S
O339 Eu299 2.612 1_455 S
O339 C355 1.276 . S
O340 Eu288 2.432 . S
O340 C362 1.264 1_565 S
O341 Eu299 2.339 1_455 S
O341 C362 1.254 . S
O342 Eu299 2.563 1_455 S
O342 C355 1.235 . S
O343 Eu299 2.419 . S
O343 C363 1.249 . S
C344 O333 1.276 . S
C344 O336 1.235 1_655 S
C345 C347 1.393 . S
C345 C349 1.395 . S
C345 C352 1.492 . S
C346 C347 1.392 . S
C346 C348 1.386 . S
C347 C345 1.393 . S
C347 C346 1.392 . S
C347 H364 0.929 1_455 S
C348 C346 1.386 . S
C348 C350 1.395 . S
C348 H365 0.930 . S
C349 C345 1.395 . S
C349 C350 1.379 . S
C349 H366 0.930 . S
C350 C348 1.395 . S
C350 C349 1.379 . S
C350 H367 0.930 . S
C351 O334 1.264 . S
C351 O335 1.254 1_545 S
C352 Eu288 2.848 . S
C352 O332 1.257 . S
C352 O337 1.249 . S
C352 C345 1.492 . S
C353 H318 0.931 . S
C353 C331 1.420 . S
C353 C354 1.351 . S
C354 H316 0.930 . S
C354 C322 1.423 . S
C354 C353 1.351 . S
C355 O339 1.276 . S
C355 O342 1.235 . S
C356 C357 1.393 . S
C356 C360 1.395 . S
C356 C363 1.492 . S
C357 C356 1.393 . S
C357 C358 1.392 . S
C357 H368 0.930 1_655 S
C358 C357 1.392 . S
C358 C359 1.386 . S
C359 C358 1.386 . S
C359 C361 1.395 . S
C359 H369 0.930 . S
C360 C356 1.395 . S
C360 C361 1.379 . S
C360 H370 0.930 . S
C361 C359 1.395 . S
C361 C360 1.379 . S
C361 H371 0.930 . S
C362 O340 1.264 1_545 S
C362 O341 1.254 . S
C363 Eu299 2.848 . S
C363 O338 1.257 . S
C363 O343 1.249 . S
C363 C356 1.492 . S
H364 C347 0.929 1_655 S
H365 C348 0.930 . S
H366 C349 0.930 . S
H367 C350 0.930 . S
H368 C357 0.930 1_455 S
H369 C359 0.930 . S
H370 C360 0.930 . S
H371 C361 0.930 . S
Eu372 N403 2.657 . S
Eu372 N410 2.609 . S
Eu372 O416 2.558 . S
Eu372 O417 2.612 1_545 S
Eu372 O419 2.339 1_545 S
Eu372 O420 2.563 . S
Eu372 O421 2.419 . S
Eu372 O423 2.380 . S
Eu372 O424 2.432 . S
Eu372 C436 2.848 . S
C373 C376 1.429 . S
C373 C377 1.411 . S
C373 N380 1.377 . S
C374 C376 1.420 . S
C374 C378 1.423 . S
C374 C386 1.392 . S
C375 C377 1.420 . S
C375 C378 1.351 . S
C375 H398 0.931 . S
C376 C373 1.429 . S
C376 C374 1.420 . S
C376 N384 1.362 . S
C377 C373 1.411 . S
C377 C375 1.420 . S
C377 C382 1.395 . S
C378 C374 1.423 . S
C378 C375 1.351 . S
C378 H390 0.930 . S
C379 C381 1.400 . S
C379 C382 1.386 . S
C379 H391 0.930 . S
N380 C373 1.377 . S
N380 C381 1.321 . S
N380 Eu383 2.609 . S
C381 C379 1.400 . S
C381 N380 1.321 . S
C381 H388 0.930 . S
C382 C377 1.395 . S
C382 C379 1.386 . S
C382 H401 0.930 . S
Eu383 N380 2.609 . S
Eu383 N384 2.657 . S
Eu383 O417 2.380 . S
Eu383 O418 2.432 . S
Eu383 O422 2.558 . S
Eu383 O423 2.612 1_565 S
Eu383 O425 2.339 1_565 S
Eu383 O426 2.563 1_565 S
Eu383 O427 2.419 . S
Eu383 C447 2.848 . S
N384 C376 1.362 . S
N384 Eu383 2.657 . S
N384 C385 1.334 1_565 S
C385 N384 1.334 1_545 S
C385 C387 1.413 . S
C385 H392 0.929 . S
C386 C374 1.392 . S
C386 C387 1.367 1_565 S
C386 H394 0.930 . S
C387 C385 1.413 . S
C387 C386 1.367 1_545 S
C387 H389 0.930 . S
H388 C381 0.930 . S
H389 C387 0.930 . S
H390 C378 0.930 . S
H391 C379 0.930 . S
H392 C385 0.929 . S
H393 C407 0.930 1_565 S
H394 C386 0.930 . S
H395 C413 0.930 . S
H396 C404 0.929 1_565 S
H397 C411 0.930 . S
H398 C375 0.931 . S
H399 C405 0.930 . S
H400 C438 0.930 . S
H401 C382 0.930 . S
H402 C437 0.931 . S
N403 Eu372 2.657 . S
N403 C404 1.334 . S
N403 C408 1.362 . S
C404 H396 0.929 1_545 S
C404 N403 1.334 . S
C404 C407 1.413 . S
C405 H399 0.930 . S
C405 C406 1.392 . S
C405 C407 1.367 . S
C406 C405 1.392 . S
C406 C408 1.420 . S
C406 C438 1.423 . S
C407 H393 0.930 1_545 S
C407 C404 1.413 . S
C407 C405 1.367 . S
C408 N403 1.362 . S
C408 C406 1.420 . S
C408 C412 1.429 . S
H409 C414 0.930 . S
N410 Eu372 2.609 . S
N410 C412 1.377 . S
N410 C413 1.321 . S
C411 H397 0.930 . S
C411 C413 1.400 . S
C411 C414 1.386 . S
C412 C408 1.429 . S
C412 N410 1.377 . S
C412 C415 1.411 . S
C413 H395 0.930 . S
C413 N410 1.321 . S
C413 C411 1.400 . S
C414 H409 0.930 . S
C414 C411 1.386 . S
C414 C415 1.395 . S
C415 C412 1.411 . S
C415 C414 1.395 . S
C415 C437 1.420 . S
O416 Eu372 2.558 . S
O416 C436 1.257 . S
O417 Eu372 2.612 1_565 S
O417 Eu383 2.380 . S
O417 C428 1.276 . S
O418 Eu383 2.432 . S
O418 C435 1.264 . S
O419 Eu372 2.339 1_565 S
O419 C435 1.254 . S
O420 Eu372 2.563 . S
O420 C428 1.235 1_545 S
O421 Eu372 2.419 . S
O421 C436 1.249 . S
O422 Eu383 2.558 . S
O422 C447 1.257 . S
O423 Eu372 2.380 . S
O423 Eu383 2.612 1_545 S
O423 C439 1.276 . S
O424 Eu372 2.432 . S
O424 C446 1.264 . S
O425 Eu383 2.339 1_545 S
O425 C446 1.254 . S
O426 Eu383 2.563 1_545 S
O426 C439 1.235 . S
O427 Eu383 2.419 . S
O427 C447 1.249 . S
C428 O417 1.276 . S
C428 O420 1.235 1_565 S
C429 C431 1.393 . S
C429 C433 1.395 . S
C429 C436 1.492 . S
C430 C431 1.392 . S
C430 C432 1.386 . S
C431 C429 1.393 . S
C431 C430 1.392 . S
C431 H448 0.930 . S
C432 C430 1.386 . S
C432 C434 1.395 . S
C432 H449 0.930 . S
C433 C429 1.395 . S
C433 C434 1.379 . S
C433 H450 0.930 . S
C434 C432 1.395 . S
C434 C433 1.379 . S
C434 H451 0.930 . S
C435 O418 1.264 . S
C435 O419 1.254 . S
C436 Eu372 2.848 . S
C436 O416 1.257 . S
C436 O421 1.249 . S
C436 C429 1.492 . S
C437 H402 0.931 . S
C437 C415 1.420 . S
C437 C438 1.351 . S
C438 H400 0.930 . S
C438 C406 1.423 . S
C438 C437 1.351 . S
C439 O423 1.276 . S
C439 O426 1.235 . S
C440 C441 1.393 . S
C440 C444 1.395 . S
C440 C447 1.492 . S
C441 C440 1.393 . S
C441 C442 1.392 . S
C441 H452 0.930 1_565 S
C442 C441 1.392 . S
C442 C443 1.386 . S
C443 C442 1.386 . S
C443 C445 1.395 . S
C443 H453 0.930 . S
C444 C440 1.395 . S
C444 C445 1.379 . S
C444 H454 0.930 . S
C445 C443 1.395 . S
C445 C444 1.379 . S
C445 H455 0.930 . S
C446 O424 1.264 . S
C446 O425 1.254 . S
C447 Eu383 2.848 . S
C447 O422 1.257 . S
C447 O427 1.249 . S
C447 C440 1.492 . S
H448 C431 0.930 . S
H449 C432 0.930 . S
H450 C433 0.930 . S
H451 C434 0.930 . S
H452 C441 0.930 1_545 S
H453 C443 0.930 . S
H454 C444 0.930 . S
H455 C445 0.930 . S
Eu456 N487 2.657 . S
Eu456 N494 2.609 . S
Eu456 O500 2.558 . S
Eu456 O501 2.612 . S
Eu456 O503 2.339 . S
Eu456 O504 2.563 . S
Eu456 O505 2.419 . S
Eu456 O507 2.380 . S
Eu456 O508 2.432 . S
Eu456 C520 2.848 . S
C457 C460 1.429 . S
C457 C461 1.411 . S
C457 N464 1.377 . S
C458 C460 1.420 . S
C458 C462 1.423 . S
C458 C470 1.392 . S
C459 C461 1.420 . S
C459 C462 1.351 . S
C459 H482 0.931 . S
C460 C457 1.429 . S
C460 C458 1.420 . S
C460 N468 1.362 . S
C461 C457 1.411 . S
C461 C459 1.420 . S
C461 C466 1.395 . S
C462 C458 1.423 . S
C462 C459 1.351 . S
C462 H474 0.930 . S
C463 C465 1.400 . S
C463 C466 1.386 . S
C463 H475 0.930 . S
N464 C457 1.377 . S
N464 C465 1.321 . S
N464 Eu467 2.609 . S
C465 C463 1.400 . S
C465 N464 1.321 . S
C465 H472 0.930 . S
C466 C461 1.395 . S
C466 C463 1.386 . S
C466 H485 0.930 . S
Eu467 N464 2.609 . S
Eu467 N468 2.657 . S
Eu467 O501 2.380 . S
Eu467 O502 2.432 . S
Eu467 O506 2.558 . S
Eu467 O507 2.612 . S
Eu467 O509 2.339 . S
Eu467 O510 2.563 . S
Eu467 O511 2.419 . S
Eu467 C531 2.848 . S
N468 C460 1.362 . S
N468 Eu467 2.657 . S
N468 C469 1.334 . S
C469 N468 1.334 . S
C469 C471 1.413 . S
C469 H476 0.929 . S
C470 C458 1.392 . S
C470 C471 1.367 . S
C470 H478 0.930 . S
C471 C469 1.413 . S
C471 C470 1.367 . S
C471 H473 0.930 . S
H472 C465 0.930 . S
H473 C471 0.930 . S
H474 C462 0.930 . S
H475 C463 0.930 . S
H476 C469 0.929 . S
H477 C491 0.930 . S
H478 C470 0.930 . S
H479 C497 0.930 . S
H480 C488 0.929 . S
H481 C495 0.930 . S
H482 C459 0.931 . S
H483 C489 0.930 . S
H484 C522 0.930 . S
H485 C466 0.930 . S
H486 C521 0.931 . S
N487 Eu456 2.657 . S
N487 C488 1.334 . S
N487 C492 1.362 . S
C488 H480 0.929 . S
C488 N487 1.334 . S
C488 C491 1.413 . S
C489 H483 0.930 . S
C489 C490 1.392 . S
C489 C491 1.367 . S
C490 C489 1.392 . S
C490 C492 1.420 . S
C490 C522 1.423 . S
C491 H477 0.930 . S
C491 C488 1.413 . S
C491 C489 1.367 . S
C492 N487 1.362 . S
C492 C490 1.420 . S
C492 C496 1.429 . S
H493 C498 0.930 . S
N494 Eu456 2.609 . S
N494 C496 1.377 . S
N494 C497 1.321 . S
C495 H481 0.930 . S
C495 C497 1.400 . S
C495 C498 1.386 . S
C496 C492 1.429 . S
C496 N494 1.377 . S
C496 C499 1.411 . S
C497 H479 0.930 . S
C497 N494 1.321 . S
C497 C495 1.400 . S
C498 H493 0.930 . S
C498 C495 1.386 . S
C498 C499 1.395 . S
C499 C496 1.411 . S
C499 C498 1.395 . S
C499 C521 1.420 . S
O500 Eu456 2.558 . S
O500 C520 1.257 . S
O501 Eu456 2.612 . S
O501 Eu467 2.380 . S
O501 C512 1.276 . S
O502 Eu467 2.432 . S
O502 C519 1.264 . S
O503 Eu456 2.339 . S
O503 C519 1.254 . S
O504 Eu456 2.563 . S
O504 C512 1.235 . S
O505 Eu456 2.419 . S
O505 C520 1.249 . S
O506 Eu467 2.558 . S
O506 C531 1.257 . S
O507 Eu456 2.380 . S
O507 Eu467 2.612 . S
O507 C523 1.276 . S
O508 Eu456 2.432 . S
O508 C530 1.264 . S
O509 Eu467 2.339 . S
O509 C530 1.254 . S
O510 Eu467 2.563 . S
O510 C523 1.235 . S
O511 Eu467 2.419 . S
O511 C531 1.249 . S
C512 O501 1.276 . S
C512 O504 1.235 . S
C513 C515 1.393 . S
C513 C517 1.395 . S
C513 C520 1.492 . S
C514 C515 1.392 . S
C514 C516 1.386 . S
C515 C513 1.393 . S
C515 C514 1.392 . S
C515 H532 0.930 . S
C516 C514 1.386 . S
C516 C518 1.395 . S
C516 H533 0.930 . S
C517 C513 1.395 . S
C517 C518 1.379 . S
C517 H534 0.930 . S
C518 C516 1.395 . S
C518 C517 1.379 . S
C518 H535 0.930 . S
C519 O502 1.264 . S
C519 O503 1.254 . S
C520 Eu456 2.848 . S
C520 O500 1.257 . S
C520 O505 1.249 . S
C520 C513 1.492 . S
C521 H486 0.931 . S
C521 C499 1.420 . S
C521 C522 1.351 . S
C522 H484 0.930 . S
C522 C490 1.423 . S
C522 C521 1.351 . S
C523 O507 1.276 . S
C523 O510 1.235 . S
C524 C525 1.393 . S
C524 C528 1.395 . S
C524 C531 1.492 . S
C525 C524 1.393 . S
C525 C526 1.392 . S
C525 H536 0.930 . S
C526 C525 1.392 . S
C526 C527 1.386 . S
C527 C526 1.386 . S
C527 C529 1.395 . S
C527 H537 0.930 . S
C528 C524 1.395 . S
C528 C529 1.379 . S
C528 H538 0.930 . S
C529 C527 1.395 . S
C529 C528 1.379 . S
C529 H539 0.930 . S
C530 O508 1.264 . S
C530 O509 1.254 . S
C531 Eu467 2.848 . S
C531 O506 1.257 . S
C531 O511 1.249 . S
C531 C524 1.492 . S
H532 C515 0.930 . S
H533 C516 0.930 . S
H534 C517 0.930 . S
H535 C518 0.930 . S
H536 C525 0.930 . S
H537 C527 0.930 . S
H538 C528 0.930 . S
H539 C529 0.930 . S
Eu540 N571 2.657 . S
Eu540 N578 2.609 . S
Eu540 O584 2.558 . S
Eu540 O585 2.612 . S
Eu540 O587 2.339 . S
Eu540 O588 2.563 . S
Eu540 O589 2.419 . S
Eu540 O591 2.382 . S
Eu540 O592 2.432 1_455 S
Eu540 C604 2.848 . S
C541 C544 1.429 . S
C541 C545 1.411 . S
C541 N548 1.377 . S
C542 C544 1.420 . S
C542 C546 1.423 . S
C542 C554 1.392 . S
C543 C545 1.420 . S
C543 C546 1.351 . S
C543 H566 0.931 . S
C544 C541 1.429 . S
C544 C542 1.420 . S
C544 N552 1.362 . S
C545 C541 1.411 . S
C545 C543 1.420 . S
C545 C550 1.395 . S
C546 C542 1.423 . S
C546 C543 1.351 . S
C546 H558 0.930 . S
C547 C549 1.400 . S
C547 C550 1.386 1_455 S
C547 H559 0.930 . S
N548 C541 1.377 . S
N548 C549 1.321 1_655 S
N548 Eu551 2.609 . S
C549 C547 1.400 . S
C549 N548 1.321 1_455 S
C549 H556 0.930 . S
C550 C545 1.395 . S
C550 C547 1.386 1_655 S
C550 H569 0.930 . S
Eu551 N548 2.609 . S
Eu551 N552 2.657 . S
Eu551 O585 2.380 1_655 S
Eu551 O586 2.432 1_655 S
Eu551 O590 2.558 . S
Eu551 O591 2.611 1_655 S
Eu551 O593 2.339 . S
Eu551 O594 2.563 . S
Eu551 O595 2.419 . S
Eu551 C615 2.848 . S
N552 C544 1.362 . S
N552 Eu551 2.657 . S
N552 C553 1.334 . S
C553 N552 1.334 . S
C553 C555 1.413 . S
C553 H560 0.929 . S
C554 C542 1.392 . S
C554 C555 1.367 . S
C554 H562 0.930 . S
C555 C553 1.413 . S
C555 C554 1.367 . S
C555 H557 0.930 . S
H556 C549 0.930 . S
H557 C555 0.930 . S
H558 C546 0.930 . S
H559 C547 0.930 . S
H560 C553 0.929 . S
H561 C575 0.930 . S
H562 C554 0.930 . S
H563 C581 0.930 1_655 S
H564 C572 0.929 . S
H565 C579 0.927 . S
H566 C543 0.931 . S
H567 C573 0.930 . S
H568 C606 0.930 . S
H569 C550 0.930 . S
H570 C605 0.931 . S
N571 Eu540 2.657 . S
N571 C572 1.334 . S
N571 C576 1.362 . S
C572 H564 0.929 . S
C572 N571 1.334 . S
C572 C575 1.413 . S
C573 H567 0.930 . S
C573 C574 1.392 . S
C573 C575 1.367 . S
C574 C573 1.392 . S
C574 C576 1.420 . S
C574 C606 1.423 . S
C575 H561 0.930 . S
C575 C572 1.413 . S
C575 C573 1.367 . S
C576 N571 1.362 . S
C576 C574 1.420 . S
C576 C580 1.429 . S
H577 C582 0.930 . S
N578 Eu540 2.609 . S
N578 C580 1.377 . S
N578 C581 1.321 . S
C579 H565 0.927 . S
C579 C581 1.400 1_655 S
C579 C582 1.388 1_655 S
C580 C576 1.429 . S
C580 N578 1.377 . S
C580 C583 1.411 . S
C581 H563 0.930 1_455 S
C581 N578 1.321 . S
C581 C579 1.400 1_455 S
C582 H577 0.930 . S
C582 C579 1.388 1_455 S
C582 C583 1.395 . S
C583 C580 1.411 . S
C583 C582 1.395 . S
C583 C605 1.420 . S
O584 Eu540 2.558 . S
O584 C604 1.257 . S
O585 Eu540 2.612 . S
O585 Eu551 2.380 1_455 S
O585 C596 1.276 . S
O586 Eu551 2.432 1_455 S
O586 C603 1.264 . S
O587 Eu540 2.339 . S
O587 C603 1.254 . S
O588 Eu540 2.563 . S
O588 C596 1.235 . S
O589 Eu540 2.419 . S
O589 C604 1.249 . S
O590 Eu551 2.558 . S
O590 C615 1.257 . S
O591 Eu540 2.382 . S
O591 Eu551 2.611 1_455 S
O591 C607 1.274 1_455 S
O592 Eu540 2.432 1_655 S
O592 C614 1.264 . S
O593 Eu551 2.339 . S
O593 C614 1.254 . S
O594 Eu551 2.563 . S
O594 C607 1.235 . S
O595 Eu551 2.419 . S
O595 C615 1.249 . S
C596 O585 1.276 . S
C596 O588 1.235 . S
C597 C599 1.393 . S
C597 C601 1.395 . S
C597 C604 1.492 . S
C598 C599 1.392 . S
C598 C600 1.386 . S
C599 C597 1.393 . S
C599 C598 1.392 . S
C599 H616 0.930 . S
C600 C598 1.386 . S
C600 C602 1.395 . S
C600 H617 0.930 . S
C601 C597 1.395 . S
C601 C602 1.379 . S
C601 H618 0.930 . S
C602 C600 1.395 . S
C602 C601 1.379 . S
C602 H619 0.930 . S
C603 O586 1.264 . S
C603 O587 1.254 . S
C604 Eu540 2.848 . S
C604 O584 1.257 . S
C604 O589 1.249 . S
C604 C597 1.492 . S
C605 H570 0.931 . S
C605 C583 1.420 . S
C605 C606 1.351 . S
C606 H568 0.930 . S
C606 C574 1.423 . S
C606 C605 1.351 . S
C607 O591 1.274 1_655 S
C607 O594 1.235 . S
C608 C609 1.393 . S
C608 C612 1.395 . S
C608 C615 1.492 . S
C609 C608 1.393 . S
C609 C610 1.392 . S
C609 H620 0.930 . S
C610 C609 1.392 . S
C610 C611 1.386 . S
C611 C610 1.386 . S
C611 C613 1.395 . S
C611 H621 0.930 . S
C612 C608 1.395 . S
C612 C613 1.379 . S
C612 H622 0.930 . S
C613 C611 1.395 . S
C613 C612 1.379 . S
C613 H623 0.930 . S
C614 O592 1.264 . S
C614 O593 1.254 . S
C615 Eu551 2.848 . S
C615 O590 1.257 . S
C615 O595 1.249 . S
C615 C608 1.492 . S
H616 C599 0.930 . S
H617 C600 0.930 . S
H618 C601 0.930 . S
H619 C602 0.930 . S
H620 C609 0.930 . S
H621 C611 0.930 . S
H622 C612 0.930 . S
H623 C613 0.930 . S
C624 C625 1.391 . S
C624 C626 1.394 . S
C624 H640 0.931 . S
C625 C624 1.391 . S
C625 C629 1.376 . S
C626 C624 1.394 . S
C626 C627 1.369 . S
C626 C630 1.531 . S
C627 C626 1.369 . S
C627 C628 1.410 . S
C627 C635 1.503 . S
C628 C627 1.410 . S
C628 C629 1.392 . S
C628 C631 1.511 . S
C629 C625 1.376 . S
C629 C628 1.392 . S
C629 H641 0.929 . S
C630 C626 1.531 . S
C630 H642 0.960 . S
C630 H643 0.962 . S
C630 H644 0.960 . S
C631 C628 1.511 . S
C631 H645 0.961 . S
C631 H646 0.961 . S
C631 H647 0.961 . S
C632 C633 1.370 . S
C632 C634 1.363 . S
C632 H648 0.931 . S
C633 C632 1.370 . S
C633 C637 1.408 . S
C634 C632 1.363 . S
C634 C635 1.370 . S
C634 C638 1.524 . S
C635 C627 1.503 . S
C635 C634 1.370 . S
C635 C636 1.403 . S
C636 C635 1.403 . S
C636 C637 1.404 . S
C636 C639 1.539 . S
C637 C633 1.408 . S
C637 C636 1.404 . S
C637 H649 0.930 . S
C638 C634 1.524 . S
C638 H650 0.956 . S
C638 H651 0.961 . S
C638 H652 0.961 . S
C639 C636 1.539 . S
C639 H653 0.958 . S
C639 H654 0.961 . S
C639 H655 0.960 . S
H640 C624 0.931 . S
H641 C629 0.929 . S
H642 C630 0.960 . S
H643 C630 0.962 . S
H644 C630 0.960 . S
H645 C631 0.961 . S
H646 C631 0.961 . S
H647 C631 0.961 . S
H648 C632 0.931 . S
H649 C637 0.930 . S
H650 C638 0.956 . S
H651 C638 0.961 . S
H652 C638 0.961 . S
H653 C639 0.958 . S
H654 C639 0.961 . S
H655 C639 0.960 . S
C656 C657 1.391 . S
C656 C658 1.394 . S
C656 H672 0.931 . S
C657 C656 1.391 . S
C657 C661 1.376 . S
C658 C656 1.394 . S
C658 C659 1.369 . S
C658 C662 1.531 . S
C659 C658 1.369 . S
C659 C660 1.410 . S
C659 C667 1.503 . S
C660 C659 1.410 . S
C660 C661 1.392 . S
C660 C663 1.511 . S
C661 C657 1.376 . S
C661 C660 1.392 . S
C661 H673 0.929 . S
C662 C658 1.531 . S
C662 H674 0.960 . S
C662 H675 0.962 . S
C662 H676 0.960 . S
C663 C660 1.511 . S
C663 H677 0.961 . S
C663 H678 0.961 . S
C663 H679 0.961 . S
C664 C665 1.370 . S
C664 C666 1.363 . S
C664 H680 0.931 . S
C665 C664 1.370 . S
C665 C669 1.408 . S
C666 C664 1.363 . S
C666 C667 1.370 . S
C666 C670 1.524 . S
C667 C659 1.503 . S
C667 C666 1.370 . S
C667 C668 1.403 . S
C668 C667 1.403 . S
C668 C669 1.404 . S
C668 C671 1.539 . S
C669 C665 1.408 . S
C669 C668 1.404 . S
C669 H681 0.930 . S
C670 C666 1.524 . S
C670 H682 0.956 . S
C670 H683 0.961 . S
C670 H684 0.961 . S
C671 C668 1.539 . S
C671 H685 0.958 . S
C671 H686 0.961 . S
C671 H687 0.960 . S
H672 C656 0.931 . S
H673 C661 0.929 . S
H674 C662 0.960 . S
H675 C662 0.962 . S
H676 C662 0.960 . S
H677 C663 0.961 . S
H678 C663 0.961 . S
H679 C663 0.961 . S
H680 C664 0.931 . S
H681 C669 0.930 . S
H682 C670 0.956 . S
H683 C670 0.961 . S
H684 C670 0.961 . S
H685 C671 0.958 . S
H686 C671 0.961 . S
H687 C671 0.960 . S
C688 C689 1.391 . S
C688 C690 1.394 . S
C688 H704 0.931 . S
C689 C688 1.391 . S
C689 C693 1.376 . S
C690 C688 1.394 . S
C690 C691 1.369 . S
C690 C694 1.531 . S
C691 C690 1.369 . S
C691 C692 1.410 . S
C691 C699 1.503 . S
C692 C691 1.410 . S
C692 C693 1.392 . S
C692 C695 1.511 . S
C693 C689 1.376 . S
C693 C692 1.392 . S
C693 H705 0.929 . S
C694 C690 1.531 . S
C694 H706 0.960 . S
C694 H707 0.962 . S
C694 H708 0.960 . S
C695 C692 1.511 . S
C695 H709 0.961 . S
C695 H710 0.961 . S
C695 H711 0.961 . S
C696 C697 1.370 . S
C696 C698 1.363 . S
C696 H712 0.931 . S
C697 C696 1.370 . S
C697 C701 1.408 . S
C698 C696 1.363 . S
C698 C699 1.370 . S
C698 C702 1.524 . S
C699 C691 1.503 . S
C699 C698 1.370 . S
C699 C700 1.403 . S
C700 C699 1.403 . S
C700 C701 1.404 . S
C700 C703 1.539 . S
C701 C697 1.408 . S
C701 C700 1.404 . S
C701 H713 0.930 . S
C702 C698 1.524 . S
C702 H714 0.956 . S
C702 H715 0.961 . S
C702 H716 0.961 . S
C703 C700 1.539 . S
C703 H717 0.958 . S
C703 H718 0.961 . S
C703 H719 0.960 . S
H704 C688 0.931 . S
H705 C693 0.929 . S
H706 C694 0.960 . S
H707 C694 0.962 . S
H708 C694 0.960 . S
H709 C695 0.961 . S
H710 C695 0.961 . S
H711 C695 0.961 . S
H712 C696 0.931 . S
H713 C701 0.930 . S
H714 C702 0.956 . S
H715 C702 0.961 . S
H716 C702 0.961 . S
H717 C703 0.958 . S
H718 C703 0.961 . S
H719 C703 0.960 . S
C720 C721 1.391 . S
C720 C722 1.394 . S
C720 H736 0.931 . S
C721 C720 1.391 . S
C721 C725 1.376 . S
C722 C720 1.394 . S
C722 C723 1.369 . S
C722 C726 1.531 . S
C723 C722 1.369 . S
C723 C724 1.410 . S
C723 C731 1.503 . S
C724 C723 1.410 . S
C724 C725 1.392 . S
C724 C727 1.511 . S
C725 C721 1.376 . S
C725 C724 1.392 . S
C725 H737 0.929 . S
C726 C722 1.531 . S
C726 H738 0.960 . S
C726 H739 0.962 . S
C726 H740 0.960 . S
C727 C724 1.511 . S
C727 H741 0.961 . S
C727 H742 0.961 . S
C727 H743 0.961 . S
C728 C729 1.370 . S
C728 C730 1.363 . S
C728 H744 0.931 1_455 S
C729 C728 1.370 . S
C729 C733 1.408 . S
C730 C728 1.363 . S
C730 C731 1.370 . S
C730 C734 1.524 . S
C731 C723 1.503 . S
C731 C730 1.370 . S
C731 C732 1.403 . S
C732 C731 1.403 . S
C732 C733 1.404 . S
C732 C735 1.539 . S
C733 C729 1.408 . S
C733 C732 1.404 . S
C733 H745 0.930 . S
C734 C730 1.524 . S
C734 H746 0.956 . S
C734 H747 0.961 . S
C734 H748 0.961 1_455 S
C735 C732 1.539 . S
C735 H749 0.958 . S
C735 H750 0.961 . S
C735 H751 0.960 . S
H736 C720 0.931 . S
H737 C725 0.929 . S
H738 C726 0.960 . S
H739 C726 0.962 . S
H740 C726 0.960 . S
H741 C727 0.961 . S
H742 C727 0.961 . S
H743 C727 0.961 . S
H744 C728 0.931 1_655 S
H745 C733 0.930 . S
H746 C734 0.956 . S
H747 C734 0.961 . S
H748 C734 0.961 1_655 S
H749 C735 0.958 . S
H750 C735 0.961 . S
H751 C735 0.960 . S
C752 C753 1.391 . S
C752 C754 1.394 1_554 S
C752 H768 0.931 . S
C753 C752 1.391 . S
C753 C757 1.376 . S
C754 C752 1.394 1_556 S
C754 C755 1.369 . S
C754 C758 1.531 1_565 S
C755 C754 1.369 . S
C755 C756 1.410 . S
C755 C763 1.503 . S
C756 C755 1.410 . S
C756 C757 1.392 1_556 S
C756 C759 1.511 . S
C757 C753 1.376 . S
C757 C756 1.392 1_554 S
C757 H769 0.929 . S
C758 C754 1.531 1_545 S
C758 H770 0.960 . S
C758 H771 0.962 1_545 S
C758 H772 0.960 . S
C759 C756 1.511 . S
C759 H773 0.961 . S
C759 H774 0.961 . S
C759 H775 0.961 . S
C760 C761 1.370 . S
C760 C762 1.363 . S
C760 H776 0.931 . S
C761 C760 1.370 . S
C761 C765 1.408 . S
C762 C760 1.363 . S
C762 C763 1.370 . S
C762 C766 1.524 . S
C763 C755 1.503 . S
C763 C762 1.370 . S
C763 C764 1.403 . S
C764 C763 1.403 . S
C764 C765 1.404 . S
C764 C767 1.556 . S
C765 C761 1.408 . S
C765 C764 1.404 . S
C765 H777 0.930 1_565 S
C766 C762 1.524 . S
C766 H778 0.956 . S
C766 H779 0.961 . S
C766 H780 0.961 . S
C767 C764 1.556 . S
C767 H781 0.917 1_565 S
C767 H782 0.956 1_565 S
C767 H783 0.991 . S
H768 C752 0.931 . S
H769 C757 0.929 . S
H770 C758 0.960 . S
H771 C758 0.962 1_565 S
H772 C758 0.960 . S
H773 C759 0.961 . S
H774 C759 0.961 . S
H775 C759 0.961 . S
H776 C760 0.931 . S
H777 C765 0.930 1_545 S
H778 C766 0.956 . S
H779 C766 0.961 . S
H780 C766 0.961 . S
H781 C767 0.917 1_545 S
H782 C767 0.956 1_545 S
H783 C767 0.991 . S
C784 C785 1.391 . S
C784 C786 1.394 . S
C784 H800 0.931 . S
C785 C784 1.391 . S
C785 C789 1.376 . S
C786 C784 1.394 . S
C786 C787 1.369 1_554 S
C786 C790 1.531 . S
C787 C786 1.369 1_556 S
C787 C788 1.410 . S
C787 C795 1.503 . S
C788 C787 1.410 . S
C788 C789 1.392 1_556 S
C788 C791 1.511 . S
C789 C785 1.376 . S
C789 C788 1.392 1_554 S
C789 H801 0.929 . S
C790 C786 1.531 . S
C790 H802 0.960 1_554 S
C790 H803 0.962 . S
C790 H804 0.960 . S
C791 C788 1.511 . S
C791 H805 0.961 . S
C791 H806 0.961 . S
C791 H807 0.961 . S
C792 C793 1.370 . S
C792 C794 1.363 . S
C792 H808 0.931 . S
C793 C792 1.370 . S
C793 C797 1.408 . S
C794 C792 1.363 . S
C794 C795 1.370 . S
C794 C798 1.524 . S
C795 C787 1.503 . S
C795 C794 1.370 . S
C795 C796 1.403 . S
C796 C795 1.403 . S
C796 C797 1.404 . S
C796 C799 1.539 . S
C797 C793 1.408 . S
C797 C796 1.404 . S
C797 H809 0.930 . S
C798 C794 1.524 . S
C798 H810 0.956 . S
C798 H811 0.961 . S
C798 H812 0.961 . S
C799 C796 1.539 . S
C799 H813 0.958 . S
C799 H814 0.961 . S
C799 H815 0.960 . S
H800 C784 0.931 . S
H801 C789 0.929 . S
H802 C790 0.960 1_556 S
H803 C790 0.962 . S
H804 C790 0.960 . S
H805 C791 0.961 . S
H806 C791 0.961 . S
H807 C791 0.961 . S
H808 C792 0.931 . S
H809 C797 0.930 . S
H810 C798 0.956 . S
H811 C798 0.961 . S
H812 C798 0.961 . S
H813 C799 0.958 . S
H814 C799 0.961 . S
H815 C799 0.960 . S
C816 C817 1.391 . S
C816 C818 1.394 1_554 S
C816 H832 0.931 . S
C817 C816 1.391 . S
C817 C821 1.376 . S
C818 C816 1.394 1_556 S
C818 C819 1.369 . S
C818 C822 1.531 . S
C819 C818 1.369 . S
C819 C820 1.410 1_556 S
C819 C827 1.503 . S
C820 C819 1.410 1_554 S
C820 C821 1.392 . S
C820 C823 1.511 1_554 S
C821 C817 1.376 . S
C821 C820 1.392 . S
C821 H833 0.929 . S
C822 C818 1.531 . S
C822 H834 0.960 . S
C822 H835 0.962 . S
C822 H836 0.960 . S
C823 C820 1.511 1_556 S
C823 H837 0.957 1_556 S
C823 H838 0.967 . S
C823 H839 0.958 1_556 S
C824 C825 1.370 . S
C824 C826 1.363 . S
C824 H840 0.931 . S
C825 C824 1.370 . S
C825 C829 1.408 . S
C826 C824 1.363 . S
C826 C827 1.370 . S
C826 C830 1.524 . S
C827 C819 1.503 . S
C827 C826 1.370 . S
C827 C828 1.403 . S
C828 C827 1.403 . S
C828 C829 1.404 . S
C828 C831 1.539 . S
C829 C825 1.408 . S
C829 C828 1.404 . S
C829 H841 0.930 . S
C830 C826 1.524 . S
C830 H842 0.956 . S
C830 H843 0.961 . S
C830 H844 0.961 . S
C831 C828 1.539 . S
C831 H845 0.958 . S
C831 H846 0.961 . S
C831 H847 0.960 . S
H832 C816 0.931 . S
H833 C821 0.929 . S
H834 C822 0.960 . S
H835 C822 0.962 . S
H836 C822 0.960 . S
H837 C823 0.957 1_554 S
H838 C823 0.967 . S
H839 C823 0.958 1_554 S
H840 C824 0.931 . S
H841 C829 0.930 . S
H842 C830 0.956 . S
H843 C830 0.961 . S
H844 C830 0.961 . S
H845 C831 0.958 . S
H846 C831 0.961 . S
H847 C831 0.960 . S
C848 C849 1.391 . S
C848 C850 1.394 1_554 S
C848 H864 0.931 . S
C849 C848 1.391 . S
C849 C853 1.376 . S
C850 C848 1.394 1_556 S
C850 C851 1.369 . S
C850 C854 1.531 . S
C851 C850 1.369 . S
C851 C852 1.410 1_556 S
C851 C859 1.503 . S
C852 C851 1.410 1_554 S
C852 C853 1.392 . S
C852 C855 1.511 1_654 S
C853 C849 1.376 . S
C853 C852 1.392 . S
C853 H865 0.929 . S
C854 C850 1.531 . S
C854 H866 0.960 . S
C854 H867 0.962 . S
C854 H868 0.960 . S
C855 C852 1.511 1_456 S
C855 H869 0.961 1_556 S
C855 H870 0.960 . S
C855 H871 0.961 . S
C856 C857 1.370 . S
C856 C858 1.363 . S
C856 H872 0.931 . S
C857 C856 1.370 . S
C857 C861 1.408 . S
C858 C856 1.363 . S
C858 C859 1.370 . S
C858 C862 1.524 . S
C859 C851 1.503 . S
C859 C858 1.370 . S
C859 C860 1.403 . S
C860 C859 1.403 . S
C860 C861 1.404 . S
C860 C863 1.539 . S
C861 C857 1.408 . S
C861 C860 1.404 . S
C861 H873 0.930 . S
C862 C858 1.524 . S
C862 H874 0.956 . S
C862 H875 0.961 . S
C862 H876 0.961 . S
C863 C860 1.539 . S
C863 H877 0.958 . S
C863 H878 0.961 1_655 S
C863 H879 0.960 . S
H864 C848 0.931 . S
H865 C853 0.929 . S
H866 C854 0.960 . S
H867 C854 0.962 . S
H868 C854 0.960 . S
H869 C855 0.961 1_554 S
H870 C855 0.960 . S
H871 C855 0.961 . S
H872 C856 0.931 . S
H873 C861 0.930 . S
H874 C862 0.956 . S
H875 C862 0.961 . S
H876 C862 0.961 . S
H877 C863 0.958 . S
H878 C863 0.961 1_455 S
H879 C863 0.960 . S
C880 C881 1.391 . S
C880 C882 1.394 . S
C880 H896 0.931 . S
C881 C880 1.391 . S
C881 C885 1.376 . S
C882 C880 1.394 . S
C882 C883 1.369 . S
C882 C886 1.531 . S
C883 C882 1.369 . S
C883 C884 1.410 . S
C883 C891 1.503 . S
C884 C883 1.410 . S
C884 C885 1.392 . S
C884 C887 1.511 . S
C885 C881 1.376 . S
C885 C884 1.392 . S
C885 H897 0.929 . S
C886 C882 1.531 . S
C886 H898 0.960 . S
C886 H899 0.962 . S
C886 H900 0.960 . S
C887 C884 1.511 . S
C887 H901 0.961 . S
C887 H902 0.961 . S
C887 H903 0.961 . S
C888 C889 1.370 . S
C888 C890 1.363 . S
C888 H904 0.931 1_455 S
C889 C888 1.370 . S
C889 C893 1.408 . S
C890 C888 1.363 . S
C890 C891 1.370 . S
C890 C894 1.524 . S
C891 C883 1.503 . S
C891 C890 1.370 . S
C891 C892 1.403 . S
C892 C891 1.403 . S
C892 C893 1.404 . S
C892 C895 1.539 . S
C893 C889 1.408 . S
C893 C892 1.404 . S
C893 H905 0.930 . S
C894 C890 1.524 . S
C894 H906 0.956 . S
C894 H907 0.961 . S
C894 H908 0.961 . S
C895 C892 1.539 . S
C895 H909 0.958 . S
C895 H910 0.961 . S
C895 H911 0.960 . S
H896 C880 0.931 . S
H897 C885 0.929 . S
H898 C886 0.960 . S
H899 C886 0.962 . S
H900 C886 0.960 . S
H901 C887 0.961 . S
H902 C887 0.961 . S
H903 C887 0.961 . S
H904 C888 0.931 1_655 S
H905 C893 0.930 . S
H906 C894 0.956 . S
H907 C894 0.961 . S
H908 C894 0.961 . S
H909 C895 0.958 . S
H910 C895 0.961 . S
H911 C895 0.960 . S
C912 C913 1.391 . S
C912 C914 1.394 . S
C912 H928 0.931 . S
C913 C912 1.391 . S
C913 C917 1.376 . S
C914 C912 1.394 . S
C914 C915 1.369 . S
C914 C918 1.531 . S
C915 C914 1.369 . S
C915 C916 1.410 . S
C915 C923 1.503 . S
C916 C915 1.410 . S
C916 C917 1.392 . S
C916 C919 1.511 . S
C917 C913 1.376 . S
C917 C916 1.392 . S
C917 H929 0.929 . S
C918 C914 1.531 . S
C918 H930 0.960 . S
C918 H931 0.962 . S
C918 H932 0.960 . S
C919 C916 1.511 . S
C919 H933 0.961 . S
C919 H934 0.961 . S
C919 H935 0.961 . S
C920 C921 1.370 . S
C920 C922 1.363 . S
C920 H936 0.931 1_545 S
C921 C920 1.370 . S
C921 C925 1.408 . S
C922 C920 1.363 . S
C922 C923 1.370 . S
C922 C926 1.524 . S
C923 C915 1.503 . S
C923 C922 1.370 . S
C923 C924 1.403 . S
C924 C923 1.403 . S
C924 C925 1.404 . S
C924 C927 1.539 . S
C925 C921 1.408 . S
C925 C924 1.404 . S
C925 H937 0.930 . S
C926 C922 1.524 . S
C926 H938 0.956 . S
C926 H939 0.961 . S
C926 H940 0.961 . S
C927 C924 1.539 . S
C927 H941 0.958 . S
C927 H942 0.961 . S
C927 H943 0.960 . S
H928 C912 0.931 . S
H929 C917 0.929 . S
H930 C918 0.960 . S
H931 C918 0.962 . S
H932 C918 0.960 . S
H933 C919 0.961 . S
H934 C919 0.961 . S
H935 C919 0.961 . S
H936 C920 0.931 1_565 S
H937 C925 0.930 . S
H938 C926 0.956 . S
H939 C926 0.961 . S
H940 C926 0.961 . S
H941 C927 0.958 . S
H942 C927 0.961 . S
H943 C927 0.960 . S
C944 C945 1.391 . S
C944 C946 1.394 . S
C944 H960 0.931 . S
C945 C944 1.391 . S
C945 C949 1.376 . S
C946 C944 1.394 . S
C946 C947 1.369 . S
C946 C950 1.531 . S
C947 C946 1.369 . S
C947 C948 1.410 . S
C947 C955 1.503 . S
C948 C947 1.410 . S
C948 C949 1.392 . S
C948 C951 1.511 . S
C949 C945 1.376 . S
C949 C948 1.392 . S
C949 H961 0.929 . S
C950 C946 1.531 . S
C950 H962 0.960 . S
C950 H963 0.962 . S
C950 H964 0.960 . S
C951 C948 1.511 . S
C951 H965 0.961 . S
C951 H966 0.961 . S
C951 H967 0.961 . S
C952 C953 1.370 . S
C952 C954 1.363 . S
C952 H968 0.931 . S
C953 C952 1.370 . S
C953 C957 1.408 . S
C954 C952 1.363 . S
C954 C955 1.370 . S
C954 C958 1.524 . S
C955 C947 1.503 . S
C955 C954 1.370 . S
C955 C956 1.403 . S
C956 C955 1.403 . S
C956 C957 1.404 . S
C956 C959 1.539 . S
C957 C953 1.408 . S
C957 C956 1.404 . S
C957 H969 0.930 . S
C958 C954 1.524 . S
C958 H970 0.956 . S
C958 H971 0.961 . S
C958 H972 0.961 . S
C959 C956 1.539 . S
C959 H973 0.958 . S
C959 H974 0.961 . S
C959 H975 0.960 . S
H960 C944 0.931 . S
H961 C949 0.929 . S
H962 C950 0.960 . S
H963 C950 0.962 . S
H964 C950 0.960 . S
H965 C951 0.961 . S
H966 C951 0.961 . S
H967 C951 0.961 . S
H968 C952 0.931 . S
H969 C957 0.930 . S
H970 C958 0.956 . S
H971 C958 0.961 . S
H972 C958 0.961 . S
H973 C959 0.958 . S
H974 C959 0.961 . S
H975 C959 0.960 . S
C976 C977 1.391 . S
C976 C978 1.394 . S
C976 H992 0.931 . S
C977 C976 1.391 . S
C977 C981 1.376 . S
C978 C976 1.394 . S
C978 C979 1.369 . S
C978 C982 1.531 . S
C979 C978 1.369 . S
C979 C980 1.410 . S
C979 C987 1.503 . S
C980 C979 1.410 . S
C980 C981 1.392 . S
C980 C983 1.511 . S
C981 C977 1.376 . S
C981 C980 1.392 . S
C981 H993 0.929 . S
C982 C978 1.531 . S
C982 H994 0.960 . S
C982 H995 0.962 . S
C982 H996 0.960 . S
C983 C980 1.511 . S
C983 H997 0.961 . S
C983 H998 0.961 . S
C983 H999 0.961 . S
C984 C985 1.370 . S
C984 C986 1.363 . S
C984 H1000 0.931 . S
C985 C984 1.370 . S
C985 C989 1.408 . S
C986 C984 1.363 . S
C986 C987 1.370 . S
C986 C990 1.524 . S
C987 C979 1.503 . S
C987 C986 1.370 . S
C987 C988 1.403 . S
C988 C987 1.403 . S
C988 C989 1.404 . S
C988 C991 1.539 . S
C989 C985 1.408 . S
C989 C988 1.404 . S
C989 H1001 0.930 . S
C990 C986 1.524 . S
C990 H1002 0.956 . S
C990 H1003 0.961 . S
C990 H1004 0.961 . S
C991 C988 1.539 . S
C991 H1005 0.958 . S
C991 H1006 0.961 . S
C991 H1007 0.960 . S
H992 C976 0.931 . S
H993 C981 0.929 . S
H994 C982 0.960 . S
H995 C982 0.962 . S
H996 C982 0.960 . S
H997 C983 0.961 . S
H998 C983 0.961 . S
H999 C983 0.961 . S
H1000 C984 0.931 . S
H1001 C989 0.930 . S
H1002 C990 0.956 . S
H1003 C990 0.961 . S
H1004 C990 0.961 . S
H1005 C991 0.958 . S
H1006 C991 0.961 . S
H1007 C991 0.960 . S
C1008 C1009 1.391 1_554 S
C1008 C1010 1.390 1_554 S
C1008 H1024 0.935 . S
C1009 C1008 1.391 1_556 S
C1009 C1013 1.376 . S
C1010 C1008 1.390 1_556 S
C1010 C1011 1.369 . S
C1010 C1014 1.531 . S
C1011 C1010 1.369 . S
C1011 C1012 1.410 . S
C1011 C1019 1.503 . S
C1012 C1011 1.410 . S
C1012 C1013 1.392 . S
C1012 C1015 1.511 . S
C1013 C1009 1.376 . S
C1013 C1012 1.392 . S
C1013 H1025 0.929 . S
C1014 C1010 1.531 . S
C1014 H1026 0.960 . S
C1014 H1027 0.962 . S
C1014 H1028 0.960 1_556 S
C1015 C1012 1.511 . S
C1015 H1029 0.961 . S
C1015 H1030 0.976 . S
C1015 H1031 0.961 1_655 S
C1016 C1017 1.370 1_655 S
C1016 C1018 1.363 . S
C1016 H1032 0.931 . S
C1017 C1016 1.370 1_455 S
C1017 C1021 1.408 . S
C1018 C1016 1.363 . S
C1018 C1019 1.370 . S
C1018 C1022 1.524 . S
C1019 C1011 1.503 . S
C1019 C1018 1.370 . S
C1019 C1020 1.403 . S
C1020 C1019 1.403 . S
C1020 C1021 1.404 1_655 S
C1020 C1023 1.539 1_656 S
C1021 C1017 1.408 . S
C1021 C1020 1.404 1_455 S
C1021 H1033 0.930 . S
C1022 C1018 1.524 . S
C1022 H1034 0.956 . S
C1022 H1035 0.961 . S
C1022 H1036 0.961 . S
C1023 C1020 1.539 1_454 S
C1023 H1037 0.958 1_455 S
C1023 H1038 0.961 . S
C1023 H1039 0.960 1_455 S
H1024 C1008 0.935 . S
H1025 C1013 0.929 . S
H1026 C1014 0.960 . S
H1027 C1014 0.962 . S
H1028 C1014 0.960 1_554 S
H1029 C1015 0.961 . S
H1030 C1015 0.976 . S
H1031 C1015 0.961 1_455 S
H1032 C1016 0.931 . S
H1033 C1021 0.930 . S
H1034 C1022 0.956 . S
H1035 C1022 0.961 . S
H1036 C1022 0.961 . S
H1037 C1023 0.958 1_655 S
H1038 C1023 0.961 . S
H1039 C1023 0.960 1_655 S
C1040 C1041 1.391 1_554 S
C1040 C1042 1.394 . S
C1040 H1056 0.931 . S
C1041 C1040 1.391 1_556 S
C1041 C1045 1.376 . S
C1042 C1040 1.394 . S
C1042 C1043 1.369 1_554 S
C1042 C1046 1.531 . S
C1043 C1042 1.369 1_556 S
C1043 C1044 1.410 . S
C1043 C1051 1.503 . S
C1044 C1043 1.410 . S
C1044 C1045 1.392 . S
C1044 C1047 1.511 . S
C1045 C1041 1.376 . S
C1045 C1044 1.392 . S
C1045 H1057 0.929 . S
C1046 C1042 1.531 . S
C1046 H1058 0.960 . S
C1046 H1059 0.962 . S
C1046 H1060 0.960 . S
C1047 C1044 1.511 . S
C1047 H1061 0.961 . S
C1047 H1062 0.961 . S
C1047 H1063 0.961 . S
C1048 C1049 1.370 1_565 S
C1048 C1050 1.363 . S
C1048 H1064 0.931 . S
C1049 C1048 1.370 1_545 S
C1049 C1053 1.408 . S
C1050 C1048 1.363 . S
C1050 C1051 1.370 . S
C1050 C1054 1.524 . S
C1051 C1043 1.503 . S
C1051 C1050 1.370 . S
C1051 C1052 1.403 1_565 S
C1052 C1051 1.403 1_545 S
C1052 C1053 1.404 . S
C1052 C1055 1.539 . S
C1053 C1049 1.408 . S
C1053 C1052 1.404 . S
C1053 H1065 0.930 . S
C1054 C1050 1.524 . S
C1054 H1066 0.956 . S
C1054 H1067 0.961 . S
C1054 H1068 0.961 . S
C1055 C1052 1.539 . S
C1055 H1069 0.958 . S
C1055 H1070 0.961 . S
C1055 H1071 0.960 . S
H1056 C1040 0.931 . S
H1057 C1045 0.929 . S
H1058 C1046 0.960 . S
H1059 C1046 0.962 . S
H1060 C1046 0.960 . S
H1061 C1047 0.961 . S
H1062 C1047 0.961 . S
H1063 C1047 0.961 . S
H1064 C1048 0.931 . S
H1065 C1053 0.930 . S
H1066 C1054 0.956 . S
H1067 C1054 0.961 . S
H1068 C1054 0.961 . S
H1069 C1055 0.958 . S
H1070 C1055 0.961 . S
H1071 C1055 0.960 . S
C1072 C1073 1.391 . S
C1072 C1074 1.394 . S
C1072 H1088 0.931 . S
C1073 C1072 1.391 . S
C1073 C1077 1.376 1_556 S
C1074 C1072 1.394 . S
C1074 C1075 1.369 . S
C1074 C1078 1.531 . S
C1075 C1074 1.369 . S
C1075 C1076 1.410 1_556 S
C1075 C1083 1.503 . S
C1076 C1075 1.410 1_554 S
C1076 C1077 1.392 . S
C1076 C1079 1.511 . S
C1077 C1073 1.376 1_554 S
C1077 C1076 1.392 . S
C1077 H1089 0.929 . S
C1078 C1074 1.531 . S
C1078 H1090 0.960 . S
C1078 H1091 0.962 . S
C1078 H1092 0.960 . S
C1079 C1076 1.511 . S
C1079 H1093 0.961 . S
C1079 H1094 0.961 . S
C1079 H1095 0.961 . S
C1080 C1081 1.370 . S
C1080 C1082 1.363 . S
C1080 H1096 0.931 . S
C1081 C1080 1.370 . S
C1081 C1085 1.408 . S
C1082 C1080 1.363 . S
C1082 C1083 1.370 . S
C1082 C1086 1.524 . S
C1083 C1075 1.503 . S
C1083 C1082 1.370 . S
C1083 C1084 1.403 . S
C1084 C1083 1.403 . S
C1084 C1085 1.404 . S
C1084 C1087 1.539 . S
C1085 C1081 1.408 . S
C1085 C1084 1.404 . S
C1085 H1097 0.930 . S
C1086 C1082 1.524 . S
C1086 H1098 0.956 . S
C1086 H1099 0.961 . S
C1086 H1100 0.961 . S
C1087 C1084 1.539 . S
C1087 H1101 0.958 . S
C1087 H1102 0.961 . S
C1087 H1103 0.960 . S
H1088 C1072 0.931 . S
H1089 C1077 0.929 . S
H1090 C1078 0.960 . S
H1091 C1078 0.962 . S
H1092 C1078 0.960 . S
H1093 C1079 0.961 . S
H1094 C1079 0.961 . S
H1095 C1079 0.961 . S
H1096 C1080 0.931 . S
H1097 C1085 0.930 . S
H1098 C1086 0.956 . S
H1099 C1086 0.961 . S
H1100 C1086 0.961 . S
H1101 C1087 0.958 . S
H1102 C1087 0.961 . S
H1103 C1087 0.960 . S
C1104 C1105 1.391 . S
C1104 C1106 1.394 . S
C1104 H1120 0.931 . S
C1105 C1104 1.391 . S
C1105 C1109 1.376 1_556 S
C1106 C1104 1.394 . S
C1106 C1107 1.369 . S
C1106 C1110 1.531 . S
C1107 C1106 1.369 . S
C1107 C1108 1.410 . S
C1107 C1115 1.503 . S
C1108 C1107 1.410 . S
C1108 C1109 1.392 1_556 S
C1108 C1111 1.511 1_556 S
C1109 C1105 1.376 1_554 S
C1109 C1108 1.392 1_554 S
C1109 H1121 0.929 . S
C1110 C1106 1.531 . S
C1110 H1122 0.960 . S
C1110 H1123 0.962 . S
C1110 H1124 0.960 . S
C1111 C1108 1.511 1_554 S
C1111 H1125 0.961 . S
C1111 H1126 0.961 . S
C1111 H1127 0.961 1_554 S
C1112 C1113 1.370 . S
C1112 C1114 1.363 . S
C1112 H1128 0.931 . S
C1113 C1112 1.370 . S
C1113 C1117 1.408 . S
C1114 C1112 1.363 . S
C1114 C1115 1.370 . S
C1114 C1118 1.524 . S
C1115 C1107 1.503 . S
C1115 C1114 1.370 . S
C1115 C1116 1.403 . S
C1116 C1115 1.403 . S
C1116 C1117 1.404 . S
C1116 C1119 1.539 . S
C1117 C1113 1.408 . S
C1117 C1116 1.404 . S
C1117 H1129 0.930 . S
C1118 C1114 1.524 . S
C1118 H1130 0.956 . S
C1118 H1131 0.961 1_556 S
C1118 H1132 0.960 1_556 S
C1119 C1116 1.539 . S
C1119 H1133 0.958 . S
C1119 H1134 0.961 . S
C1119 H1135 0.960 . S
H1120 C1104 0.931 . S
H1121 C1109 0.929 . S
H1122 C1110 0.960 . S
H1123 C1110 0.962 . S
H1124 C1110 0.960 . S
H1125 C1111 0.961 . S
H1126 C1111 0.961 . S
H1127 C1111 0.961 1_556 S
H1128 C1112 0.931 . S
H1129 C1117 0.930 . S
H1130 C1118 0.956 . S
H1131 C1118 0.961 1_554 S
H1132 C1118 0.960 1_554 S
H1133 C1119 0.958 . S
H1134 C1119 0.961 . S
H1135 C1119 0.960 . S
C1136 C1137 1.391 . S
C1136 C1138 1.394 . S
C1136 H1152 0.931 . S
C1137 C1136 1.391 . S
C1137 C1141 1.376 . S
C1138 C1136 1.394 . S
C1138 C1139 1.369 . S
C1138 C1142 1.531 . S
C1139 C1138 1.369 . S
C1139 C1140 1.410 . S
C1139 C1147 1.503 . S
C1140 C1139 1.410 . S
C1140 C1141 1.392 . S
C1140 C1143 1.511 . S
C1141 C1137 1.376 . S
C1141 C1140 1.392 . S
C1141 H1153 0.929 . S
C1142 C1138 1.531 . S
C1142 H1154 0.960 . S
C1142 H1155 0.962 . S
C1142 H1156 0.960 . S
C1143 C1140 1.511 . S
C1143 H1157 0.961 . S
C1143 H1158 0.961 . S
C1143 H1159 0.961 . S
C1144 C1145 1.370 . S
C1144 C1146 1.363 . S
C1144 H1160 0.931 . S
C1145 C1144 1.370 . S
C1145 C1149 1.408 . S
C1146 C1144 1.363 . S
C1146 C1147 1.370 . S
C1146 C1150 1.524 . S
C1147 C1139 1.503 . S
C1147 C1146 1.370 . S
C1147 C1148 1.403 . S
C1148 C1147 1.403 . S
C1148 C1149 1.404 . S
C1148 C1151 1.539 . S
C1149 C1145 1.408 . S
C1149 C1148 1.404 . S
C1149 H1161 0.930 . S
C1150 C1146 1.524 . S
C1150 H1162 0.956 . S
C1150 H1163 0.961 . S
C1150 H1164 0.961 1_455 S
C1151 C1148 1.539 . S
C1151 H1165 0.958 . S
C1151 H1166 0.961 . S
C1151 H1167 0.960 . S
H1152 C1136 0.931 . S
H1153 C1141 0.929 . S
H1154 C1142 0.960 . S
H1155 C1142 0.962 . S
H1156 C1142 0.960 . S
H1157 C1143 0.961 . S
H1158 C1143 0.961 . S
H1159 C1143 0.961 . S
H1160 C1144 0.931 . S
H1161 C1149 0.930 . S
H1162 C1150 0.956 . S
H1163 C1150 0.961 . S
H1164 C1150 0.961 1_655 S
H1165 C1151 0.958 . S
H1166 C1151 0.961 . S
H1167 C1151 0.960 . S
C1168 C1169 1.391 . S
C1168 C1170 1.394 . S
C1168 H1184 0.931 . S
C1169 C1168 1.391 . S
C1169 C1173 1.376 . S
C1170 C1168 1.394 . S
C1170 C1171 1.369 . S
C1170 C1174 1.531 . S
C1171 C1170 1.369 . S
C1171 C1172 1.410 . S
C1171 C1179 1.503 . S
C1172 C1171 1.410 . S
C1172 C1173 1.392 . S
C1172 C1175 1.511 . S
C1173 C1169 1.376 . S
C1173 C1172 1.392 . S
C1173 H1185 0.929 . S
C1174 C1170 1.531 . S
C1174 H1186 0.960 . S
C1174 H1187 0.962 . S
C1174 H1188 0.960 . S
C1175 C1172 1.511 . S
C1175 H1189 0.961 . S
C1175 H1190 0.961 . S
C1175 H1191 0.961 . S
C1176 C1177 1.370 . S
C1176 C1178 1.363 . S
C1176 H1192 0.931 . S
C1177 C1176 1.370 . S
C1177 C1181 1.408 . S
C1178 C1176 1.363 . S
C1178 C1179 1.370 . S
C1178 C1182 1.524 . S
C1179 C1171 1.503 . S
C1179 C1178 1.370 . S
C1179 C1180 1.403 . S
C1180 C1179 1.403 . S
C1180 C1181 1.404 . S
C1180 C1183 1.539 1_545 S
C1181 C1177 1.408 . S
C1181 C1180 1.404 . S
C1181 H1193 0.958 . S
C1182 C1178 1.524 . S
C1182 H1194 0.956 . S
C1182 H1195 0.961 . S
C1182 H1196 0.961 . S
C1183 C1180 1.539 1_565 S
C1183 H1197 0.960 . S
C1183 H1198 0.961 . S
C1183 H1199 0.957 1_565 S
H1184 C1168 0.931 . S
H1185 C1173 0.929 . S
H1186 C1174 0.960 . S
H1187 C1174 0.962 . S
H1188 C1174 0.960 . S
H1189 C1175 0.961 . S
H1190 C1175 0.961 . S
H1191 C1175 0.961 . S
H1192 C1176 0.931 . S
H1193 C1181 0.958 . S
H1194 C1182 0.956 . S
H1195 C1182 0.961 . S
H1196 C1182 0.961 . S
H1197 C1183 0.960 . S
H1198 C1183 0.961 . S
H1199 C1183 0.957 1_545 S
C1200 C1201 1.391 . S
C1200 C1202 1.394 . S
C1200 H1216 0.931 . S
C1201 C1200 1.391 . S
C1201 C1205 1.376 . S
C1202 C1200 1.394 . S
C1202 C1203 1.369 . S
C1202 C1206 1.531 . S
C1203 C1202 1.369 . S
C1203 C1204 1.410 . S
C1203 C1211 1.503 . S
C1204 C1203 1.410 . S
C1204 C1205 1.392 . S
C1204 C1207 1.511 . S
C1205 C1201 1.376 . S
C1205 C1204 1.392 . S
C1205 H1217 0.929 . S
C1206 C1202 1.531 . S
C1206 H1218 0.960 . S
C1206 H1219 0.962 . S
C1206 H1220 0.960 . S
C1207 C1204 1.511 . S
C1207 H1221 0.961 . S
C1207 H1222 0.961 . S
C1207 H1223 0.961 . S
C1208 C1209 1.370 . S
C1208 C1210 1.363 . S
C1208 H1224 0.931 . S
C1209 C1208 1.370 . S
C1209 C1213 1.408 . S
C1210 C1208 1.363 . S
C1210 C1211 1.370 . S
C1210 C1214 1.524 . S
C1211 C1203 1.503 . S
C1211 C1210 1.370 . S
C1211 C1212 1.403 . S
C1212 C1211 1.403 . S
C1212 C1213 1.404 . S
C1212 C1215 1.539 . S
C1213 C1209 1.408 . S
C1213 C1212 1.404 . S
C1213 H1225 0.930 . S
C1214 C1210 1.524 . S
C1214 H1226 0.956 . S
C1214 H1227 0.961 . S
C1214 H1228 0.961 . S
C1215 C1212 1.539 . S
C1215 H1229 0.958 . S
C1215 H1230 0.961 . S
C1215 H1231 0.960 . S
H1216 C1200 0.931 . S
H1217 C1205 0.929 . S
H1218 C1206 0.960 . S
H1219 C1206 0.962 . S
H1220 C1206 0.960 . S
H1221 C1207 0.961 . S
H1222 C1207 0.961 . S
H1223 C1207 0.961 . S
H1224 C1208 0.931 . S
H1225 C1213 0.930 . S
H1226 C1214 0.956 . S
H1227 C1214 0.961 . S
H1228 C1214 0.961 . S
H1229 C1215 0.958 . S
H1230 C1215 0.961 . S
H1231 C1215 0.960 . S
C1232 C1233 1.391 . S
C1232 C1234 1.394 . S
C1232 H1248 0.931 . S
C1233 C1232 1.391 . S
C1233 C1237 1.376 . S
C1234 C1232 1.394 . S
C1234 C1235 1.369 . S
C1234 C1238 1.531 . S
C1235 C1234 1.369 . S
C1235 C1236 1.410 . S
C1235 C1243 1.503 . S
C1236 C1235 1.410 . S
C1236 C1237 1.392 . S
C1236 C1239 1.511 . S
C1237 C1233 1.376 . S
C1237 C1236 1.392 . S
C1237 H1249 0.929 . S
C1238 C1234 1.531 . S
C1238 H1250 0.960 . S
C1238 H1251 0.962 . S
C1238 H1252 0.960 . S
C1239 C1236 1.511 . S
C1239 H1253 0.961 . S
C1239 H1254 0.961 . S
C1239 H1255 0.961 . S
C1240 C1241 1.370 . S
C1240 C1242 1.363 . S
C1240 H1256 0.931 . S
C1241 C1240 1.370 . S
C1241 C1245 1.408 . S
C1242 C1240 1.363 . S
C1242 C1243 1.370 . S
C1242 C1246 1.524 . S
C1243 C1235 1.503 . S
C1243 C1242 1.370 . S
C1243 C1244 1.403 . S
C1244 C1243 1.403 . S
C1244 C1245 1.404 . S
C1244 C1247 1.539 . S
C1245 C1241 1.408 . S
C1245 C1244 1.404 . S
C1245 H1257 0.930 . S
C1246 C1242 1.524 . S
C1246 H1258 0.956 . S
C1246 H1259 0.961 . S
C1246 H1260 0.961 . S
C1247 C1244 1.539 . S
C1247 H1261 0.958 . S
C1247 H1262 0.961 . S
C1247 H1263 0.960 . S
H1248 C1232 0.931 . S
H1249 C1237 0.929 . S
H1250 C1238 0.960 . S
H1251 C1238 0.962 . S
H1252 C1238 0.960 . S
H1253 C1239 0.961 . S
H1254 C1239 0.961 . S
H1255 C1239 0.961 . S
H1256 C1240 0.931 . S
H1257 C1245 0.930 . S
H1258 C1246 0.956 . S
H1259 C1246 0.961 . S
H1260 C1246 0.961 . S
H1261 C1247 0.958 . S
H1262 C1247 0.961 . S
H1263 C1247 0.960 . S
C1264 C1265 1.391 . S
C1264 C1266 1.394 . S
C1264 H1280 0.931 . S
C1265 C1264 1.391 . S
C1265 C1269 1.376 . S
C1266 C1264 1.394 . S
C1266 C1267 1.369 . S
C1266 C1270 1.531 . S
C1267 C1266 1.369 . S
C1267 C1268 1.410 . S
C1267 C1275 1.503 . S
C1268 C1267 1.410 . S
C1268 C1269 1.392 . S
C1268 C1271 1.511 . S
C1269 C1265 1.376 . S
C1269 C1268 1.392 . S
C1269 H1281 0.929 . S
C1270 C1266 1.531 . S
C1270 H1282 0.963 . S
C1270 H1283 0.962 1_655 S
C1270 H1284 0.960 1_655 S
C1271 C1268 1.511 . S
C1271 H1285 0.961 . S
C1271 H1286 0.961 . S
C1271 H1287 0.961 . S
C1272 C1273 1.370 . S
C1272 C1274 1.363 . S
C1272 H1288 0.931 . S
C1273 C1272 1.370 . S
C1273 C1277 1.408 . S
C1274 C1272 1.363 . S
C1274 C1275 1.370 . S
C1274 C1278 1.524 . S
C1275 C1267 1.503 . S
C1275 C1274 1.370 . S
C1275 C1276 1.403 . S
C1276 C1275 1.403 . S
C1276 C1277 1.404 . S
C1276 C1279 1.539 . S
C1277 C1273 1.408 . S
C1277 C1276 1.404 . S
C1277 H1289 0.930 . S
C1278 C1274 1.524 . S
C1278 H1290 0.956 . S
C1278 H1291 0.961 . S
C1278 H1292 0.961 . S
C1279 C1276 1.539 . S
C1279 H1293 0.958 . S
C1279 H1294 0.961 . S
C1279 H1295 0.960 . S
H1280 C1264 0.931 . S
H1281 C1269 0.929 . S
H1282 C1270 0.963 . S
H1283 C1270 0.962 1_455 S
H1284 C1270 0.960 1_455 S
H1285 C1271 0.961 . S
H1286 C1271 0.961 . S
H1287 C1271 0.961 . S
H1288 C1272 0.931 . S
H1289 C1277 0.930 . S
H1290 C1278 0.956 . S
H1291 C1278 0.961 . S
H1292 C1278 0.961 . S
H1293 C1279 0.958 . S
H1294 C1279 0.961 . S
H1295 C1279 0.960 . S
C1296 C1297 1.391 . S
C1296 C1298 1.394 . S
C1296 H1312 0.931 . S
C1297 C1296 1.391 . S
C1297 C1301 1.376 . S
C1298 C1296 1.394 . S
C1298 C1299 1.369 . S
C1298 C1302 1.531 . S
C1299 C1298 1.369 . S
C1299 C1300 1.410 . S
C1299 C1307 1.503 . S
C1300 C1299 1.410 . S
C1300 C1301 1.392 . S
C1300 C1303 1.511 . S
C1301 C1297 1.376 . S
C1301 C1300 1.392 . S
C1301 H1313 0.929 . S
C1302 C1298 1.531 . S
C1302 H1314 0.960 . S
C1302 H1315 0.962 . S
C1302 H1316 0.960 . S
C1303 C1300 1.511 . S
C1303 H1317 0.961 . S
C1303 H1318 0.961 . S
C1303 H1319 0.961 . S
C1304 C1305 1.370 . S
C1304 C1306 1.363 . S
C1304 H1320 0.931 1_565 S
C1305 C1304 1.370 . S
C1305 C1309 1.408 . S
C1306 C1304 1.363 . S
C1306 C1307 1.370 . S
C1306 C1310 1.524 1_565 S
C1307 C1299 1.503 . S
C1307 C1306 1.370 . S
C1307 C1308 1.403 . S
C1308 C1307 1.403 . S
C1308 C1309 1.404 . S
C1308 C1311 1.539 . S
C1309 C1305 1.408 . S
C1309 C1308 1.404 . S
C1309 H1321 0.930 . S
C1310 C1306 1.524 1_545 S
C1310 H1322 0.956 . S
C1310 H1323 0.961 . S
C1310 H1324 0.961 . S
C1311 C1308 1.539 . S
C1311 H1325 0.958 . S
C1311 H1326 0.961 . S
C1311 H1327 0.960 . S
H1312 C1296 0.931 . S
H1313 C1301 0.929 . S
H1314 C1302 0.960 . S
H1315 C1302 0.962 . S
H1316 C1302 0.960 . S
H1317 C1303 0.961 . S
H1318 C1303 0.961 . S
H1319 C1303 0.961 . S
H1320 C1304 0.931 1_545 S
H1321 C1309 0.930 . S
H1322 C1310 0.956 . S
H1323 C1310 0.961 . S
H1324 C1310 0.961 . S
H1325 C1311 0.958 . S
H1326 C1311 0.961 . S
H1327 C1311 0.960 . S
C1328 C1329 1.391 . S
C1328 C1330 1.394 . S
C1328 H1344 0.931 . S
C1329 C1328 1.391 . S
C1329 C1333 1.376 . S
C1330 C1328 1.394 . S
C1330 C1331 1.369 . S
C1330 C1334 1.531 . S
C1331 C1330 1.369 . S
C1331 C1332 1.410 . S
C1331 C1339 1.503 . S
C1332 C1331 1.410 . S
C1332 C1333 1.392 . S
C1332 C1335 1.511 . S
C1333 C1329 1.376 . S
C1333 C1332 1.392 . S
C1333 H1345 0.929 . S
C1334 C1330 1.531 . S
C1334 H1346 0.960 . S
C1334 H1347 0.962 . S
C1334 H1348 0.960 . S
C1335 C1332 1.511 . S
C1335 H1349 0.961 . S
C1335 H1350 0.961 . S
C1335 H1351 0.961 . S
C1336 C1337 1.370 . S
C1336 C1338 1.363 . S
C1336 H1352 0.931 . S
C1337 C1336 1.370 . S
C1337 C1341 1.408 . S
C1338 C1336 1.363 . S
C1338 C1339 1.370 . S
C1338 C1342 1.524 . S
C1339 C1331 1.503 . S
C1339 C1338 1.370 . S
C1339 C1340 1.403 . S
C1340 C1339 1.403 . S
C1340 C1341 1.404 . S
C1340 C1343 1.539 . S
C1341 C1337 1.408 . S
C1341 C1340 1.404 . S
C1341 H1353 0.930 . S
C1342 C1338 1.524 . S
C1342 H1354 0.956 . S
C1342 H1355 0.961 . S
C1342 H1356 0.961 . S
C1343 C1340 1.539 . S
C1343 H1357 0.958 . S
C1343 H1358 0.961 . S
C1343 H1359 0.960 . S
H1344 C1328 0.931 . S
H1345 C1333 0.929 . S
H1346 C1334 0.960 . S
H1347 C1334 0.962 . S
H1348 C1334 0.960 . S
H1349 C1335 0.961 . S
H1350 C1335 0.961 . S
H1351 C1335 0.961 . S
H1352 C1336 0.931 . S
H1353 C1341 0.930 . S
H1354 C1342 0.956 . S
H1355 C1342 0.961 . S
H1356 C1342 0.961 . S
H1357 C1343 0.958 . S
H1358 C1343 0.961 . S
H1359 C1343 0.960 . S
C1360 C1361 1.391 . S
C1360 C1362 1.394 . S
C1360 H1376 0.931 . S
C1361 C1360 1.391 . S
C1361 C1365 1.376 . S
C1362 C1360 1.394 . S
C1362 C1363 1.369 . S
C1362 C1366 1.531 . S
C1363 C1362 1.369 . S
C1363 C1364 1.410 . S
C1363 C1371 1.503 . S
C1364 C1363 1.410 . S
C1364 C1365 1.392 . S
C1364 C1367 1.511 . S
C1365 C1361 1.376 . S
C1365 C1364 1.392 . S
C1365 H1377 0.929 . S
C1366 C1362 1.531 . S
C1366 H1378 0.960 . S
C1366 H1379 0.962 . S
C1366 H1380 0.960 . S
C1367 C1364 1.511 . S
C1367 H1381 0.961 . S
C1367 H1382 0.961 . S
C1367 H1383 0.961 . S
C1368 C1369 1.370 . S
C1368 C1370 1.363 . S
C1368 H1384 0.931 . S
C1369 C1368 1.370 . S
C1369 C1373 1.408 . S
C1370 C1368 1.363 . S
C1370 C1371 1.370 . S
C1370 C1374 1.524 . S
C1371 C1363 1.503 . S
C1371 C1370 1.370 . S
C1371 C1372 1.403 . S
C1372 C1371 1.403 . S
C1372 C1373 1.404 . S
C1372 C1375 1.539 . S
C1373 C1369 1.408 . S
C1373 C1372 1.404 . S
C1373 H1385 0.930 . S
C1374 C1370 1.524 . S
C1374 H1386 0.956 . S
C1374 H1387 0.961 . S
C1374 H1388 0.961 . S
C1375 C1372 1.539 . S
C1375 H1389 0.958 . S
C1375 H1390 0.961 . S
C1375 H1391 0.960 . S
H1376 C1360 0.931 . S
H1377 C1365 0.929 . S
H1378 C1366 0.960 . S
H1379 C1366 0.962 . S
H1380 C1366 0.960 . S
H1381 C1367 0.961 . S
H1382 C1367 0.961 . S
H1383 C1367 0.961 . S
H1384 C1368 0.931 . S
H1385 C1373 0.930 . S
H1386 C1374 0.956 . S
H1387 C1374 0.961 . S
H1388 C1374 0.961 . S
H1389 C1375 0.958 . S
H1390 C1375 0.961 . S
H1391 C1375 0.960 . S
C625 C241 2.252 . S
C633 C362 2.323 . S
C665 C446 2.350 . S
C657 C277 2.288 . S
C697 C512 2.253 . S
C689 C169 2.376 . S
C729 C596 2.260 . S
C721 C205 2.339 . S
C761 C351 2.317 1_565 S
C753 C97 2.198 . S
C785 C133 2.334 . S
C793 C435 2.361 . S
C817 C25 2.294 . S
C825 C523 2.262 . S
C849 C61 2.265 . S
C857 C607 2.273 . S
C889 C358 0.644 1_455 S
C881 C211 0.717 . S
C921 C442 0.595 1_545 S
C913 C247 0.597 . S
C953 C514 0.588 . S
C945 C253 0.653 . S
C977 C175 0.693 . S
C985 C598 0.643 . S
C1009 C67 0.593 1_556 S
C1017 C346 0.626 . S
C1049 C430 0.566 . S
C1041 C103 0.567 1_556 S
C1081 C526 0.543 . S
C1073 C109 0.616 1_556 S
C1105 C31 0.763 1_556 S
C1113 C610 0.628 . S
C1137 C181 2.776 . S
C1145 C355 2.915 . S
C1169 C217 2.730 . S
C1177 C439 2.852 . S
C1209 C519 2.921 . S
C1201 C283 2.508 . S
C1241 C603 2.947 . S
C1233 C145 2.649 . S
C1265 C37 2.727 . S
C1273 C344 2.914 . S
C1305 C428 2.862 . S
C1297 C73 2.722 . S
C1337 C530 2.921 . S
C1329 C139 2.569 . S
C1361 C1 2.613 . S
C1369 C614 2.955 . S
