# Generated by pormake.
# Topology anh, (6,3)-cn, num edge types: 1
# Building blocks:
#     Node 0, Type 0, BuildingBlock: CUKXOW_clean_sbu_0, # of connection points: 6
#     Node 1, Type 0, BuildingBlock: CUKXOW_clean_sbu_0, # of connection points: 6
#     Node 2, Type 0, BuildingBlock: CUKXOW_clean_sbu_0, # of connection points: 6
#     Node 3, Type 1, BuildingBlock: BELTOD_clean_linker_0, # of connection points: 3
#     Node 4, Type 1, BuildingBlock: BELTOD_clean_linker_0, # of connection points: 3
#     Node 5, Type 1, BuildingBlock: BELTOD_clean_linker_0, # of connection points: 3
#     Node 6, Type 1, BuildingBlock: BELTOD_clean_linker_0, # of connection points: 3
#     Node 7, Type 1, BuildingBlock: BELTOD_clean_linker_0, # of connection points: 3
#     Node 8, Type 1, BuildingBlock: BELTOD_clean_linker_0, # of connection points: 3
#     Edge 9, Type (0, 1), BuildingBlock: XIVTED_clean_linker_0, # of connection points: 2
#     Edge 10, Type (0, 1), BuildingBlock: XIVTED_clean_linker_0, # of connection points: 2
#     Edge 11, Type (0, 1), BuildingBlock: XIVTED_clean_linker_0, # of connection points: 2
#     Edge 12, Type (0, 1), BuildingBlock: XIVTED_clean_linker_0, # of connection points: 2
#     Edge 13, Type (0, 1), BuildingBlock: XIVTED_clean_linker_0, # of connection points: 2
#     Edge 14, Type (0, 1), BuildingBlock: XIVTED_clean_linker_0, # of connection points: 2
#     Edge 15, Type (0, 1), BuildingBlock: XIVTED_clean_linker_0, # of connection points: 2
#     Edge 16, Type (0, 1), BuildingBlock: XIVTED_clean_linker_0, # of connection points: 2
#     Edge 17, Type (0, 1), BuildingBlock: XIVTED_clean_linker_0, # of connection points: 2
#     Edge 18, Type (0, 1), BuildingBlock: XIVTED_clean_linker_0, # of connection points: 2
#     Edge 19, Type (0, 1), BuildingBlock: XIVTED_clean_linker_0, # of connection points: 2
#     Edge 20, Type (0, 1), BuildingBlock: XIVTED_clean_linker_0, # of connection points: 2
#     Edge 21, Type (0, 1), BuildingBlock: XIVTED_clean_linker_0, # of connection points: 2
#     Edge 22, Type (0, 1), BuildingBlock: XIVTED_clean_linker_0, # of connection points: 2
#     Edge 23, Type (0, 1), BuildingBlock: XIVTED_clean_linker_0, # of connection points: 2
#     Edge 24, Type (0, 1), BuildingBlock: XIVTED_clean_linker_0, # of connection points: 2
#     Edge 25, Type (0, 1), BuildingBlock: XIVTED_clean_linker_0, # of connection points: 2
#     Edge 26, Type (0, 1), BuildingBlock: XIVTED_clean_linker_0, # of connection points: 2
# Relax obj value: 0.123
# Max RMSD: 0.188
# Mean RMSD: 0.130
data_MOF--net-anh--node1-CUKXOW_clean_sbu_0--node2-BELTOD_clean_linker_0--edge1-XIVTED_clean_linker_0
_symmetry_space_group_name_H-M    P1
_symmetry_Int_Tables_number       1
_symmetry_cell_setting            triclinic
loop_
_symmetry_equiv_pos_as_xyz
'x, y, z'
_cell_length_a     33.165124
_cell_length_b     32.220684
_cell_length_c     59.504286
_cell_angle_alpha  95.730981
_cell_angle_beta   90.148463
_cell_angle_gamma 115.36016
loop_
_atom_site_label
_atom_site_type_symbol
_atom_site_fract_x
_atom_site_fract_y
_atom_site_fract_z
_atom_type_partial_charge
Tb0 Tb 0.0678 0.56789 0.16328 0.0
C1 C 0.03603 0.50204 0.20129 0.0
Tb2 Tb 1.00459 0.46368 0.14974 0.0
O3 O 0.011 0.57921 0.17641 0.0
O4 O 1.0007 0.52808 0.15003 0.0
O5 O 0.06722 0.54082 0.1951 0.0
C6 C 0.9274 0.38811 0.14382 0.0
O7 O 1.00531 0.4698 0.18682 0.0
C8 C 0.0889 0.4763 0.15503 0.0
C9 C 0.05296 0.52563 0.11185 0.0
O10 O 0.96451 0.3924 0.13483 0.0
O11 O 0.93375 0.42651 0.15581 0.0
O12 O 0.05537 0.4361 0.14978 0.0
O13 O 0.07267 0.50528 0.15732 0.0
O14 O 0.01715 0.48821 0.11636 0.0
O15 O 0.08014 0.55701 0.12787 0.0
C16 C 0.13502 0.65208 0.16964 0.0
O17 O 0.10334 0.6383 0.15395 0.0
O18 O 0.12879 0.61859 0.18166 0.0
C19 C 0.98094 0.54485 0.16359 0.0
Tb20 Tb 0.47004 0.0066 0.50653 0.0
C21 C 0.51122 0.04104 0.46141 0.0
Tb22 Tb 0.56592 0.08119 0.50804 0.0
O23 O 0.44297 0.0545 0.49729 0.0
O24 O 0.50311 0.07867 0.51626 0.0
O25 O 0.48371 0.00416 0.47078 0.0
C26 C 0.64205 0.15368 0.50172 0.0
O27 O 0.54024 0.07863 0.47382 0.0
C28 C 0.55711 0.99696 0.51007 0.0
C29 C 0.52493 0.05085 0.55413 0.0
O30 O 0.62711 0.11333 0.49016 0.0
O31 O 0.61438 0.15338 0.51715 0.0
O32 O 0.59066 0.03355 0.51946 0.0
O33 O 0.53289 0.0089 0.49846 0.0
O34 O 0.55697 0.08358 0.54414 0.0
O35 O 0.48955 0.01703 0.54275 0.0
C36 C 0.40081 0.92498 0.50918 0.0
O37 O 0.39794 0.96163 0.50363 0.0
O38 O 0.44237 0.93452 0.51333 0.0
C39 C 0.47776 0.09103 0.50586 0.0
Tb40 Tb 0.48156 0.47343 0.82571 0.0
C41 C 0.52842 0.49025 0.87282 0.0
Tb42 Tb 0.58005 0.50404 0.82799 0.0
O43 O 0.46668 0.40504 0.83565 0.0
O44 O 0.52408 0.44039 0.81844 0.0
O45 O 0.49636 0.49539 0.86178 0.0
C46 C 0.66649 0.52904 0.83671 0.0
O47 O 0.5613 0.48538 0.86203 0.0
C48 C 0.55364 0.56839 0.82254 0.0
C49 C 0.53411 0.48121 0.77998 0.0
O50 O 0.64453 0.55236 0.84356 0.0
O51 O 0.63955 0.49052 0.82512 0.0
O52 O 0.58771 0.56594 0.81309 0.0
O53 O 0.53711 0.537 0.83534 0.0
O54 O 0.57024 0.48595 0.79164 0.0
O55 O 0.49703 0.47758 0.78989 0.0
C56 C 0.40351 0.47496 0.81693 0.0
O57 O 0.40913 0.44637 0.82907 0.0
O58 O 0.44164 0.50252 0.80999 0.0
C59 C 0.50434 0.40592 0.82912 0.0
P60 P 0.5774 0.97768 0.21968 0.0
H61 H 0.52907 0.90951 0.18151 0.0
H62 H 0.45008 0.87277 0.16912 0.0
H63 H 0.42559 0.96776 0.21742 0.0
H64 H 0.50469 0.0043 0.22977 0.0
H65 H 0.6578 0.99078 0.19565 0.0
H66 H 0.71116 0.05441 0.17732 0.0
H67 H 0.63831 0.13515 0.19689 0.0
H68 H 0.5827 0.06921 0.21343 0.0
H69 H 0.54055 0.91634 0.25406 0.0
H70 H 0.6047 0.0637 0.2514 0.0
O71 O 0.59186 0.93392 0.21565 0.0
H72 H 0.52759 0.92868 0.29394 0.0
H73 H 0.58999 0.07638 0.29094 0.0
C74 C 0.5223 0.95858 0.207 0.0
C75 C 0.50687 0.92304 0.1891 0.0
C76 C 0.46177 0.90232 0.1819 0.0
C77 C 0.43155 0.91698 0.19256 0.0
C78 C 0.44802 0.9553 0.20918 0.0
C79 C 0.49318 0.97615 0.21625 0.0
C80 C 0.61682 0.02564 0.20639 0.0
C81 C 0.65315 0.02209 0.19594 0.0
C82 C 0.68405 0.05893 0.18558 0.0
C83 C 0.67991 0.1007 0.18587 0.0
C84 C 0.64272 0.10366 0.19605 0.0
C85 C 0.61114 0.06618 0.20589 0.0
C86 C 0.57401 0.98899 0.24973 0.0
C87 C 0.55221 0.95142 0.26212 0.0
C88 C 0.54421 0.95855 0.28487 0.0
C89 C 0.55734 0.00356 0.29569 0.0
C90 C 0.57981 0.04125 0.28327 0.0
C91 C 0.58809 0.03402 0.2605 0.0
P92 P 0.59055 0.57453 0.54342 0.0
H93 H 0.62428 0.52999 0.508 0.0
H94 H 0.60007 0.44871 0.49438 0.0
H95 H 0.47734 0.41433 0.5289 0.0
H96 H 0.50137 0.49615 0.54208 0.0
H97 H 0.61775 0.66655 0.56488 0.0
H98 H 0.59837 0.72917 0.55874 0.0
H99 H 0.50197 0.64125 0.50542 0.0
H100 H 0.52298 0.57831 0.51142 0.0
H101 H 0.64686 0.56204 0.57755 0.0
H102 H 0.51667 0.56091 0.57296 0.0
O103 O 0.64531 0.59804 0.53947 0.0
H104 H 0.63567 0.54461 0.61662 0.0
H105 H 0.50388 0.54074 0.61156 0.0
C106 C 0.56508 0.51917 0.52648 0.0
C107 C 0.59151 0.50533 0.51207 0.0
C108 C 0.57777 0.45866 0.50442 0.0
C109 C 0.53735 0.4249 0.51108 0.0
C110 C 0.50876 0.43941 0.52353 0.0
C111 C 0.52254 0.48628 0.53114 0.0
C112 C 0.57167 0.61783 0.53871 0.0
C113 C 0.59214 0.66052 0.55197 0.0
C114 C 0.58068 0.6963 0.54853 0.0
C115 C 0.54807 0.69029 0.53177 0.0
C116 C 0.5273 0.64715 0.51844 0.0
C117 C 0.53905 0.61107 0.52191 0.0
C118 C 0.58287 0.56344 0.57251 0.0
C119 C 0.61582 0.55805 0.58499 0.0
C120 C 0.60908 0.54745 0.60729 0.0
C121 C 0.56878 0.54113 0.61739 0.0
C122 C 0.53567 0.5462 0.60461 0.0
C123 C 0.54278 0.55745 0.58244 0.0
P124 P 0.13608 0.69498 0.88981 0.0
H125 H 0.21001 0.71456 0.85947 0.0
H126 H 0.23916 0.66453 0.83879 0.0
H127 H 0.13659 0.54562 0.86478 0.0
H128 H 0.10809 0.5958 0.88554 0.0
H129 H 0.06966 0.72799 0.90281 0.0
H130 H 0.99368 0.70573 0.88803 0.0
H131 H 0.01506 0.62489 0.83082 0.0
H132 H 0.09042 0.64644 0.84589 0.0
H133 H 0.19505 0.71129 0.92922 0.0
H134 H 0.05472 0.63345 0.91061 0.0
O135 O 0.173 0.75037 0.89183 0.0
H136 H 0.18319 0.6793 0.96543 0.0
H137 H 0.04202 0.60356 0.94712 0.0
C138 C 0.15782 0.65894 0.87449 0.0
C139 C 0.19398 0.67777 0.86074 0.0
C140 C 0.21018 0.64907 0.84873 0.0
C141 C 0.19017 0.60119 0.85026 0.0
C142 C 0.15303 0.58243 0.86354 0.0
C143 C 0.13689 0.6111 0.87549 0.0
C144 C 0.08517 0.6879 0.87583 0.0
C145 C 0.05822 0.70626 0.88685 0.0
C146 C 0.01485 0.69359 0.87832 0.0
C147 C 0.99811 0.66282 0.85844 0.0
C148 C 0.02666 0.64768 0.84647 0.0
C149 C 0.0699 0.66016 0.85509 0.0
C150 C 0.12563 0.6761 0.91754 0.0
C151 C 0.16149 0.68832 0.9332 0.0
C152 C 0.15457 0.66996 0.95391 0.0
C153 C 0.11152 0.63901 0.95934 0.0
C154 C 0.07567 0.62689 0.9435 0.0
C155 C 0.08278 0.6448 0.9227 0.0
P156 P 0.0801 0.45419 0.44135 0.0
H157 H 0.14478 0.48822 0.47989 0.0
H158 H 0.19218 0.56589 0.49786 0.0
H159 H 0.13465 0.62302 0.45125 0.0
H160 H 0.08597 0.5451 0.43422 0.0
H161 H 0.04194 0.38904 0.47479 0.0
H162 H 0.96708 0.35375 0.48924 0.0
H163 H 0.92628 0.4364 0.45011 0.0
H164 H 1.00165 0.47232 0.43602 0.0
H165 H 0.14176 0.50823 0.40915 0.0
H166 H 1.00719 0.40074 0.40704 0.0
O167 O 0.10541 0.42031 0.44526 0.0
H168 H 0.13379 0.51321 0.36887 0.0
H169 H 0.99832 0.40664 0.36693 0.0
C170 C 0.11308 0.51119 0.45526 0.0
C171 C 0.14235 0.51754 0.47363 0.0
C172 C 0.16953 0.56201 0.48383 0.0
C173 C 0.16789 0.60093 0.47578 0.0
C174 C 0.13677 0.59402 0.45801 0.0
C175 C 0.10926 0.54946 0.44803 0.0
C176 C 0.0267 0.43206 0.45379 0.0
C177 C 0.01705 0.39992 0.4695 0.0
C178 C 0.97444 0.38011 0.47791 0.0
C179 C 0.94092 0.39214 0.47061 0.0
C180 C 0.95147 0.42626 0.4558 0.0
C181 C 0.99434 0.4466 0.44771 0.0
C182 C 0.07441 0.45564 0.41133 0.0
C183 C 0.11028 0.48608 0.40008 0.0
C184 C 0.1056 0.48897 0.37704 0.0
C185 C 0.06504 0.46104 0.36474 0.0
C186 C 0.02995 0.42877 0.37586 0.0
C187 C 0.0348 0.4258 0.39892 0.0
P188 P 0.61889 0.02248 0.7911 0.0
H189 H 0.67228 0.11105 0.8175 0.0
H190 H 0.65474 0.17501 0.83095 0.0
H191 H 0.51512 0.08936 0.81257 0.0
H192 H 0.53288 0.02483 0.79984 0.0
H193 H 0.61048 0.93874 0.76514 0.0
H194 H 0.58052 0.85871 0.77257 0.0
H195 H 0.538 0.89459 0.83732 0.0
H196 H 0.56944 0.97595 0.82975 0.0
H197 H 0.6728 0.0735 0.75547 0.0
H198 H 0.53555 0.97983 0.76346 0.0
O199 O 0.67375 0.03888 0.7946 0.0
H200 H 0.65424 0.07892 0.71643 0.0
H201 H 0.51625 0.98629 0.72479 0.0
C202 C 0.60386 0.0631 0.80768 0.0
C203 C 0.63767 0.10542 0.81707 0.0
C204 C 0.62765 0.14226 0.82451 0.0
C205 C 0.58366 0.13768 0.8224 0.0
C206 C 0.54935 0.09411 0.81453 0.0
C207 C 0.55943 0.05711 0.80721 0.0
C208 C 0.59132 0.96308 0.79666 0.0
C209 C 0.59395 0.92937 0.78077 0.0
C210 C 0.57649 0.88337 0.78503 0.0
C211 C 0.55609 0.86981 0.80542 0.0
C212 C 0.55341 0.90379 0.82143 0.0
C213 C 0.57107 0.95021 0.81708 0.0
C214 C 0.60571 0.02559 0.76216 0.0
C215 C 0.63868 0.05402 0.74879 0.0
C216 C 0.62787 0.05745 0.72653 0.0
C217 C 0.58372 0.03292 0.7174 0.0
C218 C 0.55071 0.00497 0.73108 0.0
C219 C 0.56164 0.00142 0.75326 0.0
P220 P 0.51811 0.46353 0.1179 0.0
H221 H 0.55837 0.43858 0.15516 0.0
H222 H 0.63626 0.45712 0.16541 0.0
H223 H 0.68022 0.56203 0.11964 0.0
H224 H 0.60226 0.5445 0.11004 0.0
H225 H 0.43242 0.40496 0.1354 0.0
H226 H 0.36747 0.41676 0.14565 0.0
H227 H 0.4403 0.56259 0.13938 0.0
H228 H 0.50582 0.54976 0.12815 0.0
H229 H 0.5798 0.46134 0.08346 0.0
H230 H 0.46002 0.48272 0.08657 0.0
O231 O 0.50134 0.40662 0.1173 0.0
H232 H 0.58274 0.47035 0.04337 0.0
H233 H 0.46122 0.48911 0.04616 0.0
C234 C 0.57409 0.48946 0.13149 0.0
C235 C 0.58468 0.46673 0.14791 0.0
C236 C 0.62938 0.47717 0.15367 0.0
C237 C 0.66457 0.5103 0.14294 0.0
C238 C 0.65394 0.53564 0.12788 0.0
C239 C 0.60923 0.52586 0.12251 0.0
C240 C 0.47465 0.4765 0.13118 0.0
C241 C 0.43519 0.43982 0.13667 0.0
C242 C 0.39758 0.44674 0.14267 0.0
C243 C 0.39796 0.49078 0.14352 0.0
C244 C 0.4382 0.52803 0.13875 0.0
C245 C 0.4761 0.52094 0.13265 0.0
C246 C 0.52086 0.47335 0.0884 0.0
C247 C 0.55445 0.46872 0.07562 0.0
C248 C 0.55561 0.47306 0.05249 0.0
C249 C 0.52222 0.48054 0.04133 0.0
C250 C 0.48813 0.48446 0.05416 0.0
C251 C 0.48739 0.48076 0.07742 0.0
H252 H 0.12015 0.41497 0.16481 0.0
H253 H 0.36744 0.55024 0.12654 0.0
H254 H 0.16587 0.55475 0.14847 0.0
H255 H 0.33107 0.44422 0.17163 0.0
H256 H 0.29478 0.55218 0.13186 0.0
H257 H 0.19689 0.42339 0.16444 0.0
C258 C 0.14652 0.44769 0.16132 0.0
C259 C 0.13654 0.48426 0.15679 0.0
C260 C 0.30301 0.52881 0.14069 0.0
C261 C 0.22505 0.4939 0.15578 0.0
C262 C 0.34471 0.52776 0.13777 0.0
C263 C 0.35578 0.49644 0.14833 0.0
C264 C 0.27168 0.49793 0.15404 0.0
C265 C 0.32412 0.468 0.16249 0.0
C266 C 0.19044 0.4525 0.16112 0.0
C267 C 0.17216 0.52581 0.15226 0.0
N268 N 0.28368 0.46904 0.16465 0.0
N269 N 0.2148 0.52933 0.15156 0.0
H270 H 0.68549 0.16593 0.46281 0.0
H271 H 0.9088 0.37131 0.5125 0.0
H272 H 0.6921 0.23126 0.53048 0.0
H273 H 0.86739 0.35122 0.44192 0.0
H274 H 0.83251 0.31774 0.52063 0.0
H275 H 0.75572 0.23043 0.45556 0.0
C276 C 0.70181 0.19401 0.47612 0.0
C277 C 0.68336 0.19344 0.49728 0.0
C278 C 0.84009 0.32579 0.50346 0.0
C279 C 0.7637 0.26684 0.48922 0.0
C280 C 0.88346 0.35609 0.49881 0.0
C281 C 0.89422 0.3655 0.47652 0.0
C282 C 0.80785 0.30404 0.48558 0.0
C283 C 0.86033 0.34508 0.45936 0.0
C284 C 0.74165 0.23088 0.47194 0.0
C285 C 0.70551 0.23067 0.51394 0.0
N286 N 0.81881 0.3147 0.46419 0.0
N287 N 0.74507 0.26577 0.50968 0.0
H288 H 0.55453 0.60831 0.78476 0.0
H289 H 0.56295 0.83657 0.84555 0.0
H290 H 0.52389 0.61388 0.85501 0.0
H291 H 0.51436 0.79109 0.77591 0.0
H292 H 0.54999 0.75727 0.85059 0.0
H293 H 0.54245 0.67724 0.78151 0.0
C294 C 0.54469 0.6239 0.79943 0.0
C295 C 0.54026 0.60578 0.82017 0.0
C296 C 0.54143 0.76466 0.83435 0.0
C297 C 0.52754 0.68514 0.81679 0.0
C298 C 0.54866 0.80988 0.83146 0.0
C299 C 0.5407 0.82089 0.81011 0.0
C300 C 0.52685 0.73056 0.81571 0.0
C301 C 0.52241 0.78468 0.79247 0.0
C302 C 0.53765 0.66305 0.79757 0.0
C303 C 0.52742 0.62699 0.83871 0.0
N304 N 0.517 0.74145 0.79553 0.0
N305 N 0.52242 0.66634 0.83674 0.0
H306 H 0.93248 0.56947 0.1947 0.0
H307 H 0.72359 0.5124 0.11036 0.0
H308 H 0.92068 0.50146 0.12724 0.0
H309 H 0.7125 0.51959 0.18265 0.0
H310 H 0.79927 0.51791 0.1155 0.0
H311 H 0.8553 0.56006 0.19013 0.0
C312 C 0.91356 0.55236 0.17895 0.0
C313 C 0.93313 0.53623 0.16134 0.0
C314 C 0.7803 0.51832 0.13024 0.0
C315 C 0.84487 0.52621 0.1558 0.0
C316 C 0.73722 0.51561 0.12734 0.0
C317 C 0.71156 0.51579 0.14611 0.0
C318 C 0.79855 0.52219 0.15212 0.0
C319 C 0.73091 0.51926 0.1677 0.0
C320 C 0.86948 0.54697 0.17637 0.0
C321 C 0.90695 0.51431 0.14129 0.0
N322 N 0.77325 0.52274 0.17011 0.0
N323 N 0.86443 0.51043 0.13897 0.0
H324 H 0.31197 0.89843 0.49918 0.0
H325 H 0.25595 0.63081 0.48908 0.0
H326 H 0.40603 0.84595 0.51721 0.0
H327 H 0.15438 0.6799 0.48283 0.0
H328 H 0.31032 0.70951 0.50103 0.0
H329 H 0.25272 0.81911 0.49447 0.0
C330 C 0.31996 0.87021 0.50238 0.0
C331 C 0.36382 0.87849 0.50844 0.0
C332 C 0.27606 0.70309 0.49724 0.0
C333 C 0.29673 0.78807 0.50294 0.0
C334 C 0.24478 0.65795 0.49055 0.0
C335 C 0.20034 0.64847 0.48483 0.0
C336 C 0.26314 0.73937 0.49801 0.0
C337 C 0.18838 0.68556 0.48665 0.0
C338 C 0.28623 0.82503 0.4997 0.0
C339 C 0.37259 0.84093 0.51241 0.0
N340 N 0.21968 0.72942 0.49289 0.0
N341 N 0.33943 0.79732 0.5094 0.0
H342 H 0.46056 0.32642 0.84864 0.0
H343 H 0.63422 0.22403 0.81032 0.0
H344 H 0.5776 0.39862 0.81186 0.0
H345 H 0.5118 0.14589 0.84212 0.0
H346 H 0.61698 0.29053 0.81382 0.0
H347 H 0.4813 0.26211 0.84908 0.0
C348 C 0.49071 0.32874 0.84072 0.0
C349 C 0.51735 0.36771 0.83011 0.0
C350 C 0.59396 0.25898 0.82017 0.0
C351 C 0.54134 0.29446 0.83058 0.0
C352 C 0.60399 0.22099 0.81839 0.0
C353 C 0.57452 0.17918 0.82604 0.0
C354 C 0.55404 0.25537 0.82965 0.0
C355 C 0.53532 0.17723 0.83582 0.0
C356 C 0.50253 0.29206 0.84097 0.0
C357 C 0.55614 0.36915 0.82019 0.0
N358 N 0.52618 0.21474 0.8373 0.0
N359 N 0.56691 0.33299 0.82062 0.0
H360 H 0.58511 0.96924 0.54596 0.0
H361 H 0.53083 0.71704 0.49145 0.0
H362 H 0.50967 0.91659 0.48216 0.0
H363 H 0.54184 0.75455 0.56368 0.0
H364 H 0.52533 0.78912 0.48612 0.0
H365 H 0.57429 0.89109 0.55141 0.0
C366 C 0.56617 0.94106 0.53311 0.0
C367 C 0.54841 0.94922 0.51356 0.0
C368 C 0.52841 0.78111 0.50311 0.0
C369 C 0.5363 0.85971 0.51952 0.0
C370 C 0.53135 0.73989 0.50619 0.0
C371 C 0.53778 0.72998 0.52805 0.0
C372 C 0.53251 0.81279 0.52199 0.0
C373 C 0.53839 0.76122 0.54648 0.0
C374 C 0.55976 0.89644 0.53628 0.0
C375 C 0.52386 0.91152 0.49747 0.0
N376 N 0.53658 0.8014 0.54301 0.0
N377 N 0.519 0.8683 0.50064 0.0
H378 H 0.72337 0.61328 0.8565 0.0
H379 H 0.94265 0.57328 0.84261 0.0
H380 H 0.72011 0.48682 0.82282 0.0
H381 H 0.94381 0.70741 0.85907 0.0
H382 H 0.86173 0.53975 0.83569 0.0
H383 H 0.8045 0.64651 0.85926 0.0
C384 C 0.73986 0.59239 0.84978 0.0
C385 C 0.71522 0.54725 0.83946 0.0
C386 C 0.8798 0.57658 0.84058 0.0
C387 C 0.80816 0.58519 0.84244 0.0
C388 C 0.92604 0.59587 0.84437 0.0
C389 C 0.95004 0.64327 0.85155 0.0
C390 C 0.85742 0.60481 0.84422 0.0
C391 C 0.92659 0.67062 0.85395 0.0
C392 C 0.7862 0.61152 0.85122 0.0
C393 C 0.73813 0.52175 0.83096 0.0
N394 N 0.88153 0.65091 0.85047 0.0
N395 N 0.78356 0.54109 0.8327 0.0
H396 H 0.16891 0.71494 0.139 0.0
H397 H 0.36945 0.88959 0.22438 0.0
H398 H 0.18843 0.69204 0.20755 0.0
H399 H 0.38309 0.87755 0.1522 0.0
H400 H 0.29221 0.83134 0.21877 0.0
H401 H 0.23773 0.78768 0.14421 0.0
C402 C 0.18737 0.72563 0.15521 0.0
C403 C 0.17347 0.69762 0.17286 0.0
C404 C 0.31192 0.84199 0.20414 0.0
C405 C 0.251 0.78026 0.17897 0.0
C406 C 0.35587 0.87556 0.20728 0.0
C407 C 0.38282 0.88821 0.18872 0.0
C408 C 0.29465 0.82106 0.18227 0.0
C409 C 0.36354 0.8683 0.16697 0.0
C410 C 0.2265 0.76687 0.15813 0.0
C411 C 0.19837 0.71264 0.1935 0.0
N412 N 0.3206 0.83536 0.16433 0.0
N413 N 0.23597 0.75299 0.196 0.0
H414 H 0.42514 0.12356 0.48474 0.0
H415 H 0.59612 0.38813 0.51745 0.0
H416 H 0.54579 0.16852 0.52659 0.0
H417 H 0.45793 0.34837 0.49807 0.0
H418 H 0.58106 0.30691 0.51497 0.0
H419 H 0.43867 0.20486 0.48447 0.0
C420 C 0.45454 0.15053 0.49377 0.0
C421 C 0.48476 0.13944 0.50548 0.0
C422 C 0.55401 0.31584 0.51114 0.0
C423 C 0.50058 0.232 0.50506 0.0
C424 C 0.56268 0.3623 0.5123 0.0
C425 C 0.5283 0.37521 0.5078 0.0
C426 C 0.51063 0.28162 0.5053 0.0
C427 C 0.48537 0.33996 0.50175 0.0
C428 C 0.46219 0.19679 0.49363 0.0
C429 C 0.52218 0.17558 0.51698 0.0
N430 N 0.47773 0.29469 0.50062 0.0
N431 N 0.52914 0.22015 0.51639 0.0
H432 H 0.3895 0.53256 0.79108 0.0
H433 H 0.2211 0.60092 0.80757 0.0
H434 H 0.32507 0.432 0.83753 0.0
H435 H 0.20434 0.53382 0.86839 0.0
H436 H 0.26281 0.55875 0.79226 0.0
H437 H 0.32799 0.55441 0.79293 0.0
C438 C 0.36159 0.51419 0.8012 0.0
C439 C 0.36242 0.48095 0.81442 0.0
C440 C 0.25028 0.55336 0.80899 0.0
C441 C 0.29134 0.50527 0.81653 0.0
C442 C 0.22625 0.57727 0.81767 0.0
C443 C 0.21013 0.57157 0.83945 0.0
C444 C 0.2589 0.52428 0.82243 0.0
C445 C 0.21639 0.53944 0.85156 0.0
C446 C 0.32611 0.52641 0.80214 0.0
C447 C 0.32567 0.4581 0.82723 0.0
N448 N 0.24082 0.51749 0.843 0.0
N449 N 0.29192 0.47136 0.82832 0.0
H450 H 0.84392 0.37686 0.15477 0.0
H451 H 0.77017 0.12493 0.18433 0.0
H452 H 0.9201 0.30051 0.13486 0.0
H453 H 0.67039 0.16986 0.1655 0.0
H454 H 0.82704 0.19168 0.16928 0.0
H455 H 0.78059 0.30423 0.1615 0.0
C456 C 0.84696 0.34466 0.15146 0.0
C457 C 0.88711 0.34443 0.1443 0.0
C458 C 0.79258 0.18656 0.16826 0.0
C459 C 0.81572 0.26198 0.15251 0.0
C460 C 0.75982 0.14822 0.17676 0.0
C461 C 0.71489 0.14114 0.17621 0.0
C462 C 0.78083 0.21898 0.15963 0.0
C463 C 0.70446 0.17397 0.16678 0.0
C464 C 0.81093 0.30338 0.15528 0.0
C465 C 0.88958 0.302 0.14032 0.0
N466 N 0.73725 0.21174 0.15912 0.0
N467 N 0.85461 0.26247 0.14489 0.0
H468 H 1.00081 0.48164 0.0727 0.0
H469 H 0.1524 0.68219 0.00067 0.0
H470 H 0.12795 0.59246 0.09709 0.0
H471 H 0.05339 0.55156 0.96857 0.0
H472 H 0.14005 0.65029 0.03669 0.0
H473 H 0.01601 0.50626 0.03458 0.0
C474 C 0.03202 0.51069 0.07003 0.0
C475 C 0.06283 0.53536 0.0882 0.0
C476 C 0.12115 0.62846 0.02175 0.0
C477 C 0.08003 0.56383 0.04496 0.0
C478 C 0.12836 0.64663 0.00109 0.0
C479 C 0.10408 0.61959 0.98143 0.0
C480 C 0.089 0.58299 0.02295 0.0
C481 C 0.07246 0.57401 0.9833 0.0
C482 C 0.04061 0.52474 0.04832 0.0
C483 C 0.10278 0.57271 0.08376 0.0
N484 N 0.06566 0.55718 0.00373 0.0
N485 N 0.10996 0.586 0.0627 0.0
H486 H 0.56876 0.10683 0.43663 0.0
H487 H 0.48199 0.95224 0.31748 0.0
H488 H 0.45876 0.9706 0.42929 0.0
H489 H 0.60923 0.07189 0.32883 0.0
H490 H 0.46729 0.96326 0.3573 0.0
H491 H 0.57728 0.09987 0.39597 0.0
C492 C 0.54604 0.07558 0.42648 0.0
C493 C 0.51315 0.03905 0.43649 0.0
C494 C 0.49835 0.98714 0.35103 0.0
C495 C 0.52302 0.03089 0.38978 0.0
C496 C 0.50698 0.98072 0.32832 0.0
C497 C 0.54718 0.01092 0.31972 0.0
C498 C 0.52996 0.02422 0.36531 0.0
C499 C 0.57764 0.04794 0.33455 0.0
C500 C 0.55111 0.0716 0.40323 0.0
C501 C 0.48471 0.99953 0.42235 0.0
N502 N 0.56843 0.05345 0.35659 0.0
N503 N 0.49043 0.9964 0.39972 0.0
H504 H 0.59397 0.46887 0.75146 0.0
H505 H 0.52327 0.56887 0.64958 0.0
H506 H 0.47943 0.49968 0.75237 0.0
H507 H 0.59735 0.48663 0.63959 0.0
H508 H 0.51157 0.54931 0.68829 0.0
H509 H 0.60054 0.48035 0.71129 0.0
C510 C 0.56998 0.47762 0.74318 0.0
C511 C 0.53607 0.48327 0.75528 0.0
C512 C 0.53021 0.5354 0.67756 0.0
C513 C 0.5439 0.4972 0.70955 0.0
C514 C 0.53677 0.54636 0.65537 0.0
C515 C 0.56134 0.52939 0.64111 0.0
C516 C 0.54885 0.50781 0.68578 0.0
C517 C 0.57889 0.50129 0.64996 0.0
C518 C 0.57373 0.48411 0.72027 0.0
C519 C 0.50592 0.49467 0.74369 0.0
N520 N 0.57253 0.49162 0.67175 0.0
N521 N 0.51084 0.50175 0.72155 0.0
H522 H 0.58433 0.11988 0.58444 0.0
H523 H 0.52561 0.96393 0.68646 0.0
H524 H 0.47725 0.98209 0.58019 0.0
H525 H 0.61534 0.1094 0.69415 0.0
H526 H 0.50765 0.96987 0.64748 0.0
H527 H 0.59631 0.1168 0.62461 0.0
C528 C 0.56309 0.08908 0.59197 0.0
C529 C 0.52979 0.05111 0.57887 0.0
C530 C 0.53112 0.00054 0.65773 0.0
C531 C 0.54368 0.04724 0.62487 0.0
C532 C 0.54128 0.99725 0.68005 0.0
C533 C 0.57213 0.03622 0.69368 0.0
C534 C 0.55214 0.04305 0.64883 0.0
C535 C 0.59194 0.07824 0.68422 0.0
C536 C 0.56996 0.08737 0.61493 0.0
C537 C 0.50325 0.01222 0.58961 0.0
N538 N 0.58173 0.08049 0.66238 0.0
N539 N 0.511 0.01115 0.61193 0.0
H540 H 0.57515 0.45991 0.89938 0.0
H541 H 0.49608 0.53412 0.01683 0.0
H542 H 0.48002 0.51873 0.90287 0.0
H543 H 0.5484 0.43191 0.00858 0.0
H544 H 0.49659 0.53657 0.97585 0.0
H545 H 0.5734 0.45804 0.94028 0.0
C546 C 0.55397 0.47259 0.90875 0.0
C547 C 0.52764 0.48946 0.89766 0.0
C548 C 0.50791 0.51365 0.9831 0.0
C549 C 0.52567 0.48756 0.94459 0.0
C550 C 0.50746 0.51201 0.0065 0.0
C551 C 0.52238 0.48286 0.01639 0.0
C552 C 0.52387 0.48638 0.96945 0.0
C553 C 0.53748 0.45571 0.00198 0.0
C554 C 0.55286 0.47131 0.9321 0.0
C555 C 0.5007 0.50524 0.91072 0.0
N556 N 0.53801 0.4583 0.97933 0.0
N557 N 0.50056 0.50413 0.93353 0.0
H558 H 0.99002 0.42203 0.22105 0.0
H559 H 0.09509 0.54148 0.34508 0.0
H560 H 0.08393 0.56518 0.23658 0.0
H561 H 0.02088 0.39376 0.32944 0.0
H562 H 0.08599 0.5508 0.3056 0.0
H563 H 0.9951 0.41108 0.26102 0.0
C564 C 0.01148 0.45117 0.23283 0.0
C565 C 0.03671 0.49454 0.2254 0.0
C566 C 0.07171 0.51629 0.31074 0.0
C567 C 0.04262 0.48226 0.27102 0.0
C568 C 0.07717 0.51089 0.33331 0.0
C569 C 0.05913 0.46671 0.34062 0.0
C570 C 0.04782 0.47727 0.29523 0.0
C571 C 0.03513 0.42851 0.32462 0.0
C572 C 0.01448 0.44484 0.25561 0.0
C573 C 0.06405 0.53102 0.24142 0.0
N574 N 0.03024 0.43466 0.30265 0.0
N575 N 0.06624 0.52403 0.2634 0.0
loop_
_geom_bond_atom_site_label_1
_geom_bond_atom_site_label_2
_geom_bond_distance
_geom_bond_site_symmetry_2
_ccdc_geom_bond_type
Tb0 O3 2.453 1_455 S
Tb0 O4 2.596 1_455 S
Tb0 O5 2.374 . S
Tb0 O13 2.343 . S
Tb0 O15 2.353 . S
Tb0 O17 2.427 . S
Tb0 O18 2.513 . S
C1 O5 1.251 . S
C1 O7 1.263 . S
Tb2 O4 2.343 1_455 S
Tb2 O7 2.353 . S
Tb2 O10 2.427 1_455 S
Tb2 O11 2.513 1_455 S
Tb2 O12 2.453 . S
Tb2 O13 2.596 . S
Tb2 O14 2.374 . S
O3 Tb0 2.453 1_655 S
O3 C19 1.245 . S
O4 Tb0 2.596 1_655 S
O4 Tb2 2.343 1_655 S
O4 C19 1.259 . S
O5 Tb0 2.374 . S
O5 C1 1.251 . S
C6 O10 1.275 . S
C6 O11 1.246 . S
O7 C1 1.263 . S
O7 Tb2 2.353 . S
C8 O12 1.245 . S
C8 O13 1.259 . S
C9 O14 1.250 . S
C9 O15 1.263 . S
O10 Tb2 2.427 1_655 S
O10 C6 1.275 . S
O11 Tb2 2.513 1_655 S
O11 C6 1.246 . S
O12 Tb2 2.453 . S
O12 C8 1.245 . S
O13 Tb0 2.343 . S
O13 Tb2 2.596 . S
O13 C8 1.259 . S
O14 Tb2 2.374 . S
O14 C9 1.250 . S
O15 Tb0 2.353 . S
O15 C9 1.263 . S
C16 O17 1.275 . S
C16 O18 1.246 . S
O17 Tb0 2.427 . S
O17 C16 1.275 . S
O18 Tb0 2.513 . S
O18 C16 1.246 . S
C19 O3 1.245 . S
C19 O4 1.259 . S
Tb20 O23 2.453 . S
Tb20 O24 2.596 . S
Tb20 O25 2.374 . S
Tb20 O33 2.343 1_545 S
Tb20 O35 2.353 . S
Tb20 O37 2.427 1_545 S
Tb20 O38 2.513 1_545 S
C21 O25 1.251 . S
C21 O27 1.263 . S
Tb22 O24 2.343 . S
Tb22 O27 2.353 . S
Tb22 O30 2.427 . S
Tb22 O31 2.513 . S
Tb22 O32 2.453 1_545 S
Tb22 O33 2.596 1_545 S
Tb22 O34 2.374 . S
O23 Tb20 2.453 . S
O23 C39 1.245 . S
O24 Tb20 2.596 . S
O24 Tb22 2.343 . S
O24 C39 1.259 . S
O25 Tb20 2.374 . S
O25 C21 1.251 . S
C26 O30 1.275 . S
C26 O31 1.246 . S
O27 C21 1.263 . S
O27 Tb22 2.353 . S
C28 O32 1.245 . S
C28 O33 1.259 . S
C29 O34 1.250 . S
C29 O35 1.263 . S
O30 Tb22 2.427 . S
O30 C26 1.275 . S
O31 Tb22 2.513 . S
O31 C26 1.246 . S
O32 Tb22 2.453 1_565 S
O32 C28 1.245 . S
O33 Tb20 2.343 1_565 S
O33 Tb22 2.596 1_565 S
O33 C28 1.259 . S
O34 Tb22 2.374 . S
O34 C29 1.250 . S
O35 Tb20 2.353 . S
O35 C29 1.263 . S
C36 O37 1.275 . S
C36 O38 1.246 . S
O37 Tb20 2.427 1_565 S
O37 C36 1.275 . S
O38 Tb20 2.513 1_565 S
O38 C36 1.246 . S
C39 O23 1.245 . S
C39 O24 1.259 . S
Tb40 O43 2.453 . S
Tb40 O44 2.596 . S
Tb40 O45 2.374 . S
Tb40 O53 2.343 . S
Tb40 O55 2.353 . S
Tb40 O57 2.427 . S
Tb40 O58 2.513 . S
C41 O45 1.251 . S
C41 O47 1.263 . S
Tb42 O44 2.343 . S
Tb42 O47 2.353 . S
Tb42 O50 2.427 . S
Tb42 O51 2.513 . S
Tb42 O52 2.453 . S
Tb42 O53 2.596 . S
Tb42 O54 2.374 . S
O43 Tb40 2.453 . S
O43 C59 1.245 . S
O44 Tb40 2.596 . S
O44 Tb42 2.343 . S
O44 C59 1.259 . S
O45 Tb40 2.374 . S
O45 C41 1.251 . S
C46 O50 1.275 . S
C46 O51 1.246 . S
O47 C41 1.263 . S
O47 Tb42 2.353 . S
C48 O52 1.245 . S
C48 O53 1.259 . S
C49 O54 1.250 . S
C49 O55 1.263 . S
O50 Tb42 2.427 . S
O50 C46 1.275 . S
O51 Tb42 2.513 . S
O51 C46 1.246 . S
O52 Tb42 2.453 . S
O52 C48 1.245 . S
O53 Tb40 2.343 . S
O53 Tb42 2.596 . S
O53 C48 1.259 . S
O54 Tb42 2.374 . S
O54 C49 1.250 . S
O55 Tb40 2.353 . S
O55 C49 1.263 . S
C56 O57 1.275 . S
C56 O58 1.246 . S
O57 Tb40 2.427 . S
O57 C56 1.275 . S
O58 Tb40 2.513 . S
O58 C56 1.246 . S
C59 O43 1.245 . S
C59 O44 1.259 . S
P60 O71 1.490 1_545 S
P60 C74 1.812 1_545 S
P60 C80 1.803 . S
P60 C86 1.819 . S
H61 C75 0.941 . S
H62 C76 0.939 . S
H63 C78 0.940 . S
H64 C79 0.940 1_545 S
H65 C81 0.939 . S
H66 C82 0.942 . S
H67 C84 0.940 . S
H68 C85 0.939 . S
H69 C87 0.941 . S
H70 C91 0.939 . S
O71 P60 1.490 1_565 S
H72 C88 0.939 1_565 S
H73 C90 0.940 . S
C74 P60 1.812 1_565 S
C74 C75 1.389 . S
C74 C79 1.391 . S
C75 H61 0.941 . S
C75 C74 1.389 . S
C75 C76 1.397 . S
C76 H62 0.939 . S
C76 C75 1.397 . S
C76 C77 1.378 . S
C77 C76 1.378 . S
C77 C78 1.378 . S
C78 H63 0.940 . S
C78 C77 1.378 . S
C78 C79 1.396 . S
C79 H64 0.940 1_565 S
C79 C74 1.391 . S
C79 C78 1.396 . S
C80 P60 1.803 . S
C80 C81 1.378 . S
C80 C85 1.400 . S
C81 H65 0.939 . S
C81 C80 1.378 . S
C81 C82 1.361 . S
C82 H66 0.942 . S
C82 C81 1.361 . S
C82 C83 1.369 . S
C83 C82 1.369 . S
C83 C84 1.404 . S
C84 H67 0.940 . S
C84 C83 1.404 . S
C84 C85 1.389 . S
C85 H68 0.939 . S
C85 C80 1.400 . S
C85 C84 1.389 . S
C86 P60 1.819 . S
C86 C87 1.391 1_545 S
C86 C91 1.391 . S
C87 H69 0.941 . S
C87 C86 1.391 1_565 S
C87 C88 1.396 1_565 S
C88 H72 0.939 1_545 S
C88 C87 1.396 1_545 S
C88 C89 1.397 . S
C89 C88 1.397 . S
C89 C90 1.385 . S
C90 H73 0.940 . S
C90 C89 1.385 . S
C90 C91 1.388 . S
C91 H70 0.939 . S
C91 C86 1.391 . S
C91 C90 1.388 . S
P92 O103 1.490 . S
P92 C106 1.812 . S
P92 C112 1.803 . S
P92 C118 1.819 . S
H93 C107 0.941 . S
H94 C108 0.939 . S
H95 C110 0.940 . S
H96 C111 0.940 . S
H97 C113 0.939 . S
H98 C114 0.942 . S
H99 C116 0.940 . S
H100 C117 0.939 . S
H101 C119 0.941 . S
H102 C123 0.939 . S
O103 P92 1.490 . S
H104 C120 0.939 . S
H105 C122 0.940 . S
C106 P92 1.812 . S
C106 C107 1.389 . S
C106 C111 1.391 . S
C107 H93 0.941 . S
C107 C106 1.389 . S
C107 C108 1.397 . S
C108 H94 0.939 . S
C108 C107 1.397 . S
C108 C109 1.378 . S
C109 C108 1.378 . S
C109 C110 1.378 . S
C110 H95 0.940 . S
C110 C109 1.378 . S
C110 C111 1.396 . S
C111 H96 0.940 . S
C111 C106 1.391 . S
C111 C110 1.396 . S
C112 P92 1.803 . S
C112 C113 1.378 . S
C112 C117 1.400 . S
C113 H97 0.939 . S
C113 C112 1.378 . S
C113 C114 1.361 . S
C114 H98 0.942 . S
C114 C113 1.361 . S
C114 C115 1.369 . S
C115 C114 1.369 . S
C115 C116 1.404 . S
C116 H99 0.940 . S
C116 C115 1.404 . S
C116 C117 1.389 . S
C117 H100 0.939 . S
C117 C112 1.400 . S
C117 C116 1.389 . S
C118 P92 1.819 . S
C118 C119 1.391 . S
C118 C123 1.391 . S
C119 H101 0.941 . S
C119 C118 1.391 . S
C119 C120 1.396 . S
C120 H104 0.939 . S
C120 C119 1.396 . S
C120 C121 1.397 . S
C121 C120 1.397 . S
C121 C122 1.385 . S
C122 H105 0.940 . S
C122 C121 1.385 . S
C122 C123 1.388 . S
C123 H102 0.939 . S
C123 C118 1.391 . S
C123 C122 1.388 . S
P124 O135 1.490 . S
P124 C138 1.812 . S
P124 C144 1.803 . S
P124 C150 1.819 . S
H125 C139 0.941 . S
H126 C140 0.939 . S
H127 C142 0.940 . S
H128 C143 0.940 . S
H129 C145 0.939 . S
H130 C146 0.942 . S
H131 C148 0.940 . S
H132 C149 0.939 . S
H133 C151 0.941 . S
H134 C155 0.939 . S
O135 P124 1.490 . S
H136 C152 0.939 . S
H137 C154 0.940 . S
C138 P124 1.812 . S
C138 C139 1.389 . S
C138 C143 1.391 . S
C139 H125 0.941 . S
C139 C138 1.389 . S
C139 C140 1.397 . S
C140 H126 0.939 . S
C140 C139 1.397 . S
C140 C141 1.378 . S
C141 C140 1.378 . S
C141 C142 1.378 . S
C142 H127 0.940 . S
C142 C141 1.378 . S
C142 C143 1.396 . S
C143 H128 0.940 . S
C143 C138 1.391 . S
C143 C142 1.396 . S
C144 P124 1.803 . S
C144 C145 1.378 . S
C144 C149 1.400 . S
C145 H129 0.939 . S
C145 C144 1.378 . S
C145 C146 1.361 1_455 S
C146 H130 0.942 . S
C146 C145 1.361 1_655 S
C146 C147 1.369 . S
C147 C146 1.369 . S
C147 C148 1.404 . S
C148 H131 0.940 . S
C148 C147 1.404 . S
C148 C149 1.389 1_655 S
C149 H132 0.939 . S
C149 C144 1.400 . S
C149 C148 1.389 1_455 S
C150 P124 1.819 . S
C150 C151 1.391 . S
C150 C155 1.391 . S
C151 H133 0.941 . S
C151 C150 1.391 . S
C151 C152 1.396 . S
C152 H136 0.939 . S
C152 C151 1.396 . S
C152 C153 1.397 . S
C153 C152 1.397 . S
C153 C154 1.385 . S
C154 H137 0.940 . S
C154 C153 1.385 . S
C154 C155 1.388 . S
C155 H134 0.939 . S
C155 C150 1.391 . S
C155 C154 1.388 . S
P156 O167 1.490 . S
P156 C170 1.812 . S
P156 C176 1.803 1_455 S
P156 C182 1.819 . S
H157 C171 0.941 . S
H158 C172 0.939 . S
H159 C174 0.940 . S
H160 C175 0.940 . S
H161 C177 0.939 . S
H162 C178 0.942 . S
H163 C180 0.940 . S
H164 C181 0.939 . S
H165 C183 0.941 . S
H166 C187 0.939 . S
O167 P156 1.490 . S
H168 C184 0.939 . S
H169 C186 0.940 . S
C170 P156 1.812 . S
C170 C171 1.389 . S
C170 C175 1.391 . S
C171 H157 0.941 . S
C171 C170 1.389 . S
C171 C172 1.397 . S
C172 H158 0.939 . S
C172 C171 1.397 . S
C172 C173 1.378 . S
C173 C172 1.378 . S
C173 C174 1.378 . S
C174 H159 0.940 . S
C174 C173 1.378 . S
C174 C175 1.396 . S
C175 H160 0.940 . S
C175 C170 1.391 . S
C175 C174 1.396 . S
C176 P156 1.803 1_655 S
C176 C177 1.378 . S
C176 C181 1.400 . S
C177 H161 0.939 . S
C177 C176 1.378 . S
C177 C178 1.361 . S
C178 H162 0.942 . S
C178 C177 1.361 . S
C178 C179 1.369 . S
C179 C178 1.369 . S
C179 C180 1.404 . S
C180 H163 0.940 . S
C180 C179 1.404 . S
C180 C181 1.389 . S
C181 H164 0.939 . S
C181 C176 1.400 . S
C181 C180 1.389 . S
C182 P156 1.819 . S
C182 C183 1.391 . S
C182 C187 1.391 1_455 S
C183 H165 0.941 . S
C183 C182 1.391 . S
C183 C184 1.396 . S
C184 H168 0.939 . S
C184 C183 1.396 . S
C184 C185 1.397 . S
C185 C184 1.397 . S
C185 C186 1.385 1_455 S
C186 H169 0.940 . S
C186 C185 1.385 1_655 S
C186 C187 1.388 . S
C187 H166 0.939 . S
C187 C182 1.391 1_655 S
C187 C186 1.388 . S
P188 O199 1.490 . S
P188 C202 1.812 . S
P188 C208 1.803 1_545 S
P188 C214 1.819 . S
H189 C203 0.941 . S
H190 C204 0.939 . S
H191 C206 0.940 . S
H192 C207 0.940 . S
H193 C209 0.939 . S
H194 C210 0.942 . S
H195 C212 0.940 . S
H196 C213 0.939 . S
H197 C215 0.941 . S
H198 C219 0.939 . S
O199 P188 1.490 . S
H200 C216 0.939 . S
H201 C218 0.940 . S
C202 P188 1.812 . S
C202 C203 1.389 . S
C202 C207 1.391 . S
C203 H189 0.941 . S
C203 C202 1.389 . S
C203 C204 1.397 . S
C204 H190 0.939 . S
C204 C203 1.397 . S
C204 C205 1.378 . S
C205 C204 1.378 . S
C205 C206 1.378 . S
C206 H191 0.940 . S
C206 C205 1.378 . S
C206 C207 1.396 . S
C207 H192 0.940 . S
C207 C202 1.391 . S
C207 C206 1.396 . S
C208 P188 1.803 1_565 S
C208 C209 1.378 . S
C208 C213 1.400 . S
C209 H193 0.939 . S
C209 C208 1.378 . S
C209 C210 1.361 . S
C210 H194 0.942 . S
C210 C209 1.361 . S
C210 C211 1.369 . S
C211 C210 1.369 . S
C211 C212 1.404 . S
C212 H195 0.940 . S
C212 C211 1.404 . S
C212 C213 1.389 . S
C213 H196 0.939 . S
C213 C208 1.400 . S
C213 C212 1.389 . S
C214 P188 1.819 . S
C214 C215 1.391 . S
C214 C219 1.391 1_545 S
C215 H197 0.941 . S
C215 C214 1.391 . S
C215 C216 1.396 . S
C216 H200 0.939 . S
C216 C215 1.396 . S
C216 C217 1.397 . S
C217 C216 1.397 . S
C217 C218 1.385 1_545 S
C218 H201 0.940 . S
C218 C217 1.385 1_565 S
C218 C219 1.388 . S
C219 H198 0.939 . S
C219 C214 1.391 1_565 S
C219 C218 1.388 . S
P220 O231 1.490 . S
P220 C234 1.812 . S
P220 C240 1.803 . S
P220 C246 1.819 . S
H221 C235 0.941 . S
H222 C236 0.939 . S
H223 C238 0.940 . S
H224 C239 0.940 . S
H225 C241 0.939 . S
H226 C242 0.942 . S
H227 C244 0.940 . S
H228 C245 0.939 . S
H229 C247 0.941 . S
H230 C251 0.939 . S
O231 P220 1.490 . S
H232 C248 0.939 . S
H233 C250 0.940 . S
C234 P220 1.812 . S
C234 C235 1.389 . S
C234 C239 1.391 . S
C235 H221 0.941 . S
C235 C234 1.389 . S
C235 C236 1.397 . S
C236 H222 0.939 . S
C236 C235 1.397 . S
C236 C237 1.378 . S
C237 C236 1.378 . S
C237 C238 1.378 . S
C238 H223 0.940 . S
C238 C237 1.378 . S
C238 C239 1.396 . S
C239 H224 0.940 . S
C239 C234 1.391 . S
C239 C238 1.396 . S
C240 P220 1.803 . S
C240 C241 1.378 . S
C240 C245 1.400 . S
C241 H225 0.939 . S
C241 C240 1.378 . S
C241 C242 1.361 . S
C242 H226 0.942 . S
C242 C241 1.361 . S
C242 C243 1.369 . S
C243 C242 1.369 . S
C243 C244 1.404 . S
C244 H227 0.940 . S
C244 C243 1.404 . S
C244 C245 1.389 . S
C245 H228 0.939 . S
C245 C240 1.400 . S
C245 C244 1.389 . S
C246 P220 1.819 . S
C246 C247 1.391 . S
C246 C251 1.391 . S
C247 H229 0.941 . S
C247 C246 1.391 . S
C247 C248 1.396 . S
C248 H232 0.939 . S
C248 C247 1.396 . S
C248 C249 1.397 . S
C249 C248 1.397 . S
C249 C250 1.385 . S
C250 H233 0.940 . S
C250 C249 1.385 . S
C250 C251 1.388 . S
C251 H230 0.939 . S
C251 C246 1.391 . S
C251 C250 1.388 . S
H252 C258 0.930 . S
H253 C262 0.930 . S
H254 C267 0.929 . S
H255 C265 0.929 . S
H256 C260 0.929 . S
H257 C266 0.929 . S
C258 H252 0.930 . S
C258 C259 1.367 . S
C258 C266 1.378 . S
C259 C258 1.367 . S
C259 C267 1.433 . S
C260 H256 0.929 . S
C260 C262 1.378 . S
C260 C264 1.350 . S
C261 C264 1.463 . S
C261 C266 1.350 . S
C261 N269 1.427 . S
C262 H253 0.930 . S
C262 C260 1.378 . S
C262 C263 1.367 . S
C263 C262 1.367 . S
C263 C265 1.433 . S
C264 C260 1.350 . S
C264 C261 1.463 . S
C264 N268 1.427 . S
C265 H255 0.929 . S
C265 C263 1.433 . S
C265 N268 1.384 . S
C266 H257 0.929 . S
C266 C258 1.378 . S
C266 C261 1.350 . S
C267 H254 0.929 . S
C267 C259 1.433 . S
C267 N269 1.384 . S
N268 C264 1.427 . S
N268 C265 1.384 . S
N269 C261 1.427 . S
N269 C267 1.384 . S
H270 C276 0.930 . S
H271 C280 0.930 . S
H272 C285 0.929 . S
H273 C283 0.929 . S
H274 C278 0.929 . S
H275 C284 0.929 . S
C276 H270 0.930 . S
C276 C277 1.367 . S
C276 C284 1.378 . S
C277 C276 1.367 . S
C277 C285 1.433 . S
C278 H274 0.929 . S
C278 C280 1.378 . S
C278 C282 1.350 . S
C279 C282 1.463 . S
C279 C284 1.350 . S
C279 N287 1.427 . S
C280 H271 0.930 . S
C280 C278 1.378 . S
C280 C281 1.367 . S
C281 C280 1.367 . S
C281 C283 1.433 . S
C282 C278 1.350 . S
C282 C279 1.463 . S
C282 N286 1.427 . S
C283 H273 0.929 . S
C283 C281 1.433 . S
C283 N286 1.384 . S
C284 H275 0.929 . S
C284 C276 1.378 . S
C284 C279 1.350 . S
C285 H272 0.929 . S
C285 C277 1.433 . S
C285 N287 1.384 . S
N286 C282 1.427 . S
N286 C283 1.384 . S
N287 C279 1.427 . S
N287 C285 1.384 . S
H288 C294 0.930 . S
H289 C298 0.930 . S
H290 C303 0.929 . S
H291 C301 0.929 . S
H292 C296 0.929 . S
H293 C302 0.929 . S
C294 H288 0.930 . S
C294 C295 1.367 . S
C294 C302 1.378 . S
C295 C294 1.367 . S
C295 C303 1.433 . S
C296 H292 0.929 . S
C296 C298 1.378 . S
C296 C300 1.350 . S
C297 C300 1.463 . S
C297 C302 1.350 . S
C297 N305 1.427 . S
C298 H289 0.930 . S
C298 C296 1.378 . S
C298 C299 1.367 . S
C299 C298 1.367 . S
C299 C301 1.433 . S
C300 C296 1.350 . S
C300 C297 1.463 . S
C300 N304 1.427 . S
C301 H291 0.929 . S
C301 C299 1.433 . S
C301 N304 1.384 . S
C302 H293 0.929 . S
C302 C294 1.378 . S
C302 C297 1.350 . S
C303 H290 0.929 . S
C303 C295 1.433 . S
C303 N305 1.384 . S
N304 C300 1.427 . S
N304 C301 1.384 . S
N305 C297 1.427 . S
N305 C303 1.384 . S
H306 C312 0.930 . S
H307 C316 0.930 . S
H308 C321 0.929 . S
H309 C319 0.929 . S
H310 C314 0.929 . S
H311 C320 0.929 . S
C312 H306 0.930 . S
C312 C313 1.367 . S
C312 C320 1.378 . S
C313 C312 1.367 . S
C313 C321 1.433 . S
C314 H310 0.929 . S
C314 C316 1.378 . S
C314 C318 1.350 . S
C315 C318 1.463 . S
C315 C320 1.350 . S
C315 N323 1.427 . S
C316 H307 0.930 . S
C316 C314 1.378 . S
C316 C317 1.367 . S
C317 C316 1.367 . S
C317 C319 1.433 . S
C318 C314 1.350 . S
C318 C315 1.463 . S
C318 N322 1.427 . S
C319 H309 0.929 . S
C319 C317 1.433 . S
C319 N322 1.384 . S
C320 H311 0.929 . S
C320 C312 1.378 . S
C320 C315 1.350 . S
C321 H308 0.929 . S
C321 C313 1.433 . S
C321 N323 1.384 . S
N322 C318 1.427 . S
N322 C319 1.384 . S
N323 C315 1.427 . S
N323 C321 1.384 . S
H324 C330 0.930 . S
H325 C334 0.930 . S
H326 C339 0.929 . S
H327 C337 0.929 . S
H328 C332 0.929 . S
H329 C338 0.929 . S
C330 H324 0.930 . S
C330 C331 1.367 . S
C330 C338 1.378 . S
C331 C330 1.367 . S
C331 C339 1.433 . S
C332 H328 0.929 . S
C332 C334 1.378 . S
C332 C336 1.350 . S
C333 C336 1.463 . S
C333 C338 1.350 . S
C333 N341 1.427 . S
C334 H325 0.930 . S
C334 C332 1.378 . S
C334 C335 1.367 . S
C335 C334 1.367 . S
C335 C337 1.433 . S
C336 C332 1.350 . S
C336 C333 1.463 . S
C336 N340 1.427 . S
C337 H327 0.929 . S
C337 C335 1.433 . S
C337 N340 1.384 . S
C338 H329 0.929 . S
C338 C330 1.378 . S
C338 C333 1.350 . S
C339 H326 0.929 . S
C339 C331 1.433 . S
C339 N341 1.384 . S
N340 C336 1.427 . S
N340 C337 1.384 . S
N341 C333 1.427 . S
N341 C339 1.384 . S
H342 C348 0.930 . S
H343 C352 0.930 . S
H344 C357 0.929 . S
H345 C355 0.929 . S
H346 C350 0.929 . S
H347 C356 0.929 . S
C348 H342 0.930 . S
C348 C349 1.367 . S
C348 C356 1.378 . S
C349 C348 1.367 . S
C349 C357 1.433 . S
C350 H346 0.929 . S
C350 C352 1.378 . S
C350 C354 1.350 . S
C351 C354 1.463 . S
C351 C356 1.350 . S
C351 N359 1.427 . S
C352 H343 0.930 . S
C352 C350 1.378 . S
C352 C353 1.367 . S
C353 C352 1.367 . S
C353 C355 1.433 . S
C354 C350 1.350 . S
C354 C351 1.463 . S
C354 N358 1.427 . S
C355 H345 0.929 . S
C355 C353 1.433 . S
C355 N358 1.384 . S
C356 H347 0.929 . S
C356 C348 1.378 . S
C356 C351 1.350 . S
C357 H344 0.929 . S
C357 C349 1.433 . S
C357 N359 1.384 . S
N358 C354 1.427 . S
N358 C355 1.384 . S
N359 C351 1.427 . S
N359 C357 1.384 . S
H360 C366 0.930 . S
H361 C370 0.930 . S
H362 C375 0.929 . S
H363 C373 0.929 . S
H364 C368 0.929 . S
H365 C374 0.929 . S
C366 H360 0.930 . S
C366 C367 1.367 . S
C366 C374 1.378 . S
C367 C366 1.367 . S
C367 C375 1.433 . S
C368 H364 0.929 . S
C368 C370 1.378 . S
C368 C372 1.350 . S
C369 C372 1.463 . S
C369 C374 1.350 . S
C369 N377 1.427 . S
C370 H361 0.930 . S
C370 C368 1.378 . S
C370 C371 1.367 . S
C371 C370 1.367 . S
C371 C373 1.433 . S
C372 C368 1.350 . S
C372 C369 1.463 . S
C372 N376 1.427 . S
C373 H363 0.929 . S
C373 C371 1.433 . S
C373 N376 1.384 . S
C374 H365 0.929 . S
C374 C366 1.378 . S
C374 C369 1.350 . S
C375 H362 0.929 . S
C375 C367 1.433 . S
C375 N377 1.384 . S
N376 C372 1.427 . S
N376 C373 1.384 . S
N377 C369 1.427 . S
N377 C375 1.384 . S
H378 C384 0.930 . S
H379 C388 0.930 . S
H380 C393 0.929 . S
H381 C391 0.929 . S
H382 C386 0.929 . S
H383 C392 0.929 . S
C384 H378 0.930 . S
C384 C385 1.367 . S
C384 C392 1.378 . S
C385 C384 1.367 . S
C385 C393 1.433 . S
C386 H382 0.929 . S
C386 C388 1.378 . S
C386 C390 1.350 . S
C387 C390 1.463 . S
C387 C392 1.350 . S
C387 N395 1.427 . S
C388 H379 0.930 . S
C388 C386 1.378 . S
C388 C389 1.367 . S
C389 C388 1.367 . S
C389 C391 1.433 . S
C390 C386 1.350 . S
C390 C387 1.463 . S
C390 N394 1.427 . S
C391 H381 0.929 . S
C391 C389 1.433 . S
C391 N394 1.384 . S
C392 H383 0.929 . S
C392 C384 1.378 . S
C392 C387 1.350 . S
C393 H380 0.929 . S
C393 C385 1.433 . S
C393 N395 1.384 . S
N394 C390 1.427 . S
N394 C391 1.384 . S
N395 C387 1.427 . S
N395 C393 1.384 . S
H396 C402 0.930 . S
H397 C406 0.930 . S
H398 C411 0.929 . S
H399 C409 0.929 . S
H400 C404 0.929 . S
H401 C410 0.929 . S
C402 H396 0.930 . S
C402 C403 1.367 . S
C402 C410 1.378 . S
C403 C402 1.367 . S
C403 C411 1.433 . S
C404 H400 0.929 . S
C404 C406 1.378 . S
C404 C408 1.350 . S
C405 C408 1.463 . S
C405 C410 1.350 . S
C405 N413 1.427 . S
C406 H397 0.930 . S
C406 C404 1.378 . S
C406 C407 1.367 . S
C407 C406 1.367 . S
C407 C409 1.433 . S
C408 C404 1.350 . S
C408 C405 1.463 . S
C408 N412 1.427 . S
C409 H399 0.929 . S
C409 C407 1.433 . S
C409 N412 1.384 . S
C410 H401 0.929 . S
C410 C402 1.378 . S
C410 C405 1.350 . S
C411 H398 0.929 . S
C411 C403 1.433 . S
C411 N413 1.384 . S
N412 C408 1.427 . S
N412 C409 1.384 . S
N413 C405 1.427 . S
N413 C411 1.384 . S
H414 C420 0.930 . S
H415 C424 0.930 . S
H416 C429 0.929 . S
H417 C427 0.929 . S
H418 C422 0.929 . S
H419 C428 0.929 . S
C420 H414 0.930 . S
C420 C421 1.367 . S
C420 C428 1.378 . S
C421 C420 1.367 . S
C421 C429 1.433 . S
C422 H418 0.929 . S
C422 C424 1.378 . S
C422 C426 1.350 . S
C423 C426 1.463 . S
C423 C428 1.350 . S
C423 N431 1.427 . S
C424 H415 0.930 . S
C424 C422 1.378 . S
C424 C425 1.367 . S
C425 C424 1.367 . S
C425 C427 1.433 . S
C426 C422 1.350 . S
C426 C423 1.463 . S
C426 N430 1.427 . S
C427 H417 0.929 . S
C427 C425 1.433 . S
C427 N430 1.384 . S
C428 H419 0.929 . S
C428 C420 1.378 . S
C428 C423 1.350 . S
C429 H416 0.929 . S
C429 C421 1.433 . S
C429 N431 1.384 . S
N430 C426 1.427 . S
N430 C427 1.384 . S
N431 C423 1.427 . S
N431 C429 1.384 . S
H432 C438 0.930 . S
H433 C442 0.930 . S
H434 C447 0.929 . S
H435 C445 0.929 . S
H436 C440 0.929 . S
H437 C446 0.929 . S
C438 H432 0.930 . S
C438 C439 1.367 . S
C438 C446 1.378 . S
C439 C438 1.367 . S
C439 C447 1.433 . S
C440 H436 0.929 . S
C440 C442 1.378 . S
C440 C444 1.350 . S
C441 C444 1.463 . S
C441 C446 1.350 . S
C441 N449 1.427 . S
C442 H433 0.930 . S
C442 C440 1.378 . S
C442 C443 1.367 . S
C443 C442 1.367 . S
C443 C445 1.433 . S
C444 C440 1.350 . S
C444 C441 1.463 . S
C444 N448 1.427 . S
C445 H435 0.929 . S
C445 C443 1.433 . S
C445 N448 1.384 . S
C446 H437 0.929 . S
C446 C438 1.378 . S
C446 C441 1.350 . S
C447 H434 0.929 . S
C447 C439 1.433 . S
C447 N449 1.384 . S
N448 C444 1.427 . S
N448 C445 1.384 . S
N449 C441 1.427 . S
N449 C447 1.384 . S
H450 C456 0.930 . S
H451 C460 0.930 . S
H452 C465 0.929 . S
H453 C463 0.929 . S
H454 C458 0.929 . S
H455 C464 0.929 . S
C456 H450 0.930 . S
C456 C457 1.367 . S
C456 C464 1.378 . S
C457 C456 1.367 . S
C457 C465 1.433 . S
C458 H454 0.929 . S
C458 C460 1.378 . S
C458 C462 1.350 . S
C459 C462 1.463 . S
C459 C464 1.350 . S
C459 N467 1.427 . S
C460 H451 0.930 . S
C460 C458 1.378 . S
C460 C461 1.367 . S
C461 C460 1.367 . S
C461 C463 1.433 . S
C462 C458 1.350 . S
C462 C459 1.463 . S
C462 N466 1.427 . S
C463 H453 0.929 . S
C463 C461 1.433 . S
C463 N466 1.384 . S
C464 H455 0.929 . S
C464 C456 1.378 . S
C464 C459 1.350 . S
C465 H452 0.929 . S
C465 C457 1.433 . S
C465 N467 1.384 . S
N466 C462 1.427 . S
N466 C463 1.384 . S
N467 C459 1.427 . S
N467 C465 1.384 . S
H468 C474 0.941 . S
H469 C478 0.930 . S
H470 C483 0.929 . S
H471 C481 0.929 . S
H472 C476 0.929 . S
H473 C482 0.929 . S
C474 H468 0.941 . S
C474 C475 1.367 . S
C474 C482 1.378 . S
C475 C474 1.367 . S
C475 C483 1.433 . S
C476 H472 0.929 . S
C476 C478 1.378 1_554 S
C476 C480 1.350 . S
C477 C480 1.463 . S
C477 C482 1.350 . S
C477 N485 1.427 . S
C478 H469 0.930 . S
C478 C476 1.378 1_556 S
C478 C479 1.367 . S
C479 C478 1.367 . S
C479 C481 1.433 . S
C480 C476 1.350 . S
C480 C477 1.463 . S
C480 N484 1.427 . S
C481 H471 0.929 . S
C481 C479 1.433 . S
C481 N484 1.384 1_556 S
C482 H473 0.929 . S
C482 C474 1.378 . S
C482 C477 1.350 . S
C483 H470 0.929 . S
C483 C475 1.433 . S
C483 N485 1.384 . S
N484 C480 1.427 . S
N484 C481 1.384 1_554 S
N485 C477 1.427 . S
N485 C483 1.384 . S
H486 C492 0.930 . S
H487 C496 0.930 1_565 S
H488 C501 0.929 1_565 S
H489 C499 0.929 . S
H490 C494 0.929 1_565 S
H491 C500 0.929 . S
C492 H486 0.930 . S
C492 C493 1.367 . S
C492 C500 1.378 . S
C493 C492 1.367 . S
C493 C501 1.433 . S
C494 H490 0.929 1_545 S
C494 C496 1.378 . S
C494 C498 1.350 . S
C495 C498 1.463 . S
C495 C500 1.350 . S
C495 N503 1.427 . S
C496 H487 0.930 1_545 S
C496 C494 1.378 . S
C496 C497 1.367 . S
C497 C496 1.367 . S
C497 C499 1.433 . S
C498 C494 1.350 . S
C498 C495 1.463 . S
C498 N502 1.427 . S
C499 H489 0.929 . S
C499 C497 1.433 . S
C499 N502 1.384 . S
C500 H491 0.929 . S
C500 C492 1.378 . S
C500 C495 1.350 . S
C501 H488 0.929 1_545 S
C501 C493 1.433 . S
C501 N503 1.384 . S
N502 C498 1.427 . S
N502 C499 1.384 . S
N503 C495 1.427 . S
N503 C501 1.384 . S
H504 C510 0.930 . S
H505 C514 0.930 . S
H506 C519 0.929 . S
H507 C517 0.929 . S
H508 C512 0.929 . S
H509 C518 0.929 . S
C510 H504 0.930 . S
C510 C511 1.367 . S
C510 C518 1.378 . S
C511 C510 1.367 . S
C511 C519 1.433 . S
C512 H508 0.929 . S
C512 C514 1.378 . S
C512 C516 1.350 . S
C513 C516 1.463 . S
C513 C518 1.350 . S
C513 N521 1.427 . S
C514 H505 0.930 . S
C514 C512 1.378 . S
C514 C515 1.367 . S
C515 C514 1.367 . S
C515 C517 1.433 . S
C516 C512 1.350 . S
C516 C513 1.463 . S
C516 N520 1.427 . S
C517 H507 0.929 . S
C517 C515 1.433 . S
C517 N520 1.384 . S
C518 H509 0.929 . S
C518 C510 1.378 . S
C518 C513 1.350 . S
C519 H506 0.929 . S
C519 C511 1.433 . S
C519 N521 1.384 . S
N520 C516 1.427 . S
N520 C517 1.384 . S
N521 C513 1.427 . S
N521 C519 1.384 . S
H522 C528 0.930 . S
H523 C532 0.930 . S
H524 C537 0.946 . S
H525 C535 0.929 . S
H526 C530 0.929 . S
H527 C536 0.929 . S
C528 H522 0.930 . S
C528 C529 1.367 . S
C528 C536 1.378 . S
C529 C528 1.367 . S
C529 C537 1.411 1_545 S
C530 H526 0.929 . S
C530 C532 1.378 . S
C530 C534 1.350 1_565 S
C531 C534 1.463 . S
C531 C536 1.350 . S
C531 N539 1.427 1_545 S
C532 H523 0.930 . S
C532 C530 1.378 . S
C532 C533 1.367 1_565 S
C533 C532 1.367 1_545 S
C533 C535 1.433 . S
C534 C530 1.350 1_545 S
C534 C531 1.463 . S
C534 N538 1.427 . S
C535 H525 0.929 . S
C535 C533 1.433 . S
C535 N538 1.384 . S
C536 H527 0.929 . S
C536 C528 1.378 . S
C536 C531 1.350 . S
C537 H524 0.946 . S
C537 C529 1.411 1_565 S
C537 N539 1.388 . S
N538 C534 1.427 . S
N538 C535 1.384 . S
N539 C531 1.427 1_565 S
N539 C537 1.388 . S
H540 C546 0.930 . S
H541 C550 0.930 . S
H542 C555 0.929 . S
H543 C553 0.946 . S
H544 C548 0.929 . S
H545 C554 0.929 . S
C546 H540 0.930 . S
C546 C547 1.367 . S
C546 C554 1.378 . S
C547 C546 1.367 . S
C547 C555 1.433 . S
C548 H544 0.929 . S
C548 C550 1.378 1_556 S
C548 C552 1.350 . S
C549 C552 1.463 . S
C549 C554 1.350 . S
C549 N557 1.427 . S
C550 H541 0.930 . S
C550 C548 1.378 1_554 S
C550 C551 1.367 . S
C551 C550 1.367 . S
C551 C553 1.455 . S
C552 C548 1.350 . S
C552 C549 1.463 . S
C552 N556 1.427 . S
C553 H543 0.946 . S
C553 C551 1.455 . S
C553 N556 1.345 1_554 S
C554 H545 0.929 . S
C554 C546 1.378 . S
C554 C549 1.350 . S
C555 H542 0.929 . S
C555 C547 1.433 . S
C555 N557 1.384 . S
N556 C552 1.427 . S
N556 C553 1.345 1_556 S
N557 C549 1.427 . S
N557 C555 1.384 . S
H558 C564 0.930 . S
H559 C568 0.930 . S
H560 C573 0.929 . S
H561 C571 0.929 . S
H562 C566 0.929 . S
H563 C572 0.929 . S
C564 H558 0.930 . S
C564 C565 1.367 1_655 S
C564 C572 1.378 . S
C565 C564 1.367 1_455 S
C565 C573 1.433 . S
C566 H562 0.929 . S
C566 C568 1.378 . S
C566 C570 1.350 . S
C567 C570 1.463 . S
C567 C572 1.350 1_455 S
C567 N575 1.427 . S
C568 H559 0.930 . S
C568 C566 1.378 . S
C568 C569 1.367 . S
C569 C568 1.367 . S
C569 C571 1.433 1_455 S
C570 C566 1.350 . S
C570 C567 1.463 . S
C570 N574 1.427 1_455 S
C571 H561 0.929 . S
C571 C569 1.433 1_655 S
C571 N574 1.384 . S
C572 H563 0.929 . S
C572 C564 1.378 . S
C572 C567 1.350 1_655 S
C573 H560 0.929 . S
C573 C565 1.433 . S
C573 N575 1.384 . S
N574 C570 1.427 1_655 S
N574 C571 1.384 . S
N575 C567 1.427 . S
N575 C573 1.384 . S
C259 C8 1.946 . S
C263 C243 2.004 . S
C277 C26 1.332 . S
C281 C179 1.310 . S
C295 C48 1.495 . S
C299 C211 1.511 . S
C313 C19 1.803 . S
C317 C237 1.847 . S
C335 C173 1.433 . S
C331 C36 1.446 . S
C353 C205 1.667 . S
C349 C59 1.631 . S
C367 C28 1.503 . S
C371 C115 1.540 . S
C385 C46 1.172 . S
C389 C147 1.188 . S
C403 C16 1.508 . S
C407 C77 1.485 . S
C425 C109 1.642 . S
C421 C39 1.613 . S
C443 C141 1.028 . S
C439 C56 1.013 . S
C457 C6 1.379 . S
C461 C83 1.323 . S
C479 C153 1.414 . S
C475 C9 1.409 . S
C493 C21 1.497 . S
C497 C89 1.464 . S
C511 C49 1.466 . S
C515 C121 1.454 . S
C533 C217 1.436 . S
C529 C29 1.458 . S
C551 C249 1.565 . S
C547 C41 1.569 . S
C565 C1 1.496 . S
C569 C185 1.473 . S
