# Generated by pormake.
# Topology anh, (6,3)-cn, num edge types: 1
# Building blocks:
#     Node 0, Type 0, BuildingBlock: BETGAK_clean_sbu_0, # of connection points: 6
#     Node 1, Type 0, BuildingBlock: BETGAK_clean_sbu_0, # of connection points: 6
#     Node 2, Type 0, BuildingBlock: BETGAK_clean_sbu_0, # of connection points: 6
#     Node 3, Type 1, BuildingBlock: CUQRIR_clean_linker_1, # of connection points: 3
#     Node 4, Type 1, BuildingBlock: CUQRIR_clean_linker_1, # of connection points: 3
#     Node 5, Type 1, BuildingBlock: CUQRIR_clean_linker_1, # of connection points: 3
#     Node 6, Type 1, BuildingBlock: CUQRIR_clean_linker_1, # of connection points: 3
#     Node 7, Type 1, BuildingBlock: CUQRIR_clean_linker_1, # of connection points: 3
#     Node 8, Type 1, BuildingBlock: CUQRIR_clean_linker_1, # of connection points: 3
#     Edge 9, Type (0, 1), BuildingBlock: MIFKUJ_clean_linker_0, # of connection points: 2
#     Edge 10, Type (0, 1), BuildingBlock: MIFKUJ_clean_linker_0, # of connection points: 2
#     Edge 11, Type (0, 1), BuildingBlock: MIFKUJ_clean_linker_0, # of connection points: 2
#     Edge 12, Type (0, 1), BuildingBlock: MIFKUJ_clean_linker_0, # of connection points: 2
#     Edge 13, Type (0, 1), BuildingBlock: MIFKUJ_clean_linker_0, # of connection points: 2
#     Edge 14, Type (0, 1), BuildingBlock: MIFKUJ_clean_linker_0, # of connection points: 2
#     Edge 15, Type (0, 1), BuildingBlock: MIFKUJ_clean_linker_0, # of connection points: 2
#     Edge 16, Type (0, 1), BuildingBlock: MIFKUJ_clean_linker_0, # of connection points: 2
#     Edge 17, Type (0, 1), BuildingBlock: MIFKUJ_clean_linker_0, # of connection points: 2
#     Edge 18, Type (0, 1), BuildingBlock: MIFKUJ_clean_linker_0, # of connection points: 2
#     Edge 19, Type (0, 1), BuildingBlock: MIFKUJ_clean_linker_0, # of connection points: 2
#     Edge 20, Type (0, 1), BuildingBlock: MIFKUJ_clean_linker_0, # of connection points: 2
#     Edge 21, Type (0, 1), BuildingBlock: MIFKUJ_clean_linker_0, # of connection points: 2
#     Edge 22, Type (0, 1), BuildingBlock: MIFKUJ_clean_linker_0, # of connection points: 2
#     Edge 23, Type (0, 1), BuildingBlock: MIFKUJ_clean_linker_0, # of connection points: 2
#     Edge 24, Type (0, 1), BuildingBlock: MIFKUJ_clean_linker_0, # of connection points: 2
#     Edge 25, Type (0, 1), BuildingBlock: MIFKUJ_clean_linker_0, # of connection points: 2
#     Edge 26, Type (0, 1), BuildingBlock: MIFKUJ_clean_linker_0, # of connection points: 2
# Relax obj value: 0.169
# Max RMSD: 0.211
# Mean RMSD: 0.159
data_MOF--net-anh--node1-BETGAK_clean_sbu_0--node2-CUQRIR_clean_linker_1--edge1-MIFKUJ_clean_linker_0
_symmetry_space_group_name_H-M    P1
_symmetry_Int_Tables_number       1
_symmetry_cell_setting            triclinic
loop_
_symmetry_equiv_pos_as_xyz
'x, y, z'
_cell_length_a     37.448972
_cell_length_b     44.261675
_cell_length_c     61.547271
_cell_angle_alpha  88.350841
_cell_angle_beta   90.410869
_cell_angle_gamma 128.39169
loop_
_atom_site_label
_atom_site_type_symbol
_atom_site_fract_x
_atom_site_fract_y
_atom_site_fract_z
_atom_type_partial_charge
La0 La 0.1031 0.4619 0.15908 0.0
La1 La 1.04515 0.48469 0.16318 0.0
C2 C 0.16968 0.46432 0.14944 0.0
C3 C 0.2179 0.49382 0.15544 0.0
C4 C 0.23353 0.49118 0.17571 0.0
C5 C 0.27695 0.52148 0.18277 0.0
C6 C 0.3059 0.55501 0.16968 0.0
C7 C 0.29081 0.55731 0.14918 0.0
C8 C 0.2473 0.52702 0.14212 0.0
C9 C 1.07238 0.45428 0.19891 0.0
C10 C 0.14753 0.5502 0.16905 0.0
C11 C 0.97956 0.48395 0.17258 0.0
C12 C 0.93117 0.4574 0.16637 0.0
C13 C 0.91839 0.45594 0.14469 0.0
C14 C 0.87271 0.43113 0.13895 0.0
C15 C 0.83843 0.40707 0.1547 0.0
C16 C 0.85151 0.40716 0.17622 0.0
C17 C 0.89741 0.43224 0.182 0.0
C18 C 0.07839 0.49476 0.12374 0.0
C19 C 1.00047 0.39561 0.15612 0.0
O20 O 0.14146 0.44294 0.16552 0.0
O21 O 0.15279 0.47593 0.13603 0.0
O22 O 0.07948 0.43171 0.19087 0.0
O23 O 0.08585 0.48133 0.18542 0.0
O24 O 0.15272 0.52547 0.16128 0.0
O25 O 0.10659 0.53873 0.17436 0.0
O26 O 1.00909 0.50586 0.157 0.0
O27 O 0.99343 0.46908 0.18536 0.0
O28 O 0.07286 0.51773 0.13263 0.0
O29 O 1.06284 0.46588 0.1363 0.0
O30 O 0.99571 0.42141 0.16215 0.0
O31 O 1.04086 0.4059 0.15086 0.0
H32 H 0.21191 0.46598 0.18636 0.0
H33 H 0.28808 0.51838 0.19838 0.0
H34 H 0.31241 0.58278 0.13872 0.0
H35 H 0.2363 0.53007 0.12645 0.0
H36 H 0.94352 0.47454 0.13213 0.0
H37 H 0.86437 0.43255 0.12228 0.0
H38 H 0.82624 0.38866 0.18874 0.0
H39 H 0.90646 0.4323 0.19877 0.0
La40 La 0.68153 0.05603 0.4868 0.0
La41 La 0.62335 0.07866 0.47429 0.0
C42 C 0.7142 0.02707 0.50603 0.0
C43 C 0.70057 0.9887 0.5121 0.0
C44 C 0.67097 0.95654 0.49925 0.0
C45 C 0.66135 0.92114 0.50464 0.0
C46 C 0.6811 0.91729 0.523 0.0
C47 C 0.70941 0.94937 0.53618 0.0
C48 C 0.71901 0.98464 0.53077 0.0
C49 C 0.67882 0.06757 0.44477 0.0
C50 C 0.57508 0.99104 0.47831 0.0
C51 C 0.58982 0.10869 0.45763 0.0
C52 C 0.59574 0.14461 0.46089 0.0
C53 C 0.55917 0.14222 0.46914 0.0
C54 C 0.56462 0.17561 0.47376 0.0
C55 C 0.60683 0.21227 0.47017 0.0
C56 C 0.64312 0.21468 0.46134 0.0
C57 C 0.6376 0.18123 0.45669 0.0
C58 C 0.62708 0.06826 0.51641 0.0
C59 C 0.73158 0.14387 0.48009 0.0
O60 O 0.72009 0.03649 0.48529 0.0
O61 O 0.69284 0.03746 0.51603 0.0
O62 O 0.714 0.07471 0.45454 0.0
O63 O 0.64598 0.05162 0.45805 0.0
O64 O 0.61189 1.00072 0.48866 0.0
O65 O 0.57489 0.01744 0.46778 0.0
O66 O 0.57113 0.08361 0.47392 0.0
O67 O 0.62394 0.11191 0.44895 0.0
O68 O 0.59195 0.061 0.50669 0.0
O69 O 0.65955 0.08387 0.50295 0.0
O70 O 0.69261 0.13417 0.47241 0.0
O71 O 0.73427 0.11796 0.4893 0.0
H72 H 0.65607 0.95898 0.48482 0.0
H73 H 0.63965 0.8972 0.49402 0.0
H74 H 0.72444 0.94734 0.55068 0.0
H75 H 0.74151 1.00901 0.54103 0.0
H76 H 0.52647 0.11437 0.47245 0.0
H77 H 0.53607 0.1726 0.48075 0.0
H78 H 0.67587 0.24245 0.45805 0.0
H79 H 0.66625 0.18409 0.45002 0.0
La80 La 0.63327 0.60095 0.84311 0.0
La81 La 0.56877 0.51547 0.84985 0.0
C82 C 0.67196 0.66716 0.82615 0.0
C83 C 0.66126 0.69354 0.82105 0.0
C84 C 0.6438 0.70371 0.83685 0.0
C85 C 0.63647 0.73049 0.83174 0.0
C86 C 0.64627 0.7475 0.81072 0.0
C87 C 0.66238 0.73624 0.79481 0.0
C88 C 0.66993 0.70968 0.79996 0.0
C89 C 0.62253 0.57725 0.88357 0.0
C90 C 0.52436 0.5574 0.84977 0.0
C91 C 0.52907 0.44658 0.86255 0.0
C92 C 0.5372 0.41818 0.85984 0.0
C93 C 0.50305 0.38253 0.8508 0.0
C94 C 0.51093 0.35623 0.84655 0.0
C95 C 0.55326 0.36504 0.85124 0.0
C96 C 0.58711 0.40044 0.86077 0.0
C97 C 0.57908 0.42665 0.86512 0.0
C98 C 0.58363 0.54087 0.80912 0.0
C99 C 0.67854 0.55976 0.84678 0.0
O100 O 0.67554 0.66085 0.84669 0.0
O101 O 0.65012 0.63567 0.81499 0.0
O102 O 0.66031 0.60816 0.87551 0.0
O103 O 0.59144 0.56271 0.86963 0.0
O104 O 0.56556 0.58918 0.84356 0.0
O105 O 0.51851 0.52532 0.85538 0.0
O106 O 0.5186 0.45634 0.84482 0.0
O107 O 0.55779 0.47643 0.87446 0.0
O108 O 0.54479 0.51058 0.81651 0.0
O109 O 0.6124 0.55376 0.82394 0.0
O110 O 0.63655 0.52765 0.85158 0.0
O111 O 0.68513 0.59209 0.8409 0.0
H112 H 0.63648 0.69147 0.85323 0.0
H113 H 0.62432 0.73862 0.84444 0.0
H114 H 0.66932 0.74803 0.77834 0.0
H115 H 0.68302 0.70201 0.78746 0.0
H116 H 0.47047 0.37532 0.84658 0.0
H117 H 0.48428 0.32944 0.83901 0.0
H118 H 0.61984 0.40789 0.86488 0.0
H119 H 0.60581 0.45368 0.87239 0.0
C120 C 0.57463 0.97347 0.18979 0.0
N121 N 0.60345 1.00484 0.20194 0.0
N122 N 0.53851 0.9445 0.20199 0.0
C123 C 0.58108 0.97151 0.16597 0.0
C124 C 0.54651 0.9595 0.22196 0.0
N125 N 0.58569 0.99625 0.22187 0.0
C126 C 0.51765 0.93735 0.24188 0.0
H127 H 0.59911 1.00028 0.15779 0.0
H128 H 0.54784 0.95042 0.15807 0.0
H129 H 0.60223 0.96207 0.16402 0.0
H130 H 0.49866 0.90589 0.24027 0.0
H131 H 0.4927 0.94279 0.24399 0.0
H132 H 0.53891 0.94691 0.25663 0.0
C133 C 0.63863 0.55454 0.54769 0.0
N134 N 0.64127 0.57622 0.56372 0.0
N135 N 0.64301 0.52825 0.55593 0.0
C136 C 0.6348 0.56066 0.5239 0.0
C137 C 0.64842 0.53478 0.57751 0.0
N138 N 0.64785 0.56415 0.58218 0.0
C139 C 0.65063 0.51059 0.59428 0.0
H140 H 0.59825 0.54403 0.51988 0.0
H141 H 0.64961 0.5505 0.51375 0.0
H142 H 0.65222 0.59157 0.51996 0.0
H143 H 0.63517 0.48146 0.58828 0.0
H144 H 0.63271 0.50758 0.60944 0.0
H145 H 0.68683 0.52509 0.59821 0.0
C146 C 0.09815 0.55314 0.86175 0.0
N147 N 0.12442 0.55067 0.87646 0.0
N148 N 1.0646 0.55187 0.87189 0.0
C149 C 0.10226 0.55345 0.83752 0.0
C150 C 1.07122 0.54846 0.89312 0.0
N151 N 0.1065 0.54755 0.89593 0.0
C152 C 1.04252 0.54563 0.91138 0.0
H153 H 0.12755 0.58367 0.8314 0.0
H154 H 1.06917 0.5413 0.82975 0.0
H155 H 0.11374 0.53666 0.83285 0.0
H156 H 1.01381 0.51476 0.91491 0.0
H157 H 1.02817 0.56055 0.90684 0.0
H158 H 1.06261 0.55819 0.9264 0.0
C159 C 0.15657 0.56602 0.45374 0.0
N160 N 0.1274 0.53841 0.4395 0.0
N161 N 0.18697 0.60046 0.44313 0.0
C162 C 0.15351 0.56004 0.47801 0.0
C163 C 0.17533 0.59273 0.42198 0.0
N164 N 0.13896 0.55525 0.4198 0.0
C165 C 0.20176 0.62109 0.40329 0.0
H166 H 0.11765 0.53759 0.48342 0.0
H167 H 0.16775 0.5873 0.48628 0.0
H168 H 0.1735 0.55024 0.48287 0.0
H169 H 0.23793 0.64354 0.40761 0.0
H170 H 0.18649 0.63541 0.39918 0.0
H171 H 0.20036 0.60628 0.38869 0.0
C172 C 0.61455 0.06982 0.78043 0.0
N173 N 0.61984 0.05297 0.76402 0.0
N174 N 0.62019 0.10164 0.77297 0.0
C175 C 0.60773 0.05728 0.80401 0.0
C176 C 0.62917 0.10369 0.7515 0.0
N177 N 0.62961 0.07447 0.74608 0.0
C178 C 0.63342 0.13226 0.73554 0.0
H179 H 0.57074 0.03518 0.80748 0.0
H180 H 0.62119 0.08194 0.81469 0.0
H181 H 0.62486 0.04447 0.80788 0.0
H182 H 0.61378 0.14172 0.74119 0.0
H183 H 0.62106 0.11966 0.71932 0.0
H184 H 0.66979 0.15798 0.73391 0.0
C185 C 0.62387 0.55598 0.1467 0.0
N186 N 0.62095 0.54228 0.12682 0.0
N187 N 0.62199 0.5855 0.14506 0.0
C188 C 0.63026 0.54182 0.16773 0.0
C189 C 0.61735 0.58908 0.12351 0.0
N190 N 0.61722 0.56309 0.11243 0.0
C191 C 0.60898 0.61565 0.11364 0.0
H192 H 0.59654 0.51634 0.17404 0.0
H193 H 0.6459 0.56443 0.18008 0.0
H194 H 0.65207 0.53318 0.16521 0.0
H195 H 0.5875 0.61799 0.12464 0.0
H196 H 0.59224 0.60563 0.09764 0.0
H197 H 0.64216 0.64483 0.11135 0.0
H198 H 0.33484 0.58608 0.21011 0.0
H199 H 0.41366 0.62807 0.22282 0.0
H200 H 0.46081 0.63387 0.1578 0.0
H201 H 0.38333 0.59309 0.14526 0.0
H202 H 0.46414 0.61033 0.2266 0.0
H203 H 0.55924 0.70129 0.14421 0.0
H204 H 0.56119 0.74909 0.12166 0.0
H205 H 0.50271 0.76772 0.17419 0.0
H206 H 0.50102 0.72041 0.19726 0.0
H207 H 0.54885 0.54607 0.17097 0.0
H208 H 0.5229 0.57274 0.19379 0.0
H209 H 0.64914 0.68735 0.18107 0.0
H210 H 0.67324 0.6598 0.15665 0.0
H211 H 0.59241 0.69468 0.17457 0.0
H212 H 0.60407 0.64703 0.23761 0.0
H213 H 0.60776 0.60697 0.26466 0.0
H214 H 0.46417 0.51622 0.25855 0.0
H215 H 0.45954 0.55521 0.23119 0.0
C216 C 0.36235 0.59724 0.19851 0.0
C217 C 0.35297 0.58596 0.17673 0.0
C218 C 0.40735 0.62142 0.20576 0.0
C219 C 0.44358 0.63461 0.19133 0.0
C220 C 0.43403 0.62536 0.16928 0.0
C221 C 0.38936 0.60156 0.16205 0.0
C222 C 0.48964 0.65061 0.19934 0.0
C223 C 0.49266 0.62934 0.21555 0.0
C224 C 0.52885 0.6786 0.18669 0.0
C225 C 0.53041 0.70741 0.17265 0.0
C226 C 0.5474 0.71591 0.15115 0.0
C227 C 0.54824 0.74282 0.1382 0.0
C228 C 0.53218 0.76149 0.1465 0.0
C229 C 0.51514 0.75323 0.16777 0.0
C230 C 0.5142 0.72634 0.18079 0.0
C231 C 0.57152 0.57676 0.17373 0.0
C232 C 0.61272 0.60102 0.16222 0.0
C233 C 0.5571 0.59222 0.18707 0.0
C234 C 0.58421 0.63237 0.18967 0.0
C235 C 0.62742 0.65638 0.17944 0.0
C236 C 0.64131 0.64079 0.16557 0.0
C237 C 0.56261 0.64847 0.19879 0.0
C238 C 0.56491 0.67675 0.18627 0.0
C239 C 0.52957 0.62853 0.21573 0.0
C240 C 0.53145 0.60446 0.2324 0.0
C241 C 0.57323 0.61851 0.24198 0.0
C242 C 0.5755 0.59593 0.25738 0.0
C243 C 0.5362 0.55913 0.26338 0.0
C244 C 0.49455 0.54483 0.25398 0.0
C245 C 0.49205 0.56728 0.23857 0.0
H246 H 0.53805 0.54167 0.27527 0.0
H247 H 0.53285 0.7823 0.13643 0.0
H248 H 0.7383 0.20523 0.46344 0.0
H249 H 0.80677 0.27159 0.45746 0.0
H250 H 0.88824 0.24244 0.48527 0.0
H251 H 0.81948 0.17566 0.49149 0.0
H252 H 0.91501 0.31161 0.49931 0.0
H253 H 0.88471 0.25195 0.43048 0.0
H254 H 0.83893 0.21533 0.39867 0.0
H255 H 0.82011 0.29989 0.38352 0.0
H256 H 0.86516 0.33669 0.41546 0.0
H257 H 0.12752 0.48454 0.46113 0.0
H258 H 1.06163 0.4169 0.46887 0.0
H259 H 0.9741 0.43598 0.43663 0.0
H260 H 1.04024 0.50327 0.42866 0.0
H261 H 0.95197 0.37068 0.42496 0.0
H262 H 0.97971 0.42963 0.49371 0.0
H263 H 1.0255 0.46725 0.52528 0.0
H264 H 1.04823 0.38521 0.54065 0.0
H265 H 1.00313 0.34738 0.50896 0.0
C266 C 0.77063 0.21278 0.46838 0.0
C267 C 0.7732 0.18485 0.47783 0.0
C268 C 0.80991 0.25084 0.46485 0.0
C269 C 0.85285 0.26196 0.47057 0.0
C270 C 0.85552 0.23452 0.48063 0.0
C271 C 0.81613 0.19631 0.48416 0.0
C272 C 0.89482 0.30212 0.4658 0.0
C273 C 0.92349 0.32436 0.483 0.0
C274 C 0.9054 0.31914 0.4446 0.0
C275 C 0.87792 0.29685 0.4255 0.0
C276 C 0.87044 0.26254 0.42049 0.0
C277 C 0.84469 0.24178 0.40242 0.0
C278 C 0.82652 0.25522 0.38912 0.0
C279 C 0.8341 0.28946 0.39387 0.0
C280 C 0.85971 0.31026 0.41196 0.0
C281 C 0.09405 0.47413 0.45591 0.0
C282 C 0.08865 0.4989 0.44445 0.0
C283 C 1.05642 0.43559 0.46034 0.0
C284 C 1.01256 0.4213 0.45365 0.0
C285 C 1.00742 0.44617 0.44202 0.0
C286 C 1.04509 0.48456 0.43747 0.0
C287 C 0.97208 0.38042 0.45847 0.0
C288 C 0.94365 0.35797 0.44127 0.0
C289 C 0.96159 0.36335 0.47968 0.0
C290 C 0.98843 0.38589 0.49883 0.0
C291 C 0.99475 0.41976 0.50373 0.0
C292 C 1.02054 0.4411 0.52166 0.0
C293 C 1.03986 0.42868 0.53493 0.0
C294 C 1.03331 0.39482 0.53034 0.0
C295 C 1.00761 0.37341 0.5124 0.0
H296 H 1.05982 0.44525 0.5488 0.0
H297 H 0.80666 0.23914 0.37511 0.0
H298 H 0.57903 0.75078 0.82448 0.0
H299 H 0.57169 0.80104 0.81601 0.0
H300 H 0.69409 0.86255 0.77652 0.0
H301 H 0.7025 0.81325 0.78546 0.0
H302 H 0.69397 0.9105 0.80239 0.0
H303 H 0.5871 0.8086 0.75354 0.0
H304 H 0.52183 0.74128 0.74597 0.0
H305 H 0.43548 0.74924 0.78667 0.0
H306 H 0.5004 0.81652 0.79465 0.0
H307 H 0.68327 0.04714 0.74968 0.0
H308 H 0.68381 0.99244 0.75567 0.0
H309 H 0.55455 0.92966 0.78966 0.0
H310 H 0.5529 0.98354 0.78243 0.0
H311 H 0.55602 0.88113 0.76761 0.0
H312 H 0.65776 0.98012 0.81689 0.0
H313 H 0.72138 0.04578 0.82797 0.0
H314 H 0.81511 0.04196 0.79087 0.0
H315 H 0.7519 0.97644 0.77929 0.0
C316 C 0.60451 0.77509 0.81408 0.0
C317 C 0.64112 0.7777 0.80549 0.0
C318 C 0.60007 0.80367 0.80911 0.0
C319 C 0.63205 0.83537 0.79539 0.0
C320 C 0.66887 0.83828 0.78704 0.0
C321 C 0.67334 0.80979 0.792 0.0
C322 C 0.62769 0.86585 0.78982 0.0
C323 C 0.66408 0.90416 0.79451 0.0
C324 C 0.58803 0.85741 0.78024 0.0
C325 C 0.54864 0.8175 0.77477 0.0
C326 C 0.5542 0.79596 0.76089 0.0
C327 C 0.51728 0.75783 0.75653 0.0
C328 C 0.47454 0.741 0.76584 0.0
C329 C 0.46859 0.76234 0.77945 0.0
C330 C 0.50541 0.80049 0.78386 0.0
C331 C 0.6546 0.02129 0.75799 0.0
C332 C 0.61831 0.01961 0.76584 0.0
C333 C 0.6551 0.99021 0.76164 0.0
C334 C 0.61975 0.9572 0.77363 0.0
C335 C 0.58241 0.95484 0.78055 0.0
C336 C 0.58165 0.98571 0.77661 0.0
C337 C 0.62276 0.92605 0.77982 0.0
C338 C 0.58604 0.88758 0.77539 0.0
C339 C 0.66186 0.93422 0.79001 0.0
C340 C 0.70003 0.97352 0.79706 0.0
C341 C 0.6919 0.99338 0.81098 0.0
C342 C 0.72789 0.03056 0.81736 0.0
C343 C 0.77225 0.04807 0.81009 0.0
C344 C 0.78072 0.02838 0.79646 0.0
C345 C 0.74483 0.99121 0.78999 0.0
H346 H 0.80007 0.07686 0.81505 0.0
H347 H 0.44605 0.71142 0.76253 0.0
H348 H 0.79427 0.37346 0.11629 0.0
H349 H 0.73016 0.36981 0.10301 0.0
H350 H 0.70685 0.39055 0.16735 0.0
H351 H 0.77216 0.3969 0.18049 0.0
H352 H 0.62644 0.3466 0.12421 0.0
H353 H 0.77395 0.47794 0.15759 0.0
H354 H 0.8571 0.51593 0.16208 0.0
H355 H 0.8699 0.49148 0.09684 0.0
H356 H 0.78675 0.45306 0.09213 0.0
H357 H 0.57428 0.47067 0.14512 0.0
H358 H 0.59111 0.42598 0.14076 0.0
H359 H 0.69109 0.50213 0.09097 0.0
H360 H 0.6772 0.54819 0.09693 0.0
H361 H 0.7292 0.48946 0.11665 0.0
H362 H 0.58829 0.4029 0.08255 0.0
H363 H 0.50591 0.36416 0.07606 0.0
H364 H 0.47731 0.29832 0.13515 0.0
H365 H 0.55953 0.33708 0.1422 0.0
C366 C 0.77459 0.37597 0.12782 0.0
C367 C 0.78994 0.38753 0.1492 0.0
C368 C 0.73728 0.373 0.12025 0.0
C369 C 0.71444 0.38057 0.13416 0.0
C370 C 0.72413 0.38453 0.1564 0.0
C371 C 0.76195 0.38838 0.16388 0.0
C372 C 0.69541 0.39896 0.12516 0.0
C373 C 0.64847 0.37775 0.12221 0.0
C374 C 0.72464 0.43935 0.12191 0.0
C375 C 0.7745 0.46285 0.12452 0.0
C376 C 0.79467 0.48089 0.14422 0.0
C377 C 0.84168 0.50235 0.14682 0.0
C378 C 0.86878 0.50623 0.12973 0.0
C379 C 0.84889 0.48856 0.11003 0.0
C380 C 0.80185 0.46686 0.10741 0.0
C381 C 0.59966 0.47757 0.1332 0.0
C382 C 0.62511 0.51307 0.12167 0.0
C383 C 0.60857 0.45163 0.13032 0.0
C384 C 0.6421 0.46028 0.1153 0.0
C385 C 0.6649 0.49455 0.10256 0.0
C386 C 0.65686 0.52086 0.10589 0.0
C387 C 0.65911 0.43757 0.11568 0.0
C388 C 0.70632 0.45818 0.1175 0.0
C389 C 0.62985 0.39661 0.11703 0.0
C390 C 0.58023 0.37311 0.11295 0.0
C391 C 0.56448 0.38037 0.09426 0.0
C392 C 0.51777 0.35836 0.09046 0.0
C393 C 0.48639 0.32882 0.10519 0.0
C394 C 0.50166 0.3212 0.12374 0.0
C395 C 0.54835 0.34316 0.12763 0.0
H396 H 0.45024 0.3118 0.10222 0.0
H397 H 0.90515 0.52277 0.13178 0.0
H398 H 0.56446 0.92844 0.49635 0.0
H399 H 0.4979 0.86046 0.49461 0.0
H400 H 0.42755 0.89179 0.4566 0.0
H401 H 0.49373 0.95987 0.45844 0.0
H402 H 0.37237 0.83764 0.48824 0.0
H403 H 0.47519 0.85538 0.43225 0.0
H404 H 0.54901 0.87495 0.41891 0.0
H405 H 0.53972 0.79461 0.46417 0.0
H406 H 0.46587 0.77465 0.47784 0.0
H407 H 0.19849 0.66635 0.43698 0.0
H408 H 0.26405 0.73092 0.44749 0.0
H409 H 0.32205 0.68274 0.47966 0.0
H410 H 0.25661 0.61799 0.46837 0.0
H411 H 0.3849 0.74344 0.45542 0.0
H412 H 0.2787 0.71982 0.50875 0.0
H413 H 0.20577 0.70035 0.52336 0.0
H414 H 0.22197 0.79142 0.48569 0.0
H415 H 0.29471 0.81112 0.47059 0.0
C416 C 0.53484 0.92095 0.48763 0.0
C417 C 0.53458 0.94972 0.47746 0.0
C418 C 0.49682 0.88199 0.4866 0.0
C419 C 0.4578 0.87092 0.47531 0.0
C420 C 0.45723 0.8996 0.46542 0.0
C421 C 0.49521 0.93855 0.46642 0.0
C422 C 0.4177 0.82951 0.47354 0.0
C423 C 0.37497 0.81708 0.48089 0.0
C424 C 0.42135 0.80234 0.46469 0.0
C425 C 0.46525 0.81377 0.45618 0.0
C426 C 0.48899 0.84201 0.4394 0.0
C427 C 0.53081 0.85315 0.43177 0.0
C428 C 0.54912 0.83614 0.44073 0.0
C429 C 0.52552 0.80778 0.45725 0.0
C430 C 0.48363 0.79647 0.46492 0.0
C431 C 0.2251 0.66965 0.44648 0.0
C432 C 0.22273 0.63743 0.45187 0.0
C433 C 0.26241 0.70647 0.45263 0.0
C434 C 0.29798 0.71184 0.46459 0.0
C435 C 0.29506 0.6794 0.47049 0.0
C436 C 0.25763 0.64245 0.46424 0.0
C437 C 0.33912 0.75156 0.46973 0.0
C438 C 0.38215 0.76375 0.46301 0.0
C439 C 0.33577 0.77845 0.47935 0.0
C440 C 0.29204 0.76677 0.48841 0.0
C441 C 0.26656 0.73553 0.50345 0.0
C442 C 0.22527 0.72448 0.51184 0.0
C443 C 0.20921 0.74459 0.50543 0.0
C444 C 0.23445 0.77585 0.49064 0.0
C445 C 0.27575 0.78701 0.48218 0.0
H446 H 0.17723 0.73599 0.51194 0.0
H447 H 0.58155 0.84487 0.43483 0.0
H448 H 0.49631 0.28627 0.85656 0.0
H449 H 0.50992 0.24153 0.84549 0.0
H450 H 0.64432 0.33733 0.82226 0.0
H451 H 0.63053 0.38222 0.83282 0.0
H452 H 0.59988 0.28075 0.79295 0.0
H453 H 0.63032 0.28906 0.86932 0.0
H454 H 0.61389 0.28623 0.90838 0.0
H455 H 0.49692 0.16712 0.90395 0.0
H456 H 0.5123 0.16938 0.86478 0.0
H457 H 0.68359 0.17854 0.7751 0.0
H458 H 0.67434 0.22334 0.79134 0.0
H459 H 0.53887 0.12715 0.81326 0.0
H460 H 0.54847 0.0824 0.79702 0.0
H461 H 0.58409 0.1837 0.84365 0.0
H462 H 0.55274 0.17517 0.7675 0.0
H463 H 0.5697 0.17691 0.72864 0.0
H464 H 0.68741 0.29584 0.73257 0.0
H465 H 0.67168 0.2946 0.77159 0.0
C466 C 0.52874 0.29783 0.84906 0.0
C467 C 0.56234 0.33785 0.84559 0.0
C468 C 0.53662 0.27223 0.8429 0.0
C469 C 0.57829 0.28607 0.83319 0.0
C470 C 0.61195 0.32599 0.82977 0.0
C471 C 0.60416 0.35163 0.83599 0.0
C472 C 0.5863 0.25887 0.82608 0.0
C473 C 0.59709 0.25993 0.80412 0.0
C474 C 0.58148 0.23098 0.84051 0.0
C475 C 0.57221 0.22951 0.86407 0.0
C476 C 0.60088 0.26235 0.87664 0.0
C477 C 0.5918 0.26083 0.8988 0.0
C478 C 0.55432 0.22655 0.90863 0.0
C479 C 0.52591 0.19367 0.89631 0.0
C480 C 0.53481 0.19505 0.87413 0.0
C481 C 0.65213 0.16715 0.78361 0.0
C482 C 0.61658 0.12728 0.78475 0.0
C483 C 0.6468 0.19261 0.79284 0.0
C484 C 0.60562 0.17861 0.80321 0.0
C485 C 0.57088 0.13858 0.80531 0.0
C486 C 0.57632 0.11308 0.7961 0.0
C487 C 0.59791 0.20583 0.81061 0.0
C488 C 0.58701 0.20464 0.83254 0.0
C489 C 0.60243 0.23353 0.79615 0.0
C490 C 0.61126 0.23469 0.77253 0.0
C491 C 0.5824 0.20164 0.76011 0.0
C492 C 0.59178 0.20253 0.73806 0.0
C493 C 0.62966 0.23644 0.72815 0.0
C494 C 0.65812 0.26958 0.74027 0.0
C495 C 0.64897 0.2688 0.76236 0.0
H496 H 0.63691 0.23705 0.71108 0.0
H497 H 0.54735 0.22543 0.92579 0.0
H498 H 0.74354 0.90891 0.53813 0.0
H499 H 0.7328 0.84951 0.54596 0.0
H500 H 0.5928 0.78287 0.52604 0.0
H501 H 0.60269 0.84248 0.51903 0.0
H502 H 0.59996 0.75061 0.562 0.0
H503 H 0.67367 0.79633 0.49232 0.0
H504 H 0.73196 0.84363 0.46535 0.0
H505 H 0.83603 0.85464 0.50322 0.0
H506 H 0.77842 0.80779 0.5306 0.0
H507 H 0.57544 0.57744 0.54698 0.0
H508 H 0.57892 0.63449 0.54102 0.0
H509 H 0.71331 0.70598 0.56854 0.0
H510 H 0.70938 0.6488 0.57464 0.0
H511 H 0.70609 0.73389 0.52783 0.0
H512 H 0.63114 0.68764 0.59756 0.0
H513 H 0.57188 0.63869 0.62365 0.0
H514 H 0.46873 0.6271 0.58459 0.0
H515 H 0.52735 0.67548 0.55802 0.0
C516 C 0.71018 0.88171 0.53572 0.0
C517 C 0.67397 0.88065 0.52796 0.0
C518 C 0.70425 0.84767 0.53997 0.0
C519 C 0.66218 0.81166 0.5363 0.0
C520 C 0.62565 0.81032 0.52891 0.0
C521 C 0.6315 0.84446 0.52472 0.0
C522 C 0.65689 0.77565 0.53989 0.0
C523 C 0.62273 0.74672 0.55427 0.0
C524 C 0.68702 0.77072 0.53008 0.0
C525 C 0.72176 0.7988 0.51361 0.0
C526 C 0.70903 0.80905 0.49498 0.0
C527 C 0.74194 0.83575 0.47961 0.0
C528 C 0.78768 0.8522 0.48259 0.0
C529 C 0.80059 0.8419 0.50094 0.0
C530 C 0.76782 0.81525 0.51638 0.0
C531 C 0.60544 0.6054 0.55182 0.0
C532 C 0.64215 0.60909 0.56124 0.0
C533 C 0.60742 0.63783 0.54849 0.0
C534 C 0.64638 0.67444 0.55436 0.0
C535 C 0.68298 0.67801 0.56389 0.0
C536 C 0.68068 0.6455 0.56748 0.0
C537 C 0.64956 0.7092 0.55005 0.0
C538 C 0.68327 0.73781 0.53549 0.0
C539 C 0.61887 0.71365 0.55958 0.0
C540 C 0.5836 0.68489 0.57567 0.0
C541 C 0.59578 0.67441 0.59442 0.0
C542 C 0.56232 0.6468 0.60931 0.0
C543 C 0.51655 0.62973 0.60575 0.0
C544 C 0.50419 0.64031 0.58731 0.0
C545 C 0.53753 0.66783 0.57232 0.0
H546 H 0.49068 0.60838 0.6173 0.0
H547 H 0.81311 0.87286 0.47067 0.0
H548 H 0.77084 0.61975 0.83932 0.0
H549 H 0.83562 0.61891 0.84158 0.0
H550 H 0.74416 0.4976 0.85862 0.0
H551 H 0.67949 0.49848 0.85655 0.0
H552 H 0.81581 0.5282 0.88281 0.0
H553 H 0.80079 0.53815 0.80602 0.0
H554 H 0.79601 0.56631 0.77203 0.0
H555 H 0.92879 0.67285 0.78309 0.0
H556 H 0.93412 0.64548 0.8173 0.0
H557 H 0.97439 0.49126 0.87191 0.0
H558 H 0.91055 0.49254 0.86553 0.0
H559 H 1.00556 0.61391 0.84884 0.0
H560 H 1.06945 0.61206 0.85479 0.0
H561 H 0.93321 0.58457 0.82437 0.0
H562 H 0.94903 0.57498 0.90074 0.0
H563 H 0.95482 0.54714 0.93457 0.0
H564 H 0.82105 0.44092 0.92468 0.0
H565 H 0.81479 0.46788 0.89055 0.0
C566 C 0.76421 0.59273 0.84348 0.0
C567 C 0.71899 0.55916 0.84773 0.0
C568 C 0.80172 0.59221 0.84468 0.0
C569 C 0.79585 0.55805 0.85006 0.0
C570 C 0.7507 0.52459 0.85444 0.0
C571 C 0.71322 0.5251 0.85321 0.0
C572 C 0.83623 0.55713 0.85138 0.0
C573 C 0.84093 0.54011 0.86979 0.0
C574 C 0.87069 0.5734 0.8349 0.0
C575 C 0.86765 0.58989 0.81433 0.0
C576 C 0.82883 0.56768 0.80128 0.0
C577 C 0.82604 0.58348 0.78196 0.0
C578 C 0.86202 0.62138 0.77544 0.0
C579 C 0.90092 0.64352 0.78819 0.0
C580 C 0.90386 0.62787 0.80753 0.0
C581 C 0.98165 0.51798 0.86624 0.0
C582 C 1.02738 0.55131 0.86341 0.0
C583 C 0.94491 0.51895 0.86292 0.0
C584 C 0.9522 0.55356 0.85709 0.0
C585 C 0.99802 0.58664 0.85335 0.0
C586 C 1.03488 0.58558 0.85658 0.0
C587 C 0.91252 0.55537 0.85572 0.0
C588 C 0.90802 0.57262 0.83736 0.0
C589 C 0.87829 0.53944 0.87229 0.0
C590 C 0.88161 0.52334 0.89298 0.0
C591 C 0.92094 0.54561 0.90571 0.0
C592 C 0.92431 0.52998 0.92494 0.0
C593 C 0.88835 0.49226 0.93175 0.0
C594 C 0.8489 0.47012 0.91936 0.0
C595 C 0.84541 0.48556 0.90007 0.0
H596 H 0.89103 0.48021 0.94664 0.0
H597 H 0.8598 0.63357 0.76048 0.0
H598 H 0.15089 0.61093 0.18163 0.0
H599 H 0.2185 0.67792 0.1861 0.0
H600 H 0.30461 0.64834 0.16892 0.0
H601 H 0.23723 0.58133 0.16458 0.0
H602 H 0.33856 0.69593 0.20319 0.0
H603 H 0.28386 0.69367 0.13222 0.0
H604 H 0.22677 0.67997 0.1053 0.0
H605 H 0.20931 0.75466 0.13779 0.0
H606 H 0.26582 0.76835 0.16511 0.0
H607 H 0.54137 0.88987 0.18592 0.0
H608 H 0.47581 0.82255 0.17883 0.0
H609 H 0.38425 0.8458 0.19732 0.0
H610 H 0.44984 0.91287 0.2044 0.0
H611 H 0.35443 0.80121 0.16123 0.0
H612 H 0.40843 0.80333 0.23217 0.0
H613 H 0.46453 0.81669 0.25955 0.0
H614 H 0.48198 0.74137 0.22798 0.0
H615 H 0.42684 0.72831 0.19995 0.0
C616 C 0.18418 0.61861 0.17884 0.0
C617 C 0.18851 0.59071 0.17252 0.0
C618 C 0.22287 0.65702 0.18133 0.0
C619 C 0.26674 0.66841 0.17754 0.0
C620 C 0.2712 0.6404 0.17183 0.0
C621 C 0.23254 0.60205 0.16926 0.0
C622 C 0.30789 0.70959 0.1793 0.0
C623 C 0.34237 0.71889 0.19376 0.0
C624 C 0.31255 0.73972 0.16732 0.0
C625 C 0.27876 0.73174 0.15084 0.0
C626 C 0.26759 0.70694 0.13372 0.0
C627 C 0.23537 0.69921 0.11838 0.0
C628 C 0.21434 0.71636 0.11986 0.0
C629 C 0.22558 0.74136 0.13667 0.0
C630 C 0.25773 0.74914 0.15209 0.0
C631 C 0.50716 0.88053 0.18811 0.0
C632 C 0.50038 0.90627 0.19567 0.0
C633 C 0.46978 0.84214 0.18422 0.0
C634 C 0.42501 0.82895 0.18773 0.0
C635 C 0.41836 0.8552 0.1945 0.0
C636 C 0.4557 0.89341 0.19857 0.0
C637 C 0.38508 0.78758 0.18515 0.0
C638 C 0.35079 0.77824 0.17055 0.0
C639 C 0.38061 0.75743 0.19702 0.0
C640 C 0.41402 0.76535 0.21373 0.0
C641 C 0.42469 0.79002 0.23085 0.0
C642 C 0.45628 0.7975 0.2465 0.0
C643 C 0.47701 0.78007 0.2454 0.0
C644 C 0.46611 0.75504 0.22867 0.0
C645 C 0.43472 0.74763 0.21289 0.0
H646 H 0.50138 0.78581 0.25757 0.0
H647 H 0.18941 0.71034 0.10796 0.0
H648 H 0.68043 0.27595 0.48988 0.0
H649 H 0.68903 0.33224 0.50196 0.0
H650 H 0.55593 0.28461 0.47739 0.0
H651 H 0.54764 0.22871 0.46462 0.0
H652 H 0.61619 0.36165 0.46862 0.0
H653 H 0.57046 0.2767 0.53102 0.0
H654 H 0.5755 0.23644 0.55733 0.0
H655 H 0.70856 0.33559 0.57588 0.0
H656 H 0.70457 0.37637 0.54945 0.0
H657 H 0.57664 0.47345 0.53006 0.0
H658 H 0.57288 0.42202 0.513 0.0
H659 H 0.70404 0.4677 0.5396 0.0
H660 H 0.70734 0.51878 0.55671 0.0
H661 H 0.64547 0.39214 0.54677 0.0
H662 H 0.69034 0.4777 0.48501 0.0
H663 H 0.68485 0.51786 0.45885 0.0
H664 H 0.55341 0.41796 0.43916 0.0
H665 H 0.55781 0.37726 0.46546 0.0
C666 C 0.65326 0.27769 0.4867 0.0
C667 C 0.61321 0.24764 0.47637 0.0
C668 C 0.65807 0.30976 0.49381 0.0
C669 C 0.62284 0.3124 0.49087 0.0
C670 C 0.58347 0.28312 0.47993 0.0
C671 C 0.57862 0.25102 0.47281 0.0
C672 C 0.62646 0.34505 0.49984 0.0
C673 C 0.62209 0.36809 0.48575 0.0
C674 C 0.63502 0.35392 0.52211 0.0
C675 C 0.6374 0.3295 0.5381 0.0
C676 C 0.60094 0.28986 0.54059 0.0
C677 C 0.60358 0.26696 0.55555 0.0
C678 C 0.64237 0.28343 0.56823 0.0
C679 C 0.67856 0.32286 0.56603 0.0
C680 C 0.67611 0.34589 0.55107 0.0
C681 C 0.6048 0.47263 0.53191 0.0
C682 C 0.64226 0.49984 0.54461 0.0
C683 C 0.60274 0.44337 0.5222 0.0
C684 C 0.63835 0.44109 0.52488 0.0
C685 C 0.67613 0.46876 0.53732 0.0
C686 C 0.67808 0.4979 0.54705 0.0
C687 C 0.63546 0.40899 0.51555 0.0
C688 C 0.63979 0.3859 0.52961 0.0
C689 C 0.62685 0.40012 0.49327 0.0
C690 C 0.62422 0.42449 0.47736 0.0
C691 C 0.6601 0.46434 0.47523 0.0
C692 C 0.65722 0.48719 0.46035 0.0
C693 C 0.61876 0.47049 0.44739 0.0
C694 C 0.58316 0.43087 0.44924 0.0
C695 C 0.58585 0.40788 0.46411 0.0
H696 H 0.61659 0.48823 0.43588 0.0
H697 H 0.64435 0.26565 0.5798 0.0
H698 H 0.52366 0.61822 0.85909 0.0
H699 H 0.4585 0.61801 0.86315 0.0
H700 H 0.36792 0.49827 0.84617 0.0
H701 H 0.43273 0.49787 0.84421 0.0
H702 H 0.32128 0.49948 0.87002 0.0
H703 H 0.41336 0.66487 0.85983 0.0
H704 H 0.47632 0.72151 0.83839 0.0
H705 H 0.46665 0.64708 0.79134 0.0
H706 H 0.40333 0.59004 0.81232 0.0
H707 H 0.14777 0.50959 0.89837 0.0
H708 H 0.21609 0.51612 0.89523 0.0
H709 H 0.25721 0.59161 0.83884 0.0
H710 H 0.19344 0.5922 0.84534 0.0
H711 H 0.32804 0.61179 0.84931 0.0
H712 H 0.2048 0.47832 0.84424 0.0
H713 H 0.13334 0.41434 0.85452 0.0
H714 H 0.19405 0.41282 0.91357 0.0
H715 H 0.26565 0.47703 0.90379 0.0
C716 C 0.48982 0.59178 0.85622 0.0
C717 C 0.48413 0.55804 0.8513 0.0
C718 C 0.45198 0.59172 0.85829 0.0
C719 C 0.40666 0.55832 0.8546 0.0
C720 C 0.40141 0.52475 0.84943 0.0
C721 C 0.43903 0.5245 0.84812 0.0
C722 C 0.36497 0.55764 0.85673 0.0
C723 C 0.32329 0.52427 0.86529 0.0
C724 C 0.36505 0.58894 0.8502 0.0
C725 C 0.40394 0.62314 0.83782 0.0
C726 C 0.4247 0.66059 0.84493 0.0
C727 C 0.46042 0.69276 0.83284 0.0
C728 C 0.47552 0.68787 0.81356 0.0
C729 C 0.45502 0.65081 0.80633 0.0
C730 C 0.41927 0.61855 0.81833 0.0
C731 C 0.17185 0.52915 0.88585 0.0
C732 C 0.16379 0.55093 0.87252 0.0
C733 C 0.21103 0.53148 0.88331 0.0
C734 C 0.24277 0.55295 0.86602 0.0
C735 C 0.23443 0.57433 0.85237 0.0
C736 C 0.19655 0.57394 0.8558 0.0
C737 C 0.28419 0.55346 0.86248 0.0
C738 C 0.32592 0.58689 0.85383 0.0
C739 C 0.28328 0.5212 0.86741 0.0
C740 C 0.24041 0.4826 0.87336 0.0
C741 C 0.2028 0.46439 0.85946 0.0
C742 C 0.16228 0.42812 0.86521 0.0
C743 C 0.15911 0.4096 0.88473 0.0
C744 C 0.19651 0.42727 0.8985 0.0
C745 C 0.23708 0.46357 0.89286 0.0
H746 H 0.12771 0.38152 0.88915 0.0
H747 H 0.50297 0.71279 0.80416 0.0
H748 H 0.99686 0.33165 0.15608 0.0
H749 H 0.92969 0.26417 0.1618 0.0
H750 H 0.84415 0.29842 0.1636 0.0
H751 H 0.91113 0.36582 0.15855 0.0
H752 H 0.8202 0.24973 0.19534 0.0
H753 H 0.84812 0.25102 0.11928 0.0
H754 H 0.89332 0.26252 0.08663 0.0
H755 H 0.91487 0.18377 0.1122 0.0
H756 H 0.87027 0.17217 0.14515 0.0
H757 H 0.60634 0.06542 0.19135 0.0
H758 H 0.67362 0.1305 0.17981 0.0
H759 H 0.75656 0.0937 0.18485 0.0
H760 H 0.6884 0.02812 0.19553 0.0
H761 H 0.78251 0.1428 0.14993 0.0
H762 H 0.74509 0.13754 0.22513 0.0
H763 H 0.68986 0.1213 0.25382 0.0
H764 H 0.68329 0.20916 0.22868 0.0
H765 H 0.73601 0.22413 0.19879 0.0
C766 C 0.96367 0.32475 0.15736 0.0
C767 C 0.9595 0.35424 0.15679 0.0
C768 C 0.92516 0.28605 0.16063 0.0
C769 C 0.88149 0.27588 0.16303 0.0
C770 C 0.87729 0.3053 0.16192 0.0
C771 C 0.91573 0.34393 0.1589 0.0
C772 C 0.84037 0.23491 0.16744 0.0
C773 C 0.81177 0.2265 0.18521 0.0
C774 C 0.82951 0.20419 0.15458 0.0
C775 C 0.85625 0.21104 0.13478 0.0
C776 C 0.86279 0.23638 0.11801 0.0
C777 C 0.88825 0.24287 0.09944 0.0
C778 C 0.90706 0.22397 0.09737 0.0
C779 C 0.90034 0.19844 0.11384 0.0
C780 C 0.87494 0.19186 0.13246 0.0
C781 C 0.639 0.07143 0.18973 0.0
C782 C 0.64277 0.04236 0.19441 0.0
C783 C 0.67736 0.10844 0.18318 0.0
C784 C 0.72047 0.1173 0.1818 0.0
C785 C 0.72381 0.08768 0.18582 0.0
C786 C 0.68516 0.05043 0.19203 0.0
C787 C 0.76228 0.15788 0.17759 0.0
C788 C 0.79109 0.16613 0.16002 0.0
C789 C 0.77305 0.18854 0.1905 0.0
C790 C 0.7442 0.18166 0.20948 0.0
C791 C 0.73162 0.15322 0.22555 0.0
C792 C 0.7004 0.14398 0.24194 0.0
C793 C 0.68308 0.16417 0.2431 0.0
C794 C 0.69671 0.19349 0.22775 0.0
C795 C 0.72697 0.20214 0.21094 0.0
H796 H 0.65924 0.15718 0.25595 0.0
H797 H 0.92676 0.22904 0.08298 0.0
H798 H 0.1383 0.56187 0.10152 0.0
H799 H 0.15652 0.57174 0.0627 0.0
H800 H 1.06786 0.4485 0.05503 0.0
H801 H 1.05169 0.43866 0.09441 0.0
H802 H 0.13618 0.48053 0.02723 0.0
H803 H 1.0319 0.50473 0.04507 0.0
H804 H 1.00396 0.5343 0.06475 0.0
H805 H 0.11965 0.64675 0.0418 0.0
H806 H 0.14859 0.61787 0.0222 0.0
H807 H 1.06392 0.48099 0.91867 0.0
H808 H 0.07306 0.47318 0.95746 0.0
H809 H 0.18346 0.59524 0.96009 0.0
H810 H 0.17467 0.6026 0.92097 0.0
H811 H 0.11025 0.5662 0.98996 0.0
H812 H 0.20726 0.53679 0.96751 0.0
H813 H 0.2273 0.50283 0.94618 0.0
H814 H 0.11665 0.39487 0.97623 0.0
H815 H 0.09521 0.42803 0.99738 0.0
C816 C 0.1233 0.53688 0.09159 0.0
C817 C 0.09318 0.49952 0.10085 0.0
C818 C 0.13352 0.54252 0.06936 0.0
C819 C 0.11247 0.51092 0.05568 0.0
C820 C 0.0843 0.47342 0.06514 0.0
C821 C 0.07498 0.46776 0.08762 0.0
C822 C 0.11747 0.51726 0.03153 0.0
C823 C 0.13016 0.49902 0.01909 0.0
C824 C 0.11013 0.54173 0.02074 0.0
C825 C 0.09263 0.55917 0.03235 0.0
C826 C 1.05151 0.53578 0.04433 0.0
C827 C 1.03548 0.55241 0.05546 0.0
C828 C 1.06008 0.59238 0.05457 0.0
C829 C 0.10068 0.6158 0.04249 0.0
C830 C 0.11689 0.59932 0.03136 0.0
C831 C 0.09126 0.50572 0.92744 0.0
C832 C 0.11941 0.54217 0.91691 0.0
C833 C 0.09637 0.50137 0.94955 0.0
C834 C 0.12911 0.53359 0.96167 0.0
C835 C 0.15825 0.56995 0.951 0.0
C836 C 0.1536 0.57415 0.92871 0.0
C837 C 0.12918 0.52973 0.98576 0.0
C838 C 0.11696 0.54818 0.99816 0.0
C839 C 0.13601 0.50487 0.99633 0.0
C840 C 0.1494 0.48492 0.98395 0.0
C841 C 0.18694 0.50577 0.96946 0.0
C842 C 0.19858 0.48666 0.9574 0.0
C843 C 0.17324 0.44672 0.95984 0.0
C844 C 0.13624 0.42581 0.97436 0.0
C845 C 0.12434 0.44476 0.9864 0.0
H846 H 0.18233 0.43198 0.95052 0.0
H847 H 1.04763 0.60521 0.0632 0.0
H848 H 0.6059 0.0509 0.4222 0.0
H849 H 0.59745 0.05001 0.38271 0.0
H850 H 0.73373 0.0869 0.37421 0.0
H851 H 0.74281 0.08905 0.41372 0.0
H852 H 0.7175 0.12087 0.34394 0.0
H853 H 0.63978 0.99137 0.37173 0.0
H854 H 0.5858 0.93497 0.39577 0.0
H855 H 0.47459 0.92811 0.36936 0.0
H856 H 0.52813 0.98498 0.34538 0.0
H857 H 0.66406 0.01887 0.23984 0.0
H858 H 0.68992 0.0438 0.27647 0.0
H859 H 0.58002 0.04987 0.28316 0.0
H860 H 0.55355 0.02383 0.24669 0.0
H861 H 0.5862 0.99735 0.31364 0.0
H862 H 0.69193 0.15543 0.30826 0.0
H863 H 0.75189 0.21422 0.28706 0.0
H864 H 0.81201 0.16132 0.26953 0.0
H865 H 0.75315 0.10277 0.29113 0.0
C866 C 0.63421 0.05922 0.41189 0.0
C867 C 0.67484 0.06965 0.42098 0.0
C868 C 0.62931 0.05857 0.38933 0.0
C869 C 0.66464 0.06768 0.37546 0.0
C870 C 0.70594 0.07964 0.38455 0.0
C871 C 0.71102 0.08067 0.40712 0.0
C872 C 0.6577 0.06271 0.3516 0.0
C873 C 0.6889 0.09375 0.33735 0.0
C874 C 0.62045 0.02738 0.34288 0.0
C875 C 0.58801 0.99265 0.35691 0.0
C876 C 0.60384 0.97795 0.37113 0.0
C877 C 0.57331 0.94589 0.38474 0.0
C878 C 0.52677 0.92798 0.38414 0.0
C879 C 0.51066 0.94204 0.36983 0.0
C880 C 0.54108 0.97418 0.35621 0.0
C881 C 0.64677 0.02714 0.24884 0.0
C882 C 0.60711 0.01976 0.24059 0.0
C883 C 0.66162 0.04155 0.26971 0.0
C884 C 0.6375 0.04952 0.28241 0.0
C885 C 0.59956 0.04452 0.27352 0.0
C886 C 0.58446 0.02972 0.25277 0.0
C887 C 0.64595 0.05545 0.30605 0.0
C888 C 0.61472 0.02445 0.32029 0.0
C889 C 0.68365 0.09044 0.3147 0.0
C890 C 0.71749 0.12443 0.30075 0.0
C891 C 0.7178 0.15634 0.29974 0.0
C892 C 0.75184 0.18974 0.28785 0.0
C893 C 0.78568 0.19148 0.27691 0.0
C894 C 0.78565 0.15987 0.27792 0.0
C895 C 0.7519 0.12653 0.28993 0.0
H896 H 0.81185 0.21726 0.26762 0.0
H897 H 0.5032 0.90318 0.39472 0.0
H898 H 0.66764 0.58735 0.78981 0.0
H899 H 0.68538 0.60369 0.75094 0.0
H900 H 0.54231 0.53903 0.7376 0.0
H901 H 0.52429 0.52195 0.77643 0.0
H902 H 0.64979 0.54637 0.71857 0.0
H903 H 0.53877 0.59117 0.69343 0.0
H904 H 0.51061 0.62353 0.70928 0.0
H905 H 0.62454 0.68415 0.75227 0.0
H906 H 0.65382 0.65272 0.73645 0.0
H907 H 0.57933 0.55662 0.60248 0.0
H908 H 0.57465 0.56448 0.6415 0.0
H909 H 0.71397 0.60813 0.64874 0.0
H910 H 0.71749 0.59854 0.60997 0.0
H911 H 0.61388 0.61713 0.67158 0.0
H912 H 0.7266 0.5736 0.69383 0.0
H913 H 0.74976 0.53681 0.67895 0.0
H914 H 0.62527 0.46764 0.6433 0.0
H915 H 0.60143 0.50406 0.65794 0.0
C916 C 0.64004 0.57695 0.7786 0.0
C917 C 0.59457 0.55321 0.78603 0.0
C918 C 0.65022 0.58629 0.75645 0.0
C919 C 0.61518 0.57272 0.74146 0.0
C920 C 0.56984 0.55006 0.74895 0.0
C921 C 0.55958 0.54018 0.77107 0.0
C922 C 0.62556 0.57952 0.71783 0.0
C923 C 0.64282 0.56251 0.70834 0.0
C924 C 0.61513 0.5996 0.7045 0.0
C925 C 0.5982 0.6192 0.71389 0.0
C926 C 0.55793 0.61153 0.7062 0.0
C927 C 0.54176 0.62971 0.71519 0.0
C928 C 0.56568 0.65576 0.73183 0.0
C929 C 0.60593 0.66383 0.73945 0.0
C930 C 0.62229 0.64578 0.7305 0.0
C931 C 0.60907 0.56869 0.61246 0.0
C932 C 0.64859 0.5767 0.60357 0.0
C933 C 0.60648 0.57317 0.63468 0.0
C934 C 0.64357 0.58593 0.64821 0.0
C935 C 0.68449 0.59725 0.63879 0.0
C936 C 0.68672 0.59212 0.61669 0.0
C937 C 0.63809 0.58386 0.67226 0.0
C938 C 0.62146 0.60146 0.68184 0.0
C939 C 0.64848 0.56382 0.68577 0.0
C940 C 0.66251 0.54182 0.6768 0.0
C941 C 0.70421 0.55054 0.68281 0.0
C942 C 0.71748 0.52981 0.67439 0.0
C943 C 0.68911 0.50005 0.66009 0.0
C944 C 0.64734 0.49087 0.65425 0.0
C945 C 0.63399 0.51162 0.66256 0.0
H946 H 0.69941 0.48401 0.6536 0.0
H947 H 0.55308 0.66977 0.73878 0.0
H948 H 0.70162 0.09073 0.54047 0.0
H949 H 0.70507 0.08584 0.58022 0.0
H950 H 0.56309 0.03535 0.58555 0.0
H951 H 0.5591 0.03909 0.54603 0.0
H952 H 0.62126 0.09843 0.61279 0.0
H953 H 0.58848 0.97903 0.59285 0.0
H954 H 0.60221 0.93904 0.57347 0.0
H955 H 0.7316 0.9967 0.60452 0.0
H956 H 0.719 0.03756 0.62381 0.0
H957 H 0.57207 1.0092 0.72395 0.0
H958 H 0.57623 1.00192 0.68472 0.0
H959 H 0.70495 0.11641 0.68029 0.0
H960 H 0.70131 0.12313 0.71947 0.0
H961 H 0.65333 0.01881 0.6529 0.0
H962 H 0.67989 0.15902 0.64297 0.0
H963 H 0.66483 0.19804 0.66262 0.0
H964 H 0.5429 0.09488 0.69066 0.0
H965 H 0.55726 0.05535 0.67114 0.0
C966 C 0.67105 0.07805 0.55013 0.0
C967 C 0.63001 0.06503 0.54019 0.0
C968 C 0.67308 0.07537 0.57279 0.0
C969 C 0.63427 0.06014 0.58577 0.0
C970 C 0.59338 0.04719 0.57581 0.0
C971 C 0.59119 0.04935 0.55324 0.0
C972 C 0.63627 0.05894 0.60981 0.0
C973 C 0.62835 0.08104 0.6215 0.0
C974 C 0.64537 0.03616 0.62118 0.0
C975 C 0.65298 1.01162 0.60962 0.0
C976 C 0.62007 0.98347 0.59538 0.0
C977 C 0.6276 0.96059 0.58444 0.0
C978 C 0.66775 0.96535 0.58776 0.0
C979 C 0.70051 0.99307 0.60197 0.0
C980 C 0.69318 0.01608 0.61292 0.0
C981 C 0.60193 0.03208 0.71466 0.0
C982 C 0.63619 0.06684 0.72449 0.0
C983 C 0.60431 0.02797 0.69234 0.0
C984 C 0.64079 0.05874 0.67967 0.0
C985 C 0.67658 0.09237 0.68982 0.0
C986 C 0.67442 0.09626 0.71209 0.0
C987 C 0.63839 0.05833 0.65566 0.0
C988 C 0.64642 0.03621 0.64406 0.0
C989 C 0.62915 0.08089 0.64424 0.0
C990 C 0.61984 0.10434 0.65575 0.0
C991 C 0.64982 0.14473 0.65329 0.0
C992 C 0.64145 0.16691 0.66442 0.0
C993 C 0.60297 0.14895 0.67791 0.0
C994 C 0.57271 0.10876 0.68023 0.0
C995 C 0.58106 0.08647 0.66922 0.0
H996 H 0.5966 0.16617 0.68656 0.0
H997 H 0.67336 0.94743 0.57941 0.0
H998 H 0.54277 0.51975 0.90458 0.0
H999 H 0.53165 0.50391 0.94376 0.0
H1000 H 0.67541 0.59317 0.95362 0.0
H1001 H 0.6867 0.60851 0.91468 0.0
H1002 H 0.6447 0.53024 0.97814 0.0
H1003 H 0.59745 0.60871 0.96139 0.0
H1004 H 0.55101 0.62316 0.94257 0.0
H1005 H 0.429 0.51856 0.96945 0.0
H1006 H 0.47476 0.50326 0.9882 0.0
H1007 H 0.67224 0.61303 0.08038 0.0
H1008 H 0.66254 0.60156 0.04114 0.0
H1009 H 0.53703 0.48722 0.05397 0.0
H1010 H 0.54759 0.49853 0.09336 0.0
H1011 H 0.54497 0.54767 0.01882 0.0
H1012 H 0.59405 0.47235 0.03825 0.0
H1013 H 0.64206 0.45943 0.05684 0.0
H1014 H 0.76136 0.5601 0.02552 0.0
H1015 H 0.71396 0.57356 0.00667 0.0
C1016 C 0.57196 0.53564 0.91515 0.0
C1017 C 0.61552 0.56556 0.90673 0.0
C1018 C 0.56558 0.52665 0.93748 0.0
C1019 C 0.60265 0.54765 0.95161 0.0
C1020 C 0.64635 0.57658 0.94302 0.0
C1021 C 0.65272 0.58547 0.92079 0.0
C1022 C 0.59629 0.54132 0.97549 0.0
C1023 C 0.62272 0.53389 0.98699 0.0
C1024 C 0.56688 0.54525 0.98707 0.0
C1025 C 0.53945 0.55461 0.97596 0.0
C1026 C 0.5607 0.58867 0.96315 0.0
C1027 C 0.53451 0.59703 0.95252 0.0
C1028 C 0.48707 0.57173 0.95475 0.0
C1029 C 0.46574 0.53808 0.96769 0.0
C1030 C 0.49178 0.52955 0.97832 0.0
C1031 C 0.64266 0.58562 0.07468 0.0
C1032 C 0.61055 0.55664 0.08954 0.0
C1033 C 0.63718 0.57901 0.05244 0.0
C1034 C 0.59914 0.54355 0.04483 0.0
C1035 C 0.56657 0.5147 0.05965 0.0
C1036 C 0.57255 0.5211 0.08197 0.0
C1037 C 0.59397 0.53736 0.02126 0.0
C1038 C 0.56579 0.54284 0.00986 0.0
C1039 C 0.62177 0.53174 0.00976 0.0
C1040 C 0.65053 0.52413 0.02121 0.0
C1041 C 0.63056 0.49191 0.03547 0.0
C1042 C 0.65762 0.48438 0.04597 0.0
C1043 C 0.70474 0.509 0.04243 0.0
C1044 C 0.72486 0.54108 0.02827 0.0
C1045 C 0.6979 0.54859 0.0176 0.0
H1046 H 0.72564 0.50317 0.05064 0.0
H1047 H 0.46685 0.57824 0.9465 0.0
H1048 H 1.05621 0.49951 0.2178 0.0
H1049 H 1.05359 0.50822 0.2566 0.0
H1050 H 0.07363 0.42384 0.27152 0.0
H1051 H 0.0738 0.41355 0.23262 0.0
H1052 H 1.01955 0.41904 0.30143 0.0
H1053 H 0.16369 0.52115 0.26848 0.0
H1054 H 0.21374 0.57275 0.24105 0.0
H1055 H 0.1667 0.63469 0.26153 0.0
H1056 H 0.11579 0.58311 0.28886 0.0
H1057 H 0.13051 0.49491 0.40412 0.0
H1058 H 0.10622 0.46953 0.3674 0.0
H1059 H 0.07802 0.54896 0.35347 0.0
H1060 H 0.10254 0.57421 0.39011 0.0
H1061 H 0.13346 0.55462 0.32333 0.0
H1062 H 0.99277 0.4512 0.35942 0.0
H1063 H 0.94537 0.39818 0.38654 0.0
H1064 H 0.99102 0.33812 0.36077 0.0
H1065 H 1.03929 0.39103 0.33374 0.0
C1066 C 1.05907 0.48223 0.22936 0.0
C1067 C 1.06562 0.45613 0.22225 0.0
C1068 C 1.05783 0.48737 0.25153 0.0
C1069 C 1.06457 0.46739 0.26698 0.0
C1070 C 1.06859 0.43971 0.25992 0.0
C1071 C 1.06889 0.43398 0.2377 0.0
C1072 C 1.07123 0.47773 0.29022 0.0
C1073 C 1.04467 0.44862 0.30627 0.0
C1074 C 0.10391 0.51639 0.29653 0.0
C1075 C 0.13561 0.54808 0.28058 0.0
C1076 C 0.1639 0.5457 0.26708 0.0
C1077 C 0.19239 0.57493 0.25154 0.0
C1078 C 0.1933 0.60692 0.24951 0.0
C1079 C 0.1659 0.60985 0.2631 0.0
C1080 C 0.13724 0.58064 0.27863 0.0
C1081 C 0.11804 0.50611 0.39329 0.0
C1082 C 0.11848 0.5365 0.39966 0.0
C1083 C 0.1042 0.4917 0.37238 0.0
C1084 C 0.09028 0.50736 0.35768 0.0
C1085 C 0.08877 0.53655 0.3645 0.0
C1086 C 0.10266 0.55093 0.38534 0.0
C1087 C 0.08138 0.49603 0.33462 0.0
C1088 C 0.10795 0.52505 0.31855 0.0
C1089 C 1.04931 0.45724 0.32843 0.0
C1090 C 1.01999 0.42529 0.34464 0.0
C1091 C 0.99301 0.42685 0.35964 0.0
C1092 C 0.96593 0.39678 0.37498 0.0
C1093 C 0.96528 0.36486 0.37539 0.0
C1094 C 0.9916 0.36289 0.36044 0.0
C1095 C 1.01879 0.39289 0.34509 0.0
H1096 H 0.94437 0.3416 0.38725 0.0
H1097 H 0.21528 0.62946 0.23742 0.0
loop_
_geom_bond_atom_site_label_1
_geom_bond_atom_site_label_2
_geom_bond_distance
_geom_bond_site_symmetry_2
_ccdc_geom_bond_type
La0 C2 2.928 . S
La0 O20 2.521 . S
La0 O21 2.628 . S
La0 O22 2.554 . S
La0 O23 2.757 1_455 S
La0 O24 2.470 . S
La0 O29 2.482 . S
La0 O31 2.503 1_455 S
La1 C11 2.928 . S
La1 O23 2.482 . S
La1 O25 2.503 1_655 S
La1 O26 2.521 . S
La1 O27 2.628 . S
La1 O28 2.554 . S
La1 O29 2.757 1_655 S
La1 O30 2.470 . S
C2 La0 2.928 . S
C2 C3 1.503 . S
C2 O20 1.261 . S
C2 O21 1.243 . S
C3 C2 1.503 . S
C3 C4 1.394 . S
C3 C8 1.373 . S
C4 C3 1.394 . S
C4 C5 1.380 . S
C4 H32 0.930 . S
C5 C4 1.380 . S
C5 C6 1.376 . S
C5 H33 0.930 . S
C6 C5 1.376 . S
C6 C7 1.370 . S
C7 C6 1.370 . S
C7 C8 1.396 . S
C7 H34 0.929 . S
C8 C3 1.373 . S
C8 C7 1.396 . S
C8 H35 0.929 . S
C9 O22 1.245 . S
C9 O23 1.287 1_455 S
C10 O24 1.258 . S
C10 O25 1.256 . S
C11 La1 2.928 . S
C11 C12 1.503 . S
C11 O26 1.261 . S
C11 O27 1.243 . S
C12 C11 1.503 . S
C12 C13 1.394 . S
C12 C17 1.373 . S
C13 C12 1.394 . S
C13 C14 1.380 . S
C13 H36 0.930 . S
C14 C13 1.380 . S
C14 C15 1.376 . S
C14 H37 0.930 . S
C15 C14 1.376 . S
C15 C16 1.370 . S
C16 C15 1.370 . S
C16 C17 1.396 . S
C16 H38 0.929 . S
C17 C12 1.373 . S
C17 C16 1.396 . S
C17 H39 0.929 . S
C18 O28 1.240 1_455 S
C18 O29 1.289 . S
C19 O30 1.258 . S
C19 O31 1.256 . S
O20 La0 2.521 . S
O20 C2 1.261 . S
O21 La0 2.628 . S
O21 C2 1.243 . S
O22 La0 2.554 . S
O22 C9 1.245 . S
O23 La0 2.757 1_655 S
O23 La1 2.482 . S
O23 C9 1.287 1_655 S
O24 La0 2.470 . S
O24 C10 1.258 . S
O25 La1 2.503 1_455 S
O25 C10 1.256 . S
O26 La1 2.521 . S
O26 C11 1.261 . S
O27 La1 2.628 . S
O27 C11 1.243 . S
O28 La1 2.554 . S
O28 C18 1.240 1_655 S
O29 La0 2.482 . S
O29 La1 2.757 1_455 S
O29 C18 1.289 . S
O30 La1 2.470 . S
O30 C19 1.258 . S
O31 La0 2.503 1_655 S
O31 C19 1.256 . S
H32 C4 0.930 . S
H33 C5 0.930 . S
H34 C7 0.929 . S
H35 C8 0.929 . S
H36 C13 0.930 . S
H37 C14 0.930 . S
H38 C16 0.929 . S
H39 C17 0.929 . S
La40 C42 2.928 1_545 S
La40 O60 2.521 1_545 S
La40 O61 2.628 1_545 S
La40 O62 2.554 . S
La40 O63 2.757 . S
La40 O64 2.470 1_545 S
La40 O69 2.482 . S
La40 O71 2.503 . S
La41 C51 2.928 . S
La41 O63 2.482 . S
La41 O65 2.503 1_545 S
La41 O66 2.521 . S
La41 O67 2.628 . S
La41 O68 2.554 . S
La41 O69 2.757 . S
La41 O70 2.470 . S
C42 La40 2.928 1_565 S
C42 C43 1.503 . S
C42 O60 1.261 . S
C42 O61 1.243 . S
C43 C42 1.503 . S
C43 C44 1.394 . S
C43 C48 1.373 . S
C44 C43 1.394 . S
C44 C45 1.380 . S
C44 H72 0.930 . S
C45 C44 1.380 . S
C45 C46 1.376 . S
C45 H73 0.930 . S
C46 C45 1.376 . S
C46 C47 1.370 . S
C47 C46 1.370 . S
C47 C48 1.396 . S
C47 H74 0.929 . S
C48 C43 1.373 . S
C48 C47 1.396 . S
C48 H75 0.929 . S
C49 O62 1.240 . S
C49 O63 1.289 . S
C50 O64 1.258 . S
C50 O65 1.256 . S
C51 La41 2.928 . S
C51 C52 1.503 . S
C51 O66 1.261 . S
C51 O67 1.243 . S
C52 C51 1.503 . S
C52 C53 1.394 . S
C52 C57 1.373 . S
C53 C52 1.394 . S
C53 C54 1.380 . S
C53 H76 0.930 . S
C54 C53 1.380 . S
C54 C55 1.376 . S
C54 H77 0.930 . S
C55 C54 1.376 . S
C55 C56 1.370 . S
C56 C55 1.370 . S
C56 C57 1.396 . S
C56 H78 0.929 . S
C57 C52 1.373 . S
C57 C56 1.396 . S
C57 H79 0.929 . S
C58 O68 1.240 . S
C58 O69 1.289 . S
C59 O70 1.258 . S
C59 O71 1.256 . S
O60 La40 2.521 1_565 S
O60 C42 1.261 . S
O61 La40 2.628 1_565 S
O61 C42 1.243 . S
O62 La40 2.554 . S
O62 C49 1.240 . S
O63 La40 2.757 . S
O63 La41 2.482 . S
O63 C49 1.289 . S
O64 La40 2.470 1_565 S
O64 C50 1.258 . S
O65 La41 2.503 1_565 S
O65 C50 1.256 . S
O66 La41 2.521 . S
O66 C51 1.261 . S
O67 La41 2.628 . S
O67 C51 1.243 . S
O68 La41 2.554 . S
O68 C58 1.240 . S
O69 La40 2.482 . S
O69 La41 2.757 . S
O69 C58 1.289 . S
O70 La41 2.470 . S
O70 C59 1.258 . S
O71 La40 2.503 . S
O71 C59 1.256 . S
H72 C44 0.930 . S
H73 C45 0.930 . S
H74 C47 0.929 . S
H75 C48 0.929 . S
H76 C53 0.930 . S
H77 C54 0.930 . S
H78 C56 0.929 . S
H79 C57 0.929 . S
La80 C82 2.928 . S
La80 O100 2.521 . S
La80 O101 2.628 . S
La80 O102 2.554 . S
La80 O103 2.757 . S
La80 O104 2.470 . S
La80 O109 2.482 . S
La80 O111 2.503 . S
La81 C91 2.928 . S
La81 O103 2.482 . S
La81 O105 2.503 . S
La81 O106 2.521 . S
La81 O107 2.628 . S
La81 O108 2.554 . S
La81 O109 2.757 . S
La81 O110 2.470 . S
C82 La80 2.928 . S
C82 C83 1.503 . S
C82 O100 1.261 . S
C82 O101 1.243 . S
C83 C82 1.503 . S
C83 C84 1.394 . S
C83 C88 1.373 . S
C84 C83 1.394 . S
C84 C85 1.380 . S
C84 H112 0.930 . S
C85 C84 1.380 . S
C85 C86 1.376 . S
C85 H113 0.930 . S
C86 C85 1.376 . S
C86 C87 1.370 . S
C87 C86 1.370 . S
C87 C88 1.396 . S
C87 H114 0.929 . S
C88 C83 1.373 . S
C88 C87 1.396 . S
C88 H115 0.929 . S
C89 O102 1.240 . S
C89 O103 1.289 . S
C90 O104 1.258 . S
C90 O105 1.256 . S
C91 La81 2.928 . S
C91 C92 1.503 . S
C91 O106 1.261 . S
C91 O107 1.243 . S
C92 C91 1.503 . S
C92 C93 1.394 . S
C92 C97 1.373 . S
C93 C92 1.394 . S
C93 C94 1.380 . S
C93 H116 0.930 . S
C94 C93 1.380 . S
C94 C95 1.376 . S
C94 H117 0.930 . S
C95 C94 1.376 . S
C95 C96 1.370 . S
C96 C95 1.370 . S
C96 C97 1.396 . S
C96 H118 0.929 . S
C97 C92 1.373 . S
C97 C96 1.396 . S
C97 H119 0.929 . S
C98 O108 1.240 . S
C98 O109 1.289 . S
C99 O110 1.258 . S
C99 O111 1.256 . S
O100 La80 2.521 . S
O100 C82 1.261 . S
O101 La80 2.628 . S
O101 C82 1.243 . S
O102 La80 2.554 . S
O102 C89 1.240 . S
O103 La80 2.757 . S
O103 La81 2.482 . S
O103 C89 1.289 . S
O104 La80 2.470 . S
O104 C90 1.258 . S
O105 La81 2.503 . S
O105 C90 1.256 . S
O106 La81 2.521 . S
O106 C91 1.261 . S
O107 La81 2.628 . S
O107 C91 1.243 . S
O108 La81 2.554 . S
O108 C98 1.240 . S
O109 La80 2.482 . S
O109 La81 2.757 . S
O109 C98 1.289 . S
O110 La81 2.470 . S
O110 C99 1.258 . S
O111 La80 2.503 . S
O111 C99 1.256 . S
H112 C84 0.930 . S
H113 C85 0.930 . S
H114 C87 0.929 . S
H115 C88 0.929 . S
H116 C93 0.930 . S
H117 C94 0.930 . S
H118 C96 0.929 . S
H119 C97 0.929 . S
C120 N121 1.317 1_565 S
C120 N122 1.348 . S
C120 C123 1.485 1_565 S
N121 C120 1.317 1_545 S
N121 N125 1.370 . S
N122 C120 1.348 . S
N122 C124 1.346 . S
C123 C120 1.485 1_545 S
C123 H127 0.960 . S
C123 H128 0.961 1_545 S
C123 H129 0.960 . S
C124 N122 1.346 . S
C124 N125 1.307 1_565 S
C124 C126 1.486 . S
N125 N121 1.370 . S
N125 C124 1.307 1_545 S
C126 C124 1.486 . S
C126 H130 0.960 . S
C126 H131 0.960 . S
C126 H132 0.959 . S
H127 C123 0.960 . S
H128 C123 0.961 1_565 S
H129 C123 0.960 . S
H130 C126 0.960 . S
H131 C126 0.960 . S
H132 C126 0.959 . S
C133 N134 1.317 . S
C133 N135 1.348 . S
C133 C136 1.485 . S
N134 C133 1.317 . S
N134 N138 1.370 . S
N135 C133 1.348 . S
N135 C137 1.346 . S
C136 C133 1.485 . S
C136 H140 0.960 . S
C136 H141 0.961 . S
C136 H142 0.960 . S
C137 N135 1.346 . S
C137 N138 1.307 . S
C137 C139 1.486 . S
N138 N134 1.370 . S
N138 C137 1.307 . S
C139 C137 1.486 . S
C139 H143 0.960 . S
C139 H144 0.960 . S
C139 H145 0.959 . S
H140 C136 0.960 . S
H141 C136 0.961 . S
H142 C136 0.960 . S
H143 C139 0.960 . S
H144 C139 0.960 . S
H145 C139 0.959 . S
C146 N147 1.317 . S
C146 N148 1.348 . S
C146 C149 1.485 . S
N147 C146 1.317 . S
N147 N151 1.370 . S
N148 C146 1.348 . S
N148 C150 1.346 . S
C149 C146 1.485 . S
C149 H153 0.960 . S
C149 H154 0.961 . S
C149 H155 0.960 . S
C150 N148 1.346 . S
C150 N151 1.307 . S
C150 C152 1.486 1_455 S
N151 N147 1.370 . S
N151 C150 1.307 . S
C152 C150 1.486 1_655 S
C152 H156 0.960 . S
C152 H157 0.960 . S
C152 H158 0.959 1_655 S
H153 C149 0.960 . S
H154 C149 0.961 . S
H155 C149 0.960 . S
H156 C152 0.960 . S
H157 C152 0.960 . S
H158 C152 0.959 1_455 S
C159 N160 1.317 . S
C159 N161 1.348 . S
C159 C162 1.485 . S
N160 C159 1.317 . S
N160 N164 1.370 . S
N161 C159 1.348 . S
N161 C163 1.346 . S
C162 C159 1.485 . S
C162 H166 0.960 . S
C162 H167 0.961 . S
C162 H168 0.960 . S
C163 N161 1.346 . S
C163 N164 1.307 . S
C163 C165 1.486 . S
N164 N160 1.370 . S
N164 C163 1.307 . S
C165 C163 1.486 . S
C165 H169 0.960 . S
C165 H170 0.960 . S
C165 H171 0.959 . S
H166 C162 0.960 . S
H167 C162 0.961 . S
H168 C162 0.960 . S
H169 C165 0.960 . S
H170 C165 0.960 . S
H171 C165 0.959 . S
C172 N173 1.317 . S
C172 N174 1.348 . S
C172 C175 1.485 . S
N173 C172 1.317 . S
N173 N177 1.370 . S
N174 C172 1.348 . S
N174 C176 1.346 . S
C175 C172 1.485 . S
C175 H179 0.960 . S
C175 H180 0.961 . S
C175 H181 0.960 . S
C176 N174 1.346 . S
C176 N177 1.307 . S
C176 C178 1.486 . S
N177 N173 1.370 . S
N177 C176 1.307 . S
C178 C176 1.486 . S
C178 H182 0.960 . S
C178 H183 0.960 . S
C178 H184 0.959 . S
H179 C175 0.960 . S
H180 C175 0.961 . S
H181 C175 0.960 . S
H182 C178 0.960 . S
H183 C178 0.960 . S
H184 C178 0.959 . S
C185 N186 1.317 . S
C185 N187 1.348 . S
C185 C188 1.485 . S
N186 C185 1.317 . S
N186 N190 1.370 . S
N187 C185 1.348 . S
N187 C189 1.346 . S
C188 C185 1.485 . S
C188 H192 0.960 . S
C188 H193 0.961 . S
C188 H194 0.960 . S
C189 N187 1.346 . S
C189 N190 1.307 . S
C189 C191 1.486 . S
N190 N186 1.370 . S
N190 C189 1.307 . S
C191 C189 1.486 . S
C191 H195 0.960 . S
C191 H196 0.960 . S
C191 H197 0.959 . S
H192 C188 0.960 . S
H193 C188 0.961 . S
H194 C188 0.960 . S
H195 C191 0.960 . S
H196 C191 0.960 . S
H197 C191 0.959 . S
H198 C216 0.951 . S
H199 C218 0.951 . S
H200 C220 0.950 . S
H201 C221 0.950 . S
H202 C223 0.950 . S
H203 C226 0.950 . S
H204 C227 0.950 . S
H205 C229 0.950 . S
H206 C230 0.950 . S
H207 C231 0.951 . S
H208 C233 0.951 . S
H209 C235 0.950 . S
H210 C236 0.950 . S
H211 C238 0.950 . S
H212 C241 0.950 . S
H213 C242 0.950 . S
H214 C244 0.950 . S
H215 C245 0.950 . S
C216 H198 0.951 . S
C216 C217 1.366 . S
C216 C218 1.388 . S
C217 C216 1.366 . S
C217 C221 1.385 . S
C218 H199 0.951 . S
C218 C216 1.388 . S
C218 C219 1.366 . S
C219 C218 1.366 . S
C219 C220 1.414 . S
C219 C222 1.499 . S
C220 H200 0.950 . S
C220 C219 1.414 . S
C220 C221 1.374 . S
C221 H201 0.950 . S
C221 C217 1.385 . S
C221 C220 1.374 . S
C222 C219 1.499 . S
C222 C223 1.373 . S
C222 C224 1.389 . S
C223 H202 0.950 . S
C223 C222 1.373 . S
C223 C239 1.377 . S
C224 C222 1.389 . S
C224 C225 1.524 . S
C224 C238 1.377 . S
C225 C224 1.524 . S
C225 C226 1.397 . S
C225 C230 1.363 . S
C226 H203 0.950 . S
C226 C225 1.397 . S
C226 C227 1.334 . S
C227 H204 0.950 . S
C227 C226 1.334 . S
C227 C228 1.287 . S
C228 C227 1.287 . S
C228 C229 1.524 . S
C228 H247 0.913 . S
C229 H205 0.950 . S
C229 C228 1.524 . S
C229 C230 1.415 . S
C230 H206 0.950 . S
C230 C225 1.363 . S
C230 C229 1.415 . S
C231 H207 0.951 . S
C231 C232 1.366 . S
C231 C233 1.388 . S
C232 C231 1.366 . S
C232 C236 1.385 . S
C233 H208 0.951 . S
C233 C231 1.388 . S
C233 C234 1.366 . S
C234 C233 1.366 . S
C234 C235 1.414 . S
C234 C237 1.499 . S
C235 H209 0.950 . S
C235 C234 1.414 . S
C235 C236 1.374 . S
C236 H210 0.950 . S
C236 C232 1.385 . S
C236 C235 1.374 . S
C237 C234 1.499 . S
C237 C238 1.373 . S
C237 C239 1.389 . S
C238 H211 0.950 . S
C238 C224 1.377 . S
C238 C237 1.373 . S
C239 C223 1.377 . S
C239 C237 1.389 . S
C239 C240 1.524 . S
C240 C239 1.524 . S
C240 C241 1.397 . S
C240 C245 1.363 . S
C241 H212 0.950 . S
C241 C240 1.397 . S
C241 C242 1.334 . S
C242 H213 0.950 . S
C242 C241 1.334 . S
C242 C243 1.287 . S
C243 C242 1.287 . S
C243 C244 1.524 . S
C243 H246 0.999 . S
C244 H214 0.950 . S
C244 C243 1.524 . S
C244 C245 1.415 . S
C245 H215 0.950 . S
C245 C240 1.363 . S
C245 C244 1.415 . S
H246 C243 0.999 . S
H247 C228 0.913 . S
H248 C266 0.951 . S
H249 C268 0.951 . S
H250 C270 0.950 . S
H251 C271 0.950 . S
H252 C273 0.950 . S
H253 C276 0.950 . S
H254 C277 0.950 . S
H255 C279 0.950 . S
H256 C280 0.950 . S
H257 C281 0.951 . S
H258 C283 0.951 . S
H259 C285 0.950 . S
H260 C286 0.950 . S
H261 C288 0.950 . S
H262 C291 0.950 . S
H263 C292 0.950 . S
H264 C294 0.950 . S
H265 C295 0.950 . S
C266 H248 0.951 . S
C266 C267 1.366 . S
C266 C268 1.388 . S
C267 C266 1.366 . S
C267 C271 1.385 . S
C268 H249 0.951 . S
C268 C266 1.388 . S
C268 C269 1.366 . S
C269 C268 1.366 . S
C269 C270 1.414 . S
C269 C272 1.499 . S
C270 H250 0.950 . S
C270 C269 1.414 . S
C270 C271 1.374 . S
C271 H251 0.950 . S
C271 C267 1.385 . S
C271 C270 1.374 . S
C272 C269 1.499 . S
C272 C273 1.373 . S
C272 C274 1.389 . S
C273 H252 0.950 . S
C273 C272 1.373 . S
C273 C289 1.377 . S
C274 C272 1.389 . S
C274 C275 1.524 . S
C274 C288 1.377 . S
C275 C274 1.524 . S
C275 C276 1.397 . S
C275 C280 1.363 . S
C276 H253 0.950 . S
C276 C275 1.397 . S
C276 C277 1.334 . S
C277 H254 0.950 . S
C277 C276 1.334 . S
C277 C278 1.287 . S
C278 C277 1.287 . S
C278 C279 1.524 . S
C278 H297 0.913 . S
C279 H255 0.950 . S
C279 C278 1.524 . S
C279 C280 1.415 . S
C280 H256 0.950 . S
C280 C275 1.363 . S
C280 C279 1.415 . S
C281 H257 0.951 . S
C281 C282 1.366 . S
C281 C283 1.388 . S
C282 C281 1.366 . S
C282 C286 1.385 . S
C283 H258 0.951 . S
C283 C281 1.388 . S
C283 C284 1.366 . S
C284 C283 1.366 . S
C284 C285 1.414 . S
C284 C287 1.499 . S
C285 H259 0.950 . S
C285 C284 1.414 . S
C285 C286 1.374 . S
C286 H260 0.950 . S
C286 C282 1.385 . S
C286 C285 1.374 . S
C287 C284 1.499 . S
C287 C288 1.373 . S
C287 C289 1.389 . S
C288 H261 0.950 . S
C288 C274 1.377 . S
C288 C287 1.373 . S
C289 C273 1.377 . S
C289 C287 1.389 . S
C289 C290 1.524 . S
C290 C289 1.524 . S
C290 C291 1.397 . S
C290 C295 1.363 . S
C291 H262 0.950 . S
C291 C290 1.397 . S
C291 C292 1.334 . S
C292 H263 0.950 . S
C292 C291 1.334 . S
C292 C293 1.287 . S
C293 C292 1.287 . S
C293 C294 1.524 . S
C293 H296 0.999 1_655 S
C294 H264 0.950 . S
C294 C293 1.524 . S
C294 C295 1.415 . S
C295 H265 0.950 . S
C295 C290 1.363 . S
C295 C294 1.415 . S
H296 C293 0.999 1_455 S
H297 C278 0.913 . S
H298 C316 0.951 . S
H299 C318 0.951 . S
H300 C320 0.950 . S
H301 C321 0.950 . S
H302 C323 0.950 . S
H303 C326 0.950 . S
H304 C327 0.950 . S
H305 C329 0.950 . S
H306 C330 0.950 . S
H307 C331 0.951 . S
H308 C333 0.951 . S
H309 C335 0.950 . S
H310 C336 0.950 . S
H311 C338 0.950 . S
H312 C341 0.950 . S
H313 C342 0.950 . S
H314 C344 0.950 . S
H315 C345 0.950 . S
C316 H298 0.951 . S
C316 C317 1.366 . S
C316 C318 1.388 . S
C317 C316 1.366 . S
C317 C321 1.385 . S
C318 H299 0.951 . S
C318 C316 1.388 . S
C318 C319 1.366 . S
C319 C318 1.366 . S
C319 C320 1.414 . S
C319 C322 1.499 . S
C320 H300 0.950 . S
C320 C319 1.414 . S
C320 C321 1.374 . S
C321 H301 0.950 . S
C321 C317 1.385 . S
C321 C320 1.374 . S
C322 C319 1.499 . S
C322 C323 1.373 . S
C322 C324 1.389 . S
C323 H302 0.950 . S
C323 C322 1.373 . S
C323 C339 1.377 . S
C324 C322 1.389 . S
C324 C325 1.524 . S
C324 C338 1.377 . S
C325 C324 1.524 . S
C325 C326 1.397 . S
C325 C330 1.363 . S
C326 H303 0.950 . S
C326 C325 1.397 . S
C326 C327 1.334 . S
C327 H304 0.950 . S
C327 C326 1.334 . S
C327 C328 1.287 . S
C328 C327 1.287 . S
C328 C329 1.524 . S
C328 H347 0.913 . S
C329 H305 0.950 . S
C329 C328 1.524 . S
C329 C330 1.415 . S
C330 H306 0.950 . S
C330 C325 1.363 . S
C330 C329 1.415 . S
C331 H307 0.951 . S
C331 C332 1.366 . S
C331 C333 1.388 1_545 S
C332 C331 1.366 . S
C332 C336 1.385 1_545 S
C333 H308 0.951 . S
C333 C331 1.388 1_565 S
C333 C334 1.366 . S
C334 C333 1.366 . S
C334 C335 1.414 . S
C334 C337 1.499 . S
C335 H309 0.950 . S
C335 C334 1.414 . S
C335 C336 1.374 . S
C336 H310 0.950 . S
C336 C332 1.385 1_565 S
C336 C335 1.374 . S
C337 C334 1.499 . S
C337 C338 1.373 . S
C337 C339 1.389 . S
C338 H311 0.950 . S
C338 C324 1.377 . S
C338 C337 1.373 . S
C339 C323 1.377 . S
C339 C337 1.389 . S
C339 C340 1.524 . S
C340 C339 1.524 . S
C340 C341 1.397 1_565 S
C340 C345 1.363 . S
C341 H312 0.950 . S
C341 C340 1.397 1_545 S
C341 C342 1.334 . S
C342 H313 0.950 . S
C342 C341 1.334 . S
C342 C343 1.287 . S
C343 C342 1.287 . S
C343 C344 1.524 . S
C343 H346 0.999 . S
C344 H314 0.950 . S
C344 C343 1.524 . S
C344 C345 1.415 1_545 S
C345 H315 0.950 . S
C345 C340 1.363 . S
C345 C344 1.415 1_565 S
H346 C343 0.999 . S
H347 C328 0.913 . S
H348 C366 0.951 . S
H349 C368 0.951 . S
H350 C370 0.950 . S
H351 C371 0.950 . S
H352 C373 0.950 . S
H353 C376 0.950 . S
H354 C377 0.950 . S
H355 C379 0.950 . S
H356 C380 0.950 . S
H357 C381 0.951 . S
H358 C383 0.951 . S
H359 C385 0.950 . S
H360 C386 0.950 . S
H361 C388 0.950 . S
H362 C391 0.950 . S
H363 C392 0.950 . S
H364 C394 0.950 . S
H365 C395 0.950 . S
C366 H348 0.951 . S
C366 C367 1.366 . S
C366 C368 1.388 . S
C367 C366 1.366 . S
C367 C371 1.385 . S
C368 H349 0.951 . S
C368 C366 1.388 . S
C368 C369 1.366 . S
C369 C368 1.366 . S
C369 C370 1.414 . S
C369 C372 1.499 . S
C370 H350 0.950 . S
C370 C369 1.414 . S
C370 C371 1.374 . S
C371 H351 0.950 . S
C371 C367 1.385 . S
C371 C370 1.374 . S
C372 C369 1.499 . S
C372 C373 1.373 . S
C372 C374 1.389 . S
C373 H352 0.950 . S
C373 C372 1.373 . S
C373 C389 1.377 . S
C374 C372 1.389 . S
C374 C375 1.524 . S
C374 C388 1.377 . S
C375 C374 1.524 . S
C375 C376 1.397 . S
C375 C380 1.363 . S
C376 H353 0.950 . S
C376 C375 1.397 . S
C376 C377 1.334 . S
C377 H354 0.950 . S
C377 C376 1.334 . S
C377 C378 1.287 . S
C378 C377 1.287 . S
C378 C379 1.524 . S
C378 H397 0.913 . S
C379 H355 0.950 . S
C379 C378 1.524 . S
C379 C380 1.415 . S
C380 H356 0.950 . S
C380 C375 1.363 . S
C380 C379 1.415 . S
C381 H357 0.951 . S
C381 C382 1.366 . S
C381 C383 1.388 . S
C382 C381 1.366 . S
C382 C386 1.385 . S
C383 H358 0.951 . S
C383 C381 1.388 . S
C383 C384 1.366 . S
C384 C383 1.366 . S
C384 C385 1.414 . S
C384 C387 1.499 . S
C385 H359 0.950 . S
C385 C384 1.414 . S
C385 C386 1.374 . S
C386 H360 0.950 . S
C386 C382 1.385 . S
C386 C385 1.374 . S
C387 C384 1.499 . S
C387 C388 1.373 . S
C387 C389 1.389 . S
C388 H361 0.950 . S
C388 C374 1.377 . S
C388 C387 1.373 . S
C389 C373 1.377 . S
C389 C387 1.389 . S
C389 C390 1.524 . S
C390 C389 1.524 . S
C390 C391 1.397 . S
C390 C395 1.363 . S
C391 H362 0.950 . S
C391 C390 1.397 . S
C391 C392 1.334 . S
C392 H363 0.950 . S
C392 C391 1.334 . S
C392 C393 1.287 . S
C393 C392 1.287 . S
C393 C394 1.524 . S
C393 H396 0.999 . S
C394 H364 0.950 . S
C394 C393 1.524 . S
C394 C395 1.415 . S
C395 H365 0.950 . S
C395 C390 1.363 . S
C395 C394 1.415 . S
H396 C393 0.999 . S
H397 C378 0.913 . S
H398 C416 0.951 . S
H399 C418 0.951 . S
H400 C420 0.950 . S
H401 C421 0.950 . S
H402 C423 0.950 . S
H403 C426 0.950 . S
H404 C427 0.950 . S
H405 C429 0.950 . S
H406 C430 0.950 . S
H407 C431 0.951 . S
H408 C433 0.951 . S
H409 C435 0.950 . S
H410 C436 0.950 . S
H411 C438 0.950 . S
H412 C441 0.950 . S
H413 C442 0.950 . S
H414 C444 0.950 . S
H415 C445 0.950 . S
C416 H398 0.951 . S
C416 C417 1.366 . S
C416 C418 1.388 . S
C417 C416 1.366 . S
C417 C421 1.385 . S
C418 H399 0.951 . S
C418 C416 1.388 . S
C418 C419 1.366 . S
C419 C418 1.366 . S
C419 C420 1.414 . S
C419 C422 1.499 . S
C420 H400 0.950 . S
C420 C419 1.414 . S
C420 C421 1.374 . S
C421 H401 0.950 . S
C421 C417 1.385 . S
C421 C420 1.374 . S
C422 C419 1.499 . S
C422 C423 1.373 . S
C422 C424 1.389 . S
C423 H402 0.950 . S
C423 C422 1.373 . S
C423 C439 1.377 . S
C424 C422 1.389 . S
C424 C425 1.524 . S
C424 C438 1.377 . S
C425 C424 1.524 . S
C425 C426 1.397 . S
C425 C430 1.363 . S
C426 H403 0.950 . S
C426 C425 1.397 . S
C426 C427 1.334 . S
C427 H404 0.950 . S
C427 C426 1.334 . S
C427 C428 1.287 . S
C428 C427 1.287 . S
C428 C429 1.524 . S
C428 H447 0.913 . S
C429 H405 0.950 . S
C429 C428 1.524 . S
C429 C430 1.415 . S
C430 H406 0.950 . S
C430 C425 1.363 . S
C430 C429 1.415 . S
C431 H407 0.951 . S
C431 C432 1.366 . S
C431 C433 1.388 . S
C432 C431 1.366 . S
C432 C436 1.385 . S
C433 H408 0.951 . S
C433 C431 1.388 . S
C433 C434 1.366 . S
C434 C433 1.366 . S
C434 C435 1.414 . S
C434 C437 1.499 . S
C435 H409 0.950 . S
C435 C434 1.414 . S
C435 C436 1.374 . S
C436 H410 0.950 . S
C436 C432 1.385 . S
C436 C435 1.374 . S
C437 C434 1.499 . S
C437 C438 1.373 . S
C437 C439 1.389 . S
C438 H411 0.950 . S
C438 C424 1.377 . S
C438 C437 1.373 . S
C439 C423 1.377 . S
C439 C437 1.389 . S
C439 C440 1.524 . S
C440 C439 1.524 . S
C440 C441 1.397 . S
C440 C445 1.363 . S
C441 H412 0.950 . S
C441 C440 1.397 . S
C441 C442 1.334 . S
C442 H413 0.950 . S
C442 C441 1.334 . S
C442 C443 1.287 . S
C443 C442 1.287 . S
C443 C444 1.524 . S
C443 H446 0.999 . S
C444 H414 0.950 . S
C444 C443 1.524 . S
C444 C445 1.415 . S
C445 H415 0.950 . S
C445 C440 1.363 . S
C445 C444 1.415 . S
H446 C443 0.999 . S
H447 C428 0.913 . S
H448 C466 0.951 . S
H449 C468 0.951 . S
H450 C470 0.950 . S
H451 C471 0.950 . S
H452 C473 0.950 . S
H453 C476 0.950 . S
H454 C477 0.950 . S
H455 C479 0.950 . S
H456 C480 0.950 . S
H457 C481 0.951 . S
H458 C483 0.951 . S
H459 C485 0.950 . S
H460 C486 0.950 . S
H461 C488 0.950 . S
H462 C491 0.950 . S
H463 C492 0.950 . S
H464 C494 0.950 . S
H465 C495 0.950 . S
C466 H448 0.951 . S
C466 C467 1.366 . S
C466 C468 1.388 . S
C467 C466 1.366 . S
C467 C471 1.385 . S
C468 H449 0.951 . S
C468 C466 1.388 . S
C468 C469 1.366 . S
C469 C468 1.366 . S
C469 C470 1.414 . S
C469 C472 1.499 . S
C470 H450 0.950 . S
C470 C469 1.414 . S
C470 C471 1.374 . S
C471 H451 0.950 . S
C471 C467 1.385 . S
C471 C470 1.374 . S
C472 C469 1.499 . S
C472 C473 1.373 . S
C472 C474 1.389 . S
C473 H452 0.950 . S
C473 C472 1.373 . S
C473 C489 1.377 . S
C474 C472 1.389 . S
C474 C475 1.524 . S
C474 C488 1.377 . S
C475 C474 1.524 . S
C475 C476 1.397 . S
C475 C480 1.363 . S
C476 H453 0.950 . S
C476 C475 1.397 . S
C476 C477 1.334 . S
C477 H454 0.950 . S
C477 C476 1.334 . S
C477 C478 1.287 . S
C478 C477 1.287 . S
C478 C479 1.524 . S
C478 H497 0.913 . S
C479 H455 0.950 . S
C479 C478 1.524 . S
C479 C480 1.415 . S
C480 H456 0.950 . S
C480 C475 1.363 . S
C480 C479 1.415 . S
C481 H457 0.951 . S
C481 C482 1.366 . S
C481 C483 1.388 . S
C482 C481 1.366 . S
C482 C486 1.385 . S
C483 H458 0.951 . S
C483 C481 1.388 . S
C483 C484 1.366 . S
C484 C483 1.366 . S
C484 C485 1.414 . S
C484 C487 1.499 . S
C485 H459 0.950 . S
C485 C484 1.414 . S
C485 C486 1.374 . S
C486 H460 0.950 . S
C486 C482 1.385 . S
C486 C485 1.374 . S
C487 C484 1.499 . S
C487 C488 1.373 . S
C487 C489 1.389 . S
C488 H461 0.950 . S
C488 C474 1.377 . S
C488 C487 1.373 . S
C489 C473 1.377 . S
C489 C487 1.389 . S
C489 C490 1.524 . S
C490 C489 1.524 . S
C490 C491 1.397 . S
C490 C495 1.363 . S
C491 H462 0.950 . S
C491 C490 1.397 . S
C491 C492 1.334 . S
C492 H463 0.950 . S
C492 C491 1.334 . S
C492 C493 1.287 . S
C493 C492 1.287 . S
C493 C494 1.524 . S
C493 H496 0.999 . S
C494 H464 0.950 . S
C494 C493 1.524 . S
C494 C495 1.415 . S
C495 H465 0.950 . S
C495 C490 1.363 . S
C495 C494 1.415 . S
H496 C493 0.999 . S
H497 C478 0.913 . S
H498 C516 0.951 . S
H499 C518 0.951 . S
H500 C520 0.950 . S
H501 C521 0.950 . S
H502 C523 0.950 . S
H503 C526 0.950 . S
H504 C527 0.950 . S
H505 C529 0.950 . S
H506 C530 0.950 . S
H507 C531 0.951 . S
H508 C533 0.951 . S
H509 C535 0.950 . S
H510 C536 0.950 . S
H511 C538 0.950 . S
H512 C541 0.950 . S
H513 C542 0.950 . S
H514 C544 0.950 . S
H515 C545 0.950 . S
C516 H498 0.951 . S
C516 C517 1.366 . S
C516 C518 1.388 . S
C517 C516 1.366 . S
C517 C521 1.385 . S
C518 H499 0.951 . S
C518 C516 1.388 . S
C518 C519 1.366 . S
C519 C518 1.366 . S
C519 C520 1.414 . S
C519 C522 1.499 . S
C520 H500 0.950 . S
C520 C519 1.414 . S
C520 C521 1.374 . S
C521 H501 0.950 . S
C521 C517 1.385 . S
C521 C520 1.374 . S
C522 C519 1.499 . S
C522 C523 1.373 . S
C522 C524 1.389 . S
C523 H502 0.950 . S
C523 C522 1.373 . S
C523 C539 1.377 . S
C524 C522 1.389 . S
C524 C525 1.524 . S
C524 C538 1.377 . S
C525 C524 1.524 . S
C525 C526 1.397 . S
C525 C530 1.363 . S
C526 H503 0.950 . S
C526 C525 1.397 . S
C526 C527 1.334 . S
C527 H504 0.950 . S
C527 C526 1.334 . S
C527 C528 1.287 . S
C528 C527 1.287 . S
C528 C529 1.524 . S
C528 H547 0.913 . S
C529 H505 0.950 . S
C529 C528 1.524 . S
C529 C530 1.415 . S
C530 H506 0.950 . S
C530 C525 1.363 . S
C530 C529 1.415 . S
C531 H507 0.951 . S
C531 C532 1.366 . S
C531 C533 1.388 . S
C532 C531 1.366 . S
C532 C536 1.385 . S
C533 H508 0.951 . S
C533 C531 1.388 . S
C533 C534 1.366 . S
C534 C533 1.366 . S
C534 C535 1.414 . S
C534 C537 1.499 . S
C535 H509 0.950 . S
C535 C534 1.414 . S
C535 C536 1.374 . S
C536 H510 0.950 . S
C536 C532 1.385 . S
C536 C535 1.374 . S
C537 C534 1.499 . S
C537 C538 1.373 . S
C537 C539 1.389 . S
C538 H511 0.950 . S
C538 C524 1.377 . S
C538 C537 1.373 . S
C539 C523 1.377 . S
C539 C537 1.389 . S
C539 C540 1.524 . S
C540 C539 1.524 . S
C540 C541 1.397 . S
C540 C545 1.363 . S
C541 H512 0.950 . S
C541 C540 1.397 . S
C541 C542 1.334 . S
C542 H513 0.950 . S
C542 C541 1.334 . S
C542 C543 1.287 . S
C543 C542 1.287 . S
C543 C544 1.524 . S
C543 H546 0.999 . S
C544 H514 0.950 . S
C544 C543 1.524 . S
C544 C545 1.415 . S
C545 H515 0.950 . S
C545 C540 1.363 . S
C545 C544 1.415 . S
H546 C543 0.999 . S
H547 C528 0.913 . S
H548 C566 0.951 . S
H549 C568 0.951 . S
H550 C570 0.950 . S
H551 C571 0.950 . S
H552 C573 0.950 . S
H553 C576 0.950 . S
H554 C577 0.950 . S
H555 C579 0.950 . S
H556 C580 0.950 . S
H557 C581 0.951 . S
H558 C583 0.951 . S
H559 C585 0.950 . S
H560 C586 0.950 . S
H561 C588 0.950 . S
H562 C591 0.950 . S
H563 C592 0.950 . S
H564 C594 0.950 . S
H565 C595 0.950 . S
C566 H548 0.951 . S
C566 C567 1.366 . S
C566 C568 1.388 . S
C567 C566 1.366 . S
C567 C571 1.385 . S
C568 H549 0.951 . S
C568 C566 1.388 . S
C568 C569 1.366 . S
C569 C568 1.366 . S
C569 C570 1.414 . S
C569 C572 1.499 . S
C570 H550 0.950 . S
C570 C569 1.414 . S
C570 C571 1.374 . S
C571 H551 0.950 . S
C571 C567 1.385 . S
C571 C570 1.374 . S
C572 C569 1.499 . S
C572 C573 1.373 . S
C572 C574 1.389 . S
C573 H552 0.950 . S
C573 C572 1.373 . S
C573 C589 1.377 . S
C574 C572 1.389 . S
C574 C575 1.524 . S
C574 C588 1.377 . S
C575 C574 1.524 . S
C575 C576 1.397 . S
C575 C580 1.363 . S
C576 H553 0.950 . S
C576 C575 1.397 . S
C576 C577 1.334 . S
C577 H554 0.950 . S
C577 C576 1.334 . S
C577 C578 1.287 . S
C578 C577 1.287 . S
C578 C579 1.524 . S
C578 H597 0.913 . S
C579 H555 0.950 . S
C579 C578 1.524 . S
C579 C580 1.415 . S
C580 H556 0.950 . S
C580 C575 1.363 . S
C580 C579 1.415 . S
C581 H557 0.951 . S
C581 C582 1.366 . S
C581 C583 1.388 . S
C582 C581 1.366 . S
C582 C586 1.385 . S
C583 H558 0.951 . S
C583 C581 1.388 . S
C583 C584 1.366 . S
C584 C583 1.366 . S
C584 C585 1.414 . S
C584 C587 1.499 . S
C585 H559 0.950 . S
C585 C584 1.414 . S
C585 C586 1.374 . S
C586 H560 0.950 . S
C586 C582 1.385 . S
C586 C585 1.374 . S
C587 C584 1.499 . S
C587 C588 1.373 . S
C587 C589 1.389 . S
C588 H561 0.950 . S
C588 C574 1.377 . S
C588 C587 1.373 . S
C589 C573 1.377 . S
C589 C587 1.389 . S
C589 C590 1.524 . S
C590 C589 1.524 . S
C590 C591 1.397 . S
C590 C595 1.363 . S
C591 H562 0.950 . S
C591 C590 1.397 . S
C591 C592 1.334 . S
C592 H563 0.950 . S
C592 C591 1.334 . S
C592 C593 1.287 . S
C593 C592 1.287 . S
C593 C594 1.524 . S
C593 H596 0.999 . S
C594 H564 0.950 . S
C594 C593 1.524 . S
C594 C595 1.415 . S
C595 H565 0.950 . S
C595 C590 1.363 . S
C595 C594 1.415 . S
H596 C593 0.999 . S
H597 C578 0.913 . S
H598 C616 0.951 . S
H599 C618 0.951 . S
H600 C620 0.950 . S
H601 C621 0.950 . S
H602 C623 0.950 . S
H603 C626 0.950 . S
H604 C627 0.950 . S
H605 C629 0.950 . S
H606 C630 0.950 . S
H607 C631 0.951 . S
H608 C633 0.951 . S
H609 C635 0.950 . S
H610 C636 0.950 . S
H611 C638 0.950 . S
H612 C641 0.950 . S
H613 C642 0.950 . S
H614 C644 0.950 . S
H615 C645 0.950 . S
C616 H598 0.951 . S
C616 C617 1.366 . S
C616 C618 1.388 . S
C617 C616 1.366 . S
C617 C621 1.385 . S
C618 H599 0.951 . S
C618 C616 1.388 . S
C618 C619 1.366 . S
C619 C618 1.366 . S
C619 C620 1.414 . S
C619 C622 1.499 . S
C620 H600 0.950 . S
C620 C619 1.414 . S
C620 C621 1.374 . S
C621 H601 0.950 . S
C621 C617 1.385 . S
C621 C620 1.374 . S
C622 C619 1.499 . S
C622 C623 1.373 . S
C622 C624 1.389 . S
C623 H602 0.950 . S
C623 C622 1.373 . S
C623 C639 1.377 . S
C624 C622 1.389 . S
C624 C625 1.524 . S
C624 C638 1.377 . S
C625 C624 1.524 . S
C625 C626 1.397 . S
C625 C630 1.363 . S
C626 H603 0.950 . S
C626 C625 1.397 . S
C626 C627 1.334 . S
C627 H604 0.950 . S
C627 C626 1.334 . S
C627 C628 1.287 . S
C628 C627 1.287 . S
C628 C629 1.524 . S
C628 H647 0.913 . S
C629 H605 0.950 . S
C629 C628 1.524 . S
C629 C630 1.415 . S
C630 H606 0.950 . S
C630 C625 1.363 . S
C630 C629 1.415 . S
C631 H607 0.951 . S
C631 C632 1.366 . S
C631 C633 1.388 . S
C632 C631 1.366 . S
C632 C636 1.385 . S
C633 H608 0.951 . S
C633 C631 1.388 . S
C633 C634 1.366 . S
C634 C633 1.366 . S
C634 C635 1.414 . S
C634 C637 1.499 . S
C635 H609 0.950 . S
C635 C634 1.414 . S
C635 C636 1.374 . S
C636 H610 0.950 . S
C636 C632 1.385 . S
C636 C635 1.374 . S
C637 C634 1.499 . S
C637 C638 1.373 . S
C637 C639 1.389 . S
C638 H611 0.950 . S
C638 C624 1.377 . S
C638 C637 1.373 . S
C639 C623 1.377 . S
C639 C637 1.389 . S
C639 C640 1.524 . S
C640 C639 1.524 . S
C640 C641 1.397 . S
C640 C645 1.363 . S
C641 H612 0.950 . S
C641 C640 1.397 . S
C641 C642 1.334 . S
C642 H613 0.950 . S
C642 C641 1.334 . S
C642 C643 1.287 . S
C643 C642 1.287 . S
C643 C644 1.524 . S
C643 H646 0.999 . S
C644 H614 0.950 . S
C644 C643 1.524 . S
C644 C645 1.415 . S
C645 H615 0.950 . S
C645 C640 1.363 . S
C645 C644 1.415 . S
H646 C643 0.999 . S
H647 C628 0.913 . S
H648 C666 0.951 . S
H649 C668 0.951 . S
H650 C670 0.950 . S
H651 C671 0.950 . S
H652 C673 0.950 . S
H653 C676 0.950 . S
H654 C677 0.950 . S
H655 C679 0.950 . S
H656 C680 0.950 . S
H657 C681 0.951 . S
H658 C683 0.951 . S
H659 C685 0.950 . S
H660 C686 0.950 . S
H661 C688 0.950 . S
H662 C691 0.950 . S
H663 C692 0.950 . S
H664 C694 0.950 . S
H665 C695 0.950 . S
C666 H648 0.951 . S
C666 C667 1.366 . S
C666 C668 1.388 . S
C667 C666 1.366 . S
C667 C671 1.385 . S
C668 H649 0.951 . S
C668 C666 1.388 . S
C668 C669 1.366 . S
C669 C668 1.366 . S
C669 C670 1.414 . S
C669 C672 1.499 . S
C670 H650 0.950 . S
C670 C669 1.414 . S
C670 C671 1.374 . S
C671 H651 0.950 . S
C671 C667 1.385 . S
C671 C670 1.374 . S
C672 C669 1.499 . S
C672 C673 1.373 . S
C672 C674 1.389 . S
C673 H652 0.950 . S
C673 C672 1.373 . S
C673 C689 1.377 . S
C674 C672 1.389 . S
C674 C675 1.524 . S
C674 C688 1.377 . S
C675 C674 1.524 . S
C675 C676 1.397 . S
C675 C680 1.363 . S
C676 H653 0.950 . S
C676 C675 1.397 . S
C676 C677 1.334 . S
C677 H654 0.950 . S
C677 C676 1.334 . S
C677 C678 1.287 . S
C678 C677 1.287 . S
C678 C679 1.524 . S
C678 H697 0.913 . S
C679 H655 0.950 . S
C679 C678 1.524 . S
C679 C680 1.415 . S
C680 H656 0.950 . S
C680 C675 1.363 . S
C680 C679 1.415 . S
C681 H657 0.951 . S
C681 C682 1.366 . S
C681 C683 1.388 . S
C682 C681 1.366 . S
C682 C686 1.385 . S
C683 H658 0.951 . S
C683 C681 1.388 . S
C683 C684 1.366 . S
C684 C683 1.366 . S
C684 C685 1.414 . S
C684 C687 1.499 . S
C685 H659 0.950 . S
C685 C684 1.414 . S
C685 C686 1.374 . S
C686 H660 0.950 . S
C686 C682 1.385 . S
C686 C685 1.374 . S
C687 C684 1.499 . S
C687 C688 1.373 . S
C687 C689 1.389 . S
C688 H661 0.950 . S
C688 C674 1.377 . S
C688 C687 1.373 . S
C689 C673 1.377 . S
C689 C687 1.389 . S
C689 C690 1.524 . S
C690 C689 1.524 . S
C690 C691 1.397 . S
C690 C695 1.363 . S
C691 H662 0.950 . S
C691 C690 1.397 . S
C691 C692 1.334 . S
C692 H663 0.950 . S
C692 C691 1.334 . S
C692 C693 1.287 . S
C693 C692 1.287 . S
C693 C694 1.524 . S
C693 H696 0.999 . S
C694 H664 0.950 . S
C694 C693 1.524 . S
C694 C695 1.415 . S
C695 H665 0.950 . S
C695 C690 1.363 . S
C695 C694 1.415 . S
H696 C693 0.999 . S
H697 C678 0.913 . S
H698 C716 0.951 . S
H699 C718 0.951 . S
H700 C720 0.950 . S
H701 C721 0.950 . S
H702 C723 0.950 . S
H703 C726 0.950 . S
H704 C727 0.950 . S
H705 C729 0.950 . S
H706 C730 0.950 . S
H707 C731 0.951 . S
H708 C733 0.951 . S
H709 C735 0.950 . S
H710 C736 0.950 . S
H711 C738 0.950 . S
H712 C741 0.950 . S
H713 C742 0.950 . S
H714 C744 0.950 . S
H715 C745 0.950 . S
C716 H698 0.951 . S
C716 C717 1.366 . S
C716 C718 1.388 . S
C717 C716 1.366 . S
C717 C721 1.385 . S
C718 H699 0.951 . S
C718 C716 1.388 . S
C718 C719 1.366 . S
C719 C718 1.366 . S
C719 C720 1.414 . S
C719 C722 1.499 . S
C720 H700 0.950 . S
C720 C719 1.414 . S
C720 C721 1.374 . S
C721 H701 0.950 . S
C721 C717 1.385 . S
C721 C720 1.374 . S
C722 C719 1.499 . S
C722 C723 1.373 . S
C722 C724 1.389 . S
C723 H702 0.950 . S
C723 C722 1.373 . S
C723 C739 1.377 . S
C724 C722 1.389 . S
C724 C725 1.524 . S
C724 C738 1.377 . S
C725 C724 1.524 . S
C725 C726 1.397 . S
C725 C730 1.363 . S
C726 H703 0.950 . S
C726 C725 1.397 . S
C726 C727 1.334 . S
C727 H704 0.950 . S
C727 C726 1.334 . S
C727 C728 1.287 . S
C728 C727 1.287 . S
C728 C729 1.524 . S
C728 H747 0.913 . S
C729 H705 0.950 . S
C729 C728 1.524 . S
C729 C730 1.415 . S
C730 H706 0.950 . S
C730 C725 1.363 . S
C730 C729 1.415 . S
C731 H707 0.951 . S
C731 C732 1.366 . S
C731 C733 1.388 . S
C732 C731 1.366 . S
C732 C736 1.385 . S
C733 H708 0.951 . S
C733 C731 1.388 . S
C733 C734 1.366 . S
C734 C733 1.366 . S
C734 C735 1.414 . S
C734 C737 1.499 . S
C735 H709 0.950 . S
C735 C734 1.414 . S
C735 C736 1.374 . S
C736 H710 0.950 . S
C736 C732 1.385 . S
C736 C735 1.374 . S
C737 C734 1.499 . S
C737 C738 1.373 . S
C737 C739 1.389 . S
C738 H711 0.950 . S
C738 C724 1.377 . S
C738 C737 1.373 . S
C739 C723 1.377 . S
C739 C737 1.389 . S
C739 C740 1.524 . S
C740 C739 1.524 . S
C740 C741 1.397 . S
C740 C745 1.363 . S
C741 H712 0.950 . S
C741 C740 1.397 . S
C741 C742 1.334 . S
C742 H713 0.950 . S
C742 C741 1.334 . S
C742 C743 1.287 . S
C743 C742 1.287 . S
C743 C744 1.524 . S
C743 H746 0.999 . S
C744 H714 0.950 . S
C744 C743 1.524 . S
C744 C745 1.415 . S
C745 H715 0.950 . S
C745 C740 1.363 . S
C745 C744 1.415 . S
H746 C743 0.999 . S
H747 C728 0.913 . S
H748 C766 0.951 . S
H749 C768 0.951 . S
H750 C770 0.950 . S
H751 C771 0.950 . S
H752 C773 0.950 . S
H753 C776 0.950 . S
H754 C777 0.950 . S
H755 C779 0.950 . S
H756 C780 0.950 . S
H757 C781 0.951 . S
H758 C783 0.951 . S
H759 C785 0.950 . S
H760 C786 0.950 . S
H761 C788 0.950 . S
H762 C791 0.950 . S
H763 C792 0.950 . S
H764 C794 0.950 . S
H765 C795 0.950 . S
C766 H748 0.951 . S
C766 C767 1.366 . S
C766 C768 1.388 . S
C767 C766 1.366 . S
C767 C771 1.385 . S
C768 H749 0.951 . S
C768 C766 1.388 . S
C768 C769 1.366 . S
C769 C768 1.366 . S
C769 C770 1.414 . S
C769 C772 1.499 . S
C770 H750 0.950 . S
C770 C769 1.414 . S
C770 C771 1.374 . S
C771 H751 0.950 . S
C771 C767 1.385 . S
C771 C770 1.374 . S
C772 C769 1.499 . S
C772 C773 1.373 . S
C772 C774 1.389 . S
C773 H752 0.950 . S
C773 C772 1.373 . S
C773 C789 1.377 . S
C774 C772 1.389 . S
C774 C775 1.524 . S
C774 C788 1.377 . S
C775 C774 1.524 . S
C775 C776 1.397 . S
C775 C780 1.363 . S
C776 H753 0.950 . S
C776 C775 1.397 . S
C776 C777 1.334 . S
C777 H754 0.950 . S
C777 C776 1.334 . S
C777 C778 1.287 . S
C778 C777 1.287 . S
C778 C779 1.524 . S
C778 H797 0.913 . S
C779 H755 0.950 . S
C779 C778 1.524 . S
C779 C780 1.415 . S
C780 H756 0.950 . S
C780 C775 1.363 . S
C780 C779 1.415 . S
C781 H757 0.951 . S
C781 C782 1.366 . S
C781 C783 1.388 . S
C782 C781 1.366 . S
C782 C786 1.385 . S
C783 H758 0.951 . S
C783 C781 1.388 . S
C783 C784 1.366 . S
C784 C783 1.366 . S
C784 C785 1.414 . S
C784 C787 1.499 . S
C785 H759 0.950 . S
C785 C784 1.414 . S
C785 C786 1.374 . S
C786 H760 0.950 . S
C786 C782 1.385 . S
C786 C785 1.374 . S
C787 C784 1.499 . S
C787 C788 1.373 . S
C787 C789 1.389 . S
C788 H761 0.950 . S
C788 C774 1.377 . S
C788 C787 1.373 . S
C789 C773 1.377 . S
C789 C787 1.389 . S
C789 C790 1.524 . S
C790 C789 1.524 . S
C790 C791 1.397 . S
C790 C795 1.363 . S
C791 H762 0.950 . S
C791 C790 1.397 . S
C791 C792 1.334 . S
C792 H763 0.950 . S
C792 C791 1.334 . S
C792 C793 1.287 . S
C793 C792 1.287 . S
C793 C794 1.524 . S
C793 H796 0.999 . S
C794 H764 0.950 . S
C794 C793 1.524 . S
C794 C795 1.415 . S
C795 H765 0.950 . S
C795 C790 1.363 . S
C795 C794 1.415 . S
H796 C793 0.999 . S
H797 C778 0.913 . S
H798 C816 0.951 . S
H799 C818 0.951 . S
H800 C820 0.950 . S
H801 C821 0.950 . S
H802 C823 0.950 1_655 S
H803 C826 0.950 . S
H804 C827 0.950 . S
H805 C829 0.950 . S
H806 C830 0.950 . S
H807 C831 0.951 1_655 S
H808 C833 0.951 1_655 S
H809 C835 0.950 . S
H810 C836 0.950 . S
H811 C838 0.950 . S
H812 C841 0.950 . S
H813 C842 0.950 . S
H814 C844 0.950 . S
H815 C845 0.950 . S
C816 H798 0.951 . S
C816 C817 1.366 . S
C816 C818 1.388 . S
C817 C816 1.366 . S
C817 C821 1.385 1_455 S
C818 H799 0.951 . S
C818 C816 1.388 . S
C818 C819 1.366 . S
C819 C818 1.366 . S
C819 C820 1.414 1_455 S
C819 C822 1.499 . S
C820 H800 0.950 . S
C820 C819 1.414 1_655 S
C820 C821 1.374 . S
C821 H801 0.950 . S
C821 C817 1.385 1_655 S
C821 C820 1.374 . S
C822 C819 1.499 . S
C822 C823 1.373 . S
C822 C824 1.389 . S
C823 H802 0.950 1_455 S
C823 C822 1.373 . S
C823 C839 1.377 1_554 S
C824 C822 1.389 . S
C824 C825 1.524 . S
C824 C838 1.377 1_554 S
C825 C824 1.524 . S
C825 C826 1.397 . S
C825 C830 1.363 . S
C826 H803 0.950 . S
C826 C825 1.397 . S
C826 C827 1.334 . S
C827 H804 0.950 . S
C827 C826 1.334 . S
C827 C828 1.287 . S
C828 C827 1.287 . S
C828 C829 1.524 . S
C828 H847 0.913 . S
C829 H805 0.950 . S
C829 C828 1.524 . S
C829 C830 1.415 . S
C830 H806 0.950 . S
C830 C825 1.363 . S
C830 C829 1.415 . S
C831 H807 0.951 1_455 S
C831 C832 1.366 . S
C831 C833 1.388 . S
C832 C831 1.366 . S
C832 C836 1.385 . S
C833 H808 0.951 1_455 S
C833 C831 1.388 . S
C833 C834 1.366 . S
C834 C833 1.366 . S
C834 C835 1.414 . S
C834 C837 1.499 . S
C835 H809 0.950 . S
C835 C834 1.414 . S
C835 C836 1.374 . S
C836 H810 0.950 . S
C836 C832 1.385 . S
C836 C835 1.374 . S
C837 C834 1.499 . S
C837 C838 1.373 . S
C837 C839 1.389 . S
C838 H811 0.950 . S
C838 C824 1.377 1_556 S
C838 C837 1.373 . S
C839 C823 1.377 1_556 S
C839 C837 1.389 . S
C839 C840 1.524 1_455 S
C840 C839 1.524 1_655 S
C840 C841 1.397 1_655 S
C840 C845 1.363 . S
C841 H812 0.950 . S
C841 C840 1.397 1_455 S
C841 C842 1.334 1_455 S
C842 H813 0.950 . S
C842 C841 1.334 1_655 S
C842 C843 1.287 . S
C843 C842 1.287 . S
C843 C844 1.524 . S
C843 H846 0.999 . S
C844 H814 0.950 . S
C844 C843 1.524 . S
C844 C845 1.415 . S
C845 H815 0.950 . S
C845 C840 1.363 . S
C845 C844 1.415 . S
H846 C843 0.999 . S
H847 C828 0.913 . S
H848 C866 0.951 . S
H849 C868 0.951 . S
H850 C870 0.950 . S
H851 C871 0.950 . S
H852 C873 0.950 . S
H853 C876 0.950 . S
H854 C877 0.950 . S
H855 C879 0.950 . S
H856 C880 0.948 1_545 S
H857 C881 0.951 . S
H858 C883 0.951 . S
H859 C885 0.950 . S
H860 C886 0.950 . S
H861 C888 0.950 1_565 S
H862 C891 0.950 . S
H863 C892 0.950 . S
H864 C894 0.950 . S
H865 C895 0.950 . S
C866 H848 0.951 . S
C866 C867 1.366 . S
C866 C868 1.388 . S
C867 C866 1.366 . S
C867 C871 1.385 . S
C868 H849 0.951 . S
C868 C866 1.388 . S
C868 C869 1.366 . S
C869 C868 1.366 . S
C869 C870 1.414 . S
C869 C872 1.499 . S
C870 H850 0.950 . S
C870 C869 1.414 . S
C870 C871 1.374 . S
C871 H851 0.950 . S
C871 C867 1.385 . S
C871 C870 1.374 . S
C872 C869 1.499 . S
C872 C873 1.373 . S
C872 C874 1.389 . S
C873 H852 0.950 . S
C873 C872 1.373 . S
C873 C889 1.377 . S
C874 C872 1.389 . S
C874 C875 1.524 1_545 S
C874 C888 1.377 . S
C875 C874 1.524 1_565 S
C875 C876 1.397 . S
C875 C880 1.363 . S
C876 H853 0.950 . S
C876 C875 1.397 . S
C876 C877 1.334 . S
C877 H854 0.950 . S
C877 C876 1.334 . S
C877 C878 1.287 . S
C878 C877 1.287 . S
C878 C879 1.524 . S
C878 H897 0.913 . S
C879 H855 0.950 . S
C879 C878 1.524 . S
C879 C880 1.415 . S
C880 H856 0.948 1_565 S
C880 C875 1.363 . S
C880 C879 1.415 . S
C881 H857 0.951 . S
C881 C882 1.366 . S
C881 C883 1.388 . S
C882 C881 1.366 . S
C882 C886 1.385 . S
C883 H858 0.951 . S
C883 C881 1.388 . S
C883 C884 1.366 . S
C884 C883 1.366 . S
C884 C885 1.414 . S
C884 C887 1.499 . S
C885 H859 0.950 . S
C885 C884 1.414 . S
C885 C886 1.374 . S
C886 H860 0.950 . S
C886 C882 1.385 . S
C886 C885 1.374 . S
C887 C884 1.499 . S
C887 C888 1.373 . S
C887 C889 1.389 . S
C888 H861 0.950 1_545 S
C888 C874 1.377 . S
C888 C887 1.373 . S
C889 C873 1.377 . S
C889 C887 1.389 . S
C889 C890 1.524 . S
C890 C889 1.524 . S
C890 C891 1.397 . S
C890 C895 1.363 . S
C891 H862 0.950 . S
C891 C890 1.397 . S
C891 C892 1.334 . S
C892 H863 0.950 . S
C892 C891 1.334 . S
C892 C893 1.287 . S
C893 C892 1.287 . S
C893 C894 1.524 . S
C893 H896 0.999 . S
C894 H864 0.950 . S
C894 C893 1.524 . S
C894 C895 1.415 . S
C895 H865 0.950 . S
C895 C890 1.363 . S
C895 C894 1.415 . S
H896 C893 0.999 . S
H897 C878 0.913 . S
H898 C916 0.951 . S
H899 C918 0.951 . S
H900 C920 0.950 . S
H901 C921 0.950 . S
H902 C923 0.950 . S
H903 C926 0.950 . S
H904 C927 0.950 . S
H905 C929 0.950 . S
H906 C930 0.950 . S
H907 C931 0.951 . S
H908 C933 0.951 . S
H909 C935 0.950 . S
H910 C936 0.950 . S
H911 C938 0.950 . S
H912 C941 0.950 . S
H913 C942 0.950 . S
H914 C944 0.950 . S
H915 C945 0.950 . S
C916 H898 0.951 . S
C916 C917 1.366 . S
C916 C918 1.388 . S
C917 C916 1.366 . S
C917 C921 1.385 . S
C918 H899 0.951 . S
C918 C916 1.388 . S
C918 C919 1.366 . S
C919 C918 1.366 . S
C919 C920 1.414 . S
C919 C922 1.499 . S
C920 H900 0.950 . S
C920 C919 1.414 . S
C920 C921 1.374 . S
C921 H901 0.950 . S
C921 C917 1.385 . S
C921 C920 1.374 . S
C922 C919 1.499 . S
C922 C923 1.373 . S
C922 C924 1.389 . S
C923 H902 0.950 . S
C923 C922 1.373 . S
C923 C939 1.377 . S
C924 C922 1.389 . S
C924 C925 1.524 . S
C924 C938 1.377 . S
C925 C924 1.524 . S
C925 C926 1.397 . S
C925 C930 1.363 . S
C926 H903 0.950 . S
C926 C925 1.397 . S
C926 C927 1.334 . S
C927 H904 0.950 . S
C927 C926 1.334 . S
C927 C928 1.287 . S
C928 C927 1.287 . S
C928 C929 1.524 . S
C928 H947 0.913 . S
C929 H905 0.950 . S
C929 C928 1.524 . S
C929 C930 1.415 . S
C930 H906 0.950 . S
C930 C925 1.363 . S
C930 C929 1.415 . S
C931 H907 0.951 . S
C931 C932 1.366 . S
C931 C933 1.388 . S
C932 C931 1.366 . S
C932 C936 1.385 . S
C933 H908 0.951 . S
C933 C931 1.388 . S
C933 C934 1.366 . S
C934 C933 1.366 . S
C934 C935 1.414 . S
C934 C937 1.499 . S
C935 H909 0.950 . S
C935 C934 1.414 . S
C935 C936 1.374 . S
C936 H910 0.950 . S
C936 C932 1.385 . S
C936 C935 1.374 . S
C937 C934 1.499 . S
C937 C938 1.373 . S
C937 C939 1.389 . S
C938 H911 0.950 . S
C938 C924 1.377 . S
C938 C937 1.373 . S
C939 C923 1.377 . S
C939 C937 1.389 . S
C939 C940 1.524 . S
C940 C939 1.524 . S
C940 C941 1.397 . S
C940 C945 1.363 . S
C941 H912 0.950 . S
C941 C940 1.397 . S
C941 C942 1.334 . S
C942 H913 0.950 . S
C942 C941 1.334 . S
C942 C943 1.287 . S
C943 C942 1.287 . S
C943 C944 1.524 . S
C943 H946 0.999 . S
C944 H914 0.950 . S
C944 C943 1.524 . S
C944 C945 1.415 . S
C945 H915 0.950 . S
C945 C940 1.363 . S
C945 C944 1.415 . S
H946 C943 0.999 . S
H947 C928 0.913 . S
H948 C966 0.951 . S
H949 C968 0.951 . S
H950 C970 0.950 . S
H951 C971 0.950 . S
H952 C973 0.950 . S
H953 C976 0.950 . S
H954 C977 0.950 . S
H955 C979 0.950 . S
H956 C980 0.950 . S
H957 C981 0.951 . S
H958 C983 0.951 . S
H959 C985 0.950 . S
H960 C986 0.950 . S
H961 C988 0.950 1_565 S
H962 C991 0.950 . S
H963 C992 0.950 . S
H964 C994 0.950 . S
H965 C995 0.950 . S
C966 H948 0.951 . S
C966 C967 1.366 . S
C966 C968 1.388 . S
C967 C966 1.366 . S
C967 C971 1.385 . S
C968 H949 0.951 . S
C968 C966 1.388 . S
C968 C969 1.366 . S
C969 C968 1.366 . S
C969 C970 1.414 . S
C969 C972 1.499 . S
C970 H950 0.950 . S
C970 C969 1.414 . S
C970 C971 1.374 . S
C971 H951 0.950 . S
C971 C967 1.385 . S
C971 C970 1.374 . S
C972 C969 1.499 . S
C972 C973 1.373 . S
C972 C974 1.389 . S
C973 H952 0.950 . S
C973 C972 1.373 . S
C973 C989 1.377 . S
C974 C972 1.389 . S
C974 C975 1.524 1_545 S
C974 C988 1.377 . S
C975 C974 1.524 1_565 S
C975 C976 1.397 . S
C975 C980 1.363 . S
C976 H953 0.950 . S
C976 C975 1.397 . S
C976 C977 1.334 . S
C977 H954 0.950 . S
C977 C976 1.334 . S
C977 C978 1.287 . S
C978 C977 1.287 . S
C978 C979 1.524 . S
C978 H997 0.913 . S
C979 H955 0.950 . S
C979 C978 1.524 . S
C979 C980 1.415 . S
C980 H956 0.950 . S
C980 C975 1.363 . S
C980 C979 1.415 . S
C981 H957 0.951 . S
C981 C982 1.366 . S
C981 C983 1.388 . S
C982 C981 1.366 . S
C982 C986 1.385 . S
C983 H958 0.951 . S
C983 C981 1.388 . S
C983 C984 1.366 . S
C984 C983 1.366 . S
C984 C985 1.414 . S
C984 C987 1.499 . S
C985 H959 0.950 . S
C985 C984 1.414 . S
C985 C986 1.374 . S
C986 H960 0.950 . S
C986 C982 1.385 . S
C986 C985 1.374 . S
C987 C984 1.499 . S
C987 C988 1.373 . S
C987 C989 1.389 . S
C988 H961 0.950 1_545 S
C988 C974 1.377 . S
C988 C987 1.373 . S
C989 C973 1.377 . S
C989 C987 1.389 . S
C989 C990 1.524 . S
C990 C989 1.524 . S
C990 C991 1.397 . S
C990 C995 1.363 . S
C991 H962 0.950 . S
C991 C990 1.397 . S
C991 C992 1.334 . S
C992 H963 0.950 . S
C992 C991 1.334 . S
C992 C993 1.287 . S
C993 C992 1.287 . S
C993 C994 1.524 . S
C993 H996 0.999 . S
C994 H964 0.950 . S
C994 C993 1.524 . S
C994 C995 1.415 . S
C995 H965 0.950 . S
C995 C990 1.363 . S
C995 C994 1.415 . S
H996 C993 0.999 . S
H997 C978 0.913 . S
H998 C1016 0.951 . S
H999 C1018 0.951 . S
H1000 C1020 0.950 . S
H1001 C1021 0.950 . S
H1002 C1023 0.950 . S
H1003 C1026 0.950 . S
H1004 C1027 0.950 . S
H1005 C1029 0.950 . S
H1006 C1030 0.950 . S
H1007 C1031 0.951 . S
H1008 C1033 0.951 . S
H1009 C1035 0.950 . S
H1010 C1036 0.950 . S
H1011 C1038 0.950 1_554 S
H1012 C1041 0.950 . S
H1013 C1042 0.950 . S
H1014 C1044 0.950 . S
H1015 C1045 0.977 . S
C1016 H998 0.951 . S
C1016 C1017 1.366 . S
C1016 C1018 1.388 . S
C1017 C1016 1.366 . S
C1017 C1021 1.385 . S
C1018 H999 0.951 . S
C1018 C1016 1.388 . S
C1018 C1019 1.366 . S
C1019 C1018 1.366 . S
C1019 C1020 1.414 . S
C1019 C1022 1.499 . S
C1020 H1000 0.950 . S
C1020 C1019 1.414 . S
C1020 C1021 1.374 . S
C1021 H1001 0.950 . S
C1021 C1017 1.385 . S
C1021 C1020 1.374 . S
C1022 C1019 1.499 . S
C1022 C1023 1.373 . S
C1022 C1024 1.389 . S
C1023 H1002 0.950 . S
C1023 C1022 1.373 . S
C1023 C1039 1.390 . S
C1024 C1022 1.389 . S
C1024 C1025 1.524 . S
C1024 C1038 1.377 . S
C1025 C1024 1.524 . S
C1025 C1026 1.397 . S
C1025 C1030 1.363 . S
C1026 H1003 0.950 . S
C1026 C1025 1.397 . S
C1026 C1027 1.334 . S
C1027 H1004 0.950 . S
C1027 C1026 1.334 . S
C1027 C1028 1.287 . S
C1028 C1027 1.287 . S
C1028 C1029 1.524 . S
C1028 H1047 0.913 . S
C1029 H1005 0.950 . S
C1029 C1028 1.524 . S
C1029 C1030 1.415 . S
C1030 H1006 0.950 . S
C1030 C1025 1.363 . S
C1030 C1029 1.415 . S
C1031 H1007 0.951 . S
C1031 C1032 1.366 . S
C1031 C1033 1.388 . S
C1032 C1031 1.366 . S
C1032 C1036 1.385 . S
C1033 H1008 0.951 . S
C1033 C1031 1.388 . S
C1033 C1034 1.366 . S
C1034 C1033 1.366 . S
C1034 C1035 1.414 . S
C1034 C1037 1.499 . S
C1035 H1009 0.950 . S
C1035 C1034 1.414 . S
C1035 C1036 1.374 . S
C1036 H1010 0.950 . S
C1036 C1032 1.385 . S
C1036 C1035 1.374 . S
C1037 C1034 1.499 . S
C1037 C1038 1.373 1_554 S
C1037 C1039 1.383 1_554 S
C1038 H1011 0.950 1_556 S
C1038 C1024 1.377 . S
C1038 C1037 1.373 1_556 S
C1039 C1023 1.390 . S
C1039 C1037 1.383 1_556 S
C1039 C1040 1.518 1_556 S
C1040 C1039 1.518 1_554 S
C1040 C1041 1.397 . S
C1040 C1045 1.363 . S
C1041 H1012 0.950 . S
C1041 C1040 1.397 . S
C1041 C1042 1.334 . S
C1042 H1013 0.950 . S
C1042 C1041 1.334 . S
C1042 C1043 1.287 . S
C1043 C1042 1.287 . S
C1043 C1044 1.524 . S
C1043 H1046 0.999 . S
C1044 H1014 0.950 . S
C1044 C1043 1.524 . S
C1044 C1045 1.415 . S
C1045 H1015 0.977 . S
C1045 C1040 1.363 . S
C1045 C1044 1.415 . S
H1046 C1043 0.999 . S
H1047 C1028 0.913 . S
H1048 C1066 0.951 . S
H1049 C1068 0.951 . S
H1050 C1070 0.950 . S
H1051 C1071 0.956 . S
H1052 C1073 0.950 . S
H1053 C1076 0.950 . S
H1054 C1077 0.950 . S
H1055 C1079 0.950 . S
H1056 C1080 0.950 . S
H1057 C1081 0.951 . S
H1058 C1083 0.951 . S
H1059 C1085 0.950 . S
H1060 C1086 0.950 . S
H1061 C1088 0.950 . S
H1062 C1091 0.950 . S
H1063 C1092 0.950 . S
H1064 C1094 0.950 . S
H1065 C1095 0.950 . S
C1066 H1048 0.951 . S
C1066 C1067 1.366 . S
C1066 C1068 1.388 1_655 S
C1067 C1066 1.366 . S
C1067 C1071 1.368 1_655 S
C1068 H1049 0.951 . S
C1068 C1066 1.388 1_455 S
C1068 C1069 1.366 . S
C1069 C1068 1.366 . S
C1069 C1070 1.414 . S
C1069 C1072 1.499 . S
C1070 H1050 0.950 . S
C1070 C1069 1.414 . S
C1070 C1071 1.375 . S
C1071 H1051 0.956 . S
C1071 C1067 1.368 1_455 S
C1071 C1070 1.375 . S
C1072 C1069 1.499 . S
C1072 C1073 1.373 1_455 S
C1072 C1074 1.389 . S
C1073 H1052 0.950 . S
C1073 C1072 1.373 1_655 S
C1073 C1089 1.377 . S
C1074 C1072 1.389 . S
C1074 C1075 1.524 . S
C1074 C1088 1.377 . S
C1075 C1074 1.524 . S
C1075 C1076 1.397 . S
C1075 C1080 1.363 . S
C1076 H1053 0.950 . S
C1076 C1075 1.397 . S
C1076 C1077 1.334 . S
C1077 H1054 0.950 . S
C1077 C1076 1.334 . S
C1077 C1078 1.287 . S
C1078 C1077 1.287 . S
C1078 C1079 1.524 . S
C1078 H1097 0.913 . S
C1079 H1055 0.950 . S
C1079 C1078 1.524 . S
C1079 C1080 1.415 . S
C1080 H1056 0.950 . S
C1080 C1075 1.363 . S
C1080 C1079 1.415 . S
C1081 H1057 0.951 . S
C1081 C1082 1.366 . S
C1081 C1083 1.388 . S
C1082 C1081 1.366 . S
C1082 C1086 1.385 . S
C1083 H1058 0.951 . S
C1083 C1081 1.388 . S
C1083 C1084 1.366 . S
C1084 C1083 1.366 . S
C1084 C1085 1.414 . S
C1084 C1087 1.499 . S
C1085 H1059 0.950 . S
C1085 C1084 1.414 . S
C1085 C1086 1.374 . S
C1086 H1060 0.950 . S
C1086 C1082 1.385 . S
C1086 C1085 1.374 . S
C1087 C1084 1.499 . S
C1087 C1088 1.373 . S
C1087 C1089 1.389 1_455 S
C1088 H1061 0.950 . S
C1088 C1074 1.377 . S
C1088 C1087 1.373 . S
C1089 C1073 1.377 . S
C1089 C1087 1.389 1_655 S
C1089 C1090 1.524 . S
C1090 C1089 1.524 . S
C1090 C1091 1.397 . S
C1090 C1095 1.363 . S
C1091 H1062 0.950 . S
C1091 C1090 1.397 . S
C1091 C1092 1.334 . S
C1092 H1063 0.950 . S
C1092 C1091 1.334 . S
C1092 C1093 1.287 . S
C1093 C1092 1.287 . S
C1093 C1094 1.524 . S
C1093 H1096 0.999 . S
C1094 H1064 0.950 . S
C1094 C1093 1.524 . S
C1094 C1095 1.415 . S
C1095 H1065 0.950 . S
C1095 C1090 1.363 . S
C1095 C1094 1.415 . S
H1096 C1093 0.999 . S
H1097 C1078 0.913 . S
C217 C6 0.268 . S
C232 N187 0.277 . S
C267 C59 1.752 . S
C282 N160 1.757 1_655 S
C317 C86 1.068 . S
C332 N173 1.066 . S
C367 C15 0.605 . S
C382 N186 0.581 . S
C432 N161 1.975 . S
C417 C50 1.954 . S
C482 N174 1.305 . S
C467 C95 1.296 . S
C517 C46 1.017 . S
C532 N134 1.016 . S
C567 C99 2.738 . S
C582 N148 2.704 1_655 S
C617 C10 1.964 . S
C632 N122 1.993 . S
C682 N135 1.347 . S
C667 C55 1.332 . S
C732 N147 3.328 . S
C717 C90 3.271 . S
C767 C19 1.746 . S
C782 N121 1.760 . S
C832 N151 1.731 . S
C817 C18 1.700 . S
C867 C49 1.469 . S
C882 N125 1.487 . S
C917 C98 1.498 . S
C932 N138 1.583 . S
C982 N177 1.547 . S
C967 C58 1.473 . S
C1032 N190 1.285 . S
C1017 C89 1.285 . S
C1067 C9 1.442 1_655 S
C1082 N164 1.472 . S
