# Generated by pormake.
# Topology anh, (6,3)-cn, num edge types: 1
# Building blocks:
#     Node 0, Type 0, BuildingBlock: BETDIP_clean_sbu_0, # of connection points: 6
#     Node 1, Type 0, BuildingBlock: BETDIP_clean_sbu_0, # of connection points: 6
#     Node 2, Type 0, BuildingBlock: BETDIP_clean_sbu_0, # of connection points: 6
#     Node 3, Type 1, BuildingBlock: VETTIZ_charged_linker_0, # of connection points: 3
#     Node 4, Type 1, BuildingBlock: VETTIZ_charged_linker_0, # of connection points: 3
#     Node 5, Type 1, BuildingBlock: VETTIZ_charged_linker_0, # of connection points: 3
#     Node 6, Type 1, BuildingBlock: VETTIZ_charged_linker_0, # of connection points: 3
#     Node 7, Type 1, BuildingBlock: VETTIZ_charged_linker_0, # of connection points: 3
#     Node 8, Type 1, BuildingBlock: VETTIZ_charged_linker_0, # of connection points: 3
#     Edge 9, Type (0, 1), BuildingBlock: MIFKUJ_clean_linker_0, # of connection points: 2
#     Edge 10, Type (0, 1), BuildingBlock: MIFKUJ_clean_linker_0, # of connection points: 2
#     Edge 11, Type (0, 1), BuildingBlock: MIFKUJ_clean_linker_0, # of connection points: 2
#     Edge 12, Type (0, 1), BuildingBlock: MIFKUJ_clean_linker_0, # of connection points: 2
#     Edge 13, Type (0, 1), BuildingBlock: MIFKUJ_clean_linker_0, # of connection points: 2
#     Edge 14, Type (0, 1), BuildingBlock: MIFKUJ_clean_linker_0, # of connection points: 2
#     Edge 15, Type (0, 1), BuildingBlock: MIFKUJ_clean_linker_0, # of connection points: 2
#     Edge 16, Type (0, 1), BuildingBlock: MIFKUJ_clean_linker_0, # of connection points: 2
#     Edge 17, Type (0, 1), BuildingBlock: MIFKUJ_clean_linker_0, # of connection points: 2
#     Edge 18, Type (0, 1), BuildingBlock: MIFKUJ_clean_linker_0, # of connection points: 2
#     Edge 19, Type (0, 1), BuildingBlock: MIFKUJ_clean_linker_0, # of connection points: 2
#     Edge 20, Type (0, 1), BuildingBlock: MIFKUJ_clean_linker_0, # of connection points: 2
#     Edge 21, Type (0, 1), BuildingBlock: MIFKUJ_clean_linker_0, # of connection points: 2
#     Edge 22, Type (0, 1), BuildingBlock: MIFKUJ_clean_linker_0, # of connection points: 2
#     Edge 23, Type (0, 1), BuildingBlock: MIFKUJ_clean_linker_0, # of connection points: 2
#     Edge 24, Type (0, 1), BuildingBlock: MIFKUJ_clean_linker_0, # of connection points: 2
#     Edge 25, Type (0, 1), BuildingBlock: MIFKUJ_clean_linker_0, # of connection points: 2
#     Edge 26, Type (0, 1), BuildingBlock: MIFKUJ_clean_linker_0, # of connection points: 2
# Relax obj value: 0.210
# Max RMSD: 0.181
# Mean RMSD: 0.153
data_MOF--net-anh--node1-BETDIP_clean_sbu_0--node2-VETTIZ_charged_linker_0--edge1-MIFKUJ_clean_linker_0
_symmetry_space_group_name_H-M    P1
_symmetry_Int_Tables_number       1
_symmetry_cell_setting            triclinic
loop_
_symmetry_equiv_pos_as_xyz
'x, y, z'
_cell_length_a     46.706451
_cell_length_b     46.740008
_cell_length_c     82.721256
_cell_angle_alpha  90.033042
_cell_angle_beta   89.957526
_cell_angle_gamma 119.61703
loop_
_atom_site_label
_atom_site_type_symbol
_atom_site_fract_x
_atom_site_fract_y
_atom_site_fract_z
_atom_type_partial_charge
Tb0 Tb 0.08595 0.57815 0.16894 0.0
Tb1 Tb 0.05323 0.50829 0.16339 0.0
C2 C 0.12332 0.63383 0.18067 0.0
C3 C 0.1582 0.65693 0.17776 0.0
C4 C 0.17588 0.68296 0.18846 0.0
C5 C 0.20862 0.70606 0.18513 0.0
C6 C 0.22404 0.70345 0.171 0.0
C7 C 0.20645 0.67664 0.16058 0.0
C8 C 0.17376 0.65355 0.16394 0.0
C9 C 0.07385 0.56244 0.13852 0.0
C10 C 0.13209 0.5428 0.16284 0.0
C11 C 1.0158 0.45298 0.15126 0.0
C12 C 0.98027 0.43755 0.14811 0.0
C13 C 0.9674 0.42353 0.13295 0.0
C14 C 0.93467 0.41395 0.12904 0.0
C15 C 0.91488 0.41896 0.14017 0.0
C16 C 0.92754 0.4319 0.15547 0.0
C17 C 0.95985 0.44111 0.15942 0.0
C18 C 0.06463 0.52432 0.19442 0.0
C19 C 1.00784 0.54487 0.16512 0.0
O20 O 0.1168 0.60638 0.18795 0.0
O21 O 0.10417 0.6289 0.16824 0.0
O22 O 0.08364 0.54918 0.14871 0.0
O23 O 0.07336 0.58744 0.14492 0.0
O24 O 0.13032 0.57011 0.16608 0.0
O25 O 0.10387 0.51467 0.16076 0.0
O26 O 1.03374 0.4793 0.14262 0.0
O27 O 1.02475 0.45716 0.16646 0.0
O28 O 0.05488 0.53752 0.18401 0.0
O29 O 0.06663 0.50036 0.1876 0.0
O30 O 1.0101 0.5181 0.16147 0.0
O31 O 1.03506 0.5716 0.17018 0.0
H32 H 0.16424 0.68569 0.19924 0.0
H33 H 0.2218 0.72614 0.19355 0.0
H34 H 0.21754 0.67409 0.14957 0.0
H35 H 0.16037 0.63351 0.15553 0.0
H36 H 0.98292 0.42097 0.12399 0.0
H37 H 0.92513 0.40352 0.11724 0.0
H38 H 0.91241 0.43514 0.16438 0.0
H39 H 0.96911 0.45211 0.17115 0.0
Tb40 Tb 0.59283 0.03502 0.49913 0.0
Tb41 Tb 0.55469 0.06727 0.49693 0.0
C42 C 0.6141 0.9975 0.50767 0.0
C43 C 0.60315 0.96248 0.50488 0.0
C44 C 0.57093 0.93773 0.50856 0.0
C45 C 0.56092 0.90479 0.50525 0.0
C46 C 0.58283 0.89602 0.49809 0.0
C47 C 0.61487 0.92098 0.49421 0.0
C48 C 0.62495 0.95383 0.49765 0.0
C49 C 0.58589 0.05001 0.46952 0.0
C50 C 0.51112 0.98856 0.49481 0.0
C51 C 0.53404 0.10565 0.48885 0.0
C52 C 0.55231 0.14081 0.48465 0.0
C53 C 0.54211 0.15282 0.47161 0.0
C54 C 0.56122 0.18563 0.46669 0.0
C55 C 0.59104 0.20645 0.47455 0.0
C56 C 0.60092 0.19452 0.4877 0.0
C57 C 0.5817 0.16205 0.49275 0.0
C58 C 0.56156 0.0518 0.52698 0.0
C59 C 0.63627 0.11298 0.49633 0.0
O60 O 0.59557 1.0045 0.51692 0.0
O61 O 0.62439 1.01605 0.49479 0.0
O62 O 0.56402 0.03874 0.48027 0.0
O63 O 0.61244 0.05107 0.47482 0.0
O64 O 0.54058 0.99038 0.49704 0.0
O65 O 0.51072 1.01689 0.4938 0.0
O66 O 0.53768 0.0863 0.47866 0.0
O67 O 0.53626 0.09826 0.50387 0.0
O68 O 0.58399 0.06401 0.51632 0.0
O69 O 0.53453 0.04845 0.5209 0.0
O70 O 0.6069 0.10999 0.49274 0.0
O71 O 0.63635 0.08595 0.50145 0.0
H72 H 0.55346 0.94371 0.51402 0.0
H73 H 0.53623 0.88619 0.50863 0.0
H74 H 0.63222 0.91518 0.48845 0.0
H75 H 0.64978 0.97258 0.49453 0.0
H76 H 0.51961 0.13675 0.46516 0.0
H77 H 0.55298 0.19466 0.45667 0.0
H78 H 0.62345 0.21049 0.49418 0.0
H79 H 0.59015 0.1535 0.50287 0.0
Tb80 Tb 0.54325 0.52792 0.83572 0.0
Tb81 Tb 0.61317 0.56425 0.83041 0.0
C82 C 0.48742 0.51081 0.84709 0.0
C83 C 0.46533 0.52439 0.84423 0.0
C84 C 0.47563 0.55769 0.84732 0.0
C85 C 0.45641 0.57134 0.84232 0.0
C86 C 0.42654 0.55191 0.83419 0.0
C87 C 0.41582 0.51839 0.83158 0.0
C88 C 0.43502 0.50477 0.83657 0.0
C89 C 0.55855 0.52869 0.80534 0.0
C90 C 0.5785 0.60868 0.82901 0.0
C91 C 0.67166 0.5845 0.82159 0.0
C92 C 0.68787 0.56782 0.81394 0.0
C93 C 0.71354 0.58467 0.80283 0.0
C94 C 0.72972 0.56909 0.79602 0.0
C95 C 0.71983 0.53626 0.79998 0.0
C96 C 0.69341 0.51918 0.81066 0.0
C97 C 0.67786 0.53492 0.81771 0.0
C98 C 0.59526 0.56128 0.86119 0.0
C99 C 0.57627 0.48322 0.83097 0.0
O100 O 0.51478 0.5295 0.85497 0.0
O101 O 0.49222 0.49682 0.83449 0.0
O102 O 0.57265 0.55243 0.81507 0.0
O103 O 0.53251 0.50504 0.81194 0.0
O104 O 0.55161 0.58035 0.83323 0.0
O105 O 0.60633 0.60795 0.82637 0.0
O106 O 0.65 0.58716 0.81272 0.0
O107 O 0.66117 0.57537 0.83636 0.0
O108 O 0.58365 0.53793 0.8511 0.0
O109 O 0.61776 0.58741 0.85407 0.0
O110 O 0.60113 0.51153 0.82534 0.0
O111 O 0.55139 0.48461 0.83818 0.0
H112 H 0.49888 0.57344 0.85324 0.0
H113 H 0.46519 0.5972 0.84455 0.0
H114 H 0.39245 0.50258 0.82574 0.0
H115 H 0.42656 0.47906 0.83406 0.0
H116 H 0.72156 0.61005 0.79974 0.0
H117 H 0.75038 0.58283 0.78797 0.0
H118 H 0.68594 0.49416 0.81426 0.0
H119 H 0.65872 0.52157 0.82651 0.0
C120 C 0.61226 0.19216 0.19689 0.0
C121 C 0.63068 0.22362 0.20371 0.0
C122 C 0.63132 0.22694 0.22068 0.0
C123 C 0.59764 0.16768 0.22357 0.0
C124 C 0.59663 0.16477 0.20694 0.0
C125 C 0.57926 0.12971 0.20135 0.0
H126 H 0.48903 0.96835 0.21852 0.0
C127 C 0.57976 0.13404 0.23038 0.0
C128 C 0.56915 0.11184 0.21736 0.0
H129 H 0.52279 1.01421 0.17181 0.0
H130 H 0.5522 0.06758 0.18447 0.0
H131 H 0.56034 1.01393 0.23678 0.0
H132 H 0.47101 1.01876 0.23275 0.0
H133 H 0.48557 0.03108 0.25251 0.0
H134 H 0.47424 0.99 0.24592 0.0
H135 H 0.52278 0.98547 0.24676 0.0
H136 H 0.55179 1.02402 0.25597 0.0
C137 C 0.60445 0.12301 0.19221 0.0
C138 C 0.54909 0.12409 0.19115 0.0
C139 C 0.56738 0.11585 0.29124 0.0
C140 C 0.55043 0.08732 0.30072 0.0
C141 C 0.53218 0.05657 0.29306 0.0
C142 C 0.53137 0.0541 0.27619 0.0
C143 C 0.54884 0.08269 0.26685 0.0
C144 C 0.56597 0.113 0.27435 0.0
C145 C 0.58187 0.14077 0.26235 0.0
C146 C 0.57212 0.12199 0.24647 0.0
C147 C 0.5531 0.08796 0.24924 0.0
C148 C 0.61958 0.15868 0.26504 0.0
C149 C 0.56617 0.163 0.26439 0.0
C150 C 0.50309 0.98998 0.2111 0.0
C151 C 0.50366 0.98736 0.19419 0.0
C152 C 0.52233 1.01579 0.18487 0.0
C153 C 0.53913 0.04673 0.19225 0.0
C154 C 0.53742 0.04916 0.20914 0.0
C155 C 0.52028 1.02102 0.2183 0.0
C156 C 0.52193 0.02831 0.23609 0.0
C157 C 0.54251 0.06559 0.23606 0.0
C158 C 0.55107 0.07754 0.22024 0.0
C159 C 0.53991 1.01201 0.24448 0.0
C160 C 0.48644 1.0163 0.24229 0.0
H161 H 0.6167 0.20306 0.24349 0.0
H162 H 0.61089 0.18866 0.18391 0.0
H163 H 0.53647 0.13644 0.19684 0.0
H164 H 0.53007 0.09794 0.19016 0.0
H165 H 0.55672 0.13433 0.17879 0.0
H166 H 0.63018 0.14021 0.19607 0.0
H167 H 0.6032 0.12595 0.17895 0.0
H168 H 0.60101 0.09826 0.19475 0.0
H169 H 0.58127 0.13983 0.29685 0.0
H170 H 0.51912 0.03428 0.30015 0.0
H171 H 0.51732 0.02995 0.2711 0.0
H172 H 0.62799 0.14069 0.26776 0.0
H173 H 0.62679 0.17609 0.27537 0.0
H174 H 0.63367 0.17215 0.25424 0.0
H175 H 0.53939 0.14797 0.26706 0.0
H176 H 0.5676 0.17681 0.25332 0.0
H177 H 0.5778 0.18062 0.27452 0.0
H178 H 0.64564 0.25086 0.22628 0.0
C179 C 0.61478 0.19911 0.23066 0.0
C180 C 0.58716 0.60163 0.5349 0.0
C181 C 0.56691 0.61211 0.54244 0.0
C182 C 0.55963 0.60547 0.55903 0.0
C183 C 0.59449 0.58079 0.56052 0.0
C184 C 0.60055 0.58601 0.54414 0.0
C185 C 0.62268 0.57346 0.53807 0.0
H186 H 0.70692 0.49339 0.55325 0.0
C187 C 0.6133 0.56542 0.56672 0.0
C188 C 0.62974 0.56088 0.55365 0.0
H189 H 0.68649 0.52307 0.50708 0.0
H190 H 0.66159 0.5508 0.52056 0.0
H191 H 0.72518 0.56288 0.57295 0.0
H192 H 0.63705 0.46879 0.56761 0.0
H193 H 0.64048 0.48058 0.58801 0.0
H194 H 0.67193 0.47403 0.5791 0.0
H195 H 0.72004 0.52654 0.58292 0.0
H196 H 0.70527 0.55213 0.59181 0.0
C197 C 0.65425 0.60289 0.53103 0.0
C198 C 0.60288 0.54532 0.52583 0.0
C199 C 0.61122 0.5425 0.62669 0.0
C200 C 0.62648 0.5291 0.63629 0.0
C201 C 0.64748 0.51935 0.62885 0.0
C202 C 0.65287 0.52261 0.61208 0.0
C203 C 0.6371 0.53576 0.60265 0.0
C204 C 0.61683 0.54558 0.61003 0.0
C205 C 0.60242 0.55944 0.59826 0.0
C206 C 0.61735 0.55634 0.58255 0.0
C207 C 0.63757 0.54239 0.58514 0.0
C208 C 0.61495 0.59589 0.60286 0.0
C209 C 0.5644 0.53728 0.59849 0.0
C210 C 0.69739 0.50615 0.54605 0.0
C211 C 0.69862 0.50578 0.52903 0.0
C212 C 0.68635 0.5232 0.52017 0.0
C213 C 0.6713 0.53885 0.52802 0.0
C214 C 0.66808 0.53684 0.54492 0.0
C215 C 0.6817 0.5214 0.5537 0.0
C216 C 0.67473 0.52063 0.57152 0.0
C217 C 0.65365 0.53705 0.57186 0.0
C218 C 0.64995 0.54652 0.55624 0.0
C219 C 0.70792 0.54138 0.58039 0.0
C220 C 0.65521 0.4842 0.577 0.0
H221 H 0.56721 0.58613 0.58069 0.0
H222 H 0.59341 0.60642 0.52221 0.0
H223 H 0.57598 0.53284 0.52838 0.0
H224 H 0.6091 0.52539 0.52647 0.0
H225 H 0.60658 0.5548 0.51325 0.0
H226 H 0.66252 0.62511 0.53875 0.0
H227 H 0.64977 0.60917 0.51869 0.0
H228 H 0.67536 0.59845 0.5306 0.0
H229 H 0.59544 0.55084 0.63204 0.0
H230 H 0.65939 0.50877 0.63597 0.0
H231 H 0.66893 0.51456 0.60711 0.0
H232 H 0.64108 0.60797 0.60688 0.0
H233 H 0.60019 0.59781 0.6129 0.0
H234 H 0.61482 0.61094 0.59262 0.0
H235 H 0.55711 0.51135 0.60148 0.0
H236 H 0.55302 0.53575 0.58657 0.0
H237 H 0.55297 0.54593 0.60764 0.0
H238 H 0.54355 0.61263 0.56508 0.0
C239 C 0.57334 0.58999 0.56809 0.0
C240 C 0.11901 0.5208 0.86573 0.0
C241 C 0.15018 0.53661 0.87303 0.0
C242 C 0.15248 0.53983 0.88999 0.0
C243 C 0.09302 0.51179 0.89206 0.0
C244 C 0.09089 0.50854 0.87544 0.0
C245 C 0.0559 0.49064 0.8696 0.0
H246 H 0.89512 0.43326 0.88456 0.0
C247 C 0.05921 0.49691 0.89852 0.0
C248 C 1.03737 0.48445 0.88546 0.0
H249 H 0.94265 0.43582 0.83924 0.0
H250 H 0.99392 0.45396 0.85299 0.0
H251 H 0.9359 0.40226 0.90579 0.0
H252 H 0.95089 0.50028 0.8987 0.0
H253 H 0.95731 0.49538 0.91923 0.0
H254 H 0.91722 0.46992 0.91046 0.0
H255 H 0.90861 0.41518 0.91414 0.0
H256 H 0.94572 0.4229 0.92448 0.0
C257 C 0.04951 0.45813 0.86138 0.0
C258 C 0.05078 0.51435 0.85843 0.0
C259 C 0.04217 0.50116 0.9587 0.0
C260 C 1.01454 0.49353 0.96839 0.0
C261 C 0.98337 0.48021 0.96088 0.0
C262 C 0.97996 0.47479 0.9441 0.0
C263 C 1.00802 0.48307 0.93465 0.0
C264 C 1.03846 0.49628 0.94201 0.0
C265 C 0.06598 0.50565 0.93014 0.0
C266 C 0.04699 0.49487 0.91442 0.0
C267 C 1.013 0.48139 0.91707 0.0
C268 C 0.08316 0.48534 0.93399 0.0
C269 C 0.08893 0.54353 0.93097 0.0
C270 C 0.91658 0.43741 0.87769 0.0
C271 C 0.91488 0.43329 0.86077 0.0
C272 C 0.94317 0.43846 0.85226 0.0
C273 C 0.97312 0.44949 0.86025 0.0
C274 C 0.97499 0.45564 0.87692 0.0
C275 C 0.94685 0.44837 0.88553 0.0
C276 C 0.95375 0.45535 0.90333 0.0
C277 C 0.99082 0.46908 0.90379 0.0
C278 C 1.00301 0.46973 0.88819 0.0
C279 C 0.93494 0.42236 0.91255 0.0
C280 C 0.94416 0.48143 0.90835 0.0
H281 H 0.12742 0.53062 0.91238 0.0
H282 H 0.1165 0.51731 0.85275 0.0
H283 H 0.06229 0.53945 0.86379 0.0
H284 H 1.02469 0.50708 0.8566 0.0
H285 H 0.06226 0.51637 0.84641 0.0
H286 H 0.06705 0.45015 0.86566 0.0
H287 H 0.05213 0.4609 0.84804 0.0
H288 H 1.02487 0.43721 0.86433 0.0
H289 H 0.06647 0.51091 0.96391 0.0
H290 H 0.96162 0.47454 0.9679 0.0
H291 H 0.95569 0.46487 0.9391 0.0
H292 H 0.06468 0.45957 0.9372 0.0
H293 H 0.10029 0.49606 0.94438 0.0
H294 H 0.09684 0.48325 0.92359 0.0
H295 H 0.0754 0.55621 0.93514 0.0
H296 H 0.09892 0.5546 0.91903 0.0
H297 H 0.10966 0.55022 0.93949 0.0
H298 H 0.17632 0.55193 0.89587 0.0
C299 C 0.12408 0.52751 0.89954 0.0
C300 C 0.98556 0.46386 0.47461 0.0
C301 C 0.95757 0.43709 0.46609 0.0
C302 C 0.95952 0.43943 0.44912 0.0
C303 C 1.01301 0.4911 0.44908 0.0
C304 C 1.01304 0.49097 0.46578 0.0
C305 C 0.04505 0.52294 0.47157 0.0
H306 H 0.19498 0.66544 0.44432 0.0
C307 C 0.04359 0.52105 0.44271 0.0
C308 C 0.06365 0.54106 0.45569 0.0
H309 H 0.16727 0.64895 0.49445 0.0
H310 H 0.11569 0.59739 0.48711 0.0
H311 H 0.17254 0.59215 0.43408 0.0
H312 H 0.12649 0.65193 0.43334 0.0
H313 H 0.11264 0.62819 0.41575 0.0
H314 H 0.15618 0.6561 0.41844 0.0
H315 H 0.18416 0.62577 0.4203 0.0
H316 H 0.15236 0.58458 0.41539 0.0
C317 C 0.06654 0.51343 0.48174 0.0
C318 C 1.03525 0.54473 0.48132 0.0
C319 C 0.05547 0.53104 0.38093 0.0
C320 C 0.07905 0.55476 0.37039 0.0
C321 C 0.10666 0.58198 0.37735 0.0
C322 C 0.11073 0.58555 0.39423 0.0
C323 C 0.08676 0.56193 0.40466 0.0
C324 C 0.05971 0.53532 0.39787 0.0
C325 C 1.03639 0.51304 0.41066 0.0
C326 C 0.05377 0.53042 0.42632 0.0
C327 C 0.08342 0.55906 0.42276 0.0
C328 C 1.0344 0.479 0.40888 0.0
C329 C 1.0032 0.51274 0.40844 0.0
C330 C 0.17856 0.6511 0.45402 0.0
C331 C 0.18706 0.66255 0.4701 0.0
C332 C 0.16277 0.64197 0.48184 0.0
C333 C 0.1326 0.61174 0.47762 0.0
C334 C 0.12493 0.6011 0.46126 0.0
C335 C 0.14834 0.62187 0.45001 0.0
C336 C 0.13721 0.61065 0.43311 0.0
C337 C 0.10417 0.57947 0.43549 0.0
C338 C 0.09538 0.57194 0.45212 0.0
C339 C 0.16285 0.60306 0.42515 0.0
C340 C 0.13309 0.63804 0.42458 0.0
H341 H 0.98442 0.46367 0.428 0.0
H342 H 0.98576 0.46402 0.48769 0.0
H343 H 1.01941 0.5512 0.47392 0.0
H344 H 0.05737 0.5679 0.48507 0.0
H345 H 1.02134 0.53167 0.49235 0.0
H346 H 0.07327 0.49743 0.47463 0.0
H347 H 0.05312 0.49981 0.49276 0.0
H348 H 0.08959 0.53571 0.48551 0.0
H349 H 1.03377 0.50988 0.37612 0.0
H350 H 0.12553 0.60047 0.36968 0.0
H351 H 0.13263 0.60675 0.39846 0.0
H352 H 0.05809 0.48169 0.40442 0.0
H353 H 1.01493 0.46306 0.40016 0.0
H354 H 1.03015 0.46584 0.4205 0.0
H355 H 1.00702 0.53626 0.40314 0.0
H356 H 0.99048 0.51068 0.42003 0.0
H357 H 0.98637 0.49256 0.40025 0.0
H358 H 0.9399 0.42057 0.44191 0.0
C359 C 0.98615 0.4652 0.44087 0.0
C360 C 0.57501 0.95737 0.8066 0.0
C361 C 0.5756 0.93032 0.79795 0.0
C362 C 0.57508 0.93241 0.78097 0.0
C363 C 0.57495 0.98512 0.78119 0.0
C364 C 0.5749 0.98481 0.7979 0.0
C365 C 0.57478 1.01673 0.80388 0.0
H366 H 0.58445 0.16848 0.77799 0.0
C367 C 0.57578 1.01598 0.77498 0.0
C368 C 0.57586 0.03585 0.78811 0.0
H369 H 0.57014 0.13778 0.82775 0.0
H370 H 0.57028 0.08631 0.81988 0.0
H371 H 0.63612 0.14642 0.76886 0.0
H372 H 0.53113 0.10137 0.76512 0.0
H373 H 0.54355 0.09051 0.74729 0.0
H374 H 0.55854 0.13339 0.75171 0.0
H375 H 0.61625 0.15854 0.75399 0.0
H376 H 0.62615 0.12638 0.7501 0.0
C377 C 0.60524 0.03756 0.81436 0.0
C378 C 0.54298 1.00688 0.81337 0.0
C379 C 0.57783 0.02975 0.71325 0.0
C380 C 0.58177 0.05563 0.703 0.0
C381 C 0.58562 0.08463 0.71027 0.0
C382 C 0.58513 0.08772 0.72718 0.0
C383 C 0.58106 0.06167 0.73732 0.0
C384 C 0.57802 0.03353 0.73025 0.0
C385 C 0.57608 1.0093 0.74282 0.0
C386 C 0.57718 0.02683 0.75866 0.0
C387 C 0.57977 0.05743 0.75537 0.0
C388 C 0.60697 1.00524 0.7407 0.0
C389 C 0.54259 0.97725 0.74062 0.0
C390 C 0.58173 0.15145 0.78752 0.0
C391 C 0.57784 0.15903 0.80365 0.0
C392 C 0.57335 0.13397 0.81512 0.0
C393 C 0.57349 0.10387 0.81059 0.0
C394 C 0.57748 0.0972 0.7942 0.0
C395 C 0.58102 0.12141 0.78321 0.0
C396 C 0.58275 0.11153 0.76622 0.0
C397 C 0.57996 0.07788 0.76826 0.0
C398 C 0.57742 0.06805 0.78478 0.0
C399 C 0.61689 0.13702 0.75928 0.0
C400 C 0.55272 0.10924 0.75696 0.0
H401 H 0.574 0.95688 0.75996 0.0
H402 H 0.57528 0.95752 0.81968 0.0
H403 H 0.52108 0.99146 0.80574 0.0
H404 H 0.54171 0.02894 0.81723 0.0
H405 H 0.54173 0.99252 0.82431 0.0
H406 H 0.6281 0.04424 0.80743 0.0
H407 H 0.605 1.02369 0.82532 0.0
H408 H 0.60593 0.06063 0.81825 0.0
H409 H 0.57537 1.00728 0.70816 0.0
H410 H 0.58853 0.10493 0.7028 0.0
H411 H 0.5879 0.11046 0.73167 0.0
H412 H 0.62769 0.02723 0.73491 0.0
H413 H 0.60153 0.98366 0.733 0.0
H414 H 0.61725 1.003 0.75238 0.0
H415 H 0.523 0.98293 0.73699 0.0
H416 H 0.5333 0.96291 0.75191 0.0
H417 H 0.54414 0.96132 0.73109 0.0
H418 H 0.57491 0.91308 0.77365 0.0
C419 C 0.57459 0.95858 0.77284 0.0
C420 C 0.65764 0.54426 0.14155 0.0
C421 C 0.68605 0.54599 0.13317 0.0
C422 C 0.68507 0.54754 0.1162 0.0
C423 C 0.63159 0.5462 0.11592 0.0
C424 C 0.63068 0.54473 0.13261 0.0
C425 C 0.59818 0.54389 0.13835 0.0
H426 H 0.45688 0.55445 0.11191 0.0
C427 C 0.60153 0.54674 0.10949 0.0
C428 C 0.58094 0.54578 0.12247 0.0
H429 H 0.47188 0.53778 0.16153 0.0
H430 H 0.52387 0.53846 0.15386 0.0
H431 H 0.53058 0.60578 0.1027 0.0
H432 H 0.47092 0.50094 0.0992 0.0
H433 H 0.49504 0.51251 0.08169 0.0
H434 H 0.46713 0.52816 0.08521 0.0
H435 H 0.49799 0.58578 0.08823 0.0
H436 H 0.5396 0.59527 0.08376 0.0
C437 C 0.60663 0.57361 0.14926 0.0
C438 C 0.57632 0.51147 0.14729 0.0
C439 C 0.59086 0.54862 0.0477 0.0
C440 C 0.56792 0.55058 0.03723 0.0
C441 C 0.54211 0.55366 0.04444 0.0
C442 C 0.53867 0.55386 0.06133 0.0
C443 C 0.56128 0.55113 0.07159 0.0
C444 C 0.58709 0.54907 0.06468 0.0
C445 C 0.60963 0.54794 0.07739 0.0
C446 C 0.59245 0.54828 0.09312 0.0
C447 C 0.56403 0.55008 0.08965 0.0
C448 C 0.64372 0.57954 0.07547 0.0
C449 C 0.60996 0.51512 0.07521 0.0
C450 C 0.47102 0.55133 0.12142 0.0
C451 C 0.45914 0.54665 0.13748 0.0
C452 C 0.47935 0.54165 0.14897 0.0
C453 C 0.50978 0.5421 0.14455 0.0
C454 C 0.52087 0.54678 0.12824 0.0
C455 C 0.50045 0.55068 0.1172 0.0
C456 C 0.51225 0.55238 0.10024 0.0
C457 C 0.54327 0.54981 0.10242 0.0
C458 C 0.55022 0.54706 0.11896 0.0
C459 C 0.52036 0.58637 0.09321 0.0
C460 C 0.48504 0.52222 0.09097 0.0
H461 H 0.66101 0.54828 0.09494 0.0
H462 H 0.65671 0.54314 0.15461 0.0
H463 H 0.57077 0.49013 0.13937 0.0
H464 H 0.55264 0.50968 0.15093 0.0
H465 H 0.5889 0.50968 0.15833 0.0
H466 H 0.62278 0.59692 0.14272 0.0
H467 H 0.61973 0.5728 0.16031 0.0
H468 H 0.58393 0.57388 0.15299 0.0
H469 H 0.61118 0.54632 0.04287 0.0
H470 H 0.5245 0.55635 0.03703 0.0
H471 H 0.51833 0.55624 0.0657 0.0
H472 H 0.64153 0.59979 0.06959 0.0
H473 H 0.66068 0.57487 0.06794 0.0
H474 H 0.65557 0.59003 0.08723 0.0
H475 H 0.58518 0.49491 0.07164 0.0
H476 H 0.61577 0.50635 0.08647 0.0
H477 H 0.62762 0.5173 0.06564 0.0
H478 H 0.70516 0.54866 0.10914 0.0
C479 C 0.65882 0.54743 0.10781 0.0
H480 H 0.19598 0.59615 0.1563 0.0
H481 H 0.24877 0.59698 0.15248 0.0
H482 H 0.20064 0.49287 0.16134 0.0
H483 H 0.14767 0.49176 0.16457 0.0
H484 H 0.2635 0.52473 0.17721 0.0
H485 H 0.22633 0.52514 0.12284 0.0
H486 H 0.20794 0.54694 0.10043 0.0
H487 H 0.29819 0.63915 0.10318 0.0
H488 H 0.31694 0.61802 0.12577 0.0
H489 H 0.40459 0.50448 0.15731 0.0
H490 H 0.35169 0.50246 0.16139 0.0
H491 H 0.38441 0.5885 0.13152 0.0
H492 H 0.43602 0.58856 0.12641 0.0
H493 H 0.32799 0.56606 0.12673 0.0
H494 H 0.36551 0.57282 0.181 0.0
H495 H 0.38573 0.55781 0.20532 0.0
H496 H 0.29939 0.46211 0.20553 0.0
H497 H 0.27881 0.47646 0.18112 0.0
C498 C 0.19624 0.5732 0.15745 0.0
C499 C 0.16617 0.54384 0.16081 0.0
C500 C 0.22708 0.57368 0.15517 0.0
C501 C 0.23027 0.54497 0.15648 0.0
C502 C 0.20033 0.51578 0.16016 0.0
C503 C 0.16937 0.51515 0.16201 0.0
C504 C 0.26398 0.5452 0.15393 0.0
C505 C 0.2772 0.5335 0.16602 0.0
C506 C 0.28398 0.55751 0.13974 0.0
C507 C 0.2729 0.5701 0.12608 0.0
C508 C 0.24216 0.55014 0.11874 0.0
C509 C 0.23168 0.56236 0.106 0.0
C510 C 0.25185 0.59444 0.10041 0.0
C511 C 0.28258 0.61432 0.10753 0.0
C512 C 0.29315 0.60222 0.12029 0.0
C513 C 0.40092 0.52332 0.15167 0.0
C514 C 0.42614 0.54687 0.14153 0.0
C515 C 0.36994 0.52246 0.1542 0.0
C516 C 0.36219 0.54594 0.14733 0.0
C517 C 0.38773 0.56955 0.13726 0.0
C518 C 0.41821 0.56978 0.13435 0.0
C519 C 0.32826 0.54575 0.15013 0.0
C520 C 0.31475 0.55739 0.13803 0.0
C521 C 0.30853 0.53442 0.16458 0.0
C522 C 0.32084 0.52557 0.17914 0.0
C523 C 0.35095 0.54851 0.18619 0.0
C524 C 0.36246 0.54013 0.19999 0.0
C525 C 0.34391 0.50899 0.20693 0.0
C526 C 0.31377 0.48619 0.20011 0.0
C527 C 0.30216 0.49443 0.1863 0.0
H528 H 0.35286 0.50255 0.21761 0.0
H529 H 0.2437 0.60386 0.09055 0.0
H530 H 0.64779 0.17386 0.48335 0.0
H531 H 0.69872 0.22658 0.48018 0.0
H532 H 0.75397 0.18398 0.50032 0.0
H533 H 0.70252 0.1315 0.50414 0.0
H534 H 0.787 0.24391 0.50971 0.0
H535 H 0.74899 0.20817 0.45524 0.0
H536 H 0.70913 0.1905 0.43276 0.0
H537 H 0.70615 0.28064 0.43634 0.0
H538 H 0.7456 0.29861 0.45902 0.0
H539 H 0.94804 0.38256 0.4858 0.0
H540 H 0.89721 0.33048 0.49135 0.0
H541 H 0.8407 0.36712 0.4668 0.0
H542 H 0.89149 0.4183 0.4608 0.0
H543 H 0.80815 0.30961 0.45978 0.0
H544 H 0.84242 0.34559 0.51394 0.0
H545 H 0.87959 0.36464 0.53753 0.0
H546 H 0.88736 0.27689 0.53573 0.0
H547 H 0.85048 0.25749 0.51203 0.0
C548 C 0.67052 0.17538 0.48732 0.0
C549 C 0.66941 0.14693 0.49422 0.0
C550 C 0.70061 0.20622 0.4852 0.0
C551 C 0.73231 0.21105 0.48951 0.0
C552 C 0.73113 0.18265 0.4966 0.0
C553 C 0.70095 0.15182 0.4988 0.0
C554 C 0.76587 0.24476 0.48675 0.0
C555 C 0.79137 0.25767 0.49857 0.0
C556 C 0.77334 0.26516 0.47263 0.0
C557 C 0.74999 0.25458 0.45891 0.0
C558 C 0.7397 0.22414 0.45128 0.0
C559 C 0.71717 0.21407 0.43851 0.0
C560 C 0.70503 0.23439 0.43316 0.0
C561 C 0.71552 0.2649 0.44052 0.0
C562 C 0.73795 0.27503 0.45333 0.0
C563 C 0.92483 0.38023 0.48195 0.0
C564 C 0.92528 0.40662 0.47314 0.0
C565 C 0.89486 0.34957 0.48515 0.0
C566 C 0.86289 0.34293 0.47991 0.0
C567 C 0.86359 0.36961 0.47126 0.0
C568 C 0.89342 0.39993 0.46795 0.0
C569 C 0.8295 0.30895 0.48276 0.0
C570 C 0.80397 0.29592 0.47092 0.0
C571 C 0.8218 0.28873 0.49697 0.0
C572 C 0.84405 0.30031 0.51111 0.0
C573 C 0.85226 0.33049 0.51852 0.0
C574 C 0.87323 0.34132 0.53191 0.0
C575 C 0.88592 0.32204 0.53809 0.0
C576 C 0.87757 0.29183 0.53091 0.0
C577 C 0.85663 0.2809 0.5175 0.0
H578 H 0.90215 0.33047 0.54846 0.0
H579 H 0.68757 0.22654 0.42329 0.0
H580 H 0.53073 0.62593 0.83874 0.0
H581 H 0.52975 0.67749 0.83587 0.0
H582 H 0.62218 0.71999 0.81043 0.0
H583 H 0.62394 0.66882 0.81427 0.0
H584 H 0.62715 0.76907 0.8228 0.0
H585 H 0.52749 0.69319 0.79399 0.0
H586 H 0.47346 0.6428 0.79108 0.0
H587 H 0.43757 0.66965 0.83292 0.0
H588 H 0.49117 0.72057 0.83587 0.0
H589 H 0.61935 0.90834 0.78995 0.0
H590 H 0.61864 0.85687 0.7958 0.0
H591 H 0.53455 0.8272 0.82668 0.0
H592 H 0.53491 0.87921 0.82044 0.0
H593 H 0.52412 0.772 0.8129 0.0
H594 H 0.62224 0.85095 0.83961 0.0
H595 H 0.67632 0.90113 0.84252 0.0
H596 H 0.71601 0.8674 0.80498 0.0
H597 H 0.66204 0.81718 0.80172 0.0
C598 C 0.55096 0.64599 0.83244 0.0
C599 C 0.57733 0.64165 0.82676 0.0
C600 C 0.55023 0.67628 0.83052 0.0
C601 C 0.57539 0.70445 0.82234 0.0
C602 C 0.60187 0.70002 0.81677 0.0
C603 C 0.60287 0.66993 0.81895 0.0
C604 C 0.57483 0.73802 0.81988 0.0
C605 C 0.60434 0.76902 0.82035 0.0
C606 C 0.54571 0.74052 0.81713 0.0
C607 C 0.51331 0.71051 0.81519 0.0
C608 C 0.50801 0.68836 0.80253 0.0
C609 C 0.47746 0.65979 0.80085 0.0
C610 C 0.45209 0.65314 0.81177 0.0
C611 C 0.45719 0.675 0.8244 0.0
C612 C 0.48756 0.70381 0.82603 0.0
C613 C 0.6009 0.89147 0.79833 0.0
C614 C 0.57775 0.89986 0.80487 0.0
C615 C 0.60052 0.86121 0.80178 0.0
C616 C 0.5769 0.8365 0.8121 0.0
C617 C 0.55359 0.84471 0.81875 0.0
C618 C 0.55407 0.87535 0.81532 0.0
C619 C 0.57653 0.80281 0.8155 0.0
C620 C 0.5469 0.77191 0.81524 0.0
C621 C 0.60558 0.80036 0.8184 0.0
C622 C 0.63802 0.83047 0.82032 0.0
C623 C 0.64245 0.85435 0.8319 0.0
C624 C 0.67308 0.88278 0.83363 0.0
C625 C 0.69955 0.88749 0.82391 0.0
C626 C 0.69546 0.86374 0.81248 0.0
C627 C 0.66487 0.83527 0.8107 0.0
H628 H 0.72325 0.90952 0.82527 0.0
H629 H 0.42845 0.63113 0.81038 0.0
H630 H 0.9958 0.59626 0.15641 0.0
H631 H 0.94406 0.59636 0.15193 0.0
H632 H 0.88964 0.49425 0.16559 0.0
H633 H 0.94183 0.49395 0.16901 0.0
H634 H 0.85024 0.49625 0.14691 0.0
H635 H 0.90173 0.57558 0.18882 0.0
H636 H 0.94524 0.62489 0.20247 0.0
H637 H 0.94394 0.68584 0.16397 0.0
H638 H 0.90066 0.63682 0.15001 0.0
H639 H 0.69448 0.49879 0.1514 0.0
H640 H 0.74556 0.49776 0.1578 0.0
H641 H 0.80274 0.59351 0.13639 0.0
H642 H 0.7519 0.59447 0.13012 0.0
H643 H 0.8394 0.5938 0.15992 0.0
H644 H 0.7884 0.50981 0.11776 0.0
H645 H 0.74224 0.4591 0.10636 0.0
H646 H 0.73874 0.40602 0.14935 0.0
H647 H 0.78531 0.45632 0.16077 0.0
C648 C 0.97296 0.57365 0.15856 0.0
C649 C 0.97434 0.54504 0.16313 0.0
C650 C 0.94248 0.57373 0.15612 0.0
C651 C 0.91085 0.5455 0.15865 0.0
C652 C 0.91236 0.51687 0.16328 0.0
C653 C 0.94291 0.51662 0.16531 0.0
C654 C 0.87703 0.54561 0.15632 0.0
C655 C 0.84837 0.51773 0.15008 0.0
C656 C 0.87223 0.57304 0.16 0.0
C657 C 0.89824 0.60251 0.1683 0.0
C658 C 0.91088 0.59948 0.18323 0.0
C659 C 0.93547 0.62738 0.19102 0.0
C660 C 0.94741 0.65846 0.18407 0.0
C661 C 0.93471 0.66173 0.16933 0.0
C662 C 0.91014 0.63392 0.16148 0.0
C663 C 0.71783 0.52013 0.14837 0.0
C664 C 0.71778 0.54716 0.1405 0.0
C665 C 0.74775 0.51929 0.15179 0.0
C666 C 0.77977 0.54535 0.1475 0.0
C667 C 0.77956 0.57265 0.14007 0.0
C668 C 0.74979 0.57331 0.13652 0.0
C669 C 0.81297 0.54458 0.15051 0.0
C670 C 0.84145 0.57236 0.15681 0.0
C671 C 0.81741 0.5169 0.14721 0.0
C672 C 0.79022 0.48665 0.14012 0.0
C673 C 0.77786 0.48723 0.12471 0.0
C674 C 0.75172 0.45857 0.11823 0.0
C675 C 0.73772 0.42926 0.12708 0.0
C676 C 0.74988 0.42857 0.14241 0.0
C677 C 0.77621 0.45707 0.14886 0.0
H678 H 0.71738 0.40713 0.12209 0.0
H679 H 0.96645 0.68003 0.19012 0.0
H680 H 0.44466 0.97265 0.49844 0.0
H681 H 0.39305 0.92008 0.49525 0.0
H682 H 0.4484 0.87239 0.48255 0.0
H683 H 0.50024 0.9248 0.48638 0.0
H684 H 0.3915 0.84925 0.4618 0.0
H685 H 0.4074 0.85785 0.5194 0.0
H686 H 0.41579 0.88449 0.54605 0.0
H687 H 0.32543 0.88662 0.54064 0.0
H688 H 0.31673 0.86039 0.51384 0.0
H689 H 0.25076 0.68493 0.45759 0.0
H690 H 0.3027 0.73526 0.46228 0.0
H691 H 0.25412 0.7691 0.49502 0.0
H692 H 0.20233 0.71687 0.49127 0.0
H693 H 0.30867 0.80105 0.50553 0.0
H694 H 0.29277 0.79921 0.44853 0.0
H695 H 0.28315 0.77781 0.42062 0.0
H696 H 0.37049 0.76929 0.42288 0.0
H697 H 0.38044 0.79033 0.45087 0.0
C698 C 0.44632 0.95115 0.49505 0.0
C699 C 0.47811 0.95448 0.49281 0.0
C700 C 0.41606 0.92034 0.4932 0.0
C701 C 0.41509 0.89051 0.48856 0.0
C702 C 0.44685 0.89389 0.48608 0.0
C703 C 0.4772 0.92455 0.48837 0.0
C704 C 0.38168 0.85662 0.48633 0.0
C705 C 0.37382 0.83877 0.47158 0.0
C706 C 0.35649 0.84184 0.49843 0.0
C707 C 0.36158 0.85744 0.51455 0.0
C708 C 0.38945 0.86424 0.52384 0.0
C709 C 0.39424 0.87922 0.53898 0.0
C710 C 0.3712 0.88732 0.54502 0.0
C711 C 0.34328 0.88037 0.53594 0.0
C712 C 0.33839 0.86542 0.52078 0.0
C713 C 0.25066 0.70284 0.46586 0.0
C714 C 0.2207 0.69527 0.47386 0.0
C715 C 0.28122 0.73292 0.46841 0.0
C716 C 0.28437 0.75897 0.47864 0.0
C717 C 0.25439 0.75111 0.48689 0.0
C718 C 0.22389 0.72042 0.4847 0.0
C719 C 0.31804 0.79315 0.48086 0.0
C720 C 0.32609 0.81123 0.49566 0.0
C721 C 0.34304 0.80875 0.46859 0.0
C722 C 0.33711 0.79595 0.45184 0.0
C723 C 0.30981 0.79258 0.4431 0.0
C724 C 0.30431 0.78054 0.42727 0.0
C725 C 0.32614 0.77209 0.42 0.0
C726 C 0.35356 0.77576 0.42854 0.0
C727 C 0.35915 0.78776 0.44438 0.0
H728 H 0.32184 0.76278 0.40774 0.0
H729 H 0.37495 0.89891 0.55675 0.0
H730 H 0.53397 0.41983 0.8439 0.0
H731 H 0.53361 0.3675 0.84012 0.0
H732 H 0.61779 0.41573 0.80876 0.0
H733 H 0.61781 0.46789 0.8124 0.0
H734 H 0.58466 0.35855 0.79621 0.0
H735 H 0.61353 0.38357 0.85225 0.0
H736 H 0.60655 0.39576 0.88047 0.0
H737 H 0.5152 0.30467 0.88346 0.0
H738 H 0.52146 0.29208 0.85514 0.0
H739 H 0.61591 0.22221 0.79016 0.0
H740 H 0.61658 0.27385 0.79524 0.0
H741 H 0.54093 0.2263 0.8312 0.0
H742 H 0.54173 0.17455 0.82671 0.0
H743 H 0.56877 0.2831 0.84158 0.0
H744 H 0.53707 0.25856 0.78594 0.0
H745 H 0.5417 0.24569 0.75745 0.0
H746 H 0.63466 0.33486 0.75347 0.0
H747 H 0.63073 0.34808 0.78199 0.0
C748 C 0.5527 0.41971 0.83623 0.0
C749 C 0.57617 0.44962 0.82872 0.0
C750 C 0.55267 0.38909 0.8341 0.0
C751 C 0.57609 0.38596 0.82427 0.0
C752 C 0.59919 0.41581 0.81655 0.0
C753 C 0.59936 0.44646 0.81877 0.0
C754 C 0.57638 0.35236 0.82183 0.0
C755 C 0.58151 0.34254 0.80634 0.0
C756 C 0.57163 0.32941 0.83451 0.0
C757 C 0.56782 0.33702 0.8515 0.0
C758 C 0.59186 0.36621 0.85886 0.0
C759 C 0.58804 0.37319 0.8749 0.0
C760 C 0.5604 0.35105 0.88375 0.0
C761 C 0.53656 0.32183 0.87659 0.0
C762 C 0.54025 0.31475 0.86055 0.0
C763 C 0.59906 0.22216 0.79917 0.0
C764 C 0.57851 0.19252 0.80775 0.0
C765 C 0.59913 0.25253 0.80201 0.0
C766 C 0.57783 0.25573 0.81332 0.0
C767 C 0.55777 0.22624 0.82223 0.0
C768 C 0.55821 0.19586 0.81961 0.0
C769 C 0.57685 0.28906 0.81589 0.0
C770 C 0.57177 0.29896 0.83142 0.0
C771 C 0.58126 0.31198 0.80321 0.0
C772 C 0.58375 0.30411 0.78612 0.0
C773 C 0.55857 0.27532 0.779 0.0
C774 C 0.56107 0.26797 0.76286 0.0
C775 C 0.5885 0.2894 0.75367 0.0
C776 C 0.61346 0.31826 0.7606 0.0
C777 C 0.6111 0.3257 0.77675 0.0
H778 H 0.59038 0.28367 0.74117 0.0
H779 H 0.5575 0.35649 0.89616 0.0
H780 H 0.62023 0.86674 0.50274 0.0
H781 H 0.60316 0.80866 0.50096 0.0
H782 H 0.50566 0.78687 0.48656 0.0
H783 H 0.52289 0.84559 0.48794 0.0
H784 H 0.50345 0.75003 0.51155 0.0
H785 H 0.55054 0.77003 0.4601 0.0
H786 H 0.59065 0.79897 0.43833 0.0
H787 H 0.66338 0.78547 0.46358 0.0
H788 H 0.62393 0.7569 0.48563 0.0
H789 H 0.54477 0.60436 0.51102 0.0
H790 H 0.53106 0.64102 0.49578 0.0
H791 H 0.55001 0.70141 0.53824 0.0
H792 H 0.56416 0.66565 0.55333 0.0
H793 H 0.57122 0.70458 0.4891 0.0
H794 H 0.50327 0.73464 0.54037 0.0
H795 H 0.46163 0.70451 0.56135 0.0
H796 H 0.42593 0.61496 0.53422 0.0
H797 H 0.46701 0.64462 0.51292 0.0
C798 C 0.59543 0.84987 0.4987 0.0
C799 C 0.57294 0.86089 0.4955 0.0
C800 C 0.58569 0.81656 0.49766 0.0
C801 C 0.55325 0.79347 0.49341 0.0
C802 C 0.53087 0.80435 0.48977 0.0
C803 C 0.54069 0.83784 0.49071 0.0
C804 C 0.5423 0.758 0.49499 0.0
C805 C 0.51777 0.73975 0.50641 0.0
C806 C 0.56014 0.74413 0.48779 0.0
C807 C 0.58416 0.76125 0.47455 0.0
C808 C 0.57514 0.77337 0.46107 0.0
C809 C 0.59777 0.78971 0.44867 0.0
C810 C 0.62954 0.79404 0.44957 0.0
C811 C 0.63874 0.78203 0.46288 0.0
C812 C 0.6162 0.76568 0.47532 0.0
C813 C 0.54576 0.62534 0.51711 0.0
C814 C 0.55544 0.63201 0.53342 0.0
C815 C 0.53772 0.64609 0.50842 0.0
C816 C 0.53894 0.67357 0.51595 0.0
C817 C 0.54796 0.67981 0.53229 0.0
C818 C 0.55606 0.65928 0.54093 0.0
C819 C 0.5344 0.69808 0.50666 0.0
C820 C 0.55598 0.71423 0.49377 0.0
C821 C 0.51349 0.70979 0.51234 0.0
C822 C 0.48829 0.69192 0.52501 0.0
C823 C 0.48635 0.70859 0.53877 0.0
C824 C 0.46289 0.69156 0.55076 0.0
C825 C 0.44116 0.65784 0.54912 0.0
C826 C 0.44281 0.64108 0.53548 0.0
C827 C 0.46622 0.65798 0.52346 0.0
H828 H 0.42304 0.6447 0.55842 0.0
H829 H 0.64703 0.80671 0.43996 0.0
H830 H 0.69922 0.47659 0.78548 0.0
H831 H 0.72896 0.44559 0.78559 0.0
H832 H 0.81385 0.53 0.80595 0.0
H833 H 0.78497 0.56123 0.80492 0.0
H834 H 0.83457 0.49696 0.79034 0.0
H835 H 0.74364 0.46743 0.82936 0.0
H836 H 0.68503 0.44507 0.83646 0.0
H837 H 0.66049 0.35491 0.81184 0.0
H838 H 0.71894 0.37692 0.80444 0.0
H839 H 0.87971 0.46463 0.86535 0.0
H840 H 0.84021 0.46644 0.84671 0.0
H841 H 0.84516 0.39404 0.81634 0.0
H842 H 0.88502 0.39205 0.83502 0.0
H843 H 0.775 0.40409 0.82855 0.0
H844 H 0.87407 0.43624 0.79416 0.0
H845 H 0.93455 0.46278 0.79175 0.0
H846 H 0.94442 0.55221 0.81151 0.0
H847 H 0.884 0.52596 0.81425 0.0
C848 C 0.72473 0.48878 0.7893 0.0
C849 C 0.73982 0.52109 0.79535 0.0
C850 C 0.74161 0.47104 0.78949 0.0
C851 C 0.77324 0.48505 0.7963 0.0
C852 C 0.78941 0.51847 0.8007 0.0
C853 C 0.7729 0.53641 0.80012 0.0
C854 C 0.78772 0.46449 0.80145 0.0
C855 C 0.82124 0.47609 0.79834 0.0
C856 C 0.77046 0.43697 0.81183 0.0
C857 C 0.73546 0.4239 0.81621 0.0
C858 C 0.72569 0.4429 0.82541 0.0
C859 C 0.69256 0.43032 0.82948 0.0
C860 C 0.66915 0.39864 0.82459 0.0
C861 C 0.67871 0.37947 0.81559 0.0
C862 C 0.7118 0.39198 0.81144 0.0
C863 C 0.87159 0.44822 0.85503 0.0
C864 C 0.88559 0.42834 0.85158 0.0
C865 C 0.84918 0.44943 0.84435 0.0
C866 C 0.84025 0.43067 0.83013 0.0
C867 C 0.85209 0.40886 0.82722 0.0
C868 C 0.87478 0.40778 0.83788 0.0
C869 C 0.82168 0.43736 0.81775 0.0
C870 C 0.78765 0.4235 0.8197 0.0
C871 C 0.83847 0.46306 0.8065 0.0
C872 C 0.87465 0.47909 0.8045 0.0
C873 C 0.8892 0.46149 0.79808 0.0
C874 C 0.92344 0.47648 0.79664 0.0
C875 C 0.94333 0.50915 0.8015 0.0
C876 C 0.929 0.52691 0.80776 0.0
C877 C 0.89477 0.512 0.80924 0.0
H878 H 0.96983 0.5207 0.8004 0.0
H879 H 0.64365 0.3889 0.82783 0.0
H880 H 0.27465 0.69634 0.1584 0.0
H881 H 0.3308 0.74019 0.15227 0.0
H882 H 0.30537 0.81271 0.16832 0.0
H883 H 0.24936 0.76951 0.17377 0.0
H884 H 0.34389 0.83421 0.14224 0.0
H885 H 0.34173 0.77964 0.19397 0.0
H886 H 0.3331 0.73121 0.20977 0.0
H887 H 0.40291 0.72137 0.17983 0.0
H888 H 0.41169 0.76961 0.16378 0.0
H889 H 0.4386 0.94788 0.19913 0.0
H890 H 0.40171 0.8963 0.18544 0.0
H891 H 0.48308 0.90345 0.15758 0.0
H892 H 0.52041 0.95598 0.17114 0.0
H893 H 0.43036 0.83706 0.17809 0.0
H894 H 0.4448 0.90854 0.13391 0.0
H895 H 0.45212 0.95949 0.12127 0.0
H896 H 0.35759 0.9393 0.1391 0.0
H897 H 0.34993 0.88853 0.15209 0.0
C898 C 0.281 0.72171 0.16036 0.0
C899 C 0.25779 0.72951 0.16681 0.0
C900 C 0.31305 0.74666 0.15689 0.0
C901 C 0.32227 0.77966 0.15992 0.0
C902 C 0.29876 0.78742 0.16582 0.0
C903 C 0.26688 0.76266 0.16919 0.0
C904 C 0.35681 0.8064 0.15849 0.0
C905 C 0.3631 0.83469 0.1498 0.0
C906 C 0.3822 0.80664 0.16792 0.0
C907 C 0.37705 0.77787 0.17759 0.0
C908 C 0.35509 0.76701 0.19073 0.0
C909 C 0.35019 0.73963 0.19972 0.0
C910 C 0.36736 0.72316 0.19577 0.0
C911 C 0.38956 0.7341 0.18285 0.0
C912 C 0.39451 0.76144 0.1738 0.0
C913 C 0.44869 0.93836 0.19017 0.0
C914 C 0.48225 0.9556 0.18623 0.0
C915 C 0.42764 0.90911 0.18232 0.0
C916 C 0.43982 0.89641 0.17051 0.0
C917 C 0.47341 0.91316 0.16664 0.0
C918 C 0.49455 0.94295 0.17435 0.0
C919 C 0.41644 0.86524 0.16269 0.0
C920 C 0.41205 0.83607 0.1697 0.0
C921 C 0.39259 0.86432 0.15191 0.0
C922 C 0.39684 0.89471 0.144 0.0
C923 C 0.42566 0.91507 0.13523 0.0
C924 C 0.42986 0.94391 0.12799 0.0
C925 C 0.40534 0.95263 0.12938 0.0
C926 C 0.37655 0.93249 0.13801 0.0
C927 C 0.37224 0.90364 0.14529 0.0
H928 H 0.40863 0.97497 0.12377 0.0
H929 H 0.36354 0.70197 0.20275 0.0
H930 H 0.65503 0.23909 0.46459 0.0
H931 H 0.69126 0.29904 0.46425 0.0
H932 H 0.60822 0.31179 0.4761 0.0
H933 H 0.57198 0.25234 0.47548 0.0
H934 H 0.64977 0.36256 0.46012 0.0
H935 H 0.65911 0.29711 0.50496 0.0
H936 H 0.6739 0.25691 0.51578 0.0
H937 H 0.77244 0.31544 0.49777 0.0
H938 H 0.75792 0.35539 0.4864 0.0
H939 H 0.6844 0.44418 0.53829 0.0
H940 H 0.68699 0.40266 0.52185 0.0
H941 H 0.73386 0.4733 0.48352 0.0
H942 H 0.73201 0.51574 0.50019 0.0
H943 H 0.72954 0.38999 0.50504 0.0
H944 H 0.69283 0.43272 0.44879 0.0
H945 H 0.67267 0.4704 0.44048 0.0
H946 H 0.62142 0.45391 0.48565 0.0
H947 H 0.64092 0.41583 0.49409 0.0
C948 C 0.64451 0.25494 0.46647 0.0
C949 C 0.61093 0.24144 0.4702 0.0
C950 C 0.66517 0.28906 0.46634 0.0
C951 C 0.65269 0.3099 0.47061 0.0
C952 C 0.61855 0.29632 0.47281 0.0
C953 C 0.59779 0.26233 0.47251 0.0
C954 C 0.67481 0.34463 0.47543 0.0
C955 C 0.66786 0.36878 0.46965 0.0
C956 C 0.6987 0.35302 0.48781 0.0
C957 C 0.70733 0.32899 0.49468 0.0
C958 C 0.68386 0.30124 0.50322 0.0
C959 C 0.69216 0.27845 0.50939 0.0
C960 C 0.72406 0.28352 0.50739 0.0
C961 C 0.74769 0.31138 0.49919 0.0
C962 C 0.73941 0.33405 0.49284 0.0
C963 C 0.69658 0.45151 0.52667 0.0
C964 C 0.70758 0.48329 0.5205 0.0
C965 C 0.69799 0.42757 0.51723 0.0
C966 C 0.71019 0.43476 0.50138 0.0
C967 C 0.72403 0.46719 0.49568 0.0
C968 C 0.72273 0.49131 0.50518 0.0
C969 C 0.70288 0.40698 0.49038 0.0
C970 C 0.71278 0.38429 0.49493 0.0
C971 C 0.68106 0.39957 0.47718 0.0
C972 C 0.66868 0.42186 0.47212 0.0
C973 C 0.6772 0.43712 0.45691 0.0
C974 C 0.66588 0.45852 0.45218 0.0
C975 C 0.64588 0.46464 0.46256 0.0
C976 C 0.63698 0.44923 0.47764 0.0
C977 C 0.64814 0.42773 0.48239 0.0
H978 H 0.63721 0.48127 0.45889 0.0
H979 H 0.73049 0.26595 0.51225 0.0
H980 H 0.39333 0.54215 0.80568 0.0
H981 H 0.34974 0.55534 0.80002 0.0
H982 H 0.36879 0.60586 0.84582 0.0
H983 H 0.41211 0.59285 0.85146 0.0
H984 H 0.29794 0.52786 0.81744 0.0
H985 H 0.34117 0.6564 0.84881 0.0
H986 H 0.38797 0.7129 0.8468 0.0
H987 H 0.4099 0.69246 0.7992 0.0
H988 H 0.36318 0.63588 0.80085 0.0
H989 H 0.2015 0.52624 0.87872 0.0
H990 H 0.24915 0.54102 0.86144 0.0
H991 H 0.21403 0.58645 0.82737 0.0
H992 H 0.16591 0.57172 0.84476 0.0
H993 H 0.28688 0.62309 0.83564 0.0
H994 H 0.20363 0.52301 0.81373 0.0
H995 H 0.15582 0.46691 0.81438 0.0
H996 H 0.2135 0.43209 0.8391 0.0
H997 H 0.26151 0.48808 0.83886 0.0
C998 C 0.38864 0.55672 0.81435 0.0
C999 C 0.40552 0.56581 0.82918 0.0
C1000 C 0.36401 0.56454 0.81102 0.0
C1001 C 0.35591 0.58155 0.82248 0.0
C1002 C 0.37489 0.59324 0.83662 0.0
C1003 C 0.39955 0.58553 0.83993 0.0
C1004 C 0.32361 0.58023 0.82183 0.0
C1005 C 0.29551 0.54892 0.82094 0.0
C1006 C 0.32013 0.60778 0.82588 0.0
C1007 C 0.34851 0.64181 0.82495 0.0
C1008 C 0.35579 0.66398 0.83786 0.0
C1009 C 0.38239 0.69602 0.8368 0.0
C1010 C 0.40182 0.7063 0.82286 0.0
C1011 C 0.39476 0.68451 0.80997 0.0
C1012 C 0.36834 0.65238 0.811 0.0
C1013 C 0.20415 0.53985 0.8677 0.0
C1014 C 0.18009 0.54785 0.86306 0.0
C1015 C 0.23123 0.5481 0.85781 0.0
C1016 C 0.2348 0.56458 0.84315 0.0
C1017 C 0.2115 0.57368 0.83866 0.0
C1018 C 0.18409 0.56511 0.84852 0.0
C1019 C 0.26248 0.57058 0.83248 0.0
C1020 C 0.2894 0.60253 0.83134 0.0
C1021 C 0.26487 0.54375 0.82621 0.0
C1022 C 0.2362 0.50982 0.82627 0.0
C1023 C 0.20608 0.50344 0.81938 0.0
C1024 C 0.17894 0.47164 0.81968 0.0
C1025 C 0.18162 0.44595 0.82677 0.0
C1026 C 0.21147 0.45201 0.83358 0.0
C1027 C 0.23869 0.48377 0.83334 0.0
H1028 H 0.16058 0.42135 0.82699 0.0
H1029 H 0.42243 0.7311 0.82207 0.0
H1030 H 0.88655 0.45745 0.1423 0.0
H1031 H 0.82763 0.43737 0.14606 0.0
H1032 H 0.80687 0.33904 0.1344 0.0
H1033 H 0.86571 0.35898 0.13074 0.0
H1034 H 0.75448 0.35091 0.12659 0.0
H1035 H 0.83037 0.36686 0.17155 0.0
H1036 H 0.87877 0.40147 0.18851 0.0
H1037 H 0.83835 0.46388 0.20016 0.0
H1038 H 0.78932 0.42905 0.1836 0.0
H1039 H 0.66628 0.22379 0.17768 0.0
H1040 H 0.70254 0.26969 0.16076 0.0
H1041 H 0.68099 0.3345 0.18891 0.0
H1042 H 0.64334 0.28777 0.20594 0.0
H1043 H 0.74597 0.35688 0.18619 0.0
H1044 H 0.66004 0.32472 0.14897 0.0
H1045 H 0.61144 0.28714 0.13286 0.0
H1046 H 0.66912 0.25359 0.10707 0.0
H1047 H 0.71795 0.29055 0.12318 0.0
C1048 C 0.86919 0.4318 0.13993 0.0
C1049 C 0.88042 0.4095 0.13663 0.0
C1050 C 0.83564 0.42046 0.14199 0.0
C1051 C 0.81314 0.38672 0.14084 0.0
C1052 C 0.82396 0.3652 0.13538 0.0
C1053 C 0.85754 0.37655 0.1333 0.0
C1054 C 0.78053 0.37271 0.14864 0.0
C1055 C 0.75235 0.35235 0.13958 0.0
C1056 C 0.77775 0.37577 0.16554 0.0
C1057 C 0.80673 0.39605 0.17591 0.0
C1058 C 0.83194 0.38811 0.17764 0.0
C1059 C 0.85938 0.40763 0.18726 0.0
C1060 C 0.86186 0.43513 0.19523 0.0
C1061 C 0.83658 0.44277 0.19385 0.0
C1062 C 0.80892 0.42311 0.18437 0.0
C1063 C 0.66822 0.24748 0.18004 0.0
C1064 C 0.65152 0.25197 0.19308 0.0
C1065 C 0.689 0.2738 0.17027 0.0
C1066 C 0.69383 0.30538 0.1733 0.0
C1067 C 0.67713 0.31016 0.18623 0.0
C1068 C 0.65596 0.28357 0.19602 0.0
C1069 C 0.72007 0.3334 0.16428 0.0
C1070 C 0.74735 0.35648 0.1731 0.0
C1071 C 0.72193 0.33271 0.14721 0.0
C1072 C 0.69274 0.31052 0.13731 0.0
C1073 C 0.66235 0.30923 0.13991 0.0
C1074 C 0.63475 0.28803 0.13077 0.0
C1075 C 0.6372 0.26801 0.11894 0.0
C1076 C 0.66728 0.26917 0.11621 0.0
C1077 C 0.69497 0.29033 0.12532 0.0
H1078 H 0.61578 0.25158 0.11189 0.0
H1079 H 0.88324 0.45036 0.20258 0.0
H1080 H 0.09229 0.52539 0.12035 0.0
H1081 H 0.08121 0.51212 0.09151 0.0
H1082 H 1.02425 0.56198 0.09017 0.0
H1083 H 1.03669 0.5766 0.11865 0.0
H1084 H 1.03074 0.47878 0.07341 0.0
H1085 H 1.03203 0.59979 0.05522 0.0
H1086 H 0.0588 0.65791 0.06382 0.0
H1087 H 0.13879 0.64964 0.08437 0.0
H1088 H 0.11274 0.59165 0.07571 0.0
H1089 H 0.97164 0.45833 0.99305 0.0
H1090 H 0.97967 0.46896 0.02204 0.0
H1091 H 0.07587 0.55238 0.01301 0.0
H1092 H 0.06672 0.54406 0.98416 0.0
H1093 H 0.05167 0.56867 0.03509 0.0
H1094 H 0.06099 0.47251 0.02655 0.0
H1095 H 0.04389 0.41613 0.01733 0.0
H1096 H 0.95997 0.37778 0.04889 0.0
H1097 H 0.97636 0.43401 0.05815 0.0
C1098 C 0.07744 0.53346 0.11382 0.0
C1099 C 0.06575 0.55243 0.12155 0.0
C1100 C 0.07099 0.52578 0.0974 0.0
C1101 C 0.05244 0.53663 0.08856 0.0
C1102 C 1.03942 0.55416 0.09658 0.0
C1103 C 0.04643 0.56241 0.11285 0.0
C1104 C 0.04743 0.53054 0.07089 0.0
C1105 C 1.03534 0.49842 0.06501 0.0
C1106 C 0.05422 0.55628 0.05985 0.0
C1107 C 0.07023 0.59128 0.06496 0.0
C1108 C 0.05539 0.61042 0.06152 0.0
C1109 C 0.07043 0.64333 0.06641 0.0
C1110 C 0.10042 0.65742 0.07468 0.0
C1111 C 0.1155 0.63867 0.07802 0.0
C1112 C 0.10059 0.60577 0.07314 0.0
C1113 C 0.99425 0.47932 -0.00281 0.0
C1114 C 1.01868 0.50003 0.98613 0.0
C1115 C 0.99906 0.48505 0.01384 0.0
C1116 C 1.02873 0.51103 0.01982 0.0
C1117 C 0.05282 0.53203 0.00879 0.0
C1118 C 0.04771 0.52686 0.9922 0.0
C1119 C 1.03487 0.5168 0.0375 0.0
C1120 C 0.04705 0.54892 0.04342 0.0
C1121 C 1.02964 0.49133 0.04844 0.0
C1122 C 1.01972 0.45749 0.04291 0.0
C1123 C 1.03877 0.45207 0.03144 0.0
C1124 C 1.02922 0.42014 0.02622 0.0
C1125 C 1.00081 0.3934 0.03249 0.0
C1126 C 0.98194 0.39853 0.04403 0.0
C1127 C 0.99135 0.43042 0.04927 0.0
H1128 H 0.99346 0.3687 0.02843 0.0
H1129 H 0.112 0.68289 0.07847 0.0
H1130 H 0.52815 0.03675 0.4551 0.0
H1131 H 0.52007 0.04755 0.42695 0.0
H1132 H 0.62444 0.09086 0.41828 0.0
H1133 H 0.63264 0.08021 0.44641 0.0
H1134 H 0.59711 0.1267 0.40453 0.0
H1135 H 0.57546 1.01425 0.40709 0.0
H1136 H 0.54764 0.95752 0.41769 0.0
H1137 H 0.4539 0.94536 0.40339 0.0
H1138 H 0.48116 1.00222 0.39291 0.0
H1139 H 0.6057 0.11808 0.31923 0.0
H1140 H 0.60952 0.11597 0.34864 0.0
H1141 H 0.50352 0.05866 0.35179 0.0
H1142 H 0.4998 0.05982 0.32231 0.0
H1143 H 0.52852 0.03121 0.36915 0.0
H1144 H 0.54941 0.14162 0.36452 0.0
H1145 H 0.57619 0.19865 0.35439 0.0
H1146 H 0.6692 0.21573 0.3729 0.0
H1147 H 0.6431 0.15862 0.38292 0.0
C1148 C 0.54935 0.04877 0.4472 0.0
C1149 C 0.58098 0.05747 0.45282 0.0
C1150 C 0.54471 0.05487 0.43115 0.0
C1151 C 0.57165 0.06977 0.42054 0.0
C1152 C 0.60337 0.07935 0.4263 0.0
C1153 C 0.60798 0.07308 0.4423 0.0
C1154 C 0.56668 0.07406 0.40325 0.0
C1155 C 0.58233 0.10589 0.39671 0.0
C1156 C 0.54666 0.04689 0.39325 0.0
C1157 C 0.53031 1.01259 0.39938 0.0
C1158 C 0.5489 0.99956 0.40632 0.0
C1159 C 0.53324 0.96737 0.41228 0.0
C1160 C 0.49902 0.94788 0.41125 0.0
C1161 C 0.4804 0.9605 0.4042 0.0
C1162 C 0.49594 0.9927 0.39824 0.0
C1163 C 0.58324 0.10553 0.32626 0.0
C1164 C 0.55247 0.0891 0.31856 0.0
C1165 C 0.5854 0.10441 0.34306 0.0
C1166 C 0.55677 0.08745 0.35249 0.0
C1167 C 0.52595 0.07184 0.3448 0.0
C1168 C 0.52382 0.07254 0.32798 0.0
C1169 C 0.55908 0.08402 0.37023 0.0
C1170 C 0.54301 0.05223 0.3769 0.0
C1171 C 0.57851 0.11132 0.38036 0.0
C1172 C 0.59432 0.14571 0.37435 0.0
C1173 C 0.57563 0.15744 0.36631 0.0
C1174 C 0.59068 0.18981 0.36061 0.0
C1175 C 0.62439 0.21077 0.36296 0.0
C1176 C 0.6431 0.19944 0.37106 0.0
C1177 C 0.62818 0.16709 0.37677 0.0
H1178 H 0.636 0.23582 0.35854 0.0
H1179 H 0.48694 0.92297 0.41588 0.0
H1180 H 0.61832 0.54585 0.79237 0.0
H1181 H 0.63173 0.54492 0.7639 0.0
H1182 H 0.52995 0.50928 0.75128 0.0
H1183 H 0.5167 0.51019 0.77991 0.0
H1184 H 0.55332 0.47561 0.7358 0.0
H1185 H 0.59041 0.5906 0.7447 0.0
H1186 H 0.62176 0.64383 0.75876 0.0
H1187 H 0.71232 0.64534 0.74765 0.0
H1188 H 0.68145 0.59189 0.73369 0.0
H1189 H 0.56804 0.508 0.65201 0.0
H1190 H 0.55867 0.5064 0.68108 0.0
H1191 H 0.66154 0.53997 0.68976 0.0
H1192 H 0.67137 0.5428 0.66055 0.0
H1193 H 0.6404 0.57388 0.70759 0.0
H1194 H 0.60302 0.46012 0.69714 0.0
H1195 H 0.57128 0.40679 0.68324 0.0
H1196 H 0.48085 0.40282 0.69726 0.0
H1197 H 0.51206 0.45636 0.71106 0.0
C1198 C 0.59917 0.53898 0.78347 0.0
C1199 C 0.56685 0.5294 0.78818 0.0
C1200 C 0.60669 0.538 0.76722 0.0
C1201 C 0.58196 0.52765 0.75541 0.0
C1202 C 0.54946 0.51755 0.76018 0.0
C1203 C 0.54194 0.51821 0.77647 0.0
C1204 C 0.58981 0.52683 0.7381 0.0
C1205 C 0.57209 0.49719 0.72957 0.0
C1206 C 0.61498 0.55474 0.73012 0.0
C1207 C 0.6336 0.58713 0.73828 0.0
C1208 C 0.617 0.60221 0.74534 0.0
C1209 C 0.63468 0.63242 0.75327 0.0
C1210 C 0.669 0.64792 0.75413 0.0
C1211 C 0.68573 0.63329 0.74699 0.0
C1212 C 0.66816 0.60306 0.73905 0.0
C1213 C 0.58871 0.51511 0.6601 0.0
C1214 C 0.62049 0.52567 0.65398 0.0
C1215 C 0.58324 0.51385 0.67672 0.0
C1216 C 0.60934 0.52276 0.68759 0.0
C1217 C 0.64104 0.53289 0.68156 0.0
C1218 C 0.64656 0.53422 0.66489 0.0
C1219 C 0.60362 0.52275 0.70522 0.0
C1220 C 0.62176 0.55223 0.71383 0.0
C1221 C 0.57877 0.4947 0.71326 0.0
C1222 C 0.55991 0.4624 0.70503 0.0
C1223 C 0.57637 0.44799 0.69716 0.0
C1224 C 0.55847 0.4177 0.68932 0.0
C1225 C 0.52407 0.40146 0.68934 0.0
C1226 C 0.5075 0.41544 0.69725 0.0
C1227 C 0.52528 0.44574 0.7051 0.0
H1228 H 0.51025 0.37802 0.68326 0.0
H1229 H 0.68265 0.67129 0.76029 0.0
H1230 H 0.61852 0.08461 0.54516 0.0
H1231 H 0.6238 0.08454 0.57468 0.0
H1232 H 0.5204 1.01311 0.57849 0.0
H1233 H 0.51489 1.01492 0.5492 0.0
H1234 H 0.53079 0.05136 0.60088 0.0
H1235 H 0.59072 0.99772 0.58478 0.0
H1236 H 0.63269 0.99046 0.57012 0.0
H1237 H 0.70944 0.07739 0.59266 0.0
H1238 H 0.66789 0.08542 0.6073 0.0
H1239 H 0.53773 1.00533 0.68343 0.0
H1240 H 0.53597 1.00325 0.6537 0.0
H1241 H 0.62456 0.09757 0.6517 0.0
H1242 H 0.62599 0.10011 0.68136 0.0
H1243 H 0.62246 0.04746 0.62904 0.0
H1244 H 0.55825 0.09821 0.64528 0.0
H1245 H 0.51397 0.1006 0.66041 0.0
H1246 H 0.44191 1.01116 0.63766 0.0
H1247 H 0.48586 1.00798 0.62257 0.0
C1248 C 0.59703 0.06869 0.55231 0.0
C1249 C 0.56629 0.04971 0.54477 0.0
C1250 C 0.60004 0.06847 0.56929 0.0
C1251 C 0.57261 0.04845 0.57917 0.0
C1252 C 0.54209 0.02901 0.57145 0.0
C1253 C 0.53895 0.02986 0.55459 0.0
C1254 C 0.57508 0.0484 0.59746 0.0
C1255 C 0.55068 0.04995 0.60689 0.0
C1256 C 0.60112 0.04713 0.60575 0.0
C1257 C 0.62618 0.04236 0.597 0.0
C1258 C 0.61654 1.01542 0.58653 0.0
C1259 C 0.64026 1.01115 0.57823 0.0
C1260 C 0.67371 0.0335 0.58043 0.0
C1261 C 0.68351 0.06013 0.59095 0.0
C1262 C 0.65989 0.06454 0.59926 0.0
C1263 C 0.55701 1.02548 0.67666 0.0
C1264 C 0.58195 0.05293 0.68486 0.0
C1265 C 0.55593 1.02433 0.65963 0.0
C1266 C 0.58011 0.05029 0.65032 0.0
C1267 C 0.60562 0.07719 0.6585 0.0
C1268 C 0.60632 0.07867 0.6755 0.0
C1269 C 0.57811 0.05006 0.63215 0.0
C1270 C 0.6026 0.04863 0.62285 0.0
C1271 C 0.55179 0.05065 0.62396 0.0
C1272 C 0.52537 0.05268 0.63293 0.0
C1273 C 0.53299 0.0789 0.64361 0.0
C1274 C 0.50795 0.08043 0.65216 0.0
C1275 C 0.47516 0.056 0.65004 0.0
C1276 C 0.46733 0.03004 0.63932 0.0
C1277 C 0.49229 0.02837 0.63076 0.0
H1278 H 0.4558 0.05722 0.65666 0.0
H1279 H 0.69203 0.03015 0.574 0.0
H1280 H 0.56367 0.50493 0.87973 0.0
H1281 H 0.55801 0.50091 0.90937 0.0
H1282 H 0.60965 0.60673 0.91282 0.0
H1283 H 0.61576 0.61081 0.88335 0.0
H1284 H 0.60609 0.52471 0.93417 0.0
H1285 H 0.57328 0.62755 0.9439 0.0
H1286 H 0.54596 0.65341 0.92923 0.0
H1287 H 0.48876 0.56435 0.90229 0.0
H1288 H 0.51532 0.5378 0.91698 0.0
H1289 H 0.62388 0.57407 0.01792 0.0
H1290 H 0.62728 0.57333 0.98839 0.0
H1291 H 0.52152 0.52506 0.98523 0.0
H1292 H 0.5177 0.52454 0.01462 0.0
H1293 H 0.54939 0.57511 0.96353 0.0
H1294 H 0.56172 0.48262 0.9785 0.0
H1295 H 0.58655 0.45406 0.9929 0.0
H1296 H 0.67967 0.51713 0.97025 0.0
H1297 H 0.65549 0.54638 0.95587 0.0
C1298 C 0.57373 0.52732 0.88681 0.0
C1299 C 0.59016 0.55821 0.87912 0.0
C1300 C 0.57065 0.52501 0.90379 0.0
C1301 C 0.58333 0.55351 0.91348 0.0
C1302 C 0.59946 0.58432 0.90574 0.0
C1303 C 0.60295 0.58663 0.88884 0.0
C1304 C 0.57961 0.55126 0.93159 0.0
C1305 C 0.59374 0.53581 0.94057 0.0
C1306 C 0.5632 0.56532 0.9401 0.0
C1307 C 0.54656 0.58083 0.93143 0.0
C1308 C 0.55476 0.61344 0.9349 0.0
C1309 C 0.53942 0.62822 0.92658 0.0
C1310 C 0.51572 0.61057 0.9148 0.0
C1311 C 0.5072 0.57804 0.91137 0.0
C1312 C 0.52242 0.56313 0.91969 0.0
C1313 C 0.60121 0.56281 0.01105 0.0
C1314 C 0.57048 0.54957 0.01898 0.0
C1315 C 0.60325 0.56257 0.99404 0.0
C1316 C 0.57466 0.54917 0.9844 0.0
C1317 C 0.54403 0.53586 0.99225 0.0
C1318 C 0.54195 0.53579 0.00921 0.0
C1319 C 0.57647 0.54916 0.96619 0.0
C1320 C 0.56193 0.56417 0.95718 0.0
C1321 C 0.59231 0.5345 0.95765 0.0
C1322 C 0.60687 0.51689 0.96623 0.0
C1323 C 0.58756 0.49057 0.97669 0.0
C1324 C 0.6015 0.47423 0.98483 0.0
C1325 C 0.63469 0.48383 0.98253 0.0
C1326 C 0.65398 0.50975 0.97204 0.0
C1327 C 0.64016 0.5262 0.96388 0.0
H1328 H 0.64544 0.47114 0.98884 0.0
H1329 H 0.50391 0.62207 0.90835 0.0
H1330 H 0.06697 0.48446 0.21784 0.0
H1331 H 0.0675 0.49066 0.24722 0.0
H1332 H 0.06526 0.58114 0.24145 0.0
H1333 H 0.06391 0.57458 0.21183 0.0
H1334 H 0.11316 0.58422 0.26496 0.0
H1335 H 0.99794 0.51725 0.25302 0.0
H1336 H 0.94932 0.46997 0.24094 0.0
H1337 H 0.96849 0.40335 0.26844 0.0
H1338 H 1.01755 0.45025 0.2805 0.0
H1339 H 0.08853 0.60249 0.34824 0.0
H1340 H 0.08437 0.59831 0.3188 0.0
H1341 H 0.05798 0.49604 0.32172 0.0
H1342 H 0.06082 0.49992 0.3513 0.0
H1343 H 1.02387 0.50014 0.29909 0.0
H1344 H 0.13919 0.56363 0.31003 0.0
H1345 H 0.1901 0.60889 0.32164 0.0
H1346 H 0.17417 0.67948 0.29582 0.0
H1347 H 0.12291 0.63463 0.2842 0.0
C1348 C 0.06651 0.5057 0.22276 0.0
C1349 C 0.06531 0.52898 0.21238 0.0
C1350 C 0.06676 0.50918 0.23964 0.0
C1351 C 0.06627 0.53629 0.24671 0.0
C1352 C 0.06563 0.55996 0.23638 0.0
C1353 C 0.06479 0.55617 0.21942 0.0
C1354 C 0.06639 0.53962 0.26483 0.0
C1355 C 0.09336 0.56614 0.27241 0.0
C1356 C 1.0412 0.5155 0.27471 0.0
C1357 C 1.0116 0.48727 0.26755 0.0
C1358 C 0.99195 0.49251 0.25639 0.0
C1359 C 0.96428 0.46578 0.24956 0.0
C1360 C 0.95587 0.43367 0.25389 0.0
C1361 C 0.97506 0.42823 0.26508 0.0
C1362 C 1.00279 0.45488 0.27193 0.0
C1363 C 0.08188 0.57908 0.34264 0.0
C1364 C 0.07528 0.55162 0.35227 0.0
C1365 C 0.07968 0.57672 0.32568 0.0
C1366 C 0.07166 0.54704 0.31769 0.0
C1367 C 0.06435 0.51936 0.32734 0.0
C1368 C 0.06598 0.52157 0.34435 0.0
C1369 C 0.07082 0.54483 0.29941 0.0
C1370 C 0.04371 0.51841 0.29173 0.0
C1371 C 0.09622 0.56877 0.28944 0.0
C1372 C 0.12703 0.59579 0.29638 0.0
C1373 C 0.14642 0.58882 0.30691 0.0
C1374 C 0.17536 0.6144 0.31349 0.0
C1375 C 0.18531 0.64705 0.30951 0.0
C1376 C 0.1664 0.65418 0.29891 0.0
C1377 C 0.13741 0.62869 0.29232 0.0
H1378 H 0.20772 0.66681 0.31461 0.0
H1379 H 0.93443 0.41301 0.24859 0.0
loop_
_geom_bond_atom_site_label_1
_geom_bond_atom_site_label_2
_geom_bond_distance
_geom_bond_site_symmetry_2
_ccdc_geom_bond_type
Tb0 C2 2.809 . S
Tb0 O20 2.484 . S
Tb0 O21 2.440 . S
Tb0 O22 2.658 . S
Tb0 O23 2.409 . S
Tb0 O24 2.378 . S
Tb0 O28 2.325 . S
Tb0 O31 2.341 1_455 S
Tb1 C11 2.809 1_455 S
Tb1 O22 2.325 . S
Tb1 O25 2.341 . S
Tb1 O26 2.484 1_455 S
Tb1 O27 2.440 1_455 S
Tb1 O28 2.658 . S
Tb1 O29 2.409 . S
Tb1 O30 2.378 1_455 S
C2 Tb0 2.809 . S
C2 C3 1.514 . S
C2 O20 1.248 . S
C2 O21 1.266 . S
C3 C2 1.514 . S
C3 C4 1.359 . S
C3 C8 1.348 . S
C4 C3 1.359 . S
C4 C5 1.380 . S
C4 H32 0.929 . S
C5 C4 1.380 . S
C5 C6 1.347 . S
C5 H33 0.931 . S
C6 C5 1.347 . S
C6 C7 1.369 . S
C7 C6 1.369 . S
C7 C8 1.408 . S
C7 H34 0.930 . S
C8 C3 1.348 . S
C8 C7 1.408 . S
C8 H35 0.930 . S
C9 O22 1.281 . S
C9 O23 1.254 . S
C10 O24 1.236 . S
C10 O25 1.266 . S
C11 Tb1 2.809 1_655 S
C11 C12 1.514 . S
C11 O26 1.248 . S
C11 O27 1.266 . S
C12 C11 1.514 . S
C12 C13 1.359 . S
C12 C17 1.348 . S
C13 C12 1.359 . S
C13 C14 1.380 . S
C13 H36 0.929 . S
C14 C13 1.380 . S
C14 C15 1.347 . S
C14 H37 0.931 . S
C15 C14 1.347 . S
C15 C16 1.369 . S
C16 C15 1.369 . S
C16 C17 1.408 . S
C16 H38 0.930 . S
C17 C12 1.348 . S
C17 C16 1.408 . S
C17 H39 0.930 . S
C18 O28 1.281 . S
C18 O29 1.254 . S
C19 O30 1.236 . S
C19 O31 1.266 . S
O20 Tb0 2.484 . S
O20 C2 1.248 . S
O21 Tb0 2.440 . S
O21 C2 1.266 . S
O22 Tb0 2.658 . S
O22 Tb1 2.325 . S
O22 C9 1.281 . S
O23 Tb0 2.409 . S
O23 C9 1.254 . S
O24 Tb0 2.378 . S
O24 C10 1.236 . S
O25 Tb1 2.341 . S
O25 C10 1.266 . S
O26 Tb1 2.484 1_655 S
O26 C11 1.248 . S
O27 Tb1 2.440 1_655 S
O27 C11 1.266 . S
O28 Tb0 2.325 . S
O28 Tb1 2.658 . S
O28 C18 1.281 . S
O29 Tb1 2.409 . S
O29 C18 1.254 . S
O30 Tb1 2.378 1_655 S
O30 C19 1.236 . S
O31 Tb0 2.341 1_655 S
O31 C19 1.266 . S
H32 C4 0.929 . S
H33 C5 0.931 . S
H34 C7 0.930 . S
H35 C8 0.930 . S
H36 C13 0.929 . S
H37 C14 0.931 . S
H38 C16 0.930 . S
H39 C17 0.930 . S
Tb40 C42 2.809 1_545 S
Tb40 O60 2.484 1_545 S
Tb40 O61 2.440 1_545 S
Tb40 O62 2.658 . S
Tb40 O63 2.409 . S
Tb40 O64 2.378 1_545 S
Tb40 O68 2.325 . S
Tb40 O71 2.341 . S
Tb41 C51 2.809 . S
Tb41 O62 2.325 . S
Tb41 O65 2.341 1_545 S
Tb41 O66 2.484 . S
Tb41 O67 2.440 . S
Tb41 O68 2.658 . S
Tb41 O69 2.409 . S
Tb41 O70 2.378 . S
C42 Tb40 2.809 1_565 S
C42 C43 1.514 . S
C42 O60 1.248 . S
C42 O61 1.266 . S
C43 C42 1.514 . S
C43 C44 1.359 . S
C43 C48 1.348 . S
C44 C43 1.359 . S
C44 C45 1.380 . S
C44 H72 0.929 . S
C45 C44 1.380 . S
C45 C46 1.347 . S
C45 H73 0.931 . S
C46 C45 1.347 . S
C46 C47 1.369 . S
C47 C46 1.369 . S
C47 C48 1.408 . S
C47 H74 0.930 . S
C48 C43 1.348 . S
C48 C47 1.408 . S
C48 H75 0.930 . S
C49 O62 1.281 . S
C49 O63 1.254 . S
C50 O64 1.236 . S
C50 O65 1.266 . S
C51 Tb41 2.809 . S
C51 C52 1.514 . S
C51 O66 1.248 . S
C51 O67 1.266 . S
C52 C51 1.514 . S
C52 C53 1.359 . S
C52 C57 1.348 . S
C53 C52 1.359 . S
C53 C54 1.380 . S
C53 H76 0.929 . S
C54 C53 1.380 . S
C54 C55 1.347 . S
C54 H77 0.931 . S
C55 C54 1.347 . S
C55 C56 1.369 . S
C56 C55 1.369 . S
C56 C57 1.408 . S
C56 H78 0.930 . S
C57 C52 1.348 . S
C57 C56 1.408 . S
C57 H79 0.930 . S
C58 O68 1.281 . S
C58 O69 1.254 . S
C59 O70 1.236 . S
C59 O71 1.266 . S
O60 Tb40 2.484 1_565 S
O60 C42 1.248 . S
O61 Tb40 2.440 1_565 S
O61 C42 1.266 . S
O62 Tb40 2.658 . S
O62 Tb41 2.325 . S
O62 C49 1.281 . S
O63 Tb40 2.409 . S
O63 C49 1.254 . S
O64 Tb40 2.378 1_565 S
O64 C50 1.236 . S
O65 Tb41 2.341 1_565 S
O65 C50 1.266 . S
O66 Tb41 2.484 . S
O66 C51 1.248 . S
O67 Tb41 2.440 . S
O67 C51 1.266 . S
O68 Tb40 2.325 . S
O68 Tb41 2.658 . S
O68 C58 1.281 . S
O69 Tb41 2.409 . S
O69 C58 1.254 . S
O70 Tb41 2.378 . S
O70 C59 1.236 . S
O71 Tb40 2.341 . S
O71 C59 1.266 . S
H72 C44 0.929 . S
H73 C45 0.931 . S
H74 C47 0.930 . S
H75 C48 0.930 . S
H76 C53 0.929 . S
H77 C54 0.931 . S
H78 C56 0.930 . S
H79 C57 0.930 . S
Tb80 C82 2.809 . S
Tb80 O100 2.484 . S
Tb80 O101 2.440 . S
Tb80 O102 2.658 . S
Tb80 O103 2.409 . S
Tb80 O104 2.378 . S
Tb80 O108 2.325 . S
Tb80 O111 2.341 . S
Tb81 C91 2.809 . S
Tb81 O102 2.325 . S
Tb81 O105 2.341 . S
Tb81 O106 2.484 . S
Tb81 O107 2.440 . S
Tb81 O108 2.658 . S
Tb81 O109 2.409 . S
Tb81 O110 2.378 . S
C82 Tb80 2.809 . S
C82 C83 1.514 . S
C82 O100 1.248 . S
C82 O101 1.266 . S
C83 C82 1.514 . S
C83 C84 1.359 . S
C83 C88 1.348 . S
C84 C83 1.359 . S
C84 C85 1.380 . S
C84 H112 0.929 . S
C85 C84 1.380 . S
C85 C86 1.347 . S
C85 H113 0.931 . S
C86 C85 1.347 . S
C86 C87 1.369 . S
C87 C86 1.369 . S
C87 C88 1.408 . S
C87 H114 0.930 . S
C88 C83 1.348 . S
C88 C87 1.408 . S
C88 H115 0.930 . S
C89 O102 1.281 . S
C89 O103 1.254 . S
C90 O104 1.236 . S
C90 O105 1.266 . S
C91 Tb81 2.809 . S
C91 C92 1.514 . S
C91 O106 1.248 . S
C91 O107 1.266 . S
C92 C91 1.514 . S
C92 C93 1.359 . S
C92 C97 1.348 . S
C93 C92 1.359 . S
C93 C94 1.380 . S
C93 H116 0.929 . S
C94 C93 1.380 . S
C94 C95 1.347 . S
C94 H117 0.931 . S
C95 C94 1.347 . S
C95 C96 1.369 . S
C96 C95 1.369 . S
C96 C97 1.408 . S
C96 H118 0.930 . S
C97 C92 1.348 . S
C97 C96 1.408 . S
C97 H119 0.930 . S
C98 O108 1.281 . S
C98 O109 1.254 . S
C99 O110 1.236 . S
C99 O111 1.266 . S
O100 Tb80 2.484 . S
O100 C82 1.248 . S
O101 Tb80 2.440 . S
O101 C82 1.266 . S
O102 Tb80 2.658 . S
O102 Tb81 2.325 . S
O102 C89 1.281 . S
O103 Tb80 2.409 . S
O103 C89 1.254 . S
O104 Tb80 2.378 . S
O104 C90 1.236 . S
O105 Tb81 2.341 . S
O105 C90 1.266 . S
O106 Tb81 2.484 . S
O106 C91 1.248 . S
O107 Tb81 2.440 . S
O107 C91 1.266 . S
O108 Tb80 2.325 . S
O108 Tb81 2.658 . S
O108 C98 1.281 . S
O109 Tb81 2.409 . S
O109 C98 1.254 . S
O110 Tb81 2.378 . S
O110 C99 1.236 . S
O111 Tb80 2.341 . S
O111 C99 1.266 . S
H112 C84 0.929 . S
H113 C85 0.931 . S
H114 C87 0.930 . S
H115 C88 0.930 . S
H116 C93 0.929 . S
H117 C94 0.931 . S
H118 C96 0.930 . S
H119 C97 0.930 . S
C120 C121 1.391 . S
C120 C124 1.391 . S
C120 H162 0.948 . S
C121 C120 1.391 . S
C121 C122 1.391 . S
C122 C121 1.391 . S
C122 H178 0.947 . S
C122 C179 1.392 . S
C123 C124 1.391 . S
C123 C127 1.397 . S
C123 C179 1.419 . S
C124 C120 1.391 . S
C124 C123 1.391 . S
C124 C125 1.399 . S
C125 C124 1.399 . S
C125 C128 1.396 . S
C125 C137 1.453 . S
C125 C138 1.684 . S
H126 C150 0.948 . S
C127 C123 1.397 . S
C127 C128 1.394 . S
C127 C146 1.723 . S
C128 C125 1.396 . S
C128 C127 1.394 . S
C128 C158 1.723 . S
H129 C152 0.947 . S
H130 C153 0.948 . S
H131 C159 0.982 . S
H132 C160 0.979 . S
H133 C160 0.980 . S
H134 C160 0.983 . S
H135 C159 0.979 . S
H136 C159 0.977 . S
C137 C125 1.453 . S
C137 H166 0.982 . S
C137 H167 0.979 . S
C137 H168 0.977 . S
C138 C125 1.684 . S
C138 H163 0.979 . S
C138 H164 0.980 . S
C138 H165 0.983 . S
C139 C140 1.391 . S
C139 C144 1.391 . S
C139 H169 0.948 . S
C140 C139 1.391 . S
C140 C141 1.391 . S
C141 C140 1.391 . S
C141 C142 1.392 . S
C141 H170 0.931 1_545 S
C142 C141 1.392 . S
C142 C143 1.419 . S
C142 H171 0.948 1_545 S
C143 C142 1.419 . S
C143 C144 1.391 . S
C143 C147 1.397 . S
C144 C139 1.391 . S
C144 C143 1.391 . S
C144 C145 1.399 . S
C145 C144 1.399 . S
C145 C146 1.396 . S
C145 C148 1.453 . S
C145 C149 1.684 . S
C146 C127 1.723 . S
C146 C145 1.396 . S
C146 C147 1.394 . S
C147 C143 1.397 . S
C147 C146 1.394 . S
C147 C157 1.723 . S
C148 C145 1.453 . S
C148 H172 0.982 . S
C148 H173 0.979 . S
C148 H174 0.977 . S
C149 C145 1.684 . S
C149 H175 0.979 . S
C149 H176 0.980 . S
C149 H177 0.983 . S
C150 H126 0.948 . S
C150 C151 1.391 . S
C150 C155 1.391 . S
C151 C150 1.391 . S
C151 C152 1.391 . S
C152 H129 0.947 . S
C152 C151 1.391 . S
C152 C153 1.392 1_565 S
C153 H130 0.948 . S
C153 C152 1.392 1_545 S
C153 C154 1.419 . S
C154 C153 1.419 . S
C154 C155 1.391 1_545 S
C154 C158 1.397 . S
C155 C150 1.391 . S
C155 C154 1.391 1_565 S
C155 C156 1.399 . S
C156 C155 1.399 . S
C156 C157 1.396 1_565 S
C156 C159 1.453 . S
C156 C160 1.684 . S
C157 C147 1.723 . S
C157 C156 1.396 1_545 S
C157 C158 1.394 . S
C158 C128 1.723 . S
C158 C154 1.397 . S
C158 C157 1.394 . S
C159 H131 0.982 . S
C159 H135 0.979 . S
C159 H136 0.977 . S
C159 C156 1.453 . S
C160 H132 0.979 . S
C160 H133 0.980 . S
C160 H134 0.983 . S
C160 C156 1.684 . S
H161 C179 0.948 . S
H162 C120 0.948 . S
H163 C138 0.979 . S
H164 C138 0.980 . S
H165 C138 0.983 . S
H166 C137 0.982 . S
H167 C137 0.979 . S
H168 C137 0.977 . S
H169 C139 0.948 . S
H170 C141 0.931 1_565 S
H171 C142 0.948 1_565 S
H172 C148 0.982 . S
H173 C148 0.979 . S
H174 C148 0.977 . S
H175 C149 0.979 . S
H176 C149 0.980 . S
H177 C149 0.983 . S
H178 C122 0.947 . S
C179 C122 1.392 . S
C179 C123 1.419 . S
C179 H161 0.948 . S
C180 C181 1.391 . S
C180 C184 1.391 . S
C180 H222 0.948 . S
C181 C180 1.391 . S
C181 C182 1.391 . S
C182 C181 1.391 . S
C182 H238 0.947 . S
C182 C239 1.392 . S
C183 C184 1.391 . S
C183 C187 1.397 . S
C183 C239 1.419 . S
C184 C180 1.391 . S
C184 C183 1.391 . S
C184 C185 1.399 . S
C185 C184 1.399 . S
C185 C188 1.396 . S
C185 C197 1.453 . S
C185 C198 1.684 . S
H186 C210 0.948 . S
C187 C183 1.397 . S
C187 C188 1.394 . S
C187 C206 1.723 . S
C188 C185 1.396 . S
C188 C187 1.394 . S
C188 C218 1.723 . S
H189 C212 0.947 . S
H190 C213 0.948 . S
H191 C219 0.982 . S
H192 C220 0.979 . S
H193 C220 0.980 . S
H194 C220 0.983 . S
H195 C219 0.979 . S
H196 C219 0.977 . S
C197 C185 1.453 . S
C197 H226 0.982 . S
C197 H227 0.979 . S
C197 H228 0.977 . S
C198 C185 1.684 . S
C198 H223 0.979 . S
C198 H224 0.980 . S
C198 H225 0.983 . S
C199 C200 1.391 . S
C199 C204 1.391 . S
C199 H229 0.948 . S
C200 C199 1.391 . S
C200 C201 1.391 . S
C201 C200 1.391 . S
C201 C202 1.392 . S
C201 H230 0.947 . S
C202 C201 1.392 . S
C202 C203 1.419 . S
C202 H231 0.948 . S
C203 C202 1.419 . S
C203 C204 1.391 . S
C203 C207 1.397 . S
C204 C199 1.391 . S
C204 C203 1.391 . S
C204 C205 1.399 . S
C205 C204 1.399 . S
C205 C206 1.396 . S
C205 C208 1.453 . S
C205 C209 1.684 . S
C206 C187 1.723 . S
C206 C205 1.396 . S
C206 C207 1.394 . S
C207 C203 1.397 . S
C207 C206 1.394 . S
C207 C217 1.723 . S
C208 C205 1.453 . S
C208 H232 0.982 . S
C208 H233 0.979 . S
C208 H234 0.977 . S
C209 C205 1.684 . S
C209 H235 0.979 . S
C209 H236 0.980 . S
C209 H237 0.983 . S
C210 H186 0.948 . S
C210 C211 1.391 . S
C210 C215 1.391 . S
C211 C210 1.391 . S
C211 C212 1.391 . S
C212 H189 0.947 . S
C212 C211 1.391 . S
C212 C213 1.392 . S
C213 H190 0.948 . S
C213 C212 1.392 . S
C213 C214 1.419 . S
C214 C213 1.419 . S
C214 C215 1.391 . S
C214 C218 1.397 . S
C215 C210 1.391 . S
C215 C214 1.391 . S
C215 C216 1.399 . S
C216 C215 1.399 . S
C216 C217 1.396 . S
C216 C219 1.453 . S
C216 C220 1.684 . S
C217 C207 1.723 . S
C217 C216 1.396 . S
C217 C218 1.394 . S
C218 C188 1.723 . S
C218 C214 1.397 . S
C218 C217 1.394 . S
C219 H191 0.982 . S
C219 H195 0.979 . S
C219 H196 0.977 . S
C219 C216 1.453 . S
C220 H192 0.979 . S
C220 H193 0.980 . S
C220 H194 0.983 . S
C220 C216 1.684 . S
H221 C239 0.948 . S
H222 C180 0.948 . S
H223 C198 0.979 . S
H224 C198 0.980 . S
H225 C198 0.983 . S
H226 C197 0.982 . S
H227 C197 0.979 . S
H228 C197 0.977 . S
H229 C199 0.948 . S
H230 C201 0.947 . S
H231 C202 0.948 . S
H232 C208 0.982 . S
H233 C208 0.979 . S
H234 C208 0.977 . S
H235 C209 0.979 . S
H236 C209 0.980 . S
H237 C209 0.983 . S
H238 C182 0.947 . S
C239 C182 1.392 . S
C239 C183 1.419 . S
C239 H221 0.948 . S
C240 C241 1.391 . S
C240 C244 1.391 . S
C240 H282 0.948 . S
C241 C240 1.391 . S
C241 C242 1.391 . S
C242 C241 1.391 . S
C242 H298 0.947 . S
C242 C299 1.392 . S
C243 C244 1.391 . S
C243 C247 1.397 . S
C243 C299 1.419 . S
C244 C240 1.391 . S
C244 C243 1.391 . S
C244 C245 1.399 . S
C245 C244 1.399 . S
C245 C248 1.396 . S
C245 C257 1.453 . S
C245 C258 1.684 . S
H246 C270 0.948 . S
C247 C243 1.397 . S
C247 C248 1.394 . S
C247 C266 1.723 . S
C248 C245 1.396 . S
C248 C247 1.394 . S
C248 C278 1.723 1_455 S
H249 C272 0.947 . S
H250 C273 0.948 . S
H251 C279 0.982 . S
H252 C280 0.979 . S
H253 C280 0.980 . S
H254 C280 0.983 . S
H255 C279 0.979 . S
H256 C279 0.977 . S
C257 C245 1.453 . S
C257 H286 0.982 . S
C257 H287 0.979 . S
C257 H288 0.977 1_455 S
C258 C245 1.684 . S
C258 H283 0.979 . S
C258 H284 0.980 . S
C258 H285 0.983 . S
C259 C260 1.391 . S
C259 C264 1.391 . S
C259 H289 0.948 . S
C260 C259 1.391 . S
C260 C261 1.391 1_455 S
C261 C260 1.391 1_655 S
C261 C262 1.392 . S
C261 H290 0.947 . S
C262 C261 1.392 . S
C262 C263 1.384 1_655 S
C262 H291 0.948 . S
C263 C262 1.384 1_455 S
C263 C264 1.429 . S
C263 C267 1.403 . S
C264 C259 1.391 . S
C264 C263 1.429 . S
C264 C265 1.399 . S
C265 C264 1.399 . S
C265 C266 1.396 . S
C265 C268 1.453 . S
C265 C269 1.684 . S
C266 C247 1.723 . S
C266 C265 1.396 . S
C266 C267 1.394 . S
C267 C263 1.403 . S
C267 C266 1.394 . S
C267 C277 1.723 1_455 S
C268 C265 1.453 . S
C268 H292 0.982 . S
C268 H293 0.979 . S
C268 H294 0.977 . S
C269 C265 1.684 . S
C269 H295 0.979 . S
C269 H296 0.980 . S
C269 H297 0.983 . S
C270 H246 0.948 . S
C270 C271 1.391 . S
C270 C275 1.391 . S
C271 C270 1.391 . S
C271 C272 1.391 . S
C272 H249 0.947 . S
C272 C271 1.391 . S
C272 C273 1.392 . S
C273 H250 0.948 . S
C273 C272 1.392 . S
C273 C274 1.419 . S
C274 C273 1.419 . S
C274 C275 1.391 . S
C274 C278 1.397 . S
C275 C270 1.391 . S
C275 C274 1.391 . S
C275 C276 1.399 . S
C276 C275 1.399 . S
C276 C277 1.396 . S
C276 C279 1.453 . S
C276 C280 1.684 . S
C277 C267 1.723 1_655 S
C277 C276 1.396 . S
C277 C278 1.394 . S
C278 C248 1.723 1_655 S
C278 C274 1.397 . S
C278 C277 1.394 . S
C279 H251 0.982 . S
C279 H255 0.979 . S
C279 H256 0.977 . S
C279 C276 1.453 . S
C280 H252 0.979 . S
C280 H253 0.980 . S
C280 H254 0.983 . S
C280 C276 1.684 . S
H281 C299 0.948 . S
H282 C240 0.948 . S
H283 C258 0.979 . S
H284 C258 0.980 . S
H285 C258 0.983 . S
H286 C257 0.982 . S
H287 C257 0.979 . S
H288 C257 0.977 1_655 S
H289 C259 0.948 . S
H290 C261 0.947 . S
H291 C262 0.948 . S
H292 C268 0.982 . S
H293 C268 0.979 . S
H294 C268 0.977 . S
H295 C269 0.979 . S
H296 C269 0.980 . S
H297 C269 0.983 . S
H298 C242 0.947 . S
C299 C242 1.392 . S
C299 C243 1.419 . S
C299 H281 0.948 . S
C300 C301 1.391 . S
C300 C304 1.391 . S
C300 H342 0.948 . S
C301 C300 1.391 . S
C301 C302 1.391 . S
C302 C301 1.391 . S
C302 H358 0.947 . S
C302 C359 1.392 . S
C303 C304 1.391 . S
C303 C307 1.397 1_655 S
C303 C359 1.419 . S
C304 C300 1.391 . S
C304 C303 1.391 . S
C304 C305 1.399 1_655 S
C305 C304 1.399 1_455 S
C305 C308 1.396 . S
C305 C317 1.453 . S
C305 C318 1.684 . S
H306 C330 0.948 . S
C307 C303 1.397 1_455 S
C307 C308 1.394 . S
C307 C326 1.723 . S
C308 C305 1.396 . S
C308 C307 1.394 . S
C308 C338 1.723 . S
H309 C332 0.947 . S
H310 C333 0.948 . S
H311 C339 0.982 . S
H312 C340 0.979 . S
H313 C340 0.980 . S
H314 C340 0.983 . S
H315 C339 0.979 . S
H316 C339 0.977 . S
C317 C305 1.453 . S
C317 H346 0.982 . S
C317 H347 0.979 . S
C317 H348 0.977 . S
C318 C305 1.684 . S
C318 H343 0.979 . S
C318 H344 0.980 . S
C318 H345 0.983 . S
C319 C320 1.391 . S
C319 C324 1.391 . S
C319 H349 0.948 . S
C320 C319 1.391 . S
C320 C321 1.391 . S
C321 C320 1.391 . S
C321 C322 1.392 . S
C321 H350 0.947 . S
C322 C321 1.392 . S
C322 C323 1.419 . S
C322 H351 0.948 . S
C323 C322 1.419 . S
C323 C324 1.391 . S
C323 C327 1.397 . S
C324 C319 1.391 . S
C324 C323 1.391 . S
C324 C325 1.399 . S
C325 C324 1.399 . S
C325 C326 1.396 . S
C325 C328 1.453 . S
C325 C329 1.684 1_455 S
C326 C307 1.723 . S
C326 C325 1.396 . S
C326 C327 1.394 . S
C327 C323 1.397 . S
C327 C326 1.394 . S
C327 C337 1.723 . S
C328 C325 1.453 . S
C328 H352 0.982 . S
C328 H353 0.979 1_455 S
C328 H354 0.977 1_455 S
C329 C325 1.684 1_655 S
C329 H355 0.979 . S
C329 H356 0.980 . S
C329 H357 0.983 . S
C330 H306 0.948 . S
C330 C331 1.391 . S
C330 C335 1.391 . S
C331 C330 1.391 . S
C331 C332 1.391 . S
C332 H309 0.947 . S
C332 C331 1.391 . S
C332 C333 1.392 . S
C333 H310 0.948 . S
C333 C332 1.392 . S
C333 C334 1.419 . S
C334 C333 1.419 . S
C334 C335 1.391 . S
C334 C338 1.397 . S
C335 C330 1.391 . S
C335 C334 1.391 . S
C335 C336 1.399 . S
C336 C335 1.399 . S
C336 C337 1.396 . S
C336 C339 1.453 . S
C336 C340 1.684 . S
C337 C327 1.723 . S
C337 C336 1.396 . S
C337 C338 1.394 . S
C338 C308 1.723 . S
C338 C334 1.397 . S
C338 C337 1.394 . S
C339 H311 0.982 . S
C339 H315 0.979 . S
C339 H316 0.977 . S
C339 C336 1.453 . S
C340 H312 0.979 . S
C340 H313 0.980 . S
C340 H314 0.983 . S
C340 C336 1.684 . S
H341 C359 0.948 . S
H342 C300 0.948 . S
H343 C318 0.979 . S
H344 C318 0.980 . S
H345 C318 0.983 . S
H346 C317 0.982 . S
H347 C317 0.979 . S
H348 C317 0.977 . S
H349 C319 0.948 . S
H350 C321 0.947 . S
H351 C322 0.948 . S
H352 C328 0.982 . S
H353 C328 0.979 1_655 S
H354 C328 0.977 1_655 S
H355 C329 0.979 . S
H356 C329 0.980 . S
H357 C329 0.983 . S
H358 C302 0.947 . S
C359 C302 1.392 . S
C359 C303 1.419 . S
C359 H341 0.948 . S
C360 C361 1.391 . S
C360 C364 1.391 . S
C360 H402 0.948 . S
C361 C360 1.391 . S
C361 C362 1.391 . S
C362 C361 1.391 . S
C362 H418 0.947 . S
C362 C419 1.392 . S
C363 C364 1.391 . S
C363 C367 1.397 . S
C363 C419 1.419 . S
C364 C360 1.391 . S
C364 C363 1.391 . S
C364 C365 1.399 . S
C365 C364 1.399 . S
C365 C368 1.396 . S
C365 C377 1.453 . S
C365 C378 1.684 . S
H366 C390 0.948 . S
C367 C363 1.397 . S
C367 C368 1.394 . S
C367 C386 1.723 . S
C368 C365 1.396 . S
C368 C367 1.394 . S
C368 C398 1.723 1_565 S
H369 C392 0.947 . S
H370 C393 0.948 . S
H371 C399 0.982 . S
H372 C400 0.979 . S
H373 C400 0.980 . S
H374 C400 0.983 . S
H375 C399 0.979 . S
H376 C399 0.977 . S
C377 C365 1.453 . S
C377 H406 0.982 1_565 S
C377 H407 0.979 . S
C377 H408 0.977 1_565 S
C378 C365 1.684 . S
C378 H403 0.979 . S
C378 H404 0.980 . S
C378 H405 0.983 . S
C379 C380 1.391 1_565 S
C379 C384 1.391 . S
C379 H409 0.948 . S
C380 C379 1.391 1_545 S
C380 C381 1.391 . S
C381 C380 1.391 . S
C381 C382 1.392 . S
C381 H410 0.947 . S
C382 C381 1.392 . S
C382 C383 1.419 . S
C382 H411 0.948 . S
C383 C382 1.419 . S
C383 C384 1.391 1_545 S
C383 C387 1.397 . S
C384 C379 1.391 . S
C384 C383 1.391 1_565 S
C384 C385 1.399 . S
C385 C384 1.399 . S
C385 C386 1.396 . S
C385 C388 1.453 . S
C385 C389 1.684 . S
C386 C367 1.723 . S
C386 C385 1.396 . S
C386 C387 1.394 1_565 S
C387 C383 1.397 . S
C387 C386 1.394 1_545 S
C387 C397 1.723 . S
C388 C385 1.453 . S
C388 H412 0.982 . S
C388 H413 0.979 . S
C388 H414 0.977 . S
C389 C385 1.684 . S
C389 H415 0.979 . S
C389 H416 0.980 . S
C389 H417 0.983 . S
C390 H366 0.948 . S
C390 C391 1.391 . S
C390 C395 1.391 . S
C391 C390 1.391 . S
C391 C392 1.391 . S
C392 H369 0.947 . S
C392 C391 1.391 . S
C392 C393 1.392 . S
C393 H370 0.948 . S
C393 C392 1.392 . S
C393 C394 1.419 . S
C394 C393 1.419 . S
C394 C395 1.391 . S
C394 C398 1.397 . S
C395 C390 1.391 . S
C395 C394 1.391 . S
C395 C396 1.399 . S
C396 C395 1.399 . S
C396 C397 1.396 . S
C396 C399 1.453 . S
C396 C400 1.684 . S
C397 C387 1.723 . S
C397 C396 1.396 . S
C397 C398 1.394 . S
C398 C368 1.723 1_545 S
C398 C394 1.397 . S
C398 C397 1.394 . S
C399 H371 0.982 . S
C399 H375 0.979 . S
C399 H376 0.977 . S
C399 C396 1.453 . S
C400 H372 0.979 . S
C400 H373 0.980 . S
C400 H374 0.983 . S
C400 C396 1.684 . S
H401 C419 0.948 . S
H402 C360 0.948 . S
H403 C378 0.979 . S
H404 C378 0.980 . S
H405 C378 0.983 . S
H406 C377 0.982 1_545 S
H407 C377 0.979 . S
H408 C377 0.977 1_545 S
H409 C379 0.948 . S
H410 C381 0.947 . S
H411 C382 0.948 . S
H412 C388 0.982 . S
H413 C388 0.979 . S
H414 C388 0.977 . S
H415 C389 0.979 . S
H416 C389 0.980 . S
H417 C389 0.983 . S
H418 C362 0.947 . S
C419 C362 1.392 . S
C419 C363 1.419 . S
C419 H401 0.948 . S
C420 C421 1.391 . S
C420 C424 1.391 . S
C420 H462 0.948 . S
C421 C420 1.391 . S
C421 C422 1.391 . S
C422 C421 1.391 . S
C422 H478 0.947 . S
C422 C479 1.392 . S
C423 C424 1.391 . S
C423 C427 1.397 . S
C423 C479 1.419 . S
C424 C420 1.391 . S
C424 C423 1.391 . S
C424 C425 1.399 . S
C425 C424 1.399 . S
C425 C428 1.396 . S
C425 C437 1.453 . S
C425 C438 1.684 . S
H426 C450 0.948 . S
C427 C423 1.397 . S
C427 C428 1.394 . S
C427 C446 1.723 . S
C428 C425 1.396 . S
C428 C427 1.394 . S
C428 C458 1.723 . S
H429 C452 0.947 . S
H430 C453 0.948 . S
H431 C459 0.982 . S
H432 C460 0.979 . S
H433 C460 0.980 . S
H434 C460 0.983 . S
H435 C459 0.979 . S
H436 C459 0.977 . S
C437 C425 1.453 . S
C437 H466 0.982 . S
C437 H467 0.979 . S
C437 H468 0.977 . S
C438 C425 1.684 . S
C438 H463 0.979 . S
C438 H464 0.980 . S
C438 H465 0.983 . S
C439 C440 1.391 . S
C439 C444 1.391 . S
C439 H469 0.948 . S
C440 C439 1.391 . S
C440 C441 1.391 . S
C441 C440 1.391 . S
C441 C442 1.392 . S
C441 H470 0.947 . S
C442 C441 1.392 . S
C442 C443 1.419 . S
C442 H471 0.948 . S
C443 C442 1.419 . S
C443 C444 1.391 . S
C443 C447 1.397 . S
C444 C439 1.391 . S
C444 C443 1.391 . S
C444 C445 1.399 . S
C445 C444 1.399 . S
C445 C446 1.396 . S
C445 C448 1.453 . S
C445 C449 1.684 . S
C446 C427 1.723 . S
C446 C445 1.396 . S
C446 C447 1.394 . S
C447 C443 1.397 . S
C447 C446 1.394 . S
C447 C457 1.723 . S
C448 C445 1.453 . S
C448 H472 0.982 . S
C448 H473 0.979 . S
C448 H474 0.977 . S
C449 C445 1.684 . S
C449 H475 0.979 . S
C449 H476 0.980 . S
C449 H477 0.983 . S
C450 H426 0.948 . S
C450 C451 1.391 . S
C450 C455 1.391 . S
C451 C450 1.391 . S
C451 C452 1.391 . S
C452 H429 0.947 . S
C452 C451 1.391 . S
C452 C453 1.392 . S
C453 H430 0.948 . S
C453 C452 1.392 . S
C453 C454 1.419 . S
C454 C453 1.419 . S
C454 C455 1.391 . S
C454 C458 1.397 . S
C455 C450 1.391 . S
C455 C454 1.391 . S
C455 C456 1.399 . S
C456 C455 1.399 . S
C456 C457 1.396 . S
C456 C459 1.453 . S
C456 C460 1.684 . S
C457 C447 1.723 . S
C457 C456 1.396 . S
C457 C458 1.394 . S
C458 C428 1.723 . S
C458 C454 1.397 . S
C458 C457 1.394 . S
C459 H431 0.982 . S
C459 H435 0.979 . S
C459 H436 0.977 . S
C459 C456 1.453 . S
C460 H432 0.979 . S
C460 H433 0.980 . S
C460 H434 0.983 . S
C460 C456 1.684 . S
H461 C479 0.948 . S
H462 C420 0.948 . S
H463 C438 0.979 . S
H464 C438 0.980 . S
H465 C438 0.983 . S
H466 C437 0.982 . S
H467 C437 0.979 . S
H468 C437 0.977 . S
H469 C439 0.948 . S
H470 C441 0.947 . S
H471 C442 0.948 . S
H472 C448 0.982 . S
H473 C448 0.979 . S
H474 C448 0.977 . S
H475 C449 0.979 . S
H476 C449 0.980 . S
H477 C449 0.983 . S
H478 C422 0.947 . S
C479 C422 1.392 . S
C479 C423 1.419 . S
C479 H461 0.948 . S
H480 C498 0.951 . S
H481 C500 0.951 . S
H482 C502 0.950 . S
H483 C503 0.950 . S
H484 C505 0.950 . S
H485 C508 0.950 . S
H486 C509 0.950 . S
H487 C511 0.950 . S
H488 C512 0.950 . S
H489 C513 0.951 . S
H490 C515 0.951 . S
H491 C517 0.950 . S
H492 C518 0.950 . S
H493 C520 0.950 . S
H494 C523 0.950 . S
H495 C524 0.950 . S
H496 C526 0.950 . S
H497 C527 0.950 . S
C498 H480 0.951 . S
C498 C499 1.366 . S
C498 C500 1.388 . S
C499 C498 1.366 . S
C499 C503 1.385 . S
C500 H481 0.951 . S
C500 C498 1.388 . S
C500 C501 1.366 . S
C501 C500 1.366 . S
C501 C502 1.414 . S
C501 C504 1.499 . S
C502 H482 0.950 . S
C502 C501 1.414 . S
C502 C503 1.374 . S
C503 H483 0.950 . S
C503 C499 1.385 . S
C503 C502 1.374 . S
C504 C501 1.499 . S
C504 C505 1.373 . S
C504 C506 1.389 . S
C505 H484 0.950 . S
C505 C504 1.373 . S
C505 C521 1.377 . S
C506 C504 1.389 . S
C506 C507 1.524 . S
C506 C520 1.377 . S
C507 C506 1.524 . S
C507 C508 1.397 . S
C507 C512 1.363 . S
C508 H485 0.950 . S
C508 C507 1.397 . S
C508 C509 1.334 . S
C509 H486 0.950 . S
C509 C508 1.334 . S
C509 C510 1.287 . S
C510 C509 1.287 . S
C510 C511 1.524 . S
C510 H529 0.913 . S
C511 H487 0.950 . S
C511 C510 1.524 . S
C511 C512 1.415 . S
C512 H488 0.950 . S
C512 C507 1.363 . S
C512 C511 1.415 . S
C513 H489 0.951 . S
C513 C514 1.366 . S
C513 C515 1.388 . S
C514 C513 1.366 . S
C514 C518 1.385 . S
C515 H490 0.951 . S
C515 C513 1.388 . S
C515 C516 1.366 . S
C516 C515 1.366 . S
C516 C517 1.414 . S
C516 C519 1.499 . S
C517 H491 0.950 . S
C517 C516 1.414 . S
C517 C518 1.374 . S
C518 H492 0.950 . S
C518 C514 1.385 . S
C518 C517 1.374 . S
C519 C516 1.499 . S
C519 C520 1.373 . S
C519 C521 1.389 . S
C520 H493 0.950 . S
C520 C506 1.377 . S
C520 C519 1.373 . S
C521 C505 1.377 . S
C521 C519 1.389 . S
C521 C522 1.524 . S
C522 C521 1.524 . S
C522 C523 1.397 . S
C522 C527 1.363 . S
C523 H494 0.950 . S
C523 C522 1.397 . S
C523 C524 1.334 . S
C524 H495 0.950 . S
C524 C523 1.334 . S
C524 C525 1.287 . S
C525 C524 1.287 . S
C525 C526 1.524 . S
C525 H528 0.999 . S
C526 H496 0.950 . S
C526 C525 1.524 . S
C526 C527 1.415 . S
C527 H497 0.950 . S
C527 C522 1.363 . S
C527 C526 1.415 . S
H528 C525 0.999 . S
H529 C510 0.913 . S
H530 C548 0.951 . S
H531 C550 0.951 . S
H532 C552 0.950 . S
H533 C553 0.950 . S
H534 C555 0.950 . S
H535 C558 0.950 . S
H536 C559 0.950 . S
H537 C561 0.950 . S
H538 C562 0.950 . S
H539 C563 0.951 . S
H540 C565 0.951 . S
H541 C567 0.950 . S
H542 C568 0.950 . S
H543 C570 0.950 . S
H544 C573 0.950 . S
H545 C574 0.950 . S
H546 C576 0.950 . S
H547 C577 0.950 . S
C548 H530 0.951 . S
C548 C549 1.366 . S
C548 C550 1.388 . S
C549 C548 1.366 . S
C549 C553 1.385 . S
C550 H531 0.951 . S
C550 C548 1.388 . S
C550 C551 1.366 . S
C551 C550 1.366 . S
C551 C552 1.414 . S
C551 C554 1.499 . S
C552 H532 0.950 . S
C552 C551 1.414 . S
C552 C553 1.374 . S
C553 H533 0.950 . S
C553 C549 1.385 . S
C553 C552 1.374 . S
C554 C551 1.499 . S
C554 C555 1.373 . S
C554 C556 1.389 . S
C555 H534 0.950 . S
C555 C554 1.373 . S
C555 C571 1.377 . S
C556 C554 1.389 . S
C556 C557 1.524 . S
C556 C570 1.377 . S
C557 C556 1.524 . S
C557 C558 1.397 . S
C557 C562 1.363 . S
C558 H535 0.950 . S
C558 C557 1.397 . S
C558 C559 1.334 . S
C559 H536 0.950 . S
C559 C558 1.334 . S
C559 C560 1.287 . S
C560 C559 1.287 . S
C560 C561 1.524 . S
C560 H579 0.913 . S
C561 H537 0.950 . S
C561 C560 1.524 . S
C561 C562 1.415 . S
C562 H538 0.950 . S
C562 C557 1.363 . S
C562 C561 1.415 . S
C563 H539 0.951 . S
C563 C564 1.366 . S
C563 C565 1.388 . S
C564 C563 1.366 . S
C564 C568 1.385 . S
C565 H540 0.951 . S
C565 C563 1.388 . S
C565 C566 1.366 . S
C566 C565 1.366 . S
C566 C567 1.414 . S
C566 C569 1.499 . S
C567 H541 0.950 . S
C567 C566 1.414 . S
C567 C568 1.374 . S
C568 H542 0.950 . S
C568 C564 1.385 . S
C568 C567 1.374 . S
C569 C566 1.499 . S
C569 C570 1.373 . S
C569 C571 1.389 . S
C570 H543 0.950 . S
C570 C556 1.377 . S
C570 C569 1.373 . S
C571 C555 1.377 . S
C571 C569 1.389 . S
C571 C572 1.524 . S
C572 C571 1.524 . S
C572 C573 1.397 . S
C572 C577 1.363 . S
C573 H544 0.950 . S
C573 C572 1.397 . S
C573 C574 1.334 . S
C574 H545 0.950 . S
C574 C573 1.334 . S
C574 C575 1.287 . S
C575 C574 1.287 . S
C575 C576 1.524 . S
C575 H578 0.999 . S
C576 H546 0.950 . S
C576 C575 1.524 . S
C576 C577 1.415 . S
C577 H547 0.950 . S
C577 C572 1.363 . S
C577 C576 1.415 . S
H578 C575 0.999 . S
H579 C560 0.913 . S
H580 C598 0.951 . S
H581 C600 0.951 . S
H582 C602 0.950 . S
H583 C603 0.950 . S
H584 C605 0.950 . S
H585 C608 0.950 . S
H586 C609 0.950 . S
H587 C611 0.950 . S
H588 C612 0.950 . S
H589 C613 0.951 . S
H590 C615 0.951 . S
H591 C617 0.950 . S
H592 C618 0.950 . S
H593 C620 0.950 . S
H594 C623 0.950 . S
H595 C624 0.950 . S
H596 C626 0.950 . S
H597 C627 0.950 . S
C598 H580 0.951 . S
C598 C599 1.366 . S
C598 C600 1.388 . S
C599 C598 1.366 . S
C599 C603 1.385 . S
C600 H581 0.951 . S
C600 C598 1.388 . S
C600 C601 1.366 . S
C601 C600 1.366 . S
C601 C602 1.414 . S
C601 C604 1.499 . S
C602 H582 0.950 . S
C602 C601 1.414 . S
C602 C603 1.374 . S
C603 H583 0.950 . S
C603 C599 1.385 . S
C603 C602 1.374 . S
C604 C601 1.499 . S
C604 C605 1.373 . S
C604 C606 1.389 . S
C605 H584 0.950 . S
C605 C604 1.373 . S
C605 C621 1.377 . S
C606 C604 1.389 . S
C606 C607 1.524 . S
C606 C620 1.377 . S
C607 C606 1.524 . S
C607 C608 1.397 . S
C607 C612 1.363 . S
C608 H585 0.950 . S
C608 C607 1.397 . S
C608 C609 1.334 . S
C609 H586 0.950 . S
C609 C608 1.334 . S
C609 C610 1.287 . S
C610 C609 1.287 . S
C610 C611 1.524 . S
C610 H629 0.913 . S
C611 H587 0.950 . S
C611 C610 1.524 . S
C611 C612 1.415 . S
C612 H588 0.950 . S
C612 C607 1.363 . S
C612 C611 1.415 . S
C613 H589 0.951 . S
C613 C614 1.366 . S
C613 C615 1.388 . S
C614 C613 1.366 . S
C614 C618 1.385 . S
C615 H590 0.951 . S
C615 C613 1.388 . S
C615 C616 1.366 . S
C616 C615 1.366 . S
C616 C617 1.414 . S
C616 C619 1.499 . S
C617 H591 0.950 . S
C617 C616 1.414 . S
C617 C618 1.374 . S
C618 H592 0.950 . S
C618 C614 1.385 . S
C618 C617 1.374 . S
C619 C616 1.499 . S
C619 C620 1.373 . S
C619 C621 1.389 . S
C620 H593 0.950 . S
C620 C606 1.377 . S
C620 C619 1.373 . S
C621 C605 1.377 . S
C621 C619 1.389 . S
C621 C622 1.524 . S
C622 C621 1.524 . S
C622 C623 1.397 . S
C622 C627 1.363 . S
C623 H594 0.950 . S
C623 C622 1.397 . S
C623 C624 1.334 . S
C624 H595 0.950 . S
C624 C623 1.334 . S
C624 C625 1.287 . S
C625 C624 1.287 . S
C625 C626 1.524 . S
C625 H628 0.999 . S
C626 H596 0.950 . S
C626 C625 1.524 . S
C626 C627 1.415 . S
C627 H597 0.950 . S
C627 C622 1.363 . S
C627 C626 1.415 . S
H628 C625 0.999 . S
H629 C610 0.913 . S
H630 C648 0.951 . S
H631 C650 0.951 . S
H632 C652 0.950 . S
H633 C653 0.950 . S
H634 C655 0.950 . S
H635 C658 0.950 . S
H636 C659 0.950 . S
H637 C661 0.950 . S
H638 C662 0.950 . S
H639 C663 0.951 . S
H640 C665 0.951 . S
H641 C667 0.950 . S
H642 C668 0.950 . S
H643 C670 0.950 . S
H644 C673 0.950 . S
H645 C674 0.950 . S
H646 C676 0.950 . S
H647 C677 0.950 . S
C648 H630 0.951 . S
C648 C649 1.366 . S
C648 C650 1.388 . S
C649 C648 1.366 . S
C649 C653 1.385 . S
C650 H631 0.951 . S
C650 C648 1.388 . S
C650 C651 1.366 . S
C651 C650 1.366 . S
C651 C652 1.414 . S
C651 C654 1.499 . S
C652 H632 0.950 . S
C652 C651 1.414 . S
C652 C653 1.374 . S
C653 H633 0.950 . S
C653 C649 1.385 . S
C653 C652 1.374 . S
C654 C651 1.499 . S
C654 C655 1.373 . S
C654 C656 1.389 . S
C655 H634 0.950 . S
C655 C654 1.373 . S
C655 C671 1.377 . S
C656 C654 1.389 . S
C656 C657 1.524 . S
C656 C670 1.377 . S
C657 C656 1.524 . S
C657 C658 1.397 . S
C657 C662 1.363 . S
C658 H635 0.950 . S
C658 C657 1.397 . S
C658 C659 1.334 . S
C659 H636 0.950 . S
C659 C658 1.334 . S
C659 C660 1.287 . S
C660 C659 1.287 . S
C660 C661 1.524 . S
C660 H679 0.913 . S
C661 H637 0.950 . S
C661 C660 1.524 . S
C661 C662 1.415 . S
C662 H638 0.950 . S
C662 C657 1.363 . S
C662 C661 1.415 . S
C663 H639 0.951 . S
C663 C664 1.366 . S
C663 C665 1.388 . S
C664 C663 1.366 . S
C664 C668 1.385 . S
C665 H640 0.951 . S
C665 C663 1.388 . S
C665 C666 1.366 . S
C666 C665 1.366 . S
C666 C667 1.414 . S
C666 C669 1.499 . S
C667 H641 0.950 . S
C667 C666 1.414 . S
C667 C668 1.374 . S
C668 H642 0.950 . S
C668 C664 1.385 . S
C668 C667 1.374 . S
C669 C666 1.499 . S
C669 C670 1.373 . S
C669 C671 1.389 . S
C670 H643 0.950 . S
C670 C656 1.377 . S
C670 C669 1.373 . S
C671 C655 1.377 . S
C671 C669 1.389 . S
C671 C672 1.524 . S
C672 C671 1.524 . S
C672 C673 1.397 . S
C672 C677 1.363 . S
C673 H644 0.950 . S
C673 C672 1.397 . S
C673 C674 1.334 . S
C674 H645 0.950 . S
C674 C673 1.334 . S
C674 C675 1.287 . S
C675 C674 1.287 . S
C675 C676 1.524 . S
C675 H678 0.999 . S
C676 H646 0.950 . S
C676 C675 1.524 . S
C676 C677 1.415 . S
C677 H647 0.950 . S
C677 C672 1.363 . S
C677 C676 1.415 . S
H678 C675 0.999 . S
H679 C660 0.913 . S
H680 C698 0.951 . S
H681 C700 0.951 . S
H682 C702 0.950 . S
H683 C703 0.950 . S
H684 C705 0.950 . S
H685 C708 0.950 . S
H686 C709 0.950 . S
H687 C711 0.950 . S
H688 C712 0.950 . S
H689 C713 0.951 . S
H690 C715 0.951 . S
H691 C717 0.950 . S
H692 C718 0.950 . S
H693 C720 0.950 . S
H694 C723 0.950 . S
H695 C724 0.950 . S
H696 C726 0.950 . S
H697 C727 0.950 . S
C698 H680 0.951 . S
C698 C699 1.366 . S
C698 C700 1.388 . S
C699 C698 1.366 . S
C699 C703 1.385 . S
C700 H681 0.951 . S
C700 C698 1.388 . S
C700 C701 1.366 . S
C701 C700 1.366 . S
C701 C702 1.414 . S
C701 C704 1.499 . S
C702 H682 0.950 . S
C702 C701 1.414 . S
C702 C703 1.374 . S
C703 H683 0.950 . S
C703 C699 1.385 . S
C703 C702 1.374 . S
C704 C701 1.499 . S
C704 C705 1.373 . S
C704 C706 1.389 . S
C705 H684 0.950 . S
C705 C704 1.373 . S
C705 C721 1.377 . S
C706 C704 1.389 . S
C706 C707 1.524 . S
C706 C720 1.377 . S
C707 C706 1.524 . S
C707 C708 1.397 . S
C707 C712 1.363 . S
C708 H685 0.950 . S
C708 C707 1.397 . S
C708 C709 1.334 . S
C709 H686 0.950 . S
C709 C708 1.334 . S
C709 C710 1.287 . S
C710 C709 1.287 . S
C710 C711 1.524 . S
C710 H729 0.913 . S
C711 H687 0.950 . S
C711 C710 1.524 . S
C711 C712 1.415 . S
C712 H688 0.950 . S
C712 C707 1.363 . S
C712 C711 1.415 . S
C713 H689 0.951 . S
C713 C714 1.366 . S
C713 C715 1.388 . S
C714 C713 1.366 . S
C714 C718 1.385 . S
C715 H690 0.951 . S
C715 C713 1.388 . S
C715 C716 1.366 . S
C716 C715 1.366 . S
C716 C717 1.414 . S
C716 C719 1.499 . S
C717 H691 0.950 . S
C717 C716 1.414 . S
C717 C718 1.374 . S
C718 H692 0.950 . S
C718 C714 1.385 . S
C718 C717 1.374 . S
C719 C716 1.499 . S
C719 C720 1.373 . S
C719 C721 1.389 . S
C720 H693 0.950 . S
C720 C706 1.377 . S
C720 C719 1.373 . S
C721 C705 1.377 . S
C721 C719 1.389 . S
C721 C722 1.524 . S
C722 C721 1.524 . S
C722 C723 1.397 . S
C722 C727 1.363 . S
C723 H694 0.950 . S
C723 C722 1.397 . S
C723 C724 1.334 . S
C724 H695 0.950 . S
C724 C723 1.334 . S
C724 C725 1.287 . S
C725 C724 1.287 . S
C725 C726 1.524 . S
C725 H728 0.999 . S
C726 H696 0.950 . S
C726 C725 1.524 . S
C726 C727 1.415 . S
C727 H697 0.950 . S
C727 C722 1.363 . S
C727 C726 1.415 . S
H728 C725 0.999 . S
H729 C710 0.913 . S
H730 C748 0.951 . S
H731 C750 0.951 . S
H732 C752 0.950 . S
H733 C753 0.950 . S
H734 C755 0.950 . S
H735 C758 0.950 . S
H736 C759 0.950 . S
H737 C761 0.950 . S
H738 C762 0.950 . S
H739 C763 0.951 . S
H740 C765 0.951 . S
H741 C767 0.950 . S
H742 C768 0.950 . S
H743 C770 0.950 . S
H744 C773 0.950 . S
H745 C774 0.950 . S
H746 C776 0.950 . S
H747 C777 0.950 . S
C748 H730 0.951 . S
C748 C749 1.366 . S
C748 C750 1.388 . S
C749 C748 1.366 . S
C749 C753 1.385 . S
C750 H731 0.951 . S
C750 C748 1.388 . S
C750 C751 1.366 . S
C751 C750 1.366 . S
C751 C752 1.414 . S
C751 C754 1.499 . S
C752 H732 0.950 . S
C752 C751 1.414 . S
C752 C753 1.374 . S
C753 H733 0.950 . S
C753 C749 1.385 . S
C753 C752 1.374 . S
C754 C751 1.499 . S
C754 C755 1.373 . S
C754 C756 1.389 . S
C755 H734 0.950 . S
C755 C754 1.373 . S
C755 C771 1.377 . S
C756 C754 1.389 . S
C756 C757 1.524 . S
C756 C770 1.377 . S
C757 C756 1.524 . S
C757 C758 1.397 . S
C757 C762 1.363 . S
C758 H735 0.950 . S
C758 C757 1.397 . S
C758 C759 1.334 . S
C759 H736 0.950 . S
C759 C758 1.334 . S
C759 C760 1.287 . S
C760 C759 1.287 . S
C760 C761 1.524 . S
C760 H779 0.913 . S
C761 H737 0.950 . S
C761 C760 1.524 . S
C761 C762 1.415 . S
C762 H738 0.950 . S
C762 C757 1.363 . S
C762 C761 1.415 . S
C763 H739 0.951 . S
C763 C764 1.366 . S
C763 C765 1.388 . S
C764 C763 1.366 . S
C764 C768 1.385 . S
C765 H740 0.951 . S
C765 C763 1.388 . S
C765 C766 1.366 . S
C766 C765 1.366 . S
C766 C767 1.414 . S
C766 C769 1.499 . S
C767 H741 0.950 . S
C767 C766 1.414 . S
C767 C768 1.374 . S
C768 H742 0.950 . S
C768 C764 1.385 . S
C768 C767 1.374 . S
C769 C766 1.499 . S
C769 C770 1.373 . S
C769 C771 1.389 . S
C770 H743 0.950 . S
C770 C756 1.377 . S
C770 C769 1.373 . S
C771 C755 1.377 . S
C771 C769 1.389 . S
C771 C772 1.524 . S
C772 C771 1.524 . S
C772 C773 1.397 . S
C772 C777 1.363 . S
C773 H744 0.950 . S
C773 C772 1.397 . S
C773 C774 1.334 . S
C774 H745 0.950 . S
C774 C773 1.334 . S
C774 C775 1.287 . S
C775 C774 1.287 . S
C775 C776 1.524 . S
C775 H778 0.999 . S
C776 H746 0.950 . S
C776 C775 1.524 . S
C776 C777 1.415 . S
C777 H747 0.950 . S
C777 C772 1.363 . S
C777 C776 1.415 . S
H778 C775 0.999 . S
H779 C760 0.913 . S
H780 C798 0.951 . S
H781 C800 0.951 . S
H782 C802 0.950 . S
H783 C803 0.950 . S
H784 C805 0.950 . S
H785 C808 0.950 . S
H786 C809 0.950 . S
H787 C811 0.950 . S
H788 C812 0.950 . S
H789 C813 0.951 . S
H790 C815 0.951 . S
H791 C817 0.950 . S
H792 C818 0.950 . S
H793 C820 0.950 . S
H794 C823 0.950 . S
H795 C824 0.950 . S
H796 C826 0.950 . S
H797 C827 0.950 . S
C798 H780 0.951 . S
C798 C799 1.366 . S
C798 C800 1.388 . S
C799 C798 1.366 . S
C799 C803 1.385 . S
C800 H781 0.951 . S
C800 C798 1.388 . S
C800 C801 1.366 . S
C801 C800 1.366 . S
C801 C802 1.414 . S
C801 C804 1.499 . S
C802 H782 0.950 . S
C802 C801 1.414 . S
C802 C803 1.374 . S
C803 H783 0.950 . S
C803 C799 1.385 . S
C803 C802 1.374 . S
C804 C801 1.499 . S
C804 C805 1.373 . S
C804 C806 1.389 . S
C805 H784 0.950 . S
C805 C804 1.373 . S
C805 C821 1.377 . S
C806 C804 1.389 . S
C806 C807 1.524 . S
C806 C820 1.377 . S
C807 C806 1.524 . S
C807 C808 1.397 . S
C807 C812 1.363 . S
C808 H785 0.950 . S
C808 C807 1.397 . S
C808 C809 1.334 . S
C809 H786 0.950 . S
C809 C808 1.334 . S
C809 C810 1.287 . S
C810 C809 1.287 . S
C810 C811 1.524 . S
C810 H829 0.913 . S
C811 H787 0.950 . S
C811 C810 1.524 . S
C811 C812 1.415 . S
C812 H788 0.950 . S
C812 C807 1.363 . S
C812 C811 1.415 . S
C813 H789 0.951 . S
C813 C814 1.366 . S
C813 C815 1.388 . S
C814 C813 1.366 . S
C814 C818 1.385 . S
C815 H790 0.951 . S
C815 C813 1.388 . S
C815 C816 1.366 . S
C816 C815 1.366 . S
C816 C817 1.414 . S
C816 C819 1.499 . S
C817 H791 0.950 . S
C817 C816 1.414 . S
C817 C818 1.374 . S
C818 H792 0.950 . S
C818 C814 1.385 . S
C818 C817 1.374 . S
C819 C816 1.499 . S
C819 C820 1.373 . S
C819 C821 1.389 . S
C820 H793 0.950 . S
C820 C806 1.377 . S
C820 C819 1.373 . S
C821 C805 1.377 . S
C821 C819 1.389 . S
C821 C822 1.524 . S
C822 C821 1.524 . S
C822 C823 1.397 . S
C822 C827 1.363 . S
C823 H794 0.950 . S
C823 C822 1.397 . S
C823 C824 1.334 . S
C824 H795 0.950 . S
C824 C823 1.334 . S
C824 C825 1.287 . S
C825 C824 1.287 . S
C825 C826 1.524 . S
C825 H828 0.999 . S
C826 H796 0.950 . S
C826 C825 1.524 . S
C826 C827 1.415 . S
C827 H797 0.950 . S
C827 C822 1.363 . S
C827 C826 1.415 . S
H828 C825 0.999 . S
H829 C810 0.913 . S
H830 C848 0.951 . S
H831 C850 0.951 . S
H832 C852 0.950 . S
H833 C853 0.950 . S
H834 C855 0.950 . S
H835 C858 0.950 . S
H836 C859 0.950 . S
H837 C861 0.950 . S
H838 C862 0.950 . S
H839 C863 0.951 . S
H840 C865 0.951 . S
H841 C867 0.950 . S
H842 C868 0.950 . S
H843 C870 0.950 . S
H844 C873 0.950 . S
H845 C874 0.950 . S
H846 C876 0.950 . S
H847 C877 0.950 . S
C848 H830 0.951 . S
C848 C849 1.366 . S
C848 C850 1.388 . S
C849 C848 1.366 . S
C849 C853 1.385 . S
C850 H831 0.951 . S
C850 C848 1.388 . S
C850 C851 1.366 . S
C851 C850 1.366 . S
C851 C852 1.414 . S
C851 C854 1.499 . S
C852 H832 0.950 . S
C852 C851 1.414 . S
C852 C853 1.374 . S
C853 H833 0.950 . S
C853 C849 1.385 . S
C853 C852 1.374 . S
C854 C851 1.499 . S
C854 C855 1.373 . S
C854 C856 1.389 . S
C855 H834 0.950 . S
C855 C854 1.373 . S
C855 C871 1.377 . S
C856 C854 1.389 . S
C856 C857 1.524 . S
C856 C870 1.377 . S
C857 C856 1.524 . S
C857 C858 1.397 . S
C857 C862 1.363 . S
C858 H835 0.950 . S
C858 C857 1.397 . S
C858 C859 1.334 . S
C859 H836 0.950 . S
C859 C858 1.334 . S
C859 C860 1.287 . S
C860 C859 1.287 . S
C860 C861 1.524 . S
C860 H879 0.913 . S
C861 H837 0.950 . S
C861 C860 1.524 . S
C861 C862 1.415 . S
C862 H838 0.950 . S
C862 C857 1.363 . S
C862 C861 1.415 . S
C863 H839 0.951 . S
C863 C864 1.366 . S
C863 C865 1.388 . S
C864 C863 1.366 . S
C864 C868 1.385 . S
C865 H840 0.951 . S
C865 C863 1.388 . S
C865 C866 1.366 . S
C866 C865 1.366 . S
C866 C867 1.414 . S
C866 C869 1.499 . S
C867 H841 0.950 . S
C867 C866 1.414 . S
C867 C868 1.374 . S
C868 H842 0.950 . S
C868 C864 1.385 . S
C868 C867 1.374 . S
C869 C866 1.499 . S
C869 C870 1.373 . S
C869 C871 1.389 . S
C870 H843 0.950 . S
C870 C856 1.377 . S
C870 C869 1.373 . S
C871 C855 1.377 . S
C871 C869 1.389 . S
C871 C872 1.524 . S
C872 C871 1.524 . S
C872 C873 1.397 . S
C872 C877 1.363 . S
C873 H844 0.950 . S
C873 C872 1.397 . S
C873 C874 1.334 . S
C874 H845 0.950 . S
C874 C873 1.334 . S
C874 C875 1.287 . S
C875 C874 1.287 . S
C875 C876 1.524 . S
C875 H878 0.999 . S
C876 H846 0.950 . S
C876 C875 1.524 . S
C876 C877 1.415 . S
C877 H847 0.950 . S
C877 C872 1.363 . S
C877 C876 1.415 . S
H878 C875 0.999 . S
H879 C860 0.913 . S
H880 C898 0.951 . S
H881 C900 0.951 . S
H882 C902 0.950 . S
H883 C903 0.950 . S
H884 C905 0.950 . S
H885 C908 0.950 . S
H886 C909 0.950 . S
H887 C911 0.950 . S
H888 C912 0.950 . S
H889 C913 0.951 . S
H890 C915 0.951 . S
H891 C917 0.950 . S
H892 C918 0.950 . S
H893 C920 0.950 . S
H894 C923 0.950 . S
H895 C924 0.950 . S
H896 C926 0.950 . S
H897 C927 0.950 . S
C898 H880 0.951 . S
C898 C899 1.366 . S
C898 C900 1.388 . S
C899 C898 1.366 . S
C899 C903 1.385 . S
C900 H881 0.951 . S
C900 C898 1.388 . S
C900 C901 1.366 . S
C901 C900 1.366 . S
C901 C902 1.414 . S
C901 C904 1.499 . S
C902 H882 0.950 . S
C902 C901 1.414 . S
C902 C903 1.374 . S
C903 H883 0.950 . S
C903 C899 1.385 . S
C903 C902 1.374 . S
C904 C901 1.499 . S
C904 C905 1.373 . S
C904 C906 1.389 . S
C905 H884 0.950 . S
C905 C904 1.373 . S
C905 C921 1.377 . S
C906 C904 1.389 . S
C906 C907 1.524 . S
C906 C920 1.377 . S
C907 C906 1.524 . S
C907 C908 1.397 . S
C907 C912 1.363 . S
C908 H885 0.950 . S
C908 C907 1.397 . S
C908 C909 1.334 . S
C909 H886 0.950 . S
C909 C908 1.334 . S
C909 C910 1.287 . S
C910 C909 1.287 . S
C910 C911 1.524 . S
C910 H929 0.913 . S
C911 H887 0.950 . S
C911 C910 1.524 . S
C911 C912 1.415 . S
C912 H888 0.950 . S
C912 C907 1.363 . S
C912 C911 1.415 . S
C913 H889 0.951 . S
C913 C914 1.366 . S
C913 C915 1.388 . S
C914 C913 1.366 . S
C914 C918 1.385 . S
C915 H890 0.951 . S
C915 C913 1.388 . S
C915 C916 1.366 . S
C916 C915 1.366 . S
C916 C917 1.414 . S
C916 C919 1.499 . S
C917 H891 0.950 . S
C917 C916 1.414 . S
C917 C918 1.374 . S
C918 H892 0.950 . S
C918 C914 1.385 . S
C918 C917 1.374 . S
C919 C916 1.499 . S
C919 C920 1.373 . S
C919 C921 1.389 . S
C920 H893 0.950 . S
C920 C906 1.377 . S
C920 C919 1.373 . S
C921 C905 1.377 . S
C921 C919 1.389 . S
C921 C922 1.524 . S
C922 C921 1.524 . S
C922 C923 1.397 . S
C922 C927 1.363 . S
C923 H894 0.950 . S
C923 C922 1.397 . S
C923 C924 1.334 . S
C924 H895 0.950 . S
C924 C923 1.334 . S
C924 C925 1.287 . S
C925 C924 1.287 . S
C925 C926 1.524 . S
C925 H928 0.999 . S
C926 H896 0.950 . S
C926 C925 1.524 . S
C926 C927 1.415 . S
C927 H897 0.950 . S
C927 C922 1.363 . S
C927 C926 1.415 . S
H928 C925 0.999 . S
H929 C910 0.913 . S
H930 C948 0.951 . S
H931 C950 0.951 . S
H932 C952 0.950 . S
H933 C953 0.950 . S
H934 C955 0.950 . S
H935 C958 0.950 . S
H936 C959 0.950 . S
H937 C961 0.950 . S
H938 C962 0.950 . S
H939 C963 0.951 . S
H940 C965 0.951 . S
H941 C967 0.950 . S
H942 C968 0.950 . S
H943 C970 0.950 . S
H944 C973 0.950 . S
H945 C974 0.950 . S
H946 C976 0.950 . S
H947 C977 0.950 . S
C948 H930 0.951 . S
C948 C949 1.366 . S
C948 C950 1.388 . S
C949 C948 1.366 . S
C949 C953 1.385 . S
C950 H931 0.951 . S
C950 C948 1.388 . S
C950 C951 1.366 . S
C951 C950 1.366 . S
C951 C952 1.414 . S
C951 C954 1.499 . S
C952 H932 0.950 . S
C952 C951 1.414 . S
C952 C953 1.374 . S
C953 H933 0.950 . S
C953 C949 1.385 . S
C953 C952 1.374 . S
C954 C951 1.499 . S
C954 C955 1.373 . S
C954 C956 1.389 . S
C955 H934 0.950 . S
C955 C954 1.373 . S
C955 C971 1.377 . S
C956 C954 1.389 . S
C956 C957 1.524 . S
C956 C970 1.377 . S
C957 C956 1.524 . S
C957 C958 1.397 . S
C957 C962 1.363 . S
C958 H935 0.950 . S
C958 C957 1.397 . S
C958 C959 1.334 . S
C959 H936 0.950 . S
C959 C958 1.334 . S
C959 C960 1.287 . S
C960 C959 1.287 . S
C960 C961 1.524 . S
C960 H979 0.913 . S
C961 H937 0.950 . S
C961 C960 1.524 . S
C961 C962 1.415 . S
C962 H938 0.950 . S
C962 C957 1.363 . S
C962 C961 1.415 . S
C963 H939 0.951 . S
C963 C964 1.366 . S
C963 C965 1.388 . S
C964 C963 1.366 . S
C964 C968 1.385 . S
C965 H940 0.951 . S
C965 C963 1.388 . S
C965 C966 1.366 . S
C966 C965 1.366 . S
C966 C967 1.414 . S
C966 C969 1.499 . S
C967 H941 0.950 . S
C967 C966 1.414 . S
C967 C968 1.374 . S
C968 H942 0.950 . S
C968 C964 1.385 . S
C968 C967 1.374 . S
C969 C966 1.499 . S
C969 C970 1.373 . S
C969 C971 1.389 . S
C970 H943 0.950 . S
C970 C956 1.377 . S
C970 C969 1.373 . S
C971 C955 1.377 . S
C971 C969 1.389 . S
C971 C972 1.524 . S
C972 C971 1.524 . S
C972 C973 1.397 . S
C972 C977 1.363 . S
C973 H944 0.950 . S
C973 C972 1.397 . S
C973 C974 1.334 . S
C974 H945 0.950 . S
C974 C973 1.334 . S
C974 C975 1.287 . S
C975 C974 1.287 . S
C975 C976 1.524 . S
C975 H978 0.999 . S
C976 H946 0.950 . S
C976 C975 1.524 . S
C976 C977 1.415 . S
C977 H947 0.950 . S
C977 C972 1.363 . S
C977 C976 1.415 . S
H978 C975 0.999 . S
H979 C960 0.913 . S
H980 C998 0.951 . S
H981 C1000 0.951 . S
H982 C1002 0.950 . S
H983 C1003 0.950 . S
H984 C1005 0.950 . S
H985 C1008 0.950 . S
H986 C1009 0.950 . S
H987 C1011 0.950 . S
H988 C1012 0.950 . S
H989 C1013 0.951 . S
H990 C1015 0.951 . S
H991 C1017 0.950 . S
H992 C1018 0.950 . S
H993 C1020 0.950 . S
H994 C1023 0.950 . S
H995 C1024 0.950 . S
H996 C1026 0.950 . S
H997 C1027 0.950 . S
C998 H980 0.951 . S
C998 C999 1.366 . S
C998 C1000 1.388 . S
C999 C998 1.366 . S
C999 C1003 1.385 . S
C1000 H981 0.951 . S
C1000 C998 1.388 . S
C1000 C1001 1.366 . S
C1001 C1000 1.366 . S
C1001 C1002 1.414 . S
C1001 C1004 1.499 . S
C1002 H982 0.950 . S
C1002 C1001 1.414 . S
C1002 C1003 1.374 . S
C1003 H983 0.950 . S
C1003 C999 1.385 . S
C1003 C1002 1.374 . S
C1004 C1001 1.499 . S
C1004 C1005 1.373 . S
C1004 C1006 1.389 . S
C1005 H984 0.950 . S
C1005 C1004 1.373 . S
C1005 C1021 1.377 . S
C1006 C1004 1.389 . S
C1006 C1007 1.524 . S
C1006 C1020 1.377 . S
C1007 C1006 1.524 . S
C1007 C1008 1.397 . S
C1007 C1012 1.363 . S
C1008 H985 0.950 . S
C1008 C1007 1.397 . S
C1008 C1009 1.334 . S
C1009 H986 0.950 . S
C1009 C1008 1.334 . S
C1009 C1010 1.287 . S
C1010 C1009 1.287 . S
C1010 C1011 1.524 . S
C1010 H1029 0.913 . S
C1011 H987 0.950 . S
C1011 C1010 1.524 . S
C1011 C1012 1.415 . S
C1012 H988 0.950 . S
C1012 C1007 1.363 . S
C1012 C1011 1.415 . S
C1013 H989 0.951 . S
C1013 C1014 1.366 . S
C1013 C1015 1.388 . S
C1014 C1013 1.366 . S
C1014 C1018 1.385 . S
C1015 H990 0.951 . S
C1015 C1013 1.388 . S
C1015 C1016 1.366 . S
C1016 C1015 1.366 . S
C1016 C1017 1.414 . S
C1016 C1019 1.499 . S
C1017 H991 0.950 . S
C1017 C1016 1.414 . S
C1017 C1018 1.374 . S
C1018 H992 0.950 . S
C1018 C1014 1.385 . S
C1018 C1017 1.374 . S
C1019 C1016 1.499 . S
C1019 C1020 1.373 . S
C1019 C1021 1.389 . S
C1020 H993 0.950 . S
C1020 C1006 1.377 . S
C1020 C1019 1.373 . S
C1021 C1005 1.377 . S
C1021 C1019 1.389 . S
C1021 C1022 1.524 . S
C1022 C1021 1.524 . S
C1022 C1023 1.397 . S
C1022 C1027 1.363 . S
C1023 H994 0.950 . S
C1023 C1022 1.397 . S
C1023 C1024 1.334 . S
C1024 H995 0.950 . S
C1024 C1023 1.334 . S
C1024 C1025 1.287 . S
C1025 C1024 1.287 . S
C1025 C1026 1.524 . S
C1025 H1028 0.999 . S
C1026 H996 0.950 . S
C1026 C1025 1.524 . S
C1026 C1027 1.415 . S
C1027 H997 0.950 . S
C1027 C1022 1.363 . S
C1027 C1026 1.415 . S
H1028 C1025 0.999 . S
H1029 C1010 0.913 . S
H1030 C1048 0.951 . S
H1031 C1050 0.951 . S
H1032 C1052 0.950 . S
H1033 C1053 0.950 . S
H1034 C1055 0.950 . S
H1035 C1058 0.950 . S
H1036 C1059 0.950 . S
H1037 C1061 0.950 . S
H1038 C1062 0.950 . S
H1039 C1063 0.951 . S
H1040 C1065 0.951 . S
H1041 C1067 0.950 . S
H1042 C1068 0.950 . S
H1043 C1070 0.950 . S
H1044 C1073 0.950 . S
H1045 C1074 0.950 . S
H1046 C1076 0.950 . S
H1047 C1077 0.950 . S
C1048 H1030 0.951 . S
C1048 C1049 1.366 . S
C1048 C1050 1.388 . S
C1049 C1048 1.366 . S
C1049 C1053 1.385 . S
C1050 H1031 0.951 . S
C1050 C1048 1.388 . S
C1050 C1051 1.366 . S
C1051 C1050 1.366 . S
C1051 C1052 1.414 . S
C1051 C1054 1.499 . S
C1052 H1032 0.950 . S
C1052 C1051 1.414 . S
C1052 C1053 1.374 . S
C1053 H1033 0.950 . S
C1053 C1049 1.385 . S
C1053 C1052 1.374 . S
C1054 C1051 1.499 . S
C1054 C1055 1.373 . S
C1054 C1056 1.389 . S
C1055 H1034 0.950 . S
C1055 C1054 1.373 . S
C1055 C1071 1.377 . S
C1056 C1054 1.389 . S
C1056 C1057 1.524 . S
C1056 C1070 1.377 . S
C1057 C1056 1.524 . S
C1057 C1058 1.397 . S
C1057 C1062 1.363 . S
C1058 H1035 0.950 . S
C1058 C1057 1.397 . S
C1058 C1059 1.334 . S
C1059 H1036 0.950 . S
C1059 C1058 1.334 . S
C1059 C1060 1.287 . S
C1060 C1059 1.287 . S
C1060 C1061 1.524 . S
C1060 H1079 0.913 . S
C1061 H1037 0.950 . S
C1061 C1060 1.524 . S
C1061 C1062 1.415 . S
C1062 H1038 0.950 . S
C1062 C1057 1.363 . S
C1062 C1061 1.415 . S
C1063 H1039 0.951 . S
C1063 C1064 1.366 . S
C1063 C1065 1.388 . S
C1064 C1063 1.366 . S
C1064 C1068 1.385 . S
C1065 H1040 0.951 . S
C1065 C1063 1.388 . S
C1065 C1066 1.366 . S
C1066 C1065 1.366 . S
C1066 C1067 1.414 . S
C1066 C1069 1.499 . S
C1067 H1041 0.950 . S
C1067 C1066 1.414 . S
C1067 C1068 1.374 . S
C1068 H1042 0.950 . S
C1068 C1064 1.385 . S
C1068 C1067 1.374 . S
C1069 C1066 1.499 . S
C1069 C1070 1.373 . S
C1069 C1071 1.389 . S
C1070 H1043 0.950 . S
C1070 C1056 1.377 . S
C1070 C1069 1.373 . S
C1071 C1055 1.377 . S
C1071 C1069 1.389 . S
C1071 C1072 1.524 . S
C1072 C1071 1.524 . S
C1072 C1073 1.397 . S
C1072 C1077 1.363 . S
C1073 H1044 0.950 . S
C1073 C1072 1.397 . S
C1073 C1074 1.334 . S
C1074 H1045 0.950 . S
C1074 C1073 1.334 . S
C1074 C1075 1.287 . S
C1075 C1074 1.287 . S
C1075 C1076 1.524 . S
C1075 H1078 0.999 . S
C1076 H1046 0.950 . S
C1076 C1075 1.524 . S
C1076 C1077 1.415 . S
C1077 H1047 0.950 . S
C1077 C1072 1.363 . S
C1077 C1076 1.415 . S
H1078 C1075 0.999 . S
H1079 C1060 0.913 . S
H1080 C1098 0.951 . S
H1081 C1100 0.951 . S
H1082 C1102 0.950 . S
H1083 C1103 0.950 . S
H1084 C1105 0.950 1_655 S
H1085 C1108 0.950 . S
H1086 C1109 0.950 . S
H1087 C1111 0.950 . S
H1088 C1112 0.950 . S
H1089 C1113 0.951 . S
H1090 C1115 0.951 . S
H1091 C1117 0.950 . S
H1092 C1118 0.950 . S
H1093 C1120 0.950 . S
H1094 C1123 0.950 . S
H1095 C1124 0.950 1_455 S
H1096 C1126 0.950 . S
H1097 C1127 0.950 . S
C1098 H1080 0.951 . S
C1098 C1099 1.366 . S
C1098 C1100 1.388 . S
C1099 C1098 1.366 . S
C1099 C1103 1.385 1_455 S
C1100 H1081 0.951 . S
C1100 C1098 1.388 . S
C1100 C1101 1.366 . S
C1101 C1100 1.366 . S
C1101 C1102 1.414 1_455 S
C1101 C1104 1.499 . S
C1102 H1082 0.950 . S
C1102 C1101 1.414 1_655 S
C1102 C1103 1.374 . S
C1103 H1083 0.950 . S
C1103 C1099 1.385 1_655 S
C1103 C1102 1.374 . S
C1104 C1101 1.499 . S
C1104 C1105 1.373 . S
C1104 C1106 1.389 . S
C1105 H1084 0.950 1_455 S
C1105 C1104 1.373 . S
C1105 C1121 1.377 . S
C1106 C1104 1.389 . S
C1106 C1107 1.524 . S
C1106 C1120 1.377 . S
C1107 C1106 1.524 . S
C1107 C1108 1.397 . S
C1107 C1112 1.363 . S
C1108 H1085 0.950 . S
C1108 C1107 1.397 . S
C1108 C1109 1.334 . S
C1109 H1086 0.950 . S
C1109 C1108 1.334 . S
C1109 C1110 1.287 . S
C1110 C1109 1.287 . S
C1110 C1111 1.524 . S
C1110 H1129 0.913 . S
C1111 H1087 0.950 . S
C1111 C1110 1.524 . S
C1111 C1112 1.415 . S
C1112 H1088 0.950 . S
C1112 C1107 1.363 . S
C1112 C1111 1.415 . S
C1113 H1089 0.951 . S
C1113 C1114 1.366 1_655 S
C1113 C1115 1.388 1_556 S
C1114 C1113 1.366 1_455 S
C1114 C1118 1.385 . S
C1115 H1090 0.951 . S
C1115 C1113 1.388 1_554 S
C1115 C1116 1.366 1_655 S
C1116 C1115 1.366 1_455 S
C1116 C1117 1.414 . S
C1116 C1119 1.499 . S
C1117 H1091 0.950 . S
C1117 C1116 1.414 . S
C1117 C1118 1.374 1_554 S
C1118 H1092 0.950 . S
C1118 C1114 1.385 . S
C1118 C1117 1.374 1_556 S
C1119 C1116 1.499 . S
C1119 C1120 1.373 . S
C1119 C1121 1.389 . S
C1120 H1093 0.950 . S
C1120 C1106 1.377 . S
C1120 C1119 1.373 . S
C1121 C1105 1.377 . S
C1121 C1119 1.389 . S
C1121 C1122 1.524 1_455 S
C1122 C1121 1.524 1_655 S
C1122 C1123 1.397 1_655 S
C1122 C1127 1.363 . S
C1123 H1094 0.950 . S
C1123 C1122 1.397 1_455 S
C1123 C1124 1.334 1_455 S
C1124 H1095 0.950 1_655 S
C1124 C1123 1.334 1_655 S
C1124 C1125 1.287 . S
C1125 C1124 1.287 . S
C1125 C1126 1.524 . S
C1125 H1128 0.999 . S
C1126 H1096 0.950 . S
C1126 C1125 1.524 . S
C1126 C1127 1.415 . S
C1127 H1097 0.950 . S
C1127 C1122 1.363 . S
C1127 C1126 1.415 . S
H1128 C1125 0.999 . S
H1129 C1110 0.913 . S
H1130 C1148 0.951 . S
H1131 C1150 0.951 . S
H1132 C1152 0.950 . S
H1133 C1153 0.950 . S
H1134 C1155 0.950 . S
H1135 C1158 0.950 . S
H1136 C1159 0.950 . S
H1137 C1161 0.950 . S
H1138 C1162 0.950 . S
H1139 C1163 0.951 . S
H1140 C1165 0.951 . S
H1141 C1167 0.950 . S
H1142 C1168 0.950 . S
H1143 C1170 0.950 1_565 S
H1144 C1173 0.950 . S
H1145 C1174 0.950 . S
H1146 C1176 0.950 . S
H1147 C1177 0.950 . S
C1148 H1130 0.951 . S
C1148 C1149 1.366 . S
C1148 C1150 1.388 . S
C1149 C1148 1.366 . S
C1149 C1153 1.385 . S
C1150 H1131 0.951 . S
C1150 C1148 1.388 . S
C1150 C1151 1.366 . S
C1151 C1150 1.366 . S
C1151 C1152 1.414 . S
C1151 C1154 1.499 . S
C1152 H1132 0.950 . S
C1152 C1151 1.414 . S
C1152 C1153 1.374 . S
C1153 H1133 0.950 . S
C1153 C1149 1.385 . S
C1153 C1152 1.374 . S
C1154 C1151 1.499 . S
C1154 C1155 1.373 . S
C1154 C1156 1.389 . S
C1155 H1134 0.950 . S
C1155 C1154 1.373 . S
C1155 C1171 1.377 . S
C1156 C1154 1.389 . S
C1156 C1157 1.524 1_545 S
C1156 C1170 1.377 . S
C1157 C1156 1.524 1_565 S
C1157 C1158 1.397 . S
C1157 C1162 1.363 . S
C1158 H1135 0.950 . S
C1158 C1157 1.397 . S
C1158 C1159 1.334 . S
C1159 H1136 0.950 . S
C1159 C1158 1.334 . S
C1159 C1160 1.287 . S
C1160 C1159 1.287 . S
C1160 C1161 1.524 . S
C1160 H1179 0.913 . S
C1161 H1137 0.950 . S
C1161 C1160 1.524 . S
C1161 C1162 1.415 . S
C1162 H1138 0.950 . S
C1162 C1157 1.363 . S
C1162 C1161 1.415 . S
C1163 H1139 0.951 . S
C1163 C1164 1.366 . S
C1163 C1165 1.388 . S
C1164 C1163 1.366 . S
C1164 C1168 1.385 . S
C1165 H1140 0.951 . S
C1165 C1163 1.388 . S
C1165 C1166 1.366 . S
C1166 C1165 1.366 . S
C1166 C1167 1.414 . S
C1166 C1169 1.499 . S
C1167 H1141 0.950 . S
C1167 C1166 1.414 . S
C1167 C1168 1.374 . S
C1168 H1142 0.950 . S
C1168 C1164 1.385 . S
C1168 C1167 1.374 . S
C1169 C1166 1.499 . S
C1169 C1170 1.373 . S
C1169 C1171 1.389 . S
C1170 H1143 0.950 1_545 S
C1170 C1156 1.377 . S
C1170 C1169 1.373 . S
C1171 C1155 1.377 . S
C1171 C1169 1.389 . S
C1171 C1172 1.524 . S
C1172 C1171 1.524 . S
C1172 C1173 1.397 . S
C1172 C1177 1.363 . S
C1173 H1144 0.950 . S
C1173 C1172 1.397 . S
C1173 C1174 1.334 . S
C1174 H1145 0.950 . S
C1174 C1173 1.334 . S
C1174 C1175 1.287 . S
C1175 C1174 1.287 . S
C1175 C1176 1.524 . S
C1175 H1178 0.999 . S
C1176 H1146 0.950 . S
C1176 C1175 1.524 . S
C1176 C1177 1.415 . S
C1177 H1147 0.950 . S
C1177 C1172 1.363 . S
C1177 C1176 1.415 . S
H1178 C1175 0.999 . S
H1179 C1160 0.913 . S
H1180 C1198 0.951 . S
H1181 C1200 0.951 . S
H1182 C1202 0.950 . S
H1183 C1203 0.950 . S
H1184 C1205 0.950 . S
H1185 C1208 0.950 . S
H1186 C1209 0.950 . S
H1187 C1211 0.950 . S
H1188 C1212 0.950 . S
H1189 C1213 0.951 . S
H1190 C1215 0.951 . S
H1191 C1217 0.950 . S
H1192 C1218 0.950 . S
H1193 C1220 0.950 . S
H1194 C1223 0.950 . S
H1195 C1224 0.950 . S
H1196 C1226 0.950 . S
H1197 C1227 0.950 . S
C1198 H1180 0.951 . S
C1198 C1199 1.366 . S
C1198 C1200 1.388 . S
C1199 C1198 1.366 . S
C1199 C1203 1.385 . S
C1200 H1181 0.951 . S
C1200 C1198 1.388 . S
C1200 C1201 1.366 . S
C1201 C1200 1.366 . S
C1201 C1202 1.414 . S
C1201 C1204 1.499 . S
C1202 H1182 0.950 . S
C1202 C1201 1.414 . S
C1202 C1203 1.374 . S
C1203 H1183 0.950 . S
C1203 C1199 1.385 . S
C1203 C1202 1.374 . S
C1204 C1201 1.499 . S
C1204 C1205 1.373 . S
C1204 C1206 1.389 . S
C1205 H1184 0.950 . S
C1205 C1204 1.373 . S
C1205 C1221 1.377 . S
C1206 C1204 1.389 . S
C1206 C1207 1.524 . S
C1206 C1220 1.377 . S
C1207 C1206 1.524 . S
C1207 C1208 1.397 . S
C1207 C1212 1.363 . S
C1208 H1185 0.950 . S
C1208 C1207 1.397 . S
C1208 C1209 1.334 . S
C1209 H1186 0.950 . S
C1209 C1208 1.334 . S
C1209 C1210 1.287 . S
C1210 C1209 1.287 . S
C1210 C1211 1.524 . S
C1210 H1229 0.913 . S
C1211 H1187 0.950 . S
C1211 C1210 1.524 . S
C1211 C1212 1.415 . S
C1212 H1188 0.950 . S
C1212 C1207 1.363 . S
C1212 C1211 1.415 . S
C1213 H1189 0.951 . S
C1213 C1214 1.366 . S
C1213 C1215 1.388 . S
C1214 C1213 1.366 . S
C1214 C1218 1.385 . S
C1215 H1190 0.951 . S
C1215 C1213 1.388 . S
C1215 C1216 1.366 . S
C1216 C1215 1.366 . S
C1216 C1217 1.414 . S
C1216 C1219 1.499 . S
C1217 H1191 0.950 . S
C1217 C1216 1.414 . S
C1217 C1218 1.374 . S
C1218 H1192 0.950 . S
C1218 C1214 1.385 . S
C1218 C1217 1.374 . S
C1219 C1216 1.499 . S
C1219 C1220 1.373 . S
C1219 C1221 1.389 . S
C1220 H1193 0.950 . S
C1220 C1206 1.377 . S
C1220 C1219 1.373 . S
C1221 C1205 1.377 . S
C1221 C1219 1.389 . S
C1221 C1222 1.524 . S
C1222 C1221 1.524 . S
C1222 C1223 1.397 . S
C1222 C1227 1.363 . S
C1223 H1194 0.950 . S
C1223 C1222 1.397 . S
C1223 C1224 1.334 . S
C1224 H1195 0.950 . S
C1224 C1223 1.334 . S
C1224 C1225 1.287 . S
C1225 C1224 1.287 . S
C1225 C1226 1.524 . S
C1225 H1228 0.999 . S
C1226 H1196 0.950 . S
C1226 C1225 1.524 . S
C1226 C1227 1.415 . S
C1227 H1197 0.950 . S
C1227 C1222 1.363 . S
C1227 C1226 1.415 . S
H1228 C1225 0.999 . S
H1229 C1210 0.913 . S
H1230 C1248 0.951 . S
H1231 C1250 0.951 . S
H1232 C1252 0.956 . S
H1233 C1253 0.950 1_565 S
H1234 C1255 0.950 . S
H1235 C1258 0.950 . S
H1236 C1259 0.950 . S
H1237 C1261 0.950 . S
H1238 C1262 0.950 . S
H1239 C1263 0.951 . S
H1240 C1265 0.951 . S
H1241 C1267 0.950 . S
H1242 C1268 0.950 . S
H1243 C1270 0.950 . S
H1244 C1273 0.950 . S
H1245 C1274 0.950 . S
H1246 C1276 0.950 1_565 S
H1247 C1277 0.950 1_565 S
C1248 H1230 0.951 . S
C1248 C1249 1.366 . S
C1248 C1250 1.388 . S
C1249 C1248 1.366 . S
C1249 C1253 1.385 . S
C1250 H1231 0.951 . S
C1250 C1248 1.388 . S
C1250 C1251 1.366 . S
C1251 C1250 1.366 . S
C1251 C1252 1.410 1_545 S
C1251 C1254 1.499 . S
C1252 H1232 0.956 . S
C1252 C1251 1.410 1_565 S
C1252 C1253 1.373 1_565 S
C1253 H1233 0.950 1_545 S
C1253 C1249 1.385 . S
C1253 C1252 1.373 1_545 S
C1254 C1251 1.499 . S
C1254 C1255 1.373 . S
C1254 C1256 1.389 . S
C1255 H1234 0.950 . S
C1255 C1254 1.373 . S
C1255 C1271 1.377 . S
C1256 C1254 1.389 . S
C1256 C1257 1.524 . S
C1256 C1270 1.377 . S
C1257 C1256 1.524 . S
C1257 C1258 1.397 1_545 S
C1257 C1262 1.363 . S
C1258 H1235 0.950 . S
C1258 C1257 1.397 1_565 S
C1258 C1259 1.334 . S
C1259 H1236 0.950 . S
C1259 C1258 1.334 . S
C1259 C1260 1.287 . S
C1260 C1259 1.287 . S
C1260 C1261 1.524 1_565 S
C1260 H1279 0.913 . S
C1261 H1237 0.950 . S
C1261 C1260 1.524 1_545 S
C1261 C1262 1.415 . S
C1262 H1238 0.950 . S
C1262 C1257 1.363 . S
C1262 C1261 1.415 . S
C1263 H1239 0.951 . S
C1263 C1264 1.366 1_565 S
C1263 C1265 1.388 . S
C1264 C1263 1.366 1_545 S
C1264 C1268 1.385 . S
C1265 H1240 0.951 . S
C1265 C1263 1.388 . S
C1265 C1266 1.366 1_565 S
C1266 C1265 1.366 1_545 S
C1266 C1267 1.414 . S
C1266 C1269 1.499 . S
C1267 H1241 0.950 . S
C1267 C1266 1.414 . S
C1267 C1268 1.374 . S
C1268 H1242 0.950 . S
C1268 C1264 1.385 . S
C1268 C1267 1.374 . S
C1269 C1266 1.499 . S
C1269 C1270 1.373 . S
C1269 C1271 1.389 . S
C1270 H1243 0.950 . S
C1270 C1256 1.377 . S
C1270 C1269 1.373 . S
C1271 C1255 1.377 . S
C1271 C1269 1.389 . S
C1271 C1272 1.524 . S
C1272 C1271 1.524 . S
C1272 C1273 1.397 . S
C1272 C1277 1.363 . S
C1273 H1244 0.950 . S
C1273 C1272 1.397 . S
C1273 C1274 1.334 . S
C1274 H1245 0.950 . S
C1274 C1273 1.334 . S
C1274 C1275 1.287 . S
C1275 C1274 1.287 . S
C1275 C1276 1.524 . S
C1275 H1278 0.999 . S
C1276 H1246 0.950 1_545 S
C1276 C1275 1.524 . S
C1276 C1277 1.415 . S
C1277 H1247 0.950 1_545 S
C1277 C1272 1.363 . S
C1277 C1276 1.415 . S
H1278 C1275 0.999 . S
H1279 C1260 0.913 . S
H1280 C1298 0.951 . S
H1281 C1300 0.951 . S
H1282 C1302 0.950 . S
H1283 C1303 0.950 . S
H1284 C1305 0.950 . S
H1285 C1308 0.950 . S
H1286 C1309 0.950 . S
H1287 C1311 0.950 . S
H1288 C1312 0.950 . S
H1289 C1313 0.951 . S
H1290 C1315 0.951 . S
H1291 C1317 0.950 . S
H1292 C1318 0.950 . S
H1293 C1320 0.950 . S
H1294 C1323 0.950 . S
H1295 C1324 0.950 . S
H1296 C1326 0.950 . S
H1297 C1327 0.950 . S
C1298 H1280 0.951 . S
C1298 C1299 1.366 . S
C1298 C1300 1.388 . S
C1299 C1298 1.366 . S
C1299 C1303 1.385 . S
C1300 H1281 0.951 . S
C1300 C1298 1.388 . S
C1300 C1301 1.366 . S
C1301 C1300 1.366 . S
C1301 C1302 1.414 . S
C1301 C1304 1.499 . S
C1302 H1282 0.950 . S
C1302 C1301 1.414 . S
C1302 C1303 1.374 . S
C1303 H1283 0.950 . S
C1303 C1299 1.385 . S
C1303 C1302 1.374 . S
C1304 C1301 1.499 . S
C1304 C1305 1.373 . S
C1304 C1306 1.389 . S
C1305 H1284 0.950 . S
C1305 C1304 1.373 . S
C1305 C1321 1.377 . S
C1306 C1304 1.389 . S
C1306 C1307 1.524 . S
C1306 C1320 1.377 . S
C1307 C1306 1.524 . S
C1307 C1308 1.397 . S
C1307 C1312 1.363 . S
C1308 H1285 0.950 . S
C1308 C1307 1.397 . S
C1308 C1309 1.334 . S
C1309 H1286 0.950 . S
C1309 C1308 1.334 . S
C1309 C1310 1.287 . S
C1310 C1309 1.287 . S
C1310 C1311 1.524 . S
C1310 H1329 0.913 . S
C1311 H1287 0.950 . S
C1311 C1310 1.524 . S
C1311 C1312 1.415 . S
C1312 H1288 0.950 . S
C1312 C1307 1.363 . S
C1312 C1311 1.415 . S
C1313 H1289 0.951 . S
C1313 C1314 1.366 . S
C1313 C1315 1.388 1_554 S
C1314 C1313 1.366 . S
C1314 C1318 1.385 . S
C1315 H1290 0.951 . S
C1315 C1313 1.388 1_556 S
C1315 C1316 1.366 . S
C1316 C1315 1.366 . S
C1316 C1317 1.414 . S
C1316 C1319 1.499 . S
C1317 H1291 0.950 . S
C1317 C1316 1.414 . S
C1317 C1318 1.374 1_556 S
C1318 H1292 0.950 . S
C1318 C1314 1.385 . S
C1318 C1317 1.374 1_554 S
C1319 C1316 1.499 . S
C1319 C1320 1.373 . S
C1319 C1321 1.389 . S
C1320 H1293 0.950 . S
C1320 C1306 1.377 . S
C1320 C1319 1.373 . S
C1321 C1305 1.377 . S
C1321 C1319 1.389 . S
C1321 C1322 1.524 . S
C1322 C1321 1.524 . S
C1322 C1323 1.397 . S
C1322 C1327 1.363 . S
C1323 H1294 0.950 . S
C1323 C1322 1.397 . S
C1323 C1324 1.334 . S
C1324 H1295 0.950 . S
C1324 C1323 1.334 . S
C1324 C1325 1.287 . S
C1325 C1324 1.287 . S
C1325 C1326 1.524 . S
C1325 H1328 0.999 . S
C1326 H1296 0.950 . S
C1326 C1325 1.524 . S
C1326 C1327 1.415 . S
C1327 H1297 0.950 . S
C1327 C1322 1.363 . S
C1327 C1326 1.415 . S
H1328 C1325 0.999 . S
H1329 C1310 0.913 . S
H1330 C1348 0.951 . S
H1331 C1350 0.951 . S
H1332 C1352 0.950 . S
H1333 C1353 0.950 . S
H1334 C1355 0.950 . S
H1335 C1358 0.950 . S
H1336 C1359 0.950 . S
H1337 C1361 0.950 . S
H1338 C1362 0.950 1_455 S
H1339 C1363 0.951 . S
H1340 C1365 0.951 . S
H1341 C1367 0.950 . S
H1342 C1368 0.950 . S
H1343 C1370 0.950 . S
H1344 C1373 0.950 . S
H1345 C1374 0.950 . S
H1346 C1376 0.950 . S
H1347 C1377 0.950 . S
C1348 H1330 0.951 . S
C1348 C1349 1.366 . S
C1348 C1350 1.388 . S
C1349 C1348 1.366 . S
C1349 C1353 1.385 . S
C1350 H1331 0.951 . S
C1350 C1348 1.388 . S
C1350 C1351 1.366 . S
C1351 C1350 1.366 . S
C1351 C1352 1.414 . S
C1351 C1354 1.499 . S
C1352 H1332 0.950 . S
C1352 C1351 1.414 . S
C1352 C1353 1.374 . S
C1353 H1333 0.950 . S
C1353 C1349 1.385 . S
C1353 C1352 1.374 . S
C1354 C1351 1.499 . S
C1354 C1355 1.373 . S
C1354 C1356 1.389 . S
C1355 H1334 0.950 . S
C1355 C1354 1.373 . S
C1355 C1371 1.377 . S
C1356 C1354 1.389 . S
C1356 C1357 1.524 1_455 S
C1356 C1370 1.377 . S
C1357 C1356 1.524 1_655 S
C1357 C1358 1.397 . S
C1357 C1362 1.363 . S
C1358 H1335 0.950 . S
C1358 C1357 1.397 . S
C1358 C1359 1.334 . S
C1359 H1336 0.950 . S
C1359 C1358 1.334 . S
C1359 C1360 1.287 . S
C1360 C1359 1.287 . S
C1360 C1361 1.524 . S
C1360 H1379 0.913 . S
C1361 H1337 0.950 . S
C1361 C1360 1.524 . S
C1361 C1362 1.415 . S
C1362 H1338 0.950 1_655 S
C1362 C1357 1.363 . S
C1362 C1361 1.415 . S
C1363 H1339 0.951 . S
C1363 C1364 1.366 . S
C1363 C1365 1.388 . S
C1364 C1363 1.366 . S
C1364 C1368 1.385 . S
C1365 H1340 0.951 . S
C1365 C1363 1.388 . S
C1365 C1366 1.366 . S
C1366 C1365 1.366 . S
C1366 C1367 1.414 . S
C1366 C1369 1.499 . S
C1367 H1341 0.950 . S
C1367 C1366 1.414 . S
C1367 C1368 1.374 . S
C1368 H1342 0.950 . S
C1368 C1364 1.385 . S
C1368 C1367 1.374 . S
C1369 C1366 1.499 . S
C1369 C1370 1.373 . S
C1369 C1371 1.389 . S
C1370 H1343 0.950 . S
C1370 C1356 1.377 . S
C1370 C1369 1.373 . S
C1371 C1355 1.377 . S
C1371 C1369 1.389 . S
C1371 C1372 1.524 . S
C1372 C1371 1.524 . S
C1372 C1373 1.397 . S
C1372 C1377 1.363 . S
C1373 H1344 0.950 . S
C1373 C1372 1.397 . S
C1373 C1374 1.334 . S
C1374 H1345 0.950 . S
C1374 C1373 1.334 . S
C1374 C1375 1.287 . S
C1375 C1374 1.287 . S
C1375 C1376 1.524 . S
C1375 H1378 0.999 . S
C1376 H1346 0.950 . S
C1376 C1375 1.524 . S
C1376 C1377 1.415 . S
C1377 H1347 0.950 . S
C1377 C1372 1.363 . S
C1377 C1376 1.415 . S
H1378 C1375 0.999 . S
H1379 C1360 0.913 . S
C499 C10 2.938 . S
C514 C451 2.956 . S
C549 C59 3.032 . S
C564 C301 2.876 . S
C599 C90 2.938 . S
C614 C361 2.805 . S
C649 C19 3.032 . S
C664 C421 2.876 . S
C714 C331 2.957 . S
C699 C50 2.938 . S
C764 C391 3.026 . S
C749 C99 3.032 . S
C799 C46 0.345 . S
C814 C181 0.487 . S
C849 C95 0.309 . S
C864 C271 0.253 . S
C899 C6 0.346 . S
C914 C151 0.297 . S
C964 C211 0.253 . S
C949 C55 0.310 . S
C1014 C241 0.484 . S
C999 C86 0.344 . S
C1049 C15 0.310 . S
C1064 C121 0.404 . S
C1114 C260 1.077 . S
C1099 C9 1.074 . S
C1149 C49 1.074 . S
C1164 C140 1.086 . S
C1199 C89 1.073 . S
C1214 C200 1.078 . S
C1264 C380 1.752 . S
C1249 C58 1.699 . S
C1314 C440 1.753 . S
C1299 C98 1.700 . S
C1349 C18 1.700 . S
C1364 C320 1.753 . S
