# Generated by pormake.
# Topology ctn, (3,4)-cn, num edge types: 1
# Building blocks:
#     Node 0, Type 0, BuildingBlock: QEWDON_clean_linker_0, # of connection points: 3
#     Node 1, Type 0, BuildingBlock: QEWDON_clean_linker_0, # of connection points: 3
#     Node 2, Type 0, BuildingBlock: QEWDON_clean_linker_0, # of connection points: 3
#     Node 3, Type 0, BuildingBlock: QEWDON_clean_linker_0, # of connection points: 3
#     Node 4, Type 0, BuildingBlock: QEWDON_clean_linker_0, # of connection points: 3
#     Node 5, Type 0, BuildingBlock: QEWDON_clean_linker_0, # of connection points: 3
#     Node 6, Type 0, BuildingBlock: QEWDON_clean_linker_0, # of connection points: 3
#     Node 7, Type 0, BuildingBlock: QEWDON_clean_linker_0, # of connection points: 3
#     Node 8, Type 0, BuildingBlock: QEWDON_clean_linker_0, # of connection points: 3
#     Node 9, Type 0, BuildingBlock: QEWDON_clean_linker_0, # of connection points: 3
#     Node 10, Type 0, BuildingBlock: QEWDON_clean_linker_0, # of connection points: 3
#     Node 11, Type 0, BuildingBlock: QEWDON_clean_linker_0, # of connection points: 3
#     Node 12, Type 0, BuildingBlock: QEWDON_clean_linker_0, # of connection points: 3
#     Node 13, Type 0, BuildingBlock: QEWDON_clean_linker_0, # of connection points: 3
#     Node 14, Type 0, BuildingBlock: QEWDON_clean_linker_0, # of connection points: 3
#     Node 15, Type 0, BuildingBlock: QEWDON_clean_linker_0, # of connection points: 3
#     Node 16, Type 1, BuildingBlock: TATPOV_clean_sbu_0, # of connection points: 4
#     Node 17, Type 1, BuildingBlock: TATPOV_clean_sbu_0, # of connection points: 4
#     Node 18, Type 1, BuildingBlock: TATPOV_clean_sbu_0, # of connection points: 4
#     Node 19, Type 1, BuildingBlock: TATPOV_clean_sbu_0, # of connection points: 4
#     Node 20, Type 1, BuildingBlock: TATPOV_clean_sbu_0, # of connection points: 4
#     Node 21, Type 1, BuildingBlock: TATPOV_clean_sbu_0, # of connection points: 4
#     Node 22, Type 1, BuildingBlock: TATPOV_clean_sbu_0, # of connection points: 4
#     Node 23, Type 1, BuildingBlock: TATPOV_clean_sbu_0, # of connection points: 4
#     Node 24, Type 1, BuildingBlock: TATPOV_clean_sbu_0, # of connection points: 4
#     Node 25, Type 1, BuildingBlock: TATPOV_clean_sbu_0, # of connection points: 4
#     Node 26, Type 1, BuildingBlock: TATPOV_clean_sbu_0, # of connection points: 4
#     Node 27, Type 1, BuildingBlock: TATPOV_clean_sbu_0, # of connection points: 4
#     Edge 28, Type (0, 1), BuildingBlock: KIFKEQ_clean_linker_1, # of connection points: 2
#     Edge 29, Type (0, 1), BuildingBlock: KIFKEQ_clean_linker_1, # of connection points: 2
#     Edge 30, Type (0, 1), BuildingBlock: KIFKEQ_clean_linker_1, # of connection points: 2
#     Edge 31, Type (0, 1), BuildingBlock: KIFKEQ_clean_linker_1, # of connection points: 2
#     Edge 32, Type (0, 1), BuildingBlock: KIFKEQ_clean_linker_1, # of connection points: 2
#     Edge 33, Type (0, 1), BuildingBlock: KIFKEQ_clean_linker_1, # of connection points: 2
#     Edge 34, Type (0, 1), BuildingBlock: KIFKEQ_clean_linker_1, # of connection points: 2
#     Edge 35, Type (0, 1), BuildingBlock: KIFKEQ_clean_linker_1, # of connection points: 2
#     Edge 36, Type (0, 1), BuildingBlock: KIFKEQ_clean_linker_1, # of connection points: 2
#     Edge 37, Type (0, 1), BuildingBlock: KIFKEQ_clean_linker_1, # of connection points: 2
#     Edge 38, Type (0, 1), BuildingBlock: KIFKEQ_clean_linker_1, # of connection points: 2
#     Edge 39, Type (0, 1), BuildingBlock: KIFKEQ_clean_linker_1, # of connection points: 2
#     Edge 40, Type (0, 1), BuildingBlock: KIFKEQ_clean_linker_1, # of connection points: 2
#     Edge 41, Type (0, 1), BuildingBlock: KIFKEQ_clean_linker_1, # of connection points: 2
#     Edge 42, Type (0, 1), BuildingBlock: KIFKEQ_clean_linker_1, # of connection points: 2
#     Edge 43, Type (0, 1), BuildingBlock: KIFKEQ_clean_linker_1, # of connection points: 2
#     Edge 44, Type (0, 1), BuildingBlock: KIFKEQ_clean_linker_1, # of connection points: 2
#     Edge 45, Type (0, 1), BuildingBlock: KIFKEQ_clean_linker_1, # of connection points: 2
#     Edge 46, Type (0, 1), BuildingBlock: KIFKEQ_clean_linker_1, # of connection points: 2
#     Edge 47, Type (0, 1), BuildingBlock: KIFKEQ_clean_linker_1, # of connection points: 2
#     Edge 48, Type (0, 1), BuildingBlock: KIFKEQ_clean_linker_1, # of connection points: 2
#     Edge 49, Type (0, 1), BuildingBlock: KIFKEQ_clean_linker_1, # of connection points: 2
#     Edge 50, Type (0, 1), BuildingBlock: KIFKEQ_clean_linker_1, # of connection points: 2
#     Edge 51, Type (0, 1), BuildingBlock: KIFKEQ_clean_linker_1, # of connection points: 2
#     Edge 52, Type (0, 1), BuildingBlock: KIFKEQ_clean_linker_1, # of connection points: 2
#     Edge 53, Type (0, 1), BuildingBlock: KIFKEQ_clean_linker_1, # of connection points: 2
#     Edge 54, Type (0, 1), BuildingBlock: KIFKEQ_clean_linker_1, # of connection points: 2
#     Edge 55, Type (0, 1), BuildingBlock: KIFKEQ_clean_linker_1, # of connection points: 2
#     Edge 56, Type (0, 1), BuildingBlock: KIFKEQ_clean_linker_1, # of connection points: 2
#     Edge 57, Type (0, 1), BuildingBlock: KIFKEQ_clean_linker_1, # of connection points: 2
#     Edge 58, Type (0, 1), BuildingBlock: KIFKEQ_clean_linker_1, # of connection points: 2
#     Edge 59, Type (0, 1), BuildingBlock: KIFKEQ_clean_linker_1, # of connection points: 2
#     Edge 60, Type (0, 1), BuildingBlock: KIFKEQ_clean_linker_1, # of connection points: 2
#     Edge 61, Type (0, 1), BuildingBlock: KIFKEQ_clean_linker_1, # of connection points: 2
#     Edge 62, Type (0, 1), BuildingBlock: KIFKEQ_clean_linker_1, # of connection points: 2
#     Edge 63, Type (0, 1), BuildingBlock: KIFKEQ_clean_linker_1, # of connection points: 2
#     Edge 64, Type (0, 1), BuildingBlock: KIFKEQ_clean_linker_1, # of connection points: 2
#     Edge 65, Type (0, 1), BuildingBlock: KIFKEQ_clean_linker_1, # of connection points: 2
#     Edge 66, Type (0, 1), BuildingBlock: KIFKEQ_clean_linker_1, # of connection points: 2
#     Edge 67, Type (0, 1), BuildingBlock: KIFKEQ_clean_linker_1, # of connection points: 2
#     Edge 68, Type (0, 1), BuildingBlock: KIFKEQ_clean_linker_1, # of connection points: 2
#     Edge 69, Type (0, 1), BuildingBlock: KIFKEQ_clean_linker_1, # of connection points: 2
#     Edge 70, Type (0, 1), BuildingBlock: KIFKEQ_clean_linker_1, # of connection points: 2
#     Edge 71, Type (0, 1), BuildingBlock: KIFKEQ_clean_linker_1, # of connection points: 2
#     Edge 72, Type (0, 1), BuildingBlock: KIFKEQ_clean_linker_1, # of connection points: 2
#     Edge 73, Type (0, 1), BuildingBlock: KIFKEQ_clean_linker_1, # of connection points: 2
#     Edge 74, Type (0, 1), BuildingBlock: KIFKEQ_clean_linker_1, # of connection points: 2
#     Edge 75, Type (0, 1), BuildingBlock: KIFKEQ_clean_linker_1, # of connection points: 2
# Relax obj value: 0.113
# Max RMSD: 0.278
# Mean RMSD: 0.152
data_MOF--net-ctn--node1-TATPOV_clean_sbu_0--node2-QEWDON_clean_linker_0--edge1-KIFKEQ_clean_linker_1
_symmetry_space_group_name_H-M    P1
_symmetry_Int_Tables_number       1
_symmetry_cell_setting            triclinic
loop_
_symmetry_equiv_pos_as_xyz
'x, y, z'
_cell_length_a     53.409836
_cell_length_b     56.08958
_cell_length_c     59.73536
_cell_angle_alpha  99.767856
_cell_angle_beta   92.773267
_cell_angle_gamma 97.119466
loop_
_atom_site_label
_atom_site_type_symbol
_atom_site_fract_x
_atom_site_fract_y
_atom_site_fract_z
_atom_type_partial_charge
H0 H 0.10592 0.02801 0.04161 0.0
C1 C 0.09224 0.0238 0.05367 0.0
C2 C 0.09265 0.00255 0.0634 0.0
C3 C 0.07527 0.04046 0.06041 0.0
H4 H 0.07543 0.98191 0.08752 0.0
C5 C 0.07506 0.99789 0.07963 0.0
C6 C 0.05757 0.01422 0.08632 0.0
C7 C 0.05793 0.03536 0.07649 0.0
C8 C 0.07852 0.06518 0.05411 0.0
H9 H 0.04547 0.04867 0.08222 0.0
C10 C 0.07625 0.06901 0.03129 0.0
C11 C 0.08 0.09302 0.02645 0.0
C12 C 0.08441 0.08547 0.07173 0.0
H13 H 0.08639 0.08303 0.08931 0.0
C14 C 0.08817 0.10904 0.06696 0.0
H15 H 0.07166 0.05355 0.01752 0.0
C16 C 0.08605 0.11281 0.04455 0.0
H17 H 0.08889 0.13137 0.04133 0.0
H18 H 0.09277 0.12448 0.08071 0.0
H19 H 0.34399 0.73861 0.24734 0.0
C20 C 0.32953 0.72285 0.24341 0.0
C21 C 0.33419 0.70063 0.24958 0.0
C22 C 0.30622 0.72495 0.23238 0.0
H23 H 0.31832 0.6638 0.25076 0.0
C24 C 0.3151 0.68055 0.24499 0.0
C25 C 0.29134 0.68248 0.23467 0.0
C26 C 0.28725 0.70469 0.22797 0.0
C27 C 0.30078 0.74919 0.22819 0.0
H28 H 0.26902 0.70655 0.22016 0.0
C29 C 0.29613 0.75393 0.20597 0.0
C30 C 0.29268 0.77771 0.20269 0.0
C31 C 0.30102 0.76809 0.24693 0.0
H32 H 0.30443 0.7648 0.26411 0.0
C33 C 0.29684 0.79136 0.24375 0.0
H34 H 0.29633 0.73955 0.19139 0.0
C35 C 0.29288 0.79621 0.22182 0.0
H36 H 0.29014 0.81456 0.21977 0.0
H37 H 0.29701 0.80578 0.25833 0.0
H38 H 0.06089 0.46846 0.04129 0.0
C39 C 0.04769 0.48091 0.03805 0.0
C40 C 0.03783 0.49515 0.05635 0.0
C41 C 0.04126 0.48308 0.01558 0.0
H42 H 0.01299 0.52226 0.0659 0.0
C43 C 0.02051 0.51108 0.05186 0.0
C44 C 0.01397 0.5135 0.02929 0.0
C45 C 0.02458 0.49943 0.0113 0.0
C46 C 0.053 0.46913 0.9966 0.0
H47 H 0.01959 0.5009 0.99382 0.0
C48 C 0.04972 0.44346 0.99276 0.0
C49 C 0.06099 0.43029 0.97463 0.0
C50 C 0.06772 0.48161 0.98231 0.0
H51 H 0.07048 0.50138 0.98505 0.0
C52 C 0.07929 0.46867 0.96458 0.0
H53 H 0.0382 0.4338 0.0037 0.0
C54 C 0.07598 0.44319 0.96072 0.0
H55 H 0.08461 0.43359 0.94644 0.0
H56 H 0.09068 0.47841 0.95365 0.0
H57 H 0.79663 0.76912 0.24134 0.0
C58 C 0.7986 0.76022 0.22406 0.0
C59 C 0.80927 0.7738 0.20819 0.0
C60 C 0.79135 0.73491 0.21802 0.0
H61 H 0.82045 0.77168 0.17367 0.0
C62 C 0.81161 0.76168 0.18586 0.0
C63 C 0.80405 0.73642 0.17948 0.0
C64 C 0.79404 0.72322 0.19574 0.0
C65 C 0.78311 0.72006 0.23531 0.0
H66 H 0.78831 0.70369 0.1911 0.0
C67 C 0.76123 0.72365 0.24704 0.0
C68 C 0.75319 0.70853 0.26273 0.0
C69 C 0.79713 0.70155 0.23964 0.0
H70 H 0.81403 0.6985 0.23084 0.0
C71 C 0.78956 0.68688 0.25538 0.0
H72 H 0.75038 0.73792 0.24369 0.0
C73 C 0.76775 0.69023 0.26679 0.0
H74 H 0.76198 0.67805 0.27841 0.0
H75 H 0.8005 0.67263 0.25856 0.0
H76 H 0.13862 0.96493 0.46275 0.0
C77 C 0.12308 0.96821 0.45181 0.0
C78 C 0.12552 0.98889 0.44128 0.0
C79 C 0.1015 0.95068 0.44697 0.0
H80 H 0.10717 0.00837 0.41856 0.0
C81 C 0.10564 0.99214 0.42627 0.0
C82 C 0.08402 0.97462 0.42087 0.0
C83 C 0.08206 0.95389 0.43146 0.0
C84 C 0.10164 0.92715 0.45497 0.0
H85 H 0.06603 0.93971 0.42691 0.0
C86 C 0.09304 0.92361 0.47628 0.0
C87 C 0.09566 0.90164 0.48418 0.0
C88 C 0.11231 0.90853 0.44153 0.0
H89 H 0.11914 0.91102 0.42518 0.0
C90 C 0.11474 0.88677 0.44925 0.0
H91 H 0.08492 0.93799 0.48679 0.0
C92 C 0.10664 0.88337 0.47046 0.0
H93 H 0.10868 0.86629 0.47609 0.0
H94 H 0.12309 0.87253 0.4388 0.0
H95 H 0.27995 0.68294 0.75749 0.0
C96 C 0.27689 0.69271 0.7742 0.0
C97 C 0.28726 0.68561 0.79368 0.0
C98 C 0.26262 0.71233 0.77592 0.0
H99 H 0.291 0.6931 0.83034 0.0
C100 C 0.28289 0.69838 0.81525 0.0
C101 C 0.26898 0.71842 0.81748 0.0
C102 C 0.25852 0.72494 0.79758 0.0
C103 C 0.25419 0.72078 0.75484 0.0
H104 H 0.24848 0.74071 0.79881 0.0
C105 C 0.22882 0.72425 0.75023 0.0
C106 C 0.22121 0.73036 0.72919 0.0
C107 C 0.27185 0.72454 0.73864 0.0
H108 H 0.2915 0.72233 0.74188 0.0
C109 C 0.26443 0.73114 0.71812 0.0
H110 H 0.21494 0.72121 0.76245 0.0
C111 C 0.23926 0.73382 0.71331 0.0
H112 H 0.23384 0.73864 0.69711 0.0
H113 H 0.2782 0.73394 0.70578 0.0
H114 H 0.9642 0.60666 0.46722 0.0
C115 C 0.95345 0.59036 0.47114 0.0
C116 C 0.94589 0.59004 0.49327 0.0
C117 C 0.94705 0.56999 0.45381 0.0
H118 H 0.92565 0.56852 0.51498 0.0
C119 C 0.9318 0.56879 0.49799 0.0
C120 C 0.92505 0.54814 0.48075 0.0
C121 C 0.9331 0.54882 0.45869 0.0
C122 C 0.95291 0.5722 0.43026 0.0
H123 H 0.92751 0.53338 0.44506 0.0
C124 C 0.97083 0.55908 0.41894 0.0
C125 C 0.97779 0.56346 0.39742 0.0
C126 C 0.94164 0.58911 0.41965 0.0
H127 H 0.9279 0.59945 0.42815 0.0
C128 C 0.94818 0.59304 0.39812 0.0
H129 H 0.97991 0.54626 0.42714 0.0
C130 C 0.9663 0.58042 0.3871 0.0
H131 H 0.97146 0.58395 0.37053 0.0
H132 H 0.93943 0.60614 0.39008 0.0
H133 H 0.87055 0.85256 0.81151 0.0
C134 C 0.86859 0.83757 0.82087 0.0
C135 C 0.88108 0.81702 0.81436 0.0
C136 C 0.85427 0.8395 0.84 0.0
H137 H 0.88797 0.78216 0.82271 0.0
C138 C 0.87903 0.79839 0.82761 0.0
C139 C 0.86458 0.80009 0.84676 0.0
C140 C 0.8523 0.82072 0.85285 0.0
C141 C 0.84255 0.86185 0.84726 0.0
H142 H 0.84133 0.82225 0.86772 0.0
C143 C 0.82395 0.86878 0.83306 0.0
C144 C 0.81366 0.8906 0.83986 0.0
C145 C 0.85055 0.87671 0.86836 0.0
H146 H 0.86485 0.87167 0.8795 0.0
C147 C 0.84057 0.89845 0.87502 0.0
H148 H 0.81755 0.85729 0.81681 0.0
C149 C 0.82233 0.90545 0.86084 0.0
H150 H 0.81461 0.92227 0.86645 0.0
H151 H 0.84697 0.90992 0.89125 0.0
H152 H 0.35953 0.34336 0.30684 0.0
C153 C 0.35982 0.32952 0.31745 0.0
C154 C 0.37456 0.31038 0.3121 0.0
C155 C 0.34586 0.33132 0.33683 0.0
H156 H 0.38533 0.27762 0.32218 0.0
C157 C 0.37421 0.29247 0.32612 0.0
C158 C 0.35976 0.29365 0.3453 0.0
C159 C 0.34593 0.31336 0.35058 0.0
C160 C 0.3322 0.3526 0.34371 0.0
H161 H 0.33533 0.31497 0.36565 0.0
C162 C 0.31425 0.35932 0.32865 0.0
C163 C 0.30009 0.37833 0.33632 0.0
C164 C 0.3365 0.36575 0.36609 0.0
H165 H 0.35037 0.36111 0.3779 0.0
C166 C 0.32293 0.38495 0.37348 0.0
H167 H 0.31052 0.34913 0.31144 0.0
C168 C 0.30468 0.39108 0.35879 0.0
H169 H 0.29405 0.40581 0.36499 0.0
H170 H 0.32636 0.39492 0.39076 0.0
H171 H 0.51895 0.93966 0.54507 0.0
C172 C 0.50827 0.95485 0.5452 0.0
C173 C 0.51244 0.97423 0.56394 0.0
C174 C 0.49113 0.95552 0.52664 0.0
H175 H 0.50377 0.01031 0.57772 0.0
C176 C 0.50023 0.99501 0.56369 0.0
C177 C 0.48272 0.99568 0.54569 0.0
C178 C 0.47763 0.97571 0.52784 0.0
C179 C 0.48772 0.93603 0.50568 0.0
H180 H 0.46329 0.97644 0.51463 0.0
C181 C 0.49283 0.91191 0.50615 0.0
C182 C 0.48942 0.89413 0.48613 0.0
C183 C 0.47975 0.94174 0.48453 0.0
H184 H 0.47705 0.96012 0.4827 0.0
C185 C 0.47564 0.92395 0.46496 0.0
H186 H 0.4993 0.9067 0.52184 0.0
C187 C 0.48031 0.90029 0.46573 0.0
H188 H 0.47785 0.887 0.45008 0.0
H189 H 0.46939 0.9287 0.44898 0.0
H190 H 0.29311 0.28106 0.74393 0.0
C191 C 0.29526 0.27162 0.72689 0.0
C192 C 0.30658 0.28439 0.71074 0.0
C193 C 0.28754 0.24637 0.72146 0.0
H194 H 0.31923 0.28071 0.67671 0.0
C195 C 0.30942 0.27139 0.68885 0.0
C196 C 0.30105 0.24618 0.68292 0.0
C197 C 0.29002 0.23393 0.69944 0.0
C198 C 0.27975 0.23221 0.73933 0.0
H199 H 0.28354 0.21451 0.6954 0.0
C200 C 0.25684 0.23438 0.74971 0.0
C201 C 0.24945 0.21985 0.76606 0.0
C202 C 0.2954 0.21573 0.74555 0.0
H203 H 0.31309 0.21378 0.73772 0.0
C204 C 0.28842 0.20166 0.76192 0.0
H205 H 0.24476 0.2471 0.74488 0.0
C206 C 0.26562 0.2036 0.77206 0.0
H207 H 0.26039 0.19192 0.78424 0.0
H208 H 0.30061 0.18897 0.76657 0.0
H209 H 0.83623 0.23591 0.74427 0.0
C210 C 0.82146 0.22041 0.74043 0.0
C211 C 0.82542 0.19818 0.74699 0.0
C212 C 0.79845 0.22287 0.72909 0.0
H213 H 0.80854 0.16172 0.74841 0.0
C214 C 0.80592 0.17847 0.74238 0.0
C215 C 0.78252 0.18072 0.7316 0.0
C216 C 0.77907 0.20295 0.72466 0.0
C217 C 0.7938 0.24715 0.72446 0.0
H218 H 0.76107 0.20507 0.71657 0.0
C219 C 0.79035 0.25175 0.70206 0.0
C220 C 0.78779 0.27559 0.69838 0.0
C221 C 0.79372 0.26625 0.74297 0.0
H222 H 0.79626 0.26306 0.76028 0.0
C223 C 0.79042 0.2896 0.73937 0.0
H224 H 0.79082 0.2372 0.68767 0.0
C225 C 0.78766 0.29431 0.71727 0.0
H226 H 0.78559 0.31272 0.7149 0.0
H227 H 0.79035 0.30419 0.75376 0.0
H228 H 0.60671 0.51784 0.54326 0.0
C229 C 0.59248 0.51437 0.55506 0.0
C230 C 0.59137 0.49314 0.56493 0.0
C231 C 0.57687 0.53229 0.56182 0.0
H232 H 0.57244 0.47364 0.58902 0.0
C233 C 0.57372 0.48995 0.58146 0.0
C234 C 0.55766 0.50766 0.58828 0.0
C235 C 0.55953 0.52875 0.57828 0.0
C236 C 0.5821 0.55671 0.5553 0.0
H237 H 0.54833 0.54315 0.58412 0.0
C238 C 0.5759 0.56099 0.53315 0.0
C239 C 0.58174 0.58464 0.52783 0.0
C240 C 0.59389 0.57612 0.57191 0.0
H241 H 0.59879 0.5732 0.58897 0.0
C242 C 0.5997 0.59935 0.5667 0.0
H243 H 0.56672 0.54613 0.52025 0.0
C244 C 0.59373 0.6036 0.54489 0.0
H245 H 0.59814 0.62196 0.54146 0.0
H246 H 0.60881 0.61416 0.57966 0.0
H247 H 0.63807 0.46516 0.96798 0.0
C248 C 0.62313 0.46894 0.95667 0.0
C249 C 0.62666 0.48978 0.94641 0.0
C250 C 0.60098 0.45222 0.9516 0.0
H251 H 0.61012 0.50966 0.92283 0.0
C252 C 0.60739 0.49393 0.93121 0.0
C253 C 0.58501 0.4774 0.92601 0.0
C254 C 0.58189 0.45658 0.93639 0.0
C255 C 0.60011 0.42828 0.95894 0.0
H256 H 0.5652 0.44316 0.93179 0.0
C257 C 0.59201 0.42463 0.98036 0.0
C258 C 0.59366 0.40212 0.98753 0.0
C259 C 0.60935 0.40927 0.94468 0.0
H260 H 0.61579 0.41185 0.92822 0.0
C261 C 0.61086 0.387 0.95171 0.0
H262 H 0.58496 0.43928 0.9915 0.0
C263 C 0.60324 0.38346 0.97304 0.0
H264 H 0.60452 0.36599 0.97814 0.0
H265 H 0.61811 0.37247 0.94064 0.0
H266 H 0.77937 0.17866 0.25248 0.0
C267 C 0.77737 0.18887 0.26926 0.0
C268 C 0.78844 0.18191 0.28854 0.0
C269 C 0.7636 0.20884 0.27124 0.0
H270 H 0.79371 0.19008 0.32517 0.0
C271 C 0.78517 0.19522 0.3102 0.0
C272 C 0.77152 0.21547 0.31269 0.0
C273 C 0.76051 0.22188 0.29296 0.0
C274 C 0.75452 0.21706 0.25025 0.0
H275 H 0.75073 0.23782 0.29433 0.0
C276 C 0.72909 0.22069 0.24628 0.0
C277 C 0.7208 0.22653 0.2253 0.0
C278 C 0.7716 0.2204 0.2335 0.0
H279 H 0.79127 0.21803 0.23624 0.0
C280 C 0.76354 0.22676 0.21305 0.0
H281 H 0.71566 0.21796 0.25894 0.0
C282 C 0.7383 0.2296 0.20886 0.0
H283 H 0.73238 0.23423 0.19271 0.0
H284 H 0.77686 0.22924 0.20028 0.0
H285 H 0.46287 0.10511 0.96501 0.0
C286 C 0.45251 0.08902 0.96968 0.0
C287 C 0.44584 0.08939 0.99221 0.0
C288 C 0.44562 0.06815 0.95295 0.0
H289 H 0.42633 0.06872 0.01499 0.0
C290 C 0.43196 0.06845 0.99778 0.0
C291 C 0.42467 0.04742 0.98113 0.0
C292 C 0.43196 0.04733 0.95877 0.0
C293 C 0.44981 0.06938 0.92886 0.0
H294 H 0.42585 0.03157 0.94559 0.0
C295 C 0.46677 0.05562 0.91676 0.0
C296 C 0.47011 0.05707 0.89372 0.0
C297 C 0.43643 0.08463 0.91789 0.0
H298 H 0.42336 0.09537 0.92696 0.0
C299 C 0.43957 0.08596 0.89509 0.0
H300 H 0.47724 0.0439 0.92519 0.0
C301 C 0.45622 0.07225 0.88304 0.0
H302 H 0.45857 0.07381 0.86541 0.0
H303 H 0.4291 0.09771 0.88673 0.0
Zn304 Zn 0.30937 0.84672 0.01212 0.0
Zn305 Zn 0.26681 0.8634 0.01451 0.0
O306 O 0.27015 0.84627 0.04356 0.0
O307 O 0.30595 0.831 0.03932 0.0
O308 O 0.23425 0.87971 0.01872 0.0
O309 O 0.33034 0.87899 0.01491 0.0
O310 O 0.29419 0.89375 0.01351 0.0
C311 C 0.28685 0.83417 0.0506 0.0
C312 C 0.27745 0.82753 0.97176 0.0
O313 O 0.26138 0.83936 0.98257 0.0
O314 O 0.2994 0.82803 0.98091 0.0
C315 C 0.23508 0.89834 0.03447 0.0
O316 O 0.25622 0.90558 0.04733 0.0
C317 C 0.31837 0.89693 0.01415 0.0
Zn318 Zn 0.10716 0.45176 0.2521 0.0
Zn319 Zn 0.13854 0.49431 0.25563 0.0
O320 O 0.11483 0.50288 0.2813 0.0
O321 O 0.09052 0.46774 0.27957 0.0
O322 O 0.16305 0.52502 0.25587 0.0
O323 O 0.13738 0.43416 0.25726 0.0
O324 O 0.16226 0.46921 0.26165 0.0
C325 C 0.09684 0.48991 0.28877 0.0
C326 C 0.10334 0.47335 0.21209 0.0
O327 O 0.12053 0.489 0.22364 0.0
O328 O 0.09406 0.45508 0.22031 0.0
C329 C 0.1567 0.54277 0.24714 0.0
O330 O 0.13323 0.54174 0.23897 0.0
C331 C 0.15924 0.44627 0.26159 0.0
Zn332 Zn 0.84368 0.60828 0.93512 0.0
Zn333 Zn 0.83744 0.63587 0.97504 0.0
O334 O 0.86795 0.61835 0.98241 0.0
O335 O 0.87484 0.59761 0.9491 0.0
O336 O 0.8327 0.65624 0.00554 0.0
O337 O 0.84604 0.63817 0.9202 0.0
O338 O 0.84379 0.6613 0.95357 0.0
C339 C 0.88076 0.60402 0.97026 0.0
C340 C 0.79562 0.59469 0.95215 0.0
O341 O 0.80351 0.61277 0.96795 0.0
O342 O 0.80956 0.58863 0.93615 0.0
C343 C 0.8255 0.64531 0.02158 0.0
O344 O 0.82136 0.62133 0.01768 0.0
C345 C 0.84612 0.65911 0.93216 0.0
Zn346 Zn 0.89428 0.994 0.29369 0.0
Zn347 Zn 0.92094 0.99747 0.25911 0.0
O348 O 0.90014 0.02798 0.26166 0.0
O349 O 0.87595 0.02169 0.28949 0.0
O350 O 0.94326 0.99872 0.23178 0.0
O351 O 0.92427 0.99879 0.31593 0.0
O352 O 0.94761 0.99813 0.28654 0.0
C353 C 0.88251 0.03408 0.27444 0.0
C354 C 0.88335 0.95083 0.26099 0.0
O355 O 0.8988 0.963 0.25005 0.0
O356 O 0.87839 0.96019 0.28079 0.0
C357 C 0.94333 0.01381 0.21801 0.0
O358 O 0.92814 0.03062 0.22097 0.0
C359 C 0.94576 0.99894 0.30794 0.0
Zn360 Zn 0.34648 0.10761 0.4427 0.0
Zn361 Zn 0.33471 0.13619 0.48097 0.0
O362 O 0.36473 0.1194 0.49102 0.0
O363 O 0.37537 0.09687 0.45999 0.0
O364 O 0.32722 0.15733 0.51039 0.0
O365 O 0.35265 0.13746 0.42789 0.0
O366 O 0.3421 0.16056 0.45869 0.0
C367 C 0.37876 0.10459 0.48124 0.0
C368 C 0.29556 0.0944 0.45596 0.0
O369 O 0.30192 0.11233 0.47225 0.0
O370 O 0.31107 0.08879 0.44114 0.0
C371 C 0.33077 0.1499 0.52914 0.0
O372 O 0.33859 0.12858 0.52891 0.0
C373 C 0.34912 0.15825 0.43839 0.0
Zn374 Zn 0.39685 0.5003 0.79769 0.0
Zn375 Zn 0.42372 0.5049 0.7638 0.0
O376 O 0.40445 0.53634 0.76809 0.0
O377 O 0.38588 0.53312 0.79976 0.0
O378 O 0.44635 0.50787 0.73699 0.0
O379 O 0.42568 0.49525 0.81782 0.0
O380 O 0.45029 0.50308 0.79072 0.0
C381 C 0.39092 0.54492 0.78393 0.0
C382 C 0.38149 0.4609 0.76199 0.0
O383 O 0.40021 0.47141 0.75314 0.0
O384 O 0.37491 0.47077 0.78104 0.0
C385 C 0.43862 0.50049 0.71612 0.0
O386 O 0.41477 0.49128 0.71115 0.0
C387 C 0.44754 0.49807 0.81066 0.0
Zn388 Zn 0.81217 0.34455 0.50806 0.0
Zn389 Zn 0.76901 0.36058 0.50961 0.0
O390 O 0.772 0.3434 0.53853 0.0
O391 O 0.80836 0.329 0.53545 0.0
O392 O 0.736 0.37601 0.51354 0.0
O393 O 0.83232 0.3773 0.51089 0.0
O394 O 0.79584 0.39146 0.50916 0.0
C395 C 0.78875 0.33171 0.54611 0.0
C396 C 0.78084 0.32484 0.46727 0.0
O397 O 0.76447 0.33658 0.47771 0.0
O398 O 0.80266 0.32557 0.47681 0.0
C399 C 0.73491 0.39162 0.53158 0.0
O400 O 0.75454 0.39649 0.54654 0.0
C401 C 0.82004 0.39502 0.51004 0.0
Zn402 Zn 0.61056 0.94641 0.75395 0.0
Zn403 Zn 0.63605 0.99195 0.75747 0.0
O404 O 0.61072 0.99849 0.78189 0.0
O405 O 0.58937 0.96169 0.77891 0.0
O406 O 0.65761 0.02421 0.75722 0.0
O407 O 0.64296 0.93333 0.76224 0.0
O408 O 0.66278 0.97077 0.76611 0.0
C409 C 0.59307 0.98409 0.78813 0.0
C410 C 0.60578 0.96518 0.7126 0.0
O411 O 0.61905 0.9837 0.72481 0.0
O412 O 0.59995 0.94599 0.72076 0.0
C413 C 0.6504 0.04081 0.7473 0.0
O414 O 0.62719 0.03787 0.73796 0.0
C415 C 0.66306 0.94828 0.76713 0.0
Zn416 Zn 0.0331 0.24187 0.84033 0.0
Zn417 Zn 0.03797 0.21038 0.86614 0.0
O418 O 0.07068 0.21052 0.84749 0.0
O419 O 0.06729 0.24095 0.82917 0.0
O420 O 0.0408 0.18522 0.88746 0.0
O421 O 0.02725 0.26744 0.86646 0.0
O422 O 0.03817 0.24287 0.88919 0.0
C423 C 0.07969 0.22459 0.83419 0.0
C424 C 0.99295 0.20486 0.82925 0.0
O425 O 0.00268 0.19865 0.84707 0.0
O426 O 0.0039 0.22249 0.82126 0.0
C427 C 0.06 0.17417 0.88983 0.0
O428 O 0.07926 0.17817 0.87749 0.0
C429 C 0.03221 0.26355 0.88632 0.0
Zn430 Zn 0.54479 0.74266 0.34924 0.0
Zn431 Zn 0.54548 0.70419 0.36899 0.0
O432 O 0.57875 0.70658 0.35102 0.0
O433 O 0.57698 0.73889 0.33494 0.0
O434 O 0.54904 0.67571 0.38592 0.0
O435 O 0.54515 0.76492 0.37928 0.0
O436 O 0.54346 0.73266 0.3959 0.0
C437 C 0.58831 0.72126 0.33847 0.0
C438 C 0.50135 0.70698 0.3346 0.0
O439 O 0.51126 0.69536 0.34865 0.0
O440 O 0.51223 0.72743 0.3316 0.0
C441 C 0.53422 0.67079 0.40111 0.0
O442 O 0.51514 0.68329 0.40484 0.0
C443 C 0.54396 0.75564 0.39713 0.0
Zn444 Zn 0.97745 0.79839 0.62194 0.0
Zn445 Zn 0.01882 0.78639 0.64072 0.0
O446 O 0.03167 0.81328 0.62193 0.0
O447 O 0.99693 0.82566 0.6094 0.0
O448 O 0.05107 0.77941 0.65672 0.0
O449 O 0.96175 0.80436 0.65173 0.0
O450 O 0.99642 0.79546 0.66797 0.0
C451 C 0.02082 0.82724 0.61088 0.0
C452 C 0.98518 0.74851 0.60532 0.0
O453 O 0.0046 0.75382 0.61943 0.0
O454 O 0.97095 0.76455 0.60307 0.0
C455 C 0.05265 0.75904 0.66304 0.0
O456 O 0.03307 0.74188 0.65881 0.0
C457 C 0.97422 0.80159 0.66944 0.0
Zn458 Zn 0.47493 0.29716 0.12366 0.0
Zn459 Zn 0.51677 0.28409 0.14178 0.0
O460 O 0.52971 0.31153 0.12374 0.0
O461 O 0.49507 0.32378 0.11079 0.0
O462 O 0.54903 0.27669 0.15741 0.0
O463 O 0.46076 0.30474 0.15419 0.0
O464 O 0.4944 0.29251 0.16907 0.0
C465 C 0.51895 0.32549 0.11264 0.0
C466 C 0.48276 0.24701 0.10623 0.0
O467 O 0.5026 0.25223 0.11983 0.0
O468 O 0.46802 0.26288 0.10497 0.0
C469 C 0.55079 0.25611 0.16323 0.0
O470 O 0.53129 0.23888 0.15877 0.0
C471 C 0.47311 0.3005 0.17136 0.0
H472 H 0.22896 0.74129 0.83441 0.0
H473 H 0.30565 0.73092 0.85261 0.0
H474 H 0.22829 0.7688 0.87091 0.0
H475 H 0.30444 0.75701 0.88908 0.0
H476 H 0.31 0.82558 0.93885 0.0
H477 H 0.30558 0.79981 0.90164 0.0
H478 H 0.22906 0.77224 0.91333 0.0
H479 H 0.2334 0.79909 0.95097 0.0
C480 C 0.2456 0.74469 0.84618 0.0
C481 C 0.26739 0.73379 0.84038 0.0
C482 C 0.24509 0.76027 0.86721 0.0
C483 C 0.26641 0.76543 0.88289 0.0
C484 C 0.28782 0.75393 0.87731 0.0
C485 C 0.28836 0.73853 0.8564 0.0
C486 C 0.29208 0.81423 0.93346 0.0
C487 C 0.27216 0.81415 0.94799 0.0
C488 C 0.28961 0.79926 0.91213 0.0
C489 C 0.26723 0.78335 0.90465 0.0
C490 C 0.24663 0.78419 0.91859 0.0
C491 C 0.24905 0.79956 0.94011 0.0
H492 H 0.97262 0.51781 0.37235 0.0
H493 H 0.02669 0.58206 0.39504 0.0
H494 H 0.00323 0.49988 0.34784 0.0
H495 H 0.05799 0.56394 0.37139 0.0
H496 H 0.09354 0.53824 0.30424 0.0
H497 H 0.06634 0.55522 0.33273 0.0
H498 H 0.04101 0.48265 0.3451 0.0
H499 H 0.06731 0.46572 0.31595 0.0
C500 C 0.99139 0.52773 0.37249 0.0
C501 C 0.99751 0.55111 0.38559 0.0
C502 C 0.00901 0.51751 0.35852 0.0
C503 C 0.0332 0.53045 0.35749 0.0
C504 C 0.03948 0.55358 0.37137 0.0
C505 C 0.02173 0.56387 0.38514 0.0
C506 C 0.08232 0.52597 0.31321 0.0
C507 C 0.08242 0.50063 0.30768 0.0
C508 C 0.06677 0.5357 0.32967 0.0
C509 C 0.05122 0.52033 0.34121 0.0
C510 C 0.0522 0.49505 0.33625 0.0
C511 C 0.06744 0.48533 0.31961 0.0
H512 H 0.82099 0.77412 0.85595 0.0
H513 H 0.9021 0.78131 0.86797 0.0
H514 H 0.81633 0.74065 0.87774 0.0
H515 H 0.89737 0.74826 0.8904 0.0
H516 H 0.86634 0.70636 0.95016 0.0
H517 H 0.87127 0.74144 0.9302 0.0
H518 H 0.83526 0.6957 0.8689 0.0
H519 H 0.83105 0.66063 0.88841 0.0
C520 C 0.83776 0.76864 0.86344 0.0
C521 C 0.86189 0.78016 0.86026 0.0
C522 C 0.83511 0.74956 0.87585 0.0
C523 C 0.85649 0.74206 0.88579 0.0
C524 C 0.88061 0.75388 0.88301 0.0
C525 C 0.88331 0.7726 0.87011 0.0
C526 C 0.85946 0.70386 0.93244 0.0
C527 C 0.84838 0.68075 0.92082 0.0
C528 C 0.86238 0.72385 0.92105 0.0
C529 C 0.85361 0.72116 0.89807 0.0
C530 C 0.8421 0.69821 0.88663 0.0
C531 C 0.83978 0.67817 0.8978 0.0
H532 H 0.09083 0.99127 0.38067 0.0
H533 H 0.03239 0.96468 0.42128 0.0
H534 H 0.05872 0.99858 0.35321 0.0
H535 H 1.00024 0.97093 0.39325 0.0
H536 H 0.94914 0.00994 0.3542 0.0
H537 H 0.98282 0.00406 0.38062 0.0
H538 H 0.02614 0.97907 0.32411 0.0
H539 H 0.99237 0.98556 0.29746 0.0
C540 C 0.07111 0.98698 0.38377 0.0
C541 C 0.06424 0.97768 0.40342 0.0
C542 C 0.05267 0.99089 0.36782 0.0
C543 C 0.02683 0.98556 0.37103 0.0
C544 C 0.01995 0.9757 0.3904 0.0
C545 C 0.0384 0.97182 0.40638 0.0
C546 C 0.96593 0.00339 0.34732 0.0
C547 C 0.96796 0.9981 0.32365 0.0
C548 C 0.98519 -0.00021 0.36253 0.0
C549 C 0.00706 0.99064 0.35457 0.0
C550 C 0.0096 0.98621 0.33088 0.0
C551 C 0.99026 0.98995 0.31558 0.0
H552 H 0.31254 0.19936 0.67194 0.0
H553 H 0.29879 0.26165 0.64154 0.0
H554 H 0.31818 0.17668 0.63482 0.0
H555 H 0.307 0.23966 0.6045 0.0
H556 H 0.29978 0.18545 0.5372 0.0
H557 H 0.29187 0.2087 0.57401 0.0
H558 H 0.34638 0.17266 0.60711 0.0
H559 H 0.35286 0.14856 0.57065 0.0
C560 C 0.31066 0.20831 0.65737 0.0
C561 C 0.30499 0.23242 0.65993 0.0
C562 C 0.31446 0.19537 0.63597 0.0
C563 C 0.31336 0.2063 0.61647 0.0
C564 C 0.30775 0.23044 0.61899 0.0
C565 C 0.30344 0.24325 0.64038 0.0
C566 C 0.30999 0.18257 0.55242 0.0
C567 C 0.32674 0.16505 0.55111 0.0
C568 C 0.3056 0.196 0.57355 0.0
C569 C 0.31828 0.19252 0.59376 0.0
C570 C 0.33562 0.17543 0.59216 0.0
C571 C 0.33954 0.16169 0.57117 0.0
H572 H 0.56607 0.49144 0.62869 0.0
H573 H 0.50896 0.51841 0.58982 0.0
H574 H 0.53766 0.48934 0.65942 0.0
H575 H 0.48091 0.51696 0.62069 0.0
H576 H 0.42717 0.48808 0.67012 0.0
H577 H 0.45563 0.48871 0.63954 0.0
H578 H 0.51873 0.51581 0.68901 0.0
H579 H 0.49017 0.51488 0.71977 0.0
C580 C 0.54739 0.49673 0.62659 0.0
C581 C 0.53987 0.50507 0.60667 0.0
C582 C 0.53119 0.49584 0.64437 0.0
C583 C 0.50692 0.50305 0.64268 0.0
C584 C 0.49931 0.51103 0.62261 0.0
C585 C 0.51553 0.51206 0.60492 0.0
C586 C 0.4471 0.49422 0.67456 0.0
C587 C 0.45627 0.50148 0.69752 0.0
C588 C 0.46347 0.49469 0.65694 0.0
C589 C 0.48958 0.50235 0.66167 0.0
C590 C 0.49881 0.50954 0.68465 0.0
C591 C 0.48238 0.50918 0.70233 0.0
H592 H 0.8191 0.31026 0.68332 0.0
H593 H 0.7545 0.25557 0.66138 0.0
H594 H 0.8173 0.32286 0.64619 0.0
H595 H 0.75245 0.26852 0.62394 0.0
H596 H 0.74705 0.32594 0.57163 0.0
H597 H 0.74531 0.31049 0.60786 0.0
H598 H 0.82396 0.30043 0.60553 0.0
H599 H 0.82576 0.31531 0.56975 0.0
C600 C 0.80451 0.30092 0.67048 0.0
C601 C 0.78701 0.28188 0.67518 0.0
C602 C 0.80347 0.30814 0.64925 0.0
C603 C 0.78468 0.29674 0.63221 0.0
C604 C 0.767 0.27773 0.63685 0.0
C605 C 0.76833 0.27017 0.65811 0.0
C606 C 0.76388 0.3203 0.57883 0.0
C607 C 0.78654 0.32198 0.56775 0.0
C608 C 0.76284 0.31133 0.59946 0.0
C609 C 0.78455 0.30435 0.60952 0.0
C610 C 0.80699 0.30582 0.59828 0.0
C611 C 0.80794 0.31434 0.57769 0.0
H612 H 0.50943 0.93729 0.58814 0.0
H613 H 0.55207 0.0071 0.5854 0.0
H614 H 0.53384 0.93514 0.62298 0.0
H615 H 0.57775 0.00453 0.61965 0.0
H616 H 0.5978 0.00592 0.69538 0.0
H617 H 0.57702 0.00784 0.65871 0.0
H618 H 0.57155 0.92928 0.6401 0.0
H619 H 0.59088 0.92743 0.67739 0.0
C620 C 0.52446 0.95196 0.59482 0.0
C621 C 0.52886 0.97236 0.58414 0.0
C622 C 0.53864 0.9507 0.61476 0.0
C623 C 0.55797 0.96964 0.62434 0.0
C624 C 0.56276 0.9898 0.61318 0.0
C625 C 0.54819 0.99124 0.59344 0.0
C626 C 0.59231 0.9891 0.68335 0.0
C627 C 0.59578 0.96651 0.68934 0.0
C628 C 0.58049 0.99017 0.66218 0.0
C629 C 0.57228 0.96869 0.64628 0.0
C630 C 0.57688 0.94619 0.65201 0.0
C631 C 0.5882 0.9451 0.67335 0.0
H632 H 0.8549 0.16157 0.7387 0.0
H633 H 0.84955 0.22891 0.78434 0.0
H634 H 0.89393 0.15716 0.75999 0.0
H635 H 0.88849 0.22444 0.80569 0.0
H636 H 0.98033 0.18703 0.78472 0.0
H637 H 0.9381 0.18172 0.7655 0.0
H638 H 0.90612 0.19608 0.83066 0.0
H639 H 0.94861 0.20093 0.84992 0.0
C640 C 0.86202 0.17535 0.75335 0.0
C641 C 0.8493 0.19569 0.75976 0.0
C642 C 0.88432 0.17282 0.76553 0.0
C643 C 0.89414 0.19033 0.78462 0.0
C644 C 0.88118 0.21046 0.79125 0.0
C645 C 0.85911 0.2132 0.77885 0.0
C646 C 0.96414 0.18798 0.79494 0.0
C647 C 0.96763 0.19405 0.81878 0.0
C648 C 0.93998 0.18509 0.78395 0.0
C649 C 0.91884 0.18878 0.79656 0.0
C650 C 0.92213 0.19332 0.82051 0.0
C651 C 0.94634 0.19573 0.83155 0.0
H652 H 0.53625 0.88405 0.49793 0.0
H653 H 0.46166 0.84973 0.47096 0.0
H654 H 0.55335 0.8461 0.48431 0.0
H655 H 0.4786 0.81185 0.45739 0.0
H656 H 0.51439 0.74608 0.43159 0.0
H657 H 0.50275 0.77641 0.46273 0.0
H658 H 0.55581 0.83182 0.44213 0.0
H659 H 0.56693 0.80186 0.4111 0.0
C660 C 0.52335 0.86805 0.49004 0.0
C661 C 0.49772 0.8698 0.48525 0.0
C662 C 0.53314 0.8464 0.48212 0.0
C663 C 0.51737 0.82613 0.4695 0.0
C664 C 0.49122 0.82708 0.46715 0.0
C665 C 0.48151 0.84878 0.47483 0.0
C666 C 0.52409 0.76458 0.43427 0.0
C667 C 0.54136 0.77176 0.41888 0.0
C668 C 0.51739 0.78192 0.452 0.0
C669 C 0.52834 0.80649 0.45485 0.0
C670 C 0.54724 0.81302 0.44061 0.0
C671 C 0.5535 0.7959 0.4227 0.0
H672 H 0.239 0.21872 0.81043 0.0
H673 H 0.20353 0.22238 0.74478 0.0
H674 H 0.19794 0.21809 0.82674 0.0
H675 H 0.16255 0.22179 0.76108 0.0
H676 H 0.10049 0.25012 0.80336 0.0
H677 H 0.1411 0.24849 0.78742 0.0
H678 H 0.15635 0.19273 0.82601 0.0
H679 H 0.11527 0.19464 0.84255 0.0
C680 C 0.22243 0.21928 0.79944 0.0
C681 C 0.22461 0.22071 0.77629 0.0
C682 C 0.19888 0.2188 0.80879 0.0
C683 C 0.17693 0.21984 0.79524 0.0
C684 C 0.17912 0.2213 0.7721 0.0
C685 C 0.20265 0.22176 0.76275 0.0
C686 C 0.11235 0.2374 0.80853 0.0
C687 C 0.10451 0.22248 0.82431 0.0
C688 C 0.13567 0.23637 0.79919 0.0
C689 C 0.15196 0.22039 0.80528 0.0
C690 C 0.14427 0.20538 0.82108 0.0
C691 C 0.1207 0.20636 0.83046 0.0
H692 H 0.53591 0.57408 0.50287 0.0
H693 H 0.61223 0.60929 0.5017 0.0
H694 H 0.5234 0.59058 0.46914 0.0
H695 H 0.59982 0.62612 0.46851 0.0
H696 H 0.57489 0.64513 0.4016 0.0
H697 H 0.58573 0.61931 0.42872 0.0
H698 H 0.51718 0.63094 0.46204 0.0
H699 H 0.50615 0.65632 0.43478 0.0
C700 C 0.55012 0.58488 0.4951 0.0
C701 C 0.57501 0.59049 0.50503 0.0
C702 C 0.54292 0.59459 0.47594 0.0
C703 C 0.56051 0.60995 0.46615 0.0
C704 C 0.58575 0.61427 0.47536 0.0
C705 C 0.59286 0.60472 0.49452 0.0
C706 C 0.56195 0.64191 0.41452 0.0
C707 C 0.53973 0.65301 0.41605 0.0
C708 C 0.56824 0.62718 0.43017 0.0
C709 C 0.55244 0.62308 0.44775 0.0
C710 C 0.5297 0.63339 0.44865 0.0
C711 C 0.52346 0.64815 0.43306 0.0
H712 H 0.92514 0.79658 0.80698 0.0
H713 H 0.87066 0.83298 0.7744 0.0
H714 H 0.94816 0.79253 0.77258 0.0
H715 H 0.89473 0.83088 0.74108 0.0
H716 H 0.92402 0.80013 0.67506 0.0
H717 H 0.9027 0.80316 0.70997 0.0
H718 H 0.97479 0.81245 0.74879 0.0
H719 H 0.99623 0.80806 0.71323 0.0
C720 C 0.91805 0.80379 0.79257 0.0
C721 C 0.89586 0.81504 0.79361 0.0
C722 C 0.93155 0.80182 0.77292 0.0
C723 C 0.92335 0.81124 0.75385 0.0
C724 C 0.90146 0.8229 0.75513 0.0
C725 C 0.8878 0.82452 0.77455 0.0
C726 C 0.93544 0.80291 0.69101 0.0
C727 C 0.9619 0.80408 0.69132 0.0
C728 C 0.92316 0.80483 0.71117 0.0
C729 C 0.93693 0.80846 0.73241 0.0
C730 C 0.96347 0.80947 0.73279 0.0
C731 C 0.97582 0.80714 0.71243 0.0
H732 H 0.04799 0.90174 0.49857 0.0
H733 H 0.12327 0.89026 0.51944 0.0
H734 H 0.03198 0.88708 0.53201 0.0
H735 H 0.10784 0.87692 0.55367 0.0
H736 H 0.06624 0.82169 0.59272 0.0
H737 H 0.08566 0.84329 0.56456 0.0
H738 H 0.02797 0.89132 0.57072 0.0
H739 H 0.00787 0.86867 0.59787 0.0
C740 C 0.06121 0.89676 0.51075 0.0
C741 C 0.0868 0.89705 0.50643 0.0
C742 C 0.05211 0.88839 0.53004 0.0
C743 C 0.0685 0.88048 0.5457 0.0
C744 C 0.09443 0.88218 0.54186 0.0
C745 C 0.10339 0.8901 0.52237 0.0
C746 C 0.05801 0.83716 0.58836 0.0
C747 C 0.03543 0.84334 0.59741 0.0
C748 C 0.06918 0.84968 0.57217 0.0
C749 C 0.05831 0.86903 0.56493 0.0
C750 C 0.03659 0.87615 0.57523 0.0
C751 C 0.02518 0.86332 0.59105 0.0
H752 H 0.19125 0.76247 0.75005 0.0
H753 H 0.1915 0.70348 0.69348 0.0
H754 H 0.14919 0.76935 0.73584 0.0
H755 H 0.14963 0.71005 0.67942 0.0
H756 H 0.0652 0.71545 0.67143 0.0
H757 H 0.10433 0.70761 0.68998 0.0
H758 H 0.13272 0.78441 0.7003 0.0
H759 H 0.09356 0.79233 0.68159 0.0
C760 C 0.18204 0.75069 0.73487 0.0
C761 C 0.19447 0.7324 0.72287 0.0
C762 C 0.15815 0.75474 0.72662 0.0
C763 C 0.14614 0.74028 0.70647 0.0
C764 C 0.15825 0.72137 0.69507 0.0
C765 C 0.18221 0.71761 0.70308 0.0
C766 C 0.07971 0.73071 0.67772 0.0
C767 C 0.07628 0.75451 0.67488 0.0
C768 C 0.10216 0.72619 0.68832 0.0
C769 C 0.12161 0.74538 0.69663 0.0
C770 C 0.11797 0.76927 0.69428 0.0
C771 C 0.09563 0.77377 0.68339 0.0
H772 H 0.96336 0.59412 0.53803 0.0
H773 H 0.94122 0.63668 0.48839 0.0
H774 H 0.97284 0.63154 0.56669 0.0
H775 H 0.95127 0.67379 0.51657 0.0
H776 H 0.94334 0.73141 0.57658 0.0
H777 H 0.93377 0.69242 0.55116 0.0
H778 H 0.00337 0.67054 0.57548 0.0
H779 H 0.01296 0.70986 0.6015 0.0
C780 C 0.9605 0.61142 0.53327 0.0
C781 C 0.95161 0.61246 0.51094 0.0
C782 C 0.96615 0.63284 0.54959 0.0
C783 C 0.96273 0.65561 0.54392 0.0
C784 C 0.95383 0.65653 0.52159 0.0
C785 C 0.94832 0.63526 0.50535 0.0
C786 C 0.95666 0.71835 0.57667 0.0
C787 C 0.97909 0.72393 0.59095 0.0
C788 C 0.95117 0.69597 0.56198 0.0
C789 C 0.96796 0.6785 0.56106 0.0
C790 C 0.99002 0.68363 0.57586 0.0
C791 C 0.99556 0.70617 0.59067 0.0
H792 H 0.83469 0.79651 0.24862 0.0
H793 H 0.80772 0.81097 0.18349 0.0
H794 H 0.85223 0.83924 0.25994 0.0
H795 H 0.826 0.8538 0.19476 0.0
H796 H 0.88741 0.92317 0.2186 0.0
H797 H 0.86915 0.88045 0.20484 0.0
H798 H 0.83472 0.87864 0.26853 0.0
H799 H 0.85265 0.92071 0.2822 0.0
C800 C 0.8322 0.8088 0.23678 0.0
C801 C 0.8195 0.80019 0.2152 0.0
C802 C 0.84245 0.83331 0.24324 0.0
C803 C 0.84047 0.84991 0.22825 0.0
C804 C 0.82806 0.84138 0.20658 0.0
C805 C 0.81758 0.81684 0.20016 0.0
C806 C 0.87584 0.91365 0.22957 0.0
C807 C 0.87167 0.92541 0.25155 0.0
C808 C 0.86533 0.88924 0.22168 0.0
C809 C 0.85071 0.87613 0.23572 0.0
C810 C 0.84623 0.88808 0.25745 0.0
C811 C 0.85646 0.91233 0.26522 0.0
H812 H 0.79038 0.14688 0.31545 0.0
H813 H 0.82133 0.16936 0.25566 0.0
H814 H 0.81419 0.11237 0.31065 0.0
H815 H 0.84413 0.13394 0.25013 0.0
H816 H 0.90003 0.07786 0.26108 0.0
H817 H 0.8784 0.11445 0.26416 0.0
H818 H 0.81264 0.07428 0.28633 0.0
H819 H 0.83426 0.03857 0.28393 0.0
C820 C 0.8023 0.14456 0.30129 0.0
C821 C 0.80365 0.16096 0.28588 0.0
C822 C 0.81576 0.12448 0.29832 0.0
C823 C 0.83089 0.12 0.27975 0.0
C824 C 0.83277 0.13672 0.26463 0.0
C825 C 0.81936 0.15691 0.26766 0.0
C826 C 0.88084 0.07689 0.26631 0.0
C827 C 0.869 0.0554 0.27251 0.0
C828 C 0.86842 0.09784 0.26813 0.0
C829 C 0.84389 0.09759 0.27604 0.0
C830 C 0.83176 0.07557 0.28095 0.0
C831 C 0.84414 0.05493 0.27935 0.0
H832 H 0.4294 0.99906 0.96864 0.0
H833 H 0.38304 0.04733 0.00628 0.0
H834 H 0.4027 0.96393 0.9777 0.0
H835 H 0.35661 0.01212 0.0158 0.0
H836 H 0.30051 0.93866 0.00491 0.0
H837 H 0.32569 0.97583 0.99753 0.0
H838 H 0.39427 0.94598 0.01176 0.0
H839 H 0.36947 0.90917 0.01891 0.0
C840 C 0.4135 0.00217 0.97884 0.0
C841 C 0.40847 0.026 0.98684 0.0
C842 C 0.39831 0.98205 0.9842 0.0
C843 C 0.37761 0.98524 0.99762 0.0
C844 C 0.37233 0.00905 0.00537 0.0
C845 C 0.38765 0.02921 0.00012 0.0
C846 C 0.32095 0.94021 0.00672 0.0
C847 C 0.33292 0.9208 0.01229 0.0
C848 C 0.33538 0.96148 0.0025 0.0
C849 C 0.362 0.96367 0.0037 0.0
C850 C 0.37383 0.94467 0.01017 0.0
C851 C 0.35953 0.92358 0.01442 0.0
H852 H 0.30361 0.39465 0.29573 0.0
H853 H 0.25056 0.37653 0.3444 0.0
H854 H 0.27001 0.40944 0.27423 0.0
H855 H 0.2171 0.39088 0.32298 0.0
H856 H 0.15774 0.39966 0.26983 0.0
H857 H 0.19217 0.38071 0.28461 0.0
H858 H 0.24417 0.44571 0.28329 0.0
H859 H 0.20964 0.46491 0.26855 0.0
C860 C 0.28466 0.39345 0.30153 0.0
C861 C 0.27956 0.38448 0.32164 0.0
C862 C 0.26554 0.40203 0.28938 0.0
C863 C 0.24094 0.4013 0.29693 0.0
C864 C 0.23577 0.39146 0.3166 0.0
C865 C 0.25491 0.38332 0.3289 0.0
C866 C 0.17654 0.40988 0.27239 0.0
C867 C 0.18084 0.43393 0.26818 0.0
C868 C 0.19625 0.399 0.28093 0.0
C869 C 0.22082 0.41177 0.28523 0.0
C870 C 0.22545 0.43537 0.28001 0.0
C871 C 0.20564 0.4464 0.27169 0.0
H872 H 0.15025 0.00892 0.40857 0.0
H873 H 0.15566 0.00708 0.48064 0.0
H874 H 0.19036 0.0355 0.41274 0.0
H875 H 0.19649 0.03314 0.48468 0.0
H876 H 0.25789 0.09939 0.48548 0.0
H877 H 0.21628 0.07491 0.48256 0.0
H878 H 0.23457 0.03152 0.42011 0.0
H879 H 0.27578 0.05605 0.42278 0.0
C880 C 0.15988 0.01438 0.42538 0.0
C881 C 0.14964 0.00593 0.4443 0.0
C882 C 0.18308 0.02939 0.42771 0.0
C883 C 0.19674 0.03633 0.44901 0.0
C884 C 0.18636 0.02826 0.46805 0.0
C885 C 0.16309 0.01315 0.46571 0.0
C886 C 0.25299 0.08467 0.4711 0.0
C887 C 0.27018 0.07978 0.45433 0.0
C888 C 0.2292 0.07055 0.4695 0.0
C889 C 0.22205 0.05132 0.45105 0.0
C890 C 0.23929 0.04643 0.43435 0.0
C891 C 0.26302 0.06046 0.43597 0.0
H892 H 0.78404 0.13176 0.71874 0.0
H893 H 0.73312 0.18376 0.74083 0.0
H894 H 0.75121 0.09832 0.72162 0.0
H895 H 0.70016 0.15024 0.74353 0.0
H896 H 0.64132 0.08022 0.72801 0.0
H897 H 0.67208 0.11408 0.72169 0.0
H898 H 0.73147 0.08344 0.75409 0.0
H899 H 0.70093 0.04962 0.76028 0.0
C900 C 0.76576 0.13605 0.72402 0.0
C901 C 0.76129 0.16045 0.72976 0.0
C902 C 0.74698 0.11689 0.72574 0.0
C903 C 0.72322 0.12164 0.73316 0.0
C904 C 0.71824 0.14597 0.73769 0.0
C905 C 0.7371 0.16518 0.73605 0.0
C906 C 0.66093 0.08077 0.73388 0.0
C907 C 0.66865 0.06216 0.74462 0.0
C908 C 0.67853 0.1002 0.73028 0.0
C909 C 0.70425 0.10132 0.73718 0.0
C910 C 0.71187 0.08288 0.74819 0.0
C911 C 0.6943 0.06359 0.75192 0.0
H912 H 0.50362 0.03781 0.53382 0.0
H913 H 0.43377 0.00156 0.55243 0.0
H914 H 0.48089 0.06944 0.52177 0.0
H915 H 0.41102 0.03331 0.54078 0.0
H916 H 0.37955 0.10172 0.52658 0.0
H917 H 0.40715 0.07991 0.54738 0.0
H918 H 0.44796 0.0631 0.48733 0.0
H919 H 0.42022 0.08445 0.46644 0.0
C920 C 0.48356 0.03719 0.53611 0.0
C921 C 0.47038 0.01754 0.54421 0.0
C922 C 0.47055 0.05511 0.52907 0.0
C923 C 0.4442 0.05376 0.53028 0.0
C924 C 0.43135 0.03496 0.53989 0.0
C925 C 0.44431 0.01683 0.54658 0.0
C926 C 0.39471 0.09377 0.51795 0.0
C927 C 0.39761 0.09467 0.49482 0.0
C928 C 0.41042 0.08122 0.52985 0.0
C929 C 0.42967 0.06984 0.51897 0.0
C930 C 0.43344 0.07191 0.49622 0.0
C931 C 0.41745 0.08401 0.48422 0.0
H932 H 0.60932 0.47725 0.52322 0.0
H933 H 0.61624 0.46907 0.59376 0.0
H934 H 0.64267 0.45166 0.51483 0.0
H935 H 0.64874 0.44273 0.58519 0.0
H936 H 0.72765 0.42458 0.56907 0.0
H937 H 0.69203 0.44706 0.57637 0.0
H938 H 0.65494 0.41094 0.51148 0.0
H939 H 0.69114 0.38857 0.50393 0.0
C940 C 0.61778 0.46986 0.53694 0.0
C941 C 0.61004 0.47546 0.55924 0.0
C942 C 0.63678 0.45492 0.53205 0.0
C943 C 0.64867 0.44517 0.54933 0.0
C944 C 0.64038 0.45017 0.57147 0.0
C945 C 0.6214 0.46507 0.57635 0.0
C946 C 0.71192 0.42128 0.55631 0.0
C947 C 0.71239 0.40467 0.53587 0.0
C948 C 0.69129 0.43412 0.56061 0.0
C949 C 0.67037 0.43082 0.54462 0.0
C950 C 0.67076 0.41416 0.52414 0.0
C951 C 0.69147 0.4012 0.51985 0.0
H952 H 0.7321 0.23895 0.33004 0.0
H953 H 0.80864 0.22754 0.34756 0.0
H954 H 0.73204 0.26643 0.36656 0.0
H955 H 0.80795 0.25349 0.38418 0.0
H956 H 0.81435 0.32142 0.4351 0.0
H957 H 0.81004 0.29569 0.3979 0.0
H958 H 0.73245 0.27032 0.4083 0.0
H959 H 0.73669 0.29725 0.44584 0.0
C960 C 0.74886 0.24213 0.34166 0.0
C961 C 0.77041 0.23094 0.33563 0.0
C962 C 0.74869 0.2577 0.36274 0.0
C963 C 0.77009 0.26252 0.37832 0.0
C964 C 0.79127 0.25073 0.37251 0.0
C965 C 0.79151 0.23539 0.35151 0.0
C966 C 0.79624 0.31053 0.42944 0.0
C967 C 0.77595 0.31116 0.44356 0.0
C968 C 0.79382 0.29555 0.40811 0.0
C969 C 0.77112 0.28029 0.40022 0.0
C970 C 0.75027 0.28175 0.41383 0.0
C971 C 0.75263 0.29716 0.43531 0.0
H972 H 0.52023 0.05638 0.90517 0.0
H973 H 0.46103 0.02748 0.85233 0.0
H974 H 0.55111 0.0376 0.88116 0.0
H975 H 0.49166 0.0087 0.82845 0.0
H976 H 0.54921 0.96034 0.79997 0.0
H977 H 0.52024 0.97609 0.82733 0.0
H978 H 0.56943 0.04469 0.84355 0.0
H979 H 0.59855 0.02899 0.81604 0.0
C980 C 0.51379 0.04566 0.8886 0.0
C981 C 0.48828 0.04336 0.88058 0.0
C982 C 0.53145 0.03513 0.87479 0.0
C983 C 0.52381 0.02175 0.8529 0.0
C984 C 0.49811 0.01874 0.84529 0.0
C985 C 0.48059 0.02955 0.85891 0.0
C986 C 0.55401 0.97874 0.80944 0.0
C987 C 0.57619 0.99344 0.80568 0.0
C988 C 0.53733 0.98777 0.82508 0.0
C989 C 0.54252 0.01163 0.83755 0.0
C990 C 0.56503 0.02614 0.83432 0.0
C991 C 0.58161 0.0172 0.81845 0.0
H992 H 0.39885 0.26998 0.35816 0.0
H993 H 0.31933 0.27388 0.36593 0.0
H994 H 0.39748 0.23845 0.38182 0.0
H995 H 0.31829 0.24294 0.39011 0.0
H996 H 0.33239 0.20285 0.44983 0.0
H997 H 0.33593 0.23654 0.42838 0.0
H998 H 0.37703 0.19515 0.37849 0.0
H999 H 0.3735 0.16162 0.39975 0.0
C1000 C 0.38105 0.26409 0.36477 0.0
C1001 C 0.35919 0.27454 0.36 0.0
C1002 C 0.38032 0.2461 0.37846 0.0
C1003 C 0.3578 0.23828 0.38791 0.0
C1004 C 0.33603 0.24886 0.38339 0.0
C1005 C 0.33667 0.26664 0.36951 0.0
C1006 C 0.34236 0.20105 0.4344 0.0
C1007 C 0.35257 0.1795 0.42648 0.0
C1008 C 0.34425 0.22027 0.42204 0.0
C1009 C 0.35672 0.21847 0.40171 0.0
C1010 C 0.3675 0.19719 0.39418 0.0
C1011 C 0.36534 0.17791 0.40632 0.0
H1012 H 0.59204 0.48697 0.88319 0.0
H1013 H 0.53425 0.47629 0.92985 0.0
H1014 H 0.55997 0.49166 0.85428 0.0
H1015 H 0.50226 0.48214 0.90158 0.0
H1016 H 0.44659 0.46778 0.84129 0.0
H1017 H 0.48019 0.46269 0.86799 0.0
H1018 H 0.53101 0.5159 0.84181 0.0
H1019 H 0.4972 0.51992 0.81394 0.0
C1020 C 0.57245 0.48595 0.88733 0.0
C1021 C 0.56558 0.48114 0.90872 0.0
C1022 C 0.55404 0.48876 0.87079 0.0
C1023 C 0.52833 0.48711 0.87535 0.0
C1024 C 0.52169 0.48287 0.89706 0.0
C1025 C 0.54003 0.47966 0.91341 0.0
C1026 C 0.46498 0.47834 0.84113 0.0
C1027 C 0.46919 0.49442 0.82562 0.0
C1028 C 0.48428 0.4756 0.85666 0.0
C1029 C 0.50835 0.48926 0.85759 0.0
C1030 C 0.51281 0.50495 0.84162 0.0
C1031 C 0.49345 0.50735 0.82565 0.0
H1032 H 0.82243 0.69304 0.16735 0.0
H1033 H 0.79378 0.75093 0.13882 0.0
H1034 H 0.82767 0.67165 0.12921 0.0
H1035 H 0.7988 0.72939 0.1005 0.0
H1036 H 0.83517 0.69481 0.03659 0.0
H1037 H 0.83036 0.71723 0.07458 0.0
H1038 H 0.8026 0.64956 0.09598 0.0
H1039 H 0.80796 0.62719 0.05831 0.0
C1040 C 0.81701 0.70109 0.1529 0.0
C1041 C 0.80752 0.72361 0.15612 0.0
C1042 C 0.82 0.68881 0.131 0.0
C1043 C 0.81351 0.69869 0.11173 0.0
C1044 C 0.80426 0.72137 0.11496 0.0
C1045 C 0.80134 0.7337 0.13691 0.0
C1046 C 0.82803 0.68474 0.04941 0.0
C1047 C 0.82206 0.65919 0.04442 0.0
C1048 C 0.82514 0.69761 0.07117 0.0
C1049 C 0.81619 0.68521 0.08841 0.0
C1050 C 0.80997 0.65968 0.08327 0.0
C1051 C 0.81291 0.64684 0.06159 0.0
H1052 H 0.0677 -0.00036 0.12727 0.0
H1053 H 0.00765 0.02091 0.08719 0.0
H1054 H 0.04025 0.99831 0.15877 0.0
H1055 H 0.98017 0.01934 0.11841 0.0
H1056 H 0.94845 0.04399 0.18655 0.0
H1057 H 0.9755 0.04221 0.1549 0.0
H1058 H 0.00326 0.9785 0.17324 0.0
H1059 H 0.97645 0.98065 0.20541 0.0
C1060 C 0.04849 0.00359 0.12499 0.0
C1061 C 0.04001 0.01056 0.10467 0.0
C1062 C 0.0327 0.00286 0.14311 0.0
C1063 C 0.00797 0.00905 0.1414 0.0
C1064 C 0.99925 0.01507 0.12071 0.0
C1065 C 0.01501 0.01586 0.10269 0.0
C1066 C 0.96029 0.02956 0.18391 0.0
C1067 C 0.96013 0.01245 0.19864 0.0
C1068 C 0.97574 0.02841 0.16555 0.0
C1069 C 0.99156 0.01007 0.16122 0.0
C1070 C 0.99156 0.99302 0.17605 0.0
C1071 C 0.97605 0.99417 0.19449 0.0
H1072 H 0.32208 0.81338 0.18716 0.0
H1073 H 0.25851 0.7572 0.16641 0.0
H1074 H 0.31836 0.82623 0.15024 0.0
H1075 H 0.25451 0.77041 0.12918 0.0
H1076 H 0.24608 0.82846 0.07733 0.0
H1077 H 0.24573 0.81304 0.11365 0.0
H1078 H 0.32425 0.80321 0.10915 0.0
H1079 H 0.32469 0.81801 0.07333 0.0
C1080 C 0.30728 0.80379 0.17465 0.0
C1081 C 0.29066 0.78423 0.1796 0.0
C1082 C 0.30513 0.81116 0.15354 0.0
C1083 C 0.28607 0.7994 0.13689 0.0
C1084 C 0.26924 0.77991 0.1418 0.0
C1085 C 0.27168 0.77221 0.16293 0.0
C1086 C 0.26317 0.82288 0.08408 0.0
C1087 C 0.28539 0.82457 0.07236 0.0
C1088 C 0.26293 0.81393 0.10476 0.0
C1089 C 0.28501 0.807 0.11421 0.0
C1090 C 0.307 0.80853 0.10236 0.0
C1091 C 0.30716 0.81701 0.08174 0.0
H1092 H 0.00961 0.48976 0.0928 0.0
H1093 H 0.08649 0.49781 0.07312 0.0
H1094 H 0.02502 0.48532 0.13107 0.0
H1095 H 0.10181 0.49314 0.11102 0.0
H1096 H 0.12167 0.50808 0.18779 0.0
H1097 H 0.10501 0.5149 0.151 0.0
H1098 H 0.04602 0.45424 0.14839 0.0
H1099 H 0.06257 0.4474 0.18527 0.0
C1100 C 0.02977 0.49077 0.09673 0.0
C1101 C 0.04684 0.49397 0.07999 0.0
C1102 C 0.03858 0.48803 0.11852 0.0
C1103 C 0.06463 0.4888 0.12402 0.0
C1104 C 0.08167 0.49263 0.10739 0.0
C1105 C 0.07287 0.49511 0.08563 0.0
C1106 C 0.10517 0.49615 0.17938 0.0
C1107 C 0.09355 0.4771 0.18945 0.0
C1108 C 0.09565 0.50005 0.15828 0.0
C1109 C 0.07418 0.48513 0.14681 0.0
C1110 C 0.06242 0.46621 0.15693 0.0
C1111 C 0.07206 0.46217 0.17797 0.0
H1112 H 0.36639 0.66681 0.23899 0.0
H1113 H 0.35617 0.7297 0.28862 0.0
H1114 H 0.40616 0.66339 0.25989 0.0
H1115 H 0.39559 0.72596 0.30976 0.0
H1116 H 0.4558 0.69759 0.3523 0.0
H1117 H 0.41395 0.69342 0.33184 0.0
H1118 H 0.4495 0.69336 0.26848 0.0
H1119 H 0.49113 0.69828 0.289 0.0
C1120 C 0.37262 0.6798 0.25443 0.0
C1121 C 0.35836 0.69864 0.26211 0.0
C1122 C 0.39529 0.67782 0.26637 0.0
C1123 C 0.40381 0.69427 0.28654 0.0
C1124 C 0.3893 0.71285 0.29442 0.0
C1125 C 0.36694 0.71516 0.28221 0.0
C1126 C 0.45452 0.69586 0.33393 0.0
C1127 C 0.47656 0.6979 0.32213 0.0
C1128 C 0.43067 0.69377 0.32227 0.0
C1129 C 0.42854 0.69317 0.29859 0.0
C1130 C 0.45057 0.6936 0.28668 0.0
C1131 C 0.47435 0.6963 0.29838 0.0
H1132 H 0.01559 0.40133 0.97268 0.0
H1133 H 0.09492 0.39817 0.96367 0.0
H1134 H 0.00623 0.35769 0.95737 0.0
H1135 H 0.08551 0.35466 0.94802 0.0
H1136 H 0.06282 0.27378 0.92593 0.0
H1137 H 0.06855 0.31212 0.95364 0.0
H1138 H 0.00833 0.33761 0.91716 0.0
H1139 H 0.0028 0.29974 0.8897 0.0
C1140 C 0.0311 0.3912 0.96796 0.0
C1141 C 0.05595 0.40322 0.96909 0.0
C1142 C 0.02572 0.36625 0.95909 0.0
C1143 C 0.0451 0.35279 0.95132 0.0
C1144 C 0.07019 0.36446 0.954 0.0
C1145 C 0.07554 0.38944 0.96272 0.0
C1146 C 0.05041 0.28736 0.92428 0.0
C1147 C 0.03252 0.28394 0.9056 0.0
C1148 C 0.05377 0.30931 0.94001 0.0
C1149 C 0.03896 0.32791 0.93751 0.0
C1150 C 0.01988 0.3236 0.91973 0.0
C1151 C 0.01682 0.30195 0.90389 0.0
H1152 H 0.70769 0.71676 0.24443 0.0
H1153 H 0.74423 0.70516 0.30706 0.0
H1154 H 0.66794 0.71844 0.26265 0.0
H1155 H 0.70438 0.70674 0.32526 0.0
H1156 H 0.62136 0.68773 0.34299 0.0
H1157 H 0.66129 0.6842 0.32473 0.0
H1158 H 0.64985 0.74521 0.29175 0.0
H1159 H 0.61036 0.74851 0.30941 0.0
C1160 C 0.70735 0.71488 0.26216 0.0
C1161 C 0.72923 0.71091 0.27425 0.0
C1162 C 0.68451 0.71573 0.27261 0.0
C1163 C 0.68293 0.71266 0.29543 0.0
C1164 C 0.70481 0.70876 0.30756 0.0
C1165 C 0.72768 0.70795 0.29713 0.0
C1166 C 0.62739 0.70029 0.33178 0.0
C1167 C 0.61254 0.71834 0.32769 0.0
C1168 C 0.65031 0.69837 0.32141 0.0
C1169 C 0.65871 0.71436 0.30665 0.0
C1170 C 0.64382 0.73233 0.30267 0.0
C1171 C 0.62114 0.73429 0.313 0.0
H1172 H 0.11559 0.11763 0.00496 0.0
H1173 H 0.03858 0.08207 0.99565 0.0
H1174 H 0.10977 0.13415 0.97018 0.0
H1175 H 0.03258 0.09853 0.96044 0.0
H1176 H 0.02495 0.16308 0.92023 0.0
H1177 H 0.02944 0.13931 0.95061 0.0
H1178 H 0.10295 0.12487 0.92912 0.0
H1179 H 0.09865 0.14879 0.89908 0.0
C1180 C 0.09757 0.11285 0.99508 0.0
C1181 C 0.0776 0.09843 0.00294 0.0
C1182 C 0.09419 0.12231 0.9751 0.0
C1183 C 0.07064 0.11783 0.96245 0.0
C1184 C 0.05089 0.10257 0.96985 0.0
C1185 C 0.05439 0.09286 0.98983 0.0
C1186 C 0.04198 0.15466 0.92186 0.0
C1187 C 0.06153 0.15811 0.90727 0.0
C1188 C 0.04449 0.14086 0.93921 0.0
C1189 C 0.06665 0.13024 0.94248 0.0
C1190 C 0.08578 0.13306 0.92739 0.0
C1191 C 0.08326 0.14675 0.91006 0.0
H1192 H 0.40113 0.34872 0.29644 0.0
H1193 H 0.38509 0.2699 0.28273 0.0
H1194 H 0.4268 0.34725 0.26371 0.0
H1195 H 0.4118 0.26862 0.25067 0.0
H1196 H 0.48162 0.27753 0.20757 0.0
H1197 H 0.4592 0.28023 0.24266 0.0
H1198 H 0.41666 0.33358 0.22041 0.0
H1199 H 0.43861 0.33064 0.18537 0.0
C1200 C 0.40291 0.33107 0.28647 0.0
C1201 C 0.39075 0.30944 0.29229 0.0
C1202 C 0.41785 0.33027 0.26782 0.0
C1203 C 0.42138 0.30783 0.25471 0.0
C1204 C 0.4097 0.28617 0.26068 0.0
C1205 C 0.39441 0.28696 0.27912 0.0
C1206 C 0.46771 0.29004 0.21034 0.0
C1207 C 0.46184 0.30384 0.1937 0.0
C1208 C 0.45477 0.29144 0.23032 0.0
C1209 C 0.43615 0.30707 0.23421 0.0
C1210 C 0.43101 0.32149 0.21794 0.0
C1211 C 0.44353 0.31974 0.19784 0.0
H1212 H 0.62149 0.38958 0.02202 0.0
H1213 H 0.54644 0.40293 0.00264 0.0
H1214 H 0.6063 0.37579 0.05614 0.0
H1215 H 0.53061 0.38779 0.03589 0.0
H1216 H 0.50665 0.36773 0.10101 0.0
H1217 H 0.52701 0.3911 0.07451 0.0
H1218 H 0.58376 0.34212 0.06654 0.0
H1219 H 0.56414 0.31984 0.09414 0.0
C1220 C 0.60173 0.38975 0.02527 0.0
C1221 C 0.58512 0.39735 0.0098 0.0
C1222 C 0.59289 0.38157 0.04469 0.0
C1223 C 0.56706 0.38024 0.04886 0.0
C1224 C 0.55068 0.38881 0.03367 0.0
C1225 C 0.55967 0.39746 0.01449 0.0
C1226 C 0.52382 0.36234 0.09394 0.0
C1227 C 0.53375 0.3419 0.09961 0.0
C1228 C 0.53539 0.37558 0.0785 0.0
C1229 C 0.55689 0.36839 0.06786 0.0
C1230 C 0.56747 0.34857 0.07444 0.0
C1231 C 0.55618 0.33565 0.09029 0.0
H1232 H 0.69136 0.25848 0.2473 0.0
H1233 H 0.69019 0.20003 0.18999 0.0
H1234 H 0.64893 0.26552 0.23424 0.0
H1235 H 0.64798 0.20678 0.17706 0.0
H1236 H 0.5636 0.2123 0.17079 0.0
H1237 H 0.6031 0.2042 0.18847 0.0
H1238 H 0.63139 0.28106 0.19947 0.0
H1239 H 0.59186 0.28924 0.18166 0.0
C1240 C 0.68178 0.24686 0.2322 0.0
C1241 C 0.69392 0.2287 0.21965 0.0
C1242 C 0.65767 0.251 0.2246 0.0
C1243 C 0.64514 0.23674 0.20457 0.0
C1244 C 0.65699 0.21794 0.19263 0.0
C1245 C 0.68115 0.21409 0.19999 0.0
C1246 C 0.57816 0.22752 0.17706 0.0
C1247 C 0.57459 0.25142 0.17466 0.0
C1248 C 0.60082 0.22285 0.18716 0.0
C1249 C 0.62037 0.24198 0.19538 0.0
C1250 C 0.61659 0.26596 0.19351 0.0
C1251 C 0.59402 0.27061 0.18314 0.0
H1252 H 0.46372 0.09396 0.03685 0.0
H1253 H 0.44189 0.13619 0.9868 0.0
H1254 H 0.47262 0.13134 0.06542 0.0
H1255 H 0.45148 0.17341 0.015 0.0
H1256 H 0.442 0.23063 0.07582 0.0
H1257 H 0.43354 0.19221 0.04926 0.0
H1258 H 0.5023 0.17003 0.07508 0.0
H1259 H 0.51072 0.20861 0.10211 0.0
C1260 C 0.46087 0.1112 0.03194 0.0
C1261 C 0.4521 0.11208 0.00954 0.0
C1262 C 0.46619 0.13262 0.04824 0.0
C1263 C 0.46265 0.15535 0.04252 0.0
C1264 C 0.4541 0.15619 0.02007 0.0
C1265 C 0.44889 0.13485 0.00381 0.0
C1266 C 0.45533 0.21758 0.07599 0.0
C1267 C 0.47715 0.22283 0.09105 0.0
C1268 C 0.45052 0.19557 0.06062 0.0
C1269 C 0.46738 0.17816 0.05984 0.0
C1270 C 0.48888 0.18303 0.07531 0.0
C1271 C 0.49375 0.20517 0.09074 0.0
H1272 H 0.32964 0.30902 0.75169 0.0
H1273 H 0.30745 0.32 0.68396 0.0
H1274 H 0.34646 0.35204 0.76197 0.0
H1275 H 0.32553 0.36299 0.69419 0.0
H1276 H 0.38996 0.43165 0.72159 0.0
H1277 H 0.3711 0.38909 0.70766 0.0
H1278 H 0.32555 0.39183 0.7655 0.0
H1279 H 0.34374 0.43387 0.77921 0.0
C1280 C 0.32808 0.32054 0.73901 0.0
C1281 C 0.31686 0.31087 0.71702 0.0
C1282 C 0.33797 0.3452 0.74488 0.0
C1283 C 0.33728 0.36082 0.72887 0.0
C1284 C 0.3265 0.35127 0.70679 0.0
C1285 C 0.3162 0.32662 0.70098 0.0
C1286 C 0.37566 0.42325 0.73112 0.0
C1287 C 0.36856 0.43619 0.75161 0.0
C1288 C 0.36489 0.39894 0.72315 0.0
C1289 C 0.34713 0.38713 0.7357 0.0
C1290 C 0.33946 0.40035 0.75567 0.0
C1291 C 0.34988 0.42455 0.76344 0.0
H1292 H 0.28717 0.6486 0.81837 0.0
H1293 H 0.32401 0.6769 0.76377 0.0
H1294 H 0.3137 0.61605 0.81497 0.0
H1295 H 0.35088 0.64444 0.76051 0.0
H1296 H 0.37678 0.56659 0.74778 0.0
H1297 H 0.35222 0.60103 0.74936 0.0
H1298 H 0.35599 0.60982 0.82277 0.0
H1299 H 0.37956 0.57539 0.82107 0.0
C1300 C 0.3011 0.64802 0.80576 0.0
C1301 C 0.30342 0.66547 0.79141 0.0
C1302 C 0.31642 0.62933 0.80381 0.0
C1303 C 0.33473 0.62762 0.78757 0.0
C1304 C 0.33689 0.64495 0.77305 0.0
C1305 C 0.32145 0.66361 0.77494 0.0
C1306 C 0.37265 0.57619 0.76421 0.0
C1307 C 0.37991 0.56807 0.78426 0.0
C1308 C 0.35852 0.59591 0.76516 0.0
C1309 C 0.35155 0.60797 0.7862 0.0
C1310 C 0.36019 0.6006 0.80621 0.0
C1311 C 0.37399 0.58092 0.80524 0.0
H1312 H 0.88277 0.54672 0.50508 0.0
H1313 H 0.93037 0.50007 0.46711 0.0
H1314 H 0.85656 0.51079 0.51346 0.0
H1315 H 0.90389 0.46422 0.47502 0.0
H1316 H 0.87106 0.40793 0.51497 0.0
H1317 H 0.89538 0.44526 0.50846 0.0
H1318 H 0.82628 0.47436 0.49447 0.0
H1319 H 0.80157 0.43664 0.5012 0.0
C1320 C 0.88769 0.5288 0.49858 0.0
C1321 C 0.90881 0.52627 0.48558 0.0
C1322 C 0.87249 0.50822 0.50318 0.0
C1323 C 0.87819 0.48464 0.49503 0.0
C1324 C 0.89916 0.48214 0.48182 0.0
C1325 C 0.91423 0.50267 0.47711 0.0
C1326 C 0.86089 0.42227 0.51065 0.0
C1327 C 0.83427 0.41913 0.50842 0.0
C1328 C 0.87493 0.44366 0.50676 0.0
C1329 C 0.86282 0.46264 0.50057 0.0
C1330 C 0.83618 0.46005 0.49923 0.0
C1331 C 0.82202 0.43846 0.50308 0.0
H1332 H 0.81359 0.93304 0.8235 0.0
H1333 H 0.7678 0.86446 0.8248 0.0
H1334 H 0.7788 0.94644 0.80305 0.0
H1335 H 0.7323 0.87817 0.80567 0.0
H1336 H 0.70367 0.97519 0.79309 0.0
H1337 H 0.74063 0.96066 0.80865 0.0
H1338 H 0.71325 0.88742 0.77339 0.0
H1339 H 0.67552 0.90191 0.75907 0.0
C1340 C 0.79598 0.92085 0.81933 0.0
C1341 C 0.79331 0.89774 0.82565 0.0
C1342 C 0.77589 0.92858 0.80782 0.0
C1343 C 0.75239 0.9136 0.80282 0.0
C1344 C 0.75007 0.89018 0.80878 0.0
C1345 C 0.77038 0.88228 0.81986 0.0
C1346 C 0.70565 0.95602 0.78857 0.0
C1347 C 0.68659 0.93969 0.77496 0.0
C1348 C 0.727 0.94762 0.79738 0.0
C1349 C 0.73016 0.92273 0.79242 0.0
C1350 C 0.71138 0.90658 0.77812 0.0
C1351 C 0.68977 0.91492 0.76971 0.0
H1352 H 0.67392 0.47611 0.94632 0.0
H1353 H 0.63519 0.53989 0.9539 0.0
H1354 H 0.71443 0.50211 0.94946 0.0
H1355 H 0.67595 0.56601 0.9566 0.0
H1356 H 0.75807 0.60401 0.98115 0.0
H1357 H 0.71696 0.57921 0.98151 0.0
H1358 H 0.73539 0.528 0.92417 0.0
H1359 H 0.77615 0.55245 0.92378 0.0
C1360 C 0.67406 0.49572 0.94896 0.0
C1361 C 0.65132 0.50593 0.94988 0.0
C1362 C 0.69728 0.5106 0.95052 0.0
C1363 C 0.69837 0.5361 0.95311 0.0
C1364 C 0.67571 0.54643 0.95472 0.0
C1365 C 0.65239 0.53148 0.95299 0.0
C1366 C 0.7533 0.58746 0.96863 0.0
C1367 C 0.77045 0.58022 0.95247 0.0
C1368 C 0.72975 0.57334 0.96879 0.0
C1369 C 0.72304 0.55157 0.95297 0.0
C1370 C 0.74015 0.54447 0.9368 0.0
C1371 C 0.76348 0.55862 0.9365 0.0
H1372 H 0.2932 0.63343 0.22202 0.0
H1373 H 0.24206 0.68513 0.24439 0.0
H1374 H 0.26026 0.59982 0.22426 0.0
H1375 H 0.20912 0.65154 0.24653 0.0
H1376 H 0.14937 0.5835 0.22941 0.0
H1377 H 0.18111 0.61695 0.22421 0.0
H1378 H 0.2391 0.58281 0.25458 0.0
H1379 H 0.20747 0.5492 0.25949 0.0
C1380 C 0.27488 0.63762 0.2273 0.0
C1381 C 0.27034 0.662 0.23311 0.0
C1382 C 0.25603 0.61836 0.22866 0.0
C1383 C 0.23212 0.62297 0.23583 0.0
C1384 C 0.22724 0.64732 0.24077 0.0
C1385 C 0.24612 0.6666 0.23946 0.0
C1386 C 0.16888 0.58314 0.23504 0.0
C1387 C 0.17585 0.56364 0.24488 0.0
C1388 C 0.18707 0.60237 0.2321 0.0
C1389 C 0.21269 0.60252 0.23886 0.0
C1390 C 0.21961 0.58309 0.24883 0.0
C1391 C 0.20142 0.5639 0.25184 0.0
H1392 H 0.01962 0.54518 0.99938 0.0
H1393 H 0.96862 0.52091 0.04734 0.0
H1394 H 0.98885 0.56975 0.98708 0.0
H1395 H 0.93761 0.54557 0.03493 0.0
H1396 H 0.91514 0.57818 0.94842 0.0
H1397 H 0.94822 0.55916 0.96496 0.0
H1398 H 0.92778 0.58751 0.03244 0.0
H1399 H 0.89419 0.60653 0.01577 0.0
C1400 C 0.00183 0.54516 0.00736 0.0
C1401 C 0.99638 0.53077 0.02407 0.0
C1402 C 0.98418 0.55925 0.0003 0.0
C1403 C 0.9606 0.55934 0.00975 0.0
C1404 C 0.95565 0.54599 0.02736 0.0
C1405 C 0.97339 0.53185 0.03447 0.0
C1406 C 0.91772 0.58056 0.9668 0.0
C1407 C 0.90195 0.5939 0.98074 0.0
C1408 C 0.93685 0.56975 0.97631 0.0
C1409 C 0.94074 0.57189 5e-05 0.0
C1410 C 0.92516 0.58541 0.01409 0.0
C1411 C 0.90604 0.59643 0.00454 0.0
H1412 H 0.14295 0.01627 0.05892 0.0
H1413 H 0.08814 0.95218 0.05579 0.0
H1414 H 0.17604 0.99053 0.05089 0.0
H1415 H 0.12162 0.92627 0.04825 0.0
H1416 H 0.18676 0.88827 0.01316 0.0
H1417 H 0.15174 0.91263 0.01938 0.0
H1418 H 0.19902 0.96456 0.07061 0.0
H1419 H 0.23371 0.9406 0.06438 0.0
C1420 C 0.13785 0.99665 0.05632 0.0
C1421 C 0.11272 0.98639 0.05794 0.0
C1422 C 0.15697 0.98184 0.05197 0.0
C1423 C 0.15163 0.95624 0.04903 0.0
C1424 C 0.12644 0.94588 0.05027 0.0
C1425 C 0.10727 0.96076 0.05481 0.0
C1426 C 0.18963 0.90487 0.02576 0.0
C1427 C 0.21319 0.91244 0.03818 0.0
C1428 C 0.16951 0.91879 0.0294 0.0
C1429 C 0.17254 0.94073 0.04539 0.0
C1430 C 0.19603 0.94805 0.05789 0.0
C1431 C 0.21597 0.93414 0.05438 0.0
loop_
_geom_bond_atom_site_label_1
_geom_bond_atom_site_label_2
_geom_bond_distance
_geom_bond_site_symmetry_2
_ccdc_geom_bond_type
H0 C1 0.949 . S
C1 H0 0.949 . S
C1 C2 1.395 . S
C1 C3 1.391 . S
C2 C1 1.395 . S
C2 C5 1.390 . S
C3 C1 1.391 . S
C3 C7 1.387 . S
C3 C8 1.491 . S
H4 C5 0.950 1_565 S
C5 C2 1.390 . S
C5 H4 0.950 1_545 S
C5 C6 1.378 . S
C6 C5 1.378 . S
C6 C7 1.409 . S
C7 C3 1.387 . S
C7 C6 1.409 . S
C7 H9 0.951 . S
C8 C3 1.491 . S
C8 C10 1.382 . S
C8 C12 1.404 . S
H9 C7 0.951 . S
C10 C8 1.382 . S
C10 C11 1.400 . S
C10 H15 0.949 . S
C11 C10 1.400 . S
C11 C16 1.407 . S
C12 C8 1.404 . S
C12 H13 0.950 . S
C12 C14 1.375 . S
H13 C12 0.950 . S
C14 C12 1.375 . S
C14 C16 1.382 . S
C14 H18 0.950 . S
H15 C10 0.949 . S
C16 C11 1.407 . S
C16 C14 1.382 . S
C16 H17 0.952 . S
H17 C16 0.952 . S
H18 C14 0.950 . S
H19 C20 0.949 . S
C20 H19 0.949 . S
C20 C21 1.395 . S
C20 C22 1.391 . S
C21 C20 1.395 . S
C21 C24 1.390 . S
C22 C20 1.391 . S
C22 C26 1.387 . S
C22 C27 1.491 . S
H23 C24 0.950 . S
C24 C21 1.390 . S
C24 H23 0.950 . S
C24 C25 1.378 . S
C25 C24 1.378 . S
C25 C26 1.409 . S
C26 C22 1.387 . S
C26 C25 1.409 . S
C26 H28 0.951 . S
C27 C22 1.491 . S
C27 C29 1.382 . S
C27 C31 1.404 . S
H28 C26 0.951 . S
C29 C27 1.382 . S
C29 C30 1.390 . S
C29 H34 0.949 . S
C30 C29 1.390 . S
C30 C35 1.399 . S
C31 C27 1.404 . S
C31 H32 0.950 . S
C31 C33 1.375 . S
H32 C31 0.950 . S
C33 C31 1.375 . S
C33 C35 1.382 . S
C33 H37 0.950 . S
H34 C29 0.949 . S
C35 C30 1.399 . S
C35 C33 1.382 . S
C35 H36 0.952 . S
H36 C35 0.952 . S
H37 C33 0.950 . S
H38 C39 0.949 1_455 S
C39 H38 0.949 1_655 S
C39 C40 1.395 . S
C39 C41 1.391 . S
C40 C39 1.395 . S
C40 C43 1.390 . S
C41 C39 1.391 . S
C41 C45 1.387 . S
C41 C46 1.491 . S
H42 C43 0.950 . S
C43 C40 1.390 . S
C43 H42 0.950 . S
C43 C44 1.378 . S
C44 C43 1.378 . S
C44 C45 1.409 . S
C45 C41 1.387 . S
C45 C44 1.409 . S
C45 H47 0.951 . S
C46 C41 1.491 . S
C46 C48 1.382 . S
C46 C50 1.404 1_554 S
H47 C45 0.951 . S
C48 C46 1.382 . S
C48 C49 1.390 1_554 S
C48 H53 0.949 . S
C49 C48 1.390 1_556 S
C49 C54 1.399 . S
C50 C46 1.404 1_556 S
C50 H51 0.950 . S
C50 C52 1.375 . S
H51 C50 0.950 . S
C52 C50 1.375 . S
C52 C54 1.382 . S
C52 H56 0.950 . S
H53 C48 0.949 . S
C54 C49 1.399 . S
C54 C52 1.382 . S
C54 H55 0.952 . S
H55 C54 0.952 . S
H56 C52 0.950 . S
H57 C58 0.949 . S
C58 H57 0.949 . S
C58 C59 1.395 . S
C58 C60 1.391 . S
C59 C58 1.395 . S
C59 C62 1.390 . S
C60 C58 1.391 . S
C60 C64 1.387 . S
C60 C65 1.491 . S
H61 C62 0.950 . S
C62 C59 1.390 . S
C62 H61 0.950 . S
C62 C63 1.378 . S
C63 C62 1.378 . S
C63 C64 1.409 . S
C64 C60 1.387 . S
C64 C63 1.409 . S
C64 H66 0.951 . S
C65 C60 1.491 . S
C65 C67 1.382 . S
C65 C69 1.404 . S
H66 C64 0.951 . S
C67 C65 1.382 . S
C67 C68 1.390 . S
C67 H72 0.949 . S
C68 C67 1.390 . S
C68 C73 1.399 . S
C69 C65 1.404 . S
C69 H70 0.950 . S
C69 C71 1.375 . S
H70 C69 0.950 . S
C71 C69 1.375 . S
C71 C73 1.382 . S
C71 H75 0.950 . S
H72 C67 0.949 . S
C73 C68 1.399 . S
C73 C71 1.382 . S
C73 H74 0.952 . S
H74 C73 0.952 . S
H75 C71 0.950 . S
H76 C77 0.949 . S
C77 H76 0.949 . S
C77 C78 1.395 . S
C77 C79 1.391 . S
C78 C77 1.395 . S
C78 C81 1.390 . S
C79 C77 1.391 . S
C79 C83 1.387 . S
C79 C84 1.491 . S
H80 C81 0.950 . S
C81 C78 1.390 . S
C81 H80 0.950 . S
C81 C82 1.378 . S
C82 C81 1.378 . S
C82 C83 1.409 . S
C83 C79 1.387 . S
C83 C82 1.409 . S
C83 H85 0.951 . S
C84 C79 1.491 . S
C84 C86 1.382 . S
C84 C88 1.404 . S
H85 C83 0.951 . S
C86 C84 1.382 . S
C86 C87 1.390 . S
C86 H91 0.949 . S
C87 C86 1.390 . S
C87 C92 1.399 . S
C88 C84 1.404 . S
C88 H89 0.950 . S
C88 C90 1.375 . S
H89 C88 0.950 . S
C90 C88 1.375 . S
C90 C92 1.382 . S
C90 H94 0.950 . S
H91 C86 0.949 . S
C92 C87 1.399 . S
C92 C90 1.382 . S
C92 H93 0.952 . S
H93 C92 0.952 . S
H94 C90 0.950 . S
H95 C96 0.949 . S
C96 H95 0.949 . S
C96 C97 1.395 . S
C96 C98 1.391 . S
C97 C96 1.395 . S
C97 C100 1.390 . S
C98 C96 1.391 . S
C98 C102 1.387 . S
C98 C103 1.491 . S
H99 C100 0.950 . S
C100 C97 1.390 . S
C100 H99 0.950 . S
C100 C101 1.378 . S
C101 C100 1.378 . S
C101 C102 1.409 . S
C102 C98 1.387 . S
C102 C101 1.409 . S
C102 H104 0.951 . S
C103 C98 1.491 . S
C103 C105 1.382 . S
C103 C107 1.404 . S
H104 C102 0.951 . S
C105 C103 1.382 . S
C105 C106 1.390 . S
C105 H110 0.949 . S
C106 C105 1.390 . S
C106 C111 1.399 . S
C107 C103 1.404 . S
C107 H108 0.950 . S
C107 C109 1.375 . S
H108 C107 0.950 . S
C109 C107 1.375 . S
C109 C111 1.382 . S
C109 H113 0.950 . S
H110 C105 0.949 . S
C111 C106 1.399 . S
C111 C109 1.382 . S
C111 H112 0.952 . S
H112 C111 0.952 . S
H113 C109 0.950 . S
H114 C115 0.949 . S
C115 H114 0.949 . S
C115 C116 1.395 . S
C115 C117 1.391 . S
C116 C115 1.395 . S
C116 C119 1.390 . S
C117 C115 1.391 . S
C117 C121 1.387 . S
C117 C122 1.491 . S
H118 C119 0.950 . S
C119 C116 1.390 . S
C119 H118 0.950 . S
C119 C120 1.378 . S
C120 C119 1.378 . S
C120 C121 1.409 . S
C121 C117 1.387 . S
C121 C120 1.409 . S
C121 H123 0.951 . S
C122 C117 1.491 . S
C122 C124 1.382 . S
C122 C126 1.404 . S
H123 C121 0.951 . S
C124 C122 1.382 . S
C124 C125 1.390 1_655 S
C124 H129 0.949 1_655 S
C125 C124 1.390 1_455 S
C125 C130 1.399 1_455 S
C126 C122 1.404 . S
C126 H127 0.950 . S
C126 C128 1.375 . S
H127 C126 0.950 . S
C128 C126 1.375 . S
C128 C130 1.382 . S
C128 H132 0.950 . S
H129 C124 0.949 1_455 S
C130 C125 1.399 1_655 S
C130 C128 1.382 . S
C130 H131 0.952 . S
H131 C130 0.952 . S
H132 C128 0.950 . S
H133 C134 0.949 . S
C134 H133 0.949 . S
C134 C135 1.395 . S
C134 C136 1.391 . S
C135 C134 1.395 . S
C135 C138 1.390 . S
C136 C134 1.391 . S
C136 C140 1.387 . S
C136 C141 1.491 . S
H137 C138 0.950 . S
C138 C135 1.390 . S
C138 H137 0.950 . S
C138 C139 1.378 . S
C139 C138 1.378 . S
C139 C140 1.409 . S
C140 C136 1.387 . S
C140 C139 1.409 . S
C140 H142 0.951 . S
C141 C136 1.491 . S
C141 C143 1.382 . S
C141 C145 1.404 . S
H142 C140 0.951 . S
C143 C141 1.382 . S
C143 C144 1.390 . S
C143 H148 0.949 . S
C144 C143 1.390 . S
C144 C149 1.399 . S
C145 C141 1.404 . S
C145 H146 0.950 . S
C145 C147 1.375 . S
H146 C145 0.950 . S
C147 C145 1.375 . S
C147 C149 1.382 . S
C147 H151 0.950 . S
H148 C143 0.949 . S
C149 C144 1.399 . S
C149 C147 1.382 . S
C149 H150 0.952 . S
H150 C149 0.952 . S
H151 C147 0.950 . S
H152 C153 0.949 . S
C153 H152 0.949 . S
C153 C154 1.395 . S
C153 C155 1.391 . S
C154 C153 1.395 . S
C154 C157 1.390 . S
C155 C153 1.391 . S
C155 C159 1.387 . S
C155 C160 1.491 . S
H156 C157 0.950 . S
C157 C154 1.390 . S
C157 H156 0.950 . S
C157 C158 1.378 . S
C158 C157 1.378 . S
C158 C159 1.409 . S
C159 C155 1.387 . S
C159 C158 1.409 . S
C159 H161 0.951 . S
C160 C155 1.491 . S
C160 C162 1.382 . S
C160 C164 1.404 . S
H161 C159 0.951 . S
C162 C160 1.382 . S
C162 C163 1.390 . S
C162 H167 0.949 . S
C163 C162 1.390 . S
C163 C168 1.399 . S
C164 C160 1.404 . S
C164 H165 0.950 . S
C164 C166 1.375 . S
H165 C164 0.950 . S
C166 C164 1.375 . S
C166 C168 1.382 . S
C166 H170 0.950 . S
H167 C162 0.949 . S
C168 C163 1.399 . S
C168 C166 1.382 . S
C168 H169 0.952 . S
H169 C168 0.952 . S
H170 C166 0.950 . S
H171 C172 0.949 . S
C172 H171 0.949 . S
C172 C173 1.395 . S
C172 C174 1.391 . S
C173 C172 1.395 . S
C173 C176 1.390 . S
C174 C172 1.391 . S
C174 C178 1.387 . S
C174 C179 1.491 . S
H175 C176 0.950 . S
C176 C173 1.390 . S
C176 H175 0.950 . S
C176 C177 1.378 . S
C177 C176 1.378 . S
C177 C178 1.409 . S
C178 C174 1.387 . S
C178 C177 1.409 . S
C178 H180 0.951 . S
C179 C174 1.491 . S
C179 C181 1.382 . S
C179 C183 1.404 . S
H180 C178 0.951 . S
C181 C179 1.382 . S
C181 C182 1.390 . S
C181 H186 0.949 . S
C182 C181 1.390 . S
C182 C187 1.399 . S
C183 C179 1.404 . S
C183 H184 0.950 . S
C183 C185 1.375 . S
H184 C183 0.950 . S
C185 C183 1.375 . S
C185 C187 1.382 . S
C185 H189 0.950 . S
H186 C181 0.949 . S
C187 C182 1.399 . S
C187 C185 1.382 . S
C187 H188 0.952 . S
H188 C187 0.952 . S
H189 C185 0.950 . S
H190 C191 0.949 . S
C191 H190 0.949 . S
C191 C192 1.395 . S
C191 C193 1.391 . S
C192 C191 1.395 . S
C192 C195 1.390 . S
C193 C191 1.391 . S
C193 C197 1.387 . S
C193 C198 1.491 . S
H194 C195 0.950 . S
C195 C192 1.390 . S
C195 H194 0.950 . S
C195 C196 1.378 . S
C196 C195 1.378 . S
C196 C197 1.409 . S
C197 C193 1.387 . S
C197 C196 1.409 . S
C197 H199 0.951 . S
C198 C193 1.491 . S
C198 C200 1.382 . S
C198 C202 1.404 . S
H199 C197 0.951 . S
C200 C198 1.382 . S
C200 C201 1.390 . S
C200 H205 0.949 . S
C201 C200 1.390 . S
C201 C206 1.399 . S
C202 C198 1.404 . S
C202 H203 0.950 . S
C202 C204 1.375 . S
H203 C202 0.950 . S
C204 C202 1.375 . S
C204 C206 1.382 . S
C204 H208 0.950 . S
H205 C200 0.949 . S
C206 C201 1.399 . S
C206 C204 1.382 . S
C206 H207 0.952 . S
H207 C206 0.952 . S
H208 C204 0.950 . S
H209 C210 0.949 . S
C210 H209 0.949 . S
C210 C211 1.395 . S
C210 C212 1.391 . S
C211 C210 1.395 . S
C211 C214 1.390 . S
C212 C210 1.391 . S
C212 C216 1.387 . S
C212 C217 1.491 . S
H213 C214 0.950 . S
C214 C211 1.390 . S
C214 H213 0.950 . S
C214 C215 1.378 . S
C215 C214 1.378 . S
C215 C216 1.409 . S
C216 C212 1.387 . S
C216 C215 1.409 . S
C216 H218 0.951 . S
C217 C212 1.491 . S
C217 C219 1.382 . S
C217 C221 1.404 . S
H218 C216 0.951 . S
C219 C217 1.382 . S
C219 C220 1.390 . S
C219 H224 0.949 . S
C220 C219 1.390 . S
C220 C225 1.399 . S
C221 C217 1.404 . S
C221 H222 0.950 . S
C221 C223 1.375 . S
H222 C221 0.950 . S
C223 C221 1.375 . S
C223 C225 1.382 . S
C223 H227 0.950 . S
H224 C219 0.949 . S
C225 C220 1.399 . S
C225 C223 1.382 . S
C225 H226 0.952 . S
H226 C225 0.952 . S
H227 C223 0.950 . S
H228 C229 0.949 . S
C229 H228 0.949 . S
C229 C230 1.395 . S
C229 C231 1.391 . S
C230 C229 1.395 . S
C230 C233 1.390 . S
C231 C229 1.391 . S
C231 C235 1.387 . S
C231 C236 1.491 . S
H232 C233 0.950 . S
C233 C230 1.390 . S
C233 H232 0.950 . S
C233 C234 1.378 . S
C234 C233 1.378 . S
C234 C235 1.409 . S
C235 C231 1.387 . S
C235 C234 1.409 . S
C235 H237 0.951 . S
C236 C231 1.491 . S
C236 C238 1.382 . S
C236 C240 1.404 . S
H237 C235 0.951 . S
C238 C236 1.382 . S
C238 C239 1.390 . S
C238 H243 0.949 . S
C239 C238 1.390 . S
C239 C244 1.399 . S
C240 C236 1.404 . S
C240 H241 0.950 . S
C240 C242 1.375 . S
H241 C240 0.950 . S
C242 C240 1.375 . S
C242 C244 1.382 . S
C242 H246 0.950 . S
H243 C238 0.949 . S
C244 C239 1.399 . S
C244 C242 1.382 . S
C244 H245 0.952 . S
H245 C244 0.952 . S
H246 C242 0.950 . S
H247 C248 0.949 . S
C248 H247 0.949 . S
C248 C249 1.395 . S
C248 C250 1.391 . S
C249 C248 1.395 . S
C249 C252 1.390 . S
C250 C248 1.391 . S
C250 C254 1.387 . S
C250 C255 1.491 . S
H251 C252 0.950 . S
C252 C249 1.390 . S
C252 H251 0.950 . S
C252 C253 1.378 . S
C253 C252 1.378 . S
C253 C254 1.409 . S
C254 C250 1.387 . S
C254 C253 1.409 . S
C254 H256 0.951 . S
C255 C250 1.491 . S
C255 C257 1.382 1_556 S
C255 C259 1.404 . S
H256 C254 0.951 . S
C257 C255 1.382 1_554 S
C257 C258 1.390 . S
C257 H262 0.949 . S
C258 C257 1.390 . S
C258 C263 1.399 1_554 S
C259 C255 1.404 . S
C259 H260 0.950 . S
C259 C261 1.375 . S
H260 C259 0.950 . S
C261 C259 1.375 . S
C261 C263 1.382 . S
C261 H265 0.950 . S
H262 C257 0.949 . S
C263 C258 1.399 1_556 S
C263 C261 1.382 . S
C263 H264 0.952 1_556 S
H264 C263 0.952 1_554 S
H265 C261 0.950 . S
H266 C267 0.949 . S
C267 H266 0.949 . S
C267 C268 1.395 . S
C267 C269 1.391 . S
C268 C267 1.395 . S
C268 C271 1.390 . S
C269 C267 1.391 . S
C269 C273 1.387 . S
C269 C274 1.491 . S
H270 C271 0.950 . S
C271 C268 1.390 . S
C271 H270 0.950 . S
C271 C272 1.378 . S
C272 C271 1.378 . S
C272 C273 1.409 . S
C273 C269 1.387 . S
C273 C272 1.409 . S
C273 H275 0.951 . S
C274 C269 1.491 . S
C274 C276 1.382 . S
C274 C278 1.404 . S
H275 C273 0.951 . S
C276 C274 1.382 . S
C276 C277 1.390 . S
C276 H281 0.949 . S
C277 C276 1.390 . S
C277 C282 1.399 . S
C278 C274 1.404 . S
C278 H279 0.950 . S
C278 C280 1.375 . S
H279 C278 0.950 . S
C280 C278 1.375 . S
C280 C282 1.382 . S
C280 H284 0.950 . S
H281 C276 0.949 . S
C282 C277 1.399 . S
C282 C280 1.382 . S
C282 H283 0.952 . S
H283 C282 0.952 . S
H284 C280 0.950 . S
H285 C286 0.949 . S
C286 H285 0.949 . S
C286 C287 1.395 . S
C286 C288 1.391 . S
C287 C286 1.395 . S
C287 C290 1.390 . S
C288 C286 1.391 . S
C288 C292 1.387 . S
C288 C293 1.491 . S
H289 C290 0.950 . S
C290 C287 1.390 . S
C290 H289 0.950 . S
C290 C291 1.378 . S
C291 C290 1.378 . S
C291 C292 1.409 . S
C292 C288 1.387 . S
C292 C291 1.409 . S
C292 H294 0.951 . S
C293 C288 1.491 . S
C293 C295 1.382 . S
C293 C297 1.404 . S
H294 C292 0.951 . S
C295 C293 1.382 . S
C295 C296 1.390 . S
C295 H300 0.949 . S
C296 C295 1.390 . S
C296 C301 1.399 . S
C297 C293 1.404 . S
C297 H298 0.950 . S
C297 C299 1.375 . S
H298 C297 0.950 . S
C299 C297 1.375 . S
C299 C301 1.382 . S
C299 H303 0.950 . S
H300 C295 0.949 . S
C301 C296 1.399 . S
C301 C299 1.382 . S
C301 H302 0.952 . S
H302 C301 0.952 . S
H303 C299 0.950 . S
Zn304 O307 2.031 . S
Zn304 O309 2.049 . S
Zn304 O314 2.067 . S
Zn305 O306 1.962 . S
Zn305 O308 1.986 . S
Zn305 O310 1.996 . S
Zn305 O313 1.943 . S
O306 Zn305 1.962 . S
O306 C311 1.254 . S
O307 Zn304 2.031 . S
O307 C311 1.269 . S
O308 Zn305 1.986 . S
O308 C315 1.262 . S
O309 Zn304 2.049 . S
O309 C317 1.260 . S
O310 Zn305 1.996 . S
O310 C317 1.257 . S
C311 O306 1.254 . S
C311 O307 1.269 . S
C312 O313 1.249 . S
C312 O314 1.270 . S
O313 Zn305 1.943 . S
O313 C312 1.249 . S
O314 Zn304 2.067 . S
O314 C312 1.270 . S
C315 O308 1.262 . S
C315 O316 1.232 . S
O316 C315 1.232 . S
C317 O309 1.260 . S
C317 O310 1.257 . S
Zn318 O321 2.031 . S
Zn318 O323 2.049 . S
Zn318 O328 2.067 . S
Zn319 O320 1.962 . S
Zn319 O322 1.986 . S
Zn319 O324 1.996 . S
Zn319 O327 1.943 . S
O320 Zn319 1.962 . S
O320 C325 1.254 . S
O321 Zn318 2.031 . S
O321 C325 1.269 . S
O322 Zn319 1.986 . S
O322 C329 1.262 . S
O323 Zn318 2.049 . S
O323 C331 1.260 . S
O324 Zn319 1.996 . S
O324 C331 1.257 . S
C325 O320 1.254 . S
C325 O321 1.269 . S
C326 O327 1.249 . S
C326 O328 1.270 . S
O327 Zn319 1.943 . S
O327 C326 1.249 . S
O328 Zn318 2.067 . S
O328 C326 1.270 . S
C329 O322 1.262 . S
C329 O330 1.232 . S
O330 C329 1.232 . S
C331 O323 1.260 . S
C331 O324 1.257 . S
Zn332 O335 2.031 . S
Zn332 O337 2.049 . S
Zn332 O342 2.067 . S
Zn333 O334 1.962 . S
Zn333 O336 1.986 . S
Zn333 O338 1.996 1_554 S
Zn333 O341 1.943 . S
O334 Zn333 1.962 . S
O334 C339 1.254 . S
O335 Zn332 2.031 . S
O335 C339 1.269 1_556 S
O336 Zn333 1.986 . S
O336 C343 1.262 . S
O337 Zn332 2.049 . S
O337 C345 1.260 . S
O338 Zn333 1.996 1_556 S
O338 C345 1.257 . S
C339 O334 1.254 . S
C339 O335 1.269 1_554 S
C340 O341 1.249 1_556 S
C340 O342 1.270 . S
O341 Zn333 1.943 . S
O341 C340 1.249 1_554 S
O342 Zn332 2.067 . S
O342 C340 1.270 . S
C343 O336 1.262 . S
C343 O344 1.232 . S
O344 C343 1.232 . S
C345 O337 1.260 . S
C345 O338 1.257 . S
Zn346 O349 2.031 . S
Zn346 O351 2.049 . S
Zn346 O356 2.067 1_545 S
Zn347 O348 1.962 . S
Zn347 O350 1.986 . S
Zn347 O352 1.996 . S
Zn347 O355 1.943 1_545 S
O348 Zn347 1.962 . S
O348 C353 1.254 . S
O349 Zn346 2.031 . S
O349 C353 1.269 . S
O350 Zn347 1.986 . S
O350 C357 1.262 . S
O351 Zn346 2.049 . S
O351 C359 1.260 . S
O352 Zn347 1.996 . S
O352 C359 1.257 . S
C353 O348 1.254 . S
C353 O349 1.269 . S
C354 O355 1.249 . S
C354 O356 1.270 . S
O355 Zn347 1.943 1_565 S
O355 C354 1.249 . S
O356 Zn346 2.067 1_565 S
O356 C354 1.270 . S
C357 O350 1.262 . S
C357 O358 1.232 . S
O358 C357 1.232 . S
C359 O351 1.260 . S
C359 O352 1.257 . S
Zn360 O363 2.031 . S
Zn360 O365 2.049 . S
Zn360 O370 2.067 . S
Zn361 O362 1.962 . S
Zn361 O364 1.986 . S
Zn361 O366 1.996 . S
Zn361 O369 1.943 . S
O362 Zn361 1.962 . S
O362 C367 1.254 . S
O363 Zn360 2.031 . S
O363 C367 1.269 . S
O364 Zn361 1.986 . S
O364 C371 1.262 . S
O365 Zn360 2.049 . S
O365 C373 1.260 . S
O366 Zn361 1.996 . S
O366 C373 1.257 . S
C367 O362 1.254 . S
C367 O363 1.269 . S
C368 O369 1.249 . S
C368 O370 1.270 . S
O369 Zn361 1.943 . S
O369 C368 1.249 . S
O370 Zn360 2.067 . S
O370 C368 1.270 . S
C371 O364 1.262 . S
C371 O372 1.232 . S
O372 C371 1.232 . S
C373 O365 1.260 . S
C373 O366 1.257 . S
Zn374 O377 2.031 . S
Zn374 O379 2.049 . S
Zn374 O384 2.067 . S
Zn375 O376 1.962 . S
Zn375 O378 1.986 . S
Zn375 O380 1.996 . S
Zn375 O383 1.943 . S
O376 Zn375 1.962 . S
O376 C381 1.254 . S
O377 Zn374 2.031 . S
O377 C381 1.269 . S
O378 Zn375 1.986 . S
O378 C385 1.262 . S
O379 Zn374 2.049 . S
O379 C387 1.260 . S
O380 Zn375 1.996 . S
O380 C387 1.257 . S
C381 O376 1.254 . S
C381 O377 1.269 . S
C382 O383 1.249 . S
C382 O384 1.270 . S
O383 Zn375 1.943 . S
O383 C382 1.249 . S
O384 Zn374 2.067 . S
O384 C382 1.270 . S
C385 O378 1.262 . S
C385 O386 1.232 . S
O386 C385 1.232 . S
C387 O379 1.260 . S
C387 O380 1.257 . S
Zn388 O391 2.031 . S
Zn388 O393 2.049 . S
Zn388 O398 2.067 . S
Zn389 O390 1.962 . S
Zn389 O392 1.986 . S
Zn389 O394 1.996 . S
Zn389 O397 1.943 . S
O390 Zn389 1.962 . S
O390 C395 1.254 . S
O391 Zn388 2.031 . S
O391 C395 1.269 . S
O392 Zn389 1.986 . S
O392 C399 1.262 . S
O393 Zn388 2.049 . S
O393 C401 1.260 . S
O394 Zn389 1.996 . S
O394 C401 1.257 . S
C395 O390 1.254 . S
C395 O391 1.269 . S
C396 O397 1.249 . S
C396 O398 1.270 . S
O397 Zn389 1.943 . S
O397 C396 1.249 . S
O398 Zn388 2.067 . S
O398 C396 1.270 . S
C399 O392 1.262 . S
C399 O400 1.232 . S
O400 C399 1.232 . S
C401 O393 1.260 . S
C401 O394 1.257 . S
Zn402 O405 2.031 1_565 S
Zn402 O407 2.049 . S
Zn402 O412 2.067 . S
Zn403 O404 1.962 . S
Zn403 O406 1.986 . S
Zn403 O408 1.996 1_545 S
Zn403 O411 1.943 . S
O404 Zn403 1.962 . S
O404 C409 1.254 . S
O405 Zn402 2.031 1_545 S
O405 C409 1.269 . S
O406 Zn403 1.986 . S
O406 C413 1.262 . S
O407 Zn402 2.049 . S
O407 C415 1.260 . S
O408 Zn403 1.996 1_565 S
O408 C415 1.257 . S
C409 O404 1.254 . S
C409 O405 1.269 . S
C410 O411 1.262 . S
C410 O412 1.250 1_545 S
O411 Zn403 1.943 . S
O411 C410 1.262 . S
O412 Zn402 2.067 . S
O412 C410 1.250 1_565 S
C413 O406 1.262 . S
C413 O414 1.232 . S
O414 C413 1.232 . S
C415 O407 1.260 . S
C415 O408 1.257 . S
Zn416 O419 2.031 . S
Zn416 O421 2.049 . S
Zn416 O426 2.067 1_455 S
Zn417 O418 1.962 . S
Zn417 O420 1.986 . S
Zn417 O422 1.996 . S
Zn417 O425 1.943 1_455 S
O418 Zn417 1.962 . S
O418 C423 1.254 . S
O419 Zn416 2.031 . S
O419 C423 1.269 . S
O420 Zn417 1.986 . S
O420 C427 1.262 . S
O421 Zn416 2.049 . S
O421 C429 1.260 . S
O422 Zn417 1.996 . S
O422 C429 1.257 . S
C423 O418 1.254 . S
C423 O419 1.269 . S
C424 O425 1.249 . S
C424 O426 1.270 . S
O425 Zn417 1.943 1_655 S
O425 C424 1.249 . S
O426 Zn416 2.067 1_655 S
O426 C424 1.270 . S
C427 O420 1.262 . S
C427 O428 1.232 . S
O428 C427 1.232 . S
C429 O421 1.260 . S
C429 O422 1.257 . S
Zn430 O433 2.031 . S
Zn430 O435 2.049 . S
Zn430 O440 2.067 . S
Zn431 O432 1.962 . S
Zn431 O434 1.986 . S
Zn431 O436 1.996 . S
Zn431 O439 1.943 . S
O432 Zn431 1.962 . S
O432 C437 1.254 . S
O433 Zn430 2.031 . S
O433 C437 1.269 . S
O434 Zn431 1.986 . S
O434 C441 1.262 . S
O435 Zn430 2.049 . S
O435 C443 1.260 . S
O436 Zn431 1.996 . S
O436 C443 1.257 . S
C437 O432 1.254 . S
C437 O433 1.269 . S
C438 O439 1.249 . S
C438 O440 1.270 . S
O439 Zn431 1.943 . S
O439 C438 1.249 . S
O440 Zn430 2.067 . S
O440 C438 1.270 . S
C441 O434 1.262 . S
C441 O442 1.232 . S
O442 C441 1.232 . S
C443 O435 1.260 . S
C443 O436 1.257 . S
Zn444 O447 2.031 1_655 S
Zn444 O449 2.049 . S
Zn444 O454 2.067 . S
Zn445 O446 1.962 . S
Zn445 O448 1.986 . S
Zn445 O450 1.996 1_455 S
Zn445 O453 1.943 . S
O446 Zn445 1.962 . S
O446 C451 1.254 . S
O447 Zn444 2.031 1_455 S
O447 C451 1.269 . S
O448 Zn445 1.986 . S
O448 C455 1.262 . S
O449 Zn444 2.049 . S
O449 C457 1.260 . S
O450 Zn445 1.996 1_655 S
O450 C457 1.257 . S
C451 O446 1.254 . S
C451 O447 1.269 . S
C452 O453 1.250 1_655 S
C452 O454 1.268 . S
O453 Zn445 1.943 . S
O453 C452 1.250 1_455 S
O454 Zn444 2.067 . S
O454 C452 1.268 . S
C455 O448 1.262 . S
C455 O456 1.232 . S
O456 C455 1.232 . S
C457 O449 1.260 . S
C457 O450 1.257 . S
Zn458 O461 2.031 . S
Zn458 O463 2.049 . S
Zn458 O468 2.067 . S
Zn459 O460 1.962 . S
Zn459 O462 1.986 . S
Zn459 O464 1.996 . S
Zn459 O467 1.943 . S
O460 Zn459 1.962 . S
O460 C465 1.254 . S
O461 Zn458 2.031 . S
O461 C465 1.269 . S
O462 Zn459 1.986 . S
O462 C469 1.262 . S
O463 Zn458 2.049 . S
O463 C471 1.260 . S
O464 Zn459 1.996 . S
O464 C471 1.257 . S
C465 O460 1.254 . S
C465 O461 1.269 . S
C466 O467 1.249 . S
C466 O468 1.270 . S
O467 Zn459 1.943 . S
O467 C466 1.249 . S
O468 Zn458 2.067 . S
O468 C466 1.270 . S
C469 O462 1.262 . S
C469 O470 1.232 . S
O470 C469 1.232 . S
C471 O463 1.260 . S
C471 O464 1.257 . S
H472 C480 0.950 . S
H473 C485 0.950 . S
H474 C482 0.950 . S
H475 C484 0.950 . S
H476 C486 0.950 . S
H477 C488 0.950 . S
H478 C490 0.950 . S
H479 C491 0.950 . S
C480 H472 0.950 . S
C480 C481 1.386 . S
C480 C482 1.391 . S
C481 C480 1.386 . S
C481 C485 1.393 . S
C482 H474 0.950 . S
C482 C480 1.391 . S
C482 C483 1.400 . S
C483 C482 1.400 . S
C483 C484 1.398 . S
C483 C489 1.491 . S
C484 H475 0.950 . S
C484 C483 1.398 . S
C484 C485 1.391 . S
C485 H473 0.950 . S
C485 C481 1.393 . S
C485 C484 1.391 . S
C486 H476 0.950 . S
C486 C487 1.386 . S
C486 C488 1.391 . S
C487 C486 1.386 . S
C487 C491 1.393 . S
C488 H477 0.950 . S
C488 C486 1.391 . S
C488 C489 1.400 . S
C489 C483 1.491 . S
C489 C488 1.400 . S
C489 C490 1.398 . S
C490 H478 0.950 . S
C490 C489 1.398 . S
C490 C491 1.391 . S
C491 H479 0.950 . S
C491 C487 1.393 . S
C491 C490 1.391 . S
H492 C500 0.950 . S
H493 C505 0.950 . S
H494 C502 0.950 . S
H495 C504 0.950 . S
H496 C506 0.950 . S
H497 C508 0.950 . S
H498 C510 0.950 . S
H499 C511 0.950 . S
C500 H492 0.950 . S
C500 C501 1.386 . S
C500 C502 1.391 . S
C501 C500 1.386 . S
C501 C505 1.393 . S
C502 H494 0.950 . S
C502 C500 1.391 . S
C502 C503 1.400 . S
C503 C502 1.400 . S
C503 C504 1.398 . S
C503 C509 1.491 . S
C504 H495 0.950 . S
C504 C503 1.398 . S
C504 C505 1.391 . S
C505 H493 0.950 . S
C505 C501 1.393 . S
C505 C504 1.391 . S
C506 H496 0.950 . S
C506 C507 1.386 . S
C506 C508 1.391 . S
C507 C506 1.386 . S
C507 C511 1.393 . S
C508 H497 0.950 . S
C508 C506 1.391 . S
C508 C509 1.400 . S
C509 C503 1.491 . S
C509 C508 1.400 . S
C509 C510 1.398 . S
C510 H498 0.950 . S
C510 C509 1.398 . S
C510 C511 1.391 . S
C511 H499 0.950 . S
C511 C507 1.393 . S
C511 C510 1.391 . S
H512 C520 0.950 . S
H513 C525 0.950 . S
H514 C522 0.950 . S
H515 C524 0.950 . S
H516 C526 0.950 . S
H517 C528 0.950 . S
H518 C530 0.950 . S
H519 C531 0.950 . S
C520 H512 0.950 . S
C520 C521 1.386 . S
C520 C522 1.391 . S
C521 C520 1.386 . S
C521 C525 1.393 . S
C522 H514 0.950 . S
C522 C520 1.391 . S
C522 C523 1.400 . S
C523 C522 1.400 . S
C523 C524 1.398 . S
C523 C529 1.491 . S
C524 H515 0.950 . S
C524 C523 1.398 . S
C524 C525 1.391 . S
C525 H513 0.950 . S
C525 C521 1.393 . S
C525 C524 1.391 . S
C526 H516 0.950 . S
C526 C527 1.386 . S
C526 C528 1.391 . S
C527 C526 1.386 . S
C527 C531 1.393 . S
C528 H517 0.950 . S
C528 C526 1.391 . S
C528 C529 1.400 . S
C529 C523 1.491 . S
C529 C528 1.400 . S
C529 C530 1.398 . S
C530 H518 0.950 . S
C530 C529 1.398 . S
C530 C531 1.391 . S
C531 H519 0.950 . S
C531 C527 1.393 . S
C531 C530 1.391 . S
H532 C540 0.950 . S
H533 C545 0.950 . S
H534 C542 0.950 . S
H535 C544 0.950 . S
H536 C546 0.981 . S
H537 C548 0.950 . S
H538 C550 0.950 . S
H539 C551 0.950 . S
C540 H532 0.950 . S
C540 C541 1.386 . S
C540 C542 1.391 . S
C541 C540 1.386 . S
C541 C545 1.393 . S
C542 H534 0.950 . S
C542 C540 1.391 . S
C542 C543 1.400 . S
C543 C542 1.400 . S
C543 C544 1.398 . S
C543 C549 1.491 . S
C544 H535 0.950 . S
C544 C543 1.398 . S
C544 C545 1.391 . S
C545 H533 0.950 . S
C545 C541 1.393 . S
C545 C544 1.391 . S
C546 H536 0.981 . S
C546 C547 1.371 1_655 S
C546 C548 1.375 1_645 S
C547 C546 1.371 1_455 S
C547 C551 1.393 . S
C548 H537 0.950 . S
C548 C546 1.375 1_465 S
C548 C549 1.400 . S
C549 C543 1.491 . S
C549 C548 1.400 . S
C549 C550 1.398 1_565 S
C550 H538 0.950 . S
C550 C549 1.398 1_545 S
C550 C551 1.391 . S
C551 H539 0.950 . S
C551 C547 1.393 . S
C551 C550 1.391 . S
H552 C560 0.950 . S
H553 C565 0.950 . S
H554 C562 0.950 . S
H555 C564 0.950 . S
H556 C566 0.950 . S
H557 C568 0.950 . S
H558 C570 0.950 . S
H559 C571 0.950 . S
C560 H552 0.950 . S
C560 C561 1.386 . S
C560 C562 1.391 . S
C561 C560 1.386 . S
C561 C565 1.393 . S
C562 H554 0.950 . S
C562 C560 1.391 . S
C562 C563 1.400 . S
C563 C562 1.400 . S
C563 C564 1.398 . S
C563 C569 1.491 . S
C564 H555 0.950 . S
C564 C563 1.398 . S
C564 C565 1.391 . S
C565 H553 0.950 . S
C565 C561 1.393 . S
C565 C564 1.391 . S
C566 H556 0.950 . S
C566 C567 1.386 . S
C566 C568 1.391 . S
C567 C566 1.386 . S
C567 C571 1.393 . S
C568 H557 0.950 . S
C568 C566 1.391 . S
C568 C569 1.400 . S
C569 C563 1.491 . S
C569 C568 1.400 . S
C569 C570 1.398 . S
C570 H558 0.950 . S
C570 C569 1.398 . S
C570 C571 1.391 . S
C571 H559 0.950 . S
C571 C567 1.393 . S
C571 C570 1.391 . S
H572 C580 0.950 . S
H573 C585 0.950 . S
H574 C582 0.950 . S
H575 C584 0.950 . S
H576 C586 0.950 . S
H577 C588 0.950 . S
H578 C590 0.950 . S
H579 C591 0.950 . S
C580 H572 0.950 . S
C580 C581 1.386 . S
C580 C582 1.391 . S
C581 C580 1.386 . S
C581 C585 1.393 . S
C582 H574 0.950 . S
C582 C580 1.391 . S
C582 C583 1.400 . S
C583 C582 1.400 . S
C583 C584 1.398 . S
C583 C589 1.491 . S
C584 H575 0.950 . S
C584 C583 1.398 . S
C584 C585 1.391 . S
C585 H573 0.950 . S
C585 C581 1.393 . S
C585 C584 1.391 . S
C586 H576 0.950 . S
C586 C587 1.386 . S
C586 C588 1.391 . S
C587 C586 1.386 . S
C587 C591 1.393 . S
C588 H577 0.950 . S
C588 C586 1.391 . S
C588 C589 1.400 . S
C589 C583 1.491 . S
C589 C588 1.400 . S
C589 C590 1.398 . S
C590 H578 0.950 . S
C590 C589 1.398 . S
C590 C591 1.391 . S
C591 H579 0.950 . S
C591 C587 1.393 . S
C591 C590 1.391 . S
H592 C600 0.950 . S
H593 C605 0.950 . S
H594 C602 0.950 . S
H595 C604 0.950 . S
H596 C606 0.950 . S
H597 C608 0.950 . S
H598 C610 0.950 . S
H599 C611 0.950 . S
C600 H592 0.950 . S
C600 C601 1.386 . S
C600 C602 1.391 . S
C601 C600 1.386 . S
C601 C605 1.393 . S
C602 H594 0.950 . S
C602 C600 1.391 . S
C602 C603 1.400 . S
C603 C602 1.400 . S
C603 C604 1.398 . S
C603 C609 1.491 . S
C604 H595 0.950 . S
C604 C603 1.398 . S
C604 C605 1.391 . S
C605 H593 0.950 . S
C605 C601 1.393 . S
C605 C604 1.391 . S
C606 H596 0.950 . S
C606 C607 1.386 . S
C606 C608 1.391 . S
C607 C606 1.386 . S
C607 C611 1.393 . S
C608 H597 0.950 . S
C608 C606 1.391 . S
C608 C609 1.400 . S
C609 C603 1.491 . S
C609 C608 1.400 . S
C609 C610 1.398 . S
C610 H598 0.950 . S
C610 C609 1.398 . S
C610 C611 1.391 . S
C611 H599 0.950 . S
C611 C607 1.393 . S
C611 C610 1.391 . S
H612 C620 0.950 . S
H613 C625 0.950 1_545 S
H614 C622 0.950 . S
H615 C624 0.955 . S
H616 C626 0.950 . S
H617 C628 0.950 . S
H618 C630 0.950 . S
H619 C631 0.950 . S
C620 H612 0.950 . S
C620 C621 1.386 . S
C620 C622 1.391 . S
C621 C620 1.386 . S
C621 C625 1.393 . S
C622 H614 0.950 . S
C622 C620 1.391 . S
C622 C623 1.400 . S
C623 C622 1.400 . S
C623 C624 1.393 1_565 S
C623 C629 1.491 . S
C624 H615 0.955 . S
C624 C623 1.393 1_545 S
C624 C625 1.391 1_545 S
C625 H613 0.950 1_565 S
C625 C621 1.393 . S
C625 C624 1.391 1_565 S
C626 H616 0.950 . S
C626 C627 1.386 1_545 S
C626 C628 1.391 . S
C627 C626 1.386 1_565 S
C627 C631 1.393 . S
C628 H617 0.950 . S
C628 C626 1.391 . S
C628 C629 1.400 1_545 S
C629 C623 1.491 . S
C629 C628 1.400 1_565 S
C629 C630 1.398 . S
C630 H618 0.950 . S
C630 C629 1.398 . S
C630 C631 1.391 . S
C631 H619 0.950 . S
C631 C627 1.393 . S
C631 C630 1.391 . S
H632 C640 0.950 . S
H633 C645 0.950 . S
H634 C642 0.950 . S
H635 C644 0.950 . S
H636 C646 0.950 . S
H637 C648 0.950 . S
H638 C650 0.950 . S
H639 C651 0.950 . S
C640 H632 0.950 . S
C640 C641 1.386 . S
C640 C642 1.391 . S
C641 C640 1.386 . S
C641 C645 1.393 . S
C642 H634 0.950 . S
C642 C640 1.391 . S
C642 C643 1.400 . S
C643 C642 1.400 . S
C643 C644 1.398 . S
C643 C649 1.491 . S
C644 H635 0.950 . S
C644 C643 1.398 . S
C644 C645 1.391 . S
C645 H633 0.950 . S
C645 C641 1.393 . S
C645 C644 1.391 . S
C646 H636 0.950 . S
C646 C647 1.386 . S
C646 C648 1.391 . S
C647 C646 1.386 . S
C647 C651 1.393 . S
C648 H637 0.950 . S
C648 C646 1.391 . S
C648 C649 1.400 . S
C649 C643 1.491 . S
C649 C648 1.400 . S
C649 C650 1.398 . S
C650 H638 0.950 . S
C650 C649 1.398 . S
C650 C651 1.391 . S
C651 H639 0.950 . S
C651 C647 1.393 . S
C651 C650 1.391 . S
H652 C660 0.950 . S
H653 C665 0.950 . S
H654 C662 0.950 . S
H655 C664 0.950 . S
H656 C666 0.950 . S
H657 C668 0.950 . S
H658 C670 0.950 . S
H659 C671 0.950 . S
C660 H652 0.950 . S
C660 C661 1.386 . S
C660 C662 1.391 . S
C661 C660 1.386 . S
C661 C665 1.393 . S
C662 H654 0.950 . S
C662 C660 1.391 . S
C662 C663 1.400 . S
C663 C662 1.400 . S
C663 C664 1.398 . S
C663 C669 1.491 . S
C664 H655 0.950 . S
C664 C663 1.398 . S
C664 C665 1.391 . S
C665 H653 0.950 . S
C665 C661 1.393 . S
C665 C664 1.391 . S
C666 H656 0.950 . S
C666 C667 1.386 . S
C666 C668 1.391 . S
C667 C666 1.386 . S
C667 C671 1.393 . S
C668 H657 0.950 . S
C668 C666 1.391 . S
C668 C669 1.400 . S
C669 C663 1.491 . S
C669 C668 1.400 . S
C669 C670 1.398 . S
C670 H658 0.950 . S
C670 C669 1.398 . S
C670 C671 1.391 . S
C671 H659 0.950 . S
C671 C667 1.393 . S
C671 C670 1.391 . S
H672 C680 0.950 . S
H673 C685 0.950 . S
H674 C682 0.950 . S
H675 C684 0.950 . S
H676 C686 0.950 . S
H677 C688 0.950 . S
H678 C690 0.950 . S
H679 C691 0.950 . S
C680 H672 0.950 . S
C680 C681 1.386 . S
C680 C682 1.391 . S
C681 C680 1.386 . S
C681 C685 1.393 . S
C682 H674 0.950 . S
C682 C680 1.391 . S
C682 C683 1.400 . S
C683 C682 1.400 . S
C683 C684 1.398 . S
C683 C689 1.491 . S
C684 H675 0.950 . S
C684 C683 1.398 . S
C684 C685 1.391 . S
C685 H673 0.950 . S
C685 C681 1.393 . S
C685 C684 1.391 . S
C686 H676 0.950 . S
C686 C687 1.386 . S
C686 C688 1.391 . S
C687 C686 1.386 . S
C687 C691 1.393 . S
C688 H677 0.950 . S
C688 C686 1.391 . S
C688 C689 1.400 . S
C689 C683 1.491 . S
C689 C688 1.400 . S
C689 C690 1.398 . S
C690 H678 0.950 . S
C690 C689 1.398 . S
C690 C691 1.391 . S
C691 H679 0.950 . S
C691 C687 1.393 . S
C691 C690 1.391 . S
H692 C700 0.950 . S
H693 C705 0.950 . S
H694 C702 0.950 . S
H695 C704 0.950 . S
H696 C706 0.950 . S
H697 C708 0.950 . S
H698 C710 0.950 . S
H699 C711 0.950 . S
C700 H692 0.950 . S
C700 C701 1.386 . S
C700 C702 1.391 . S
C701 C700 1.386 . S
C701 C705 1.393 . S
C702 H694 0.950 . S
C702 C700 1.391 . S
C702 C703 1.400 . S
C703 C702 1.400 . S
C703 C704 1.398 . S
C703 C709 1.491 . S
C704 H695 0.950 . S
C704 C703 1.398 . S
C704 C705 1.391 . S
C705 H693 0.950 . S
C705 C701 1.393 . S
C705 C704 1.391 . S
C706 H696 0.950 . S
C706 C707 1.386 . S
C706 C708 1.391 . S
C707 C706 1.386 . S
C707 C711 1.393 . S
C708 H697 0.950 . S
C708 C706 1.391 . S
C708 C709 1.400 . S
C709 C703 1.491 . S
C709 C708 1.400 . S
C709 C710 1.398 . S
C710 H698 0.950 . S
C710 C709 1.398 . S
C710 C711 1.391 . S
C711 H699 0.950 . S
C711 C707 1.393 . S
C711 C710 1.391 . S
H712 C720 0.950 . S
H713 C725 0.950 . S
H714 C722 0.950 . S
H715 C724 0.950 . S
H716 C726 0.950 . S
H717 C728 0.950 . S
H718 C730 0.950 . S
H719 C731 0.950 . S
C720 H712 0.950 . S
C720 C721 1.386 . S
C720 C722 1.391 . S
C721 C720 1.386 . S
C721 C725 1.393 . S
C722 H714 0.950 . S
C722 C720 1.391 . S
C722 C723 1.400 . S
C723 C722 1.400 . S
C723 C724 1.398 . S
C723 C729 1.491 . S
C724 H715 0.950 . S
C724 C723 1.398 . S
C724 C725 1.391 . S
C725 H713 0.950 . S
C725 C721 1.393 . S
C725 C724 1.391 . S
C726 H716 0.950 . S
C726 C727 1.386 . S
C726 C728 1.391 . S
C727 C726 1.386 . S
C727 C731 1.393 . S
C728 H717 0.950 . S
C728 C726 1.391 . S
C728 C729 1.400 . S
C729 C723 1.491 . S
C729 C728 1.400 . S
C729 C730 1.398 . S
C730 H718 0.950 . S
C730 C729 1.398 . S
C730 C731 1.391 . S
C731 H719 0.950 . S
C731 C727 1.393 . S
C731 C730 1.391 . S
H732 C740 0.950 . S
H733 C745 0.950 . S
H734 C742 0.950 . S
H735 C744 0.950 . S
H736 C746 0.950 . S
H737 C748 0.950 . S
H738 C750 0.950 . S
H739 C751 0.950 . S
C740 H732 0.950 . S
C740 C741 1.386 . S
C740 C742 1.391 . S
C741 C740 1.386 . S
C741 C745 1.393 . S
C742 H734 0.950 . S
C742 C740 1.391 . S
C742 C743 1.400 . S
C743 C742 1.400 . S
C743 C744 1.398 . S
C743 C749 1.491 . S
C744 H735 0.950 . S
C744 C743 1.398 . S
C744 C745 1.391 . S
C745 H733 0.950 . S
C745 C741 1.393 . S
C745 C744 1.391 . S
C746 H736 0.950 . S
C746 C747 1.386 . S
C746 C748 1.391 . S
C747 C746 1.386 . S
C747 C751 1.393 . S
C748 H737 0.950 . S
C748 C746 1.391 . S
C748 C749 1.400 . S
C749 C743 1.491 . S
C749 C748 1.400 . S
C749 C750 1.398 . S
C750 H738 0.950 . S
C750 C749 1.398 . S
C750 C751 1.391 . S
C751 H739 0.950 . S
C751 C747 1.393 . S
C751 C750 1.391 . S
H752 C760 0.950 . S
H753 C765 0.950 . S
H754 C762 0.950 . S
H755 C764 0.950 . S
H756 C766 0.950 . S
H757 C768 0.950 . S
H758 C770 0.950 . S
H759 C771 0.950 . S
C760 H752 0.950 . S
C760 C761 1.386 . S
C760 C762 1.391 . S
C761 C760 1.386 . S
C761 C765 1.393 . S
C762 H754 0.950 . S
C762 C760 1.391 . S
C762 C763 1.400 . S
C763 C762 1.400 . S
C763 C764 1.398 . S
C763 C769 1.491 . S
C764 H755 0.950 . S
C764 C763 1.398 . S
C764 C765 1.391 . S
C765 H753 0.950 . S
C765 C761 1.393 . S
C765 C764 1.391 . S
C766 H756 0.950 . S
C766 C767 1.386 . S
C766 C768 1.391 . S
C767 C766 1.386 . S
C767 C771 1.393 . S
C768 H757 0.950 . S
C768 C766 1.391 . S
C768 C769 1.400 . S
C769 C763 1.491 . S
C769 C768 1.400 . S
C769 C770 1.398 . S
C770 H758 0.950 . S
C770 C769 1.398 . S
C770 C771 1.391 . S
C771 H759 0.950 . S
C771 C767 1.393 . S
C771 C770 1.391 . S
H772 C780 0.950 1_455 S
H773 C785 0.950 . S
H774 C782 0.950 1_455 S
H775 C784 0.950 . S
H776 C786 0.950 . S
H777 C788 0.950 . S
H778 C790 0.950 . S
H779 C791 0.950 . S
C780 H772 0.950 1_655 S
C780 C781 1.386 . S
C780 C782 1.391 . S
C781 C780 1.386 . S
C781 C785 1.393 . S
C782 H774 0.950 1_655 S
C782 C780 1.391 . S
C782 C783 1.400 . S
C783 C782 1.400 . S
C783 C784 1.398 . S
C783 C789 1.491 . S
C784 H775 0.950 . S
C784 C783 1.398 . S
C784 C785 1.391 . S
C785 H773 0.950 . S
C785 C781 1.393 . S
C785 C784 1.391 . S
C786 H776 0.950 . S
C786 C787 1.360 1_655 S
C786 C788 1.391 . S
C787 C786 1.360 1_455 S
C787 C791 1.417 . S
C788 H777 0.950 . S
C788 C786 1.391 . S
C788 C789 1.400 . S
C789 C783 1.491 . S
C789 C788 1.400 . S
C789 C790 1.398 1_655 S
C790 H778 0.950 . S
C790 C789 1.398 1_455 S
C790 C791 1.391 . S
C791 H779 0.950 . S
C791 C787 1.417 . S
C791 C790 1.391 . S
H792 C800 0.950 . S
H793 C805 0.950 . S
H794 C802 0.950 . S
H795 C804 0.950 . S
H796 C806 0.950 . S
H797 C808 0.950 . S
H798 C810 0.950 . S
H799 C811 0.950 . S
C800 H792 0.950 . S
C800 C801 1.386 . S
C800 C802 1.391 . S
C801 C800 1.386 . S
C801 C805 1.393 . S
C802 H794 0.950 . S
C802 C800 1.391 . S
C802 C803 1.400 . S
C803 C802 1.400 . S
C803 C804 1.398 . S
C803 C809 1.491 . S
C804 H795 0.950 . S
C804 C803 1.398 . S
C804 C805 1.391 . S
C805 H793 0.950 . S
C805 C801 1.393 . S
C805 C804 1.391 . S
C806 H796 0.950 . S
C806 C807 1.386 . S
C806 C808 1.391 . S
C807 C806 1.386 . S
C807 C811 1.393 . S
C808 H797 0.950 . S
C808 C806 1.391 . S
C808 C809 1.400 . S
C809 C803 1.491 . S
C809 C808 1.400 . S
C809 C810 1.398 . S
C810 H798 0.950 . S
C810 C809 1.398 . S
C810 C811 1.391 . S
C811 H799 0.950 . S
C811 C807 1.393 . S
C811 C810 1.391 . S
H812 C820 0.950 . S
H813 C825 0.950 . S
H814 C822 0.950 . S
H815 C824 0.950 . S
H816 C826 0.950 . S
H817 C828 0.950 . S
H818 C830 0.950 . S
H819 C831 0.950 . S
C820 H812 0.950 . S
C820 C821 1.386 . S
C820 C822 1.391 . S
C821 C820 1.386 . S
C821 C825 1.393 . S
C822 H814 0.950 . S
C822 C820 1.391 . S
C822 C823 1.400 . S
C823 C822 1.400 . S
C823 C824 1.398 . S
C823 C829 1.491 . S
C824 H815 0.950 . S
C824 C823 1.398 . S
C824 C825 1.391 . S
C825 H813 0.950 . S
C825 C821 1.393 . S
C825 C824 1.391 . S
C826 H816 0.950 . S
C826 C827 1.386 . S
C826 C828 1.391 . S
C827 C826 1.386 . S
C827 C831 1.393 . S
C828 H817 0.950 . S
C828 C826 1.391 . S
C828 C829 1.400 . S
C829 C823 1.491 . S
C829 C828 1.400 . S
C829 C830 1.398 . S
C830 H818 0.950 . S
C830 C829 1.398 . S
C830 C831 1.391 . S
C831 H819 0.950 . S
C831 C827 1.393 . S
C831 C830 1.391 . S
H832 C840 0.950 . S
H833 C845 0.950 . S
H834 C842 0.950 1_554 S
H835 C844 0.950 1_565 S
H836 C846 0.950 . S
H837 C848 0.950 . S
H838 C850 0.950 . S
H839 C851 0.950 . S
C840 H832 0.950 . S
C840 C841 1.386 . S
C840 C842 1.391 . S
C841 C840 1.386 . S
C841 C845 1.393 . S
C842 H834 0.950 1_556 S
C842 C840 1.391 . S
C842 C843 1.400 1_545 S
C843 C842 1.400 1_565 S
C843 C844 1.398 1_565 S
C843 C849 1.491 . S
C844 H835 0.950 1_545 S
C844 C843 1.398 1_545 S
C844 C845 1.391 . S
C845 H833 0.950 . S
C845 C841 1.393 . S
C845 C844 1.391 . S
C846 H836 0.950 . S
C846 C847 1.386 1_556 S
C846 C848 1.391 . S
C847 C846 1.386 1_554 S
C847 C851 1.393 . S
C848 H837 0.950 . S
C848 C846 1.391 . S
C848 C849 1.400 . S
C849 C843 1.491 . S
C849 C848 1.400 . S
C849 C850 1.398 1_556 S
C850 H838 0.950 . S
C850 C849 1.398 1_554 S
C850 C851 1.391 . S
C851 H839 0.950 . S
C851 C847 1.393 . S
C851 C850 1.391 . S
H852 C860 0.950 . S
H853 C865 0.950 . S
H854 C862 0.950 . S
H855 C864 0.950 . S
H856 C866 0.950 . S
H857 C868 0.950 . S
H858 C870 0.950 . S
H859 C871 0.950 . S
C860 H852 0.950 . S
C860 C861 1.386 . S
C860 C862 1.391 . S
C861 C860 1.386 . S
C861 C865 1.393 . S
C862 H854 0.950 . S
C862 C860 1.391 . S
C862 C863 1.400 . S
C863 C862 1.400 . S
C863 C864 1.398 . S
C863 C869 1.491 . S
C864 H855 0.950 . S
C864 C863 1.398 . S
C864 C865 1.391 . S
C865 H853 0.950 . S
C865 C861 1.393 . S
C865 C864 1.391 . S
C866 H856 0.950 . S
C866 C867 1.386 . S
C866 C868 1.391 . S
C867 C866 1.386 . S
C867 C871 1.393 . S
C868 H857 0.950 . S
C868 C866 1.391 . S
C868 C869 1.400 . S
C869 C863 1.491 . S
C869 C868 1.400 . S
C869 C870 1.398 . S
C870 H858 0.950 . S
C870 C869 1.398 . S
C870 C871 1.391 . S
C871 H859 0.950 . S
C871 C867 1.393 . S
C871 C870 1.391 . S
H872 C880 0.950 . S
H873 C885 0.950 . S
H874 C882 0.950 . S
H875 C884 0.950 . S
H876 C886 0.950 . S
H877 C888 0.950 . S
H878 C890 0.950 . S
H879 C891 0.950 . S
C880 H872 0.950 . S
C880 C881 1.386 . S
C880 C882 1.391 1_565 S
C881 C880 1.386 . S
C881 C885 1.393 1_565 S
C882 H874 0.950 . S
C882 C880 1.391 1_545 S
C882 C883 1.400 . S
C883 C882 1.400 . S
C883 C884 1.398 . S
C883 C889 1.491 . S
C884 H875 0.950 . S
C884 C883 1.398 . S
C884 C885 1.391 . S
C885 H873 0.950 . S
C885 C881 1.393 1_545 S
C885 C884 1.391 . S
C886 H876 0.950 . S
C886 C887 1.386 . S
C886 C888 1.391 . S
C887 C886 1.386 . S
C887 C891 1.393 . S
C888 H877 0.950 . S
C888 C886 1.391 . S
C888 C889 1.400 . S
C889 C883 1.491 . S
C889 C888 1.400 . S
C889 C890 1.398 . S
C890 H878 0.950 . S
C890 C889 1.398 . S
C890 C891 1.391 . S
C891 H879 0.950 . S
C891 C887 1.393 . S
C891 C890 1.391 . S
H892 C900 0.950 . S
H893 C905 0.950 . S
H894 C902 0.950 . S
H895 C904 0.950 . S
H896 C906 0.950 . S
H897 C908 0.950 . S
H898 C910 0.950 . S
H899 C911 0.950 . S
C900 H892 0.950 . S
C900 C901 1.386 . S
C900 C902 1.391 . S
C901 C900 1.386 . S
C901 C905 1.393 . S
C902 H894 0.950 . S
C902 C900 1.391 . S
C902 C903 1.400 . S
C903 C902 1.400 . S
C903 C904 1.398 . S
C903 C909 1.491 . S
C904 H895 0.950 . S
C904 C903 1.398 . S
C904 C905 1.391 . S
C905 H893 0.950 . S
C905 C901 1.393 . S
C905 C904 1.391 . S
C906 H896 0.950 . S
C906 C907 1.386 . S
C906 C908 1.391 . S
C907 C906 1.386 . S
C907 C911 1.393 . S
C908 H897 0.950 . S
C908 C906 1.391 . S
C908 C909 1.400 . S
C909 C903 1.491 . S
C909 C908 1.400 . S
C909 C910 1.398 . S
C910 H898 0.950 . S
C910 C909 1.398 . S
C910 C911 1.391 . S
C911 H899 0.950 . S
C911 C907 1.393 . S
C911 C910 1.391 . S
H912 C920 0.950 . S
H913 C925 0.950 1_565 S
H914 C922 0.950 . S
H915 C924 0.950 . S
H916 C926 0.950 . S
H917 C928 0.950 . S
H918 C930 0.950 . S
H919 C931 0.950 . S
C920 H912 0.950 . S
C920 C921 1.386 . S
C920 C922 1.391 . S
C921 C920 1.386 . S
C921 C925 1.393 . S
C922 H914 0.950 . S
C922 C920 1.391 . S
C922 C923 1.400 . S
C923 C922 1.400 . S
C923 C924 1.398 . S
C923 C929 1.491 . S
C924 H915 0.950 . S
C924 C923 1.398 . S
C924 C925 1.391 . S
C925 H913 0.950 1_545 S
C925 C921 1.393 . S
C925 C924 1.391 . S
C926 H916 0.950 . S
C926 C927 1.386 . S
C926 C928 1.391 . S
C927 C926 1.386 . S
C927 C931 1.393 . S
C928 H917 0.950 . S
C928 C926 1.391 . S
C928 C929 1.400 . S
C929 C923 1.491 . S
C929 C928 1.400 . S
C929 C930 1.398 . S
C930 H918 0.950 . S
C930 C929 1.398 . S
C930 C931 1.391 . S
C931 H919 0.950 . S
C931 C927 1.393 . S
C931 C930 1.391 . S
H932 C940 0.950 . S
H933 C945 0.950 . S
H934 C942 0.950 . S
H935 C944 0.950 . S
H936 C946 0.950 . S
H937 C948 0.950 . S
H938 C950 0.950 . S
H939 C951 0.950 . S
C940 H932 0.950 . S
C940 C941 1.386 . S
C940 C942 1.391 . S
C941 C940 1.386 . S
C941 C945 1.393 . S
C942 H934 0.950 . S
C942 C940 1.391 . S
C942 C943 1.400 . S
C943 C942 1.400 . S
C943 C944 1.398 . S
C943 C949 1.491 . S
C944 H935 0.950 . S
C944 C943 1.398 . S
C944 C945 1.391 . S
C945 H933 0.950 . S
C945 C941 1.393 . S
C945 C944 1.391 . S
C946 H936 0.950 . S
C946 C947 1.386 . S
C946 C948 1.391 . S
C947 C946 1.386 . S
C947 C951 1.393 . S
C948 H937 0.950 . S
C948 C946 1.391 . S
C948 C949 1.400 . S
C949 C943 1.491 . S
C949 C948 1.400 . S
C949 C950 1.398 . S
C950 H938 0.950 . S
C950 C949 1.398 . S
C950 C951 1.391 . S
C951 H939 0.950 . S
C951 C947 1.393 . S
C951 C950 1.391 . S
H952 C960 0.950 . S
H953 C965 0.950 . S
H954 C962 0.950 . S
H955 C964 0.950 . S
H956 C966 0.950 . S
H957 C968 0.950 . S
H958 C970 0.950 . S
H959 C971 0.950 . S
C960 H952 0.950 . S
C960 C961 1.386 . S
C960 C962 1.391 . S
C961 C960 1.386 . S
C961 C965 1.393 . S
C962 H954 0.950 . S
C962 C960 1.391 . S
C962 C963 1.400 . S
C963 C962 1.400 . S
C963 C964 1.398 . S
C963 C969 1.491 . S
C964 H955 0.950 . S
C964 C963 1.398 . S
C964 C965 1.391 . S
C965 H953 0.950 . S
C965 C961 1.393 . S
C965 C964 1.391 . S
C966 H956 0.950 . S
C966 C967 1.386 . S
C966 C968 1.391 . S
C967 C966 1.386 . S
C967 C971 1.393 . S
C968 H957 0.950 . S
C968 C966 1.391 . S
C968 C969 1.400 . S
C969 C963 1.491 . S
C969 C968 1.400 . S
C969 C970 1.398 . S
C970 H958 0.950 . S
C970 C969 1.398 . S
C970 C971 1.391 . S
C971 H959 0.950 . S
C971 C967 1.393 . S
C971 C970 1.391 . S
H972 C980 0.950 . S
H973 C985 0.950 . S
H974 C982 0.950 . S
H975 C984 0.950 . S
H976 C986 0.950 . S
H977 C988 0.950 . S
H978 C990 0.950 . S
H979 C991 0.950 . S
C980 H972 0.950 . S
C980 C981 1.386 . S
C980 C982 1.391 . S
C981 C980 1.386 . S
C981 C985 1.393 . S
C982 H974 0.950 . S
C982 C980 1.391 . S
C982 C983 1.400 . S
C983 C982 1.400 . S
C983 C984 1.398 . S
C983 C989 1.491 . S
C984 H975 0.950 . S
C984 C983 1.398 . S
C984 C985 1.391 . S
C985 H973 0.950 . S
C985 C981 1.393 . S
C985 C984 1.391 . S
C986 H976 0.950 . S
C986 C987 1.386 . S
C986 C988 1.391 . S
C987 C986 1.386 . S
C987 C991 1.393 . S
C988 H977 0.950 . S
C988 C986 1.391 . S
C988 C989 1.400 . S
C989 C983 1.491 . S
C989 C988 1.400 . S
C989 C990 1.398 . S
C990 H978 0.950 . S
C990 C989 1.398 . S
C990 C991 1.391 . S
C991 H979 0.950 . S
C991 C987 1.393 . S
C991 C990 1.391 . S
H992 C1000 0.950 . S
H993 C1005 0.950 . S
H994 C1002 0.950 . S
H995 C1004 0.950 . S
H996 C1006 0.950 . S
H997 C1008 0.950 . S
H998 C1010 0.950 . S
H999 C1011 0.950 . S
C1000 H992 0.950 . S
C1000 C1001 1.386 . S
C1000 C1002 1.391 . S
C1001 C1000 1.386 . S
C1001 C1005 1.393 . S
C1002 H994 0.950 . S
C1002 C1000 1.391 . S
C1002 C1003 1.400 . S
C1003 C1002 1.400 . S
C1003 C1004 1.398 . S
C1003 C1009 1.491 . S
C1004 H995 0.950 . S
C1004 C1003 1.398 . S
C1004 C1005 1.391 . S
C1005 H993 0.950 . S
C1005 C1001 1.393 . S
C1005 C1004 1.391 . S
C1006 H996 0.950 . S
C1006 C1007 1.386 . S
C1006 C1008 1.391 . S
C1007 C1006 1.386 . S
C1007 C1011 1.393 . S
C1008 H997 0.950 . S
C1008 C1006 1.391 . S
C1008 C1009 1.400 . S
C1009 C1003 1.491 . S
C1009 C1008 1.400 . S
C1009 C1010 1.398 . S
C1010 H998 0.950 . S
C1010 C1009 1.398 . S
C1010 C1011 1.391 . S
C1011 H999 0.950 . S
C1011 C1007 1.393 . S
C1011 C1010 1.391 . S
H1012 C1020 0.950 . S
H1013 C1025 0.950 . S
H1014 C1022 0.950 . S
H1015 C1024 0.950 . S
H1016 C1026 0.950 . S
H1017 C1028 0.950 . S
H1018 C1030 0.950 . S
H1019 C1031 0.950 . S
C1020 H1012 0.950 . S
C1020 C1021 1.386 . S
C1020 C1022 1.391 . S
C1021 C1020 1.386 . S
C1021 C1025 1.393 . S
C1022 H1014 0.950 . S
C1022 C1020 1.391 . S
C1022 C1023 1.400 . S
C1023 C1022 1.400 . S
C1023 C1024 1.398 . S
C1023 C1029 1.491 . S
C1024 H1015 0.950 . S
C1024 C1023 1.398 . S
C1024 C1025 1.391 . S
C1025 H1013 0.950 . S
C1025 C1021 1.393 . S
C1025 C1024 1.391 . S
C1026 H1016 0.950 . S
C1026 C1027 1.386 . S
C1026 C1028 1.391 . S
C1027 C1026 1.386 . S
C1027 C1031 1.393 . S
C1028 H1017 0.950 . S
C1028 C1026 1.391 . S
C1028 C1029 1.400 . S
C1029 C1023 1.491 . S
C1029 C1028 1.400 . S
C1029 C1030 1.398 . S
C1030 H1018 0.950 . S
C1030 C1029 1.398 . S
C1030 C1031 1.391 . S
C1031 H1019 0.950 . S
C1031 C1027 1.393 . S
C1031 C1030 1.391 . S
H1032 C1040 0.950 . S
H1033 C1045 0.950 . S
H1034 C1042 0.950 . S
H1035 C1044 0.950 . S
H1036 C1046 0.950 . S
H1037 C1048 0.950 . S
H1038 C1050 0.950 . S
H1039 C1051 0.950 . S
C1040 H1032 0.950 . S
C1040 C1041 1.386 . S
C1040 C1042 1.391 . S
C1041 C1040 1.386 . S
C1041 C1045 1.393 . S
C1042 H1034 0.950 . S
C1042 C1040 1.391 . S
C1042 C1043 1.400 . S
C1043 C1042 1.400 . S
C1043 C1044 1.398 . S
C1043 C1049 1.491 . S
C1044 H1035 0.950 . S
C1044 C1043 1.398 . S
C1044 C1045 1.391 . S
C1045 H1033 0.950 . S
C1045 C1041 1.393 . S
C1045 C1044 1.391 . S
C1046 H1036 0.950 . S
C1046 C1047 1.386 . S
C1046 C1048 1.391 . S
C1047 C1046 1.386 . S
C1047 C1051 1.393 . S
C1048 H1037 0.950 . S
C1048 C1046 1.391 . S
C1048 C1049 1.400 . S
C1049 C1043 1.491 . S
C1049 C1048 1.400 . S
C1049 C1050 1.398 . S
C1050 H1038 0.950 . S
C1050 C1049 1.398 . S
C1050 C1051 1.391 . S
C1051 H1039 0.950 . S
C1051 C1047 1.393 . S
C1051 C1050 1.391 . S
H1052 C1060 0.950 . S
H1053 C1065 0.950 . S
H1054 C1062 0.950 . S
H1055 C1064 0.964 . S
H1056 C1066 0.950 . S
H1057 C1068 0.950 . S
H1058 C1070 0.950 . S
H1059 C1071 0.950 . S
C1060 H1052 0.950 . S
C1060 C1061 1.386 . S
C1060 C1062 1.391 . S
C1061 C1060 1.386 . S
C1061 C1065 1.393 . S
C1062 H1054 0.950 . S
C1062 C1060 1.391 . S
C1062 C1063 1.400 . S
C1063 C1062 1.400 . S
C1063 C1064 1.398 . S
C1063 C1069 1.491 . S
C1064 H1055 0.964 . S
C1064 C1063 1.398 . S
C1064 C1065 1.391 . S
C1065 H1053 0.950 . S
C1065 C1061 1.393 . S
C1065 C1064 1.391 . S
C1066 H1056 0.950 . S
C1066 C1067 1.386 1_655 S
C1066 C1068 1.391 . S
C1067 C1066 1.386 1_455 S
C1067 C1071 1.393 . S
C1068 H1057 0.950 . S
C1068 C1066 1.391 . S
C1068 C1069 1.400 1_655 S
C1069 C1063 1.491 . S
C1069 C1068 1.400 1_455 S
C1069 C1070 1.398 . S
C1070 H1058 0.950 . S
C1070 C1069 1.398 . S
C1070 C1071 1.391 . S
C1071 H1059 0.950 . S
C1071 C1067 1.393 . S
C1071 C1070 1.391 . S
H1072 C1080 0.950 . S
H1073 C1085 0.950 . S
H1074 C1082 0.950 . S
H1075 C1084 0.950 . S
H1076 C1086 0.950 . S
H1077 C1088 0.950 . S
H1078 C1090 0.950 . S
H1079 C1091 0.950 . S
C1080 H1072 0.950 . S
C1080 C1081 1.386 . S
C1080 C1082 1.391 . S
C1081 C1080 1.386 . S
C1081 C1085 1.393 . S
C1082 H1074 0.950 . S
C1082 C1080 1.391 . S
C1082 C1083 1.400 . S
C1083 C1082 1.400 . S
C1083 C1084 1.398 . S
C1083 C1089 1.491 . S
C1084 H1075 0.950 . S
C1084 C1083 1.398 . S
C1084 C1085 1.391 . S
C1085 H1073 0.950 . S
C1085 C1081 1.393 . S
C1085 C1084 1.391 . S
C1086 H1076 0.950 . S
C1086 C1087 1.386 . S
C1086 C1088 1.391 . S
C1087 C1086 1.386 . S
C1087 C1091 1.393 . S
C1088 H1077 0.950 . S
C1088 C1086 1.391 . S
C1088 C1089 1.400 . S
C1089 C1083 1.491 . S
C1089 C1088 1.400 . S
C1089 C1090 1.398 . S
C1090 H1078 0.950 . S
C1090 C1089 1.398 . S
C1090 C1091 1.391 . S
C1091 H1079 0.950 . S
C1091 C1087 1.393 . S
C1091 C1090 1.391 . S
H1092 C1100 0.950 1_655 S
H1093 C1105 0.950 . S
H1094 C1102 0.950 . S
H1095 C1104 0.950 . S
H1096 C1106 0.950 . S
H1097 C1108 0.950 . S
H1098 C1110 0.950 . S
H1099 C1111 0.950 . S
C1100 H1092 0.950 1_455 S
C1100 C1101 1.386 . S
C1100 C1102 1.391 . S
C1101 C1100 1.386 . S
C1101 C1105 1.393 . S
C1102 H1094 0.950 . S
C1102 C1100 1.391 . S
C1102 C1103 1.400 . S
C1103 C1102 1.400 . S
C1103 C1104 1.398 . S
C1103 C1109 1.491 . S
C1104 H1095 0.950 . S
C1104 C1103 1.398 . S
C1104 C1105 1.391 . S
C1105 H1093 0.950 . S
C1105 C1101 1.393 . S
C1105 C1104 1.391 . S
C1106 H1096 0.950 . S
C1106 C1107 1.386 . S
C1106 C1108 1.391 . S
C1107 C1106 1.386 . S
C1107 C1111 1.393 . S
C1108 H1097 0.950 . S
C1108 C1106 1.391 . S
C1108 C1109 1.400 . S
C1109 C1103 1.491 . S
C1109 C1108 1.400 . S
C1109 C1110 1.398 . S
C1110 H1098 0.950 . S
C1110 C1109 1.398 . S
C1110 C1111 1.391 . S
C1111 H1099 0.950 . S
C1111 C1107 1.393 . S
C1111 C1110 1.391 . S
H1112 C1120 0.950 . S
H1113 C1125 0.950 . S
H1114 C1122 0.950 . S
H1115 C1124 0.950 . S
H1116 C1126 0.950 . S
H1117 C1128 0.950 . S
H1118 C1130 0.950 . S
H1119 C1131 0.950 . S
C1120 H1112 0.950 . S
C1120 C1121 1.386 . S
C1120 C1122 1.391 . S
C1121 C1120 1.386 . S
C1121 C1125 1.393 . S
C1122 H1114 0.950 . S
C1122 C1120 1.391 . S
C1122 C1123 1.400 . S
C1123 C1122 1.400 . S
C1123 C1124 1.398 . S
C1123 C1129 1.491 . S
C1124 H1115 0.950 . S
C1124 C1123 1.398 . S
C1124 C1125 1.391 . S
C1125 H1113 0.950 . S
C1125 C1121 1.393 . S
C1125 C1124 1.391 . S
C1126 H1116 0.950 . S
C1126 C1127 1.386 . S
C1126 C1128 1.391 . S
C1127 C1126 1.386 . S
C1127 C1131 1.393 . S
C1128 H1117 0.950 . S
C1128 C1126 1.391 . S
C1128 C1129 1.400 . S
C1129 C1123 1.491 . S
C1129 C1128 1.400 . S
C1129 C1130 1.398 . S
C1130 H1118 0.950 . S
C1130 C1129 1.398 . S
C1130 C1131 1.391 . S
C1131 H1119 0.950 . S
C1131 C1127 1.393 . S
C1131 C1130 1.391 . S
H1132 C1140 0.950 . S
H1133 C1145 0.950 1_554 S
H1134 C1142 0.950 . S
H1135 C1144 0.935 1_455 S
H1136 C1146 0.950 . S
H1137 C1148 0.950 . S
H1138 C1150 0.950 . S
H1139 C1151 0.950 . S
C1140 H1132 0.950 . S
C1140 C1141 1.386 . S
C1140 C1142 1.391 . S
C1141 C1140 1.386 . S
C1141 C1145 1.393 . S
C1142 H1134 0.950 . S
C1142 C1140 1.391 . S
C1142 C1143 1.400 . S
C1143 C1142 1.400 . S
C1143 C1144 1.405 . S
C1143 C1149 1.491 . S
C1144 H1135 0.935 1_655 S
C1144 C1143 1.405 . S
C1144 C1145 1.400 . S
C1145 H1133 0.950 1_556 S
C1145 C1141 1.393 . S
C1145 C1144 1.400 . S
C1146 H1136 0.950 . S
C1146 C1147 1.386 . S
C1146 C1148 1.391 . S
C1147 C1146 1.386 . S
C1147 C1151 1.393 1_455 S
C1148 H1137 0.950 . S
C1148 C1146 1.391 . S
C1148 C1149 1.400 1_455 S
C1149 C1143 1.491 . S
C1149 C1148 1.400 1_655 S
C1149 C1150 1.398 . S
C1150 H1138 0.950 . S
C1150 C1149 1.398 . S
C1150 C1151 1.391 . S
C1151 H1139 0.950 . S
C1151 C1147 1.393 1_655 S
C1151 C1150 1.391 . S
H1152 C1160 0.950 . S
H1153 C1165 0.950 . S
H1154 C1162 0.950 . S
H1155 C1164 0.950 . S
H1156 C1166 0.950 . S
H1157 C1168 0.950 . S
H1158 C1170 0.950 . S
H1159 C1171 0.950 . S
C1160 H1152 0.950 . S
C1160 C1161 1.386 . S
C1160 C1162 1.391 . S
C1161 C1160 1.386 . S
C1161 C1165 1.393 . S
C1162 H1154 0.950 . S
C1162 C1160 1.391 . S
C1162 C1163 1.400 . S
C1163 C1162 1.400 . S
C1163 C1164 1.398 . S
C1163 C1169 1.491 . S
C1164 H1155 0.950 . S
C1164 C1163 1.398 . S
C1164 C1165 1.391 . S
C1165 H1153 0.950 . S
C1165 C1161 1.393 . S
C1165 C1164 1.391 . S
C1166 H1156 0.950 . S
C1166 C1167 1.386 . S
C1166 C1168 1.391 . S
C1167 C1166 1.386 . S
C1167 C1171 1.393 . S
C1168 H1157 0.950 . S
C1168 C1166 1.391 . S
C1168 C1169 1.400 . S
C1169 C1163 1.491 . S
C1169 C1168 1.400 . S
C1169 C1170 1.398 . S
C1170 H1158 0.950 . S
C1170 C1169 1.398 . S
C1170 C1171 1.391 . S
C1171 H1159 0.950 . S
C1171 C1167 1.393 . S
C1171 C1170 1.391 . S
H1172 C1180 0.950 . S
H1173 C1185 0.950 1_554 S
H1174 C1182 0.950 . S
H1175 C1184 0.950 . S
H1176 C1186 0.950 . S
H1177 C1188 0.950 . S
H1178 C1190 0.950 . S
H1179 C1191 0.950 . S
C1180 H1172 0.950 . S
C1180 C1181 1.386 . S
C1180 C1182 1.391 . S
C1181 C1180 1.386 . S
C1181 C1185 1.393 . S
C1182 H1174 0.950 . S
C1182 C1180 1.391 . S
C1182 C1183 1.400 . S
C1183 C1182 1.400 . S
C1183 C1184 1.398 . S
C1183 C1189 1.491 . S
C1184 H1175 0.950 . S
C1184 C1183 1.398 . S
C1184 C1185 1.391 . S
C1185 H1173 0.950 1_556 S
C1185 C1181 1.393 . S
C1185 C1184 1.391 . S
C1186 H1176 0.950 . S
C1186 C1187 1.386 . S
C1186 C1188 1.391 . S
C1187 C1186 1.386 . S
C1187 C1191 1.393 . S
C1188 H1177 0.950 . S
C1188 C1186 1.391 . S
C1188 C1189 1.400 . S
C1189 C1183 1.491 . S
C1189 C1188 1.400 . S
C1189 C1190 1.398 . S
C1190 H1178 0.950 . S
C1190 C1189 1.398 . S
C1190 C1191 1.391 . S
C1191 H1179 0.950 . S
C1191 C1187 1.393 . S
C1191 C1190 1.391 . S
H1192 C1200 0.950 . S
H1193 C1205 0.950 . S
H1194 C1202 0.950 . S
H1195 C1204 0.950 . S
H1196 C1206 0.950 . S
H1197 C1208 0.950 . S
H1198 C1210 0.950 . S
H1199 C1211 0.950 . S
C1200 H1192 0.950 . S
C1200 C1201 1.386 . S
C1200 C1202 1.391 . S
C1201 C1200 1.386 . S
C1201 C1205 1.393 . S
C1202 H1194 0.950 . S
C1202 C1200 1.391 . S
C1202 C1203 1.400 . S
C1203 C1202 1.400 . S
C1203 C1204 1.398 . S
C1203 C1209 1.491 . S
C1204 H1195 0.950 . S
C1204 C1203 1.398 . S
C1204 C1205 1.391 . S
C1205 H1193 0.950 . S
C1205 C1201 1.393 . S
C1205 C1204 1.391 . S
C1206 H1196 0.950 . S
C1206 C1207 1.386 . S
C1206 C1208 1.391 . S
C1207 C1206 1.386 . S
C1207 C1211 1.393 . S
C1208 H1197 0.950 . S
C1208 C1206 1.391 . S
C1208 C1209 1.400 . S
C1209 C1203 1.491 . S
C1209 C1208 1.400 . S
C1209 C1210 1.398 . S
C1210 H1198 0.950 . S
C1210 C1209 1.398 . S
C1210 C1211 1.391 . S
C1211 H1199 0.950 . S
C1211 C1207 1.393 . S
C1211 C1210 1.391 . S
H1212 C1220 0.950 . S
H1213 C1225 0.950 . S
H1214 C1222 0.950 . S
H1215 C1224 0.950 . S
H1216 C1226 0.950 . S
H1217 C1228 0.950 . S
H1218 C1230 0.950 . S
H1219 C1231 0.950 . S
C1220 H1212 0.950 . S
C1220 C1221 1.386 . S
C1220 C1222 1.391 . S
C1221 C1220 1.386 . S
C1221 C1225 1.393 . S
C1222 H1214 0.950 . S
C1222 C1220 1.391 . S
C1222 C1223 1.400 . S
C1223 C1222 1.400 . S
C1223 C1224 1.398 . S
C1223 C1229 1.491 . S
C1224 H1215 0.950 . S
C1224 C1223 1.398 . S
C1224 C1225 1.391 . S
C1225 H1213 0.950 . S
C1225 C1221 1.393 . S
C1225 C1224 1.391 . S
C1226 H1216 0.950 . S
C1226 C1227 1.386 . S
C1226 C1228 1.391 . S
C1227 C1226 1.386 . S
C1227 C1231 1.393 . S
C1228 H1217 0.950 . S
C1228 C1226 1.391 . S
C1228 C1229 1.400 . S
C1229 C1223 1.491 . S
C1229 C1228 1.400 . S
C1229 C1230 1.398 . S
C1230 H1218 0.950 . S
C1230 C1229 1.398 . S
C1230 C1231 1.391 . S
C1231 H1219 0.950 . S
C1231 C1227 1.393 . S
C1231 C1230 1.391 . S
H1232 C1240 0.950 . S
H1233 C1245 0.950 . S
H1234 C1242 0.950 . S
H1235 C1244 0.950 . S
H1236 C1246 0.950 . S
H1237 C1248 0.950 . S
H1238 C1250 0.950 . S
H1239 C1251 0.950 . S
C1240 H1232 0.950 . S
C1240 C1241 1.386 . S
C1240 C1242 1.391 . S
C1241 C1240 1.386 . S
C1241 C1245 1.393 . S
C1242 H1234 0.950 . S
C1242 C1240 1.391 . S
C1242 C1243 1.400 . S
C1243 C1242 1.400 . S
C1243 C1244 1.398 . S
C1243 C1249 1.491 . S
C1244 H1235 0.950 . S
C1244 C1243 1.398 . S
C1244 C1245 1.391 . S
C1245 H1233 0.950 . S
C1245 C1241 1.393 . S
C1245 C1244 1.391 . S
C1246 H1236 0.950 . S
C1246 C1247 1.386 . S
C1246 C1248 1.391 . S
C1247 C1246 1.386 . S
C1247 C1251 1.393 . S
C1248 H1237 0.950 . S
C1248 C1246 1.391 . S
C1248 C1249 1.400 . S
C1249 C1243 1.491 . S
C1249 C1248 1.400 . S
C1249 C1250 1.398 . S
C1250 H1238 0.950 . S
C1250 C1249 1.398 . S
C1250 C1251 1.391 . S
C1251 H1239 0.950 . S
C1251 C1247 1.393 . S
C1251 C1250 1.391 . S
H1252 C1260 0.950 . S
H1253 C1265 0.950 . S
H1254 C1262 0.950 . S
H1255 C1264 0.950 . S
H1256 C1266 0.950 . S
H1257 C1268 0.950 . S
H1258 C1270 0.950 . S
H1259 C1271 0.950 . S
C1260 H1252 0.950 . S
C1260 C1261 1.386 . S
C1260 C1262 1.391 1_556 S
C1261 C1260 1.386 . S
C1261 C1265 1.393 . S
C1262 H1254 0.950 . S
C1262 C1260 1.391 1_554 S
C1262 C1263 1.400 . S
C1263 C1262 1.400 . S
C1263 C1264 1.398 . S
C1263 C1269 1.491 . S
C1264 H1255 0.950 . S
C1264 C1263 1.398 . S
C1264 C1265 1.391 1_554 S
C1265 H1253 0.950 . S
C1265 C1261 1.393 . S
C1265 C1264 1.391 1_556 S
C1266 H1256 0.950 . S
C1266 C1267 1.386 . S
C1266 C1268 1.391 . S
C1267 C1266 1.386 . S
C1267 C1271 1.393 . S
C1268 H1257 0.950 . S
C1268 C1266 1.391 . S
C1268 C1269 1.400 . S
C1269 C1263 1.491 . S
C1269 C1268 1.400 . S
C1269 C1270 1.398 . S
C1270 H1258 0.950 . S
C1270 C1269 1.398 . S
C1270 C1271 1.391 . S
C1271 H1259 0.950 . S
C1271 C1267 1.393 . S
C1271 C1270 1.391 . S
H1272 C1280 0.950 . S
H1273 C1285 0.950 . S
H1274 C1282 0.950 . S
H1275 C1284 0.950 . S
H1276 C1286 0.950 . S
H1277 C1288 0.950 . S
H1278 C1290 0.950 . S
H1279 C1291 0.950 . S
C1280 H1272 0.950 . S
C1280 C1281 1.386 . S
C1280 C1282 1.391 . S
C1281 C1280 1.386 . S
C1281 C1285 1.393 . S
C1282 H1274 0.950 . S
C1282 C1280 1.391 . S
C1282 C1283 1.400 . S
C1283 C1282 1.400 . S
C1283 C1284 1.398 . S
C1283 C1289 1.491 . S
C1284 H1275 0.950 . S
C1284 C1283 1.398 . S
C1284 C1285 1.391 . S
C1285 H1273 0.950 . S
C1285 C1281 1.393 . S
C1285 C1284 1.391 . S
C1286 H1276 0.950 . S
C1286 C1287 1.386 . S
C1286 C1288 1.391 . S
C1287 C1286 1.386 . S
C1287 C1291 1.393 . S
C1288 H1277 0.950 . S
C1288 C1286 1.391 . S
C1288 C1289 1.400 . S
C1289 C1283 1.491 . S
C1289 C1288 1.400 . S
C1289 C1290 1.398 . S
C1290 H1278 0.950 . S
C1290 C1289 1.398 . S
C1290 C1291 1.391 . S
C1291 H1279 0.950 . S
C1291 C1287 1.393 . S
C1291 C1290 1.391 . S
H1292 C1300 0.950 . S
H1293 C1305 0.950 . S
H1294 C1302 0.950 . S
H1295 C1304 0.950 . S
H1296 C1306 0.950 . S
H1297 C1308 0.950 . S
H1298 C1310 0.950 . S
H1299 C1311 0.950 . S
C1300 H1292 0.950 . S
C1300 C1301 1.386 . S
C1300 C1302 1.391 . S
C1301 C1300 1.386 . S
C1301 C1305 1.393 . S
C1302 H1294 0.950 . S
C1302 C1300 1.391 . S
C1302 C1303 1.400 . S
C1303 C1302 1.400 . S
C1303 C1304 1.398 . S
C1303 C1309 1.491 . S
C1304 H1295 0.950 . S
C1304 C1303 1.398 . S
C1304 C1305 1.391 . S
C1305 H1293 0.950 . S
C1305 C1301 1.393 . S
C1305 C1304 1.391 . S
C1306 H1296 0.950 . S
C1306 C1307 1.386 . S
C1306 C1308 1.391 . S
C1307 C1306 1.386 . S
C1307 C1311 1.393 . S
C1308 H1297 0.950 . S
C1308 C1306 1.391 . S
C1308 C1309 1.400 . S
C1309 C1303 1.491 . S
C1309 C1308 1.400 . S
C1309 C1310 1.398 . S
C1310 H1298 0.950 . S
C1310 C1309 1.398 . S
C1310 C1311 1.391 . S
C1311 H1299 0.950 . S
C1311 C1307 1.393 . S
C1311 C1310 1.391 . S
H1312 C1320 0.950 . S
H1313 C1325 0.950 . S
H1314 C1322 0.950 . S
H1315 C1324 0.950 . S
H1316 C1326 0.950 . S
H1317 C1328 0.950 . S
H1318 C1330 0.950 . S
H1319 C1331 0.950 . S
C1320 H1312 0.950 . S
C1320 C1321 1.386 . S
C1320 C1322 1.391 . S
C1321 C1320 1.386 . S
C1321 C1325 1.393 . S
C1322 H1314 0.950 . S
C1322 C1320 1.391 . S
C1322 C1323 1.400 . S
C1323 C1322 1.400 . S
C1323 C1324 1.398 . S
C1323 C1329 1.491 . S
C1324 H1315 0.950 . S
C1324 C1323 1.398 . S
C1324 C1325 1.391 . S
C1325 H1313 0.950 . S
C1325 C1321 1.393 . S
C1325 C1324 1.391 . S
C1326 H1316 0.950 . S
C1326 C1327 1.386 . S
C1326 C1328 1.391 . S
C1327 C1326 1.386 . S
C1327 C1331 1.393 . S
C1328 H1317 0.950 . S
C1328 C1326 1.391 . S
C1328 C1329 1.400 . S
C1329 C1323 1.491 . S
C1329 C1328 1.400 . S
C1329 C1330 1.398 . S
C1330 H1318 0.950 . S
C1330 C1329 1.398 . S
C1330 C1331 1.391 . S
C1331 H1319 0.950 . S
C1331 C1327 1.393 . S
C1331 C1330 1.391 . S
H1332 C1340 0.950 . S
H1333 C1345 0.950 . S
H1334 C1342 0.950 . S
H1335 C1344 0.950 . S
H1336 C1346 0.950 . S
H1337 C1348 0.950 . S
H1338 C1350 0.950 . S
H1339 C1351 0.950 . S
C1340 H1332 0.950 . S
C1340 C1341 1.386 . S
C1340 C1342 1.391 . S
C1341 C1340 1.386 . S
C1341 C1345 1.393 . S
C1342 H1334 0.950 . S
C1342 C1340 1.391 . S
C1342 C1343 1.400 . S
C1343 C1342 1.400 . S
C1343 C1344 1.398 . S
C1343 C1349 1.491 . S
C1344 H1335 0.950 . S
C1344 C1343 1.398 . S
C1344 C1345 1.391 . S
C1345 H1333 0.950 . S
C1345 C1341 1.393 . S
C1345 C1344 1.391 . S
C1346 H1336 0.950 . S
C1346 C1347 1.386 . S
C1346 C1348 1.391 . S
C1347 C1346 1.386 . S
C1347 C1351 1.393 . S
C1348 H1337 0.950 . S
C1348 C1346 1.391 . S
C1348 C1349 1.400 . S
C1349 C1343 1.491 . S
C1349 C1348 1.400 . S
C1349 C1350 1.398 . S
C1350 H1338 0.950 . S
C1350 C1349 1.398 . S
C1350 C1351 1.391 . S
C1351 H1339 0.950 . S
C1351 C1347 1.393 . S
C1351 C1350 1.391 . S
H1352 C1360 0.950 . S
H1353 C1365 0.950 . S
H1354 C1362 0.950 . S
H1355 C1364 0.950 . S
H1356 C1366 0.950 1_554 S
H1357 C1368 0.945 1_554 S
H1358 C1370 0.950 . S
H1359 C1371 0.950 . S
C1360 H1352 0.950 . S
C1360 C1361 1.386 . S
C1360 C1362 1.391 . S
C1361 C1360 1.386 . S
C1361 C1365 1.393 . S
C1362 H1354 0.950 . S
C1362 C1360 1.391 . S
C1362 C1363 1.400 . S
C1363 C1362 1.400 . S
C1363 C1364 1.398 . S
C1363 C1369 1.491 . S
C1364 H1355 0.950 . S
C1364 C1363 1.398 . S
C1364 C1365 1.391 . S
C1365 H1353 0.950 . S
C1365 C1361 1.393 . S
C1365 C1364 1.391 . S
C1366 H1356 0.950 1_556 S
C1366 C1367 1.386 . S
C1366 C1368 1.391 . S
C1367 C1366 1.386 . S
C1367 C1371 1.393 . S
C1368 H1357 0.945 1_556 S
C1368 C1366 1.391 . S
C1368 C1369 1.400 . S
C1369 C1363 1.491 . S
C1369 C1368 1.400 . S
C1369 C1370 1.398 . S
C1370 H1358 0.950 . S
C1370 C1369 1.398 . S
C1370 C1371 1.391 . S
C1371 H1359 0.950 . S
C1371 C1367 1.393 . S
C1371 C1370 1.391 . S
H1372 C1380 0.950 . S
H1373 C1385 0.950 . S
H1374 C1382 0.950 . S
H1375 C1384 0.950 . S
H1376 C1386 0.950 . S
H1377 C1388 0.950 . S
H1378 C1390 0.950 . S
H1379 C1391 0.950 . S
C1380 H1372 0.950 . S
C1380 C1381 1.386 . S
C1380 C1382 1.391 . S
C1381 C1380 1.386 . S
C1381 C1385 1.393 . S
C1382 H1374 0.950 . S
C1382 C1380 1.391 . S
C1382 C1383 1.400 . S
C1383 C1382 1.400 . S
C1383 C1384 1.398 . S
C1383 C1389 1.491 . S
C1384 H1375 0.950 . S
C1384 C1383 1.398 . S
C1384 C1385 1.391 . S
C1385 H1373 0.950 . S
C1385 C1381 1.393 . S
C1385 C1384 1.391 . S
C1386 H1376 0.950 . S
C1386 C1387 1.386 . S
C1386 C1388 1.391 . S
C1387 C1386 1.386 . S
C1387 C1391 1.393 . S
C1388 H1377 0.950 . S
C1388 C1386 1.391 . S
C1388 C1389 1.400 . S
C1389 C1383 1.491 . S
C1389 C1388 1.400 . S
C1389 C1390 1.398 . S
C1390 H1378 0.950 . S
C1390 C1389 1.398 . S
C1390 C1391 1.391 . S
C1391 H1379 0.950 . S
C1391 C1387 1.393 . S
C1391 C1390 1.391 . S
H1392 C1400 0.950 . S
H1393 C1405 0.950 . S
H1394 C1402 0.950 . S
H1395 C1404 0.954 . S
H1396 C1406 0.950 . S
H1397 C1408 0.950 1_556 S
H1398 C1410 0.950 . S
H1399 C1411 0.950 . S
C1400 H1392 0.950 . S
C1400 C1401 1.386 . S
C1400 C1402 1.391 . S
C1401 C1400 1.386 . S
C1401 C1405 1.393 . S
C1402 H1394 0.950 . S
C1402 C1400 1.391 . S
C1402 C1403 1.400 . S
C1403 C1402 1.400 . S
C1403 C1404 1.398 . S
C1403 C1409 1.491 . S
C1404 H1395 0.954 . S
C1404 C1403 1.398 . S
C1404 C1405 1.391 . S
C1405 H1393 0.950 . S
C1405 C1401 1.393 . S
C1405 C1404 1.391 . S
C1406 H1396 0.950 . S
C1406 C1407 1.386 1_556 S
C1406 C1408 1.391 1_556 S
C1407 C1406 1.386 1_554 S
C1407 C1411 1.393 . S
C1408 H1397 0.950 1_554 S
C1408 C1406 1.391 1_554 S
C1408 C1409 1.400 . S
C1409 C1403 1.491 . S
C1409 C1408 1.400 . S
C1409 C1410 1.398 . S
C1410 H1398 0.950 . S
C1410 C1409 1.398 . S
C1410 C1411 1.391 . S
C1411 H1399 0.950 . S
C1411 C1407 1.393 . S
C1411 C1410 1.391 . S
H1412 C1420 0.950 . S
H1413 C1425 0.950 . S
H1414 C1422 0.950 1_545 S
H1415 C1424 0.950 . S
H1416 C1426 0.950 . S
H1417 C1428 0.950 . S
H1418 C1430 0.950 . S
H1419 C1431 0.950 . S
C1420 H1412 0.950 . S
C1420 C1421 1.386 1_545 S
C1420 C1422 1.391 1_545 S
C1421 C1420 1.386 1_565 S
C1421 C1425 1.393 . S
C1422 H1414 0.950 1_565 S
C1422 C1420 1.391 1_565 S
C1422 C1423 1.400 . S
C1423 C1422 1.400 . S
C1423 C1424 1.398 . S
C1423 C1429 1.491 . S
C1424 H1415 0.950 . S
C1424 C1423 1.398 . S
C1424 C1425 1.391 . S
C1425 H1413 0.950 . S
C1425 C1421 1.393 . S
C1425 C1424 1.391 . S
C1426 H1416 0.950 . S
C1426 C1427 1.386 . S
C1426 C1428 1.391 . S
C1427 C1426 1.386 . S
C1427 C1431 1.393 . S
C1428 H1417 0.950 . S
C1428 C1426 1.391 . S
C1428 C1429 1.400 . S
C1429 C1423 1.491 . S
C1429 C1428 1.400 . S
C1429 C1430 1.398 . S
C1430 H1418 0.950 . S
C1430 C1429 1.398 . S
C1430 C1431 1.391 . S
C1431 H1419 0.950 . S
C1431 C1427 1.393 . S
C1431 C1430 1.391 . S
C487 C312 1.894 1_556 S
C481 C101 1.933 . S
C507 C325 1.136 . S
C501 C125 1.059 . S
C521 C139 2.132 . S
C527 C345 1.997 . S
C547 C359 1.558 1_455 S
C541 C82 1.692 . S
C567 C371 1.640 . S
C561 C196 1.655 . S
C587 C385 1.760 . S
C581 C234 1.766 . S
C601 C220 0.802 . S
C607 C395 0.841 . S
C627 C410 1.680 1_565 S
C621 C173 1.695 . S
C641 C211 1.099 . S
C647 C424 1.046 . S
C667 C443 0.954 . S
C661 C182 0.972 . S
C681 C201 1.323 . S
C687 C423 1.439 . S
C707 C441 1.289 . S
C701 C239 1.180 . S
C721 C135 1.807 . S
C727 C457 1.713 . S
C741 C87 1.785 . S
C747 C451 1.941 . S
C761 C106 1.161 . S
C767 C455 1.339 . S
C781 C116 1.274 . S
C787 C452 1.279 1_455 S
C801 C59 1.872 . S
C807 C354 1.858 . S
C821 C268 2.159 . S
C827 C353 2.151 . S
C847 C317 1.184 . S
C841 C291 1.230 . S
C867 C331 1.484 . S
C861 C163 1.494 . S
C881 C78 2.025 . S
C887 C368 2.048 . S
C907 C413 1.220 . S
C901 C215 1.222 . S
C927 C367 1.553 . S
C921 C177 1.558 1_545 S
C947 C399 1.755 . S
C941 C230 1.746 . S
C967 C396 1.893 . S
C961 C272 1.933 . S
C981 C296 1.100 . S
C987 C409 1.127 . S
C1001 C158 2.125 . S
C1007 C373 1.970 . S
C1027 C387 1.550 . S
C1021 C253 1.692 . S
C1041 C63 1.655 . S
C1047 C343 1.636 . S
C1067 C357 1.758 1_455 S
C1061 C6 1.765 . S
C1087 C311 0.846 . S
C1081 C30 0.841 . S
C1107 C326 1.683 . S
C1101 C40 1.698 1_455 S
C1121 C21 1.102 . S
C1127 C438 1.077 . S
C1141 C49 0.946 . S
C1147 C429 0.978 . S
C1161 C68 1.293 . S
C1167 C437 1.423 . S
C1181 C11 1.181 1_556 S
C1187 C427 1.275 . S
C1207 C471 1.709 . S
C1201 C154 1.801 . S
C1227 C465 1.935 . S
C1221 C258 1.807 . S
C1247 C469 1.340 . S
C1241 C277 1.166 . S
C1261 C287 1.280 . S
C1267 C466 1.282 . S
C1281 C192 1.875 . S
C1287 C382 1.867 . S
C1307 C381 2.155 . S
C1301 C97 2.159 . S
C1327 C401 1.214 . S
C1321 C120 1.223 . S
C1347 C415 1.507 . S
C1341 C144 1.478 . S
C1361 C249 2.022 . S
C1367 C340 2.048 . S
C1387 C329 1.223 . S
C1381 C25 1.217 . S
C1401 C44 1.553 . S
C1407 C339 1.542 . S
C1427 C315 1.757 . S
C1421 C2 1.738 1_565 S
