# Generated by pormake.
# Topology pyr, (3,6)-cn, num edge types: 1
# Building blocks:
#     Node 0, Type 0, BuildingBlock: ESEHIV_clean_linker_0, # of connection points: 3
#     Node 1, Type 0, BuildingBlock: ESEHIV_clean_linker_0, # of connection points: 3
#     Node 2, Type 0, BuildingBlock: ESEHIV_clean_linker_0, # of connection points: 3
#     Node 3, Type 0, BuildingBlock: ESEHIV_clean_linker_0, # of connection points: 3
#     Node 4, Type 0, BuildingBlock: ESEHIV_clean_linker_0, # of connection points: 3
#     Node 5, Type 0, BuildingBlock: ESEHIV_clean_linker_0, # of connection points: 3
#     Node 6, Type 0, BuildingBlock: ESEHIV_clean_linker_0, # of connection points: 3
#     Node 7, Type 0, BuildingBlock: ESEHIV_clean_linker_0, # of connection points: 3
#     Node 8, Type 1, BuildingBlock: BETDIP_clean_sbu_0, # of connection points: 6
#     Node 9, Type 1, BuildingBlock: BETDIP_clean_sbu_0, # of connection points: 6
#     Node 10, Type 1, BuildingBlock: BETDIP_clean_sbu_0, # of connection points: 6
#     Node 11, Type 1, BuildingBlock: BETDIP_clean_sbu_0, # of connection points: 6
#     Edge 12, Type (0, 1), BuildingBlock: TEMPAE_clean_linker_10, # of connection points: 2
#     Edge 13, Type (0, 1), BuildingBlock: TEMPAE_clean_linker_10, # of connection points: 2
#     Edge 14, Type (0, 1), BuildingBlock: TEMPAE_clean_linker_10, # of connection points: 2
#     Edge 15, Type (0, 1), BuildingBlock: TEMPAE_clean_linker_10, # of connection points: 2
#     Edge 16, Type (0, 1), BuildingBlock: TEMPAE_clean_linker_10, # of connection points: 2
#     Edge 17, Type (0, 1), BuildingBlock: TEMPAE_clean_linker_10, # of connection points: 2
#     Edge 18, Type (0, 1), BuildingBlock: TEMPAE_clean_linker_10, # of connection points: 2
#     Edge 19, Type (0, 1), BuildingBlock: TEMPAE_clean_linker_10, # of connection points: 2
#     Edge 20, Type (0, 1), BuildingBlock: TEMPAE_clean_linker_10, # of connection points: 2
#     Edge 21, Type (0, 1), BuildingBlock: TEMPAE_clean_linker_10, # of connection points: 2
#     Edge 22, Type (0, 1), BuildingBlock: TEMPAE_clean_linker_10, # of connection points: 2
#     Edge 23, Type (0, 1), BuildingBlock: TEMPAE_clean_linker_10, # of connection points: 2
#     Edge 24, Type (0, 1), BuildingBlock: TEMPAE_clean_linker_10, # of connection points: 2
#     Edge 25, Type (0, 1), BuildingBlock: TEMPAE_clean_linker_10, # of connection points: 2
#     Edge 26, Type (0, 1), BuildingBlock: TEMPAE_clean_linker_10, # of connection points: 2
#     Edge 27, Type (0, 1), BuildingBlock: TEMPAE_clean_linker_10, # of connection points: 2
#     Edge 28, Type (0, 1), BuildingBlock: TEMPAE_clean_linker_10, # of connection points: 2
#     Edge 29, Type (0, 1), BuildingBlock: TEMPAE_clean_linker_10, # of connection points: 2
#     Edge 30, Type (0, 1), BuildingBlock: TEMPAE_clean_linker_10, # of connection points: 2
#     Edge 31, Type (0, 1), BuildingBlock: TEMPAE_clean_linker_10, # of connection points: 2
#     Edge 32, Type (0, 1), BuildingBlock: TEMPAE_clean_linker_10, # of connection points: 2
#     Edge 33, Type (0, 1), BuildingBlock: TEMPAE_clean_linker_10, # of connection points: 2
#     Edge 34, Type (0, 1), BuildingBlock: TEMPAE_clean_linker_10, # of connection points: 2
#     Edge 35, Type (0, 1), BuildingBlock: TEMPAE_clean_linker_10, # of connection points: 2
# Relax obj value: 0.154
# Max RMSD: 0.204
# Mean RMSD: 0.091
data_MOF--net-pyr--node1-BETDIP_clean_sbu_0--node2-ESEHIV_clean_linker_0--edge1-TEMPAE_clean_linker_10
_symmetry_space_group_name_H-M    P1
_symmetry_Int_Tables_number       1
_symmetry_cell_setting            triclinic
loop_
_symmetry_equiv_pos_as_xyz
'x, y, z'
_cell_length_a     33.672006
_cell_length_b     37.504132
_cell_length_c     36.971087
_cell_angle_alpha  88.466394
_cell_angle_beta   92.992916
_cell_angle_gamma 104.40399
loop_
_atom_site_label
_atom_site_type_symbol
_atom_site_fract_x
_atom_site_fract_y
_atom_site_fract_z
_atom_type_partial_charge
H0 H 0.33315 0.32219 0.27839 0.0
H1 H 0.4193 0.25539 0.28655 0.0
H2 H 0.37664 0.28668 0.18168 0.0
C3 C 0.35357 0.30889 0.26527 0.0
C4 C 0.35405 0.30888 0.22738 0.0
C5 C 0.37579 0.28837 0.28626 0.0
C6 C 0.40214 0.27115 0.26986 0.0
C7 C 0.40225 0.27 0.23216 0.0
C8 C 0.3785 0.28926 0.21089 0.0
H9 H 0.12733 0.80105 0.78295 0.0
H10 H 0.19469 0.72084 0.76424 0.0
H11 H 0.14621 0.77341 0.674 0.0
C12 C 0.13801 0.78406 0.76431 0.0
C13 C 0.13199 0.78901 0.72687 0.0
C14 C 0.16156 0.76025 0.77777 0.0
C15 C 0.17549 0.73849 0.75382 0.0
C16 C 0.16985 0.74309 0.71643 0.0
C17 C 0.14822 0.76838 0.70297 0.0
H18 H 0.68211 0.34352 0.91037 0.0
H19 H 0.68827 0.432 0.83308 0.0
H20 H 0.58606 0.33621 0.82723 0.0
C21 C 0.66831 0.35578 0.88773 0.0
C22 C 0.6307 0.33593 0.8718 0.0
C23 C 0.68883 0.39087 0.87516 0.0
C24 C 0.67277 0.40513 0.84347 0.0
C25 C 0.63606 0.38546 0.82547 0.0
C26 C 0.61475 0.35104 0.84025 0.0
H27 H 0.85551 0.72667 0.40893 0.0
H28 H 0.93712 0.74524 0.32038 0.0
H29 H 0.84181 0.64393 0.32932 0.0
C30 C 0.86538 0.71809 0.3839 0.0
C31 C 0.84422 0.68377 0.37034 0.0
C32 C 0.8981 0.74153 0.36602 0.0
C33 C 0.91188 0.72786 0.33446 0.0
C34 C 0.89203 0.69226 0.32036 0.0
C35 C 0.85762 0.67108 0.33871 0.0
H36 H 0.62919 0.8296 0.82432 0.0
H37 H 0.71146 0.75998 0.84345 0.0
H38 H 0.63961 0.78018 0.9296 0.0
C39 C 0.64141 0.81106 0.84206 0.0
C40 C 0.62969 0.806 0.87796 0.0
C41 C 0.6719 0.79563 0.83002 0.0
C42 C 0.68744 0.77158 0.85281 0.0
C43 C 0.67564 0.76554 0.88868 0.0
C44 C 0.64688 0.78302 0.9013 0.0
H45 H 0.83545 0.34465 0.32768 0.0
H46 H 0.91197 0.27026 0.3167 0.0
H47 H 0.89434 0.30794 0.42208 0.0
C48 C 0.85711 0.33009 0.33961 0.0
C49 C 0.86476 0.33034 0.37715 0.0
C50 C 0.87235 0.30711 0.31797 0.0
C51 C 0.89986 0.28793 0.33345 0.0
C52 C 0.90826 0.28806 0.37098 0.0
C53 C 0.89039 0.30933 0.39283 0.0
H54 H 0.35476 0.73599 0.17975 0.0
H55 H 0.34758 0.64573 0.25528 0.0
H56 H 0.44384 0.74576 0.26869 0.0
C57 C 0.36688 0.72373 0.20335 0.0
C58 C 0.40222 0.7445 0.22178 0.0
C59 C 0.34667 0.68811 0.21492 0.0
C60 C 0.36214 0.67355 0.24678 0.0
C61 C 0.39695 0.69389 0.26716 0.0
C62 C 0.41697 0.72962 0.25403 0.0
H63 H 0.09461 0.32853 0.77008 0.0
H64 H 0.17718 0.34263 0.68289 0.0
H65 H 0.19144 0.42871 0.75986 0.0
C66 C 0.1205 0.34532 0.75632 0.0
C67 C 0.14124 0.3808 0.77017 0.0
C68 C 0.13308 0.33149 0.72437 0.0
C69 C 0.16692 0.35322 0.7068 0.0
C70 C 0.18844 0.38787 0.71963 0.0
C71 C 0.17543 0.40138 0.7511 0.0
Tb72 Tb 0.98145 1.02777 0.55277 0.0
Tb73 Tb 0.0647 0.04139 0.53329 0.0
C74 C 0.90691 0.99681 0.55388 0.0
C75 C 0.87818 0.98224 0.58138 0.0
C76 C 0.84094 0.95817 0.57081 0.0
C77 C 0.81549 0.93914 0.59691 0.0
C78 C 0.82728 0.94419 0.63369 0.0
C79 C 0.86393 0.96955 0.64433 0.0
C80 C 0.88955 0.98848 0.61812 0.0
C81 C 0.02024 0.08571 0.59282 0.0
C82 C 0.04355 0.99673 0.60217 0.0
C83 C 0.13585 0.05996 0.51133 0.0
C84 C 0.16412 0.09438 0.50243 0.0
C85 C 0.15184 0.12744 0.50269 0.0
C86 C 0.17859 0.16003 0.49185 0.0
C87 C 0.21775 0.15964 0.481 0.0
C88 C 0.23025 0.12653 0.48209 0.0
C89 C 0.20346 0.09401 0.4928 0.0
C90 C 0.01667 0.9781 0.50883 0.0
C91 C 1.00922 0.08835 0.49731 0.0
O92 O 0.93554 0.97904 0.5514 0.0
O93 O 0.92099 1.03262 0.55297 0.0
O94 O 0.03687 0.06918 0.5706 0.0
O95 O 0.98198 0.0685 0.59406 0.0
O96 O 1.00494 0.99139 0.59039 0.0
O97 O 0.07272 1.0216 0.5872 0.0
O98 O 0.12775 0.05545 0.54555 0.0
O99 O 0.10307 0.05081 0.48969 0.0
O100 O 1.00864 1.00927 0.50794 0.0
O101 O 0.05199 0.98172 0.52528 0.0
O102 O 0.04689 0.08895 0.50907 0.0
O103 O 0.97847 0.06101 0.50551 0.0
H104 H 0.83235 0.95299 0.54242 0.0
H105 H 0.78716 0.91972 0.58842 0.0
H106 H 0.87355 0.97336 0.6727 0.0
H107 H 0.91878 1.00671 0.62638 0.0
H108 H 0.12147 0.12793 0.5105 0.0
H109 H 0.16837 0.18526 0.49097 0.0
H110 H 0.25997 0.12541 0.47295 0.0
H111 H 0.21301 0.06846 0.4926 0.0
Tb112 Tb 0.55223 0.05035 0.05383 0.0
Tb113 Tb 0.46264 1.03195 1.03234 0.0
C114 C 0.62621 0.0834 0.05407 0.0
C115 C 0.65713 0.10224 0.08016 0.0
C116 C 0.6929 0.12528 0.06723 0.0
C117 C 0.72022 0.14839 0.09086 0.0
C118 C 0.71181 0.14851 0.12756 0.0
C119 C 0.67654 0.12437 0.14078 0.0
C120 C 0.64905 0.10132 0.11701 0.0
C121 C 0.51536 0.99221 0.0942 0.0
C122 C 0.49149 0.08001 0.09876 0.0
C123 C 0.38874 1.00955 1.01344 0.0
C124 C 0.36125 0.97545 1.00191 0.0
C125 C 0.37594 0.94416 0.99712 0.0
C126 C 0.35004 0.91304 0.98157 0.0
C127 C 0.30952 0.91331 0.97095 0.0
C128 C 0.29448 0.94404 0.97774 0.0
C129 C 0.32041 0.97512 0.99306 0.0
C130 C 0.50658 0.09571 1.00658 0.0
C131 C 0.51965 0.98905 0.99903 0.0
O132 O 0.59626 0.09956 0.04758 0.0
O133 O 0.61357 0.04763 0.05822 0.0
O134 O 0.49911 1.00972 0.07044 0.0
O135 O 0.55398 1.00902 0.09705 0.0
O136 O 0.52958 0.08583 0.08855 0.0
O137 O 0.46113 0.05454 0.08444 0.0
O138 O 0.40246 1.01012 0.04726 0.0
O139 O 0.41731 1.02388 0.99082 0.0
O140 O 0.51694 0.06553 1.00878 0.0
O141 O 0.47053 0.09031 1.01906 0.0
O142 O 0.48201 0.98732 1.00836 0.0
O143 O 0.55092 1.01632 1.00826 0.0
H144 H 0.69887 0.12642 1.03864 0.0
H145 H 0.74743 0.16678 0.08037 0.0
H146 H 0.66944 0.12452 0.16902 0.0
H147 H 0.62089 0.08396 0.12698 0.0
H148 H 0.40761 0.94431 1.00403 0.0
H149 H 0.36221 0.88967 0.97606 0.0
H150 H 0.26318 0.94451 0.96978 0.0
H151 H 0.30902 0.99932 0.99677 0.0
Tb152 Tb 0.52118 0.57398 0.56555 0.0
Tb153 Tb 0.51358 0.50088 0.5294 0.0
C154 C 0.50803 0.63263 0.58695 0.0
C155 C 0.47062 0.64224 0.59671 0.0
C156 C 0.43205 0.62056 0.58512 0.0
C157 C 0.39639 0.62849 0.59628 0.0
C158 C 0.3988 0.65885 0.61846 0.0
C159 C 0.43765 0.68103 0.62922 0.0
C160 C 0.47331 0.67252 0.6187 0.0
C161 C 0.55644 0.52742 0.60307 0.0
C162 C 0.43951 0.50719 0.57498 0.0
C163 C 0.53123 0.44077 0.52099 0.0
C164 C 0.56507 0.43148 0.50306 0.0
C165 C 0.60407 0.45607 0.50432 0.0
C166 C 0.63717 0.44656 0.48992 0.0
C167 C 0.63229 0.41175 0.47485 0.0
C168 C 0.59303 0.38732 0.47286 0.0
C169 C 0.55954 0.39725 0.48677 0.0
C170 C 0.4868 0.54594 0.48153 0.0
C171 C 0.59076 0.56921 0.51396 0.0
O172 O 0.50962 0.62518 0.55279 0.0
O173 O 0.51994 0.60882 0.60864 0.0
O174 O 0.52293 0.51985 0.58422 0.0
O175 O 0.57138 0.56286 0.60092 0.0
O176 O 0.45852 0.5426 0.57931 0.0
O177 O 0.45562 0.48496 0.55639 0.0
O178 O 0.54286 0.46136 0.54948 0.0
O179 O 0.50361 0.45166 0.50019 0.0
O180 O 0.50037 0.55218 0.51403 0.0
O181 O 0.48665 0.5119 0.47575 0.0
O182 O 0.57474 0.5331 0.51379 0.0
O183 O 0.57342 0.59151 0.53106 0.0
H184 H 0.42941 0.59743 0.56753 0.0
H185 H 0.36705 0.6106 0.58784 0.0
H186 H 0.44058 0.70513 0.64561 0.0
H187 H 0.50294 0.68956 0.62769 0.0
H188 H 0.60951 0.48218 0.51768 0.0
H189 H 0.66681 0.46624 0.49136 0.0
H190 H 0.58844 0.36012 0.4617 0.0
H191 H 0.52973 0.37783 0.48584 0.0
Tb192 Tb 0.02347 0.57163 1.02332 0.0
Tb193 Tb 1.01304 0.50511 0.06619 0.0
C194 C 1.01277 0.62665 0.9874 0.0
C195 C 0.98142 0.64766 0.98621 0.0
C196 C 0.96065 0.65144 1.01723 0.0
C197 C 0.92705 0.66705 1.01472 0.0
C198 C 0.91385 0.6792 0.981 0.0
C199 C 0.93545 0.67616 0.95012 0.0
C200 C 0.96897 0.66053 0.95275 0.0
C201 C 0.09247 0.56622 0.05986 0.0
C202 C 0.98549 0.56879 0.10246 0.0
C203 C 0.02617 0.44996 0.09982 0.0
C204 C 0.06259 0.43531 0.10048 0.0
C205 C 0.10001 0.45798 0.0897 0.0
C206 C 0.13582 0.44573 0.09342 0.0
C207 C 0.13449 0.41037 0.10745 0.0
C208 C 0.0966 0.38701 0.11648 0.0
C209 C 0.0608 0.39951 0.11313 0.0
C210 C 0.94419 0.51029 1.02931 0.0
C211 C 0.05153 0.50783 0.98768 0.0
O212 O 0.99937 0.59275 0.97659 0.0
O213 O 0.03668 0.62912 1.01673 0.0
O214 O 0.05634 0.55734 0.0706 0.0
O215 O 0.09044 0.58036 1.02768 0.0
O216 O 0.98823 0.58378 0.06931 0.0
O217 O 0.99664 0.53772 0.10868 0.0
O218 O 0.03233 0.48244 0.11416 0.0
O219 O 1.00525 0.44774 0.06887 0.0
O220 O 0.98041 0.5193 1.01886 0.0
O221 O 0.946 0.49543 0.0612 0.0
O222 O 0.04956 0.49353 1.02104 0.0
O223 O 0.03963 0.53847 0.98111 0.0
H224 H 0.96987 0.6416 1.04315 0.0
H225 H 0.91122 0.66928 1.03901 0.0
H226 H 0.92556 0.68462 0.92363 0.0
H227 H 0.9843 0.65734 0.92843 0.0
H228 H 0.10167 0.48559 0.07947 0.0
H229 H 0.16465 0.46411 0.08614 0.0
H230 H 0.09499 0.35973 0.1277 0.0
H231 H 0.03207 0.38169 0.12136 0.0
C232 C 0.35823 0.30136 0.3482 0.0
C233 C 0.36223 0.27606 0.32245 0.0
C234 C 0.33776 0.28919 0.37987 0.0
C235 C 0.32053 0.25113 0.38498 0.0
C236 C 0.32577 0.22536 0.35956 0.0
C237 C 0.34689 0.23822 0.3286 0.0
C238 C 0.33273 0.31703 0.40684 0.0
C239 C 0.3071 0.18443 0.36392 0.0
C240 C 0.28604 0.20085 0.47053 0.0
C241 C 0.24352 0.19203 0.4635 0.0
C242 C 0.31207 0.2236 0.44667 0.0
C243 C 0.29473 0.23775 0.41561 0.0
C244 C 0.25173 0.23233 0.41066 0.0
C245 C 0.22644 0.20936 0.43488 0.0
C246 C 0.35786 0.22874 0.4524 0.0
C247 C 0.23228 0.24672 0.37745 0.0
H248 H 0.36982 0.33058 0.34291 0.0
H249 H 0.34914 0.21877 0.30807 0.0
H250 H 0.30049 0.31937 0.40518 0.0
H251 H 0.33937 0.30804 0.43486 0.0
H252 H 0.35315 0.34469 0.40165 0.0
H253 H 0.31499 0.16822 0.34186 0.0
H254 H 0.31777 0.17422 0.39017 0.0
H255 H 0.27316 0.17902 0.36403 0.0
H256 H 0.29897 0.18758 0.49302 0.0
H257 H 0.19349 0.20221 0.42933 0.0
H258 H 0.37447 0.25736 0.44553 0.0
H259 H 0.36818 0.21006 0.43426 0.0
H260 H 0.36656 0.22228 0.48076 0.0
H261 H 0.24848 0.27561 0.37127 0.0
H262 H 0.19931 0.24533 0.38073 0.0
H263 H 0.23461 0.22992 0.35374 0.0
C264 C 0.22342 0.77348 0.81899 0.0
C265 C 0.18048 0.76581 0.81463 0.0
C266 C 0.24369 0.79041 0.85018 0.0
C267 C 0.22024 0.79976 0.87731 0.0
C268 C 0.17692 0.78836 0.87495 0.0
C269 C 0.15738 0.77134 0.8434 0.0
C270 C 0.29006 0.80285 0.85162 0.0
C271 C 0.15126 0.79819 0.90358 0.0
C272 C 0.27999 0.8469 0.95906 0.0
C273 C 0.28458 0.88376 0.94867 0.0
C274 C 0.25765 0.81881 0.9366 0.0
C275 C 0.24053 0.82831 0.90313 0.0
C276 C 0.24499 0.86564 0.89271 0.0
C277 C 0.26702 0.89297 0.91577 0.0
C278 C 0.25327 0.77919 0.94815 0.0
C279 C 0.2278 0.87681 0.85672 0.0
H280 H 0.24152 0.76984 0.79659 0.0
H281 H 0.1242 0.76516 0.84001 0.0
H282 H 0.29957 0.83277 0.8452 0.0
H283 H 0.30307 0.79858 0.87909 0.0
H284 H 0.30364 0.78809 0.83182 0.0
H285 H 0.11916 0.7811 0.90161 0.0
H286 H 0.16471 0.7948 0.93112 0.0
H287 H 0.15053 0.82751 0.90006 0.0
H288 H 0.29397 0.84017 0.98458 0.0
H289 H 0.2716 0.92165 0.90759 0.0
H290 H 0.2718 0.76644 0.93091 0.0
H291 H 0.22083 0.76331 0.94445 0.0
H292 H 0.26372 0.7766 0.97689 0.0
H293 H 0.24208 0.86637 0.8342 0.0
H294 H 0.23332 0.90717 0.85347 0.0
H295 H 0.19425 0.86455 0.85398 0.0
C296 C 0.64403 0.40669 0.76024 0.0
C297 C 0.62078 0.40157 0.79127 0.0
C298 C 0.63238 0.42454 0.72868 0.0
C299 C 0.59711 0.43897 0.72806 0.0
C300 C 0.57332 0.4336 0.75938 0.0
C301 C 0.58508 0.41464 0.79026 0.0
C302 C 0.65837 0.42843 0.6961 0.0
C303 C 0.53623 0.44918 0.76083 0.0
C304 C 0.5959 0.52007 0.66188 0.0
C305 C 0.56732 0.50398 0.63418 0.0
C306 C 0.60513 0.49955 0.6925 0.0
C307 C 0.58653 0.46126 0.69554 0.0
C308 C 0.55814 0.44462 0.66735 0.0
C309 C 0.54829 0.46617 0.6376 0.0
C310 C 0.63445 0.51915 0.72206 0.0
C311 C 0.53824 0.40387 0.6685 0.0
H312 H 0.67171 0.39682 0.76077 0.0
H313 H 0.56718 0.41127 0.81421 0.0
H314 H 0.63878 0.4185 0.67154 0.0
H315 H 0.67358 0.45787 0.69135 0.0
H316 H 0.68244 0.41286 0.69953 0.0
H317 H 0.52069 0.4425 0.78681 0.0
H318 H 0.54562 0.47956 0.75736 0.0
H319 H 0.51383 0.43835 0.73828 0.0
H320 H 0.61057 0.54922 0.66009 0.0
H321 H 0.5256 0.45328 0.61702 0.0
H322 H 0.66167 0.50749 0.72499 0.0
H323 H 0.61936 0.51491 0.74836 0.0
H324 H 0.64507 0.5492 0.71658 0.0
H325 H 0.56216 0.38816 0.67158 0.0
H326 H 0.51874 0.39452 0.64371 0.0
H327 H 0.51894 0.39705 0.69234 0.0
C328 C 0.87826 0.65215 0.26361 0.0
C329 C 0.90639 0.67661 0.28679 0.0
C330 C 0.89083 0.63508 0.23392 0.0
C331 C 0.93289 0.64272 0.22575 0.0
C332 C 0.96148 0.66814 0.24824 0.0
C333 C 0.9481 0.68448 0.27823 0.0
C334 C 0.85877 0.60836 0.21137 0.0
C335 C 1.00655 0.67786 0.24079 0.0
C336 C 0.96958 0.57228 0.16905 0.0
C337 C 0.97104 0.58754 0.13369 0.0
C338 C 0.95768 0.58981 0.19886 0.0
C339 C 0.94666 0.62393 0.19399 0.0
C340 C 0.94791 0.63946 0.15841 0.0
C341 C 0.95997 0.62131 0.12908 0.0
C342 C 0.95688 0.57164 0.2358 0.0
C343 C 0.93664 0.67558 0.15122 0.0
H344 H 0.84583 0.6462 0.26847 0.0
H345 H 0.97069 0.70289 0.29546 0.0
H346 H 0.85897 0.61804 0.18275 0.0
H347 H 0.86602 0.58105 0.21183 0.0
H348 H 0.82738 0.60487 0.22118 0.0
H349 H 0.02502 0.69855 0.25995 0.0
H350 H 0.01838 0.65275 0.24278 0.0
H351 H 1.01109 0.68894 0.21276 0.0
H352 H 0.97802 0.54641 0.17365 0.0
H353 H 0.96087 0.63391 0.10249 0.0
H354 H 0.9255 0.5661 0.24605 0.0
H355 H 0.97772 0.59038 0.25522 0.0
H356 H 0.96631 0.54529 0.23548 0.0
H357 H 0.9049 0.67345 0.15943 0.0
H358 H 0.93868 0.68411 0.12223 0.0
H359 H 0.95733 0.69746 0.16776 0.0
C360 C 0.4423 0.2531 0.18352 0.0
C361 C 0.42147 0.24375 0.21549 0.0
C362 C 0.45735 0.22704 0.16594 0.0
C363 C 0.45185 0.19132 0.18128 0.0
C364 C 0.4323 0.18209 0.21426 0.0
C365 C 0.41667 0.2083 0.2307 0.0
C366 C 0.4771 0.2371 0.1301 0.0
C367 C 0.42599 0.14401 0.23113 0.0
C368 C 0.44147 0.11228 0.11882 0.0
C369 C 0.48097 0.10633 0.12234 0.0
C370 C 0.4318 0.14036 0.13764 0.0
C371 C 0.46225 0.16227 0.16092 0.0
C372 C 0.50185 0.15586 0.16528 0.0
C373 C 0.51094 0.12797 0.14549 0.0
C374 C 0.38932 0.14693 0.13216 0.0
C375 C 0.53445 0.17845 0.19068 0.0
H376 H 0.44598 0.2805 0.17188 0.0
H377 H 0.39943 0.20052 0.25485 0.0
H378 H 0.50702 0.22969 0.1303 0.0
H379 H 0.45715 0.22123 0.10818 0.0
H380 H 0.4821 0.26691 0.12349 0.0
H381 H 0.41518 0.1429 0.25912 0.0
H382 H 0.40284 0.12403 0.2145 0.0
H383 H 0.45493 0.13486 0.23186 0.0
H384 H 0.41847 0.09591 0.1003 0.0
H385 H 0.54146 0.12323 0.14793 0.0
H386 H 0.39152 0.17575 0.123 0.0
H387 H 0.37367 0.14296 0.15815 0.0
H388 H 0.36983 0.12814 0.11191 0.0
H389 H 0.54069 0.20797 0.18268 0.0
H390 H 0.56366 0.16971 0.19092 0.0
H391 H 0.5234 0.17595 0.21862 0.0
C392 C 0.08935 0.81447 0.68058 0.0
C393 C 0.11369 0.81896 0.71284 0.0
C394 C 0.07557 0.84385 0.66498 0.0
C395 C 0.0853 0.87805 0.6828 0.0
C396 C 0.10802 0.88233 0.71625 0.0
C397 C 0.12269 0.85294 0.73054 0.0
C398 C 0.05253 0.83885 0.62854 0.0
C399 C 0.11846 0.91845 0.73608 0.0
C400 C 0.09452 0.96297 0.62423 0.0
C401 C 0.05558 0.96962 0.62672 0.0
C402 C 0.10461 0.93323 0.64259 0.0
C403 C 0.07538 0.91037 0.66465 0.0
C404 C 0.03672 0.91791 0.6686 0.0
C405 C 0.02702 0.94733 0.64908 0.0
C406 C 0.14583 0.92539 0.63712 0.0
C407 C 1.00539 0.89443 0.69271 0.0
H408 H 0.08192 0.78821 0.66702 0.0
H409 H 0.14243 0.85717 0.75494 0.0
H410 H 0.02336 0.84737 0.62961 0.0
H411 H 0.07119 0.85671 0.60802 0.0
H412 H 0.04548 0.8099 0.61931 0.0
H413 H 0.13105 0.91564 0.76409 0.0
H414 H 0.14165 0.93907 0.72123 0.0
H415 H 0.09086 0.92944 0.73735 0.0
H416 H 0.11647 0.97982 0.60641 0.0
H417 H 0.9969 0.95252 0.6508 0.0
H418 H 0.14133 0.8976 0.62552 0.0
H419 H 0.16314 0.92548 0.66348 0.0
H420 H 0.16489 0.94585 0.61874 0.0
H421 H 0.99523 0.86611 0.68198 0.0
H422 H 0.97798 0.90561 0.6947 0.0
H423 H 0.01932 0.89238 0.72032 0.0
C424 C 0.76027 0.43435 0.87882 0.0
C425 C 0.72651 0.4121 0.89617 0.0
C426 C 0.79629 0.45252 0.89875 0.0
C427 C 0.7991 0.44807 0.93698 0.0
C428 C 0.76497 0.42607 0.95464 0.0
C429 C 0.72916 0.40901 0.93423 0.0
C430 C 0.8316 0.47615 0.87881 0.0
C431 C 0.76642 0.41997 0.99519 0.0
C432 C 0.90393 0.46199 0.98735 0.0
C433 C 0.90842 0.49605 1.00391 0.0
C434 C 0.86905 0.44647 0.96499 0.0
C435 C 0.83784 0.46559 0.95866 0.0
C436 C 0.8428 0.50051 0.97474 0.0
C437 C 0.87792 0.51522 0.99734 0.0
C438 C 0.86506 0.40905 0.94902 0.0
C439 C 0.8106 0.52201 0.96856 0.0
H440 H 0.759 0.43697 0.84956 0.0
H441 H 0.70309 0.39294 0.94835 0.0
H442 H 0.84047 0.50421 0.89031 0.0
H443 H 0.85872 0.46439 0.88235 0.0
H444 H 0.82401 0.4784 0.84937 0.0
H445 H 0.73757 0.40157 1.00477 0.0
H446 H 0.79228 0.40761 1.00341 0.0
H447 H 0.77194 0.44669 1.00915 0.0
H448 H 0.92748 0.4471 0.99256 0.0
H449 H 0.88134 0.54154 1.01017 0.0
H450 H 0.86022 0.41036 0.91916 0.0
H451 H 0.83783 0.38917 0.95962 0.0
H452 H 0.89259 0.39833 0.95547 0.0
H453 H 0.80396 0.52519 0.9391 0.0
H454 H 0.8202 0.54976 0.98079 0.0
H455 H 0.78157 0.50675 0.98048 0.0
C456 C 0.81084 0.65656 0.42765 0.0
C457 C 0.80766 0.66219 0.38997 0.0
C458 C 0.77609 0.64097 0.44774 0.0
C459 C 0.73661 0.63083 0.43002 0.0
C460 C 0.73324 0.63583 0.39183 0.0
C461 C 0.76871 0.6512 0.37229 0.0
C462 C 0.78165 0.63599 0.48817 0.0
C463 C 0.69193 0.62583 0.37172 0.0
C464 C 0.65011 0.56215 0.47752 0.0
C465 C 0.62867 0.58514 0.49319 0.0
C466 C 0.68507 0.57655 0.45719 0.0
C467 C 0.69905 0.6151 0.45153 0.0
C468 C 0.67744 0.63853 0.467 0.0
C469 C 0.6429 0.62339 0.48772 0.0
C470 C 0.70719 0.5504 0.44179 0.0
C471 C 0.69066 0.67973 0.46145 0.0
H472 H 0.84074 0.665 0.44159 0.0
H473 H 0.76577 0.65599 0.34334 0.0
H474 H 0.76467 0.65281 0.50239 0.0
H475 H 0.76872 0.6068 0.49601 0.0
H476 H 0.81444 0.64412 0.49774 0.0
H477 H 0.69431 0.63096 0.34208 0.0
H478 H 0.67687 0.59635 0.37646 0.0
H479 H 0.67169 0.6421 0.38212 0.0
H480 H 0.63962 0.53267 0.48103 0.0
H481 H 0.62668 0.64164 0.49923 0.0
H482 H 0.73952 0.55688 0.45259 0.0
H483 H 0.70787 0.55382 0.41191 0.0
H484 H 0.69254 0.52117 0.44834 0.0
H485 H 0.72252 0.69039 0.47261 0.0
H486 H 0.67035 0.69423 0.47461 0.0
H487 H 0.69057 0.68657 0.43207 0.0
C488 C 0.285 0.32125 0.21652 0.0
C489 C 0.32504 0.32525 0.2053 0.0
C490 C 0.2573 0.33714 0.19667 0.0
C491 C 0.26945 0.35639 0.16407 0.0
C492 C 0.30934 0.35964 0.15191 0.0
C493 C 0.3369 0.34427 0.17292 0.0
C494 C 0.21508 0.33347 0.21077 0.0
C495 C 0.32286 0.37935 0.11685 0.0
C496 C 0.17648 0.3643 0.10639 0.0
C497 C 0.17283 0.39909 0.11616 0.0
C498 C 0.21005 0.35115 0.11939 0.0
C499 C 0.23993 0.37313 0.14322 0.0
C500 C 0.23764 0.40919 0.15138 0.0
C501 C 0.20413 0.42187 0.13748 0.0
C502 C 0.21194 0.31277 0.10971 0.0
C503 C 0.2685 0.4331 0.17733 0.0
H504 H 0.27509 0.30545 0.24083 0.0
H505 H 0.36782 0.34737 0.16418 0.0
H506 H 0.20942 0.36113 0.21383 0.0
H507 H 0.19126 0.31821 0.19115 0.0
H508 H 0.21117 0.31881 0.23736 0.0
H509 H 0.35447 0.37826 0.11064 0.0
H510 H 0.30148 0.36686 0.09416 0.0
H511 H 0.32185 0.40861 0.11824 0.0
H512 H 0.15237 0.34693 0.08958 0.0
H513 H 0.20107 0.44871 0.14523 0.0
H514 H 0.20327 0.29395 0.13323 0.0
H515 H 0.2436 0.31229 0.10319 0.0
H516 H 0.19073 0.30194 0.0863 0.0
H517 H 0.26363 0.42183 0.20527 0.0
H518 H 0.26562 0.46199 0.1769 0.0
H519 H 0.30027 0.43309 0.17083 0.0
C520 C 0.61143 0.29607 0.92754 0.0
C521 C 0.60938 0.29987 0.88948 0.0
C522 C 0.59649 0.26201 0.94521 0.0
C523 C 0.57736 0.23049 0.92474 0.0
C524 C 0.5736 0.23417 0.88641 0.0
C525 C 0.5898 0.26863 0.86925 0.0
C526 C 0.60141 0.25982 0.98601 0.0
C527 C 0.55258 0.20156 0.86354 0.0
C528 C 0.56522 0.13561 0.97168 0.0
C529 C 0.52559 0.12921 0.9847 0.0
C530 C 0.58246 0.16818 0.95184 0.0
C531 C 0.55915 0.19453 0.9439 0.0
C532 C 0.51881 0.18754 0.95632 0.0
C533 C 0.50288 0.15544 0.97673 0.0
C534 C 0.62592 0.17479 0.94001 0.0
C535 C 0.49246 0.21432 0.94847 0.0
H536 H 0.62524 0.31995 0.94385 0.0
H537 H 0.58794 0.27085 0.83997 0.0
H538 H 0.57081 0.25206 0.99788 0.0
H539 H 0.61746 0.23814 0.99412 0.0
H540 H 0.61901 0.2863 0.9979 0.0
H541 H 0.55162 0.20875 0.83422 0.0
H542 H 0.56881 0.17929 0.8677 0.0
H543 H 0.52069 0.19039 0.87203 0.0
H544 H 0.58297 0.1155 0.9774 0.0
H545 H 0.47215 0.15082 0.98641 0.0
H546 H 0.64512 0.20033 0.95247 0.0
H547 H 0.62661 0.17892 0.91021 0.0
H548 H 0.63987 0.1516 0.94774 0.0
H549 H 0.50661 0.24084 0.96194 0.0
H550 H 0.46087 0.20382 0.95802 0.0
H551 H 0.49045 0.2201 0.91894 0.0
C552 C 0.89097 0.79745 0.40028 0.0
C553 C 0.91613 0.77983 0.3815 0.0
C554 C 0.90702 0.82978 0.42025 0.0
C555 C 0.94926 0.84764 0.41951 0.0
C556 C 0.97457 0.83197 0.39831 0.0
C557 C 0.95802 0.79806 0.38026 0.0
C558 C 0.87871 0.84389 0.44344 0.0
C559 C 0.01942 0.85072 0.39516 0.0
C560 C 0.97795 0.94829 0.45209 0.0
C561 C 0.99662 0.94515 0.48649 0.0
C562 C 0.96377 0.91721 0.42955 0.0
C563 C 0.9667 0.88169 0.44212 0.0
C564 C 0.98437 0.87847 0.47741 0.0
C565 C 0.99977 0.91013 0.49863 0.0
C566 C 0.94651 0.92257 0.39188 0.0
C567 C 0.98663 0.84143 0.49313 0.0
H568 H 0.85821 0.78551 0.40024 0.0
H569 H 0.9782 0.78554 0.36592 0.0
H570 H 0.89153 0.84714 0.47179 0.0
H571 H 0.87599 0.87135 0.43348 0.0
H572 H 0.84744 0.82517 0.44357 0.0
H573 H 0.03337 0.83875 0.37338 0.0
H574 H 0.02345 0.88061 0.38955 0.0
H575 H 0.03643 0.84785 0.42112 0.0
H576 H 0.97589 0.97527 0.44221 0.0
H577 H 1.01418 0.90743 0.52515 0.0
H578 H 0.91326 0.90902 0.38983 0.0
H579 H 0.96159 0.90951 0.37177 0.0
H580 H 0.95068 0.95214 0.38453 0.0
H581 H 0.95564 0.82224 0.49202 0.0
H582 H 0.99893 0.84325 0.52168 0.0
H583 H 1.00661 0.82932 0.47688 0.0
C584 C 0.22291 0.75003 0.67113 0.0
C585 C 0.19402 0.72685 0.69268 0.0
C586 C 0.2537 0.737 0.65597 0.0
C587 C 0.25515 0.70001 0.66256 0.0
C588 C 0.22435 0.67589 0.68222 0.0
C589 C 0.19402 0.68969 0.69711 0.0
C590 C 0.28641 0.7635 0.63537 0.0
C591 C 0.22501 0.63626 0.68964 0.0
C592 C 0.32636 0.66342 0.60645 0.0
C593 C 0.36105 0.66759 0.63023 0.0
C594 C 0.29105 0.67288 0.61701 0.0
C595 C 0.29094 0.68755 0.65176 0.0
C596 C 0.32554 0.69139 0.67608 0.0
C597 C 0.35999 0.68085 0.66516 0.0
C598 C 0.25419 0.66791 0.59083 0.0
C599 C 0.32652 0.70728 0.71336 0.0
H600 H 0.22331 0.77898 0.66837 0.0
H601 H 0.17167 0.67202 0.71404 0.0
H602 H 0.31618 0.76831 0.65114 0.0
H603 H 0.29058 0.75166 0.60908 0.0
H604 H 0.27893 0.79046 0.63014 0.0
H605 H 0.19637 0.62026 0.70178 0.0
H606 H 0.2293 0.62279 0.66428 0.0
H607 H 0.25129 0.63514 0.70866 0.0
H608 H 0.32706 0.65354 0.57927 0.0
H609 H 0.38624 0.6832 0.684 0.0
H610 H 0.24885 0.69517 0.58305 0.0
H611 H 0.22626 0.65188 0.60394 0.0
H612 H 0.25812 0.65358 0.56585 0.0
H613 H 0.32202 0.73559 0.711 0.0
H614 H 0.35596 0.70839 0.72888 0.0
H615 H 0.30108 0.69054 0.72906 0.0
C616 C 0.67111 0.82002 0.76667 0.0
C617 C 0.6932 0.81077 0.79714 0.0
C618 C 0.69153 0.84108 0.73843 0.0
C619 C 0.73484 0.8519 0.74051 0.0
C620 C 0.75744 0.84097 0.77011 0.0
C621 C 0.73628 0.82094 0.79842 0.0
C622 C 0.66686 0.85308 0.70722 0.0
C623 C 0.80387 0.85182 0.77263 0.0
C624 C 0.79216 0.8827 0.65647 0.0
C625 C 0.8027 0.92091 0.66067 0.0
C626 C 0.76919 0.85976 0.68208 0.0
C627 C 0.75679 0.87576 0.71229 0.0
C628 C 0.76714 0.91439 0.71657 0.0
C629 C 0.79035 0.93668 0.69056 0.0
C630 C 0.75908 0.81853 0.67735 0.0
C631 C 0.75425 0.93206 0.74876 0.0
H632 H 0.63785 0.812 0.76558 0.0
H633 H 0.75361 0.81488 0.82233 0.0
H634 H 0.67276 0.88355 0.70663 0.0
H635 H 0.6765 0.84482 0.68113 0.0
H636 H 0.63334 0.8412 0.70918 0.0
H637 H 0.81668 0.83871 0.79626 0.0
H638 H 0.8163 0.84397 0.74764 0.0
H639 H 0.81492 0.88214 0.77504 0.0
H640 H 0.80256 0.87078 0.63344 0.0
H641 H 0.7987 0.96635 0.69341 0.0
H642 H 0.72551 0.80674 0.67854 0.0
H643 H 0.7741 0.80574 0.69982 0.0
H644 H 0.76934 0.81075 0.65127 0.0
H645 H 0.72052 0.92275 0.75111 0.0
H646 H 0.76305 0.96261 0.74686 0.0
H647 H 0.76876 0.92343 0.77403 0.0
C648 C 0.80876 0.28756 0.27903 0.0
C649 C 0.85182 0.2956 0.28245 0.0
C650 C 0.78748 0.2677 0.24974 0.0
C651 C 0.80985 0.25489 0.22393 0.0
C652 C 0.8532 0.26501 0.22563 0.0
C653 C 0.8738 0.28587 0.25476 0.0
C654 C 0.74104 0.25758 0.2483 0.0
C655 C 0.87766 0.25115 0.19853 0.0
C656 C 0.75317 0.16405 0.18477 0.0
C657 C 0.73866 0.17542 0.15148 0.0
C658 C 0.77784 0.18975 0.20823 0.0
C659 C 0.78766 0.22742 0.19787 0.0
C660 C 0.77357 0.23894 0.16401 0.0
C661 C 0.74902 0.21262 0.14108 0.0
C662 C 0.79233 0.17673 0.24445 0.0
C663 C 0.78311 0.27905 0.15268 0.0
H664 H 0.79129 0.29415 0.30059 0.0
H665 H 0.90704 0.29244 0.25714 0.0
H666 H 0.72867 0.26213 0.22063 0.0
H667 H 0.72957 0.22791 0.25507 0.0
H668 H 0.72858 0.27371 0.26764 0.0
H669 H 0.91084 0.26524 0.20098 0.0
H670 H 0.87428 0.22118 0.20302 0.0
H671 H 0.86592 0.25502 0.17048 0.0
H672 H 0.74507 0.13511 0.19242 0.0
H673 H 0.73704 0.22119 0.11539 0.0
H674 H 0.77816 0.18791 0.26657 0.0
H675 H 0.8261 0.18706 0.24841 0.0
H676 H 0.7843 0.14622 0.24709 0.0
H677 H 0.76714 0.29411 0.17013 0.0
H678 H 0.77327 0.2829 0.12399 0.0
H679 H 0.8165 0.29177 0.15635 0.0
C680 C 0.38349 0.65464 0.32473 0.0
C681 C 0.41181 0.67695 0.30162 0.0
C682 C 0.39614 0.63607 0.3554 0.0
C683 C 0.43851 0.63964 0.36411 0.0
C684 C 0.4674 0.66299 0.34162 0.0
C685 C 0.45384 0.68128 0.31095 0.0
C686 C 0.36382 0.61174 0.37802 0.0
C687 C 0.51284 0.66782 0.34933 0.0
C688 C 0.47144 0.60723 0.45935 0.0
C689 C 0.47518 0.57147 0.45263 0.0
C690 C 0.45993 0.62982 0.43106 0.0
C691 C 0.4522 0.61675 0.39487 0.0
C692 C 0.4564 0.58084 0.38813 0.0
C693 C 0.46752 0.55894 0.41675 0.0
C694 C 0.45569 0.66766 0.43991 0.0
C695 C 0.44885 0.56523 0.35045 0.0
H696 H 0.35096 0.6514 0.31874 0.0
H697 H 0.47634 0.69805 0.29359 0.0
H698 H 0.36571 0.58271 0.37637 0.0
H699 H 0.3693 0.61967 0.40689 0.0
H700 H 0.33227 0.61326 0.36904 0.0
H701 H 0.53155 0.68831 0.33078 0.0
H702 H 0.5213 0.67675 0.37766 0.0
H703 H 0.52078 0.64107 0.34644 0.0
H704 H 0.47701 0.61745 0.4867 0.0
H705 H 0.47034 0.53155 0.41081 0.0
H706 H 0.42397 0.66984 0.43269 0.0
H707 H 0.47665 0.68872 0.42351 0.0
H708 H 0.4627 0.67411 0.46905 0.0
H709 H 0.41671 0.56366 0.34081 0.0
H710 H 0.45435 0.53728 0.3493 0.0
H711 H 0.46916 0.58363 0.33138 0.0
C712 C 0.15616 0.42223 0.82613 0.0
C713 C 0.12762 0.39717 0.80375 0.0
C714 C 0.14421 0.43972 0.85588 0.0
C715 C 0.10243 0.43191 0.865 0.0
C716 C 0.07346 0.40599 0.84329 0.0
C717 C 0.08618 0.38926 0.8132 0.0
C718 C 0.17662 0.4671 0.87745 0.0
C719 C 0.02864 0.39614 0.85165 0.0
C720 C 0.07738 0.45518 0.96191 0.0
C721 C 0.06576 0.48866 0.95672 0.0
C722 C 0.08901 0.43653 0.93268 0.0
C723 C 0.08926 0.45124 0.89674 0.0
C724 C 0.0777 0.48507 0.89142 0.0
C725 C 0.06623 0.5031 0.92107 0.0
C726 C 0.10085 0.40075 0.94028 0.0
C727 C 0.0774 0.5024 0.85414 0.0
H728 H 0.18842 0.42833 0.82061 0.0
H729 H 0.06323 0.37048 0.79662 0.0
H730 H 0.16908 0.49429 0.87668 0.0
H731 H 0.17727 0.45805 0.90624 0.0
H732 H 0.20774 0.47061 0.86704 0.0
H733 H 1.00987 0.37493 0.83315 0.0
H734 H 0.02492 0.38568 0.87995 0.0
H735 H 0.0165 0.42107 0.8494 0.0
H736 H 0.07716 0.44327 0.98896 0.0
H737 H 0.0573 0.52869 0.91611 0.0
H738 H 0.1325 0.40304 0.93175 0.0
H739 H 0.08015 0.37844 0.92424 0.0
H740 H 0.09934 0.39273 0.96942 0.0
H741 H 0.10848 0.50791 0.84328 0.0
H742 H 0.06773 0.52865 0.85416 0.0
H743 H 0.05623 0.48314 0.83537 0.0
C744 C 0.57587 0.81477 0.91844 0.0
C745 C 0.6042 0.82883 0.89204 0.0
C746 C 0.55534 0.83765 0.93492 0.0
C747 C 0.56266 0.87495 0.92382 0.0
C748 C 0.58896 0.88874 0.89548 0.0
C749 C 0.6102 0.86573 0.88051 0.0
C750 C 0.52846 0.82268 0.96603 0.0
C751 C 0.59721 0.92853 0.88291 0.0
C752 C 0.50071 0.93804 0.95545 0.0
C753 C 0.52852 0.95815 0.98118 0.0
C754 C 0.51074 0.90968 0.93701 0.0
C755 C 0.54879 0.90117 0.9456 0.0
C756 C 0.57596 0.92027 0.97307 0.0
C757 C 0.56561 0.94895 0.99031 0.0
C758 C 0.48179 0.89035 0.90713 0.0
C759 C 0.61662 0.91145 0.98327 0.0
H760 H 0.57082 0.78622 0.9271 0.0
H761 H 0.63293 0.87735 0.86094 0.0
H762 H 0.54469 0.83368 0.99182 0.0
H763 H 0.49944 0.83169 0.96358 0.0
H764 H 0.52099 0.79214 0.96766 0.0
H765 H 0.61256 0.93307 0.8567 0.0
H766 H 0.56822 0.93756 0.87983 0.0
H767 H 0.6174 0.94634 0.90342 0.0
H768 H 0.47201 0.94544 0.94881 0.0
H769 H 0.58663 0.96425 1.01095 0.0
H770 H 0.47721 0.86009 0.90976 0.0
H771 H 0.49539 0.89891 0.8806 0.0
H772 H 0.45141 0.89699 0.90705 0.0
H773 H 0.61221 0.88145 0.9883 0.0
H774 H 0.63192 0.92632 1.0078 0.0
H775 H 0.63757 0.91926 0.96061 0.0
C776 C 0.92416 0.22644 0.37353 0.0
C777 C 0.93069 0.262 0.38755 0.0
C778 C 0.94294 0.20062 0.39005 0.0
C779 C 0.96732 0.21006 0.42226 0.0
C780 C 0.97473 0.24592 0.43631 0.0
C781 C 0.95671 0.27172 0.41843 0.0
C782 C 0.93463 0.16255 0.37423 0.0
C783 C 0.99947 0.2563 0.47138 0.0
C784 C 0.96208 0.12823 0.48401 0.0
C785 C 0.99994 0.12038 0.47889 0.0
C786 C 0.95197 0.15853 0.46693 0.0
C787 C 0.98012 0.18084 0.44356 0.0
C788 C 0.0187 0.17343 0.43876 0.0
C789 C 0.02846 0.14334 0.45704 0.0
C790 C 0.91081 0.16614 0.47324 0.0
C791 C 0.04884 0.19627 0.41327 0.0
H792 H 0.90309 0.2181 0.35039 0.0
H793 H 0.96211 0.2992 0.42918 0.0
H794 H 0.96347 0.15335 0.3736 0.0
H795 H 0.91342 0.14262 0.39146 0.0
H796 H 0.92048 0.16149 0.34632 0.0
H797 H 1.00633 0.28634 0.47638 0.0
H798 H 0.98199 0.24151 0.49423 0.0
H799 H 0.02879 0.24787 0.47139 0.0
H800 H 0.94038 0.11079 0.50167 0.0
H801 H 0.05777 0.13712 0.45342 0.0
H802 H 0.89121 0.16167 0.44789 0.0
H803 H 0.91487 0.19527 0.48093 0.0
H804 H 0.89424 0.1481 0.4948 0.0
H805 H 0.03588 0.19213 0.38504 0.0
H806 H 0.07882 0.1888 0.41506 0.0
H807 H 0.05413 0.22597 0.41914 0.0
C808 C 0.30648 0.67109 0.15531 0.0
C809 C 0.30951 0.66669 0.19325 0.0
C810 C 0.27087 0.65381 0.1347 0.0
C811 C 0.23744 0.63016 0.1519 0.0
C812 C 0.24069 0.62436 0.18992 0.0
C813 C 0.27631 0.64291 0.21011 0.0
C814 C 0.26882 0.66147 0.09441 0.0
C815 C 0.20629 0.59878 0.20937 0.0
C816 C 0.13134 0.61376 0.10328 0.0
C817 C 0.12848 0.58091 0.08493 0.0
C818 C 0.16627 0.62981 0.1254 0.0
C819 C 0.19897 0.6122 0.13005 0.0
C820 C 0.19561 0.57838 0.11229 0.0
C821 C 0.16075 0.56349 0.08947 0.0
C822 C 0.16864 0.66622 0.14292 0.0
C823 C 0.22912 0.55815 0.11702 0.0
H824 H 0.33205 0.6883 0.14144 0.0
H825 H 0.27768 0.63928 0.23927 0.0
H826 H 0.26475 0.63551 0.07939 0.0
H827 H 0.24188 0.67268 0.08704 0.0
H828 H 0.29688 0.6814 0.08525 0.0
H829 H 0.21433 0.59549 0.23858 0.0
H830 H 0.17839 0.60951 0.20688 0.0
H831 H 0.19844 0.57127 0.19668 0.0
H832 H 0.10654 0.62742 0.09954 0.0
H833 H 0.15891 0.53836 0.075 0.0
H834 H 0.19527 0.68732 0.13295 0.0
H835 H 0.17355 0.66381 0.17269 0.0
H836 H 0.14041 0.67605 0.13715 0.0
H837 H 0.25734 0.57449 0.1046 0.0
H838 H 0.22023 0.53058 0.10438 0.0
H839 H 0.23685 0.55468 0.14624 0.0
C840 C 0.22078 0.41369 0.66138 0.0
C841 C 0.2244 0.40948 0.69922 0.0
C842 C 0.25482 0.43077 0.641 0.0
C843 C 0.29406 0.44377 0.65856 0.0
C844 C 0.29784 0.44006 0.69687 0.0
C845 C 0.26302 0.42332 0.71671 0.0
C846 C 0.24881 0.43436 0.60045 0.0
C847 C 0.33898 0.45284 0.71684 0.0
C848 C 0.38826 0.4529 0.60137 0.0
C849 C 0.40102 0.49108 0.59478 0.0
C850 C 0.35409 0.43734 0.62229 0.0
C851 C 0.33114 0.46023 0.63669 0.0
C852 C 0.34343 0.49872 0.62966 0.0
C853 C 0.37828 0.51364 0.60926 0.0
C854 C 0.3429 0.39631 0.6294 0.0
C855 C 0.31973 0.52426 0.6438 0.0
H856 H 0.19109 0.40326 0.64758 0.0
H857 H 0.26632 0.41983 0.74582 0.0
H858 H 0.26023 0.46351 0.59177 0.0
H859 H 0.26688 0.4181 0.58678 0.0
H860 H 0.21609 0.42462 0.59105 0.0
H861 H 0.33691 0.44851 0.7466 0.0
H862 H 0.3607 0.43771 0.70709 0.0
H863 H 0.35212 0.48251 0.71121 0.0
H864 H 0.40569 0.43505 0.59092 0.0
H865 H 0.38767 0.5431 0.60462 0.0
H866 H 0.31128 0.38405 0.61845 0.0
H867 H 0.34331 0.39065 0.65902 0.0
H868 H 0.36421 0.38232 0.61702 0.0
H869 H 0.28711 0.51552 0.63399 0.0
H870 H 0.33237 0.55334 0.63527 0.0
H871 H 0.3203 0.52276 0.67382 0.0
C872 C 0.70977 0.71484 0.9015 0.0
C873 C 0.6993 0.74624 0.9135 0.0
C874 C 0.74217 0.70275 0.91846 0.0
C875 C 0.76347 0.72181 0.94898 0.0
C876 C 0.74993 0.7509 0.96373 0.0
C877 C 0.71812 0.76312 0.94552 0.0
C878 C 0.75607 0.67197 0.90151 0.0
C879 C 0.77126 0.7711 0.99687 0.0
C880 C 0.84078 0.67538 0.99455 0.0
C881 C 0.8766 0.69343 0.9773 0.0
C882 C 0.80392 0.68583 0.98732 0.0
C883 C 0.803 0.7145 0.96193 0.0
C884 C 0.83952 0.734 0.9459 0.0
C885 C 0.87597 0.72343 0.9541 0.0
C886 C 0.76558 0.66491 1.00524 0.0
C887 C 0.8397 0.76463 0.91843 0.0
H888 H 0.69477 0.70156 0.87696 0.0
H889 H 0.71029 0.78759 0.95478 0.0
H890 H 0.78633 0.68325 0.88964 0.0
H891 H 0.75998 0.65109 0.92228 0.0
H892 H 0.73409 0.65811 0.87974 0.0
H893 H 0.75263 0.78817 1.00859 0.0
H894 H 0.77786 0.75144 1.01791 0.0
H895 H 0.80104 0.78949 0.98945 0.0
H896 H 0.84103 0.65202 1.01238 0.0
H897 H 0.90383 0.73794 0.94139 0.0
H898 H 0.74544 0.6462 0.98537 0.0
H899 H 0.74799 0.68407 1.01454 0.0
H900 H 0.77271 0.6481 1.02875 0.0
H901 H 0.82043 0.75343 0.89407 0.0
H902 H 0.87111 0.77808 0.90983 0.0
H903 H 0.82633 0.78588 0.92974 0.0
C904 C 0.42607 0.81433 0.22406 0.0
C905 C 0.42268 0.7814 0.20561 0.0
C906 C 0.43906 0.84907 0.20644 0.0
C907 C 0.4495 0.85123 0.1695 0.0
C908 C 0.44698 0.81795 0.15112 0.0
C909 C 0.43344 0.78375 0.16919 0.0
C910 C 0.44087 0.88356 0.22719 0.0
C911 C 0.45834 0.81838 0.11211 0.0
C912 C 0.45452 0.93958 0.11147 0.0
C913 C 0.49672 0.95673 0.11365 0.0
C914 C 0.4385 0.90568 0.12989 0.0
C915 C 0.46525 0.88809 0.15062 0.0
C916 C 0.5078 0.90535 0.15252 0.0
C917 C 0.52277 0.93924 0.13443 0.0
C918 C 0.39293 0.88856 0.12708 0.0
C919 C 0.53788 0.88768 0.17331 0.0
H920 H 0.41706 0.8129 0.25189 0.0
H921 H 0.4306 0.7585 0.15456 0.0
H922 H 0.4726 0.90134 0.22805 0.0
H923 H 0.42081 0.89951 0.21315 0.0
H924 H 0.43108 0.87747 0.25539 0.0
H925 H 0.45527 0.79024 0.10174 0.0
H926 H 0.43842 0.83203 0.09481 0.0
H927 H 0.49048 0.83452 0.10929 0.0
H928 H 0.43405 0.95263 0.09544 0.0
H929 H 0.55544 0.95191 0.13619 0.0
H930 H 0.38067 0.88387 0.15456 0.0
H931 H 0.38686 0.86131 0.11405 0.0
H932 H 0.37595 0.90604 0.11113 0.0
H933 H 0.52989 0.88364 0.20211 0.0
H934 H 0.57003 0.90443 0.17212 0.0
H935 H 0.53608 0.8601 0.16221 0.0
C936 C 0.11093 0.26124 0.7261 0.0
C937 C 0.11209 0.29474 0.70769 0.0
C938 C 0.0979 0.22694 0.70811 0.0
C939 C 0.08517 0.22563 0.6707 0.0
C940 C 0.08538 0.25943 0.65235 0.0
C941 C 0.09897 0.29319 0.67082 0.0
C942 C 0.09862 0.19201 0.729 0.0
C943 C 0.07166 0.26007 0.61287 0.0
C944 C 0.08058 0.13957 0.61274 0.0
C945 C 0.03876 0.12103 0.61299 0.0
C946 C 0.0963 0.17314 0.63171 0.0
C947 C 0.06972 0.18909 0.65119 0.0
C948 C 0.02757 0.17042 0.6512 0.0
C949 C 1.01289 0.13695 0.63254 0.0
C950 C 0.14144 0.19169 0.63078 0.0
C951 C 0.99755 0.18611 0.67065 0.0
H952 H 0.12179 0.26193 0.75425 0.0
H953 H 0.10008 0.31879 0.65611 0.0
H954 H 0.06742 0.17323 0.72842 0.0
H955 H 0.11899 0.17749 0.71601 0.0
H956 H 0.10957 0.19735 0.75768 0.0
H957 H 0.0727 0.28838 0.60259 0.0
H958 H 0.09157 0.2481 0.59637 0.0
H959 H 0.03983 0.2429 0.60875 0.0
H960 H 0.10101 0.12789 0.59776 0.0
H961 H 0.98051 0.12332 0.63295 0.0
H962 H 0.15508 0.19579 0.6588 0.0
H963 H 0.1457 0.21933 0.61783 0.0
H964 H 0.15847 0.17551 0.61566 0.0
H965 H 1.007 0.18933 0.69982 0.0
H966 H 0.96573 0.16848 0.66816 0.0
H967 H 0.99757 0.21388 0.65951 0.0
C968 C 0.83266 0.38112 0.38994 0.0
C969 C 0.83888 0.34645 0.39936 0.0
C970 C 0.80041 0.39292 0.40386 0.0
C971 C 0.77429 0.36957 0.42807 0.0
C972 C 0.78202 0.33555 0.43952 0.0
C973 C 0.81435 0.3243 0.42492 0.0
C974 C 0.79292 0.42938 0.39108 0.0
C975 C 0.75468 0.31012 0.46545 0.0
C976 C 0.7059 0.41036 0.4832 0.0
C977 C 0.66854 0.40066 0.4628 0.0
C978 C 0.74072 0.40058 0.47205 0.0
C979 C 0.73781 0.38007 0.44015 0.0
C980 C 0.70018 0.3698 0.41959 0.0
C981 C 0.66597 0.38046 0.43108 0.0
C982 C 0.7806 0.41215 0.49433 0.0
C983 C 0.69612 0.34775 0.3854 0.0
H984 H 0.85168 0.39806 0.37005 0.0
H985 H 0.81865 0.29715 0.43164 0.0
H986 H 0.76332 0.42463 0.37506 0.0
H987 H 0.79057 0.44638 0.41459 0.0
H988 H 0.81764 0.44519 0.37396 0.0
H989 H 0.76661 0.28585 0.47355 0.0
H990 H 0.75154 0.32509 0.49019 0.0
H991 H 0.72348 0.3002 0.45256 0.0
H992 H 0.70789 0.42537 0.50815 0.0
H993 H 0.63732 0.37334 0.41502 0.0
H994 H 0.80491 0.42881 0.47739 0.0
H995 H 0.7909 0.38748 0.50389 0.0
H996 H 0.77781 0.42854 0.51823 0.0
H997 H 0.71748 0.36316 0.36528 0.0
H998 H 0.66443 0.34147 0.37298 0.0
H999 H 0.70472 0.32143 0.39138 0.0
loop_
_geom_bond_atom_site_label_1
_geom_bond_atom_site_label_2
_geom_bond_distance
_geom_bond_site_symmetry_2
_ccdc_geom_bond_type
H0 C3 0.931 . S
H1 C6 0.928 . S
H2 C8 0.930 . S
C3 H0 0.931 . S
C3 C4 1.413 . S
C3 C5 1.360 . S
C4 C3 1.413 . S
C4 C8 1.429 . S
C5 C3 1.360 . S
C5 C6 1.372 . S
C6 H1 0.928 . S
C6 C5 1.372 . S
C6 C7 1.404 . S
C7 C6 1.404 . S
C7 C8 1.391 . S
C8 H2 0.930 . S
C8 C4 1.429 . S
C8 C7 1.391 . S
H9 C12 0.931 . S
H10 C15 0.928 . S
H11 C17 0.930 . S
C12 H9 0.931 . S
C12 C13 1.413 . S
C12 C14 1.360 . S
C13 C12 1.413 . S
C13 C17 1.429 . S
C14 C12 1.360 . S
C14 C15 1.372 . S
C15 H10 0.928 . S
C15 C14 1.372 . S
C15 C16 1.404 . S
C16 C15 1.404 . S
C16 C17 1.391 . S
C17 H11 0.930 . S
C17 C13 1.429 . S
C17 C16 1.391 . S
H18 C21 0.931 . S
H19 C24 0.928 . S
H20 C26 0.930 . S
C21 H18 0.931 . S
C21 C22 1.413 . S
C21 C23 1.360 . S
C22 C21 1.413 . S
C22 C26 1.429 . S
C23 C21 1.360 . S
C23 C24 1.372 . S
C24 H19 0.928 . S
C24 C23 1.372 . S
C24 C25 1.404 . S
C25 C24 1.404 . S
C25 C26 1.391 . S
C26 H20 0.930 . S
C26 C22 1.429 . S
C26 C25 1.391 . S
H27 C30 0.931 . S
H28 C33 0.928 . S
H29 C35 0.930 . S
C30 H27 0.931 . S
C30 C31 1.413 . S
C30 C32 1.360 . S
C31 C30 1.413 . S
C31 C35 1.429 . S
C32 C30 1.360 . S
C32 C33 1.372 . S
C33 H28 0.928 . S
C33 C32 1.372 . S
C33 C34 1.404 . S
C34 C33 1.404 . S
C34 C35 1.391 . S
C35 H29 0.930 . S
C35 C31 1.429 . S
C35 C34 1.391 . S
H36 C39 0.931 . S
H37 C42 0.928 . S
H38 C44 0.930 . S
C39 H36 0.931 . S
C39 C40 1.413 . S
C39 C41 1.360 . S
C40 C39 1.413 . S
C40 C44 1.429 . S
C41 C39 1.360 . S
C41 C42 1.372 . S
C42 H37 0.928 . S
C42 C41 1.372 . S
C42 C43 1.404 . S
C43 C42 1.404 . S
C43 C44 1.391 . S
C44 H38 0.930 . S
C44 C40 1.429 . S
C44 C43 1.391 . S
H45 C48 0.931 . S
H46 C51 0.928 . S
H47 C53 0.930 . S
C48 H45 0.931 . S
C48 C49 1.413 . S
C48 C50 1.360 . S
C49 C48 1.413 . S
C49 C53 1.429 . S
C50 C48 1.360 . S
C50 C51 1.372 . S
C51 H46 0.928 . S
C51 C50 1.372 . S
C51 C52 1.404 . S
C52 C51 1.404 . S
C52 C53 1.391 . S
C53 H47 0.930 . S
C53 C49 1.429 . S
C53 C52 1.391 . S
H54 C57 0.931 . S
H55 C60 0.928 . S
H56 C62 0.930 . S
C57 H54 0.931 . S
C57 C58 1.413 . S
C57 C59 1.360 . S
C58 C57 1.413 . S
C58 C62 1.429 . S
C59 C57 1.360 . S
C59 C60 1.372 . S
C60 H55 0.928 . S
C60 C59 1.372 . S
C60 C61 1.404 . S
C61 C60 1.404 . S
C61 C62 1.391 . S
C62 H56 0.930 . S
C62 C58 1.429 . S
C62 C61 1.391 . S
H63 C66 0.931 . S
H64 C69 0.928 . S
H65 C71 0.930 . S
C66 H63 0.931 . S
C66 C67 1.413 . S
C66 C68 1.360 . S
C67 C66 1.413 . S
C67 C71 1.429 . S
C68 C66 1.360 . S
C68 C69 1.372 . S
C69 H64 0.928 . S
C69 C68 1.372 . S
C69 C70 1.404 . S
C70 C69 1.404 . S
C70 C71 1.391 . S
C71 H65 0.930 . S
C71 C67 1.429 . S
C71 C70 1.391 . S
Tb72 C74 2.809 1_545 S
Tb72 O92 2.484 1_545 S
Tb72 O93 2.440 1_545 S
Tb72 O94 2.658 1_655 S
Tb72 O95 2.409 . S
Tb72 O96 2.378 1_645 S
Tb72 O100 2.325 1_545 S
Tb72 O103 2.341 . S
Tb73 C83 2.809 . S
Tb73 O94 2.325 . S
Tb73 O97 2.341 1_545 S
Tb73 O98 2.484 . S
Tb73 O99 2.440 . S
Tb73 O100 2.658 1_445 S
Tb73 O101 2.409 1_545 S
Tb73 O102 2.378 . S
C74 Tb72 2.809 1_565 S
C74 C75 1.514 . S
C74 O92 1.248 . S
C74 O93 1.266 . S
C75 C74 1.514 . S
C75 C76 1.359 . S
C75 C80 1.348 . S
C76 C75 1.359 . S
C76 C77 1.380 . S
C76 H104 0.929 . S
C77 C76 1.380 . S
C77 C78 1.347 . S
C77 H105 0.931 . S
C78 C77 1.347 . S
C78 C79 1.369 . S
C79 C78 1.369 . S
C79 C80 1.408 . S
C79 H106 0.930 . S
C80 C75 1.348 . S
C80 C79 1.408 . S
C80 H107 0.930 . S
C81 O94 1.281 . S
C81 O95 1.254 1_455 S
C82 O96 1.236 . S
C82 O97 1.266 . S
C83 Tb73 2.809 . S
C83 C84 1.514 . S
C83 O98 1.248 . S
C83 O99 1.266 . S
C84 C83 1.514 . S
C84 C85 1.359 . S
C84 C89 1.348 . S
C85 C84 1.359 . S
C85 C86 1.380 . S
C85 H108 0.929 . S
C86 C85 1.380 . S
C86 C87 1.347 . S
C86 H109 0.931 . S
C87 C86 1.347 . S
C87 C88 1.369 . S
C88 C87 1.369 . S
C88 C89 1.408 . S
C88 H110 0.930 . S
C89 C84 1.348 . S
C89 C88 1.408 . S
C89 H111 0.930 . S
C90 O100 1.281 . S
C90 O101 1.254 1_655 S
C91 O102 1.236 1_655 S
C91 O103 1.266 . S
O92 Tb72 2.484 1_565 S
O92 C74 1.248 . S
O93 Tb72 2.440 1_565 S
O93 C74 1.266 . S
O94 Tb72 2.658 1_455 S
O94 Tb73 2.325 . S
O94 C81 1.281 . S
O95 Tb72 2.409 . S
O95 C81 1.254 1_655 S
O96 Tb72 2.378 1_465 S
O96 C82 1.236 . S
O97 Tb73 2.341 1_565 S
O97 C82 1.266 . S
O98 Tb73 2.484 . S
O98 C83 1.248 . S
O99 Tb73 2.440 . S
O99 C83 1.266 . S
O100 Tb72 2.325 1_565 S
O100 Tb73 2.658 1_665 S
O100 C90 1.281 . S
O101 Tb73 2.409 1_565 S
O101 C90 1.254 1_455 S
O102 Tb73 2.378 . S
O102 C91 1.236 1_455 S
O103 Tb72 2.341 . S
O103 C91 1.266 . S
H104 C76 0.929 . S
H105 C77 0.931 . S
H106 C79 0.930 . S
H107 C80 0.930 . S
H108 C85 0.929 . S
H109 C86 0.931 . S
H110 C88 0.930 . S
H111 C89 0.930 . S
Tb112 C114 2.809 . S
Tb112 O132 2.484 . S
Tb112 O133 2.440 . S
Tb112 O134 2.658 1_545 S
Tb112 O135 2.409 1_545 S
Tb112 O136 2.378 . S
Tb112 O140 2.325 1_554 S
Tb112 O143 2.341 1_544 S
Tb113 C123 2.809 . S
Tb113 O134 2.325 1_556 S
Tb113 O137 2.341 1_566 S
Tb113 O138 2.484 . S
Tb113 O139 2.440 . S
Tb113 O140 2.658 1_565 S
Tb113 O141 2.409 1_565 S
Tb113 O142 2.378 . S
C114 Tb112 2.809 . S
C114 C115 1.514 . S
C114 O132 1.248 . S
C114 O133 1.266 . S
C115 C114 1.514 . S
C115 C116 1.359 . S
C115 C120 1.348 . S
C116 C115 1.359 . S
C116 C117 1.380 . S
C116 H144 0.929 . S
C117 C116 1.380 . S
C117 C118 1.347 . S
C117 H145 0.931 . S
C118 C117 1.347 . S
C118 C119 1.369 . S
C119 C118 1.369 . S
C119 C120 1.408 . S
C119 H146 0.930 . S
C120 C115 1.348 . S
C120 C119 1.408 . S
C120 H147 0.930 . S
C121 O134 1.281 . S
C121 O135 1.254 . S
C122 O136 1.236 . S
C122 O137 1.266 . S
C123 Tb113 2.809 . S
C123 C124 1.514 . S
C123 O138 1.248 . S
C123 O139 1.266 . S
C124 C123 1.514 . S
C124 C125 1.359 . S
C124 C129 1.348 . S
C125 C124 1.359 . S
C125 C126 1.380 . S
C125 H148 0.929 . S
C126 C125 1.380 . S
C126 C127 1.347 . S
C126 H149 0.931 . S
C127 C126 1.347 . S
C127 C128 1.369 . S
C128 C127 1.369 . S
C128 C129 1.408 . S
C128 H150 0.930 . S
C129 C124 1.348 . S
C129 C128 1.408 . S
C129 H151 0.930 . S
C130 O140 1.281 . S
C130 O141 1.254 . S
C131 O142 1.236 . S
C131 O143 1.266 . S
O132 Tb112 2.484 . S
O132 C114 1.248 . S
O133 Tb112 2.440 . S
O133 C114 1.266 . S
O134 Tb112 2.658 1_565 S
O134 Tb113 2.325 1_554 S
O134 C121 1.281 . S
O135 Tb112 2.409 1_565 S
O135 C121 1.254 . S
O136 Tb112 2.378 . S
O136 C122 1.236 . S
O137 Tb113 2.341 1_544 S
O137 C122 1.266 . S
O138 Tb113 2.484 . S
O138 C123 1.248 . S
O139 Tb113 2.440 . S
O139 C123 1.266 . S
O140 Tb112 2.325 1_556 S
O140 Tb113 2.658 1_545 S
O140 C130 1.281 . S
O141 Tb113 2.409 1_545 S
O141 C130 1.254 . S
O142 Tb113 2.378 . S
O142 C131 1.236 . S
O143 Tb112 2.341 1_566 S
O143 C131 1.266 . S
H144 C116 0.929 . S
H145 C117 0.931 . S
H146 C119 0.930 . S
H147 C120 0.930 . S
H148 C125 0.929 . S
H149 C126 0.931 . S
H150 C128 0.930 . S
H151 C129 0.930 . S
Tb152 C154 2.809 . S
Tb152 O172 2.484 . S
Tb152 O173 2.440 . S
Tb152 O174 2.658 . S
Tb152 O175 2.409 . S
Tb152 O176 2.378 . S
Tb152 O180 2.325 . S
Tb152 O183 2.341 . S
Tb153 C163 2.809 . S
Tb153 O174 2.325 . S
Tb153 O177 2.341 . S
Tb153 O178 2.484 . S
Tb153 O179 2.440 . S
Tb153 O180 2.658 . S
Tb153 O181 2.409 . S
Tb153 O182 2.378 . S
C154 Tb152 2.809 . S
C154 C155 1.514 . S
C154 O172 1.248 . S
C154 O173 1.266 . S
C155 C154 1.514 . S
C155 C156 1.359 . S
C155 C160 1.348 . S
C156 C155 1.359 . S
C156 C157 1.380 . S
C156 H184 0.929 . S
C157 C156 1.380 . S
C157 C158 1.347 . S
C157 H185 0.931 . S
C158 C157 1.347 . S
C158 C159 1.369 . S
C159 C158 1.369 . S
C159 C160 1.408 . S
C159 H186 0.930 . S
C160 C155 1.348 . S
C160 C159 1.408 . S
C160 H187 0.930 . S
C161 O174 1.281 . S
C161 O175 1.254 . S
C162 O176 1.236 . S
C162 O177 1.266 . S
C163 Tb153 2.809 . S
C163 C164 1.514 . S
C163 O178 1.248 . S
C163 O179 1.266 . S
C164 C163 1.514 . S
C164 C165 1.359 . S
C164 C169 1.348 . S
C165 C164 1.359 . S
C165 C166 1.380 . S
C165 H188 0.929 . S
C166 C165 1.380 . S
C166 C167 1.347 . S
C166 H189 0.931 . S
C167 C166 1.347 . S
C167 C168 1.369 . S
C168 C167 1.369 . S
C168 C169 1.408 . S
C168 H190 0.930 . S
C169 C164 1.348 . S
C169 C168 1.408 . S
C169 H191 0.930 . S
C170 O180 1.281 . S
C170 O181 1.254 . S
C171 O182 1.236 . S
C171 O183 1.266 . S
O172 Tb152 2.484 . S
O172 C154 1.248 . S
O173 Tb152 2.440 . S
O173 C154 1.266 . S
O174 Tb152 2.658 . S
O174 Tb153 2.325 . S
O174 C161 1.281 . S
O175 Tb152 2.409 . S
O175 C161 1.254 . S
O176 Tb152 2.378 . S
O176 C162 1.236 . S
O177 Tb153 2.341 . S
O177 C162 1.266 . S
O178 Tb153 2.484 . S
O178 C163 1.248 . S
O179 Tb153 2.440 . S
O179 C163 1.266 . S
O180 Tb152 2.325 . S
O180 Tb153 2.658 . S
O180 C170 1.281 . S
O181 Tb153 2.409 . S
O181 C170 1.254 . S
O182 Tb153 2.378 . S
O182 C171 1.236 . S
O183 Tb152 2.341 . S
O183 C171 1.266 . S
H184 C156 0.929 . S
H185 C157 0.931 . S
H186 C159 0.930 . S
H187 C160 0.930 . S
H188 C165 0.929 . S
H189 C166 0.931 . S
H190 C168 0.930 . S
H191 C169 0.930 . S
Tb192 C194 2.809 . S
Tb192 O212 2.484 . S
Tb192 O213 2.440 . S
Tb192 O214 2.658 1_656 S
Tb192 O215 2.409 1_656 S
Tb192 O216 2.378 1_556 S
Tb192 O220 2.325 . S
Tb192 O223 2.341 1_655 S
Tb193 C203 2.809 . S
Tb193 O214 2.325 . S
Tb193 O217 2.341 1_455 S
Tb193 O218 2.484 . S
Tb193 O219 2.440 . S
Tb193 O220 2.658 1_454 S
Tb193 O221 2.409 1_455 S
Tb193 O222 2.378 1_554 S
C194 Tb192 2.809 . S
C194 C195 1.514 . S
C194 O212 1.248 . S
C194 O213 1.266 . S
C195 C194 1.514 . S
C195 C196 1.359 . S
C195 C200 1.348 . S
C196 C195 1.359 . S
C196 C197 1.380 . S
C196 H224 0.929 . S
C197 C196 1.380 . S
C197 C198 1.347 . S
C197 H225 0.931 . S
C198 C197 1.347 . S
C198 C199 1.369 . S
C199 C198 1.369 . S
C199 C200 1.408 . S
C199 H226 0.930 . S
C200 C195 1.348 . S
C200 C199 1.408 . S
C200 H227 0.930 . S
C201 O214 1.281 . S
C201 O215 1.254 . S
C202 O216 1.236 . S
C202 O217 1.266 . S
C203 Tb193 2.809 . S
C203 C204 1.514 . S
C203 O218 1.248 . S
C203 O219 1.266 . S
C204 C203 1.514 . S
C204 C205 1.359 . S
C204 C209 1.348 . S
C205 C204 1.359 . S
C205 C206 1.380 . S
C205 H228 0.929 . S
C206 C205 1.380 . S
C206 C207 1.347 . S
C206 H229 0.931 . S
C207 C206 1.347 . S
C207 C208 1.369 . S
C208 C207 1.369 . S
C208 C209 1.408 . S
C208 H230 0.930 . S
C209 C204 1.348 . S
C209 C208 1.408 . S
C209 H231 0.930 . S
C210 O220 1.281 . S
C210 O221 1.254 1_556 S
C211 O222 1.236 . S
C211 O223 1.266 . S
O212 Tb192 2.484 . S
O212 C194 1.248 . S
O213 Tb192 2.440 . S
O213 C194 1.266 . S
O214 Tb192 2.658 1_454 S
O214 Tb193 2.325 . S
O214 C201 1.281 . S
O215 Tb192 2.409 1_454 S
O215 C201 1.254 . S
O216 Tb192 2.378 1_554 S
O216 C202 1.236 . S
O217 Tb193 2.341 1_655 S
O217 C202 1.266 . S
O218 Tb193 2.484 . S
O218 C203 1.248 . S
O219 Tb193 2.440 . S
O219 C203 1.266 . S
O220 Tb192 2.325 . S
O220 Tb193 2.658 1_656 S
O220 C210 1.281 . S
O221 Tb193 2.409 1_655 S
O221 C210 1.254 1_554 S
O222 Tb193 2.378 1_556 S
O222 C211 1.236 . S
O223 Tb192 2.341 1_455 S
O223 C211 1.266 . S
H224 C196 0.929 . S
H225 C197 0.931 . S
H226 C199 0.930 . S
H227 C200 0.930 . S
H228 C205 0.929 . S
H229 C206 0.931 . S
H230 C208 0.930 . S
H231 C209 0.930 . S
C232 C233 1.391 . S
C232 C234 1.394 . S
C232 H248 0.931 . S
C233 C232 1.391 . S
C233 C237 1.376 . S
C234 C232 1.394 . S
C234 C235 1.369 . S
C234 C238 1.531 . S
C235 C234 1.369 . S
C235 C236 1.410 . S
C235 C243 1.503 . S
C236 C235 1.410 . S
C236 C237 1.392 . S
C236 C239 1.511 . S
C237 C233 1.376 . S
C237 C236 1.392 . S
C237 H249 0.929 . S
C238 C234 1.531 . S
C238 H250 0.960 . S
C238 H251 0.962 . S
C238 H252 0.960 . S
C239 C236 1.511 . S
C239 H253 0.961 . S
C239 H254 0.961 . S
C239 H255 0.961 . S
C240 C241 1.370 . S
C240 C242 1.363 . S
C240 H256 0.931 . S
C241 C240 1.370 . S
C241 C245 1.408 . S
C242 C240 1.363 . S
C242 C243 1.370 . S
C242 C246 1.524 . S
C243 C235 1.503 . S
C243 C242 1.370 . S
C243 C244 1.403 . S
C244 C243 1.403 . S
C244 C245 1.404 . S
C244 C247 1.539 . S
C245 C241 1.408 . S
C245 C244 1.404 . S
C245 H257 0.930 . S
C246 C242 1.524 . S
C246 H258 0.956 . S
C246 H259 0.961 . S
C246 H260 0.961 . S
C247 C244 1.539 . S
C247 H261 0.958 . S
C247 H262 0.961 . S
C247 H263 0.960 . S
H248 C232 0.931 . S
H249 C237 0.929 . S
H250 C238 0.960 . S
H251 C238 0.962 . S
H252 C238 0.960 . S
H253 C239 0.961 . S
H254 C239 0.961 . S
H255 C239 0.961 . S
H256 C240 0.931 . S
H257 C245 0.930 . S
H258 C246 0.956 . S
H259 C246 0.961 . S
H260 C246 0.961 . S
H261 C247 0.958 . S
H262 C247 0.961 . S
H263 C247 0.960 . S
C264 C265 1.391 . S
C264 C266 1.394 . S
C264 H280 0.931 . S
C265 C264 1.391 . S
C265 C269 1.376 . S
C266 C264 1.394 . S
C266 C267 1.369 . S
C266 C270 1.531 . S
C267 C266 1.369 . S
C267 C268 1.410 . S
C267 C275 1.503 . S
C268 C267 1.410 . S
C268 C269 1.392 . S
C268 C271 1.511 . S
C269 C265 1.376 . S
C269 C268 1.392 . S
C269 H281 0.929 . S
C270 C266 1.531 . S
C270 H282 0.960 . S
C270 H283 0.962 . S
C270 H284 0.960 . S
C271 C268 1.511 . S
C271 H285 0.961 . S
C271 H286 0.961 . S
C271 H287 0.961 . S
C272 C273 1.370 . S
C272 C274 1.363 . S
C272 H288 0.931 . S
C273 C272 1.370 . S
C273 C277 1.408 . S
C274 C272 1.363 . S
C274 C275 1.370 . S
C274 C278 1.524 . S
C275 C267 1.503 . S
C275 C274 1.370 . S
C275 C276 1.403 . S
C276 C275 1.403 . S
C276 C277 1.404 . S
C276 C279 1.539 . S
C277 C273 1.408 . S
C277 C276 1.404 . S
C277 H289 0.930 . S
C278 C274 1.524 . S
C278 H290 0.956 . S
C278 H291 0.961 . S
C278 H292 0.961 . S
C279 C276 1.539 . S
C279 H293 0.958 . S
C279 H294 0.961 . S
C279 H295 0.960 . S
H280 C264 0.931 . S
H281 C269 0.929 . S
H282 C270 0.960 . S
H283 C270 0.962 . S
H284 C270 0.960 . S
H285 C271 0.961 . S
H286 C271 0.961 . S
H287 C271 0.961 . S
H288 C272 0.931 . S
H289 C277 0.930 . S
H290 C278 0.956 . S
H291 C278 0.961 . S
H292 C278 0.961 . S
H293 C279 0.958 . S
H294 C279 0.961 . S
H295 C279 0.960 . S
C296 C297 1.391 . S
C296 C298 1.394 . S
C296 H312 0.931 . S
C297 C296 1.391 . S
C297 C301 1.376 . S
C298 C296 1.394 . S
C298 C299 1.369 . S
C298 C302 1.531 . S
C299 C298 1.369 . S
C299 C300 1.410 . S
C299 C307 1.503 . S
C300 C299 1.410 . S
C300 C301 1.392 . S
C300 C303 1.511 . S
C301 C297 1.376 . S
C301 C300 1.392 . S
C301 H313 0.929 . S
C302 C298 1.531 . S
C302 H314 0.960 . S
C302 H315 0.962 . S
C302 H316 0.960 . S
C303 C300 1.511 . S
C303 H317 0.961 . S
C303 H318 0.961 . S
C303 H319 0.961 . S
C304 C305 1.370 . S
C304 C306 1.363 . S
C304 H320 0.931 . S
C305 C304 1.370 . S
C305 C309 1.408 . S
C306 C304 1.363 . S
C306 C307 1.370 . S
C306 C310 1.524 . S
C307 C299 1.503 . S
C307 C306 1.370 . S
C307 C308 1.403 . S
C308 C307 1.403 . S
C308 C309 1.404 . S
C308 C311 1.539 . S
C309 C305 1.408 . S
C309 C308 1.404 . S
C309 H321 0.930 . S
C310 C306 1.524 . S
C310 H322 0.956 . S
C310 H323 0.961 . S
C310 H324 0.961 . S
C311 C308 1.539 . S
C311 H325 0.958 . S
C311 H326 0.961 . S
C311 H327 0.960 . S
H312 C296 0.931 . S
H313 C301 0.929 . S
H314 C302 0.960 . S
H315 C302 0.962 . S
H316 C302 0.960 . S
H317 C303 0.961 . S
H318 C303 0.961 . S
H319 C303 0.961 . S
H320 C304 0.931 . S
H321 C309 0.930 . S
H322 C310 0.956 . S
H323 C310 0.961 . S
H324 C310 0.961 . S
H325 C311 0.958 . S
H326 C311 0.961 . S
H327 C311 0.960 . S
C328 C329 1.391 . S
C328 C330 1.394 . S
C328 H344 0.931 . S
C329 C328 1.391 . S
C329 C333 1.376 . S
C330 C328 1.394 . S
C330 C331 1.369 . S
C330 C334 1.531 . S
C331 C330 1.369 . S
C331 C332 1.410 . S
C331 C339 1.503 . S
C332 C331 1.410 . S
C332 C333 1.392 . S
C332 C335 1.511 . S
C333 C329 1.376 . S
C333 C332 1.392 . S
C333 H345 0.929 . S
C334 C330 1.531 . S
C334 H346 0.960 . S
C334 H347 0.962 . S
C334 H348 0.960 . S
C335 C332 1.511 . S
C335 H349 0.961 . S
C335 H350 0.961 . S
C335 H351 0.961 . S
C336 C337 1.370 . S
C336 C338 1.363 . S
C336 H352 0.931 . S
C337 C336 1.370 . S
C337 C341 1.408 . S
C338 C336 1.363 . S
C338 C339 1.370 . S
C338 C342 1.524 . S
C339 C331 1.503 . S
C339 C338 1.370 . S
C339 C340 1.403 . S
C340 C339 1.403 . S
C340 C341 1.404 . S
C340 C343 1.539 . S
C341 C337 1.408 . S
C341 C340 1.404 . S
C341 H353 0.930 . S
C342 C338 1.524 . S
C342 H354 0.956 . S
C342 H355 0.961 . S
C342 H356 0.961 . S
C343 C340 1.539 . S
C343 H357 0.958 . S
C343 H358 0.961 . S
C343 H359 0.960 . S
H344 C328 0.931 . S
H345 C333 0.929 . S
H346 C334 0.960 . S
H347 C334 0.962 . S
H348 C334 0.960 . S
H349 C335 0.961 . S
H350 C335 0.961 . S
H351 C335 0.961 . S
H352 C336 0.931 . S
H353 C341 0.930 . S
H354 C342 0.956 . S
H355 C342 0.961 . S
H356 C342 0.961 . S
H357 C343 0.958 . S
H358 C343 0.961 . S
H359 C343 0.960 . S
C360 C361 1.391 . S
C360 C362 1.394 . S
C360 H376 0.931 . S
C361 C360 1.391 . S
C361 C365 1.376 . S
C362 C360 1.394 . S
C362 C363 1.369 . S
C362 C366 1.531 . S
C363 C362 1.369 . S
C363 C364 1.410 . S
C363 C371 1.503 . S
C364 C363 1.410 . S
C364 C365 1.392 . S
C364 C367 1.511 . S
C365 C361 1.376 . S
C365 C364 1.392 . S
C365 H377 0.929 . S
C366 C362 1.531 . S
C366 H378 0.960 . S
C366 H379 0.962 . S
C366 H380 0.960 . S
C367 C364 1.511 . S
C367 H381 0.961 . S
C367 H382 0.961 . S
C367 H383 0.961 . S
C368 C369 1.370 . S
C368 C370 1.363 . S
C368 H384 0.931 . S
C369 C368 1.370 . S
C369 C373 1.408 . S
C370 C368 1.363 . S
C370 C371 1.370 . S
C370 C374 1.524 . S
C371 C363 1.503 . S
C371 C370 1.370 . S
C371 C372 1.403 . S
C372 C371 1.403 . S
C372 C373 1.404 . S
C372 C375 1.539 . S
C373 C369 1.408 . S
C373 C372 1.404 . S
C373 H385 0.930 . S
C374 C370 1.524 . S
C374 H386 0.956 . S
C374 H387 0.961 . S
C374 H388 0.961 . S
C375 C372 1.539 . S
C375 H389 0.958 . S
C375 H390 0.961 . S
C375 H391 0.960 . S
H376 C360 0.931 . S
H377 C365 0.929 . S
H378 C366 0.960 . S
H379 C366 0.962 . S
H380 C366 0.960 . S
H381 C367 0.961 . S
H382 C367 0.961 . S
H383 C367 0.961 . S
H384 C368 0.931 . S
H385 C373 0.930 . S
H386 C374 0.956 . S
H387 C374 0.961 . S
H388 C374 0.961 . S
H389 C375 0.958 . S
H390 C375 0.961 . S
H391 C375 0.960 . S
C392 C393 1.391 . S
C392 C394 1.394 . S
C392 H408 0.931 . S
C393 C392 1.391 . S
C393 C397 1.376 . S
C394 C392 1.394 . S
C394 C395 1.369 . S
C394 C398 1.531 1_455 S
C395 C394 1.369 . S
C395 C396 1.410 . S
C395 C403 1.503 . S
C396 C395 1.410 . S
C396 C397 1.392 . S
C396 C399 1.511 . S
C397 C393 1.376 . S
C397 C396 1.392 . S
C397 H409 0.929 . S
C398 C394 1.531 1_655 S
C398 H410 0.960 . S
C398 H411 0.962 . S
C398 H412 0.960 . S
C399 C396 1.511 . S
C399 H413 0.961 . S
C399 H414 0.961 . S
C399 H415 0.961 . S
C400 C401 1.370 . S
C400 C402 1.363 . S
C400 H416 0.931 . S
C401 C400 1.370 . S
C401 C405 1.408 . S
C402 C400 1.363 . S
C402 C403 1.370 . S
C402 C406 1.524 . S
C403 C395 1.503 . S
C403 C402 1.370 . S
C403 C404 1.403 . S
C404 C403 1.403 . S
C404 C405 1.404 . S
C404 C407 1.539 . S
C405 C401 1.408 . S
C405 C404 1.404 . S
C405 H417 0.930 . S
C406 C402 1.524 . S
C406 H418 0.956 . S
C406 H419 0.961 . S
C406 H420 0.961 . S
C407 C404 1.539 . S
C407 H421 0.958 1_455 S
C407 H422 0.961 . S
C407 H423 0.960 . S
H408 C392 0.931 . S
H409 C397 0.929 . S
H410 C398 0.960 . S
H411 C398 0.962 . S
H412 C398 0.960 . S
H413 C399 0.961 . S
H414 C399 0.961 . S
H415 C399 0.961 . S
H416 C400 0.931 . S
H417 C405 0.930 . S
H418 C406 0.956 . S
H419 C406 0.961 . S
H420 C406 0.961 . S
H421 C407 0.958 1_655 S
H422 C407 0.961 . S
H423 C407 0.960 . S
C424 C425 1.391 . S
C424 C426 1.394 . S
C424 H440 0.931 . S
C425 C424 1.391 . S
C425 C429 1.376 . S
C426 C424 1.394 . S
C426 C427 1.369 . S
C426 C430 1.531 . S
C427 C426 1.369 . S
C427 C428 1.410 . S
C427 C435 1.503 . S
C428 C427 1.410 . S
C428 C429 1.392 . S
C428 C431 1.511 . S
C429 C425 1.376 . S
C429 C428 1.392 . S
C429 H441 0.929 . S
C430 C426 1.531 . S
C430 H442 0.960 . S
C430 H443 0.962 . S
C430 H444 0.960 . S
C431 C428 1.511 . S
C431 H445 0.961 . S
C431 H446 0.961 . S
C431 H447 0.961 . S
C432 C433 1.370 . S
C432 C434 1.363 . S
C432 H448 0.931 . S
C433 C432 1.370 . S
C433 C437 1.408 . S
C434 C432 1.363 . S
C434 C435 1.370 . S
C434 C438 1.524 . S
C435 C427 1.503 . S
C435 C434 1.370 . S
C435 C436 1.403 . S
C436 C435 1.403 . S
C436 C437 1.404 . S
C436 C439 1.539 . S
C437 C433 1.408 . S
C437 C436 1.404 . S
C437 H449 0.930 . S
C438 C434 1.524 . S
C438 H450 0.956 . S
C438 H451 0.961 . S
C438 H452 0.961 . S
C439 C436 1.539 . S
C439 H453 0.958 . S
C439 H454 0.961 . S
C439 H455 0.960 . S
H440 C424 0.931 . S
H441 C429 0.929 . S
H442 C430 0.960 . S
H443 C430 0.962 . S
H444 C430 0.960 . S
H445 C431 0.961 . S
H446 C431 0.961 . S
H447 C431 0.961 . S
H448 C432 0.931 . S
H449 C437 0.930 . S
H450 C438 0.956 . S
H451 C438 0.961 . S
H452 C438 0.961 . S
H453 C439 0.958 . S
H454 C439 0.961 . S
H455 C439 0.960 . S
C456 C457 1.391 . S
C456 C458 1.394 . S
C456 H472 0.931 . S
C457 C456 1.391 . S
C457 C461 1.376 . S
C458 C456 1.394 . S
C458 C459 1.369 . S
C458 C462 1.531 . S
C459 C458 1.369 . S
C459 C460 1.410 . S
C459 C467 1.503 . S
C460 C459 1.410 . S
C460 C461 1.392 . S
C460 C463 1.511 . S
C461 C457 1.376 . S
C461 C460 1.392 . S
C461 H473 0.929 . S
C462 C458 1.531 . S
C462 H474 0.960 . S
C462 H475 0.962 . S
C462 H476 0.960 . S
C463 C460 1.511 . S
C463 H477 0.961 . S
C463 H478 0.961 . S
C463 H479 0.961 . S
C464 C465 1.370 . S
C464 C466 1.363 . S
C464 H480 0.931 . S
C465 C464 1.370 . S
C465 C469 1.408 . S
C466 C464 1.363 . S
C466 C467 1.370 . S
C466 C470 1.524 . S
C467 C459 1.503 . S
C467 C466 1.370 . S
C467 C468 1.403 . S
C468 C467 1.403 . S
C468 C469 1.404 . S
C468 C471 1.539 . S
C469 C465 1.408 . S
C469 C468 1.404 . S
C469 H481 0.930 . S
C470 C466 1.524 . S
C470 H482 0.956 . S
C470 H483 0.961 . S
C470 H484 0.961 . S
C471 C468 1.539 . S
C471 H485 0.958 . S
C471 H486 0.961 . S
C471 H487 0.960 . S
H472 C456 0.931 . S
H473 C461 0.929 . S
H474 C462 0.960 . S
H475 C462 0.962 . S
H476 C462 0.960 . S
H477 C463 0.961 . S
H478 C463 0.961 . S
H479 C463 0.961 . S
H480 C464 0.931 . S
H481 C469 0.930 . S
H482 C470 0.956 . S
H483 C470 0.961 . S
H484 C470 0.961 . S
H485 C471 0.958 . S
H486 C471 0.961 . S
H487 C471 0.960 . S
C488 C489 1.391 . S
C488 C490 1.394 . S
C488 H504 0.931 . S
C489 C488 1.391 . S
C489 C493 1.376 . S
C490 C488 1.394 . S
C490 C491 1.369 . S
C490 C494 1.531 . S
C491 C490 1.369 . S
C491 C492 1.410 . S
C491 C499 1.503 . S
C492 C491 1.410 . S
C492 C493 1.392 . S
C492 C495 1.511 . S
C493 C489 1.376 . S
C493 C492 1.392 . S
C493 H505 0.929 . S
C494 C490 1.531 . S
C494 H506 0.960 . S
C494 H507 0.962 . S
C494 H508 0.960 . S
C495 C492 1.511 . S
C495 H509 0.961 . S
C495 H510 0.961 . S
C495 H511 0.961 . S
C496 C497 1.370 . S
C496 C498 1.363 . S
C496 H512 0.931 . S
C497 C496 1.370 . S
C497 C501 1.408 . S
C498 C496 1.363 . S
C498 C499 1.370 . S
C498 C502 1.524 . S
C499 C491 1.503 . S
C499 C498 1.370 . S
C499 C500 1.403 . S
C500 C499 1.403 . S
C500 C501 1.404 . S
C500 C503 1.539 . S
C501 C497 1.408 . S
C501 C500 1.404 . S
C501 H513 0.930 . S
C502 C498 1.524 . S
C502 H514 0.956 . S
C502 H515 0.961 . S
C502 H516 0.961 . S
C503 C500 1.539 . S
C503 H517 0.958 . S
C503 H518 0.961 . S
C503 H519 0.960 . S
H504 C488 0.931 . S
H505 C493 0.929 . S
H506 C494 0.960 . S
H507 C494 0.962 . S
H508 C494 0.960 . S
H509 C495 0.961 . S
H510 C495 0.961 . S
H511 C495 0.961 . S
H512 C496 0.931 . S
H513 C501 0.930 . S
H514 C502 0.956 . S
H515 C502 0.961 . S
H516 C502 0.961 . S
H517 C503 0.958 . S
H518 C503 0.961 . S
H519 C503 0.960 . S
C520 C521 1.391 . S
C520 C522 1.394 . S
C520 H536 0.931 . S
C521 C520 1.391 . S
C521 C525 1.376 . S
C522 C520 1.394 . S
C522 C523 1.369 . S
C522 C526 1.531 . S
C523 C522 1.369 . S
C523 C524 1.410 . S
C523 C531 1.503 . S
C524 C523 1.410 . S
C524 C525 1.392 . S
C524 C527 1.511 . S
C525 C521 1.376 . S
C525 C524 1.392 . S
C525 H537 0.929 . S
C526 C522 1.531 . S
C526 H538 0.960 . S
C526 H539 0.962 . S
C526 H540 0.960 . S
C527 C524 1.511 . S
C527 H541 0.961 . S
C527 H542 0.961 . S
C527 H543 0.961 . S
C528 C529 1.370 . S
C528 C530 1.363 . S
C528 H544 0.931 . S
C529 C528 1.370 . S
C529 C533 1.408 . S
C530 C528 1.363 . S
C530 C531 1.370 . S
C530 C534 1.524 . S
C531 C523 1.503 . S
C531 C530 1.370 . S
C531 C532 1.403 . S
C532 C531 1.403 . S
C532 C533 1.404 . S
C532 C535 1.539 . S
C533 C529 1.408 . S
C533 C532 1.404 . S
C533 H545 0.930 . S
C534 C530 1.524 . S
C534 H546 0.956 . S
C534 H547 0.961 . S
C534 H548 0.961 . S
C535 C532 1.539 . S
C535 H549 0.958 . S
C535 H550 0.961 . S
C535 H551 0.960 . S
H536 C520 0.931 . S
H537 C525 0.929 . S
H538 C526 0.960 . S
H539 C526 0.962 . S
H540 C526 0.960 . S
H541 C527 0.961 . S
H542 C527 0.961 . S
H543 C527 0.961 . S
H544 C528 0.931 . S
H545 C533 0.930 . S
H546 C534 0.956 . S
H547 C534 0.961 . S
H548 C534 0.961 . S
H549 C535 0.958 . S
H550 C535 0.961 . S
H551 C535 0.960 . S
C552 C553 1.391 . S
C552 C554 1.394 . S
C552 H568 0.931 . S
C553 C552 1.391 . S
C553 C557 1.376 . S
C554 C552 1.394 . S
C554 C555 1.369 . S
C554 C558 1.531 . S
C555 C554 1.369 . S
C555 C556 1.410 . S
C555 C563 1.503 . S
C556 C555 1.410 . S
C556 C557 1.392 . S
C556 C559 1.511 . S
C557 C553 1.376 . S
C557 C556 1.392 . S
C557 H569 0.929 . S
C558 C554 1.531 . S
C558 H570 0.960 . S
C558 H571 0.962 . S
C558 H572 0.960 . S
C559 C556 1.511 . S
C559 H573 0.961 . S
C559 H574 0.961 . S
C559 H575 0.961 . S
C560 C561 1.370 . S
C560 C562 1.363 . S
C560 H576 0.931 . S
C561 C560 1.370 . S
C561 C565 1.408 . S
C562 C560 1.363 . S
C562 C563 1.370 . S
C562 C566 1.524 . S
C563 C555 1.503 . S
C563 C562 1.370 . S
C563 C564 1.403 . S
C564 C563 1.403 . S
C564 C565 1.404 . S
C564 C567 1.539 . S
C565 C561 1.408 . S
C565 C564 1.404 . S
C565 H577 0.930 . S
C566 C562 1.524 . S
C566 H578 0.956 . S
C566 H579 0.961 . S
C566 H580 0.961 . S
C567 C564 1.539 . S
C567 H581 0.958 . S
C567 H582 0.961 . S
C567 H583 0.960 . S
H568 C552 0.931 . S
H569 C557 0.929 . S
H570 C558 0.960 . S
H571 C558 0.962 . S
H572 C558 0.960 . S
H573 C559 0.961 . S
H574 C559 0.961 . S
H575 C559 0.961 . S
H576 C560 0.931 . S
H577 C565 0.930 . S
H578 C566 0.956 . S
H579 C566 0.961 . S
H580 C566 0.961 . S
H581 C567 0.958 . S
H582 C567 0.961 . S
H583 C567 0.960 . S
C584 C585 1.391 . S
C584 C586 1.394 . S
C584 H600 0.931 . S
C585 C584 1.391 . S
C585 C589 1.376 . S
C586 C584 1.394 . S
C586 C587 1.369 . S
C586 C590 1.531 . S
C587 C586 1.369 . S
C587 C588 1.410 . S
C587 C595 1.503 . S
C588 C587 1.410 . S
C588 C589 1.392 . S
C588 C591 1.511 . S
C589 C585 1.376 . S
C589 C588 1.392 . S
C589 H601 0.929 . S
C590 C586 1.531 . S
C590 H602 0.960 . S
C590 H603 0.962 . S
C590 H604 0.960 . S
C591 C588 1.511 . S
C591 H605 0.961 . S
C591 H606 0.961 . S
C591 H607 0.961 . S
C592 C593 1.370 . S
C592 C594 1.363 . S
C592 H608 0.931 . S
C593 C592 1.370 . S
C593 C597 1.408 . S
C594 C592 1.363 . S
C594 C595 1.370 . S
C594 C598 1.524 . S
C595 C587 1.503 . S
C595 C594 1.370 . S
C595 C596 1.403 . S
C596 C595 1.403 . S
C596 C597 1.404 . S
C596 C599 1.539 . S
C597 C593 1.408 . S
C597 C596 1.404 . S
C597 H609 0.930 . S
C598 C594 1.524 . S
C598 H610 0.956 . S
C598 H611 0.961 . S
C598 H612 0.961 . S
C599 C596 1.539 . S
C599 H613 0.958 . S
C599 H614 0.961 . S
C599 H615 0.960 . S
H600 C584 0.931 . S
H601 C589 0.929 . S
H602 C590 0.960 . S
H603 C590 0.962 . S
H604 C590 0.960 . S
H605 C591 0.961 . S
H606 C591 0.961 . S
H607 C591 0.961 . S
H608 C592 0.931 . S
H609 C597 0.930 . S
H610 C598 0.956 . S
H611 C598 0.961 . S
H612 C598 0.961 . S
H613 C599 0.958 . S
H614 C599 0.961 . S
H615 C599 0.960 . S
C616 C617 1.391 . S
C616 C618 1.394 . S
C616 H632 0.931 . S
C617 C616 1.391 . S
C617 C621 1.376 . S
C618 C616 1.394 . S
C618 C619 1.369 . S
C618 C622 1.531 . S
C619 C618 1.369 . S
C619 C620 1.410 . S
C619 C627 1.503 . S
C620 C619 1.410 . S
C620 C621 1.392 . S
C620 C623 1.511 . S
C621 C617 1.376 . S
C621 C620 1.392 . S
C621 H633 0.929 . S
C622 C618 1.531 . S
C622 H634 0.960 . S
C622 H635 0.962 . S
C622 H636 0.960 . S
C623 C620 1.511 . S
C623 H637 0.961 . S
C623 H638 0.961 . S
C623 H639 0.961 . S
C624 C625 1.370 . S
C624 C626 1.363 . S
C624 H640 0.931 . S
C625 C624 1.370 . S
C625 C629 1.408 . S
C626 C624 1.363 . S
C626 C627 1.370 . S
C626 C630 1.524 . S
C627 C619 1.503 . S
C627 C626 1.370 . S
C627 C628 1.403 . S
C628 C627 1.403 . S
C628 C629 1.404 . S
C628 C631 1.539 . S
C629 C625 1.408 . S
C629 C628 1.404 . S
C629 H641 0.930 . S
C630 C626 1.524 . S
C630 H642 0.956 . S
C630 H643 0.961 . S
C630 H644 0.961 . S
C631 C628 1.539 . S
C631 H645 0.958 . S
C631 H646 0.961 . S
C631 H647 0.960 . S
H632 C616 0.931 . S
H633 C621 0.929 . S
H634 C622 0.960 . S
H635 C622 0.962 . S
H636 C622 0.960 . S
H637 C623 0.961 . S
H638 C623 0.961 . S
H639 C623 0.961 . S
H640 C624 0.931 . S
H641 C629 0.930 . S
H642 C630 0.956 . S
H643 C630 0.961 . S
H644 C630 0.961 . S
H645 C631 0.958 . S
H646 C631 0.961 . S
H647 C631 0.960 . S
C648 C649 1.391 . S
C648 C650 1.394 . S
C648 H664 0.931 . S
C649 C648 1.391 . S
C649 C653 1.376 . S
C650 C648 1.394 . S
C650 C651 1.369 . S
C650 C654 1.531 . S
C651 C650 1.369 . S
C651 C652 1.410 . S
C651 C659 1.503 . S
C652 C651 1.410 . S
C652 C653 1.392 . S
C652 C655 1.511 . S
C653 C649 1.376 . S
C653 C652 1.392 . S
C653 H665 0.929 . S
C654 C650 1.531 . S
C654 H666 0.960 . S
C654 H667 0.962 . S
C654 H668 0.960 . S
C655 C652 1.511 . S
C655 H669 0.961 . S
C655 H670 0.961 . S
C655 H671 0.961 . S
C656 C657 1.370 . S
C656 C658 1.363 . S
C656 H672 0.931 . S
C657 C656 1.370 . S
C657 C661 1.408 . S
C658 C656 1.363 . S
C658 C659 1.370 . S
C658 C662 1.524 . S
C659 C651 1.503 . S
C659 C658 1.370 . S
C659 C660 1.403 . S
C660 C659 1.403 . S
C660 C661 1.404 . S
C660 C663 1.539 . S
C661 C657 1.408 . S
C661 C660 1.404 . S
C661 H673 0.930 . S
C662 C658 1.524 . S
C662 H674 0.956 . S
C662 H675 0.961 . S
C662 H676 0.961 . S
C663 C660 1.539 . S
C663 H677 0.958 . S
C663 H678 0.961 . S
C663 H679 0.960 . S
H664 C648 0.931 . S
H665 C653 0.929 . S
H666 C654 0.960 . S
H667 C654 0.962 . S
H668 C654 0.960 . S
H669 C655 0.961 . S
H670 C655 0.961 . S
H671 C655 0.961 . S
H672 C656 0.931 . S
H673 C661 0.930 . S
H674 C662 0.956 . S
H675 C662 0.961 . S
H676 C662 0.961 . S
H677 C663 0.958 . S
H678 C663 0.961 . S
H679 C663 0.960 . S
C680 C681 1.391 . S
C680 C682 1.394 . S
C680 H696 0.931 . S
C681 C680 1.391 . S
C681 C685 1.376 . S
C682 C680 1.394 . S
C682 C683 1.369 . S
C682 C686 1.531 . S
C683 C682 1.369 . S
C683 C684 1.410 . S
C683 C691 1.503 . S
C684 C683 1.410 . S
C684 C685 1.392 . S
C684 C687 1.511 . S
C685 C681 1.376 . S
C685 C684 1.392 . S
C685 H697 0.929 . S
C686 C682 1.531 . S
C686 H698 0.960 . S
C686 H699 0.962 . S
C686 H700 0.960 . S
C687 C684 1.511 . S
C687 H701 0.961 . S
C687 H702 0.961 . S
C687 H703 0.961 . S
C688 C689 1.370 . S
C688 C690 1.363 . S
C688 H704 0.931 . S
C689 C688 1.370 . S
C689 C693 1.408 . S
C690 C688 1.363 . S
C690 C691 1.370 . S
C690 C694 1.524 . S
C691 C683 1.503 . S
C691 C690 1.370 . S
C691 C692 1.403 . S
C692 C691 1.403 . S
C692 C693 1.404 . S
C692 C695 1.539 . S
C693 C689 1.408 . S
C693 C692 1.404 . S
C693 H705 0.930 . S
C694 C690 1.524 . S
C694 H706 0.956 . S
C694 H707 0.961 . S
C694 H708 0.961 . S
C695 C692 1.539 . S
C695 H709 0.958 . S
C695 H710 0.961 . S
C695 H711 0.960 . S
H696 C680 0.931 . S
H697 C685 0.929 . S
H698 C686 0.960 . S
H699 C686 0.962 . S
H700 C686 0.960 . S
H701 C687 0.961 . S
H702 C687 0.961 . S
H703 C687 0.961 . S
H704 C688 0.931 . S
H705 C693 0.930 . S
H706 C694 0.956 . S
H707 C694 0.961 . S
H708 C694 0.961 . S
H709 C695 0.958 . S
H710 C695 0.961 . S
H711 C695 0.960 . S
C712 C713 1.391 . S
C712 C714 1.394 . S
C712 H728 0.931 . S
C713 C712 1.391 . S
C713 C717 1.376 . S
C714 C712 1.394 . S
C714 C715 1.369 . S
C714 C718 1.531 . S
C715 C714 1.369 . S
C715 C716 1.410 . S
C715 C723 1.503 . S
C716 C715 1.410 . S
C716 C717 1.392 . S
C716 C719 1.511 . S
C717 C713 1.376 . S
C717 C716 1.392 . S
C717 H729 0.929 . S
C718 C714 1.531 . S
C718 H730 0.960 . S
C718 H731 0.962 . S
C718 H732 0.960 . S
C719 C716 1.511 . S
C719 H733 0.961 . S
C719 H734 0.961 . S
C719 H735 0.961 . S
C720 C721 1.370 . S
C720 C722 1.363 . S
C720 H736 0.931 . S
C721 C720 1.370 . S
C721 C725 1.408 . S
C722 C720 1.363 . S
C722 C723 1.370 . S
C722 C726 1.524 . S
C723 C715 1.503 . S
C723 C722 1.370 . S
C723 C724 1.403 . S
C724 C723 1.403 . S
C724 C725 1.404 . S
C724 C727 1.539 . S
C725 C721 1.408 . S
C725 C724 1.404 . S
C725 H737 0.930 . S
C726 C722 1.524 . S
C726 H738 0.956 . S
C726 H739 0.961 . S
C726 H740 0.961 . S
C727 C724 1.539 . S
C727 H741 0.958 . S
C727 H742 0.961 . S
C727 H743 0.960 . S
H728 C712 0.931 . S
H729 C717 0.929 . S
H730 C718 0.960 . S
H731 C718 0.962 . S
H732 C718 0.960 . S
H733 C719 0.961 . S
H734 C719 0.961 . S
H735 C719 0.961 . S
H736 C720 0.931 . S
H737 C725 0.930 . S
H738 C726 0.956 . S
H739 C726 0.961 . S
H740 C726 0.961 . S
H741 C727 0.958 . S
H742 C727 0.961 . S
H743 C727 0.960 . S
C744 C745 1.391 . S
C744 C746 1.394 . S
C744 H760 0.931 . S
C745 C744 1.391 . S
C745 C749 1.376 . S
C746 C744 1.394 . S
C746 C747 1.369 . S
C746 C750 1.531 . S
C747 C746 1.369 . S
C747 C748 1.410 . S
C747 C755 1.503 . S
C748 C747 1.410 . S
C748 C749 1.392 . S
C748 C751 1.511 . S
C749 C745 1.376 . S
C749 C748 1.392 . S
C749 H761 0.929 . S
C750 C746 1.531 . S
C750 H762 0.960 . S
C750 H763 0.962 . S
C750 H764 0.960 . S
C751 C748 1.511 . S
C751 H765 0.961 . S
C751 H766 0.961 . S
C751 H767 0.961 . S
C752 C753 1.370 . S
C752 C754 1.363 . S
C752 H768 0.931 . S
C753 C752 1.370 . S
C753 C757 1.408 . S
C754 C752 1.363 . S
C754 C755 1.370 . S
C754 C758 1.524 . S
C755 C747 1.503 . S
C755 C754 1.370 . S
C755 C756 1.403 . S
C756 C755 1.403 . S
C756 C757 1.404 . S
C756 C759 1.539 . S
C757 C753 1.408 . S
C757 C756 1.404 . S
C757 H769 0.930 . S
C758 C754 1.524 . S
C758 H770 0.956 . S
C758 H771 0.961 . S
C758 H772 0.961 . S
C759 C756 1.539 . S
C759 H773 0.958 . S
C759 H774 0.961 . S
C759 H775 0.960 . S
H760 C744 0.931 . S
H761 C749 0.929 . S
H762 C750 0.960 . S
H763 C750 0.962 . S
H764 C750 0.960 . S
H765 C751 0.961 . S
H766 C751 0.961 . S
H767 C751 0.961 . S
H768 C752 0.931 . S
H769 C757 0.930 . S
H770 C758 0.956 . S
H771 C758 0.961 . S
H772 C758 0.961 . S
H773 C759 0.958 . S
H774 C759 0.961 . S
H775 C759 0.960 . S
C776 C777 1.391 . S
C776 C778 1.394 . S
C776 H792 0.931 . S
C777 C776 1.391 . S
C777 C781 1.376 . S
C778 C776 1.394 . S
C778 C779 1.369 . S
C778 C782 1.531 . S
C779 C778 1.369 . S
C779 C780 1.410 . S
C779 C787 1.503 . S
C780 C779 1.410 . S
C780 C781 1.392 . S
C780 C783 1.511 1_655 S
C781 C777 1.376 . S
C781 C780 1.392 . S
C781 H793 0.929 . S
C782 C778 1.531 . S
C782 H794 0.960 . S
C782 H795 0.962 . S
C782 H796 0.960 . S
C783 C780 1.511 1_455 S
C783 H797 0.961 . S
C783 H798 0.961 . S
C783 H799 0.961 . S
C784 C785 1.370 . S
C784 C786 1.363 . S
C784 H800 0.931 . S
C785 C784 1.370 . S
C785 C789 1.408 . S
C786 C784 1.363 . S
C786 C787 1.370 . S
C786 C790 1.524 . S
C787 C779 1.503 . S
C787 C786 1.370 . S
C787 C788 1.403 . S
C788 C787 1.403 . S
C788 C789 1.404 . S
C788 C791 1.539 . S
C789 C785 1.408 . S
C789 C788 1.404 . S
C789 H801 0.930 . S
C790 C786 1.524 . S
C790 H802 0.956 . S
C790 H803 0.961 . S
C790 H804 0.961 . S
C791 C788 1.539 . S
C791 H805 0.958 . S
C791 H806 0.961 . S
C791 H807 0.960 . S
H792 C776 0.931 . S
H793 C781 0.929 . S
H794 C782 0.960 . S
H795 C782 0.962 . S
H796 C782 0.960 . S
H797 C783 0.961 . S
H798 C783 0.961 . S
H799 C783 0.961 . S
H800 C784 0.931 . S
H801 C789 0.930 . S
H802 C790 0.956 . S
H803 C790 0.961 . S
H804 C790 0.961 . S
H805 C791 0.958 . S
H806 C791 0.961 . S
H807 C791 0.960 . S
C808 C809 1.391 . S
C808 C810 1.394 . S
C808 H824 0.931 . S
C809 C808 1.391 . S
C809 C813 1.376 . S
C810 C808 1.394 . S
C810 C811 1.369 . S
C810 C814 1.531 . S
C811 C810 1.369 . S
C811 C812 1.410 . S
C811 C819 1.503 . S
C812 C811 1.410 . S
C812 C813 1.392 . S
C812 C815 1.511 . S
C813 C809 1.376 . S
C813 C812 1.392 . S
C813 H825 0.929 . S
C814 C810 1.531 . S
C814 H826 0.960 . S
C814 H827 0.962 . S
C814 H828 0.960 . S
C815 C812 1.511 . S
C815 H829 0.961 . S
C815 H830 0.961 . S
C815 H831 0.961 . S
C816 C817 1.370 . S
C816 C818 1.363 . S
C816 H832 0.931 . S
C817 C816 1.370 . S
C817 C821 1.408 . S
C818 C816 1.363 . S
C818 C819 1.370 . S
C818 C822 1.524 . S
C819 C811 1.503 . S
C819 C818 1.370 . S
C819 C820 1.403 . S
C820 C819 1.403 . S
C820 C821 1.404 . S
C820 C823 1.539 . S
C821 C817 1.408 . S
C821 C820 1.404 . S
C821 H833 0.930 . S
C822 C818 1.524 . S
C822 H834 0.956 . S
C822 H835 0.961 . S
C822 H836 0.961 . S
C823 C820 1.539 . S
C823 H837 0.958 . S
C823 H838 0.961 . S
C823 H839 0.960 . S
H824 C808 0.931 . S
H825 C813 0.929 . S
H826 C814 0.960 . S
H827 C814 0.962 . S
H828 C814 0.960 . S
H829 C815 0.961 . S
H830 C815 0.961 . S
H831 C815 0.961 . S
H832 C816 0.931 . S
H833 C821 0.930 . S
H834 C822 0.956 . S
H835 C822 0.961 . S
H836 C822 0.961 . S
H837 C823 0.958 . S
H838 C823 0.961 . S
H839 C823 0.960 . S
C840 C841 1.391 . S
C840 C842 1.394 . S
C840 H856 0.931 . S
C841 C840 1.391 . S
C841 C845 1.376 . S
C842 C840 1.394 . S
C842 C843 1.369 . S
C842 C846 1.531 . S
C843 C842 1.369 . S
C843 C844 1.410 . S
C843 C851 1.503 . S
C844 C843 1.410 . S
C844 C845 1.392 . S
C844 C847 1.511 . S
C845 C841 1.376 . S
C845 C844 1.392 . S
C845 H857 0.929 . S
C846 C842 1.531 . S
C846 H858 0.960 . S
C846 H859 0.962 . S
C846 H860 0.960 . S
C847 C844 1.511 . S
C847 H861 0.961 . S
C847 H862 0.961 . S
C847 H863 0.961 . S
C848 C849 1.370 . S
C848 C850 1.363 . S
C848 H864 0.931 . S
C849 C848 1.370 . S
C849 C853 1.408 . S
C850 C848 1.363 . S
C850 C851 1.370 . S
C850 C854 1.524 . S
C851 C843 1.503 . S
C851 C850 1.370 . S
C851 C852 1.403 . S
C852 C851 1.403 . S
C852 C853 1.404 . S
C852 C855 1.539 . S
C853 C849 1.408 . S
C853 C852 1.404 . S
C853 H865 0.930 . S
C854 C850 1.524 . S
C854 H866 0.956 . S
C854 H867 0.961 . S
C854 H868 0.961 . S
C855 C852 1.539 . S
C855 H869 0.958 . S
C855 H870 0.961 . S
C855 H871 0.960 . S
H856 C840 0.931 . S
H857 C845 0.929 . S
H858 C846 0.960 . S
H859 C846 0.962 . S
H860 C846 0.960 . S
H861 C847 0.961 . S
H862 C847 0.961 . S
H863 C847 0.961 . S
H864 C848 0.931 . S
H865 C853 0.930 . S
H866 C854 0.956 . S
H867 C854 0.961 . S
H868 C854 0.961 . S
H869 C855 0.958 . S
H870 C855 0.961 . S
H871 C855 0.960 . S
C872 C873 1.391 . S
C872 C874 1.394 . S
C872 H888 0.931 . S
C873 C872 1.391 . S
C873 C877 1.376 . S
C874 C872 1.394 . S
C874 C875 1.369 . S
C874 C878 1.531 . S
C875 C874 1.369 . S
C875 C876 1.410 . S
C875 C883 1.503 . S
C876 C875 1.410 . S
C876 C877 1.392 . S
C876 C879 1.511 . S
C877 C873 1.376 . S
C877 C876 1.392 . S
C877 H889 0.929 . S
C878 C874 1.531 . S
C878 H890 0.960 . S
C878 H891 0.962 . S
C878 H892 0.960 . S
C879 C876 1.511 . S
C879 H893 0.961 . S
C879 H894 0.961 . S
C879 H895 0.961 . S
C880 C881 1.370 . S
C880 C882 1.363 . S
C880 H896 0.931 . S
C881 C880 1.370 . S
C881 C885 1.408 . S
C882 C880 1.363 . S
C882 C883 1.370 . S
C882 C886 1.524 . S
C883 C875 1.503 . S
C883 C882 1.370 . S
C883 C884 1.403 . S
C884 C883 1.403 . S
C884 C885 1.404 . S
C884 C887 1.539 . S
C885 C881 1.408 . S
C885 C884 1.404 . S
C885 H897 0.930 . S
C886 C882 1.524 . S
C886 H898 0.956 . S
C886 H899 0.961 . S
C886 H900 0.961 . S
C887 C884 1.539 . S
C887 H901 0.958 . S
C887 H902 0.961 . S
C887 H903 0.960 . S
H888 C872 0.931 . S
H889 C877 0.929 . S
H890 C878 0.960 . S
H891 C878 0.962 . S
H892 C878 0.960 . S
H893 C879 0.961 . S
H894 C879 0.961 . S
H895 C879 0.961 . S
H896 C880 0.931 . S
H897 C885 0.930 . S
H898 C886 0.956 . S
H899 C886 0.961 . S
H900 C886 0.961 . S
H901 C887 0.958 . S
H902 C887 0.961 . S
H903 C887 0.960 . S
C904 C905 1.391 . S
C904 C906 1.394 . S
C904 H920 0.931 . S
C905 C904 1.391 . S
C905 C909 1.376 . S
C906 C904 1.394 . S
C906 C907 1.369 . S
C906 C910 1.531 . S
C907 C906 1.369 . S
C907 C908 1.410 . S
C907 C915 1.503 . S
C908 C907 1.410 . S
C908 C909 1.392 . S
C908 C911 1.511 . S
C909 C905 1.376 . S
C909 C908 1.392 . S
C909 H921 0.929 . S
C910 C906 1.531 . S
C910 H922 0.960 . S
C910 H923 0.962 . S
C910 H924 0.960 . S
C911 C908 1.511 . S
C911 H925 0.961 . S
C911 H926 0.961 . S
C911 H927 0.961 . S
C912 C913 1.370 . S
C912 C914 1.363 . S
C912 H928 0.931 . S
C913 C912 1.370 . S
C913 C917 1.408 . S
C914 C912 1.363 . S
C914 C915 1.370 . S
C914 C918 1.524 . S
C915 C907 1.503 . S
C915 C914 1.370 . S
C915 C916 1.403 . S
C916 C915 1.403 . S
C916 C917 1.404 . S
C916 C919 1.539 . S
C917 C913 1.408 . S
C917 C916 1.404 . S
C917 H929 0.930 . S
C918 C914 1.524 . S
C918 H930 0.956 . S
C918 H931 0.961 . S
C918 H932 0.961 . S
C919 C916 1.539 . S
C919 H933 0.958 . S
C919 H934 0.961 . S
C919 H935 0.960 . S
H920 C904 0.931 . S
H921 C909 0.929 . S
H922 C910 0.960 . S
H923 C910 0.962 . S
H924 C910 0.960 . S
H925 C911 0.961 . S
H926 C911 0.961 . S
H927 C911 0.961 . S
H928 C912 0.931 . S
H929 C917 0.930 . S
H930 C918 0.956 . S
H931 C918 0.961 . S
H932 C918 0.961 . S
H933 C919 0.958 . S
H934 C919 0.961 . S
H935 C919 0.960 . S
C936 C937 1.391 . S
C936 C938 1.394 . S
C936 H952 0.931 . S
C937 C936 1.391 . S
C937 C941 1.376 . S
C938 C936 1.394 . S
C938 C939 1.369 . S
C938 C942 1.531 . S
C939 C938 1.369 . S
C939 C940 1.410 . S
C939 C947 1.503 . S
C940 C939 1.410 . S
C940 C941 1.392 . S
C940 C943 1.511 . S
C941 C937 1.376 . S
C941 C940 1.392 . S
C941 H953 0.929 . S
C942 C938 1.531 . S
C942 H954 0.960 . S
C942 H955 0.962 . S
C942 H956 0.960 . S
C943 C940 1.511 . S
C943 H957 0.961 . S
C943 H958 0.961 . S
C943 H959 0.961 . S
C944 C945 1.370 . S
C944 C946 1.363 . S
C944 H960 0.931 . S
C945 C944 1.370 . S
C945 C949 1.408 . S
C946 C944 1.363 . S
C946 C947 1.370 . S
C946 C950 1.524 . S
C947 C939 1.503 . S
C947 C946 1.370 . S
C947 C948 1.403 . S
C948 C947 1.403 . S
C948 C949 1.404 . S
C948 C951 1.539 . S
C949 C945 1.408 . S
C949 C948 1.404 . S
C949 H961 0.930 . S
C950 C946 1.524 . S
C950 H962 0.956 . S
C950 H963 0.961 . S
C950 H964 0.961 . S
C951 C948 1.539 . S
C951 H965 0.958 . S
C951 H966 0.961 . S
C951 H967 0.960 . S
H952 C936 0.931 . S
H953 C941 0.929 . S
H954 C942 0.960 . S
H955 C942 0.962 . S
H956 C942 0.960 . S
H957 C943 0.961 . S
H958 C943 0.961 . S
H959 C943 0.961 . S
H960 C944 0.931 . S
H961 C949 0.930 . S
H962 C950 0.956 . S
H963 C950 0.961 . S
H964 C950 0.961 . S
H965 C951 0.958 . S
H966 C951 0.961 . S
H967 C951 0.960 . S
C968 C969 1.391 . S
C968 C970 1.394 . S
C968 H984 0.931 . S
C969 C968 1.391 . S
C969 C973 1.376 . S
C970 C968 1.394 . S
C970 C971 1.369 . S
C970 C974 1.531 . S
C971 C970 1.369 . S
C971 C972 1.410 . S
C971 C979 1.503 . S
C972 C971 1.410 . S
C972 C973 1.392 . S
C972 C975 1.511 . S
C973 C969 1.376 . S
C973 C972 1.392 . S
C973 H985 0.929 . S
C974 C970 1.531 . S
C974 H986 0.960 . S
C974 H987 0.962 . S
C974 H988 0.960 . S
C975 C972 1.511 . S
C975 H989 0.961 . S
C975 H990 0.961 . S
C975 H991 0.961 . S
C976 C977 1.370 . S
C976 C978 1.363 . S
C976 H992 0.931 . S
C977 C976 1.370 . S
C977 C981 1.408 . S
C978 C976 1.363 . S
C978 C979 1.370 . S
C978 C982 1.524 . S
C979 C971 1.503 . S
C979 C978 1.370 . S
C979 C980 1.403 . S
C980 C979 1.403 . S
C980 C981 1.404 . S
C980 C983 1.539 . S
C981 C977 1.408 . S
C981 C980 1.404 . S
C981 H993 0.930 . S
C982 C978 1.524 . S
C982 H994 0.956 . S
C982 H995 0.961 . S
C982 H996 0.961 . S
C983 C980 1.539 . S
C983 H997 0.958 . S
C983 H998 0.961 . S
C983 H999 0.960 . S
H984 C968 0.931 . S
H985 C973 0.929 . S
H986 C974 0.960 . S
H987 C974 0.962 . S
H988 C974 0.960 . S
H989 C975 0.961 . S
H990 C975 0.961 . S
H991 C975 0.961 . S
H992 C976 0.931 . S
H993 C981 0.930 . S
H994 C982 0.956 . S
H995 C982 0.961 . S
H996 C982 0.961 . S
H997 C983 0.958 . S
H998 C983 0.961 . S
H999 C983 0.960 . S
C233 C5 1.111 . S
C241 C87 1.155 . S
C265 C14 0.945 . S
C273 C127 1.010 . S
C305 C161 2.309 . S
C297 C25 2.336 . S
C329 C34 2.638 . S
C337 C202 2.571 . S
C369 C122 1.247 . S
C361 C7 1.234 . S
C401 C82 1.789 . S
C393 C13 1.713 . S
C433 C210 1.632 . S
C425 C23 1.625 . S
C465 C171 1.792 . S
C457 C31 1.833 . S
C489 C4 1.276 . S
C497 C207 1.240 . S
C529 C130 2.009 . S
C521 C22 2.069 . S
C553 C32 2.398 . S
C561 C90 2.322 . S
C585 C16 1.358 . S
C593 C158 1.398 . S
C625 C78 1.125 . S
C617 C41 1.137 . S
C649 C50 1.000 . S
C657 C118 1.017 . S
C681 C61 2.323 . S
C689 C170 2.298 . S
C713 C67 2.641 . S
C721 C211 2.581 . S
C745 C40 1.228 . S
C753 C131 1.265 . S
C785 C91 1.769 . S
C777 C52 1.681 . S
C817 C201 1.637 . S
C809 C59 1.635 . S
C849 C162 1.790 . S
C841 C70 1.843 . S
C873 C43 1.191 . S
C881 C198 1.260 . S
C913 C121 2.022 . S
C905 C58 2.086 . S
C945 C81 2.303 . S
C937 C68 2.392 . S
C969 C49 1.364 . S
C977 C167 1.406 . S
