# Generated by pormake.
# Topology anh, (6,3)-cn, num edge types: 1
# Building blocks:
#     Node 0, Type 0, BuildingBlock: BETDEL_clean_sbu_0, # of connection points: 6
#     Node 1, Type 0, BuildingBlock: BETDEL_clean_sbu_0, # of connection points: 6
#     Node 2, Type 0, BuildingBlock: BETDEL_clean_sbu_0, # of connection points: 6
#     Node 3, Type 1, BuildingBlock: BELTOD_clean_linker_0, # of connection points: 3
#     Node 4, Type 1, BuildingBlock: BELTOD_clean_linker_0, # of connection points: 3
#     Node 5, Type 1, BuildingBlock: BELTOD_clean_linker_0, # of connection points: 3
#     Node 6, Type 1, BuildingBlock: BELTOD_clean_linker_0, # of connection points: 3
#     Node 7, Type 1, BuildingBlock: BELTOD_clean_linker_0, # of connection points: 3
#     Node 8, Type 1, BuildingBlock: BELTOD_clean_linker_0, # of connection points: 3
#     Edge 9, Type (0, 1), BuildingBlock: XIVTED_clean_linker_0, # of connection points: 2
#     Edge 10, Type (0, 1), BuildingBlock: XIVTED_clean_linker_0, # of connection points: 2
#     Edge 11, Type (0, 1), BuildingBlock: XIVTED_clean_linker_0, # of connection points: 2
#     Edge 12, Type (0, 1), BuildingBlock: XIVTED_clean_linker_0, # of connection points: 2
#     Edge 13, Type (0, 1), BuildingBlock: XIVTED_clean_linker_0, # of connection points: 2
#     Edge 14, Type (0, 1), BuildingBlock: XIVTED_clean_linker_0, # of connection points: 2
#     Edge 15, Type (0, 1), BuildingBlock: XIVTED_clean_linker_0, # of connection points: 2
#     Edge 16, Type (0, 1), BuildingBlock: XIVTED_clean_linker_0, # of connection points: 2
#     Edge 17, Type (0, 1), BuildingBlock: XIVTED_clean_linker_0, # of connection points: 2
#     Edge 18, Type (0, 1), BuildingBlock: XIVTED_clean_linker_0, # of connection points: 2
#     Edge 19, Type (0, 1), BuildingBlock: XIVTED_clean_linker_0, # of connection points: 2
#     Edge 20, Type (0, 1), BuildingBlock: XIVTED_clean_linker_0, # of connection points: 2
#     Edge 21, Type (0, 1), BuildingBlock: XIVTED_clean_linker_0, # of connection points: 2
#     Edge 22, Type (0, 1), BuildingBlock: XIVTED_clean_linker_0, # of connection points: 2
#     Edge 23, Type (0, 1), BuildingBlock: XIVTED_clean_linker_0, # of connection points: 2
#     Edge 24, Type (0, 1), BuildingBlock: XIVTED_clean_linker_0, # of connection points: 2
#     Edge 25, Type (0, 1), BuildingBlock: XIVTED_clean_linker_0, # of connection points: 2
#     Edge 26, Type (0, 1), BuildingBlock: XIVTED_clean_linker_0, # of connection points: 2
# Relax obj value: 0.131
# Max RMSD: 0.159
# Mean RMSD: 0.124
data_MOF--net-anh--node1-BETDEL_clean_sbu_0--node2-BELTOD_clean_linker_0--edge1-XIVTED_clean_linker_0
_symmetry_space_group_name_H-M    P1
_symmetry_Int_Tables_number       1
_symmetry_cell_setting            triclinic
loop_
_symmetry_equiv_pos_as_xyz
'x, y, z'
_cell_length_a     33.900501
_cell_length_b     33.891455
_cell_length_c     58.980146
_cell_angle_alpha  90.245552
_cell_angle_beta   90.057317
_cell_angle_gamma 120.02363
loop_
_atom_site_label
_atom_site_type_symbol
_atom_site_fract_x
_atom_site_fract_y
_atom_site_fract_z
_atom_type_partial_charge
Dy0 Dy 0.04293 0.48945 0.16392 0.0
C1 C 0.93249 0.56727 0.18251 0.0
C2 C 0.10135 0.4598 0.15142 0.0
Dy3 Dy 0.993 0.53962 0.17072 0.0
O4 O 0.08369 0.45537 0.17136 0.0
O5 O 0.08663 0.47999 0.13803 0.0
O6 O 0.01707 0.4549 0.19716 0.0
O7 O 0.03288 0.52295 0.19353 0.0
C8 C 0.01689 0.4893 0.20674 0.0
C9 C 0.01903 0.53928 0.1279 0.0
O10 O 0.06176 0.59577 0.1815 0.0
O11 O 0.09946 0.56334 0.16372 0.0
O12 O 0.95955 0.58174 0.1652 0.0
O13 O 0.93953 0.53858 0.19382 0.0
O14 O 0.01902 0.57383 0.13735 0.0
O15 O 1.00263 0.5057 0.14114 0.0
O16 O 0.97357 0.43075 0.15625 0.0
O17 O 0.93605 0.4661 0.17118 0.0
C18 C 0.09973 0.59885 0.17352 0.0
C19 C 0.93578 0.42912 0.16346 0.0
Dy20 Dy 0.4675 0.03661 0.50084 0.0
C21 C 0.66164 0.14647 0.52179 0.0
C22 C 0.37862 0.97618 0.49091 0.0
Dy23 Dy 0.57561 0.09433 0.50525 0.0
O24 O 0.39587 0.98747 0.51112 0.0
O25 O 0.40999 0.99851 0.47585 0.0
O26 O 0.46355 0.05909 0.53634 0.0
O27 O 0.51871 0.05087 0.52682 0.0
C28 C 0.50253 0.06377 0.54247 0.0
C29 C 0.55006 0.0873 0.46143 0.0
O30 O 0.56422 0.02342 0.50843 0.0
O31 O 0.48706 0.982 0.49847 0.0
O32 O 0.64858 0.11167 0.50826 0.0
O33 O 0.62738 0.15213 0.52662 0.0
O34 O 0.59223 0.10966 0.4681 0.0
O35 O 0.52533 0.0713 0.47863 0.0
O36 O 0.47936 0.10719 0.49514 0.0
O37 O 0.552 0.14482 0.51143 0.0
C38 C 0.52662 0.98445 0.50333 0.0
C39 C 0.51483 0.14435 0.50379 0.0
Dy40 Dy 0.56455 0.58563 0.83155 0.0
C41 C 0.49104 0.39445 0.84442 0.0
C42 C 0.59344 0.67444 0.82142 0.0
Dy43 Dy 0.51601 0.48226 0.83377 0.0
O44 O 0.59185 0.65873 0.84161 0.0
O45 O 0.57956 0.64165 0.80661 0.0
O46 O 0.59322 0.58984 0.86634 0.0
O47 O 0.52824 0.53539 0.85792 0.0
C48 C 0.55893 0.55143 0.8729 0.0
C49 C 0.52234 0.51599 0.79213 0.0
O50 O 0.45708 0.49175 0.84281 0.0
O51 O 0.49019 0.56518 0.82861 0.0
O52 O 0.47732 0.40686 0.82669 0.0
O53 O 0.51751 0.43003 0.85661 0.0
O54 O 0.48832 0.47752 0.79877 0.0
O55 O 0.55281 0.53232 0.80725 0.0
O56 O 0.62557 0.57817 0.82552 0.0
O57 O 0.59032 0.50178 0.83547 0.0
C58 C 0.45406 0.52748 0.83608 0.0
C59 C 0.62744 0.54101 0.83052 0.0
P60 P 0.54465 0.98905 0.22385 0.0
H61 H 0.514 0.91182 0.19284 0.0
H62 H 0.43847 0.8531 0.18088 0.0
H63 H 0.38127 0.93075 0.20999 0.0
H64 H 0.45734 0.98868 0.22275 0.0
H65 H 0.64296 0.03024 0.22151 0.0
H66 H 0.70343 0.10138 0.20638 0.0
H67 H 0.60342 0.13392 0.18122 0.0
H68 H 0.54219 0.06152 0.19661 0.0
H69 H 0.51575 0.93729 0.26572 0.0
H70 H 0.54548 0.07012 0.24304 0.0
O71 O 0.56726 0.95571 0.2279 0.0
H72 H 0.50382 0.956 0.30415 0.0
H73 H 0.53245 0.08881 0.28135 0.0
C74 C 0.49138 0.9544 0.20899 0.0
C75 C 0.48538 0.91677 0.19625 0.0
C76 C 0.44184 0.88305 0.18932 0.0
C77 C 0.40313 0.8864 0.19475 0.0
C78 C 0.40989 0.92616 0.206 0.0
C79 C 0.45357 0.95977 0.21307 0.0
C80 C 0.58781 0.03987 0.20979 0.0
C81 C 0.63367 0.05201 0.21233 0.0
C82 C 0.66847 0.09295 0.20361 0.0
C83 C 0.6585 0.12341 0.19235 0.0
C84 C 0.61237 0.1113 0.18981 0.0
C85 C 0.57731 0.06978 0.19842 0.0
C86 C 0.53286 0.00278 0.25167 0.0
C87 C 0.51949 0.97047 0.26901 0.0
C88 C 0.51212 0.98104 0.29095 0.0
C89 C 0.51753 0.0241 0.29596 0.0
C90 C 0.52888 0.05567 0.27822 0.0
C91 C 0.53635 0.04503 0.25626 0.0
P92 P 0.58182 0.59064 0.54829 0.0
H93 H 0.5837 0.54965 0.50482 0.0
H94 H 0.55803 0.47033 0.4943 0.0
H95 H 0.48432 0.42548 0.5573 0.0
H96 H 0.50964 0.50427 0.56764 0.0
H97 H 0.63811 0.68819 0.54693 0.0
H98 H 0.62539 0.74957 0.5355 0.0
H99 H 0.48857 0.65104 0.51423 0.0
H100 H 0.50165 0.58901 0.52643 0.0
H101 H 0.63275 0.57965 0.58531 0.0
H102 H 0.51644 0.59811 0.57802 0.0
O103 O 0.6363 0.60754 0.54283 0.0
H104 H 0.62275 0.57471 0.62639 0.0
H105 H 0.50642 0.59364 0.61922 0.0
C106 C 0.54919 0.53321 0.53713 0.0
C107 C 0.56063 0.52264 0.51598 0.0
C108 C 0.54601 0.47722 0.51001 0.0
C109 C 0.5199 0.44166 0.52519 0.0
C110 C 0.50512 0.45216 0.54543 0.0
C111 C 0.51946 0.49743 0.5513 0.0
C112 C 0.5713 0.63399 0.53697 0.0
C113 C 0.60558 0.67959 0.53942 0.0
C114 C 0.59824 0.71484 0.53278 0.0
C115 C 0.55615 0.70554 0.52355 0.0
C116 C 0.52143 0.65956 0.52125 0.0
C117 C 0.52893 0.62402 0.528 0.0
C118 C 0.57588 0.59013 0.57867 0.0
C119 C 0.60548 0.58339 0.59259 0.0
C120 C 0.5998 0.5807 0.6161 0.0
C121 C 0.56398 0.58412 0.62611 0.0
C122 C 0.53424 0.59072 0.61204 0.0
C123 C 0.54013 0.59363 0.58851 0.0
P124 P 0.06813 0.58862 0.88413 0.0
H125 H 0.15287 0.64075 0.85889 0.0
H126 H 0.21045 0.62299 0.84641 0.0
H127 H 0.12266 0.48215 0.86512 0.0
H128 H 0.06526 0.50085 0.8783 0.0
H129 H 0.04421 0.63501 0.84997 0.0
H130 H 0.97145 0.62197 0.8353 0.0
H131 H 0.90247 0.4943 0.87146 0.0
H132 H 0.97605 0.50664 0.88497 0.0
H133 H 0.12476 0.57201 0.91572 0.0
H134 H 0.99495 0.5668 0.91724 0.0
O135 O 0.09616 0.64538 0.88623 0.0
H136 H 0.11785 0.5541 0.95612 0.0
H137 H 0.98741 0.54745 0.95744 0.0
C138 C 0.10483 0.57221 0.86972 0.0
C139 C 0.14548 0.60582 0.85996 0.0
C140 C 0.17852 0.59549 0.85269 0.0
C141 C 0.17164 0.55112 0.85489 0.0
C142 C 0.12959 0.51685 0.86352 0.0
C143 C 0.09645 0.52732 0.87081 0.0
C144 C 0.01547 0.57256 0.8692 0.0
C145 C 0.01351 0.60378 0.8544 0.0
C146 C 0.97163 0.59647 0.84622 0.0
C147 C 0.93055 0.55781 0.85277 0.0
C148 C 0.9331 0.52464 0.86608 0.0
C149 C 0.97527 0.53174 0.87397 0.0
C150 C 0.05936 0.56862 0.91304 0.0
C151 C 0.09405 0.56551 0.92447 0.0
C152 C 0.09031 0.55563 0.94762 0.0
C153 C 0.05179 0.54872 0.95978 0.0
C154 C 0.01694 0.55152 0.94832 0.0
C155 C 0.02111 0.56225 0.92526 0.0
P156 P 0.08488 0.51079 0.45007 0.0
H157 H 0.14607 0.57065 0.48532 0.0
H158 H 0.17717 0.65175 0.49334 0.0
H159 H 0.09071 0.65799 0.44129 0.0
H160 H 0.05942 0.57681 0.43351 0.0
H161 H 0.03412 0.41247 0.44673 0.0
H162 H 0.97067 0.35353 0.46807 0.0
H163 H 0.9738 0.45668 0.51272 0.0
H164 H 0.03627 0.51564 0.4906 0.0
H165 H 0.13937 0.54222 0.40923 0.0
H166 H 0.99656 0.46824 0.42615 0.0
O167 O 0.12977 0.50349 0.45297 0.0
H168 H 0.11979 0.53947 0.3691 0.0
H169 H 0.97676 0.46496 0.38601 0.0
C170 C 0.10143 0.56809 0.45845 0.0
C171 C 0.13332 0.58933 0.4759 0.0
C172 C 0.15083 0.63559 0.48054 0.0
C173 C 0.13669 0.66126 0.46774 0.0
C174 C 0.10268 0.63915 0.45117 0.0
C175 C 0.08483 0.59275 0.44672 0.0
C176 C 0.0394 0.46832 0.46689 0.0
C177 C 0.02113 0.42232 0.46115 0.0
C178 C 0.98514 0.38861 0.47356 0.0
C179 C 0.96708 0.40023 0.49223 0.0
C180 C 0.98642 0.44652 0.49829 0.0
C181 C 0.02229 0.48031 0.48568 0.0
C182 C 0.06948 0.50431 0.42055 0.0
C183 C 0.10382 0.52478 0.40425 0.0
C184 C 0.09259 0.52363 0.38139 0.0
C185 C 0.04675 0.50195 0.37447 0.0
C186 C 0.01236 0.48139 0.39086 0.0
C187 C 0.02366 0.48304 0.41378 0.0
P188 P 0.67449 0.13241 0.774 0.0
H189 H 0.69862 0.20863 0.80516 0.0
H190 H 0.65271 0.23342 0.82595 0.0
H191 H 0.53012 0.11272 0.8035 0.0
H192 H 0.5765 0.08857 0.78232 0.0
H193 H 0.72441 0.10086 0.80202 0.0
H194 H 0.7128 0.02494 0.8098 0.0
H195 H 0.58942 0.96501 0.76958 0.0
H196 H 0.6017 0.04098 0.76159 0.0
H197 H 0.6306 0.17673 0.75028 0.0
H198 H 0.68811 0.09217 0.73311 0.0
O199 O 0.72975 0.17017 0.7774 0.0
H200 H 0.60803 0.17491 0.71081 0.0
H201 H 0.66463 0.08918 0.69374 0.0
C202 C 0.64096 0.14677 0.79221 0.0
C203 C 0.66193 0.18705 0.80503 0.0
C204 C 0.63556 0.20103 0.81707 0.0
C205 C 0.58768 0.17502 0.8164 0.0
C206 C 0.56688 0.13367 0.80422 0.0
C207 C 0.59335 0.11968 0.79223 0.0
C208 C 0.66434 0.07649 0.78093 0.0
C209 C 0.69487 0.07135 0.79491 0.0
C210 C 0.68805 0.02793 0.79944 0.0
C211 C 0.65042 0.98898 0.79011 0.0
C212 C 0.6192 0.99436 0.77664 0.0
C213 C 0.62601 0.03775 0.77219 0.0
C214 C 0.65983 0.13342 0.74475 0.0
C215 C 0.63809 0.15746 0.73807 0.0
C216 C 0.6251 0.15634 0.71547 0.0
C217 C 0.63404 0.13149 0.69912 0.0
C218 C 0.65746 0.10892 0.70581 0.0
C219 C 0.67053 0.11021 0.72838 0.0
P220 P 0.48941 0.39521 0.1073 0.0
H221 H 0.53661 0.37056 0.14096 0.0
H222 H 0.60761 0.41504 0.1618 0.0
H223 H 0.62159 0.53886 0.13346 0.0
H224 H 0.55102 0.49369 0.11202 0.0
H225 H 0.40396 0.33738 0.13133 0.0
H226 H 0.338 0.34604 0.13938 0.0
H227 H 0.40824 0.48123 0.11066 0.0
H228 H 0.47353 0.4718 0.10217 0.0
H229 H 0.57384 0.43569 0.08048 0.0
H230 H 0.43079 0.38576 0.06904 0.0
O231 O 0.47343 0.34015 0.10959 0.0
H232 H 0.58938 0.45744 0.04061 0.0
H233 H 0.44609 0.40846 0.02948 0.0
C234 C 0.5388 0.42878 0.12476 0.0
C235 C 0.55467 0.40729 0.13938 0.0
C236 C 0.59517 0.43292 0.15151 0.0
C237 C 0.62049 0.48063 0.14931 0.0
C238 C 0.60328 0.50217 0.13535 0.0
C239 C 0.56276 0.47642 0.12319 0.0
C240 C 0.44348 0.40385 0.11605 0.0
C241 C 0.40531 0.36902 0.12696 0.0
C242 C 0.36768 0.3741 0.13163 0.0
C243 C 0.36771 0.41417 0.12546 0.0
C244 C 0.40682 0.44964 0.11526 0.0
C245 C 0.44439 0.44452 0.11064 0.0
C246 C 0.50136 0.41046 0.07789 0.0
C247 C 0.54584 0.42984 0.06947 0.0
C248 C 0.55468 0.44232 0.04666 0.0
C249 C 0.51905 0.43508 0.03186 0.0
C250 C 0.47433 0.41423 0.0403 0.0
C251 C 0.46557 0.40169 0.06303 0.0
H252 H 0.14973 0.47639 0.11205 0.0
H253 H 0.31107 0.38764 0.16235 0.0
H254 H 0.13381 0.41779 0.17852 0.0
H255 H 0.33061 0.4501 0.09659 0.0
H256 H 0.24335 0.39459 0.16764 0.0
H257 H 0.21326 0.46284 0.10495 0.0
C258 C 0.15937 0.46026 0.12504 0.0
C259 C 0.13674 0.44827 0.1459 0.0
C260 C 0.26242 0.40675 0.15203 0.0
C261 C 0.2093 0.43302 0.13806 0.0
C262 C 0.301 0.40263 0.14898 0.0
C263 C 0.32668 0.41848 0.12904 0.0
C264 C 0.24929 0.42682 0.13502 0.0
C265 C 0.31227 0.43809 0.11239 0.0
C266 C 0.19568 0.45269 0.12103 0.0
C267 C 0.15051 0.42762 0.16221 0.0
N268 N 0.27458 0.44173 0.11576 0.0
N269 N 0.18602 0.42082 0.15798 0.0
H270 H 0.73678 0.13917 0.51331 0.0
H271 H 0.8943 0.40507 0.50941 0.0
H272 H 0.69528 0.23162 0.53974 0.0
H273 H 0.94693 0.31297 0.50249 0.0
H274 H 0.82354 0.34266 0.52421 0.0
H275 H 0.81577 0.2016 0.51292 0.0
C276 C 0.74451 0.17244 0.5195 0.0
C277 C 0.70959 0.18055 0.52628 0.0
C278 C 0.85083 0.33624 0.51979 0.0
C279 C 0.79947 0.25223 0.52543 0.0
C280 C 0.89145 0.372 0.51141 0.0
C281 C 0.92653 0.36424 0.50428 0.0
C282 C 0.84488 0.29219 0.52077 0.0
C283 C 0.92039 0.32035 0.50711 0.0
C284 C 0.78957 0.20809 0.51925 0.0
C285 C 0.7213 0.22412 0.53422 0.0
N286 N 0.8801 0.28584 0.51477 0.0
N287 N 0.7652 0.25863 0.53315 0.0
H288 H 0.62366 0.74521 0.85121 0.0
H289 H 0.62411 0.91897 0.75962 0.0
H290 H 0.59103 0.71097 0.78055 0.0
H291 H 0.66229 0.95423 0.82979 0.0
H292 H 0.6128 0.84302 0.76672 0.0
H293 H 0.63986 0.82263 0.8434 0.0
C294 C 0.62018 0.75416 0.83401 0.0
C295 C 0.60593 0.7218 0.81649 0.0
C296 C 0.62375 0.86739 0.78056 0.0
C297 C 0.62406 0.81013 0.80743 0.0
C298 C 0.62992 0.91066 0.77655 0.0
C299 C 0.64398 0.94295 0.79417 0.0
C300 C 0.63155 0.8562 0.80236 0.0
C301 C 0.65181 0.93057 0.81566 0.0
C302 C 0.62937 0.79832 0.82956 0.0
C303 C 0.60194 0.73503 0.79452 0.0
N304 N 0.64533 0.88814 0.81917 0.0
N305 N 0.61077 0.77821 0.79061 0.0
H306 H 0.90983 0.62024 0.15736 0.0
H307 H 0.64882 0.46914 0.1913 0.0
H308 H 0.86149 0.52296 0.2119 0.0
H309 H 0.69758 0.55171 0.13109 0.0
H310 H 0.72739 0.50334 0.20491 0.0
H311 H 0.83401 0.61154 0.1541 0.0
C312 C 0.8835 0.59792 0.16904 0.0
C313 C 0.89157 0.57166 0.18465 0.0
C314 C 0.72076 0.51451 0.1889 0.0
C315 C 0.80463 0.56082 0.18074 0.0
C316 C 0.67593 0.49483 0.18106 0.0
C317 C 0.66653 0.50686 0.15979 0.0
C318 C 0.75651 0.5464 0.17538 0.0
C319 C 0.70299 0.54127 0.14757 0.0
C320 C 0.84016 0.59276 0.1671 0.0
C321 C 0.85645 0.54347 0.19947 0.0
N322 N 0.74635 0.5593 0.15538 0.0
N323 N 0.81419 0.53811 0.19688 0.0
H324 H 0.31168 0.92835 0.52138 0.0
H325 H 0.16896 0.72511 0.43419 0.0
H326 H 0.34223 0.93509 0.45005 0.0
H327 H 0.15973 0.71161 0.50697 0.0
H328 H 0.21886 0.80744 0.43868 0.0
H329 H 0.24253 0.8552 0.51504 0.0
C330 C 0.30333 0.91476 0.50429 0.0
C331 C 0.33291 0.93731 0.48624 0.0
C332 C 0.20534 0.78654 0.45365 0.0
C333 C 0.25423 0.85343 0.47892 0.0
C334 C 0.17662 0.73961 0.45112 0.0
C335 C 0.16062 0.71149 0.47027 0.0
C336 C 0.21797 0.80543 0.47549 0.0
C337 C 0.17196 0.73202 0.49178 0.0
C338 C 0.26394 0.87294 0.5007 0.0
C339 C 0.32039 0.91849 0.46443 0.0
N340 N 0.20027 0.7777 0.49381 0.0
N341 N 0.28221 0.87718 0.4614 0.0
H342 H 0.44301 0.31893 0.81794 0.0
H343 H 0.6002 0.21988 0.85704 0.0
H344 H 0.53329 0.36907 0.87573 0.0
H345 H 0.51262 0.17336 0.79812 0.0
H346 H 0.56326 0.2625 0.86927 0.0
H347 H 0.45404 0.25304 0.81602 0.0
C348 C 0.46428 0.31544 0.83057 0.0
C349 C 0.48794 0.34975 0.84676 0.0
C350 C 0.55156 0.2423 0.85387 0.0
C351 C 0.50153 0.27514 0.84441 0.0
C352 C 0.57278 0.21811 0.84684 0.0
C353 C 0.56007 0.19366 0.82631 0.0
C354 C 0.51765 0.24235 0.84018 0.0
C355 C 0.52363 0.19174 0.81404 0.0
C356 C 0.47076 0.27794 0.82942 0.0
C357 C 0.51485 0.34353 0.86281 0.0
N358 N 0.50423 0.21638 0.82097 0.0
N359 N 0.52164 0.30739 0.86097 0.0
H360 H 0.45545 0.89599 0.50565 0.0
H361 H 0.61707 0.78658 0.50364 0.0
H362 H 0.60223 0.97487 0.50278 0.0
H363 H 0.47909 0.71329 0.52861 0.0
H364 H 0.60855 0.8529 0.49723 0.0
H365 H 0.46025 0.82625 0.50837 0.0
C366 C 0.48867 0.89871 0.50544 0.0
C367 C 0.52854 0.94154 0.50407 0.0
C368 C 0.58005 0.82229 0.50405 0.0
C369 C 0.53413 0.86171 0.507 0.0
C370 C 0.5849 0.7843 0.50781 0.0
C371 C 0.54903 0.74423 0.5171 0.0
C372 C 0.53884 0.82047 0.50935 0.0
C373 C 0.5077 0.74323 0.5214 0.0
C374 C 0.49133 0.85885 0.50708 0.0
C375 C 0.57058 0.94278 0.50396 0.0
N376 N 0.50382 0.78084 0.51761 0.0
N377 N 0.57223 0.90357 0.50534 0.0
H378 H 0.71266 0.61669 0.82724 0.0
H379 H 0.8478 0.48039 0.84318 0.0
H380 H 0.64525 0.47077 0.83564 0.0
H381 H 0.90994 0.62651 0.84983 0.0
H382 H 0.77432 0.47567 0.83623 0.0
H383 H 0.78622 0.62025 0.83082 0.0
C384 C 0.71322 0.58532 0.82966 0.0
C385 C 0.67249 0.54338 0.83121 0.0
C386 C 0.80417 0.50875 0.83909 0.0
C387 C 0.75699 0.54727 0.83537 0.0
C388 C 0.84622 0.51151 0.84317 0.0
C389 C 0.88562 0.55395 0.8471 0.0
C390 C 0.80128 0.54871 0.83881 0.0
C391 C 0.88108 0.59304 0.84648 0.0
C392 C 0.75534 0.58741 0.8318 0.0
C393 C 0.67564 0.50393 0.83443 0.0
N394 N 0.83989 0.58944 0.84245 0.0
N395 N 0.71706 0.50685 0.83642 0.0
H396 H 0.18037 0.62386 0.15193 0.0
H397 H 0.32542 0.85677 0.22048 0.0
H398 H 0.11953 0.67352 0.20015 0.0
H399 H 0.373 0.82519 0.15887 0.0
H400 H 0.25097 0.78899 0.21451 0.0
H401 H 0.25254 0.69541 0.15589 0.0
C402 C 0.18213 0.64975 0.16339 0.0
C403 C 0.14368 0.64247 0.17576 0.0
C404 C 0.27765 0.7971 0.20223 0.0
C405 C 0.22664 0.72476 0.18043 0.0
C406 C 0.32027 0.83616 0.2055 0.0
C407 C 0.35615 0.84714 0.19022 0.0
C408 C 0.27065 0.76818 0.18367 0.0
C409 C 0.34704 0.81801 0.17142 0.0
C410 C 0.22338 0.69076 0.16555 0.0
C411 C 0.14817 0.67757 0.19024 0.0
N412 N 0.30549 0.77986 0.16881 0.0
N413 N 0.18891 0.71699 0.19229 0.0
H414 H 0.56076 0.21221 0.53458 0.0
H415 H 0.49317 0.38878 0.48615 0.0
H416 H 0.46409 0.17342 0.47959 0.0
H417 H 0.53303 0.38913 0.55565 0.0
H418 H 0.48856 0.31442 0.48052 0.0
H419 H 0.55835 0.28235 0.53952 0.0
C420 C 0.53908 0.2185 0.52345 0.0
C421 C 0.51263 0.18681 0.50659 0.0
C422 C 0.49783 0.33071 0.49702 0.0
C423 C 0.50996 0.26773 0.51215 0.0
C424 C 0.50061 0.37312 0.50023 0.0
C425 C 0.51322 0.39512 0.52146 0.0
C426 C 0.50884 0.31082 0.51501 0.0
C427 C 0.52254 0.37325 0.5391 0.0
C428 C 0.53754 0.25853 0.52639 0.0
C429 C 0.4849 0.19684 0.49284 0.0
N430 N 0.52062 0.33273 0.53542 0.0
N431 N 0.48458 0.23669 0.49577 0.0
H432 H 0.37659 0.46715 0.85921 0.0
H433 H 0.23474 0.58669 0.82048 0.0
H434 H 0.43039 0.58556 0.81624 0.0
H435 H 0.19558 0.49477 0.87727 0.0
H436 H 0.30134 0.57806 0.81484 0.0
H437 H 0.3051 0.46858 0.86224 0.0
C438 C 0.37334 0.49327 0.85031 0.0
C439 C 0.40976 0.52644 0.83754 0.0
C440 C 0.27805 0.55959 0.82847 0.0
C441 C 0.32789 0.52804 0.84082 0.0
C442 C 0.23997 0.5646 0.83177 0.0
C443 C 0.20946 0.54187 0.84957 0.0
C444 C 0.28585 0.53137 0.84294 0.0
C445 C 0.21774 0.51277 0.86321 0.0
C446 C 0.33256 0.49413 0.8521 0.0
C447 C 0.40349 0.55949 0.82641 0.0
N448 N 0.25519 0.50854 0.85969 0.0
N449 N 0.36347 0.55941 0.8283 0.0
H450 H 0.85109 0.41237 0.17673 0.0
H451 H 0.73777 0.14057 0.17128 0.0
H452 H 0.9212 0.34376 0.15236 0.0
H453 H 0.66672 0.20851 0.19511 0.0
H454 H 0.80325 0.21453 0.16183 0.0
H455 H 0.78183 0.33848 0.18105 0.0
C456 C 0.85195 0.38185 0.17209 0.0
C457 C 0.89238 0.38454 0.16422 0.0
C458 C 0.77328 0.21335 0.16899 0.0
C459 C 0.81271 0.29932 0.16931 0.0
C460 C 0.73582 0.17104 0.17447 0.0
C461 C 0.6966 0.16811 0.18423 0.0
C462 C 0.77193 0.25345 0.17333 0.0
C463 C 0.69598 0.20891 0.18753 0.0
C464 C 0.81224 0.33955 0.17461 0.0
C465 C 0.89104 0.34358 0.1585 0.0
N466 N 0.73314 0.2498 0.18228 0.0
N467 N 0.85206 0.3028 0.16129 0.0
H468 H 0.0744 0.61058 0.10135 0.0
H469 H 0.982 0.48288 0.98485 0.0
H470 H 0.98506 0.46491 0.09951 0.0
H471 H 0.11625 0.60068 0.99118 0.0
H472 H 0.97739 0.47699 0.02643 0.0
H473 H 0.08584 0.60973 0.06043 0.0
C474 C 0.05744 0.57838 0.09229 0.0
C475 C 0.02868 0.53779 0.10368 0.0
C476 C 0.00802 0.50374 0.01865 0.0
C477 C 0.04087 0.53665 0.05693 0.0
C478 C 0.01056 0.50724 0.99502 0.0
C479 C 0.04956 0.5423 0.98466 0.0
C480 C 0.04427 0.53622 0.03192 0.0
C481 C 0.08573 0.57298 0.99853 0.0
C482 C 0.06408 0.57789 0.069 0.0
C483 C 0.00757 0.4969 0.09125 0.0
N484 N 0.08196 0.56962 0.02146 0.0
N485 N 0.01351 0.49741 0.06839 0.0
H486 H 0.47192 0.0186 0.44145 0.0
H487 H 0.57131 0.10614 0.31704 0.0
H488 H 0.59753 0.14197 0.42687 0.0
H489 H 0.45771 0.97151 0.32954 0.0
H490 H 0.57175 0.12476 0.35693 0.0
H491 H 0.45712 0.00556 0.40038 0.0
C492 C 0.49577 0.04335 0.42962 0.0
C493 C 0.53602 0.08129 0.43743 0.0
C494 C 0.54643 0.09121 0.35097 0.0
C495 C 0.51973 0.06669 0.39079 0.0
C496 C 0.54589 0.08065 0.32807 0.0
C497 C 0.51463 0.03703 0.31983 0.0
C498 C 0.51563 0.05795 0.36595 0.0
C499 C 0.48301 0.0053 0.33519 0.0
C500 C 0.48756 0.03579 0.40624 0.0
C501 C 0.56622 0.1121 0.4215 0.0
N502 N 0.48454 0.01625 0.35754 0.0
N503 N 0.55758 0.10404 0.399 0.0
H504 H 0.59926 0.58422 0.77213 0.0
H505 H 0.48338 0.53589 0.64893 0.0
H506 H 0.45915 0.48367 0.75837 0.0
H507 H 0.62812 0.62026 0.6601 0.0
H508 H 0.47251 0.52415 0.68978 0.0
H509 H 0.60913 0.60539 0.73191 0.0
C510 C 0.57053 0.56689 0.76067 0.0
C511 C 0.52844 0.5319 0.76847 0.0
C512 C 0.50665 0.54541 0.68332 0.0
C513 C 0.53937 0.55583 0.72262 0.0
C514 C 0.51285 0.55239 0.65999 0.0
C515 C 0.55676 0.57896 0.65104 0.0
C516 C 0.54461 0.56523 0.69791 0.0
C517 C 0.59373 0.59899 0.66623 0.0
C518 C 0.57618 0.57886 0.73774 0.0
C519 C 0.49227 0.51058 0.75298 0.0
N520 N 0.58684 0.59163 0.6889 0.0
N521 N 0.4986 0.52276 0.7308 0.0
H522 H 0.46942 0.08788 0.5789 0.0
H523 H 0.6779 0.13253 0.65979 0.0
H524 H 0.58363 0.07454 0.55708 0.0
H525 H 0.55278 0.12152 0.68427 0.0
H526 H 0.64786 0.12047 0.62118 0.0
H527 H 0.5036 0.10964 0.61679 0.0
C528 C 0.50182 0.08981 0.58209 0.0
C529 C 0.5237 0.07923 0.56497 0.0
C530 C 0.62707 0.1209 0.63499 0.0
C531 C 0.56296 0.10408 0.60808 0.0
C532 C 0.64412 0.12759 0.65707 0.0
C533 C 0.61772 0.12769 0.67538 0.0
C534 C 0.5833 0.11433 0.63112 0.0
C535 C 0.57455 0.12212 0.67071 0.0
C536 C 0.52128 0.10216 0.60368 0.0
C537 C 0.56564 0.08235 0.56988 0.0
N538 N 0.55862 0.11545 0.64907 0.0
N539 N 0.58388 0.09439 0.59101 0.0
H540 H 0.48791 0.47289 0.88946 0.0
H541 H 0.59082 0.51351 0.01494 0.0
H542 H 0.61974 0.58551 0.90789 0.0
H543 H 0.46832 0.39137 0.99403 0.0
H544 H 0.60278 0.53991 0.97576 0.0
H545 H 0.48031 0.44213 0.92767 0.0
C546 C 0.51532 0.49101 0.90156 0.0
C547 C 0.55444 0.53182 0.89562 0.0
C548 C 0.57341 0.50721 0.97972 0.0
C549 C 0.54595 0.49711 0.93934 0.0
C550 C 0.5667 0.49195 0.00209 0.0
C551 C 0.52834 0.45022 0.00787 0.0
C552 C 0.54144 0.48069 0.96298 0.0
C553 C 0.49791 0.42414 0.99048 0.0
C554 C 0.51101 0.47346 0.92335 0.0
C555 C 0.58895 0.554 0.91187 0.0
N556 N 0.50498 0.43991 0.96888 0.0
N557 N 0.58381 0.53648 0.93305 0.0
H558 H 0.04488 0.56604 0.23267 0.0
H559 H 0.98409 0.42898 0.34963 0.0
H560 H 0.97958 0.4196 0.23679 0.0
H561 H 0.0829 0.57211 0.34413 0.0
H562 H 0.96916 0.42657 0.30887 0.0
H563 H 0.04586 0.57019 0.27422 0.0
C564 C 0.0302 0.53477 0.24234 0.0
C565 C 0.01261 0.49244 0.23141 0.0
C566 C 0.99388 0.45856 0.31663 0.0
C567 C 0.01355 0.49688 0.27868 0.0
C568 C 1.00224 0.45999 0.33987 0.0
C569 C 0.03509 0.50069 0.35017 0.0
C570 C 0.01827 0.49822 0.30366 0.0
C571 C 0.05784 0.53987 0.33674 0.0
C572 C 0.03094 0.53715 0.266 0.0
C573 C 0.9939 0.45293 0.24464 0.0
N574 N 0.04911 0.53764 0.31415 0.0
N575 N 0.99506 0.4561 0.26761 0.0
loop_
_geom_bond_atom_site_label_1
_geom_bond_atom_site_label_2
_geom_bond_distance
_geom_bond_site_symmetry_2
_ccdc_geom_bond_type
Dy0 O4 2.398 . S
Dy0 O5 2.491 . S
Dy0 O6 2.403 . S
Dy0 O7 2.664 . S
Dy0 O11 2.326 . S
Dy0 O15 2.310 . S
Dy0 O16 2.351 1_455 S
C1 O12 1.185 . S
C1 O13 1.355 . S
C2 O4 1.185 . S
C2 O5 1.355 . S
Dy3 O7 2.307 1_655 S
Dy3 O10 2.348 1_655 S
Dy3 O12 2.402 . S
Dy3 O13 2.495 . S
Dy3 O14 2.402 1_655 S
Dy3 O15 2.661 1_655 S
Dy3 O17 2.326 . S
O4 Dy0 2.398 . S
O4 C2 1.185 . S
O5 Dy0 2.491 . S
O5 C2 1.355 . S
O6 Dy0 2.403 . S
O6 C8 1.254 . S
O7 Dy0 2.664 . S
O7 Dy3 2.307 1_455 S
O7 C8 1.268 . S
C8 O6 1.254 . S
C8 O7 1.268 . S
C9 O14 1.254 . S
C9 O15 1.268 . S
O10 Dy3 2.348 1_455 S
O10 C18 1.249 . S
O11 Dy0 2.326 . S
O11 C18 1.267 . S
O12 C1 1.185 . S
O12 Dy3 2.402 . S
O13 C1 1.355 . S
O13 Dy3 2.495 . S
O14 Dy3 2.402 1_455 S
O14 C9 1.254 . S
O15 Dy0 2.310 . S
O15 Dy3 2.661 1_455 S
O15 C9 1.268 . S
O16 Dy0 2.351 1_655 S
O16 C19 1.249 . S
O17 Dy3 2.326 . S
O17 C19 1.267 . S
C18 O10 1.249 . S
C18 O11 1.267 . S
C19 O16 1.249 . S
C19 O17 1.267 . S
Dy20 O24 2.390 1_545 S
Dy20 O25 2.482 1_545 S
Dy20 O26 2.403 . S
Dy20 O27 2.666 . S
Dy20 O31 2.314 1_545 S
Dy20 O35 2.308 . S
Dy20 O36 2.364 . S
C21 O32 1.185 . S
C21 O33 1.355 . S
C22 O24 1.185 . S
C22 O25 1.355 . S
Dy23 O27 2.310 . S
Dy23 O30 2.351 1_545 S
Dy23 O32 2.398 . S
Dy23 O33 2.491 . S
Dy23 O34 2.403 . S
Dy23 O35 2.664 . S
Dy23 O37 2.326 . S
O24 Dy20 2.390 1_565 S
O24 C22 1.185 . S
O25 Dy20 2.482 1_565 S
O25 C22 1.355 . S
O26 Dy20 2.403 . S
O26 C28 1.254 . S
O27 Dy20 2.666 . S
O27 Dy23 2.310 . S
O27 C28 1.268 . S
C28 O26 1.254 . S
C28 O27 1.268 . S
C29 O34 1.254 . S
C29 O35 1.268 . S
O30 Dy23 2.351 1_565 S
O30 C38 1.249 . S
O31 Dy20 2.314 1_565 S
O31 C38 1.267 . S
O32 C21 1.185 . S
O32 Dy23 2.398 . S
O33 C21 1.355 . S
O33 Dy23 2.491 . S
O34 Dy23 2.403 . S
O34 C29 1.254 . S
O35 Dy20 2.308 . S
O35 Dy23 2.664 . S
O35 C29 1.268 . S
O36 Dy20 2.364 . S
O36 C39 1.249 . S
O37 Dy23 2.326 . S
O37 C39 1.267 . S
C38 O30 1.249 . S
C38 O31 1.267 . S
C39 O36 1.249 . S
C39 O37 1.267 . S
Dy40 O44 2.398 . S
Dy40 O45 2.491 . S
Dy40 O46 2.403 . S
Dy40 O47 2.664 . S
Dy40 O51 2.326 . S
Dy40 O55 2.310 . S
Dy40 O56 2.351 . S
C41 O52 1.185 . S
C41 O53 1.355 . S
C42 O44 1.185 . S
C42 O45 1.355 . S
Dy43 O47 2.310 . S
Dy43 O50 2.351 . S
Dy43 O52 2.398 . S
Dy43 O53 2.491 . S
Dy43 O54 2.403 . S
Dy43 O55 2.664 . S
Dy43 O57 2.326 . S
O44 Dy40 2.398 . S
O44 C42 1.185 . S
O45 Dy40 2.491 . S
O45 C42 1.355 . S
O46 Dy40 2.403 . S
O46 C48 1.254 . S
O47 Dy40 2.664 . S
O47 Dy43 2.310 . S
O47 C48 1.268 . S
C48 O46 1.254 . S
C48 O47 1.268 . S
C49 O54 1.254 . S
C49 O55 1.268 . S
O50 Dy43 2.351 . S
O50 C58 1.249 . S
O51 Dy40 2.326 . S
O51 C58 1.267 . S
O52 C41 1.185 . S
O52 Dy43 2.398 . S
O53 C41 1.355 . S
O53 Dy43 2.491 . S
O54 Dy43 2.403 . S
O54 C49 1.254 . S
O55 Dy40 2.310 . S
O55 Dy43 2.664 . S
O55 C49 1.268 . S
O56 Dy40 2.351 . S
O56 C59 1.249 . S
O57 Dy43 2.326 . S
O57 C59 1.267 . S
C58 O50 1.249 . S
C58 O51 1.267 . S
C59 O56 1.249 . S
C59 O57 1.267 . S
P60 O71 1.490 . S
P60 C74 1.812 . S
P60 C80 1.803 1_565 S
P60 C86 1.819 . S
H61 C75 0.941 . S
H62 C76 0.939 . S
H63 C78 0.940 . S
H64 C79 0.940 . S
H65 C81 0.939 . S
H66 C82 0.942 . S
H67 C84 0.940 . S
H68 C85 0.939 . S
H69 C87 0.941 . S
H70 C91 0.939 . S
O71 P60 1.490 . S
H72 C88 0.939 . S
H73 C90 0.940 . S
C74 P60 1.812 . S
C74 C75 1.389 . S
C74 C79 1.391 . S
C75 H61 0.941 . S
C75 C74 1.389 . S
C75 C76 1.397 . S
C76 H62 0.939 . S
C76 C75 1.397 . S
C76 C77 1.378 . S
C77 C76 1.378 . S
C77 C78 1.378 . S
C78 H63 0.940 . S
C78 C77 1.378 . S
C78 C79 1.396 . S
C79 H64 0.940 . S
C79 C74 1.391 . S
C79 C78 1.396 . S
C80 P60 1.803 1_545 S
C80 C81 1.378 . S
C80 C85 1.400 . S
C81 H65 0.939 . S
C81 C80 1.378 . S
C81 C82 1.361 . S
C82 H66 0.942 . S
C82 C81 1.361 . S
C82 C83 1.369 . S
C83 C82 1.369 . S
C83 C84 1.404 . S
C84 H67 0.940 . S
C84 C83 1.404 . S
C84 C85 1.389 . S
C85 H68 0.939 . S
C85 C80 1.400 . S
C85 C84 1.389 . S
C86 P60 1.819 . S
C86 C87 1.391 . S
C86 C91 1.391 1_565 S
C87 H69 0.941 . S
C87 C86 1.391 . S
C87 C88 1.396 . S
C88 H72 0.939 . S
C88 C87 1.396 . S
C88 C89 1.397 1_565 S
C89 C88 1.397 1_545 S
C89 C90 1.385 . S
C90 H73 0.940 . S
C90 C89 1.385 . S
C90 C91 1.388 . S
C91 H70 0.939 . S
C91 C86 1.391 1_545 S
C91 C90 1.388 . S
P92 O103 1.490 . S
P92 C106 1.812 . S
P92 C112 1.803 . S
P92 C118 1.819 . S
H93 C107 0.941 . S
H94 C108 0.939 . S
H95 C110 0.940 . S
H96 C111 0.940 . S
H97 C113 0.939 . S
H98 C114 0.942 . S
H99 C116 0.940 . S
H100 C117 0.939 . S
H101 C119 0.941 . S
H102 C123 0.939 . S
O103 P92 1.490 . S
H104 C120 0.939 . S
H105 C122 0.940 . S
C106 P92 1.812 . S
C106 C107 1.389 . S
C106 C111 1.391 . S
C107 H93 0.941 . S
C107 C106 1.389 . S
C107 C108 1.397 . S
C108 H94 0.939 . S
C108 C107 1.397 . S
C108 C109 1.378 . S
C109 C108 1.378 . S
C109 C110 1.378 . S
C110 H95 0.940 . S
C110 C109 1.378 . S
C110 C111 1.396 . S
C111 H96 0.940 . S
C111 C106 1.391 . S
C111 C110 1.396 . S
C112 P92 1.803 . S
C112 C113 1.378 . S
C112 C117 1.400 . S
C113 H97 0.939 . S
C113 C112 1.378 . S
C113 C114 1.361 . S
C114 H98 0.942 . S
C114 C113 1.361 . S
C114 C115 1.369 . S
C115 C114 1.369 . S
C115 C116 1.404 . S
C116 H99 0.940 . S
C116 C115 1.404 . S
C116 C117 1.389 . S
C117 H100 0.939 . S
C117 C112 1.400 . S
C117 C116 1.389 . S
C118 P92 1.819 . S
C118 C119 1.391 . S
C118 C123 1.391 . S
C119 H101 0.941 . S
C119 C118 1.391 . S
C119 C120 1.396 . S
C120 H104 0.939 . S
C120 C119 1.396 . S
C120 C121 1.397 . S
C121 C120 1.397 . S
C121 C122 1.385 . S
C122 H105 0.940 . S
C122 C121 1.385 . S
C122 C123 1.388 . S
C123 H102 0.939 . S
C123 C118 1.391 . S
C123 C122 1.388 . S
P124 O135 1.490 . S
P124 C138 1.812 . S
P124 C144 1.803 . S
P124 C150 1.819 . S
H125 C139 0.941 . S
H126 C140 0.939 . S
H127 C142 0.940 . S
H128 C143 0.940 . S
H129 C145 0.939 . S
H130 C146 0.942 . S
H131 C148 0.940 . S
H132 C149 0.939 . S
H133 C151 0.941 . S
H134 C155 0.939 . S
O135 P124 1.490 . S
H136 C152 0.939 . S
H137 C154 0.940 1_655 S
C138 P124 1.812 . S
C138 C139 1.389 . S
C138 C143 1.391 . S
C139 H125 0.941 . S
C139 C138 1.389 . S
C139 C140 1.397 . S
C140 H126 0.939 . S
C140 C139 1.397 . S
C140 C141 1.378 . S
C141 C140 1.378 . S
C141 C142 1.378 . S
C142 H127 0.940 . S
C142 C141 1.378 . S
C142 C143 1.396 . S
C143 H128 0.940 . S
C143 C138 1.391 . S
C143 C142 1.396 . S
C144 P124 1.803 . S
C144 C145 1.378 . S
C144 C149 1.400 . S
C145 H129 0.939 . S
C145 C144 1.378 . S
C145 C146 1.361 1_455 S
C146 H130 0.942 . S
C146 C145 1.361 1_655 S
C146 C147 1.369 . S
C147 C146 1.369 . S
C147 C148 1.404 . S
C148 H131 0.940 . S
C148 C147 1.404 . S
C148 C149 1.389 1_655 S
C149 H132 0.939 . S
C149 C144 1.400 . S
C149 C148 1.389 1_455 S
C150 P124 1.819 . S
C150 C151 1.391 . S
C150 C155 1.391 . S
C151 H133 0.941 . S
C151 C150 1.391 . S
C151 C152 1.396 . S
C152 H136 0.939 . S
C152 C151 1.396 . S
C152 C153 1.397 . S
C153 C152 1.397 . S
C153 C154 1.385 . S
C154 H137 0.940 1_455 S
C154 C153 1.385 . S
C154 C155 1.388 . S
C155 H134 0.939 . S
C155 C150 1.391 . S
C155 C154 1.388 . S
P156 O167 1.490 . S
P156 C170 1.812 . S
P156 C176 1.803 1_455 S
P156 C182 1.819 . S
H157 C171 0.941 . S
H158 C172 0.939 . S
H159 C174 0.940 . S
H160 C175 0.940 . S
H161 C177 0.939 . S
H162 C178 0.942 . S
H163 C180 0.940 . S
H164 C181 0.939 . S
H165 C183 0.941 . S
H166 C187 0.939 . S
O167 P156 1.490 . S
H168 C184 0.939 . S
H169 C186 0.940 . S
C170 P156 1.812 . S
C170 C171 1.389 . S
C170 C175 1.391 . S
C171 H157 0.941 . S
C171 C170 1.389 . S
C171 C172 1.397 . S
C172 H158 0.939 . S
C172 C171 1.397 . S
C172 C173 1.378 . S
C173 C172 1.378 . S
C173 C174 1.378 . S
C174 H159 0.940 . S
C174 C173 1.378 . S
C174 C175 1.396 . S
C175 H160 0.940 . S
C175 C170 1.391 . S
C175 C174 1.396 . S
C176 P156 1.803 1_655 S
C176 C177 1.378 . S
C176 C181 1.400 . S
C177 H161 0.939 . S
C177 C176 1.378 . S
C177 C178 1.361 . S
C178 H162 0.942 . S
C178 C177 1.361 . S
C178 C179 1.369 . S
C179 C178 1.369 . S
C179 C180 1.404 . S
C180 H163 0.940 . S
C180 C179 1.404 . S
C180 C181 1.389 . S
C181 H164 0.939 . S
C181 C176 1.400 . S
C181 C180 1.389 . S
C182 P156 1.819 . S
C182 C183 1.391 . S
C182 C187 1.391 1_455 S
C183 H165 0.941 . S
C183 C182 1.391 . S
C183 C184 1.396 . S
C184 H168 0.939 . S
C184 C183 1.396 . S
C184 C185 1.397 . S
C185 C184 1.397 . S
C185 C186 1.385 1_455 S
C186 H169 0.940 . S
C186 C185 1.385 1_655 S
C186 C187 1.388 . S
C187 H166 0.939 . S
C187 C182 1.391 1_655 S
C187 C186 1.388 . S
P188 O199 1.490 . S
P188 C202 1.812 . S
P188 C208 1.803 . S
P188 C214 1.819 . S
H189 C203 0.941 . S
H190 C204 0.939 . S
H191 C206 0.940 . S
H192 C207 0.940 . S
H193 C209 0.939 . S
H194 C210 0.942 . S
H195 C212 0.940 . S
H196 C213 0.939 . S
H197 C215 0.941 . S
H198 C219 0.939 . S
O199 P188 1.490 . S
H200 C216 0.939 . S
H201 C218 0.940 1_565 S
C202 P188 1.812 . S
C202 C203 1.389 . S
C202 C207 1.391 . S
C203 H189 0.941 . S
C203 C202 1.389 . S
C203 C204 1.397 . S
C204 H190 0.939 . S
C204 C203 1.397 . S
C204 C205 1.378 . S
C205 C204 1.378 . S
C205 C206 1.378 . S
C206 H191 0.940 . S
C206 C205 1.378 . S
C206 C207 1.396 . S
C207 H192 0.940 . S
C207 C202 1.391 . S
C207 C206 1.396 . S
C208 P188 1.803 . S
C208 C209 1.378 . S
C208 C213 1.400 . S
C209 H193 0.939 . S
C209 C208 1.378 . S
C209 C210 1.361 1_545 S
C210 H194 0.942 . S
C210 C209 1.361 1_565 S
C210 C211 1.369 . S
C211 C210 1.369 . S
C211 C212 1.404 . S
C212 H195 0.940 . S
C212 C211 1.404 . S
C212 C213 1.389 1_565 S
C213 H196 0.939 . S
C213 C208 1.400 . S
C213 C212 1.389 1_545 S
C214 P188 1.819 . S
C214 C215 1.391 . S
C214 C219 1.391 . S
C215 H197 0.941 . S
C215 C214 1.391 . S
C215 C216 1.396 . S
C216 H200 0.939 . S
C216 C215 1.396 . S
C216 C217 1.397 . S
C217 C216 1.397 . S
C217 C218 1.385 . S
C218 H201 0.940 1_545 S
C218 C217 1.385 . S
C218 C219 1.388 . S
C219 H198 0.939 . S
C219 C214 1.391 . S
C219 C218 1.388 . S
P220 O231 1.490 . S
P220 C234 1.812 . S
P220 C240 1.803 . S
P220 C246 1.819 . S
H221 C235 0.941 . S
H222 C236 0.939 . S
H223 C238 0.940 . S
H224 C239 0.940 . S
H225 C241 0.939 . S
H226 C242 0.942 . S
H227 C244 0.940 . S
H228 C245 0.939 . S
H229 C247 0.941 . S
H230 C251 0.939 . S
O231 P220 1.490 . S
H232 C248 0.939 . S
H233 C250 0.940 . S
C234 P220 1.812 . S
C234 C235 1.389 . S
C234 C239 1.391 . S
C235 H221 0.941 . S
C235 C234 1.389 . S
C235 C236 1.397 . S
C236 H222 0.939 . S
C236 C235 1.397 . S
C236 C237 1.378 . S
C237 C236 1.378 . S
C237 C238 1.378 . S
C238 H223 0.940 . S
C238 C237 1.378 . S
C238 C239 1.396 . S
C239 H224 0.940 . S
C239 C234 1.391 . S
C239 C238 1.396 . S
C240 P220 1.803 . S
C240 C241 1.378 . S
C240 C245 1.400 . S
C241 H225 0.939 . S
C241 C240 1.378 . S
C241 C242 1.361 . S
C242 H226 0.942 . S
C242 C241 1.361 . S
C242 C243 1.369 . S
C243 C242 1.369 . S
C243 C244 1.404 . S
C244 H227 0.940 . S
C244 C243 1.404 . S
C244 C245 1.389 . S
C245 H228 0.939 . S
C245 C240 1.400 . S
C245 C244 1.389 . S
C246 P220 1.819 . S
C246 C247 1.391 . S
C246 C251 1.391 . S
C247 H229 0.941 . S
C247 C246 1.391 . S
C247 C248 1.396 . S
C248 H232 0.939 . S
C248 C247 1.396 . S
C248 C249 1.397 . S
C249 C248 1.397 . S
C249 C250 1.385 . S
C250 H233 0.940 . S
C250 C249 1.385 . S
C250 C251 1.388 . S
C251 H230 0.939 . S
C251 C246 1.391 . S
C251 C250 1.388 . S
H252 C258 0.930 . S
H253 C262 0.930 . S
H254 C267 0.929 . S
H255 C265 0.929 . S
H256 C260 0.929 . S
H257 C266 0.929 . S
C258 H252 0.930 . S
C258 C259 1.367 . S
C258 C266 1.378 . S
C259 C258 1.367 . S
C259 C267 1.433 . S
C260 H256 0.929 . S
C260 C262 1.378 . S
C260 C264 1.350 . S
C261 C264 1.463 . S
C261 C266 1.350 . S
C261 N269 1.427 . S
C262 H253 0.930 . S
C262 C260 1.378 . S
C262 C263 1.367 . S
C263 C262 1.367 . S
C263 C265 1.433 . S
C264 C260 1.350 . S
C264 C261 1.463 . S
C264 N268 1.427 . S
C265 H255 0.929 . S
C265 C263 1.433 . S
C265 N268 1.384 . S
C266 H257 0.929 . S
C266 C258 1.378 . S
C266 C261 1.350 . S
C267 H254 0.929 . S
C267 C259 1.433 . S
C267 N269 1.384 . S
N268 C264 1.427 . S
N268 C265 1.384 . S
N269 C261 1.427 . S
N269 C267 1.384 . S
H270 C276 0.930 . S
H271 C280 0.930 . S
H272 C285 0.929 . S
H273 C283 0.929 . S
H274 C278 0.929 . S
H275 C284 0.929 . S
C276 H270 0.930 . S
C276 C277 1.367 . S
C276 C284 1.378 . S
C277 C276 1.367 . S
C277 C285 1.433 . S
C278 H274 0.929 . S
C278 C280 1.378 . S
C278 C282 1.350 . S
C279 C282 1.463 . S
C279 C284 1.350 . S
C279 N287 1.427 . S
C280 H271 0.930 . S
C280 C278 1.378 . S
C280 C281 1.367 . S
C281 C280 1.367 . S
C281 C283 1.433 . S
C282 C278 1.350 . S
C282 C279 1.463 . S
C282 N286 1.427 . S
C283 H273 0.929 . S
C283 C281 1.433 . S
C283 N286 1.384 . S
C284 H275 0.929 . S
C284 C276 1.378 . S
C284 C279 1.350 . S
C285 H272 0.929 . S
C285 C277 1.433 . S
C285 N287 1.384 . S
N286 C282 1.427 . S
N286 C283 1.384 . S
N287 C279 1.427 . S
N287 C285 1.384 . S
H288 C294 0.930 . S
H289 C298 0.930 . S
H290 C303 0.929 . S
H291 C301 0.929 . S
H292 C296 0.929 . S
H293 C302 0.929 . S
C294 H288 0.930 . S
C294 C295 1.367 . S
C294 C302 1.378 . S
C295 C294 1.367 . S
C295 C303 1.433 . S
C296 H292 0.929 . S
C296 C298 1.378 . S
C296 C300 1.350 . S
C297 C300 1.463 . S
C297 C302 1.350 . S
C297 N305 1.427 . S
C298 H289 0.930 . S
C298 C296 1.378 . S
C298 C299 1.367 . S
C299 C298 1.367 . S
C299 C301 1.433 . S
C300 C296 1.350 . S
C300 C297 1.463 . S
C300 N304 1.427 . S
C301 H291 0.929 . S
C301 C299 1.433 . S
C301 N304 1.384 . S
C302 H293 0.929 . S
C302 C294 1.378 . S
C302 C297 1.350 . S
C303 H290 0.929 . S
C303 C295 1.433 . S
C303 N305 1.384 . S
N304 C300 1.427 . S
N304 C301 1.384 . S
N305 C297 1.427 . S
N305 C303 1.384 . S
H306 C312 0.930 . S
H307 C316 0.930 . S
H308 C321 0.929 . S
H309 C319 0.929 . S
H310 C314 0.929 . S
H311 C320 0.929 . S
C312 H306 0.930 . S
C312 C313 1.367 . S
C312 C320 1.378 . S
C313 C312 1.367 . S
C313 C321 1.433 . S
C314 H310 0.929 . S
C314 C316 1.378 . S
C314 C318 1.350 . S
C315 C318 1.463 . S
C315 C320 1.350 . S
C315 N323 1.427 . S
C316 H307 0.930 . S
C316 C314 1.378 . S
C316 C317 1.367 . S
C317 C316 1.367 . S
C317 C319 1.433 . S
C318 C314 1.350 . S
C318 C315 1.463 . S
C318 N322 1.427 . S
C319 H309 0.929 . S
C319 C317 1.433 . S
C319 N322 1.384 . S
C320 H311 0.929 . S
C320 C312 1.378 . S
C320 C315 1.350 . S
C321 H308 0.929 . S
C321 C313 1.433 . S
C321 N323 1.384 . S
N322 C318 1.427 . S
N322 C319 1.384 . S
N323 C315 1.427 . S
N323 C321 1.384 . S
H324 C330 0.930 . S
H325 C334 0.930 . S
H326 C339 0.929 . S
H327 C337 0.929 . S
H328 C332 0.929 . S
H329 C338 0.929 . S
C330 H324 0.930 . S
C330 C331 1.367 . S
C330 C338 1.378 . S
C331 C330 1.367 . S
C331 C339 1.433 . S
C332 H328 0.929 . S
C332 C334 1.378 . S
C332 C336 1.350 . S
C333 C336 1.463 . S
C333 C338 1.350 . S
C333 N341 1.427 . S
C334 H325 0.930 . S
C334 C332 1.378 . S
C334 C335 1.367 . S
C335 C334 1.367 . S
C335 C337 1.433 . S
C336 C332 1.350 . S
C336 C333 1.463 . S
C336 N340 1.427 . S
C337 H327 0.929 . S
C337 C335 1.433 . S
C337 N340 1.384 . S
C338 H329 0.929 . S
C338 C330 1.378 . S
C338 C333 1.350 . S
C339 H326 0.929 . S
C339 C331 1.433 . S
C339 N341 1.384 . S
N340 C336 1.427 . S
N340 C337 1.384 . S
N341 C333 1.427 . S
N341 C339 1.384 . S
H342 C348 0.930 . S
H343 C352 0.930 . S
H344 C357 0.929 . S
H345 C355 0.929 . S
H346 C350 0.929 . S
H347 C356 0.929 . S
C348 H342 0.930 . S
C348 C349 1.367 . S
C348 C356 1.378 . S
C349 C348 1.367 . S
C349 C357 1.433 . S
C350 H346 0.929 . S
C350 C352 1.378 . S
C350 C354 1.350 . S
C351 C354 1.463 . S
C351 C356 1.350 . S
C351 N359 1.427 . S
C352 H343 0.930 . S
C352 C350 1.378 . S
C352 C353 1.367 . S
C353 C352 1.367 . S
C353 C355 1.433 . S
C354 C350 1.350 . S
C354 C351 1.463 . S
C354 N358 1.427 . S
C355 H345 0.929 . S
C355 C353 1.433 . S
C355 N358 1.384 . S
C356 H347 0.929 . S
C356 C348 1.378 . S
C356 C351 1.350 . S
C357 H344 0.929 . S
C357 C349 1.433 . S
C357 N359 1.384 . S
N358 C354 1.427 . S
N358 C355 1.384 . S
N359 C351 1.427 . S
N359 C357 1.384 . S
H360 C366 0.930 . S
H361 C370 0.930 . S
H362 C375 0.929 . S
H363 C373 0.929 . S
H364 C368 0.929 . S
H365 C374 0.929 . S
C366 H360 0.930 . S
C366 C367 1.367 . S
C366 C374 1.378 . S
C367 C366 1.367 . S
C367 C375 1.433 . S
C368 H364 0.929 . S
C368 C370 1.378 . S
C368 C372 1.350 . S
C369 C372 1.463 . S
C369 C374 1.350 . S
C369 N377 1.427 . S
C370 H361 0.930 . S
C370 C368 1.378 . S
C370 C371 1.367 . S
C371 C370 1.367 . S
C371 C373 1.433 . S
C372 C368 1.350 . S
C372 C369 1.463 . S
C372 N376 1.427 . S
C373 H363 0.929 . S
C373 C371 1.433 . S
C373 N376 1.384 . S
C374 H365 0.929 . S
C374 C366 1.378 . S
C374 C369 1.350 . S
C375 H362 0.929 . S
C375 C367 1.433 . S
C375 N377 1.384 . S
N376 C372 1.427 . S
N376 C373 1.384 . S
N377 C369 1.427 . S
N377 C375 1.384 . S
H378 C384 0.930 . S
H379 C388 0.930 . S
H380 C393 0.929 . S
H381 C391 0.929 . S
H382 C386 0.929 . S
H383 C392 0.929 . S
C384 H378 0.930 . S
C384 C385 1.367 . S
C384 C392 1.378 . S
C385 C384 1.367 . S
C385 C393 1.433 . S
C386 H382 0.929 . S
C386 C388 1.378 . S
C386 C390 1.350 . S
C387 C390 1.463 . S
C387 C392 1.350 . S
C387 N395 1.427 . S
C388 H379 0.930 . S
C388 C386 1.378 . S
C388 C389 1.367 . S
C389 C388 1.367 . S
C389 C391 1.433 . S
C390 C386 1.350 . S
C390 C387 1.463 . S
C390 N394 1.427 . S
C391 H381 0.929 . S
C391 C389 1.433 . S
C391 N394 1.384 . S
C392 H383 0.929 . S
C392 C384 1.378 . S
C392 C387 1.350 . S
C393 H380 0.929 . S
C393 C385 1.433 . S
C393 N395 1.384 . S
N394 C390 1.427 . S
N394 C391 1.384 . S
N395 C387 1.427 . S
N395 C393 1.384 . S
H396 C402 0.930 . S
H397 C406 0.930 . S
H398 C411 0.929 . S
H399 C409 0.929 . S
H400 C404 0.929 . S
H401 C410 0.929 . S
C402 H396 0.930 . S
C402 C403 1.367 . S
C402 C410 1.378 . S
C403 C402 1.367 . S
C403 C411 1.433 . S
C404 H400 0.929 . S
C404 C406 1.378 . S
C404 C408 1.350 . S
C405 C408 1.463 . S
C405 C410 1.350 . S
C405 N413 1.427 . S
C406 H397 0.930 . S
C406 C404 1.378 . S
C406 C407 1.367 . S
C407 C406 1.367 . S
C407 C409 1.433 . S
C408 C404 1.350 . S
C408 C405 1.463 . S
C408 N412 1.427 . S
C409 H399 0.929 . S
C409 C407 1.433 . S
C409 N412 1.384 . S
C410 H401 0.929 . S
C410 C402 1.378 . S
C410 C405 1.350 . S
C411 H398 0.929 . S
C411 C403 1.433 . S
C411 N413 1.384 . S
N412 C408 1.427 . S
N412 C409 1.384 . S
N413 C405 1.427 . S
N413 C411 1.384 . S
H414 C420 0.930 . S
H415 C424 0.930 . S
H416 C429 0.929 . S
H417 C427 0.929 . S
H418 C422 0.929 . S
H419 C428 0.929 . S
C420 H414 0.930 . S
C420 C421 1.367 . S
C420 C428 1.378 . S
C421 C420 1.367 . S
C421 C429 1.433 . S
C422 H418 0.929 . S
C422 C424 1.378 . S
C422 C426 1.350 . S
C423 C426 1.463 . S
C423 C428 1.350 . S
C423 N431 1.427 . S
C424 H415 0.930 . S
C424 C422 1.378 . S
C424 C425 1.367 . S
C425 C424 1.367 . S
C425 C427 1.433 . S
C426 C422 1.350 . S
C426 C423 1.463 . S
C426 N430 1.427 . S
C427 H417 0.929 . S
C427 C425 1.433 . S
C427 N430 1.384 . S
C428 H419 0.929 . S
C428 C420 1.378 . S
C428 C423 1.350 . S
C429 H416 0.929 . S
C429 C421 1.433 . S
C429 N431 1.384 . S
N430 C426 1.427 . S
N430 C427 1.384 . S
N431 C423 1.427 . S
N431 C429 1.384 . S
H432 C438 0.930 . S
H433 C442 0.930 . S
H434 C447 0.929 . S
H435 C445 0.929 . S
H436 C440 0.929 . S
H437 C446 0.929 . S
C438 H432 0.930 . S
C438 C439 1.367 . S
C438 C446 1.378 . S
C439 C438 1.367 . S
C439 C447 1.433 . S
C440 H436 0.929 . S
C440 C442 1.378 . S
C440 C444 1.350 . S
C441 C444 1.463 . S
C441 C446 1.350 . S
C441 N449 1.427 . S
C442 H433 0.930 . S
C442 C440 1.378 . S
C442 C443 1.367 . S
C443 C442 1.367 . S
C443 C445 1.433 . S
C444 C440 1.350 . S
C444 C441 1.463 . S
C444 N448 1.427 . S
C445 H435 0.929 . S
C445 C443 1.433 . S
C445 N448 1.384 . S
C446 H437 0.929 . S
C446 C438 1.378 . S
C446 C441 1.350 . S
C447 H434 0.929 . S
C447 C439 1.433 . S
C447 N449 1.384 . S
N448 C444 1.427 . S
N448 C445 1.384 . S
N449 C441 1.427 . S
N449 C447 1.384 . S
H450 C456 0.930 . S
H451 C460 0.930 . S
H452 C465 0.929 . S
H453 C463 0.929 . S
H454 C458 0.929 . S
H455 C464 0.929 . S
C456 H450 0.930 . S
C456 C457 1.367 . S
C456 C464 1.378 . S
C457 C456 1.367 . S
C457 C465 1.433 . S
C458 H454 0.929 . S
C458 C460 1.378 . S
C458 C462 1.350 . S
C459 C462 1.463 . S
C459 C464 1.350 . S
C459 N467 1.427 . S
C460 H451 0.930 . S
C460 C458 1.378 . S
C460 C461 1.367 . S
C461 C460 1.367 . S
C461 C463 1.433 . S
C462 C458 1.350 . S
C462 C459 1.463 . S
C462 N466 1.427 . S
C463 H453 0.929 . S
C463 C461 1.433 . S
C463 N466 1.384 . S
C464 H455 0.929 . S
C464 C456 1.378 . S
C464 C459 1.350 . S
C465 H452 0.929 . S
C465 C457 1.433 . S
C465 N467 1.384 . S
N466 C462 1.427 . S
N466 C463 1.384 . S
N467 C459 1.427 . S
N467 C465 1.384 . S
H468 C474 0.930 . S
H469 C478 0.930 1_655 S
H470 C483 0.929 1_655 S
H471 C481 0.929 . S
H472 C476 0.929 1_655 S
H473 C482 0.929 . S
C474 H468 0.930 . S
C474 C475 1.367 . S
C474 C482 1.378 . S
C475 C474 1.367 . S
C475 C483 1.433 . S
C476 H472 0.929 1_455 S
C476 C478 1.378 1_554 S
C476 C480 1.350 . S
C477 C480 1.463 . S
C477 C482 1.350 . S
C477 N485 1.427 . S
C478 H469 0.930 1_455 S
C478 C476 1.378 1_556 S
C478 C479 1.367 . S
C479 C478 1.367 . S
C479 C481 1.433 . S
C480 C476 1.350 . S
C480 C477 1.463 . S
C480 N484 1.427 . S
C481 H471 0.929 . S
C481 C479 1.433 . S
C481 N484 1.384 1_556 S
C482 H473 0.929 . S
C482 C474 1.378 . S
C482 C477 1.350 . S
C483 H470 0.929 1_455 S
C483 C475 1.433 . S
C483 N485 1.384 . S
N484 C480 1.427 . S
N484 C481 1.384 1_554 S
N485 C477 1.427 . S
N485 C483 1.384 . S
H486 C492 0.930 . S
H487 C496 0.930 . S
H488 C501 0.929 . S
H489 C499 0.929 . S
H490 C494 0.929 . S
H491 C500 0.929 . S
C492 H486 0.930 . S
C492 C493 1.367 1_565 S
C492 C500 1.378 . S
C493 C492 1.367 1_545 S
C493 C501 1.433 . S
C494 H490 0.929 . S
C494 C496 1.378 . S
C494 C498 1.350 . S
C495 C498 1.463 . S
C495 C500 1.350 1_545 S
C495 N503 1.427 . S
C496 H487 0.930 . S
C496 C494 1.378 . S
C496 C497 1.367 . S
C497 C496 1.367 . S
C497 C499 1.433 1_545 S
C498 C494 1.350 . S
C498 C495 1.463 . S
C498 N502 1.427 1_545 S
C499 H489 0.929 . S
C499 C497 1.433 1_565 S
C499 N502 1.384 . S
C500 H491 0.929 . S
C500 C492 1.378 . S
C500 C495 1.350 1_565 S
C501 H488 0.929 . S
C501 C493 1.433 . S
C501 N503 1.384 . S
N502 C498 1.427 1_565 S
N502 C499 1.384 . S
N503 C495 1.427 . S
N503 C501 1.384 . S
H504 C510 0.930 . S
H505 C514 0.930 . S
H506 C519 0.929 . S
H507 C517 0.929 . S
H508 C512 0.929 . S
H509 C518 0.929 . S
C510 H504 0.930 . S
C510 C511 1.367 . S
C510 C518 1.378 . S
C511 C510 1.367 . S
C511 C519 1.433 . S
C512 H508 0.929 . S
C512 C514 1.378 . S
C512 C516 1.350 . S
C513 C516 1.463 . S
C513 C518 1.350 . S
C513 N521 1.427 . S
C514 H505 0.930 . S
C514 C512 1.378 . S
C514 C515 1.367 . S
C515 C514 1.367 . S
C515 C517 1.433 . S
C516 C512 1.350 . S
C516 C513 1.463 . S
C516 N520 1.427 . S
C517 H507 0.929 . S
C517 C515 1.433 . S
C517 N520 1.384 . S
C518 H509 0.929 . S
C518 C510 1.378 . S
C518 C513 1.350 . S
C519 H506 0.929 . S
C519 C511 1.433 . S
C519 N521 1.384 . S
N520 C516 1.427 . S
N520 C517 1.384 . S
N521 C513 1.427 . S
N521 C519 1.384 . S
H522 C528 0.930 . S
H523 C532 0.930 . S
H524 C537 0.929 . S
H525 C535 0.929 . S
H526 C530 0.929 . S
H527 C536 0.929 . S
C528 H522 0.930 . S
C528 C529 1.367 . S
C528 C536 1.378 . S
C529 C528 1.367 . S
C529 C537 1.433 . S
C530 H526 0.929 . S
C530 C532 1.378 . S
C530 C534 1.350 . S
C531 C534 1.463 . S
C531 C536 1.350 . S
C531 N539 1.427 . S
C532 H523 0.930 . S
C532 C530 1.378 . S
C532 C533 1.367 . S
C533 C532 1.367 . S
C533 C535 1.433 . S
C534 C530 1.350 . S
C534 C531 1.463 . S
C534 N538 1.427 . S
C535 H525 0.929 . S
C535 C533 1.433 . S
C535 N538 1.384 . S
C536 H527 0.929 . S
C536 C528 1.378 . S
C536 C531 1.350 . S
C537 H524 0.929 . S
C537 C529 1.433 . S
C537 N539 1.384 . S
N538 C534 1.427 . S
N538 C535 1.384 . S
N539 C531 1.427 . S
N539 C537 1.384 . S
H540 C546 0.930 . S
H541 C550 0.930 . S
H542 C555 0.929 . S
H543 C553 0.929 . S
H544 C548 0.929 . S
H545 C554 0.929 . S
C546 H540 0.930 . S
C546 C547 1.367 . S
C546 C554 1.378 . S
C547 C546 1.367 . S
C547 C555 1.433 . S
C548 H544 0.929 . S
C548 C550 1.378 1_556 S
C548 C552 1.350 . S
C549 C552 1.463 . S
C549 C554 1.350 . S
C549 N557 1.427 . S
C550 H541 0.930 . S
C550 C548 1.378 1_554 S
C550 C551 1.367 . S
C551 C550 1.367 . S
C551 C553 1.433 . S
C552 C548 1.350 . S
C552 C549 1.463 . S
C552 N556 1.427 . S
C553 H543 0.929 . S
C553 C551 1.433 . S
C553 N556 1.384 1_554 S
C554 H545 0.929 . S
C554 C546 1.378 . S
C554 C549 1.350 . S
C555 H542 0.929 . S
C555 C547 1.433 . S
C555 N557 1.384 . S
N556 C552 1.427 . S
N556 C553 1.384 1_556 S
N557 C549 1.427 . S
N557 C555 1.384 . S
H558 C564 0.930 . S
H559 C568 0.930 . S
H560 C573 0.929 . S
H561 C571 0.929 . S
H562 C566 0.929 . S
H563 C572 0.929 . S
C564 H558 0.930 . S
C564 C565 1.367 . S
C564 C572 1.378 . S
C565 C564 1.367 . S
C565 C573 1.433 . S
C566 H562 0.929 . S
C566 C568 1.378 . S
C566 C570 1.350 . S
C567 C570 1.463 . S
C567 C572 1.350 . S
C567 N575 1.427 . S
C568 H559 0.930 . S
C568 C566 1.378 . S
C568 C569 1.367 . S
C569 C568 1.367 . S
C569 C571 1.433 . S
C570 C566 1.350 . S
C570 C567 1.463 . S
C570 N574 1.427 . S
C571 H561 0.929 . S
C571 C569 1.433 . S
C571 N574 1.384 . S
C572 H563 0.929 . S
C572 C564 1.378 . S
C572 C567 1.350 . S
C573 H560 0.929 . S
C573 C565 1.433 . S
C573 N575 1.384 . S
N574 C570 1.427 . S
N574 C571 1.384 . S
N575 C567 1.427 . S
N575 C573 1.384 . S
C259 C2 1.053 . S
C263 C243 1.029 . S
C277 C21 1.012 . S
C281 C179 1.008 . S
C295 C42 1.073 . S
C299 C211 1.052 . S
C313 C1 1.006 . S
C317 C237 1.013 . S
C335 C173 1.036 . S
C331 C22 1.051 . S
C353 C205 0.996 . S
C349 C41 0.989 . S
C367 C38 1.872 . S
C371 C115 1.837 . S
C385 C59 1.917 . S
C389 C147 1.865 . S
C403 C18 1.855 . S
C407 C77 1.819 . S
C425 C109 1.879 . S
C421 C39 1.922 . S
C443 C141 1.852 . S
C439 C58 1.873 . S
C457 C19 1.943 . S
C461 C83 1.883 . S
C479 C153 1.543 . S
C475 C9 1.509 . S
C493 C29 1.514 . S
C497 C89 1.545 . S
C511 C49 1.515 . S
C515 C121 1.540 . S
C533 C217 1.368 . S
C529 C28 1.365 . S
C551 C249 1.365 . S
C547 C48 1.359 . S
C565 C8 1.367 . S
C569 C185 1.352 . S
