# Generated by pormake.
# Topology tsx, (6,3)-cn, num edge types: 1
# Building blocks:
#     Node 0, Type 0, BuildingBlock: MIDCAF_clean_sbu_0, # of connection points: 6
#     Node 1, Type 0, BuildingBlock: MIDCAF_clean_sbu_0, # of connection points: 6
#     Node 2, Type 1, BuildingBlock: BETDAH_clean_linker_0, # of connection points: 3
#     Node 3, Type 1, BuildingBlock: BETDAH_clean_linker_0, # of connection points: 3
#     Node 4, Type 1, BuildingBlock: BETDAH_clean_linker_0, # of connection points: 3
#     Node 5, Type 1, BuildingBlock: BETDAH_clean_linker_0, # of connection points: 3
#     Edge 6, Type (0, 1), BuildingBlock: UVAHIK_clean_linker_0, # of connection points: 2
#     Edge 7, Type (0, 1), BuildingBlock: UVAHIK_clean_linker_0, # of connection points: 2
#     Edge 8, Type (0, 1), BuildingBlock: UVAHIK_clean_linker_0, # of connection points: 2
#     Edge 9, Type (0, 1), BuildingBlock: UVAHIK_clean_linker_0, # of connection points: 2
#     Edge 10, Type (0, 1), BuildingBlock: UVAHIK_clean_linker_0, # of connection points: 2
#     Edge 11, Type (0, 1), BuildingBlock: UVAHIK_clean_linker_0, # of connection points: 2
#     Edge 12, Type (0, 1), BuildingBlock: UVAHIK_clean_linker_0, # of connection points: 2
#     Edge 13, Type (0, 1), BuildingBlock: UVAHIK_clean_linker_0, # of connection points: 2
#     Edge 14, Type (0, 1), BuildingBlock: UVAHIK_clean_linker_0, # of connection points: 2
#     Edge 15, Type (0, 1), BuildingBlock: UVAHIK_clean_linker_0, # of connection points: 2
#     Edge 16, Type (0, 1), BuildingBlock: UVAHIK_clean_linker_0, # of connection points: 2
#     Edge 17, Type (0, 1), BuildingBlock: UVAHIK_clean_linker_0, # of connection points: 2
# Relax obj value: 0.080
# Max RMSD: 0.150
# Mean RMSD: 0.111
data_MOF--net-tsx--node1-MIDCAF_clean_sbu_0--node2-BETDAH_clean_linker_0--edge1-UVAHIK_clean_linker_0
_symmetry_space_group_name_H-M    P1
_symmetry_Int_Tables_number       1
_symmetry_cell_setting            triclinic
loop_
_symmetry_equiv_pos_as_xyz
'x, y, z'
_cell_length_a     26.238718
_cell_length_b     27.510841
_cell_length_c     45.853511
_cell_angle_alpha  89.427577
_cell_angle_beta   103.77695
_cell_angle_gamma 89.877571
loop_
_atom_site_label
_atom_site_type_symbol
_atom_site_fract_x
_atom_site_fract_y
_atom_site_fract_z
_atom_type_partial_charge
Zn0 Zn 0.95078 0.00531 0.96703 0.0
Zn1 Zn 0.12992 -0.01089 0.05028 0.0
Zn2 Zn 0.04178 0.00281 0.00973 0.0
C3 C 0.12175 0.08781 0.03059 0.0
C4 C 0.136 0.92905 0.00398 0.0
O5 O 0.98014 0.96502 0.02719 0.0
O6 O 0.90817 0.96864 0.99037 0.0
C7 C 0.98301 0.10214 0.98362 0.0
O8 O 0.07379 0.07601 0.01922 0.0
O9 O 0.15504 0.05588 0.04272 0.0
O10 O 0.15607 0.93249 0.03175 0.0
O11 O 0.09622 0.95578 0.99138 0.0
O12 O 0.94764 0.07783 0.96638 0.0
O13 O 0.02214 0.08062 1.00141 0.0
O14 O 0.05386 0.97018 0.96784 0.0
O15 O 0.97686 0.97256 0.93485 0.0
C16 C 0.02516 0.96224 0.94131 0.0
O17 O 0.02338 0.97273 0.05095 0.0
O18 O 0.09868 0.97695 0.0851 0.0
C19 C 0.9313 0.95488 0.01656 0.0
C20 C 0.05005 0.96857 0.07835 0.0
Zn21 Zn 0.62742 0.49743 0.56126 0.0
Zn22 Zn 0.4597 0.48357 0.47318 0.0
Zn23 Zn 0.54125 0.49989 0.51606 0.0
C24 C 0.54196 0.46446 0.44852 0.0
C25 C 0.46205 0.58393 0.49002 0.0
O26 O 0.5226 0.46877 0.55735 0.0
O27 O 0.59475 0.47596 0.59377 0.0
C28 C 0.6493 0.44126 0.51572 0.0
O29 O 0.56543 0.4701 0.47637 0.0
O30 O 0.49309 0.47069 0.43978 0.0
O31 O 0.43266 0.55058 0.47663 0.0
O32 O 0.50903 0.57357 0.50484 0.0
O33 O 0.66724 0.4489 0.54336 0.0
O34 O 0.60512 0.46025 0.50172 0.0
O35 O 0.56113 0.57681 0.52315 0.0
O36 O 0.63755 0.56893 0.55635 0.0
C37 C 0.60314 0.59551 0.53947 0.0
O38 O 0.48401 0.45352 0.53277 0.0
O39 O 0.4297 0.42809 0.49122 0.0
C40 C 0.54705 0.46459 0.58524 0.0
C41 C 0.4458 0.42617 0.51942 0.0
H42 H 0.12769 0.95977 0.38176 0.0
H43 H 0.01618 0.0734 0.38526 0.0
H44 H 0.14388 0.04416 0.46171 0.0
C45 C 0.11365 -0.01154 0.3939 0.0
C46 C 0.14098 -0.00175 0.42346 0.0
C47 C 0.06854 0.01519 0.37982 0.0
C48 C 0.05078 0.05249 0.39584 0.0
C49 C 0.07808 0.06278 0.42549 0.0
C50 C 0.12296 0.03575 0.43896 0.0
N51 N 0.06247 0.10043 0.44249 0.0
C52 C 0.01378 0.12341 0.43574 0.0
H53 H 0.96752 0.93287 0.63698 0.0
H54 H 0.07419 0.05175 0.63657 0.0
H55 H 0.94909 0.02432 0.5589 0.0
C56 C 0.98156 0.96276 0.62549 0.0
C57 C 0.95436 0.97449 0.59609 0.0
C58 C 0.02456 -0.0094 0.64059 0.0
C59 C 0.04093 0.03019 0.62536 0.0
C60 C 0.01367 0.04234 0.5958 0.0
C61 C 0.97009 0.01482 0.58159 0.0
N62 N 0.02813 0.08237 0.57976 0.0
C63 C 0.07572 0.10674 0.5877 0.0
H64 H 0.61768 0.44493 0.88263 0.0
H65 H 0.50314 0.55375 0.88909 0.0
H66 H 0.6388 0.53168 0.96206 0.0
C67 C 0.604 0.47313 0.89527 0.0
C68 C 0.63415 0.48493 0.92393 0.0
C69 C 0.55688 0.49778 0.88241 0.0
C70 C 0.53933 0.53451 0.89886 0.0
C71 C 0.56875 0.54634 0.92781 0.0
C72 C 0.61595 0.52163 0.94003 0.0
N73 N 0.55287 0.58333 0.94521 0.0
C74 C 0.50485 0.60756 0.93783 0.0
H75 H 0.48983 0.43824 0.15335 0.0
H76 H 0.60692 0.54025 0.14127 0.0
H77 H 0.4866 0.49536 0.06522 0.0
C78 C 0.50662 0.46066 0.13849 0.0
C79 C 0.48233 0.46293 0.10772 0.0
C80 C 0.55195 0.48761 0.15067 0.0
C81 C 0.57209 0.51923 0.13196 0.0
C82 C 0.54807 0.52211 0.10103 0.0
C83 C 0.50385 0.49363 0.08915 0.0
N84 N 0.56772 0.55212 0.08087 0.0
C85 C 0.60511 0.58831 0.08918 0.0
C86 C 0.11705 0.17666 0.04094 0.0
C87 C 0.13993 0.13802 0.02882 0.0
C88 C 0.1413 0.22231 0.04427 0.0
C89 C 0.24346 0.29786 0.02255 0.0
H90 H 0.28292 0.33311 0.10659 0.0
C91 C 0.3939 0.45028 0.07185 0.0
C92 C 0.43503 0.43278 0.09529 0.0
C93 C 0.34915 0.422 0.06097 0.0
C94 C 0.27163 0.32413 0.08298 0.0
H95 H 0.20344 0.11685 0.0089 0.0
H96 H 0.24495 0.19654 0.01392 0.0
H97 H 0.21566 0.27147 0.08994 0.0
H98 H 0.4616 0.37067 0.12471 0.0
H99 H 0.38304 0.32272 0.10656 0.0
H100 H 0.3012 0.34929 0.01594 0.0
C101 C 0.20865 0.19195 0.02097 0.0
C102 C 0.23285 0.28922 0.0734 0.0
C103 C 0.18512 0.14631 0.01825 0.0
C104 C 0.43031 0.38617 0.10731 0.0
C105 C 0.38534 0.35847 0.09685 0.0
C106 C 0.28173 0.33341 0.03207 0.0
C107 C 0.18806 0.22997 0.03494 0.0
C108 C 0.21975 0.27446 0.04331 0.0
C109 C 0.34428 0.37613 0.07369 0.0
C110 C 0.29748 0.34548 0.06257 0.0
H111 H 0.08262 0.17074 0.04962 0.0
H112 H 0.12474 0.25104 0.05518 0.0
H113 H 0.234 0.28713 0.99922 0.0
H114 H 0.39577 0.48613 0.06222 0.0
H115 H 0.31797 0.4363 0.04301 0.0
C116 C 0.17163 0.84666 0.99943 0.0
C117 C 0.15832 0.893 0.98685 0.0
C118 C 0.19889 0.81376 0.98577 0.0
C119 C 0.29526 0.81154 0.94066 0.0
H120 H 0.27046 0.67261 0.94042 0.0
C121 C 0.44588 0.67474 0.9146 0.0
C122 C 0.45669 0.63482 0.93434 0.0
C123 C 0.4022 0.70448 0.91403 0.0
C124 C 0.27807 0.71128 0.9404 0.0
H125 H 0.16296 0.94153 0.95023 0.0
H126 H 0.21094 0.88371 0.92598 0.0
H127 H 0.20525 0.72837 0.95144 0.0
H128 H 0.431 0.5936 0.96853 0.0
H129 H 0.35516 0.64544 0.96795 0.0
H130 H 0.36917 0.79452 0.93109 0.0
C131 C 0.19961 0.87271 0.94629 0.0
C132 C 0.24057 0.74322 0.94659 0.0
C133 C 0.1716 0.90554 0.95986 0.0
C134 C 0.42283 0.62403 0.95289 0.0
C135 C 0.37929 0.65366 0.9524 0.0
C136 C 0.33296 0.77956 0.93463 0.0
C137 C 0.21424 0.8267 0.9594 0.0
C138 C 0.2494 0.79363 0.94763 0.0
C139 C 0.36881 0.69477 0.93331 0.0
C140 C 0.32553 0.72892 0.93529 0.0
H141 H 0.16208 0.83629 0.02036 0.0
H142 H 0.21017 0.77897 0.99671 0.0
H143 H 0.30349 0.85013 0.9416 0.0
H144 H 0.4719 0.68367 0.90021 0.0
H145 H 0.39506 0.73547 0.89884 0.0
C146 C 0.92588 0.88676 0.05255 0.0
C147 C 0.90183 0.92544 0.03407 0.0
C148 C 0.89544 0.85388 0.06465 0.0
C149 C 0.75801 0.8101 0.04797 0.0
H150 H 0.80394 0.73688 0.12233 0.0
C151 C 0.62007 0.67575 0.08544 0.0
C152 C 0.64057 0.62893 0.09246 0.0
C153 C 0.65343 0.71453 0.08354 0.0
C154 C 0.79074 0.7571 0.10149 0.0
H155 H 0.82821 0.96281 0.01599 0.0
H156 H 0.77566 0.90734 0.03813 0.0
H157 H 0.85962 0.80168 0.11002 0.0
H158 H 0.71136 0.58538 0.10416 0.0
H159 H 0.77031 0.65359 0.10105 0.0
H160 H 0.68937 0.76587 0.03938 0.0
C161 C 0.81747 0.90067 0.04227 0.0
C162 C 0.82265 0.7941 0.09437 0.0
C163 C 0.84762 0.9328 0.02976 0.0
C164 C 0.695 0.62152 0.09898 0.0
C165 C 0.72857 0.66047 0.09724 0.0
C166 C 0.72611 0.77373 0.05522 0.0
C167 C 0.84052 0.85954 0.05878 0.0
C168 C 0.80662 0.82113 0.06746 0.0
C169 C 0.70791 0.7071 0.08861 0.0
C170 C 0.74199 0.74677 0.08201 0.0
H171 H 0.96763 0.88017 0.05611 0.0
H172 H 0.91467 0.82268 0.07719 0.0
H173 H 0.74487 0.8288 0.02659 0.0
H174 H 0.57806 0.68201 0.08019 0.0
H175 H 0.63644 0.75014 0.07717 0.0
C176 C 0.95912 0.18126 0.95753 0.0
C177 C 0.97525 0.15504 0.98457 0.0
C178 C 0.9379 0.22788 0.95725 0.0
C179 C 0.9035 0.33252 0.96412 0.0
H180 H 0.78229 0.32492 0.9985 0.0
C181 C 0.7179 0.44614 0.91802 0.0
C182 C 0.68455 0.45879 0.93665 0.0
C183 C 0.76272 0.41785 0.92902 0.0
C184 C 0.81654 0.32855 0.98936 0.0
H185 H 0.98408 0.15732 0.03266 0.0
H186 H 0.94598 0.23902 0.03221 0.0
H187 H 0.84869 0.26122 0.00953 0.0
H188 H 0.67394 0.45336 0.98205 0.0
H189 H 0.75326 0.40538 1.00158 0.0
H190 H 0.87109 0.39936 0.94349 0.0
C191 C 0.95057 0.22373 0.0113 0.0
C192 C 0.85468 0.29186 0.99571 0.0
C193 C 0.97283 0.17731 0.01162 0.0
C194 C 0.69871 0.44438 0.96704 0.0
C195 C 0.74395 0.41634 0.97816 0.0
C196 C 0.86574 0.36959 0.95808 0.0
C197 C 0.93127 0.24874 0.98396 0.0
C198 C 0.8976 0.29261 0.98233 0.0
C199 C 0.77602 0.40183 0.95913 0.0
C200 C 0.82068 0.36717 0.96969 0.0
H201 H 0.96008 0.1645 0.93638 0.0
H202 H 0.92294 0.246 0.93582 0.0
H203 H 0.93646 0.33421 0.95371 0.0
H204 H 0.70894 0.45745 0.89465 0.0
H205 H 0.78579 0.40708 0.91347 0.0
C206 C 0.63453 0.67286 0.56459 0.0
C207 C 0.61459 0.64767 0.53788 0.0
C208 C 0.65724 0.71853 0.56391 0.0
C209 C 0.69338 0.82202 0.55531 0.0
H210 H 0.80962 0.81082 0.51697 0.0
C211 C 0.85947 0.96545 0.56959 0.0
C212 C 0.90919 0.94444 0.58095 0.0
C213 C 0.81598 0.93604 0.55794 0.0
C214 C 0.77693 0.81479 0.52743 0.0
H215 H 0.60028 0.65091 0.48944 0.0
H216 H 0.64156 0.73085 0.48822 0.0
H217 H 0.74088 0.74914 0.50805 0.0
H218 H 0.95313 0.87692 0.58796 0.0
H219 H 0.87757 0.82566 0.56704 0.0
H220 H 0.73079 0.88659 0.57572 0.0
C221 C 0.63878 0.71546 0.50962 0.0
C222 C 0.73736 0.77976 0.52213 0.0
C223 C 0.61495 0.67003 0.51028 0.0
C224 C 0.91514 0.8939 0.57938 0.0
C225 C 0.87201 0.86468 0.56725 0.0
C226 C 0.73257 0.85749 0.56025 0.0
C227 C 0.66155 0.73942 0.53653 0.0
C228 C 0.69619 0.78209 0.53686 0.0
C229 C 0.82184 0.88533 0.55688 0.0
C230 C 0.77569 0.85321 0.5472 0.0
H231 H 0.63499 0.65605 0.58612 0.0
H232 H 0.67491 0.73582 0.58501 0.0
H233 H 0.66205 0.82467 0.56692 0.0
H234 H 0.85395 0.00436 0.57072 0.0
H235 H 0.77771 0.95281 0.5501 0.0
C236 C 0.69663 0.36334 0.51459 0.0
C237 C 0.67762 0.40737 0.50039 0.0
C238 C 0.72442 0.33095 0.50089 0.0
C239 C 0.80984 0.32633 0.44916 0.0
H240 H 0.78667 0.18741 0.4525 0.0
C241 C 0.95098 0.18892 0.41433 0.0
C242 C 0.96562 0.14965 0.43427 0.0
C243 C 0.90826 0.21844 0.41615 0.0
C244 C 0.79384 0.22606 0.45147 0.0
H245 H 0.67423 0.45312 0.46138 0.0
H246 H 0.72303 0.39619 0.43706 0.0
H247 H 0.72582 0.24362 0.46751 0.0
H248 H 0.94765 0.10928 0.47122 0.0
H249 H 0.87369 0.16075 0.47481 0.0
H250 H 0.87922 0.30892 0.43453 0.0
C251 C 0.71563 0.38647 0.45862 0.0
C252 C 0.75885 0.25825 0.45998 0.0
C253 C 0.6872 0.41872 0.47228 0.0
C254 C 0.93638 0.13916 0.45538 0.0
C255 C 0.89389 0.1686 0.45729 0.0
C256 C 0.84515 0.29411 0.44086 0.0
C257 C 0.73453 0.34221 0.47285 0.0
C258 C 0.76721 0.30866 0.45966 0.0
C259 C 0.87982 0.20922 0.43809 0.0
C260 C 0.83837 0.24349 0.44268 0.0
H261 H 0.6899 0.35389 0.53637 0.0
H262 H 0.73921 0.29758 0.51266 0.0
H263 H 0.81752 0.36498 0.44889 0.0
H264 H 0.97348 0.19766 0.39801 0.0
H265 H 0.89819 0.24902 0.40079 0.0
C266 C 0.40658 0.40445 0.56272 0.0
C267 C 0.42111 0.39117 0.53634 0.0
C268 C 0.37801 0.37219 0.57653 0.0
C269 C 0.33906 0.2429 0.57903 0.0
H270 H 0.20837 0.29398 0.59176 0.0
C271 C 0.15873 0.12276 0.57372 0.0
C272 C 0.12365 0.13402 0.59138 0.0
C273 C 0.20196 0.15252 0.57408 0.0
C274 C 0.24517 0.27911 0.58902 0.0
H275 H 0.41872 0.33374 0.50411 0.0
H276 H 0.36954 0.27745 0.52816 0.0
H277 H 0.27348 0.34959 0.58047 0.0
H278 H 0.10597 0.18382 0.62383 0.0
H279 H 0.18231 0.23584 0.625 0.0
H280 H 0.31041 0.17237 0.58681 0.0
C281 C 0.3803 0.31241 0.53843 0.0
C282 C 0.28251 0.31108 0.58253 0.0
C283 C 0.40812 0.34475 0.52452 0.0
C284 C 0.13297 0.17451 0.61016 0.0
C285 C 0.17636 0.20437 0.61061 0.0
C286 C 0.30193 0.21098 0.5857 0.0
C287 C 0.36408 0.32599 0.56428 0.0
C288 C 0.32911 0.29318 0.57651 0.0
C289 C 0.21091 0.19422 0.59215 0.0
C290 C 0.25375 0.22852 0.58981 0.0
H291 H 0.41505 0.44048 0.5718 0.0
H292 H 0.36597 0.38366 0.59642 0.0
H293 H 0.37499 0.22811 0.57494 0.0
H294 H 0.1517 0.09189 0.55881 0.0
H295 H 0.22701 0.14393 0.55916 0.0
C296 C 0.4682 0.67307 0.50411 0.0
C297 C 0.4399 0.63387 0.48872 0.0
C298 C 0.44479 0.71924 0.50316 0.0
C299 C 0.3158 0.77599 0.49295 0.0
H300 H 0.37064 0.88977 0.46051 0.0
C301 C 0.1923 0.95002 0.46761 0.0
C302 C 0.18716 0.96802 0.43824 0.0
C303 C 0.23208 0.91676 0.48014 0.0
C304 C 0.35508 0.8584 0.46987 0.0
H305 H 0.36472 0.61305 0.46 0.0
H306 H 0.3244 0.69233 0.45896 0.0
H307 H 0.42391 0.8153 0.47079 0.0
H308 H 0.22211 0.96803 0.39989 0.0
H309 H 0.29079 0.90933 0.42148 0.0
H310 H 0.24616 0.8175 0.49077 0.0
C311 C 0.36456 0.68754 0.47174 0.0
C312 C 0.38574 0.81604 0.47597 0.0
C313 C 0.38796 0.64204 0.4723 0.0
C314 C 0.22451 0.95419 0.42238 0.0
C315 C 0.26433 0.92103 0.43493 0.0
C316 C 0.28544 0.81823 0.48712 0.0
C317 C 0.3924 0.72648 0.48732 0.0
C318 C 0.3655 0.774 0.48657 0.0
C319 C 0.26768 0.90086 0.46362 0.0
C320 C 0.30397 0.85946 0.47459 0.0
H321 H 0.50789 0.66801 0.51721 0.0
H322 H 0.46705 0.74887 0.51533 0.0
H323 H 0.29944 0.74405 0.50126 0.0
H324 H 0.16412 0.95986 0.4804 0.0
H325 H 0.23394 0.90228 0.50242 0.0
C326 C 0.99599 -0.00164 0.11196 0.0
C327 C 0.02388 0.96018 0.10289 0.0
C328 C 0.9843 -0.00315 0.14018 0.0
C329 C 0.03769 0.93744 0.21426 0.0
H330 H 0.93289 0.01713 0.23823 0.0
C331 C 0.03679 0.95627 0.33804 0.0
C332 C 0.04207 0.00461 0.34803 0.0
C333 C 0.02111 0.94609 0.30746 0.0
C334 C 0.96217 -0.00543 0.23177 0.0
H335 H 0.05733 0.88873 0.11438 0.0
H336 H 0.03341 0.88398 0.16261 0.0
H337 H 0.92724 0.00399 0.18485 0.0
H338 H 0.03085 0.08005 0.33376 0.0
H339 H 0.00248 0.06209 0.28015 0.0
H340 H 0.07239 0.92795 0.26111 0.0
C341 C 0.02271 0.91635 0.14889 0.0
C342 C 0.95921 -0.01284 0.20119 0.0
C343 C 0.03573 0.91855 0.12106 0.0
C344 C 0.02706 0.04244 0.32684 0.0
C345 C 0.01085 0.03218 0.29614 0.0
C346 C 0.03999 0.94407 0.24466 0.0
C347 C 0.99957 0.95665 0.15964 0.0
C348 C 0.99765 0.95931 0.19196 0.0
C349 C 0.00966 0.98396 0.28613 0.0
C350 C 0.00293 0.97341 0.25376 0.0
H351 H 0.98718 0.03111 0.09834 0.0
H352 H 0.96683 0.02882 0.14743 0.0
H353 H 0.069 0.91689 0.20845 0.0
H354 H 0.04676 0.92622 0.35384 0.0
H355 H 0.01976 0.90857 0.30037 0.0
C356 C 0.08091 0.98445 0.90685 0.0
C357 C 0.04949 0.94978 0.91664 0.0
C358 C 0.09367 0.97949 0.87914 0.0
C359 C 0.04031 0.91868 0.80629 0.0
H360 H 0.15373 -0.01201 0.78354 0.0
C361 C 0.05376 0.93143 0.68356 0.0
C362 C 0.04913 0.97977 0.67282 0.0
C363 C 0.06694 0.92135 0.71437 0.0
C364 C 0.12213 0.9682 0.78968 0.0
H365 H 0.00946 0.88127 0.90659 0.0
H366 H 0.03474 0.87034 0.8591 0.0
H367 H 0.1547 0.97751 0.83667 0.0
H368 H 0.05913 0.05524 0.6863 0.0
H369 H 0.08385 0.03734 0.74014 0.0
H370 H 0.00827 0.90905 0.75925 0.0
C371 C 0.04791 0.90259 0.87201 0.0
C372 C 0.12232 0.96243 0.82011 0.0
C373 C 0.034 0.90829 0.89942 0.0
C374 C 0.06257 0.0176 0.69367 0.0
C375 C 0.07662 0.00741 0.72453 0.0
C376 C 0.04084 0.92346 0.77604 0.0
C377 C 0.07575 0.9393 0.86074 0.0
C378 C 0.08056 0.9388 0.82886 0.0
C379 C 0.07694 0.9593 0.73513 0.0
C380 C 0.081 0.94926 0.7674 0.0
H381 H 0.0925 0.01717 0.91967 0.0
H382 H 0.11451 0.00897 0.87142 0.0
H383 H 0.00672 0.90125 0.81167 0.0
H384 H 0.04511 0.9013 0.66817 0.0
H385 H 0.06751 0.88392 0.72202 0.0
C386 C 0.52635 0.40985 0.62433 0.0
C387 C 0.51851 0.45397 0.60841 0.0
C388 C 0.51063 0.4048 0.65131 0.0
C389 C 0.44564 0.47148 0.70449 0.0
H390 H 0.55533 0.4072 0.76411 0.0
C391 C 0.51189 0.52392 0.82988 0.0
C392 C 0.52857 0.48644 0.8511 0.0
C393 C 0.49482 0.5133 0.7993 0.0
C394 C 0.52373 0.42458 0.74775 0.0
H395 H 0.48639 0.52658 0.60685 0.0
H396 H 0.46093 0.51897 0.65431 0.0
H397 H 0.55344 0.39866 0.71144 0.0
H398 H 0.5353 0.40822 0.85724 0.0
H399 H 0.50621 0.38982 0.80392 0.0
H400 H 0.41861 0.50015 0.74158 0.0
C401 C 0.47732 0.48739 0.64594 0.0
C402 C 0.52238 0.41947 0.71734 0.0
C403 C 0.49205 0.49197 0.61871 0.0
C404 C 0.52383 0.43797 0.84136 0.0
C405 C 0.50708 0.4274 0.81086 0.0
C406 C 0.44754 0.47721 0.73506 0.0
C407 C 0.48848 0.44444 0.66331 0.0
C408 C 0.48405 0.4437 0.69521 0.0
C409 C 0.49427 0.46502 0.78942 0.0
C410 C 0.48724 0.4545 0.757 0.0
H411 H 0.54699 0.3802 0.61672 0.0
H412 H 0.5185 0.37067 0.66352 0.0
H413 H 0.41488 0.48997 0.68819 0.0
H414 H 0.5153 0.56162 0.83664 0.0
H415 H 0.48548 0.54308 0.78327 0.0
C416 C 0.57191 0.41324 0.41137 0.0
C417 C 0.57189 0.45796 0.42564 0.0
C418 C 0.5893 0.41028 0.38487 0.0
C419 C 0.64687 0.48346 0.33066 0.0
H420 H 0.54981 0.40666 0.27221 0.0
C421 C 0.58797 0.52194 0.20207 0.0
C422 C 0.57726 0.48162 0.18307 0.0
C423 C 0.60254 0.51521 0.23331 0.0
C424 C 0.57797 0.42767 0.28828 0.0
H425 H 0.5917 0.53407 0.42478 0.0
H426 H 0.62016 0.52972 0.37807 0.0
H427 H 0.54912 0.39984 0.32472 0.0
H428 H 0.57827 0.40294 0.18146 0.0
H429 H 0.60381 0.39123 0.23577 0.0
H430 H 0.67318 0.51332 0.29334 0.0
C431 C 0.60862 0.49641 0.38744 0.0
C432 C 0.57782 0.42357 0.31858 0.0
C433 C 0.59212 0.49909 0.41418 0.0
C434 C 0.58537 0.43465 0.19567 0.0
C435 C 0.59993 0.42795 0.22672 0.0
C436 C 0.64655 0.48798 0.30014 0.0
C437 C 0.60538 0.45237 0.37173 0.0
C438 C 0.61159 0.45198 0.34021 0.0
C439 C 0.60667 0.46808 0.24593 0.0
C440 C 0.61153 0.46058 0.2786 0.0
H441 H 0.55618 0.38117 0.41991 0.0
H442 H 0.58756 0.37547 0.37388 0.0
H443 H 0.67398 0.50543 0.34666 0.0
H444 H 0.58191 0.55851 0.1929 0.0
H445 H 0.60728 0.54685 0.24756 0.0
loop_
_geom_bond_atom_site_label_1
_geom_bond_atom_site_label_2
_geom_bond_distance
_geom_bond_site_symmetry_2
_ccdc_geom_bond_type
Zn0 O6 1.920 1_545 S
Zn0 O12 1.898 . S
Zn0 O15 1.905 1_545 S
Zn1 O9 1.905 . S
Zn1 O10 1.898 1_545 S
Zn1 O18 1.920 1_545 S
Zn2 O5 2.080 1_445 S
Zn2 O8 2.114 . S
Zn2 O11 2.120 1_545 S
Zn2 O13 2.120 1_455 S
Zn2 O14 2.114 1_554 S
Zn2 O17 2.080 . S
C3 O8 1.166 . S
C3 O9 1.182 . S
C4 O10 1.167 . S
C4 O11 1.299 . S
O5 Zn2 2.080 1_665 S
O5 C19 1.305 . S
O6 Zn0 1.920 1_565 S
O6 C19 1.234 1_556 S
C7 O12 1.167 . S
C7 O13 1.299 1_556 S
O8 Zn2 2.114 . S
O8 C3 1.166 . S
O9 Zn1 1.905 . S
O9 C3 1.182 . S
O10 Zn1 1.898 1_565 S
O10 C4 1.167 . S
O11 Zn2 2.120 1_565 S
O11 C4 1.299 . S
O12 Zn0 1.898 . S
O12 C7 1.167 . S
O13 Zn2 2.120 1_655 S
O13 C7 1.299 1_554 S
O14 Zn2 2.114 1_556 S
O14 C16 1.166 1_545 S
O15 Zn0 1.905 1_565 S
O15 C16 1.182 1_655 S
C16 O14 1.166 1_565 S
C16 O15 1.182 1_455 S
O17 Zn2 2.080 . S
O17 C20 1.305 1_545 S
O18 Zn1 1.920 1_565 S
O18 C20 1.234 . S
C19 O5 1.305 . S
C19 O6 1.234 1_554 S
C20 O17 1.305 1_565 S
C20 O18 1.234 . S
Zn21 O27 1.920 . S
Zn21 O33 1.898 . S
Zn21 O36 1.905 . S
Zn22 O30 1.905 . S
Zn22 O31 1.898 . S
Zn22 O39 1.920 . S
Zn23 O26 2.080 . S
Zn23 O29 2.114 . S
Zn23 O32 2.120 . S
Zn23 O34 2.120 . S
Zn23 O35 2.114 . S
Zn23 O38 2.080 . S
C24 O29 1.166 . S
C24 O30 1.182 . S
C25 O31 1.167 . S
C25 O32 1.299 . S
O26 Zn23 2.080 . S
O26 C40 1.305 . S
O27 Zn21 1.920 . S
O27 C40 1.234 . S
C28 O33 1.167 . S
C28 O34 1.299 . S
O29 Zn23 2.114 . S
O29 C24 1.166 . S
O30 Zn22 1.905 . S
O30 C24 1.182 . S
O31 Zn22 1.898 . S
O31 C25 1.167 . S
O32 Zn23 2.120 . S
O32 C25 1.299 . S
O33 Zn21 1.898 . S
O33 C28 1.167 . S
O34 Zn23 2.120 . S
O34 C28 1.299 . S
O35 Zn23 2.114 . S
O35 C37 1.166 . S
O36 Zn21 1.905 . S
O36 C37 1.182 . S
C37 O35 1.166 . S
C37 O36 1.182 . S
O38 Zn23 2.080 . S
O38 C41 1.305 . S
O39 Zn22 1.920 . S
O39 C41 1.234 . S
C40 O26 1.305 . S
C40 O27 1.234 . S
C41 O38 1.305 . S
C41 O39 1.234 . S
H42 C45 0.929 1_565 S
H43 C48 0.929 . S
H44 C50 0.930 . S
C45 H42 0.929 1_545 S
C45 C46 1.398 1_545 S
C45 C47 1.396 . S
C46 C45 1.398 1_565 S
C46 C50 1.407 1_565 S
C47 C45 1.396 . S
C47 C48 1.394 . S
C48 H43 0.929 . S
C48 C47 1.394 . S
C48 C49 1.382 . S
C49 C48 1.382 . S
C49 C50 1.392 . S
C49 N51 1.420 . S
C50 H44 0.930 . S
C50 C46 1.407 1_545 S
C50 C49 1.392 . S
N51 C49 1.420 . S
N51 C52 1.244 . S
C52 N51 1.244 . S
H53 C56 0.929 . S
H54 C59 0.929 . S
H55 C61 0.932 . S
C56 H53 0.929 . S
C56 C57 1.398 . S
C56 C58 1.396 1_565 S
C57 C56 1.398 . S
C57 C61 1.407 1_565 S
C58 C56 1.396 1_545 S
C58 C59 1.394 1_655 S
C59 H54 0.929 . S
C59 C58 1.394 1_455 S
C59 C60 1.382 . S
C60 C59 1.382 . S
C60 C61 1.392 1_455 S
C60 N62 1.420 . S
C61 H55 0.932 . S
C61 C57 1.407 1_545 S
C61 C60 1.392 1_655 S
N62 C60 1.420 . S
N62 C63 1.244 . S
C63 N62 1.244 . S
H64 C67 0.929 . S
H65 C70 0.929 . S
H66 C72 0.930 . S
C67 H64 0.929 . S
C67 C68 1.398 . S
C67 C69 1.396 . S
C68 C67 1.398 . S
C68 C72 1.407 . S
C69 C67 1.396 . S
C69 C70 1.394 . S
C70 H65 0.929 . S
C70 C69 1.394 . S
C70 C71 1.382 . S
C71 C70 1.382 . S
C71 C72 1.392 . S
C71 N73 1.420 . S
C72 H66 0.930 . S
C72 C68 1.407 . S
C72 C71 1.392 . S
N73 C71 1.420 . S
N73 C74 1.244 . S
C74 N73 1.244 . S
H75 C78 0.929 . S
H76 C81 0.929 . S
H77 C83 0.930 . S
C78 H75 0.929 . S
C78 C79 1.398 . S
C78 C80 1.396 . S
C79 C78 1.398 . S
C79 C83 1.407 . S
C80 C78 1.396 . S
C80 C81 1.394 . S
C81 H76 0.929 . S
C81 C80 1.394 . S
C81 C82 1.382 . S
C82 C81 1.382 . S
C82 C83 1.392 . S
C82 N84 1.420 . S
C83 H77 0.930 . S
C83 C79 1.407 . S
C83 C82 1.392 . S
N84 C82 1.420 . S
N84 C85 1.244 . S
C85 N84 1.244 . S
C86 C87 1.349 . S
C86 C88 1.327 . S
C86 H111 0.950 . S
C87 C86 1.349 . S
C87 C103 1.349 . S
C88 C86 1.327 . S
C88 C107 1.429 . S
C88 H112 0.950 . S
C89 C106 1.574 . S
C89 C108 1.368 . S
C89 H113 0.949 . S
H90 C94 0.949 . S
C91 C92 1.349 . S
C91 C93 1.327 . S
C91 H114 0.950 . S
C92 C91 1.349 . S
C92 C104 1.349 . S
C93 C91 1.327 . S
C93 C109 1.429 . S
C93 H115 0.950 . S
C94 H90 0.949 . S
C94 C102 1.574 . S
C94 C110 1.368 . S
H95 C103 0.950 1_556 S
H96 C101 0.923 1_556 S
H97 C102 0.949 . S
H98 C104 0.950 . S
H99 C105 0.950 . S
H100 C106 0.949 . S
C101 H96 0.923 1_554 S
C101 C103 1.327 . S
C101 C107 1.429 . S
C102 C94 1.574 . S
C102 H97 0.949 . S
C102 C108 1.368 . S
C103 C87 1.349 . S
C103 H95 0.950 1_554 S
C103 C101 1.327 . S
C104 C92 1.349 . S
C104 H98 0.950 . S
C104 C105 1.327 . S
C105 H99 0.950 . S
C105 C104 1.327 . S
C105 C109 1.429 . S
C106 C89 1.574 . S
C106 H100 0.949 . S
C106 C110 1.368 . S
C107 C88 1.429 . S
C107 C101 1.429 . S
C107 C108 1.523 . S
C108 C89 1.368 . S
C108 C102 1.368 . S
C108 C107 1.523 . S
C109 C93 1.429 . S
C109 C105 1.429 . S
C109 C110 1.523 . S
C110 C94 1.368 . S
C110 C106 1.368 . S
C110 C109 1.523 . S
H111 C86 0.950 . S
H112 C88 0.950 . S
H113 C89 0.949 . S
H114 C91 0.950 . S
H115 C93 0.950 . S
C116 C117 1.349 1_554 S
C116 C118 1.327 . S
C116 H141 0.950 . S
C117 C116 1.349 1_556 S
C117 C133 1.349 . S
C118 C116 1.327 . S
C118 C137 1.429 1_554 S
C118 H142 0.950 . S
C119 C136 1.574 . S
C119 C138 1.368 . S
C119 H143 0.949 . S
H120 C124 0.949 1_554 S
C121 C122 1.349 . S
C121 C123 1.327 . S
C121 H144 0.950 . S
C122 C121 1.349 . S
C122 C134 1.349 . S
C123 C121 1.327 . S
C123 C139 1.429 . S
C123 H145 0.950 . S
C124 H120 0.949 1_556 S
C124 C132 1.564 1_556 S
C124 C140 1.368 . S
H125 C133 0.950 . S
H126 C131 0.950 . S
H127 C132 0.973 . S
H128 C134 0.950 . S
H129 C135 0.950 . S
H130 C136 0.949 . S
C131 H126 0.950 . S
C131 C133 1.327 . S
C131 C137 1.429 . S
C132 C124 1.564 1_554 S
C132 H127 0.973 . S
C132 C138 1.352 1_554 S
C133 C117 1.349 . S
C133 H125 0.950 . S
C133 C131 1.327 . S
C134 C122 1.349 . S
C134 H128 0.950 . S
C134 C135 1.327 . S
C135 H129 0.950 . S
C135 C134 1.327 . S
C135 C139 1.429 . S
C136 C119 1.574 . S
C136 H130 0.949 . S
C136 C140 1.368 . S
C137 C118 1.429 1_556 S
C137 C131 1.429 . S
C137 C138 1.523 . S
C138 C119 1.368 . S
C138 C132 1.352 1_556 S
C138 C137 1.523 . S
C139 C123 1.429 . S
C139 C135 1.429 . S
C139 C140 1.523 . S
C140 C124 1.368 . S
C140 C136 1.368 . S
C140 C139 1.523 . S
H141 C116 0.950 . S
H142 C118 0.950 . S
H143 C119 0.949 . S
H144 C121 0.950 . S
H145 C123 0.950 . S
C146 C147 1.349 . S
C146 C148 1.327 . S
C146 H171 0.950 . S
C147 C146 1.349 . S
C147 C163 1.349 . S
C148 C146 1.327 . S
C148 C167 1.429 . S
C148 H172 0.950 . S
C149 C166 1.574 . S
C149 C168 1.368 . S
C149 H173 0.949 . S
H150 C154 0.949 . S
C151 C152 1.349 . S
C151 C153 1.327 . S
C151 H174 0.950 . S
C152 C151 1.349 . S
C152 C164 1.349 . S
C153 C151 1.327 . S
C153 C169 1.429 . S
C153 H175 0.950 . S
C154 H150 0.949 . S
C154 C162 1.574 . S
C154 C170 1.368 . S
H155 C163 0.950 . S
H156 C161 0.950 . S
H157 C162 0.949 . S
H158 C164 0.950 . S
H159 C165 0.950 . S
H160 C166 0.949 . S
C161 H156 0.950 . S
C161 C163 1.327 . S
C161 C167 1.429 . S
C162 C154 1.574 . S
C162 H157 0.949 . S
C162 C168 1.368 . S
C163 C147 1.349 . S
C163 H155 0.950 . S
C163 C161 1.327 . S
C164 C152 1.349 . S
C164 H158 0.950 . S
C164 C165 1.327 . S
C165 H159 0.950 . S
C165 C164 1.327 . S
C165 C169 1.429 . S
C166 C149 1.574 . S
C166 H160 0.949 . S
C166 C170 1.368 . S
C167 C148 1.429 . S
C167 C161 1.429 . S
C167 C168 1.523 . S
C168 C149 1.368 . S
C168 C162 1.368 . S
C168 C167 1.523 . S
C169 C153 1.429 . S
C169 C165 1.429 . S
C169 C170 1.523 . S
C170 C154 1.368 . S
C170 C166 1.368 . S
C170 C169 1.523 . S
H171 C146 0.950 . S
H172 C148 0.950 . S
H173 C149 0.949 . S
H174 C151 0.950 . S
H175 C153 0.950 . S
C176 C177 1.349 . S
C176 C178 1.327 . S
C176 H201 0.950 . S
C177 C176 1.349 . S
C177 C193 1.349 1_556 S
C178 C176 1.327 . S
C178 C197 1.429 . S
C178 H202 0.950 . S
C179 C196 1.574 . S
C179 C198 1.368 . S
C179 H203 0.949 1_556 S
H180 C184 0.949 . S
C181 C182 1.349 . S
C181 C183 1.327 . S
C181 H204 0.950 . S
C182 C181 1.349 . S
C182 C194 1.349 . S
C183 C181 1.327 . S
C183 C199 1.429 . S
C183 H205 0.950 . S
C184 H180 0.949 . S
C184 C192 1.574 . S
C184 C200 1.368 . S
H185 C193 0.950 . S
H186 C191 0.950 . S
H187 C192 0.949 . S
H188 C194 0.950 . S
H189 C195 0.950 . S
H190 C196 0.949 1_554 S
C191 H186 0.950 . S
C191 C193 1.327 . S
C191 C197 1.429 1_554 S
C192 C184 1.574 . S
C192 H187 0.949 . S
C192 C198 1.368 . S
C193 C177 1.349 1_554 S
C193 H185 0.950 . S
C193 C191 1.327 . S
C194 C182 1.349 . S
C194 H188 0.950 . S
C194 C195 1.327 . S
C195 H189 0.950 . S
C195 C194 1.327 . S
C195 C199 1.429 . S
C196 C179 1.574 . S
C196 H190 0.949 1_556 S
C196 C200 1.368 . S
C197 C178 1.429 . S
C197 C191 1.429 1_556 S
C197 C198 1.523 . S
C198 C179 1.368 . S
C198 C192 1.368 . S
C198 C197 1.523 . S
C199 C183 1.429 . S
C199 C195 1.429 . S
C199 C200 1.523 . S
C200 C184 1.368 . S
C200 C196 1.368 . S
C200 C199 1.523 . S
H201 C176 0.950 . S
H202 C178 0.950 . S
H203 C179 0.949 1_554 S
H204 C181 0.950 . S
H205 C183 0.950 . S
C206 C207 1.349 . S
C206 C208 1.327 . S
C206 H231 0.950 . S
C207 C206 1.349 . S
C207 C223 1.349 . S
C208 C206 1.327 . S
C208 C227 1.429 . S
C208 H232 0.950 . S
C209 C226 1.574 . S
C209 C228 1.368 . S
C209 H233 0.949 . S
H210 C214 0.949 . S
C211 C212 1.349 . S
C211 C213 1.327 . S
C211 H234 0.950 . S
C212 C211 1.349 . S
C212 C224 1.349 . S
C213 C211 1.327 . S
C213 C229 1.429 . S
C213 H235 0.950 . S
C214 H210 0.949 . S
C214 C222 1.574 . S
C214 C230 1.368 . S
H215 C223 0.950 . S
H216 C221 0.950 . S
H217 C222 0.949 . S
H218 C224 0.950 . S
H219 C225 0.950 . S
H220 C226 0.949 . S
C221 H216 0.950 . S
C221 C223 1.327 . S
C221 C227 1.429 . S
C222 C214 1.574 . S
C222 H217 0.949 . S
C222 C228 1.368 . S
C223 C207 1.349 . S
C223 H215 0.950 . S
C223 C221 1.327 . S
C224 C212 1.349 . S
C224 H218 0.950 . S
C224 C225 1.327 . S
C225 H219 0.950 . S
C225 C224 1.327 . S
C225 C229 1.429 . S
C226 C209 1.574 . S
C226 H220 0.949 . S
C226 C230 1.368 . S
C227 C208 1.429 . S
C227 C221 1.429 . S
C227 C228 1.523 . S
C228 C209 1.368 . S
C228 C222 1.368 . S
C228 C227 1.523 . S
C229 C213 1.429 . S
C229 C225 1.429 . S
C229 C230 1.523 . S
C230 C214 1.368 . S
C230 C226 1.368 . S
C230 C229 1.523 . S
H231 C206 0.950 . S
H232 C208 0.950 . S
H233 C209 0.949 . S
H234 C211 0.950 . S
H235 C213 0.950 . S
C236 C237 1.349 . S
C236 C238 1.327 . S
C236 H261 0.950 . S
C237 C236 1.349 . S
C237 C253 1.349 . S
C238 C236 1.327 . S
C238 C257 1.429 . S
C238 H262 0.950 . S
C239 C256 1.574 . S
C239 C258 1.368 . S
C239 H263 0.949 . S
H240 C244 0.949 . S
C241 C242 1.349 . S
C241 C243 1.327 . S
C241 H264 0.950 . S
C242 C241 1.349 . S
C242 C254 1.349 . S
C243 C241 1.327 . S
C243 C259 1.429 . S
C243 H265 0.950 . S
C244 H240 0.949 . S
C244 C252 1.574 . S
C244 C260 1.368 . S
H245 C253 0.950 . S
H246 C251 0.950 . S
H247 C252 0.949 . S
H248 C254 0.950 . S
H249 C255 0.950 . S
H250 C256 0.949 . S
C251 H246 0.950 . S
C251 C253 1.327 . S
C251 C257 1.429 . S
C252 C244 1.574 . S
C252 H247 0.949 . S
C252 C258 1.368 . S
C253 C237 1.349 . S
C253 H245 0.950 . S
C253 C251 1.327 . S
C254 C242 1.349 . S
C254 H248 0.950 . S
C254 C255 1.327 . S
C255 H249 0.950 . S
C255 C254 1.327 . S
C255 C259 1.429 . S
C256 C239 1.574 . S
C256 H250 0.949 . S
C256 C260 1.368 . S
C257 C238 1.429 . S
C257 C251 1.429 . S
C257 C258 1.523 . S
C258 C239 1.368 . S
C258 C252 1.368 . S
C258 C257 1.523 . S
C259 C243 1.429 . S
C259 C255 1.429 . S
C259 C260 1.523 . S
C260 C244 1.368 . S
C260 C256 1.368 . S
C260 C259 1.523 . S
H261 C236 0.950 . S
H262 C238 0.950 . S
H263 C239 0.949 . S
H264 C241 0.950 . S
H265 C243 0.950 . S
C266 C267 1.349 . S
C266 C268 1.327 . S
C266 H291 0.950 . S
C267 C266 1.349 . S
C267 C283 1.349 . S
C268 C266 1.327 . S
C268 C287 1.429 . S
C268 H292 0.950 . S
C269 C286 1.574 . S
C269 C288 1.368 . S
C269 H293 0.949 . S
H270 C274 0.949 . S
C271 C272 1.349 . S
C271 C273 1.327 . S
C271 H294 0.950 . S
C272 C271 1.349 . S
C272 C284 1.349 . S
C273 C271 1.327 . S
C273 C289 1.429 . S
C273 H295 0.950 . S
C274 H270 0.949 . S
C274 C282 1.574 . S
C274 C290 1.368 . S
H275 C283 0.950 . S
H276 C281 0.950 . S
H277 C282 0.949 . S
H278 C284 0.950 . S
H279 C285 0.950 . S
H280 C286 0.949 . S
C281 H276 0.950 . S
C281 C283 1.327 . S
C281 C287 1.429 . S
C282 C274 1.574 . S
C282 H277 0.949 . S
C282 C288 1.368 . S
C283 C267 1.349 . S
C283 H275 0.950 . S
C283 C281 1.327 . S
C284 C272 1.349 . S
C284 H278 0.950 . S
C284 C285 1.327 . S
C285 H279 0.950 . S
C285 C284 1.327 . S
C285 C289 1.429 . S
C286 C269 1.574 . S
C286 H280 0.949 . S
C286 C290 1.368 . S
C287 C268 1.429 . S
C287 C281 1.429 . S
C287 C288 1.523 . S
C288 C269 1.368 . S
C288 C282 1.368 . S
C288 C287 1.523 . S
C289 C273 1.429 . S
C289 C285 1.429 . S
C289 C290 1.523 . S
C290 C274 1.368 . S
C290 C286 1.368 . S
C290 C289 1.523 . S
H291 C266 0.950 . S
H292 C268 0.950 . S
H293 C269 0.949 . S
H294 C271 0.950 . S
H295 C273 0.950 . S
C296 C297 1.349 . S
C296 C298 1.327 . S
C296 H321 0.950 . S
C297 C296 1.349 . S
C297 C313 1.349 . S
C298 C296 1.327 . S
C298 C317 1.429 . S
C298 H322 0.950 . S
C299 C316 1.574 . S
C299 C318 1.368 . S
C299 H323 0.949 . S
H300 C304 0.949 . S
C301 C302 1.349 . S
C301 C303 1.327 . S
C301 H324 0.950 . S
C302 C301 1.349 . S
C302 C314 1.349 . S
C303 C301 1.327 . S
C303 C319 1.429 . S
C303 H325 0.950 . S
C304 H300 0.949 . S
C304 C312 1.574 . S
C304 C320 1.368 . S
H305 C313 0.950 . S
H306 C311 0.950 . S
H307 C312 0.949 . S
H308 C314 0.950 . S
H309 C315 0.950 . S
H310 C316 0.949 . S
C311 H306 0.950 . S
C311 C313 1.327 . S
C311 C317 1.429 . S
C312 C304 1.574 . S
C312 H307 0.949 . S
C312 C318 1.368 . S
C313 C297 1.349 . S
C313 H305 0.950 . S
C313 C311 1.327 . S
C314 C302 1.349 . S
C314 H308 0.950 . S
C314 C315 1.327 . S
C315 H309 0.950 . S
C315 C314 1.327 . S
C315 C319 1.429 . S
C316 C299 1.574 . S
C316 H310 0.949 . S
C316 C320 1.368 . S
C317 C298 1.429 . S
C317 C311 1.429 . S
C317 C318 1.523 . S
C318 C299 1.368 . S
C318 C312 1.368 . S
C318 C317 1.523 . S
C319 C303 1.429 . S
C319 C315 1.429 . S
C319 C320 1.523 . S
C320 C304 1.368 . S
C320 C316 1.368 . S
C320 C319 1.523 . S
H321 C296 0.950 . S
H322 C298 0.950 . S
H323 C299 0.949 . S
H324 C301 0.950 . S
H325 C303 0.950 . S
C326 C327 1.349 1_545 S
C326 C328 1.327 . S
C326 H351 0.950 . S
C327 C326 1.349 1_565 S
C327 C343 1.349 . S
C328 C326 1.327 . S
C328 C347 1.428 . S
C328 H352 0.950 . S
C329 C346 1.574 . S
C329 C348 1.368 1_565 S
C329 H353 0.949 . S
H330 C334 0.949 . S
C331 C332 1.349 1_565 S
C331 C333 1.327 . S
C331 H354 0.950 . S
C332 C331 1.349 1_545 S
C332 C344 1.349 . S
C333 C331 1.327 . S
C333 C349 1.429 1_565 S
C333 H355 0.950 . S
C334 H330 0.949 . S
C334 C342 1.574 . S
C334 C350 1.368 . S
H335 C343 0.950 . S
H336 C341 0.950 . S
H337 C342 0.949 . S
H338 C344 0.950 . S
H339 C345 0.950 . S
H340 C346 0.949 . S
C341 H336 0.950 . S
C341 C343 1.327 . S
C341 C347 1.429 1_565 S
C342 C334 1.574 . S
C342 H337 0.949 . S
C342 C348 1.368 . S
C343 C327 1.349 . S
C343 H335 0.950 . S
C343 C341 1.327 . S
C344 C332 1.349 . S
C344 H338 0.950 . S
C344 C345 1.327 . S
C345 H339 0.950 . S
C345 C344 1.327 . S
C345 C349 1.429 . S
C346 C329 1.574 . S
C346 H340 0.949 . S
C346 C350 1.368 1_565 S
C347 C328 1.428 . S
C347 C341 1.429 1_545 S
C347 C348 1.523 . S
C348 C329 1.368 1_545 S
C348 C342 1.368 . S
C348 C347 1.523 . S
C349 C333 1.429 1_545 S
C349 C345 1.429 . S
C349 C350 1.523 . S
C350 C334 1.368 . S
C350 C346 1.368 1_545 S
C350 C349 1.523 . S
H351 C326 0.950 . S
H352 C328 0.950 . S
H353 C329 0.949 . S
H354 C331 0.950 . S
H355 C333 0.950 . S
C356 C357 1.349 1_545 S
C356 C358 1.327 . S
C356 H381 0.950 . S
C357 C356 1.349 1_565 S
C357 C373 1.349 1_455 S
C358 C356 1.327 . S
C358 C377 1.429 1_545 S
C358 H382 0.950 . S
C359 C376 1.574 . S
C359 C378 1.368 1_665 S
C359 H383 0.949 . S
H360 C364 0.949 . S
C361 C362 1.360 1_565 S
C361 C363 1.327 . S
C361 H384 0.950 . S
C362 C361 1.360 1_545 S
C362 C374 1.341 1_655 S
C363 C361 1.327 . S
C363 C379 1.429 1_665 S
C363 H385 0.950 . S
C364 H360 0.949 . S
C364 C372 1.574 . S
C364 C380 1.368 . S
H365 C373 0.950 . S
H366 C371 0.950 . S
H367 C372 0.949 . S
H368 C374 0.950 . S
H369 C375 0.950 . S
H370 C376 0.949 . S
C371 H366 0.950 . S
C371 C373 1.327 . S
C371 C377 1.429 1_655 S
C372 C364 1.574 . S
C372 H367 0.949 . S
C372 C378 1.368 . S
C373 C357 1.349 1_655 S
C373 H365 0.950 . S
C373 C371 1.327 . S
C374 C362 1.341 1_455 S
C374 H368 0.950 . S
C374 C375 1.327 . S
C375 H369 0.950 . S
C375 C374 1.327 . S
C375 C379 1.429 . S
C376 C359 1.574 . S
C376 H370 0.949 . S
C376 C380 1.368 1_665 S
C377 C358 1.429 1_565 S
C377 C371 1.429 1_455 S
C377 C378 1.523 1_565 S
C378 C359 1.368 1_445 S
C378 C372 1.368 . S
C378 C377 1.523 1_545 S
C379 C363 1.429 1_445 S
C379 C375 1.429 . S
C379 C380 1.523 . S
C380 C364 1.368 . S
C380 C376 1.368 1_445 S
C380 C379 1.523 . S
H381 C356 0.950 . S
H382 C358 0.950 . S
H383 C359 0.949 . S
H384 C361 0.950 . S
H385 C363 0.950 . S
C386 C387 1.349 . S
C386 C388 1.327 . S
C386 H411 0.950 . S
C387 C386 1.349 . S
C387 C403 1.349 . S
C388 C386 1.327 . S
C388 C407 1.429 . S
C388 H412 0.950 . S
C389 C406 1.574 . S
C389 C408 1.368 . S
C389 H413 0.949 . S
H390 C394 0.949 . S
C391 C392 1.349 . S
C391 C393 1.327 . S
C391 H414 0.950 . S
C392 C391 1.349 . S
C392 C404 1.349 . S
C393 C391 1.327 . S
C393 C409 1.429 . S
C393 H415 0.950 . S
C394 H390 0.949 . S
C394 C402 1.574 . S
C394 C410 1.368 . S
H395 C403 0.950 . S
H396 C401 0.950 . S
H397 C402 0.949 . S
H398 C404 0.950 . S
H399 C405 0.950 . S
H400 C406 0.949 . S
C401 H396 0.950 . S
C401 C403 1.327 . S
C401 C407 1.429 . S
C402 C394 1.574 . S
C402 H397 0.949 . S
C402 C408 1.368 . S
C403 C387 1.349 . S
C403 H395 0.950 . S
C403 C401 1.327 . S
C404 C392 1.349 . S
C404 H398 0.950 . S
C404 C405 1.327 . S
C405 H399 0.950 . S
C405 C404 1.327 . S
C405 C409 1.429 . S
C406 C389 1.574 . S
C406 H400 0.949 . S
C406 C410 1.368 . S
C407 C388 1.429 . S
C407 C401 1.429 . S
C407 C408 1.523 . S
C408 C389 1.368 . S
C408 C402 1.368 . S
C408 C407 1.523 . S
C409 C393 1.429 . S
C409 C405 1.429 . S
C409 C410 1.523 . S
C410 C394 1.368 . S
C410 C406 1.368 . S
C410 C409 1.523 . S
H411 C386 0.950 . S
H412 C388 0.950 . S
H413 C389 0.949 . S
H414 C391 0.950 . S
H415 C393 0.950 . S
C416 C417 1.349 . S
C416 C418 1.327 . S
C416 H441 0.950 . S
C417 C416 1.349 . S
C417 C433 1.349 . S
C418 C416 1.327 . S
C418 C437 1.429 . S
C418 H442 0.950 . S
C419 C436 1.574 . S
C419 C438 1.368 . S
C419 H443 0.949 . S
H420 C424 0.949 . S
C421 C422 1.349 . S
C421 C423 1.327 . S
C421 H444 0.950 . S
C422 C421 1.349 . S
C422 C434 1.349 . S
C423 C421 1.327 . S
C423 C439 1.429 . S
C423 H445 0.950 . S
C424 H420 0.949 . S
C424 C432 1.574 . S
C424 C440 1.368 . S
H425 C433 0.950 . S
H426 C431 0.950 . S
H427 C432 0.949 . S
H428 C434 0.950 . S
H429 C435 0.950 . S
H430 C436 0.949 . S
C431 H426 0.950 . S
C431 C433 1.327 . S
C431 C437 1.429 . S
C432 C424 1.574 . S
C432 H427 0.949 . S
C432 C438 1.368 . S
C433 C417 1.349 . S
C433 H425 0.950 . S
C433 C431 1.327 . S
C434 C422 1.349 . S
C434 H428 0.950 . S
C434 C435 1.327 . S
C435 H429 0.950 . S
C435 C434 1.327 . S
C435 C439 1.429 . S
C436 C419 1.574 . S
C436 H430 0.949 . S
C436 C440 1.368 . S
C437 C418 1.429 . S
C437 C431 1.429 . S
C437 C438 1.523 . S
C438 C419 1.368 . S
C438 C432 1.368 . S
C438 C437 1.523 . S
C439 C423 1.429 . S
C439 C435 1.429 . S
C439 C440 1.523 . S
C440 C424 1.368 . S
C440 C436 1.368 . S
C440 C439 1.523 . S
H441 C416 0.950 . S
H442 C418 0.950 . S
H443 C419 0.949 . S
H444 C421 0.950 . S
H445 C423 0.950 . S
C92 C79 1.277 . S
C87 C3 1.172 . S
C117 C4 1.448 1_556 S
C122 C74 1.531 . S
C147 C19 1.475 . S
C152 C85 1.552 . S
C177 C7 1.176 . S
C182 C68 1.288 . S
C207 C37 1.172 . S
C212 C57 1.277 . S
C237 C28 1.448 . S
C242 C52 1.531 1_655 S
C272 C63 1.552 . S
C267 C41 1.475 . S
C302 C46 1.288 . S
C297 C25 1.176 . S
C327 C20 1.340 . S
C332 C47 1.467 . S
C357 C16 1.390 . S
C362 C58 1.514 . S
C392 C69 1.467 . S
C387 C40 1.340 . S
C417 C24 1.390 . S
C422 C80 1.516 . S
