# Generated by pormake.
# Topology the, (3,8)-cn, num edge types: 1
# Building blocks:
#     Node 0, Type 0, BuildingBlock: QEWDON_clean_linker_0, # of connection points: 3
#     Node 1, Type 0, BuildingBlock: QEWDON_clean_linker_0, # of connection points: 3
#     Node 2, Type 0, BuildingBlock: QEWDON_clean_linker_0, # of connection points: 3
#     Node 3, Type 0, BuildingBlock: QEWDON_clean_linker_0, # of connection points: 3
#     Node 4, Type 0, BuildingBlock: QEWDON_clean_linker_0, # of connection points: 3
#     Node 5, Type 0, BuildingBlock: QEWDON_clean_linker_0, # of connection points: 3
#     Node 6, Type 0, BuildingBlock: QEWDON_clean_linker_0, # of connection points: 3
#     Node 7, Type 0, BuildingBlock: QEWDON_clean_linker_0, # of connection points: 3
#     Node 8, Type 1, BuildingBlock: GIZVER_clean_sbu_0, # of connection points: 8
#     Node 9, Type 1, BuildingBlock: GIZVER_clean_sbu_0, # of connection points: 8
#     Node 10, Type 1, BuildingBlock: GIZVER_clean_sbu_0, # of connection points: 8
#     Edge 11, Type (0, 1), BuildingBlock: EZIPEK_clean_linker_0, # of connection points: 2
#     Edge 12, Type (0, 1), BuildingBlock: EZIPEK_clean_linker_0, # of connection points: 2
#     Edge 13, Type (0, 1), BuildingBlock: EZIPEK_clean_linker_0, # of connection points: 2
#     Edge 14, Type (0, 1), BuildingBlock: EZIPEK_clean_linker_0, # of connection points: 2
#     Edge 15, Type (0, 1), BuildingBlock: EZIPEK_clean_linker_0, # of connection points: 2
#     Edge 16, Type (0, 1), BuildingBlock: EZIPEK_clean_linker_0, # of connection points: 2
#     Edge 17, Type (0, 1), BuildingBlock: EZIPEK_clean_linker_0, # of connection points: 2
#     Edge 18, Type (0, 1), BuildingBlock: EZIPEK_clean_linker_0, # of connection points: 2
#     Edge 19, Type (0, 1), BuildingBlock: EZIPEK_clean_linker_0, # of connection points: 2
#     Edge 20, Type (0, 1), BuildingBlock: EZIPEK_clean_linker_0, # of connection points: 2
#     Edge 21, Type (0, 1), BuildingBlock: EZIPEK_clean_linker_0, # of connection points: 2
#     Edge 22, Type (0, 1), BuildingBlock: EZIPEK_clean_linker_0, # of connection points: 2
#     Edge 23, Type (0, 1), BuildingBlock: EZIPEK_clean_linker_0, # of connection points: 2
#     Edge 24, Type (0, 1), BuildingBlock: EZIPEK_clean_linker_0, # of connection points: 2
#     Edge 25, Type (0, 1), BuildingBlock: EZIPEK_clean_linker_0, # of connection points: 2
#     Edge 26, Type (0, 1), BuildingBlock: EZIPEK_clean_linker_0, # of connection points: 2
#     Edge 27, Type (0, 1), BuildingBlock: EZIPEK_clean_linker_0, # of connection points: 2
#     Edge 28, Type (0, 1), BuildingBlock: EZIPEK_clean_linker_0, # of connection points: 2
#     Edge 29, Type (0, 1), BuildingBlock: EZIPEK_clean_linker_0, # of connection points: 2
#     Edge 30, Type (0, 1), BuildingBlock: EZIPEK_clean_linker_0, # of connection points: 2
#     Edge 31, Type (0, 1), BuildingBlock: EZIPEK_clean_linker_0, # of connection points: 2
#     Edge 32, Type (0, 1), BuildingBlock: EZIPEK_clean_linker_0, # of connection points: 2
#     Edge 33, Type (0, 1), BuildingBlock: EZIPEK_clean_linker_0, # of connection points: 2
#     Edge 34, Type (0, 1), BuildingBlock: EZIPEK_clean_linker_0, # of connection points: 2
# Relax obj value: 0.103
# Max RMSD: 0.272
# Mean RMSD: 0.173
data_MOF--net-the--node1-GIZVER_clean_sbu_0--node2-QEWDON_clean_linker_0--edge1-EZIPEK_clean_linker_0
_symmetry_space_group_name_H-M    P1
_symmetry_Int_Tables_number       1
_symmetry_cell_setting            triclinic
loop_
_symmetry_equiv_pos_as_xyz
'x, y, z'
_cell_length_a     31.359414
_cell_length_b     29.256648
_cell_length_c     28.147811
_cell_angle_alpha  87.441418
_cell_angle_beta   96.877401
_cell_angle_gamma 115.306
loop_
_atom_site_label
_atom_site_type_symbol
_atom_site_fract_x
_atom_site_fract_y
_atom_site_fract_z
_atom_type_partial_charge
H0 H 0.35701 0.23205 0.43079 0.0
C1 C 0.37561 0.25502 0.40204 0.0
C2 C 0.42082 0.25884 0.3953 0.0
C3 C 0.35232 0.27621 0.36894 0.0
H4 H 0.47972 0.29337 0.35276 0.0
C5 C 0.44453 0.28927 0.35771 0.0
C6 C 0.42168 0.31185 0.32474 0.0
C7 C 0.375 0.30353 0.33021 0.0
C8 C 0.30186 0.26432 0.37017 0.0
H9 H 0.35591 0.31813 0.30381 0.0
C10 C 0.288 0.29388 0.39724 0.0
C11 C 0.24052 0.28759 0.39133 0.0
C12 C 0.26779 0.22669 0.33928 0.0
H13 H 0.27809 0.20387 0.31802 0.0
C14 C 0.22055 0.21935 0.33441 0.0
H15 H 0.31434 0.32323 0.42088 0.0
C16 C 0.20707 0.25005 0.35965 0.0
H17 H 0.17043 0.24469 0.35431 0.0
H18 H 0.19452 0.19058 0.31015 0.0
H19 H 0.7928 0.35314 0.31414 0.0
C20 C 0.78417 0.31563 0.32855 0.0
C21 C 0.81754 0.30721 0.36149 0.0
C22 C 0.73841 0.27663 0.31763 0.0
H23 H 0.83246 0.25192 0.40466 0.0
C24 C 0.80583 0.25885 0.38127 0.0
C25 C 0.75866 0.22224 0.37594 0.0
C26 C 0.72631 0.23068 0.34195 0.0
C27 C 0.70092 0.28416 0.285 0.0
H28 H 0.69044 0.20148 0.33558 0.0
C29 C 0.71124 0.31197 0.24237 0.0
C30 C 0.67468 0.31751 0.21208 0.0
C31 C 0.65365 0.26243 0.29647 0.0
H32 H 0.64446 0.24285 0.32989 0.0
C33 C 0.61733 0.26596 0.26527 0.0
H34 H 0.74741 0.33047 0.23344 0.0
C35 C 0.62769 0.29311 0.22321 0.0
H36 H 0.59928 0.29741 0.20037 0.0
H37 H 0.58122 0.24876 0.27436 0.0
H38 H 0.81041 0.6984 0.40694 0.0
C39 C 0.80195 0.69285 0.36853 0.0
C40 C 0.83049 0.67941 0.34231 0.0
C41 C 0.76016 0.69451 0.34606 0.0
H42 H 0.84109 0.66242 0.27182 0.0
C43 C 0.81837 0.67124 0.29227 0.0
C44 C 0.77467 0.66894 0.26977 0.0
C45 C 0.7463 0.68104 0.29744 0.0
C46 C 0.7265 0.70223 0.37413 0.0
H47 H 0.71235 0.67895 0.28119 0.0
C48 C 0.73818 0.74829 0.39806 0.0
C49 C 0.70339 0.755 0.42086 0.0
C50 C 0.68064 0.66308 0.37455 0.0
H51 H 0.67097 0.62744 0.3566 0.0
C52 C 0.64674 0.66945 0.39774 0.0
H53 H 0.77334 0.77888 0.39792 0.0
C54 C 0.65789 0.71506 0.42051 0.0
H55 H 0.6308 0.71931 0.43798 0.0
H56 H 0.61152 0.63902 0.39773 0.0
H57 H 0.44205 0.76293 0.3277 0.0
C58 C 0.40678 0.74756 0.33904 0.0
C59 C 0.39782 0.76929 0.37825 0.0
C60 C 0.36949 0.70629 0.31438 0.0
H61 H 0.34375 0.7713 0.41747 0.0
C62 C 0.35104 0.75175 0.38992 0.0
C63 C 0.31523 0.70639 0.37008 0.0
C64 C 0.32564 0.6836 0.33301 0.0
C65 C 0.37306 0.6878 0.26737 0.0
H66 H 0.2987 0.6486 0.31699 0.0
C67 C 0.40914 0.67318 0.25984 0.0
C68 C 0.40661 0.64902 0.21649 0.0
C69 C 0.33662 0.68111 0.2301 0.0
H70 H 0.3089 0.69283 0.2346 0.0
C71 C 0.3347 0.65826 0.18714 0.0
H72 H 0.43765 0.67844 0.28799 0.0
C73 C 0.36899 0.6416 0.18059 0.0
H74 H 0.36638 0.62309 0.14716 0.0
H75 H 0.30614 0.6528 0.15907 0.0
H76 H 0.43475 0.76433 0.79388 0.0
C77 C 0.40239 0.74436 0.7704 0.0
C78 C 0.39454 0.76601 0.72643 0.0
C79 C 0.36958 0.69611 0.78302 0.0
H80 H 0.34883 0.75435 0.66002 0.0
C81 C 0.35364 0.73903 0.695 0.0
C82 C 0.32115 0.6904 0.70677 0.0
C83 C 0.32887 0.66963 0.75108 0.0
C84 C 0.37819 0.6716 0.82827 0.0
H85 H 0.30428 0.63162 0.75961 0.0
C86 C 0.4207 0.66583 0.84002 0.0
C87 C 0.42585 0.63756 0.8805 0.0
C88 C 0.34196 0.65046 0.85838 0.0
H89 H 0.30906 0.65443 0.85018 0.0
C90 C 0.34759 0.62368 0.89907 0.0
H91 H 0.44869 0.68121 0.81678 0.0
C92 C 0.38906 0.61687 0.90989 0.0
H93 H 0.39242 0.59513 0.94114 0.0
H94 H 0.31939 0.6075 0.92193 0.0
H95 H 0.3724 0.32055 0.79141 0.0
C96 C 0.38309 0.29416 0.77631 0.0
C97 C 0.42676 0.29287 0.79392 0.0
C98 C 0.35157 0.25927 0.74136 0.0
H99 H 0.47192 0.25487 0.78573 0.0
C100 C 0.43896 0.25732 0.77307 0.0
C101 C 0.41034 0.22686 0.73381 0.0
C102 C 0.36606 0.22696 0.71931 0.0
C103 C 0.30103 0.25042 0.7333 0.0
H104 H 0.34262 0.20151 0.69096 0.0
C105 C 0.28588 0.28507 0.70893 0.0
C106 C 0.23697 0.27379 0.70165 0.0
C107 C 0.26719 0.20528 0.7505 0.0
H108 H 0.27813 0.17826 0.76935 0.0
C109 C 0.21912 0.19462 0.74391 0.0
H110 H 0.31159 0.31984 0.69514 0.0
C111 C 0.20405 0.22856 0.71964 0.0
H112 H 0.16646 0.21939 0.71451 0.0
H113 H 0.1934 0.15977 0.75747 0.0
H114 H 0.92425 0.36258 0.77522 0.0
C115 C 0.89285 0.33116 0.75908 0.0
C116 C 0.88876 0.3211 0.71022 0.0
C117 C 0.85439 0.30569 0.78557 0.0
H118 H 0.84374 0.27523 0.65038 0.0
C119 C 0.84727 0.28215 0.6885 0.0
C120 C 0.80852 0.25564 0.71471 0.0
C121 C 0.8121 0.26818 0.76321 0.0
C122 C 0.85713 0.3241 0.83438 0.0
H123 H 0.7817 0.24968 0.78311 0.0
C124 C 0.82679 0.34572 0.84429 0.0
C125 C 0.83475 0.37167 0.8877 0.0
C126 C 0.89424 0.32672 0.86905 0.0
H127 H 0.91832 0.31081 0.86182 0.0
C128 C 0.90129 0.35106 0.91278 0.0
H129 H 0.7987 0.34485 0.81731 0.0
C130 C 0.87214 0.37404 0.9219 0.0
H131 H 0.87887 0.39395 0.95548 0.0
H132 H 0.93013 0.35316 0.93924 0.0
H133 H 0.90269 0.75654 0.63631 0.0
C134 C 0.8826 0.73285 0.66392 0.0
C135 C 0.88075 0.68439 0.67182 0.0
C136 C 0.85987 0.75151 0.69222 0.0
H137 H 0.85344 0.61663 0.71457 0.0
C138 C 0.85495 0.65406 0.70805 0.0
C139 C 0.83095 0.67232 0.73567 0.0
C140 C 0.83344 0.72094 0.72745 0.0
C141 C 0.86627 0.80417 0.68718 0.0
H142 H 0.81574 0.73545 0.74941 0.0
C143 C 0.82697 0.81509 0.67507 0.0
C144 C 0.83284 0.8654 0.67393 0.0
C145 C 0.91175 0.84374 0.6966 0.0
H146 H 0.94242 0.83578 0.70595 0.0
C147 C 0.91771 0.89382 0.69531 0.0
H148 H 0.79189 0.78459 0.66704 0.0
C149 C 0.87844 0.90468 0.68448 0.0
H150 H 0.8836 0.94375 0.68389 0.0
H151 H 0.95276 0.92423 0.70309 0.0
Co152 Co 0.14488 0.45353 0.55404 0.0
Co153 Co 0.13058 0.46105 0.46581 0.0
Co154 Co 0.07492 0.5153 0.51232 0.0
O155 O 0.09323 0.45717 0.51235 0.0
H156 H 0.06558 0.42506 0.51024 0.0
O157 O 0.05512 0.57251 0.51071 0.0
Co158 Co 0.99245 0.56253 0.48217 0.0
Co159 Co 0.03598 0.57813 0.56852 0.0
H160 H 0.07958 0.60459 0.5023 0.0
O161 O 0.12035 0.40436 0.43441 0.0
O162 O 0.17456 0.44206 0.4986 0.0
O163 O 0.16069 0.52487 0.43543 0.0
O164 O 0.11841 0.55933 0.4649 0.0
O165 O 0.02341 0.47883 0.46001 0.0
O166 O 0.93711 0.55752 0.45507 0.0
O167 O 1.00537 0.62795 0.46365 0.0
O168 O 0.97004 0.493 0.49324 0.0
O169 O 0.03085 0.47261 0.56055 0.0
O170 O 0.0272 0.52463 0.61367 0.0
O171 O 0.9764 0.5743 0.54542 0.0
O172 O 0.03575 0.63671 0.58831 0.0
C173 C 0.15813 0.39906 0.59417 0.0
C174 C 0.16916 0.55417 0.57048 0.0
C175 C 0.1503 0.5617 0.43953 0.0
C176 C 0.15734 0.4087 0.46359 0.0
C177 C 0.96045 0.6053 0.44665 0.0
C178 C 0.98011 0.4683 0.46384 0.0
C179 C 1.01904 0.48062 0.60025 0.0
C180 C 0.99178 0.61639 0.56939 0.0
O181 O 0.18957 0.44576 0.59392 0.0
O182 O 0.11806 0.38619 0.56652 0.0
O183 O 0.12706 0.55177 0.5649 0.0
O184 O 0.17886 0.52304 0.5491 0.0
Co185 Co 0.62292 0.92689 0.54284 0.0
Co186 Co 0.63869 0.96652 0.62852 0.0
Co187 Co 0.57911 0.01305 0.56521 0.0
O188 O 0.63102 0.9901 0.56845 0.0
H189 H 0.66131 0.01686 0.56251 0.0
O190 O 0.52877 0.04019 0.55914 0.0
Co191 Co 0.53578 0.10033 0.59389 0.0
Co192 Co 0.53384 0.08279 0.50666 0.0
H193 H 0.49712 0.01327 0.55841 0.0
O194 O 0.69764 0.97826 0.65388 0.0
O195 O 0.64409 0.91 0.60939 0.0
O196 O 0.5889 0.94784 0.66905 0.0
O197 O 0.53959 0.9619 0.61293 0.0
O198 O 0.61892 0.06374 0.61653 0.0
O199 O 0.538 0.15175 0.62734 0.0
O200 O 0.47303 0.0821 0.6016 0.0
O201 O 0.60178 0.12798 0.59341 0.0
O202 O 0.61876 0.05893 0.51725 0.0
O203 O 0.58879 0.10409 0.47188 0.0
O204 O 0.52949 0.13725 0.53254 0.0
O205 O 0.48106 0.08298 0.47334 0.0
C206 C 0.66266 0.89635 0.51367 0.0
C207 C 0.53376 0.91511 0.51796 0.0
C208 C 0.5473 0.94067 0.6519 0.0
C209 C 0.68582 0.93464 0.63399 0.0
C210 C 0.49247 0.12512 0.62534 0.0
C211 C 0.62979 0.11113 0.61551 0.0
C212 C 0.62154 0.09013 0.48385 0.0
C213 C 0.49596 0.12559 0.49635 0.0
O214 O 0.61837 0.86931 0.51912 0.0
O215 O 0.68276 0.94382 0.52732 0.0
O216 O 0.54096 0.96157 0.5144 0.0
O217 O 0.55796 0.90143 0.55056 0.0
Co218 Co 0.55587 0.52839 0.11817 0.0
Co219 Co 0.52922 0.43703 0.09081 0.0
Co220 Co 0.60197 0.51172 1.02024 0.0
O221 O 0.54653 0.49606 0.05739 0.0
H222 H 0.5193 0.49601 0.03724 0.0
O223 O 0.65858 0.52986 0.98515 0.0
Co224 Co 0.66326 0.48996 0.93675 0.0
Co225 Co 0.6688 0.57818 0.93882 0.0
H226 H 0.68681 0.54074 1.0078 0.0
O227 O 0.4708 0.40059 0.11241 0.0
O228 O 0.53559 0.46141 0.15312 0.0
O229 O 0.5689 0.4028 0.08656 0.0
O230 O 0.6298 0.47134 0.06407 0.0
O231 O 0.56164 0.44881 0.97889 0.0
O232 O 0.67384 0.45301 0.89485 0.0
O233 O 0.7245 0.50278 0.95466 0.0
O234 O 0.59885 0.47015 0.91322 0.0
O235 O 0.57315 0.55158 0.97748 0.0
O236 O 0.6174 0.59682 0.92059 0.0
O237 O 0.68074 0.54683 0.89029 0.0
O238 O 0.72946 0.62164 0.92649 0.0
C239 C 0.51772 0.55418 0.15349 0.0
C240 C 0.65011 0.57214 0.10576 0.0
C241 C 0.61268 0.42701 0.08232 0.0
C242 C 0.49407 0.42266 0.15251 0.0
C243 C 0.71465 0.46955 0.92091 0.0
C244 C 0.56288 0.44225 0.93428 0.0
C245 C 0.58025 0.58159 0.94171 0.0
C246 C 0.71902 0.58925 0.89197 0.0
O247 O 0.55995 0.56068 0.17178 0.0
O248 O 0.4977 0.52642 0.11496 0.0
O249 O 0.64297 0.57414 0.06036 0.0
O250 O 0.61928 0.5384 0.12858 0.0
C251 C 0.18615 0.29762 0.44425 0.0
C252 C 0.22494 0.32059 0.41674 0.0
C253 C 0.22666 0.40351 0.43175 0.0
C254 C 0.18325 0.37913 0.4523 0.0
N255 N 0.11654 0.30141 0.46865 0.0
N256 N 0.27667 0.39525 0.37674 0.0
C257 C 0.16153 0.32572 0.45597 0.0
C258 C 0.24433 0.37369 0.40893 0.0
N259 N 0.17311 0.24904 0.45966 0.0
N260 N 0.25015 0.45507 0.43225 0.0
H261 H 0.2888 0.37478 0.35707 0.0
H262 H 0.28795 0.4327 0.36581 0.0
H263 H 0.23712 0.47856 0.4458 0.0
H264 H 0.28439 0.47439 0.4225 0.0
H265 H 0.14723 0.23177 0.48284 0.0
H266 H 0.19162 0.22797 0.4533 0.0
H267 H 0.09713 0.26228 0.46623 0.0
H268 H 0.09736 0.32042 0.47848 0.0
C269 C 0.74259 0.18293 0.45893 0.0
C270 C 0.7392 0.17744 0.40821 0.0
C271 C 0.66382 0.10249 0.41031 0.0
C272 C 0.66528 0.11165 0.45949 0.0
N273 N 0.71806 0.13993 0.53274 0.0
N274 N 0.70934 0.11824 0.34251 0.0
C275 C 0.70868 0.14476 0.48467 0.0
C276 C 0.7044 0.13168 0.38659 0.0
N277 N 0.77505 0.22531 0.48295 0.0
N278 N 0.62365 0.06713 0.3862 0.0
H279 H 0.73916 0.13994 0.32509 0.0
H280 H 0.68657 0.08394 0.32587 0.0
H281 H 0.59415 0.044 0.40334 0.0
H282 H 0.61906 0.06246 0.34917 0.0
H283 H 0.77283 0.23294 0.51819 0.0
H284 H 0.80335 0.2536 0.46857 0.0
H285 H 0.75125 0.16079 0.55149 0.0
H286 H 0.69489 0.11146 0.55279 0.0
C287 C 0.90757 0.69841 0.39747 0.0
C288 C 0.86714 0.66411 0.36829 0.0
C289 C 0.89857 0.60076 0.38014 0.0
C290 C 0.93423 0.63076 0.41614 0.0
N291 N 0.96768 0.70749 0.46392 0.0
N292 N 0.81707 0.57625 0.34947 0.0
C293 C 0.93781 0.67978 0.42605 0.0
C294 C 0.86062 0.61345 0.36444 0.0
N295 N 0.91735 0.74854 0.39771 0.0
N296 N 0.90083 0.56015 0.36041 0.0
H297 H 0.78671 0.5829 0.34367 0.0
H298 H 0.81038 0.53811 0.34927 0.0
H299 H 0.93005 0.55167 0.36811 0.0
H300 H 0.87649 0.5392 0.33216 0.0
H301 H 0.94859 0.77591 0.4149 0.0
H302 H 0.89608 0.76309 0.37717 0.0
H303 H 0.9677 0.7408 0.4756 0.0
H304 H 0.98954 0.6952 0.48618 0.0
C305 C 0.4644 0.85643 0.3977 0.0
C306 C 0.43709 0.80605 0.41146 0.0
C307 C 0.47012 0.82826 0.49494 0.0
C308 C 0.50069 0.87761 0.48101 0.0
N309 N 0.53652 0.93246 0.41601 0.0
N310 N 0.42711 0.74081 0.47036 0.0
C311 C 0.50064 0.89012 0.43143 0.0
C312 C 0.44419 0.79094 0.45923 0.0
N313 N 0.45524 0.87259 0.35303 0.0
N314 N 0.4636 0.8174 0.54196 0.0
H315 H 0.40978 0.71233 0.44455 0.0
H316 H 0.43475 0.72789 0.50399 0.0
H317 H 0.47884 0.84466 0.56898 0.0
H318 H 0.43855 0.78294 0.55317 0.0
H319 H 0.4709 0.91041 0.34297 0.0
H320 H 0.42924 0.84886 0.32738 0.0
H321 H 0.54003 0.94079 0.37991 0.0
H322 H 0.56589 0.95588 0.43875 0.0
C323 C 0.29303 0.63826 0.63109 0.0
C324 C 0.28215 0.6583 0.67047 0.0
C325 C 0.19743 0.60636 0.64762 0.0
C326 C 0.20775 0.5921 0.60405 0.0
N327 N 0.26747 0.60386 0.55106 0.0
N328 N 0.22363 0.66859 0.71142 0.0
C329 C 0.25619 0.61084 0.59479 0.0
C330 C 0.2342 0.64487 0.67697 0.0
N331 N 0.33835 0.64385 0.62903 0.0
N332 N 0.154 0.58034 0.66367 0.0
H333 H 0.24971 0.6966 0.73387 0.0
H334 H 0.18915 0.66374 0.71451 0.0
H335 H 0.12758 0.54776 0.6472 0.0
H336 H 0.1465 0.58686 0.69712 0.0
H337 H 0.34726 0.6249 0.60428 0.0
H338 H 0.3663 0.66316 0.65508 0.0
H339 H 0.30209 0.61891 0.54207 0.0
H340 H 0.24256 0.58876 0.52146 0.0
C341 C 0.41884 0.14712 0.71455 0.0
C342 C 0.42843 0.19848 0.70468 0.0
C343 C 0.46887 0.19581 0.63578 0.0
C344 C 0.46432 0.14652 0.64886 0.0
N345 N 0.43855 0.07663 0.70356 0.0
N346 N 0.46608 0.27347 0.65829 0.0
C347 C 0.43973 0.12223 0.68872 0.0
C348 C 0.45428 0.22318 0.66582 0.0
N349 N 0.38945 0.12205 0.74842 0.0
N350 N 0.48606 0.216 0.59361 0.0
H351 H 0.45468 0.29458 0.67812 0.0
H352 H 0.48995 0.29536 0.63467 0.0
H353 H 0.49711 0.19716 0.57087 0.0
H354 H 0.48532 0.24899 0.57894 0.0
H355 H 0.37673 0.08326 0.75396 0.0
H356 H 0.37498 0.1396 0.76887 0.0
H357 H 0.42623 0.05957 0.73546 0.0
H358 H 0.45281 0.0571 0.68541 0.0
C359 C 0.96466 0.35777 0.67068 0.0
C360 C 0.92205 0.35978 0.68022 0.0
C361 C 0.94012 0.43511 0.63093 0.0
C362 C 0.98552 0.43724 0.62613 0.0
N363 N 0.04312 0.40297 0.64417 0.0
N364 N 0.87338 0.40572 0.67688 0.0
C365 C 0.99835 0.39894 0.64647 0.0
C366 C 0.91104 0.40003 0.66255 0.0
N367 N 0.97258 0.31646 0.68451 0.0
N368 N 0.92344 0.46473 0.60314 0.0
H369 H 0.85037 0.38072 0.69968 0.0
H370 H 0.86749 0.43792 0.6696 0.0
H371 H 0.94228 0.48862 0.57717 0.0
H372 H 0.88867 0.46082 0.60143 0.0
H373 H 1.00066 0.31022 0.6748 0.0
H374 H 0.94892 0.28649 0.70311 0.0
H375 H 0.05634 0.37906 0.66215 0.0
H376 H 0.06842 0.4326 0.62675 0.0
C377 C 0.75348 0.86125 0.68946 0.0
C378 C 0.79166 0.87768 0.66076 0.0
C379 C 0.76125 0.93289 0.61624 0.0
C380 C 0.72061 0.91282 0.64138 0.0
N381 N 0.67378 0.85168 0.69655 0.0
N382 N 0.82296 0.91662 0.58754 0.0
C383 C 0.71511 0.87456 0.67598 0.0
C384 C 0.79265 0.90948 0.62109 0.0
N385 N 0.75519 0.83592 0.73111 0.0
N386 N 0.77126 0.97555 0.58936 0.0
H387 H 0.84548 0.89856 0.58911 0.0
H388 H 0.82174 0.93582 0.55566 0.0
H389 H 0.75045 0.99558 0.5865 0.0
H390 H 0.80289 0.99385 0.57395 0.0
H391 H 0.73065 0.82771 0.75573 0.0
H392 H 0.7835 0.82721 0.74347 0.0
H393 H 0.66601 0.81992 0.71821 0.0
H394 H 0.6457 0.86197 0.68897 0.0
C395 C 0.41245 0.17326 0.4267 0.0
C396 C 0.44046 0.2263 0.42428 0.0
C397 C 0.50719 0.21459 0.4695 0.0
C398 C 0.477 0.16265 0.47681 0.0
N399 N 0.39643 0.09849 0.47472 0.0
N400 N 0.51112 0.29855 0.45505 0.0
C401 C 0.42818 0.14397 0.45946 0.0
C402 C 0.48681 0.2474 0.4494 0.0
N403 N 0.37221 0.1499 0.39585 0.0
N404 N 0.55536 0.23244 0.47869 0.0
H405 H 0.49677 0.32358 0.44222 0.0
H406 H 0.54323 0.31544 0.4768 0.0
H407 H 0.57257 0.20982 0.49044 0.0
H408 H 0.57852 0.26881 0.4695 0.0
H409 H 0.35307 0.1107 0.39407 0.0
H410 H 0.3613 0.16877 0.3682 0.0
H411 H 0.35988 0.0853 0.46572 0.0
H412 H 0.40614 0.07716 0.50081 0.0
C413 C 0.90067 0.37782 0.3618 0.0
C414 C 0.85938 0.35067 0.38493 0.0
C415 C 0.90114 0.39369 0.46009 0.0
C416 C 0.94066 0.42565 0.43635 0.0
N417 N 0.97339 0.45461 0.36112 0.0
N418 N 0.81625 0.3462 0.45192 0.0
C419 C 0.93942 0.4195 0.38613 0.0
C420 C 0.85832 0.36285 0.43277 0.0
N421 N 0.90308 0.36366 0.31701 0.0
N422 N 0.90497 0.39066 0.50883 0.0
H423 H 0.78358 0.32486 0.43245 0.0
H424 H 0.8137 0.35788 0.48552 0.0
H425 H 0.93721 0.40886 0.52998 0.0
H426 H 0.87782 0.36493 0.52739 0.0
H427 H 0.93412 0.37877 0.30036 0.0
H428 H 0.87486 0.33411 0.29806 0.0
H429 H 0.97142 0.4543 0.32391 0.0
H430 H 1.00107 0.48686 0.37684 0.0
C431 C 0.71216 0.80041 0.49655 0.0
C432 C 0.71246 0.8026 0.44636 0.0
C433 C 0.70038 0.88045 0.44572 0.0
C434 C 0.68908 0.87096 0.49365 0.0
N435 N 0.6803 0.81802 0.56369 0.0
N436 N 0.70824 0.84544 0.37221 0.0
C437 C 0.69478 0.83043 0.51915 0.0
C438 C 0.70812 0.84361 0.42075 0.0
N439 N 0.72704 0.76817 0.52221 0.0
N440 N 0.70199 0.92359 0.42364 0.0
H441 H 0.71518 0.81997 0.3533 0.0
H442 H 0.69938 0.87053 0.35049 0.0
H443 H 0.69519 0.95039 0.44055 0.0
H444 H 0.71387 0.93484 0.39021 0.0
H445 H 0.73168 0.76789 0.5595 0.0
H446 H 0.73955 0.74561 0.50591 0.0
H447 H 0.67915 0.78577 0.58185 0.0
H448 H 0.66554 0.83754 0.58092 0.0
C449 C 0.22613 0.6566 0.35443 0.0
C450 C 0.26712 0.68086 0.3879 0.0
C451 C 0.21514 0.64841 0.45155 0.0
C452 C 0.1812 0.61106 0.41971 0.0
N453 N 0.15155 0.58237 0.33863 0.0
N454 N 0.29911 0.69413 0.47206 0.0
C455 C 0.18556 0.61624 0.37024 0.0
C456 C 0.2612 0.67651 0.43768 0.0
N457 N 0.22571 0.67271 0.3082 0.0
N458 N 0.20436 0.6553 0.4954 0.0
H459 H 0.33364 0.70387 0.46508 0.0
H460 H 0.29586 0.69269 0.50851 0.0
H461 H 0.17043 0.63597 0.50583 0.0
H462 H 0.22735 0.68451 0.5186 0.0
H463 H 0.1956 0.65816 0.28335 0.0
H464 H 0.25384 0.70451 0.29665 0.0
H465 H 0.1555 0.58144 0.30248 0.0
H466 H 0.12034 0.55412 0.34944 0.0
C467 C 0.43425 0.86039 0.71139 0.0
C468 C 0.43359 0.81167 0.70873 0.0
C469 C 0.50675 0.84761 0.67007 0.0
C470 C 0.50704 0.89658 0.67086 0.0
N471 N 0.46903 0.94912 0.68817 0.0
N472 N 0.46471 0.75717 0.6796 0.0
C473 C 0.46998 0.90279 0.69018 0.0
C474 C 0.46879 0.80496 0.68675 0.0
N475 N 0.40132 0.86605 0.73529 0.0
N476 N 0.54286 0.84141 0.65295 0.0
H477 H 0.43922 0.72476 0.69351 0.0
H478 H 0.4845 0.74881 0.6571 0.0
H479 H 0.56678 0.86843 0.63273 0.0
H480 H 0.54985 0.80984 0.6597 0.0
H481 H 0.40175 0.90078 0.74261 0.0
H482 H 0.37469 0.83565 0.75051 0.0
H483 H 0.44093 0.95569 0.69723 0.0
H484 H 0.49572 0.98112 0.67501 0.0
C485 C 0.19231 0.29133 0.62874 0.0
C486 C 0.21845 0.30765 0.67424 0.0
C487 C 0.19687 0.37937 0.67146 0.0
C488 C 0.17023 0.36241 0.62582 0.0
N489 N 0.12659 0.2898 0.57386 0.0
N490 N 0.23955 0.3622 0.74296 0.0
C491 C 0.16317 0.31478 0.60803 0.0
C492 C 0.21918 0.35046 0.69675 0.0
N493 N 0.19569 0.25355 0.60489 0.0
N494 N 0.19966 0.42257 0.69117 0.0
H495 H 0.25702 0.34257 0.76199 0.0
H496 H 0.23712 0.38943 0.7636 0.0
H497 H 0.1777 0.43986 0.67789 0.0
H498 H 0.22363 0.44144 0.72035 0.0
H499 H 0.18122 0.24366 0.56953 0.0
H500 H 0.21697 0.23567 0.61875 0.0
H501 H 0.11783 0.25309 0.56266 0.0
H502 H 0.10051 0.30202 0.5623 0.0
C503 C 0.7387 0.2345 0.65142 0.0
C504 C 0.76252 0.21854 0.68994 0.0
C505 C 0.69562 0.13461 0.6848 0.0
C506 C 0.67583 0.14798 0.64106 0.0
N507 N 0.68738 0.21007 0.57744 0.0
N508 N 0.76753 0.14966 0.73702 0.0
C509 C 0.69979 0.19779 0.62281 0.0
C510 C 0.74223 0.16739 0.70467 0.0
N511 N 0.75207 0.28483 0.64291 0.0
N512 N 0.66917 0.09267 0.70948 0.0
H513 H 0.80206 0.17224 0.75185 0.0
H514 H 0.75588 0.11142 0.74531 0.0
H515 H 0.63323 0.07043 0.6997 0.0
H516 H 0.68121 0.08404 0.7433 0.0
H517 H 0.73277 0.29831 0.61811 0.0
H518 H 0.77899 0.31308 0.66432 0.0
H519 H 0.70693 0.24462 0.56179 0.0
H520 H 0.66207 0.18419 0.5529 0.0
C521 C 0.95641 0.69598 0.64106 0.0
C522 C 0.90708 0.66673 0.64218 0.0
C523 C 0.90873 0.60676 0.58482 0.0
C524 C 0.95859 0.6369 0.5838 0.0
N525 N 0.0207 0.72192 0.59221 0.0
N526 N 0.83393 0.60293 0.60427 0.0
C527 C 0.97946 0.68535 0.60587 0.0
C528 C 0.88247 0.62448 0.61101 0.0
N529 N 0.98189 0.7329 0.67457 0.0
N530 N 0.8858 0.56149 0.56124 0.0
H531 H 0.81341 0.61557 0.62169 0.0
H532 H 0.81407 0.57573 0.57804 0.0
H533 H 0.89821 0.55145 0.53275 0.0
H534 H 0.8529 0.53423 0.56919 0.0
H535 H 1.01878 0.75219 0.67721 0.0
H536 H 0.9669 0.74031 0.70274 0.0
H537 H 0.03529 0.75901 0.60501 0.0
H538 H 0.03657 0.7168 0.5636 0.0
C539 C 0.44251 0.38942 0.2722 0.0
C540 C 0.44446 0.34219 0.28264 0.0
C541 C 0.48671 0.35323 0.21188 0.0
C542 C 0.47807 0.39608 0.198 0.0
N543 N 0.43456 0.4448 0.20891 0.0
N544 N 0.45741 0.2732 0.25291 0.0
C545 C 0.45216 0.41135 0.22639 0.0
C546 C 0.4638 0.32241 0.25004 0.0
N547 N 0.43266 0.41415 0.3063 0.0
N548 N 0.51665 0.34163 0.18872 0.0
H549 H 0.43725 0.24771 0.27736 0.0
H550 H 0.46724 0.25608 0.22722 0.0
H551 H 0.53411 0.36325 0.16077 0.0
H552 H 0.52749 0.31357 0.20046 0.0
H553 H 0.43378 0.45012 0.30105 0.0
H554 H 0.42864 0.40119 0.34135 0.0
H555 H 0.41126 0.45308 0.22655 0.0
H556 H 0.43973 0.4604 0.17489 0.0
C557 C 0.4726 0.5881 0.86797 0.0
C558 C 0.46881 0.62755 0.89227 0.0
C559 C 0.54135 0.64045 0.94559 0.0
C560 C 0.54285 0.59847 0.92371 0.0
N561 N 0.5086 0.52922 0.86729 0.0
N562 N 0.49743 0.69004 0.95536 0.0
C563 C 0.50832 0.57169 0.88548 0.0
C564 C 0.50279 0.65355 0.93131 0.0
N565 N 0.44197 0.56632 0.82809 0.0
N566 N 0.57736 0.66827 0.97947 0.0
H567 H 0.4716 0.70291 0.94402 0.0
H568 H 0.51698 0.70614 0.98766 0.0
H569 H 0.60546 0.65901 0.99144 0.0
H570 H 0.58132 0.70223 0.99371 0.0
H571 H 0.44589 0.54152 0.80548 0.0
H572 H 0.41397 0.57546 0.81549 0.0
H573 H 0.48139 0.50417 0.84361 0.0
H574 H 0.53492 0.51696 0.87822 0.0
C575 C 0.50997 0.3506 0.83145 0.0
C576 C 0.46011 0.32913 0.83315 0.0
C577 C 0.47557 0.38263 0.90485 0.0
C578 C 0.52519 0.39806 0.90554 0.0
N579 N 0.58286 0.37181 0.88247 0.0
N580 N 0.39832 0.31355 0.88449 0.0
C581 C 0.54035 0.37428 0.87285 0.0
C582 C 0.44344 0.34186 0.87367 0.0
N583 N 0.52906 0.35135 0.7902 0.0
N584 N 0.45874 0.40691 0.93252 0.0
H585 H 0.37555 0.2802 0.86626 0.0
H586 H 0.38608 0.31966 0.91538 0.0
H587 H 0.48091 0.43718 0.95497 0.0
H588 H 0.4229 0.39946 0.92976 0.0
H589 H 0.56565 0.36894 0.7884 0.0
H590 H 0.50859 0.34079 0.75713 0.0
H591 H 0.59424 0.35281 0.86004 0.0
H592 H 0.60237 0.38209 0.9161 0.0
C593 C 0.80549 0.43895 0.86731 0.0
C594 C 0.80501 0.39804 0.8968 0.0
C595 C 0.75236 0.41124 0.94684 0.0
C596 C 0.7482 0.44769 0.91392 0.0
N597 N 0.76464 0.49052 0.83849 0.0
N598 N 0.77073 0.33891 0.95923 0.0
C599 C 0.77287 0.45981 0.87276 0.0
C600 C 0.7766 0.38254 0.93528 0.0
N601 N 0.83829 0.45923 0.83539 0.0
N602 N 0.73303 0.40379 0.98912 0.0
H603 H 0.78664 0.31588 0.95088 0.0
H604 H 0.74644 0.3229 0.98414 0.0
H605 H 0.71375 0.42288 0.99843 0.0
H606 H 0.73947 0.3818 1.01667 0.0
H607 H 0.84334 0.49224 0.81647 0.0
H608 H 0.8637 0.44602 0.83125 0.0
H609 H 0.77796 0.49656 0.80546 0.0
H610 H 0.74129 0.50675 0.8415 0.0
C611 C 0.7525 0.62081 0.76493 0.0
C612 C 0.80259 0.64146 0.77364 0.0
C613 C 0.79678 0.61725 0.85797 0.0
C614 C 0.74733 0.60421 0.85069 0.0
N615 N 0.67892 0.60041 0.79807 0.0
N616 N 0.87352 0.66235 0.82855 0.0
C617 C 0.72517 0.6071 0.80425 0.0
C618 C 0.8251 0.64001 0.82012 0.0
N619 N 0.73117 0.61461 0.71891 0.0
N620 N 0.81639 0.6067 0.90063 0.0
H621 H 0.8954 0.67811 0.80147 0.0
H622 H 0.89193 0.668 0.8627 0.0
H623 H 0.79665 0.58997 0.92905 0.0
H624 H 0.8511 0.61026 0.90636 0.0
H625 H 0.69465 0.59521 0.70998 0.0
H626 H 0.75045 0.62449 0.68937 0.0
H627 H 0.66267 0.60756 0.76595 0.0
H628 H 0.65787 0.59256 0.82601 0.0
C629 C 0.75161 0.60463 0.20042 0.0
C630 C 0.7556 0.65148 0.2184 0.0
C631 C 0.70033 0.65445 0.1495 0.0
C632 C 0.69504 0.60694 0.13364 0.0
N633 N 0.73033 0.54911 0.13127 0.0
N634 N 0.74888 0.7293 0.19786 0.0
C635 C 0.7262 0.58662 0.15467 0.0
C636 C 0.73503 0.67925 0.18867 0.0
N637 N 0.76806 0.57478 0.22789 0.0
N638 N 0.67079 0.67474 0.12871 0.0
H639 H 0.77558 0.74874 0.22509 0.0
H640 H 0.73769 0.75234 0.17549 0.0
H641 H 0.64636 0.65823 0.09891 0.0
H642 H 0.66913 0.70636 0.14245 0.0
H643 H 0.76354 0.53937 0.21701 0.0
H644 H 0.78235 0.5827 0.26314 0.0
H645 H 0.75535 0.53518 0.14255 0.0
H646 H 0.71234 0.53649 0.09741 0.0
C647 C 0.46712 0.64978 0.16569 0.0
C648 C 0.44277 0.63121 0.20676 0.0
C649 C 0.47985 0.57236 0.22009 0.0
C650 C 0.49472 0.5828 0.1736 0.0
N651 N 0.50443 0.63348 0.10202 0.0
N652 N 0.42193 0.57004 0.27063 0.0
C653 C 0.48894 0.62219 0.14632 0.0
C654 C 0.44855 0.5917 0.23385 0.0
N655 N 0.47029 0.69456 0.14604 0.0
N656 N 0.49559 0.54435 0.25126 0.0
H657 H 0.39734 0.58162 0.28117 0.0
H658 H 0.42126 0.5375 0.28788 0.0
H659 H 0.51747 0.52823 0.24226 0.0
H660 H 0.48992 0.54068 0.28725 0.0
H661 H 0.49108 0.71252 0.11871 0.0
H662 H 0.45601 0.71643 0.16057 0.0
H663 H 0.4958 0.65728 0.07814 0.0
H664 H 0.52407 0.61722 0.08798 0.0
C665 C 0.66814 0.33822 0.12538 0.0
C666 C 0.68418 0.35531 0.17329 0.0
C667 C 0.66223 0.42488 0.15847 0.0
C668 C 0.64464 0.40785 0.11046 0.0
N669 N 0.63873 0.35426 0.04523 0.0
N670 N 0.71389 0.42416 0.22938 0.0
C671 C 0.651 0.36684 0.09264 0.0
C672 C 0.68872 0.40299 0.18683 0.0
N673 N 0.66662 0.29305 0.11266 0.0
N674 N 0.64842 0.45688 0.1791 0.0
H675 H 0.73341 0.40817 0.25075 0.0
H676 H 0.71895 0.4595 0.24116 0.0
H677 H 0.62229 0.46647 0.16212 0.0
H678 H 0.6572 0.46754 0.21504 0.0
H679 H 0.65086 0.27511 0.07989 0.0
H680 H 0.68062 0.27306 0.13628 0.0
H681 H 0.64478 0.32649 0.02926 0.0
H682 H 0.6256 0.37454 1.02105 0.0
loop_
_geom_bond_atom_site_label_1
_geom_bond_atom_site_label_2
_geom_bond_distance
_geom_bond_site_symmetry_2
_ccdc_geom_bond_type
H0 C1 0.949 . S
C1 H0 0.949 . S
C1 C2 1.395 . S
C1 C3 1.391 . S
C2 C1 1.395 . S
C2 C5 1.390 . S
C3 C1 1.391 . S
C3 C7 1.387 . S
C3 C8 1.491 . S
H4 C5 0.950 . S
C5 C2 1.390 . S
C5 H4 0.950 . S
C5 C6 1.378 . S
C6 C5 1.378 . S
C6 C7 1.409 . S
C7 C3 1.387 . S
C7 C6 1.409 . S
C7 H9 0.951 . S
C8 C3 1.491 . S
C8 C10 1.382 . S
C8 C12 1.404 . S
H9 C7 0.951 . S
C10 C8 1.382 . S
C10 C11 1.390 . S
C10 H15 0.949 . S
C11 C10 1.390 . S
C11 C16 1.399 . S
C12 C8 1.404 . S
C12 H13 0.950 . S
C12 C14 1.375 . S
H13 C12 0.950 . S
C14 C12 1.375 . S
C14 C16 1.382 . S
C14 H18 0.950 . S
H15 C10 0.949 . S
C16 C11 1.399 . S
C16 C14 1.382 . S
C16 H17 0.952 . S
H17 C16 0.952 . S
H18 C14 0.950 . S
H19 C20 0.949 . S
C20 H19 0.949 . S
C20 C21 1.395 . S
C20 C22 1.391 . S
C21 C20 1.395 . S
C21 C24 1.390 . S
C22 C20 1.391 . S
C22 C26 1.387 . S
C22 C27 1.491 . S
H23 C24 0.950 . S
C24 C21 1.390 . S
C24 H23 0.950 . S
C24 C25 1.378 . S
C25 C24 1.378 . S
C25 C26 1.409 . S
C26 C22 1.387 . S
C26 C25 1.409 . S
C26 H28 0.951 . S
C27 C22 1.491 . S
C27 C29 1.382 . S
C27 C31 1.404 . S
H28 C26 0.951 . S
C29 C27 1.382 . S
C29 C30 1.390 . S
C29 H34 0.949 . S
C30 C29 1.390 . S
C30 C35 1.399 . S
C31 C27 1.404 . S
C31 H32 0.950 . S
C31 C33 1.375 . S
H32 C31 0.950 . S
C33 C31 1.375 . S
C33 C35 1.382 . S
C33 H37 0.950 . S
H34 C29 0.949 . S
C35 C30 1.399 . S
C35 C33 1.382 . S
C35 H36 0.952 . S
H36 C35 0.952 . S
H37 C33 0.950 . S
H38 C39 0.949 . S
C39 H38 0.949 . S
C39 C40 1.395 . S
C39 C41 1.391 . S
C40 C39 1.395 . S
C40 C43 1.390 . S
C41 C39 1.391 . S
C41 C45 1.387 . S
C41 C46 1.491 . S
H42 C43 0.950 . S
C43 C40 1.390 . S
C43 H42 0.950 . S
C43 C44 1.378 . S
C44 C43 1.378 . S
C44 C45 1.409 . S
C45 C41 1.387 . S
C45 C44 1.409 . S
C45 H47 0.951 . S
C46 C41 1.491 . S
C46 C48 1.382 . S
C46 C50 1.404 . S
H47 C45 0.951 . S
C48 C46 1.382 . S
C48 C49 1.390 . S
C48 H53 0.949 . S
C49 C48 1.390 . S
C49 C54 1.399 . S
C50 C46 1.404 . S
C50 H51 0.950 . S
C50 C52 1.375 . S
H51 C50 0.950 . S
C52 C50 1.375 . S
C52 C54 1.382 . S
C52 H56 0.950 . S
H53 C48 0.949 . S
C54 C49 1.399 . S
C54 C52 1.382 . S
C54 H55 0.952 . S
H55 C54 0.952 . S
H56 C52 0.950 . S
H57 C58 0.949 . S
C58 H57 0.949 . S
C58 C59 1.395 . S
C58 C60 1.391 . S
C59 C58 1.395 . S
C59 C62 1.390 . S
C60 C58 1.391 . S
C60 C64 1.387 . S
C60 C65 1.491 . S
H61 C62 0.950 . S
C62 C59 1.390 . S
C62 H61 0.950 . S
C62 C63 1.378 . S
C63 C62 1.378 . S
C63 C64 1.409 . S
C64 C60 1.387 . S
C64 C63 1.409 . S
C64 H66 0.951 . S
C65 C60 1.491 . S
C65 C67 1.382 . S
C65 C69 1.404 . S
H66 C64 0.951 . S
C67 C65 1.382 . S
C67 C68 1.390 . S
C67 H72 0.949 . S
C68 C67 1.390 . S
C68 C73 1.399 . S
C69 C65 1.404 . S
C69 H70 0.950 . S
C69 C71 1.375 . S
H70 C69 0.950 . S
C71 C69 1.375 . S
C71 C73 1.382 . S
C71 H75 0.950 . S
H72 C67 0.949 . S
C73 C68 1.399 . S
C73 C71 1.382 . S
C73 H74 0.952 . S
H74 C73 0.952 . S
H75 C71 0.950 . S
H76 C77 0.949 . S
C77 H76 0.949 . S
C77 C78 1.395 . S
C77 C79 1.391 . S
C78 C77 1.395 . S
C78 C81 1.390 . S
C79 C77 1.391 . S
C79 C83 1.387 . S
C79 C84 1.491 . S
H80 C81 0.950 . S
C81 C78 1.390 . S
C81 H80 0.950 . S
C81 C82 1.378 . S
C82 C81 1.378 . S
C82 C83 1.409 . S
C83 C79 1.387 . S
C83 C82 1.409 . S
C83 H85 0.951 . S
C84 C79 1.491 . S
C84 C86 1.382 . S
C84 C88 1.404 . S
H85 C83 0.951 . S
C86 C84 1.382 . S
C86 C87 1.390 . S
C86 H91 0.949 . S
C87 C86 1.390 . S
C87 C92 1.399 . S
C88 C84 1.404 . S
C88 H89 0.950 . S
C88 C90 1.375 . S
H89 C88 0.950 . S
C90 C88 1.375 . S
C90 C92 1.382 . S
C90 H94 0.950 . S
H91 C86 0.949 . S
C92 C87 1.399 . S
C92 C90 1.382 . S
C92 H93 0.952 . S
H93 C92 0.952 . S
H94 C90 0.950 . S
H95 C96 0.949 . S
C96 H95 0.949 . S
C96 C97 1.395 . S
C96 C98 1.391 . S
C97 C96 1.395 . S
C97 C100 1.390 . S
C98 C96 1.391 . S
C98 C102 1.387 . S
C98 C103 1.491 . S
H99 C100 0.950 . S
C100 C97 1.390 . S
C100 H99 0.950 . S
C100 C101 1.378 . S
C101 C100 1.378 . S
C101 C102 1.409 . S
C102 C98 1.387 . S
C102 C101 1.409 . S
C102 H104 0.951 . S
C103 C98 1.491 . S
C103 C105 1.382 . S
C103 C107 1.404 . S
H104 C102 0.951 . S
C105 C103 1.382 . S
C105 C106 1.390 . S
C105 H110 0.949 . S
C106 C105 1.390 . S
C106 C111 1.399 . S
C107 C103 1.404 . S
C107 H108 0.950 . S
C107 C109 1.375 . S
H108 C107 0.950 . S
C109 C107 1.375 . S
C109 C111 1.382 . S
C109 H113 0.950 . S
H110 C105 0.949 . S
C111 C106 1.399 . S
C111 C109 1.382 . S
C111 H112 0.952 . S
H112 C111 0.952 . S
H113 C109 0.950 . S
H114 C115 0.949 . S
C115 H114 0.949 . S
C115 C116 1.395 . S
C115 C117 1.391 . S
C116 C115 1.395 . S
C116 C119 1.390 . S
C117 C115 1.391 . S
C117 C121 1.387 . S
C117 C122 1.491 . S
H118 C119 0.950 . S
C119 C116 1.390 . S
C119 H118 0.950 . S
C119 C120 1.378 . S
C120 C119 1.378 . S
C120 C121 1.409 . S
C121 C117 1.387 . S
C121 C120 1.409 . S
C121 H123 0.951 . S
C122 C117 1.491 . S
C122 C124 1.382 . S
C122 C126 1.404 . S
H123 C121 0.951 . S
C124 C122 1.382 . S
C124 C125 1.390 . S
C124 H129 0.949 . S
C125 C124 1.390 . S
C125 C130 1.399 . S
C126 C122 1.404 . S
C126 H127 0.950 . S
C126 C128 1.375 . S
H127 C126 0.950 . S
C128 C126 1.375 . S
C128 C130 1.382 . S
C128 H132 0.950 . S
H129 C124 0.949 . S
C130 C125 1.399 . S
C130 C128 1.382 . S
C130 H131 0.952 . S
H131 C130 0.952 . S
H132 C128 0.950 . S
H133 C134 0.949 . S
C134 H133 0.949 . S
C134 C135 1.395 . S
C134 C136 1.391 . S
C135 C134 1.395 . S
C135 C138 1.390 . S
C136 C134 1.391 . S
C136 C140 1.387 . S
C136 C141 1.491 . S
H137 C138 0.950 . S
C138 C135 1.390 . S
C138 H137 0.950 . S
C138 C139 1.378 . S
C139 C138 1.378 . S
C139 C140 1.409 . S
C140 C136 1.387 . S
C140 C139 1.409 . S
C140 H142 0.951 . S
C141 C136 1.491 . S
C141 C143 1.382 . S
C141 C145 1.404 . S
H142 C140 0.951 . S
C143 C141 1.382 . S
C143 C144 1.390 . S
C143 H148 0.949 . S
C144 C143 1.390 . S
C144 C149 1.399 . S
C145 C141 1.404 . S
C145 H146 0.950 . S
C145 C147 1.375 . S
H146 C145 0.950 . S
C147 C145 1.375 . S
C147 C149 1.382 . S
C147 H151 0.950 . S
H148 C143 0.949 . S
C149 C144 1.399 . S
C149 C147 1.382 . S
C149 H150 0.952 . S
H150 C149 0.952 . S
H151 C147 0.950 . S
Co152 O155 2.042 . S
Co152 O162 2.264 . S
Co152 O181 2.286 . S
Co152 O182 2.069 . S
Co152 O184 2.015 . S
Co153 O155 2.122 . S
Co153 O161 2.073 . S
Co153 O162 2.327 . S
Co153 O163 1.976 . S
Co154 O155 2.087 . S
Co154 O157 2.087 . S
Co154 O164 2.111 . S
Co154 O165 2.143 1_455 S
Co154 O169 2.111 1_455 S
Co154 O183 2.143 . S
O155 Co152 2.042 . S
O155 Co153 2.122 . S
O155 Co154 2.087 . S
O155 H156 0.980 . S
H156 O155 0.980 . S
O157 Co154 2.087 . S
O157 Co158 2.042 1_455 S
O157 Co159 2.122 1_455 S
O157 H160 0.980 . S
Co158 O157 2.042 1_655 S
Co158 O166 2.286 . S
Co158 O167 2.069 . S
Co158 O168 2.015 . S
Co158 O171 2.264 . S
Co159 O157 2.122 1_655 S
Co159 O170 1.976 . S
Co159 O171 2.327 . S
Co159 O172 2.073 . S
H160 O157 0.980 . S
O161 Co153 2.073 . S
O161 C176 1.245 . S
O162 Co152 2.264 . S
O162 Co153 2.327 . S
O162 C176 1.257 . S
O163 Co153 1.976 . S
O163 C175 1.251 . S
O164 Co154 2.111 . S
O164 C175 1.274 . S
O165 Co154 2.143 1_655 S
O165 C178 1.246 . S
O166 Co158 2.286 . S
O166 C177 1.259 . S
O167 Co158 2.069 . S
O167 C177 1.289 . S
O168 Co158 2.015 . S
O168 C178 1.257 . S
O169 Co154 2.111 1_655 S
O169 C179 1.274 . S
O170 Co159 1.976 . S
O170 C179 1.251 . S
O171 Co158 2.264 . S
O171 Co159 2.327 . S
O171 C180 1.257 . S
O172 Co159 2.073 . S
O172 C180 1.245 . S
C173 O181 1.259 . S
C173 O182 1.289 . S
C174 O183 1.246 . S
C174 O184 1.257 . S
C175 O163 1.251 . S
C175 O164 1.274 . S
C176 O161 1.245 . S
C176 O162 1.257 . S
C177 O166 1.259 . S
C177 O167 1.289 . S
C178 O165 1.246 . S
C178 O168 1.257 . S
C179 O169 1.274 . S
C179 O170 1.251 . S
C180 O171 1.257 . S
C180 O172 1.245 . S
O181 Co152 2.286 . S
O181 C173 1.259 . S
O182 Co152 2.069 . S
O182 C173 1.289 . S
O183 Co154 2.143 . S
O183 C174 1.246 . S
O184 Co152 2.015 . S
O184 C174 1.257 . S
Co185 O188 2.042 . S
Co185 O195 2.264 . S
Co185 O214 2.286 . S
Co185 O215 2.069 . S
Co185 O217 2.015 . S
Co186 O188 2.122 . S
Co186 O194 2.073 . S
Co186 O195 2.327 . S
Co186 O196 1.976 . S
Co187 O188 2.087 1_545 S
Co187 O190 2.087 . S
Co187 O197 2.111 1_545 S
Co187 O198 2.143 . S
Co187 O202 2.111 . S
Co187 O216 2.143 1_545 S
O188 Co185 2.042 . S
O188 Co186 2.122 . S
O188 Co187 2.087 1_565 S
O188 H189 0.980 1_565 S
H189 O188 0.980 1_545 S
O190 Co187 2.087 . S
O190 Co191 2.042 . S
O190 Co192 2.122 . S
O190 H193 0.980 . S
Co191 O190 2.042 . S
Co191 O199 2.286 . S
Co191 O200 2.069 . S
Co191 O201 2.015 . S
Co191 O204 2.264 . S
Co192 O190 2.122 . S
Co192 O203 1.976 . S
Co192 O204 2.327 . S
Co192 O205 2.073 . S
H193 O190 0.980 . S
O194 Co186 2.073 . S
O194 C209 1.245 . S
O195 Co185 2.264 . S
O195 Co186 2.327 . S
O195 C209 1.257 . S
O196 Co186 1.976 . S
O196 C208 1.251 . S
O197 Co187 2.111 1_565 S
O197 C208 1.274 . S
O198 Co187 2.143 . S
O198 C211 1.246 . S
O199 Co191 2.286 . S
O199 C210 1.259 . S
O200 Co191 2.069 . S
O200 C210 1.289 . S
O201 Co191 2.015 . S
O201 C211 1.257 . S
O202 Co187 2.111 . S
O202 C212 1.274 . S
O203 Co192 1.976 . S
O203 C212 1.251 . S
O204 Co191 2.264 . S
O204 Co192 2.327 . S
O204 C213 1.257 . S
O205 Co192 2.073 . S
O205 C213 1.245 . S
C206 O214 1.259 . S
C206 O215 1.289 . S
C207 O216 1.246 . S
C207 O217 1.257 . S
C208 O196 1.251 . S
C208 O197 1.274 . S
C209 O194 1.245 . S
C209 O195 1.257 . S
C210 O199 1.259 . S
C210 O200 1.289 . S
C211 O198 1.246 . S
C211 O201 1.257 . S
C212 O202 1.274 . S
C212 O203 1.251 . S
C213 O204 1.257 . S
C213 O205 1.245 . S
O214 Co185 2.286 . S
O214 C206 1.259 . S
O215 Co185 2.069 . S
O215 C206 1.289 . S
O216 Co187 2.143 1_565 S
O216 C207 1.246 . S
O217 Co185 2.015 . S
O217 C207 1.257 . S
Co218 O221 2.042 . S
Co218 O228 2.264 . S
Co218 O247 2.286 . S
Co218 O248 2.069 . S
Co218 O250 2.015 . S
Co219 O221 2.122 . S
Co219 O227 2.073 . S
Co219 O228 2.327 . S
Co219 O229 1.976 . S
Co220 O221 2.087 . S
Co220 O223 2.087 1_554 S
Co220 O230 2.111 . S
Co220 O231 2.143 1_554 S
Co220 O235 2.111 1_554 S
Co220 O249 2.143 . S
O221 Co218 2.042 . S
O221 Co219 2.122 . S
O221 Co220 2.087 . S
O221 H222 0.980 . S
H222 O221 0.980 . S
O223 Co220 2.087 1_556 S
O223 Co224 2.042 . S
O223 Co225 2.122 . S
O223 H226 0.980 . S
Co224 O223 2.042 . S
Co224 O232 2.286 . S
Co224 O233 2.069 . S
Co224 O234 2.015 . S
Co224 O237 2.264 . S
Co225 O223 2.122 . S
Co225 O236 1.976 . S
Co225 O237 2.327 . S
Co225 O238 2.073 . S
H226 O223 0.980 . S
O227 Co219 2.073 . S
O227 C242 1.245 . S
O228 Co218 2.264 . S
O228 Co219 2.327 . S
O228 C242 1.257 . S
O229 Co219 1.976 . S
O229 C241 1.251 . S
O230 Co220 2.111 . S
O230 C241 1.274 . S
O231 Co220 2.143 1_556 S
O231 C244 1.246 . S
O232 Co224 2.286 . S
O232 C243 1.259 . S
O233 Co224 2.069 . S
O233 C243 1.289 . S
O234 Co224 2.015 . S
O234 C244 1.257 . S
O235 Co220 2.111 1_556 S
O235 C245 1.274 . S
O236 Co225 1.976 . S
O236 C245 1.251 . S
O237 Co224 2.264 . S
O237 Co225 2.327 . S
O237 C246 1.257 . S
O238 Co225 2.073 . S
O238 C246 1.245 . S
C239 O247 1.259 . S
C239 O248 1.289 . S
C240 O249 1.246 . S
C240 O250 1.257 . S
C241 O229 1.251 . S
C241 O230 1.274 . S
C242 O227 1.245 . S
C242 O228 1.257 . S
C243 O232 1.259 . S
C243 O233 1.289 . S
C244 O231 1.246 . S
C244 O234 1.257 . S
C245 O235 1.274 . S
C245 O236 1.251 . S
C246 O237 1.257 . S
C246 O238 1.245 . S
O247 Co218 2.286 . S
O247 C239 1.259 . S
O248 Co218 2.069 . S
O248 C239 1.289 . S
O249 Co220 2.143 . S
O249 C240 1.246 . S
O250 Co218 2.015 . S
O250 C240 1.257 . S
C251 C252 1.363 . S
C251 C257 1.379 . S
C251 N259 1.356 . S
C252 C251 1.363 . S
C252 C258 1.363 . S
C253 C254 1.363 . S
C253 C258 1.379 . S
C253 N260 1.356 . S
C254 C253 1.363 . S
C254 C257 1.363 . S
N255 C257 1.356 . S
N255 H267 0.984 . S
N255 H268 0.985 . S
N256 C258 1.356 . S
N256 H261 0.984 . S
N256 H262 0.985 . S
C257 C251 1.379 . S
C257 C254 1.363 . S
C257 N255 1.356 . S
C258 C252 1.363 . S
C258 C253 1.379 . S
C258 N256 1.356 . S
N259 C251 1.356 . S
N259 H265 0.984 . S
N259 H266 0.984 . S
N260 C253 1.356 . S
N260 H263 0.984 . S
N260 H264 0.985 . S
H261 N256 0.984 . S
H262 N256 0.985 . S
H263 N260 0.984 . S
H264 N260 0.985 . S
H265 N259 0.984 . S
H266 N259 0.984 . S
H267 N255 0.984 . S
H268 N255 0.985 . S
C269 C270 1.363 . S
C269 C275 1.379 . S
C269 N277 1.356 . S
C270 C269 1.363 . S
C270 C276 1.363 . S
C271 C272 1.363 . S
C271 C276 1.379 . S
C271 N278 1.356 . S
C272 C271 1.363 . S
C272 C275 1.363 . S
N273 C275 1.356 . S
N273 H285 0.984 . S
N273 H286 0.985 . S
N274 C276 1.356 . S
N274 H279 0.984 . S
N274 H280 0.985 . S
C275 C269 1.379 . S
C275 C272 1.363 . S
C275 N273 1.356 . S
C276 C270 1.363 . S
C276 C271 1.379 . S
C276 N274 1.356 . S
N277 C269 1.356 . S
N277 H283 0.984 . S
N277 H284 0.984 . S
N278 C271 1.356 . S
N278 H281 0.984 . S
N278 H282 0.985 . S
H279 N274 0.984 . S
H280 N274 0.985 . S
H281 N278 0.984 . S
H282 N278 0.985 . S
H283 N277 0.984 . S
H284 N277 0.984 . S
H285 N273 0.984 . S
H286 N273 0.985 . S
C287 C288 1.363 . S
C287 C293 1.379 . S
C287 N295 1.356 . S
C288 C287 1.363 . S
C288 C294 1.363 . S
C289 C290 1.363 . S
C289 C294 1.379 . S
C289 N296 1.356 . S
C290 C289 1.363 . S
C290 C293 1.363 . S
N291 C293 1.356 . S
N291 H303 0.984 1_655 S
N291 H304 0.985 . S
N292 C294 1.356 . S
N292 H297 0.984 . S
N292 H298 0.985 . S
C293 C287 1.379 . S
C293 C290 1.363 . S
C293 N291 1.356 . S
C294 C288 1.363 . S
C294 C289 1.379 . S
C294 N292 1.356 . S
N295 C287 1.356 . S
N295 H301 0.984 . S
N295 H302 0.984 . S
N296 C289 1.356 . S
N296 H299 0.984 . S
N296 H300 0.985 . S
H297 N292 0.984 . S
H298 N292 0.985 . S
H299 N296 0.984 . S
H300 N296 0.985 . S
H301 N295 0.984 . S
H302 N295 0.984 . S
H303 N291 0.984 1_455 S
H304 N291 0.985 . S
C305 C306 1.363 . S
C305 C311 1.379 . S
C305 N313 1.356 . S
C306 C305 1.363 . S
C306 C312 1.363 . S
C307 C308 1.363 . S
C307 C312 1.379 . S
C307 N314 1.356 . S
C308 C307 1.363 . S
C308 C311 1.363 . S
N309 C311 1.356 . S
N309 H321 0.984 . S
N309 H322 0.985 . S
N310 C312 1.356 . S
N310 H315 0.984 . S
N310 H316 0.985 . S
C311 C305 1.379 . S
C311 C308 1.363 . S
C311 N309 1.356 . S
C312 C306 1.363 . S
C312 C307 1.379 . S
C312 N310 1.356 . S
N313 C305 1.356 . S
N313 H319 0.984 . S
N313 H320 0.984 . S
N314 C307 1.356 . S
N314 H317 0.984 . S
N314 H318 0.985 . S
H315 N310 0.984 . S
H316 N310 0.985 . S
H317 N314 0.984 . S
H318 N314 0.985 . S
H319 N313 0.984 . S
H320 N313 0.984 . S
H321 N309 0.984 . S
H322 N309 0.985 . S
C323 C324 1.363 . S
C323 C329 1.379 . S
C323 N331 1.356 . S
C324 C323 1.363 . S
C324 C330 1.363 . S
C325 C326 1.363 . S
C325 C330 1.379 . S
C325 N332 1.356 . S
C326 C325 1.363 . S
C326 C329 1.363 . S
N327 C329 1.356 . S
N327 H339 0.984 . S
N327 H340 0.985 . S
N328 C330 1.356 . S
N328 H333 0.984 . S
N328 H334 0.985 . S
C329 C323 1.379 . S
C329 C326 1.363 . S
C329 N327 1.356 . S
C330 C324 1.363 . S
C330 C325 1.379 . S
C330 N328 1.356 . S
N331 C323 1.356 . S
N331 H337 0.984 . S
N331 H338 0.984 . S
N332 C325 1.356 . S
N332 H335 0.984 . S
N332 H336 0.985 . S
H333 N328 0.984 . S
H334 N328 0.985 . S
H335 N332 0.984 . S
H336 N332 0.985 . S
H337 N331 0.984 . S
H338 N331 0.984 . S
H339 N327 0.984 . S
H340 N327 0.985 . S
C341 C342 1.363 . S
C341 C347 1.379 . S
C341 N349 1.356 . S
C342 C341 1.363 . S
C342 C348 1.363 . S
C343 C344 1.363 . S
C343 C348 1.379 . S
C343 N350 1.356 . S
C344 C343 1.363 . S
C344 C347 1.363 . S
N345 C347 1.356 . S
N345 H357 0.984 . S
N345 H358 0.985 . S
N346 C348 1.356 . S
N346 H351 0.984 . S
N346 H352 0.985 . S
C347 C341 1.379 . S
C347 C344 1.363 . S
C347 N345 1.356 . S
C348 C342 1.363 . S
C348 C343 1.379 . S
C348 N346 1.356 . S
N349 C341 1.356 . S
N349 H355 0.984 . S
N349 H356 0.984 . S
N350 C343 1.356 . S
N350 H353 0.984 . S
N350 H354 0.985 . S
H351 N346 0.984 . S
H352 N346 0.985 . S
H353 N350 0.984 . S
H354 N350 0.985 . S
H355 N349 0.984 . S
H356 N349 0.984 . S
H357 N345 0.984 . S
H358 N345 0.985 . S
C359 C360 1.363 . S
C359 C365 1.379 . S
C359 N367 1.356 . S
C360 C359 1.363 . S
C360 C366 1.363 . S
C361 C362 1.363 . S
C361 C366 1.379 . S
C361 N368 1.356 . S
C362 C361 1.363 . S
C362 C365 1.363 . S
N363 C365 1.356 . S
N363 H375 0.984 . S
N363 H376 0.985 . S
N364 C366 1.356 . S
N364 H369 0.984 . S
N364 H370 0.985 . S
C365 C359 1.379 . S
C365 C362 1.363 . S
C365 N363 1.356 . S
C366 C360 1.363 . S
C366 C361 1.379 . S
C366 N364 1.356 . S
N367 C359 1.356 . S
N367 H373 0.984 . S
N367 H374 0.984 . S
N368 C361 1.356 . S
N368 H371 0.984 . S
N368 H372 0.985 . S
H369 N364 0.984 . S
H370 N364 0.985 . S
H371 N368 0.984 . S
H372 N368 0.985 . S
H373 N367 0.984 . S
H374 N367 0.984 . S
H375 N363 0.984 . S
H376 N363 0.985 . S
C377 C378 1.363 . S
C377 C383 1.379 . S
C377 N385 1.356 . S
C378 C377 1.363 . S
C378 C384 1.363 . S
C379 C380 1.363 . S
C379 C384 1.379 . S
C379 N386 1.356 . S
C380 C379 1.363 . S
C380 C383 1.363 . S
N381 C383 1.356 . S
N381 H393 0.984 . S
N381 H394 0.985 . S
N382 C384 1.356 . S
N382 H387 0.984 . S
N382 H388 0.985 . S
C383 C377 1.379 . S
C383 C380 1.363 . S
C383 N381 1.356 . S
C384 C378 1.363 . S
C384 C379 1.379 . S
C384 N382 1.356 . S
N385 C377 1.356 . S
N385 H391 0.984 . S
N385 H392 0.984 . S
N386 C379 1.356 . S
N386 H389 0.984 . S
N386 H390 0.985 . S
H387 N382 0.984 . S
H388 N382 0.985 . S
H389 N386 0.984 . S
H390 N386 0.985 . S
H391 N385 0.984 . S
H392 N385 0.984 . S
H393 N381 0.984 . S
H394 N381 0.985 . S
C395 C396 1.363 . S
C395 C401 1.379 . S
C395 N403 1.356 . S
C396 C395 1.363 . S
C396 C402 1.363 . S
C397 C398 1.363 . S
C397 C402 1.379 . S
C397 N404 1.356 . S
C398 C397 1.363 . S
C398 C401 1.363 . S
N399 C401 1.356 . S
N399 H411 0.984 . S
N399 H412 0.985 . S
N400 C402 1.356 . S
N400 H405 0.984 . S
N400 H406 0.985 . S
C401 C395 1.379 . S
C401 C398 1.363 . S
C401 N399 1.356 . S
C402 C396 1.363 . S
C402 C397 1.379 . S
C402 N400 1.356 . S
N403 C395 1.356 . S
N403 H409 0.984 . S
N403 H410 0.984 . S
N404 C397 1.356 . S
N404 H407 0.984 . S
N404 H408 0.985 . S
H405 N400 0.984 . S
H406 N400 0.985 . S
H407 N404 0.984 . S
H408 N404 0.985 . S
H409 N403 0.984 . S
H410 N403 0.984 . S
H411 N399 0.984 . S
H412 N399 0.985 . S
C413 C414 1.363 . S
C413 C419 1.379 . S
C413 N421 1.356 . S
C414 C413 1.363 . S
C414 C420 1.363 . S
C415 C416 1.363 . S
C415 C420 1.379 . S
C415 N422 1.356 . S
C416 C415 1.363 . S
C416 C419 1.363 . S
N417 C419 1.356 . S
N417 H429 0.984 . S
N417 H430 0.985 . S
N418 C420 1.356 . S
N418 H423 0.984 . S
N418 H424 0.985 . S
C419 C413 1.379 . S
C419 C416 1.363 . S
C419 N417 1.356 . S
C420 C414 1.363 . S
C420 C415 1.379 . S
C420 N418 1.356 . S
N421 C413 1.356 . S
N421 H427 0.984 . S
N421 H428 0.984 . S
N422 C415 1.356 . S
N422 H425 0.984 . S
N422 H426 0.985 . S
H423 N418 0.984 . S
H424 N418 0.985 . S
H425 N422 0.984 . S
H426 N422 0.985 . S
H427 N421 0.984 . S
H428 N421 0.984 . S
H429 N417 0.984 . S
H430 N417 0.985 . S
C431 C432 1.363 . S
C431 C437 1.379 . S
C431 N439 1.356 . S
C432 C431 1.363 . S
C432 C438 1.363 . S
C433 C434 1.363 . S
C433 C438 1.379 . S
C433 N440 1.356 . S
C434 C433 1.363 . S
C434 C437 1.363 . S
N435 C437 1.356 . S
N435 H447 0.984 . S
N435 H448 0.985 . S
N436 C438 1.356 . S
N436 H441 0.984 . S
N436 H442 0.985 . S
C437 C431 1.379 . S
C437 C434 1.363 . S
C437 N435 1.356 . S
C438 C432 1.363 . S
C438 C433 1.379 . S
C438 N436 1.356 . S
N439 C431 1.356 . S
N439 H445 0.984 . S
N439 H446 0.984 . S
N440 C433 1.356 . S
N440 H443 0.984 . S
N440 H444 0.985 1_565 S
H441 N436 0.984 . S
H442 N436 0.985 . S
H443 N440 0.984 . S
H444 N440 0.985 1_545 S
H445 N439 0.984 . S
H446 N439 0.984 . S
H447 N435 0.984 . S
H448 N435 0.985 . S
C449 C450 1.363 . S
C449 C455 1.379 . S
C449 N457 1.356 . S
C450 C449 1.363 . S
C450 C456 1.363 . S
C451 C452 1.363 . S
C451 C456 1.379 . S
C451 N458 1.356 . S
C452 C451 1.363 . S
C452 C455 1.363 . S
N453 C455 1.356 . S
N453 H465 0.984 . S
N453 H466 0.985 . S
N454 C456 1.356 . S
N454 H459 0.984 . S
N454 H460 0.985 . S
C455 C449 1.379 . S
C455 C452 1.363 . S
C455 N453 1.356 . S
C456 C450 1.363 . S
C456 C451 1.379 . S
C456 N454 1.356 . S
N457 C449 1.356 . S
N457 H463 0.984 . S
N457 H464 0.984 . S
N458 C451 1.356 . S
N458 H461 0.984 . S
N458 H462 0.985 . S
H459 N454 0.984 . S
H460 N454 0.985 . S
H461 N458 0.984 . S
H462 N458 0.985 . S
H463 N457 0.984 . S
H464 N457 0.984 . S
H465 N453 0.984 . S
H466 N453 0.985 . S
C467 C468 1.363 . S
C467 C473 1.379 . S
C467 N475 1.356 . S
C468 C467 1.363 . S
C468 C474 1.363 . S
C469 C470 1.363 . S
C469 C474 1.379 . S
C469 N476 1.356 . S
C470 C469 1.363 . S
C470 C473 1.363 . S
N471 C473 1.356 . S
N471 H483 0.984 . S
N471 H484 0.985 . S
N472 C474 1.356 . S
N472 H477 0.984 . S
N472 H478 0.985 . S
C473 C467 1.379 . S
C473 C470 1.363 . S
C473 N471 1.356 . S
C474 C468 1.363 . S
C474 C469 1.379 . S
C474 N472 1.356 . S
N475 C467 1.356 . S
N475 H481 0.984 . S
N475 H482 0.984 . S
N476 C469 1.356 . S
N476 H479 0.984 . S
N476 H480 0.985 . S
H477 N472 0.984 . S
H478 N472 0.985 . S
H479 N476 0.984 . S
H480 N476 0.985 . S
H481 N475 0.984 . S
H482 N475 0.984 . S
H483 N471 0.984 . S
H484 N471 0.985 . S
C485 C486 1.363 . S
C485 C491 1.379 . S
C485 N493 1.356 . S
C486 C485 1.363 . S
C486 C492 1.363 . S
C487 C488 1.363 . S
C487 C492 1.379 . S
C487 N494 1.356 . S
C488 C487 1.363 . S
C488 C491 1.363 . S
N489 C491 1.356 . S
N489 H501 0.984 . S
N489 H502 0.985 . S
N490 C492 1.356 . S
N490 H495 0.984 . S
N490 H496 0.985 . S
C491 C485 1.379 . S
C491 C488 1.363 . S
C491 N489 1.356 . S
C492 C486 1.363 . S
C492 C487 1.379 . S
C492 N490 1.356 . S
N493 C485 1.356 . S
N493 H499 0.984 . S
N493 H500 0.984 . S
N494 C487 1.356 . S
N494 H497 0.984 . S
N494 H498 0.985 . S
H495 N490 0.984 . S
H496 N490 0.985 . S
H497 N494 0.984 . S
H498 N494 0.985 . S
H499 N493 0.984 . S
H500 N493 0.984 . S
H501 N489 0.984 . S
H502 N489 0.985 . S
C503 C504 1.363 . S
C503 C509 1.379 . S
C503 N511 1.356 . S
C504 C503 1.363 . S
C504 C510 1.363 . S
C505 C506 1.363 . S
C505 C510 1.379 . S
C505 N512 1.356 . S
C506 C505 1.363 . S
C506 C509 1.363 . S
N507 C509 1.356 . S
N507 H519 0.984 . S
N507 H520 0.985 . S
N508 C510 1.356 . S
N508 H513 0.984 . S
N508 H514 0.985 . S
C509 C503 1.379 . S
C509 C506 1.363 . S
C509 N507 1.356 . S
C510 C504 1.363 . S
C510 C505 1.379 . S
C510 N508 1.356 . S
N511 C503 1.356 . S
N511 H517 0.984 . S
N511 H518 0.984 . S
N512 C505 1.356 . S
N512 H515 0.984 . S
N512 H516 0.985 . S
H513 N508 0.984 . S
H514 N508 0.985 . S
H515 N512 0.984 . S
H516 N512 0.985 . S
H517 N511 0.984 . S
H518 N511 0.984 . S
H519 N507 0.984 . S
H520 N507 0.985 . S
C521 C522 1.363 . S
C521 C527 1.379 . S
C521 N529 1.356 . S
C522 C521 1.363 . S
C522 C528 1.363 . S
C523 C524 1.363 . S
C523 C528 1.379 . S
C523 N530 1.356 . S
C524 C523 1.363 . S
C524 C527 1.363 . S
N525 C527 1.356 1_455 S
N525 H537 0.984 . S
N525 H538 0.985 . S
N526 C528 1.356 . S
N526 H531 0.984 . S
N526 H532 0.985 . S
C527 C521 1.379 . S
C527 C524 1.363 . S
C527 N525 1.356 1_655 S
C528 C522 1.363 . S
C528 C523 1.379 . S
C528 N526 1.356 . S
N529 C521 1.356 . S
N529 H535 0.966 1_655 S
N529 H536 0.984 . S
N530 C523 1.356 . S
N530 H533 0.984 . S
N530 H534 0.985 . S
H531 N526 0.984 . S
H532 N526 0.985 . S
H533 N530 0.984 . S
H534 N530 0.985 . S
H535 N529 0.966 1_455 S
H536 N529 0.984 . S
H537 N525 0.984 . S
H538 N525 0.985 . S
C539 C540 1.363 . S
C539 C545 1.379 . S
C539 N547 1.356 . S
C540 C539 1.363 . S
C540 C546 1.363 . S
C541 C542 1.363 . S
C541 C546 1.379 . S
C541 N548 1.356 . S
C542 C541 1.363 . S
C542 C545 1.363 . S
N543 C545 1.356 . S
N543 H555 0.984 . S
N543 H556 0.985 . S
N544 C546 1.356 . S
N544 H549 0.984 . S
N544 H550 0.985 . S
C545 C539 1.379 . S
C545 C542 1.363 . S
C545 N543 1.356 . S
C546 C540 1.363 . S
C546 C541 1.379 . S
C546 N544 1.356 . S
N547 C539 1.356 . S
N547 H553 0.984 . S
N547 H554 0.984 . S
N548 C541 1.356 . S
N548 H551 0.984 . S
N548 H552 0.985 . S
H549 N544 0.984 . S
H550 N544 0.985 . S
H551 N548 0.984 . S
H552 N548 0.985 . S
H553 N547 0.984 . S
H554 N547 0.984 . S
H555 N543 0.984 . S
H556 N543 0.985 . S
C557 C558 1.363 . S
C557 C563 1.379 . S
C557 N565 1.356 . S
C558 C557 1.363 . S
C558 C564 1.363 . S
C559 C560 1.363 . S
C559 C564 1.379 . S
C559 N566 1.356 . S
C560 C559 1.363 . S
C560 C563 1.363 . S
N561 C563 1.356 . S
N561 H573 0.984 . S
N561 H574 0.985 . S
N562 C564 1.356 . S
N562 H567 0.984 . S
N562 H568 0.985 . S
C563 C557 1.379 . S
C563 C560 1.363 . S
C563 N561 1.356 . S
C564 C558 1.363 . S
C564 C559 1.379 . S
C564 N562 1.356 . S
N565 C557 1.356 . S
N565 H571 0.984 . S
N565 H572 0.984 . S
N566 C559 1.356 . S
N566 H569 0.984 . S
N566 H570 0.985 . S
H567 N562 0.984 . S
H568 N562 0.985 . S
H569 N566 0.984 . S
H570 N566 0.985 . S
H571 N565 0.984 . S
H572 N565 0.984 . S
H573 N561 0.984 . S
H574 N561 0.985 . S
C575 C576 1.363 . S
C575 C581 1.379 . S
C575 N583 1.356 . S
C576 C575 1.363 . S
C576 C582 1.363 . S
C577 C578 1.363 . S
C577 C582 1.379 . S
C577 N584 1.356 . S
C578 C577 1.363 . S
C578 C581 1.363 . S
N579 C581 1.356 . S
N579 H591 0.984 . S
N579 H592 0.985 . S
N580 C582 1.356 . S
N580 H585 0.984 . S
N580 H586 0.985 . S
C581 C575 1.379 . S
C581 C578 1.363 . S
C581 N579 1.356 . S
C582 C576 1.363 . S
C582 C577 1.379 . S
C582 N580 1.356 . S
N583 C575 1.356 . S
N583 H589 0.984 . S
N583 H590 0.984 . S
N584 C577 1.356 . S
N584 H587 0.984 . S
N584 H588 0.985 . S
H585 N580 0.984 . S
H586 N580 0.985 . S
H587 N584 0.984 . S
H588 N584 0.985 . S
H589 N583 0.984 . S
H590 N583 0.984 . S
H591 N579 0.984 . S
H592 N579 0.985 . S
C593 C594 1.363 . S
C593 C599 1.379 . S
C593 N601 1.356 . S
C594 C593 1.363 . S
C594 C600 1.363 . S
C595 C596 1.363 . S
C595 C600 1.379 . S
C595 N602 1.356 . S
C596 C595 1.363 . S
C596 C599 1.363 . S
N597 C599 1.356 . S
N597 H609 0.984 . S
N597 H610 0.985 . S
N598 C600 1.356 . S
N598 H603 0.984 . S
N598 H604 0.985 . S
C599 C593 1.379 . S
C599 C596 1.363 . S
C599 N597 1.356 . S
C600 C594 1.363 . S
C600 C595 1.379 . S
C600 N598 1.356 . S
N601 C593 1.356 . S
N601 H607 0.984 . S
N601 H608 0.984 . S
N602 C595 1.356 . S
N602 H605 0.984 . S
N602 H606 0.985 . S
H603 N598 0.984 . S
H604 N598 0.985 . S
H605 N602 0.984 . S
H606 N602 0.985 . S
H607 N601 0.984 . S
H608 N601 0.984 . S
H609 N597 0.984 . S
H610 N597 0.985 . S
C611 C612 1.363 . S
C611 C617 1.379 . S
C611 N619 1.356 . S
C612 C611 1.363 . S
C612 C618 1.363 . S
C613 C614 1.363 . S
C613 C618 1.379 . S
C613 N620 1.356 . S
C614 C613 1.363 . S
C614 C617 1.363 . S
N615 C617 1.356 . S
N615 H627 0.984 . S
N615 H628 0.985 . S
N616 C618 1.356 . S
N616 H621 0.984 . S
N616 H622 0.985 . S
C617 C611 1.379 . S
C617 C614 1.363 . S
C617 N615 1.356 . S
C618 C612 1.363 . S
C618 C613 1.379 . S
C618 N616 1.356 . S
N619 C611 1.356 . S
N619 H625 0.984 . S
N619 H626 0.984 . S
N620 C613 1.356 . S
N620 H623 0.984 . S
N620 H624 0.985 . S
H621 N616 0.984 . S
H622 N616 0.985 . S
H623 N620 0.984 . S
H624 N620 0.985 . S
H625 N619 0.984 . S
H626 N619 0.984 . S
H627 N615 0.984 . S
H628 N615 0.985 . S
C629 C630 1.363 . S
C629 C635 1.379 . S
C629 N637 1.356 . S
C630 C629 1.363 . S
C630 C636 1.363 . S
C631 C632 1.363 . S
C631 C636 1.379 . S
C631 N638 1.356 . S
C632 C631 1.363 . S
C632 C635 1.363 . S
N633 C635 1.356 . S
N633 H645 0.984 . S
N633 H646 0.985 . S
N634 C636 1.356 . S
N634 H639 0.984 . S
N634 H640 0.985 . S
C635 C629 1.379 . S
C635 C632 1.363 . S
C635 N633 1.356 . S
C636 C630 1.363 . S
C636 C631 1.379 . S
C636 N634 1.356 . S
N637 C629 1.356 . S
N637 H643 0.984 . S
N637 H644 0.984 . S
N638 C631 1.356 . S
N638 H641 0.984 . S
N638 H642 0.985 . S
H639 N634 0.984 . S
H640 N634 0.985 . S
H641 N638 0.984 . S
H642 N638 0.985 . S
H643 N637 0.984 . S
H644 N637 0.984 . S
H645 N633 0.984 . S
H646 N633 0.985 . S
C647 C648 1.363 . S
C647 C653 1.379 . S
C647 N655 1.356 . S
C648 C647 1.363 . S
C648 C654 1.363 . S
C649 C650 1.363 . S
C649 C654 1.379 . S
C649 N656 1.356 . S
C650 C649 1.363 . S
C650 C653 1.363 . S
N651 C653 1.356 . S
N651 H663 0.984 . S
N651 H664 0.985 . S
N652 C654 1.356 . S
N652 H657 0.984 . S
N652 H658 0.985 . S
C653 C647 1.379 . S
C653 C650 1.363 . S
C653 N651 1.356 . S
C654 C648 1.363 . S
C654 C649 1.379 . S
C654 N652 1.356 . S
N655 C647 1.356 . S
N655 H661 0.984 . S
N655 H662 0.984 . S
N656 C649 1.356 . S
N656 H659 0.984 . S
N656 H660 0.985 . S
H657 N652 0.984 . S
H658 N652 0.985 . S
H659 N656 0.984 . S
H660 N656 0.985 . S
H661 N655 0.984 . S
H662 N655 0.984 . S
H663 N651 0.984 . S
H664 N651 0.985 . S
C665 C666 1.363 . S
C665 C671 1.379 . S
C665 N673 1.356 . S
C666 C665 1.363 . S
C666 C672 1.363 . S
C667 C668 1.363 . S
C667 C672 1.379 . S
C667 N674 1.356 . S
C668 C667 1.363 . S
C668 C671 1.363 . S
N669 C671 1.356 . S
N669 H681 0.984 . S
N669 H682 0.985 . S
N670 C672 1.356 . S
N670 H675 0.984 . S
N670 H676 0.985 . S
C671 C665 1.379 . S
C671 C668 1.363 . S
C671 N669 1.356 . S
C672 C666 1.363 . S
C672 C667 1.379 . S
C672 N670 1.356 . S
N673 C665 1.356 . S
N673 H679 0.984 . S
N673 H680 0.984 . S
N674 C667 1.356 . S
N674 H677 0.984 . S
N674 H678 0.985 . S
H675 N670 0.984 . S
H676 N670 0.985 . S
H677 N674 0.984 . S
H678 N674 0.985 . S
H679 N673 0.984 . S
H680 N673 0.984 . S
H681 N669 0.984 . S
H682 N669 0.985 . S
C254 C176 1.518 . S
C252 C11 1.462 . S
C272 C212 1.350 . S
C270 C25 1.392 . S
C290 C177 1.754 . S
C288 C40 1.766 . S
C308 C207 1.614 . S
C306 C59 1.668 . S
C326 C174 1.460 . S
C324 C82 1.515 . S
C342 C101 2.007 . S
C344 C210 2.012 . S
C360 C116 0.662 . S
C362 C179 0.698 . S
C380 C209 1.595 . S
C378 C144 1.387 . S
C398 C213 1.879 . S
C396 C2 1.916 . S
C416 C178 1.122 . S
C414 C21 1.136 . S
C434 C206 1.653 . S
C432 C49 1.352 . S
C452 C175 1.247 . S
C450 C63 1.397 . S
C470 C208 1.810 . S
C468 C78 1.931 . S
C486 C106 1.313 . S
C488 C173 1.346 . S
C504 C120 1.193 . S
C506 C211 1.215 . S
C524 C180 1.656 . S
C522 C135 1.761 . S
C542 C242 1.856 . S
C540 C6 1.970 . S
C558 C87 1.708 . S
C560 C245 1.778 . S
C578 C244 2.098 . S
C576 C97 2.149 . S
C594 C125 1.033 . S
C596 C243 1.098 . S
C614 C246 1.935 . S
C612 C139 2.053 . S
C630 C44 1.943 . S
C632 C240 1.915 . S
C650 C239 1.921 . S
C648 C68 1.865 . S
C666 C30 0.904 . S
C668 C241 0.977 . S
