# Generated by pormake.
# Topology zzz, (3,6)-cn, num edge types: 1
# Building blocks:
#     Node 0, Type 0, BuildingBlock: BETDAH_clean_linker_0, # of connection points: 3
#     Node 1, Type 0, BuildingBlock: BETDAH_clean_linker_0, # of connection points: 3
#     Node 2, Type 0, BuildingBlock: BETDAH_clean_linker_0, # of connection points: 3
#     Node 3, Type 0, BuildingBlock: BETDAH_clean_linker_0, # of connection points: 3
#     Node 4, Type 0, BuildingBlock: BETDAH_clean_linker_0, # of connection points: 3
#     Node 5, Type 0, BuildingBlock: BETDAH_clean_linker_0, # of connection points: 3
#     Node 6, Type 0, BuildingBlock: BETDAH_clean_linker_0, # of connection points: 3
#     Node 7, Type 0, BuildingBlock: BETDAH_clean_linker_0, # of connection points: 3
#     Node 8, Type 1, BuildingBlock: GEDQOX_clean_sbu_0, # of connection points: 6
#     Node 9, Type 1, BuildingBlock: GEDQOX_clean_sbu_0, # of connection points: 6
#     Node 10, Type 1, BuildingBlock: GEDQOX_clean_sbu_0, # of connection points: 6
#     Node 11, Type 1, BuildingBlock: GEDQOX_clean_sbu_0, # of connection points: 6
#     Edge 12, Type (0, 1), BuildingBlock: XIVTED_clean_linker_0, # of connection points: 2
#     Edge 13, Type (0, 1), BuildingBlock: XIVTED_clean_linker_0, # of connection points: 2
#     Edge 14, Type (0, 1), BuildingBlock: XIVTED_clean_linker_0, # of connection points: 2
#     Edge 15, Type (0, 1), BuildingBlock: XIVTED_clean_linker_0, # of connection points: 2
#     Edge 16, Type (0, 1), BuildingBlock: XIVTED_clean_linker_0, # of connection points: 2
#     Edge 17, Type (0, 1), BuildingBlock: XIVTED_clean_linker_0, # of connection points: 2
#     Edge 18, Type (0, 1), BuildingBlock: XIVTED_clean_linker_0, # of connection points: 2
#     Edge 19, Type (0, 1), BuildingBlock: XIVTED_clean_linker_0, # of connection points: 2
#     Edge 20, Type (0, 1), BuildingBlock: XIVTED_clean_linker_0, # of connection points: 2
#     Edge 21, Type (0, 1), BuildingBlock: XIVTED_clean_linker_0, # of connection points: 2
#     Edge 22, Type (0, 1), BuildingBlock: XIVTED_clean_linker_0, # of connection points: 2
#     Edge 23, Type (0, 1), BuildingBlock: XIVTED_clean_linker_0, # of connection points: 2
#     Edge 24, Type (0, 1), BuildingBlock: XIVTED_clean_linker_0, # of connection points: 2
#     Edge 25, Type (0, 1), BuildingBlock: XIVTED_clean_linker_0, # of connection points: 2
#     Edge 26, Type (0, 1), BuildingBlock: XIVTED_clean_linker_0, # of connection points: 2
#     Edge 27, Type (0, 1), BuildingBlock: XIVTED_clean_linker_0, # of connection points: 2
#     Edge 28, Type (0, 1), BuildingBlock: XIVTED_clean_linker_0, # of connection points: 2
#     Edge 29, Type (0, 1), BuildingBlock: XIVTED_clean_linker_0, # of connection points: 2
#     Edge 30, Type (0, 1), BuildingBlock: XIVTED_clean_linker_0, # of connection points: 2
#     Edge 31, Type (0, 1), BuildingBlock: XIVTED_clean_linker_0, # of connection points: 2
#     Edge 32, Type (0, 1), BuildingBlock: XIVTED_clean_linker_0, # of connection points: 2
#     Edge 33, Type (0, 1), BuildingBlock: XIVTED_clean_linker_0, # of connection points: 2
#     Edge 34, Type (0, 1), BuildingBlock: XIVTED_clean_linker_0, # of connection points: 2
#     Edge 35, Type (0, 1), BuildingBlock: XIVTED_clean_linker_0, # of connection points: 2
# Relax obj value: 0.130
# Max RMSD: 0.183
# Mean RMSD: 0.086
data_MOF--net-zzz--node1-GEDQOX_clean_sbu_0--node2-BETDAH_clean_linker_0--edge1-XIVTED_clean_linker_0
_symmetry_space_group_name_H-M    P1
_symmetry_Int_Tables_number       1
_symmetry_cell_setting            triclinic
loop_
_symmetry_equiv_pos_as_xyz
'x, y, z'
_cell_length_a     54.604626
_cell_length_b     54.006987
_cell_length_c     17.466362
_cell_angle_alpha  79.649746
_cell_angle_beta   89.14925
_cell_angle_gamma 99.856271
loop_
_atom_site_label
_atom_site_type_symbol
_atom_site_fract_x
_atom_site_fract_y
_atom_site_fract_z
_atom_type_partial_charge
H0 H 0.84289 0.53881 0.20447 0.0
H1 H 0.79057 0.54999 0.02468 0.0
H2 H 0.79325 0.59179 0.21314 0.0
C3 C 0.82714 0.54704 0.18137 0.0
C4 C 0.81853 0.565 0.21852 0.0
C5 C 0.81765 0.54179 0.11063 0.0
C6 C 0.79788 0.55351 0.07982 0.0
C7 C 0.78867 0.57114 0.118 0.0
C8 C 0.79959 0.57738 0.18581 0.0
N9 N 0.77014 0.58471 0.08541 0.0
C10 C 0.74754 0.57283 0.06249 0.0
H11 H 0.04126 0.83552 0.27496 0.0
H12 H 0.03526 0.7754 0.14077 0.0
H13 H 0.00531 0.7598 0.37842 0.0
C14 C 0.03612 0.81545 0.27137 0.0
C15 C 0.02347 0.79867 0.33523 0.0
C16 C 0.04021 0.8075 0.20094 0.0
C17 C 0.03257 0.78158 0.19548 0.0
C18 C 0.02053 0.764 0.26053 0.0
C19 C 0.01541 0.77294 0.32941 0.0
N20 N 0.01188 0.73767 0.25809 0.0
C21 C 0.02016 0.72333 0.20684 0.0
H22 H 0.71185 0.02048 0.18632 0.0
H23 H 0.76398 0.99952 0.03333 0.0
H24 H 0.758 0.96632 0.27747 0.0
C25 C 0.7272 0.01071 0.1781 0.0
C26 C 0.73434 0.99408 0.24157 0.0
C27 C 0.73744 0.01267 0.1027 0.0
C28 C 0.75636 0.99878 0.09151 0.0
C29 C 0.76419 0.98251 0.15517 0.0
C30 C 0.75269 0.97974 0.22942 0.0
N31 N 0.78132 0.96638 0.14419 0.0
C32 C 0.80541 0.97546 0.11285 0.0
H33 H 0.51776 0.7276 0.42767 0.0
H34 H 0.50622 0.8046 0.35319 0.0
H35 H 0.53274 0.78149 0.58221 0.0
C36 C 0.51873 0.74681 0.4393 0.0
C37 C 0.52657 0.7523 0.51131 0.0
C38 C 0.51124 0.7655 0.38285 0.0
C39 C 0.51209 0.79028 0.3973 0.0
C40 C 0.52007 0.7962 0.46941 0.0
C41 C 0.5268 0.77699 0.5266 0.0
N42 N 0.52144 0.82114 0.48627 0.0
C43 C 0.52084 0.84267 0.42964 0.0
H44 H 0.21468 0.52554 0.60901 0.0
H45 H 0.26641 0.51237 0.7892 0.0
H46 H 0.26278 0.47106 0.59936 0.0
C47 C 0.23011 0.51669 0.63198 0.0
C48 C 0.23816 0.49849 0.59458 0.0
C49 C 0.23974 0.52151 0.70289 0.0
C50 C 0.2591 0.50916 0.73379 0.0
C51 C 0.26789 0.49144 0.69505 0.0
C52 C 0.25678 0.48557 0.62707 0.0
N53 N 0.28632 0.47758 0.72682 0.0
C54 C 0.30889 0.48916 0.75082 0.0
H55 H 0.01618 0.23162 0.53011 0.0
H56 H 0.02343 0.29076 0.66821 0.0
H57 H 0.05007 0.30806 0.42692 0.0
C58 C 0.02122 0.25164 0.53451 0.0
C59 C 0.03283 0.26889 0.46997 0.0
C60 C 0.01798 0.25908 0.60624 0.0
C61 C 0.02546 0.28496 0.61258 0.0
C62 C 0.03647 0.303 0.54693 0.0
C63 C 0.04073 0.29457 0.47652 0.0
N64 N 0.04498 0.32931 0.54999 0.0
C65 C 0.03716 0.34327 0.6031 0.0
H66 H 0.3564 0.0624 0.63173 0.0
H67 H 0.28932 0.06041 0.76676 0.0
H68 H 0.30218 0.10673 0.53649 0.0
C69 C 0.33844 0.06816 0.63691 0.0
C70 C 0.33098 0.08539 0.57597 0.0
C71 C 0.32357 0.05895 0.70554 0.0
C72 C 0.30056 0.06689 0.71296 0.0
C73 C 0.29266 0.08398 0.65118 0.0
C74 C 0.30801 0.09319 0.5832 0.0
N75 N 0.27021 0.09357 0.65688 0.0
C76 C 0.2488 0.08023 0.69952 0.0
H77 H 0.54219 0.33244 0.41091 0.0
H78 H 0.54837 0.25377 0.47658 0.0
H79 H 0.54065 0.28571 0.2348 0.0
C80 C 0.54314 0.31431 0.39357 0.0
C81 C 0.54166 0.31209 0.31499 0.0
C82 C 0.54588 0.29354 0.45111 0.0
C83 C 0.54625 0.26969 0.43123 0.0
C84 C 0.54393 0.26669 0.35286 0.0
C85 C 0.54189 0.28799 0.29506 0.0
N86 N 0.54368 0.24261 0.33056 0.0
C87 C 0.54244 0.21999 0.38422 0.0
Nd88 Nd 0.01505 0.02304 0.82832 0.0
Nd89 Nd 0.03861 0.03982 0.9837 0.0
C90 C 0.98645 0.99729 0.73804 0.0
C91 C 0.98925 0.97476 0.70347 0.0
C92 C 0.97325 0.96707 0.64676 0.0
C93 C 0.97577 0.94543 0.61517 0.0
C94 C 0.99433 0.9309 0.6399 0.0
C95 C 0.01029 0.9388 0.69704 0.0
C96 C 0.00786 0.9605 0.728 0.0
C97 C 0.06663 0.03344 0.81285 0.0
C98 C 0.03928 0.98258 0.95821 0.0
C99 C 0.06192 0.06552 0.08545 0.0
C100 C 0.06023 0.0896 0.11283 0.0
C101 C 0.07606 0.09757 0.16955 0.0
C102 C 0.07443 0.12021 0.19655 0.0
C103 C 0.05694 0.1355 0.1672 0.0
C104 C 0.04121 0.12743 0.10973 0.0
C105 C 0.04278 0.10471 0.08315 0.0
C106 C 0.9889 0.01872 0.99359 0.0
C107 C 0.01763 0.08233 0.84771 0.0
O108 O 0.98332 0.99294 0.81423 0.0
O109 O 1.002 0.01856 0.71079 0.0
O110 O 0.05254 0.02699 0.75798 0.0
O111 O 0.05294 0.0346 0.86988 0.0
O112 O 0.02148 0.98628 0.90899 0.0
O113 O 0.0519 1.00145 0.98862 0.0
O114 O 0.07016 0.06781 0.01332 0.0
O115 O 0.04297 0.04683 0.10464 0.0
O116 O 1.00379 0.01482 0.05018 0.0
O117 O 1.00016 0.03422 0.93606 0.0
O118 O 0.03029 0.07719 0.91101 0.0
O119 O 0.00813 0.06459 0.80743 0.0
H120 H 0.95881 0.97783 0.62675 0.0
H121 H 0.96338 0.94033 0.5705 0.0
H122 H 0.02456 0.92806 0.71874 0.0
H123 H 0.0205 0.96611 0.77154 0.0
H124 H 0.08959 0.08614 0.19353 0.0
H125 H 0.08658 0.12542 0.24168 0.0
H126 H 0.02773 0.13873 0.08479 0.0
H127 H 0.03028 0.0989 0.03958 0.0
Nd128 Nd 0.52605 0.01094 0.86568 0.0
Nd129 Nd 0.52902 0.05259 0.95688 0.0
C130 C 0.53586 0.97335 0.79869 0.0
C131 C 0.55777 0.97346 0.74859 0.0
C132 C 0.56119 0.95189 0.7183 0.0
C133 C 0.58218 0.95295 0.66952 0.0
C134 C 0.60008 0.97555 0.65102 0.0
C135 C 0.59662 0.99682 0.68336 0.0
C136 C 0.57557 0.99588 0.73041 0.0
C137 C 0.52499 0.05806 0.77619 0.0
C138 C 0.58107 0.04154 0.90446 0.0
C139 C 0.52104 0.09217 0.01768 0.0
C140 C 0.49999 0.0964 0.06401 0.0
C141 C 0.49996 0.12014 0.08569 0.0
C142 C 0.48001 0.1238 0.13123 0.0
C143 C 0.45973 0.10378 0.15514 0.0
C144 C 0.45981 0.08012 0.13229 0.0
C145 C 0.47981 0.07644 0.08752 0.0
C146 C 0.53057 1.00568 0.04635 0.0
C147 C 0.4739 0.02114 0.92059 0.0
O148 O 0.5404 0.97461 0.87133 0.0
O149 O 0.52126 0.98907 0.76932 0.0
O150 O 0.51123 0.03705 0.76562 0.0
O151 O 0.5393 0.05388 0.83119 0.0
O152 O 0.56759 0.01998 0.89248 0.0
O153 O 0.57032 0.06026 0.91988 0.0
O154 O 0.51659 0.09005 0.94556 0.0
O155 O 0.53337 0.07492 0.05207 0.0
O156 O 0.54404 0.02685 0.05715 0.0
O157 O 0.51605 0.00958 0.99168 0.0
O158 O 0.48716 0.04264 0.93432 0.0
O159 O 0.48483 1.00275 0.90337 0.0
H160 H 0.54756 0.93443 0.73149 0.0
H161 H 0.58406 0.93628 0.64506 0.0
H162 H 0.61016 0.01437 0.67233 0.0
H163 H 0.57315 0.01286 0.75233 0.0
H164 H 0.51541 0.13575 0.06796 0.0
H165 H 0.48042 0.14226 0.14766 0.0
H166 H 0.44474 0.06417 0.15086 0.0
H167 H 0.47968 0.05788 0.07208 0.0
Nd168 Nd 0.51524 0.53718 0.98203 0.0
Nd169 Nd 0.54081 0.52518 0.84321 0.0
C170 C 0.48598 0.55592 0.06952 0.0
C171 C 0.48429 0.58218 0.07784 0.0
C172 C 0.46101 0.58898 0.08848 0.0
C173 C 0.45932 0.61405 0.09529 0.0
C174 C 0.48094 0.63274 0.09203 0.0
C175 C 0.5042 0.62584 0.0795 0.0
C176 C 0.50583 0.6009 0.07188 0.0
C177 C 0.56533 0.53835 0.99588 0.0
C178 C 0.53731 0.58384 0.83375 0.0
C179 C 0.568 0.50572 0.75119 0.0
C180 C 0.56704 0.47905 0.74278 0.0
C181 C 0.58611 0.4718 0.70218 0.0
C182 C 0.58499 0.44613 0.69611 0.0
C183 C 0.5649 0.42731 0.73145 0.0
C184 C 0.54612 0.43482 0.77331 0.0
C185 C 0.54706 0.46043 0.77812 0.0
C186 C 0.49049 0.52367 0.83178 0.0
C187 C 0.52089 0.47903 0.9954 0.0
O188 O 0.47959 0.54993 0.00241 0.0
O189 O 0.50606 0.54751 0.09466 0.0
O190 O 0.54906 0.52986 0.05366 0.0
O191 O 0.55524 0.54729 0.935 0.0
O192 O 0.5211 0.57536 0.89358 0.0
O193 O 0.5506 0.56855 0.80805 0.0
O194 O 0.57523 0.51085 0.81855 0.0
O195 O 0.54851 0.51563 0.72812 0.0
O196 O 0.50654 0.53309 0.77395 0.0
O197 O 0.50102 0.51457 0.8914 0.0
O198 O 0.53605 0.48737 0.93303 0.0
O199 O 0.5076 0.49401 0.02255 0.0
H200 H 0.44415 0.57487 0.09166 0.0
H201 H 0.44107 0.61873 0.10356 0.0
H202 H 0.52131 0.63946 0.07795 0.0
H203 H 0.524 0.5962 0.0622 0.0
H204 H 0.60169 0.48598 0.67466 0.0
H205 H 0.59957 0.44118 0.66216 0.0
H206 H 0.53057 0.42094 0.80229 0.0
H207 H 0.53209 0.46574 0.80936 0.0
Nd208 Nd 0.02604 0.55464 0.82337 0.0
Nd209 Nd 0.03182 0.51271 0.98252 0.0
C210 C 0.01443 0.59396 0.72752 0.0
C211 C 0.99427 0.59492 0.6729 0.0
C212 C 0.9851 0.61764 0.64853 0.0
C213 C 0.9639 0.61754 0.60417 0.0
C214 C 0.9515 0.59464 0.58428 0.0
C215 C 0.96124 0.57211 0.60742 0.0
C216 C 0.98229 0.57223 0.65156 0.0
C217 C 0.02359 0.5054 0.79171 0.0
C218 C 0.97611 0.519 0.92351 0.0
C219 C 0.04329 0.47334 0.07856 0.0
C220 C 0.06343 0.47221 0.1332 0.0
C221 C 0.07172 0.44916 0.16017 0.0
C222 C 0.0927 0.44892 0.20545 0.0
C223 C 0.10574 0.4718 0.22377 0.0
C224 C 0.09691 0.49471 0.19781 0.0
C225 C 0.07608 0.49492 0.1527 0.0
C226 C 0.03421 0.56198 0.01404 0.0
C227 C 0.08173 0.54824 0.88169 0.0
O228 O 0.00679 0.58788 0.80102 0.0
O229 O 0.03211 0.58182 0.71067 0.0
O230 O 0.02201 0.52535 0.73926 0.0
O231 O 0.02631 0.51265 0.85625 0.0
O232 O 0.98599 0.53942 0.87149 0.0
O233 O 0.98955 0.50434 0.968 0.0
O234 O 0.05089 0.47933 0.00501 0.0
O235 O 0.02575 0.48564 0.09543 0.0
O236 O 0.03582 0.54207 0.06659 0.0
O237 O 0.03155 0.55466 0.94959 0.0
O238 O 0.0719 0.52779 0.93377 0.0
O239 O 0.06824 0.563 0.83786 0.0
H240 H 0.99392 0.63525 0.66552 0.0
H241 H 0.95679 0.63518 0.58759 0.0
H242 H 0.95248 0.55425 0.59185 0.0
H243 H 0.98887 0.55441 0.67063 0.0
H244 H 0.06236 0.43151 0.14469 0.0
H245 H 0.0991 0.43099 0.22415 0.0
H246 H 0.10616 0.51259 0.21208 0.0
H247 H 0.07015 0.51298 0.13167 0.0
H248 H 0.21839 0.04169 0.65311 0.0
H249 H 0.09988 0.05472 0.91054 0.0
H250 H 0.22294 0.09371 0.81462 0.0
H251 H 0.09581 0.02205 0.70238 0.0
H252 H 0.14562 0.06307 0.89403 0.0
H253 H 0.1741 0.0273 0.69036 0.0
C254 C 0.21007 0.04965 0.69769 0.0
C255 C 0.22409 0.06871 0.73133 0.0
C256 C 0.13464 0.05396 0.85232 0.0
C257 C 0.17351 0.05289 0.77314 0.0
C258 C 0.10861 0.04922 0.86175 0.0
C259 C 0.09411 0.03794 0.80732 0.0
C260 C 0.1461 0.04697 0.78871 0.0
C261 C 0.10629 0.03102 0.74529 0.0
C262 C 0.1848 0.04163 0.71852 0.0
C263 C 0.21257 0.07879 0.78799 0.0
N264 N 0.13152 0.03563 0.73771 0.0
N265 N 0.18782 0.07085 0.80695 0.0
H266 H 0.57008 0.21193 0.51033 0.0
H267 H 0.49688 0.06849 0.65138 0.0
H268 H 0.50995 0.17612 0.38866 0.0
H269 H 0.55723 0.1031 0.77542 0.0
H270 H 0.50096 0.10823 0.5565 0.0
H271 H 0.56558 0.17267 0.60945 0.0
C272 C 0.55599 0.19568 0.50468 0.0
C273 C 0.54041 0.19692 0.44178 0.0
C274 C 0.51332 0.10723 0.60443 0.0
C275 C 0.53501 0.15229 0.55411 0.0
C276 C 0.51098 0.08453 0.65868 0.0
C277 C 0.52684 0.08251 0.72102 0.0
C278 C 0.53169 0.12813 0.61238 0.0
C279 C 0.54469 0.10389 0.72795 0.0
C280 C 0.55338 0.17336 0.56109 0.0
C281 C 0.52235 0.17566 0.43654 0.0
N282 N 0.5467 0.12583 0.67406 0.0
N283 N 0.52013 0.15416 0.49204 0.0
H284 H 0.34298 0.52409 0.65816 0.0
H285 H 0.45397 0.49968 0.94253 0.0
H286 H 0.33197 0.4746 0.88305 0.0
H287 H 0.46512 0.54218 0.70714 0.0
H288 H 0.40886 0.4943 0.92836 0.0
H289 H 0.38733 0.53536 0.68189 0.0
C290 C 0.34994 0.51598 0.71313 0.0
C291 C 0.33406 0.49859 0.76904 0.0
C292 C 0.42117 0.50489 0.87991 0.0
C293 C 0.38459 0.51087 0.79624 0.0
C294 C 0.4469 0.50796 0.88799 0.0
C295 C 0.46326 0.5212 0.82563 0.0
C296 C 0.41175 0.51521 0.80903 0.0
C297 C 0.45314 0.53167 0.75644 0.0
C298 C 0.37522 0.52226 0.72654 0.0
C299 C 0.34379 0.48826 0.83891 0.0
N300 N 0.42806 0.52837 0.74989 0.0
N301 N 0.36851 0.49445 0.85047 0.0
H302 H 0.05521 0.35547 0.73964 0.0
H303 H 0.00593 0.4887 0.66299 0.0
H304 H 0.00733 0.37735 0.5554 0.0
H305 H 0.03945 0.46266 0.87744 0.0
H306 H 0.00656 0.44759 0.62491 0.0
H307 H 0.0498 0.39347 0.79402 0.0
C308 C 0.04317 0.36801 0.71162 0.0
C309 C 0.03145 0.36318 0.64347 0.0
C310 C 0.01365 0.45063 0.68068 0.0
C311 C 0.02568 0.40694 0.70392 0.0
C312 C 0.01333 0.47422 0.70254 0.0
C313 C 0.02264 0.47925 0.77372 0.0
C314 C 0.02375 0.43168 0.72958 0.0
C315 C 0.03195 0.45962 0.82235 0.0
C316 C 0.04018 0.38975 0.74241 0.0
C317 C 0.01647 0.38025 0.60851 0.0
N318 N 0.03251 0.43679 0.7991 0.0
N319 N 0.01418 0.40137 0.63867 0.0
H320 H 0.84087 0.95426 0.18923 0.0
H321 H 0.95308 0.03429 0.8963 0.0
H322 H 0.82934 0.00937 0.98811 0.0
H323 H 0.96261 0.98534 0.11367 0.0
H324 H 0.90772 0.02321 0.9212 0.0
H325 H 0.88551 0.96333 0.15551 0.0
C326 C 0.84789 0.96833 0.13784 0.0
C327 C 0.83169 0.98121 0.09144 0.0
C328 C 0.91976 0.01482 0.96318 0.0
C329 C 0.88268 0.99176 0.05206 0.0
C330 C 0.94561 0.02105 0.94886 0.0
C331 C 0.96158 0.01079 0.00329 0.0
C332 C 0.90991 0.99813 0.03215 0.0
C333 C 0.95098 0.99378 0.0704 0.0
C334 C 0.87334 0.97352 0.11849 0.0
C335 C 0.84146 0.99916 0.02529 0.0
N336 N 0.92588 0.98805 0.08296 0.0
N337 N 0.86643 1.00398 0.00746 0.0
H338 H 0.49207 0.8498 0.30512 0.0
H339 H 0.55946 0.99567 0.16931 0.0
H340 H 0.55179 0.88733 0.42449 0.0
H341 H 0.4996 0.95987 0.04595 0.0
H342 H 0.55718 0.9556 0.26144 0.0
H343 H 0.49452 0.88938 0.20797 0.0
C344 C 0.50566 0.86646 0.3106 0.0
C345 C 0.52174 0.86562 0.37228 0.0
C346 C 0.54452 0.9564 0.21428 0.0
C347 C 0.52474 0.9106 0.26241 0.0
C348 C 0.54583 0.97931 0.1616 0.0
C349 C 0.5296 0.98109 0.10023 0.0
C350 C 0.52683 0.93502 0.20575 0.0
C351 C 0.51239 0.95927 0.09274 0.0
C352 C 0.50709 0.88897 0.25537 0.0
C353 C 0.53907 0.88744 0.37747 0.0
N354 N 0.5114 0.93711 0.14511 0.0
N355 N 0.54012 0.90908 0.32323 0.0
H356 H 0.71785 0.52954 0.1356 0.0
H357 H 0.58945 0.51881 0.12179 0.0
H358 H 0.71998 0.59498 0.95227 0.0
H359 H 0.60284 0.56174 0.88737 0.0
H360 H 0.6342 0.52331 0.13655 0.0
H361 H 0.67334 0.5168 0.11769 0.0
C362 C 0.70885 0.54105 0.0911 0.0
C363 C 0.72231 0.56325 0.0453 0.0
C364 C 0.62753 0.53127 0.08113 0.0
C365 C 0.67135 0.54966 0.02652 0.0
C366 C 0.60189 0.52895 0.07305 0.0
C367 C 0.59246 0.53999 0.00338 0.0
C368 C 0.64395 0.54476 0.01891 0.0
C369 C 0.60938 0.55297 0.94214 0.0
C370 C 0.68338 0.53405 0.08158 0.0
C371 C 0.71005 0.57766 0.98852 0.0
N372 N 0.63432 0.55522 0.95161 0.0
N373 N 0.68518 0.57068 0.98088 0.0
H374 H 0.04985 0.68953 0.25857 0.0
H375 H 0.0198 0.60483 0.92469 0.0
H376 H 1.00335 0.71058 0.06954 0.0
H377 H 0.04966 0.57861 0.14545 0.0
H378 H 0.01863 0.64628 0.96423 0.0
H379 H 0.05554 0.65185 0.205 0.0
C380 C 0.04121 0.68642 0.20483 0.0
C381 C 0.02633 0.70326 0.16802 0.0
C382 C 0.02557 0.63146 0.00369 0.0
C383 C 0.03232 0.65978 0.1066 0.0
C384 C 0.02633 0.60783 0.98092 0.0
C385 C 0.03476 0.58811 0.03176 0.0
C386 C 0.03365 0.63551 0.07745 0.0
C387 C 0.04289 0.59313 0.10431 0.0
C388 C 0.04429 0.66479 0.17448 0.0
C389 C 0.0152 0.69814 0.09919 0.0
N390 N 0.04216 0.61616 0.12475 0.0
N391 N 0.01835 0.67682 0.07075 0.0
H392 H 0.0443 0.24598 0.73398 0.0
H393 H 0.98495 0.10128 0.74314 0.0
H394 H 0.97562 0.22316 0.62676 0.0
H395 H 0.0413 0.1247 0.89911 0.0
H396 H 0.97953 0.14593 0.70602 0.0
H397 H 0.04073 0.20236 0.80777 0.0
C398 C 0.02785 0.23209 0.72885 0.0
C399 C 0.01032 0.23811 0.67391 0.0
C400 C 0.99289 0.14122 0.74902 0.0
C401 C 0.0067 0.18789 0.7548 0.0
C402 C 0.99614 0.11574 0.76965 0.0
C403 C 0.01371 0.10915 0.82393 0.0
C404 C 0.00752 0.16031 0.78215 0.0
C405 C 0.02752 0.12876 0.85697 0.0
C406 C 0.02601 0.20702 0.76987 0.0
C407 C 0.98957 0.21921 0.66848 0.0
N408 N 0.02431 0.15339 0.83504 0.0
N409 N 0.98867 0.19479 0.70663 0.0
H410 H 0.33568 0.0119 0.71083 0.0
H411 H 0.44487 0.05059 0.97869 0.0
H412 H 0.33825 0.07232 0.84278 0.0
H413 H 0.44047 0.9872 0.85725 0.0
H414 H 0.40131 0.05217 0.95477 0.0
H415 H 0.36798 0.99542 0.7899 0.0
C416 C 0.34233 0.021 0.75889 0.0
C417 C 0.33443 0.0435 0.77039 0.0
C418 C 0.40967 0.03759 0.93444 0.0
C419 C 0.37213 0.02554 0.85873 0.0
C420 C 0.43464 0.0367 0.948 0.0
C421 C 0.44652 0.01903 0.91864 0.0
C422 C 0.39649 0.02098 0.89 0.0
C423 C 0.43216 1.00132 0.88023 0.0
C424 C 0.36099 0.0118 0.80344 0.0
C425 C 0.34382 0.05485 0.83245 0.0
N426 N 0.40803 1.00307 0.86568 0.0
N427 N 0.36263 0.04612 0.87315 0.0
H428 H 0.50961 0.29344 0.55858 0.0
H429 H 0.60207 0.39889 0.72396 0.0
H430 H 0.58917 0.30698 0.51908 0.0
H431 H 0.52239 0.39392 0.71366 0.0
H432 H 0.59789 0.35663 0.68813 0.0
H433 H 0.5146 0.31962 0.65985 0.0
C434 C 0.52819 0.30091 0.57421 0.0
C435 C 0.54903 0.29822 0.53094 0.0
C436 C 0.58132 0.36465 0.69535 0.0
C437 C 0.55489 0.32913 0.64309 0.0
C438 C 0.58369 0.3889 0.71495 0.0
C439 C 0.56262 0.40033 0.72045 0.0
C440 C 0.55771 0.35174 0.68129 0.0
C441 C 0.53922 0.38604 0.71048 0.0
C442 C 0.53106 0.31616 0.63106 0.0
C443 C 0.57271 0.30864 0.55181 0.0
N444 N 0.53747 0.36269 0.69048 0.0
N445 N 0.57503 0.32423 0.60525 0.0
H446 H 0.22844 0.56934 0.65907 0.0
H447 H 0.11015 0.58147 0.7626 0.0
H448 H 0.21813 0.5048 0.84857 0.0
H449 H 0.11606 0.52647 0.97081 0.0
H450 H 0.15399 0.5838 0.73086 0.0
H451 H 0.19394 0.58484 0.71381 0.0
C452 C 0.21925 0.55883 0.71356 0.0
C453 C 0.22587 0.53559 0.74881 0.0
C454 C 0.14612 0.57168 0.78463 0.0
C455 C 0.18517 0.55219 0.80953 0.0
C456 C 0.12082 0.57029 0.80261 0.0
C457 C 0.10919 0.55338 0.86861 0.0
C458 C 0.15998 0.55602 0.83318 0.0
C459 C 0.12405 0.53943 0.91837 0.0
C460 C 0.19912 0.56738 0.74416 0.0
C461 C 0.21355 0.52277 0.81944 0.0
N462 N 0.14849 0.54078 0.89899 0.0
N463 N 0.19344 0.53093 0.8465 0.0
H464 H 0.0158 0.81959 0.06837 0.0
H465 H 0.07533 0.96502 0.05211 0.0
H466 H 0.08259 0.84348 0.18348 0.0
H467 H 0.01521 0.93962 0.91094 0.0
H468 H 0.08187 0.92068 0.08807 0.0
H469 H 0.01998 0.86278 0.99156 0.0
C470 C 0.03202 0.83361 0.07476 0.0
C471 C 0.04873 0.82806 0.13281 0.0
C472 C 0.06744 0.92491 0.04847 0.0
C473 C 0.05302 0.87787 0.04824 0.0
C474 C 0.0636 0.95022 0.02839 0.0
C475 C 0.04449 0.95614 0.97924 0.0
C476 C 0.05197 0.90534 0.01958 0.0
C477 C 0.03005 0.9361 0.94958 0.0
C478 C 0.03418 0.85847 0.03197 0.0
C479 C 0.06923 0.84711 0.1395 0.0
N480 N 0.03393 0.91169 0.97078 0.0
N481 N 0.07042 0.87135 0.09945 0.0
H482 H 0.72585 0.06072 0.07953 0.0
H483 H 0.60912 0.01005 0.85288 0.0
H484 H 0.71774 0.99241 0.98036 0.0
H485 H 0.61558 0.07739 0.95716 0.0
H486 H 0.65313 0.00953 0.87052 0.0
H487 H 0.69115 0.07367 0.00477 0.0
C488 C 0.71736 0.04895 0.03959 0.0
C489 C 0.72439 0.02527 0.03698 0.0
C490 C 0.64509 0.02468 0.88856 0.0
C491 C 0.68425 0.03954 0.9531 0.0
C492 C 0.61986 0.02498 0.87859 0.0
C493 C 0.60847 0.04356 0.90481 0.0
C494 C 0.65911 0.04285 0.92615 0.0
C495 C 0.62349 0.06254 0.93686 0.0
C496 C 0.69738 0.05621 0.99752 0.0
C497 C 0.71286 0.01076 0.98429 0.0
N498 N 0.64795 0.06144 0.94789 0.0
N499 N 0.69295 0.01782 0.94585 0.0
H500 H 0.46368 0.74601 0.35805 0.0
H501 H 0.51012 0.6789 0.02698 0.0
H502 H 0.53746 0.76531 0.24961 0.0
H503 H 0.44889 0.64597 0.19408 0.0
H504 H 0.51305 0.71924 0.07418 0.0
H505 H 0.45085 0.71916 0.26146 0.0
C506 C 0.47683 0.74543 0.3116 0.0
C507 C 0.50156 0.75779 0.31105 0.0
C508 C 0.49866 0.70328 0.09919 0.0
C509 C 0.48742 0.72666 0.20266 0.0
C510 C 0.49708 0.68017 0.07284 0.0
C511 C 0.47967 0.65866 0.10803 0.0
C512 C 0.48258 0.705 0.16062 0.0
C513 C 0.46269 0.66185 0.16517 0.0
C514 C 0.46962 0.72993 0.25714 0.0
C515 C 0.51817 0.75612 0.25113 0.0
N516 N 0.46482 0.68444 0.19041 0.0
N517 N 0.51091 0.74041 0.19988 0.0
H518 H 0.83443 0.49676 0.1595 0.0
H519 H 0.94224 0.53888 0.82814 0.0
H520 H 0.83471 0.55632 0.95862 0.0
H521 H 0.94711 0.48736 0.04493 0.0
H522 H 0.89805 0.53626 0.85786 0.0
H523 H 0.86977 0.48365 0.0998 0.0
C524 C 0.84142 0.50653 0.10162 0.0
C525 C 0.83195 0.52799 0.06461 0.0
C526 C 0.90866 0.52521 0.89846 0.0
C527 C 0.87262 0.51341 0.99663 0.0
C528 C 0.93398 0.52673 0.88167 0.0
C529 C 0.94861 0.51378 0.93506 0.0
C530 C 0.8978 0.51078 0.96943 0.0
C531 C 0.93666 0.49794 0.00254 0.0
C532 C 0.86171 0.49916 0.06783 0.0
C533 C 0.84149 0.53977 0.98941 0.0
N534 N 0.91204 0.49723 0.01844 0.0
N535 N 0.86166 0.53269 0.95863 0.0
H536 H 0.99902 0.24878 0.37515 0.0
H537 H 0.09416 0.17084 0.21221 0.0
H538 H 0.07761 0.26241 0.4115 0.0
H539 H 0.01452 0.15476 0.19283 0.0
H540 H 0.08957 0.20807 0.26938 0.0
H541 H 0.00564 0.21934 0.28858 0.0
C542 C 0.01783 0.24625 0.36246 0.0
C543 C 0.03785 0.25831 0.39959 0.0
C544 C 0.07313 0.1965 0.252 0.0
C545 C 0.04553 0.22369 0.30315 0.0
C546 C 0.07569 0.17505 0.21983 0.0
C547 C 0.05469 0.15929 0.1979 0.0
C548 C 0.04937 0.20242 0.26254 0.0
C549 C 0.03134 0.16629 0.20787 0.0
C550 C 0.02158 0.22915 0.31392 0.0
C551 C 0.06176 0.25385 0.38287 0.0
N552 N 0.02933 0.18713 0.23974 0.0
N553 N 0.0649 0.23663 0.33674 0.0
H554 H 0.37862 0.11054 0.57151 0.0
H555 H 0.40956 0.08751 0.14655 0.0
H556 H 0.32214 0.08208 0.42387 0.0
H557 H 0.46305 0.12685 0.2829 0.0
H558 H 0.37658 0.08845 0.24184 0.0
H559 H 0.40897 0.12032 0.46137 0.0
C560 C 0.37259 0.10677 0.51524 0.0
C561 C 0.34797 0.0954 0.50647 0.0
C562 C 0.39547 0.09718 0.25039 0.0
C563 C 0.38263 0.10602 0.38047 0.0
C564 C 0.41433 0.09652 0.19625 0.0
C565 C 0.43915 0.1069 0.20718 0.0
C566 C 0.4015 0.10805 0.31644 0.0
C567 C 0.4442 0.11871 0.27192 0.0
C568 C 0.38989 0.1123 0.45241 0.0
C569 C 0.34098 0.0909 0.43264 0.0
N570 N 0.4256 0.11868 0.32451 0.0
N571 N 0.35834 0.09586 0.37257 0.0
H572 H 0.51378 0.31608 0.18337 0.0
H573 H 0.51631 0.46273 0.15229 0.0
H574 H 0.56531 0.36123 0.31153 0.0
H575 H 0.52508 0.43614 0.93673 0.0
H576 H 0.52133 0.42061 0.22413 0.0
H577 H 0.50701 0.35597 0.09937 0.0
C578 C 0.52385 0.3342 0.19348 0.0
C579 C 0.5397 0.33524 0.25602 0.0
C580 C 0.52182 0.42402 0.16103 0.0
C581 C 0.53128 0.38048 0.16258 0.0
C582 C 0.51879 0.44787 0.12016 0.0
C583 C 0.52045 0.45286 0.0386 0.0
C584 C 0.52587 0.4049 0.12 0.0
C585 C 0.52396 0.43303 -0.00036 0.0
C586 C 0.51981 0.35686 0.14599 0.0
C587 C 0.55219 0.35939 0.26618 0.0
N588 N 0.52649 0.40976 0.04074 0.0
N589 N 0.54734 0.381 0.22108 0.0
H590 H 0.23315 0.52981 0.45764 0.0
H591 H 0.11513 0.43705 0.35102 0.0
H592 H 0.21191 0.45202 0.57921 0.0
H593 H 0.14867 0.50732 0.19937 0.0
H594 H 0.1516 0.44054 0.43097 0.0
H595 H 0.20399 0.52064 0.35732 0.0
C596 C 0.22269 0.51062 0.46198 0.0
C597 C 0.22488 0.49161 0.52626 0.0
C598 C 0.15107 0.45503 0.37967 0.0
C599 C 0.19093 0.48109 0.41338 0.0
C600 C 0.13028 0.45302 0.3339 0.0
C601 C 0.12861 0.47216 0.26909 0.0
C602 C 0.17024 0.47639 0.36072 0.0
C603 C 0.14879 0.49248 0.24999 0.0
C604 C 0.20598 0.50538 0.40502 0.0
C605 C 0.21082 0.46709 0.52995 0.0
N606 N 0.16859 0.4942 0.29601 0.0
N607 N 0.19409 0.46261 0.4749 0.0
H608 H 0.05622 0.81999 0.43069 0.0
H609 H 0.958 0.89503 0.59278 0.0
H610 H 0.97799 0.80494 0.38965 0.0
H611 H 0.03764 0.91402 0.60824 0.0
H612 H 0.9638 0.85854 0.5334 0.0
H613 H 0.04839 0.84957 0.51531 0.0
C614 C 0.03724 0.82229 0.4418 0.0
C615 C 0.01769 0.80976 0.40396 0.0
C616 C 0.97997 0.87061 0.55034 0.0
C617 C 0.0086 0.84451 0.49836 0.0
C618 C 0.97671 0.89165 0.58374 0.0
C619 C 0.99735 0.90794 0.60565 0.0
C620 C 0.00404 0.86562 0.53868 0.0
C621 C 0.02107 0.90202 0.59361 0.0
C622 C 0.03279 0.83947 0.48925 0.0
C623 C 0.99351 0.81389 0.41883 0.0
N624 N 0.02372 0.88152 0.56088 0.0
N625 N 0.98967 0.83116 0.46406 0.0
H626 H 0.71364 0.94877 0.33671 0.0
H627 H 0.62163 0.01715 0.54298 0.0
H628 H 0.72221 0.03057 0.31728 0.0
H629 H 0.62821 0.93873 0.63248 0.0
H630 H 0.65784 0.02125 0.45678 0.0
H631 H 0.68281 0.9434 0.44504 0.0
C632 C 0.70953 0.96556 0.35656 0.0
C633 C 0.72026 0.99018 0.31741 0.0
C634 C 0.65155 1.00318 0.4957 0.0
C635 C 0.6847 0.98419 0.43932 0.0
C636 C 0.63083 1.00081 0.54545 0.0
C637 C 0.62189 0.97763 0.59636 0.0
C638 C 0.66339 0.98212 0.49515 0.0
C639 C 0.63426 0.95692 0.59406 0.0
C640 C 0.6918 0.96248 0.41788 0.0
C641 C 0.71407 0.01127 0.34499 0.0
N642 N 0.65433 0.95961 0.54399 0.0
N643 N 0.69647 0.0078 0.40334 0.0
H644 H 0.51008 0.73681 0.66441 0.0
H645 H 0.56719 0.6083 0.70546 0.0
H646 H 0.55854 0.72028 0.49036 0.0
H647 H 0.51391 0.62125 0.87261 0.0
H648 H 0.56904 0.65207 0.63591 0.0
H649 H 0.51642 0.69767 0.75192 0.0
C650 C 0.52247 0.72522 0.64537 0.0
C651 C 0.5336 0.73157 0.56993 0.0
C652 C 0.55707 0.6454 0.68812 0.0
C653 C 0.54069 0.68676 0.66876 0.0
C654 C 0.556 0.62037 0.7279 0.0
C655 C 0.54014 0.61093 0.79445 0.0
C656 C 0.54213 0.66116 0.71485 0.0
C657 C 0.52621 0.62759 0.82105 0.0
C658 C 0.52594 0.7028 0.69496 0.0
C659 C 0.54935 0.71583 0.54777 0.0
N660 N 0.52739 0.65181 0.78082 0.0
N661 N 0.55223 0.69406 0.59661 0.0
H662 H 0.82407 0.5341 0.35573 0.0
H663 H 0.94051 0.62954 0.45994 0.0
H664 H 0.84377 0.61196 0.23342 0.0
H665 H 0.90952 0.55792 0.60931 0.0
H666 H 0.90364 0.6253 0.38183 0.0
H667 H 0.85315 0.54397 0.45554 0.0
C668 C 0.83415 0.55345 0.35116 0.0
C669 C 0.83159 0.57227 0.28675 0.0
C670 C 0.90481 0.61067 0.43224 0.0
C671 C 0.86546 0.58361 0.39904 0.0
C672 C 0.92583 0.61311 0.47695 0.0
C673 C 0.92834 0.59383 0.54046 0.0
C674 C 0.88625 0.58874 0.45101 0.0
C675 C 0.90873 0.57291 0.55958 0.0
C676 C 0.85083 0.5591 0.40781 0.0
C677 C 0.84516 0.59702 0.28276 0.0
N678 N 0.8887 0.5708 0.51461 0.0
N679 N 0.86188 0.6019 0.33751 0.0
loop_
_geom_bond_atom_site_label_1
_geom_bond_atom_site_label_2
_geom_bond_distance
_geom_bond_site_symmetry_2
_ccdc_geom_bond_type
H0 C3 0.929 . S
H1 C6 0.929 . S
H2 C8 0.930 . S
C3 H0 0.929 . S
C3 C4 1.398 . S
C3 C5 1.396 1_554 S
C4 C3 1.398 . S
C4 C8 1.407 . S
C5 C3 1.396 1_556 S
C5 C6 1.394 . S
C6 H1 0.929 . S
C6 C5 1.394 . S
C6 C7 1.382 1_556 S
C7 C6 1.382 1_554 S
C7 C8 1.392 . S
C7 N9 1.420 . S
C8 H2 0.930 . S
C8 C4 1.407 . S
C8 C7 1.392 . S
N9 C7 1.420 . S
N9 C10 1.244 1_554 S
C10 N9 1.244 1_556 S
H11 C14 0.929 . S
H12 C17 0.929 . S
H13 C19 0.930 . S
C14 H11 0.929 . S
C14 C15 1.398 . S
C14 C16 1.396 . S
C15 C14 1.398 . S
C15 C19 1.407 1_655 S
C16 C14 1.396 . S
C16 C17 1.394 1_655 S
C17 H12 0.929 . S
C17 C16 1.394 1_455 S
C17 C18 1.382 . S
C18 C17 1.382 . S
C18 C19 1.392 . S
C18 N20 1.420 . S
C19 H13 0.930 . S
C19 C15 1.407 1_455 S
C19 C18 1.392 . S
N20 C18 1.420 . S
N20 C21 1.244 1_455 S
C21 N20 1.244 1_655 S
H22 C25 0.929 . S
H23 C28 0.929 1_556 S
H24 C30 0.930 . S
C25 H22 0.929 . S
C25 C26 1.398 . S
C25 C27 1.396 . S
C26 C25 1.398 . S
C26 C30 1.407 . S
C27 C25 1.396 . S
C27 C28 1.394 . S
C28 H23 0.929 1_554 S
C28 C27 1.394 . S
C28 C29 1.382 . S
C29 C28 1.382 . S
C29 C30 1.392 . S
C29 N31 1.420 . S
C30 H24 0.930 . S
C30 C26 1.407 . S
C30 C29 1.392 . S
N31 C29 1.420 . S
N31 C32 1.244 . S
C32 N31 1.244 . S
H33 C36 0.929 . S
H34 C39 0.929 . S
H35 C41 0.930 . S
C36 H33 0.929 . S
C36 C37 1.398 . S
C36 C38 1.396 . S
C37 C36 1.398 . S
C37 C41 1.407 . S
C38 C36 1.396 . S
C38 C39 1.394 . S
C39 H34 0.929 . S
C39 C38 1.394 . S
C39 C40 1.382 . S
C40 C39 1.382 . S
C40 C41 1.392 . S
C40 N42 1.420 . S
C41 H35 0.930 . S
C41 C37 1.407 . S
C41 C40 1.392 . S
N42 C40 1.420 . S
N42 C43 1.244 . S
C43 N42 1.244 . S
H44 C47 0.929 . S
H45 C50 0.929 . S
H46 C52 0.930 . S
C47 H44 0.929 . S
C47 C48 1.398 . S
C47 C49 1.396 . S
C48 C47 1.398 . S
C48 C52 1.407 . S
C49 C47 1.396 . S
C49 C50 1.394 . S
C50 H45 0.929 . S
C50 C49 1.394 . S
C50 C51 1.382 . S
C51 C50 1.382 . S
C51 C52 1.392 . S
C51 N53 1.420 . S
C52 H46 0.930 . S
C52 C48 1.407 . S
C52 C51 1.392 . S
N53 C51 1.420 . S
N53 C54 1.244 . S
C54 N53 1.244 . S
H55 C58 0.929 . S
H56 C61 0.929 . S
H57 C63 0.930 . S
C58 H55 0.929 . S
C58 C59 1.398 . S
C58 C60 1.396 . S
C59 C58 1.398 . S
C59 C63 1.407 . S
C60 C58 1.396 . S
C60 C61 1.394 . S
C61 H56 0.929 . S
C61 C60 1.394 . S
C61 C62 1.382 . S
C62 C61 1.382 . S
C62 C63 1.392 . S
C62 N64 1.420 . S
C63 H57 0.930 . S
C63 C59 1.407 . S
C63 C62 1.392 . S
N64 C62 1.420 . S
N64 C65 1.244 . S
C65 N64 1.244 . S
H66 C69 0.929 . S
H67 C72 0.929 . S
H68 C74 0.930 . S
C69 H66 0.929 . S
C69 C70 1.398 . S
C69 C71 1.396 . S
C70 C69 1.398 . S
C70 C74 1.407 . S
C71 C69 1.396 . S
C71 C72 1.394 . S
C72 H67 0.929 . S
C72 C71 1.394 . S
C72 C73 1.382 . S
C73 C72 1.382 . S
C73 C74 1.392 . S
C73 N75 1.420 . S
C74 H68 0.930 . S
C74 C70 1.407 . S
C74 C73 1.392 . S
N75 C73 1.420 . S
N75 C76 1.244 . S
C76 N75 1.244 . S
H77 C80 0.929 . S
H78 C83 0.929 . S
H79 C85 0.930 . S
C80 H77 0.929 . S
C80 C81 1.398 . S
C80 C82 1.396 . S
C81 C80 1.398 . S
C81 C85 1.407 . S
C82 C80 1.396 . S
C82 C83 1.394 . S
C83 H78 0.929 . S
C83 C82 1.394 . S
C83 C84 1.382 . S
C84 C83 1.382 . S
C84 C85 1.392 . S
C84 N86 1.420 . S
C85 H79 0.930 . S
C85 C81 1.407 . S
C85 C84 1.392 . S
N86 C84 1.420 . S
N86 C87 1.244 . S
C87 N86 1.244 . S
Nd88 C90 2.836 1_545 S
Nd88 O108 2.500 1_445 S
Nd88 O109 2.492 1_545 S
Nd88 O110 2.487 . S
Nd88 O111 2.682 . S
Nd88 O112 2.410 1_545 S
Nd88 O117 2.414 1_455 S
Nd88 O119 2.424 . S
Nd89 C99 2.836 . S
Nd89 O111 2.414 1_554 S
Nd89 O113 2.424 1_545 S
Nd89 O114 2.500 . S
Nd89 O115 2.492 . S
Nd89 O116 2.487 1_455 S
Nd89 O117 2.682 1_454 S
Nd89 O118 2.410 1_554 S
C90 Nd88 2.836 1_565 S
C90 C91 1.498 . S
C90 O108 1.258 1_455 S
C90 O109 1.239 . S
C91 C90 1.498 . S
C91 C92 1.366 1_455 S
C91 C96 1.407 . S
C92 C91 1.366 1_655 S
C92 C93 1.392 . S
C92 H120 0.930 . S
C93 C92 1.392 . S
C93 C94 1.398 1_655 S
C93 H121 0.929 . S
C94 C93 1.398 1_455 S
C94 C95 1.352 . S
C95 C94 1.352 . S
C95 C96 1.384 . S
C95 H122 0.930 . S
C96 C91 1.407 . S
C96 C95 1.384 . S
C96 H123 0.929 . S
C97 O110 1.241 . S
C97 O111 1.273 . S
C98 O112 1.251 . S
C98 O113 1.268 1_556 S
C99 Nd89 2.836 . S
C99 C100 1.498 . S
C99 O114 1.258 . S
C99 O115 1.239 . S
C100 C99 1.498 . S
C100 C101 1.366 . S
C100 C105 1.407 . S
C101 C100 1.366 . S
C101 C102 1.392 . S
C101 H124 0.930 . S
C102 C101 1.392 . S
C102 C103 1.398 . S
C102 H125 0.929 . S
C103 C102 1.398 . S
C103 C104 1.352 . S
C104 C103 1.352 . S
C104 C105 1.384 . S
C104 H126 0.930 . S
C105 C100 1.407 . S
C105 C104 1.384 . S
C105 H127 0.929 . S
C106 O116 1.241 1_556 S
C106 O117 1.273 . S
C107 O118 1.251 . S
C107 O119 1.268 . S
O108 Nd88 2.500 1_665 S
O108 C90 1.258 1_655 S
O109 Nd88 2.492 1_565 S
O109 C90 1.239 . S
O110 Nd88 2.487 . S
O110 C97 1.241 . S
O111 Nd88 2.682 . S
O111 Nd89 2.414 1_556 S
O111 C97 1.273 . S
O112 Nd88 2.410 1_565 S
O112 C98 1.251 . S
O113 Nd89 2.424 1_565 S
O113 C98 1.268 1_554 S
O114 Nd89 2.500 . S
O114 C99 1.258 . S
O115 Nd89 2.492 . S
O115 C99 1.239 . S
O116 Nd89 2.487 1_655 S
O116 C106 1.241 1_554 S
O117 Nd88 2.414 1_655 S
O117 Nd89 2.682 1_656 S
O117 C106 1.273 . S
O118 Nd89 2.410 1_556 S
O118 C107 1.251 . S
O119 Nd88 2.424 . S
O119 C107 1.268 . S
H120 C92 0.930 . S
H121 C93 0.929 . S
H122 C95 0.930 . S
H123 C96 0.929 . S
H124 C101 0.930 . S
H125 C102 0.929 . S
H126 C104 0.930 . S
H127 C105 0.929 . S
Nd128 C130 2.836 1_545 S
Nd128 O148 2.500 1_545 S
Nd128 O149 2.492 . S
Nd128 O150 2.487 . S
Nd128 O151 2.682 . S
Nd128 O152 2.410 . S
Nd128 O157 2.414 1_545 S
Nd128 O159 2.424 . S
Nd129 C139 2.836 . S
Nd129 O151 2.414 1_554 S
Nd129 O153 2.424 1_554 S
Nd129 O154 2.500 . S
Nd129 O155 2.492 . S
Nd129 O156 2.487 1_545 S
Nd129 O157 2.682 1_544 S
Nd129 O158 2.410 1_554 S
C130 Nd128 2.836 1_565 S
C130 C131 1.498 . S
C130 O148 1.258 . S
C130 O149 1.239 1_565 S
C131 C130 1.498 . S
C131 C132 1.366 . S
C131 C136 1.407 . S
C132 C131 1.366 . S
C132 C133 1.392 . S
C132 H160 0.930 . S
C133 C132 1.392 . S
C133 C134 1.398 . S
C133 H161 0.929 . S
C134 C133 1.398 . S
C134 C135 1.352 . S
C135 C134 1.352 . S
C135 C136 1.384 . S
C135 H162 0.930 . S
C136 C131 1.407 . S
C136 C135 1.384 . S
C136 H163 0.929 1_565 S
C137 O150 1.241 . S
C137 O151 1.273 . S
C138 O152 1.251 . S
C138 O153 1.268 . S
C139 Nd129 2.836 . S
C139 C140 1.498 . S
C139 O154 1.258 . S
C139 O155 1.239 . S
C140 C139 1.498 . S
C140 C141 1.366 . S
C140 C145 1.407 . S
C141 C140 1.366 . S
C141 C142 1.392 . S
C141 H164 0.930 . S
C142 C141 1.392 . S
C142 C143 1.398 . S
C142 H165 0.929 . S
C143 C142 1.398 . S
C143 C144 1.352 . S
C144 C143 1.352 . S
C144 C145 1.384 . S
C144 H166 0.930 . S
C145 C140 1.407 . S
C145 C144 1.384 . S
C145 H167 0.929 . S
C146 O156 1.241 . S
C146 O157 1.273 1_554 S
C147 O158 1.251 . S
C147 O159 1.268 . S
O148 Nd128 2.500 1_565 S
O148 C130 1.258 . S
O149 Nd128 2.492 . S
O149 C130 1.239 1_545 S
O150 Nd128 2.487 . S
O150 C137 1.241 . S
O151 Nd128 2.682 . S
O151 Nd129 2.414 1_556 S
O151 C137 1.273 . S
O152 Nd128 2.410 . S
O152 C138 1.251 . S
O153 Nd129 2.424 1_556 S
O153 C138 1.268 . S
O154 Nd129 2.500 . S
O154 C139 1.258 . S
O155 Nd129 2.492 . S
O155 C139 1.239 . S
O156 Nd129 2.487 1_565 S
O156 C146 1.241 . S
O157 Nd128 2.414 1_565 S
O157 Nd129 2.682 1_566 S
O157 C146 1.273 1_556 S
O158 Nd129 2.410 1_556 S
O158 C147 1.251 . S
O159 Nd128 2.424 . S
O159 C147 1.268 . S
H160 C132 0.930 . S
H161 C133 0.929 . S
H162 C135 0.930 . S
H163 C136 0.929 1_545 S
H164 C141 0.930 . S
H165 C142 0.929 . S
H166 C144 0.930 . S
H167 C145 0.929 . S
Nd168 C170 2.836 . S
Nd168 O188 2.500 . S
Nd168 O189 2.492 . S
Nd168 O190 2.487 1_554 S
Nd168 O191 2.682 1_554 S
Nd168 O192 2.410 1_554 S
Nd168 O197 2.414 1_554 S
Nd168 O199 2.424 . S
Nd169 C179 2.836 . S
Nd169 O191 2.414 . S
Nd169 O193 2.424 . S
Nd169 O194 2.500 . S
Nd169 O195 2.492 . S
Nd169 O196 2.487 . S
Nd169 O197 2.682 . S
Nd169 O198 2.410 . S
C170 Nd168 2.836 . S
C170 C171 1.498 . S
C170 O188 1.258 . S
C170 O189 1.239 . S
C171 C170 1.498 . S
C171 C172 1.366 . S
C171 C176 1.407 . S
C172 C171 1.366 . S
C172 C173 1.392 . S
C172 H200 0.930 . S
C173 C172 1.392 . S
C173 C174 1.398 . S
C173 H201 0.929 . S
C174 C173 1.398 . S
C174 C175 1.352 . S
C175 C174 1.352 . S
C175 C176 1.384 . S
C175 H202 0.930 . S
C176 C171 1.407 . S
C176 C175 1.384 . S
C176 H203 0.929 . S
C177 O190 1.241 . S
C177 O191 1.273 . S
C178 O192 1.251 . S
C178 O193 1.268 . S
C179 Nd169 2.836 . S
C179 C180 1.498 . S
C179 O194 1.258 . S
C179 O195 1.239 . S
C180 C179 1.498 . S
C180 C181 1.366 . S
C180 C185 1.407 . S
C181 C180 1.366 . S
C181 C182 1.392 . S
C181 H204 0.930 . S
C182 C181 1.392 . S
C182 C183 1.398 . S
C182 H205 0.929 . S
C183 C182 1.398 . S
C183 C184 1.352 . S
C184 C183 1.352 . S
C184 C185 1.384 . S
C184 H206 0.930 . S
C185 C180 1.407 . S
C185 C184 1.384 . S
C185 H207 0.929 . S
C186 O196 1.241 . S
C186 O197 1.273 . S
C187 O198 1.251 . S
C187 O199 1.268 1_556 S
O188 Nd168 2.500 . S
O188 C170 1.258 . S
O189 Nd168 2.492 . S
O189 C170 1.239 . S
O190 Nd168 2.487 1_556 S
O190 C177 1.241 . S
O191 Nd168 2.682 1_556 S
O191 Nd169 2.414 . S
O191 C177 1.273 . S
O192 Nd168 2.410 1_556 S
O192 C178 1.251 . S
O193 Nd169 2.424 . S
O193 C178 1.268 . S
O194 Nd169 2.500 . S
O194 C179 1.258 . S
O195 Nd169 2.492 . S
O195 C179 1.239 . S
O196 Nd169 2.487 . S
O196 C186 1.241 . S
O197 Nd168 2.414 1_556 S
O197 Nd169 2.682 . S
O197 C186 1.273 . S
O198 Nd169 2.410 . S
O198 C187 1.251 . S
O199 Nd168 2.424 . S
O199 C187 1.268 1_554 S
H200 C172 0.930 . S
H201 C173 0.929 . S
H202 C175 0.930 . S
H203 C176 0.929 . S
H204 C181 0.930 . S
H205 C182 0.929 . S
H206 C184 0.930 . S
H207 C185 0.929 . S
Nd208 C210 2.836 1_455 S
Nd208 O228 2.500 1_455 S
Nd208 O229 2.492 1_455 S
Nd208 O230 2.487 . S
Nd208 O231 2.682 . S
Nd208 O232 2.410 1_455 S
Nd208 O237 2.414 . S
Nd208 O239 2.424 . S
Nd209 C219 2.836 . S
Nd209 O231 2.414 1_554 S
Nd209 O233 2.424 1_454 S
Nd209 O234 2.500 . S
Nd209 O235 2.492 . S
Nd209 O236 2.487 . S
Nd209 O237 2.682 1_554 S
Nd209 O238 2.410 1_554 S
C210 Nd208 2.836 1_655 S
C210 C211 1.498 . S
C210 O228 1.258 . S
C210 O229 1.239 . S
C211 C210 1.498 . S
C211 C212 1.366 . S
C211 C216 1.407 . S
C212 C211 1.366 . S
C212 C213 1.392 . S
C212 H240 0.930 . S
C213 C212 1.392 . S
C213 C214 1.398 . S
C213 H241 0.929 . S
C214 C213 1.398 . S
C214 C215 1.352 . S
C215 C214 1.352 . S
C215 C216 1.384 . S
C215 H242 0.930 . S
C216 C211 1.407 . S
C216 C215 1.384 . S
C216 H243 0.929 . S
C217 O230 1.241 . S
C217 O231 1.273 . S
C218 O232 1.251 . S
C218 O233 1.268 . S
C219 Nd209 2.836 . S
C219 C220 1.498 . S
C219 O234 1.258 . S
C219 O235 1.239 . S
C220 C219 1.498 . S
C220 C221 1.366 . S
C220 C225 1.407 . S
C221 C220 1.366 . S
C221 C222 1.392 . S
C221 H244 0.930 . S
C222 C221 1.392 . S
C222 C223 1.398 . S
C222 H245 0.929 . S
C223 C222 1.398 . S
C223 C224 1.352 . S
C224 C223 1.352 . S
C224 C225 1.384 . S
C224 H246 0.930 . S
C225 C220 1.407 . S
C225 C224 1.384 . S
C225 H247 0.929 . S
C226 O236 1.241 1_556 S
C226 O237 1.273 . S
C227 O238 1.251 . S
C227 O239 1.268 . S
O228 Nd208 2.500 1_655 S
O228 C210 1.258 . S
O229 Nd208 2.492 1_655 S
O229 C210 1.239 . S
O230 Nd208 2.487 . S
O230 C217 1.241 . S
O231 Nd208 2.682 . S
O231 Nd209 2.414 1_556 S
O231 C217 1.273 . S
O232 Nd208 2.410 1_655 S
O232 C218 1.251 . S
O233 Nd209 2.424 1_656 S
O233 C218 1.268 . S
O234 Nd209 2.500 . S
O234 C219 1.258 . S
O235 Nd209 2.492 . S
O235 C219 1.239 . S
O236 Nd209 2.487 . S
O236 C226 1.241 1_554 S
O237 Nd208 2.414 . S
O237 Nd209 2.682 1_556 S
O237 C226 1.273 . S
O238 Nd209 2.410 1_556 S
O238 C227 1.251 . S
O239 Nd208 2.424 . S
O239 C227 1.268 . S
H240 C212 0.930 . S
H241 C213 0.929 . S
H242 C215 0.930 . S
H243 C216 0.929 . S
H244 C221 0.930 . S
H245 C222 0.929 . S
H246 C224 0.930 . S
H247 C225 0.929 . S
H248 C254 0.930 . S
H249 C258 0.930 . S
H250 C263 0.929 . S
H251 C261 0.929 . S
H252 C256 0.929 . S
H253 C262 0.929 . S
C254 H248 0.930 . S
C254 C255 1.367 . S
C254 C262 1.378 . S
C255 C254 1.367 . S
C255 C263 1.433 . S
C256 H252 0.929 . S
C256 C258 1.378 . S
C256 C260 1.350 . S
C257 C260 1.463 . S
C257 C262 1.350 . S
C257 N265 1.427 . S
C258 H249 0.930 . S
C258 C256 1.378 . S
C258 C259 1.367 . S
C259 C258 1.367 . S
C259 C261 1.433 . S
C260 C256 1.350 . S
C260 C257 1.463 . S
C260 N264 1.427 . S
C261 H251 0.929 . S
C261 C259 1.433 . S
C261 N264 1.384 . S
C262 H253 0.929 . S
C262 C254 1.378 . S
C262 C257 1.350 . S
C263 H250 0.929 . S
C263 C255 1.433 . S
C263 N265 1.384 . S
N264 C260 1.427 . S
N264 C261 1.384 . S
N265 C257 1.427 . S
N265 C263 1.384 . S
H266 C272 0.930 . S
H267 C276 0.930 . S
H268 C281 0.929 . S
H269 C279 0.929 . S
H270 C274 0.929 . S
H271 C280 0.929 . S
C272 H266 0.930 . S
C272 C273 1.367 . S
C272 C280 1.378 . S
C273 C272 1.367 . S
C273 C281 1.433 . S
C274 H270 0.929 . S
C274 C276 1.378 . S
C274 C278 1.350 . S
C275 C278 1.463 . S
C275 C280 1.350 . S
C275 N283 1.427 . S
C276 H267 0.930 . S
C276 C274 1.378 . S
C276 C277 1.367 . S
C277 C276 1.367 . S
C277 C279 1.433 . S
C278 C274 1.350 . S
C278 C275 1.463 . S
C278 N282 1.427 . S
C279 H269 0.929 . S
C279 C277 1.433 . S
C279 N282 1.384 . S
C280 H271 0.929 . S
C280 C272 1.378 . S
C280 C275 1.350 . S
C281 H268 0.929 . S
C281 C273 1.433 . S
C281 N283 1.384 . S
N282 C278 1.427 . S
N282 C279 1.384 . S
N283 C275 1.427 . S
N283 C281 1.384 . S
H284 C290 0.930 . S
H285 C294 0.930 . S
H286 C299 0.929 . S
H287 C297 0.929 . S
H288 C292 0.929 . S
H289 C298 0.929 . S
C290 H284 0.930 . S
C290 C291 1.367 . S
C290 C298 1.378 . S
C291 C290 1.367 . S
C291 C299 1.433 . S
C292 H288 0.929 . S
C292 C294 1.378 . S
C292 C296 1.350 . S
C293 C296 1.463 . S
C293 C298 1.350 . S
C293 N301 1.427 . S
C294 H285 0.930 . S
C294 C292 1.378 . S
C294 C295 1.367 . S
C295 C294 1.367 . S
C295 C297 1.433 . S
C296 C292 1.350 . S
C296 C293 1.463 . S
C296 N300 1.427 . S
C297 H287 0.929 . S
C297 C295 1.433 . S
C297 N300 1.384 . S
C298 H289 0.929 . S
C298 C290 1.378 . S
C298 C293 1.350 . S
C299 H286 0.929 . S
C299 C291 1.433 . S
C299 N301 1.384 . S
N300 C296 1.427 . S
N300 C297 1.384 . S
N301 C293 1.427 . S
N301 C299 1.384 . S
H302 C308 0.930 . S
H303 C312 0.930 . S
H304 C317 0.929 . S
H305 C315 0.929 . S
H306 C310 0.929 . S
H307 C316 0.929 . S
C308 H302 0.930 . S
C308 C309 1.367 . S
C308 C316 1.378 . S
C309 C308 1.367 . S
C309 C317 1.433 . S
C310 H306 0.929 . S
C310 C312 1.378 . S
C310 C314 1.350 . S
C311 C314 1.463 . S
C311 C316 1.350 . S
C311 N319 1.427 . S
C312 H303 0.930 . S
C312 C310 1.378 . S
C312 C313 1.367 . S
C313 C312 1.367 . S
C313 C315 1.433 . S
C314 C310 1.350 . S
C314 C311 1.463 . S
C314 N318 1.427 . S
C315 H305 0.929 . S
C315 C313 1.433 . S
C315 N318 1.384 . S
C316 H307 0.929 . S
C316 C308 1.378 . S
C316 C311 1.350 . S
C317 H304 0.929 . S
C317 C309 1.433 . S
C317 N319 1.384 . S
N318 C314 1.427 . S
N318 C315 1.384 . S
N319 C311 1.427 . S
N319 C317 1.384 . S
H320 C326 0.930 . S
H321 C330 0.930 . S
H322 C335 0.929 . S
H323 C333 0.929 . S
H324 C328 0.929 1_545 S
H325 C334 0.929 . S
C326 H320 0.930 . S
C326 C327 1.367 . S
C326 C334 1.378 . S
C327 C326 1.367 . S
C327 C335 1.433 1_554 S
C328 H324 0.929 1_565 S
C328 C330 1.378 1_565 S
C328 C332 1.350 . S
C329 C332 1.464 . S
C329 C334 1.344 1_556 S
C329 N337 1.432 . S
C330 H321 0.930 . S
C330 C328 1.378 1_545 S
C330 C331 1.367 . S
C331 C330 1.367 . S
C331 C333 1.433 1_546 S
C332 C328 1.350 . S
C332 C329 1.464 . S
C332 N336 1.427 1_556 S
C333 H323 0.929 . S
C333 C331 1.433 1_564 S
C333 N336 1.384 . S
C334 H325 0.929 . S
C334 C326 1.378 . S
C334 C329 1.344 1_554 S
C335 H322 0.929 . S
C335 C327 1.433 1_556 S
C335 N337 1.384 . S
N336 C332 1.427 1_554 S
N336 C333 1.384 . S
N337 C329 1.432 . S
N337 C335 1.384 . S
H338 C344 0.930 . S
H339 C348 0.930 . S
H340 C353 0.929 . S
H341 C351 0.929 . S
H342 C346 0.929 . S
H343 C352 0.929 . S
C344 H338 0.930 . S
C344 C345 1.367 . S
C344 C352 1.378 . S
C345 C344 1.367 . S
C345 C353 1.433 . S
C346 H342 0.929 . S
C346 C348 1.378 . S
C346 C350 1.350 . S
C347 C350 1.463 . S
C347 C352 1.350 . S
C347 N355 1.427 . S
C348 H339 0.930 . S
C348 C346 1.378 . S
C348 C349 1.367 . S
C349 C348 1.367 . S
C349 C351 1.433 . S
C350 C346 1.350 . S
C350 C347 1.463 . S
C350 N354 1.427 . S
C351 H341 0.929 . S
C351 C349 1.433 . S
C351 N354 1.384 . S
C352 H343 0.929 . S
C352 C344 1.378 . S
C352 C347 1.350 . S
C353 H340 0.929 . S
C353 C345 1.433 . S
C353 N355 1.384 . S
N354 C350 1.427 . S
N354 C351 1.384 . S
N355 C347 1.427 . S
N355 C353 1.384 . S
H356 C362 0.930 . S
H357 C366 0.930 1_554 S
H358 C371 0.929 . S
H359 C369 0.929 . S
H360 C364 0.929 . S
H361 C370 0.929 . S
C362 H356 0.930 . S
C362 C363 1.367 . S
C362 C370 1.378 . S
C363 C362 1.367 . S
C363 C371 1.433 1_556 S
C364 H360 0.929 . S
C364 C366 1.378 1_554 S
C364 C368 1.350 1_554 S
C365 C368 1.463 . S
C365 C370 1.350 . S
C365 N373 1.427 1_556 S
C366 H357 0.930 1_556 S
C366 C364 1.378 1_556 S
C366 C367 1.367 . S
C367 C366 1.367 . S
C367 C369 1.433 . S
C368 C364 1.350 1_556 S
C368 C365 1.463 . S
C368 N372 1.427 . S
C369 H359 0.929 . S
C369 C367 1.433 . S
C369 N372 1.384 . S
C370 H361 0.929 . S
C370 C362 1.378 . S
C370 C365 1.350 . S
C371 H358 0.929 . S
C371 C363 1.433 1_554 S
C371 N373 1.384 . S
N372 C368 1.427 . S
N372 C369 1.384 . S
N373 C365 1.427 1_554 S
N373 C371 1.384 . S
H374 C380 0.930 . S
H375 C384 0.930 . S
H376 C389 0.929 . S
H377 C387 0.929 . S
H378 C382 0.929 1_554 S
H379 C388 0.929 . S
C380 H374 0.930 . S
C380 C381 1.367 . S
C380 C388 1.378 . S
C381 C380 1.367 . S
C381 C389 1.433 1_455 S
C382 H378 0.929 1_556 S
C382 C384 1.378 . S
C382 C386 1.350 1_655 S
C383 C386 1.463 1_554 S
C383 C388 1.350 . S
C383 N391 1.427 1_455 S
C384 H375 0.930 . S
C384 C382 1.378 . S
C384 C385 1.367 1_655 S
C385 C384 1.367 1_455 S
C385 C387 1.433 . S
C386 C382 1.350 1_455 S
C386 C383 1.463 1_556 S
C386 N390 1.427 . S
C387 H377 0.929 . S
C387 C385 1.433 . S
C387 N390 1.384 . S
C388 H379 0.929 . S
C388 C380 1.378 . S
C388 C383 1.350 . S
C389 H376 0.929 . S
C389 C381 1.433 1_655 S
C389 N391 1.384 . S
N390 C386 1.427 . S
N390 C387 1.384 . S
N391 C383 1.427 1_655 S
N391 C389 1.384 . S
H392 C398 0.930 . S
H393 C402 0.930 . S
H394 C407 0.929 . S
H395 C405 0.929 . S
H396 C400 0.929 . S
H397 C406 0.929 . S
C398 H392 0.930 . S
C398 C399 1.367 . S
C398 C406 1.378 . S
C399 C398 1.367 . S
C399 C407 1.433 . S
C400 H396 0.929 . S
C400 C402 1.378 . S
C400 C404 1.350 . S
C401 C404 1.463 . S
C401 C406 1.350 . S
C401 N409 1.427 . S
C402 H393 0.930 . S
C402 C400 1.378 . S
C402 C403 1.367 . S
C403 C402 1.367 . S
C403 C405 1.433 . S
C404 C400 1.350 . S
C404 C401 1.463 . S
C404 N408 1.427 . S
C405 H395 0.929 . S
C405 C403 1.433 . S
C405 N408 1.384 . S
C406 H397 0.929 . S
C406 C398 1.378 . S
C406 C401 1.350 . S
C407 H394 0.929 . S
C407 C399 1.433 . S
C407 N409 1.384 . S
N408 C404 1.427 . S
N408 C405 1.384 . S
N409 C401 1.427 . S
N409 C407 1.384 . S
H410 C416 0.930 . S
H411 C420 0.930 . S
H412 C425 0.929 . S
H413 C423 0.929 . S
H414 C418 0.929 . S
H415 C424 0.929 . S
C416 H410 0.930 . S
C416 C417 1.367 . S
C416 C424 1.378 . S
C417 C416 1.367 . S
C417 C425 1.433 . S
C418 H414 0.929 . S
C418 C420 1.378 . S
C418 C422 1.350 . S
C419 C422 1.463 . S
C419 C424 1.350 . S
C419 N427 1.427 . S
C420 H411 0.930 . S
C420 C418 1.378 . S
C420 C421 1.367 . S
C421 C420 1.367 . S
C421 C423 1.433 . S
C422 C418 1.350 . S
C422 C419 1.463 . S
C422 N426 1.427 . S
C423 H413 0.929 . S
C423 C421 1.433 . S
C423 N426 1.384 . S
C424 H415 0.929 . S
C424 C416 1.378 . S
C424 C419 1.350 . S
C425 H412 0.929 . S
C425 C417 1.433 . S
C425 N427 1.384 . S
N426 C422 1.427 . S
N426 C423 1.384 . S
N427 C419 1.427 . S
N427 C425 1.384 . S
H428 C434 0.930 . S
H429 C438 0.930 . S
H430 C443 0.929 . S
H431 C441 0.929 . S
H432 C436 0.929 . S
H433 C442 0.929 . S
C434 H428 0.930 . S
C434 C435 1.367 . S
C434 C442 1.378 . S
C435 C434 1.367 . S
C435 C443 1.433 . S
C436 H432 0.929 . S
C436 C438 1.378 . S
C436 C440 1.350 . S
C437 C440 1.463 . S
C437 C442 1.350 . S
C437 N445 1.427 . S
C438 H429 0.930 . S
C438 C436 1.378 . S
C438 C439 1.367 . S
C439 C438 1.367 . S
C439 C441 1.433 . S
C440 C436 1.350 . S
C440 C437 1.463 . S
C440 N444 1.427 . S
C441 H431 0.929 . S
C441 C439 1.433 . S
C441 N444 1.384 . S
C442 H433 0.929 . S
C442 C434 1.378 . S
C442 C437 1.350 . S
C443 H430 0.929 . S
C443 C435 1.433 . S
C443 N445 1.384 . S
N444 C440 1.427 . S
N444 C441 1.384 . S
N445 C437 1.427 . S
N445 C443 1.384 . S
H446 C452 0.930 . S
H447 C456 0.930 . S
H448 C461 0.929 . S
H449 C459 0.929 . S
H450 C454 0.929 . S
H451 C460 0.929 . S
C452 H446 0.930 . S
C452 C453 1.367 . S
C452 C460 1.378 . S
C453 C452 1.367 . S
C453 C461 1.433 . S
C454 H450 0.929 . S
C454 C456 1.378 . S
C454 C458 1.350 . S
C455 C458 1.463 . S
C455 C460 1.350 . S
C455 N463 1.427 . S
C456 H447 0.930 . S
C456 C454 1.378 . S
C456 C457 1.367 . S
C457 C456 1.367 . S
C457 C459 1.433 . S
C458 C454 1.350 . S
C458 C455 1.463 . S
C458 N462 1.427 . S
C459 H449 0.929 . S
C459 C457 1.433 . S
C459 N462 1.384 . S
C460 H451 0.929 . S
C460 C452 1.378 . S
C460 C455 1.350 . S
C461 H448 0.929 . S
C461 C453 1.433 . S
C461 N463 1.384 . S
N462 C458 1.427 . S
N462 C459 1.384 . S
N463 C455 1.427 . S
N463 C461 1.384 . S
H464 C470 0.930 . S
H465 C474 0.930 . S
H466 C479 0.929 . S
H467 C477 0.929 1_655 S
H468 C472 0.929 . S
H469 C478 0.929 . S
C470 H464 0.930 . S
C470 C471 1.367 1_556 S
C470 C478 1.378 . S
C471 C470 1.367 1_554 S
C471 C479 1.433 1_655 S
C472 H468 0.929 . S
C472 C474 1.378 . S
C472 C476 1.350 1_554 S
C473 C476 1.463 1_554 S
C473 C478 1.350 1_454 S
C473 N481 1.427 . S
C474 H465 0.930 . S
C474 C472 1.378 . S
C474 C475 1.367 1_554 S
C475 C474 1.367 1_556 S
C475 C477 1.433 . S
C476 C472 1.350 1_556 S
C476 C473 1.463 1_556 S
C476 N480 1.427 1_455 S
C477 H467 0.929 1_455 S
C477 C475 1.433 . S
C477 N480 1.384 1_455 S
C478 H469 0.929 . S
C478 C470 1.378 . S
C478 C473 1.350 1_656 S
C479 H466 0.929 . S
C479 C471 1.433 1_455 S
C479 N481 1.384 . S
N480 C476 1.427 1_655 S
N480 C477 1.384 1_655 S
N481 C473 1.427 . S
N481 C479 1.384 . S
H482 C488 0.930 . S
H483 C492 0.930 . S
H484 C497 0.929 . S
H485 C495 0.921 1_554 S
H486 C490 0.929 . S
H487 C496 0.929 . S
C488 H482 0.930 . S
C488 C489 1.367 . S
C488 C496 1.378 . S
C489 C488 1.367 . S
C489 C497 1.433 1_554 S
C490 H486 0.929 . S
C490 C492 1.378 . S
C490 C494 1.350 . S
C491 C494 1.463 . S
C491 C496 1.350 1_556 S
C491 N499 1.427 . S
C492 H483 0.930 . S
C492 C490 1.378 . S
C492 C493 1.367 1_565 S
C493 C492 1.367 1_545 S
C493 C495 1.443 . S
C494 C490 1.350 . S
C494 C491 1.463 . S
C494 N498 1.427 1_566 S
C495 H485 0.921 1_556 S
C495 C493 1.443 . S
C495 N498 1.383 1_556 S
C496 H487 0.929 . S
C496 C488 1.378 . S
C496 C491 1.350 1_554 S
C497 H484 0.929 . S
C497 C489 1.433 1_556 S
C497 N499 1.384 . S
N498 C494 1.427 1_544 S
N498 C495 1.383 1_554 S
N499 C491 1.427 . S
N499 C497 1.384 . S
H500 C506 0.930 . S
H501 C510 0.930 . S
H502 C515 0.929 . S
H503 C513 0.929 . S
H504 C508 0.929 . S
H505 C514 0.929 . S
C506 H500 0.930 . S
C506 C507 1.367 . S
C506 C514 1.378 . S
C507 C506 1.367 . S
C507 C515 1.433 . S
C508 H504 0.929 . S
C508 C510 1.378 . S
C508 C512 1.350 . S
C509 C512 1.463 . S
C509 C514 1.350 . S
C509 N517 1.427 . S
C510 H501 0.930 . S
C510 C508 1.378 . S
C510 C511 1.367 . S
C511 C510 1.367 . S
C511 C513 1.433 . S
C512 C508 1.350 . S
C512 C509 1.463 . S
C512 N516 1.427 . S
C513 H503 0.929 . S
C513 C511 1.433 . S
C513 N516 1.384 . S
C514 H505 0.929 . S
C514 C506 1.378 . S
C514 C509 1.350 . S
C515 H502 0.929 . S
C515 C507 1.433 . S
C515 N517 1.384 . S
N516 C512 1.427 . S
N516 C513 1.384 . S
N517 C509 1.427 . S
N517 C515 1.384 . S
H518 C524 0.930 1_554 S
H519 C528 0.930 . S
H520 C533 0.929 . S
H521 C531 0.929 1_554 S
H522 C526 0.929 . S
H523 C532 0.929 1_554 S
C524 H518 0.930 1_556 S
C524 C525 1.367 . S
C524 C532 1.378 . S
C525 C524 1.367 . S
C525 C533 1.433 . S
C526 H522 0.929 . S
C526 C528 1.378 . S
C526 C530 1.350 . S
C527 C530 1.463 . S
C527 C532 1.350 . S
C527 N535 1.427 . S
C528 H519 0.930 . S
C528 C526 1.378 . S
C528 C529 1.367 . S
C529 C528 1.367 . S
C529 C531 1.433 . S
C530 C526 1.350 . S
C530 C527 1.463 . S
C530 N534 1.427 . S
C531 H521 0.929 1_556 S
C531 C529 1.433 . S
C531 N534 1.384 . S
C532 H523 0.929 1_556 S
C532 C524 1.378 . S
C532 C527 1.350 . S
C533 H520 0.929 . S
C533 C525 1.433 . S
C533 N535 1.384 . S
N534 C530 1.427 . S
N534 C531 1.384 . S
N535 C527 1.427 . S
N535 C533 1.384 . S
H536 C542 0.930 . S
H537 C546 0.930 . S
H538 C551 0.929 . S
H539 C549 0.929 . S
H540 C544 0.929 . S
H541 C550 0.929 . S
C542 H536 0.930 . S
C542 C543 1.367 . S
C542 C550 1.378 . S
C543 C542 1.367 . S
C543 C551 1.433 . S
C544 H540 0.929 . S
C544 C546 1.378 . S
C544 C548 1.350 . S
C545 C548 1.463 . S
C545 C550 1.350 . S
C545 N553 1.427 . S
C546 H537 0.930 . S
C546 C544 1.378 . S
C546 C547 1.367 . S
C547 C546 1.367 . S
C547 C549 1.433 . S
C548 C544 1.350 . S
C548 C545 1.463 . S
C548 N552 1.427 . S
C549 H539 0.929 . S
C549 C547 1.433 . S
C549 N552 1.384 . S
C550 H541 0.929 . S
C550 C542 1.378 . S
C550 C545 1.350 . S
C551 H538 0.929 . S
C551 C543 1.433 . S
C551 N553 1.384 . S
N552 C548 1.427 . S
N552 C549 1.384 . S
N553 C545 1.427 . S
N553 C551 1.384 . S
H554 C560 0.930 . S
H555 C564 0.930 . S
H556 C569 0.929 . S
H557 C567 0.929 . S
H558 C562 0.929 . S
H559 C568 0.929 . S
C560 H554 0.930 . S
C560 C561 1.367 . S
C560 C568 1.378 . S
C561 C560 1.367 . S
C561 C569 1.433 . S
C562 H558 0.929 . S
C562 C564 1.378 . S
C562 C566 1.350 . S
C563 C566 1.463 . S
C563 C568 1.350 . S
C563 N571 1.427 . S
C564 H555 0.930 . S
C564 C562 1.378 . S
C564 C565 1.367 . S
C565 C564 1.367 . S
C565 C567 1.433 . S
C566 C562 1.350 . S
C566 C563 1.463 . S
C566 N570 1.427 . S
C567 H557 0.929 . S
C567 C565 1.433 . S
C567 N570 1.384 . S
C568 H559 0.929 . S
C568 C560 1.378 . S
C568 C563 1.350 . S
C569 H556 0.929 . S
C569 C561 1.433 . S
C569 N571 1.384 . S
N570 C566 1.427 . S
N570 C567 1.384 . S
N571 C563 1.427 . S
N571 C569 1.384 . S
H572 C578 0.930 . S
H573 C582 0.930 . S
H574 C587 0.929 . S
H575 C585 0.929 . S
H576 C580 0.929 . S
H577 C586 0.929 . S
C578 H572 0.930 . S
C578 C579 1.367 . S
C578 C586 1.378 . S
C579 C578 1.367 . S
C579 C587 1.433 . S
C580 H576 0.929 . S
C580 C582 1.378 . S
C580 C584 1.350 . S
C581 C584 1.463 . S
C581 C586 1.350 . S
C581 N589 1.427 . S
C582 H573 0.930 . S
C582 C580 1.378 . S
C582 C583 1.367 . S
C583 C582 1.367 . S
C583 C585 1.433 1_554 S
C584 C580 1.350 . S
C584 C581 1.463 . S
C584 N588 1.427 . S
C585 H575 0.929 . S
C585 C583 1.433 1_556 S
C585 N588 1.384 1_556 S
C586 H577 0.929 . S
C586 C578 1.378 . S
C586 C581 1.350 . S
C587 H574 0.929 . S
C587 C579 1.433 . S
C587 N589 1.384 . S
N588 C584 1.427 . S
N588 C585 1.384 1_554 S
N589 C581 1.427 . S
N589 C587 1.384 . S
H590 C596 0.930 . S
H591 C600 0.930 . S
H592 C605 0.929 . S
H593 C603 0.929 . S
H594 C598 0.929 . S
H595 C604 0.929 . S
C596 H590 0.930 . S
C596 C597 1.367 . S
C596 C604 1.378 . S
C597 C596 1.367 . S
C597 C605 1.433 . S
C598 H594 0.929 . S
C598 C600 1.378 . S
C598 C602 1.350 . S
C599 C602 1.463 . S
C599 C604 1.350 . S
C599 N607 1.427 . S
C600 H591 0.930 . S
C600 C598 1.378 . S
C600 C601 1.367 . S
C601 C600 1.367 . S
C601 C603 1.433 . S
C602 C598 1.350 . S
C602 C599 1.463 . S
C602 N606 1.427 . S
C603 H593 0.929 . S
C603 C601 1.433 . S
C603 N606 1.384 . S
C604 H595 0.929 . S
C604 C596 1.378 . S
C604 C599 1.350 . S
C605 H592 0.929 . S
C605 C597 1.433 . S
C605 N607 1.384 . S
N606 C602 1.427 . S
N606 C603 1.384 . S
N607 C599 1.427 . S
N607 C605 1.384 . S
H608 C614 0.930 . S
H609 C618 0.930 . S
H610 C623 0.929 . S
H611 C621 0.929 . S
H612 C616 0.929 . S
H613 C622 0.929 . S
C614 H608 0.930 . S
C614 C615 1.367 1_455 S
C614 C622 1.378 . S
C615 C614 1.367 1_655 S
C615 C623 1.433 . S
C616 H612 0.929 . S
C616 C618 1.378 . S
C616 C620 1.357 . S
C617 C620 1.461 1_455 S
C617 C622 1.352 . S
C617 N625 1.426 1_455 S
C618 H609 0.930 . S
C618 C616 1.378 . S
C618 C619 1.367 1_655 S
C619 C618 1.367 1_455 S
C619 C621 1.433 . S
C620 C616 1.357 . S
C620 C617 1.461 1_655 S
C620 N624 1.421 1_655 S
C621 H611 0.929 . S
C621 C619 1.433 . S
C621 N624 1.384 . S
C622 H613 0.929 . S
C622 C614 1.378 . S
C622 C617 1.352 . S
C623 H610 0.929 . S
C623 C615 1.433 . S
C623 N625 1.384 . S
N624 C620 1.421 1_455 S
N624 C621 1.384 . S
N625 C617 1.426 1_655 S
N625 C623 1.384 . S
H626 C632 0.930 . S
H627 C636 0.930 . S
H628 C641 0.929 . S
H629 C639 0.929 . S
H630 C634 0.929 . S
H631 C640 0.929 . S
C632 H626 0.930 . S
C632 C633 1.367 . S
C632 C640 1.378 . S
C633 C632 1.367 . S
C633 C641 1.433 . S
C634 H630 0.929 . S
C634 C636 1.378 . S
C634 C638 1.350 . S
C635 C638 1.463 . S
C635 C640 1.350 . S
C635 N643 1.427 . S
C636 H627 0.930 . S
C636 C634 1.378 . S
C636 C637 1.367 . S
C637 C636 1.367 . S
C637 C639 1.433 . S
C638 C634 1.350 . S
C638 C635 1.463 . S
C638 N642 1.427 . S
C639 H629 0.929 . S
C639 C637 1.433 . S
C639 N642 1.384 . S
C640 H631 0.929 . S
C640 C632 1.378 . S
C640 C635 1.350 . S
C641 H628 0.929 . S
C641 C633 1.433 . S
C641 N643 1.384 . S
N642 C638 1.427 . S
N642 C639 1.384 . S
N643 C635 1.427 . S
N643 C641 1.384 . S
H644 C650 0.930 . S
H645 C654 0.930 . S
H646 C659 0.929 . S
H647 C657 0.929 . S
H648 C652 0.929 . S
H649 C658 0.929 . S
C650 H644 0.930 . S
C650 C651 1.367 . S
C650 C658 1.378 . S
C651 C650 1.367 . S
C651 C659 1.433 . S
C652 H648 0.929 . S
C652 C654 1.378 . S
C652 C656 1.350 . S
C653 C656 1.463 . S
C653 C658 1.350 . S
C653 N661 1.427 . S
C654 H645 0.930 . S
C654 C652 1.378 . S
C654 C655 1.367 . S
C655 C654 1.367 . S
C655 C657 1.433 . S
C656 C652 1.350 . S
C656 C653 1.463 . S
C656 N660 1.427 . S
C657 H647 0.929 . S
C657 C655 1.433 . S
C657 N660 1.384 . S
C658 H649 0.929 . S
C658 C650 1.378 . S
C658 C653 1.350 . S
C659 H646 0.929 . S
C659 C651 1.433 . S
C659 N661 1.384 . S
N660 C656 1.427 . S
N660 C657 1.384 . S
N661 C653 1.427 . S
N661 C659 1.384 . S
H662 C668 0.930 . S
H663 C672 0.930 . S
H664 C677 0.929 . S
H665 C675 0.929 . S
H666 C670 0.929 . S
H667 C676 0.929 . S
C668 H662 0.930 . S
C668 C669 1.367 . S
C668 C676 1.378 . S
C669 C668 1.367 . S
C669 C677 1.433 . S
C670 H666 0.929 . S
C670 C672 1.378 . S
C670 C674 1.350 . S
C671 C674 1.463 . S
C671 C676 1.350 . S
C671 N679 1.427 . S
C672 H663 0.930 . S
C672 C670 1.378 . S
C672 C673 1.367 . S
C673 C672 1.367 . S
C673 C675 1.433 . S
C674 C670 1.350 . S
C674 C671 1.463 . S
C674 N678 1.427 . S
C675 H665 0.929 . S
C675 C673 1.433 . S
C675 N678 1.384 . S
C676 H667 0.929 . S
C676 C668 1.378 . S
C676 C671 1.350 . S
C677 H664 0.929 . S
C677 C669 1.433 . S
C677 N679 1.384 . S
N678 C674 1.427 . S
N678 C675 1.384 . S
N679 C671 1.427 . S
N679 C677 1.384 . S
C255 C76 1.681 . S
C259 C97 1.674 . S
C277 C137 1.309 . S
C273 C87 1.343 . S
C295 C186 1.321 . S
C291 C54 1.361 . S
C313 C217 1.647 . S
C309 C65 1.729 . S
C331 C106 1.677 . S
C327 C32 1.701 . S
C345 C43 1.330 . S
C349 C146 1.296 . S
C363 C10 1.369 . S
C367 C177 1.319 . S
C381 C21 1.733 1_455 S
C385 C226 1.650 . S
C403 C107 0.945 . S
C399 C60 0.878 . S
C421 C147 1.495 . S
C417 C71 1.338 . S
C439 C183 0.781 . S
C435 C82 0.769 . S
C453 C49 1.041 . S
C457 C227 1.139 . S
C471 C16 0.905 . S
C475 C98 0.944 . S
C493 C138 1.496 . S
C489 C27 1.316 . S
C511 C174 0.775 . S
C507 C38 0.773 . S
C525 C5 1.020 . S
C529 C218 1.139 . S
C543 C59 1.624 . S
C547 C103 1.666 . S
C561 C70 1.426 . S
C565 C143 1.420 . S
C583 C187 1.943 1_554 S
C579 C81 1.795 . S
C601 C223 1.430 . S
C597 C48 1.434 . S
C615 C15 1.622 . S
C619 C94 1.665 . S
C637 C134 1.419 . S
C633 C26 1.427 . S
C655 C178 1.943 . S
C651 C37 1.804 . S
C669 C4 1.429 . S
C673 C214 1.432 . S
