# Generated by pormake.
# Topology pyr, (3,6)-cn, num edge types: 1
# Building blocks:
#     Node 0, Type 0, BuildingBlock: VETTIZ_charged_linker_0, # of connection points: 3
#     Node 1, Type 0, BuildingBlock: VETTIZ_charged_linker_0, # of connection points: 3
#     Node 2, Type 0, BuildingBlock: VETTIZ_charged_linker_0, # of connection points: 3
#     Node 3, Type 0, BuildingBlock: VETTIZ_charged_linker_0, # of connection points: 3
#     Node 4, Type 0, BuildingBlock: VETTIZ_charged_linker_0, # of connection points: 3
#     Node 5, Type 0, BuildingBlock: VETTIZ_charged_linker_0, # of connection points: 3
#     Node 6, Type 0, BuildingBlock: VETTIZ_charged_linker_0, # of connection points: 3
#     Node 7, Type 0, BuildingBlock: VETTIZ_charged_linker_0, # of connection points: 3
#     Node 8, Type 1, BuildingBlock: MIDCAF_clean_sbu_0, # of connection points: 6
#     Node 9, Type 1, BuildingBlock: MIDCAF_clean_sbu_0, # of connection points: 6
#     Node 10, Type 1, BuildingBlock: MIDCAF_clean_sbu_0, # of connection points: 6
#     Node 11, Type 1, BuildingBlock: MIDCAF_clean_sbu_0, # of connection points: 6
#     Edge 12, Type (0, 1), BuildingBlock: XIVTED_clean_linker_0, # of connection points: 2
#     Edge 13, Type (0, 1), BuildingBlock: XIVTED_clean_linker_0, # of connection points: 2
#     Edge 14, Type (0, 1), BuildingBlock: XIVTED_clean_linker_0, # of connection points: 2
#     Edge 15, Type (0, 1), BuildingBlock: XIVTED_clean_linker_0, # of connection points: 2
#     Edge 16, Type (0, 1), BuildingBlock: XIVTED_clean_linker_0, # of connection points: 2
#     Edge 17, Type (0, 1), BuildingBlock: XIVTED_clean_linker_0, # of connection points: 2
#     Edge 18, Type (0, 1), BuildingBlock: XIVTED_clean_linker_0, # of connection points: 2
#     Edge 19, Type (0, 1), BuildingBlock: XIVTED_clean_linker_0, # of connection points: 2
#     Edge 20, Type (0, 1), BuildingBlock: XIVTED_clean_linker_0, # of connection points: 2
#     Edge 21, Type (0, 1), BuildingBlock: XIVTED_clean_linker_0, # of connection points: 2
#     Edge 22, Type (0, 1), BuildingBlock: XIVTED_clean_linker_0, # of connection points: 2
#     Edge 23, Type (0, 1), BuildingBlock: XIVTED_clean_linker_0, # of connection points: 2
#     Edge 24, Type (0, 1), BuildingBlock: XIVTED_clean_linker_0, # of connection points: 2
#     Edge 25, Type (0, 1), BuildingBlock: XIVTED_clean_linker_0, # of connection points: 2
#     Edge 26, Type (0, 1), BuildingBlock: XIVTED_clean_linker_0, # of connection points: 2
#     Edge 27, Type (0, 1), BuildingBlock: XIVTED_clean_linker_0, # of connection points: 2
#     Edge 28, Type (0, 1), BuildingBlock: XIVTED_clean_linker_0, # of connection points: 2
#     Edge 29, Type (0, 1), BuildingBlock: XIVTED_clean_linker_0, # of connection points: 2
#     Edge 30, Type (0, 1), BuildingBlock: XIVTED_clean_linker_0, # of connection points: 2
#     Edge 31, Type (0, 1), BuildingBlock: XIVTED_clean_linker_0, # of connection points: 2
#     Edge 32, Type (0, 1), BuildingBlock: XIVTED_clean_linker_0, # of connection points: 2
#     Edge 33, Type (0, 1), BuildingBlock: XIVTED_clean_linker_0, # of connection points: 2
#     Edge 34, Type (0, 1), BuildingBlock: XIVTED_clean_linker_0, # of connection points: 2
#     Edge 35, Type (0, 1), BuildingBlock: XIVTED_clean_linker_0, # of connection points: 2
# Relax obj value: 0.019
# Max RMSD: 0.063
# Mean RMSD: 0.021
data_MOF--net-pyr--node1-MIDCAF_clean_sbu_0--node2-VETTIZ_charged_linker_0--edge1-XIVTED_clean_linker_0
_symmetry_space_group_name_H-M    P1
_symmetry_Int_Tables_number       1
_symmetry_cell_setting            triclinic
loop_
_symmetry_equiv_pos_as_xyz
'x, y, z'
_cell_length_a     43.690112
_cell_length_b     43.744983
_cell_length_c     43.749622
_cell_angle_alpha  89.948068
_cell_angle_beta   90.039962
_cell_angle_gamma 90.102094
loop_
_atom_site_label
_atom_site_type_symbol
_atom_site_fract_x
_atom_site_fract_y
_atom_site_fract_z
_atom_type_partial_charge
C0 C 0.19822 0.19011 0.33257 0.0
C1 C 0.17162 0.20223 0.34604 0.0
C2 C 0.15931 0.22956 0.33411 0.0
C3 C 0.19889 0.23119 0.29524 0.0
C4 C 0.21143 0.20491 0.30745 0.0
C5 C 0.23932 0.19454 0.29025 0.0
H6 H 0.33289 0.20971 0.16831 0.0
C7 C 0.21742 0.24002 0.26834 0.0
C8 C 0.2413 0.21876 0.26547 0.0
H9 H 0.3375 0.14241 0.24074 0.0
H10 H 0.29487 0.16636 0.26604 0.0
H11 H 0.32312 0.26722 0.21295 0.0
H12 H 0.25975 0.2112 0.16235 0.0
H13 H 0.2492 0.24967 0.15737 0.0
H14 H 0.28614 0.23708 0.14437 0.0
H15 H 0.31816 0.27136 0.17244 0.0
H16 H 0.29422 0.29152 0.19934 0.0
C17 C 0.26715 0.19582 0.31223 0.0
C18 C 0.23258 0.16242 0.27689 0.0
C19 C 0.18402 0.32931 0.20194 0.0
C20 C 0.19576 0.34239 0.17494 0.0
C21 C 0.22312 0.33051 0.16262 0.0
C22 C 0.23806 0.30575 0.17651 0.0
C23 C 0.2256 0.29258 0.20306 0.0
C24 C 0.19927 0.30469 0.21557 0.0
C25 C 0.18948 0.28807 0.24406 0.0
C26 C 0.21414 0.26379 0.24645 0.0
C27 C 0.23509 0.26636 0.22224 0.0
C28 C 0.19072 0.31082 0.27118 0.0
C29 C 0.15746 0.27396 0.23815 0.0
C30 C 0.3251 0.20034 0.18986 0.0
C31 C 0.33862 0.1739 0.20235 0.0
C32 C 0.32727 0.16237 0.23026 0.0
C33 C 0.30256 0.17643 0.24504 0.0
C34 C 0.28888 0.20234 0.23184 0.0
C35 C 0.30049 0.21415 0.20496 0.0
C36 C 0.28332 0.24207 0.19447 0.0
C37 C 0.25925 0.24485 0.21933 0.0
C38 C 0.26248 0.22136 0.241 0.0
C39 C 0.30572 0.26957 0.19451 0.0
C40 C 0.2689 0.23495 0.1629 0.0
H41 H 0.16215 0.26462 0.30072 0.0
H42 H 0.20816 0.16897 0.34075 0.0
H43 H 0.20859 0.161 0.26843 0.0
H44 H 0.24688 0.15677 0.25693 0.0
H45 H 0.23561 0.14439 0.29452 0.0
H46 H 0.2645 0.21445 0.32933 0.0
H47 H 0.26976 0.17403 0.325 0.0
H48 H 0.28882 0.20118 0.30033 0.0
H49 H 0.1629 0.33746 0.21194 0.0
H50 H 0.23304 0.34037 0.14219 0.0
H51 H 0.25861 0.29766 0.16586 0.0
H52 H 0.20934 0.32792 0.26797 0.0
H53 H 0.16887 0.32355 0.27343 0.0
H54 H 0.1961 0.29957 0.29316 0.0
H55 H 0.15591 0.26475 0.2145 0.0
H56 H 0.15227 0.25435 0.25315 0.0
H57 H 0.13918 0.29136 0.24083 0.0
H58 H 0.13916 0.23974 0.34426 0.0
C59 C 0.1728 0.24408 0.30887 0.0
C60 C 0.2033 0.82789 0.68332 0.0
C61 C 0.19098 0.85663 0.69113 0.0
C62 C 0.20355 0.87233 0.71641 0.0
C63 C 0.24142 0.83243 0.72342 0.0
C64 C 0.22869 0.81661 0.69926 0.0
C65 C 0.24665 0.78838 0.69132 0.0
H66 H 0.37549 0.70484 0.70893 0.0
C67 C 0.26917 0.81583 0.73334 0.0
C68 C 0.27252 0.79013 0.71445 0.0
H69 H 0.30026 0.68857 0.64659 0.0
H70 H 0.27284 0.73117 0.66814 0.0
H71 H 0.37709 0.77618 0.70357 0.0
H72 H 0.33106 0.71797 0.76847 0.0
H73 H 0.34694 0.74883 0.78874 0.0
H74 H 0.37184 0.72305 0.76841 0.0
H75 H 0.39734 0.75569 0.73282 0.0
H76 H 0.38118 0.79293 0.73982 0.0
C77 C 0.25832 0.79184 0.65803 0.0
C78 C 0.22594 0.76013 0.69678 0.0
C79 C 0.33395 0.85862 0.81968 0.0
C80 C 0.36282 0.85085 0.83175 0.0
C81 C 0.37779 0.82472 0.82017 0.0
C82 C 0.36452 0.80711 0.79683 0.0
C83 C 0.33608 0.81579 0.78454 0.0
C84 C 0.32133 0.8412 0.79601 0.0
C85 C 0.29225 0.84828 0.77904 0.0
C86 C 0.29143 0.82232 0.75609 0.0
C87 C 0.3171 0.80332 0.75941 0.0
C88 C 0.29596 0.87994 0.76335 0.0
C89 C 0.26526 0.84631 0.80186 0.0
C90 C 0.35292 0.71008 0.70016 0.0
C91 C 0.34027 0.69335 0.6757 0.0
C92 C 0.3109 0.70137 0.66492 0.0
C93 C 0.29492 0.72608 0.67756 0.0
C94 C 0.30839 0.74318 0.70121 0.0
C95 C 0.33662 0.73465 0.71258 0.0
C96 C 0.34709 0.75504 0.73824 0.0
C97 C 0.32077 0.77758 0.73999 0.0
C98 C 0.29833 0.77071 0.71801 0.0
C99 C 0.37737 0.77074 0.72843 0.0
C100 C 0.34965 0.73537 0.76758 0.0
H101 H 0.23712 0.87357 0.75137 0.0
H102 H 0.19405 0.81467 0.66456 0.0
H103 H 0.21038 0.76389 0.71654 0.0
H104 H 0.23908 0.73941 0.70278 0.0
H105 H 0.21147 0.75527 0.67646 0.0
H106 H 0.26517 0.8159 0.6533 0.0
H107 H 0.24024 0.78552 0.64133 0.0
H108 H 0.27899 0.77826 0.65322 0.0
H109 H 0.32138 0.87818 0.8281 0.0
H110 H 0.40021 0.81828 0.82848 0.0
H111 H 0.37725 0.78776 0.7888 0.0
H112 H 0.32046 0.88572 0.75943 0.0
H113 H 0.28599 0.89847 0.77751 0.0
H114 H 0.28558 0.88064 0.74028 0.0
H115 H 0.2677 0.82591 0.81687 0.0
H116 H 0.24285 0.84371 0.79047 0.0
H117 H 0.26451 0.86685 0.81675 0.0
H118 H 0.19506 0.8946 0.72298 0.0
C119 C 0.22841 0.86027 0.7327 0.0
C120 C 0.70525 0.20222 0.84577 0.0
C121 C 0.67693 0.19045 0.83601 0.0
C122 C 0.66451 0.20058 0.80806 0.0
C123 C 0.70618 0.23663 0.80215 0.0
C124 C 0.71932 0.22547 0.82866 0.0
C125 C 0.7478 0.24292 0.83731 0.0
H126 H 0.83087 0.37216 0.82468 0.0
C127 C 0.72414 0.2634 0.79197 0.0
C128 C 0.74863 0.26722 0.81239 0.0
H129 H 0.8473 0.29444 0.88389 0.0
H130 H 0.80685 0.26667 0.85911 0.0
H131 H 0.75773 0.36995 0.82301 0.0
H132 H 0.82545 0.32955 0.76416 0.0
H133 H 0.79461 0.34025 0.74078 0.0
H134 H 0.81557 0.36924 0.7615 0.0
H135 H 0.78226 0.39193 0.79842 0.0
H136 H 0.74675 0.37617 0.78476 0.0
C137 C 0.74273 0.25696 0.8694 0.0
C138 C 0.77555 0.22095 0.83536 0.0
C139 C 0.68485 0.3278 0.70361 0.0
C140 C 0.69384 0.35618 0.69137 0.0
C141 C 0.71994 0.37082 0.70366 0.0
C142 C 0.7364 0.35771 0.72785 0.0
C143 C 0.72665 0.32971 0.74023 0.0
C144 C 0.7014 0.31515 0.72794 0.0
C145 C 0.69365 0.28613 0.74467 0.0
C146 C 0.71885 0.28531 0.76858 0.0
C147 C 0.73804 0.31096 0.76598 0.0
C148 C 0.66139 0.2899 0.7591 0.0
C149 C 0.69641 0.25916 0.72195 0.0
C150 C 0.82608 0.34908 0.83223 0.0
C151 C 0.8418 0.33613 0.85725 0.0
C152 C 0.83483 0.30571 0.86571 0.0
C153 C 0.81142 0.28941 0.85116 0.0
C154 C 0.79471 0.30341 0.82767 0.0
C155 C 0.80298 0.33219 0.81762 0.0
C156 C 0.78421 0.34218 0.7905 0.0
C157 C 0.76263 0.3151 0.78685 0.0
C158 C 0.76845 0.29283 0.80925 0.0
C159 C 0.76686 0.37172 0.79934 0.0
C160 C 0.80591 0.34577 0.76271 0.0
H161 H 0.66806 0.23065 0.77032 0.0
H162 H 0.71519 0.19489 0.86724 0.0
H163 H 0.77085 0.20127 0.81994 0.0
H164 H 0.79601 0.23219 0.82545 0.0
H165 H 0.78148 0.21148 0.85817 0.0
H166 H 0.71996 0.26824 0.87063 0.0
H167 H 0.74353 0.23903 0.88738 0.0
H168 H 0.75961 0.27468 0.87539 0.0
H169 H 0.66512 0.31571 0.6947 0.0
H170 H 0.72721 0.39293 0.69518 0.0
H171 H 0.75573 0.37022 0.73641 0.0
H172 H 0.65581 0.31438 0.7632 0.0
H173 H 0.64328 0.28043 0.74399 0.0
H174 H 0.65952 0.2792 0.78192 0.0
H175 H 0.71672 0.2622 0.7069 0.0
H176 H 0.6999 0.23694 0.73343 0.0
H177 H 0.67587 0.25761 0.70705 0.0
H178 H 0.64288 0.19152 0.79995 0.0
C179 C 0.67908 0.2234 0.79098 0.0
C180 C 0.8524 0.83286 0.32372 0.0
C181 C 0.84464 0.84487 0.35259 0.0
C182 C 0.81916 0.83235 0.36808 0.0
C183 C 0.81188 0.79506 0.32769 0.0
C184 C 0.83624 0.80777 0.3121 0.0
C185 C 0.84415 0.79007 0.2837 0.0
H186 H 0.82733 0.6617 0.19968 0.0
C187 C 0.80182 0.76756 0.31077 0.0
C188 C 0.82082 0.76434 0.28512 0.0
H189 H 0.88913 0.73751 0.18374 0.0
H190 H 0.86703 0.76469 0.22616 0.0
H191 H 0.83174 0.66021 0.27117 0.0
H192 H 0.76722 0.70596 0.21232 0.0
H193 H 0.74672 0.68993 0.24296 0.0
H194 H 0.76737 0.66522 0.21725 0.0
H195 H 0.80297 0.63984 0.25005 0.0
H196 H 0.79515 0.65574 0.28722 0.0
C197 C 0.87741 0.77821 0.28717 0.0
C198 C 0.83892 0.81106 0.25565 0.0
C199 C 0.71463 0.70311 0.35248 0.0
C200 C 0.7025 0.6743 0.34458 0.0
C201 C 0.71435 0.65932 0.31856 0.0
C202 C 0.73796 0.67252 0.30119 0.0
C203 C 0.75027 0.70089 0.31002 0.0
C204 C 0.73859 0.71562 0.33535 0.0
C205 C 0.75572 0.74453 0.34275 0.0
C206 C 0.77892 0.74536 0.31698 0.0
C207 C 0.77563 0.7198 0.29783 0.0
C208 C 0.77116 0.74056 0.37451 0.0
C209 C 0.7331 0.77164 0.34078 0.0
C210 C 0.83587 0.68434 0.20495 0.0
C211 C 0.86043 0.69718 0.18842 0.0
C212 C 0.87081 0.72667 0.19643 0.0
C213 C 0.85785 0.74252 0.22105 0.0
C214 C 0.83424 0.72881 0.23804 0.0
C215 C 0.82309 0.70055 0.22941 0.0
C216 C 0.79723 0.68997 0.24958 0.0
C217 C 0.79523 0.71623 0.27217 0.0
C218 C 0.81725 0.73871 0.26551 0.0
C219 C 0.80696 0.65975 0.26529 0.0
C220 C 0.76802 0.68735 0.22967 0.0
H221 H 0.78381 0.79912 0.36879 0.0
H222 H 0.87128 0.84212 0.31064 0.0
H223 H 0.8196 0.8271 0.25971 0.0
H224 H 0.83228 0.79819 0.23494 0.0
H225 H 0.85958 0.82501 0.25062 0.0
H226 H 0.88189 0.77081 0.3111 0.0
H227 H 0.89427 0.79636 0.28142 0.0
H228 H 0.88229 0.75789 0.27313 0.0
H229 H 0.70604 0.71571 0.37194 0.0
H230 H 0.70604 0.63694 0.31202 0.0
H231 H 0.74617 0.65978 0.28193 0.0
H232 H 0.77455 0.71603 0.38035 0.0
H233 H 0.75707 0.75082 0.39295 0.0
H234 H 0.79446 0.75049 0.37534 0.0
H235 H 0.71836 0.76953 0.32014 0.0
H236 H 0.74471 0.79397 0.33866 0.0
H237 H 0.7179 0.77224 0.36112 0.0
H238 H 0.8126 0.84061 0.39043 0.0
C239 C 0.80263 0.8078 0.35566 0.0
C240 C 0.92181 0.81691 0.97197 0.0
C241 C 0.94738 0.79893 0.96461 0.0
C242 C 0.96624 0.80773 0.93998 0.0
C243 C 0.93389 0.85147 0.93012 0.0
C244 C 0.9157 0.84321 0.95464 0.0
C245 C 0.89009 0.86557 0.95981 0.0
H246 H 0.81037 0.98926 0.91158 0.0
C247 C 0.9212 0.87965 0.91658 0.0
C248 C 0.89571 0.88828 0.93407 0.0
H249 H 0.79398 0.93358 0.99156 0.0
H250 H 0.83899 0.90364 0.98052 0.0
H251 H 0.83095 0.93376 0.86581 0.0
H252 H 0.88048 0.99681 0.92274 0.0
H253 H 0.90434 0.98959 0.89134 0.0
H254 H 0.86754 0.00743 0.88532 0.0
H255 H 0.83273 0.97424 0.85913 0.0
H256 H 0.8616 0.94896 0.84448 0.0
C257 C 0.85941 0.84826 0.95576 0.0
C258 C 0.89447 0.88035 0.99172 0.0
C259 C 0.96792 0.92355 0.81939 0.0
C260 C 0.96133 0.94981 0.80212 0.0
C261 C 0.93743 0.96923 0.81152 0.0
C262 C 0.92004 0.96246 0.8375 0.0
C263 C 0.92666 0.93603 0.85446 0.0
C264 C 0.95055 0.91733 0.84564 0.0
C265 C 0.95514 0.89112 0.86745 0.0
C266 C 0.92972 0.89695 0.89044 0.0
C267 C 0.91292 0.92306 0.88244 0.0
C268 C 0.95002 0.86101 0.84956 0.0
C269 C 0.98736 0.89426 0.88208 0.0
C270 C 0.81653 0.97054 0.9266 0.0
C271 C 0.79861 0.96358 0.95233 0.0
C272 C 0.80758 0.93944 0.9717 0.0
C273 C 0.8336 0.92196 0.96514 0.0
C274 C 0.85098 0.92877 0.939 0.0
C275 C 0.84269 0.95308 0.92056 0.0
C276 C 0.86467 0.95778 0.89455 0.0
C277 C 0.88707 0.93182 0.9 0.0
C278 C 0.87872 0.9147 0.92585 0.0
C279 C 0.84673 0.95369 0.86426 0.0
C280 C 0.88001 0.98957 0.89837 0.0
H281 H 0.97472 0.8391 0.90413 0.0
H282 H 0.90715 0.81085 0.991 0.0
H283 H 0.91907 0.88117 0.99828 0.0
H284 H 0.88695 0.90447 0.99237 0.0
H285 H 0.88217 0.86724 0.00968 0.0
H286 H 0.86047 0.83278 0.93562 0.0
H287 H 0.85424 0.83404 0.97618 0.0
H288 H 0.83984 0.86352 0.95139 0.0
H289 H 0.98644 0.90847 0.81285 0.0
H290 H 0.93184 0.98949 0.79839 0.0
H291 H 0.90201 0.97801 0.84326 0.0
H292 H 0.92984 0.86304 0.83416 0.0
H293 H 0.97022 0.8555 0.8352 0.0
H294 H 0.94503 0.84127 0.86445 0.0
H295 H 0.99495 0.91855 0.88278 0.0
H296 H 0.98784 0.88678 0.90623 0.0
H297 H 0.00476 0.88125 0.86897 0.0
H298 H 0.98591 0.79405 0.93373 0.0
C299 C 0.95961 0.83381 0.9227 0.0
C300 C 0.7243 0.09016 0.44172 0.0
C301 C 0.73584 0.06466 0.426 0.0
C302 C 0.7205 0.05418 0.39969 0.0
C303 C 0.68255 0.09426 0.40537 0.0
C304 C 0.6979 0.10465 0.43096 0.0
C305 C 0.68348 0.13282 0.44433 0.0
H306 H 0.5705 0.23831 0.44073 0.0
C307 C 0.65615 0.11473 0.40012 0.0
C308 C 0.65671 0.13747 0.42275 0.0
H309 H 0.64727 0.2337 0.50287 0.0
H310 H 0.66564 0.18829 0.47727 0.0
H311 H 0.55609 0.16393 0.4381 0.0
H312 H 0.60835 0.22589 0.38206 0.0
H313 H 0.59197 0.19895 0.35726 0.0
H314 H 0.56744 0.22366 0.37939 0.0
H315 H 0.53915 0.19375 0.41551 0.0
H316 H 0.54728 0.15678 0.39945 0.0
C317 C 0.67273 0.1251 0.47717 0.0
C318 C 0.70696 0.15939 0.4424 0.0
C319 C 0.58339 0.09366 0.31213 0.0
C320 C 0.55774 0.10919 0.30056 0.0
C321 C 0.5477 0.13599 0.31525 0.0
C322 C 0.56289 0.14699 0.34132 0.0
C323 C 0.58862 0.13123 0.35256 0.0
C324 C 0.59854 0.10513 0.33785 0.0
C325 C 0.62709 0.09215 0.35195 0.0
C326 C 0.63253 0.11454 0.37783 0.0
C327 C 0.60984 0.13724 0.37824 0.0
C328 C 0.61959 0.05967 0.36394 0.0
C329 C 0.65304 0.09329 0.32778 0.0
C330 C 0.59104 0.22722 0.44905 0.0
C331 C 0.60732 0.23927 0.47404 0.0
C332 C 0.6344 0.22476 0.48367 0.0
C333 C 0.64495 0.1984 0.4688 0.0
C334 C 0.62843 0.18663 0.4438 0.0
C335 C 0.60205 0.20116 0.43421 0.0
C336 C 0.58821 0.18634 0.40642 0.0
C337 C 0.61039 0.16023 0.40113 0.0
C338 C 0.63376 0.1604 0.42319 0.0
C339 C 0.55588 0.17466 0.41503 0.0
C340 C 0.58871 0.20981 0.37982 0.0
H341 H 0.68306 0.05963 0.36931 0.0
H342 H 0.736 0.09913 0.46164 0.0
H343 H 0.72252 0.15656 0.42247 0.0
H344 H 0.69601 0.18185 0.4387 0.0
H345 H 0.72141 0.16047 0.46327 0.0
H346 H 0.66225 0.10191 0.478 0.0
H347 H 0.69227 0.12538 0.49342 0.0
H348 H 0.65485 0.14071 0.48566 0.0
H349 H 0.59204 0.07339 0.30087 0.0
H350 H 0.52801 0.1483 0.30664 0.0
H351 H 0.55413 0.16743 0.3516 0.0
H352 H 0.59669 0.05924 0.37506 0.0
H353 H 0.61922 0.04283 0.34496 0.0
H354 H 0.63572 0.05169 0.38162 0.0
H355 H 0.64978 0.11267 0.31161 0.0
H356 H 0.67583 0.09738 0.33801 0.0
H357 H 0.65374 0.07193 0.31409 0.0
H358 H 0.72904 0.03456 0.38726 0.0
C359 C 0.69382 0.06874 0.38938 0.0
C360 C 0.46835 0.61355 0.2172 0.0
C361 C 0.46176 0.58727 0.23447 0.0
C362 C 0.43763 0.56795 0.22523 0.0
C363 C 0.42675 0.60122 0.18236 0.0
C364 C 0.4508 0.61988 0.1911 0.0
C365 C 0.45537 0.64614 0.16934 0.0
H366 H 0.40727 0.72639 0.04582 0.0
C367 C 0.41293 0.61424 0.15445 0.0
C368 C 0.42978 0.6404 0.14647 0.0
H369 H 0.48642 0.74319 0.1027 0.0
H370 H 0.47498 0.69836 0.13268 0.0
H371 H 0.36056 0.70456 0.10121 0.0
H372 H 0.41906 0.65669 0.03844 0.0
H373 H 0.38747 0.63269 0.0447 0.0
H374 H 0.3818 0.66973 0.0273 0.0
H375 H 0.35423 0.70311 0.06067 0.0
H376 H 0.33989 0.67368 0.0856 0.0
C377 C 0.4505 0.67621 0.18732 0.0
C378 C 0.48747 0.643 0.15454 0.0
C379 C 0.31738 0.56559 0.10886 0.0
C380 C 0.29995 0.57232 0.08272 0.0
C381 C 0.30864 0.59707 0.06397 0.0
C382 C 0.33408 0.61512 0.07129 0.0
C383 C 0.35122 0.60831 0.09758 0.0
C384 C 0.34306 0.58365 0.11564 0.0
C385 C 0.36488 0.57909 0.14185 0.0
C386 C 0.3871 0.60539 0.1368 0.0
C387 C 0.37874 0.6226 0.11102 0.0
C388 C 0.34666 0.58274 0.17197 0.0
C389 C 0.38057 0.54753 0.13798 0.0
C390 C 0.42194 0.72039 0.06487 0.0
C391 C 0.44768 0.73828 0.07205 0.0
C392 C 0.46658 0.72957 0.09666 0.0
C393 C 0.45983 0.70361 0.11413 0.0
C394 C 0.43397 0.68596 0.10684 0.0
C395 C 0.41575 0.69419 0.08232 0.0
C396 C 0.39012 0.67176 0.07713 0.0
C397 C 0.39571 0.6491 0.10289 0.0
C398 C 0.42123 0.65777 0.12039 0.0
C399 C 0.35946 0.689 0.08113 0.0
C400 C 0.39451 0.65698 0.04521 0.0
H401 H 0.40189 0.55932 0.1937 0.0
H402 H 0.48703 0.62857 0.22361 0.0
H403 H 0.49488 0.61869 0.15362 0.0
H404 H 0.48786 0.65066 0.13044 0.0
H405 H 0.50504 0.65585 0.16767 0.0
H406 H 0.43041 0.67417 0.20281 0.0
H407 H 0.47082 0.68165 0.20161 0.0
H408 H 0.44553 0.69599 0.17249 0.0
H409 H 0.3114 0.54646 0.12344 0.0
H410 H 0.29536 0.60279 0.04384 0.0
H411 H 0.33932 0.63377 0.05624 0.0
H412 H 0.33058 0.60237 0.17034 0.0
H413 H 0.33295 0.56191 0.17692 0.0
H414 H 0.36132 0.58774 0.19189 0.0
H415 H 0.38176 0.54073 0.11351 0.0
H416 H 0.40468 0.54763 0.14572 0.0
H417 H 0.36785 0.52933 0.15036 0.0
H418 H 0.43202 0.5477 0.23837 0.0
C419 C 0.42006 0.57481 0.19937 0.0
C420 C 0.09373 0.31097 0.58707 0.0
C421 C 0.10938 0.29911 0.56168 0.0
C422 C 0.13634 0.31368 0.55164 0.0
C423 C 0.13141 0.35146 0.59198 0.0
C424 C 0.10516 0.33686 0.6019 0.0
C425 C 0.09188 0.35138 0.63004 0.0
H426 H 0.09722 0.46278 0.73687 0.0
C427 C 0.13725 0.37747 0.61281 0.0
C428 C 0.11427 0.37738 0.63523 0.0
H429 H 0.03308 0.38776 0.7304 0.0
H430 H 0.05884 0.36932 0.68513 0.0
H431 H 0.10123 0.47797 0.66284 0.0
H432 H 0.15532 0.42344 0.72449 0.0
H433 H 0.18084 0.43997 0.69829 0.0
H434 H 0.15874 0.4643 0.72323 0.0
H435 H 0.12418 0.49397 0.69293 0.0
H436 H 0.1402 0.48569 0.65595 0.0
C437 C 0.05946 0.3632 0.62201 0.0
C438 C 0.09274 0.32761 0.65638 0.0
C439 C 0.22783 0.44782 0.59383 0.0
C440 C 0.23973 0.47319 0.6096 0.0
C441 C 0.22479 0.48343 0.6362 0.0
C442 C 0.1982 0.46878 0.64674 0.0
C443 C 0.1866 0.44339 0.6307 0.0
C444 C 0.20152 0.43325 0.6048 0.0
C445 C 0.18676 0.40525 0.59132 0.0
C446 C 0.16029 0.4004 0.61321 0.0
C447 C 0.16019 0.42289 0.63613 0.0
C448 C 0.17556 0.41332 0.55871 0.0
C449 C 0.21012 0.37863 0.59265 0.0
C450 C 0.08854 0.4426 0.72541 0.0
C451 C 0.06293 0.42682 0.7369 0.0
C452 C 0.05278 0.40021 0.7219 0.0
C453 C 0.06774 0.38963 0.69563 0.0
C454 C 0.09336 0.40563 0.68442 0.0
C455 C 0.10347 0.43153 0.69941 0.0
C456 C 0.13187 0.44479 0.6851 0.0
C457 C 0.13692 0.42278 0.65879 0.0
C458 C 0.11418 0.40006 0.6584 0.0
C459 C 0.12427 0.47742 0.67368 0.0
C460 C 0.15815 0.44336 0.7089 0.0
H461 H 0.16792 0.35007 0.55779 0.0
H462 H 0.07334 0.29983 0.59576 0.0
H463 H 0.11197 0.31123 0.65343 0.0
H464 H 0.09692 0.33817 0.67895 0.0
H465 H 0.07122 0.31409 0.65732 0.0
H466 H 0.05926 0.37384 0.5989 0.0
H467 H 0.04256 0.3442 0.62193 0.0
H468 H 0.05134 0.38121 0.63765 0.0
H469 H 0.2392 0.439 0.57368 0.0
H470 H 0.23356 0.50295 0.64868 0.0
H471 H 0.18776 0.47771 0.66704 0.0
H472 H 0.16522 0.43654 0.55826 0.0
H473 H 0.19485 0.41315 0.54219 0.0
H474 H 0.15745 0.39784 0.55033 0.0
H475 H 0.22568 0.381 0.61265 0.0
H476 H 0.19909 0.35609 0.59579 0.0
H477 H 0.22456 0.37804 0.57177 0.0
H478 H 0.14877 0.30487 0.53213 0.0
C479 C 0.14735 0.3399 0.56655 0.0
Zn480 Zn 0.97544 0.0595 0.55601 0.0
Zn481 Zn 0.04819 0.99265 0.48739 0.0
Zn482 Zn 0.01071 0.0249 0.52281 0.0
C483 C 0.06545 0.05275 0.47977 0.0
C484 C 0.98827 0.98145 0.46709 0.0
O485 O 0.01578 0.00982 0.57112 0.0
O486 O 0.98921 0.04471 0.59627 0.0
C487 C 0.01375 0.09949 0.52698 0.0
O488 O 0.04244 0.05594 0.49796 0.0
O489 O 0.07437 0.02644 0.47209 0.0
O490 O 0.01581 0.97595 0.46029 0.0
O491 O 0.98189 0.99908 0.48983 0.0
O492 O 0.98962 0.10023 0.54276 0.0
O493 O 0.02497 0.07366 0.51827 0.0
O494 O 0.9627 0.01867 0.5069 0.0
O495 O 0.93566 0.04487 0.54064 0.0
C496 C 0.93673 0.02788 0.5174 0.0
O497 O 0.03606 0.99257 0.55292 0.0
O498 O 0.0641 0.966 0.52028 0.0
C499 C 0.00601 0.0213 0.59644 0.0
C500 C 0.05561 0.97121 0.54736 0.0
Zn501 Zn 0.48221 0.05434 0.99312 0.0
Zn502 Zn 0.55392 0.98457 0.05776 0.0
Zn503 Zn 0.51927 0.0178 0.02348 0.0
C504 C 0.59325 0.01607 0.01985 0.0
C505 C 0.51719 0.94405 0.02578 0.0
O506 O 0.49332 0.04827 0.05534 0.0
O507 O 0.46287 0.07693 0.02677 0.0
C508 C 0.54186 0.06714 0.97331 0.0
O509 O 0.56748 0.02439 0.00808 0.0
O510 O 0.59387 0.99996 0.04374 0.0
O511 O 0.54062 0.94431 0.04264 0.0
O512 O 0.50509 0.96937 0.01677 0.0
O513 O 0.51457 0.07613 0.97051 0.0
O514 O 0.54837 0.04472 0.99134 0.0
O515 O 0.48783 0.98804 0.9968 0.0
O516 O 0.4589 0.02149 0.97227 0.0
C517 C 0.46613 0.99408 0.97775 0.0
O518 O 0.51426 0.03131 0.07257 0.0
O519 O 0.54033 0.99683 0.09878 0.0
C520 C 0.47268 0.06921 0.05274 0.0
C521 C 0.52347 0.02017 0.09832 0.0
Zn522 Zn 0.54906 0.55114 0.54904 0.0
Zn523 Zn 0.48046 0.47962 0.48098 0.0
Zn524 Zn 0.51497 0.51511 0.5135 0.0
C525 C 0.51901 0.44092 0.51215 0.0
C526 C 0.51083 0.51678 0.43971 0.0
O527 O 0.48479 0.54083 0.54524 0.0
O528 O 0.51584 0.5667 0.57581 0.0
C529 C 0.57052 0.49177 0.55717 0.0
O530 O 0.53033 0.46698 0.52011 0.0
O531 O 0.49501 0.43978 0.49615 0.0
O532 O 0.49451 0.49297 0.44033 0.0
O533 O 0.5201 0.52911 0.46485 0.0
O534 O 0.57682 0.51891 0.56468 0.0
O535 O 0.54802 0.4861 0.53893 0.0
O536 O 0.54028 0.5469 0.48289 0.0
O537 O 0.56441 0.57736 0.51534 0.0
C538 C 0.55822 0.56975 0.48818 0.0
O539 O 0.46644 0.52033 0.52849 0.0
O540 O 0.43991 0.49363 0.49467 0.0
C541 C 0.48907 0.55926 0.56786 0.0
C542 C 0.4406 0.51079 0.5178 0.0
Zn543 Zn 0.05387 0.55237 0.97573 0.0
Zn544 Zn 0.98761 0.48663 0.05102 0.0
Zn545 Zn 0.02103 0.51951 0.0117 0.0
C546 C 0.04856 0.47825 0.0674 0.0
C547 C 0.9765 0.46396 0.99165 0.0
O548 O 0.00724 0.56829 0.01685 0.0
O549 O 0.04235 0.59332 0.99036 0.0
C550 C 0.09534 0.52188 0.01142 0.0
O551 O 0.05216 0.49492 0.04333 0.0
O552 O 0.02203 0.47235 0.07724 0.0
O553 O 0.97104 0.45847 0.01948 0.0
O554 O 0.99432 0.48625 0.9841 0.0
O555 O 0.0948 0.53731 0.98707 0.0
O556 O 0.07009 0.51402 0.02453 0.0
O557 O 0.01336 0.50319 0.96407 0.0
O558 O 0.03686 0.53848 0.93646 0.0
C559 C 0.02087 0.5145 0.93788 0.0
O560 O 0.98969 0.55053 0.03698 0.0
O561 O 0.9609 0.52021 0.06564 0.0
C562 C 0.01921 0.59361 0.00755 0.0
C563 C 0.96776 0.54667 0.05635 0.0
H564 H 0.19787 0.17084 0.39379 0.0
H565 H 0.03916 0.10466 0.45711 0.0
H566 H 0.10985 0.19528 0.35608 0.0
H567 H 0.12643 0.06093 0.47084 0.0
H568 H 0.06504 0.14611 0.42932 0.0
H569 H 0.17202 0.13837 0.43119 0.0
C570 C 0.17312 0.16951 0.39339 0.0
C571 C 0.15609 0.1855 0.37133 0.0
C572 C 0.07853 0.12762 0.43876 0.0
C573 C 0.12636 0.1487 0.41452 0.0
C574 C 0.06383 0.10416 0.45477 0.0
C575 C 0.08081 0.07956 0.46634 0.0
C576 C 0.11036 0.12636 0.43437 0.0
C577 C 0.1126 0.07956 0.46221 0.0
C578 C 0.15839 0.15108 0.41488 0.0
C579 C 0.12399 0.18353 0.37264 0.0
N580 N 0.12637 0.10257 0.44651 0.0
N581 N 0.11018 0.16526 0.39369 0.0
H582 H 0.35884 0.91324 0.83759 0.0
H583 H 0.48686 0.93675 0.96183 0.0
H584 H 0.40149 0.83441 0.87928 0.0
H585 H 0.40911 0.99678 0.9533 0.0
H586 H 0.46062 0.8994 0.92897 0.0
H587 H 0.38228 0.94552 0.87615 0.0
C588 C 0.37276 0.9025 0.85502 0.0
C589 C 0.37766 0.87075 0.85523 0.0
C590 C 0.44921 0.92057 0.93479 0.0
C591 C 0.40565 0.90821 0.89906 0.0
C592 C 0.46398 0.94169 0.95383 0.0
C593 C 0.44993 0.96966 0.96081 0.0
C594 C 0.42068 0.92802 0.92201 0.0
C595 C 0.42083 0.97552 0.94854 0.0
C596 C 0.38634 0.92111 0.87696 0.0
C597 C 0.39716 0.85871 0.8779 0.0
N598 N 0.40736 0.95507 0.92952 0.0
N599 N 0.4106 0.87748 0.89883 0.0
H600 H 0.63123 0.35633 0.6843 0.0
H601 H 0.63217 0.49013 0.56261 0.0
H602 H 0.71413 0.39059 0.64274 0.0
H603 H 0.55084 0.43803 0.58272 0.0
H604 H 0.66266 0.45282 0.59085 0.0
H605 H 0.60132 0.38446 0.6465 0.0
C606 C 0.64324 0.36935 0.66699 0.0
C607 C 0.67538 0.37123 0.667 0.0
C608 C 0.63823 0.44919 0.58874 0.0
C609 C 0.64105 0.40407 0.62396 0.0
C610 C 0.62086 0.47049 0.57266 0.0
C611 C 0.58907 0.46697 0.57033 0.0
C612 C 0.6236 0.42456 0.60329 0.0
C613 C 0.57539 0.4413 0.58382 0.0
C614 C 0.62607 0.38553 0.64546 0.0
C615 C 0.68946 0.38896 0.64418 0.0
N616 N 0.5927 0.42121 0.60013 0.0
N617 N 0.67222 0.40491 0.62383 0.0
H618 H 0.92183 0.69535 0.17477 0.0
H619 H 0.90668 0.55088 0.0663 0.0
H620 H 0.8348 0.65801 0.14628 0.0
H621 H 0.99098 0.60107 0.07678 0.0
H622 H 0.87968 0.5912 0.0939 0.0
H623 H 0.94737 0.66288 0.1374 0.0
C624 C 0.90797 0.68071 0.16038 0.0
C625 C 0.87602 0.67934 0.16397 0.0
C626 C 0.90398 0.59373 0.08977 0.0
C627 C 0.90538 0.64151 0.12146 0.0
C628 C 0.91937 0.57072 0.07404 0.0
C629 C 0.95098 0.57289 0.0691 0.0
C630 C 0.92047 0.6188 0.10129 0.0
C631 C 0.96648 0.59887 0.07973 0.0
C632 C 0.92266 0.66203 0.13911 0.0
C633 C 0.85949 0.65943 0.1449 0.0
N634 N 0.95112 0.6207 0.09567 0.0
N635 N 0.87437 0.64112 0.12472 0.0
H636 H 0.34811 0.11196 0.19693 0.0
H637 H 0.46607 0.13001 0.06103 0.0
H638 H 0.38602 0.19897 0.16944 0.0
H639 H 0.44925 0.04331 0.10475 0.0
H640 H 0.43836 0.15566 0.10211 0.0
H641 H 0.38628 0.08616 0.16545 0.0
C642 C 0.36472 0.12569 0.1847 0.0
C643 C 0.36352 0.1578 0.18563 0.0
C644 C 0.44107 0.13107 0.10309 0.0
C645 C 0.40697 0.12826 0.14903 0.0
C646 C 0.45685 0.11648 0.07964 0.0
C647 C 0.4599 0.08463 0.07971 0.0
C648 C 0.42753 0.1136 0.1264 0.0
C649 C 0.44748 0.06799 0.10413 0.0
C650 C 0.38646 0.11088 0.16661 0.0
C651 C 0.38549 0.17424 0.16889 0.0
N652 N 0.43142 0.08265 0.12637 0.0
N653 N 0.40604 0.15932 0.15105 0.0
H654 H 0.18279 0.85082 0.6291 0.0
H655 H 0.07027 0.98855 0.60611 0.0
H656 H 0.14458 0.89653 0.70791 0.0
H657 H 0.07421 0.91234 0.54384 0.0
H658 H 0.09895 0.95832 0.6439 0.0
H659 H 0.14546 0.87619 0.59699 0.0
C660 C 0.16629 0.86571 0.63993 0.0
C661 C 0.16696 0.87115 0.67159 0.0
C662 C 0.09296 0.94811 0.62216 0.0
C663 C 0.12458 0.90146 0.63421 0.0
C664 C 0.07632 0.96519 0.60078 0.0
C665 C 0.0694 0.95273 0.57205 0.0
C666 C 0.10341 0.9188 0.61426 0.0
C667 C 0.07907 0.92284 0.56572 0.0
C668 C 0.14505 0.88045 0.62137 0.0
C669 C 0.14542 0.89183 0.68366 0.0
N670 N 0.09584 0.90705 0.58647 0.0
N671 N 0.12531 0.90649 0.66492 0.0
H672 H 0.85262 0.33305 0.91891 0.0
H673 H 0.95712 0.47965 0.93372 0.0
H674 H 0.88166 0.38177 0.83792 0.0
H675 H 0.95966 0.40465 0.99769 0.0
H676 H 0.92723 0.44756 0.89839 0.0
H677 H 0.88857 0.36272 0.94891 0.0
C678 C 0.86683 0.34962 0.90719 0.0
C679 C 0.86419 0.3544 0.87553 0.0
C680 C 0.9348 0.43808 0.91998 0.0
C681 C 0.905 0.38951 0.91044 0.0
C682 C 0.9521 0.45624 0.93997 0.0
C683 C 0.9613 0.44462 0.96843 0.0
C684 C 0.92606 0.4085 0.92904 0.0
C685 C 0.95305 0.41455 0.97598 0.0
C686 C 0.88728 0.36677 0.92452 0.0
C687 C 0.88258 0.37732 0.86222 0.0
N688 N 0.93571 0.39768 0.95657 0.0
N689 N 0.9021 0.39417 0.87978 0.0
H690 H 0.69563 0.67883 0.40687 0.0
H691 H 0.5745 0.54879 0.43107 0.0
H692 H 0.65528 0.63522 0.32781 0.0
H693 H 0.5792 0.62815 0.48932 0.0
H694 H 0.60646 0.57558 0.3933 0.0
H695 H 0.6567 0.65548 0.43876 0.0
C696 C 0.67842 0.66474 0.39597 0.0
C697 C 0.67873 0.65954 0.36426 0.0
C698 C 0.59993 0.58722 0.41413 0.0
C699 C 0.63447 0.6316 0.40135 0.0
C700 C 0.5814 0.57213 0.43549 0.0
C701 C 0.57372 0.58644 0.46314 0.0
C702 C 0.61152 0.61637 0.42105 0.0
C703 C 0.58455 0.61621 0.46833 0.0
C704 C 0.65625 0.65121 0.41438 0.0
C705 C 0.6563 0.63979 0.35208 0.0
N706 N 0.60318 0.63 0.4477 0.0
N707 N 0.63518 0.62635 0.37068 0.0
H708 H 0.16418 0.39021 0.20072 0.0
H709 H 0.10014 0.45419 0.04155 0.0
H710 H 0.18856 0.35185 0.11313 0.0
H711 H 0.05632 0.46947 0.12844 0.0
H712 H 0.14062 0.42537 0.06773 0.0
H713 H 0.13215 0.42772 0.17458 0.0
C714 C 0.1629 0.38965 0.17601 0.0
C715 C 0.17882 0.36742 0.1592 0.0
C716 C 0.12234 0.43537 0.08107 0.0
C717 C 0.14253 0.41081 0.1291 0.0
C718 C 0.09943 0.452 0.0662 0.0
C719 C 0.07504 0.46429 0.08295 0.0
C720 C 0.12075 0.4311 0.11288 0.0
C721 C 0.07477 0.46029 0.11474 0.0
C722 C 0.14472 0.41122 0.1611 0.0
C723 C 0.1769 0.36855 0.12712 0.0
N724 N 0.09723 0.44398 0.12868 0.0
N725 N 0.15891 0.38972 0.11314 0.0
H726 H 0.618 0.19918 0.85276 0.0
H727 H 0.59245 0.04493 0.94331 0.0
H728 H 0.69396 0.1378 0.86636 0.0
H729 H 0.54363 0.12791 0.96298 0.0
H730 H 0.62858 0.07438 0.91149 0.0
H731 H 0.58748 0.16862 0.888 0.0
C732 C 0.62813 0.17902 0.86298 0.0
C733 C 0.65842 0.17083 0.85651 0.0
C734 C 0.61027 0.08611 0.92329 0.0
C735 C 0.62366 0.13581 0.89711 0.0
C736 C 0.5901 0.0694 0.94182 0.0
C737 C 0.56567 0.08409 0.95638 0.0
C738 C 0.60522 0.11751 0.91883 0.0
C739 C 0.56222 0.11567 0.95215 0.0
C740 C 0.61082 0.16176 0.88331 0.0
C741 C 0.67063 0.14479 0.87082 0.0
N742 N 0.58157 0.13124 0.9336 0.0
N743 N 0.65308 0.12795 0.89036 0.0
H744 H 0.90684 0.85278 0.34687 0.0
H745 H 0.93071 0.96368 0.48557 0.0
H746 H 0.82814 0.8908 0.39309 0.0
H747 H 0.9915 0.96299 0.40796 0.0
H748 H 0.89314 0.93435 0.4557 0.0
H749 H 0.9392 0.88978 0.37258 0.0
C750 C 0.89609 0.86915 0.36195 0.0
C751 C 0.86438 0.86856 0.36742 0.0
C752 C 0.91451 0.94114 0.44514 0.0
C753 C 0.90204 0.91046 0.39808 0.0
C754 C 0.93578 0.95813 0.46203 0.0
C755 C 0.96397 0.96634 0.44902 0.0
C756 C 0.92204 0.93153 0.41546 0.0
C757 C 0.97002 0.95721 0.41889 0.0
C758 C 0.91479 0.89018 0.37687 0.0
C759 C 0.85242 0.88989 0.38835 0.0
N760 N 0.9494 0.94005 0.40327 0.0
N761 N 0.8713 0.90978 0.40317 0.0
H762 H 0.37838 0.65108 0.70248 0.0
H763 H 0.43514 0.57992 0.54369 0.0
H764 H 0.34326 0.67916 0.61455 0.0
H765 H 0.48453 0.57138 0.62859 0.0
H766 H 0.39485 0.60819 0.57059 0.0
H767 H 0.41132 0.61409 0.67681 0.0
C768 C 0.3775 0.64948 0.6778 0.0
C769 C 0.3582 0.66863 0.66069 0.0
C770 C 0.41434 0.59982 0.58338 0.0
C771 C 0.39563 0.6259 0.63117 0.0
C772 C 0.43715 0.58347 0.56811 0.0
C773 C 0.46298 0.57316 0.58406 0.0
C774 C 0.41753 0.6059 0.61477 0.0
C775 C 0.46492 0.57898 0.61551 0.0
C776 C 0.39622 0.62821 0.66317 0.0
C777 C 0.35755 0.66482 0.62877 0.0
N778 N 0.44255 0.59502 0.62983 0.0
N779 N 0.37613 0.64406 0.61505 0.0
H780 H 0.98879 0.00365 0.7873 0.0
H781 H 0.00407 0.96042 0.6115 0.0
H782 H 0.97278 0.91265 0.75306 0.0
H783 H 0.02078 0.04995 0.64906 0.0
H784 H 0.0026 0.93947 0.66369 0.0
H785 H 0.01035 0.01809 0.73795 0.0
C786 C 0.99017 0.98663 0.76938 0.0
C787 C 0.97863 0.95711 0.77399 0.0
C788 C 0.00725 0.96358 0.66046 0.0
C789 C 0.00282 0.97348 0.71718 0.0
C790 C 0.00828 0.97544 0.63073 0.0
C791 C 0.01232 0.00692 0.62619 0.0
C792 C 0.01007 0.9835 0.68556 0.0
C793 C 0.01735 0.02556 0.65171 0.0
C794 C 0.00252 0.99481 0.7412 0.0
C795 C 0.98135 0.93572 0.75025 0.0
N796 N 0.01573 0.01365 0.68027 0.0
N797 N 0.99268 0.94448 0.72261 0.0
H798 H 0.5389 0.05105 0.28859 0.0
H799 H 0.52038 0.08159 0.11039 0.0
H800 H 0.54234 0.14124 0.24893 0.0
H801 H 0.51275 0.99299 0.15295 0.0
H802 H 0.5194 0.10537 0.16117 0.0
H803 H 0.52075 0.0308 0.2399 0.0
C804 C 0.53549 0.06662 0.26962 0.0
C805 C 0.54248 0.09774 0.27259 0.0
C806 C 0.51732 0.08077 0.15937 0.0
C807 C 0.52207 0.07476 0.21656 0.0
C808 C 0.51762 0.06725 0.1304 0.0
C809 C 0.51667 0.03533 0.1276 0.0
C810 C 0.51647 0.06212 0.18557 0.0
C811 C 0.51374 0.0177 0.15419 0.0
C812 C 0.52507 0.0551 0.24182 0.0
C813 C 0.53725 0.11706 0.24749 0.0
N814 N 0.51409 0.03129 0.18203 0.0
N815 N 0.52783 0.10517 0.22032 0.0
H816 H 0.48841 0.53306 0.24923 0.0
H817 H 0.50928 0.57755 0.42417 0.0
H818 H 0.47489 0.62454 0.2831 0.0
H819 H 0.52412 0.48761 0.38696 0.0
H820 H 0.50654 0.59805 0.37189 0.0
H821 H 0.51099 0.51872 0.29817 0.0
C822 C 0.49051 0.55019 0.26699 0.0
C823 C 0.47939 0.57985 0.26239 0.0
C824 C 0.51107 0.57395 0.3752 0.0
C825 C 0.50485 0.56361 0.31871 0.0
C826 C 0.51284 0.56233 0.40499 0.0
C827 C 0.51667 0.53087 0.4097 0.0
C828 C 0.51294 0.5538 0.3502 0.0
C829 C 0.52084 0.51199 0.3842 0.0
C830 C 0.50347 0.54207 0.29492 0.0
C831 C 0.4831 0.60137 0.28589 0.0
N832 N 0.5185 0.52367 0.3556 0.0
N833 N 0.49504 0.59269 0.3133 0.0
H834 H 0.04395 0.48474 0.74938 0.0
H835 H 0.02172 0.45289 0.92644 0.0
H836 H 0.04703 0.39406 0.78793 0.0
H837 H 0.00671 0.54029 0.88344 0.0
H838 H 0.02344 0.42899 0.87571 0.0
H839 H 0.0237 0.504 0.7976 0.0
C840 C 0.04012 0.46887 0.76802 0.0
C841 C 0.04749 0.43789 0.76488 0.0
C842 C 0.01907 0.45328 0.8774 0.0
C843 C 0.02454 0.4597 0.82033 0.0
C844 C 0.01785 0.46685 0.90634 0.0
C845 C 0.01419 0.49857 0.90898 0.0
C846 C 0.01705 0.47175 0.85113 0.0
C847 C 0.00978 0.51575 0.8823 0.0
C848 C 0.02841 0.4798 0.79552 0.0
C849 C 0.04166 0.41815 0.78953 0.0
N850 N 0.01174 0.50221 0.85451 0.0
N851 N 0.03097 0.42947 0.81644 0.0
H852 H 0.75205 0.976 0.91251 0.0
H853 H 0.6438 0.04323 0.04338 0.0
H854 H 0.77998 0.98916 0.00614 0.0
H855 H 0.60977 0.99754 0.9631 0.0
H856 H 0.69604 0.03857 0.02343 0.0
H857 H 0.7021 0.99846 0.92477 0.0
C858 C 0.74783 0.98414 0.93549 0.0
C859 C 0.76994 0.98045 0.95847 0.0
C860 C 0.67704 0.03043 0.00974 0.0
C861 C 0.71319 0.00618 0.97253 0.0
C862 C 0.64731 0.03334 0.02095 0.0
C863 C 0.62254 0.02154 0.00436 0.0
C864 C 0.68197 0.01523 0.98192 0.0
C865 C 0.62822 0.00796 0.97595 0.0
C866 C 0.71936 0.99682 0.94247 0.0
C867 C 0.76333 0.99122 0.98791 0.0
N868 N 0.65741 0.00496 0.96567 0.0
N869 N 0.73548 0.00346 0.99415 0.0
H870 H 0.78652 0.04871 0.39267 0.0
H871 H 0.88278 0.01269 0.54358 0.0
H872 H 0.74969 0.04696 0.48408 0.0
H873 H 0.92464 0.02928 0.45594 0.0
H874 H 0.83254 0.01268 0.51923 0.0
H875 H 0.8356 0.03008 0.41275 0.0
C876 C 0.78864 0.04388 0.41687 0.0
C877 C 0.76424 0.04975 0.43687 0.0
C878 C 0.85267 0.01582 0.50514 0.0
C879 C 0.82002 0.02857 0.45988 0.0
C880 C 0.88133 0.01569 0.51903 0.0
C881 C 0.90772 0.02109 0.50169 0.0
C882 C 0.8503 0.022 0.47373 0.0
C883 C 0.90472 0.02491 0.47001 0.0
C884 C 0.81663 0.03339 0.42831 0.0
C885 C 0.76813 0.04324 0.46799 0.0
N886 N 0.8764 0.02575 0.45703 0.0
N887 N 0.79554 0.03322 0.47855 0.0
H888 H 0.28548 0.54659 0.02795 0.0
H889 H 0.11085 0.52372 0.07214 0.0
H890 H 0.2517 0.5574 0.11985 0.0
H891 H 0.14822 0.50811 0.98236 0.0
H892 H 0.16308 0.52639 0.09272 0.0
H893 H 0.23683 0.5234 0.01329 0.0
C894 C 0.26782 0.54375 0.0451 0.0
C895 C 0.27234 0.55429 0.07499 0.0
C896 C 0.15984 0.52168 0.06864 0.0
C897 C 0.21635 0.52814 0.0584 0.0
C898 C 0.13005 0.51991 0.05697 0.0
C899 C 0.12537 0.5159 0.02552 0.0
C900 C 0.1849 0.51974 0.04855 0.0
C901 C 0.15094 0.51153 0.00672 0.0
C902 C 0.24006 0.53044 0.0368 0.0
C903 C 0.24897 0.54965 0.09651 0.0
N904 N 0.17957 0.51398 0.01844 0.0
N905 N 0.22171 0.5374 0.08767 0.0
H906 H 0.29063 0.48969 0.64257 0.0
H907 H 0.38637 0.52393 0.49101 0.0
H908 H 0.25329 0.49056 0.5513 0.0
H909 H 0.42837 0.5112 0.57926 0.0
H910 H 0.3361 0.52365 0.51522 0.0
H911 H 0.33953 0.50849 0.62217 0.0
C912 C 0.29259 0.49435 0.61833 0.0
C913 C 0.26808 0.48817 0.59849 0.0
C914 C 0.35626 0.52141 0.52946 0.0
C915 C 0.32372 0.50954 0.57507 0.0
C916 C 0.38494 0.52171 0.51564 0.0
C917 C 0.41141 0.51746 0.53321 0.0
C918 C 0.35394 0.51623 0.56106 0.0
C919 C 0.40841 0.51468 0.565 0.0
C920 C 0.32049 0.50494 0.6067 0.0
C921 C 0.27181 0.49448 0.56729 0.0
N922 N 0.38008 0.51363 0.57793 0.0
N923 N 0.29914 0.50457 0.55654 0.0
H924 H 0.90869 0.75174 0.97936 0.0
H925 H 0.04917 0.64502 0.02419 0.0
H926 H 0.00226 0.78182 0.98863 0.0
H927 H 0.95871 0.61007 0.00601 0.0
H928 H 0.02884 0.69687 0.02403 0.0
H929 H 0.92322 0.70185 0.00072 0.0
C930 C 0.93214 0.74801 0.98648 0.0
C931 C 0.95446 0.77065 0.9818 0.0
C932 C 0.01322 0.67794 0.02059 0.0
C933 C 0.97119 0.71393 0.00606 0.0
C934 C 0.02483 0.64834 0.02083 0.0
C935 C 0.00558 0.62344 0.01486 0.0
C936 C 0.98222 0.68274 0.0136 0.0
C937 C 0.97423 0.62882 0.0107 0.0
C938 C 0.94043 0.71956 0.99853 0.0
C939 C 0.9845 0.76473 0.99132 0.0
N940 N 0.96354 0.65803 0.00955 0.0
N941 N 0.99202 0.73689 0.00271 0.0
H942 H 0.50208 0.75364 0.04603 0.0
H943 H 0.45637 0.92821 0.02607 0.0
H944 H 0.40997 0.78644 0.0585 0.0
H945 H 0.54679 0.89181 0.01158 0.0
H946 H 0.43612 0.87574 0.02783 0.0
H947 H 0.51621 0.80276 0.02368 0.0
C948 C 0.48477 0.7712 0.04373 0.0
C949 C 0.45499 0.76626 0.05449 0.0
C950 C 0.46027 0.87928 0.02357 0.0
C951 C 0.47098 0.82281 0.02934 0.0
C952 C 0.47175 0.90918 0.02236 0.0
C953 C 0.50328 0.91414 0.019 0.0
C954 C 0.48062 0.85444 0.02157 0.0
C955 C 0.52236 0.88884 0.01455 0.0
C956 C 0.49276 0.79924 0.0309 0.0
C957 C 0.43324 0.78951 0.05057 0.0
N958 N 0.51081 0.86012 0.01635 0.0
N959 N 0.44179 0.81705 0.03879 0.0
H960 H 0.14147 0.24765 0.54588 0.0
H961 H 0.98787 0.15407 0.51336 0.0
H962 H 0.05094 0.28672 0.5437 0.0
H963 H 0.07539 0.11107 0.52782 0.0
H964 H 0.01305 0.2039 0.51267 0.0
H965 H 0.12004 0.19889 0.52803 0.0
C966 C 0.11719 0.2461 0.54108 0.0
C967 C 0.09783 0.27104 0.54666 0.0
C968 C 0.0269 0.1836 0.51552 0.0
C969 C 0.07324 0.21556 0.52648 0.0
C970 C 0.01253 0.15517 0.51584 0.0
C971 C 0.02962 0.12856 0.52074 0.0
C972 C 0.05858 0.18551 0.52071 0.0
C973 C 0.06148 0.13113 0.5238 0.0
C974 C 0.10497 0.21828 0.53105 0.0
C975 C 0.06655 0.26785 0.5402 0.0
N976 N 0.07495 0.15921 0.52415 0.0
N977 N 0.05522 0.24057 0.53072 0.0
H978 H 0.54958 0.25141 0.49399 0.0
H979 H 0.58071 0.42938 0.51296 0.0
H980 H 0.63986 0.29097 0.4884 0.0
H981 H 0.49271 0.38636 0.52511 0.0
H982 H 0.60472 0.37868 0.5125 0.0
H983 H 0.53003 0.29991 0.5132 0.0
C984 C 0.56531 0.27033 0.49708 0.0
C985 C 0.59625 0.26738 0.48925 0.0
C986 C 0.58024 0.38037 0.51593 0.0
C987 C 0.57407 0.32318 0.51096 0.0
C988 C 0.5666 0.4093 0.51646 0.0
C989 C 0.53473 0.41193 0.51897 0.0
C990 C 0.56171 0.35407 0.51757 0.0
C991 C 0.51737 0.38524 0.52288 0.0
C992 C 0.55421 0.29801 0.50815 0.0
C993 C 0.6158 0.29241 0.49413 0.0
N994 N 0.53102 0.35746 0.52168 0.0
N995 N 0.6043 0.31947 0.50423 0.0
loop_
_geom_bond_atom_site_label_1
_geom_bond_atom_site_label_2
_geom_bond_distance
_geom_bond_site_symmetry_2
_ccdc_geom_bond_type
C0 C1 1.391 . S
C0 C4 1.391 . S
C0 H42 0.948 . S
C1 C0 1.391 . S
C1 C2 1.391 . S
C2 C1 1.391 . S
C2 H58 0.947 . S
C2 C59 1.392 . S
C3 C4 1.391 . S
C3 C7 1.397 . S
C3 C59 1.419 . S
C4 C0 1.391 . S
C4 C3 1.391 . S
C4 C5 1.399 . S
C5 C4 1.399 . S
C5 C8 1.396 . S
C5 C17 1.453 . S
C5 C18 1.684 . S
H6 C30 0.948 . S
C7 C3 1.397 . S
C7 C8 1.394 . S
C7 C26 1.723 . S
C8 C5 1.396 . S
C8 C7 1.394 . S
C8 C38 1.723 . S
H9 C32 0.947 . S
H10 C33 0.948 . S
H11 C39 0.982 . S
H12 C40 0.979 . S
H13 C40 0.980 . S
H14 C40 0.983 . S
H15 C39 0.979 . S
H16 C39 0.977 . S
C17 C5 1.453 . S
C17 H46 0.982 . S
C17 H47 0.979 . S
C17 H48 0.977 . S
C18 C5 1.684 . S
C18 H43 0.979 . S
C18 H44 0.980 . S
C18 H45 0.983 . S
C19 C20 1.391 . S
C19 C24 1.391 . S
C19 H49 0.948 . S
C20 C19 1.391 . S
C20 C21 1.391 . S
C21 C20 1.391 . S
C21 C22 1.392 . S
C21 H50 0.947 . S
C22 C21 1.392 . S
C22 C23 1.419 . S
C22 H51 0.948 . S
C23 C22 1.419 . S
C23 C24 1.391 . S
C23 C27 1.397 . S
C24 C19 1.391 . S
C24 C23 1.391 . S
C24 C25 1.399 . S
C25 C24 1.399 . S
C25 C26 1.396 . S
C25 C28 1.453 . S
C25 C29 1.684 . S
C26 C7 1.723 . S
C26 C25 1.396 . S
C26 C27 1.394 . S
C27 C23 1.397 . S
C27 C26 1.394 . S
C27 C37 1.723 . S
C28 C25 1.453 . S
C28 H52 0.982 . S
C28 H53 0.979 . S
C28 H54 0.977 . S
C29 C25 1.684 . S
C29 H55 0.979 . S
C29 H56 0.980 . S
C29 H57 0.983 . S
C30 H6 0.948 . S
C30 C31 1.391 . S
C30 C35 1.391 . S
C31 C30 1.391 . S
C31 C32 1.391 . S
C32 H9 0.947 . S
C32 C31 1.391 . S
C32 C33 1.392 . S
C33 H10 0.948 . S
C33 C32 1.392 . S
C33 C34 1.419 . S
C34 C33 1.419 . S
C34 C35 1.391 . S
C34 C38 1.397 . S
C35 C30 1.391 . S
C35 C34 1.391 . S
C35 C36 1.399 . S
C36 C35 1.399 . S
C36 C37 1.396 . S
C36 C39 1.453 . S
C36 C40 1.684 . S
C37 C27 1.723 . S
C37 C36 1.396 . S
C37 C38 1.394 . S
C38 C8 1.723 . S
C38 C34 1.397 . S
C38 C37 1.394 . S
C39 H11 0.982 . S
C39 H15 0.979 . S
C39 H16 0.977 . S
C39 C36 1.453 . S
C40 H12 0.979 . S
C40 H13 0.980 . S
C40 H14 0.983 . S
C40 C36 1.684 . S
H41 C59 0.948 . S
H42 C0 0.948 . S
H43 C18 0.979 . S
H44 C18 0.980 . S
H45 C18 0.983 . S
H46 C17 0.982 . S
H47 C17 0.979 . S
H48 C17 0.977 . S
H49 C19 0.948 . S
H50 C21 0.947 . S
H51 C22 0.948 . S
H52 C28 0.982 . S
H53 C28 0.979 . S
H54 C28 0.977 . S
H55 C29 0.979 . S
H56 C29 0.980 . S
H57 C29 0.983 . S
H58 C2 0.947 . S
C59 C2 1.392 . S
C59 C3 1.419 . S
C59 H41 0.948 . S
C60 C61 1.391 . S
C60 C64 1.391 . S
C60 H102 0.948 . S
C61 C60 1.391 . S
C61 C62 1.391 . S
C62 C61 1.391 . S
C62 H118 0.947 . S
C62 C119 1.392 . S
C63 C64 1.391 . S
C63 C67 1.397 . S
C63 C119 1.419 . S
C64 C60 1.391 . S
C64 C63 1.391 . S
C64 C65 1.399 . S
C65 C64 1.399 . S
C65 C68 1.396 . S
C65 C77 1.453 . S
C65 C78 1.684 . S
H66 C90 0.948 . S
C67 C63 1.397 . S
C67 C68 1.394 . S
C67 C86 1.723 . S
C68 C65 1.396 . S
C68 C67 1.394 . S
C68 C98 1.723 . S
H69 C92 0.947 . S
H70 C93 0.948 . S
H71 C99 0.982 . S
H72 C100 0.979 . S
H73 C100 0.980 . S
H74 C100 0.983 . S
H75 C99 0.979 . S
H76 C99 0.977 . S
C77 C65 1.453 . S
C77 H106 0.982 . S
C77 H107 0.979 . S
C77 H108 0.977 . S
C78 C65 1.684 . S
C78 H103 0.979 . S
C78 H104 0.980 . S
C78 H105 0.983 . S
C79 C80 1.391 . S
C79 C84 1.391 . S
C79 H109 0.948 . S
C80 C79 1.391 . S
C80 C81 1.391 . S
C81 C80 1.391 . S
C81 C82 1.392 . S
C81 H110 0.947 . S
C82 C81 1.392 . S
C82 C83 1.419 . S
C82 H111 0.948 . S
C83 C82 1.419 . S
C83 C84 1.391 . S
C83 C87 1.397 . S
C84 C79 1.391 . S
C84 C83 1.391 . S
C84 C85 1.399 . S
C85 C84 1.399 . S
C85 C86 1.396 . S
C85 C88 1.453 . S
C85 C89 1.684 . S
C86 C67 1.723 . S
C86 C85 1.396 . S
C86 C87 1.394 . S
C87 C83 1.397 . S
C87 C86 1.394 . S
C87 C97 1.723 . S
C88 C85 1.453 . S
C88 H112 0.982 . S
C88 H113 0.979 . S
C88 H114 0.977 . S
C89 C85 1.684 . S
C89 H115 0.979 . S
C89 H116 0.980 . S
C89 H117 0.983 . S
C90 H66 0.948 . S
C90 C91 1.391 . S
C90 C95 1.391 . S
C91 C90 1.391 . S
C91 C92 1.391 . S
C92 H69 0.947 . S
C92 C91 1.391 . S
C92 C93 1.392 . S
C93 H70 0.948 . S
C93 C92 1.392 . S
C93 C94 1.419 . S
C94 C93 1.419 . S
C94 C95 1.391 . S
C94 C98 1.397 . S
C95 C90 1.391 . S
C95 C94 1.391 . S
C95 C96 1.399 . S
C96 C95 1.399 . S
C96 C97 1.396 . S
C96 C99 1.453 . S
C96 C100 1.684 . S
C97 C87 1.723 . S
C97 C96 1.396 . S
C97 C98 1.394 . S
C98 C68 1.723 . S
C98 C94 1.397 . S
C98 C97 1.394 . S
C99 H71 0.982 . S
C99 H75 0.979 . S
C99 H76 0.977 . S
C99 C96 1.453 . S
C100 H72 0.979 . S
C100 H73 0.980 . S
C100 H74 0.983 . S
C100 C96 1.684 . S
H101 C119 0.948 . S
H102 C60 0.948 . S
H103 C78 0.979 . S
H104 C78 0.980 . S
H105 C78 0.983 . S
H106 C77 0.982 . S
H107 C77 0.979 . S
H108 C77 0.977 . S
H109 C79 0.948 . S
H110 C81 0.947 . S
H111 C82 0.948 . S
H112 C88 0.982 . S
H113 C88 0.979 . S
H114 C88 0.977 . S
H115 C89 0.979 . S
H116 C89 0.980 . S
H117 C89 0.983 . S
H118 C62 0.947 . S
C119 C62 1.392 . S
C119 C63 1.419 . S
C119 H101 0.948 . S
C120 C121 1.391 . S
C120 C124 1.391 . S
C120 H162 0.948 . S
C121 C120 1.391 . S
C121 C122 1.391 . S
C122 C121 1.391 . S
C122 H178 0.947 . S
C122 C179 1.392 . S
C123 C124 1.391 . S
C123 C127 1.397 . S
C123 C179 1.419 . S
C124 C120 1.391 . S
C124 C123 1.391 . S
C124 C125 1.399 . S
C125 C124 1.399 . S
C125 C128 1.396 . S
C125 C137 1.453 . S
C125 C138 1.684 . S
H126 C150 0.948 . S
C127 C123 1.397 . S
C127 C128 1.394 . S
C127 C146 1.723 . S
C128 C125 1.396 . S
C128 C127 1.394 . S
C128 C158 1.723 . S
H129 C152 0.947 . S
H130 C153 0.948 . S
H131 C159 0.982 . S
H132 C160 0.979 . S
H133 C160 0.980 . S
H134 C160 0.983 . S
H135 C159 0.979 . S
H136 C159 0.977 . S
C137 C125 1.453 . S
C137 H166 0.982 . S
C137 H167 0.979 . S
C137 H168 0.977 . S
C138 C125 1.684 . S
C138 H163 0.979 . S
C138 H164 0.980 . S
C138 H165 0.983 . S
C139 C140 1.391 . S
C139 C144 1.391 . S
C139 H169 0.948 . S
C140 C139 1.391 . S
C140 C141 1.391 . S
C141 C140 1.391 . S
C141 C142 1.392 . S
C141 H170 0.947 . S
C142 C141 1.392 . S
C142 C143 1.419 . S
C142 H171 0.948 . S
C143 C142 1.419 . S
C143 C144 1.391 . S
C143 C147 1.397 . S
C144 C139 1.391 . S
C144 C143 1.391 . S
C144 C145 1.399 . S
C145 C144 1.399 . S
C145 C146 1.396 . S
C145 C148 1.453 . S
C145 C149 1.684 . S
C146 C127 1.723 . S
C146 C145 1.396 . S
C146 C147 1.394 . S
C147 C143 1.397 . S
C147 C146 1.394 . S
C147 C157 1.723 . S
C148 C145 1.453 . S
C148 H172 0.982 . S
C148 H173 0.979 . S
C148 H174 0.977 . S
C149 C145 1.684 . S
C149 H175 0.979 . S
C149 H176 0.980 . S
C149 H177 0.983 . S
C150 H126 0.948 . S
C150 C151 1.391 . S
C150 C155 1.391 . S
C151 C150 1.391 . S
C151 C152 1.391 . S
C152 H129 0.947 . S
C152 C151 1.391 . S
C152 C153 1.392 . S
C153 H130 0.948 . S
C153 C152 1.392 . S
C153 C154 1.419 . S
C154 C153 1.419 . S
C154 C155 1.391 . S
C154 C158 1.397 . S
C155 C150 1.391 . S
C155 C154 1.391 . S
C155 C156 1.399 . S
C156 C155 1.399 . S
C156 C157 1.396 . S
C156 C159 1.453 . S
C156 C160 1.684 . S
C157 C147 1.723 . S
C157 C156 1.396 . S
C157 C158 1.394 . S
C158 C128 1.723 . S
C158 C154 1.397 . S
C158 C157 1.394 . S
C159 H131 0.982 . S
C159 H135 0.979 . S
C159 H136 0.977 . S
C159 C156 1.453 . S
C160 H132 0.979 . S
C160 H133 0.980 . S
C160 H134 0.983 . S
C160 C156 1.684 . S
H161 C179 0.948 . S
H162 C120 0.948 . S
H163 C138 0.979 . S
H164 C138 0.980 . S
H165 C138 0.983 . S
H166 C137 0.982 . S
H167 C137 0.979 . S
H168 C137 0.977 . S
H169 C139 0.948 . S
H170 C141 0.947 . S
H171 C142 0.948 . S
H172 C148 0.982 . S
H173 C148 0.979 . S
H174 C148 0.977 . S
H175 C149 0.979 . S
H176 C149 0.980 . S
H177 C149 0.983 . S
H178 C122 0.947 . S
C179 C122 1.392 . S
C179 C123 1.419 . S
C179 H161 0.948 . S
C180 C181 1.391 . S
C180 C184 1.391 . S
C180 H222 0.948 . S
C181 C180 1.391 . S
C181 C182 1.391 . S
C182 C181 1.391 . S
C182 H238 0.947 . S
C182 C239 1.392 . S
C183 C184 1.391 . S
C183 C187 1.397 . S
C183 C239 1.419 . S
C184 C180 1.391 . S
C184 C183 1.391 . S
C184 C185 1.399 . S
C185 C184 1.399 . S
C185 C188 1.396 . S
C185 C197 1.453 . S
C185 C198 1.684 . S
H186 C210 0.948 . S
C187 C183 1.397 . S
C187 C188 1.394 . S
C187 C206 1.723 . S
C188 C185 1.396 . S
C188 C187 1.394 . S
C188 C218 1.723 . S
H189 C212 0.947 . S
H190 C213 0.948 . S
H191 C219 0.982 . S
H192 C220 0.979 . S
H193 C220 0.980 . S
H194 C220 0.983 . S
H195 C219 0.979 . S
H196 C219 0.977 . S
C197 C185 1.453 . S
C197 H226 0.982 . S
C197 H227 0.979 . S
C197 H228 0.977 . S
C198 C185 1.684 . S
C198 H223 0.979 . S
C198 H224 0.980 . S
C198 H225 0.983 . S
C199 C200 1.391 . S
C199 C204 1.391 . S
C199 H229 0.948 . S
C200 C199 1.391 . S
C200 C201 1.391 . S
C201 C200 1.391 . S
C201 C202 1.392 . S
C201 H230 0.947 . S
C202 C201 1.392 . S
C202 C203 1.419 . S
C202 H231 0.948 . S
C203 C202 1.419 . S
C203 C204 1.391 . S
C203 C207 1.397 . S
C204 C199 1.391 . S
C204 C203 1.391 . S
C204 C205 1.399 . S
C205 C204 1.399 . S
C205 C206 1.396 . S
C205 C208 1.453 . S
C205 C209 1.684 . S
C206 C187 1.723 . S
C206 C205 1.396 . S
C206 C207 1.394 . S
C207 C203 1.397 . S
C207 C206 1.394 . S
C207 C217 1.723 . S
C208 C205 1.453 . S
C208 H232 0.982 . S
C208 H233 0.979 . S
C208 H234 0.977 . S
C209 C205 1.684 . S
C209 H235 0.979 . S
C209 H236 0.980 . S
C209 H237 0.983 . S
C210 H186 0.948 . S
C210 C211 1.391 . S
C210 C215 1.391 . S
C211 C210 1.391 . S
C211 C212 1.391 . S
C212 H189 0.947 . S
C212 C211 1.391 . S
C212 C213 1.392 . S
C213 H190 0.948 . S
C213 C212 1.392 . S
C213 C214 1.419 . S
C214 C213 1.419 . S
C214 C215 1.391 . S
C214 C218 1.397 . S
C215 C210 1.391 . S
C215 C214 1.391 . S
C215 C216 1.399 . S
C216 C215 1.399 . S
C216 C217 1.396 . S
C216 C219 1.453 . S
C216 C220 1.684 . S
C217 C207 1.723 . S
C217 C216 1.396 . S
C217 C218 1.394 . S
C218 C188 1.723 . S
C218 C214 1.397 . S
C218 C217 1.394 . S
C219 H191 0.982 . S
C219 H195 0.979 . S
C219 H196 0.977 . S
C219 C216 1.453 . S
C220 H192 0.979 . S
C220 H193 0.980 . S
C220 H194 0.983 . S
C220 C216 1.684 . S
H221 C239 0.948 . S
H222 C180 0.948 . S
H223 C198 0.979 . S
H224 C198 0.980 . S
H225 C198 0.983 . S
H226 C197 0.982 . S
H227 C197 0.979 . S
H228 C197 0.977 . S
H229 C199 0.948 . S
H230 C201 0.947 . S
H231 C202 0.948 . S
H232 C208 0.982 . S
H233 C208 0.979 . S
H234 C208 0.977 . S
H235 C209 0.979 . S
H236 C209 0.980 . S
H237 C209 0.983 . S
H238 C182 0.947 . S
C239 C182 1.392 . S
C239 C183 1.419 . S
C239 H221 0.948 . S
C240 C241 1.391 . S
C240 C244 1.391 . S
C240 H282 0.948 1_556 S
C241 C240 1.391 . S
C241 C242 1.391 1_655 S
C242 C241 1.391 1_455 S
C242 H298 0.947 . S
C242 C299 1.392 1_455 S
C243 C244 1.391 . S
C243 C247 1.397 . S
C243 C299 1.419 . S
C244 C240 1.391 . S
C244 C243 1.391 . S
C244 C245 1.399 . S
C245 C244 1.399 . S
C245 C248 1.396 . S
C245 C257 1.453 . S
C245 C258 1.684 1_556 S
H246 C270 0.948 1_545 S
C247 C243 1.397 . S
C247 C248 1.394 . S
C247 C266 1.723 . S
C248 C245 1.396 . S
C248 C247 1.394 . S
C248 C278 1.723 . S
H249 C272 0.947 . S
H250 C273 0.948 1_554 S
H251 C279 0.982 . S
H252 C280 0.979 . S
H253 C280 0.980 . S
H254 C280 0.983 . S
H255 C279 0.979 1_545 S
H256 C279 0.977 . S
C257 C245 1.453 . S
C257 H286 0.982 . S
C257 H287 0.979 1_556 S
C257 H288 0.977 . S
C258 C245 1.684 1_554 S
C258 H283 0.979 . S
C258 H284 0.980 . S
C258 H285 0.983 . S
C259 C260 1.391 . S
C259 C264 1.391 . S
C259 H289 0.948 1_655 S
C260 C259 1.391 . S
C260 C261 1.391 1_565 S
C261 C260 1.391 1_545 S
C261 C262 1.392 1_545 S
C261 H290 0.947 . S
C262 C261 1.392 1_565 S
C262 C263 1.419 . S
C262 H291 0.948 1_565 S
C263 C262 1.419 . S
C263 C264 1.391 . S
C263 C267 1.397 . S
C264 C259 1.391 . S
C264 C263 1.391 . S
C264 C265 1.399 . S
C265 C264 1.399 . S
C265 C266 1.396 . S
C265 C268 1.453 . S
C265 C269 1.684 1_655 S
C266 C247 1.723 . S
C266 C265 1.396 . S
C266 C267 1.394 . S
C267 C263 1.397 . S
C267 C266 1.394 . S
C267 C277 1.723 . S
C268 C265 1.453 . S
C268 H292 0.982 . S
C268 H293 0.990 . S
C268 H294 0.977 . S
C269 C265 1.684 1_455 S
C269 H295 0.979 . S
C269 H296 0.980 . S
C269 H297 0.983 . S
C270 H246 0.948 1_565 S
C270 C271 1.391 . S
C270 C275 1.391 . S
C271 C270 1.391 . S
C271 C272 1.391 1_556 S
C272 H249 0.947 . S
C272 C271 1.391 1_554 S
C272 C273 1.392 1_554 S
C273 H250 0.948 1_556 S
C273 C272 1.392 1_556 S
C273 C274 1.419 . S
C274 C273 1.419 . S
C274 C275 1.391 . S
C274 C278 1.397 . S
C275 C270 1.391 . S
C275 C274 1.391 . S
C275 C276 1.399 . S
C276 C275 1.399 . S
C276 C277 1.396 . S
C276 C279 1.453 . S
C276 C280 1.684 1_565 S
C277 C267 1.723 . S
C277 C276 1.396 . S
C277 C278 1.394 . S
C278 C248 1.723 . S
C278 C274 1.397 . S
C278 C277 1.394 . S
C279 H251 0.982 . S
C279 H255 0.979 1_565 S
C279 H256 0.977 . S
C279 C276 1.453 . S
C280 H252 0.979 . S
C280 H253 0.980 . S
C280 H254 0.983 . S
C280 C276 1.684 1_545 S
H281 C299 0.948 1_455 S
H282 C240 0.948 1_554 S
H283 C258 0.979 . S
H284 C258 0.980 . S
H285 C258 0.983 . S
H286 C257 0.982 . S
H287 C257 0.979 1_554 S
H288 C257 0.977 . S
H289 C259 0.948 1_455 S
H290 C261 0.947 . S
H291 C262 0.948 1_545 S
H292 C268 0.982 . S
H293 C268 0.990 . S
H294 C268 0.977 . S
H295 C269 0.979 . S
H296 C269 0.980 . S
H297 C269 0.983 . S
H298 C242 0.947 . S
C299 C242 1.392 1_655 S
C299 C243 1.419 . S
C299 H281 0.948 1_655 S
C300 C301 1.391 . S
C300 C304 1.391 . S
C300 H342 0.948 . S
C301 C300 1.391 . S
C301 C302 1.391 . S
C302 C301 1.391 . S
C302 H358 0.947 . S
C302 C359 1.392 . S
C303 C304 1.391 . S
C303 C307 1.397 . S
C303 C359 1.419 . S
C304 C300 1.391 . S
C304 C303 1.391 . S
C304 C305 1.399 . S
C305 C304 1.399 . S
C305 C308 1.396 . S
C305 C317 1.453 . S
C305 C318 1.684 . S
H306 C330 0.948 . S
C307 C303 1.397 . S
C307 C308 1.394 . S
C307 C326 1.723 . S
C308 C305 1.396 . S
C308 C307 1.394 . S
C308 C338 1.723 . S
H309 C332 0.947 . S
H310 C333 0.948 . S
H311 C339 0.982 . S
H312 C340 0.979 . S
H313 C340 0.980 . S
H314 C340 0.983 . S
H315 C339 0.979 . S
H316 C339 0.977 . S
C317 C305 1.453 . S
C317 H346 0.982 . S
C317 H347 0.979 . S
C317 H348 0.977 . S
C318 C305 1.684 . S
C318 H343 0.979 . S
C318 H344 0.980 . S
C318 H345 0.983 . S
C319 C320 1.391 . S
C319 C324 1.391 . S
C319 H349 0.948 . S
C320 C319 1.391 . S
C320 C321 1.391 . S
C321 C320 1.391 . S
C321 C322 1.392 . S
C321 H350 0.947 . S
C322 C321 1.392 . S
C322 C323 1.419 . S
C322 H351 0.948 . S
C323 C322 1.419 . S
C323 C324 1.391 . S
C323 C327 1.397 . S
C324 C319 1.391 . S
C324 C323 1.391 . S
C324 C325 1.399 . S
C325 C324 1.399 . S
C325 C326 1.396 . S
C325 C328 1.453 . S
C325 C329 1.684 . S
C326 C307 1.723 . S
C326 C325 1.396 . S
C326 C327 1.394 . S
C327 C323 1.397 . S
C327 C326 1.394 . S
C327 C337 1.723 . S
C328 C325 1.453 . S
C328 H352 0.982 . S
C328 H353 0.979 . S
C328 H354 0.977 . S
C329 C325 1.684 . S
C329 H355 0.979 . S
C329 H356 0.980 . S
C329 H357 0.983 . S
C330 H306 0.948 . S
C330 C331 1.391 . S
C330 C335 1.391 . S
C331 C330 1.391 . S
C331 C332 1.391 . S
C332 H309 0.947 . S
C332 C331 1.391 . S
C332 C333 1.392 . S
C333 H310 0.948 . S
C333 C332 1.392 . S
C333 C334 1.419 . S
C334 C333 1.419 . S
C334 C335 1.391 . S
C334 C338 1.397 . S
C335 C330 1.391 . S
C335 C334 1.391 . S
C335 C336 1.399 . S
C336 C335 1.399 . S
C336 C337 1.396 . S
C336 C339 1.453 . S
C336 C340 1.684 . S
C337 C327 1.723 . S
C337 C336 1.396 . S
C337 C338 1.394 . S
C338 C308 1.723 . S
C338 C334 1.397 . S
C338 C337 1.394 . S
C339 H311 0.982 . S
C339 H315 0.979 . S
C339 H316 0.977 . S
C339 C336 1.453 . S
C340 H312 0.979 . S
C340 H313 0.980 . S
C340 H314 0.983 . S
C340 C336 1.684 . S
H341 C359 0.948 . S
H342 C300 0.948 . S
H343 C318 0.979 . S
H344 C318 0.980 . S
H345 C318 0.983 . S
H346 C317 0.982 . S
H347 C317 0.979 . S
H348 C317 0.977 . S
H349 C319 0.948 . S
H350 C321 0.947 . S
H351 C322 0.948 . S
H352 C328 0.982 . S
H353 C328 0.979 . S
H354 C328 0.977 . S
H355 C329 0.979 . S
H356 C329 0.980 . S
H357 C329 0.983 . S
H358 C302 0.947 . S
C359 C302 1.392 . S
C359 C303 1.419 . S
C359 H341 0.948 . S
C360 C361 1.391 . S
C360 C364 1.391 . S
C360 H402 0.948 . S
C361 C360 1.391 . S
C361 C362 1.391 . S
C362 C361 1.391 . S
C362 H418 0.947 . S
C362 C419 1.392 . S
C363 C364 1.391 . S
C363 C367 1.397 . S
C363 C419 1.419 . S
C364 C360 1.391 . S
C364 C363 1.391 . S
C364 C365 1.399 . S
C365 C364 1.399 . S
C365 C368 1.396 . S
C365 C377 1.453 . S
C365 C378 1.684 . S
H366 C390 0.948 . S
C367 C363 1.397 . S
C367 C368 1.394 . S
C367 C386 1.723 . S
C368 C365 1.396 . S
C368 C367 1.394 . S
C368 C398 1.723 . S
H369 C392 0.947 . S
H370 C393 0.948 . S
H371 C399 0.982 . S
H372 C400 0.979 . S
H373 C400 0.980 . S
H374 C400 0.983 . S
H375 C399 0.979 . S
H376 C399 0.977 . S
C377 C365 1.453 . S
C377 H406 0.982 . S
C377 H407 0.979 . S
C377 H408 0.977 . S
C378 C365 1.684 . S
C378 H403 0.979 . S
C378 H404 0.980 . S
C378 H405 0.983 . S
C379 C380 1.391 . S
C379 C384 1.391 . S
C379 H409 0.948 . S
C380 C379 1.391 . S
C380 C381 1.391 . S
C381 C380 1.391 . S
C381 C382 1.392 . S
C381 H410 0.947 . S
C382 C381 1.392 . S
C382 C383 1.419 . S
C382 H411 0.948 . S
C383 C382 1.419 . S
C383 C384 1.391 . S
C383 C387 1.397 . S
C384 C379 1.391 . S
C384 C383 1.391 . S
C384 C385 1.399 . S
C385 C384 1.399 . S
C385 C386 1.396 . S
C385 C388 1.453 . S
C385 C389 1.684 . S
C386 C367 1.723 . S
C386 C385 1.396 . S
C386 C387 1.394 . S
C387 C383 1.397 . S
C387 C386 1.394 . S
C387 C397 1.723 . S
C388 C385 1.453 . S
C388 H412 0.982 . S
C388 H413 0.979 . S
C388 H414 0.977 . S
C389 C385 1.684 . S
C389 H415 0.979 . S
C389 H416 0.980 . S
C389 H417 0.983 . S
C390 H366 0.948 . S
C390 C391 1.391 . S
C390 C395 1.391 . S
C391 C390 1.391 . S
C391 C392 1.391 . S
C392 H369 0.947 . S
C392 C391 1.391 . S
C392 C393 1.392 . S
C393 H370 0.948 . S
C393 C392 1.392 . S
C393 C394 1.419 . S
C394 C393 1.419 . S
C394 C395 1.391 . S
C394 C398 1.397 . S
C395 C390 1.391 . S
C395 C394 1.391 . S
C395 C396 1.399 . S
C396 C395 1.399 . S
C396 C397 1.396 . S
C396 C399 1.453 . S
C396 C400 1.684 . S
C397 C387 1.723 . S
C397 C396 1.396 . S
C397 C398 1.394 . S
C398 C368 1.723 . S
C398 C394 1.397 . S
C398 C397 1.394 . S
C399 H371 0.982 . S
C399 H375 0.979 . S
C399 H376 0.977 . S
C399 C396 1.453 . S
C400 H372 0.979 . S
C400 H373 0.980 . S
C400 H374 0.983 . S
C400 C396 1.684 . S
H401 C419 0.948 . S
H402 C360 0.948 . S
H403 C378 0.979 . S
H404 C378 0.980 . S
H405 C378 0.983 . S
H406 C377 0.982 . S
H407 C377 0.979 . S
H408 C377 0.977 . S
H409 C379 0.948 . S
H410 C381 0.947 . S
H411 C382 0.948 . S
H412 C388 0.982 . S
H413 C388 0.979 . S
H414 C388 0.977 . S
H415 C389 0.979 . S
H416 C389 0.980 . S
H417 C389 0.983 . S
H418 C362 0.947 . S
C419 C362 1.392 . S
C419 C363 1.419 . S
C419 H401 0.948 . S
C420 C421 1.391 . S
C420 C424 1.391 . S
C420 H462 0.948 . S
C421 C420 1.391 . S
C421 C422 1.391 . S
C422 C421 1.391 . S
C422 H478 0.947 . S
C422 C479 1.392 . S
C423 C424 1.391 . S
C423 C427 1.397 . S
C423 C479 1.419 . S
C424 C420 1.391 . S
C424 C423 1.391 . S
C424 C425 1.399 . S
C425 C424 1.399 . S
C425 C428 1.396 . S
C425 C437 1.453 . S
C425 C438 1.684 . S
H426 C450 0.948 . S
C427 C423 1.397 . S
C427 C428 1.394 . S
C427 C446 1.723 . S
C428 C425 1.396 . S
C428 C427 1.394 . S
C428 C458 1.723 . S
H429 C452 0.947 . S
H430 C453 0.948 . S
H431 C459 0.982 . S
H432 C460 0.979 . S
H433 C460 0.980 . S
H434 C460 0.983 . S
H435 C459 0.979 . S
H436 C459 0.977 . S
C437 C425 1.453 . S
C437 H466 0.982 . S
C437 H467 0.979 . S
C437 H468 0.977 . S
C438 C425 1.684 . S
C438 H463 0.979 . S
C438 H464 0.980 . S
C438 H465 0.983 . S
C439 C440 1.391 . S
C439 C444 1.391 . S
C439 H469 0.948 . S
C440 C439 1.391 . S
C440 C441 1.391 . S
C441 C440 1.391 . S
C441 C442 1.392 . S
C441 H470 0.947 . S
C442 C441 1.392 . S
C442 C443 1.419 . S
C442 H471 0.948 . S
C443 C442 1.419 . S
C443 C444 1.391 . S
C443 C447 1.397 . S
C444 C439 1.391 . S
C444 C443 1.391 . S
C444 C445 1.399 . S
C445 C444 1.399 . S
C445 C446 1.396 . S
C445 C448 1.453 . S
C445 C449 1.684 . S
C446 C427 1.723 . S
C446 C445 1.396 . S
C446 C447 1.394 . S
C447 C443 1.397 . S
C447 C446 1.394 . S
C447 C457 1.723 . S
C448 C445 1.453 . S
C448 H472 0.982 . S
C448 H473 0.979 . S
C448 H474 0.977 . S
C449 C445 1.684 . S
C449 H475 0.979 . S
C449 H476 0.980 . S
C449 H477 0.983 . S
C450 H426 0.948 . S
C450 C451 1.391 . S
C450 C455 1.391 . S
C451 C450 1.391 . S
C451 C452 1.391 . S
C452 H429 0.947 . S
C452 C451 1.391 . S
C452 C453 1.392 . S
C453 H430 0.948 . S
C453 C452 1.392 . S
C453 C454 1.419 . S
C454 C453 1.419 . S
C454 C455 1.391 . S
C454 C458 1.397 . S
C455 C450 1.391 . S
C455 C454 1.391 . S
C455 C456 1.399 . S
C456 C455 1.399 . S
C456 C457 1.396 . S
C456 C459 1.453 . S
C456 C460 1.684 . S
C457 C447 1.723 . S
C457 C456 1.396 . S
C457 C458 1.394 . S
C458 C428 1.723 . S
C458 C454 1.397 . S
C458 C457 1.394 . S
C459 H431 0.982 . S
C459 H435 0.979 . S
C459 H436 0.977 . S
C459 C456 1.453 . S
C460 H432 0.979 . S
C460 H433 0.980 . S
C460 H434 0.983 . S
C460 C456 1.684 . S
H461 C479 0.948 . S
H462 C420 0.948 . S
H463 C438 0.979 . S
H464 C438 0.980 . S
H465 C438 0.983 . S
H466 C437 0.982 . S
H467 C437 0.979 . S
H468 C437 0.977 . S
H469 C439 0.948 . S
H470 C441 0.947 . S
H471 C442 0.948 . S
H472 C448 0.982 . S
H473 C448 0.979 . S
H474 C448 0.977 . S
H475 C449 0.979 . S
H476 C449 0.980 . S
H477 C449 0.983 . S
H478 C422 0.947 . S
C479 C422 1.392 . S
C479 C423 1.419 . S
C479 H461 0.948 . S
Zn480 O486 1.920 . S
Zn480 O492 1.898 . S
Zn480 O495 1.905 . S
Zn481 O489 1.905 1_565 S
Zn481 O490 1.898 . S
Zn481 O498 1.920 . S
Zn482 O485 2.080 1_455 S
Zn482 O488 2.114 . S
Zn482 O491 2.120 1_445 S
Zn482 O493 2.120 . S
Zn482 O494 2.114 1_455 S
Zn482 O497 2.080 . S
C483 O488 1.166 . S
C483 O489 1.182 . S
C484 O490 1.167 1_655 S
C484 O491 1.299 . S
O485 Zn482 2.080 1_655 S
O485 C499 1.305 . S
O486 Zn480 1.920 . S
O486 C499 1.234 . S
C487 O492 1.167 1_455 S
C487 O493 1.299 . S
O488 Zn482 2.114 . S
O488 C483 1.166 . S
O489 Zn481 1.905 1_545 S
O489 C483 1.182 . S
O490 Zn481 1.898 . S
O490 C484 1.167 1_455 S
O491 Zn482 2.120 1_665 S
O491 C484 1.299 . S
O492 Zn480 1.898 . S
O492 C487 1.167 1_655 S
O493 Zn482 2.120 . S
O493 C487 1.299 . S
O494 Zn482 2.114 1_655 S
O494 C496 1.166 . S
O495 Zn480 1.905 . S
O495 C496 1.182 . S
C496 O494 1.166 . S
C496 O495 1.182 . S
O497 Zn482 2.080 . S
O497 C500 1.305 1_545 S
O498 Zn481 1.920 . S
O498 C500 1.234 . S
C499 O485 1.305 . S
C499 O486 1.234 . S
C500 O497 1.305 1_565 S
C500 O498 1.234 . S
Zn501 O507 1.920 1_556 S
Zn501 O513 1.898 . S
Zn501 O516 1.905 . S
Zn502 O510 1.905 . S
Zn502 O511 1.898 . S
Zn502 O519 1.920 . S
Zn503 O506 2.080 . S
Zn503 O509 2.114 1_545 S
Zn503 O512 2.120 1_545 S
Zn503 O514 2.120 . S
Zn503 O515 2.114 1_544 S
Zn503 O518 2.080 . S
C504 O509 1.166 . S
C504 O510 1.182 . S
C505 O511 1.167 . S
C505 O512 1.299 . S
O506 Zn503 2.080 . S
O506 C520 1.305 . S
O507 Zn501 1.920 1_554 S
O507 C520 1.234 . S
C508 O513 1.167 . S
C508 O514 1.299 1_556 S
O509 Zn503 2.114 1_565 S
O509 C504 1.166 . S
O510 Zn502 1.905 . S
O510 C504 1.182 . S
O511 Zn502 1.898 . S
O511 C505 1.167 . S
O512 Zn503 2.120 1_565 S
O512 C505 1.299 . S
O513 Zn501 1.898 . S
O513 C508 1.167 . S
O514 Zn503 2.120 . S
O514 C508 1.299 1_554 S
O515 Zn503 2.114 1_566 S
O515 C517 1.166 . S
O516 Zn501 1.905 . S
O516 C517 1.182 1_545 S
C517 O515 1.166 . S
C517 O516 1.182 1_565 S
O518 Zn503 2.080 . S
O518 C521 1.305 . S
O519 Zn502 1.920 . S
O519 C521 1.234 1_565 S
C520 O506 1.305 . S
C520 O507 1.234 . S
C521 O518 1.305 . S
C521 O519 1.234 1_545 S
Zn522 O528 1.920 . S
Zn522 O534 1.898 . S
Zn522 O537 1.905 . S
Zn523 O531 1.905 . S
Zn523 O532 1.898 . S
Zn523 O540 1.920 . S
Zn524 O527 2.080 . S
Zn524 O530 2.114 . S
Zn524 O533 2.120 . S
Zn524 O535 2.120 . S
Zn524 O536 2.114 . S
Zn524 O539 2.080 . S
C525 O530 1.166 . S
C525 O531 1.182 . S
C526 O532 1.167 . S
C526 O533 1.299 . S
O527 Zn524 2.080 . S
O527 C541 1.305 . S
O528 Zn522 1.920 . S
O528 C541 1.234 . S
C529 O534 1.167 . S
C529 O535 1.299 . S
O530 Zn524 2.114 . S
O530 C525 1.166 . S
O531 Zn523 1.905 . S
O531 C525 1.182 . S
O532 Zn523 1.898 . S
O532 C526 1.167 . S
O533 Zn524 2.120 . S
O533 C526 1.299 . S
O534 Zn522 1.898 . S
O534 C529 1.167 . S
O535 Zn524 2.120 . S
O535 C529 1.299 . S
O536 Zn524 2.114 . S
O536 C538 1.166 . S
O537 Zn522 1.905 . S
O537 C538 1.182 . S
C538 O536 1.166 . S
C538 O537 1.182 . S
O539 Zn524 2.080 . S
O539 C542 1.305 . S
O540 Zn523 1.920 . S
O540 C542 1.234 . S
C541 O527 1.305 . S
C541 O528 1.234 . S
C542 O539 1.305 . S
C542 O540 1.234 . S
Zn543 O549 1.920 . S
Zn543 O555 1.898 . S
Zn543 O558 1.905 . S
Zn544 O552 1.905 1_655 S
Zn544 O553 1.898 . S
Zn544 O561 1.920 . S
Zn545 O548 2.080 1_554 S
Zn545 O551 2.114 . S
Zn545 O554 2.120 1_454 S
Zn545 O556 2.120 . S
Zn545 O557 2.114 1_554 S
Zn545 O560 2.080 . S
C546 O551 1.166 . S
C546 O552 1.182 . S
C547 O553 1.167 1_556 S
C547 O554 1.299 . S
O548 Zn545 2.080 1_556 S
O548 C562 1.305 . S
O549 Zn543 1.920 . S
O549 C562 1.234 . S
C550 O555 1.167 1_554 S
C550 O556 1.299 . S
O551 Zn545 2.114 . S
O551 C546 1.166 . S
O552 Zn544 1.905 1_455 S
O552 C546 1.182 . S
O553 Zn544 1.898 . S
O553 C547 1.167 1_554 S
O554 Zn545 2.120 1_656 S
O554 C547 1.299 . S
O555 Zn543 1.898 . S
O555 C550 1.167 1_556 S
O556 Zn545 2.120 . S
O556 C550 1.299 . S
O557 Zn545 2.114 1_556 S
O557 C559 1.166 . S
O558 Zn543 1.905 . S
O558 C559 1.182 . S
C559 O557 1.166 . S
C559 O558 1.182 . S
O560 Zn545 2.080 . S
O560 C563 1.305 1_455 S
O561 Zn544 1.920 . S
O561 C563 1.234 . S
C562 O548 1.305 . S
C562 O549 1.234 . S
C563 O560 1.305 1_655 S
C563 O561 1.234 . S
H564 C570 0.930 . S
H565 C574 0.930 . S
H566 C579 0.929 . S
H567 C577 0.929 . S
H568 C572 0.929 . S
H569 C578 0.929 . S
C570 H564 0.930 . S
C570 C571 1.367 . S
C570 C578 1.378 . S
C571 C570 1.367 . S
C571 C579 1.433 . S
C572 H568 0.929 . S
C572 C574 1.378 . S
C572 C576 1.350 . S
C573 C576 1.463 . S
C573 C578 1.350 . S
C573 N581 1.427 . S
C574 H565 0.930 . S
C574 C572 1.378 . S
C574 C575 1.367 . S
C575 C574 1.367 . S
C575 C577 1.433 . S
C576 C572 1.350 . S
C576 C573 1.463 . S
C576 N580 1.427 . S
C577 H567 0.929 . S
C577 C575 1.433 . S
C577 N580 1.384 . S
C578 H569 0.929 . S
C578 C570 1.378 . S
C578 C573 1.350 . S
C579 H566 0.929 . S
C579 C571 1.433 . S
C579 N581 1.384 . S
N580 C576 1.427 . S
N580 C577 1.384 . S
N581 C573 1.427 . S
N581 C579 1.384 . S
H582 C588 0.930 . S
H583 C592 0.930 . S
H584 C597 0.929 . S
H585 C595 0.929 1_545 S
H586 C590 0.929 . S
H587 C596 0.929 . S
C588 H582 0.930 . S
C588 C589 1.367 . S
C588 C596 1.378 . S
C589 C588 1.367 . S
C589 C597 1.433 . S
C590 H586 0.929 . S
C590 C592 1.378 . S
C590 C594 1.350 . S
C591 C594 1.463 . S
C591 C596 1.350 . S
C591 N599 1.427 . S
C592 H583 0.930 . S
C592 C590 1.378 . S
C592 C593 1.367 . S
C593 C592 1.367 . S
C593 C595 1.433 . S
C594 C590 1.350 . S
C594 C591 1.463 . S
C594 N598 1.427 . S
C595 H585 0.929 1_565 S
C595 C593 1.433 . S
C595 N598 1.384 . S
C596 H587 0.929 . S
C596 C588 1.378 . S
C596 C591 1.350 . S
C597 H584 0.929 . S
C597 C589 1.433 . S
C597 N599 1.384 . S
N598 C594 1.427 . S
N598 C595 1.384 . S
N599 C591 1.427 . S
N599 C597 1.384 . S
H600 C606 0.930 . S
H601 C610 0.930 . S
H602 C615 0.929 . S
H603 C613 0.929 . S
H604 C608 0.929 . S
H605 C614 0.929 . S
C606 H600 0.930 . S
C606 C607 1.367 . S
C606 C614 1.378 . S
C607 C606 1.367 . S
C607 C615 1.433 . S
C608 H604 0.929 . S
C608 C610 1.378 . S
C608 C612 1.350 . S
C609 C612 1.463 . S
C609 C614 1.350 . S
C609 N617 1.427 . S
C610 H601 0.930 . S
C610 C608 1.378 . S
C610 C611 1.367 . S
C611 C610 1.367 . S
C611 C613 1.433 . S
C612 C608 1.350 . S
C612 C609 1.463 . S
C612 N616 1.427 . S
C613 H603 0.929 . S
C613 C611 1.433 . S
C613 N616 1.384 . S
C614 H605 0.929 . S
C614 C606 1.378 . S
C614 C609 1.350 . S
C615 H602 0.929 . S
C615 C607 1.433 . S
C615 N617 1.384 . S
N616 C612 1.427 . S
N616 C613 1.384 . S
N617 C609 1.427 . S
N617 C615 1.384 . S
H618 C624 0.930 . S
H619 C628 0.930 . S
H620 C633 0.929 . S
H621 C631 0.929 . S
H622 C626 0.929 . S
H623 C632 0.929 . S
C624 H618 0.930 . S
C624 C625 1.367 . S
C624 C632 1.378 . S
C625 C624 1.367 . S
C625 C633 1.433 . S
C626 H622 0.929 . S
C626 C628 1.378 . S
C626 C630 1.350 . S
C627 C630 1.463 . S
C627 C632 1.350 . S
C627 N635 1.427 . S
C628 H619 0.930 . S
C628 C626 1.378 . S
C628 C629 1.367 . S
C629 C628 1.367 . S
C629 C631 1.433 . S
C630 C626 1.350 . S
C630 C627 1.463 . S
C630 N634 1.427 . S
C631 H621 0.929 . S
C631 C629 1.433 . S
C631 N634 1.384 . S
C632 H623 0.929 . S
C632 C624 1.378 . S
C632 C627 1.350 . S
C633 H620 0.929 . S
C633 C625 1.433 . S
C633 N635 1.384 . S
N634 C630 1.427 . S
N634 C631 1.384 . S
N635 C627 1.427 . S
N635 C633 1.384 . S
H636 C642 0.930 . S
H637 C646 0.930 . S
H638 C651 0.929 . S
H639 C649 0.929 . S
H640 C644 0.929 . S
H641 C650 0.929 . S
C642 H636 0.930 . S
C642 C643 1.367 . S
C642 C650 1.378 . S
C643 C642 1.367 . S
C643 C651 1.433 . S
C644 H640 0.929 . S
C644 C646 1.378 . S
C644 C648 1.350 . S
C645 C648 1.463 . S
C645 C650 1.350 . S
C645 N653 1.427 . S
C646 H637 0.930 . S
C646 C644 1.378 . S
C646 C647 1.367 . S
C647 C646 1.367 . S
C647 C649 1.433 . S
C648 C644 1.350 . S
C648 C645 1.463 . S
C648 N652 1.427 . S
C649 H639 0.929 . S
C649 C647 1.433 . S
C649 N652 1.384 . S
C650 H641 0.929 . S
C650 C642 1.378 . S
C650 C645 1.350 . S
C651 H638 0.929 . S
C651 C643 1.433 . S
C651 N653 1.384 . S
N652 C648 1.427 . S
N652 C649 1.384 . S
N653 C645 1.427 . S
N653 C651 1.384 . S
H654 C660 0.930 . S
H655 C664 0.930 . S
H656 C669 0.929 . S
H657 C667 0.929 . S
H658 C662 0.929 . S
H659 C668 0.929 . S
C660 H654 0.930 . S
C660 C661 1.367 . S
C660 C668 1.378 . S
C661 C660 1.367 . S
C661 C669 1.433 . S
C662 H658 0.929 . S
C662 C664 1.378 . S
C662 C666 1.350 . S
C663 C666 1.463 . S
C663 C668 1.350 . S
C663 N671 1.427 . S
C664 H655 0.930 . S
C664 C662 1.378 . S
C664 C665 1.367 . S
C665 C664 1.367 . S
C665 C667 1.433 . S
C666 C662 1.350 . S
C666 C663 1.463 . S
C666 N670 1.427 . S
C667 H657 0.929 . S
C667 C665 1.433 . S
C667 N670 1.384 . S
C668 H659 0.929 . S
C668 C660 1.378 . S
C668 C663 1.350 . S
C669 H656 0.929 . S
C669 C661 1.433 . S
C669 N671 1.384 . S
N670 C666 1.427 . S
N670 C667 1.384 . S
N671 C663 1.427 . S
N671 C669 1.384 . S
H672 C678 0.930 . S
H673 C682 0.930 . S
H674 C687 0.929 . S
H675 C685 0.929 1_554 S
H676 C680 0.929 . S
H677 C686 0.929 . S
C678 H672 0.930 . S
C678 C679 1.367 . S
C678 C686 1.378 . S
C679 C678 1.367 . S
C679 C687 1.433 . S
C680 H676 0.929 . S
C680 C682 1.378 . S
C680 C684 1.350 . S
C681 C684 1.463 . S
C681 C686 1.350 . S
C681 N689 1.427 . S
C682 H673 0.930 . S
C682 C680 1.378 . S
C682 C683 1.367 . S
C683 C682 1.367 . S
C683 C685 1.433 . S
C684 C680 1.350 . S
C684 C681 1.463 . S
C684 N688 1.427 . S
C685 H675 0.929 1_556 S
C685 C683 1.433 . S
C685 N688 1.384 . S
C686 H677 0.929 . S
C686 C678 1.378 . S
C686 C681 1.350 . S
C687 H674 0.929 . S
C687 C679 1.433 . S
C687 N689 1.384 . S
N688 C684 1.427 . S
N688 C685 1.384 . S
N689 C681 1.427 . S
N689 C687 1.384 . S
H690 C696 0.930 . S
H691 C700 0.930 . S
H692 C705 0.929 . S
H693 C703 0.929 . S
H694 C698 0.929 . S
H695 C704 0.929 . S
C696 H690 0.930 . S
C696 C697 1.367 . S
C696 C704 1.378 . S
C697 C696 1.367 . S
C697 C705 1.433 . S
C698 H694 0.929 . S
C698 C700 1.378 . S
C698 C702 1.350 . S
C699 C702 1.463 . S
C699 C704 1.350 . S
C699 N707 1.427 . S
C700 H691 0.930 . S
C700 C698 1.378 . S
C700 C701 1.367 . S
C701 C700 1.367 . S
C701 C703 1.433 . S
C702 C698 1.350 . S
C702 C699 1.463 . S
C702 N706 1.427 . S
C703 H693 0.929 . S
C703 C701 1.433 . S
C703 N706 1.384 . S
C704 H695 0.929 . S
C704 C696 1.378 . S
C704 C699 1.350 . S
C705 H692 0.929 . S
C705 C697 1.433 . S
C705 N707 1.384 . S
N706 C702 1.427 . S
N706 C703 1.384 . S
N707 C699 1.427 . S
N707 C705 1.384 . S
H708 C714 0.930 . S
H709 C718 0.930 . S
H710 C723 0.929 . S
H711 C721 0.929 . S
H712 C716 0.929 . S
H713 C722 0.929 . S
C714 H708 0.930 . S
C714 C715 1.367 . S
C714 C722 1.378 . S
C715 C714 1.367 . S
C715 C723 1.433 . S
C716 H712 0.929 . S
C716 C718 1.378 . S
C716 C720 1.350 . S
C717 C720 1.463 . S
C717 C722 1.350 . S
C717 N725 1.427 . S
C718 H709 0.930 . S
C718 C716 1.378 . S
C718 C719 1.367 . S
C719 C718 1.367 . S
C719 C721 1.433 . S
C720 C716 1.350 . S
C720 C717 1.463 . S
C720 N724 1.427 . S
C721 H711 0.929 . S
C721 C719 1.433 . S
C721 N724 1.384 . S
C722 H713 0.929 . S
C722 C714 1.378 . S
C722 C717 1.350 . S
C723 H710 0.929 . S
C723 C715 1.433 . S
C723 N725 1.384 . S
N724 C720 1.427 . S
N724 C721 1.384 . S
N725 C717 1.427 . S
N725 C723 1.384 . S
H726 C732 0.930 . S
H727 C736 0.930 . S
H728 C741 0.929 . S
H729 C739 0.942 . S
H730 C734 0.929 . S
H731 C740 0.929 . S
C732 H726 0.930 . S
C732 C733 1.367 . S
C732 C740 1.378 . S
C733 C732 1.367 . S
C733 C741 1.433 . S
C734 H730 0.929 . S
C734 C736 1.378 . S
C734 C738 1.350 . S
C735 C738 1.463 . S
C735 C740 1.350 . S
C735 N743 1.427 . S
C736 H727 0.930 . S
C736 C734 1.378 . S
C736 C737 1.367 . S
C737 C736 1.367 . S
C737 C739 1.433 . S
C738 C734 1.350 . S
C738 C735 1.463 . S
C738 N742 1.427 . S
C739 H729 0.942 . S
C739 C737 1.433 . S
C739 N742 1.384 . S
C740 H731 0.929 . S
C740 C732 1.378 . S
C740 C735 1.350 . S
C741 H728 0.929 . S
C741 C733 1.433 . S
C741 N743 1.384 . S
N742 C738 1.427 . S
N742 C739 1.384 . S
N743 C735 1.427 . S
N743 C741 1.384 . S
H744 C750 0.930 . S
H745 C754 0.930 . S
H746 C759 0.929 . S
H747 C757 0.929 1_455 S
H748 C752 0.929 . S
H749 C758 0.929 . S
C750 H744 0.930 . S
C750 C751 1.367 . S
C750 C758 1.378 . S
C751 C750 1.367 . S
C751 C759 1.433 . S
C752 H748 0.929 . S
C752 C754 1.378 . S
C752 C756 1.350 . S
C753 C756 1.463 . S
C753 C758 1.350 . S
C753 N761 1.427 . S
C754 H745 0.930 . S
C754 C752 1.378 . S
C754 C755 1.367 . S
C755 C754 1.367 . S
C755 C757 1.433 . S
C756 C752 1.350 . S
C756 C753 1.463 . S
C756 N760 1.427 . S
C757 H747 0.929 1_655 S
C757 C755 1.433 . S
C757 N760 1.384 . S
C758 H749 0.929 . S
C758 C750 1.378 . S
C758 C753 1.350 . S
C759 H746 0.929 . S
C759 C751 1.433 . S
C759 N761 1.384 . S
N760 C756 1.427 . S
N760 C757 1.384 . S
N761 C753 1.427 . S
N761 C759 1.384 . S
H762 C768 0.930 . S
H763 C772 0.930 . S
H764 C777 0.929 . S
H765 C775 0.929 . S
H766 C770 0.929 . S
H767 C776 0.929 . S
C768 H762 0.930 . S
C768 C769 1.367 . S
C768 C776 1.378 . S
C769 C768 1.367 . S
C769 C777 1.433 . S
C770 H766 0.929 . S
C770 C772 1.378 . S
C770 C774 1.350 . S
C771 C774 1.463 . S
C771 C776 1.350 . S
C771 N779 1.427 . S
C772 H763 0.930 . S
C772 C770 1.378 . S
C772 C773 1.367 . S
C773 C772 1.367 . S
C773 C775 1.433 . S
C774 C770 1.350 . S
C774 C771 1.463 . S
C774 N778 1.427 . S
C775 H765 0.929 . S
C775 C773 1.433 . S
C775 N778 1.384 . S
C776 H767 0.929 . S
C776 C768 1.378 . S
C776 C771 1.350 . S
C777 H764 0.929 . S
C777 C769 1.433 . S
C777 N779 1.384 . S
N778 C774 1.427 . S
N778 C775 1.384 . S
N779 C771 1.427 . S
N779 C777 1.384 . S
H780 C786 0.930 . S
H781 C790 0.930 . S
H782 C795 0.929 . S
H783 C793 0.929 . S
H784 C788 0.929 . S
H785 C794 0.929 . S
C786 H780 0.930 . S
C786 C787 1.367 1_545 S
C786 C794 1.378 . S
C787 C786 1.367 1_565 S
C787 C795 1.433 . S
C788 H784 0.929 . S
C788 C790 1.378 . S
C788 C792 1.350 1_565 S
C789 C792 1.463 . S
C789 C794 1.350 . S
C789 N797 1.427 1_545 S
C790 H781 0.930 . S
C790 C788 1.378 . S
C790 C791 1.367 1_565 S
C791 C790 1.367 1_545 S
C791 C793 1.433 . S
C792 C788 1.350 1_545 S
C792 C789 1.463 . S
C792 N796 1.427 . S
C793 H783 0.929 . S
C793 C791 1.433 . S
C793 N796 1.384 . S
C794 H785 0.929 . S
C794 C786 1.378 . S
C794 C789 1.350 . S
C795 H782 0.929 . S
C795 C787 1.433 . S
C795 N797 1.384 . S
N796 C792 1.427 . S
N796 C793 1.384 . S
N797 C789 1.427 1_565 S
N797 C795 1.384 . S
H798 C804 0.930 . S
H799 C808 0.930 . S
H800 C813 0.929 . S
H801 C811 0.929 1_565 S
H802 C806 0.929 . S
H803 C812 0.929 . S
C804 H798 0.930 . S
C804 C805 1.367 . S
C804 C812 1.378 . S
C805 C804 1.367 . S
C805 C813 1.433 . S
C806 H802 0.929 . S
C806 C808 1.378 . S
C806 C810 1.350 . S
C807 C810 1.463 . S
C807 C812 1.350 . S
C807 N815 1.427 . S
C808 H799 0.930 . S
C808 C806 1.378 . S
C808 C809 1.367 . S
C809 C808 1.367 . S
C809 C811 1.433 . S
C810 C806 1.350 . S
C810 C807 1.463 . S
C810 N814 1.427 . S
C811 H801 0.929 1_545 S
C811 C809 1.433 . S
C811 N814 1.384 . S
C812 H803 0.929 . S
C812 C804 1.378 . S
C812 C807 1.350 . S
C813 H800 0.929 . S
C813 C805 1.433 . S
C813 N815 1.384 . S
N814 C810 1.427 . S
N814 C811 1.384 . S
N815 C807 1.427 . S
N815 C813 1.384 . S
H816 C822 0.930 . S
H817 C826 0.930 . S
H818 C831 0.929 . S
H819 C829 0.929 . S
H820 C824 0.929 . S
H821 C830 0.929 . S
C822 H816 0.930 . S
C822 C823 1.367 . S
C822 C830 1.378 . S
C823 C822 1.367 . S
C823 C831 1.433 . S
C824 H820 0.929 . S
C824 C826 1.378 . S
C824 C828 1.350 . S
C825 C828 1.463 . S
C825 C830 1.350 . S
C825 N833 1.427 . S
C826 H817 0.930 . S
C826 C824 1.378 . S
C826 C827 1.367 . S
C827 C826 1.367 . S
C827 C829 1.433 . S
C828 C824 1.350 . S
C828 C825 1.463 . S
C828 N832 1.427 . S
C829 H819 0.929 . S
C829 C827 1.433 . S
C829 N832 1.384 . S
C830 H821 0.929 . S
C830 C822 1.378 . S
C830 C825 1.350 . S
C831 H818 0.929 . S
C831 C823 1.433 . S
C831 N833 1.384 . S
N832 C828 1.427 . S
N832 C829 1.384 . S
N833 C825 1.427 . S
N833 C831 1.384 . S
H834 C840 0.930 . S
H835 C844 0.930 . S
H836 C849 0.929 . S
H837 C847 0.929 . S
H838 C842 0.929 . S
H839 C848 0.929 . S
C840 H834 0.930 . S
C840 C841 1.367 . S
C840 C848 1.378 . S
C841 C840 1.367 . S
C841 C849 1.433 . S
C842 H838 0.929 . S
C842 C844 1.378 . S
C842 C846 1.350 . S
C843 C846 1.463 . S
C843 C848 1.350 . S
C843 N851 1.427 . S
C844 H835 0.930 . S
C844 C842 1.378 . S
C844 C845 1.367 . S
C845 C844 1.367 . S
C845 C847 1.433 . S
C846 C842 1.350 . S
C846 C843 1.463 . S
C846 N850 1.427 . S
C847 H837 0.929 . S
C847 C845 1.433 . S
C847 N850 1.384 . S
C848 H839 0.929 . S
C848 C840 1.378 . S
C848 C843 1.350 . S
C849 H836 0.929 . S
C849 C841 1.433 . S
C849 N851 1.384 . S
N850 C846 1.427 . S
N850 C847 1.384 . S
N851 C843 1.427 . S
N851 C849 1.384 . S
H852 C858 0.930 . S
H853 C862 0.930 . S
H854 C867 0.929 . S
H855 C865 0.929 1_556 S
H856 C860 0.929 . S
H857 C866 0.929 . S
C858 H852 0.930 . S
C858 C859 1.367 . S
C858 C866 1.378 . S
C859 C858 1.367 . S
C859 C867 1.433 1_566 S
C860 H856 0.929 . S
C860 C862 1.378 . S
C860 C864 1.350 1_545 S
C861 C864 1.463 . S
C861 C866 1.350 1_554 S
C861 N869 1.427 1_565 S
C862 H853 0.930 . S
C862 C860 1.378 . S
C862 C863 1.367 1_545 S
C863 C862 1.367 1_565 S
C863 C865 1.433 . S
C864 C860 1.350 1_565 S
C864 C861 1.463 . S
C864 N868 1.422 1_554 S
C865 H855 0.929 1_554 S
C865 C863 1.433 . S
C865 N868 1.382 1_554 S
C866 H857 0.929 . S
C866 C858 1.378 . S
C866 C861 1.350 1_556 S
C867 H854 0.929 . S
C867 C859 1.433 1_544 S
C867 N869 1.384 . S
N868 C864 1.422 1_556 S
N868 C865 1.382 1_556 S
N869 C861 1.427 1_545 S
N869 C867 1.384 . S
H870 C876 0.930 . S
H871 C880 0.930 . S
H872 C885 0.929 . S
H873 C883 0.929 . S
H874 C878 0.929 . S
H875 C884 0.929 . S
C876 H870 0.930 . S
C876 C877 1.367 . S
C876 C884 1.378 . S
C877 C876 1.367 . S
C877 C885 1.433 . S
C878 H874 0.929 . S
C878 C880 1.378 . S
C878 C882 1.350 . S
C879 C882 1.463 . S
C879 C884 1.350 . S
C879 N887 1.427 . S
C880 H871 0.930 . S
C880 C878 1.378 . S
C880 C881 1.367 . S
C881 C880 1.367 . S
C881 C883 1.433 . S
C882 C878 1.350 . S
C882 C879 1.463 . S
C882 N886 1.427 . S
C883 H873 0.929 . S
C883 C881 1.433 . S
C883 N886 1.384 . S
C884 H875 0.929 . S
C884 C876 1.378 . S
C884 C879 1.350 . S
C885 H872 0.929 . S
C885 C877 1.433 . S
C885 N887 1.384 . S
N886 C882 1.427 . S
N886 C883 1.384 . S
N887 C879 1.427 . S
N887 C885 1.384 . S
H888 C894 0.930 1_556 S
H889 C898 0.930 . S
H890 C903 0.929 . S
H891 C901 0.929 . S
H892 C896 0.929 . S
H893 C902 0.929 1_556 S
C894 H888 0.930 1_554 S
C894 C895 1.367 . S
C894 C902 1.378 . S
C895 C894 1.367 . S
C895 C903 1.433 . S
C896 H892 0.929 . S
C896 C898 1.378 . S
C896 C900 1.350 . S
C897 C900 1.463 . S
C897 C902 1.350 . S
C897 N905 1.427 . S
C898 H889 0.930 . S
C898 C896 1.378 . S
C898 C899 1.367 . S
C899 C898 1.367 . S
C899 C901 1.433 1_554 S
C900 C896 1.350 . S
C900 C897 1.463 . S
C900 N904 1.427 . S
C901 H891 0.929 . S
C901 C899 1.433 1_556 S
C901 N904 1.384 1_556 S
C902 H893 0.929 1_554 S
C902 C894 1.378 . S
C902 C897 1.350 . S
C903 H890 0.929 . S
C903 C895 1.433 . S
C903 N905 1.384 . S
N904 C900 1.427 . S
N904 C901 1.384 1_554 S
N905 C897 1.427 . S
N905 C903 1.384 . S
H906 C912 0.930 . S
H907 C916 0.930 . S
H908 C921 0.929 . S
H909 C919 0.929 . S
H910 C914 0.929 . S
H911 C920 0.929 . S
C912 H906 0.930 . S
C912 C913 1.367 . S
C912 C920 1.378 . S
C913 C912 1.367 . S
C913 C921 1.433 . S
C914 H910 0.929 . S
C914 C916 1.378 . S
C914 C918 1.350 . S
C915 C918 1.463 . S
C915 C920 1.350 . S
C915 N923 1.427 . S
C916 H907 0.930 . S
C916 C914 1.378 . S
C916 C917 1.367 . S
C917 C916 1.367 . S
C917 C919 1.433 . S
C918 C914 1.350 . S
C918 C915 1.463 . S
C918 N922 1.427 . S
C919 H909 0.929 . S
C919 C917 1.433 . S
C919 N922 1.384 . S
C920 H911 0.929 . S
C920 C912 1.378 . S
C920 C915 1.350 . S
C921 H908 0.929 . S
C921 C913 1.433 . S
C921 N923 1.384 . S
N922 C918 1.427 . S
N922 C919 1.384 . S
N923 C915 1.427 . S
N923 C921 1.384 . S
H924 C930 0.930 . S
H925 C934 0.930 . S
H926 C939 0.929 . S
H927 C937 0.929 . S
H928 C932 0.929 . S
H929 C938 0.929 . S
C930 H924 0.930 . S
C930 C931 1.367 1_554 S
C930 C938 1.378 . S
C931 C930 1.367 1_556 S
C931 C939 1.433 1_655 S
C932 H928 0.929 . S
C932 C934 1.378 . S
C932 C936 1.350 . S
C933 C936 1.467 . S
C933 C938 1.331 1_456 S
C933 N941 1.444 . S
C934 H925 0.930 . S
C934 C932 1.378 . S
C934 C935 1.367 . S
C935 C934 1.367 . S
C935 C937 1.433 1_456 S
C936 C932 1.350 . S
C936 C933 1.467 . S
C936 N940 1.427 1_456 S
C937 H927 0.929 . S
C937 C935 1.433 1_654 S
C937 N940 1.384 . S
C938 H929 0.929 . S
C938 C930 1.378 . S
C938 C933 1.331 1_654 S
C939 H926 0.929 . S
C939 C931 1.433 1_455 S
C939 N941 1.384 . S
N940 C936 1.427 1_654 S
N940 C937 1.384 . S
N941 C933 1.444 . S
N941 C939 1.384 . S
H942 C948 0.930 . S
H943 C952 0.930 . S
H944 C957 0.929 . S
H945 C955 0.929 1_556 S
H946 C950 0.929 . S
H947 C956 0.946 . S
C948 H942 0.930 . S
C948 C949 1.367 . S
C948 C956 1.378 . S
C949 C948 1.367 . S
C949 C957 1.433 . S
C950 H946 0.929 . S
C950 C952 1.378 . S
C950 C954 1.350 . S
C951 C954 1.463 . S
C951 C956 1.350 . S
C951 N959 1.427 . S
C952 H943 0.930 . S
C952 C950 1.378 . S
C952 C953 1.367 . S
C953 C952 1.367 . S
C953 C955 1.433 . S
C954 C950 1.350 . S
C954 C951 1.463 . S
C954 N958 1.427 . S
C955 H945 0.929 1_554 S
C955 C953 1.433 . S
C955 N958 1.384 . S
C956 H947 0.946 . S
C956 C948 1.378 . S
C956 C951 1.350 . S
C957 H944 0.929 . S
C957 C949 1.433 . S
C957 N959 1.384 . S
N958 C954 1.427 . S
N958 C955 1.384 . S
N959 C951 1.427 . S
N959 C957 1.384 . S
H960 C966 0.930 . S
H961 C970 0.930 1_655 S
H962 C975 0.929 . S
H963 C973 0.929 . S
H964 C968 0.929 . S
H965 C974 0.929 . S
C966 H960 0.930 . S
C966 C967 1.367 . S
C966 C974 1.378 . S
C967 C966 1.367 . S
C967 C975 1.433 . S
C968 H964 0.929 . S
C968 C970 1.378 . S
C968 C972 1.350 . S
C969 C972 1.463 . S
C969 C974 1.350 . S
C969 N977 1.427 . S
C970 H961 0.930 1_455 S
C970 C968 1.378 . S
C970 C971 1.367 . S
C971 C970 1.367 . S
C971 C973 1.433 . S
C972 C968 1.350 . S
C972 C969 1.463 . S
C972 N976 1.427 . S
C973 H963 0.929 . S
C973 C971 1.433 . S
C973 N976 1.384 . S
C974 H965 0.929 . S
C974 C966 1.378 . S
C974 C969 1.350 . S
C975 H962 0.929 . S
C975 C967 1.433 . S
C975 N977 1.384 . S
N976 C972 1.427 . S
N976 C973 1.384 . S
N977 C969 1.427 . S
N977 C975 1.384 . S
H978 C984 0.930 . S
H979 C988 0.930 . S
H980 C993 0.929 . S
H981 C991 0.929 . S
H982 C986 0.929 . S
H983 C992 0.929 . S
C984 H978 0.930 . S
C984 C985 1.367 . S
C984 C992 1.378 . S
C985 C984 1.367 . S
C985 C993 1.433 . S
C986 H982 0.929 . S
C986 C988 1.378 . S
C986 C990 1.350 . S
C987 C990 1.463 . S
C987 C992 1.350 . S
C987 N995 1.427 . S
C988 H979 0.930 . S
C988 C986 1.378 . S
C988 C989 1.367 . S
C989 C988 1.367 . S
C989 C991 1.433 . S
C990 C986 1.350 . S
C990 C987 1.463 . S
C990 N994 1.427 . S
C991 H981 0.929 . S
C991 C989 1.433 . S
C991 N994 1.384 . S
C992 H983 0.929 . S
C992 C984 1.378 . S
C992 C987 1.350 . S
C993 H980 0.929 . S
C993 C985 1.433 . S
C993 N995 1.384 . S
N994 C990 1.427 . S
N994 C991 1.384 . S
N995 C987 1.427 . S
N995 C993 1.384 . S
C571 C1 1.518 . S
C575 C483 1.435 . S
C589 C80 1.497 . S
C593 C517 1.418 . S
C611 C529 1.399 . S
C607 C140 1.484 . S
C625 C211 1.498 . S
C629 C563 1.417 . S
C647 C520 1.415 . S
C643 C31 1.502 . S
C665 C500 1.414 . S
C661 C61 1.495 . S
C683 C547 1.401 . S
C679 C151 1.468 . S
C701 C538 1.426 . S
C697 C200 1.503 . S
C715 C20 1.514 . S
C719 C546 1.430 . S
C737 C508 1.406 . S
C733 C121 1.484 . S
C751 C181 1.497 . S
C755 C484 1.411 . S
C769 C91 1.499 . S
C773 C541 1.415 . S
C791 C499 1.628 . S
C787 C260 1.724 . S
C805 C320 1.649 . S
C809 C521 1.619 . S
C823 C361 1.751 . S
C827 C526 1.641 . S
C841 C451 1.678 . S
C845 C559 1.657 . S
C859 C271 1.729 . S
C863 C504 1.640 . S
C881 C496 1.654 . S
C877 C301 1.665 . S
C899 C550 1.653 . S
C895 C380 1.747 . S
C917 C542 1.617 . S
C913 C440 1.641 . S
C931 C241 1.713 . S
C935 C562 1.603 . S
C953 C505 1.637 . S
C949 C391 1.753 . S
C971 C487 1.617 . S
C967 C421 1.638 . S
C985 C331 1.649 . S
C989 C525 1.626 . S
