# Generated by pormake.
# Topology pto, (3,4)-cn, num edge types: 1
# Building blocks:
#     Node 0, Type 0, BuildingBlock: BETDIP_clean_linker_0, # of connection points: 3
#     Node 1, Type 0, BuildingBlock: BETDIP_clean_linker_0, # of connection points: 3
#     Node 2, Type 0, BuildingBlock: BETDIP_clean_linker_0, # of connection points: 3
#     Node 3, Type 0, BuildingBlock: BETDIP_clean_linker_0, # of connection points: 3
#     Node 4, Type 0, BuildingBlock: BETDIP_clean_linker_0, # of connection points: 3
#     Node 5, Type 0, BuildingBlock: BETDIP_clean_linker_0, # of connection points: 3
#     Node 6, Type 0, BuildingBlock: BETDIP_clean_linker_0, # of connection points: 3
#     Node 7, Type 0, BuildingBlock: BETDIP_clean_linker_0, # of connection points: 3
#     Node 8, Type 1, BuildingBlock: NAWXER_clean_sbu_0, # of connection points: 4
#     Node 9, Type 1, BuildingBlock: NAWXER_clean_sbu_0, # of connection points: 4
#     Node 10, Type 1, BuildingBlock: NAWXER_clean_sbu_0, # of connection points: 4
#     Node 11, Type 1, BuildingBlock: NAWXER_clean_sbu_0, # of connection points: 4
#     Node 12, Type 1, BuildingBlock: NAWXER_clean_sbu_0, # of connection points: 4
#     Node 13, Type 1, BuildingBlock: NAWXER_clean_sbu_0, # of connection points: 4
#     Edge 14, Type (0, 1), BuildingBlock: EYOCIG_clean_linker_4, # of connection points: 2
#     Edge 15, Type (0, 1), BuildingBlock: EYOCIG_clean_linker_4, # of connection points: 2
#     Edge 16, Type (0, 1), BuildingBlock: EYOCIG_clean_linker_4, # of connection points: 2
#     Edge 17, Type (0, 1), BuildingBlock: EYOCIG_clean_linker_4, # of connection points: 2
#     Edge 18, Type (0, 1), BuildingBlock: EYOCIG_clean_linker_4, # of connection points: 2
#     Edge 19, Type (0, 1), BuildingBlock: EYOCIG_clean_linker_4, # of connection points: 2
#     Edge 20, Type (0, 1), BuildingBlock: EYOCIG_clean_linker_4, # of connection points: 2
#     Edge 21, Type (0, 1), BuildingBlock: EYOCIG_clean_linker_4, # of connection points: 2
#     Edge 22, Type (0, 1), BuildingBlock: EYOCIG_clean_linker_4, # of connection points: 2
#     Edge 23, Type (0, 1), BuildingBlock: EYOCIG_clean_linker_4, # of connection points: 2
#     Edge 24, Type (0, 1), BuildingBlock: EYOCIG_clean_linker_4, # of connection points: 2
#     Edge 25, Type (0, 1), BuildingBlock: EYOCIG_clean_linker_4, # of connection points: 2
#     Edge 26, Type (0, 1), BuildingBlock: EYOCIG_clean_linker_4, # of connection points: 2
#     Edge 27, Type (0, 1), BuildingBlock: EYOCIG_clean_linker_4, # of connection points: 2
#     Edge 28, Type (0, 1), BuildingBlock: EYOCIG_clean_linker_4, # of connection points: 2
#     Edge 29, Type (0, 1), BuildingBlock: EYOCIG_clean_linker_4, # of connection points: 2
#     Edge 30, Type (0, 1), BuildingBlock: EYOCIG_clean_linker_4, # of connection points: 2
#     Edge 31, Type (0, 1), BuildingBlock: EYOCIG_clean_linker_4, # of connection points: 2
#     Edge 32, Type (0, 1), BuildingBlock: EYOCIG_clean_linker_4, # of connection points: 2
#     Edge 33, Type (0, 1), BuildingBlock: EYOCIG_clean_linker_4, # of connection points: 2
#     Edge 34, Type (0, 1), BuildingBlock: EYOCIG_clean_linker_4, # of connection points: 2
#     Edge 35, Type (0, 1), BuildingBlock: EYOCIG_clean_linker_4, # of connection points: 2
#     Edge 36, Type (0, 1), BuildingBlock: EYOCIG_clean_linker_4, # of connection points: 2
#     Edge 37, Type (0, 1), BuildingBlock: EYOCIG_clean_linker_4, # of connection points: 2
# Relax obj value: 0.017
# Max RMSD: 0.142
# Mean RMSD: 0.061
data_MOF--net-pto--node1-NAWXER_clean_sbu_0--node2-BETDIP_clean_linker_0--edge1-EYOCIG_clean_linker_4
_symmetry_space_group_name_H-M    P1
_symmetry_Int_Tables_number       1
_symmetry_cell_setting            triclinic
loop_
_symmetry_equiv_pos_as_xyz
'x, y, z'
_cell_length_a     33.046334
_cell_length_b     31.551489
_cell_length_c     29.925519
_cell_angle_alpha  100.88278
_cell_angle_beta   101.8362
_cell_angle_gamma 103.07363
loop_
_atom_site_label
_atom_site_type_symbol
_atom_site_fract_x
_atom_site_fract_y
_atom_site_fract_z
_atom_type_partial_charge
H0 H 0.1882 0.32989 0.32117 0.0
H1 H 0.30389 0.29939 0.29721 0.0
H2 H 0.25548 0.39541 0.23348 0.0
H3 H 0.26996 0.23133 0.307 0.0
C4 C 0.25143 0.23826 0.33211 0.0
C5 C 0.21491 0.33505 0.30505 0.0
C6 C 0.21841 0.36503 0.27628 0.0
C7 C 0.24459 0.31007 0.3116 0.0
C8 C 0.27966 0.3172 0.29108 0.0
C9 C 0.28393 0.34859 0.26346 0.0
C10 C 0.25274 0.37172 0.25543 0.0
N11 N 0.23728 0.27753 0.33802 0.0
H12 H 0.21069 0.70393 0.66597 0.0
H13 H 0.34152 0.78479 0.69298 0.0
H14 H 0.3048 0.71314 0.79269 0.0
H15 H 0.31365 0.82312 0.64905 0.0
C16 C 0.28231 0.80359 0.6267 0.0
C17 C 0.24379 0.71527 0.68701 0.0
C18 C 0.25478 0.70386 0.7301 0.0
C19 C 0.2745 0.74529 0.67342 0.0
C20 C 0.31699 0.76169 0.70227 0.0
C21 C 0.32754 0.7503 0.74525 0.0
C22 C 0.29682 0.72056 0.75849 0.0
N23 N 0.26027 0.76243 0.63415 0.0
H24 H 0.77514 0.75688 0.21185 0.0
H25 H 0.83728 0.7981 0.36084 0.0
H26 H 0.75361 0.86989 0.29919 0.0
H27 H 0.88778 0.766 0.33557 0.0
C28 C 0.86979 0.73854 0.30527 0.0
C29 C 0.78111 0.77928 0.24625 0.0
C30 C 0.7617 0.8143 0.25132 0.0
C31 C 0.80939 0.77375 0.28512 0.0
C32 C 0.81662 0.80269 0.33009 0.0
C33 C 0.796 0.83719 0.33518 0.0
C34 C 0.76916 0.84304 0.29554 0.0
N35 N 0.82987 0.739 0.27714 0.0
H36 H 0.70361 0.26114 0.84019 0.0
H37 H 0.77738 0.39534 0.91932 0.0
H38 H 0.8319 0.31556 0.82873 0.0
H39 H 0.7376 0.37922 0.97097 0.0
C40 C 0.70589 0.36254 0.94758 0.0
C41 C 0.73293 0.28839 0.85025 0.0
C42 C 0.76743 0.28357 0.83049 0.0
C43 C 0.73639 0.3282 0.88352 0.0
C44 C 0.77448 0.36375 0.89546 0.0
C45 C 0.80883 0.3591 0.87591 0.0
C46 C 0.80526 0.31901 0.8438 0.0
N47 N 0.7012 0.33215 0.90367 0.0
H48 H 0.79086 0.77312 0.87202 0.0
H49 H 0.85282 0.81378 0.7673 0.0
H50 H 0.7432 0.85808 0.79048 0.0
H51 H 0.87388 0.74786 0.76864 0.0
C52 C 0.87778 0.7455 0.80488 0.0
C53 C 0.79249 0.79065 0.84427 0.0
C54 C 0.76328 0.81531 0.83336 0.0
C55 C 0.82419 0.78865 0.81988 0.0
C56 C 0.8273 0.81313 0.785 0.0
C57 C 0.79803 0.83844 0.77462 0.0
C58 C 0.76567 0.83848 0.79822 0.0
N59 N 0.85318 0.76337 0.83321 0.0
H60 H 0.68937 0.32663 0.37407 0.0
H61 H 0.82718 0.34764 0.40431 0.0
H62 H 0.76435 0.40663 0.30249 0.0
H63 H 0.81524 0.28686 0.43027 0.0
C64 C 0.78485 0.28086 0.4396 0.0
C65 C 0.72032 0.34154 0.36858 0.0
C66 C 0.72285 0.36853 0.33624 0.0
C67 C 0.75754 0.3325 0.39282 0.0
C68 C 0.79772 0.35258 0.38543 0.0
C69 C 0.79989 0.37891 0.35256 0.0
C70 C 0.76254 0.38664 0.32821 0.0
N71 N 0.75304 0.302 0.42255 0.0
H72 H 0.15889 0.30698 0.76649 0.0
H73 H 0.27445 0.27085 0.821 0.0
H74 H 0.25199 0.39132 0.8921 0.0
H75 H 0.2645 0.23917 0.74364 0.0
C76 C 0.22993 0.22663 0.72943 0.0
C77 C 0.18911 0.31376 0.79268 0.0
C78 C 0.2026 0.35206 0.83006 0.0
C79 C 0.2152 0.28471 0.78828 0.0
C80 C 0.25435 0.29353 0.8228 0.0
C81 C 0.2675 0.3322 0.86004 0.0
C82 C 0.24165 0.36128 0.86336 0.0
N83 N 0.20155 0.24774 0.7483 0.0
H84 H 0.31094 0.85764 0.22703 0.0
H85 H 0.2734 0.71788 0.15305 0.0
H86 H 0.21792 0.76165 0.26492 0.0
H87 H 0.3411 0.73623 0.14276 0.0
C88 C 0.3464 0.77054 0.13936 0.0
C89 C 0.29281 0.82317 0.22254 0.0
C90 C 0.26439 0.81302 0.24996 0.0
C91 C 0.29743 0.78887 0.18862 0.0
C92 C 0.27226 0.74444 0.18114 0.0
C93 C 0.24377 0.73493 0.20888 0.0
C94 C 0.24067 0.769 0.24399 0.0
N95 N 0.32685 0.80061 0.16194 0.0
C96 C 0.96213 0.47954 0.27466 0.0
C97 C 0.08213 0.5838 0.22482 0.0
O98 O 0.9935 0.50793 0.30554 0.0
Zn99 Zn 0.04373 0.55287 0.2983 0.0
O100 O 0.95947 0.47524 0.23097 0.0
Zn101 Zn 1.0011 0.51177 0.20204 0.0
O102 O 0.04306 0.47462 0.21369 0.0
O103 O 0.07544 0.50663 0.2889 0.0
O104 O 0.05106 0.55601 0.1929 0.0
O105 O 0.08387 0.58758 0.26813 0.0
O106 O 0.00626 0.59338 0.28855 0.0
O107 O 0.97295 0.56216 0.21345 0.0
C108 C 0.07117 0.478 0.25113 0.0
C109 C 0.97897 0.5917 0.25123 0.0
C110 C 0.98935 0.50795 0.88538 0.0
C111 C 0.11332 0.60995 0.83653 0.0
O112 O 0.01983 0.53649 0.91773 0.0
Zn113 Zn 0.07308 0.58308 0.91322 0.0
O114 O 0.98907 0.50447 0.84238 0.0
Zn115 Zn 0.03589 0.54551 0.82689 0.0
O116 O 0.07267 0.50506 0.83562 0.0
O117 O 0.10575 0.53579 0.91061 0.0
O118 O 0.08138 0.58214 0.80586 0.0
O119 O 0.11535 0.61541 0.88028 0.0
O120 O 0.03664 0.62684 0.90575 0.0
O121 O 0.00563 0.59283 0.83105 0.0
C122 C 0.09991 0.50649 0.87262 0.0
C123 C 0.00987 0.62335 0.8671 0.0
C124 C 0.21493 0.94813 0.51987 0.0
C125 C 0.20371 0.0673 0.42497 0.0
O126 O 0.17814 0.94918 0.49786 0.0
Zn127 Zn 0.15744 0.98919 0.45807 0.0
O128 O 0.24899 0.97727 0.52141 0.0
Zn129 Zn 0.25134 0.0264 0.48872 0.0
O130 O 0.22973 0.06208 0.5358 0.0
O131 O 0.15878 0.03503 0.51449 0.0
O132 O 0.24048 0.06703 0.44777 0.0
O133 O 0.16949 0.03957 0.42553 0.0
O134 O 0.16825 0.94975 0.40449 0.0
O135 O 0.23891 0.97899 0.43032 0.0
C136 C 0.19299 0.06267 0.54168 0.0
C137 C 0.20612 0.9515 0.40086 0.0
C138 C 0.61944 0.83939 0.07375 0.0
C139 C 0.49855 0.82508 0.92546 0.0
O140 O 0.59705 0.80079 0.04887 0.0
Zn141 Zn 0.55157 0.79402 0.99182 0.0
O142 O 0.6129 0.87489 0.06325 0.0
Zn143 Zn 0.57056 0.88581 0.00952 0.0
O144 O 0.5276 0.88398 0.04814 0.0
O145 O 0.51368 0.81004 0.03173 0.0
O146 O 0.52064 0.86395 0.95016 0.0
O147 O 0.5059 0.78992 0.93594 0.0
O148 O 0.59631 0.80913 0.95762 0.0
O149 O 0.61302 0.88303 0.97027 0.0
C150 C 0.50705 0.84598 0.05149 0.0
C151 C 0.61801 0.84535 0.95208 0.0
C152 C 0.78445 0.98791 0.64435 0.0
C153 C 0.77453 0.10912 0.54333 0.0
O154 O 0.74777 0.98875 0.62153 0.0
Zn155 Zn 0.73996 0.03262 0.58037 0.0
O156 O 0.81823 0.01597 0.64322 0.0
Zn157 Zn 0.81974 0.06316 0.60561 0.0
O158 O 0.81273 0.10783 0.66023 0.0
O159 O 0.74224 0.08111 0.63783 0.0
O160 O 0.8109 0.1073 0.56575 0.0
O161 O 0.74037 0.08079 0.54339 0.0
O162 O 0.75207 0.99043 0.52668 0.0
O163 O 0.82253 0.01755 0.54925 0.0
C164 C 0.7759 0.10919 0.66591 0.0
C165 C 0.78899 0.98963 0.52089 0.0
C166 C 0.56466 0.4082 0.18589 0.0
C167 C 0.44144 0.40012 0.04023 0.0
O168 O 0.5403 0.37175 0.15833 0.0
Zn169 Zn 0.49836 0.38208 0.10782 0.0
O170 O 0.55937 0.44556 0.17907 0.0
Zn171 Zn 0.51393 0.45496 0.12457 0.0
O172 O 0.4667 0.44073 0.16136 0.0
O173 O 0.45406 0.36732 0.14184 0.0
O174 O 0.46303 0.4395 0.06461 0.0
O175 O 0.45075 0.36615 0.05141 0.0
O176 O 0.53574 0.37056 0.06595 0.0
O177 O 0.55473 0.44418 0.0804 0.0
C178 C 0.44598 0.40185 0.16303 0.0
C179 C 0.55848 0.40624 0.06029 0.0
C180 C 0.15898 0.40772 0.26071 0.0
C181 C 0.18626 0.38843 0.26758 0.0
C182 C 0.12699 0.43034 0.25388 0.0
C183 C 0.10064 0.45111 0.2505 0.0
C184 C 0.19925 0.66524 0.77198 0.0
C185 C 0.22232 0.6823 0.75017 0.0
C186 C 0.17306 0.64888 0.80011 0.0
C187 C 0.14802 0.63327 0.82076 0.0
C188 C 0.90905 0.67907 0.2744 0.0
C189 C 0.89069 0.70578 0.28829 0.0
C190 C 0.93181 0.64812 0.26079 0.0
C191 C 0.95204 0.62139 0.25359 0.0
C192 C 0.88155 0.42398 0.89552 0.0
C193 C 0.84781 0.3956 0.88788 0.0
C194 C 0.92108 0.45536 0.89935 0.0
C195 C 0.95349 0.48065 0.89673 0.0
C196 C 0.21843 0.17094 0.36578 0.0
C197 C 0.23296 0.20244 0.3512 0.0
C198 C 0.20578 0.13311 0.38319 0.0
C199 C 0.20112 0.10182 0.40085 0.0
C200 C 0.39966 0.79166 0.81071 0.0
C201 C 0.36756 0.77405 0.77929 0.0
C202 C 0.4351 0.80978 0.85037 0.0
C203 C 0.46456 0.82025 0.88506 0.0
C204 C 0.8003 0.89434 0.41448 0.0
C205 C 0.80067 0.86675 0.38045 0.0
C206 C 0.79666 0.92752 0.45177 0.0
C207 C 0.79295 0.95574 0.4832 0.0
C208 C 0.64273 0.38122 0.98341 0.0
C209 C 0.66932 0.37066 0.96428 0.0
C210 C 0.61388 0.39442 0.00922 0.0
C211 C 0.58959 0.40295 0.03287 0.0
C212 C 0.24231 0.84995 0.57789 0.0
C213 C 0.2591 0.82651 0.59827 0.0
C214 C 0.22703 0.88147 0.5568 0.0
C215 C 0.21882 0.91075 0.53921 0.0
C216 C 0.71021 0.82982 0.18027 0.0
C217 C 0.7339 0.82133 0.21145 0.0
C218 C 0.68068 0.83892 0.14483 0.0
C219 C 0.65358 0.84242 0.11325 0.0
C220 C 0.76588 0.21052 0.76746 0.0
C221 C 0.76475 0.24284 0.79619 0.0
C222 C 0.76893 0.17417 0.73288 0.0
C223 C 0.77204 0.14454 0.70235 0.0
C224 C 0.35002 0.37069 0.22692 0.0
C225 C 0.32081 0.35908 0.24448 0.0
C226 C 0.38389 0.38576 0.20629 0.0
C227 C 0.41254 0.39611 0.18755 0.0
C228 C 0.92896 0.69874 0.83804 0.0
C229 C 0.90524 0.71975 0.82308 0.0
C230 C 0.95799 0.6746 0.85362 0.0
C231 C 0.9829 0.65299 0.86319 0.0
C232 C 0.86935 0.41394 0.32684 0.0
C233 C 0.83963 0.39672 0.34105 0.0
C234 C 0.90126 0.43473 0.30671 0.0
C235 C 0.92806 0.45422 0.29012 0.0
C236 C 0.16 0.41161 0.84529 0.0
C237 C 0.17706 0.3827 0.8354 0.0
C238 C 0.14183 0.44617 0.85981 0.0
C239 C 0.12468 0.47503 0.86966 0.0
C240 C 0.18524 0.66068 0.19912 0.0
C241 C 0.21384 0.69182 0.19924 0.0
C242 C 0.14885 0.63119 0.20434 0.0
C243 C 0.11773 0.60893 0.21214 0.0
C244 C 0.79877 0.89335 0.71776 0.0
C245 C 0.80158 0.86728 0.74246 0.0
C246 C 0.79307 0.92576 0.69164 0.0
C247 C 0.7883 0.95376 0.66983 0.0
C248 C 0.65721 0.38776 0.28473 0.0
C249 C 0.68523 0.37737 0.30957 0.0
C250 C 0.626 0.3996 0.25297 0.0
C251 C 0.59896 0.40653 0.22346 0.0
C252 C 0.20246 0.16283 0.65101 0.0
C253 C 0.21353 0.19226 0.68651 0.0
C254 C 0.19385 0.12735 0.61124 0.0
C255 C 0.19078 0.09691 0.57882 0.0
C256 C 0.41049 0.80785 0.10808 0.0
C257 C 0.38105 0.78917 0.12121 0.0
C258 C 0.44491 0.82888 0.09222 0.0
C259 C 0.47384 0.84174 0.07531 0.0
C260 C 0.77193 0.21356 0.48134 0.0
C261 C 0.77536 0.24488 0.46296 0.0
C262 C 0.77118 0.17647 0.50221 0.0
C263 C 0.77202 0.14551 0.52073 0.0
C264 C 0.33949 0.35957 0.92743 0.0
C265 C 0.30771 0.34392 0.89514 0.0
C266 C 0.37541 0.37962 0.9665 0.0
C267 C 0.40589 0.39303 1.00046 0.0
C268 C 0.24381 0.87229 0.30761 0.0
C269 C 0.25541 0.84768 0.28075 0.0
C270 C 0.22634 0.89801 0.33735 0.0
C271 C 0.21343 0.92071 0.36465 0.0
C272 C 0.70568 0.82567 0.88056 0.0
C273 C 0.73246 0.81982 0.86014 0.0
C274 C 0.67539 0.83528 0.90489 0.0
C275 C 0.64992 0.84259 0.92673 0.0
loop_
_geom_bond_atom_site_label_1
_geom_bond_atom_site_label_2
_geom_bond_distance
_geom_bond_site_symmetry_2
_ccdc_geom_bond_type
H0 C5 0.930 . S
H1 C8 0.930 . S
H2 C10 0.930 . S
H3 C4 1.016 . S
C4 H3 1.016 . S
C4 N11 1.286 . S
C5 H0 0.930 . S
C5 C6 1.397 . S
C5 C7 1.361 . S
C6 C5 1.397 . S
C6 C10 1.390 . S
C7 C5 1.361 . S
C7 C8 1.393 . S
C7 N11 1.413 . S
C8 H1 0.930 . S
C8 C7 1.393 . S
C8 C9 1.399 . S
C9 C8 1.399 . S
C9 C10 1.381 . S
C10 H2 0.930 . S
C10 C6 1.390 . S
C10 C9 1.381 . S
N11 C4 1.286 . S
N11 C7 1.413 . S
H12 C17 0.930 . S
H13 C20 0.930 . S
H14 C22 0.930 . S
H15 C16 1.016 . S
C16 H15 1.016 . S
C16 N23 1.286 . S
C17 H12 0.930 . S
C17 C18 1.397 . S
C17 C19 1.361 . S
C18 C17 1.397 . S
C18 C22 1.390 . S
C19 C17 1.361 . S
C19 C20 1.393 . S
C19 N23 1.413 . S
C20 H13 0.930 . S
C20 C19 1.393 . S
C20 C21 1.399 . S
C21 C20 1.399 . S
C21 C22 1.381 . S
C22 H14 0.930 . S
C22 C18 1.390 . S
C22 C21 1.381 . S
N23 C16 1.286 . S
N23 C19 1.413 . S
H24 C29 0.930 . S
H25 C32 0.930 . S
H26 C34 0.930 . S
H27 C28 1.016 . S
C28 H27 1.016 . S
C28 N35 1.286 . S
C29 H24 0.930 . S
C29 C30 1.397 . S
C29 C31 1.361 . S
C30 C29 1.397 . S
C30 C34 1.390 . S
C31 C29 1.361 . S
C31 C32 1.393 . S
C31 N35 1.413 . S
C32 H25 0.930 . S
C32 C31 1.393 . S
C32 C33 1.399 . S
C33 C32 1.399 . S
C33 C34 1.381 . S
C34 H26 0.930 . S
C34 C30 1.390 . S
C34 C33 1.381 . S
N35 C28 1.286 . S
N35 C31 1.413 . S
H36 C41 0.930 . S
H37 C44 0.930 . S
H38 C46 0.930 . S
H39 C40 1.016 . S
C40 H39 1.016 . S
C40 N47 1.286 . S
C41 H36 0.930 . S
C41 C42 1.397 . S
C41 C43 1.361 . S
C42 C41 1.397 . S
C42 C46 1.390 . S
C43 C41 1.361 . S
C43 C44 1.393 . S
C43 N47 1.413 . S
C44 H37 0.930 . S
C44 C43 1.393 . S
C44 C45 1.399 . S
C45 C44 1.399 . S
C45 C46 1.381 . S
C46 H38 0.930 . S
C46 C42 1.390 . S
C46 C45 1.381 . S
N47 C40 1.286 . S
N47 C43 1.413 . S
H48 C53 0.930 . S
H49 C56 0.930 . S
H50 C58 0.930 . S
H51 C52 1.016 . S
C52 H51 1.016 . S
C52 N59 1.286 . S
C53 H48 0.930 . S
C53 C54 1.397 . S
C53 C55 1.361 . S
C54 C53 1.397 . S
C54 C58 1.390 . S
C55 C53 1.361 . S
C55 C56 1.393 . S
C55 N59 1.413 . S
C56 H49 0.930 . S
C56 C55 1.393 . S
C56 C57 1.399 . S
C57 C56 1.399 . S
C57 C58 1.381 . S
C58 H50 0.930 . S
C58 C54 1.390 . S
C58 C57 1.381 . S
N59 C52 1.286 . S
N59 C55 1.413 . S
H60 C65 0.930 . S
H61 C68 0.930 . S
H62 C70 0.930 . S
H63 C64 1.016 . S
C64 H63 1.016 . S
C64 N71 1.286 . S
C65 H60 0.930 . S
C65 C66 1.397 . S
C65 C67 1.361 . S
C66 C65 1.397 . S
C66 C70 1.390 . S
C67 C65 1.361 . S
C67 C68 1.393 . S
C67 N71 1.413 . S
C68 H61 0.930 . S
C68 C67 1.393 . S
C68 C69 1.399 . S
C69 C68 1.399 . S
C69 C70 1.381 . S
C70 H62 0.930 . S
C70 C66 1.390 . S
C70 C69 1.381 . S
N71 C64 1.286 . S
N71 C67 1.413 . S
H72 C77 0.930 . S
H73 C80 0.930 . S
H74 C82 0.930 . S
H75 C76 1.016 . S
C76 H75 1.016 . S
C76 N83 1.286 . S
C77 H72 0.930 . S
C77 C78 1.397 . S
C77 C79 1.361 . S
C78 C77 1.397 . S
C78 C82 1.390 . S
C79 C77 1.361 . S
C79 C80 1.393 . S
C79 N83 1.413 . S
C80 H73 0.930 . S
C80 C79 1.393 . S
C80 C81 1.399 . S
C81 C80 1.399 . S
C81 C82 1.381 . S
C82 H74 0.930 . S
C82 C78 1.390 . S
C82 C81 1.381 . S
N83 C76 1.286 . S
N83 C79 1.413 . S
H84 C89 0.930 . S
H85 C92 0.930 . S
H86 C94 0.930 . S
H87 C88 1.016 . S
C88 H87 1.016 . S
C88 N95 1.286 . S
C89 H84 0.930 . S
C89 C90 1.397 . S
C89 C91 1.361 . S
C90 C89 1.397 . S
C90 C94 1.390 . S
C91 C89 1.361 . S
C91 C92 1.393 . S
C91 N95 1.413 . S
C92 H85 0.930 . S
C92 C91 1.393 . S
C92 C93 1.399 . S
C93 C92 1.399 . S
C93 C94 1.381 . S
C94 H86 0.930 . S
C94 C90 1.390 . S
C94 C93 1.381 . S
N95 C88 1.286 . S
N95 C91 1.413 . S
C96 O98 1.247 . S
C96 O100 1.258 . S
C97 O104 1.247 . S
C97 O105 1.258 . S
O98 C96 1.247 . S
O98 Zn99 2.028 1_655 S
Zn99 O98 2.028 1_455 S
Zn99 O103 2.035 . S
Zn99 O105 2.035 . S
Zn99 O106 2.028 . S
O100 C96 1.258 . S
O100 Zn101 2.035 1_655 S
Zn101 O100 2.035 1_455 S
Zn101 O102 2.028 . S
Zn101 O104 2.028 . S
Zn101 O107 2.035 1_455 S
O102 Zn101 2.028 . S
O102 C108 1.247 . S
O103 Zn99 2.035 . S
O103 C108 1.258 . S
O104 C97 1.247 . S
O104 Zn101 2.028 . S
O105 C97 1.258 . S
O105 Zn99 2.035 . S
O106 Zn99 2.028 . S
O106 C109 1.247 1_455 S
O107 Zn101 2.035 1_655 S
O107 C109 1.258 . S
C108 O102 1.247 . S
C108 O103 1.258 . S
C109 O106 1.247 1_655 S
C109 O107 1.258 . S
C110 O112 1.247 1_655 S
C110 O114 1.258 . S
C111 O118 1.247 . S
C111 O119 1.258 . S
O112 C110 1.247 1_455 S
O112 Zn113 2.028 . S
Zn113 O112 2.028 . S
Zn113 O117 2.035 . S
Zn113 O119 2.035 . S
Zn113 O120 2.028 . S
O114 C110 1.258 . S
O114 Zn115 2.035 1_655 S
Zn115 O114 2.035 1_455 S
Zn115 O116 2.028 . S
Zn115 O118 2.028 . S
Zn115 O121 2.035 . S
O116 Zn115 2.028 . S
O116 C122 1.247 . S
O117 Zn113 2.035 . S
O117 C122 1.258 . S
O118 C111 1.247 . S
O118 Zn115 2.028 . S
O119 C111 1.258 . S
O119 Zn113 2.035 . S
O120 Zn113 2.028 . S
O120 C123 1.247 . S
O121 Zn115 2.035 . S
O121 C123 1.258 . S
C122 O116 1.247 . S
C122 O117 1.258 . S
C123 O120 1.247 . S
C123 O121 1.258 . S
C124 O126 1.247 . S
C124 O128 1.258 . S
C125 O132 1.247 . S
C125 O133 1.258 . S
O126 C124 1.247 . S
O126 Zn127 2.028 . S
Zn127 O126 2.028 . S
Zn127 O131 2.035 1_565 S
Zn127 O133 2.035 1_565 S
Zn127 O134 2.028 . S
O128 C124 1.258 . S
O128 Zn129 2.035 1_565 S
Zn129 O128 2.035 1_545 S
Zn129 O130 2.028 . S
Zn129 O132 2.028 . S
Zn129 O135 2.035 1_545 S
O130 Zn129 2.028 . S
O130 C136 1.247 . S
O131 Zn127 2.035 1_545 S
O131 C136 1.258 . S
O132 C125 1.247 . S
O132 Zn129 2.028 . S
O133 C125 1.258 . S
O133 Zn127 2.035 1_545 S
O134 Zn127 2.028 . S
O134 C137 1.247 . S
O135 Zn129 2.035 1_565 S
O135 C137 1.258 . S
C136 O130 1.247 . S
C136 O131 1.258 . S
C137 O134 1.247 . S
C137 O135 1.258 . S
C138 O140 1.247 . S
C138 O142 1.258 . S
C139 O146 1.247 . S
C139 O147 1.258 . S
O140 C138 1.247 . S
O140 Zn141 2.028 1_554 S
Zn141 O140 2.028 1_556 S
Zn141 O145 2.035 1_556 S
Zn141 O147 2.035 . S
Zn141 O148 2.028 . S
O142 C138 1.258 . S
O142 Zn143 2.035 . S
Zn143 O142 2.035 . S
Zn143 O144 2.028 . S
Zn143 O146 2.028 1_554 S
Zn143 O149 2.035 1_554 S
O144 Zn143 2.028 . S
O144 C150 1.247 . S
O145 Zn141 2.035 1_554 S
O145 C150 1.258 . S
O146 C139 1.247 . S
O146 Zn143 2.028 1_556 S
O147 C139 1.258 . S
O147 Zn141 2.035 . S
O148 Zn141 2.028 . S
O148 C151 1.247 . S
O149 Zn143 2.035 1_556 S
O149 C151 1.258 . S
C150 O144 1.247 . S
C150 O145 1.258 . S
C151 O148 1.247 . S
C151 O149 1.258 . S
C152 O154 1.247 . S
C152 O156 1.258 1_565 S
C153 O160 1.247 . S
C153 O161 1.258 . S
O154 C152 1.247 . S
O154 Zn155 2.028 1_565 S
Zn155 O154 2.028 1_545 S
Zn155 O159 2.035 . S
Zn155 O161 2.035 . S
Zn155 O162 2.028 1_545 S
O156 C152 1.258 1_545 S
O156 Zn157 2.035 . S
Zn157 O156 2.035 . S
Zn157 O158 2.028 . S
Zn157 O160 2.028 . S
Zn157 O163 2.035 . S
O158 Zn157 2.028 . S
O158 C164 1.247 . S
O159 Zn155 2.035 . S
O159 C164 1.258 . S
O160 C153 1.247 . S
O160 Zn157 2.028 . S
O161 C153 1.258 . S
O161 Zn155 2.035 . S
O162 Zn155 2.028 1_565 S
O162 C165 1.247 . S
O163 Zn157 2.035 . S
O163 C165 1.258 1_545 S
C164 O158 1.247 . S
C164 O159 1.258 . S
C165 O162 1.247 . S
C165 O163 1.258 1_565 S
C166 O168 1.247 . S
C166 O170 1.258 . S
C167 O174 1.247 . S
C167 O175 1.258 . S
O168 C166 1.247 . S
O168 Zn169 2.028 . S
Zn169 O168 2.028 . S
Zn169 O173 2.035 . S
Zn169 O175 2.035 . S
Zn169 O176 2.028 . S
O170 C166 1.258 . S
O170 Zn171 2.035 . S
Zn171 O170 2.035 . S
Zn171 O172 2.028 . S
Zn171 O174 2.028 . S
Zn171 O177 2.035 . S
O172 Zn171 2.028 . S
O172 C178 1.247 . S
O173 Zn169 2.035 . S
O173 C178 1.258 . S
O174 C167 1.247 . S
O174 Zn171 2.028 . S
O175 C167 1.258 . S
O175 Zn169 2.035 . S
O176 Zn169 2.028 . S
O176 C179 1.247 . S
O177 Zn171 2.035 . S
O177 C179 1.258 . S
C178 O172 1.247 . S
C178 O173 1.258 . S
C179 O176 1.247 . S
C179 O177 1.258 . S
C180 C181 1.170 . S
C180 C182 1.380 . S
C181 C180 1.170 . S
C182 C180 1.380 . S
C182 C183 1.170 . S
C183 C182 1.170 . S
C184 C185 1.170 . S
C184 C186 1.380 . S
C185 C184 1.170 . S
C186 C184 1.380 . S
C186 C187 1.170 . S
C187 C186 1.170 . S
C188 C189 1.170 . S
C188 C190 1.380 . S
C189 C188 1.170 . S
C190 C188 1.380 . S
C190 C191 1.170 . S
C191 C190 1.170 . S
C192 C193 1.170 . S
C192 C194 1.380 . S
C193 C192 1.170 . S
C194 C192 1.380 . S
C194 C195 1.170 . S
C195 C194 1.170 . S
C196 C197 1.170 . S
C196 C198 1.380 . S
C197 C196 1.170 . S
C198 C196 1.380 . S
C198 C199 1.170 . S
C199 C198 1.170 . S
C200 C201 1.170 . S
C200 C202 1.380 . S
C201 C200 1.170 . S
C202 C200 1.380 . S
C202 C203 1.170 . S
C203 C202 1.170 . S
C204 C205 1.170 . S
C204 C206 1.380 . S
C205 C204 1.170 . S
C206 C204 1.380 . S
C206 C207 1.170 . S
C207 C206 1.170 . S
C208 C209 1.170 . S
C208 C210 1.380 1_556 S
C209 C208 1.170 . S
C210 C208 1.380 1_554 S
C210 C211 1.170 . S
C211 C210 1.170 . S
C212 C213 1.170 . S
C212 C214 1.380 . S
C213 C212 1.170 . S
C214 C212 1.380 . S
C214 C215 1.170 . S
C215 C214 1.170 . S
C216 C217 1.170 . S
C216 C218 1.380 . S
C217 C216 1.170 . S
C218 C216 1.380 . S
C218 C219 1.170 . S
C219 C218 1.170 . S
C220 C221 1.170 . S
C220 C222 1.380 . S
C221 C220 1.170 . S
C222 C220 1.380 . S
C222 C223 1.170 . S
C223 C222 1.170 . S
C224 C225 1.170 . S
C224 C226 1.380 . S
C225 C224 1.170 . S
C226 C224 1.380 . S
C226 C227 1.170 . S
C227 C226 1.170 . S
C228 C229 1.170 . S
C228 C230 1.380 . S
C229 C228 1.170 . S
C230 C228 1.380 . S
C230 C231 1.170 . S
C231 C230 1.170 . S
C232 C233 1.170 . S
C232 C234 1.380 . S
C233 C232 1.170 . S
C234 C232 1.380 . S
C234 C235 1.170 . S
C235 C234 1.170 . S
C236 C237 1.170 . S
C236 C238 1.380 . S
C237 C236 1.170 . S
C238 C236 1.380 . S
C238 C239 1.170 . S
C239 C238 1.170 . S
C240 C241 1.170 . S
C240 C242 1.380 . S
C241 C240 1.170 . S
C242 C240 1.380 . S
C242 C243 1.170 . S
C243 C242 1.170 . S
C244 C245 1.170 . S
C244 C246 1.380 . S
C245 C244 1.170 . S
C246 C244 1.380 . S
C246 C247 1.170 . S
C247 C246 1.170 . S
C248 C249 1.170 . S
C248 C250 1.380 . S
C249 C248 1.170 . S
C250 C248 1.380 . S
C250 C251 1.170 . S
C251 C250 1.170 . S
C252 C253 1.170 . S
C252 C254 1.380 . S
C253 C252 1.170 . S
C254 C252 1.380 . S
C254 C255 1.170 . S
C255 C254 1.170 . S
C256 C257 1.170 . S
C256 C258 1.380 . S
C257 C256 1.170 . S
C258 C256 1.380 . S
C258 C259 1.170 . S
C259 C258 1.170 . S
C260 C261 1.170 . S
C260 C262 1.380 . S
C261 C260 1.170 . S
C262 C260 1.380 . S
C262 C263 1.170 . S
C263 C262 1.170 . S
C264 C265 1.170 . S
C264 C266 1.380 . S
C265 C264 1.170 . S
C266 C264 1.380 . S
C266 C267 1.169 1_556 S
C267 C266 1.169 1_554 S
C268 C269 1.170 . S
C268 C270 1.380 . S
C269 C268 1.170 . S
C270 C268 1.380 . S
C270 C271 1.170 . S
C271 C270 1.170 . S
C272 C273 1.170 . S
C272 C274 1.380 . S
C273 C272 1.170 . S
C274 C272 1.380 . S
C274 C275 1.170 . S
C275 C274 1.170 . S
C183 C108 1.567 . S
C181 C6 1.570 . S
C187 C111 1.603 . S
C185 C18 1.609 . S
C191 C109 1.518 . S
C189 C28 1.540 . S
C195 C110 1.644 . S
C193 C45 1.655 . S
C199 C125 1.455 . S
C197 C4 1.450 . S
C203 C139 1.634 . S
C201 C21 1.615 . S
C205 C33 1.641 . S
C207 C165 1.654 . S
C211 C179 1.665 . S
C209 C40 1.656 . S
C215 C124 1.559 . S
C213 C16 1.556 . S
C217 C30 1.604 . S
C219 C138 1.596 . S
C223 C164 1.625 . S
C221 C42 1.625 . S
C227 C178 1.665 . S
C225 C9 1.684 . S
C229 C52 1.651 . S
C231 C123 1.623 1_655 S
C235 C96 1.683 . S
C233 C69 1.656 . S
C237 C78 1.536 . S
C239 C122 1.534 . S
C241 C93 1.367 . S
C243 C97 1.386 . S
C247 C152 1.699 . S
C245 C57 1.675 . S
C251 C166 1.687 . S
C249 C66 1.721 . S
C255 C136 1.457 . S
C253 C76 1.456 . S
C257 C88 1.444 . S
C259 C150 1.441 . S
C263 C153 1.624 . S
C261 C64 1.610 . S
C267 C167 1.635 . S
C265 C81 1.627 . S
C271 C137 1.387 . S
C269 C90 1.365 . S
C273 C54 1.594 . S
C275 C151 1.583 . S
