# Generated by pormake.
# Topology apo, (3,6)-cn, num edge types: 1
# Building blocks:
#     Node 0, Type 0, BuildingBlock: BETDAH_clean_linker_0, # of connection points: 3
#     Node 1, Type 0, BuildingBlock: BETDAH_clean_linker_0, # of connection points: 3
#     Node 2, Type 0, BuildingBlock: BETDAH_clean_linker_0, # of connection points: 3
#     Node 3, Type 0, BuildingBlock: BETDAH_clean_linker_0, # of connection points: 3
#     Node 4, Type 0, BuildingBlock: BETDAH_clean_linker_0, # of connection points: 3
#     Node 5, Type 0, BuildingBlock: BETDAH_clean_linker_0, # of connection points: 3
#     Node 6, Type 0, BuildingBlock: BETDAH_clean_linker_0, # of connection points: 3
#     Node 7, Type 0, BuildingBlock: BETDAH_clean_linker_0, # of connection points: 3
#     Node 8, Type 1, BuildingBlock: KUMBUR_clean_sbu_1, # of connection points: 6
#     Node 9, Type 1, BuildingBlock: KUMBUR_clean_sbu_1, # of connection points: 6
#     Node 10, Type 1, BuildingBlock: KUMBUR_clean_sbu_1, # of connection points: 6
#     Node 11, Type 1, BuildingBlock: KUMBUR_clean_sbu_1, # of connection points: 6
#     Edge 12, Type (0, 1), BuildingBlock: AJUNOK_clean_linker_0, # of connection points: 2
#     Edge 13, Type (0, 1), BuildingBlock: AJUNOK_clean_linker_0, # of connection points: 2
#     Edge 14, Type (0, 1), BuildingBlock: AJUNOK_clean_linker_0, # of connection points: 2
#     Edge 15, Type (0, 1), BuildingBlock: AJUNOK_clean_linker_0, # of connection points: 2
#     Edge 16, Type (0, 1), BuildingBlock: AJUNOK_clean_linker_0, # of connection points: 2
#     Edge 17, Type (0, 1), BuildingBlock: AJUNOK_clean_linker_0, # of connection points: 2
#     Edge 18, Type (0, 1), BuildingBlock: AJUNOK_clean_linker_0, # of connection points: 2
#     Edge 19, Type (0, 1), BuildingBlock: AJUNOK_clean_linker_0, # of connection points: 2
#     Edge 20, Type (0, 1), BuildingBlock: AJUNOK_clean_linker_0, # of connection points: 2
#     Edge 21, Type (0, 1), BuildingBlock: AJUNOK_clean_linker_0, # of connection points: 2
#     Edge 22, Type (0, 1), BuildingBlock: AJUNOK_clean_linker_0, # of connection points: 2
#     Edge 23, Type (0, 1), BuildingBlock: AJUNOK_clean_linker_0, # of connection points: 2
#     Edge 24, Type (0, 1), BuildingBlock: AJUNOK_clean_linker_0, # of connection points: 2
#     Edge 25, Type (0, 1), BuildingBlock: AJUNOK_clean_linker_0, # of connection points: 2
#     Edge 26, Type (0, 1), BuildingBlock: AJUNOK_clean_linker_0, # of connection points: 2
#     Edge 27, Type (0, 1), BuildingBlock: AJUNOK_clean_linker_0, # of connection points: 2
#     Edge 28, Type (0, 1), BuildingBlock: AJUNOK_clean_linker_0, # of connection points: 2
#     Edge 29, Type (0, 1), BuildingBlock: AJUNOK_clean_linker_0, # of connection points: 2
#     Edge 30, Type (0, 1), BuildingBlock: AJUNOK_clean_linker_0, # of connection points: 2
#     Edge 31, Type (0, 1), BuildingBlock: AJUNOK_clean_linker_0, # of connection points: 2
#     Edge 32, Type (0, 1), BuildingBlock: AJUNOK_clean_linker_0, # of connection points: 2
#     Edge 33, Type (0, 1), BuildingBlock: AJUNOK_clean_linker_0, # of connection points: 2
#     Edge 34, Type (0, 1), BuildingBlock: AJUNOK_clean_linker_0, # of connection points: 2
#     Edge 35, Type (0, 1), BuildingBlock: AJUNOK_clean_linker_0, # of connection points: 2
# Relax obj value: 0.036
# Max RMSD: 0.241
# Mean RMSD: 0.167
data_MOF--net-apo--node1-KUMBUR_clean_sbu_1--node2-BETDAH_clean_linker_0--edge1-AJUNOK_clean_linker_0
_symmetry_space_group_name_H-M    P1
_symmetry_Int_Tables_number       1
_symmetry_cell_setting            triclinic
loop_
_symmetry_equiv_pos_as_xyz
'x, y, z'
_cell_length_a     20.589099
_cell_length_b     30.22685
_cell_length_c     39.416567
_cell_angle_alpha  89.713028
_cell_angle_beta   89.41086
_cell_angle_gamma 90.448452
loop_
_atom_site_label
_atom_site_type_symbol
_atom_site_fract_x
_atom_site_fract_y
_atom_site_fract_z
_atom_type_partial_charge
H0 H 0.38943 0.48211 0.4315 0.0
H1 H 0.28701 0.39579 0.36314 0.0
H2 H 0.276 0.37334 0.47102 0.0
C3 C 0.35844 0.45352 0.42735 0.0
C4 C 0.33508 0.42905 0.4553 0.0
C5 C 0.34127 0.4419 0.39407 0.0
C6 C 0.30058 0.40477 0.38869 0.0
C7 C 0.2765 0.3802 0.41675 0.0
C8 C 0.29407 0.39267 0.44963 0.0
N9 N 0.2336 0.34328 0.41388 0.0
C10 C 0.21327 0.32195 0.38455 0.0
H11 H 0.12939 0.05168 0.92898 0.0
H12 H 0.22916 0.13959 0.85916 0.0
H13 H 0.23008 0.16613 0.96637 0.0
C14 C 0.15814 0.08134 0.92435 0.0
C15 C 0.1773 0.10745 0.9518 0.0
C16 C 0.17626 0.09275 0.89096 0.0
C17 C 0.21471 0.13089 0.88485 0.0
C18 C 0.23497 0.15706 0.91243 0.0
C19 C 0.21555 0.14524 0.94546 0.0
N20 N 0.27522 0.19528 0.90886 0.0
C21 C 0.29887 0.2147 0.87907 0.0
H22 H 0.82829 0.07095 0.60346 0.0
H23 H 0.84984 0.15319 0.69198 0.0
H24 H 0.78036 0.20908 0.59973 0.0
C25 C 0.82521 0.10261 0.61592 0.0
C26 C 0.80662 0.13985 0.59672 0.0
C27 C 0.84132 0.10646 0.65057 0.0
C28 C 0.83523 0.14821 0.66595 0.0
C29 C 0.81131 0.18444 0.64798 0.0
C30 C 0.79705 0.18031 0.61352 0.0
N31 N 0.80926 0.22628 0.66382 0.0
C32 C 0.75159 0.24496 0.67511 0.0
H33 H 0.65101 0.46494 0.11572 0.0
H34 H 0.72606 0.37708 0.1919 0.0
H35 H 0.725 0.33752 0.08751 0.0
C36 C 0.67473 0.43427 0.12231 0.0
C37 C 0.68901 0.40344 0.09679 0.0
C38 C 0.68976 0.4258 0.15652 0.0
C39 C 0.71582 0.38449 0.16558 0.0
C40 C 0.72702 0.35244 0.14048 0.0
C41 C 0.71398 0.36222 0.1065 0.0
N42 N 0.74794 0.30904 0.14831 0.0
C43 C 0.7916 0.29777 0.17351 0.0
H44 H 0.62755 0.55569 0.61521 0.0
H45 H 0.74799 0.63011 0.68372 0.0
H46 H 0.75004 0.65969 0.5766 0.0
C47 C 0.66175 0.58233 0.61984 0.0
C48 C 0.68428 0.60775 0.59243 0.0
C49 C 0.68431 0.58985 0.65285 0.0
C50 C 0.72963 0.62436 0.65846 0.0
C51 C 0.75371 0.64948 0.63062 0.0
C52 C 0.73115 0.64056 0.59791 0.0
N53 N 0.80342 0.68206 0.63342 0.0
C54 C 0.82061 0.70566 0.6622 0.0
H55 H 0.89658 0.97796 0.11706 0.0
H56 H 0.76865 0.87653 0.08035 0.0
H57 H 0.77117 0.90677 0.18692 0.0
C58 C 0.86066 0.95225 0.12192 0.0
C59 C 0.83763 0.94499 0.15518 0.0
C60 C 0.83762 0.92683 0.09488 0.0
C61 C 0.7892 0.8949 0.10128 0.0
C62 C 0.76539 0.88706 0.13424 0.0
C63 C 0.79052 0.9117 0.1615 0.0
N64 N 0.71091 0.85824 0.13793 0.0
C65 C 0.6997 0.82783 0.16402 0.0
H66 H 0.14183 0.9502 0.43332 0.0
H67 H 0.28252 0.91355 0.35705 0.0
H68 H 0.28452 0.85076 0.45488 0.0
C69 C 0.18213 0.92975 0.42529 0.0
C70 C 0.20819 0.89866 0.44795 0.0
C71 C 0.2081 0.93508 0.39235 0.0
C72 C 0.26093 0.90894 0.38203 0.0
C73 C 0.28871 0.8789 0.40481 0.0
C74 C 0.26255 0.87413 0.43758 0.0
N75 N 0.34747 0.85713 0.39674 0.0
C76 C 0.35375 0.82632 0.37087 0.0
H77 H 0.3589 0.57537 0.93802 0.0
H78 H 0.19608 0.65958 0.95864 0.0
H79 H 0.22527 0.60926 0.85835 0.0
C80 C 0.31678 0.59314 0.92913 0.0
C81 C 0.29796 0.58983 0.89486 0.0
C82 C 0.28078 0.61876 0.9522 0.0
C83 C 0.22574 0.64115 0.94084 0.0
C84 C 0.20663 0.63847 0.90702 0.0
C85 C 0.24273 0.61305 0.88401 0.0
N86 N 0.14597 0.65625 0.89782 0.0
C87 C 0.14004 0.69158 0.87549 0.0
Tb88 Tb 0.09052 0.12224 0.24105 0.0
C89 C 0.83403 0.06242 0.29475 0.0
N90 N 0.85273 0.10559 0.29251 0.0
C91 C 0.75253 0.12373 0.26549 0.0
C92 C 0.77462 0.04788 0.28119 0.0
C93 C 0.81245 0.13649 0.27888 0.0
C94 C 0.73378 0.07918 0.26635 0.0
C95 C 0.85828 0.98773 0.31285 0.0
C96 C 0.87587 0.03278 0.30994 0.0
C97 C 0.79985 0.97273 0.29861 0.0
C98 C 0.75813 1.00274 0.2828 0.0
Tb99 Tb 0.95196 0.12263 0.3144 0.0
N100 N 0.93255 0.04843 0.32295 0.0
C101 C 0.89895 0.95944 0.33089 0.0
C102 C 0.96781 0.022 0.34398 0.0
C103 C 0.95311 0.97691 0.34726 0.0
H104 H 0.8268 0.17086 0.27815 0.0
H105 H 0.9827 0.95593 0.36307 0.0
H106 H 0.18265 0.03351 0.25213 0.0
H107 H 0.14902 0.2959 0.22689 0.0
H108 H 0.00605 0.03563 0.35924 0.0
H109 H 0.88725 0.92459 0.33374 0.0
H110 H 0.07666 0.23051 0.22781 0.0
H111 H 0.72105 0.14821 0.25433 0.0
H112 H 0.78589 0.93814 0.30026 0.0
H113 H 0.71292 0.99079 0.27225 0.0
H114 H 0.29808 0.01811 0.26313 0.0
H115 H 0.68764 0.06935 0.25565 0.0
H116 H 0.26658 0.28732 0.23734 0.0
N117 N 0.19606 0.10331 0.25006 0.0
C118 C 0.23943 0.13744 0.25003 0.0
C119 C 0.28214 0.05187 0.25975 0.0
C120 C 0.30608 0.13015 0.25532 0.0
C121 C 0.21656 0.06075 0.25408 0.0
C122 C 0.32708 0.08673 0.26056 0.0
N123 N 0.15188 0.1855 0.24018 0.0
C124 C 0.12759 0.22633 0.23281 0.0
C125 C 0.26002 0.21623 0.24382 0.0
C126 C 0.21681 0.17988 0.24434 0.0
C127 C 0.23501 0.25847 0.23788 0.0
C128 C 0.1686 0.26346 0.23207 0.0
H129 H 0.3779 0.07972 0.26478 0.0
H130 H 0.40087 0.16138 0.2591 0.0
H131 H 0.36051 0.23675 0.24905 0.0
O132 O 0.05676 0.13437 0.19167 0.0
O133 O 0.11323 0.16287 0.28555 0.0
O134 O 0.02015 0.17863 0.31761 0.0
O135 O 0.14401 0.09741 0.19964 0.0
O136 O 0.00442 0.16382 0.23339 0.0
O137 O 0.95299 0.1833 0.28417 0.0
O138 O 0.94466 0.11557 0.36765 0.0
O139 O 0.93461 0.10006 0.26194 0.0
O140 O 0.02721 0.06428 0.24685 0.0
O141 O 0.88347 0.16069 0.34115 0.0
O142 O 0.04977 0.09757 0.32587 0.0
O143 O 0.08201 0.06587 0.27564 0.0
C144 C 0.08146 0.18551 0.30879 0.0
C145 C 0.08595 0.08228 0.1498 0.0
C146 C 0.09063 0.06402 0.08952 0.0
C147 C 0.05416 0.02541 0.09631 0.0
C148 C 0.051 0.04313 0.15625 0.0
C149 C 0.03495 0.01495 0.12956 0.0
C150 C 0.1057 0.09255 0.11647 0.0
C151 C 0.96473 0.18892 0.25146 0.0
C152 C 0.10377 0.11249 0.17734 0.0
C153 C 0.34946 0.16629 0.25501 0.0
C154 C 0.32649 0.20922 0.24925 0.0
C155 C 0.96378 0.06705 0.24679 0.0
C156 C 0.84099 0.12872 0.39191 0.0
C157 C 0.79221 0.12241 0.4488 0.0
C158 C 0.73425 0.10737 0.43398 0.0
C159 C 0.78258 0.11367 0.37783 0.0
C160 C 0.84588 0.13224 0.42738 0.0
C161 C 0.72977 0.1028 0.39882 0.0
C162 C 0.08533 0.06905 0.30878 0.0
C163 C 0.89648 0.14278 0.37026 0.0
H164 H 0.04187 1.00287 0.07603 0.0
H165 H 0.03679 0.03425 0.18185 0.0
H166 H 0.00834 0.98463 0.13477 0.0
H167 H 0.13287 0.12283 0.11152 0.0
H168 H 0.69191 0.09978 0.44953 0.0
H169 H 0.77735 0.11077 0.35068 0.0
H170 H 0.89163 0.14274 0.43816 0.0
H171 H 0.68478 0.09141 0.38776 0.0
Tb172 Tb 0.42548 0.408 0.73675 0.0
C173 C 0.6953 0.44969 0.78113 0.0
N174 N 0.66488 0.40973 0.78364 0.0
C175 C 0.75738 0.37525 0.75756 0.0
C176 C 0.75629 0.45444 0.76493 0.0
C177 C 0.6974 0.37236 0.77448 0.0
C178 C 0.78632 0.41663 0.75205 0.0
C179 C 0.69795 0.52707 0.79695 0.0
C180 C 0.667 0.4854 0.79696 0.0
C181 C 0.75718 0.53264 0.77937 0.0
C182 C 0.78626 0.49638 0.76331 0.0
Tb183 Tb 0.56397 0.40964 0.8092 0.0
N184 N 0.60879 0.47889 0.81275 0.0
C185 C 0.66873 0.56155 0.81496 0.0
C186 C 0.58158 0.51167 0.8318 0.0
C187 C 0.61075 0.55362 0.83287 0.0
H188 H 0.67805 0.34014 0.78088 0.0
H189 H 0.58839 0.57983 0.84737 0.0
H190 H 0.30019 0.45366 0.77509 0.0
H191 H 0.45139 0.24872 0.67497 0.0
H192 H 0.53688 0.50556 0.84569 0.0
H193 H 0.69097 0.59413 0.81564 0.0
H194 H 0.47925 0.32643 0.68551 0.0
H195 H 0.78183 0.34549 0.74944 0.0
H196 H 0.78147 0.56456 0.77862 0.0
H197 H 0.83278 0.50083 0.7506 0.0
H198 H 0.19234 0.43001 0.79701 0.0
H199 H 0.83318 0.41878 0.73936 0.0
H200 H 0.35249 0.21563 0.70105 0.0
N201 N 0.32472 0.38976 0.7569 0.0
C202 C 0.30417 0.34768 0.75127 0.0
C203 C 0.22356 0.40643 0.78442 0.0
C204 C 0.24326 0.33265 0.76336 0.0
C205 C 0.28474 0.41968 0.77215 0.0
C206 C 0.20299 0.36259 0.78035 0.0
N207 N 0.40219 0.33641 0.72123 0.0
C208 C 0.43832 0.31206 0.6989 0.0
C209 C 0.32546 0.27585 0.72693 0.0
C210 C 0.34493 0.31978 0.73347 0.0
C211 C 0.36562 0.24957 0.70668 0.0
C212 C 0.42163 0.26807 0.69205 0.0
H213 H 0.15575 0.35237 0.79004 0.0
H214 H 0.17835 0.27603 0.76748 0.0
H215 H 0.2503 0.22626 0.73546 0.0
O216 O 0.38494 0.40461 0.68792 0.0
O217 O 0.40652 0.37969 0.78723 0.0
O218 O 0.50218 0.34993 0.80549 0.0
O219 O 0.38819 0.466 0.71488 0.0
O220 O 0.52049 0.37895 0.72433 0.0
O221 O 0.56269 0.35233 0.77471 0.0
O222 O 0.54986 0.41527 0.8623 0.0
O223 O 0.54812 0.46558 0.77416 0.0
O224 O 0.52215 0.43376 0.7238 0.0
O225 O 0.6301 0.37926 0.8419 0.0
O226 O 0.46849 0.43574 0.82313 0.0
O227 O 0.42249 0.46339 0.77346 0.0
C228 C 0.43872 0.34755 0.80162 0.0
C229 C 0.40585 0.46862 0.65518 0.0
C230 C 0.414 0.47474 0.59313 0.0
C231 C 0.46356 0.50653 0.59697 0.0
C232 C 0.45451 0.50118 0.65809 0.0
C233 C 0.48294 0.51995 0.62916 0.0
C234 C 0.38575 0.45554 0.62259 0.0
C235 C 0.55762 0.3514 0.74136 0.0
C236 C 0.37744 0.44711 0.68582 0.0
C237 C 0.22468 0.28843 0.75806 0.0
C238 C 0.26577 0.26005 0.73993 0.0
C239 C 0.55364 0.46379 0.7411 0.0
C240 C 0.64879 0.41802 0.89257 0.0
C241 C 0.68353 0.43458 0.95047 0.0
C242 C 0.73958 0.45534 0.93689 0.0
C243 C 0.70458 0.43973 0.87989 0.0
C244 C 0.63812 0.41589 0.9279 0.0
C245 C 0.74937 0.4584 0.90193 0.0
C246 C 0.43115 0.46399 0.80683 0.0
C247 C 0.60391 0.39542 0.86917 0.0
H248 H 0.48689 0.52144 0.57499 0.0
H249 H 0.47101 0.51204 0.6827 0.0
H250 H 0.52001 0.54517 0.63177 0.0
H251 H 0.34902 0.42989 0.62028 0.0
H252 H 0.77713 0.46815 0.95324 0.0
H253 H 0.71468 0.44122 0.85298 0.0
H254 H 0.59512 0.39913 0.93774 0.0
H255 H 0.79278 0.47433 0.89188 0.0
Tb256 Tb 0.07777 0.9054 0.7352 0.0
C257 C 0.7836 0.88994 0.79179 0.0
N258 N 0.82483 0.92504 0.79425 0.0
C259 C 0.73634 0.97488 0.78557 0.0
C260 C 0.71703 0.89589 0.78535 0.0
C261 C 0.8019 0.9672 0.79227 0.0
C262 C 0.69379 0.93905 0.78175 0.0
C263 C 0.76709 0.81049 0.79474 0.0
C264 C 0.80818 0.84788 0.79646 0.0
C265 C 0.70085 0.81611 0.78781 0.0
C266 C 0.67588 0.85872 0.78312 0.0
Tb267 Tb 0.93119 0.90855 0.80374 0.0
N268 N 0.87291 0.84374 0.80221 0.0
C269 C 0.79382 0.76867 0.8002 0.0
C270 C 0.89831 0.80329 0.80965 0.0
C271 C 0.85957 0.76513 0.80811 0.0
H272 H 0.83385 0.99478 0.79729 0.0
H273 H 0.88035 0.73304 0.81327 0.0
H274 H 0.18236 0.82846 0.76031 0.0
H275 H 0.09964 0.08321 0.72146 0.0
H276 H 0.9482 0.80015 0.81678 0.0
H277 H 0.76395 0.73905 0.79902 0.0
H278 H 0.04567 1.01092 0.71597 0.0
H279 H 0.7185 1.00839 0.78388 0.0
H280 H 0.6685 0.78777 0.78621 0.0
H281 H 0.62461 0.86259 0.77803 0.0
H282 H 0.2935 0.82659 0.78271 0.0
H283 H 0.64295 0.94506 0.77678 0.0
H284 H 0.21093 0.08779 0.74432 0.0
N285 N 0.18075 0.89862 0.75531 0.0
C286 C 0.21525 0.93704 0.75764 0.0
C287 C 0.27187 0.85791 0.77599 0.0
C288 C 0.27918 0.93744 0.77008 0.0
C289 C 0.20844 0.85918 0.76368 0.0
C290 C 0.3073 0.89721 0.77937 0.0
N291 N 0.12275 0.97475 0.73776 0.0
C292 C 0.09286 1.01233 0.72704 0.0
C293 C 0.21877 0.01699 0.75164 0.0
C294 C 0.18538 0.97635 0.74852 0.0
C295 C 0.187 0.05587 0.74228 0.0
C296 C 0.12404 0.05344 0.72958 0.0
H297 H 0.35633 0.89611 0.78905 0.0
H298 H 0.36166 0.97886 0.7829 0.0
H299 H 0.30877 0.04849 0.76679 0.0
O300 O 0.08291 0.92639 0.68432 0.0
O301 O 0.09033 0.93409 0.78615 0.0
O302 O 0.99373 0.96709 0.79948 0.0
O303 O 0.13814 0.87077 0.70117 0.0
O304 O 0.98395 0.93365 0.72084 0.0
O305 O 0.93725 0.96525 0.76838 0.0
O306 O 0.95739 0.89249 0.85383 0.0
O307 O 0.91197 0.87064 0.75728 0.0
O308 O 0.00959 0.84935 0.73193 0.0
O309 O 0.8769 0.93512 0.84425 0.0
O310 O 0.02101 0.8715 0.81434 0.0
O311 O 0.06646 0.84473 0.76457 0.0
C312 C 0.05728 0.9657 0.801 0.0
C313 C 0.10006 0.86971 0.6448 0.0
C314 C 0.10228 0.86063 0.58315 0.0
C315 C 0.05969 0.82423 0.58674 0.0
C316 C 0.05716 0.83358 0.64767 0.0
C317 C 0.03714 0.81102 0.61877 0.0
C318 C 0.12247 0.88318 0.6125 0.0
C319 C 0.94647 0.96347 0.73512 0.0
C320 C 0.12058 0.89421 0.67513 0.0
C321 C 0.31259 0.97788 0.77325 0.0
C322 C 0.28245 0.01755 0.7641 0.0
C323 C 0.94616 0.84566 0.73655 0.0
C324 C 0.93207 0.94547 0.89571 0.0
C325 C 0.93011 0.96186 0.9565 0.0
C326 C 0.96866 0.99964 0.94993 0.0
C327 C 0.96957 0.98361 0.88982 0.0
C328 C 0.91192 0.93488 0.929 0.0
C329 C 0.98791 1.01048 0.91681 0.0
C330 C 0.05406 0.84148 0.79729 0.0
C331 C 0.91235 0.91694 0.86739 0.0
H332 H 0.04465 0.80545 0.56481 0.0
H333 H 0.03943 0.82262 0.6722 0.0
H334 H 0.00437 0.78297 0.62124 0.0
H335 H 0.15519 0.91134 0.6102 0.0
H336 H 0.98379 0.02087 0.97046 0.0
H337 H 0.98384 0.99279 0.86434 0.0
H338 H 0.88093 0.90621 0.93327 0.0
H339 H 0.01666 0.04 0.91199 0.0
Tb340 Tb 0.45972 0.61783 0.22819 0.0
C341 C 0.72365 0.65966 0.28639 0.0
N342 N 0.68996 0.62083 0.28826 0.0
C343 C 0.78516 0.58187 0.26967 0.0
C344 C 0.78843 0.66139 0.27447 0.0
C345 C 0.72142 0.58185 0.28232 0.0
C346 C 0.81841 0.62189 0.26505 0.0
C347 C 0.72867 0.73787 0.29973 0.0
C348 C 0.69455 0.69735 0.2988 0.0
C349 C 0.7921 0.7403 0.28635 0.0
C350 C 0.82188 0.70213 0.27366 0.0
Tb351 Tb 0.58389 0.62619 0.30679 0.0
N352 N 0.63266 0.69393 0.3107 0.0
C353 C 0.69836 0.77436 0.31468 0.0
C354 C 0.60411 0.72857 0.32712 0.0
C355 C 0.63617 0.76948 0.32893 0.0
H356 H 0.69818 0.55039 0.28761 0.0
H357 H 0.61286 0.79721 0.34116 0.0
H358 H 0.32902 0.66053 0.26426 0.0
H359 H 0.50113 0.45806 0.17052 0.0
H360 H 0.55604 0.72473 0.33806 0.0
H361 H 0.72298 0.80611 0.31596 0.0
H362 H 0.52406 0.53664 0.18154 0.0
H363 H 0.80898 0.55092 0.26406 0.0
H364 H 0.81901 0.77124 0.28641 0.0
H365 H 0.87146 0.70419 0.26426 0.0
H366 H 0.22062 0.63451 0.28362 0.0
H367 H 0.86807 0.62175 0.25569 0.0
H368 H 0.4009 0.42309 0.19364 0.0
N369 N 0.35849 0.59716 0.24693 0.0
C370 C 0.3406 0.55452 0.24119 0.0
C371 C 0.25412 0.61161 0.27194 0.0
C372 C 0.27954 0.53816 0.25193 0.0
C373 C 0.31566 0.62619 0.26117 0.0
C374 C 0.23625 0.56728 0.26767 0.0
N375 N 0.44231 0.54505 0.21439 0.0
C376 C 0.48223 0.5213 0.19353 0.0
C377 C 0.36808 0.48292 0.2182 0.0
C378 C 0.38458 0.52735 0.22492 0.0
C379 C 0.41172 0.45736 0.1994 0.0
C380 C 0.46846 0.47692 0.18644 0.0
H381 H 0.18874 0.55603 0.27625 0.0
H382 H 0.21715 0.48014 0.25466 0.0
H383 H 0.29454 0.43177 0.22489 0.0
O384 O 0.44588 0.61135 0.17578 0.0
O385 O 0.4338 0.59089 0.27891 0.0
O386 O 0.52815 0.56446 0.30134 0.0
O387 O 0.40845 0.66764 0.20197 0.0
O388 O 0.55911 0.59263 0.22187 0.0
O389 O 0.58925 0.56682 0.27464 0.0
O390 O 0.55015 0.63409 0.35677 0.0
O391 O 0.57741 0.68147 0.27026 0.0
O392 O 0.55582 0.64818 0.21963 0.0
O393 O 0.64321 0.60526 0.34705 0.0
O394 O 0.48571 0.65349 0.31251 0.0
O395 O 0.45132 0.67774 0.25951 0.0
C396 C 0.465 0.56167 0.29724 0.0
C397 C 0.35153 0.64151 0.15327 0.0
C398 C 0.30118 0.62886 0.09829 0.0
C399 C 0.24066 0.62378 0.11457 0.0
C400 C 0.2904 0.63696 0.16905 0.0
C401 C 0.23534 0.62809 0.14975 0.0
C402 C 0.35652 0.63792 0.11772 0.0
C403 C 0.59106 0.56491 0.24128 0.0
C404 C 0.41136 0.64675 0.17319 0.0
C405 C 0.2637 0.49351 0.24641 0.0
C406 C 0.30788 0.46593 0.22957 0.0
C407 C 0.58248 0.68029 0.23711 0.0
C408 C 0.588 0.58392 0.39742 0.0
C409 C 0.59367 0.56546 0.45745 0.0
C410 C 0.55617 0.52728 0.45175 0.0
C411 C 0.55138 0.54537 0.39184 0.0
C412 C 0.60972 0.59353 0.43016 0.0
C413 C 0.53567 0.51712 0.41895 0.0
C414 C 0.45384 0.68133 0.29294 0.0
C415 C 0.6009 0.61605 0.37013 0.0
H416 H 0.19747 0.61681 0.09999 0.0
H417 H 0.28507 0.63987 0.19617 0.0
H418 H 0.18844 0.62434 0.16212 0.0
H419 H 0.40352 0.64126 0.10526 0.0
H420 H 0.54334 0.50528 0.47258 0.0
H421 H 0.53458 0.53745 0.36671 0.0
H422 H 0.63779 0.62344 0.43459 0.0
H423 H 0.50731 0.48744 0.41455 0.0
C424 C 0.17569 1.01324 0.38045 0.0
C425 C 0.181 0.96921 0.3694 0.0
C426 C 0.14669 0.04564 0.36015 0.0
C427 C 0.12166 0.03519 0.32808 0.0
H428 H 0.19363 0.02261 0.40516 0.0
H429 H 0.14289 0.07899 0.36988 0.0
S430 S 0.12074 0.92414 0.28823 0.0
N431 N 0.15804 0.91662 0.32468 0.0
N432 N 0.10235 0.97717 0.28671 0.0
C433 C 0.12719 0.99131 0.3166 0.0
C434 C 0.15712 0.95841 0.33722 0.0
C435 C 0.34776 0.51605 0.88289 0.0
C436 C 0.33217 0.55882 0.87146 0.0
C437 C 0.37892 0.48571 0.86162 0.0
C438 C 0.39539 0.49655 0.82783 0.0
H439 H 0.3351 0.50563 0.90846 0.0
H440 H 0.38979 0.45325 0.87177 0.0
S441 S 0.36849 0.60471 0.78569 0.0
N442 N 0.33801 0.61102 0.82428 0.0
N443 N 0.39553 0.55346 0.78409 0.0
C444 C 0.38005 0.53906 0.81589 0.0
C445 C 0.34873 0.57027 0.83772 0.0
C446 C 0.66745 0.51334 0.67514 0.0
C447 C 0.66127 0.55923 0.68011 0.0
C448 C 0.63415 0.48281 0.69584 0.0
C449 C 0.59367 0.49684 0.72245 0.0
H450 H 0.6961 0.501 0.65405 0.0
H451 H 0.6392 0.44794 0.69056 0.0
S452 S 0.56357 0.61295 0.74751 0.0
N453 N 0.61398 0.61714 0.71471 0.0
N454 N 0.55138 0.55943 0.75386 0.0
C455 C 0.58965 0.54243 0.72896 0.0
C456 C 0.62356 0.57371 0.70774 0.0
C457 C 0.9111 0.96026 0.2041 0.0
C458 C 0.86163 0.97443 0.18238 0.0
C459 C 0.9429 0.99028 0.2256 0.0
C460 C 0.92599 0.03533 0.22616 0.0
H461 H 0.92714 0.92623 0.2034 0.0
H462 H 0.98191 0.97837 0.24137 0.0
S463 S 0.79878 0.08851 0.17449 0.0
N464 N 0.79637 0.03598 0.16316 0.0
N465 N 0.8558 0.09227 0.20352 0.0
C466 C 0.87516 0.04947 0.20535 0.0
C467 C 0.84317 0.01904 0.1834 0.0
C468 C 0.85154 0.06465 0.70584 0.0
C469 C 0.86609 0.06794 0.67085 0.0
C470 C 0.87773 0.03125 0.72622 0.0
C471 C 0.91679 0.99773 0.71252 0.0
H472 H 0.82019 0.08852 0.71801 0.0
H473 H 0.86806 0.03265 0.75307 0.0
S474 S 0.9709 0.99039 0.62228 0.0
N475 N 0.92663 0.03556 0.62381 0.0
N476 N 0.96811 0.96966 0.66101 0.0
C477 C 0.93012 0.99959 0.67726 0.0
C478 C 0.90647 0.03514 0.65677 0.0
C479 C 0.63771 0.45067 0.21124 0.0
C480 C 0.67599 0.46041 0.18228 0.0
C481 C 0.61431 0.48469 0.23222 0.0
C482 C 0.62782 0.52933 0.2245 0.0
H483 H 0.62249 0.41694 0.21652 0.0
H484 H 0.58159 0.47626 0.25301 0.0
S485 S 0.73676 0.57144 0.1562 0.0
N486 N 0.73507 0.51735 0.15062 0.0
N487 N 0.68933 0.58098 0.18936 0.0
C488 C 0.67015 0.5391 0.1974 0.0
C489 C 0.69467 0.50468 0.17644 0.0
C490 C 0.41988 0.45683 0.34624 0.0
C491 C 0.36568 0.46997 0.36558 0.0
C492 C 0.45066 0.4863 0.32331 0.0
C493 C 0.42795 0.52976 0.3188 0.0
H494 H 0.44024 0.42424 0.34993 0.0
H495 H 0.49348 0.4754 0.30962 0.0
S496 S 0.28744 0.5799 0.36339 0.0
N497 N 0.2902 0.52889 0.37852 0.0
N498 N 0.34765 0.58411 0.33553 0.0
C499 C 0.37261 0.54271 0.33728 0.0
C500 C 0.3417 0.51288 0.36073 0.0
C501 C 0.09892 0.07435 0.8445 0.0
C502 C 0.15431 0.0635 0.86325 0.0
C503 C 0.06869 0.04291 0.8236 0.0
C504 C 0.09278 0.99956 0.82088 0.0
H505 H 0.07708 0.10664 0.84728 0.0
H506 H 0.02515 0.05221 0.8102 0.0
S507 S 0.23836 0.95563 0.86394 0.0
N508 N 0.23355 1.00741 0.87686 0.0
N509 N 0.17692 0.94821 0.83794 0.0
C510 C 0.14973 0.98903 0.83852 0.0
C511 C 0.18032 0.02099 0.8597 0.0
C512 C 0.09101 0.08528 0.99422 0.0
C513 C 0.15658 0.09553 0.98701 0.0
C514 C 0.07007 0.07462 0.02731 0.0
C515 C 0.11385 0.07426 0.05449 0.0
H516 H 0.05543 0.0863 0.9742 0.0
H517 H 0.01904 0.06741 0.03177 0.0
S518 S 0.29151 0.09471 0.04868 0.0
N519 N 0.26576 0.10168 1.00949 0.0
N520 N 0.22629 0.08237 0.07167 0.0
C521 C 0.17966 0.0837 0.04754 0.0
C522 C 0.20103 0.09421 1.01385 0.0
C523 C 0.41982 0.44546 0.49895 0.0
C524 C 0.35391 0.44108 0.49049 0.0
C525 C 0.43871 0.45561 0.53218 0.0
C526 C 0.39245 0.46216 0.55831 0.0
H527 H 0.45712 0.44033 0.47982 0.0
H528 H 0.49014 0.45804 0.53746 0.0
S529 S 0.21333 0.45818 0.5484 0.0
N530 N 0.24221 0.44605 0.51036 0.0
N531 N 0.27739 0.46605 0.57256 0.0
C532 C 0.32627 0.45853 0.54995 0.0
C533 C 0.30712 0.44784 0.51615 0.0
C534 C 0.65827 0.38123 0.03742 0.0
C535 C 0.67992 0.41416 0.05998 0.0
C536 C 0.65675 0.38868 1.00225 0.0
C537 C 0.67585 0.42963 0.98806 0.0
H538 H 0.64374 0.34891 0.04687 0.0
H539 H 0.64303 0.36143 0.98603 0.0
S540 S 0.72849 0.52897 0.03595 0.0
N541 N 0.71759 0.49042 0.06528 0.0
N542 N 0.7094 0.50535 0.99971 0.0
C543 C 0.69323 0.46385 1.01045 0.0
C544 C 0.69642 0.45596 0.04619 0.0
C545 C 0.77093 0.10019 0.54381 0.0
C546 C 0.80138 0.1369 0.55895 0.0
C547 C 0.76841 0.09578 0.50839 0.0
C548 C 0.79594 0.12796 0.48645 0.0
H549 H 0.74874 0.07456 0.55945 0.0
H550 H 0.74526 0.06653 0.49813 0.0
S551 S 0.8808 0.23079 0.51302 0.0
N552 N 0.86101 0.20569 0.54898 0.0
N553 N 0.8527 0.19872 0.48268 0.0
C554 C 0.82581 0.16513 0.50123 0.0
C555 C 0.82921 0.16933 0.53731 0.0
C556 C 0.86215 0.97789 0.04596 0.0
C557 C 0.86219 0.93489 0.05974 0.0
C558 C 0.88403 0.98617 1.01267 0.0
C559 C 0.9074 0.95185 0.99186 0.0
H560 H 0.84404 1.00527 0.06085 0.0
H561 H 0.88173 0.01973 1.00303 0.0
S562 S 0.92347 0.83403 1.01731 0.0
N563 N 0.8907 0.85798 0.05086 0.0
N564 N 0.9332 0.87356 0.98858 0.0
C565 C 0.90897 0.90881 1.00568 0.0
C566 C 0.88612 0.90036 0.0395 0.0
C567 C 0.70429 0.58668 0.53196 0.0
C568 C 0.66039 0.59854 0.55786 0.0
C569 C 0.68227 0.57591 0.49945 0.0
C570 C 0.61571 0.57651 0.49192 0.0
H571 H 0.75584 0.5851 0.53704 0.0
H572 H 0.71737 0.56666 0.48014 0.0
S573 S 0.48226 0.61092 0.54943 0.0
N574 N 0.5481 0.61391 0.57298 0.0
N575 N 0.50679 0.59327 0.51185 0.0
C576 C 0.57154 0.5893 0.51729 0.0
C577 C 0.59389 0.60041 0.55031 0.0
C578 C 0.30558 0.66074 1.00522 0.0
C579 C 0.29644 0.61987 0.98887 0.0
C580 C 0.31063 0.6632 0.04067 0.0
C581 C 0.30563 0.62494 0.06094 0.0
H582 H 0.30691 0.69113 0.99052 0.0
H583 H 0.31565 0.69536 0.05241 0.0
S584 S 0.28377 0.51001 0.03073 0.0
N585 N 0.28509 0.54024 0.99568 0.0
N586 N 0.29338 0.54506 0.06236 0.0
C587 C 0.29846 0.58384 0.04494 0.0
C588 C 0.29427 0.58124 1.00885 0.0
C589 C 0.22001 0.88895 0.511 0.0
C590 C 0.17944 0.89184 0.48252 0.0
C591 C 0.19452 0.88017 0.54354 0.0
C592 C 0.12743 0.87374 0.54893 0.0
H593 H 0.27206 0.89323 0.50812 0.0
H594 H 0.22787 0.87717 0.56449 0.0
S595 S 0.99976 0.88011 0.48331 0.0
N596 N 0.06838 0.88855 0.46214 0.0
N597 N 0.02047 0.87343 0.52336 0.0
C598 C 0.08611 0.8778 0.52087 0.0
C599 C 0.11205 0.88659 0.48772 0.0
C600 C 0.11771 0.29452 0.35335 0.0
C601 C 0.184 0.29113 0.36098 0.0
C602 C 0.08498 0.26044 0.33614 0.0
C603 C 0.11745 0.22175 0.32601 0.0
H604 H 0.09039 0.32299 0.36178 0.0
H605 H 0.0337 0.26423 0.33104 0.0
S606 S 0.291 0.1966 0.34131 0.0
N607 N 0.28093 0.24632 0.35766 0.0
N608 N 0.21984 0.18209 0.32572 0.0
C609 C 0.18417 0.21846 0.33317 0.0
C610 C 0.21732 0.25319 0.35061 0.0
C611 C 0.30415 0.28672 0.84995 0.0
C612 C 0.33005 0.2444 0.85485 0.0
C613 C 0.33926 0.31959 0.83221 0.0
C614 C 0.40161 0.31133 0.81873 0.0
H615 H 0.25756 0.29511 0.86111 0.0
H616 H 0.31827 0.35221 0.83013 0.0
S617 S 0.48899 0.20464 0.82309 0.0
N618 N 0.42021 0.19511 0.84397 0.0
N619 N 0.48603 0.25663 0.81006 0.0
C620 C 0.42707 0.26856 0.82262 0.0
C621 C 0.39124 0.23511 0.84076 0.0
C622 C 0.67188 0.25648 0.72132 0.0
C623 C 0.69655 0.26818 0.68917 0.0
C624 C 0.62436 0.28236 0.73736 0.0
C625 C 0.60076 0.32115 0.72195 0.0
H626 H 0.69086 0.22798 0.73461 0.0
H627 H 0.60776 0.27281 0.76253 0.0
S628 S 0.64702 0.36327 0.63623 0.0
N629 N 0.69179 0.31868 0.64137 0.0
N630 N 0.60271 0.36755 0.67119 0.0
C631 C 0.62304 0.33165 0.68891 0.0
C632 C 0.67124 0.30521 0.67266 0.0
C633 C 0.88391 0.2479 0.17796 0.0
C634 C 0.83965 0.27603 0.19404 0.0
C635 C 0.92599 0.22144 0.19679 0.0
C636 C 0.92527 0.22192 0.23258 0.0
H637 H 0.8846 0.24515 0.15055 0.0
H638 H 0.95758 0.19929 0.18295 0.0
S639 S 0.82114 0.29377 0.2864 0.0
N640 N 0.79915 0.30545 0.24718 0.0
N641 N 0.87903 0.25644 0.28311 0.0
C642 C 0.88289 0.25184 0.24888 0.0
C643 C 0.83972 0.27865 0.22948 0.0
C644 C 0.91256 0.73431 0.69525 0.0
C645 C 0.8476 0.73792 0.68522 0.0
C646 C 0.94396 0.7692 0.71204 0.0
C647 C 0.91151 0.80897 0.71926 0.0
H648 H 0.94 0.70493 0.68907 0.0
H649 H 0.99426 0.76513 0.71904 0.0
S650 S 0.74117 0.83488 0.69696 0.0
N651 N 0.75182 0.78392 0.68314 0.0
N652 N 0.81061 0.8498 0.7143 0.0
C653 C 0.84605 0.81255 0.70963 0.0
C654 C 0.81418 0.77694 0.69265 0.0
C655 C 0.65017 0.79553 0.21646 0.0
C656 C 0.67711 0.79012 0.18391 0.0
C657 C 0.62027 0.75971 0.23364 0.0
C658 C 0.61614 0.71735 0.21885 0.0
H659 H 0.65051 0.8278 0.2283 0.0
H660 H 0.59831 0.76567 0.25822 0.0
S661 S 0.67947 0.68697 0.13363 0.0
N662 N 0.69813 0.73993 0.13739 0.0
N663 N 0.64215 0.6728 0.16939 0.0
C664 C 0.64349 0.71184 0.18628 0.0
C665 C 0.67407 0.74818 0.16896 0.0
C666 C 0.36885 0.74688 0.36168 0.0
C667 C 0.36966 0.79008 0.34853 0.0
C668 C 0.39378 0.71156 0.34282 0.0
C669 C 0.41997 0.71819 0.31003 0.0
H670 H 0.35115 0.74057 0.38725 0.0
H671 H 0.39403 0.67895 0.35437 0.0
S672 S 0.43201 0.82538 0.26414 0.0
N673 N 0.3975 0.83791 0.30087 0.0
N674 N 0.44374 0.77136 0.26501 0.0
C675 C 0.41875 0.76113 0.29612 0.0
C676 C 0.39386 0.7972 0.31555 0.0
C677 C 0.10964 0.76973 0.87076 0.0
C678 C 0.12519 0.7297 0.85492 0.0
C679 C 0.08801 0.80601 0.85181 0.0
C680 C 0.08126 0.80346 0.81633 0.0
H681 H 0.11275 0.77271 0.89809 0.0
H682 H 0.07579 0.83609 0.86518 0.0
S683 S 0.11686 0.70513 0.76324 0.0
N684 N 0.13359 0.68904 0.80228 0.0
N685 N 0.09294 0.75699 0.76629 0.0
C686 C 0.09815 0.76352 0.80023 0.0
C687 C 0.12006 0.72663 0.81966 0.0
loop_
_geom_bond_atom_site_label_1
_geom_bond_atom_site_label_2
_geom_bond_distance
_geom_bond_site_symmetry_2
_ccdc_geom_bond_type
H0 C3 0.929 . S
H1 C6 0.929 . S
H2 C8 0.930 . S
C3 H0 0.929 . S
C3 C4 1.398 . S
C3 C5 1.396 . S
C4 C3 1.398 . S
C4 C8 1.407 . S
C5 C3 1.396 . S
C5 C6 1.394 . S
C6 H1 0.929 . S
C6 C5 1.394 . S
C6 C7 1.382 . S
C7 C6 1.382 . S
C7 C8 1.392 . S
C7 N9 1.420 . S
C8 H2 0.930 . S
C8 C4 1.407 . S
C8 C7 1.392 . S
N9 C7 1.420 . S
N9 C10 1.244 . S
C10 N9 1.244 . S
H11 C14 0.929 . S
H12 C17 0.929 . S
H13 C19 0.930 . S
C14 H11 0.929 . S
C14 C15 1.398 . S
C14 C16 1.396 . S
C15 C14 1.398 . S
C15 C19 1.407 . S
C16 C14 1.396 . S
C16 C17 1.394 . S
C17 H12 0.929 . S
C17 C16 1.394 . S
C17 C18 1.382 . S
C18 C17 1.382 . S
C18 C19 1.392 . S
C18 N20 1.420 . S
C19 H13 0.930 . S
C19 C15 1.407 . S
C19 C18 1.392 . S
N20 C18 1.420 . S
N20 C21 1.244 . S
C21 N20 1.244 . S
H22 C25 0.929 . S
H23 C28 0.929 . S
H24 C30 0.930 . S
C25 H22 0.929 . S
C25 C26 1.398 . S
C25 C27 1.396 . S
C26 C25 1.398 . S
C26 C30 1.407 . S
C27 C25 1.396 . S
C27 C28 1.394 . S
C28 H23 0.929 . S
C28 C27 1.394 . S
C28 C29 1.382 . S
C29 C28 1.382 . S
C29 C30 1.392 . S
C29 N31 1.420 . S
C30 H24 0.930 . S
C30 C26 1.407 . S
C30 C29 1.392 . S
N31 C29 1.420 . S
N31 C32 1.244 . S
C32 N31 1.244 . S
H33 C36 0.929 . S
H34 C39 0.929 . S
H35 C41 0.930 . S
C36 H33 0.929 . S
C36 C37 1.398 . S
C36 C38 1.396 . S
C37 C36 1.398 . S
C37 C41 1.407 . S
C38 C36 1.396 . S
C38 C39 1.394 . S
C39 H34 0.929 . S
C39 C38 1.394 . S
C39 C40 1.382 . S
C40 C39 1.382 . S
C40 C41 1.392 . S
C40 N42 1.420 . S
C41 H35 0.930 . S
C41 C37 1.407 . S
C41 C40 1.392 . S
N42 C40 1.420 . S
N42 C43 1.244 . S
C43 N42 1.244 . S
H44 C47 0.929 . S
H45 C50 0.929 . S
H46 C52 0.930 . S
C47 H44 0.929 . S
C47 C48 1.398 . S
C47 C49 1.396 . S
C48 C47 1.398 . S
C48 C52 1.407 . S
C49 C47 1.396 . S
C49 C50 1.394 . S
C50 H45 0.929 . S
C50 C49 1.394 . S
C50 C51 1.382 . S
C51 C50 1.382 . S
C51 C52 1.392 . S
C51 N53 1.420 . S
C52 H46 0.930 . S
C52 C48 1.407 . S
C52 C51 1.392 . S
N53 C51 1.420 . S
N53 C54 1.244 . S
C54 N53 1.244 . S
H55 C58 0.929 . S
H56 C61 0.929 . S
H57 C63 0.930 . S
C58 H55 0.929 . S
C58 C59 1.398 . S
C58 C60 1.396 . S
C59 C58 1.398 . S
C59 C63 1.407 . S
C60 C58 1.396 . S
C60 C61 1.394 . S
C61 H56 0.929 . S
C61 C60 1.394 . S
C61 C62 1.382 . S
C62 C61 1.382 . S
C62 C63 1.392 . S
C62 N64 1.420 . S
C63 H57 0.930 . S
C63 C59 1.407 . S
C63 C62 1.392 . S
N64 C62 1.420 . S
N64 C65 1.244 . S
C65 N64 1.244 . S
H66 C69 0.929 . S
H67 C72 0.929 . S
H68 C74 0.930 . S
C69 H66 0.929 . S
C69 C70 1.398 . S
C69 C71 1.396 . S
C70 C69 1.398 . S
C70 C74 1.407 . S
C71 C69 1.396 . S
C71 C72 1.394 . S
C72 H67 0.929 . S
C72 C71 1.394 . S
C72 C73 1.382 . S
C73 C72 1.382 . S
C73 C74 1.392 . S
C73 N75 1.420 . S
C74 H68 0.930 . S
C74 C70 1.407 . S
C74 C73 1.392 . S
N75 C73 1.420 . S
N75 C76 1.244 . S
C76 N75 1.244 . S
H77 C80 0.929 . S
H78 C83 0.929 . S
H79 C85 0.930 . S
C80 H77 0.929 . S
C80 C81 1.398 . S
C80 C82 1.396 . S
C81 C80 1.398 . S
C81 C85 1.407 . S
C82 C80 1.396 . S
C82 C83 1.394 . S
C83 H78 0.929 . S
C83 C82 1.394 . S
C83 C84 1.382 . S
C84 C83 1.382 . S
C84 C85 1.392 . S
C84 N86 1.420 . S
C85 H79 0.930 . S
C85 C81 1.407 . S
C85 C84 1.392 . S
N86 C84 1.420 . S
N86 C87 1.244 . S
C87 N86 1.244 . S
Tb88 N117 2.617 . S
Tb88 N123 2.572 . S
Tb88 O132 2.465 . S
Tb88 O133 2.387 . S
Tb88 O135 2.428 . S
Tb88 O136 2.308 . S
Tb88 O140 2.349 . S
Tb88 O143 2.393 . S
Tb88 C152 2.802 . S
C89 N90 1.379 . S
C89 C92 1.416 . S
C89 C96 1.424 . S
N90 C89 1.379 . S
N90 C93 1.334 . S
N90 Tb99 2.617 . S
C91 C93 1.390 . S
C91 C94 1.339 . S
C91 H111 0.930 . S
C92 C89 1.416 . S
C92 C94 1.416 . S
C92 C98 1.448 . S
C93 N90 1.334 . S
C93 C91 1.390 . S
C93 H104 0.930 . S
C94 C91 1.339 . S
C94 C92 1.416 . S
C94 H115 0.930 . S
C95 C96 1.413 1_565 S
C95 C97 1.427 . S
C95 C101 1.416 . S
C96 C89 1.424 . S
C96 C95 1.413 1_545 S
C96 N100 1.361 . S
C97 C95 1.427 . S
C97 C98 1.328 1_565 S
C97 H112 0.929 . S
C98 C92 1.448 . S
C98 C97 1.328 1_545 S
C98 H113 0.930 . S
Tb99 N90 2.617 . S
Tb99 N100 2.572 . S
Tb99 O134 2.349 1_655 S
Tb99 O137 2.393 . S
Tb99 O138 2.465 . S
Tb99 O139 2.387 . S
Tb99 O141 2.428 . S
Tb99 O142 2.308 1_655 S
Tb99 C163 2.802 . S
N100 C96 1.361 . S
N100 Tb99 2.572 . S
N100 C102 1.340 1_545 S
C101 C95 1.416 . S
C101 C103 1.332 . S
C101 H109 0.931 . S
C102 N100 1.340 1_565 S
C102 C103 1.407 . S
C102 H108 0.930 . S
C103 C101 1.332 . S
C103 C102 1.407 . S
C103 H105 0.929 . S
H104 C93 0.930 . S
H105 C103 0.929 . S
H106 C121 0.930 . S
H107 C128 0.929 . S
H108 C102 0.930 . S
H109 C101 0.931 . S
H110 C124 0.930 . S
H111 C91 0.930 . S
H112 C97 0.929 . S
H113 C98 0.930 . S
H114 C119 0.930 . S
H115 C94 0.930 . S
H116 C127 0.931 . S
N117 Tb88 2.617 . S
N117 C118 1.379 . S
N117 C121 1.334 . S
C118 N117 1.379 . S
C118 C120 1.416 . S
C118 C126 1.424 . S
C119 H114 0.930 . S
C119 C121 1.390 . S
C119 C122 1.339 . S
C120 C118 1.416 . S
C120 C122 1.416 . S
C120 C153 1.448 . S
C121 H106 0.930 . S
C121 N117 1.334 . S
C121 C119 1.390 . S
C122 C119 1.339 . S
C122 C120 1.416 . S
C122 H129 0.930 . S
N123 Tb88 2.572 . S
N123 C124 1.340 . S
N123 C126 1.361 . S
C124 H110 0.930 . S
C124 N123 1.340 . S
C124 C128 1.407 . S
C125 C126 1.413 . S
C125 C127 1.416 . S
C125 C154 1.427 . S
C126 C118 1.424 . S
C126 N123 1.361 . S
C126 C125 1.413 . S
C127 H116 0.931 . S
C127 C125 1.416 . S
C127 C128 1.332 . S
C128 H107 0.929 . S
C128 C124 1.407 . S
C128 C127 1.332 . S
H129 C122 0.930 . S
H130 C153 0.930 . S
H131 C154 0.929 . S
O132 Tb88 2.465 . S
O132 C152 1.264 . S
O133 Tb88 2.387 . S
O133 C144 1.264 . S
O134 Tb99 2.349 1_455 S
O134 C144 1.243 . S
O135 Tb88 2.428 . S
O135 C152 1.256 . S
O136 Tb88 2.308 . S
O136 C151 1.266 1_455 S
O137 Tb99 2.393 . S
O137 C151 1.248 . S
O138 Tb99 2.465 . S
O138 C163 1.264 . S
O139 Tb99 2.387 . S
O139 C155 1.264 . S
O140 Tb88 2.349 . S
O140 C155 1.243 1_455 S
O141 Tb99 2.428 . S
O141 C163 1.256 . S
O142 Tb99 2.308 1_455 S
O142 C162 1.266 . S
O143 Tb88 2.393 . S
O143 C162 1.248 . S
C144 O133 1.264 . S
C144 O134 1.243 . S
C145 C148 1.399 . S
C145 C150 1.383 . S
C145 C152 1.496 . S
C146 C147 1.399 . S
C146 C150 1.389 . S
C147 C146 1.399 . S
C147 C149 1.380 . S
C147 H164 0.929 . S
C148 C145 1.399 . S
C148 C149 1.392 . S
C148 H165 0.929 . S
C149 C147 1.380 . S
C149 C148 1.392 . S
C149 H166 0.929 . S
C150 C145 1.383 . S
C150 C146 1.389 . S
C150 H167 0.931 . S
C151 O136 1.266 1_655 S
C151 O137 1.248 . S
C152 Tb88 2.802 . S
C152 O132 1.264 . S
C152 O135 1.256 . S
C152 C145 1.496 . S
C153 C120 1.448 . S
C153 H130 0.930 . S
C153 C154 1.328 . S
C154 C125 1.427 . S
C154 H131 0.929 . S
C154 C153 1.328 . S
C155 O139 1.264 . S
C155 O140 1.243 1_655 S
C156 C159 1.399 . S
C156 C160 1.383 . S
C156 C163 1.496 . S
C157 C158 1.399 . S
C157 C160 1.389 . S
C158 C157 1.399 . S
C158 C161 1.380 . S
C158 H168 0.929 . S
C159 C156 1.399 . S
C159 C161 1.392 . S
C159 H169 0.929 . S
C160 C156 1.383 . S
C160 C157 1.389 . S
C160 H170 0.931 . S
C161 C158 1.380 . S
C161 C159 1.392 . S
C161 H171 0.929 . S
C162 O142 1.266 . S
C162 O143 1.248 . S
C163 Tb99 2.802 . S
C163 O138 1.264 . S
C163 O141 1.256 . S
C163 C156 1.496 . S
H164 C147 0.929 . S
H165 C148 0.929 . S
H166 C149 0.929 . S
H167 C150 0.931 . S
H168 C158 0.929 . S
H169 C159 0.929 . S
H170 C160 0.931 . S
H171 C161 0.929 . S
Tb172 N201 2.617 . S
Tb172 N207 2.572 . S
Tb172 O216 2.465 . S
Tb172 O217 2.387 . S
Tb172 O219 2.428 . S
Tb172 O220 2.308 . S
Tb172 O224 2.349 . S
Tb172 O227 2.393 . S
Tb172 C236 2.802 . S
C173 N174 1.379 . S
C173 C176 1.416 . S
C173 C180 1.424 . S
N174 C173 1.379 . S
N174 C177 1.334 . S
N174 Tb183 2.617 . S
C175 C177 1.390 . S
C175 C178 1.339 . S
C175 H195 0.930 . S
C176 C173 1.416 . S
C176 C178 1.416 . S
C176 C182 1.448 . S
C177 N174 1.334 . S
C177 C175 1.390 . S
C177 H188 0.930 . S
C178 C175 1.339 . S
C178 C176 1.416 . S
C178 H199 0.930 . S
C179 C180 1.413 . S
C179 C181 1.427 . S
C179 C185 1.416 . S
C180 C173 1.424 . S
C180 C179 1.413 . S
C180 N184 1.361 . S
C181 C179 1.427 . S
C181 C182 1.328 . S
C181 H196 0.929 . S
C182 C176 1.448 . S
C182 C181 1.328 . S
C182 H197 0.930 . S
Tb183 N174 2.617 . S
Tb183 N184 2.572 . S
Tb183 O218 2.349 . S
Tb183 O221 2.393 . S
Tb183 O222 2.465 . S
Tb183 O223 2.387 . S
Tb183 O225 2.428 . S
Tb183 O226 2.308 . S
Tb183 C247 2.802 . S
N184 C180 1.361 . S
N184 Tb183 2.572 . S
N184 C186 1.340 . S
C185 C179 1.416 . S
C185 C187 1.332 . S
C185 H193 0.931 . S
C186 N184 1.340 . S
C186 C187 1.407 . S
C186 H192 0.930 . S
C187 C185 1.332 . S
C187 C186 1.407 . S
C187 H189 0.929 . S
H188 C177 0.930 . S
H189 C187 0.929 . S
H190 C205 0.930 . S
H191 C212 0.929 . S
H192 C186 0.930 . S
H193 C185 0.931 . S
H194 C208 0.930 . S
H195 C175 0.930 . S
H196 C181 0.929 . S
H197 C182 0.930 . S
H198 C203 0.930 . S
H199 C178 0.930 . S
H200 C211 0.931 . S
N201 Tb172 2.617 . S
N201 C202 1.379 . S
N201 C205 1.334 . S
C202 N201 1.379 . S
C202 C204 1.416 . S
C202 C210 1.424 . S
C203 H198 0.930 . S
C203 C205 1.390 . S
C203 C206 1.339 . S
C204 C202 1.416 . S
C204 C206 1.416 . S
C204 C237 1.448 . S
C205 H190 0.930 . S
C205 N201 1.334 . S
C205 C203 1.390 . S
C206 C203 1.339 . S
C206 C204 1.416 . S
C206 H213 0.930 . S
N207 Tb172 2.572 . S
N207 C208 1.340 . S
N207 C210 1.361 . S
C208 H194 0.930 . S
C208 N207 1.340 . S
C208 C212 1.407 . S
C209 C210 1.413 . S
C209 C211 1.416 . S
C209 C238 1.427 . S
C210 C202 1.424 . S
C210 N207 1.361 . S
C210 C209 1.413 . S
C211 H200 0.931 . S
C211 C209 1.416 . S
C211 C212 1.332 . S
C212 H191 0.929 . S
C212 C208 1.407 . S
C212 C211 1.332 . S
H213 C206 0.930 . S
H214 C237 0.930 . S
H215 C238 0.929 . S
O216 Tb172 2.465 . S
O216 C236 1.264 . S
O217 Tb172 2.387 . S
O217 C228 1.264 . S
O218 Tb183 2.349 . S
O218 C228 1.243 . S
O219 Tb172 2.428 . S
O219 C236 1.256 . S
O220 Tb172 2.308 . S
O220 C235 1.266 . S
O221 Tb183 2.393 . S
O221 C235 1.248 . S
O222 Tb183 2.465 . S
O222 C247 1.264 . S
O223 Tb183 2.387 . S
O223 C239 1.264 . S
O224 Tb172 2.349 . S
O224 C239 1.243 . S
O225 Tb183 2.428 . S
O225 C247 1.256 . S
O226 Tb183 2.308 . S
O226 C246 1.266 . S
O227 Tb172 2.393 . S
O227 C246 1.248 . S
C228 O217 1.264 . S
C228 O218 1.243 . S
C229 C232 1.399 . S
C229 C234 1.383 . S
C229 C236 1.496 . S
C230 C231 1.399 . S
C230 C234 1.389 . S
C231 C230 1.399 . S
C231 C233 1.380 . S
C231 H248 0.929 . S
C232 C229 1.399 . S
C232 C233 1.392 . S
C232 H249 0.929 . S
C233 C231 1.380 . S
C233 C232 1.392 . S
C233 H250 0.929 . S
C234 C229 1.383 . S
C234 C230 1.389 . S
C234 H251 0.931 . S
C235 O220 1.266 . S
C235 O221 1.248 . S
C236 Tb172 2.802 . S
C236 O216 1.264 . S
C236 O219 1.256 . S
C236 C229 1.496 . S
C237 C204 1.448 . S
C237 H214 0.930 . S
C237 C238 1.328 . S
C238 C209 1.427 . S
C238 H215 0.929 . S
C238 C237 1.328 . S
C239 O223 1.264 . S
C239 O224 1.243 . S
C240 C243 1.399 . S
C240 C244 1.383 . S
C240 C247 1.496 . S
C241 C242 1.399 . S
C241 C244 1.389 . S
C242 C241 1.399 . S
C242 C245 1.380 . S
C242 H252 0.929 . S
C243 C240 1.399 . S
C243 C245 1.392 . S
C243 H253 0.929 . S
C244 C240 1.383 . S
C244 C241 1.389 . S
C244 H254 0.931 . S
C245 C242 1.380 . S
C245 C243 1.392 . S
C245 H255 0.929 . S
C246 O226 1.266 . S
C246 O227 1.248 . S
C247 Tb183 2.802 . S
C247 O222 1.264 . S
C247 O225 1.256 . S
C247 C240 1.496 . S
H248 C231 0.929 . S
H249 C232 0.929 . S
H250 C233 0.929 . S
H251 C234 0.931 . S
H252 C242 0.929 . S
H253 C243 0.929 . S
H254 C244 0.931 . S
H255 C245 0.929 . S
Tb256 N285 2.617 . S
Tb256 N291 2.572 . S
Tb256 O300 2.465 . S
Tb256 O301 2.387 . S
Tb256 O303 2.428 . S
Tb256 O304 2.299 1_455 S
Tb256 O308 2.349 1_455 S
Tb256 O311 2.393 . S
Tb256 C320 2.802 . S
C257 N258 1.379 . S
C257 C260 1.416 . S
C257 C264 1.424 . S
N258 C257 1.379 . S
N258 C261 1.334 . S
N258 Tb267 2.617 . S
C259 C261 1.390 . S
C259 C262 1.339 . S
C259 H279 0.930 . S
C260 C257 1.416 . S
C260 C262 1.416 . S
C260 C266 1.448 . S
C261 N258 1.334 . S
C261 C259 1.390 . S
C261 H272 0.930 . S
C262 C259 1.339 . S
C262 C260 1.416 . S
C262 H283 0.930 . S
C263 C264 1.413 . S
C263 C265 1.427 . S
C263 C269 1.416 . S
C264 C257 1.424 . S
C264 C263 1.413 . S
C264 N268 1.361 . S
C265 C263 1.427 . S
C265 C266 1.328 . S
C265 H280 0.929 . S
C266 C260 1.448 . S
C266 C265 1.328 . S
C266 H281 0.930 . S
Tb267 N258 2.617 . S
Tb267 N268 2.572 . S
Tb267 O302 2.349 1_655 S
Tb267 O305 2.393 . S
Tb267 O306 2.465 . S
Tb267 O307 2.387 . S
Tb267 O309 2.428 . S
Tb267 O310 2.308 1_655 S
Tb267 C331 2.802 . S
N268 C264 1.361 . S
N268 Tb267 2.572 . S
N268 C270 1.340 . S
C269 C263 1.416 . S
C269 C271 1.332 . S
C269 H277 0.931 . S
C270 N268 1.340 . S
C270 C271 1.407 . S
C270 H276 0.930 . S
C271 C269 1.332 . S
C271 C270 1.407 . S
C271 H273 0.929 . S
H272 C261 0.930 . S
H273 C271 0.929 . S
H274 C289 0.930 . S
H275 C296 0.929 . S
H276 C270 0.930 . S
H277 C269 0.931 . S
H278 C292 0.930 . S
H279 C259 0.930 . S
H280 C265 0.929 . S
H281 C266 0.930 . S
H282 C287 0.930 . S
H283 C262 0.930 . S
H284 C295 0.931 . S
N285 Tb256 2.617 . S
N285 C286 1.379 . S
N285 C289 1.334 . S
C286 N285 1.379 . S
C286 C288 1.416 . S
C286 C294 1.424 . S
C287 H282 0.930 . S
C287 C289 1.390 . S
C287 C290 1.339 . S
C288 C286 1.416 . S
C288 C290 1.416 . S
C288 C321 1.448 . S
C289 H274 0.930 . S
C289 N285 1.334 . S
C289 C287 1.390 . S
C290 C287 1.339 . S
C290 C288 1.416 . S
C290 H297 0.930 . S
N291 Tb256 2.572 . S
N291 C292 1.340 1_565 S
N291 C294 1.361 . S
C292 H278 0.930 . S
C292 N291 1.340 1_545 S
C292 C296 1.407 . S
C293 C294 1.413 1_545 S
C293 C295 1.416 . S
C293 C322 1.427 . S
C294 C286 1.424 . S
C294 N291 1.361 . S
C294 C293 1.413 1_565 S
C295 H284 0.931 . S
C295 C293 1.416 . S
C295 C296 1.332 . S
C296 H275 0.929 . S
C296 C292 1.407 . S
C296 C295 1.332 . S
H297 C290 0.930 . S
H298 C321 0.930 . S
H299 C322 0.929 . S
O300 Tb256 2.465 . S
O300 C320 1.264 . S
O301 Tb256 2.387 . S
O301 C312 1.264 . S
O302 Tb267 2.349 1_455 S
O302 C312 1.243 . S
O303 Tb256 2.428 . S
O303 C320 1.256 . S
O304 Tb256 2.299 1_655 S
O304 C319 1.277 . S
O305 Tb267 2.393 . S
O305 C319 1.248 . S
O306 Tb267 2.465 . S
O306 C331 1.264 . S
O307 Tb267 2.387 . S
O307 C323 1.264 . S
O308 Tb256 2.349 1_655 S
O308 C323 1.243 . S
O309 Tb267 2.428 . S
O309 C331 1.256 . S
O310 Tb267 2.308 1_455 S
O310 C330 1.266 . S
O311 Tb256 2.393 . S
O311 C330 1.248 . S
C312 O301 1.264 . S
C312 O302 1.243 . S
C313 C316 1.399 . S
C313 C318 1.383 . S
C313 C320 1.496 . S
C314 C315 1.399 . S
C314 C318 1.389 . S
C315 C314 1.399 . S
C315 C317 1.380 . S
C315 H332 0.929 . S
C316 C313 1.399 . S
C316 C317 1.392 . S
C316 H333 0.929 . S
C317 C315 1.380 . S
C317 C316 1.392 . S
C317 H334 0.929 . S
C318 C313 1.383 . S
C318 C314 1.389 . S
C318 H335 0.931 . S
C319 O304 1.277 . S
C319 O305 1.248 . S
C320 Tb256 2.802 . S
C320 O300 1.264 . S
C320 O303 1.256 . S
C320 C313 1.496 . S
C321 C288 1.448 . S
C321 H298 0.930 . S
C321 C322 1.328 1_565 S
C322 C293 1.427 . S
C322 H299 0.929 . S
C322 C321 1.328 1_545 S
C323 O307 1.264 . S
C323 O308 1.243 . S
C324 C327 1.399 . S
C324 C328 1.383 . S
C324 C331 1.496 . S
C325 C326 1.399 . S
C325 C328 1.389 . S
C326 C325 1.399 . S
C326 C329 1.380 . S
C326 H336 0.929 . S
C327 C324 1.399 . S
C327 C329 1.392 . S
C327 H337 0.929 . S
C328 C324 1.383 . S
C328 C325 1.389 . S
C328 H338 0.931 . S
C329 C326 1.380 . S
C329 C327 1.392 . S
C329 H339 0.929 . S
C330 O310 1.266 . S
C330 O311 1.248 . S
C331 Tb267 2.802 . S
C331 O306 1.264 . S
C331 O309 1.256 . S
C331 C324 1.496 . S
H332 C315 0.929 . S
H333 C316 0.929 . S
H334 C317 0.929 . S
H335 C318 0.931 . S
H336 C326 0.929 . S
H337 C327 0.929 . S
H338 C328 0.931 . S
H339 C329 0.929 . S
Tb340 N369 2.617 . S
Tb340 N375 2.572 . S
Tb340 O384 2.465 . S
Tb340 O385 2.387 . S
Tb340 O387 2.428 . S
Tb340 O388 2.308 . S
Tb340 O392 2.349 . S
Tb340 O395 2.393 . S
Tb340 C404 2.802 . S
C341 N342 1.379 . S
C341 C344 1.416 . S
C341 C348 1.424 . S
N342 C341 1.379 . S
N342 C345 1.334 . S
N342 Tb351 2.617 . S
C343 C345 1.390 . S
C343 C346 1.339 . S
C343 H363 0.930 . S
C344 C341 1.416 . S
C344 C346 1.416 . S
C344 C350 1.448 . S
C345 N342 1.334 . S
C345 C343 1.390 . S
C345 H356 0.930 . S
C346 C343 1.339 . S
C346 C344 1.416 . S
C346 H367 0.930 . S
C347 C348 1.413 . S
C347 C349 1.427 . S
C347 C353 1.416 . S
C348 C341 1.424 . S
C348 C347 1.413 . S
C348 N352 1.361 . S
C349 C347 1.427 . S
C349 C350 1.328 . S
C349 H364 0.929 . S
C350 C344 1.448 . S
C350 C349 1.328 . S
C350 H365 0.930 . S
Tb351 N342 2.617 . S
Tb351 N352 2.572 . S
Tb351 O386 2.349 . S
Tb351 O389 2.393 . S
Tb351 O390 2.465 . S
Tb351 O391 2.387 . S
Tb351 O393 2.428 . S
Tb351 O394 2.308 . S
Tb351 C415 2.802 . S
N352 C348 1.361 . S
N352 Tb351 2.572 . S
N352 C354 1.340 . S
C353 C347 1.416 . S
C353 C355 1.332 . S
C353 H361 0.931 . S
C354 N352 1.340 . S
C354 C355 1.407 . S
C354 H360 0.930 . S
C355 C353 1.332 . S
C355 C354 1.407 . S
C355 H357 0.929 . S
H356 C345 0.930 . S
H357 C355 0.929 . S
H358 C373 0.930 . S
H359 C380 0.929 . S
H360 C354 0.930 . S
H361 C353 0.931 . S
H362 C376 0.930 . S
H363 C343 0.930 . S
H364 C349 0.929 . S
H365 C350 0.930 . S
H366 C371 0.930 . S
H367 C346 0.930 . S
H368 C379 0.931 . S
N369 Tb340 2.617 . S
N369 C370 1.379 . S
N369 C373 1.334 . S
C370 N369 1.379 . S
C370 C372 1.416 . S
C370 C378 1.424 . S
C371 H366 0.930 . S
C371 C373 1.390 . S
C371 C374 1.339 . S
C372 C370 1.416 . S
C372 C374 1.416 . S
C372 C405 1.448 . S
C373 H358 0.930 . S
C373 N369 1.334 . S
C373 C371 1.390 . S
C374 C371 1.339 . S
C374 C372 1.416 . S
C374 H381 0.930 . S
N375 Tb340 2.572 . S
N375 C376 1.340 . S
N375 C378 1.361 . S
C376 H362 0.930 . S
C376 N375 1.340 . S
C376 C380 1.407 . S
C377 C378 1.413 . S
C377 C379 1.416 . S
C377 C406 1.427 . S
C378 C370 1.424 . S
C378 N375 1.361 . S
C378 C377 1.413 . S
C379 H368 0.931 . S
C379 C377 1.416 . S
C379 C380 1.332 . S
C380 H359 0.929 . S
C380 C376 1.407 . S
C380 C379 1.332 . S
H381 C374 0.930 . S
H382 C405 0.930 . S
H383 C406 0.929 . S
O384 Tb340 2.465 . S
O384 C404 1.264 . S
O385 Tb340 2.387 . S
O385 C396 1.264 . S
O386 Tb351 2.349 . S
O386 C396 1.243 . S
O387 Tb340 2.428 . S
O387 C404 1.256 . S
O388 Tb340 2.308 . S
O388 C403 1.266 . S
O389 Tb351 2.393 . S
O389 C403 1.248 . S
O390 Tb351 2.465 . S
O390 C415 1.264 . S
O391 Tb351 2.387 . S
O391 C407 1.264 . S
O392 Tb340 2.349 . S
O392 C407 1.243 . S
O393 Tb351 2.428 . S
O393 C415 1.256 . S
O394 Tb351 2.308 . S
O394 C414 1.266 . S
O395 Tb340 2.393 . S
O395 C414 1.248 . S
C396 O385 1.264 . S
C396 O386 1.243 . S
C397 C400 1.399 . S
C397 C402 1.383 . S
C397 C404 1.496 . S
C398 C399 1.399 . S
C398 C402 1.389 . S
C399 C398 1.399 . S
C399 C401 1.380 . S
C399 H416 0.929 . S
C400 C397 1.399 . S
C400 C401 1.392 . S
C400 H417 0.929 . S
C401 C399 1.380 . S
C401 C400 1.392 . S
C401 H418 0.929 . S
C402 C397 1.383 . S
C402 C398 1.389 . S
C402 H419 0.931 . S
C403 O388 1.266 . S
C403 O389 1.248 . S
C404 Tb340 2.802 . S
C404 O384 1.264 . S
C404 O387 1.256 . S
C404 C397 1.496 . S
C405 C372 1.448 . S
C405 H382 0.930 . S
C405 C406 1.328 . S
C406 C377 1.427 . S
C406 H383 0.929 . S
C406 C405 1.328 . S
C407 O391 1.264 . S
C407 O392 1.243 . S
C408 C411 1.399 . S
C408 C412 1.383 . S
C408 C415 1.496 . S
C409 C410 1.399 . S
C409 C412 1.389 . S
C410 C409 1.399 . S
C410 C413 1.380 . S
C410 H420 0.929 . S
C411 C408 1.399 . S
C411 C413 1.392 . S
C411 H421 0.929 . S
C412 C408 1.383 . S
C412 C409 1.389 . S
C412 H422 0.931 . S
C413 C410 1.380 . S
C413 C411 1.392 . S
C413 H423 0.929 . S
C414 O394 1.266 . S
C414 O395 1.248 . S
C415 Tb351 2.802 . S
C415 O390 1.264 . S
C415 O393 1.256 . S
C415 C408 1.496 . S
H416 C399 0.929 . S
H417 C400 0.929 . S
H418 C401 0.929 . S
H419 C402 0.931 . S
H420 C410 0.929 . S
H421 C411 0.929 . S
H422 C412 0.931 . S
H423 C413 0.929 . S
C424 C425 1.369 . S
C424 C426 1.419 1_565 S
C424 H428 0.930 . S
C425 C424 1.369 . S
C425 C434 1.429 . S
C426 C424 1.419 1_545 S
C426 C427 1.363 1_545 S
C426 H429 0.929 . S
C427 C426 1.363 1_565 S
C427 C433 1.428 . S
H428 C424 0.930 . S
H429 C426 0.929 . S
S430 N431 1.613 . S
S430 N432 1.610 . S
N431 S430 1.613 . S
N431 C434 1.350 . S
N432 S430 1.610 . S
N432 C433 1.351 . S
C433 C427 1.428 . S
C433 N432 1.351 . S
C433 C434 1.434 . S
C434 C425 1.429 . S
C434 N431 1.350 . S
C434 C433 1.434 . S
C435 C436 1.369 . S
C435 C437 1.419 . S
C435 H439 0.930 . S
C436 C435 1.369 . S
C436 C445 1.429 . S
C437 C435 1.419 . S
C437 C438 1.363 . S
C437 H440 0.929 . S
C438 C437 1.363 . S
C438 C444 1.428 . S
H439 C435 0.930 . S
H440 C437 0.929 . S
S441 N442 1.613 . S
S441 N443 1.610 . S
N442 S441 1.613 . S
N442 C445 1.350 . S
N443 S441 1.610 . S
N443 C444 1.351 . S
C444 C438 1.428 . S
C444 N443 1.351 . S
C444 C445 1.434 . S
C445 C436 1.429 . S
C445 N442 1.350 . S
C445 C444 1.434 . S
C446 C447 1.369 . S
C446 C448 1.419 . S
C446 H450 0.930 . S
C447 C446 1.369 . S
C447 C456 1.429 . S
C448 C446 1.419 . S
C448 C449 1.363 . S
C448 H451 0.929 . S
C449 C448 1.363 . S
C449 C455 1.428 . S
H450 C446 0.930 . S
H451 C448 0.929 . S
S452 N453 1.613 . S
S452 N454 1.610 . S
N453 S452 1.613 . S
N453 C456 1.350 . S
N454 S452 1.610 . S
N454 C455 1.351 . S
C455 C449 1.428 . S
C455 N454 1.351 . S
C455 C456 1.434 . S
C456 C447 1.429 . S
C456 N453 1.350 . S
C456 C455 1.434 . S
C457 C458 1.369 . S
C457 C459 1.419 . S
C457 H461 0.930 . S
C458 C457 1.369 . S
C458 C467 1.429 . S
C459 C457 1.419 . S
C459 C460 1.363 1_565 S
C459 H462 0.929 1_565 S
C460 C459 1.363 1_545 S
C460 C466 1.428 1_545 S
H461 C457 0.930 . S
H462 C459 0.929 1_545 S
S463 N464 1.613 . S
S463 N465 1.610 . S
N464 S463 1.613 . S
N464 C467 1.350 . S
N465 S463 1.610 . S
N465 C466 1.351 . S
C466 C460 1.428 1_565 S
C466 N465 1.351 . S
C466 C467 1.434 . S
C467 C458 1.429 . S
C467 N464 1.350 . S
C467 C466 1.434 . S
C468 C469 1.369 . S
C468 C470 1.419 . S
C468 H472 0.930 . S
C469 C468 1.369 . S
C469 C478 1.429 . S
C470 C468 1.419 . S
C470 C471 1.363 1_545 S
C470 H473 0.929 . S
C471 C470 1.363 1_565 S
C471 C477 1.428 . S
H472 C468 0.930 . S
H473 C470 0.929 . S
S474 N475 1.613 1_565 S
S474 N476 1.610 . S
N475 S474 1.613 1_545 S
N475 C478 1.350 . S
N476 S474 1.610 . S
N476 C477 1.351 . S
C477 C471 1.428 . S
C477 N476 1.351 . S
C477 C478 1.434 1_565 S
C478 C469 1.429 . S
C478 N475 1.350 . S
C478 C477 1.434 1_545 S
C479 C480 1.369 . S
C479 C481 1.419 . S
C479 H483 0.930 . S
C480 C479 1.369 . S
C480 C489 1.429 . S
C481 C479 1.419 . S
C481 C482 1.363 . S
C481 H484 0.929 . S
C482 C481 1.363 . S
C482 C488 1.428 . S
H483 C479 0.930 . S
H484 C481 0.929 . S
S485 N486 1.613 . S
S485 N487 1.610 . S
N486 S485 1.613 . S
N486 C489 1.350 . S
N487 S485 1.610 . S
N487 C488 1.351 . S
C488 C482 1.428 . S
C488 N487 1.351 . S
C488 C489 1.434 . S
C489 C480 1.429 . S
C489 N486 1.350 . S
C489 C488 1.434 . S
C490 C491 1.369 . S
C490 C492 1.419 . S
C490 H494 0.930 . S
C491 C490 1.369 . S
C491 C500 1.429 . S
C492 C490 1.419 . S
C492 C493 1.363 . S
C492 H495 0.929 . S
C493 C492 1.363 . S
C493 C499 1.428 . S
H494 C490 0.930 . S
H495 C492 0.929 . S
S496 N497 1.613 . S
S496 N498 1.610 . S
N497 S496 1.613 . S
N497 C500 1.350 . S
N498 S496 1.610 . S
N498 C499 1.351 . S
C499 C493 1.428 . S
C499 N498 1.351 . S
C499 C500 1.434 . S
C500 C491 1.429 . S
C500 N497 1.350 . S
C500 C499 1.434 . S
C501 C502 1.369 . S
C501 C503 1.419 . S
C501 H505 0.930 . S
C502 C501 1.369 . S
C502 C511 1.429 . S
C503 C501 1.419 . S
C503 C504 1.363 1_545 S
C503 H506 0.929 . S
C504 C503 1.363 1_565 S
C504 C510 1.428 . S
H505 C501 0.930 . S
H506 C503 0.929 . S
S507 N508 1.613 1_565 S
S507 N509 1.610 . S
N508 S507 1.613 1_545 S
N508 C511 1.350 . S
N509 S507 1.610 . S
N509 C510 1.351 . S
C510 C504 1.428 . S
C510 N509 1.351 . S
C510 C511 1.434 1_565 S
C511 C502 1.429 . S
C511 N508 1.350 . S
C511 C510 1.434 1_545 S
C512 C513 1.369 . S
C512 C514 1.419 1_556 S
C512 H516 0.930 . S
C513 C512 1.369 . S
C513 C522 1.429 . S
C514 C512 1.419 1_554 S
C514 C515 1.363 . S
C514 H517 0.929 . S
C515 C514 1.363 . S
C515 C521 1.428 . S
H516 C512 0.930 . S
H517 C514 0.929 . S
S518 N519 1.613 . S
S518 N520 1.610 . S
N519 S518 1.613 . S
N519 C522 1.350 1_554 S
N520 S518 1.610 . S
N520 C521 1.351 . S
C521 C515 1.428 . S
C521 N520 1.351 . S
C521 C522 1.434 1_554 S
C522 C513 1.429 . S
C522 N519 1.350 1_556 S
C522 C521 1.434 1_556 S
C523 C524 1.369 . S
C523 C525 1.419 . S
C523 H527 0.930 . S
C524 C523 1.369 . S
C524 C533 1.429 . S
C525 C523 1.419 . S
C525 C526 1.363 . S
C525 H528 0.929 . S
C526 C525 1.363 . S
C526 C532 1.428 . S
H527 C523 0.930 . S
H528 C525 0.929 . S
S529 N530 1.613 . S
S529 N531 1.610 . S
N530 S529 1.613 . S
N530 C533 1.350 . S
N531 S529 1.610 . S
N531 C532 1.351 . S
C532 C526 1.428 . S
C532 N531 1.351 . S
C532 C533 1.434 . S
C533 C524 1.429 . S
C533 N530 1.350 . S
C533 C532 1.434 . S
C534 C535 1.369 . S
C534 C536 1.419 1_554 S
C534 H538 0.930 . S
C535 C534 1.369 . S
C535 C544 1.429 . S
C536 C534 1.419 1_556 S
C536 C537 1.363 . S
C536 H539 0.929 . S
C537 C536 1.363 . S
C537 C543 1.428 . S
H538 C534 0.930 . S
H539 C536 0.929 . S
S540 N541 1.613 . S
S540 N542 1.610 1_554 S
N541 S540 1.613 . S
N541 C544 1.350 . S
N542 S540 1.610 1_556 S
N542 C543 1.351 . S
C543 C537 1.428 . S
C543 N542 1.351 . S
C543 C544 1.434 1_556 S
C544 C535 1.429 . S
C544 N541 1.350 . S
C544 C543 1.434 1_554 S
C545 C546 1.369 . S
C545 C547 1.419 . S
C545 H549 0.930 . S
C546 C545 1.369 . S
C546 C555 1.429 . S
C547 C545 1.419 . S
C547 C548 1.363 . S
C547 H550 0.929 . S
C548 C547 1.363 . S
C548 C554 1.428 . S
H549 C545 0.930 . S
H550 C547 0.929 . S
S551 N552 1.613 . S
S551 N553 1.610 . S
N552 S551 1.613 . S
N552 C555 1.350 . S
N553 S551 1.610 . S
N553 C554 1.351 . S
C554 C548 1.428 . S
C554 N553 1.351 . S
C554 C555 1.434 . S
C555 C546 1.429 . S
C555 N552 1.350 . S
C555 C554 1.434 . S
C556 C557 1.369 . S
C556 C558 1.419 1_554 S
C556 H560 0.930 . S
C557 C556 1.369 . S
C557 C566 1.429 . S
C558 C556 1.419 1_556 S
C558 C559 1.363 . S
C558 H561 0.929 . S
C559 C558 1.363 . S
C559 C565 1.428 . S
H560 C556 0.930 . S
H561 C558 0.929 . S
S562 N563 1.613 . S
S562 N564 1.610 1_554 S
N563 S562 1.613 . S
N563 C566 1.350 . S
N564 S562 1.610 1_556 S
N564 C565 1.351 . S
C565 C559 1.428 . S
C565 N564 1.351 . S
C565 C566 1.434 1_556 S
C566 C557 1.429 . S
C566 N563 1.350 . S
C566 C565 1.434 1_554 S
C567 C568 1.369 . S
C567 C569 1.419 . S
C567 H571 0.930 . S
C568 C567 1.369 . S
C568 C577 1.429 . S
C569 C567 1.419 . S
C569 C570 1.363 . S
C569 H572 0.929 . S
C570 C569 1.363 . S
C570 C576 1.428 . S
H571 C567 0.930 . S
H572 C569 0.929 . S
S573 N574 1.613 . S
S573 N575 1.610 . S
N574 S573 1.613 . S
N574 C577 1.350 . S
N575 S573 1.610 . S
N575 C576 1.351 . S
C576 C570 1.428 . S
C576 N575 1.351 . S
C576 C577 1.434 . S
C577 C568 1.429 . S
C577 N574 1.350 . S
C577 C576 1.434 . S
C578 C579 1.369 . S
C578 C580 1.419 1_556 S
C578 H582 0.930 . S
C579 C578 1.369 . S
C579 C588 1.429 . S
C580 C578 1.419 1_554 S
C580 C581 1.363 . S
C580 H583 0.929 . S
C581 C580 1.363 . S
C581 C587 1.428 . S
H582 C578 0.930 . S
H583 C580 0.929 . S
S584 N585 1.613 1_554 S
S584 N586 1.610 . S
N585 S584 1.613 1_556 S
N585 C588 1.350 . S
N586 S584 1.610 . S
N586 C587 1.351 . S
C587 C581 1.428 . S
C587 N586 1.351 . S
C587 C588 1.434 1_554 S
C588 C579 1.429 . S
C588 N585 1.350 . S
C588 C587 1.434 1_556 S
C589 C590 1.369 . S
C589 C591 1.419 . S
C589 H593 0.930 . S
C590 C589 1.369 . S
C590 C599 1.429 . S
C591 C589 1.419 . S
C591 C592 1.363 . S
C591 H594 0.929 . S
C592 C591 1.363 . S
C592 C598 1.428 . S
H593 C589 0.930 . S
H594 C591 0.929 . S
S595 N596 1.607 1_655 S
S595 N597 1.608 1_655 S
N596 S595 1.607 1_455 S
N596 C599 1.350 . S
N597 S595 1.608 1_455 S
N597 C598 1.351 . S
C598 C592 1.428 . S
C598 N597 1.351 . S
C598 C599 1.434 . S
C599 C590 1.429 . S
C599 N596 1.350 . S
C599 C598 1.434 . S
C600 C601 1.369 . S
C600 C602 1.419 . S
C600 H604 0.930 . S
C601 C600 1.369 . S
C601 C610 1.429 . S
C602 C600 1.419 . S
C602 C603 1.363 . S
C602 H605 0.929 . S
C603 C602 1.363 . S
C603 C609 1.428 . S
H604 C600 0.930 . S
H605 C602 0.929 . S
S606 N607 1.613 . S
S606 N608 1.610 . S
N607 S606 1.613 . S
N607 C610 1.350 . S
N608 S606 1.610 . S
N608 C609 1.351 . S
C609 C603 1.428 . S
C609 N608 1.351 . S
C609 C610 1.434 . S
C610 C601 1.429 . S
C610 N607 1.350 . S
C610 C609 1.434 . S
C611 C612 1.369 . S
C611 C613 1.419 . S
C611 H615 0.930 . S
C612 C611 1.369 . S
C612 C621 1.429 . S
C613 C611 1.419 . S
C613 C614 1.363 . S
C613 H616 0.929 . S
C614 C613 1.363 . S
C614 C620 1.428 . S
H615 C611 0.930 . S
H616 C613 0.929 . S
S617 N618 1.613 . S
S617 N619 1.610 . S
N618 S617 1.613 . S
N618 C621 1.350 . S
N619 S617 1.610 . S
N619 C620 1.351 . S
C620 C614 1.428 . S
C620 N619 1.351 . S
C620 C621 1.434 . S
C621 C612 1.429 . S
C621 N618 1.350 . S
C621 C620 1.434 . S
C622 C623 1.369 . S
C622 C624 1.419 . S
C622 H626 0.930 . S
C623 C622 1.369 . S
C623 C632 1.429 . S
C624 C622 1.419 . S
C624 C625 1.363 . S
C624 H627 0.929 . S
C625 C624 1.363 . S
C625 C631 1.428 . S
H626 C622 0.930 . S
H627 C624 0.929 . S
S628 N629 1.613 . S
S628 N630 1.610 . S
N629 S628 1.613 . S
N629 C632 1.350 . S
N630 S628 1.610 . S
N630 C631 1.351 . S
C631 C625 1.428 . S
C631 N630 1.351 . S
C631 C632 1.434 . S
C632 C623 1.429 . S
C632 N629 1.350 . S
C632 C631 1.434 . S
C633 C634 1.369 . S
C633 C635 1.419 . S
C633 H637 0.930 . S
C634 C633 1.369 . S
C634 C643 1.429 . S
C635 C633 1.419 . S
C635 C636 1.363 . S
C635 H638 0.929 . S
C636 C635 1.363 . S
C636 C642 1.428 . S
H637 C633 0.930 . S
H638 C635 0.929 . S
S639 N640 1.615 . S
S639 N641 1.610 . S
N640 S639 1.615 . S
N640 C643 1.350 . S
N641 S639 1.610 . S
N641 C642 1.351 . S
C642 C636 1.428 . S
C642 N641 1.351 . S
C642 C643 1.434 . S
C643 C634 1.429 . S
C643 N640 1.350 . S
C643 C642 1.434 . S
C644 C645 1.369 . S
C644 C646 1.419 . S
C644 H648 0.930 . S
C645 C644 1.369 . S
C645 C654 1.429 . S
C646 C644 1.419 . S
C646 C647 1.363 . S
C646 H649 0.929 . S
C647 C646 1.363 . S
C647 C653 1.428 . S
H648 C644 0.930 . S
H649 C646 0.929 . S
S650 N651 1.613 . S
S650 N652 1.610 . S
N651 S650 1.613 . S
N651 C654 1.350 . S
N652 S650 1.610 . S
N652 C653 1.351 . S
C653 C647 1.428 . S
C653 N652 1.351 . S
C653 C654 1.434 . S
C654 C645 1.429 . S
C654 N651 1.350 . S
C654 C653 1.434 . S
C655 C656 1.369 . S
C655 C657 1.419 . S
C655 H659 0.930 . S
C656 C655 1.369 . S
C656 C665 1.429 . S
C657 C655 1.419 . S
C657 C658 1.363 . S
C657 H660 0.929 . S
C658 C657 1.363 . S
C658 C664 1.428 . S
H659 C655 0.930 . S
H660 C657 0.929 . S
S661 N662 1.613 . S
S661 N663 1.610 . S
N662 S661 1.613 . S
N662 C665 1.350 . S
N663 S661 1.610 . S
N663 C664 1.351 . S
C664 C658 1.428 . S
C664 N663 1.351 . S
C664 C665 1.434 . S
C665 C656 1.429 . S
C665 N662 1.350 . S
C665 C664 1.434 . S
C666 C667 1.369 . S
C666 C668 1.419 . S
C666 H670 0.930 . S
C667 C666 1.369 . S
C667 C676 1.429 . S
C668 C666 1.419 . S
C668 C669 1.363 . S
C668 H671 0.929 . S
C669 C668 1.363 . S
C669 C675 1.428 . S
H670 C666 0.930 . S
H671 C668 0.929 . S
S672 N673 1.613 . S
S672 N674 1.610 . S
N673 S672 1.613 . S
N673 C676 1.350 . S
N674 S672 1.610 . S
N674 C675 1.351 . S
C675 C669 1.428 . S
C675 N674 1.351 . S
C675 C676 1.434 . S
C676 C667 1.429 . S
C676 N673 1.350 . S
C676 C675 1.434 . S
C677 C678 1.369 . S
C677 C679 1.419 . S
C677 H681 0.930 . S
C678 C677 1.369 . S
C678 C687 1.429 . S
C679 C677 1.419 . S
C679 C680 1.363 . S
C679 H682 0.929 . S
C680 C679 1.363 . S
C680 C686 1.428 . S
H681 C677 0.930 . S
H682 C679 0.929 . S
S683 N684 1.613 1_655 S
S683 N685 1.610 . S
N684 S683 1.613 1_455 S
N684 C687 1.350 . S
N685 S683 1.610 . S
N685 C686 1.351 1_655 S
C686 C680 1.428 . S
C686 N685 1.351 1_455 S
C686 C687 1.434 . S
C687 C678 1.429 . S
C687 N684 1.350 . S
C687 C686 1.434 . S
C425 C71 1.658 . S
C427 C162 1.642 1_565 S
C438 C246 1.634 . S
C436 C81 1.633 . S
C449 C239 1.649 . S
C447 C49 1.653 . S
C458 C59 1.634 . S
C460 C155 1.630 . S
C471 C319 1.651 . S
C469 C27 1.657 . S
C482 C403 1.680 . S
C480 C38 1.690 . S
C491 C5 1.655 . S
C493 C396 1.650 . S
C502 C16 1.687 . S
C504 C312 1.686 . S
C515 C146 1.389 . S
C513 C15 1.557 . S
C526 C230 1.407 . S
C524 C4 1.573 . S
C537 C241 1.346 . S
C535 C37 1.554 . S
C548 C157 1.345 . S
C546 C26 1.571 . S
C559 C325 1.465 . S
C557 C60 1.599 . S
C568 C48 1.622 . S
C570 C409 1.464 . S
C581 C398 1.374 . S
C579 C82 1.603 . S
C590 C70 1.621 . S
C592 C314 1.394 . S
C603 C144 1.492 . S
C601 C10 1.481 . S
C614 C228 1.529 . S
C612 C21 1.517 . S
C623 C32 1.478 . S
C625 C235 1.458 . S
C636 C151 1.491 . S
C634 C43 1.514 . S
C647 C323 1.566 . S
C645 C54 1.546 . S
C656 C65 1.529 . S
C658 C407 1.529 . S
C667 C76 1.545 . S
C669 C414 1.538 . S
C678 C87 1.523 . S
C680 C330 1.504 . S
