# Generated by pormake.
# Topology ssb, (4,4)-cn, num edge types: 1
# Building blocks:
#     Node 0, Type 0, BuildingBlock: AZAVOO_clean_linker_0, # of connection points: 4
#     Node 1, Type 0, BuildingBlock: AZAVOO_clean_linker_0, # of connection points: 4
#     Node 2, Type 0, BuildingBlock: AZAVOO_clean_linker_0, # of connection points: 4
#     Node 3, Type 0, BuildingBlock: AZAVOO_clean_linker_0, # of connection points: 4
#     Node 4, Type 0, BuildingBlock: AZAVOO_clean_linker_0, # of connection points: 4
#     Node 5, Type 0, BuildingBlock: AZAVOO_clean_linker_0, # of connection points: 4
#     Node 6, Type 0, BuildingBlock: AZAVOO_clean_linker_0, # of connection points: 4
#     Node 7, Type 0, BuildingBlock: AZAVOO_clean_linker_0, # of connection points: 4
#     Node 8, Type 1, BuildingBlock: KOZSID_clean_sbu_0, # of connection points: 4
#     Node 9, Type 1, BuildingBlock: KOZSID_clean_sbu_0, # of connection points: 4
#     Node 10, Type 1, BuildingBlock: KOZSID_clean_sbu_0, # of connection points: 4
#     Node 11, Type 1, BuildingBlock: KOZSID_clean_sbu_0, # of connection points: 4
#     Node 12, Type 1, BuildingBlock: KOZSID_clean_sbu_0, # of connection points: 4
#     Node 13, Type 1, BuildingBlock: KOZSID_clean_sbu_0, # of connection points: 4
#     Node 14, Type 1, BuildingBlock: KOZSID_clean_sbu_0, # of connection points: 4
#     Node 15, Type 1, BuildingBlock: KOZSID_clean_sbu_0, # of connection points: 4
#     Edge 16, Type (0, 1), BuildingBlock: XUDNAN_clean_linker_2, # of connection points: 2
#     Edge 17, Type (0, 1), BuildingBlock: XUDNAN_clean_linker_2, # of connection points: 2
#     Edge 18, Type (0, 1), BuildingBlock: XUDNAN_clean_linker_2, # of connection points: 2
#     Edge 19, Type (0, 1), BuildingBlock: XUDNAN_clean_linker_2, # of connection points: 2
#     Edge 20, Type (0, 1), BuildingBlock: XUDNAN_clean_linker_2, # of connection points: 2
#     Edge 21, Type (0, 1), BuildingBlock: XUDNAN_clean_linker_2, # of connection points: 2
#     Edge 22, Type (0, 1), BuildingBlock: XUDNAN_clean_linker_2, # of connection points: 2
#     Edge 23, Type (0, 1), BuildingBlock: XUDNAN_clean_linker_2, # of connection points: 2
#     Edge 24, Type (0, 1), BuildingBlock: XUDNAN_clean_linker_2, # of connection points: 2
#     Edge 25, Type (0, 1), BuildingBlock: XUDNAN_clean_linker_2, # of connection points: 2
#     Edge 26, Type (0, 1), BuildingBlock: XUDNAN_clean_linker_2, # of connection points: 2
#     Edge 27, Type (0, 1), BuildingBlock: XUDNAN_clean_linker_2, # of connection points: 2
#     Edge 28, Type (0, 1), BuildingBlock: XUDNAN_clean_linker_2, # of connection points: 2
#     Edge 29, Type (0, 1), BuildingBlock: XUDNAN_clean_linker_2, # of connection points: 2
#     Edge 30, Type (0, 1), BuildingBlock: XUDNAN_clean_linker_2, # of connection points: 2
#     Edge 31, Type (0, 1), BuildingBlock: XUDNAN_clean_linker_2, # of connection points: 2
#     Edge 32, Type (0, 1), BuildingBlock: XUDNAN_clean_linker_2, # of connection points: 2
#     Edge 33, Type (0, 1), BuildingBlock: XUDNAN_clean_linker_2, # of connection points: 2
#     Edge 34, Type (0, 1), BuildingBlock: XUDNAN_clean_linker_2, # of connection points: 2
#     Edge 35, Type (0, 1), BuildingBlock: XUDNAN_clean_linker_2, # of connection points: 2
#     Edge 36, Type (0, 1), BuildingBlock: XUDNAN_clean_linker_2, # of connection points: 2
#     Edge 37, Type (0, 1), BuildingBlock: XUDNAN_clean_linker_2, # of connection points: 2
#     Edge 38, Type (0, 1), BuildingBlock: XUDNAN_clean_linker_2, # of connection points: 2
#     Edge 39, Type (0, 1), BuildingBlock: XUDNAN_clean_linker_2, # of connection points: 2
#     Edge 40, Type (0, 1), BuildingBlock: XUDNAN_clean_linker_2, # of connection points: 2
#     Edge 41, Type (0, 1), BuildingBlock: XUDNAN_clean_linker_2, # of connection points: 2
#     Edge 42, Type (0, 1), BuildingBlock: XUDNAN_clean_linker_2, # of connection points: 2
#     Edge 43, Type (0, 1), BuildingBlock: XUDNAN_clean_linker_2, # of connection points: 2
#     Edge 44, Type (0, 1), BuildingBlock: XUDNAN_clean_linker_2, # of connection points: 2
#     Edge 45, Type (0, 1), BuildingBlock: XUDNAN_clean_linker_2, # of connection points: 2
#     Edge 46, Type (0, 1), BuildingBlock: XUDNAN_clean_linker_2, # of connection points: 2
#     Edge 47, Type (0, 1), BuildingBlock: XUDNAN_clean_linker_2, # of connection points: 2
# Relax obj value: 0.046
# Max RMSD: 0.293
# Mean RMSD: 0.109
data_MOF--net-ssb--node1-KOZSID_clean_sbu_0--node2-AZAVOO_clean_linker_0--edge1-XUDNAN_clean_linker_2
_symmetry_space_group_name_H-M    P1
_symmetry_Int_Tables_number       1
_symmetry_cell_setting            triclinic
loop_
_symmetry_equiv_pos_as_xyz
'x, y, z'
_cell_length_a     60.332558
_cell_length_b     61.87902
_cell_length_c     44.359671
_cell_angle_alpha  94.808765
_cell_angle_beta   94.671565
_cell_angle_gamma 90.290997
loop_
_atom_site_label
_atom_site_type_symbol
_atom_site_fract_x
_atom_site_fract_y
_atom_site_fract_z
_atom_type_partial_charge
H0 H 0.16255 0.49308 0.29796 0.0
H1 H 0.34351 0.39603 0.10232 0.0
H2 H 0.23469 0.39071 0.33041 0.0
H3 H 0.20384 0.38251 0.36058 0.0
H4 H 0.16695 0.35358 0.27933 0.0
H5 H 0.19814 0.36114 0.24986 0.0
H6 H 0.24058 0.43773 0.29058 0.0
H7 H 0.21197 0.46491 0.29952 0.0
H8 H 0.16529 0.42669 0.23732 0.0
H9 H 0.19414 0.39974 0.22846 0.0
H10 H 0.28364 0.43744 0.24256 0.0
H11 H 0.28684 0.46784 0.21124 0.0
H12 H 0.2268 0.44631 0.15724 0.0
H13 H 0.22382 0.41568 0.18861 0.0
H14 H 0.31437 0.39763 0.24443 0.0
H15 H 0.34308 0.40122 0.20918 0.0
H16 H 0.29329 0.39018 0.13354 0.0
H17 H 0.26479 0.3864 0.16906 0.0
H18 H 0.30858 0.36093 0.28092 0.0
H19 H 0.33951 0.33846 0.26447 0.0
H20 H 0.30105 0.31923 0.18 0.0
H21 H 0.27012 0.34138 0.19677 0.0
H22 H 0.27771 0.35992 0.32034 0.0
H23 H 0.28118 0.32653 0.3463 0.0
H24 H 0.235 0.29433 0.27705 0.0
H25 H 0.23241 0.32758 0.25079 0.0
O26 O 0.17363 0.48217 0.29401 0.0
O27 O 0.15027 0.46191 0.26188 0.0
O28 O 0.3571 0.4021 0.15644 0.0
O29 O 0.33244 0.39493 0.11675 0.0
C30 C 0.23698 0.38125 0.26968 0.0
C31 C 0.23672 0.40034 0.25403 0.0
C32 C 0.25349 0.40414 0.23457 0.0
C33 C 0.27034 0.38859 0.23071 0.0
C34 C 0.27062 0.36962 0.2466 0.0
C35 C 0.25424 0.36609 0.26661 0.0
C36 C 0.21849 0.37655 0.28806 0.0
C37 C 0.21991 0.38256 0.3193 0.0
C38 C 0.20225 0.37798 0.33638 0.0
C39 C 0.18292 0.36737 0.32236 0.0
C40 C 0.1817 0.36144 0.29095 0.0
C41 C 0.19939 0.36589 0.27401 0.0
C42 C 0.21934 0.41677 0.25904 0.0
C43 C 0.22416 0.4353 0.27892 0.0
C44 C 0.20779 0.45077 0.28398 0.0
C45 C 0.18632 0.44795 0.26919 0.0
C46 C 0.18163 0.42934 0.24913 0.0
C47 C 0.19803 0.4139 0.24408 0.0
C48 C 0.25354 0.42422 0.21792 0.0
C49 C 0.27101 0.4394 0.22422 0.0
C50 C 0.27285 0.45673 0.20619 0.0
C51 C 0.25719 0.45941 0.1815 0.0
C52 C 0.23906 0.4448 0.17615 0.0
C53 C 0.23733 0.4273 0.19409 0.0
C54 C 0.28754 0.39177 0.20928 0.0
C55 C 0.30972 0.39602 0.22024 0.0
C56 C 0.32606 0.39808 0.20006 0.0
C57 C 0.32048 0.39595 0.16852 0.0
C58 C 0.29816 0.39188 0.15766 0.0
C59 C 0.28184 0.3898 0.17788 0.0
C60 C 0.2872 0.35273 0.23998 0.0
C61 C 0.30656 0.3512 0.25939 0.0
C62 C 0.32417 0.33842 0.24997 0.0
C63 C 0.32261 0.3273 0.22093 0.0
C64 C 0.30262 0.32775 0.20244 0.0
C65 C 0.28499 0.34029 0.21199 0.0
C66 C 0.2549 0.34619 0.28356 0.0
C67 C 0.2683 0.34564 0.31088 0.0
C68 C 0.27014 0.32653 0.32581 0.0
C69 C 0.25852 0.3075 0.31379 0.0
C70 C 0.2446 0.30841 0.28677 0.0
C71 C 0.2429 0.32748 0.2718 0.0
C72 C 0.16894 0.46437 0.27471 0.0
C73 C 0.33783 0.39788 0.14699 0.0
H74 H 0.63032 0.18196 0.25588 0.0
H75 H 0.7988 0.23337 0.53861 0.0
H76 H 0.73136 0.25189 0.27301 0.0
H77 H 0.70743 0.25752 0.22721 0.0
H78 H 0.67363 0.30863 0.27713 0.0
H79 H 0.69749 0.30255 0.32303 0.0
H80 H 0.71794 0.21597 0.30407 0.0
H81 H 0.68473 0.19696 0.27945 0.0
H82 H 0.64331 0.2437 0.32559 0.0
H83 H 0.67671 0.26245 0.35016 0.0
H84 H 0.73551 0.20306 0.35562 0.0
H85 H 0.7237 0.17302 0.38335 0.0
H86 H 0.69511 0.21897 0.44783 0.0
H87 H 0.70594 0.24863 0.41894 0.0
H88 H 0.78074 0.22685 0.38757 0.0
H89 H 0.80054 0.21448 0.4333 0.0
H90 H 0.7637 0.25999 0.48874 0.0
H91 H 0.74401 0.2721 0.44281 0.0
H92 H 0.79921 0.27054 0.35564 0.0
H93 H 0.83336 0.28581 0.38299 0.0
H94 H 0.79408 0.32258 0.44614 0.0
H95 H 0.76012 0.30668 0.41905 0.0
H96 H 0.76476 0.28632 0.2908 0.0
H97 H 0.77749 0.31969 0.27086 0.0
H98 H 0.75718 0.35714 0.35028 0.0
H99 H 0.74378 0.32394 0.36953 0.0
O100 O 0.64323 0.1896 0.26606 0.0
O101 O 0.62269 0.21418 0.29009 0.0
O102 O 0.80961 0.21472 0.49066 0.0
O103 O 0.7912 0.23792 0.52017 0.0
C104 C 0.7277 0.27054 0.32979 0.0
C105 C 0.71977 0.25236 0.34306 0.0
C106 C 0.73036 0.24615 0.37038 0.0
C107 C 0.74917 0.25777 0.38419 0.0
C108 C 0.75699 0.27607 0.37118 0.0
C109 C 0.74605 0.28271 0.34418 0.0
C110 C 0.71613 0.27685 0.3012 0.0
C111 C 0.71911 0.26462 0.27381 0.0
C112 C 0.70545 0.26789 0.2477 0.0
C113 C 0.68854 0.28342 0.24863 0.0
C114 C 0.68634 0.29636 0.27584 0.0
C115 C 0.70006 0.29309 0.30195 0.0
C116 C 0.69965 0.24044 0.32899 0.0
C117 C 0.70166 0.22194 0.30898 0.0
C118 C 0.68267 0.21117 0.29489 0.0
C119 C 0.66135 0.2188 0.30056 0.0
C120 C 0.65947 0.23738 0.32075 0.0
C121 C 0.67848 0.24809 0.33485 0.0
C122 C 0.72147 0.2279 0.38531 0.0
C123 C 0.72623 0.20649 0.37533 0.0
C124 C 0.71968 0.18942 0.3914 0.0
C125 C 0.70856 0.19358 0.41794 0.0
C126 C 0.7033 0.21511 0.42726 0.0
C127 C 0.70962 0.2321 0.41096 0.0
C128 C 0.76106 0.25038 0.41199 0.0
C129 C 0.77701 0.23409 0.40964 0.0
C130 C 0.78827 0.22708 0.43578 0.0
C131 C 0.78372 0.23628 0.4647 0.0
C132 C 0.76764 0.25259 0.46686 0.0
C133 C 0.75638 0.25956 0.4407 0.0
C134 C 0.77729 0.28755 0.3854 0.0
C135 C 0.79805 0.28215 0.37512 0.0
C136 C 0.8175 0.29095 0.39073 0.0
C137 C 0.81647 0.30534 0.41689 0.0
C138 C 0.79549 0.31128 0.42641 0.0
C139 C 0.77608 0.30239 0.41085 0.0
C140 C 0.75346 0.30273 0.33166 0.0
C141 C 0.76289 0.30176 0.30371 0.0
C142 C 0.77018 0.32074 0.29243 0.0
C143 C 0.76845 0.34086 0.30923 0.0
C144 C 0.75897 0.34177 0.33716 0.0
C145 C 0.75133 0.32287 0.34813 0.0
C146 C 0.64122 0.20745 0.28533 0.0
C147 C 0.79566 0.22893 0.49254 0.0
H148 H 0.64509 0.89673 0.33464 0.0
H149 H 0.70269 0.6708 0.18397 0.0
H150 H 0.74631 0.84307 0.34312 0.0
H151 H 0.74618 0.86995 0.38589 0.0
H152 H 0.74964 0.81859 0.44683 0.0
H153 H 0.74624 0.79193 0.40329 0.0
H154 H 0.71271 0.83674 0.29226 0.0
H155 H 0.68572 0.86518 0.30279 0.0
H156 H 0.66758 0.8332 0.38041 0.0
H157 H 0.6944 0.80466 0.36932 0.0
H158 H 0.71925 0.80144 0.24262 0.0
H159 H 0.68832 0.81307 0.20905 0.0
H160 H 0.64192 0.79106 0.26959 0.0
H161 H 0.67317 0.7798 0.30336 0.0
H162 H 0.74607 0.76748 0.23636 0.0
H163 H 0.74023 0.73862 0.19516 0.0
H164 H 0.6998 0.70325 0.25098 0.0
H165 H 0.7058 0.73228 0.29195 0.0
H166 H 0.78321 0.75939 0.27453 0.0
H167 H 0.79976 0.7245 0.25857 0.0
H168 H 0.7641 0.69354 0.32406 0.0
H169 H 0.74722 0.72824 0.33922 0.0
H170 H 0.79111 0.80842 0.33646 0.0
H171 H 0.82655 0.80844 0.36739 0.0
H172 H 0.80412 0.75307 0.41049 0.0
H173 H 0.76838 0.75374 0.38019 0.0
O174 O 0.6556 0.88526 0.33082 0.0
O175 O 0.64703 0.8683 0.37066 0.0
O176 O 0.72512 0.70184 0.17146 0.0
O177 O 0.70471 0.68274 0.19953 0.0
C178 C 0.74107 0.7992 0.34317 0.0
C179 C 0.72165 0.80114 0.32338 0.0
C180 C 0.71736 0.7862 0.29766 0.0
C181 C 0.7315 0.76845 0.29284 0.0
C182 C 0.75045 0.76595 0.31307 0.0
C183 C 0.75569 0.78171 0.33761 0.0
C184 C 0.74571 0.81545 0.36984 0.0
C185 C 0.74682 0.83765 0.36575 0.0
C186 C 0.74714 0.85312 0.39059 0.0
C187 C 0.74753 0.84681 0.42048 0.0
C188 C 0.74839 0.82441 0.42446 0.0
C189 C 0.74701 0.80896 0.39946 0.0
C190 C 0.7054 0.81857 0.32992 0.0
C191 C 0.70276 0.83582 0.31138 0.0
C192 C 0.6874 0.85209 0.31753 0.0
C193 C 0.67448 0.85146 0.34243 0.0
C194 C 0.67725 0.83417 0.36103 0.0
C195 C 0.69256 0.81787 0.35479 0.0
C196 C 0.6984 0.78972 0.27529 0.0
C197 C 0.70238 0.79865 0.24821 0.0
C198 C 0.68467 0.8053 0.22909 0.0
C199 C 0.66264 0.80312 0.23673 0.0
C200 C 0.6587 0.79328 0.26331 0.0
C201 C 0.67647 0.78663 0.28245 0.0
C202 C 0.72623 0.75197 0.26697 0.0
C203 C 0.73572 0.75361 0.23944 0.0
C204 C 0.73244 0.73706 0.21604 0.0
C205 C 0.7196 0.71857 0.21982 0.0
C206 C 0.70979 0.71723 0.24732 0.0
C207 C 0.71309 0.73381 0.2707 0.0
C208 C 0.76427 0.74638 0.30832 0.0
C209 C 0.77948 0.74517 0.28596 0.0
C210 C 0.78873 0.72525 0.27671 0.0
C211 C 0.78318 0.70635 0.29009 0.0
C212 C 0.76888 0.70789 0.31363 0.0
C213 C 0.75933 0.7277 0.32244 0.0
C214 C 0.77729 0.78096 0.35589 0.0
C215 C 0.79392 0.79627 0.35254 0.0
C216 C 0.81418 0.79616 0.37008 0.0
C217 C 0.81821 0.78069 0.39131 0.0
C218 C 0.80148 0.76531 0.39453 0.0
C219 C 0.78117 0.76548 0.37699 0.0
C220 C 0.6582 0.86879 0.34892 0.0
C221 C 0.71666 0.70062 0.1954 0.0
H222 H 0.34739 0.98145 0.28985 0.0
H223 H 0.24251 0.79373 0.06046 0.0
H224 H 0.26384 0.90936 0.3094 0.0
H225 H 0.2568 0.94298 0.33924 0.0
H226 H 0.19357 0.94824 0.28679 0.0
H227 H 0.20221 0.91608 0.25479 0.0
H228 H 0.302 0.89721 0.26724 0.0
H229 H 0.32625 0.92903 0.28006 0.0
H230 H 0.27413 0.96991 0.24458 0.0
H231 H 0.25015 0.93792 0.23152 0.0
H232 H 0.30042 0.85375 0.21692 0.0
H233 H 0.3345 0.85752 0.19115 0.0
H234 H 0.30984 0.91685 0.15695 0.0
H235 H 0.27517 0.91239 0.18136 0.0
H236 H 0.2706 0.82373 0.20663 0.0
H237 H 0.27141 0.79682 0.16306 0.0
H238 H 0.23692 0.84132 0.10597 0.0
H239 H 0.23628 0.8681 0.14977 0.0
H240 H 0.23403 0.81808 0.23776 0.0
H241 H 0.21922 0.78726 0.20462 0.0
H242 H 0.17769 0.83047 0.15339 0.0
H243 H 0.19441 0.86129 0.18503 0.0
H244 H 0.22999 0.86279 0.30686 0.0
H245 H 0.2001 0.85089 0.33622 0.0
H246 H 0.15175 0.86376 0.26285 0.0
H247 H 0.18162 0.87614 0.23402 0.0
O248 O 0.33756 0.96908 0.28447 0.0
O249 O 0.31017 0.9894 0.26615 0.0
O250 O 0.26124 0.78225 0.108 0.0
O251 O 0.24346 0.80449 0.07767 0.0
C252 C 0.24041 0.89311 0.25676 0.0
C253 C 0.25964 0.89591 0.24084 0.0
C254 C 0.26471 0.88043 0.21711 0.0
C255 C 0.25 0.86285 0.20841 0.0
C256 C 0.23096 0.86 0.22437 0.0
C257 C 0.22649 0.87467 0.24914 0.0
C258 C 0.23382 0.91048 0.27943 0.0
C259 C 0.24844 0.91778 0.30445 0.0
C260 C 0.24417 0.93696 0.3218 0.0
C261 C 0.22471 0.94881 0.31522 0.0
C262 C 0.20911 0.94016 0.29195 0.0
C263 C 0.21379 0.92143 0.27394 0.0
C264 C 0.27431 0.91528 0.24854 0.0
C265 C 0.29589 0.91305 0.26217 0.0
C266 C 0.30968 0.93125 0.26952 0.0
C267 C 0.30211 0.95202 0.2634 0.0
C268 C 0.28047 0.95416 0.24964 0.0
C269 C 0.26673 0.93593 0.2422 0.0
C270 C 0.2852 0.88273 0.20096 0.0
C271 C 0.30213 0.86732 0.20336 0.0
C272 C 0.32159 0.86951 0.18874 0.0
C273 C 0.32469 0.88745 0.1721 0.0
C274 C 0.3078 0.90291 0.16973 0.0
C275 C 0.28808 0.90041 0.18371 0.0
C276 C 0.25354 0.8479 0.18126 0.0
C277 C 0.26367 0.8278 0.18455 0.0
C278 C 0.26395 0.8124 0.15968 0.0
C279 C 0.25411 0.81687 0.13105 0.0
C280 C 0.24461 0.83734 0.12768 0.0
C281 C 0.24437 0.85272 0.15259 0.0
C282 C 0.21548 0.84186 0.21355 0.0
C283 C 0.22107 0.82075 0.22013 0.0
C284 C 0.21247 0.80309 0.20103 0.0
C285 C 0.1977 0.80636 0.17555 0.0
C286 C 0.18965 0.82739 0.17204 0.0
C287 C 0.19881 0.84505 0.19052 0.0
C288 C 0.20805 0.86991 0.26802 0.0
C289 C 0.21291 0.86334 0.29733 0.0
C290 C 0.19584 0.85658 0.31407 0.0
C291 C 0.17363 0.85612 0.30163 0.0
C292 C 0.16875 0.86356 0.27277 0.0
C293 C 0.18579 0.87057 0.25624 0.0
C294 C 0.31678 0.97134 0.27137 0.0
C295 C 0.25327 0.80014 0.10494 0.0
H296 H 0.40398 0.98254 0.76795 0.0
H297 H 0.15772 0.92758 0.61623 0.0
H298 H 0.3251 0.869 0.75157 0.0
H299 H 0.36078 0.86416 0.78043 0.0
H300 H 0.34471 0.91573 0.84657 0.0
H301 H 0.30887 0.92044 0.81752 0.0
H302 H 0.33835 0.91372 0.72987 0.0
H303 H 0.37015 0.93856 0.74147 0.0
H304 H 0.32818 0.98457 0.78796 0.0
H305 H 0.29657 0.95942 0.77652 0.0
H306 H 0.30593 0.93392 0.68026 0.0
H307 H 0.30741 0.96785 0.65537 0.0
H308 H 0.25446 0.99341 0.70727 0.0
H309 H 0.25305 0.95945 0.73191 0.0
H310 H 0.26497 0.91075 0.65573 0.0
H311 H 0.23529 0.9169 0.61655 0.0
H312 H 0.18773 0.92094 0.68462 0.0
H313 H 0.21763 0.9151 0.72365 0.0
H314 H 0.26087 0.8667 0.67679 0.0
H315 H 0.23237 0.84245 0.65164 0.0
H316 H 0.19758 0.84623 0.73357 0.0
H317 H 0.22564 0.87233 0.75771 0.0
H318 H 0.28359 0.84163 0.74297 0.0
H319 H 0.28128 0.81311 0.77817 0.0
H320 H 0.26197 0.8612 0.84719 0.0
H321 H 0.265 0.88935 0.81245 0.0
O322 O 0.39117 0.97298 0.76357 0.0
O323 O 0.36884 0.99618 0.78692 0.0
O324 O 0.19499 0.92348 0.59727 0.0
O325 O 0.16982 0.92534 0.63132 0.0
C326 C 0.29519 0.90048 0.76164 0.0
C327 C 0.29609 0.91945 0.74589 0.0
C328 C 0.27889 0.92381 0.72377 0.0
C329 C 0.26144 0.9085 0.71629 0.0
C330 C 0.26101 0.88908 0.73127 0.0
C331 C 0.27719 0.88564 0.75519 0.0
C332 C 0.31446 0.89508 0.78245 0.0
C333 C 0.32903 0.87887 0.77269 0.0
C334 C 0.34946 0.87629 0.789 0.0
C335 C 0.35558 0.88977 0.81547 0.0
C336 C 0.34035 0.9051 0.82627 0.0
C337 C 0.31994 0.9078 0.80977 0.0
C338 C 0.31522 0.93477 0.75245 0.0
C339 C 0.33609 0.92916 0.74262 0.0
C340 C 0.35421 0.94339 0.74924 0.0
C341 C 0.35172 0.96355 0.76567 0.0
C342 C 0.33068 0.96917 0.77528 0.0
C343 C 0.31259 0.95487 0.76874 0.0
C344 C 0.27943 0.94421 0.70802 0.0
C345 C 0.29461 0.94684 0.68616 0.0
C346 C 0.29535 0.96617 0.67184 0.0
C347 C 0.28111 0.98338 0.6794 0.0
C348 C 0.26581 0.98058 0.70115 0.0
C349 C 0.26491 0.96116 0.71517 0.0
C350 C 0.24349 0.91268 0.69257 0.0
C351 C 0.24818 0.91322 0.66218 0.0
C352 C 0.23117 0.91662 0.63983 0.0
C353 C 0.20912 0.91944 0.64746 0.0
C354 C 0.20451 0.91886 0.67796 0.0
C355 C 0.22155 0.91553 0.7003 0.0
C356 C 0.24522 0.87147 0.71893 0.0
C357 C 0.24718 0.86214 0.68942 0.0
C358 C 0.23088 0.84797 0.67517 0.0
C359 C 0.21244 0.84217 0.69042 0.0
C360 C 0.21124 0.85058 0.72081 0.0
C361 C 0.22741 0.86528 0.73486 0.0
C362 C 0.27462 0.86765 0.77518 0.0
C363 C 0.27877 0.84591 0.76568 0.0
C364 C 0.27732 0.82961 0.7858 0.0
C365 C 0.27171 0.83479 0.81579 0.0
C366 C 0.26688 0.85655 0.82464 0.0
C367 C 0.26846 0.87272 0.80471 0.0
C368 C 0.37102 0.97861 0.77274 0.0
C369 C 0.19096 0.92287 0.62377 0.0
H370 H 0.23951 0.53233 0.80868 0.0
H371 H 0.22704 0.30198 0.62843 0.0
H372 H 0.33446 0.43475 0.79769 0.0
H373 H 0.34597 0.46777 0.82862 0.0
H374 H 0.28934 0.46116 0.88131 0.0
H375 H 0.27965 0.42682 0.85241 0.0
H376 H 0.29082 0.4566 0.76966 0.0
H377 H 0.27392 0.49176 0.78199 0.0
H378 H 0.22034 0.45945 0.82017 0.0
H379 H 0.23763 0.42441 0.80814 0.0
H380 H 0.26293 0.42654 0.7102 0.0
H381 H 0.22934 0.4309 0.67639 0.0
H382 H 0.19241 0.39139 0.7314 0.0
H383 H 0.22577 0.3881 0.7656 0.0
H384 H 0.29505 0.38037 0.69539 0.0
H385 H 0.28282 0.35627 0.65043 0.0
H386 H 0.23235 0.32889 0.70029 0.0
H387 H 0.24494 0.35289 0.74514 0.0
H388 H 0.33888 0.37511 0.74516 0.0
H389 H 0.35553 0.34345 0.72047 0.0
H390 H 0.29944 0.30442 0.74013 0.0
H391 H 0.28501 0.33555 0.76872 0.0
H392 H 0.35112 0.40035 0.78924 0.0
H393 H 0.3826 0.38525 0.81846 0.0
H394 H 0.33697 0.35188 0.86937 0.0
H395 H 0.30557 0.36739 0.84029 0.0
O396 O 0.24577 0.51824 0.80368 0.0
O397 O 0.21827 0.50082 0.82226 0.0
O398 O 0.25842 0.32632 0.62122 0.0
O399 O 0.23212 0.31178 0.6458 0.0
C400 C 0.29627 0.41181 0.79937 0.0
C401 C 0.27643 0.41683 0.78205 0.0
C402 C 0.26745 0.40199 0.75833 0.0
C403 C 0.27877 0.38268 0.75078 0.0
C404 C 0.29848 0.37757 0.76808 0.0
C405 C 0.30696 0.3919 0.79283 0.0
C406 C 0.30629 0.42826 0.82287 0.0
C407 C 0.32534 0.43973 0.81707 0.0
C408 C 0.33153 0.45901 0.83435 0.0
C409 C 0.31825 0.46766 0.85698 0.0
C410 C 0.30017 0.45513 0.86431 0.0
C411 C 0.29447 0.43545 0.84767 0.0
C412 C 0.26544 0.438 0.78802 0.0
C413 C 0.2754 0.45716 0.7806 0.0
C414 C 0.26571 0.47722 0.78769 0.0
C415 C 0.24579 0.47842 0.80211 0.0
C416 C 0.23569 0.4591 0.80908 0.0
C417 C 0.24546 0.43907 0.80211 0.0
C418 C 0.24669 0.40695 0.74018 0.0
C419 C 0.24741 0.41926 0.71518 0.0
C420 C 0.22827 0.42153 0.69578 0.0
C421 C 0.20817 0.41134 0.70096 0.0
C422 C 0.20744 0.39973 0.72685 0.0
C423 C 0.22652 0.39768 0.74635 0.0
C424 C 0.27075 0.36847 0.72337 0.0
C425 C 0.2813 0.3692 0.69646 0.0
C426 C 0.2743 0.35541 0.67086 0.0
C427 C 0.25657 0.34067 0.67175 0.0
C428 C 0.246 0.34008 0.69879 0.0
C429 C 0.25307 0.35384 0.7244 0.0
C430 C 0.31071 0.35767 0.75876 0.0
C431 C 0.33089 0.35945 0.74558 0.0
C432 C 0.34006 0.34132 0.73065 0.0
C433 C 0.32857 0.32126 0.72707 0.0
C434 C 0.3091 0.31931 0.74228 0.0
C435 C 0.30055 0.33725 0.75848 0.0
C436 C 0.32607 0.38514 0.81287 0.0
C437 C 0.34793 0.39019 0.80716 0.0
C438 C 0.36588 0.38132 0.82361 0.0
C439 C 0.36226 0.36725 0.84607 0.0
C440 C 0.34031 0.36282 0.85241 0.0
C441 C 0.32237 0.37164 0.83585 0.0
C442 C 0.2357 0.49978 0.80998 0.0
C443 C 0.24916 0.32587 0.64469 0.0
H444 H 0.88406 0.39704 0.87638 0.0
H445 H 0.8251 0.20116 0.65854 0.0
H446 H 0.80925 0.30853 0.90049 0.0
H447 H 0.80586 0.34011 0.93667 0.0
H448 H 0.74655 0.35891 0.88435 0.0
H449 H 0.75054 0.32759 0.84774 0.0
H450 H 0.8464 0.30951 0.85067 0.0
H451 H 0.86792 0.34308 0.86392 0.0
H452 H 0.81036 0.38026 0.83634 0.0
H453 H 0.78917 0.34656 0.82272 0.0
H454 H 0.8497 0.27758 0.78954 0.0
H455 H 0.87247 0.29183 0.75207 0.0
H456 H 0.82105 0.338 0.73108 0.0
H457 H 0.79821 0.32299 0.76714 0.0
H458 H 0.81828 0.2327 0.80511 0.0
H459 H 0.82978 0.20593 0.76583 0.0
H460 H 0.80396 0.24655 0.69669 0.0
H461 H 0.79228 0.27304 0.73616 0.0
H462 H 0.77367 0.23478 0.85399 0.0
H463 H 0.75925 0.19797 0.84217 0.0
H464 H 0.74609 0.21114 0.74801 0.0
H465 H 0.75778 0.24848 0.76112 0.0
H466 H 0.76379 0.27568 0.89668 0.0
H467 H 0.72737 0.27961 0.91747 0.0
H468 H 0.69649 0.28532 0.8272 0.0
H469 H 0.73277 0.28171 0.80674 0.0
O470 O 0.87529 0.38396 0.87079 0.0
O471 O 0.84518 0.40233 0.85654 0.0
O472 O 0.83376 0.1912 0.71095 0.0
O473 O 0.8208 0.21151 0.67454 0.0
C474 C 0.78562 0.29998 0.84605 0.0
C475 C 0.80317 0.30511 0.82858 0.0
C476 C 0.80806 0.29111 0.80334 0.0
C477 C 0.7972 0.27075 0.79755 0.0
C478 C 0.7793 0.26559 0.81469 0.0
C479 C 0.77284 0.28081 0.83795 0.0
C480 C 0.78016 0.31576 0.87148 0.0
C481 C 0.79517 0.31914 0.89734 0.0
C482 C 0.79319 0.33721 0.918 0.0
C483 C 0.7761 0.35222 0.91319 0.0
C484 C 0.76014 0.34788 0.8884 0.0
C485 C 0.76219 0.32982 0.86769 0.0
C486 C 0.81618 0.32562 0.83608 0.0
C487 C 0.83851 0.32493 0.84745 0.0
C488 C 0.85073 0.34413 0.85504 0.0
C489 C 0.84083 0.36436 0.85132 0.0
C490 C 0.81848 0.36496 0.8396 0.0
C491 C 0.8063 0.34575 0.83192 0.0
C492 C 0.82234 0.29926 0.78098 0.0
C493 C 0.84339 0.29065 0.7766 0.0
C494 C 0.8564 0.29894 0.7554 0.0
C495 C 0.84855 0.31603 0.73847 0.0
C496 C 0.82747 0.32458 0.74321 0.0
C497 C 0.81447 0.31618 0.76405 0.0
C498 C 0.80459 0.25487 0.7735 0.0
C499 C 0.81518 0.2358 0.78147 0.0
C500 C 0.82172 0.22054 0.75899 0.0
C501 C 0.81782 0.22412 0.7281 0.0
C502 C 0.80726 0.2433 0.72024 0.0
C503 C 0.80067 0.25852 0.74274 0.0
C504 C 0.76747 0.24424 0.80826 0.0
C505 C 0.76706 0.22984 0.83099 0.0
C506 C 0.75914 0.20857 0.82396 0.0
C507 C 0.75207 0.20096 0.7938 0.0
C508 C 0.75122 0.21599 0.77153 0.0
C509 C 0.75834 0.23745 0.77886 0.0
C510 C 0.75091 0.27855 0.85024 0.0
C511 C 0.74907 0.27729 0.88139 0.0
C512 C 0.7283 0.27949 0.89318 0.0
C513 C 0.70922 0.28308 0.87393 0.0
C514 C 0.711 0.2829 0.84255 0.0
C515 C 0.73166 0.28063 0.83082 0.0
C516 C 0.85381 0.38473 0.85966 0.0
C517 C 0.82464 0.20791 0.70412 0.0
H518 H 0.93803 0.68565 0.84329 0.0
H519 H 0.70968 0.70469 0.96032 0.0
H520 H 0.86641 0.77738 0.83985 0.0
H521 H 0.89587 0.78198 0.80605 0.0
H522 H 0.84929 0.7652 0.72836 0.0
H523 H 0.81988 0.76027 0.76242 0.0
H524 H 0.86372 0.73863 0.88175 0.0
H525 H 0.89751 0.71781 0.87436 0.0
H526 H 0.87227 0.6982 0.78201 0.0
H527 H 0.83845 0.71885 0.78984 0.0
H528 H 0.82219 0.73201 0.92106 0.0
H529 H 0.82061 0.69814 0.94558 0.0
H530 H 0.80956 0.66248 0.85748 0.0
H531 H 0.81023 0.69652 0.83332 0.0
H532 H 0.78701 0.77155 0.91964 0.0
H533 H 0.76105 0.76212 0.95622 0.0
H534 H 0.74019 0.70503 0.8976 0.0
H535 H 0.76597 0.71482 0.86102 0.0
H536 H 0.78634 0.80999 0.87242 0.0
H537 H 0.75246 0.82927 0.88517 0.0
H538 H 0.71286 0.77331 0.84884 0.0
H539 H 0.74669 0.75436 0.83552 0.0
H540 H 0.82719 0.81227 0.82654 0.0
H541 H 0.81859 0.84092 0.79277 0.0
H542 H 0.76033 0.80455 0.7534 0.0
H543 H 0.76994 0.77551 0.78573 0.0
O544 O 0.92445 0.69361 0.84581 0.0
O545 O 0.91075 0.68407 0.79846 0.0
O546 O 0.73115 0.73852 0.97535 0.0
O547 O 0.72008 0.7088 0.94625 0.0
C548 C 0.82446 0.76199 0.82448 0.0
C549 C 0.82847 0.74346 0.84069 0.0
C550 C 0.81314 0.73726 0.86083 0.0
C551 C 0.79405 0.74984 0.86549 0.0
C552 C 0.78966 0.76805 0.8488 0.0
C553 C 0.80474 0.77395 0.82795 0.0
C554 C 0.84103 0.76837 0.80363 0.0
C555 C 0.86246 0.77504 0.81552 0.0
C556 C 0.87927 0.77756 0.79622 0.0
C557 C 0.8749 0.77372 0.76461 0.0
C558 C 0.85308 0.76835 0.75262 0.0
C559 C 0.83629 0.76557 0.77202 0.0
C560 C 0.84869 0.7303 0.83631 0.0
C561 C 0.86548 0.72972 0.86001 0.0
C562 C 0.88478 0.71786 0.85569 0.0
C563 C 0.88763 0.70638 0.82756 0.0
C564 C 0.87064 0.70689 0.80393 0.0
C565 C 0.85133 0.7187 0.80832 0.0
C566 C 0.81613 0.71669 0.87548 0.0
C567 C 0.81977 0.71683 0.90711 0.0
C568 C 0.81898 0.69745 0.92103 0.0
C569 C 0.81472 0.67764 0.90345 0.0
C570 C 0.81246 0.67751 0.87164 0.0
C571 C 0.81308 0.69689 0.85779 0.0
C572 C 0.77843 0.74383 0.88777 0.0
C573 C 0.77679 0.75703 0.91475 0.0
C574 C 0.76197 0.75159 0.9356 0.0
C575 C 0.74856 0.7328 0.92984 0.0
C576 C 0.75029 0.71959 0.90276 0.0
C577 C 0.76505 0.7251 0.88188 0.0
C578 C 0.76903 0.78069 0.85327 0.0
C579 C 0.77032 0.80206 0.86671 0.0
C580 C 0.75098 0.81302 0.87403 0.0
C581 C 0.73004 0.80269 0.8683 0.0
C582 C 0.72877 0.78155 0.85395 0.0
C583 C 0.74806 0.77074 0.84624 0.0
C584 C 0.79921 0.79182 0.80853 0.0
C585 C 0.81268 0.81049 0.81042 0.0
C586 C 0.80761 0.82691 0.7913 0.0
C587 C 0.78879 0.82503 0.77025 0.0
C588 C 0.7752 0.80638 0.76884 0.0
C589 C 0.78048 0.78987 0.78759 0.0
C590 C 0.90825 0.69399 0.82295 0.0
C591 C 0.73278 0.72696 0.95192 0.0
C592 C 0.04817 0.40138 0.57486 0.0
C593 C 0.05166 0.42363 0.57926 0.0
C594 C 0.03472 0.43287 0.56272 0.0
C595 C 0.0219 0.41578 0.54933 0.0
N596 N 0.02948 0.3962 0.55661 0.0
Co597 Co 0.01617 0.36708 0.54205 0.0
N598 N 0.99292 0.3805 0.51477 0.0
C599 C 0.99107 0.40169 0.50971 0.0
C600 C 0.97296 0.40603 0.49055 0.0
C601 C 0.96237 0.38652 0.4834 0.0
C602 C 0.97471 0.37136 0.49869 0.0
N603 N 0.00227 0.33803 0.5284 0.0
C604 C 0.98269 0.33319 0.512 0.0
C605 C 0.97803 0.31111 0.50952 0.0
C606 C 0.99502 0.30167 0.52568 0.0
C607 C 0.00899 0.31848 0.53702 0.0
N608 N 0.03996 0.35356 0.5684 0.0
C609 C 0.04286 0.33217 0.57162 0.0
C610 C 0.06141 0.32779 0.58992 0.0
C611 C 0.07123 0.34751 0.59843 0.0
C612 C 0.05798 0.36282 0.58481 0.0
N613 N 0.99624 0.36943 0.57552 0.0
C614 C 0.96174 0.36751 0.6141 0.0
C615 C 0.97833 0.3519 0.61382 0.0
C616 C 0.99532 0.35319 0.59459 0.0
C617 C 0.96373 0.38511 0.59671 0.0
C618 C 0.98125 0.38593 0.57807 0.0
N619 N 0.03593 0.36451 0.50834 0.0
C620 C 0.0596 0.34276 0.47682 0.0
C621 C 0.06462 0.36058 0.4612 0.0
C622 C 0.05505 0.38047 0.46961 0.0
C623 C 0.04085 0.38206 0.49306 0.0
C624 C 0.04534 0.34505 0.49999 0.0
H625 H 0.03411 0.39765 0.49845 0.0
H626 H 0.04237 0.33083 0.51094 0.0
H627 H 0.00689 0.3403 0.59461 0.0
H628 H 0.98184 0.39963 0.56506 0.0
C629 C 0.00445 0.41742 0.52697 0.0
C630 C 0.0638 0.38579 0.58682 0.0
C631 C 0.96735 0.34906 0.50004 0.0
C632 C 0.02792 0.3166 0.55694 0.0
H633 H 0.06542 0.43222 0.59228 0.0
H634 H 0.03257 0.44993 0.55972 0.0
H635 H 0.96736 0.42171 0.48408 0.0
H636 H 0.94676 0.38397 0.46969 0.0
H637 H 0.96349 0.30284 0.49798 0.0
H638 H 0.99661 0.28469 0.52955 0.0
H639 H 0.06732 0.31209 0.59591 0.0
H640 H 0.08663 0.35029 0.61256 0.0
H641 H 0.97754 0.338 0.62704 0.0
H642 H 0.95152 0.39788 0.59689 0.0
H643 H 0.06692 0.32709 0.47159 0.0
H644 H 0.0583 0.39473 0.45799 0.0
C645 C 0.71318 0.04706 0.67068 0.0
C646 C 0.6932 0.05061 0.68366 0.0
C647 C 0.67781 0.03712 0.6674 0.0
C648 C 0.6892 0.02608 0.64558 0.0
N649 N 0.71103 0.03159 0.64702 0.0
Co650 Co 0.73362 0.01972 0.61934 0.0
N651 N 0.71089 1.00001 0.59532 0.0
C652 C 0.68891 0.99868 0.59919 0.0
C653 C 0.67765 0.98332 0.57962 0.0
C654 C 0.69346 0.97388 0.56273 0.0
C655 C 0.71357 0.98396 0.57321 0.0
N656 N 0.75619 0.00774 0.59168 0.0
C657 C 0.75474 0.99039 0.57069 0.0
C658 C 0.77504 0.98625 0.55874 0.0
C659 C 0.78974 1.00146 0.57257 0.0
C660 C 0.77781 0.01383 0.59237 0.0
N661 N 0.75642 0.03934 0.64343 0.0
C662 C 0.7781 0.04148 0.63831 0.0
C663 C 0.78951 0.05678 0.65772 0.0
C664 C 0.77422 0.06504 0.67637 0.0
C665 C 0.75427 0.05413 0.66733 0.0
N666 N 0.74085 0.9964 0.64625 0.0
C667 C 0.7509 0.9579 0.67295 0.0
C668 C 0.76787 0.97195 0.66723 0.0
C669 C 0.76249 0.99109 0.65389 0.0
C670 C 0.7289 0.96415 0.66757 0.0
C671 C 0.72428 0.98361 0.65486 0.0
N672 N 0.72627 0.04298 0.59201 0.0
C673 C 0.7376 0.07216 0.56339 0.0
C674 C 0.71546 0.07653 0.5542 0.0
C675 C 0.69891 0.06365 0.5641 0.0
C676 C 0.70461 0.04734 0.583 0.0
C677 C 0.74257 0.05534 0.58184 0.0
H678 H 0.69108 0.03858 0.58999 0.0
H679 H 0.75972 0.0528 0.58769 0.0
H680 H 0.77607 1.00085 0.64876 0.0
H681 H 0.70718 0.98752 0.651 0.0
C682 C 0.67975 0.01088 0.623 0.0
C683 C 0.73365 0.05893 0.68155 0.0
C684 C 0.73491 0.97669 0.56298 0.0
C685 C 0.7871 0.02937 0.61442 0.0
H686 H 0.69006 0.06191 0.70277 0.0
H687 H 0.66033 0.03569 0.67088 0.0
H688 H 0.66019 0.97894 0.57855 0.0
H689 H 0.69067 0.96057 0.54537 0.0
H690 H 0.77926 0.97315 0.54265 0.0
H691 H 0.80736 0.00257 0.56978 0.0
H692 H 0.80679 0.06164 0.65793 0.0
H693 H 0.7774 0.07794 0.69424 0.0
H694 H 0.78516 0.96764 0.67152 0.0
H695 H 0.71534 0.95376 0.67238 0.0
H696 H 0.75113 0.08181 0.55679 0.0
H697 H 0.68151 0.06596 0.5572 0.0
C698 C 0.06021 0.81974 0.5677 0.0
C699 C 0.06717 0.84035 0.57985 0.0
C700 C 0.05126 0.85444 0.57058 0.0
C701 C 0.03567 0.84187 0.55298 0.0
N702 N 0.04063 0.8205 0.55042 0.0
Co703 Co 0.02348 0.79689 0.52452 0.0
N704 N 0.0009 0.81801 0.50946 0.0
C705 C 0.00106 0.83976 0.51578 0.0
C706 C 0.98277 0.84976 0.50312 0.0
C707 C 0.96993 0.83334 0.48826 0.0
C708 C 0.98122 0.81427 0.49281 0.0
N709 N 0.00618 0.77325 0.49896 0.0
C710 C 0.98595 0.7739 0.48344 0.0
C711 C 0.97925 0.75369 0.46973 0.0
C712 C 0.99566 0.7396 0.47742 0.0
C713 C 0.01134 0.752 0.49528 0.0
N714 N 0.04606 0.77572 0.53937 0.0
C715 C 0.04627 0.75406 0.53176 0.0
C716 C 0.06313 0.74356 0.54683 0.0
C717 C 0.07461 0.75945 0.56482 0.0
C718 C 0.06426 0.77892 0.5593 0.0
N719 N 0.00538 0.79203 0.55884 0.0
C720 C 0.97985 0.78502 0.60766 0.0
C721 C 0.98962 0.76773 0.59157 0.0
C722 C 0.00204 0.77154 0.56729 0.0
C723 C 0.98278 0.80586 0.59868 0.0
C724 C 0.99567 0.809 0.57454 0.0
N725 N 0.0417 0.80183 0.49008 0.0
C726 C 0.06281 0.78801 0.44854 0.0
C727 C 0.06841 0.80901 0.44233 0.0
C728 C 0.06037 0.82633 0.46028 0.0
C729 C 0.04704 0.82243 0.48362 0.0
C730 C 0.04969 0.78481 0.47244 0.0
H731 H 0.04133 0.8364 0.49606 0.0
H732 H 0.0464 0.76842 0.47627 0.0
H733 H 0.00875 0.75764 0.55568 0.0
H734 H 0.99762 0.8253 0.56904 0.0
C735 C 0.01732 0.84995 0.5364 0.0
C736 C 0.07301 0.80004 0.57241 0.0
C737 C 0.97195 0.79291 0.48276 0.0
C738 C 0.02999 0.74391 0.5111 0.0
H739 H 0.0824 0.84506 0.59336 0.0
H740 H 0.05145 0.8719 0.5752 0.0
H741 H 0.97876 0.86681 0.50558 0.0
H742 H 0.95375 0.8351 0.47633 0.0
H743 H 0.96377 0.7495 0.45638 0.0
H744 H 0.99573 0.72225 0.47172 0.0
H745 H 0.06659 0.72637 0.54506 0.0
H746 H 0.08913 0.75696 0.58006 0.0
H747 H 0.98753 0.75126 0.59753 0.0
H748 H 0.9756 0.81975 0.61066 0.0
H749 H 0.06882 0.77405 0.43534 0.0
H750 H 0.06403 0.84292 0.45606 0.0
C751 C 0.30301 0.11079 0.535 0.0
C752 C 0.32283 0.09963 0.53854 0.0
C753 C 0.33645 0.10703 0.51846 0.0
C754 C 0.32433 0.12234 0.50398 0.0
N755 N 0.30373 0.12517 0.51352 0.0
Co756 Co 0.28106 0.14657 0.49912 0.0
N757 N 0.3006 0.15647 0.4682 0.0
C758 C 0.3208 0.14855 0.46228 0.0
C759 C 0.33034 0.15837 0.4399 0.0
C760 C 0.31532 0.1734 0.4308 0.0
C761 C 0.29732 0.17186 0.44816 0.0
N762 N 0.25881 0.16865 0.48571 0.0
C763 C 0.25969 0.1834 0.46474 0.0
C764 C 0.24057 0.19581 0.4631 0.0
C765 C 0.22732 0.18891 0.48392 0.0
C766 C 0.23895 0.17269 0.497 0.0
N767 N 0.26108 0.136 0.52902 0.0
C768 C 0.24016 0.14269 0.5332 0.0
C769 C 0.22987 0.13169 0.55378 0.0
C770 C 0.24506 0.11696 0.56328 0.0
C771 C 0.26393 0.11998 0.54808 0.0
N772 N 0.29457 0.1687 0.53023 0.0
C773 C 0.31364 0.2005 0.5738 0.0
C774 C 0.29118 0.19483 0.5732 0.0
C775 C 0.28201 0.17909 0.55128 0.0
C776 C 0.32648 0.18982 0.55259 0.0
C777 C 0.31672 0.17401 0.53131 0.0
N778 N 0.26761 0.12427 0.46823 0.0
C779 C 0.23525 0.10583 0.442 0.0
C780 C 0.24858 0.08955 0.42978 0.0
C781 C 0.27156 0.09143 0.43579 0.0
C782 C 0.28067 0.10895 0.45455 0.0
C783 C 0.24505 0.12292 0.46119 0.0
H784 H 0.29832 0.10952 0.45798 0.0
H785 H 0.23401 0.13459 0.47046 0.0
H786 H 0.2647 0.17578 0.55163 0.0
H787 H 0.32748 0.16644 0.5159 0.0
C788 C 0.33114 0.13317 0.47985 0.0
C789 C 0.28406 0.10717 0.55261 0.0
C790 C 0.27781 0.18579 0.4452 0.0
C791 C 0.23099 0.15994 0.51835 0.0
H792 H 0.32699 0.08731 0.55392 0.0
H793 H 0.35309 0.10163 0.51454 0.0
H794 H 0.34654 0.15533 0.43169 0.0
H795 H 0.31755 0.18449 0.41366 0.0
H796 H 0.2364 0.20837 0.44812 0.0
H797 H 0.21095 0.19473 0.48854 0.0
H798 H 0.21331 0.13413 0.56108 0.0
H799 H 0.24248 0.10528 0.57953 0.0
H800 H 0.28054 0.20295 0.58903 0.0
H801 H 0.34401 0.19363 0.55241 0.0
H802 H 0.21732 0.10502 0.43753 0.0
H803 H 0.28249 0.07937 0.42606 0.0
C804 C 0.55564 0.87716 0.06986 0.0
C805 C 0.56574 0.895 0.08671 0.0
C806 C 0.56104 0.91255 0.07076 0.0
C807 C 0.54841 0.9045 0.04517 0.0
N808 N 0.54484 0.88281 0.04371 0.0
Co809 Co 0.5268 0.86462 0.01088 0.0
N810 N 0.52043 0.8904 0.98708 0.0
C811 C 0.52878 0.91074 0.99355 0.0
C812 C 0.52132 0.92498 0.97304 0.0
C813 C 0.50722 0.91307 0.95233 0.0
C814 C 0.50691 0.89219 0.96151 0.0
N815 N 0.50783 0.84665 0.97887 0.0
C816 C 0.49482 0.8528 0.95482 0.0
C817 C 0.48326 0.83534 0.93909 0.0
C818 C 0.48889 0.81754 0.95403 0.0
C819 C 0.50347 0.82513 0.9779 0.0
N820 N 0.53396 0.83865 0.03392 0.0
C821 C 0.52765 0.81785 0.02558 0.0
C822 C 0.53526 0.80348 0.04577 0.0
C823 C 0.54732 0.81577 0.0683 0.0
C824 C 0.54642 0.83705 0.06043 0.0
N825 N 0.50001 0.87045 0.03341 0.0
C826 C 0.46263 0.87926 0.0669 0.0
C827 C 0.46921 0.85792 0.05941 0.0
C828 C 0.48762 0.85391 0.04253 0.0
C829 C 0.47495 0.89599 0.05662 0.0
C830 C 0.49348 0.8913 0.04047 0.0
N831 N 0.55374 0.85886 0.98835 0.0
C832 C 0.57583 0.83502 0.95683 0.0
C833 C 0.59211 0.85116 0.9565 0.0
C834 C 0.58887 0.87111 0.97263 0.0
C835 C 0.56981 0.87458 0.98812 0.0
C836 C 0.55696 0.83917 0.97277 0.0
H837 H 0.56858 0.89016 0.99982 0.0
H838 H 0.54523 0.82619 0.97207 0.0
H839 H 0.49162 0.83731 0.0373 0.0
H840 H 0.50228 0.90491 0.034 0.0
C841 C 0.54109 0.91656 0.02111 0.0
C842 C 0.55743 0.85513 0.07911 0.0
C843 C 0.49251 0.87496 0.94638 0.0
C844 C 0.51327 0.81253 0.9998 0.0
H845 H 0.57577 0.89526 0.10811 0.0
H846 H 0.56656 0.92914 0.07678 0.0
H847 H 0.52489 0.94219 0.97381 0.0
H848 H 0.49772 0.91922 0.93319 0.0
H849 H 0.47174 0.83552 0.91907 0.0
H850 H 0.48285 0.80107 0.9484 0.0
H851 H 0.53206 0.78618 0.04454 0.0
H852 H 0.55563 0.80974 0.08841 0.0
H853 H 0.4605 0.84426 0.0669 0.0
H854 H 0.47037 0.9128 0.06082 0.0
H855 H 0.57743 0.81932 0.94452 0.0
H856 H 0.60114 0.88405 0.97371 0.0
C857 C 0.21853 0.66602 0.02203 0.0
C858 C 0.19551 0.66552 0.01731 0.0
C859 C 0.1903 0.65112 0.99272 0.0
C860 C 0.21036 0.64366 0.98402 0.0
N861 N 0.22807 0.6522 0.00177 0.0
Co862 Co 0.26028 0.64616 0.99716 0.0
N863 N 0.25272 0.62666 0.95933 0.0
C864 C 0.23229 0.62237 0.94512 0.0
C865 C 0.23237 0.60803 0.91985 0.0
C866 C 0.25413 0.6026 0.91803 0.0
C867 C 0.26606 0.61398 0.94245 0.0
N868 N 0.29252 0.63968 0.99294 0.0
C869 C 0.30193 0.6253 0.97324 0.0
C870 C 0.32487 0.62479 0.97898 0.0
C871 C 0.33016 0.63918 0.00356 0.0
C872 C 0.31023 0.64755 0.01138 0.0
N873 N 0.26787 0.66604 0.03472 0.0
C874 C 0.28841 0.67122 0.04807 0.0
C875 C 0.28837 0.68615 0.07267 0.0
C876 C 0.26655 0.69113 0.07491 0.0
C877 C 0.25448 0.67881 0.05148 0.0
N878 N 0.25855 0.62085 0.02213 0.0
C879 C 0.25961 0.58317 0.05436 0.0
C880 C 0.2752 0.59993 0.06165 0.0
C881 C 0.2743 0.6184 0.04562 0.0
C882 C 0.24273 0.58604 0.03153 0.0
C883 C 0.24255 0.60487 0.01572 0.0
N884 N 0.26215 0.6715 0.97219 0.0
C885 C 0.28178 0.70375 0.96097 0.0
C886 C 0.26433 0.7094 0.94056 0.0
C887 C 0.24603 0.69518 0.9353 0.0
C888 C 0.24527 0.67646 0.95127 0.0
C889 C 0.28038 0.68505 0.97628 0.0
H890 H 0.23072 0.66644 0.94673 0.0
H891 H 0.29421 0.68213 0.99169 0.0
H892 H 0.28688 0.63029 0.05235 0.0
H893 H 0.22961 0.60597 0.998 0.0
C894 C 0.21322 0.63029 0.95776 0.0
C895 C 0.23056 0.68083 0.04485 0.0
C896 C 0.28974 0.61109 0.9498 0.0
C897 C 0.30748 0.66219 0.03651 0.0
H898 H 0.18378 0.67506 0.02985 0.0
H899 H 0.17391 0.64716 0.98184 0.0
H900 H 0.21821 0.60162 0.90522 0.0
H901 H 0.26043 0.59104 0.9012 0.0
H902 H 0.33648 0.61471 0.967 0.0
H903 H 0.34652 0.64272 0.01485 0.0
H904 H 0.30256 0.69298 0.08685 0.0
H905 H 0.26031 0.7029 0.09148 0.0
H906 H 0.28834 0.59869 0.07956 0.0
H907 H 0.23022 0.57352 0.02514 0.0
H908 H 0.29659 0.71386 0.9654 0.0
H909 H 0.23205 0.69878 0.91968 0.0
C910 C 0.48734 0.32893 0.00587 0.0
C911 C 0.48319 0.35044 0.00069 0.0
C912 C 0.49528 0.36287 0.02306 0.0
C913 C 0.50623 0.34835 0.04039 0.0
N914 N 0.50181 0.32734 0.03056 0.0
Co915 Co 0.51527 0.30102 0.04801 0.0
N916 N 0.53363 0.31943 0.08016 0.0
C917 C 0.53285 0.34121 0.08593 0.0
C918 C 0.54772 0.34925 0.10923 0.0
C919 C 0.55887 0.33159 0.11865 0.0
C920 C 0.5501 0.31374 0.10045 0.0
N921 N 0.52946 0.27479 0.06474 0.0
C922 C 0.54698 0.27348 0.08561 0.0
C923 C 0.5527 0.25213 0.08941 0.0
C924 C 0.5385 0.23945 0.0698 0.0
C925 C 0.52503 0.25375 0.05521 0.0
N926 N 0.49644 0.2826 0.01635 0.0
C927 C 0.49494 0.26068 0.01343 0.0
C928 C 0.48016 0.25263 0.99003 0.0
C929 C 0.47167 0.27045 0.97726 0.0
C930 C 0.48189 0.28842 0.9936 0.0
N931 N 0.53929 0.30198 0.02041 0.0
C932 C 0.57456 0.30285 0.98293 0.0
C933 C 0.56268 0.28369 0.98491 0.0
C934 C 0.5451 0.28365 0.00347 0.0
C935 C 0.5684 0.32162 0.99975 0.0
C936 C 0.5509 0.3208 0.01836 0.0
N937 N 0.49108 0.29999 0.07589 0.0
C938 C 0.46548 0.27964 0.10234 0.0
C939 C 0.45592 0.29873 0.11379 0.0
C940 C 0.4644 0.31844 0.1065 0.0
C941 C 0.48193 0.3187 0.08791 0.0
C942 C 0.48279 0.28063 0.08341 0.0
H943 H 0.48764 0.3343 0.08361 0.0
H944 H 0.48895 0.26546 0.07505 0.0
H945 H 0.53648 0.26861 0.00391 0.0
H946 H 0.54717 0.33553 0.0311 0.0
C947 C 0.52029 0.3539 0.0665 0.0
C948 C 0.47708 0.31065 0.98676 0.0
C949 C 0.559 0.29198 0.10171 0.0
C950 C 0.50866 0.24808 0.03169 0.0
H951 H 0.47253 0.35659 0.98261 0.0
H952 H 0.496 0.3804 0.02632 0.0
H953 H 0.55085 0.36606 0.11736 0.0
H954 H 0.57246 0.33195 0.13619 0.0
H955 H 0.566 0.24639 0.10446 0.0
H956 H 0.53836 0.22194 0.06608 0.0
H957 H 0.47625 0.2358 0.98284 0.0
H958 H 0.45939 0.27025 0.95804 0.0
H959 H 0.56676 0.26883 0.97193 0.0
H960 H 0.5773 0.33679 0.99901 0.0
H961 H 0.45928 0.26398 0.10736 0.0
H962 H 0.45763 0.33366 0.11528 0.0
C963 C 0.77952 0.55691 0.16584 0.0
C964 C 0.75997 0.56581 0.17556 0.0
C965 C 0.74291 0.55365 0.16075 0.0
C966 C 0.75292 0.53799 0.14306 0.0
N967 N 0.77541 0.53933 0.14571 0.0
Co968 Co 0.7965 0.51945 0.12458 0.0
N969 N 0.77126 0.50281 0.10074 0.0
C970 C 0.74924 0.50635 0.10229 0.0
C971 C 0.73589 0.49263 0.08276 0.0
C972 C 0.75021 0.47968 0.06749 0.0
C973 C 0.77156 0.48633 0.07864 0.0
N974 N 0.81755 0.49927 0.10384 0.0
C975 C 0.81342 0.48279 0.08188 0.0
C976 C 0.83289 0.47289 0.07371 0.0
C977 C 0.84994 0.48351 0.09107 0.0
C978 C 0.83998 0.49924 0.10874 0.0
N979 N 0.82173 0.53653 0.14778 0.0
C980 C 0.84374 0.53291 0.14626 0.0
C981 C 0.85713 0.54781 0.16377 0.0
C982 C 0.84286 0.56192 0.17718 0.0
C983 C 0.82149 0.55468 0.16717 0.0
N984 N 0.79582 0.49963 0.15756 0.0
C985 C 0.795 0.4687 0.20049 0.0
C986 C 0.81507 0.47768 0.19382 0.0
C987 C 0.8151 0.49295 0.17237 0.0
C988 C 0.77532 0.476 0.18632 0.0
C989 C 0.77609 0.49152 0.16537 0.0
N990 N 0.79723 0.53899 0.09161 0.0
C991 C 0.81756 0.55671 0.05576 0.0
C992 C 0.79796 0.56536 0.04313 0.0
C993 C 0.77804 0.56087 0.05544 0.0
C994 C 0.77806 0.54784 0.0796 0.0
C995 C 0.81681 0.54361 0.07976 0.0
H996 H 0.76239 0.54506 0.08812 0.0
H997 H 0.83224 0.53723 0.08817 0.0
H998 H 0.83098 0.49878 0.16792 0.0
H999 H 0.76047 0.49646 0.15564 0.0
C1000 C 0.74163 0.52265 0.12244 0.0
C1001 C 0.80153 0.56579 0.17641 0.0
C1002 C 0.79152 0.47657 0.06727 0.0
C1003 C 0.85128 0.51529 0.12823 0.0
H1004 H 0.75818 0.57976 0.19157 0.0
H1005 H 0.72528 0.55613 0.16233 0.0
H1006 H 0.7179 0.49218 0.07985 0.0
H1007 H 0.74548 0.46684 0.05002 0.0
H1008 H 0.83464 0.45964 0.05657 0.0
H1009 H 0.86756 0.48052 0.09026 0.0
H1010 H 0.87512 0.54843 0.16632 0.0
H1011 H 0.84767 0.57603 0.19243 0.0
H1012 H 0.83074 0.47247 0.20438 0.0
H1013 H 0.75934 0.46975 0.19135 0.0
H1014 H 0.83337 0.55969 0.0468 0.0
H1015 H 0.76249 0.56756 0.04666 0.0
H1016 H 0.16621 0.39302 0.36872 0.0
H1017 H 0.15699 0.33053 0.31665 0.0
H1018 H 0.12485 0.32277 0.34509 0.0
H1019 H 0.15333 0.37421 0.44013 0.0
H1020 H 0.13942 0.39879 0.45208 0.0
H1021 H 0.16134 0.39968 0.42697 0.0
H1022 H 0.13468 0.41799 0.38823 0.0
H1023 H 0.11261 0.41699 0.41312 0.0
H1024 H 0.10857 0.40491 0.37463 0.0
H1025 H 0.09376 0.32178 0.37881 0.0
H1026 H 0.06672 0.32681 0.41752 0.0
H1027 H 0.0973 0.38913 0.44946 0.0
C1028 C 0.15758 0.37762 0.36346 0.0
C1029 C 0.16404 0.36246 0.34025 0.0
C1030 C 0.15211 0.34258 0.3339 0.0
C1031 C 0.13389 0.33797 0.35003 0.0
C1032 C 0.12788 0.35334 0.37255 0.0
C1033 C 0.13943 0.37268 0.37946 0.0
C1034 C 0.12979 0.3862 0.40518 0.0
C1035 C 0.14699 0.38993 0.43272 0.0
C1036 C 0.12088 0.4078 0.39465 0.0
C1037 C 0.11104 0.37137 0.41168 0.0
C1038 C 0.11017 0.35257 0.39248 0.0
C1039 C 0.09433 0.33637 0.39412 0.0
C1040 C 0.07913 0.33934 0.41628 0.0
C1041 C 0.07996 0.3583 0.43667 0.0
C1042 C 0.09605 0.37458 0.43403 0.0
H1043 H 0.73502 0.15902 0.43028 0.0
H1044 H 0.67181 0.18818 0.44952 0.0
H1045 H 0.66621 0.16078 0.48562 0.0
H1046 H 0.71666 0.10254 0.4338 0.0
H1047 H 0.74331 0.09482 0.45075 0.0
H1048 H 0.74165 0.11612 0.42537 0.0
H1049 H 0.76281 0.1421 0.46699 0.0
H1050 H 0.76426 0.12102 0.49264 0.0
H1051 H 0.75198 0.14667 0.50366 0.0
H1052 H 0.66923 0.13236 0.52283 0.0
H1053 H 0.67911 0.10318 0.55572 0.0
H1054 H 0.73874 0.09069 0.50854 0.0
C1055 C 0.71969 0.15936 0.4414 0.0
C1056 C 0.70388 0.17582 0.43708 0.0
C1057 C 0.68432 0.17592 0.45277 0.0
C1058 C 0.68092 0.16036 0.47318 0.0
C1059 C 0.69709 0.14466 0.47731 0.0
C1060 C 0.71592 0.14384 0.46153 0.0
C1061 C 0.73098 0.12561 0.47058 0.0
C1062 C 0.73327 0.10877 0.44351 0.0
C1063 C 0.75385 0.13438 0.48428 0.0
C1064 C 0.71786 0.11654 0.49436 0.0
C1065 C 0.69841 0.12778 0.49797 0.0
C1066 C 0.68418 0.12312 0.51978 0.0
C1067 C 0.68991 0.1064 0.53825 0.0
C1068 C 0.70961 0.09434 0.5346 0.0
C1069 C 0.72366 0.09958 0.5122 0.0
H1070 H 0.86008 0.78756 0.37371 0.0
H1071 H 0.82487 0.77443 0.45187 0.0
H1072 H 0.8605 0.77556 0.48362 0.0
H1073 H 0.90881 0.75634 0.39207 0.0
H1074 H 0.92766 0.77546 0.37885 0.0
H1075 H 0.89944 0.77294 0.36213 0.0
H1076 H 0.89383 0.81412 0.37479 0.0
H1077 H 0.92201 0.81675 0.39159 0.0
H1078 H 0.89931 0.82563 0.41339 0.0
H1079 H 0.8999 0.77892 0.50711 0.0
H1080 H 0.94048 0.78396 0.52029 0.0
H1081 H 0.94966 0.79561 0.42721 0.0
C1082 C 0.85982 0.78502 0.39753 0.0
C1083 C 0.83967 0.78086 0.41029 0.0
C1084 C 0.84012 0.77733 0.44149 0.0
C1085 C 0.86026 0.77808 0.45975 0.0
C1086 C 0.87977 0.78237 0.44647 0.0
C1087 C 0.87973 0.78576 0.41607 0.0
C1088 C 0.90295 0.79031 0.40741 0.0
C1089 C 0.91013 0.77271 0.38372 0.0
C1090 C 0.90461 0.81305 0.39614 0.0
C1091 C 0.91608 0.78907 0.43774 0.0
C1092 C 0.90241 0.78444 0.45999 0.0
C1093 C 0.91075 0.78254 0.48989 0.0
C1094 C 0.93368 0.78543 0.49719 0.0
C1095 C 0.9478 0.79019 0.47469 0.0
C1096 C 0.93897 0.79203 0.44467 0.0
H1097 H 0.23975 0.96458 0.37366 0.0
H1098 H 0.20375 0.9838 0.29135 0.0
H1099 H 0.20171 0.02096 0.31479 0.0
H1100 H 0.2141 0.00225 0.42893 0.0
H1101 H 0.24016 0.00782 0.45117 0.0
H1102 H 0.23519 0.98173 0.43035 0.0
H1103 H 0.2711 0.98647 0.4031 0.0
H1104 H 0.27615 0.01253 0.42374 0.0
H1105 H 0.27447 0.01019 0.38284 0.0
H1106 H 0.20638 0.05697 0.34514 0.0
H1107 H 0.21977 0.08914 0.37892 0.0
H1108 H 0.25585 0.04714 0.43865 0.0
C1109 C 0.23127 0.97645 0.36047 0.0
C1110 C 0.22165 0.97086 0.33065 0.0
C1111 C 0.21065 0.98718 0.31456 0.0
C1112 C 0.20953 0.00852 0.32761 0.0
C1113 C 0.21968 0.01348 0.35666 0.0
C1114 C 0.23046 0.99794 0.37283 0.0
C1115 C 0.24225 0.00793 0.40215 0.0
C1116 C 0.23233 0.99943 0.42978 0.0
C1117 C 0.26748 0.00406 0.40298 0.0
C1118 C 0.23687 0.03158 0.39953 0.0
C1119 C 0.22341 0.03442 0.37347 0.0
C1120 C 0.21678 0.05495 0.36574 0.0
C1121 C 0.22441 0.07308 0.38498 0.0
C1122 C 0.23881 0.07047 0.41116 0.0
C1123 C 0.24486 0.04947 0.41866 0.0
H1124 H 0.16739 0.84445 0.69795 0.0
H1125 H 0.21516 0.80975 0.64423 0.0
H1126 H 0.18447 0.79382 0.60956 0.0
H1127 H 0.12551 0.7984 0.68858 0.0
H1128 H 0.10259 0.81699 0.68812 0.0
H1129 H 0.12836 0.82445 0.71009 0.0
H1130 H 0.13041 0.85929 0.68182 0.0
H1131 H 0.10497 0.85175 0.65929 0.0
H1132 H 0.1298 0.857 0.64097 0.0
H1133 H 0.14952 0.78803 0.57543 0.0
H1134 H 0.11156 0.78603 0.54972 0.0
H1135 H 0.08583 0.81775 0.63031 0.0
C1136 C 0.17154 0.8329 0.67965 0.0
C1137 C 0.19392 0.82895 0.67355 0.0
C1138 C 0.19829 0.81383 0.64891 0.0
C1139 C 0.18094 0.80446 0.62917 0.0
C1140 C 0.15921 0.8096 0.63502 0.0
C1141 C 0.15439 0.82277 0.66028 0.0
C1142 C 0.12952 0.8258 0.66109 0.0
C1143 C 0.12099 0.8158 0.6886 0.0
C1144 C 0.12333 0.84989 0.66077 0.0
C1145 C 0.12126 0.81305 0.63165 0.0
C1146 C 0.13871 0.80411 0.61676 0.0
C1147 C 0.13561 0.7942 0.58733 0.0
C1148 C 0.11405 0.79319 0.5729 0.0
C1149 C 0.09581 0.80147 0.5882 0.0
C1150 C 0.09948 0.81117 0.61817 0.0
H1151 H 0.32112 0.27689 0.72661 0.0
H1152 H 0.34961 0.3253 0.67484 0.0
H1153 H 0.35499 0.29735 0.63403 0.0
H1154 H 0.35206 0.22858 0.69646 0.0
H1155 H 0.3276 0.2115 0.69433 0.0
H1156 H 0.33144 0.23374 0.7233 0.0
H1157 H 0.29311 0.24893 0.70528 0.0
H1158 H 0.28922 0.22691 0.67619 0.0
H1159 H 0.28768 0.25453 0.66614 0.0
H1160 H 0.35207 0.26615 0.59529 0.0
H1161 H 0.33931 0.23431 0.5609 0.0
H1162 H 0.30903 0.20705 0.63484 0.0
C1163 C 0.3288 0.28172 0.707 0.0
C1164 C 0.33511 0.30355 0.7046 0.0
C1165 C 0.34524 0.30877 0.67826 0.0
C1166 C 0.34825 0.29294 0.65458 0.0
C1167 C 0.34087 0.27192 0.65718 0.0
C1168 C 0.33129 0.26626 0.68269 0.0
C1169 C 0.32158 0.24348 0.67786 0.0
C1170 C 0.33391 0.22844 0.69926 0.0
C1171 C 0.29641 0.24348 0.68158 0.0
C1172 C 0.32634 0.23766 0.64521 0.0
C1173 C 0.33806 0.25405 0.63402 0.0
C1174 C 0.34323 0.25302 0.6039 0.0
C1175 C 0.33594 0.2349 0.58456 0.0
C1176 C 0.32328 0.21827 0.59531 0.0
C1177 C 0.31874 0.21955 0.62613 0.0
H1178 H 0.89381 0.3233 0.74317 0.0
H1179 H 0.83416 0.32923 0.68278 0.0
H1180 H 0.85633 0.34596 0.6465 0.0
H1181 H 0.92081 0.37294 0.72829 0.0
H1182 H 0.94819 0.36138 0.7291 0.0
H1183 H 0.92753 0.35081 0.75125 0.0
H1184 H 0.93246 0.31225 0.72514 0.0
H1185 H 0.9533 0.32266 0.70317 0.0
H1186 H 0.92943 0.30812 0.68429 0.0
H1187 H 0.88491 0.36143 0.61631 0.0
H1188 H 0.91854 0.37172 0.59237 0.0
H1189 H 0.95968 0.35481 0.67161 0.0
C1190 C 0.88541 0.32796 0.72223 0.0
C1191 C 0.86217 0.32515 0.71604 0.0
C1192 C 0.85185 0.33164 0.68841 0.0
C1193 C 0.8643 0.3411 0.66757 0.0
C1194 C 0.88709 0.34387 0.67458 0.0
C1195 C 0.8976 0.33729 0.70107 0.0
C1196 C 0.92246 0.34124 0.70248 0.0
C1197 C 0.93019 0.35757 0.72938 0.0
C1198 C 0.93515 0.31979 0.70384 0.0
C1199 C 0.92428 0.35083 0.67249 0.0
C1200 C 0.90366 0.35246 0.65691 0.0
C1201 C 0.90115 0.36038 0.62836 0.0
C1202 C 0.92031 0.36636 0.61506 0.0
C1203 C 0.94165 0.3642 0.63026 0.0
C1204 C 0.94356 0.35665 0.65952 0.0
H1205 H 0.79318 0.86919 0.78354 0.0
H1206 H 0.77176 0.82031 0.71076 0.0
H1207 H 0.76021 0.84912 0.67797 0.0
H1208 H 0.75053 0.90668 0.77021 0.0
H1209 H 0.76816 0.93042 0.7781 0.0
H1210 H 0.77521 0.906 0.7959 0.0
H1211 H 0.81394 0.90601 0.77454 0.0
H1212 H 0.80707 0.93054 0.75682 0.0
H1213 H 0.81574 0.90696 0.7343 0.0
H1214 H 0.74882 0.8829 0.65425 0.0
H1215 H 0.74075 0.92002 0.63979 0.0
H1216 H 0.77207 0.94694 0.72627 0.0
C1217 C 0.78645 0.86449 0.76055 0.0
C1218 C 0.78319 0.84242 0.7499 0.0
C1219 C 0.77398 0.83706 0.71974 0.0
C1220 C 0.76752 0.85331 0.70082 0.0
C1221 C 0.77069 0.87484 0.71221 0.0
C1222 C 0.78019 0.88048 0.7412 0.0
C1223 C 0.78169 0.90488 0.74788 0.0
C1224 C 0.76808 0.91243 0.7746 0.0
C1225 C 0.80606 0.91254 0.75372 0.0
C1226 C 0.77122 0.91203 0.71824 0.0
C1227 C 0.76491 0.89442 0.69803 0.0
C1228 C 0.75392 0.89684 0.66969 0.0
C1229 C 0.74934 0.91786 0.66173 0.0
C1230 C 0.75594 0.93605 0.68196 0.0
C1231 C 0.76712 0.93316 0.71044 0.0
H1232 H 0.87683 0.79329 0.71124 0.0
H1233 H 0.91468 0.7536 0.77263 0.0
H1234 H 0.94559 0.75245 0.73937 0.0
H1235 H 0.89429 0.767 0.6418 0.0
H1236 H 0.89594 0.79169 0.62319 0.0
H1237 H 0.87672 0.78952 0.65183 0.0
H1238 H 0.89418 0.82397 0.68199 0.0
H1239 H 0.91346 0.82625 0.65343 0.0
H1240 H 0.92368 0.82501 0.69257 0.0
H1241 H 0.97182 0.7545 0.69896 0.0
H1242 H 0.99262 0.76113 0.65483 0.0
H1243 H 0.93855 0.8004 0.62003 0.0
C1244 C 0.89164 0.78437 0.7176 0.0
C1245 C 0.89345 0.77363 0.74458 0.0
C1246 C 0.91311 0.76219 0.75228 0.0
C1247 C 0.93069 0.76135 0.73346 0.0
C1248 C 0.92844 0.77213 0.70708 0.0
C1249 C 0.90951 0.78355 0.69919 0.0
C1250 C 0.91154 0.79389 0.6697 0.0
C1251 C 0.89356 0.78499 0.64518 0.0
C1252 C 0.91067 0.81876 0.67474 0.0
C1253 C 0.9345 0.78639 0.66222 0.0
C1254 C 0.94387 0.77374 0.68402 0.0
C1255 C 0.96472 0.76446 0.68179 0.0
C1256 C 0.97636 0.76822 0.65662 0.0
C1257 C 0.96721 0.78129 0.63412 0.0
C1258 C 0.94603 0.79054 0.63709 0.0
H1259 H 0.28393 0.99024 0.61899 0.0
H1260 H 0.28161 0.02419 0.70828 0.0
H1261 H 0.28359 0.05927 0.6858 0.0
H1262 H 0.32212 0.02765 0.58977 0.0
H1263 H 0.30816 0.0256 0.55213 0.0
H1264 H 0.3074 0.00305 0.57524 0.0
H1265 H 0.26433 0.00284 0.56885 0.0
H1266 H 0.26498 0.02534 0.54568 0.0
H1267 H 0.24961 0.02733 0.57896 0.0
H1268 H 0.28548 0.09077 0.65375 0.0
H1269 H 0.28544 0.11648 0.61382 0.0
H1270 H 0.28569 0.06255 0.54498 0.0
C1271 C 0.28405 0.00506 0.63382 0.0
C1272 C 0.2826 0.00444 0.66546 0.0
C1273 C 0.28248 0.02423 0.68399 0.0
C1274 C 0.28374 0.04425 0.67145 0.0
C1275 C 0.28503 0.04431 0.64022 0.0
C1276 C 0.2851 0.02526 0.62159 0.0
C1277 C 0.28581 0.02994 0.58859 0.0
C1278 C 0.30714 0.02103 0.57568 0.0
C1279 C 0.26494 0.02083 0.56939 0.0
C1280 C 0.28601 0.05457 0.59159 0.0
C1281 C 0.28575 0.06251 0.62164 0.0
C1282 C 0.2857 0.08473 0.63017 0.0
C1283 C 0.2857 0.0992 0.60742 0.0
C1284 C 0.28558 0.09145 0.57649 0.0
C1285 C 0.2859 0.06884 0.56853 0.0
H1286 H 0.16391 0.41353 0.71206 0.0
H1287 H 0.20774 0.40842 0.63886 0.0
H1288 H 0.17514 0.405 0.6015 0.0
H1289 H 0.12653 0.37305 0.6799 0.0
H1290 H 0.10205 0.38614 0.69301 0.0
H1291 H 0.12862 0.39129 0.71394 0.0
H1292 H 0.12393 0.43258 0.70964 0.0
H1293 H 0.09727 0.42753 0.68872 0.0
H1294 H 0.11849 0.44253 0.67274 0.0
H1295 H 0.13811 0.39855 0.57219 0.0
H1296 H 0.09905 0.38942 0.55337 0.0
H1297 H 0.07953 0.39728 0.64539 0.0
C1298 C 0.1667 0.4119 0.68818 0.0
C1299 C 0.18847 0.41143 0.67849 0.0
C1300 C 0.19129 0.40934 0.64695 0.0
C1301 C 0.17285 0.40725 0.6255 0.0
C1302 C 0.15169 0.40729 0.63589 0.0
C1303 C 0.14851 0.40961 0.66648 0.0
C1304 C 0.12414 0.4075 0.67178 0.0
C1305 C 0.12011 0.38835 0.69077 0.0
C1306 C 0.11545 0.42881 0.68659 0.0
C1307 C 0.11417 0.40305 0.63943 0.0
C1308 C 0.13032 0.40326 0.61902 0.0
C1309 C 0.12529 0.39861 0.5879 0.0
C1310 C 0.10319 0.39344 0.57742 0.0
C1311 C 0.08662 0.39289 0.59806 0.0
C1312 C 0.09207 0.39791 0.62933 0.0
H1313 H 0.7242 0.1818 0.74567 0.0
H1314 H 0.77002 0.16582 0.82127 0.0
H1315 H 0.76505 0.12724 0.80475 0.0
H1316 H 0.68824 0.13298 0.73991 0.0
H1317 H 0.68633 0.13082 0.699 0.0
H1318 H 0.68973 0.15706 0.71988 0.0
H1319 H 0.72481 0.16448 0.69208 0.0
H1320 H 0.72145 0.13836 0.6711 0.0
H1321 H 0.7473 0.14541 0.69311 0.0
H1322 H 0.75851 0.09049 0.77751 0.0
H1323 H 0.75313 0.05904 0.73913 0.0
H1324 H 0.71494 0.0989 0.67868 0.0
C1325 C 0.73317 0.17035 0.75904 0.0
C1326 C 0.74731 0.17731 0.78522 0.0
C1327 C 0.75846 0.16132 0.8018 0.0
C1328 C 0.75589 0.13918 0.79245 0.0
C1329 C 0.74232 0.13306 0.76622 0.0
C1330 C 0.73127 0.14819 0.74959 0.0
C1331 C 0.71994 0.1376 0.72022 0.0
C1332 C 0.69455 0.13974 0.71974 0.0
C1333 C 0.72892 0.14702 0.6925 0.0
C1334 C 0.72691 0.11426 0.72255 0.0
C1335 C 0.73937 0.11191 0.74963 0.0
C1336 C 0.74859 0.09209 0.75638 0.0
C1337 C 0.74545 0.07434 0.73458 0.0
C1338 C 0.73358 0.0767 0.70626 0.0
C1339 C 0.72381 0.09675 0.70043 0.0
H1340 H 0.85585 0.31799 0.39599 0.0
H1341 H 0.82412 0.30999 0.47885 0.0
H1342 H 0.8589 0.32154 0.5091 0.0
H1343 H 0.90822 0.29665 0.42085 0.0
H1344 H 0.9243 0.31531 0.40207 0.0
H1345 H 0.89648 0.3078 0.3869 0.0
H1346 H 0.88558 0.34834 0.38913 0.0
H1347 H 0.9134 0.35598 0.40427 0.0
H1348 H 0.88996 0.36491 0.42456 0.0
H1349 H 0.89752 0.33261 0.53041 0.0
H1350 H 0.93742 0.34268 0.54093 0.0
H1351 H 0.94422 0.34223 0.44442 0.0
C1352 C 0.85619 0.31866 0.42049 0.0
C1353 C 0.83717 0.31322 0.43501 0.0
C1354 C 0.83831 0.31449 0.46717 0.0
C1355 C 0.85804 0.32089 0.48458 0.0
C1356 C 0.87651 0.32594 0.46951 0.0
C1357 C 0.87576 0.32493 0.43821 0.0
C1358 C 0.89813 0.33062 0.4276 0.0
C1359 C 0.90732 0.31145 0.40821 0.0
C1360 C 0.89667 0.35119 0.41038 0.0
C1361 C 0.91164 0.33471 0.45783 0.0
C1362 C 0.89883 0.33205 0.48175 0.0
C1363 C 0.9077 0.3348 0.51187 0.0
C1364 C 0.93027 0.34044 0.51765 0.0
C1365 C 0.94355 0.34322 0.49342 0.0
C1366 C 0.93419 0.34027 0.4632 0.0
H1367 H 0.75962 0.89066 0.42586 0.0
H1368 H 0.73073 0.84132 0.47582 0.0
H1369 H 0.72694 0.8685 0.51839 0.0
H1370 H 0.78752 0.92321 0.48846 0.0
H1371 H 0.77989 0.94855 0.47341 0.0
H1372 H 0.78314 0.9247 0.448 0.0
H1373 H 0.74315 0.92916 0.42338 0.0
H1374 H 0.73981 0.95306 0.44859 0.0
H1375 H 0.72021 0.93084 0.44706 0.0
H1376 H 0.72609 0.9013 0.55613 0.0
H1377 H 0.72498 0.93782 0.58351 0.0
H1378 H 0.74778 0.96635 0.50542 0.0
C1379 C 0.75229 0.88531 0.44542 0.0
C1380 C 0.74589 0.86335 0.44702 0.0
C1381 C 0.73668 0.8576 0.47383 0.0
C1382 C 0.73417 0.87307 0.49826 0.0
C1383 C 0.74037 0.89445 0.49553 0.0
C1384 C 0.74889 0.90064 0.46959 0.0
C1385 C 0.75249 0.92499 0.47133 0.0
C1386 C 0.77723 0.93069 0.47024 0.0
C1387 C 0.73805 0.9351 0.4461 0.0
C1388 C 0.74462 0.9315 0.50231 0.0
C1389 C 0.73814 0.91359 0.5162 0.0
C1390 C 0.73096 0.91545 0.54538 0.0
C1391 C 0.73034 0.93619 0.56071 0.0
C1392 C 0.73645 0.95478 0.5466 0.0
C1393 C 0.74338 0.95236 0.51688 0.0
H1394 H 0.16548 0.86442 0.36165 0.0
H1395 H 0.14159 0.82666 0.27844 0.0
H1396 H 0.11237 0.81021 0.30541 0.0
H1397 H 0.15653 0.82357 0.41268 0.0
H1398 H 0.14747 0.84248 0.44221 0.0
H1399 H 0.16659 0.85123 0.41642 0.0
H1400 H 0.13979 0.88198 0.40196 0.0
H1401 H 0.12061 0.87335 0.42774 0.0
H1402 H 0.11138 0.87535 0.38841 0.0
H1403 H 0.08644 0.79705 0.34176 0.0
H1404 H 0.06406 0.78991 0.38424 0.0
H1405 H 0.10406 0.83694 0.4435 0.0
C1406 C 0.15411 0.85266 0.34918 0.0
C1407 C 0.15576 0.84682 0.31794 0.0
C1408 C 0.14045 0.83152 0.30229 0.0
C1409 C 0.1239 0.822 0.31745 0.0
C1410 C 0.12275 0.82806 0.34824 0.0
C1411 C 0.13731 0.84316 0.3639 0.0
C1412 C 0.13216 0.84714 0.39677 0.0
C1413 C 0.15186 0.84071 0.41828 0.0
C1414 C 0.12559 0.87086 0.40414 0.0
C1415 C 0.11249 0.83186 0.39716 0.0
C1416 C 0.10744 0.82088 0.369 0.0
C1417 C 0.09019 0.80561 0.36389 0.0
C1418 C 0.07764 0.80157 0.38816 0.0
C1419 C 0.08228 0.8129 0.41709 0.0
C1420 C 0.09998 0.82821 0.42154 0.0
H1421 H 0.26395 0.30126 0.37535 0.0
H1422 H 0.26017 0.26617 0.28604 0.0
H1423 H 0.26474 0.23173 0.30978 0.0
H1424 H 0.30643 0.26772 0.40974 0.0
H1425 H 0.29476 0.26909 0.44598 0.0
H1426 H 0.29083 0.29114 0.42208 0.0
H1427 H 0.24815 0.28768 0.42381 0.0
H1428 H 0.25197 0.26561 0.44768 0.0
H1429 H 0.23457 0.2619 0.4126 0.0
H1430 H 0.26927 0.20072 0.34314 0.0
H1431 H 0.27386 0.1757 0.38394 0.0
H1432 H 0.27647 0.23053 0.45163 0.0
C1433 C 0.26425 0.28639 0.3607 0.0
C1434 C 0.26144 0.28663 0.32864 0.0
C1435 C 0.26175 0.2666 0.31056 0.0
C1436 C 0.26454 0.24687 0.32386 0.0
C1437 C 0.26717 0.24724 0.3554 0.0
C1438 C 0.26713 0.26648 0.37363 0.0
C1439 C 0.27035 0.26231 0.40699 0.0
C1440 C 0.29188 0.27321 0.42208 0.0
C1441 C 0.25005 0.26982 0.42375 0.0
C1442 C 0.27216 0.23775 0.40464 0.0
C1443 C 0.27023 0.22939 0.37464 0.0
C1444 C 0.27092 0.20711 0.36668 0.0
C1445 C 0.27357 0.19302 0.38994 0.0
C1446 C 0.27562 0.2012 0.42081 0.0
C1447 C 0.27502 0.22389 0.42817 0.0
H1448 H 0.69724 0.78588 0.89903 0.0
H1449 H 0.71706 0.84428 0.86006 0.0
H1450 H 0.68334 0.86266 0.87701 0.0
H1451 H 0.63789 0.79011 0.88062 0.0
H1452 H 0.6307 0.7803 0.91573 0.0
H1453 H 0.65599 0.77157 0.89971 0.0
H1454 H 0.67875 0.785 0.9499 0.0
H1455 H 0.65355 0.79372 0.9661 0.0
H1456 H 0.67618 0.81272 0.96517 0.0
H1457 H 0.64749 0.87456 0.89818 0.0
H1458 H 0.61298 0.87986 0.92387 0.0
H1459 H 0.61717 0.81401 0.95077 0.0
C1460 C 0.69432 0.80246 0.89376 0.0
C1461 C 0.70966 0.81365 0.87805 0.0
C1462 C 0.70554 0.83546 0.87215 0.0
C1463 C 0.68641 0.84598 0.88156 0.0
C1464 C 0.67164 0.83448 0.89702 0.0
C1465 C 0.67543 0.81325 0.90323 0.0
C1466 C 0.65735 0.80481 0.92116 0.0
C1467 C 0.64474 0.78556 0.90322 0.0
C1468 C 0.66704 0.79871 0.95243 0.0
C1469 C 0.64276 0.82462 0.92404 0.0
C1470 C 0.65125 0.84151 0.90982 0.0
C1471 C 0.64076 0.86149 0.90952 0.0
C1472 C 0.62121 0.86437 0.92438 0.0
C1473 C 0.61234 0.84743 0.93962 0.0
C1474 C 0.62329 0.82724 0.93913 0.0
H1475 H 0.25757 0.79145 0.80752 0.0
H1476 H 0.28683 0.84007 0.87576 0.0
H1477 H 0.28631 0.81389 0.91434 0.0
H1478 H 0.22174 0.76595 0.85625 0.0
H1479 H 0.22605 0.73874 0.84007 0.0
H1480 H 0.2281 0.76132 0.81723 0.0
H1481 H 0.26779 0.74968 0.80514 0.0
H1482 H 0.2658 0.727 0.82777 0.0
H1483 H 0.28854 0.74616 0.83589 0.0
H1484 H 0.28274 0.78312 0.94595 0.0
H1485 H 0.27821 0.74857 0.9685 0.0
H1486 H 0.25244 0.71827 0.88072 0.0
C1487 C 0.26397 0.79656 0.83054 0.0
C1488 C 0.27189 0.81812 0.83851 0.0
C1489 C 0.2801 0.82397 0.86901 0.0
C1490 C 0.28001 0.80913 0.89118 0.0
C1491 C 0.27182 0.78825 0.88272 0.0
C1492 C 0.26408 0.78181 0.85315 0.0
C1493 C 0.25661 0.75811 0.85036 0.0
C1494 C 0.23164 0.75591 0.84038 0.0
C1495 C 0.27052 0.74443 0.82849 0.0
C1496 C 0.26149 0.75232 0.88293 0.0
C1497 C 0.27015 0.77009 0.9011 0.0
C1498 C 0.27612 0.76904 0.93191 0.0
C1499 C 0.27357 0.74925 0.9445 0.0
C1500 C 0.26524 0.73051 0.92642 0.0
C1501 C 0.25879 0.73225 0.89522 0.0
H1502 H 0.36892 0.36138 0.90683 0.0
H1503 H 0.39847 0.34888 0.82118 0.0
H1504 H 0.43013 0.33104 0.84745 0.0
H1505 H 0.41941 0.37366 0.95227 0.0
H1506 H 0.41105 0.36081 0.9846 0.0
H1507 H 0.39037 0.37187 0.95882 0.0
H1508 H 0.37015 0.33451 0.95047 0.0
H1509 H 0.39086 0.32332 0.97616 0.0
H1510 H 0.38533 0.31081 0.93808 0.0
H1511 H 0.45915 0.31555 0.88329 0.0
H1512 H 0.48399 0.30481 0.92675 0.0
H1513 H 0.43523 0.3268 0.98854 0.0
C1514 C 0.38193 0.35468 0.89356 0.0
C1515 C 0.38126 0.35656 0.86197 0.0
C1516 C 0.39879 0.34788 0.84547 0.0
C1517 C 0.41674 0.33756 0.86014 0.0
C1518 C 0.41689 0.336 0.89129 0.0
C1519 C 0.39998 0.34436 0.90783 0.0
C1520 C 0.40452 0.34124 0.94125 0.0
C1521 C 0.40646 0.3632 0.96035 0.0
C1522 C 0.38665 0.32659 0.95212 0.0
C1523 C 0.42673 0.33 0.94096 0.0
C1524 C 0.43353 0.32699 0.91189 0.0
C1525 C 0.45392 0.31766 0.9061 0.0
C1526 C 0.46786 0.31157 0.93076 0.0
C1527 C 0.46129 0.31492 0.96062 0.0
C1528 C 0.44038 0.32393 0.96573 0.0
H1529 H 0.78534 0.35964 0.97521 0.0
H1530 H 0.76784 0.39247 0.89398 0.0
H1531 H 0.77013 0.42769 0.9245 0.0
H1532 H 0.75538 0.39497 0.0265 0.0
H1533 H 0.77637 0.39418 0.0577 0.0
H1534 H 0.77266 0.37144 0.02958 0.0
H1535 H 0.81428 0.37403 0.01957 0.0
H1536 H 0.81807 0.39689 0.0475 0.0
H1537 H 0.82538 0.39926 0.00931 0.0
H1538 H 0.77517 0.45948 0.96343 0.0
H1539 H 0.78134 0.48557 0.00896 0.0
H1540 H 0.79611 0.43245 0.06474 0.0
C1541 C 0.78195 0.37423 0.96385 0.0
C1542 C 0.77619 0.37322 0.93219 0.0
C1543 C 0.7718 0.39273 0.91826 0.0
C1544 C 0.77326 0.41286 0.93536 0.0
C1545 C 0.77917 0.41328 0.96641 0.0
C1546 C 0.78335 0.3945 0.98059 0.0
C1547 C 0.7895 0.39951 0.01429 0.0
C1548 C 0.77245 0.38943 0.03312 0.0
C1549 C 0.81321 0.39198 0.02318 0.0
C1550 C 0.78817 0.42403 0.0168 0.0
C1551 C 0.78223 0.43164 0.98887 0.0
C1552 C 0.77984 0.45372 0.9854 0.0
C1553 C 0.78342 0.46839 0.01123 0.0
C1554 C 0.78933 0.46088 0.03998 0.0
C1555 C 0.7918 0.43847 0.04281 0.0
H1556 H 0.64337 0.2871 0.24841 0.0
H1557 H 0.69694 0.28271 0.18863 0.0
H1558 H 0.66944 0.28317 0.14418 0.0
H1559 H 0.6045 0.25311 0.20108 0.0
H1560 H 0.58066 0.26898 0.21042 0.0
H1561 H 0.60455 0.26844 0.23748 0.0
H1562 H 0.60758 0.31041 0.24054 0.0
H1563 H 0.58358 0.31108 0.21371 0.0
H1564 H 0.60929 0.32374 0.20617 0.0
H1565 H 0.63596 0.28415 0.1063 0.0
H1566 H 0.59894 0.28682 0.07808 0.0
H1567 H 0.56766 0.29067 0.16277 0.0
C1568 C 0.64937 0.28657 0.22601 0.0
C1569 C 0.6723 0.28497 0.22196 0.0
C1570 C 0.67942 0.28381 0.19222 0.0
C1571 C 0.66395 0.2841 0.16687 0.0
C1572 C 0.64144 0.28551 0.1717 0.0
C1573 C 0.63418 0.28681 0.20054 0.0
C1574 C 0.60911 0.28819 0.19962 0.0
C1575 C 0.59913 0.26851 0.21294 0.0
C1576 C 0.60198 0.30963 0.21598 0.0
C1577 C 0.60337 0.28761 0.16575 0.0
C1578 C 0.62223 0.28597 0.14998 0.0
C1579 C 0.62109 0.28541 0.1184 0.0
C1580 C 0.60012 0.28686 0.10259 0.0
C1581 C 0.58078 0.28888 0.11848 0.0
C1582 C 0.58236 0.28903 0.15033 0.0
H1583 H 0.78069 0.68959 0.2309 0.0
H1584 H 0.80177 0.67424 0.32236 0.0
H1585 H 0.81127 0.63711 0.30265 0.0
H1586 H 0.75446 0.63946 0.20767 0.0
H1587 H 0.76244 0.63819 0.16929 0.0
H1588 H 0.75943 0.6641 0.19014 0.0
H1589 H 0.79976 0.67467 0.18075 0.0
H1590 H 0.80288 0.6488 0.15974 0.0
H1591 H 0.82234 0.65721 0.19162 0.0
H1592 H 0.81619 0.60104 0.27335 0.0
H1593 H 0.81556 0.5685 0.23658 0.0
H1594 H 0.79098 0.60728 0.16443 0.0
C1595 C 0.78784 0.67856 0.24664 0.0
C1596 C 0.7908 0.6848 0.2781 0.0
C1597 C 0.79949 0.66974 0.29817 0.0
C1598 C 0.80498 0.64868 0.28717 0.0
C1599 C 0.80158 0.64293 0.25606 0.0
C1600 C 0.79322 0.65744 0.23607 0.0
C1601 C 0.78973 0.64678 0.20399 0.0
C1602 C 0.76505 0.64716 0.19209 0.0
C1603 C 0.80457 0.65751 0.18277 0.0
C1604 C 0.79722 0.62396 0.20908 0.0
C1605 C 0.80415 0.6221 0.23924 0.0
C1606 C 0.81103 0.60236 0.24965 0.0
C1607 C 0.81066 0.58402 0.22871 0.0
C1608 C 0.80344 0.58561 0.19787 0.0
C1609 C 0.79681 0.60583 0.18792 0.0
H1610 H 0.34429 0.85928 0.13153 0.0
H1611 H 0.3528 0.9223 0.18187 0.0
H1612 H 0.38916 0.92691 0.16087 0.0
H1613 H 0.40111 0.84279 0.13884 0.0
H1614 H 0.40081 0.82997 0.10078 0.0
H1615 H 0.37555 0.83152 0.11986 0.0
H1616 H 0.356 0.85073 0.07543 0.0
H1617 H 0.38115 0.8491 0.05613 0.0
H1618 H 0.3683 0.875 0.06384 0.0
H1619 H 0.42535 0.92361 0.13685 0.0
H1620 H 0.45749 0.91455 0.10783 0.0
H1621 H 0.42398 0.85503 0.06896 0.0
C1622 C 0.35386 0.87404 0.13802 0.0
C1623 C 0.34591 0.89045 0.15834 0.0
C1624 C 0.35866 0.90964 0.16621 0.0
C1625 C 0.37932 0.91233 0.15451 0.0
C1626 C 0.38678 0.8958 0.13464 0.0
C1627 C 0.37433 0.87717 0.12608 0.0
C1628 C 0.38592 0.86221 0.10366 0.0
C1629 C 0.39115 0.84033 0.11657 0.0
C1630 C 0.37201 0.85908 0.07294 0.0
C1631 C 0.40698 0.87522 0.10128 0.0
C1632 C 0.40719 0.89443 0.11954 0.0
C1633 C 0.42519 0.9088 0.12202 0.0
C1634 C 0.44335 0.90354 0.10513 0.0
C1635 C 0.44335 0.8842 0.08544 0.0
C1636 C 0.4248 0.86987 0.08376 0.0
H1637 H 0.22677 0.48803 0.15677 0.0
H1638 H 0.29598 0.46907 0.15796 0.0
H1639 H 0.30316 0.4972 0.12373 0.0
H1640 H 0.22051 0.50054 0.07719 0.0
H1641 H 0.20311 0.52368 0.08445 0.0
H1642 H 0.20287 0.50143 0.10817 0.0
H1643 H 0.2126 0.52792 0.1558 0.0
H1644 H 0.21281 0.55024 0.13225 0.0
H1645 H 0.23688 0.5452 0.15739 0.0
H1646 H 0.30352 0.5277 0.09086 0.0
H1647 H 0.29732 0.55985 0.06221 0.0
H1648 H 0.22791 0.56016 0.08131 0.0
C1649 C 0.24337 0.4897 0.14957 0.0
C1650 C 0.26087 0.47637 0.16029 0.0
C1651 C 0.28239 0.47925 0.15052 0.0
C1652 C 0.28661 0.49509 0.13085 0.0
C1653 C 0.26914 0.50806 0.12097 0.0
C1654 C 0.24794 0.50565 0.12996 0.0
C1655 C 0.23244 0.52241 0.11669 0.0
C1656 C 0.21362 0.51135 0.09536 0.0
C1657 C 0.22314 0.53732 0.14204 0.0
C1658 C 0.24833 0.53469 0.09912 0.0
C1659 C 0.26937 0.52595 0.10185 0.0
C1660 C 0.28712 0.53466 0.08852 0.0
C1661 C 0.28344 0.55299 0.07236 0.0
C1662 C 0.26218 0.56261 0.0696 0.0
C1663 C 0.24429 0.55306 0.08279 0.0
H1664 H 0.33898 0.33605 0.16826 0.0
H1665 H 0.35175 0.29843 0.24584 0.0
H1666 H 0.38666 0.28497 0.22526 0.0
H1667 H 0.36152 0.29798 0.11144 0.0
H1668 H 0.37325 0.31936 0.0923 0.0
H1669 H 0.34851 0.32416 0.1119 0.0
H1670 H 0.36783 0.35701 0.14351 0.0
H1671 H 0.39272 0.35233 0.1243 0.0
H1672 H 0.39396 0.35336 0.16514 0.0
H1673 H 0.42074 0.27669 0.1964 0.0
H1674 H 0.45211 0.27596 0.16354 0.0
H1675 H 0.41698 0.3204 0.10654 0.0
C1676 C 0.34887 0.32456 0.18053 0.0
C1677 C 0.34261 0.31787 0.20826 0.0
C1678 C 0.3563 0.3035 0.22436 0.0
C1679 C 0.37604 0.29578 0.21282 0.0
C1680 C 0.38182 0.30282 0.18539 0.0
C1681 C 0.36864 0.31697 0.16957 0.0
C1682 C 0.37918 0.32337 0.14183 0.0
C1683 C 0.36475 0.31575 0.11264 0.0
C1684 C 0.3837 0.34797 0.14384 0.0
C1685 C 0.40052 0.31079 0.14459 0.0
C1686 C 0.40166 0.29878 0.16958 0.0
C1687 C 0.41999 0.28598 0.17675 0.0
C1688 C 0.43766 0.28562 0.15798 0.0
C1689 C 0.43691 0.29822 0.13273 0.0
C1690 C 0.41803 0.31079 0.12592 0.0
H1691 H 0.7579 0.35506 0.25333 0.0
H1692 H 0.7961 0.37204 0.3392 0.0
H1693 H 0.8081 0.4064 0.32028 0.0
H1694 H 0.79598 0.37791 0.20479 0.0
H1695 H 0.77396 0.38758 0.17962 0.0
H1696 H 0.7695 0.36389 0.19943 0.0
H1697 H 0.73509 0.38188 0.22194 0.0
H1698 H 0.73949 0.40565 0.20232 0.0
H1699 H 0.7381 0.40812 0.24289 0.0
H1700 H 0.81564 0.43894 0.29193 0.0
H1701 H 0.81677 0.46808 0.25702 0.0
H1702 H 0.77245 0.43016 0.1907 0.0
C1703 C 0.76903 0.36591 0.26794 0.0
C1704 C 0.77625 0.36097 0.29758 0.0
C1705 C 0.79042 0.37567 0.3164 0.0
C1706 C 0.79735 0.39513 0.30583 0.0
C1707 C 0.78979 0.39963 0.27652 0.0
C1708 C 0.77586 0.38549 0.2579 0.0
C1709 C 0.7693 0.39458 0.22789 0.0
C1710 C 0.77769 0.38013 0.20137 0.0
C1711 C 0.74399 0.39775 0.22352 0.0
C1712 C 0.78163 0.41608 0.23258 0.0
C1713 C 0.79354 0.41862 0.26063 0.0
C1714 C 0.80637 0.43715 0.26992 0.0
C1715 C 0.80695 0.45356 0.25 0.0
C1716 C 0.79458 0.45135 0.22138 0.0
C1717 C 0.78183 0.43235 0.21264 0.0
H1718 H 0.65687 0.80163 0.17452 0.0
H1719 H 0.62659 0.82544 0.25622 0.0
H1720 H 0.59659 0.84193 0.2249 0.0
H1721 H 0.64597 0.84876 0.13407 0.0
H1722 H 0.64043 0.83357 0.09774 0.0
H1723 H 0.65913 0.823 0.12653 0.0
H1724 H 0.6355 0.78761 0.12301 0.0
H1725 H 0.61682 0.79803 0.09407 0.0
H1726 H 0.60615 0.78924 0.12787 0.0
H1727 H 0.56993 0.85602 0.18449 0.0
H1728 H 0.54825 0.86577 0.13766 0.0
H1729 H 0.59693 0.83414 0.08305 0.0
C1730 C 0.64398 0.81037 0.18587 0.0
C1731 C 0.64404 0.81214 0.21784 0.0
C1732 C 0.6267 0.82352 0.23175 0.0
C1733 C 0.60969 0.83311 0.21417 0.0
C1734 C 0.61031 0.83126 0.18274 0.0
C1735 C 0.62698 0.82013 0.16872 0.0
C1736 C 0.62388 0.82054 0.13458 0.0
C1737 C 0.64352 0.83216 0.12253 0.0
C1738 C 0.62038 0.79748 0.11897 0.0
C1739 C 0.60286 0.83365 0.13157 0.0
C1740 C 0.59525 0.83968 0.15959 0.0
C1741 C 0.57578 0.85148 0.16245 0.0
C1742 C 0.56365 0.857 0.1359 0.0
C1743 C 0.57115 0.85077 0.10713 0.0
C1744 C 0.59107 0.83918 0.10496 0.0
H1745 H 0.1952 0.762 0.17888 0.0
H1746 H 0.19407 0.8113 0.1145 0.0
H1747 H 0.19562 0.78305 0.07281 0.0
H1748 H 0.23674 0.73336 0.14762 0.0
H1749 H 0.22684 0.70675 0.15413 0.0
H1750 H 0.21961 0.72992 0.17839 0.0
H1751 H 0.17771 0.72061 0.16627 0.0
H1752 H 0.18482 0.6972 0.14211 0.0
H1753 H 0.1663 0.71724 0.1273 0.0
H1754 H 0.20423 0.75091 0.03921 0.0
H1755 H 0.21929 0.7167 0.01648 0.0
H1756 H 0.21735 0.68828 0.10215 0.0
C1757 C 0.19469 0.76687 0.15597 0.0
C1758 C 0.19411 0.78901 0.15023 0.0
C1759 C 0.19366 0.79455 0.11976 0.0
C1760 C 0.19473 0.77855 0.09574 0.0
C1761 C 0.19633 0.75703 0.10239 0.0
C1762 C 0.19621 0.75112 0.13174 0.0
C1763 C 0.2014 0.72729 0.13329 0.0
C1764 C 0.22239 0.72417 0.15461 0.0
C1765 C 0.18136 0.71485 0.1428 0.0
C1766 C 0.20542 0.72102 0.10049 0.0
C1767 C 0.20195 0.73832 0.08293 0.0
C1768 C 0.2065 0.73709 0.05252 0.0
C1769 C 0.21508 0.71774 0.03984 0.0
C1770 C 0.21919 0.70012 0.0577 0.0
C1771 C 0.21393 0.70158 0.08814 0.0
H1772 H 0.36795 0.88801 0.87619 0.0
H1773 H 0.39448 0.88949 0.78838 0.0
H1774 H 0.43266 0.88779 0.81273 0.0
H1775 H 0.41169 0.92056 0.91985 0.0
H1776 H 0.41189 0.90472 0.95217 0.0
H1777 H 0.38664 0.90697 0.92805 0.0
H1778 H 0.38368 0.86506 0.91931 0.0
H1779 H 0.40885 0.86271 0.94349 0.0
H1780 H 0.40676 0.85002 0.90526 0.0
H1781 H 0.46783 0.88513 0.84628 0.0
H1782 H 0.4976 0.88007 0.88701 0.0
H1783 H 0.44834 0.87989 0.95271 0.0
C1784 C 0.38184 0.88815 0.8622 0.0
C1785 C 0.37834 0.88881 0.83044 0.0
C1786 C 0.39685 0.88873 0.81273 0.0
C1787 C 0.41857 0.88794 0.82637 0.0
C1788 C 0.42148 0.88718 0.85771 0.0
C1789 C 0.40365 0.88718 0.87543 0.0
C1790 C 0.41134 0.88537 0.90847 0.0
C1791 C 0.40501 0.90562 0.9283 0.0
C1792 C 0.40211 0.86455 0.91978 0.0
C1793 C 0.43624 0.8842 0.90649 0.0
C1794 C 0.44177 0.88546 0.87705 0.0
C1795 C 0.46374 0.88426 0.86945 0.0
C1796 C 0.48049 0.88145 0.89257 0.0
C1797 C 0.47504 0.87985 0.92266 0.0
C1798 C 0.45274 0.88136 0.92977 0.0
H1799 H 0.30973 0.48571 0.9141 0.0
H1800 H 0.33237 0.50223 0.82821 0.0
H1801 H 0.33293 0.5407 0.84644 0.0
H1802 H 0.27115 0.52673 0.91803 0.0
H1803 H 0.27455 0.53237 0.95868 0.0
H1804 H 0.28036 0.50576 0.94187 0.0
H1805 H 0.32016 0.50809 0.96891 0.0
H1806 H 0.31439 0.53475 0.9859 0.0
H1807 H 0.33805 0.5307 0.96381 0.0
H1808 H 0.32628 0.57755 0.87043 0.0
H1809 H 0.31185 0.61007 0.89871 0.0
H1810 H 0.29123 0.57014 0.96723 0.0
C1811 C 0.31517 0.49731 0.89922 0.0
C1812 C 0.32137 0.49063 0.86982 0.0
C1813 C 0.32827 0.50658 0.85122 0.0
C1814 C 0.32849 0.52863 0.86127 0.0
C1815 C 0.32165 0.53463 0.88993 0.0
C1816 C 0.31509 0.51946 0.90868 0.0
C1817 C 0.3059 0.5303 0.93684 0.0
C1818 C 0.28155 0.52338 0.93895 0.0
C1819 C 0.32051 0.52568 0.96557 0.0
C1820 C 0.30767 0.55386 0.93047 0.0
C1821 C 0.31719 0.55604 0.90355 0.0
C1822 C 0.3192 0.57612 0.89182 0.0
C1823 C 0.311 0.59443 0.90789 0.0
C1824 C 0.30085 0.59234 0.93506 0.0
C1825 C 0.2994 0.57196 0.94671 0.0
H1826 H 0.68805 0.2629 0.91674 0.0
H1827 H 0.68259 0.31675 0.85998 0.0
H1828 H 0.64741 0.32747 0.88139 0.0
H1829 H 0.62935 0.24949 0.9109 0.0
H1830 H 0.6294 0.24276 0.94966 0.0
H1831 H 0.65419 0.23921 0.92983 0.0
H1832 H 0.67636 0.26359 0.97239 0.0
H1833 H 0.65164 0.26721 0.99234 0.0
H1834 H 0.66667 0.29053 0.98253 0.0
H1835 H 0.61363 0.33308 0.90986 0.0
H1836 H 0.58227 0.33226 0.94234 0.0
H1837 H 0.60909 0.27442 0.97992 0.0
C1838 C 0.67941 0.27694 0.90889 0.0
C1839 C 0.6879 0.28893 0.8866 0.0
C1840 C 0.67615 0.30716 0.87672 0.0
C1841 C 0.65624 0.31344 0.88886 0.0
C1842 C 0.64827 0.30127 0.91074 0.0
C1843 C 0.65937 0.28334 0.92058 0.0
C1844 C 0.64705 0.27303 0.94421 0.0
C1845 C 0.63955 0.24974 0.93296 0.0
C1846 C 0.66128 0.27363 0.97467 0.0
C1847 C 0.62739 0.28805 0.94619 0.0
C1848 C 0.62849 0.30429 0.9268 0.0
C1849 C 0.6125 0.3204 0.92507 0.0
C1850 C 0.59484 0.31987 0.94364 0.0
C1851 C 0.59329 0.30325 0.96346 0.0
C1852 C 0.60977 0.28715 0.96466 0.0
H1853 H 0.83747 0.66348 0.95427 0.0
H1854 H 0.78251 0.64677 0.88678 0.0
H1855 H 0.77385 0.61479 0.91342 0.0
H1856 H 0.85394 0.60781 0.9674 0.0
H1857 H 0.86017 0.61426 0.00759 0.0
H1858 H 0.86343 0.63471 0.98159 0.0
H1859 H 0.83725 0.66007 0.01136 0.0
H1860 H 0.83386 0.63971 0.03736 0.0
H1861 H 0.80978 0.65055 0.01731 0.0
H1862 H 0.76915 0.5865 0.94936 0.0
H1863 H 0.76947 0.56304 0.9918 0.0
H1864 H 0.82697 0.59847 0.03641 0.0
C1865 C 0.82374 0.65299 0.94495 0.0
C1866 C 0.8108 0.65752 0.91827 0.0
C1867 C 0.79297 0.64337 0.9068 0.0
C1868 C 0.78782 0.62524 0.92187 0.0
C1869 C 0.80069 0.62143 0.94833 0.0
C1870 C 0.81835 0.63481 0.95972 0.0
C1871 C 0.82884 0.62767 0.98938 0.0
C1872 C 0.85303 0.6207 0.98629 0.0
C1873 C 0.82733 0.64556 0.01538 0.0
C1874 C 0.81401 0.60846 0.99316 0.0
C1875 C 0.79795 0.60508 0.96916 0.0
C1876 C 0.78176 0.58885 0.96817 0.0
C1877 C 0.78197 0.57573 0.99243 0.0
C1878 C 0.79825 0.57895 0.01728 0.0
C1879 C 0.81454 0.59545 0.01746 0.0
loop_
_geom_bond_atom_site_label_1
_geom_bond_atom_site_label_2
_geom_bond_distance
_geom_bond_site_symmetry_2
_ccdc_geom_bond_type
H0 O26 0.856 . S
H1 O29 0.854 . S
H2 C37 0.930 . S
H3 C38 0.930 . S
H4 C40 0.930 . S
H5 C41 0.930 . S
H6 C43 0.931 . S
H7 C44 0.930 . S
H8 C46 0.930 . S
H9 C47 0.929 . S
H10 C49 0.930 . S
H11 C50 0.931 . S
H12 C52 0.930 . S
H13 C53 0.929 . S
H14 C55 0.931 . S
H15 C56 0.930 . S
H16 C58 0.930 . S
H17 C59 0.932 . S
H18 C61 0.930 . S
H19 C62 0.929 . S
H20 C64 0.931 . S
H21 C65 0.930 . S
H22 C67 0.929 . S
H23 C68 0.931 . S
H24 C70 0.930 . S
H25 C71 0.929 . S
O26 H0 0.856 . S
O26 C72 1.300 . S
O27 C72 1.209 . S
O28 C73 1.199 . S
O29 H1 0.854 . S
O29 C73 1.297 . S
C30 C31 1.404 . S
C30 C35 1.397 . S
C30 C36 1.492 . S
C31 C30 1.404 . S
C31 C32 1.396 . S
C31 C42 1.492 . S
C32 C31 1.396 . S
C32 C33 1.397 . S
C32 C48 1.509 . S
C33 C32 1.397 . S
C33 C34 1.412 . S
C33 C54 1.485 . S
C34 C33 1.412 . S
C34 C35 1.388 . S
C34 C60 1.490 . S
C35 C30 1.397 . S
C35 C34 1.388 . S
C35 C66 1.519 . S
C36 C30 1.492 . S
C36 C37 1.363 . S
C36 C41 1.390 . S
C37 H2 0.930 . S
C37 C36 1.363 . S
C37 C38 1.372 . S
C38 H3 0.930 . S
C38 C37 1.372 . S
C38 C39 1.383 . S
C39 C38 1.383 . S
C39 C40 1.395 . S
C40 H4 0.930 . S
C40 C39 1.395 . S
C40 C41 1.362 . S
C41 H5 0.930 . S
C41 C36 1.390 . S
C41 C40 1.362 . S
C42 C31 1.492 . S
C42 C43 1.377 . S
C42 C47 1.397 . S
C43 H6 0.931 . S
C43 C42 1.377 . S
C43 C44 1.376 . S
C44 H7 0.930 . S
C44 C43 1.376 . S
C44 C45 1.376 . S
C45 C44 1.376 . S
C45 C46 1.378 . S
C45 C72 1.486 . S
C46 H8 0.930 . S
C46 C45 1.378 . S
C46 C47 1.376 . S
C47 H9 0.929 . S
C47 C42 1.397 . S
C47 C46 1.376 . S
C48 C32 1.509 . S
C48 C49 1.391 . S
C48 C53 1.386 . S
C49 H10 0.930 . S
C49 C48 1.391 . S
C49 C50 1.375 . S
C50 H11 0.931 . S
C50 C49 1.375 . S
C50 C51 1.375 . S
C51 C50 1.375 . S
C51 C52 1.361 . S
C52 H12 0.930 . S
C52 C51 1.361 . S
C52 C53 1.399 . S
C53 H13 0.929 . S
C53 C48 1.386 . S
C53 C52 1.399 . S
C54 C33 1.485 . S
C54 C55 1.394 . S
C54 C59 1.360 . S
C55 H14 0.931 . S
C55 C54 1.394 . S
C55 C56 1.372 . S
C56 H15 0.930 . S
C56 C55 1.372 . S
C56 C57 1.397 . S
C57 C56 1.397 . S
C57 C58 1.390 . S
C57 C73 1.476 . S
C58 H16 0.930 . S
C58 C57 1.390 . S
C58 C59 1.366 . S
C59 H17 0.932 . S
C59 C54 1.360 . S
C59 C58 1.366 . S
C60 C34 1.490 . S
C60 C61 1.380 . S
C60 C65 1.386 . S
C61 H18 0.930 . S
C61 C60 1.380 . S
C61 C62 1.381 . S
C62 H19 0.929 . S
C62 C61 1.381 . S
C62 C63 1.371 . S
C63 C62 1.371 . S
C63 C64 1.380 . S
C64 H20 0.931 . S
C64 C63 1.380 . S
C64 C65 1.387 . S
C65 H21 0.930 . S
C65 C60 1.386 . S
C65 C64 1.387 . S
C66 C35 1.519 . S
C66 C67 1.377 . S
C66 C71 1.361 . S
C67 H22 0.929 . S
C67 C66 1.377 . S
C67 C68 1.386 . S
C68 H23 0.931 . S
C68 C67 1.386 . S
C68 C69 1.363 . S
C69 C68 1.363 . S
C69 C70 1.385 . S
C70 H24 0.930 . S
C70 C69 1.385 . S
C70 C71 1.396 . S
C71 H25 0.929 . S
C71 C66 1.361 . S
C71 C70 1.396 . S
C72 O26 1.300 . S
C72 O27 1.209 . S
C72 C45 1.486 . S
C73 O28 1.199 . S
C73 O29 1.297 . S
C73 C57 1.476 . S
H74 O100 0.856 . S
H75 O103 0.854 . S
H76 C111 0.930 . S
H77 C112 0.930 . S
H78 C114 0.930 . S
H79 C115 0.930 . S
H80 C117 0.931 . S
H81 C118 0.930 . S
H82 C120 0.930 . S
H83 C121 0.929 . S
H84 C123 0.930 . S
H85 C124 0.931 . S
H86 C126 0.930 . S
H87 C127 0.929 . S
H88 C129 0.931 . S
H89 C130 0.930 . S
H90 C132 0.930 . S
H91 C133 0.932 . S
H92 C135 0.930 . S
H93 C136 0.929 . S
H94 C138 0.931 . S
H95 C139 0.930 . S
H96 C141 0.929 . S
H97 C142 0.931 . S
H98 C144 0.930 . S
H99 C145 0.929 . S
O100 H74 0.856 . S
O100 C146 1.300 . S
O101 C146 1.209 . S
O102 C147 1.199 . S
O103 H75 0.854 . S
O103 C147 1.297 . S
C104 C105 1.404 . S
C104 C109 1.397 . S
C104 C110 1.492 . S
C105 C104 1.404 . S
C105 C106 1.396 . S
C105 C116 1.492 . S
C106 C105 1.396 . S
C106 C107 1.397 . S
C106 C122 1.509 . S
C107 C106 1.397 . S
C107 C108 1.412 . S
C107 C128 1.485 . S
C108 C107 1.412 . S
C108 C109 1.388 . S
C108 C134 1.490 . S
C109 C104 1.397 . S
C109 C108 1.388 . S
C109 C140 1.519 . S
C110 C104 1.492 . S
C110 C111 1.363 . S
C110 C115 1.390 . S
C111 H76 0.930 . S
C111 C110 1.363 . S
C111 C112 1.372 . S
C112 H77 0.930 . S
C112 C111 1.372 . S
C112 C113 1.383 . S
C113 C112 1.383 . S
C113 C114 1.395 . S
C114 H78 0.930 . S
C114 C113 1.395 . S
C114 C115 1.362 . S
C115 H79 0.930 . S
C115 C110 1.390 . S
C115 C114 1.362 . S
C116 C105 1.492 . S
C116 C117 1.377 . S
C116 C121 1.397 . S
C117 H80 0.931 . S
C117 C116 1.377 . S
C117 C118 1.376 . S
C118 H81 0.930 . S
C118 C117 1.376 . S
C118 C119 1.376 . S
C119 C118 1.376 . S
C119 C120 1.378 . S
C119 C146 1.486 . S
C120 H82 0.930 . S
C120 C119 1.378 . S
C120 C121 1.376 . S
C121 H83 0.929 . S
C121 C116 1.397 . S
C121 C120 1.376 . S
C122 C106 1.509 . S
C122 C123 1.391 . S
C122 C127 1.386 . S
C123 H84 0.930 . S
C123 C122 1.391 . S
C123 C124 1.375 . S
C124 H85 0.931 . S
C124 C123 1.375 . S
C124 C125 1.375 . S
C125 C124 1.375 . S
C125 C126 1.361 . S
C126 H86 0.930 . S
C126 C125 1.361 . S
C126 C127 1.399 . S
C127 H87 0.929 . S
C127 C122 1.386 . S
C127 C126 1.399 . S
C128 C107 1.485 . S
C128 C129 1.394 . S
C128 C133 1.360 . S
C129 H88 0.931 . S
C129 C128 1.394 . S
C129 C130 1.372 . S
C130 H89 0.930 . S
C130 C129 1.372 . S
C130 C131 1.397 . S
C131 C130 1.397 . S
C131 C132 1.390 . S
C131 C147 1.476 . S
C132 H90 0.930 . S
C132 C131 1.390 . S
C132 C133 1.366 . S
C133 H91 0.932 . S
C133 C128 1.360 . S
C133 C132 1.366 . S
C134 C108 1.490 . S
C134 C135 1.380 . S
C134 C139 1.386 . S
C135 H92 0.930 . S
C135 C134 1.380 . S
C135 C136 1.381 . S
C136 H93 0.929 . S
C136 C135 1.381 . S
C136 C137 1.371 . S
C137 C136 1.371 . S
C137 C138 1.380 . S
C138 H94 0.931 . S
C138 C137 1.380 . S
C138 C139 1.387 . S
C139 H95 0.930 . S
C139 C134 1.386 . S
C139 C138 1.387 . S
C140 C109 1.519 . S
C140 C141 1.377 . S
C140 C145 1.361 . S
C141 H96 0.929 . S
C141 C140 1.377 . S
C141 C142 1.386 . S
C142 H97 0.931 . S
C142 C141 1.386 . S
C142 C143 1.363 . S
C143 C142 1.363 . S
C143 C144 1.385 . S
C144 H98 0.930 . S
C144 C143 1.385 . S
C144 C145 1.396 . S
C145 H99 0.929 . S
C145 C140 1.361 . S
C145 C144 1.396 . S
C146 O100 1.300 . S
C146 O101 1.209 . S
C146 C119 1.486 . S
C147 O102 1.199 . S
C147 O103 1.297 . S
C147 C131 1.476 . S
H148 O174 0.856 . S
H149 O177 0.854 . S
H150 C185 0.930 . S
H151 C186 0.930 . S
H152 C188 0.930 . S
H153 C189 0.930 . S
H154 C191 0.931 . S
H155 C192 0.930 . S
H156 C194 0.930 . S
H157 C195 0.929 . S
H158 C197 0.930 . S
H159 C198 0.931 . S
H160 C200 0.930 . S
H161 C201 0.929 . S
H162 C203 0.931 . S
H163 C204 0.930 . S
H164 C206 0.930 . S
H165 C207 0.932 . S
H166 C209 0.930 . S
H167 C210 0.929 . S
H168 C212 0.931 . S
H169 C213 0.930 . S
H170 C215 0.929 . S
H171 C216 0.931 . S
H172 C218 0.930 . S
H173 C219 0.929 . S
O174 H148 0.856 . S
O174 C220 1.300 . S
O175 C220 1.209 . S
O176 C221 1.199 . S
O177 H149 0.854 . S
O177 C221 1.297 . S
C178 C179 1.404 . S
C178 C183 1.397 . S
C178 C184 1.492 . S
C179 C178 1.404 . S
C179 C180 1.396 . S
C179 C190 1.492 . S
C180 C179 1.396 . S
C180 C181 1.397 . S
C180 C196 1.509 . S
C181 C180 1.397 . S
C181 C182 1.412 . S
C181 C202 1.485 . S
C182 C181 1.412 . S
C182 C183 1.388 . S
C182 C208 1.490 . S
C183 C178 1.397 . S
C183 C182 1.388 . S
C183 C214 1.519 . S
C184 C178 1.492 . S
C184 C185 1.363 . S
C184 C189 1.390 . S
C185 H150 0.930 . S
C185 C184 1.363 . S
C185 C186 1.372 . S
C186 H151 0.930 . S
C186 C185 1.372 . S
C186 C187 1.383 . S
C187 C186 1.383 . S
C187 C188 1.395 . S
C188 H152 0.930 . S
C188 C187 1.395 . S
C188 C189 1.362 . S
C189 H153 0.930 . S
C189 C184 1.390 . S
C189 C188 1.362 . S
C190 C179 1.492 . S
C190 C191 1.377 . S
C190 C195 1.397 . S
C191 H154 0.931 . S
C191 C190 1.377 . S
C191 C192 1.376 . S
C192 H155 0.930 . S
C192 C191 1.376 . S
C192 C193 1.376 . S
C193 C192 1.376 . S
C193 C194 1.378 . S
C193 C220 1.486 . S
C194 H156 0.930 . S
C194 C193 1.378 . S
C194 C195 1.376 . S
C195 H157 0.929 . S
C195 C190 1.397 . S
C195 C194 1.376 . S
C196 C180 1.509 . S
C196 C197 1.391 . S
C196 C201 1.386 . S
C197 H158 0.930 . S
C197 C196 1.391 . S
C197 C198 1.375 . S
C198 H159 0.931 . S
C198 C197 1.375 . S
C198 C199 1.375 . S
C199 C198 1.375 . S
C199 C200 1.361 . S
C200 H160 0.930 . S
C200 C199 1.361 . S
C200 C201 1.399 . S
C201 H161 0.929 . S
C201 C196 1.386 . S
C201 C200 1.399 . S
C202 C181 1.485 . S
C202 C203 1.394 . S
C202 C207 1.360 . S
C203 H162 0.931 . S
C203 C202 1.394 . S
C203 C204 1.372 . S
C204 H163 0.930 . S
C204 C203 1.372 . S
C204 C205 1.397 . S
C205 C204 1.397 . S
C205 C206 1.390 . S
C205 C221 1.476 . S
C206 H164 0.930 . S
C206 C205 1.390 . S
C206 C207 1.366 . S
C207 H165 0.932 . S
C207 C202 1.360 . S
C207 C206 1.366 . S
C208 C182 1.490 . S
C208 C209 1.380 . S
C208 C213 1.386 . S
C209 H166 0.930 . S
C209 C208 1.380 . S
C209 C210 1.381 . S
C210 H167 0.929 . S
C210 C209 1.381 . S
C210 C211 1.371 . S
C211 C210 1.371 . S
C211 C212 1.380 . S
C212 H168 0.931 . S
C212 C211 1.380 . S
C212 C213 1.387 . S
C213 H169 0.930 . S
C213 C208 1.386 . S
C213 C212 1.387 . S
C214 C183 1.519 . S
C214 C215 1.377 . S
C214 C219 1.361 . S
C215 H170 0.929 . S
C215 C214 1.377 . S
C215 C216 1.386 . S
C216 H171 0.931 . S
C216 C215 1.386 . S
C216 C217 1.363 . S
C217 C216 1.363 . S
C217 C218 1.385 . S
C218 H172 0.930 . S
C218 C217 1.385 . S
C218 C219 1.396 . S
C219 H173 0.929 . S
C219 C214 1.361 . S
C219 C218 1.396 . S
C220 O174 1.300 . S
C220 O175 1.209 . S
C220 C193 1.486 . S
C221 O176 1.199 . S
C221 O177 1.297 . S
C221 C205 1.476 . S
H222 O248 0.856 1_545 S
H223 O251 0.854 . S
H224 C259 0.930 . S
H225 C260 0.930 . S
H226 C262 0.930 . S
H227 C263 0.930 . S
H228 C265 0.931 . S
H229 C266 0.930 . S
H230 C268 0.930 . S
H231 C269 0.929 . S
H232 C271 0.930 . S
H233 C272 0.931 . S
H234 C274 0.930 . S
H235 C275 0.929 . S
H236 C277 0.931 . S
H237 C278 0.930 . S
H238 C280 0.930 . S
H239 C281 0.932 . S
H240 C283 0.930 . S
H241 C284 0.929 . S
H242 C286 0.931 . S
H243 C287 0.930 . S
H244 C289 0.929 . S
H245 C290 0.931 . S
H246 C292 0.930 . S
H247 C293 0.929 . S
O248 H222 0.856 1_565 S
O248 C294 1.300 . S
O249 C294 1.209 1_545 S
O250 C295 1.199 . S
O251 H223 0.854 . S
O251 C295 1.297 . S
C252 C253 1.404 . S
C252 C257 1.397 . S
C252 C258 1.492 . S
C253 C252 1.404 . S
C253 C254 1.396 . S
C253 C264 1.492 . S
C254 C253 1.396 . S
C254 C255 1.397 . S
C254 C270 1.509 . S
C255 C254 1.397 . S
C255 C256 1.412 . S
C255 C276 1.485 . S
C256 C255 1.412 . S
C256 C257 1.388 . S
C256 C282 1.490 . S
C257 C252 1.397 . S
C257 C256 1.388 . S
C257 C288 1.519 . S
C258 C252 1.492 . S
C258 C259 1.363 . S
C258 C263 1.390 . S
C259 H224 0.930 . S
C259 C258 1.363 . S
C259 C260 1.372 . S
C260 H225 0.930 . S
C260 C259 1.372 . S
C260 C261 1.383 . S
C261 C260 1.383 . S
C261 C262 1.395 . S
C262 H226 0.930 . S
C262 C261 1.395 . S
C262 C263 1.362 . S
C263 H227 0.930 . S
C263 C258 1.390 . S
C263 C262 1.362 . S
C264 C253 1.492 . S
C264 C265 1.377 . S
C264 C269 1.397 . S
C265 H228 0.931 . S
C265 C264 1.377 . S
C265 C266 1.376 . S
C266 H229 0.930 . S
C266 C265 1.376 . S
C266 C267 1.376 . S
C267 C266 1.376 . S
C267 C268 1.378 . S
C267 C294 1.486 . S
C268 H230 0.930 . S
C268 C267 1.378 . S
C268 C269 1.376 . S
C269 H231 0.929 . S
C269 C264 1.397 . S
C269 C268 1.376 . S
C270 C254 1.509 . S
C270 C271 1.391 . S
C270 C275 1.386 . S
C271 H232 0.930 . S
C271 C270 1.391 . S
C271 C272 1.375 . S
C272 H233 0.931 . S
C272 C271 1.375 . S
C272 C273 1.375 . S
C273 C272 1.375 . S
C273 C274 1.361 . S
C274 H234 0.930 . S
C274 C273 1.361 . S
C274 C275 1.399 . S
C275 H235 0.929 . S
C275 C270 1.386 . S
C275 C274 1.399 . S
C276 C255 1.485 . S
C276 C277 1.394 . S
C276 C281 1.360 . S
C277 H236 0.931 . S
C277 C276 1.394 . S
C277 C278 1.372 . S
C278 H237 0.930 . S
C278 C277 1.372 . S
C278 C279 1.397 . S
C279 C278 1.397 . S
C279 C280 1.390 . S
C279 C295 1.476 . S
C280 H238 0.930 . S
C280 C279 1.390 . S
C280 C281 1.366 . S
C281 H239 0.932 . S
C281 C276 1.360 . S
C281 C280 1.366 . S
C282 C256 1.490 . S
C282 C283 1.380 . S
C282 C287 1.386 . S
C283 H240 0.930 . S
C283 C282 1.380 . S
C283 C284 1.381 . S
C284 H241 0.929 . S
C284 C283 1.381 . S
C284 C285 1.371 . S
C285 C284 1.371 . S
C285 C286 1.380 . S
C286 H242 0.931 . S
C286 C285 1.380 . S
C286 C287 1.387 . S
C287 H243 0.930 . S
C287 C282 1.386 . S
C287 C286 1.387 . S
C288 C257 1.519 . S
C288 C289 1.377 . S
C288 C293 1.361 . S
C289 H244 0.929 . S
C289 C288 1.377 . S
C289 C290 1.386 . S
C290 H245 0.931 . S
C290 C289 1.386 . S
C290 C291 1.363 . S
C291 C290 1.363 . S
C291 C292 1.385 . S
C292 H246 0.930 . S
C292 C291 1.385 . S
C292 C293 1.396 . S
C293 H247 0.929 . S
C293 C288 1.361 . S
C293 C292 1.396 . S
C294 O248 1.300 . S
C294 O249 1.209 1_565 S
C294 C267 1.486 . S
C295 O250 1.199 . S
C295 O251 1.297 . S
C295 C279 1.476 . S
H296 O322 0.856 . S
H297 O325 0.854 . S
H298 C333 0.930 . S
H299 C334 0.930 . S
H300 C336 0.930 . S
H301 C337 0.930 . S
H302 C339 0.931 . S
H303 C340 0.930 . S
H304 C342 0.930 . S
H305 C343 0.929 . S
H306 C345 0.930 . S
H307 C346 0.931 . S
H308 C348 0.930 . S
H309 C349 0.929 . S
H310 C351 0.931 . S
H311 C352 0.930 . S
H312 C354 0.930 . S
H313 C355 0.932 . S
H314 C357 0.930 . S
H315 C358 0.929 . S
H316 C360 0.931 . S
H317 C361 0.930 . S
H318 C363 0.929 . S
H319 C364 0.931 . S
H320 C366 0.930 . S
H321 C367 0.929 . S
O322 H296 0.856 . S
O322 C368 1.300 . S
O323 C368 1.209 . S
O324 C369 1.199 . S
O325 H297 0.854 . S
O325 C369 1.297 . S
C326 C327 1.404 . S
C326 C331 1.397 . S
C326 C332 1.492 . S
C327 C326 1.404 . S
C327 C328 1.396 . S
C327 C338 1.492 . S
C328 C327 1.396 . S
C328 C329 1.397 . S
C328 C344 1.509 . S
C329 C328 1.397 . S
C329 C330 1.412 . S
C329 C350 1.485 . S
C330 C329 1.412 . S
C330 C331 1.388 . S
C330 C356 1.490 . S
C331 C326 1.397 . S
C331 C330 1.388 . S
C331 C362 1.519 . S
C332 C326 1.492 . S
C332 C333 1.363 . S
C332 C337 1.390 . S
C333 H298 0.930 . S
C333 C332 1.363 . S
C333 C334 1.372 . S
C334 H299 0.930 . S
C334 C333 1.372 . S
C334 C335 1.383 . S
C335 C334 1.383 . S
C335 C336 1.395 . S
C336 H300 0.930 . S
C336 C335 1.395 . S
C336 C337 1.362 . S
C337 H301 0.930 . S
C337 C332 1.390 . S
C337 C336 1.362 . S
C338 C327 1.492 . S
C338 C339 1.377 . S
C338 C343 1.397 . S
C339 H302 0.931 . S
C339 C338 1.377 . S
C339 C340 1.376 . S
C340 H303 0.930 . S
C340 C339 1.376 . S
C340 C341 1.376 . S
C341 C340 1.376 . S
C341 C342 1.378 . S
C341 C368 1.486 . S
C342 H304 0.930 . S
C342 C341 1.378 . S
C342 C343 1.376 . S
C343 H305 0.929 . S
C343 C338 1.397 . S
C343 C342 1.376 . S
C344 C328 1.509 . S
C344 C345 1.391 . S
C344 C349 1.386 . S
C345 H306 0.930 . S
C345 C344 1.391 . S
C345 C346 1.375 . S
C346 H307 0.931 . S
C346 C345 1.375 . S
C346 C347 1.375 . S
C347 C346 1.375 . S
C347 C348 1.361 . S
C348 H308 0.930 . S
C348 C347 1.361 . S
C348 C349 1.399 . S
C349 H309 0.929 . S
C349 C344 1.386 . S
C349 C348 1.399 . S
C350 C329 1.485 . S
C350 C351 1.394 . S
C350 C355 1.360 . S
C351 H310 0.931 . S
C351 C350 1.394 . S
C351 C352 1.372 . S
C352 H311 0.930 . S
C352 C351 1.372 . S
C352 C353 1.397 . S
C353 C352 1.397 . S
C353 C354 1.390 . S
C353 C369 1.476 . S
C354 H312 0.930 . S
C354 C353 1.390 . S
C354 C355 1.366 . S
C355 H313 0.932 . S
C355 C350 1.360 . S
C355 C354 1.366 . S
C356 C330 1.490 . S
C356 C357 1.380 . S
C356 C361 1.386 . S
C357 H314 0.930 . S
C357 C356 1.380 . S
C357 C358 1.381 . S
C358 H315 0.929 . S
C358 C357 1.381 . S
C358 C359 1.371 . S
C359 C358 1.371 . S
C359 C360 1.380 . S
C360 H316 0.931 . S
C360 C359 1.380 . S
C360 C361 1.387 . S
C361 H317 0.930 . S
C361 C356 1.386 . S
C361 C360 1.387 . S
C362 C331 1.519 . S
C362 C363 1.377 . S
C362 C367 1.361 . S
C363 H318 0.929 . S
C363 C362 1.377 . S
C363 C364 1.386 . S
C364 H319 0.931 . S
C364 C363 1.386 . S
C364 C365 1.363 . S
C365 C364 1.363 . S
C365 C366 1.385 . S
C366 H320 0.930 . S
C366 C365 1.385 . S
C366 C367 1.396 . S
C367 H321 0.929 . S
C367 C362 1.361 . S
C367 C366 1.396 . S
C368 O322 1.300 . S
C368 O323 1.209 . S
C368 C341 1.486 . S
C369 O324 1.199 . S
C369 O325 1.297 . S
C369 C353 1.476 . S
H370 O396 0.856 . S
H371 O399 0.854 . S
H372 C407 0.930 . S
H373 C408 0.930 . S
H374 C410 0.930 . S
H375 C411 0.930 . S
H376 C413 0.931 . S
H377 C414 0.930 . S
H378 C416 0.930 . S
H379 C417 0.929 . S
H380 C419 0.930 . S
H381 C420 0.931 . S
H382 C422 0.930 . S
H383 C423 0.929 . S
H384 C425 0.931 . S
H385 C426 0.930 . S
H386 C428 0.930 . S
H387 C429 0.932 . S
H388 C431 0.930 . S
H389 C432 0.929 . S
H390 C434 0.931 . S
H391 C435 0.930 . S
H392 C437 0.929 . S
H393 C438 0.931 . S
H394 C440 0.930 . S
H395 C441 0.929 . S
O396 H370 0.856 . S
O396 C442 1.300 . S
O397 C442 1.209 . S
O398 C443 1.199 . S
O399 H371 0.854 . S
O399 C443 1.297 . S
C400 C401 1.404 . S
C400 C405 1.397 . S
C400 C406 1.492 . S
C401 C400 1.404 . S
C401 C402 1.396 . S
C401 C412 1.492 . S
C402 C401 1.396 . S
C402 C403 1.397 . S
C402 C418 1.509 . S
C403 C402 1.397 . S
C403 C404 1.412 . S
C403 C424 1.485 . S
C404 C403 1.412 . S
C404 C405 1.388 . S
C404 C430 1.490 . S
C405 C400 1.397 . S
C405 C404 1.388 . S
C405 C436 1.519 . S
C406 C400 1.492 . S
C406 C407 1.363 . S
C406 C411 1.390 . S
C407 H372 0.930 . S
C407 C406 1.363 . S
C407 C408 1.372 . S
C408 H373 0.930 . S
C408 C407 1.372 . S
C408 C409 1.383 . S
C409 C408 1.383 . S
C409 C410 1.395 . S
C410 H374 0.930 . S
C410 C409 1.395 . S
C410 C411 1.362 . S
C411 H375 0.930 . S
C411 C406 1.390 . S
C411 C410 1.362 . S
C412 C401 1.492 . S
C412 C413 1.377 . S
C412 C417 1.397 . S
C413 H376 0.931 . S
C413 C412 1.377 . S
C413 C414 1.376 . S
C414 H377 0.930 . S
C414 C413 1.376 . S
C414 C415 1.376 . S
C415 C414 1.376 . S
C415 C416 1.378 . S
C415 C442 1.486 . S
C416 H378 0.930 . S
C416 C415 1.378 . S
C416 C417 1.376 . S
C417 H379 0.929 . S
C417 C412 1.397 . S
C417 C416 1.376 . S
C418 C402 1.509 . S
C418 C419 1.391 . S
C418 C423 1.386 . S
C419 H380 0.930 . S
C419 C418 1.391 . S
C419 C420 1.375 . S
C420 H381 0.931 . S
C420 C419 1.375 . S
C420 C421 1.375 . S
C421 C420 1.375 . S
C421 C422 1.361 . S
C422 H382 0.930 . S
C422 C421 1.361 . S
C422 C423 1.399 . S
C423 H383 0.929 . S
C423 C418 1.386 . S
C423 C422 1.399 . S
C424 C403 1.485 . S
C424 C425 1.394 . S
C424 C429 1.360 . S
C425 H384 0.931 . S
C425 C424 1.394 . S
C425 C426 1.372 . S
C426 H385 0.930 . S
C426 C425 1.372 . S
C426 C427 1.397 . S
C427 C426 1.397 . S
C427 C428 1.390 . S
C427 C443 1.476 . S
C428 H386 0.930 . S
C428 C427 1.390 . S
C428 C429 1.366 . S
C429 H387 0.932 . S
C429 C424 1.360 . S
C429 C428 1.366 . S
C430 C404 1.490 . S
C430 C431 1.380 . S
C430 C435 1.386 . S
C431 H388 0.930 . S
C431 C430 1.380 . S
C431 C432 1.381 . S
C432 H389 0.929 . S
C432 C431 1.381 . S
C432 C433 1.371 . S
C433 C432 1.371 . S
C433 C434 1.380 . S
C434 H390 0.931 . S
C434 C433 1.380 . S
C434 C435 1.387 . S
C435 H391 0.930 . S
C435 C430 1.386 . S
C435 C434 1.387 . S
C436 C405 1.519 . S
C436 C437 1.377 . S
C436 C441 1.361 . S
C437 H392 0.929 . S
C437 C436 1.377 . S
C437 C438 1.386 . S
C438 H393 0.931 . S
C438 C437 1.386 . S
C438 C439 1.363 . S
C439 C438 1.363 . S
C439 C440 1.385 . S
C440 H394 0.930 . S
C440 C439 1.385 . S
C440 C441 1.396 . S
C441 H395 0.929 . S
C441 C436 1.361 . S
C441 C440 1.396 . S
C442 O396 1.300 . S
C442 O397 1.209 . S
C442 C415 1.486 . S
C443 O398 1.199 . S
C443 O399 1.297 . S
C443 C427 1.476 . S
H444 O470 0.856 . S
H445 O473 0.854 . S
H446 C481 0.930 . S
H447 C482 0.930 . S
H448 C484 0.930 . S
H449 C485 0.930 . S
H450 C487 0.931 . S
H451 C488 0.930 . S
H452 C490 0.930 . S
H453 C491 0.929 . S
H454 C493 0.930 . S
H455 C494 0.931 . S
H456 C496 0.930 . S
H457 C497 0.929 . S
H458 C499 0.931 . S
H459 C500 0.930 . S
H460 C502 0.930 . S
H461 C503 0.932 . S
H462 C505 0.930 . S
H463 C506 0.929 . S
H464 C508 0.931 . S
H465 C509 0.930 . S
H466 C511 0.929 . S
H467 C512 0.931 . S
H468 C514 0.930 . S
H469 C515 0.929 . S
O470 H444 0.856 . S
O470 C516 1.300 . S
O471 C516 1.209 . S
O472 C517 1.199 . S
O473 H445 0.854 . S
O473 C517 1.297 . S
C474 C475 1.404 . S
C474 C479 1.397 . S
C474 C480 1.492 . S
C475 C474 1.404 . S
C475 C476 1.396 . S
C475 C486 1.492 . S
C476 C475 1.396 . S
C476 C477 1.397 . S
C476 C492 1.509 . S
C477 C476 1.397 . S
C477 C478 1.412 . S
C477 C498 1.485 . S
C478 C477 1.412 . S
C478 C479 1.388 . S
C478 C504 1.490 . S
C479 C474 1.397 . S
C479 C478 1.388 . S
C479 C510 1.519 . S
C480 C474 1.492 . S
C480 C481 1.363 . S
C480 C485 1.390 . S
C481 H446 0.930 . S
C481 C480 1.363 . S
C481 C482 1.372 . S
C482 H447 0.930 . S
C482 C481 1.372 . S
C482 C483 1.383 . S
C483 C482 1.383 . S
C483 C484 1.395 . S
C484 H448 0.930 . S
C484 C483 1.395 . S
C484 C485 1.362 . S
C485 H449 0.930 . S
C485 C480 1.390 . S
C485 C484 1.362 . S
C486 C475 1.492 . S
C486 C487 1.377 . S
C486 C491 1.397 . S
C487 H450 0.931 . S
C487 C486 1.377 . S
C487 C488 1.376 . S
C488 H451 0.930 . S
C488 C487 1.376 . S
C488 C489 1.376 . S
C489 C488 1.376 . S
C489 C490 1.378 . S
C489 C516 1.486 . S
C490 H452 0.930 . S
C490 C489 1.378 . S
C490 C491 1.376 . S
C491 H453 0.929 . S
C491 C486 1.397 . S
C491 C490 1.376 . S
C492 C476 1.509 . S
C492 C493 1.391 . S
C492 C497 1.386 . S
C493 H454 0.930 . S
C493 C492 1.391 . S
C493 C494 1.375 . S
C494 H455 0.931 . S
C494 C493 1.375 . S
C494 C495 1.375 . S
C495 C494 1.375 . S
C495 C496 1.361 . S
C496 H456 0.930 . S
C496 C495 1.361 . S
C496 C497 1.399 . S
C497 H457 0.929 . S
C497 C492 1.386 . S
C497 C496 1.399 . S
C498 C477 1.485 . S
C498 C499 1.394 . S
C498 C503 1.360 . S
C499 H458 0.931 . S
C499 C498 1.394 . S
C499 C500 1.372 . S
C500 H459 0.930 . S
C500 C499 1.372 . S
C500 C501 1.397 . S
C501 C500 1.397 . S
C501 C502 1.390 . S
C501 C517 1.476 . S
C502 H460 0.930 . S
C502 C501 1.390 . S
C502 C503 1.366 . S
C503 H461 0.932 . S
C503 C498 1.360 . S
C503 C502 1.366 . S
C504 C478 1.490 . S
C504 C505 1.380 . S
C504 C509 1.386 . S
C505 H462 0.930 . S
C505 C504 1.380 . S
C505 C506 1.381 . S
C506 H463 0.929 . S
C506 C505 1.381 . S
C506 C507 1.371 . S
C507 C506 1.371 . S
C507 C508 1.380 . S
C508 H464 0.931 . S
C508 C507 1.380 . S
C508 C509 1.387 . S
C509 H465 0.930 . S
C509 C504 1.386 . S
C509 C508 1.387 . S
C510 C479 1.519 . S
C510 C511 1.377 . S
C510 C515 1.361 . S
C511 H466 0.929 . S
C511 C510 1.377 . S
C511 C512 1.386 . S
C512 H467 0.931 . S
C512 C511 1.386 . S
C512 C513 1.363 . S
C513 C512 1.363 . S
C513 C514 1.385 . S
C514 H468 0.930 . S
C514 C513 1.385 . S
C514 C515 1.396 . S
C515 H469 0.929 . S
C515 C510 1.361 . S
C515 C514 1.396 . S
C516 O470 1.300 . S
C516 O471 1.209 . S
C516 C489 1.486 . S
C517 O472 1.199 . S
C517 O473 1.297 . S
C517 C501 1.476 . S
H518 O544 0.856 . S
H519 O547 0.854 . S
H520 C555 0.930 . S
H521 C556 0.930 . S
H522 C558 0.930 . S
H523 C559 0.930 . S
H524 C561 0.931 . S
H525 C562 0.930 . S
H526 C564 0.930 . S
H527 C565 0.929 . S
H528 C567 0.930 . S
H529 C568 0.931 . S
H530 C570 0.930 . S
H531 C571 0.929 . S
H532 C573 0.931 . S
H533 C574 0.930 . S
H534 C576 0.930 . S
H535 C577 0.932 . S
H536 C579 0.930 . S
H537 C580 0.929 . S
H538 C582 0.931 . S
H539 C583 0.930 . S
H540 C585 0.929 . S
H541 C586 0.931 . S
H542 C588 0.930 . S
H543 C589 0.929 . S
O544 H518 0.856 . S
O544 C590 1.300 . S
O545 C590 1.209 . S
O546 C591 1.199 . S
O547 H519 0.854 . S
O547 C591 1.297 . S
C548 C549 1.404 . S
C548 C553 1.397 . S
C548 C554 1.492 . S
C549 C548 1.404 . S
C549 C550 1.396 . S
C549 C560 1.492 . S
C550 C549 1.396 . S
C550 C551 1.397 . S
C550 C566 1.509 . S
C551 C550 1.397 . S
C551 C552 1.412 . S
C551 C572 1.485 . S
C552 C551 1.412 . S
C552 C553 1.388 . S
C552 C578 1.490 . S
C553 C548 1.397 . S
C553 C552 1.388 . S
C553 C584 1.519 . S
C554 C548 1.492 . S
C554 C555 1.363 . S
C554 C559 1.390 . S
C555 H520 0.930 . S
C555 C554 1.363 . S
C555 C556 1.372 . S
C556 H521 0.930 . S
C556 C555 1.372 . S
C556 C557 1.383 . S
C557 C556 1.383 . S
C557 C558 1.395 . S
C558 H522 0.930 . S
C558 C557 1.395 . S
C558 C559 1.362 . S
C559 H523 0.930 . S
C559 C554 1.390 . S
C559 C558 1.362 . S
C560 C549 1.492 . S
C560 C561 1.377 . S
C560 C565 1.397 . S
C561 H524 0.931 . S
C561 C560 1.377 . S
C561 C562 1.376 . S
C562 H525 0.930 . S
C562 C561 1.376 . S
C562 C563 1.376 . S
C563 C562 1.376 . S
C563 C564 1.378 . S
C563 C590 1.486 . S
C564 H526 0.930 . S
C564 C563 1.378 . S
C564 C565 1.376 . S
C565 H527 0.929 . S
C565 C560 1.397 . S
C565 C564 1.376 . S
C566 C550 1.509 . S
C566 C567 1.391 . S
C566 C571 1.386 . S
C567 H528 0.930 . S
C567 C566 1.391 . S
C567 C568 1.375 . S
C568 H529 0.931 . S
C568 C567 1.375 . S
C568 C569 1.375 . S
C569 C568 1.375 . S
C569 C570 1.361 . S
C570 H530 0.930 . S
C570 C569 1.361 . S
C570 C571 1.399 . S
C571 H531 0.929 . S
C571 C566 1.386 . S
C571 C570 1.399 . S
C572 C551 1.485 . S
C572 C573 1.394 . S
C572 C577 1.360 . S
C573 H532 0.931 . S
C573 C572 1.394 . S
C573 C574 1.372 . S
C574 H533 0.930 . S
C574 C573 1.372 . S
C574 C575 1.397 . S
C575 C574 1.397 . S
C575 C576 1.390 . S
C575 C591 1.476 . S
C576 H534 0.930 . S
C576 C575 1.390 . S
C576 C577 1.366 . S
C577 H535 0.932 . S
C577 C572 1.360 . S
C577 C576 1.366 . S
C578 C552 1.490 . S
C578 C579 1.380 . S
C578 C583 1.386 . S
C579 H536 0.930 . S
C579 C578 1.380 . S
C579 C580 1.381 . S
C580 H537 0.929 . S
C580 C579 1.381 . S
C580 C581 1.371 . S
C581 C580 1.371 . S
C581 C582 1.380 . S
C582 H538 0.931 . S
C582 C581 1.380 . S
C582 C583 1.387 . S
C583 H539 0.930 . S
C583 C578 1.386 . S
C583 C582 1.387 . S
C584 C553 1.519 . S
C584 C585 1.377 . S
C584 C589 1.361 . S
C585 H540 0.929 . S
C585 C584 1.377 . S
C585 C586 1.386 . S
C586 H541 0.931 . S
C586 C585 1.386 . S
C586 C587 1.363 . S
C587 C586 1.363 . S
C587 C588 1.385 . S
C588 H542 0.930 . S
C588 C587 1.385 . S
C588 C589 1.396 . S
C589 H543 0.929 . S
C589 C584 1.361 . S
C589 C588 1.396 . S
C590 O544 1.300 . S
C590 O545 1.209 . S
C590 C563 1.486 . S
C591 O546 1.199 . S
C591 O547 1.297 . S
C591 C575 1.476 . S
C592 C593 1.443 . S
C592 N596 1.376 . S
C592 C630 1.389 . S
C593 C592 1.443 . S
C593 C594 1.340 . S
C593 H633 0.951 . S
C594 C593 1.340 . S
C594 C595 1.439 . S
C594 H634 0.950 . S
C595 C594 1.439 . S
C595 N596 1.374 . S
C595 C629 1.395 1_455 S
N596 C592 1.376 . S
N596 C595 1.374 . S
N596 Co597 2.008 . S
Co597 N596 2.008 . S
Co597 N598 1.995 1_455 S
Co597 N603 2.008 1_455 S
Co597 N608 1.995 . S
Co597 N613 2.282 1_455 S
Co597 N619 2.282 . S
N598 Co597 1.995 1_655 S
N598 C599 1.376 . S
N598 C602 1.383 . S
C599 N598 1.376 . S
C599 C600 1.446 . S
C599 C629 1.391 . S
C600 C599 1.446 . S
C600 C601 1.339 . S
C600 H635 0.949 . S
C601 C600 1.339 . S
C601 C602 1.439 . S
C601 H636 0.950 . S
C602 N598 1.383 . S
C602 C601 1.439 . S
C602 C631 1.392 . S
N603 Co597 2.008 1_655 S
N603 C604 1.376 . S
N603 C607 1.374 . S
C604 N603 1.376 . S
C604 C605 1.443 . S
C604 C631 1.389 . S
C605 C604 1.443 . S
C605 C606 1.340 . S
C605 H637 0.951 . S
C606 C605 1.340 . S
C606 C607 1.439 . S
C606 H638 0.950 . S
C607 N603 1.374 . S
C607 C606 1.439 . S
C607 C632 1.395 1_655 S
N608 Co597 1.995 . S
N608 C609 1.376 . S
N608 C612 1.383 . S
C609 N608 1.376 . S
C609 C610 1.446 . S
C609 C632 1.391 . S
C610 C609 1.446 . S
C610 C611 1.339 . S
C610 H639 0.949 . S
C611 C610 1.339 . S
C611 C612 1.439 . S
C611 H640 0.950 . S
C612 N608 1.383 . S
C612 C611 1.439 . S
C612 C630 1.392 . S
N613 Co597 2.282 1_655 S
N613 C616 1.332 . S
N613 C618 1.332 . S
C614 C615 1.386 . S
C614 C617 1.388 . S
C615 C614 1.386 . S
C615 C616 1.382 . S
C615 H641 0.950 . S
C616 N613 1.332 . S
C616 C615 1.382 . S
C616 H627 0.952 . S
C617 C614 1.388 . S
C617 C618 1.382 . S
C617 H642 0.950 . S
C618 N613 1.332 . S
C618 C617 1.382 . S
C618 H628 0.948 . S
N619 Co597 2.282 . S
N619 C623 1.332 . S
N619 C624 1.332 . S
C620 C621 1.388 . S
C620 C624 1.382 . S
C620 H643 0.950 . S
C621 C620 1.388 . S
C621 C622 1.386 . S
C622 C621 1.386 . S
C622 C623 1.382 . S
C622 H644 0.950 . S
C623 N619 1.332 . S
C623 C622 1.382 . S
C623 H625 0.952 . S
C624 N619 1.332 . S
C624 C620 1.382 . S
C624 H626 0.948 . S
H625 C623 0.952 . S
H626 C624 0.948 . S
H627 C616 0.952 . S
H628 C618 0.948 . S
C629 C595 1.395 1_655 S
C629 C599 1.391 . S
C630 C592 1.389 . S
C630 C612 1.392 . S
C631 C602 1.392 . S
C631 C604 1.389 . S
C632 C607 1.395 1_455 S
C632 C609 1.391 . S
H633 C593 0.951 . S
H634 C594 0.950 . S
H635 C600 0.949 . S
H636 C601 0.950 . S
H637 C605 0.951 . S
H638 C606 0.950 . S
H639 C610 0.949 . S
H640 C611 0.950 . S
H641 C615 0.950 . S
H642 C617 0.950 . S
H643 C620 0.950 . S
H644 C622 0.950 . S
C645 C646 1.443 . S
C645 N649 1.376 . S
C645 C683 1.389 . S
C646 C645 1.443 . S
C646 C647 1.340 . S
C646 H686 0.951 . S
C647 C646 1.340 . S
C647 C648 1.439 . S
C647 H687 0.950 . S
C648 C647 1.439 . S
C648 N649 1.374 . S
C648 C682 1.395 . S
N649 C645 1.376 . S
N649 C648 1.374 . S
N649 Co650 2.008 . S
Co650 N649 2.008 . S
Co650 N651 1.995 1_545 S
Co650 N656 2.008 1_545 S
Co650 N661 1.995 . S
Co650 N666 2.282 1_545 S
Co650 N672 2.282 . S
N651 Co650 1.995 1_565 S
N651 C652 1.376 . S
N651 C655 1.383 . S
C652 N651 1.376 . S
C652 C653 1.446 . S
C652 C682 1.391 1_565 S
C653 C652 1.446 . S
C653 C654 1.339 . S
C653 H688 0.949 . S
C654 C653 1.339 . S
C654 C655 1.439 . S
C654 H689 0.950 . S
C655 N651 1.383 . S
C655 C654 1.439 . S
C655 C684 1.392 . S
N656 Co650 2.008 1_565 S
N656 C657 1.376 . S
N656 C660 1.374 . S
C657 N656 1.376 . S
C657 C658 1.443 . S
C657 C684 1.389 . S
C658 C657 1.443 . S
C658 C659 1.340 . S
C658 H690 0.951 . S
C659 C658 1.340 . S
C659 C660 1.439 . S
C659 H691 0.950 . S
C660 N656 1.374 . S
C660 C659 1.439 . S
C660 C685 1.395 1_565 S
N661 Co650 1.995 . S
N661 C662 1.376 . S
N661 C665 1.383 . S
C662 N661 1.376 . S
C662 C663 1.446 . S
C662 C685 1.391 . S
C663 C662 1.446 . S
C663 C664 1.339 . S
C663 H692 0.949 . S
C664 C663 1.339 . S
C664 C665 1.439 . S
C664 H693 0.950 . S
C665 N661 1.383 . S
C665 C664 1.439 . S
C665 C683 1.392 . S
N666 Co650 2.282 1_565 S
N666 C669 1.332 . S
N666 C671 1.332 . S
C667 C668 1.386 . S
C667 C670 1.388 . S
C668 C667 1.386 . S
C668 C669 1.382 . S
C668 H694 0.950 . S
C669 N666 1.332 . S
C669 C668 1.382 . S
C669 H680 0.952 . S
C670 C667 1.388 . S
C670 C671 1.382 . S
C670 H695 0.950 . S
C671 N666 1.332 . S
C671 C670 1.382 . S
C671 H681 0.948 . S
N672 Co650 2.282 . S
N672 C676 1.332 . S
N672 C677 1.332 . S
C673 C674 1.388 . S
C673 C677 1.382 . S
C673 H696 0.950 . S
C674 C673 1.388 . S
C674 C675 1.386 . S
C675 C674 1.386 . S
C675 C676 1.382 . S
C675 H697 0.950 . S
C676 N672 1.332 . S
C676 C675 1.382 . S
C676 H678 0.952 . S
C677 N672 1.332 . S
C677 C673 1.382 . S
C677 H679 0.948 . S
H678 C676 0.952 . S
H679 C677 0.948 . S
H680 C669 0.952 . S
H681 C671 0.948 . S
C682 C648 1.395 . S
C682 C652 1.391 1_545 S
C683 C645 1.389 . S
C683 C665 1.392 . S
C684 C655 1.392 . S
C684 C657 1.389 . S
C685 C660 1.395 1_545 S
C685 C662 1.391 . S
H686 C646 0.951 . S
H687 C647 0.950 . S
H688 C653 0.949 . S
H689 C654 0.950 . S
H690 C658 0.951 . S
H691 C659 0.950 . S
H692 C663 0.949 . S
H693 C664 0.950 . S
H694 C668 0.950 . S
H695 C670 0.950 . S
H696 C673 0.950 . S
H697 C675 0.950 . S
C698 C699 1.443 . S
C698 N702 1.376 . S
C698 C736 1.389 . S
C699 C698 1.443 . S
C699 C700 1.340 . S
C699 H739 0.951 . S
C700 C699 1.340 . S
C700 C701 1.439 . S
C700 H740 0.950 . S
C701 C700 1.439 . S
C701 N702 1.374 . S
C701 C735 1.395 . S
N702 C698 1.376 . S
N702 C701 1.374 . S
N702 Co703 2.008 . S
Co703 N702 2.008 . S
Co703 N704 1.995 . S
Co703 N709 2.008 . S
Co703 N714 1.995 . S
Co703 N719 2.282 . S
Co703 N725 2.282 . S
N704 Co703 1.995 . S
N704 C705 1.376 . S
N704 C708 1.383 1_455 S
C705 N704 1.376 . S
C705 C706 1.446 1_455 S
C705 C735 1.391 . S
C706 C705 1.446 1_655 S
C706 C707 1.339 . S
C706 H741 0.949 . S
C707 C706 1.339 . S
C707 C708 1.439 . S
C707 H742 0.950 . S
C708 N704 1.383 1_655 S
C708 C707 1.439 . S
C708 C737 1.392 . S
N709 Co703 2.008 . S
N709 C710 1.376 1_455 S
N709 C713 1.374 . S
C710 N709 1.376 1_655 S
C710 C711 1.443 . S
C710 C737 1.389 . S
C711 C710 1.443 . S
C711 C712 1.340 1_655 S
C711 H743 0.951 . S
C712 C711 1.340 1_455 S
C712 C713 1.439 . S
C712 H744 0.950 . S
C713 N709 1.374 . S
C713 C712 1.439 . S
C713 C738 1.395 . S
N714 Co703 1.995 . S
N714 C715 1.376 . S
N714 C718 1.383 . S
C715 N714 1.376 . S
C715 C716 1.446 . S
C715 C738 1.391 . S
C716 C715 1.446 . S
C716 C717 1.339 . S
C716 H745 0.949 . S
C717 C716 1.339 . S
C717 C718 1.439 . S
C717 H746 0.950 . S
C718 N714 1.383 . S
C718 C717 1.439 . S
C718 C736 1.392 . S
N719 Co703 2.282 . S
N719 C722 1.332 . S
N719 C724 1.332 1_455 S
C720 C721 1.386 . S
C720 C723 1.388 . S
C721 C720 1.386 . S
C721 C722 1.382 1_655 S
C721 H747 0.950 . S
C722 N719 1.332 . S
C722 C721 1.382 1_455 S
C722 H733 0.952 . S
C723 C720 1.388 . S
C723 C724 1.382 . S
C723 H748 0.950 . S
C724 N719 1.332 1_655 S
C724 C723 1.382 . S
C724 H734 0.948 . S
N725 Co703 2.282 . S
N725 C729 1.332 . S
N725 C730 1.332 . S
C726 C727 1.388 . S
C726 C730 1.382 . S
C726 H749 0.950 . S
C727 C726 1.388 . S
C727 C728 1.386 . S
C728 C727 1.386 . S
C728 C729 1.382 . S
C728 H750 0.950 . S
C729 N725 1.332 . S
C729 C728 1.382 . S
C729 H731 0.952 . S
C730 N725 1.332 . S
C730 C726 1.382 . S
C730 H732 0.948 . S
H731 C729 0.952 . S
H732 C730 0.948 . S
H733 C722 0.952 . S
H734 C724 0.948 . S
C735 C701 1.395 . S
C735 C705 1.391 . S
C736 C698 1.389 . S
C736 C718 1.392 . S
C737 C708 1.392 . S
C737 C710 1.389 . S
C738 C713 1.395 . S
C738 C715 1.391 . S
H739 C699 0.951 . S
H740 C700 0.950 . S
H741 C706 0.949 . S
H742 C707 0.950 . S
H743 C711 0.951 . S
H744 C712 0.950 . S
H745 C716 0.949 . S
H746 C717 0.950 . S
H747 C721 0.950 . S
H748 C723 0.950 . S
H749 C726 0.950 . S
H750 C728 0.950 . S
C751 C752 1.443 . S
C751 N755 1.376 . S
C751 C789 1.389 . S
C752 C751 1.443 . S
C752 C753 1.340 . S
C752 H792 0.951 . S
C753 C752 1.340 . S
C753 C754 1.439 . S
C753 H793 0.950 . S
C754 C753 1.439 . S
C754 N755 1.374 . S
C754 C788 1.395 . S
N755 C751 1.376 . S
N755 C754 1.374 . S
N755 Co756 2.008 . S
Co756 N755 2.008 . S
Co756 N757 1.995 . S
Co756 N762 2.008 . S
Co756 N767 1.995 . S
Co756 N772 2.282 . S
Co756 N778 2.282 . S
N757 Co756 1.995 . S
N757 C758 1.376 . S
N757 C761 1.383 . S
C758 N757 1.376 . S
C758 C759 1.446 . S
C758 C788 1.391 . S
C759 C758 1.446 . S
C759 C760 1.339 . S
C759 H794 0.949 . S
C760 C759 1.339 . S
C760 C761 1.439 . S
C760 H795 0.950 . S
C761 N757 1.383 . S
C761 C760 1.439 . S
C761 C790 1.392 . S
N762 Co756 2.008 . S
N762 C763 1.376 . S
N762 C766 1.374 . S
C763 N762 1.376 . S
C763 C764 1.443 . S
C763 C790 1.389 . S
C764 C763 1.443 . S
C764 C765 1.340 . S
C764 H796 0.951 . S
C765 C764 1.340 . S
C765 C766 1.439 . S
C765 H797 0.950 . S
C766 N762 1.374 . S
C766 C765 1.439 . S
C766 C791 1.395 . S
N767 Co756 1.995 . S
N767 C768 1.376 . S
N767 C771 1.383 . S
C768 N767 1.376 . S
C768 C769 1.446 . S
C768 C791 1.391 . S
C769 C768 1.446 . S
C769 C770 1.339 . S
C769 H798 0.949 . S
C770 C769 1.339 . S
C770 C771 1.439 . S
C770 H799 0.950 . S
C771 N767 1.383 . S
C771 C770 1.439 . S
C771 C789 1.392 . S
N772 Co756 2.282 . S
N772 C775 1.332 . S
N772 C777 1.332 . S
C773 C774 1.386 . S
C773 C776 1.388 . S
C774 C773 1.386 . S
C774 C775 1.382 . S
C774 H800 0.950 . S
C775 N772 1.332 . S
C775 C774 1.382 . S
C775 H786 0.952 . S
C776 C773 1.388 . S
C776 C777 1.382 . S
C776 H801 0.950 . S
C777 N772 1.332 . S
C777 C776 1.382 . S
C777 H787 0.948 . S
N778 Co756 2.282 . S
N778 C782 1.332 . S
N778 C783 1.332 . S
C779 C780 1.388 . S
C779 C783 1.382 . S
C779 H802 0.950 . S
C780 C779 1.388 . S
C780 C781 1.386 . S
C781 C780 1.386 . S
C781 C782 1.382 . S
C781 H803 0.950 . S
C782 N778 1.332 . S
C782 C781 1.382 . S
C782 H784 0.952 . S
C783 N778 1.332 . S
C783 C779 1.382 . S
C783 H785 0.948 . S
H784 C782 0.952 . S
H785 C783 0.948 . S
H786 C775 0.952 . S
H787 C777 0.948 . S
C788 C754 1.395 . S
C788 C758 1.391 . S
C789 C751 1.389 . S
C789 C771 1.392 . S
C790 C761 1.392 . S
C790 C763 1.389 . S
C791 C766 1.395 . S
C791 C768 1.391 . S
H792 C752 0.951 . S
H793 C753 0.950 . S
H794 C759 0.949 . S
H795 C760 0.950 . S
H796 C764 0.951 . S
H797 C765 0.950 . S
H798 C769 0.949 . S
H799 C770 0.950 . S
H800 C774 0.950 . S
H801 C776 0.950 . S
H802 C779 0.950 . S
H803 C781 0.950 . S
C804 C805 1.443 . S
C804 N808 1.376 . S
C804 C842 1.389 . S
C805 C804 1.443 . S
C805 C806 1.340 . S
C805 H845 0.951 . S
C806 C805 1.340 . S
C806 C807 1.439 . S
C806 H846 0.950 . S
C807 C806 1.439 . S
C807 N808 1.374 . S
C807 C841 1.395 . S
N808 C804 1.376 . S
N808 C807 1.374 . S
N808 Co809 2.008 . S
Co809 N808 2.008 . S
Co809 N810 1.995 1_554 S
Co809 N815 2.008 1_554 S
Co809 N820 1.995 . S
Co809 N825 2.282 . S
Co809 N831 2.282 1_554 S
N810 Co809 1.995 1_556 S
N810 C811 1.376 . S
N810 C814 1.383 . S
C811 N810 1.376 . S
C811 C812 1.446 . S
C811 C841 1.391 1_556 S
C812 C811 1.446 . S
C812 C813 1.339 . S
C812 H847 0.949 . S
C813 C812 1.339 . S
C813 C814 1.439 . S
C813 H848 0.950 . S
C814 N810 1.383 . S
C814 C813 1.439 . S
C814 C843 1.392 . S
N815 Co809 2.008 1_556 S
N815 C816 1.376 . S
N815 C819 1.374 . S
C816 N815 1.376 . S
C816 C817 1.443 . S
C816 C843 1.389 . S
C817 C816 1.443 . S
C817 C818 1.340 . S
C817 H849 0.951 . S
C818 C817 1.340 . S
C818 C819 1.439 . S
C818 H850 0.950 . S
C819 N815 1.374 . S
C819 C818 1.439 . S
C819 C844 1.395 1_556 S
N820 Co809 1.995 . S
N820 C821 1.376 . S
N820 C824 1.383 . S
C821 N820 1.376 . S
C821 C822 1.446 . S
C821 C844 1.391 . S
C822 C821 1.446 . S
C822 C823 1.339 . S
C822 H851 0.949 . S
C823 C822 1.339 . S
C823 C824 1.439 . S
C823 H852 0.950 . S
C824 N820 1.383 . S
C824 C823 1.439 . S
C824 C842 1.392 . S
N825 Co809 2.282 . S
N825 C828 1.332 . S
N825 C830 1.332 . S
C826 C827 1.386 . S
C826 C829 1.388 . S
C827 C826 1.386 . S
C827 C828 1.382 . S
C827 H853 0.950 . S
C828 N825 1.332 . S
C828 C827 1.382 . S
C828 H839 0.952 . S
C829 C826 1.388 . S
C829 C830 1.382 . S
C829 H854 0.950 . S
C830 N825 1.332 . S
C830 C829 1.382 . S
C830 H840 0.948 . S
N831 Co809 2.282 1_556 S
N831 C835 1.332 . S
N831 C836 1.332 . S
C832 C833 1.388 . S
C832 C836 1.382 . S
C832 H855 0.950 . S
C833 C832 1.388 . S
C833 C834 1.386 . S
C834 C833 1.386 . S
C834 C835 1.382 . S
C834 H856 0.950 . S
C835 N831 1.332 . S
C835 C834 1.382 . S
C835 H837 0.952 . S
C836 N831 1.332 . S
C836 C832 1.382 . S
C836 H838 0.948 . S
H837 C835 0.952 . S
H838 C836 0.948 . S
H839 C828 0.952 . S
H840 C830 0.948 . S
C841 C807 1.395 . S
C841 C811 1.391 1_554 S
C842 C804 1.389 . S
C842 C824 1.392 . S
C843 C814 1.392 . S
C843 C816 1.389 . S
C844 C819 1.395 1_554 S
C844 C821 1.391 . S
H845 C805 0.951 . S
H846 C806 0.950 . S
H847 C812 0.949 . S
H848 C813 0.950 . S
H849 C817 0.951 . S
H850 C818 0.950 . S
H851 C822 0.949 . S
H852 C823 0.950 . S
H853 C827 0.950 . S
H854 C829 0.950 . S
H855 C832 0.950 . S
H856 C834 0.950 . S
C857 C858 1.443 . S
C857 N861 1.376 . S
C857 C895 1.389 . S
C858 C857 1.443 . S
C858 C859 1.340 . S
C858 H898 0.951 . S
C859 C858 1.340 . S
C859 C860 1.439 . S
C859 H899 0.950 . S
C860 C859 1.439 . S
C860 N861 1.374 . S
C860 C894 1.395 1_554 S
N861 C857 1.376 . S
N861 C860 1.374 . S
N861 Co862 2.008 . S
Co862 N861 2.008 . S
Co862 N863 1.995 1_554 S
Co862 N868 2.008 1_554 S
Co862 N873 1.995 . S
Co862 N878 2.282 . S
Co862 N884 2.282 1_554 S
N863 Co862 1.995 1_556 S
N863 C864 1.376 . S
N863 C867 1.383 . S
C864 N863 1.376 . S
C864 C865 1.446 . S
C864 C894 1.391 . S
C865 C864 1.446 . S
C865 C866 1.339 . S
C865 H900 0.949 . S
C866 C865 1.339 . S
C866 C867 1.439 . S
C866 H901 0.950 . S
C867 N863 1.383 . S
C867 C866 1.439 . S
C867 C896 1.392 . S
N868 Co862 2.008 1_556 S
N868 C869 1.376 . S
N868 C872 1.374 1_556 S
C869 N868 1.376 . S
C869 C870 1.443 . S
C869 C896 1.389 . S
C870 C869 1.443 . S
C870 C871 1.340 . S
C870 H902 0.951 . S
C871 C870 1.340 . S
C871 C872 1.439 1_556 S
C871 H903 0.950 1_556 S
C872 N868 1.374 1_554 S
C872 C871 1.439 1_554 S
C872 C897 1.395 . S
N873 Co862 1.995 . S
N873 C874 1.376 . S
N873 C877 1.383 . S
C874 N873 1.376 . S
C874 C875 1.446 . S
C874 C897 1.391 . S
C875 C874 1.446 . S
C875 C876 1.339 . S
C875 H904 0.949 . S
C876 C875 1.339 . S
C876 C877 1.439 . S
C876 H905 0.950 . S
C877 N873 1.383 . S
C877 C876 1.439 . S
C877 C895 1.392 . S
N878 Co862 2.282 . S
N878 C881 1.332 . S
N878 C883 1.332 . S
C879 C880 1.386 . S
C879 C882 1.388 . S
C880 C879 1.386 . S
C880 C881 1.382 . S
C880 H906 0.950 . S
C881 N878 1.332 . S
C881 C880 1.382 . S
C881 H892 0.952 . S
C882 C879 1.388 . S
C882 C883 1.382 . S
C882 H907 0.950 . S
C883 N878 1.332 . S
C883 C882 1.382 . S
C883 H893 0.948 . S
N884 Co862 2.282 1_556 S
N884 C888 1.332 . S
N884 C889 1.332 . S
C885 C886 1.388 . S
C885 C889 1.382 . S
C885 H908 0.950 . S
C886 C885 1.388 . S
C886 C887 1.386 . S
C887 C886 1.386 . S
C887 C888 1.382 . S
C887 H909 0.950 . S
C888 N884 1.332 . S
C888 C887 1.382 . S
C888 H890 0.952 . S
C889 N884 1.332 . S
C889 C885 1.382 . S
C889 H891 0.948 . S
H890 C888 0.952 . S
H891 C889 0.948 . S
H892 C881 0.952 . S
H893 C883 0.948 . S
C894 C860 1.395 1_556 S
C894 C864 1.391 . S
C895 C857 1.389 . S
C895 C877 1.392 . S
C896 C867 1.392 . S
C896 C869 1.389 . S
C897 C872 1.395 . S
C897 C874 1.391 . S
H898 C858 0.951 . S
H899 C859 0.950 . S
H900 C865 0.949 . S
H901 C866 0.950 . S
H902 C870 0.951 . S
H903 C871 0.950 1_554 S
H904 C875 0.949 . S
H905 C876 0.950 . S
H906 C880 0.950 . S
H907 C882 0.950 . S
H908 C885 0.950 . S
H909 C887 0.950 . S
C910 C911 1.443 . S
C910 N914 1.376 . S
C910 C948 1.389 1_554 S
C911 C910 1.443 . S
C911 C912 1.340 . S
C911 H951 0.951 1_554 S
C912 C911 1.340 . S
C912 C913 1.439 . S
C912 H952 0.950 . S
C913 C912 1.439 . S
C913 N914 1.374 . S
C913 C947 1.395 . S
N914 C910 1.376 . S
N914 C913 1.374 . S
N914 Co915 2.008 . S
Co915 N914 2.008 . S
Co915 N916 1.995 . S
Co915 N921 2.008 . S
Co915 N926 1.995 . S
Co915 N931 2.282 . S
Co915 N937 2.282 . S
N916 Co915 1.995 . S
N916 C917 1.376 . S
N916 C920 1.383 . S
C917 N916 1.376 . S
C917 C918 1.446 . S
C917 C947 1.391 . S
C918 C917 1.446 . S
C918 C919 1.339 . S
C918 H953 0.949 . S
C919 C918 1.339 . S
C919 C920 1.439 . S
C919 H954 0.950 . S
C920 N916 1.383 . S
C920 C919 1.439 . S
C920 C949 1.392 . S
N921 Co915 2.008 . S
N921 C922 1.376 . S
N921 C925 1.374 . S
C922 N921 1.376 . S
C922 C923 1.443 . S
C922 C949 1.389 . S
C923 C922 1.443 . S
C923 C924 1.340 . S
C923 H955 0.951 . S
C924 C923 1.340 . S
C924 C925 1.439 . S
C924 H956 0.950 . S
C925 N921 1.374 . S
C925 C924 1.439 . S
C925 C950 1.395 . S
N926 Co915 1.995 . S
N926 C927 1.376 . S
N926 C930 1.383 1_554 S
C927 N926 1.376 . S
C927 C928 1.446 1_554 S
C927 C950 1.391 . S
C928 C927 1.446 1_556 S
C928 C929 1.339 . S
C928 H957 0.949 . S
C929 C928 1.339 . S
C929 C930 1.439 . S
C929 H958 0.950 . S
C930 N926 1.383 1_556 S
C930 C929 1.439 . S
C930 C948 1.392 . S
N931 Co915 2.282 . S
N931 C934 1.332 . S
N931 C936 1.332 . S
C932 C933 1.386 . S
C932 C935 1.388 1_556 S
C933 C932 1.386 . S
C933 C934 1.382 1_556 S
C933 H959 0.950 . S
C934 N931 1.332 . S
C934 C933 1.382 1_554 S
C934 H945 0.952 1_554 S
C935 C932 1.388 1_554 S
C935 C936 1.382 . S
C935 H960 0.950 . S
C936 N931 1.332 . S
C936 C935 1.382 . S
C936 H946 0.948 . S
N937 Co915 2.282 . S
N937 C941 1.332 . S
N937 C942 1.332 . S
C938 C939 1.388 . S
C938 C942 1.382 . S
C938 H961 0.950 . S
C939 C938 1.388 . S
C939 C940 1.386 . S
C940 C939 1.386 . S
C940 C941 1.382 . S
C940 H962 0.950 . S
C941 N937 1.332 . S
C941 C940 1.382 . S
C941 H943 0.952 . S
C942 N937 1.332 . S
C942 C938 1.382 . S
C942 H944 0.948 . S
H943 C941 0.952 . S
H944 C942 0.948 . S
H945 C934 0.952 1_556 S
H946 C936 0.948 . S
C947 C913 1.395 . S
C947 C917 1.391 . S
C948 C910 1.389 1_556 S
C948 C930 1.392 . S
C949 C920 1.392 . S
C949 C922 1.389 . S
C950 C925 1.395 . S
C950 C927 1.391 . S
H951 C911 0.951 1_556 S
H952 C912 0.950 . S
H953 C918 0.949 . S
H954 C919 0.950 . S
H955 C923 0.951 . S
H956 C924 0.950 . S
H957 C928 0.949 . S
H958 C929 0.950 . S
H959 C933 0.950 . S
H960 C935 0.950 . S
H961 C938 0.950 . S
H962 C940 0.950 . S
C963 C964 1.443 . S
C963 N967 1.376 . S
C963 C1001 1.389 . S
C964 C963 1.443 . S
C964 C965 1.340 . S
C964 H1004 0.951 . S
C965 C964 1.340 . S
C965 C966 1.439 . S
C965 H1005 0.950 . S
C966 C965 1.439 . S
C966 N967 1.374 . S
C966 C1000 1.395 . S
N967 C963 1.376 . S
N967 C966 1.374 . S
N967 Co968 2.008 . S
Co968 N967 2.008 . S
Co968 N969 1.995 . S
Co968 N974 2.008 . S
Co968 N979 1.995 . S
Co968 N984 2.282 . S
Co968 N990 2.282 . S
N969 Co968 1.995 . S
N969 C970 1.376 . S
N969 C973 1.383 . S
C970 N969 1.376 . S
C970 C971 1.446 . S
C970 C1000 1.391 . S
C971 C970 1.446 . S
C971 C972 1.339 . S
C971 H1006 0.949 . S
C972 C971 1.339 . S
C972 C973 1.439 . S
C972 H1007 0.950 . S
C973 N969 1.383 . S
C973 C972 1.439 . S
C973 C1002 1.392 . S
N974 Co968 2.008 . S
N974 C975 1.376 . S
N974 C978 1.374 . S
C975 N974 1.376 . S
C975 C976 1.443 . S
C975 C1002 1.389 . S
C976 C975 1.443 . S
C976 C977 1.340 . S
C976 H1008 0.951 . S
C977 C976 1.340 . S
C977 C978 1.439 . S
C977 H1009 0.950 . S
C978 N974 1.374 . S
C978 C977 1.439 . S
C978 C1003 1.395 . S
N979 Co968 1.995 . S
N979 C980 1.376 . S
N979 C983 1.383 . S
C980 N979 1.376 . S
C980 C981 1.446 . S
C980 C1003 1.391 . S
C981 C980 1.446 . S
C981 C982 1.339 . S
C981 H1010 0.949 . S
C982 C981 1.339 . S
C982 C983 1.439 . S
C982 H1011 0.950 . S
C983 N979 1.383 . S
C983 C982 1.439 . S
C983 C1001 1.392 . S
N984 Co968 2.282 . S
N984 C987 1.332 . S
N984 C989 1.332 . S
C985 C986 1.386 . S
C985 C988 1.388 . S
C986 C985 1.386 . S
C986 C987 1.382 . S
C986 H1012 0.950 . S
C987 N984 1.332 . S
C987 C986 1.382 . S
C987 H998 0.952 . S
C988 C985 1.388 . S
C988 C989 1.382 . S
C988 H1013 0.950 . S
C989 N984 1.332 . S
C989 C988 1.382 . S
C989 H999 0.948 . S
N990 Co968 2.282 . S
N990 C994 1.332 . S
N990 C995 1.332 . S
C991 C992 1.388 . S
C991 C995 1.382 . S
C991 H1014 0.950 . S
C992 C991 1.388 . S
C992 C993 1.386 . S
C993 C992 1.386 . S
C993 C994 1.382 . S
C993 H1015 0.950 . S
C994 N990 1.332 . S
C994 C993 1.382 . S
C994 H996 0.952 . S
C995 N990 1.332 . S
C995 C991 1.382 . S
C995 H997 0.948 . S
H996 C994 0.952 . S
H997 C995 0.948 . S
H998 C987 0.952 . S
H999 C989 0.948 . S
C1000 C966 1.395 . S
C1000 C970 1.391 . S
C1001 C963 1.389 . S
C1001 C983 1.392 . S
C1002 C973 1.392 . S
C1002 C975 1.389 . S
C1003 C978 1.395 . S
C1003 C980 1.391 . S
H1004 C964 0.951 . S
H1005 C965 0.950 . S
H1006 C971 0.949 . S
H1007 C972 0.950 . S
H1008 C976 0.951 . S
H1009 C977 0.950 . S
H1010 C981 0.949 . S
H1011 C982 0.950 . S
H1012 C986 0.950 . S
H1013 C988 0.950 . S
H1014 C991 0.950 . S
H1015 C993 0.950 . S
H1016 C1028 0.930 . S
H1017 C1030 0.930 . S
H1018 C1031 0.930 . S
H1019 C1035 0.959 . S
H1020 C1035 0.959 . S
H1021 C1035 0.961 . S
H1022 C1036 0.960 . S
H1023 C1036 0.961 . S
H1024 C1036 0.959 . S
H1025 C1039 0.929 . S
H1026 C1040 0.931 . S
H1027 C1042 0.930 . S
C1028 H1016 0.930 . S
C1028 C1029 1.399 . S
C1028 C1033 1.399 . S
C1029 C1028 1.399 . S
C1029 C1030 1.376 . S
C1030 H1017 0.930 . S
C1030 C1029 1.376 . S
C1030 C1031 1.388 . S
C1031 H1018 0.930 . S
C1031 C1030 1.388 . S
C1031 C1032 1.390 . S
C1032 C1031 1.390 . S
C1032 C1033 1.394 . S
C1032 C1038 1.465 . S
C1033 C1028 1.399 . S
C1033 C1032 1.394 . S
C1033 C1034 1.516 . S
C1034 C1033 1.516 . S
C1034 C1035 1.502 . S
C1034 C1036 1.561 . S
C1034 C1037 1.526 . S
C1035 H1019 0.959 . S
C1035 H1020 0.959 . S
C1035 H1021 0.961 . S
C1035 C1034 1.502 . S
C1036 H1022 0.960 . S
C1036 H1023 0.961 . S
C1036 H1024 0.959 . S
C1036 C1034 1.561 . S
C1037 C1034 1.526 . S
C1037 C1038 1.396 . S
C1037 C1042 1.390 . S
C1038 C1032 1.465 . S
C1038 C1037 1.396 . S
C1038 C1039 1.399 . S
C1039 H1025 0.929 . S
C1039 C1038 1.399 . S
C1039 C1040 1.385 . S
C1040 H1026 0.931 . S
C1040 C1039 1.385 . S
C1040 C1041 1.389 . S
C1041 C1040 1.389 . S
C1041 C1042 1.387 . S
C1042 H1027 0.930 . S
C1042 C1037 1.390 . S
C1042 C1041 1.387 . S
H1043 C1055 0.930 . S
H1044 C1057 0.930 . S
H1045 C1058 0.930 . S
H1046 C1062 0.959 . S
H1047 C1062 0.959 . S
H1048 C1062 0.961 . S
H1049 C1063 0.960 . S
H1050 C1063 0.961 . S
H1051 C1063 0.959 . S
H1052 C1066 0.929 . S
H1053 C1067 0.931 . S
H1054 C1069 0.930 . S
C1055 H1043 0.930 . S
C1055 C1056 1.399 . S
C1055 C1060 1.399 . S
C1056 C1055 1.399 . S
C1056 C1057 1.376 . S
C1057 H1044 0.930 . S
C1057 C1056 1.376 . S
C1057 C1058 1.388 . S
C1058 H1045 0.930 . S
C1058 C1057 1.388 . S
C1058 C1059 1.390 . S
C1059 C1058 1.390 . S
C1059 C1060 1.394 . S
C1059 C1065 1.465 . S
C1060 C1055 1.399 . S
C1060 C1059 1.394 . S
C1060 C1061 1.516 . S
C1061 C1060 1.516 . S
C1061 C1062 1.502 . S
C1061 C1063 1.561 . S
C1061 C1064 1.526 . S
C1062 H1046 0.959 . S
C1062 H1047 0.959 . S
C1062 H1048 0.961 . S
C1062 C1061 1.502 . S
C1063 H1049 0.960 . S
C1063 H1050 0.961 . S
C1063 H1051 0.959 . S
C1063 C1061 1.561 . S
C1064 C1061 1.526 . S
C1064 C1065 1.396 . S
C1064 C1069 1.390 . S
C1065 C1059 1.465 . S
C1065 C1064 1.396 . S
C1065 C1066 1.399 . S
C1066 H1052 0.929 . S
C1066 C1065 1.399 . S
C1066 C1067 1.385 . S
C1067 H1053 0.931 . S
C1067 C1066 1.385 . S
C1067 C1068 1.389 . S
C1068 C1067 1.389 . S
C1068 C1069 1.387 . S
C1069 H1054 0.930 . S
C1069 C1064 1.390 . S
C1069 C1068 1.387 . S
H1070 C1082 0.930 . S
H1071 C1084 0.930 . S
H1072 C1085 0.930 . S
H1073 C1089 0.959 . S
H1074 C1089 0.959 . S
H1075 C1089 0.961 . S
H1076 C1090 0.960 . S
H1077 C1090 0.961 . S
H1078 C1090 0.959 . S
H1079 C1093 0.929 . S
H1080 C1094 0.931 . S
H1081 C1096 0.930 . S
C1082 H1070 0.930 . S
C1082 C1083 1.399 . S
C1082 C1087 1.399 . S
C1083 C1082 1.399 . S
C1083 C1084 1.376 . S
C1084 H1071 0.930 . S
C1084 C1083 1.376 . S
C1084 C1085 1.388 . S
C1085 H1072 0.930 . S
C1085 C1084 1.388 . S
C1085 C1086 1.390 . S
C1086 C1085 1.390 . S
C1086 C1087 1.394 . S
C1086 C1092 1.465 . S
C1087 C1082 1.399 . S
C1087 C1086 1.394 . S
C1087 C1088 1.516 . S
C1088 C1087 1.516 . S
C1088 C1089 1.502 . S
C1088 C1090 1.561 . S
C1088 C1091 1.526 . S
C1089 H1073 0.959 . S
C1089 H1074 0.959 . S
C1089 H1075 0.961 . S
C1089 C1088 1.502 . S
C1090 H1076 0.960 . S
C1090 H1077 0.961 . S
C1090 H1078 0.959 . S
C1090 C1088 1.561 . S
C1091 C1088 1.526 . S
C1091 C1092 1.396 . S
C1091 C1096 1.390 . S
C1092 C1086 1.465 . S
C1092 C1091 1.396 . S
C1092 C1093 1.399 . S
C1093 H1079 0.929 . S
C1093 C1092 1.399 . S
C1093 C1094 1.385 . S
C1094 H1080 0.931 . S
C1094 C1093 1.385 . S
C1094 C1095 1.389 . S
C1095 C1094 1.389 . S
C1095 C1096 1.387 . S
C1096 H1081 0.930 . S
C1096 C1091 1.390 . S
C1096 C1095 1.387 . S
H1097 C1109 0.930 . S
H1098 C1111 0.930 . S
H1099 C1112 0.930 . S
H1100 C1116 0.959 . S
H1101 C1116 0.959 . S
H1102 C1116 0.961 . S
H1103 C1117 0.960 . S
H1104 C1117 0.961 . S
H1105 C1117 0.959 . S
H1106 C1120 0.929 . S
H1107 C1121 0.931 . S
H1108 C1123 0.930 . S
C1109 H1097 0.930 . S
C1109 C1110 1.399 . S
C1109 C1114 1.399 . S
C1110 C1109 1.399 . S
C1110 C1111 1.376 . S
C1111 H1098 0.930 . S
C1111 C1110 1.376 . S
C1111 C1112 1.388 1_565 S
C1112 H1099 0.930 . S
C1112 C1111 1.388 1_545 S
C1112 C1113 1.390 . S
C1113 C1112 1.390 . S
C1113 C1114 1.394 1_545 S
C1113 C1119 1.465 . S
C1114 C1109 1.399 . S
C1114 C1113 1.394 1_565 S
C1114 C1115 1.516 . S
C1115 C1114 1.516 . S
C1115 C1116 1.502 . S
C1115 C1117 1.561 . S
C1115 C1118 1.526 1_565 S
C1116 H1100 0.959 . S
C1116 H1101 0.959 . S
C1116 H1102 0.961 . S
C1116 C1115 1.502 . S
C1117 H1103 0.960 . S
C1117 H1104 0.961 . S
C1117 H1105 0.959 . S
C1117 C1115 1.561 . S
C1118 C1115 1.526 1_545 S
C1118 C1119 1.396 . S
C1118 C1123 1.390 . S
C1119 C1113 1.465 . S
C1119 C1118 1.396 . S
C1119 C1120 1.399 . S
C1120 H1106 0.929 . S
C1120 C1119 1.399 . S
C1120 C1121 1.385 . S
C1121 H1107 0.931 . S
C1121 C1120 1.385 . S
C1121 C1122 1.389 . S
C1122 C1121 1.389 . S
C1122 C1123 1.387 . S
C1123 H1108 0.930 . S
C1123 C1118 1.390 . S
C1123 C1122 1.387 . S
H1124 C1136 0.930 . S
H1125 C1138 0.930 . S
H1126 C1139 0.930 . S
H1127 C1143 0.959 . S
H1128 C1143 0.959 . S
H1129 C1143 0.961 . S
H1130 C1144 0.960 . S
H1131 C1144 0.961 . S
H1132 C1144 0.959 . S
H1133 C1147 0.929 . S
H1134 C1148 0.931 . S
H1135 C1150 0.930 . S
C1136 H1124 0.930 . S
C1136 C1137 1.399 . S
C1136 C1141 1.399 . S
C1137 C1136 1.399 . S
C1137 C1138 1.376 . S
C1138 H1125 0.930 . S
C1138 C1137 1.376 . S
C1138 C1139 1.388 . S
C1139 H1126 0.930 . S
C1139 C1138 1.388 . S
C1139 C1140 1.390 . S
C1140 C1139 1.390 . S
C1140 C1141 1.394 . S
C1140 C1146 1.465 . S
C1141 C1136 1.399 . S
C1141 C1140 1.394 . S
C1141 C1142 1.516 . S
C1142 C1141 1.516 . S
C1142 C1143 1.502 . S
C1142 C1144 1.561 . S
C1142 C1145 1.526 . S
C1143 H1127 0.959 . S
C1143 H1128 0.959 . S
C1143 H1129 0.961 . S
C1143 C1142 1.502 . S
C1144 H1130 0.960 . S
C1144 H1131 0.961 . S
C1144 H1132 0.959 . S
C1144 C1142 1.561 . S
C1145 C1142 1.526 . S
C1145 C1146 1.396 . S
C1145 C1150 1.390 . S
C1146 C1140 1.465 . S
C1146 C1145 1.396 . S
C1146 C1147 1.399 . S
C1147 H1133 0.929 . S
C1147 C1146 1.399 . S
C1147 C1148 1.385 . S
C1148 H1134 0.931 . S
C1148 C1147 1.385 . S
C1148 C1149 1.389 . S
C1149 C1148 1.389 . S
C1149 C1150 1.387 . S
C1150 H1135 0.930 . S
C1150 C1145 1.390 . S
C1150 C1149 1.387 . S
H1151 C1163 0.930 . S
H1152 C1165 0.930 . S
H1153 C1166 0.930 . S
H1154 C1170 0.959 . S
H1155 C1170 0.959 . S
H1156 C1170 0.961 . S
H1157 C1171 0.960 . S
H1158 C1171 0.961 . S
H1159 C1171 0.959 . S
H1160 C1174 0.929 . S
H1161 C1175 0.931 . S
H1162 C1177 0.930 . S
C1163 H1151 0.930 . S
C1163 C1164 1.399 . S
C1163 C1168 1.399 . S
C1164 C1163 1.399 . S
C1164 C1165 1.376 . S
C1165 H1152 0.930 . S
C1165 C1164 1.376 . S
C1165 C1166 1.388 . S
C1166 H1153 0.930 . S
C1166 C1165 1.388 . S
C1166 C1167 1.390 . S
C1167 C1166 1.390 . S
C1167 C1168 1.394 . S
C1167 C1173 1.465 . S
C1168 C1163 1.399 . S
C1168 C1167 1.394 . S
C1168 C1169 1.516 . S
C1169 C1168 1.516 . S
C1169 C1170 1.502 . S
C1169 C1171 1.561 . S
C1169 C1172 1.526 . S
C1170 H1154 0.959 . S
C1170 H1155 0.959 . S
C1170 H1156 0.961 . S
C1170 C1169 1.502 . S
C1171 H1157 0.960 . S
C1171 H1158 0.961 . S
C1171 H1159 0.959 . S
C1171 C1169 1.561 . S
C1172 C1169 1.526 . S
C1172 C1173 1.396 . S
C1172 C1177 1.390 . S
C1173 C1167 1.465 . S
C1173 C1172 1.396 . S
C1173 C1174 1.399 . S
C1174 H1160 0.929 . S
C1174 C1173 1.399 . S
C1174 C1175 1.385 . S
C1175 H1161 0.931 . S
C1175 C1174 1.385 . S
C1175 C1176 1.389 . S
C1176 C1175 1.389 . S
C1176 C1177 1.387 . S
C1177 H1162 0.930 . S
C1177 C1172 1.390 . S
C1177 C1176 1.387 . S
H1178 C1190 0.930 . S
H1179 C1192 0.930 . S
H1180 C1193 0.930 . S
H1181 C1197 0.959 . S
H1182 C1197 0.959 . S
H1183 C1197 0.961 . S
H1184 C1198 0.960 . S
H1185 C1198 0.961 . S
H1186 C1198 0.959 . S
H1187 C1201 0.929 . S
H1188 C1202 0.931 . S
H1189 C1204 0.930 . S
C1190 H1178 0.930 . S
C1190 C1191 1.399 . S
C1190 C1195 1.399 . S
C1191 C1190 1.399 . S
C1191 C1192 1.376 . S
C1192 H1179 0.930 . S
C1192 C1191 1.376 . S
C1192 C1193 1.388 . S
C1193 H1180 0.930 . S
C1193 C1192 1.388 . S
C1193 C1194 1.390 . S
C1194 C1193 1.390 . S
C1194 C1195 1.394 . S
C1194 C1200 1.465 . S
C1195 C1190 1.399 . S
C1195 C1194 1.394 . S
C1195 C1196 1.516 . S
C1196 C1195 1.516 . S
C1196 C1197 1.502 . S
C1196 C1198 1.561 . S
C1196 C1199 1.526 . S
C1197 H1181 0.959 . S
C1197 H1182 0.959 . S
C1197 H1183 0.961 . S
C1197 C1196 1.502 . S
C1198 H1184 0.960 . S
C1198 H1185 0.961 . S
C1198 H1186 0.959 . S
C1198 C1196 1.561 . S
C1199 C1196 1.526 . S
C1199 C1200 1.396 . S
C1199 C1204 1.390 . S
C1200 C1194 1.465 . S
C1200 C1199 1.396 . S
C1200 C1201 1.399 . S
C1201 H1187 0.929 . S
C1201 C1200 1.399 . S
C1201 C1202 1.385 . S
C1202 H1188 0.931 . S
C1202 C1201 1.385 . S
C1202 C1203 1.389 . S
C1203 C1202 1.389 . S
C1203 C1204 1.387 . S
C1204 H1189 0.930 . S
C1204 C1199 1.390 . S
C1204 C1203 1.387 . S
H1205 C1217 0.930 . S
H1206 C1219 0.930 . S
H1207 C1220 0.930 . S
H1208 C1224 0.959 . S
H1209 C1224 0.959 . S
H1210 C1224 0.961 . S
H1211 C1225 0.960 . S
H1212 C1225 0.961 . S
H1213 C1225 0.959 . S
H1214 C1228 0.929 . S
H1215 C1229 0.931 . S
H1216 C1231 0.930 . S
C1217 H1205 0.930 . S
C1217 C1218 1.399 . S
C1217 C1222 1.399 . S
C1218 C1217 1.399 . S
C1218 C1219 1.376 . S
C1219 H1206 0.930 . S
C1219 C1218 1.376 . S
C1219 C1220 1.388 . S
C1220 H1207 0.930 . S
C1220 C1219 1.388 . S
C1220 C1221 1.390 . S
C1221 C1220 1.390 . S
C1221 C1222 1.394 . S
C1221 C1227 1.465 . S
C1222 C1217 1.399 . S
C1222 C1221 1.394 . S
C1222 C1223 1.516 . S
C1223 C1222 1.516 . S
C1223 C1224 1.502 . S
C1223 C1225 1.561 . S
C1223 C1226 1.526 . S
C1224 H1208 0.959 . S
C1224 H1209 0.959 . S
C1224 H1210 0.961 . S
C1224 C1223 1.502 . S
C1225 H1211 0.960 . S
C1225 H1212 0.961 . S
C1225 H1213 0.959 . S
C1225 C1223 1.561 . S
C1226 C1223 1.526 . S
C1226 C1227 1.396 . S
C1226 C1231 1.390 . S
C1227 C1221 1.465 . S
C1227 C1226 1.396 . S
C1227 C1228 1.399 . S
C1228 H1214 0.929 . S
C1228 C1227 1.399 . S
C1228 C1229 1.385 . S
C1229 H1215 0.931 . S
C1229 C1228 1.385 . S
C1229 C1230 1.389 . S
C1230 C1229 1.389 . S
C1230 C1231 1.387 . S
C1231 H1216 0.930 . S
C1231 C1226 1.390 . S
C1231 C1230 1.387 . S
H1232 C1244 0.930 . S
H1233 C1246 0.930 . S
H1234 C1247 0.930 . S
H1235 C1251 0.959 . S
H1236 C1251 0.959 . S
H1237 C1251 0.961 . S
H1238 C1252 0.960 . S
H1239 C1252 0.961 . S
H1240 C1252 0.959 . S
H1241 C1255 0.929 . S
H1242 C1256 0.931 . S
H1243 C1258 0.930 . S
C1244 H1232 0.930 . S
C1244 C1245 1.399 . S
C1244 C1249 1.399 . S
C1245 C1244 1.399 . S
C1245 C1246 1.376 . S
C1246 H1233 0.930 . S
C1246 C1245 1.376 . S
C1246 C1247 1.388 . S
C1247 H1234 0.930 . S
C1247 C1246 1.388 . S
C1247 C1248 1.390 . S
C1248 C1247 1.390 . S
C1248 C1249 1.394 . S
C1248 C1254 1.465 . S
C1249 C1244 1.399 . S
C1249 C1248 1.394 . S
C1249 C1250 1.516 . S
C1250 C1249 1.516 . S
C1250 C1251 1.502 . S
C1250 C1252 1.561 . S
C1250 C1253 1.526 . S
C1251 H1235 0.959 . S
C1251 H1236 0.959 . S
C1251 H1237 0.961 . S
C1251 C1250 1.502 . S
C1252 H1238 0.960 . S
C1252 H1239 0.961 . S
C1252 H1240 0.959 . S
C1252 C1250 1.561 . S
C1253 C1250 1.526 . S
C1253 C1254 1.396 . S
C1253 C1258 1.390 . S
C1254 C1248 1.465 . S
C1254 C1253 1.396 . S
C1254 C1255 1.399 . S
C1255 H1241 0.929 . S
C1255 C1254 1.399 . S
C1255 C1256 1.385 . S
C1256 H1242 0.931 . S
C1256 C1255 1.385 . S
C1256 C1257 1.389 . S
C1257 C1256 1.389 . S
C1257 C1258 1.387 . S
C1258 H1243 0.930 . S
C1258 C1253 1.390 . S
C1258 C1257 1.387 . S
H1259 C1271 0.930 . S
H1260 C1273 0.930 . S
H1261 C1274 0.930 . S
H1262 C1278 0.959 . S
H1263 C1278 0.959 . S
H1264 C1278 0.961 1_565 S
H1265 C1279 0.960 . S
H1266 C1279 0.961 . S
H1267 C1279 0.959 . S
H1268 C1282 0.929 . S
H1269 C1283 0.931 . S
H1270 C1285 0.930 . S
C1271 H1259 0.930 . S
C1271 C1272 1.399 . S
C1271 C1276 1.399 1_565 S
C1272 C1271 1.399 . S
C1272 C1273 1.376 1_565 S
C1273 H1260 0.930 . S
C1273 C1272 1.376 1_545 S
C1273 C1274 1.388 . S
C1274 H1261 0.930 . S
C1274 C1273 1.388 . S
C1274 C1275 1.390 . S
C1275 C1274 1.390 . S
C1275 C1276 1.394 . S
C1275 C1281 1.465 . S
C1276 C1271 1.399 1_545 S
C1276 C1275 1.394 . S
C1276 C1277 1.516 . S
C1277 C1276 1.516 . S
C1277 C1278 1.502 . S
C1277 C1279 1.561 . S
C1277 C1280 1.526 . S
C1278 H1262 0.959 . S
C1278 H1263 0.959 . S
C1278 H1264 0.961 1_545 S
C1278 C1277 1.502 . S
C1279 H1265 0.960 . S
C1279 H1266 0.961 . S
C1279 H1267 0.959 . S
C1279 C1277 1.561 . S
C1280 C1277 1.526 . S
C1280 C1281 1.396 . S
C1280 C1285 1.390 . S
C1281 C1275 1.465 . S
C1281 C1280 1.396 . S
C1281 C1282 1.399 . S
C1282 H1268 0.929 . S
C1282 C1281 1.399 . S
C1282 C1283 1.385 . S
C1283 H1269 0.931 . S
C1283 C1282 1.385 . S
C1283 C1284 1.389 . S
C1284 C1283 1.389 . S
C1284 C1285 1.387 . S
C1285 H1270 0.930 . S
C1285 C1280 1.390 . S
C1285 C1284 1.387 . S
H1286 C1298 0.930 . S
H1287 C1300 0.930 . S
H1288 C1301 0.930 . S
H1289 C1305 0.959 . S
H1290 C1305 0.959 . S
H1291 C1305 0.961 . S
H1292 C1306 0.960 . S
H1293 C1306 0.961 . S
H1294 C1306 0.959 . S
H1295 C1309 0.929 . S
H1296 C1310 0.931 . S
H1297 C1312 0.930 . S
C1298 H1286 0.930 . S
C1298 C1299 1.399 . S
C1298 C1303 1.399 . S
C1299 C1298 1.399 . S
C1299 C1300 1.376 . S
C1300 H1287 0.930 . S
C1300 C1299 1.376 . S
C1300 C1301 1.388 . S
C1301 H1288 0.930 . S
C1301 C1300 1.388 . S
C1301 C1302 1.390 . S
C1302 C1301 1.390 . S
C1302 C1303 1.394 . S
C1302 C1308 1.465 . S
C1303 C1298 1.399 . S
C1303 C1302 1.394 . S
C1303 C1304 1.516 . S
C1304 C1303 1.516 . S
C1304 C1305 1.502 . S
C1304 C1306 1.561 . S
C1304 C1307 1.526 . S
C1305 H1289 0.959 . S
C1305 H1290 0.959 . S
C1305 H1291 0.961 . S
C1305 C1304 1.502 . S
C1306 H1292 0.960 . S
C1306 H1293 0.961 . S
C1306 H1294 0.959 . S
C1306 C1304 1.561 . S
C1307 C1304 1.526 . S
C1307 C1308 1.396 . S
C1307 C1312 1.390 . S
C1308 C1302 1.465 . S
C1308 C1307 1.396 . S
C1308 C1309 1.399 . S
C1309 H1295 0.929 . S
C1309 C1308 1.399 . S
C1309 C1310 1.385 . S
C1310 H1296 0.931 . S
C1310 C1309 1.385 . S
C1310 C1311 1.389 . S
C1311 C1310 1.389 . S
C1311 C1312 1.387 . S
C1312 H1297 0.930 . S
C1312 C1307 1.390 . S
C1312 C1311 1.387 . S
H1313 C1325 0.930 . S
H1314 C1327 0.930 . S
H1315 C1328 0.930 . S
H1316 C1332 0.959 . S
H1317 C1332 0.959 . S
H1318 C1332 0.961 . S
H1319 C1333 0.960 . S
H1320 C1333 0.961 . S
H1321 C1333 0.959 . S
H1322 C1336 0.929 . S
H1323 C1337 0.931 . S
H1324 C1339 0.930 . S
C1325 H1313 0.930 . S
C1325 C1326 1.399 . S
C1325 C1330 1.399 . S
C1326 C1325 1.399 . S
C1326 C1327 1.376 . S
C1327 H1314 0.930 . S
C1327 C1326 1.376 . S
C1327 C1328 1.388 . S
C1328 H1315 0.930 . S
C1328 C1327 1.388 . S
C1328 C1329 1.390 . S
C1329 C1328 1.390 . S
C1329 C1330 1.394 . S
C1329 C1335 1.465 . S
C1330 C1325 1.399 . S
C1330 C1329 1.394 . S
C1330 C1331 1.516 . S
C1331 C1330 1.516 . S
C1331 C1332 1.502 . S
C1331 C1333 1.561 . S
C1331 C1334 1.526 . S
C1332 H1316 0.959 . S
C1332 H1317 0.959 . S
C1332 H1318 0.961 . S
C1332 C1331 1.502 . S
C1333 H1319 0.960 . S
C1333 H1320 0.961 . S
C1333 H1321 0.959 . S
C1333 C1331 1.561 . S
C1334 C1331 1.526 . S
C1334 C1335 1.396 . S
C1334 C1339 1.390 . S
C1335 C1329 1.465 . S
C1335 C1334 1.396 . S
C1335 C1336 1.399 . S
C1336 H1322 0.929 . S
C1336 C1335 1.399 . S
C1336 C1337 1.385 . S
C1337 H1323 0.931 . S
C1337 C1336 1.385 . S
C1337 C1338 1.389 . S
C1338 C1337 1.389 . S
C1338 C1339 1.387 . S
C1339 H1324 0.930 . S
C1339 C1334 1.390 . S
C1339 C1338 1.387 . S
H1340 C1352 0.930 . S
H1341 C1354 0.930 . S
H1342 C1355 0.930 . S
H1343 C1359 0.959 . S
H1344 C1359 0.959 . S
H1345 C1359 0.961 . S
H1346 C1360 0.960 . S
H1347 C1360 0.961 . S
H1348 C1360 0.959 . S
H1349 C1363 0.929 . S
H1350 C1364 0.931 . S
H1351 C1366 0.930 . S
C1352 H1340 0.930 . S
C1352 C1353 1.399 . S
C1352 C1357 1.399 . S
C1353 C1352 1.399 . S
C1353 C1354 1.376 . S
C1354 H1341 0.930 . S
C1354 C1353 1.376 . S
C1354 C1355 1.388 . S
C1355 H1342 0.930 . S
C1355 C1354 1.388 . S
C1355 C1356 1.390 . S
C1356 C1355 1.390 . S
C1356 C1357 1.394 . S
C1356 C1362 1.465 . S
C1357 C1352 1.399 . S
C1357 C1356 1.394 . S
C1357 C1358 1.516 . S
C1358 C1357 1.516 . S
C1358 C1359 1.502 . S
C1358 C1360 1.561 . S
C1358 C1361 1.526 . S
C1359 H1343 0.959 . S
C1359 H1344 0.959 . S
C1359 H1345 0.961 . S
C1359 C1358 1.502 . S
C1360 H1346 0.960 . S
C1360 H1347 0.961 . S
C1360 H1348 0.959 . S
C1360 C1358 1.561 . S
C1361 C1358 1.526 . S
C1361 C1362 1.396 . S
C1361 C1366 1.390 . S
C1362 C1356 1.465 . S
C1362 C1361 1.396 . S
C1362 C1363 1.399 . S
C1363 H1349 0.929 . S
C1363 C1362 1.399 . S
C1363 C1364 1.385 . S
C1364 H1350 0.931 . S
C1364 C1363 1.385 . S
C1364 C1365 1.389 . S
C1365 C1364 1.389 . S
C1365 C1366 1.387 . S
C1366 H1351 0.930 . S
C1366 C1361 1.390 . S
C1366 C1365 1.387 . S
H1367 C1379 0.930 . S
H1368 C1381 0.930 . S
H1369 C1382 0.930 . S
H1370 C1386 0.959 . S
H1371 C1386 0.959 . S
H1372 C1386 0.961 . S
H1373 C1387 0.960 . S
H1374 C1387 0.961 . S
H1375 C1387 0.959 . S
H1376 C1390 0.929 . S
H1377 C1391 0.931 . S
H1378 C1393 0.930 . S
C1379 H1367 0.930 . S
C1379 C1380 1.399 . S
C1379 C1384 1.399 . S
C1380 C1379 1.399 . S
C1380 C1381 1.376 . S
C1381 H1368 0.930 . S
C1381 C1380 1.376 . S
C1381 C1382 1.388 . S
C1382 H1369 0.930 . S
C1382 C1381 1.388 . S
C1382 C1383 1.390 . S
C1383 C1382 1.390 . S
C1383 C1384 1.394 . S
C1383 C1389 1.465 . S
C1384 C1379 1.399 . S
C1384 C1383 1.394 . S
C1384 C1385 1.516 . S
C1385 C1384 1.516 . S
C1385 C1386 1.502 . S
C1385 C1387 1.561 . S
C1385 C1388 1.526 . S
C1386 H1370 0.959 . S
C1386 H1371 0.959 . S
C1386 H1372 0.961 . S
C1386 C1385 1.502 . S
C1387 H1373 0.960 . S
C1387 H1374 0.961 . S
C1387 H1375 0.959 . S
C1387 C1385 1.561 . S
C1388 C1385 1.526 . S
C1388 C1389 1.396 . S
C1388 C1393 1.390 . S
C1389 C1383 1.465 . S
C1389 C1388 1.396 . S
C1389 C1390 1.399 . S
C1390 H1376 0.929 . S
C1390 C1389 1.399 . S
C1390 C1391 1.385 . S
C1391 H1377 0.931 . S
C1391 C1390 1.385 . S
C1391 C1392 1.389 . S
C1392 C1391 1.389 . S
C1392 C1393 1.387 . S
C1393 H1378 0.930 . S
C1393 C1388 1.390 . S
C1393 C1392 1.387 . S
H1394 C1406 0.930 . S
H1395 C1408 0.930 . S
H1396 C1409 0.930 . S
H1397 C1413 0.959 . S
H1398 C1413 0.959 . S
H1399 C1413 0.961 . S
H1400 C1414 0.960 . S
H1401 C1414 0.961 . S
H1402 C1414 0.959 . S
H1403 C1417 0.929 . S
H1404 C1418 0.931 . S
H1405 C1420 0.930 . S
C1406 H1394 0.930 . S
C1406 C1407 1.399 . S
C1406 C1411 1.399 . S
C1407 C1406 1.399 . S
C1407 C1408 1.376 . S
C1408 H1395 0.930 . S
C1408 C1407 1.376 . S
C1408 C1409 1.388 . S
C1409 H1396 0.930 . S
C1409 C1408 1.388 . S
C1409 C1410 1.390 . S
C1410 C1409 1.390 . S
C1410 C1411 1.394 . S
C1410 C1416 1.465 . S
C1411 C1406 1.399 . S
C1411 C1410 1.394 . S
C1411 C1412 1.516 . S
C1412 C1411 1.516 . S
C1412 C1413 1.502 . S
C1412 C1414 1.561 . S
C1412 C1415 1.526 . S
C1413 H1397 0.959 . S
C1413 H1398 0.959 . S
C1413 H1399 0.961 . S
C1413 C1412 1.502 . S
C1414 H1400 0.960 . S
C1414 H1401 0.961 . S
C1414 H1402 0.959 . S
C1414 C1412 1.561 . S
C1415 C1412 1.526 . S
C1415 C1416 1.396 . S
C1415 C1420 1.390 . S
C1416 C1410 1.465 . S
C1416 C1415 1.396 . S
C1416 C1417 1.399 . S
C1417 H1403 0.929 . S
C1417 C1416 1.399 . S
C1417 C1418 1.385 . S
C1418 H1404 0.931 . S
C1418 C1417 1.385 . S
C1418 C1419 1.389 . S
C1419 C1418 1.389 . S
C1419 C1420 1.387 . S
C1420 H1405 0.930 . S
C1420 C1415 1.390 . S
C1420 C1419 1.387 . S
H1421 C1433 0.930 . S
H1422 C1435 0.930 . S
H1423 C1436 0.930 . S
H1424 C1440 0.959 . S
H1425 C1440 0.959 . S
H1426 C1440 0.961 . S
H1427 C1441 0.960 . S
H1428 C1441 0.961 . S
H1429 C1441 0.959 . S
H1430 C1444 0.929 . S
H1431 C1445 0.931 . S
H1432 C1447 0.930 . S
C1433 H1421 0.930 . S
C1433 C1434 1.399 . S
C1433 C1438 1.399 . S
C1434 C1433 1.399 . S
C1434 C1435 1.376 . S
C1435 H1422 0.930 . S
C1435 C1434 1.376 . S
C1435 C1436 1.388 . S
C1436 H1423 0.930 . S
C1436 C1435 1.388 . S
C1436 C1437 1.390 . S
C1437 C1436 1.390 . S
C1437 C1438 1.394 . S
C1437 C1443 1.465 . S
C1438 C1433 1.399 . S
C1438 C1437 1.394 . S
C1438 C1439 1.516 . S
C1439 C1438 1.516 . S
C1439 C1440 1.502 . S
C1439 C1441 1.561 . S
C1439 C1442 1.526 . S
C1440 H1424 0.959 . S
C1440 H1425 0.959 . S
C1440 H1426 0.961 . S
C1440 C1439 1.502 . S
C1441 H1427 0.960 . S
C1441 H1428 0.961 . S
C1441 H1429 0.959 . S
C1441 C1439 1.561 . S
C1442 C1439 1.526 . S
C1442 C1443 1.396 . S
C1442 C1447 1.390 . S
C1443 C1437 1.465 . S
C1443 C1442 1.396 . S
C1443 C1444 1.399 . S
C1444 H1430 0.929 . S
C1444 C1443 1.399 . S
C1444 C1445 1.385 . S
C1445 H1431 0.931 . S
C1445 C1444 1.385 . S
C1445 C1446 1.389 . S
C1446 C1445 1.389 . S
C1446 C1447 1.387 . S
C1447 H1432 0.930 . S
C1447 C1442 1.390 . S
C1447 C1446 1.387 . S
H1448 C1460 0.930 . S
H1449 C1462 0.930 . S
H1450 C1463 0.930 . S
H1451 C1467 0.959 . S
H1452 C1467 0.959 . S
H1453 C1467 0.961 . S
H1454 C1468 0.960 . S
H1455 C1468 0.961 . S
H1456 C1468 0.959 . S
H1457 C1471 0.929 . S
H1458 C1472 0.931 . S
H1459 C1474 0.930 . S
C1460 H1448 0.930 . S
C1460 C1461 1.399 . S
C1460 C1465 1.399 . S
C1461 C1460 1.399 . S
C1461 C1462 1.376 . S
C1462 H1449 0.930 . S
C1462 C1461 1.376 . S
C1462 C1463 1.388 . S
C1463 H1450 0.930 . S
C1463 C1462 1.388 . S
C1463 C1464 1.390 . S
C1464 C1463 1.390 . S
C1464 C1465 1.394 . S
C1464 C1470 1.465 . S
C1465 C1460 1.399 . S
C1465 C1464 1.394 . S
C1465 C1466 1.516 . S
C1466 C1465 1.516 . S
C1466 C1467 1.502 . S
C1466 C1468 1.561 . S
C1466 C1469 1.526 . S
C1467 H1451 0.959 . S
C1467 H1452 0.959 . S
C1467 H1453 0.961 . S
C1467 C1466 1.502 . S
C1468 H1454 0.960 . S
C1468 H1455 0.961 . S
C1468 H1456 0.959 . S
C1468 C1466 1.561 . S
C1469 C1466 1.526 . S
C1469 C1470 1.396 . S
C1469 C1474 1.390 . S
C1470 C1464 1.465 . S
C1470 C1469 1.396 . S
C1470 C1471 1.399 . S
C1471 H1457 0.929 . S
C1471 C1470 1.399 . S
C1471 C1472 1.385 . S
C1472 H1458 0.931 . S
C1472 C1471 1.385 . S
C1472 C1473 1.389 . S
C1473 C1472 1.389 . S
C1473 C1474 1.387 . S
C1474 H1459 0.930 . S
C1474 C1469 1.390 . S
C1474 C1473 1.387 . S
H1475 C1487 0.930 . S
H1476 C1489 0.930 . S
H1477 C1490 0.930 . S
H1478 C1494 0.959 . S
H1479 C1494 0.959 . S
H1480 C1494 0.961 . S
H1481 C1495 0.960 . S
H1482 C1495 0.961 . S
H1483 C1495 0.959 . S
H1484 C1498 0.929 . S
H1485 C1499 0.931 . S
H1486 C1501 0.930 . S
C1487 H1475 0.930 . S
C1487 C1488 1.399 . S
C1487 C1492 1.399 . S
C1488 C1487 1.399 . S
C1488 C1489 1.376 . S
C1489 H1476 0.930 . S
C1489 C1488 1.376 . S
C1489 C1490 1.388 . S
C1490 H1477 0.930 . S
C1490 C1489 1.388 . S
C1490 C1491 1.390 . S
C1491 C1490 1.390 . S
C1491 C1492 1.394 . S
C1491 C1497 1.465 . S
C1492 C1487 1.399 . S
C1492 C1491 1.394 . S
C1492 C1493 1.516 . S
C1493 C1492 1.516 . S
C1493 C1494 1.502 . S
C1493 C1495 1.561 . S
C1493 C1496 1.526 . S
C1494 H1478 0.959 . S
C1494 H1479 0.959 . S
C1494 H1480 0.961 . S
C1494 C1493 1.502 . S
C1495 H1481 0.960 . S
C1495 H1482 0.961 . S
C1495 H1483 0.959 . S
C1495 C1493 1.561 . S
C1496 C1493 1.526 . S
C1496 C1497 1.396 . S
C1496 C1501 1.390 . S
C1497 C1491 1.465 . S
C1497 C1496 1.396 . S
C1497 C1498 1.399 . S
C1498 H1484 0.929 . S
C1498 C1497 1.399 . S
C1498 C1499 1.385 . S
C1499 H1485 0.931 . S
C1499 C1498 1.385 . S
C1499 C1500 1.389 . S
C1500 C1499 1.389 . S
C1500 C1501 1.387 . S
C1501 H1486 0.930 . S
C1501 C1496 1.390 . S
C1501 C1500 1.387 . S
H1502 C1514 0.930 . S
H1503 C1516 0.930 . S
H1504 C1517 0.930 . S
H1505 C1521 0.959 . S
H1506 C1521 0.959 . S
H1507 C1521 0.961 . S
H1508 C1522 0.960 . S
H1509 C1522 0.961 . S
H1510 C1522 0.959 . S
H1511 C1525 0.929 . S
H1512 C1526 0.931 . S
H1513 C1528 0.930 . S
C1514 H1502 0.930 . S
C1514 C1515 1.399 . S
C1514 C1519 1.399 . S
C1515 C1514 1.399 . S
C1515 C1516 1.376 . S
C1516 H1503 0.930 . S
C1516 C1515 1.376 . S
C1516 C1517 1.388 . S
C1517 H1504 0.930 . S
C1517 C1516 1.388 . S
C1517 C1518 1.390 . S
C1518 C1517 1.390 . S
C1518 C1519 1.394 . S
C1518 C1524 1.465 . S
C1519 C1514 1.399 . S
C1519 C1518 1.394 . S
C1519 C1520 1.516 . S
C1520 C1519 1.516 . S
C1520 C1521 1.502 . S
C1520 C1522 1.561 . S
C1520 C1523 1.526 . S
C1521 H1505 0.959 . S
C1521 H1506 0.959 . S
C1521 H1507 0.961 . S
C1521 C1520 1.502 . S
C1522 H1508 0.960 . S
C1522 H1509 0.961 . S
C1522 H1510 0.959 . S
C1522 C1520 1.561 . S
C1523 C1520 1.526 . S
C1523 C1524 1.396 . S
C1523 C1528 1.390 . S
C1524 C1518 1.465 . S
C1524 C1523 1.396 . S
C1524 C1525 1.399 . S
C1525 H1511 0.929 . S
C1525 C1524 1.399 . S
C1525 C1526 1.385 . S
C1526 H1512 0.931 . S
C1526 C1525 1.385 . S
C1526 C1527 1.389 . S
C1527 C1526 1.389 . S
C1527 C1528 1.387 . S
C1528 H1513 0.930 . S
C1528 C1523 1.390 . S
C1528 C1527 1.387 . S
H1529 C1541 0.930 1_554 S
H1530 C1543 0.930 . S
H1531 C1544 0.930 . S
H1532 C1548 0.959 . S
H1533 C1548 0.959 . S
H1534 C1548 0.961 . S
H1535 C1549 0.960 . S
H1536 C1549 0.961 . S
H1537 C1549 0.959 . S
H1538 C1552 0.929 1_556 S
H1539 C1553 0.931 . S
H1540 C1555 0.930 . S
C1541 H1529 0.930 1_556 S
C1541 C1542 1.399 . S
C1541 C1546 1.399 1_556 S
C1542 C1541 1.399 . S
C1542 C1543 1.376 . S
C1543 H1530 0.930 . S
C1543 C1542 1.376 . S
C1543 C1544 1.388 . S
C1544 H1531 0.930 . S
C1544 C1543 1.388 . S
C1544 C1545 1.390 . S
C1545 C1544 1.390 . S
C1545 C1546 1.394 1_556 S
C1545 C1551 1.465 1_556 S
C1546 C1541 1.399 1_554 S
C1546 C1545 1.394 1_554 S
C1546 C1547 1.516 . S
C1547 C1546 1.516 . S
C1547 C1548 1.502 . S
C1547 C1549 1.561 . S
C1547 C1550 1.526 . S
C1548 H1532 0.959 . S
C1548 H1533 0.959 . S
C1548 H1534 0.961 . S
C1548 C1547 1.502 . S
C1549 H1535 0.960 . S
C1549 H1536 0.961 . S
C1549 H1537 0.959 . S
C1549 C1547 1.561 . S
C1550 C1547 1.526 . S
C1550 C1551 1.396 . S
C1550 C1555 1.390 . S
C1551 C1545 1.465 1_554 S
C1551 C1550 1.396 . S
C1551 C1552 1.399 . S
C1552 H1538 0.929 1_554 S
C1552 C1551 1.399 . S
C1552 C1553 1.385 . S
C1553 H1539 0.931 . S
C1553 C1552 1.385 . S
C1553 C1554 1.389 . S
C1554 C1553 1.389 . S
C1554 C1555 1.387 . S
C1555 H1540 0.930 . S
C1555 C1550 1.390 . S
C1555 C1554 1.387 . S
H1556 C1568 0.930 . S
H1557 C1570 0.930 . S
H1558 C1571 0.930 . S
H1559 C1575 0.959 . S
H1560 C1575 0.959 . S
H1561 C1575 0.961 . S
H1562 C1576 0.960 . S
H1563 C1576 0.961 . S
H1564 C1576 0.959 . S
H1565 C1579 0.929 . S
H1566 C1580 0.931 . S
H1567 C1582 0.930 . S
C1568 H1556 0.930 . S
C1568 C1569 1.399 . S
C1568 C1573 1.399 . S
C1569 C1568 1.399 . S
C1569 C1570 1.376 . S
C1570 H1557 0.930 . S
C1570 C1569 1.376 . S
C1570 C1571 1.388 . S
C1571 H1558 0.930 . S
C1571 C1570 1.388 . S
C1571 C1572 1.390 . S
C1572 C1571 1.390 . S
C1572 C1573 1.394 . S
C1572 C1578 1.465 . S
C1573 C1568 1.399 . S
C1573 C1572 1.394 . S
C1573 C1574 1.516 . S
C1574 C1573 1.516 . S
C1574 C1575 1.502 . S
C1574 C1576 1.561 . S
C1574 C1577 1.526 . S
C1575 H1559 0.959 . S
C1575 H1560 0.959 . S
C1575 H1561 0.961 . S
C1575 C1574 1.502 . S
C1576 H1562 0.960 . S
C1576 H1563 0.961 . S
C1576 H1564 0.959 . S
C1576 C1574 1.561 . S
C1577 C1574 1.526 . S
C1577 C1578 1.396 . S
C1577 C1582 1.390 . S
C1578 C1572 1.465 . S
C1578 C1577 1.396 . S
C1578 C1579 1.399 . S
C1579 H1565 0.929 . S
C1579 C1578 1.399 . S
C1579 C1580 1.385 . S
C1580 H1566 0.931 . S
C1580 C1579 1.385 . S
C1580 C1581 1.389 . S
C1581 C1580 1.389 . S
C1581 C1582 1.387 . S
C1582 H1567 0.930 . S
C1582 C1577 1.390 . S
C1582 C1581 1.387 . S
H1583 C1595 0.930 . S
H1584 C1597 0.930 . S
H1585 C1598 0.930 . S
H1586 C1602 0.959 . S
H1587 C1602 0.959 . S
H1588 C1602 0.961 . S
H1589 C1603 0.960 . S
H1590 C1603 0.961 . S
H1591 C1603 0.959 . S
H1592 C1606 0.929 . S
H1593 C1607 0.931 . S
H1594 C1609 0.930 . S
C1595 H1583 0.930 . S
C1595 C1596 1.399 . S
C1595 C1600 1.399 . S
C1596 C1595 1.399 . S
C1596 C1597 1.376 . S
C1597 H1584 0.930 . S
C1597 C1596 1.376 . S
C1597 C1598 1.388 . S
C1598 H1585 0.930 . S
C1598 C1597 1.388 . S
C1598 C1599 1.390 . S
C1599 C1598 1.390 . S
C1599 C1600 1.394 . S
C1599 C1605 1.465 . S
C1600 C1595 1.399 . S
C1600 C1599 1.394 . S
C1600 C1601 1.516 . S
C1601 C1600 1.516 . S
C1601 C1602 1.502 . S
C1601 C1603 1.561 . S
C1601 C1604 1.526 . S
C1602 H1586 0.959 . S
C1602 H1587 0.959 . S
C1602 H1588 0.961 . S
C1602 C1601 1.502 . S
C1603 H1589 0.960 . S
C1603 H1590 0.961 . S
C1603 H1591 0.959 . S
C1603 C1601 1.561 . S
C1604 C1601 1.526 . S
C1604 C1605 1.396 . S
C1604 C1609 1.390 . S
C1605 C1599 1.465 . S
C1605 C1604 1.396 . S
C1605 C1606 1.399 . S
C1606 H1592 0.929 . S
C1606 C1605 1.399 . S
C1606 C1607 1.385 . S
C1607 H1593 0.931 . S
C1607 C1606 1.385 . S
C1607 C1608 1.389 . S
C1608 C1607 1.389 . S
C1608 C1609 1.387 . S
C1609 H1594 0.930 . S
C1609 C1604 1.390 . S
C1609 C1608 1.387 . S
H1610 C1622 0.930 . S
H1611 C1624 0.930 . S
H1612 C1625 0.930 . S
H1613 C1629 0.959 . S
H1614 C1629 0.959 . S
H1615 C1629 0.961 . S
H1616 C1630 0.960 . S
H1617 C1630 0.961 . S
H1618 C1630 0.959 . S
H1619 C1633 0.929 . S
H1620 C1634 0.931 . S
H1621 C1636 0.930 . S
C1622 H1610 0.930 . S
C1622 C1623 1.399 . S
C1622 C1627 1.399 . S
C1623 C1622 1.399 . S
C1623 C1624 1.376 . S
C1624 H1611 0.930 . S
C1624 C1623 1.376 . S
C1624 C1625 1.388 . S
C1625 H1612 0.930 . S
C1625 C1624 1.388 . S
C1625 C1626 1.390 . S
C1626 C1625 1.390 . S
C1626 C1627 1.394 . S
C1626 C1632 1.465 . S
C1627 C1622 1.399 . S
C1627 C1626 1.394 . S
C1627 C1628 1.516 . S
C1628 C1627 1.516 . S
C1628 C1629 1.502 . S
C1628 C1630 1.561 . S
C1628 C1631 1.526 . S
C1629 H1613 0.959 . S
C1629 H1614 0.959 . S
C1629 H1615 0.961 . S
C1629 C1628 1.502 . S
C1630 H1616 0.960 . S
C1630 H1617 0.961 . S
C1630 H1618 0.959 . S
C1630 C1628 1.561 . S
C1631 C1628 1.526 . S
C1631 C1632 1.396 . S
C1631 C1636 1.390 . S
C1632 C1626 1.465 . S
C1632 C1631 1.396 . S
C1632 C1633 1.399 . S
C1633 H1619 0.929 . S
C1633 C1632 1.399 . S
C1633 C1634 1.385 . S
C1634 H1620 0.931 . S
C1634 C1633 1.385 . S
C1634 C1635 1.389 . S
C1635 C1634 1.389 . S
C1635 C1636 1.387 . S
C1636 H1621 0.930 . S
C1636 C1631 1.390 . S
C1636 C1635 1.387 . S
H1637 C1649 0.930 . S
H1638 C1651 0.930 . S
H1639 C1652 0.930 . S
H1640 C1656 0.959 . S
H1641 C1656 0.959 . S
H1642 C1656 0.961 . S
H1643 C1657 0.960 . S
H1644 C1657 0.961 . S
H1645 C1657 0.959 . S
H1646 C1660 0.929 . S
H1647 C1661 0.931 . S
H1648 C1663 0.930 . S
C1649 H1637 0.930 . S
C1649 C1650 1.399 . S
C1649 C1654 1.399 . S
C1650 C1649 1.399 . S
C1650 C1651 1.376 . S
C1651 H1638 0.930 . S
C1651 C1650 1.376 . S
C1651 C1652 1.388 . S
C1652 H1639 0.930 . S
C1652 C1651 1.388 . S
C1652 C1653 1.390 . S
C1653 C1652 1.390 . S
C1653 C1654 1.394 . S
C1653 C1659 1.465 . S
C1654 C1649 1.399 . S
C1654 C1653 1.394 . S
C1654 C1655 1.516 . S
C1655 C1654 1.516 . S
C1655 C1656 1.502 . S
C1655 C1657 1.561 . S
C1655 C1658 1.526 . S
C1656 H1640 0.959 . S
C1656 H1641 0.959 . S
C1656 H1642 0.961 . S
C1656 C1655 1.502 . S
C1657 H1643 0.960 . S
C1657 H1644 0.961 . S
C1657 H1645 0.959 . S
C1657 C1655 1.561 . S
C1658 C1655 1.526 . S
C1658 C1659 1.396 . S
C1658 C1663 1.390 . S
C1659 C1653 1.465 . S
C1659 C1658 1.396 . S
C1659 C1660 1.399 . S
C1660 H1646 0.929 . S
C1660 C1659 1.399 . S
C1660 C1661 1.385 . S
C1661 H1647 0.931 . S
C1661 C1660 1.385 . S
C1661 C1662 1.389 . S
C1662 C1661 1.389 . S
C1662 C1663 1.387 . S
C1663 H1648 0.930 . S
C1663 C1658 1.390 . S
C1663 C1662 1.387 . S
H1664 C1676 0.930 . S
H1665 C1678 0.930 . S
H1666 C1679 0.930 . S
H1667 C1683 0.959 . S
H1668 C1683 0.959 . S
H1669 C1683 0.961 . S
H1670 C1684 0.960 . S
H1671 C1684 0.961 . S
H1672 C1684 0.959 . S
H1673 C1687 0.929 . S
H1674 C1688 0.931 . S
H1675 C1690 0.930 . S
C1676 H1664 0.930 . S
C1676 C1677 1.399 . S
C1676 C1681 1.399 . S
C1677 C1676 1.399 . S
C1677 C1678 1.376 . S
C1678 H1665 0.930 . S
C1678 C1677 1.376 . S
C1678 C1679 1.388 . S
C1679 H1666 0.930 . S
C1679 C1678 1.388 . S
C1679 C1680 1.390 . S
C1680 C1679 1.390 . S
C1680 C1681 1.394 . S
C1680 C1686 1.465 . S
C1681 C1676 1.399 . S
C1681 C1680 1.394 . S
C1681 C1682 1.516 . S
C1682 C1681 1.516 . S
C1682 C1683 1.502 . S
C1682 C1684 1.561 . S
C1682 C1685 1.526 . S
C1683 H1667 0.959 . S
C1683 H1668 0.959 . S
C1683 H1669 0.961 . S
C1683 C1682 1.502 . S
C1684 H1670 0.960 . S
C1684 H1671 0.961 . S
C1684 H1672 0.959 . S
C1684 C1682 1.561 . S
C1685 C1682 1.526 . S
C1685 C1686 1.396 . S
C1685 C1690 1.390 . S
C1686 C1680 1.465 . S
C1686 C1685 1.396 . S
C1686 C1687 1.399 . S
C1687 H1673 0.929 . S
C1687 C1686 1.399 . S
C1687 C1688 1.385 . S
C1688 H1674 0.931 . S
C1688 C1687 1.385 . S
C1688 C1689 1.389 . S
C1689 C1688 1.389 . S
C1689 C1690 1.387 . S
C1690 H1675 0.930 . S
C1690 C1685 1.390 . S
C1690 C1689 1.387 . S
H1691 C1703 0.930 . S
H1692 C1705 0.930 . S
H1693 C1706 0.930 . S
H1694 C1710 0.959 . S
H1695 C1710 0.959 . S
H1696 C1710 0.961 . S
H1697 C1711 0.960 . S
H1698 C1711 0.961 . S
H1699 C1711 0.959 . S
H1700 C1714 0.929 . S
H1701 C1715 0.931 . S
H1702 C1717 0.930 . S
C1703 H1691 0.930 . S
C1703 C1704 1.399 . S
C1703 C1708 1.399 . S
C1704 C1703 1.399 . S
C1704 C1705 1.376 . S
C1705 H1692 0.930 . S
C1705 C1704 1.376 . S
C1705 C1706 1.388 . S
C1706 H1693 0.930 . S
C1706 C1705 1.388 . S
C1706 C1707 1.390 . S
C1707 C1706 1.390 . S
C1707 C1708 1.394 . S
C1707 C1713 1.465 . S
C1708 C1703 1.399 . S
C1708 C1707 1.394 . S
C1708 C1709 1.516 . S
C1709 C1708 1.516 . S
C1709 C1710 1.502 . S
C1709 C1711 1.561 . S
C1709 C1712 1.526 . S
C1710 H1694 0.959 . S
C1710 H1695 0.959 . S
C1710 H1696 0.961 . S
C1710 C1709 1.502 . S
C1711 H1697 0.960 . S
C1711 H1698 0.961 . S
C1711 H1699 0.959 . S
C1711 C1709 1.561 . S
C1712 C1709 1.526 . S
C1712 C1713 1.396 . S
C1712 C1717 1.390 . S
C1713 C1707 1.465 . S
C1713 C1712 1.396 . S
C1713 C1714 1.399 . S
C1714 H1700 0.929 . S
C1714 C1713 1.399 . S
C1714 C1715 1.385 . S
C1715 H1701 0.931 . S
C1715 C1714 1.385 . S
C1715 C1716 1.389 . S
C1716 C1715 1.389 . S
C1716 C1717 1.387 . S
C1717 H1702 0.930 . S
C1717 C1712 1.390 . S
C1717 C1716 1.387 . S
H1718 C1730 0.930 . S
H1719 C1732 0.930 . S
H1720 C1733 0.930 . S
H1721 C1737 0.959 . S
H1722 C1737 0.959 . S
H1723 C1737 0.961 . S
H1724 C1738 0.960 . S
H1725 C1738 0.961 . S
H1726 C1738 0.959 . S
H1727 C1741 0.929 . S
H1728 C1742 0.931 . S
H1729 C1744 0.930 . S
C1730 H1718 0.930 . S
C1730 C1731 1.399 . S
C1730 C1735 1.399 . S
C1731 C1730 1.399 . S
C1731 C1732 1.376 . S
C1732 H1719 0.930 . S
C1732 C1731 1.376 . S
C1732 C1733 1.388 . S
C1733 H1720 0.930 . S
C1733 C1732 1.388 . S
C1733 C1734 1.390 . S
C1734 C1733 1.390 . S
C1734 C1735 1.394 . S
C1734 C1740 1.465 . S
C1735 C1730 1.399 . S
C1735 C1734 1.394 . S
C1735 C1736 1.516 . S
C1736 C1735 1.516 . S
C1736 C1737 1.502 . S
C1736 C1738 1.561 . S
C1736 C1739 1.526 . S
C1737 H1721 0.959 . S
C1737 H1722 0.959 . S
C1737 H1723 0.961 . S
C1737 C1736 1.502 . S
C1738 H1724 0.960 . S
C1738 H1725 0.961 . S
C1738 H1726 0.959 . S
C1738 C1736 1.561 . S
C1739 C1736 1.526 . S
C1739 C1740 1.396 . S
C1739 C1744 1.390 . S
C1740 C1734 1.465 . S
C1740 C1739 1.396 . S
C1740 C1741 1.399 . S
C1741 H1727 0.929 . S
C1741 C1740 1.399 . S
C1741 C1742 1.385 . S
C1742 H1728 0.931 . S
C1742 C1741 1.385 . S
C1742 C1743 1.389 . S
C1743 C1742 1.389 . S
C1743 C1744 1.387 . S
C1744 H1729 0.930 . S
C1744 C1739 1.390 . S
C1744 C1743 1.387 . S
H1745 C1757 0.930 . S
H1746 C1759 0.930 . S
H1747 C1760 0.930 . S
H1748 C1764 0.959 . S
H1749 C1764 0.959 . S
H1750 C1764 0.961 . S
H1751 C1765 0.960 . S
H1752 C1765 0.961 . S
H1753 C1765 0.959 . S
H1754 C1768 0.929 . S
H1755 C1769 0.931 . S
H1756 C1771 0.930 . S
C1757 H1745 0.930 . S
C1757 C1758 1.399 . S
C1757 C1762 1.399 . S
C1758 C1757 1.399 . S
C1758 C1759 1.376 . S
C1759 H1746 0.930 . S
C1759 C1758 1.376 . S
C1759 C1760 1.388 . S
C1760 H1747 0.930 . S
C1760 C1759 1.388 . S
C1760 C1761 1.390 . S
C1761 C1760 1.390 . S
C1761 C1762 1.394 . S
C1761 C1767 1.465 . S
C1762 C1757 1.399 . S
C1762 C1761 1.394 . S
C1762 C1763 1.516 . S
C1763 C1762 1.516 . S
C1763 C1764 1.502 . S
C1763 C1765 1.561 . S
C1763 C1766 1.526 . S
C1764 H1748 0.959 . S
C1764 H1749 0.959 . S
C1764 H1750 0.961 . S
C1764 C1763 1.502 . S
C1765 H1751 0.960 . S
C1765 H1752 0.961 . S
C1765 H1753 0.959 . S
C1765 C1763 1.561 . S
C1766 C1763 1.526 . S
C1766 C1767 1.396 . S
C1766 C1771 1.390 . S
C1767 C1761 1.465 . S
C1767 C1766 1.396 . S
C1767 C1768 1.399 . S
C1768 H1754 0.929 . S
C1768 C1767 1.399 . S
C1768 C1769 1.385 . S
C1769 H1755 0.931 . S
C1769 C1768 1.385 . S
C1769 C1770 1.389 . S
C1770 C1769 1.389 . S
C1770 C1771 1.387 . S
C1771 H1756 0.930 . S
C1771 C1766 1.390 . S
C1771 C1770 1.387 . S
H1772 C1784 0.930 . S
H1773 C1786 0.930 . S
H1774 C1787 0.930 . S
H1775 C1791 0.959 . S
H1776 C1791 0.959 . S
H1777 C1791 0.961 . S
H1778 C1792 0.960 . S
H1779 C1792 0.961 . S
H1780 C1792 0.959 . S
H1781 C1795 0.929 . S
H1782 C1796 0.931 . S
H1783 C1798 0.930 . S
C1784 H1772 0.930 . S
C1784 C1785 1.399 . S
C1784 C1789 1.399 . S
C1785 C1784 1.399 . S
C1785 C1786 1.376 . S
C1786 H1773 0.930 . S
C1786 C1785 1.376 . S
C1786 C1787 1.388 . S
C1787 H1774 0.930 . S
C1787 C1786 1.388 . S
C1787 C1788 1.390 . S
C1788 C1787 1.390 . S
C1788 C1789 1.394 . S
C1788 C1794 1.465 . S
C1789 C1784 1.399 . S
C1789 C1788 1.394 . S
C1789 C1790 1.516 . S
C1790 C1789 1.516 . S
C1790 C1791 1.502 . S
C1790 C1792 1.561 . S
C1790 C1793 1.526 . S
C1791 H1775 0.959 . S
C1791 H1776 0.959 . S
C1791 H1777 0.961 . S
C1791 C1790 1.502 . S
C1792 H1778 0.960 . S
C1792 H1779 0.961 . S
C1792 H1780 0.959 . S
C1792 C1790 1.561 . S
C1793 C1790 1.526 . S
C1793 C1794 1.396 . S
C1793 C1798 1.390 . S
C1794 C1788 1.465 . S
C1794 C1793 1.396 . S
C1794 C1795 1.399 . S
C1795 H1781 0.929 . S
C1795 C1794 1.399 . S
C1795 C1796 1.385 . S
C1796 H1782 0.931 . S
C1796 C1795 1.385 . S
C1796 C1797 1.389 . S
C1797 C1796 1.389 . S
C1797 C1798 1.387 . S
C1798 H1783 0.930 . S
C1798 C1793 1.390 . S
C1798 C1797 1.387 . S
H1799 C1811 0.930 . S
H1800 C1813 0.930 . S
H1801 C1814 0.930 . S
H1802 C1818 0.959 . S
H1803 C1818 0.959 . S
H1804 C1818 0.961 . S
H1805 C1819 0.960 . S
H1806 C1819 0.961 . S
H1807 C1819 0.959 . S
H1808 C1822 0.929 . S
H1809 C1823 0.931 . S
H1810 C1825 0.930 . S
C1811 H1799 0.930 . S
C1811 C1812 1.399 . S
C1811 C1816 1.399 . S
C1812 C1811 1.399 . S
C1812 C1813 1.376 . S
C1813 H1800 0.930 . S
C1813 C1812 1.376 . S
C1813 C1814 1.388 . S
C1814 H1801 0.930 . S
C1814 C1813 1.388 . S
C1814 C1815 1.390 . S
C1815 C1814 1.390 . S
C1815 C1816 1.394 . S
C1815 C1821 1.465 . S
C1816 C1811 1.399 . S
C1816 C1815 1.394 . S
C1816 C1817 1.516 . S
C1817 C1816 1.516 . S
C1817 C1818 1.502 . S
C1817 C1819 1.561 . S
C1817 C1820 1.526 . S
C1818 H1802 0.959 . S
C1818 H1803 0.959 . S
C1818 H1804 0.961 . S
C1818 C1817 1.502 . S
C1819 H1805 0.960 . S
C1819 H1806 0.961 . S
C1819 H1807 0.959 . S
C1819 C1817 1.561 . S
C1820 C1817 1.526 . S
C1820 C1821 1.396 . S
C1820 C1825 1.390 . S
C1821 C1815 1.465 . S
C1821 C1820 1.396 . S
C1821 C1822 1.399 . S
C1822 H1808 0.929 . S
C1822 C1821 1.399 . S
C1822 C1823 1.385 . S
C1823 H1809 0.931 . S
C1823 C1822 1.385 . S
C1823 C1824 1.389 . S
C1824 C1823 1.389 . S
C1824 C1825 1.387 . S
C1825 H1810 0.930 . S
C1825 C1820 1.390 . S
C1825 C1824 1.387 . S
H1826 C1838 0.930 . S
H1827 C1840 0.930 . S
H1828 C1841 0.930 . S
H1829 C1845 0.959 . S
H1830 C1845 0.959 . S
H1831 C1845 0.961 . S
H1832 C1846 0.960 . S
H1833 C1846 0.961 . S
H1834 C1846 0.959 . S
H1835 C1849 0.929 . S
H1836 C1850 0.931 . S
H1837 C1852 0.930 . S
C1838 H1826 0.930 . S
C1838 C1839 1.399 . S
C1838 C1843 1.399 . S
C1839 C1838 1.399 . S
C1839 C1840 1.376 . S
C1840 H1827 0.930 . S
C1840 C1839 1.376 . S
C1840 C1841 1.388 . S
C1841 H1828 0.930 . S
C1841 C1840 1.388 . S
C1841 C1842 1.390 . S
C1842 C1841 1.390 . S
C1842 C1843 1.394 . S
C1842 C1848 1.465 . S
C1843 C1838 1.399 . S
C1843 C1842 1.394 . S
C1843 C1844 1.516 . S
C1844 C1843 1.516 . S
C1844 C1845 1.502 . S
C1844 C1846 1.561 . S
C1844 C1847 1.526 . S
C1845 H1829 0.959 . S
C1845 H1830 0.959 . S
C1845 H1831 0.961 . S
C1845 C1844 1.502 . S
C1846 H1832 0.960 . S
C1846 H1833 0.961 . S
C1846 H1834 0.959 . S
C1846 C1844 1.561 . S
C1847 C1844 1.526 . S
C1847 C1848 1.396 . S
C1847 C1852 1.390 . S
C1848 C1842 1.465 . S
C1848 C1847 1.396 . S
C1848 C1849 1.399 . S
C1849 H1835 0.929 . S
C1849 C1848 1.399 . S
C1849 C1850 1.385 . S
C1850 H1836 0.931 . S
C1850 C1849 1.385 . S
C1850 C1851 1.389 . S
C1851 C1850 1.389 . S
C1851 C1852 1.387 . S
C1852 H1837 0.930 . S
C1852 C1847 1.390 . S
C1852 C1851 1.387 . S
H1853 C1865 0.930 . S
H1854 C1867 0.930 . S
H1855 C1868 0.930 . S
H1856 C1872 0.957 . S
H1857 C1872 0.962 1_554 S
H1858 C1872 0.959 . S
H1859 C1873 0.960 . S
H1860 C1873 0.961 . S
H1861 C1873 0.959 . S
H1862 C1876 0.929 1_556 S
H1863 C1877 0.931 . S
H1864 C1879 0.930 . S
C1865 H1853 0.930 . S
C1865 C1866 1.399 . S
C1865 C1870 1.399 . S
C1866 C1865 1.399 . S
C1866 C1867 1.376 . S
C1867 H1854 0.930 . S
C1867 C1866 1.376 . S
C1867 C1868 1.388 . S
C1868 H1855 0.930 . S
C1868 C1867 1.388 . S
C1868 C1869 1.390 . S
C1869 C1868 1.390 . S
C1869 C1870 1.394 . S
C1869 C1875 1.465 . S
C1870 C1865 1.399 . S
C1870 C1869 1.394 . S
C1870 C1871 1.516 1_556 S
C1871 C1870 1.516 1_554 S
C1871 C1872 1.503 1_554 S
C1871 C1873 1.561 . S
C1871 C1874 1.526 . S
C1872 H1856 0.957 . S
C1872 H1857 0.962 1_556 S
C1872 H1858 0.959 . S
C1872 C1871 1.503 1_556 S
C1873 H1859 0.960 . S
C1873 H1860 0.961 . S
C1873 H1861 0.959 . S
C1873 C1871 1.561 . S
C1874 C1871 1.526 . S
C1874 C1875 1.396 1_554 S
C1874 C1879 1.390 . S
C1875 C1869 1.465 . S
C1875 C1874 1.396 1_556 S
C1875 C1876 1.399 1_556 S
C1876 H1862 0.929 1_554 S
C1876 C1875 1.399 1_554 S
C1876 C1877 1.385 . S
C1877 H1863 0.931 . S
C1877 C1876 1.385 . S
C1877 C1878 1.389 . S
C1878 C1877 1.389 . S
C1878 C1879 1.387 . S
C1879 H1864 0.930 . S
C1879 C1874 1.390 . S
C1879 C1878 1.387 . S
C1041 C621 1.655 . S
C1029 C39 1.597 . S
C1068 C674 1.446 . S
C1056 C125 1.445 . S
C1095 C737 2.245 . S
C1083 C217 2.188 . S
C1122 C780 1.733 . S
C1110 C261 1.628 . S
C1137 C359 1.469 . S
C1149 C736 1.487 . S
C1176 C773 1.244 . S
C1164 C433 1.176 . S
C1203 C614 1.520 . S
C1191 C495 1.504 . S
C1230 C667 1.430 . S
C1218 C587 1.480 . S
C1257 C720 1.763 . S
C1245 C557 1.714 . S
C1284 C789 1.375 . S
C1272 C347 1.388 . S
C1311 C630 1.110 . S
C1299 C421 1.098 . S
C1338 C683 1.817 . S
C1326 C507 1.770 . S
C1365 C631 1.457 . S
C1353 C137 1.459 . S
C1392 C684 1.960 . S
C1380 C187 1.841 . S
C1419 C727 2.558 . S
C1407 C291 2.502 . S
C1446 C790 2.244 . S
C1434 C69 2.267 . S
C1473 C833 1.393 . S
C1461 C581 1.392 . S
C1488 C365 2.209 . S
C1500 C886 2.176 . S
C1515 C439 2.611 . S
C1527 C948 2.580 . S
C1542 C483 1.609 . S
C1554 C1002 1.691 . S
C1569 C113 1.772 . S
C1581 C949 1.757 . S
C1596 C211 1.872 . S
C1608 C1001 1.904 . S
C1623 C273 1.318 . S
C1635 C826 1.357 . S
C1662 C879 1.219 . S
C1650 C51 1.224 . S
C1689 C939 1.441 . S
C1677 C63 1.435 . S
C1704 C143 1.555 . S
C1716 C985 1.579 . S
C1731 C199 1.913 . S
C1743 C842 1.926 . S
C1758 C285 1.096 . S
C1770 C895 1.202 . S
C1797 C843 1.643 . S
C1785 C335 1.560 . S
C1824 C896 2.019 . S
C1812 C409 1.888 . S
C1839 C513 1.971 . S
C1851 C932 1.958 . S
C1878 C992 1.390 . S
C1866 C569 1.398 . S
