# Generated by pormake.
# Topology pyr, (3,6)-cn, num edge types: 1
# Building blocks:
#     Node 0, Type 0, BuildingBlock: BETDIP_clean_linker_0, # of connection points: 3
#     Node 1, Type 0, BuildingBlock: BETDIP_clean_linker_0, # of connection points: 3
#     Node 2, Type 0, BuildingBlock: BETDIP_clean_linker_0, # of connection points: 3
#     Node 3, Type 0, BuildingBlock: BETDIP_clean_linker_0, # of connection points: 3
#     Node 4, Type 0, BuildingBlock: BETDIP_clean_linker_0, # of connection points: 3
#     Node 5, Type 0, BuildingBlock: BETDIP_clean_linker_0, # of connection points: 3
#     Node 6, Type 0, BuildingBlock: BETDIP_clean_linker_0, # of connection points: 3
#     Node 7, Type 0, BuildingBlock: BETDIP_clean_linker_0, # of connection points: 3
#     Node 8, Type 1, BuildingBlock: INOVEN_clean_sbu_0, # of connection points: 6
#     Node 9, Type 1, BuildingBlock: INOVEN_clean_sbu_0, # of connection points: 6
#     Node 10, Type 1, BuildingBlock: INOVEN_clean_sbu_0, # of connection points: 6
#     Node 11, Type 1, BuildingBlock: INOVEN_clean_sbu_0, # of connection points: 6
#     Edge 12, Type (0, 1), BuildingBlock: KIFKEQ_clean_linker_1, # of connection points: 2
#     Edge 13, Type (0, 1), BuildingBlock: KIFKEQ_clean_linker_1, # of connection points: 2
#     Edge 14, Type (0, 1), BuildingBlock: KIFKEQ_clean_linker_1, # of connection points: 2
#     Edge 15, Type (0, 1), BuildingBlock: KIFKEQ_clean_linker_1, # of connection points: 2
#     Edge 16, Type (0, 1), BuildingBlock: KIFKEQ_clean_linker_1, # of connection points: 2
#     Edge 17, Type (0, 1), BuildingBlock: KIFKEQ_clean_linker_1, # of connection points: 2
#     Edge 18, Type (0, 1), BuildingBlock: KIFKEQ_clean_linker_1, # of connection points: 2
#     Edge 19, Type (0, 1), BuildingBlock: KIFKEQ_clean_linker_1, # of connection points: 2
#     Edge 20, Type (0, 1), BuildingBlock: KIFKEQ_clean_linker_1, # of connection points: 2
#     Edge 21, Type (0, 1), BuildingBlock: KIFKEQ_clean_linker_1, # of connection points: 2
#     Edge 22, Type (0, 1), BuildingBlock: KIFKEQ_clean_linker_1, # of connection points: 2
#     Edge 23, Type (0, 1), BuildingBlock: KIFKEQ_clean_linker_1, # of connection points: 2
#     Edge 24, Type (0, 1), BuildingBlock: KIFKEQ_clean_linker_1, # of connection points: 2
#     Edge 25, Type (0, 1), BuildingBlock: KIFKEQ_clean_linker_1, # of connection points: 2
#     Edge 26, Type (0, 1), BuildingBlock: KIFKEQ_clean_linker_1, # of connection points: 2
#     Edge 27, Type (0, 1), BuildingBlock: KIFKEQ_clean_linker_1, # of connection points: 2
#     Edge 28, Type (0, 1), BuildingBlock: KIFKEQ_clean_linker_1, # of connection points: 2
#     Edge 29, Type (0, 1), BuildingBlock: KIFKEQ_clean_linker_1, # of connection points: 2
#     Edge 30, Type (0, 1), BuildingBlock: KIFKEQ_clean_linker_1, # of connection points: 2
#     Edge 31, Type (0, 1), BuildingBlock: KIFKEQ_clean_linker_1, # of connection points: 2
#     Edge 32, Type (0, 1), BuildingBlock: KIFKEQ_clean_linker_1, # of connection points: 2
#     Edge 33, Type (0, 1), BuildingBlock: KIFKEQ_clean_linker_1, # of connection points: 2
#     Edge 34, Type (0, 1), BuildingBlock: KIFKEQ_clean_linker_1, # of connection points: 2
#     Edge 35, Type (0, 1), BuildingBlock: KIFKEQ_clean_linker_1, # of connection points: 2
# Relax obj value: 0.123
# Max RMSD: 0.170
# Mean RMSD: 0.138
data_MOF--net-pyr--node1-INOVEN_clean_sbu_0--node2-BETDIP_clean_linker_0--edge1-KIFKEQ_clean_linker_1
_symmetry_space_group_name_H-M    P1
_symmetry_Int_Tables_number       1
_symmetry_cell_setting            triclinic
loop_
_symmetry_equiv_pos_as_xyz
'x, y, z'
_cell_length_a     39.881839
_cell_length_b     39.276803
_cell_length_c     36.247431
_cell_angle_alpha  89.987954
_cell_angle_beta   87.069646
_cell_angle_gamma 107.13924
loop_
_atom_site_label
_atom_site_type_symbol
_atom_site_fract_x
_atom_site_fract_y
_atom_site_fract_z
_atom_type_partial_charge
H0 H 0.30579 0.33151 0.25617 0.0
H1 H 0.37946 0.30813 0.17766 0.0
H2 H 0.34729 0.24449 0.27722 0.0
H3 H 0.34369 0.39408 0.23241 0.0
C4 C 0.33386 0.38318 0.20615 0.0
C5 C 0.3238 0.31635 0.24898 0.0
C6 C 0.3236 0.28672 0.27078 0.0
C7 C 0.34486 0.32478 0.21604 0.0
C8 C 0.36517 0.30278 0.2043 0.0
C9 C 0.3659 0.27332 0.22601 0.0
C10 C 0.34611 0.2665 0.25987 0.0
N11 N 0.34274 0.35289 0.19249 0.0
H12 H 0.19261 0.86629 0.7032 0.0
H13 H 0.21312 0.81552 0.60273 0.0
H14 H 0.29512 0.85497 0.67756 0.0
H15 H 0.16608 0.82703 0.58379 0.0
C16 C 0.15298 0.83787 0.60574 0.0
C17 C 0.21047 0.85702 0.68511 0.0
C18 C 0.24547 0.863 0.69417 0.0
C19 C 0.19871 0.84088 0.6518 0.0
C20 C 0.22187 0.82903 0.62803 0.0
C21 C 0.25682 0.83451 0.63707 0.0
C22 C 0.26839 0.85164 0.67 0.0
N23 N 0.16417 0.83916 0.64239 0.0
H24 H 0.71395 0.4374 0.87628 0.0
H25 H 0.62126 0.34757 0.87449 0.0
H26 H 0.69807 0.34946 0.95348 0.0
H27 H 0.59811 0.38946 0.85216 0.0
C28 C 0.61895 0.40608 0.83389 0.0
C29 C 0.69832 0.41191 0.88783 0.0
C30 C 0.71058 0.39607 0.91732 0.0
C31 C 0.66582 0.39527 0.87279 0.0
C32 C 0.6457 0.36145 0.8866 0.0
C33 C 0.65772 0.34455 0.91516 0.0
C34 C 0.68985 0.36214 0.93052 0.0
N35 N 0.65461 0.41281 0.84327 0.0
H36 H 0.8013 0.65546 0.38623 0.0
H37 H 0.88891 0.7507 0.37294 0.0
H38 H 0.80193 0.74808 0.44944 0.0
H39 H 0.89171 0.72821 0.31416 0.0
C40 C 0.88476 0.69953 0.31821 0.0
C41 C 0.81414 0.68281 0.39349 0.0
C42 C 0.7977 0.69985 0.41957 0.0
C43 C 0.8464 0.70117 0.37554 0.0
C44 C 0.86338 0.73661 0.38553 0.0
C45 C 0.84746 0.75384 0.41229 0.0
C46 C 0.81433 0.73532 0.42857 0.0
N47 N 0.86095 0.6829 0.34803 0.0
H48 H 0.61892 0.78275 0.96953 0.0
H49 H 0.69103 0.75459 0.89197 0.0
H50 H 0.66652 0.85321 0.87819 0.0
H51 H 0.65034 0.69287 0.91546 0.0
C52 C 0.66104 0.70427 0.9412 0.0
C53 C 0.6358 0.78866 0.94451 0.0
C54 C 0.63935 0.8201 0.92414 0.0
C55 C 0.65391 0.76467 0.93273 0.0
C56 C 0.67641 0.77269 0.90074 0.0
C57 C 0.68158 0.80477 0.88101 0.0
C58 C 0.66224 0.82794 0.89249 0.0
N59 N 0.65156 0.73419 0.95502 0.0
H60 H 0.80967 0.23775 0.41673 0.0
H61 H 0.8229 0.31631 0.50165 0.0
H62 H 0.7698 0.32704 0.40394 0.0
H63 H 0.85823 0.2867 0.52645 0.0
C64 C 0.85052 0.26006 0.51522 0.0
C65 C 0.80666 0.26281 0.42659 0.0
C66 C 0.78863 0.28117 0.40599 0.0
C67 C 0.81955 0.27535 0.46066 0.0
C68 C 0.81459 0.30707 0.47453 0.0
C69 C 0.79736 0.3263 0.45357 0.0
C70 C 0.78492 0.31342 0.41913 0.0
N71 N 0.83443 0.25316 0.48095 0.0
H72 H 0.30355 0.67032 0.24693 0.0
H73 H 0.39466 0.76143 0.25197 0.0
H74 H 0.31282 0.76286 0.17934 0.0
H75 H 0.39498 0.7413 0.31045 0.0
C76 C 0.38599 0.71244 0.30909 0.0
C77 C 0.31813 0.69709 0.23772 0.0
C78 C 0.30457 0.71442 0.21075 0.0
C79 C 0.3498 0.71435 0.25397 0.0
C80 C 0.36915 0.74896 0.2414 0.0
C81 C 0.35637 0.76695 0.2141 0.0
C82 C 0.3236 0.74944 0.19967 0.0
N83 N 0.36162 0.69585 0.28225 0.0
H84 H 0.12113 0.34692 0.76569 0.0
H85 H 0.21231 0.43879 0.75834 0.0
H86 H 0.20392 0.35207 0.68338 0.0
H87 H 0.17198 0.46645 0.77909 0.0
C88 C 0.15582 0.44773 0.7996 0.0
C89 C 0.14642 0.36101 0.75247 0.0
C90 C 0.16089 0.34502 0.72357 0.0
C91 C 0.16425 0.39523 0.76447 0.0
C92 C 0.1976 0.41323 0.74795 0.0
C93 C 0.21258 0.39777 0.71884 0.0
C94 C 0.19363 0.3638 0.70673 0.0
N95 N 0.14827 0.41045 0.79364 0.0
Gd96 Gd 0.00219 0.06876 0.534 0.0
Gd97 Gd 0.99462 1.03042 0.60786 0.0
C98 C 0.03868 0.11065 0.60571 0.0
C99 C 0.00962 0.11389 0.48033 0.0
C100 C 0.04204 0.13595 0.46061 0.0
C101 C 0.06722 0.12025 0.44619 0.0
C102 C 0.04961 0.1732 0.45911 0.0
C103 C 0.10765 0.17866 0.43052 0.0
C104 C 0.08215 0.19441 0.44415 0.0
C105 C 0.0995 0.14132 0.43117 0.0
C106 C 0.05037 1.03378 0.54371 0.0
C107 C 0.95824 0.98821 0.53587 0.0
C108 C 0.98873 0.98666 0.66265 0.0
C109 C 0.95804 0.9617 0.68266 0.0
C110 C 0.94711 0.97074 0.71779 0.0
C111 C 0.93788 0.93037 0.6662 0.0
C112 C 0.89496 0.91956 0.71825 0.0
C113 C 0.90667 0.90937 0.68398 0.0
C114 C 0.91577 0.95005 0.73527 0.0
C115 C 0.94622 0.06518 0.59736 0.0
O116 O 0.02201 0.11239 0.57548 0.0
O117 O 0.03829 0.0795 0.61976 0.0
O118 O 0.00178 0.0795 0.47551 0.0
O119 O 0.00522 0.12206 0.51483 0.0
O120 O 0.03871 1.03832 0.51207 0.0
O121 O 0.03891 0.0511 0.56773 0.0
O122 O 0.97366 0.98639 0.56701 0.0
O123 O 0.95917 1.01938 0.52131 0.0
O124 O 0.99163 1.02044 0.66675 0.0
O125 O 0.99595 0.979 0.62857 0.0
O126 O 0.95819 0.06163 0.62912 0.0
O127 O 0.95789 0.0476 0.57386 0.0
H128 H 0.06239 0.09163 0.44712 0.0
H129 H 0.03072 0.1859 0.47039 0.0
H130 H 0.08767 0.22311 0.44412 0.0
H131 H 0.11815 0.12824 0.4201 0.0
H132 H 0.96228 0.9945 0.73129 0.0
H133 H 0.94561 0.92258 0.63917 0.0
H134 H 0.89106 0.88591 0.67038 0.0
H135 H 0.90758 0.95809 0.762 0.0
Gd136 Gd 0.54196 0.07002 0.07671 0.0
Gd137 Gd 0.47051 1.03912 1.04665 0.0
C138 C 0.47718 0.09716 0.10834 0.0
C139 C 0.60176 0.11114 0.09591 0.0
C140 C 0.61803 0.12945 0.12866 0.0
C141 C 0.61229 0.11242 0.16346 0.0
C142 C 0.64054 0.16431 0.12473 0.0
C143 C 0.65295 0.16443 0.18963 0.0
C144 C 0.6578 0.18176 0.15501 0.0
C145 C 0.62977 0.12975 0.19369 0.0
C146 C 0.50199 1.00991 0.11279 0.0
C147 C 0.53506 1.01022 1.01724 0.0
C148 C 0.41 0.99968 1.02706 0.0
C149 C 0.39273 0.98575 0.99329 0.0
C150 C 0.40938 0.99662 0.95846 0.0
C151 C 0.35861 0.96228 0.99597 0.0
C152 C 0.35731 0.96102 0.92901 0.0
C153 C 0.341 0.94995 0.96408 0.0
C154 C 0.39176 0.98435 0.9265 0.0
C155 C 0.51084 0.0992 1.01055 0.0
O156 O 0.5115 0.10548 0.10159 0.0
O157 O 0.456 0.06752 0.09566 0.0
O158 O 0.59365 0.07636 0.09625 0.0
O159 O 0.57784 0.12314 0.0818 0.0
O160 O 0.53596 1.01915 0.10926 0.0
O161 O 0.49114 1.03464 0.10078 0.0
O162 O 0.50067 1.00263 1.02338 0.0
O163 O 0.55659 1.03991 1.02935 0.0
O164 O 0.41783 1.03415 1.03087 0.0
O165 O 0.43504 0.98674 1.03664 0.0
O166 O 0.47693 0.09025 1.01434 0.0
O167 O 0.52136 0.07423 1.02246 0.0
H168 H 0.5947 0.08562 0.1672 0.0
H169 H 0.64522 0.17784 0.09806 0.0
H170 H 0.67571 0.20839 0.15111 0.0
H171 H 0.62527 0.116 0.22022 0.0
H172 H 0.43581 1.01476 0.95605 0.0
H173 H 0.34542 0.95384 1.02276 0.0
H174 H 0.31438 0.93231 0.96689 0.0
H175 H 0.40515 0.99295 0.89985 0.0
Gd176 Gd 0.50677 0.52602 0.54136 0.0
Gd177 Gd 0.50126 0.58324 0.59288 0.0
C178 C 0.53354 0.52666 0.62533 0.0
C179 C 0.53079 0.48337 0.50107 0.0
C180 C 0.56323 0.47312 0.50084 0.0
C181 C 0.56702 0.44551 0.47825 0.0
C182 C 0.59103 0.49163 0.52224 0.0
C183 C 0.62662 0.45536 0.4977 0.0
C184 C 0.62248 0.48271 0.5208 0.0
C185 C 0.59848 0.43668 0.47665 0.0
C186 C 0.44258 0.51294 0.57604 0.0
C187 C 0.47231 0.58246 0.50959 0.0
C188 C 0.48217 0.63095 0.62989 0.0
C189 C 0.46254 0.65576 0.61992 0.0
C190 C 0.47904 0.6926 0.62027 0.0
C191 C 0.42801 0.64309 0.60834 0.0
C192 C 0.4264 0.70387 0.59878 0.0
C193 C 0.4101 0.6669 0.59806 0.0
C194 C 0.46125 0.71643 0.6096 0.0
C195 C 0.56499 0.59407 0.55773 0.0
O196 O 0.5386 0.51912 0.59018 0.0
O197 O 0.51485 0.5483 0.63454 0.0
O198 O 0.50885 0.4725 0.5297 0.0
O199 O 0.53504 0.51662 0.49194 0.0
O200 O 0.44789 0.50364 0.54239 0.0
O201 O 0.47155 0.52644 0.5905 0.0
O202 O 0.4719 0.59372 0.54399 0.0
O203 O 0.48706 0.55746 0.50042 0.0
O204 O 0.5134 0.63702 0.61356 0.0
O205 O 0.4646 0.59705 0.63173 0.0
O206 O 0.5607 0.60125 0.59227 0.0
O207 O 0.53571 0.5826 0.5436 0.0
H208 H 0.54577 0.431 0.46161 0.0
H209 H 0.58861 0.51331 0.53959 0.0
H210 H 0.64378 0.49768 0.53709 0.0
H211 H 0.60077 0.41511 0.45903 0.0
H212 H 0.5058 0.70296 0.62866 0.0
H213 H 0.41465 0.6148 0.60736 0.0
H214 H 0.38312 0.65625 0.59052 0.0
H215 H 0.47477 0.74471 0.60999 0.0
Gd216 Gd 0.00829 0.52198 0.07869 0.0
Gd217 Gd 0.00684 0.59287 1.04791 0.0
C218 C 0.07468 0.59359 0.09071 0.0
C219 C 0.0256 0.46551 0.09489 0.0
C220 C 0.05719 0.4576 0.10704 0.0
C221 C 0.07869 0.47894 0.13284 0.0
C222 C 0.06689 0.42917 0.09111 0.0
C223 C 0.11945 0.44342 0.12643 0.0
C224 C 0.09771 0.42215 0.10064 0.0
C225 C 0.10952 0.47187 0.1425 0.0
C226 C 0.97358 0.55778 0.12244 0.0
C227 C 0.94113 0.52114 1.03585 0.0
C228 C 0.98807 0.64819 1.03072 0.0
C229 C 0.95409 0.65393 1.0237 0.0
C230 C 0.95265 0.6801 0.99808 0.0
C231 C 0.92282 0.63269 1.04155 0.0
C232 C 0.88897 0.66381 1.00811 0.0
C233 C 0.89057 0.63767 1.03391 0.0
C234 C 0.92038 0.685 0.9903 0.0
C235 C 0.04335 0.55864 1.00492 0.0
O236 O 0.06283 0.55828 0.09 0.0
O237 O 0.0561 0.61374 0.07852 0.0
O238 O 0.00925 0.48115 0.1185 0.0
O239 O 0.02818 0.47854 0.06133 0.0
O240 O 0.96312 0.52336 0.11896 0.0
O241 O 0.00206 0.57085 0.10395 0.0
O242 O 0.95146 0.55621 1.03972 0.0
O243 O 0.96106 0.50148 1.0454 0.0
O244 O 0.99967 0.62938 1.00618 0.0
O245 O 0.99221 0.63959 0.06473 0.0
O246 O 0.05269 0.59299 1.00881 0.0
O247 O 0.01433 0.54448 1.02234 0.0
H248 H 0.0718 0.50117 0.14537 0.0
H249 H 0.05081 0.41265 0.07085 0.0
H250 H 0.10481 0.40042 0.08725 0.0
H251 H 0.1254 0.48854 0.16277 0.0
H252 H 0.97649 0.69665 0.98396 0.0
H253 H 0.92327 0.61207 0.06122 0.0
H254 H 0.86683 0.62061 1.0477 0.0
H255 H 0.92003 0.70557 0.97055 0.0
H256 H 0.29643 0.32691 0.31995 0.0
H257 H 0.28876 0.21787 0.2917 0.0
H258 H 0.24646 0.30528 0.36468 0.0
H259 H 0.24075 0.19686 0.33753 0.0
H260 H 0.12324 0.23852 0.38611 0.0
H261 H 0.17984 0.26911 0.35456 0.0
H262 H 0.2275 0.1984 0.40837 0.0
H263 H 0.17141 0.16845 0.44073 0.0
C264 C 0.28456 0.29845 0.32348 0.0
C265 C 0.29683 0.27424 0.30196 0.0
C266 C 0.25611 0.28616 0.34923 0.0
C267 C 0.23996 0.24947 0.35455 0.0
C268 C 0.25312 0.22531 0.33437 0.0
C269 C 0.28094 0.23749 0.3082 0.0
C270 C 0.14598 0.23013 0.39199 0.0
C271 C 0.14266 0.20058 0.41533 0.0
C272 C 0.17836 0.24767 0.37397 0.0
C273 C 0.20782 0.2358 0.37883 0.0
C274 C 0.20502 0.20774 0.40386 0.0
C275 C 0.17285 0.19047 0.4221 0.0
H276 H 0.2139 0.85073 0.76369 0.0
H277 H 0.30666 0.91545 0.70268 0.0
H278 H 0.23827 0.87677 0.82136 0.0
H279 H 0.33144 0.94056 0.76014 0.0
H280 H 0.35477 0.99992 0.86727 0.0
H281 H 0.32454 0.97877 0.81107 0.0
H282 H 0.2868 0.87243 0.85831 0.0
H283 H 0.31692 0.89358 0.91447 0.0
C284 C 0.23929 0.8708 0.76261 0.0
C285 C 0.25852 0.88088 0.7288 0.0
C286 C 0.25339 0.88542 0.79559 0.0
C287 C 0.28688 0.91052 0.79529 0.0
C288 C 0.30547 0.92151 0.76129 0.0
C289 C 0.29144 0.90687 0.72842 0.0
C290 C 0.34012 0.972 0.86555 0.0
C291 C 0.33836 0.94836 0.89518 0.0
C292 C 0.32275 0.95992 0.83344 0.0
C293 C 0.30329 0.92394 0.83028 0.0
C294 C 0.30109 0.90043 0.86014 0.0
C295 C 0.31843 0.91251 0.89226 0.0
H296 H 0.66087 0.44614 0.77644 0.0
H297 H 0.55342 0.40705 0.81968 0.0
H298 H 0.64185 0.47572 0.72514 0.0
H299 H 0.53453 0.43657 0.76892 0.0
H300 H 0.51899 0.52713 0.69976 0.0
H301 H 0.54135 0.49899 0.74883 0.0
H302 H 0.60458 0.46071 0.66832 0.0
H303 H 0.58201 0.48897 0.61873 0.0
C304 C 0.63325 0.44391 0.77505 0.0
C305 C 0.60863 0.42442 0.80227 0.0
C306 C 0.62233 0.46068 0.74555 0.0
C307 C 0.58666 0.45873 0.74299 0.0
C308 C 0.56222 0.43907 0.77023 0.0
C309 C 0.57303 0.42202 0.79928 0.0
C310 C 0.53776 0.51287 0.69234 0.0
C311 C 0.54853 0.51028 0.65512 0.0
C312 C 0.55047 0.49654 0.72057 0.0
C313 C 0.57463 0.47737 0.71259 0.0
C314 C 0.58613 0.47541 0.67547 0.0
C315 C 0.57304 0.49145 0.64703 0.0
H316 H 0.87743 0.62749 0.31909 0.0
H317 H 0.91868 0.72299 0.2522 0.0
H318 H 0.89781 0.59321 0.27141 0.0
H319 H 0.93784 0.68872 0.20382 0.0
H320 H 0.00219 0.62657 0.14229 0.0
H321 H 0.98032 0.6599 0.18931 0.0
H322 H 0.88909 0.56889 0.2115 0.0
H323 H 0.912 0.53506 0.16504 0.0
C324 C 0.89063 0.64112 0.29404 0.0
C325 C 0.89658 0.678 0.28941 0.0
C326 C 0.90211 0.62139 0.2665 0.0
C327 C 0.91961 0.63803 0.23353 0.0
C328 C 0.92512 0.67494 0.22896 0.0
C329 C 0.91395 0.69465 0.25662 0.0
C330 C 0.97737 0.6137 0.15709 0.0
C331 C 0.95882 0.57816 0.14997 0.0
C332 C 0.96465 0.63293 0.18401 0.0
C333 C 0.93277 0.6173 0.20441 0.0
C334 C 0.91398 0.58175 0.19687 0.0
C335 C 0.92693 0.56238 0.17004 0.0
H336 H 0.34373 0.20068 0.23287 0.0
H337 H 0.42965 0.28752 0.18677 0.0
H338 H 0.37237 0.15825 0.20883 0.0
H339 H 0.45736 0.24459 0.16048 0.0
H340 H 0.51214 0.15842 0.14308 0.0
H341 H 0.48681 0.20091 0.17427 0.0
H342 H 0.38279 0.13499 0.1506 0.0
H343 H 0.40789 0.09222 0.12066 0.0
C344 C 0.36894 0.21084 0.21789 0.0
C345 C 0.38445 0.24768 0.21201 0.0
C346 C 0.38513 0.18635 0.20355 0.0
C347 C 0.41705 0.1979 0.18241 0.0
C348 C 0.43293 0.23475 0.17692 0.0
C349 C 0.41683 0.25936 0.19159 0.0
C350 C 0.48384 0.15285 0.14492 0.0
C351 C 0.46204 0.12185 0.12948 0.0
C352 C 0.46934 0.17736 0.16253 0.0
C353 C 0.43275 0.17145 0.16495 0.0
C354 C 0.41103 0.14018 0.14988 0.0
C355 C 0.42547 0.11565 0.13251 0.0
H356 H 0.15058 0.86543 0.53785 0.0
H357 H 0.10936 0.86392 0.65048 0.0
H358 H 0.12472 0.91225 0.52227 0.0
H359 H 0.08209 0.90958 0.63478 0.0
H360 H 0.05314 0.97921 0.49899 0.0
H361 H 0.07315 0.92818 0.51366 0.0
H362 H 0.1005 0.97149 0.62155 0.0
H363 H 0.07879 1.02167 0.60725 0.0
C364 C 0.13521 0.87457 0.559 0.0
C365 C 0.13222 0.86145 0.59535 0.0
C366 C 0.12032 0.90134 0.55014 0.0
C367 C 0.1017 0.91509 0.57741 0.0
C368 C 0.09706 0.90033 0.61334 0.0
C369 C 0.11237 0.87392 0.62228 0.0
C370 C 0.06362 0.97784 0.52576 0.0
C371 C 0.06473 1.00439 0.55195 0.0
C372 C 0.07513 0.94863 0.53417 0.0
C373 C 0.08845 0.94564 0.56879 0.0
C374 C 0.0898 0.97254 0.59486 0.0
C375 C 0.0778 1.00152 0.58659 0.0
H376 H 0.75765 0.36683 0.94901 0.0
H377 H 0.74158 0.46858 0.92525 0.0
H378 H 0.81067 0.39674 0.97928 0.0
H379 H 0.79676 0.49874 0.95211 0.0
H380 H 0.88322 0.54527 1.03143 0.0
H381 H 0.82767 0.51547 1.00409 0.0
H382 H 0.86815 0.42835 0.97208 0.0
H383 H 0.92229 0.4571 1.00147 0.0
C384 C 0.76528 0.39561 0.95003 0.0
C385 C 0.74463 0.41493 0.93452 0.0
C386 C 0.79646 0.41302 0.96693 0.0
C387 C 0.80877 0.45052 0.96823 0.0
C388 C 0.78832 0.46991 0.95239 0.0
C389 C 0.7567 0.45244 0.93615 0.0
C390 C 0.88004 0.51962 1.01874 0.0
C391 C 0.90713 0.50345 1.01902 0.0
C392 C 0.84817 0.50252 1.00267 0.0
C393 C 0.84277 0.46908 0.9857 0.0
C394 C 0.87038 0.45342 0.98559 0.0
C395 C 0.9018 0.47012 1.00232 0.0
H396 H 0.77981 0.63777 0.45992 0.0
H397 H 0.73786 0.71955 0.42011 0.0
H398 H 0.72311 0.6085 0.49285 0.0
H399 H 0.68108 0.6899 0.45212 0.0
H400 H 0.57607 0.60273 0.48313 0.0
H401 H 0.63246 0.6256 0.44802 0.0
H402 H 0.68705 0.63156 0.54866 0.0
H403 H 0.63055 0.60958 0.58404 0.0
C404 C 0.7583 0.64916 0.4579 0.0
C405 C 0.76304 0.68085 0.43759 0.0
C406 C 0.72605 0.63257 0.47678 0.0
C407 C 0.69783 0.64697 0.47487 0.0
C408 C 0.70238 0.67816 0.45379 0.0
C409 C 0.73479 0.69516 0.43565 0.0
C410 C 0.60012 0.60869 0.4977 0.0
C411 C 0.59904 0.60476 0.53631 0.0
C412 C 0.6323 0.6218 0.47764 0.0
C413 C 0.66397 0.63039 0.49571 0.0
C414 C 0.66295 0.62498 0.53412 0.0
C415 C 0.63072 0.6126 0.55431 0.0
H416 H 0.30953 0.43731 0.22945 0.0
H417 H 0.29418 0.35512 0.14749 0.0
H418 H 0.25891 0.45342 0.2083 0.0
H419 H 0.24373 0.37133 0.12618 0.0
H420 H 0.12998 0.37839 0.13702 0.0
H421 H 0.18383 0.3659 0.15282 0.0
H422 H 0.23726 0.47877 0.15483 0.0
H423 H 0.18347 0.4914 0.13839 0.0
C424 C 0.2956 0.42308 0.20655 0.0
C425 C 0.30567 0.39496 0.19021 0.0
C426 C 0.26672 0.43234 0.19438 0.0
C427 C 0.24721 0.41348 0.16574 0.0
C428 C 0.25798 0.38602 0.14864 0.0
C429 C 0.28701 0.3769 0.16069 0.0
C430 C 0.15329 0.40059 0.14032 0.0
C431 C 0.15235 0.43591 0.13637 0.0
C432 C 0.18417 0.3934 0.14937 0.0
C433 C 0.21483 0.42135 0.15491 0.0
C434 C 0.21395 0.45668 0.15106 0.0
C435 C 0.18309 0.46389 0.14178 0.0
H436 H 0.67889 0.28461 0.91992 0.0
H437 H 0.58923 0.32293 0.94151 0.0
H438 H 0.64425 0.22496 0.94064 0.0
H439 H 0.55496 0.2642 0.9648 0.0
H440 H 0.48942 0.14989 0.97588 0.0
H441 H 0.52474 0.20758 0.95154 0.0
H442 H 0.61837 0.18587 0.98743 0.0
H443 H 0.58282 0.12673 1.00875 0.0
C444 C 0.65178 0.28025 0.92961 0.0
C445 C 0.63671 0.30837 0.92893 0.0
C446 C 0.63183 0.24601 0.94183 0.0
C447 C 0.59637 0.23904 0.95456 0.0
C448 C 0.58169 0.26769 0.9544 0.0
C449 C 0.60142 0.30166 0.94133 0.0
C450 C 0.51762 0.15737 0.97826 0.0
C451 C 0.53325 0.13383 0.99463 0.0
C452 C 0.53803 0.19085 0.96467 0.0
C453 C 0.57477 0.20233 0.9678 0.0
C454 C 0.59038 0.17835 0.9839 0.0
C455 C 0.56994 0.14441 0.99665 0.0
H456 H 0.9156 0.78083 0.43171 0.0
H457 H 0.81984 0.80943 0.42223 0.0
H458 H 0.94289 0.83848 0.45952 0.0
H459 H 0.84687 0.86678 0.45047 0.0
H460 H 0.91877 0.97946 0.47462 0.0
H461 H 0.89364 0.92441 0.44129 0.0
H462 H 0.93486 0.86621 0.51943 0.0
H463 H 0.96002 0.92095 0.55258 0.0
C464 C 0.90058 0.79965 0.43501 0.0
C465 C 0.86552 0.7905 0.42488 0.0
C466 C 0.91605 0.83251 0.45134 0.0
C467 C 0.89695 0.85714 0.45757 0.0
C468 C 0.86239 0.84855 0.44596 0.0
C469 C 0.84683 0.8156 0.42997 0.0
C470 C 0.92235 0.9549 0.48478 0.0
C471 C 0.94132 0.9547 0.5164 0.0
C472 C 0.90791 0.92333 0.46568 0.0
C473 C 0.91244 0.89091 0.47752 0.0
C474 C 0.93133 0.89076 0.5092 0.0
C475 C 0.94546 0.92218 0.52844 0.0
H476 H 0.32388 0.86976 0.61296 0.0
H477 H 0.24492 0.76751 0.61011 0.0
H478 H 0.36861 0.84269 0.59014 0.0
H479 H 0.28958 0.74035 0.58753 0.0
H480 H 0.37758 0.6989 0.54649 0.0
H481 H 0.33749 0.73516 0.54187 0.0
H482 H 0.38968 0.802 0.62901 0.0
H483 H 0.42872 0.7656 0.63444 0.0
C484 C 0.316 0.84168 0.60644 0.0
C485 C 0.2812 0.8205 0.61395 0.0
C486 C 0.34152 0.82623 0.5934 0.0
C487 C 0.33266 0.78934 0.58777 0.0
C488 C 0.29716 0.76889 0.59148 0.0
C489 C 0.27158 0.7844 0.60448 0.0
C490 C 0.38064 0.72154 0.56442 0.0
C491 C 0.40609 0.72904 0.5912 0.0
C492 C 0.35786 0.74238 0.56156 0.0
C493 C 0.36046 0.77135 0.58505 0.0
C494 C 0.38739 0.78022 0.61003 0.0
C495 C 0.40984 0.75925 0.61317 0.0
H496 H 0.68082 0.841 0.8162 0.0
H497 H 0.74653 0.79425 0.87813 0.0
H498 H 0.73003 0.86556 0.7714 0.0
H499 H 0.79486 0.81768 0.83278 0.0
H500 H 0.86981 0.84771 0.73125 0.0
H501 H 0.81481 0.81525 0.7651 0.0
H502 H 0.7882 0.91359 0.77875 0.0
H503 H 0.84294 0.94584 0.74507 0.0
C504 C 0.70552 0.8356 0.82009 0.0
C505 C 0.70965 0.81577 0.85095 0.0
C506 C 0.73359 0.84952 0.79434 0.0
C507 C 0.7662 0.8435 0.79869 0.0
C508 C 0.76986 0.82229 0.82846 0.0
C509 C 0.74201 0.80877 0.85441 0.0
C510 C 0.8519 0.86217 0.7411 0.0
C511 C 0.86067 0.89926 0.73598 0.0
C512 C 0.82059 0.84369 0.76051 0.0
C513 C 0.79732 0.86195 0.77451 0.0
C514 C 0.80548 0.89879 0.76796 0.0
C515 C 0.83693 0.91729 0.74906 0.0
H516 H 0.78751 0.31194 0.33843 0.0
H517 H 0.74717 0.21308 0.40033 0.0
H518 H 0.75527 0.28408 0.28526 0.0
H519 H 0.71445 0.18553 0.34794 0.0
H520 H 0.68892 0.13593 0.23647 0.0
H521 H 0.72316 0.1648 0.28755 0.0
H522 H 0.69626 0.26139 0.26501 0.0
H523 H 0.66266 0.23255 0.21321 0.0
C524 C 0.77171 0.28429 0.34059 0.0
C525 C 0.77016 0.26451 0.37323 0.0
C526 C 0.75313 0.26838 0.31031 0.0
C527 C 0.7324 0.23251 0.3123 0.0
C528 C 0.73076 0.21294 0.34514 0.0
C529 C 0.7495 0.22872 0.37518 0.0
C530 C 0.69016 0.16325 0.24264 0.0
C531 C 0.67304 0.18198 0.22108 0.0
C532 C 0.70974 0.17981 0.2719 0.0
C533 C 0.71236 0.21539 0.28046 0.0
C534 C 0.69522 0.23414 0.2588 0.0
C535 C 0.67586 0.21762 0.22929 0.0
H536 H 0.42545 0.73867 0.36696 0.0
H537 H 0.37163 0.63924 0.31696 0.0
H538 H 0.44448 0.70635 0.41523 0.0
H539 H 0.39048 0.60662 0.36559 0.0
H540 H 0.46566 0.56539 0.43613 0.0
H541 H 0.44348 0.59531 0.38805 0.0
H542 H 0.42172 0.66778 0.46888 0.0
H543 H 0.44415 0.6382 0.51682 0.0
C544 C 0.41758 0.70982 0.36638 0.0
C545 C 0.39698 0.6916 0.33814 0.0
C546 C 0.42831 0.69123 0.39423 0.0
C547 C 0.41893 0.65375 0.39459 0.0
C548 C 0.39844 0.63545 0.36612 0.0
C549 C 0.38747 0.65414 0.33831 0.0
C550 C 0.45599 0.58759 0.44375 0.0
C551 C 0.45693 0.59937 0.48049 0.0
C552 C 0.44306 0.60467 0.41612 0.0
C553 C 0.43092 0.63418 0.42437 0.0
C554 C 0.43131 0.64553 0.46126 0.0
C555 C 0.44402 0.62835 0.4889 0.0
H556 H 0.11659 0.41178 0.8604 0.0
H557 H 0.15748 0.51626 0.80981 0.0
H558 H 0.0905 0.43716 0.91201 0.0
H559 H 0.13049 0.54151 0.86028 0.0
H560 H 0.10776 0.58483 0.96999 0.0
H561 H 0.13551 0.55659 0.92269 0.0
H562 H 0.04512 0.46288 0.92998 0.0
H563 H 0.01806 0.49092 0.97857 0.0
C564 C 0.1198 0.44014 0.8602 0.0
C565 C 0.13914 0.4621 0.83109 0.0
C566 C 0.10468 0.45471 0.88971 0.0
C567 C 0.10844 0.49154 0.89065 0.0
C568 C 0.12759 0.51323 0.86117 0.0
C569 C 0.14287 0.49873 0.83198 0.0
C570 C 0.09394 0.5581 0.96163 0.0
C571 C 0.06065 0.5402 0.97777 0.0
C572 C 0.10972 0.54194 0.93425 0.0
C573 C 0.09244 0.50753 0.92188 0.0
C574 C 0.05943 0.48925 0.93885 0.0
C575 C 0.04378 0.50536 0.9666 0.0
H576 H 0.63857 0.8479 0.9929 0.0
H577 H 0.60001 0.8516 0.8843 0.0
H578 H 0.61262 0.89448 1.01307 0.0
H579 H 0.57367 0.89802 0.90463 0.0
H580 H 0.50094 0.95174 0.97779 0.0
H581 H 0.52486 0.90479 0.95399 0.0
H582 H 0.62629 0.96129 0.9933 0.0
H583 H 0.60282 1.00832 1.01659 0.0
C584 C 0.62412 0.85836 0.97354 0.0
C585 C 0.62123 0.8462 0.93709 0.0
C586 C 0.60955 0.88515 0.98495 0.0
C587 C 0.59136 0.89991 0.9603 0.0
C588 C 0.58751 0.887 0.92416 0.0
C589 C 0.60263 0.86061 0.91254 0.0
C590 C 0.52845 0.95435 0.98091 0.0
C591 C 0.54997 0.98375 0.9991 0.0
C592 C 0.54209 0.92752 0.96728 0.0
C593 C 0.57728 0.92932 0.97222 0.0
C594 C 0.59895 0.95909 0.98956 0.0
C595 C 0.58553 0.98614 1.0026 0.0
H596 H 0.8993 0.26542 0.56691 0.0
H597 H 0.82492 0.18904 0.50278 0.0
H598 H 0.92096 0.21734 0.58984 0.0
H599 H 0.84592 0.14151 0.52584 0.0
H600 H 0.92523 0.07882 0.53045 0.0
H601 H 0.90056 0.12624 0.51409 0.0
H602 H 0.90467 0.16081 0.6274 0.0
H603 H 0.93002 0.11343 0.64366 0.0
C604 C 0.88733 0.23836 0.55819 0.0
C605 C 0.86101 0.23105 0.53259 0.0
C606 C 0.89959 0.2109 0.57132 0.0
C607 C 0.88549 0.1758 0.55908 0.0
C608 C 0.85788 0.16841 0.53503 0.0
C609 C 0.84582 0.19569 0.52189 0.0
C610 C 0.92058 0.09635 0.5519 0.0
C611 C 0.92925 0.09241 0.58831 0.0
C612 C 0.90638 0.12344 0.5426 0.0
C613 C 0.90049 0.1471 0.56955 0.0
C614 C 0.90912 0.14309 0.60606 0.0
C615 C 0.92332 0.11586 0.61539 0.0
H616 H 0.2492 0.74051 0.19972 0.0
H617 H 0.28312 0.64676 0.18339 0.0
H618 H 0.19435 0.71123 0.1711 0.0
H619 H 0.22888 0.6177 0.15339 0.0
H620 H 0.11418 0.56223 0.13123 0.0
H621 H 0.16856 0.59069 0.16082 0.0
H622 H 0.16855 0.69258 0.11568 0.0
H623 H 0.11325 0.66419 0.08761 0.0
C624 C 0.24504 0.71369 0.18968 0.0
C625 C 0.27061 0.69603 0.19386 0.0
C626 C 0.21357 0.69686 0.17298 0.0
C627 C 0.20685 0.66195 0.15947 0.0
C628 C 0.23253 0.64428 0.16385 0.0
C629 C 0.26382 0.66099 0.181 0.0
C630 C 0.12577 0.5907 0.12756 0.0
C631 C 0.10907 0.61085 0.10708 0.0
C632 C 0.15727 0.60712 0.14442 0.0
C633 C 0.17333 0.64419 0.14098 0.0
C634 C 0.15686 0.66417 0.11985 0.0
C635 C 0.12513 0.6478 0.10338 0.0
H636 H 0.24206 0.47006 0.70549 0.0
H637 H 0.26338 0.36894 0.69071 0.0
H638 H 0.2982 0.50014 0.67265 0.0
H639 H 0.31803 0.399 0.65607 0.0
H640 H 0.38303 0.46478 0.55393 0.0
H641 H 0.32811 0.43854 0.5904 0.0
H642 H 0.36972 0.50412 0.68256 0.0
H643 H 0.42543 0.52957 0.64653 0.0
C644 C 0.25863 0.45419 0.69563 0.0
C645 C 0.24767 0.41683 0.70056 0.0
C646 C 0.29068 0.47149 0.67662 0.0
C647 C 0.3121 0.45177 0.66157 0.0
C648 C 0.30167 0.41471 0.66701 0.0
C649 C 0.27014 0.39751 0.68664 0.0
C650 C 0.38047 0.47377 0.5819 0.0
C651 C 0.40855 0.49923 0.59739 0.0
C652 C 0.34908 0.45869 0.60274 0.0
C653 C 0.34482 0.46934 0.63921 0.0
C654 C 0.37239 0.49564 0.65441 0.0
C655 C 0.40417 0.51017 0.6338 0.0
H656 H 0.69274 0.6584 0.91023 0.0
H657 H 0.6999 0.73105 1.00086 0.0
H658 H 0.74698 0.64708 0.92745 0.0
H659 H 0.75436 0.72007 1.01791 0.0
H660 H 0.83439 0.66534 0.05645 0.0
H661 H 0.77778 0.67292 1.04201 0.0
H662 H 0.80974 0.6815 0.92588 0.0
H663 H 0.86592 0.67314 0.94022 0.0
C664 C 0.70582 0.67171 0.93401 0.0
C665 C 0.69222 0.69563 0.95412 0.0
C666 C 0.73698 0.66546 0.9437 0.0
C667 C 0.75511 0.6829 0.97386 0.0
C668 C 0.74088 0.70605 0.99468 0.0
C669 C 0.70977 0.71244 0.98484 0.0
C670 C 0.82918 0.66858 1.02782 0.0
C671 C 0.85463 0.66866 0.99947 0.0
C672 C 0.7969 0.67322 1.0196 0.0
C673 C 0.78926 0.67774 0.98281 0.0
C674 C 0.81467 0.67768 0.95447 0.0
C675 C 0.847 0.67329 0.96271 0.0
H676 H 0.35969 0.79633 0.1441 0.0
H677 H 0.40115 0.82161 0.25205 0.0
H678 H 0.3927 0.85587 0.12192 0.0
H679 H 0.43584 0.88038 0.22868 0.0
H680 H 0.52335 0.9612 0.15135 0.0
H681 H 0.4875 0.90363 0.17723 0.0
H682 H 0.39461 0.92287 0.13715 0.0
H683 H 0.43038 0.98118 0.11232 0.0
C684 C 0.37544 0.81444 0.16338 0.0
C685 C 0.37726 0.80363 0.2002 0.0
C686 C 0.3946 0.84864 0.15042 0.0
C687 C 0.41683 0.87284 0.17354 0.0
C688 C 0.41908 0.8622 0.21013 0.0
C689 C 0.39932 0.82827 0.2234 0.0
C690 C 0.49523 0.95331 0.14834 0.0
C691 C 0.47971 0.97571 0.12968 0.0
C692 C 0.47471 0.92038 0.16325 0.0
C693 C 0.43826 0.90867 0.15916 0.0
C694 C 0.42267 0.93109 0.14054 0.0
C695 C 0.44312 0.96446 0.12637 0.0
H696 H 0.18743 0.28959 0.70805 0.0
H697 H 0.09144 0.31924 0.70819 0.0
H698 H 0.15764 0.23231 0.68113 0.0
H699 H 0.06146 0.26168 0.68171 0.0
H700 H 0.03609 0.17779 0.59009 0.0
H701 H 0.06453 0.23295 0.62107 0.0
H702 H 0.11059 0.17518 0.69489 0.0
H703 H 0.08212 0.11966 0.66373 0.0
C704 C 0.15988 0.28375 0.70252 0.0
C705 C 0.14184 0.30903 0.71007 0.0
C706 C 0.14276 0.25082 0.68738 0.0
C707 C 0.10723 0.24248 0.67909 0.0
C708 C 0.08896 0.26745 0.6874 0.0
C709 C 0.10602 0.30028 0.70289 0.0
C710 C 0.05234 0.17673 0.61287 0.0
C711 C 0.05688 0.14422 0.62433 0.0
C712 C 0.0684 0.20839 0.63084 0.0
C713 C 0.08968 0.20847 0.66059 0.0
C714 C 0.0945 0.17603 0.67193 0.0
C715 C 0.07812 0.14422 0.65413 0.0
H716 H 0.76111 0.32774 0.5187 0.0
H717 H 0.80841 0.39204 0.42252 0.0
H718 H 0.72725 0.36875 0.53408 0.0
H719 H 0.77534 0.43384 0.43834 0.0
H720 H 0.66207 0.44341 0.4354 0.0
H721 H 0.71323 0.42189 0.43087 0.0
H722 H 0.71912 0.42633 0.54962 0.0
H723 H 0.66682 0.44698 0.55414 0.0
C724 C 0.76549 0.35161 0.50187 0.0
C725 C 0.7869 0.3566 0.4692 0.0
C726 C 0.74607 0.37515 0.51064 0.0
C727 C 0.74799 0.40409 0.4869 0.0
C728 C 0.77267 0.41128 0.45665 0.0
C729 C 0.7918 0.38758 0.44772 0.0
C730 C 0.6744 0.44 0.46052 0.0
C731 C 0.66015 0.44628 0.49513 0.0
C732 C 0.70411 0.42821 0.45794 0.0
C733 C 0.72036 0.42245 0.48992 0.0
C734 C 0.70707 0.43035 0.52451 0.0
C735 C 0.67728 0.44229 0.52708 0.0
loop_
_geom_bond_atom_site_label_1
_geom_bond_atom_site_label_2
_geom_bond_distance
_geom_bond_site_symmetry_2
_ccdc_geom_bond_type
H0 C5 0.930 . S
H1 C8 0.930 . S
H2 C10 0.930 . S
H3 C4 1.016 . S
C4 H3 1.016 . S
C4 N11 1.286 . S
C5 H0 0.930 . S
C5 C6 1.397 . S
C5 C7 1.361 . S
C6 C5 1.397 . S
C6 C10 1.390 . S
C7 C5 1.361 . S
C7 C8 1.393 . S
C7 N11 1.413 . S
C8 H1 0.930 . S
C8 C7 1.393 . S
C8 C9 1.399 . S
C9 C8 1.399 . S
C9 C10 1.381 . S
C10 H2 0.930 . S
C10 C6 1.390 . S
C10 C9 1.381 . S
N11 C4 1.286 . S
N11 C7 1.413 . S
H12 C17 0.930 . S
H13 C20 0.930 . S
H14 C22 0.930 . S
H15 C16 1.016 . S
C16 H15 1.016 . S
C16 N23 1.286 . S
C17 H12 0.930 . S
C17 C18 1.397 . S
C17 C19 1.361 . S
C18 C17 1.397 . S
C18 C22 1.390 . S
C19 C17 1.361 . S
C19 C20 1.393 . S
C19 N23 1.413 . S
C20 H13 0.930 . S
C20 C19 1.393 . S
C20 C21 1.399 . S
C21 C20 1.399 . S
C21 C22 1.381 . S
C22 H14 0.930 . S
C22 C18 1.390 . S
C22 C21 1.381 . S
N23 C16 1.286 . S
N23 C19 1.413 . S
H24 C29 0.930 . S
H25 C32 0.930 . S
H26 C34 0.930 . S
H27 C28 1.016 . S
C28 H27 1.016 . S
C28 N35 1.286 . S
C29 H24 0.930 . S
C29 C30 1.397 . S
C29 C31 1.361 . S
C30 C29 1.397 . S
C30 C34 1.390 . S
C31 C29 1.361 . S
C31 C32 1.393 . S
C31 N35 1.413 . S
C32 H25 0.930 . S
C32 C31 1.393 . S
C32 C33 1.399 . S
C33 C32 1.399 . S
C33 C34 1.381 . S
C34 H26 0.930 . S
C34 C30 1.390 . S
C34 C33 1.381 . S
N35 C28 1.286 . S
N35 C31 1.413 . S
H36 C41 0.930 . S
H37 C44 0.930 . S
H38 C46 0.930 . S
H39 C40 1.016 . S
C40 H39 1.016 . S
C40 N47 1.286 . S
C41 H36 0.930 . S
C41 C42 1.397 . S
C41 C43 1.361 . S
C42 C41 1.397 . S
C42 C46 1.390 . S
C43 C41 1.361 . S
C43 C44 1.393 . S
C43 N47 1.413 . S
C44 H37 0.930 . S
C44 C43 1.393 . S
C44 C45 1.399 . S
C45 C44 1.399 . S
C45 C46 1.381 . S
C46 H38 0.930 . S
C46 C42 1.390 . S
C46 C45 1.381 . S
N47 C40 1.286 . S
N47 C43 1.413 . S
H48 C53 0.930 . S
H49 C56 0.930 . S
H50 C58 0.930 . S
H51 C52 1.016 . S
C52 H51 1.016 . S
C52 N59 1.286 . S
C53 H48 0.930 . S
C53 C54 1.397 . S
C53 C55 1.361 . S
C54 C53 1.397 . S
C54 C58 1.390 . S
C55 C53 1.361 . S
C55 C56 1.393 . S
C55 N59 1.413 . S
C56 H49 0.930 . S
C56 C55 1.393 . S
C56 C57 1.399 . S
C57 C56 1.399 . S
C57 C58 1.381 . S
C58 H50 0.930 . S
C58 C54 1.390 . S
C58 C57 1.381 . S
N59 C52 1.286 . S
N59 C55 1.413 . S
H60 C65 0.930 . S
H61 C68 0.930 . S
H62 C70 0.930 . S
H63 C64 1.016 . S
C64 H63 1.016 . S
C64 N71 1.286 . S
C65 H60 0.930 . S
C65 C66 1.397 . S
C65 C67 1.361 . S
C66 C65 1.397 . S
C66 C70 1.390 . S
C67 C65 1.361 . S
C67 C68 1.393 . S
C67 N71 1.413 . S
C68 H61 0.930 . S
C68 C67 1.393 . S
C68 C69 1.399 . S
C69 C68 1.399 . S
C69 C70 1.381 . S
C70 H62 0.930 . S
C70 C66 1.390 . S
C70 C69 1.381 . S
N71 C64 1.286 . S
N71 C67 1.413 . S
H72 C77 0.930 . S
H73 C80 0.930 . S
H74 C82 0.930 . S
H75 C76 1.016 . S
C76 H75 1.016 . S
C76 N83 1.286 . S
C77 H72 0.930 . S
C77 C78 1.397 . S
C77 C79 1.361 . S
C78 C77 1.397 . S
C78 C82 1.390 . S
C79 C77 1.361 . S
C79 C80 1.393 . S
C79 N83 1.413 . S
C80 H73 0.930 . S
C80 C79 1.393 . S
C80 C81 1.399 . S
C81 C80 1.399 . S
C81 C82 1.381 . S
C82 H74 0.930 . S
C82 C78 1.390 . S
C82 C81 1.381 . S
N83 C76 1.286 . S
N83 C79 1.413 . S
H84 C89 0.930 . S
H85 C92 0.930 . S
H86 C94 0.930 . S
H87 C88 1.016 . S
C88 H87 1.016 . S
C88 N95 1.286 . S
C89 H84 0.930 . S
C89 C90 1.397 . S
C89 C91 1.361 . S
C90 C89 1.397 . S
C90 C94 1.390 . S
C91 C89 1.361 . S
C91 C92 1.393 . S
C91 N95 1.413 . S
C92 H85 0.930 . S
C92 C91 1.393 . S
C92 C93 1.399 . S
C93 C92 1.399 . S
C93 C94 1.381 . S
C94 H86 0.930 . S
C94 C90 1.390 . S
C94 C93 1.381 . S
N95 C88 1.286 . S
N95 C91 1.413 . S
Gd96 C99 2.818 . S
Gd96 O116 2.377 . S
Gd96 O118 2.448 . S
Gd96 O119 2.506 . S
Gd96 O120 2.435 1_545 S
Gd96 O121 2.717 1_545 S
Gd96 O123 2.395 1_445 S
Gd96 O127 2.327 1_455 S
Gd97 C108 2.818 . S
Gd97 O117 2.395 1_665 S
Gd97 O121 2.327 1_655 S
Gd97 O122 2.377 . S
Gd97 O124 2.448 . S
Gd97 O125 2.506 . S
Gd97 O126 2.435 1_565 S
Gd97 O127 2.717 1_565 S
C98 O116 1.240 . S
C98 O117 1.240 . S
C99 Gd96 2.818 . S
C99 C100 1.510 . S
C99 O118 1.249 . S
C99 O119 1.252 . S
C100 C99 1.510 . S
C100 C101 1.404 . S
C100 C102 1.352 . S
C101 C100 1.404 . S
C101 C105 1.389 . S
C101 H128 0.930 . S
C102 C100 1.352 . S
C102 C104 1.374 . S
C102 H129 0.931 . S
C103 C104 1.359 . S
C103 C105 1.364 . S
C104 C102 1.374 . S
C104 C103 1.359 . S
C104 H130 0.931 . S
C105 C101 1.389 . S
C105 C103 1.364 . S
C105 H131 0.931 . S
C106 O120 1.256 . S
C106 O121 1.257 . S
C107 O122 1.240 . S
C107 O123 1.240 . S
C108 Gd97 2.818 . S
C108 C109 1.510 . S
C108 O124 1.249 . S
C108 O125 1.252 . S
C109 C108 1.510 . S
C109 C110 1.404 . S
C109 C111 1.352 . S
C110 C109 1.404 . S
C110 C114 1.389 . S
C110 H132 0.930 . S
C111 C109 1.352 . S
C111 C113 1.374 . S
C111 H133 0.931 . S
C112 C113 1.359 . S
C112 C114 1.364 . S
C113 C111 1.374 . S
C113 C112 1.359 . S
C113 H134 0.931 . S
C114 C110 1.389 . S
C114 C112 1.364 . S
C114 H135 0.931 . S
C115 O126 1.256 . S
C115 O127 1.257 . S
O116 Gd96 2.377 . S
O116 C98 1.240 . S
O117 Gd97 2.395 1_445 S
O117 C98 1.240 . S
O118 Gd96 2.448 . S
O118 C99 1.249 . S
O119 Gd96 2.506 . S
O119 C99 1.252 . S
O120 Gd96 2.435 1_565 S
O120 C106 1.256 . S
O121 Gd96 2.717 1_565 S
O121 Gd97 2.327 1_455 S
O121 C106 1.257 . S
O122 Gd97 2.377 . S
O122 C107 1.240 . S
O123 Gd96 2.395 1_665 S
O123 C107 1.240 . S
O124 Gd97 2.448 . S
O124 C108 1.249 . S
O125 Gd97 2.506 . S
O125 C108 1.252 . S
O126 Gd97 2.435 1_545 S
O126 C115 1.256 . S
O127 Gd96 2.327 1_655 S
O127 Gd97 2.717 1_545 S
O127 C115 1.257 . S
H128 C101 0.930 . S
H129 C102 0.931 . S
H130 C104 0.931 . S
H131 C105 0.931 . S
H132 C110 0.930 . S
H133 C111 0.931 . S
H134 C113 0.931 . S
H135 C114 0.931 . S
Gd136 C139 2.818 . S
Gd136 O156 2.377 . S
Gd136 O158 2.448 . S
Gd136 O159 2.506 . S
Gd136 O160 2.435 1_545 S
Gd136 O161 2.717 1_545 S
Gd136 O163 2.395 1_544 S
Gd136 O167 2.327 . S
Gd137 C148 2.818 1_545 S
Gd137 O157 2.395 1_556 S
Gd137 O161 2.327 1_546 S
Gd137 O162 2.377 1_545 S
Gd137 O164 2.448 1_545 S
Gd137 O165 2.506 1_545 S
Gd137 O166 2.435 . S
Gd137 O167 2.717 1_556 S
C138 O156 1.240 . S
C138 O157 1.240 . S
C139 Gd136 2.818 . S
C139 C140 1.510 . S
C139 O158 1.249 . S
C139 O159 1.252 . S
C140 C139 1.510 . S
C140 C141 1.404 . S
C140 C142 1.352 . S
C141 C140 1.404 . S
C141 C145 1.389 . S
C141 H168 0.930 . S
C142 C140 1.352 . S
C142 C144 1.374 . S
C142 H169 0.931 . S
C143 C144 1.359 . S
C143 C145 1.364 . S
C144 C142 1.374 . S
C144 C143 1.359 . S
C144 H170 0.931 . S
C145 C141 1.389 . S
C145 C143 1.364 . S
C145 H171 0.931 . S
C146 O160 1.256 . S
C146 O161 1.257 . S
C147 O162 1.240 . S
C147 O163 1.240 . S
C148 Gd137 2.818 1_565 S
C148 C149 1.510 . S
C148 O164 1.249 . S
C148 O165 1.252 . S
C149 C148 1.510 . S
C149 C150 1.404 . S
C149 C151 1.352 . S
C150 C149 1.404 . S
C150 C154 1.389 . S
C150 H172 0.930 . S
C151 C149 1.352 . S
C151 C153 1.374 . S
C151 H173 0.931 . S
C152 C153 1.359 . S
C152 C154 1.364 . S
C153 C151 1.374 . S
C153 C152 1.359 . S
C153 H174 0.931 . S
C154 C150 1.389 . S
C154 C152 1.364 . S
C154 H175 0.931 . S
C155 O166 1.256 . S
C155 O167 1.257 1_556 S
O156 Gd136 2.377 . S
O156 C138 1.240 . S
O157 Gd137 2.395 1_554 S
O157 C138 1.240 . S
O158 Gd136 2.448 . S
O158 C139 1.249 . S
O159 Gd136 2.506 . S
O159 C139 1.252 . S
O160 Gd136 2.435 1_565 S
O160 C146 1.256 . S
O161 Gd136 2.717 1_565 S
O161 Gd137 2.327 1_564 S
O161 C146 1.257 . S
O162 Gd137 2.377 1_565 S
O162 C147 1.240 . S
O163 Gd136 2.395 1_566 S
O163 C147 1.240 . S
O164 Gd137 2.448 1_565 S
O164 C148 1.249 . S
O165 Gd137 2.506 1_565 S
O165 C148 1.252 . S
O166 Gd137 2.435 . S
O166 C155 1.256 . S
O167 Gd136 2.327 . S
O167 Gd137 2.717 1_554 S
O167 C155 1.257 1_554 S
H168 C141 0.930 . S
H169 C142 0.931 . S
H170 C144 0.931 . S
H171 C145 0.931 . S
H172 C150 0.930 . S
H173 C151 0.931 . S
H174 C153 0.931 . S
H175 C154 0.931 . S
Gd176 C179 2.818 . S
Gd176 O196 2.377 . S
Gd176 O198 2.448 . S
Gd176 O199 2.506 . S
Gd176 O200 2.435 . S
Gd176 O201 2.717 . S
Gd176 O203 2.395 . S
Gd176 O207 2.327 . S
Gd177 C188 2.818 . S
Gd177 O197 2.395 . S
Gd177 O201 2.327 . S
Gd177 O202 2.377 . S
Gd177 O204 2.448 . S
Gd177 O205 2.506 . S
Gd177 O206 2.435 . S
Gd177 O207 2.717 . S
C178 O196 1.240 . S
C178 O197 1.240 . S
C179 Gd176 2.818 . S
C179 C180 1.510 . S
C179 O198 1.249 . S
C179 O199 1.252 . S
C180 C179 1.510 . S
C180 C181 1.404 . S
C180 C182 1.352 . S
C181 C180 1.404 . S
C181 C185 1.389 . S
C181 H208 0.930 . S
C182 C180 1.352 . S
C182 C184 1.374 . S
C182 H209 0.931 . S
C183 C184 1.359 . S
C183 C185 1.364 . S
C184 C182 1.374 . S
C184 C183 1.359 . S
C184 H210 0.931 . S
C185 C181 1.389 . S
C185 C183 1.364 . S
C185 H211 0.931 . S
C186 O200 1.256 . S
C186 O201 1.257 . S
C187 O202 1.240 . S
C187 O203 1.240 . S
C188 Gd177 2.818 . S
C188 C189 1.510 . S
C188 O204 1.249 . S
C188 O205 1.252 . S
C189 C188 1.510 . S
C189 C190 1.404 . S
C189 C191 1.352 . S
C190 C189 1.404 . S
C190 C194 1.389 . S
C190 H212 0.930 . S
C191 C189 1.352 . S
C191 C193 1.374 . S
C191 H213 0.931 . S
C192 C193 1.359 . S
C192 C194 1.364 . S
C193 C191 1.374 . S
C193 C192 1.359 . S
C193 H214 0.931 . S
C194 C190 1.389 . S
C194 C192 1.364 . S
C194 H215 0.931 . S
C195 O206 1.256 . S
C195 O207 1.257 . S
O196 Gd176 2.377 . S
O196 C178 1.240 . S
O197 Gd177 2.395 . S
O197 C178 1.240 . S
O198 Gd176 2.448 . S
O198 C179 1.249 . S
O199 Gd176 2.506 . S
O199 C179 1.252 . S
O200 Gd176 2.435 . S
O200 C186 1.256 . S
O201 Gd176 2.717 . S
O201 Gd177 2.327 . S
O201 C186 1.257 . S
O202 Gd177 2.377 . S
O202 C187 1.240 . S
O203 Gd176 2.395 . S
O203 C187 1.240 . S
O204 Gd177 2.448 . S
O204 C188 1.249 . S
O205 Gd177 2.506 . S
O205 C188 1.252 . S
O206 Gd177 2.435 . S
O206 C195 1.256 . S
O207 Gd176 2.327 . S
O207 Gd177 2.717 . S
O207 C195 1.257 . S
H208 C181 0.930 . S
H209 C182 0.931 . S
H210 C184 0.931 . S
H211 C185 0.931 . S
H212 C190 0.930 . S
H213 C191 0.931 . S
H214 C193 0.931 . S
H215 C194 0.931 . S
Gd216 C219 2.818 . S
Gd216 O236 2.377 . S
Gd216 O238 2.448 . S
Gd216 O239 2.506 . S
Gd216 O240 2.435 1_455 S
Gd216 O241 2.717 1_455 S
Gd216 O243 2.395 1_455 S
Gd216 O247 2.327 1_554 S
Gd217 C228 2.818 1_455 S
Gd217 O237 2.395 1_556 S
Gd217 O241 2.327 1_456 S
Gd217 O242 2.377 1_455 S
Gd217 O244 2.448 1_455 S
Gd217 O245 2.506 1_455 S
Gd217 O246 2.435 . S
Gd217 O247 2.717 . S
C218 O236 1.240 . S
C218 O237 1.240 . S
C219 Gd216 2.818 . S
C219 C220 1.510 . S
C219 O238 1.249 . S
C219 O239 1.252 . S
C220 C219 1.510 . S
C220 C221 1.404 . S
C220 C222 1.352 . S
C221 C220 1.404 . S
C221 C225 1.389 . S
C221 H248 0.930 . S
C222 C220 1.352 . S
C222 C224 1.374 . S
C222 H249 0.931 . S
C223 C224 1.359 . S
C223 C225 1.364 . S
C224 C222 1.374 . S
C224 C223 1.359 . S
C224 H250 0.931 . S
C225 C221 1.389 . S
C225 C223 1.364 . S
C225 H251 0.931 . S
C226 O240 1.256 . S
C226 O241 1.257 . S
C227 O242 1.240 . S
C227 O243 1.240 1_556 S
C228 Gd217 2.818 1_655 S
C228 C229 1.510 . S
C228 O244 1.249 . S
C228 O245 1.252 . S
C229 C228 1.510 . S
C229 C230 1.404 . S
C229 C231 1.352 . S
C230 C229 1.404 . S
C230 C234 1.389 . S
C230 H252 0.930 . S
C231 C229 1.352 . S
C231 C233 1.374 . S
C231 H253 0.931 . S
C232 C233 1.359 . S
C232 C234 1.364 . S
C233 C231 1.374 . S
C233 C232 1.359 . S
C233 H254 0.931 . S
C234 C230 1.389 . S
C234 C232 1.364 . S
C234 H255 0.931 . S
C235 O246 1.256 . S
C235 O247 1.257 . S
O236 Gd216 2.377 . S
O236 C218 1.240 . S
O237 Gd217 2.395 1_554 S
O237 C218 1.240 . S
O238 Gd216 2.448 . S
O238 C219 1.249 . S
O239 Gd216 2.506 . S
O239 C219 1.252 . S
O240 Gd216 2.435 1_655 S
O240 C226 1.256 . S
O241 Gd216 2.717 1_655 S
O241 Gd217 2.327 1_654 S
O241 C226 1.257 . S
O242 Gd217 2.377 1_655 S
O242 C227 1.240 . S
O243 Gd216 2.395 1_655 S
O243 C227 1.240 1_554 S
O244 Gd217 2.448 1_655 S
O244 C228 1.249 . S
O245 Gd217 2.506 1_655 S
O245 C228 1.252 . S
O246 Gd217 2.435 . S
O246 C235 1.256 . S
O247 Gd216 2.327 1_556 S
O247 Gd217 2.717 . S
O247 C235 1.257 . S
H248 C221 0.930 . S
H249 C222 0.931 . S
H250 C224 0.931 . S
H251 C225 0.931 . S
H252 C230 0.930 . S
H253 C231 0.931 . S
H254 C233 0.931 . S
H255 C234 0.931 . S
H256 C264 0.950 . S
H257 C269 0.950 . S
H258 C266 0.950 . S
H259 C268 0.950 . S
H260 C270 0.950 . S
H261 C272 0.950 . S
H262 C274 0.950 . S
H263 C275 0.950 . S
C264 H256 0.950 . S
C264 C265 1.386 . S
C264 C266 1.391 . S
C265 C264 1.386 . S
C265 C269 1.393 . S
C266 H258 0.950 . S
C266 C264 1.391 . S
C266 C267 1.400 . S
C267 C266 1.400 . S
C267 C268 1.398 . S
C267 C273 1.491 . S
C268 H259 0.950 . S
C268 C267 1.398 . S
C268 C269 1.391 . S
C269 H257 0.950 . S
C269 C265 1.393 . S
C269 C268 1.391 . S
C270 H260 0.950 . S
C270 C271 1.386 . S
C270 C272 1.391 . S
C271 C270 1.386 . S
C271 C275 1.393 . S
C272 H261 0.950 . S
C272 C270 1.391 . S
C272 C273 1.400 . S
C273 C267 1.491 . S
C273 C272 1.400 . S
C273 C274 1.398 . S
C274 H262 0.950 . S
C274 C273 1.398 . S
C274 C275 1.391 . S
C275 H263 0.950 . S
C275 C271 1.393 . S
C275 C274 1.391 . S
H276 C284 0.950 . S
H277 C289 0.950 . S
H278 C286 0.950 . S
H279 C288 0.950 . S
H280 C290 0.950 . S
H281 C292 0.950 . S
H282 C294 0.950 . S
H283 C295 0.950 . S
C284 H276 0.950 . S
C284 C285 1.386 . S
C284 C286 1.391 . S
C285 C284 1.386 . S
C285 C289 1.393 . S
C286 H278 0.950 . S
C286 C284 1.391 . S
C286 C287 1.400 . S
C287 C286 1.400 . S
C287 C288 1.398 . S
C287 C293 1.491 . S
C288 H279 0.950 . S
C288 C287 1.398 . S
C288 C289 1.391 . S
C289 H277 0.950 . S
C289 C285 1.393 . S
C289 C288 1.391 . S
C290 H280 0.950 . S
C290 C291 1.386 . S
C290 C292 1.391 . S
C291 C290 1.386 . S
C291 C295 1.393 . S
C292 H281 0.950 . S
C292 C290 1.391 . S
C292 C293 1.400 . S
C293 C287 1.491 . S
C293 C292 1.400 . S
C293 C294 1.398 . S
C294 H282 0.950 . S
C294 C293 1.398 . S
C294 C295 1.391 . S
C295 H283 0.950 . S
C295 C291 1.393 . S
C295 C294 1.391 . S
H296 C304 0.950 . S
H297 C309 0.950 . S
H298 C306 0.950 . S
H299 C308 0.950 . S
H300 C310 0.950 . S
H301 C312 0.950 . S
H302 C314 0.950 . S
H303 C315 0.950 . S
C304 H296 0.950 . S
C304 C305 1.386 . S
C304 C306 1.391 . S
C305 C304 1.386 . S
C305 C309 1.393 . S
C306 H298 0.950 . S
C306 C304 1.391 . S
C306 C307 1.400 . S
C307 C306 1.400 . S
C307 C308 1.398 . S
C307 C313 1.491 . S
C308 H299 0.950 . S
C308 C307 1.398 . S
C308 C309 1.391 . S
C309 H297 0.950 . S
C309 C305 1.393 . S
C309 C308 1.391 . S
C310 H300 0.950 . S
C310 C311 1.386 . S
C310 C312 1.391 . S
C311 C310 1.386 . S
C311 C315 1.393 . S
C312 H301 0.950 . S
C312 C310 1.391 . S
C312 C313 1.400 . S
C313 C307 1.491 . S
C313 C312 1.400 . S
C313 C314 1.398 . S
C314 H302 0.950 . S
C314 C313 1.398 . S
C314 C315 1.391 . S
C315 H303 0.950 . S
C315 C311 1.393 . S
C315 C314 1.391 . S
H316 C324 0.950 . S
H317 C329 0.950 . S
H318 C326 0.950 . S
H319 C328 0.950 . S
H320 C330 0.950 . S
H321 C332 0.950 . S
H322 C334 0.950 . S
H323 C335 0.950 . S
C324 H316 0.950 . S
C324 C325 1.386 . S
C324 C326 1.391 . S
C325 C324 1.386 . S
C325 C329 1.393 . S
C326 H318 0.950 . S
C326 C324 1.391 . S
C326 C327 1.400 . S
C327 C326 1.400 . S
C327 C328 1.398 . S
C327 C333 1.491 . S
C328 H319 0.950 . S
C328 C327 1.398 . S
C328 C329 1.391 . S
C329 H317 0.950 . S
C329 C325 1.393 . S
C329 C328 1.391 . S
C330 H320 0.950 . S
C330 C331 1.386 . S
C330 C332 1.391 . S
C331 C330 1.386 . S
C331 C335 1.393 . S
C332 H321 0.950 . S
C332 C330 1.391 . S
C332 C333 1.400 . S
C333 C327 1.491 . S
C333 C332 1.400 . S
C333 C334 1.398 . S
C334 H322 0.950 . S
C334 C333 1.398 . S
C334 C335 1.391 . S
C335 H323 0.950 . S
C335 C331 1.393 . S
C335 C334 1.391 . S
H336 C344 0.950 . S
H337 C349 0.950 . S
H338 C346 0.950 . S
H339 C348 0.950 . S
H340 C350 0.950 . S
H341 C352 0.950 . S
H342 C354 0.950 . S
H343 C355 0.950 . S
C344 H336 0.950 . S
C344 C345 1.386 . S
C344 C346 1.391 . S
C345 C344 1.386 . S
C345 C349 1.393 . S
C346 H338 0.950 . S
C346 C344 1.391 . S
C346 C347 1.400 . S
C347 C346 1.400 . S
C347 C348 1.398 . S
C347 C353 1.491 . S
C348 H339 0.950 . S
C348 C347 1.398 . S
C348 C349 1.391 . S
C349 H337 0.950 . S
C349 C345 1.393 . S
C349 C348 1.391 . S
C350 H340 0.950 . S
C350 C351 1.386 . S
C350 C352 1.391 . S
C351 C350 1.386 . S
C351 C355 1.393 . S
C352 H341 0.950 . S
C352 C350 1.391 . S
C352 C353 1.400 . S
C353 C347 1.491 . S
C353 C352 1.400 . S
C353 C354 1.398 . S
C354 H342 0.950 . S
C354 C353 1.398 . S
C354 C355 1.391 . S
C355 H343 0.950 . S
C355 C351 1.393 . S
C355 C354 1.391 . S
H356 C364 0.950 . S
H357 C369 0.950 . S
H358 C366 0.950 . S
H359 C368 0.950 . S
H360 C370 0.950 . S
H361 C372 0.950 . S
H362 C374 0.950 . S
H363 C375 0.950 . S
C364 H356 0.950 . S
C364 C365 1.386 . S
C364 C366 1.391 . S
C365 C364 1.386 . S
C365 C369 1.393 . S
C366 H358 0.950 . S
C366 C364 1.391 . S
C366 C367 1.400 . S
C367 C366 1.400 . S
C367 C368 1.398 . S
C367 C373 1.491 . S
C368 H359 0.950 . S
C368 C367 1.398 . S
C368 C369 1.391 . S
C369 H357 0.950 . S
C369 C365 1.393 . S
C369 C368 1.391 . S
C370 H360 0.950 . S
C370 C371 1.386 . S
C370 C372 1.391 . S
C371 C370 1.386 . S
C371 C375 1.393 . S
C372 H361 0.950 . S
C372 C370 1.391 . S
C372 C373 1.400 . S
C373 C367 1.491 . S
C373 C372 1.400 . S
C373 C374 1.398 . S
C374 H362 0.950 . S
C374 C373 1.398 . S
C374 C375 1.391 . S
C375 H363 0.950 . S
C375 C371 1.393 . S
C375 C374 1.391 . S
H376 C384 0.950 . S
H377 C389 0.950 . S
H378 C386 0.950 . S
H379 C388 0.950 . S
H380 C390 0.950 . S
H381 C392 0.950 . S
H382 C394 0.950 . S
H383 C395 0.950 . S
C384 H376 0.950 . S
C384 C385 1.386 . S
C384 C386 1.391 . S
C385 C384 1.386 . S
C385 C389 1.393 . S
C386 H378 0.950 . S
C386 C384 1.391 . S
C386 C387 1.400 . S
C387 C386 1.400 . S
C387 C388 1.398 . S
C387 C393 1.491 . S
C388 H379 0.950 . S
C388 C387 1.398 . S
C388 C389 1.391 . S
C389 H377 0.950 . S
C389 C385 1.393 . S
C389 C388 1.391 . S
C390 H380 0.950 . S
C390 C391 1.386 . S
C390 C392 1.391 . S
C391 C390 1.386 . S
C391 C395 1.393 . S
C392 H381 0.950 . S
C392 C390 1.391 . S
C392 C393 1.400 . S
C393 C387 1.491 . S
C393 C392 1.400 . S
C393 C394 1.398 . S
C394 H382 0.950 . S
C394 C393 1.398 . S
C394 C395 1.391 . S
C395 H383 0.950 . S
C395 C391 1.393 . S
C395 C394 1.391 . S
H396 C404 0.950 . S
H397 C409 0.950 . S
H398 C406 0.950 . S
H399 C408 0.950 . S
H400 C410 0.950 . S
H401 C412 0.950 . S
H402 C414 0.950 . S
H403 C415 0.950 . S
C404 H396 0.950 . S
C404 C405 1.386 . S
C404 C406 1.391 . S
C405 C404 1.386 . S
C405 C409 1.393 . S
C406 H398 0.950 . S
C406 C404 1.391 . S
C406 C407 1.400 . S
C407 C406 1.400 . S
C407 C408 1.398 . S
C407 C413 1.491 . S
C408 H399 0.950 . S
C408 C407 1.398 . S
C408 C409 1.391 . S
C409 H397 0.950 . S
C409 C405 1.393 . S
C409 C408 1.391 . S
C410 H400 0.950 . S
C410 C411 1.386 . S
C410 C412 1.391 . S
C411 C410 1.386 . S
C411 C415 1.393 . S
C412 H401 0.950 . S
C412 C410 1.391 . S
C412 C413 1.400 . S
C413 C407 1.491 . S
C413 C412 1.400 . S
C413 C414 1.398 . S
C414 H402 0.950 . S
C414 C413 1.398 . S
C414 C415 1.391 . S
C415 H403 0.950 . S
C415 C411 1.393 . S
C415 C414 1.391 . S
H416 C424 0.950 . S
H417 C429 0.950 . S
H418 C426 0.950 . S
H419 C428 0.950 . S
H420 C430 0.950 . S
H421 C432 0.950 . S
H422 C434 0.950 . S
H423 C435 0.950 . S
C424 H416 0.950 . S
C424 C425 1.386 . S
C424 C426 1.391 . S
C425 C424 1.386 . S
C425 C429 1.393 . S
C426 H418 0.950 . S
C426 C424 1.391 . S
C426 C427 1.400 . S
C427 C426 1.400 . S
C427 C428 1.398 . S
C427 C433 1.491 . S
C428 H419 0.950 . S
C428 C427 1.398 . S
C428 C429 1.391 . S
C429 H417 0.950 . S
C429 C425 1.393 . S
C429 C428 1.391 . S
C430 H420 0.950 . S
C430 C431 1.386 . S
C430 C432 1.391 . S
C431 C430 1.386 . S
C431 C435 1.393 . S
C432 H421 0.950 . S
C432 C430 1.391 . S
C432 C433 1.400 . S
C433 C427 1.491 . S
C433 C432 1.400 . S
C433 C434 1.398 . S
C434 H422 0.950 . S
C434 C433 1.398 . S
C434 C435 1.391 . S
C435 H423 0.950 . S
C435 C431 1.393 . S
C435 C434 1.391 . S
H436 C444 0.950 . S
H437 C449 0.950 . S
H438 C446 0.950 . S
H439 C448 0.950 . S
H440 C450 0.950 . S
H441 C452 0.950 . S
H442 C454 0.950 . S
H443 C455 0.950 . S
C444 H436 0.950 . S
C444 C445 1.386 . S
C444 C446 1.391 . S
C445 C444 1.386 . S
C445 C449 1.393 . S
C446 H438 0.950 . S
C446 C444 1.391 . S
C446 C447 1.400 . S
C447 C446 1.400 . S
C447 C448 1.398 . S
C447 C453 1.491 . S
C448 H439 0.950 . S
C448 C447 1.398 . S
C448 C449 1.391 . S
C449 H437 0.950 . S
C449 C445 1.393 . S
C449 C448 1.391 . S
C450 H440 0.950 . S
C450 C451 1.386 . S
C450 C452 1.391 . S
C451 C450 1.386 . S
C451 C455 1.393 . S
C452 H441 0.950 . S
C452 C450 1.391 . S
C452 C453 1.400 . S
C453 C447 1.491 . S
C453 C452 1.400 . S
C453 C454 1.398 . S
C454 H442 0.950 . S
C454 C453 1.398 . S
C454 C455 1.391 . S
C455 H443 0.950 . S
C455 C451 1.393 . S
C455 C454 1.391 . S
H456 C464 0.950 . S
H457 C469 0.950 . S
H458 C466 0.950 . S
H459 C468 0.950 . S
H460 C470 0.950 . S
H461 C472 0.950 . S
H462 C474 0.950 . S
H463 C475 0.950 . S
C464 H456 0.950 . S
C464 C465 1.386 . S
C464 C466 1.391 . S
C465 C464 1.386 . S
C465 C469 1.393 . S
C466 H458 0.950 . S
C466 C464 1.391 . S
C466 C467 1.400 . S
C467 C466 1.400 . S
C467 C468 1.398 . S
C467 C473 1.491 . S
C468 H459 0.950 . S
C468 C467 1.398 . S
C468 C469 1.391 . S
C469 H457 0.950 . S
C469 C465 1.393 . S
C469 C468 1.391 . S
C470 H460 0.950 . S
C470 C471 1.386 . S
C470 C472 1.391 . S
C471 C470 1.386 . S
C471 C475 1.393 . S
C472 H461 0.950 . S
C472 C470 1.391 . S
C472 C473 1.400 . S
C473 C467 1.491 . S
C473 C472 1.400 . S
C473 C474 1.398 . S
C474 H462 0.950 . S
C474 C473 1.398 . S
C474 C475 1.391 . S
C475 H463 0.950 . S
C475 C471 1.393 . S
C475 C474 1.391 . S
H476 C484 0.950 . S
H477 C489 0.950 . S
H478 C486 0.950 . S
H479 C488 0.950 . S
H480 C490 0.950 . S
H481 C492 0.950 . S
H482 C494 0.950 . S
H483 C495 0.950 . S
C484 H476 0.950 . S
C484 C485 1.386 . S
C484 C486 1.391 . S
C485 C484 1.386 . S
C485 C489 1.393 . S
C486 H478 0.950 . S
C486 C484 1.391 . S
C486 C487 1.400 . S
C487 C486 1.400 . S
C487 C488 1.398 . S
C487 C493 1.491 . S
C488 H479 0.950 . S
C488 C487 1.398 . S
C488 C489 1.391 . S
C489 H477 0.950 . S
C489 C485 1.393 . S
C489 C488 1.391 . S
C490 H480 0.950 . S
C490 C491 1.386 . S
C490 C492 1.391 . S
C491 C490 1.386 . S
C491 C495 1.393 . S
C492 H481 0.950 . S
C492 C490 1.391 . S
C492 C493 1.400 . S
C493 C487 1.491 . S
C493 C492 1.400 . S
C493 C494 1.398 . S
C494 H482 0.950 . S
C494 C493 1.398 . S
C494 C495 1.391 . S
C495 H483 0.950 . S
C495 C491 1.393 . S
C495 C494 1.391 . S
H496 C504 0.950 . S
H497 C509 0.950 . S
H498 C506 0.950 . S
H499 C508 0.950 . S
H500 C510 0.950 . S
H501 C512 0.950 . S
H502 C514 0.950 . S
H503 C515 0.950 . S
C504 H496 0.950 . S
C504 C505 1.386 . S
C504 C506 1.391 . S
C505 C504 1.386 . S
C505 C509 1.393 . S
C506 H498 0.950 . S
C506 C504 1.391 . S
C506 C507 1.400 . S
C507 C506 1.400 . S
C507 C508 1.398 . S
C507 C513 1.491 . S
C508 H499 0.950 . S
C508 C507 1.398 . S
C508 C509 1.391 . S
C509 H497 0.950 . S
C509 C505 1.393 . S
C509 C508 1.391 . S
C510 H500 0.950 . S
C510 C511 1.386 . S
C510 C512 1.391 . S
C511 C510 1.386 . S
C511 C515 1.393 . S
C512 H501 0.950 . S
C512 C510 1.391 . S
C512 C513 1.400 . S
C513 C507 1.491 . S
C513 C512 1.400 . S
C513 C514 1.398 . S
C514 H502 0.950 . S
C514 C513 1.398 . S
C514 C515 1.391 . S
C515 H503 0.950 . S
C515 C511 1.393 . S
C515 C514 1.391 . S
H516 C524 0.950 . S
H517 C529 0.950 . S
H518 C526 0.950 . S
H519 C528 0.950 . S
H520 C530 0.950 . S
H521 C532 0.950 . S
H522 C534 0.950 . S
H523 C535 0.950 . S
C524 H516 0.950 . S
C524 C525 1.386 . S
C524 C526 1.391 . S
C525 C524 1.386 . S
C525 C529 1.393 . S
C526 H518 0.950 . S
C526 C524 1.391 . S
C526 C527 1.400 . S
C527 C526 1.400 . S
C527 C528 1.398 . S
C527 C533 1.491 . S
C528 H519 0.950 . S
C528 C527 1.398 . S
C528 C529 1.391 . S
C529 H517 0.950 . S
C529 C525 1.393 . S
C529 C528 1.391 . S
C530 H520 0.950 . S
C530 C531 1.386 . S
C530 C532 1.391 . S
C531 C530 1.386 . S
C531 C535 1.393 . S
C532 H521 0.950 . S
C532 C530 1.391 . S
C532 C533 1.400 . S
C533 C527 1.491 . S
C533 C532 1.400 . S
C533 C534 1.398 . S
C534 H522 0.950 . S
C534 C533 1.398 . S
C534 C535 1.391 . S
C535 H523 0.950 . S
C535 C531 1.393 . S
C535 C534 1.391 . S
H536 C544 0.950 . S
H537 C549 0.950 . S
H538 C546 0.950 . S
H539 C548 0.950 . S
H540 C550 0.950 . S
H541 C552 0.950 . S
H542 C554 0.950 . S
H543 C555 0.950 . S
C544 H536 0.950 . S
C544 C545 1.386 . S
C544 C546 1.391 . S
C545 C544 1.386 . S
C545 C549 1.393 . S
C546 H538 0.950 . S
C546 C544 1.391 . S
C546 C547 1.400 . S
C547 C546 1.400 . S
C547 C548 1.398 . S
C547 C553 1.491 . S
C548 H539 0.950 . S
C548 C547 1.398 . S
C548 C549 1.391 . S
C549 H537 0.950 . S
C549 C545 1.393 . S
C549 C548 1.391 . S
C550 H540 0.950 . S
C550 C551 1.386 . S
C550 C552 1.391 . S
C551 C550 1.386 . S
C551 C555 1.393 . S
C552 H541 0.950 . S
C552 C550 1.391 . S
C552 C553 1.400 . S
C553 C547 1.491 . S
C553 C552 1.400 . S
C553 C554 1.398 . S
C554 H542 0.950 . S
C554 C553 1.398 . S
C554 C555 1.391 . S
C555 H543 0.950 . S
C555 C551 1.393 . S
C555 C554 1.391 . S
H556 C564 0.950 . S
H557 C569 0.950 . S
H558 C566 0.950 . S
H559 C568 0.950 . S
H560 C570 0.950 . S
H561 C572 0.950 . S
H562 C574 0.950 . S
H563 C575 0.950 . S
C564 H556 0.950 . S
C564 C565 1.386 . S
C564 C566 1.391 . S
C565 C564 1.386 . S
C565 C569 1.393 . S
C566 H558 0.950 . S
C566 C564 1.391 . S
C566 C567 1.400 . S
C567 C566 1.400 . S
C567 C568 1.398 . S
C567 C573 1.491 . S
C568 H559 0.950 . S
C568 C567 1.398 . S
C568 C569 1.391 . S
C569 H557 0.950 . S
C569 C565 1.393 . S
C569 C568 1.391 . S
C570 H560 0.950 . S
C570 C571 1.386 . S
C570 C572 1.391 . S
C571 C570 1.386 . S
C571 C575 1.393 . S
C572 H561 0.950 . S
C572 C570 1.391 . S
C572 C573 1.400 . S
C573 C567 1.491 . S
C573 C572 1.400 . S
C573 C574 1.398 . S
C574 H562 0.950 . S
C574 C573 1.398 . S
C574 C575 1.391 . S
C575 H563 0.950 . S
C575 C571 1.393 . S
C575 C574 1.391 . S
H576 C584 0.950 . S
H577 C589 0.950 . S
H578 C586 0.950 . S
H579 C588 0.950 . S
H580 C590 0.950 . S
H581 C592 0.950 . S
H582 C594 0.950 . S
H583 C595 0.950 . S
C584 H576 0.950 . S
C584 C585 1.386 . S
C584 C586 1.391 . S
C585 C584 1.386 . S
C585 C589 1.393 . S
C586 H578 0.950 . S
C586 C584 1.391 . S
C586 C587 1.400 . S
C587 C586 1.400 . S
C587 C588 1.398 . S
C587 C593 1.491 . S
C588 H579 0.950 . S
C588 C587 1.398 . S
C588 C589 1.391 . S
C589 H577 0.950 . S
C589 C585 1.393 . S
C589 C588 1.391 . S
C590 H580 0.950 . S
C590 C591 1.386 . S
C590 C592 1.391 . S
C591 C590 1.386 . S
C591 C595 1.393 . S
C592 H581 0.950 . S
C592 C590 1.391 . S
C592 C593 1.400 . S
C593 C587 1.491 . S
C593 C592 1.400 . S
C593 C594 1.398 . S
C594 H582 0.950 . S
C594 C593 1.398 . S
C594 C595 1.391 . S
C595 H583 0.950 . S
C595 C591 1.393 . S
C595 C594 1.391 . S
H596 C604 0.950 . S
H597 C609 0.950 . S
H598 C606 0.950 . S
H599 C608 0.950 . S
H600 C610 0.950 . S
H601 C612 0.950 . S
H602 C614 0.950 . S
H603 C615 0.950 . S
C604 H596 0.950 . S
C604 C605 1.386 . S
C604 C606 1.391 . S
C605 C604 1.386 . S
C605 C609 1.393 . S
C606 H598 0.950 . S
C606 C604 1.391 . S
C606 C607 1.400 . S
C607 C606 1.400 . S
C607 C608 1.398 . S
C607 C613 1.491 . S
C608 H599 0.950 . S
C608 C607 1.398 . S
C608 C609 1.391 . S
C609 H597 0.950 . S
C609 C605 1.393 . S
C609 C608 1.391 . S
C610 H600 0.950 . S
C610 C611 1.386 . S
C610 C612 1.391 . S
C611 C610 1.386 . S
C611 C615 1.393 . S
C612 H601 0.950 . S
C612 C610 1.391 . S
C612 C613 1.400 . S
C613 C607 1.491 . S
C613 C612 1.400 . S
C613 C614 1.398 . S
C614 H602 0.950 . S
C614 C613 1.398 . S
C614 C615 1.391 . S
C615 H603 0.950 . S
C615 C611 1.393 . S
C615 C614 1.391 . S
H616 C624 0.950 . S
H617 C629 0.950 . S
H618 C626 0.950 . S
H619 C628 0.950 . S
H620 C630 0.950 . S
H621 C632 0.950 . S
H622 C634 0.950 . S
H623 C635 0.950 . S
C624 H616 0.950 . S
C624 C625 1.386 . S
C624 C626 1.391 . S
C625 C624 1.386 . S
C625 C629 1.393 . S
C626 H618 0.950 . S
C626 C624 1.391 . S
C626 C627 1.400 . S
C627 C626 1.400 . S
C627 C628 1.398 . S
C627 C633 1.491 . S
C628 H619 0.950 . S
C628 C627 1.398 . S
C628 C629 1.391 . S
C629 H617 0.950 . S
C629 C625 1.393 . S
C629 C628 1.391 . S
C630 H620 0.950 . S
C630 C631 1.386 . S
C630 C632 1.391 . S
C631 C630 1.386 . S
C631 C635 1.393 . S
C632 H621 0.950 . S
C632 C630 1.391 . S
C632 C633 1.400 . S
C633 C627 1.491 . S
C633 C632 1.400 . S
C633 C634 1.398 . S
C634 H622 0.950 . S
C634 C633 1.398 . S
C634 C635 1.391 . S
C635 H623 0.950 . S
C635 C631 1.393 . S
C635 C634 1.391 . S
H636 C644 0.950 . S
H637 C649 0.950 . S
H638 C646 0.950 . S
H639 C648 0.950 . S
H640 C650 0.950 . S
H641 C652 0.950 . S
H642 C654 0.950 . S
H643 C655 0.950 . S
C644 H636 0.950 . S
C644 C645 1.386 . S
C644 C646 1.391 . S
C645 C644 1.386 . S
C645 C649 1.393 . S
C646 H638 0.950 . S
C646 C644 1.391 . S
C646 C647 1.400 . S
C647 C646 1.400 . S
C647 C648 1.398 . S
C647 C653 1.491 . S
C648 H639 0.950 . S
C648 C647 1.398 . S
C648 C649 1.391 . S
C649 H637 0.950 . S
C649 C645 1.393 . S
C649 C648 1.391 . S
C650 H640 0.950 . S
C650 C651 1.386 . S
C650 C652 1.391 . S
C651 C650 1.386 . S
C651 C655 1.393 . S
C652 H641 0.950 . S
C652 C650 1.391 . S
C652 C653 1.400 . S
C653 C647 1.491 . S
C653 C652 1.400 . S
C653 C654 1.398 . S
C654 H642 0.950 . S
C654 C653 1.398 . S
C654 C655 1.391 . S
C655 H643 0.950 . S
C655 C651 1.393 . S
C655 C654 1.391 . S
H656 C664 0.950 . S
H657 C669 0.950 . S
H658 C666 0.950 . S
H659 C668 0.950 . S
H660 C670 0.950 . S
H661 C672 0.950 . S
H662 C674 0.950 . S
H663 C675 0.950 . S
C664 H656 0.950 . S
C664 C665 1.386 . S
C664 C666 1.391 . S
C665 C664 1.386 . S
C665 C669 1.393 . S
C666 H658 0.950 . S
C666 C664 1.391 . S
C666 C667 1.400 . S
C667 C666 1.400 . S
C667 C668 1.398 . S
C667 C673 1.491 . S
C668 H659 0.950 . S
C668 C667 1.398 . S
C668 C669 1.391 . S
C669 H657 0.950 . S
C669 C665 1.393 . S
C669 C668 1.391 . S
C670 H660 0.950 . S
C670 C671 1.386 . S
C670 C672 1.391 . S
C671 C670 1.386 . S
C671 C675 1.393 . S
C672 H661 0.950 . S
C672 C670 1.391 . S
C672 C673 1.400 . S
C673 C667 1.491 . S
C673 C672 1.400 . S
C673 C674 1.398 . S
C674 H662 0.950 . S
C674 C673 1.398 . S
C674 C675 1.391 . S
C675 H663 0.950 . S
C675 C671 1.393 . S
C675 C674 1.391 . S
H676 C684 0.950 . S
H677 C689 0.950 . S
H678 C686 0.950 . S
H679 C688 0.950 . S
H680 C690 0.950 . S
H681 C692 0.950 . S
H682 C694 0.950 . S
H683 C695 0.950 . S
C684 H676 0.950 . S
C684 C685 1.386 . S
C684 C686 1.391 . S
C685 C684 1.386 . S
C685 C689 1.393 . S
C686 H678 0.950 . S
C686 C684 1.391 . S
C686 C687 1.400 . S
C687 C686 1.400 . S
C687 C688 1.398 . S
C687 C693 1.491 . S
C688 H679 0.950 . S
C688 C687 1.398 . S
C688 C689 1.391 . S
C689 H677 0.950 . S
C689 C685 1.393 . S
C689 C688 1.391 . S
C690 H680 0.950 . S
C690 C691 1.386 . S
C690 C692 1.391 . S
C691 C690 1.386 . S
C691 C695 1.393 . S
C692 H681 0.950 . S
C692 C690 1.391 . S
C692 C693 1.400 . S
C693 C687 1.491 . S
C693 C692 1.400 . S
C693 C694 1.398 . S
C694 H682 0.950 . S
C694 C693 1.398 . S
C694 C695 1.391 . S
C695 H683 0.950 . S
C695 C691 1.393 . S
C695 C694 1.391 . S
H696 C704 0.950 . S
H697 C709 0.950 . S
H698 C706 0.950 . S
H699 C708 0.950 . S
H700 C710 0.950 . S
H701 C712 0.950 . S
H702 C714 0.950 . S
H703 C715 0.950 . S
C704 H696 0.950 . S
C704 C705 1.386 . S
C704 C706 1.391 . S
C705 C704 1.386 . S
C705 C709 1.393 . S
C706 H698 0.950 . S
C706 C704 1.391 . S
C706 C707 1.400 . S
C707 C706 1.400 . S
C707 C708 1.398 . S
C707 C713 1.491 . S
C708 H699 0.950 . S
C708 C707 1.398 . S
C708 C709 1.391 . S
C709 H697 0.950 . S
C709 C705 1.393 . S
C709 C708 1.391 . S
C710 H700 0.950 . S
C710 C711 1.386 . S
C710 C712 1.391 . S
C711 C710 1.386 . S
C711 C715 1.393 . S
C712 H701 0.950 . S
C712 C710 1.391 . S
C712 C713 1.400 . S
C713 C707 1.491 . S
C713 C712 1.400 . S
C713 C714 1.398 . S
C714 H702 0.950 . S
C714 C713 1.398 . S
C714 C715 1.391 . S
C715 H703 0.950 . S
C715 C711 1.393 . S
C715 C714 1.391 . S
H716 C724 0.950 . S
H717 C729 0.950 . S
H718 C726 0.950 . S
H719 C728 0.950 . S
H720 C730 0.950 . S
H721 C732 0.950 . S
H722 C734 0.950 . S
H723 C735 0.950 . S
C724 H716 0.950 . S
C724 C725 1.386 . S
C724 C726 1.391 . S
C725 C724 1.386 . S
C725 C729 1.393 . S
C726 H718 0.950 . S
C726 C724 1.391 . S
C726 C727 1.400 . S
C727 C726 1.400 . S
C727 C728 1.398 . S
C727 C733 1.491 . S
C728 H719 0.950 . S
C728 C727 1.398 . S
C728 C729 1.391 . S
C729 H717 0.950 . S
C729 C725 1.393 . S
C729 C728 1.391 . S
C730 H720 0.950 . S
C730 C731 1.386 . S
C730 C732 1.391 . S
C731 C730 1.386 . S
C731 C735 1.393 . S
C732 H721 0.950 . S
C732 C730 1.391 . S
C732 C733 1.400 . S
C733 C727 1.491 . S
C733 C732 1.400 . S
C733 C734 1.398 . S
C734 H722 0.950 . S
C734 C733 1.398 . S
C734 C735 1.391 . S
C735 H723 0.950 . S
C735 C731 1.393 . S
C735 C734 1.391 . S
C265 C6 1.057 . S
C271 C103 1.087 . S
C285 C18 1.270 . S
C291 C152 1.257 . S
C311 C178 2.557 . S
C305 C28 2.586 . S
C325 C40 1.780 . S
C331 C226 1.733 . S
C351 C138 2.346 . S
C345 C9 2.245 . S
C371 C106 0.916 . S
C365 C16 0.920 . S
C391 C227 1.883 . S
C385 C30 1.900 . S
C411 C195 1.269 . S
C405 C42 1.285 . S
C425 C4 1.503 . S
C431 C223 1.524 . S
C451 C155 2.505 . S
C445 C33 2.572 . S
C465 C45 2.067 . S
C471 C107 2.059 . S
C485 C21 1.051 . S
C491 C192 1.082 . S
C511 C112 1.112 . S
C505 C57 1.079 . S
C525 C66 1.302 . S
C531 C143 1.288 . S
C545 C76 2.638 . S
C551 C187 2.597 . S
C565 C88 1.709 . S
C571 C235 1.673 . S
C585 C54 2.224 . S
C591 C147 2.326 . S
C611 C115 1.030 . S
C605 C64 1.037 . S
C631 C218 1.784 . S
C625 C78 1.817 . S
C651 C186 1.300 . S
C645 C93 1.325 . S
C665 C52 1.443 . S
C671 C232 1.520 . S
C691 C146 2.487 . S
C685 C81 2.560 . S
C711 C98 2.041 . S
C705 C90 2.041 . S
C725 C69 1.070 . S
C731 C183 1.095 . S
