# Generated by pormake.
# Topology tbo, (3,4)-cn, num edge types: 1
# Building blocks:
#     Node 0, Type 0, BuildingBlock: BETDAH_clean_linker_0, # of connection points: 3
#     Node 1, Type 0, BuildingBlock: BETDAH_clean_linker_0, # of connection points: 3
#     Node 2, Type 0, BuildingBlock: BETDAH_clean_linker_0, # of connection points: 3
#     Node 3, Type 0, BuildingBlock: BETDAH_clean_linker_0, # of connection points: 3
#     Node 4, Type 0, BuildingBlock: BETDAH_clean_linker_0, # of connection points: 3
#     Node 5, Type 0, BuildingBlock: BETDAH_clean_linker_0, # of connection points: 3
#     Node 6, Type 0, BuildingBlock: BETDAH_clean_linker_0, # of connection points: 3
#     Node 7, Type 0, BuildingBlock: BETDAH_clean_linker_0, # of connection points: 3
#     Node 8, Type 0, BuildingBlock: BETDAH_clean_linker_0, # of connection points: 3
#     Node 9, Type 0, BuildingBlock: BETDAH_clean_linker_0, # of connection points: 3
#     Node 10, Type 0, BuildingBlock: BETDAH_clean_linker_0, # of connection points: 3
#     Node 11, Type 0, BuildingBlock: BETDAH_clean_linker_0, # of connection points: 3
#     Node 12, Type 0, BuildingBlock: BETDAH_clean_linker_0, # of connection points: 3
#     Node 13, Type 0, BuildingBlock: BETDAH_clean_linker_0, # of connection points: 3
#     Node 14, Type 0, BuildingBlock: BETDAH_clean_linker_0, # of connection points: 3
#     Node 15, Type 0, BuildingBlock: BETDAH_clean_linker_0, # of connection points: 3
#     Node 16, Type 0, BuildingBlock: BETDAH_clean_linker_0, # of connection points: 3
#     Node 17, Type 0, BuildingBlock: BETDAH_clean_linker_0, # of connection points: 3
#     Node 18, Type 0, BuildingBlock: BETDAH_clean_linker_0, # of connection points: 3
#     Node 19, Type 0, BuildingBlock: BETDAH_clean_linker_0, # of connection points: 3
#     Node 20, Type 0, BuildingBlock: BETDAH_clean_linker_0, # of connection points: 3
#     Node 21, Type 0, BuildingBlock: BETDAH_clean_linker_0, # of connection points: 3
#     Node 22, Type 0, BuildingBlock: BETDAH_clean_linker_0, # of connection points: 3
#     Node 23, Type 0, BuildingBlock: BETDAH_clean_linker_0, # of connection points: 3
#     Node 24, Type 0, BuildingBlock: BETDAH_clean_linker_0, # of connection points: 3
#     Node 25, Type 0, BuildingBlock: BETDAH_clean_linker_0, # of connection points: 3
#     Node 26, Type 0, BuildingBlock: BETDAH_clean_linker_0, # of connection points: 3
#     Node 27, Type 0, BuildingBlock: BETDAH_clean_linker_0, # of connection points: 3
#     Node 28, Type 0, BuildingBlock: BETDAH_clean_linker_0, # of connection points: 3
#     Node 29, Type 0, BuildingBlock: BETDAH_clean_linker_0, # of connection points: 3
#     Node 30, Type 0, BuildingBlock: BETDAH_clean_linker_0, # of connection points: 3
#     Node 31, Type 0, BuildingBlock: BETDAH_clean_linker_0, # of connection points: 3
#     Node 32, Type 1, BuildingBlock: ESEHIV_clean_sbu_0, # of connection points: 4
#     Node 33, Type 1, BuildingBlock: ESEHIV_clean_sbu_0, # of connection points: 4
#     Node 34, Type 1, BuildingBlock: ESEHIV_clean_sbu_0, # of connection points: 4
#     Node 35, Type 1, BuildingBlock: ESEHIV_clean_sbu_0, # of connection points: 4
#     Node 36, Type 1, BuildingBlock: ESEHIV_clean_sbu_0, # of connection points: 4
#     Node 37, Type 1, BuildingBlock: ESEHIV_clean_sbu_0, # of connection points: 4
#     Node 38, Type 1, BuildingBlock: ESEHIV_clean_sbu_0, # of connection points: 4
#     Node 39, Type 1, BuildingBlock: ESEHIV_clean_sbu_0, # of connection points: 4
#     Node 40, Type 1, BuildingBlock: ESEHIV_clean_sbu_0, # of connection points: 4
#     Node 41, Type 1, BuildingBlock: ESEHIV_clean_sbu_0, # of connection points: 4
#     Node 42, Type 1, BuildingBlock: ESEHIV_clean_sbu_0, # of connection points: 4
#     Node 43, Type 1, BuildingBlock: ESEHIV_clean_sbu_0, # of connection points: 4
#     Node 44, Type 1, BuildingBlock: ESEHIV_clean_sbu_0, # of connection points: 4
#     Node 45, Type 1, BuildingBlock: ESEHIV_clean_sbu_0, # of connection points: 4
#     Node 46, Type 1, BuildingBlock: ESEHIV_clean_sbu_0, # of connection points: 4
#     Node 47, Type 1, BuildingBlock: ESEHIV_clean_sbu_0, # of connection points: 4
#     Node 48, Type 1, BuildingBlock: ESEHIV_clean_sbu_0, # of connection points: 4
#     Node 49, Type 1, BuildingBlock: ESEHIV_clean_sbu_0, # of connection points: 4
#     Node 50, Type 1, BuildingBlock: ESEHIV_clean_sbu_0, # of connection points: 4
#     Node 51, Type 1, BuildingBlock: ESEHIV_clean_sbu_0, # of connection points: 4
#     Node 52, Type 1, BuildingBlock: ESEHIV_clean_sbu_0, # of connection points: 4
#     Node 53, Type 1, BuildingBlock: ESEHIV_clean_sbu_0, # of connection points: 4
#     Node 54, Type 1, BuildingBlock: ESEHIV_clean_sbu_0, # of connection points: 4
#     Node 55, Type 1, BuildingBlock: ESEHIV_clean_sbu_0, # of connection points: 4
#     Edge 56, Type (0, 1), BuildingBlock: CIFDUS_clean_linker_0, # of connection points: 2
#     Edge 57, Type (0, 1), BuildingBlock: CIFDUS_clean_linker_0, # of connection points: 2
#     Edge 58, Type (0, 1), BuildingBlock: CIFDUS_clean_linker_0, # of connection points: 2
#     Edge 59, Type (0, 1), BuildingBlock: CIFDUS_clean_linker_0, # of connection points: 2
#     Edge 60, Type (0, 1), BuildingBlock: CIFDUS_clean_linker_0, # of connection points: 2
#     Edge 61, Type (0, 1), BuildingBlock: CIFDUS_clean_linker_0, # of connection points: 2
#     Edge 62, Type (0, 1), BuildingBlock: CIFDUS_clean_linker_0, # of connection points: 2
#     Edge 63, Type (0, 1), BuildingBlock: CIFDUS_clean_linker_0, # of connection points: 2
#     Edge 64, Type (0, 1), BuildingBlock: CIFDUS_clean_linker_0, # of connection points: 2
#     Edge 65, Type (0, 1), BuildingBlock: CIFDUS_clean_linker_0, # of connection points: 2
#     Edge 66, Type (0, 1), BuildingBlock: CIFDUS_clean_linker_0, # of connection points: 2
#     Edge 67, Type (0, 1), BuildingBlock: CIFDUS_clean_linker_0, # of connection points: 2
#     Edge 68, Type (0, 1), BuildingBlock: CIFDUS_clean_linker_0, # of connection points: 2
#     Edge 69, Type (0, 1), BuildingBlock: CIFDUS_clean_linker_0, # of connection points: 2
#     Edge 70, Type (0, 1), BuildingBlock: CIFDUS_clean_linker_0, # of connection points: 2
#     Edge 71, Type (0, 1), BuildingBlock: CIFDUS_clean_linker_0, # of connection points: 2
#     Edge 72, Type (0, 1), BuildingBlock: CIFDUS_clean_linker_0, # of connection points: 2
#     Edge 73, Type (0, 1), BuildingBlock: CIFDUS_clean_linker_0, # of connection points: 2
#     Edge 74, Type (0, 1), BuildingBlock: CIFDUS_clean_linker_0, # of connection points: 2
#     Edge 75, Type (0, 1), BuildingBlock: CIFDUS_clean_linker_0, # of connection points: 2
#     Edge 76, Type (0, 1), BuildingBlock: CIFDUS_clean_linker_0, # of connection points: 2
#     Edge 77, Type (0, 1), BuildingBlock: CIFDUS_clean_linker_0, # of connection points: 2
#     Edge 78, Type (0, 1), BuildingBlock: CIFDUS_clean_linker_0, # of connection points: 2
#     Edge 79, Type (0, 1), BuildingBlock: CIFDUS_clean_linker_0, # of connection points: 2
#     Edge 80, Type (0, 1), BuildingBlock: CIFDUS_clean_linker_0, # of connection points: 2
#     Edge 81, Type (0, 1), BuildingBlock: CIFDUS_clean_linker_0, # of connection points: 2
#     Edge 82, Type (0, 1), BuildingBlock: CIFDUS_clean_linker_0, # of connection points: 2
#     Edge 83, Type (0, 1), BuildingBlock: CIFDUS_clean_linker_0, # of connection points: 2
#     Edge 84, Type (0, 1), BuildingBlock: CIFDUS_clean_linker_0, # of connection points: 2
#     Edge 85, Type (0, 1), BuildingBlock: CIFDUS_clean_linker_0, # of connection points: 2
#     Edge 86, Type (0, 1), BuildingBlock: CIFDUS_clean_linker_0, # of connection points: 2
#     Edge 87, Type (0, 1), BuildingBlock: CIFDUS_clean_linker_0, # of connection points: 2
#     Edge 88, Type (0, 1), BuildingBlock: CIFDUS_clean_linker_0, # of connection points: 2
#     Edge 89, Type (0, 1), BuildingBlock: CIFDUS_clean_linker_0, # of connection points: 2
#     Edge 90, Type (0, 1), BuildingBlock: CIFDUS_clean_linker_0, # of connection points: 2
#     Edge 91, Type (0, 1), BuildingBlock: CIFDUS_clean_linker_0, # of connection points: 2
#     Edge 92, Type (0, 1), BuildingBlock: CIFDUS_clean_linker_0, # of connection points: 2
#     Edge 93, Type (0, 1), BuildingBlock: CIFDUS_clean_linker_0, # of connection points: 2
#     Edge 94, Type (0, 1), BuildingBlock: CIFDUS_clean_linker_0, # of connection points: 2
#     Edge 95, Type (0, 1), BuildingBlock: CIFDUS_clean_linker_0, # of connection points: 2
#     Edge 96, Type (0, 1), BuildingBlock: CIFDUS_clean_linker_0, # of connection points: 2
#     Edge 97, Type (0, 1), BuildingBlock: CIFDUS_clean_linker_0, # of connection points: 2
#     Edge 98, Type (0, 1), BuildingBlock: CIFDUS_clean_linker_0, # of connection points: 2
#     Edge 99, Type (0, 1), BuildingBlock: CIFDUS_clean_linker_0, # of connection points: 2
#     Edge 100, Type (0, 1), BuildingBlock: CIFDUS_clean_linker_0, # of connection points: 2
#     Edge 101, Type (0, 1), BuildingBlock: CIFDUS_clean_linker_0, # of connection points: 2
#     Edge 102, Type (0, 1), BuildingBlock: CIFDUS_clean_linker_0, # of connection points: 2
#     Edge 103, Type (0, 1), BuildingBlock: CIFDUS_clean_linker_0, # of connection points: 2
#     Edge 104, Type (0, 1), BuildingBlock: CIFDUS_clean_linker_0, # of connection points: 2
#     Edge 105, Type (0, 1), BuildingBlock: CIFDUS_clean_linker_0, # of connection points: 2
#     Edge 106, Type (0, 1), BuildingBlock: CIFDUS_clean_linker_0, # of connection points: 2
#     Edge 107, Type (0, 1), BuildingBlock: CIFDUS_clean_linker_0, # of connection points: 2
#     Edge 108, Type (0, 1), BuildingBlock: CIFDUS_clean_linker_0, # of connection points: 2
#     Edge 109, Type (0, 1), BuildingBlock: CIFDUS_clean_linker_0, # of connection points: 2
#     Edge 110, Type (0, 1), BuildingBlock: CIFDUS_clean_linker_0, # of connection points: 2
#     Edge 111, Type (0, 1), BuildingBlock: CIFDUS_clean_linker_0, # of connection points: 2
#     Edge 112, Type (0, 1), BuildingBlock: CIFDUS_clean_linker_0, # of connection points: 2
#     Edge 113, Type (0, 1), BuildingBlock: CIFDUS_clean_linker_0, # of connection points: 2
#     Edge 114, Type (0, 1), BuildingBlock: CIFDUS_clean_linker_0, # of connection points: 2
#     Edge 115, Type (0, 1), BuildingBlock: CIFDUS_clean_linker_0, # of connection points: 2
#     Edge 116, Type (0, 1), BuildingBlock: CIFDUS_clean_linker_0, # of connection points: 2
#     Edge 117, Type (0, 1), BuildingBlock: CIFDUS_clean_linker_0, # of connection points: 2
#     Edge 118, Type (0, 1), BuildingBlock: CIFDUS_clean_linker_0, # of connection points: 2
#     Edge 119, Type (0, 1), BuildingBlock: CIFDUS_clean_linker_0, # of connection points: 2
#     Edge 120, Type (0, 1), BuildingBlock: CIFDUS_clean_linker_0, # of connection points: 2
#     Edge 121, Type (0, 1), BuildingBlock: CIFDUS_clean_linker_0, # of connection points: 2
#     Edge 122, Type (0, 1), BuildingBlock: CIFDUS_clean_linker_0, # of connection points: 2
#     Edge 123, Type (0, 1), BuildingBlock: CIFDUS_clean_linker_0, # of connection points: 2
#     Edge 124, Type (0, 1), BuildingBlock: CIFDUS_clean_linker_0, # of connection points: 2
#     Edge 125, Type (0, 1), BuildingBlock: CIFDUS_clean_linker_0, # of connection points: 2
#     Edge 126, Type (0, 1), BuildingBlock: CIFDUS_clean_linker_0, # of connection points: 2
#     Edge 127, Type (0, 1), BuildingBlock: CIFDUS_clean_linker_0, # of connection points: 2
#     Edge 128, Type (0, 1), BuildingBlock: CIFDUS_clean_linker_0, # of connection points: 2
#     Edge 129, Type (0, 1), BuildingBlock: CIFDUS_clean_linker_0, # of connection points: 2
#     Edge 130, Type (0, 1), BuildingBlock: CIFDUS_clean_linker_0, # of connection points: 2
#     Edge 131, Type (0, 1), BuildingBlock: CIFDUS_clean_linker_0, # of connection points: 2
#     Edge 132, Type (0, 1), BuildingBlock: CIFDUS_clean_linker_0, # of connection points: 2
#     Edge 133, Type (0, 1), BuildingBlock: CIFDUS_clean_linker_0, # of connection points: 2
#     Edge 134, Type (0, 1), BuildingBlock: CIFDUS_clean_linker_0, # of connection points: 2
#     Edge 135, Type (0, 1), BuildingBlock: CIFDUS_clean_linker_0, # of connection points: 2
#     Edge 136, Type (0, 1), BuildingBlock: CIFDUS_clean_linker_0, # of connection points: 2
#     Edge 137, Type (0, 1), BuildingBlock: CIFDUS_clean_linker_0, # of connection points: 2
#     Edge 138, Type (0, 1), BuildingBlock: CIFDUS_clean_linker_0, # of connection points: 2
#     Edge 139, Type (0, 1), BuildingBlock: CIFDUS_clean_linker_0, # of connection points: 2
#     Edge 140, Type (0, 1), BuildingBlock: CIFDUS_clean_linker_0, # of connection points: 2
#     Edge 141, Type (0, 1), BuildingBlock: CIFDUS_clean_linker_0, # of connection points: 2
#     Edge 142, Type (0, 1), BuildingBlock: CIFDUS_clean_linker_0, # of connection points: 2
#     Edge 143, Type (0, 1), BuildingBlock: CIFDUS_clean_linker_0, # of connection points: 2
#     Edge 144, Type (0, 1), BuildingBlock: CIFDUS_clean_linker_0, # of connection points: 2
#     Edge 145, Type (0, 1), BuildingBlock: CIFDUS_clean_linker_0, # of connection points: 2
#     Edge 146, Type (0, 1), BuildingBlock: CIFDUS_clean_linker_0, # of connection points: 2
#     Edge 147, Type (0, 1), BuildingBlock: CIFDUS_clean_linker_0, # of connection points: 2
#     Edge 148, Type (0, 1), BuildingBlock: CIFDUS_clean_linker_0, # of connection points: 2
#     Edge 149, Type (0, 1), BuildingBlock: CIFDUS_clean_linker_0, # of connection points: 2
#     Edge 150, Type (0, 1), BuildingBlock: CIFDUS_clean_linker_0, # of connection points: 2
#     Edge 151, Type (0, 1), BuildingBlock: CIFDUS_clean_linker_0, # of connection points: 2
# Relax obj value: 0.025
# Max RMSD: 0.142
# Mean RMSD: 0.107
data_MOF--net-tbo--node1-ESEHIV_clean_sbu_0--node2-BETDAH_clean_linker_0--edge1-CIFDUS_clean_linker_0
_symmetry_space_group_name_H-M    P1
_symmetry_Int_Tables_number       1
_symmetry_cell_setting            triclinic
loop_
_symmetry_equiv_pos_as_xyz
'x, y, z'
_cell_length_a     60.989819
_cell_length_b     62.277458
_cell_length_c     66.029315
_cell_angle_alpha  90.878658
_cell_angle_beta   93.940095
_cell_angle_gamma 98.805455
loop_
_atom_site_label
_atom_site_type_symbol
_atom_site_fract_x
_atom_site_fract_y
_atom_site_fract_z
_atom_type_partial_charge
H0 H 0.24482 0.12923 0.18251 0.0
H1 H 0.19495 0.14685 0.22011 0.0
H2 H 0.20675 0.17934 0.16432 0.0
C3 C 0.23223 0.13916 0.18537 0.0
C4 C 0.22788 0.15509 0.17137 0.0
C5 C 0.22026 0.13568 0.20286 0.0
C6 C 0.20403 0.14895 0.20658 0.0
C7 C 0.19928 0.16475 0.19266 0.0
C8 C 0.21104 0.16749 0.17514 0.0
N9 N 0.18246 0.1779 0.19525 0.0
C10 C 0.17093 0.17981 0.21257 0.0
H11 H 0.90559 0.17895 0.19561 0.0
H12 H 0.94338 0.21082 0.1488 0.0
H13 H 0.87932 0.17308 0.1333 0.0
C14 C 0.9073 0.18285 0.1798 0.0
C15 C 0.89015 0.1744 0.16521 0.0
C16 C 0.92656 0.19626 0.17421 0.0
C17 C 0.92876 0.20053 0.15354 0.0
C18 C 0.91167 0.1925 0.13887 0.0
C19 C 0.89231 0.17962 0.14475 0.0
N20 N 0.91441 0.19747 0.11825 0.0
C21 C 0.89712 0.20253 0.1053 0.0
H22 H 0.88094 0.83619 0.17746 0.0
H23 H 0.88892 0.87606 0.23208 0.0
H24 H 0.83787 0.88397 0.18595 0.0
C25 C 0.87617 0.84916 0.18651 0.0
C26 C 0.85816 0.85941 0.17932 0.0
C27 C 0.88756 0.85505 0.20554 0.0
C28 C 0.88083 0.87165 0.21714 0.0
C29 C 0.86333 0.88239 0.21014 0.0
C30 C 0.85185 0.87618 0.19121 0.0
N31 N 0.85725 0.89838 0.22336 0.0
C32 C 0.84446 0.9145 0.21832 0.0
H33 H 0.15225 0.84962 0.22195 0.0
H34 H 0.19128 0.8783 0.1747 0.0
H35 H 0.15751 0.81223 0.16776 0.0
C36 C 0.15856 0.8485 0.20706 0.0
C37 C 0.15331 0.82899 0.19566 0.0
C38 C 0.17222 0.86637 0.19969 0.0
C39 C 0.18057 0.86462 0.18055 0.0
C40 C 0.1755 0.84518 0.16897 0.0
C41 C 0.16166 0.82732 0.17654 0.0
N42 N 0.1847 0.84412 0.14989 0.0
C43 C 0.1873 0.82479 0.14022 0.0
H44 H 0.1828 0.87285 0.84714 0.0
H45 H 0.20607 0.82848 0.88998 0.0
H46 H 0.2478 0.88828 0.87786 0.0
C47 C 0.19575 0.86847 0.85763 0.0
C48 C 0.21585 0.88273 0.86078 0.0
C49 C 0.19221 0.84852 0.86746 0.0
C50 C 0.20849 0.84378 0.88225 0.0
C51 C 0.22836 0.85852 0.88632 0.0
C52 C 0.23202 0.87762 0.87529 0.0
N53 N 0.24556 0.8545 0.90073 0.0
C54 C 0.24387 0.83808 0.91481 0.0
H55 H 0.25524 0.16317 0.88437 0.0
H56 H 0.22432 0.22122 0.88457 0.0
H57 H 0.23443 0.19065 0.82824 0.0
C58 C 0.24777 0.1756 0.87638 0.0
C59 C 0.24502 0.17432 0.85502 0.0
C60 C 0.24061 0.19266 0.88736 0.0
C61 C 0.2304 0.20828 0.87654 0.0
C62 C 0.2284 0.20757 0.85526 0.0
C63 C 0.23608 0.19093 0.84469 0.0
N64 N 0.2194 0.22379 0.844 0.0
C65 C 0.20014 0.23171 0.84853 0.0
H66 H 0.92292 0.15761 0.82739 0.0
H67 H 0.90095 0.20249 0.86888 0.0
H68 H 0.85816 0.14318 0.85065 0.0
C69 C 0.91021 0.16211 0.83659 0.0
C70 C 0.89007 0.1479 0.83751 0.0
C71 C 0.91432 0.18183 0.8479 0.0
C72 C 0.89809 0.18716 0.86043 0.0
C73 C 0.87791 0.17313 0.86155 0.0
C74 C 0.87396 0.15372 0.84996 0.0
N75 N 0.8611 0.17813 0.87393 0.0
C76 C 0.86416 0.19481 0.88862 0.0
H77 H 0.91997 0.81042 0.88744 0.0
H78 H 0.90201 0.8534 0.84076 0.0
H79 H 0.87442 0.85476 0.89889 0.0
C80 C 0.91109 0.82348 0.88263 0.0
C81 C 0.89693 0.83149 0.89577 0.0
C82 C 0.91325 0.83136 0.8629 0.0
C83 C 0.9007 0.84747 0.85603 0.0
C84 C 0.88663 0.85591 0.86922 0.0
C85 C 0.88507 0.84792 0.88889 0.0
N86 N 0.87345 0.87221 0.86374 0.0
C87 C 0.87227 0.88307 0.8455 0.0
H88 H 0.26768 0.67777 0.66284 0.0
H89 H 0.21306 0.66166 0.70075 0.0
H90 H 0.20817 0.70627 0.65221 0.0
C91 C 0.25132 0.67997 0.66712 0.0
C92 C 0.23949 0.6941 0.6559 0.0
C93 C 0.24213 0.66816 0.68337 0.0
C94 C 0.22049 0.67059 0.68835 0.0
C95 C 0.20824 0.68426 0.67695 0.0
C96 C 0.21771 0.69566 0.66071 0.0
N97 N 0.18588 0.686 0.68055 0.0
C98 C 0.17767 0.68747 0.69961 0.0
H99 H 0.90454 0.70586 0.71019 0.0
H100 H 0.9085 0.76972 0.68567 0.0
H101 H 0.84827 0.72415 0.67511 0.0
C102 C 0.89686 0.71768 0.70144 0.0
C103 C 0.87466 0.71243 0.69339 0.0
C104 C 0.90915 0.73827 0.69872 0.0
C105 C 0.8992 0.75371 0.68775 0.0
C106 C 0.87764 0.74843 0.67866 0.0
C107 C 0.86534 0.72778 0.68143 0.0
N108 N 0.86854 0.76453 0.66738 0.0
C109 C 0.85549 0.75996 0.64933 0.0
H110 H 0.90222 0.34009 0.70619 0.0
H111 H 0.89335 0.40249 0.73063 0.0
H112 H 0.85472 0.37588 0.67666 0.0
C113 C 0.8936 0.35407 0.70572 0.0
C114 C 0.87735 0.35549 0.68982 0.0
C115 C 0.89964 0.37094 0.72045 0.0
C116 C 0.88885 0.3894 0.71941 0.0
C117 C 0.87266 0.39118 0.70356 0.0
C118 C 0.86726 0.37437 0.68877 0.0
N119 N 0.86217 0.41 0.70137 0.0
C120 C 0.85866 0.42415 0.71702 0.0
H121 H 0.17015 0.39128 0.72349 0.0
H122 H 0.22355 0.38149 0.68684 0.0
H123 H 0.16288 0.33584 0.68252 0.0
C124 C 0.17687 0.38188 0.71213 0.0
C125 C 0.16398 0.3628 0.70374 0.0
C126 C 0.19843 0.38874 0.70618 0.0
C127 C 0.20682 0.37649 0.69129 0.0
C128 C 0.19395 0.35748 0.6826 0.0
C129 C 0.17273 0.35057 0.68912 0.0
N130 N 0.20194 0.34499 0.66735 0.0
C131 C 0.22114 0.35212 0.65766 0.0
H132 H 0.19512 0.37754 0.35188 0.0
H133 H 0.15841 0.3399 0.39599 0.0
H134 H 0.212 0.39027 0.41591 0.0
C135 C 0.19222 0.37418 0.36761 0.0
C136 C 0.20539 0.38649 0.38339 0.0
C137 C 0.17524 0.35743 0.37215 0.0
C138 C 0.17127 0.35306 0.39244 0.0
C139 C 0.18462 0.36459 0.40822 0.0
C140 C 0.2016 0.38135 0.40367 0.0
N141 N 0.18112 0.35852 0.42851 0.0
C142 C 0.19814 0.3617 0.44383 0.0
H143 H 0.25666 0.65046 0.38183 0.0
H144 H 0.19922 0.6832 0.37922 0.0
H145 H 0.20682 0.6368 0.33224 0.0
C146 C 0.24099 0.65314 0.3743 0.0
C147 C 0.23335 0.64183 0.35596 0.0
C148 C 0.22892 0.66806 0.38297 0.0
C149 C 0.20874 0.6718 0.37279 0.0
C150 C 0.20067 0.66025 0.35455 0.0
C151 C 0.21298 0.6453 0.34644 0.0
N152 N 0.18023 0.66275 0.34378 0.0
C153 C 0.16699 0.67865 0.34705 0.0
H154 H 0.88316 0.63352 0.33569 0.0
H155 H 0.87342 0.70016 0.32974 0.0
H156 H 0.82473 0.65464 0.35717 0.0
C157 C 0.87346 0.64638 0.33832 0.0
C158 C 0.85311 0.64158 0.34732 0.0
C159 C 0.88096 0.66741 0.33185 0.0
C160 C 0.86778 0.68375 0.33441 0.0
C161 C 0.84782 0.67939 0.34391 0.0
C162 C 0.84043 0.65823 0.35026 0.0
N163 N 0.83554 0.6966 0.34689 0.0
C164 C 0.82238 0.69755 0.36313 0.0
H165 H 0.90458 0.29353 0.42361 0.0
H166 H 0.89585 0.32615 0.36707 0.0
H167 H 0.84915 0.32802 0.41235 0.0
C168 C 0.89558 0.30363 0.41396 0.0
C169 C 0.87629 0.31057 0.42078 0.0
C170 C 0.90291 0.30897 0.39454 0.0
C171 C 0.89061 0.32168 0.38198 0.0
C172 C 0.8711 0.3282 0.38844 0.0
C173 C 0.86404 0.32249 0.40759 0.0
N174 N 0.85728 0.33927 0.37554 0.0
C175 C 0.86484 0.35692 0.3639 0.0
H176 H 0.74655 0.13704 0.66202 0.0
H177 H 0.73127 0.13987 0.72455 0.0
H178 H 0.70955 0.18577 0.68271 0.0
C179 C 0.73877 0.14432 0.67409 0.0
C180 C 0.72808 0.1625 0.66989 0.0
C181 C 0.74003 0.13579 0.69373 0.0
C182 C 0.73003 0.14565 0.70917 0.0
C183 C 0.71867 0.16326 0.70525 0.0
C184 C 0.71779 0.17179 0.68562 0.0
N185 N 0.70966 0.17272 0.72187 0.0
C186 C 0.69083 0.18286 0.72074 0.0
H187 H 0.4015 0.17164 0.69803 0.0
H188 H 0.4158 0.19993 0.6405 0.0
H189 H 0.36086 0.14833 0.6439 0.0
C190 C 0.39745 0.17253 0.68185 0.0
C191 C 0.37934 0.15826 0.67253 0.0
C192 C 0.41075 0.18757 0.67043 0.0
C193 C 0.40577 0.18828 0.64941 0.0
C194 C 0.38779 0.17401 0.6399 0.0
C195 C 0.37494 0.15889 0.6514 0.0
N196 N 0.38186 0.17508 0.61886 0.0
C197 C 0.38292 0.19485 0.60932 0.0
H198 H 0.41294 0.83396 0.69183 0.0
H199 H 0.40507 0.89004 0.72814 0.0
H200 H 0.37759 0.88295 0.66625 0.0
C201 C 0.40652 0.84914 0.69346 0.0
C202 C 0.39445 0.85672 0.67687 0.0
C203 C 0.4105 0.861 0.71205 0.0
C204 C 0.40212 0.88075 0.71395 0.0
C205 C 0.39022 0.88866 0.69741 0.0
C206 C 0.38656 0.87664 0.679 0.0
N207 N 0.38244 0.90902 0.6984 0.0
C208 C 0.37698 0.91895 0.71603 0.0
H209 H 0.68967 0.85456 0.72915 0.0
H210 H 0.7162 0.82798 0.6772 0.0
H211 H 0.65919 0.79259 0.70285 0.0
C212 C 0.68897 0.84163 0.71784 0.0
C213 C 0.67201 0.82357 0.71771 0.0
C214 C 0.70522 0.84322 0.70355 0.0
C215 C 0.70372 0.827 0.6882 0.0
C216 C 0.68681 0.80883 0.68799 0.0
C217 C 0.67147 0.80713 0.70286 0.0
N218 N 0.68512 0.79121 0.67386 0.0
C219 C 0.69447 0.79186 0.65528 0.0
H220 H 0.68639 0.87848 0.33526 0.0
H221 H 0.71539 0.82509 0.36087 0.0
H222 H 0.75702 0.88486 0.34871 0.0
C223 C 0.70078 0.87151 0.34091 0.0
C224 C 0.72191 0.8841 0.34119 0.0
C225 C 0.69816 0.84999 0.34756 0.0
C226 C 0.71702 0.84163 0.35567 0.0
C227 C 0.73825 0.8543 0.35614 0.0
C228 C 0.74061 0.8752 0.34837 0.0
N229 N 0.75755 0.84638 0.36413 0.0
C230 C 0.75751 0.83304 0.38077 0.0
H231 H 0.74881 0.1668 0.37537 0.0
H232 H 0.70018 0.20172 0.39904 0.0
H233 H 0.69009 0.17499 0.33801 0.0
C234 C 0.73329 0.17325 0.37343 0.0
C235 C 0.72056 0.16979 0.35471 0.0
C236 C 0.72622 0.18465 0.38967 0.0
C237 C 0.70577 0.19244 0.38692 0.0
C238 C 0.69255 0.18894 0.3685 0.0
C239 C 0.69991 0.1774 0.35239 0.0
N240 N 0.67253 0.19817 0.36682 0.0
C241 C 0.65573 0.19505 0.35111 0.0
H242 H 0.37734 0.16847 0.36405 0.0
H243 H 0.391 0.22344 0.40574 0.0
H244 H 0.33952 0.17063 0.41661 0.0
C245 C 0.37366 0.17686 0.37761 0.0
C246 C 0.35681 0.16704 0.38955 0.0
C247 C 0.38632 0.19707 0.38357 0.0
C248 C 0.38155 0.20771 0.40128 0.0
C249 C 0.36465 0.19816 0.41318 0.0
C250 C 0.35262 0.17781 0.40738 0.0
N251 N 0.35931 0.20855 0.43105 0.0
C252 C 0.36698 0.2302 0.43636 0.0
H253 H 0.39034 0.8096 0.40048 0.0
H254 H 0.40399 0.84397 0.34557 0.0
H255 H 0.35185 0.85916 0.38134 0.0
C256 C 0.38696 0.82189 0.38975 0.0
C257 C 0.36978 0.83406 0.39301 0.0
C258 C 0.39926 0.82499 0.37248 0.0
C259 C 0.39438 0.84087 0.35872 0.0
C260 C 0.37756 0.85333 0.36175 0.0
C261 C 0.36501 0.84976 0.37888 0.0
N262 N 0.37407 0.86914 0.34703 0.0
C263 C 0.35988 0.88456 0.348 0.0
H264 H 0.76827 0.65279 0.19467 0.0
H265 H 0.71208 0.65588 0.23012 0.0
H266 H 0.72309 0.69753 0.17914 0.0
C267 C 0.75342 0.65968 0.19744 0.0
C268 C 0.74733 0.67611 0.18497 0.0
C269 C 0.74081 0.65222 0.21365 0.0
C270 C 0.72173 0.66145 0.21752 0.0
C271 C 0.71516 0.67767 0.20479 0.0
C272 C 0.72798 0.68475 0.18861 0.0
N273 N 0.696 0.68754 0.20757 0.0
C274 C 0.68139 0.68356 0.22288 0.0
H275 H 0.42897 0.66676 0.21509 0.0
H276 H 0.40192 0.71295 0.17673 0.0
H277 H 0.35863 0.65876 0.199 0.0
C278 C 0.41486 0.67174 0.20654 0.0
C279 C 0.39353 0.66005 0.20814 0.0
C280 C 0.41803 0.69083 0.19536 0.0
C281 C 0.39966 0.69796 0.18498 0.0
C282 C 0.37821 0.68613 0.18616 0.0
C283 C 0.37528 0.66751 0.19795 0.0
N284 N 0.35898 0.69336 0.17708 0.0
C285 C 0.35769 0.70259 0.15808 0.0
H286 H 0.39155 0.29968 0.18001 0.0
H287 H 0.38333 0.35221 0.2213 0.0
H288 H 0.34115 0.33933 0.16651 0.0
C289 C 0.38311 0.31293 0.18438 0.0
C290 C 0.36553 0.31802 0.17137 0.0
C291 C 0.39017 0.32529 0.20246 0.0
C292 C 0.37878 0.34277 0.20734 0.0
C293 C 0.36118 0.34784 0.19419 0.0
C294 C 0.35491 0.33549 0.17639 0.0
N295 N 0.34883 0.36489 0.19801 0.0
C296 C 0.35214 0.37989 0.21415 0.0
H297 H 0.68431 0.38702 0.21736 0.0
H298 H 0.72067 0.37876 0.16501 0.0
H299 H 0.66219 0.33333 0.17571 0.0
C300 C 0.68662 0.37781 0.20382 0.0
C301 C 0.67162 0.35893 0.19851 0.0
C302 C 0.70483 0.38471 0.19238 0.0
C303 C 0.70674 0.37358 0.17402 0.0
C304 C 0.69092 0.3553 0.16773 0.0
C305 C 0.67365 0.34796 0.18017 0.0
N306 N 0.6921 0.34344 0.14939 0.0
C307 C 0.70839 0.34816 0.13567 0.0
H308 H 0.68609 0.38557 0.81608 0.0
H309 H 0.70322 0.33042 0.84864 0.0
H310 H 0.75361 0.3846 0.83999 0.0
C311 C 0.69851 0.37743 0.82396 0.0
C312 C 0.72061 0.38807 0.82729 0.0
C313 C 0.6921 0.35656 0.83148 0.0
C314 C 0.70789 0.34653 0.84283 0.0
C315 C 0.72998 0.35677 0.84596 0.0
C316 C 0.73635 0.37713 0.83774 0.0
N317 N 0.74618 0.34683 0.8572 0.0
C318 C 0.74155 0.33498 0.87448 0.0
H319 H 0.77266 0.68803 0.90356 0.0
H320 H 0.71082 0.71364 0.90087 0.0
H321 H 0.71964 0.66275 0.85899 0.0
C322 C 0.75597 0.68792 0.89671 0.0
C323 C 0.74791 0.67355 0.88021 0.0
C324 C 0.74251 0.70222 0.90435 0.0
C325 C 0.7211 0.70253 0.89511 0.0
C326 C 0.7128 0.68809 0.87885 0.0
C327 C 0.72611 0.67354 0.87177 0.0
N328 N 0.6911 0.68746 0.8693 0.0
C329 C 0.67869 0.70445 0.8695 0.0
H330 H 0.39272 0.657 0.83472 0.0
H331 H 0.37914 0.72077 0.85026 0.0
H332 H 0.33445 0.66432 0.86592 0.0
C333 C 0.38255 0.66732 0.84188 0.0
C334 C 0.36293 0.65791 0.85046 0.0
C335 C 0.38853 0.69 0.84158 0.0
C336 C 0.37471 0.70324 0.85013 0.0
C337 C 0.35546 0.69416 0.85914 0.0
C338 C 0.34954 0.67145 0.85927 0.0
N339 N 0.3423 0.70844 0.86758 0.0
C340 C 0.3268 0.70244 0.88172 0.0
H341 H 0.41665 0.30602 0.88673 0.0
H342 H 0.40141 0.35236 0.84196 0.0
H343 H 0.36606 0.34503 0.89636 0.0
C344 C 0.40706 0.31841 0.88147 0.0
C345 C 0.39089 0.3242 0.89361 0.0
C346 C 0.41073 0.32798 0.86257 0.0
C347 C 0.39866 0.3447 0.85637 0.0
C348 C 0.38259 0.351 0.86871 0.0
C349 C 0.3786 0.34037 0.88703 0.0
N350 N 0.36979 0.36766 0.86344 0.0
C351 C 0.37136 0.3808 0.84652 0.0
Cu352 Cu 0.31028 0.23887 0.03245 0.0
N353 N 0.33317 0.24076 1.01484 0.0
N354 N 0.35078 0.25341 0.98773 0.0
C355 C 0.33143 0.25036 0.9968 0.0
C356 C 0.36541 0.24534 1.0007 0.0
C357 C 0.3545 0.2376 1.01747 0.0
O358 O 0.28394 0.2376 1.01384 0.0
C359 C 0.30747 0.26671 0.06639 0.0
O360 O 0.28902 0.25367 0.06924 0.0
H361 H 0.3165 0.25633 0.9911 0.0
H362 H 0.36191 0.23121 0.03098 0.0
N363 N 0.30759 0.2145 0.04917 0.0
N364 N 0.29399 0.19471 0.07486 0.0
C365 C 0.28974 0.20828 0.05985 0.0
C366 C 0.32359 0.20392 0.05736 0.0
C367 C 0.31521 0.19164 0.07318 0.0
C368 C 0.27791 0.21959 1.00409 0.0
O369 O 0.28665 0.20256 1.01014 0.0
H370 H 0.27445 0.21506 0.05782 0.0
H371 H 0.34068 0.20648 0.05342 0.0
O372 O 0.31742 0.26453 0.05036 0.0
H373 H 0.38287 0.24554 0.99856 0.0
H374 H 0.32463 0.18295 0.08388 0.0
Cu375 Cu 0.8052 0.29021 1.00674 0.0
N376 N 0.79859 0.31372 0.02208 0.0
N377 N 0.78555 0.33037 0.04796 0.0
C378 C 0.78991 0.31141 0.04026 0.0
C379 C 0.79159 0.34528 0.03394 0.0
C380 C 0.79971 0.33496 1.01799 0.0
O381 O 0.81359 0.26891 0.0258 0.0
C382 C 0.76492 0.2898 0.98236 0.0
O383 O 0.76066 0.30459 0.99528 0.0
H384 H 0.78621 0.29586 0.04739 0.0
H385 H 0.80539 0.34234 1.0042 0.0
N386 N 0.82915 0.29674 0.99065 0.0
N387 N 0.84957 0.28849 0.96558 0.0
C388 C 0.83653 0.28081 0.98035 0.0
C389 C 0.83797 0.31536 0.98227 0.0
C390 C 0.85063 0.31031 0.96676 0.0
C391 C 0.82877 0.27686 0.03924 0.0
O392 O 0.83693 0.29762 0.03878 0.0
H393 H 0.83049 0.26375 0.98233 0.0
H394 H 0.83414 0.33126 0.98599 0.0
O395 O 0.78085 0.2793 0.98688 0.0
H396 H 0.79013 0.36235 0.03505 0.0
H397 H 0.85884 0.32169 0.95643 0.0
Cu398 Cu 0.81751 0.76741 0.04404 0.0
N399 N 0.84137 0.76955 0.02748 0.0
N400 N 0.86002 0.78064 1.00057 0.0
C401 C 0.84595 0.78553 1.01421 0.0
C402 C 0.86507 0.76103 1.0058 0.0
C403 C 0.85342 0.75415 0.02237 0.0
O404 O 0.791 0.75767 0.02589 0.0
C405 C 0.8103 0.79763 0.07529 0.0
O406 O 0.7935 0.78298 0.07959 0.0
H407 H 0.83785 0.79982 1.01364 0.0
H408 H 0.85237 0.73832 0.02906 0.0
N409 N 0.819 0.74593 0.06329 0.0
N410 N 0.80802 0.72408 0.08851 0.0
C411 C 0.80162 0.73628 0.07308 0.0
C412 C 0.83708 0.7395 0.07264 0.0
C413 C 0.83037 0.72596 0.08815 0.0
C414 C 0.78681 0.76608 1.00884 0.0
O415 O 0.79701 0.7856 1.00518 0.0
H416 H 0.78479 0.73937 0.06974 0.0
H417 H 0.85402 0.74506 0.06905 0.0
O418 O 0.82027 0.795 0.05929 0.0
H419 H 0.8748 0.75152 0.99716 0.0
H420 H 0.84123 0.71864 0.09869 0.0
Cu421 Cu 0.26308 0.72949 0.02984 0.0
N422 N 0.2362 0.72702 0.0421 0.0
N423 N 0.21077 0.7362 0.06204 0.0
C424 C 0.23261 0.73795 0.05897 0.0
C425 C 0.20021 0.72327 0.04663 0.0
C426 C 0.21597 0.71759 0.03437 0.0
O427 O 0.28734 0.73012 0.05069 0.0
C428 C 0.25733 0.77179 1.01553 0.0
O429 O 0.2487 0.77474 0.03285 0.0
H430 H 0.24562 0.74855 0.06779 0.0
H431 H 0.21284 0.70838 1.02017 0.0
N432 N 0.26348 0.70569 1.01261 0.0
N433 N 0.27088 0.68784 0.98494 0.0
C434 C 0.26872 0.70726 0.99321 0.0
C435 C 0.26212 0.68449 1.01687 0.0
C436 C 0.26678 0.67339 0.99978 0.0
C437 C 0.29493 0.74626 0.06252 0.0
O438 O 0.28723 0.76469 0.06007 0.0
H439 H 0.27236 0.72262 0.98574 0.0
H440 H 0.25902 0.67778 0.0316 0.0
O441 O 0.26557 0.75456 1.0124 0.0
H442 H 0.18237 0.71906 0.04385 0.0
H443 H 0.2678 0.65623 0.99858 0.0
Cu444 Cu 0.04168 0.25094 0.29793 0.0
N445 N 0.05557 0.22613 0.29566 0.0
N446 N 0.07743 0.20372 0.28367 0.0
C447 C 0.0722 0.22404 0.28363 0.0
C448 C 0.06345 0.19256 0.29618 0.0
C449 C 0.05002 0.20642 0.30355 0.0
O450 O 0.06433 0.27674 0.30048 0.0
C451 C 1.00344 0.23681 0.27378 0.0
O452 O 0.99966 0.2247 0.28965 0.0
H453 H 0.07975 0.23702 0.27446 0.0
H454 H 0.03675 0.20228 0.31353 0.0
N455 N 0.025 0.25145 0.32085 0.0
N456 N 0.99927 0.26032 0.34088 0.0
C457 C 1.00685 0.26127 0.32208 0.0
C458 C 0.0292 0.24416 0.33958 0.0
C459 C 1.01336 0.24959 0.35195 0.0
C460 C 0.0822 0.2755 0.31129 0.0
O461 O 0.08492 0.25686 0.31937 0.0
H462 H 0.99965 0.26939 0.30948 0.0
H463 H 0.04299 0.23578 0.344 0.0
O464 O 0.02137 0.25033 0.27383 0.0
H465 H 0.06281 0.17555 0.2996 0.0
H466 H 1.01227 0.24581 0.36783 0.0
Cu467 Cu 0.76627 0.04903 0.2535 0.0
N468 N 0.77511 0.06784 0.23118 0.0
N469 N 0.79655 0.09005 0.21186 0.0
C470 C 0.79542 0.07925 0.22945 0.0
C471 C 0.77603 0.08521 0.20228 0.0
C472 C 0.76282 0.07144 0.21426 0.0
O473 O 0.75005 0.07227 0.26533 0.0
C474 C 0.80247 0.02485 0.24686 0.0
O475 O 0.81333 0.04006 0.25936 0.0
H476 H 0.80902 0.07966 0.24093 0.0
H477 H 0.74563 0.06433 0.21078 0.0
N478 N 0.75785 0.03027 0.27607 0.0
N479 N 0.75008 1.0007 0.29441 0.0
C480 C 0.75462 1.0084 0.27593 0.0
C481 C 0.75535 0.03659 0.29526 0.0
C482 C 0.7504 0.01834 0.30659 0.0
C483 C 0.76061 0.08928 0.27451 0.0
O484 O 0.78245 0.09255 0.27524 0.0
H485 H 0.75568 0.99832 0.26264 0.0
H486 H 0.75744 0.05325 0.30079 0.0
O487 O 0.7821 0.02547 0.24166 0.0
H488 H 0.77101 0.09079 0.18748 0.0
H489 H 0.74796 0.01806 0.32268 0.0
Cu490 Cu 0.01965 0.75676 0.27289 0.0
N491 N 1.00868 0.78318 0.27429 0.0
N492 N 0.98821 0.80906 0.26559 0.0
C493 C 0.99261 0.7889 0.26135 0.0
C494 C 1.00217 0.81621 0.28193 0.0
C495 C 1.01476 0.80025 0.28724 0.0
O496 O 0.99358 0.73451 0.2712 0.0
C497 C 0.05469 0.771 0.25114 0.0
O498 O 0.05952 0.78255 0.26811 0.0
H499 H 0.98464 0.77853 0.24882 0.0
H500 H 0.0275 0.80109 0.29957 0.0
N501 N 0.03905 0.75243 0.29544 0.0
N502 N 0.06831 0.74187 0.31286 0.0
C503 C 0.05733 0.74281 0.29448 0.0
C504 C 0.03821 0.75757 0.31521 0.0
C505 C 0.05622 0.75105 0.32601 0.0
C506 C 0.99165 0.71769 0.28201 0.0
O507 O 1.00916 0.71301 0.29272 0.0
H508 H 0.06232 0.73642 0.28048 0.0
H509 H 0.02544 0.7655 0.32135 0.0
O510 O 0.0366 0.75772 0.24904 0.0
H511 H 1.00314 0.83179 0.2897 0.0
H512 H 0.06026 0.75322 0.3422 0.0
Cu513 Cu 0.2732 0.01216 0.29735 0.0
N514 N 0.27323 0.02995 0.32031 0.0
N515 N 0.28395 0.05985 0.33981 0.0
C516 C 0.28476 0.05016 0.32157 0.0
C517 C 0.27137 0.04505 0.35061 0.0
C518 C 0.26466 0.02657 0.33846 0.0
O519 O 0.27402 0.03205 0.27473 0.0
C520 C 0.29525 0.98179 0.31572 0.0
O521 O 0.27781 0.98126 0.32642 0.0
H522 H 0.2943 0.05731 0.30945 0.0
H523 H 0.2547 0.01165 0.34271 0.0
N524 N 0.2478 0.99158 0.29204 0.0
N525 N 0.22673 0.96352 0.27526 0.0
C526 C 0.24614 0.97726 0.27641 0.0
C527 C 0.22871 0.98695 0.30126 0.0
C528 C 0.21559 0.9696 0.29085 0.0
C529 C 0.25647 0.04091 0.27256 0.0
O530 O 0.24055 0.03524 0.28476 0.0
H531 H 0.25904 0.97716 0.26596 0.0
H532 H 0.22467 0.99547 0.31456 0.0
O533 O 0.2976 0.99533 0.30139 0.0
H534 H 0.26743 0.04736 0.36615 0.0
H535 H 0.19935 0.96184 0.29472 0.0
Cu536 Cu 0.05132 0.75211 0.78815 0.0
N537 N 0.06509 0.7272 0.78717 0.0
N538 N 0.08802 0.70534 0.77623 0.0
C539 C 0.08307 0.72574 0.77672 0.0
C540 C 0.07266 0.69355 0.78707 0.0
C541 C 0.05859 0.7071 0.79387 0.0
O542 O 0.07446 0.77573 0.79723 0.0
C543 C 0.03143 0.74117 0.74863 0.0
O544 O 0.03969 0.72306 0.75111 0.0
H545 H 0.0914 0.73913 0.76848 0.0
H546 H 0.04413 0.70243 0.80233 0.0
N547 N 0.02799 0.75041 0.80532 0.0
N548 N 1.00073 0.7636 0.82017 0.0
C549 C 0.02207 0.76755 0.81521 0.0
C550 C 1.00973 0.73513 0.80406 0.0
C551 C 0.99291 0.7432 0.81325 0.0
C552 C 0.08345 0.77497 0.81515 0.0
O553 O 0.07561 0.75921 0.82692 0.0
H554 H 0.03246 0.78329 0.81693 0.0
H555 H 1.0081 0.72002 0.7954 0.0
O556 O 0.03684 0.75665 0.76173 0.0
H557 H 0.07127 0.67625 0.78943 0.0
H558 H 0.97595 0.73513 0.81388 0.0
Cu559 Cu 0.29778 0.03757 0.78197 0.0
N560 N 0.29454 0.04626 0.7552 0.0
N561 N 0.30368 0.06414 0.72719 0.0
C562 C 0.30654 0.06384 0.74763 0.0
C563 C 0.28923 0.046 0.72171 0.0
C564 C 0.28369 0.03495 0.73904 0.0
O565 O 0.30066 0.06346 0.79984 0.0
C566 C 0.31802 1.00144 0.77493 0.0
O567 O 0.2972 0.99361 0.76943 0.0
H568 H 0.31833 0.07536 0.75687 0.0
H569 H 0.27351 0.01919 0.73967 0.0
N570 N 0.27237 0.0194 0.78907 0.0
N571 N 0.25138 0.99367 0.80528 0.0
C572 C 0.27149 1.00605 0.80491 0.0
C573 C 0.25198 0.01566 0.7793 0.0
C574 C 0.23902 0.99962 0.78921 0.0
C575 C 0.28404 0.07363 0.79742 0.0
O576 O 0.26839 0.06641 0.78321 0.0
H577 H 0.2857 1.00463 0.81529 0.0
H578 H 0.24703 0.02365 0.7657 0.0
O579 O 0.32264 0.02086 0.78226 0.0
H580 H 0.28367 0.04068 0.70628 0.0
H581 H 0.22198 0.99259 0.78476 0.0
Cu582 Cu 0.04537 0.29991 0.80157 0.0
N583 N 0.02761 0.3219 0.80167 0.0
N584 N 0.99854 0.33854 0.79253 0.0
C585 C 1.00673 0.31958 0.793 0.0
C586 C 1.01499 0.3534 0.80143 0.0
C587 C 0.03291 0.34308 0.80705 0.0
O588 O 0.0257 0.27271 0.80341 0.0
C589 C 0.06022 0.31454 0.76335 0.0
O590 O 0.04596 0.32825 0.76434 0.0
H591 H 0.99831 0.30446 0.78597 0.0
H592 H 0.049 0.35071 0.81361 0.0
N593 N 0.06721 0.30226 0.82312 0.0
N594 N 0.09787 0.29549 0.84087 0.0
C595 C 0.08327 0.28964 0.82472 0.0
C596 C 0.07167 0.31658 0.83889 0.0
C597 C 0.09069 0.3125 0.84983 0.0
C598 C 1.01734 0.26861 0.82029 0.0
O599 O 0.02324 0.28242 0.83566 0.0
H600 H 0.08465 0.27692 0.81374 0.0
H601 H 0.06203 0.32927 0.84205 0.0
O602 O 0.06123 0.30049 0.77703 0.0
H603 H 1.01441 0.3706 0.80324 0.0
H604 H 0.09866 0.32143 0.86323 0.0
Cu605 Cu 0.8165 0.99973 0.74487 0.0
N606 N 0.84349 0.01857 0.74644 0.0
N607 N 0.86711 0.04757 0.75881 0.0
C608 C 0.84812 0.03395 0.76124 0.0
C609 C 0.87484 0.0404 0.74165 0.0
C610 C 0.86022 0.02238 0.73405 0.0
O611 O 0.79387 0.0191 0.74287 0.0
C612 C 0.83337 0.96955 0.76844 0.0
O613 O 0.84615 0.97125 0.75312 0.0
H614 H 0.83696 0.03576 0.77299 0.0
H615 H 0.86132 0.01326 0.72019 0.0
N616 N 0.81123 0.98041 0.72249 0.0
N617 N 0.79466 0.95049 0.70508 0.0
C618 C 0.79729 0.96153 0.72304 0.0
C619 C 0.81775 0.98154 0.70341 0.0
C620 C 0.80747 0.96307 0.69259 0.0
C621 C 0.7961 0.03196 0.72798 0.0
O622 O 0.81173 0.02988 0.71567 0.0
H623 H 0.78861 0.95641 0.73631 0.0
H624 H 0.82877 0.99497 0.69764 0.0
O625 O 0.81794 0.98134 0.76861 0.0
H626 H 0.8897 0.04785 0.73487 0.0
H627 H 0.80919 0.95928 0.67678 0.0
Cu628 Cu 0.30996 0.76557 0.52586 0.0
N629 N 0.33417 0.77278 0.54541 0.0
N630 N 0.35196 0.78866 0.57403 0.0
C631 C 0.33378 0.78713 0.56082 0.0
C632 C 0.36443 0.77472 0.56638 0.0
C633 C 0.35343 0.76494 0.5488 0.0
O634 O 0.28438 0.76047 0.5426 0.0
C635 C 0.33122 0.79099 0.49822 0.0
O636 O 0.34577 0.77868 0.50472 0.0
H637 H 0.32008 0.79608 0.56229 0.0
H638 H 0.35899 0.75277 0.53941 0.0
N639 N 0.30937 0.73991 0.51041 0.0
N640 N 0.29721 0.71459 0.48597 0.0
C641 C 0.29486 0.73406 0.49419 0.0
C642 C 0.32142 0.72363 0.51259 0.0
C643 C 0.31399 0.70803 0.49756 0.0
C644 C 0.28709 0.74586 0.55555 0.0
O645 O 0.30454 0.73594 0.55475 0.0
H646 H 0.28247 0.74377 0.48886 0.0
H647 H 0.33442 0.72291 0.5244 0.0
O648 O 0.31233 0.78868 0.50585 0.0
H649 H 0.3801 0.77127 0.57322 0.0
H650 H 0.32056 0.69305 0.49537 0.0
Cu651 Cu 0.76426 0.74303 0.51061 0.0
N652 N 0.76521 0.7171 0.49663 0.0
N653 N 0.7719 0.69735 0.46985 0.0
C654 C 0.76416 0.71526 0.47628 0.0
C655 C 0.77732 0.68714 0.48697 0.0
C656 C 0.77327 0.69944 0.50349 0.0
O657 O 0.76682 0.76571 0.49087 0.0
C658 C 0.79459 0.76635 0.54005 0.0
O659 O 0.78692 0.78325 0.53223 0.0
H660 H 0.75945 0.72779 0.46648 0.0
H661 H 0.77785 0.69678 0.51926 0.0
N662 N 0.73766 0.74268 0.52271 0.0
N663 N 0.71477 0.74964 0.54609 0.0
C664 C 0.73608 0.74973 0.5418 0.0
C665 C 0.71665 0.7378 0.51452 0.0
C666 C 0.70242 0.74199 0.52898 0.0
C667 C 0.78378 0.76948 0.48055 0.0
O668 O 0.80086 0.75942 0.48497 0.0
H669 H 0.75036 0.75494 0.55231 0.0
H670 H 0.71207 0.73217 0.499 0.0
O671 O 0.78783 0.74761 0.53207 0.0
H672 H 0.78561 0.67296 0.48762 0.0
H673 H 0.68448 0.74016 0.52686 0.0
Cu674 Cu 0.79864 0.24746 0.54926 0.0
N675 N 0.79821 0.22394 0.53103 0.0
N676 N 0.78617 0.20625 0.50152 0.0
C677 C 0.7809 0.21821 0.51718 0.0
C678 C 0.80774 0.20425 0.50575 0.0
C679 C 0.81514 0.21522 0.52395 0.0
O680 O 0.80256 0.27154 0.53038 0.0
C681 C 0.76727 0.22251 0.57111 0.0
O682 O 0.77752 0.20738 0.56374 0.0
H683 H 0.7654 0.22461 0.51759 0.0
H684 H 0.8321 0.21823 0.53053 0.0
N685 N 0.82205 0.25277 0.56959 0.0
N686 N 0.84161 0.27151 0.59595 0.0
C687 C 0.82768 0.27227 0.57926 0.0
C688 C 0.83273 0.23901 0.58056 0.0
C689 C 0.84488 0.25055 0.59682 0.0
C690 C 0.82229 0.27519 0.5244 0.0
O691 O 0.83765 0.26543 0.53361 0.0
H692 H 0.82042 0.28645 0.57482 0.0
H693 H 0.83085 0.22166 0.57763 0.0
O694 O 0.77233 0.24201 0.56519 0.0
H695 H 0.81779 0.19645 0.49589 0.0
H696 H 0.85478 0.24386 0.60866 0.0
Cu697 Cu 0.33837 0.3377 0.54183 0.0
N698 N 0.33792 0.35628 0.56404 0.0
N699 N 0.32493 0.36615 0.59296 0.0
C700 C 0.32788 0.34948 0.58076 0.0
C701 C 0.33359 0.38429 0.58359 0.0
C702 C 0.34181 0.37812 0.56573 0.0
O703 O 0.33963 0.30899 0.55204 0.0
C704 C 0.30341 0.35323 0.51894 0.0
O705 O 0.31446 0.37247 0.52434 0.0
H706 H 0.32089 0.33268 0.58293 0.0
H707 H 0.34851 0.38878 0.55413 0.0
N708 N 0.36229 0.34486 0.52584 0.0
N709 N 0.38417 0.33508 0.50265 0.0
C710 C 0.37414 0.32973 0.5198 0.0
C711 C 0.3653 0.36074 0.51224 0.0
C712 C 0.37871 0.35466 0.4978 0.0
C713 C 0.35596 0.30563 0.56397 0.0
O714 O 0.37168 0.32197 0.56943 0.0
H715 H 0.3725 0.31358 0.52589 0.0
H716 H 0.35618 0.37432 0.51136 0.0
O717 O 0.31094 0.3363 0.52496 0.0
H718 H 0.33283 0.40076 0.58866 0.0
H719 H 0.38207 0.36277 0.4837 0.0
Cu720 Cu 0.79371 0.55658 0.77858 0.0
N721 N 0.79611 0.57659 0.7575 0.0
N722 N 0.80987 0.60502 0.73929 0.0
C723 C 0.81341 0.59248 0.75538 0.0
C724 C 0.78972 0.59627 0.73065 0.0
C725 C 0.78135 0.57875 0.74183 0.0
O726 O 0.79071 0.57155 0.80448 0.0
C727 C 0.81602 0.5267 0.76146 0.0
O728 O 0.79985 0.52801 0.74754 0.0
H729 H 0.82835 0.59474 0.76547 0.0
H730 H 0.76551 0.56848 0.73872 0.0
N731 N 0.76761 0.53633 0.77508 0.0
N732 N 0.74535 0.5048 0.77859 0.0
C733 C 0.76612 0.51587 0.78169 0.0
C734 C 0.74687 0.53844 0.76783 0.0
C735 C 0.73312 0.51885 0.76975 0.0
C736 C 0.79951 0.59065 0.81071 0.0
O737 O 0.81526 0.60154 0.8007 0.0
H738 H 0.78006 0.5093 0.78887 0.0
H739 H 0.74184 0.5533 0.76227 0.0
O740 O 0.81778 0.53898 0.77737 0.0
H741 H 0.78127 0.60244 0.71755 0.0
H742 H 0.7154 0.5155 0.76576 0.0
Cu743 Cu 0.30925 0.52258 0.76909 0.0
N744 N 0.33523 0.50978 0.7729 0.0
N745 N 0.35722 0.48633 0.78487 0.0
C746 C 0.33608 0.48983 0.78041 0.0
C747 C 0.37013 0.50476 0.77973 0.0
C748 C 0.35657 0.51916 0.77242 0.0
O749 O 0.28538 0.49997 0.75927 0.0
C750 C 0.31687 0.53927 0.80979 0.0
O751 O 0.33255 0.527 0.81164 0.0
H752 H 0.32144 0.47877 0.78396 0.0
H753 H 0.36193 0.53577 0.76834 0.0
N754 N 0.3107 0.54478 0.75002 0.0
N755 N 0.29948 0.57214 0.73239 0.0
C756 C 0.29388 0.55607 0.74547 0.0
C757 C 0.32755 0.55393 0.73933 0.0
C758 C 0.32069 0.57085 0.72849 0.0
C759 C 0.28635 0.49339 0.74106 0.0
O760 O 0.30294 0.50221 0.73072 0.0
H761 H 0.278 0.55288 0.7521 0.0
H762 H 0.3437 0.54883 0.73942 0.0
O763 O 0.30344 0.53704 0.794 0.0
H764 H 0.38809 0.508 0.78186 0.0
H765 H 0.33052 0.58127 0.71843 0.0
Cu766 Cu 0.3147 0.5146 0.29986 0.0
N767 N 0.31528 0.49917 0.32381 0.0
N768 N 0.30205 0.47284 0.3443 0.0
C769 C 0.30312 0.47939 0.32503 0.0
C770 C 0.31411 0.48916 0.35581 0.0
C771 C 0.32242 0.50541 0.34306 0.0
O772 O 0.31269 0.49269 0.27802 0.0
C773 C 0.29467 0.54749 0.31408 0.0
O774 O 0.31392 0.55016 0.32473 0.0
H775 H 0.29367 0.47074 0.31211 0.0
H776 H 0.33178 0.52111 0.34763 0.0
N777 N 0.34007 0.53478 0.29637 0.0
N778 N 0.35937 0.56415 0.28349 0.0
C779 C 0.33915 0.55246 0.28514 0.0
C780 C 0.36177 0.53518 0.30209 0.0
C781 C 0.3738 0.55333 0.29398 0.0
C782 C 0.32848 0.48133 0.27926 0.0
O783 O 0.34397 0.48573 0.2942 0.0
H784 H 0.32386 0.55638 0.27783 0.0
H785 H 0.3684 0.52305 0.31118 0.0
O786 O 0.29025 0.53162 0.3012 0.0
H787 H 0.31595 0.4897 0.37224 0.0
H788 H 0.39165 0.5582 0.29569 0.0
Cu789 Cu 0.80341 0.50405 0.29152 0.0
N790 N 0.82787 0.4897 0.29684 0.0
N791 N 0.84584 0.46212 0.30553 0.0
C792 C 0.82597 0.46835 0.30055 0.0
C793 C 0.86092 0.48035 0.30492 0.0
C794 C 0.84977 0.49736 0.29942 0.0
O795 O 0.781 0.48373 0.27641 0.0
C796 C 0.80555 0.51885 0.332 0.0
O797 O 0.82274 0.50862 0.33506 0.0
H798 H 0.81012 0.45777 0.30041 0.0
H799 H 0.85705 0.51418 0.29799 0.0
N800 N 0.80994 0.52975 0.27751 0.0
N801 N 0.80111 0.5593 0.26212 0.0
C802 C 0.79577 0.53762 0.26401 0.0
C803 C 0.82469 0.54711 0.28436 0.0
C804 C 0.8193 0.56537 0.27487 0.0
C805 C 0.783 0.47864 0.25797 0.0
O806 O 0.79962 0.48876 0.24844 0.0
H807 H 0.78055 0.52811 0.25736 0.0
H808 H 0.83705 0.54688 0.29688 0.0
O809 O 0.79238 0.51371 0.31633 0.0
H810 H 0.87866 0.48136 0.30841 0.0
H811 H 0.8273 0.58195 0.27796 0.0
Cu812 Cu 0.54245 0.25864 0.77204 0.0
N813 N 0.52702 0.2592 0.79565 0.0
N814 N 0.50139 0.26646 0.81629 0.0
C815 C 0.51087 0.27124 0.79871 0.0
C816 C 0.51213 0.25102 0.82471 0.0
C817 C 0.52798 0.24665 0.81201 0.0
O818 O 0.52046 0.25779 0.74911 0.0
C819 C 0.57861 0.28422 0.79012 0.0
O820 O 0.57465 0.26857 0.80311 0.0
H821 H 0.50544 0.28245 0.78777 0.0
H822 H 0.53908 0.2348 0.81434 0.0
N823 N 0.55593 0.23369 0.76988 0.0
N824 N 0.57903 0.21144 0.76 0.0
C825 C 0.57417 0.23193 0.75989 0.0
C826 C 0.54895 0.21368 0.77652 0.0
C827 C 0.56317 0.19998 0.77056 0.0
C828 C 0.50299 0.24403 0.75088 0.0
O829 O 0.50164 0.23194 0.76699 0.0
H830 H 0.58328 0.24533 0.75224 0.0
H831 H 0.53433 0.20924 0.78483 0.0
O832 O 0.56601 0.28354 0.77384 0.0
H833 H 0.50854 0.24324 0.83891 0.0
H834 H 0.56186 0.18289 0.77385 0.0
Cu835 Cu 0.53474 0.78375 0.81014 0.0
N836 N 0.55212 0.78149 0.83429 0.0
N837 N 0.57843 0.77052 0.85522 0.0
C838 C 0.57082 0.77239 0.83574 0.0
C839 C 0.56391 0.77883 0.86649 0.0
C840 C 0.54771 0.78562 0.85352 0.0
O841 O 0.55393 0.78474 0.78788 0.0
C842 C 0.51072 0.74128 0.81552 0.0
O843 O 0.52962 0.73662 0.82368 0.0
H844 H 0.57797 0.76612 0.82274 0.0
H845 H 0.53329 0.79233 0.8578 0.0
N846 N 0.52171 0.80895 0.80921 0.0
N847 N 0.49976 0.83213 0.79696 0.0
C848 C 0.50541 0.81208 0.7953 0.0
C849 C 0.52666 0.82765 0.82019 0.0
C850 C 0.51315 0.84203 0.81262 0.0
C851 C 0.5711 0.7993 0.78945 0.0
O852 O 0.57453 0.81227 0.80561 0.0
H853 H 0.49844 0.80005 0.78367 0.0
H854 H 0.53947 0.83075 0.8325 0.0
O855 O 0.51023 0.75981 0.80779 0.0
H856 H 0.56465 0.77951 0.88291 0.0
H857 H 0.5133 0.85851 0.81814 0.0
Cu858 Cu 0.54264 0.75716 0.29484 0.0
N859 N 0.52304 0.75584 0.31559 0.0
N860 N 0.49438 0.76382 0.33225 0.0
C861 C 0.50529 0.76635 0.31511 0.0
C862 C 0.50579 0.75116 0.34405 0.0
C863 C 0.52343 0.74618 0.33368 0.0
O864 O 0.5244 0.75992 0.26998 0.0
C865 C 0.57843 0.78162 0.31631 0.0
O866 O 0.57398 0.76566 0.3289 0.0
H867 H 0.50084 0.77618 0.30256 0.0
H868 H 0.53578 0.73644 0.33905 0.0
N869 N 0.55719 0.73285 0.29286 0.0
N870 N 0.58415 0.71414 0.28484 0.0
C871 C 0.57814 0.73396 0.28723 0.0
C872 C 0.54954 0.71151 0.29416 0.0
C873 C 0.56614 0.6999 0.28917 0.0
C874 C 0.52573 0.75003 0.25321 0.0
O875 O 0.54229 0.73913 0.25116 0.0
H876 H 0.58837 0.74911 0.28393 0.0
H877 H 0.53288 0.70487 0.29782 0.0
O878 O 0.56588 0.78188 0.30012 0.0
H879 H 0.50166 0.7458 0.35902 0.0
H880 H 0.56491 0.68238 0.2885 0.0
Cu881 Cu 0.52671 0.26599 0.2847 0.0
N882 N 0.51703 0.26605 0.31091 0.0
N883 N 0.49571 0.25705 0.33671 0.0
C884 C 0.4973 0.25592 0.31639 0.0
C885 C 0.51535 0.26851 0.34415 0.0
C886 C 0.52846 0.27386 0.32825 0.0
O887 O 0.5005 0.26554 0.26552 0.0
C888 C 0.54789 0.22914 0.2958 0.0
O889 O 0.53259 0.2251 0.30887 0.0
H890 H 0.48487 0.24709 0.30563 0.0
H891 H 0.54543 0.28217 0.32937 0.0
N892 N 0.54558 0.29155 0.27985 0.0
N893 N 0.57042 0.31378 0.26374 0.0
C894 C 0.55647 0.29476 0.26286 0.0
C895 C 0.55268 0.30929 0.29184 0.0
C896 C 0.5682 0.32299 0.28196 0.0
C897 C 0.49133 0.28263 0.26675 0.0
O898 O 0.49975 0.29765 0.2805 0.0
H899 H 0.5549 0.28292 0.25047 0.0
H900 H 0.54729 0.31196 0.30679 0.0
O901 O 0.54598 0.24357 0.28253 0.0
H902 H 0.52025 0.2725 0.35996 0.0
H903 H 0.57733 0.33838 0.28777 0.0
H904 H 0.24051 0.19349 0.15264 0.0
H905 H 0.24439 0.12493 0.14791 0.0
H906 H 0.26601 0.1312 0.11827 0.0
H907 H 0.2836 0.15629 0.093 0.0
H908 H 0.27649 0.22394 0.09645 0.0
H909 H 0.25596 0.21782 0.1268 0.0
C910 C 0.24567 0.17976 0.14501 0.0
C911 C 0.24074 0.15876 0.15281 0.0
C912 C 0.25751 0.18333 0.12752 0.0
C913 C 0.24821 0.1414 0.14273 0.0
C914 C 0.26046 0.14491 0.12557 0.0
C915 C 0.27744 0.16957 0.10045 0.0
C916 C 0.28138 0.1905 0.09244 0.0
C917 C 0.26522 0.16582 0.11779 0.0
C918 C 0.27335 0.20765 0.10215 0.0
C919 C 0.26172 0.20417 0.11958 0.0
H920 H 0.88232 0.2397 0.11147 0.0
H921 H 0.87594 0.18457 0.07022 0.0
H922 H 0.85138 0.20176 0.04655 0.0
H923 H 0.83477 0.23433 0.03638 0.0
H924 H 0.84362 0.29004 0.07741 0.0
H925 H 0.86385 0.2708 0.10251 0.0
C926 C 0.87521 0.23138 0.09741 0.0
C927 C 0.88069 0.21107 0.09241 0.0
C928 C 0.86164 0.24155 0.08385 0.0
C929 C 0.87172 0.20029 0.07423 0.0
C930 C 0.85779 0.21014 0.06074 0.0
C931 C 0.84077 0.24199 0.05099 0.0
C932 C 0.83783 0.26356 0.05507 0.0
C933 C 0.85302 0.23101 0.06519 0.0
C934 C 0.84587 0.27349 0.07392 0.0
C935 C 0.85745 0.26253 0.08827 0.0
H936 H 0.87341 0.85477 0.1419 0.0
H937 H 0.81361 0.84519 0.17394 0.0
H938 H 0.79278 0.82682 0.14389 0.0
H939 H 0.79248 0.8104 0.10957 0.0
H940 H 0.85216 0.82114 0.0772 0.0
H941 H 0.87191 0.84235 0.10606 0.0
C942 C 0.85574 0.84891 0.14216 0.0
C943 C 0.84508 0.8512 0.16014 0.0
C944 C 0.84384 0.83849 0.12476 0.0
C945 C 0.82216 0.84371 0.16025 0.0
C946 C 0.81027 0.83309 0.1431 0.0
C947 C 0.80969 0.8177 0.10867 0.0
C948 C 0.8208 0.81393 0.09122 0.0
C949 C 0.82105 0.82995 0.1254 0.0
C950 C 0.8431 0.8237 0.09035 0.0
C951 C 0.85451 0.83575 0.10695 0.0
H952 H 0.16416 0.80362 0.10787 0.0
H953 H 0.22201 0.80416 0.14924 0.0
H954 H 0.23348 0.77468 0.12949 0.0
H955 H 0.22855 0.75097 0.09896 0.0
H956 H 0.17132 0.75124 0.05685 0.0
H957 H 0.15774 0.77766 0.07856 0.0
C958 C 0.17907 0.79697 0.11262 0.0
C959 C 0.19233 0.80584 0.12981 0.0
C960 C 0.18563 0.7802 0.10107 0.0
C961 C 0.21164 0.79738 0.13598 0.0
C962 C 0.2182 0.78062 0.12469 0.0
C963 C 0.21304 0.75672 0.09461 0.0
C964 C 0.20112 0.74927 0.0762 0.0
C965 C 0.20557 0.77224 0.10696 0.0
C966 C 0.1808 0.75655 0.07097 0.0
C967 C 0.1731 0.77184 0.0833 0.0
H968 H 0.24007 0.8455 0.95428 0.0
H969 H 0.25188 0.79689 0.911 0.0
H970 H 0.25809 0.77209 0.93863 0.0
H971 H 0.26063 0.76462 0.97515 0.0
H972 H 0.24814 0.81319 1.01843 0.0
H973 H 0.24193 0.83775 0.99083 0.0
C974 C 0.24375 0.82936 0.951 0.0
C975 C 0.24533 0.82276 0.93082 0.0
C976 C 0.24744 0.81536 0.96695 0.0
C977 C 0.25037 0.80205 0.92652 0.0
C978 C 0.25405 0.78799 0.9423 0.0
C979 C 0.25674 0.78065 0.97857 0.0
C980 C 0.25503 0.78713 0.99886 0.0
C981 C 0.2528 0.79455 0.96259 0.0
C982 C 0.24964 0.80783 1.00297 0.0
C983 C 0.24601 0.82186 0.98719 0.0
H984 H 0.25146 0.22949 0.91148 0.0
H985 H 0.23713 0.15953 0.91451 0.0
H986 H 0.24523 0.16199 0.9512 0.0
H987 H 0.25881 0.18372 0.98208 0.0
H988 H 0.27235 0.25363 0.97935 0.0
H989 H 0.26116 0.25146 0.94301 0.0
C990 C 0.24963 0.21475 0.92014 0.0
C991 C 0.24397 0.19431 0.91001 0.0
C992 C 0.254 0.21627 0.94136 0.0
C993 C 0.24202 0.17546 0.92166 0.0
C994 C 0.24644 0.17685 0.94273 0.0
C995 C 0.25892 0.19852 0.97362 0.0
C996 C 0.26652 0.2188 0.98344 0.0
C997 C 0.25281 0.19713 0.95268 0.0
C998 C 0.26645 0.23782 0.97226 0.0
C999 C 0.26027 0.23657 0.9514 0.0
H1000 H 0.86228 0.23763 0.88543 0.0
H1001 H 0.8687 0.18718 0.92835 0.0
H1002 H 0.867 0.21271 0.95659 0.0
H1003 H 0.86069 0.24853 0.9688 0.0
H1004 H 0.85312 0.29891 0.92601 0.0
H1005 H 0.85883 0.27461 0.89806 0.0
C1006 C 0.8636 0.23244 0.90102 0.0
C1007 C 0.86555 0.2107 0.905 0.0
C1008 C 0.8624 0.24719 0.91715 0.0
C1009 C 0.8672 0.20393 0.9251 0.0
C1010 C 0.86618 0.21848 0.94119 0.0
C1011 C 0.86046 0.25422 0.95337 0.0
C1012 C 0.85629 0.27545 0.94952 0.0
C1013 C 0.86332 0.24002 0.93737 0.0
C1014 C 0.85644 0.28273 0.92946 0.0
C1015 C 0.85949 0.26875 0.91343 0.0
H1016 H 0.85889 0.82444 0.91586 0.0
H1017 H 0.92837 0.81739 0.92218 0.0
H1018 H 0.92302 0.80053 0.95495 0.0
H1019 H 0.89838 0.7875 0.98203 0.0
H1020 H 0.82975 0.79698 0.97625 0.0
H1021 H 0.83512 0.81363 0.9434 0.0
C1022 C 0.87304 0.81964 0.9245 0.0
C1023 C 0.89399 0.82219 0.91634 0.0
C1024 C 0.87 0.81042 0.94358 0.0
C1025 C 0.91191 0.81532 0.92776 0.0
C1026 C 0.90893 0.80579 0.94664 0.0
C1027 C 0.88472 0.79333 0.97353 0.0
C1028 C 0.86378 0.79119 0.98159 0.0
C1029 C 0.88801 0.80315 0.95467 0.0
C1030 C 0.84612 0.7988 0.97052 0.0
C1031 C 0.84915 0.80819 0.95167 0.0
H1032 H 0.13469 0.15576 0.22691 0.0
H1033 H 0.1767 0.21805 0.23283 0.0
H1034 H 0.15161 0.23111 0.25597 0.0
H1035 H 0.11655 0.22545 0.27305 0.0
H1036 H 0.07452 0.16309 0.26743 0.0
H1037 H 0.10066 0.14935 0.24591 0.0
C1038 C 0.13846 0.17203 0.2336 0.0
C1039 C 0.15753 0.18593 0.2284 0.0
C1040 C 0.12382 0.17947 0.24682 0.0
C1041 C 0.1622 0.20706 0.23686 0.0
C1042 C 0.14778 0.21456 0.24997 0.0
C1043 C 0.11313 0.20887 0.2671 0.0
C1044 C 0.0935 0.19539 0.27176 0.0
C1045 C 0.12833 0.20104 0.25479 0.0
C1046 C 0.08953 0.17379 0.26421 0.0
C1047 C 0.10445 0.16594 0.25181 0.0
H1048 H 0.88897 0.14078 0.19098 0.0
H1049 H 0.84648 0.17554 0.15324 0.0
H1050 H 0.8136 0.15217 0.16409 0.0
H1051 H 0.79697 0.12254 0.18511 0.0
H1052 H 0.83984 0.08769 0.22244 0.0
H1053 H 0.87245 0.11075 0.21129 0.0
C1054 C 0.8725 0.14335 0.18524 0.0
C1055 C 0.87017 0.15995 0.17142 0.0
C1056 C 0.85372 0.12994 0.19159 0.0
C1057 C 0.84873 0.16278 0.1638 0.0
C1058 C 0.82993 0.1495 0.17007 0.0
C1059 C 0.81342 0.11983 0.19066 0.0
C1060 C 0.81582 0.10345 0.20475 0.0
C1061 C 0.83222 0.13307 0.18403 0.0
C1062 C 0.83736 0.10039 0.21192 0.0
C1063 C 0.85609 0.11349 0.20543 0.0
H1064 H 0.92661 0.87217 0.22668 0.0
H1065 H 0.8891 0.81123 0.20374 0.0
H1066 H 0.9172 0.79168 0.21974 0.0
H1067 H 0.95143 0.79167 0.24183 0.0
H1068 H 0.98868 0.85272 0.26491 0.0
H1069 H 0.96139 0.87224 0.24779 0.0
C1070 C 0.92451 0.85459 0.22521 0.0
C1071 C 0.90563 0.84326 0.21401 0.0
C1072 C 0.94059 0.84338 0.23473 0.0
C1073 C 0.90351 0.82049 0.21201 0.0
C1074 C 0.91952 0.80924 0.22134 0.0
C1075 C 0.95379 0.80925 0.24297 0.0
C1076 C 0.97219 0.82058 0.25488 0.0
C1077 C 0.93801 0.82049 0.23293 0.0
C1078 C 0.97461 0.84342 0.25624 0.0
C1079 C 0.95904 0.85467 0.2463 0.0
H1080 H 0.2138 0.88728 0.21004 0.0
H1081 H 0.14484 0.88934 0.21906 0.0
H1082 H 0.15553 0.91991 0.24332 0.0
H1083 H 0.1847 0.94537 0.26271 0.0
H1084 H 0.25368 0.94169 0.25465 0.0
H1085 H 0.2428 0.91269 0.22924 0.0
C1086 C 0.20114 0.89468 0.21709 0.0
C1087 C 0.1786 0.88622 0.21273 0.0
C1088 C 0.20742 0.9119 0.23131 0.0
C1089 C 0.16232 0.89564 0.22224 0.0
C1090 C 0.16843 0.91305 0.23612 0.0
C1091 C 0.19733 0.93813 0.25551 0.0
C1092 C 0.21998 0.94592 0.26057 0.0
C1093 C 0.19096 0.92115 0.24099 0.0
C1094 C 0.23612 0.93642 0.25086 0.0
C1095 C 0.22993 0.91969 0.23636 0.0
H1096 H 0.17283 0.84029 0.82933 0.0
H1097 H 0.16599 0.82068 0.8913 0.0
H1098 H 0.13174 0.79605 0.88053 0.0
H1099 H 0.10322 0.78098 0.85353 0.0
H1100 H 0.1094 0.80304 0.79218 0.0
H1101 H 0.14409 0.82659 0.80295 0.0
C1102 C 0.16372 0.83097 0.84065 0.0
C1103 C 0.17191 0.83264 0.86119 0.0
C1104 C 0.14378 0.81749 0.83448 0.0
C1105 C 0.1602 0.8197 0.87539 0.0
C1106 C 0.14051 0.80575 0.86926 0.0
C1107 C 0.11212 0.79102 0.84253 0.0
C1108 C 0.1037 0.79025 0.82206 0.0
C1109 C 0.13204 0.80467 0.84886 0.0
C1110 C 0.1154 0.80339 0.80803 0.0
C1111 C 0.13531 0.81678 0.81415 0.0
H1112 H 0.2817 0.153 0.85897 0.0
H1113 H 0.21861 0.15202 0.82473 0.0
H1114 H 0.22553 0.1215 0.80408 0.0
H1115 H 0.24903 0.09533 0.79539 0.0
H1116 H 0.31211 0.09452 0.82896 0.0
H1117 H 0.30565 0.12543 0.85021 0.0
C1118 C 0.26946 0.14599 0.84706 0.0
C1119 C 0.24976 0.15507 0.84326 0.0
C1120 C 0.27355 0.12817 0.83507 0.0
C1121 C 0.23409 0.14575 0.82774 0.0
C1122 C 0.23798 0.12818 0.81596 0.0
C1123 C 0.26151 0.10183 0.80731 0.0
C1124 C 0.28109 0.09257 0.81048 0.0
C1125 C 0.25764 0.11937 0.81939 0.0
C1126 C 0.29691 0.10132 0.82611 0.0
C1127 C 0.29318 0.11899 0.83829 0.0
H1128 H 0.93577 0.19275 0.81381 0.0
H1129 H 0.94007 0.20532 0.87856 0.0
H1130 H 0.97294 0.23256 0.87576 0.0
H1131 H 0.99931 0.25396 0.8548 0.0
H1132 H 0.9955 0.24121 0.79011 0.0
H1133 H 0.96387 0.21246 0.79311 0.0
C1134 C 0.94411 0.20118 0.82736 0.0
C1135 C 0.93532 0.19713 0.84634 0.0
C1136 C 0.96308 0.21677 0.82566 0.0
C1137 C 0.94622 0.2084 0.86371 0.0
C1138 C 0.96509 0.2239 0.86215 0.0
C1139 C 0.99168 0.24481 0.84136 0.0
C1140 C 0.99965 0.24984 0.82225 0.0
C1141 C 0.97346 0.22843 0.84317 0.0
C1142 C 0.98968 0.23768 0.80501 0.0
C1143 C 0.97154 0.22129 0.8067 0.0
H1144 H 0.84073 0.90854 0.84403 0.0
H1145 H 0.89309 0.8894 0.81058 0.0
H1146 H 0.88533 0.91453 0.78362 0.0
H1147 H 0.86408 0.94219 0.77002 0.0
H1148 H 0.81165 0.96166 0.80343 0.0
H1149 H 0.81896 0.93611 0.83004 0.0
C1150 C 0.85033 0.90987 0.83075 0.0
C1151 C 0.8674 0.89722 0.82911 0.0
C1152 C 0.84578 0.9244 0.81543 0.0
C1153 C 0.87985 0.89899 0.81202 0.0
C1154 C 0.87541 0.91336 0.79668 0.0
C1155 C 0.85418 0.94091 0.7831 0.0
C1156 C 0.83732 0.95396 0.7847 0.0
C1157 C 0.85849 0.92621 0.79828 0.0
C1158 C 0.8247 0.95191 0.80178 0.0
C1159 C 0.82889 0.93728 0.817 0.0
H1160 H 0.25957 0.1208 0.21411 0.0
H1161 H 0.18906 0.10896 0.22235 0.0
H1162 H 0.19428 0.07876 0.2441 0.0
H1163 H 0.2184 0.05551 0.2606 0.0
H1164 H 0.28859 0.06551 0.25164 0.0
H1165 H 0.28375 0.09616 0.22968 0.0
C1166 C 0.24526 0.11151 0.22045 0.0
C1167 C 0.22393 0.11748 0.21661 0.0
C1168 C 0.24826 0.09365 0.23262 0.0
C1169 C 0.20575 0.10528 0.22533 0.0
C1170 C 0.20866 0.08777 0.23762 0.0
C1171 C 0.23271 0.06431 0.25382 0.0
C1172 C 0.25386 0.05825 0.25782 0.0
C1173 C 0.22979 0.08183 0.24135 0.0
C1174 C 0.27212 0.06975 0.24874 0.0
C1175 C 0.26935 0.08736 0.23629 0.0
H1176 H 0.23777 0.92334 0.87211 0.0
H1177 H 0.20405 0.88579 0.82041 0.0
H1178 H 0.21059 0.91732 0.79918 0.0
H1179 H 0.22702 0.95517 0.79475 0.0
H1180 H 0.26319 0.99227 0.84531 0.0
H1181 H 0.25491 0.96126 0.86746 0.0
C1182 C 0.232 0.922 0.85617 0.0
C1183 C 0.22019 0.90221 0.84802 0.0
C1184 C 0.23631 0.94011 0.84381 0.0
C1185 C 0.21269 0.90089 0.82731 0.0
C1186 C 0.21658 0.91889 0.81505 0.0
C1187 C 0.2328 0.95651 0.81069 0.0
C1188 C 0.24551 0.97592 0.81849 0.0
C1189 C 0.22839 0.93854 0.82311 0.0
C1190 C 0.25339 0.97738 0.83904 0.0
C1191 C 0.24865 0.9597 0.85166 0.0
H1192 H 0.19357 0.27177 0.86025 0.0
H1193 H 0.15991 0.20907 0.83817 0.0
H1194 H 0.12445 0.22306 0.83486 0.0
H1195 H 0.10364 0.25383 0.83592 0.0
H1196 H 0.13711 0.31674 0.85774 0.0
H1197 H 0.17191 0.30205 0.8638 0.0
C1198 C 0.17833 0.26118 0.85508 0.0
C1199 C 0.1791 0.23947 0.84952 0.0
C1200 C 0.15806 0.26943 0.85305 0.0
C1201 C 0.15949 0.22581 0.84265 0.0
C1202 C 0.13929 0.23384 0.84065 0.0
C1203 C 0.11855 0.26429 0.84205 0.0
C1204 C 0.11783 0.28639 0.84618 0.0
C1205 C 0.13847 0.25573 0.84541 0.0
C1206 C 0.13718 0.29966 0.85451 0.0
C1207 C 0.15712 0.29129 0.85787 0.0
H1208 H 0.9 0.14025 0.79848 0.0
H1209 H 0.87082 0.10827 0.84997 0.0
H1210 H 0.86236 0.07413 0.83041 0.0
H1211 H 0.86216 0.05359 0.79852 0.0
H1212 H 0.89081 0.08516 0.74674 0.0
H1213 H 0.90135 0.119 0.76681 0.0
C1214 C 0.89204 0.12575 0.80551 0.0
C1215 C 0.88586 0.12694 0.82564 0.0
C1216 C 0.88727 0.10606 0.79417 0.0
C1217 C 0.87537 0.10799 0.83441 0.0
C1218 C 0.87066 0.08839 0.82328 0.0
C1219 C 0.87067 0.06788 0.79159 0.0
C1220 C 0.87546 0.06686 0.77107 0.0
C1221 C 0.8763 0.0873 0.8031 0.0
C1222 C 0.88701 0.08541 0.7625 0.0
C1223 C 0.89287 0.10483 0.77394 0.0
H1224 H 0.95713 0.8299 0.87069 0.0
H1225 H 0.90236 0.80985 0.82637 0.0
H1226 H 0.92488 0.78702 0.80875 0.0
H1227 H 0.95926 0.77035 0.80785 0.0
H1228 H 1.0143 0.79153 0.85158 0.0
H1229 H 0.99268 0.81632 0.86764 0.0
C1230 C 0.95033 0.82086 0.85691 0.0
C1231 C 0.92815 0.82153 0.8498 0.0
C1232 C 0.96333 0.80771 0.84702 0.0
C1233 C 0.91946 0.80976 0.83198 0.0
C1234 C 0.93226 0.79653 0.82207 0.0
C1235 C 0.96645 0.78044 0.82088 0.0
C1236 C 0.98821 0.77891 0.82879 0.0
C1237 C 0.95402 0.79493 0.82977 0.0
C1238 C 0.99758 0.79241 0.84536 0.0
C1239 C 0.98521 0.80654 0.85451 0.0
H1240 H 0.86373 0.95436 0.2299 0.0
H1241 H 0.80088 0.91699 0.20855 0.0
H1242 H 0.78212 0.94859 0.21434 0.0
H1243 H 0.78349 0.98618 0.22798 0.0
H1244 H 0.84672 0.02255 0.25048 0.0
H1245 H 0.86542 0.99217 0.24173 0.0
C1246 C 0.84598 0.95334 0.22615 0.0
C1247 C 0.83366 0.93364 0.21859 0.0
C1248 C 0.83538 0.97135 0.22996 0.0
C1249 C 0.81067 0.9322 0.21412 0.0
C1250 C 0.79997 0.9502 0.21758 0.0
C1251 C 0.80139 0.98753 0.23075 0.0
C1252 C 0.81364 1.00667 0.23998 0.0
C1253 C 0.81211 0.96978 0.22586 0.0
C1254 C 0.83681 1.00804 0.24354 0.0
C1255 C 0.84757 0.99065 0.23851 0.0
H1256 H 0.11151 0.81058 0.18222 0.0
H1257 H 0.16345 0.80747 0.22924 0.0
H1258 H 0.13725 0.78499 0.24947 0.0
H1259 H 0.09863 0.77278 0.25648 0.0
H1260 H 0.04586 0.77686 0.21059 0.0
H1261 H 0.07321 0.79203 0.18693 0.0
C1262 C 0.11712 0.80426 0.19656 0.0
C1263 C 0.13919 0.81066 0.20443 0.0
C1264 C 0.10175 0.79189 0.20838 0.0
C1265 C 0.14645 0.80267 0.22305 0.0
C1266 C 0.13147 0.78999 0.23464 0.0
C1267 C 0.09323 0.77644 0.24107 0.0
C1268 C 0.07045 0.77408 0.23523 0.0
C1269 C 0.10893 0.78548 0.2279 0.0
C1270 C 0.06343 0.77859 0.21529 0.0
C1271 C 0.07904 0.78743 0.20188 0.0
H1272 H 0.92064 0.2122 0.21172 0.0
H1273 H 0.97201 0.20238 0.17226 0.0
H1274 H 1.00053 0.21708 0.19875 0.0
H1275 H 1.01092 0.22994 0.2343 0.0
H1276 H 0.95922 0.23582 0.27442 0.0
H1277 H 0.9308 0.22539 0.24661 0.0
C1278 C 0.93806 0.21304 0.20891 0.0
C1279 C 0.94407 0.20595 0.19002 0.0
C1280 C 0.95435 0.22089 0.22439 0.0
C1281 C 0.9668 0.20783 0.18656 0.0
C1282 C 0.98317 0.21613 0.20177 0.0
C1283 C 0.99343 0.22935 0.23673 0.0
C1284 C 0.98704 0.23382 0.2562 0.0
C1285 C 0.97715 0.22242 0.22085 0.0
C1286 C 0.96439 0.23254 0.25945 0.0
C1287 C 0.94818 0.22649 0.24361 0.0
H1288 H 0.221 0.70438 0.61851 0.0
H1289 H 0.28239 0.71441 0.65659 0.0
H1290 H 0.3016 0.73343 0.62951 0.0
H1291 H 0.30202 0.7445 0.59427 0.0
H1292 H 0.24144 0.73558 0.55554 0.0
H1293 H 0.22067 0.71956 0.58378 0.0
C1294 C 0.23849 0.71101 0.62101 0.0
C1295 C 0.25029 0.70739 0.63953 0.0
C1296 C 0.24956 0.72226 0.60528 0.0
C1297 C 0.27297 0.71623 0.64238 0.0
C1298 C 0.28399 0.72733 0.62693 0.0
C1299 C 0.28415 0.73945 0.59214 0.0
C1300 C 0.27322 0.74117 0.57293 0.0
C1301 C 0.27259 0.73001 0.60822 0.0
C1302 C 0.25012 0.73464 0.57029 0.0
C1303 C 0.23835 0.72525 0.58638 0.0
H1304 H 0.84856 0.79171 0.62427 0.0
H1305 H 0.83646 0.72226 0.63051 0.0
H1306 H 0.81734 0.71791 0.59638 0.0
H1307 H 0.80378 0.7341 0.5651 0.0
H1308 H 0.81541 0.80381 0.55926 0.0
H1309 H 0.83524 0.80789 0.59284 0.0
C1310 C 0.84162 0.77567 0.61808 0.0
C1311 C 0.84362 0.7573 0.62964 0.0
C1312 C 0.83078 0.77339 0.59855 0.0
C1313 C 0.83485 0.73656 0.62171 0.0
C1314 C 0.82404 0.7341 0.60224 0.0
C1315 C 0.81084 0.75018 0.57107 0.0
C1316 C 0.80818 0.76863 0.55964 0.0
C1317 C 0.82191 0.75242 0.59053 0.0
C1318 C 0.81724 0.78934 0.56771 0.0
C1319 C 0.82853 0.7917 0.58694 0.0
H1320 H 0.86922 0.35793 0.64857 0.0
H1321 H 0.8713 0.31175 0.69646 0.0
H1322 H 0.86151 0.28173 0.67169 0.0
H1323 H 0.85136 0.26838 0.63642 0.0
H1324 H 0.8489 0.31455 0.58862 0.0
H1325 H 0.85951 0.34458 0.61329 0.0
C1326 C 0.86736 0.34131 0.65364 0.0
C1327 C 0.87106 0.33724 0.67445 0.0
C1328 C 0.86159 0.32401 0.63927 0.0
C1329 C 0.86887 0.31549 0.68057 0.0
C1330 C 0.86315 0.29825 0.6664 0.0
C1331 C 0.8534 0.28498 0.63135 0.0
C1332 C 0.84923 0.2891 0.61061 0.0
C1333 C 0.85945 0.30228 0.64569 0.0
C1334 C 0.8517 0.31083 0.60446 0.0
C1335 C 0.85785 0.32806 0.61858 0.0
H1336 H 0.2581 0.33392 0.65738 0.0
H1337 H 0.22723 0.38716 0.63429 0.0
H1338 H 0.25887 0.39843 0.61377 0.0
H1339 H 0.29348 0.39071 0.59995 0.0
H1340 H 0.32347 0.33653 0.62212 0.0
H1341 H 0.29434 0.32816 0.64577 0.0
C1342 C 0.25855 0.34812 0.648 0.0
C1343 C 0.24057 0.35969 0.64705 0.0
C1344 C 0.27662 0.35428 0.63616 0.0
C1345 C 0.24104 0.37805 0.63501 0.0
C1346 C 0.25907 0.38446 0.62334 0.0
C1347 C 0.29393 0.37749 0.61039 0.0
C1348 C 0.31052 0.36423 0.60938 0.0
C1349 C 0.27675 0.37243 0.62348 0.0
C1350 C 0.31075 0.34687 0.62269 0.0
C1351 C 0.29408 0.34203 0.63609 0.0
H1352 H 0.21569 0.32932 0.46129 0.0
H1353 H 0.22249 0.39904 0.45868 0.0
H1354 H 0.2558 0.40274 0.48234 0.0
H1355 H 0.28338 0.38592 0.50292 0.0
H1356 H 0.27669 0.31595 0.50503 0.0
H1357 H 0.2429 0.3125 0.48244 0.0
C1358 C 0.22446 0.34527 0.46611 0.0
C1359 C 0.21686 0.36391 0.45858 0.0
C1360 C 0.24358 0.34718 0.4795 0.0
C1361 C 0.22818 0.38455 0.46457 0.0
C1362 C 0.24718 0.38662 0.47799 0.0
C1363 C 0.27451 0.36991 0.4985 0.0
C1364 C 0.28262 0.35123 0.50564 0.0
C1365 C 0.25511 0.36803 0.48544 0.0
C1366 C 0.27087 0.33062 0.49975 0.0
C1367 C 0.25153 0.32861 0.48683 0.0
H1368 H 0.24791 0.65128 0.41648 0.0
H1369 H 0.23092 0.71136 0.39311 0.0
H1370 H 0.24998 0.7311 0.4233 0.0
H1371 H 0.27376 0.73156 0.45525 0.0
H1372 H 0.29089 0.67116 0.47794 0.0
H1373 H 0.2701 0.65149 0.44883 0.0
C1374 C 0.24837 0.66872 0.41794 0.0
C1375 C 0.23814 0.67981 0.40237 0.0
C1376 C 0.25973 0.68 0.43511 0.0
C1377 C 0.2385 0.70234 0.40484 0.0
C1378 C 0.24959 0.71367 0.42204 0.0
C1379 C 0.27277 0.71408 0.454 0.0
C1380 C 0.2842 0.703 0.46886 0.0
C1381 C 0.2606 0.70272 0.43713 0.0
C1382 C 0.28276 0.6803 0.46669 0.0
C1383 C 0.27068 0.66895 0.45007 0.0
H1384 H 0.8079 0.66653 0.38908 0.0
H1385 H 0.81112 0.73466 0.37689 0.0
H1386 H 0.79424 0.74051 0.40872 0.0
H1387 H 0.78125 0.72675 0.44074 0.0
H1388 H 0.77763 0.65855 0.45347 0.0
H1389 H 0.79215 0.65216 0.42064 0.0
C1390 C 0.80456 0.68254 0.39337 0.0
C1391 C 0.81054 0.70018 0.38088 0.0
C1392 C 0.79502 0.68575 0.41174 0.0
C1393 C 0.80645 0.72092 0.38641 0.0
C1394 C 0.79689 0.72424 0.40457 0.0
C1395 C 0.78305 0.71034 0.43627 0.0
C1396 C 0.77828 0.69313 0.44968 0.0
C1397 C 0.79141 0.70683 0.41747 0.0
C1398 C 0.78136 0.67213 0.44358 0.0
C1399 C 0.78961 0.66845 0.42479 0.0
H1400 H 0.83373 0.30063 0.43325 0.0
H1401 H 0.90281 0.31039 0.45588 0.0
H1402 H 0.89182 0.30269 0.49009 0.0
H1403 H 0.86301 0.2917 0.51337 0.0
H1404 H 0.79385 0.28175 0.49152 0.0
H1405 H 0.80446 0.29211 0.45739 0.0
C1406 C 0.84642 0.30138 0.44567 0.0
C1407 C 0.86918 0.30587 0.44175 0.0
C1408 C 0.83996 0.29722 0.46552 0.0
C1409 C 0.88525 0.30647 0.45817 0.0
C1410 C 0.87897 0.30231 0.47784 0.0
C1411 C 0.85017 0.29212 0.50123 0.0
C1412 C 0.82765 0.28594 0.50503 0.0
C1413 C 0.85643 0.29748 0.48165 0.0
C1414 C 0.81128 0.28666 0.48911 0.0
C1415 C 0.81738 0.29231 0.46953 0.0
H1416 H 0.14307 0.66184 0.71445 0.0
H1417 H 0.18551 0.72367 0.72325 0.0
H1418 H 0.16199 0.73444 0.74908 0.0
H1419 H 0.12758 0.72735 0.76704 0.0
H1420 H 0.08483 0.66562 0.75791 0.0
H1421 H 0.11025 0.65357 0.73467 0.0
C1422 C 0.14737 0.67745 0.72241 0.0
C1423 C 0.16601 0.69193 0.71721 0.0
C1424 C 0.13357 0.6836 0.73705 0.0
C1425 C 0.17134 0.71223 0.72727 0.0
C1426 C 0.1578 0.71843 0.74191 0.0
C1427 C 0.1239 0.71123 0.76003 0.0
C1428 C 0.1042 0.6975 0.76413 0.0
C1429 C 0.13858 0.70444 0.74658 0.0
C1430 C 0.09989 0.67649 0.75518 0.0
C1431 C 0.11438 0.66963 0.74176 0.0
H1432 H 0.87398 0.69272 0.72983 0.0
H1433 H 0.84453 0.685 0.66833 0.0
H1434 H 0.82199 0.65086 0.67704 0.0
H1435 H 0.81077 0.62314 0.7022 0.0
H1436 H 0.8404 0.63155 0.76367 0.0
H1437 H 0.86322 0.66507 0.75466 0.0
C1438 C 0.86288 0.68345 0.71821 0.0
C1439 C 0.8611 0.69142 0.69841 0.0
C1440 C 0.85008 0.66383 0.72328 0.0
C1441 C 0.84616 0.67938 0.68373 0.0
C1442 C 0.83334 0.65978 0.68868 0.0
C1443 C 0.82213 0.63232 0.71366 0.0
C1444 C 0.82382 0.62461 0.7336 0.0
C1445 C 0.83512 0.65187 0.70843 0.0
C1446 C 0.83891 0.63673 0.74814 0.0
C1447 C 0.85189 0.65607 0.74304 0.0
H1448 H 0.90651 0.3361 0.74311 0.0
H1449 H 0.93452 0.40255 0.73273 0.0
H1450 H 0.9671 0.39895 0.75544 0.0
H1451 H 0.98906 0.37589 0.77585 0.0
H1452 H 0.96089 0.30938 0.786 0.0
H1453 H 0.92716 0.31396 0.76559 0.0
C1454 C 0.91971 0.34982 0.74589 0.0
C1455 C 0.91813 0.36951 0.73611 0.0
C1456 C 0.93852 0.34755 0.75875 0.0
C1457 C 0.93521 0.38725 0.74016 0.0
C1458 C 0.95394 0.38515 0.75303 0.0
C1459 C 0.97543 0.3625 0.77393 0.0
C1460 C 0.97775 0.3422 0.78229 0.0
C1461 C 0.95598 0.36524 0.76211 0.0
C1462 C 0.95984 0.32503 0.77943 0.0
C1463 C 0.94045 0.32766 0.76782 0.0
H1464 H 0.22544 0.42004 0.68763 0.0
H1465 H 0.20282 0.40158 0.74632 0.0
H1466 H 0.22693 0.43313 0.76221 0.0
H1467 H 0.25591 0.46503 0.75965 0.0
H1468 H 0.27962 0.48208 0.701 0.0
H1469 H 0.25385 0.45189 0.68499 0.0
C1470 C 0.22588 0.42282 0.70392 0.0
C1471 C 0.2124 0.40841 0.71574 0.0
C1472 C 0.24008 0.44071 0.71301 0.0
C1473 C 0.21284 0.41254 0.73679 0.0
C1474 C 0.22674 0.4305 0.74593 0.0
C1475 C 0.25529 0.46222 0.74335 0.0
C1476 C 0.26972 0.47573 0.73156 0.0
C1477 C 0.2406 0.44459 0.73422 0.0
C1478 C 0.2688 0.47183 0.71047 0.0
C1479 C 0.25405 0.45458 0.70126 0.0
H1480 H 0.13617 0.3616 0.35128 0.0
H1481 H 0.18628 0.31998 0.3584 0.0
H1482 H 0.16255 0.29139 0.33777 0.0
H1483 H 0.12585 0.27671 0.32171 0.0
H1484 H 0.07521 0.31783 0.31442 0.0
H1485 H 0.10088 0.34833 0.33071 0.0
C1486 C 0.142 0.34646 0.34776 0.0
C1487 C 0.16285 0.34275 0.35615 0.0
C1488 C 0.12811 0.33001 0.33608 0.0
C1489 C 0.17032 0.32309 0.35186 0.0
C1490 C 0.15671 0.30674 0.34021 0.0
C1491 C 0.12057 0.29247 0.32337 0.0
C1492 C 0.09863 0.29498 0.31715 0.0
C1493 C 0.13532 0.30977 0.33284 0.0
C1494 C 0.09205 0.31552 0.31911 0.0
C1495 C 0.10667 0.33291 0.32855 0.0
H1496 H 0.21977 0.60176 0.33693 0.0
H1497 H 0.27823 0.64884 0.35346 0.0
H1498 H 0.30178 0.62427 0.34076 0.0
H1499 H 0.30623 0.58896 0.32685 0.0
H1500 H 0.24872 0.54142 0.30928 0.0
H1501 H 0.22428 0.56686 0.31993 0.0
C1502 C 0.23763 0.60674 0.33752 0.0
C1503 C 0.24719 0.62703 0.34661 0.0
C1504 C 0.25124 0.59249 0.32995 0.0
C1505 C 0.2704 0.63315 0.34716 0.0
C1506 C 0.28392 0.61916 0.33973 0.0
C1507 C 0.28832 0.58416 0.3252 0.0
C1508 C 0.27929 0.56325 0.31751 0.0
C1509 C 0.27457 0.5987 0.33145 0.0
C1510 C 0.25607 0.55743 0.31514 0.0
C1511 C 0.24213 0.57193 0.32137 0.0
H1512 H 0.89084 0.69113 0.29843 0.0
H1513 H 0.92016 0.65488 0.34544 0.0
H1514 H 0.95674 0.665 0.33246 0.0
H1515 H 0.98082 0.68673 0.30973 0.0
H1516 H 0.95177 0.72405 0.26336 0.0
H1517 H 0.9147 0.71071 0.27397 0.0
C1518 C 0.90525 0.68544 0.3058 0.0
C1519 C 0.90282 0.67244 0.32297 0.0
C1520 C 0.92629 0.69149 0.29838 0.0
C1521 C 0.92156 0.66483 0.33214 0.0
C1522 C 0.9425 0.67068 0.32478 0.0
C1523 C 0.96638 0.69168 0.3017 0.0
C1524 C 0.96914 0.70654 0.2859 0.0
C1525 C 0.94513 0.68433 0.30815 0.0
C1526 C 0.95018 0.71271 0.27565 0.0
C1527 C 0.92895 0.70519 0.28177 0.0
H1528 H 0.84064 0.36501 0.33061 0.0
H1529 H 0.89494 0.39306 0.37259 0.0
H1530 H 0.89532 0.42854 0.35673 0.0
H1531 H 0.87739 0.4522 0.33312 0.0
H1532 H 0.82216 0.42385 0.29206 0.0
H1533 H 0.82489 0.38789 0.30522 0.0
C1534 C 0.85287 0.37883 0.33591 0.0
C1535 C 0.86789 0.37661 0.3525 0.0
C1536 C 0.85256 0.39915 0.32705 0.0
C1537 C 0.88343 0.39453 0.35962 0.0
C1538 C 0.88352 0.41478 0.35065 0.0
C1539 C 0.86627 0.43809 0.32681 0.0
C1540 C 0.84942 0.44075 0.31178 0.0
C1541 C 0.86778 0.41742 0.33467 0.0
C1542 C 0.83499 0.4223 0.30387 0.0
C1543 C 0.8366 0.40171 0.31134 0.0
H1544 H 0.2279 0.62692 0.69626 0.0
H1545 H 0.28637 0.67562 0.69575 0.0
H1546 H 0.30923 0.65026 0.71064 0.0
H1547 H 0.31307 0.61381 0.72284 0.0
H1548 H 0.25477 0.56524 0.72432 0.0
H1549 H 0.23148 0.59094 0.71037 0.0
C1550 C 0.24557 0.6321 0.69969 0.0
C1551 C 0.25536 0.65315 0.69459 0.0
C1552 C 0.25875 0.61737 0.70838 0.0
C1553 C 0.27838 0.65944 0.6991 0.0
C1554 C 0.29151 0.64494 0.70769 0.0
C1555 C 0.29529 0.60882 0.72002 0.0
C1556 C 0.28574 0.58754 0.7245 0.0
C1557 C 0.28197 0.62376 0.71211 0.0
C1558 C 0.26257 0.58152 0.72112 0.0
C1559 C 0.24923 0.59621 0.71307 0.0
H1560 H 0.23547 0.38723 0.35453 0.0
H1561 H 0.21564 0.42633 0.40252 0.0
H1562 H 0.24537 0.45579 0.39604 0.0
H1563 H 0.27604 0.47122 0.37568 0.0
H1564 H 0.2947 0.43295 0.32669 0.0
H1565 H 0.26649 0.40243 0.33455 0.0
C1566 C 0.23753 0.40226 0.36346 0.0
C1567 C 0.2233 0.40451 0.37898 0.0
C1568 C 0.25456 0.41927 0.35952 0.0
C1569 C 0.22648 0.42402 0.39062 0.0
C1570 C 0.24345 0.44093 0.38689 0.0
C1571 C 0.27417 0.45603 0.36704 0.0
C1572 C 0.28745 0.45421 0.35073 0.0
C1573 C 0.25755 0.43878 0.37134 0.0
C1574 C 0.2846 0.43463 0.33932 0.0
C1575 C 0.26845 0.41725 0.34376 0.0
H1576 H 0.15701 0.70181 0.31507 0.0
H1577 H 0.13874 0.68601 0.37549 0.0
H1578 H 0.10665 0.70543 0.37067 0.0
H1579 H 0.08225 0.72452 0.34806 0.0
H1580 H 0.10081 0.73956 0.28738 0.0
H1581 H 0.13412 0.72278 0.2934 0.0
C1582 C 0.1462 0.70304 0.3273 0.0
C1583 C 0.15023 0.69282 0.34568 0.0
C1584 C 0.12762 0.7138 0.32421 0.0
C1585 C 0.13602 0.69407 0.36132 0.0
C1586 C 0.11762 0.70502 0.35849 0.0
C1587 C 0.09371 0.72438 0.33626 0.0
C1588 C 0.08873 0.73308 0.31717 0.0
C1589 C 0.113 0.71461 0.33983 0.0
C1590 C 0.10383 0.73259 0.30203 0.0
C1591 C 0.12303 0.72312 0.30551 0.0
H1592 H 0.81181 0.61925 0.33782 0.0
H1593 H 0.87567 0.61278 0.36739 0.0
H1594 H 0.86434 0.57353 0.36918 0.0
H1595 H 0.83889 0.54097 0.35713 0.0
H1596 H 0.77586 0.54733 0.32564 0.0
H1597 H 0.78392 0.5867 0.33052 0.0
C1598 C 0.82299 0.60931 0.34519 0.0
C1599 C 0.84465 0.61879 0.35218 0.0
C1600 C 0.81655 0.58671 0.34571 0.0
C1601 C 0.85903 0.60574 0.36158 0.0
C1602 C 0.85255 0.58333 0.36262 0.0
C1603 C 0.8266 0.55087 0.35182 0.0
C1604 C 0.80704 0.54119 0.34061 0.0
C1605 C 0.83172 0.57356 0.35396 0.0
C1606 C 0.79121 0.55433 0.33409 0.0
C1607 C 0.79588 0.5769 0.33673 0.0
H1608 H 0.90958 0.29436 0.35631 0.0
H1609 H 0.94199 0.30537 0.41659 0.0
H1610 H 0.97429 0.29093 0.40549 0.0
H1611 H 0.99362 0.27515 0.37865 0.0
H1612 H 0.96169 0.26514 0.31821 0.0
H1613 H 0.92932 0.27961 0.32928 0.0
C1614 C 0.92379 0.2939 0.36701 0.0
C1615 C 0.9231 0.30091 0.38736 0.0
C1616 C 0.94255 0.28576 0.36046 0.0
C1617 C 0.9417 0.29978 0.40095 0.0
C1618 C 0.96033 0.29162 0.39458 0.0
C1619 C 0.97953 0.27601 0.36793 0.0
C1620 C 0.98018 0.269 0.34759 0.0
C1621 C 0.96091 0.28445 0.3744 0.0
C1622 C 0.96183 0.27059 0.33387 0.0
C1623 C 0.94322 0.27878 0.34023 0.0
H1624 H 0.87936 0.46395 0.73122 0.0
H1625 H 0.81845 0.41863 0.73139 0.0
H1626 H 0.80044 0.44604 0.74782 0.0
H1627 H 0.80059 0.48412 0.75806 0.0
H1628 H 0.86103 0.53001 0.75837 0.0
H1629 H 0.88085 0.50129 0.7462 0.0
C1630 C 0.86234 0.46002 0.73537 0.0
C1631 C 0.85017 0.43935 0.7302 0.0
C1632 C 0.85202 0.47603 0.74475 0.0
C1633 C 0.8281 0.43441 0.73538 0.0
C1634 C 0.81778 0.45011 0.74467 0.0
C1635 C 0.81827 0.48764 0.75598 0.0
C1636 C 0.82941 0.50904 0.75916 0.0
C1637 C 0.82936 0.47114 0.74886 0.0
C1638 C 0.85223 0.51356 0.75628 0.0
C1639 C 0.86346 0.49718 0.74912 0.0
H1640 H 0.14794 0.32304 0.71738 0.0
H1641 H 0.13025 0.38643 0.70611 0.0
H1642 H 0.09485 0.37588 0.72128 0.0
H1643 H 0.07086 0.35003 0.74069 0.0
H1644 H 0.08961 0.28741 0.75414 0.0
H1645 H 0.12245 0.29606 0.73481 0.0
C1646 C 0.13611 0.33436 0.71795 0.0
C1647 C 0.14163 0.35549 0.71079 0.0
C1648 C 0.11606 0.32834 0.72713 0.0
C1649 C 0.12635 0.37014 0.71175 0.0
C1650 C 0.10615 0.36411 0.72038 0.0
C1651 C 0.08189 0.33809 0.7391 0.0
C1652 C 0.07786 0.31816 0.74895 0.0
C1653 C 0.10109 0.34344 0.72856 0.0
C1654 C 0.0924 0.30293 0.74678 0.0
C1655 C 0.11122 0.30789 0.7358 0.0
H1656 H 0.94314 0.71604 0.69337 0.0
H1657 H 0.92693 0.77282 0.72351 0.0
H1658 H 0.96472 0.78059 0.73977 0.0
H1659 H 1.00118 0.76926 0.74766 0.0
H1660 H 1.01718 0.71228 0.7174 0.0
H1661 H 0.98087 0.70687 0.69857 0.0
C1662 C 0.948 0.73015 0.70344 0.0
C1663 C 0.93234 0.74369 0.7075 0.0
C1664 C 0.96971 0.73454 0.7126 0.0
C1665 C 0.93879 0.76216 0.72026 0.0
C1666 C 0.96034 0.76658 0.72954 0.0
C1667 C 0.99695 0.75596 0.7366 0.0
C1668 C 1.01182 0.74107 0.73411 0.0
C1669 C 0.97584 0.75267 0.72609 0.0
C1670 C 1.006 0.72389 0.71973 0.0
C1671 C 0.98517 0.72069 0.70903 0.0
H1672 H 0.7382 0.20539 0.65968 0.0
H1673 H 0.71966 0.14073 0.63344 0.0
H1674 H 0.72707 0.15449 0.59984 0.0
H1675 H 0.74344 0.18375 0.57868 0.0
H1676 H 0.76278 0.24851 0.6042 0.0
H1677 H 0.74985 0.23608 0.63706 0.0
C1678 C 0.73528 0.19442 0.64653 0.0
C1679 C 0.72875 0.17193 0.6492 0.0
C1680 C 0.7398 0.20247 0.62709 0.0
C1681 C 0.7251 0.15798 0.63194 0.0
C1682 C 0.72929 0.16586 0.61268 0.0
C1683 C 0.74432 0.19529 0.5913 0.0
C1684 C 0.75415 0.217 0.589 0.0
C1685 C 0.73735 0.1879 0.61018 0.0
C1686 C 0.7551 0.23176 0.60547 0.0
C1687 C 0.74795 0.22457 0.62435 0.0
H1688 H 0.34879 0.20703 0.58748 0.0
H1689 H 0.41532 0.22955 0.61313 0.0
H1690 H 0.41292 0.26631 0.60122 0.0
H1691 H 0.39136 0.29203 0.58433 0.0
H1692 H 0.32464 0.26932 0.55865 0.0
H1693 H 0.32756 0.2326 0.56976 0.0
C1694 C 0.36277 0.22003 0.59021 0.0
C1695 C 0.38223 0.21589 0.60093 0.0
C1696 C 0.36114 0.24101 0.58347 0.0
C1697 C 0.40027 0.2326 0.60471 0.0
C1698 C 0.39884 0.25354 0.59799 0.0
C1699 C 0.37744 0.27906 0.58118 0.0
C1700 C 0.35777 0.28344 0.57077 0.0
C1701 C 0.37927 0.25797 0.58752 0.0
C1702 C 0.33996 0.26641 0.56667 0.0
C1703 C 0.34161 0.2454 0.573 0.0
H1704 H 0.35525 0.84649 0.65384 0.0
H1705 H 0.42416 0.83785 0.65612 0.0
H1706 H 0.41724 0.81617 0.62447 0.0
H1707 H 0.39162 0.79974 0.59604 0.0
H1708 H 0.32225 0.80715 0.59487 0.0
H1709 H 0.32949 0.8294 0.6258 0.0
C1710 C 0.36878 0.83999 0.64732 0.0
C1711 C 0.3902 0.84385 0.65735 0.0
C1712 C 0.36464 0.82733 0.62919 0.0
C1713 C 0.40748 0.83502 0.64882 0.0
C1714 C 0.40355 0.82266 0.63067 0.0
C1715 C 0.37799 0.80603 0.60254 0.0
C1716 C 0.35641 0.80172 0.59272 0.0
C1717 C 0.38216 0.81864 0.62073 0.0
C1718 C 0.33914 0.81035 0.60157 0.0
C1719 C 0.34321 0.82305 0.61948 0.0
H1720 H 0.67039 0.76691 0.62651 0.0
H1721 H 0.73314 0.80849 0.63953 0.0
H1722 H 0.7448 0.79964 0.60588 0.0
H1723 H 0.73735 0.77899 0.57349 0.0
H1724 H 0.67491 0.73633 0.56115 0.0
H1725 H 0.66261 0.74699 0.59372 0.0
C1726 C 0.68652 0.77414 0.62179 0.0
C1727 C 0.70097 0.7883 0.63514 0.0
C1728 C 0.69307 0.76877 0.60266 0.0
C1729 C 0.72185 0.7976 0.62925 0.0
C1730 C 0.72847 0.79249 0.61011 0.0
C1731 C 0.72112 0.77187 0.57795 0.0
C1732 C 0.70715 0.75669 0.56492 0.0
C1733 C 0.71429 0.77787 0.59681 0.0
C1734 C 0.68593 0.74811 0.57078 0.0
C1735 C 0.67894 0.75411 0.58946 0.0
H1736 H 0.79341 0.81877 0.39788 0.0
H1737 H 0.72398 0.8207 0.4045 0.0
H1738 H 0.72616 0.8018 0.43676 0.0
H1739 H 0.74792 0.78493 0.46292 0.0
H1740 H 0.81738 0.78243 0.45603 0.0
H1741 H 0.81519 0.8015 0.42407 0.0
C1742 C 0.77879 0.81487 0.40642 0.0
C1743 C 0.75855 0.82084 0.39905 0.0
C1744 C 0.78026 0.80412 0.42489 0.0
C1745 C 0.73966 0.81601 0.41004 0.0
C1746 C 0.74095 0.80532 0.42844 0.0
C1747 C 0.76265 0.78871 0.45454 0.0
C1748 C 0.78284 0.78239 0.46196 0.0
C1749 C 0.76119 0.7994 0.43605 0.0
C1750 C 0.80167 0.7872 0.45074 0.0
C1751 C 0.80042 0.79804 0.43242 0.0
H1752 H 0.71335 0.18376 0.42879 0.0
H1753 H 0.77163 0.19529 0.39455 0.0
H1754 H 0.79534 0.20162 0.42598 0.0
H1755 H 0.79972 0.20495 0.46335 0.0
H1756 H 0.74154 0.19475 0.49761 0.0
H1757 H 0.71774 0.18713 0.46617 0.0
C1758 C 0.73121 0.18782 0.42816 0.0
C1759 C 0.74055 0.18886 0.40916 0.0
C1760 C 0.74487 0.19172 0.44639 0.0
C1761 C 0.76385 0.19393 0.40883 0.0
C1762 C 0.77749 0.19771 0.42686 0.0
C1763 C 0.78187 0.20076 0.46396 0.0
C1764 C 0.77246 0.20034 0.48288 0.0
C1765 C 0.76822 0.19665 0.44574 0.0
C1766 C 0.74921 0.19529 0.48328 0.0
C1767 C 0.73559 0.19091 0.46529 0.0
H1768 H 0.39651 0.24592 0.46687 0.0
H1769 H 0.35026 0.26418 0.42049 0.0
H1770 H 0.35535 0.30123 0.43501 0.0
H1771 H 0.36821 0.32617 0.46411 0.0
H1772 H 0.41241 0.30705 0.51176 0.0
H1773 H 0.41357 0.27282 0.49339 0.0
C1774 C 0.38802 0.25825 0.45976 0.0
C1775 C 0.37299 0.25262 0.44283 0.0
C1776 C 0.39071 0.27929 0.46846 0.0
C1777 C 0.36189 0.26841 0.43361 0.0
C1778 C 0.36477 0.2895 0.44193 0.0
C1779 C 0.37881 0.31489 0.46999 0.0
C1780 C 0.39029 0.31904 0.48918 0.0
C1781 C 0.37853 0.2949 0.45977 0.0
C1782 C 0.40359 0.30412 0.49693 0.0
C1783 C 0.40402 0.28449 0.48656 0.0
H1784 H 0.38551 0.84052 0.43216 0.0
H1785 H 0.3257 0.81779 0.39466 0.0
H1786 H 0.30651 0.80514 0.42482 0.0
H1787 H 0.30869 0.79618 0.46155 0.0
H1788 H 0.36924 0.81892 0.49824 0.0
H1789 H 0.38596 0.83641 0.46904 0.0
C1790 C 0.36813 0.8332 0.43071 0.0
C1791 C 0.35703 0.82995 0.41131 0.0
C1792 C 0.35733 0.82597 0.44805 0.0
C1793 C 0.33452 0.82049 0.40951 0.0
C1794 C 0.3236 0.81318 0.42674 0.0
C1795 C 0.3252 0.80568 0.46324 0.0
C1796 C 0.33769 0.80639 0.48205 0.0
C1797 C 0.33503 0.81527 0.44608 0.0
C1798 C 0.35928 0.81829 0.48394 0.0
C1799 C 0.36894 0.82812 0.4672 0.0
H1800 H 0.65033 0.16076 0.72491 0.0
H1801 H 0.68753 0.22537 0.72547 0.0
H1802 H 0.65546 0.24041 0.73704 0.0
H1803 H 0.61789 0.23462 0.7496 0.0
H1804 H 0.58091 0.16964 0.74889 0.0
H1805 H 0.61182 0.15532 0.73504 0.0
C1806 C 0.65116 0.17818 0.72717 0.0
C1807 C 0.67098 0.19205 0.72417 0.0
C1808 C 0.63283 0.18657 0.73416 0.0
C1809 C 0.67221 0.2145 0.72746 0.0
C1810 C 0.65396 0.22304 0.73422 0.0
C1811 C 0.6164 0.21738 0.74617 0.0
C1812 C 0.59703 0.20328 0.75063 0.0
C1813 C 0.63431 0.20917 0.73802 0.0
C1814 C 0.59567 0.18092 0.74614 0.0
C1815 C 0.61333 0.17267 0.73803 0.0
H1816 H 0.36068 0.11621 0.66332 0.0
H1817 H 0.36487 0.1666 0.70971 0.0
H1818 H 0.34143 0.142 0.73051 0.0
H1819 H 0.3199 0.10616 0.73568 0.0
H1820 H 0.3152 0.0559 0.68923 0.0
H1821 H 0.33799 0.08071 0.668 0.0
C1822 C 0.35627 0.12191 0.67787 0.0
C1823 C 0.36473 0.1432 0.68497 0.0
C1824 C 0.34251 0.10776 0.68968 0.0
C1825 C 0.35902 0.15018 0.70401 0.0
C1826 C 0.34544 0.13618 0.71587 0.0
C1827 C 0.32392 0.10062 0.72094 0.0
C1828 C 0.3159 0.07918 0.71411 0.0
C1829 C 0.3372 0.11491 0.7089 0.0
C1830 C 0.32093 0.07237 0.69479 0.0
C1831 C 0.33412 0.08651 0.6827 0.0
H1832 H 0.44384 0.88392 0.73708 0.0
H1833 H 0.40722 0.81945 0.72545 0.0
H1834 H 0.43107 0.80501 0.75134 0.0
H1835 H 0.46328 0.81033 0.77622 0.0
H1836 H 0.50037 0.87456 0.78776 0.0
H1837 H 0.47506 0.88952 0.76343 0.0
C1838 C 0.44087 0.86677 0.74044 0.0
C1839 C 0.42386 0.85278 0.72917 0.0
C1840 C 0.45474 0.85852 0.75535 0.0
C1841 C 0.4204 0.83055 0.73362 0.0
C1842 C 0.43399 0.82227 0.74849 0.0
C1843 C 0.4659 0.82759 0.77338 0.0
C1844 C 0.48388 0.84123 0.78371 0.0
C1845 C 0.45143 0.83604 0.75921 0.0
C1846 C 0.48664 0.86366 0.78016 0.0
C1847 C 0.47223 0.87222 0.76613 0.0
H1848 H 0.72234 0.87111 0.67472 0.0
H1849 H 0.73123 0.85537 0.73786 0.0
H1850 H 0.76085 0.88632 0.74349 0.0
H1851 H 0.78278 0.91886 0.73116 0.0
H1852 H 0.7736 0.93625 0.66856 0.0
H1853 H 0.74606 0.90345 0.66188 0.0
C1854 C 0.73098 0.87439 0.68962 0.0
C1855 C 0.72442 0.86114 0.70592 0.0
C1856 C 0.74793 0.8925 0.69285 0.0
C1857 C 0.73573 0.86554 0.72516 0.0
C1858 C 0.75271 0.8832 0.72839 0.0
C1859 C 0.77471 0.91557 0.71605 0.0
C1860 C 0.78005 0.9302 0.70048 0.0
C1861 C 0.75865 0.897 0.71246 0.0
C1862 C 0.76988 0.92528 0.68084 0.0
C1863 C 0.754 0.90658 0.67705 0.0
H1864 H 0.667 0.84855 0.31583 0.0
H1865 H 0.67922 0.8203 0.37406 0.0
H1866 H 0.64293 0.79722 0.36974 0.0
H1867 H 0.6081 0.78473 0.34922 0.0
H1868 H 0.59566 0.8136 0.29133 0.0
H1869 H 0.63152 0.83733 0.29609 0.0
C1870 C 0.66163 0.83763 0.32778 0.0
C1871 C 0.67588 0.83623 0.34528 0.0
C1872 C 0.64067 0.82462 0.32531 0.0
C1873 C 0.66876 0.82155 0.36033 0.0
C1874 C 0.64794 0.80846 0.35793 0.0
C1875 C 0.61313 0.79631 0.33768 0.0
C1876 C 0.59921 0.79733 0.31991 0.0
C1877 C 0.63382 0.8098 0.34045 0.0
C1878 C 0.60601 0.81248 0.30516 0.0
C1879 C 0.62655 0.826 0.30783 0.0
H1880 H 0.70001 0.13579 0.32987 0.0
H1881 H 0.76199 0.17922 0.34147 0.0
H1882 H 0.77938 0.15904 0.3168 0.0
H1883 H 0.77798 0.12757 0.29386 0.0
H1884 H 0.71642 0.08349 0.28215 0.0
H1885 H 0.69791 0.10544 0.30462 0.0
C1886 C 0.7172 0.14099 0.32671 0.0
C1887 C 0.72975 0.15884 0.33768 0.0
C1888 C 0.72726 0.1291 0.31256 0.0
C1889 C 0.75205 0.16535 0.33347 0.0
C1890 C 0.76203 0.15383 0.31934 0.0
C1891 C 0.76045 0.12283 0.29605 0.0
C1892 C 0.74871 0.10378 0.28639 0.0
C1893 C 0.74996 0.1354 0.30913 0.0
C1894 C 0.72594 0.09804 0.28936 0.0
C1895 C 0.71533 0.11057 0.30229 0.0
H1896 H 0.42792 0.21498 0.39788 0.0
H1897 H 0.38609 0.20161 0.3424 0.0
H1898 H 0.41622 0.21935 0.32293 0.0
H1899 H 0.454 0.23929 0.32192 0.0
H1900 H 0.4961 0.25137 0.37762 0.0
H1901 H 0.46602 0.23406 0.39671 0.0
C1902 C 0.42537 0.21605 0.38152 0.0
C1903 C 0.40478 0.20711 0.3716 0.0
C1904 C 0.44272 0.22622 0.37047 0.0
C1905 C 0.40184 0.20826 0.35037 0.0
C1906 C 0.41902 0.2185 0.33926 0.0
C1907 C 0.45685 0.23804 0.33818 0.0
C1908 C 0.4776 0.24685 0.3481 0.0
C1909 C 0.43952 0.22761 0.34918 0.0
C1910 C 0.48047 0.24515 0.36935 0.0
C1911 C 0.46323 0.23505 0.38038 0.0
H1912 H 0.36471 0.91565 0.3205 0.0
H1913 H 0.32569 0.892 0.36976 0.0
H1914 H 0.30267 0.9208 0.36445 0.0
H1915 H 0.2932 0.95186 0.34522 0.0
H1916 H 0.33181 0.97547 0.29548 0.0
H1917 H 0.35564 0.94757 0.3016 0.0
C1918 C 0.3512 0.91696 0.33009 0.0
C1919 C 0.34675 0.90191 0.3455 0.0
C1920 C 0.33806 0.93347 0.32683 0.0
C1921 C 0.3293 0.90353 0.35786 0.0
C1922 C 0.31619 0.91994 0.35479 0.0
C1923 C 0.30688 0.95104 0.33571 0.0
C1924 C 0.31066 0.96578 0.31984 0.0
C1925 C 0.32034 0.9349 0.33924 0.0
C1926 C 0.32851 0.96439 0.30778 0.0
C1927 C 0.34211 0.9484 0.31126 0.0
H1928 H 0.73029 0.10183 0.71975 0.0
H1929 H 0.77875 0.12824 0.67832 0.0
H1930 H 0.79946 0.09846 0.68503 0.0
H1931 H 0.80436 0.06534 0.70261 0.0
H1932 H 0.75778 0.03905 0.74553 0.0
H1933 H 0.7361 0.06866 0.73859 0.0
C1934 C 0.74548 0.10122 0.7123 0.0
C1935 C 0.75264 0.11732 0.69827 0.0
C1936 C 0.75775 0.08411 0.71657 0.0
C1937 C 0.77234 0.11595 0.68873 0.0
C1938 C 0.7844 0.09898 0.69272 0.0
C1939 C 0.78943 0.06593 0.71049 0.0
C1940 C 0.78266 0.04982 0.72451 0.0
C1941 C 0.77726 0.08299 0.70654 0.0
C1942 C 0.76339 0.05117 0.73466 0.0
C1943 C 0.75098 0.0681 0.73065 0.0
H1944 H 0.7489 0.90213 0.31309 0.0
H1945 H 0.70022 0.91637 0.35361 0.0
H1946 H 0.70458 0.95402 0.34255 0.0
H1947 H 0.72258 0.98291 0.32161 0.0
H1948 H 0.77039 0.96848 0.2803 0.0
H1949 H 0.76596 0.9308 0.29122 0.0
C1950 C 0.73933 0.91356 0.31948 0.0
C1951 C 0.72437 0.90668 0.33416 0.0
C1952 C 0.74172 0.93504 0.31286 0.0
C1953 C 0.71178 0.92141 0.34221 0.0
C1954 C 0.7143 0.94289 0.33595 0.0
C1955 C 0.73204 0.97148 0.31509 0.0
C1956 C 0.74683 0.97839 0.30028 0.0
C1957 C 0.72927 0.94989 0.32134 0.0
C1958 C 0.75877 0.96343 0.29162 0.0
C1959 C 0.75633 0.94195 0.29794 0.0
H1960 H 0.64813 0.21897 0.31808 0.0
H1961 H 0.61662 0.17104 0.35749 0.0
H1962 H 0.57997 0.17547 0.34207 0.0
H1963 H 0.55679 0.19622 0.32038 0.0
H1964 H 0.58811 0.24438 0.28088 0.0
H1965 H 0.6247 0.23637 0.29294 0.0
C1966 C 0.63323 0.2091 0.32283 0.0
C1967 C 0.63497 0.19458 0.33878 0.0
C1968 C 0.61212 0.21195 0.314 0.0
C1969 C 0.61562 0.18212 0.34508 0.0
C1970 C 0.59466 0.18478 0.33636 0.0
C1971 C 0.57157 0.20467 0.31408 0.0
C1972 C 0.56956 0.22104 0.29984 0.0
C1973 C 0.59266 0.20012 0.32124 0.0
C1974 C 0.58901 0.23169 0.29182 0.0
C1975 C 0.61003 0.22723 0.29883 0.0
H1976 H 0.33759 0.15402 0.35213 0.0
H1977 H 0.34576 0.13218 0.41346 0.0
H1978 H 0.32286 0.09733 0.4038 0.0
H1979 H 0.30114 0.07266 0.37762 0.0
H1980 H 0.293 0.09476 0.31639 0.0
H1981 H 0.31526 0.12977 0.32625 0.0
C1982 C 0.3345 0.14155 0.36332 0.0
C1983 C 0.34341 0.14566 0.38345 0.0
C1984 C 0.32126 0.12158 0.35768 0.0
C1985 C 0.33896 0.12947 0.39788 0.0
C1986 C 0.3259 0.10952 0.39237 0.0
C1987 C 0.304 0.08525 0.36654 0.0
C1988 C 0.29553 0.08104 0.34628 0.0
C1989 C 0.31694 0.10538 0.3723 0.0
C1990 C 0.2996 0.09746 0.33202 0.0
C1991 C 0.3123 0.11752 0.33764 0.0
H1992 H 0.40884 0.80804 0.33635 0.0
H1993 H 0.43041 0.81244 0.4001 0.0
H1994 H 0.46106 0.79277 0.39352 0.0
H1995 H 0.48308 0.77602 0.36925 0.0
H1996 H 0.46175 0.77286 0.30548 0.0
H1997 H 0.43005 0.79067 0.31243 0.0
C1998 C 0.42031 0.80486 0.34884 0.0
C1999 C 0.4173 0.81193 0.3687 0.0
C2000 C 0.43813 0.79387 0.3449 0.0
C2001 C 0.43211 0.8071 0.38469 0.0
C2002 C 0.44978 0.79596 0.38091 0.0
C2003 C 0.47135 0.77901 0.35692 0.0
C2004 C 0.47496 0.77323 0.33682 0.0
C2005 C 0.45311 0.78946 0.36103 0.0
C2006 C 0.45965 0.77743 0.32102 0.0
C2007 C 0.44142 0.78754 0.325 0.0
H2008 H 0.38954 0.9606 0.72934 0.0
H2009 H 0.34291 0.90257 0.73747 0.0
H2010 H 0.32201 0.92283 0.75934 0.0
H2011 H 0.3143 0.95782 0.77221 0.0
H2012 H 0.36019 0.01636 0.76388 0.0
H2013 H 0.38443 0.99519 0.7465 0.0
C2014 C 0.37513 0.95238 0.73638 0.0
C2015 C 0.36767 0.93018 0.73194 0.0
C2016 C 0.36303 0.96427 0.74876 0.0
C2017 C 0.34892 0.91963 0.74085 0.0
C2018 C 0.33694 0.93124 0.75325 0.0
C2019 C 0.32987 0.96589 0.767 0.0
C2020 C 0.33536 0.98864 0.76918 0.0
C2021 C 0.34343 0.95368 0.75676 0.0
C2022 C 0.35565 0.99886 0.76249 0.0
C2023 C 0.36938 0.98677 0.75236 0.0
H2024 H 0.62809 0.80539 0.71303 0.0
H2025 H 0.67832 0.83652 0.75793 0.0
H2026 H 0.65133 0.83234 0.78362 0.0
H2027 H 0.61386 0.81905 0.79369 0.0
H2028 H 0.56448 0.78511 0.74975 0.0
H2029 H 0.59108 0.79055 0.72346 0.0
C2030 C 0.63333 0.81102 0.72847 0.0
C2031 C 0.65534 0.82136 0.73337 0.0
C2032 C 0.61793 0.80787 0.74342 0.0
C2033 C 0.66147 0.82893 0.75346 0.0
C2034 C 0.64608 0.82633 0.76829 0.0
C2035 C 0.60889 0.81286 0.77834 0.0
C2036 C 0.58721 0.80179 0.77362 0.0
C2037 C 0.62432 0.81576 0.76345 0.0
C2038 C 0.5811 0.79363 0.75376 0.0
C2039 C 0.59627 0.79681 0.73873 0.0
H2040 H 0.41123 0.21142 0.70507 0.0
H2041 H 0.45331 0.19646 0.65864 0.0
H2042 H 0.48592 0.21649 0.67809 0.0
H2043 H 0.50298 0.23377 0.71071 0.0
H2044 H 0.46057 0.24615 0.75772 0.0
H2045 H 0.42759 0.23201 0.73565 0.0
C2046 C 0.42753 0.21272 0.69915 0.0
C2047 C 0.42995 0.2022 0.68066 0.0
C2048 C 0.44616 0.22385 0.71056 0.0
C2049 C 0.45105 0.2044 0.6729 0.0
C2050 C 0.46971 0.21576 0.68406 0.0
C2051 C 0.48646 0.234 0.71574 0.0
C2052 C 0.48403 0.24107 0.73564 0.0
C2053 C 0.46756 0.22499 0.70321 0.0
C2054 C 0.46266 0.24088 0.74234 0.0
C2055 C 0.44385 0.23265 0.72981 0.0
H2056 H 0.73472 0.68381 0.1456 0.0
H2057 H 0.79234 0.68781 0.18797 0.0
H2058 H 0.81636 0.70227 0.16169 0.0
H2059 H 0.82091 0.7148 0.12704 0.0
H2060 H 0.76351 0.7101 0.08424 0.0
H2061 H 0.73955 0.69515 0.11033 0.0
C2062 C 0.75252 0.68793 0.14905 0.0
C2063 C 0.76171 0.68474 0.16871 0.0
C2064 C 0.7663 0.69618 0.13381 0.0
C2065 C 0.78486 0.68991 0.17292 0.0
C2066 C 0.79861 0.69826 0.15791 0.0
C2067 C 0.80323 0.71024 0.12325 0.0
C2068 C 0.79413 0.71376 0.10361 0.0
C2069 C 0.78951 0.70151 0.13832 0.0
C2070 C 0.77103 0.70795 0.09924 0.0
C2071 C 0.75728 0.69929 0.11416 0.0
H2072 H 0.34523 0.74101 0.1487 0.0
H2073 H 0.35552 0.67963 0.12312 0.0
H2074 H 0.33849 0.68856 0.09023 0.0
H2075 H 0.31726 0.71219 0.06996 0.0
H2076 H 0.3065 0.77355 0.09566 0.0
H2077 H 0.32731 0.76646 0.12715 0.0
C2078 C 0.34419 0.72991 0.13573 0.0
C2079 C 0.35165 0.70981 0.13808 0.0
C2080 C 0.33407 0.73505 0.11699 0.0
C2081 C 0.35002 0.6953 0.12143 0.0
C2082 C 0.34016 0.70034 0.10272 0.0
C2083 C 0.31969 0.72415 0.08235 0.0
C2084 C 0.31009 0.74327 0.08049 0.0
C2085 C 0.33158 0.71991 0.10048 0.0
C2086 C 0.31362 0.75866 0.09665 0.0
C2087 C 0.32547 0.75459 0.11473 0.0
H2088 H 0.36151 0.33181 0.13272 0.0
H2089 H 0.35001 0.27473 0.16892 0.0
H2090 H 0.33025 0.25396 0.13958 0.0
H2091 H 0.31457 0.25269 0.10416 0.0
H2092 H 0.32824 0.30883 0.06709 0.0
H2093 H 0.34871 0.32956 0.09627 0.0
C2094 C 0.35494 0.31473 0.13402 0.0
C2095 C 0.35713 0.30473 0.15287 0.0
C2096 C 0.34371 0.30294 0.11708 0.0
C2097 C 0.34867 0.28263 0.15448 0.0
C2098 C 0.3372 0.27085 0.13778 0.0
C2099 C 0.32193 0.26953 0.10257 0.0
C2100 C 0.31952 0.27951 0.08377 0.0
C2101 C 0.33426 0.28096 0.11914 0.0
C2102 C 0.32967 0.30104 0.08157 0.0
C2103 C 0.34141 0.31279 0.0982 0.0
H2104 H 0.74052 0.32422 0.13074 0.0
H2105 H 0.7099 0.37644 0.10509 0.0
H2106 H 0.73265 0.37679 0.07578 0.0
H2107 H 0.75897 0.35996 0.05622 0.0
H2108 H 0.78907 0.30731 0.08201 0.0
H2109 H 0.7689 0.30934 0.11244 0.0
C2110 C 0.73919 0.33589 0.11885 0.0
C2111 C 0.72379 0.35035 0.11992 0.0
C2112 C 0.75203 0.33571 0.10199 0.0
C2113 C 0.72186 0.36528 0.10449 0.0
C2114 C 0.73476 0.3654 0.08774 0.0
C2115 C 0.7614 0.3492 0.06864 0.0
C2116 C 0.7753 0.33331 0.06668 0.0
C2117 C 0.7496 0.35038 0.08612 0.0
C2118 C 0.77812 0.31938 0.08291 0.0
C2119 C 0.76667 0.32059 0.10038 0.0
H2120 H 0.75841 0.29998 0.88794 0.0
H2121 H 0.71905 0.34844 0.90448 0.0
H2122 H 0.71957 0.33597 0.93951 0.0
H2123 H 0.73553 0.3147 0.96609 0.0
H2124 H 0.77625 0.26707 0.94979 0.0
H2125 H 0.77037 0.27529 0.91401 0.0
C2126 C 0.74955 0.30739 0.89919 0.0
C2127 C 0.73874 0.32504 0.89391 0.0
C2128 C 0.75026 0.30034 0.91933 0.0
C2129 C 0.72742 0.33476 0.90841 0.0
C2130 C 0.72779 0.32769 0.92839 0.0
C2131 C 0.74271 0.30573 0.9547 0.0
C2132 C 0.75661 0.29054 0.96073 0.0
C2133 C 0.73977 0.31096 0.93417 0.0
C2134 C 0.7656 0.27896 0.94567 0.0
C2135 C 0.76238 0.28377 0.92517 0.0
H2136 H 0.74523 0.69224 0.94419 0.0
H2137 H 0.75755 0.74549 0.9036 0.0
H2138 H 0.77087 0.77046 0.93247 0.0
H2139 H 0.78014 0.77679 0.96916 0.0
H2140 H 0.76714 0.72352 1.00993 0.0
H2141 H 0.75259 0.69907 0.98124 0.0
C2142 C 0.7509 0.70932 0.94178 0.0
C2143 C 0.75075 0.71708 0.9219 0.0
C2144 C 0.7582 0.72359 0.95849 0.0
C2145 C 0.75777 0.73924 0.91882 0.0
C2146 C 0.76529 0.75347 0.93531 0.0
C2147 C 0.77383 0.75992 0.97186 0.0
C2148 C 0.77481 0.7521 0.99179 0.0
C2149 C 0.76567 0.74583 0.95522 0.0
C2150 C 0.76659 0.73009 0.99484 0.0
C2151 C 0.75838 0.71601 0.9784 0.0
H2152 H 0.3266 0.67306 0.91114 0.0
H2153 H 0.29377 0.72497 0.88778 0.0
H2154 H 0.27135 0.72345 0.91726 0.0
H2155 H 0.26381 0.7097 0.95106 0.0
H2156 H 0.29737 0.65856 0.97521 0.0
H2157 H 0.31637 0.65692 0.9439 0.0
C2158 C 0.31421 0.68369 0.91244 0.0
C2159 C 0.31165 0.6991 0.89754 0.0
C2160 C 0.30162 0.68287 0.92956 0.0
C2161 C 0.29579 0.71297 0.89919 0.0
C2162 C 0.28309 0.71214 0.91603 0.0
C2163 C 0.27516 0.69809 0.94938 0.0
C2164 C 0.27939 0.68448 0.96551 0.0
C2165 C 0.28627 0.69754 0.93153 0.0
C2166 C 0.29376 0.66917 0.96299 0.0
C2167 C 0.30478 0.66835 0.94516 0.0
H2168 H 0.35159 0.30309 0.90533 0.0
H2169 H 0.42114 0.3192 0.92481 0.0
H2170 H 0.41511 0.29834 0.9556 0.0
H2171 H 0.39002 0.27533 0.97693 0.0
H2172 H 0.32074 0.25782 0.95648 0.0
H2173 H 0.32668 0.27934 0.9263 0.0
C2174 C 0.36534 0.30219 0.91646 0.0
C2175 C 0.38673 0.31278 0.91291 0.0
C2176 C 0.36182 0.28979 0.93393 0.0
C2177 C 0.40451 0.31119 0.92725 0.0
C2178 C 0.40108 0.29923 0.94483 0.0
C2179 C 0.37627 0.27599 0.96579 0.0
C2180 C 0.35491 0.26502 0.9692 0.0
C2181 C 0.37982 0.28832 0.94827 0.0
C2182 C 0.33728 0.26634 0.95455 0.0
C2183 C 0.34066 0.27862 0.93719 0.0
H2184 H 0.67783 0.71411 0.25084 0.0
H2185 H 0.64477 0.65322 0.22412 0.0
H2186 H 0.61165 0.65639 0.24243 0.0
H2187 H 0.59094 0.67845 0.26344 0.0
H2188 H 0.62426 0.73972 0.28959 0.0
H2189 H 0.65831 0.73452 0.27418 0.0
C2190 C 0.66353 0.70132 0.24947 0.0
C2191 C 0.66367 0.68335 0.23643 0.0
C2192 C 0.64446 0.70353 0.2597 0.0
C2193 C 0.64502 0.66704 0.23435 0.0
C2194 C 0.62606 0.66896 0.24469 0.0
C2195 C 0.60574 0.69047 0.26608 0.0
C2196 C 0.60484 0.70962 0.27747 0.0
C2197 C 0.62538 0.68741 0.25704 0.0
C2198 C 0.62425 0.72507 0.28056 0.0
C2199 C 0.64382 0.72206 0.27183 0.0
H2200 H 0.36128 0.64955 0.23438 0.0
H2201 H 0.41897 0.62748 0.21187 0.0
H2202 H 0.41455 0.59659 0.23442 0.0
H2203 H 0.39351 0.57513 0.25995 0.0
H2204 H 0.33509 0.59667 0.28121 0.0
H2205 H 0.34046 0.62837 0.25971 0.0
C2206 C 0.37273 0.63785 0.2342 0.0
C2207 C 0.39037 0.64082 0.22137 0.0
C2208 C 0.37 0.62004 0.24707 0.0
C2209 C 0.40534 0.6257 0.2217 0.0
C2210 C 0.40279 0.60799 0.23455 0.0
C2211 C 0.38219 0.58696 0.26001 0.0
C2212 C 0.36395 0.58364 0.2721 0.0
C2213 C 0.38517 0.60496 0.2473 0.0
C2214 C 0.34915 0.59887 0.27189 0.0
C2215 C 0.35221 0.61697 0.25961 0.0
H2216 H 0.4038 0.28546 0.20961 0.0
H2217 H 0.42137 0.35393 0.22521 0.0
H2218 H 0.45338 0.34647 0.24634 0.0
H2219 H 0.47695 0.32101 0.26002 0.0
H2220 H 0.46171 0.25294 0.24301 0.0
H2221 H 0.42867 0.25994 0.22223 0.0
C2222 C 0.41471 0.29888 0.21736 0.0
C2223 C 0.40974 0.32032 0.21573 0.0
C2224 C 0.43371 0.29458 0.22912 0.0
C2225 C 0.42413 0.33722 0.22639 0.0
C2226 C 0.44272 0.33301 0.23836 0.0
C2227 C 0.46644 0.30762 0.25179 0.0
C2228 C 0.4718 0.28642 0.25319 0.0
C2229 C 0.44769 0.31181 0.23981 0.0
C2230 C 0.45805 0.2694 0.24219 0.0
C2231 C 0.43911 0.27342 0.23038 0.0
H2232 H 0.72041 0.39188 0.23157 0.0
H2233 H 0.72837 0.41812 0.17194 0.0
H2234 H 0.75422 0.4493 0.18691 0.0
H2235 H 0.77275 0.47007 0.21746 0.0
H2236 H 0.76067 0.44467 0.27684 0.0
H2237 H 0.73743 0.41252 0.26143 0.0
C2238 C 0.72745 0.40455 0.22176 0.0
C2239 C 0.72205 0.40284 0.20067 0.0
C2240 C 0.7413 0.42274 0.2305 0.0
C2241 C 0.7322 0.41899 0.18822 0.0
C2242 C 0.74681 0.43692 0.19679 0.0
C2243 C 0.76496 0.45748 0.22695 0.0
C2244 C 0.7683 0.45977 0.24824 0.0
C2245 C 0.75117 0.43913 0.21798 0.0
C2246 C 0.75812 0.44341 0.26043 0.0
C2247 C 0.74496 0.42495 0.25164 0.0
H2248 H 0.66673 0.35265 0.79552 0.0
H2249 H 0.66584 0.33425 0.85826 0.0
H2250 H 0.62988 0.31142 0.851 0.0
H2251 H 0.60024 0.29468 0.82661 0.0
H2252 H 0.60038 0.31238 0.76371 0.0
H2253 H 0.63494 0.3379 0.77132 0.0
C2254 C 0.65845 0.34394 0.80765 0.0
C2255 C 0.66907 0.34491 0.82735 0.0
C2256 C 0.63776 0.33068 0.80333 0.0
C2257 C 0.65821 0.33345 0.8429 0.0
C2258 C 0.63762 0.32045 0.83879 0.0
C2259 C 0.60773 0.3042 0.81454 0.0
C2260 C 0.59795 0.30146 0.79458 0.0
C2261 C 0.62753 0.31858 0.81899 0.0
C2262 C 0.60765 0.31418 0.77919 0.0
C2263 C 0.62743 0.32868 0.78354 0.0
H2264 H 0.73768 0.63051 0.86935 0.0
H2265 H 0.79048 0.68511 0.86931 0.0
H2266 H 0.81208 0.66375 0.84919 0.0
H2267 H 0.81434 0.63065 0.8288 0.0
H2268 H 0.76144 0.57601 0.8292 0.0
H2269 H 0.7417 0.59619 0.85197 0.0
C2270 C 0.75402 0.63765 0.86511 0.0
C2271 C 0.76235 0.65947 0.87071 0.0
C2272 C 0.76631 0.62529 0.85343 0.0
C2273 C 0.7837 0.66836 0.86532 0.0
C2274 C 0.79599 0.65618 0.85366 0.0
C2275 C 0.79865 0.62302 0.83408 0.0
C2276 C 0.78937 0.60184 0.82703 0.0
C2277 C 0.78724 0.63478 0.84722 0.0
C2278 C 0.76905 0.59225 0.83423 0.0
C2279 C 0.75764 0.60383 0.84724 0.0
H2280 H 0.42965 0.6778 0.84591 0.0
H2281 H 0.39376 0.7248 0.81675 0.0
H2282 H 0.4282 0.74361 0.80445 0.0
H2283 H 0.46875 0.74837 0.80422 0.0
H2284 H 0.50499 0.70186 0.83384 0.0
H2285 H 0.47011 0.68091 0.84323 0.0
C2286 C 0.42932 0.69194 0.83657 0.0
C2287 C 0.40919 0.70003 0.83249 0.0
C2288 C 0.44925 0.70278 0.82963 0.0
C2289 C 0.40908 0.71847 0.82047 0.0
C2290 C 0.42876 0.72919 0.81334 0.0
C2291 C 0.46906 0.73349 0.81249 0.0
C2292 C 0.48953 0.72684 0.81846 0.0
C2293 C 0.44899 0.72175 0.81819 0.0
C2294 C 0.48952 0.70745 0.82911 0.0
C2295 C 0.46956 0.69549 0.83457 0.0
H2296 H 0.39599 0.42027 0.84347 0.0
H2297 H 0.33965 0.37713 0.81576 0.0
H2298 H 0.33051 0.40598 0.79329 0.0
H2299 H 0.33703 0.44443 0.78331 0.0
H2300 H 0.39337 0.48754 0.81136 0.0
H2301 H 0.40414 0.45793 0.83163 0.0
C2302 C 0.38204 0.41713 0.83216 0.0
C2303 C 0.36863 0.39663 0.83102 0.0
C2304 C 0.37675 0.43391 0.81949 0.0
C2305 C 0.35035 0.39275 0.81664 0.0
C2306 C 0.34503 0.4093 0.80393 0.0
C2307 C 0.3517 0.4473 0.7938 0.0
C2308 C 0.36428 0.46828 0.79579 0.0
C2309 C 0.35783 0.4301 0.80551 0.0
C2310 C 0.38345 0.4716 0.80931 0.0
C2311 C 0.38958 0.45466 0.82104 0.0
H2312 H 0.74776 0.61227 0.20168 0.0
H2313 H 0.75199 0.6547 0.25441 0.0
H2314 H 0.7712 0.62939 0.27445 0.0
H2315 H 0.78919 0.59633 0.27611 0.0
H2316 H 0.78345 0.5533 0.22372 0.0
H2317 H 0.76247 0.57764 0.20425 0.0
C2318 C 0.75259 0.61573 0.21766 0.0
C2319 C 0.74856 0.63526 0.22662 0.0
C2320 C 0.76361 0.60116 0.22898 0.0
C2321 C 0.75478 0.63965 0.2473 0.0
C2322 C 0.76594 0.6253 0.25867 0.0
C2323 C 0.78332 0.59239 0.26042 0.0
C2324 C 0.78812 0.57332 0.25114 0.0
C2325 C 0.77089 0.60625 0.24954 0.0
C2326 C 0.78001 0.56799 0.23101 0.0
C2327 C 0.76804 0.58188 0.21994 0.0
H2328 H 0.70608 0.40737 0.79274 0.0
H2329 H 0.74973 0.42044 0.84736 0.0
H2330 H 0.76147 0.45735 0.8368 0.0
H2331 H 0.75932 0.48618 0.81238 0.0
H2332 H 0.7143 0.4746 0.75883 0.0
H2333 H 0.70258 0.43707 0.76896 0.0
C2334 C 0.71797 0.41832 0.80247 0.0
C2335 C 0.72721 0.41083 0.82071 0.0
C2336 C 0.7243 0.43988 0.79658 0.0
C2337 C 0.74276 0.42538 0.83297 0.0
C2338 C 0.74936 0.44664 0.82706 0.0
C2339 C 0.74705 0.47538 0.80287 0.0
C2340 C 0.73782 0.48302 0.78481 0.0
C2341 C 0.74032 0.45403 0.80889 0.0
C2342 C 0.72155 0.46905 0.77285 0.0
C2343 C 0.71495 0.4476 0.77859 0.0
H2344 H 0.64512 0.71132 0.8921 0.0
H2345 H 0.67918 0.73266 0.83927 0.0
H2346 H 0.6515 0.75632 0.83058 0.0
H2347 H 0.61617 0.76891 0.83676 0.0
H2348 H 0.58174 0.74737 0.88942 0.0
H2349 H 0.61103 0.72614 0.89965 0.0
C2350 C 0.6466 0.72149 0.87892 0.0
C2351 C 0.66407 0.72048 0.86634 0.0
C2352 C 0.63048 0.73489 0.87395 0.0
C2353 C 0.66586 0.73343 0.84919 0.0
C2354 C 0.65 0.74683 0.84418 0.0
C2355 C 0.61513 0.75961 0.8505 0.0
C2356 C 0.59669 0.7596 0.8622 0.0
C2357 C 0.63199 0.74736 0.85622 0.0
C2358 C 0.59579 0.74778 0.88019 0.0
C2359 C 0.61248 0.73552 0.88599 0.0
H2360 H 0.32202 0.63625 0.83809 0.0
H2361 H 0.38812 0.62612 0.85901 0.0
H2362 H 0.3781 0.58714 0.85154 0.0
H2363 H 0.3523 0.55712 0.83488 0.0
H2364 H 0.28696 0.56768 0.81178 0.0
H2365 H 0.29467 0.60515 0.82494 0.0
C2366 C 0.33405 0.62542 0.84147 0.0
C2367 C 0.35584 0.63404 0.84889 0.0
C2368 C 0.32831 0.60312 0.8367 0.0
C2369 C 0.37134 0.61987 0.85301 0.0
C2370 C 0.3656 0.5976 0.84879 0.0
C2371 C 0.3395 0.56741 0.83316 0.0
C2372 C 0.31917 0.55965 0.82214 0.0
C2373 C 0.34437 0.58917 0.84001 0.0
C2374 C 0.30281 0.57327 0.82007 0.0
C2375 C 0.30726 0.59476 0.82747 0.0
H2376 H 0.41637 0.28612 0.85628 0.0
H2377 H 0.44195 0.3515 0.83986 0.0
H2378 H 0.47163 0.33793 0.82255 0.0
H2379 H 0.49226 0.30757 0.81478 0.0
H2380 H 0.46768 0.24314 0.83422 0.0
H2381 H 0.43602 0.2563 0.84815 0.0
C2382 C 0.4285 0.29751 0.84904 0.0
C2383 C 0.42712 0.31988 0.84972 0.0
C2384 C 0.44592 0.28974 0.83991 0.0
C2385 C 0.44255 0.33421 0.83959 0.0
C2386 C 0.45967 0.32646 0.82985 0.0
C2387 C 0.47983 0.29648 0.82194 0.0
C2388 C 0.48237 0.27444 0.82366 0.0
C2389 C 0.46181 0.3043 0.83032 0.0
C2390 C 0.46625 0.26019 0.83303 0.0
C2391 C 0.4481 0.26769 0.84089 0.0
H2392 H 0.32111 0.40569 0.21265 0.0
H2393 H 0.38056 0.39365 0.24679 0.0
H2394 H 0.37836 0.42437 0.26999 0.0
H2395 H 0.35956 0.45447 0.28025 0.0
H2396 H 0.29993 0.46667 0.24616 0.0
H2397 H 0.30212 0.43599 0.22309 0.0
C2398 C 0.33352 0.40985 0.22524 0.0
C2399 C 0.35095 0.3976 0.22821 0.0
C2400 C 0.33209 0.42749 0.23838 0.0
C2401 C 0.36702 0.40295 0.24439 0.0
C2402 C 0.36573 0.42047 0.25757 0.0
C2403 C 0.347 0.4505 0.26777 0.0
C2404 C 0.32958 0.46294 0.26494 0.0
C2405 C 0.34836 0.43286 0.25467 0.0
C2406 C 0.31349 0.45743 0.24869 0.0
C2407 C 0.31475 0.43988 0.23552 0.0
H2408 H 0.62796 0.34049 0.19018 0.0
H2409 H 0.67801 0.35776 0.23966 0.0
H2410 H 0.65081 0.34652 0.26412 0.0
H2411 H 0.61281 0.33186 0.27177 0.0
H2412 H 0.56307 0.31191 0.22295 0.0
H2413 H 0.59006 0.32387 0.19794 0.0
C2414 C 0.63294 0.34158 0.20629 0.0
C2415 C 0.65492 0.35042 0.213 0.0
C2416 C 0.61724 0.33467 0.22043 0.0
C2417 C 0.66107 0.35164 0.234 0.0
C2418 C 0.64556 0.34509 0.24807 0.0
C2419 C 0.6079 0.33036 0.25565 0.0
C2420 C 0.58604 0.32133 0.24913 0.0
C2421 C 0.62358 0.33678 0.24148 0.0
C2422 C 0.57989 0.31891 0.22822 0.0
C2423 C 0.59529 0.32572 0.21398 0.0
H2424 H 0.42896 0.73092 0.21257 0.0
H2425 H 0.45681 0.67983 0.18376 0.0
H2426 H 0.49428 0.69654 0.19642 0.0
H2427 H 0.51776 0.72146 0.22096 0.0
H2428 H 0.48929 0.77078 0.25219 0.0
H2429 H 0.45362 0.75933 0.23311 0.0
C2430 C 0.44337 0.724 0.20844 0.0
C2431 C 0.44029 0.70428 0.19725 0.0
C2432 C 0.46471 0.73315 0.21659 0.0
C2433 C 0.45893 0.69511 0.19227 0.0
C2434 C 0.48029 0.70454 0.19968 0.0
C2435 C 0.50394 0.73009 0.22324 0.0
C2436 C 0.50612 0.74669 0.23828 0.0
C2437 C 0.48323 0.72294 0.21269 0.0
C2438 C 0.48802 0.75775 0.24091 0.0
C2439 C 0.46755 0.75117 0.23004 0.0
loop_
_geom_bond_atom_site_label_1
_geom_bond_atom_site_label_2
_geom_bond_distance
_geom_bond_site_symmetry_2
_ccdc_geom_bond_type
H0 C3 0.929 . S
H1 C6 0.929 . S
H2 C8 0.930 . S
C3 H0 0.929 . S
C3 C4 1.398 . S
C3 C5 1.396 . S
C4 C3 1.398 . S
C4 C8 1.407 . S
C5 C3 1.396 . S
C5 C6 1.394 . S
C6 H1 0.929 . S
C6 C5 1.394 . S
C6 C7 1.382 . S
C7 C6 1.382 . S
C7 C8 1.392 . S
C7 N9 1.420 . S
C8 H2 0.930 . S
C8 C4 1.407 . S
C8 C7 1.392 . S
N9 C7 1.420 . S
N9 C10 1.244 . S
C10 N9 1.244 . S
H11 C14 0.929 . S
H12 C17 0.929 . S
H13 C19 0.930 . S
C14 H11 0.929 . S
C14 C15 1.398 . S
C14 C16 1.396 . S
C15 C14 1.398 . S
C15 C19 1.407 . S
C16 C14 1.396 . S
C16 C17 1.394 . S
C17 H12 0.929 . S
C17 C16 1.394 . S
C17 C18 1.382 . S
C18 C17 1.382 . S
C18 C19 1.392 . S
C18 N20 1.420 . S
C19 H13 0.930 . S
C19 C15 1.407 . S
C19 C18 1.392 . S
N20 C18 1.420 . S
N20 C21 1.244 . S
C21 N20 1.244 . S
H22 C25 0.929 . S
H23 C28 0.929 . S
H24 C30 0.930 . S
C25 H22 0.929 . S
C25 C26 1.398 . S
C25 C27 1.396 . S
C26 C25 1.398 . S
C26 C30 1.407 . S
C27 C25 1.396 . S
C27 C28 1.394 . S
C28 H23 0.929 . S
C28 C27 1.394 . S
C28 C29 1.382 . S
C29 C28 1.382 . S
C29 C30 1.392 . S
C29 N31 1.420 . S
C30 H24 0.930 . S
C30 C26 1.407 . S
C30 C29 1.392 . S
N31 C29 1.420 . S
N31 C32 1.244 . S
C32 N31 1.244 . S
H33 C36 0.929 . S
H34 C39 0.929 . S
H35 C41 0.930 . S
C36 H33 0.929 . S
C36 C37 1.398 . S
C36 C38 1.396 . S
C37 C36 1.398 . S
C37 C41 1.407 . S
C38 C36 1.396 . S
C38 C39 1.394 . S
C39 H34 0.929 . S
C39 C38 1.394 . S
C39 C40 1.382 . S
C40 C39 1.382 . S
C40 C41 1.392 . S
C40 N42 1.420 . S
C41 H35 0.930 . S
C41 C37 1.407 . S
C41 C40 1.392 . S
N42 C40 1.420 . S
N42 C43 1.244 . S
C43 N42 1.244 . S
H44 C47 0.929 . S
H45 C50 0.929 . S
H46 C52 0.930 . S
C47 H44 0.929 . S
C47 C48 1.398 . S
C47 C49 1.396 . S
C48 C47 1.398 . S
C48 C52 1.407 . S
C49 C47 1.396 . S
C49 C50 1.394 . S
C50 H45 0.929 . S
C50 C49 1.394 . S
C50 C51 1.382 . S
C51 C50 1.382 . S
C51 C52 1.392 . S
C51 N53 1.420 . S
C52 H46 0.930 . S
C52 C48 1.407 . S
C52 C51 1.392 . S
N53 C51 1.420 . S
N53 C54 1.244 . S
C54 N53 1.244 . S
H55 C58 0.929 . S
H56 C61 0.929 . S
H57 C63 0.930 . S
C58 H55 0.929 . S
C58 C59 1.398 . S
C58 C60 1.396 . S
C59 C58 1.398 . S
C59 C63 1.407 . S
C60 C58 1.396 . S
C60 C61 1.394 . S
C61 H56 0.929 . S
C61 C60 1.394 . S
C61 C62 1.382 . S
C62 C61 1.382 . S
C62 C63 1.392 . S
C62 N64 1.420 . S
C63 H57 0.930 . S
C63 C59 1.407 . S
C63 C62 1.392 . S
N64 C62 1.420 . S
N64 C65 1.244 . S
C65 N64 1.244 . S
H66 C69 0.929 . S
H67 C72 0.929 . S
H68 C74 0.930 . S
C69 H66 0.929 . S
C69 C70 1.398 . S
C69 C71 1.396 . S
C70 C69 1.398 . S
C70 C74 1.407 . S
C71 C69 1.396 . S
C71 C72 1.394 . S
C72 H67 0.929 . S
C72 C71 1.394 . S
C72 C73 1.382 . S
C73 C72 1.382 . S
C73 C74 1.392 . S
C73 N75 1.420 . S
C74 H68 0.930 . S
C74 C70 1.407 . S
C74 C73 1.392 . S
N75 C73 1.420 . S
N75 C76 1.244 . S
C76 N75 1.244 . S
H77 C80 0.929 . S
H78 C83 0.929 . S
H79 C85 0.930 . S
C80 H77 0.929 . S
C80 C81 1.398 . S
C80 C82 1.396 . S
C81 C80 1.398 . S
C81 C85 1.407 . S
C82 C80 1.396 . S
C82 C83 1.394 . S
C83 H78 0.929 . S
C83 C82 1.394 . S
C83 C84 1.382 . S
C84 C83 1.382 . S
C84 C85 1.392 . S
C84 N86 1.420 . S
C85 H79 0.930 . S
C85 C81 1.407 . S
C85 C84 1.392 . S
N86 C84 1.420 . S
N86 C87 1.244 . S
C87 N86 1.244 . S
H88 C91 0.929 . S
H89 C94 0.929 . S
H90 C96 0.930 . S
C91 H88 0.929 . S
C91 C92 1.398 . S
C91 C93 1.396 . S
C92 C91 1.398 . S
C92 C96 1.407 . S
C93 C91 1.396 . S
C93 C94 1.394 . S
C94 H89 0.929 . S
C94 C93 1.394 . S
C94 C95 1.382 . S
C95 C94 1.382 . S
C95 C96 1.392 . S
C95 N97 1.420 . S
C96 H90 0.930 . S
C96 C92 1.407 . S
C96 C95 1.392 . S
N97 C95 1.420 . S
N97 C98 1.244 . S
C98 N97 1.244 . S
H99 C102 0.929 . S
H100 C105 0.929 . S
H101 C107 0.930 . S
C102 H99 0.929 . S
C102 C103 1.398 . S
C102 C104 1.396 . S
C103 C102 1.398 . S
C103 C107 1.407 . S
C104 C102 1.396 . S
C104 C105 1.394 . S
C105 H100 0.929 . S
C105 C104 1.394 . S
C105 C106 1.382 . S
C106 C105 1.382 . S
C106 C107 1.392 . S
C106 N108 1.420 . S
C107 H101 0.930 . S
C107 C103 1.407 . S
C107 C106 1.392 . S
N108 C106 1.420 . S
N108 C109 1.244 . S
C109 N108 1.244 . S
H110 C113 0.929 . S
H111 C116 0.929 . S
H112 C118 0.930 . S
C113 H110 0.929 . S
C113 C114 1.398 . S
C113 C115 1.396 . S
C114 C113 1.398 . S
C114 C118 1.407 . S
C115 C113 1.396 . S
C115 C116 1.394 . S
C116 H111 0.929 . S
C116 C115 1.394 . S
C116 C117 1.382 . S
C117 C116 1.382 . S
C117 C118 1.392 . S
C117 N119 1.420 . S
C118 H112 0.930 . S
C118 C114 1.407 . S
C118 C117 1.392 . S
N119 C117 1.420 . S
N119 C120 1.244 . S
C120 N119 1.244 . S
H121 C124 0.929 . S
H122 C127 0.929 . S
H123 C129 0.930 . S
C124 H121 0.929 . S
C124 C125 1.398 . S
C124 C126 1.396 . S
C125 C124 1.398 . S
C125 C129 1.407 . S
C126 C124 1.396 . S
C126 C127 1.394 . S
C127 H122 0.929 . S
C127 C126 1.394 . S
C127 C128 1.382 . S
C128 C127 1.382 . S
C128 C129 1.392 . S
C128 N130 1.420 . S
C129 H123 0.930 . S
C129 C125 1.407 . S
C129 C128 1.392 . S
N130 C128 1.420 . S
N130 C131 1.244 . S
C131 N130 1.244 . S
H132 C135 0.929 . S
H133 C138 0.929 . S
H134 C140 0.930 . S
C135 H132 0.929 . S
C135 C136 1.398 . S
C135 C137 1.396 . S
C136 C135 1.398 . S
C136 C140 1.407 . S
C137 C135 1.396 . S
C137 C138 1.394 . S
C138 H133 0.929 . S
C138 C137 1.394 . S
C138 C139 1.382 . S
C139 C138 1.382 . S
C139 C140 1.392 . S
C139 N141 1.420 . S
C140 H134 0.930 . S
C140 C136 1.407 . S
C140 C139 1.392 . S
N141 C139 1.420 . S
N141 C142 1.244 . S
C142 N141 1.244 . S
H143 C146 0.929 . S
H144 C149 0.929 . S
H145 C151 0.930 . S
C146 H143 0.929 . S
C146 C147 1.398 . S
C146 C148 1.396 . S
C147 C146 1.398 . S
C147 C151 1.407 . S
C148 C146 1.396 . S
C148 C149 1.394 . S
C149 H144 0.929 . S
C149 C148 1.394 . S
C149 C150 1.382 . S
C150 C149 1.382 . S
C150 C151 1.392 . S
C150 N152 1.420 . S
C151 H145 0.930 . S
C151 C147 1.407 . S
C151 C150 1.392 . S
N152 C150 1.420 . S
N152 C153 1.244 . S
C153 N152 1.244 . S
H154 C157 0.929 . S
H155 C160 0.929 . S
H156 C162 0.930 . S
C157 H154 0.929 . S
C157 C158 1.398 . S
C157 C159 1.396 . S
C158 C157 1.398 . S
C158 C162 1.407 . S
C159 C157 1.396 . S
C159 C160 1.394 . S
C160 H155 0.929 . S
C160 C159 1.394 . S
C160 C161 1.382 . S
C161 C160 1.382 . S
C161 C162 1.392 . S
C161 N163 1.420 . S
C162 H156 0.930 . S
C162 C158 1.407 . S
C162 C161 1.392 . S
N163 C161 1.420 . S
N163 C164 1.244 . S
C164 N163 1.244 . S
H165 C168 0.929 . S
H166 C171 0.929 . S
H167 C173 0.930 . S
C168 H165 0.929 . S
C168 C169 1.398 . S
C168 C170 1.396 . S
C169 C168 1.398 . S
C169 C173 1.407 . S
C170 C168 1.396 . S
C170 C171 1.394 . S
C171 H166 0.929 . S
C171 C170 1.394 . S
C171 C172 1.382 . S
C172 C171 1.382 . S
C172 C173 1.392 . S
C172 N174 1.420 . S
C173 H167 0.930 . S
C173 C169 1.407 . S
C173 C172 1.392 . S
N174 C172 1.420 . S
N174 C175 1.244 . S
C175 N174 1.244 . S
H176 C179 0.929 . S
H177 C182 0.929 . S
H178 C184 0.930 . S
C179 H176 0.929 . S
C179 C180 1.398 . S
C179 C181 1.396 . S
C180 C179 1.398 . S
C180 C184 1.407 . S
C181 C179 1.396 . S
C181 C182 1.394 . S
C182 H177 0.929 . S
C182 C181 1.394 . S
C182 C183 1.382 . S
C183 C182 1.382 . S
C183 C184 1.392 . S
C183 N185 1.420 . S
C184 H178 0.930 . S
C184 C180 1.407 . S
C184 C183 1.392 . S
N185 C183 1.420 . S
N185 C186 1.244 . S
C186 N185 1.244 . S
H187 C190 0.929 . S
H188 C193 0.929 . S
H189 C195 0.930 . S
C190 H187 0.929 . S
C190 C191 1.398 . S
C190 C192 1.396 . S
C191 C190 1.398 . S
C191 C195 1.407 . S
C192 C190 1.396 . S
C192 C193 1.394 . S
C193 H188 0.929 . S
C193 C192 1.394 . S
C193 C194 1.382 . S
C194 C193 1.382 . S
C194 C195 1.392 . S
C194 N196 1.420 . S
C195 H189 0.930 . S
C195 C191 1.407 . S
C195 C194 1.392 . S
N196 C194 1.420 . S
N196 C197 1.244 . S
C197 N196 1.244 . S
H198 C201 0.929 . S
H199 C204 0.929 . S
H200 C206 0.930 . S
C201 H198 0.929 . S
C201 C202 1.398 . S
C201 C203 1.396 . S
C202 C201 1.398 . S
C202 C206 1.407 . S
C203 C201 1.396 . S
C203 C204 1.394 . S
C204 H199 0.929 . S
C204 C203 1.394 . S
C204 C205 1.382 . S
C205 C204 1.382 . S
C205 C206 1.392 . S
C205 N207 1.420 . S
C206 H200 0.930 . S
C206 C202 1.407 . S
C206 C205 1.392 . S
N207 C205 1.420 . S
N207 C208 1.244 . S
C208 N207 1.244 . S
H209 C212 0.929 . S
H210 C215 0.929 . S
H211 C217 0.930 . S
C212 H209 0.929 . S
C212 C213 1.398 . S
C212 C214 1.396 . S
C213 C212 1.398 . S
C213 C217 1.407 . S
C214 C212 1.396 . S
C214 C215 1.394 . S
C215 H210 0.929 . S
C215 C214 1.394 . S
C215 C216 1.382 . S
C216 C215 1.382 . S
C216 C217 1.392 . S
C216 N218 1.420 . S
C217 H211 0.930 . S
C217 C213 1.407 . S
C217 C216 1.392 . S
N218 C216 1.420 . S
N218 C219 1.244 . S
C219 N218 1.244 . S
H220 C223 0.929 . S
H221 C226 0.929 . S
H222 C228 0.930 . S
C223 H220 0.929 . S
C223 C224 1.398 . S
C223 C225 1.396 . S
C224 C223 1.398 . S
C224 C228 1.407 . S
C225 C223 1.396 . S
C225 C226 1.394 . S
C226 H221 0.929 . S
C226 C225 1.394 . S
C226 C227 1.382 . S
C227 C226 1.382 . S
C227 C228 1.392 . S
C227 N229 1.420 . S
C228 H222 0.930 . S
C228 C224 1.407 . S
C228 C227 1.392 . S
N229 C227 1.420 . S
N229 C230 1.244 . S
C230 N229 1.244 . S
H231 C234 0.929 . S
H232 C237 0.929 . S
H233 C239 0.930 . S
C234 H231 0.929 . S
C234 C235 1.398 . S
C234 C236 1.396 . S
C235 C234 1.398 . S
C235 C239 1.407 . S
C236 C234 1.396 . S
C236 C237 1.394 . S
C237 H232 0.929 . S
C237 C236 1.394 . S
C237 C238 1.382 . S
C238 C237 1.382 . S
C238 C239 1.392 . S
C238 N240 1.420 . S
C239 H233 0.930 . S
C239 C235 1.407 . S
C239 C238 1.392 . S
N240 C238 1.420 . S
N240 C241 1.244 . S
C241 N240 1.244 . S
H242 C245 0.929 . S
H243 C248 0.929 . S
H244 C250 0.930 . S
C245 H242 0.929 . S
C245 C246 1.398 . S
C245 C247 1.396 . S
C246 C245 1.398 . S
C246 C250 1.407 . S
C247 C245 1.396 . S
C247 C248 1.394 . S
C248 H243 0.929 . S
C248 C247 1.394 . S
C248 C249 1.382 . S
C249 C248 1.382 . S
C249 C250 1.392 . S
C249 N251 1.420 . S
C250 H244 0.930 . S
C250 C246 1.407 . S
C250 C249 1.392 . S
N251 C249 1.420 . S
N251 C252 1.244 . S
C252 N251 1.244 . S
H253 C256 0.929 . S
H254 C259 0.929 . S
H255 C261 0.930 . S
C256 H253 0.929 . S
C256 C257 1.398 . S
C256 C258 1.396 . S
C257 C256 1.398 . S
C257 C261 1.407 . S
C258 C256 1.396 . S
C258 C259 1.394 . S
C259 H254 0.929 . S
C259 C258 1.394 . S
C259 C260 1.382 . S
C260 C259 1.382 . S
C260 C261 1.392 . S
C260 N262 1.420 . S
C261 H255 0.930 . S
C261 C257 1.407 . S
C261 C260 1.392 . S
N262 C260 1.420 . S
N262 C263 1.244 . S
C263 N262 1.244 . S
H264 C267 0.929 . S
H265 C270 0.929 . S
H266 C272 0.930 . S
C267 H264 0.929 . S
C267 C268 1.398 . S
C267 C269 1.396 . S
C268 C267 1.398 . S
C268 C272 1.407 . S
C269 C267 1.396 . S
C269 C270 1.394 . S
C270 H265 0.929 . S
C270 C269 1.394 . S
C270 C271 1.382 . S
C271 C270 1.382 . S
C271 C272 1.392 . S
C271 N273 1.420 . S
C272 H266 0.930 . S
C272 C268 1.407 . S
C272 C271 1.392 . S
N273 C271 1.420 . S
N273 C274 1.244 . S
C274 N273 1.244 . S
H275 C278 0.929 . S
H276 C281 0.929 . S
H277 C283 0.930 . S
C278 H275 0.929 . S
C278 C279 1.398 . S
C278 C280 1.396 . S
C279 C278 1.398 . S
C279 C283 1.407 . S
C280 C278 1.396 . S
C280 C281 1.394 . S
C281 H276 0.929 . S
C281 C280 1.394 . S
C281 C282 1.382 . S
C282 C281 1.382 . S
C282 C283 1.392 . S
C282 N284 1.420 . S
C283 H277 0.930 . S
C283 C279 1.407 . S
C283 C282 1.392 . S
N284 C282 1.420 . S
N284 C285 1.244 . S
C285 N284 1.244 . S
H286 C289 0.929 . S
H287 C292 0.929 . S
H288 C294 0.930 . S
C289 H286 0.929 . S
C289 C290 1.398 . S
C289 C291 1.396 . S
C290 C289 1.398 . S
C290 C294 1.407 . S
C291 C289 1.396 . S
C291 C292 1.394 . S
C292 H287 0.929 . S
C292 C291 1.394 . S
C292 C293 1.382 . S
C293 C292 1.382 . S
C293 C294 1.392 . S
C293 N295 1.420 . S
C294 H288 0.930 . S
C294 C290 1.407 . S
C294 C293 1.392 . S
N295 C293 1.420 . S
N295 C296 1.244 . S
C296 N295 1.244 . S
H297 C300 0.929 . S
H298 C303 0.929 . S
H299 C305 0.930 . S
C300 H297 0.929 . S
C300 C301 1.398 . S
C300 C302 1.396 . S
C301 C300 1.398 . S
C301 C305 1.407 . S
C302 C300 1.396 . S
C302 C303 1.394 . S
C303 H298 0.929 . S
C303 C302 1.394 . S
C303 C304 1.382 . S
C304 C303 1.382 . S
C304 C305 1.392 . S
C304 N306 1.420 . S
C305 H299 0.930 . S
C305 C301 1.407 . S
C305 C304 1.392 . S
N306 C304 1.420 . S
N306 C307 1.244 . S
C307 N306 1.244 . S
H308 C311 0.929 . S
H309 C314 0.929 . S
H310 C316 0.930 . S
C311 H308 0.929 . S
C311 C312 1.398 . S
C311 C313 1.396 . S
C312 C311 1.398 . S
C312 C316 1.407 . S
C313 C311 1.396 . S
C313 C314 1.394 . S
C314 H309 0.929 . S
C314 C313 1.394 . S
C314 C315 1.382 . S
C315 C314 1.382 . S
C315 C316 1.392 . S
C315 N317 1.420 . S
C316 H310 0.930 . S
C316 C312 1.407 . S
C316 C315 1.392 . S
N317 C315 1.420 . S
N317 C318 1.244 . S
C318 N317 1.244 . S
H319 C322 0.929 . S
H320 C325 0.929 . S
H321 C327 0.930 . S
C322 H319 0.929 . S
C322 C323 1.398 . S
C322 C324 1.396 . S
C323 C322 1.398 . S
C323 C327 1.407 . S
C324 C322 1.396 . S
C324 C325 1.394 . S
C325 H320 0.929 . S
C325 C324 1.394 . S
C325 C326 1.382 . S
C326 C325 1.382 . S
C326 C327 1.392 . S
C326 N328 1.420 . S
C327 H321 0.930 . S
C327 C323 1.407 . S
C327 C326 1.392 . S
N328 C326 1.420 . S
N328 C329 1.244 . S
C329 N328 1.244 . S
H330 C333 0.929 . S
H331 C336 0.929 . S
H332 C338 0.930 . S
C333 H330 0.929 . S
C333 C334 1.398 . S
C333 C335 1.396 . S
C334 C333 1.398 . S
C334 C338 1.407 . S
C335 C333 1.396 . S
C335 C336 1.394 . S
C336 H331 0.929 . S
C336 C335 1.394 . S
C336 C337 1.382 . S
C337 C336 1.382 . S
C337 C338 1.392 . S
C337 N339 1.420 . S
C338 H332 0.930 . S
C338 C334 1.407 . S
C338 C337 1.392 . S
N339 C337 1.420 . S
N339 C340 1.244 . S
C340 N339 1.244 . S
H341 C344 0.929 . S
H342 C347 0.929 . S
H343 C349 0.930 . S
C344 H341 0.929 . S
C344 C345 1.398 . S
C344 C346 1.396 . S
C345 C344 1.398 . S
C345 C349 1.407 . S
C346 C344 1.396 . S
C346 C347 1.394 . S
C347 H342 0.929 . S
C347 C346 1.394 . S
C347 C348 1.382 . S
C348 C347 1.382 . S
C348 C349 1.392 . S
C348 N350 1.420 . S
C349 H343 0.930 . S
C349 C345 1.407 . S
C349 C348 1.392 . S
N350 C348 1.420 . S
N350 C351 1.244 . S
C351 N350 1.244 . S
Cu352 N353 1.999 . S
Cu352 O358 1.974 1_554 S
Cu352 N363 1.985 . S
Cu352 O372 1.959 . S
N353 Cu352 1.999 . S
N353 C355 1.263 1_554 S
N353 C357 1.389 . S
N354 C355 1.358 . S
N354 C356 1.400 . S
C355 N353 1.263 1_556 S
C355 N354 1.358 . S
C355 H361 0.930 . S
C356 N354 1.400 . S
C356 C357 1.351 1_556 S
C356 H373 0.930 . S
C357 N353 1.389 . S
C357 C356 1.351 1_554 S
C357 H362 0.930 . S
O358 Cu352 1.974 1_556 S
O358 C368 1.282 . S
C359 O360 1.261 . S
C359 O372 1.251 . S
O360 C359 1.261 . S
H361 C355 0.930 . S
H362 C357 0.930 . S
N363 Cu352 1.985 . S
N363 C365 1.335 . S
N363 C366 1.390 . S
N364 C365 1.345 . S
N364 C367 1.336 . S
C365 N363 1.335 . S
C365 N364 1.345 . S
C365 H370 0.930 . S
C366 N363 1.390 . S
C366 C367 1.346 . S
C366 H371 0.930 . S
C367 N364 1.336 . S
C367 C366 1.346 . S
C367 H374 0.929 . S
C368 O358 1.282 . S
C368 O369 1.216 . S
O369 C368 1.216 . S
H370 C365 0.930 . S
H371 C366 0.930 . S
O372 Cu352 1.959 . S
O372 C359 1.251 . S
H373 C356 0.930 . S
H374 C367 0.929 . S
Cu375 N376 1.999 . S
Cu375 O381 1.974 . S
Cu375 N386 2.010 . S
Cu375 O395 1.959 1_554 S
N376 Cu375 1.999 . S
N376 C378 1.263 . S
N376 C380 1.389 . S
N377 C378 1.358 . S
N377 C379 1.400 . S
C378 N376 1.263 . S
C378 N377 1.358 . S
C378 H384 0.930 . S
C379 N377 1.400 . S
C379 C380 1.351 . S
C379 H396 0.930 . S
C380 N376 1.389 . S
C380 C379 1.351 . S
C380 H385 0.930 . S
O381 Cu375 1.974 . S
O381 C391 1.282 . S
C382 O383 1.278 . S
C382 O395 1.251 . S
O383 C382 1.278 . S
H384 C378 0.930 . S
H385 C380 0.930 . S
N386 Cu375 2.010 . S
N386 C388 1.297 1_554 S
N386 C389 1.399 . S
N387 C388 1.345 . S
N387 C390 1.336 . S
C388 N386 1.297 1_556 S
C388 N387 1.345 . S
C388 H393 0.930 . S
C389 N386 1.399 . S
C389 C390 1.346 1_554 S
C389 H394 0.930 . S
C390 N387 1.336 . S
C390 C389 1.346 1_556 S
C390 H397 0.929 . S
C391 O381 1.282 . S
C391 O392 1.216 . S
O392 C391 1.216 . S
H393 C388 0.930 . S
H394 C389 0.930 . S
O395 Cu375 1.959 1_556 S
O395 C382 1.251 . S
H396 C379 0.930 . S
H397 C390 0.929 . S
Cu398 N399 1.999 1_554 S
Cu398 O404 1.974 1_554 S
Cu398 N409 1.985 . S
Cu398 O418 1.959 . S
N399 Cu398 1.999 1_556 S
N399 C401 1.263 . S
N399 C403 1.389 . S
N400 C401 1.358 . S
N400 C402 1.400 . S
C401 N399 1.263 . S
C401 N400 1.358 . S
C401 H407 0.930 . S
C402 N400 1.400 . S
C402 C403 1.351 . S
C402 H419 0.930 . S
C403 N399 1.389 . S
C403 C402 1.351 . S
C403 H408 0.930 1_556 S
O404 Cu398 1.974 1_556 S
O404 C414 1.282 . S
C405 O406 1.261 . S
C405 O418 1.251 . S
O406 C405 1.261 . S
H407 C401 0.930 . S
H408 C403 0.930 1_554 S
N409 Cu398 1.985 . S
N409 C411 1.335 . S
N409 C412 1.390 . S
N410 C411 1.345 . S
N410 C413 1.336 . S
C411 N409 1.335 . S
C411 N410 1.345 . S
C411 H416 0.930 . S
C412 N409 1.390 . S
C412 C413 1.346 . S
C412 H417 0.930 . S
C413 N410 1.336 . S
C413 C412 1.346 . S
C413 H420 0.929 . S
C414 O404 1.282 . S
C414 O415 1.216 . S
O415 C414 1.216 . S
H416 C411 0.930 . S
H417 C412 0.930 . S
O418 Cu398 1.959 . S
O418 C405 1.251 . S
H419 C402 0.930 . S
H420 C413 0.929 . S
Cu421 N422 1.999 . S
Cu421 O427 1.974 . S
Cu421 N432 1.985 1_554 S
Cu421 O441 1.959 1_554 S
N422 Cu421 1.999 . S
N422 C424 1.263 . S
N422 C426 1.389 . S
N423 C424 1.358 . S
N423 C425 1.400 . S
C424 N422 1.263 . S
C424 N423 1.358 . S
C424 H430 0.930 . S
C425 N423 1.400 . S
C425 C426 1.351 . S
C425 H442 0.930 . S
C426 N422 1.389 . S
C426 C425 1.351 . S
C426 H431 0.930 . S
O427 Cu421 1.974 . S
O427 C437 1.282 . S
C428 O429 1.261 . S
C428 O441 1.251 . S
O429 C428 1.261 . S
H430 C424 0.930 . S
H431 C426 0.930 . S
N432 Cu421 1.985 1_556 S
N432 C434 1.335 . S
N432 C435 1.390 . S
N433 C434 1.345 . S
N433 C436 1.336 . S
C434 N432 1.335 . S
C434 N433 1.345 . S
C434 H439 0.930 . S
C435 N432 1.390 . S
C435 C436 1.346 . S
C435 H440 0.930 1_556 S
C436 N433 1.336 . S
C436 C435 1.346 . S
C436 H443 0.929 . S
C437 O427 1.282 . S
C437 O438 1.216 . S
O438 C437 1.216 . S
H439 C434 0.930 . S
H440 C435 0.930 1_554 S
O441 Cu421 1.959 1_556 S
O441 C428 1.251 . S
H442 C425 0.930 . S
H443 C436 0.929 . S
Cu444 N445 1.999 . S
Cu444 O450 1.974 . S
Cu444 N455 1.985 . S
Cu444 O464 1.959 1_455 S
N445 Cu444 1.999 . S
N445 C447 1.263 . S
N445 C449 1.389 . S
N446 C447 1.358 . S
N446 C448 1.400 . S
C447 N445 1.263 . S
C447 N446 1.358 . S
C447 H453 0.930 . S
C448 N446 1.400 . S
C448 C449 1.351 . S
C448 H465 0.930 . S
C449 N445 1.389 . S
C449 C448 1.351 . S
C449 H454 0.930 . S
O450 Cu444 1.974 . S
O450 C460 1.282 . S
C451 O452 1.261 . S
C451 O464 1.251 . S
O452 C451 1.261 . S
H453 C447 0.930 . S
H454 C449 0.930 . S
N455 Cu444 1.985 . S
N455 C457 1.335 1_455 S
N455 C458 1.390 . S
N456 C457 1.345 . S
N456 C459 1.336 . S
C457 N455 1.335 1_655 S
C457 N456 1.345 . S
C457 H462 0.930 . S
C458 N455 1.390 . S
C458 C459 1.346 1_455 S
C458 H463 0.930 . S
C459 N456 1.336 . S
C459 C458 1.346 1_655 S
C459 H466 0.929 . S
C460 O450 1.282 . S
C460 O461 1.216 . S
O461 C460 1.216 . S
H462 C457 0.930 . S
H463 C458 0.930 . S
O464 Cu444 1.959 1_655 S
O464 C451 1.251 . S
H465 C448 0.930 . S
H466 C459 0.929 . S
Cu467 N468 1.999 . S
Cu467 O473 1.974 . S
Cu467 N478 1.985 1_545 S
Cu467 O487 1.959 1_545 S
N468 Cu467 1.999 . S
N468 C470 1.263 . S
N468 C472 1.389 . S
N469 C470 1.358 . S
N469 C471 1.400 . S
C470 N468 1.263 . S
C470 N469 1.358 . S
C470 H476 0.930 . S
C471 N469 1.400 . S
C471 C472 1.351 . S
C471 H488 0.930 . S
C472 N468 1.389 . S
C472 C471 1.351 . S
C472 H477 0.930 . S
O473 Cu467 1.974 . S
O473 C483 1.282 . S
C474 O475 1.261 . S
C474 O487 1.251 . S
O475 C474 1.261 . S
H476 C470 0.930 . S
H477 C472 0.930 . S
N478 Cu467 1.985 1_565 S
N478 C480 1.335 . S
N478 C481 1.390 . S
N479 C480 1.345 . S
N479 C482 1.336 . S
C480 N478 1.335 . S
C480 N479 1.345 . S
C480 H485 0.930 . S
C481 N478 1.390 . S
C481 C482 1.346 . S
C481 H486 0.913 1_565 S
C482 N479 1.336 . S
C482 C481 1.346 . S
C482 H489 0.929 . S
C483 O473 1.282 . S
C483 O484 1.216 . S
O484 C483 1.216 . S
H485 C480 0.930 . S
H486 C481 0.913 1_545 S
O487 Cu467 1.959 1_565 S
O487 C474 1.251 . S
H488 C471 0.930 . S
H489 C482 0.929 . S
Cu490 N491 1.999 . S
Cu490 O496 1.974 . S
Cu490 N501 1.985 1_655 S
Cu490 O510 1.959 1_655 S
N491 Cu490 1.999 . S
N491 C493 1.263 . S
N491 C495 1.389 . S
N492 C493 1.358 . S
N492 C494 1.400 . S
C493 N491 1.263 . S
C493 N492 1.358 . S
C493 H499 0.930 . S
C494 N492 1.400 . S
C494 C495 1.351 . S
C494 H511 0.930 . S
C495 N491 1.389 . S
C495 C494 1.351 . S
C495 H500 0.930 . S
O496 Cu490 1.974 . S
O496 C506 1.282 . S
C497 O498 1.261 . S
C497 O510 1.251 . S
O498 C497 1.261 . S
H499 C493 0.930 . S
H500 C495 0.930 . S
N501 Cu490 1.985 1_455 S
N501 C503 1.335 . S
N501 C504 1.390 . S
N502 C503 1.345 . S
N502 C505 1.336 . S
C503 N501 1.335 . S
C503 N502 1.345 . S
C503 H508 0.930 . S
C504 N501 1.390 . S
C504 C505 1.346 . S
C504 H509 0.896 1_455 S
C505 N502 1.336 . S
C505 C504 1.346 . S
C505 H512 0.929 . S
C506 O496 1.282 . S
C506 O507 1.216 . S
O507 C506 1.216 . S
H508 C503 0.930 . S
H509 C504 0.896 1_655 S
O510 Cu490 1.959 1_455 S
O510 C497 1.251 . S
H511 C494 0.930 . S
H512 C505 0.929 . S
Cu513 N514 1.999 . S
Cu513 O519 1.974 . S
Cu513 N524 1.985 1_545 S
Cu513 O533 1.959 1_545 S
N514 Cu513 1.999 . S
N514 C516 1.263 . S
N514 C518 1.389 . S
N515 C516 1.358 . S
N515 C517 1.400 . S
C516 N514 1.263 . S
C516 N515 1.358 . S
C516 H522 0.930 . S
C517 N515 1.400 . S
C517 C518 1.351 . S
C517 H534 0.930 . S
C518 N514 1.389 . S
C518 C517 1.351 . S
C518 H523 0.930 . S
O519 Cu513 1.974 . S
O519 C529 1.282 . S
C520 O521 1.261 . S
C520 O533 1.251 . S
O521 C520 1.261 . S
H522 C516 0.930 . S
H523 C518 0.930 . S
N524 Cu513 1.985 1_565 S
N524 C526 1.335 . S
N524 C527 1.390 . S
N525 C526 1.345 . S
N525 C528 1.336 . S
C526 N524 1.335 . S
C526 N525 1.345 . S
C526 H531 0.930 . S
C527 N524 1.390 . S
C527 C528 1.346 . S
C527 H532 0.930 . S
C528 N525 1.336 . S
C528 C527 1.346 . S
C528 H535 0.929 . S
C529 O519 1.282 . S
C529 O530 1.216 . S
O530 C529 1.216 . S
H531 C526 0.930 . S
H532 C527 0.930 . S
O533 Cu513 1.959 1_565 S
O533 C520 1.251 . S
H534 C517 0.930 . S
H535 C528 0.929 . S
Cu536 N537 1.999 . S
Cu536 O542 1.974 . S
Cu536 N547 1.985 . S
Cu536 O556 1.959 1_455 S
N537 Cu536 1.999 . S
N537 C539 1.263 . S
N537 C541 1.389 . S
N538 C539 1.358 . S
N538 C540 1.400 . S
C539 N537 1.263 . S
C539 N538 1.358 . S
C539 H545 0.930 . S
C540 N538 1.400 . S
C540 C541 1.351 . S
C540 H557 0.930 . S
C541 N537 1.389 . S
C541 C540 1.351 . S
C541 H546 0.930 . S
O542 Cu536 1.974 . S
O542 C552 1.282 . S
C543 O544 1.261 . S
C543 O556 1.251 . S
O544 C543 1.261 . S
H545 C539 0.930 . S
H546 C541 0.930 . S
N547 Cu536 1.985 . S
N547 C549 1.335 1_455 S
N547 C550 1.390 . S
N548 C549 1.345 . S
N548 C551 1.336 . S
C549 N547 1.335 1_655 S
C549 N548 1.345 . S
C549 H554 0.930 . S
C550 N547 1.390 . S
C550 C551 1.346 1_455 S
C550 H555 0.930 . S
C551 N548 1.336 . S
C551 C550 1.346 1_655 S
C551 H558 0.929 . S
C552 O542 1.282 . S
C552 O553 1.216 . S
O553 C552 1.216 . S
H554 C549 0.930 . S
H555 C550 0.930 . S
O556 Cu536 1.959 1_655 S
O556 C543 1.251 . S
H557 C540 0.930 . S
H558 C551 0.929 . S
Cu559 N560 1.999 . S
Cu559 O565 1.974 . S
Cu559 N570 1.985 1_545 S
Cu559 O579 1.959 1_545 S
N560 Cu559 1.999 . S
N560 C562 1.263 . S
N560 C564 1.389 . S
N561 C562 1.358 . S
N561 C563 1.400 . S
C562 N560 1.263 . S
C562 N561 1.358 . S
C562 H568 0.930 . S
C563 N561 1.400 . S
C563 C564 1.351 . S
C563 H580 0.930 . S
C564 N560 1.389 . S
C564 C563 1.351 . S
C564 H569 0.930 . S
O565 Cu559 1.974 . S
O565 C575 1.282 . S
C566 O567 1.261 1_565 S
C566 O579 1.251 . S
O567 C566 1.261 1_545 S
H568 C562 0.930 . S
H569 C564 0.930 . S
N570 Cu559 1.985 1_565 S
N570 C572 1.335 . S
N570 C573 1.390 . S
N571 C572 1.345 . S
N571 C574 1.336 . S
C572 N570 1.335 . S
C572 N571 1.345 . S
C572 H577 0.930 . S
C573 N570 1.390 . S
C573 C574 1.346 . S
C573 H578 0.930 1_565 S
C574 N571 1.336 . S
C574 C573 1.346 . S
C574 H581 0.929 . S
C575 O565 1.282 . S
C575 O576 1.216 . S
O576 C575 1.216 . S
H577 C572 0.930 . S
H578 C573 0.930 1_545 S
O579 Cu559 1.959 1_565 S
O579 C566 1.251 . S
H580 C563 0.930 . S
H581 C574 0.929 . S
Cu582 N583 1.999 . S
Cu582 O588 1.974 . S
Cu582 N593 1.985 . S
Cu582 O602 1.959 . S
N583 Cu582 1.999 . S
N583 C585 1.263 1_455 S
N583 C587 1.389 . S
N584 C585 1.358 . S
N584 C586 1.413 . S
C585 N583 1.263 1_655 S
C585 N584 1.358 . S
C585 H591 0.930 . S
C586 N584 1.413 . S
C586 C587 1.335 1_655 S
C586 H603 0.934 . S
C587 N583 1.389 . S
C587 C586 1.335 1_455 S
C587 H592 0.930 . S
O588 Cu582 1.974 . S
O588 C598 1.283 1_455 S
C589 O590 1.261 . S
C589 O602 1.251 . S
O590 C589 1.261 . S
H591 C585 0.930 . S
H592 C587 0.930 . S
N593 Cu582 1.985 . S
N593 C595 1.335 . S
N593 C596 1.390 . S
N594 C595 1.345 . S
N594 C597 1.336 . S
C595 N593 1.335 . S
C595 N594 1.345 . S
C595 H600 0.930 . S
C596 N593 1.390 . S
C596 C597 1.346 . S
C596 H601 0.930 . S
C597 N594 1.336 . S
C597 C596 1.346 . S
C597 H604 0.929 . S
C598 O588 1.283 1_655 S
C598 O599 1.217 1_655 S
O599 C598 1.217 1_455 S
H600 C595 0.930 . S
H601 C596 0.930 . S
O602 Cu582 1.959 . S
O602 C589 1.251 . S
H603 C586 0.934 . S
H604 C597 0.929 . S
Cu605 N606 1.999 . S
Cu605 O611 1.974 . S
Cu605 N616 1.998 . S
Cu605 O625 1.959 . S
N606 Cu605 1.999 . S
N606 C608 1.263 . S
N606 C610 1.389 . S
N607 C608 1.358 . S
N607 C609 1.400 . S
C608 N606 1.263 . S
C608 N607 1.358 . S
C608 H614 0.930 . S
C609 N607 1.400 . S
C609 C610 1.351 . S
C609 H626 0.930 . S
C610 N606 1.389 . S
C610 C609 1.351 . S
C610 H615 0.930 . S
O611 Cu605 1.974 . S
O611 C621 1.282 . S
C612 O613 1.261 1_565 S
C612 O625 1.251 1_565 S
O613 C612 1.261 1_545 S
H614 C608 0.930 . S
H615 C610 0.930 . S
N616 Cu605 1.998 . S
N616 C618 1.314 1_545 S
N616 C619 1.387 . S
N617 C618 1.345 . S
N617 C620 1.336 . S
C618 N616 1.314 1_565 S
C618 N617 1.345 . S
C618 H623 0.930 . S
C619 N616 1.387 . S
C619 C620 1.318 1_545 S
C619 H624 0.960 . S
C620 N617 1.336 . S
C620 C619 1.318 1_565 S
C620 H627 0.929 . S
C621 O611 1.282 . S
C621 O622 1.216 . S
O622 C621 1.216 . S
H623 C618 0.930 . S
H624 C619 0.960 . S
O625 Cu605 1.959 . S
O625 C612 1.251 1_545 S
H626 C609 0.930 . S
H627 C620 0.929 . S
Cu628 N629 1.999 . S
Cu628 O634 1.974 . S
Cu628 N639 1.985 . S
Cu628 O648 1.959 . S
N629 Cu628 1.999 . S
N629 C631 1.263 . S
N629 C633 1.389 . S
N630 C631 1.358 . S
N630 C632 1.400 . S
C631 N629 1.263 . S
C631 N630 1.358 . S
C631 H637 0.930 . S
C632 N630 1.400 . S
C632 C633 1.351 . S
C632 H649 0.930 . S
C633 N629 1.389 . S
C633 C632 1.351 . S
C633 H638 0.930 . S
O634 Cu628 1.974 . S
O634 C644 1.282 . S
C635 O636 1.261 . S
C635 O648 1.251 . S
O636 C635 1.261 . S
H637 C631 0.930 . S
H638 C633 0.930 . S
N639 Cu628 1.985 . S
N639 C641 1.335 . S
N639 C642 1.390 . S
N640 C641 1.345 . S
N640 C643 1.336 . S
C641 N639 1.335 . S
C641 N640 1.345 . S
C641 H646 0.930 . S
C642 N639 1.390 . S
C642 C643 1.346 . S
C642 H647 0.930 . S
C643 N640 1.336 . S
C643 C642 1.346 . S
C643 H650 0.929 . S
C644 O634 1.282 . S
C644 O645 1.216 . S
O645 C644 1.216 . S
H646 C641 0.930 . S
H647 C642 0.930 . S
O648 Cu628 1.959 . S
O648 C635 1.251 . S
H649 C632 0.930 . S
H650 C643 0.929 . S
Cu651 N652 1.999 . S
Cu651 O657 1.974 . S
Cu651 N662 1.985 . S
Cu651 O671 1.959 . S
N652 Cu651 1.999 . S
N652 C654 1.263 . S
N652 C656 1.389 . S
N653 C654 1.358 . S
N653 C655 1.400 . S
C654 N652 1.263 . S
C654 N653 1.358 . S
C654 H660 0.930 . S
C655 N653 1.400 . S
C655 C656 1.351 . S
C655 H672 0.930 . S
C656 N652 1.389 . S
C656 C655 1.351 . S
C656 H661 0.930 . S
O657 Cu651 1.974 . S
O657 C667 1.282 . S
C658 O659 1.261 . S
C658 O671 1.251 . S
O659 C658 1.261 . S
H660 C654 0.930 . S
H661 C656 0.930 . S
N662 Cu651 1.985 . S
N662 C664 1.335 . S
N662 C665 1.390 . S
N663 C664 1.345 . S
N663 C666 1.336 . S
C664 N662 1.335 . S
C664 N663 1.345 . S
C664 H669 0.930 . S
C665 N662 1.390 . S
C665 C666 1.346 . S
C665 H670 0.930 . S
C666 N663 1.336 . S
C666 C665 1.346 . S
C666 H673 0.929 . S
C667 O657 1.282 . S
C667 O668 1.216 . S
O668 C667 1.216 . S
H669 C664 0.930 . S
H670 C665 0.930 . S
O671 Cu651 1.959 . S
O671 C658 1.251 . S
H672 C655 0.930 . S
H673 C666 0.929 . S
Cu674 N675 1.999 . S
Cu674 O680 1.974 . S
Cu674 N685 1.985 . S
Cu674 O694 1.959 . S
N675 Cu674 1.999 . S
N675 C677 1.263 . S
N675 C679 1.389 . S
N676 C677 1.358 . S
N676 C678 1.400 . S
C677 N675 1.263 . S
C677 N676 1.358 . S
C677 H683 0.930 . S
C678 N676 1.400 . S
C678 C679 1.351 . S
C678 H695 0.930 . S
C679 N675 1.389 . S
C679 C678 1.351 . S
C679 H684 0.930 . S
O680 Cu674 1.974 . S
O680 C690 1.282 . S
C681 O682 1.261 . S
C681 O694 1.251 . S
O682 C681 1.261 . S
H683 C677 0.930 . S
H684 C679 0.930 . S
N685 Cu674 1.985 . S
N685 C687 1.335 . S
N685 C688 1.390 . S
N686 C687 1.345 . S
N686 C689 1.336 . S
C687 N685 1.335 . S
C687 N686 1.345 . S
C687 H692 0.930 . S
C688 N685 1.390 . S
C688 C689 1.346 . S
C688 H693 0.930 . S
C689 N686 1.336 . S
C689 C688 1.346 . S
C689 H696 0.929 . S
C690 O680 1.282 . S
C690 O691 1.216 . S
O691 C690 1.216 . S
H692 C687 0.930 . S
H693 C688 0.930 . S
O694 Cu674 1.959 . S
O694 C681 1.251 . S
H695 C678 0.930 . S
H696 C689 0.929 . S
Cu697 N698 1.999 . S
Cu697 O703 1.974 . S
Cu697 N708 1.985 . S
Cu697 O717 1.959 . S
N698 Cu697 1.999 . S
N698 C700 1.263 . S
N698 C702 1.389 . S
N699 C700 1.358 . S
N699 C701 1.400 . S
C700 N698 1.263 . S
C700 N699 1.358 . S
C700 H706 0.930 . S
C701 N699 1.400 . S
C701 C702 1.351 . S
C701 H718 0.930 . S
C702 N698 1.389 . S
C702 C701 1.351 . S
C702 H707 0.930 . S
O703 Cu697 1.974 . S
O703 C713 1.282 . S
C704 O705 1.261 . S
C704 O717 1.251 . S
O705 C704 1.261 . S
H706 C700 0.930 . S
H707 C702 0.930 . S
N708 Cu697 1.985 . S
N708 C710 1.335 . S
N708 C711 1.390 . S
N709 C710 1.345 . S
N709 C712 1.336 . S
C710 N708 1.335 . S
C710 N709 1.345 . S
C710 H715 0.930 . S
C711 N708 1.390 . S
C711 C712 1.346 . S
C711 H716 0.930 . S
C712 N709 1.336 . S
C712 C711 1.346 . S
C712 H719 0.929 . S
C713 O703 1.282 . S
C713 O714 1.216 . S
O714 C713 1.216 . S
H715 C710 0.930 . S
H716 C711 0.930 . S
O717 Cu697 1.959 . S
O717 C704 1.251 . S
H718 C701 0.930 . S
H719 C712 0.929 . S
Cu720 N721 1.999 . S
Cu720 O726 1.974 . S
Cu720 N731 1.985 . S
Cu720 O740 1.959 . S
N721 Cu720 1.999 . S
N721 C723 1.263 . S
N721 C725 1.389 . S
N722 C723 1.358 . S
N722 C724 1.400 . S
C723 N721 1.263 . S
C723 N722 1.358 . S
C723 H729 0.930 . S
C724 N722 1.400 . S
C724 C725 1.351 . S
C724 H741 0.930 . S
C725 N721 1.389 . S
C725 C724 1.351 . S
C725 H730 0.930 . S
O726 Cu720 1.974 . S
O726 C736 1.282 . S
C727 O728 1.261 . S
C727 O740 1.251 . S
O728 C727 1.261 . S
H729 C723 0.930 . S
H730 C725 0.930 . S
N731 Cu720 1.985 . S
N731 C733 1.335 . S
N731 C734 1.390 . S
N732 C733 1.345 . S
N732 C735 1.336 . S
C733 N731 1.335 . S
C733 N732 1.345 . S
C733 H738 0.930 . S
C734 N731 1.390 . S
C734 C735 1.346 . S
C734 H739 0.930 . S
C735 N732 1.336 . S
C735 C734 1.346 . S
C735 H742 0.929 . S
C736 O726 1.282 . S
C736 O737 1.216 . S
O737 C736 1.216 . S
H738 C733 0.930 . S
H739 C734 0.930 . S
O740 Cu720 1.959 . S
O740 C727 1.251 . S
H741 C724 0.930 . S
H742 C735 0.929 . S
Cu743 N744 1.999 . S
Cu743 O749 1.974 . S
Cu743 N754 1.985 . S
Cu743 O763 1.959 . S
N744 Cu743 1.999 . S
N744 C746 1.263 . S
N744 C748 1.389 . S
N745 C746 1.358 . S
N745 C747 1.400 . S
C746 N744 1.263 . S
C746 N745 1.358 . S
C746 H752 0.930 . S
C747 N745 1.400 . S
C747 C748 1.351 . S
C747 H764 0.930 . S
C748 N744 1.389 . S
C748 C747 1.351 . S
C748 H753 0.930 . S
O749 Cu743 1.974 . S
O749 C759 1.282 . S
C750 O751 1.261 . S
C750 O763 1.251 . S
O751 C750 1.261 . S
H752 C746 0.930 . S
H753 C748 0.930 . S
N754 Cu743 1.985 . S
N754 C756 1.335 . S
N754 C757 1.390 . S
N755 C756 1.345 . S
N755 C758 1.336 . S
C756 N754 1.335 . S
C756 N755 1.345 . S
C756 H761 0.930 . S
C757 N754 1.390 . S
C757 C758 1.346 . S
C757 H762 0.930 . S
C758 N755 1.336 . S
C758 C757 1.346 . S
C758 H765 0.929 . S
C759 O749 1.282 . S
C759 O760 1.216 . S
O760 C759 1.216 . S
H761 C756 0.930 . S
H762 C757 0.930 . S
O763 Cu743 1.959 . S
O763 C750 1.251 . S
H764 C747 0.930 . S
H765 C758 0.929 . S
Cu766 N767 1.999 . S
Cu766 O772 1.974 . S
Cu766 N777 1.985 . S
Cu766 O786 1.959 . S
N767 Cu766 1.999 . S
N767 C769 1.263 . S
N767 C771 1.389 . S
N768 C769 1.358 . S
N768 C770 1.400 . S
C769 N767 1.263 . S
C769 N768 1.358 . S
C769 H775 0.930 . S
C770 N768 1.400 . S
C770 C771 1.351 . S
C770 H787 0.930 . S
C771 N767 1.389 . S
C771 C770 1.351 . S
C771 H776 0.930 . S
O772 Cu766 1.974 . S
O772 C782 1.282 . S
C773 O774 1.261 . S
C773 O786 1.251 . S
O774 C773 1.261 . S
H775 C769 0.930 . S
H776 C771 0.930 . S
N777 Cu766 1.985 . S
N777 C779 1.335 . S
N777 C780 1.390 . S
N778 C779 1.345 . S
N778 C781 1.336 . S
C779 N777 1.335 . S
C779 N778 1.345 . S
C779 H784 0.930 . S
C780 N777 1.390 . S
C780 C781 1.346 . S
C780 H785 0.930 . S
C781 N778 1.336 . S
C781 C780 1.346 . S
C781 H788 0.929 . S
C782 O772 1.282 . S
C782 O783 1.216 . S
O783 C782 1.216 . S
H784 C779 0.930 . S
H785 C780 0.930 . S
O786 Cu766 1.959 . S
O786 C773 1.251 . S
H787 C770 0.930 . S
H788 C781 0.929 . S
Cu789 N790 1.999 . S
Cu789 O795 1.974 . S
Cu789 N800 1.985 . S
Cu789 O809 1.959 . S
N790 Cu789 1.999 . S
N790 C792 1.263 . S
N790 C794 1.389 . S
N791 C792 1.358 . S
N791 C793 1.400 . S
C792 N790 1.263 . S
C792 N791 1.358 . S
C792 H798 0.930 . S
C793 N791 1.400 . S
C793 C794 1.351 . S
C793 H810 0.930 . S
C794 N790 1.389 . S
C794 C793 1.351 . S
C794 H799 0.930 . S
O795 Cu789 1.974 . S
O795 C805 1.282 . S
C796 O797 1.261 . S
C796 O809 1.251 . S
O797 C796 1.261 . S
H798 C792 0.930 . S
H799 C794 0.930 . S
N800 Cu789 1.985 . S
N800 C802 1.335 . S
N800 C803 1.390 . S
N801 C802 1.345 . S
N801 C804 1.336 . S
C802 N800 1.335 . S
C802 N801 1.345 . S
C802 H807 0.930 . S
C803 N800 1.390 . S
C803 C804 1.346 . S
C803 H808 0.930 . S
C804 N801 1.336 . S
C804 C803 1.346 . S
C804 H811 0.929 . S
C805 O795 1.282 . S
C805 O806 1.216 . S
O806 C805 1.216 . S
H807 C802 0.930 . S
H808 C803 0.930 . S
O809 Cu789 1.959 . S
O809 C796 1.251 . S
H810 C793 0.930 . S
H811 C804 0.929 . S
Cu812 N813 1.999 . S
Cu812 O818 1.974 . S
Cu812 N823 1.985 . S
Cu812 O832 1.959 . S
N813 Cu812 1.999 . S
N813 C815 1.263 . S
N813 C817 1.389 . S
N814 C815 1.358 . S
N814 C816 1.400 . S
C815 N813 1.263 . S
C815 N814 1.358 . S
C815 H821 0.930 . S
C816 N814 1.400 . S
C816 C817 1.351 . S
C816 H833 0.930 . S
C817 N813 1.389 . S
C817 C816 1.351 . S
C817 H822 0.930 . S
O818 Cu812 1.974 . S
O818 C828 1.282 . S
C819 O820 1.261 . S
C819 O832 1.251 . S
O820 C819 1.261 . S
H821 C815 0.930 . S
H822 C817 0.930 . S
N823 Cu812 1.985 . S
N823 C825 1.335 . S
N823 C826 1.390 . S
N824 C825 1.345 . S
N824 C827 1.336 . S
C825 N823 1.335 . S
C825 N824 1.345 . S
C825 H830 0.930 . S
C826 N823 1.390 . S
C826 C827 1.346 . S
C826 H831 0.930 . S
C827 N824 1.336 . S
C827 C826 1.346 . S
C827 H834 0.929 . S
C828 O818 1.282 . S
C828 O829 1.216 . S
O829 C828 1.216 . S
H830 C825 0.930 . S
H831 C826 0.930 . S
O832 Cu812 1.959 . S
O832 C819 1.251 . S
H833 C816 0.930 . S
H834 C827 0.929 . S
Cu835 N836 1.999 . S
Cu835 O841 1.974 . S
Cu835 N846 1.985 . S
Cu835 O855 1.959 . S
N836 Cu835 1.999 . S
N836 C838 1.263 . S
N836 C840 1.389 . S
N837 C838 1.358 . S
N837 C839 1.400 . S
C838 N836 1.263 . S
C838 N837 1.358 . S
C838 H844 0.930 . S
C839 N837 1.400 . S
C839 C840 1.351 . S
C839 H856 0.930 . S
C840 N836 1.389 . S
C840 C839 1.351 . S
C840 H845 0.930 . S
O841 Cu835 1.974 . S
O841 C851 1.282 . S
C842 O843 1.261 . S
C842 O855 1.251 . S
O843 C842 1.261 . S
H844 C838 0.930 . S
H845 C840 0.930 . S
N846 Cu835 1.985 . S
N846 C848 1.335 . S
N846 C849 1.390 . S
N847 C848 1.345 . S
N847 C850 1.336 . S
C848 N846 1.335 . S
C848 N847 1.345 . S
C848 H853 0.930 . S
C849 N846 1.390 . S
C849 C850 1.346 . S
C849 H854 0.930 . S
C850 N847 1.336 . S
C850 C849 1.346 . S
C850 H857 0.929 . S
C851 O841 1.282 . S
C851 O852 1.216 . S
O852 C851 1.216 . S
H853 C848 0.930 . S
H854 C849 0.930 . S
O855 Cu835 1.959 . S
O855 C842 1.251 . S
H856 C839 0.930 . S
H857 C850 0.929 . S
Cu858 N859 1.999 . S
Cu858 O864 1.974 . S
Cu858 N869 1.985 . S
Cu858 O878 1.959 . S
N859 Cu858 1.999 . S
N859 C861 1.263 . S
N859 C863 1.389 . S
N860 C861 1.358 . S
N860 C862 1.400 . S
C861 N859 1.263 . S
C861 N860 1.358 . S
C861 H867 0.930 . S
C862 N860 1.400 . S
C862 C863 1.351 . S
C862 H879 0.930 . S
C863 N859 1.389 . S
C863 C862 1.351 . S
C863 H868 0.930 . S
O864 Cu858 1.974 . S
O864 C874 1.282 . S
C865 O866 1.261 . S
C865 O878 1.251 . S
O866 C865 1.261 . S
H867 C861 0.930 . S
H868 C863 0.930 . S
N869 Cu858 1.985 . S
N869 C871 1.335 . S
N869 C872 1.390 . S
N870 C871 1.345 . S
N870 C873 1.336 . S
C871 N869 1.335 . S
C871 N870 1.345 . S
C871 H876 0.930 . S
C872 N869 1.390 . S
C872 C873 1.346 . S
C872 H877 0.930 . S
C873 N870 1.336 . S
C873 C872 1.346 . S
C873 H880 0.929 . S
C874 O864 1.282 . S
C874 O875 1.216 . S
O875 C874 1.216 . S
H876 C871 0.930 . S
H877 C872 0.930 . S
O878 Cu858 1.959 . S
O878 C865 1.251 . S
H879 C862 0.930 . S
H880 C873 0.929 . S
Cu881 N882 1.999 . S
Cu881 O887 1.974 . S
Cu881 N892 1.985 . S
Cu881 O901 1.959 . S
N882 Cu881 1.999 . S
N882 C884 1.263 . S
N882 C886 1.389 . S
N883 C884 1.358 . S
N883 C885 1.400 . S
C884 N882 1.263 . S
C884 N883 1.358 . S
C884 H890 0.930 . S
C885 N883 1.400 . S
C885 C886 1.351 . S
C885 H902 0.930 . S
C886 N882 1.389 . S
C886 C885 1.351 . S
C886 H891 0.930 . S
O887 Cu881 1.974 . S
O887 C897 1.282 . S
C888 O889 1.261 . S
C888 O901 1.251 . S
O889 C888 1.261 . S
H890 C884 0.930 . S
H891 C886 0.930 . S
N892 Cu881 1.985 . S
N892 C894 1.335 . S
N892 C895 1.390 . S
N893 C894 1.345 . S
N893 C896 1.336 . S
C894 N892 1.335 . S
C894 N893 1.345 . S
C894 H899 0.930 . S
C895 N892 1.390 . S
C895 C896 1.346 . S
C895 H900 0.930 . S
C896 N893 1.336 . S
C896 C895 1.346 . S
C896 H903 0.929 . S
C897 O887 1.282 . S
C897 O898 1.216 . S
O898 C897 1.216 . S
H899 C894 0.930 . S
H900 C895 0.930 . S
O901 Cu881 1.959 . S
O901 C888 1.251 . S
H902 C885 0.930 . S
H903 C896 0.929 . S
H904 C910 0.930 . S
H905 C913 0.930 . S
H906 C914 0.930 . S
H907 C915 0.930 . S
H908 C918 0.930 . S
H909 C919 0.930 . S
C910 H904 0.930 . S
C910 C911 1.355 . S
C910 C912 1.415 . S
C911 C910 1.355 . S
C911 C913 1.419 . S
C912 C910 1.415 . S
C912 C917 1.425 . S
C912 C919 1.409 . S
C913 H905 0.930 . S
C913 C911 1.419 . S
C913 C914 1.362 . S
C914 H906 0.930 . S
C914 C913 1.362 . S
C914 C917 1.409 . S
C915 H907 0.930 . S
C915 C916 1.355 . S
C915 C917 1.415 . S
C916 C915 1.355 . S
C916 C918 1.419 . S
C917 C912 1.425 . S
C917 C914 1.409 . S
C917 C915 1.415 . S
C918 H908 0.930 . S
C918 C916 1.419 . S
C918 C919 1.362 . S
C919 H909 0.930 . S
C919 C912 1.409 . S
C919 C918 1.362 . S
H920 C926 0.930 . S
H921 C929 0.930 . S
H922 C930 0.930 . S
H923 C931 0.930 . S
H924 C934 0.930 . S
H925 C935 0.930 . S
C926 H920 0.930 . S
C926 C927 1.355 . S
C926 C928 1.415 . S
C927 C926 1.355 . S
C927 C929 1.419 . S
C928 C926 1.415 . S
C928 C933 1.425 . S
C928 C935 1.409 . S
C929 H921 0.930 . S
C929 C927 1.419 . S
C929 C930 1.362 . S
C930 H922 0.930 . S
C930 C929 1.362 . S
C930 C933 1.409 . S
C931 H923 0.930 . S
C931 C932 1.355 . S
C931 C933 1.415 . S
C932 C931 1.355 . S
C932 C934 1.419 . S
C933 C928 1.425 . S
C933 C930 1.409 . S
C933 C931 1.415 . S
C934 H924 0.930 . S
C934 C932 1.419 . S
C934 C935 1.362 . S
C935 H925 0.930 . S
C935 C928 1.409 . S
C935 C934 1.362 . S
H936 C942 0.930 . S
H937 C945 0.930 . S
H938 C946 0.930 . S
H939 C947 0.930 . S
H940 C950 0.930 . S
H941 C951 0.930 . S
C942 H936 0.930 . S
C942 C943 1.355 . S
C942 C944 1.415 . S
C943 C942 1.355 . S
C943 C945 1.419 . S
C944 C942 1.415 . S
C944 C949 1.425 . S
C944 C951 1.409 . S
C945 H937 0.930 . S
C945 C943 1.419 . S
C945 C946 1.362 . S
C946 H938 0.930 . S
C946 C945 1.362 . S
C946 C949 1.409 . S
C947 H939 0.930 . S
C947 C948 1.355 . S
C947 C949 1.415 . S
C948 C947 1.355 . S
C948 C950 1.419 . S
C949 C944 1.425 . S
C949 C946 1.409 . S
C949 C947 1.415 . S
C950 H940 0.930 . S
C950 C948 1.419 . S
C950 C951 1.362 . S
C951 H941 0.930 . S
C951 C944 1.409 . S
C951 C950 1.362 . S
H952 C958 0.930 . S
H953 C961 0.930 . S
H954 C962 0.930 . S
H955 C963 0.930 . S
H956 C966 0.930 . S
H957 C967 0.930 . S
C958 H952 0.930 . S
C958 C959 1.355 . S
C958 C960 1.415 . S
C959 C958 1.355 . S
C959 C961 1.419 . S
C960 C958 1.415 . S
C960 C965 1.425 . S
C960 C967 1.409 . S
C961 H953 0.930 . S
C961 C959 1.419 . S
C961 C962 1.362 . S
C962 H954 0.930 . S
C962 C961 1.362 . S
C962 C965 1.409 . S
C963 H955 0.930 . S
C963 C964 1.355 . S
C963 C965 1.415 . S
C964 C963 1.355 . S
C964 C966 1.419 . S
C965 C960 1.425 . S
C965 C962 1.409 . S
C965 C963 1.415 . S
C966 H956 0.930 . S
C966 C964 1.419 . S
C966 C967 1.362 . S
C967 H957 0.930 . S
C967 C960 1.409 . S
C967 C966 1.362 . S
H968 C974 0.930 . S
H969 C977 0.930 . S
H970 C978 0.930 . S
H971 C979 0.930 . S
H972 C982 0.930 . S
H973 C983 0.930 . S
C974 H968 0.930 . S
C974 C975 1.355 . S
C974 C976 1.415 . S
C975 C974 1.355 . S
C975 C977 1.419 . S
C976 C974 1.415 . S
C976 C981 1.425 . S
C976 C983 1.409 . S
C977 H969 0.930 . S
C977 C975 1.419 . S
C977 C978 1.362 . S
C978 H970 0.930 . S
C978 C977 1.362 . S
C978 C981 1.409 . S
C979 H971 0.930 . S
C979 C980 1.355 . S
C979 C981 1.415 . S
C980 C979 1.355 . S
C980 C982 1.419 . S
C981 C976 1.425 . S
C981 C978 1.409 . S
C981 C979 1.415 . S
C982 H972 0.930 . S
C982 C980 1.419 . S
C982 C983 1.362 . S
C983 H973 0.930 . S
C983 C976 1.409 . S
C983 C982 1.362 . S
H984 C990 0.930 . S
H985 C993 0.930 . S
H986 C994 0.930 . S
H987 C995 0.930 . S
H988 C998 0.930 . S
H989 C999 0.930 . S
C990 H984 0.930 . S
C990 C991 1.355 . S
C990 C992 1.415 . S
C991 C990 1.355 . S
C991 C993 1.419 . S
C992 C990 1.415 . S
C992 C997 1.425 . S
C992 C999 1.409 . S
C993 H985 0.930 . S
C993 C991 1.419 . S
C993 C994 1.362 . S
C994 H986 0.930 . S
C994 C993 1.362 . S
C994 C997 1.409 . S
C995 H987 0.930 . S
C995 C996 1.355 . S
C995 C997 1.415 . S
C996 C995 1.355 . S
C996 C998 1.419 . S
C997 C992 1.425 . S
C997 C994 1.409 . S
C997 C995 1.415 . S
C998 H988 0.930 . S
C998 C996 1.419 . S
C998 C999 1.362 . S
C999 H989 0.930 . S
C999 C992 1.409 . S
C999 C998 1.362 . S
H1000 C1006 0.930 . S
H1001 C1009 0.930 . S
H1002 C1010 0.930 . S
H1003 C1011 0.930 . S
H1004 C1014 0.930 . S
H1005 C1015 0.930 . S
C1006 H1000 0.930 . S
C1006 C1007 1.355 . S
C1006 C1008 1.415 . S
C1007 C1006 1.355 . S
C1007 C1009 1.419 . S
C1008 C1006 1.415 . S
C1008 C1013 1.425 . S
C1008 C1015 1.409 . S
C1009 H1001 0.930 . S
C1009 C1007 1.419 . S
C1009 C1010 1.362 . S
C1010 H1002 0.930 . S
C1010 C1009 1.362 . S
C1010 C1013 1.409 . S
C1011 H1003 0.930 . S
C1011 C1012 1.355 . S
C1011 C1013 1.415 . S
C1012 C1011 1.355 . S
C1012 C1014 1.419 . S
C1013 C1008 1.425 . S
C1013 C1010 1.409 . S
C1013 C1011 1.415 . S
C1014 H1004 0.930 . S
C1014 C1012 1.419 . S
C1014 C1015 1.362 . S
C1015 H1005 0.930 . S
C1015 C1008 1.409 . S
C1015 C1014 1.362 . S
H1016 C1022 0.930 . S
H1017 C1025 0.930 . S
H1018 C1026 0.930 . S
H1019 C1027 0.930 . S
H1020 C1030 0.930 . S
H1021 C1031 0.930 . S
C1022 H1016 0.930 . S
C1022 C1023 1.355 . S
C1022 C1024 1.415 . S
C1023 C1022 1.355 . S
C1023 C1025 1.419 . S
C1024 C1022 1.415 . S
C1024 C1029 1.425 . S
C1024 C1031 1.409 . S
C1025 H1017 0.930 . S
C1025 C1023 1.419 . S
C1025 C1026 1.362 . S
C1026 H1018 0.930 . S
C1026 C1025 1.362 . S
C1026 C1029 1.409 . S
C1027 H1019 0.930 . S
C1027 C1028 1.355 . S
C1027 C1029 1.415 . S
C1028 C1027 1.355 . S
C1028 C1030 1.419 . S
C1029 C1024 1.425 . S
C1029 C1026 1.409 . S
C1029 C1027 1.415 . S
C1030 H1020 0.930 . S
C1030 C1028 1.419 . S
C1030 C1031 1.362 . S
C1031 H1021 0.930 . S
C1031 C1024 1.409 . S
C1031 C1030 1.362 . S
H1032 C1038 0.930 . S
H1033 C1041 0.930 . S
H1034 C1042 0.930 . S
H1035 C1043 0.930 . S
H1036 C1046 0.930 . S
H1037 C1047 0.930 . S
C1038 H1032 0.930 . S
C1038 C1039 1.355 . S
C1038 C1040 1.415 . S
C1039 C1038 1.355 . S
C1039 C1041 1.419 . S
C1040 C1038 1.415 . S
C1040 C1045 1.425 . S
C1040 C1047 1.409 . S
C1041 H1033 0.930 . S
C1041 C1039 1.419 . S
C1041 C1042 1.362 . S
C1042 H1034 0.930 . S
C1042 C1041 1.362 . S
C1042 C1045 1.409 . S
C1043 H1035 0.930 . S
C1043 C1044 1.355 . S
C1043 C1045 1.415 . S
C1044 C1043 1.355 . S
C1044 C1046 1.419 . S
C1045 C1040 1.425 . S
C1045 C1042 1.409 . S
C1045 C1043 1.415 . S
C1046 H1036 0.930 . S
C1046 C1044 1.419 . S
C1046 C1047 1.362 . S
C1047 H1037 0.930 . S
C1047 C1040 1.409 . S
C1047 C1046 1.362 . S
H1048 C1054 0.930 . S
H1049 C1057 0.930 . S
H1050 C1058 0.930 . S
H1051 C1059 0.930 . S
H1052 C1062 0.930 . S
H1053 C1063 0.930 . S
C1054 H1048 0.930 . S
C1054 C1055 1.355 . S
C1054 C1056 1.415 . S
C1055 C1054 1.355 . S
C1055 C1057 1.419 . S
C1056 C1054 1.415 . S
C1056 C1061 1.425 . S
C1056 C1063 1.409 . S
C1057 H1049 0.930 . S
C1057 C1055 1.419 . S
C1057 C1058 1.362 . S
C1058 H1050 0.930 . S
C1058 C1057 1.362 . S
C1058 C1061 1.409 . S
C1059 H1051 0.930 . S
C1059 C1060 1.355 . S
C1059 C1061 1.415 . S
C1060 C1059 1.355 . S
C1060 C1062 1.419 . S
C1061 C1056 1.425 . S
C1061 C1058 1.409 . S
C1061 C1059 1.415 . S
C1062 H1052 0.930 . S
C1062 C1060 1.419 . S
C1062 C1063 1.362 . S
C1063 H1053 0.930 . S
C1063 C1056 1.409 . S
C1063 C1062 1.362 . S
H1064 C1070 0.930 . S
H1065 C1073 0.930 . S
H1066 C1074 0.930 . S
H1067 C1075 0.930 . S
H1068 C1078 0.930 . S
H1069 C1079 0.930 . S
C1070 H1064 0.930 . S
C1070 C1071 1.355 . S
C1070 C1072 1.415 . S
C1071 C1070 1.355 . S
C1071 C1073 1.419 . S
C1072 C1070 1.415 . S
C1072 C1077 1.425 . S
C1072 C1079 1.409 . S
C1073 H1065 0.930 . S
C1073 C1071 1.419 . S
C1073 C1074 1.362 . S
C1074 H1066 0.930 . S
C1074 C1073 1.362 . S
C1074 C1077 1.409 . S
C1075 H1067 0.930 . S
C1075 C1076 1.355 . S
C1075 C1077 1.415 . S
C1076 C1075 1.355 . S
C1076 C1078 1.419 . S
C1077 C1072 1.425 . S
C1077 C1074 1.409 . S
C1077 C1075 1.415 . S
C1078 H1068 0.930 . S
C1078 C1076 1.419 . S
C1078 C1079 1.362 . S
C1079 H1069 0.930 . S
C1079 C1072 1.409 . S
C1079 C1078 1.362 . S
H1080 C1086 0.930 . S
H1081 C1089 0.930 . S
H1082 C1090 0.930 . S
H1083 C1091 0.930 . S
H1084 C1094 0.930 . S
H1085 C1095 0.930 . S
C1086 H1080 0.930 . S
C1086 C1087 1.355 . S
C1086 C1088 1.415 . S
C1087 C1086 1.355 . S
C1087 C1089 1.419 . S
C1088 C1086 1.415 . S
C1088 C1093 1.425 . S
C1088 C1095 1.409 . S
C1089 H1081 0.930 . S
C1089 C1087 1.419 . S
C1089 C1090 1.362 . S
C1090 H1082 0.930 . S
C1090 C1089 1.362 . S
C1090 C1093 1.409 . S
C1091 H1083 0.930 . S
C1091 C1092 1.355 . S
C1091 C1093 1.415 . S
C1092 C1091 1.355 . S
C1092 C1094 1.419 . S
C1093 C1088 1.425 . S
C1093 C1090 1.409 . S
C1093 C1091 1.415 . S
C1094 H1084 0.930 . S
C1094 C1092 1.419 . S
C1094 C1095 1.362 . S
C1095 H1085 0.930 . S
C1095 C1088 1.409 . S
C1095 C1094 1.362 . S
H1096 C1102 0.930 . S
H1097 C1105 0.930 . S
H1098 C1106 0.930 . S
H1099 C1107 0.930 . S
H1100 C1110 0.930 . S
H1101 C1111 0.930 . S
C1102 H1096 0.930 . S
C1102 C1103 1.355 . S
C1102 C1104 1.415 . S
C1103 C1102 1.355 . S
C1103 C1105 1.419 . S
C1104 C1102 1.415 . S
C1104 C1109 1.425 . S
C1104 C1111 1.409 . S
C1105 H1097 0.930 . S
C1105 C1103 1.419 . S
C1105 C1106 1.362 . S
C1106 H1098 0.930 . S
C1106 C1105 1.362 . S
C1106 C1109 1.409 . S
C1107 H1099 0.930 . S
C1107 C1108 1.355 . S
C1107 C1109 1.415 . S
C1108 C1107 1.355 . S
C1108 C1110 1.419 . S
C1109 C1104 1.425 . S
C1109 C1106 1.409 . S
C1109 C1107 1.415 . S
C1110 H1100 0.930 . S
C1110 C1108 1.419 . S
C1110 C1111 1.362 . S
C1111 H1101 0.930 . S
C1111 C1104 1.409 . S
C1111 C1110 1.362 . S
H1112 C1118 0.930 . S
H1113 C1121 0.930 . S
H1114 C1122 0.930 . S
H1115 C1123 0.930 . S
H1116 C1126 0.930 . S
H1117 C1127 0.930 . S
C1118 H1112 0.930 . S
C1118 C1119 1.355 . S
C1118 C1120 1.415 . S
C1119 C1118 1.355 . S
C1119 C1121 1.419 . S
C1120 C1118 1.415 . S
C1120 C1125 1.425 . S
C1120 C1127 1.409 . S
C1121 H1113 0.930 . S
C1121 C1119 1.419 . S
C1121 C1122 1.362 . S
C1122 H1114 0.930 . S
C1122 C1121 1.362 . S
C1122 C1125 1.409 . S
C1123 H1115 0.930 . S
C1123 C1124 1.355 . S
C1123 C1125 1.415 . S
C1124 C1123 1.355 . S
C1124 C1126 1.419 . S
C1125 C1120 1.425 . S
C1125 C1122 1.409 . S
C1125 C1123 1.415 . S
C1126 H1116 0.930 . S
C1126 C1124 1.419 . S
C1126 C1127 1.362 . S
C1127 H1117 0.930 . S
C1127 C1120 1.409 . S
C1127 C1126 1.362 . S
H1128 C1134 0.930 . S
H1129 C1137 0.930 . S
H1130 C1138 0.930 . S
H1131 C1139 0.930 . S
H1132 C1142 0.930 . S
H1133 C1143 0.930 . S
C1134 H1128 0.930 . S
C1134 C1135 1.355 . S
C1134 C1136 1.415 . S
C1135 C1134 1.355 . S
C1135 C1137 1.419 . S
C1136 C1134 1.415 . S
C1136 C1141 1.425 . S
C1136 C1143 1.409 . S
C1137 H1129 0.930 . S
C1137 C1135 1.419 . S
C1137 C1138 1.362 . S
C1138 H1130 0.930 . S
C1138 C1137 1.362 . S
C1138 C1141 1.409 . S
C1139 H1131 0.930 . S
C1139 C1140 1.355 . S
C1139 C1141 1.415 . S
C1140 C1139 1.355 . S
C1140 C1142 1.419 . S
C1141 C1136 1.425 . S
C1141 C1138 1.409 . S
C1141 C1139 1.415 . S
C1142 H1132 0.930 . S
C1142 C1140 1.419 . S
C1142 C1143 1.362 . S
C1143 H1133 0.930 . S
C1143 C1136 1.409 . S
C1143 C1142 1.362 . S
H1144 C1150 0.930 . S
H1145 C1153 0.930 . S
H1146 C1154 0.930 . S
H1147 C1155 0.930 . S
H1148 C1158 0.930 . S
H1149 C1159 0.930 . S
C1150 H1144 0.930 . S
C1150 C1151 1.355 . S
C1150 C1152 1.415 . S
C1151 C1150 1.355 . S
C1151 C1153 1.419 . S
C1152 C1150 1.415 . S
C1152 C1157 1.425 . S
C1152 C1159 1.409 . S
C1153 H1145 0.930 . S
C1153 C1151 1.419 . S
C1153 C1154 1.362 . S
C1154 H1146 0.930 . S
C1154 C1153 1.362 . S
C1154 C1157 1.409 . S
C1155 H1147 0.930 . S
C1155 C1156 1.355 . S
C1155 C1157 1.415 . S
C1156 C1155 1.355 . S
C1156 C1158 1.419 . S
C1157 C1152 1.425 . S
C1157 C1154 1.409 . S
C1157 C1155 1.415 . S
C1158 H1148 0.930 . S
C1158 C1156 1.419 . S
C1158 C1159 1.362 . S
C1159 H1149 0.930 . S
C1159 C1152 1.409 . S
C1159 C1158 1.362 . S
H1160 C1166 0.930 . S
H1161 C1169 0.930 . S
H1162 C1170 0.930 . S
H1163 C1171 0.930 . S
H1164 C1174 0.930 . S
H1165 C1175 0.930 . S
C1166 H1160 0.930 . S
C1166 C1167 1.355 . S
C1166 C1168 1.415 . S
C1167 C1166 1.355 . S
C1167 C1169 1.419 . S
C1168 C1166 1.415 . S
C1168 C1173 1.425 . S
C1168 C1175 1.409 . S
C1169 H1161 0.930 . S
C1169 C1167 1.419 . S
C1169 C1170 1.362 . S
C1170 H1162 0.930 . S
C1170 C1169 1.362 . S
C1170 C1173 1.409 . S
C1171 H1163 0.930 . S
C1171 C1172 1.355 . S
C1171 C1173 1.415 . S
C1172 C1171 1.355 . S
C1172 C1174 1.419 . S
C1173 C1168 1.425 . S
C1173 C1170 1.409 . S
C1173 C1171 1.415 . S
C1174 H1164 0.930 . S
C1174 C1172 1.419 . S
C1174 C1175 1.362 . S
C1175 H1165 0.930 . S
C1175 C1168 1.409 . S
C1175 C1174 1.362 . S
H1176 C1182 0.930 . S
H1177 C1185 0.930 . S
H1178 C1186 0.930 . S
H1179 C1187 0.930 . S
H1180 C1190 0.930 . S
H1181 C1191 0.930 . S
C1182 H1176 0.930 . S
C1182 C1183 1.355 . S
C1182 C1184 1.415 . S
C1183 C1182 1.355 . S
C1183 C1185 1.419 . S
C1184 C1182 1.415 . S
C1184 C1189 1.425 . S
C1184 C1191 1.409 . S
C1185 H1177 0.930 . S
C1185 C1183 1.419 . S
C1185 C1186 1.362 . S
C1186 H1178 0.930 . S
C1186 C1185 1.362 . S
C1186 C1189 1.409 . S
C1187 H1179 0.930 . S
C1187 C1188 1.355 . S
C1187 C1189 1.415 . S
C1188 C1187 1.355 . S
C1188 C1190 1.419 . S
C1189 C1184 1.425 . S
C1189 C1186 1.409 . S
C1189 C1187 1.415 . S
C1190 H1180 0.930 . S
C1190 C1188 1.419 . S
C1190 C1191 1.362 . S
C1191 H1181 0.930 . S
C1191 C1184 1.409 . S
C1191 C1190 1.362 . S
H1192 C1198 0.930 . S
H1193 C1201 0.930 . S
H1194 C1202 0.930 . S
H1195 C1203 0.930 . S
H1196 C1206 0.930 . S
H1197 C1207 0.930 . S
C1198 H1192 0.930 . S
C1198 C1199 1.355 . S
C1198 C1200 1.415 . S
C1199 C1198 1.355 . S
C1199 C1201 1.419 . S
C1200 C1198 1.415 . S
C1200 C1205 1.425 . S
C1200 C1207 1.409 . S
C1201 H1193 0.930 . S
C1201 C1199 1.419 . S
C1201 C1202 1.362 . S
C1202 H1194 0.930 . S
C1202 C1201 1.362 . S
C1202 C1205 1.409 . S
C1203 H1195 0.930 . S
C1203 C1204 1.355 . S
C1203 C1205 1.415 . S
C1204 C1203 1.355 . S
C1204 C1206 1.419 . S
C1205 C1200 1.425 . S
C1205 C1202 1.409 . S
C1205 C1203 1.415 . S
C1206 H1196 0.930 . S
C1206 C1204 1.419 . S
C1206 C1207 1.362 . S
C1207 H1197 0.930 . S
C1207 C1200 1.409 . S
C1207 C1206 1.362 . S
H1208 C1214 0.930 . S
H1209 C1217 0.930 . S
H1210 C1218 0.930 . S
H1211 C1219 0.930 . S
H1212 C1222 0.930 . S
H1213 C1223 0.930 . S
C1214 H1208 0.930 . S
C1214 C1215 1.355 . S
C1214 C1216 1.415 . S
C1215 C1214 1.355 . S
C1215 C1217 1.419 . S
C1216 C1214 1.415 . S
C1216 C1221 1.425 . S
C1216 C1223 1.409 . S
C1217 H1209 0.930 . S
C1217 C1215 1.419 . S
C1217 C1218 1.362 . S
C1218 H1210 0.930 . S
C1218 C1217 1.362 . S
C1218 C1221 1.409 . S
C1219 H1211 0.930 . S
C1219 C1220 1.355 . S
C1219 C1221 1.415 . S
C1220 C1219 1.355 . S
C1220 C1222 1.419 . S
C1221 C1216 1.425 . S
C1221 C1218 1.409 . S
C1221 C1219 1.415 . S
C1222 H1212 0.930 . S
C1222 C1220 1.419 . S
C1222 C1223 1.362 . S
C1223 H1213 0.930 . S
C1223 C1216 1.409 . S
C1223 C1222 1.362 . S
H1224 C1230 0.930 . S
H1225 C1233 0.930 . S
H1226 C1234 0.930 . S
H1227 C1235 0.930 . S
H1228 C1238 0.930 . S
H1229 C1239 0.930 . S
C1230 H1224 0.930 . S
C1230 C1231 1.355 . S
C1230 C1232 1.415 . S
C1231 C1230 1.355 . S
C1231 C1233 1.419 . S
C1232 C1230 1.415 . S
C1232 C1237 1.425 . S
C1232 C1239 1.409 . S
C1233 H1225 0.930 . S
C1233 C1231 1.419 . S
C1233 C1234 1.362 . S
C1234 H1226 0.930 . S
C1234 C1233 1.362 . S
C1234 C1237 1.409 . S
C1235 H1227 0.930 . S
C1235 C1236 1.355 . S
C1235 C1237 1.415 . S
C1236 C1235 1.355 . S
C1236 C1238 1.419 . S
C1237 C1232 1.425 . S
C1237 C1234 1.409 . S
C1237 C1235 1.415 . S
C1238 H1228 0.930 . S
C1238 C1236 1.419 . S
C1238 C1239 1.362 . S
C1239 H1229 0.930 . S
C1239 C1232 1.409 . S
C1239 C1238 1.362 . S
H1240 C1246 0.930 . S
H1241 C1249 0.930 . S
H1242 C1250 0.930 . S
H1243 C1251 0.930 . S
H1244 C1254 0.930 . S
H1245 C1255 0.930 . S
C1246 H1240 0.930 . S
C1246 C1247 1.355 . S
C1246 C1248 1.415 . S
C1247 C1246 1.355 . S
C1247 C1249 1.419 . S
C1248 C1246 1.415 . S
C1248 C1253 1.425 . S
C1248 C1255 1.409 . S
C1249 H1241 0.930 . S
C1249 C1247 1.419 . S
C1249 C1250 1.362 . S
C1250 H1242 0.930 . S
C1250 C1249 1.362 . S
C1250 C1253 1.409 . S
C1251 H1243 0.930 . S
C1251 C1252 1.355 . S
C1251 C1253 1.415 . S
C1252 C1251 1.355 . S
C1252 C1254 1.419 . S
C1253 C1248 1.425 . S
C1253 C1250 1.409 . S
C1253 C1251 1.415 . S
C1254 H1244 0.930 . S
C1254 C1252 1.419 . S
C1254 C1255 1.362 . S
C1255 H1245 0.930 . S
C1255 C1248 1.409 . S
C1255 C1254 1.362 . S
H1256 C1262 0.930 . S
H1257 C1265 0.930 . S
H1258 C1266 0.930 . S
H1259 C1267 0.930 . S
H1260 C1270 0.930 . S
H1261 C1271 0.930 . S
C1262 H1256 0.930 . S
C1262 C1263 1.355 . S
C1262 C1264 1.415 . S
C1263 C1262 1.355 . S
C1263 C1265 1.419 . S
C1264 C1262 1.415 . S
C1264 C1269 1.425 . S
C1264 C1271 1.409 . S
C1265 H1257 0.930 . S
C1265 C1263 1.419 . S
C1265 C1266 1.362 . S
C1266 H1258 0.930 . S
C1266 C1265 1.362 . S
C1266 C1269 1.409 . S
C1267 H1259 0.930 . S
C1267 C1268 1.355 . S
C1267 C1269 1.415 . S
C1268 C1267 1.355 . S
C1268 C1270 1.419 . S
C1269 C1264 1.425 . S
C1269 C1266 1.409 . S
C1269 C1267 1.415 . S
C1270 H1260 0.930 . S
C1270 C1268 1.419 . S
C1270 C1271 1.362 . S
C1271 H1261 0.930 . S
C1271 C1264 1.409 . S
C1271 C1270 1.362 . S
H1272 C1278 0.930 . S
H1273 C1281 0.930 . S
H1274 C1282 0.930 . S
H1275 C1283 0.930 . S
H1276 C1286 0.930 . S
H1277 C1287 0.930 . S
C1278 H1272 0.930 . S
C1278 C1279 1.355 . S
C1278 C1280 1.415 . S
C1279 C1278 1.355 . S
C1279 C1281 1.419 . S
C1280 C1278 1.415 . S
C1280 C1285 1.425 . S
C1280 C1287 1.409 . S
C1281 H1273 0.930 . S
C1281 C1279 1.419 . S
C1281 C1282 1.362 . S
C1282 H1274 0.930 . S
C1282 C1281 1.362 . S
C1282 C1285 1.409 . S
C1283 H1275 0.930 . S
C1283 C1284 1.355 . S
C1283 C1285 1.415 . S
C1284 C1283 1.355 . S
C1284 C1286 1.419 . S
C1285 C1280 1.425 . S
C1285 C1282 1.409 . S
C1285 C1283 1.415 . S
C1286 H1276 0.930 . S
C1286 C1284 1.419 . S
C1286 C1287 1.362 . S
C1287 H1277 0.930 . S
C1287 C1280 1.409 . S
C1287 C1286 1.362 . S
H1288 C1294 0.930 . S
H1289 C1297 0.930 . S
H1290 C1298 0.930 . S
H1291 C1299 0.930 . S
H1292 C1302 0.930 . S
H1293 C1303 0.930 . S
C1294 H1288 0.930 . S
C1294 C1295 1.355 . S
C1294 C1296 1.415 . S
C1295 C1294 1.355 . S
C1295 C1297 1.419 . S
C1296 C1294 1.415 . S
C1296 C1301 1.425 . S
C1296 C1303 1.409 . S
C1297 H1289 0.930 . S
C1297 C1295 1.419 . S
C1297 C1298 1.362 . S
C1298 H1290 0.930 . S
C1298 C1297 1.362 . S
C1298 C1301 1.409 . S
C1299 H1291 0.930 . S
C1299 C1300 1.355 . S
C1299 C1301 1.415 . S
C1300 C1299 1.355 . S
C1300 C1302 1.419 . S
C1301 C1296 1.425 . S
C1301 C1298 1.409 . S
C1301 C1299 1.415 . S
C1302 H1292 0.930 . S
C1302 C1300 1.419 . S
C1302 C1303 1.362 . S
C1303 H1293 0.930 . S
C1303 C1296 1.409 . S
C1303 C1302 1.362 . S
H1304 C1310 0.930 . S
H1305 C1313 0.930 . S
H1306 C1314 0.930 . S
H1307 C1315 0.930 . S
H1308 C1318 0.930 . S
H1309 C1319 0.930 . S
C1310 H1304 0.930 . S
C1310 C1311 1.355 . S
C1310 C1312 1.415 . S
C1311 C1310 1.355 . S
C1311 C1313 1.419 . S
C1312 C1310 1.415 . S
C1312 C1317 1.425 . S
C1312 C1319 1.409 . S
C1313 H1305 0.930 . S
C1313 C1311 1.419 . S
C1313 C1314 1.362 . S
C1314 H1306 0.930 . S
C1314 C1313 1.362 . S
C1314 C1317 1.409 . S
C1315 H1307 0.930 . S
C1315 C1316 1.355 . S
C1315 C1317 1.415 . S
C1316 C1315 1.355 . S
C1316 C1318 1.419 . S
C1317 C1312 1.425 . S
C1317 C1314 1.409 . S
C1317 C1315 1.415 . S
C1318 H1308 0.930 . S
C1318 C1316 1.419 . S
C1318 C1319 1.362 . S
C1319 H1309 0.930 . S
C1319 C1312 1.409 . S
C1319 C1318 1.362 . S
H1320 C1326 0.930 . S
H1321 C1329 0.930 . S
H1322 C1330 0.930 . S
H1323 C1331 0.930 . S
H1324 C1334 0.930 . S
H1325 C1335 0.930 . S
C1326 H1320 0.930 . S
C1326 C1327 1.355 . S
C1326 C1328 1.415 . S
C1327 C1326 1.355 . S
C1327 C1329 1.419 . S
C1328 C1326 1.415 . S
C1328 C1333 1.425 . S
C1328 C1335 1.409 . S
C1329 H1321 0.930 . S
C1329 C1327 1.419 . S
C1329 C1330 1.362 . S
C1330 H1322 0.930 . S
C1330 C1329 1.362 . S
C1330 C1333 1.409 . S
C1331 H1323 0.930 . S
C1331 C1332 1.355 . S
C1331 C1333 1.415 . S
C1332 C1331 1.355 . S
C1332 C1334 1.419 . S
C1333 C1328 1.425 . S
C1333 C1330 1.409 . S
C1333 C1331 1.415 . S
C1334 H1324 0.930 . S
C1334 C1332 1.419 . S
C1334 C1335 1.362 . S
C1335 H1325 0.930 . S
C1335 C1328 1.409 . S
C1335 C1334 1.362 . S
H1336 C1342 0.930 . S
H1337 C1345 0.930 . S
H1338 C1346 0.930 . S
H1339 C1347 0.930 . S
H1340 C1350 0.930 . S
H1341 C1351 0.930 . S
C1342 H1336 0.930 . S
C1342 C1343 1.355 . S
C1342 C1344 1.415 . S
C1343 C1342 1.355 . S
C1343 C1345 1.419 . S
C1344 C1342 1.415 . S
C1344 C1349 1.425 . S
C1344 C1351 1.409 . S
C1345 H1337 0.930 . S
C1345 C1343 1.419 . S
C1345 C1346 1.362 . S
C1346 H1338 0.930 . S
C1346 C1345 1.362 . S
C1346 C1349 1.409 . S
C1347 H1339 0.930 . S
C1347 C1348 1.355 . S
C1347 C1349 1.415 . S
C1348 C1347 1.355 . S
C1348 C1350 1.419 . S
C1349 C1344 1.425 . S
C1349 C1346 1.409 . S
C1349 C1347 1.415 . S
C1350 H1340 0.930 . S
C1350 C1348 1.419 . S
C1350 C1351 1.362 . S
C1351 H1341 0.930 . S
C1351 C1344 1.409 . S
C1351 C1350 1.362 . S
H1352 C1358 0.930 . S
H1353 C1361 0.930 . S
H1354 C1362 0.930 . S
H1355 C1363 0.930 . S
H1356 C1366 0.930 . S
H1357 C1367 0.930 . S
C1358 H1352 0.930 . S
C1358 C1359 1.355 . S
C1358 C1360 1.415 . S
C1359 C1358 1.355 . S
C1359 C1361 1.419 . S
C1360 C1358 1.415 . S
C1360 C1365 1.425 . S
C1360 C1367 1.409 . S
C1361 H1353 0.930 . S
C1361 C1359 1.419 . S
C1361 C1362 1.362 . S
C1362 H1354 0.930 . S
C1362 C1361 1.362 . S
C1362 C1365 1.409 . S
C1363 H1355 0.930 . S
C1363 C1364 1.355 . S
C1363 C1365 1.415 . S
C1364 C1363 1.355 . S
C1364 C1366 1.419 . S
C1365 C1360 1.425 . S
C1365 C1362 1.409 . S
C1365 C1363 1.415 . S
C1366 H1356 0.930 . S
C1366 C1364 1.419 . S
C1366 C1367 1.362 . S
C1367 H1357 0.930 . S
C1367 C1360 1.409 . S
C1367 C1366 1.362 . S
H1368 C1374 0.930 . S
H1369 C1377 0.930 . S
H1370 C1378 0.930 . S
H1371 C1379 0.930 . S
H1372 C1382 0.930 . S
H1373 C1383 0.930 . S
C1374 H1368 0.930 . S
C1374 C1375 1.355 . S
C1374 C1376 1.415 . S
C1375 C1374 1.355 . S
C1375 C1377 1.419 . S
C1376 C1374 1.415 . S
C1376 C1381 1.425 . S
C1376 C1383 1.409 . S
C1377 H1369 0.930 . S
C1377 C1375 1.419 . S
C1377 C1378 1.362 . S
C1378 H1370 0.930 . S
C1378 C1377 1.362 . S
C1378 C1381 1.409 . S
C1379 H1371 0.930 . S
C1379 C1380 1.355 . S
C1379 C1381 1.415 . S
C1380 C1379 1.355 . S
C1380 C1382 1.419 . S
C1381 C1376 1.425 . S
C1381 C1378 1.409 . S
C1381 C1379 1.415 . S
C1382 H1372 0.930 . S
C1382 C1380 1.419 . S
C1382 C1383 1.362 . S
C1383 H1373 0.930 . S
C1383 C1376 1.409 . S
C1383 C1382 1.362 . S
H1384 C1390 0.930 . S
H1385 C1393 0.930 . S
H1386 C1394 0.930 . S
H1387 C1395 0.930 . S
H1388 C1398 0.930 . S
H1389 C1399 0.930 . S
C1390 H1384 0.930 . S
C1390 C1391 1.355 . S
C1390 C1392 1.415 . S
C1391 C1390 1.355 . S
C1391 C1393 1.419 . S
C1392 C1390 1.415 . S
C1392 C1397 1.425 . S
C1392 C1399 1.409 . S
C1393 H1385 0.930 . S
C1393 C1391 1.419 . S
C1393 C1394 1.362 . S
C1394 H1386 0.930 . S
C1394 C1393 1.362 . S
C1394 C1397 1.409 . S
C1395 H1387 0.930 . S
C1395 C1396 1.355 . S
C1395 C1397 1.415 . S
C1396 C1395 1.355 . S
C1396 C1398 1.419 . S
C1397 C1392 1.425 . S
C1397 C1394 1.409 . S
C1397 C1395 1.415 . S
C1398 H1388 0.930 . S
C1398 C1396 1.419 . S
C1398 C1399 1.362 . S
C1399 H1389 0.930 . S
C1399 C1392 1.409 . S
C1399 C1398 1.362 . S
H1400 C1406 0.930 . S
H1401 C1409 0.930 . S
H1402 C1410 0.930 . S
H1403 C1411 0.930 . S
H1404 C1414 0.930 . S
H1405 C1415 0.930 . S
C1406 H1400 0.930 . S
C1406 C1407 1.355 . S
C1406 C1408 1.415 . S
C1407 C1406 1.355 . S
C1407 C1409 1.419 . S
C1408 C1406 1.415 . S
C1408 C1413 1.425 . S
C1408 C1415 1.409 . S
C1409 H1401 0.930 . S
C1409 C1407 1.419 . S
C1409 C1410 1.362 . S
C1410 H1402 0.930 . S
C1410 C1409 1.362 . S
C1410 C1413 1.409 . S
C1411 H1403 0.930 . S
C1411 C1412 1.355 . S
C1411 C1413 1.415 . S
C1412 C1411 1.355 . S
C1412 C1414 1.419 . S
C1413 C1408 1.425 . S
C1413 C1410 1.409 . S
C1413 C1411 1.415 . S
C1414 H1404 0.930 . S
C1414 C1412 1.419 . S
C1414 C1415 1.362 . S
C1415 H1405 0.930 . S
C1415 C1408 1.409 . S
C1415 C1414 1.362 . S
H1416 C1422 0.930 . S
H1417 C1425 0.930 . S
H1418 C1426 0.930 . S
H1419 C1427 0.930 . S
H1420 C1430 0.930 . S
H1421 C1431 0.930 . S
C1422 H1416 0.930 . S
C1422 C1423 1.355 . S
C1422 C1424 1.415 . S
C1423 C1422 1.355 . S
C1423 C1425 1.419 . S
C1424 C1422 1.415 . S
C1424 C1429 1.425 . S
C1424 C1431 1.409 . S
C1425 H1417 0.930 . S
C1425 C1423 1.419 . S
C1425 C1426 1.362 . S
C1426 H1418 0.930 . S
C1426 C1425 1.362 . S
C1426 C1429 1.409 . S
C1427 H1419 0.930 . S
C1427 C1428 1.355 . S
C1427 C1429 1.415 . S
C1428 C1427 1.355 . S
C1428 C1430 1.419 . S
C1429 C1424 1.425 . S
C1429 C1426 1.409 . S
C1429 C1427 1.415 . S
C1430 H1420 0.930 . S
C1430 C1428 1.419 . S
C1430 C1431 1.362 . S
C1431 H1421 0.930 . S
C1431 C1424 1.409 . S
C1431 C1430 1.362 . S
H1432 C1438 0.930 . S
H1433 C1441 0.930 . S
H1434 C1442 0.930 . S
H1435 C1443 0.930 . S
H1436 C1446 0.930 . S
H1437 C1447 0.930 . S
C1438 H1432 0.930 . S
C1438 C1439 1.355 . S
C1438 C1440 1.415 . S
C1439 C1438 1.355 . S
C1439 C1441 1.419 . S
C1440 C1438 1.415 . S
C1440 C1445 1.425 . S
C1440 C1447 1.409 . S
C1441 H1433 0.930 . S
C1441 C1439 1.419 . S
C1441 C1442 1.362 . S
C1442 H1434 0.930 . S
C1442 C1441 1.362 . S
C1442 C1445 1.409 . S
C1443 H1435 0.930 . S
C1443 C1444 1.355 . S
C1443 C1445 1.415 . S
C1444 C1443 1.355 . S
C1444 C1446 1.419 . S
C1445 C1440 1.425 . S
C1445 C1442 1.409 . S
C1445 C1443 1.415 . S
C1446 H1436 0.930 . S
C1446 C1444 1.419 . S
C1446 C1447 1.362 . S
C1447 H1437 0.930 . S
C1447 C1440 1.409 . S
C1447 C1446 1.362 . S
H1448 C1454 0.930 . S
H1449 C1457 0.930 . S
H1450 C1458 0.930 . S
H1451 C1459 0.930 . S
H1452 C1462 0.930 . S
H1453 C1463 0.930 . S
C1454 H1448 0.930 . S
C1454 C1455 1.355 . S
C1454 C1456 1.415 . S
C1455 C1454 1.355 . S
C1455 C1457 1.419 . S
C1456 C1454 1.415 . S
C1456 C1461 1.425 . S
C1456 C1463 1.409 . S
C1457 H1449 0.930 . S
C1457 C1455 1.419 . S
C1457 C1458 1.362 . S
C1458 H1450 0.930 . S
C1458 C1457 1.362 . S
C1458 C1461 1.409 . S
C1459 H1451 0.930 . S
C1459 C1460 1.355 . S
C1459 C1461 1.415 . S
C1460 C1459 1.355 . S
C1460 C1462 1.419 . S
C1461 C1456 1.425 . S
C1461 C1458 1.409 . S
C1461 C1459 1.415 . S
C1462 H1452 0.930 . S
C1462 C1460 1.419 . S
C1462 C1463 1.362 . S
C1463 H1453 0.930 . S
C1463 C1456 1.409 . S
C1463 C1462 1.362 . S
H1464 C1470 0.930 . S
H1465 C1473 0.930 . S
H1466 C1474 0.930 . S
H1467 C1475 0.930 . S
H1468 C1478 0.930 . S
H1469 C1479 0.930 . S
C1470 H1464 0.930 . S
C1470 C1471 1.355 . S
C1470 C1472 1.415 . S
C1471 C1470 1.355 . S
C1471 C1473 1.419 . S
C1472 C1470 1.415 . S
C1472 C1477 1.425 . S
C1472 C1479 1.409 . S
C1473 H1465 0.930 . S
C1473 C1471 1.419 . S
C1473 C1474 1.362 . S
C1474 H1466 0.930 . S
C1474 C1473 1.362 . S
C1474 C1477 1.409 . S
C1475 H1467 0.930 . S
C1475 C1476 1.355 . S
C1475 C1477 1.415 . S
C1476 C1475 1.355 . S
C1476 C1478 1.419 . S
C1477 C1472 1.425 . S
C1477 C1474 1.409 . S
C1477 C1475 1.415 . S
C1478 H1468 0.930 . S
C1478 C1476 1.419 . S
C1478 C1479 1.362 . S
C1479 H1469 0.930 . S
C1479 C1472 1.409 . S
C1479 C1478 1.362 . S
H1480 C1486 0.930 . S
H1481 C1489 0.930 . S
H1482 C1490 0.930 . S
H1483 C1491 0.930 . S
H1484 C1494 0.930 . S
H1485 C1495 0.930 . S
C1486 H1480 0.930 . S
C1486 C1487 1.355 . S
C1486 C1488 1.415 . S
C1487 C1486 1.355 . S
C1487 C1489 1.419 . S
C1488 C1486 1.415 . S
C1488 C1493 1.425 . S
C1488 C1495 1.409 . S
C1489 H1481 0.930 . S
C1489 C1487 1.419 . S
C1489 C1490 1.362 . S
C1490 H1482 0.930 . S
C1490 C1489 1.362 . S
C1490 C1493 1.409 . S
C1491 H1483 0.930 . S
C1491 C1492 1.355 . S
C1491 C1493 1.415 . S
C1492 C1491 1.355 . S
C1492 C1494 1.419 . S
C1493 C1488 1.425 . S
C1493 C1490 1.409 . S
C1493 C1491 1.415 . S
C1494 H1484 0.930 . S
C1494 C1492 1.419 . S
C1494 C1495 1.362 . S
C1495 H1485 0.930 . S
C1495 C1488 1.409 . S
C1495 C1494 1.362 . S
H1496 C1502 0.930 . S
H1497 C1505 0.930 . S
H1498 C1506 0.930 . S
H1499 C1507 0.930 . S
H1500 C1510 0.930 . S
H1501 C1511 0.930 . S
C1502 H1496 0.930 . S
C1502 C1503 1.355 . S
C1502 C1504 1.415 . S
C1503 C1502 1.355 . S
C1503 C1505 1.419 . S
C1504 C1502 1.415 . S
C1504 C1509 1.425 . S
C1504 C1511 1.409 . S
C1505 H1497 0.930 . S
C1505 C1503 1.419 . S
C1505 C1506 1.362 . S
C1506 H1498 0.930 . S
C1506 C1505 1.362 . S
C1506 C1509 1.409 . S
C1507 H1499 0.930 . S
C1507 C1508 1.355 . S
C1507 C1509 1.415 . S
C1508 C1507 1.355 . S
C1508 C1510 1.419 . S
C1509 C1504 1.425 . S
C1509 C1506 1.409 . S
C1509 C1507 1.415 . S
C1510 H1500 0.930 . S
C1510 C1508 1.419 . S
C1510 C1511 1.362 . S
C1511 H1501 0.930 . S
C1511 C1504 1.409 . S
C1511 C1510 1.362 . S
H1512 C1518 0.930 . S
H1513 C1521 0.930 . S
H1514 C1522 0.930 . S
H1515 C1523 0.930 . S
H1516 C1526 0.930 . S
H1517 C1527 0.930 . S
C1518 H1512 0.930 . S
C1518 C1519 1.355 . S
C1518 C1520 1.415 . S
C1519 C1518 1.355 . S
C1519 C1521 1.419 . S
C1520 C1518 1.415 . S
C1520 C1525 1.425 . S
C1520 C1527 1.409 . S
C1521 H1513 0.930 . S
C1521 C1519 1.419 . S
C1521 C1522 1.362 . S
C1522 H1514 0.930 . S
C1522 C1521 1.362 . S
C1522 C1525 1.409 . S
C1523 H1515 0.930 . S
C1523 C1524 1.355 . S
C1523 C1525 1.415 . S
C1524 C1523 1.355 . S
C1524 C1526 1.419 . S
C1525 C1520 1.425 . S
C1525 C1522 1.409 . S
C1525 C1523 1.415 . S
C1526 H1516 0.930 . S
C1526 C1524 1.419 . S
C1526 C1527 1.362 . S
C1527 H1517 0.930 . S
C1527 C1520 1.409 . S
C1527 C1526 1.362 . S
H1528 C1534 0.930 . S
H1529 C1537 0.930 . S
H1530 C1538 0.930 . S
H1531 C1539 0.930 . S
H1532 C1542 0.930 . S
H1533 C1543 0.930 . S
C1534 H1528 0.930 . S
C1534 C1535 1.355 . S
C1534 C1536 1.415 . S
C1535 C1534 1.355 . S
C1535 C1537 1.419 . S
C1536 C1534 1.415 . S
C1536 C1541 1.425 . S
C1536 C1543 1.409 . S
C1537 H1529 0.930 . S
C1537 C1535 1.419 . S
C1537 C1538 1.362 . S
C1538 H1530 0.930 . S
C1538 C1537 1.362 . S
C1538 C1541 1.409 . S
C1539 H1531 0.930 . S
C1539 C1540 1.355 . S
C1539 C1541 1.415 . S
C1540 C1539 1.355 . S
C1540 C1542 1.419 . S
C1541 C1536 1.425 . S
C1541 C1538 1.409 . S
C1541 C1539 1.415 . S
C1542 H1532 0.930 . S
C1542 C1540 1.419 . S
C1542 C1543 1.362 . S
C1543 H1533 0.930 . S
C1543 C1536 1.409 . S
C1543 C1542 1.362 . S
H1544 C1550 0.930 . S
H1545 C1553 0.930 . S
H1546 C1554 0.930 . S
H1547 C1555 0.930 . S
H1548 C1558 0.930 . S
H1549 C1559 0.930 . S
C1550 H1544 0.930 . S
C1550 C1551 1.355 . S
C1550 C1552 1.415 . S
C1551 C1550 1.355 . S
C1551 C1553 1.419 . S
C1552 C1550 1.415 . S
C1552 C1557 1.425 . S
C1552 C1559 1.409 . S
C1553 H1545 0.930 . S
C1553 C1551 1.419 . S
C1553 C1554 1.362 . S
C1554 H1546 0.930 . S
C1554 C1553 1.362 . S
C1554 C1557 1.409 . S
C1555 H1547 0.930 . S
C1555 C1556 1.355 . S
C1555 C1557 1.415 . S
C1556 C1555 1.355 . S
C1556 C1558 1.419 . S
C1557 C1552 1.425 . S
C1557 C1554 1.409 . S
C1557 C1555 1.415 . S
C1558 H1548 0.930 . S
C1558 C1556 1.419 . S
C1558 C1559 1.362 . S
C1559 H1549 0.930 . S
C1559 C1552 1.409 . S
C1559 C1558 1.362 . S
H1560 C1566 0.930 . S
H1561 C1569 0.930 . S
H1562 C1570 0.930 . S
H1563 C1571 0.930 . S
H1564 C1574 0.930 . S
H1565 C1575 0.930 . S
C1566 H1560 0.930 . S
C1566 C1567 1.355 . S
C1566 C1568 1.415 . S
C1567 C1566 1.355 . S
C1567 C1569 1.419 . S
C1568 C1566 1.415 . S
C1568 C1573 1.425 . S
C1568 C1575 1.409 . S
C1569 H1561 0.930 . S
C1569 C1567 1.419 . S
C1569 C1570 1.362 . S
C1570 H1562 0.930 . S
C1570 C1569 1.362 . S
C1570 C1573 1.409 . S
C1571 H1563 0.930 . S
C1571 C1572 1.355 . S
C1571 C1573 1.415 . S
C1572 C1571 1.355 . S
C1572 C1574 1.419 . S
C1573 C1568 1.425 . S
C1573 C1570 1.409 . S
C1573 C1571 1.415 . S
C1574 H1564 0.930 . S
C1574 C1572 1.419 . S
C1574 C1575 1.362 . S
C1575 H1565 0.930 . S
C1575 C1568 1.409 . S
C1575 C1574 1.362 . S
H1576 C1582 0.930 . S
H1577 C1585 0.930 . S
H1578 C1586 0.930 . S
H1579 C1587 0.930 . S
H1580 C1590 0.930 . S
H1581 C1591 0.930 . S
C1582 H1576 0.930 . S
C1582 C1583 1.355 . S
C1582 C1584 1.415 . S
C1583 C1582 1.355 . S
C1583 C1585 1.419 . S
C1584 C1582 1.415 . S
C1584 C1589 1.425 . S
C1584 C1591 1.409 . S
C1585 H1577 0.930 . S
C1585 C1583 1.419 . S
C1585 C1586 1.362 . S
C1586 H1578 0.930 . S
C1586 C1585 1.362 . S
C1586 C1589 1.409 . S
C1587 H1579 0.930 . S
C1587 C1588 1.355 . S
C1587 C1589 1.415 . S
C1588 C1587 1.355 . S
C1588 C1590 1.419 . S
C1589 C1584 1.425 . S
C1589 C1586 1.409 . S
C1589 C1587 1.415 . S
C1590 H1580 0.930 . S
C1590 C1588 1.419 . S
C1590 C1591 1.362 . S
C1591 H1581 0.930 . S
C1591 C1584 1.409 . S
C1591 C1590 1.362 . S
H1592 C1598 0.930 . S
H1593 C1601 0.930 . S
H1594 C1602 0.930 . S
H1595 C1603 0.930 . S
H1596 C1606 0.930 . S
H1597 C1607 0.930 . S
C1598 H1592 0.930 . S
C1598 C1599 1.355 . S
C1598 C1600 1.415 . S
C1599 C1598 1.355 . S
C1599 C1601 1.419 . S
C1600 C1598 1.415 . S
C1600 C1605 1.425 . S
C1600 C1607 1.409 . S
C1601 H1593 0.930 . S
C1601 C1599 1.419 . S
C1601 C1602 1.362 . S
C1602 H1594 0.930 . S
C1602 C1601 1.362 . S
C1602 C1605 1.409 . S
C1603 H1595 0.930 . S
C1603 C1604 1.355 . S
C1603 C1605 1.415 . S
C1604 C1603 1.355 . S
C1604 C1606 1.419 . S
C1605 C1600 1.425 . S
C1605 C1602 1.409 . S
C1605 C1603 1.415 . S
C1606 H1596 0.930 . S
C1606 C1604 1.419 . S
C1606 C1607 1.362 . S
C1607 H1597 0.930 . S
C1607 C1600 1.409 . S
C1607 C1606 1.362 . S
H1608 C1614 0.930 . S
H1609 C1617 0.930 . S
H1610 C1618 0.930 . S
H1611 C1619 0.930 . S
H1612 C1622 0.930 . S
H1613 C1623 0.930 . S
C1614 H1608 0.930 . S
C1614 C1615 1.355 . S
C1614 C1616 1.415 . S
C1615 C1614 1.355 . S
C1615 C1617 1.419 . S
C1616 C1614 1.415 . S
C1616 C1621 1.425 . S
C1616 C1623 1.409 . S
C1617 H1609 0.930 . S
C1617 C1615 1.419 . S
C1617 C1618 1.362 . S
C1618 H1610 0.930 . S
C1618 C1617 1.362 . S
C1618 C1621 1.409 . S
C1619 H1611 0.930 . S
C1619 C1620 1.355 . S
C1619 C1621 1.415 . S
C1620 C1619 1.355 . S
C1620 C1622 1.419 . S
C1621 C1616 1.425 . S
C1621 C1618 1.409 . S
C1621 C1619 1.415 . S
C1622 H1612 0.930 . S
C1622 C1620 1.419 . S
C1622 C1623 1.362 . S
C1623 H1613 0.930 . S
C1623 C1616 1.409 . S
C1623 C1622 1.362 . S
H1624 C1630 0.930 . S
H1625 C1633 0.930 . S
H1626 C1634 0.930 . S
H1627 C1635 0.930 . S
H1628 C1638 0.930 . S
H1629 C1639 0.930 . S
C1630 H1624 0.930 . S
C1630 C1631 1.355 . S
C1630 C1632 1.415 . S
C1631 C1630 1.355 . S
C1631 C1633 1.419 . S
C1632 C1630 1.415 . S
C1632 C1637 1.425 . S
C1632 C1639 1.409 . S
C1633 H1625 0.930 . S
C1633 C1631 1.419 . S
C1633 C1634 1.362 . S
C1634 H1626 0.930 . S
C1634 C1633 1.362 . S
C1634 C1637 1.409 . S
C1635 H1627 0.930 . S
C1635 C1636 1.355 . S
C1635 C1637 1.415 . S
C1636 C1635 1.355 . S
C1636 C1638 1.419 . S
C1637 C1632 1.425 . S
C1637 C1634 1.409 . S
C1637 C1635 1.415 . S
C1638 H1628 0.930 . S
C1638 C1636 1.419 . S
C1638 C1639 1.362 . S
C1639 H1629 0.930 . S
C1639 C1632 1.409 . S
C1639 C1638 1.362 . S
H1640 C1646 0.930 . S
H1641 C1649 0.930 . S
H1642 C1650 0.930 . S
H1643 C1651 0.930 . S
H1644 C1654 0.930 . S
H1645 C1655 0.930 . S
C1646 H1640 0.930 . S
C1646 C1647 1.355 . S
C1646 C1648 1.415 . S
C1647 C1646 1.355 . S
C1647 C1649 1.419 . S
C1648 C1646 1.415 . S
C1648 C1653 1.425 . S
C1648 C1655 1.409 . S
C1649 H1641 0.930 . S
C1649 C1647 1.419 . S
C1649 C1650 1.362 . S
C1650 H1642 0.930 . S
C1650 C1649 1.362 . S
C1650 C1653 1.409 . S
C1651 H1643 0.930 . S
C1651 C1652 1.355 . S
C1651 C1653 1.415 . S
C1652 C1651 1.355 . S
C1652 C1654 1.419 . S
C1653 C1648 1.425 . S
C1653 C1650 1.409 . S
C1653 C1651 1.415 . S
C1654 H1644 0.930 . S
C1654 C1652 1.419 . S
C1654 C1655 1.362 . S
C1655 H1645 0.930 . S
C1655 C1648 1.409 . S
C1655 C1654 1.362 . S
H1656 C1662 0.930 . S
H1657 C1665 0.930 . S
H1658 C1666 0.930 . S
H1659 C1667 0.930 . S
H1660 C1670 0.930 . S
H1661 C1671 0.930 . S
C1662 H1656 0.930 . S
C1662 C1663 1.355 . S
C1662 C1664 1.415 . S
C1663 C1662 1.355 . S
C1663 C1665 1.419 . S
C1664 C1662 1.415 . S
C1664 C1669 1.425 . S
C1664 C1671 1.409 . S
C1665 H1657 0.930 . S
C1665 C1663 1.419 . S
C1665 C1666 1.362 . S
C1666 H1658 0.930 . S
C1666 C1665 1.362 . S
C1666 C1669 1.409 . S
C1667 H1659 0.930 . S
C1667 C1668 1.355 . S
C1667 C1669 1.415 . S
C1668 C1667 1.355 . S
C1668 C1670 1.419 . S
C1669 C1664 1.425 . S
C1669 C1666 1.409 . S
C1669 C1667 1.415 . S
C1670 H1660 0.930 . S
C1670 C1668 1.419 . S
C1670 C1671 1.362 . S
C1671 H1661 0.930 . S
C1671 C1664 1.409 . S
C1671 C1670 1.362 . S
H1672 C1678 0.930 . S
H1673 C1681 0.930 . S
H1674 C1682 0.930 . S
H1675 C1683 0.930 . S
H1676 C1686 0.930 . S
H1677 C1687 0.930 . S
C1678 H1672 0.930 . S
C1678 C1679 1.355 . S
C1678 C1680 1.415 . S
C1679 C1678 1.355 . S
C1679 C1681 1.419 . S
C1680 C1678 1.415 . S
C1680 C1685 1.425 . S
C1680 C1687 1.409 . S
C1681 H1673 0.930 . S
C1681 C1679 1.419 . S
C1681 C1682 1.362 . S
C1682 H1674 0.930 . S
C1682 C1681 1.362 . S
C1682 C1685 1.409 . S
C1683 H1675 0.930 . S
C1683 C1684 1.355 . S
C1683 C1685 1.415 . S
C1684 C1683 1.355 . S
C1684 C1686 1.419 . S
C1685 C1680 1.425 . S
C1685 C1682 1.409 . S
C1685 C1683 1.415 . S
C1686 H1676 0.930 . S
C1686 C1684 1.419 . S
C1686 C1687 1.362 . S
C1687 H1677 0.930 . S
C1687 C1680 1.409 . S
C1687 C1686 1.362 . S
H1688 C1694 0.930 . S
H1689 C1697 0.930 . S
H1690 C1698 0.930 . S
H1691 C1699 0.930 . S
H1692 C1702 0.930 . S
H1693 C1703 0.930 . S
C1694 H1688 0.930 . S
C1694 C1695 1.355 . S
C1694 C1696 1.415 . S
C1695 C1694 1.355 . S
C1695 C1697 1.419 . S
C1696 C1694 1.415 . S
C1696 C1701 1.425 . S
C1696 C1703 1.409 . S
C1697 H1689 0.930 . S
C1697 C1695 1.419 . S
C1697 C1698 1.362 . S
C1698 H1690 0.930 . S
C1698 C1697 1.362 . S
C1698 C1701 1.409 . S
C1699 H1691 0.930 . S
C1699 C1700 1.355 . S
C1699 C1701 1.415 . S
C1700 C1699 1.355 . S
C1700 C1702 1.419 . S
C1701 C1696 1.425 . S
C1701 C1698 1.409 . S
C1701 C1699 1.415 . S
C1702 H1692 0.930 . S
C1702 C1700 1.419 . S
C1702 C1703 1.362 . S
C1703 H1693 0.930 . S
C1703 C1696 1.409 . S
C1703 C1702 1.362 . S
H1704 C1710 0.930 . S
H1705 C1713 0.930 . S
H1706 C1714 0.930 . S
H1707 C1715 0.930 . S
H1708 C1718 0.930 . S
H1709 C1719 0.930 . S
C1710 H1704 0.930 . S
C1710 C1711 1.355 . S
C1710 C1712 1.415 . S
C1711 C1710 1.355 . S
C1711 C1713 1.419 . S
C1712 C1710 1.415 . S
C1712 C1717 1.425 . S
C1712 C1719 1.409 . S
C1713 H1705 0.930 . S
C1713 C1711 1.419 . S
C1713 C1714 1.362 . S
C1714 H1706 0.930 . S
C1714 C1713 1.362 . S
C1714 C1717 1.409 . S
C1715 H1707 0.930 . S
C1715 C1716 1.355 . S
C1715 C1717 1.415 . S
C1716 C1715 1.355 . S
C1716 C1718 1.419 . S
C1717 C1712 1.425 . S
C1717 C1714 1.409 . S
C1717 C1715 1.415 . S
C1718 H1708 0.930 . S
C1718 C1716 1.419 . S
C1718 C1719 1.362 . S
C1719 H1709 0.930 . S
C1719 C1712 1.409 . S
C1719 C1718 1.362 . S
H1720 C1726 0.930 . S
H1721 C1729 0.930 . S
H1722 C1730 0.930 . S
H1723 C1731 0.930 . S
H1724 C1734 0.930 . S
H1725 C1735 0.930 . S
C1726 H1720 0.930 . S
C1726 C1727 1.355 . S
C1726 C1728 1.415 . S
C1727 C1726 1.355 . S
C1727 C1729 1.419 . S
C1728 C1726 1.415 . S
C1728 C1733 1.425 . S
C1728 C1735 1.409 . S
C1729 H1721 0.930 . S
C1729 C1727 1.419 . S
C1729 C1730 1.362 . S
C1730 H1722 0.930 . S
C1730 C1729 1.362 . S
C1730 C1733 1.409 . S
C1731 H1723 0.930 . S
C1731 C1732 1.355 . S
C1731 C1733 1.415 . S
C1732 C1731 1.355 . S
C1732 C1734 1.419 . S
C1733 C1728 1.425 . S
C1733 C1730 1.409 . S
C1733 C1731 1.415 . S
C1734 H1724 0.930 . S
C1734 C1732 1.419 . S
C1734 C1735 1.362 . S
C1735 H1725 0.930 . S
C1735 C1728 1.409 . S
C1735 C1734 1.362 . S
H1736 C1742 0.930 . S
H1737 C1745 0.930 . S
H1738 C1746 0.930 . S
H1739 C1747 0.930 . S
H1740 C1750 0.930 . S
H1741 C1751 0.930 . S
C1742 H1736 0.930 . S
C1742 C1743 1.355 . S
C1742 C1744 1.415 . S
C1743 C1742 1.355 . S
C1743 C1745 1.419 . S
C1744 C1742 1.415 . S
C1744 C1749 1.425 . S
C1744 C1751 1.409 . S
C1745 H1737 0.930 . S
C1745 C1743 1.419 . S
C1745 C1746 1.362 . S
C1746 H1738 0.930 . S
C1746 C1745 1.362 . S
C1746 C1749 1.409 . S
C1747 H1739 0.930 . S
C1747 C1748 1.355 . S
C1747 C1749 1.415 . S
C1748 C1747 1.355 . S
C1748 C1750 1.419 . S
C1749 C1744 1.425 . S
C1749 C1746 1.409 . S
C1749 C1747 1.415 . S
C1750 H1740 0.930 . S
C1750 C1748 1.419 . S
C1750 C1751 1.362 . S
C1751 H1741 0.930 . S
C1751 C1744 1.409 . S
C1751 C1750 1.362 . S
H1752 C1758 0.930 . S
H1753 C1761 0.930 . S
H1754 C1762 0.930 . S
H1755 C1763 0.930 . S
H1756 C1766 0.930 . S
H1757 C1767 0.930 . S
C1758 H1752 0.930 . S
C1758 C1759 1.355 . S
C1758 C1760 1.415 . S
C1759 C1758 1.355 . S
C1759 C1761 1.419 . S
C1760 C1758 1.415 . S
C1760 C1765 1.425 . S
C1760 C1767 1.409 . S
C1761 H1753 0.930 . S
C1761 C1759 1.419 . S
C1761 C1762 1.362 . S
C1762 H1754 0.930 . S
C1762 C1761 1.362 . S
C1762 C1765 1.409 . S
C1763 H1755 0.930 . S
C1763 C1764 1.355 . S
C1763 C1765 1.415 . S
C1764 C1763 1.355 . S
C1764 C1766 1.419 . S
C1765 C1760 1.425 . S
C1765 C1762 1.409 . S
C1765 C1763 1.415 . S
C1766 H1756 0.930 . S
C1766 C1764 1.419 . S
C1766 C1767 1.362 . S
C1767 H1757 0.930 . S
C1767 C1760 1.409 . S
C1767 C1766 1.362 . S
H1768 C1774 0.930 . S
H1769 C1777 0.930 . S
H1770 C1778 0.930 . S
H1771 C1779 0.930 . S
H1772 C1782 0.930 . S
H1773 C1783 0.930 . S
C1774 H1768 0.930 . S
C1774 C1775 1.355 . S
C1774 C1776 1.415 . S
C1775 C1774 1.355 . S
C1775 C1777 1.419 . S
C1776 C1774 1.415 . S
C1776 C1781 1.425 . S
C1776 C1783 1.409 . S
C1777 H1769 0.930 . S
C1777 C1775 1.419 . S
C1777 C1778 1.362 . S
C1778 H1770 0.930 . S
C1778 C1777 1.362 . S
C1778 C1781 1.409 . S
C1779 H1771 0.930 . S
C1779 C1780 1.355 . S
C1779 C1781 1.415 . S
C1780 C1779 1.355 . S
C1780 C1782 1.419 . S
C1781 C1776 1.425 . S
C1781 C1778 1.409 . S
C1781 C1779 1.415 . S
C1782 H1772 0.930 . S
C1782 C1780 1.419 . S
C1782 C1783 1.362 . S
C1783 H1773 0.930 . S
C1783 C1776 1.409 . S
C1783 C1782 1.362 . S
H1784 C1790 0.930 . S
H1785 C1793 0.930 . S
H1786 C1794 0.930 . S
H1787 C1795 0.930 . S
H1788 C1798 0.930 . S
H1789 C1799 0.930 . S
C1790 H1784 0.930 . S
C1790 C1791 1.355 . S
C1790 C1792 1.415 . S
C1791 C1790 1.355 . S
C1791 C1793 1.419 . S
C1792 C1790 1.415 . S
C1792 C1797 1.425 . S
C1792 C1799 1.409 . S
C1793 H1785 0.930 . S
C1793 C1791 1.419 . S
C1793 C1794 1.362 . S
C1794 H1786 0.930 . S
C1794 C1793 1.362 . S
C1794 C1797 1.409 . S
C1795 H1787 0.930 . S
C1795 C1796 1.355 . S
C1795 C1797 1.415 . S
C1796 C1795 1.355 . S
C1796 C1798 1.419 . S
C1797 C1792 1.425 . S
C1797 C1794 1.409 . S
C1797 C1795 1.415 . S
C1798 H1788 0.930 . S
C1798 C1796 1.419 . S
C1798 C1799 1.362 . S
C1799 H1789 0.930 . S
C1799 C1792 1.409 . S
C1799 C1798 1.362 . S
H1800 C1806 0.930 . S
H1801 C1809 0.930 . S
H1802 C1810 0.930 . S
H1803 C1811 0.930 . S
H1804 C1814 0.930 . S
H1805 C1815 0.930 . S
C1806 H1800 0.930 . S
C1806 C1807 1.355 . S
C1806 C1808 1.415 . S
C1807 C1806 1.355 . S
C1807 C1809 1.419 . S
C1808 C1806 1.415 . S
C1808 C1813 1.425 . S
C1808 C1815 1.409 . S
C1809 H1801 0.930 . S
C1809 C1807 1.419 . S
C1809 C1810 1.362 . S
C1810 H1802 0.930 . S
C1810 C1809 1.362 . S
C1810 C1813 1.409 . S
C1811 H1803 0.930 . S
C1811 C1812 1.355 . S
C1811 C1813 1.415 . S
C1812 C1811 1.355 . S
C1812 C1814 1.419 . S
C1813 C1808 1.425 . S
C1813 C1810 1.409 . S
C1813 C1811 1.415 . S
C1814 H1804 0.930 . S
C1814 C1812 1.419 . S
C1814 C1815 1.362 . S
C1815 H1805 0.930 . S
C1815 C1808 1.409 . S
C1815 C1814 1.362 . S
H1816 C1822 0.930 . S
H1817 C1825 0.930 . S
H1818 C1826 0.930 . S
H1819 C1827 0.930 . S
H1820 C1830 0.930 . S
H1821 C1831 0.930 . S
C1822 H1816 0.930 . S
C1822 C1823 1.355 . S
C1822 C1824 1.415 . S
C1823 C1822 1.355 . S
C1823 C1825 1.419 . S
C1824 C1822 1.415 . S
C1824 C1829 1.425 . S
C1824 C1831 1.409 . S
C1825 H1817 0.930 . S
C1825 C1823 1.419 . S
C1825 C1826 1.362 . S
C1826 H1818 0.930 . S
C1826 C1825 1.362 . S
C1826 C1829 1.409 . S
C1827 H1819 0.930 . S
C1827 C1828 1.355 . S
C1827 C1829 1.415 . S
C1828 C1827 1.355 . S
C1828 C1830 1.419 . S
C1829 C1824 1.425 . S
C1829 C1826 1.409 . S
C1829 C1827 1.415 . S
C1830 H1820 0.930 . S
C1830 C1828 1.419 . S
C1830 C1831 1.362 . S
C1831 H1821 0.930 . S
C1831 C1824 1.409 . S
C1831 C1830 1.362 . S
H1832 C1838 0.930 . S
H1833 C1841 0.930 . S
H1834 C1842 0.930 . S
H1835 C1843 0.930 . S
H1836 C1846 0.930 . S
H1837 C1847 0.930 . S
C1838 H1832 0.930 . S
C1838 C1839 1.355 . S
C1838 C1840 1.415 . S
C1839 C1838 1.355 . S
C1839 C1841 1.419 . S
C1840 C1838 1.415 . S
C1840 C1845 1.425 . S
C1840 C1847 1.409 . S
C1841 H1833 0.930 . S
C1841 C1839 1.419 . S
C1841 C1842 1.362 . S
C1842 H1834 0.930 . S
C1842 C1841 1.362 . S
C1842 C1845 1.409 . S
C1843 H1835 0.930 . S
C1843 C1844 1.355 . S
C1843 C1845 1.415 . S
C1844 C1843 1.355 . S
C1844 C1846 1.419 . S
C1845 C1840 1.425 . S
C1845 C1842 1.409 . S
C1845 C1843 1.415 . S
C1846 H1836 0.930 . S
C1846 C1844 1.419 . S
C1846 C1847 1.362 . S
C1847 H1837 0.930 . S
C1847 C1840 1.409 . S
C1847 C1846 1.362 . S
H1848 C1854 0.930 . S
H1849 C1857 0.930 . S
H1850 C1858 0.930 . S
H1851 C1859 0.930 . S
H1852 C1862 0.930 . S
H1853 C1863 0.930 . S
C1854 H1848 0.930 . S
C1854 C1855 1.355 . S
C1854 C1856 1.415 . S
C1855 C1854 1.355 . S
C1855 C1857 1.419 . S
C1856 C1854 1.415 . S
C1856 C1861 1.425 . S
C1856 C1863 1.409 . S
C1857 H1849 0.930 . S
C1857 C1855 1.419 . S
C1857 C1858 1.362 . S
C1858 H1850 0.930 . S
C1858 C1857 1.362 . S
C1858 C1861 1.409 . S
C1859 H1851 0.930 . S
C1859 C1860 1.355 . S
C1859 C1861 1.415 . S
C1860 C1859 1.355 . S
C1860 C1862 1.419 . S
C1861 C1856 1.425 . S
C1861 C1858 1.409 . S
C1861 C1859 1.415 . S
C1862 H1852 0.930 . S
C1862 C1860 1.419 . S
C1862 C1863 1.362 . S
C1863 H1853 0.930 . S
C1863 C1856 1.409 . S
C1863 C1862 1.362 . S
H1864 C1870 0.930 . S
H1865 C1873 0.930 . S
H1866 C1874 0.930 . S
H1867 C1875 0.930 . S
H1868 C1878 0.930 . S
H1869 C1879 0.930 . S
C1870 H1864 0.930 . S
C1870 C1871 1.355 . S
C1870 C1872 1.415 . S
C1871 C1870 1.355 . S
C1871 C1873 1.419 . S
C1872 C1870 1.415 . S
C1872 C1877 1.425 . S
C1872 C1879 1.409 . S
C1873 H1865 0.930 . S
C1873 C1871 1.419 . S
C1873 C1874 1.362 . S
C1874 H1866 0.930 . S
C1874 C1873 1.362 . S
C1874 C1877 1.409 . S
C1875 H1867 0.930 . S
C1875 C1876 1.355 . S
C1875 C1877 1.415 . S
C1876 C1875 1.355 . S
C1876 C1878 1.419 . S
C1877 C1872 1.425 . S
C1877 C1874 1.409 . S
C1877 C1875 1.415 . S
C1878 H1868 0.930 . S
C1878 C1876 1.419 . S
C1878 C1879 1.362 . S
C1879 H1869 0.930 . S
C1879 C1872 1.409 . S
C1879 C1878 1.362 . S
H1880 C1886 0.930 . S
H1881 C1889 0.930 . S
H1882 C1890 0.930 . S
H1883 C1891 0.930 . S
H1884 C1894 0.930 . S
H1885 C1895 0.930 . S
C1886 H1880 0.930 . S
C1886 C1887 1.355 . S
C1886 C1888 1.415 . S
C1887 C1886 1.355 . S
C1887 C1889 1.419 . S
C1888 C1886 1.415 . S
C1888 C1893 1.425 . S
C1888 C1895 1.409 . S
C1889 H1881 0.930 . S
C1889 C1887 1.419 . S
C1889 C1890 1.362 . S
C1890 H1882 0.930 . S
C1890 C1889 1.362 . S
C1890 C1893 1.409 . S
C1891 H1883 0.930 . S
C1891 C1892 1.355 . S
C1891 C1893 1.415 . S
C1892 C1891 1.355 . S
C1892 C1894 1.419 . S
C1893 C1888 1.425 . S
C1893 C1890 1.409 . S
C1893 C1891 1.415 . S
C1894 H1884 0.930 . S
C1894 C1892 1.419 . S
C1894 C1895 1.362 . S
C1895 H1885 0.930 . S
C1895 C1888 1.409 . S
C1895 C1894 1.362 . S
H1896 C1902 0.930 . S
H1897 C1905 0.930 . S
H1898 C1906 0.930 . S
H1899 C1907 0.930 . S
H1900 C1910 0.930 . S
H1901 C1911 0.930 . S
C1902 H1896 0.930 . S
C1902 C1903 1.355 . S
C1902 C1904 1.415 . S
C1903 C1902 1.355 . S
C1903 C1905 1.419 . S
C1904 C1902 1.415 . S
C1904 C1909 1.425 . S
C1904 C1911 1.409 . S
C1905 H1897 0.930 . S
C1905 C1903 1.419 . S
C1905 C1906 1.362 . S
C1906 H1898 0.930 . S
C1906 C1905 1.362 . S
C1906 C1909 1.409 . S
C1907 H1899 0.930 . S
C1907 C1908 1.355 . S
C1907 C1909 1.415 . S
C1908 C1907 1.355 . S
C1908 C1910 1.419 . S
C1909 C1904 1.425 . S
C1909 C1906 1.409 . S
C1909 C1907 1.415 . S
C1910 H1900 0.930 . S
C1910 C1908 1.419 . S
C1910 C1911 1.362 . S
C1911 H1901 0.930 . S
C1911 C1904 1.409 . S
C1911 C1910 1.362 . S
H1912 C1918 0.930 . S
H1913 C1921 0.930 . S
H1914 C1922 0.930 . S
H1915 C1923 0.930 . S
H1916 C1926 0.930 . S
H1917 C1927 0.930 . S
C1918 H1912 0.930 . S
C1918 C1919 1.355 . S
C1918 C1920 1.415 . S
C1919 C1918 1.355 . S
C1919 C1921 1.419 . S
C1920 C1918 1.415 . S
C1920 C1925 1.425 . S
C1920 C1927 1.409 . S
C1921 H1913 0.930 . S
C1921 C1919 1.419 . S
C1921 C1922 1.362 . S
C1922 H1914 0.930 . S
C1922 C1921 1.362 . S
C1922 C1925 1.409 . S
C1923 H1915 0.930 . S
C1923 C1924 1.355 . S
C1923 C1925 1.415 . S
C1924 C1923 1.355 . S
C1924 C1926 1.419 . S
C1925 C1920 1.425 . S
C1925 C1922 1.409 . S
C1925 C1923 1.415 . S
C1926 H1916 0.930 . S
C1926 C1924 1.419 . S
C1926 C1927 1.362 . S
C1927 H1917 0.930 . S
C1927 C1920 1.409 . S
C1927 C1926 1.362 . S
H1928 C1934 0.930 . S
H1929 C1937 0.930 . S
H1930 C1938 0.930 . S
H1931 C1939 0.930 . S
H1932 C1942 0.930 . S
H1933 C1943 0.930 . S
C1934 H1928 0.930 . S
C1934 C1935 1.355 . S
C1934 C1936 1.415 . S
C1935 C1934 1.355 . S
C1935 C1937 1.419 . S
C1936 C1934 1.415 . S
C1936 C1941 1.425 . S
C1936 C1943 1.409 . S
C1937 H1929 0.930 . S
C1937 C1935 1.419 . S
C1937 C1938 1.362 . S
C1938 H1930 0.930 . S
C1938 C1937 1.362 . S
C1938 C1941 1.409 . S
C1939 H1931 0.930 . S
C1939 C1940 1.355 . S
C1939 C1941 1.415 . S
C1940 C1939 1.355 . S
C1940 C1942 1.419 . S
C1941 C1936 1.425 . S
C1941 C1938 1.409 . S
C1941 C1939 1.415 . S
C1942 H1932 0.930 . S
C1942 C1940 1.419 . S
C1942 C1943 1.362 . S
C1943 H1933 0.930 . S
C1943 C1936 1.409 . S
C1943 C1942 1.362 . S
H1944 C1950 0.930 . S
H1945 C1953 0.930 . S
H1946 C1954 0.930 . S
H1947 C1955 0.930 . S
H1948 C1958 0.930 . S
H1949 C1959 0.930 . S
C1950 H1944 0.930 . S
C1950 C1951 1.355 . S
C1950 C1952 1.415 . S
C1951 C1950 1.355 . S
C1951 C1953 1.419 . S
C1952 C1950 1.415 . S
C1952 C1957 1.425 . S
C1952 C1959 1.409 . S
C1953 H1945 0.930 . S
C1953 C1951 1.419 . S
C1953 C1954 1.362 . S
C1954 H1946 0.930 . S
C1954 C1953 1.362 . S
C1954 C1957 1.409 . S
C1955 H1947 0.930 . S
C1955 C1956 1.355 . S
C1955 C1957 1.415 . S
C1956 C1955 1.355 . S
C1956 C1958 1.419 . S
C1957 C1952 1.425 . S
C1957 C1954 1.409 . S
C1957 C1955 1.415 . S
C1958 H1948 0.930 . S
C1958 C1956 1.419 . S
C1958 C1959 1.362 . S
C1959 H1949 0.930 . S
C1959 C1952 1.409 . S
C1959 C1958 1.362 . S
H1960 C1966 0.930 . S
H1961 C1969 0.930 . S
H1962 C1970 0.930 . S
H1963 C1971 0.930 . S
H1964 C1974 0.930 . S
H1965 C1975 0.930 . S
C1966 H1960 0.930 . S
C1966 C1967 1.355 . S
C1966 C1968 1.415 . S
C1967 C1966 1.355 . S
C1967 C1969 1.419 . S
C1968 C1966 1.415 . S
C1968 C1973 1.425 . S
C1968 C1975 1.409 . S
C1969 H1961 0.930 . S
C1969 C1967 1.419 . S
C1969 C1970 1.362 . S
C1970 H1962 0.930 . S
C1970 C1969 1.362 . S
C1970 C1973 1.409 . S
C1971 H1963 0.930 . S
C1971 C1972 1.355 . S
C1971 C1973 1.415 . S
C1972 C1971 1.355 . S
C1972 C1974 1.419 . S
C1973 C1968 1.425 . S
C1973 C1970 1.409 . S
C1973 C1971 1.415 . S
C1974 H1964 0.930 . S
C1974 C1972 1.419 . S
C1974 C1975 1.362 . S
C1975 H1965 0.930 . S
C1975 C1968 1.409 . S
C1975 C1974 1.362 . S
H1976 C1982 0.930 . S
H1977 C1985 0.930 . S
H1978 C1986 0.930 . S
H1979 C1987 0.930 . S
H1980 C1990 0.930 . S
H1981 C1991 0.930 . S
C1982 H1976 0.930 . S
C1982 C1983 1.355 . S
C1982 C1984 1.415 . S
C1983 C1982 1.355 . S
C1983 C1985 1.419 . S
C1984 C1982 1.415 . S
C1984 C1989 1.425 . S
C1984 C1991 1.409 . S
C1985 H1977 0.930 . S
C1985 C1983 1.419 . S
C1985 C1986 1.362 . S
C1986 H1978 0.930 . S
C1986 C1985 1.362 . S
C1986 C1989 1.409 . S
C1987 H1979 0.930 . S
C1987 C1988 1.355 . S
C1987 C1989 1.415 . S
C1988 C1987 1.355 . S
C1988 C1990 1.419 . S
C1989 C1984 1.425 . S
C1989 C1986 1.409 . S
C1989 C1987 1.415 . S
C1990 H1980 0.930 . S
C1990 C1988 1.419 . S
C1990 C1991 1.362 . S
C1991 H1981 0.930 . S
C1991 C1984 1.409 . S
C1991 C1990 1.362 . S
H1992 C1998 0.930 . S
H1993 C2001 0.930 . S
H1994 C2002 0.930 . S
H1995 C2003 0.930 . S
H1996 C2006 0.930 . S
H1997 C2007 0.930 . S
C1998 H1992 0.930 . S
C1998 C1999 1.355 . S
C1998 C2000 1.415 . S
C1999 C1998 1.355 . S
C1999 C2001 1.419 . S
C2000 C1998 1.415 . S
C2000 C2005 1.425 . S
C2000 C2007 1.409 . S
C2001 H1993 0.930 . S
C2001 C1999 1.419 . S
C2001 C2002 1.362 . S
C2002 H1994 0.930 . S
C2002 C2001 1.362 . S
C2002 C2005 1.409 . S
C2003 H1995 0.930 . S
C2003 C2004 1.355 . S
C2003 C2005 1.415 . S
C2004 C2003 1.355 . S
C2004 C2006 1.419 . S
C2005 C2000 1.425 . S
C2005 C2002 1.409 . S
C2005 C2003 1.415 . S
C2006 H1996 0.930 . S
C2006 C2004 1.419 . S
C2006 C2007 1.362 . S
C2007 H1997 0.930 . S
C2007 C2000 1.409 . S
C2007 C2006 1.362 . S
H2008 C2014 0.930 . S
H2009 C2017 0.930 . S
H2010 C2018 0.930 . S
H2011 C2019 0.930 . S
H2012 C2022 0.930 . S
H2013 C2023 0.930 . S
C2014 H2008 0.930 . S
C2014 C2015 1.355 . S
C2014 C2016 1.415 . S
C2015 C2014 1.355 . S
C2015 C2017 1.419 . S
C2016 C2014 1.415 . S
C2016 C2021 1.425 . S
C2016 C2023 1.409 . S
C2017 H2009 0.930 . S
C2017 C2015 1.419 . S
C2017 C2018 1.362 . S
C2018 H2010 0.930 . S
C2018 C2017 1.362 . S
C2018 C2021 1.409 . S
C2019 H2011 0.930 . S
C2019 C2020 1.355 . S
C2019 C2021 1.415 . S
C2020 C2019 1.355 . S
C2020 C2022 1.419 . S
C2021 C2016 1.425 . S
C2021 C2018 1.409 . S
C2021 C2019 1.415 . S
C2022 H2012 0.930 . S
C2022 C2020 1.419 . S
C2022 C2023 1.362 . S
C2023 H2013 0.930 . S
C2023 C2016 1.409 . S
C2023 C2022 1.362 . S
H2024 C2030 0.930 . S
H2025 C2033 0.930 . S
H2026 C2034 0.930 . S
H2027 C2035 0.930 . S
H2028 C2038 0.930 . S
H2029 C2039 0.930 . S
C2030 H2024 0.930 . S
C2030 C2031 1.355 . S
C2030 C2032 1.415 . S
C2031 C2030 1.355 . S
C2031 C2033 1.419 . S
C2032 C2030 1.415 . S
C2032 C2037 1.425 . S
C2032 C2039 1.409 . S
C2033 H2025 0.930 . S
C2033 C2031 1.419 . S
C2033 C2034 1.362 . S
C2034 H2026 0.930 . S
C2034 C2033 1.362 . S
C2034 C2037 1.409 . S
C2035 H2027 0.930 . S
C2035 C2036 1.355 . S
C2035 C2037 1.415 . S
C2036 C2035 1.355 . S
C2036 C2038 1.419 . S
C2037 C2032 1.425 . S
C2037 C2034 1.409 . S
C2037 C2035 1.415 . S
C2038 H2028 0.930 . S
C2038 C2036 1.419 . S
C2038 C2039 1.362 . S
C2039 H2029 0.930 . S
C2039 C2032 1.409 . S
C2039 C2038 1.362 . S
H2040 C2046 0.930 . S
H2041 C2049 0.930 . S
H2042 C2050 0.930 . S
H2043 C2051 0.930 . S
H2044 C2054 0.930 . S
H2045 C2055 0.930 . S
C2046 H2040 0.930 . S
C2046 C2047 1.355 . S
C2046 C2048 1.415 . S
C2047 C2046 1.355 . S
C2047 C2049 1.419 . S
C2048 C2046 1.415 . S
C2048 C2053 1.425 . S
C2048 C2055 1.409 . S
C2049 H2041 0.930 . S
C2049 C2047 1.419 . S
C2049 C2050 1.362 . S
C2050 H2042 0.930 . S
C2050 C2049 1.362 . S
C2050 C2053 1.409 . S
C2051 H2043 0.930 . S
C2051 C2052 1.355 . S
C2051 C2053 1.415 . S
C2052 C2051 1.355 . S
C2052 C2054 1.419 . S
C2053 C2048 1.425 . S
C2053 C2050 1.409 . S
C2053 C2051 1.415 . S
C2054 H2044 0.930 . S
C2054 C2052 1.419 . S
C2054 C2055 1.362 . S
C2055 H2045 0.930 . S
C2055 C2048 1.409 . S
C2055 C2054 1.362 . S
H2056 C2062 0.930 . S
H2057 C2065 0.930 . S
H2058 C2066 0.930 . S
H2059 C2067 0.930 . S
H2060 C2070 0.930 . S
H2061 C2071 0.930 . S
C2062 H2056 0.930 . S
C2062 C2063 1.355 . S
C2062 C2064 1.415 . S
C2063 C2062 1.355 . S
C2063 C2065 1.419 . S
C2064 C2062 1.415 . S
C2064 C2069 1.425 . S
C2064 C2071 1.409 . S
C2065 H2057 0.930 . S
C2065 C2063 1.419 . S
C2065 C2066 1.362 . S
C2066 H2058 0.930 . S
C2066 C2065 1.362 . S
C2066 C2069 1.409 . S
C2067 H2059 0.930 . S
C2067 C2068 1.355 . S
C2067 C2069 1.415 . S
C2068 C2067 1.355 . S
C2068 C2070 1.419 . S
C2069 C2064 1.425 . S
C2069 C2066 1.409 . S
C2069 C2067 1.415 . S
C2070 H2060 0.930 . S
C2070 C2068 1.419 . S
C2070 C2071 1.362 . S
C2071 H2061 0.930 . S
C2071 C2064 1.409 . S
C2071 C2070 1.362 . S
H2072 C2078 0.930 . S
H2073 C2081 0.930 . S
H2074 C2082 0.930 . S
H2075 C2083 0.930 . S
H2076 C2086 0.930 . S
H2077 C2087 0.930 . S
C2078 H2072 0.930 . S
C2078 C2079 1.355 . S
C2078 C2080 1.415 . S
C2079 C2078 1.355 . S
C2079 C2081 1.419 . S
C2080 C2078 1.415 . S
C2080 C2085 1.425 . S
C2080 C2087 1.409 . S
C2081 H2073 0.930 . S
C2081 C2079 1.419 . S
C2081 C2082 1.362 . S
C2082 H2074 0.930 . S
C2082 C2081 1.362 . S
C2082 C2085 1.409 . S
C2083 H2075 0.930 . S
C2083 C2084 1.355 . S
C2083 C2085 1.415 . S
C2084 C2083 1.355 . S
C2084 C2086 1.419 . S
C2085 C2080 1.425 . S
C2085 C2082 1.409 . S
C2085 C2083 1.415 . S
C2086 H2076 0.930 . S
C2086 C2084 1.419 . S
C2086 C2087 1.362 . S
C2087 H2077 0.930 . S
C2087 C2080 1.409 . S
C2087 C2086 1.362 . S
H2088 C2094 0.930 . S
H2089 C2097 0.930 . S
H2090 C2098 0.930 . S
H2091 C2099 0.930 . S
H2092 C2102 0.930 . S
H2093 C2103 0.930 . S
C2094 H2088 0.930 . S
C2094 C2095 1.355 . S
C2094 C2096 1.415 . S
C2095 C2094 1.355 . S
C2095 C2097 1.419 . S
C2096 C2094 1.415 . S
C2096 C2101 1.425 . S
C2096 C2103 1.409 . S
C2097 H2089 0.930 . S
C2097 C2095 1.419 . S
C2097 C2098 1.362 . S
C2098 H2090 0.930 . S
C2098 C2097 1.362 . S
C2098 C2101 1.409 . S
C2099 H2091 0.930 . S
C2099 C2100 1.355 . S
C2099 C2101 1.415 . S
C2100 C2099 1.355 . S
C2100 C2102 1.419 . S
C2101 C2096 1.425 . S
C2101 C2098 1.409 . S
C2101 C2099 1.415 . S
C2102 H2092 0.930 . S
C2102 C2100 1.419 . S
C2102 C2103 1.362 . S
C2103 H2093 0.930 . S
C2103 C2096 1.409 . S
C2103 C2102 1.362 . S
H2104 C2110 0.930 . S
H2105 C2113 0.930 . S
H2106 C2114 0.930 . S
H2107 C2115 0.930 . S
H2108 C2118 0.930 . S
H2109 C2119 0.930 . S
C2110 H2104 0.930 . S
C2110 C2111 1.355 . S
C2110 C2112 1.415 . S
C2111 C2110 1.355 . S
C2111 C2113 1.419 . S
C2112 C2110 1.415 . S
C2112 C2117 1.425 . S
C2112 C2119 1.409 . S
C2113 H2105 0.930 . S
C2113 C2111 1.419 . S
C2113 C2114 1.362 . S
C2114 H2106 0.930 . S
C2114 C2113 1.362 . S
C2114 C2117 1.409 . S
C2115 H2107 0.930 . S
C2115 C2116 1.355 . S
C2115 C2117 1.415 . S
C2116 C2115 1.355 . S
C2116 C2118 1.419 . S
C2117 C2112 1.425 . S
C2117 C2114 1.409 . S
C2117 C2115 1.415 . S
C2118 H2108 0.930 . S
C2118 C2116 1.419 . S
C2118 C2119 1.362 . S
C2119 H2109 0.930 . S
C2119 C2112 1.409 . S
C2119 C2118 1.362 . S
H2120 C2126 0.930 . S
H2121 C2129 0.930 . S
H2122 C2130 0.930 . S
H2123 C2131 0.930 . S
H2124 C2134 0.930 . S
H2125 C2135 0.930 . S
C2126 H2120 0.930 . S
C2126 C2127 1.355 . S
C2126 C2128 1.415 . S
C2127 C2126 1.355 . S
C2127 C2129 1.419 . S
C2128 C2126 1.415 . S
C2128 C2133 1.425 . S
C2128 C2135 1.409 . S
C2129 H2121 0.930 . S
C2129 C2127 1.419 . S
C2129 C2130 1.362 . S
C2130 H2122 0.930 . S
C2130 C2129 1.362 . S
C2130 C2133 1.409 . S
C2131 H2123 0.930 . S
C2131 C2132 1.355 . S
C2131 C2133 1.415 . S
C2132 C2131 1.355 . S
C2132 C2134 1.419 . S
C2133 C2128 1.425 . S
C2133 C2130 1.409 . S
C2133 C2131 1.415 . S
C2134 H2124 0.930 . S
C2134 C2132 1.419 . S
C2134 C2135 1.362 . S
C2135 H2125 0.930 . S
C2135 C2128 1.409 . S
C2135 C2134 1.362 . S
H2136 C2142 0.930 . S
H2137 C2145 0.930 . S
H2138 C2146 0.930 . S
H2139 C2147 0.930 . S
H2140 C2150 0.930 . S
H2141 C2151 0.930 . S
C2142 H2136 0.930 . S
C2142 C2143 1.355 . S
C2142 C2144 1.415 . S
C2143 C2142 1.355 . S
C2143 C2145 1.419 . S
C2144 C2142 1.415 . S
C2144 C2149 1.425 . S
C2144 C2151 1.409 . S
C2145 H2137 0.930 . S
C2145 C2143 1.419 . S
C2145 C2146 1.362 . S
C2146 H2138 0.930 . S
C2146 C2145 1.362 . S
C2146 C2149 1.409 . S
C2147 H2139 0.930 . S
C2147 C2148 1.355 . S
C2147 C2149 1.415 . S
C2148 C2147 1.355 . S
C2148 C2150 1.419 . S
C2149 C2144 1.425 . S
C2149 C2146 1.409 . S
C2149 C2147 1.415 . S
C2150 H2140 0.930 . S
C2150 C2148 1.419 . S
C2150 C2151 1.362 . S
C2151 H2141 0.930 . S
C2151 C2144 1.409 . S
C2151 C2150 1.362 . S
H2152 C2158 0.930 . S
H2153 C2161 0.930 . S
H2154 C2162 0.930 . S
H2155 C2163 0.930 . S
H2156 C2166 0.930 . S
H2157 C2167 0.930 . S
C2158 H2152 0.930 . S
C2158 C2159 1.355 . S
C2158 C2160 1.415 . S
C2159 C2158 1.355 . S
C2159 C2161 1.419 . S
C2160 C2158 1.415 . S
C2160 C2165 1.425 . S
C2160 C2167 1.409 . S
C2161 H2153 0.930 . S
C2161 C2159 1.419 . S
C2161 C2162 1.362 . S
C2162 H2154 0.930 . S
C2162 C2161 1.362 . S
C2162 C2165 1.409 . S
C2163 H2155 0.930 . S
C2163 C2164 1.355 . S
C2163 C2165 1.415 . S
C2164 C2163 1.355 . S
C2164 C2166 1.419 . S
C2165 C2160 1.425 . S
C2165 C2162 1.409 . S
C2165 C2163 1.415 . S
C2166 H2156 0.930 . S
C2166 C2164 1.419 . S
C2166 C2167 1.362 . S
C2167 H2157 0.930 . S
C2167 C2160 1.409 . S
C2167 C2166 1.362 . S
H2168 C2174 0.930 . S
H2169 C2177 0.930 . S
H2170 C2178 0.930 . S
H2171 C2179 0.930 . S
H2172 C2182 0.930 . S
H2173 C2183 0.930 . S
C2174 H2168 0.930 . S
C2174 C2175 1.355 . S
C2174 C2176 1.415 . S
C2175 C2174 1.355 . S
C2175 C2177 1.419 . S
C2176 C2174 1.415 . S
C2176 C2181 1.425 . S
C2176 C2183 1.409 . S
C2177 H2169 0.930 . S
C2177 C2175 1.419 . S
C2177 C2178 1.362 . S
C2178 H2170 0.930 . S
C2178 C2177 1.362 . S
C2178 C2181 1.409 . S
C2179 H2171 0.930 . S
C2179 C2180 1.355 . S
C2179 C2181 1.415 . S
C2180 C2179 1.355 . S
C2180 C2182 1.419 . S
C2181 C2176 1.425 . S
C2181 C2178 1.409 . S
C2181 C2179 1.415 . S
C2182 H2172 0.930 . S
C2182 C2180 1.419 . S
C2182 C2183 1.362 . S
C2183 H2173 0.930 . S
C2183 C2176 1.409 . S
C2183 C2182 1.362 . S
H2184 C2190 0.930 . S
H2185 C2193 0.930 . S
H2186 C2194 0.930 . S
H2187 C2195 0.930 . S
H2188 C2198 0.930 . S
H2189 C2199 0.930 . S
C2190 H2184 0.930 . S
C2190 C2191 1.355 . S
C2190 C2192 1.415 . S
C2191 C2190 1.355 . S
C2191 C2193 1.419 . S
C2192 C2190 1.415 . S
C2192 C2197 1.425 . S
C2192 C2199 1.409 . S
C2193 H2185 0.930 . S
C2193 C2191 1.419 . S
C2193 C2194 1.362 . S
C2194 H2186 0.930 . S
C2194 C2193 1.362 . S
C2194 C2197 1.409 . S
C2195 H2187 0.930 . S
C2195 C2196 1.355 . S
C2195 C2197 1.415 . S
C2196 C2195 1.355 . S
C2196 C2198 1.419 . S
C2197 C2192 1.425 . S
C2197 C2194 1.409 . S
C2197 C2195 1.415 . S
C2198 H2188 0.930 . S
C2198 C2196 1.419 . S
C2198 C2199 1.362 . S
C2199 H2189 0.930 . S
C2199 C2192 1.409 . S
C2199 C2198 1.362 . S
H2200 C2206 0.930 . S
H2201 C2209 0.930 . S
H2202 C2210 0.930 . S
H2203 C2211 0.930 . S
H2204 C2214 0.930 . S
H2205 C2215 0.930 . S
C2206 H2200 0.930 . S
C2206 C2207 1.355 . S
C2206 C2208 1.415 . S
C2207 C2206 1.355 . S
C2207 C2209 1.419 . S
C2208 C2206 1.415 . S
C2208 C2213 1.425 . S
C2208 C2215 1.409 . S
C2209 H2201 0.930 . S
C2209 C2207 1.419 . S
C2209 C2210 1.362 . S
C2210 H2202 0.930 . S
C2210 C2209 1.362 . S
C2210 C2213 1.409 . S
C2211 H2203 0.930 . S
C2211 C2212 1.355 . S
C2211 C2213 1.415 . S
C2212 C2211 1.355 . S
C2212 C2214 1.419 . S
C2213 C2208 1.425 . S
C2213 C2210 1.409 . S
C2213 C2211 1.415 . S
C2214 H2204 0.930 . S
C2214 C2212 1.419 . S
C2214 C2215 1.362 . S
C2215 H2205 0.930 . S
C2215 C2208 1.409 . S
C2215 C2214 1.362 . S
H2216 C2222 0.930 . S
H2217 C2225 0.930 . S
H2218 C2226 0.930 . S
H2219 C2227 0.930 . S
H2220 C2230 0.930 . S
H2221 C2231 0.930 . S
C2222 H2216 0.930 . S
C2222 C2223 1.355 . S
C2222 C2224 1.415 . S
C2223 C2222 1.355 . S
C2223 C2225 1.419 . S
C2224 C2222 1.415 . S
C2224 C2229 1.425 . S
C2224 C2231 1.409 . S
C2225 H2217 0.930 . S
C2225 C2223 1.419 . S
C2225 C2226 1.362 . S
C2226 H2218 0.930 . S
C2226 C2225 1.362 . S
C2226 C2229 1.409 . S
C2227 H2219 0.930 . S
C2227 C2228 1.355 . S
C2227 C2229 1.415 . S
C2228 C2227 1.355 . S
C2228 C2230 1.419 . S
C2229 C2224 1.425 . S
C2229 C2226 1.409 . S
C2229 C2227 1.415 . S
C2230 H2220 0.930 . S
C2230 C2228 1.419 . S
C2230 C2231 1.362 . S
C2231 H2221 0.930 . S
C2231 C2224 1.409 . S
C2231 C2230 1.362 . S
H2232 C2238 0.930 . S
H2233 C2241 0.930 . S
H2234 C2242 0.930 . S
H2235 C2243 0.930 . S
H2236 C2246 0.930 . S
H2237 C2247 0.930 . S
C2238 H2232 0.930 . S
C2238 C2239 1.355 . S
C2238 C2240 1.415 . S
C2239 C2238 1.355 . S
C2239 C2241 1.419 . S
C2240 C2238 1.415 . S
C2240 C2245 1.425 . S
C2240 C2247 1.409 . S
C2241 H2233 0.930 . S
C2241 C2239 1.419 . S
C2241 C2242 1.362 . S
C2242 H2234 0.930 . S
C2242 C2241 1.362 . S
C2242 C2245 1.409 . S
C2243 H2235 0.930 . S
C2243 C2244 1.355 . S
C2243 C2245 1.415 . S
C2244 C2243 1.355 . S
C2244 C2246 1.419 . S
C2245 C2240 1.425 . S
C2245 C2242 1.409 . S
C2245 C2243 1.415 . S
C2246 H2236 0.930 . S
C2246 C2244 1.419 . S
C2246 C2247 1.362 . S
C2247 H2237 0.930 . S
C2247 C2240 1.409 . S
C2247 C2246 1.362 . S
H2248 C2254 0.930 . S
H2249 C2257 0.930 . S
H2250 C2258 0.930 . S
H2251 C2259 0.930 . S
H2252 C2262 0.930 . S
H2253 C2263 0.930 . S
C2254 H2248 0.930 . S
C2254 C2255 1.355 . S
C2254 C2256 1.415 . S
C2255 C2254 1.355 . S
C2255 C2257 1.419 . S
C2256 C2254 1.415 . S
C2256 C2261 1.425 . S
C2256 C2263 1.409 . S
C2257 H2249 0.930 . S
C2257 C2255 1.419 . S
C2257 C2258 1.362 . S
C2258 H2250 0.930 . S
C2258 C2257 1.362 . S
C2258 C2261 1.409 . S
C2259 H2251 0.930 . S
C2259 C2260 1.355 . S
C2259 C2261 1.415 . S
C2260 C2259 1.355 . S
C2260 C2262 1.419 . S
C2261 C2256 1.425 . S
C2261 C2258 1.409 . S
C2261 C2259 1.415 . S
C2262 H2252 0.930 . S
C2262 C2260 1.419 . S
C2262 C2263 1.362 . S
C2263 H2253 0.930 . S
C2263 C2256 1.409 . S
C2263 C2262 1.362 . S
H2264 C2270 0.930 . S
H2265 C2273 0.930 . S
H2266 C2274 0.930 . S
H2267 C2275 0.930 . S
H2268 C2278 0.930 . S
H2269 C2279 0.930 . S
C2270 H2264 0.930 . S
C2270 C2271 1.355 . S
C2270 C2272 1.415 . S
C2271 C2270 1.355 . S
C2271 C2273 1.419 . S
C2272 C2270 1.415 . S
C2272 C2277 1.425 . S
C2272 C2279 1.409 . S
C2273 H2265 0.930 . S
C2273 C2271 1.419 . S
C2273 C2274 1.362 . S
C2274 H2266 0.930 . S
C2274 C2273 1.362 . S
C2274 C2277 1.409 . S
C2275 H2267 0.930 . S
C2275 C2276 1.355 . S
C2275 C2277 1.415 . S
C2276 C2275 1.355 . S
C2276 C2278 1.419 . S
C2277 C2272 1.425 . S
C2277 C2274 1.409 . S
C2277 C2275 1.415 . S
C2278 H2268 0.930 . S
C2278 C2276 1.419 . S
C2278 C2279 1.362 . S
C2279 H2269 0.930 . S
C2279 C2272 1.409 . S
C2279 C2278 1.362 . S
H2280 C2286 0.930 . S
H2281 C2289 0.930 . S
H2282 C2290 0.930 . S
H2283 C2291 0.930 . S
H2284 C2294 0.930 . S
H2285 C2295 0.930 . S
C2286 H2280 0.930 . S
C2286 C2287 1.355 . S
C2286 C2288 1.415 . S
C2287 C2286 1.355 . S
C2287 C2289 1.419 . S
C2288 C2286 1.415 . S
C2288 C2293 1.425 . S
C2288 C2295 1.409 . S
C2289 H2281 0.930 . S
C2289 C2287 1.419 . S
C2289 C2290 1.362 . S
C2290 H2282 0.930 . S
C2290 C2289 1.362 . S
C2290 C2293 1.409 . S
C2291 H2283 0.930 . S
C2291 C2292 1.355 . S
C2291 C2293 1.415 . S
C2292 C2291 1.355 . S
C2292 C2294 1.419 . S
C2293 C2288 1.425 . S
C2293 C2290 1.409 . S
C2293 C2291 1.415 . S
C2294 H2284 0.930 . S
C2294 C2292 1.419 . S
C2294 C2295 1.362 . S
C2295 H2285 0.930 . S
C2295 C2288 1.409 . S
C2295 C2294 1.362 . S
H2296 C2302 0.930 . S
H2297 C2305 0.930 . S
H2298 C2306 0.930 . S
H2299 C2307 0.930 . S
H2300 C2310 0.930 . S
H2301 C2311 0.930 . S
C2302 H2296 0.930 . S
C2302 C2303 1.355 . S
C2302 C2304 1.415 . S
C2303 C2302 1.355 . S
C2303 C2305 1.419 . S
C2304 C2302 1.415 . S
C2304 C2309 1.425 . S
C2304 C2311 1.409 . S
C2305 H2297 0.930 . S
C2305 C2303 1.419 . S
C2305 C2306 1.362 . S
C2306 H2298 0.930 . S
C2306 C2305 1.362 . S
C2306 C2309 1.409 . S
C2307 H2299 0.930 . S
C2307 C2308 1.355 . S
C2307 C2309 1.415 . S
C2308 C2307 1.355 . S
C2308 C2310 1.419 . S
C2309 C2304 1.425 . S
C2309 C2306 1.409 . S
C2309 C2307 1.415 . S
C2310 H2300 0.930 . S
C2310 C2308 1.419 . S
C2310 C2311 1.362 . S
C2311 H2301 0.930 . S
C2311 C2304 1.409 . S
C2311 C2310 1.362 . S
H2312 C2318 0.930 . S
H2313 C2321 0.930 . S
H2314 C2322 0.930 . S
H2315 C2323 0.930 . S
H2316 C2326 0.930 . S
H2317 C2327 0.930 . S
C2318 H2312 0.930 . S
C2318 C2319 1.355 . S
C2318 C2320 1.415 . S
C2319 C2318 1.355 . S
C2319 C2321 1.419 . S
C2320 C2318 1.415 . S
C2320 C2325 1.425 . S
C2320 C2327 1.409 . S
C2321 H2313 0.930 . S
C2321 C2319 1.419 . S
C2321 C2322 1.362 . S
C2322 H2314 0.930 . S
C2322 C2321 1.362 . S
C2322 C2325 1.409 . S
C2323 H2315 0.930 . S
C2323 C2324 1.355 . S
C2323 C2325 1.415 . S
C2324 C2323 1.355 . S
C2324 C2326 1.419 . S
C2325 C2320 1.425 . S
C2325 C2322 1.409 . S
C2325 C2323 1.415 . S
C2326 H2316 0.930 . S
C2326 C2324 1.419 . S
C2326 C2327 1.362 . S
C2327 H2317 0.930 . S
C2327 C2320 1.409 . S
C2327 C2326 1.362 . S
H2328 C2334 0.930 . S
H2329 C2337 0.930 . S
H2330 C2338 0.930 . S
H2331 C2339 0.930 . S
H2332 C2342 0.930 . S
H2333 C2343 0.930 . S
C2334 H2328 0.930 . S
C2334 C2335 1.355 . S
C2334 C2336 1.415 . S
C2335 C2334 1.355 . S
C2335 C2337 1.419 . S
C2336 C2334 1.415 . S
C2336 C2341 1.425 . S
C2336 C2343 1.409 . S
C2337 H2329 0.930 . S
C2337 C2335 1.419 . S
C2337 C2338 1.362 . S
C2338 H2330 0.930 . S
C2338 C2337 1.362 . S
C2338 C2341 1.409 . S
C2339 H2331 0.930 . S
C2339 C2340 1.355 . S
C2339 C2341 1.415 . S
C2340 C2339 1.355 . S
C2340 C2342 1.419 . S
C2341 C2336 1.425 . S
C2341 C2338 1.409 . S
C2341 C2339 1.415 . S
C2342 H2332 0.930 . S
C2342 C2340 1.419 . S
C2342 C2343 1.362 . S
C2343 H2333 0.930 . S
C2343 C2336 1.409 . S
C2343 C2342 1.362 . S
H2344 C2350 0.930 . S
H2345 C2353 0.930 . S
H2346 C2354 0.930 . S
H2347 C2355 0.930 . S
H2348 C2358 0.930 . S
H2349 C2359 0.930 . S
C2350 H2344 0.930 . S
C2350 C2351 1.355 . S
C2350 C2352 1.415 . S
C2351 C2350 1.355 . S
C2351 C2353 1.419 . S
C2352 C2350 1.415 . S
C2352 C2357 1.425 . S
C2352 C2359 1.409 . S
C2353 H2345 0.930 . S
C2353 C2351 1.419 . S
C2353 C2354 1.362 . S
C2354 H2346 0.930 . S
C2354 C2353 1.362 . S
C2354 C2357 1.409 . S
C2355 H2347 0.930 . S
C2355 C2356 1.355 . S
C2355 C2357 1.415 . S
C2356 C2355 1.355 . S
C2356 C2358 1.419 . S
C2357 C2352 1.425 . S
C2357 C2354 1.409 . S
C2357 C2355 1.415 . S
C2358 H2348 0.930 . S
C2358 C2356 1.419 . S
C2358 C2359 1.362 . S
C2359 H2349 0.930 . S
C2359 C2352 1.409 . S
C2359 C2358 1.362 . S
H2360 C2366 0.930 . S
H2361 C2369 0.930 . S
H2362 C2370 0.930 . S
H2363 C2371 0.930 . S
H2364 C2374 0.930 . S
H2365 C2375 0.930 . S
C2366 H2360 0.930 . S
C2366 C2367 1.355 . S
C2366 C2368 1.415 . S
C2367 C2366 1.355 . S
C2367 C2369 1.419 . S
C2368 C2366 1.415 . S
C2368 C2373 1.425 . S
C2368 C2375 1.409 . S
C2369 H2361 0.930 . S
C2369 C2367 1.419 . S
C2369 C2370 1.362 . S
C2370 H2362 0.930 . S
C2370 C2369 1.362 . S
C2370 C2373 1.409 . S
C2371 H2363 0.930 . S
C2371 C2372 1.355 . S
C2371 C2373 1.415 . S
C2372 C2371 1.355 . S
C2372 C2374 1.419 . S
C2373 C2368 1.425 . S
C2373 C2370 1.409 . S
C2373 C2371 1.415 . S
C2374 H2364 0.930 . S
C2374 C2372 1.419 . S
C2374 C2375 1.362 . S
C2375 H2365 0.930 . S
C2375 C2368 1.409 . S
C2375 C2374 1.362 . S
H2376 C2382 0.930 . S
H2377 C2385 0.930 . S
H2378 C2386 0.930 . S
H2379 C2387 0.930 . S
H2380 C2390 0.930 . S
H2381 C2391 0.930 . S
C2382 H2376 0.930 . S
C2382 C2383 1.355 . S
C2382 C2384 1.415 . S
C2383 C2382 1.355 . S
C2383 C2385 1.419 . S
C2384 C2382 1.415 . S
C2384 C2389 1.425 . S
C2384 C2391 1.409 . S
C2385 H2377 0.930 . S
C2385 C2383 1.419 . S
C2385 C2386 1.362 . S
C2386 H2378 0.930 . S
C2386 C2385 1.362 . S
C2386 C2389 1.409 . S
C2387 H2379 0.930 . S
C2387 C2388 1.355 . S
C2387 C2389 1.415 . S
C2388 C2387 1.355 . S
C2388 C2390 1.419 . S
C2389 C2384 1.425 . S
C2389 C2386 1.409 . S
C2389 C2387 1.415 . S
C2390 H2380 0.930 . S
C2390 C2388 1.419 . S
C2390 C2391 1.362 . S
C2391 H2381 0.930 . S
C2391 C2384 1.409 . S
C2391 C2390 1.362 . S
H2392 C2398 0.930 . S
H2393 C2401 0.930 . S
H2394 C2402 0.930 . S
H2395 C2403 0.930 . S
H2396 C2406 0.930 . S
H2397 C2407 0.930 . S
C2398 H2392 0.930 . S
C2398 C2399 1.355 . S
C2398 C2400 1.415 . S
C2399 C2398 1.355 . S
C2399 C2401 1.419 . S
C2400 C2398 1.415 . S
C2400 C2405 1.425 . S
C2400 C2407 1.409 . S
C2401 H2393 0.930 . S
C2401 C2399 1.419 . S
C2401 C2402 1.362 . S
C2402 H2394 0.930 . S
C2402 C2401 1.362 . S
C2402 C2405 1.409 . S
C2403 H2395 0.930 . S
C2403 C2404 1.355 . S
C2403 C2405 1.415 . S
C2404 C2403 1.355 . S
C2404 C2406 1.419 . S
C2405 C2400 1.425 . S
C2405 C2402 1.409 . S
C2405 C2403 1.415 . S
C2406 H2396 0.930 . S
C2406 C2404 1.419 . S
C2406 C2407 1.362 . S
C2407 H2397 0.930 . S
C2407 C2400 1.409 . S
C2407 C2406 1.362 . S
H2408 C2414 0.930 . S
H2409 C2417 0.930 . S
H2410 C2418 0.930 . S
H2411 C2419 0.930 . S
H2412 C2422 0.930 . S
H2413 C2423 0.930 . S
C2414 H2408 0.930 . S
C2414 C2415 1.355 . S
C2414 C2416 1.415 . S
C2415 C2414 1.355 . S
C2415 C2417 1.419 . S
C2416 C2414 1.415 . S
C2416 C2421 1.425 . S
C2416 C2423 1.409 . S
C2417 H2409 0.930 . S
C2417 C2415 1.419 . S
C2417 C2418 1.362 . S
C2418 H2410 0.930 . S
C2418 C2417 1.362 . S
C2418 C2421 1.409 . S
C2419 H2411 0.930 . S
C2419 C2420 1.355 . S
C2419 C2421 1.415 . S
C2420 C2419 1.355 . S
C2420 C2422 1.419 . S
C2421 C2416 1.425 . S
C2421 C2418 1.409 . S
C2421 C2419 1.415 . S
C2422 H2412 0.930 . S
C2422 C2420 1.419 . S
C2422 C2423 1.362 . S
C2423 H2413 0.930 . S
C2423 C2416 1.409 . S
C2423 C2422 1.362 . S
H2424 C2430 0.930 . S
H2425 C2433 0.930 . S
H2426 C2434 0.930 . S
H2427 C2435 0.930 . S
H2428 C2438 0.930 . S
H2429 C2439 0.930 . S
C2430 H2424 0.930 . S
C2430 C2431 1.355 . S
C2430 C2432 1.415 . S
C2431 C2430 1.355 . S
C2431 C2433 1.419 . S
C2432 C2430 1.415 . S
C2432 C2437 1.425 . S
C2432 C2439 1.409 . S
C2433 H2425 0.930 . S
C2433 C2431 1.419 . S
C2433 C2434 1.362 . S
C2434 H2426 0.930 . S
C2434 C2433 1.362 . S
C2434 C2437 1.409 . S
C2435 H2427 0.930 . S
C2435 C2436 1.355 . S
C2435 C2437 1.415 . S
C2436 C2435 1.355 . S
C2436 C2438 1.419 . S
C2437 C2432 1.425 . S
C2437 C2434 1.409 . S
C2437 C2435 1.415 . S
C2438 H2428 0.930 . S
C2438 C2436 1.419 . S
C2438 C2439 1.362 . S
C2439 H2429 0.930 . S
C2439 C2432 1.409 . S
C2439 C2438 1.362 . S
C916 N364 1.866 . S
C911 C4 1.936 . S
C932 C391 1.271 . S
C927 C21 1.270 . S
C943 C26 1.869 . S
C948 C405 1.866 . S
C964 N423 1.094 . S
C959 C43 1.134 . S
C975 C54 1.098 . S
C980 C428 1.086 . S
C991 C60 1.873 . S
C996 C368 1.845 . S
C1007 C76 1.098 . S
C1012 N387 1.093 . S
C1028 N400 2.017 . S
C1023 C81 2.002 . S
C1044 N446 1.601 . S
C1039 C10 1.679 . S
C1055 C15 1.377 . S
C1060 N469 1.378 . S
C1071 C27 1.669 . S
C1076 N492 1.668 . S
C1092 N525 1.411 . S
C1087 C38 1.435 . S
C1103 C49 1.357 . S
C1108 C552 1.360 . S
C1124 C575 1.786 . S
C1119 C59 1.789 . S
C1135 C71 1.257 . S
C1140 C598 1.266 . S
C1156 C612 1.708 . S
C1151 C87 1.696 . S
C1167 C5 1.756 . S
C1172 C529 1.753 . S
C1183 C48 1.369 . S
C1188 N571 1.352 . S
C1204 N594 1.565 . S
C1199 C65 1.653 . S
C1215 C70 1.367 . S
C1220 N607 1.321 . S
C1236 N548 1.668 . S
C1231 C82 1.717 . S
C1252 C474 1.849 . S
C1247 C32 1.843 . S
C1263 C37 1.298 . S
C1268 C497 1.302 . S
C1284 C451 1.434 . S
C1279 C16 1.413 . S
C1300 C644 1.968 . S
C1295 C92 1.948 . S
C1311 C109 1.181 . S
C1316 C658 1.172 . S
C1327 C114 1.802 . S
C1332 N686 1.758 . S
C1348 N699 0.995 . S
C1343 C131 1.026 . S
C1359 C142 1.145 . S
C1364 C704 1.128 . S
C1375 C148 1.769 . S
C1380 N640 1.732 . S
C1391 C164 1.190 . S
C1396 N653 1.168 . S
C1407 C169 1.917 . S
C1412 C690 1.930 . S
C1428 N538 1.654 . S
C1423 C98 1.706 . S
C1439 C103 1.314 . S
C1444 N722 1.307 . S
C1460 N584 1.653 . S
C1455 C115 1.636 . S
C1471 C126 1.422 . S
C1476 C759 1.422 . S
C1487 C137 1.538 . S
C1492 C460 1.525 . S
C1508 C773 1.852 . S
C1503 C147 1.836 . S
C1519 C159 1.347 . S
C1524 C506 1.372 . S
C1540 N791 1.614 . S
C1535 C175 1.679 . S
C1551 C93 1.696 . S
C1556 N755 1.665 . S
C1572 N768 1.289 . S
C1567 C136 1.357 . S
C1583 C153 1.650 . S
C1588 N502 1.630 . S
C1604 C796 1.236 . S
C1599 C158 1.239 . S
C1615 C170 1.697 . S
C1620 N456 1.704 . S
C1631 C120 1.725 . S
C1636 C727 1.739 . S
C1647 C125 1.367 . S
C1652 C589 1.368 . S
C1663 C104 1.352 . S
C1668 C543 1.388 . S
C1679 C180 2.003 . S
C1684 C681 2.001 . S
C1700 C713 1.178 . S
C1695 C197 1.155 . S
C1711 C202 1.796 . S
C1716 N630 1.708 . S
C1727 C219 1.092 . S
C1732 N663 1.065 . S
C1743 C230 1.108 . S
C1748 C667 1.096 . S
C1759 C236 1.895 . S
C1764 N676 1.788 . S
C1780 N709 1.035 . S
C1775 C252 1.046 . S
C1791 C257 2.056 . S
C1796 C635 2.048 . S
C1812 N824 1.667 . S
C1807 C186 1.737 . S
C1823 C191 1.305 . S
C1828 N561 1.251 . S
C1844 N847 1.540 . S
C1839 C203 1.566 . S
C1855 C214 1.452 . S
C1860 N617 1.417 . S
C1871 C225 1.391 . S
C1876 C865 1.412 . S
C1887 C235 1.862 . S
C1892 C483 1.878 . S
C1908 N883 1.209 . S
C1903 C247 1.267 . S
C1919 C263 1.728 . S
C1924 C520 1.744 . S
C1940 C621 1.767 . S
C1935 C181 1.768 . S
C1956 N479 1.390 . S
C1951 C224 1.397 . S
C1967 C241 1.752 . S
C1972 C888 1.758 . S
C1983 C246 1.281 . S
C1988 N515 1.239 . S
C2004 N860 1.717 . S
C1999 C258 1.740 . S
C2020 C566 1.738 . S
C2015 C208 1.718 . S
C2036 C851 1.368 . S
C2031 C213 1.355 . S
C2052 C828 1.385 . S
C2047 C192 1.374 . S
C2063 C268 1.898 . S
C2068 N410 1.810 . S
C2079 C285 1.163 . S
C2084 C437 1.129 . S
C2100 C359 1.849 . S
C2095 C290 1.864 . S
C2116 N377 1.050 . S
C2111 C307 1.038 . S
C2132 C382 1.261 . S
C2127 C318 1.255 . S
C2148 C414 1.785 . S
C2143 C324 1.806 . S
C2164 N433 1.177 . S
C2159 C340 1.236 . S
C2175 C345 1.967 . S
C2180 N354 1.985 . S
C2191 C274 1.659 . S
C2196 N870 1.631 . S
C2212 N778 1.265 . S
C2207 C279 1.284 . S
C2228 C897 1.801 . S
C2223 C291 1.796 . S
C2244 C805 1.214 . S
C2239 C302 1.211 . S
C2255 C313 1.523 . S
C2260 C819 1.537 . S
C2276 C736 1.805 . S
C2271 C323 1.786 . S
C2292 C842 1.453 . S
C2287 C335 1.457 . S
C2303 C351 1.704 . S
C2308 N745 1.641 . S
C2324 N801 1.617 . S
C2319 C269 1.646 . S
C2340 N732 1.281 . S
C2335 C312 1.314 . S
C2356 N837 1.576 . S
C2351 C329 1.605 . S
C2367 C334 1.312 . S
C2372 C750 1.309 . S
C2383 C346 1.730 . S
C2388 N814 1.703 . S
C2399 C296 1.856 . S
C2404 C782 1.856 . S
C2415 C301 1.315 . S
C2420 N893 1.301 . S
C2436 C874 1.370 . S
C2431 C280 1.378 . S
