# Generated by pormake.
# Topology eea, (3,6)-cn, num edge types: 1
# Building blocks:
#     Node 0, Type 0, BuildingBlock: BETDAH_clean_linker_0, # of connection points: 3
#     Node 1, Type 0, BuildingBlock: BETDAH_clean_linker_0, # of connection points: 3
#     Node 2, Type 0, BuildingBlock: BETDAH_clean_linker_0, # of connection points: 3
#     Node 3, Type 0, BuildingBlock: BETDAH_clean_linker_0, # of connection points: 3
#     Node 4, Type 0, BuildingBlock: BETDAH_clean_linker_0, # of connection points: 3
#     Node 5, Type 0, BuildingBlock: BETDAH_clean_linker_0, # of connection points: 3
#     Node 6, Type 0, BuildingBlock: BETDAH_clean_linker_0, # of connection points: 3
#     Node 7, Type 0, BuildingBlock: BETDAH_clean_linker_0, # of connection points: 3
#     Node 8, Type 0, BuildingBlock: BETDAH_clean_linker_0, # of connection points: 3
#     Node 9, Type 0, BuildingBlock: BETDAH_clean_linker_0, # of connection points: 3
#     Node 10, Type 0, BuildingBlock: BETDAH_clean_linker_0, # of connection points: 3
#     Node 11, Type 0, BuildingBlock: BETDAH_clean_linker_0, # of connection points: 3
#     Node 12, Type 0, BuildingBlock: BETDAH_clean_linker_0, # of connection points: 3
#     Node 13, Type 0, BuildingBlock: BETDAH_clean_linker_0, # of connection points: 3
#     Node 14, Type 0, BuildingBlock: BETDAH_clean_linker_0, # of connection points: 3
#     Node 15, Type 0, BuildingBlock: BETDAH_clean_linker_0, # of connection points: 3
#     Node 16, Type 0, BuildingBlock: BETDAH_clean_linker_0, # of connection points: 3
#     Node 17, Type 0, BuildingBlock: BETDAH_clean_linker_0, # of connection points: 3
#     Node 18, Type 1, BuildingBlock: KUMJIN_clean_sbu_0, # of connection points: 6
#     Node 19, Type 1, BuildingBlock: KUMJIN_clean_sbu_0, # of connection points: 6
#     Node 20, Type 1, BuildingBlock: KUMJIN_clean_sbu_0, # of connection points: 6
#     Node 21, Type 1, BuildingBlock: KUMJIN_clean_sbu_0, # of connection points: 6
#     Node 22, Type 1, BuildingBlock: KUMJIN_clean_sbu_0, # of connection points: 6
#     Node 23, Type 1, BuildingBlock: KUMJIN_clean_sbu_0, # of connection points: 6
#     Node 24, Type 1, BuildingBlock: KUMJIN_clean_sbu_0, # of connection points: 6
#     Node 25, Type 1, BuildingBlock: KUMJIN_clean_sbu_0, # of connection points: 6
#     Node 26, Type 1, BuildingBlock: KUMJIN_clean_sbu_0, # of connection points: 6
#     Edge 27, Type (0, 1), BuildingBlock: MIFKUJ_clean_linker_0, # of connection points: 2
#     Edge 28, Type (0, 1), BuildingBlock: MIFKUJ_clean_linker_0, # of connection points: 2
#     Edge 29, Type (0, 1), BuildingBlock: MIFKUJ_clean_linker_0, # of connection points: 2
#     Edge 30, Type (0, 1), BuildingBlock: MIFKUJ_clean_linker_0, # of connection points: 2
#     Edge 31, Type (0, 1), BuildingBlock: MIFKUJ_clean_linker_0, # of connection points: 2
#     Edge 32, Type (0, 1), BuildingBlock: MIFKUJ_clean_linker_0, # of connection points: 2
#     Edge 33, Type (0, 1), BuildingBlock: MIFKUJ_clean_linker_0, # of connection points: 2
#     Edge 34, Type (0, 1), BuildingBlock: MIFKUJ_clean_linker_0, # of connection points: 2
#     Edge 35, Type (0, 1), BuildingBlock: MIFKUJ_clean_linker_0, # of connection points: 2
#     Edge 36, Type (0, 1), BuildingBlock: MIFKUJ_clean_linker_0, # of connection points: 2
#     Edge 37, Type (0, 1), BuildingBlock: MIFKUJ_clean_linker_0, # of connection points: 2
#     Edge 38, Type (0, 1), BuildingBlock: MIFKUJ_clean_linker_0, # of connection points: 2
#     Edge 39, Type (0, 1), BuildingBlock: MIFKUJ_clean_linker_0, # of connection points: 2
#     Edge 40, Type (0, 1), BuildingBlock: MIFKUJ_clean_linker_0, # of connection points: 2
#     Edge 41, Type (0, 1), BuildingBlock: MIFKUJ_clean_linker_0, # of connection points: 2
#     Edge 42, Type (0, 1), BuildingBlock: MIFKUJ_clean_linker_0, # of connection points: 2
#     Edge 43, Type (0, 1), BuildingBlock: MIFKUJ_clean_linker_0, # of connection points: 2
#     Edge 44, Type (0, 1), BuildingBlock: MIFKUJ_clean_linker_0, # of connection points: 2
#     Edge 45, Type (0, 1), BuildingBlock: MIFKUJ_clean_linker_0, # of connection points: 2
#     Edge 46, Type (0, 1), BuildingBlock: MIFKUJ_clean_linker_0, # of connection points: 2
#     Edge 47, Type (0, 1), BuildingBlock: MIFKUJ_clean_linker_0, # of connection points: 2
#     Edge 48, Type (0, 1), BuildingBlock: MIFKUJ_clean_linker_0, # of connection points: 2
#     Edge 49, Type (0, 1), BuildingBlock: MIFKUJ_clean_linker_0, # of connection points: 2
#     Edge 50, Type (0, 1), BuildingBlock: MIFKUJ_clean_linker_0, # of connection points: 2
#     Edge 51, Type (0, 1), BuildingBlock: MIFKUJ_clean_linker_0, # of connection points: 2
#     Edge 52, Type (0, 1), BuildingBlock: MIFKUJ_clean_linker_0, # of connection points: 2
#     Edge 53, Type (0, 1), BuildingBlock: MIFKUJ_clean_linker_0, # of connection points: 2
#     Edge 54, Type (0, 1), BuildingBlock: MIFKUJ_clean_linker_0, # of connection points: 2
#     Edge 55, Type (0, 1), BuildingBlock: MIFKUJ_clean_linker_0, # of connection points: 2
#     Edge 56, Type (0, 1), BuildingBlock: MIFKUJ_clean_linker_0, # of connection points: 2
#     Edge 57, Type (0, 1), BuildingBlock: MIFKUJ_clean_linker_0, # of connection points: 2
#     Edge 58, Type (0, 1), BuildingBlock: MIFKUJ_clean_linker_0, # of connection points: 2
#     Edge 59, Type (0, 1), BuildingBlock: MIFKUJ_clean_linker_0, # of connection points: 2
#     Edge 60, Type (0, 1), BuildingBlock: MIFKUJ_clean_linker_0, # of connection points: 2
#     Edge 61, Type (0, 1), BuildingBlock: MIFKUJ_clean_linker_0, # of connection points: 2
#     Edge 62, Type (0, 1), BuildingBlock: MIFKUJ_clean_linker_0, # of connection points: 2
#     Edge 63, Type (0, 1), BuildingBlock: MIFKUJ_clean_linker_0, # of connection points: 2
#     Edge 64, Type (0, 1), BuildingBlock: MIFKUJ_clean_linker_0, # of connection points: 2
#     Edge 65, Type (0, 1), BuildingBlock: MIFKUJ_clean_linker_0, # of connection points: 2
#     Edge 66, Type (0, 1), BuildingBlock: MIFKUJ_clean_linker_0, # of connection points: 2
#     Edge 67, Type (0, 1), BuildingBlock: MIFKUJ_clean_linker_0, # of connection points: 2
#     Edge 68, Type (0, 1), BuildingBlock: MIFKUJ_clean_linker_0, # of connection points: 2
#     Edge 69, Type (0, 1), BuildingBlock: MIFKUJ_clean_linker_0, # of connection points: 2
#     Edge 70, Type (0, 1), BuildingBlock: MIFKUJ_clean_linker_0, # of connection points: 2
#     Edge 71, Type (0, 1), BuildingBlock: MIFKUJ_clean_linker_0, # of connection points: 2
#     Edge 72, Type (0, 1), BuildingBlock: MIFKUJ_clean_linker_0, # of connection points: 2
#     Edge 73, Type (0, 1), BuildingBlock: MIFKUJ_clean_linker_0, # of connection points: 2
#     Edge 74, Type (0, 1), BuildingBlock: MIFKUJ_clean_linker_0, # of connection points: 2
#     Edge 75, Type (0, 1), BuildingBlock: MIFKUJ_clean_linker_0, # of connection points: 2
#     Edge 76, Type (0, 1), BuildingBlock: MIFKUJ_clean_linker_0, # of connection points: 2
#     Edge 77, Type (0, 1), BuildingBlock: MIFKUJ_clean_linker_0, # of connection points: 2
#     Edge 78, Type (0, 1), BuildingBlock: MIFKUJ_clean_linker_0, # of connection points: 2
#     Edge 79, Type (0, 1), BuildingBlock: MIFKUJ_clean_linker_0, # of connection points: 2
#     Edge 80, Type (0, 1), BuildingBlock: MIFKUJ_clean_linker_0, # of connection points: 2
# Relax obj value: 0.022
# Max RMSD: 0.151
# Mean RMSD: 0.112
data_MOF--net-eea--node1-KUMJIN_clean_sbu_0--node2-BETDAH_clean_linker_0--edge1-MIFKUJ_clean_linker_0
_symmetry_space_group_name_H-M    P1
_symmetry_Int_Tables_number       1
_symmetry_cell_setting            triclinic
loop_
_symmetry_equiv_pos_as_xyz
'x, y, z'
_cell_length_a     71.700055
_cell_length_b     72.995971
_cell_length_c     82.91142
_cell_angle_alpha  90.262315
_cell_angle_beta   90.228487
_cell_angle_gamma 119.96287
loop_
_atom_site_label
_atom_site_type_symbol
_atom_site_fract_x
_atom_site_fract_y
_atom_site_fract_z
_atom_type_partial_charge
H0 H 0.24163 0.08053 0.43965 0.0
H1 H 0.23701 0.13571 0.42848 0.0
H2 H 0.20998 0.08244 0.39608 0.0
C3 C 0.23659 0.0889 0.43158 0.0
C4 C 0.22534 0.07891 0.41737 0.0
C5 C 0.24103 0.10944 0.43567 0.0
C6 C 0.23365 0.11989 0.42546 0.0
C7 C 0.22227 0.10992 0.4112 0.0
C8 C 0.2183 0.08964 0.4073 0.0
N9 N 0.21462 0.11959 0.40028 0.0
C10 C 0.21816 0.14004 0.4015 0.0
H11 H 0.93884 0.16045 0.4371 0.0
H12 H 0.88546 0.09701 0.43048 0.0
H13 H 0.93607 0.12386 0.39552 0.0
C14 C 0.93068 0.14586 0.43019 0.0
C15 C 0.93992 0.14413 0.41577 0.0
C16 C 0.91109 0.1289 0.43575 0.0
C17 C 0.90047 0.1102 0.42636 0.0
C18 C 0.90956 0.10844 0.41182 0.0
C19 C 0.92924 0.12532 0.40677 0.0
N20 N 0.89971 0.09011 0.40182 0.0
C21 C 0.88001 0.07188 0.40433 0.0
H22 H 0.85753 0.78514 0.43609 0.0
H23 H 0.9211 0.79413 0.42897 0.0
H24 H 0.89295 0.81534 0.39315 0.0
C25 C 0.87197 0.79123 0.4289 0.0
C26 C 0.87278 0.8005 0.41385 0.0
C27 C 0.88932 0.78899 0.43458 0.0
C28 C 0.9077 0.79582 0.4248 0.0
C29 C 0.90883 0.80522 0.40976 0.0
C30 C 0.89152 0.80762 0.40457 0.0
N31 N 0.92686 0.81265 0.39929 0.0
C32 C 0.94585 0.81205 0.40156 0.0
H33 H 0.07521 0.22709 0.59067 0.0
H34 H 0.12868 0.21613 0.59652 0.0
H35 H 0.07938 0.19468 0.6325 0.0
C36 C 0.08354 0.22078 0.59761 0.0
C37 C 0.07486 0.21078 0.61237 0.0
C38 C 0.10293 0.2228 0.59172 0.0
C39 C 0.11372 0.21456 0.60085 0.0
C40 C 0.10524 0.20458 0.61568 0.0
C41 C 0.08591 0.20272 0.62121 0.0
N42 N 0.11527 0.19601 0.62555 0.0
C43 C 0.13508 0.19717 0.62318 0.0
H44 H 0.78276 0.85167 0.5895 0.0
H45 H 0.77668 0.90576 0.60212 0.0
H46 H 0.80097 0.87936 0.63689 0.0
C47 C 0.78445 0.8635 0.59825 0.0
C48 C 0.79274 0.86371 0.61365 0.0
C49 C 0.77851 0.87853 0.59397 0.0
C50 C 0.78142 0.89427 0.60523 0.0
C51 C 0.78965 0.89451 0.62072 0.0
C52 C 0.79515 0.87926 0.62479 0.0
N53 N 0.79212 0.90935 0.63283 0.0
C54 C 0.78929 0.92663 0.63063 0.0
H55 H 0.14955 0.93466 0.58348 0.0
H56 H 0.09021 0.87821 0.59524 0.0
H57 H 0.12094 0.92842 0.63009 0.0
C58 C 0.13671 0.92568 0.59192 0.0
C59 C 0.1373 0.93428 0.60725 0.0
C60 C 0.11987 0.90543 0.58747 0.0
C61 C 0.10323 0.89378 0.59854 0.0
C62 C 0.10357 0.90232 0.61386 0.0
C63 C 0.12062 0.92234 0.61808 0.0
N64 N 0.0875 0.89135 0.62566 0.0
C65 C 0.06823 0.87246 0.62347 0.0
H66 H 0.89167 0.40615 0.78012 0.0
H67 H 0.88794 0.46128 0.7669 0.0
H68 H 0.86759 0.40976 0.73336 0.0
C69 C 0.88739 0.41456 0.77148 0.0
C70 C 0.87881 0.40521 0.75641 0.0
C71 C 0.89086 0.43483 0.77538 0.0
C72 C 0.88539 0.4457 0.76401 0.0
C73 C 0.87677 0.43642 0.7489 0.0
C74 C 0.87372 0.41642 0.74522 0.0
N75 N 0.8713 0.44669 0.73686 0.0
C76 C 0.87095 0.46539 0.73892 0.0
H77 H 0.61069 0.49591 0.76779 0.0
H78 H 0.55746 0.4322 0.76272 0.0
H79 H 0.60636 0.45813 0.72647 0.0
C80 C 0.60232 0.48118 0.76106 0.0
C81 C 0.61095 0.47915 0.74641 0.0
C82 C 0.58306 0.46432 0.76715 0.0
C83 C 0.57215 0.44535 0.75813 0.0
C84 C 0.58074 0.44316 0.74348 0.0
C85 C 0.60006 0.45997 0.73785 0.0
N86 N 0.57088 0.42425 0.73413 0.0
C87 C 0.55001 0.40748 0.73589 0.0
H88 H 0.51997 0.11893 0.76749 0.0
H89 H 0.58374 0.12809 0.76048 0.0
H90 H 0.55714 0.15346 0.72659 0.0
C91 C 0.53453 0.12494 0.76043 0.0
C92 C 0.53635 0.1363 0.74635 0.0
C93 C 0.5515 0.12188 0.76579 0.0
C94 C 0.57064 0.13044 0.75666 0.0
C95 C 0.57263 0.14186 0.74247 0.0
C96 C 0.55554 0.14479 0.73757 0.0
N97 N 0.59132 0.15077 0.73261 0.0
C98 C 0.60962 0.14883 0.73431 0.0
H99 H 0.74614 0.55904 0.92221 0.0
H100 H 0.79889 0.54691 0.92828 0.0
H101 H 0.74985 0.52671 0.96425 0.0
C102 C 0.75416 0.55235 0.92908 0.0
C103 C 0.74553 0.54278 0.944 0.0
C104 C 0.77341 0.55397 0.92318 0.0
C105 C 0.78426 0.54605 0.93265 0.0
C106 C 0.77572 0.53633 0.94753 0.0
C107 C 0.75644 0.53465 0.95294 0.0
N108 N 0.78533 0.52733 0.95738 0.0
C109 C 0.80571 0.52946 0.95597 0.0
H110 H 0.44259 0.18449 0.92143 0.0
H111 H 0.44669 0.24447 0.93091 0.0
H112 H 0.47152 0.21841 0.9655 0.0
C113 C 0.44715 0.19798 0.92931 0.0
C114 C 0.45752 0.19935 0.94405 0.0
C115 C 0.44309 0.21414 0.92446 0.0
C116 C 0.44987 0.23203 0.93447 0.0
C117 C 0.46028 0.23353 0.94925 0.0
C118 C 0.46389 0.2172 0.95392 0.0
N119 N 0.46723 0.25104 0.95991 0.0
C120 C 0.46513 0.26867 0.95716 0.0
H121 H 0.82181 0.26394 0.9233 0.0
H122 H 0.75886 0.20973 0.9308 0.0
H123 H 0.78598 0.26018 0.96575 0.0
C124 C 0.80748 0.25548 0.93056 0.0
C125 C 0.80617 0.2644 0.94525 0.0
C126 C 0.79057 0.23574 0.92517 0.0
C127 C 0.77193 0.22495 0.93471 0.0
C128 C 0.77044 0.23384 0.94943 0.0
C129 C 0.78749 0.25342 0.9545 0.0
N130 N 0.75222 0.22392 0.95965 0.0
C131 C 0.73411 0.20406 0.95754 0.0
H132 H 0.55912 0.74271 0.11032 0.0
H133 H 0.54341 0.79186 0.1031 0.0
H134 H 0.52213 0.74097 0.06875 0.0
C135 C 0.5512 0.74938 0.10328 0.0
C136 C 0.54077 0.73959 0.08875 0.0
C137 C 0.5522 0.7682 0.10854 0.0
C138 C 0.54269 0.77737 0.09909 0.0
C139 C 0.53173 0.76734 0.08473 0.0
C140 C 0.53081 0.74859 0.07976 0.0
N141 N 0.52103 0.77518 0.07495 0.0
C142 C 0.52218 0.79465 0.07663 0.0
H143 H 0.27506 0.83003 0.10205 0.0
H144 H 0.22701 0.76382 0.09955 0.0
H145 H 0.27522 0.79118 0.06296 0.0
C146 C 0.26827 0.81475 0.09611 0.0
C147 C 0.27735 0.81291 0.08161 0.0
C148 C 0.2501 0.79714 0.10276 0.0
C149 C 0.2408 0.77755 0.09452 0.0
C150 C 0.24993 0.77552 0.08012 0.0
C151 C 0.26815 0.7931 0.07391 0.0
N152 N 0.24186 0.75603 0.07166 0.0
C153 C 0.22178 0.73809 0.07363 0.0
H154 H 0.19111 0.45143 0.10444 0.0
H155 H 0.25435 0.45935 0.09765 0.0
H156 H 0.22653 0.48038 0.06131 0.0
C157 C 0.20546 0.45688 0.09721 0.0
C158 C 0.20664 0.46632 0.08221 0.0
C159 C 0.22254 0.45427 0.10295 0.0
C160 C 0.24111 0.46123 0.09338 0.0
C161 C 0.24258 0.47086 0.07838 0.0
C162 C 0.22537 0.47329 0.07299 0.0
N163 N 0.26083 0.47829 0.06815 0.0
C164 C 0.27982 0.47791 0.07104 0.0
H165 H 0.40987 0.89049 0.25302 0.0
H166 H 0.46427 0.88088 0.25872 0.0
H167 H 0.41689 0.86159 0.29595 0.0
C168 C 0.41857 0.88455 0.25992 0.0
C169 C 0.41078 0.87564 0.27517 0.0
C170 C 0.43791 0.88663 0.2538 0.0
C171 C 0.44955 0.87963 0.26327 0.0
C172 C 0.44198 0.87072 0.27853 0.0
C173 C 0.4227 0.86877 0.28428 0.0
N174 N 0.45302 0.86341 0.28861 0.0
C175 C 0.47248 0.86411 0.28549 0.0
H176 H 0.10815 0.51749 0.25735 0.0
H177 H 0.10754 0.57349 0.27351 0.0
H178 H 0.11929 0.53594 0.30726 0.0
C179 C 0.11016 0.52865 0.26679 0.0
C180 C 0.11437 0.5249 0.2826 0.0
C181 C 0.10732 0.54602 0.26336 0.0
C182 C 0.10946 0.55997 0.27598 0.0
C183 C 0.11374 0.55623 0.29184 0.0
C184 C 0.11598 0.53868 0.295 0.0
N185 N 0.1155 0.56939 0.30506 0.0
C186 C 0.11671 0.58889 0.30383 0.0
H187 H 0.48547 0.5917 0.25524 0.0
H188 H 0.42657 0.53429 0.26648 0.0
H189 H 0.45943 0.58183 0.30301 0.0
C190 C 0.47282 0.58209 0.26365 0.0
C191 C 0.47434 0.58925 0.27961 0.0
C192 C 0.4558 0.56212 0.25878 0.0
C193 C 0.43978 0.54961 0.27006 0.0
C194 C 0.4411 0.55686 0.28603 0.0
C195 C 0.45847 0.57644 0.29066 0.0
N196 N 0.42577 0.54492 0.29803 0.0
C197 C 0.40573 0.52705 0.29551 0.0
Eu198 Eu 0.49512 0.99167 0.98953 0.0
C199 C 0.54132 0.06548 0.03988 0.0
C200 C 0.57875 0.07477 0.03856 0.0
C201 C 0.56947 0.10172 0.04515 0.0
C202 C 0.55666 0.05971 0.03709 0.0
C203 C 0.5475 0.08644 0.04428 0.0
C204 C 0.58508 0.09589 0.04227 0.0
C205 C 0.50984 0.0753 0.04765 0.0
N206 N 0.52028 0.05033 0.03895 0.0
C207 C 0.50454 0.05471 0.04329 0.0
C208 C 0.53141 0.0913 0.04797 0.0
Eu209 Eu 0.51236 0.01623 0.03027 0.0
N210 N 0.54996 0.03918 0.03352 0.0
C211 C 0.5645 0.03233 0.03247 0.0
C212 C 0.59378 0.06806 0.03657 0.0
C213 C 0.58659 0.04667 0.03375 0.0
H214 H 0.48784 0.04242 0.0429 0.0
H215 H 0.59806 0.04124 0.03247 0.0
H216 H 0.60197 0.10774 0.04327 0.0
H217 H 0.4973 0.07882 0.05071 0.0
H218 H 0.55923 0.0159 0.03017 0.0
H219 H 0.40976 0.96667 0.98423 0.0
H220 H 0.61089 0.07914 0.03752 0.0
H221 H 0.52067 0.96568 0.97874 0.0
H222 H 0.44816 0.99161 0.98903 0.0
H223 H 0.51181 0.92965 0.97042 0.0
H224 H 0.57456 0.11796 0.04835 0.0
H225 H 0.39751 0.92925 0.97738 0.0
H226 H 0.40681 0.90091 0.97207 0.0
H227 H 0.53549 0.10723 0.05138 0.0
H228 H 0.43454 0.89079 0.96845 0.0
N229 N 0.45778 0.96864 0.98539 0.0
C230 C 0.44314 0.97538 0.98614 0.0
C231 C 0.41442 0.94014 0.97968 0.0
C232 C 0.42956 0.93347 0.97845 0.0
C233 C 0.42127 0.96123 0.98346 0.0
C234 C 0.45145 0.94834 0.98125 0.0
H235 H 0.47372 0.90143 0.96767 0.0
N236 N 0.48795 0.95771 0.98113 0.0
C237 C 0.49905 0.93307 0.97289 0.0
C238 C 0.46701 0.94267 0.97914 0.0
C239 C 0.50401 0.95346 0.97757 0.0
C240 C 0.47753 0.91718 0.97139 0.0
C241 C 0.46119 0.92194 0.97428 0.0
O242 O 0.51323 0.00018 0.96702 0.0
O243 O 0.52101 0.01717 0.00442 0.0
O244 O 0.50933 0.03954 0.01419 0.0
O245 O 0.48565 0.01681 0.99442 0.0
O246 O 0.53081 0.00271 0.98784 0.0
O247 O 0.48563 0.00446 0.9693 0.0
O248 O 0.4957 0.00868 0.05343 0.0
O249 O 0.48618 0.99109 0.01531 0.0
O250 O 0.49668 0.96795 0.0061 0.0
O251 O 0.52148 0.99091 0.02511 0.0
O252 O 0.47668 0.00519 0.03239 0.0
O253 O 0.52165 0.00217 0.04968 0.0
C254 C 0.53737 0.01765 0.99845 0.0
C255 C 0.49417 0.99786 0.94314 0.0
C256 C 0.49614 0.00452 0.91407 0.0
C257 C 0.50229 0.01194 0.93006 0.0
C258 C 0.48202 0.98275 0.91149 0.0
C259 C 0.48003 0.97631 0.94021 0.0
C260 C 0.47406 0.96883 0.92445 0.0
C261 C 0.49562 0.03531 1.00209 0.0
C262 C 0.50067 0.00573 0.95977 0.0
C263 C 0.43935 0.90683 0.97208 0.0
C264 C 0.42356 0.9126 0.97414 0.0
C265 C 0.46989 0.99066 0.02142 0.0
C266 C 0.51585 0.00958 0.07633 0.0
C267 C 0.508 0.99551 0.08942 0.0
C268 C 0.51578 0.00259 0.10522 0.0
C269 C 0.53143 0.024 0.10761 0.0
C270 C 0.53146 0.03078 0.07905 0.0
C271 C 0.53917 0.03792 0.09462 0.0
C272 C 0.51037 0.97201 0.01819 0.0
C273 C 0.50777 0.00196 0.0599 0.0
H274 H 0.51307 0.02863 0.93238 0.0
H275 H 0.47724 0.9764 0.89939 0.0
H276 H 0.47367 0.96529 0.95008 0.0
H277 H 0.46322 0.95214 0.92227 0.0
H278 H 0.4961 0.97907 0.08725 0.0
H279 H 0.53752 0.0301 0.11959 0.0
H280 H 0.53766 0.04178 0.06914 0.0
H281 H 0.55116 0.05434 0.09665 0.0
Eu282 Eu 0.02285 0.50835 0.99597 0.0
C283 C 0.94545 0.47245 0.0435 0.0
C284 C 0.93392 0.49839 0.04303 0.0
C285 C 0.90793 0.46159 0.0484 0.0
C286 C 0.95012 0.493 0.04123 0.0
C287 C 0.92445 0.45659 0.04759 0.0
C288 C 0.91267 0.48249 0.04614 0.0
C289 C 0.93832 0.43291 0.05198 0.0
N290 N 0.96191 0.46837 0.0431 0.0
C291 C 0.95891 0.44925 0.04801 0.0
C292 C 0.92093 0.43648 0.05149 0.0
Eu293 Eu 0.99612 0.4964 0.03548 0.0
N294 N 0.97083 0.508 0.03842 0.0
C295 C 0.97675 0.52892 0.03853 0.0
C296 C 0.93974 0.51969 0.04233 0.0
C297 C 0.96127 0.53507 0.04025 0.0
H298 H 0.97231 0.44641 0.04836 0.0
H299 H 0.96598 0.55165 0.04004 0.0
H300 H 0.89996 0.48633 0.04735 0.0
H301 H 0.9359 0.41758 0.0554 0.0
H302 H 0.99335 0.54095 0.03694 0.0
H303 H 0.05165 0.45238 0.98854 0.0
H304 H 0.92784 0.52439 0.04397 0.0
H305 H 0.04798 0.56013 0.98762 0.0
H306 H 0.02495 0.46344 0.99355 0.0
H307 H 0.08453 0.58888 0.98101 0.0
H308 H 0.89164 0.44961 0.05136 0.0
H309 H 0.08973 0.47928 0.98357 0.0
H310 H 0.11782 0.51747 0.98067 0.0
H311 H 0.90504 0.42385 0.0547 0.0
H312 H 0.12683 0.55465 0.97884 0.0
N313 N 0.0476 0.49633 0.99195 0.0
C314 C 0.04147 0.47537 0.99153 0.0
C315 C 0.07808 0.48423 0.98603 0.0
C316 C 0.08415 0.50565 0.986 0.0
C317 C 0.05662 0.46902 0.98873 0.0
C318 C 0.06827 0.51127 0.98885 0.0
H319 H 0.1145 0.58141 0.97879 0.0
N320 N 0.05732 0.53676 0.9895 0.0
C321 C 0.08164 0.57304 0.98296 0.0
C322 C 0.07332 0.53215 0.98771 0.0
C323 C 0.06096 0.55672 0.98665 0.0
C324 C 0.09851 0.56875 0.98174 0.0
C325 C 0.09441 0.54804 0.98384 0.0
O326 O 0.01593 0.51949 0.97357 0.0
O327 O 0.99479 0.50539 0.00991 0.0
O328 O 0.9742 0.46936 0.01886 0.0
O329 O 0.9975 0.47333 0.9977 0.0
O330 O 0.01047 0.5315 0.99533 0.0
O331 O 0.01266 0.48834 0.9744 0.0
O332 O 0.00345 0.48722 0.05867 0.0
O333 O 0.02339 0.49853 0.02124 0.0
O334 O 0.04579 0.53248 0.0139 0.0
O335 O 0.02121 0.53155 0.03255 0.0
O336 O 0.00914 0.47371 0.03697 0.0
O337 O 0.00782 0.51854 0.05581 0.0
C338 C 0.99427 0.52141 0.00475 0.0
C339 C 0.02154 0.50594 0.94938 0.0
C340 C 0.01721 0.50469 0.92013 0.0
C341 C 0.00835 0.50121 0.93568 0.0
C342 C 0.03953 0.51301 0.91851 0.0
C343 C 0.04372 0.5141 0.94756 0.0
C344 C 0.05265 0.51762 0.93217 0.0
C345 C 0.97918 0.46247 0.00565 0.0
C346 C 0.01183 0.50255 0.96542 0.0
C347 C 0.1105 0.54265 0.98171 0.0
C348 C 0.10537 0.52148 0.98275 0.0
C349 C 0.02441 0.48292 0.02666 0.0
C350 C 0.99838 0.50344 0.0816 0.0
C351 C 0.01161 0.51207 0.09527 0.0
C352 C 0.00254 0.51075 0.11057 0.0
C353 C 0.97997 0.50066 0.11188 0.0
C354 C 0.97597 0.4936 0.08317 0.0
C355 C 0.96684 0.49222 0.09825 0.0
C356 C 0.04073 0.54079 0.02614 0.0
C357 C 0.00819 0.50499 0.06579 0.0
H358 H 0.99122 0.49509 0.93716 0.0
H359 H 0.04678 0.51566 0.9067 0.0
H360 H 0.0541 0.51776 0.95796 0.0
H361 H 0.06979 0.52391 0.93082 0.0
H362 H 0.02894 0.51997 0.09393 0.0
H363 H 0.97241 0.49896 0.12348 0.0
H364 H 0.96555 0.48698 0.0728 0.0
H365 H 0.94952 0.48448 0.0994 0.0
Eu366 Eu 0.51796 0.50283 0.03226 0.0
C367 C 0.48927 0.54716 0.9811 0.0
C368 C 0.45064 0.52453 0.97897 0.0
C369 C 0.46702 0.56184 0.97246 0.0
C370 C 0.47114 0.52753 0.98289 0.0
C371 C 0.48746 0.56449 0.97564 0.0
C372 C 0.4487 0.54184 0.97389 0.0
C373 C 0.52623 0.58481 0.97429 0.0
N374 N 0.5088 0.54885 0.98332 0.0
C375 C 0.52718 0.56706 0.97941 0.0
C376 C 0.50628 0.58363 0.97264 0.0
Eu377 Eu 0.50943 0.51831 0.99195 0.0
N378 N 0.47378 0.51097 0.98693 0.0
C379 C 0.45671 0.49082 0.98641 0.0
C380 C 0.43289 0.50404 0.97939 0.0
C381 C 0.43598 0.48709 0.98301 0.0
H382 H 0.54268 0.56809 0.98061 0.0
H383 H 0.42244 0.47112 0.983 0.0
H384 H 0.43324 0.5398 0.97036 0.0
H385 H 0.54088 0.59936 0.97159 0.0
H386 H 0.45891 0.47753 0.98889 0.0
H387 H 0.60437 0.55085 0.04335 0.0
H388 H 0.41688 0.50103 0.9764 0.0
H389 H 0.48465 0.45151 0.03981 0.0
H390 H 0.56811 0.54403 0.03601 0.0
H391 H 0.4867 0.42022 0.04837 0.0
H392 H 0.46529 0.57493 0.96819 0.0
H393 H 0.60994 0.5212 0.05077 0.0
H394 H 0.59379 0.48235 0.05637 0.0
H395 H 0.50556 0.59731 0.96849 0.0
H396 H 0.56212 0.44677 0.05694 0.0
N397 N 0.55351 0.51062 0.03801 0.0
C398 C 0.57039 0.53085 0.03881 0.0
C399 C 0.59407 0.51799 0.04712 0.0
C400 C 0.5765 0.49737 0.04701 0.0
C401 C 0.59097 0.53481 0.04303 0.0
C402 C 0.55616 0.49412 0.04226 0.0
H403 H 0.52212 0.42343 0.05401 0.0
N404 N 0.51861 0.47196 0.0398 0.0
C405 C 0.5013 0.43527 0.0469 0.0
C406 C 0.53816 0.47416 0.04313 0.0
C407 C 0.5002 0.45303 0.04205 0.0
C408 C 0.52133 0.43713 0.05001 0.0
C409 C 0.54004 0.45682 0.04844 0.0
O410 O 0.49773 0.49328 0.05378 0.0
O411 O 0.49618 0.50924 0.01684 0.0
O412 O 0.51514 0.54504 0.00889 0.0
O413 O 0.53195 0.53857 0.03064 0.0
O414 O 0.48164 0.48245 0.03076 0.0
O415 O 0.52837 0.52238 0.05408 0.0
O416 O 0.52839 0.52641 0.96978 0.0
O417 O 0.53142 0.51259 0.00757 0.0
O418 O 0.51477 0.4778 0.01462 0.0
O419 O 0.49476 0.4825 0.99459 0.0
O420 O 0.54586 0.53864 0.99302 0.0
O421 O 0.49845 0.49684 0.97119 0.0
C422 C 0.47811 0.49404 0.02096 0.0
C423 C 0.51571 0.50466 0.0789 0.0
C424 C 0.5094 0.50371 0.10797 0.0
C425 C 0.50566 0.50823 0.09214 0.0
C426 C 0.52342 0.49564 0.11025 0.0
C427 C 0.5296 0.49666 0.08152 0.0
C428 C 0.5334 0.49215 0.09711 0.0
C429 C 0.52618 0.55067 0.02263 0.0
C430 C 0.51158 0.50935 0.06243 0.0
C431 C 0.56036 0.45985 0.05271 0.0
C432 C 0.57847 0.48012 0.05221 0.0
C433 C 0.54949 0.5277 0.00339 0.0
C434 C 0.50862 0.51252 0.94557 0.0
C435 C 0.51566 0.50581 0.93213 0.0
C436 C 0.50954 0.50798 0.91637 0.0
C437 C 0.49656 0.51724 0.91432 0.0
C438 C 0.49564 0.52162 0.94318 0.0
C439 C 0.48971 0.52402 0.92764 0.0
C440 C 0.50223 0.47117 1.00167 0.0
C441 C 0.5144 0.50949 0.96201 0.0
H442 H 0.49482 0.51431 0.09008 0.0
H443 H 0.52699 0.49234 0.12223 0.0
H444 H 0.5376 0.49398 0.07157 0.0
H445 H 0.54422 0.48605 0.09904 0.0
H446 H 0.52549 0.49854 0.93397 0.0
H447 H 0.49186 0.51946 0.90238 0.0
H448 H 0.48998 0.52676 0.95331 0.0
H449 H 0.47973 0.53112 0.92592 0.0
Eu450 Eu 0.16051 0.32122 0.32536 0.0
C451 C 0.20353 0.39655 0.37474 0.0
C452 C 0.24137 0.40717 0.37436 0.0
C453 C 0.23053 0.43328 0.37978 0.0
C454 C 0.21953 0.39148 0.37264 0.0
C455 C 0.2088 0.4174 0.37869 0.0
C456 C 0.2468 0.42818 0.37759 0.0
C457 C 0.17077 0.40492 0.38146 0.0
N458 N 0.18274 0.38084 0.37362 0.0
C459 C 0.16637 0.38451 0.37746 0.0
C460 C 0.19206 0.42152 0.38184 0.0
Eu461 Eu 0.17646 0.34696 0.36594 0.0
N462 N 0.21372 0.37103 0.36955 0.0
C463 C 0.22886 0.36491 0.36922 0.0
C464 C 0.25706 0.40119 0.3731 0.0
C465 C 0.25074 0.37991 0.37076 0.0
H466 H 0.14987 0.37175 0.37704 0.0
H467 H 0.26272 0.37505 0.37004 0.0
H468 H 0.26349 0.4405 0.37876 0.0
H469 H 0.15775 0.4078 0.38428 0.0
H470 H 0.22422 0.34855 0.36728 0.0
H471 H 0.07398 0.29274 0.32326 0.0
H472 H 0.27402 0.41278 0.37425 0.0
H473 H 0.18619 0.2972 0.31078 0.0
H474 H 0.11249 0.31935 0.3249 0.0
H475 H 0.17825 0.2612 0.30308 0.0
H476 H 0.23493 0.44945 0.38265 0.0
H477 H 0.06261 0.25493 0.31952 0.0
H478 H 0.07307 0.22727 0.31439 0.0
H479 H 0.19542 0.43732 0.38494 0.0
H480 H 0.10153 0.21863 0.3088 0.0
N481 N 0.12306 0.29692 0.32258 0.0
C482 C 0.10788 0.30298 0.32318 0.0
C483 C 0.07959 0.26658 0.32022 0.0
C484 C 0.09527 0.26066 0.31847 0.0
C485 C 0.08595 0.28791 0.32227 0.0
C486 C 0.11715 0.27645 0.31957 0.0
H487 H 0.14082 0.23127 0.30422 0.0
N488 N 0.15377 0.28751 0.31667 0.0
C489 C 0.16538 0.26386 0.30693 0.0
C490 C 0.13305 0.27157 0.3165 0.0
C491 C 0.16983 0.2842 0.31126 0.0
C492 C 0.14425 0.247 0.30764 0.0
C493 C 0.12769 0.25081 0.31216 0.0
O494 O 0.17936 0.33164 0.3032 0.0
O495 O 0.18568 0.34733 0.3403 0.0
O496 O 0.17338 0.36949 0.34904 0.0
O497 O 0.14989 0.3456 0.32978 0.0
O498 O 0.19637 0.33329 0.32394 0.0
O499 O 0.1495 0.33193 0.30466 0.0
O500 O 0.15812 0.33853 0.38834 0.0
O501 O 0.15143 0.32047 0.35117 0.0
O502 O 0.16666 0.29946 0.34103 0.0
O503 O 0.18646 0.32204 0.36254 0.0
O504 O 0.1406 0.33487 0.36709 0.0
O505 O 0.18682 0.33597 0.38681 0.0
C506 C 0.20235 0.34813 0.33461 0.0
C507 C 0.16051 0.32712 0.27884 0.0
C508 C 0.1656 0.33348 0.24978 0.0
C509 C 0.16958 0.34114 0.26581 0.0
C510 C 0.15227 0.31163 0.24706 0.0
C511 C 0.14723 0.30544 0.2758 0.0
C512 C 0.14314 0.29778 0.25997 0.0
C513 C 0.15956 0.36444 0.33692 0.0
C514 C 0.16561 0.33517 0.29553 0.0
C515 C 0.10599 0.23475 0.31191 0.0
C516 C 0.08978 0.23967 0.31509 0.0
C517 C 0.13471 0.31966 0.35679 0.0
C518 C 0.17721 0.34257 0.41256 0.0
C519 C 0.17062 0.32867 0.42577 0.0
C520 C 0.17579 0.33659 0.44173 0.0
C521 C 0.18754 0.35868 0.4441 0.0
C522 C 0.18908 0.36444 0.41529 0.0
C523 C 0.19417 0.37241 0.43099 0.0
C524 C 0.17894 0.30421 0.35412 0.0
C525 C 0.17127 0.33413 0.39603 0.0
H526 H 0.18001 0.35788 0.26818 0.0
H527 H 0.14866 0.30526 0.23489 0.0
H528 H 0.14012 0.29445 0.28565 0.0
H529 H 0.13286 0.28102 0.2577 0.0
H530 H 0.16166 0.31176 0.42356 0.0
H531 H 0.19138 0.36547 0.45612 0.0
H532 H 0.19429 0.37533 0.4053 0.0
H533 H 0.20318 0.38933 0.43302 0.0
Eu534 Eu 0.68473 0.83638 0.32864 0.0
C535 C 0.60842 0.8016 0.37836 0.0
C536 C 0.59608 0.82698 0.37988 0.0
C537 C 0.57232 0.79057 0.38788 0.0
C538 C 0.6121 0.82191 0.37598 0.0
C539 C 0.58842 0.78566 0.38424 0.0
C540 C 0.57632 0.81127 0.38603 0.0
C541 C 0.60276 0.76195 0.3847 0.0
N542 N 0.62486 0.79777 0.37595 0.0
C543 C 0.62249 0.77841 0.37938 0.0
C544 C 0.58559 0.76554 0.38708 0.0
Eu545 Eu 0.65819 0.82687 0.36809 0.0
N546 N 0.63189 0.83707 0.3711 0.0
C547 C 0.6368 0.85765 0.37003 0.0
C548 C 0.60076 0.84792 0.37819 0.0
C549 C 0.6212 0.86331 0.3732 0.0
H550 H 0.63574 0.77553 0.37781 0.0
H551 H 0.6251 0.87961 0.37209 0.0
H552 H 0.56424 0.81506 0.38984 0.0
H553 H 0.60093 0.74663 0.38725 0.0
H554 H 0.65278 0.86979 0.36669 0.0
H555 H 0.71459 0.78058 0.32672 0.0
H556 H 0.5889 0.85247 0.38106 0.0
H557 H 0.70967 0.88726 0.31778 0.0
H558 H 0.68721 0.79143 0.32859 0.0
H559 H 0.74644 0.91588 0.31134 0.0
H560 H 0.557 0.77866 0.39269 0.0
H561 H 0.75284 0.80745 0.32275 0.0
H562 H 0.78067 0.84547 0.31811 0.0
H563 H 0.57045 0.75287 0.39153 0.0
H564 H 0.78934 0.88226 0.3139 0.0
N565 N 0.70968 0.82425 0.32606 0.0
C566 C 0.70378 0.80335 0.32677 0.0
C567 C 0.74086 0.81233 0.32352 0.0
C568 C 0.74665 0.83359 0.32195 0.0
C569 C 0.71929 0.79711 0.32573 0.0
C570 C 0.73044 0.83911 0.32317 0.0
H571 H 0.77666 0.90861 0.31118 0.0
N572 N 0.71918 0.86429 0.32152 0.0
C573 C 0.74356 0.90019 0.31404 0.0
C574 C 0.73535 0.85977 0.32083 0.0
C575 C 0.72277 0.88397 0.31763 0.0
C576 C 0.76058 0.89603 0.314 0.0
C577 C 0.75655 0.87556 0.31719 0.0
O578 O 0.67705 0.84558 0.30564 0.0
O579 O 0.65707 0.83442 0.34229 0.0
O580 O 0.63531 0.80099 0.35109 0.0
O581 O 0.65992 0.80138 0.33259 0.0
O582 O 0.67161 0.85903 0.32642 0.0
O583 O 0.67441 0.81481 0.30796 0.0
O584 O 0.6671 0.81956 0.39139 0.0
O585 O 0.68569 0.82869 0.35442 0.0
O586 O 0.70732 0.86217 0.34575 0.0
O587 O 0.68267 0.86204 0.36403 0.0
O588 O 0.67161 0.80463 0.3708 0.0
O589 O 0.66831 0.84956 0.38804 0.0
C590 C 0.6559 0.84971 0.3364 0.0
C591 C 0.68269 0.83071 0.28223 0.0
C592 C 0.67877 0.83066 0.25294 0.0
C593 C 0.67003 0.82801 0.26851 0.0
C594 C 0.70049 0.83616 0.25139 0.0
C595 C 0.70429 0.83616 0.28044 0.0
C596 C 0.71311 0.83887 0.26506 0.0
C597 C 0.6406 0.7921 0.33936 0.0
C598 C 0.67315 0.8282 0.29827 0.0
C599 C 0.77291 0.87032 0.31654 0.0
C600 C 0.76797 0.84937 0.31893 0.0
C601 C 0.68699 0.81358 0.36056 0.0
C602 C 0.66127 0.83525 0.41428 0.0
C603 C 0.67485 0.84157 0.42787 0.0
C604 C 0.66625 0.83912 0.44345 0.0
C605 C 0.64392 0.83042 0.44524 0.0
C606 C 0.63907 0.82675 0.41629 0.0
C607 C 0.63045 0.82437 0.4317 0.0
C608 C 0.70213 0.8711 0.35749 0.0
C609 C 0.6705 0.83713 0.39818 0.0
H610 H 0.65342 0.82409 0.27 0.0
H611 H 0.70765 0.83805 0.2396 0.0
H612 H 0.71428 0.83832 0.29088 0.0
H613 H 0.72978 0.84303 0.26373 0.0
H614 H 0.69202 0.848 0.42633 0.0
H615 H 0.63691 0.82851 0.45709 0.0
H616 H 0.6284 0.82189 0.40601 0.0
H617 H 0.61328 0.81777 0.43315 0.0
Eu618 Eu 0.18666 0.83597 0.36618 0.0
C619 C 0.14496 0.86909 0.31714 0.0
C620 C 0.10695 0.84325 0.31822 0.0
C621 C 0.11843 0.87995 0.31232 0.0
C622 C 0.12869 0.84855 0.31963 0.0
C623 C 0.14005 0.88496 0.31312 0.0
C624 C 0.10191 0.85914 0.31489 0.0
C625 C 0.17816 0.90914 0.3099 0.0
N626 N 0.16564 0.87336 0.31796 0.0
C627 C 0.1822 0.89284 0.31387 0.0
C628 C 0.157 0.90525 0.3097 0.0
Eu629 Eu 0.17136 0.84542 0.32585 0.0
N630 N 0.13414 0.8336 0.3228 0.0
C631 C 0.11864 0.81276 0.32356 0.0
C632 C 0.09094 0.82206 0.31989 0.0
C633 C 0.09684 0.80672 0.32235 0.0
H634 H 0.19859 0.89592 0.31417 0.0
H635 H 0.0846 0.79024 0.32338 0.0
H636 H 0.08529 0.85541 0.31394 0.0
H637 H 0.19135 0.92469 0.30703 0.0
H638 H 0.12291 0.80074 0.32557 0.0
H639 H 0.27332 0.8886 0.37256 0.0
H640 H 0.07405 0.81735 0.31898 0.0
H641 H 0.15639 0.78471 0.37592 0.0
H642 H 0.23608 0.87888 0.36572 0.0
H643 H 0.16124 0.75578 0.38631 0.0
H644 H 0.11432 0.89197 0.30941 0.0
H645 H 0.28134 0.86157 0.38285 0.0
H646 H 0.26758 0.8241 0.39171 0.0
H647 H 0.1539 0.91789 0.30659 0.0
H648 H 0.23746 0.78785 0.39459 0.0
N649 N 0.22317 0.84622 0.37085 0.0
C650 C 0.23935 0.86673 0.36973 0.0
C651 C 0.265 0.85702 0.37941 0.0
C652 C 0.24824 0.83614 0.38104 0.0
C653 C 0.26053 0.87236 0.37368 0.0
C654 C 0.22723 0.83113 0.37649 0.0
H655 H 0.19781 0.76218 0.39247 0.0
N656 N 0.18996 0.80703 0.37531 0.0
C657 C 0.17513 0.7712 0.38423 0.0
C658 C 0.21012 0.81089 0.37871 0.0
C659 C 0.17246 0.78765 0.37833 0.0
C660 C 0.1958 0.77485 0.38763 0.0
C661 C 0.21358 0.79496 0.38515 0.0
O662 O 0.16794 0.82895 0.38832 0.0
O663 O 0.16176 0.83832 0.35156 0.0
O664 O 0.17577 0.87195 0.3424 0.0
O665 O 0.19932 0.871 0.36136 0.0
O666 O 0.15058 0.81367 0.36753 0.0
O667 O 0.19824 0.85824 0.38649 0.0
O668 O 0.18761 0.85421 0.30256 0.0
O669 O 0.19639 0.84336 0.34047 0.0
O670 O 0.18363 0.80995 0.34973 0.0
O671 O 0.1602 0.81054 0.33042 0.0
O672 O 0.20763 0.8674 0.32398 0.0
O673 O 0.16045 0.82274 0.30588 0.0
C674 C 0.14482 0.82315 0.35729 0.0
C675 C 0.18701 0.84359 0.4125 0.0
C676 C 0.18006 0.84389 0.44132 0.0
C677 C 0.17618 0.8471 0.42519 0.0
C678 C 0.19506 0.83724 0.4445 0.0
C679 C 0.20191 0.83703 0.41596 0.0
C680 C 0.20591 0.83389 0.4319 0.0
C681 C 0.18994 0.88059 0.35429 0.0
C682 C 0.18203 0.84615 0.39573 0.0
C683 C 0.2345 0.79979 0.38944 0.0
C684 C 0.25172 0.82041 0.38763 0.0
C685 C 0.21338 0.85832 0.33462 0.0
C686 C 0.16617 0.83696 0.27967 0.0
C687 C 0.1743 0.83207 0.26592 0.0
C688 C 0.16634 0.83248 0.25043 0.0
C689 C 0.1502 0.83802 0.24897 0.0
C690 C 0.15011 0.84243 0.27793 0.0
C691 C 0.14221 0.84297 0.26264 0.0
C692 C 0.16964 0.80113 0.33774 0.0
C693 C 0.17444 0.8361 0.29574 0.0
H694 H 0.16451 0.852 0.42249 0.0
H695 H 0.19866 0.83493 0.45678 0.0
H696 H 0.21041 0.83429 0.40638 0.0
H697 H 0.21747 0.82886 0.4345 0.0
H698 H 0.18656 0.82763 0.26733 0.0
H699 H 0.14394 0.83878 0.23724 0.0
H700 H 0.14367 0.84623 0.28836 0.0
H701 H 0.12984 0.84725 0.26137 0.0
Eu702 Eu 0.83115 0.65798 0.65811 0.0
C703 C 0.87905 0.73082 0.70936 0.0
C704 C 0.91655 0.7411 0.70615 0.0
C705 C 0.90691 0.76714 0.71477 0.0
C706 C 0.89451 0.72567 0.70532 0.0
C707 C 0.88504 0.75151 0.71446 0.0
C708 C 0.92264 0.76195 0.71059 0.0
C709 C 0.84748 0.73937 0.71952 0.0
N710 N 0.85812 0.71536 0.70891 0.0
C711 C 0.84237 0.7191 0.71438 0.0
C712 C 0.86889 0.75572 0.71938 0.0
Eu713 Eu 0.85037 0.68181 0.69897 0.0
N714 N 0.88803 0.70538 0.70107 0.0
C715 C 0.90285 0.69912 0.69862 0.0
C716 C 0.93178 0.735 0.70277 0.0
C717 C 0.92489 0.71385 0.69921 0.0
H718 H 0.82577 0.70655 0.71435 0.0
H719 H 0.93655 0.70888 0.69684 0.0
H720 H 0.93947 0.77407 0.71113 0.0
H721 H 0.8349 0.74239 0.72352 0.0
H722 H 0.89784 0.68289 0.69574 0.0
H723 H 0.74499 0.63107 0.65734 0.0
H724 H 0.94886 0.74639 0.70319 0.0
H725 H 0.85659 0.63303 0.64465 0.0
H726 H 0.78367 0.65704 0.65953 0.0
H727 H 0.84782 0.59706 0.63612 0.0
H728 H 0.91184 0.78319 0.7185 0.0
H729 H 0.73298 0.59354 0.65138 0.0
H730 H 0.74272 0.56578 0.64459 0.0
H731 H 0.87282 0.77141 0.72337 0.0
H732 H 0.77066 0.55652 0.63878 0.0
N733 N 0.79365 0.63446 0.65522 0.0
C734 C 0.77875 0.64078 0.65685 0.0
C735 C 0.75003 0.6049 0.6523 0.0
C736 C 0.76542 0.59874 0.6498 0.0
C737 C 0.75675 0.62608 0.65563 0.0
C738 C 0.7874 0.61414 0.65125 0.0
H739 H 0.80987 0.56812 0.63541 0.0
N740 N 0.82401 0.62431 0.64901 0.0
C741 C 0.83508 0.60015 0.63951 0.0
C742 C 0.80307 0.6089 0.64804 0.0
C743 C 0.83999 0.62049 0.64428 0.0
C744 C 0.81364 0.58385 0.63915 0.0
C745 C 0.79729 0.58817 0.64323 0.0
O746 O 0.84871 0.66792 0.6354 0.0
O747 O 0.85738 0.68364 0.67269 0.0
O748 O 0.84533 0.70493 0.68419 0.0
O749 O 0.82136 0.68253 0.66435 0.0
O750 O 0.86689 0.67001 0.65516 0.0
O751 O 0.81974 0.66974 0.63833 0.0
O752 O 0.83465 0.6729 0.7225 0.0
O753 O 0.82381 0.65685 0.68425 0.0
O754 O 0.83444 0.6344 0.67365 0.0
O755 O 0.86018 0.65745 0.69211 0.0
O756 O 0.81469 0.66993 0.70246 0.0
O757 O 0.86103 0.66752 0.71728 0.0
C758 C 0.87364 0.68488 0.66587 0.0
C759 C 0.82888 0.66471 0.61183 0.0
C760 C 0.83354 0.67125 0.58276 0.0
C761 C 0.83846 0.67868 0.59883 0.0
C762 C 0.81873 0.6497 0.57998 0.0
C763 C 0.81414 0.64334 0.60872 0.0
C764 C 0.80909 0.63593 0.59286 0.0
C765 C 0.8312 0.70075 0.6724 0.0
C766 C 0.8351 0.67237 0.62854 0.0
C767 C 0.77543 0.57259 0.64232 0.0
C768 C 0.75952 0.57786 0.64562 0.0
C769 C 0.8077 0.65584 0.69115 0.0
C770 C 0.85592 0.67349 0.74453 0.0
C771 C 0.84732 0.65943 0.75759 0.0
C772 C 0.85561 0.66599 0.77336 0.0
C773 C 0.87244 0.68694 0.77575 0.0
C774 C 0.8727 0.6942 0.74726 0.0
C775 C 0.88086 0.70086 0.7628 0.0
C776 C 0.84899 0.63864 0.68509 0.0
C777 C 0.84736 0.66643 0.7281 0.0
H778 H 0.85003 0.69517 0.60123 0.0
H779 H 0.81438 0.64353 0.5678 0.0
H780 H 0.80667 0.63239 0.61854 0.0
H781 H 0.79768 0.61941 0.59054 0.0
H782 H 0.83441 0.6434 0.75541 0.0
H783 H 0.87892 0.69273 0.7877 0.0
H784 H 0.87946 0.70521 0.73738 0.0
H785 H 0.89375 0.71692 0.76485 0.0
Eu786 Eu 0.35365 0.17493 0.66219 0.0
C787 C 0.27241 0.14366 0.70583 0.0
C788 C 0.26178 0.1701 0.70227 0.0
C789 C 0.23469 0.13372 0.7079 0.0
C790 C 0.27781 0.16428 0.70263 0.0
C791 C 0.25086 0.12823 0.70888 0.0
C792 C 0.24014 0.15461 0.70457 0.0
C793 C 0.2631 0.10353 0.71477 0.0
N794 N 0.28839 0.13889 0.70669 0.0
C795 C 0.28423 0.1194 0.71166 0.0
C796 C 0.24629 0.10788 0.71317 0.0
Eu797 Eu 0.32355 0.16617 0.70042 0.0
N798 N 0.29886 0.17883 0.70042 0.0
C799 C 0.30515 0.19976 0.69897 0.0
C800 C 0.26802 0.19136 0.69992 0.0
C801 C 0.28984 0.20629 0.69848 0.0
H802 H 0.2972 0.11596 0.71277 0.0
H803 H 0.29488 0.22283 0.6969 0.0
H804 H 0.22756 0.15872 0.70413 0.0
H805 H 0.25979 0.08795 0.71835 0.0
H806 H 0.32192 0.21146 0.6977 0.0
H807 H 0.38127 0.11734 0.66462 0.0
H808 H 0.2562 0.19646 0.6995 0.0
H809 H 0.38074 0.22479 0.64904 0.0
H810 H 0.3546 0.12916 0.6636 0.0
H811 H 0.4185 0.2528 0.64454 0.0
H812 H 0.218 0.12203 0.71002 0.0
H813 H 0.42017 0.14354 0.66361 0.0
H814 H 0.44932 0.1814 0.66034 0.0
H815 H 0.22994 0.09557 0.71561 0.0
H816 H 0.45951 0.21838 0.65494 0.0
N817 N 0.37805 0.16187 0.66225 0.0
C818 C 0.37146 0.14081 0.663 0.0
C819 C 0.40851 0.14884 0.66306 0.0
C820 C 0.4151 0.17028 0.66132 0.0
C821 C 0.38657 0.13401 0.6636 0.0
C822 C 0.39925 0.17634 0.66076 0.0
H823 H 0.44811 0.24511 0.64878 0.0
N824 N 0.38914 0.20195 0.65629 0.0
C825 C 0.41495 0.23722 0.64834 0.0
C826 C 0.40499 0.19708 0.65775 0.0
C827 C 0.39363 0.22137 0.65084 0.0
C828 C 0.43161 0.23284 0.65079 0.0
C829 C 0.42671 0.21243 0.6552 0.0
O830 O 0.34783 0.184 0.63846 0.0
O831 O 0.32523 0.17334 0.67424 0.0
O832 O 0.30241 0.13953 0.68338 0.0
O833 O 0.3279 0.14008 0.66563 0.0
O834 O 0.34065 0.19725 0.65778 0.0
O835 O 0.345 0.15329 0.64165 0.0
O836 O 0.32913 0.15743 0.72434 0.0
O837 O 0.35192 0.16774 0.68835 0.0
O838 O 0.37434 0.20247 0.67868 0.0
O839 O 0.34919 0.20094 0.69741 0.0
O840 O 0.33645 0.14372 0.70473 0.0
O841 O 0.33268 0.18839 0.7206 0.0
C842 C 0.32437 0.18824 0.6673 0.0
C843 C 0.35581 0.16931 0.61613 0.0
C844 C 0.35469 0.16841 0.5867 0.0
C845 C 0.34433 0.16563 0.60161 0.0
C846 C 0.37682 0.17507 0.5866 0.0
C847 C 0.3778 0.17585 0.61581 0.0
C848 C 0.38824 0.17873 0.60108 0.0
C849 C 0.30826 0.13083 0.67189 0.0
C850 C 0.34463 0.16666 0.63145 0.0
C851 C 0.44269 0.20675 0.65663 0.0
C852 C 0.43689 0.1857 0.6597 0.0
C853 C 0.35265 0.15271 0.69515 0.0
C854 C 0.32251 0.17355 0.74653 0.0
C855 C 0.33497 0.17945 0.7607 0.0
C856 C 0.32526 0.1772 0.77582 0.0
C857 C 0.3029 0.16909 0.77654 0.0
C858 C 0.30026 0.16566 0.74743 0.0
C859 C 0.29053 0.16348 0.7624 0.0
C860 C 0.36832 0.21069 0.69042 0.0
C861 C 0.33297 0.17519 0.73102 0.0
H862 H 0.32726 0.16032 0.60198 0.0
H863 H 0.38535 0.17763 0.57534 0.0
H864 H 0.38687 0.17874 0.62689 0.0
H865 H 0.40525 0.18386 0.60088 0.0
H866 H 0.35214 0.18534 0.75999 0.0
H867 H 0.29504 0.16725 0.78803 0.0
H868 H 0.29045 0.1611 0.73661 0.0
H869 H 0.27334 0.15733 0.76305 0.0
Eu870 Eu 0.84751 0.16639 0.69983 0.0
C871 C 0.80842 0.20306 0.65145 0.0
C872 C 0.77027 0.17758 0.65164 0.0
C873 C 0.78244 0.21469 0.64687 0.0
C874 C 0.79188 0.18251 0.65328 0.0
C875 C 0.80394 0.21934 0.64789 0.0
C876 C 0.76563 0.19384 0.64877 0.0
C877 C 0.84223 0.24325 0.64549 0.0
N878 N 0.82897 0.20698 0.65248 0.0
C879 C 0.84585 0.22656 0.64902 0.0
C880 C 0.82119 0.2397 0.64511 0.0
Eu881 Eu 0.83394 0.17835 0.65965 0.0
N882 N 0.79694 0.16719 0.65603 0.0
C883 C 0.78121 0.1464 0.65608 0.0
C884 C 0.754 0.1564 0.65261 0.0
C885 C 0.75953 0.14072 0.65461 0.0
H886 H 0.86214 0.22939 0.64946 0.0
H887 H 0.7471 0.12425 0.65509 0.0
H888 H 0.74913 0.1904 0.64765 0.0
H889 H 0.85567 0.25885 0.64311 0.0
H890 H 0.7852 0.13411 0.65774 0.0
H891 H 0.934 0.21773 0.70853 0.0
H892 H 0.7372 0.15196 0.6515 0.0
H893 H 0.81636 0.11476 0.70793 0.0
H894 H 0.89708 0.20894 0.70141 0.0
H895 H 0.82038 0.08484 0.71712 0.0
H896 H 0.77866 0.22702 0.6443 0.0
H897 H 0.94129 0.18963 0.71738 0.0
H898 H 0.9268 0.15148 0.72462 0.0
H899 H 0.81843 0.25265 0.64235 0.0
H900 H 0.89629 0.11525 0.72601 0.0
N901 N 0.88373 0.17586 0.70489 0.0
C902 C 0.90008 0.19638 0.70476 0.0
C903 C 0.92512 0.18553 0.71379 0.0
C904 C 0.90816 0.16463 0.71448 0.0
C905 C 0.92105 0.20147 0.70888 0.0
C906 C 0.88738 0.1602 0.70976 0.0
H907 H 0.85659 0.0902 0.72313 0.0
N908 N 0.85005 0.13662 0.70781 0.0
C909 C 0.83448 0.10024 0.71549 0.0
C910 C 0.87003 0.13993 0.71117 0.0
C911 C 0.83227 0.11725 0.71028 0.0
C912 C 0.85495 0.10331 0.7188 0.0
C913 C 0.873 0.12341 0.71695 0.0
O914 O 0.8287 0.15795 0.722 0.0
O915 O 0.82343 0.16987 0.68507 0.0
O916 O 0.83811 0.20413 0.67698 0.0
O917 O 0.86055 0.20175 0.69625 0.0
O918 O 0.81126 0.14461 0.70048 0.0
O919 O 0.85843 0.18787 0.72062 0.0
O920 O 0.85114 0.18808 0.63676 0.0
O921 O 0.85823 0.17527 0.67445 0.0
O922 O 0.84478 0.14125 0.68252 0.0
O923 O 0.82213 0.14314 0.66317 0.0
O924 O 0.87029 0.2002 0.65872 0.0
O925 O 0.8236 0.15665 0.63905 0.0
C926 C 0.80615 0.1547 0.69033 0.0
C927 C 0.84785 0.17213 0.7463 0.0
C928 C 0.84469 0.1753 0.7754 0.0
C929 C 0.8395 0.17789 0.75947 0.0
C930 C 0.85808 0.16657 0.77789 0.0
C931 C 0.86122 0.16356 0.74909 0.0
C932 C 0.86625 0.16075 0.76481 0.0
C933 C 0.85164 0.2119 0.68934 0.0
C934 C 0.84243 0.17505 0.72974 0.0
C935 C 0.89371 0.12765 0.72135 0.0
C936 C 0.91116 0.14828 0.72037 0.0
C937 C 0.87548 0.1905 0.6692 0.0
C938 C 0.83062 0.17208 0.61322 0.0
C939 C 0.83812 0.16634 0.59953 0.0
C940 C 0.83088 0.16763 0.58395 0.0
C941 C 0.81611 0.17492 0.58238 0.0
C942 C 0.8159 0.17925 0.61134 0.0
C943 C 0.80872 0.18067 0.59598 0.0
C944 C 0.83118 0.13318 0.67022 0.0
C945 C 0.83813 0.17036 0.62938 0.0
H946 H 0.82932 0.18471 0.75729 0.0
H947 H 0.86213 0.16407 0.78997 0.0
H948 H 0.86778 0.15906 0.73916 0.0
H949 H 0.87653 0.15405 0.76687 0.0
H950 H 0.84933 0.16058 0.60105 0.0
H951 H 0.81047 0.17645 0.5706 0.0
H952 H 0.80995 0.18371 0.62172 0.0
H953 H 0.79741 0.18629 0.59461 0.0
H954 H 0.28437 0.82392 0.04978 0.0
H955 H 0.3162 0.85319 0.03764 0.0
H956 H 0.34496 0.87396 0.08481 0.0
H957 H 0.3134 0.84415 0.09703 0.0
H958 H 0.33397 0.89438 0.03987 0.0
H959 H 0.40041 0.89679 0.08141 0.0
H960 H 0.40721 0.87275 0.09799 0.0
H961 H 0.36258 0.81992 0.06895 0.0
H962 H 0.35586 0.8437 0.05197 0.0
H963 H 0.43348 0.9899 0.03076 0.0
H964 H 0.39949 0.95917 0.0385 0.0
H965 H 0.42318 0.91801 0.023 0.0
H966 H 0.45774 0.94886 0.0164 0.0
H967 H 0.40731 0.90626 0.05054 0.0
H968 H 0.37702 0.9193 1.00268 0.0
H969 H 0.3692 0.94049 0.98349 0.0
H970 H 0.341 0.95841 0.02158 0.0
H971 H 0.34844 0.93716 0.04088 0.0
C972 C 0.29754 0.83458 0.05759 0.0
C973 C 0.29638 0.83152 0.07439 0.0
C974 C 0.31567 0.85145 0.05063 0.0
C975 C 0.33313 0.86568 0.06026 0.0
C976 C 0.33185 0.86301 0.07708 0.0
C977 C 0.31369 0.84608 0.08407 0.0
C978 C 0.35259 0.88325 0.05262 0.0
C979 C 0.35001 0.89696 0.04221 0.0
C980 C 0.37354 0.88651 0.05542 0.0
C981 C 0.37742 0.87202 0.06555 0.0
C982 C 0.39208 0.88005 0.07854 0.0
C983 C 0.39593 0.86647 0.08801 0.0
C984 C 0.38524 0.8448 0.08459 0.0
C985 C 0.37077 0.83669 0.07164 0.0
C986 C 0.36692 0.85022 0.06209 0.0
C987 C 0.43123 0.97425 0.02868 0.0
C988 C 0.44817 0.97182 0.02267 0.0
C989 C 0.41168 0.95662 0.033 0.0
C990 C 0.40847 0.93608 0.03118 0.0
C991 C 0.42513 0.93362 0.02454 0.0
C992 C 0.44486 0.9513 0.02053 0.0
C993 C 0.38875 0.91747 0.03774 0.0
C994 C 0.39128 0.90365 0.04809 0.0
C995 C 0.36772 0.91386 0.03466 0.0
C996 C 0.36353 0.9269 0.0232 0.0
C997 C 0.36934 0.92795 0.00693 0.0
C998 C 0.36489 0.93987 0.99605 0.0
C999 C 0.35479 0.95093 1.00134 0.0
C1000 C 0.3489 0.94991 0.0175 0.0
C1001 C 0.35312 0.93784 0.02839 0.0
H1002 H 0.35142 0.9602 0.99291 0.0
H1003 H 0.38824 0.83431 0.09194 0.0
H1004 H 0.20818 0.50026 0.06668 0.0
H1005 H 0.17816 0.50347 0.05581 0.0
H1006 H 0.13339 0.44101 0.07299 0.0
H1007 H 0.16336 0.4375 0.08354 0.0
H1008 H 0.12367 0.44601 0.04265 0.0
H1009 H 0.13962 0.48561 0.09209 0.0
H1010 H 0.16249 0.51309 0.11192 0.0
H1011 H 0.17646 0.56134 0.07689 0.0
H1012 H 0.15391 0.53411 0.05676 0.0
H1013 H 0.02629 0.44797 0.03432 0.0
H1014 H 0.05779 0.44546 0.0419 0.0
H1015 H 0.09888 0.51137 0.03046 0.0
H1016 H 0.06706 0.5142 0.02407 0.0
H1017 H 0.11162 0.50528 0.05703 0.0
H1018 H 0.09941 0.46626 0.00695 0.0
H1019 H 0.07839 0.43904 0.98625 0.0
H1020 H 0.05841 0.39051 0.02197 0.0
H1021 H 0.07949 0.41745 0.04275 0.0
C1022 C 0.19195 0.48715 0.0681 0.0
C1023 C 0.18825 0.46861 0.07603 0.0
C1024 C 0.17476 0.48909 0.062 0.0
C1025 C 0.15341 0.47257 0.06368 0.0
C1026 C 0.14967 0.45403 0.07156 0.0
C1027 C 0.16685 0.45211 0.07772 0.0
C1028 C 0.13502 0.47435 0.05691 0.0
C1029 C 0.12091 0.45886 0.04594 0.0
C1030 C 0.13166 0.49141 0.06079 0.0
C1031 C 0.14526 0.5078 0.07287 0.0
C1032 C 0.14772 0.50206 0.08857 0.0
C1033 C 0.1606 0.5176 0.09987 0.0
C1034 C 0.17097 0.53894 0.09566 0.0
C1035 C 0.16845 0.5448 0.08013 0.0
C1036 C 0.15561 0.52932 0.06877 0.0
C1037 C 0.04209 0.46184 0.03312 0.0
C1038 C 0.04414 0.48116 0.02822 0.0
C1039 C 0.06022 0.46035 0.03732 0.0
C1040 C 0.08103 0.47809 0.0365 0.0
C1041 C 0.08313 0.49735 0.03117 0.0
C1042 C 0.0649 0.49893 0.02728 0.0
C1043 C 0.1002 0.47698 0.0426 0.0
C1044 C 0.11444 0.49253 0.05356 0.0
C1045 C 0.10378 0.46004 0.03866 0.0
C1046 C 0.09069 0.44386 0.02636 0.0
C1047 C 0.0903 0.4498 0.01035 0.0
C1048 C 0.0785 0.43443 0.99862 0.0
C1049 C 0.06692 0.41309 0.00282 0.0
C1050 C 0.0673 0.40705 0.01874 0.0
C1051 C 0.07926 0.42235 0.03047 0.0
H1052 H 0.05774 0.40123 0.99374 0.0
H1053 H 0.18093 0.55094 0.10443 0.0
H1054 H 0.53464 0.70501 0.10605 0.0
H1055 H 0.53349 0.67295 0.09576 0.0
H1056 H 0.5447 0.69816 0.04758 0.0
H1057 H 0.54621 0.73029 0.05776 0.0
H1058 H 0.51208 0.65713 0.0483 0.0
H1059 H 0.58471 0.6982 0.06871 0.0
H1060 H 0.61243 0.71839 0.08938 0.0
H1061 H 0.58666 0.66353 0.11953 0.0
H1062 H 0.55858 0.64309 0.09913 0.0
H1063 H 0.53557 0.58744 0.00756 0.0
H1064 H 0.54022 0.61985 0.01982 0.0
H1065 H 0.53228 0.5923 0.067 0.0
H1066 H 0.52826 0.55998 0.05469 0.0
H1067 H 0.56208 0.63345 0.06788 0.0
H1068 H 0.48991 0.59195 0.04733 0.0
H1069 H 0.4637 0.57108 0.02595 0.0
H1070 H 0.48853 0.62615 0.99611 0.0
H1071 H 0.51517 0.64729 0.0172 0.0
C1072 C 0.53709 0.70382 0.0933 0.0
C1073 C 0.54044 0.7202 0.08273 0.0
C1074 C 0.53635 0.68546 0.08743 0.0
C1075 C 0.53905 0.6832 0.0709 0.0
C1076 C 0.54242 0.69951 0.06035 0.0
C1077 C 0.54322 0.71785 0.0662 0.0
C1078 C 0.53836 0.66385 0.06451 0.0
C1079 C 0.52313 0.65205 0.05249 0.0
C1080 C 0.55244 0.65696 0.07024 0.0
C1081 C 0.5694 0.66919 0.08247 0.0
C1082 C 0.58485 0.69049 0.0798 0.0
C1083 C 0.60064 0.70197 0.09146 0.0
C1084 C 0.60127 0.69226 0.10578 0.0
C1085 C 0.58614 0.67104 0.10844 0.0
C1086 C 0.57029 0.6595 0.09683 0.0
C1087 C 0.5349 0.58828 0.02049 0.0
C1088 C 0.53123 0.57105 0.03008 0.0
C1089 C 0.5376 0.60685 0.02753 0.0
C1090 C 0.53606 0.60831 0.04431 0.0
C1091 C 0.53342 0.59149 0.05402 0.0
C1092 C 0.53111 0.57303 0.04696 0.0
C1093 C 0.53597 0.62688 0.05157 0.0
C1094 C 0.55095 0.63846 0.06378 0.0
C1095 C 0.52156 0.63351 0.04609 0.0
C1096 C 0.50462 0.62119 0.03382 0.0
C1097 C 0.48976 0.59962 0.03622 0.0
C1098 C 0.47487 0.58773 0.02413 0.0
C1099 C 0.47449 0.59728 0.00967 0.0
C1100 C 0.48887 0.61878 0.00732 0.0
C1101 C 0.50385 0.63074 0.01934 0.0
H1102 H 0.46304 0.58804 1.00029 0.0
H1103 H 0.61351 0.70118 0.11479 0.0
H1104 H 0.8313 0.30016 0.92763 0.0
H1105 H 0.86125 0.33384 0.93725 0.0
H1106 H 0.85192 0.30926 0.98555 0.0
H1107 H 0.82219 0.27547 0.97602 0.0
H1108 H 0.85764 0.34906 0.9852 0.0
H1109 H 0.89267 0.31316 0.96277 0.0
H1110 H 0.90075 0.29443 0.94155 0.0
H1111 H 0.92376 0.34854 0.91081 0.0
H1112 H 0.91552 0.3675 0.93178 0.0
H1113 H 0.95402 0.42584 0.02185 0.0
H1114 H 0.92531 0.39248 0.01089 0.0
H1115 H 0.93939 0.41873 0.96301 0.0
H1116 H 0.96833 0.45221 0.97407 0.0
H1117 H 0.93092 0.37882 0.96236 0.0
H1118 H 0.89702 0.41528 0.98481 0.0
H1119 H 0.88973 0.43452 0.00611 0.0
H1120 H 0.86456 0.37992 0.0365 0.0
H1121 H 0.87208 0.36046 0.0155 0.0
C1122 C 0.83575 0.30183 0.94027 0.0
C1123 C 0.82433 0.28504 0.95103 0.0
C1124 C 0.85284 0.32113 0.94576 0.0
C1125 C 0.85894 0.32404 0.96211 0.0
C1126 C 0.84746 0.30742 0.9729 0.0
C1127 C 0.83041 0.28811 0.96743 0.0
C1128 C 0.87732 0.34436 0.96799 0.0
C1129 C 0.87371 0.35545 0.98033 0.0
C1130 C 0.89819 0.353 0.96136 0.0
C1131 C 0.90327 0.34167 0.94878 0.0
C1132 C 0.89929 0.32101 0.95144 0.0
C1133 C 0.90393 0.31036 0.93946 0.0
C1134 C 0.91271 0.32027 0.92482 0.0
C1135 C 0.91693 0.34087 0.92214 0.0
C1136 C 0.91229 0.35159 0.93407 0.0
C1137 C 0.9508 0.42461 0.00906 0.0
C1138 C 0.96299 0.44178 0.9989 0.0
C1139 C 0.93448 0.40547 0.00276 0.0
C1140 C 0.92981 0.40322 0.98615 0.0
C1141 C 0.94259 0.42011 0.97587 0.0
C1142 C 0.9591 0.43922 0.98219 0.0
C1143 C 0.91128 0.38343 0.97965 0.0
C1144 C 0.91484 0.37248 0.96719 0.0
C1145 C 0.89032 0.37497 0.98611 0.0
C1146 C 0.88523 0.38644 0.99861 0.0
C1147 C 0.89001 0.40739 0.99606 0.0
C1148 C 0.88585 0.41835 0.00808 0.0
C1149 C 0.87667 0.40844 0.02264 0.0
C1150 C 0.87165 0.38756 0.02521 0.0
C1151 C 0.87584 0.37656 0.01324 0.0
H1152 H 0.87343 0.41692 0.03192 0.0
H1153 H 0.91628 0.31199 0.91556 0.0
H1154 H 0.7085 0.53404 0.92737 0.0
H1155 H 0.67504 0.53026 0.93828 0.0
H1156 H 0.70287 0.54375 0.98606 0.0
H1157 H 0.73634 0.54784 0.97528 0.0
H1158 H 0.66284 0.51037 0.9866 0.0
H1159 H 0.69727 0.58072 0.96445 0.0
H1160 H 0.71393 0.60722 0.94295 0.0
H1161 H 0.65562 0.57536 0.91495 0.0
H1162 H 0.6387 0.5485 0.9362 0.0
H1163 H 0.58964 0.56127 0.00304 0.0
H1164 H 0.62279 0.5621 0.99507 0.0
H1165 H 0.58823 0.49399 0.99112 0.0
H1166 H 0.55525 0.49321 0.99997 0.0
H1167 H 0.63086 0.55301 0.96767 0.0
H1168 H 0.61581 0.47439 0.98834 0.0
H1169 H 0.6038 0.4496 0.01123 0.0
H1170 H 0.62954 0.50204 0.04444 0.0
H1171 H 0.6403 0.52695 0.02171 0.0
C1172 C 0.70762 0.53646 0.94017 0.0
C1173 C 0.72522 0.54117 0.95041 0.0
C1174 C 0.6884 0.53422 0.94642 0.0
C1175 C 0.68634 0.53672 0.96303 0.0
C1176 C 0.70391 0.54154 0.97323 0.0
C1177 C 0.72309 0.54383 0.96702 0.0
C1178 C 0.66597 0.53426 0.96994 0.0
C1179 C 0.65584 0.5197 0.98241 0.0
C1180 C 0.65669 0.54634 0.96458 0.0
C1181 C 0.66681 0.56249 0.95183 0.0
C1182 C 0.68806 0.57928 0.95365 0.0
C1183 C 0.69754 0.59437 0.94152 0.0
C1184 C 0.68586 0.59293 0.92757 0.0
C1185 C 0.66466 0.57643 0.92574 0.0
C1186 C 0.65511 0.56128 0.93783 0.0
C1187 C 0.58932 0.54644 1.00101 0.0
C1188 C 0.56991 0.5272 1.0023 0.0
C1189 C 0.60826 0.5469 0.9963 0.0
C1190 C 0.60828 0.52814 0.99235 0.0
C1191 C 0.58902 0.50874 0.99436 0.0
C1192 C 0.57006 0.50826 0.99942 0.0
C1193 C 0.62786 0.5294 0.98468 0.0
C1194 C 0.63776 0.54362 0.97188 0.0
C1195 C 0.63707 0.51717 0.98981 0.0
C1196 C 0.62842 0.50238 0.00341 0.0
C1197 C 0.61834 0.4805 1.00055 0.0
C1198 C 0.6117 0.46646 0.01348 0.0
C1199 C 0.61569 0.47423 0.0293 0.0
C1200 C 0.62607 0.49603 0.0322 0.0
C1201 C 0.63214 0.51009 0.01931 0.0
H1202 H 0.61088 0.46337 0.03931 0.0
H1203 H 0.69323 0.60464 0.9182 0.0
H1204 H 0.49329 0.20331 0.9594 0.0
H1205 H 0.49924 0.17522 0.96923 0.0
H1206 H 0.4376 0.12838 0.9498 0.0
H1207 H 0.43098 0.15645 0.94069 0.0
H1208 H 0.4426 0.11728 0.97877 0.0
H1209 H 0.48582 0.14007 0.93139 0.0
H1210 H 0.51314 0.16546 0.91277 0.0
H1211 H 0.56194 0.1832 0.94928 0.0
H1212 H 0.53484 0.15811 0.96821 0.0
H1213 H 0.46259 0.03099 0.98285 0.0
H1214 H 0.45606 0.05888 0.97325 0.0
H1215 H 0.51215 0.10545 0.99928 0.0
H1216 H 0.51887 0.07764 0.009 0.0
H1217 H 0.5098 0.11618 0.96682 0.0
H1218 H 0.46518 0.09207 0.01399 0.0
H1219 H 0.4373 0.06517 0.03146 0.0
H1220 H 0.39029 0.04826 0.99365 0.0
H1221 H 0.41798 0.07486 0.97585 0.0
C1222 C 0.48088 0.18704 0.95732 0.0
C1223 C 0.46161 0.18217 0.94927 0.0
C1224 C 0.48444 0.17098 0.96278 0.0
C1225 C 0.469 0.14966 0.96008 0.0
C1226 C 0.44978 0.14471 0.95199 0.0
C1227 C 0.44612 0.16079 0.94663 0.0
C1228 C 0.47273 0.13258 0.96603 0.0
C1229 C 0.45716 0.11689 0.97595 0.0
C1230 C 0.4919 0.13224 0.96261 0.0
C1231 C 0.50825 0.14735 0.95126 0.0
C1232 C 0.50234 0.14951 0.93549 0.0
C1233 C 0.5178 0.16382 0.92487 0.0
C1234 C 0.53925 0.17598 0.92985 0.0
C1235 C 0.54531 0.1738 0.94545 0.0
C1236 C 0.52991 0.15952 0.95612 0.0
C1237 C 0.47352 0.04714 0.98661 0.0
C1238 C 0.49121 0.05208 0.99675 0.0
C1239 C 0.46971 0.06304 0.98113 0.0
C1240 C 0.48357 0.08418 0.98562 0.0
C1241 C 0.50127 0.08921 0.9957 0.0
C1242 C 0.50499 0.07328 1.00132 0.0
C1243 C 0.47973 0.10106 0.97954 0.0
C1244 C 0.49527 0.11665 0.9696 0.0
C1245 C 0.46044 0.10116 0.98278 0.0
C1246 C 0.44371 0.08533 0.99353 0.0
C1247 C 0.44893 0.08251 0.00935 0.0
C1248 C 0.43316 0.06733 0.01932 0.0
C1249 C 0.41205 0.05498 0.01365 0.0
C1250 C 0.40666 0.05783 0.99802 0.0
C1251 C 0.42238 0.07297 0.98799 0.0
H1252 H 0.39986 0.04323 0.02139 0.0
H1253 H 0.55119 0.18705 0.92161 0.0
H1254 H 0.69693 0.20095 0.96654 0.0
H1255 H 0.66355 0.1686 0.9734 0.0
H1256 H 0.69237 0.13124 0.95971 0.0
H1257 H 0.72596 0.16382 0.95284 0.0
H1258 H 0.6489 0.11354 0.94951 0.0
H1259 H 0.69105 0.14148 0.99801 0.0
H1260 H 0.71195 0.16882 0.01851 0.0
H1261 H 0.65656 0.17461 0.02923 0.0
H1262 H 0.63542 0.14753 0.0086 0.0
H1263 H 0.57465 0.01972 0.98963 0.0
H1264 H 0.60865 0.05136 0.98265 0.0
H1265 H 0.58163 0.09059 0.9954 0.0
H1266 H 0.54749 0.05902 1.00194 0.0
H1267 H 0.6245 0.10686 0.00625 0.0
H1268 H 0.58259 0.08082 0.95799 0.0
H1269 H 0.56056 0.0539 0.93755 0.0
H1270 H 0.61405 0.04526 0.92618 0.0
H1271 H 0.63632 0.07188 0.94678 0.0
C1272 C 0.69595 0.18578 0.96471 0.0
C1273 C 0.71378 0.18469 0.9591 0.0
C1274 C 0.67696 0.16735 0.96873 0.0
C1275 C 0.67556 0.14752 0.96726 0.0
C1276 C 0.69313 0.14638 0.96095 0.0
C1277 C 0.71223 0.16491 0.957 0.0
C1278 C 0.65608 0.12822 0.97302 0.0
C1279 C 0.64376 0.11193 0.96196 0.0
C1280 C 0.64903 0.12637 0.9892 0.0
C1281 C 0.66172 0.14264 1.00162 0.0
C1282 C 0.68338 0.14873 0.00462 0.0
C1283 C 0.69526 0.16415 0.01629 0.0
C1284 C 0.68561 0.17349 0.02513 0.0
C1285 C 0.66403 0.16739 0.02235 0.0
C1286 C 0.65209 0.15199 0.01068 0.0
C1287 C 0.57611 0.03514 0.99116 0.0
C1288 C 0.55856 0.03693 0.99661 0.0
C1289 C 0.59547 0.05316 0.98713 0.0
C1290 C 0.59759 0.07329 0.98842 0.0
C1291 C 0.58034 0.0752 0.99437 0.0
C1292 C 0.56087 0.05714 0.99821 0.0
C1293 C 0.61741 0.09223 0.98274 0.0
C1294 C 0.62974 0.10844 0.99382 0.0
C1295 C 0.62433 0.0941 0.96655 0.0
C1296 C 0.61106 0.07818 0.95407 0.0
C1297 C 0.58961 0.07304 0.95124 0.0
C1298 C 0.57708 0.05786 0.93961 0.0
C1299 C 0.58588 0.04784 0.9306 0.0
C1300 C 0.60725 0.05302 0.93319 0.0
C1301 C 0.61983 0.06816 0.94484 0.0
H1302 H 0.57617 0.03611 0.92158 0.0
H1303 H 0.69483 0.18542 0.03416 0.0
H1304 H 0.84505 0.5506 0.94114 0.0
H1305 H 0.87783 0.54964 0.94904 0.0
H1306 H 0.84214 0.50498 0.98644 0.0
H1307 H 0.80974 0.50595 0.97858 0.0
H1308 H 0.87929 0.53813 0.99782 0.0
H1309 H 0.8574 0.48912 0.9526 0.0
H1310 H 0.84795 0.47882 0.92406 0.0
H1311 H 0.9098 0.52923 0.90958 0.0
H1312 H 0.9196 0.53986 0.93804 0.0
H1313 H 0.95149 0.49009 0.00636 0.0
H1314 H 0.91978 0.49323 0.99948 0.0
H1315 H 0.96123 0.55898 0.98823 0.0
H1316 H 0.99269 0.55632 0.99616 0.0
H1317 H 0.92247 0.51743 0.96374 0.0
H1318 H 0.94371 0.56831 0.00822 0.0
H1319 H 0.95117 0.58289 0.03581 0.0
H1320 H 0.88941 0.53307 0.05107 0.0
H1321 H 0.88205 0.51758 0.02369 0.0
C1322 C 0.84429 0.54043 0.95089 0.0
C1323 C 0.82499 0.5283 0.95927 0.0
C1324 C 0.86295 0.53983 0.95538 0.0
C1325 C 0.86248 0.52717 0.96834 0.0
C1326 C 0.84298 0.51486 0.97644 0.0
C1327 C 0.82446 0.51539 0.97192 0.0
C1328 C 0.88235 0.5275 0.97429 0.0
C1329 C 0.88862 0.53339 0.99041 0.0
C1330 C 0.89492 0.52195 0.9645 0.0
C1331 C 0.88913 0.51541 0.94743 0.0
C1332 C 0.86893 0.49808 0.94332 0.0
C1333 C 0.86353 0.49216 0.92716 0.0
C1334 C 0.87823 0.50342 0.91501 0.0
C1335 C 0.89841 0.52056 0.919 0.0
C1336 C 0.90392 0.52649 0.93514 0.0
C1337 C 0.95375 0.5054 0.00306 0.0
C1338 C 0.97459 0.52313 1.00231 0.0
C1339 C 0.93563 0.50716 0.99903 0.0
C1340 C 0.93803 0.52653 0.99379 0.0
C1341 C 0.95884 0.5441 0.99282 0.0
C1342 C 0.97685 0.54249 0.99723 0.0
C1343 C 0.9192 0.52775 0.98741 0.0
C1344 C 0.91312 0.5221 0.97119 0.0
C1345 C 0.90691 0.53383 0.99707 0.0
C1346 C 0.91268 0.54133 0.01398 0.0
C1347 C 0.93211 0.55992 0.01757 0.0
C1348 C 0.9362 0.56853 0.03315 0.0
C1349 C 0.92081 0.55889 0.04521 0.0
C1350 C 0.90135 0.54051 0.04174 0.0
C1351 C 0.89732 0.53169 0.02623 0.0
H1352 H 0.92395 0.56567 0.05723 0.0
H1353 H 0.87403 0.49881 0.90251 0.0
H1354 H 0.44364 0.28004 0.97739 0.0
H1355 H 0.4474 0.31514 0.97997 0.0
H1356 H 0.48998 0.33642 0.93903 0.0
H1357 H 0.48648 0.30123 0.93671 0.0
H1358 H 0.5075 0.36315 0.96268 0.0
H1359 H 0.43965 0.3318 0.93699 0.0
H1360 H 0.40182 0.3051 0.93134 0.0
H1361 H 0.3837 0.31569 0.97827 0.0
H1362 H 0.42149 0.34222 0.98431 0.0
H1363 H 0.47654 0.45137 0.97532 0.0
H1364 H 0.46854 0.41759 0.96321 0.0
H1365 H 0.50584 0.40943 1.00051 0.0
H1366 H 0.51493 0.44355 0.01209 0.0
H1367 H 0.44831 0.37837 0.9724 0.0
H1368 H 0.53117 0.38544 0.98719 0.0
H1369 H 0.56909 0.41365 0.99017 0.0
H1370 H 0.55747 0.4538 0.95905 0.0
H1371 H 0.51958 0.42575 0.95569 0.0
C1372 C 0.45336 0.29212 0.96873 0.0
C1373 C 0.46465 0.28813 0.9568 0.0
C1374 C 0.45547 0.31214 0.97017 0.0
C1375 C 0.46883 0.32842 0.9596 0.0
C1376 C 0.47955 0.32411 0.94728 0.0
C1377 C 0.47748 0.30406 0.9459 0.0
C1378 C 0.47311 0.3503 0.9625 0.0
C1379 C 0.49454 0.36649 0.96464 0.0
C1380 C 0.45627 0.35487 0.96468 0.0
C1381 C 0.43346 0.33893 0.96114 0.0
C1382 C 0.42763 0.32833 0.94616 0.0
C1383 C 0.40618 0.31324 0.94288 0.0
C1384 C 0.39037 0.30868 0.95445 0.0
C1385 C 0.39597 0.31923 0.96932 0.0
C1386 C 0.4174 0.33433 0.97267 0.0
C1387 C 0.4831 0.44242 0.98093 0.0
C1388 C 0.49637 0.45022 0.99473 0.0
C1389 C 0.47842 0.42305 0.97402 0.0
C1390 C 0.48684 0.41109 0.98079 0.0
C1391 C 0.49953 0.41856 0.99484 0.0
C1392 C 0.5045 0.43802 1.00159 0.0
C1393 C 0.48261 0.39088 0.9732 0.0
C1394 C 0.46124 0.37505 0.97019 0.0
C1395 C 0.49953 0.3868 0.96972 0.0
C1396 C 0.5225 0.40351 0.97126 0.0
C1397 C 0.53675 0.40022 0.98088 0.0
C1398 C 0.55822 0.4162 0.98266 0.0
C1399 C 0.56566 0.43549 0.97482 0.0
C1400 C 0.55167 0.43885 0.96514 0.0
C1401 C 0.5302 0.42292 0.96329 0.0
H1402 H 0.58226 0.44782 0.9762 0.0
H1403 H 0.37377 0.297 0.95189 0.0
H1404 H 0.18328 0.72423 0.0888 0.0
H1405 H 0.14977 0.69052 0.08338 0.0
H1406 H 0.18344 0.67348 0.04877 0.0
H1407 H 0.21657 0.70685 0.05417 0.0
H1408 H 0.14655 0.66957 0.03634 0.0
H1409 H 0.16953 0.64983 0.08481 0.0
H1410 H 0.17947 0.6518 0.11353 0.0
H1411 H 0.11754 0.64215 0.12725 0.0
H1412 H 0.10732 0.6404 0.09859 0.0
H1413 H 0.08349 0.56193 0.01879 0.0
H1414 H 0.11138 0.59601 0.02908 0.0
H1415 H 0.06497 0.60034 0.05937 0.0
H1416 H 0.03662 0.56607 0.04893 0.0
H1417 H 0.10419 0.61241 0.07529 0.0
H1418 H 0.08022 0.62914 0.02673 0.0
H1419 H 0.06997 0.62566 0.99798 0.0
H1420 H 0.1337 0.64036 0.98451 0.0
H1421 H 0.14426 0.64364 0.01319 0.0
C1422 C 0.18342 0.71306 0.08022 0.0
C1423 C 0.20231 0.71789 0.07188 0.0
C1424 C 0.16437 0.69387 0.07714 0.0
C1425 C 0.1641 0.67948 0.06565 0.0
C1426 C 0.18322 0.68433 0.05763 0.0
C1427 C 0.20213 0.70333 0.06075 0.0
C1428 C 0.14389 0.65985 0.06112 0.0
C1429 C 0.13737 0.65705 0.04487 0.0
C1430 C 0.13146 0.64378 0.07232 0.0
C1431 C 0.1378 0.64535 0.08955 0.0
C1432 C 0.15814 0.64843 0.09394 0.0
C1433 C 0.16379 0.64942 0.11021 0.0
C1434 C 0.14918 0.64721 0.1222 0.0
C1435 C 0.12887 0.64396 0.11795 0.0
C1436 C 0.12314 0.64295 0.10169 0.0
C1437 C 0.07904 0.57014 0.0275 0.0
C1438 C 0.05766 0.56139 0.03278 0.0
C1439 C 0.09509 0.58963 0.03344 0.0
C1440 C 0.09021 0.60085 0.04483 0.0
C1441 C 0.06905 0.59196 0.05053 0.0
C1442 C 0.05287 0.57242 0.0445 0.0
C1443 C 0.10735 0.622 0.05047 0.0
C1444 C 0.11321 0.62511 0.06686 0.0
C1445 C 0.11925 0.63843 0.03942 0.0
C1446 C 0.113 0.63656 0.02213 0.0
C1447 C 0.09202 0.63151 0.01764 0.0
C1448 C 0.08616 0.62961 1.00136 0.0
C1449 C 0.1012 0.63286 0.98943 0.0
C1450 C 0.1221 0.63793 0.99377 0.0
C1451 C 0.12804 0.63984 0.01004 0.0
H1452 H 0.09664 0.63137 0.97683 0.0
H1453 H 0.15356 0.64791 0.13479 0.0
H1454 H 0.28932 0.44709 0.06459 0.0
H1455 H 0.32491 0.45211 0.05792 0.0
H1456 H 0.35358 0.51892 0.06785 0.0
H1457 H 0.31793 0.51383 0.07437 0.0
H1458 H 0.36634 0.51326 0.03965 0.0
H1459 H 0.36487 0.48697 0.09206 0.0
H1460 H 0.35039 0.46295 0.11525 0.0
H1461 H 0.34696 0.41218 0.08661 0.0
H1462 H 0.36121 0.43585 0.06318 0.0
H1463 H 0.47308 0.52893 0.02465 0.0
H1464 H 0.44064 0.52881 0.0341 0.0
H1465 H 0.40518 0.46065 0.0309 0.0
H1466 H 0.43779 0.46082 0.02234 0.0
H1467 H 0.3983 0.47059 0.05847 0.0
H1468 H 0.38734 0.49638 0.00455 0.0
H1469 H 0.39716 0.52109 0.98177 0.0
H1470 H 0.42492 0.57383 0.01469 0.0
H1471 H 0.41438 0.54932 0.03769 0.0
C1472 C 0.30335 0.46271 0.06579 0.0
C1473 C 0.30103 0.48003 0.0702 0.0
C1474 C 0.3237 0.4656 0.06197 0.0
C1475 C 0.34209 0.48591 0.06244 0.0
C1476 C 0.33974 0.5031 0.0674 0.0
C1477 C 0.31941 0.50018 0.07125 0.0
C1478 C 0.36328 0.48945 0.05637 0.0
C1479 C 0.37348 0.50413 0.04398 0.0
C1480 C 0.37267 0.47751 0.06181 0.0
C1481 C 0.36392 0.46314 0.07582 0.0
C1482 C 0.36085 0.47064 0.09066 0.0
C1483 C 0.35273 0.45709 0.10386 0.0
C1484 C 0.3477 0.43604 0.10239 0.0
C1485 C 0.35083 0.42849 0.08772 0.0
C1486 C 0.35897 0.44197 0.07448 0.0
C1487 C 0.45818 0.514 0.02555 0.0
C1488 C 0.45792 0.49486 0.02271 0.0
C1489 C 0.43952 0.51391 0.03092 0.0
C1490 C 0.42018 0.49468 0.03329 0.0
C1491 C 0.41979 0.47571 0.0294 0.0
C1492 C 0.43842 0.4758 0.02437 0.0
C1493 C 0.40095 0.49383 0.04124 0.0
C1494 C 0.39119 0.47974 0.05414 0.0
C1495 C 0.39206 0.50645 0.03641 0.0
C1496 C 0.4005 0.52112 0.02272 0.0
C1497 C 0.39582 0.51326 0.00687 0.0
C1498 C 0.40131 0.52722 0.99395 0.0
C1499 C 0.41196 0.54904 0.99676 0.0
C1500 C 0.41687 0.55695 0.01252 0.0
C1501 C 0.41098 0.54304 0.0255 0.0
H1502 H 0.41629 0.55982 0.98672 0.0
H1503 H 0.34142 0.42558 0.11263 0.0
H1504 H 0.48914 0.79656 0.06378 0.0
H1505 H 0.48827 0.8285 0.05614 0.0
H1506 H 0.55147 0.86718 0.077 0.0
H1507 H 0.55241 0.83498 0.08458 0.0
H1508 H 0.51909 0.88159 0.08226 0.0
H1509 H 0.55215 0.8615 0.04031 0.0
H1510 H 0.55422 0.83633 0.02149 0.0
H1511 H 0.49478 0.82373 0.99917 0.0
H1512 H 0.49219 0.8486 0.01804 0.0
H1513 H 0.54044 0.97463 0.03994 0.0
H1514 H 0.54331 0.94558 0.05177 0.0
H1515 H 0.48863 0.9008 0.02345 0.0
H1516 H 0.48587 0.92976 0.01134 0.0
H1517 H 0.51884 0.8906 0.02296 0.0
H1518 H 0.48462 0.90949 0.06423 0.0
H1519 H 0.48078 0.93363 0.08308 0.0
H1520 H 0.53977 0.94747 0.10679 0.0
H1521 H 0.54414 0.92362 0.08795 0.0
C1522 C 0.50262 0.8119 0.06705 0.0
C1523 C 0.52079 0.81353 0.07477 0.0
C1524 C 0.50213 0.83008 0.06266 0.0
C1525 C 0.51985 0.85014 0.06593 0.0
C1526 C 0.53763 0.8518 0.07445 0.0
C1527 C 0.53817 0.83351 0.07875 0.0
C1528 C 0.52041 0.86906 0.05902 0.0
C1529 C 0.51939 0.88382 0.06932 0.0
C1530 C 0.52026 0.87159 0.04213 0.0
C1531 C 0.52187 0.85675 0.03069 0.0
C1532 C 0.53942 0.85322 0.03148 0.0
C1533 C 0.54071 0.83904 0.02079 0.0
C1534 C 0.52461 0.82839 0.00917 0.0
C1535 C 0.50722 0.83196 0.00819 0.0
C1536 C 0.50585 0.84611 0.01887 0.0
C1537 C 0.52906 0.95861 0.03617 0.0
C1538 C 0.51292 0.95454 0.02467 0.0
C1539 C 0.53065 0.942 0.04303 0.0
C1540 C 0.51597 0.92098 0.03871 0.0
C1541 C 0.50011 0.9169 0.02701 0.0
C1542 C 0.49859 0.9335 0.02006 0.0
C1543 C 0.5173 0.9032 0.04615 0.0
C1544 C 0.51867 0.88857 0.03592 0.0
C1545 C 0.51753 0.90075 0.0631 0.0
C1546 C 0.51484 0.91495 0.07455 0.0
C1547 C 0.49687 0.91781 0.07337 0.0
C1548 C 0.4946 0.93144 0.08405 0.0
C1549 C 0.5101 0.94217 0.09604 0.0
C1550 C 0.52784 0.93922 0.09744 0.0
C1551 C 0.53021 0.92563 0.08678 0.0
H1552 H 0.50826 0.9526 0.10435 0.0
H1553 H 0.52564 0.81742 1.0009 0.0
H1554 H 0.95092 0.18559 0.41242 0.0
H1555 H 0.98413 0.21439 0.40096 0.0
H1556 H 0.00867 0.17167 0.39436 0.0
H1557 H 0.97542 0.14278 0.40564 0.0
H1558 H 0.03928 0.21268 0.40787 0.0
H1559 H 0.98971 0.18185 0.36307 0.0
H1560 H 0.95515 0.1695 0.34885 0.0
H1561 H 0.96388 0.23209 0.35134 0.0
H1562 H 0.99836 0.24474 0.36581 0.0
H1563 H 0.12645 0.27873 0.35703 0.0
H1564 H 0.09284 0.2474 0.36527 0.0
H1565 H 0.06271 0.28557 0.37019 0.0
H1566 H 0.0963 0.31689 0.36211 0.0
H1567 H 0.03509 0.24576 0.35681 0.0
H1568 H 0.08266 0.27723 0.40156 0.0
H1569 H 0.11682 0.29143 0.41667 0.0
H1570 H 0.1112 0.2301 0.41636 0.0
H1571 H 0.07734 0.21562 0.4007 0.0
C1572 C 0.9635 0.18242 0.40867 0.0
C1573 C 0.96057 0.16194 0.40987 0.0
C1574 C 0.9824 0.19883 0.40207 0.0
C1575 C 0.9988 0.19512 0.39672 0.0
C1576 C 0.99621 0.17486 0.39839 0.0
C1577 C 0.97719 0.15838 0.40476 0.0
C1578 C 0.01838 0.21223 0.38896 0.0
C1579 C 0.03844 0.21969 0.39658 0.0
C1580 C 0.01717 0.22174 0.37445 0.0
C1581 C 0.99651 0.21419 0.36567 0.0
C1582 C 0.98417 0.19294 0.36071 0.0
C1583 C 0.96462 0.18589 0.35258 0.0
C1584 C 0.9573 0.19999 0.34923 0.0
C1585 C 0.96956 0.22118 0.35396 0.0
C1586 C 0.98911 0.2283 0.36212 0.0
C1587 C 0.11249 0.28029 0.35949 0.0
C1588 C 0.11383 0.30014 0.35882 0.0
C1589 C 0.09336 0.26243 0.36428 0.0
C1590 C 0.07534 0.26421 0.36846 0.0
C1591 C 0.07639 0.28384 0.36698 0.0
C1592 C 0.09555 0.3017 0.36241 0.0
C1593 C 0.05601 0.24616 0.37567 0.0
C1594 C 0.03599 0.2386 0.36801 0.0
C1595 C 0.05723 0.23681 0.39029 0.0
C1596 C 0.07761 0.2454 0.3997 0.0
C1597 C 0.08886 0.26681 0.40448 0.0
C1598 C 0.10818 0.27491 0.41315 0.0
C1599 C 0.11626 0.26169 0.41736 0.0
C1600 C 0.10501 0.24033 0.41294 0.0
C1601 C 0.08577 0.23218 0.40414 0.0
H1602 H 0.13118 0.26797 0.42412 0.0
H1603 H 0.94215 0.1945 0.34293 0.0
H1604 H 0.84392 0.80747 0.43117 0.0
H1605 H 0.81307 0.80963 0.42107 0.0
H1606 H 0.82935 0.8024 0.37235 0.0
H1607 H 0.85897 0.79836 0.38237 0.0
H1608 H 0.80689 0.83471 0.40381 0.0
H1609 H 0.78645 0.77937 0.34794 0.0
H1610 H 0.78862 0.74803 0.3395 0.0
H1611 H 0.78723 0.73052 0.38904 0.0
H1612 H 0.78477 0.76159 0.39776 0.0
H1613 H 0.72923 0.8457 0.35832 0.0
H1614 H 0.76156 0.84405 0.36533 0.0
H1615 H 0.72196 0.77801 0.377 0.0
H1616 H 0.68984 0.77941 0.36908 0.0
H1617 H 0.75592 0.78237 0.36416 0.0
H1618 H 0.74291 0.81914 0.40669 0.0
H1619 H 0.73649 0.84676 0.41814 0.0
H1620 H 0.79806 0.8949 0.40107 0.0
H1621 H 0.80477 0.86755 0.38941 0.0
C1622 C 0.84076 0.8059 0.41832 0.0
C1623 C 0.85411 0.80256 0.40769 0.0
C1624 C 0.82319 0.80746 0.41251 0.0
C1625 C 0.8185 0.8059 0.3959 0.0
C1626 C 0.83215 0.80319 0.38524 0.0
C1627 C 0.84945 0.80123 0.39104 0.0
C1628 C 0.79929 0.80688 0.38975 0.0
C1629 C 0.7958 0.82324 0.39513 0.0
C1630 C 0.78437 0.79177 0.37862 0.0
C1631 C 0.78567 0.77294 0.37349 0.0
C1632 C 0.78654 0.76879 0.35702 0.0
C1633 C 0.78783 0.75109 0.35219 0.0
C1634 C 0.78814 0.73734 0.36373 0.0
C1635 C 0.78708 0.74123 0.38012 0.0
C1636 C 0.78575 0.75889 0.38501 0.0
C1637 C 0.72749 0.83071 0.36192 0.0
C1638 C 0.707 0.81257 0.36284 0.0
C1639 C 0.74599 0.82984 0.3662 0.0
C1640 C 0.74432 0.81097 0.37202 0.0
C1641 C 0.72384 0.79277 0.37255 0.0
C1642 C 0.70544 0.79358 0.36806 0.0
C1643 C 0.76361 0.81021 0.37816 0.0
C1644 C 0.7671 0.7939 0.37277 0.0
C1645 C 0.778 0.82484 0.38975 0.0
C1646 C 0.77427 0.84132 0.39707 0.0
C1647 C 0.75505 0.83563 0.40534 0.0
C1648 C 0.75136 0.85122 0.41187 0.0
C1649 C 0.76683 0.87257 0.41029 0.0
C1650 C 0.78608 0.87836 0.40226 0.0
C1651 C 0.78986 0.86281 0.39572 0.0
H1652 H 0.76393 0.88463 0.41532 0.0
H1653 H 0.78916 0.72365 0.35996 0.0
H1654 H 0.25267 0.06305 0.42083 0.0
H1655 H 0.24696 0.02878 0.41172 0.0
H1656 H 0.18407 0.01263 0.39351 0.0
H1657 H 0.18913 0.04635 0.40344 0.0
H1658 H 0.18247 0.97926 0.40681 0.0
H1659 H 0.22882 0.03167 0.36866 0.0
H1660 H 0.26083 0.06461 0.35999 0.0
H1661 H 0.30192 0.04208 0.37797 0.0
H1662 H 0.27015 0.0091 0.38694 0.0
H1663 H 0.16726 0.90095 0.34915 0.0
H1664 H 0.17419 0.93454 0.36094 0.0
H1665 H 0.2307 0.94126 0.38505 0.0
H1666 H 0.22388 0.90758 0.3734 0.0
H1667 H 0.23635 0.9788 0.36965 0.0
H1668 H 0.18917 0.92546 0.40672 0.0
H1669 H 0.15674 0.89224 0.41434 0.0
H1670 H 0.11665 0.91639 0.39718 0.0
H1671 H 0.14887 0.94966 0.38925 0.0
C1672 C 0.23744 0.05206 0.41519 0.0
C1673 C 0.22143 0.05757 0.41273 0.0
C1674 C 0.2343 0.03255 0.4098 0.0
C1675 C 0.21527 0.01832 0.40163 0.0
C1676 C 0.19896 0.02343 0.39969 0.0
C1677 C 0.20198 0.04282 0.40521 0.0
C1678 C 0.21257 0.9984 0.39462 0.0
C1679 C 0.19415 0.97921 0.39857 0.0
C1680 C 0.22801 0.99825 0.38408 0.0
C1681 C 0.24712 0.01802 0.37861 0.0
C1682 C 0.24469 0.03381 0.37086 0.0
C1683 C 0.26279 0.05247 0.36588 0.0
C1684 C 0.2834 0.05546 0.36846 0.0
C1685 C 0.28595 0.03976 0.37599 0.0
C1686 C 0.2679 0.02107 0.38102 0.0
C1687 C 0.1813 0.90966 0.35682 0.0
C1688 C 0.19501 0.9016 0.36039 0.0
C1689 C 0.18515 0.92878 0.3636 0.0
C1690 C 0.20283 0.9402 0.37395 0.0
C1691 C 0.21695 0.93258 0.37711 0.0
C1692 C 0.21299 0.91334 0.37048 0.0
C1693 C 0.20625 0.95986 0.38178 0.0
C1694 C 0.22476 0.97893 0.37797 0.0
C1695 C 0.19085 0.95991 0.39234 0.0
C1696 C 0.17144 0.94 0.39727 0.0
C1697 C 0.17344 0.92363 0.40446 0.0
C1698 C 0.15509 0.9048 0.40885 0.0
C1699 C 0.13465 0.90219 0.40622 0.0
C1700 C 0.13251 0.91843 0.39921 0.0
C1701 C 0.15081 0.93729 0.39478 0.0
H1702 H 0.12046 0.88764 0.40968 0.0
H1703 H 0.29739 0.06993 0.3646 0.0
H1704 H 0.48942 0.628 0.26571 0.0
H1705 H 0.51827 0.66223 0.27566 0.0
H1706 H 0.52976 0.63099 0.31537 0.0
H1707 H 0.5004 0.59697 0.30578 0.0
H1708 H 0.5309 0.66383 0.32655 0.0
H1709 H 0.56404 0.65127 0.28129 0.0
H1710 H 0.56766 0.64307 0.25298 0.0
H1711 H 0.56729 0.69897 0.23757 0.0
H1712 H 0.56336 0.70735 0.26578 0.0
H1713 H 0.64679 0.76374 0.32182 0.0
H1714 H 0.61944 0.72894 0.31186 0.0
H1715 H 0.56969 0.7384 0.33253 0.0
H1716 H 0.597 0.77271 0.34316 0.0
H1717 H 0.5889 0.71577 0.29142 0.0
H1718 H 0.52707 0.69411 0.3428 0.0
H1719 H 0.52679 0.70057 0.37203 0.0
H1720 H 0.59026 0.70896 0.37685 0.0
H1721 H 0.59091 0.70259 0.34767 0.0
C1722 C 0.49826 0.6285 0.27648 0.0
C1723 C 0.49269 0.60987 0.28498 0.0
C1724 C 0.51479 0.64805 0.28216 0.0
C1725 C 0.52644 0.64928 0.29622 0.0
C1726 C 0.52101 0.63057 0.30456 0.0
C1727 C 0.50427 0.61111 0.29905 0.0
C1728 C 0.54392 0.67003 0.30251 0.0
C1729 C 0.54358 0.67514 0.31883 0.0
C1730 C 0.56078 0.68477 0.29261 0.0
C1731 C 0.5632 0.67982 0.27564 0.0
C1732 C 0.56458 0.66173 0.27185 0.0
C1733 C 0.56671 0.65706 0.25583 0.0
C1734 C 0.56765 0.67046 0.24348 0.0
C1735 C 0.56652 0.68859 0.24714 0.0
C1736 C 0.56436 0.69331 0.26315 0.0
C1737 C 0.63002 0.75833 0.32434 0.0
C1738 C 0.6241 0.77093 0.3334 0.0
C1739 C 0.61437 0.73844 0.31857 0.0
C1740 C 0.59243 0.7308 0.32158 0.0
C1741 C 0.58649 0.74359 0.33037 0.0
C1742 C 0.60215 0.7633 0.3364 0.0
C1743 C 0.5758 0.70956 0.31542 0.0
C1744 C 0.57624 0.70442 0.29912 0.0
C1745 C 0.55946 0.69446 0.32547 0.0
C1746 C 0.55908 0.69803 0.34305 0.0
C1747 C 0.54092 0.69727 0.35012 0.0
C1748 C 0.54073 0.70098 0.36667 0.0
C1749 C 0.55852 0.70524 0.37628 0.0
C1750 C 0.57653 0.70576 0.36938 0.0
C1751 C 0.57684 0.70217 0.35284 0.0
H1752 H 0.55836 0.70813 0.38908 0.0
H1753 H 0.5693 0.66682 0.23108 0.0
H1754 H 0.37267 0.86396 0.25909 0.0
H1755 H 0.33925 0.8601 0.27011 0.0
H1756 H 0.36913 0.87888 0.31709 0.0
H1757 H 0.40251 0.8828 0.30619 0.0
H1758 H 0.33008 0.84591 0.31992 0.0
H1759 H 0.36064 0.91274 0.2924 0.0
H1760 H 0.3753 0.93636 0.26898 0.0
H1761 H 0.31584 0.89911 0.24317 0.0
H1762 H 0.30093 0.87511 0.26638 0.0
H1763 H 0.25234 0.89319 0.33076 0.0
H1764 H 0.28605 0.89497 0.32302 0.0
H1765 H 0.25504 0.82693 0.32535 0.0
H1766 H 0.22175 0.82537 0.33411 0.0
H1767 H 0.29418 0.88311 0.29717 0.0
H1768 H 0.28149 0.80887 0.32407 0.0
H1769 H 0.27299 0.78732 0.34872 0.0
H1770 H 0.3031 0.84385 0.37772 0.0
H1771 H 0.3107 0.86562 0.35329 0.0
C1772 C 0.37222 0.86748 0.27174 0.0
C1773 C 0.39038 0.87367 0.28172 0.0
C1774 C 0.35303 0.86523 0.27805 0.0
C1775 C 0.35158 0.86931 0.29446 0.0
C1776 C 0.3697 0.8755 0.30442 0.0
C1777 C 0.38883 0.8777 0.29815 0.0
C1778 C 0.33126 0.867 0.30139 0.0
C1779 C 0.32226 0.85409 0.31492 0.0
C1780 C 0.32086 0.87755 0.29497 0.0
C1781 C 0.32976 0.89202 0.28106 0.0
C1782 C 0.35075 0.90951 0.28168 0.0
C1783 C 0.3591 0.92297 0.26846 0.0
C1784 C 0.34653 0.9192 0.25458 0.0
C1785 C 0.32557 0.90199 0.25392 0.0
C1786 C 0.31716 0.88847 0.26711 0.0
C1787 C 0.25298 0.87868 0.33014 0.0
C1788 C 0.23447 0.85919 0.33322 0.0
C1789 C 0.27224 0.87966 0.32558 0.0
C1790 C 0.27344 0.86111 0.32353 0.0
C1791 C 0.25506 0.8416 0.32721 0.0
C1792 C 0.23586 0.84068 0.33217 0.0
C1793 C 0.29315 0.86237 0.31606 0.0
C1794 C 0.30196 0.87494 0.30225 0.0
C1795 C 0.30352 0.85168 0.32228 0.0
C1796 C 0.29625 0.83876 0.33698 0.0
C1797 C 0.2858 0.81662 0.33577 0.0
C1798 C 0.28112 0.80439 0.34968 0.0
C1799 C 0.28738 0.81421 0.36479 0.0
C1800 C 0.29799 0.83626 0.36603 0.0
C1801 C 0.3022 0.84854 0.35219 0.0
H1802 H 0.28408 0.80473 0.37553 0.0
H1803 H 0.35302 0.92965 0.24435 0.0
H1804 H 0.14113 0.51322 0.26834 0.0
H1805 H 0.14792 0.4849 0.27678 0.0
H1806 H 0.09978 0.4668 0.31379 0.0
H1807 H 0.09352 0.49545 0.3057 0.0
H1808 H 0.13356 0.46873 0.32621 0.0
H1809 H 0.09165 0.43695 0.27851 0.0
H1810 H 0.08182 0.4346 0.24973 0.0
H1811 H 0.14213 0.43984 0.23649 0.0
H1812 H 0.15245 0.44253 0.26519 0.0
H1813 H 0.12493 0.35798 0.31877 0.0
H1814 H 0.11635 0.38446 0.30916 0.0
H1815 H 0.17432 0.43371 0.33167 0.0
H1816 H 0.18258 0.40719 0.34186 0.0
H1817 H 0.13464 0.41547 0.28946 0.0
H1818 H 0.16837 0.47414 0.34316 0.0
H1819 H 0.17392 0.47381 0.37253 0.0
H1820 H 0.12171 0.40977 0.37479 0.0
H1821 H 0.11578 0.40976 0.34546 0.0
C1822 C 0.13184 0.50296 0.27812 0.0
C1823 C 0.11688 0.50648 0.28643 0.0
C1824 C 0.13569 0.48679 0.28293 0.0
C1825 C 0.1243 0.47364 0.2959 0.0
C1826 C 0.10888 0.47681 0.30384 0.0
C1827 C 0.10526 0.49312 0.2992 0.0
C1828 C 0.12903 0.45717 0.30171 0.0
C1829 C 0.13376 0.45708 0.31815 0.0
C1830 C 0.12907 0.44179 0.29127 0.0
C1831 C 0.12291 0.44016 0.274 0.0
C1832 C 0.10289 0.43777 0.26945 0.0
C1833 C 0.09722 0.43635 0.25315 0.0
C1834 C 0.11137 0.43713 0.24128 0.0
C1835 C 0.1312 0.43928 0.24569 0.0
C1836 C 0.13696 0.44073 0.26198 0.0
C1837 C 0.13581 0.37444 0.32175 0.0
C1838 C 0.15434 0.38048 0.33119 0.0
C1839 C 0.13092 0.38958 0.31618 0.0
C1840 C 0.14455 0.41107 0.31981 0.0
C1841 C 0.1633 0.41719 0.329 0.0
C1842 C 0.16802 0.40201 0.33479 0.0
C1843 C 0.13909 0.42703 0.31395 0.0
C1844 C 0.13439 0.42712 0.29749 0.0
C1845 C 0.13844 0.44203 0.32445 0.0
C1846 C 0.14176 0.44192 0.34211 0.0
C1847 C 0.15804 0.46002 0.34994 0.0
C1848 C 0.16127 0.45988 0.36657 0.0
C1849 C 0.14819 0.44178 0.37551 0.0
C1850 C 0.13184 0.42377 0.36784 0.0
C1851 C 0.12859 0.42381 0.35121 0.0
H1852 H 0.15073 0.44169 0.38838 0.0
H1853 H 0.10695 0.43602 0.22867 0.0
H1854 H 0.37021 0.5285 0.30314 0.0
H1855 H 0.33472 0.49841 0.30954 0.0
H1856 H 0.35761 0.45543 0.29773 0.0
H1857 H 0.39317 0.48565 0.29126 0.0
H1858 H 0.31597 0.44091 0.28681 0.0
H1859 H 0.35634 0.46857 0.33613 0.0
H1860 H 0.37753 0.49606 0.35646 0.0
H1861 H 0.32443 0.50665 0.364 0.0
H1862 H 0.30302 0.47944 0.34352 0.0
H1863 H 0.24005 0.35003 0.32796 0.0
H1864 H 0.27436 0.38141 0.32128 0.0
H1865 H 0.24669 0.42099 0.33061 0.0
H1866 H 0.21218 0.38957 0.3369 0.0
H1867 H 0.28979 0.43772 0.34266 0.0
H1868 H 0.24912 0.41012 0.29402 0.0
H1869 H 0.22717 0.38225 0.27415 0.0
H1870 H 0.28006 0.37169 0.2654 0.0
H1871 H 0.30221 0.39924 0.28546 0.0
C1872 C 0.36745 0.51258 0.30159 0.0
C1873 C 0.38417 0.50922 0.29661 0.0
C1874 C 0.34728 0.49544 0.30536 0.0
C1875 C 0.34359 0.47467 0.30433 0.0
C1876 C 0.3601 0.47131 0.29863 0.0
C1877 C 0.38034 0.48851 0.29489 0.0
C1878 C 0.32291 0.45659 0.30994 0.0
C1879 C 0.31038 0.44012 0.29906 0.0
C1880 C 0.31531 0.45577 0.32584 0.0
C1881 C 0.32817 0.47215 0.33814 0.0
C1882 C 0.34925 0.47691 0.34201 0.0
C1883 C 0.36129 0.49241 0.35358 0.0
C1884 C 0.35236 0.50315 0.36148 0.0
C1885 C 0.33135 0.49836 0.35785 0.0
C1886 C 0.31925 0.48289 0.34626 0.0
C1887 C 0.24143 0.36547 0.32884 0.0
C1888 C 0.2236 0.36741 0.33322 0.0
C1889 C 0.26097 0.38335 0.32498 0.0
C1890 C 0.263 0.40348 0.32534 0.0
C1891 C 0.24546 0.40558 0.3303 0.0
C1892 C 0.22579 0.38764 0.334 0.0
C1893 C 0.28303 0.42208 0.31956 0.0
C1894 C 0.29539 0.4386 0.3304 0.0
C1895 C 0.29042 0.423 0.30361 0.0
C1896 C 0.27726 0.40661 0.29137 0.0
C1897 C 0.25602 0.40174 0.28796 0.0
C1898 C 0.24354 0.38601 0.27665 0.0
C1899 C 0.2522 0.37518 0.26855 0.0
C1900 C 0.27337 0.38008 0.27171 0.0
C1901 C 0.2859 0.39576 0.28304 0.0
H1902 H 0.24252 0.36301 0.25979 0.0
H1903 H 0.36171 0.51513 0.37044 0.0
H1904 H 0.5138 0.89594 0.28895 0.0
H1905 H 0.5452 0.89208 0.29524 0.0
H1906 H 0.50564 0.82434 0.29046 0.0
H1907 H 0.47435 0.82827 0.28425 0.0
H1908 H 0.52596 0.83438 0.31843 0.0
H1909 H 0.54709 0.85214 0.26402 0.0
H1910 H 0.55557 0.87245 0.2388 0.0
H1911 H 0.60641 0.92674 0.26294 0.0
H1912 H 0.59809 0.9068 0.28836 0.0
H1913 H 0.61436 0.81636 0.33474 0.0
H1914 H 0.58266 0.81715 0.32493 0.0
H1915 H 0.61989 0.88521 0.32209 0.0
H1916 H 0.65195 0.88419 0.33093 0.0
H1917 H 0.5996 0.87233 0.29599 0.0
H1918 H 0.5629 0.85506 0.35178 0.0
H1919 H 0.54696 0.83345 0.37606 0.0
H1920 H 0.52441 0.77669 0.34782 0.0
H1921 H 0.53928 0.79806 0.32326 0.0
C1922 C 0.51205 0.88031 0.28877 0.0
C1923 C 0.4918 0.8624 0.28597 0.0
C1924 C 0.52998 0.87809 0.29236 0.0
C1925 C 0.52789 0.85789 0.2933 0.0
C1926 C 0.50774 0.84008 0.2898 0.0
C1927 C 0.48989 0.84233 0.28616 0.0
C1928 C 0.5459 0.85517 0.29971 0.0
C1929 C 0.54201 0.84247 0.31333 0.0
C1930 C 0.56694 0.86586 0.29331 0.0
C1931 C 0.57181 0.87804 0.27814 0.0
C1932 C 0.55993 0.86848 0.26399 0.0
C1933 C 0.56476 0.8799 0.24965 0.0
C1934 C 0.58147 0.9009 0.24928 0.0
C1935 C 0.59344 0.91049 0.26325 0.0
C1936 C 0.5887 0.89912 0.27763 0.0
C1937 C 0.61564 0.83152 0.33244 0.0
C1938 C 0.63565 0.85025 0.33375 0.0
C1939 C 0.59734 0.832 0.3269 0.0
C1940 C 0.59848 0.85128 0.32289 0.0
C1941 C 0.61836 0.87006 0.32497 0.0
C1942 C 0.63672 0.86952 0.33014 0.0
C1943 C 0.57986 0.85199 0.31511 0.0
C1944 C 0.5836 0.86426 0.30112 0.0
C1945 C 0.55854 0.84073 0.32103 0.0
C1946 C 0.55271 0.82809 0.33587 0.0
C1947 C 0.55488 0.83798 0.35085 0.0
C1948 C 0.54571 0.82578 0.36458 0.0
C1949 C 0.53477 0.8037 0.3635 0.0
C1950 C 0.53294 0.79378 0.34866 0.0
C1951 C 0.54158 0.80592 0.33482 0.0
H1952 H 0.52771 0.79428 0.37416 0.0
H1953 H 0.58519 0.90972 0.23816 0.0
H1954 H 0.12547 0.61713 0.27986 0.0
H1955 H 0.13262 0.65364 0.28315 0.0
H1956 H 0.12143 0.64349 0.33432 0.0
H1957 H 0.11391 0.6071 0.33092 0.0
H1958 H 0.10399 0.66548 0.32332 0.0
H1959 H 0.17257 0.66801 0.31846 0.0
H1960 H 0.19943 0.6617 0.30488 0.0
H1961 H 0.20022 0.69886 0.26461 0.0
H1962 H 0.17315 0.70517 0.27788 0.0
H1963 H 0.18972 0.77895 0.34579 0.0
H1964 H 0.17957 0.74293 0.3376 0.0
H1965 H 0.12682 0.73867 0.30943 0.0
H1966 H 0.13674 0.77464 0.31758 0.0
H1967 H 0.17551 0.72437 0.30724 0.0
H1968 H 0.08406 0.68821 0.31545 0.0
H1969 H 0.05887 0.69504 0.33104 0.0
H1970 H 0.10656 0.72535 0.36833 0.0
H1971 H 0.13187 0.71839 0.3531 0.0
C1972 C 0.12429 0.62276 0.29171 0.0
C1973 C 0.11918 0.60961 0.30517 0.0
C1974 C 0.12845 0.64354 0.29361 0.0
C1975 C 0.12776 0.65134 0.30901 0.0
C1976 C 0.12199 0.63781 0.32233 0.0
C1977 C 0.11776 0.6171 0.32041 0.0
C1978 C 0.13395 0.67379 0.31159 0.0
C1979 C 0.11955 0.67835 0.31966 0.0
C1980 C 0.15437 0.69059 0.30701 0.0
C1981 C 0.17067 0.68685 0.29907 0.0
C1982 C 0.17836 0.6747 0.30665 0.0
C1983 C 0.19363 0.67115 0.29903 0.0
C1984 C 0.20147 0.67982 0.28387 0.0
C1985 C 0.1941 0.69212 0.27633 0.0
C1986 C 0.1788 0.6957 0.2839 0.0
C1987 C 0.17595 0.77038 0.33785 0.0
C1988 C 0.1639 0.77959 0.33247 0.0
C1989 C 0.1703 0.74987 0.33308 0.0
C1990 C 0.15242 0.73818 0.32298 0.0
C1991 C 0.14061 0.74745 0.31732 0.0
C1992 C 0.14631 0.76799 0.322 0.0
C1993 C 0.14557 0.71595 0.31896 0.0
C1994 C 0.15983 0.71148 0.31064 0.0
C1995 C 0.1252 0.6992 0.32357 0.0
C1996 C 0.10991 0.70298 0.33304 0.0
C1997 C 0.08912 0.69624 0.32701 0.0
C1998 C 0.07483 0.70014 0.33578 0.0
C1999 C 0.08114 0.71069 0.35064 0.0
C2000 C 0.10171 0.71725 0.3568 0.0
C2001 C 0.11604 0.71334 0.34809 0.0
H2002 H 0.07007 0.71373 0.35739 0.0
H2003 H 0.2133 0.67705 0.27799 0.0
H2004 H 0.87839 0.03557 0.39663 0.0
H2005 H 0.84615 0.00155 0.39065 0.0
H2006 H 0.80609 0.02801 0.4032 0.0
H2007 H 0.83858 0.06229 0.40915 0.0
H2008 H 0.79029 0.985 0.41425 0.0
H2009 H 0.81436 0.0258 0.36565 0.0
H2010 H 0.84107 0.04755 0.34519 0.0
H2011 H 0.8526 0.99644 0.33458 0.0
H2012 H 0.82618 0.97448 0.35516 0.0
H2013 H 0.69733 0.9005 0.37507 0.0
H2014 H 0.72583 0.93505 0.3848 0.0
H2015 H 0.77375 0.92274 0.36424 0.0
H2016 H 0.74547 0.88881 0.35398 0.0
H2017 H 0.7839 0.9605 0.35753 0.0
H2018 H 0.76137 0.9199 0.40665 0.0
H2019 H 0.73578 0.89822 0.42778 0.0
H2020 H 0.72216 0.94809 0.43791 0.0
H2021 H 0.74743 0.96995 0.4167 0.0
C2022 C 0.86267 0.03396 0.39843 0.0
C2023 C 0.8608 0.05134 0.4034 0.0
C2024 C 0.8443 0.01459 0.39495 0.0
C2025 C 0.82373 0.0123 0.39633 0.0
C2026 C 0.82181 0.02944 0.40207 0.0
C2027 C 0.8403 0.04895 0.40547 0.0
C2028 C 0.80453 0.99245 0.39069 0.0
C2029 C 0.78867 0.97971 0.40181 0.0
C2030 C 0.80264 0.98544 0.37452 0.0
C2031 C 0.81843 0.99856 0.36205 0.0
C2032 C 0.82271 0.01925 0.35905 0.0
C2033 C 0.83778 0.03161 0.34741 0.0
C2034 C 0.84857 0.0234 0.33862 0.0
C2035 C 0.84426 0.00279 0.34141 0.0
C2036 C 0.82922 0.99037 0.35305 0.0
C2037 C 0.71396 0.9052 0.37264 0.0
C2038 C 0.71911 0.89194 0.36367 0.0
C2039 C 0.73027 0.92491 0.37831 0.0
C2040 C 0.75206 0.93152 0.37545 0.0
C2041 C 0.75713 0.91815 0.36658 0.0
C2042 C 0.74089 0.89868 0.36071 0.0
C2043 C 0.76971 0.95254 0.38116 0.0
C2044 C 0.78534 0.96565 0.37 0.0
C2045 C 0.77142 0.95973 0.39733 0.0
C2046 C 0.75612 0.94648 0.40998 0.0
C2047 C 0.75277 0.92617 0.41329 0.0
C2048 C 0.73835 0.91386 0.4253 0.0
C2049 C 0.72733 0.92178 0.43415 0.0
C2050 C 0.7307 0.94199 0.43103 0.0
C2051 C 0.74506 0.95434 0.41903 0.0
H2052 H 0.71623 0.91233 0.44348 0.0
H2053 H 0.86022 0.03299 0.32961 0.0
H2054 H 0.98029 0.84568 0.38927 0.0
H2055 H 0.01483 0.84876 0.38198 0.0
H2056 H 0.99365 0.78665 0.40118 0.0
H2057 H 0.95886 0.78357 0.40847 0.0
H2058 H 0.03714 0.81595 0.4088 0.0
H2059 H 0.9911 0.79221 0.3618 0.0
H2060 H 0.96717 0.79371 0.34106 0.0
H2061 H 0.018 0.8543 0.32576 0.0
H2062 H 0.04215 0.85331 0.34659 0.0
H2063 H 0.10706 0.78996 0.36672 0.0
H2064 H 0.07412 0.78985 0.37459 0.0
H2065 H 0.10286 0.8555 0.36156 0.0
H2066 H 0.1363 0.85595 0.35439 0.0
H2067 H 0.05664 0.82592 0.35082 0.0
H2068 H 0.10267 0.85068 0.39686 0.0
H2069 H 0.1277 0.8506 0.41727 0.0
H2070 H 0.0784 0.79017 0.43418 0.0
H2071 H 0.05312 0.78978 0.41369 0.0
C2072 C 0.98318 0.83285 0.39219 0.0
C2073 C 0.96707 0.81447 0.39953 0.0
C2074 C 0.00286 0.83456 0.38793 0.0
C2075 C 0.00682 0.81786 0.39085 0.0
C2076 C 0.99099 0.79975 0.39879 0.0
C2077 C 0.97117 0.79799 0.40298 0.0
C2078 C 0.02706 0.81902 0.38495 0.0
C2079 C 0.04124 0.81786 0.39611 0.0
C2080 C 0.03285 0.82217 0.36841 0.0
C2081 C 0.01835 0.82279 0.35589 0.0
C2082 C 0.99711 0.80595 0.35412 0.0
C2083 C 0.98352 0.80669 0.34233 0.0
C2084 C 0.99104 0.82412 0.33213 0.0
C2085 C 0.01218 0.84083 0.33369 0.0
C2086 C 0.02583 0.84018 0.34548 0.0
C2087 C 0.10627 0.80431 0.36534 0.0
C2088 C 0.12414 0.82284 0.35963 0.0
C2089 C 0.08746 0.80423 0.36987 0.0
C2090 C 0.08604 0.82266 0.36868 0.0
C2091 C 0.10359 0.84107 0.36249 0.0
C2092 C 0.12263 0.84126 0.35827 0.0
C2093 C 0.06652 0.82272 0.37465 0.0
C2094 C 0.05252 0.82407 0.36351 0.0
C2095 C 0.06101 0.81998 0.3912 0.0
C2096 C 0.07607 0.8201 0.40361 0.0
C2097 C 0.09722 0.83728 0.40482 0.0
C2098 C 0.11144 0.83734 0.41643 0.0
C2099 C 0.10468 0.82035 0.42698 0.0
C2100 C 0.08363 0.8033 0.42598 0.0
C2101 C 0.06933 0.80317 0.41437 0.0
H2102 H 0.11572 0.82043 0.43597 0.0
H2103 H 0.98049 0.82466 0.323 0.0
H2104 H 0.23419 0.16579 0.37626 0.0
H2105 H 0.23083 0.1969 0.37074 0.0
H2106 H 0.20113 0.19044 0.41717 0.0
H2107 H 0.2041 0.15886 0.42248 0.0
H2108 H 0.17766 0.19396 0.39439 0.0
H2109 H 0.25205 0.23273 0.40857 0.0
H2110 H 0.29029 0.24247 0.40821 0.0
H2111 H 0.29363 0.25699 0.35782 0.0
H2112 H 0.25532 0.24706 0.35781 0.0
H2113 H 0.1771 0.29141 0.38493 0.0
H2114 H 0.1863 0.26536 0.39508 0.0
H2115 H 0.20333 0.25662 0.34697 0.0
H2116 H 0.19395 0.2825 0.33678 0.0
H2117 H 0.2342 0.26261 0.37274 0.0
H2118 H 0.15901 0.22242 0.35889 0.0
H2119 H 0.12096 0.21315 0.35978 0.0
H2120 H 0.11926 0.201 0.41053 0.0
H2121 H 0.15759 0.21107 0.41009 0.0
C2122 C 0.22746 0.1714 0.38542 0.0
C2123 C 0.21958 0.16029 0.39982 0.0
C2124 C 0.22558 0.18918 0.3823 0.0
C2125 C 0.21591 0.19617 0.39361 0.0
C2126 C 0.20871 0.18538 0.4083 0.0
C2127 C 0.21052 0.16749 0.41138 0.0
C2128 C 0.2115 0.21339 0.38936 0.0
C2129 C 0.19014 0.20915 0.39001 0.0
C2130 C 0.22767 0.23301 0.38323 0.0
C2131 C 0.25074 0.23898 0.38317 0.0
C2132 C 0.26088 0.23784 0.39738 0.0
C2133 C 0.28259 0.24343 0.39725 0.0
C2134 C 0.29437 0.2503 0.38299 0.0
C2135 C 0.28448 0.25165 0.36885 0.0
C2136 C 0.26277 0.24607 0.36891 0.0
C2137 C 0.18282 0.28389 0.37655 0.0
C2138 C 0.18456 0.28864 0.36005 0.0
C2139 C 0.18803 0.26907 0.38235 0.0
C2140 C 0.19542 0.25909 0.37174 0.0
C2141 C 0.19761 0.26417 0.3553 0.0
C2142 C 0.192 0.2787 0.34946 0.0
C2143 C 0.20046 0.24304 0.37776 0.0
C2144 C 0.22187 0.2475 0.37737 0.0
C2145 C 0.18437 0.22367 0.38421 0.0
C2146 C 0.16134 0.21786 0.38451 0.0
C2147 C 0.15067 0.21816 0.37031 0.0
C2148 C 0.12902 0.21274 0.37073 0.0
C2149 C 0.11773 0.20663 0.38522 0.0
C2150 C 0.12807 0.20591 0.39933 0.0
C2151 C 0.14978 0.21154 0.39901 0.0
H2152 H 0.10094 0.20233 0.38551 0.0
H2153 H 0.31117 0.25463 0.38292 0.0
H2154 H 0.62298 0.52117 0.74517 0.0
H2155 H 0.65581 0.55012 0.73358 0.0
H2156 H 0.6773 0.5063 0.72097 0.0
H2157 H 0.6448 0.4774 0.73288 0.0
H2158 H 0.70953 0.54196 0.73397 0.0
H2159 H 0.65654 0.52444 0.69239 0.0
H2160 H 0.62196 0.51782 0.68084 0.0
H2161 H 0.63781 0.58135 0.69265 0.0
H2162 H 0.67238 0.58826 0.70449 0.0
H2163 H 0.79685 0.61438 0.68693 0.0
H2164 H 0.76241 0.58308 0.69326 0.0
H2165 H 0.73634 0.62309 0.70625 0.0
H2166 H 0.77059 0.65438 0.69935 0.0
H2167 H 0.70621 0.58792 0.69148 0.0
H2168 H 0.75759 0.60464 0.73481 0.0
H2169 H 0.79183 0.6113 0.74714 0.0
H2170 H 0.77874 0.54949 0.73241 0.0
H2171 H 0.74452 0.54255 0.71983 0.0
C2172 C 0.6348 0.51774 0.74008 0.0
C2173 C 0.63122 0.49695 0.7399 0.0
C2174 C 0.65345 0.53426 0.7333 0.0
C2175 C 0.66889 0.53034 0.72618 0.0
C2176 C 0.66557 0.50969 0.72629 0.0
C2177 C 0.64691 0.49317 0.73302 0.0
C2178 C 0.68863 0.54778 0.71878 0.0
C2179 C 0.70879 0.55179 0.7245 0.0
C2180 C 0.6877 0.56089 0.70663 0.0
C2181 C 0.66697 0.5568 0.69946 0.0
C2182 C 0.65258 0.53695 0.69264 0.0
C2183 C 0.63299 0.53316 0.68602 0.0
C2184 C 0.62767 0.54914 0.68605 0.0
C2185 C 0.64195 0.56898 0.69266 0.0
C2186 C 0.66155 0.57285 0.69931 0.0
C2187 C 0.78359 0.61646 0.69064 0.0
C2188 C 0.78625 0.63678 0.6924 0.0
C2189 C 0.76397 0.59856 0.69445 0.0
C2190 C 0.74686 0.60073 0.70049 0.0
C2191 C 0.74927 0.621 0.70162 0.0
C2192 C 0.76883 0.63886 0.69772 0.0
C2193 C 0.72707 0.58217 0.70676 0.0
C2194 C 0.70692 0.57797 0.70086 0.0
C2195 C 0.72797 0.56892 0.71881 0.0
C2196 C 0.7486 0.57314 0.72627 0.0
C2197 C 0.7621 0.59253 0.7341 0.0
C2198 C 0.78148 0.59635 0.74114 0.0
C2199 C 0.78743 0.58082 0.74055 0.0
C2200 C 0.77408 0.56148 0.73286 0.0
C2201 C 0.75469 0.5576 0.72578 0.0
H2202 H 0.8023 0.58368 0.74613 0.0
H2203 H 0.61249 0.54617 0.68092 0.0
H2204 H 0.49373 0.10621 0.74383 0.0
H2205 H 0.46383 0.11055 0.73415 0.0
H2206 H 0.50763 0.17693 0.72654 0.0
H2207 H 0.53768 0.17266 0.73613 0.0
H2208 H 0.46826 0.16777 0.74242 0.0
H2209 H 0.49175 0.14683 0.69507 0.0
H2210 H 0.50151 0.12424 0.67921 0.0
H2211 H 0.438 0.0712 0.68562 0.0
H2212 H 0.42795 0.09341 0.70174 0.0
H2213 H 0.39422 0.18571 0.69666 0.0
H2214 H 0.42652 0.18424 0.70434 0.0
H2215 H 0.38799 0.11661 0.70978 0.0
H2216 H 0.35568 0.11808 0.70213 0.0
H2217 H 0.42609 0.12813 0.69408 0.0
H2218 H 0.40214 0.14649 0.74169 0.0
H2219 H 0.39072 0.167 0.75849 0.0
H2220 H 0.453 0.22221 0.7535 0.0
H2221 H 0.46464 0.20221 0.73614 0.0
C2222 C 0.49698 0.12176 0.74018 0.0
C2223 C 0.5181 0.13908 0.74072 0.0
C2224 C 0.4799 0.1242 0.73458 0.0
C2225 C 0.48348 0.14405 0.72954 0.0
C2226 C 0.50447 0.16147 0.73035 0.0
C2227 C 0.52164 0.15898 0.73574 0.0
C2228 C 0.46532 0.14647 0.72324 0.0
C2229 C 0.45927 0.1594 0.73169 0.0
C2230 C 0.4532 0.13511 0.70949 0.0
C2231 C 0.45917 0.12174 0.69975 0.0
C2232 C 0.47992 0.13031 0.69322 0.0
C2233 C 0.4855 0.11758 0.68416 0.0
C2234 C 0.4704 0.09629 0.68144 0.0
C2235 C 0.44968 0.08769 0.68775 0.0
C2236 C 0.44404 0.10035 0.69684 0.0
C2237 C 0.39272 0.17051 0.69925 0.0
C2238 C 0.37253 0.15192 0.69847 0.0
C2239 C 0.41116 0.1697 0.70376 0.0
C2240 C 0.4097 0.1503 0.70767 0.0
C2241 C 0.38955 0.13173 0.70673 0.0
C2242 C 0.37111 0.13257 0.7024 0.0
C2243 C 0.42897 0.14935 0.71328 0.0
C2244 C 0.4352 0.13667 0.70472 0.0
C2245 C 0.44105 0.16071 0.72706 0.0
C2246 C 0.43417 0.1729 0.73741 0.0
C2247 C 0.41334 0.16308 0.74397 0.0
C2248 C 0.40682 0.17462 0.75359 0.0
C2249 C 0.42111 0.19593 0.75697 0.0
C2250 C 0.44194 0.20574 0.75074 0.0
C2251 C 0.44849 0.19432 0.74099 0.0
H2252 H 0.41606 0.20482 0.76449 0.0
H2253 H 0.47475 0.08646 0.67442 0.0
H2254 H 0.90557 0.38931 0.76292 0.0
H2255 H 0.90152 0.35559 0.75385 0.0
H2256 H 0.84168 0.34016 0.73017 0.0
H2257 H 0.84502 0.37326 0.73991 0.0
H2258 H 0.83827 0.30608 0.74355 0.0
H2259 H 0.8902 0.36136 0.70955 0.0
H2260 H 0.92339 0.39487 0.70376 0.0
H2261 H 0.96136 0.37079 0.72522 0.0
H2262 H 0.92834 0.33721 0.73132 0.0
H2263 H 0.83006 0.23329 0.68378 0.0
H2264 H 0.83593 0.26577 0.69692 0.0
H2265 H 0.88919 0.26935 0.72393 0.0
H2266 H 0.8835 0.23681 0.71084 0.0
H2267 H 0.89722 0.30848 0.71076 0.0
H2268 H 0.84433 0.25169 0.74271 0.0
H2269 H 0.81069 0.21795 0.74691 0.0
H2270 H 0.77402 0.24487 0.72783 0.0
H2271 H 0.80747 0.27868 0.72328 0.0
C2272 C 0.89133 0.37855 0.75607 0.0
C2273 C 0.87573 0.3841 0.752 0.0
C2274 C 0.88915 0.35937 0.75074 0.0
C2275 C 0.87151 0.34552 0.74106 0.0
C2276 C 0.8555 0.35064 0.73754 0.0
C2277 C 0.85756 0.36969 0.74297 0.0
C2278 C 0.87003 0.32611 0.734 0.0
C2279 C 0.85111 0.30665 0.7363 0.0
C2280 C 0.88694 0.32675 0.72477 0.0
C2281 C 0.9068 0.34688 0.72105 0.0
C2282 C 0.90562 0.36327 0.71314 0.0
C2283 C 0.9244 0.38227 0.70979 0.0
C2284 C 0.94447 0.38498 0.71417 0.0
C2285 C 0.9458 0.36868 0.72187 0.0
C2286 C 0.92706 0.34966 0.72526 0.0
C2287 C 0.8432 0.24108 0.69236 0.0
C2288 C 0.8563 0.23244 0.69629 0.0
C2289 C 0.84643 0.25957 0.69993 0.0
C2290 C 0.86283 0.26976 0.7115 0.0
C2291 C 0.87641 0.26162 0.71505 0.0
C2292 C 0.87309 0.24302 0.70759 0.0
C2293 C 0.86541 0.28866 0.72015 0.0
C2294 C 0.88451 0.30794 0.71816 0.0
C2295 C 0.84862 0.28789 0.72954 0.0
C2296 C 0.82843 0.26769 0.73255 0.0
C2297 C 0.82911 0.25038 0.73932 0.0
C2298 C 0.81007 0.23124 0.74177 0.0
C2299 C 0.79024 0.22927 0.73762 0.0
C2300 C 0.7894 0.24643 0.73104 0.0
C2301 C 0.80839 0.26559 0.72854 0.0
H2302 H 0.77552 0.21447 0.73955 0.0
H2303 H 0.95899 0.3997 0.71156 0.0
H2304 H 0.1804 0.95136 0.60075 0.0
H2305 H 0.21023 0.98524 0.61003 0.0
H2306 H 0.16555 0.99854 0.63492 0.0
H2307 H 0.13556 0.96521 0.62501 0.0
H2308 H 0.19555 0.03334 0.62142 0.0
H2309 H 0.19523 0.97944 0.65474 0.0
H2310 H 0.19584 0.94659 0.66036 0.0
H2311 H 0.2573 0.97203 0.63732 0.0
H2312 H 0.25692 0.00494 0.63138 0.0
H2313 H 0.26496 0.11 0.67758 0.0
H2314 H 0.23734 0.07688 0.66563 0.0
H2315 H 0.28581 0.07164 0.63868 0.0
H2316 H 0.3138 0.10474 0.65087 0.0
H2317 H 0.25539 0.03348 0.65183 0.0
H2318 H 0.25616 0.08886 0.6203 0.0
H2319 H 0.25571 0.12218 0.61685 0.0
H2320 H 0.19299 0.09408 0.63815 0.0
H2321 H 0.19321 0.06068 0.64198 0.0
C2322 C 0.17684 0.96163 0.60796 0.0
C2323 C 0.15551 0.95541 0.61222 0.0
C2324 C 0.19398 0.98093 0.61342 0.0
C2325 C 0.19023 0.99433 0.62344 0.0
C2326 C 0.16892 0.98846 0.62729 0.0
C2327 C 0.15177 0.96926 0.62174 0.0
C2328 C 0.20845 0.01417 0.63027 0.0
C2329 C 0.20852 0.03331 0.62817 0.0
C2330 C 0.22565 0.0143 0.63886 0.0
C2331 C 0.22594 0.99455 0.64246 0.0
C2332 C 0.2088 0.97796 0.65076 0.0
C2333 C 0.20911 0.95935 0.65402 0.0
C2334 C 0.22657 0.9572 0.64916 0.0
C2335 C 0.24377 0.9737 0.64106 0.0
C2336 C 0.24352 0.99234 0.63775 0.0
C2337 C 0.26989 0.10173 0.6693 0.0
C2338 C 0.29168 0.11007 0.66524 0.0
C2339 C 0.254 0.08284 0.66237 0.0
C2340 C 0.25947 0.07193 0.6511 0.0
C2341 C 0.28123 0.07985 0.64732 0.0
C2342 C 0.29719 0.09881 0.65426 0.0
C2343 C 0.24235 0.0525 0.64306 0.0
C2344 C 0.2425 0.03349 0.64494 0.0
C2345 C 0.22529 0.05247 0.63438 0.0
C2346 C 0.22476 0.07229 0.63152 0.0
C2347 C 0.2423 0.0898 0.6243 0.0
C2348 C 0.24209 0.10871 0.62228 0.0
C2349 C 0.22435 0.11026 0.62731 0.0
C2350 C 0.20673 0.09286 0.63427 0.0
C2351 C 0.20687 0.07392 0.63635 0.0
H2352 H 0.22425 0.12493 0.62578 0.0
H2353 H 0.22678 0.94278 0.65169 0.0
H2354 H 0.03773 0.20096 0.59558 0.0
H2355 H 0.00403 0.19684 0.60622 0.0
H2356 H 0.03174 0.21168 0.65405 0.0
H2357 H 0.06542 0.21593 0.64352 0.0
H2358 H 0.99241 0.17854 0.65506 0.0
H2359 H 0.02501 0.24771 0.63126 0.0
H2360 H 0.04119 0.27353 0.60929 0.0
H2361 H 0.9831 0.23951 0.5813 0.0
H2362 H 0.96667 0.21331 0.60304 0.0
H2363 H 0.91467 0.22556 0.66745 0.0
H2364 H 0.94878 0.22784 0.66028 0.0
H2365 H 0.91738 0.15968 0.65907 0.0
H2366 H 0.88366 0.15754 0.66735 0.0
H2367 H 0.95827 0.21829 0.63407 0.0
H2368 H 0.94318 0.1415 0.65719 0.0
H2369 H 0.9336 0.1178 0.68066 0.0
H2370 H 0.96346 0.1717 0.71242 0.0
H2371 H 0.97215 0.19559 0.68919 0.0
C2372 C 0.03675 0.20359 0.60834 0.0
C2373 C 0.05437 0.20875 0.61867 0.0
C2374 C 0.01741 0.20118 0.61442 0.0
C2375 C 0.01528 0.20404 0.63096 0.0
C2376 C 0.03287 0.20925 0.64127 0.0
C2377 C 0.05215 0.21163 0.63522 0.0
C2378 C 0.99475 0.20137 0.63767 0.0
C2379 C 0.98496 0.18727 0.65045 0.0
C2380 C 0.98489 0.21267 0.63175 0.0
C2381 C 0.9947 0.22844 0.6187 0.0
C2382 C 0.01575 0.24565 0.62037 0.0
C2383 C 0.02495 0.26036 0.60797 0.0
C2384 C 0.0132 0.25813 0.59389 0.0
C2385 C 0.99219 0.2412 0.5922 0.0
C2386 C 0.98292 0.22642 0.60456 0.0
C2387 C 0.91529 0.21109 0.6662 0.0
C2388 C 0.89658 0.19141 0.66815 0.0
C2389 C 0.93478 0.21236 0.66196 0.0
C2390 C 0.936 0.19396 0.65908 0.0
C2391 C 0.91737 0.1742 0.66162 0.0
C2392 C 0.89793 0.17295 0.66629 0.0
C2393 C 0.95603 0.19575 0.65184 0.0
C2394 C 0.96565 0.20955 0.63876 0.0
C2395 C 0.96592 0.18437 0.65758 0.0
C2396 C 0.95786 0.17021 0.67157 0.0
C2397 C 0.94718 0.1482 0.66925 0.0
C2398 C 0.9419 0.13476 0.68248 0.0
C2399 C 0.94781 0.14323 0.69803 0.0
C2400 C 0.95865 0.16515 0.70039 0.0
C2401 C 0.96345 0.17863 0.68723 0.0
H2402 H 0.94404 0.13282 0.70825 0.0
H2403 H 0.02036 0.26954 0.5843 0.0
H2404 H 0.77006 0.82129 0.60693 0.0
H2405 H 0.77756 0.794 0.61648 0.0
H2406 H 0.83438 0.84148 0.64131 0.0
H2407 H 0.82749 0.86899 0.63124 0.0
H2408 H 0.84179 0.81247 0.62743 0.0
H2409 H 0.78761 0.81199 0.66155 0.0
H2410 H 0.75316 0.81032 0.66766 0.0
H2411 H 0.71853 0.74861 0.64587 0.0
H2412 H 0.75281 0.75004 0.63942 0.0
H2413 H 0.85346 0.74272 0.68069 0.0
H2414 H 0.84725 0.77075 0.6708 0.0
H2415 H 0.79282 0.72492 0.64285 0.0
H2416 H 0.79872 0.69678 0.65273 0.0
H2417 H 0.78469 0.75344 0.65876 0.0
H2418 H 0.83933 0.75422 0.62464 0.0
H2419 H 0.87393 0.75591 0.61917 0.0
H2420 H 0.90793 0.81717 0.64173 0.0
H2421 H 0.87349 0.81572 0.64754 0.0
C2422 C 0.78438 0.82598 0.61416 0.0
C2423 C 0.79809 0.8473 0.61844 0.0
C2424 C 0.78852 0.81034 0.61975 0.0
C2425 C 0.80631 0.81568 0.62985 0.0
C2426 C 0.82049 0.83701 0.63362 0.0
C2427 C 0.81642 0.85267 0.62798 0.0
C2428 C 0.8097 0.79898 0.63695 0.0
C2429 C 0.82941 0.79971 0.63444 0.0
C2430 C 0.79342 0.78217 0.64592 0.0
C2431 C 0.77278 0.78121 0.64987 0.0
C2432 C 0.77265 0.79813 0.65796 0.0
C2433 C 0.75316 0.79721 0.6615 0.0
C2434 C 0.73367 0.77939 0.65712 0.0
C2435 C 0.73364 0.76242 0.64923 0.0
C2436 C 0.75309 0.76326 0.64564 0.0
C2437 C 0.84 0.73855 0.6726 0.0
C2438 C 0.8266 0.71751 0.66748 0.0
C2439 C 0.83658 0.75461 0.66689 0.0
C2440 C 0.81973 0.74989 0.65597 0.0
C2441 C 0.80594 0.72885 0.65125 0.0
C2442 C 0.80939 0.71281 0.65688 0.0
C2443 C 0.8167 0.7669 0.64916 0.0
C2444 C 0.79706 0.76623 0.65175 0.0
C2445 C 0.83307 0.78377 0.64033 0.0
C2446 C 0.85381 0.78478 0.63666 0.0
C2447 C 0.85417 0.76799 0.62854 0.0
C2448 C 0.87376 0.76891 0.62536 0.0
C2449 C 0.89312 0.78662 0.63013 0.0
C2450 C 0.89292 0.80346 0.63805 0.0
C2451 C 0.87338 0.80261 0.64128 0.0
H2452 H 0.90827 0.78733 0.62765 0.0
H2453 H 0.7186 0.77871 0.65987 0.0
H2454 H 0.03362 0.87096 0.63676 0.0
H2455 H 0.99942 0.83924 0.64321 0.0
H2456 H 0.02165 0.80029 0.62068 0.0
H2457 H 0.05604 0.83221 0.61422 0.0
H2458 H 0.97752 0.78668 0.61409 0.0
H2459 H 0.02577 0.80617 0.65983 0.0
H2460 H 0.05023 0.83025 0.68089 0.0
H2461 H 0.99916 0.83838 0.69984 0.0
H2462 H 0.97447 0.8146 0.67874 0.0
H2463 H 0.91038 0.68909 0.65343 0.0
H2464 H 0.94265 0.72182 0.64539 0.0
H2465 H 0.91513 0.75829 0.66396 0.0
H2466 H 0.88249 0.72564 0.67133 0.0
H2467 H 0.96086 0.77347 0.67241 0.0
H2468 H 0.91246 0.75457 0.62788 0.0
H2469 H 0.88688 0.73075 0.60727 0.0
H2470 H 0.93653 0.72195 0.58632 0.0
H2471 H 0.9624 0.74556 0.60696 0.0
C2472 C 0.03099 0.85562 0.63292 0.0
C2473 C 0.04723 0.85386 0.62496 0.0
C2474 C 0.01153 0.83754 0.63668 0.0
C2475 C 0.00807 0.81738 0.63259 0.0
C2476 C 0.02399 0.81569 0.62394 0.0
C2477 C 0.04356 0.83385 0.62024 0.0
C2478 C 0.98843 0.79815 0.63825 0.0
C2479 C 0.97402 0.78366 0.62683 0.0
C2480 C 0.98352 0.79451 0.65488 0.0
C2481 C 0.99835 0.80881 0.66758 0.0
C2482 C 0.01981 0.81326 0.66839 0.0
C2483 C 0.03371 0.82682 0.68035 0.0
C2484 C 0.02628 0.83589 0.69166 0.0
C2485 C 0.00491 0.83138 0.69105 0.0
C2486 C 0.99096 0.81786 0.6791 0.0
C2487 C 0.91135 0.70411 0.65597 0.0
C2488 C 0.89409 0.70481 0.66332 0.0
C2489 C 0.92972 0.72275 0.65134 0.0
C2490 C 0.9312 0.74241 0.65405 0.0
C2491 C 0.9143 0.74325 0.66183 0.0
C2492 C 0.89573 0.72457 0.66616 0.0
C2493 C 0.95016 0.76201 0.64827 0.0
C2494 C 0.96439 0.77654 0.65966 0.0
C2495 C 0.95476 0.76577 0.63164 0.0
C2496 C 0.93933 0.75165 0.6191 0.0
C2497 C 0.9179 0.74741 0.61898 0.0
C2498 C 0.90334 0.73397 0.60727 0.0
C2499 C 0.91003 0.72473 0.59555 0.0
C2500 C 0.93135 0.72904 0.59545 0.0
C2501 C 0.94598 0.74249 0.60714 0.0
H2502 H 0.89874 0.71435 0.58648 0.0
H2503 H 0.03706 0.84638 0.70092 0.0
H2504 H 0.13661 0.163 0.63273 0.0
H2505 H 0.16875 0.1607 0.6393 0.0
H2506 H 0.20906 0.22538 0.62445 0.0
H2507 H 0.1767 0.22764 0.61787 0.0
H2508 H 0.22492 0.19883 0.61448 0.0
H2509 H 0.19927 0.2145 0.66329 0.0
H2510 H 0.17268 0.20906 0.6842 0.0
H2511 H 0.16515 0.14825 0.69499 0.0
H2512 H 0.19145 0.15318 0.67395 0.0
H2513 H 0.32108 0.22153 0.65661 0.0
H2514 H 0.28853 0.22188 0.64789 0.0
H2515 H 0.24996 0.15597 0.66005 0.0
H2516 H 0.28251 0.15538 0.66823 0.0
H2517 H 0.23307 0.18224 0.67119 0.0
H2518 H 0.25755 0.16533 0.62326 0.0
H2519 H 0.28392 0.16932 0.6026 0.0
H2520 H 0.29311 0.23033 0.59021 0.0
H2521 H 0.26703 0.22686 0.61102 0.0
C2522 C 0.15236 0.17659 0.6306 0.0
C2523 C 0.15429 0.19543 0.62471 0.0
C2524 C 0.1707 0.17532 0.63445 0.0
C2525 C 0.19136 0.19294 0.63257 0.0
C2526 C 0.19331 0.21158 0.62602 0.0
C2527 C 0.17487 0.21287 0.62223 0.0
C2528 C 0.21076 0.19211 0.63812 0.0
C2529 C 0.22682 0.1955 0.62693 0.0
C2530 C 0.21302 0.18711 0.65427 0.0
C2531 C 0.19712 0.18409 0.66688 0.0
C2532 C 0.19178 0.19987 0.67 0.0
C2533 C 0.17679 0.1969 0.6819 0.0
C2534 C 0.16717 0.17829 0.69088 0.0
C2535 C 0.17257 0.16263 0.688 0.0
C2536 C 0.18752 0.16551 0.67608 0.0
C2537 C 0.30563 0.20717 0.65753 0.0
C2538 C 0.30431 0.18859 0.66352 0.0
C2539 C 0.28707 0.20737 0.65251 0.0
C2540 C 0.26682 0.18896 0.65333 0.0
C2541 C 0.2654 0.17039 0.65941 0.0
C2542 C 0.28402 0.17012 0.66421 0.0
C2543 C 0.24721 0.18913 0.6476 0.0
C2544 C 0.23113 0.18559 0.65875 0.0
C2545 C 0.24485 0.19376 0.63141 0.0
C2546 C 0.26051 0.19594 0.61884 0.0
C2547 C 0.26535 0.1797 0.61625 0.0
C2548 C 0.28021 0.18184 0.60449 0.0
C2549 C 0.29023 0.20009 0.59512 0.0
C2550 C 0.28536 0.21622 0.59749 0.0
C2551 C 0.27053 0.21416 0.60927 0.0
H2552 H 0.30171 0.20172 0.58601 0.0
H2553 H 0.15558 0.17603 0.7001 0.0
H2554 H 0.80115 0.95637 0.60747 0.0
H2555 H 0.80478 0.99153 0.61084 0.0
H2556 H 0.77997 0.97512 0.65921 0.0
H2557 H 0.77591 0.94001 0.65564 0.0
H2558 H 0.76604 0.99887 0.64596 0.0
H2559 H 0.83437 0.00131 0.65175 0.0
H2560 H 0.86421 0.99612 0.64284 0.0
H2561 H 0.87582 0.0375 0.60281 0.0
H2562 H 0.84585 0.04272 0.61138 0.0
H2563 H 0.84927 0.1094 0.67897 0.0
H2564 H 0.83944 0.07402 0.66952 0.0
H2565 H 0.79136 0.07372 0.63789 0.0
H2566 H 0.80067 0.10895 0.64758 0.0
H2567 H 0.84069 0.05876 0.64052 0.0
H2568 H 0.7485 0.02286 0.63604 0.0
H2569 H 0.71995 0.02778 0.64827 0.0
H2570 H 0.75807 0.05269 0.69137 0.0
H2571 H 0.78667 0.04763 0.67949 0.0
C2572 C 0.79601 0.96024 0.61862 0.0
C2573 C 0.78825 0.94577 0.63132 0.0
C2574 C 0.79818 0.98027 0.62059 0.0
C2575 C 0.79293 0.98605 0.63537 0.0
C2576 C 0.78407 0.97102 0.6477 0.0
C2577 C 0.78179 0.95102 0.64568 0.0
C2578 C 0.79838 0.00817 0.6387 0.0
C2579 C 0.7823 0.012 0.64459 0.0
C2580 C 0.8197 0.02527 0.63723 0.0
C2581 C 0.83773 0.0222 0.63209 0.0
C2582 C 0.8432 0.00917 0.64098 0.0
C2583 C 0.86014 0.00624 0.63601 0.0
C2584 C 0.87186 0.01642 0.62224 0.0
C2585 C 0.86669 0.02959 0.61345 0.0
C2586 C 0.84974 0.03255 0.61836 0.0
C2587 C 0.83648 0.10179 0.67009 0.0
C2588 C 0.82556 0.11192 0.66421 0.0
C2589 C 0.83102 0.08162 0.6646 0.0
C2590 C 0.81457 0.07118 0.6531 0.0
C2591 C 0.80393 0.0814 0.64693 0.0
C2592 C 0.80932 0.10157 0.65246 0.0
C2593 C 0.80837 0.04943 0.64784 0.0
C2594 C 0.82433 0.0457 0.64159 0.0
C2595 C 0.78708 0.03236 0.64941 0.0
C2596 C 0.76981 0.03509 0.65679 0.0
C2597 C 0.75074 0.02931 0.64815 0.0
C2598 C 0.73456 0.03213 0.65502 0.0
C2599 C 0.73723 0.04062 0.67056 0.0
C2600 C 0.75605 0.0462 0.6793 0.0
C2601 C 0.77226 0.04338 0.6725 0.0
H2602 H 0.7247 0.04282 0.67585 0.0
H2603 H 0.88497 0.01414 0.6184 0.0
H2604 H 0.51977 0.40033 0.71376 0.0
H2605 H 0.48657 0.36691 0.70846 0.0
H2606 H 0.50024 0.33888 0.74928 0.0
H2607 H 0.53384 0.37239 0.75432 0.0
H2608 H 0.4896 0.31347 0.72403 0.0
H2609 H 0.45863 0.35039 0.74982 0.0
H2610 H 0.45193 0.37988 0.75505 0.0
H2611 H 0.42663 0.37372 0.70706 0.0
H2612 H 0.43345 0.34437 0.70146 0.0
H2613 H 0.38497 0.22002 0.72062 0.0
H2614 H 0.41438 0.25415 0.73058 0.0
H2615 H 0.41684 0.28217 0.68437 0.0
H2616 H 0.38785 0.24794 0.6743 0.0
H2617 H 0.41805 0.30664 0.71429 0.0
H2618 H 0.45004 0.26961 0.68883 0.0
H2619 H 0.45535 0.23911 0.68465 0.0
H2620 H 0.47904 0.24547 0.73315 0.0
H2621 H 0.47282 0.27537 0.73794 0.0
C2622 C 0.51538 0.38713 0.72179 0.0
C2623 C 0.52902 0.38883 0.73455 0.0
C2624 C 0.49642 0.36805 0.71878 0.0
C2625 C 0.49071 0.35037 0.72857 0.0
C2626 C 0.50424 0.35229 0.74159 0.0
C2627 C 0.52329 0.37141 0.74455 0.0
C2628 C 0.47136 0.32965 0.72457 0.0
C2629 C 0.47389 0.31192 0.72221 0.0
C2630 C 0.45088 0.32764 0.72186 0.0
C2631 C 0.44673 0.34528 0.72518 0.0
C2632 C 0.45179 0.35542 0.74034 0.0
C2633 C 0.44795 0.3721 0.74338 0.0
C2634 C 0.43891 0.3787 0.73138 0.0
C2635 C 0.43365 0.3686 0.71634 0.0
C2636 C 0.43748 0.35193 0.71323 0.0
C2637 C 0.39171 0.23358 0.7127 0.0
C2638 C 0.38439 0.23153 0.69672 0.0
C2639 C 0.40845 0.25296 0.71836 0.0
C2640 C 0.41775 0.2706 0.70818 0.0
C2641 C 0.40982 0.26872 0.69239 0.0
C2642 C 0.39343 0.24921 0.68662 0.0
C2643 C 0.43646 0.29073 0.71373 0.0
C2644 C 0.43377 0.30826 0.7163 0.0
C2645 C 0.45673 0.29251 0.71674 0.0
C2646 C 0.46056 0.27453 0.71385 0.0
C2647 C 0.45596 0.26427 0.69873 0.0
C2648 C 0.45911 0.24705 0.69626 0.0
C2649 C 0.46727 0.24018 0.7087 0.0
C2650 C 0.47241 0.25061 0.72361 0.0
C2651 C 0.46902 0.26766 0.72623 0.0
H2652 H 0.46975 0.22687 0.70675 0.0
H2653 H 0.43594 0.39161 0.73376 0.0
H2654 H 0.64618 0.18308 0.72537 0.0
H2655 H 0.68019 0.18501 0.71799 0.0
H2656 H 0.6536 0.1193 0.73031 0.0
H2657 H 0.61941 0.11741 0.73771 0.0
H2658 H 0.69648 0.1444 0.74057 0.0
H2659 H 0.65515 0.1329 0.6918 0.0
H2660 H 0.6345 0.14053 0.67175 0.0
H2661 H 0.6896 0.20163 0.66331 0.0
H2662 H 0.71049 0.19449 0.6835 0.0
H2663 H 0.76743 0.12137 0.69783 0.0
H2664 H 0.7346 0.12165 0.70542 0.0
H2665 H 0.76578 0.18847 0.69578 0.0
H2666 H 0.79893 0.18839 0.68868 0.0
H2667 H 0.72159 0.16421 0.68426 0.0
H2668 H 0.76333 0.17661 0.73189 0.0
H2669 H 0.7851 0.17032 0.75179 0.0
H2670 H 0.73077 0.10958 0.76256 0.0
H2671 H 0.70874 0.11539 0.74252 0.0
C2672 C 0.64776 0.16916 0.72676 0.0
C2673 C 0.63034 0.15015 0.7322 0.0
C2674 C 0.66713 0.17023 0.72243 0.0
C2675 C 0.66943 0.15224 0.72338 0.0
C2676 C 0.65223 0.13338 0.72945 0.0
C2677 C 0.63274 0.1323 0.73371 0.0
C2678 C 0.68946 0.15299 0.71747 0.0
C2679 C 0.70179 0.14845 0.72821 0.0
C2680 C 0.69685 0.15894 0.70145 0.0
C2681 C 0.68431 0.16325 0.6893 0.0
C2682 C 0.66281 0.14804 0.68578 0.0
C2683 C 0.65107 0.15226 0.67437 0.0
C2684 C 0.66071 0.17158 0.6663 0.0
C2685 C 0.68213 0.18669 0.66959 0.0
C2686 C 0.69393 0.18256 0.68101 0.0
C2687 C 0.76718 0.13606 0.69711 0.0
C2688 C 0.78564 0.15477 0.69238 0.0
C2689 C 0.74844 0.13621 0.70148 0.0
C2690 C 0.74775 0.15509 0.70125 0.0
C2691 C 0.76592 0.17371 0.69599 0.0
C2692 C 0.78482 0.17362 0.69182 0.0
C2693 C 0.7284 0.15542 0.70732 0.0
C2694 C 0.71625 0.16018 0.69662 0.0
C2695 C 0.72131 0.1499 0.72342 0.0
C2696 C 0.73442 0.14636 0.73558 0.0
C2697 C 0.75606 0.16184 0.73841 0.0
C2698 C 0.76844 0.15838 0.74973 0.0
C2699 C 0.75934 0.13954 0.75841 0.0
C2700 C 0.73781 0.12416 0.75581 0.0
C2701 C 0.72535 0.12754 0.74448 0.0
H2702 H 0.76894 0.13687 0.76717 0.0
H2703 H 0.65159 0.17481 0.65746 0.0
H2704 H 0.83486 0.46578 0.73165 0.0
H2705 H 0.83181 0.49684 0.72492 0.0
H2706 H 0.89904 0.53749 0.73654 0.0
H2707 H 0.90209 0.50623 0.74325 0.0
H2708 H 0.87031 0.55356 0.74624 0.0
H2709 H 0.88892 0.52584 0.69986 0.0
H2710 H 0.88454 0.49767 0.68105 0.0
H2711 H 0.82089 0.48493 0.66879 0.0
H2712 H 0.82478 0.51283 0.68773 0.0
H2713 H 0.88342 0.64225 0.70204 0.0
H2714 H 0.88798 0.6137 0.71296 0.0
H2715 H 0.82645 0.56773 0.69272 0.0
H2716 H 0.82222 0.59617 0.68121 0.0
H2717 H 0.85373 0.55506 0.68823 0.0
H2718 H 0.83494 0.5834 0.73369 0.0
H2719 H 0.83884 0.61146 0.75247 0.0
H2720 H 0.90124 0.62273 0.76692 0.0
H2721 H 0.89796 0.59506 0.74801 0.0
C2722 C 0.84881 0.4814 0.73315 0.0
C2723 C 0.86866 0.48384 0.73796 0.0
C2724 C 0.84708 0.49908 0.72929 0.0
C2725 C 0.86525 0.5194 0.73012 0.0
C2726 C 0.88485 0.52192 0.73588 0.0
C2727 C 0.88659 0.50415 0.73969 0.0
C2728 C 0.86416 0.53755 0.72333 0.0
C2729 C 0.86694 0.5541 0.73354 0.0
C2730 C 0.85938 0.53794 0.70681 0.0
C2731 C 0.85707 0.52127 0.69533 0.0
C2732 C 0.87393 0.51691 0.69325 0.0
C2733 C 0.87154 0.50102 0.68255 0.0
C2734 C 0.85243 0.48948 0.67376 0.0
C2735 C 0.83568 0.49386 0.67562 0.0
C2736 C 0.83797 0.50972 0.68633 0.0
C2737 C 0.87093 0.62605 0.69983 0.0
C2738 C 0.85244 0.62144 0.6908 0.0
C2739 C 0.87348 0.60975 0.70619 0.0
C2740 C 0.85735 0.58857 0.70397 0.0
C2741 C 0.83908 0.58395 0.69465 0.0
C2742 C 0.83669 0.60023 0.68805 0.0
C2743 C 0.85956 0.57115 0.71115 0.0
C2744 C 0.85706 0.55466 0.70097 0.0
C2745 C 0.86444 0.57083 0.72772 0.0
C2746 C 0.86627 0.58726 0.73931 0.0
C2747 C 0.84955 0.59195 0.7408 0.0
C2748 C 0.85164 0.60778 0.75146 0.0
C2749 C 0.87026 0.61888 0.76085 0.0
C2750 C 0.88682 0.61413 0.75963 0.0
C2751 C 0.88486 0.59837 0.74893 0.0
H2752 H 0.87184 0.63112 0.76909 0.0
H2753 H 0.85062 0.47718 0.66548 0.0
H2754 H 0.47973 0.91375 0.24475 0.0
H2755 H 0.49271 0.93088 0.21874 0.0
H2756 H 0.42759 0.89997 0.20039 0.0
H2757 H 0.41456 0.88196 0.22613 0.0
H2758 H 0.45362 0.90044 0.17766 0.0
H2759 H 0.45356 0.95217 0.21332 0.0
H2760 H 0.46224 0.97382 0.23809 0.0
H2761 H 0.52975 0.00174 0.22826 0.0
H2762 H 0.52147 0.98002 0.20353 0.0
H2763 H 0.47416 0.97181 0.11178 0.0
H2764 H 0.46089 0.94976 0.13588 0.0
H2765 H 0.52574 0.97826 0.15456 0.0
H2766 H 0.53908 0.00021 0.13054 0.0
H2767 H 0.49927 0.97856 0.17685 0.0
H2768 H 0.49839 0.92607 0.14061 0.0
H2769 H 0.48855 0.904 0.11598 0.0
H2770 H 0.42151 0.87829 0.12649 0.0
H2771 H 0.43092 0.9001 0.15122 0.0
C2772 C 0.46815 0.91028 0.23513 0.0
C2773 C 0.44603 0.89653 0.23768 0.0
C2774 C 0.4756 0.92031 0.22027 0.0
C2775 C 0.46112 0.91707 0.20762 0.0
C2776 C 0.43911 0.90288 0.20995 0.0
C2777 C 0.43165 0.89275 0.22478 0.0
C2778 C 0.46885 0.92886 0.19215 0.0
C2779 C 0.46341 0.91755 0.17748 0.0
C2780 C 0.48186 0.95118 0.19182 0.0
C2781 C 0.48689 0.96432 0.20666 0.0
C2782 C 0.47026 0.96281 0.2165 0.0
C2783 C 0.47511 0.97511 0.23052 0.0
C2784 C 0.49653 0.9891 0.23477 0.0
C2785 C 0.51316 0.99087 0.22497 0.0
C2786 C 0.5084 0.97858 0.21094 0.0
C2787 C 0.48563 0.97315 0.1209 0.0
C2788 C 0.50768 0.98797 0.11927 0.0
C2789 C 0.47802 0.9605 0.13469 0.0
C2790 C 0.4923 0.96228 0.14708 0.0
C2791 C 0.51436 0.97667 0.14525 0.0
C2792 C 0.52196 0.98929 0.13152 0.0
C2793 C 0.48428 0.95015 0.16236 0.0
C2794 C 0.48957 0.96145 0.17701 0.0
C2795 C 0.47101 0.92787 0.16263 0.0
C2796 C 0.46536 0.91487 0.14768 0.0
C2797 C 0.48155 0.91584 0.1376 0.0
C2798 C 0.47605 0.90335 0.12362 0.0
C2799 C 0.45443 0.88993 0.11957 0.0
C2800 C 0.43825 0.88879 0.12957 0.0
C2801 C 0.44366 0.90113 0.14361 0.0
H2802 H 0.45022 0.88033 0.10872 0.0
H2803 H 0.50026 0.99862 0.24563 0.0
H2804 H 0.07776 0.55775 0.2551 0.0
H2805 H 0.06366 0.55774 0.22828 0.0
H2806 H 0.10661 0.53891 0.20747 0.0
H2807 H 0.12155 0.53981 0.23423 0.0
H2808 H 0.10182 0.56606 0.18774 0.0
H2809 H 0.05572 0.50217 0.21651 0.0
H2810 H 0.03368 0.48117 0.2394 0.0
H2811 H 0.99257 0.50785 0.23368 0.0
H2812 H 0.01458 0.52925 0.21089 0.0
H2813 H 0.03924 0.50958 0.11817 0.0
H2814 H 0.06045 0.52166 0.14308 0.0
H2815 H 0.01824 0.54305 0.16122 0.0
H2816 H 0.99729 0.53158 0.13619 0.0
H2817 H 0.02323 0.51676 0.18213 0.0
H2818 H 0.06812 0.57848 0.15135 0.0
H2819 H 0.09014 0.59856 0.12816 0.0
H2820 H 0.1334 0.575 0.13697 0.0
H2821 H 0.11144 0.55448 0.16007 0.0
C2822 C 0.08467 0.55417 0.24481 0.0
C2823 C 0.10065 0.54854 0.24687 0.0
C2824 C 0.07643 0.55399 0.22947 0.0
C2825 C 0.08378 0.54792 0.21591 0.0
C2826 C 0.1006 0.54351 0.21778 0.0
C2827 C 0.10896 0.54381 0.23311 0.0
C2828 C 0.0727 0.54443 0.20009 0.0
C2829 C 0.08468 0.55517 0.18645 0.0
C2830 C 0.05026 0.53042 0.19847 0.0
C2831 C 0.03693 0.51747 0.21211 0.0
C2832 C 0.04208 0.50367 0.22021 0.0
C2833 C 0.02958 0.49168 0.23316 0.0
C2834 C 0.01177 0.49322 0.23802 0.0
C2835 C 0.00639 0.50671 0.22992 0.0
C2836 C 0.01886 0.51876 0.21698 0.0
C2837 C 0.03473 0.51728 0.12728 0.0
C2838 C 0.01643 0.51945 0.12519 0.0
C2839 C 0.04687 0.52415 0.14153 0.0
C2840 C 0.04094 0.5333 0.15397 0.0
C2841 C 0.02305 0.53598 0.15177 0.0
C2842 C 0.011 0.52926 0.1375 0.0
C2843 C 0.05229 0.53845 0.16975 0.0
C2844 C 0.04034 0.52785 0.18339 0.0
C2845 C 0.07473 0.55244 0.17128 0.0
C2846 C 0.08799 0.56476 0.15737 0.0
C2847 C 0.08221 0.57741 0.14826 0.0
C2848 C 0.09472 0.58892 0.13515 0.0
C2849 C 0.11314 0.58803 0.13107 0.0
C2850 C 0.11912 0.57566 0.14013 0.0
C2851 C 0.10665 0.5641 0.15325 0.0
H2852 H 0.12279 0.59694 0.12091 0.0
H2853 H 1.00211 0.48392 0.24805 0.0
H2854 H 0.44776 0.5226 0.25002 0.0
H2855 H 0.45219 0.51073 0.22339 0.0
H2856 H 0.46899 0.57153 0.20358 0.0
H2857 H 0.46423 0.58342 0.23014 0.0
H2858 H 0.44337 0.53819 0.18248 0.0
H2859 H 0.50795 0.56256 0.2143 0.0
H2860 H 0.52892 0.56369 0.23831 0.0
H2861 H 0.50861 0.49794 0.23173 0.0
H2862 H 0.48724 0.49635 0.20781 0.0
H2863 H 0.50383 0.53776 0.11384 0.0
H2864 H 0.49003 0.5455 0.13837 0.0
H2865 H 0.47837 0.48654 0.15889 0.0
H2866 H 0.49197 0.47865 0.13443 0.0
H2867 H 0.49999 0.51815 0.17955 0.0
H2868 H 0.43669 0.49378 0.147 0.0
H2869 H 0.41533 0.49225 0.12312 0.0
H2870 H 0.4327 0.55709 0.13077 0.0
H2871 H 0.45439 0.55909 0.1546 0.0
C2872 C 0.45191 0.5333 0.23993 0.0
C2873 C 0.45579 0.55402 0.24224 0.0
C2874 C 0.45459 0.52653 0.22473 0.0
C2875 C 0.4612 0.54033 0.21153 0.0
C2876 C 0.46395 0.56063 0.21359 0.0
C2877 C 0.46138 0.56745 0.22881 0.0
C2878 C 0.46681 0.53417 0.19593 0.0
C2879 C 0.45587 0.53399 0.18178 0.0
C2880 C 0.48287 0.52833 0.19506 0.0
C2881 C 0.49582 0.52928 0.20937 0.0
C2882 C 0.50782 0.5483 0.21805 0.0
C2883 C 0.5198 0.54903 0.23163 0.0
C2884 C 0.52005 0.53088 0.23657 0.0
C2885 C 0.50837 0.51198 0.22791 0.0
C2886 C 0.49633 0.51115 0.21433 0.0
C2887 C 0.49794 0.52625 0.12345 0.0
C2888 C 0.49918 0.50765 0.12219 0.0
C2889 C 0.49006 0.53071 0.13749 0.0
C2890 C 0.48311 0.51659 0.15051 0.0
C2891 C 0.48375 0.49774 0.14907 0.0
C2892 C 0.49162 0.49329 0.13508 0.0
C2893 C 0.47647 0.52199 0.166 0.0
C2894 C 0.48734 0.52218 0.18018 0.0
C2895 C 0.46033 0.52776 0.16685 0.0
C2896 C 0.44734 0.52665 0.1525 0.0
C2897 C 0.43611 0.50777 0.14351 0.0
C2898 C 0.42391 0.5068 0.13 0.0
C2899 C 0.42271 0.52458 0.1254 0.0
C2900 C 0.43367 0.54334 0.13433 0.0
C2901 C 0.4459 0.5444 0.14786 0.0
H2902 H 0.41325 0.52379 0.11494 0.0
H2903 H 0.52934 0.53147 0.24708 0.0
H2904 H 0.92319 0.47546 0.78086 0.0
H2905 H 0.94294 0.49055 0.80609 0.0
H2906 H 0.90209 0.43174 0.83032 0.0
H2907 H 0.88192 0.41676 0.80525 0.0
H2908 H 0.91171 0.46588 0.84969 0.0
H2909 H 0.94967 0.44157 0.81582 0.0
H2910 H 0.96712 0.43976 0.79077 0.0
H2911 H 0.01208 0.50638 0.79416 0.0
H2912 H 0.99468 0.50863 0.81913 0.0
H2913 H 0.97819 0.46933 0.91455 0.0
H2914 H 0.95542 0.46056 0.89049 0.0
H2915 H 1.00168 0.51963 0.86893 0.0
H2916 H 0.02462 0.5284 0.89294 0.0
H2917 H 0.98938 0.4882 0.84805 0.0
H2918 H 0.95329 0.51153 0.88396 0.0
H2919 H 0.93627 0.51231 0.90954 0.0
H2920 H 0.88781 0.44722 0.90278 0.0
H2921 H 0.90479 0.4459 0.87732 0.0
C2922 C 0.9181 0.46591 0.79165 0.0
C2923 C 0.90114 0.44484 0.79103 0.0
C2924 C 0.92949 0.4745 0.80602 0.0
C2925 C 0.92418 0.46215 0.82001 0.0
C2926 C 0.90651 0.44152 0.81965 0.0
C2927 C 0.89513 0.43292 0.80529 0.0
C2928 C 0.93797 0.47008 0.83467 0.0
C2929 C 0.92867 0.47067 0.84939 0.0
C2930 C 0.96017 0.47666 0.83419 0.0
C2931 C 0.97072 0.47531 0.81923 0.0
C2932 C 0.96317 0.45586 0.81115 0.0
C2933 C 0.97307 0.45475 0.79698 0.0
C2934 C 0.99066 0.47295 0.79085 0.0
C2935 C 0.99843 0.4923 0.7989 0.0
C2936 C 0.98856 0.4935 0.81307 0.0
C2937 C 0.98339 0.48055 0.90476 0.0
C2938 C 0.00318 0.49957 0.90564 0.0
C2939 C 0.97034 0.47554 0.89102 0.0
C2940 C 0.97669 0.48957 0.87798 0.0
C2941 C 0.99644 0.50858 0.87885 0.0
C2942 C 0.00956 0.51354 0.89255 0.0
C2943 C 0.96316 0.48398 0.86317 0.0
C2944 C 0.9725 0.48373 0.84839 0.0
C2945 C 0.941 0.47769 0.86365 0.0
C2946 C 0.93045 0.47857 0.87878 0.0
C2947 C 0.93908 0.49734 0.88797 0.0
C2948 C 0.92943 0.49788 0.90245 0.0
C2949 C 0.91101 0.4798 0.90781 0.0
C2950 C 0.90211 0.46119 0.89864 0.0
C2951 C 0.91174 0.46054 0.88417 0.0
H2952 H 0.90362 0.48022 0.91906 0.0
H2953 H 0.99831 0.47206 0.77988 0.0
H2954 H 0.60587 0.48181 0.79499 0.0
H2955 H 0.59255 0.48697 0.82071 0.0
H2956 H 0.52802 0.45684 0.80121 0.0
H2957 H 0.54136 0.45204 0.77525 0.0
H2958 H 0.53802 0.49318 0.81711 0.0
H2959 H 0.54282 0.43123 0.82802 0.0
H2960 H 0.56049 0.40969 0.82934 0.0
H2961 H 0.60779 0.45446 0.86233 0.0
H2962 H 0.59058 0.47644 0.86103 0.0
H2963 H 0.4852 0.48571 0.89031 0.0
H2964 H 0.49711 0.47623 0.86569 0.0
H2965 H 0.5616 0.50442 0.88508 0.0
H2966 H 0.54967 0.5138 0.90989 0.0
H2967 H 0.55122 0.46836 0.86926 0.0
H2968 H 0.54765 0.53085 0.85784 0.0
H2969 H 0.53069 0.55303 0.85652 0.0
H2970 H 0.48205 0.50811 0.82439 0.0
H2971 H 0.49855 0.4855 0.82569 0.0
C2972 C 0.58884 0.47634 0.79613 0.0
C2973 C 0.57469 0.46659 0.78302 0.0
C2974 C 0.58122 0.47912 0.81091 0.0
C2975 C 0.55924 0.47213 0.81297 0.0
C2976 C 0.54503 0.4623 0.79993 0.0
C2977 C 0.55265 0.45944 0.78513 0.0
C2978 C 0.55127 0.47574 0.82854 0.0
C2979 C 0.54059 0.48744 0.82848 0.0
C2980 C 0.55517 0.4688 0.84346 0.0
C2981 C 0.56552 0.45558 0.8443 0.0
C2982 C 0.55709 0.43658 0.83545 0.0
C2983 C 0.56701 0.42427 0.83622 0.0
C2984 C 0.58528 0.43073 0.84588 0.0
C2985 C 0.59365 0.44949 0.85483 0.0
C2986 C 0.58381 0.46187 0.8541 0.0
C2987 C 0.50193 0.4899 0.88934 0.0
C2988 C 0.51655 0.50075 0.90198 0.0
C2989 C 0.50872 0.48447 0.87525 0.0
C2990 C 0.53036 0.48998 0.87336 0.0
C2991 C 0.54484 0.50007 0.88621 0.0
C2992 C 0.538 0.50539 0.9004 0.0
C2993 C 0.53791 0.48575 0.85781 0.0
C2994 C 0.54856 0.47401 0.85788 0.0
C2995 C 0.5341 0.49275 0.84288 0.0
C2996 C 0.52422 0.50638 0.84199 0.0
C2997 C 0.53325 0.52563 0.85058 0.0
C2998 C 0.52373 0.53829 0.84983 0.0
C2999 C 0.50527 0.53196 0.84041 0.0
C3000 C 0.49633 0.51298 0.83169 0.0
C3001 C 0.50577 0.50024 0.83243 0.0
H3002 H 0.49792 0.54178 0.83984 0.0
H3003 H 0.59294 0.42118 0.84646 0.0
H3004 H 0.58132 0.1306 0.79006 0.0
H3005 H 0.5754 0.11287 0.81618 0.0
H3006 H 0.50978 0.06897 0.80236 0.0
H3007 H 0.51566 0.08615 0.77624 0.0
H3008 H 0.51266 0.08704 0.83216 0.0
H3009 H 0.54669 0.0535 0.80375 0.0
H3010 H 0.57597 0.05312 0.78853 0.0
H3011 H 0.61975 0.0844 0.82795 0.0
H3012 H 0.59076 0.08523 0.84332 0.0
H3013 H 0.47316 0.00434 0.88763 0.0
H3014 H 0.48607 0.02669 0.86389 0.0
H3015 H 0.54976 0.0608 0.88481 0.0
H3016 H 0.53701 0.03786 0.90857 0.0
H3017 H 0.55186 0.05223 0.85342 0.0
H3018 H 0.51831 0.08359 0.88287 0.0
H3019 H 0.48995 0.08512 0.89852 0.0
H3020 H 0.44675 0.06017 0.85798 0.0
H3021 H 0.47476 0.05821 0.84214 0.0
C3022 C 0.56576 0.11692 0.79246 0.0
C3023 C 0.54891 0.10999 0.78105 0.0
C3024 C 0.56237 0.10686 0.80744 0.0
C3025 C 0.54208 0.08965 0.8113 0.0
C3026 C 0.52549 0.08234 0.79975 0.0
C3027 C 0.52889 0.09226 0.78481 0.0
C3028 C 0.53764 0.07958 0.8275 0.0
C3029 C 0.52112 0.07928 0.83674 0.0
C3030 C 0.54923 0.07018 0.83382 0.0
C3031 C 0.56663 0.06966 0.8246 0.0
C3032 C 0.56261 0.06047 0.80911 0.0
C3033 C 0.57914 0.06014 0.80047 0.0
C3034 C 0.59973 0.06879 0.80725 0.0
C3035 C 0.6038 0.07774 0.8227 0.0
C3036 C 0.58733 0.07814 0.83139 0.0
C3037 C 0.48996 0.01651 0.88721 0.0
C3038 C 0.50404 0.0192 0.90003 0.0
C3039 C 0.49729 0.02946 0.87364 0.0
C3040 C 0.51887 0.04564 0.87256 0.0
C3041 C 0.53303 0.04848 0.88536 0.0
C3042 C 0.52567 0.03547 0.899 0.0
C3043 C 0.52642 0.05916 0.85788 0.0
C3044 C 0.54355 0.06018 0.84894 0.0
C3045 C 0.51554 0.06946 0.85189 0.0
C3046 C 0.49861 0.07061 0.86135 0.0
C3047 C 0.50271 0.07828 0.87732 0.0
C3048 C 0.4867 0.07925 0.88623 0.0
C3049 C 0.46655 0.07271 0.87926 0.0
C3050 C 0.46237 0.06522 0.86336 0.0
C3051 C 0.47832 0.0642 0.85441 0.0
H3052 H 0.45418 0.07347 0.88617 0.0
H3053 H 0.61251 0.06852 0.80054 0.0
H3054 H 0.11845 0.20989 0.5665 0.0
H3055 H 0.13077 0.22685 0.5402 0.0
H3056 H 0.11972 0.27724 0.55538 0.0
H3057 H 0.10701 0.26013 0.58145 0.0
H3058 H 0.10517 0.26641 0.52643 0.0
H3059 H 0.17148 0.28269 0.55288 0.0
H3060 H 0.1968 0.27473 0.56719 0.0
H3061 H 0.19648 0.23751 0.52681 0.0
H3062 H 0.17093 0.24504 0.51235 0.0
H3063 H 0.19808 0.34132 0.4699 0.0
H3064 H 0.18555 0.32005 0.49419 0.0
H3065 H 0.12595 0.27687 0.47009 0.0
H3066 H 0.13784 0.29891 0.446 0.0
H3067 H 0.17514 0.28248 0.50284 0.0
H3068 H 0.08504 0.25616 0.49685 0.0
H3069 H 0.06175 0.2681 0.48423 0.0
H3070 H 0.11332 0.33251 0.48678 0.0
H3071 H 0.13681 0.32097 0.49958 0.0
C3072 C 0.11886 0.22469 0.56426 0.0
C3073 C 0.11171 0.23364 0.57606 0.0
C3074 C 0.1259 0.23439 0.54921 0.0
C3075 C 0.12633 0.25346 0.54574 0.0
C3076 C 0.11943 0.26249 0.55763 0.0
C3077 C 0.11218 0.2527 0.57257 0.0
C3078 C 0.13369 0.264 0.52975 0.0
C3079 C 0.12045 0.26983 0.52128 0.0
C3080 C 0.15371 0.26873 0.52297 0.0
C3081 C 0.16912 0.26424 0.53161 0.0
C3082 C 0.17669 0.27268 0.54711 0.0
C3083 C 0.1911 0.26827 0.55523 0.0
C3084 C 0.1982 0.25557 0.54793 0.0
C3085 C 0.19094 0.24732 0.53246 0.0
C3086 C 0.17651 0.25166 0.52429 0.0
C3087 C 0.18218 0.32744 0.46975 0.0
C3088 C 0.16886 0.32216 0.45598 0.0
C3089 C 0.17514 0.31508 0.48366 0.0
C3090 C 0.15463 0.29697 0.48418 0.0
C3091 C 0.14168 0.29099 0.47018 0.0
C3092 C 0.14863 0.30352 0.45629 0.0
C3093 C 0.14668 0.28502 0.49959 0.0
C3094 C 0.15977 0.27887 0.50793 0.0
C3095 C 0.12679 0.28051 0.50649 0.0
C3096 C 0.11273 0.28766 0.499 0.0
C3097 C 0.09137 0.27287 0.49476 0.0
C3098 C 0.07814 0.27957 0.48757 0.0
C3099 C 0.08608 0.30104 0.48465 0.0
C3100 C 0.10722 0.31588 0.48899 0.0
C3101 C 0.1205 0.30927 0.4962 0.0
H3102 H 0.07582 0.30619 0.47907 0.0
H3103 H 0.20935 0.25217 0.55424 0.0
H3104 H 0.78738 0.91059 0.57272 0.0
H3105 H 0.77171 0.90745 0.54577 0.0
H3106 H 0.73159 0.84014 0.55226 0.0
H3107 H 0.7472 0.84317 0.579 0.0
H3108 H 0.74953 0.84812 0.52339 0.0
H3109 H 0.71193 0.87459 0.5557 0.0
H3110 H 0.70921 0.89987 0.57401 0.0
H3111 H 0.74126 0.94927 0.53929 0.0
H3112 H 0.74441 0.92432 0.52086 0.0
H3113 H 0.66062 0.81625 0.4707 0.0
H3114 H 0.68374 0.82683 0.49474 0.0
H3115 H 0.72684 0.8868 0.47291 0.0
H3116 H 0.70392 0.87602 0.4486 0.0
H3117 H 0.71224 0.88706 0.5072 0.0
H3118 H 0.74609 0.85886 0.47369 0.0
H3119 H 0.74708 0.83266 0.45539 0.0
H3120 H 0.72091 0.78581 0.49255 0.0
H3121 H 0.71939 0.81165 0.51099 0.0
C3122 C 0.77509 0.89518 0.56841 0.0
C3123 C 0.76861 0.87711 0.57792 0.0
C3124 C 0.76618 0.89339 0.55302 0.0
C3125 C 0.75045 0.87355 0.547 0.0
C3126 C 0.74384 0.85558 0.55658 0.0
C3127 C 0.75278 0.85733 0.57186 0.0
C3128 C 0.74079 0.8712 0.53071 0.0
C3129 C 0.74131 0.85659 0.5199 0.0
C3130 C 0.73058 0.88268 0.52594 0.0
C3131 C 0.72864 0.89766 0.537 0.0
C3132 C 0.71855 0.89088 0.55203 0.0
C3133 C 0.71691 0.90514 0.56242 0.0
C3134 C 0.72512 0.92618 0.55784 0.0
C3135 C 0.73495 0.93298 0.54284 0.0
C3136 C 0.73666 0.91879 0.53242 0.0
C3137 C 0.675 0.8317 0.47105 0.0
C3138 C 0.68046 0.84542 0.45786 0.0
C3139 C 0.68819 0.83768 0.48473 0.0
C3140 C 0.70691 0.85758 0.48556 0.0
C3141 C 0.7124 0.8714 0.47247 0.0
C3142 C 0.69939 0.86523 0.45863 0.0
C3143 C 0.72061 0.86367 0.50019 0.0
C3144 C 0.72081 0.87892 0.51064 0.0
C3145 C 0.73141 0.85272 0.50468 0.0
C3146 C 0.73245 0.83715 0.49368 0.0
C3147 C 0.74035 0.84292 0.47792 0.0
C3148 C 0.74105 0.82814 0.46753 0.0
C3149 C 0.73403 0.80757 0.4728 0.0
C3150 C 0.72633 0.80175 0.48848 0.0
C3151 C 0.72557 0.81646 0.49892 0.0
H3152 H 0.73458 0.79615 0.46474 0.0
H3153 H 0.72383 0.93719 0.5659 0.0
H3154 H 0.12843 0.92478 0.55807 0.0
H3155 H 0.1337 0.91144 0.53237 0.0
H3156 H 0.11814 0.85241 0.55494 0.0
H3157 H 0.11311 0.8658 0.58077 0.0
H3158 H 0.15564 0.86906 0.53825 0.0
H3159 H 0.08377 0.85457 0.528 0.0
H3160 H 0.05434 0.86271 0.52614 0.0
H3161 H 0.0894 0.9098 0.49041 0.0
H3162 H 0.1192 0.90216 0.49221 0.0
H3163 H 0.1616 0.81897 0.4676 0.0
H3164 H 0.14662 0.82684 0.49131 0.0
H3165 H 0.15834 0.88525 0.46966 0.0
H3166 H 0.17309 0.87727 0.44575 0.0
H3167 H 0.12111 0.86748 0.48588 0.0
H3168 H 0.19364 0.88439 0.49727 0.0
H3169 H 0.22398 0.87758 0.49908 0.0
H3170 H 0.18878 0.82772 0.53287 0.0
H3171 H 0.15808 0.83404 0.53107 0.0
C3172 C 0.12594 0.90888 0.55752 0.0
C3173 C 0.12044 0.89637 0.57147 0.0
C3174 C 0.1288 0.90122 0.54279 0.0
C3175 C 0.12623 0.88088 0.54169 0.0
C3176 C 0.12016 0.86813 0.55549 0.0
C3177 C 0.11715 0.87574 0.57022 0.0
C3178 C 0.13145 0.87358 0.52646 0.0
C3179 C 0.14778 0.86832 0.52686 0.0
C3180 C 0.12171 0.8733 0.51148 0.0
C3181 C 0.10381 0.87792 0.51035 0.0
C3182 C 0.08529 0.86679 0.51984 0.0
C3183 C 0.06853 0.87128 0.51878 0.0
C3184 C 0.07002 0.88679 0.50819 0.0
C3185 C 0.08827 0.8978 0.49862 0.0
C3186 C 0.1051 0.89338 0.49964 0.0
C3187 C 0.16091 0.83346 0.46786 0.0
C3188 C 0.16887 0.84767 0.45491 0.0
C3189 C 0.15233 0.83794 0.48142 0.0
C3190 C 0.1518 0.85689 0.48246 0.0
C3191 C 0.15868 0.87059 0.46919 0.0
C3192 C 0.1671 0.86601 0.45552 0.0
C3193 C 0.14523 0.86289 0.49772 0.0
C3194 C 0.12879 0.86803 0.49731 0.0
C3195 C 0.155 0.86328 0.51271 0.0
C3196 C 0.17348 0.85954 0.51391 0.0
C3197 C 0.19231 0.87187 0.50499 0.0
C3198 C 0.20958 0.86812 0.50603 0.0
C3199 C 0.20828 0.85219 0.51605 0.0
C3200 C 0.18974 0.84003 0.52509 0.0
C3201 C 0.17241 0.8437 0.52408 0.0
H3202 H 0.22167 0.8493 0.51684 0.0
H3203 H 0.05702 0.89025 0.50739 0.0
H3204 H 0.58507 0.80861 0.1135 0.0
H3205 H 0.60615 0.82349 0.13843 0.0
H3206 H 0.56547 0.76492 0.16297 0.0
H3207 H 0.54469 0.7499 0.13805 0.0
H3208 H 0.57678 0.80376 0.18138 0.0
H3209 H 0.60863 0.77011 0.14988 0.0
H3210 H 0.62433 0.76464 0.12518 0.0
H3211 H 0.67414 0.82987 0.12623 0.0
H3212 H 0.6585 0.83579 0.15082 0.0
H3213 H 0.63699 0.79969 0.24755 0.0
H3214 H 0.61508 0.79377 0.22338 0.0
H3215 H 0.66786 0.84816 0.2011 0.0
H3216 H 0.68988 0.85425 0.22532 0.0
H3217 H 0.65133 0.81587 0.18085 0.0
H3218 H 0.62307 0.84952 0.21357 0.0
H3219 H 0.60766 0.85674 0.23767 0.0
H3220 H 0.55208 0.79469 0.23415 0.0
H3221 H 0.56727 0.78698 0.21014 0.0
C3222 C 0.58048 0.7991 0.12431 0.0
C3223 C 0.56337 0.77812 0.1239 0.0
C3224 C 0.5925 0.80756 0.13849 0.0
C3225 C 0.58735 0.79526 0.1525 0.0
C3226 C 0.56963 0.77467 0.1523 0.0
C3227 C 0.55787 0.76609 0.13807 0.0
C3228 C 0.60137 0.80313 0.16701 0.0
C3229 C 0.59304 0.80631 0.18136 0.0
C3230 C 0.62277 0.80704 0.16677 0.0
C3231 C 0.63224 0.80345 0.15206 0.0
C3232 C 0.6228 0.78333 0.14475 0.0
C3233 C 0.63171 0.78014 0.13079 0.0
C3234 C 0.65018 0.79692 0.12411 0.0
C3235 C 0.65981 0.8169 0.1314 0.0
C3236 C 0.65093 0.82018 0.14535 0.0
C3237 C 0.64384 0.81061 0.23762 0.0
C3238 C 0.6652 0.82746 0.23839 0.0
C3239 C 0.63128 0.80721 0.22379 0.0
C3240 C 0.63972 0.82066 0.21047 0.0
C3241 C 0.66099 0.83758 0.21123 0.0
C3242 C 0.67359 0.84098 0.22506 0.0
C3243 C 0.62672 0.81629 0.19545 0.0
C3244 C 0.6352 0.81366 0.18095 0.0
C3245 C 0.60555 0.81317 0.19555 0.0
C3246 C 0.59641 0.81761 0.21011 0.0
C3247 C 0.60765 0.83733 0.21802 0.0
C3248 C 0.59893 0.84154 0.23164 0.0
C3249 C 0.57892 0.82617 0.23746 0.0
C3250 C 0.56758 0.80657 0.22964 0.0
C3251 C 0.57623 0.80229 0.216 0.0
H3252 H 0.57219 0.82948 0.24799 0.0
H3253 H 0.65706 0.79442 0.1133 0.0
H3254 H 0.20762 0.78044 0.111 0.0
H3255 H 0.1931 0.78482 0.13648 0.0
H3256 H 0.25758 0.82349 0.15512 0.0
H3257 H 0.27219 0.81867 0.1299 0.0
H3258 H 0.23172 0.79626 0.17763 0.0
H3259 H 0.22889 0.84582 0.1412 0.0
H3260 H 0.21913 0.85711 0.11609 0.0
H3261 H 0.15206 0.81573 0.12579 0.0
H3262 H 0.16144 0.80397 0.15086 0.0
H3263 H 0.2083 0.84495 0.24318 0.0
H3264 H 0.2221 0.83737 0.21861 0.0
H3265 H 0.15732 0.80065 0.19998 0.0
H3266 H 0.14345 0.80825 0.22447 0.0
H3267 H 0.18297 0.82617 0.17749 0.0
H3268 H 0.18584 0.77715 0.21437 0.0
H3269 H 0.19575 0.76613 0.23954 0.0
H3270 H 0.26278 0.8066 0.22916 0.0
H3271 H 0.25326 0.81808 0.20402 0.0
C3272 C 0.21871 0.78969 0.12058 0.0
C3273 C 0.24109 0.79933 0.11835 0.0
C3274 C 0.21039 0.79233 0.1351 0.0
C3275 C 0.22425 0.80471 0.14766 0.0
C3276 C 0.24657 0.81394 0.1456 0.0
C3277 C 0.2549 0.81133 0.1311 0.0
C3278 C 0.21557 0.80835 0.16287 0.0
C3279 C 0.22125 0.80301 0.17762 0.0
C3280 C 0.20155 0.81677 0.16286 0.0
C3281 C 0.19588 0.82385 0.14781 0.0
C3282 C 0.21207 0.839 0.13791 0.0
C3283 C 0.2066 0.84551 0.1237 0.0
C3284 C 0.18499 0.8371 0.11933 0.0
C3285 C 0.1688 0.8222 0.12918 0.0
C3286 C 0.17418 0.81562 0.1434 0.0
C3287 C 0.19697 0.83504 0.23394 0.0
C3288 C 0.17477 0.82723 0.23579 0.0
C3289 C 0.20488 0.83072 0.21988 0.0
C3290 C 0.19074 0.81827 0.20747 0.0
C3291 C 0.16857 0.81034 0.20935 0.0
C3292 C 0.16066 0.81474 0.22335 0.0
C3293 C 0.19906 0.81403 0.1923 0.0
C3294 C 0.19336 0.81932 0.17753 0.0
C3295 C 0.21305 0.80557 0.19231 0.0
C3296 C 0.21883 0.79862 0.20739 0.0
C3297 C 0.20269 0.78382 0.21751 0.0
C3298 C 0.20824 0.77747 0.23176 0.0
C3299 C 0.22988 0.7857 0.23596 0.0
C3300 C 0.24602 0.80026 0.2259 0.0
C3301 C 0.24056 0.80667 0.21164 0.0
H3302 H 0.23414 0.78076 0.247 0.0
H3303 H 0.1808 0.84216 0.10832 0.0
H3304 H 0.20817 0.46181 0.13138 0.0
H3305 H 0.20189 0.44294 0.15687 0.0
H3306 H 0.22594 0.40452 0.13618 0.0
H3307 H 0.23205 0.42324 0.11051 0.0
H3308 H 0.18755 0.3807 0.15161 0.0
H3309 H 0.25548 0.44213 0.16397 0.0
H3310 H 0.28136 0.48033 0.16629 0.0
H3311 H 0.23979 0.48737 0.19977 0.0
H3312 H 0.2135 0.44925 0.19748 0.0
H3313 H 0.18528 0.32836 0.22337 0.0
H3314 H 0.19813 0.35046 0.19937 0.0
H3315 H 0.17987 0.3934 0.22029 0.0
H3316 H 0.16739 0.37146 0.24454 0.0
H3317 H 0.21648 0.41522 0.20468 0.0
H3318 H 0.1479 0.35525 0.19162 0.0
H3319 H 0.12085 0.31737 0.18923 0.0
H3320 H 0.16204 0.30801 0.15689 0.0
H3321 H 0.18948 0.3458 0.15927 0.0
C3322 C 0.21221 0.4494 0.13226 0.0
C3323 C 0.22055 0.44399 0.11887 0.0
C3324 C 0.20876 0.43871 0.1469 0.0
C3325 C 0.21354 0.42235 0.14852 0.0
C3326 C 0.22216 0.41711 0.13525 0.0
C3327 C 0.22579 0.42792 0.12062 0.0
C3328 C 0.20854 0.41009 0.1638 0.0
C3329 C 0.19419 0.3882 0.16317 0.0
C3330 C 0.21661 0.41993 0.17899 0.0
C3331 C 0.23243 0.44285 0.18044 0.0
C3332 C 0.25177 0.45185 0.17173 0.0
C3333 C 0.26654 0.47349 0.17306 0.0
C3334 C 0.2622 0.48628 0.18314 0.0
C3335 C 0.24312 0.47745 0.19195 0.0
C3336 C 0.22829 0.45582 0.19065 0.0
C3337 C 0.18405 0.34254 0.22288 0.0
C3338 C 0.17507 0.34801 0.2358 0.0
C3339 C 0.19137 0.35517 0.20912 0.0
C3340 C 0.18954 0.3734 0.20779 0.0
C3341 C 0.18139 0.37938 0.22095 0.0
C3342 C 0.17426 0.36684 0.23483 0.0
C3343 C 0.19552 0.38579 0.19249 0.0
C3344 C 0.20995 0.40769 0.19311 0.0
C3345 C 0.18735 0.37601 0.17727 0.0
C3346 C 0.17083 0.3533 0.17575 0.0
C3347 C 0.15125 0.34508 0.18409 0.0
C3348 C 0.13584 0.32363 0.18273 0.0
C3349 C 0.13975 0.31028 0.17295 0.0
C3350 C 0.15905 0.31836 0.16448 0.0
C3351 C 0.17453 0.3398 0.16582 0.0
H3352 H 0.12779 0.29368 0.17191 0.0
H3353 H 0.27365 0.50302 0.18416 0.0
H3354 H 0.7507 0.5499 0.89534 0.0
H3355 H 0.76442 0.56714 0.86947 0.0
H3356 H 0.82926 0.59716 0.88834 0.0
H3357 H 0.81555 0.58057 0.91451 0.0
H3358 H 0.82316 0.6249 0.87218 0.0
H3359 H 0.80951 0.55473 0.86134 0.0
H3360 H 0.78804 0.5158 0.8602 0.0
H3361 H 0.743 0.51933 0.82789 0.0
H3362 H 0.76405 0.5583 0.82902 0.0
H3363 H 0.87793 0.66195 0.79868 0.0
H3364 H 0.86356 0.64119 0.82314 0.0
H3365 H 0.79901 0.61582 0.80455 0.0
H3366 H 0.8133 0.63683 0.78 0.0
H3367 H 0.80456 0.58545 0.82024 0.0
H3368 H 0.81808 0.65556 0.83137 0.0
H3369 H 0.83971 0.69448 0.83238 0.0
H3370 H 0.88513 0.69087 0.86422 0.0
H3371 H 0.86392 0.65189 0.86321 0.0
C3372 C 0.76789 0.56028 0.89407 0.0
C3373 C 0.78198 0.56386 0.90712 0.0
C3374 C 0.77575 0.56996 0.87915 0.0
C3375 C 0.79794 0.58332 0.8768 0.0
C3376 C 0.81207 0.58688 0.88978 0.0
C3377 C 0.80422 0.57722 0.90473 0.0
C3378 C 0.80633 0.59407 0.86101 0.0
C3379 C 0.81934 0.61619 0.86087 0.0
C3380 C 0.80092 0.58287 0.84612 0.0
C3381 C 0.78825 0.55944 0.84539 0.0
C3382 C 0.79494 0.54721 0.85409 0.0
C3383 C 0.78286 0.52513 0.85343 0.0
C3384 C 0.76414 0.5151 0.84401 0.0
C3385 C 0.75749 0.52712 0.8352 0.0
C3386 C 0.7695 0.54921 0.83583 0.0
C3387 C 0.86066 0.65202 0.79977 0.0
C3388 C 0.84678 0.65143 0.78744 0.0
C3389 C 0.85246 0.64008 0.81377 0.0
C3390 C 0.83016 0.62723 0.81587 0.0
C3391 C 0.81627 0.6257 0.80326 0.0
C3392 C 0.82448 0.6377 0.7892 0.0
C3393 C 0.82148 0.61619 0.83149 0.0
C3394 C 0.80839 0.59409 0.83158 0.0
C3395 C 0.8268 0.62737 0.84636 0.0
C3396 C 0.83952 0.65081 0.84709 0.0
C3397 C 0.83277 0.66306 0.83849 0.0
C3398 C 0.84494 0.68513 0.83907 0.0
C3399 C 0.86381 0.69514 0.84832 0.0
C3400 C 0.87052 0.6831 0.85704 0.0
C3401 C 0.85842 0.66101 0.85648 0.0
H3402 H 0.87322 0.71223 0.84876 0.0
H3403 H 0.75481 0.49801 0.84351 0.0
H3404 H 0.45246 0.24446 0.9015 0.0
H3405 H 0.43396 0.24038 0.8757 0.0
H3406 H 0.38939 0.17508 0.88669 0.0
H3407 H 0.40775 0.17904 0.91242 0.0
H3408 H 0.40368 0.1788 0.85654 0.0
H3409 H 0.37509 0.21338 0.88964 0.0
H3410 H 0.3774 0.24154 0.90752 0.0
H3411 H 0.4095 0.2874 0.87038 0.0
H3412 H 0.40764 0.25954 0.85235 0.0
H3413 H 0.31703 0.1534 0.80289 0.0
H3414 H 0.33911 0.16213 0.82741 0.0
H3415 H 0.38506 0.22224 0.80718 0.0
H3416 H 0.3631 0.21349 0.78248 0.0
H3417 H 0.37279 0.22364 0.84055 0.0
H3418 H 0.40002 0.18889 0.8071 0.0
H3419 H 0.39764 0.16073 0.78919 0.0
H3420 H 0.36796 0.11531 0.82698 0.0
H3421 H 0.36995 0.14318 0.84508 0.0
C3422 C 0.43858 0.2293 0.89848 0.0
C3423 C 0.43161 0.21206 0.90899 0.0
C3424 C 0.42804 0.22698 0.88372 0.0
C3425 C 0.41021 0.20744 0.87928 0.0
C3426 C 0.40318 0.19027 0.8898 0.0
C3427 C 0.41372 0.19255 0.9045 0.0
C3428 C 0.39896 0.20464 0.86361 0.0
C3429 C 0.39676 0.18849 0.85314 0.0
C3430 C 0.39045 0.21767 0.85893 0.0
C3431 C 0.39143 0.23441 0.86971 0.0
C3432 C 0.38279 0.2295 0.88533 0.0
C3433 C 0.38399 0.2454 0.89548 0.0
C3434 C 0.39365 0.26626 0.89011 0.0
C3435 C 0.40206 0.27125 0.87454 0.0
C3436 C 0.40092 0.2554 0.86434 0.0
C3437 C 0.33176 0.16853 0.80372 0.0
C3438 C 0.33838 0.18278 0.79081 0.0
C3439 C 0.34439 0.17345 0.81768 0.0
C3440 C 0.36372 0.19279 0.81905 0.0
C3441 C 0.37018 0.20725 0.80632 0.0
C3442 C 0.35771 0.20219 0.79223 0.0
C3443 C 0.37724 0.19759 0.83373 0.0
C3444 C 0.37987 0.21409 0.84396 0.0
C3445 C 0.38616 0.1849 0.83822 0.0
C3446 C 0.38495 0.16809 0.8274 0.0
C3447 C 0.39281 0.17286 0.81155 0.0
C3448 C 0.39157 0.15696 0.80137 0.0
C3449 C 0.38258 0.13623 0.80692 0.0
C3450 C 0.37489 0.13137 0.82269 0.0
C3451 C 0.3761 0.14722 0.83292 0.0
H3452 H 0.38163 0.12394 0.79902 0.0
H3453 H 0.39458 0.27856 0.89799 0.0
H3454 H 0.76004 0.21559 0.90129 0.0
H3455 H 0.76523 0.20414 0.8746 0.0
H3456 H 0.83133 0.22478 0.88691 0.0
H3457 H 0.82618 0.23569 0.91357 0.0
H3458 H 0.82703 0.24053 0.85763 0.0
H3459 H 0.79511 0.17343 0.88555 0.0
H3460 H 0.76663 0.14397 0.90093 0.0
H3461 H 0.72142 0.13169 0.86253 0.0
H3462 H 0.74959 0.16129 0.847 0.0
H3463 H 0.86713 0.19668 0.80232 0.0
H3464 H 0.85381 0.20616 0.8261 0.0
H3465 H 0.79071 0.17883 0.8043 0.0
H3466 H 0.80393 0.16885 0.78042 0.0
H3467 H 0.78871 0.16716 0.83603 0.0
H3468 H 0.82066 0.23114 0.80673 0.0
H3469 H 0.84846 0.26053 0.7909 0.0
H3470 H 0.89227 0.27927 0.83111 0.0
H3471 H 0.86484 0.24977 0.84712 0.0
C3472 C 0.77556 0.21732 0.89841 0.0
C3473 C 0.79276 0.22681 0.90953 0.0
C3474 C 0.77852 0.21087 0.88313 0.0
C3475 C 0.79872 0.21377 0.87872 0.0
C3476 C 0.81568 0.22262 0.88997 0.0
C3477 C 0.81271 0.22892 0.90521 0.0
C3478 C 0.8027 0.20832 0.86227 0.0
C3479 C 0.81874 0.22446 0.85295 0.0
C3480 C 0.79129 0.18752 0.85589 0.0
C3481 C 0.77438 0.16974 0.86521 0.0
C3482 C 0.77905 0.16458 0.88045 0.0
C3483 C 0.76297 0.14783 0.88918 0.0
C3484 C 0.74221 0.13602 0.88274 0.0
C3485 C 0.7375 0.14089 0.86752 0.0
C3486 C 0.75351 0.15764 0.85875 0.0
C3487 C 0.85039 0.19259 0.80257 0.0
C3488 C 0.83657 0.18192 0.78949 0.0
C3489 C 0.84283 0.19819 0.81614 0.0
C3490 C 0.8213 0.19338 0.81695 0.0
C3491 C 0.8074 0.18275 0.80392 0.0
C3492 C 0.81501 0.1772 0.79025 0.0
C3493 C 0.81354 0.19927 0.83162 0.0
C3494 C 0.79678 0.18328 0.84059 0.0
C3495 C 0.82414 0.22027 0.83765 0.0
C3496 C 0.84071 0.23813 0.8281 0.0
C3497 C 0.83627 0.24143 0.81217 0.0
C3498 C 0.85196 0.25813 0.80316 0.0
C3499 C 0.87213 0.27174 0.80999 0.0
C3500 C 0.87664 0.2687 0.82584 0.0
C3501 C 0.86101 0.25201 0.8349 0.0
H3502 H 0.88426 0.28466 0.803 0.0
H3503 H 0.72979 0.12305 0.88951 0.0
H3504 H 0.27744 0.11036 0.44632 0.0
H3505 H 0.29537 0.12284 0.47241 0.0
H3506 H 0.251 0.14418 0.48501 0.0
H3507 H 0.23273 0.13148 0.4588 0.0
H3508 H 0.29424 0.17227 0.49511 0.0
H3509 H 0.24104 0.09924 0.49929 0.0
H3510 H 0.22156 0.06176 0.49089 0.0
H3511 H 0.27952 0.05865 0.49607 0.0
H3512 H 0.29945 0.09623 0.50425 0.0
H3513 H 0.32359 0.17841 0.57882 0.0
H3514 H 0.30292 0.17036 0.55364 0.0
H3515 H 0.33765 0.14103 0.53455 0.0
H3516 H 0.35781 0.14836 0.55981 0.0
H3517 H 0.29536 0.11696 0.52903 0.0
H3518 H 0.34901 0.1907 0.52287 0.0
H3519 H 0.36862 0.22831 0.53094 0.0
H3520 H 0.30963 0.23003 0.52973 0.0
H3521 H 0.28962 0.19232 0.52184 0.0
C3522 C 0.27152 0.11779 0.4546 0.0
C3523 C 0.25344 0.11961 0.45063 0.0
C3524 C 0.28183 0.12497 0.46948 0.0
C3525 C 0.27426 0.13408 0.48073 0.0
C3526 C 0.25701 0.1371 0.47649 0.0
C3527 C 0.24664 0.12988 0.46153 0.0
C3528 C 0.28368 0.13911 0.49721 0.0
C3529 C 0.29419 0.16016 0.50267 0.0
C3530 C 0.28376 0.12331 0.50698 0.0
C3531 C 0.27178 0.10061 0.50226 0.0
C3532 C 0.24967 0.09061 0.49853 0.0
C3533 C 0.23854 0.06934 0.49382 0.0
C3534 C 0.2493 0.05784 0.49292 0.0
C3535 C 0.27121 0.06758 0.49676 0.0
C3536 C 0.28243 0.08886 0.50145 0.0
C3537 C 0.32673 0.17013 0.56929 0.0
C3538 C 0.34241 0.16407 0.57131 0.0
C3539 C 0.31504 0.16571 0.55486 0.0
C3540 C 0.31888 0.15526 0.54215 0.0
C3541 C 0.33445 0.14916 0.54417 0.0
C3542 C 0.34611 0.15354 0.55857 0.0
C3543 C 0.30649 0.15024 0.5268 0.0
C3544 C 0.29529 0.1291 0.52157 0.0
C3545 C 0.30577 0.16597 0.51731 0.0
C3546 C 0.31779 0.18865 0.52194 0.0
C3547 C 0.3402 0.19906 0.52444 0.0
C3548 C 0.35139 0.2204 0.52896 0.0
C3549 C 0.34037 0.23154 0.53089 0.0
C3550 C 0.31814 0.22137 0.52825 0.0
C3551 C 0.30687 0.20002 0.52375 0.0
H3552 H 0.34906 0.24806 0.53439 0.0
H3553 H 0.24066 0.04138 0.48926 0.0
H3554 H 0.93271 0.14631 0.46406 0.0
H3555 H 0.91825 0.15098 0.48936 0.0
H3556 H 0.85442 0.12011 0.46854 0.0
H3557 H 0.86892 0.11596 0.44294 0.0
H3558 H 0.86243 0.15536 0.48453 0.0
H3559 H 0.86957 0.09493 0.49609 0.0
H3560 H 0.8883 0.07442 0.49794 0.0
H3561 H 0.93398 0.12001 0.53137 0.0
H3562 H 0.91569 0.14097 0.52955 0.0
H3563 H 0.80739 0.14517 0.55753 0.0
H3564 H 0.82038 0.13695 0.53289 0.0
H3565 H 0.88488 0.16793 0.55248 0.0
H3566 H 0.87197 0.17626 0.57723 0.0
H3567 H 0.87582 0.1317 0.53713 0.0
H3568 H 0.8696 0.19264 0.52496 0.0
H3569 H 0.85121 0.21348 0.52311 0.0
H3570 H 0.8042 0.16721 0.49075 0.0
H3571 H 0.82215 0.14593 0.49259 0.0
C3572 C 0.9156 0.1406 0.4648 0.0
C3573 C 0.902 0.13082 0.45141 0.0
C3574 C 0.90731 0.14308 0.47937 0.0
C3575 C 0.88519 0.13571 0.48096 0.0
C3576 C 0.87153 0.12587 0.46764 0.0
C3577 C 0.87982 0.12336 0.45304 0.0
C3578 C 0.87648 0.13888 0.49635 0.0
C3579 C 0.86505 0.14986 0.49599 0.0
C3580 C 0.88038 0.13223 0.5114 0.0
C3581 C 0.89137 0.11962 0.51257 0.0
C3582 C 0.88371 0.10067 0.50374 0.0
C3583 C 0.89423 0.08895 0.5048 0.0
C3584 C 0.91235 0.09593 0.51474 0.0
C3585 C 0.91995 0.11463 0.52367 0.0
C3586 C 0.9095 0.12643 0.52264 0.0
C3587 C 0.82437 0.15033 0.55659 0.0
C3588 C 0.83867 0.16157 0.56932 0.0
C3589 C 0.83177 0.14558 0.54249 0.0
C3590 C 0.85368 0.1521 0.54069 0.0
C3591 C 0.86791 0.16276 0.55356 0.0
C3592 C 0.86049 0.16747 0.56772 0.0
C3593 C 0.86178 0.14816 0.52529 0.0
C3594 C 0.87312 0.1371 0.52565 0.0
C3595 C 0.85786 0.15477 0.51023 0.0
C3596 C 0.8471 0.16759 0.50904 0.0
C3597 C 0.85525 0.18683 0.51754 0.0
C3598 C 0.84492 0.19873 0.51648 0.0
C3599 C 0.82652 0.19164 0.50685 0.0
C3600 C 0.81844 0.17267 0.49823 0.0
C3601 C 0.82869 0.16068 0.49926 0.0
H3602 H 0.81854 0.20088 0.50605 0.0
H3603 H 0.92047 0.08683 0.51554 0.0
H3604 H 0.8994 0.75845 0.44268 0.0
H3605 H 0.89382 0.74051 0.46866 0.0
H3606 H 0.87 0.77938 0.48884 0.0
H3607 H 0.87564 0.79741 0.46298 0.0
H3608 H 0.89668 0.77355 0.51044 0.0
H3609 H 0.83514 0.73114 0.47618 0.0
H3610 H 0.8169 0.71138 0.45139 0.0
H3611 H 0.84292 0.67027 0.45852 0.0
H3612 H 0.86158 0.69 0.48324 0.0
H3613 H 0.83842 0.71061 0.57796 0.0
H3614 H 0.85147 0.7324 0.55373 0.0
H3615 H 0.8647 0.68637 0.53184 0.0
H3616 H 0.85112 0.66436 0.55583 0.0
H3617 H 0.84499 0.69641 0.51103 0.0
H3618 H 0.90603 0.73752 0.54538 0.0
H3619 H 0.92484 0.75703 0.57011 0.0
H3620 H 0.90082 0.7998 0.5632 0.0
H3621 H 0.88189 0.78059 0.53838 0.0
C3622 C 0.89328 0.76339 0.45272 0.0
C3623 C 0.8878 0.77925 0.4507 0.0
C3624 C 0.88999 0.75305 0.46755 0.0
C3625 C 0.88129 0.75844 0.48071 0.0
C3626 C 0.87669 0.77489 0.4789 0.0
C3627 C 0.87978 0.78508 0.46406 0.0
C3628 C 0.87581 0.74619 0.49602 0.0
C3629 C 0.88526 0.75671 0.51061 0.0
C3630 C 0.86124 0.72413 0.49626 0.0
C3631 C 0.84994 0.71219 0.48146 0.0
C3632 C 0.83711 0.718 0.47239 0.0
C3633 C 0.82668 0.70678 0.45836 0.0
C3634 C 0.8288 0.68962 0.45336 0.0
C3635 C 0.84132 0.68359 0.4624 0.0
C3636 C 0.85182 0.69477 0.47642 0.0
C3637 C 0.84441 0.70531 0.56806 0.0
C3638 C 0.84359 0.68568 0.56879 0.0
C3639 C 0.85195 0.71782 0.55419 0.0
C3640 C 0.85926 0.71119 0.54086 0.0
C3641 C 0.85905 0.69187 0.54184 0.0
C3642 C 0.85128 0.67927 0.55559 0.0
C3643 C 0.86597 0.72366 0.52558 0.0
C3644 C 0.85661 0.7132 0.51095 0.0
C3645 C 0.88078 0.74572 0.52532 0.0
C3646 C 0.89239 0.75751 0.5401 0.0
C3647 C 0.90467 0.75103 0.54917 0.0
C3648 C 0.91536 0.76203 0.5632 0.0
C3649 C 0.9139 0.77954 0.56828 0.0
C3650 C 0.9019 0.78621 0.55926 0.0
C3651 C 0.89125 0.77532 0.54518 0.0
H3652 H 0.92213 0.78798 0.57918 0.0
H3653 H 0.82071 0.68095 0.4425 0.0
loop_
_geom_bond_atom_site_label_1
_geom_bond_atom_site_label_2
_geom_bond_distance
_geom_bond_site_symmetry_2
_ccdc_geom_bond_type
H0 C3 0.929 . S
H1 C6 0.929 . S
H2 C8 0.930 . S
C3 H0 0.929 . S
C3 C4 1.398 . S
C3 C5 1.396 . S
C4 C3 1.398 . S
C4 C8 1.407 . S
C5 C3 1.396 . S
C5 C6 1.394 . S
C6 H1 0.929 . S
C6 C5 1.394 . S
C6 C7 1.382 . S
C7 C6 1.382 . S
C7 C8 1.392 . S
C7 N9 1.420 . S
C8 H2 0.930 . S
C8 C4 1.407 . S
C8 C7 1.392 . S
N9 C7 1.420 . S
N9 C10 1.244 . S
C10 N9 1.244 . S
H11 C14 0.929 . S
H12 C17 0.929 . S
H13 C19 0.930 . S
C14 H11 0.929 . S
C14 C15 1.398 . S
C14 C16 1.396 . S
C15 C14 1.398 . S
C15 C19 1.407 . S
C16 C14 1.396 . S
C16 C17 1.394 . S
C17 H12 0.929 . S
C17 C16 1.394 . S
C17 C18 1.382 . S
C18 C17 1.382 . S
C18 C19 1.392 . S
C18 N20 1.420 . S
C19 H13 0.930 . S
C19 C15 1.407 . S
C19 C18 1.392 . S
N20 C18 1.420 . S
N20 C21 1.244 . S
C21 N20 1.244 . S
H22 C25 0.929 . S
H23 C28 0.929 . S
H24 C30 0.930 . S
C25 H22 0.929 . S
C25 C26 1.398 . S
C25 C27 1.396 . S
C26 C25 1.398 . S
C26 C30 1.407 . S
C27 C25 1.396 . S
C27 C28 1.394 . S
C28 H23 0.929 . S
C28 C27 1.394 . S
C28 C29 1.382 . S
C29 C28 1.382 . S
C29 C30 1.392 . S
C29 N31 1.420 . S
C30 H24 0.930 . S
C30 C26 1.407 . S
C30 C29 1.392 . S
N31 C29 1.420 . S
N31 C32 1.244 . S
C32 N31 1.244 . S
H33 C36 0.929 . S
H34 C39 0.929 . S
H35 C41 0.930 . S
C36 H33 0.929 . S
C36 C37 1.398 . S
C36 C38 1.396 . S
C37 C36 1.398 . S
C37 C41 1.407 . S
C38 C36 1.396 . S
C38 C39 1.394 . S
C39 H34 0.929 . S
C39 C38 1.394 . S
C39 C40 1.382 . S
C40 C39 1.382 . S
C40 C41 1.392 . S
C40 N42 1.420 . S
C41 H35 0.930 . S
C41 C37 1.407 . S
C41 C40 1.392 . S
N42 C40 1.420 . S
N42 C43 1.244 . S
C43 N42 1.244 . S
H44 C47 0.929 . S
H45 C50 0.929 . S
H46 C52 0.930 . S
C47 H44 0.929 . S
C47 C48 1.398 . S
C47 C49 1.396 . S
C48 C47 1.398 . S
C48 C52 1.407 . S
C49 C47 1.396 . S
C49 C50 1.394 . S
C50 H45 0.929 . S
C50 C49 1.394 . S
C50 C51 1.382 . S
C51 C50 1.382 . S
C51 C52 1.392 . S
C51 N53 1.420 . S
C52 H46 0.930 . S
C52 C48 1.407 . S
C52 C51 1.392 . S
N53 C51 1.420 . S
N53 C54 1.244 . S
C54 N53 1.244 . S
H55 C58 0.929 . S
H56 C61 0.929 . S
H57 C63 0.930 . S
C58 H55 0.929 . S
C58 C59 1.398 . S
C58 C60 1.396 . S
C59 C58 1.398 . S
C59 C63 1.407 . S
C60 C58 1.396 . S
C60 C61 1.394 . S
C61 H56 0.929 . S
C61 C60 1.394 . S
C61 C62 1.382 . S
C62 C61 1.382 . S
C62 C63 1.392 . S
C62 N64 1.420 . S
C63 H57 0.930 . S
C63 C59 1.407 . S
C63 C62 1.392 . S
N64 C62 1.420 . S
N64 C65 1.244 . S
C65 N64 1.244 . S
H66 C69 0.929 . S
H67 C72 0.929 . S
H68 C74 0.930 . S
C69 H66 0.929 . S
C69 C70 1.398 . S
C69 C71 1.396 . S
C70 C69 1.398 . S
C70 C74 1.407 . S
C71 C69 1.396 . S
C71 C72 1.394 . S
C72 H67 0.929 . S
C72 C71 1.394 . S
C72 C73 1.382 . S
C73 C72 1.382 . S
C73 C74 1.392 . S
C73 N75 1.420 . S
C74 H68 0.930 . S
C74 C70 1.407 . S
C74 C73 1.392 . S
N75 C73 1.420 . S
N75 C76 1.244 . S
C76 N75 1.244 . S
H77 C80 0.929 . S
H78 C83 0.929 . S
H79 C85 0.930 . S
C80 H77 0.929 . S
C80 C81 1.398 . S
C80 C82 1.396 . S
C81 C80 1.398 . S
C81 C85 1.407 . S
C82 C80 1.396 . S
C82 C83 1.394 . S
C83 H78 0.929 . S
C83 C82 1.394 . S
C83 C84 1.382 . S
C84 C83 1.382 . S
C84 C85 1.392 . S
C84 N86 1.420 . S
C85 H79 0.930 . S
C85 C81 1.407 . S
C85 C84 1.392 . S
N86 C84 1.420 . S
N86 C87 1.244 . S
C87 N86 1.244 . S
H88 C91 0.929 . S
H89 C94 0.929 . S
H90 C96 0.930 . S
C91 H88 0.929 . S
C91 C92 1.398 . S
C91 C93 1.396 . S
C92 C91 1.398 . S
C92 C96 1.407 . S
C93 C91 1.396 . S
C93 C94 1.394 . S
C94 H89 0.929 . S
C94 C93 1.394 . S
C94 C95 1.382 . S
C95 C94 1.382 . S
C95 C96 1.392 . S
C95 N97 1.420 . S
C96 H90 0.930 . S
C96 C92 1.407 . S
C96 C95 1.392 . S
N97 C95 1.420 . S
N97 C98 1.244 . S
C98 N97 1.244 . S
H99 C102 0.929 . S
H100 C105 0.929 . S
H101 C107 0.930 . S
C102 H99 0.929 . S
C102 C103 1.398 . S
C102 C104 1.396 . S
C103 C102 1.398 . S
C103 C107 1.407 . S
C104 C102 1.396 . S
C104 C105 1.394 . S
C105 H100 0.929 . S
C105 C104 1.394 . S
C105 C106 1.382 . S
C106 C105 1.382 . S
C106 C107 1.392 . S
C106 N108 1.420 . S
C107 H101 0.930 . S
C107 C103 1.407 . S
C107 C106 1.392 . S
N108 C106 1.420 . S
N108 C109 1.244 . S
C109 N108 1.244 . S
H110 C113 0.929 . S
H111 C116 0.929 . S
H112 C118 0.930 . S
C113 H110 0.929 . S
C113 C114 1.398 . S
C113 C115 1.396 . S
C114 C113 1.398 . S
C114 C118 1.407 . S
C115 C113 1.396 . S
C115 C116 1.394 . S
C116 H111 0.929 . S
C116 C115 1.394 . S
C116 C117 1.382 . S
C117 C116 1.382 . S
C117 C118 1.392 . S
C117 N119 1.420 . S
C118 H112 0.930 . S
C118 C114 1.407 . S
C118 C117 1.392 . S
N119 C117 1.420 . S
N119 C120 1.244 . S
C120 N119 1.244 . S
H121 C124 0.929 . S
H122 C127 0.929 . S
H123 C129 0.930 . S
C124 H121 0.929 . S
C124 C125 1.398 . S
C124 C126 1.396 . S
C125 C124 1.398 . S
C125 C129 1.407 . S
C126 C124 1.396 . S
C126 C127 1.394 . S
C127 H122 0.929 . S
C127 C126 1.394 . S
C127 C128 1.382 . S
C128 C127 1.382 . S
C128 C129 1.392 . S
C128 N130 1.420 . S
C129 H123 0.930 . S
C129 C125 1.407 . S
C129 C128 1.392 . S
N130 C128 1.420 . S
N130 C131 1.244 . S
C131 N130 1.244 . S
H132 C135 0.929 . S
H133 C138 0.929 . S
H134 C140 0.930 . S
C135 H132 0.929 . S
C135 C136 1.398 . S
C135 C137 1.396 . S
C136 C135 1.398 . S
C136 C140 1.407 . S
C137 C135 1.396 . S
C137 C138 1.394 . S
C138 H133 0.929 . S
C138 C137 1.394 . S
C138 C139 1.382 . S
C139 C138 1.382 . S
C139 C140 1.392 . S
C139 N141 1.420 . S
C140 H134 0.930 . S
C140 C136 1.407 . S
C140 C139 1.392 . S
N141 C139 1.420 . S
N141 C142 1.244 . S
C142 N141 1.244 . S
H143 C146 0.929 . S
H144 C149 0.929 . S
H145 C151 0.930 . S
C146 H143 0.929 . S
C146 C147 1.398 . S
C146 C148 1.396 . S
C147 C146 1.398 . S
C147 C151 1.407 . S
C148 C146 1.396 . S
C148 C149 1.394 . S
C149 H144 0.929 . S
C149 C148 1.394 . S
C149 C150 1.382 . S
C150 C149 1.382 . S
C150 C151 1.392 . S
C150 N152 1.420 . S
C151 H145 0.930 . S
C151 C147 1.407 . S
C151 C150 1.392 . S
N152 C150 1.420 . S
N152 C153 1.244 . S
C153 N152 1.244 . S
H154 C157 0.929 . S
H155 C160 0.929 . S
H156 C162 0.930 . S
C157 H154 0.929 . S
C157 C158 1.398 . S
C157 C159 1.396 . S
C158 C157 1.398 . S
C158 C162 1.407 . S
C159 C157 1.396 . S
C159 C160 1.394 . S
C160 H155 0.929 . S
C160 C159 1.394 . S
C160 C161 1.382 . S
C161 C160 1.382 . S
C161 C162 1.392 . S
C161 N163 1.420 . S
C162 H156 0.930 . S
C162 C158 1.407 . S
C162 C161 1.392 . S
N163 C161 1.420 . S
N163 C164 1.244 . S
C164 N163 1.244 . S
H165 C168 0.929 . S
H166 C171 0.929 . S
H167 C173 0.930 . S
C168 H165 0.929 . S
C168 C169 1.398 . S
C168 C170 1.396 . S
C169 C168 1.398 . S
C169 C173 1.407 . S
C170 C168 1.396 . S
C170 C171 1.394 . S
C171 H166 0.929 . S
C171 C170 1.394 . S
C171 C172 1.382 . S
C172 C171 1.382 . S
C172 C173 1.392 . S
C172 N174 1.420 . S
C173 H167 0.930 . S
C173 C169 1.407 . S
C173 C172 1.392 . S
N174 C172 1.420 . S
N174 C175 1.244 . S
C175 N174 1.244 . S
H176 C179 0.929 . S
H177 C182 0.929 . S
H178 C184 0.930 . S
C179 H176 0.929 . S
C179 C180 1.398 . S
C179 C181 1.396 . S
C180 C179 1.398 . S
C180 C184 1.407 . S
C181 C179 1.396 . S
C181 C182 1.394 . S
C182 H177 0.929 . S
C182 C181 1.394 . S
C182 C183 1.382 . S
C183 C182 1.382 . S
C183 C184 1.392 . S
C183 N185 1.420 . S
C184 H178 0.930 . S
C184 C180 1.407 . S
C184 C183 1.392 . S
N185 C183 1.420 . S
N185 C186 1.244 . S
C186 N185 1.244 . S
H187 C190 0.929 . S
H188 C193 0.929 . S
H189 C195 0.930 . S
C190 H187 0.929 . S
C190 C191 1.398 . S
C190 C192 1.396 . S
C191 C190 1.398 . S
C191 C195 1.407 . S
C192 C190 1.396 . S
C192 C193 1.394 . S
C193 H188 0.929 . S
C193 C192 1.394 . S
C193 C194 1.382 . S
C194 C193 1.382 . S
C194 C195 1.392 . S
C194 N196 1.420 . S
C195 H189 0.930 . S
C195 C191 1.407 . S
C195 C194 1.392 . S
N196 C194 1.420 . S
N196 C197 1.244 . S
C197 N196 1.244 . S
Eu198 N229 2.657 . S
Eu198 N236 2.609 . S
Eu198 O242 2.558 . S
Eu198 O243 2.612 1_566 S
Eu198 O245 2.339 1_565 S
Eu198 O246 2.563 1_565 S
Eu198 O247 2.419 1_565 S
Eu198 O249 2.380 1_556 S
Eu198 O250 2.432 1_556 S
Eu198 C262 2.848 1_565 S
C199 C202 1.429 . S
C199 C203 1.411 . S
C199 N206 1.377 . S
C200 C202 1.420 . S
C200 C204 1.423 . S
C200 C212 1.392 . S
C201 C203 1.420 . S
C201 C204 1.351 . S
C201 H224 0.931 . S
C202 C199 1.429 . S
C202 C200 1.420 . S
C202 N210 1.362 . S
C203 C199 1.411 . S
C203 C201 1.420 . S
C203 C208 1.395 . S
C204 C200 1.423 . S
C204 C201 1.351 . S
C204 H216 0.930 . S
C205 C207 1.400 . S
C205 C208 1.386 . S
C205 H217 0.930 . S
N206 C199 1.377 . S
N206 C207 1.321 . S
N206 Eu209 2.609 . S
C207 C205 1.400 . S
C207 N206 1.321 . S
C207 H214 0.930 . S
C208 C203 1.395 . S
C208 C205 1.386 . S
C208 H227 0.930 . S
Eu209 N206 2.609 . S
Eu209 N210 2.657 . S
Eu209 O243 2.380 . S
Eu209 O244 2.432 . S
Eu209 O248 2.558 . S
Eu209 O249 2.612 1_545 S
Eu209 O251 2.339 1_545 S
Eu209 O252 2.563 1_545 S
Eu209 O253 2.419 1_545 S
Eu209 C273 2.848 . S
N210 C202 1.362 . S
N210 Eu209 2.657 . S
N210 C211 1.334 . S
C211 N210 1.334 . S
C211 C213 1.413 . S
C211 H218 0.929 . S
C212 C200 1.392 . S
C212 C213 1.367 . S
C212 H220 0.930 . S
C213 C211 1.413 . S
C213 C212 1.367 . S
C213 H215 0.930 . S
H214 C207 0.930 . S
H215 C213 0.930 . S
H216 C204 0.930 . S
H217 C205 0.930 . S
H218 C211 0.929 . S
H219 C233 0.930 . S
H220 C212 0.930 . S
H221 C239 0.930 . S
H222 C230 0.927 1_545 S
H223 C237 0.930 . S
H224 C201 0.931 . S
H225 C231 0.930 . S
H226 C264 0.930 . S
H227 C208 0.930 . S
H228 C263 0.931 . S
N229 Eu198 2.657 . S
N229 C230 1.334 . S
N229 C234 1.362 . S
C230 H222 0.927 1_565 S
C230 N229 1.334 . S
C230 C233 1.413 . S
C231 H225 0.930 . S
C231 C232 1.392 . S
C231 C233 1.367 . S
C232 C231 1.392 . S
C232 C234 1.420 . S
C232 C264 1.423 . S
C233 H219 0.930 . S
C233 C230 1.413 . S
C233 C231 1.367 . S
C234 N229 1.362 . S
C234 C232 1.420 . S
C234 C238 1.429 . S
H235 C240 0.930 . S
N236 Eu198 2.609 . S
N236 C238 1.377 . S
N236 C239 1.321 . S
C237 H223 0.930 . S
C237 C239 1.400 . S
C237 C240 1.386 . S
C238 C234 1.429 . S
C238 N236 1.377 . S
C238 C241 1.411 . S
C239 H221 0.930 . S
C239 N236 1.321 . S
C239 C237 1.400 . S
C240 H235 0.930 . S
C240 C237 1.386 . S
C240 C241 1.395 . S
C241 C238 1.411 . S
C241 C240 1.395 . S
C241 C263 1.420 . S
O242 Eu198 2.558 . S
O242 C262 1.257 1_565 S
O243 Eu198 2.612 1_544 S
O243 Eu209 2.380 . S
O243 C254 1.276 1_554 S
O244 Eu209 2.432 . S
O244 C261 1.264 . S
O245 Eu198 2.339 1_545 S
O245 C261 1.254 1_556 S
O246 Eu198 2.563 1_545 S
O246 C254 1.235 . S
O247 Eu198 2.419 1_545 S
O247 C262 1.249 . S
O248 Eu209 2.558 . S
O248 C273 1.257 . S
O249 Eu198 2.380 1_554 S
O249 Eu209 2.612 1_565 S
O249 C265 1.276 . S
O250 Eu198 2.432 1_554 S
O250 C272 1.264 . S
O251 Eu209 2.339 1_565 S
O251 C272 1.254 . S
O252 Eu209 2.563 1_565 S
O252 C265 1.235 . S
O253 Eu209 2.419 1_565 S
O253 C273 1.249 1_565 S
C254 O243 1.276 1_556 S
C254 O246 1.235 . S
C255 C257 1.393 . S
C255 C259 1.395 1_545 S
C255 C262 1.492 . S
C256 C257 1.392 . S
C256 C258 1.386 . S
C257 C255 1.393 . S
C257 C256 1.392 . S
C257 H274 0.930 . S
C258 C256 1.386 . S
C258 C260 1.337 1_545 S
C258 H275 0.930 . S
C259 C255 1.395 1_565 S
C259 C260 1.391 . S
C259 H276 0.930 . S
C260 C258 1.337 1_565 S
C260 C259 1.391 . S
C260 H277 0.978 . S
C261 O244 1.264 . S
C261 O245 1.254 1_554 S
C262 Eu198 2.848 1_545 S
C262 O242 1.257 1_545 S
C262 O247 1.249 . S
C262 C255 1.492 . S
C263 H228 0.931 . S
C263 C241 1.420 . S
C263 C264 1.351 . S
C264 H226 0.930 . S
C264 C232 1.423 . S
C264 C263 1.351 . S
C265 O249 1.276 . S
C265 O252 1.235 . S
C266 C267 1.351 1_545 S
C266 C270 1.430 . S
C266 C273 1.499 . S
C267 C266 1.351 1_565 S
C267 C268 1.392 . S
C267 H278 0.930 . S
C268 C267 1.392 . S
C268 C269 1.386 . S
C269 C268 1.386 . S
C269 C271 1.395 1_565 S
C269 H279 0.930 . S
C270 C266 1.430 . S
C270 C271 1.379 . S
C270 H280 0.930 . S
C271 C269 1.395 1_545 S
C271 C270 1.379 . S
C271 H281 0.930 . S
C272 O250 1.264 . S
C272 O251 1.254 . S
C273 Eu209 2.848 . S
C273 O248 1.257 . S
C273 O253 1.249 1_545 S
C273 C266 1.499 . S
H274 C257 0.930 . S
H275 C258 0.930 . S
H276 C259 0.930 . S
H277 C260 0.978 . S
H278 C267 0.930 . S
H279 C269 0.930 . S
H280 C270 0.930 . S
H281 C271 0.930 . S
Eu282 N313 2.657 . S
Eu282 N320 2.609 . S
Eu282 O326 2.558 . S
Eu282 O327 2.612 1_456 S
Eu282 O329 2.339 1_455 S
Eu282 O330 2.563 1_455 S
Eu282 O331 2.425 . S
Eu282 O333 2.380 1_556 S
Eu282 O334 2.432 1_556 S
Eu282 C346 2.848 . S
C283 C286 1.429 . S
C283 C287 1.411 . S
C283 N290 1.377 . S
C284 C286 1.420 . S
C284 C288 1.423 . S
C284 C296 1.392 . S
C285 C287 1.420 . S
C285 C288 1.351 . S
C285 H308 0.931 . S
C286 C283 1.429 . S
C286 C284 1.420 . S
C286 N294 1.362 . S
C287 C283 1.411 . S
C287 C285 1.420 . S
C287 C292 1.395 . S
C288 C284 1.423 . S
C288 C285 1.351 . S
C288 H300 0.930 . S
C289 C291 1.400 . S
C289 C292 1.386 . S
C289 H301 0.930 . S
N290 C283 1.377 . S
N290 C291 1.321 . S
N290 Eu293 2.609 . S
C291 C289 1.400 . S
C291 N290 1.321 . S
C291 H298 0.930 . S
C292 C287 1.395 . S
C292 C289 1.386 . S
C292 H311 0.930 . S
Eu293 N290 2.609 . S
Eu293 N294 2.657 . S
Eu293 O327 2.380 . S
Eu293 O328 2.432 . S
Eu293 O332 2.558 . S
Eu293 O333 2.612 1_655 S
Eu293 O335 2.339 1_655 S
Eu293 O336 2.563 1_655 S
Eu293 O337 2.419 1_655 S
Eu293 C357 2.839 1_655 S
N294 C286 1.362 . S
N294 Eu293 2.657 . S
N294 C295 1.334 . S
C295 N294 1.334 . S
C295 C297 1.413 . S
C295 H302 0.921 1_655 S
C296 C284 1.392 . S
C296 C297 1.367 . S
C296 H304 0.930 . S
C297 C295 1.413 . S
C297 C296 1.367 . S
C297 H299 0.930 . S
H298 C291 0.930 . S
H299 C297 0.930 . S
H300 C288 0.930 . S
H301 C289 0.930 . S
H302 C295 0.921 1_455 S
H303 C317 0.930 . S
H304 C296 0.930 . S
H305 C323 0.930 . S
H306 C314 0.929 . S
H307 C321 0.930 . S
H308 C285 0.931 . S
H309 C315 0.930 . S
H310 C348 0.930 . S
H311 C292 0.930 . S
H312 C347 0.931 . S
N313 Eu282 2.657 . S
N313 C314 1.334 . S
N313 C318 1.362 . S
C314 H306 0.929 . S
C314 N313 1.334 . S
C314 C317 1.413 . S
C315 H309 0.930 . S
C315 C316 1.392 . S
C315 C317 1.367 . S
C316 C315 1.392 . S
C316 C318 1.420 . S
C316 C348 1.423 . S
C317 H303 0.930 . S
C317 C314 1.413 . S
C317 C315 1.367 . S
C318 N313 1.362 . S
C318 C316 1.420 . S
C318 C322 1.429 . S
H319 C324 0.930 . S
N320 Eu282 2.609 . S
N320 C322 1.377 . S
N320 C323 1.321 . S
C321 H307 0.930 . S
C321 C323 1.400 . S
C321 C324 1.386 . S
C322 C318 1.429 . S
C322 N320 1.377 . S
C322 C325 1.411 . S
C323 H305 0.930 . S
C323 N320 1.321 . S
C323 C321 1.400 . S
C324 H319 0.930 . S
C324 C321 1.386 . S
C324 C325 1.395 . S
C325 C322 1.411 . S
C325 C324 1.395 . S
C325 C347 1.420 . S
O326 Eu282 2.558 . S
O326 C346 1.257 . S
O327 Eu282 2.612 1_654 S
O327 Eu293 2.380 . S
O327 C338 1.276 1_554 S
O328 Eu293 2.432 . S
O328 C345 1.264 . S
O329 Eu282 2.339 1_655 S
O329 C345 1.254 1_556 S
O330 Eu282 2.563 1_655 S
O330 C338 1.235 . S
O331 Eu282 2.425 . S
O331 C346 1.248 . S
O332 Eu293 2.558 . S
O332 C357 1.250 1_655 S
O333 Eu282 2.380 1_554 S
O333 Eu293 2.612 1_455 S
O333 C349 1.276 . S
O334 Eu282 2.432 1_554 S
O334 C356 1.264 . S
O335 Eu293 2.339 1_455 S
O335 C356 1.254 . S
O336 Eu293 2.563 1_455 S
O336 C349 1.235 . S
O337 Eu293 2.419 1_455 S
O337 C357 1.247 . S
C338 O327 1.276 1_556 S
C338 O330 1.235 . S
C339 C341 1.393 1_455 S
C339 C343 1.395 . S
C339 C346 1.492 . S
C340 C341 1.392 . S
C340 C342 1.386 . S
C341 C339 1.393 1_655 S
C341 C340 1.392 . S
C341 H358 0.930 . S
C342 C340 1.386 . S
C342 C344 1.395 1_655 S
C342 H359 0.930 . S
C343 C339 1.395 . S
C343 C344 1.379 . S
C343 H360 0.930 . S
C344 C342 1.395 1_455 S
C344 C343 1.379 . S
C344 H361 0.930 . S
C345 O328 1.264 . S
C345 O329 1.254 1_554 S
C346 Eu282 2.848 . S
C346 O326 1.257 . S
C346 O331 1.248 . S
C346 C339 1.492 . S
C347 H312 0.931 . S
C347 C325 1.420 . S
C347 C348 1.351 . S
C348 H310 0.930 . S
C348 C316 1.423 . S
C348 C347 1.351 . S
C349 O333 1.276 . S
C349 O336 1.235 . S
C350 C351 1.393 . S
C350 C354 1.395 1_455 S
C350 C357 1.506 . S
C351 C350 1.393 . S
C351 C352 1.392 . S
C351 H362 0.930 . S
C352 C351 1.392 . S
C352 C353 1.386 . S
C353 C352 1.386 . S
C353 C355 1.395 1_455 S
C353 H363 0.930 . S
C354 C350 1.395 1_655 S
C354 C355 1.379 . S
C354 H364 0.930 . S
C355 C353 1.395 1_655 S
C355 C354 1.379 . S
C355 H365 0.930 . S
C356 O334 1.264 . S
C356 O335 1.254 . S
C357 Eu293 2.839 1_455 S
C357 O332 1.250 1_455 S
C357 O337 1.247 . S
C357 C350 1.506 . S
H358 C341 0.930 . S
H359 C342 0.930 . S
H360 C343 0.930 . S
H361 C344 0.930 . S
H362 C351 0.930 . S
H363 C353 0.930 . S
H364 C354 0.930 . S
H365 C355 0.930 . S
Eu366 N397 2.657 . S
Eu366 N404 2.609 . S
Eu366 O410 2.558 . S
Eu366 O411 2.612 . S
Eu366 O413 2.339 . S
Eu366 O414 2.563 . S
Eu366 O415 2.419 . S
Eu366 O417 2.380 . S
Eu366 O418 2.432 . S
Eu366 C430 2.848 . S
C367 C370 1.429 . S
C367 C371 1.411 . S
C367 N374 1.377 . S
C368 C370 1.420 . S
C368 C372 1.423 . S
C368 C380 1.392 . S
C369 C371 1.420 . S
C369 C372 1.351 . S
C369 H392 0.931 . S
C370 C367 1.429 . S
C370 C368 1.420 . S
C370 N378 1.362 . S
C371 C367 1.411 . S
C371 C369 1.420 . S
C371 C376 1.395 . S
C372 C368 1.423 . S
C372 C369 1.351 . S
C372 H384 0.930 . S
C373 C375 1.400 . S
C373 C376 1.386 . S
C373 H385 0.930 . S
N374 C367 1.377 . S
N374 C375 1.321 . S
N374 Eu377 2.609 . S
C375 C373 1.400 . S
C375 N374 1.321 . S
C375 H382 0.930 . S
C376 C371 1.395 . S
C376 C373 1.386 . S
C376 H395 0.930 . S
Eu377 N374 2.609 . S
Eu377 N378 2.657 . S
Eu377 O411 2.380 1_556 S
Eu377 O412 2.432 1_556 S
Eu377 O416 2.558 . S
Eu377 O417 2.612 1_556 S
Eu377 O419 2.339 . S
Eu377 O420 2.563 . S
Eu377 O421 2.419 . S
Eu377 C441 2.848 . S
N378 C370 1.362 . S
N378 Eu377 2.657 . S
N378 C379 1.334 . S
C379 N378 1.334 . S
C379 C381 1.413 . S
C379 H386 0.929 . S
C380 C368 1.392 . S
C380 C381 1.367 . S
C380 H388 0.930 . S
C381 C379 1.413 . S
C381 C380 1.367 . S
C381 H383 0.930 . S
H382 C375 0.930 . S
H383 C381 0.930 . S
H384 C372 0.930 . S
H385 C373 0.930 . S
H386 C379 0.929 . S
H387 C401 0.930 . S
H388 C380 0.930 . S
H389 C407 0.930 . S
H390 C398 0.929 . S
H391 C405 0.930 . S
H392 C369 0.931 . S
H393 C399 0.930 . S
H394 C432 0.930 . S
H395 C376 0.930 . S
H396 C431 0.931 . S
N397 Eu366 2.657 . S
N397 C398 1.334 . S
N397 C402 1.362 . S
C398 H390 0.929 . S
C398 N397 1.334 . S
C398 C401 1.413 . S
C399 H393 0.930 . S
C399 C400 1.392 . S
C399 C401 1.367 . S
C400 C399 1.392 . S
C400 C402 1.420 . S
C400 C432 1.423 . S
C401 H387 0.930 . S
C401 C398 1.413 . S
C401 C399 1.367 . S
C402 N397 1.362 . S
C402 C400 1.420 . S
C402 C406 1.429 . S
H403 C408 0.930 . S
N404 Eu366 2.609 . S
N404 C406 1.377 . S
N404 C407 1.321 . S
C405 H391 0.930 . S
C405 C407 1.400 . S
C405 C408 1.386 . S
C406 C402 1.429 . S
C406 N404 1.377 . S
C406 C409 1.411 . S
C407 H389 0.930 . S
C407 N404 1.321 . S
C407 C405 1.400 . S
C408 H403 0.930 . S
C408 C405 1.386 . S
C408 C409 1.395 . S
C409 C406 1.411 . S
C409 C408 1.395 . S
C409 C431 1.420 . S
O410 Eu366 2.558 . S
O410 C430 1.257 . S
O411 Eu366 2.612 . S
O411 Eu377 2.380 1_554 S
O411 C422 1.276 . S
O412 Eu377 2.432 1_554 S
O412 C429 1.264 . S
O413 Eu366 2.339 . S
O413 C429 1.254 . S
O414 Eu366 2.563 . S
O414 C422 1.235 . S
O415 Eu366 2.419 . S
O415 C430 1.249 . S
O416 Eu377 2.558 . S
O416 C441 1.257 . S
O417 Eu366 2.380 . S
O417 Eu377 2.612 1_554 S
O417 C433 1.276 1_554 S
O418 Eu366 2.432 . S
O418 C440 1.264 . S
O419 Eu377 2.339 . S
O419 C440 1.254 1_556 S
O420 Eu377 2.563 . S
O420 C433 1.235 . S
O421 Eu377 2.419 . S
O421 C441 1.249 . S
C422 O411 1.276 . S
C422 O414 1.235 . S
C423 C425 1.393 . S
C423 C427 1.395 . S
C423 C430 1.492 . S
C424 C425 1.392 . S
C424 C426 1.386 . S
C425 C423 1.393 . S
C425 C424 1.392 . S
C425 H442 0.930 . S
C426 C424 1.386 . S
C426 C428 1.395 . S
C426 H443 0.930 . S
C427 C423 1.395 . S
C427 C428 1.379 . S
C427 H444 0.930 . S
C428 C426 1.395 . S
C428 C427 1.379 . S
C428 H445 0.930 . S
C429 O412 1.264 . S
C429 O413 1.254 . S
C430 Eu366 2.848 . S
C430 O410 1.257 . S
C430 O415 1.249 . S
C430 C423 1.492 . S
C431 H396 0.931 . S
C431 C409 1.420 . S
C431 C432 1.351 . S
C432 H394 0.930 . S
C432 C400 1.423 . S
C432 C431 1.351 . S
C433 O417 1.276 1_556 S
C433 O420 1.235 . S
C434 C435 1.393 . S
C434 C438 1.395 . S
C434 C441 1.492 . S
C435 C434 1.393 . S
C435 C436 1.392 . S
C435 H446 0.930 . S
C436 C435 1.392 . S
C436 C437 1.386 . S
C437 C436 1.386 . S
C437 C439 1.395 . S
C437 H447 0.930 . S
C438 C434 1.395 . S
C438 C439 1.379 . S
C438 H448 0.930 . S
C439 C437 1.395 . S
C439 C438 1.379 . S
C439 H449 0.930 . S
C440 O418 1.264 . S
C440 O419 1.254 1_554 S
C441 Eu377 2.848 . S
C441 O416 1.257 . S
C441 O421 1.249 . S
C441 C434 1.492 . S
H442 C425 0.930 . S
H443 C426 0.930 . S
H444 C427 0.930 . S
H445 C428 0.930 . S
H446 C435 0.930 . S
H447 C437 0.930 . S
H448 C438 0.930 . S
H449 C439 0.930 . S
Eu450 N481 2.657 . S
Eu450 N488 2.609 . S
Eu450 O494 2.558 . S
Eu450 O495 2.612 . S
Eu450 O497 2.339 . S
Eu450 O498 2.563 . S
Eu450 O499 2.419 . S
Eu450 O501 2.380 . S
Eu450 O502 2.432 . S
Eu450 C514 2.848 . S
C451 C454 1.429 . S
C451 C455 1.411 . S
C451 N458 1.377 . S
C452 C454 1.420 . S
C452 C456 1.423 . S
C452 C464 1.392 . S
C453 C455 1.420 . S
C453 C456 1.351 . S
C453 H476 0.931 . S
C454 C451 1.429 . S
C454 C452 1.420 . S
C454 N462 1.362 . S
C455 C451 1.411 . S
C455 C453 1.420 . S
C455 C460 1.395 . S
C456 C452 1.423 . S
C456 C453 1.351 . S
C456 H468 0.930 . S
C457 C459 1.400 . S
C457 C460 1.386 . S
C457 H469 0.930 . S
N458 C451 1.377 . S
N458 C459 1.321 . S
N458 Eu461 2.609 . S
C459 C457 1.400 . S
C459 N458 1.321 . S
C459 H466 0.930 . S
C460 C455 1.395 . S
C460 C457 1.386 . S
C460 H479 0.930 . S
Eu461 N458 2.609 . S
Eu461 N462 2.657 . S
Eu461 O495 2.380 . S
Eu461 O496 2.432 . S
Eu461 O500 2.558 . S
Eu461 O501 2.612 . S
Eu461 O503 2.339 . S
Eu461 O504 2.563 . S
Eu461 O505 2.419 . S
Eu461 C525 2.848 . S
N462 C454 1.362 . S
N462 Eu461 2.657 . S
N462 C463 1.334 . S
C463 N462 1.334 . S
C463 C465 1.413 . S
C463 H470 0.929 . S
C464 C452 1.392 . S
C464 C465 1.367 . S
C464 H472 0.930 . S
C465 C463 1.413 . S
C465 C464 1.367 . S
C465 H467 0.930 . S
H466 C459 0.930 . S
H467 C465 0.930 . S
H468 C456 0.930 . S
H469 C457 0.930 . S
H470 C463 0.929 . S
H471 C485 0.930 . S
H472 C464 0.930 . S
H473 C491 0.930 . S
H474 C482 0.929 . S
H475 C489 0.930 . S
H476 C453 0.931 . S
H477 C483 0.930 . S
H478 C516 0.930 . S
H479 C460 0.930 . S
H480 C515 0.931 . S
N481 Eu450 2.657 . S
N481 C482 1.334 . S
N481 C486 1.362 . S
C482 H474 0.929 . S
C482 N481 1.334 . S
C482 C485 1.413 . S
C483 H477 0.930 . S
C483 C484 1.392 . S
C483 C485 1.367 . S
C484 C483 1.392 . S
C484 C486 1.420 . S
C484 C516 1.423 . S
C485 H471 0.930 . S
C485 C482 1.413 . S
C485 C483 1.367 . S
C486 N481 1.362 . S
C486 C484 1.420 . S
C486 C490 1.429 . S
H487 C492 0.930 . S
N488 Eu450 2.609 . S
N488 C490 1.377 . S
N488 C491 1.321 . S
C489 H475 0.930 . S
C489 C491 1.400 . S
C489 C492 1.386 . S
C490 C486 1.429 . S
C490 N488 1.377 . S
C490 C493 1.411 . S
C491 H473 0.930 . S
C491 N488 1.321 . S
C491 C489 1.400 . S
C492 H487 0.930 . S
C492 C489 1.386 . S
C492 C493 1.395 . S
C493 C490 1.411 . S
C493 C492 1.395 . S
C493 C515 1.420 . S
O494 Eu450 2.558 . S
O494 C514 1.257 . S
O495 Eu450 2.612 . S
O495 Eu461 2.380 . S
O495 C506 1.276 . S
O496 Eu461 2.432 . S
O496 C513 1.264 . S
O497 Eu450 2.339 . S
O497 C513 1.254 . S
O498 Eu450 2.563 . S
O498 C506 1.235 . S
O499 Eu450 2.419 . S
O499 C514 1.249 . S
O500 Eu461 2.558 . S
O500 C525 1.257 . S
O501 Eu450 2.380 . S
O501 Eu461 2.612 . S
O501 C517 1.276 . S
O502 Eu450 2.432 . S
O502 C524 1.264 . S
O503 Eu461 2.339 . S
O503 C524 1.254 . S
O504 Eu461 2.563 . S
O504 C517 1.235 . S
O505 Eu461 2.419 . S
O505 C525 1.249 . S
C506 O495 1.276 . S
C506 O498 1.235 . S
C507 C509 1.393 . S
C507 C511 1.395 . S
C507 C514 1.492 . S
C508 C509 1.392 . S
C508 C510 1.386 . S
C509 C507 1.393 . S
C509 C508 1.392 . S
C509 H526 0.930 . S
C510 C508 1.386 . S
C510 C512 1.395 . S
C510 H527 0.930 . S
C511 C507 1.395 . S
C511 C512 1.379 . S
C511 H528 0.930 . S
C512 C510 1.395 . S
C512 C511 1.379 . S
C512 H529 0.930 . S
C513 O496 1.264 . S
C513 O497 1.254 . S
C514 Eu450 2.848 . S
C514 O494 1.257 . S
C514 O499 1.249 . S
C514 C507 1.492 . S
C515 H480 0.931 . S
C515 C493 1.420 . S
C515 C516 1.351 . S
C516 H478 0.930 . S
C516 C484 1.423 . S
C516 C515 1.351 . S
C517 O501 1.276 . S
C517 O504 1.235 . S
C518 C519 1.393 . S
C518 C522 1.395 . S
C518 C525 1.492 . S
C519 C518 1.393 . S
C519 C520 1.392 . S
C519 H530 0.930 . S
C520 C519 1.392 . S
C520 C521 1.386 . S
C521 C520 1.386 . S
C521 C523 1.395 . S
C521 H531 0.930 . S
C522 C518 1.395 . S
C522 C523 1.379 . S
C522 H532 0.930 . S
C523 C521 1.395 . S
C523 C522 1.379 . S
C523 H533 0.930 . S
C524 O502 1.264 . S
C524 O503 1.254 . S
C525 Eu461 2.848 . S
C525 O500 1.257 . S
C525 O505 1.249 . S
C525 C518 1.492 . S
H526 C509 0.930 . S
H527 C510 0.930 . S
H528 C511 0.930 . S
H529 C512 0.930 . S
H530 C519 0.930 . S
H531 C521 0.930 . S
H532 C522 0.930 . S
H533 C523 0.930 . S
Eu534 N565 2.657 . S
Eu534 N572 2.609 . S
Eu534 O578 2.558 . S
Eu534 O579 2.612 . S
Eu534 O581 2.339 . S
Eu534 O582 2.563 . S
Eu534 O583 2.419 . S
Eu534 O585 2.380 . S
Eu534 O586 2.432 . S
Eu534 C598 2.848 . S
C535 C538 1.429 . S
C535 C539 1.411 . S
C535 N542 1.377 . S
C536 C538 1.420 . S
C536 C540 1.423 . S
C536 C548 1.392 . S
C537 C539 1.420 . S
C537 C540 1.351 . S
C537 H560 0.931 . S
C538 C535 1.429 . S
C538 C536 1.420 . S
C538 N546 1.362 . S
C539 C535 1.411 . S
C539 C537 1.420 . S
C539 C544 1.395 . S
C540 C536 1.423 . S
C540 C537 1.351 . S
C540 H552 0.930 . S
C541 C543 1.400 . S
C541 C544 1.386 . S
C541 H553 0.930 . S
N542 C535 1.377 . S
N542 C543 1.321 . S
N542 Eu545 2.609 . S
C543 C541 1.400 . S
C543 N542 1.321 . S
C543 H550 0.930 . S
C544 C539 1.395 . S
C544 C541 1.386 . S
C544 H563 0.930 . S
Eu545 N542 2.609 . S
Eu545 N546 2.657 . S
Eu545 O579 2.380 . S
Eu545 O580 2.432 . S
Eu545 O584 2.558 . S
Eu545 O585 2.612 . S
Eu545 O587 2.339 . S
Eu545 O588 2.563 . S
Eu545 O589 2.419 . S
Eu545 C609 2.848 . S
N546 C538 1.362 . S
N546 Eu545 2.657 . S
N546 C547 1.334 . S
C547 N546 1.334 . S
C547 C549 1.413 . S
C547 H554 0.929 . S
C548 C536 1.392 . S
C548 C549 1.367 . S
C548 H556 0.930 . S
C549 C547 1.413 . S
C549 C548 1.367 . S
C549 H551 0.930 . S
H550 C543 0.930 . S
H551 C549 0.930 . S
H552 C540 0.930 . S
H553 C541 0.930 . S
H554 C547 0.929 . S
H555 C569 0.930 . S
H556 C548 0.930 . S
H557 C575 0.930 . S
H558 C566 0.929 . S
H559 C573 0.930 . S
H560 C537 0.931 . S
H561 C567 0.930 . S
H562 C600 0.930 . S
H563 C544 0.930 . S
H564 C599 0.931 . S
N565 Eu534 2.657 . S
N565 C566 1.334 . S
N565 C570 1.362 . S
C566 H558 0.929 . S
C566 N565 1.334 . S
C566 C569 1.413 . S
C567 H561 0.930 . S
C567 C568 1.392 . S
C567 C569 1.367 . S
C568 C567 1.392 . S
C568 C570 1.420 . S
C568 C600 1.423 . S
C569 H555 0.930 . S
C569 C566 1.413 . S
C569 C567 1.367 . S
C570 N565 1.362 . S
C570 C568 1.420 . S
C570 C574 1.429 . S
H571 C576 0.930 . S
N572 Eu534 2.609 . S
N572 C574 1.377 . S
N572 C575 1.321 . S
C573 H559 0.930 . S
C573 C575 1.400 . S
C573 C576 1.386 . S
C574 C570 1.429 . S
C574 N572 1.377 . S
C574 C577 1.411 . S
C575 H557 0.930 . S
C575 N572 1.321 . S
C575 C573 1.400 . S
C576 H571 0.930 . S
C576 C573 1.386 . S
C576 C577 1.395 . S
C577 C574 1.411 . S
C577 C576 1.395 . S
C577 C599 1.420 . S
O578 Eu534 2.558 . S
O578 C598 1.257 . S
O579 Eu534 2.612 . S
O579 Eu545 2.380 . S
O579 C590 1.276 . S
O580 Eu545 2.432 . S
O580 C597 1.264 . S
O581 Eu534 2.339 . S
O581 C597 1.254 . S
O582 Eu534 2.563 . S
O582 C590 1.235 . S
O583 Eu534 2.419 . S
O583 C598 1.249 . S
O584 Eu545 2.558 . S
O584 C609 1.257 . S
O585 Eu534 2.380 . S
O585 Eu545 2.612 . S
O585 C601 1.276 . S
O586 Eu534 2.432 . S
O586 C608 1.264 . S
O587 Eu545 2.339 . S
O587 C608 1.254 . S
O588 Eu545 2.563 . S
O588 C601 1.235 . S
O589 Eu545 2.419 . S
O589 C609 1.249 . S
C590 O579 1.276 . S
C590 O582 1.235 . S
C591 C593 1.393 . S
C591 C595 1.395 . S
C591 C598 1.492 . S
C592 C593 1.392 . S
C592 C594 1.386 . S
C593 C591 1.393 . S
C593 C592 1.392 . S
C593 H610 0.930 . S
C594 C592 1.386 . S
C594 C596 1.395 . S
C594 H611 0.930 . S
C595 C591 1.395 . S
C595 C596 1.379 . S
C595 H612 0.930 . S
C596 C594 1.395 . S
C596 C595 1.379 . S
C596 H613 0.930 . S
C597 O580 1.264 . S
C597 O581 1.254 . S
C598 Eu534 2.848 . S
C598 O578 1.257 . S
C598 O583 1.249 . S
C598 C591 1.492 . S
C599 H564 0.931 . S
C599 C577 1.420 . S
C599 C600 1.351 . S
C600 H562 0.930 . S
C600 C568 1.423 . S
C600 C599 1.351 . S
C601 O585 1.276 . S
C601 O588 1.235 . S
C602 C603 1.393 . S
C602 C606 1.395 . S
C602 C609 1.492 . S
C603 C602 1.393 . S
C603 C604 1.392 . S
C603 H614 0.930 . S
C604 C603 1.392 . S
C604 C605 1.386 . S
C605 C604 1.386 . S
C605 C607 1.395 . S
C605 H615 0.930 . S
C606 C602 1.395 . S
C606 C607 1.379 . S
C606 H616 0.930 . S
C607 C605 1.395 . S
C607 C606 1.379 . S
C607 H617 0.930 . S
C608 O586 1.264 . S
C608 O587 1.254 . S
C609 Eu545 2.848 . S
C609 O584 1.257 . S
C609 O589 1.249 . S
C609 C602 1.492 . S
H610 C593 0.930 . S
H611 C594 0.930 . S
H612 C595 0.930 . S
H613 C596 0.930 . S
H614 C603 0.930 . S
H615 C605 0.930 . S
H616 C606 0.930 . S
H617 C607 0.930 . S
Eu618 N649 2.657 . S
Eu618 N656 2.609 . S
Eu618 O662 2.558 . S
Eu618 O663 2.612 . S
Eu618 O665 2.339 . S
Eu618 O666 2.563 . S
Eu618 O667 2.419 . S
Eu618 O669 2.380 . S
Eu618 O670 2.432 . S
Eu618 C682 2.848 . S
C619 C622 1.429 . S
C619 C623 1.411 . S
C619 N626 1.377 . S
C620 C622 1.420 . S
C620 C624 1.423 . S
C620 C632 1.392 . S
C621 C623 1.420 . S
C621 C624 1.351 . S
C621 H644 0.931 . S
C622 C619 1.429 . S
C622 C620 1.420 . S
C622 N630 1.362 . S
C623 C619 1.411 . S
C623 C621 1.420 . S
C623 C628 1.395 . S
C624 C620 1.423 . S
C624 C621 1.351 . S
C624 H636 0.930 . S
C625 C627 1.400 . S
C625 C628 1.386 . S
C625 H637 0.930 . S
N626 C619 1.377 . S
N626 C627 1.321 . S
N626 Eu629 2.609 . S
C627 C625 1.400 . S
C627 N626 1.321 . S
C627 H634 0.930 . S
C628 C623 1.395 . S
C628 C625 1.386 . S
C628 H647 0.930 . S
Eu629 N626 2.609 . S
Eu629 N630 2.657 . S
Eu629 O663 2.380 . S
Eu629 O664 2.432 . S
Eu629 O668 2.558 . S
Eu629 O669 2.612 . S
Eu629 O671 2.339 . S
Eu629 O672 2.563 . S
Eu629 O673 2.419 . S
Eu629 C693 2.848 . S
N630 C622 1.362 . S
N630 Eu629 2.657 . S
N630 C631 1.334 . S
C631 N630 1.334 . S
C631 C633 1.413 . S
C631 H638 0.929 . S
C632 C620 1.392 . S
C632 C633 1.367 . S
C632 H640 0.930 . S
C633 C631 1.413 . S
C633 C632 1.367 . S
C633 H635 0.930 . S
H634 C627 0.930 . S
H635 C633 0.930 . S
H636 C624 0.930 . S
H637 C625 0.930 . S
H638 C631 0.929 . S
H639 C653 0.930 . S
H640 C632 0.930 . S
H641 C659 0.930 . S
H642 C650 0.929 . S
H643 C657 0.930 . S
H644 C621 0.931 . S
H645 C651 0.930 . S
H646 C684 0.930 . S
H647 C628 0.930 . S
H648 C683 0.931 . S
N649 Eu618 2.657 . S
N649 C650 1.334 . S
N649 C654 1.362 . S
C650 H642 0.929 . S
C650 N649 1.334 . S
C650 C653 1.413 . S
C651 H645 0.930 . S
C651 C652 1.392 . S
C651 C653 1.367 . S
C652 C651 1.392 . S
C652 C654 1.420 . S
C652 C684 1.423 . S
C653 H639 0.930 . S
C653 C650 1.413 . S
C653 C651 1.367 . S
C654 N649 1.362 . S
C654 C652 1.420 . S
C654 C658 1.429 . S
H655 C660 0.930 . S
N656 Eu618 2.609 . S
N656 C658 1.377 . S
N656 C659 1.321 . S
C657 H643 0.930 . S
C657 C659 1.400 . S
C657 C660 1.386 . S
C658 C654 1.429 . S
C658 N656 1.377 . S
C658 C661 1.411 . S
C659 H641 0.930 . S
C659 N656 1.321 . S
C659 C657 1.400 . S
C660 H655 0.930 . S
C660 C657 1.386 . S
C660 C661 1.395 . S
C661 C658 1.411 . S
C661 C660 1.395 . S
C661 C683 1.420 . S
O662 Eu618 2.558 . S
O662 C682 1.257 . S
O663 Eu618 2.612 . S
O663 Eu629 2.380 . S
O663 C674 1.276 . S
O664 Eu629 2.432 . S
O664 C681 1.264 . S
O665 Eu618 2.339 . S
O665 C681 1.254 . S
O666 Eu618 2.563 . S
O666 C674 1.235 . S
O667 Eu618 2.419 . S
O667 C682 1.249 . S
O668 Eu629 2.558 . S
O668 C693 1.257 . S
O669 Eu618 2.380 . S
O669 Eu629 2.612 . S
O669 C685 1.276 . S
O670 Eu618 2.432 . S
O670 C692 1.264 . S
O671 Eu629 2.339 . S
O671 C692 1.254 . S
O672 Eu629 2.563 . S
O672 C685 1.235 . S
O673 Eu629 2.419 . S
O673 C693 1.249 . S
C674 O663 1.276 . S
C674 O666 1.235 . S
C675 C677 1.393 . S
C675 C679 1.395 . S
C675 C682 1.492 . S
C676 C677 1.392 . S
C676 C678 1.386 . S
C677 C675 1.393 . S
C677 C676 1.392 . S
C677 H694 0.930 . S
C678 C676 1.386 . S
C678 C680 1.395 . S
C678 H695 0.930 . S
C679 C675 1.395 . S
C679 C680 1.379 . S
C679 H696 0.930 . S
C680 C678 1.395 . S
C680 C679 1.379 . S
C680 H697 0.930 . S
C681 O664 1.264 . S
C681 O665 1.254 . S
C682 Eu618 2.848 . S
C682 O662 1.257 . S
C682 O667 1.249 . S
C682 C675 1.492 . S
C683 H648 0.931 . S
C683 C661 1.420 . S
C683 C684 1.351 . S
C684 H646 0.930 . S
C684 C652 1.423 . S
C684 C683 1.351 . S
C685 O669 1.276 . S
C685 O672 1.235 . S
C686 C687 1.393 . S
C686 C690 1.395 . S
C686 C693 1.492 . S
C687 C686 1.393 . S
C687 C688 1.392 . S
C687 H698 0.930 . S
C688 C687 1.392 . S
C688 C689 1.386 . S
C689 C688 1.386 . S
C689 C691 1.395 . S
C689 H699 0.930 . S
C690 C686 1.395 . S
C690 C691 1.379 . S
C690 H700 0.930 . S
C691 C689 1.395 . S
C691 C690 1.379 . S
C691 H701 0.930 . S
C692 O670 1.264 . S
C692 O671 1.254 . S
C693 Eu629 2.848 . S
C693 O668 1.257 . S
C693 O673 1.249 . S
C693 C686 1.492 . S
H694 C677 0.930 . S
H695 C678 0.930 . S
H696 C679 0.930 . S
H697 C680 0.930 . S
H698 C687 0.930 . S
H699 C689 0.930 . S
H700 C690 0.930 . S
H701 C691 0.930 . S
Eu702 N733 2.657 . S
Eu702 N740 2.609 . S
Eu702 O746 2.558 . S
Eu702 O747 2.612 . S
Eu702 O749 2.339 . S
Eu702 O750 2.563 . S
Eu702 O751 2.419 . S
Eu702 O753 2.380 . S
Eu702 O754 2.432 . S
Eu702 C766 2.848 . S
C703 C706 1.429 . S
C703 C707 1.411 . S
C703 N710 1.377 . S
C704 C706 1.420 . S
C704 C708 1.423 . S
C704 C716 1.392 . S
C705 C707 1.420 . S
C705 C708 1.351 . S
C705 H728 0.931 . S
C706 C703 1.429 . S
C706 C704 1.420 . S
C706 N714 1.362 . S
C707 C703 1.411 . S
C707 C705 1.420 . S
C707 C712 1.395 . S
C708 C704 1.423 . S
C708 C705 1.351 . S
C708 H720 0.930 . S
C709 C711 1.400 . S
C709 C712 1.386 . S
C709 H721 0.930 . S
N710 C703 1.377 . S
N710 C711 1.321 . S
N710 Eu713 2.609 . S
C711 C709 1.400 . S
C711 N710 1.321 . S
C711 H718 0.930 . S
C712 C707 1.395 . S
C712 C709 1.386 . S
C712 H731 0.930 . S
Eu713 N710 2.609 . S
Eu713 N714 2.657 . S
Eu713 O747 2.380 . S
Eu713 O748 2.432 . S
Eu713 O752 2.558 . S
Eu713 O753 2.612 . S
Eu713 O755 2.339 . S
Eu713 O756 2.563 . S
Eu713 O757 2.419 . S
Eu713 C777 2.848 . S
N714 C706 1.362 . S
N714 Eu713 2.657 . S
N714 C715 1.334 . S
C715 N714 1.334 . S
C715 C717 1.413 . S
C715 H722 0.929 . S
C716 C704 1.392 . S
C716 C717 1.367 . S
C716 H724 0.930 . S
C717 C715 1.413 . S
C717 C716 1.367 . S
C717 H719 0.930 . S
H718 C711 0.930 . S
H719 C717 0.930 . S
H720 C708 0.930 . S
H721 C709 0.930 . S
H722 C715 0.929 . S
H723 C737 0.930 . S
H724 C716 0.930 . S
H725 C743 0.930 . S
H726 C734 0.929 . S
H727 C741 0.930 . S
H728 C705 0.931 . S
H729 C735 0.930 . S
H730 C768 0.930 . S
H731 C712 0.930 . S
H732 C767 0.931 . S
N733 Eu702 2.657 . S
N733 C734 1.334 . S
N733 C738 1.362 . S
C734 H726 0.929 . S
C734 N733 1.334 . S
C734 C737 1.413 . S
C735 H729 0.930 . S
C735 C736 1.392 . S
C735 C737 1.367 . S
C736 C735 1.392 . S
C736 C738 1.420 . S
C736 C768 1.423 . S
C737 H723 0.930 . S
C737 C734 1.413 . S
C737 C735 1.367 . S
C738 N733 1.362 . S
C738 C736 1.420 . S
C738 C742 1.429 . S
H739 C744 0.930 . S
N740 Eu702 2.609 . S
N740 C742 1.377 . S
N740 C743 1.321 . S
C741 H727 0.930 . S
C741 C743 1.400 . S
C741 C744 1.386 . S
C742 C738 1.429 . S
C742 N740 1.377 . S
C742 C745 1.411 . S
C743 H725 0.930 . S
C743 N740 1.321 . S
C743 C741 1.400 . S
C744 H739 0.930 . S
C744 C741 1.386 . S
C744 C745 1.395 . S
C745 C742 1.411 . S
C745 C744 1.395 . S
C745 C767 1.420 . S
O746 Eu702 2.558 . S
O746 C766 1.257 . S
O747 Eu702 2.612 . S
O747 Eu713 2.380 . S
O747 C758 1.276 . S
O748 Eu713 2.432 . S
O748 C765 1.264 . S
O749 Eu702 2.339 . S
O749 C765 1.254 . S
O750 Eu702 2.563 . S
O750 C758 1.235 . S
O751 Eu702 2.419 . S
O751 C766 1.249 . S
O752 Eu713 2.558 . S
O752 C777 1.257 . S
O753 Eu702 2.380 . S
O753 Eu713 2.612 . S
O753 C769 1.276 . S
O754 Eu702 2.432 . S
O754 C776 1.264 . S
O755 Eu713 2.339 . S
O755 C776 1.254 . S
O756 Eu713 2.563 . S
O756 C769 1.235 . S
O757 Eu713 2.419 . S
O757 C777 1.249 . S
C758 O747 1.276 . S
C758 O750 1.235 . S
C759 C761 1.393 . S
C759 C763 1.395 . S
C759 C766 1.492 . S
C760 C761 1.392 . S
C760 C762 1.386 . S
C761 C759 1.393 . S
C761 C760 1.392 . S
C761 H778 0.930 . S
C762 C760 1.386 . S
C762 C764 1.395 . S
C762 H779 0.930 . S
C763 C759 1.395 . S
C763 C764 1.379 . S
C763 H780 0.930 . S
C764 C762 1.395 . S
C764 C763 1.379 . S
C764 H781 0.930 . S
C765 O748 1.264 . S
C765 O749 1.254 . S
C766 Eu702 2.848 . S
C766 O746 1.257 . S
C766 O751 1.249 . S
C766 C759 1.492 . S
C767 H732 0.931 . S
C767 C745 1.420 . S
C767 C768 1.351 . S
C768 H730 0.930 . S
C768 C736 1.423 . S
C768 C767 1.351 . S
C769 O753 1.276 . S
C769 O756 1.235 . S
C770 C771 1.393 . S
C770 C774 1.395 . S
C770 C777 1.492 . S
C771 C770 1.393 . S
C771 C772 1.392 . S
C771 H782 0.930 . S
C772 C771 1.392 . S
C772 C773 1.386 . S
C773 C772 1.386 . S
C773 C775 1.395 . S
C773 H783 0.930 . S
C774 C770 1.395 . S
C774 C775 1.379 . S
C774 H784 0.930 . S
C775 C773 1.395 . S
C775 C774 1.379 . S
C775 H785 0.930 . S
C776 O754 1.264 . S
C776 O755 1.254 . S
C777 Eu713 2.848 . S
C777 O752 1.257 . S
C777 O757 1.249 . S
C777 C770 1.492 . S
H778 C761 0.930 . S
H779 C762 0.930 . S
H780 C763 0.930 . S
H781 C764 0.930 . S
H782 C771 0.930 . S
H783 C773 0.930 . S
H784 C774 0.930 . S
H785 C775 0.930 . S
Eu786 N817 2.657 . S
Eu786 N824 2.609 . S
Eu786 O830 2.558 . S
Eu786 O831 2.612 . S
Eu786 O833 2.339 . S
Eu786 O834 2.563 . S
Eu786 O835 2.419 . S
Eu786 O837 2.380 . S
Eu786 O838 2.432 . S
Eu786 C850 2.848 . S
C787 C790 1.429 . S
C787 C791 1.411 . S
C787 N794 1.377 . S
C788 C790 1.420 . S
C788 C792 1.423 . S
C788 C800 1.392 . S
C789 C791 1.420 . S
C789 C792 1.351 . S
C789 H812 0.931 . S
C790 C787 1.429 . S
C790 C788 1.420 . S
C790 N798 1.362 . S
C791 C787 1.411 . S
C791 C789 1.420 . S
C791 C796 1.395 . S
C792 C788 1.423 . S
C792 C789 1.351 . S
C792 H804 0.930 . S
C793 C795 1.400 . S
C793 C796 1.386 . S
C793 H805 0.930 . S
N794 C787 1.377 . S
N794 C795 1.321 . S
N794 Eu797 2.609 . S
C795 C793 1.400 . S
C795 N794 1.321 . S
C795 H802 0.930 . S
C796 C791 1.395 . S
C796 C793 1.386 . S
C796 H815 0.930 . S
Eu797 N794 2.609 . S
Eu797 N798 2.657 . S
Eu797 O831 2.380 . S
Eu797 O832 2.432 . S
Eu797 O836 2.558 . S
Eu797 O837 2.612 . S
Eu797 O839 2.339 . S
Eu797 O840 2.563 . S
Eu797 O841 2.419 . S
Eu797 C861 2.848 . S
N798 C790 1.362 . S
N798 Eu797 2.657 . S
N798 C799 1.334 . S
C799 N798 1.334 . S
C799 C801 1.413 . S
C799 H806 0.929 . S
C800 C788 1.392 . S
C800 C801 1.367 . S
C800 H808 0.930 . S
C801 C799 1.413 . S
C801 C800 1.367 . S
C801 H803 0.930 . S
H802 C795 0.930 . S
H803 C801 0.930 . S
H804 C792 0.930 . S
H805 C793 0.930 . S
H806 C799 0.929 . S
H807 C821 0.930 . S
H808 C800 0.930 . S
H809 C827 0.930 . S
H810 C818 0.929 . S
H811 C825 0.930 . S
H812 C789 0.931 . S
H813 C819 0.930 . S
H814 C852 0.930 . S
H815 C796 0.930 . S
H816 C851 0.931 . S
N817 Eu786 2.657 . S
N817 C818 1.334 . S
N817 C822 1.362 . S
C818 H810 0.929 . S
C818 N817 1.334 . S
C818 C821 1.413 . S
C819 H813 0.930 . S
C819 C820 1.392 . S
C819 C821 1.367 . S
C820 C819 1.392 . S
C820 C822 1.420 . S
C820 C852 1.423 . S
C821 H807 0.930 . S
C821 C818 1.413 . S
C821 C819 1.367 . S
C822 N817 1.362 . S
C822 C820 1.420 . S
C822 C826 1.429 . S
H823 C828 0.930 . S
N824 Eu786 2.609 . S
N824 C826 1.377 . S
N824 C827 1.321 . S
C825 H811 0.930 . S
C825 C827 1.400 . S
C825 C828 1.386 . S
C826 C822 1.429 . S
C826 N824 1.377 . S
C826 C829 1.411 . S
C827 H809 0.930 . S
C827 N824 1.321 . S
C827 C825 1.400 . S
C828 H823 0.930 . S
C828 C825 1.386 . S
C828 C829 1.395 . S
C829 C826 1.411 . S
C829 C828 1.395 . S
C829 C851 1.420 . S
O830 Eu786 2.558 . S
O830 C850 1.257 . S
O831 Eu786 2.612 . S
O831 Eu797 2.380 . S
O831 C842 1.276 . S
O832 Eu797 2.432 . S
O832 C849 1.264 . S
O833 Eu786 2.339 . S
O833 C849 1.254 . S
O834 Eu786 2.563 . S
O834 C842 1.235 . S
O835 Eu786 2.419 . S
O835 C850 1.249 . S
O836 Eu797 2.558 . S
O836 C861 1.257 . S
O837 Eu786 2.380 . S
O837 Eu797 2.612 . S
O837 C853 1.276 . S
O838 Eu786 2.432 . S
O838 C860 1.264 . S
O839 Eu797 2.339 . S
O839 C860 1.254 . S
O840 Eu797 2.563 . S
O840 C853 1.235 . S
O841 Eu797 2.419 . S
O841 C861 1.249 . S
C842 O831 1.276 . S
C842 O834 1.235 . S
C843 C845 1.393 . S
C843 C847 1.395 . S
C843 C850 1.492 . S
C844 C845 1.392 . S
C844 C846 1.386 . S
C845 C843 1.393 . S
C845 C844 1.392 . S
C845 H862 0.930 . S
C846 C844 1.386 . S
C846 C848 1.395 . S
C846 H863 0.930 . S
C847 C843 1.395 . S
C847 C848 1.379 . S
C847 H864 0.930 . S
C848 C846 1.395 . S
C848 C847 1.379 . S
C848 H865 0.930 . S
C849 O832 1.264 . S
C849 O833 1.254 . S
C850 Eu786 2.848 . S
C850 O830 1.257 . S
C850 O835 1.249 . S
C850 C843 1.492 . S
C851 H816 0.931 . S
C851 C829 1.420 . S
C851 C852 1.351 . S
C852 H814 0.930 . S
C852 C820 1.423 . S
C852 C851 1.351 . S
C853 O837 1.276 . S
C853 O840 1.235 . S
C854 C855 1.393 . S
C854 C858 1.395 . S
C854 C861 1.492 . S
C855 C854 1.393 . S
C855 C856 1.392 . S
C855 H866 0.930 . S
C856 C855 1.392 . S
C856 C857 1.386 . S
C857 C856 1.386 . S
C857 C859 1.395 . S
C857 H867 0.930 . S
C858 C854 1.395 . S
C858 C859 1.379 . S
C858 H868 0.930 . S
C859 C857 1.395 . S
C859 C858 1.379 . S
C859 H869 0.930 . S
C860 O838 1.264 . S
C860 O839 1.254 . S
C861 Eu797 2.848 . S
C861 O836 1.257 . S
C861 O841 1.249 . S
C861 C854 1.492 . S
H862 C845 0.930 . S
H863 C846 0.930 . S
H864 C847 0.930 . S
H865 C848 0.930 . S
H866 C855 0.930 . S
H867 C857 0.930 . S
H868 C858 0.930 . S
H869 C859 0.930 . S
Eu870 N901 2.657 . S
Eu870 N908 2.609 . S
Eu870 O914 2.558 . S
Eu870 O915 2.612 . S
Eu870 O917 2.339 . S
Eu870 O918 2.563 . S
Eu870 O919 2.419 . S
Eu870 O921 2.380 . S
Eu870 O922 2.432 . S
Eu870 C934 2.848 . S
C871 C874 1.429 . S
C871 C875 1.411 . S
C871 N878 1.377 . S
C872 C874 1.420 . S
C872 C876 1.423 . S
C872 C884 1.392 . S
C873 C875 1.420 . S
C873 C876 1.351 . S
C873 H896 0.931 . S
C874 C871 1.429 . S
C874 C872 1.420 . S
C874 N882 1.362 . S
C875 C871 1.411 . S
C875 C873 1.420 . S
C875 C880 1.395 . S
C876 C872 1.423 . S
C876 C873 1.351 . S
C876 H888 0.930 . S
C877 C879 1.400 . S
C877 C880 1.386 . S
C877 H889 0.930 . S
N878 C871 1.377 . S
N878 C879 1.321 . S
N878 Eu881 2.609 . S
C879 C877 1.400 . S
C879 N878 1.321 . S
C879 H886 0.930 . S
C880 C875 1.395 . S
C880 C877 1.386 . S
C880 H899 0.930 . S
Eu881 N878 2.609 . S
Eu881 N882 2.657 . S
Eu881 O915 2.380 . S
Eu881 O916 2.432 . S
Eu881 O920 2.558 . S
Eu881 O921 2.612 . S
Eu881 O923 2.339 . S
Eu881 O924 2.563 . S
Eu881 O925 2.419 . S
Eu881 C945 2.848 . S
N882 C874 1.362 . S
N882 Eu881 2.657 . S
N882 C883 1.334 . S
C883 N882 1.334 . S
C883 C885 1.413 . S
C883 H890 0.929 . S
C884 C872 1.392 . S
C884 C885 1.367 . S
C884 H892 0.930 . S
C885 C883 1.413 . S
C885 C884 1.367 . S
C885 H887 0.930 . S
H886 C879 0.930 . S
H887 C885 0.930 . S
H888 C876 0.930 . S
H889 C877 0.930 . S
H890 C883 0.929 . S
H891 C905 0.930 . S
H892 C884 0.930 . S
H893 C911 0.930 . S
H894 C902 0.929 . S
H895 C909 0.930 . S
H896 C873 0.931 . S
H897 C903 0.930 . S
H898 C936 0.930 . S
H899 C880 0.930 . S
H900 C935 0.931 . S
N901 Eu870 2.657 . S
N901 C902 1.334 . S
N901 C906 1.362 . S
C902 H894 0.929 . S
C902 N901 1.334 . S
C902 C905 1.413 . S
C903 H897 0.930 . S
C903 C904 1.392 . S
C903 C905 1.367 . S
C904 C903 1.392 . S
C904 C906 1.420 . S
C904 C936 1.423 . S
C905 H891 0.930 . S
C905 C902 1.413 . S
C905 C903 1.367 . S
C906 N901 1.362 . S
C906 C904 1.420 . S
C906 C910 1.429 . S
H907 C912 0.930 . S
N908 Eu870 2.609 . S
N908 C910 1.377 . S
N908 C911 1.321 . S
C909 H895 0.930 . S
C909 C911 1.400 . S
C909 C912 1.386 . S
C910 C906 1.429 . S
C910 N908 1.377 . S
C910 C913 1.411 . S
C911 H893 0.930 . S
C911 N908 1.321 . S
C911 C909 1.400 . S
C912 H907 0.930 . S
C912 C909 1.386 . S
C912 C913 1.395 . S
C913 C910 1.411 . S
C913 C912 1.395 . S
C913 C935 1.420 . S
O914 Eu870 2.558 . S
O914 C934 1.257 . S
O915 Eu870 2.612 . S
O915 Eu881 2.380 . S
O915 C926 1.276 . S
O916 Eu881 2.432 . S
O916 C933 1.264 . S
O917 Eu870 2.339 . S
O917 C933 1.254 . S
O918 Eu870 2.563 . S
O918 C926 1.235 . S
O919 Eu870 2.419 . S
O919 C934 1.249 . S
O920 Eu881 2.558 . S
O920 C945 1.257 . S
O921 Eu870 2.380 . S
O921 Eu881 2.612 . S
O921 C937 1.276 . S
O922 Eu870 2.432 . S
O922 C944 1.264 . S
O923 Eu881 2.339 . S
O923 C944 1.254 . S
O924 Eu881 2.563 . S
O924 C937 1.235 . S
O925 Eu881 2.419 . S
O925 C945 1.249 . S
C926 O915 1.276 . S
C926 O918 1.235 . S
C927 C929 1.393 . S
C927 C931 1.395 . S
C927 C934 1.492 . S
C928 C929 1.392 . S
C928 C930 1.386 . S
C929 C927 1.393 . S
C929 C928 1.392 . S
C929 H946 0.930 . S
C930 C928 1.386 . S
C930 C932 1.395 . S
C930 H947 0.930 . S
C931 C927 1.395 . S
C931 C932 1.379 . S
C931 H948 0.930 . S
C932 C930 1.395 . S
C932 C931 1.379 . S
C932 H949 0.930 . S
C933 O916 1.264 . S
C933 O917 1.254 . S
C934 Eu870 2.848 . S
C934 O914 1.257 . S
C934 O919 1.249 . S
C934 C927 1.492 . S
C935 H900 0.931 . S
C935 C913 1.420 . S
C935 C936 1.351 . S
C936 H898 0.930 . S
C936 C904 1.423 . S
C936 C935 1.351 . S
C937 O921 1.276 . S
C937 O924 1.235 . S
C938 C939 1.393 . S
C938 C942 1.395 . S
C938 C945 1.492 . S
C939 C938 1.393 . S
C939 C940 1.392 . S
C939 H950 0.930 . S
C940 C939 1.392 . S
C940 C941 1.386 . S
C941 C940 1.386 . S
C941 C943 1.395 . S
C941 H951 0.930 . S
C942 C938 1.395 . S
C942 C943 1.379 . S
C942 H952 0.930 . S
C943 C941 1.395 . S
C943 C942 1.379 . S
C943 H953 0.930 . S
C944 O922 1.264 . S
C944 O923 1.254 . S
C945 Eu881 2.848 . S
C945 O920 1.257 . S
C945 O925 1.249 . S
C945 C938 1.492 . S
H946 C929 0.930 . S
H947 C930 0.930 . S
H948 C931 0.930 . S
H949 C932 0.930 . S
H950 C939 0.930 . S
H951 C941 0.930 . S
H952 C942 0.930 . S
H953 C943 0.930 . S
H954 C972 0.951 . S
H955 C974 0.951 . S
H956 C976 0.950 . S
H957 C977 0.950 . S
H958 C979 0.950 . S
H959 C982 0.950 . S
H960 C983 0.950 . S
H961 C985 0.950 . S
H962 C986 0.950 . S
H963 C987 0.951 . S
H964 C989 0.951 . S
H965 C991 0.950 . S
H966 C992 0.950 . S
H967 C994 0.950 . S
H968 C997 0.950 . S
H969 C998 0.950 . S
H970 C1000 0.950 . S
H971 C1001 0.950 . S
C972 H954 0.951 . S
C972 C973 1.366 . S
C972 C974 1.388 . S
C973 C972 1.366 . S
C973 C977 1.385 . S
C974 H955 0.951 . S
C974 C972 1.388 . S
C974 C975 1.366 . S
C975 C974 1.366 . S
C975 C976 1.414 . S
C975 C978 1.499 . S
C976 H956 0.950 . S
C976 C975 1.414 . S
C976 C977 1.374 . S
C977 H957 0.950 . S
C977 C973 1.385 . S
C977 C976 1.374 . S
C978 C975 1.499 . S
C978 C979 1.373 . S
C978 C980 1.389 . S
C979 H958 0.950 . S
C979 C978 1.373 . S
C979 C995 1.377 . S
C980 C978 1.389 . S
C980 C981 1.524 . S
C980 C994 1.377 . S
C981 C980 1.524 . S
C981 C982 1.397 . S
C981 C986 1.363 . S
C982 H959 0.950 . S
C982 C981 1.397 . S
C982 C983 1.334 . S
C983 H960 0.950 . S
C983 C982 1.334 . S
C983 C984 1.287 . S
C984 C983 1.287 . S
C984 C985 1.524 . S
C984 H1003 0.913 . S
C985 H961 0.950 . S
C985 C984 1.524 . S
C985 C986 1.415 . S
C986 H962 0.950 . S
C986 C981 1.363 . S
C986 C985 1.415 . S
C987 H963 0.951 . S
C987 C988 1.366 . S
C987 C989 1.388 . S
C988 C987 1.366 . S
C988 C992 1.385 . S
C989 H964 0.951 . S
C989 C987 1.388 . S
C989 C990 1.366 . S
C990 C989 1.366 . S
C990 C991 1.414 . S
C990 C993 1.499 . S
C991 H965 0.950 . S
C991 C990 1.414 . S
C991 C992 1.374 . S
C992 H966 0.950 . S
C992 C988 1.385 . S
C992 C991 1.374 . S
C993 C990 1.499 . S
C993 C994 1.373 . S
C993 C995 1.389 . S
C994 H967 0.950 . S
C994 C980 1.377 . S
C994 C993 1.373 . S
C995 C979 1.377 . S
C995 C993 1.389 . S
C995 C996 1.524 . S
C996 C995 1.524 . S
C996 C997 1.397 . S
C996 C1001 1.363 . S
C997 H968 0.950 . S
C997 C996 1.397 . S
C997 C998 1.334 . S
C998 H969 0.950 . S
C998 C997 1.334 . S
C998 C999 1.287 . S
C999 C998 1.287 . S
C999 C1000 1.524 . S
C999 H1002 0.999 . S
C1000 H970 0.950 . S
C1000 C999 1.524 . S
C1000 C1001 1.415 . S
C1001 H971 0.950 . S
C1001 C996 1.363 . S
C1001 C1000 1.415 . S
H1002 C999 0.999 . S
H1003 C984 0.913 . S
H1004 C1022 0.951 . S
H1005 C1024 0.951 . S
H1006 C1026 0.950 . S
H1007 C1027 0.950 . S
H1008 C1029 0.950 . S
H1009 C1032 0.950 . S
H1010 C1033 0.950 . S
H1011 C1035 0.950 . S
H1012 C1036 0.950 . S
H1013 C1037 0.951 . S
H1014 C1039 0.951 . S
H1015 C1041 0.950 . S
H1016 C1042 0.950 . S
H1017 C1044 0.950 . S
H1018 C1047 0.950 . S
H1019 C1048 0.950 1_556 S
H1020 C1050 0.950 . S
H1021 C1051 0.950 . S
C1022 H1004 0.951 . S
C1022 C1023 1.366 . S
C1022 C1024 1.388 . S
C1023 C1022 1.366 . S
C1023 C1027 1.385 . S
C1024 H1005 0.951 . S
C1024 C1022 1.388 . S
C1024 C1025 1.366 . S
C1025 C1024 1.366 . S
C1025 C1026 1.414 . S
C1025 C1028 1.499 . S
C1026 H1006 0.950 . S
C1026 C1025 1.414 . S
C1026 C1027 1.374 . S
C1027 H1007 0.950 . S
C1027 C1023 1.385 . S
C1027 C1026 1.374 . S
C1028 C1025 1.499 . S
C1028 C1029 1.373 . S
C1028 C1030 1.389 . S
C1029 H1008 0.950 . S
C1029 C1028 1.373 . S
C1029 C1045 1.377 . S
C1030 C1028 1.389 . S
C1030 C1031 1.524 . S
C1030 C1044 1.377 . S
C1031 C1030 1.524 . S
C1031 C1032 1.397 . S
C1031 C1036 1.363 . S
C1032 H1009 0.950 . S
C1032 C1031 1.397 . S
C1032 C1033 1.334 . S
C1033 H1010 0.950 . S
C1033 C1032 1.334 . S
C1033 C1034 1.287 . S
C1034 C1033 1.287 . S
C1034 C1035 1.524 . S
C1034 H1053 0.913 . S
C1035 H1011 0.950 . S
C1035 C1034 1.524 . S
C1035 C1036 1.415 . S
C1036 H1012 0.950 . S
C1036 C1031 1.363 . S
C1036 C1035 1.415 . S
C1037 H1013 0.951 . S
C1037 C1038 1.366 . S
C1037 C1039 1.388 . S
C1038 C1037 1.366 . S
C1038 C1042 1.385 . S
C1039 H1014 0.951 . S
C1039 C1037 1.388 . S
C1039 C1040 1.366 . S
C1040 C1039 1.366 . S
C1040 C1041 1.414 . S
C1040 C1043 1.499 . S
C1041 H1015 0.950 . S
C1041 C1040 1.414 . S
C1041 C1042 1.374 . S
C1042 H1016 0.950 . S
C1042 C1038 1.385 . S
C1042 C1041 1.374 . S
C1043 C1040 1.499 . S
C1043 C1044 1.373 . S
C1043 C1045 1.389 . S
C1044 H1017 0.950 . S
C1044 C1030 1.377 . S
C1044 C1043 1.373 . S
C1045 C1029 1.377 . S
C1045 C1043 1.389 . S
C1045 C1046 1.524 . S
C1046 C1045 1.524 . S
C1046 C1047 1.397 . S
C1046 C1051 1.363 . S
C1047 H1018 0.950 . S
C1047 C1046 1.397 . S
C1047 C1048 1.334 . S
C1048 H1019 0.950 1_554 S
C1048 C1047 1.334 . S
C1048 C1049 1.287 . S
C1049 C1048 1.287 . S
C1049 C1050 1.524 . S
C1049 H1052 0.999 . S
C1050 H1020 0.950 . S
C1050 C1049 1.524 . S
C1050 C1051 1.415 . S
C1051 H1021 0.950 . S
C1051 C1046 1.363 . S
C1051 C1050 1.415 . S
H1052 C1049 0.999 . S
H1053 C1034 0.913 . S
H1054 C1072 0.951 . S
H1055 C1074 0.951 . S
H1056 C1076 0.950 . S
H1057 C1077 0.950 . S
H1058 C1079 0.950 . S
H1059 C1082 0.950 . S
H1060 C1083 0.950 . S
H1061 C1085 0.950 . S
H1062 C1086 0.950 . S
H1063 C1087 0.951 . S
H1064 C1089 0.951 . S
H1065 C1091 0.950 . S
H1066 C1092 0.950 . S
H1067 C1094 0.950 . S
H1068 C1097 0.950 . S
H1069 C1098 0.950 . S
H1070 C1100 0.950 . S
H1071 C1101 0.950 1_554 S
C1072 H1054 0.951 . S
C1072 C1073 1.366 . S
C1072 C1074 1.388 . S
C1073 C1072 1.366 . S
C1073 C1077 1.385 . S
C1074 H1055 0.951 . S
C1074 C1072 1.388 . S
C1074 C1075 1.366 . S
C1075 C1074 1.366 . S
C1075 C1076 1.414 . S
C1075 C1078 1.499 . S
C1076 H1056 0.950 . S
C1076 C1075 1.414 . S
C1076 C1077 1.374 . S
C1077 H1057 0.950 . S
C1077 C1073 1.385 . S
C1077 C1076 1.374 . S
C1078 C1075 1.499 . S
C1078 C1079 1.373 . S
C1078 C1080 1.389 . S
C1079 H1058 0.950 . S
C1079 C1078 1.373 . S
C1079 C1095 1.377 . S
C1080 C1078 1.389 . S
C1080 C1081 1.524 . S
C1080 C1094 1.377 . S
C1081 C1080 1.524 . S
C1081 C1082 1.397 . S
C1081 C1086 1.363 . S
C1082 H1059 0.950 . S
C1082 C1081 1.397 . S
C1082 C1083 1.334 . S
C1083 H1060 0.950 . S
C1083 C1082 1.334 . S
C1083 C1084 1.287 . S
C1084 C1083 1.287 . S
C1084 C1085 1.524 . S
C1084 H1103 0.913 . S
C1085 H1061 0.950 . S
C1085 C1084 1.524 . S
C1085 C1086 1.415 . S
C1086 H1062 0.950 . S
C1086 C1081 1.363 . S
C1086 C1085 1.415 . S
C1087 H1063 0.951 . S
C1087 C1088 1.366 . S
C1087 C1089 1.388 . S
C1088 C1087 1.366 . S
C1088 C1092 1.385 . S
C1089 H1064 0.951 . S
C1089 C1087 1.388 . S
C1089 C1090 1.366 . S
C1090 C1089 1.366 . S
C1090 C1091 1.414 . S
C1090 C1093 1.499 . S
C1091 H1065 0.950 . S
C1091 C1090 1.414 . S
C1091 C1092 1.374 . S
C1092 H1066 0.950 . S
C1092 C1088 1.385 . S
C1092 C1091 1.374 . S
C1093 C1090 1.499 . S
C1093 C1094 1.373 . S
C1093 C1095 1.389 . S
C1094 H1067 0.950 . S
C1094 C1080 1.377 . S
C1094 C1093 1.373 . S
C1095 C1079 1.377 . S
C1095 C1093 1.389 . S
C1095 C1096 1.524 . S
C1096 C1095 1.524 . S
C1096 C1097 1.397 . S
C1096 C1101 1.363 1_554 S
C1097 H1068 0.950 . S
C1097 C1096 1.397 . S
C1097 C1098 1.334 1_554 S
C1098 H1069 0.950 . S
C1098 C1097 1.334 1_556 S
C1098 C1099 1.287 . S
C1099 C1098 1.287 . S
C1099 C1100 1.524 . S
C1099 H1102 0.999 . S
C1100 H1070 0.950 . S
C1100 C1099 1.524 . S
C1100 C1101 1.415 . S
C1101 H1071 0.950 1_556 S
C1101 C1096 1.363 1_556 S
C1101 C1100 1.415 . S
H1102 C1099 0.999 . S
H1103 C1084 0.913 . S
H1104 C1122 0.951 . S
H1105 C1124 0.951 . S
H1106 C1126 0.950 . S
H1107 C1127 0.950 . S
H1108 C1129 0.950 . S
H1109 C1132 0.950 . S
H1110 C1133 0.950 . S
H1111 C1135 0.950 . S
H1112 C1136 0.950 . S
H1113 C1137 0.951 . S
H1114 C1139 0.951 . S
H1115 C1141 0.950 . S
H1116 C1142 0.950 . S
H1117 C1144 0.950 . S
H1118 C1147 0.950 . S
H1119 C1148 0.949 . S
H1120 C1150 0.950 . S
H1121 C1151 0.950 . S
C1122 H1104 0.951 . S
C1122 C1123 1.366 . S
C1122 C1124 1.388 . S
C1123 C1122 1.366 . S
C1123 C1127 1.385 . S
C1124 H1105 0.951 . S
C1124 C1122 1.388 . S
C1124 C1125 1.366 . S
C1125 C1124 1.366 . S
C1125 C1126 1.414 . S
C1125 C1128 1.499 . S
C1126 H1106 0.950 . S
C1126 C1125 1.414 . S
C1126 C1127 1.374 . S
C1127 H1107 0.950 . S
C1127 C1123 1.385 . S
C1127 C1126 1.374 . S
C1128 C1125 1.499 . S
C1128 C1129 1.373 . S
C1128 C1130 1.389 . S
C1129 H1108 0.950 . S
C1129 C1128 1.373 . S
C1129 C1145 1.377 . S
C1130 C1128 1.389 . S
C1130 C1131 1.524 . S
C1130 C1144 1.377 . S
C1131 C1130 1.524 . S
C1131 C1132 1.397 . S
C1131 C1136 1.363 . S
C1132 H1109 0.950 . S
C1132 C1131 1.397 . S
C1132 C1133 1.334 . S
C1133 H1110 0.950 . S
C1133 C1132 1.334 . S
C1133 C1134 1.287 . S
C1134 C1133 1.287 . S
C1134 C1135 1.524 . S
C1134 H1153 0.913 . S
C1135 H1111 0.950 . S
C1135 C1134 1.524 . S
C1135 C1136 1.415 . S
C1136 H1112 0.950 . S
C1136 C1131 1.363 . S
C1136 C1135 1.415 . S
C1137 H1113 0.951 . S
C1137 C1138 1.366 1_554 S
C1137 C1139 1.388 . S
C1138 C1137 1.366 1_556 S
C1138 C1142 1.385 . S
C1139 H1114 0.951 . S
C1139 C1137 1.388 . S
C1139 C1140 1.366 1_554 S
C1140 C1139 1.366 1_556 S
C1140 C1141 1.414 . S
C1140 C1143 1.499 . S
C1141 H1115 0.950 . S
C1141 C1140 1.414 . S
C1141 C1142 1.374 . S
C1142 H1116 0.950 . S
C1142 C1138 1.385 . S
C1142 C1141 1.374 . S
C1143 C1140 1.499 . S
C1143 C1144 1.373 . S
C1143 C1145 1.389 . S
C1144 H1117 0.950 . S
C1144 C1130 1.377 . S
C1144 C1143 1.373 . S
C1145 C1129 1.377 . S
C1145 C1143 1.389 . S
C1145 C1146 1.526 1_556 S
C1146 C1145 1.526 1_554 S
C1146 C1147 1.398 1_554 S
C1146 C1151 1.360 . S
C1147 H1118 0.950 . S
C1147 C1146 1.398 1_556 S
C1147 C1148 1.334 1_556 S
C1148 H1119 0.949 . S
C1148 C1147 1.334 1_554 S
C1148 C1149 1.287 . S
C1149 C1148 1.287 . S
C1149 C1150 1.524 . S
C1149 H1152 0.999 . S
C1150 H1120 0.950 . S
C1150 C1149 1.524 . S
C1150 C1151 1.415 . S
C1151 H1121 0.950 . S
C1151 C1146 1.360 . S
C1151 C1150 1.415 . S
H1152 C1149 0.999 . S
H1153 C1134 0.913 . S
H1154 C1172 0.951 . S
H1155 C1174 0.951 . S
H1156 C1176 0.950 . S
H1157 C1177 0.950 . S
H1158 C1179 0.950 . S
H1159 C1182 0.950 . S
H1160 C1183 0.950 . S
H1161 C1185 0.950 . S
H1162 C1186 0.950 . S
H1163 C1187 0.951 . S
H1164 C1189 0.951 . S
H1165 C1191 0.950 . S
H1166 C1192 0.950 . S
H1167 C1194 0.950 . S
H1168 C1197 0.950 1_556 S
H1169 C1198 0.950 . S
H1170 C1200 0.950 . S
H1171 C1201 0.950 . S
C1172 H1154 0.951 . S
C1172 C1173 1.366 . S
C1172 C1174 1.388 . S
C1173 C1172 1.366 . S
C1173 C1177 1.385 . S
C1174 H1155 0.951 . S
C1174 C1172 1.388 . S
C1174 C1175 1.366 . S
C1175 C1174 1.366 . S
C1175 C1176 1.414 . S
C1175 C1178 1.499 . S
C1176 H1156 0.950 . S
C1176 C1175 1.414 . S
C1176 C1177 1.374 . S
C1177 H1157 0.950 . S
C1177 C1173 1.385 . S
C1177 C1176 1.374 . S
C1178 C1175 1.499 . S
C1178 C1179 1.373 . S
C1178 C1180 1.389 . S
C1179 H1158 0.950 . S
C1179 C1178 1.373 . S
C1179 C1195 1.377 . S
C1180 C1178 1.389 . S
C1180 C1181 1.524 . S
C1180 C1194 1.377 . S
C1181 C1180 1.524 . S
C1181 C1182 1.397 . S
C1181 C1186 1.363 . S
C1182 H1159 0.950 . S
C1182 C1181 1.397 . S
C1182 C1183 1.334 . S
C1183 H1160 0.950 . S
C1183 C1182 1.334 . S
C1183 C1184 1.287 . S
C1184 C1183 1.287 . S
C1184 C1185 1.524 . S
C1184 H1203 0.913 . S
C1185 H1161 0.950 . S
C1185 C1184 1.524 . S
C1185 C1186 1.415 . S
C1186 H1162 0.950 . S
C1186 C1181 1.363 . S
C1186 C1185 1.415 . S
C1187 H1163 0.951 . S
C1187 C1188 1.366 1_554 S
C1187 C1189 1.388 . S
C1188 C1187 1.366 1_556 S
C1188 C1192 1.385 . S
C1189 H1164 0.951 . S
C1189 C1187 1.388 . S
C1189 C1190 1.366 1_554 S
C1190 C1189 1.366 1_556 S
C1190 C1191 1.414 . S
C1190 C1193 1.499 . S
C1191 H1165 0.950 . S
C1191 C1190 1.414 . S
C1191 C1192 1.374 . S
C1192 H1166 0.950 . S
C1192 C1188 1.385 . S
C1192 C1191 1.374 . S
C1193 C1190 1.499 . S
C1193 C1194 1.373 . S
C1193 C1195 1.389 . S
C1194 H1167 0.950 . S
C1194 C1180 1.377 . S
C1194 C1193 1.373 . S
C1195 C1179 1.377 . S
C1195 C1193 1.389 . S
C1195 C1196 1.524 1_556 S
C1196 C1195 1.524 1_554 S
C1196 C1197 1.397 . S
C1196 C1201 1.363 . S
C1197 H1168 0.950 1_554 S
C1197 C1196 1.397 . S
C1197 C1198 1.334 . S
C1198 H1169 0.950 . S
C1198 C1197 1.334 . S
C1198 C1199 1.287 . S
C1199 C1198 1.287 . S
C1199 C1200 1.524 . S
C1199 H1202 0.999 . S
C1200 H1170 0.950 . S
C1200 C1199 1.524 . S
C1200 C1201 1.415 . S
C1201 H1171 0.950 . S
C1201 C1196 1.363 . S
C1201 C1200 1.415 . S
H1202 C1199 0.999 . S
H1203 C1184 0.913 . S
H1204 C1222 0.951 . S
H1205 C1224 0.951 . S
H1206 C1226 0.950 . S
H1207 C1227 0.950 . S
H1208 C1229 0.950 . S
H1209 C1232 0.950 . S
H1210 C1233 0.950 . S
H1211 C1235 0.950 . S
H1212 C1236 0.950 . S
H1213 C1237 0.951 . S
H1214 C1239 0.951 . S
H1215 C1241 0.950 . S
H1216 C1242 0.942 1_554 S
H1217 C1244 0.950 . S
H1218 C1247 0.950 . S
H1219 C1248 0.950 . S
H1220 C1250 0.950 . S
H1221 C1251 0.950 1_556 S
C1222 H1204 0.951 . S
C1222 C1223 1.366 . S
C1222 C1224 1.388 . S
C1223 C1222 1.366 . S
C1223 C1227 1.385 . S
C1224 H1205 0.951 . S
C1224 C1222 1.388 . S
C1224 C1225 1.366 . S
C1225 C1224 1.366 . S
C1225 C1226 1.414 . S
C1225 C1228 1.499 . S
C1226 H1206 0.950 . S
C1226 C1225 1.414 . S
C1226 C1227 1.374 . S
C1227 H1207 0.950 . S
C1227 C1223 1.385 . S
C1227 C1226 1.374 . S
C1228 C1225 1.499 . S
C1228 C1229 1.373 . S
C1228 C1230 1.389 . S
C1229 H1208 0.950 . S
C1229 C1228 1.373 . S
C1229 C1245 1.377 . S
C1230 C1228 1.389 . S
C1230 C1231 1.524 . S
C1230 C1244 1.377 . S
C1231 C1230 1.524 . S
C1231 C1232 1.397 . S
C1231 C1236 1.363 . S
C1232 H1209 0.950 . S
C1232 C1231 1.397 . S
C1232 C1233 1.334 . S
C1233 H1210 0.950 . S
C1233 C1232 1.334 . S
C1233 C1234 1.287 . S
C1234 C1233 1.287 . S
C1234 C1235 1.524 . S
C1234 H1253 0.913 . S
C1235 H1211 0.950 . S
C1235 C1234 1.524 . S
C1235 C1236 1.415 . S
C1236 H1212 0.950 . S
C1236 C1231 1.363 . S
C1236 C1235 1.415 . S
C1237 H1213 0.951 . S
C1237 C1238 1.387 . S
C1237 C1239 1.388 . S
C1238 C1237 1.387 . S
C1238 C1242 1.384 . S
C1239 H1214 0.951 . S
C1239 C1237 1.388 . S
C1239 C1240 1.366 . S
C1240 C1239 1.366 . S
C1240 C1241 1.414 . S
C1240 C1243 1.499 . S
C1241 H1215 0.950 . S
C1241 C1240 1.414 . S
C1241 C1242 1.382 . S
C1242 H1216 0.942 1_556 S
C1242 C1238 1.384 . S
C1242 C1241 1.382 . S
C1243 C1240 1.499 . S
C1243 C1244 1.373 . S
C1243 C1245 1.389 . S
C1244 H1217 0.950 . S
C1244 C1230 1.377 . S
C1244 C1243 1.373 . S
C1245 C1229 1.377 . S
C1245 C1243 1.389 . S
C1245 C1246 1.524 1_556 S
C1246 C1245 1.524 1_554 S
C1246 C1247 1.397 . S
C1246 C1251 1.363 . S
C1247 H1218 0.950 . S
C1247 C1246 1.397 . S
C1247 C1248 1.334 . S
C1248 H1219 0.950 . S
C1248 C1247 1.334 . S
C1248 C1249 1.287 . S
C1249 C1248 1.287 . S
C1249 C1250 1.524 . S
C1249 H1252 0.999 . S
C1250 H1220 0.950 . S
C1250 C1249 1.524 . S
C1250 C1251 1.415 . S
C1251 H1221 0.950 1_554 S
C1251 C1246 1.363 . S
C1251 C1250 1.415 . S
H1252 C1249 0.999 . S
H1253 C1234 0.913 . S
H1254 C1272 0.951 . S
H1255 C1274 0.951 . S
H1256 C1276 0.950 . S
H1257 C1277 0.950 . S
H1258 C1279 0.950 . S
H1259 C1282 0.950 1_554 S
H1260 C1283 0.950 . S
H1261 C1285 0.950 . S
H1262 C1286 0.950 . S
H1263 C1287 0.951 . S
H1264 C1289 0.929 1_554 S
H1265 C1291 0.950 . S
H1266 C1292 0.950 . S
H1267 C1294 0.950 . S
H1268 C1297 0.950 . S
H1269 C1298 0.950 . S
H1270 C1300 0.950 . S
H1271 C1301 0.950 . S
C1272 H1254 0.951 . S
C1272 C1273 1.366 . S
C1272 C1274 1.388 . S
C1273 C1272 1.366 . S
C1273 C1277 1.385 . S
C1274 H1255 0.951 . S
C1274 C1272 1.388 . S
C1274 C1275 1.366 . S
C1275 C1274 1.366 . S
C1275 C1276 1.414 . S
C1275 C1278 1.499 . S
C1276 H1256 0.950 . S
C1276 C1275 1.414 . S
C1276 C1277 1.374 . S
C1277 H1257 0.950 . S
C1277 C1273 1.385 . S
C1277 C1276 1.374 . S
C1278 C1275 1.499 . S
C1278 C1279 1.373 . S
C1278 C1280 1.389 . S
C1279 H1258 0.950 . S
C1279 C1278 1.373 . S
C1279 C1295 1.377 . S
C1280 C1278 1.389 . S
C1280 C1281 1.524 . S
C1280 C1294 1.377 . S
C1281 C1280 1.524 . S
C1281 C1282 1.397 . S
C1281 C1286 1.363 . S
C1282 H1259 0.950 1_556 S
C1282 C1281 1.397 . S
C1282 C1283 1.334 1_556 S
C1283 H1260 0.950 . S
C1283 C1282 1.334 1_554 S
C1283 C1284 1.287 1_554 S
C1284 C1283 1.287 1_556 S
C1284 C1285 1.524 . S
C1284 H1303 0.924 . S
C1285 H1261 0.950 . S
C1285 C1284 1.524 . S
C1285 C1286 1.415 . S
C1286 H1262 0.950 . S
C1286 C1281 1.363 . S
C1286 C1285 1.415 . S
C1287 H1263 0.951 . S
C1287 C1288 1.366 1_554 S
C1287 C1289 1.371 1_554 S
C1288 C1287 1.366 1_556 S
C1288 C1292 1.385 . S
C1289 H1264 0.929 1_556 S
C1289 C1287 1.371 1_556 S
C1289 C1290 1.409 . S
C1290 C1289 1.409 . S
C1290 C1291 1.414 . S
C1290 C1293 1.499 . S
C1291 H1265 0.950 . S
C1291 C1290 1.414 . S
C1291 C1292 1.374 . S
C1292 H1266 0.950 . S
C1292 C1288 1.385 . S
C1292 C1291 1.374 . S
C1293 C1290 1.499 . S
C1293 C1294 1.373 . S
C1293 C1295 1.389 . S
C1294 H1267 0.950 . S
C1294 C1280 1.377 . S
C1294 C1293 1.373 . S
C1295 C1279 1.377 . S
C1295 C1293 1.389 . S
C1295 C1296 1.524 . S
C1296 C1295 1.524 . S
C1296 C1297 1.397 . S
C1296 C1301 1.363 . S
C1297 H1268 0.950 . S
C1297 C1296 1.397 . S
C1297 C1298 1.334 . S
C1298 H1269 0.950 . S
C1298 C1297 1.334 . S
C1298 C1299 1.287 . S
C1299 C1298 1.287 . S
C1299 C1300 1.524 . S
C1299 H1302 0.999 . S
C1300 H1270 0.950 . S
C1300 C1299 1.524 . S
C1300 C1301 1.415 . S
C1301 H1271 0.950 . S
C1301 C1296 1.363 . S
C1301 C1300 1.415 . S
H1302 C1299 0.999 . S
H1303 C1284 0.924 . S
H1304 C1322 0.951 . S
H1305 C1324 0.951 . S
H1306 C1326 0.950 . S
H1307 C1327 0.950 . S
H1308 C1329 0.950 . S
H1309 C1332 0.950 . S
H1310 C1333 0.950 . S
H1311 C1335 0.950 . S
H1312 C1336 0.950 . S
H1313 C1337 0.951 . S
H1314 C1339 0.935 1_554 S
H1315 C1341 0.950 . S
H1316 C1342 0.950 . S
H1317 C1344 0.950 . S
H1318 C1347 0.950 . S
H1319 C1348 0.950 . S
H1320 C1350 0.950 . S
H1321 C1351 0.950 . S
C1322 H1304 0.951 . S
C1322 C1323 1.366 . S
C1322 C1324 1.388 . S
C1323 C1322 1.366 . S
C1323 C1327 1.385 . S
C1324 H1305 0.951 . S
C1324 C1322 1.388 . S
C1324 C1325 1.366 . S
C1325 C1324 1.366 . S
C1325 C1326 1.414 . S
C1325 C1328 1.499 . S
C1326 H1306 0.950 . S
C1326 C1325 1.414 . S
C1326 C1327 1.374 . S
C1327 H1307 0.950 . S
C1327 C1323 1.385 . S
C1327 C1326 1.374 . S
C1328 C1325 1.499 . S
C1328 C1329 1.373 . S
C1328 C1330 1.389 . S
C1329 H1308 0.950 . S
C1329 C1328 1.373 . S
C1329 C1345 1.377 . S
C1330 C1328 1.389 . S
C1330 C1331 1.524 . S
C1330 C1344 1.377 . S
C1331 C1330 1.524 . S
C1331 C1332 1.397 . S
C1331 C1336 1.363 . S
C1332 H1309 0.950 . S
C1332 C1331 1.397 . S
C1332 C1333 1.334 . S
C1333 H1310 0.950 . S
C1333 C1332 1.334 . S
C1333 C1334 1.287 . S
C1334 C1333 1.287 . S
C1334 C1335 1.524 . S
C1334 H1353 0.913 . S
C1335 H1311 0.950 . S
C1335 C1334 1.524 . S
C1335 C1336 1.415 . S
C1336 H1312 0.950 . S
C1336 C1331 1.363 . S
C1336 C1335 1.415 . S
C1337 H1313 0.951 . S
C1337 C1338 1.366 1_554 S
C1337 C1339 1.379 1_554 S
C1338 C1337 1.366 1_556 S
C1338 C1342 1.385 . S
C1339 H1314 0.935 1_556 S
C1339 C1337 1.379 1_556 S
C1339 C1340 1.392 . S
C1340 C1339 1.392 . S
C1340 C1341 1.414 . S
C1340 C1343 1.499 . S
C1341 H1315 0.950 . S
C1341 C1340 1.414 . S
C1341 C1342 1.374 . S
C1342 H1316 0.950 . S
C1342 C1338 1.385 . S
C1342 C1341 1.374 . S
C1343 C1340 1.499 . S
C1343 C1344 1.373 . S
C1343 C1345 1.389 . S
C1344 H1317 0.950 . S
C1344 C1330 1.377 . S
C1344 C1343 1.373 . S
C1345 C1329 1.377 . S
C1345 C1343 1.389 . S
C1345 C1346 1.524 1_556 S
C1346 C1345 1.524 1_554 S
C1346 C1347 1.397 . S
C1346 C1351 1.363 . S
C1347 H1318 0.950 . S
C1347 C1346 1.397 . S
C1347 C1348 1.334 . S
C1348 H1319 0.950 . S
C1348 C1347 1.334 . S
C1348 C1349 1.287 . S
C1349 C1348 1.287 . S
C1349 C1350 1.524 . S
C1349 H1352 0.999 . S
C1350 H1320 0.950 . S
C1350 C1349 1.524 . S
C1350 C1351 1.415 . S
C1351 H1321 0.950 . S
C1351 C1346 1.363 . S
C1351 C1350 1.415 . S
H1352 C1349 0.999 . S
H1353 C1334 0.913 . S
H1354 C1372 0.951 . S
H1355 C1374 0.951 . S
H1356 C1376 0.950 . S
H1357 C1377 0.950 . S
H1358 C1379 0.950 . S
H1359 C1382 0.950 . S
H1360 C1383 0.950 . S
H1361 C1385 0.950 . S
H1362 C1386 0.950 . S
H1363 C1387 0.951 . S
H1364 C1389 0.951 . S
H1365 C1391 0.950 . S
H1366 C1392 0.950 . S
H1367 C1394 0.950 . S
H1368 C1397 0.950 . S
H1369 C1398 0.950 . S
H1370 C1400 0.950 1_556 S
H1371 C1401 0.950 . S
C1372 H1354 0.951 . S
C1372 C1373 1.366 . S
C1372 C1374 1.388 . S
C1373 C1372 1.366 . S
C1373 C1377 1.385 . S
C1374 H1355 0.951 . S
C1374 C1372 1.388 . S
C1374 C1375 1.366 . S
C1375 C1374 1.366 . S
C1375 C1376 1.414 . S
C1375 C1378 1.499 . S
C1376 H1356 0.950 . S
C1376 C1375 1.414 . S
C1376 C1377 1.374 . S
C1377 H1357 0.950 . S
C1377 C1373 1.385 . S
C1377 C1376 1.374 . S
C1378 C1375 1.499 . S
C1378 C1379 1.373 . S
C1378 C1380 1.389 . S
C1379 H1358 0.950 . S
C1379 C1378 1.373 . S
C1379 C1395 1.377 . S
C1380 C1378 1.389 . S
C1380 C1381 1.524 . S
C1380 C1394 1.377 . S
C1381 C1380 1.524 . S
C1381 C1382 1.397 . S
C1381 C1386 1.363 . S
C1382 H1359 0.950 . S
C1382 C1381 1.397 . S
C1382 C1383 1.334 . S
C1383 H1360 0.950 . S
C1383 C1382 1.334 . S
C1383 C1384 1.287 . S
C1384 C1383 1.287 . S
C1384 C1385 1.524 . S
C1384 H1403 0.913 . S
C1385 H1361 0.950 . S
C1385 C1384 1.524 . S
C1385 C1386 1.415 . S
C1386 H1362 0.950 . S
C1386 C1381 1.363 . S
C1386 C1385 1.415 . S
C1387 H1363 0.951 . S
C1387 C1388 1.386 . S
C1387 C1389 1.388 . S
C1388 C1387 1.386 . S
C1388 C1392 1.373 1_556 S
C1389 H1364 0.951 . S
C1389 C1387 1.388 . S
C1389 C1390 1.366 . S
C1390 C1389 1.366 . S
C1390 C1391 1.414 1_556 S
C1390 C1393 1.499 . S
C1391 H1365 0.950 . S
C1391 C1390 1.414 1_554 S
C1391 C1392 1.374 . S
C1392 H1366 0.950 . S
C1392 C1388 1.373 1_554 S
C1392 C1391 1.374 . S
C1393 C1390 1.499 . S
C1393 C1394 1.373 . S
C1393 C1395 1.389 . S
C1394 H1367 0.950 . S
C1394 C1380 1.377 . S
C1394 C1393 1.373 . S
C1395 C1379 1.377 . S
C1395 C1393 1.389 . S
C1395 C1396 1.532 . S
C1396 C1395 1.532 . S
C1396 C1397 1.382 1_556 S
C1396 C1401 1.369 . S
C1397 H1368 0.950 . S
C1397 C1396 1.382 1_554 S
C1397 C1398 1.334 . S
C1398 H1369 0.950 . S
C1398 C1397 1.334 . S
C1398 C1399 1.287 . S
C1399 C1398 1.287 . S
C1399 C1400 1.524 . S
C1399 H1402 0.999 . S
C1400 H1370 0.950 1_554 S
C1400 C1399 1.524 . S
C1400 C1401 1.415 1_554 S
C1401 H1371 0.950 . S
C1401 C1396 1.369 . S
C1401 C1400 1.415 1_556 S
H1402 C1399 0.999 . S
H1403 C1384 0.913 . S
H1404 C1422 0.951 . S
H1405 C1424 0.951 . S
H1406 C1426 0.950 . S
H1407 C1427 0.950 . S
H1408 C1429 0.950 . S
H1409 C1432 0.950 . S
H1410 C1433 0.950 . S
H1411 C1435 0.950 . S
H1412 C1436 0.950 . S
H1413 C1437 1.007 . S
H1414 C1439 0.951 . S
H1415 C1441 0.950 . S
H1416 C1442 0.950 . S
H1417 C1444 0.950 . S
H1418 C1447 0.950 . S
H1419 C1448 0.950 . S
H1420 C1450 0.961 . S
H1421 C1451 0.950 . S
C1422 H1404 0.951 . S
C1422 C1423 1.366 . S
C1422 C1424 1.388 . S
C1423 C1422 1.366 . S
C1423 C1427 1.385 . S
C1424 H1405 0.951 . S
C1424 C1422 1.388 . S
C1424 C1425 1.366 . S
C1425 C1424 1.366 . S
C1425 C1426 1.414 . S
C1425 C1428 1.499 . S
C1426 H1406 0.950 . S
C1426 C1425 1.414 . S
C1426 C1427 1.374 . S
C1427 H1407 0.950 . S
C1427 C1423 1.385 . S
C1427 C1426 1.374 . S
C1428 C1425 1.499 . S
C1428 C1429 1.373 . S
C1428 C1430 1.389 . S
C1429 H1408 0.950 . S
C1429 C1428 1.373 . S
C1429 C1445 1.377 . S
C1430 C1428 1.389 . S
C1430 C1431 1.524 . S
C1430 C1444 1.377 . S
C1431 C1430 1.524 . S
C1431 C1432 1.397 . S
C1431 C1436 1.363 . S
C1432 H1409 0.950 . S
C1432 C1431 1.397 . S
C1432 C1433 1.334 . S
C1433 H1410 0.950 . S
C1433 C1432 1.334 . S
C1433 C1434 1.287 . S
C1434 C1433 1.287 . S
C1434 C1435 1.524 . S
C1434 H1453 0.913 . S
C1435 H1411 0.950 . S
C1435 C1434 1.524 . S
C1435 C1436 1.415 . S
C1436 H1412 0.950 . S
C1436 C1431 1.363 . S
C1436 C1435 1.415 . S
C1437 H1413 1.007 . S
C1437 C1438 1.366 . S
C1437 C1439 1.388 . S
C1438 C1437 1.366 . S
C1438 C1442 1.385 . S
C1439 H1414 0.951 . S
C1439 C1437 1.388 . S
C1439 C1440 1.366 . S
C1440 C1439 1.366 . S
C1440 C1441 1.414 . S
C1440 C1443 1.499 . S
C1441 H1415 0.950 . S
C1441 C1440 1.414 . S
C1441 C1442 1.374 . S
C1442 H1416 0.950 . S
C1442 C1438 1.385 . S
C1442 C1441 1.374 . S
C1443 C1440 1.499 . S
C1443 C1444 1.373 . S
C1443 C1445 1.389 . S
C1444 H1417 0.950 . S
C1444 C1430 1.377 . S
C1444 C1443 1.373 . S
C1445 C1429 1.377 . S
C1445 C1443 1.389 . S
C1445 C1446 1.524 . S
C1446 C1445 1.524 . S
C1446 C1447 1.397 . S
C1446 C1451 1.363 . S
C1447 H1418 0.950 . S
C1447 C1446 1.397 . S
C1447 C1448 1.334 . S
C1448 H1419 0.950 . S
C1448 C1447 1.334 . S
C1448 C1449 1.287 . S
C1449 C1448 1.287 . S
C1449 C1450 1.517 1_554 S
C1449 H1452 0.999 . S
C1450 H1420 0.961 . S
C1450 C1449 1.517 1_556 S
C1450 C1451 1.409 1_556 S
C1451 H1421 0.950 . S
C1451 C1446 1.363 . S
C1451 C1450 1.409 1_554 S
H1452 C1449 0.999 . S
H1453 C1434 0.913 . S
H1454 C1472 0.951 . S
H1455 C1474 0.951 . S
H1456 C1476 0.950 . S
H1457 C1477 0.950 . S
H1458 C1479 0.950 . S
H1459 C1482 0.950 . S
H1460 C1483 0.950 . S
H1461 C1485 0.950 . S
H1462 C1486 0.950 . S
H1463 C1487 0.951 . S
H1464 C1489 0.951 . S
H1465 C1491 0.950 . S
H1466 C1492 0.950 . S
H1467 C1494 0.950 . S
H1468 C1497 0.950 . S
H1469 C1498 0.950 . S
H1470 C1500 0.950 . S
H1471 C1501 0.950 . S
C1472 H1454 0.951 . S
C1472 C1473 1.366 . S
C1472 C1474 1.388 . S
C1473 C1472 1.366 . S
C1473 C1477 1.385 . S
C1474 H1455 0.951 . S
C1474 C1472 1.388 . S
C1474 C1475 1.366 . S
C1475 C1474 1.366 . S
C1475 C1476 1.414 . S
C1475 C1478 1.499 . S
C1476 H1456 0.950 . S
C1476 C1475 1.414 . S
C1476 C1477 1.374 . S
C1477 H1457 0.950 . S
C1477 C1473 1.385 . S
C1477 C1476 1.374 . S
C1478 C1475 1.499 . S
C1478 C1479 1.373 . S
C1478 C1480 1.389 . S
C1479 H1458 0.950 . S
C1479 C1478 1.373 . S
C1479 C1495 1.377 . S
C1480 C1478 1.389 . S
C1480 C1481 1.524 . S
C1480 C1494 1.377 . S
C1481 C1480 1.524 . S
C1481 C1482 1.397 . S
C1481 C1486 1.363 . S
C1482 H1459 0.950 . S
C1482 C1481 1.397 . S
C1482 C1483 1.334 . S
C1483 H1460 0.950 . S
C1483 C1482 1.334 . S
C1483 C1484 1.287 . S
C1484 C1483 1.287 . S
C1484 C1485 1.524 . S
C1484 H1503 0.913 . S
C1485 H1461 0.950 . S
C1485 C1484 1.524 . S
C1485 C1486 1.415 . S
C1486 H1462 0.950 . S
C1486 C1481 1.363 . S
C1486 C1485 1.415 . S
C1487 H1463 0.951 . S
C1487 C1488 1.366 . S
C1487 C1489 1.388 . S
C1488 C1487 1.366 . S
C1488 C1492 1.385 . S
C1489 H1464 0.951 . S
C1489 C1487 1.388 . S
C1489 C1490 1.366 . S
C1490 C1489 1.366 . S
C1490 C1491 1.414 . S
C1490 C1493 1.499 . S
C1491 H1465 0.950 . S
C1491 C1490 1.414 . S
C1491 C1492 1.374 . S
C1492 H1466 0.950 . S
C1492 C1488 1.385 . S
C1492 C1491 1.374 . S
C1493 C1490 1.499 . S
C1493 C1494 1.373 . S
C1493 C1495 1.389 . S
C1494 H1467 0.950 . S
C1494 C1480 1.377 . S
C1494 C1493 1.373 . S
C1495 C1479 1.377 . S
C1495 C1493 1.389 . S
C1495 C1496 1.524 . S
C1496 C1495 1.524 . S
C1496 C1497 1.397 . S
C1496 C1501 1.363 . S
C1497 H1468 0.950 . S
C1497 C1496 1.397 . S
C1497 C1498 1.334 . S
C1498 H1469 0.950 . S
C1498 C1497 1.334 . S
C1498 C1499 1.287 . S
C1499 C1498 1.287 . S
C1499 C1500 1.524 . S
C1499 H1502 0.999 . S
C1500 H1470 0.950 . S
C1500 C1499 1.524 . S
C1500 C1501 1.415 . S
C1501 H1471 0.950 . S
C1501 C1496 1.363 . S
C1501 C1500 1.415 . S
H1502 C1499 0.999 . S
H1503 C1484 0.913 . S
H1504 C1522 0.951 . S
H1505 C1524 0.951 . S
H1506 C1526 0.950 . S
H1507 C1527 0.950 . S
H1508 C1529 0.950 . S
H1509 C1532 0.950 . S
H1510 C1533 0.950 . S
H1511 C1535 0.950 . S
H1512 C1536 0.950 . S
H1513 C1537 0.951 . S
H1514 C1539 0.951 . S
H1515 C1541 0.950 . S
H1516 C1542 0.950 . S
H1517 C1544 0.950 . S
H1518 C1547 0.950 . S
H1519 C1548 0.950 . S
H1520 C1550 0.950 . S
H1521 C1551 0.950 . S
C1522 H1504 0.951 . S
C1522 C1523 1.366 . S
C1522 C1524 1.388 . S
C1523 C1522 1.366 . S
C1523 C1527 1.385 . S
C1524 H1505 0.951 . S
C1524 C1522 1.388 . S
C1524 C1525 1.366 . S
C1525 C1524 1.366 . S
C1525 C1526 1.414 . S
C1525 C1528 1.499 . S
C1526 H1506 0.950 . S
C1526 C1525 1.414 . S
C1526 C1527 1.374 . S
C1527 H1507 0.950 . S
C1527 C1523 1.385 . S
C1527 C1526 1.374 . S
C1528 C1525 1.499 . S
C1528 C1529 1.373 . S
C1528 C1530 1.389 . S
C1529 H1508 0.950 . S
C1529 C1528 1.373 . S
C1529 C1545 1.377 . S
C1530 C1528 1.389 . S
C1530 C1531 1.524 . S
C1530 C1544 1.377 . S
C1531 C1530 1.524 . S
C1531 C1532 1.397 . S
C1531 C1536 1.363 . S
C1532 H1509 0.950 . S
C1532 C1531 1.397 . S
C1532 C1533 1.334 1_554 S
C1533 H1510 0.950 . S
C1533 C1532 1.334 1_556 S
C1533 C1534 1.287 . S
C1534 C1533 1.287 . S
C1534 C1535 1.524 . S
C1534 H1553 0.913 . S
C1535 H1511 0.950 . S
C1535 C1534 1.524 . S
C1535 C1536 1.415 1_556 S
C1536 H1512 0.950 . S
C1536 C1531 1.363 . S
C1536 C1535 1.415 1_554 S
C1537 H1513 0.951 . S
C1537 C1538 1.366 . S
C1537 C1539 1.388 . S
C1538 C1537 1.366 . S
C1538 C1542 1.385 . S
C1539 H1514 0.951 . S
C1539 C1537 1.388 . S
C1539 C1540 1.366 . S
C1540 C1539 1.366 . S
C1540 C1541 1.414 . S
C1540 C1543 1.499 . S
C1541 H1515 0.950 . S
C1541 C1540 1.414 . S
C1541 C1542 1.374 . S
C1542 H1516 0.950 . S
C1542 C1538 1.385 . S
C1542 C1541 1.374 . S
C1543 C1540 1.499 . S
C1543 C1544 1.373 . S
C1543 C1545 1.389 . S
C1544 H1517 0.950 . S
C1544 C1530 1.377 . S
C1544 C1543 1.373 . S
C1545 C1529 1.377 . S
C1545 C1543 1.389 . S
C1545 C1546 1.524 . S
C1546 C1545 1.524 . S
C1546 C1547 1.397 . S
C1546 C1551 1.363 . S
C1547 H1518 0.950 . S
C1547 C1546 1.397 . S
C1547 C1548 1.334 . S
C1548 H1519 0.950 . S
C1548 C1547 1.334 . S
C1548 C1549 1.287 . S
C1549 C1548 1.287 . S
C1549 C1550 1.524 . S
C1549 H1552 0.999 . S
C1550 H1520 0.950 . S
C1550 C1549 1.524 . S
C1550 C1551 1.415 . S
C1551 H1521 0.950 . S
C1551 C1546 1.363 . S
C1551 C1550 1.415 . S
H1552 C1549 0.999 . S
H1553 C1534 0.913 . S
H1554 C1572 0.951 . S
H1555 C1574 0.951 . S
H1556 C1576 0.950 . S
H1557 C1577 0.950 . S
H1558 C1579 0.950 . S
H1559 C1582 0.950 . S
H1560 C1583 0.950 . S
H1561 C1585 0.950 . S
H1562 C1586 0.950 . S
H1563 C1587 0.951 . S
H1564 C1589 0.951 . S
H1565 C1591 0.950 . S
H1566 C1592 0.950 . S
H1567 C1594 0.950 . S
H1568 C1597 0.950 . S
H1569 C1598 0.950 . S
H1570 C1600 0.950 . S
H1571 C1601 0.950 . S
C1572 H1554 0.951 . S
C1572 C1573 1.366 . S
C1572 C1574 1.388 . S
C1573 C1572 1.366 . S
C1573 C1577 1.385 . S
C1574 H1555 0.951 . S
C1574 C1572 1.388 . S
C1574 C1575 1.366 . S
C1575 C1574 1.366 . S
C1575 C1576 1.414 . S
C1575 C1578 1.499 . S
C1576 H1556 0.950 . S
C1576 C1575 1.414 . S
C1576 C1577 1.374 . S
C1577 H1557 0.950 . S
C1577 C1573 1.385 . S
C1577 C1576 1.374 . S
C1578 C1575 1.499 . S
C1578 C1579 1.373 1_655 S
C1578 C1580 1.389 . S
C1579 H1558 0.950 . S
C1579 C1578 1.373 1_455 S
C1579 C1595 1.377 . S
C1580 C1578 1.389 . S
C1580 C1581 1.524 . S
C1580 C1594 1.377 1_655 S
C1581 C1580 1.524 . S
C1581 C1582 1.397 . S
C1581 C1586 1.363 . S
C1582 H1559 0.950 . S
C1582 C1581 1.397 . S
C1582 C1583 1.334 . S
C1583 H1560 0.950 . S
C1583 C1582 1.334 . S
C1583 C1584 1.287 . S
C1584 C1583 1.287 . S
C1584 C1585 1.524 . S
C1584 H1603 0.913 . S
C1585 H1561 0.950 . S
C1585 C1584 1.524 . S
C1585 C1586 1.415 . S
C1586 H1562 0.950 . S
C1586 C1581 1.363 . S
C1586 C1585 1.415 . S
C1587 H1563 0.951 . S
C1587 C1588 1.366 . S
C1587 C1589 1.388 . S
C1588 C1587 1.366 . S
C1588 C1592 1.385 . S
C1589 H1564 0.951 . S
C1589 C1587 1.388 . S
C1589 C1590 1.366 . S
C1590 C1589 1.366 . S
C1590 C1591 1.414 . S
C1590 C1593 1.499 . S
C1591 H1565 0.950 . S
C1591 C1590 1.414 . S
C1591 C1592 1.374 . S
C1592 H1566 0.950 . S
C1592 C1588 1.385 . S
C1592 C1591 1.374 . S
C1593 C1590 1.499 . S
C1593 C1594 1.373 . S
C1593 C1595 1.389 . S
C1594 H1567 0.950 . S
C1594 C1580 1.377 1_455 S
C1594 C1593 1.373 . S
C1595 C1579 1.377 . S
C1595 C1593 1.389 . S
C1595 C1596 1.524 . S
C1596 C1595 1.524 . S
C1596 C1597 1.397 . S
C1596 C1601 1.363 . S
C1597 H1568 0.950 . S
C1597 C1596 1.397 . S
C1597 C1598 1.334 . S
C1598 H1569 0.950 . S
C1598 C1597 1.334 . S
C1598 C1599 1.287 . S
C1599 C1598 1.287 . S
C1599 C1600 1.524 . S
C1599 H1602 0.999 . S
C1600 H1570 0.950 . S
C1600 C1599 1.524 . S
C1600 C1601 1.415 . S
C1601 H1571 0.950 . S
C1601 C1596 1.363 . S
C1601 C1600 1.415 . S
H1602 C1599 0.999 . S
H1603 C1584 0.913 . S
H1604 C1622 0.951 . S
H1605 C1624 0.951 . S
H1606 C1626 0.950 . S
H1607 C1627 0.950 . S
H1608 C1629 0.950 . S
H1609 C1632 0.950 . S
H1610 C1633 0.950 . S
H1611 C1635 0.950 . S
H1612 C1636 0.950 . S
H1613 C1637 0.951 . S
H1614 C1639 0.951 . S
H1615 C1641 0.950 . S
H1616 C1642 0.950 . S
H1617 C1644 0.950 . S
H1618 C1647 0.950 . S
H1619 C1648 0.950 . S
H1620 C1650 0.950 . S
H1621 C1651 0.950 . S
C1622 H1604 0.951 . S
C1622 C1623 1.366 . S
C1622 C1624 1.388 . S
C1623 C1622 1.366 . S
C1623 C1627 1.385 . S
C1624 H1605 0.951 . S
C1624 C1622 1.388 . S
C1624 C1625 1.366 . S
C1625 C1624 1.366 . S
C1625 C1626 1.414 . S
C1625 C1628 1.499 . S
C1626 H1606 0.950 . S
C1626 C1625 1.414 . S
C1626 C1627 1.374 . S
C1627 H1607 0.950 . S
C1627 C1623 1.385 . S
C1627 C1626 1.374 . S
C1628 C1625 1.499 . S
C1628 C1629 1.373 . S
C1628 C1630 1.389 . S
C1629 H1608 0.950 . S
C1629 C1628 1.373 . S
C1629 C1645 1.377 . S
C1630 C1628 1.389 . S
C1630 C1631 1.524 . S
C1630 C1644 1.377 . S
C1631 C1630 1.524 . S
C1631 C1632 1.397 . S
C1631 C1636 1.363 . S
C1632 H1609 0.950 . S
C1632 C1631 1.397 . S
C1632 C1633 1.334 . S
C1633 H1610 0.950 . S
C1633 C1632 1.334 . S
C1633 C1634 1.287 . S
C1634 C1633 1.287 . S
C1634 C1635 1.524 . S
C1634 H1653 0.913 . S
C1635 H1611 0.950 . S
C1635 C1634 1.524 . S
C1635 C1636 1.415 . S
C1636 H1612 0.950 . S
C1636 C1631 1.363 . S
C1636 C1635 1.415 . S
C1637 H1613 0.951 . S
C1637 C1638 1.366 . S
C1637 C1639 1.388 . S
C1638 C1637 1.366 . S
C1638 C1642 1.385 . S
C1639 H1614 0.951 . S
C1639 C1637 1.388 . S
C1639 C1640 1.366 . S
C1640 C1639 1.366 . S
C1640 C1641 1.414 . S
C1640 C1643 1.499 . S
C1641 H1615 0.950 . S
C1641 C1640 1.414 . S
C1641 C1642 1.374 . S
C1642 H1616 0.950 . S
C1642 C1638 1.385 . S
C1642 C1641 1.374 . S
C1643 C1640 1.499 . S
C1643 C1644 1.373 . S
C1643 C1645 1.389 . S
C1644 H1617 0.950 . S
C1644 C1630 1.377 . S
C1644 C1643 1.373 . S
C1645 C1629 1.377 . S
C1645 C1643 1.389 . S
C1645 C1646 1.524 . S
C1646 C1645 1.524 . S
C1646 C1647 1.397 . S
C1646 C1651 1.363 . S
C1647 H1618 0.950 . S
C1647 C1646 1.397 . S
C1647 C1648 1.334 . S
C1648 H1619 0.950 . S
C1648 C1647 1.334 . S
C1648 C1649 1.287 . S
C1649 C1648 1.287 . S
C1649 C1650 1.524 . S
C1649 H1652 0.999 . S
C1650 H1620 0.950 . S
C1650 C1649 1.524 . S
C1650 C1651 1.415 . S
C1651 H1621 0.950 . S
C1651 C1646 1.363 . S
C1651 C1650 1.415 . S
H1652 C1649 0.999 . S
H1653 C1634 0.913 . S
H1654 C1672 0.951 . S
H1655 C1674 0.951 . S
H1656 C1676 0.950 . S
H1657 C1677 0.950 . S
H1658 C1679 0.950 . S
H1659 C1682 0.950 . S
H1660 C1683 0.950 . S
H1661 C1685 0.950 . S
H1662 C1686 0.950 . S
H1663 C1687 0.951 . S
H1664 C1689 0.951 . S
H1665 C1691 0.950 . S
H1666 C1692 0.950 . S
H1667 C1694 0.950 . S
H1668 C1697 0.950 . S
H1669 C1698 0.950 . S
H1670 C1700 0.950 . S
H1671 C1701 0.950 . S
C1672 H1654 0.951 . S
C1672 C1673 1.366 . S
C1672 C1674 1.388 . S
C1673 C1672 1.366 . S
C1673 C1677 1.385 . S
C1674 H1655 0.951 . S
C1674 C1672 1.388 . S
C1674 C1675 1.366 . S
C1675 C1674 1.366 . S
C1675 C1676 1.414 . S
C1675 C1678 1.499 . S
C1676 H1656 0.950 . S
C1676 C1675 1.414 . S
C1676 C1677 1.374 . S
C1677 H1657 0.950 . S
C1677 C1673 1.385 . S
C1677 C1676 1.374 . S
C1678 C1675 1.499 . S
C1678 C1679 1.373 . S
C1678 C1680 1.389 . S
C1679 H1658 0.950 . S
C1679 C1678 1.373 . S
C1679 C1695 1.377 1_545 S
C1680 C1678 1.389 . S
C1680 C1681 1.524 . S
C1680 C1694 1.377 1_545 S
C1681 C1680 1.524 . S
C1681 C1682 1.397 . S
C1681 C1686 1.363 . S
C1682 H1659 0.950 . S
C1682 C1681 1.397 . S
C1682 C1683 1.334 . S
C1683 H1660 0.950 . S
C1683 C1682 1.334 . S
C1683 C1684 1.287 . S
C1684 C1683 1.287 . S
C1684 C1685 1.524 . S
C1684 H1703 0.913 . S
C1685 H1661 0.950 . S
C1685 C1684 1.524 . S
C1685 C1686 1.415 . S
C1686 H1662 0.950 . S
C1686 C1681 1.363 . S
C1686 C1685 1.415 . S
C1687 H1663 0.951 . S
C1687 C1688 1.366 . S
C1687 C1689 1.388 . S
C1688 C1687 1.366 . S
C1688 C1692 1.385 . S
C1689 H1664 0.951 . S
C1689 C1687 1.388 . S
C1689 C1690 1.366 . S
C1690 C1689 1.366 . S
C1690 C1691 1.414 . S
C1690 C1693 1.499 . S
C1691 H1665 0.950 . S
C1691 C1690 1.414 . S
C1691 C1692 1.374 . S
C1692 H1666 0.950 . S
C1692 C1688 1.385 . S
C1692 C1691 1.374 . S
C1693 C1690 1.499 . S
C1693 C1694 1.373 . S
C1693 C1695 1.389 . S
C1694 H1667 0.950 . S
C1694 C1680 1.377 1_565 S
C1694 C1693 1.373 . S
C1695 C1679 1.377 1_565 S
C1695 C1693 1.389 . S
C1695 C1696 1.524 . S
C1696 C1695 1.524 . S
C1696 C1697 1.397 . S
C1696 C1701 1.363 . S
C1697 H1668 0.950 . S
C1697 C1696 1.397 . S
C1697 C1698 1.334 . S
C1698 H1669 0.950 . S
C1698 C1697 1.334 . S
C1698 C1699 1.287 . S
C1699 C1698 1.287 . S
C1699 C1700 1.524 . S
C1699 H1702 0.999 . S
C1700 H1670 0.950 . S
C1700 C1699 1.524 . S
C1700 C1701 1.415 . S
C1701 H1671 0.950 . S
C1701 C1696 1.363 . S
C1701 C1700 1.415 . S
H1702 C1699 0.999 . S
H1703 C1684 0.913 . S
H1704 C1722 0.951 . S
H1705 C1724 0.951 . S
H1706 C1726 0.950 . S
H1707 C1727 0.950 . S
H1708 C1729 0.950 . S
H1709 C1732 0.950 . S
H1710 C1733 0.950 . S
H1711 C1735 0.950 . S
H1712 C1736 0.950 . S
H1713 C1737 0.951 . S
H1714 C1739 0.951 . S
H1715 C1741 0.950 . S
H1716 C1742 0.950 . S
H1717 C1744 0.950 . S
H1718 C1747 0.950 . S
H1719 C1748 0.950 . S
H1720 C1750 0.950 . S
H1721 C1751 0.950 . S
C1722 H1704 0.951 . S
C1722 C1723 1.366 . S
C1722 C1724 1.388 . S
C1723 C1722 1.366 . S
C1723 C1727 1.385 . S
C1724 H1705 0.951 . S
C1724 C1722 1.388 . S
C1724 C1725 1.366 . S
C1725 C1724 1.366 . S
C1725 C1726 1.414 . S
C1725 C1728 1.499 . S
C1726 H1706 0.950 . S
C1726 C1725 1.414 . S
C1726 C1727 1.374 . S
C1727 H1707 0.950 . S
C1727 C1723 1.385 . S
C1727 C1726 1.374 . S
C1728 C1725 1.499 . S
C1728 C1729 1.373 . S
C1728 C1730 1.389 . S
C1729 H1708 0.950 . S
C1729 C1728 1.373 . S
C1729 C1745 1.377 . S
C1730 C1728 1.389 . S
C1730 C1731 1.524 . S
C1730 C1744 1.377 . S
C1731 C1730 1.524 . S
C1731 C1732 1.397 . S
C1731 C1736 1.363 . S
C1732 H1709 0.950 . S
C1732 C1731 1.397 . S
C1732 C1733 1.334 . S
C1733 H1710 0.950 . S
C1733 C1732 1.334 . S
C1733 C1734 1.287 . S
C1734 C1733 1.287 . S
C1734 C1735 1.524 . S
C1734 H1753 0.913 . S
C1735 H1711 0.950 . S
C1735 C1734 1.524 . S
C1735 C1736 1.415 . S
C1736 H1712 0.950 . S
C1736 C1731 1.363 . S
C1736 C1735 1.415 . S
C1737 H1713 0.951 . S
C1737 C1738 1.366 . S
C1737 C1739 1.388 . S
C1738 C1737 1.366 . S
C1738 C1742 1.385 . S
C1739 H1714 0.951 . S
C1739 C1737 1.388 . S
C1739 C1740 1.366 . S
C1740 C1739 1.366 . S
C1740 C1741 1.414 . S
C1740 C1743 1.499 . S
C1741 H1715 0.950 . S
C1741 C1740 1.414 . S
C1741 C1742 1.374 . S
C1742 H1716 0.950 . S
C1742 C1738 1.385 . S
C1742 C1741 1.374 . S
C1743 C1740 1.499 . S
C1743 C1744 1.373 . S
C1743 C1745 1.389 . S
C1744 H1717 0.950 . S
C1744 C1730 1.377 . S
C1744 C1743 1.373 . S
C1745 C1729 1.377 . S
C1745 C1743 1.389 . S
C1745 C1746 1.524 . S
C1746 C1745 1.524 . S
C1746 C1747 1.397 . S
C1746 C1751 1.363 . S
C1747 H1718 0.950 . S
C1747 C1746 1.397 . S
C1747 C1748 1.334 . S
C1748 H1719 0.950 . S
C1748 C1747 1.334 . S
C1748 C1749 1.287 . S
C1749 C1748 1.287 . S
C1749 C1750 1.524 . S
C1749 H1752 0.999 . S
C1750 H1720 0.950 . S
C1750 C1749 1.524 . S
C1750 C1751 1.415 . S
C1751 H1721 0.950 . S
C1751 C1746 1.363 . S
C1751 C1750 1.415 . S
H1752 C1749 0.999 . S
H1753 C1734 0.913 . S
H1754 C1772 0.951 . S
H1755 C1774 0.951 . S
H1756 C1776 0.950 . S
H1757 C1777 0.950 . S
H1758 C1779 0.950 . S
H1759 C1782 0.950 . S
H1760 C1783 0.950 . S
H1761 C1785 0.950 . S
H1762 C1786 0.950 . S
H1763 C1787 0.951 . S
H1764 C1789 0.951 . S
H1765 C1791 0.950 . S
H1766 C1792 0.950 . S
H1767 C1794 0.950 . S
H1768 C1797 0.950 . S
H1769 C1798 0.950 . S
H1770 C1800 0.950 . S
H1771 C1801 0.950 . S
C1772 H1754 0.951 . S
C1772 C1773 1.366 . S
C1772 C1774 1.388 . S
C1773 C1772 1.366 . S
C1773 C1777 1.385 . S
C1774 H1755 0.951 . S
C1774 C1772 1.388 . S
C1774 C1775 1.366 . S
C1775 C1774 1.366 . S
C1775 C1776 1.414 . S
C1775 C1778 1.499 . S
C1776 H1756 0.950 . S
C1776 C1775 1.414 . S
C1776 C1777 1.374 . S
C1777 H1757 0.950 . S
C1777 C1773 1.385 . S
C1777 C1776 1.374 . S
C1778 C1775 1.499 . S
C1778 C1779 1.373 . S
C1778 C1780 1.389 . S
C1779 H1758 0.950 . S
C1779 C1778 1.373 . S
C1779 C1795 1.377 . S
C1780 C1778 1.389 . S
C1780 C1781 1.524 . S
C1780 C1794 1.377 . S
C1781 C1780 1.524 . S
C1781 C1782 1.397 . S
C1781 C1786 1.363 . S
C1782 H1759 0.950 . S
C1782 C1781 1.397 . S
C1782 C1783 1.334 . S
C1783 H1760 0.950 . S
C1783 C1782 1.334 . S
C1783 C1784 1.287 . S
C1784 C1783 1.287 . S
C1784 C1785 1.524 . S
C1784 H1803 0.913 . S
C1785 H1761 0.950 . S
C1785 C1784 1.524 . S
C1785 C1786 1.415 . S
C1786 H1762 0.950 . S
C1786 C1781 1.363 . S
C1786 C1785 1.415 . S
C1787 H1763 0.951 . S
C1787 C1788 1.366 . S
C1787 C1789 1.388 . S
C1788 C1787 1.366 . S
C1788 C1792 1.385 . S
C1789 H1764 0.951 . S
C1789 C1787 1.388 . S
C1789 C1790 1.366 . S
C1790 C1789 1.366 . S
C1790 C1791 1.414 . S
C1790 C1793 1.499 . S
C1791 H1765 0.950 . S
C1791 C1790 1.414 . S
C1791 C1792 1.374 . S
C1792 H1766 0.950 . S
C1792 C1788 1.385 . S
C1792 C1791 1.374 . S
C1793 C1790 1.499 . S
C1793 C1794 1.373 . S
C1793 C1795 1.389 . S
C1794 H1767 0.950 . S
C1794 C1780 1.377 . S
C1794 C1793 1.373 . S
C1795 C1779 1.377 . S
C1795 C1793 1.389 . S
C1795 C1796 1.524 . S
C1796 C1795 1.524 . S
C1796 C1797 1.397 . S
C1796 C1801 1.363 . S
C1797 H1768 0.950 . S
C1797 C1796 1.397 . S
C1797 C1798 1.334 . S
C1798 H1769 0.950 . S
C1798 C1797 1.334 . S
C1798 C1799 1.287 . S
C1799 C1798 1.287 . S
C1799 C1800 1.524 . S
C1799 H1802 0.999 . S
C1800 H1770 0.950 . S
C1800 C1799 1.524 . S
C1800 C1801 1.415 . S
C1801 H1771 0.950 . S
C1801 C1796 1.363 . S
C1801 C1800 1.415 . S
H1802 C1799 0.999 . S
H1803 C1784 0.913 . S
H1804 C1822 0.951 . S
H1805 C1824 0.951 . S
H1806 C1826 0.950 . S
H1807 C1827 0.950 . S
H1808 C1829 0.950 . S
H1809 C1832 0.950 . S
H1810 C1833 0.950 . S
H1811 C1835 0.950 . S
H1812 C1836 0.950 . S
H1813 C1837 0.951 . S
H1814 C1839 0.951 . S
H1815 C1841 0.950 . S
H1816 C1842 0.950 . S
H1817 C1844 0.950 . S
H1818 C1847 0.950 . S
H1819 C1848 0.950 . S
H1820 C1850 0.950 . S
H1821 C1851 0.950 . S
C1822 H1804 0.951 . S
C1822 C1823 1.366 . S
C1822 C1824 1.388 . S
C1823 C1822 1.366 . S
C1823 C1827 1.385 . S
C1824 H1805 0.951 . S
C1824 C1822 1.388 . S
C1824 C1825 1.366 . S
C1825 C1824 1.366 . S
C1825 C1826 1.414 . S
C1825 C1828 1.499 . S
C1826 H1806 0.950 . S
C1826 C1825 1.414 . S
C1826 C1827 1.374 . S
C1827 H1807 0.950 . S
C1827 C1823 1.385 . S
C1827 C1826 1.374 . S
C1828 C1825 1.499 . S
C1828 C1829 1.373 . S
C1828 C1830 1.389 . S
C1829 H1808 0.950 . S
C1829 C1828 1.373 . S
C1829 C1845 1.377 . S
C1830 C1828 1.389 . S
C1830 C1831 1.524 . S
C1830 C1844 1.377 . S
C1831 C1830 1.524 . S
C1831 C1832 1.397 . S
C1831 C1836 1.363 . S
C1832 H1809 0.950 . S
C1832 C1831 1.397 . S
C1832 C1833 1.334 . S
C1833 H1810 0.950 . S
C1833 C1832 1.334 . S
C1833 C1834 1.287 . S
C1834 C1833 1.287 . S
C1834 C1835 1.524 . S
C1834 H1853 0.913 . S
C1835 H1811 0.950 . S
C1835 C1834 1.524 . S
C1835 C1836 1.415 . S
C1836 H1812 0.950 . S
C1836 C1831 1.363 . S
C1836 C1835 1.415 . S
C1837 H1813 0.951 . S
C1837 C1838 1.366 . S
C1837 C1839 1.388 . S
C1838 C1837 1.366 . S
C1838 C1842 1.385 . S
C1839 H1814 0.951 . S
C1839 C1837 1.388 . S
C1839 C1840 1.366 . S
C1840 C1839 1.366 . S
C1840 C1841 1.414 . S
C1840 C1843 1.499 . S
C1841 H1815 0.950 . S
C1841 C1840 1.414 . S
C1841 C1842 1.374 . S
C1842 H1816 0.950 . S
C1842 C1838 1.385 . S
C1842 C1841 1.374 . S
C1843 C1840 1.499 . S
C1843 C1844 1.373 . S
C1843 C1845 1.389 . S
C1844 H1817 0.950 . S
C1844 C1830 1.377 . S
C1844 C1843 1.373 . S
C1845 C1829 1.377 . S
C1845 C1843 1.389 . S
C1845 C1846 1.524 . S
C1846 C1845 1.524 . S
C1846 C1847 1.397 . S
C1846 C1851 1.363 . S
C1847 H1818 0.950 . S
C1847 C1846 1.397 . S
C1847 C1848 1.334 . S
C1848 H1819 0.950 . S
C1848 C1847 1.334 . S
C1848 C1849 1.287 . S
C1849 C1848 1.287 . S
C1849 C1850 1.524 . S
C1849 H1852 0.999 . S
C1850 H1820 0.950 . S
C1850 C1849 1.524 . S
C1850 C1851 1.415 . S
C1851 H1821 0.950 . S
C1851 C1846 1.363 . S
C1851 C1850 1.415 . S
H1852 C1849 0.999 . S
H1853 C1834 0.913 . S
H1854 C1872 0.951 . S
H1855 C1874 0.951 . S
H1856 C1876 0.950 . S
H1857 C1877 0.950 . S
H1858 C1879 0.950 . S
H1859 C1882 0.950 . S
H1860 C1883 0.950 . S
H1861 C1885 0.950 . S
H1862 C1886 0.950 . S
H1863 C1887 0.951 . S
H1864 C1889 0.951 . S
H1865 C1891 0.950 . S
H1866 C1892 0.950 . S
H1867 C1894 0.950 . S
H1868 C1897 0.950 . S
H1869 C1898 0.950 . S
H1870 C1900 0.950 . S
H1871 C1901 0.950 . S
C1872 H1854 0.951 . S
C1872 C1873 1.366 . S
C1872 C1874 1.388 . S
C1873 C1872 1.366 . S
C1873 C1877 1.385 . S
C1874 H1855 0.951 . S
C1874 C1872 1.388 . S
C1874 C1875 1.366 . S
C1875 C1874 1.366 . S
C1875 C1876 1.414 . S
C1875 C1878 1.499 . S
C1876 H1856 0.950 . S
C1876 C1875 1.414 . S
C1876 C1877 1.374 . S
C1877 H1857 0.950 . S
C1877 C1873 1.385 . S
C1877 C1876 1.374 . S
C1878 C1875 1.499 . S
C1878 C1879 1.373 . S
C1878 C1880 1.389 . S
C1879 H1858 0.950 . S
C1879 C1878 1.373 . S
C1879 C1895 1.377 . S
C1880 C1878 1.389 . S
C1880 C1881 1.524 . S
C1880 C1894 1.377 . S
C1881 C1880 1.524 . S
C1881 C1882 1.397 . S
C1881 C1886 1.363 . S
C1882 H1859 0.950 . S
C1882 C1881 1.397 . S
C1882 C1883 1.334 . S
C1883 H1860 0.950 . S
C1883 C1882 1.334 . S
C1883 C1884 1.287 . S
C1884 C1883 1.287 . S
C1884 C1885 1.524 . S
C1884 H1903 0.913 . S
C1885 H1861 0.950 . S
C1885 C1884 1.524 . S
C1885 C1886 1.415 . S
C1886 H1862 0.950 . S
C1886 C1881 1.363 . S
C1886 C1885 1.415 . S
C1887 H1863 0.951 . S
C1887 C1888 1.366 . S
C1887 C1889 1.388 . S
C1888 C1887 1.366 . S
C1888 C1892 1.385 . S
C1889 H1864 0.951 . S
C1889 C1887 1.388 . S
C1889 C1890 1.366 . S
C1890 C1889 1.366 . S
C1890 C1891 1.414 . S
C1890 C1893 1.499 . S
C1891 H1865 0.950 . S
C1891 C1890 1.414 . S
C1891 C1892 1.374 . S
C1892 H1866 0.950 . S
C1892 C1888 1.385 . S
C1892 C1891 1.374 . S
C1893 C1890 1.499 . S
C1893 C1894 1.373 . S
C1893 C1895 1.389 . S
C1894 H1867 0.950 . S
C1894 C1880 1.377 . S
C1894 C1893 1.373 . S
C1895 C1879 1.377 . S
C1895 C1893 1.389 . S
C1895 C1896 1.524 . S
C1896 C1895 1.524 . S
C1896 C1897 1.397 . S
C1896 C1901 1.363 . S
C1897 H1868 0.950 . S
C1897 C1896 1.397 . S
C1897 C1898 1.334 . S
C1898 H1869 0.950 . S
C1898 C1897 1.334 . S
C1898 C1899 1.287 . S
C1899 C1898 1.287 . S
C1899 C1900 1.524 . S
C1899 H1902 0.999 . S
C1900 H1870 0.950 . S
C1900 C1899 1.524 . S
C1900 C1901 1.415 . S
C1901 H1871 0.950 . S
C1901 C1896 1.363 . S
C1901 C1900 1.415 . S
H1902 C1899 0.999 . S
H1903 C1884 0.913 . S
H1904 C1922 0.951 . S
H1905 C1924 0.951 . S
H1906 C1926 0.950 . S
H1907 C1927 0.950 . S
H1908 C1929 0.950 . S
H1909 C1932 0.950 . S
H1910 C1933 0.950 . S
H1911 C1935 0.950 . S
H1912 C1936 0.950 . S
H1913 C1937 0.951 . S
H1914 C1939 0.951 . S
H1915 C1941 0.950 . S
H1916 C1942 0.950 . S
H1917 C1944 0.950 . S
H1918 C1947 0.950 . S
H1919 C1948 0.950 . S
H1920 C1950 0.950 . S
H1921 C1951 0.950 . S
C1922 H1904 0.951 . S
C1922 C1923 1.366 . S
C1922 C1924 1.388 . S
C1923 C1922 1.366 . S
C1923 C1927 1.385 . S
C1924 H1905 0.951 . S
C1924 C1922 1.388 . S
C1924 C1925 1.366 . S
C1925 C1924 1.366 . S
C1925 C1926 1.414 . S
C1925 C1928 1.499 . S
C1926 H1906 0.950 . S
C1926 C1925 1.414 . S
C1926 C1927 1.374 . S
C1927 H1907 0.950 . S
C1927 C1923 1.385 . S
C1927 C1926 1.374 . S
C1928 C1925 1.499 . S
C1928 C1929 1.373 . S
C1928 C1930 1.389 . S
C1929 H1908 0.950 . S
C1929 C1928 1.373 . S
C1929 C1945 1.377 . S
C1930 C1928 1.389 . S
C1930 C1931 1.524 . S
C1930 C1944 1.377 . S
C1931 C1930 1.524 . S
C1931 C1932 1.397 . S
C1931 C1936 1.363 . S
C1932 H1909 0.950 . S
C1932 C1931 1.397 . S
C1932 C1933 1.334 . S
C1933 H1910 0.950 . S
C1933 C1932 1.334 . S
C1933 C1934 1.287 . S
C1934 C1933 1.287 . S
C1934 C1935 1.524 . S
C1934 H1953 0.913 . S
C1935 H1911 0.950 . S
C1935 C1934 1.524 . S
C1935 C1936 1.415 . S
C1936 H1912 0.950 . S
C1936 C1931 1.363 . S
C1936 C1935 1.415 . S
C1937 H1913 0.951 . S
C1937 C1938 1.366 . S
C1937 C1939 1.388 . S
C1938 C1937 1.366 . S
C1938 C1942 1.385 . S
C1939 H1914 0.951 . S
C1939 C1937 1.388 . S
C1939 C1940 1.366 . S
C1940 C1939 1.366 . S
C1940 C1941 1.414 . S
C1940 C1943 1.499 . S
C1941 H1915 0.950 . S
C1941 C1940 1.414 . S
C1941 C1942 1.374 . S
C1942 H1916 0.950 . S
C1942 C1938 1.385 . S
C1942 C1941 1.374 . S
C1943 C1940 1.499 . S
C1943 C1944 1.373 . S
C1943 C1945 1.389 . S
C1944 H1917 0.950 . S
C1944 C1930 1.377 . S
C1944 C1943 1.373 . S
C1945 C1929 1.377 . S
C1945 C1943 1.389 . S
C1945 C1946 1.524 . S
C1946 C1945 1.524 . S
C1946 C1947 1.397 . S
C1946 C1951 1.363 . S
C1947 H1918 0.950 . S
C1947 C1946 1.397 . S
C1947 C1948 1.334 . S
C1948 H1919 0.950 . S
C1948 C1947 1.334 . S
C1948 C1949 1.287 . S
C1949 C1948 1.287 . S
C1949 C1950 1.524 . S
C1949 H1952 0.999 . S
C1950 H1920 0.950 . S
C1950 C1949 1.524 . S
C1950 C1951 1.415 . S
C1951 H1921 0.950 . S
C1951 C1946 1.363 . S
C1951 C1950 1.415 . S
H1952 C1949 0.999 . S
H1953 C1934 0.913 . S
H1954 C1972 0.951 . S
H1955 C1974 0.951 . S
H1956 C1976 0.950 . S
H1957 C1977 0.950 . S
H1958 C1979 0.950 . S
H1959 C1982 0.950 . S
H1960 C1983 0.950 . S
H1961 C1985 0.950 . S
H1962 C1986 0.950 . S
H1963 C1987 0.951 . S
H1964 C1989 0.951 . S
H1965 C1991 0.950 . S
H1966 C1992 0.950 . S
H1967 C1994 0.950 . S
H1968 C1997 0.950 . S
H1969 C1998 0.950 . S
H1970 C2000 0.950 . S
H1971 C2001 0.950 . S
C1972 H1954 0.951 . S
C1972 C1973 1.366 . S
C1972 C1974 1.388 . S
C1973 C1972 1.366 . S
C1973 C1977 1.385 . S
C1974 H1955 0.951 . S
C1974 C1972 1.388 . S
C1974 C1975 1.366 . S
C1975 C1974 1.366 . S
C1975 C1976 1.414 . S
C1975 C1978 1.499 . S
C1976 H1956 0.950 . S
C1976 C1975 1.414 . S
C1976 C1977 1.374 . S
C1977 H1957 0.950 . S
C1977 C1973 1.385 . S
C1977 C1976 1.374 . S
C1978 C1975 1.499 . S
C1978 C1979 1.373 . S
C1978 C1980 1.389 . S
C1979 H1958 0.950 . S
C1979 C1978 1.373 . S
C1979 C1995 1.377 . S
C1980 C1978 1.389 . S
C1980 C1981 1.524 . S
C1980 C1994 1.377 . S
C1981 C1980 1.524 . S
C1981 C1982 1.397 . S
C1981 C1986 1.363 . S
C1982 H1959 0.950 . S
C1982 C1981 1.397 . S
C1982 C1983 1.334 . S
C1983 H1960 0.950 . S
C1983 C1982 1.334 . S
C1983 C1984 1.287 . S
C1984 C1983 1.287 . S
C1984 C1985 1.524 . S
C1984 H2003 0.913 . S
C1985 H1961 0.950 . S
C1985 C1984 1.524 . S
C1985 C1986 1.415 . S
C1986 H1962 0.950 . S
C1986 C1981 1.363 . S
C1986 C1985 1.415 . S
C1987 H1963 0.951 . S
C1987 C1988 1.366 . S
C1987 C1989 1.388 . S
C1988 C1987 1.366 . S
C1988 C1992 1.385 . S
C1989 H1964 0.951 . S
C1989 C1987 1.388 . S
C1989 C1990 1.366 . S
C1990 C1989 1.366 . S
C1990 C1991 1.414 . S
C1990 C1993 1.499 . S
C1991 H1965 0.950 . S
C1991 C1990 1.414 . S
C1991 C1992 1.374 . S
C1992 H1966 0.950 . S
C1992 C1988 1.385 . S
C1992 C1991 1.374 . S
C1993 C1990 1.499 . S
C1993 C1994 1.373 . S
C1993 C1995 1.389 . S
C1994 H1967 0.950 . S
C1994 C1980 1.377 . S
C1994 C1993 1.373 . S
C1995 C1979 1.377 . S
C1995 C1993 1.389 . S
C1995 C1996 1.524 . S
C1996 C1995 1.524 . S
C1996 C1997 1.397 . S
C1996 C2001 1.363 . S
C1997 H1968 0.950 . S
C1997 C1996 1.397 . S
C1997 C1998 1.334 . S
C1998 H1969 0.950 . S
C1998 C1997 1.334 . S
C1998 C1999 1.287 . S
C1999 C1998 1.287 . S
C1999 C2000 1.524 . S
C1999 H2002 0.999 . S
C2000 H1970 0.950 . S
C2000 C1999 1.524 . S
C2000 C2001 1.415 . S
C2001 H1971 0.950 . S
C2001 C1996 1.363 . S
C2001 C2000 1.415 . S
H2002 C1999 0.999 . S
H2003 C1984 0.913 . S
H2004 C2022 0.951 . S
H2005 C2024 0.951 1_565 S
H2006 C2026 0.950 . S
H2007 C2027 0.950 . S
H2008 C2029 0.950 . S
H2009 C2032 0.950 . S
H2010 C2033 0.950 . S
H2011 C2035 0.950 . S
H2012 C2036 0.950 . S
H2013 C2037 0.951 . S
H2014 C2039 0.951 . S
H2015 C2041 0.950 . S
H2016 C2042 0.950 . S
H2017 C2044 0.950 . S
H2018 C2047 0.950 . S
H2019 C2048 0.950 . S
H2020 C2050 0.950 . S
H2021 C2051 0.950 . S
C2022 H2004 0.951 . S
C2022 C2023 1.366 . S
C2022 C2024 1.388 . S
C2023 C2022 1.366 . S
C2023 C2027 1.385 . S
C2024 H2005 0.951 1_545 S
C2024 C2022 1.388 . S
C2024 C2025 1.366 1_545 S
C2025 C2024 1.366 1_565 S
C2025 C2026 1.414 1_565 S
C2025 C2028 1.499 . S
C2026 H2006 0.950 . S
C2026 C2025 1.414 1_545 S
C2026 C2027 1.374 . S
C2027 H2007 0.950 . S
C2027 C2023 1.385 . S
C2027 C2026 1.374 . S
C2028 C2025 1.499 . S
C2028 C2029 1.373 . S
C2028 C2030 1.389 . S
C2029 H2008 0.950 . S
C2029 C2028 1.373 . S
C2029 C2045 1.377 . S
C2030 C2028 1.389 . S
C2030 C2031 1.524 . S
C2030 C2044 1.377 . S
C2031 C2030 1.524 . S
C2031 C2032 1.397 . S
C2031 C2036 1.363 . S
C2032 H2009 0.950 . S
C2032 C2031 1.397 . S
C2032 C2033 1.334 1_565 S
C2033 H2010 0.950 . S
C2033 C2032 1.334 1_545 S
C2033 C2034 1.287 1_545 S
C2034 C2033 1.287 1_565 S
C2034 C2035 1.524 . S
C2034 H2053 0.913 1_565 S
C2035 H2011 0.950 . S
C2035 C2034 1.524 . S
C2035 C2036 1.415 . S
C2036 H2012 0.950 . S
C2036 C2031 1.363 . S
C2036 C2035 1.415 . S
C2037 H2013 0.951 . S
C2037 C2038 1.366 . S
C2037 C2039 1.388 . S
C2038 C2037 1.366 . S
C2038 C2042 1.385 . S
C2039 H2014 0.951 . S
C2039 C2037 1.388 . S
C2039 C2040 1.366 . S
C2040 C2039 1.366 . S
C2040 C2041 1.414 . S
C2040 C2043 1.499 . S
C2041 H2015 0.950 . S
C2041 C2040 1.414 . S
C2041 C2042 1.374 . S
C2042 H2016 0.950 . S
C2042 C2038 1.385 . S
C2042 C2041 1.374 . S
C2043 C2040 1.499 . S
C2043 C2044 1.373 . S
C2043 C2045 1.389 . S
C2044 H2017 0.950 . S
C2044 C2030 1.377 . S
C2044 C2043 1.373 . S
C2045 C2029 1.377 . S
C2045 C2043 1.389 . S
C2045 C2046 1.524 . S
C2046 C2045 1.524 . S
C2046 C2047 1.397 . S
C2046 C2051 1.363 . S
C2047 H2018 0.950 . S
C2047 C2046 1.397 . S
C2047 C2048 1.334 . S
C2048 H2019 0.950 . S
C2048 C2047 1.334 . S
C2048 C2049 1.287 . S
C2049 C2048 1.287 . S
C2049 C2050 1.524 . S
C2049 H2052 0.999 . S
C2050 H2020 0.950 . S
C2050 C2049 1.524 . S
C2050 C2051 1.415 . S
C2051 H2021 0.950 . S
C2051 C2046 1.363 . S
C2051 C2050 1.415 . S
H2052 C2049 0.999 . S
H2053 C2034 0.913 1_545 S
H2054 C2072 0.951 . S
H2055 C2074 0.951 . S
H2056 C2076 0.950 . S
H2057 C2077 0.950 . S
H2058 C2079 0.950 . S
H2059 C2082 0.950 . S
H2060 C2083 0.950 . S
H2061 C2085 0.950 . S
H2062 C2086 0.950 . S
H2063 C2087 0.951 . S
H2064 C2089 0.951 . S
H2065 C2091 0.950 . S
H2066 C2092 0.950 . S
H2067 C2094 0.950 . S
H2068 C2097 0.950 . S
H2069 C2098 0.950 . S
H2070 C2100 0.950 . S
H2071 C2101 0.950 . S
C2072 H2054 0.951 . S
C2072 C2073 1.366 . S
C2072 C2074 1.388 1_655 S
C2073 C2072 1.366 . S
C2073 C2077 1.385 . S
C2074 H2055 0.951 . S
C2074 C2072 1.388 1_455 S
C2074 C2075 1.366 . S
C2075 C2074 1.366 . S
C2075 C2076 1.414 . S
C2075 C2078 1.499 . S
C2076 H2056 0.950 . S
C2076 C2075 1.414 . S
C2076 C2077 1.374 1_455 S
C2077 H2057 0.950 . S
C2077 C2073 1.385 . S
C2077 C2076 1.374 1_655 S
C2078 C2075 1.499 . S
C2078 C2079 1.373 . S
C2078 C2080 1.389 . S
C2079 H2058 0.950 . S
C2079 C2078 1.373 . S
C2079 C2095 1.377 . S
C2080 C2078 1.389 . S
C2080 C2081 1.524 . S
C2080 C2094 1.377 . S
C2081 C2080 1.524 . S
C2081 C2082 1.397 . S
C2081 C2086 1.363 . S
C2082 H2059 0.950 . S
C2082 C2081 1.397 . S
C2082 C2083 1.334 1_455 S
C2083 H2060 0.950 . S
C2083 C2082 1.334 1_655 S
C2083 C2084 1.287 . S
C2084 C2083 1.287 . S
C2084 C2085 1.524 1_655 S
C2084 H2103 0.913 . S
C2085 H2061 0.950 . S
C2085 C2084 1.524 1_455 S
C2085 C2086 1.415 . S
C2086 H2062 0.950 . S
C2086 C2081 1.363 . S
C2086 C2085 1.415 . S
C2087 H2063 0.951 . S
C2087 C2088 1.366 . S
C2087 C2089 1.388 . S
C2088 C2087 1.366 . S
C2088 C2092 1.385 . S
C2089 H2064 0.951 . S
C2089 C2087 1.388 . S
C2089 C2090 1.366 . S
C2090 C2089 1.366 . S
C2090 C2091 1.414 . S
C2090 C2093 1.499 . S
C2091 H2065 0.950 . S
C2091 C2090 1.414 . S
C2091 C2092 1.374 . S
C2092 H2066 0.950 . S
C2092 C2088 1.385 . S
C2092 C2091 1.374 . S
C2093 C2090 1.499 . S
C2093 C2094 1.373 . S
C2093 C2095 1.389 . S
C2094 H2067 0.950 . S
C2094 C2080 1.377 . S
C2094 C2093 1.373 . S
C2095 C2079 1.377 . S
C2095 C2093 1.389 . S
C2095 C2096 1.524 . S
C2096 C2095 1.524 . S
C2096 C2097 1.397 . S
C2096 C2101 1.363 . S
C2097 H2068 0.950 . S
C2097 C2096 1.397 . S
C2097 C2098 1.334 . S
C2098 H2069 0.950 . S
C2098 C2097 1.334 . S
C2098 C2099 1.287 . S
C2099 C2098 1.287 . S
C2099 C2100 1.524 . S
C2099 H2102 0.999 . S
C2100 H2070 0.950 . S
C2100 C2099 1.524 . S
C2100 C2101 1.415 . S
C2101 H2071 0.950 . S
C2101 C2096 1.363 . S
C2101 C2100 1.415 . S
H2102 C2099 0.999 . S
H2103 C2084 0.913 . S
H2104 C2122 0.951 . S
H2105 C2124 0.951 . S
H2106 C2126 0.950 . S
H2107 C2127 0.950 . S
H2108 C2129 0.950 . S
H2109 C2132 0.950 . S
H2110 C2133 0.950 . S
H2111 C2135 0.950 . S
H2112 C2136 0.950 . S
H2113 C2137 0.951 . S
H2114 C2139 0.951 . S
H2115 C2141 0.950 . S
H2116 C2142 0.950 . S
H2117 C2144 0.950 . S
H2118 C2147 0.950 . S
H2119 C2148 0.950 . S
H2120 C2150 0.950 . S
H2121 C2151 0.950 . S
C2122 H2104 0.951 . S
C2122 C2123 1.366 . S
C2122 C2124 1.388 . S
C2123 C2122 1.366 . S
C2123 C2127 1.385 . S
C2124 H2105 0.951 . S
C2124 C2122 1.388 . S
C2124 C2125 1.366 . S
C2125 C2124 1.366 . S
C2125 C2126 1.414 . S
C2125 C2128 1.499 . S
C2126 H2106 0.950 . S
C2126 C2125 1.414 . S
C2126 C2127 1.374 . S
C2127 H2107 0.950 . S
C2127 C2123 1.385 . S
C2127 C2126 1.374 . S
C2128 C2125 1.499 . S
C2128 C2129 1.373 . S
C2128 C2130 1.389 . S
C2129 H2108 0.950 . S
C2129 C2128 1.373 . S
C2129 C2145 1.377 . S
C2130 C2128 1.389 . S
C2130 C2131 1.524 . S
C2130 C2144 1.377 . S
C2131 C2130 1.524 . S
C2131 C2132 1.397 . S
C2131 C2136 1.363 . S
C2132 H2109 0.950 . S
C2132 C2131 1.397 . S
C2132 C2133 1.334 . S
C2133 H2110 0.950 . S
C2133 C2132 1.334 . S
C2133 C2134 1.287 . S
C2134 C2133 1.287 . S
C2134 C2135 1.524 . S
C2134 H2153 0.913 . S
C2135 H2111 0.950 . S
C2135 C2134 1.524 . S
C2135 C2136 1.415 . S
C2136 H2112 0.950 . S
C2136 C2131 1.363 . S
C2136 C2135 1.415 . S
C2137 H2113 0.951 . S
C2137 C2138 1.366 . S
C2137 C2139 1.388 . S
C2138 C2137 1.366 . S
C2138 C2142 1.385 . S
C2139 H2114 0.951 . S
C2139 C2137 1.388 . S
C2139 C2140 1.366 . S
C2140 C2139 1.366 . S
C2140 C2141 1.414 . S
C2140 C2143 1.499 . S
C2141 H2115 0.950 . S
C2141 C2140 1.414 . S
C2141 C2142 1.374 . S
C2142 H2116 0.950 . S
C2142 C2138 1.385 . S
C2142 C2141 1.374 . S
C2143 C2140 1.499 . S
C2143 C2144 1.373 . S
C2143 C2145 1.389 . S
C2144 H2117 0.950 . S
C2144 C2130 1.377 . S
C2144 C2143 1.373 . S
C2145 C2129 1.377 . S
C2145 C2143 1.389 . S
C2145 C2146 1.524 . S
C2146 C2145 1.524 . S
C2146 C2147 1.397 . S
C2146 C2151 1.363 . S
C2147 H2118 0.950 . S
C2147 C2146 1.397 . S
C2147 C2148 1.334 . S
C2148 H2119 0.950 . S
C2148 C2147 1.334 . S
C2148 C2149 1.287 . S
C2149 C2148 1.287 . S
C2149 C2150 1.524 . S
C2149 H2152 0.999 . S
C2150 H2120 0.950 . S
C2150 C2149 1.524 . S
C2150 C2151 1.415 . S
C2151 H2121 0.950 . S
C2151 C2146 1.363 . S
C2151 C2150 1.415 . S
H2152 C2149 0.999 . S
H2153 C2134 0.913 . S
H2154 C2172 0.951 . S
H2155 C2174 0.951 . S
H2156 C2176 0.950 . S
H2157 C2177 0.950 . S
H2158 C2179 0.950 . S
H2159 C2182 0.950 . S
H2160 C2183 0.950 . S
H2161 C2185 0.950 . S
H2162 C2186 0.950 . S
H2163 C2187 0.951 . S
H2164 C2189 0.951 . S
H2165 C2191 0.950 . S
H2166 C2192 0.950 . S
H2167 C2194 0.950 . S
H2168 C2197 0.950 . S
H2169 C2198 0.950 . S
H2170 C2200 0.950 . S
H2171 C2201 0.950 . S
C2172 H2154 0.951 . S
C2172 C2173 1.366 . S
C2172 C2174 1.388 . S
C2173 C2172 1.366 . S
C2173 C2177 1.385 . S
C2174 H2155 0.951 . S
C2174 C2172 1.388 . S
C2174 C2175 1.366 . S
C2175 C2174 1.366 . S
C2175 C2176 1.414 . S
C2175 C2178 1.499 . S
C2176 H2156 0.950 . S
C2176 C2175 1.414 . S
C2176 C2177 1.374 . S
C2177 H2157 0.950 . S
C2177 C2173 1.385 . S
C2177 C2176 1.374 . S
C2178 C2175 1.499 . S
C2178 C2179 1.373 . S
C2178 C2180 1.389 . S
C2179 H2158 0.950 . S
C2179 C2178 1.373 . S
C2179 C2195 1.377 . S
C2180 C2178 1.389 . S
C2180 C2181 1.524 . S
C2180 C2194 1.377 . S
C2181 C2180 1.524 . S
C2181 C2182 1.397 . S
C2181 C2186 1.363 . S
C2182 H2159 0.950 . S
C2182 C2181 1.397 . S
C2182 C2183 1.334 . S
C2183 H2160 0.950 . S
C2183 C2182 1.334 . S
C2183 C2184 1.287 . S
C2184 C2183 1.287 . S
C2184 C2185 1.524 . S
C2184 H2203 0.913 . S
C2185 H2161 0.950 . S
C2185 C2184 1.524 . S
C2185 C2186 1.415 . S
C2186 H2162 0.950 . S
C2186 C2181 1.363 . S
C2186 C2185 1.415 . S
C2187 H2163 0.951 . S
C2187 C2188 1.366 . S
C2187 C2189 1.388 . S
C2188 C2187 1.366 . S
C2188 C2192 1.385 . S
C2189 H2164 0.951 . S
C2189 C2187 1.388 . S
C2189 C2190 1.366 . S
C2190 C2189 1.366 . S
C2190 C2191 1.414 . S
C2190 C2193 1.499 . S
C2191 H2165 0.950 . S
C2191 C2190 1.414 . S
C2191 C2192 1.374 . S
C2192 H2166 0.950 . S
C2192 C2188 1.385 . S
C2192 C2191 1.374 . S
C2193 C2190 1.499 . S
C2193 C2194 1.373 . S
C2193 C2195 1.389 . S
C2194 H2167 0.950 . S
C2194 C2180 1.377 . S
C2194 C2193 1.373 . S
C2195 C2179 1.377 . S
C2195 C2193 1.389 . S
C2195 C2196 1.524 . S
C2196 C2195 1.524 . S
C2196 C2197 1.397 . S
C2196 C2201 1.363 . S
C2197 H2168 0.950 . S
C2197 C2196 1.397 . S
C2197 C2198 1.334 . S
C2198 H2169 0.950 . S
C2198 C2197 1.334 . S
C2198 C2199 1.287 . S
C2199 C2198 1.287 . S
C2199 C2200 1.524 . S
C2199 H2202 0.999 . S
C2200 H2170 0.950 . S
C2200 C2199 1.524 . S
C2200 C2201 1.415 . S
C2201 H2171 0.950 . S
C2201 C2196 1.363 . S
C2201 C2200 1.415 . S
H2202 C2199 0.999 . S
H2203 C2184 0.913 . S
H2204 C2222 0.951 . S
H2205 C2224 0.951 . S
H2206 C2226 0.950 . S
H2207 C2227 0.950 . S
H2208 C2229 0.950 . S
H2209 C2232 0.950 . S
H2210 C2233 0.950 . S
H2211 C2235 0.950 . S
H2212 C2236 0.950 . S
H2213 C2237 0.951 . S
H2214 C2239 0.951 . S
H2215 C2241 0.950 . S
H2216 C2242 0.950 . S
H2217 C2244 0.950 . S
H2218 C2247 0.950 . S
H2219 C2248 0.950 . S
H2220 C2250 0.950 . S
H2221 C2251 0.950 . S
C2222 H2204 0.951 . S
C2222 C2223 1.366 . S
C2222 C2224 1.388 . S
C2223 C2222 1.366 . S
C2223 C2227 1.385 . S
C2224 H2205 0.951 . S
C2224 C2222 1.388 . S
C2224 C2225 1.366 . S
C2225 C2224 1.366 . S
C2225 C2226 1.414 . S
C2225 C2228 1.499 . S
C2226 H2206 0.950 . S
C2226 C2225 1.414 . S
C2226 C2227 1.374 . S
C2227 H2207 0.950 . S
C2227 C2223 1.385 . S
C2227 C2226 1.374 . S
C2228 C2225 1.499 . S
C2228 C2229 1.373 . S
C2228 C2230 1.389 . S
C2229 H2208 0.950 . S
C2229 C2228 1.373 . S
C2229 C2245 1.377 . S
C2230 C2228 1.389 . S
C2230 C2231 1.524 . S
C2230 C2244 1.377 . S
C2231 C2230 1.524 . S
C2231 C2232 1.397 . S
C2231 C2236 1.363 . S
C2232 H2209 0.950 . S
C2232 C2231 1.397 . S
C2232 C2233 1.334 . S
C2233 H2210 0.950 . S
C2233 C2232 1.334 . S
C2233 C2234 1.287 . S
C2234 C2233 1.287 . S
C2234 C2235 1.524 . S
C2234 H2253 0.913 . S
C2235 H2211 0.950 . S
C2235 C2234 1.524 . S
C2235 C2236 1.415 . S
C2236 H2212 0.950 . S
C2236 C2231 1.363 . S
C2236 C2235 1.415 . S
C2237 H2213 0.951 . S
C2237 C2238 1.366 . S
C2237 C2239 1.388 . S
C2238 C2237 1.366 . S
C2238 C2242 1.385 . S
C2239 H2214 0.951 . S
C2239 C2237 1.388 . S
C2239 C2240 1.366 . S
C2240 C2239 1.366 . S
C2240 C2241 1.414 . S
C2240 C2243 1.499 . S
C2241 H2215 0.950 . S
C2241 C2240 1.414 . S
C2241 C2242 1.374 . S
C2242 H2216 0.950 . S
C2242 C2238 1.385 . S
C2242 C2241 1.374 . S
C2243 C2240 1.499 . S
C2243 C2244 1.373 . S
C2243 C2245 1.389 . S
C2244 H2217 0.950 . S
C2244 C2230 1.377 . S
C2244 C2243 1.373 . S
C2245 C2229 1.377 . S
C2245 C2243 1.389 . S
C2245 C2246 1.524 . S
C2246 C2245 1.524 . S
C2246 C2247 1.397 . S
C2246 C2251 1.363 . S
C2247 H2218 0.950 . S
C2247 C2246 1.397 . S
C2247 C2248 1.334 . S
C2248 H2219 0.950 . S
C2248 C2247 1.334 . S
C2248 C2249 1.287 . S
C2249 C2248 1.287 . S
C2249 C2250 1.524 . S
C2249 H2252 0.999 . S
C2250 H2220 0.950 . S
C2250 C2249 1.524 . S
C2250 C2251 1.415 . S
C2251 H2221 0.950 . S
C2251 C2246 1.363 . S
C2251 C2250 1.415 . S
H2252 C2249 0.999 . S
H2253 C2234 0.913 . S
H2254 C2272 0.951 . S
H2255 C2274 0.951 . S
H2256 C2276 0.950 . S
H2257 C2277 0.950 . S
H2258 C2279 0.950 . S
H2259 C2282 0.950 . S
H2260 C2283 0.950 . S
H2261 C2285 0.950 . S
H2262 C2286 0.950 . S
H2263 C2287 0.951 . S
H2264 C2289 0.951 . S
H2265 C2291 0.950 . S
H2266 C2292 0.950 . S
H2267 C2294 0.950 . S
H2268 C2297 0.950 . S
H2269 C2298 0.950 . S
H2270 C2300 0.950 . S
H2271 C2301 0.950 . S
C2272 H2254 0.951 . S
C2272 C2273 1.366 . S
C2272 C2274 1.388 . S
C2273 C2272 1.366 . S
C2273 C2277 1.385 . S
C2274 H2255 0.951 . S
C2274 C2272 1.388 . S
C2274 C2275 1.366 . S
C2275 C2274 1.366 . S
C2275 C2276 1.414 . S
C2275 C2278 1.499 . S
C2276 H2256 0.950 . S
C2276 C2275 1.414 . S
C2276 C2277 1.374 . S
C2277 H2257 0.950 . S
C2277 C2273 1.385 . S
C2277 C2276 1.374 . S
C2278 C2275 1.499 . S
C2278 C2279 1.373 . S
C2278 C2280 1.389 . S
C2279 H2258 0.950 . S
C2279 C2278 1.373 . S
C2279 C2295 1.377 . S
C2280 C2278 1.389 . S
C2280 C2281 1.524 . S
C2280 C2294 1.377 . S
C2281 C2280 1.524 . S
C2281 C2282 1.397 . S
C2281 C2286 1.363 . S
C2282 H2259 0.950 . S
C2282 C2281 1.397 . S
C2282 C2283 1.334 . S
C2283 H2260 0.950 . S
C2283 C2282 1.334 . S
C2283 C2284 1.287 . S
C2284 C2283 1.287 . S
C2284 C2285 1.524 . S
C2284 H2303 0.913 . S
C2285 H2261 0.950 . S
C2285 C2284 1.524 . S
C2285 C2286 1.415 . S
C2286 H2262 0.950 . S
C2286 C2281 1.363 . S
C2286 C2285 1.415 . S
C2287 H2263 0.951 . S
C2287 C2288 1.366 . S
C2287 C2289 1.388 . S
C2288 C2287 1.366 . S
C2288 C2292 1.385 . S
C2289 H2264 0.951 . S
C2289 C2287 1.388 . S
C2289 C2290 1.366 . S
C2290 C2289 1.366 . S
C2290 C2291 1.414 . S
C2290 C2293 1.499 . S
C2291 H2265 0.950 . S
C2291 C2290 1.414 . S
C2291 C2292 1.374 . S
C2292 H2266 0.950 . S
C2292 C2288 1.385 . S
C2292 C2291 1.374 . S
C2293 C2290 1.499 . S
C2293 C2294 1.373 . S
C2293 C2295 1.389 . S
C2294 H2267 0.950 . S
C2294 C2280 1.377 . S
C2294 C2293 1.373 . S
C2295 C2279 1.377 . S
C2295 C2293 1.389 . S
C2295 C2296 1.524 . S
C2296 C2295 1.524 . S
C2296 C2297 1.397 . S
C2296 C2301 1.363 . S
C2297 H2268 0.950 . S
C2297 C2296 1.397 . S
C2297 C2298 1.334 . S
C2298 H2269 0.950 . S
C2298 C2297 1.334 . S
C2298 C2299 1.287 . S
C2299 C2298 1.287 . S
C2299 C2300 1.524 . S
C2299 H2302 0.999 . S
C2300 H2270 0.950 . S
C2300 C2299 1.524 . S
C2300 C2301 1.415 . S
C2301 H2271 0.950 . S
C2301 C2296 1.363 . S
C2301 C2300 1.415 . S
H2302 C2299 0.999 . S
H2303 C2284 0.913 . S
H2304 C2322 0.951 . S
H2305 C2324 0.951 . S
H2306 C2326 0.950 . S
H2307 C2327 0.950 . S
H2308 C2329 0.950 . S
H2309 C2332 0.950 . S
H2310 C2333 0.950 . S
H2311 C2335 0.950 . S
H2312 C2336 0.950 . S
H2313 C2337 0.951 . S
H2314 C2339 0.951 . S
H2315 C2341 0.950 . S
H2316 C2342 0.950 . S
H2317 C2344 0.950 . S
H2318 C2347 0.950 . S
H2319 C2348 0.950 . S
H2320 C2350 0.950 . S
H2321 C2351 0.950 . S
C2322 H2304 0.951 . S
C2322 C2323 1.366 . S
C2322 C2324 1.388 . S
C2323 C2322 1.366 . S
C2323 C2327 1.385 . S
C2324 H2305 0.951 . S
C2324 C2322 1.388 . S
C2324 C2325 1.366 . S
C2325 C2324 1.366 . S
C2325 C2326 1.414 . S
C2325 C2328 1.499 . S
C2326 H2306 0.950 . S
C2326 C2325 1.414 . S
C2326 C2327 1.374 . S
C2327 H2307 0.950 . S
C2327 C2323 1.385 . S
C2327 C2326 1.374 . S
C2328 C2325 1.499 . S
C2328 C2329 1.373 1_565 S
C2328 C2330 1.389 . S
C2329 H2308 0.950 . S
C2329 C2328 1.373 1_545 S
C2329 C2345 1.377 . S
C2330 C2328 1.389 . S
C2330 C2331 1.524 . S
C2330 C2344 1.377 1_565 S
C2331 C2330 1.524 . S
C2331 C2332 1.397 . S
C2331 C2336 1.363 . S
C2332 H2309 0.950 . S
C2332 C2331 1.397 . S
C2332 C2333 1.334 . S
C2333 H2310 0.950 . S
C2333 C2332 1.334 . S
C2333 C2334 1.287 . S
C2334 C2333 1.287 . S
C2334 C2335 1.524 . S
C2334 H2353 0.913 . S
C2335 H2311 0.950 . S
C2335 C2334 1.524 . S
C2335 C2336 1.415 . S
C2336 H2312 0.950 . S
C2336 C2331 1.363 . S
C2336 C2335 1.415 . S
C2337 H2313 0.951 . S
C2337 C2338 1.366 . S
C2337 C2339 1.388 . S
C2338 C2337 1.366 . S
C2338 C2342 1.385 . S
C2339 H2314 0.951 . S
C2339 C2337 1.388 . S
C2339 C2340 1.366 . S
C2340 C2339 1.366 . S
C2340 C2341 1.414 . S
C2340 C2343 1.499 . S
C2341 H2315 0.950 . S
C2341 C2340 1.414 . S
C2341 C2342 1.374 . S
C2342 H2316 0.950 . S
C2342 C2338 1.385 . S
C2342 C2341 1.374 . S
C2343 C2340 1.499 . S
C2343 C2344 1.373 . S
C2343 C2345 1.389 . S
C2344 H2317 0.950 . S
C2344 C2330 1.377 1_545 S
C2344 C2343 1.373 . S
C2345 C2329 1.377 . S
C2345 C2343 1.389 . S
C2345 C2346 1.524 . S
C2346 C2345 1.524 . S
C2346 C2347 1.397 . S
C2346 C2351 1.363 . S
C2347 H2318 0.950 . S
C2347 C2346 1.397 . S
C2347 C2348 1.334 . S
C2348 H2319 0.950 . S
C2348 C2347 1.334 . S
C2348 C2349 1.287 . S
C2349 C2348 1.287 . S
C2349 C2350 1.524 . S
C2349 H2352 0.999 . S
C2350 H2320 0.950 . S
C2350 C2349 1.524 . S
C2350 C2351 1.415 . S
C2351 H2321 0.950 . S
C2351 C2346 1.363 . S
C2351 C2350 1.415 . S
H2352 C2349 0.999 . S
H2353 C2334 0.913 . S
H2354 C2372 0.951 . S
H2355 C2374 0.951 . S
H2356 C2376 0.950 . S
H2357 C2377 0.950 . S
H2358 C2379 0.950 . S
H2359 C2382 0.950 . S
H2360 C2383 0.950 . S
H2361 C2385 0.950 . S
H2362 C2386 0.950 1_655 S
H2363 C2387 0.951 . S
H2364 C2389 0.951 . S
H2365 C2391 0.950 . S
H2366 C2392 0.950 . S
H2367 C2394 0.950 . S
H2368 C2397 0.950 . S
H2369 C2398 0.950 . S
H2370 C2400 0.950 . S
H2371 C2401 0.950 1_455 S
C2372 H2354 0.951 . S
C2372 C2373 1.366 . S
C2372 C2374 1.388 . S
C2373 C2372 1.366 . S
C2373 C2377 1.385 . S
C2374 H2355 0.951 . S
C2374 C2372 1.388 . S
C2374 C2375 1.366 . S
C2375 C2374 1.366 . S
C2375 C2376 1.414 . S
C2375 C2378 1.499 . S
C2376 H2356 0.950 . S
C2376 C2375 1.414 . S
C2376 C2377 1.374 . S
C2377 H2357 0.950 . S
C2377 C2373 1.385 . S
C2377 C2376 1.374 . S
C2378 C2375 1.499 . S
C2378 C2379 1.373 . S
C2378 C2380 1.389 . S
C2379 H2358 0.950 . S
C2379 C2378 1.373 . S
C2379 C2395 1.377 1_455 S
C2380 C2378 1.389 . S
C2380 C2381 1.524 . S
C2380 C2394 1.377 1_455 S
C2381 C2380 1.524 . S
C2381 C2382 1.397 . S
C2381 C2386 1.363 . S
C2382 H2359 0.950 . S
C2382 C2381 1.397 . S
C2382 C2383 1.334 . S
C2383 H2360 0.950 . S
C2383 C2382 1.334 . S
C2383 C2384 1.287 . S
C2384 C2383 1.287 . S
C2384 C2385 1.524 . S
C2384 H2403 0.913 . S
C2385 H2361 0.950 . S
C2385 C2384 1.524 . S
C2385 C2386 1.415 . S
C2386 H2362 0.950 1_455 S
C2386 C2381 1.363 . S
C2386 C2385 1.415 . S
C2387 H2363 0.951 . S
C2387 C2388 1.366 . S
C2387 C2389 1.388 . S
C2388 C2387 1.366 . S
C2388 C2392 1.385 . S
C2389 H2364 0.951 . S
C2389 C2387 1.388 . S
C2389 C2390 1.366 . S
C2390 C2389 1.366 . S
C2390 C2391 1.414 . S
C2390 C2393 1.499 . S
C2391 H2365 0.950 . S
C2391 C2390 1.414 . S
C2391 C2392 1.374 . S
C2392 H2366 0.950 . S
C2392 C2388 1.385 . S
C2392 C2391 1.374 . S
C2393 C2390 1.499 . S
C2393 C2394 1.373 . S
C2393 C2395 1.389 . S
C2394 H2367 0.950 . S
C2394 C2380 1.377 1_655 S
C2394 C2393 1.373 . S
C2395 C2379 1.377 1_655 S
C2395 C2393 1.389 . S
C2395 C2396 1.524 . S
C2396 C2395 1.524 . S
C2396 C2397 1.397 . S
C2396 C2401 1.363 . S
C2397 H2368 0.950 . S
C2397 C2396 1.397 . S
C2397 C2398 1.334 . S
C2398 H2369 0.950 . S
C2398 C2397 1.334 . S
C2398 C2399 1.287 . S
C2399 C2398 1.287 . S
C2399 C2400 1.524 . S
C2399 H2402 0.999 . S
C2400 H2370 0.950 . S
C2400 C2399 1.524 . S
C2400 C2401 1.415 . S
C2401 H2371 0.950 1_655 S
C2401 C2396 1.363 . S
C2401 C2400 1.415 . S
H2402 C2399 0.999 . S
H2403 C2384 0.913 . S
H2404 C2422 0.951 . S
H2405 C2424 0.951 . S
H2406 C2426 0.950 . S
H2407 C2427 0.950 . S
H2408 C2429 0.950 . S
H2409 C2432 0.950 . S
H2410 C2433 0.950 . S
H2411 C2435 0.950 . S
H2412 C2436 0.950 . S
H2413 C2437 0.951 . S
H2414 C2439 0.951 . S
H2415 C2441 0.950 . S
H2416 C2442 0.950 . S
H2417 C2444 0.950 . S
H2418 C2447 0.950 . S
H2419 C2448 0.950 . S
H2420 C2450 0.950 . S
H2421 C2451 0.950 . S
C2422 H2404 0.951 . S
C2422 C2423 1.366 . S
C2422 C2424 1.388 . S
C2423 C2422 1.366 . S
C2423 C2427 1.385 . S
C2424 H2405 0.951 . S
C2424 C2422 1.388 . S
C2424 C2425 1.366 . S
C2425 C2424 1.366 . S
C2425 C2426 1.414 . S
C2425 C2428 1.499 . S
C2426 H2406 0.950 . S
C2426 C2425 1.414 . S
C2426 C2427 1.374 . S
C2427 H2407 0.950 . S
C2427 C2423 1.385 . S
C2427 C2426 1.374 . S
C2428 C2425 1.499 . S
C2428 C2429 1.373 . S
C2428 C2430 1.389 . S
C2429 H2408 0.950 . S
C2429 C2428 1.373 . S
C2429 C2445 1.377 . S
C2430 C2428 1.389 . S
C2430 C2431 1.524 . S
C2430 C2444 1.377 . S
C2431 C2430 1.524 . S
C2431 C2432 1.397 . S
C2431 C2436 1.363 . S
C2432 H2409 0.950 . S
C2432 C2431 1.397 . S
C2432 C2433 1.334 . S
C2433 H2410 0.950 . S
C2433 C2432 1.334 . S
C2433 C2434 1.287 . S
C2434 C2433 1.287 . S
C2434 C2435 1.524 . S
C2434 H2453 0.913 . S
C2435 H2411 0.950 . S
C2435 C2434 1.524 . S
C2435 C2436 1.415 . S
C2436 H2412 0.950 . S
C2436 C2431 1.363 . S
C2436 C2435 1.415 . S
C2437 H2413 0.951 . S
C2437 C2438 1.366 . S
C2437 C2439 1.388 . S
C2438 C2437 1.366 . S
C2438 C2442 1.385 . S
C2439 H2414 0.951 . S
C2439 C2437 1.388 . S
C2439 C2440 1.366 . S
C2440 C2439 1.366 . S
C2440 C2441 1.414 . S
C2440 C2443 1.499 . S
C2441 H2415 0.950 . S
C2441 C2440 1.414 . S
C2441 C2442 1.374 . S
C2442 H2416 0.950 . S
C2442 C2438 1.385 . S
C2442 C2441 1.374 . S
C2443 C2440 1.499 . S
C2443 C2444 1.373 . S
C2443 C2445 1.389 . S
C2444 H2417 0.950 . S
C2444 C2430 1.377 . S
C2444 C2443 1.373 . S
C2445 C2429 1.377 . S
C2445 C2443 1.389 . S
C2445 C2446 1.524 . S
C2446 C2445 1.524 . S
C2446 C2447 1.397 . S
C2446 C2451 1.363 . S
C2447 H2418 0.950 . S
C2447 C2446 1.397 . S
C2447 C2448 1.334 . S
C2448 H2419 0.950 . S
C2448 C2447 1.334 . S
C2448 C2449 1.287 . S
C2449 C2448 1.287 . S
C2449 C2450 1.524 . S
C2449 H2452 0.999 . S
C2450 H2420 0.950 . S
C2450 C2449 1.524 . S
C2450 C2451 1.415 . S
C2451 H2421 0.950 . S
C2451 C2446 1.363 . S
C2451 C2450 1.415 . S
H2452 C2449 0.999 . S
H2453 C2434 0.913 . S
H2454 C2472 0.951 . S
H2455 C2474 0.951 1_655 S
H2456 C2476 0.951 . S
H2457 C2477 0.950 . S
H2458 C2479 0.950 . S
H2459 C2482 0.950 . S
H2460 C2483 0.950 . S
H2461 C2485 0.950 . S
H2462 C2486 0.950 . S
H2463 C2487 0.951 . S
H2464 C2489 0.951 . S
H2465 C2491 0.950 . S
H2466 C2492 0.950 . S
H2467 C2494 0.950 . S
H2468 C2497 0.950 . S
H2469 C2498 0.950 . S
H2470 C2500 0.950 . S
H2471 C2501 0.950 . S
C2472 H2454 0.951 . S
C2472 C2473 1.366 . S
C2472 C2474 1.388 . S
C2473 C2472 1.366 . S
C2473 C2477 1.385 . S
C2474 H2455 0.951 1_455 S
C2474 C2472 1.388 . S
C2474 C2475 1.366 1_455 S
C2475 C2474 1.366 1_655 S
C2475 C2476 1.414 1_655 S
C2475 C2478 1.499 . S
C2476 H2456 0.951 . S
C2476 C2475 1.414 1_455 S
C2476 C2477 1.374 . S
C2477 H2457 0.950 . S
C2477 C2473 1.385 . S
C2477 C2476 1.374 . S
C2478 C2475 1.499 . S
C2478 C2479 1.373 . S
C2478 C2480 1.389 . S
C2479 H2458 0.950 . S
C2479 C2478 1.373 . S
C2479 C2495 1.377 . S
C2480 C2478 1.389 . S
C2480 C2481 1.524 . S
C2480 C2494 1.377 . S
C2481 C2480 1.524 . S
C2481 C2482 1.397 . S
C2481 C2486 1.363 . S
C2482 H2459 0.950 . S
C2482 C2481 1.397 . S
C2482 C2483 1.334 1_655 S
C2483 H2460 0.950 . S
C2483 C2482 1.334 1_455 S
C2483 C2484 1.287 . S
C2484 C2483 1.287 . S
C2484 C2485 1.524 1_455 S
C2484 H2503 0.913 . S
C2485 H2461 0.950 . S
C2485 C2484 1.524 1_655 S
C2485 C2486 1.415 . S
C2486 H2462 0.950 . S
C2486 C2481 1.363 . S
C2486 C2485 1.415 . S
C2487 H2463 0.951 . S
C2487 C2488 1.366 . S
C2487 C2489 1.388 . S
C2488 C2487 1.366 . S
C2488 C2492 1.385 . S
C2489 H2464 0.951 . S
C2489 C2487 1.388 . S
C2489 C2490 1.366 . S
C2490 C2489 1.366 . S
C2490 C2491 1.414 . S
C2490 C2493 1.499 . S
C2491 H2465 0.950 . S
C2491 C2490 1.414 . S
C2491 C2492 1.374 . S
C2492 H2466 0.950 . S
C2492 C2488 1.385 . S
C2492 C2491 1.374 . S
C2493 C2490 1.499 . S
C2493 C2494 1.373 . S
C2493 C2495 1.389 . S
C2494 H2467 0.950 . S
C2494 C2480 1.377 . S
C2494 C2493 1.373 . S
C2495 C2479 1.377 . S
C2495 C2493 1.389 . S
C2495 C2496 1.524 . S
C2496 C2495 1.524 . S
C2496 C2497 1.397 . S
C2496 C2501 1.363 . S
C2497 H2468 0.950 . S
C2497 C2496 1.397 . S
C2497 C2498 1.334 . S
C2498 H2469 0.950 . S
C2498 C2497 1.334 . S
C2498 C2499 1.287 . S
C2499 C2498 1.287 . S
C2499 C2500 1.524 . S
C2499 H2502 0.999 . S
C2500 H2470 0.950 . S
C2500 C2499 1.524 . S
C2500 C2501 1.415 . S
C2501 H2471 0.950 . S
C2501 C2496 1.363 . S
C2501 C2500 1.415 . S
H2502 C2499 0.999 . S
H2503 C2484 0.913 . S
H2504 C2522 0.951 . S
H2505 C2524 0.951 . S
H2506 C2526 0.950 . S
H2507 C2527 0.950 . S
H2508 C2529 0.950 . S
H2509 C2532 0.950 . S
H2510 C2533 0.950 . S
H2511 C2535 0.950 . S
H2512 C2536 0.950 . S
H2513 C2537 0.951 . S
H2514 C2539 0.951 . S
H2515 C2541 0.950 . S
H2516 C2542 0.950 . S
H2517 C2544 0.950 . S
H2518 C2547 0.950 . S
H2519 C2548 0.950 . S
H2520 C2550 0.950 . S
H2521 C2551 0.950 . S
C2522 H2504 0.951 . S
C2522 C2523 1.366 . S
C2522 C2524 1.388 . S
C2523 C2522 1.366 . S
C2523 C2527 1.385 . S
C2524 H2505 0.951 . S
C2524 C2522 1.388 . S
C2524 C2525 1.366 . S
C2525 C2524 1.366 . S
C2525 C2526 1.414 . S
C2525 C2528 1.499 . S
C2526 H2506 0.950 . S
C2526 C2525 1.414 . S
C2526 C2527 1.374 . S
C2527 H2507 0.950 . S
C2527 C2523 1.385 . S
C2527 C2526 1.374 . S
C2528 C2525 1.499 . S
C2528 C2529 1.373 . S
C2528 C2530 1.389 . S
C2529 H2508 0.950 . S
C2529 C2528 1.373 . S
C2529 C2545 1.377 . S
C2530 C2528 1.389 . S
C2530 C2531 1.524 . S
C2530 C2544 1.377 . S
C2531 C2530 1.524 . S
C2531 C2532 1.397 . S
C2531 C2536 1.363 . S
C2532 H2509 0.950 . S
C2532 C2531 1.397 . S
C2532 C2533 1.334 . S
C2533 H2510 0.950 . S
C2533 C2532 1.334 . S
C2533 C2534 1.287 . S
C2534 C2533 1.287 . S
C2534 C2535 1.524 . S
C2534 H2553 0.913 . S
C2535 H2511 0.950 . S
C2535 C2534 1.524 . S
C2535 C2536 1.415 . S
C2536 H2512 0.950 . S
C2536 C2531 1.363 . S
C2536 C2535 1.415 . S
C2537 H2513 0.951 . S
C2537 C2538 1.366 . S
C2537 C2539 1.388 . S
C2538 C2537 1.366 . S
C2538 C2542 1.385 . S
C2539 H2514 0.951 . S
C2539 C2537 1.388 . S
C2539 C2540 1.366 . S
C2540 C2539 1.366 . S
C2540 C2541 1.414 . S
C2540 C2543 1.499 . S
C2541 H2515 0.950 . S
C2541 C2540 1.414 . S
C2541 C2542 1.374 . S
C2542 H2516 0.950 . S
C2542 C2538 1.385 . S
C2542 C2541 1.374 . S
C2543 C2540 1.499 . S
C2543 C2544 1.373 . S
C2543 C2545 1.389 . S
C2544 H2517 0.950 . S
C2544 C2530 1.377 . S
C2544 C2543 1.373 . S
C2545 C2529 1.377 . S
C2545 C2543 1.389 . S
C2545 C2546 1.524 . S
C2546 C2545 1.524 . S
C2546 C2547 1.397 . S
C2546 C2551 1.363 . S
C2547 H2518 0.950 . S
C2547 C2546 1.397 . S
C2547 C2548 1.334 . S
C2548 H2519 0.950 . S
C2548 C2547 1.334 . S
C2548 C2549 1.287 . S
C2549 C2548 1.287 . S
C2549 C2550 1.524 . S
C2549 H2552 0.999 . S
C2550 H2520 0.950 . S
C2550 C2549 1.524 . S
C2550 C2551 1.415 . S
C2551 H2521 0.950 . S
C2551 C2546 1.363 . S
C2551 C2550 1.415 . S
H2552 C2549 0.999 . S
H2553 C2534 0.913 . S
H2554 C2572 0.951 . S
H2555 C2574 0.951 . S
H2556 C2576 0.950 . S
H2557 C2577 0.950 . S
H2558 C2579 0.950 . S
H2559 C2582 0.950 . S
H2560 C2583 0.950 . S
H2561 C2585 0.950 . S
H2562 C2586 0.950 . S
H2563 C2587 0.951 . S
H2564 C2589 0.951 . S
H2565 C2591 0.950 . S
H2566 C2592 0.950 . S
H2567 C2594 0.950 . S
H2568 C2597 0.950 . S
H2569 C2598 0.950 . S
H2570 C2600 0.950 . S
H2571 C2601 0.950 . S
C2572 H2554 0.951 . S
C2572 C2573 1.366 . S
C2572 C2574 1.388 1_565 S
C2573 C2572 1.366 . S
C2573 C2577 1.385 . S
C2574 H2555 0.951 . S
C2574 C2572 1.388 1_545 S
C2574 C2575 1.366 . S
C2575 C2574 1.366 . S
C2575 C2576 1.414 1_545 S
C2575 C2578 1.499 . S
C2576 H2556 0.950 . S
C2576 C2575 1.414 1_565 S
C2576 C2577 1.374 . S
C2577 H2557 0.950 . S
C2577 C2573 1.385 . S
C2577 C2576 1.374 . S
C2578 C2575 1.499 . S
C2578 C2579 1.373 . S
C2578 C2580 1.389 . S
C2579 H2558 0.950 . S
C2579 C2578 1.373 . S
C2579 C2595 1.377 . S
C2580 C2578 1.389 . S
C2580 C2581 1.524 . S
C2580 C2594 1.377 . S
C2581 C2580 1.524 . S
C2581 C2582 1.397 . S
C2581 C2586 1.363 . S
C2582 H2559 0.950 . S
C2582 C2581 1.397 . S
C2582 C2583 1.334 . S
C2583 H2560 0.950 . S
C2583 C2582 1.334 . S
C2583 C2584 1.287 . S
C2584 C2583 1.287 . S
C2584 C2585 1.524 . S
C2584 H2603 0.913 . S
C2585 H2561 0.950 . S
C2585 C2584 1.524 . S
C2585 C2586 1.415 . S
C2586 H2562 0.950 . S
C2586 C2581 1.363 . S
C2586 C2585 1.415 . S
C2587 H2563 0.951 . S
C2587 C2588 1.366 . S
C2587 C2589 1.388 . S
C2588 C2587 1.366 . S
C2588 C2592 1.385 . S
C2589 H2564 0.951 . S
C2589 C2587 1.388 . S
C2589 C2590 1.366 . S
C2590 C2589 1.366 . S
C2590 C2591 1.414 . S
C2590 C2593 1.499 . S
C2591 H2565 0.950 . S
C2591 C2590 1.414 . S
C2591 C2592 1.374 . S
C2592 H2566 0.950 . S
C2592 C2588 1.385 . S
C2592 C2591 1.374 . S
C2593 C2590 1.499 . S
C2593 C2594 1.373 . S
C2593 C2595 1.389 . S
C2594 H2567 0.950 . S
C2594 C2580 1.377 . S
C2594 C2593 1.373 . S
C2595 C2579 1.377 . S
C2595 C2593 1.389 . S
C2595 C2596 1.524 . S
C2596 C2595 1.524 . S
C2596 C2597 1.397 . S
C2596 C2601 1.363 . S
C2597 H2568 0.950 . S
C2597 C2596 1.397 . S
C2597 C2598 1.334 . S
C2598 H2569 0.950 . S
C2598 C2597 1.334 . S
C2598 C2599 1.287 . S
C2599 C2598 1.287 . S
C2599 C2600 1.524 . S
C2599 H2602 0.999 . S
C2600 H2570 0.950 . S
C2600 C2599 1.524 . S
C2600 C2601 1.415 . S
C2601 H2571 0.950 . S
C2601 C2596 1.363 . S
C2601 C2600 1.415 . S
H2602 C2599 0.999 . S
H2603 C2584 0.913 . S
H2604 C2622 0.951 . S
H2605 C2624 0.951 . S
H2606 C2626 0.950 . S
H2607 C2627 0.950 . S
H2608 C2629 0.950 . S
H2609 C2632 0.950 . S
H2610 C2633 0.950 . S
H2611 C2635 0.950 . S
H2612 C2636 0.950 . S
H2613 C2637 0.951 . S
H2614 C2639 0.951 . S
H2615 C2641 0.950 . S
H2616 C2642 0.950 . S
H2617 C2644 0.950 . S
H2618 C2647 0.950 . S
H2619 C2648 0.950 . S
H2620 C2650 0.950 . S
H2621 C2651 0.950 . S
C2622 H2604 0.951 . S
C2622 C2623 1.366 . S
C2622 C2624 1.388 . S
C2623 C2622 1.366 . S
C2623 C2627 1.385 . S
C2624 H2605 0.951 . S
C2624 C2622 1.388 . S
C2624 C2625 1.366 . S
C2625 C2624 1.366 . S
C2625 C2626 1.414 . S
C2625 C2628 1.499 . S
C2626 H2606 0.950 . S
C2626 C2625 1.414 . S
C2626 C2627 1.374 . S
C2627 H2607 0.950 . S
C2627 C2623 1.385 . S
C2627 C2626 1.374 . S
C2628 C2625 1.499 . S
C2628 C2629 1.373 . S
C2628 C2630 1.389 . S
C2629 H2608 0.950 . S
C2629 C2628 1.373 . S
C2629 C2645 1.377 . S
C2630 C2628 1.389 . S
C2630 C2631 1.524 . S
C2630 C2644 1.377 . S
C2631 C2630 1.524 . S
C2631 C2632 1.397 . S
C2631 C2636 1.363 . S
C2632 H2609 0.950 . S
C2632 C2631 1.397 . S
C2632 C2633 1.334 . S
C2633 H2610 0.950 . S
C2633 C2632 1.334 . S
C2633 C2634 1.287 . S
C2634 C2633 1.287 . S
C2634 C2635 1.524 . S
C2634 H2653 0.913 . S
C2635 H2611 0.950 . S
C2635 C2634 1.524 . S
C2635 C2636 1.415 . S
C2636 H2612 0.950 . S
C2636 C2631 1.363 . S
C2636 C2635 1.415 . S
C2637 H2613 0.951 . S
C2637 C2638 1.366 . S
C2637 C2639 1.388 . S
C2638 C2637 1.366 . S
C2638 C2642 1.385 . S
C2639 H2614 0.951 . S
C2639 C2637 1.388 . S
C2639 C2640 1.366 . S
C2640 C2639 1.366 . S
C2640 C2641 1.414 . S
C2640 C2643 1.499 . S
C2641 H2615 0.950 . S
C2641 C2640 1.414 . S
C2641 C2642 1.374 . S
C2642 H2616 0.950 . S
C2642 C2638 1.385 . S
C2642 C2641 1.374 . S
C2643 C2640 1.499 . S
C2643 C2644 1.373 . S
C2643 C2645 1.389 . S
C2644 H2617 0.950 . S
C2644 C2630 1.377 . S
C2644 C2643 1.373 . S
C2645 C2629 1.377 . S
C2645 C2643 1.389 . S
C2645 C2646 1.524 . S
C2646 C2645 1.524 . S
C2646 C2647 1.397 . S
C2646 C2651 1.363 . S
C2647 H2618 0.950 . S
C2647 C2646 1.397 . S
C2647 C2648 1.334 . S
C2648 H2619 0.950 . S
C2648 C2647 1.334 . S
C2648 C2649 1.287 . S
C2649 C2648 1.287 . S
C2649 C2650 1.524 . S
C2649 H2652 0.999 . S
C2650 H2620 0.950 . S
C2650 C2649 1.524 . S
C2650 C2651 1.415 . S
C2651 H2621 0.950 . S
C2651 C2646 1.363 . S
C2651 C2650 1.415 . S
H2652 C2649 0.999 . S
H2653 C2634 0.913 . S
H2654 C2672 0.951 . S
H2655 C2674 0.951 . S
H2656 C2676 0.950 . S
H2657 C2677 0.950 . S
H2658 C2679 0.950 . S
H2659 C2682 0.950 . S
H2660 C2683 0.950 . S
H2661 C2685 0.950 . S
H2662 C2686 0.950 . S
H2663 C2687 0.951 . S
H2664 C2689 0.951 . S
H2665 C2691 0.950 . S
H2666 C2692 0.950 . S
H2667 C2694 0.950 . S
H2668 C2697 0.950 . S
H2669 C2698 0.950 . S
H2670 C2700 0.950 . S
H2671 C2701 0.950 . S
C2672 H2654 0.951 . S
C2672 C2673 1.366 . S
C2672 C2674 1.388 . S
C2673 C2672 1.366 . S
C2673 C2677 1.385 . S
C2674 H2655 0.951 . S
C2674 C2672 1.388 . S
C2674 C2675 1.366 . S
C2675 C2674 1.366 . S
C2675 C2676 1.414 . S
C2675 C2678 1.499 . S
C2676 H2656 0.950 . S
C2676 C2675 1.414 . S
C2676 C2677 1.374 . S
C2677 H2657 0.950 . S
C2677 C2673 1.385 . S
C2677 C2676 1.374 . S
C2678 C2675 1.499 . S
C2678 C2679 1.373 . S
C2678 C2680 1.389 . S
C2679 H2658 0.950 . S
C2679 C2678 1.373 . S
C2679 C2695 1.377 . S
C2680 C2678 1.389 . S
C2680 C2681 1.524 . S
C2680 C2694 1.377 . S
C2681 C2680 1.524 . S
C2681 C2682 1.397 . S
C2681 C2686 1.363 . S
C2682 H2659 0.950 . S
C2682 C2681 1.397 . S
C2682 C2683 1.334 . S
C2683 H2660 0.950 . S
C2683 C2682 1.334 . S
C2683 C2684 1.287 . S
C2684 C2683 1.287 . S
C2684 C2685 1.524 . S
C2684 H2703 0.913 . S
C2685 H2661 0.950 . S
C2685 C2684 1.524 . S
C2685 C2686 1.415 . S
C2686 H2662 0.950 . S
C2686 C2681 1.363 . S
C2686 C2685 1.415 . S
C2687 H2663 0.951 . S
C2687 C2688 1.366 . S
C2687 C2689 1.388 . S
C2688 C2687 1.366 . S
C2688 C2692 1.385 . S
C2689 H2664 0.951 . S
C2689 C2687 1.388 . S
C2689 C2690 1.366 . S
C2690 C2689 1.366 . S
C2690 C2691 1.414 . S
C2690 C2693 1.499 . S
C2691 H2665 0.950 . S
C2691 C2690 1.414 . S
C2691 C2692 1.374 . S
C2692 H2666 0.950 . S
C2692 C2688 1.385 . S
C2692 C2691 1.374 . S
C2693 C2690 1.499 . S
C2693 C2694 1.373 . S
C2693 C2695 1.389 . S
C2694 H2667 0.950 . S
C2694 C2680 1.377 . S
C2694 C2693 1.373 . S
C2695 C2679 1.377 . S
C2695 C2693 1.389 . S
C2695 C2696 1.524 . S
C2696 C2695 1.524 . S
C2696 C2697 1.397 . S
C2696 C2701 1.363 . S
C2697 H2668 0.950 . S
C2697 C2696 1.397 . S
C2697 C2698 1.334 . S
C2698 H2669 0.950 . S
C2698 C2697 1.334 . S
C2698 C2699 1.287 . S
C2699 C2698 1.287 . S
C2699 C2700 1.524 . S
C2699 H2702 0.999 . S
C2700 H2670 0.950 . S
C2700 C2699 1.524 . S
C2700 C2701 1.415 . S
C2701 H2671 0.950 . S
C2701 C2696 1.363 . S
C2701 C2700 1.415 . S
H2702 C2699 0.999 . S
H2703 C2684 0.913 . S
H2704 C2722 0.951 . S
H2705 C2724 0.951 . S
H2706 C2726 0.950 . S
H2707 C2727 0.950 . S
H2708 C2729 0.950 . S
H2709 C2732 0.950 . S
H2710 C2733 0.950 . S
H2711 C2735 0.950 . S
H2712 C2736 0.950 . S
H2713 C2737 0.951 . S
H2714 C2739 0.951 . S
H2715 C2741 0.950 . S
H2716 C2742 0.950 . S
H2717 C2744 0.950 . S
H2718 C2747 0.950 . S
H2719 C2748 0.950 . S
H2720 C2750 0.950 . S
H2721 C2751 0.950 . S
C2722 H2704 0.951 . S
C2722 C2723 1.366 . S
C2722 C2724 1.388 . S
C2723 C2722 1.366 . S
C2723 C2727 1.385 . S
C2724 H2705 0.951 . S
C2724 C2722 1.388 . S
C2724 C2725 1.366 . S
C2725 C2724 1.366 . S
C2725 C2726 1.414 . S
C2725 C2728 1.499 . S
C2726 H2706 0.950 . S
C2726 C2725 1.414 . S
C2726 C2727 1.374 . S
C2727 H2707 0.950 . S
C2727 C2723 1.385 . S
C2727 C2726 1.374 . S
C2728 C2725 1.499 . S
C2728 C2729 1.373 . S
C2728 C2730 1.389 . S
C2729 H2708 0.950 . S
C2729 C2728 1.373 . S
C2729 C2745 1.377 . S
C2730 C2728 1.389 . S
C2730 C2731 1.524 . S
C2730 C2744 1.377 . S
C2731 C2730 1.524 . S
C2731 C2732 1.397 . S
C2731 C2736 1.363 . S
C2732 H2709 0.950 . S
C2732 C2731 1.397 . S
C2732 C2733 1.334 . S
C2733 H2710 0.950 . S
C2733 C2732 1.334 . S
C2733 C2734 1.287 . S
C2734 C2733 1.287 . S
C2734 C2735 1.524 . S
C2734 H2753 0.913 . S
C2735 H2711 0.950 . S
C2735 C2734 1.524 . S
C2735 C2736 1.415 . S
C2736 H2712 0.950 . S
C2736 C2731 1.363 . S
C2736 C2735 1.415 . S
C2737 H2713 0.951 . S
C2737 C2738 1.366 . S
C2737 C2739 1.388 . S
C2738 C2737 1.366 . S
C2738 C2742 1.385 . S
C2739 H2714 0.951 . S
C2739 C2737 1.388 . S
C2739 C2740 1.366 . S
C2740 C2739 1.366 . S
C2740 C2741 1.414 . S
C2740 C2743 1.499 . S
C2741 H2715 0.950 . S
C2741 C2740 1.414 . S
C2741 C2742 1.374 . S
C2742 H2716 0.950 . S
C2742 C2738 1.385 . S
C2742 C2741 1.374 . S
C2743 C2740 1.499 . S
C2743 C2744 1.373 . S
C2743 C2745 1.389 . S
C2744 H2717 0.950 . S
C2744 C2730 1.377 . S
C2744 C2743 1.373 . S
C2745 C2729 1.377 . S
C2745 C2743 1.389 . S
C2745 C2746 1.524 . S
C2746 C2745 1.524 . S
C2746 C2747 1.397 . S
C2746 C2751 1.363 . S
C2747 H2718 0.950 . S
C2747 C2746 1.397 . S
C2747 C2748 1.334 . S
C2748 H2719 0.950 . S
C2748 C2747 1.334 . S
C2748 C2749 1.287 . S
C2749 C2748 1.287 . S
C2749 C2750 1.524 . S
C2749 H2752 0.999 . S
C2750 H2720 0.950 . S
C2750 C2749 1.524 . S
C2750 C2751 1.415 . S
C2751 H2721 0.950 . S
C2751 C2746 1.363 . S
C2751 C2750 1.415 . S
H2752 C2749 0.999 . S
H2753 C2734 0.913 . S
H2754 C2772 0.951 . S
H2755 C2774 0.951 . S
H2756 C2776 0.950 . S
H2757 C2777 0.950 . S
H2758 C2779 0.950 . S
H2759 C2782 0.950 . S
H2760 C2783 0.950 . S
H2761 C2785 0.950 1_545 S
H2762 C2786 0.950 . S
H2763 C2787 0.951 . S
H2764 C2789 0.951 . S
H2765 C2791 0.950 . S
H2766 C2792 0.950 . S
H2767 C2794 0.950 . S
H2768 C2797 0.950 . S
H2769 C2798 0.950 . S
H2770 C2800 0.950 . S
H2771 C2801 0.950 . S
C2772 H2754 0.951 . S
C2772 C2773 1.366 . S
C2772 C2774 1.388 . S
C2773 C2772 1.366 . S
C2773 C2777 1.385 . S
C2774 H2755 0.951 . S
C2774 C2772 1.388 . S
C2774 C2775 1.366 . S
C2775 C2774 1.366 . S
C2775 C2776 1.414 . S
C2775 C2778 1.499 . S
C2776 H2756 0.950 . S
C2776 C2775 1.414 . S
C2776 C2777 1.374 . S
C2777 H2757 0.950 . S
C2777 C2773 1.385 . S
C2777 C2776 1.374 . S
C2778 C2775 1.499 . S
C2778 C2779 1.373 . S
C2778 C2780 1.389 . S
C2779 H2758 0.950 . S
C2779 C2778 1.373 . S
C2779 C2795 1.377 . S
C2780 C2778 1.389 . S
C2780 C2781 1.524 . S
C2780 C2794 1.377 . S
C2781 C2780 1.524 . S
C2781 C2782 1.397 . S
C2781 C2786 1.363 . S
C2782 H2759 0.950 . S
C2782 C2781 1.397 . S
C2782 C2783 1.334 . S
C2783 H2760 0.950 . S
C2783 C2782 1.334 . S
C2783 C2784 1.287 . S
C2784 C2783 1.287 . S
C2784 C2785 1.524 . S
C2784 H2803 0.913 . S
C2785 H2761 0.950 1_565 S
C2785 C2784 1.524 . S
C2785 C2786 1.415 . S
C2786 H2762 0.950 . S
C2786 C2781 1.363 . S
C2786 C2785 1.415 . S
C2787 H2763 0.951 . S
C2787 C2788 1.366 . S
C2787 C2789 1.388 . S
C2788 C2787 1.366 . S
C2788 C2792 1.385 . S
C2789 H2764 0.951 . S
C2789 C2787 1.388 . S
C2789 C2790 1.366 . S
C2790 C2789 1.366 . S
C2790 C2791 1.414 . S
C2790 C2793 1.499 . S
C2791 H2765 0.950 . S
C2791 C2790 1.414 . S
C2791 C2792 1.374 . S
C2792 H2766 0.950 . S
C2792 C2788 1.385 . S
C2792 C2791 1.374 . S
C2793 C2790 1.499 . S
C2793 C2794 1.373 . S
C2793 C2795 1.389 . S
C2794 H2767 0.950 . S
C2794 C2780 1.377 . S
C2794 C2793 1.373 . S
C2795 C2779 1.377 . S
C2795 C2793 1.389 . S
C2795 C2796 1.524 . S
C2796 C2795 1.524 . S
C2796 C2797 1.397 . S
C2796 C2801 1.363 . S
C2797 H2768 0.950 . S
C2797 C2796 1.397 . S
C2797 C2798 1.334 . S
C2798 H2769 0.950 . S
C2798 C2797 1.334 . S
C2798 C2799 1.287 . S
C2799 C2798 1.287 . S
C2799 C2800 1.524 . S
C2799 H2802 0.999 . S
C2800 H2770 0.950 . S
C2800 C2799 1.524 . S
C2800 C2801 1.415 . S
C2801 H2771 0.950 . S
C2801 C2796 1.363 . S
C2801 C2800 1.415 . S
H2802 C2799 0.999 . S
H2803 C2784 0.913 . S
H2804 C2822 0.951 . S
H2805 C2824 0.951 . S
H2806 C2826 0.950 . S
H2807 C2827 0.950 . S
H2808 C2829 0.950 . S
H2809 C2832 0.950 . S
H2810 C2833 0.950 . S
H2811 C2835 0.950 1_655 S
H2812 C2836 0.950 . S
H2813 C2837 0.951 . S
H2814 C2839 0.951 . S
H2815 C2841 0.950 . S
H2816 C2842 0.950 . S
H2817 C2844 0.950 . S
H2818 C2847 0.950 . S
H2819 C2848 0.950 . S
H2820 C2850 0.950 . S
H2821 C2851 0.950 . S
C2822 H2804 0.951 . S
C2822 C2823 1.366 . S
C2822 C2824 1.388 . S
C2823 C2822 1.366 . S
C2823 C2827 1.385 . S
C2824 H2805 0.951 . S
C2824 C2822 1.388 . S
C2824 C2825 1.366 . S
C2825 C2824 1.366 . S
C2825 C2826 1.414 . S
C2825 C2828 1.499 . S
C2826 H2806 0.950 . S
C2826 C2825 1.414 . S
C2826 C2827 1.374 . S
C2827 H2807 0.950 . S
C2827 C2823 1.385 . S
C2827 C2826 1.374 . S
C2828 C2825 1.499 . S
C2828 C2829 1.373 . S
C2828 C2830 1.389 . S
C2829 H2808 0.950 . S
C2829 C2828 1.373 . S
C2829 C2845 1.377 . S
C2830 C2828 1.389 . S
C2830 C2831 1.524 . S
C2830 C2844 1.377 . S
C2831 C2830 1.524 . S
C2831 C2832 1.397 . S
C2831 C2836 1.363 . S
C2832 H2809 0.950 . S
C2832 C2831 1.397 . S
C2832 C2833 1.334 . S
C2833 H2810 0.950 . S
C2833 C2832 1.334 . S
C2833 C2834 1.287 . S
C2834 C2833 1.287 . S
C2834 C2835 1.524 . S
C2834 H2853 0.913 . S
C2835 H2811 0.950 1_455 S
C2835 C2834 1.524 . S
C2835 C2836 1.415 . S
C2836 H2812 0.950 . S
C2836 C2831 1.363 . S
C2836 C2835 1.415 . S
C2837 H2813 0.951 . S
C2837 C2838 1.366 . S
C2837 C2839 1.388 . S
C2838 C2837 1.366 . S
C2838 C2842 1.385 . S
C2839 H2814 0.951 . S
C2839 C2837 1.388 . S
C2839 C2840 1.366 . S
C2840 C2839 1.366 . S
C2840 C2841 1.414 . S
C2840 C2843 1.499 . S
C2841 H2815 0.950 . S
C2841 C2840 1.414 . S
C2841 C2842 1.374 . S
C2842 H2816 0.950 . S
C2842 C2838 1.385 . S
C2842 C2841 1.374 . S
C2843 C2840 1.499 . S
C2843 C2844 1.373 . S
C2843 C2845 1.389 . S
C2844 H2817 0.950 . S
C2844 C2830 1.377 . S
C2844 C2843 1.373 . S
C2845 C2829 1.377 . S
C2845 C2843 1.389 . S
C2845 C2846 1.524 . S
C2846 C2845 1.524 . S
C2846 C2847 1.397 . S
C2846 C2851 1.363 . S
C2847 H2818 0.950 . S
C2847 C2846 1.397 . S
C2847 C2848 1.334 . S
C2848 H2819 0.950 . S
C2848 C2847 1.334 . S
C2848 C2849 1.287 . S
C2849 C2848 1.287 . S
C2849 C2850 1.524 . S
C2849 H2852 0.999 . S
C2850 H2820 0.950 . S
C2850 C2849 1.524 . S
C2850 C2851 1.415 . S
C2851 H2821 0.950 . S
C2851 C2846 1.363 . S
C2851 C2850 1.415 . S
H2852 C2849 0.999 . S
H2853 C2834 0.913 . S
H2854 C2872 0.951 . S
H2855 C2874 0.951 . S
H2856 C2876 0.950 . S
H2857 C2877 0.950 . S
H2858 C2879 0.950 . S
H2859 C2882 0.950 . S
H2860 C2883 0.950 . S
H2861 C2885 0.950 . S
H2862 C2886 0.950 . S
H2863 C2887 0.951 . S
H2864 C2889 0.951 . S
H2865 C2891 0.950 . S
H2866 C2892 0.950 . S
H2867 C2894 0.950 . S
H2868 C2897 0.950 . S
H2869 C2898 0.950 . S
H2870 C2900 0.950 . S
H2871 C2901 0.950 . S
C2872 H2854 0.951 . S
C2872 C2873 1.366 . S
C2872 C2874 1.388 . S
C2873 C2872 1.366 . S
C2873 C2877 1.385 . S
C2874 H2855 0.951 . S
C2874 C2872 1.388 . S
C2874 C2875 1.366 . S
C2875 C2874 1.366 . S
C2875 C2876 1.414 . S
C2875 C2878 1.499 . S
C2876 H2856 0.950 . S
C2876 C2875 1.414 . S
C2876 C2877 1.374 . S
C2877 H2857 0.950 . S
C2877 C2873 1.385 . S
C2877 C2876 1.374 . S
C2878 C2875 1.499 . S
C2878 C2879 1.373 . S
C2878 C2880 1.389 . S
C2879 H2858 0.950 . S
C2879 C2878 1.373 . S
C2879 C2895 1.377 . S
C2880 C2878 1.389 . S
C2880 C2881 1.524 . S
C2880 C2894 1.377 . S
C2881 C2880 1.524 . S
C2881 C2882 1.397 . S
C2881 C2886 1.363 . S
C2882 H2859 0.950 . S
C2882 C2881 1.397 . S
C2882 C2883 1.334 . S
C2883 H2860 0.950 . S
C2883 C2882 1.334 . S
C2883 C2884 1.287 . S
C2884 C2883 1.287 . S
C2884 C2885 1.524 . S
C2884 H2903 0.913 . S
C2885 H2861 0.950 . S
C2885 C2884 1.524 . S
C2885 C2886 1.415 . S
C2886 H2862 0.950 . S
C2886 C2881 1.363 . S
C2886 C2885 1.415 . S
C2887 H2863 0.951 . S
C2887 C2888 1.366 . S
C2887 C2889 1.388 . S
C2888 C2887 1.366 . S
C2888 C2892 1.385 . S
C2889 H2864 0.951 . S
C2889 C2887 1.388 . S
C2889 C2890 1.366 . S
C2890 C2889 1.366 . S
C2890 C2891 1.414 . S
C2890 C2893 1.499 . S
C2891 H2865 0.950 . S
C2891 C2890 1.414 . S
C2891 C2892 1.374 . S
C2892 H2866 0.950 . S
C2892 C2888 1.385 . S
C2892 C2891 1.374 . S
C2893 C2890 1.499 . S
C2893 C2894 1.373 . S
C2893 C2895 1.389 . S
C2894 H2867 0.950 . S
C2894 C2880 1.377 . S
C2894 C2893 1.373 . S
C2895 C2879 1.377 . S
C2895 C2893 1.389 . S
C2895 C2896 1.524 . S
C2896 C2895 1.524 . S
C2896 C2897 1.397 . S
C2896 C2901 1.363 . S
C2897 H2868 0.950 . S
C2897 C2896 1.397 . S
C2897 C2898 1.334 . S
C2898 H2869 0.950 . S
C2898 C2897 1.334 . S
C2898 C2899 1.287 . S
C2899 C2898 1.287 . S
C2899 C2900 1.524 . S
C2899 H2902 0.999 . S
C2900 H2870 0.950 . S
C2900 C2899 1.524 . S
C2900 C2901 1.415 . S
C2901 H2871 0.950 . S
C2901 C2896 1.363 . S
C2901 C2900 1.415 . S
H2902 C2899 0.999 . S
H2903 C2884 0.913 . S
H2904 C2922 0.951 . S
H2905 C2924 0.951 . S
H2906 C2926 0.950 . S
H2907 C2927 0.950 . S
H2908 C2929 0.950 . S
H2909 C2932 0.950 . S
H2910 C2933 0.950 . S
H2911 C2935 0.950 1_455 S
H2912 C2936 0.950 . S
H2913 C2937 0.951 . S
H2914 C2939 0.951 . S
H2915 C2941 0.950 . S
H2916 C2942 0.950 . S
H2917 C2944 0.950 . S
H2918 C2947 0.950 . S
H2919 C2948 0.950 . S
H2920 C2950 0.950 . S
H2921 C2951 0.950 . S
C2922 H2904 0.951 . S
C2922 C2923 1.366 . S
C2922 C2924 1.388 . S
C2923 C2922 1.366 . S
C2923 C2927 1.385 . S
C2924 H2905 0.951 . S
C2924 C2922 1.388 . S
C2924 C2925 1.366 . S
C2925 C2924 1.366 . S
C2925 C2926 1.414 . S
C2925 C2928 1.499 . S
C2926 H2906 0.950 . S
C2926 C2925 1.414 . S
C2926 C2927 1.374 . S
C2927 H2907 0.950 . S
C2927 C2923 1.385 . S
C2927 C2926 1.374 . S
C2928 C2925 1.499 . S
C2928 C2929 1.373 . S
C2928 C2930 1.389 . S
C2929 H2908 0.950 . S
C2929 C2928 1.373 . S
C2929 C2945 1.377 . S
C2930 C2928 1.389 . S
C2930 C2931 1.524 . S
C2930 C2944 1.377 . S
C2931 C2930 1.524 . S
C2931 C2932 1.397 . S
C2931 C2936 1.363 . S
C2932 H2909 0.950 . S
C2932 C2931 1.397 . S
C2932 C2933 1.334 . S
C2933 H2910 0.950 . S
C2933 C2932 1.334 . S
C2933 C2934 1.287 . S
C2934 C2933 1.287 . S
C2934 C2935 1.524 . S
C2934 H2953 0.913 . S
C2935 H2911 0.950 1_655 S
C2935 C2934 1.524 . S
C2935 C2936 1.415 . S
C2936 H2912 0.950 . S
C2936 C2931 1.363 . S
C2936 C2935 1.415 . S
C2937 H2913 0.951 . S
C2937 C2938 1.366 . S
C2937 C2939 1.388 . S
C2938 C2937 1.366 . S
C2938 C2942 1.385 . S
C2939 H2914 0.951 . S
C2939 C2937 1.388 . S
C2939 C2940 1.366 . S
C2940 C2939 1.366 . S
C2940 C2941 1.414 . S
C2940 C2943 1.499 . S
C2941 H2915 0.950 . S
C2941 C2940 1.414 . S
C2941 C2942 1.374 . S
C2942 H2916 0.950 . S
C2942 C2938 1.385 . S
C2942 C2941 1.374 . S
C2943 C2940 1.499 . S
C2943 C2944 1.373 . S
C2943 C2945 1.389 . S
C2944 H2917 0.950 . S
C2944 C2930 1.377 . S
C2944 C2943 1.373 . S
C2945 C2929 1.377 . S
C2945 C2943 1.389 . S
C2945 C2946 1.524 . S
C2946 C2945 1.524 . S
C2946 C2947 1.397 . S
C2946 C2951 1.363 . S
C2947 H2918 0.950 . S
C2947 C2946 1.397 . S
C2947 C2948 1.334 . S
C2948 H2919 0.950 . S
C2948 C2947 1.334 . S
C2948 C2949 1.287 . S
C2949 C2948 1.287 . S
C2949 C2950 1.524 . S
C2949 H2952 0.999 . S
C2950 H2920 0.950 . S
C2950 C2949 1.524 . S
C2950 C2951 1.415 . S
C2951 H2921 0.950 . S
C2951 C2946 1.363 . S
C2951 C2950 1.415 . S
H2952 C2949 0.999 . S
H2953 C2934 0.913 . S
H2954 C2972 0.951 . S
H2955 C2974 0.951 . S
H2956 C2976 0.950 . S
H2957 C2977 0.950 . S
H2958 C2979 0.950 . S
H2959 C2982 0.950 . S
H2960 C2983 0.950 . S
H2961 C2985 0.950 . S
H2962 C2986 0.950 . S
H2963 C2987 0.951 . S
H2964 C2989 0.951 . S
H2965 C2991 0.950 . S
H2966 C2992 0.950 . S
H2967 C2994 0.950 . S
H2968 C2997 0.950 . S
H2969 C2998 0.950 . S
H2970 C3000 0.950 . S
H2971 C3001 0.950 . S
C2972 H2954 0.951 . S
C2972 C2973 1.366 . S
C2972 C2974 1.388 . S
C2973 C2972 1.366 . S
C2973 C2977 1.385 . S
C2974 H2955 0.951 . S
C2974 C2972 1.388 . S
C2974 C2975 1.366 . S
C2975 C2974 1.366 . S
C2975 C2976 1.414 . S
C2975 C2978 1.499 . S
C2976 H2956 0.950 . S
C2976 C2975 1.414 . S
C2976 C2977 1.374 . S
C2977 H2957 0.950 . S
C2977 C2973 1.385 . S
C2977 C2976 1.374 . S
C2978 C2975 1.499 . S
C2978 C2979 1.373 . S
C2978 C2980 1.389 . S
C2979 H2958 0.950 . S
C2979 C2978 1.373 . S
C2979 C2995 1.377 . S
C2980 C2978 1.389 . S
C2980 C2981 1.524 . S
C2980 C2994 1.377 . S
C2981 C2980 1.524 . S
C2981 C2982 1.397 . S
C2981 C2986 1.363 . S
C2982 H2959 0.950 . S
C2982 C2981 1.397 . S
C2982 C2983 1.334 . S
C2983 H2960 0.950 . S
C2983 C2982 1.334 . S
C2983 C2984 1.287 . S
C2984 C2983 1.287 . S
C2984 C2985 1.524 . S
C2984 H3003 0.913 . S
C2985 H2961 0.950 . S
C2985 C2984 1.524 . S
C2985 C2986 1.415 . S
C2986 H2962 0.950 . S
C2986 C2981 1.363 . S
C2986 C2985 1.415 . S
C2987 H2963 0.951 . S
C2987 C2988 1.366 . S
C2987 C2989 1.388 . S
C2988 C2987 1.366 . S
C2988 C2992 1.385 . S
C2989 H2964 0.951 . S
C2989 C2987 1.388 . S
C2989 C2990 1.366 . S
C2990 C2989 1.366 . S
C2990 C2991 1.414 . S
C2990 C2993 1.499 . S
C2991 H2965 0.950 . S
C2991 C2990 1.414 . S
C2991 C2992 1.374 . S
C2992 H2966 0.950 . S
C2992 C2988 1.385 . S
C2992 C2991 1.374 . S
C2993 C2990 1.499 . S
C2993 C2994 1.373 . S
C2993 C2995 1.389 . S
C2994 H2967 0.950 . S
C2994 C2980 1.377 . S
C2994 C2993 1.373 . S
C2995 C2979 1.377 . S
C2995 C2993 1.389 . S
C2995 C2996 1.524 . S
C2996 C2995 1.524 . S
C2996 C2997 1.397 . S
C2996 C3001 1.363 . S
C2997 H2968 0.950 . S
C2997 C2996 1.397 . S
C2997 C2998 1.334 . S
C2998 H2969 0.950 . S
C2998 C2997 1.334 . S
C2998 C2999 1.287 . S
C2999 C2998 1.287 . S
C2999 C3000 1.524 . S
C2999 H3002 0.999 . S
C3000 H2970 0.950 . S
C3000 C2999 1.524 . S
C3000 C3001 1.415 . S
C3001 H2971 0.950 . S
C3001 C2996 1.363 . S
C3001 C3000 1.415 . S
H3002 C2999 0.999 . S
H3003 C2984 0.913 . S
H3004 C3022 0.951 . S
H3005 C3024 0.951 . S
H3006 C3026 0.950 . S
H3007 C3027 0.950 . S
H3008 C3029 0.950 . S
H3009 C3032 0.950 . S
H3010 C3033 0.950 . S
H3011 C3035 0.950 . S
H3012 C3036 0.950 . S
H3013 C3037 0.951 . S
H3014 C3039 0.951 . S
H3015 C3041 0.950 . S
H3016 C3042 0.950 . S
H3017 C3044 0.950 . S
H3018 C3047 0.950 . S
H3019 C3048 0.950 . S
H3020 C3050 0.950 . S
H3021 C3051 0.950 . S
C3022 H3004 0.951 . S
C3022 C3023 1.366 . S
C3022 C3024 1.388 . S
C3023 C3022 1.366 . S
C3023 C3027 1.385 . S
C3024 H3005 0.951 . S
C3024 C3022 1.388 . S
C3024 C3025 1.366 . S
C3025 C3024 1.366 . S
C3025 C3026 1.414 . S
C3025 C3028 1.499 . S
C3026 H3006 0.950 . S
C3026 C3025 1.414 . S
C3026 C3027 1.374 . S
C3027 H3007 0.950 . S
C3027 C3023 1.385 . S
C3027 C3026 1.374 . S
C3028 C3025 1.499 . S
C3028 C3029 1.373 . S
C3028 C3030 1.389 . S
C3029 H3008 0.950 . S
C3029 C3028 1.373 . S
C3029 C3045 1.377 . S
C3030 C3028 1.389 . S
C3030 C3031 1.524 . S
C3030 C3044 1.377 . S
C3031 C3030 1.524 . S
C3031 C3032 1.397 . S
C3031 C3036 1.363 . S
C3032 H3009 0.950 . S
C3032 C3031 1.397 . S
C3032 C3033 1.334 . S
C3033 H3010 0.950 . S
C3033 C3032 1.334 . S
C3033 C3034 1.287 . S
C3034 C3033 1.287 . S
C3034 C3035 1.524 . S
C3034 H3053 0.913 . S
C3035 H3011 0.950 . S
C3035 C3034 1.524 . S
C3035 C3036 1.415 . S
C3036 H3012 0.950 . S
C3036 C3031 1.363 . S
C3036 C3035 1.415 . S
C3037 H3013 0.951 . S
C3037 C3038 1.366 . S
C3037 C3039 1.388 . S
C3038 C3037 1.366 . S
C3038 C3042 1.385 . S
C3039 H3014 0.951 . S
C3039 C3037 1.388 . S
C3039 C3040 1.366 . S
C3040 C3039 1.366 . S
C3040 C3041 1.414 . S
C3040 C3043 1.499 . S
C3041 H3015 0.950 . S
C3041 C3040 1.414 . S
C3041 C3042 1.374 . S
C3042 H3016 0.950 . S
C3042 C3038 1.385 . S
C3042 C3041 1.374 . S
C3043 C3040 1.499 . S
C3043 C3044 1.373 . S
C3043 C3045 1.389 . S
C3044 H3017 0.950 . S
C3044 C3030 1.377 . S
C3044 C3043 1.373 . S
C3045 C3029 1.377 . S
C3045 C3043 1.389 . S
C3045 C3046 1.524 . S
C3046 C3045 1.524 . S
C3046 C3047 1.397 . S
C3046 C3051 1.363 . S
C3047 H3018 0.950 . S
C3047 C3046 1.397 . S
C3047 C3048 1.334 . S
C3048 H3019 0.950 . S
C3048 C3047 1.334 . S
C3048 C3049 1.287 . S
C3049 C3048 1.287 . S
C3049 C3050 1.524 . S
C3049 H3052 0.999 . S
C3050 H3020 0.950 . S
C3050 C3049 1.524 . S
C3050 C3051 1.415 . S
C3051 H3021 0.950 . S
C3051 C3046 1.363 . S
C3051 C3050 1.415 . S
H3052 C3049 0.999 . S
H3053 C3034 0.913 . S
H3054 C3072 0.951 . S
H3055 C3074 0.951 . S
H3056 C3076 0.950 . S
H3057 C3077 0.950 . S
H3058 C3079 0.950 . S
H3059 C3082 0.950 . S
H3060 C3083 0.950 . S
H3061 C3085 0.950 . S
H3062 C3086 0.950 . S
H3063 C3087 0.951 . S
H3064 C3089 0.951 . S
H3065 C3091 0.950 . S
H3066 C3092 0.950 . S
H3067 C3094 0.950 . S
H3068 C3097 0.950 . S
H3069 C3098 0.950 . S
H3070 C3100 0.950 . S
H3071 C3101 0.950 . S
C3072 H3054 0.951 . S
C3072 C3073 1.366 . S
C3072 C3074 1.388 . S
C3073 C3072 1.366 . S
C3073 C3077 1.385 . S
C3074 H3055 0.951 . S
C3074 C3072 1.388 . S
C3074 C3075 1.366 . S
C3075 C3074 1.366 . S
C3075 C3076 1.414 . S
C3075 C3078 1.499 . S
C3076 H3056 0.950 . S
C3076 C3075 1.414 . S
C3076 C3077 1.374 . S
C3077 H3057 0.950 . S
C3077 C3073 1.385 . S
C3077 C3076 1.374 . S
C3078 C3075 1.499 . S
C3078 C3079 1.373 . S
C3078 C3080 1.389 . S
C3079 H3058 0.950 . S
C3079 C3078 1.373 . S
C3079 C3095 1.377 . S
C3080 C3078 1.389 . S
C3080 C3081 1.524 . S
C3080 C3094 1.377 . S
C3081 C3080 1.524 . S
C3081 C3082 1.397 . S
C3081 C3086 1.363 . S
C3082 H3059 0.950 . S
C3082 C3081 1.397 . S
C3082 C3083 1.334 . S
C3083 H3060 0.950 . S
C3083 C3082 1.334 . S
C3083 C3084 1.287 . S
C3084 C3083 1.287 . S
C3084 C3085 1.524 . S
C3084 H3103 0.913 . S
C3085 H3061 0.950 . S
C3085 C3084 1.524 . S
C3085 C3086 1.415 . S
C3086 H3062 0.950 . S
C3086 C3081 1.363 . S
C3086 C3085 1.415 . S
C3087 H3063 0.951 . S
C3087 C3088 1.366 . S
C3087 C3089 1.388 . S
C3088 C3087 1.366 . S
C3088 C3092 1.385 . S
C3089 H3064 0.951 . S
C3089 C3087 1.388 . S
C3089 C3090 1.366 . S
C3090 C3089 1.366 . S
C3090 C3091 1.414 . S
C3090 C3093 1.499 . S
C3091 H3065 0.950 . S
C3091 C3090 1.414 . S
C3091 C3092 1.374 . S
C3092 H3066 0.950 . S
C3092 C3088 1.385 . S
C3092 C3091 1.374 . S
C3093 C3090 1.499 . S
C3093 C3094 1.373 . S
C3093 C3095 1.389 . S
C3094 H3067 0.950 . S
C3094 C3080 1.377 . S
C3094 C3093 1.373 . S
C3095 C3079 1.377 . S
C3095 C3093 1.389 . S
C3095 C3096 1.524 . S
C3096 C3095 1.524 . S
C3096 C3097 1.397 . S
C3096 C3101 1.363 . S
C3097 H3068 0.950 . S
C3097 C3096 1.397 . S
C3097 C3098 1.334 . S
C3098 H3069 0.950 . S
C3098 C3097 1.334 . S
C3098 C3099 1.287 . S
C3099 C3098 1.287 . S
C3099 C3100 1.524 . S
C3099 H3102 0.999 . S
C3100 H3070 0.950 . S
C3100 C3099 1.524 . S
C3100 C3101 1.415 . S
C3101 H3071 0.950 . S
C3101 C3096 1.363 . S
C3101 C3100 1.415 . S
H3102 C3099 0.999 . S
H3103 C3084 0.913 . S
H3104 C3122 0.951 . S
H3105 C3124 0.951 . S
H3106 C3126 0.950 . S
H3107 C3127 0.950 . S
H3108 C3129 0.950 . S
H3109 C3132 0.950 . S
H3110 C3133 0.950 . S
H3111 C3135 0.950 . S
H3112 C3136 0.950 . S
H3113 C3137 0.951 . S
H3114 C3139 0.951 . S
H3115 C3141 0.950 . S
H3116 C3142 0.950 . S
H3117 C3144 0.950 . S
H3118 C3147 0.950 . S
H3119 C3148 0.950 . S
H3120 C3150 0.950 . S
H3121 C3151 0.950 . S
C3122 H3104 0.951 . S
C3122 C3123 1.366 . S
C3122 C3124 1.388 . S
C3123 C3122 1.366 . S
C3123 C3127 1.385 . S
C3124 H3105 0.951 . S
C3124 C3122 1.388 . S
C3124 C3125 1.366 . S
C3125 C3124 1.366 . S
C3125 C3126 1.414 . S
C3125 C3128 1.499 . S
C3126 H3106 0.950 . S
C3126 C3125 1.414 . S
C3126 C3127 1.374 . S
C3127 H3107 0.950 . S
C3127 C3123 1.385 . S
C3127 C3126 1.374 . S
C3128 C3125 1.499 . S
C3128 C3129 1.373 . S
C3128 C3130 1.389 . S
C3129 H3108 0.950 . S
C3129 C3128 1.373 . S
C3129 C3145 1.377 . S
C3130 C3128 1.389 . S
C3130 C3131 1.524 . S
C3130 C3144 1.377 . S
C3131 C3130 1.524 . S
C3131 C3132 1.397 . S
C3131 C3136 1.363 . S
C3132 H3109 0.950 . S
C3132 C3131 1.397 . S
C3132 C3133 1.334 . S
C3133 H3110 0.950 . S
C3133 C3132 1.334 . S
C3133 C3134 1.287 . S
C3134 C3133 1.287 . S
C3134 C3135 1.524 . S
C3134 H3153 0.913 . S
C3135 H3111 0.950 . S
C3135 C3134 1.524 . S
C3135 C3136 1.415 . S
C3136 H3112 0.950 . S
C3136 C3131 1.363 . S
C3136 C3135 1.415 . S
C3137 H3113 0.951 . S
C3137 C3138 1.366 . S
C3137 C3139 1.388 . S
C3138 C3137 1.366 . S
C3138 C3142 1.385 . S
C3139 H3114 0.951 . S
C3139 C3137 1.388 . S
C3139 C3140 1.366 . S
C3140 C3139 1.366 . S
C3140 C3141 1.414 . S
C3140 C3143 1.499 . S
C3141 H3115 0.950 . S
C3141 C3140 1.414 . S
C3141 C3142 1.374 . S
C3142 H3116 0.950 . S
C3142 C3138 1.385 . S
C3142 C3141 1.374 . S
C3143 C3140 1.499 . S
C3143 C3144 1.373 . S
C3143 C3145 1.389 . S
C3144 H3117 0.950 . S
C3144 C3130 1.377 . S
C3144 C3143 1.373 . S
C3145 C3129 1.377 . S
C3145 C3143 1.389 . S
C3145 C3146 1.524 . S
C3146 C3145 1.524 . S
C3146 C3147 1.397 . S
C3146 C3151 1.363 . S
C3147 H3118 0.950 . S
C3147 C3146 1.397 . S
C3147 C3148 1.334 . S
C3148 H3119 0.950 . S
C3148 C3147 1.334 . S
C3148 C3149 1.287 . S
C3149 C3148 1.287 . S
C3149 C3150 1.524 . S
C3149 H3152 0.999 . S
C3150 H3120 0.950 . S
C3150 C3149 1.524 . S
C3150 C3151 1.415 . S
C3151 H3121 0.950 . S
C3151 C3146 1.363 . S
C3151 C3150 1.415 . S
H3152 C3149 0.999 . S
H3153 C3134 0.913 . S
H3154 C3172 0.951 . S
H3155 C3174 0.951 . S
H3156 C3176 0.950 . S
H3157 C3177 0.950 . S
H3158 C3179 0.950 . S
H3159 C3182 0.950 . S
H3160 C3183 0.950 . S
H3161 C3185 0.950 . S
H3162 C3186 0.950 . S
H3163 C3187 0.951 . S
H3164 C3189 0.951 . S
H3165 C3191 0.950 . S
H3166 C3192 0.950 . S
H3167 C3194 0.950 . S
H3168 C3197 0.950 . S
H3169 C3198 0.950 . S
H3170 C3200 0.950 . S
H3171 C3201 0.950 . S
C3172 H3154 0.951 . S
C3172 C3173 1.366 . S
C3172 C3174 1.388 . S
C3173 C3172 1.366 . S
C3173 C3177 1.385 . S
C3174 H3155 0.951 . S
C3174 C3172 1.388 . S
C3174 C3175 1.366 . S
C3175 C3174 1.366 . S
C3175 C3176 1.414 . S
C3175 C3178 1.499 . S
C3176 H3156 0.950 . S
C3176 C3175 1.414 . S
C3176 C3177 1.374 . S
C3177 H3157 0.950 . S
C3177 C3173 1.385 . S
C3177 C3176 1.374 . S
C3178 C3175 1.499 . S
C3178 C3179 1.373 . S
C3178 C3180 1.389 . S
C3179 H3158 0.950 . S
C3179 C3178 1.373 . S
C3179 C3195 1.377 . S
C3180 C3178 1.389 . S
C3180 C3181 1.524 . S
C3180 C3194 1.377 . S
C3181 C3180 1.524 . S
C3181 C3182 1.397 . S
C3181 C3186 1.363 . S
C3182 H3159 0.950 . S
C3182 C3181 1.397 . S
C3182 C3183 1.334 . S
C3183 H3160 0.950 . S
C3183 C3182 1.334 . S
C3183 C3184 1.287 . S
C3184 C3183 1.287 . S
C3184 C3185 1.524 . S
C3184 H3203 0.913 . S
C3185 H3161 0.950 . S
C3185 C3184 1.524 . S
C3185 C3186 1.415 . S
C3186 H3162 0.950 . S
C3186 C3181 1.363 . S
C3186 C3185 1.415 . S
C3187 H3163 0.951 . S
C3187 C3188 1.366 . S
C3187 C3189 1.388 . S
C3188 C3187 1.366 . S
C3188 C3192 1.385 . S
C3189 H3164 0.951 . S
C3189 C3187 1.388 . S
C3189 C3190 1.366 . S
C3190 C3189 1.366 . S
C3190 C3191 1.414 . S
C3190 C3193 1.499 . S
C3191 H3165 0.950 . S
C3191 C3190 1.414 . S
C3191 C3192 1.374 . S
C3192 H3166 0.950 . S
C3192 C3188 1.385 . S
C3192 C3191 1.374 . S
C3193 C3190 1.499 . S
C3193 C3194 1.373 . S
C3193 C3195 1.389 . S
C3194 H3167 0.950 . S
C3194 C3180 1.377 . S
C3194 C3193 1.373 . S
C3195 C3179 1.377 . S
C3195 C3193 1.389 . S
C3195 C3196 1.524 . S
C3196 C3195 1.524 . S
C3196 C3197 1.397 . S
C3196 C3201 1.363 . S
C3197 H3168 0.950 . S
C3197 C3196 1.397 . S
C3197 C3198 1.334 . S
C3198 H3169 0.950 . S
C3198 C3197 1.334 . S
C3198 C3199 1.287 . S
C3199 C3198 1.287 . S
C3199 C3200 1.524 . S
C3199 H3202 0.999 . S
C3200 H3170 0.950 . S
C3200 C3199 1.524 . S
C3200 C3201 1.415 . S
C3201 H3171 0.950 . S
C3201 C3196 1.363 . S
C3201 C3200 1.415 . S
H3202 C3199 0.999 . S
H3203 C3184 0.913 . S
H3204 C3222 0.951 . S
H3205 C3224 0.951 . S
H3206 C3226 0.950 . S
H3207 C3227 0.950 . S
H3208 C3229 0.950 . S
H3209 C3232 0.950 . S
H3210 C3233 0.950 . S
H3211 C3235 0.950 . S
H3212 C3236 0.950 . S
H3213 C3237 0.951 . S
H3214 C3239 0.951 . S
H3215 C3241 0.950 . S
H3216 C3242 0.950 . S
H3217 C3244 0.950 . S
H3218 C3247 0.950 . S
H3219 C3248 0.950 . S
H3220 C3250 0.950 . S
H3221 C3251 0.950 . S
C3222 H3204 0.951 . S
C3222 C3223 1.366 . S
C3222 C3224 1.388 . S
C3223 C3222 1.366 . S
C3223 C3227 1.385 . S
C3224 H3205 0.951 . S
C3224 C3222 1.388 . S
C3224 C3225 1.366 . S
C3225 C3224 1.366 . S
C3225 C3226 1.414 . S
C3225 C3228 1.499 . S
C3226 H3206 0.950 . S
C3226 C3225 1.414 . S
C3226 C3227 1.374 . S
C3227 H3207 0.950 . S
C3227 C3223 1.385 . S
C3227 C3226 1.374 . S
C3228 C3225 1.499 . S
C3228 C3229 1.373 . S
C3228 C3230 1.389 . S
C3229 H3208 0.950 . S
C3229 C3228 1.373 . S
C3229 C3245 1.377 . S
C3230 C3228 1.389 . S
C3230 C3231 1.524 . S
C3230 C3244 1.377 . S
C3231 C3230 1.524 . S
C3231 C3232 1.397 . S
C3231 C3236 1.363 . S
C3232 H3209 0.950 . S
C3232 C3231 1.397 . S
C3232 C3233 1.334 . S
C3233 H3210 0.950 . S
C3233 C3232 1.334 . S
C3233 C3234 1.287 . S
C3234 C3233 1.287 . S
C3234 C3235 1.524 . S
C3234 H3253 0.913 . S
C3235 H3211 0.950 . S
C3235 C3234 1.524 . S
C3235 C3236 1.415 . S
C3236 H3212 0.950 . S
C3236 C3231 1.363 . S
C3236 C3235 1.415 . S
C3237 H3213 0.951 . S
C3237 C3238 1.366 . S
C3237 C3239 1.388 . S
C3238 C3237 1.366 . S
C3238 C3242 1.385 . S
C3239 H3214 0.951 . S
C3239 C3237 1.388 . S
C3239 C3240 1.366 . S
C3240 C3239 1.366 . S
C3240 C3241 1.414 . S
C3240 C3243 1.499 . S
C3241 H3215 0.950 . S
C3241 C3240 1.414 . S
C3241 C3242 1.374 . S
C3242 H3216 0.950 . S
C3242 C3238 1.385 . S
C3242 C3241 1.374 . S
C3243 C3240 1.499 . S
C3243 C3244 1.373 . S
C3243 C3245 1.389 . S
C3244 H3217 0.950 . S
C3244 C3230 1.377 . S
C3244 C3243 1.373 . S
C3245 C3229 1.377 . S
C3245 C3243 1.389 . S
C3245 C3246 1.524 . S
C3246 C3245 1.524 . S
C3246 C3247 1.397 . S
C3246 C3251 1.363 . S
C3247 H3218 0.950 . S
C3247 C3246 1.397 . S
C3247 C3248 1.334 . S
C3248 H3219 0.950 . S
C3248 C3247 1.334 . S
C3248 C3249 1.287 . S
C3249 C3248 1.287 . S
C3249 C3250 1.524 . S
C3249 H3252 0.999 . S
C3250 H3220 0.950 . S
C3250 C3249 1.524 . S
C3250 C3251 1.415 . S
C3251 H3221 0.950 . S
C3251 C3246 1.363 . S
C3251 C3250 1.415 . S
H3252 C3249 0.999 . S
H3253 C3234 0.913 . S
H3254 C3272 0.951 . S
H3255 C3274 0.951 . S
H3256 C3276 0.950 . S
H3257 C3277 0.950 . S
H3258 C3279 0.950 . S
H3259 C3282 0.950 . S
H3260 C3283 0.950 . S
H3261 C3285 0.950 . S
H3262 C3286 0.950 . S
H3263 C3287 0.951 . S
H3264 C3289 0.951 . S
H3265 C3291 0.950 . S
H3266 C3292 0.950 . S
H3267 C3294 0.950 . S
H3268 C3297 0.950 . S
H3269 C3298 0.950 . S
H3270 C3300 0.950 . S
H3271 C3301 0.950 . S
C3272 H3254 0.951 . S
C3272 C3273 1.366 . S
C3272 C3274 1.388 . S
C3273 C3272 1.366 . S
C3273 C3277 1.385 . S
C3274 H3255 0.951 . S
C3274 C3272 1.388 . S
C3274 C3275 1.366 . S
C3275 C3274 1.366 . S
C3275 C3276 1.414 . S
C3275 C3278 1.499 . S
C3276 H3256 0.950 . S
C3276 C3275 1.414 . S
C3276 C3277 1.374 . S
C3277 H3257 0.950 . S
C3277 C3273 1.385 . S
C3277 C3276 1.374 . S
C3278 C3275 1.499 . S
C3278 C3279 1.373 . S
C3278 C3280 1.389 . S
C3279 H3258 0.950 . S
C3279 C3278 1.373 . S
C3279 C3295 1.377 . S
C3280 C3278 1.389 . S
C3280 C3281 1.524 . S
C3280 C3294 1.377 . S
C3281 C3280 1.524 . S
C3281 C3282 1.397 . S
C3281 C3286 1.363 . S
C3282 H3259 0.950 . S
C3282 C3281 1.397 . S
C3282 C3283 1.334 . S
C3283 H3260 0.950 . S
C3283 C3282 1.334 . S
C3283 C3284 1.287 . S
C3284 C3283 1.287 . S
C3284 C3285 1.524 . S
C3284 H3303 0.913 . S
C3285 H3261 0.950 . S
C3285 C3284 1.524 . S
C3285 C3286 1.415 . S
C3286 H3262 0.950 . S
C3286 C3281 1.363 . S
C3286 C3285 1.415 . S
C3287 H3263 0.951 . S
C3287 C3288 1.366 . S
C3287 C3289 1.388 . S
C3288 C3287 1.366 . S
C3288 C3292 1.385 . S
C3289 H3264 0.951 . S
C3289 C3287 1.388 . S
C3289 C3290 1.366 . S
C3290 C3289 1.366 . S
C3290 C3291 1.414 . S
C3290 C3293 1.499 . S
C3291 H3265 0.950 . S
C3291 C3290 1.414 . S
C3291 C3292 1.374 . S
C3292 H3266 0.950 . S
C3292 C3288 1.385 . S
C3292 C3291 1.374 . S
C3293 C3290 1.499 . S
C3293 C3294 1.373 . S
C3293 C3295 1.389 . S
C3294 H3267 0.950 . S
C3294 C3280 1.377 . S
C3294 C3293 1.373 . S
C3295 C3279 1.377 . S
C3295 C3293 1.389 . S
C3295 C3296 1.524 . S
C3296 C3295 1.524 . S
C3296 C3297 1.397 . S
C3296 C3301 1.363 . S
C3297 H3268 0.950 . S
C3297 C3296 1.397 . S
C3297 C3298 1.334 . S
C3298 H3269 0.950 . S
C3298 C3297 1.334 . S
C3298 C3299 1.287 . S
C3299 C3298 1.287 . S
C3299 C3300 1.524 . S
C3299 H3302 0.999 . S
C3300 H3270 0.950 . S
C3300 C3299 1.524 . S
C3300 C3301 1.415 . S
C3301 H3271 0.950 . S
C3301 C3296 1.363 . S
C3301 C3300 1.415 . S
H3302 C3299 0.999 . S
H3303 C3284 0.913 . S
H3304 C3322 0.951 . S
H3305 C3324 0.951 . S
H3306 C3326 0.950 . S
H3307 C3327 0.950 . S
H3308 C3329 0.950 . S
H3309 C3332 0.950 . S
H3310 C3333 0.950 . S
H3311 C3335 0.950 . S
H3312 C3336 0.950 . S
H3313 C3337 0.951 . S
H3314 C3339 0.951 . S
H3315 C3341 0.950 . S
H3316 C3342 0.950 . S
H3317 C3344 0.950 . S
H3318 C3347 0.950 . S
H3319 C3348 0.950 . S
H3320 C3350 0.950 . S
H3321 C3351 0.950 . S
C3322 H3304 0.951 . S
C3322 C3323 1.366 . S
C3322 C3324 1.388 . S
C3323 C3322 1.366 . S
C3323 C3327 1.385 . S
C3324 H3305 0.951 . S
C3324 C3322 1.388 . S
C3324 C3325 1.366 . S
C3325 C3324 1.366 . S
C3325 C3326 1.414 . S
C3325 C3328 1.499 . S
C3326 H3306 0.950 . S
C3326 C3325 1.414 . S
C3326 C3327 1.374 . S
C3327 H3307 0.950 . S
C3327 C3323 1.385 . S
C3327 C3326 1.374 . S
C3328 C3325 1.499 . S
C3328 C3329 1.373 . S
C3328 C3330 1.389 . S
C3329 H3308 0.950 . S
C3329 C3328 1.373 . S
C3329 C3345 1.377 . S
C3330 C3328 1.389 . S
C3330 C3331 1.524 . S
C3330 C3344 1.377 . S
C3331 C3330 1.524 . S
C3331 C3332 1.397 . S
C3331 C3336 1.363 . S
C3332 H3309 0.950 . S
C3332 C3331 1.397 . S
C3332 C3333 1.334 . S
C3333 H3310 0.950 . S
C3333 C3332 1.334 . S
C3333 C3334 1.287 . S
C3334 C3333 1.287 . S
C3334 C3335 1.524 . S
C3334 H3353 0.913 . S
C3335 H3311 0.950 . S
C3335 C3334 1.524 . S
C3335 C3336 1.415 . S
C3336 H3312 0.950 . S
C3336 C3331 1.363 . S
C3336 C3335 1.415 . S
C3337 H3313 0.951 . S
C3337 C3338 1.366 . S
C3337 C3339 1.388 . S
C3338 C3337 1.366 . S
C3338 C3342 1.385 . S
C3339 H3314 0.951 . S
C3339 C3337 1.388 . S
C3339 C3340 1.366 . S
C3340 C3339 1.366 . S
C3340 C3341 1.414 . S
C3340 C3343 1.499 . S
C3341 H3315 0.950 . S
C3341 C3340 1.414 . S
C3341 C3342 1.374 . S
C3342 H3316 0.950 . S
C3342 C3338 1.385 . S
C3342 C3341 1.374 . S
C3343 C3340 1.499 . S
C3343 C3344 1.373 . S
C3343 C3345 1.389 . S
C3344 H3317 0.950 . S
C3344 C3330 1.377 . S
C3344 C3343 1.373 . S
C3345 C3329 1.377 . S
C3345 C3343 1.389 . S
C3345 C3346 1.524 . S
C3346 C3345 1.524 . S
C3346 C3347 1.397 . S
C3346 C3351 1.363 . S
C3347 H3318 0.950 . S
C3347 C3346 1.397 . S
C3347 C3348 1.334 . S
C3348 H3319 0.950 . S
C3348 C3347 1.334 . S
C3348 C3349 1.287 . S
C3349 C3348 1.287 . S
C3349 C3350 1.524 . S
C3349 H3352 0.999 . S
C3350 H3320 0.950 . S
C3350 C3349 1.524 . S
C3350 C3351 1.415 . S
C3351 H3321 0.950 . S
C3351 C3346 1.363 . S
C3351 C3350 1.415 . S
H3352 C3349 0.999 . S
H3353 C3334 0.913 . S
H3354 C3372 0.951 . S
H3355 C3374 0.951 . S
H3356 C3376 0.950 . S
H3357 C3377 0.950 . S
H3358 C3379 0.950 . S
H3359 C3382 0.950 . S
H3360 C3383 0.950 . S
H3361 C3385 0.950 . S
H3362 C3386 0.950 . S
H3363 C3387 0.951 . S
H3364 C3389 0.951 . S
H3365 C3391 0.950 . S
H3366 C3392 0.950 . S
H3367 C3394 0.950 . S
H3368 C3397 0.950 . S
H3369 C3398 0.950 . S
H3370 C3400 0.950 . S
H3371 C3401 0.950 . S
C3372 H3354 0.951 . S
C3372 C3373 1.366 . S
C3372 C3374 1.388 . S
C3373 C3372 1.366 . S
C3373 C3377 1.385 . S
C3374 H3355 0.951 . S
C3374 C3372 1.388 . S
C3374 C3375 1.366 . S
C3375 C3374 1.366 . S
C3375 C3376 1.414 . S
C3375 C3378 1.499 . S
C3376 H3356 0.950 . S
C3376 C3375 1.414 . S
C3376 C3377 1.374 . S
C3377 H3357 0.950 . S
C3377 C3373 1.385 . S
C3377 C3376 1.374 . S
C3378 C3375 1.499 . S
C3378 C3379 1.373 . S
C3378 C3380 1.389 . S
C3379 H3358 0.950 . S
C3379 C3378 1.373 . S
C3379 C3395 1.377 . S
C3380 C3378 1.389 . S
C3380 C3381 1.524 . S
C3380 C3394 1.377 . S
C3381 C3380 1.524 . S
C3381 C3382 1.397 . S
C3381 C3386 1.363 . S
C3382 H3359 0.950 . S
C3382 C3381 1.397 . S
C3382 C3383 1.334 . S
C3383 H3360 0.950 . S
C3383 C3382 1.334 . S
C3383 C3384 1.287 . S
C3384 C3383 1.287 . S
C3384 C3385 1.524 . S
C3384 H3403 0.913 . S
C3385 H3361 0.950 . S
C3385 C3384 1.524 . S
C3385 C3386 1.415 . S
C3386 H3362 0.950 . S
C3386 C3381 1.363 . S
C3386 C3385 1.415 . S
C3387 H3363 0.951 . S
C3387 C3388 1.366 . S
C3387 C3389 1.388 . S
C3388 C3387 1.366 . S
C3388 C3392 1.385 . S
C3389 H3364 0.951 . S
C3389 C3387 1.388 . S
C3389 C3390 1.366 . S
C3390 C3389 1.366 . S
C3390 C3391 1.414 . S
C3390 C3393 1.499 . S
C3391 H3365 0.950 . S
C3391 C3390 1.414 . S
C3391 C3392 1.374 . S
C3392 H3366 0.950 . S
C3392 C3388 1.385 . S
C3392 C3391 1.374 . S
C3393 C3390 1.499 . S
C3393 C3394 1.373 . S
C3393 C3395 1.389 . S
C3394 H3367 0.950 . S
C3394 C3380 1.377 . S
C3394 C3393 1.373 . S
C3395 C3379 1.377 . S
C3395 C3393 1.389 . S
C3395 C3396 1.524 . S
C3396 C3395 1.524 . S
C3396 C3397 1.397 . S
C3396 C3401 1.363 . S
C3397 H3368 0.950 . S
C3397 C3396 1.397 . S
C3397 C3398 1.334 . S
C3398 H3369 0.950 . S
C3398 C3397 1.334 . S
C3398 C3399 1.287 . S
C3399 C3398 1.287 . S
C3399 C3400 1.524 . S
C3399 H3402 0.999 . S
C3400 H3370 0.950 . S
C3400 C3399 1.524 . S
C3400 C3401 1.415 . S
C3401 H3371 0.950 . S
C3401 C3396 1.363 . S
C3401 C3400 1.415 . S
H3402 C3399 0.999 . S
H3403 C3384 0.913 . S
H3404 C3422 0.951 . S
H3405 C3424 0.951 . S
H3406 C3426 0.950 . S
H3407 C3427 0.950 . S
H3408 C3429 0.950 . S
H3409 C3432 0.950 . S
H3410 C3433 0.950 . S
H3411 C3435 0.950 . S
H3412 C3436 0.950 . S
H3413 C3437 0.951 . S
H3414 C3439 0.951 . S
H3415 C3441 0.950 . S
H3416 C3442 0.950 . S
H3417 C3444 0.950 . S
H3418 C3447 0.950 . S
H3419 C3448 0.950 . S
H3420 C3450 0.950 . S
H3421 C3451 0.950 . S
C3422 H3404 0.951 . S
C3422 C3423 1.366 . S
C3422 C3424 1.388 . S
C3423 C3422 1.366 . S
C3423 C3427 1.385 . S
C3424 H3405 0.951 . S
C3424 C3422 1.388 . S
C3424 C3425 1.366 . S
C3425 C3424 1.366 . S
C3425 C3426 1.414 . S
C3425 C3428 1.499 . S
C3426 H3406 0.950 . S
C3426 C3425 1.414 . S
C3426 C3427 1.374 . S
C3427 H3407 0.950 . S
C3427 C3423 1.385 . S
C3427 C3426 1.374 . S
C3428 C3425 1.499 . S
C3428 C3429 1.373 . S
C3428 C3430 1.389 . S
C3429 H3408 0.950 . S
C3429 C3428 1.373 . S
C3429 C3445 1.377 . S
C3430 C3428 1.389 . S
C3430 C3431 1.524 . S
C3430 C3444 1.377 . S
C3431 C3430 1.524 . S
C3431 C3432 1.397 . S
C3431 C3436 1.363 . S
C3432 H3409 0.950 . S
C3432 C3431 1.397 . S
C3432 C3433 1.334 . S
C3433 H3410 0.950 . S
C3433 C3432 1.334 . S
C3433 C3434 1.287 . S
C3434 C3433 1.287 . S
C3434 C3435 1.524 . S
C3434 H3453 0.913 . S
C3435 H3411 0.950 . S
C3435 C3434 1.524 . S
C3435 C3436 1.415 . S
C3436 H3412 0.950 . S
C3436 C3431 1.363 . S
C3436 C3435 1.415 . S
C3437 H3413 0.951 . S
C3437 C3438 1.366 . S
C3437 C3439 1.388 . S
C3438 C3437 1.366 . S
C3438 C3442 1.385 . S
C3439 H3414 0.951 . S
C3439 C3437 1.388 . S
C3439 C3440 1.366 . S
C3440 C3439 1.366 . S
C3440 C3441 1.414 . S
C3440 C3443 1.499 . S
C3441 H3415 0.950 . S
C3441 C3440 1.414 . S
C3441 C3442 1.374 . S
C3442 H3416 0.950 . S
C3442 C3438 1.385 . S
C3442 C3441 1.374 . S
C3443 C3440 1.499 . S
C3443 C3444 1.373 . S
C3443 C3445 1.389 . S
C3444 H3417 0.950 . S
C3444 C3430 1.377 . S
C3444 C3443 1.373 . S
C3445 C3429 1.377 . S
C3445 C3443 1.389 . S
C3445 C3446 1.524 . S
C3446 C3445 1.524 . S
C3446 C3447 1.397 . S
C3446 C3451 1.363 . S
C3447 H3418 0.950 . S
C3447 C3446 1.397 . S
C3447 C3448 1.334 . S
C3448 H3419 0.950 . S
C3448 C3447 1.334 . S
C3448 C3449 1.287 . S
C3449 C3448 1.287 . S
C3449 C3450 1.524 . S
C3449 H3452 0.999 . S
C3450 H3420 0.950 . S
C3450 C3449 1.524 . S
C3450 C3451 1.415 . S
C3451 H3421 0.950 . S
C3451 C3446 1.363 . S
C3451 C3450 1.415 . S
H3452 C3449 0.999 . S
H3453 C3434 0.913 . S
H3454 C3472 0.951 . S
H3455 C3474 0.951 . S
H3456 C3476 0.950 . S
H3457 C3477 0.950 . S
H3458 C3479 0.950 . S
H3459 C3482 0.950 . S
H3460 C3483 0.950 . S
H3461 C3485 0.950 . S
H3462 C3486 0.950 . S
H3463 C3487 0.951 . S
H3464 C3489 0.951 . S
H3465 C3491 0.950 . S
H3466 C3492 0.950 . S
H3467 C3494 0.950 . S
H3468 C3497 0.950 . S
H3469 C3498 0.950 . S
H3470 C3500 0.950 . S
H3471 C3501 0.950 . S
C3472 H3454 0.951 . S
C3472 C3473 1.366 . S
C3472 C3474 1.388 . S
C3473 C3472 1.366 . S
C3473 C3477 1.385 . S
C3474 H3455 0.951 . S
C3474 C3472 1.388 . S
C3474 C3475 1.366 . S
C3475 C3474 1.366 . S
C3475 C3476 1.414 . S
C3475 C3478 1.499 . S
C3476 H3456 0.950 . S
C3476 C3475 1.414 . S
C3476 C3477 1.374 . S
C3477 H3457 0.950 . S
C3477 C3473 1.385 . S
C3477 C3476 1.374 . S
C3478 C3475 1.499 . S
C3478 C3479 1.373 . S
C3478 C3480 1.389 . S
C3479 H3458 0.950 . S
C3479 C3478 1.373 . S
C3479 C3495 1.377 . S
C3480 C3478 1.389 . S
C3480 C3481 1.524 . S
C3480 C3494 1.377 . S
C3481 C3480 1.524 . S
C3481 C3482 1.397 . S
C3481 C3486 1.363 . S
C3482 H3459 0.950 . S
C3482 C3481 1.397 . S
C3482 C3483 1.334 . S
C3483 H3460 0.950 . S
C3483 C3482 1.334 . S
C3483 C3484 1.287 . S
C3484 C3483 1.287 . S
C3484 C3485 1.524 . S
C3484 H3503 0.913 . S
C3485 H3461 0.950 . S
C3485 C3484 1.524 . S
C3485 C3486 1.415 . S
C3486 H3462 0.950 . S
C3486 C3481 1.363 . S
C3486 C3485 1.415 . S
C3487 H3463 0.951 . S
C3487 C3488 1.366 . S
C3487 C3489 1.388 . S
C3488 C3487 1.366 . S
C3488 C3492 1.385 . S
C3489 H3464 0.951 . S
C3489 C3487 1.388 . S
C3489 C3490 1.366 . S
C3490 C3489 1.366 . S
C3490 C3491 1.414 . S
C3490 C3493 1.499 . S
C3491 H3465 0.950 . S
C3491 C3490 1.414 . S
C3491 C3492 1.374 . S
C3492 H3466 0.950 . S
C3492 C3488 1.385 . S
C3492 C3491 1.374 . S
C3493 C3490 1.499 . S
C3493 C3494 1.373 . S
C3493 C3495 1.389 . S
C3494 H3467 0.950 . S
C3494 C3480 1.377 . S
C3494 C3493 1.373 . S
C3495 C3479 1.377 . S
C3495 C3493 1.389 . S
C3495 C3496 1.524 . S
C3496 C3495 1.524 . S
C3496 C3497 1.397 . S
C3496 C3501 1.363 . S
C3497 H3468 0.950 . S
C3497 C3496 1.397 . S
C3497 C3498 1.334 . S
C3498 H3469 0.950 . S
C3498 C3497 1.334 . S
C3498 C3499 1.287 . S
C3499 C3498 1.287 . S
C3499 C3500 1.524 . S
C3499 H3502 0.999 . S
C3500 H3470 0.950 . S
C3500 C3499 1.524 . S
C3500 C3501 1.415 . S
C3501 H3471 0.950 . S
C3501 C3496 1.363 . S
C3501 C3500 1.415 . S
H3502 C3499 0.999 . S
H3503 C3484 0.913 . S
H3504 C3522 0.951 . S
H3505 C3524 0.951 . S
H3506 C3526 0.950 . S
H3507 C3527 0.950 . S
H3508 C3529 0.950 . S
H3509 C3532 0.950 . S
H3510 C3533 0.950 . S
H3511 C3535 0.950 . S
H3512 C3536 0.950 . S
H3513 C3537 0.951 . S
H3514 C3539 0.951 . S
H3515 C3541 0.950 . S
H3516 C3542 0.950 . S
H3517 C3544 0.950 . S
H3518 C3547 0.950 . S
H3519 C3548 0.950 . S
H3520 C3550 0.950 . S
H3521 C3551 0.950 . S
C3522 H3504 0.951 . S
C3522 C3523 1.366 . S
C3522 C3524 1.388 . S
C3523 C3522 1.366 . S
C3523 C3527 1.385 . S
C3524 H3505 0.951 . S
C3524 C3522 1.388 . S
C3524 C3525 1.366 . S
C3525 C3524 1.366 . S
C3525 C3526 1.414 . S
C3525 C3528 1.499 . S
C3526 H3506 0.950 . S
C3526 C3525 1.414 . S
C3526 C3527 1.374 . S
C3527 H3507 0.950 . S
C3527 C3523 1.385 . S
C3527 C3526 1.374 . S
C3528 C3525 1.499 . S
C3528 C3529 1.373 . S
C3528 C3530 1.389 . S
C3529 H3508 0.950 . S
C3529 C3528 1.373 . S
C3529 C3545 1.377 . S
C3530 C3528 1.389 . S
C3530 C3531 1.524 . S
C3530 C3544 1.377 . S
C3531 C3530 1.524 . S
C3531 C3532 1.397 . S
C3531 C3536 1.363 . S
C3532 H3509 0.950 . S
C3532 C3531 1.397 . S
C3532 C3533 1.334 . S
C3533 H3510 0.950 . S
C3533 C3532 1.334 . S
C3533 C3534 1.287 . S
C3534 C3533 1.287 . S
C3534 C3535 1.524 . S
C3534 H3553 0.913 . S
C3535 H3511 0.950 . S
C3535 C3534 1.524 . S
C3535 C3536 1.415 . S
C3536 H3512 0.950 . S
C3536 C3531 1.363 . S
C3536 C3535 1.415 . S
C3537 H3513 0.951 . S
C3537 C3538 1.366 . S
C3537 C3539 1.388 . S
C3538 C3537 1.366 . S
C3538 C3542 1.385 . S
C3539 H3514 0.951 . S
C3539 C3537 1.388 . S
C3539 C3540 1.366 . S
C3540 C3539 1.366 . S
C3540 C3541 1.414 . S
C3540 C3543 1.499 . S
C3541 H3515 0.950 . S
C3541 C3540 1.414 . S
C3541 C3542 1.374 . S
C3542 H3516 0.950 . S
C3542 C3538 1.385 . S
C3542 C3541 1.374 . S
C3543 C3540 1.499 . S
C3543 C3544 1.373 . S
C3543 C3545 1.389 . S
C3544 H3517 0.950 . S
C3544 C3530 1.377 . S
C3544 C3543 1.373 . S
C3545 C3529 1.377 . S
C3545 C3543 1.389 . S
C3545 C3546 1.524 . S
C3546 C3545 1.524 . S
C3546 C3547 1.397 . S
C3546 C3551 1.363 . S
C3547 H3518 0.950 . S
C3547 C3546 1.397 . S
C3547 C3548 1.334 . S
C3548 H3519 0.950 . S
C3548 C3547 1.334 . S
C3548 C3549 1.287 . S
C3549 C3548 1.287 . S
C3549 C3550 1.524 . S
C3549 H3552 0.999 . S
C3550 H3520 0.950 . S
C3550 C3549 1.524 . S
C3550 C3551 1.415 . S
C3551 H3521 0.950 . S
C3551 C3546 1.363 . S
C3551 C3550 1.415 . S
H3552 C3549 0.999 . S
H3553 C3534 0.913 . S
H3554 C3572 0.951 . S
H3555 C3574 0.951 . S
H3556 C3576 0.950 . S
H3557 C3577 0.950 . S
H3558 C3579 0.950 . S
H3559 C3582 0.950 . S
H3560 C3583 0.950 . S
H3561 C3585 0.950 . S
H3562 C3586 0.950 . S
H3563 C3587 0.951 . S
H3564 C3589 0.951 . S
H3565 C3591 0.950 . S
H3566 C3592 0.950 . S
H3567 C3594 0.950 . S
H3568 C3597 0.950 . S
H3569 C3598 0.950 . S
H3570 C3600 0.950 . S
H3571 C3601 0.950 . S
C3572 H3554 0.951 . S
C3572 C3573 1.366 . S
C3572 C3574 1.388 . S
C3573 C3572 1.366 . S
C3573 C3577 1.385 . S
C3574 H3555 0.951 . S
C3574 C3572 1.388 . S
C3574 C3575 1.366 . S
C3575 C3574 1.366 . S
C3575 C3576 1.414 . S
C3575 C3578 1.499 . S
C3576 H3556 0.950 . S
C3576 C3575 1.414 . S
C3576 C3577 1.374 . S
C3577 H3557 0.950 . S
C3577 C3573 1.385 . S
C3577 C3576 1.374 . S
C3578 C3575 1.499 . S
C3578 C3579 1.373 . S
C3578 C3580 1.389 . S
C3579 H3558 0.950 . S
C3579 C3578 1.373 . S
C3579 C3595 1.377 . S
C3580 C3578 1.389 . S
C3580 C3581 1.524 . S
C3580 C3594 1.377 . S
C3581 C3580 1.524 . S
C3581 C3582 1.397 . S
C3581 C3586 1.363 . S
C3582 H3559 0.950 . S
C3582 C3581 1.397 . S
C3582 C3583 1.334 . S
C3583 H3560 0.950 . S
C3583 C3582 1.334 . S
C3583 C3584 1.287 . S
C3584 C3583 1.287 . S
C3584 C3585 1.524 . S
C3584 H3603 0.913 . S
C3585 H3561 0.950 . S
C3585 C3584 1.524 . S
C3585 C3586 1.415 . S
C3586 H3562 0.950 . S
C3586 C3581 1.363 . S
C3586 C3585 1.415 . S
C3587 H3563 0.951 . S
C3587 C3588 1.366 . S
C3587 C3589 1.388 . S
C3588 C3587 1.366 . S
C3588 C3592 1.385 . S
C3589 H3564 0.951 . S
C3589 C3587 1.388 . S
C3589 C3590 1.366 . S
C3590 C3589 1.366 . S
C3590 C3591 1.414 . S
C3590 C3593 1.499 . S
C3591 H3565 0.950 . S
C3591 C3590 1.414 . S
C3591 C3592 1.374 . S
C3592 H3566 0.950 . S
C3592 C3588 1.385 . S
C3592 C3591 1.374 . S
C3593 C3590 1.499 . S
C3593 C3594 1.373 . S
C3593 C3595 1.389 . S
C3594 H3567 0.950 . S
C3594 C3580 1.377 . S
C3594 C3593 1.373 . S
C3595 C3579 1.377 . S
C3595 C3593 1.389 . S
C3595 C3596 1.524 . S
C3596 C3595 1.524 . S
C3596 C3597 1.397 . S
C3596 C3601 1.363 . S
C3597 H3568 0.950 . S
C3597 C3596 1.397 . S
C3597 C3598 1.334 . S
C3598 H3569 0.950 . S
C3598 C3597 1.334 . S
C3598 C3599 1.287 . S
C3599 C3598 1.287 . S
C3599 C3600 1.524 . S
C3599 H3602 0.999 . S
C3600 H3570 0.950 . S
C3600 C3599 1.524 . S
C3600 C3601 1.415 . S
C3601 H3571 0.950 . S
C3601 C3596 1.363 . S
C3601 C3600 1.415 . S
H3602 C3599 0.999 . S
H3603 C3584 0.913 . S
H3604 C3622 0.951 . S
H3605 C3624 0.951 . S
H3606 C3626 0.950 . S
H3607 C3627 0.950 . S
H3608 C3629 0.950 . S
H3609 C3632 0.950 . S
H3610 C3633 0.950 . S
H3611 C3635 0.950 . S
H3612 C3636 0.950 . S
H3613 C3637 0.951 . S
H3614 C3639 0.951 . S
H3615 C3641 0.950 . S
H3616 C3642 0.950 . S
H3617 C3644 0.950 . S
H3618 C3647 0.950 . S
H3619 C3648 0.950 . S
H3620 C3650 0.950 . S
H3621 C3651 0.950 . S
C3622 H3604 0.951 . S
C3622 C3623 1.366 . S
C3622 C3624 1.388 . S
C3623 C3622 1.366 . S
C3623 C3627 1.385 . S
C3624 H3605 0.951 . S
C3624 C3622 1.388 . S
C3624 C3625 1.366 . S
C3625 C3624 1.366 . S
C3625 C3626 1.414 . S
C3625 C3628 1.499 . S
C3626 H3606 0.950 . S
C3626 C3625 1.414 . S
C3626 C3627 1.374 . S
C3627 H3607 0.950 . S
C3627 C3623 1.385 . S
C3627 C3626 1.374 . S
C3628 C3625 1.499 . S
C3628 C3629 1.373 . S
C3628 C3630 1.389 . S
C3629 H3608 0.950 . S
C3629 C3628 1.373 . S
C3629 C3645 1.377 . S
C3630 C3628 1.389 . S
C3630 C3631 1.524 . S
C3630 C3644 1.377 . S
C3631 C3630 1.524 . S
C3631 C3632 1.397 . S
C3631 C3636 1.363 . S
C3632 H3609 0.950 . S
C3632 C3631 1.397 . S
C3632 C3633 1.334 . S
C3633 H3610 0.950 . S
C3633 C3632 1.334 . S
C3633 C3634 1.287 . S
C3634 C3633 1.287 . S
C3634 C3635 1.524 . S
C3634 H3653 0.913 . S
C3635 H3611 0.950 . S
C3635 C3634 1.524 . S
C3635 C3636 1.415 . S
C3636 H3612 0.950 . S
C3636 C3631 1.363 . S
C3636 C3635 1.415 . S
C3637 H3613 0.951 . S
C3637 C3638 1.366 . S
C3637 C3639 1.388 . S
C3638 C3637 1.366 . S
C3638 C3642 1.385 . S
C3639 H3614 0.951 . S
C3639 C3637 1.388 . S
C3639 C3640 1.366 . S
C3640 C3639 1.366 . S
C3640 C3641 1.414 . S
C3640 C3643 1.499 . S
C3641 H3615 0.950 . S
C3641 C3640 1.414 . S
C3641 C3642 1.374 . S
C3642 H3616 0.950 . S
C3642 C3638 1.385 . S
C3642 C3641 1.374 . S
C3643 C3640 1.499 . S
C3643 C3644 1.373 . S
C3643 C3645 1.389 . S
C3644 H3617 0.950 . S
C3644 C3630 1.377 . S
C3644 C3643 1.373 . S
C3645 C3629 1.377 . S
C3645 C3643 1.389 . S
C3645 C3646 1.524 . S
C3646 C3645 1.524 . S
C3646 C3647 1.397 . S
C3646 C3651 1.363 . S
C3647 H3618 0.950 . S
C3647 C3646 1.397 . S
C3647 C3648 1.334 . S
C3648 H3619 0.950 . S
C3648 C3647 1.334 . S
C3648 C3649 1.287 . S
C3649 C3648 1.287 . S
C3649 C3650 1.524 . S
C3649 H3652 0.999 . S
C3650 H3620 0.950 . S
C3650 C3649 1.524 . S
C3650 C3651 1.415 . S
C3651 H3621 0.950 . S
C3651 C3646 1.363 . S
C3651 C3650 1.415 . S
H3652 C3649 0.999 . S
H3653 C3634 0.913 . S
C973 C147 1.432 . S
C988 C265 1.378 . S
C1023 C158 1.459 . S
C1038 C349 1.408 . S
C1073 C136 1.427 . S
C1088 C429 1.419 . S
C1123 C125 1.401 . S
C1138 C345 1.394 1_556 S
C1188 C433 1.354 . S
C1173 C103 1.409 . S
C1223 C114 1.377 . S
C1238 C261 1.347 1_556 S
C1288 C254 1.433 . S
C1273 C131 1.492 . S
C1338 C338 1.459 . S
C1323 C109 1.517 . S
C1373 C120 1.510 . S
C1388 C440 1.466 1_556 S
C1423 C153 1.475 . S
C1438 C356 1.444 . S
C1473 C164 1.459 . S
C1488 C422 1.399 . S
C1538 C272 1.420 . S
C1523 C142 1.452 . S
C1588 C517 1.379 . S
C1573 C15 1.433 . S
C1623 C26 1.460 . S
C1638 C601 1.408 . S
C1673 C4 1.427 . S
C1688 C681 1.419 . S
C1723 C191 1.401 . S
C1738 C597 1.395 . S
C1773 C169 1.409 . S
C1788 C685 1.353 . S
C1823 C180 1.377 . S
C1838 C513 1.369 . S
C1873 C197 1.492 . S
C1888 C506 1.433 . S
C1923 C175 1.517 . S
C1938 C590 1.459 . S
C1988 C692 1.478 . S
C1973 C186 1.510 . S
C2023 C21 1.475 . S
C2038 C608 1.443 . S
C2088 C674 1.400 . S
C2073 C32 1.460 . S
C2123 C10 1.452 . S
C2138 C524 1.419 . S
C2188 C769 1.378 . S
C2173 C81 1.433 . S
C2223 C92 1.459 . S
C2238 C853 1.409 . S
C2288 C933 1.419 . S
C2273 C70 1.427 . S
C2338 C849 1.395 . S
C2323 C59 1.401 . S
C2388 C937 1.354 . S
C2373 C37 1.409 . S
C2423 C48 1.377 . S
C2438 C765 1.369 . S
C2473 C65 1.492 . S
C2488 C758 1.433 . S
C2523 C43 1.516 . S
C2538 C842 1.460 . S
C2588 C944 1.478 . S
C2573 C54 1.510 . S
C2623 C87 1.475 . S
C2638 C860 1.442 . S
C2673 C98 1.460 . S
C2688 C926 1.401 . S
C2723 C76 1.452 . S
C2738 C776 1.420 . S
C2773 C170 1.545 . S
C2788 C268 1.422 . S
C2838 C352 1.479 . S
C2823 C181 1.625 . S
C2873 C192 1.562 . S
C2888 C424 1.386 . S
C2923 C71 1.596 . S
C2938 C340 1.409 . S
C2973 C82 1.578 . S
C2988 C436 1.442 . S
C3038 C256 1.354 . S
C3023 C93 1.516 . S
C3073 C38 1.545 . S
C3088 C520 1.423 . S
C3123 C49 1.625 . S
C3138 C604 1.479 . S
C3173 C60 1.562 . S
C3188 C676 1.387 . S
C3223 C137 1.596 . S
C3238 C592 1.409 . S
C3288 C688 1.440 . S
C3273 C148 1.578 . S
C3323 C159 1.516 . S
C3338 C508 1.356 . S
C3373 C104 1.545 . S
C3388 C772 1.424 . S
C3423 C115 1.625 . S
C3438 C856 1.479 . S
C3488 C928 1.385 . S
C3473 C126 1.562 . S
C3523 C5 1.596 . S
C3538 C844 1.410 . S
C3573 C16 1.578 . S
C3588 C940 1.442 . S
C3623 C27 1.516 . S
C3638 C760 1.354 . S
