# Generated by pormake.
# Topology anh, (6,3)-cn, num edge types: 1
# Building blocks:
#     Node 0, Type 0, BuildingBlock: BETDIP_clean_sbu_0, # of connection points: 6
#     Node 1, Type 0, BuildingBlock: BETDIP_clean_sbu_0, # of connection points: 6
#     Node 2, Type 0, BuildingBlock: BETDIP_clean_sbu_0, # of connection points: 6
#     Node 3, Type 1, BuildingBlock: VETTIZ_charged_linker_0, # of connection points: 3
#     Node 4, Type 1, BuildingBlock: VETTIZ_charged_linker_0, # of connection points: 3
#     Node 5, Type 1, BuildingBlock: VETTIZ_charged_linker_0, # of connection points: 3
#     Node 6, Type 1, BuildingBlock: VETTIZ_charged_linker_0, # of connection points: 3
#     Node 7, Type 1, BuildingBlock: VETTIZ_charged_linker_0, # of connection points: 3
#     Node 8, Type 1, BuildingBlock: VETTIZ_charged_linker_0, # of connection points: 3
#     Edge 9, Type (0, 1), BuildingBlock: OJICUG_clean_linker_0, # of connection points: 2
#     Edge 10, Type (0, 1), BuildingBlock: OJICUG_clean_linker_0, # of connection points: 2
#     Edge 11, Type (0, 1), BuildingBlock: OJICUG_clean_linker_0, # of connection points: 2
#     Edge 12, Type (0, 1), BuildingBlock: OJICUG_clean_linker_0, # of connection points: 2
#     Edge 13, Type (0, 1), BuildingBlock: OJICUG_clean_linker_0, # of connection points: 2
#     Edge 14, Type (0, 1), BuildingBlock: OJICUG_clean_linker_0, # of connection points: 2
#     Edge 15, Type (0, 1), BuildingBlock: OJICUG_clean_linker_0, # of connection points: 2
#     Edge 16, Type (0, 1), BuildingBlock: OJICUG_clean_linker_0, # of connection points: 2
#     Edge 17, Type (0, 1), BuildingBlock: OJICUG_clean_linker_0, # of connection points: 2
#     Edge 18, Type (0, 1), BuildingBlock: OJICUG_clean_linker_0, # of connection points: 2
#     Edge 19, Type (0, 1), BuildingBlock: OJICUG_clean_linker_0, # of connection points: 2
#     Edge 20, Type (0, 1), BuildingBlock: OJICUG_clean_linker_0, # of connection points: 2
#     Edge 21, Type (0, 1), BuildingBlock: OJICUG_clean_linker_0, # of connection points: 2
#     Edge 22, Type (0, 1), BuildingBlock: OJICUG_clean_linker_0, # of connection points: 2
#     Edge 23, Type (0, 1), BuildingBlock: OJICUG_clean_linker_0, # of connection points: 2
#     Edge 24, Type (0, 1), BuildingBlock: OJICUG_clean_linker_0, # of connection points: 2
#     Edge 25, Type (0, 1), BuildingBlock: OJICUG_clean_linker_0, # of connection points: 2
#     Edge 26, Type (0, 1), BuildingBlock: OJICUG_clean_linker_0, # of connection points: 2
# Relax obj value: 0.312
# Max RMSD: 0.194
# Mean RMSD: 0.166
data_MOF--net-anh--node1-BETDIP_clean_sbu_0--node2-VETTIZ_charged_linker_0--edge1-OJICUG_clean_linker_0
_symmetry_space_group_name_H-M    P1
_symmetry_Int_Tables_number       1
_symmetry_cell_setting            triclinic
loop_
_symmetry_equiv_pos_as_xyz
'x, y, z'
_cell_length_a     28.525671
_cell_length_b     28.676394
_cell_length_c     52.67695
_cell_angle_alpha  90.041539
_cell_angle_beta   90.15478
_cell_angle_gamma 119.81462
loop_
_atom_site_label
_atom_site_type_symbol
_atom_site_fract_x
_atom_site_fract_y
_atom_site_fract_z
_atom_type_partial_charge
Tb0 Tb 0.16232 0.62029 0.15438 0.0
Tb1 Tb 1.11231 0.50842 0.16006 0.0
C2 C 0.21181 0.71931 0.15846 0.0
C3 C 0.26098 0.76578 0.16688 0.0
C4 C 0.27537 0.77294 0.19265 0.0
C5 C 0.30717 0.82459 0.20206 0.0
C6 C 0.32441 0.86859 0.18567 0.0
C7 C 0.31635 0.86039 0.15941 0.0
C8 C 0.28469 0.80892 0.15004 0.0
C9 C 0.12249 0.56856 0.1121 0.0
C10 C 0.24102 0.5671 0.15357 0.0
C11 C 1.05421 0.40961 0.15325 0.0
C12 C 0.99768 0.38008 0.14546 0.0
C13 C 0.97791 0.40243 0.12752 0.0
C14 C 0.92286 0.38471 0.12621 0.0
C15 C 0.88722 0.34489 0.14295 0.0
C16 C 0.90672 0.31897 0.15896 0.0
C17 C 0.96165 0.33643 0.16013 0.0
C18 C 0.14868 0.55815 0.20421 0.0
C19 C 1.03461 0.56432 0.15436 0.0
O20 O 0.17974 0.68711 0.17607 0.0
O21 O 0.21456 0.69469 0.13811 0.0
O22 O 0.1479 0.55814 0.12852 0.0
O23 O 0.12077 0.61108 0.11842 0.0
O24 O 0.23758 0.612 0.15503 0.0
O25 O 0.19529 0.52008 0.15444 0.0
O26 O 1.08795 0.44184 0.13624 0.0
O27 O 1.06213 0.43239 0.17556 0.0
O28 O 0.12538 0.57061 0.1871 0.0
O29 O 0.15167 0.51689 0.19644 0.0
O30 O 1.03764 0.51898 0.15551 0.0
O31 O 1.08046 0.61062 0.15485 0.0
H32 H 0.25764 0.73965 0.20587 0.0
H33 H 0.31394 0.83039 0.22236 0.0
H34 H 0.32906 0.89379 0.14643 0.0
H35 H 0.27361 0.80367 0.1301 0.0
H36 H 1.00514 0.43665 0.11611 0.0
H37 H 0.90887 0.40523 0.11367 0.0
H38 H 0.88056 0.28897 0.17252 0.0
H39 H 0.97641 0.31941 0.17429 0.0
Tb40 Tb 0.66595 0.07739 0.48065 0.0
Tb41 Tb 0.60256 0.12717 0.49309 0.0
C42 C 0.7131 1.02525 0.47472 0.0
C43 C 0.70061 0.97033 0.47777 0.0
C44 C 0.68111 0.94374 0.50086 0.0
C45 C 0.68085 0.89608 0.50519 0.0
C46 C 0.69967 0.87474 0.48634 0.0
C47 C 0.71115 0.89737 0.46199 0.0
C48 C 0.71248 0.94573 0.45784 0.0
C49 C 0.64096 0.11762 0.44249 0.0
C50 C 0.53382 0.99804 0.48518 0.0
C51 C 0.55955 0.18321 0.48644 0.0
C52 C 0.58447 0.23935 0.49477 0.0
C53 C 0.6083 0.27939 0.47614 0.0
C54 C 0.65494 0.32763 0.48181 0.0
C55 C 0.67707 0.33695 0.50637 0.0
C56 C 0.64838 0.30034 0.52578 0.0
C57 C 0.60223 0.25191 0.52006 0.0
C58 C 0.63625 0.11274 0.53785 0.0
C59 C 0.73553 0.20498 0.48547 0.0
O60 O 0.71708 1.05206 0.49558 0.0
O61 O 0.68628 1.03269 0.4566 0.0
O62 O 0.61039 0.09033 0.46021 0.0
O63 O 0.68897 0.12528 0.44609 0.0
O64 O 0.58258 1.00215 0.48212 0.0
O65 O 0.53207 1.04299 0.48982 0.0
O66 O 0.58807 0.17621 0.46902 0.0
O67 O 0.54355 0.14653 0.50428 0.0
O68 O 0.64735 0.09954 0.51652 0.0
O69 O 0.60678 0.13454 0.53414 0.0
O70 O 0.68684 0.20151 0.48767 0.0
O71 O 0.73687 0.1594 0.48499 0.0
H72 H 0.67034 0.96174 0.51624 0.0
H73 H 0.67201 0.87979 0.52424 0.0
H74 H 0.72492 0.88098 0.44711 0.0
H75 H 0.72643 0.9657 0.4397 0.0
H76 H 0.59547 0.27051 0.45649 0.0
H77 H 0.67608 0.35528 0.46648 0.0
H78 H 0.66359 0.30748 0.54509 0.0
H79 H 0.58444 0.2222 0.53496 0.0
Tb80 Tb 0.6123 0.57473 0.82528 0.0
Tb81 Tb 0.72543 0.63758 0.82438 0.0
C82 C 0.51492 0.53518 0.83511 0.0
C83 C 0.47555 0.55168 0.82875 0.0
C84 C 0.45914 0.57465 0.84763 0.0
C85 C 0.41712 0.58453 0.84292 0.0
C86 C 0.39025 0.57065 0.81933 0.0
C87 C 0.41046 0.55299 0.79958 0.0
C88 C 0.45278 0.54322 0.80429 0.0
C89 C 0.65264 0.59274 0.77944 0.0
C90 C 0.66736 0.70801 0.81977 0.0
C91 C 0.82212 0.66842 0.81594 0.0
C92 C 0.84314 0.63105 0.81862 0.0
C93 C 0.84399 0.60224 0.79715 0.0
C94 C 0.83824 0.55126 0.79993 0.0
C95 C 0.8319 0.52882 0.82419 0.0
C96 C 0.83752 0.56014 0.84564 0.0
C97 C 0.84391 0.61112 0.84291 0.0
C98 C 0.68565 0.62075 0.87118 0.0
C99 C 0.6693 0.50463 0.82167 0.0
O100 O 0.55318 0.56649 0.85101 0.0
O101 O 0.53271 0.51924 0.81606 0.0
O102 O 0.66644 0.62561 0.79736 0.0
O103 O 0.6127 0.54716 0.78647 0.0
O104 O 0.62288 0.66018 0.82459 0.0
O105 O 0.71371 0.70788 0.81677 0.0
O106 O 0.78654 0.65563 0.79776 0.0
O107 O 0.80599 0.68039 0.83693 0.0
O108 O 0.67054 0.58602 0.85359 0.0
O109 O 0.72465 0.66563 0.86277 0.0
O110 O 0.71206 0.55291 0.81646 0.0
O111 O 0.62514 0.50433 0.82981 0.0
H112 H 0.47662 0.58207 0.86652 0.0
H113 H 0.40214 0.59748 0.85873 0.0
H114 H 0.39037 0.54208 0.78128 0.0
H115 H 0.46546 0.52637 0.78918 0.0
H116 H 0.84333 0.61657 0.77819 0.0
H117 H 0.83512 0.52807 0.78313 0.0
H118 H 0.83495 0.54438 0.86459 0.0
H119 H 0.84393 0.63239 0.85993 0.0
C120 C 0.65708 0.30367 0.19126 0.0
C121 C 0.71237 0.33249 0.19603 0.0
C122 C 0.73185 0.35365 0.22038 0.0
C123 C 0.64039 0.30797 0.23588 0.0
C124 C 0.62175 0.29157 0.21151 0.0
C125 C 0.5615 0.26036 0.20988 0.0
H126 H 0.37769 1.05253 0.26011 0.0
C127 C 0.59392 0.28455 0.25291 0.0
C128 C 0.54694 0.2582 0.23791 0.0
H129 H 0.38327 0.114 0.18464 0.0
H130 H 0.44198 0.2049 0.19998 0.0
H131 H 0.50611 0.12269 0.27552 0.0
H132 H 0.36603 0.11674 0.29398 0.0
H133 H 0.40482 0.18749 0.30039 0.0
H134 H 0.41318 0.13889 0.31902 0.0
H135 H 0.4435 0.07653 0.29084 0.0
H136 H 0.49462 0.13113 0.30829 0.0
C137 C 0.54416 0.20406 0.19812 0.0
C138 C 0.54311 0.29403 0.19415 0.0
C139 C 0.62072 0.24175 0.3432 0.0
C140 C 0.58303 0.2154 0.36279 0.0
C141 C 0.5301 0.20725 0.36019 0.0
C142 C 0.51337 0.21873 0.33725 0.0
C143 C 0.54938 0.23669 0.31702 0.0
C144 C 0.60298 0.25318 0.32059 0.0
C145 C 0.63609 0.28216 0.29766 0.0
C146 C 0.5913 0.27536 0.27938 0.0
C147 C 0.54074 0.24481 0.29074 0.0
C148 C 0.66575 0.25244 0.28843 0.0
C149 C 0.67492 0.34186 0.30477 0.0
C150 C 0.39062 0.08582 0.24705 0.0
C151 C 0.37825 0.07674 0.22111 0.0
C152 C 0.39404 0.12049 0.20459 0.0
C153 C 0.4288 0.17251 0.21322 0.0
C154 C 0.44896 0.17944 0.23798 0.0
C155 C 0.4263 0.13799 0.25516 0.0
C156 C 0.4509 0.15487 0.28111 0.0
C157 C 0.4948 0.21297 0.27566 0.0
C158 C 0.49657 0.22394 0.24962 0.0
C159 C 0.47524 0.11943 0.28937 0.0
C160 C 0.4067 0.14973 0.29966 0.0
H161 H 0.71165 0.35805 0.25883 0.0
H162 H 0.6419 0.28888 0.17234 0.0
H163 H 0.56995 0.33784 0.19755 0.0
H164 H 0.5024 0.28615 0.19945 0.0
H165 H 0.544 0.28657 0.1735 0.0
H166 H 0.57672 0.20321 0.18698 0.0
H167 H 0.51031 0.19119 0.18449 0.0
H168 H 0.53279 0.17285 0.21301 0.0
H169 H 0.66224 0.2509 0.34478 0.0
H170 H 0.50145 0.19106 0.37563 0.0
H171 H 0.47381 0.21445 0.33564 0.0
H172 H 0.63636 0.20946 0.28444 0.0
H173 H 0.69471 0.25417 0.30306 0.0
H174 H 0.68928 0.26993 0.27101 0.0
H175 H 0.66746 0.35197 0.32419 0.0
H176 H 0.6698 0.36959 0.29184 0.0
H177 H 0.71783 0.35173 0.30424 0.0
H178 H 0.77489 0.37678 0.22408 0.0
C179 C 0.69564 0.34208 0.24042 0.0
C180 C 0.83806 0.7682 0.53195 0.0
C181 C 0.81505 0.79798 0.54085 0.0
C182 C 0.81883 0.81209 0.56659 0.0
C183 C 0.85872 0.75697 0.57516 0.0
C184 C 0.85907 0.7473 0.54953 0.0
C185 C 0.87758 0.70791 0.54385 0.0
H186 H 0.84721 0.48029 0.57513 0.0
C187 C 0.87239 0.72096 0.58877 0.0
C188 C 0.88651 0.69406 0.57074 0.0
H189 H 0.90956 0.56781 0.50505 0.0
H190 H 0.93813 0.65171 0.5277 0.0
H191 H 0.94699 0.57718 0.612 0.0
H192 H 0.78258 0.52879 0.59253 0.0
H193 H 0.79128 0.53881 0.62564 0.0
H194 H 0.80295 0.48931 0.61116 0.0
H195 H 0.89152 0.52638 0.6297 0.0
H196 H 0.92167 0.59685 0.63777 0.0
C197 C 0.9302 0.7366 0.52798 0.0
C198 C 0.83066 0.65909 0.53 0.0
C199 C 0.79993 0.67204 0.67776 0.0
C200 C 0.79005 0.62903 0.69371 0.0
C201 C 0.8093 0.5941 0.68674 0.0
C202 C 0.83587 0.60072 0.66356 0.0
C203 C 0.84205 0.64187 0.64709 0.0
C204 C 0.82556 0.6775 0.65464 0.0
C205 C 0.83506 0.71873 0.63487 0.0
C206 C 0.85997 0.70166 0.61396 0.0
C207 C 0.86312 0.65622 0.62109 0.0
C208 C 0.87635 0.77463 0.64569 0.0
C209 C 0.77943 0.71302 0.62728 0.0
C210 C 0.86867 0.51757 0.5647 0.0
C211 C 0.87355 0.51756 0.53812 0.0
C212 C 0.90345 0.56689 0.52538 0.0
C213 C 0.91829 0.615 0.53817 0.0
C214 C 0.90096 0.61248 0.56323 0.0
C215 C 0.88204 0.56577 0.57694 0.0
C216 C 0.86843 0.57226 0.60384 0.0
C217 C 0.8777 0.62921 0.60295 0.0
C218 C 0.89381 0.65095 0.57857 0.0
C219 C 0.90884 0.56764 0.6219 0.0
C220 C 0.80828 0.53014 0.60876 0.0
H221 H 0.84339 0.80367 0.60332 0.0
H222 H 0.836 0.75818 0.51199 0.0
H223 H 0.82205 0.67102 0.51127 0.0
H224 H 0.79308 0.64191 0.5415 0.0
H225 H 0.83925 0.62637 0.52616 0.0
H226 H 0.94306 0.77943 0.52408 0.0
H227 H 0.92503 0.71708 0.50916 0.0
H228 H 0.96467 0.7371 0.53809 0.0
H229 H 0.78525 0.69933 0.68242 0.0
H230 H 0.80295 0.56117 0.69901 0.0
H231 H 0.84857 0.57233 0.65885 0.0
H232 H 0.90802 0.77233 0.65711 0.0
H233 H 0.85617 0.79044 0.65824 0.0
H234 H 0.89862 0.80434 0.63065 0.0
H235 H 0.74479 0.67983 0.63743 0.0
H236 H 0.76986 0.70308 0.6069 0.0
H237 H 0.77774 0.75003 0.63166 0.0
H238 H 0.80219 0.83652 0.57337 0.0
C239 C 0.84191 0.79254 0.58384 0.0
C240 C 0.13882 0.45103 0.85336 0.0
C241 C 0.19204 0.48415 0.86128 0.0
C242 C 0.20562 0.48787 0.88717 0.0
C243 C 1.11154 0.43089 0.89723 0.0
C244 C 1.09902 0.42514 0.87168 0.0
C245 C 1.03954 0.39255 0.86669 0.0
H246 H 0.81892 0.37524 0.89643 0.0
C247 C 1.06076 0.40558 0.91138 0.0
C248 C 1.01826 0.38116 0.89383 0.0
H249 H 0.85537 0.3113 0.82952 0.0
H250 H 0.92438 0.30358 0.85356 0.0
H251 H 0.83977 0.28589 0.9349 0.0
H252 H 0.92671 0.45492 0.91694 0.0
H253 H 0.9269 0.44508 0.95016 0.0
H254 H 0.864 0.42256 0.93411 0.0
H255 H 0.82766 0.33328 0.95168 0.0
H256 H 0.8805 0.31948 0.96126 0.0
C257 C 1.0275 0.34103 0.8518 0.0
C258 C 1.0224 0.42877 0.85218 0.0
C259 C 1.06775 0.45387 0.00383 0.0
C260 C 1.02881 0.45067 0.02091 0.0
C261 C 0.9746 0.42803 0.01299 0.0
C262 C 0.95953 0.40853 0.98813 0.0
C263 C 0.99938 0.41278 0.97115 0.0
C264 C 1.05235 0.43513 0.97918 0.0
C265 C 1.09009 0.4399 0.95839 0.0
C266 C 1.05027 0.41283 0.93686 0.0
C267 C 0.99743 0.39765 0.94431 0.0
C268 C 0.11811 0.40753 0.966 0.0
C269 C 0.12975 0.50085 0.9536 0.0
C270 C 0.84033 0.358 0.88692 0.0
C271 C 0.83475 0.34787 0.86048 0.0
C272 C 0.86131 0.32254 0.8494 0.0
C273 C 0.90206 0.3196 0.86284 0.0
C274 C 0.91563 0.34262 0.88703 0.0
C275 C 0.88122 0.35459 0.89999 0.0
C276 C 0.89967 0.37091 0.92708 0.0
C277 C 0.95468 0.3744 0.92639 0.0
C278 C 0.96453 0.36103 0.90215 0.0
C279 C 0.85988 0.32544 0.9448 0.0
C280 C 0.90452 0.42624 0.93253 0.0
H281 H 0.17786 0.46445 0.9247 0.0
H282 H 0.12838 0.44665 0.83338 0.0
H283 H 1.03255 0.46549 0.86342 0.0
H284 H 0.97889 0.40844 0.84787 0.0
H285 H 1.04335 0.44157 0.83362 0.0
H286 H 1.06478 0.33986 0.8468 0.0
H287 H 1.00647 0.33798 0.83357 0.0
H288 H 1.00243 0.30423 0.86313 0.0
H289 H 1.11003 0.47283 0.00918 0.0
H290 H 0.94416 0.42583 0.02595 0.0
H291 H 0.91798 0.39244 0.98283 0.0
H292 H 1.08873 0.36869 0.97492 0.0
H293 H 0.15117 0.43025 0.9799 0.0
H294 H 0.13472 0.39678 0.9495 0.0
H295 H 0.11821 0.52731 0.96409 0.0
H296 H 0.13039 0.51203 0.93342 0.0
H297 H 0.17156 0.51281 0.95969 0.0
H298 H 0.24728 0.51167 0.89335 0.0
C299 C 0.16552 0.46058 0.90524 0.0
C300 C 0.98896 0.46003 0.47644 0.0
C301 C 0.94689 0.41279 0.46303 0.0
C302 C 0.95481 0.41191 0.43679 0.0
C303 C 1.03943 0.49939 0.43691 0.0
C304 C 1.03555 0.503 0.46287 0.0
C305 C 1.08651 0.5568 0.47203 0.0
H306 H 0.334 0.78751 0.42869 0.0
C307 C 1.08948 0.54832 0.42703 0.0
C308 C 0.1197 0.58385 0.4473 0.0
H309 H 0.28743 0.76571 0.50722 0.0
H310 H 0.20284 0.68052 0.49617 0.0
H311 H 0.30016 0.66908 0.41466 0.0
H312 H 0.2213 0.7629 0.41052 0.0
H313 H 0.19848 0.72174 0.38359 0.0
H314 H 0.26981 0.76887 0.38733 0.0
H315 H 0.31823 0.72241 0.39224 0.0
H316 H 0.26761 0.65418 0.38504 0.0
C317 C 0.12013 0.54389 0.49054 0.0
C318 C 1.06816 0.59326 0.48469 0.0
C319 C 1.11416 0.55776 0.33043 0.0
C320 C 0.15211 0.59661 0.31373 0.0
C321 C 0.19471 0.64392 0.32437 0.0
C322 C 0.19985 0.65205 0.35084 0.0
C323 C 0.16148 0.61298 0.36736 0.0
C324 C 0.11938 0.56708 0.3569 0.0
C325 C 1.08164 0.53051 0.377 0.0
C326 C 1.10743 0.56195 0.4014 0.0
C327 C 0.15475 0.60986 0.39572 0.0
C328 C 1.08345 0.47724 0.37599 0.0
C329 C 1.02526 0.52471 0.37193 0.0
C330 C 0.30701 0.76498 0.44402 0.0
C331 C 0.32062 0.78521 0.46904 0.0
C332 C 0.2804 0.75288 0.48758 0.0
C333 C 0.23099 0.70296 0.48124 0.0
C334 C 0.21906 0.68376 0.45576 0.0
C335 C 0.25778 0.71669 0.43804 0.0
C336 C 0.24045 0.69667 0.41165 0.0
C337 C 0.18701 0.64521 0.41558 0.0
C338 C 0.1715 0.63458 0.44164 0.0
C339 C 0.28376 0.68523 0.40005 0.0
C340 C 0.23239 0.73962 0.39732 0.0
H341 H 0.99985 0.44763 0.40411 0.0
H342 H 0.98599 0.46313 0.49677 0.0
H343 H 1.04353 0.60215 0.47125 0.0
H344 H 1.10357 0.63192 0.49067 0.0
H345 H 1.0432 0.57344 0.50172 0.0
H346 H 0.133 0.51722 0.48132 0.0
H347 H 1.09611 0.52316 0.50767 0.0
H348 H 0.15688 0.58125 0.49668 0.0
H349 H 1.08065 0.52094 0.32306 0.0
H350 H 0.22508 0.67424 0.31218 0.0
H351 H 0.23418 0.68848 0.35734 0.0
H352 H 0.12338 0.48419 0.36927 0.0
H353 H 1.05221 0.44769 0.36289 0.0
H354 H 1.07873 0.45864 0.39491 0.0
H355 H 1.02895 0.56128 0.36269 0.0
H356 H 1.00249 0.52066 0.38952 0.0
H357 H 1.00039 0.49007 0.35923 0.0
H358 H 0.92561 0.37805 0.42561 0.0
C359 C 0.99917 0.45347 0.42408 0.0
C360 C 0.6638 0.96036 0.80983 0.0
C361 C 0.66575 0.91677 0.79619 0.0
C362 C 0.66842 0.92193 0.76962 0.0
C363 C 0.66679 1.00724 0.77005 0.0
C364 C 0.66482 1.00579 0.79625 0.0
C365 C 0.66427 1.05774 0.80566 0.0
H366 H 0.6767 0.30359 0.76313 0.0
C367 C 0.66727 1.05717 0.76031 0.0
C368 C 0.66631 0.08923 0.78089 0.0
H369 H 0.65902 0.25954 0.84197 0.0
H370 H 0.65874 0.17471 0.83059 0.0
H371 H 0.76089 0.26839 0.74828 0.0
H372 H 0.58836 0.19336 0.74571 0.0
H373 H 0.60491 0.17069 0.71819 0.0
H374 H 0.63047 0.2418 0.72256 0.0
H375 H 0.72547 0.28638 0.72567 0.0
H376 H 0.7421 0.23455 0.71908 0.0
C377 C 0.71401 0.0918 0.82239 0.0
C378 C 0.61201 1.04139 0.8204 0.0
C379 C 0.66729 0.07717 0.6631 0.0
C380 C 0.66934 0.1175 0.64684 0.0
C381 C 0.67168 0.16311 0.65843 0.0
C382 C 0.67242 0.16883 0.68496 0.0
C383 C 0.67035 0.12844 0.70093 0.0
C384 C 0.66814 0.08375 0.68986 0.0
C385 C 0.66786 1.04581 0.70979 0.0
C386 C 0.66837 0.07403 0.73463 0.0
C387 C 0.66996 0.12259 0.72932 0.0
C388 C 0.72057 1.04304 0.70649 0.0
C389 C 0.61462 0.99146 0.7065 0.0
C390 C 0.67367 0.27721 0.7785 0.0
C391 C 0.66894 0.29154 0.80365 0.0
C392 C 0.66304 0.25196 0.82219 0.0
C393 C 0.66305 0.20236 0.81565 0.0
C394 C 0.66802 0.18958 0.78999 0.0
C395 C 0.67242 0.2279 0.77235 0.0
C396 C 0.67325 0.21014 0.74585 0.0
C397 C 0.67023 0.15612 0.74947 0.0
C398 C 0.66772 0.14132 0.77554 0.0
C399 C 0.72791 0.25196 0.73386 0.0
C400 C 0.62204 0.20395 0.73215 0.0
H401 H 0.67024 0.96366 0.73671 0.0
H402 H 0.66235 0.95953 0.83035 0.0
H403 H 0.57616 1.01643 0.80825 0.0
H404 H 0.61015 0.07742 0.82662 0.0
H405 H 0.60971 1.01762 0.83749 0.0
H406 H 0.75169 0.10322 0.81167 0.0
H407 H 0.71354 1.06894 0.83951 0.0
H408 H 0.71482 0.12918 0.82866 0.0
H409 H 0.66593 1.04163 0.65524 0.0
H410 H 0.6721 0.19459 0.64693 0.0
H411 H 0.67455 0.20495 0.6919 0.0
H412 H 0.75325 0.08025 0.69764 0.0
H413 H 0.71381 1.00873 0.69421 0.0
H414 H 0.73808 1.04033 0.72485 0.0
H415 H 0.58099 0.99793 0.70025 0.0
H416 H 0.60005 0.9687 0.72441 0.0
H417 H 0.61909 0.96578 0.69203 0.0
H418 H 0.67015 0.89138 0.75819 0.0
C419 C 0.66866 0.96519 0.75691 0.0
C420 C 0.78148 0.56649 0.14356 0.0
C421 C 0.82885 0.57188 0.1301 0.0
C422 C 0.82779 0.57775 0.10363 0.0
C423 C 0.74001 0.57451 0.10385 0.0
C424 C 0.73736 0.56848 0.12989 0.0
C425 C 0.68325 0.56538 0.13893 0.0
H426 H 0.45077 0.58087 0.096 0.0
C427 C 0.6907 0.5751 0.09385 0.0
C428 C 0.65555 0.57043 0.11406 0.0
H429 H 0.47489 0.55552 0.17425 0.0
H430 H 0.56036 0.55664 0.16278 0.0
H431 H 0.57126 0.66494 0.08107 0.0
H432 H 0.47482 0.4931 0.07727 0.0
H433 H 0.51575 0.5111 0.05028 0.0
H434 H 0.46867 0.53548 0.0541 0.0
H435 H 0.51531 0.62998 0.05965 0.0
H436 H 0.58266 0.64581 0.05105 0.0
C437 C 0.69609 0.61203 0.15718 0.0
C438 C 0.64719 0.51106 0.15184 0.0
C439 C 0.68121 0.58914 -0.00266 0.0
C440 C 0.64246 0.58815 0.98035 0.0
C441 C 0.59464 0.58339 0.99063 0.0
C442 C 0.58615 0.58064 0.01711 0.0
C443 C 0.62538 0.58163 0.03392 0.0
C444 C 0.67156 0.58529 0.02372 0.0
C445 C 0.70821 0.58413 0.04392 0.0
C446 C 0.67672 0.57891 0.06817 0.0
C447 C 0.62857 0.57834 0.06233 0.0
C448 C 0.7619 0.63881 0.04288 0.0
C449 C 0.71358 0.53347 0.03903 0.0
C450 C 0.47398 0.57633 0.11111 0.0
C451 C 0.45451 0.56938 0.13623 0.0
C452 C 0.48739 0.56155 0.15459 0.0
C453 C 0.53736 0.56234 0.148 0.0
C454 C 0.55579 0.56975 0.12247 0.0
C455 C 0.52229 0.57545 0.10485 0.0
C456 C 0.54167 0.57782 0.07834 0.0
C457 C 0.59338 0.57567 0.08218 0.0
C458 C 0.60459 0.57123 0.10825 0.0
C459 C 0.55309 0.63216 0.06668 0.0
C460 C 0.49811 0.52718 0.06405 0.0
H461 H 0.79038 0.58419 0.0709 0.0
H462 H 0.77932 0.56189 0.16398 0.0
H463 H 0.63839 0.47748 0.13858 0.0
H464 H 0.60821 0.50749 0.15773 0.0
H465 H 0.66752 0.50662 0.16895 0.0
H466 H 0.72258 0.65117 0.14778 0.0
H467 H 0.71723 0.60935 0.1744 0.0
H468 H 0.65848 0.6113 0.1632 0.0
H469 H 0.7183 0.59232 0.99025 0.0
H470 H 0.56426 0.58317 0.97817 0.0
H471 H 0.5494 0.57844 0.02344 0.0
H472 H 0.75508 0.67162 0.03594 0.0
H473 H 0.79151 0.63679 0.02994 0.0
H474 H 0.78068 0.6529 0.06181 0.0
H475 H 0.67714 0.50116 0.02932 0.0
H476 H 0.71646 0.51431 0.05673 0.0
H477 H 0.74894 0.54305 0.02684 0.0
H478 H 0.86066 0.58093 0.09211 0.0
C479 C 0.7854 0.57926 0.09093 0.0
C480 C 0.30802 0.53036 0.16117 0.0
C481 C 0.29665 0.56903 0.15016 0.0
H482 H 0.36414 0.50059 0.1667 0.0
C483 C 0.33903 0.60826 0.13502 0.0
H484 H 0.27753 0.49892 0.17285 0.0
C485 C 0.38877 0.60819 0.13079 0.0
C486 C 0.40069 0.57012 0.14213 0.0
H487 H 0.33324 0.63868 0.12569 0.0
H488 H 0.41849 0.63878 0.11849 0.0
C489 C 0.35865 0.53145 0.15768 0.0
C490 C 0.79458 0.31149 0.48211 0.0
C491 C 0.79025 0.25987 0.48206 0.0
H492 H 0.84452 0.39829 0.47771 0.0
C493 C 0.84013 0.26129 0.4774 0.0
H494 H 0.7581 0.31363 0.4843 0.0
C495 C 0.89019 0.31025 0.47314 0.0
C496 C 0.89504 0.36211 0.47387 0.0
H497 H 0.84051 0.22379 0.47622 0.0
H498 H 0.92548 0.30721 0.46839 0.0
C499 C 0.84514 0.36088 0.47833 0.0
C500 C 0.71192 0.80919 0.80639 0.0
C501 C 0.66621 0.76219 0.81593 0.0
H502 H 0.74809 0.89158 0.79345 0.0
C503 C 0.62093 0.76915 0.82107 0.0
H504 H 0.74796 0.80752 0.80166 0.0
C505 C 0.62152 0.81936 0.81673 0.0
C506 C 0.66742 0.86618 0.80699 0.0
H507 H 0.58422 0.73528 0.82819 0.0
H508 H 0.58482 0.82074 0.82013 0.0
C509 C 0.71227 0.85876 0.80186 0.0
C510 C 0.98074 0.6073 0.1356 0.0
C511 C 0.98075 0.56574 0.1502 0.0
H512 H 0.93679 0.64266 0.11874 0.0
C513 C 0.9297 0.52918 0.16099 0.0
H514 H 1.0181 0.63736 0.12702 0.0
C515 C 0.88165 0.53318 0.1566 0.0
C516 C 0.88128 0.57306 0.14072 0.0
H517 H 0.92679 0.49735 0.17309 0.0
H518 H 0.84423 0.5041 0.16516 0.0
C519 C 0.93305 0.61054 0.13089 0.0
C520 C 0.47456 0.90149 0.46526 0.0
C521 C 0.47966 0.94256 0.48208 0.0
H522 H 0.4242 0.82358 0.44782 0.0
C523 C 0.43089 0.93001 0.49502 0.0
H524 H 0.50946 0.90798 0.45439 0.0
C525 C 0.38106 0.87974 0.49173 0.0
C526 C 0.37574 0.83898 0.47455 0.0
H527 H 0.43115 0.95932 0.50807 0.0
H528 H 0.34594 0.87354 0.50231 0.0
C529 C 0.42445 0.85211 0.46136 0.0
C530 C 0.63818 0.40301 0.83229 0.0
C531 C 0.66999 0.45028 0.81765 0.0
H532 H 0.61338 0.31947 0.84055 0.0
C533 C 0.70111 0.44356 0.79847 0.0
H534 H 0.6127 0.40441 0.84711 0.0
C535 C 0.70075 0.39369 0.79433 0.0
C536 C 0.66989 0.34653 0.80927 0.0
H537 H 0.72563 0.47709 0.78614 0.0
H538 H 0.72595 0.39264 0.77928 0.0
C539 C 0.63873 0.3533 0.82853 0.0
C540 C 0.6973 0.80364 0.51377 0.0
C541 C 0.72269 0.84166 0.49449 0.0
H542 H 0.70848 0.76151 0.54452 0.0
C543 C 0.77679 0.8588 0.48817 0.0
H544 H 0.65557 0.78965 0.51876 0.0
C545 C 0.80658 0.84256 0.50272 0.0
C546 C 0.78261 0.8097 0.52372 0.0
H547 H 0.7978 0.8888 0.47368 0.0
H548 H 0.84908 0.85845 0.49867 0.0
C549 C 0.72748 0.78828 0.52861 0.0
C550 C 0.85317 0.45617 0.81584 0.0
C551 C 0.82049 0.47326 0.82763 0.0
H552 H 0.88284 0.4015 0.81687 0.0
C553 C 0.78138 0.43947 0.84522 0.0
H554 H 0.88331 0.48145 0.80209 0.0
C555 C 0.7795 0.39225 0.85316 0.0
C556 C 0.81816 0.37949 0.84434 0.0
H557 H 0.75455 0.45129 0.85399 0.0
H558 H 0.75165 0.3689 0.86809 0.0
C559 C 0.85222 0.40968 0.82419 0.0
C560 C 0.30904 0.92702 0.21497 0.0
C561 C 0.34038 0.92171 0.19586 0.0
H562 H 0.29562 0.98131 0.23751 0.0
C563 C 0.38194 0.96741 0.18428 0.0
H564 H 0.27563 0.89207 0.22363 0.0
C565 C 0.39215 1.01797 0.19169 0.0
C566 C 0.36104 1.02337 0.21084 0.0
H567 H 0.40629 0.96395 0.16945 0.0
H568 H 0.42557 1.05289 0.183 0.0
C569 C 0.31954 0.97769 0.22251 0.0
C570 C 0.76788 0.37499 0.52687 0.0
C571 C 0.73176 0.38228 0.51139 0.0
H572 H 0.84422 0.41234 0.54603 0.0
C573 C 0.7484 0.43282 0.50071 0.0
H574 H 0.75688 0.33586 0.53458 0.0
C575 C 0.79849 0.47632 0.50708 0.0
C576 C 0.83281 0.46991 0.52422 0.0
H577 H 0.72147 0.43952 0.48868 0.0
H578 H 0.80794 0.51575 0.50039 0.0
C579 C 0.81828 0.41835 0.53298 0.0
C580 C 0.2943 0.50548 0.8127 0.0
C581 C 0.33389 0.55854 0.81871 0.0
H582 H 0.217 0.43958 0.82243 0.0
C583 C 0.31935 0.59102 0.83273 0.0
H584 H 0.30418 0.47938 0.8019 0.0
C585 C 0.26994 0.56753 0.84516 0.0
C586 C 0.23436 0.51226 0.84257 0.0
H587 H 0.34905 0.63228 0.83718 0.0
H588 H 0.26173 0.59123 0.85857 0.0
C589 C 0.24456 0.4823 0.82474 0.0
C590 C 0.7911 0.28899 0.15588 0.0
C591 C 0.83396 0.33904 0.14838 0.0
H592 H 0.71834 0.24815 0.17753 0.0
C593 C 0.83009 0.38555 0.15223 0.0
H594 H 0.79266 0.25246 0.15272 0.0
C595 C 0.78814 0.38302 0.16666 0.0
C596 C 0.74927 0.33403 0.17664 0.0
H597 H 0.86195 0.42443 0.14621 0.0
H598 H 0.78716 0.41914 0.17135 0.0
C599 C 0.74891 0.28653 0.17006 0.0
C600 C 1.10797 0.49643 0.08178 0.0
C601 C 1.09571 0.53566 0.08982 0.0
H602 H 1.09461 0.43714 0.05374 0.0
C603 C 1.05764 0.54349 0.07639 0.0
H604 H 0.13744 0.49001 0.09185 0.0
C605 C 1.03313 0.51332 0.05467 0.0
C606 C 1.04675 0.47529 0.04611 0.0
H607 H 1.04745 0.57347 0.08246 0.0
H608 H 1.00554 0.52147 0.04395 0.0
C609 C 1.08352 0.4663 0.06008 0.0
C610 C 0.57265 0.11916 0.41424 0.0
C611 C 0.62617 0.14323 0.42269 0.0
H612 H 0.51733 0.12227 0.38811 0.0
C613 C 0.66521 0.19239 0.41252 0.0
H614 H 0.54211 0.08104 0.42197 0.0
C615 C 0.65077 0.21741 0.39393 0.0
C616 C 0.5974 0.19269 0.38469 0.0
H617 H 0.70664 0.21183 0.41922 0.0
H618 H 0.68158 0.2559 0.38676 0.0
C619 C 0.55846 0.1433 0.39514 0.0
C620 C 0.72679 0.65368 0.75109 0.0
C621 C 0.68588 0.60147 0.75694 0.0
H622 H 0.79384 0.70301 0.72735 0.0
C623 C 0.67985 0.55798 0.74231 0.0
H624 H 0.73214 0.68783 0.76219 0.0
C625 C 0.71484 0.56669 0.72213 0.0
C626 C 0.75625 0.61898 0.71641 0.0
H627 H 0.64858 0.51733 0.74661 0.0
H628 H 0.70875 0.5327 0.71069 0.0
C629 C 0.76207 0.66232 0.7312 0.0
C630 C 0.69062 0.15795 0.57655 0.0
C631 C 0.65584 0.10971 0.56387 0.0
H632 H 0.72385 0.19805 0.61185 0.0
C633 C 0.62928 1.06248 0.57851 0.0
H634 H 0.7106 0.19531 0.56604 0.0
C635 C 0.63574 1.06407 0.60523 0.0
C636 C 0.66843 0.11313 0.61809 0.0
H637 H 0.60069 1.02491 0.56953 0.0
H638 H 0.61247 1.02739 0.61591 0.0
C639 C 0.6973 0.15958 0.60305 0.0
C640 C 0.62427 0.56796 0.90797 0.0
C641 C 0.67392 0.60968 0.89893 0.0
H642 H 0.5748 0.529 0.94068 0.0
C643 C 0.71296 0.64303 0.91688 0.0
H644 H 0.59327 0.54155 0.89473 0.0
C645 C 0.70297 0.63515 0.94304 0.0
C646 C 0.65302 0.59446 0.95222 0.0
H647 H 0.7517 0.67546 0.91069 0.0
H648 H 0.73412 0.66194 0.95614 0.0
C649 C 0.61366 0.56094 0.93431 0.0
C650 C 0.15541 0.61811 0.24146 0.0
C651 C 0.14807 0.56896 0.23205 0.0
H652 H 0.16321 0.66582 0.27455 0.0
C653 C 0.14042 0.52891 0.24974 0.0
H654 H 0.16132 0.64979 0.22846 0.0
C655 C 0.14029 0.53752 0.27595 0.0
C656 C 0.14902 0.58698 0.28552 0.0
H657 H 0.13426 0.49036 0.24331 0.0
H658 H 0.13473 0.50573 0.28882 0.0
C659 C 0.15661 0.62726 0.26789 0.0
loop_
_geom_bond_atom_site_label_1
_geom_bond_atom_site_label_2
_geom_bond_distance
_geom_bond_site_symmetry_2
_ccdc_geom_bond_type
Tb0 C2 2.809 . S
Tb0 O20 2.484 . S
Tb0 O21 2.440 . S
Tb0 O22 2.658 . S
Tb0 O23 2.409 . S
Tb0 O24 2.378 . S
Tb0 O28 2.325 . S
Tb0 O31 2.341 1_455 S
Tb1 C11 2.809 . S
Tb1 O22 2.325 1_655 S
Tb1 O25 2.341 1_655 S
Tb1 O26 2.484 . S
Tb1 O27 2.440 . S
Tb1 O28 2.658 1_655 S
Tb1 O29 2.408 . S
Tb1 O30 2.378 . S
C2 Tb0 2.809 . S
C2 C3 1.514 . S
C2 O20 1.248 . S
C2 O21 1.266 . S
C3 C2 1.514 . S
C3 C4 1.359 . S
C3 C8 1.348 . S
C4 C3 1.359 . S
C4 C5 1.380 . S
C4 H32 0.929 . S
C5 C4 1.380 . S
C5 C6 1.347 . S
C5 H33 0.931 . S
C6 C5 1.347 . S
C6 C7 1.369 . S
C7 C6 1.369 . S
C7 C8 1.408 . S
C7 H34 0.930 . S
C8 C3 1.348 . S
C8 C7 1.408 . S
C8 H35 0.930 . S
C9 O22 1.281 . S
C9 O23 1.254 . S
C10 O24 1.236 . S
C10 O25 1.266 . S
C11 Tb1 2.809 . S
C11 C12 1.514 . S
C11 O26 1.248 . S
C11 O27 1.266 . S
C12 C11 1.514 . S
C12 C13 1.359 . S
C12 C17 1.348 . S
C13 C12 1.359 . S
C13 C14 1.380 . S
C13 H36 0.929 . S
C14 C13 1.380 . S
C14 C15 1.347 . S
C14 H37 0.931 . S
C15 C14 1.347 . S
C15 C16 1.369 . S
C16 C15 1.369 . S
C16 C17 1.408 . S
C16 H38 0.930 . S
C17 C12 1.348 . S
C17 C16 1.408 . S
C17 H39 0.930 . S
C18 O28 1.281 . S
C18 O29 1.252 1_455 S
C19 O30 1.236 . S
C19 O31 1.266 . S
O20 Tb0 2.484 . S
O20 C2 1.248 . S
O21 Tb0 2.440 . S
O21 C2 1.266 . S
O22 Tb0 2.658 . S
O22 Tb1 2.325 1_455 S
O22 C9 1.281 . S
O23 Tb0 2.409 . S
O23 C9 1.254 . S
O24 Tb0 2.378 . S
O24 C10 1.236 . S
O25 Tb1 2.341 1_455 S
O25 C10 1.266 . S
O26 Tb1 2.484 . S
O26 C11 1.248 . S
O27 Tb1 2.440 . S
O27 C11 1.266 . S
O28 Tb0 2.325 . S
O28 Tb1 2.658 1_455 S
O28 C18 1.281 . S
O29 Tb1 2.408 . S
O29 C18 1.252 1_655 S
O30 Tb1 2.378 . S
O30 C19 1.236 . S
O31 Tb0 2.341 1_655 S
O31 C19 1.266 . S
H32 C4 0.929 . S
H33 C5 0.931 . S
H34 C7 0.930 . S
H35 C8 0.930 . S
H36 C13 0.929 . S
H37 C14 0.931 . S
H38 C16 0.930 . S
H39 C17 0.930 . S
Tb40 C42 2.809 . S
Tb40 O60 2.484 . S
Tb40 O61 2.440 . S
Tb40 O62 2.658 1_565 S
Tb40 O63 2.409 1_565 S
Tb40 O64 2.378 . S
Tb40 O68 2.325 1_565 S
Tb40 O71 2.341 1_565 S
Tb41 C51 2.809 . S
Tb41 O62 2.325 . S
Tb41 O65 2.341 1_545 S
Tb41 O66 2.484 . S
Tb41 O67 2.440 . S
Tb41 O68 2.658 . S
Tb41 O69 2.409 . S
Tb41 O70 2.378 . S
C42 Tb40 2.809 . S
C42 C43 1.514 . S
C42 O60 1.248 . S
C42 O61 1.266 . S
C43 C42 1.514 . S
C43 C44 1.359 . S
C43 C48 1.348 . S
C44 C43 1.359 . S
C44 C45 1.380 . S
C44 H72 0.929 . S
C45 C44 1.380 . S
C45 C46 1.347 . S
C45 H73 0.931 . S
C46 C45 1.347 . S
C46 C47 1.369 . S
C47 C46 1.369 . S
C47 C48 1.408 . S
C47 H74 0.930 . S
C48 C43 1.348 . S
C48 C47 1.408 . S
C48 H75 0.930 . S
C49 O62 1.281 . S
C49 O63 1.254 . S
C50 O64 1.236 . S
C50 O65 1.266 . S
C51 Tb41 2.809 . S
C51 C52 1.514 . S
C51 O66 1.248 . S
C51 O67 1.266 . S
C52 C51 1.514 . S
C52 C53 1.359 . S
C52 C57 1.348 . S
C53 C52 1.359 . S
C53 C54 1.380 . S
C53 H76 0.929 . S
C54 C53 1.380 . S
C54 C55 1.347 . S
C54 H77 0.931 . S
C55 C54 1.347 . S
C55 C56 1.369 . S
C56 C55 1.369 . S
C56 C57 1.408 . S
C56 H78 0.930 . S
C57 C52 1.348 . S
C57 C56 1.408 . S
C57 H79 0.930 . S
C58 O68 1.281 . S
C58 O69 1.254 . S
C59 O70 1.236 . S
C59 O71 1.266 . S
O60 Tb40 2.484 . S
O60 C42 1.248 . S
O61 Tb40 2.440 . S
O61 C42 1.266 . S
O62 Tb40 2.658 1_545 S
O62 Tb41 2.325 . S
O62 C49 1.281 . S
O63 Tb40 2.409 1_545 S
O63 C49 1.254 . S
O64 Tb40 2.378 . S
O64 C50 1.236 . S
O65 Tb41 2.341 1_565 S
O65 C50 1.266 . S
O66 Tb41 2.484 . S
O66 C51 1.248 . S
O67 Tb41 2.440 . S
O67 C51 1.266 . S
O68 Tb40 2.325 1_545 S
O68 Tb41 2.658 . S
O68 C58 1.281 . S
O69 Tb41 2.409 . S
O69 C58 1.254 . S
O70 Tb41 2.378 . S
O70 C59 1.236 . S
O71 Tb40 2.341 1_545 S
O71 C59 1.266 . S
H72 C44 0.929 . S
H73 C45 0.931 . S
H74 C47 0.930 . S
H75 C48 0.930 . S
H76 C53 0.929 . S
H77 C54 0.931 . S
H78 C56 0.930 . S
H79 C57 0.930 . S
Tb80 C82 2.809 . S
Tb80 O100 2.484 . S
Tb80 O101 2.440 . S
Tb80 O102 2.658 . S
Tb80 O103 2.409 . S
Tb80 O104 2.378 . S
Tb80 O108 2.325 . S
Tb80 O111 2.341 . S
Tb81 C91 2.809 . S
Tb81 O102 2.325 . S
Tb81 O105 2.341 . S
Tb81 O106 2.484 . S
Tb81 O107 2.440 . S
Tb81 O108 2.658 . S
Tb81 O109 2.409 . S
Tb81 O110 2.378 . S
C82 Tb80 2.809 . S
C82 C83 1.514 . S
C82 O100 1.248 . S
C82 O101 1.266 . S
C83 C82 1.514 . S
C83 C84 1.359 . S
C83 C88 1.348 . S
C84 C83 1.359 . S
C84 C85 1.380 . S
C84 H112 0.929 . S
C85 C84 1.380 . S
C85 C86 1.347 . S
C85 H113 0.931 . S
C86 C85 1.347 . S
C86 C87 1.369 . S
C87 C86 1.369 . S
C87 C88 1.408 . S
C87 H114 0.930 . S
C88 C83 1.348 . S
C88 C87 1.408 . S
C88 H115 0.930 . S
C89 O102 1.281 . S
C89 O103 1.254 . S
C90 O104 1.236 . S
C90 O105 1.266 . S
C91 Tb81 2.809 . S
C91 C92 1.514 . S
C91 O106 1.248 . S
C91 O107 1.266 . S
C92 C91 1.514 . S
C92 C93 1.359 . S
C92 C97 1.348 . S
C93 C92 1.359 . S
C93 C94 1.380 . S
C93 H116 0.929 . S
C94 C93 1.380 . S
C94 C95 1.347 . S
C94 H117 0.931 . S
C95 C94 1.347 . S
C95 C96 1.369 . S
C96 C95 1.369 . S
C96 C97 1.408 . S
C96 H118 0.930 . S
C97 C92 1.348 . S
C97 C96 1.408 . S
C97 H119 0.930 . S
C98 O108 1.281 . S
C98 O109 1.254 . S
C99 O110 1.236 . S
C99 O111 1.266 . S
O100 Tb80 2.484 . S
O100 C82 1.248 . S
O101 Tb80 2.440 . S
O101 C82 1.266 . S
O102 Tb80 2.658 . S
O102 Tb81 2.325 . S
O102 C89 1.281 . S
O103 Tb80 2.409 . S
O103 C89 1.254 . S
O104 Tb80 2.378 . S
O104 C90 1.236 . S
O105 Tb81 2.341 . S
O105 C90 1.266 . S
O106 Tb81 2.484 . S
O106 C91 1.248 . S
O107 Tb81 2.440 . S
O107 C91 1.266 . S
O108 Tb80 2.325 . S
O108 Tb81 2.658 . S
O108 C98 1.281 . S
O109 Tb81 2.409 . S
O109 C98 1.254 . S
O110 Tb81 2.378 . S
O110 C99 1.236 . S
O111 Tb80 2.341 . S
O111 C99 1.266 . S
H112 C84 0.929 . S
H113 C85 0.931 . S
H114 C87 0.930 . S
H115 C88 0.930 . S
H116 C93 0.929 . S
H117 C94 0.931 . S
H118 C96 0.930 . S
H119 C97 0.930 . S
C120 C121 1.391 . S
C120 C124 1.391 . S
C120 H162 0.948 . S
C121 C120 1.391 . S
C121 C122 1.391 . S
C122 C121 1.391 . S
C122 H178 0.947 . S
C122 C179 1.392 . S
C123 C124 1.391 . S
C123 C127 1.397 . S
C123 C179 1.419 . S
C124 C120 1.391 . S
C124 C123 1.391 . S
C124 C125 1.399 . S
C125 C124 1.399 . S
C125 C128 1.396 . S
C125 C137 1.453 . S
C125 C138 1.684 . S
H126 C150 0.948 . S
C127 C123 1.397 . S
C127 C128 1.394 . S
C127 C146 1.723 . S
C128 C125 1.396 . S
C128 C127 1.394 . S
C128 C158 1.723 . S
H129 C152 0.947 . S
H130 C153 0.948 1_545 S
H131 C159 0.982 . S
H132 C160 0.979 . S
H133 C160 0.980 . S
H134 C160 0.983 . S
H135 C159 0.979 . S
H136 C159 0.977 . S
C137 C125 1.453 . S
C137 H166 0.982 . S
C137 H167 0.979 . S
C137 H168 0.977 . S
C138 C125 1.684 . S
C138 H163 0.979 . S
C138 H164 0.980 . S
C138 H165 0.983 . S
C139 C140 1.391 . S
C139 C144 1.391 . S
C139 H169 0.948 . S
C140 C139 1.391 . S
C140 C141 1.393 1_545 S
C141 C140 1.393 1_565 S
C141 C142 1.392 . S
C141 H170 0.945 . S
C142 C141 1.392 . S
C142 C143 1.419 1_565 S
C142 H171 0.948 . S
C143 C142 1.419 1_545 S
C143 C144 1.391 . S
C143 C147 1.397 . S
C144 C139 1.391 . S
C144 C143 1.391 . S
C144 C145 1.399 . S
C145 C144 1.399 . S
C145 C146 1.396 . S
C145 C148 1.453 . S
C145 C149 1.684 . S
C146 C127 1.723 . S
C146 C145 1.396 . S
C146 C147 1.394 . S
C147 C143 1.397 . S
C147 C146 1.394 . S
C147 C157 1.723 1_545 S
C148 C145 1.453 . S
C148 H172 0.982 . S
C148 H173 0.979 . S
C148 H174 0.977 . S
C149 C145 1.684 . S
C149 H175 0.979 . S
C149 H176 0.980 . S
C149 H177 0.983 . S
C150 H126 0.948 . S
C150 C151 1.391 . S
C150 C155 1.391 . S
C151 C150 1.391 . S
C151 C152 1.391 . S
C152 H129 0.947 . S
C152 C151 1.391 . S
C152 C153 1.392 . S
C153 H130 0.948 1_565 S
C153 C152 1.392 . S
C153 C154 1.419 . S
C154 C153 1.419 . S
C154 C155 1.391 . S
C154 C158 1.397 1_565 S
C155 C150 1.391 . S
C155 C154 1.391 . S
C155 C156 1.399 . S
C156 C155 1.399 . S
C156 C157 1.396 . S
C156 C159 1.453 . S
C156 C160 1.684 . S
C157 C147 1.723 1_565 S
C157 C156 1.396 . S
C157 C158 1.394 1_565 S
C158 C128 1.723 . S
C158 C154 1.397 1_545 S
C158 C157 1.394 1_545 S
C159 H131 0.982 . S
C159 H135 0.979 . S
C159 H136 0.977 . S
C159 C156 1.453 . S
C160 H132 0.979 . S
C160 H133 0.980 . S
C160 H134 0.983 . S
C160 C156 1.684 . S
H161 C179 0.948 . S
H162 C120 0.948 . S
H163 C138 0.979 . S
H164 C138 0.980 . S
H165 C138 0.983 . S
H166 C137 0.982 . S
H167 C137 0.979 . S
H168 C137 0.977 . S
H169 C139 0.948 . S
H170 C141 0.945 . S
H171 C142 0.948 . S
H172 C148 0.982 . S
H173 C148 0.979 . S
H174 C148 0.977 . S
H175 C149 0.979 . S
H176 C149 0.980 . S
H177 C149 0.983 . S
H178 C122 0.947 . S
C179 C122 1.392 . S
C179 C123 1.419 . S
C179 H161 0.948 . S
C180 C181 1.391 . S
C180 C184 1.391 . S
C180 H222 0.948 . S
C181 C180 1.391 . S
C181 C182 1.391 . S
C182 C181 1.391 . S
C182 H238 0.947 . S
C182 C239 1.392 . S
C183 C184 1.391 . S
C183 C187 1.397 . S
C183 C239 1.419 . S
C184 C180 1.391 . S
C184 C183 1.391 . S
C184 C185 1.399 . S
C185 C184 1.399 . S
C185 C188 1.396 . S
C185 C197 1.453 . S
C185 C198 1.684 . S
H186 C210 0.948 . S
C187 C183 1.397 . S
C187 C188 1.394 . S
C187 C206 1.723 . S
C188 C185 1.396 . S
C188 C187 1.394 . S
C188 C218 1.723 . S
H189 C212 0.947 . S
H190 C213 0.948 . S
H191 C219 0.982 . S
H192 C220 0.979 . S
H193 C220 0.980 . S
H194 C220 0.983 . S
H195 C219 0.979 . S
H196 C219 0.977 . S
C197 C185 1.453 . S
C197 H226 0.982 . S
C197 H227 0.979 . S
C197 H228 0.977 . S
C198 C185 1.684 . S
C198 H223 0.979 . S
C198 H224 0.980 . S
C198 H225 0.983 . S
C199 C200 1.391 . S
C199 C204 1.391 . S
C199 H229 0.948 . S
C200 C199 1.391 . S
C200 C201 1.391 . S
C201 C200 1.391 . S
C201 C202 1.392 . S
C201 H230 0.947 . S
C202 C201 1.392 . S
C202 C203 1.419 . S
C202 H231 0.948 . S
C203 C202 1.419 . S
C203 C204 1.391 . S
C203 C207 1.397 . S
C204 C199 1.391 . S
C204 C203 1.391 . S
C204 C205 1.399 . S
C205 C204 1.399 . S
C205 C206 1.396 . S
C205 C208 1.453 . S
C205 C209 1.684 . S
C206 C187 1.723 . S
C206 C205 1.396 . S
C206 C207 1.394 . S
C207 C203 1.397 . S
C207 C206 1.394 . S
C207 C217 1.723 . S
C208 C205 1.453 . S
C208 H232 0.982 . S
C208 H233 0.979 . S
C208 H234 0.977 . S
C209 C205 1.684 . S
C209 H235 0.979 . S
C209 H236 0.980 . S
C209 H237 0.983 . S
C210 H186 0.948 . S
C210 C211 1.391 . S
C210 C215 1.391 . S
C211 C210 1.391 . S
C211 C212 1.391 . S
C212 H189 0.947 . S
C212 C211 1.391 . S
C212 C213 1.392 . S
C213 H190 0.948 . S
C213 C212 1.392 . S
C213 C214 1.419 . S
C214 C213 1.419 . S
C214 C215 1.391 . S
C214 C218 1.397 . S
C215 C210 1.391 . S
C215 C214 1.391 . S
C215 C216 1.399 . S
C216 C215 1.399 . S
C216 C217 1.396 . S
C216 C219 1.453 . S
C216 C220 1.684 . S
C217 C207 1.723 . S
C217 C216 1.396 . S
C217 C218 1.394 . S
C218 C188 1.723 . S
C218 C214 1.397 . S
C218 C217 1.394 . S
C219 H191 0.982 . S
C219 H195 0.979 . S
C219 H196 0.977 . S
C219 C216 1.453 . S
C220 H192 0.979 . S
C220 H193 0.980 . S
C220 H194 0.983 . S
C220 C216 1.684 . S
H221 C239 0.948 . S
H222 C180 0.948 . S
H223 C198 0.979 . S
H224 C198 0.980 . S
H225 C198 0.983 . S
H226 C197 0.982 . S
H227 C197 0.979 . S
H228 C197 0.977 . S
H229 C199 0.948 . S
H230 C201 0.947 . S
H231 C202 0.948 . S
H232 C208 0.982 . S
H233 C208 0.979 . S
H234 C208 0.977 . S
H235 C209 0.979 . S
H236 C209 0.980 . S
H237 C209 0.983 . S
H238 C182 0.947 . S
C239 C182 1.392 . S
C239 C183 1.419 . S
C239 H221 0.948 . S
C240 C241 1.391 . S
C240 C244 1.391 . S
C240 H282 0.948 . S
C241 C240 1.391 . S
C241 C242 1.391 . S
C242 C241 1.391 . S
C242 H298 0.947 . S
C242 C299 1.392 . S
C243 C244 1.391 . S
C243 C247 1.397 . S
C243 C299 1.419 . S
C244 C240 1.391 . S
C244 C243 1.391 . S
C244 C245 1.399 . S
C245 C244 1.399 . S
C245 C248 1.396 . S
C245 C257 1.453 . S
C245 C258 1.684 . S
H246 C270 0.948 . S
C247 C243 1.397 . S
C247 C248 1.394 . S
C247 C266 1.723 . S
C248 C245 1.396 . S
C248 C247 1.394 . S
C248 C278 1.723 1_455 S
H249 C272 0.947 . S
H250 C273 0.948 . S
H251 C279 0.982 . S
H252 C280 0.979 . S
H253 C280 0.980 . S
H254 C280 0.983 . S
H255 C279 0.979 . S
H256 C279 0.977 . S
C257 C245 1.453 . S
C257 H286 0.987 1_455 S
C257 H287 0.979 . S
C257 H288 0.977 1_455 S
C258 C245 1.684 . S
C258 H283 0.979 . S
C258 H284 0.980 . S
C258 H285 0.983 . S
C259 C260 1.391 . S
C259 C264 1.391 1_554 S
C259 H289 0.948 . S
C260 C259 1.391 . S
C260 C261 1.391 1_455 S
C261 C260 1.391 1_655 S
C261 C262 1.392 1_554 S
C261 H290 0.947 . S
C262 C261 1.392 1_556 S
C262 C263 1.419 . S
C262 H291 0.948 . S
C263 C262 1.419 . S
C263 C264 1.391 1_655 S
C263 C267 1.397 . S
C264 C259 1.391 1_556 S
C264 C263 1.391 1_455 S
C264 C265 1.399 . S
C265 C264 1.399 . S
C265 C266 1.396 . S
C265 C268 1.453 . S
C265 C269 1.684 . S
C266 C247 1.723 . S
C266 C265 1.396 . S
C266 C267 1.394 1_455 S
C267 C263 1.397 . S
C267 C266 1.394 1_655 S
C267 C277 1.723 . S
C268 C265 1.453 . S
C268 H292 0.982 . S
C268 H293 0.979 . S
C268 H294 0.977 . S
C269 C265 1.684 . S
C269 H295 0.979 . S
C269 H296 0.980 . S
C269 H297 0.983 . S
C270 H246 0.948 . S
C270 C271 1.391 . S
C270 C275 1.391 . S
C271 C270 1.391 . S
C271 C272 1.391 . S
C272 H249 0.947 . S
C272 C271 1.391 . S
C272 C273 1.392 . S
C273 H250 0.948 . S
C273 C272 1.392 . S
C273 C274 1.419 . S
C274 C273 1.419 . S
C274 C275 1.391 . S
C274 C278 1.397 . S
C275 C270 1.391 . S
C275 C274 1.391 . S
C275 C276 1.399 . S
C276 C275 1.399 . S
C276 C277 1.396 . S
C276 C279 1.453 . S
C276 C280 1.684 . S
C277 C267 1.723 . S
C277 C276 1.396 . S
C277 C278 1.394 . S
C278 C248 1.723 1_655 S
C278 C274 1.397 . S
C278 C277 1.394 . S
C279 H251 0.982 . S
C279 H255 0.979 . S
C279 H256 0.977 . S
C279 C276 1.453 . S
C280 H252 0.979 . S
C280 H253 0.980 . S
C280 H254 0.983 . S
C280 C276 1.684 . S
H281 C299 0.948 . S
H282 C240 0.948 . S
H283 C258 0.979 . S
H284 C258 0.980 . S
H285 C258 0.983 . S
H286 C257 0.987 1_655 S
H287 C257 0.979 . S
H288 C257 0.977 1_655 S
H289 C259 0.948 . S
H290 C261 0.947 . S
H291 C262 0.948 . S
H292 C268 0.982 . S
H293 C268 0.979 . S
H294 C268 0.977 . S
H295 C269 0.979 . S
H296 C269 0.980 . S
H297 C269 0.983 . S
H298 C242 0.947 . S
C299 C242 1.392 . S
C299 C243 1.419 . S
C299 H281 0.948 . S
C300 C301 1.391 . S
C300 C304 1.391 . S
C300 H342 0.948 . S
C301 C300 1.391 . S
C301 C302 1.391 . S
C302 C301 1.391 . S
C302 H358 0.947 . S
C302 C359 1.392 . S
C303 C304 1.391 . S
C303 C307 1.397 1_655 S
C303 C359 1.419 . S
C304 C300 1.391 . S
C304 C303 1.391 . S
C304 C305 1.399 1_655 S
C305 C304 1.399 1_455 S
C305 C308 1.396 . S
C305 C317 1.453 . S
C305 C318 1.684 . S
H306 C330 0.948 . S
C307 C303 1.397 1_455 S
C307 C308 1.394 . S
C307 C326 1.723 . S
C308 C305 1.396 . S
C308 C307 1.394 . S
C308 C338 1.723 . S
H309 C332 0.947 . S
H310 C333 0.948 . S
H311 C339 0.982 . S
H312 C340 0.979 . S
H313 C340 0.980 . S
H314 C340 0.983 . S
H315 C339 0.979 . S
H316 C339 0.977 . S
C317 C305 1.453 . S
C317 H346 0.982 . S
C317 H347 0.979 . S
C317 H348 0.977 . S
C318 C305 1.684 . S
C318 H343 0.979 1_455 S
C318 H344 0.980 . S
C318 H345 0.983 1_455 S
C319 C320 1.391 . S
C319 C324 1.391 . S
C319 H349 0.948 1_455 S
C320 C319 1.391 . S
C320 C321 1.391 . S
C321 C320 1.391 . S
C321 C322 1.392 . S
C321 H350 0.947 . S
C322 C321 1.392 . S
C322 C323 1.419 . S
C322 H351 0.948 . S
C323 C322 1.419 . S
C323 C324 1.391 . S
C323 C327 1.397 . S
C324 C319 1.391 . S
C324 C323 1.391 . S
C324 C325 1.399 1_455 S
C325 C324 1.399 1_655 S
C325 C326 1.396 1_655 S
C325 C328 1.453 . S
C325 C329 1.684 . S
C326 C307 1.723 . S
C326 C325 1.396 1_455 S
C326 C327 1.394 . S
C327 C323 1.397 . S
C327 C326 1.394 . S
C327 C337 1.723 . S
C328 C325 1.453 . S
C328 H352 0.982 1_655 S
C328 H353 0.979 . S
C328 H354 0.977 . S
C329 C325 1.684 . S
C329 H355 0.979 . S
C329 H356 0.980 . S
C329 H357 0.983 . S
C330 H306 0.948 . S
C330 C331 1.391 . S
C330 C335 1.391 . S
C331 C330 1.391 . S
C331 C332 1.391 . S
C332 H309 0.947 . S
C332 C331 1.391 . S
C332 C333 1.392 . S
C333 H310 0.948 . S
C333 C332 1.392 . S
C333 C334 1.419 . S
C334 C333 1.419 . S
C334 C335 1.391 . S
C334 C338 1.397 . S
C335 C330 1.391 . S
C335 C334 1.391 . S
C335 C336 1.399 . S
C336 C335 1.399 . S
C336 C337 1.396 . S
C336 C339 1.453 . S
C336 C340 1.684 . S
C337 C327 1.723 . S
C337 C336 1.396 . S
C337 C338 1.394 . S
C338 C308 1.723 . S
C338 C334 1.397 . S
C338 C337 1.394 . S
C339 H311 0.982 . S
C339 H315 0.979 . S
C339 H316 0.977 . S
C339 C336 1.453 . S
C340 H312 0.979 . S
C340 H313 0.980 . S
C340 H314 0.983 . S
C340 C336 1.684 . S
H341 C359 0.948 . S
H342 C300 0.948 . S
H343 C318 0.979 1_655 S
H344 C318 0.980 . S
H345 C318 0.983 1_655 S
H346 C317 0.982 . S
H347 C317 0.979 . S
H348 C317 0.977 . S
H349 C319 0.948 1_655 S
H350 C321 0.947 . S
H351 C322 0.948 . S
H352 C328 0.982 1_455 S
H353 C328 0.979 . S
H354 C328 0.977 . S
H355 C329 0.979 . S
H356 C329 0.980 . S
H357 C329 0.983 . S
H358 C302 0.947 . S
C359 C302 1.392 . S
C359 C303 1.419 . S
C359 H341 0.948 . S
C360 C361 1.391 . S
C360 C364 1.391 . S
C360 H402 0.948 . S
C361 C360 1.391 . S
C361 C362 1.391 . S
C362 C361 1.391 . S
C362 H418 0.947 . S
C362 C419 1.392 . S
C363 C364 1.391 . S
C363 C367 1.397 . S
C363 C419 1.419 . S
C364 C360 1.391 . S
C364 C363 1.391 . S
C364 C365 1.399 . S
C365 C364 1.399 . S
C365 C368 1.396 . S
C365 C377 1.453 . S
C365 C378 1.684 . S
H366 C390 0.948 . S
C367 C363 1.397 . S
C367 C368 1.394 . S
C367 C386 1.723 . S
C368 C365 1.396 . S
C368 C367 1.394 . S
C368 C398 1.723 1_565 S
H369 C392 0.947 . S
H370 C393 0.948 . S
H371 C399 0.982 . S
H372 C400 0.979 . S
H373 C400 0.980 . S
H374 C400 0.983 . S
H375 C399 0.979 . S
H376 C399 0.977 . S
C377 C365 1.453 . S
C377 H406 0.982 1_565 S
C377 H407 0.979 . S
C377 H408 0.977 1_565 S
C378 C365 1.684 . S
C378 H403 0.979 . S
C378 H404 0.980 . S
C378 H405 0.983 . S
C379 C380 1.391 1_565 S
C379 C384 1.391 . S
C379 H409 0.948 . S
C380 C379 1.391 1_545 S
C380 C381 1.391 . S
C381 C380 1.391 . S
C381 C382 1.392 . S
C381 H410 0.947 . S
C382 C381 1.392 . S
C382 C383 1.419 . S
C382 H411 0.948 . S
C383 C382 1.419 . S
C383 C384 1.391 1_545 S
C383 C387 1.397 . S
C384 C379 1.391 . S
C384 C383 1.391 1_565 S
C384 C385 1.399 . S
C385 C384 1.399 . S
C385 C386 1.396 . S
C385 C388 1.453 . S
C385 C389 1.684 . S
C386 C367 1.723 . S
C386 C385 1.396 . S
C386 C387 1.394 1_565 S
C387 C383 1.397 . S
C387 C386 1.394 1_545 S
C387 C397 1.723 . S
C388 C385 1.453 . S
C388 H412 0.982 . S
C388 H413 0.979 . S
C388 H414 0.977 . S
C389 C385 1.684 . S
C389 H415 0.979 . S
C389 H416 0.980 . S
C389 H417 0.983 . S
C390 H366 0.948 . S
C390 C391 1.391 . S
C390 C395 1.391 . S
C391 C390 1.391 . S
C391 C392 1.391 . S
C392 H369 0.947 . S
C392 C391 1.391 . S
C392 C393 1.392 . S
C393 H370 0.948 . S
C393 C392 1.392 . S
C393 C394 1.419 . S
C394 C393 1.419 . S
C394 C395 1.391 . S
C394 C398 1.397 . S
C395 C390 1.391 . S
C395 C394 1.391 . S
C395 C396 1.399 . S
C396 C395 1.399 . S
C396 C397 1.396 . S
C396 C399 1.453 . S
C396 C400 1.684 . S
C397 C387 1.723 . S
C397 C396 1.396 . S
C397 C398 1.394 . S
C398 C368 1.723 1_545 S
C398 C394 1.397 . S
C398 C397 1.394 . S
C399 H371 0.982 . S
C399 H375 0.979 . S
C399 H376 0.977 . S
C399 C396 1.453 . S
C400 H372 0.979 . S
C400 H373 0.980 . S
C400 H374 0.983 . S
C400 C396 1.684 . S
H401 C419 0.948 . S
H402 C360 0.948 . S
H403 C378 0.979 . S
H404 C378 0.980 . S
H405 C378 0.983 . S
H406 C377 0.982 1_545 S
H407 C377 0.979 . S
H408 C377 0.977 1_545 S
H409 C379 0.948 . S
H410 C381 0.947 . S
H411 C382 0.948 . S
H412 C388 0.982 . S
H413 C388 0.979 . S
H414 C388 0.977 . S
H415 C389 0.979 . S
H416 C389 0.980 . S
H417 C389 0.983 . S
H418 C362 0.947 . S
C419 C362 1.392 . S
C419 C363 1.419 . S
C419 H401 0.948 . S
C420 C421 1.391 . S
C420 C424 1.391 . S
C420 H462 0.948 . S
C421 C420 1.391 . S
C421 C422 1.391 . S
C422 C421 1.391 . S
C422 H478 0.947 . S
C422 C479 1.392 . S
C423 C424 1.391 . S
C423 C427 1.397 . S
C423 C479 1.419 . S
C424 C420 1.391 . S
C424 C423 1.391 . S
C424 C425 1.399 . S
C425 C424 1.399 . S
C425 C428 1.396 . S
C425 C437 1.453 . S
C425 C438 1.684 . S
H426 C450 0.948 . S
C427 C423 1.397 . S
C427 C428 1.394 . S
C427 C446 1.723 . S
C428 C425 1.396 . S
C428 C427 1.394 . S
C428 C458 1.723 . S
H429 C452 0.947 . S
H430 C453 0.948 . S
H431 C459 0.982 . S
H432 C460 0.979 . S
H433 C460 0.980 . S
H434 C460 0.983 . S
H435 C459 0.979 . S
H436 C459 0.977 . S
C437 C425 1.453 . S
C437 H466 0.982 . S
C437 H467 0.979 . S
C437 H468 0.977 . S
C438 C425 1.684 . S
C438 H463 0.979 . S
C438 H464 0.980 . S
C438 H465 0.983 . S
C439 C440 1.367 1_554 S
C439 C444 1.391 . S
C439 H469 0.948 . S
C440 C439 1.367 1_556 S
C440 C441 1.374 1_556 S
C441 C440 1.374 1_554 S
C441 C442 1.392 . S
C441 H470 0.944 1_554 S
C442 C441 1.392 . S
C442 C443 1.419 . S
C442 H471 0.948 . S
C443 C442 1.419 . S
C443 C444 1.391 . S
C443 C447 1.397 . S
C444 C439 1.391 . S
C444 C443 1.391 . S
C444 C445 1.399 . S
C445 C444 1.399 . S
C445 C446 1.396 . S
C445 C448 1.453 . S
C445 C449 1.684 . S
C446 C427 1.723 . S
C446 C445 1.396 . S
C446 C447 1.394 . S
C447 C443 1.397 . S
C447 C446 1.394 . S
C447 C457 1.723 . S
C448 C445 1.453 . S
C448 H472 0.982 . S
C448 H473 0.979 . S
C448 H474 0.977 . S
C449 C445 1.684 . S
C449 H475 0.979 . S
C449 H476 0.980 . S
C449 H477 0.983 . S
C450 H426 0.948 . S
C450 C451 1.391 . S
C450 C455 1.391 . S
C451 C450 1.391 . S
C451 C452 1.391 . S
C452 H429 0.947 . S
C452 C451 1.391 . S
C452 C453 1.392 . S
C453 H430 0.948 . S
C453 C452 1.392 . S
C453 C454 1.419 . S
C454 C453 1.419 . S
C454 C455 1.391 . S
C454 C458 1.397 . S
C455 C450 1.391 . S
C455 C454 1.391 . S
C455 C456 1.399 . S
C456 C455 1.399 . S
C456 C457 1.396 . S
C456 C459 1.453 . S
C456 C460 1.684 . S
C457 C447 1.723 . S
C457 C456 1.396 . S
C457 C458 1.394 . S
C458 C428 1.723 . S
C458 C454 1.397 . S
C458 C457 1.394 . S
C459 H431 0.982 . S
C459 H435 0.979 . S
C459 H436 0.977 . S
C459 C456 1.453 . S
C460 H432 0.979 . S
C460 H433 0.980 . S
C460 H434 0.983 . S
C460 C456 1.684 . S
H461 C479 0.948 . S
H462 C420 0.948 . S
H463 C438 0.979 . S
H464 C438 0.980 . S
H465 C438 0.983 . S
H466 C437 0.982 . S
H467 C437 0.979 . S
H468 C437 0.977 . S
H469 C439 0.948 . S
H470 C441 0.944 1_556 S
H471 C442 0.948 . S
H472 C448 0.982 . S
H473 C448 0.979 . S
H474 C448 0.977 . S
H475 C449 0.979 . S
H476 C449 0.980 . S
H477 C449 0.983 . S
H478 C422 0.947 . S
C479 C422 1.392 . S
C479 C423 1.419 . S
C479 H461 0.948 . S
C480 C481 1.387 . S
C480 H484 0.950 . S
C480 C489 1.390 . S
C481 C480 1.387 . S
C481 C483 1.387 . S
H482 C489 0.950 . S
C483 C481 1.387 . S
C483 C485 1.390 . S
C483 H487 0.950 . S
H484 C480 0.950 . S
C485 C483 1.390 . S
C485 C486 1.387 . S
C485 H488 0.950 . S
C486 C485 1.387 . S
C486 C489 1.387 . S
H487 C483 0.950 . S
H488 C485 0.950 . S
C489 C480 1.390 . S
C489 H482 0.950 . S
C489 C486 1.387 . S
C490 C491 1.387 . S
C490 H494 0.950 . S
C490 C499 1.390 . S
C491 C490 1.387 . S
C491 C493 1.387 . S
H492 C499 0.950 . S
C493 C491 1.387 . S
C493 C495 1.390 . S
C493 H497 0.950 . S
H494 C490 0.950 . S
C495 C493 1.390 . S
C495 C496 1.387 . S
C495 H498 0.950 . S
C496 C495 1.387 . S
C496 C499 1.387 . S
H497 C493 0.950 . S
H498 C495 0.950 . S
C499 C490 1.390 . S
C499 H492 0.950 . S
C499 C496 1.387 . S
C500 C501 1.387 . S
C500 H504 0.950 . S
C500 C509 1.390 . S
C501 C500 1.387 . S
C501 C503 1.387 . S
H502 C509 0.950 . S
C503 C501 1.387 . S
C503 C505 1.390 . S
C503 H507 0.950 . S
H504 C500 0.950 . S
C505 C503 1.390 . S
C505 C506 1.387 . S
C505 H508 0.950 . S
C506 C505 1.387 . S
C506 C509 1.387 . S
H507 C503 0.950 . S
H508 C505 0.950 . S
C509 C500 1.390 . S
C509 H502 0.950 . S
C509 C506 1.387 . S
C510 C511 1.387 . S
C510 H514 0.950 . S
C510 C519 1.390 . S
C511 C510 1.387 . S
C511 C513 1.387 . S
H512 C519 0.950 . S
C513 C511 1.387 . S
C513 C515 1.390 . S
C513 H517 0.950 . S
H514 C510 0.950 . S
C515 C513 1.390 . S
C515 C516 1.387 . S
C515 H518 0.950 . S
C516 C515 1.387 . S
C516 C519 1.387 . S
H517 C513 0.950 . S
H518 C515 0.950 . S
C519 C510 1.390 . S
C519 H512 0.950 . S
C519 C516 1.387 . S
C520 C521 1.387 . S
C520 H524 0.950 . S
C520 C529 1.390 . S
C521 C520 1.387 . S
C521 C523 1.387 . S
H522 C529 0.950 . S
C523 C521 1.387 . S
C523 C525 1.390 . S
C523 H527 0.950 . S
H524 C520 0.950 . S
C525 C523 1.390 . S
C525 C526 1.387 . S
C525 H528 0.950 . S
C526 C525 1.387 . S
C526 C529 1.387 . S
H527 C523 0.950 . S
H528 C525 0.950 . S
C529 C520 1.390 . S
C529 H522 0.950 . S
C529 C526 1.387 . S
C530 C531 1.387 . S
C530 H534 0.950 . S
C530 C539 1.390 . S
C531 C530 1.387 . S
C531 C533 1.387 . S
H532 C539 0.950 . S
C533 C531 1.387 . S
C533 C535 1.390 . S
C533 H537 0.950 . S
H534 C530 0.950 . S
C535 C533 1.390 . S
C535 C536 1.387 . S
C535 H538 0.950 . S
C536 C535 1.387 . S
C536 C539 1.387 . S
H537 C533 0.950 . S
H538 C535 0.950 . S
C539 C530 1.390 . S
C539 H532 0.950 . S
C539 C536 1.387 . S
C540 C541 1.387 . S
C540 H544 0.950 . S
C540 C549 1.390 . S
C541 C540 1.387 . S
C541 C543 1.387 . S
H542 C549 0.950 . S
C543 C541 1.387 . S
C543 C545 1.390 . S
C543 H547 0.950 . S
H544 C540 0.950 . S
C545 C543 1.390 . S
C545 C546 1.387 . S
C545 H548 0.950 . S
C546 C545 1.387 . S
C546 C549 1.387 . S
H547 C543 0.950 . S
H548 C545 0.950 . S
C549 C540 1.390 . S
C549 H542 0.950 . S
C549 C546 1.387 . S
C550 C551 1.387 . S
C550 H554 0.950 . S
C550 C559 1.390 . S
C551 C550 1.387 . S
C551 C553 1.387 . S
H552 C559 0.950 . S
C553 C551 1.387 . S
C553 C555 1.390 . S
C553 H557 0.950 . S
H554 C550 0.950 . S
C555 C553 1.390 . S
C555 C556 1.387 . S
C555 H558 0.950 . S
C556 C555 1.387 . S
C556 C559 1.387 . S
H557 C553 0.950 . S
H558 C555 0.950 . S
C559 C550 1.390 . S
C559 H552 0.950 . S
C559 C556 1.387 . S
C560 C561 1.387 . S
C560 H564 0.950 . S
C560 C569 1.390 . S
C561 C560 1.387 . S
C561 C563 1.387 . S
H562 C569 0.950 . S
C563 C561 1.387 . S
C563 C565 1.390 . S
C563 H567 0.950 . S
H564 C560 0.950 . S
C565 C563 1.390 . S
C565 C566 1.387 . S
C565 H568 0.950 . S
C566 C565 1.387 . S
C566 C569 1.387 . S
H567 C563 0.950 . S
H568 C565 0.950 . S
C569 C560 1.390 . S
C569 H562 0.950 . S
C569 C566 1.387 . S
C570 C571 1.387 . S
C570 H574 0.950 . S
C570 C579 1.390 . S
C571 C570 1.387 . S
C571 C573 1.387 . S
H572 C579 0.950 . S
C573 C571 1.387 . S
C573 C575 1.390 . S
C573 H577 0.950 . S
H574 C570 0.950 . S
C575 C573 1.390 . S
C575 C576 1.387 . S
C575 H578 0.950 . S
C576 C575 1.387 . S
C576 C579 1.387 . S
H577 C573 0.950 . S
H578 C575 0.950 . S
C579 C570 1.390 . S
C579 H572 0.950 . S
C579 C576 1.387 . S
C580 C581 1.387 . S
C580 H584 0.950 . S
C580 C589 1.390 . S
C581 C580 1.387 . S
C581 C583 1.387 . S
H582 C589 0.950 . S
C583 C581 1.387 . S
C583 C585 1.390 . S
C583 H587 0.950 . S
H584 C580 0.950 . S
C585 C583 1.390 . S
C585 C586 1.387 . S
C585 H588 0.950 . S
C586 C585 1.387 . S
C586 C589 1.387 . S
H587 C583 0.950 . S
H588 C585 0.950 . S
C589 C580 1.390 . S
C589 H582 0.950 . S
C589 C586 1.387 . S
C590 C591 1.387 . S
C590 H594 0.950 . S
C590 C599 1.390 . S
C591 C590 1.387 . S
C591 C593 1.387 . S
H592 C599 0.950 . S
C593 C591 1.387 . S
C593 C595 1.390 . S
C593 H597 0.950 . S
H594 C590 0.950 . S
C595 C593 1.390 . S
C595 C596 1.387 . S
C595 H598 0.950 . S
C596 C595 1.387 . S
C596 C599 1.387 . S
H597 C593 0.950 . S
H598 C595 0.950 . S
C599 C590 1.390 . S
C599 H592 0.950 . S
C599 C596 1.387 . S
C600 C601 1.387 . S
C600 H604 0.950 . S
C600 C609 1.390 . S
C601 C600 1.387 . S
C601 C603 1.387 1_455 S
H602 C609 0.950 . S
C603 C601 1.387 1_655 S
C603 C605 1.390 . S
C603 H607 0.950 . S
H604 C600 0.950 . S
C605 C603 1.390 . S
C605 C606 1.387 1_655 S
C605 H608 0.950 . S
C606 C605 1.387 1_455 S
C606 C609 1.387 . S
H607 C603 0.950 . S
H608 C605 0.950 . S
C609 C600 1.390 . S
C609 H602 0.950 . S
C609 C606 1.387 . S
C610 C611 1.387 1_565 S
C610 H614 0.950 . S
C610 C619 1.390 . S
C611 C610 1.387 1_545 S
C611 C613 1.387 . S
H612 C619 0.950 . S
C613 C611 1.387 . S
C613 C615 1.390 . S
C613 H617 0.950 . S
H614 C610 0.950 . S
C615 C613 1.390 . S
C615 C616 1.387 . S
C615 H618 0.950 . S
C616 C615 1.387 . S
C616 C619 1.387 1_545 S
H617 C613 0.950 . S
H618 C615 0.950 . S
C619 C610 1.390 . S
C619 H612 0.950 . S
C619 C616 1.387 1_565 S
C620 C621 1.387 . S
C620 H624 0.950 . S
C620 C629 1.390 . S
C621 C620 1.387 . S
C621 C623 1.387 . S
H622 C629 0.950 . S
C623 C621 1.387 . S
C623 C625 1.390 . S
C623 H627 0.950 . S
H624 C620 0.950 . S
C625 C623 1.390 . S
C625 C626 1.387 . S
C625 H628 0.950 . S
C626 C625 1.387 . S
C626 C629 1.387 . S
H627 C623 0.950 . S
H628 C625 0.950 . S
C629 C620 1.390 . S
C629 H622 0.950 . S
C629 C626 1.387 . S
C630 C631 1.387 . S
C630 H634 0.950 . S
C630 C639 1.390 . S
C631 C630 1.387 . S
C631 C633 1.387 1_545 S
H632 C639 0.950 . S
C633 C631 1.387 1_565 S
C633 C635 1.390 . S
C633 H637 0.950 . S
H634 C630 0.950 . S
C635 C633 1.390 . S
C635 C636 1.387 1_565 S
C635 H638 0.950 . S
C636 C635 1.387 1_545 S
C636 C639 1.387 . S
H637 C633 0.950 . S
H638 C635 0.950 . S
C639 C630 1.390 . S
C639 H632 0.950 . S
C639 C636 1.387 . S
C640 C641 1.387 . S
C640 H644 0.950 . S
C640 C649 1.390 . S
C641 C640 1.387 . S
C641 C643 1.387 . S
H642 C649 0.950 . S
C643 C641 1.387 . S
C643 C645 1.390 . S
C643 H647 0.950 . S
H644 C640 0.950 . S
C645 C643 1.390 . S
C645 C646 1.387 . S
C645 H648 0.950 . S
C646 C645 1.387 . S
C646 C649 1.387 . S
H647 C643 0.950 . S
H648 C645 0.950 . S
C649 C640 1.390 . S
C649 H642 0.950 . S
C649 C646 1.387 . S
C650 C651 1.387 . S
C650 H654 0.950 . S
C650 C659 1.390 . S
C651 C650 1.387 . S
C651 C653 1.387 . S
H652 C659 0.950 . S
C653 C651 1.387 . S
C653 C655 1.390 . S
C653 H657 0.950 . S
H654 C650 0.950 . S
C655 C653 1.390 . S
C655 C656 1.387 . S
C655 H658 0.950 . S
C656 C655 1.387 . S
C656 C659 1.387 . S
H657 C653 0.950 . S
H658 C655 0.950 . S
C659 C650 1.390 . S
C659 H652 0.950 . S
C659 C656 1.387 . S
C481 C10 3.118 . S
C486 C451 3.109 . S
C491 C59 3.172 . S
C496 C301 2.974 . S
C501 C90 3.118 . S
C506 C361 2.916 . S
C511 C19 3.172 . S
C516 C421 2.974 . S
C526 C331 3.110 . S
C521 C50 3.117 . S
C536 C391 3.167 . S
C531 C99 3.172 . S
C541 C46 0.668 . S
C546 C181 0.668 . S
C551 C95 0.634 . S
C556 C271 0.598 . S
C561 C6 0.663 . S
C566 C151 0.633 . S
C576 C211 0.590 . S
C571 C55 0.627 . S
C586 C241 0.663 . S
C581 C86 0.672 . S
C591 C15 0.633 . S
C596 C121 0.536 . S
C606 C260 1.004 . S
C601 C9 1.019 . S
C611 C49 1.019 . S
C616 C140 1.024 . S
C621 C89 1.019 . S
C626 C200 1.002 . S
C636 C380 1.790 . S
C631 C58 1.729 . S
C646 C440 1.827 . S
C641 C98 1.729 . S
C651 C18 1.728 . S
C656 C320 1.785 . S
