# Generated by pormake.
# Topology tsx, (6,3)-cn, num edge types: 1
# Building blocks:
#     Node 0, Type 0, BuildingBlock: LEVNOQ01_clean_sbu_1, # of connection points: 6
#     Node 1, Type 0, BuildingBlock: LEVNOQ01_clean_sbu_1, # of connection points: 6
#     Node 2, Type 1, BuildingBlock: ESEHIV_clean_linker_0, # of connection points: 3
#     Node 3, Type 1, BuildingBlock: ESEHIV_clean_linker_0, # of connection points: 3
#     Node 4, Type 1, BuildingBlock: ESEHIV_clean_linker_0, # of connection points: 3
#     Node 5, Type 1, BuildingBlock: ESEHIV_clean_linker_0, # of connection points: 3
#     Edge 6, Type (0, 1), BuildingBlock: FUNLAD_clean_linker_1, # of connection points: 2
#     Edge 7, Type (0, 1), BuildingBlock: FUNLAD_clean_linker_1, # of connection points: 2
#     Edge 8, Type (0, 1), BuildingBlock: FUNLAD_clean_linker_1, # of connection points: 2
#     Edge 9, Type (0, 1), BuildingBlock: FUNLAD_clean_linker_1, # of connection points: 2
#     Edge 10, Type (0, 1), BuildingBlock: FUNLAD_clean_linker_1, # of connection points: 2
#     Edge 11, Type (0, 1), BuildingBlock: FUNLAD_clean_linker_1, # of connection points: 2
#     Edge 12, Type (0, 1), BuildingBlock: FUNLAD_clean_linker_1, # of connection points: 2
#     Edge 13, Type (0, 1), BuildingBlock: FUNLAD_clean_linker_1, # of connection points: 2
#     Edge 14, Type (0, 1), BuildingBlock: FUNLAD_clean_linker_1, # of connection points: 2
#     Edge 15, Type (0, 1), BuildingBlock: FUNLAD_clean_linker_1, # of connection points: 2
#     Edge 16, Type (0, 1), BuildingBlock: FUNLAD_clean_linker_1, # of connection points: 2
#     Edge 17, Type (0, 1), BuildingBlock: FUNLAD_clean_linker_1, # of connection points: 2
# Relax obj value: 0.131
# Max RMSD: 0.158
# Mean RMSD: 0.120
data_MOF--net-tsx--node1-LEVNOQ01_clean_sbu_1--node2-ESEHIV_clean_linker_0--edge1-FUNLAD_clean_linker_1
_symmetry_space_group_name_H-M    P1
_symmetry_Int_Tables_number       1
_symmetry_cell_setting            triclinic
loop_
_symmetry_equiv_pos_as_xyz
'x, y, z'
_cell_length_a     17.700347
_cell_length_b     22.452653
_cell_length_c     36.342911
_cell_angle_alpha  99.0014
_cell_angle_beta   92.410071
_cell_angle_gamma 90.662544
loop_
_atom_site_label
_atom_site_type_symbol
_atom_site_fract_x
_atom_site_fract_y
_atom_site_fract_z
_atom_type_partial_charge
O0 O 0.15687 0.01439 0.08709 0.0
Mg1 Mg 0.20708 0.02811 0.03681 0.0
O2 O 0.04002 0.00421 0.06197 0.0
Mg3 Mg 0.04289 0.01238 -0.00137 0.0
O4 O 0.14102 0.08249 0.00872 0.0
O5 O 0.25722 0.10909 0.03184 0.0
O6 O 0.04386 0.02042 0.93431 0.0
O7 O 0.96099 0.09578 0.00759 0.0
Mg8 Mg 0.8756 0.97875 0.95461 0.0
O9 O 0.94456 0.94614 0.99136 0.0
O10 O 0.93547 -0.01897 0.90676 0.0
O11 O 0.84711 0.06522 0.98202 0.0
O12 O 0.83603 0.90018 0.9716 0.0
C13 C 0.19161 0.91284 0.98712 0.0
C14 C 0.08657 0.00499 0.08988 0.0
C15 C 0.19609 0.12193 0.01437 0.0
C16 C 1.00037 0.00455 0.9052 0.0
C17 C 0.89115 0.10563 3e-05 0.0
C18 C 0.89538 0.90427 0.99369 0.0
O19 O 0.24133 0.95089 0.002 0.0
O20 O 0.12136 0.92606 0.98624 0.0
O21 O 0.69016 0.50903 0.58073 0.0
Mg22 Mg 0.71473 0.51851 0.52618 0.0
O23 O 0.56883 0.51434 0.56581 0.0
Mg24 Mg 0.56755 0.51585 0.50085 0.0
O25 O 0.66881 0.58857 0.50345 0.0
O26 O 0.78929 0.58514 0.52595 0.0
O27 O 0.56935 0.51676 0.43493 0.0
O28 O 0.49826 0.60495 0.51197 0.0
Mg29 Mg 0.42259 0.49644 0.46392 0.0
O30 O 0.46505 0.4465 0.50151 0.0
O31 O 0.46054 0.47748 0.41045 0.0
O32 O 0.38593 0.58175 0.48488 0.0
O33 O 0.34905 0.43368 0.47302 0.0
C34 C 0.70069 0.40715 0.4839 0.0
C35 C 0.62221 0.50966 0.58989 0.0
C36 C 0.73635 0.61292 0.51059 0.0
C37 C 0.52618 0.49675 0.40643 0.0
C38 C 0.43081 0.61952 0.50417 0.0
C39 C 0.40014 0.41761 0.49571 0.0
O40 O 0.75435 0.44448 0.49258 0.0
O41 O 0.63277 0.42413 0.48812 0.0
H42 H 0.96946 0.04586 0.37582 0.0
H43 H 0.12593 0.90038 0.37632 0.0
H44 H 0.03768 -0.01245 0.47879 0.0
C45 C 1.00009 0.01427 0.39018 0.0
C46 C 0.99703 0.02031 0.42912 0.0
C47 C 0.04631 0.9707 0.37065 0.0
C48 C 0.08952 0.93387 0.39087 0.0
C49 C 0.08599 0.93981 0.4298 0.0
C50 C 0.03934 -0.01734 0.44875 0.0
H51 H 0.94704 -0.01494 0.63012 0.0
H52 H 0.12314 0.11898 0.63309 0.0
H53 H 1.00268 0.05169 0.52974 0.0
C54 C 0.98061 0.0143 0.61599 0.0
C55 C 0.96888 0.01303 0.57729 0.0
C56 C 0.0362 0.0528 0.63622 0.0
C57 C 0.08049 0.08911 0.61745 0.0
C58 C 0.06888 0.08852 0.57904 0.0
C59 C 0.01193 0.05156 0.5593 0.0
H60 H 0.45426 0.55689 0.87821 0.0
H61 H 0.63608 0.43231 0.8628 0.0
H62 H 0.55838 0.4911 0.97282 0.0
C63 C 0.49633 0.5299 0.88997 0.0
C64 C 0.50157 0.53015 0.92866 0.0
C65 C 0.54386 0.49513 0.86583 0.0
C66 C 0.5986 0.45981 0.88084 0.0
C67 C 0.60382 0.45775 0.91934 0.0
C68 C 0.55414 0.49225 0.94319 0.0
H69 H 0.45206 0.4909 0.13096 0.0
H70 H 0.6137 0.6357 0.13221 0.0
H71 H 0.52104 0.54197 0.02813 0.0
C72 C 0.48227 0.52152 0.11642 0.0
C73 C 0.47738 0.51308 0.07706 0.0
C74 C 0.53137 0.5661 0.13662 0.0
C75 C 0.57413 0.60255 0.11702 0.0
C76 C 0.57054 0.59388 0.07799 0.0
C77 C 0.5226 0.54909 0.05826 0.0
H78 H 0.15235 0.21309 0.02395 0.0
C79 C 0.18845 0.18368 0.00599 0.0
H80 H 0.28054 0.17696 0.97166 0.0
H81 H 0.25556 0.47439 0.03646 0.0
H82 H 0.13798 0.4727 -0.00077 0.0
H83 H 0.08438 0.37696 0.96488 0.0
H84 H 0.14816 0.28216 0.96746 0.0
C85 C 0.24541 0.20758 0.98943 0.0
C86 C 0.28003 0.26701 0.00639 0.0
C87 C 0.24181 0.32176 0.00479 0.0
C88 C 0.27294 0.37708 0.02443 0.0
C89 C 0.23415 0.43121 0.02212 0.0
C90 C 0.16677 0.43084 0.00084 0.0
C91 C 0.13656 0.3769 0.98152 0.0
C92 C 0.17341 0.32282 0.98337 0.0
H93 H 0.45256 0.44516 0.02689 0.0
C94 C 0.43342 0.46233 0.05456 0.0
H95 H 0.35028 0.45197 0.09354 0.0
H96 H 0.37361 0.17113 0.01264 0.0
H97 H 0.49149 0.17395 0.04843 0.0
H98 H 0.54237 0.2693 0.0843 0.0
H99 H 0.47524 0.36247 0.08416 0.0
C100 C 0.37399 0.43481 0.06698 0.0
C101 C 0.34208 0.3775 0.04557 0.0
C102 C 0.38141 0.32308 0.0464 0.0
C103 C 0.35116 0.26797 0.02629 0.0
C104 C 0.3926 0.21448 0.02745 0.0
C105 C 0.46089 0.21532 0.04797 0.0
C106 C 0.48957 0.26896 0.0681 0.0
C107 C 0.45048 0.32225 0.06757 0.0
H108 H 0.25922 0.85082 0.94964 0.0
C109 C 0.21788 0.85275 0.97107 0.0
H110 H 0.17267 0.80808 0.01219 0.0
H111 H 0.33887 0.59853 0.8894 0.0
H112 H 0.23993 0.61747 0.8448 0.0
H113 H 0.14617 0.69643 0.86172 0.0
H114 H 0.15105 0.75667 0.9234 0.0
C115 C 0.20812 0.80452 0.98827 0.0
C116 C 0.25677 0.75039 0.97963 0.0
C117 C 0.25247 0.71493 0.94374 0.0
C118 C 0.30679 0.6696 0.93395 0.0
C119 C 0.30068 0.63469 0.89793 0.0
C120 C 0.24357 0.6447 0.87219 0.0
C121 C 0.19078 0.6891 0.88173 0.0
C122 C 0.19459 0.72367 0.91712 0.0
H123 H 0.42195 0.55089 0.97486 0.0
C124 C 0.44978 0.56918 0.95289 0.0
H125 H 0.46212 0.64254 0.92384 0.0
H126 H 0.27481 0.80364 0.0527 0.0
H127 H 0.36991 0.7806 0.09803 0.0
H128 H 0.4641 0.70246 0.0808 0.0
H129 H 0.46543 0.64781 0.0176 0.0
C130 C 0.4327 0.62475 0.94555 0.0
C131 C 0.36601 0.65994 0.95983 0.0
C132 C 0.36642 0.69165 0.99674 0.0
C133 C 0.31141 0.73666 0.00673 0.0
C134 C 0.31445 0.7687 0.04357 0.0
C135 C 0.36895 0.75605 0.06989 0.0
C136 C 0.42231 0.71218 0.06012 0.0
C137 C 0.42205 0.68083 0.02386 0.0
H138 H 0.86496 0.893 0.04837 0.0
C139 C 0.89545 0.87057 0.02495 0.0
H140 H 0.9244 0.78878 0.99396 0.0
H141 H 0.69238 0.73389 0.13014 0.0
H142 H 0.77857 0.79258 0.17513 0.0
H143 H 0.89042 0.84258 0.155 0.0
H144 H 0.92064 0.82987 0.08989 0.0
C145 C 0.89393 0.81015 0.01767 0.0
C146 C 0.82996 0.77572 0.03057 0.0
C147 C 0.81715 0.77877 0.06914 0.0
C148 C 0.75163 0.75067 0.08068 0.0
C149 C 0.73999 0.75515 0.11941 0.0
C150 C 0.78948 0.78839 0.14576 0.0
C151 C 0.85301 0.816 0.13445 0.0
C152 C 0.86843 0.80966 0.09681 0.0
H153 H 0.65715 0.60118 0.03691 0.0
C154 C 0.62342 0.62701 0.05788 0.0
H155 H 0.59879 0.71207 0.08734 0.0
H156 H 0.8328 0.76368 0.95365 0.0
H157 H 0.73964 0.71363 0.90901 0.0
H158 H 0.62483 0.66741 0.92945 0.0
H159 H 0.60341 0.67113 0.99501 0.0
C160 C 0.63375 0.68692 0.0667 0.0
C161 C 0.69952 0.71866 0.05374 0.0
C162 C 0.71082 0.71702 0.0152 0.0
C163 C 0.77654 0.74477 0.00355 0.0
C164 C 0.78533 0.74289 0.9647 0.0
C165 C 0.73162 0.71453 0.93846 0.0
C166 C 0.66709 0.68848 0.94995 0.0
C167 C 0.65608 0.69019 0.98778 0.0
H168 H 0.80338 0.16842 0.02047 0.0
C169 C 0.85911 0.16613 0.00888 0.0
H170 H 0.93371 0.20668 0.97631 0.0
H171 H 0.65553 0.3123 0.89403 0.0
H172 H 0.70452 0.23943 0.84514 0.0
H173 H 0.81077 0.17473 0.85825 0.0
H174 H 0.86737 0.18174 0.92052 0.0
C175 C 0.88188 0.21134 0.99146 0.0
C176 C 0.82661 0.25788 0.98295 0.0
C177 C 0.79638 0.25523 0.94587 0.0
C178 C 0.73712 0.29439 0.93793 0.0
C179 C 0.70366 0.28666 0.90131 0.0
C180 C 0.73052 0.24424 0.87297 0.0
C181 C 0.79013 0.20769 0.88038 0.0
C182 C 0.82234 0.21244 0.91636 0.0
H183 H 0.71697 0.4176 0.91931 0.0
C184 C 0.6637 0.42011 0.93331 0.0
H185 H 0.5987 0.38341 0.972 0.0
H186 H 0.87449 0.27721 0.05627 0.0
H187 H 0.82524 0.35023 0.10549 0.0
H188 H 0.72349 0.41875 0.09178 0.0
H189 H 0.67067 0.4151 0.0288 0.0
C190 C 0.65199 0.38277 0.95816 0.0
C191 C 0.71081 0.33873 0.9667 0.0
C192 C 0.74091 0.34116 0.00373 0.0
C193 C 0.79903 0.30101 0.0118 0.0
C194 C 0.82913 0.30558 0.04884 0.0
C195 C 0.80172 0.34754 0.07729 0.0
C196 C 0.74451 0.3862 0.06955 0.0
C197 C 0.71457 0.38352 0.03325 0.0
H198 H 0.81551 0.68536 0.50594 0.0
C199 C 0.75538 0.67391 0.50387 0.0
H200 H 0.6454 0.70884 0.504 0.0
H201 H 0.80014 0.93048 0.61226 0.0
H202 H 0.69364 0.90405 0.64682 0.0
H203 H 0.60388 0.8225 0.61959 0.0
H204 H 0.62022 0.76685 0.55767 0.0
C205 C 0.70557 0.71837 0.50333 0.0
C206 C 0.73589 0.78159 0.51192 0.0
C207 C 0.72294 0.81562 0.54726 0.0
C208 C 0.7746 0.86259 0.56294 0.0
C209 C 0.76277 0.8941 0.59911 0.0
C210 C 0.70178 0.87951 0.61921 0.0
C211 C 0.6513 0.83357 0.60388 0.0
C212 C 0.66153 0.80176 0.56837 0.0
H213 H 0.88242 -0.01362 0.53146 0.0
C214 C 0.91209 0.97176 0.55519 0.0
H215 H 0.92951 0.90013 0.58574 0.0
H216 H 0.7617 0.73733 0.43969 0.0
H217 H 0.86763 0.76407 0.4042 0.0
H218 H 0.96205 0.84142 0.43243 0.0
H219 H 0.95065 0.89338 0.49567 0.0
C220 C 0.89894 0.91608 0.56274 0.0
C221 C 0.838 0.87603 0.54295 0.0
C222 C 0.84602 0.8467 0.50588 0.0
C223 C 0.79342 0.80051 0.49005 0.0
C224 C 0.80173 0.77169 0.45302 0.0
C225 C 0.86185 0.78676 0.43247 0.0
C226 C 0.91491 0.83045 0.44835 0.0
C227 C 0.9075 0.86015 0.48465 0.0
H228 H 0.67092 0.31115 0.4645 0.0
C229 C 0.71742 0.34329 0.47237 0.0
H230 H 0.83553 0.35562 0.48317 0.0
H231 H 0.88425 0.09183 0.516 0.0
H232 H 0.90225 0.14933 0.57852 0.0
H233 H 0.87747 0.2584 0.59003 0.0
H234 H 0.83245 0.31002 0.53967 0.0
C235 C 0.78896 0.32419 0.47373 0.0
C236 C 0.80685 0.2595 0.4663 0.0
C237 C 0.83448 0.23071 0.49604 0.0
C238 C 0.85239 0.1687 0.48916 0.0
C239 C 0.87488 0.13978 0.51963 0.0
C240 C 0.88428 0.17206 0.55557 0.0
C241 C 0.86998 0.23341 0.56209 0.0
C242 C 0.84441 0.26251 0.53288 0.0
H243 H 0.98999 0.1069 0.46614 0.0
C244 C 0.95648 0.07081 0.4494 0.0
H245 H 0.84985 0.04027 0.42614 0.0
H246 H 0.75957 0.30296 0.40285 0.0
H247 H 0.74746 0.24659 0.34041 0.0
H248 H 0.7808 0.13917 0.3281 0.0
H249 H 0.82628 0.08776 0.37803 0.0
C250 C 0.88205 0.07674 0.44322 0.0
C251 C 0.84741 0.13683 0.45221 0.0
C252 C 0.81847 0.16547 0.42256 0.0
C253 C 0.79848 0.22711 0.42963 0.0
C254 C 0.77347 0.25571 0.39932 0.0
C255 C 0.76683 0.224 0.36319 0.0
C256 C 0.7857 0.1636 0.35627 0.0
C257 C 0.81167 0.13455 0.38538 0.0
H258 H 0.42768 0.34745 0.53078 0.0
C259 C 0.38312 0.3662 0.51484 0.0
H260 H 0.2684 0.36068 0.49556 0.0
H261 H 0.19574 0.09143 0.49819 0.0
H262 H 0.20477 0.09113 0.43174 0.0
H263 H 0.25515 0.18016 0.40804 0.0
H264 H 0.29714 0.26966 0.45067 0.0
C265 C 0.31265 0.3423 0.51191 0.0
C266 C 0.29193 0.28713 0.52693 0.0
C267 C 0.26873 0.23489 0.50157 0.0
C268 C 0.23861 0.18407 0.5151 0.0
C269 C 0.21686 0.13204 0.48928 0.0
C270 C 0.22236 0.13106 0.45108 0.0
C271 C 0.25076 0.18114 0.43775 0.0
C272 C 0.27432 0.23236 0.46255 0.0
H273 H 0.08643 0.15066 0.53862 0.0
C274 C 0.11454 0.12807 0.55964 0.0
H275 H 0.21752 0.11418 0.58837 0.0
H276 H 0.32769 0.38158 0.58293 0.0
H277 H 0.31372 0.38306 0.64904 0.0
H278 H 0.26441 0.29381 0.67271 0.0
H279 H 0.22687 0.20317 0.6303 0.0
C280 C 0.18875 0.13762 0.568 0.0
C281 C 0.23038 0.18629 0.55387 0.0
C282 C 0.2561 0.23763 0.57936 0.0
C283 C 0.28614 0.28857 0.56583 0.0
C284 C 0.3063 0.34097 0.59165 0.0
C285 C 0.29824 0.34258 0.62974 0.0
C286 C 0.27032 0.29239 0.64306 0.0
C287 C 0.24918 0.24051 0.61833 0.0
H288 H 0.45029 0.71818 0.51402 0.0
C289 C 0.40724 0.68272 0.51185 0.0
H290 H 0.29119 0.65965 0.50465 0.0
H291 H 0.21199 0.94217 0.51674 0.0
H292 H 0.22284 0.94327 0.5837 0.0
H293 H 0.27483 0.85623 0.60962 0.0
H294 H 0.3166 0.76761 0.56861 0.0
C295 C 0.33384 0.69549 0.50719 0.0
C296 C 0.31059 0.75048 0.49248 0.0
C297 C 0.28754 0.80181 0.51678 0.0
C298 C 0.25641 0.85138 0.50183 0.0
C299 C 0.2342 0.90257 0.52665 0.0
C300 C 0.24062 0.90393 0.56512 0.0
C301 C 0.26997 0.85495 0.57971 0.0
C302 C 0.29357 0.8044 0.55594 0.0
H303 H 0.10309 0.87765 0.47059 0.0
C304 C 0.13123 0.90143 0.45099 0.0
H305 H 0.23373 0.92008 0.42723 0.0
H306 H 0.34987 0.6582 0.43788 0.0
H307 H 0.33429 0.65538 0.37127 0.0
H308 H 0.28042 0.74154 0.34528 0.0
H309 H 0.24121 0.83057 0.38594 0.0
C310 C 0.20558 0.89562 0.44647 0.0
C311 C 0.24756 0.84864 0.46261 0.0
C312 C 0.27285 0.79803 0.43828 0.0
C313 C 0.304 0.74861 0.45323 0.0
C314 C 0.32604 0.69734 0.42826 0.0
C315 C 0.31737 0.69504 0.38982 0.0
C316 C 0.28702 0.74349 0.3752 0.0
C317 C 0.26489 0.79445 0.39897 0.0
H318 H 0.99705 -0.00617 0.12925 0.0
C319 C 0.05785 -0.00442 0.12623 0.0
H320 H 0.1658 -0.00653 0.15318 0.0
H321 H 0.04491 0.09989 0.31096 0.0
H322 H 0.09597 0.19121 0.29283 0.0
H323 H 0.138 0.19176 0.22902 0.0
H324 H 0.12912 0.10107 0.18292 0.0
C325 C 0.10493 -0.00915 0.15563 0.0
C326 C 0.07665 -0.00996 0.19349 0.0
C327 C 0.08083 0.04374 0.21988 0.0
C328 C 0.05654 0.04345 0.25663 0.0
C329 C 0.0624 0.09757 0.2826 0.0
C330 C 0.09161 0.15034 0.27258 0.0
C331 C 0.11528 0.15065 0.23666 0.0
C332 C 0.10988 0.09821 0.21048 0.0
H333 H 0.10575 0.94244 0.31865 0.0
C334 C 0.05603 0.96557 0.32985 0.0
H335 H 0.95772 0.01196 0.31562 0.0
H336 H 0.06839 0.87814 0.15091 0.0
H337 H 0.02292 0.78558 0.17009 0.0
H338 H 0.97408 0.78633 0.23276 0.0
H339 H 0.97404 0.87901 0.27737 0.0
C340 C 0.00848 -0.01117 0.30622 0.0
C341 C 0.0287 -0.01068 0.267 0.0
C342 C 0.02447 0.93556 0.24067 0.0
C343 C 0.04965 0.93568 0.204 0.0
C344 C 0.04886 0.88068 0.17892 0.0
C345 C 0.02316 0.82727 0.18963 0.0
C346 C 0.99563 0.82768 0.22492 0.0
C347 C 0.99601 0.8811 0.25025 0.0
H348 H 0.96552 0.03343 0.85315 0.0
C349 C 0.01552 0.02289 0.86929 0.0
H350 H 0.13248 0.00507 0.86655 0.0
H351 H 0.01917 0.92629 0.69388 0.0
H352 H 0.05179 0.82962 0.71142 0.0
H353 H 0.09933 0.82256 0.77539 0.0
H354 H 0.11451 0.91241 0.82224 0.0
C355 C 0.08202 0.02043 0.85307 0.0
C356 C 0.07987 0.02763 0.81302 0.0
C357 C 0.0748 0.97519 0.78562 0.0
C358 C 0.04785 -0.02075 0.74875 0.0
C359 C 0.04004 0.92583 0.72226 0.0
C360 C 0.05838 0.87001 0.73197 0.0
C361 C 0.08505 0.86605 0.768 0.0
C362 C 0.09326 0.91787 0.79463 0.0
H363 H 0.1101 0.06772 0.68733 0.0
C364 C 0.0532 0.05401 0.67651 0.0
H365 H 0.94474 0.02699 0.69125 0.0
H366 H 0.09068 0.1371 0.8578 0.0
H367 H 0.05307 0.23368 0.84095 0.0
H368 H 1.00353 0.24046 0.77725 0.0
H369 H 0.99177 0.15099 0.72995 0.0
C370 C 1.00272 0.0397 0.70028 0.0
C371 C 0.02787 0.0359 0.73918 0.0
C372 C 0.03521 0.0887 0.76614 0.0
C373 C 0.06223 0.08463 0.803 0.0
C374 C 0.06894 0.13787 0.82959 0.0
C375 C 0.04796 0.19343 0.82022 0.0
C376 C 0.02024 0.19727 0.78432 0.0
C377 C 0.01403 0.14567 0.75742 0.0
H378 H 0.65848 0.50691 0.6477 0.0
C379 C 0.60845 0.50591 0.62912 0.0
H380 H 0.48888 0.49721 0.62564 0.0
H381 H 0.52229 0.37297 0.77379 0.0
H382 H 0.46754 0.29059 0.72891 0.0
H383 H 0.44428 0.30219 0.66304 0.0
H384 H 0.47418 0.39682 0.64166 0.0
C385 C 0.54029 0.50103 0.64332 0.0
C386 C 0.53686 0.49813 0.68396 0.0
C387 C 0.51747 0.44311 0.69603 0.0
C388 C 0.53147 0.43621 0.73397 0.0
C389 C 0.51284 0.3805 0.74527 0.0
C390 C 0.48147 0.3329 0.71981 0.0
C391 C 0.46831 0.33948 0.6827 0.0
C392 C 0.48601 0.39384 0.67077 0.0
H393 H 0.48172 0.51908 0.81633 0.0
C394 C 0.53239 0.49723 0.82526 0.0
H395 H 0.6332 0.45512 0.80571 0.0
H396 H 0.56459 0.61326 0.67167 0.0
H397 H 0.61906 0.69588 0.71648 0.0
H398 H 0.65045 0.68224 0.78141 0.0
H399 H 0.62641 0.58634 0.80207 0.0
C400 C 0.58097 0.47661 0.79907 0.0
C401 C 0.56445 0.48439 0.75968 0.0
C402 C 0.57998 0.54049 0.74807 0.0
C403 C 0.56449 0.54774 0.71037 0.0
C404 C 0.57802 0.60481 0.6997 0.0
C405 C 0.60867 0.65267 0.72519 0.0
C406 C 0.62613 0.64503 0.76177 0.0
C407 C 0.61189 0.58976 0.77327 0.0
H408 H 0.51984 0.46368 0.34676 0.0
C409 C 0.54807 0.49719 0.36791 0.0
H410 H 0.60751 0.58032 0.37749 0.0
H411 H 0.58557 0.45439 0.19433 0.0
H412 H 0.66983 0.37826 0.21206 0.0
H413 H 0.71448 0.38153 0.27762 0.0
H414 H 0.67432 0.46088 0.32594 0.0
C415 C 0.58463 0.54353 0.35689 0.0
C416 C 0.57638 0.55102 0.31676 0.0
C417 C 0.60267 0.50589 0.28864 0.0
C418 C 0.57856 0.50495 0.25073 0.0
C419 C 0.60313 0.45786 0.22348 0.0
C420 C 0.65143 0.41381 0.23328 0.0
C421 C 0.67642 0.41558 0.2702 0.0
C422 C 0.65258 0.46102 0.29767 0.0
H423 H 0.59901 0.59555 0.18898 0.0
C424 C 0.5472 0.57177 0.17757 0.0
H425 H 0.45017 0.52556 0.19205 0.0
H426 H 0.52306 0.64871 0.36286 0.0
H427 H 0.44552 0.72808 0.34437 0.0
H428 H 0.40442 0.72655 0.27855 0.0
H429 H 0.44223 0.64595 0.23054 0.0
C430 C 0.50371 0.54813 0.20121 0.0
C431 C 0.53013 0.55023 0.24081 0.0
C432 C 0.50803 0.59768 0.26846 0.0
C433 C 0.53148 0.59831 0.30648 0.0
C434 C 0.50734 0.64584 0.33356 0.0
C435 C 0.46256 0.69172 0.32335 0.0
C436 C 0.4396 0.69095 0.28626 0.0
C437 C 0.46175 0.64452 0.25901 0.0
loop_
_geom_bond_atom_site_label_1
_geom_bond_atom_site_label_2
_geom_bond_distance
_geom_bond_site_symmetry_2
_ccdc_geom_bond_type
O0 Mg1 1.990 . S
O0 C14 1.253 . S
Mg1 O0 1.990 . S
Mg1 O4 2.180 . S
Mg1 O5 2.117 . S
Mg1 O19 2.030 1_545 S
O2 Mg3 2.072 1_554 S
O2 C14 1.260 . S
Mg3 O2 2.072 1_556 S
Mg3 O4 2.099 1_556 S
Mg3 O6 2.079 . S
Mg3 O7 2.072 1_456 S
Mg3 O9 2.099 1_445 S
Mg3 O20 2.079 1_545 S
O4 Mg1 2.180 . S
O4 Mg3 2.099 1_554 S
O4 C15 1.279 . S
O5 Mg1 2.117 . S
O5 C15 1.250 . S
O6 Mg3 2.079 . S
O6 C16 1.264 . S
O7 Mg3 2.072 1_654 S
O7 C17 1.260 1_554 S
Mg8 O9 2.180 1_545 S
Mg8 O10 2.030 . S
Mg8 O11 1.990 . S
Mg8 O12 2.117 1_545 S
O9 Mg3 2.099 1_665 S
O9 Mg8 2.180 1_565 S
O9 C18 1.281 1_556 S
O10 Mg8 2.030 . S
O10 C16 1.248 1_655 S
O11 Mg8 1.990 . S
O11 C17 1.253 . S
O12 Mg8 2.117 1_565 S
O12 C18 1.251 1_556 S
C13 O19 1.248 . S
C13 O20 1.264 1_554 S
C14 O0 1.253 . S
C14 O2 1.260 . S
C15 O4 1.279 . S
C15 O5 1.250 . S
C16 O6 1.264 . S
C16 O10 1.248 1_455 S
C17 O7 1.260 1_556 S
C17 O11 1.253 . S
C18 O9 1.281 1_554 S
C18 O12 1.251 1_554 S
O19 Mg1 2.030 1_565 S
O19 C13 1.248 . S
O20 Mg3 2.079 1_565 S
O20 C13 1.264 1_556 S
O21 Mg22 1.990 . S
O21 C35 1.253 . S
Mg22 O21 1.990 . S
Mg22 O25 2.180 . S
Mg22 O26 2.117 . S
Mg22 O40 2.030 . S
O23 Mg24 2.072 . S
O23 C35 1.260 . S
Mg24 O23 2.072 . S
Mg24 O25 2.099 . S
Mg24 O27 2.079 . S
Mg24 O28 2.072 . S
Mg24 O30 2.099 . S
Mg24 O41 2.079 . S
O25 Mg22 2.180 . S
O25 Mg24 2.099 . S
O25 C36 1.279 . S
O26 Mg22 2.117 . S
O26 C36 1.250 . S
O27 Mg24 2.079 . S
O27 C37 1.264 . S
O28 Mg24 2.072 . S
O28 C38 1.260 . S
Mg29 O30 2.180 . S
Mg29 O31 2.030 . S
Mg29 O32 1.990 . S
Mg29 O33 2.117 . S
O30 Mg24 2.099 . S
O30 Mg29 2.180 . S
O30 C39 1.279 . S
O31 Mg29 2.030 . S
O31 C37 1.248 . S
O32 Mg29 1.990 . S
O32 C38 1.253 . S
O33 Mg29 2.117 . S
O33 C39 1.250 . S
C34 O40 1.248 . S
C34 O41 1.264 . S
C35 O21 1.253 . S
C35 O23 1.260 . S
C36 O25 1.279 . S
C36 O26 1.250 . S
C37 O27 1.264 . S
C37 O31 1.248 . S
C38 O28 1.260 . S
C38 O32 1.253 . S
C39 O30 1.279 . S
C39 O33 1.250 . S
O40 Mg22 2.030 . S
O40 C34 1.248 . S
O41 Mg24 2.079 . S
O41 C34 1.264 . S
H42 C45 0.931 1_655 S
H43 C48 0.928 . S
H44 C50 0.930 . S
C45 H42 0.931 1_455 S
C45 C46 1.413 . S
C45 C47 1.360 1_545 S
C46 C45 1.413 . S
C46 C50 1.429 . S
C47 C45 1.360 1_565 S
C47 C48 1.372 . S
C48 H43 0.928 . S
C48 C47 1.372 . S
C48 C49 1.404 . S
C49 C48 1.404 . S
C49 C50 1.391 1_565 S
C50 H44 0.930 . S
C50 C46 1.429 . S
C50 C49 1.391 1_545 S
H51 C54 0.931 . S
H52 C57 0.928 . S
H53 C59 0.931 . S
C54 H51 0.931 . S
C54 C55 1.413 . S
C54 C56 1.360 1_655 S
C55 C54 1.413 . S
C55 C59 1.438 . S
C56 C54 1.360 1_455 S
C56 C57 1.372 . S
C57 H52 0.928 . S
C57 C56 1.372 . S
C57 C58 1.404 . S
C58 C57 1.404 . S
C58 C59 1.382 1_455 S
C59 H53 0.931 . S
C59 C55 1.438 . S
C59 C58 1.382 1_655 S
H60 C63 0.931 . S
H61 C66 0.928 . S
H62 C68 0.930 . S
C63 H60 0.931 . S
C63 C64 1.413 . S
C63 C65 1.360 . S
C64 C63 1.413 . S
C64 C68 1.429 . S
C65 C63 1.360 . S
C65 C66 1.372 . S
C66 H61 0.928 . S
C66 C65 1.372 . S
C66 C67 1.404 . S
C67 C66 1.404 . S
C67 C68 1.391 . S
C68 H62 0.930 . S
C68 C64 1.429 . S
C68 C67 1.391 . S
H69 C72 0.931 . S
H70 C75 0.928 . S
H71 C77 0.930 . S
C72 H69 0.931 . S
C72 C73 1.413 . S
C72 C74 1.360 . S
C73 C72 1.413 . S
C73 C77 1.429 . S
C74 C72 1.360 . S
C74 C75 1.372 . S
C75 H70 0.928 . S
C75 C74 1.372 . S
C75 C76 1.404 . S
C76 C75 1.404 . S
C76 C77 1.391 . S
C77 H71 0.930 . S
C77 C73 1.429 . S
C77 C76 1.391 . S
H78 C79 0.951 . S
C79 H78 0.951 . S
C79 C85 1.268 . S
H80 C85 0.944 1_556 S
H81 C89 0.949 . S
H82 C90 0.950 . S
H83 C91 0.951 . S
H84 C92 0.951 . S
C85 C79 1.268 . S
C85 H80 0.944 1_554 S
C85 C86 1.480 . S
C86 C85 1.480 . S
C86 C87 1.397 . S
C86 C103 1.394 . S
C87 C86 1.397 . S
C87 C88 1.438 . S
C87 C92 1.429 1_554 S
C88 C87 1.438 . S
C88 C89 1.428 . S
C88 C101 1.394 . S
C89 H81 0.949 . S
C89 C88 1.428 . S
C89 C90 1.345 . S
C90 H82 0.950 . S
C90 C89 1.345 . S
C90 C91 1.424 1_554 S
C91 H83 0.951 . S
C91 C90 1.424 1_556 S
C91 C92 1.347 . S
C92 H84 0.951 . S
C92 C87 1.429 1_556 S
C92 C91 1.347 . S
H93 C94 0.951 . S
C94 H93 0.951 . S
C94 C100 1.265 . S
H95 C100 0.950 . S
H96 C104 0.949 . S
H97 C105 0.950 . S
H98 C106 0.951 . S
H99 C107 0.951 . S
C100 C94 1.265 . S
C100 H95 0.950 . S
C100 C101 1.478 . S
C101 C88 1.394 . S
C101 C100 1.478 . S
C101 C102 1.397 . S
C102 C101 1.397 . S
C102 C103 1.438 . S
C102 C107 1.429 . S
C103 C86 1.394 . S
C103 C102 1.438 . S
C103 C104 1.428 . S
C104 H96 0.949 . S
C104 C103 1.428 . S
C104 C105 1.345 . S
C105 H97 0.950 . S
C105 C104 1.345 . S
C105 C106 1.424 . S
C106 H98 0.951 . S
C106 C105 1.424 . S
C106 C107 1.347 . S
C107 H99 0.951 . S
C107 C102 1.429 . S
C107 C106 1.347 . S
H108 C109 0.951 . S
C109 H108 0.951 . S
C109 C115 1.265 . S
H110 C115 0.950 . S
H111 C119 0.949 . S
H112 C120 0.950 . S
H113 C121 0.951 . S
H114 C122 0.951 . S
C115 C109 1.265 . S
C115 H110 0.950 . S
C115 C116 1.478 . S
C116 C115 1.478 . S
C116 C117 1.397 . S
C116 C133 1.394 1_556 S
C117 C116 1.397 . S
C117 C118 1.438 . S
C117 C122 1.429 . S
C118 C117 1.438 . S
C118 C119 1.428 . S
C118 C131 1.394 . S
C119 H111 0.949 . S
C119 C118 1.428 . S
C119 C120 1.345 . S
C120 H112 0.950 . S
C120 C119 1.345 . S
C120 C121 1.424 . S
C121 H113 0.951 . S
C121 C120 1.424 . S
C121 C122 1.347 . S
C122 H114 0.951 . S
C122 C117 1.429 . S
C122 C121 1.347 . S
H123 C124 0.951 . S
C124 H123 0.951 . S
C124 C130 1.265 . S
H125 C130 0.950 . S
H126 C134 0.949 . S
H127 C135 0.950 . S
H128 C136 0.951 . S
H129 C137 0.951 . S
C130 C124 1.265 . S
C130 H125 0.950 . S
C130 C131 1.478 . S
C131 C118 1.394 . S
C131 C130 1.478 . S
C131 C132 1.397 1_556 S
C132 C131 1.397 1_554 S
C132 C133 1.438 . S
C132 C137 1.429 . S
C133 C116 1.394 1_554 S
C133 C132 1.438 . S
C133 C134 1.428 . S
C134 H126 0.949 . S
C134 C133 1.428 . S
C134 C135 1.345 . S
C135 H127 0.950 . S
C135 C134 1.345 . S
C135 C136 1.424 . S
C136 H128 0.951 . S
C136 C135 1.424 . S
C136 C137 1.347 . S
C137 H129 0.951 . S
C137 C132 1.429 . S
C137 C136 1.347 . S
H138 C139 0.951 . S
C139 H138 0.951 . S
C139 C145 1.265 . S
H140 C145 0.950 . S
H141 C149 0.949 . S
H142 C150 0.950 . S
H143 C151 0.951 . S
H144 C152 0.951 . S
C145 C139 1.265 . S
C145 H140 0.950 . S
C145 C146 1.478 . S
C146 C145 1.478 . S
C146 C147 1.397 . S
C146 C163 1.394 . S
C147 C146 1.397 . S
C147 C148 1.438 . S
C147 C152 1.429 . S
C148 C147 1.438 . S
C148 C149 1.428 . S
C148 C161 1.394 . S
C149 H141 0.949 . S
C149 C148 1.428 . S
C149 C150 1.345 . S
C150 H142 0.950 . S
C150 C149 1.345 . S
C150 C151 1.424 . S
C151 H143 0.951 . S
C151 C150 1.424 . S
C151 C152 1.347 . S
C152 H144 0.951 . S
C152 C147 1.429 . S
C152 C151 1.347 . S
H153 C154 0.951 . S
C154 H153 0.951 . S
C154 C160 1.265 . S
H155 C160 0.950 . S
H156 C164 0.949 . S
H157 C165 0.950 . S
H158 C166 0.951 . S
H159 C167 0.951 . S
C160 C154 1.265 . S
C160 H155 0.950 . S
C160 C161 1.478 . S
C161 C148 1.394 . S
C161 C160 1.478 . S
C161 C162 1.397 . S
C162 C161 1.397 . S
C162 C163 1.438 . S
C162 C167 1.429 1_554 S
C163 C146 1.394 . S
C163 C162 1.438 . S
C163 C164 1.428 1_554 S
C164 H156 0.949 . S
C164 C163 1.428 1_556 S
C164 C165 1.345 . S
C165 H157 0.950 . S
C165 C164 1.345 . S
C165 C166 1.424 . S
C166 H158 0.951 . S
C166 C165 1.424 . S
C166 C167 1.347 . S
C167 H159 0.951 . S
C167 C162 1.429 1_556 S
C167 C166 1.347 . S
H168 C169 0.951 1_554 S
C169 H168 0.951 1_556 S
C169 C175 1.265 . S
H170 C175 0.950 . S
H171 C179 0.949 . S
H172 C180 0.950 . S
H173 C181 0.951 . S
H174 C182 0.951 . S
C175 C169 1.265 . S
C175 H170 0.950 . S
C175 C176 1.478 . S
C176 C175 1.478 . S
C176 C177 1.397 . S
C176 C193 1.394 1_556 S
C177 C176 1.397 . S
C177 C178 1.438 . S
C177 C182 1.429 . S
C178 C177 1.438 . S
C178 C179 1.428 . S
C178 C191 1.394 . S
C179 H171 0.949 . S
C179 C178 1.428 . S
C179 C180 1.345 . S
C180 H172 0.950 . S
C180 C179 1.345 . S
C180 C181 1.424 . S
C181 H173 0.951 . S
C181 C180 1.424 . S
C181 C182 1.347 . S
C182 H174 0.951 . S
C182 C177 1.429 . S
C182 C181 1.347 . S
H183 C184 0.951 . S
C184 H183 0.951 . S
C184 C190 1.265 . S
H185 C190 0.950 . S
H186 C194 0.949 . S
H187 C195 0.950 . S
H188 C196 0.951 . S
H189 C197 0.951 . S
C190 C184 1.265 . S
C190 H185 0.950 . S
C190 C191 1.478 . S
C191 C178 1.394 . S
C191 C190 1.478 . S
C191 C192 1.397 1_556 S
C192 C191 1.397 1_554 S
C192 C193 1.438 . S
C192 C197 1.429 . S
C193 C176 1.394 1_554 S
C193 C192 1.438 . S
C193 C194 1.428 . S
C194 H186 0.949 . S
C194 C193 1.428 . S
C194 C195 1.345 . S
C195 H187 0.950 . S
C195 C194 1.345 . S
C195 C196 1.424 . S
C196 H188 0.951 . S
C196 C195 1.424 . S
C196 C197 1.347 . S
C197 H189 0.951 . S
C197 C192 1.429 . S
C197 C196 1.347 . S
H198 C199 0.951 . S
C199 H198 0.951 . S
C199 C205 1.265 . S
H200 C205 0.950 . S
H201 C209 0.949 . S
H202 C210 0.950 . S
H203 C211 0.951 . S
H204 C212 0.951 . S
C205 C199 1.265 . S
C205 H200 0.950 . S
C205 C206 1.478 . S
C206 C205 1.478 . S
C206 C207 1.397 . S
C206 C223 1.394 . S
C207 C206 1.397 . S
C207 C208 1.438 . S
C207 C212 1.429 . S
C208 C207 1.438 . S
C208 C209 1.428 . S
C208 C221 1.394 . S
C209 H201 0.949 . S
C209 C208 1.428 . S
C209 C210 1.345 . S
C210 H202 0.950 . S
C210 C209 1.345 . S
C210 C211 1.424 . S
C211 H203 0.951 . S
C211 C210 1.424 . S
C211 C212 1.347 . S
C212 H204 0.951 . S
C212 C207 1.429 . S
C212 C211 1.347 . S
H213 C214 0.951 1_545 S
C214 H213 0.951 1_565 S
C214 C220 1.265 . S
H215 C220 0.950 . S
H216 C224 0.949 . S
H217 C225 0.950 . S
H218 C226 0.951 . S
H219 C227 0.951 . S
C220 C214 1.265 . S
C220 H215 0.950 . S
C220 C221 1.478 . S
C221 C208 1.394 . S
C221 C220 1.478 . S
C221 C222 1.397 . S
C222 C221 1.397 . S
C222 C223 1.438 . S
C222 C227 1.429 . S
C223 C206 1.394 . S
C223 C222 1.438 . S
C223 C224 1.428 . S
C224 H216 0.949 . S
C224 C223 1.428 . S
C224 C225 1.345 . S
C225 H217 0.950 . S
C225 C224 1.345 . S
C225 C226 1.424 . S
C226 H218 0.951 . S
C226 C225 1.424 . S
C226 C227 1.347 . S
C227 H219 0.951 . S
C227 C222 1.429 . S
C227 C226 1.347 . S
H228 C229 0.951 . S
C229 H228 0.951 . S
C229 C235 1.265 . S
H230 C235 0.950 . S
H231 C239 0.949 . S
H232 C240 0.950 . S
H233 C241 0.951 . S
H234 C242 0.951 . S
C235 C229 1.265 . S
C235 H230 0.950 . S
C235 C236 1.478 . S
C236 C235 1.478 . S
C236 C237 1.397 . S
C236 C253 1.394 . S
C237 C236 1.397 . S
C237 C238 1.438 . S
C237 C242 1.429 . S
C238 C237 1.438 . S
C238 C239 1.428 . S
C238 C251 1.394 . S
C239 H231 0.949 . S
C239 C238 1.428 . S
C239 C240 1.345 . S
C240 H232 0.950 . S
C240 C239 1.345 . S
C240 C241 1.424 . S
C241 H233 0.951 . S
C241 C240 1.424 . S
C241 C242 1.347 . S
C242 H234 0.951 . S
C242 C237 1.429 . S
C242 C241 1.347 . S
H243 C244 0.952 . S
C244 H243 0.952 . S
C244 C250 1.265 . S
H245 C250 0.950 . S
H246 C254 0.949 . S
H247 C255 0.950 . S
H248 C256 0.951 . S
H249 C257 0.951 . S
C250 C244 1.265 . S
C250 H245 0.950 . S
C250 C251 1.478 . S
C251 C238 1.394 . S
C251 C250 1.478 . S
C251 C252 1.397 . S
C252 C251 1.397 . S
C252 C253 1.438 . S
C252 C257 1.429 . S
C253 C236 1.394 . S
C253 C252 1.438 . S
C253 C254 1.428 . S
C254 H246 0.949 . S
C254 C253 1.428 . S
C254 C255 1.345 . S
C255 H247 0.950 . S
C255 C254 1.345 . S
C255 C256 1.424 . S
C256 H248 0.951 . S
C256 C255 1.424 . S
C256 C257 1.347 . S
C257 H249 0.951 . S
C257 C252 1.429 . S
C257 C256 1.347 . S
H258 C259 0.951 . S
C259 H258 0.951 . S
C259 C265 1.265 . S
H260 C265 0.950 . S
H261 C269 0.949 . S
H262 C270 0.950 . S
H263 C271 0.951 . S
H264 C272 0.951 . S
C265 C259 1.265 . S
C265 H260 0.950 . S
C265 C266 1.478 . S
C266 C265 1.478 . S
C266 C267 1.397 . S
C266 C283 1.394 . S
C267 C266 1.397 . S
C267 C268 1.438 . S
C267 C272 1.429 . S
C268 C267 1.438 . S
C268 C269 1.428 . S
C268 C281 1.394 . S
C269 H261 0.949 . S
C269 C268 1.428 . S
C269 C270 1.345 . S
C270 H262 0.950 . S
C270 C269 1.345 . S
C270 C271 1.424 . S
C271 H263 0.951 . S
C271 C270 1.424 . S
C271 C272 1.347 . S
C272 H264 0.951 . S
C272 C267 1.429 . S
C272 C271 1.347 . S
H273 C274 0.951 . S
C274 H273 0.951 . S
C274 C280 1.265 . S
H275 C280 0.950 . S
H276 C284 0.949 . S
H277 C285 0.950 . S
H278 C286 0.951 . S
H279 C287 0.951 . S
C280 C274 1.265 . S
C280 H275 0.950 . S
C280 C281 1.478 . S
C281 C268 1.394 . S
C281 C280 1.478 . S
C281 C282 1.397 . S
C282 C281 1.397 . S
C282 C283 1.438 . S
C282 C287 1.429 . S
C283 C266 1.394 . S
C283 C282 1.438 . S
C283 C284 1.428 . S
C284 H276 0.949 . S
C284 C283 1.428 . S
C284 C285 1.345 . S
C285 H277 0.950 . S
C285 C284 1.345 . S
C285 C286 1.424 . S
C286 H278 0.951 . S
C286 C285 1.424 . S
C286 C287 1.347 . S
C287 H279 0.951 . S
C287 C282 1.429 . S
C287 C286 1.347 . S
H288 C289 0.951 . S
C289 H288 0.951 . S
C289 C295 1.265 . S
H290 C295 0.950 . S
H291 C299 0.949 . S
H292 C300 0.950 . S
H293 C301 0.951 . S
H294 C302 0.951 . S
C295 C289 1.265 . S
C295 H290 0.950 . S
C295 C296 1.478 . S
C296 C295 1.478 . S
C296 C297 1.397 . S
C296 C313 1.394 . S
C297 C296 1.397 . S
C297 C298 1.438 . S
C297 C302 1.429 . S
C298 C297 1.438 . S
C298 C299 1.428 . S
C298 C311 1.394 . S
C299 H291 0.949 . S
C299 C298 1.428 . S
C299 C300 1.345 . S
C300 H292 0.950 . S
C300 C299 1.345 . S
C300 C301 1.424 . S
C301 H293 0.951 . S
C301 C300 1.424 . S
C301 C302 1.347 . S
C302 H294 0.951 . S
C302 C297 1.429 . S
C302 C301 1.347 . S
H303 C304 0.951 . S
C304 H303 0.951 . S
C304 C310 1.265 . S
H305 C310 0.950 . S
H306 C314 0.949 . S
H307 C315 0.950 . S
H308 C316 0.951 . S
H309 C317 0.951 . S
C310 C304 1.265 . S
C310 H305 0.950 . S
C310 C311 1.478 . S
C311 C298 1.394 . S
C311 C310 1.478 . S
C311 C312 1.397 . S
C312 C311 1.397 . S
C312 C313 1.438 . S
C312 C317 1.429 . S
C313 C296 1.394 . S
C313 C312 1.438 . S
C313 C314 1.428 . S
C314 H306 0.949 . S
C314 C313 1.428 . S
C314 C315 1.345 . S
C315 H307 0.950 . S
C315 C314 1.345 . S
C315 C316 1.424 . S
C316 H308 0.951 . S
C316 C315 1.424 . S
C316 C317 1.347 . S
C317 H309 0.951 . S
C317 C312 1.429 . S
C317 C316 1.347 . S
H318 C319 0.951 1_655 S
C319 H318 0.951 1_455 S
C319 C325 1.265 . S
H320 C325 0.950 . S
H321 C329 0.949 . S
H322 C330 0.950 . S
H323 C331 0.951 . S
H324 C332 0.951 . S
C325 C319 1.265 . S
C325 H320 0.950 . S
C325 C326 1.478 . S
C326 C325 1.478 . S
C326 C327 1.397 . S
C326 C343 1.394 1_545 S
C327 C326 1.397 . S
C327 C328 1.438 . S
C327 C332 1.429 . S
C328 C327 1.438 . S
C328 C329 1.428 . S
C328 C341 1.394 . S
C329 H321 0.949 . S
C329 C328 1.428 . S
C329 C330 1.345 . S
C330 H322 0.950 . S
C330 C329 1.345 . S
C330 C331 1.424 . S
C331 H323 0.951 . S
C331 C330 1.424 . S
C331 C332 1.347 . S
C332 H324 0.951 . S
C332 C327 1.429 . S
C332 C331 1.347 . S
H333 C334 0.952 . S
C334 H333 0.952 . S
C334 C340 1.265 1_545 S
H335 C340 0.950 1_655 S
H336 C344 0.949 . S
H337 C345 0.950 . S
H338 C346 0.951 . S
H339 C347 0.951 . S
C340 C334 1.265 1_565 S
C340 H335 0.950 1_455 S
C340 C341 1.478 1_565 S
C341 C328 1.394 . S
C341 C340 1.478 1_545 S
C341 C342 1.397 1_545 S
C342 C341 1.397 1_565 S
C342 C343 1.438 . S
C342 C347 1.429 1_455 S
C343 C326 1.394 1_565 S
C343 C342 1.438 . S
C343 C344 1.428 . S
C344 H336 0.949 . S
C344 C343 1.428 . S
C344 C345 1.345 1_455 S
C345 H337 0.950 . S
C345 C344 1.345 1_655 S
C345 C346 1.424 . S
C346 H338 0.951 . S
C346 C345 1.424 . S
C346 C347 1.347 . S
C347 H339 0.951 . S
C347 C342 1.429 1_655 S
C347 C346 1.347 . S
H348 C349 0.951 1_655 S
C349 H348 0.951 1_455 S
C349 C355 1.265 . S
H350 C355 0.950 . S
H351 C359 0.949 . S
H352 C360 0.950 . S
H353 C361 0.951 . S
H354 C362 0.951 . S
C355 C349 1.265 . S
C355 H350 0.950 . S
C355 C356 1.478 . S
C356 C355 1.478 . S
C356 C357 1.397 . S
C356 C373 1.394 . S
C357 C356 1.397 . S
C357 C358 1.438 . S
C357 C362 1.429 1_545 S
C358 C357 1.438 . S
C358 C359 1.428 1_545 S
C358 C371 1.394 . S
C359 H351 0.949 . S
C359 C358 1.428 1_565 S
C359 C360 1.345 . S
C360 H352 0.950 . S
C360 C359 1.345 . S
C360 C361 1.424 . S
C361 H353 0.951 . S
C361 C360 1.424 . S
C361 C362 1.347 . S
C362 H354 0.951 . S
C362 C357 1.429 1_565 S
C362 C361 1.347 . S
H363 C364 0.951 . S
C364 H363 0.951 . S
C364 C370 1.265 1_455 S
H365 C370 0.950 . S
H366 C374 0.949 . S
H367 C375 0.950 . S
H368 C376 0.951 . S
H369 C377 0.951 . S
C370 C364 1.265 1_655 S
C370 H365 0.950 . S
C370 C371 1.478 1_655 S
C371 C358 1.394 . S
C371 C370 1.478 1_455 S
C371 C372 1.397 . S
C372 C371 1.397 . S
C372 C373 1.438 . S
C372 C377 1.429 1_455 S
C373 C356 1.394 . S
C373 C372 1.438 . S
C373 C374 1.428 . S
C374 H366 0.949 . S
C374 C373 1.428 . S
C374 C375 1.345 . S
C375 H367 0.950 . S
C375 C374 1.345 . S
C375 C376 1.424 1_455 S
C376 H368 0.951 . S
C376 C375 1.424 1_655 S
C376 C377 1.347 . S
C377 H369 0.951 . S
C377 C372 1.429 1_655 S
C377 C376 1.347 . S
H378 C379 0.951 . S
C379 H378 0.951 . S
C379 C385 1.265 . S
H380 C385 0.950 . S
H381 C389 0.949 . S
H382 C390 0.950 . S
H383 C391 0.951 . S
H384 C392 0.951 . S
C385 C379 1.265 . S
C385 H380 0.950 . S
C385 C386 1.478 . S
C386 C385 1.478 . S
C386 C387 1.397 . S
C386 C403 1.394 . S
C387 C386 1.397 . S
C387 C388 1.438 . S
C387 C392 1.429 . S
C388 C387 1.438 . S
C388 C389 1.428 . S
C388 C401 1.394 . S
C389 H381 0.949 . S
C389 C388 1.428 . S
C389 C390 1.345 . S
C390 H382 0.950 . S
C390 C389 1.345 . S
C390 C391 1.424 . S
C391 H383 0.951 . S
C391 C390 1.424 . S
C391 C392 1.347 . S
C392 H384 0.951 . S
C392 C387 1.429 . S
C392 C391 1.347 . S
H393 C394 0.951 . S
C394 H393 0.951 . S
C394 C400 1.265 . S
H395 C400 0.950 . S
H396 C404 0.949 . S
H397 C405 0.950 . S
H398 C406 0.951 . S
H399 C407 0.951 . S
C400 C394 1.265 . S
C400 H395 0.950 . S
C400 C401 1.478 . S
C401 C388 1.394 . S
C401 C400 1.478 . S
C401 C402 1.397 . S
C402 C401 1.397 . S
C402 C403 1.438 . S
C402 C407 1.429 . S
C403 C386 1.394 . S
C403 C402 1.438 . S
C403 C404 1.428 . S
C404 H396 0.949 . S
C404 C403 1.428 . S
C404 C405 1.345 . S
C405 H397 0.950 . S
C405 C404 1.345 . S
C405 C406 1.424 . S
C406 H398 0.951 . S
C406 C405 1.424 . S
C406 C407 1.347 . S
C407 H399 0.951 . S
C407 C402 1.429 . S
C407 C406 1.347 . S
H408 C409 0.951 . S
C409 H408 0.951 . S
C409 C415 1.265 . S
H410 C415 0.950 . S
H411 C419 0.949 . S
H412 C420 0.950 . S
H413 C421 0.951 . S
H414 C422 0.951 . S
C415 C409 1.265 . S
C415 H410 0.950 . S
C415 C416 1.478 . S
C416 C415 1.478 . S
C416 C417 1.397 . S
C416 C433 1.394 . S
C417 C416 1.397 . S
C417 C418 1.438 . S
C417 C422 1.429 . S
C418 C417 1.438 . S
C418 C419 1.428 . S
C418 C431 1.394 . S
C419 H411 0.949 . S
C419 C418 1.428 . S
C419 C420 1.345 . S
C420 H412 0.950 . S
C420 C419 1.345 . S
C420 C421 1.424 . S
C421 H413 0.951 . S
C421 C420 1.424 . S
C421 C422 1.347 . S
C422 H414 0.951 . S
C422 C417 1.429 . S
C422 C421 1.347 . S
H423 C424 0.951 . S
C424 H423 0.951 . S
C424 C430 1.265 . S
H425 C430 0.950 . S
H426 C434 0.949 . S
H427 C435 0.950 . S
H428 C436 0.951 . S
H429 C437 0.951 . S
C430 C424 1.265 . S
C430 H425 0.950 . S
C430 C431 1.478 . S
C431 C418 1.394 . S
C431 C430 1.478 . S
C431 C432 1.397 . S
C432 C431 1.397 . S
C432 C433 1.438 . S
C432 C437 1.429 . S
C433 C416 1.394 . S
C433 C432 1.438 . S
C433 C434 1.428 . S
C434 H426 0.949 . S
C434 C433 1.428 . S
C434 C435 1.345 . S
C435 H427 0.950 . S
C435 C434 1.345 . S
C435 C436 1.424 . S
C436 H428 0.951 . S
C436 C435 1.424 . S
C436 C437 1.347 . S
C437 H429 0.951 . S
C437 C432 1.429 . S
C437 C436 1.347 . S
C94 C73 1.384 . S
C79 C15 1.088 . S
C109 C13 1.373 1_556 S
C124 C64 1.415 . S
C139 C18 1.165 . S
C154 C76 1.385 . S
C169 C17 1.260 . S
C184 C67 1.325 . S
C199 C36 1.088 . S
C214 C55 1.373 1_565 S
C229 C34 1.435 . S
C244 C46 1.405 1_655 S
C274 C58 1.426 . S
C259 C39 1.339 . S
C304 C49 1.359 . S
C289 C38 1.315 . S
C319 C14 1.526 . S
C334 C47 1.542 1_545 S
C349 C16 1.314 . S
C364 C56 1.407 . S
C394 C65 1.538 . S
C379 C35 1.451 . S
C409 C37 1.311 . S
C424 C74 1.412 . S
