# Generated by pormake.
# Topology tsx, (6,3)-cn, num edge types: 1
# Building blocks:
#     Node 0, Type 0, BuildingBlock: MIDCAF_clean_sbu_0, # of connection points: 6
#     Node 1, Type 0, BuildingBlock: MIDCAF_clean_sbu_0, # of connection points: 6
#     Node 2, Type 1, BuildingBlock: MIDCAF_clean_linker_0, # of connection points: 3
#     Node 3, Type 1, BuildingBlock: MIDCAF_clean_linker_0, # of connection points: 3
#     Node 4, Type 1, BuildingBlock: MIDCAF_clean_linker_0, # of connection points: 3
#     Node 5, Type 1, BuildingBlock: MIDCAF_clean_linker_0, # of connection points: 3
#     Edge 6, Type (0, 1), BuildingBlock: AJUNOK_clean_linker_0, # of connection points: 2
#     Edge 7, Type (0, 1), BuildingBlock: AJUNOK_clean_linker_0, # of connection points: 2
#     Edge 8, Type (0, 1), BuildingBlock: AJUNOK_clean_linker_0, # of connection points: 2
#     Edge 9, Type (0, 1), BuildingBlock: AJUNOK_clean_linker_0, # of connection points: 2
#     Edge 10, Type (0, 1), BuildingBlock: AJUNOK_clean_linker_0, # of connection points: 2
#     Edge 11, Type (0, 1), BuildingBlock: AJUNOK_clean_linker_0, # of connection points: 2
#     Edge 12, Type (0, 1), BuildingBlock: AJUNOK_clean_linker_0, # of connection points: 2
#     Edge 13, Type (0, 1), BuildingBlock: AJUNOK_clean_linker_0, # of connection points: 2
#     Edge 14, Type (0, 1), BuildingBlock: AJUNOK_clean_linker_0, # of connection points: 2
#     Edge 15, Type (0, 1), BuildingBlock: AJUNOK_clean_linker_0, # of connection points: 2
#     Edge 16, Type (0, 1), BuildingBlock: AJUNOK_clean_linker_0, # of connection points: 2
#     Edge 17, Type (0, 1), BuildingBlock: AJUNOK_clean_linker_0, # of connection points: 2
# Relax obj value: 0.119
# Max RMSD: 0.182
# Mean RMSD: 0.114
data_MOF--net-tsx--node1-MIDCAF_clean_sbu_0--node2-MIDCAF_clean_linker_0--edge1-AJUNOK_clean_linker_0
_symmetry_space_group_name_H-M    P1
_symmetry_Int_Tables_number       1
_symmetry_cell_setting            triclinic
loop_
_symmetry_equiv_pos_as_xyz
'x, y, z'
_cell_length_a     18.583441
_cell_length_b     19.259818
_cell_length_c     36.758539
_cell_angle_alpha  90.52302
_cell_angle_beta   94.444108
_cell_angle_gamma 90.074886
loop_
_atom_site_label
_atom_site_type_symbol
_atom_site_fract_x
_atom_site_fract_y
_atom_site_fract_z
_atom_type_partial_charge
Zn0 Zn 0.94086 0.00244 0.96675 0.0
Zn1 Zn 0.16672 0.01963 0.05412 0.0
Zn2 Zn 0.05578 0.01738 0.01193 0.0
C3 C 0.15116 0.15326 0.02902 0.0
C4 C 0.19901 0.9265 0.00338 0.0
O5 O 0.97072 0.95799 0.03852 0.0
O6 O 0.87771 0.95067 -0.00292 0.0
C7 C 0.96648 0.14588 0.97824 0.0
O8 O 0.08799 0.12892 0.01895 0.0
O9 O 0.19961 0.11351 0.04271 0.0
O10 O 0.22019 0.94121 0.03587 0.0
O11 O 0.1419 0.95526 0.98815 0.0
O12 O 0.92496 0.1032 0.96082 0.0
O13 O 0.01999 0.12449 -0.00047 0.0
O14 O 0.0861 0.96675 0.96085 0.0
O15 O 0.98348 0.95234 0.92678 0.0
C16 C 0.05108 0.94599 0.93106 0.0
O17 O 0.02902 0.97029 0.06406 0.0
O18 O 0.12425 0.00165 0.1002 0.0
C19 C 0.9061 0.93716 0.02843 0.0
C20 C 0.06316 0.97285 0.09591 0.0
Zn21 Zn 0.65632 0.53822 0.54983 0.0
Zn22 Zn 0.41343 0.52885 0.47682 0.0
Zn23 Zn 0.53484 0.53433 0.51317 0.0
C24 C 0.51185 0.47626 0.43109 0.0
C25 C 0.43147 0.66701 0.49578 0.0
O26 O 0.52035 0.4817 0.56531 0.0
O27 O 0.62685 0.49815 0.59523 0.0
C28 C 0.68331 0.45875 0.49119 0.0
O29 O 0.55388 0.48509 0.46031 0.0
O30 O 0.4468 0.4952 0.43036 0.0
O31 O 0.38411 0.62566 0.48201 0.0
O32 O 0.49466 0.64432 0.50697 0.0
O33 O 0.71515 0.47919 0.52084 0.0
O34 O 0.61679 0.47569 0.483 0.0
O35 O 0.56685 0.64713 0.52019 0.0
O36 O 0.67687 0.63726 0.54725 0.0
C37 C 0.62729 0.67469 0.53273 0.0
O38 O 0.45769 0.46826 0.54275 0.0
O39 O 0.36046 0.46272 0.5042 0.0
C40 C 0.56357 0.47407 0.59414 0.0
C41 C 0.39345 0.44476 0.53381 0.0
C42 C 0.82892 0.19979 0.40037 0.0
C43 C 0.84854 0.23676 0.43258 0.0
C44 C 0.90931 0.21496 0.45486 0.0
C45 C 0.95092 0.15856 0.44444 0.0
H46 H 0.12299 0.00239 0.47769 0.0
H47 H 0.22923 0.94826 0.50968 0.0
H48 H 0.29765 0.8749 0.40655 0.0
H49 H 0.19359 0.92889 0.37493 0.0
H50 H 0.02639 0.85925 0.32159 0.0
H51 H 0.01547 0.82741 0.2568 0.0
H52 H 0.92969 0.03114 0.23088 0.0
H53 H 0.93497 0.06029 0.29528 0.0
H54 H 0.85346 0.11726 0.36458 0.0
H55 H 0.7824 0.21526 0.38273 0.0
H56 H 0.92468 0.24154 0.48038 0.0
H57 H 0.99793 0.14371 0.46188 0.0
N58 N 0.03875 0.04328 0.41809 0.0
N59 N 0.06067 0.96524 0.37057 0.0
N60 N 0.95948 0.03715 0.3652 0.0
C61 C 0.08072 0.99303 0.40401 0.0
C62 C 1.00004 0.98691 0.35115 0.0
C63 C 0.97761 0.06542 0.39857 0.0
C64 C 0.14897 0.96901 0.42379 0.0
C65 C 0.1617 0.97607 0.46187 0.0
C66 C 0.22263 0.94527 0.48017 0.0
C67 C 0.27252 0.90786 0.46067 0.0
C68 C 0.26166 0.90465 0.42246 0.0
C69 C 0.20091 0.93471 0.40432 0.0
C70 C 0.98312 0.96273 0.31328 0.0
C71 C 0.00361 0.89635 0.30196 0.0
C72 C 0.99767 0.87838 0.26489 0.0
C73 C 0.97427 0.92765 0.23849 0.0
C74 C 0.94797 0.99177 0.2503 0.0
C75 C 0.95169 0.00883 0.28732 0.0
C76 C 0.93227 0.12265 0.41162 0.0
C77 C 0.87014 0.14358 0.39001 0.0
C78 C 0.79646 0.91417 0.60395 0.0
C79 C 0.78398 0.91698 0.5658 0.0
C80 C 0.83419 0.95284 0.54599 0.0
C81 C 0.89722 0.98161 0.56379 0.0
H82 H 0.07862 0.13167 0.56164 0.0
H83 H 0.15675 0.22554 0.54354 0.0
H84 H 0.29296 0.20087 0.64312 0.0
H85 H 0.21707 0.10645 0.66079 0.0
H86 H 0.19613 0.98348 0.71274 0.0
H87 H 0.21893 0.95427 0.77711 0.0
H88 H 0.99869 0.88327 0.77901 0.0
H89 H 0.9766 0.90966 0.71476 0.0
H90 H 0.86742 0.93668 0.65088 0.0
H91 H 0.76054 0.88556 0.62018 0.0
H92 H 0.82639 0.95577 0.51653 0.0
H93 H 0.93636 0.00604 0.54765 0.0
N94 N 0.02793 0.04041 0.60671 0.0
N95 N 0.11053 0.02546 0.6578 0.0
N96 N 1.0021 0.96372 0.65336 0.0
C97 C 0.09233 0.0567 0.62543 0.0
C98 C 0.0661 0.97883 0.6719 0.0
C99 C 0.98243 0.99368 0.62078 0.0
C100 C 0.14112 0.11122 0.61268 0.0
C101 C 0.12558 0.14572 0.5795 0.0
C102 C 0.1702 0.19971 0.56922 0.0
C103 C 0.23125 0.22045 0.59188 0.0
C104 C 0.2473 0.18537 0.62473 0.0
C105 C 0.20311 0.13134 0.63492 0.0
C106 C 0.08399 0.95043 0.70879 0.0
C107 C 0.15299 0.96035 0.72673 0.0
C108 C 0.1661 0.94377 0.76361 0.0
C109 C 0.1102 0.91797 0.78332 0.0
C110 C 0.04307 0.90288 0.7646 0.0
C111 C 0.0302 0.91861 0.72772 0.0
C112 C 0.91152 0.97436 0.6017 0.0
C113 C 0.85897 0.94255 0.62158 0.0
C114 C 0.35957 0.6882 0.90618 0.0
C115 C 0.37244 0.71349 0.94191 0.0
C116 C 0.42886 0.68506 0.96474 0.0
C117 C 0.47221 0.63246 0.95184 0.0
H118 H 0.62166 0.39759 0.96547 0.0
H119 H 0.73119 0.33747 0.98902 0.0
H120 H 0.85529 0.4535 0.91548 0.0
H121 H 0.74451 0.51002 0.89049 0.0
H122 H 0.56004 0.35242 0.82135 0.0
H123 H 0.54454 0.32203 0.75642 0.0
H124 H 0.4495 0.5234 0.73385 0.0
H125 H 0.45982 0.55107 0.7984 0.0
H126 H 0.39093 0.61755 0.8655 0.0
H127 H 0.31557 0.70842 0.88831 0.0
H128 H 0.43967 0.70389 0.99249 0.0
H129 H 0.51545 0.61172 0.97 0.0
N130 N 0.56549 0.52887 0.92104 0.0
N131 N 0.59021 0.45516 0.87213 0.0
N132 N 0.48802 0.52616 0.86755 0.0
C133 C 0.60817 0.48063 0.90623 0.0
C134 C 0.52963 0.47747 0.85279 0.0
C135 C 0.50509 0.55201 0.90156 0.0
C136 C 0.67519 0.45731 0.92601 0.0
C137 C 0.67278 0.41111 0.95507 0.0
C138 C 0.73559 0.37717 0.96863 0.0
C139 C 0.80176 0.38959 0.95352 0.0
C140 C 0.80486 0.44132 0.92693 0.0
C141 C 0.74178 0.47396 0.9128 0.0
C142 C 0.5126 0.45463 0.81472 0.0
C143 C 0.53459 0.38939 0.80243 0.0
C144 C 0.52595 0.3722 0.76528 0.0
C145 C 0.49789 0.42113 0.73974 0.0
C146 C 0.47108 0.48422 0.75261 0.0
C147 C 0.47773 0.50048 0.7897 0.0
C148 C 0.45945 0.60711 0.91596 0.0
C149 C 0.40255 0.63562 0.89332 0.0
C150 C 0.30328 0.40654 0.09975 0.0
C151 C 0.29476 0.40575 0.06147 0.0
C152 C 0.34371 0.44395 0.04206 0.0
C153 C 0.40176 0.47952 0.06063 0.0
H154 H 0.60277 0.61411 0.05507 0.0
H155 H 0.68641 0.70251 0.0351 0.0
H156 H 0.72853 0.77327 0.14639 0.0
H157 H 0.64639 0.68511 0.1665 0.0
H158 H 0.6169 0.58287 0.23012 0.0
H159 H 0.62643 0.55118 0.29405 0.0
H160 H 0.55111 0.34412 0.26487 0.0
H161 H 0.53655 0.37781 0.20074 0.0
H162 H 0.36697 0.43853 0.14766 0.0
H163 H 0.26798 0.37634 0.11561 0.0
H164 H 0.3388 0.44383 0.0125 0.0
H165 H 0.44007 0.50639 0.04499 0.0
N166 N 0.51741 0.55737 0.10527 0.0
N167 N 0.5934 0.55994 0.15949 0.0
N168 N 0.49815 0.48054 0.15295 0.0
C169 C 0.57514 0.585 0.12568 0.0
C170 C 0.55593 0.50722 0.17309 0.0
C171 C 0.47802 0.50544 0.11919 0.0
C172 C 0.61842 0.64249 0.11231 0.0
C173 C 0.62921 0.64913 0.07512 0.0
C174 C 0.67725 0.69919 0.06378 0.0
C175 C 0.71376 0.74414 0.08936 0.0
C176 C 0.70082 0.73923 0.12625 0.0
C177 C 0.654 0.68864 0.13765 0.0
C178 C 0.57405 0.48336 0.21066 0.0
C179 C 0.60334 0.53026 0.23727 0.0
C180 C 0.60948 0.51179 0.27396 0.0
C181 C 0.5877 0.44561 0.28471 0.0
C182 C 0.5657 0.39635 0.2576 0.0
C183 C 0.5576 0.41548 0.22092 0.0
C184 C 0.41244 0.47639 0.09888 0.0
C185 C 0.36117 0.44131 0.11816 0.0
C186 C 0.2358 0.24279 0.01077 0.0
C187 C 0.17041 0.22703 0.02573 0.0
C188 C 0.27186 0.30552 0.01894 0.0
C189 C 0.24414 0.35443 0.04279 0.0
H190 H 0.26259 0.20367 -0.00468 0.0
H191 H 0.32527 0.31224 0.00958 0.0
S192 S 0.06696 0.34389 0.08262 0.0
N193 N 0.07365 0.26933 0.06056 0.0
N194 N 0.14088 0.3882 0.07579 0.0
C195 C 0.17451 0.34273 0.05431 0.0
C196 C 0.13767 0.27869 0.0458 0.0
C197 C 0.2511 0.80885 0.00326 0.0
C198 C 0.23749 0.87174 0.98495 0.0
C199 C 0.2942 0.75768 0.98889 0.0
C200 C 0.3255 0.76789 0.9558 0.0
H201 H 0.22888 0.79951 0.02919 0.0
H202 H 0.30335 0.70988 0.00386 0.0
S203 S 0.31019 0.92573 0.89866 0.0
N204 N 0.26088 0.94308 0.93314 0.0
N205 N 0.34171 0.84638 0.90555 0.0
C206 C 0.31193 0.83051 0.93706 0.0
C207 C 0.26791 0.88268 0.95181 0.0
C208 C 0.8765 0.81855 0.04727 0.0
C209 C 0.86648 0.89044 0.05099 0.0
C210 C 0.82732 0.77138 0.06032 0.0
C211 C 0.76708 0.79477 0.07778 0.0
H212 H 0.92041 0.7988 0.03243 0.0
H213 H 0.83558 0.7163 0.05607 0.0
S214 S 0.71872 0.97796 0.09535 0.0
N215 N 0.7931 0.98298 0.07361 0.0
N216 N 0.70186 0.89425 0.09949 0.0
C217 C 0.7583 0.86651 0.08303 0.0
C218 C 0.80768 0.91446 0.06917 0.0
C219 C 0.92306 0.25711 0.00319 0.0
C220 C 0.94925 0.21988 0.974 0.0
C221 C 0.88048 0.31667 -0.00317 0.0
C222 C 0.86278 0.34047 0.96108 0.0
H223 H 0.92956 0.23651 0.03057 0.0
H224 H 0.857 0.34124 0.01974 0.0
S225 S 0.92723 0.26477 0.87612 0.0
N226 N 0.96229 0.21452 0.909 0.0
N227 N 0.88168 0.32521 0.8966 0.0
C228 C 0.89469 0.30693 0.93214 0.0
C229 C 0.93802 0.24677 0.93874 0.0
C230 C 0.7068 0.76473 0.51102 0.0
C231 C 0.64467 0.74882 0.52889 0.0
C232 C 0.74733 0.82473 0.51991 0.0
C233 C 0.72731 0.87099 0.54719 0.0
H234 H 0.7287 0.7267 0.49299 0.0
H235 H 0.79872 0.83047 0.50822 0.0
S236 S 0.55802 0.86203 0.59445 0.0
N237 N 0.55719 0.79011 0.56955 0.0
N238 N 0.63217 0.90439 0.58586 0.0
C239 C 0.65965 0.86048 0.56136 0.0
C240 C 0.61851 0.79896 0.55229 0.0
C241 C 0.68861 0.34883 0.45483 0.0
C242 C 0.72242 0.40982 0.46873 0.0
C243 C 0.72954 0.29363 0.4421 0.0
C244 C 0.80545 0.29786 0.44283 0.0
H245 H 0.63098 0.34189 0.45601 0.0
H246 H 0.70191 0.24614 0.43327 0.0
S247 S 0.91749 0.45186 0.47014 0.0
N248 N 0.83455 0.47488 0.47809 0.0
N249 N 0.91107 0.37189 0.45362 0.0
C250 C 0.8389 0.36071 0.45404 0.0
C251 C 0.79744 0.41655 0.46705 0.0
C252 C 0.28166 0.39693 0.5565 0.0
C253 C 0.3572 0.3935 0.5559 0.0
C254 C 0.24198 0.34166 0.56923 0.0
C255 C 0.27611 0.28039 0.58178 0.0
H256 H 0.25252 0.44179 0.54559 0.0
H257 H 0.18378 0.34638 0.56841 0.0
S258 S 0.47338 0.24646 0.58755 0.0
N259 N 0.46516 0.32521 0.57033 0.0
N260 N 0.39071 0.22083 0.59449 0.0
C261 C 0.35213 0.27752 0.58309 0.0
C262 C 0.39266 0.33421 0.57011 0.0
C263 C 0.34493 0.75457 0.51447 0.0
C264 C 0.40996 0.74041 0.49867 0.0
C265 C 0.30451 0.81406 0.50528 0.0
C266 C 0.32734 0.86133 0.47959 0.0
H267 H 0.32155 0.71592 0.5313 0.0
H268 H 0.25156 0.81892 0.51546 0.0
S269 S 0.5024 0.85606 0.43733 0.0
N270 N 0.50176 0.784 0.46138 0.0
N271 N 0.42622 0.89674 0.44409 0.0
C272 C 0.39675 0.8521 0.46719 0.0
C273 C 0.43809 0.79137 0.47679 0.0
C274 C 0.96243 0.95748 0.13646 0.0
C275 C 0.03327 0.9428 0.12819 0.0
C276 C 0.94056 0.94546 0.1716 0.0
C277 C 0.98916 0.91895 0.1995 0.0
H278 H 0.92585 0.9837 0.1168 0.0
H279 H 0.88697 0.9617 0.17767 0.0
S280 S 0.17713 0.86097 0.18867 0.0
N281 N 0.14816 0.8906 0.1482 0.0
N282 N 0.10889 0.87048 0.21441 0.0
C283 C 0.05794 0.89781 0.19013 0.0
C284 C 0.07961 0.90942 0.15442 0.0
C285 C 0.07162 0.86776 0.87895 0.0
C286 C 0.08893 0.92906 0.89863 0.0
C287 C 0.08608 0.86122 0.84222 0.0
C288 C 0.11675 0.91649 0.82384 0.0
H289 H 0.04202 0.82676 0.89124 0.0
H290 H 0.06805 0.81475 0.82736 0.0
S291 S 0.17628 0.08605 0.86477 0.0
N292 N 0.14301 0.04363 0.8985 0.0
N293 N 0.16899 0.03255 0.82933 0.0
C294 C 0.13935 0.97595 0.84424 0.0
C295 C 0.12532 0.98207 0.88169 0.0
C296 C 0.47026 0.45264 0.63825 0.0
C297 C 0.54 0.44121 0.62729 0.0
C298 C 0.45406 0.43857 0.6741 0.0
C299 C 0.50727 0.41322 0.70009 0.0
H300 H 0.42984 0.47777 0.6201 0.0
H301 H 0.40118 0.45258 0.68226 0.0
S302 S 0.6936 0.36087 0.68185 0.0
N303 N 0.65825 0.39117 0.64262 0.0
N304 N 0.62941 0.36764 0.71025 0.0
C305 C 0.57469 0.39443 0.68802 0.0
C306 C 0.5907 0.40798 0.65152 0.0
C307 C 0.60817 0.46787 0.38741 0.0
C308 C 0.53903 0.44948 0.39703 0.0
C309 C 0.62676 0.45995 0.35133 0.0
C310 C 0.57672 0.43359 0.3238 0.0
H311 H 0.64592 0.49375 0.40699 0.0
H312 H 0.67877 0.47909 0.34442 0.0
S313 S 0.39356 0.36552 0.33731 0.0
N314 N 0.42506 0.39315 0.37808 0.0
N315 N 0.45841 0.3806 0.31018 0.0
C316 C 0.51021 0.40841 0.33416 0.0
C317 C 0.49172 0.41596 0.37084 0.0
loop_
_geom_bond_atom_site_label_1
_geom_bond_atom_site_label_2
_geom_bond_distance
_geom_bond_site_symmetry_2
_ccdc_geom_bond_type
Zn0 O6 1.920 1_545 S
Zn0 O12 1.898 . S
Zn0 O15 1.905 1_545 S
Zn1 O9 1.905 . S
Zn1 O10 1.898 1_545 S
Zn1 O18 1.920 1_545 S
Zn2 O5 2.080 1_445 S
Zn2 O8 2.114 . S
Zn2 O11 2.120 1_545 S
Zn2 O13 2.120 1_455 S
Zn2 O14 2.114 1_554 S
Zn2 O17 2.080 . S
C3 O8 1.166 . S
C3 O9 1.182 . S
C4 O10 1.167 . S
C4 O11 1.299 . S
O5 Zn2 2.080 1_665 S
O5 C19 1.305 . S
O6 Zn0 1.920 1_565 S
O6 C19 1.234 1_556 S
C7 O12 1.167 . S
C7 O13 1.299 1_556 S
O8 Zn2 2.114 . S
O8 C3 1.166 . S
O9 Zn1 1.905 . S
O9 C3 1.182 . S
O10 Zn1 1.898 1_565 S
O10 C4 1.167 . S
O11 Zn2 2.120 1_565 S
O11 C4 1.299 . S
O12 Zn0 1.898 . S
O12 C7 1.167 . S
O13 Zn2 2.120 1_655 S
O13 C7 1.299 1_554 S
O14 Zn2 2.114 1_556 S
O14 C16 1.166 1_445 S
O15 Zn0 1.905 1_565 S
O15 C16 1.182 . S
C16 O14 1.166 1_665 S
C16 O15 1.182 . S
O17 Zn2 2.080 . S
O17 C20 1.305 1_545 S
O18 Zn1 1.920 1_565 S
O18 C20 1.234 . S
C19 O5 1.305 . S
C19 O6 1.234 1_554 S
C20 O17 1.305 1_565 S
C20 O18 1.234 . S
Zn21 O27 1.920 . S
Zn21 O33 1.898 . S
Zn21 O36 1.905 . S
Zn22 O30 1.905 . S
Zn22 O31 1.898 . S
Zn22 O39 1.920 . S
Zn23 O26 2.080 . S
Zn23 O29 2.114 . S
Zn23 O32 2.120 . S
Zn23 O34 2.120 . S
Zn23 O35 2.114 . S
Zn23 O38 2.080 . S
C24 O29 1.166 . S
C24 O30 1.182 . S
C25 O31 1.167 . S
C25 O32 1.299 . S
O26 Zn23 2.080 . S
O26 C40 1.305 . S
O27 Zn21 1.920 . S
O27 C40 1.234 . S
C28 O33 1.167 . S
C28 O34 1.299 . S
O29 Zn23 2.114 . S
O29 C24 1.166 . S
O30 Zn22 1.905 . S
O30 C24 1.182 . S
O31 Zn22 1.898 . S
O31 C25 1.167 . S
O32 Zn23 2.120 . S
O32 C25 1.299 . S
O33 Zn21 1.898 . S
O33 C28 1.167 . S
O34 Zn23 2.120 . S
O34 C28 1.299 . S
O35 Zn23 2.114 . S
O35 C37 1.166 . S
O36 Zn21 1.905 . S
O36 C37 1.182 . S
C37 O35 1.166 . S
C37 O36 1.182 . S
O38 Zn23 2.080 . S
O38 C41 1.305 . S
O39 Zn22 1.920 . S
O39 C41 1.234 . S
C40 O26 1.305 . S
C40 O27 1.234 . S
C41 O38 1.305 . S
C41 O39 1.234 . S
C42 C43 1.384 . S
C42 H55 0.947 . S
C42 C77 1.382 . S
C43 C42 1.384 . S
C43 C44 1.378 . S
C44 C43 1.378 . S
C44 C45 1.378 . S
C44 H56 0.952 . S
C45 C44 1.378 . S
C45 H57 0.950 1_655 S
C45 C76 1.383 . S
H46 C65 0.947 . S
H47 C66 0.946 . S
H48 C68 0.953 . S
H49 C69 0.945 . S
H50 C71 0.952 . S
H51 C72 0.949 . S
H52 C74 0.950 . S
H53 C75 0.948 . S
H54 C77 0.951 . S
H55 C42 0.947 . S
H56 C44 0.952 . S
H57 C45 0.950 1_455 S
N58 C61 1.382 1_545 S
N58 C63 1.363 . S
N59 C61 1.371 . S
N59 C62 1.372 1_565 S
N60 C62 1.361 . S
N60 C63 1.377 . S
C61 N58 1.382 1_565 S
C61 N59 1.371 . S
C61 C64 1.480 . S
C62 N59 1.372 1_545 S
C62 N60 1.361 . S
C62 C70 1.457 . S
C63 N58 1.363 . S
C63 N60 1.377 . S
C63 C76 1.479 1_455 S
C64 C61 1.480 . S
C64 C65 1.383 . S
C64 C69 1.385 . S
C65 H46 0.947 . S
C65 C64 1.383 . S
C65 C66 1.388 . S
C66 H47 0.946 . S
C66 C65 1.388 . S
C66 C67 1.384 . S
C67 C66 1.384 . S
C67 C68 1.377 . S
C68 H48 0.953 . S
C68 C67 1.377 . S
C68 C69 1.369 . S
C69 H49 0.945 . S
C69 C64 1.385 . S
C69 C68 1.369 . S
C70 C62 1.457 . S
C70 C71 1.372 1_545 S
C70 C75 1.364 . S
C71 H50 0.952 . S
C71 C70 1.372 1_565 S
C71 C72 1.389 . S
C72 H51 0.949 . S
C72 C71 1.389 . S
C72 C73 1.387 1_565 S
C73 C72 1.387 1_545 S
C73 C74 1.372 . S
C74 H52 0.950 . S
C74 C73 1.372 . S
C74 C75 1.379 . S
C75 H53 0.948 . S
C75 C70 1.364 . S
C75 C74 1.379 . S
C76 C45 1.383 . S
C76 C63 1.479 1_655 S
C76 C77 1.398 . S
C77 C42 1.382 . S
C77 H54 0.951 . S
C77 C76 1.398 . S
C78 C79 1.384 . S
C78 H91 0.947 . S
C78 C113 1.382 . S
C79 C78 1.384 . S
C79 C80 1.378 . S
C80 C79 1.378 . S
C80 C81 1.378 . S
C80 H92 0.952 . S
C81 C80 1.378 . S
C81 H93 0.950 . S
C81 C112 1.383 . S
H82 C101 0.947 . S
H83 C102 0.946 . S
H84 C104 0.953 . S
H85 C105 0.945 . S
H86 C107 0.952 . S
H87 C108 0.949 . S
H88 C110 0.950 . S
H89 C111 0.948 . S
H90 C113 0.951 . S
H91 C78 0.947 . S
H92 C80 0.952 . S
H93 C81 0.950 . S
N94 C97 1.382 . S
N94 C99 1.363 1_445 S
N95 C97 1.371 . S
N95 C98 1.372 . S
N96 C98 1.361 1_665 S
N96 C99 1.377 . S
C97 N94 1.382 . S
C97 N95 1.371 . S
C97 C100 1.480 . S
C98 N95 1.372 . S
C98 N96 1.361 1_445 S
C98 C106 1.457 . S
C99 N94 1.363 1_665 S
C99 N96 1.377 . S
C99 C112 1.479 . S
C100 C97 1.480 . S
C100 C101 1.383 . S
C100 C105 1.385 . S
C101 H82 0.947 . S
C101 C100 1.383 . S
C101 C102 1.388 . S
C102 H83 0.946 . S
C102 C101 1.388 . S
C102 C103 1.384 . S
C103 C102 1.384 . S
C103 C104 1.377 . S
C104 H84 0.953 . S
C104 C103 1.377 . S
C104 C105 1.369 . S
C105 H85 0.945 . S
C105 C100 1.385 . S
C105 C104 1.369 . S
C106 C98 1.457 . S
C106 C107 1.372 . S
C106 C111 1.364 1_445 S
C107 H86 0.952 . S
C107 C106 1.372 . S
C107 C108 1.389 . S
C108 H87 0.949 . S
C108 C107 1.389 . S
C108 C109 1.387 . S
C109 C108 1.387 . S
C109 C110 1.372 1_445 S
C110 H88 0.950 . S
C110 C109 1.372 1_665 S
C110 C111 1.379 . S
C111 H89 0.948 . S
C111 C106 1.364 1_665 S
C111 C110 1.379 . S
C112 C81 1.383 . S
C112 C99 1.479 . S
C112 C113 1.398 . S
C113 C78 1.382 . S
C113 H90 0.951 . S
C113 C112 1.398 . S
C114 C115 1.384 . S
C114 H127 0.947 . S
C114 C149 1.382 . S
C115 C114 1.384 . S
C115 C116 1.390 . S
C116 C115 1.390 . S
C116 C117 1.390 . S
C116 H128 0.929 1_556 S
C117 C116 1.390 . S
C117 H129 0.950 . S
C117 C148 1.383 . S
H118 C137 0.947 . S
H119 C138 0.947 1_554 S
H120 C140 0.953 . S
H121 C141 0.945 . S
H122 C143 0.952 . S
H123 C144 0.949 . S
H124 C146 0.950 . S
H125 C147 0.948 . S
H126 C149 0.951 . S
H127 C114 0.947 . S
H128 C116 0.929 1_554 S
H129 C117 0.950 . S
N130 C133 1.382 . S
N130 C135 1.363 . S
N131 C133 1.371 . S
N131 C134 1.372 . S
N132 C134 1.361 . S
N132 C135 1.377 . S
C133 N130 1.382 . S
C133 N131 1.371 . S
C133 C136 1.480 . S
C134 N131 1.372 . S
C134 N132 1.361 . S
C134 C142 1.457 . S
C135 N130 1.363 . S
C135 N132 1.377 . S
C135 C148 1.479 . S
C136 C133 1.480 . S
C136 C137 1.383 . S
C136 C141 1.385 . S
C137 H118 0.947 . S
C137 C136 1.383 . S
C137 C138 1.388 . S
C138 H119 0.947 1_556 S
C138 C137 1.388 . S
C138 C139 1.383 . S
C139 C138 1.383 . S
C139 C140 1.377 . S
C140 H120 0.953 . S
C140 C139 1.377 . S
C140 C141 1.369 . S
C141 H121 0.945 . S
C141 C136 1.385 . S
C141 C140 1.369 . S
C142 C134 1.457 . S
C142 C143 1.372 . S
C142 C147 1.364 . S
C143 H122 0.952 . S
C143 C142 1.372 . S
C143 C144 1.389 . S
C144 H123 0.949 . S
C144 C143 1.389 . S
C144 C145 1.387 . S
C145 C144 1.387 . S
C145 C146 1.372 . S
C146 H124 0.950 . S
C146 C145 1.372 . S
C146 C147 1.379 . S
C147 H125 0.948 . S
C147 C142 1.364 . S
C147 C146 1.379 . S
C148 C117 1.383 . S
C148 C135 1.479 . S
C148 C149 1.398 . S
C149 C114 1.382 . S
C149 H126 0.951 . S
C149 C148 1.398 . S
C150 C151 1.384 . S
C150 H163 0.947 . S
C150 C185 1.382 . S
C151 C150 1.384 . S
C151 C152 1.378 . S
C152 C151 1.378 . S
C152 C153 1.378 . S
C152 H164 0.952 . S
C153 C152 1.378 . S
C153 H165 0.950 . S
C153 C184 1.383 . S
H154 C173 0.947 . S
H155 C174 0.946 . S
H156 C176 0.953 . S
H157 C177 0.945 . S
H158 C179 0.952 . S
H159 C180 0.949 . S
H160 C182 0.950 . S
H161 C183 0.948 . S
H162 C185 0.951 . S
H163 C150 0.947 . S
H164 C152 0.952 . S
H165 C153 0.950 . S
N166 C169 1.382 . S
N166 C171 1.363 . S
N167 C169 1.371 . S
N167 C170 1.372 . S
N168 C170 1.361 . S
N168 C171 1.377 . S
C169 N166 1.382 . S
C169 N167 1.371 . S
C169 C172 1.480 . S
C170 N167 1.372 . S
C170 N168 1.361 . S
C170 C178 1.457 . S
C171 N166 1.363 . S
C171 N168 1.377 . S
C171 C184 1.479 . S
C172 C169 1.480 . S
C172 C173 1.383 . S
C172 C177 1.385 . S
C173 H154 0.947 . S
C173 C172 1.383 . S
C173 C174 1.388 . S
C174 H155 0.946 . S
C174 C173 1.388 . S
C174 C175 1.384 . S
C175 C174 1.384 . S
C175 C176 1.377 . S
C176 H156 0.953 . S
C176 C175 1.377 . S
C176 C177 1.369 . S
C177 H157 0.945 . S
C177 C172 1.385 . S
C177 C176 1.369 . S
C178 C170 1.457 . S
C178 C179 1.372 . S
C178 C183 1.364 . S
C179 H158 0.952 . S
C179 C178 1.372 . S
C179 C180 1.389 . S
C180 H159 0.949 . S
C180 C179 1.389 . S
C180 C181 1.387 . S
C181 C180 1.387 . S
C181 C182 1.372 . S
C182 H160 0.950 . S
C182 C181 1.372 . S
C182 C183 1.379 . S
C183 H161 0.948 . S
C183 C178 1.364 . S
C183 C182 1.379 . S
C184 C153 1.383 . S
C184 C171 1.479 . S
C184 C185 1.398 . S
C185 C150 1.382 . S
C185 H162 0.951 . S
C185 C184 1.398 . S
C186 C187 1.369 . S
C186 C188 1.419 . S
C186 H190 0.930 . S
C187 C186 1.369 . S
C187 C196 1.429 . S
C188 C186 1.419 . S
C188 C189 1.363 . S
C188 H191 0.929 . S
C189 C188 1.363 . S
C189 C195 1.428 . S
H190 C186 0.930 . S
H191 C188 0.929 . S
S192 N193 1.613 . S
S192 N194 1.610 . S
N193 S192 1.613 . S
N193 C196 1.350 . S
N194 S192 1.610 . S
N194 C195 1.351 . S
C195 C189 1.428 . S
C195 N194 1.351 . S
C195 C196 1.434 . S
C196 C187 1.429 . S
C196 N193 1.350 . S
C196 C195 1.434 . S
C197 C198 1.369 1_554 S
C197 C199 1.419 . S
C197 H201 0.930 . S
C198 C197 1.369 1_556 S
C198 C207 1.429 . S
C199 C197 1.419 . S
C199 C200 1.363 1_554 S
C199 H202 0.929 . S
C200 C199 1.363 1_556 S
C200 C206 1.428 . S
H201 C197 0.930 . S
H202 C199 0.929 . S
S203 N204 1.613 . S
S203 N205 1.610 . S
N204 S203 1.613 . S
N204 C207 1.350 . S
N205 S203 1.610 . S
N205 C206 1.351 . S
C206 C200 1.428 . S
C206 N205 1.351 . S
C206 C207 1.434 . S
C207 C198 1.429 . S
C207 N204 1.350 . S
C207 C206 1.434 . S
C208 C209 1.369 . S
C208 C210 1.419 . S
C208 H212 0.930 1_554 S
C209 C208 1.369 . S
C209 C218 1.429 . S
C210 C208 1.419 . S
C210 C211 1.363 . S
C210 H213 0.929 1_554 S
C211 C210 1.363 . S
C211 C217 1.428 . S
H212 C208 0.930 1_556 S
H213 C210 0.929 1_556 S
S214 N215 1.613 . S
S214 N216 1.610 . S
N215 S214 1.613 . S
N215 C218 1.350 . S
N216 S214 1.610 . S
N216 C217 1.351 . S
C217 C211 1.428 . S
C217 N216 1.351 . S
C217 C218 1.434 . S
C218 C209 1.429 . S
C218 N215 1.350 . S
C218 C217 1.434 . S
C219 C220 1.369 . S
C219 C221 1.419 . S
C219 H223 0.930 . S
C220 C219 1.369 . S
C220 C229 1.429 1_554 S
C221 C219 1.419 . S
C221 C222 1.363 1_554 S
C221 H224 0.929 . S
C222 C221 1.363 1_556 S
C222 C228 1.428 . S
H223 C219 0.930 . S
H224 C221 0.929 . S
S225 N226 1.613 . S
S225 N227 1.610 . S
N226 S225 1.613 . S
N226 C229 1.350 . S
N227 S225 1.610 . S
N227 C228 1.351 . S
C228 C222 1.428 . S
C228 N227 1.351 . S
C228 C229 1.434 . S
C229 C220 1.429 1_556 S
C229 N226 1.350 . S
C229 C228 1.434 . S
C230 C231 1.369 . S
C230 C232 1.419 . S
C230 H234 0.930 . S
C231 C230 1.369 . S
C231 C240 1.429 . S
C232 C230 1.419 . S
C232 C233 1.363 . S
C232 H235 0.929 . S
C233 C232 1.363 . S
C233 C239 1.428 . S
H234 C230 0.930 . S
H235 C232 0.929 . S
S236 N237 1.613 . S
S236 N238 1.610 . S
N237 S236 1.613 . S
N237 C240 1.350 . S
N238 S236 1.610 . S
N238 C239 1.351 . S
C239 C233 1.428 . S
C239 N238 1.351 . S
C239 C240 1.434 . S
C240 C231 1.429 . S
C240 N237 1.350 . S
C240 C239 1.434 . S
C241 C242 1.369 . S
C241 C243 1.419 . S
C241 H245 0.930 . S
C242 C241 1.369 . S
C242 C251 1.429 . S
C243 C241 1.419 . S
C243 C244 1.363 . S
C243 H246 0.929 . S
C244 C243 1.363 . S
C244 C250 1.428 . S
H245 C241 0.930 . S
H246 C243 0.929 . S
S247 N248 1.613 . S
S247 N249 1.610 . S
N248 S247 1.613 . S
N248 C251 1.350 . S
N249 S247 1.610 . S
N249 C250 1.351 . S
C250 C244 1.428 . S
C250 N249 1.351 . S
C250 C251 1.434 . S
C251 C242 1.429 . S
C251 N248 1.350 . S
C251 C250 1.434 . S
C252 C253 1.369 . S
C252 C254 1.419 . S
C252 H256 0.930 . S
C253 C252 1.369 . S
C253 C262 1.429 . S
C254 C252 1.419 . S
C254 C255 1.363 . S
C254 H257 0.929 . S
C255 C254 1.363 . S
C255 C261 1.428 . S
H256 C252 0.930 . S
H257 C254 0.929 . S
S258 N259 1.613 . S
S258 N260 1.610 . S
N259 S258 1.613 . S
N259 C262 1.350 . S
N260 S258 1.610 . S
N260 C261 1.351 . S
C261 C255 1.428 . S
C261 N260 1.351 . S
C261 C262 1.434 . S
C262 C253 1.429 . S
C262 N259 1.350 . S
C262 C261 1.434 . S
C263 C264 1.369 . S
C263 C265 1.419 . S
C263 H267 0.930 . S
C264 C263 1.369 . S
C264 C273 1.429 . S
C265 C263 1.419 . S
C265 C266 1.363 . S
C265 H268 0.929 . S
C266 C265 1.363 . S
C266 C272 1.428 . S
H267 C263 0.930 . S
H268 C265 0.929 . S
S269 N270 1.613 . S
S269 N271 1.610 . S
N270 S269 1.613 . S
N270 C273 1.350 . S
N271 S269 1.610 . S
N271 C272 1.351 . S
C272 C266 1.428 . S
C272 N271 1.351 . S
C272 C273 1.434 . S
C273 C264 1.429 . S
C273 N270 1.350 . S
C273 C272 1.434 . S
C274 C275 1.369 1_545 S
C274 C276 1.419 . S
C274 H278 0.930 1_455 S
C275 C274 1.369 1_565 S
C275 C284 1.429 . S
C276 C274 1.419 . S
C276 C277 1.363 . S
C276 H279 0.929 1_455 S
C277 C276 1.363 . S
C277 C283 1.428 1_545 S
H278 C274 0.930 1_655 S
H279 C276 0.929 1_655 S
S280 N281 1.613 . S
S280 N282 1.610 . S
N281 S280 1.613 . S
N281 C284 1.350 . S
N282 S280 1.610 . S
N282 C283 1.351 . S
C283 C277 1.428 1_565 S
C283 N282 1.351 . S
C283 C284 1.434 . S
C284 C275 1.429 . S
C284 N281 1.350 . S
C284 C283 1.434 . S
C285 C286 1.369 1_655 S
C285 C287 1.419 . S
C285 H289 0.930 . S
C286 C285 1.369 1_455 S
C286 C295 1.429 1_565 S
C287 C285 1.419 . S
C287 C288 1.363 1_665 S
C287 H290 0.929 . S
C288 C287 1.363 1_445 S
C288 C294 1.428 . S
H289 C285 0.930 . S
H290 C287 0.929 . S
S291 N292 1.613 . S
S291 N293 1.610 . S
N292 S291 1.613 . S
N292 C295 1.350 . S
N293 S291 1.610 . S
N293 C294 1.351 . S
C294 C288 1.428 . S
C294 N293 1.351 . S
C294 C295 1.434 . S
C295 C286 1.429 1_545 S
C295 N292 1.350 . S
C295 C294 1.434 . S
C296 C297 1.369 . S
C296 C298 1.419 . S
C296 H300 0.930 . S
C297 C296 1.369 . S
C297 C306 1.429 . S
C298 C296 1.419 . S
C298 C299 1.363 . S
C298 H301 0.929 . S
C299 C298 1.363 . S
C299 C305 1.428 . S
H300 C296 0.930 . S
H301 C298 0.929 . S
S302 N303 1.613 . S
S302 N304 1.610 . S
N303 S302 1.613 . S
N303 C306 1.350 . S
N304 S302 1.610 . S
N304 C305 1.351 . S
C305 C299 1.428 . S
C305 N304 1.351 . S
C305 C306 1.434 . S
C306 C297 1.429 . S
C306 N303 1.350 . S
C306 C305 1.434 . S
C307 C308 1.369 . S
C307 C309 1.419 . S
C307 H311 0.930 . S
C308 C307 1.369 . S
C308 C317 1.429 . S
C309 C307 1.419 . S
C309 C310 1.363 . S
C309 H312 0.929 . S
C310 C309 1.363 . S
C310 C316 1.428 . S
H311 C307 0.930 . S
H312 C309 0.929 . S
S313 N314 1.613 . S
S313 N315 1.610 . S
N314 S313 1.613 . S
N314 C317 1.350 . S
N315 S313 1.610 . S
N315 C316 1.351 . S
C316 C310 1.428 . S
C316 N315 1.351 . S
C316 C317 1.434 . S
C317 C308 1.429 . S
C317 N314 1.350 . S
C317 C316 1.434 . S
C189 C151 1.334 . S
C187 C3 1.244 . S
C198 C4 1.495 1_556 S
C200 C115 1.622 . S
C209 C19 1.521 . S
C211 C175 1.605 . S
C220 C7 1.232 1_554 S
C222 C139 1.316 . S
C231 C37 1.238 . S
C233 C79 1.331 . S
C242 C28 1.491 . S
C244 C43 1.623 . S
C255 C103 1.606 . S
C253 C41 1.518 . S
C266 C67 1.317 . S
C264 C25 1.239 . S
C275 C20 1.322 . S
C277 C73 1.518 . S
C286 C16 1.361 1_455 S
C288 C109 1.528 . S
C299 C145 1.518 . S
C297 C40 1.321 . S
C308 C24 1.361 . S
C310 C181 1.524 . S
