# Generated by pormake.
# Topology rtl, (3,6)-cn, num edge types: 1
# Building blocks:
#     Node 0, Type 0, BuildingBlock: CUQRIR_clean_linker_1, # of connection points: 3
#     Node 1, Type 0, BuildingBlock: CUQRIR_clean_linker_1, # of connection points: 3
#     Node 2, Type 0, BuildingBlock: CUQRIR_clean_linker_1, # of connection points: 3
#     Node 3, Type 0, BuildingBlock: CUQRIR_clean_linker_1, # of connection points: 3
#     Node 4, Type 1, BuildingBlock: VOLQOD_clean_sbu_1, # of connection points: 6
#     Node 5, Type 1, BuildingBlock: VOLQOD_clean_sbu_1, # of connection points: 6
#     Edge 6, Type (0, 1), BuildingBlock: KIFKEQ_clean_linker_1, # of connection points: 2
#     Edge 7, Type (0, 1), BuildingBlock: KIFKEQ_clean_linker_1, # of connection points: 2
#     Edge 8, Type (0, 1), BuildingBlock: KIFKEQ_clean_linker_1, # of connection points: 2
#     Edge 9, Type (0, 1), BuildingBlock: KIFKEQ_clean_linker_1, # of connection points: 2
#     Edge 10, Type (0, 1), BuildingBlock: KIFKEQ_clean_linker_1, # of connection points: 2
#     Edge 11, Type (0, 1), BuildingBlock: KIFKEQ_clean_linker_1, # of connection points: 2
#     Edge 12, Type (0, 1), BuildingBlock: KIFKEQ_clean_linker_1, # of connection points: 2
#     Edge 13, Type (0, 1), BuildingBlock: KIFKEQ_clean_linker_1, # of connection points: 2
#     Edge 14, Type (0, 1), BuildingBlock: KIFKEQ_clean_linker_1, # of connection points: 2
#     Edge 15, Type (0, 1), BuildingBlock: KIFKEQ_clean_linker_1, # of connection points: 2
#     Edge 16, Type (0, 1), BuildingBlock: KIFKEQ_clean_linker_1, # of connection points: 2
#     Edge 17, Type (0, 1), BuildingBlock: KIFKEQ_clean_linker_1, # of connection points: 2
# Relax obj value: 0.040
# Max RMSD: 0.143
# Mean RMSD: 0.104
data_MOF--net-rtl--node1-VOLQOD_clean_sbu_1--node2-CUQRIR_clean_linker_1--edge1-KIFKEQ_clean_linker_1
_symmetry_space_group_name_H-M    P1
_symmetry_Int_Tables_number       1
_symmetry_cell_setting            triclinic
loop_
_symmetry_equiv_pos_as_xyz
'x, y, z'
_cell_length_a     36.324569
_cell_length_b     36.604908
_cell_length_c     20.346976
_cell_angle_alpha  90.092389
_cell_angle_beta   90.384983
_cell_angle_gamma 90.007875
loop_
_atom_site_label
_atom_site_type_symbol
_atom_site_fract_x
_atom_site_fract_y
_atom_site_fract_z
_atom_type_partial_charge
C0 C 0.21423 0.78238 0.95634 0.0
N1 N 0.1878 0.80576 0.97664 0.0
N2 N 0.22649 0.76182 0.00723 0.0
C3 C 0.22802 0.77987 0.88692 0.0
C4 C 0.20639 0.77337 0.05908 0.0
N5 N 0.18256 0.79983 0.04025 0.0
C6 C 0.20992 0.75899 0.12806 0.0
H7 H 0.24472 0.755 0.87862 0.0
H8 H 0.24537 0.80409 0.87651 0.0
H9 H 0.20445 0.78023 0.85193 0.0
H10 H 0.23523 0.74254 0.13516 0.0
H11 H 0.18582 0.74142 0.13878 0.0
H12 H 0.20981 0.78199 0.16366 0.0
C13 C 0.70821 0.71683 0.55775 0.0
N14 N 0.68486 0.69018 0.53769 0.0
N15 N 0.72778 0.72975 0.50632 0.0
C16 C 0.71387 0.72824 0.62817 0.0
C17 C 0.71562 0.70981 0.45438 0.0
N18 N 0.68978 0.68552 0.47363 0.0
C19 C 0.72686 0.716 0.38423 0.0
H20 H 0.69416 0.75042 0.63999 0.0
H21 H 0.74224 0.73857 0.63645 0.0
H22 H 0.70868 0.70509 0.662 0.0
H23 H 0.7498 0.69719 0.37217 0.0
H24 H 0.73633 0.7445 0.37671 0.0
H25 H 0.70366 0.71022 0.35002 0.0
C26 C 0.77755 0.21422 0.05787 0.0
N27 N 0.8025 0.18879 0.03903 0.0
N28 N 0.75963 0.22811 0.00493 0.0
C29 C 0.76808 0.22303 0.12805 0.0
C30 C 0.77425 0.21 0.95326 0.0
N31 N 0.80007 0.18593 0.97401 0.0
C32 C 0.76512 0.21755 0.88233 0.0
H33 H 0.77251 0.19897 0.16024 0.0
H34 H 0.739 0.23196 0.13214 0.0
H35 H 0.78602 0.24558 0.14567 0.0
H36 H 0.75567 0.24614 0.87562 0.0
H37 H 0.74268 0.19892 0.86634 0.0
H38 H 0.78933 0.21258 0.85059 0.0
C39 C 0.27514 0.28159 0.44672 0.0
N40 N 0.30117 0.30559 0.4671 0.0
N41 N 0.26213 0.26217 0.49825 0.0
C42 C 0.26453 0.2752 0.37603 0.0
C43 C 0.28138 0.27515 0.55059 0.0
N44 N 0.30536 0.30128 0.53147 0.0
C45 C 0.27472 0.26442 0.62088 0.0
H46 H 0.24177 0.29405 0.36267 0.0
H47 H 0.25502 0.24671 0.3682 0.0
H48 H 0.28805 0.28079 0.34302 0.0
H49 H 0.29387 0.242 0.63436 0.0
H50 H 0.24607 0.25471 0.62769 0.0
H51 H 0.27996 0.28776 0.65454 0.0
O52 O 0.91267 0.95926 0.50606 0.0
Zn53 Zn 0.94164 0.00638 0.5064 0.0
O54 O -0.00531 -0.0035 0.50691 0.0
Zn55 Zn 0.01739 0.01919 0.58454 0.0
Zn56 Zn 0.0036 0.94372 0.50957 0.0
Zn57 Zn 0.01627 0.01681 0.42696 0.0
O58 O 0.05501 0.05673 0.55818 0.0
O59 O 0.05436 0.05511 0.44902 0.0
O60 O 0.92692 0.03499 0.5868 0.0
O61 O 0.9793 0.04367 0.64151 0.0
O62 O 0.04316 0.98197 0.64123 0.0
O63 O 0.03215 0.9292 0.59098 0.0
O64 O 0.03197 0.92681 0.42985 0.0
O65 O 0.92625 0.03543 0.42639 0.0
O66 O 0.04022 0.97768 0.37255 0.0
O67 O 0.97788 0.04033 0.36928 0.0
C68 C 0.92197 0.92571 0.50839 0.0
C69 C 0.06679 0.06802 0.50297 0.0
C70 C 0.04624 0.94736 0.63832 0.0
C71 C 0.94458 0.0477 0.63609 0.0
C72 C 0.04429 0.94335 0.3795 0.0
C73 C 0.94356 0.04618 0.37571 0.0
O74 O 0.95569 0.9162 0.51044 0.0
O75 O 0.57582 0.45797 1.00015 0.0
Zn76 Zn 0.54766 0.50546 1.001 0.0
O77 O 0.49442 0.49652 1.00256 0.0
Zn78 Zn 0.47165 0.51804 0.92415 0.0
Zn79 Zn 0.48486 0.44384 0.00404 0.0
Zn80 Zn 0.47322 0.51882 0.08118 0.0
O81 O 0.43284 0.55495 0.94847 0.0
O82 O 0.43621 0.55764 0.05735 0.0
O83 O 0.56232 0.5339 0.92017 0.0
O84 O 0.50921 0.54389 0.86864 0.0
O85 O 0.44814 0.47937 0.86711 0.0
O86 O 0.45585 0.42813 0.92383 0.0
O87 O 0.45666 0.42907 0.08498 0.0
O88 O 0.5641 0.53373 0.08157 0.0
O89 O 0.44717 0.48158 0.13684 0.0
O90 O 0.51257 0.54162 0.13798 0.0
C91 C 0.56612 0.42454 1.002 0.0
C92 C 0.4224 0.5684 0.00304 0.0
C93 C 0.44375 0.44504 0.87342 0.0
C94 C 0.54402 0.54749 0.87247 0.0
C95 C 0.44333 0.44708 0.13288 0.0
C96 C 0.5472 0.54569 0.13192 0.0
O97 O 0.53231 0.41546 0.0041 0.0
H98 H 0.26758 0.19482 0.55049 0.0
H99 H 0.19422 0.26651 0.44466 0.0
H100 H 0.21994 0.14743 0.55168 0.0
H101 H 0.14668 0.21896 0.44424 0.0
H102 H 0.08925 0.1086 0.3977 0.0
H103 H 0.13689 0.15568 0.39579 0.0
H104 H 0.15716 0.13921 0.60294 0.0
H105 H 0.10958 0.09219 0.60518 0.0
C106 C 0.24114 0.20033 0.52772 0.0
C107 C 0.23435 0.23415 0.49764 0.0
C108 C 0.21397 0.17334 0.52829 0.0
C109 C 0.17964 0.17956 0.49808 0.0
C110 C 0.17303 0.2133 0.46729 0.0
C111 C 0.20011 0.24043 0.46742 0.0
C112 C 0.10387 0.11498 0.44285 0.0
C113 C 0.0956 0.09662 0.5016 0.0
C114 C 0.13099 0.14207 0.44177 0.0
C115 C 0.1507 0.15103 0.49919 0.0
C116 C 0.1426 0.1326 0.55782 0.0
C117 C 0.11521 0.10583 0.55912 0.0
H118 H 0.22256 0.69636 0.94811 0.0
H119 H 0.2931 0.7657 0.06452 0.0
H120 H 0.27042 0.649 0.94654 0.0
H121 H 0.34127 0.71866 0.0635 0.0
H122 H 0.39899 0.60922 0.10752 0.0
H123 H 0.35138 0.65615 0.10822 0.0
H124 H 0.33311 0.63969 0.90035 0.0
H125 H 0.38054 0.59253 0.89944 0.0
C126 C 0.2485 0.70125 0.97314 0.0
C127 C 0.25453 0.73425 0.00645 0.0
C128 C 0.27585 0.67442 0.97214 0.0
C129 C 0.30958 0.68015 0.00493 0.0
C130 C 0.31542 0.71332 0.03842 0.0
C131 C 0.28812 0.7402 0.03893 0.0
C132 C 0.38484 0.61555 0.06191 0.0
C133 C 0.3936 0.59707 0.00341 0.0
C134 C 0.35771 0.6426 0.0623 0.0
C135 C 0.33854 0.65159 0.00435 0.0
C136 C 0.34718 0.63308 0.9459 0.0
C137 C 0.37451 0.60621 0.94537 0.0
H138 H 0.79643 0.72504 0.45818 0.0
H139 H 0.72114 0.79778 0.5555 0.0
H140 H 0.84323 0.77302 0.45721 0.0
H141 H 0.7683 0.84552 0.55785 0.0
H142 H 0.84777 0.93407 0.48835 0.0
H143 H 0.80065 0.88669 0.48711 0.0
H144 H 0.88361 0.80535 0.5299 0.0
H145 H 0.9308 0.85246 0.52916 0.0
C146 C 0.79008 0.75141 0.47943 0.0
C147 C 0.75538 0.75793 0.5068 0.0
C148 C 0.8169 0.77875 0.47963 0.0
C149 C 0.80961 0.81316 0.50765 0.0
C150 C 0.77474 0.81954 0.53515 0.0
C151 C 0.74788 0.7922 0.53455 0.0
C152 C 0.85596 0.90608 0.4975 0.0
C153 C 0.89311 0.89709 0.50866 0.0
C154 C 0.8289 0.87892 0.49715 0.0
C155 C 0.83831 0.84216 0.50833 0.0
C156 C 0.87543 0.83326 0.51997 0.0
C157 C 0.9025 0.86036 0.51992 0.0
H158 H 0.69267 0.22451 0.94763 0.0
H159 H 0.76451 0.29481 0.0599 0.0
H160 H 0.64578 0.27252 0.94481 0.0
H161 H 0.71733 0.34249 0.05994 0.0
H162 H 0.64059 0.43271 0.98778 0.0
H163 H 0.6874 0.3851 0.98695 0.0
H164 H 0.6033 0.30336 0.01654 0.0
H165 H 0.55638 0.35081 0.01568 0.0
C166 C 0.69824 0.25034 0.97169 0.0
C167 C 0.73197 0.2562 0.00389 0.0
C168 C 0.67139 0.27767 0.97075 0.0
C169 C 0.67776 0.31137 1.00225 0.0
C170 C 0.71167 0.31707 0.0345 0.0
C171 C 0.73851 0.28975 0.03518 0.0
C172 C 0.63205 0.40459 0.99406 0.0
C173 C 0.59468 0.39563 1.00177 0.0
C174 C 0.65894 0.37729 0.99394 0.0
C175 C 0.64913 0.34039 1.00176 0.0
C176 C 0.61177 0.33144 0.00945 0.0
C177 C 0.58487 0.35871 0.00934 0.0
H178 H 0.18617 0.87204 0.06123 0.0
H179 H 0.12688 0.77482 0.11433 0.0
H180 H 0.15134 0.90728 0.14198 0.0
H181 H 0.09099 0.80976 0.19415 0.0
H182 H 0.06813 0.87242 0.38411 0.0
H183 H 0.09951 0.83814 0.29851 0.0
H184 H 0.09306 0.93188 0.17001 0.0
H185 H 0.06288 0.96653 0.25639 0.0
C186 C 0.16507 0.85854 0.08964 0.0
C187 C 0.15917 0.82094 0.08246 0.0
C188 C 0.14506 0.87857 0.13573 0.0
C189 C 0.11849 0.86134 0.17515 0.0
C190 C 0.11176 0.82379 0.16582 0.0
C191 C 0.13203 0.80379 0.12003 0.0
C192 C 0.07342 0.88572 0.3376 0.0
C193 C 0.06313 0.92229 0.32731 0.0
C194 C 0.09117 0.86596 0.28823 0.0
C195 C 0.09879 0.88217 0.22712 0.0
C196 C 0.08818 0.91866 0.21672 0.0
C197 C 0.07072 0.93851 0.26626 0.0
H198 H 0.68845 0.61758 0.55557 0.0
H199 H 0.62942 0.71436 0.61284 0.0
H200 H 0.65276 0.58133 0.63431 0.0
H201 H 0.59344 0.67848 0.69146 0.0
H202 H 0.61785 0.54757 0.84661 0.0
H203 H 0.64992 0.58085 0.76021 0.0
H204 H 0.54664 0.6263 0.69344 0.0
H205 H 0.51437 0.59291 0.7795 0.0
C206 C 0.66737 0.6308 0.58453 0.0
C207 C 0.66145 0.66848 0.57879 0.0
C208 C 0.64723 0.6103 0.62973 0.0
C209 C 0.62049 0.62717 0.66917 0.0
C210 C 0.61372 0.66474 0.66145 0.0
C211 C 0.63424 0.68525 0.61689 0.0
C212 C 0.60195 0.56462 0.81351 0.0
C213 C 0.56356 0.56764 0.82008 0.0
C214 C 0.62029 0.58344 0.76375 0.0
C215 C 0.60073 0.60605 0.72008 0.0
C216 C 0.56239 0.60917 0.72664 0.0
C217 C 0.54396 0.58995 0.77581 0.0
H218 H 0.84743 0.21466 0.13403 0.0
H219 H 0.81069 0.11533 0.04013 0.0
H220 H 0.88222 0.1787 0.21494 0.0
H221 H 0.84722 0.07935 0.11899 0.0
H222 H 0.96188 0.05175 0.24609 0.0
H223 H 0.92899 0.08543 0.15966 0.0
H224 H 0.84797 0.11987 0.30066 0.0
H225 H 0.88004 0.08549 0.38698 0.0
C226 C 0.84715 0.18515 0.13049 0.0
C227 C 0.82621 0.16767 0.08145 0.0
C228 C 0.86707 0.16471 0.17636 0.0
C229 C 0.86708 0.12647 0.17289 0.0
C230 C 0.84756 0.1089 0.12219 0.0
C231 C 0.82698 0.12939 0.07703 0.0
C232 C 0.93698 0.0664 0.25861 0.0
C233 C 0.92352 0.06603 0.32331 0.0
C234 C 0.91821 0.08547 0.20918 0.0
C235 C 0.88618 0.10507 0.22402 0.0
C236 C 0.87271 0.10485 0.28846 0.0
C237 C 0.89098 0.08516 0.33759 0.0
H238 H 0.35928 0.27614 0.61009 0.0
H239 H 0.30373 0.37408 0.54785 0.0
H240 H 0.39543 0.31136 0.6899 0.0
H241 H 0.3386 0.40966 0.62903 0.0
H242 H 0.42682 0.46802 0.74886 0.0
H243 H 0.39665 0.43346 0.66143 0.0
H244 H 0.38639 0.34093 0.79183 0.0
H245 H 0.4178 0.37499 0.87823 0.0
C246 C 0.3551 0.30536 0.61368 0.0
C247 C 0.32894 0.32262 0.57353 0.0
C248 C 0.37544 0.32553 0.65956 0.0
C249 C 0.36966 0.36337 0.66667 0.0
C250 C 0.34414 0.38071 0.62461 0.0
C251 C 0.3241 0.36048 0.57825 0.0
C252 C 0.41814 0.44028 0.75884 0.0
C253 C 0.42474 0.42427 0.82059 0.0
C254 C 0.40069 0.42048 0.70872 0.0
C255 C 0.3891 0.38431 0.71931 0.0
C256 C 0.39558 0.36843 0.78128 0.0
C257 C 0.41336 0.38809 0.83114 0.0
H258 H 0.61648 0.68571 0.45589 0.0
H259 H 0.71635 0.63216 0.39658 0.0
H260 H 0.5815 0.65017 0.37491 0.0
H261 H 0.68171 0.59535 0.3169 0.0
H262 H 0.61784 0.57152 0.12778 0.0
H263 H 0.65187 0.60305 0.21425 0.0
H264 H 0.55861 0.59218 0.34369 0.0
H265 H 0.52411 0.56193 0.25627 0.0
C266 C 0.63064 0.66562 0.4262 0.0
C267 C 0.66885 0.66153 0.43172 0.0
C268 C 0.61076 0.6452 0.37994 0.0
C269 C 0.62878 0.62002 0.33875 0.0
C270 C 0.667 0.61503 0.34659 0.0
C271 C 0.68683 0.63575 0.3924 0.0
C272 C 0.60461 0.57584 0.1747 0.0
C273 C 0.56819 0.56434 0.18493 0.0
C274 C 0.62424 0.59369 0.2246 0.0
C275 C 0.60809 0.60014 0.28626 0.0
C276 C 0.57177 0.58824 0.29662 0.0
C277 C 0.55202 0.57073 0.24649 0.0
H278 H 0.77535 0.13229 0.89576 0.0
H279 H 0.8736 0.18804 0.95932 0.0
H280 H 0.81111 0.09645 0.81735 0.0
H281 H 0.90981 0.15354 0.87908 0.0
H282 H 0.96867 0.06556 0.76 0.0
H283 H 0.93431 0.09614 0.8467 0.0
H284 H 0.84046 0.10559 0.716 0.0
H285 H 0.87424 0.07383 0.63063 0.0
C286 C 0.80478 0.13659 0.8927 0.0
C287 C 0.82196 0.16269 0.93283 0.0
C288 C 0.82527 0.11645 0.84757 0.0
C289 C 0.86336 0.12243 0.84098 0.0
C290 C 0.88065 0.1479 0.88306 0.0
C291 C 0.86009 0.16774 0.92882 0.0
C292 C 0.94068 0.07416 0.74987 0.0
C293 C 0.92417 0.06714 0.68841 0.0
C294 C 0.921 0.09185 0.79954 0.0
C295 C 0.88446 0.10322 0.7887 0.0
C296 C 0.8682 0.09651 0.72686 0.0
C297 C 0.88771 0.07851 0.67756 0.0
H298 H 0.37446 0.30349 0.45109 0.0
H299 H 0.276 0.35989 0.39049 0.0
H300 H 0.41061 0.33947 0.3726 0.0
H301 H 0.31179 0.39622 0.3122 0.0
H302 H 0.44409 0.37388 0.15955 0.0
H303 H 0.41093 0.34175 0.24604 0.0
H304 H 0.36395 0.44375 0.31121 0.0
H305 H 0.39729 0.47611 0.2251 0.0
C306 C 0.36085 0.32406 0.42147 0.0
C307 C 0.32274 0.32917 0.42617 0.0
C308 C 0.3813 0.34438 0.37644 0.0
C309 C 0.36392 0.37047 0.33618 0.0
C310 C 0.3259 0.37644 0.34288 0.0
C311 C 0.30544 0.35574 0.38724 0.0
C312 C 0.42673 0.38949 0.19233 0.0
C313 C 0.42327 0.42755 0.18533 0.0
C314 C 0.40799 0.37112 0.24212 0.0
C315 C 0.38499 0.39031 0.28535 0.0
C316 C 0.38141 0.42831 0.27835 0.0
C317 C 0.40058 0.44679 0.22918 0.0
H318 H 0.21233 0.86271 0.90591 0.0
H319 H 0.11501 0.80179 0.95509 0.0
H320 H 0.17673 0.89893 0.82644 0.0
H321 H 0.07897 0.83788 0.87587 0.0
H322 H 0.04654 0.87401 0.66384 0.0
H323 H 0.07951 0.842 0.75134 0.0
H324 H 0.12416 0.94446 0.82068 0.0
H325 H 0.09115 0.97666 0.73328 0.0
C326 C 0.18317 0.85749 0.89987 0.0
C327 C 0.1662 0.82959 0.93573 0.0
C328 C 0.16278 0.87819 0.8549 0.0
C329 C 0.12515 0.871 0.84467 0.0
C330 C 0.10802 0.84372 0.88225 0.0
C331 C 0.12838 0.82334 0.92775 0.0
C332 C 0.06335 0.88976 0.69771 0.0
C333 C 0.06626 0.92789 0.69143 0.0
C334 C 0.08199 0.87144 0.74813 0.0
C335 C 0.10428 0.89078 0.7929 0.0
C336 C 0.1073 0.92886 0.78664 0.0
C337 C 0.08829 0.94727 0.73671 0.0
loop_
_geom_bond_atom_site_label_1
_geom_bond_atom_site_label_2
_geom_bond_distance
_geom_bond_site_symmetry_2
_ccdc_geom_bond_type
C0 N1 1.317 . S
C0 N2 1.348 1_556 S
C0 C3 1.485 . S
N1 C0 1.317 . S
N1 N5 1.370 1_556 S
N2 C0 1.348 1_554 S
N2 C4 1.346 . S
C3 C0 1.485 . S
C3 H7 0.960 . S
C3 H8 0.961 . S
C3 H9 0.960 . S
C4 N2 1.346 . S
C4 N5 1.307 . S
C4 C6 1.486 . S
N5 N1 1.370 1_554 S
N5 C4 1.307 . S
C6 C4 1.486 . S
C6 H10 0.960 . S
C6 H11 0.960 . S
C6 H12 0.959 . S
H7 C3 0.960 . S
H8 C3 0.961 . S
H9 C3 0.960 . S
H10 C6 0.960 . S
H11 C6 0.960 . S
H12 C6 0.959 . S
C13 N14 1.317 . S
C13 N15 1.348 . S
C13 C16 1.485 . S
N14 C13 1.317 . S
N14 N18 1.370 . S
N15 C13 1.348 . S
N15 C17 1.346 . S
C16 C13 1.485 . S
C16 H20 0.960 . S
C16 H21 0.961 . S
C16 H22 0.960 . S
C17 N15 1.346 . S
C17 N18 1.307 . S
C17 C19 1.486 . S
N18 N14 1.370 . S
N18 C17 1.307 . S
C19 C17 1.486 . S
C19 H23 0.960 . S
C19 H24 0.960 . S
C19 H25 0.959 . S
H20 C16 0.960 . S
H21 C16 0.961 . S
H22 C16 0.960 . S
H23 C19 0.960 . S
H24 C19 0.960 . S
H25 C19 0.959 . S
C26 N27 1.317 . S
C26 N28 1.348 . S
C26 C29 1.485 . S
N27 C26 1.317 . S
N27 N31 1.370 1_554 S
N28 C26 1.348 . S
N28 C30 1.346 1_554 S
C29 C26 1.485 . S
C29 H33 0.960 . S
C29 H34 0.961 . S
C29 H35 0.960 . S
C30 N28 1.346 1_556 S
C30 N31 1.307 . S
C30 C32 1.486 . S
N31 N27 1.370 1_556 S
N31 C30 1.307 . S
C32 C30 1.486 . S
C32 H36 0.960 . S
C32 H37 0.960 . S
C32 H38 0.959 . S
H33 C29 0.960 . S
H34 C29 0.961 . S
H35 C29 0.960 . S
H36 C32 0.960 . S
H37 C32 0.960 . S
H38 C32 0.959 . S
C39 N40 1.317 . S
C39 N41 1.348 . S
C39 C42 1.485 . S
N40 C39 1.317 . S
N40 N44 1.370 . S
N41 C39 1.348 . S
N41 C43 1.346 . S
C42 C39 1.485 . S
C42 H46 0.960 . S
C42 H47 0.961 . S
C42 H48 0.960 . S
C43 N41 1.346 . S
C43 N44 1.307 . S
C43 C45 1.486 . S
N44 N40 1.370 . S
N44 C43 1.307 . S
C45 C43 1.486 . S
C45 H49 0.960 . S
C45 H50 0.960 . S
C45 H51 0.959 . S
H46 C42 0.960 . S
H47 C42 0.961 . S
H48 C42 0.960 . S
H49 C45 0.960 . S
H50 C45 0.960 . S
H51 C45 0.959 . S
O52 Zn53 1.953 1_565 S
O52 C68 1.225 . S
Zn53 O52 1.953 1_545 S
Zn53 O54 1.949 1_655 S
Zn53 O60 1.919 . S
Zn53 O65 1.924 . S
O54 Zn53 1.949 1_455 S
O54 Zn55 1.923 . S
O54 Zn56 1.950 1_545 S
O54 Zn57 1.945 . S
Zn55 O54 1.923 . S
Zn55 O58 1.933 . S
Zn55 O61 1.941 1_455 S
Zn55 O62 1.965 1_545 S
Zn56 O54 1.950 1_565 S
Zn56 O63 1.938 . S
Zn56 O64 1.906 . S
Zn56 O74 1.953 1_455 S
Zn57 O54 1.945 . S
Zn57 O59 1.932 . S
Zn57 O66 1.977 1_545 S
Zn57 O67 1.910 1_455 S
O58 Zn55 1.933 . S
O58 C69 1.226 . S
O59 Zn57 1.932 . S
O59 C69 1.307 . S
O60 Zn53 1.919 . S
O60 C71 1.253 . S
O61 Zn55 1.941 1_655 S
O61 C71 1.283 . S
O62 Zn55 1.965 1_565 S
O62 C70 1.303 . S
O63 Zn56 1.938 . S
O63 C70 1.247 . S
O64 Zn56 1.906 . S
O64 C72 1.304 . S
O65 Zn53 1.924 . S
O65 C73 1.311 . S
O66 Zn57 1.977 1_565 S
O66 C72 1.272 . S
O67 Zn57 1.910 1_655 S
O67 C73 1.231 . S
C68 O52 1.225 . S
C68 O74 1.298 . S
C69 O58 1.226 . S
C69 O59 1.307 . S
C70 O62 1.303 . S
C70 O63 1.247 . S
C71 O60 1.253 . S
C71 O61 1.283 . S
C72 O64 1.304 . S
C72 O66 1.272 . S
C73 O65 1.311 . S
C73 O67 1.231 . S
O74 Zn56 1.953 1_655 S
O74 C68 1.298 . S
O75 Zn76 1.953 . S
O75 C91 1.226 1_556 S
Zn76 O75 1.953 . S
Zn76 O77 1.949 1_556 S
Zn76 O83 1.919 . S
Zn76 O88 1.924 1_556 S
O77 Zn76 1.949 1_554 S
O77 Zn78 1.923 1_554 S
O77 Zn79 1.950 . S
O77 Zn80 1.945 . S
Zn78 O77 1.923 1_556 S
Zn78 O81 1.933 . S
Zn78 O84 1.941 . S
Zn78 O85 1.965 . S
Zn79 O77 1.950 . S
Zn79 O86 1.938 1_554 S
Zn79 O87 1.906 . S
Zn79 O97 1.953 . S
Zn80 O77 1.945 . S
Zn80 O82 1.932 . S
Zn80 O89 1.977 . S
Zn80 O90 1.910 . S
O81 Zn78 1.933 . S
O81 C92 1.226 1_556 S
O82 Zn80 1.932 . S
O82 C92 1.307 . S
O83 Zn76 1.919 . S
O83 C94 1.253 . S
O84 Zn78 1.941 . S
O84 C94 1.283 . S
O85 Zn78 1.965 . S
O85 C93 1.303 . S
O86 Zn79 1.938 1_556 S
O86 C93 1.247 . S
O87 Zn79 1.906 . S
O87 C95 1.304 . S
O88 Zn76 1.924 1_554 S
O88 C96 1.311 . S
O89 Zn80 1.977 . S
O89 C95 1.272 . S
O90 Zn80 1.910 . S
O90 C96 1.231 . S
C91 O75 1.226 1_554 S
C91 O97 1.297 . S
C92 O81 1.226 1_554 S
C92 O82 1.307 . S
C93 O85 1.303 . S
C93 O86 1.247 . S
C94 O83 1.253 . S
C94 O84 1.283 . S
C95 O87 1.304 . S
C95 O89 1.272 . S
C96 O88 1.311 . S
C96 O90 1.231 . S
O97 Zn79 1.953 . S
O97 C91 1.297 . S
H98 C106 0.950 . S
H99 C111 0.950 . S
H100 C108 0.950 . S
H101 C110 0.950 . S
H102 C112 0.950 . S
H103 C114 0.950 . S
H104 C116 0.950 . S
H105 C117 0.950 . S
C106 H98 0.950 . S
C106 C107 1.386 . S
C106 C108 1.391 . S
C107 C106 1.386 . S
C107 C111 1.393 . S
C108 H100 0.950 . S
C108 C106 1.391 . S
C108 C109 1.400 . S
C109 C108 1.400 . S
C109 C110 1.398 . S
C109 C115 1.491 . S
C110 H101 0.950 . S
C110 C109 1.398 . S
C110 C111 1.391 . S
C111 H99 0.950 . S
C111 C107 1.393 . S
C111 C110 1.391 . S
C112 H102 0.950 . S
C112 C113 1.386 . S
C112 C114 1.391 . S
C113 C112 1.386 . S
C113 C117 1.393 . S
C114 H103 0.950 . S
C114 C112 1.391 . S
C114 C115 1.400 . S
C115 C109 1.491 . S
C115 C114 1.400 . S
C115 C116 1.398 . S
C116 H104 0.950 . S
C116 C115 1.398 . S
C116 C117 1.391 . S
C117 H105 0.950 . S
C117 C113 1.393 . S
C117 C116 1.391 . S
H118 C126 0.950 . S
H119 C131 0.950 . S
H120 C128 0.950 . S
H121 C130 0.950 . S
H122 C132 0.950 . S
H123 C134 0.950 . S
H124 C136 0.950 . S
H125 C137 0.950 . S
C126 H118 0.950 . S
C126 C127 1.384 1_556 S
C126 C128 1.391 . S
C127 C126 1.384 1_554 S
C127 C131 1.394 . S
C128 H120 0.950 . S
C128 C126 1.391 . S
C128 C129 1.400 1_556 S
C129 C128 1.400 1_554 S
C129 C130 1.398 . S
C129 C135 1.491 . S
C130 H121 0.950 . S
C130 C129 1.398 . S
C130 C131 1.391 . S
C131 H119 0.950 . S
C131 C127 1.394 . S
C131 C130 1.391 . S
C132 H122 0.950 . S
C132 C133 1.386 . S
C132 C134 1.391 . S
C133 C132 1.386 . S
C133 C137 1.393 1_554 S
C134 H123 0.950 . S
C134 C132 1.391 . S
C134 C135 1.400 . S
C135 C129 1.491 . S
C135 C134 1.400 . S
C135 C136 1.398 1_554 S
C136 H124 0.950 . S
C136 C135 1.398 1_556 S
C136 C137 1.391 . S
C137 H125 0.950 . S
C137 C133 1.393 1_556 S
C137 C136 1.391 . S
H138 C146 0.950 . S
H139 C151 0.950 . S
H140 C148 0.950 . S
H141 C150 0.950 . S
H142 C152 0.950 . S
H143 C154 0.950 . S
H144 C156 0.950 . S
H145 C157 0.950 . S
C146 H138 0.950 . S
C146 C147 1.386 . S
C146 C148 1.391 . S
C147 C146 1.386 . S
C147 C151 1.393 . S
C148 H140 0.950 . S
C148 C146 1.391 . S
C148 C149 1.400 . S
C149 C148 1.400 . S
C149 C150 1.398 . S
C149 C155 1.491 . S
C150 H141 0.950 . S
C150 C149 1.398 . S
C150 C151 1.391 . S
C151 H139 0.950 . S
C151 C147 1.393 . S
C151 C150 1.391 . S
C152 H142 0.950 . S
C152 C153 1.386 . S
C152 C154 1.391 . S
C153 C152 1.386 . S
C153 C157 1.393 . S
C154 H143 0.950 . S
C154 C152 1.391 . S
C154 C155 1.400 . S
C155 C149 1.491 . S
C155 C154 1.400 . S
C155 C156 1.398 . S
C156 H144 0.950 . S
C156 C155 1.398 . S
C156 C157 1.391 . S
C157 H145 0.950 . S
C157 C153 1.393 . S
C157 C156 1.391 . S
H158 C166 0.950 . S
H159 C171 0.950 . S
H160 C168 0.950 . S
H161 C170 0.950 . S
H162 C172 0.950 . S
H163 C174 0.950 . S
H164 C176 0.950 . S
H165 C177 0.950 . S
C166 H158 0.950 . S
C166 C167 1.386 1_556 S
C166 C168 1.391 . S
C167 C166 1.386 1_554 S
C167 C171 1.393 . S
C168 H160 0.950 . S
C168 C166 1.391 . S
C168 C169 1.400 1_556 S
C169 C168 1.400 1_554 S
C169 C170 1.398 . S
C169 C175 1.490 1_554 S
C170 H161 0.950 . S
C170 C169 1.398 . S
C170 C171 1.391 . S
C171 H159 0.950 . S
C171 C167 1.393 . S
C171 C170 1.391 . S
C172 H162 0.950 . S
C172 C173 1.386 1_554 S
C172 C174 1.391 . S
C173 C172 1.386 1_556 S
C173 C177 1.393 . S
C174 H163 0.950 . S
C174 C172 1.391 . S
C174 C175 1.398 1_554 S
C175 C169 1.490 1_556 S
C175 C174 1.398 1_556 S
C175 C176 1.401 . S
C176 H164 0.950 . S
C176 C175 1.401 . S
C176 C177 1.391 . S
C177 H165 0.950 . S
C177 C173 1.393 . S
C177 C176 1.391 . S
H178 C186 0.950 . S
H179 C191 0.950 . S
H180 C188 0.950 . S
H181 C190 0.950 . S
H182 C192 0.950 . S
H183 C194 0.950 . S
H184 C196 0.950 . S
H185 C197 0.950 . S
C186 H178 0.950 . S
C186 C187 1.386 . S
C186 C188 1.391 . S
C187 C186 1.386 . S
C187 C191 1.393 . S
C188 H180 0.950 . S
C188 C186 1.391 . S
C188 C189 1.400 . S
C189 C188 1.400 . S
C189 C190 1.398 . S
C189 C195 1.491 . S
C190 H181 0.950 . S
C190 C189 1.398 . S
C190 C191 1.391 . S
C191 H179 0.950 . S
C191 C187 1.393 . S
C191 C190 1.391 . S
C192 H182 0.950 . S
C192 C193 1.386 . S
C192 C194 1.391 . S
C193 C192 1.386 . S
C193 C197 1.393 . S
C194 H183 0.950 . S
C194 C192 1.391 . S
C194 C195 1.400 . S
C195 C189 1.491 . S
C195 C194 1.400 . S
C195 C196 1.398 . S
C196 H184 0.950 . S
C196 C195 1.398 . S
C196 C197 1.391 . S
C197 H185 0.950 . S
C197 C193 1.393 . S
C197 C196 1.391 . S
H198 C206 0.950 . S
H199 C211 0.950 . S
H200 C208 0.950 . S
H201 C210 0.950 . S
H202 C212 0.950 . S
H203 C214 0.950 . S
H204 C216 0.950 . S
H205 C217 0.950 . S
C206 H198 0.950 . S
C206 C207 1.386 . S
C206 C208 1.391 . S
C207 C206 1.386 . S
C207 C211 1.393 . S
C208 H200 0.950 . S
C208 C206 1.391 . S
C208 C209 1.400 . S
C209 C208 1.400 . S
C209 C210 1.398 . S
C209 C215 1.491 . S
C210 H201 0.950 . S
C210 C209 1.398 . S
C210 C211 1.391 . S
C211 H199 0.950 . S
C211 C207 1.393 . S
C211 C210 1.391 . S
C212 H202 0.950 . S
C212 C213 1.386 . S
C212 C214 1.391 . S
C213 C212 1.386 . S
C213 C217 1.393 . S
C214 H203 0.950 . S
C214 C212 1.391 . S
C214 C215 1.400 . S
C215 C209 1.491 . S
C215 C214 1.400 . S
C215 C216 1.398 . S
C216 H204 0.950 . S
C216 C215 1.398 . S
C216 C217 1.391 . S
C217 H205 0.950 . S
C217 C213 1.393 . S
C217 C216 1.391 . S
H218 C226 0.950 . S
H219 C231 0.950 . S
H220 C228 0.950 . S
H221 C230 0.950 . S
H222 C232 0.950 . S
H223 C234 0.950 . S
H224 C236 0.950 . S
H225 C237 0.950 . S
C226 H218 0.950 . S
C226 C227 1.386 . S
C226 C228 1.391 . S
C227 C226 1.386 . S
C227 C231 1.393 . S
C228 H220 0.950 . S
C228 C226 1.391 . S
C228 C229 1.400 . S
C229 C228 1.400 . S
C229 C230 1.398 . S
C229 C235 1.491 . S
C230 H221 0.950 . S
C230 C229 1.398 . S
C230 C231 1.391 . S
C231 H219 0.950 . S
C231 C227 1.393 . S
C231 C230 1.391 . S
C232 H222 0.950 . S
C232 C233 1.386 . S
C232 C234 1.391 . S
C233 C232 1.386 . S
C233 C237 1.393 . S
C234 H223 0.950 . S
C234 C232 1.391 . S
C234 C235 1.400 . S
C235 C229 1.491 . S
C235 C234 1.400 . S
C235 C236 1.398 . S
C236 H224 0.950 . S
C236 C235 1.398 . S
C236 C237 1.391 . S
C237 H225 0.950 . S
C237 C233 1.393 . S
C237 C236 1.391 . S
H238 C246 0.950 . S
H239 C251 0.950 . S
H240 C248 0.950 . S
H241 C250 0.950 . S
H242 C252 0.950 . S
H243 C254 0.950 . S
H244 C256 0.950 . S
H245 C257 0.950 . S
C246 H238 0.950 . S
C246 C247 1.386 . S
C246 C248 1.391 . S
C247 C246 1.386 . S
C247 C251 1.393 . S
C248 H240 0.950 . S
C248 C246 1.391 . S
C248 C249 1.400 . S
C249 C248 1.400 . S
C249 C250 1.398 . S
C249 C255 1.491 . S
C250 H241 0.950 . S
C250 C249 1.398 . S
C250 C251 1.391 . S
C251 H239 0.950 . S
C251 C247 1.393 . S
C251 C250 1.391 . S
C252 H242 0.950 . S
C252 C253 1.386 . S
C252 C254 1.391 . S
C253 C252 1.386 . S
C253 C257 1.393 . S
C254 H243 0.950 . S
C254 C252 1.391 . S
C254 C255 1.400 . S
C255 C249 1.491 . S
C255 C254 1.400 . S
C255 C256 1.398 . S
C256 H244 0.950 . S
C256 C255 1.398 . S
C256 C257 1.391 . S
C257 H245 0.950 . S
C257 C253 1.393 . S
C257 C256 1.391 . S
H258 C266 0.950 . S
H259 C271 0.950 . S
H260 C268 0.950 . S
H261 C270 0.950 . S
H262 C272 0.950 . S
H263 C274 0.950 . S
H264 C276 0.950 . S
H265 C277 0.950 . S
C266 H258 0.950 . S
C266 C267 1.386 . S
C266 C268 1.391 . S
C267 C266 1.386 . S
C267 C271 1.393 . S
C268 H260 0.950 . S
C268 C266 1.391 . S
C268 C269 1.400 . S
C269 C268 1.400 . S
C269 C270 1.398 . S
C269 C275 1.491 . S
C270 H261 0.950 . S
C270 C269 1.398 . S
C270 C271 1.391 . S
C271 H259 0.950 . S
C271 C267 1.393 . S
C271 C270 1.391 . S
C272 H262 0.950 . S
C272 C273 1.386 . S
C272 C274 1.391 . S
C273 C272 1.386 . S
C273 C277 1.393 . S
C274 H263 0.950 . S
C274 C272 1.391 . S
C274 C275 1.400 . S
C275 C269 1.491 . S
C275 C274 1.400 . S
C275 C276 1.398 . S
C276 H264 0.950 . S
C276 C275 1.398 . S
C276 C277 1.391 . S
C277 H265 0.950 . S
C277 C273 1.393 . S
C277 C276 1.391 . S
H278 C286 0.950 . S
H279 C291 0.950 . S
H280 C288 0.950 . S
H281 C290 0.950 . S
H282 C292 0.950 . S
H283 C294 0.950 . S
H284 C296 0.950 . S
H285 C297 0.950 . S
C286 H278 0.950 . S
C286 C287 1.386 . S
C286 C288 1.391 . S
C287 C286 1.386 . S
C287 C291 1.393 . S
C288 H280 0.950 . S
C288 C286 1.391 . S
C288 C289 1.400 . S
C289 C288 1.400 . S
C289 C290 1.398 . S
C289 C295 1.491 . S
C290 H281 0.950 . S
C290 C289 1.398 . S
C290 C291 1.391 . S
C291 H279 0.950 . S
C291 C287 1.393 . S
C291 C290 1.391 . S
C292 H282 0.950 . S
C292 C293 1.386 . S
C292 C294 1.391 . S
C293 C292 1.386 . S
C293 C297 1.393 . S
C294 H283 0.950 . S
C294 C292 1.391 . S
C294 C295 1.400 . S
C295 C289 1.491 . S
C295 C294 1.400 . S
C295 C296 1.398 . S
C296 H284 0.950 . S
C296 C295 1.398 . S
C296 C297 1.391 . S
C297 H285 0.950 . S
C297 C293 1.393 . S
C297 C296 1.391 . S
H298 C306 0.950 . S
H299 C311 0.950 . S
H300 C308 0.950 . S
H301 C310 0.950 . S
H302 C312 0.950 . S
H303 C314 0.950 . S
H304 C316 0.950 . S
H305 C317 0.950 . S
C306 H298 0.950 . S
C306 C307 1.386 . S
C306 C308 1.391 . S
C307 C306 1.386 . S
C307 C311 1.393 . S
C308 H300 0.950 . S
C308 C306 1.391 . S
C308 C309 1.400 . S
C309 C308 1.400 . S
C309 C310 1.398 . S
C309 C315 1.491 . S
C310 H301 0.950 . S
C310 C309 1.398 . S
C310 C311 1.391 . S
C311 H299 0.950 . S
C311 C307 1.393 . S
C311 C310 1.391 . S
C312 H302 0.950 . S
C312 C313 1.386 . S
C312 C314 1.391 . S
C313 C312 1.386 . S
C313 C317 1.393 . S
C314 H303 0.950 . S
C314 C312 1.391 . S
C314 C315 1.400 . S
C315 C309 1.491 . S
C315 C314 1.400 . S
C315 C316 1.398 . S
C316 H304 0.950 . S
C316 C315 1.398 . S
C316 C317 1.391 . S
C317 H305 0.950 . S
C317 C313 1.393 . S
C317 C316 1.391 . S
H318 C326 0.950 . S
H319 C331 0.950 . S
H320 C328 0.950 . S
H321 C330 0.950 . S
H322 C332 0.950 . S
H323 C334 0.950 . S
H324 C336 0.950 . S
H325 C337 0.950 . S
C326 H318 0.950 . S
C326 C327 1.386 . S
C326 C328 1.391 . S
C327 C326 1.386 . S
C327 C331 1.393 . S
C328 H320 0.950 . S
C328 C326 1.391 . S
C328 C329 1.400 . S
C329 C328 1.400 . S
C329 C330 1.398 . S
C329 C335 1.491 . S
C330 H321 0.950 . S
C330 C329 1.398 . S
C330 C331 1.391 . S
C331 H319 0.950 . S
C331 C327 1.393 . S
C331 C330 1.391 . S
C332 H322 0.950 . S
C332 C333 1.386 . S
C332 C334 1.391 . S
C333 C332 1.386 . S
C333 C337 1.393 . S
C334 H323 0.950 . S
C334 C332 1.391 . S
C334 C335 1.400 . S
C335 C329 1.491 . S
C335 C334 1.400 . S
C335 C336 1.398 . S
C336 H324 0.950 . S
C336 C335 1.398 . S
C336 C337 1.391 . S
C337 H325 0.950 . S
C337 C333 1.393 . S
C337 C336 1.391 . S
C113 C69 1.492 . S
C107 N41 1.496 . S
C127 N2 1.493 . S
C133 C92 1.494 . S
C147 N15 1.528 . S
C153 C68 1.527 . S
C167 N28 1.526 . S
C173 C91 1.527 1_556 S
C193 C72 1.453 . S
C187 N5 1.483 . S
C213 C94 1.485 . S
C207 N14 1.528 . S
C227 N27 1.492 . S
C233 C73 1.431 . S
C247 N44 1.520 . S
C253 C93 1.452 . S
C273 C96 1.452 . S
C267 N18 1.487 . S
C293 C71 1.464 . S
C287 N31 1.525 . S
C313 C95 1.450 . S
C307 N40 1.480 . S
C327 N1 1.519 . S
C333 C70 1.469 . S
