# Generated by pormake.
# Topology nom, (4,4)-cn, num edge types: 1
# Building blocks:
#     Node 0, Type 0, BuildingBlock: NAHDIM_clean_linker_0, # of connection points: 4
#     Node 1, Type 0, BuildingBlock: NAHDIM_clean_linker_0, # of connection points: 4
#     Node 2, Type 0, BuildingBlock: NAHDIM_clean_linker_0, # of connection points: 4
#     Node 3, Type 0, BuildingBlock: NAHDIM_clean_linker_0, # of connection points: 4
#     Node 4, Type 0, BuildingBlock: NAHDIM_clean_linker_0, # of connection points: 4
#     Node 5, Type 0, BuildingBlock: NAHDIM_clean_linker_0, # of connection points: 4
#     Node 6, Type 1, BuildingBlock: KUFVIS_clean_sbu_0, # of connection points: 4
#     Node 7, Type 1, BuildingBlock: KUFVIS_clean_sbu_0, # of connection points: 4
#     Node 8, Type 1, BuildingBlock: KUFVIS_clean_sbu_0, # of connection points: 4
#     Node 9, Type 1, BuildingBlock: KUFVIS_clean_sbu_0, # of connection points: 4
#     Node 10, Type 1, BuildingBlock: KUFVIS_clean_sbu_0, # of connection points: 4
#     Node 11, Type 1, BuildingBlock: KUFVIS_clean_sbu_0, # of connection points: 4
#     Edge 12, Type (0, 1), BuildingBlock: ZUJKAS_clean_linker_0, # of connection points: 2
#     Edge 13, Type (0, 1), BuildingBlock: ZUJKAS_clean_linker_0, # of connection points: 2
#     Edge 14, Type (0, 1), BuildingBlock: ZUJKAS_clean_linker_0, # of connection points: 2
#     Edge 15, Type (0, 1), BuildingBlock: ZUJKAS_clean_linker_0, # of connection points: 2
#     Edge 16, Type (0, 1), BuildingBlock: ZUJKAS_clean_linker_0, # of connection points: 2
#     Edge 17, Type (0, 1), BuildingBlock: ZUJKAS_clean_linker_0, # of connection points: 2
#     Edge 18, Type (0, 1), BuildingBlock: ZUJKAS_clean_linker_0, # of connection points: 2
#     Edge 19, Type (0, 1), BuildingBlock: ZUJKAS_clean_linker_0, # of connection points: 2
#     Edge 20, Type (0, 1), BuildingBlock: ZUJKAS_clean_linker_0, # of connection points: 2
#     Edge 21, Type (0, 1), BuildingBlock: ZUJKAS_clean_linker_0, # of connection points: 2
#     Edge 22, Type (0, 1), BuildingBlock: ZUJKAS_clean_linker_0, # of connection points: 2
#     Edge 23, Type (0, 1), BuildingBlock: ZUJKAS_clean_linker_0, # of connection points: 2
#     Edge 24, Type (0, 1), BuildingBlock: ZUJKAS_clean_linker_0, # of connection points: 2
#     Edge 25, Type (0, 1), BuildingBlock: ZUJKAS_clean_linker_0, # of connection points: 2
#     Edge 26, Type (0, 1), BuildingBlock: ZUJKAS_clean_linker_0, # of connection points: 2
#     Edge 27, Type (0, 1), BuildingBlock: ZUJKAS_clean_linker_0, # of connection points: 2
#     Edge 28, Type (0, 1), BuildingBlock: ZUJKAS_clean_linker_0, # of connection points: 2
#     Edge 29, Type (0, 1), BuildingBlock: ZUJKAS_clean_linker_0, # of connection points: 2
#     Edge 30, Type (0, 1), BuildingBlock: ZUJKAS_clean_linker_0, # of connection points: 2
#     Edge 31, Type (0, 1), BuildingBlock: ZUJKAS_clean_linker_0, # of connection points: 2
#     Edge 32, Type (0, 1), BuildingBlock: ZUJKAS_clean_linker_0, # of connection points: 2
#     Edge 33, Type (0, 1), BuildingBlock: ZUJKAS_clean_linker_0, # of connection points: 2
#     Edge 34, Type (0, 1), BuildingBlock: ZUJKAS_clean_linker_0, # of connection points: 2
#     Edge 35, Type (0, 1), BuildingBlock: ZUJKAS_clean_linker_0, # of connection points: 2
# Relax obj value: 0.043
# Max RMSD: 0.131
# Mean RMSD: 0.093
data_MOF--net-nom--node1-KUFVIS_clean_sbu_0--node2-NAHDIM_clean_linker_0--edge1-ZUJKAS_clean_linker_0
_symmetry_space_group_name_H-M    P1
_symmetry_Int_Tables_number       1
_symmetry_cell_setting            triclinic
loop_
_symmetry_equiv_pos_as_xyz
'x, y, z'
_cell_length_a     69.769665
_cell_length_b     70.548442
_cell_length_c     85.443382
_cell_angle_alpha  90.716165
_cell_angle_beta   90.722605
_cell_angle_gamma 120.00016
loop_
_atom_site_label
_atom_site_type_symbol
_atom_site_fract_x
_atom_site_fract_y
_atom_site_fract_z
_atom_type_partial_charge
C0 C 0.13953 0.57775 0.26553 0.0
C1 C 0.14728 0.59106 0.28097 0.0
C2 C 0.11116 0.5837 0.29072 0.0
C3 C 0.10353 0.56197 0.29514 0.0
C4 C 0.08138 0.54832 0.2992 0.0
C5 C 0.06658 0.55652 0.29886 0.0
C6 C 0.0744 0.5786 0.29501 0.0
C7 C 0.09667 0.59195 0.2911 0.0
C8 C 0.07363 0.52491 0.30347 0.0
C9 C 0.05905 0.58788 0.29459 0.0
C10 C 0.99201 0.4736 0.2104 0.0
C11 C 0.97836 0.48292 0.21752 0.0
C12 C 0.97686 0.48212 0.24585 0.0
C13 C 0.97931 0.50266 0.24945 0.0
C14 C 0.98819 0.51299 0.26401 0.0
C15 C 0.9949 0.50257 0.27508 0.0
C16 C 0.9916 0.48143 0.27167 0.0
C17 C 0.98222 0.4713 0.25714 0.0
C18 C 0.99099 0.53528 0.26738 0.0
C19 C 0.99876 0.46992 0.28311 0.0
C20 C 0.89943 0.451 0.35324 0.0
C21 C 0.9047 0.47194 0.34832 0.0
C22 C 0.92688 0.48873 0.34746 0.0
C23 C 0.94403 0.48429 0.35133 0.0
C24 C 0.93866 0.4634 0.35684 0.0
C25 C 0.91637 0.44712 0.35794 0.0
C26 C 0.93198 0.51107 0.34216 0.0
C27 C 0.95646 0.45809 0.36122 0.0
C28 C 0.09379 0.60738 0.40609 0.0
C29 C 0.08148 0.58383 0.41179 0.0
C30 C 0.0445 0.56381 0.40027 0.0
C31 C 0.03052 0.5704 0.3935 0.0
C32 C 0.01646 0.55864 0.38076 0.0
C33 C 0.01609 0.53956 0.375 0.0
C34 C 0.02922 0.53208 0.3825 0.0
C35 C 0.0434 0.54438 0.39502 0.0
C36 C 0.00254 0.56696 0.37314 0.0
C37 C 0.02865 0.51137 0.37705 0.0
C38 C 0.04263 0.54151 0.30128 0.0
C39 C 0.02972 0.52959 0.28827 0.0
C40 C 0.00716 0.51461 0.28955 0.0
C41 C 0.99704 0.51131 0.30427 0.0
C42 C 0.97443 0.49625 0.30602 0.0
C43 C 0.96476 0.49276 0.32063 0.0
C44 C 0.97723 0.50453 0.33401 0.0
C45 C 0.96755 0.50107 0.34893 0.0
C46 C 0.98051 0.51292 0.36199 0.0
C47 C 0.00302 0.52815 0.36061 0.0
C48 C 0.01295 0.53191 0.34578 0.0
C49 C 0.03554 0.5472 0.34395 0.0
C50 C 0.04531 0.55038 0.3294 0.0
C51 C 0.03283 0.53858 0.31608 0.0
C52 C 0.00995 0.52334 0.31759 0.0
C53 C 1e-05 0.52 0.33246 0.0
C54 C 0.85012 0.40661 0.33742 0.0
C55 C 0.86128 0.43044 0.34321 0.0
O56 O 0.13209 0.59709 0.28572 0.0
O57 O 0.05895 0.57646 0.41181 0.0
O58 O 0.87825 0.43421 0.35366 0.0
O59 O 0.96965 0.47257 0.23149 0.0
H60 H 0.14924 0.58111 0.29017 0.0
H61 H 0.12373 0.56223 0.26704 0.0
H62 H 0.13695 0.58726 0.2563 0.0
H63 H 0.15203 0.57349 0.26153 0.0
H64 H 0.1146 0.5554 0.29524 0.0
H65 H 0.10272 0.60877 0.28783 0.0
H66 H 0.0616 0.5137 0.29441 0.0
H67 H 0.0875 0.52149 0.30442 0.0
H68 H 0.06495 0.52119 0.31479 0.0
H69 H 0.06783 0.60555 0.2918 0.0
H70 H 0.04572 0.57881 0.28565 0.0
H71 H 0.05104 0.58569 0.30609 0.0
H72 H 0.98982 0.50079 0.21957 0.0
H73 H 0.99927 0.48173 0.19921 0.0
H74 H 0.00576 0.47654 0.2186 0.0
H75 H 0.98157 0.45568 0.20817 0.0
H76 H 0.97444 0.51066 0.24081 0.0
H77 H 0.97997 0.4553 0.25425 0.0
H78 H 0.00887 0.54776 0.26742 0.0
H79 H 0.98227 0.53982 0.25853 0.0
H80 H 0.98463 0.53574 0.27915 0.0
H81 H 0.99587 0.45393 0.2784 0.0
H82 H 0.01665 0.48042 0.28609 0.0
H83 H 0.98952 0.46706 0.29412 0.0
H84 H 0.86801 0.44081 0.33272 0.0
H85 H 0.89154 0.47521 0.34523 0.0
H86 H 0.91205 0.43098 0.36197 0.0
H87 H 0.93905 0.51392 0.33029 0.0
H88 H 0.91698 0.51275 0.34173 0.0
H89 H 0.94453 0.52398 0.35015 0.0
H90 H 0.94952 0.44064 0.36429 0.0
H91 H 0.96796 0.46182 0.35136 0.0
H92 H 0.96628 0.46848 0.37141 0.0
H93 H 0.08519 0.57378 0.40355 0.0
H94 H 0.11189 0.61359 0.40594 0.0
H95 H 0.08809 0.60797 0.394 0.0
H96 H 0.0906 0.61827 0.4138 0.0
H97 H 0.03128 0.58527 0.39784 0.0
H98 H 0.05369 0.53889 0.40071 0.0
H99 H 0.00675 0.57012 0.3606 0.0
H100 H 0.98476 0.55429 0.37366 0.0
H101 H 0.00498 0.58226 0.37887 0.0
H102 H 0.03769 0.50636 0.38527 0.0
H103 H 0.01125 0.4978 0.37573 0.0
H104 H 0.03634 0.51396 0.3654 0.0
H105 H 0.03741 0.5319 0.27696 0.0
H106 H 0.964 0.48684 0.29612 0.0
H107 H 0.94735 0.48072 0.32127 0.0
H108 H 0.97305 0.51001 0.37342 0.0
H109 H 0.04599 0.55682 0.35377 0.0
H110 H 0.06279 0.56222 0.32872 0.0
H111 H 0.84295 0.3953 0.34736 0.0
H112 H 0.83674 0.40315 0.32871 0.0
H113 H 0.86248 0.40343 0.3317 0.0
C114 C 0.4568 0.88841 0.55226 0.0
C115 C 0.44356 0.88081 0.53673 0.0
C116 C 0.45008 0.91629 0.52707 0.0
C117 C 0.47222 0.92445 0.5228 0.0
C118 C 0.48545 0.94636 0.51853 0.0
C119 C 0.47642 0.96039 0.51853 0.0
C120 C 0.45397 0.95206 0.52231 0.0
C121 C 0.44106 0.93004 0.52642 0.0
C122 C 0.50928 0.9547 0.51437 0.0
C123 C 0.44381 0.96657 0.5224 0.0
C124 C 0.55909 0.03856 0.60547 0.0
C125 C 0.54947 0.05196 0.59848 0.0
C126 C 0.54974 0.05227 0.57011 0.0
C127 C 0.52859 0.04884 0.56643 0.0
C128 C 0.51819 0.03924 0.55201 0.0
C129 C 0.52916 0.03283 0.54116 0.0
C130 C 0.55087 0.03708 0.54464 0.0
C131 C 0.56104 0.04712 0.55903 0.0
C132 C 0.49525 0.03541 0.54854 0.0
C133 C 0.56299 0.03027 0.53343 0.0
C134 C 0.5736 0.12538 0.46023 0.0
C135 C 0.55193 0.11852 0.46493 0.0
C136 C 0.5367 0.09621 0.46688 0.0
C137 C 0.54337 0.08055 0.46414 0.0
C138 C 0.565 0.08741 0.4589 0.0
C139 C 0.57976 0.10978 0.45683 0.0
C140 C 0.51353 0.08937 0.47196 0.0
C141 C 0.5726 0.07115 0.45572 0.0
C142 C 0.42073 0.92971 0.40971 0.0
C143 C 0.44475 0.9432 0.40459 0.0
C144 C 0.46412 0.97948 0.41675 0.0
C145 C 0.45733 0.99299 0.42388 0.0
C146 C 0.46953 0.00701 0.43648 0.0
C147 C 0.48927 0.00784 0.44172 0.0
C148 C 0.4969 0.99515 0.43388 0.0
C149 C 0.48415 0.98098 0.4215 0.0
C150 C 0.46103 0.02048 0.44446 0.0
C151 C 0.51831 0.99627 0.43876 0.0
C152 C 0.49091 0.9841 0.51571 0.0
C153 C 0.50283 0.99752 0.52851 0.0
C154 C 0.51717 0.01995 0.52687 0.0
C155 C 0.51983 0.02942 0.512 0.0
C156 C 0.53415 0.05192 0.50989 0.0
C157 C 0.53691 0.06098 0.49514 0.0
C158 C 0.52519 0.04795 0.48196 0.0
C159 C 0.52786 0.057 0.46691 0.0
C160 C 0.51596 0.04357 0.45408 0.0
C161 C 0.50136 0.02119 0.45582 0.0
C162 C 0.49846 0.01183 0.47077 0.0
C163 C 0.48385 0.98936 0.47294 0.0
C164 C 0.48139 0.98022 0.48763 0.0
C165 C 0.49323 0.99323 0.50075 0.0
C166 C 0.50782 0.01597 0.49888 0.0
C167 C 0.51047 0.02527 0.48386 0.0
C168 C 0.61448 0.17268 0.47718 0.0
C169 C 0.59205 0.16375 0.46875 0.0
O170 O 0.43699 0.89553 0.53214 0.0
O171 O 0.45111 0.96523 0.40528 0.0
O172 O 0.58882 0.14685 0.45861 0.0
O173 O 0.55946 0.06033 0.58433 0.0
H174 H 0.45395 0.87941 0.52753 0.0
H175 H 0.47223 0.90433 0.55093 0.0
H176 H 0.44684 0.89038 0.56151 0.0
H177 H 0.46155 0.8763 0.5561 0.0
H178 H 0.47942 0.91399 0.52294 0.0
H179 H 0.42394 0.92358 0.52959 0.0
H180 H 0.52034 0.96701 0.52332 0.0
H181 H 0.51336 0.94137 0.51371 0.0
H182 H 0.5128 0.96296 0.50292 0.0
H183 H 0.42599 0.9575 0.52533 0.0
H184 H 0.45278 0.98018 0.53108 0.0
H185 H 0.44555 0.97396 0.51073 0.0
H186 H 0.53133 0.04067 0.59673 0.0
H187 H 0.55587 0.02484 0.59732 0.0
H188 H 0.57726 0.04892 0.60744 0.0
H189 H 0.5512 0.03155 0.61679 0.0
H190 H 0.5202 0.05355 0.57489 0.0
H191 H 0.5775 0.05014 0.56197 0.0
H192 H 0.48318 0.01758 0.54872 0.0
H193 H 0.49017 0.04383 0.55722 0.0
H194 H 0.49444 0.04123 0.53666 0.0
H195 H 0.57951 0.03416 0.5381 0.0
H196 H 0.55303 0.01239 0.53091 0.0
H197 H 0.56521 0.03873 0.52216 0.0
H198 H 0.5793 0.15774 0.47797 0.0
H199 H 0.54683 0.13054 0.46692 0.0
H200 H 0.59642 0.11527 0.45295 0.0
H201 H 0.51084 0.08214 0.48375 0.0
H202 H 0.5104 0.10334 0.47244 0.0
H203 H 0.50125 0.07658 0.46377 0.0
H204 H 0.59027 0.07923 0.45241 0.0
H205 H 0.57031 0.06124 0.46627 0.0
H206 H 0.56234 0.05972 0.44608 0.0
H207 H 0.45501 0.93962 0.4128 0.0
H208 H 0.4153 0.91197 0.40936 0.0
H209 H 0.41927 0.93443 0.4219 0.0
H210 H 0.40959 0.93262 0.40195 0.0
H211 H 0.44201 0.99194 0.4199 0.0
H212 H 0.4898 0.9711 0.41552 0.0
H213 H 0.45882 0.0167 0.45711 0.0
H214 H 0.47337 0.03815 0.44351 0.0
H215 H 0.44502 0.01742 0.43929 0.0
H216 H 0.52322 0.98739 0.43036 0.0
H217 H 0.53182 0.0136 0.43978 0.0
H218 H 0.51644 0.98892 0.45045 0.0
H219 H 0.50099 0.99035 0.53996 0.0
H220 H 0.5435 0.06273 0.51963 0.0
H221 H 0.54833 0.07837 0.49421 0.0
H222 H 0.51814 0.05061 0.44257 0.0
H223 H 0.47421 0.97854 0.46329 0.0
H224 H 0.47005 0.96282 0.48858 0.0
H225 H 0.62809 0.17888 0.46864 0.0
H226 H 0.61743 0.18619 0.48547 0.0
H227 H 0.61473 0.15946 0.48395 0.0
C228 C 0.55951 0.44859 0.72044 0.0
C229 C 0.56861 0.4461 0.70477 0.0
C230 C 0.5472 0.45633 0.68759 0.0
C231 C 0.56263 0.47852 0.6855 0.0
C232 C 0.5557 0.49319 0.68083 0.0
C233 C 0.53284 0.48555 0.67848 0.0
C234 C 0.5173 0.46306 0.68024 0.0
C235 C 0.52478 0.44866 0.68447 0.0
C236 C 0.5728 0.51694 0.67871 0.0
C237 C 0.49276 0.45435 0.67813 0.0
C238 C 0.54561 0.57207 0.76525 0.0
C239 C 0.52326 0.5645 0.75702 0.0
C240 C 0.52333 0.56445 0.7286 0.0
C241 C 0.50411 0.5444 0.72518 0.0
C242 C 0.50165 0.53324 0.71092 0.0
C243 C 0.51882 0.54235 0.69993 0.0
C244 C 0.53774 0.56308 0.70307 0.0
C245 C 0.53958 0.57403 0.71732 0.0
C246 C 0.48101 0.51145 0.70777 0.0
C247 C 0.55641 0.57324 0.69166 0.0
C248 C 0.47062 0.58849 0.61933 0.0
C249 C 0.45578 0.5679 0.62526 0.0
C250 C 0.46189 0.55181 0.62679 0.0
C251 C 0.48347 0.5567 0.62265 0.0
C252 C 0.49816 0.57724 0.61618 0.0
C253 C 0.49135 0.59274 0.61436 0.0
C254 C 0.4454 0.52974 0.63303 0.0
C255 C 0.52123 0.58303 0.61151 0.0
C256 C 0.50935 0.43344 0.57393 0.0
C257 C 0.52199 0.45634 0.56709 0.0
C258 C 0.50571 0.47751 0.57637 0.0
C259 C 0.48494 0.47081 0.5826 0.0
C260 C 0.48247 0.48275 0.5949 0.0
C261 C 0.50121 0.50211 0.60073 0.0
C262 C 0.52202 0.50967 0.59371 0.0
C263 C 0.52406 0.49717 0.58166 0.0
C264 C 0.46004 0.47431 0.60203 0.0
C265 C 0.54219 0.53065 0.59924 0.0
C266 C 0.52517 0.50136 0.67526 0.0
C267 C 0.52467 0.51385 0.68789 0.0
C268 C 0.51796 0.52929 0.68591 0.0
C269 C 0.51114 0.53223 0.67093 0.0
C270 C 0.50403 0.54745 0.66855 0.0
C271 C 0.49757 0.55036 0.65372 0.0
C272 C 0.4977 0.53798 0.64071 0.0
C273 C 0.49099 0.5407 0.62559 0.0
C274 C 0.49196 0.52855 0.61287 0.0
C275 C 0.49945 0.51366 0.6148 0.0
C276 C 0.50575 0.51037 0.62988 0.0
C277 C 0.51301 0.49524 0.63228 0.0
C278 C 0.5195 0.49234 0.6471 0.0
C279 C 0.51876 0.50428 0.66013 0.0
C280 C 0.51155 0.51967 0.65799 0.0
C281 C 0.50492 0.52262 0.64286 0.0
C282 C 0.46843 0.63391 0.63383 0.0
C283 C 0.45433 0.60963 0.62934 0.0
O284 O 0.5533 0.44196 0.69279 0.0
O285 O 0.50781 0.46466 0.56541 0.0
O286 O 0.46539 0.60453 0.61818 0.0
O287 O 0.52675 0.57471 0.74273 0.0
H288 H 0.58435 0.46143 0.70253 0.0
H289 H 0.55657 0.46267 0.72012 0.0
H290 H 0.54363 0.43353 0.7229 0.0
H291 H 0.57155 0.45173 0.73016 0.0
H292 H 0.5801 0.48446 0.68738 0.0
H293 H 0.51304 0.43144 0.686 0.0
H294 H 0.57175 0.52692 0.68845 0.0
H295 H 0.5899 0.51961 0.67862 0.0
H296 H 0.56955 0.52294 0.66759 0.0
H297 H 0.48278 0.43686 0.68128 0.0
H298 H 0.48763 0.46408 0.68548 0.0
H299 H 0.48893 0.45598 0.66575 0.0
H300 H 0.51534 0.54641 0.75536 0.0
H301 H 0.54317 0.56417 0.77679 0.0
H302 H 0.55575 0.56739 0.758 0.0
H303 H 0.55484 0.59014 0.76704 0.0
H304 H 0.49114 0.5374 0.73372 0.0
H305 H 0.55419 0.58969 0.72002 0.0
H306 H 0.48526 0.49824 0.70804 0.0
H307 H 0.46809 0.50789 0.71656 0.0
H308 H 0.47409 0.51111 0.69593 0.0
H309 H 0.57015 0.58932 0.69597 0.0
H310 H 0.56305 0.56207 0.6895 0.0
H311 H 0.55012 0.57559 0.68028 0.0
H312 H 0.45228 0.60027 0.64021 0.0
H313 H 0.43941 0.56438 0.6286 0.0
H314 H 0.50251 0.6086 0.60956 0.0
H315 H 0.45035 0.52832 0.64515 0.0
H316 H 0.4284 0.5273 0.63322 0.0
H317 H 0.44518 0.51643 0.62581 0.0
H318 H 0.53127 0.60037 0.60802 0.0
H319 H 0.52989 0.58008 0.62136 0.0
H320 H 0.52022 0.57236 0.6015 0.0
H321 H 0.53589 0.4668 0.5754 0.0
H322 H 0.52048 0.42654 0.57546 0.0
H323 H 0.50289 0.43432 0.58557 0.0
H324 H 0.49515 0.4223 0.56612 0.0
H325 H 0.47084 0.45571 0.57823 0.0
H326 H 0.54 0.5026 0.57641 0.0
H327 H 0.46103 0.47145 0.61469 0.0
H328 H 0.45485 0.48678 0.60101 0.0
H329 H 0.44718 0.45882 0.5963 0.0
H330 H 0.55632 0.53573 0.59127 0.0
H331 H 0.53824 0.54404 0.60018 0.0
H332 H 0.54738 0.52836 0.61107 0.0
H333 H 0.5298 0.51164 0.69945 0.0
H334 H 0.50346 0.55732 0.67814 0.0
H335 H 0.49245 0.56246 0.6526 0.0
H336 H 0.4871 0.53092 0.60127 0.0
H337 H 0.51379 0.48545 0.62272 0.0
H338 H 0.52508 0.48059 0.64821 0.0
H339 H 0.47104 0.64423 0.62346 0.0
H340 H 0.46028 0.63845 0.64307 0.0
H341 H 0.48483 0.63735 0.63847 0.0
C342 C 0.13428 0.55988 0.88982 0.0
C343 C 0.14379 0.57341 0.875 0.0
C344 C 0.11051 0.55357 0.85844 0.0
C345 C 0.10127 0.56712 0.86016 0.0
C346 C 0.07875 0.55912 0.85673 0.0
C347 C 0.06519 0.53702 0.85176 0.0
C348 C 0.07454 0.52335 0.85 0.0
C349 C 0.09724 0.53201 0.85303 0.0
C350 C 0.06943 0.57425 0.85848 0.0
C351 C 0.06054 0.49954 0.84515 0.0
C352 C 0.92877 0.46158 0.93396 0.0
C353 C 0.94299 0.46454 0.92032 0.0
C354 C 0.96476 0.49146 0.90078 0.0
C355 C 0.96835 0.47684 0.89164 0.0
C356 C 0.98126 0.48388 0.87821 0.0
C357 C 0.99067 0.50595 0.87374 0.0
C358 C 0.987 0.52069 0.88282 0.0
C359 C 0.97406 0.51322 0.89625 0.0
C360 C 0.98489 0.46773 0.86881 0.0
C361 C 0.99677 0.54431 0.87833 0.0
C362 C 0.89719 0.47485 0.79596 0.0
C363 C 0.90533 0.46038 0.79771 0.0
C364 C 0.92816 0.46806 0.79748 0.0
C365 C 0.94306 0.4907 0.79567 0.0
C366 C 0.93476 0.50503 0.79288 0.0
C367 C 0.91182 0.49681 0.79286 0.0
C368 C 0.93639 0.45216 0.79983 0.0
C369 C 0.95016 0.52919 0.79066 0.0
C370 C 0.09726 0.53763 0.75089 0.0
C371 C 0.0851 0.5454 0.73998 0.0
C372 C 0.04748 0.52537 0.74924 0.0
C373 C 0.03448 0.50407 0.75453 0.0
C374 C 0.01952 0.49957 0.76667 0.0
C375 C 0.0172 0.51677 0.77333 0.0
C376 C 0.02924 0.53808 0.76725 0.0
C377 C 0.04437 0.54218 0.7553 0.0
C378 C 0.0068 0.47662 0.77278 0.0
C379 C 0.02659 0.55662 0.7737 0.0
C380 C 0.04118 0.52813 0.84871 0.0
C381 C 0.02733 0.52227 0.86158 0.0
C382 C 0.00451 0.51351 0.85962 0.0
C383 C 0.99515 0.51073 0.84441 0.0
C384 C 0.97235 0.50251 0.84204 0.0
C385 C 0.96321 0.49925 0.82702 0.0
C386 C 0.97645 0.50373 0.81374 0.0
C387 C 0.96716 0.49971 0.7984 0.0
C388 C 0.98078 0.50421 0.78547 0.0
C389 C 0.00361 0.51285 0.78745 0.0
C390 C 0.01322 0.51723 0.8027 0.0
C391 C 0.03617 0.52621 0.80511 0.0
C392 C 0.04543 0.53027 0.82014 0.0
C393 C 0.03206 0.52497 0.83337 0.0
C394 C 0.00894 0.51614 0.83123 0.0
C395 C 0.99954 0.51243 0.81588 0.0
C396 C 0.85144 0.4646 0.81818 0.0
C397 C 0.86172 0.45368 0.80854 0.0
O398 O 0.13209 0.56065 0.86201 0.0
O399 O 0.06301 0.52929 0.7384 0.0
O400 O 0.87541 0.46822 0.79749 0.0
O401 O 0.95254 0.48523 0.91398 0.0
H402 H 0.14228 0.58833 0.87578 0.0
H403 H 0.11625 0.55381 0.89042 0.0
H404 H 0.13687 0.54556 0.8897 0.0
H405 H 0.14204 0.56989 0.90061 0.0
H406 H 0.1116 0.58401 0.86395 0.0
H407 H 0.10461 0.52174 0.8517 0.0
H408 H 0.05788 0.56892 0.86841 0.0
H409 H 0.08257 0.59152 0.86073 0.0
H410 H 0.05988 0.57343 0.84775 0.0
H411 H 0.06966 0.49047 0.84647 0.0
H412 H 0.04537 0.49148 0.85224 0.0
H413 H 0.05525 0.49828 0.8327 0.0
H414 H 0.95503 0.45868 0.92208 0.0
H415 H 0.93736 0.45877 0.94416 0.0
H416 H 0.93293 0.47847 0.9381 0.0
H417 H 0.89702 0.43795 0.92587 0.0
H418 H 0.96117 0.45989 0.89489 0.0
H419 H 0.97118 0.52439 0.90332 0.0
H420 H 0.97781 0.4659 0.8568 0.0
H421 H 0.00291 0.47395 0.86771 0.0
H422 H 0.97716 0.45134 0.87417 0.0
H423 H 0.99171 0.55353 0.88628 0.0
H424 H 0.01511 0.55238 0.87861 0.0
H425 H 0.99151 0.54519 0.86617 0.0
H426 H 0.87147 0.44972 0.81699 0.0
H427 H 0.89387 0.44317 0.79948 0.0
H428 H 0.90527 0.50773 0.7912 0.0
H429 H 0.94378 0.45459 0.81178 0.0
H430 H 0.92286 0.43487 0.79848 0.0
H431 H 0.9495 0.45519 0.79133 0.0
H432 H 0.94106 0.53813 0.78853 0.0
H433 H 0.96101 0.53643 0.80122 0.0
H434 H 0.961 0.53164 0.78059 0.0
H435 H 0.08656 0.56059 0.74523 0.0
H436 H 0.11505 0.5503 0.75207 0.0
H437 H 0.08999 0.53465 0.76271 0.0
H438 H 0.09585 0.52217 0.74629 0.0
H439 H 0.03679 0.49116 0.74957 0.0
H440 H 0.05378 0.55851 0.75072 0.0
H441 H 0.01094 0.4767 0.78538 0.0
H442 H 0.98875 0.47055 0.77176 0.0
H443 H 0.01047 0.46507 0.76633 0.0
H444 H 0.03503 0.57149 0.76649 0.0
H445 H 0.00876 0.5515 0.77434 0.0
H446 H 0.03371 0.5609 0.78578 0.0
H447 H 0.03437 0.52423 0.87329 0.0
H448 H 0.96131 0.49851 0.8518 0.0
H449 H 0.94556 0.49294 0.82597 0.0
H450 H 0.97352 0.50089 0.77375 0.0
H451 H 0.04728 0.53024 0.7954 0.0
H452 H 0.0632 0.53735 0.82125 0.0
H453 H 0.84035 0.45322 0.82711 0.0
H454 H 0.86471 0.47944 0.82432 0.0
H455 H 0.84178 0.46958 0.81054 0.0
C456 C 0.46192 0.89902 0.92396 0.0
C457 C 0.45533 0.88937 0.94033 0.0
C458 C 0.47774 0.92343 0.95562 0.0
C459 C 0.46328 0.93183 0.95441 0.0
C460 C 0.4705 0.95379 0.95836 0.0
C461 C 0.49271 0.96773 0.96341 0.0
C462 C 0.50721 0.95923 0.96488 0.0
C463 C 0.49937 0.93706 0.96122 0.0
C464 C 0.45449 0.96221 0.95689 0.0
C465 C 0.53113 0.97367 0.96991 0.0
C466 C 0.56502 0.09861 0.87879 0.0
C467 C 0.56239 0.08539 0.89286 0.0
C468 C 0.53607 0.06559 0.91331 0.0
C469 C 0.55107 0.06227 0.92238 0.0
C470 C 0.54431 0.04994 0.93601 0.0
C471 C 0.52212 0.04076 0.94074 0.0
C472 C 0.50701 0.04423 0.93176 0.0
C473 C 0.51423 0.05668 0.91816 0.0
C474 C 0.56087 0.04663 0.94537 0.0
C475 C 0.48326 0.03472 0.93654 0.0
C476 C 0.55292 0.13462 0.01804 0.0
C477 C 0.56719 0.12603 0.01722 0.0
C478 C 0.55881 0.10334 0.01732 0.0
C479 C 0.53568 0.08902 0.01821 0.0
C480 C 0.52144 0.09773 0.02006 0.0
C481 C 0.53033 0.12052 0.02012 0.0
C482 C 0.57456 0.09463 0.0159 0.0
C483 C 0.49676 0.08294 0.02128 0.0
C484 C 0.5045 0.94563 0.06761 0.0
C485 C 0.48901 0.95193 0.07585 0.0
C486 C 0.50287 0.98863 0.06673 0.0
C487 C 0.52435 0.00293 0.06191 0.0
C488 C 0.5281 0.01664 0.04918 0.0
C489 C 0.50989 0.01643 0.04149 0.0
C490 C 0.4882 0.0029 0.04701 0.0
C491 C 0.48491 0.98887 0.05948 0.0
C492 C 0.55145 0.03089 0.0437 0.0
C493 C 0.4685 0.00287 0.03952 0.0
C494 C 0.50101 0.99142 0.9663 0.0
C495 C 0.50669 0.00486 0.95329 0.0
C496 C 0.51479 0.02734 0.955 0.0
C497 C 0.51708 0.03677 0.97008 0.0
C498 C 0.52484 0.05927 0.97218 0.0
C499 C 0.52756 0.06851 0.98709 0.0
C500 C 0.52286 0.05567 0.0005 0.0
C501 C 0.52631 0.06509 0.01573 0.0
C502 C 0.52151 0.05187 0.02882 0.0
C503 C 0.51345 0.02936 0.02713 0.0
C504 C 0.50988 0.01965 0.01198 0.0
C505 C 0.50187 0.99707 0.00983 0.0
C506 C 0.49851 0.9877 0.99489 0.0
C507 C 0.50361 0.00062 0.98152 0.0
C508 C 0.51169 0.0234 0.9834 0.0
C509 C 0.51469 0.03289 0.99864 0.0
C510 C 0.56362 0.17655 0.99369 0.0
C511 C 0.5754 0.16945 0.00548 0.0
O512 O 0.47167 0.90251 0.95128 0.0
O513 O 0.49974 0.97443 0.07826 0.0
O514 O 0.56046 0.15635 0.01659 0.0
O515 O 0.54201 0.07716 0.89987 0.0
H516 H 0.43938 0.88823 0.94349 0.0
H517 H 0.46369 0.91554 0.92366 0.0
H518 H 0.47793 0.9004 0.92068 0.0
H519 H 0.44903 0.88852 0.91509 0.0
H520 H 0.44636 0.92142 0.95037 0.0
H521 H 0.51037 0.93041 0.9622 0.0
H522 H 0.45937 0.97371 0.94703 0.0
H523 H 0.43719 0.94879 0.95471 0.0
H524 H 0.45508 0.97138 0.96772 0.0
H525 H 0.54071 0.965 0.96912 0.0
H526 H 0.53908 0.98839 0.96253 0.0
H527 H 0.53204 0.97938 0.9822 0.0
H528 H 0.56753 0.07284 0.89132 0.0
H529 H 0.56676 0.08903 0.86882 0.0
H530 H 0.54791 0.09492 0.87508 0.0
H531 H 0.59026 0.1301 0.88553 0.0
H532 H 0.56811 0.06923 0.9189 0.0
H533 H 0.50278 0.05937 0.91116 0.0
H534 H 0.56244 0.0533 0.95745 0.0
H535 H 0.55494 0.02886 0.94625 0.0
H536 H 0.5775 0.05472 0.94007 0.0
H537 H 0.47366 0.03924 0.92847 0.0
H538 H 0.47518 0.01659 0.93676 0.0
H539 H 0.48269 0.04054 0.94857 0.0
H540 H 0.58139 0.16008 0.99849 0.0
H541 H 0.58484 0.13704 0.01628 0.0
H542 H 0.51953 0.12739 0.02106 0.0
H543 H 0.5723 0.08669 0.0042 0.0
H544 H 0.59213 0.10778 0.01733 0.0
H545 H 0.57092 0.08202 0.02483 0.0
H546 H 0.48797 0.09228 0.023 0.0
H547 H 0.49012 0.07267 0.01044 0.0
H548 H 0.49314 0.07174 0.03122 0.0
H549 H 0.47398 0.94656 0.06828 0.0
H550 H 0.49616 0.92763 0.06556 0.0
H551 H 0.50919 0.95356 0.05606 0.0
H552 H 0.51981 0.95098 0.0748 0.0
H553 H 0.53808 0.00267 0.06778 0.0
H554 H 0.46836 0.97803 0.06356 0.0
H555 H 0.55239 0.02778 0.03103 0.0
H556 H 0.5563 0.04838 0.04524 0.0
H557 H 0.56357 0.02799 0.05025 0.0
H558 H 0.45345 0.99419 0.04668 0.0
H559 H 0.47212 0.01992 0.03776 0.0
H560 H 0.46493 0.99461 0.02784 0.0
H561 H 0.50509 0.99778 0.94166 0.0
H562 H 0.52892 0.07 0.9623 0.0
H563 H 0.53358 0.08592 0.98793 0.0
H564 H 0.52441 0.05925 0.04045 0.0
H565 H 0.49806 0.98633 0.01967 0.0
H566 H 0.49214 0.97023 0.99397 0.0
H567 H 0.55573 0.1849 0.99965 0.0
H568 H 0.57553 0.18776 0.98504 0.0
H569 H 0.55047 0.16193 0.98726 0.0
C570 C 0.56917 0.45585 0.09796 0.0
C571 C 0.58089 0.45883 0.1139 0.0
C572 C 0.575 0.48761 0.12551 0.0
C573 C 0.55233 0.47423 0.12845 0.0
C574 C 0.53939 0.48345 0.13285 0.0
C575 C 0.5493 0.50646 0.1344 0.0
C576 C 0.57227 0.5199 0.13211 0.0
C577 C 0.58484 0.51025 0.12778 0.0
C578 C 0.51496 0.46865 0.13542 0.0
C579 C 0.58338 0.54449 0.13376 0.0
C580 C 0.4917 0.5222 0.04704 0.0
C581 C 0.49537 0.54428 0.05318 0.0
C582 C 0.4894 0.53937 0.08104 0.0
C583 C 0.5097 0.55555 0.08751 0.0
C584 C 0.51688 0.55295 0.10231 0.0
C585 C 0.50347 0.53372 0.11071 0.0
C586 C 0.48256 0.51779 0.10445 0.0
C587 C 0.47564 0.52101 0.08973 0.0
C588 C 0.53904 0.57048 0.10881 0.0
C589 C 0.4679 0.49706 0.11307 0.0
C590 C 0.44438 0.56916 0.18853 0.0
C591 C 0.46658 0.58445 0.18567 0.0
C592 C 0.48272 0.57811 0.18561 0.0
C593 C 0.47636 0.55594 0.18814 0.0
C594 C 0.45415 0.54078 0.19179 0.0
C595 C 0.43851 0.54774 0.19219 0.0
C596 C 0.50642 0.59495 0.18238 0.0
C597 C 0.44677 0.51709 0.19479 0.0
C598 C 0.57978 0.50304 0.23209 0.0
C599 C 0.56035 0.4961 0.24313 0.0
C600 C 0.54528 0.51904 0.23533 0.0
C601 C 0.55503 0.54075 0.23063 0.0
C602 C 0.54514 0.54682 0.21879 0.0
C603 C 0.52484 0.53078 0.2118 0.0
C604 C 0.51408 0.50916 0.21742 0.0
C605 C 0.52446 0.50351 0.22914 0.0
C606 C 0.55688 0.57006 0.2132 0.0
C607 C 0.4921 0.49182 0.21056 0.0
C608 C 0.53529 0.51648 0.13708 0.0
C609 C 0.526 0.5206 0.12392 0.0
C610 C 0.51218 0.52951 0.12536 0.0
C611 C 0.50722 0.53433 0.14036 0.0
C612 C 0.493 0.54288 0.14224 0.0
C613 C 0.48796 0.54724 0.15708 0.0
C614 C 0.49736 0.54371 0.17062 0.0
C615 C 0.49242 0.54819 0.18579 0.0
C616 C 0.50195 0.5443 0.19898 0.0
C617 C 0.51618 0.53582 0.19745 0.0
C618 C 0.52135 0.5313 0.1824 0.0
C619 C 0.53559 0.52272 0.18047 0.0
C620 C 0.54018 0.51783 0.16565 0.0
C621 C 0.53087 0.52152 0.15218 0.0
C622 C 0.51669 0.5304 0.15383 0.0
C623 C 0.51188 0.53525 0.16896 0.0
C624 C 0.40392 0.57466 0.16809 0.0
C625 C 0.42652 0.58754 0.17639 0.0
O626 O 0.58787 0.47955 0.1202 0.0
O627 O 0.55649 0.51338 0.24558 0.0
O628 O 0.42825 0.57454 0.18773 0.0
O629 O 0.48284 0.54106 0.0664 0.0
H630 H 0.56936 0.44624 0.12206 0.0
H631 H 0.55394 0.45692 0.09925 0.0
H632 H 0.58026 0.46869 0.08979 0.0
H633 H 0.56426 0.4395 0.09274 0.0
H634 H 0.5445 0.45664 0.1271 0.0
H635 H 0.60237 0.52043 0.12566 0.0
H636 H 0.50532 0.4717 0.12636 0.0
H637 H 0.51003 0.45105 0.13485 0.0
H638 H 0.51046 0.4724 0.14701 0.0
H639 H 0.60157 0.55259 0.13229 0.0
H640 H 0.57636 0.55078 0.12485 0.0
H641 H 0.58003 0.54909 0.14546 0.0
H642 H 0.51331 0.55494 0.05605 0.0
H643 H 0.50163 0.52445 0.03644 0.0
H644 H 0.49698 0.5145 0.05611 0.0
H645 H 0.47391 0.51096 0.04408 0.0
H646 H 0.51995 0.57015 0.08097 0.0
H647 H 0.45985 0.50879 0.08464 0.0
H648 H 0.53733 0.57493 0.12102 0.0
H649 H 0.5507 0.56409 0.10909 0.0
H650 H 0.54631 0.58547 0.10168 0.0
H651 H 0.45219 0.48621 0.10653 0.0
H652 H 0.47682 0.48793 0.1151 0.0
H653 H 0.4639 0.50119 0.1247 0.0
H654 H 0.43916 0.59154 0.16723 0.0
H655 H 0.47126 0.60129 0.18342 0.0
H656 H 0.42137 0.5362 0.19468 0.0
H657 H 0.5105 0.59229 0.17033 0.0
H658 H 0.50935 0.61191 0.18339 0.0
H659 H 0.51786 0.59321 0.19062 0.0
H660 H 0.42861 0.50709 0.19641 0.0
H661 H 0.4514 0.50996 0.18488 0.0
H662 H 0.45532 0.516 0.2055 0.0
H663 H 0.54558 0.4819 0.23754 0.0
H664 H 0.58325 0.48943 0.23026 0.0
H665 H 0.57566 0.50728 0.22053 0.0
H666 H 0.59492 0.51758 0.23696 0.0
H667 H 0.57094 0.55269 0.23572 0.0
H668 H 0.51641 0.4869 0.23331 0.0
H669 H 0.56184 0.57028 0.20087 0.0
H670 H 0.5455 0.57678 0.21345 0.0
H671 H 0.5719 0.58088 0.22043 0.0
H672 H 0.48473 0.47654 0.21737 0.0
H673 H 0.48029 0.49803 0.21013 0.0
H674 H 0.49438 0.48783 0.19836 0.0
H675 H 0.52958 0.51678 0.11235 0.0
H676 H 0.48543 0.54609 0.13224 0.0
H677 H 0.47663 0.55348 0.15776 0.0
H678 H 0.49791 0.54751 0.21058 0.0
H679 H 0.54331 0.51957 0.1904 0.0
H680 H 0.55114 0.51115 0.16488 0.0
H681 H 0.39034 0.5697 0.17656 0.0
H682 H 0.40215 0.58472 0.15889 0.0
H683 H 0.40229 0.55966 0.16241 0.0
Mn684 Mn 0.62011 0.39921 0.40881 0.0
Mn685 Mn 0.64749 0.45332 0.41748 0.0
C686 C 0.60575 0.41316 0.42678 0.0
C687 C 0.6154 0.36464 0.41332 0.0
C688 C 0.62065 0.4336 0.38734 0.0
O689 O 0.65073 0.4098 0.40024 0.0
O690 O 0.66879 0.44484 0.40909 0.0
C691 C 0.67624 0.45434 0.44363 0.0
N692 N 0.66045 0.45861 0.43805 0.0
C693 C 0.65854 0.47381 0.46296 0.0
C694 C 0.67491 0.46973 0.46895 0.0
C695 C 0.68376 0.45991 0.45924 0.0
C696 C 0.65182 0.46805 0.44728 0.0
H697 H 0.68301 0.4467 0.43623 0.0
C698 C 0.66832 0.42833 0.40222 0.0
O699 O 0.60938 0.3691 0.40005 0.0
O700 O 0.62421 0.38027 0.4238 0.0
N701 N 0.62891 0.46359 0.42585 0.0
C702 C 0.61235 0.46525 0.41855 0.0
C703 C 0.60126 0.47411 0.42679 0.0
C704 C 0.60737 0.48126 0.44242 0.0
C705 C 0.62458 0.47956 0.44965 0.0
C706 C 0.63518 0.47077 0.4408 0.0
H707 H 0.60754 0.45975 0.40655 0.0
O708 O 0.59308 0.39426 0.42 0.0
O709 O 0.62648 0.42309 0.42301 0.0
O710 O 0.61295 0.41354 0.39071 0.0
O711 O 0.63425 0.44951 0.39626 0.0
C712 C 0.63134 0.48581 0.46538 0.0
C713 C 0.6483 0.48293 0.47203 0.0
H714 H 0.68064 0.47386 0.48101 0.0
H715 H 0.69631 0.4566 0.4638 0.0
H716 H 0.58797 0.47534 0.42114 0.0
H717 H 0.59864 0.4879 0.44879 0.0
H718 H 0.62338 0.49255 0.47253 0.0
H719 H 0.65313 0.48751 0.4842 0.0
Mn720 Mn 0.23272 0.6306 0.57209 0.0
Mn721 Mn 0.20658 0.57634 0.5639 0.0
C722 C 0.2032 0.61546 0.55454 0.0
C723 C 0.26174 0.66577 0.56755 0.0
C724 C 0.19971 0.59578 0.59378 0.0
O725 O 0.25411 0.6214 0.58043 0.0
O726 O 0.23678 0.58594 0.57272 0.0
C727 C 0.23487 0.57646 0.53833 0.0
N728 N 0.21452 0.57132 0.54358 0.0
C729 C 0.19733 0.55476 0.51872 0.0
C730 C 0.21808 0.55973 0.51307 0.0
C731 C 0.23694 0.57069 0.52291 0.0
C732 C 0.19628 0.56088 0.5342 0.0
H733 H 0.24942 0.58492 0.54584 0.0
C734 C 0.25326 0.60298 0.57904 0.0
O735 O 0.25177 0.66079 0.58087 0.0
O736 O 0.25488 0.6503 0.55695 0.0
N737 N 0.17738 0.56478 0.55511 0.0
C738 C 0.15881 0.56231 0.56206 0.0
C739 C 0.13862 0.55231 0.5536 0.0
C740 C 0.13767 0.54473 0.53817 0.0
C741 C 0.15694 0.54721 0.53133 0.0
C742 C 0.17658 0.55729 0.54033 0.0
H743 H 0.15943 0.56807 0.57392 0.0
O744 O 0.20938 0.6343 0.56128 0.0
O745 O 0.21483 0.60625 0.55803 0.0
O746 O 0.21228 0.61582 0.59042 0.0
O747 O 0.1969 0.57985 0.58488 0.0
C748 C 0.1575 0.54038 0.51586 0.0
C749 C 0.17769 0.54425 0.50953 0.0
H750 H 0.21975 0.55536 0.50117 0.0
H751 H 0.25303 0.57468 0.51861 0.0
H752 H 0.12382 0.55047 0.55895 0.0
H753 H 0.1221 0.53715 0.53164 0.0
H754 H 0.14253 0.53233 0.50866 0.0
H755 H 0.17796 0.53923 0.49754 0.0
Mn756 Mn 0.61948 0.242 0.73841 0.0
Mn757 Mn 0.64813 0.21574 0.73262 0.0
C758 C 0.60578 0.21267 0.72102 0.0
C759 C 0.61343 0.27082 0.73283 0.0
C760 C 0.62114 0.21034 0.76156 0.0
O761 O 0.65005 0.26306 0.74752 0.0
O762 O 0.6688 0.24603 0.74063 0.0
C763 C 0.6764 0.24157 0.70662 0.0
N764 N 0.66111 0.22195 0.71243 0.0
C765 C 0.66055 0.20296 0.68867 0.0
C766 C 0.67638 0.22296 0.68247 0.0
C767 C 0.68429 0.24235 0.69147 0.0
C768 C 0.65333 0.20321 0.70385 0.0
H769 H 0.68251 0.2565 0.71351 0.0
C770 C 0.66792 0.26235 0.74658 0.0
O771 O 0.60804 0.26106 0.74617 0.0
O772 O 0.62242 0.26388 0.72275 0.0
N773 N 0.63031 0.18633 0.72479 0.0
C774 C 0.61424 0.16859 0.73219 0.0
C775 C 0.60434 0.14793 0.72469 0.0
C776 C 0.61116 0.1457 0.70972 0.0
C777 C 0.6277 0.16418 0.70233 0.0
C778 C 0.63713 0.18431 0.71045 0.0
H779 H 0.60903 0.17017 0.74374 0.0
O780 O 0.5927 0.21892 0.72687 0.0
O781 O 0.62653 0.22401 0.72534 0.0
O782 O 0.61294 0.222 0.75708 0.0
O783 O 0.63507 0.20776 0.75359 0.0
C784 C 0.63501 0.16347 0.68715 0.0
C785 C 0.65137 0.18286 0.68031 0.0
H786 H 0.68246 0.22364 0.67076 0.0
H787 H 0.69645 0.25785 0.68673 0.0
H788 H 0.59153 0.13375 0.73045 0.0
H789 H 0.60355 0.12971 0.70401 0.0
H790 H 0.62793 0.14815 0.68055 0.0
H791 H 0.65662 0.18216 0.66854 0.0
Mn792 Mn 0.41113 0.63685 0.90507 0.0
Mn793 Mn 0.38114 0.5818 0.90708 0.0
C794 C 0.42302 0.61853 0.92137 0.0
C795 C 0.41801 0.67158 0.91259 0.0
C796 C 0.41081 0.60558 0.87997 0.0
O797 O 0.38134 0.62959 0.89532 0.0
O798 O 0.36207 0.59341 0.89965 0.0
C799 C 0.35095 0.57798 0.93245 0.0
N800 N 0.36588 0.57302 0.92635 0.0
C801 C 0.35987 0.54776 0.94689 0.0
C802 C 0.34426 0.55242 0.95334 0.0
C803 C 0.33995 0.56778 0.94617 0.0
C804 C 0.37064 0.5588 0.93341 0.0
H805 H 0.34743 0.58958 0.92685 0.0
C806 C 0.36337 0.61121 0.8951 0.0
O807 O 0.42396 0.66787 0.8991 0.0
O808 O 0.40808 0.65508 0.92182 0.0
N809 N 0.3971 0.56799 0.91425 0.0
C810 C 0.41376 0.5666 0.90719 0.0
C811 C 0.42061 0.55244 0.91316 0.0
C812 C 0.40992 0.5395 0.92608 0.0
C813 C 0.39285 0.54129 0.93319 0.0
C814 C 0.38703 0.55596 0.92689 0.0
H815 H 0.42159 0.57603 0.89698 0.0
O816 O 0.43676 0.63815 0.91676 0.0
O817 O 0.40257 0.61033 0.91658 0.0
O818 O 0.41848 0.62486 0.88561 0.0
O819 O 0.39627 0.58854 0.8868 0.0
C820 C 0.38133 0.52903 0.94622 0.0
C821 C 0.36513 0.53255 0.95324 0.0
H822 H 0.33556 0.54439 0.96381 0.0
H823 H 0.32801 0.57155 0.95111 0.0
H824 H 0.43384 0.5512 0.90765 0.0
H825 H 0.41504 0.52837 0.93052 0.0
H826 H 0.38513 0.5172 0.95116 0.0
H827 H 0.35683 0.52347 0.96352 0.0
Mn828 Mn 0.78877 0.41299 0.07535 0.0
Mn829 Mn 0.813 0.3823 0.08047 0.0
C830 C 0.81893 0.42542 0.09226 0.0
C831 C 0.76105 0.4209 0.0814 0.0
C832 C 0.81977 0.40988 0.05184 0.0
O833 O 0.76591 0.38317 0.06642 0.0
O834 O 0.78225 0.36347 0.07214 0.0
C835 C 0.7853 0.35443 0.10597 0.0
N836 N 0.80562 0.36863 0.10035 0.0
C837 C 0.82375 0.36607 0.12371 0.0
C838 C 0.80301 0.35131 0.12972 0.0
C839 C 0.7837 0.34553 0.12083 0.0
C840 C 0.82429 0.3744 0.10883 0.0
H841 H 0.77043 0.34993 0.09915 0.0
C842 C 0.76594 0.36513 0.06677 0.0
O843 O 0.77069 0.42583 0.06796 0.0
O844 O 0.76757 0.4114 0.09133 0.0
N845 N 0.84275 0.39797 0.08854 0.0
C846 C 0.86133 0.41335 0.08143 0.0
C847 C 0.88208 0.42097 0.0888 0.0
C848 C 0.88351 0.41261 0.10333 0.0
C849 C 0.86416 0.397 0.1105 0.0
C850 C 0.84399 0.38977 0.1025 0.0
H851 H 0.86035 0.41961 0.07016 0.0
O852 O 0.81326 0.4389 0.0865 0.0
O853 O 0.80645 0.40486 0.08818 0.0
O854 O 0.80826 0.4183 0.05634 0.0
O855 O 0.82206 0.3959 0.0598 0.0
C856 C 0.86408 0.38847 0.12534 0.0
C857 C 0.84387 0.37311 0.13198 0.0
H858 H 0.80171 0.34445 0.14119 0.0
H859 H 0.76764 0.33423 0.12542 0.0
H860 H 0.89695 0.43316 0.08325 0.0
H861 H 0.89956 0.41841 0.10893 0.0
H862 H 0.87943 0.39385 0.13184 0.0
H863 H 0.84399 0.36693 0.1435 0.0
Mn864 Mn 0.39796 0.80057 0.24214 0.0
Mn865 Mn 0.45315 0.82561 0.24861 0.0
C866 C 0.41463 0.82976 0.25958 0.0
C867 C 0.36257 0.77216 0.24745 0.0
C868 C 0.43193 0.83207 0.2195 0.0
O869 O 0.4065 0.77911 0.23307 0.0
O870 O 0.44249 0.79535 0.2404 0.0
C871 C 0.45452 0.79885 0.27453 0.0
N872 N 0.45946 0.81873 0.2689 0.0
C873 C 0.47761 0.83685 0.29317 0.0
C874 C 0.47285 0.81659 0.29921 0.0
C875 C 0.4612 0.79751 0.28985 0.0
C876 C 0.47061 0.83718 0.2778 0.0
H877 H 0.44552 0.78414 0.26739 0.0
C878 C 0.42488 0.77934 0.23423 0.0
O879 O 0.36697 0.78208 0.23416 0.0
O880 O 0.37876 0.7787 0.25759 0.0
N881 N 0.46556 0.85492 0.25672 0.0
C882 C 0.46764 0.87294 0.24948 0.0
C883 C 0.47824 0.89328 0.25746 0.0
C884 C 0.48674 0.89492 0.27272 0.0
C885 C 0.48459 0.87619 0.27986 0.0
C886 C 0.47393 0.85637 0.27133 0.0
H887 H 0.46114 0.87178 0.23776 0.0
O888 O 0.39519 0.82383 0.25358 0.0
O889 O 0.42344 0.81803 0.25547 0.0
O890 O 0.4119 0.8209 0.22374 0.0
O891 O 0.44844 0.83408 0.22753 0.0
C892 C 0.49229 0.87634 0.29521 0.0
C893 C 0.48872 0.85667 0.30189 0.0
H894 H 0.47789 0.81547 0.31104 0.0
H895 H 0.45737 0.7818 0.29446 0.0
H896 H 0.4798 0.90766 0.25187 0.0
H897 H 0.49476 0.91061 0.27887 0.0
H898 H 0.50075 0.89144 0.30205 0.0
H899 H 0.4944 0.85694 0.31379 0.0
H900 H 0.15637 0.63099 0.26926 0.0
H901 H 0.19265 0.66256 0.26373 0.0
H902 H 0.22456 0.62778 0.28085 0.0
H903 H 0.18834 0.5962 0.28652 0.0
H904 H 0.2312 0.6871 0.28549 0.0
H905 H 0.24682 0.64651 0.23499 0.0
H906 H 0.21948 0.63694 0.24254 0.0
H907 H 0.23861 0.63121 0.25274 0.0
C908 C 0.17114 0.63023 0.2721 0.0
C909 C 0.16957 0.61131 0.27866 0.0
C910 C 0.1918 0.64821 0.26887 0.0
C911 C 0.21119 0.6474 0.27183 0.0
C912 C 0.20973 0.62863 0.27842 0.0
H913 H 0.34853 0.74983 0.27465 0.0
H914 H 0.31139 0.72012 0.28046 0.0
C915 C 0.1891 0.6107 0.28175 0.0
C916 C 0.23297 0.66606 0.2678 0.0
H917 H 0.27642 0.68106 0.24343 0.0
C918 C 0.2411 0.68585 0.27628 0.0
C919 C 0.24564 0.66437 0.25565 0.0
C920 C 0.2372 0.6437 0.24583 0.0
C921 C 0.26189 0.70393 0.27312 0.0
C922 C 0.27485 0.70203 0.26128 0.0
C923 C 0.26648 0.68238 0.25258 0.0
C924 C 0.29725 0.7202 0.2578 0.0
C925 C 0.26974 0.72497 0.28239 0.0
C926 C 0.30168 0.72976 0.24302 0.0
C927 C 0.32291 0.74671 0.23964 0.0
C928 C 0.34009 0.75423 0.25095 0.0
C929 C 0.33562 0.74446 0.2657 0.0
C930 C 0.31439 0.72757 0.26908 0.0
H931 H 0.25586 0.72546 0.28824 0.0
H932 H 0.2818 0.72639 0.29157 0.0
H933 H 0.27816 0.73936 0.27473 0.0
H934 H 0.28866 0.72417 0.23413 0.0
H935 H 0.32584 0.75386 0.22815 0.0
H936 H 0.60888 0.17974 0.43971 0.0
H937 H 0.61095 0.21152 0.42676 0.0
H938 H 0.57724 0.22116 0.46535 0.0
H939 H 0.57472 0.18916 0.47816 0.0
H940 H 0.56258 0.22696 0.43601 0.0
H941 H 0.65439 0.27394 0.44226 0.0
H942 H 0.64317 0.24815 0.43189 0.0
H943 H 0.63762 0.24873 0.45231 0.0
C944 C 0.60154 0.18841 0.44526 0.0
C945 C 0.59137 0.18183 0.45985 0.0
C946 C 0.6029 0.20664 0.43793 0.0
C947 C 0.59447 0.21882 0.44519 0.0
C948 C 0.58381 0.21195 0.45954 0.0
H949 H 0.62731 0.35192 0.43988 0.0
H950 H 0.62161 0.31577 0.44583 0.0
C951 C 0.58237 0.19369 0.46684 0.0
C952 C 0.59765 0.23936 0.43831 0.0
H953 H 0.63737 0.29153 0.42991 0.0
C954 C 0.57892 0.24104 0.43453 0.0
C955 C 0.619 0.25775 0.43657 0.0
C956 C 0.63973 0.25723 0.44108 0.0
C957 C 0.58096 0.26075 0.42928 0.0
C958 C 0.60232 0.27914 0.4276 0.0
C959 C 0.62103 0.27733 0.4311 0.0
C960 C 0.60567 0.30095 0.42358 0.0
C961 C 0.5603 0.26203 0.4262 0.0
C962 C 0.59876 0.30466 0.409 0.0
C963 C 0.60198 0.3254 0.40554 0.0
C964 C 0.61223 0.34273 0.4166 0.0
C965 C 0.61932 0.33894 0.4311 0.0
C966 C 0.61611 0.31829 0.43453 0.0
H967 H 0.54533 0.24771 0.43085 0.0
H968 H 0.56193 0.2772 0.43157 0.0
H969 H 0.55783 0.2625 0.41339 0.0
H970 H 0.59097 0.29156 0.4003 0.0
H971 H 0.59641 0.32785 0.39425 0.0
H972 H 0.44069 0.61005 0.59877 0.0
H973 H 0.40531 0.6058 0.58973 0.0
H974 H 0.38269 0.59626 0.63727 0.0
H975 H 0.41771 0.59958 0.64628 0.0
H976 H 0.35004 0.56893 0.61731 0.0
H977 H 0.39014 0.65347 0.59502 0.0
H978 H 0.40006 0.63696 0.58607 0.0
H979 H 0.40495 0.64363 0.60667 0.0
C980 C 0.42801 0.6066 0.60725 0.0
C981 C 0.43183 0.60483 0.62323 0.0
C982 C 0.40789 0.60445 0.60209 0.0
C983 C 0.3915 0.60113 0.61286 0.0
C984 C 0.39509 0.59884 0.62875 0.0
H985 H 0.28726 0.63178 0.59837 0.0
H986 H 0.31982 0.62997 0.60688 0.0
C987 C 0.41507 0.60071 0.63388 0.0
C988 C 0.3709 0.60075 0.60772 0.0
H989 H 0.35175 0.63107 0.58956 0.0
C990 C 0.35039 0.58251 0.61124 0.0
C991 C 0.37138 0.61866 0.60005 0.0
C992 C 0.3928 0.63938 0.59686 0.0
C993 C 0.33036 0.58163 0.60724 0.0
C994 C 0.33086 0.59925 0.59914 0.0
C995 C 0.35137 0.61749 0.59566 0.0
C996 C 0.3104 0.5995 0.5945 0.0
C997 C 0.30893 0.56215 0.61216 0.0
C998 C 0.29422 0.58295 0.5847 0.0
C999 C 0.27541 0.58381 0.57994 0.0
C1000 C 0.27261 0.60144 0.58467 0.0
C1001 C 0.28888 0.61798 0.59447 0.0
C1002 C 0.30753 0.61699 0.59935 0.0
H1003 H 0.31159 0.55346 0.62196 0.0
H1004 H 0.29685 0.56714 0.61583 0.0
H1005 H 0.30157 0.5504 0.60212 0.0
H1006 H 0.29632 0.56958 0.58048 0.0
H1007 H 0.26334 0.57091 0.57226 0.0
H1008 H 0.83506 0.44953 0.78322 0.0
H1009 H 0.80356 0.41596 0.77221 0.0
H1010 H 0.81653 0.37765 0.80513 0.0
H1011 H 0.84776 0.4112 0.81637 0.0
H1012 H 0.80016 0.37792 0.75883 0.0
H1013 H 0.75223 0.36038 0.81343 0.0
H1014 H 0.77673 0.3864 0.81016 0.0
H1015 H 0.77917 0.36325 0.81589 0.0
C1016 C 0.83129 0.4339 0.78798 0.0
C1017 C 0.84383 0.43292 0.80063 0.0
C1018 C 0.81333 0.41478 0.7817 0.0
C1019 C 0.80754 0.39438 0.78802 0.0
C1020 C 0.8205 0.39328 0.80028 0.0
H1021 H 0.70965 0.26761 0.74712 0.0
H1022 H 0.74392 0.29921 0.75701 0.0
C1023 C 0.8384 0.4124 0.80661 0.0
C1024 C 0.78748 0.37439 0.7821 0.0
H1025 H 0.73652 0.33387 0.79293 0.0
C1026 C 0.78625 0.36824 0.76627 0.0
C1027 C 0.76927 0.36198 0.79182 0.0
C1028 C 0.76924 0.36839 0.80873 0.0
C1029 C 0.76727 0.34993 0.75989 0.0
C1030 C 0.74922 0.33733 0.76968 0.0
C1031 C 0.75046 0.3435 0.7855 0.0
C1032 C 0.72853 0.31811 0.76365 0.0
C1033 C 0.76647 0.34458 0.74266 0.0
C1034 C 0.70844 0.31807 0.76443 0.0
C1035 C 0.68878 0.29999 0.75891 0.0
C1036 C 0.6888 0.2815 0.75254 0.0
C1037 C 0.70899 0.28156 0.75189 0.0
C1038 C 0.72865 0.29967 0.75744 0.0
H1039 H 0.77928 0.35866 0.73614 0.0
H1040 H 0.76951 0.33066 0.74112 0.0
H1041 H 0.74996 0.33969 0.73741 0.0
H1042 H 0.708 0.33212 0.76925 0.0
H1043 H 0.67359 0.30056 0.75963 0.0
H1044 H 0.48356 0.87457 0.95069 0.0
H1045 H 0.47762 0.83744 0.94873 0.0
H1046 H 0.41405 0.81541 0.92616 0.0
H1047 H 0.41932 0.85225 0.92898 0.0
H1048 H 0.41101 0.78611 0.94594 0.0
H1049 H 0.485 0.81025 0.90997 0.0
H1050 H 0.49168 0.82384 0.92877 0.0
H1051 H 0.47537 0.82897 0.91478 0.0
C1052 C 0.46815 0.86177 0.94555 0.0
C1053 C 0.45174 0.86631 0.94014 0.0
C1054 C 0.46491 0.84057 0.94424 0.0
C1055 C 0.44559 0.82368 0.93699 0.0
C1056 C 0.42911 0.82813 0.93178 0.0
H1057 H 0.42871 0.70572 0.89334 0.0
H1058 H 0.4351 0.74209 0.90035 0.0
C1059 C 0.43213 0.84918 0.93338 0.0
C1060 C 0.44249 0.80139 0.9346 0.0
H1061 H 0.4656 0.77347 0.91799 0.0
C1062 C 0.42295 0.78334 0.93982 0.0
C1063 C 0.45794 0.79775 0.92643 0.0
C1064 C 0.47856 0.8162 0.91952 0.0
C1065 C 0.41826 0.76177 0.93694 0.0
C1066 C 0.43396 0.75816 0.92911 0.0
C1067 C 0.45365 0.77623 0.9241 0.0
C1068 C 0.42981 0.73583 0.92512 0.0
C1069 C 0.39616 0.74314 0.94177 0.0
C1070 C 0.42483 0.72016 0.93671 0.0
C1071 C 0.42076 0.69915 0.93267 0.0
C1072 C 0.42213 0.69364 0.91702 0.0
C1073 C 0.42756 0.70948 0.90551 0.0
C1074 C 0.43125 0.7303 0.9095 0.0
H1075 H 0.38385 0.74856 0.94347 0.0
H1076 H 0.38936 0.72959 0.9329 0.0
H1077 H 0.39825 0.7367 0.95305 0.0
H1078 H 0.42423 0.7242 0.94889 0.0
H1079 H 0.41684 0.68733 0.94181 0.0
H1080 H 0.62279 0.48895 0.1044 0.0
H1081 H 0.6539 0.48301 0.09931 0.0
H1082 H 0.61427 0.41561 0.11252 0.0
H1083 H 0.5831 0.42146 0.11769 0.0
H1084 H 0.67542 0.46685 0.12048 0.0
H1085 H 0.63648 0.41369 0.06764 0.0
H1086 H 0.62696 0.43127 0.07566 0.0
H1087 H 0.61981 0.40587 0.08482 0.0
C1088 C 0.62084 0.47297 0.10645 0.0
C1089 C 0.60067 0.45577 0.11177 0.0
C1090 C 0.63856 0.46958 0.10348 0.0
C1091 C 0.63629 0.44887 0.10547 0.0
C1092 C 0.61625 0.43168 0.11081 0.0
H1093 H 0.73799 0.41237 0.10848 0.0
H1094 H 0.70812 0.41978 0.11446 0.0
C1095 C 0.59855 0.43507 0.11386 0.0
C1096 C 0.65484 0.44518 0.1018 0.0
H1097 H 0.67029 0.41726 0.07689 0.0
C1098 C 0.67436 0.45604 0.11095 0.0
C1099 C 0.65342 0.43128 0.08923 0.0
C1100 C 0.63314 0.41996 0.07865 0.0
C1101 C 0.69244 0.45307 0.10801 0.0
C1102 C 0.6908 0.4387 0.09571 0.0
C1103 C 0.6714 0.42813 0.0864 0.0
C1104 C 0.70909 0.4345 0.0922 0.0
C1105 C 0.71326 0.46556 0.11795 0.0
C1106 C 0.71921 0.43993 0.07759 0.0
C1107 C 0.7362 0.43563 0.07411 0.0
C1108 C 0.74326 0.42569 0.08515 0.0
C1109 C 0.733 0.42015 0.09976 0.0
C1110 C 0.71602 0.42448 0.10323 0.0
H1111 H 0.71383 0.47974 0.1242 0.0
H1112 H 0.71383 0.45451 0.12684 0.0
H1113 H 0.72822 0.47159 0.11069 0.0
H1114 H 0.714 0.44758 0.0689 0.0
H1115 H 0.74373 0.44004 0.06274 0.0
H1116 H 0.43936 0.84076 0.53037 0.0
H1117 H 0.40778 0.80439 0.53528 0.0
H1118 H 0.37144 0.8341 0.55355 0.0
H1119 H 0.40298 0.87051 0.54872 0.0
H1120 H 0.38777 0.78887 0.56518 0.0
H1121 H 0.32856 0.78767 0.52044 0.0
H1122 H 0.35805 0.80622 0.51967 0.0
H1123 H 0.34165 0.81153 0.53312 0.0
C1124 C 0.42449 0.83949 0.53519 0.0
C1125 C 0.4234 0.85844 0.53875 0.0
C1126 C 0.40655 0.81876 0.53806 0.0
C1127 C 0.3872 0.8166 0.54455 0.0
C1128 C 0.38608 0.83545 0.54824 0.0
H1129 H 0.28101 0.70112 0.58779 0.0
H1130 H 0.31151 0.73795 0.58251 0.0
C1131 C 0.40406 0.8562 0.54545 0.0
C1132 C 0.36853 0.79462 0.54799 0.0
H1133 H 0.3147 0.7582 0.53797 0.0
C1134 C 0.37178 0.78213 0.55925 0.0
C1135 C 0.34779 0.78589 0.54013 0.0
C1136 C 0.34372 0.79839 0.52756 0.0
C1137 C 0.35473 0.76113 0.56295 0.0
C1138 C 0.33387 0.75253 0.55528 0.0
C1139 C 0.33068 0.76495 0.54392 0.0
C1140 C 0.31533 0.73038 0.55853 0.0
C1141 C 0.35926 0.74812 0.57483 0.0
C1142 C 0.30718 0.71409 0.54672 0.0
C1143 C 0.28979 0.69309 0.54968 0.0
C1144 C 0.28012 0.68805 0.5645 0.0
C1145 C 0.28817 0.70448 0.57628 0.0
C1146 C 0.30564 0.72548 0.57331 0.0
H1147 H 0.37728 0.75508 0.57714 0.0
H1148 H 0.35144 0.74826 0.58602 0.0
H1149 H 0.35206 0.73081 0.57079 0.0
H1150 H 0.31442 0.71759 0.53522 0.0
H1151 H 0.28393 0.68083 0.54035 0.0
H1152 H 0.60506 0.44758 0.71804 0.0
H1153 H 0.61284 0.41772 0.72156 0.0
H1154 H 0.55157 0.37322 0.69731 0.0
H1155 H 0.54313 0.4027 0.69456 0.0
H1156 H 0.55583 0.35513 0.72233 0.0
H1157 H 0.63513 0.39027 0.69136 0.0
H1158 H 0.63623 0.40818 0.70684 0.0
H1159 H 0.61747 0.40211 0.69039 0.0
C1160 C 0.59341 0.43146 0.71329 0.0
C1161 C 0.57378 0.42767 0.70569 0.0
C1162 C 0.59794 0.41445 0.7152 0.0
C1163 C 0.58311 0.39333 0.7093 0.0
C1164 C 0.5634 0.38944 0.70179 0.0
H1165 H 0.61582 0.28915 0.70444 0.0
H1166 H 0.60775 0.31828 0.69835 0.0
C1167 C 0.55867 0.40637 0.70012 0.0
C1168 C 0.5875 0.37502 0.71178 0.0
H1169 H 0.62667 0.35988 0.70778 0.0
C1170 C 0.57125 0.3561 0.719 0.0
C1171 C 0.60747 0.3761 0.70724 0.0
C1172 C 0.62495 0.39517 0.69838 0.0
C1173 C 0.57458 0.33847 0.7221 0.0
C1174 C 0.59505 0.34009 0.71839 0.0
C1175 C 0.61111 0.35877 0.71084 0.0
C1176 C 0.6001 0.32255 0.72216 0.0
C1177 C 0.55593 0.31815 0.72908 0.0
C1178 C 0.59886 0.31552 0.73761 0.0
C1179 C 0.60318 0.29869 0.74108 0.0
C1180 C 0.60926 0.28888 0.72921 0.0
C1181 C 0.61112 0.29636 0.71383 0.0
C1182 C 0.60653 0.31301 0.71034 0.0
H1183 H 0.53962 0.31679 0.72657 0.0
H1184 H 0.55547 0.30312 0.7245 0.0
H1185 H 0.55832 0.31894 0.74198 0.0
H1186 H 0.5946 0.32307 0.74702 0.0
H1187 H 0.60188 0.29346 0.75308 0.0
H1188 H 0.16652 0.56849 0.84993 0.0
H1189 H 0.20555 0.57963 0.84883 0.0
H1190 H 0.21593 0.60672 0.89575 0.0
H1191 H 0.17733 0.59741 0.89647 0.0
H1192 H 0.25009 0.63126 0.87951 0.0
H1193 H 0.22948 0.5453 0.86856 0.0
H1194 H 0.21946 0.55562 0.8534 0.0
H1195 H 0.20862 0.55238 0.87282 0.0
C1196 C 0.17698 0.57682 0.86007 0.0
C1197 C 0.16833 0.581 0.87367 0.0
C1198 C 0.19939 0.58309 0.85941 0.0
C1199 C 0.21353 0.59317 0.87244 0.0
C1200 C 0.20529 0.59858 0.88563 0.0
H1201 H 0.3219 0.58137 0.90369 0.0
H1202 H 0.28727 0.57947 0.89645 0.0
C1203 C 0.18307 0.59291 0.88612 0.0
C1204 C 0.23664 0.59737 0.87275 0.0
H1205 H 0.26714 0.57193 0.86967 0.0
C1206 C 0.25385 0.6183 0.87733 0.0
C1207 C 0.24154 0.58042 0.86995 0.0
C1208 C 0.2238 0.55714 0.86606 0.0
C1209 C 0.27558 0.62251 0.87989 0.0
C1210 C 0.28041 0.60552 0.87714 0.0
C1211 C 0.26343 0.58494 0.87176 0.0
C1212 C 0.30209 0.60764 0.8815 0.0
C1213 C 0.29277 0.6447 0.88636 0.0
C1214 C 0.32215 0.62422 0.87558 0.0
C1215 C 0.34226 0.6257 0.88008 0.0
C1216 C 0.3425 0.61023 0.89018 0.0
C1217 C 0.32235 0.5935 0.89583 0.0
C1218 C 0.30246 0.59236 0.89166 0.0
H1219 H 0.28512 0.65394 0.89131 0.0
H1220 H 0.30312 0.64314 0.89566 0.0
H1221 H 0.30374 0.65447 0.8768 0.0
H1222 H 0.32227 0.63589 0.86742 0.0
H1223 H 0.35754 0.63866 0.87545 0.0
H1224 H 0.57582 0.20261 0.0233 0.0
H1225 H 0.60802 0.23578 0.034 0.0
H1226 H 0.65094 0.21258 0.01739 0.0
H1227 H 0.61894 0.17996 0.006 0.0
H1228 H 0.63925 0.24318 0.05542 0.0
H1229 H 0.67895 0.27175 0.99809 0.0
H1230 H 0.651 0.24934 0.99973 0.0
H1231 H 0.67411 0.24496 0.00255 0.0
C1232 C 0.59215 0.20471 0.02181 0.0
C1233 C 0.59494 0.18902 0.01339 0.0
C1234 C 0.61052 0.2236 0.028 0.0
C1235 C 0.63197 0.227 0.02608 0.0
C1236 C 0.63464 0.21071 0.01851 0.0
H1237 H 0.76142 0.32474 0.06135 0.0
H1238 H 0.72847 0.2914 0.0518 0.0
C1239 C 0.61633 0.19199 0.01212 0.0
C1240 C 0.65152 0.24759 0.03194 0.0
H1241 H 0.70073 0.29081 0.02073 0.0
C1242 C 0.65262 0.25364 0.0478 0.0
C1243 C 0.6689 0.26138 0.02197 0.0
C1244 C 0.66812 0.25666 0.00461 0.0
C1245 C 0.67082 0.27284 0.054 0.0
C1246 C 0.68833 0.2862 0.0441 0.0
C1247 C 0.68725 0.28033 0.02826 0.0
C1248 C 0.70804 0.30636 0.05003 0.0
C1249 C 0.67147 0.27871 0.0711 0.0
C1250 C 0.70737 0.32576 0.05205 0.0
C1251 C 0.7262 0.34492 0.0574 0.0
C1252 C 0.746 0.34494 0.06088 0.0
C1253 C 0.74649 0.32535 0.05883 0.0
C1254 C 0.7277 0.30627 0.05337 0.0
H1255 H 0.65728 0.26579 0.07751 0.0
H1256 H 0.68713 0.28144 0.0767 0.0
H1257 H 0.67114 0.29423 0.07225 0.0
H1258 H 0.6923 0.32607 0.04944 0.0
H1259 H 0.72518 0.35966 0.05889 0.0
H1260 H 0.44988 0.62917 0.16532 0.0
H1261 H 0.45173 0.66255 0.17577 0.0
H1262 H 0.40986 0.62596 0.2137 0.0
H1263 H 0.40823 0.5926 0.2034 0.0
H1264 H 0.41665 0.66942 0.17959 0.0
H1265 H 0.46019 0.6792 0.23646 0.0
H1266 H 0.4596 0.66136 0.22089 0.0
H1267 H 0.4362 0.65262 0.23336 0.0
C1268 C 0.44144 0.62837 0.17605 0.0
C1269 C 0.42924 0.6084 0.18371 0.0
C1270 C 0.44243 0.64739 0.18197 0.0
C1271 C 0.43121 0.6468 0.19564 0.0
C1272 C 0.41907 0.6269 0.20335 0.0
H1273 H 0.39052 0.73983 0.22372 0.0
H1274 H 0.39232 0.70795 0.21427 0.0
C1275 C 0.41811 0.60786 0.19745 0.0
C1276 C 0.43112 0.66672 0.20126 0.0
H1277 H 0.44371 0.70139 0.23282 0.0
C1278 C 0.42268 0.67649 0.1912 0.0
C1279 C 0.43921 0.67603 0.21634 0.0
C1280 C 0.44951 0.66691 0.22735 0.0
C1281 C 0.42174 0.69514 0.1959 0.0
C1282 C 0.42906 0.70398 0.2112 0.0
C1283 C 0.43789 0.69444 0.22116 0.0
C1284 C 0.42791 0.72326 0.21703 0.0
C1285 C 0.41325 0.70537 0.18435 0.0
C1286 C 0.44724 0.74224 0.22214 0.0
C1287 C 0.44627 0.76045 0.2277 0.0
C1288 C 0.4259 0.76002 0.22829 0.0
C1289 C 0.40652 0.74086 0.22328 0.0
C1290 C 0.40752 0.72262 0.2178 0.0
H1291 H 0.41421 0.70051 0.17209 0.0
H1292 H 0.39563 0.69977 0.18672 0.0
H1293 H 0.42273 0.72351 0.18543 0.0
H1294 H 0.46314 0.74304 0.22171 0.0
H1295 H 0.46152 0.77487 0.23148 0.0
H1296 H 0.83387 0.44242 0.32898 0.0
H1297 H 0.80331 0.4452 0.34027 0.0
H1298 H 0.81958 0.43055 0.38575 0.0
H1299 H 0.84954 0.42682 0.37435 0.0
H1300 H 0.77714 0.40614 0.37961 0.0
H1301 H 0.80114 0.49158 0.36626 0.0
H1302 H 0.80012 0.47641 0.34898 0.0
H1303 H 0.82005 0.48128 0.36437 0.0
C1304 C 0.83118 0.44026 0.34145 0.0
C1305 C 0.84441 0.4349 0.35083 0.0
C1306 C 0.8138 0.44197 0.34791 0.0
C1307 C 0.80944 0.4386 0.36394 0.0
C1308 C 0.82279 0.43347 0.37338 0.0
H1309 H 0.71065 0.46058 0.40988 0.0
H1310 H 0.74528 0.46338 0.4013 0.0
C1311 C 0.84 0.43148 0.36688 0.0
C1312 C 0.78982 0.43854 0.37057 0.0
H1313 H 0.76313 0.46793 0.37288 0.0
C1314 C 0.77422 0.41977 0.37829 0.0
C1315 C 0.7861 0.45641 0.36903 0.0
C1316 C 0.80287 0.47764 0.36186 0.0
C1317 C 0.75476 0.41812 0.38413 0.0
C1318 C 0.75042 0.43545 0.38176 0.0
C1319 C 0.76631 0.45451 0.37448 0.0
C1320 C 0.72941 0.43402 0.38668 0.0
C1321 C 0.73918 0.39788 0.39291 0.0
C1322 C 0.709 0.41685 0.38105 0.0
C1323 C 0.68919 0.41507 0.38605 0.0
C1324 C 0.68938 0.43067 0.39656 0.0
C1325 C 0.70988 0.44827 0.40179 0.0
C1326 C 0.72971 0.4499 0.3969 0.0
H1327 H 0.74794 0.38975 0.39792 0.0
H1328 H 0.73116 0.40183 0.40257 0.0
H1329 H 0.72607 0.386 0.38473 0.0
H1330 H 0.70836 0.40477 0.3728 0.0
H1331 H 0.67372 0.40147 0.38162 0.0
H1332 H 0.11256 0.57265 0.41981 0.0
H1333 H 0.12879 0.5743 0.44567 0.0
H1334 H 0.08605 0.59522 0.46617 0.0
H1335 H 0.07006 0.59403 0.4402 0.0
H1336 H 0.12901 0.62113 0.47524 0.0
H1337 H 0.10533 0.53432 0.48273 0.0
H1338 H 0.11902 0.54498 0.46463 0.0
H1339 H 0.09259 0.54284 0.46798 0.0
C1340 C 0.10632 0.57716 0.42988 0.0
C1341 C 0.08971 0.58274 0.42804 0.0
C1342 C 0.11552 0.578 0.44466 0.0
C1343 C 0.10828 0.5844 0.45791 0.0
C1344 C 0.09167 0.58995 0.45613 0.0
H1345 H 0.1624 0.61139 0.55418 0.0
H1346 H 0.13717 0.60254 0.53142 0.0
C1347 C 0.08248 0.58918 0.44132 0.0
C1348 C 0.11938 0.58701 0.47336 0.0
H1349 H 0.1346 0.56059 0.49961 0.0
C1350 C 0.12996 0.60781 0.48069 0.0
C1351 C 0.12059 0.56961 0.48045 0.0
C1352 C 0.10858 0.54663 0.47362 0.0
C1353 C 0.14249 0.61188 0.49458 0.0
C1354 C 0.14431 0.59466 0.50134 0.0
C1355 C 0.13326 0.57374 0.49429 0.0
C1356 C 0.15857 0.59845 0.51531 0.0
C1357 C 0.15437 0.63472 0.50165 0.0
C1358 C 0.17874 0.59882 0.51374 0.0
C1359 C 0.19307 0.60388 0.52665 0.0
C1360 C 0.18717 0.60807 0.54139 0.0
C1361 C 0.167 0.60771 0.54296 0.0
C1362 C 0.15267 0.60273 0.53002 0.0
H1363 H 0.15368 0.64685 0.49383 0.0
H1364 H 0.14662 0.63487 0.51288 0.0
H1365 H 0.17198 0.63993 0.50422 0.0
H1366 H 0.18363 0.59575 0.50243 0.0
H1367 H 0.20896 0.60493 0.52508 0.0
H1368 H 0.58689 0.09252 0.60286 0.0
H1369 H 0.59368 0.12058 0.62285 0.0
H1370 H 0.52779 0.08013 0.64001 0.0
H1371 H 0.52082 0.05206 0.62 0.0
H1372 H 0.56572 0.14202 0.63008 0.0
H1373 H 0.57342 0.09296 0.67775 0.0
H1374 H 0.5767 0.08822 0.65739 0.0
H1375 H 0.5496 0.07922 0.6648 0.0
C1376 C 0.57372 0.08982 0.6107 0.0
C1377 C 0.55318 0.07028 0.60972 0.0
C1378 C 0.57764 0.1058 0.62211 0.0
C1379 C 0.56123 0.10233 0.63286 0.0
C1380 C 0.54064 0.08303 0.6318 0.0
H1381 H 0.56931 0.17211 0.7198 0.0
H1382 H 0.55626 0.14576 0.69768 0.0
C1383 C 0.53666 0.06709 0.62035 0.0
C1384 C 0.56602 0.11845 0.64567 0.0
H1385 H 0.57593 0.12635 0.68501 0.0
C1386 C 0.56803 0.1387 0.64211 0.0
C1387 C 0.56878 0.11388 0.66131 0.0
C1388 C 0.56718 0.09246 0.66563 0.0
C1389 C 0.57268 0.15458 0.65389 0.0
C1390 C 0.576 0.15024 0.66954 0.0
C1391 C 0.5736 0.12978 0.67304 0.0
C1392 C 0.58278 0.16683 0.6824 0.0
C1393 C 0.57348 0.1756 0.64946 0.0
C1394 C 0.60188 0.18744 0.68115 0.0
C1395 C 0.60919 0.20243 0.69371 0.0
C1396 C 0.59795 0.19678 0.70789 0.0
C1397 C 0.57848 0.17652 0.70905 0.0
C1398 C 0.57105 0.16155 0.69644 0.0
H1399 H 0.5632 0.17325 0.63878 0.0
H1400 H 0.56764 0.18205 0.65907 0.0
H1401 H 0.59079 0.18806 0.64684 0.0
H1402 H 0.61153 0.19176 0.67062 0.0
H1403 H 0.62385 0.21831 0.69244 0.0
H1404 H 0.48723 0.5363 0.77388 0.0
H1405 H 0.46603 0.5452 0.79218 0.0
H1406 H 0.50606 0.61361 0.78161 0.0
H1407 H 0.5274 0.60477 0.76327 0.0
H1408 H 0.50295 0.6041 0.81385 0.0
H1409 H 0.42 0.5648 0.78474 0.0
H1410 H 0.43175 0.5473 0.78637 0.0
H1411 H 0.44487 0.57109 0.7744 0.0
C1412 C 0.49123 0.55318 0.77525 0.0
C1413 C 0.50882 0.56983 0.76706 0.0
C1414 C 0.47906 0.55823 0.78564 0.0
C1415 C 0.48428 0.58002 0.78806 0.0
C1416 C 0.50166 0.59667 0.77978 0.0
H1417 H 0.44011 0.63737 0.86064 0.0
H1418 H 0.45735 0.6324 0.83741 0.0
C1419 C 0.51378 0.59162 0.76932 0.0
C1420 C 0.47284 0.58552 0.80023 0.0
H1421 H 0.42192 0.57547 0.8116 0.0
C1422 C 0.48528 0.59811 0.81329 0.0
C1423 C 0.44979 0.57754 0.79946 0.0
C1424 C 0.43581 0.56459 0.78543 0.0
C1425 C 0.47516 0.60228 0.82591 0.0
C1426 C 0.45203 0.59402 0.82526 0.0
C1427 C 0.43965 0.58179 0.81205 0.0
C1428 C 0.44031 0.59707 0.83852 0.0
C1429 C 0.48917 0.61471 0.84009 0.0
C1430 C 0.42438 0.5788 0.84647 0.0
C1431 C 0.41435 0.58154 0.85968 0.0
C1432 C 0.42005 0.60264 0.8652 0.0
C1433 C 0.43546 0.62089 0.85683 0.0
C1434 C 0.44541 0.61811 0.84358 0.0
H1435 H 0.50544 0.61541 0.84023 0.0
H1436 H 0.4923 0.63176 0.83998 0.0
H1437 H 0.48053 0.6071 0.85106 0.0
H1438 H 0.42016 0.56242 0.84271 0.0
H1439 H 0.40255 0.5671 0.86579 0.0
H1440 H 0.92442 0.41616 0.92357 0.0
H1441 H 0.90233 0.41372 0.95249 0.0
H1442 H 0.88794 0.47344 0.9359 0.0
H1443 H 0.90937 0.47726 0.90635 0.0
H1444 H 0.91346 0.44848 0.97529 0.0
H1445 H 0.8293 0.42552 0.95313 0.0
H1446 H 0.85023 0.42614 0.94062 0.0
H1447 H 0.85091 0.45115 0.94618 0.0
C1448 C 0.91665 0.42594 0.92548 0.0
C1449 C 0.92263 0.44968 0.9131 0.0
C1450 C 0.90389 0.42534 0.94375 0.0
C1451 C 0.89384 0.44401 0.9477 0.0
C1452 C 0.89467 0.46292 0.93327 0.0
H1453 H 0.82355 0.44247 0.03259 0.0
H1454 H 0.84289 0.45354 0.00775 0.0
C1455 C 0.90715 0.46483 0.91459 0.0
C1456 C 0.88383 0.44265 0.963 0.0
H1457 H 0.83537 0.43024 0.98055 0.0
C1458 C 0.89643 0.44466 0.97646 0.0
C1459 C 0.86169 0.43782 0.96444 0.0
C1460 C 0.84716 0.43484 0.95032 0.0
C1461 C 0.88741 0.4417 0.99141 0.0
C1462 C 0.86495 0.43588 0.99286 0.0
C1463 C 0.85256 0.43462 0.97941 0.0
C1464 C 0.85362 0.42959 0.00808 0.0
C1465 C 0.90207 0.44486 0.00549 0.0
C1466 C 0.85293 0.41224 0.01637 0.0
C1467 C 0.84204 0.40595 0.03058 0.0
C1468 C 0.83127 0.41667 0.03671 0.0
C1469 C 0.83168 0.43386 0.02824 0.0
C1470 C 0.84274 0.44023 0.01404 0.0
H1471 H 0.91978 0.4562 0.00298 0.0
H1472 H 0.89745 0.45141 0.01576 0.0
H1473 H 0.90035 0.42886 0.0086 0.0
H1474 H 0.86066 0.40336 0.01178 0.0
H1475 H 0.84193 0.39252 0.03667 0.0
H1476 H 0.50491 0.96758 0.10611 0.0
H1477 H 0.49385 0.94734 0.13039 0.0
H1478 H 0.44742 0.8889 0.10449 0.0
H1479 H 0.45744 0.90948 0.08025 0.0
H1480 H 0.42943 0.89133 0.13009 0.0
H1481 H 0.51329 0.90662 0.1454 0.0
H1482 H 0.5129 0.93173 0.1438 0.0
H1483 H 0.50683 0.91409 0.1268 0.0
C1484 C 0.4921 0.95051 0.10559 0.0
C1485 C 0.4818 0.94017 0.09124 0.0
C1486 C 0.48602 0.93886 0.11948 0.0
C1487 C 0.47016 0.91645 0.11927 0.0
C1488 C 0.45974 0.90616 0.10499 0.0
H1489 H 0.45819 0.8322 0.19632 0.0
H1490 H 0.46594 0.85151 0.17154 0.0
C1491 C 0.46547 0.9179 0.09114 0.0
C1492 C 0.46431 0.90367 0.13388 0.0
H1493 H 0.48647 0.89147 0.16534 0.0
C1494 C 0.44189 0.89123 0.13774 0.0
C1495 C 0.4805 0.90315 0.14373 0.0
C1496 C 0.50468 0.91442 0.13964 0.0
C1497 C 0.43522 0.87843 0.15119 0.0
C1498 C 0.45152 0.87887 0.16151 0.0
C1499 C 0.47393 0.89124 0.15758 0.0
C1500 C 0.44585 0.86637 0.17628 0.0
C1501 C 0.41074 0.86408 0.15383 0.0
C1502 C 0.43198 0.86821 0.18726 0.0
C1503 C 0.42694 0.85654 0.20115 0.0
C1504 C 0.43642 0.84357 0.20459 0.0
C1505 C 0.4507 0.84213 0.19386 0.0
C1506 C 0.45516 0.8532 0.17975 0.0
H1507 H 0.40109 0.85988 0.14263 0.0
H1508 H 0.40702 0.84862 0.15959 0.0
H1509 H 0.40496 0.87305 0.16138 0.0
H1510 H 0.42527 0.87889 0.18522 0.0
H1511 H 0.41618 0.85816 0.20943 0.0
H1512 H 0.5874 0.52199 0.26749 0.0
H1513 H 0.59684 0.51027 0.29187 0.0
H1514 H 0.55493 0.44271 0.27749 0.0
H1515 H 0.54526 0.45433 0.25318 0.0
H1516 H 0.54939 0.45192 0.30887 0.0
H1517 H 0.63784 0.48417 0.29527 0.0
H1518 H 0.62896 0.50401 0.2939 0.0
H1519 H 0.61746 0.48081 0.2806 0.0
C1520 C 0.58006 0.50465 0.26962 0.0
C1521 C 0.56536 0.48906 0.25856 0.0
C1522 C 0.5856 0.49798 0.28346 0.0
C1523 C 0.57676 0.47563 0.28638 0.0
C1524 C 0.56193 0.46003 0.27544 0.0
H1525 H 0.59242 0.4052 0.3645 0.0
H1526 H 0.58106 0.41447 0.33988 0.0
C1527 C 0.55639 0.46668 0.2616 0.0
C1528 C 0.58293 0.4685 0.30087 0.0
H1529 H 0.627 0.47175 0.32111 0.0
C1530 C 0.56632 0.45611 0.31153 0.0
C1531 C 0.60502 0.47394 0.30423 0.0
C1532 C 0.62334 0.48629 0.29285 0.0
C1533 C 0.57134 0.44957 0.32573 0.0
C1534 C 0.59349 0.45531 0.32918 0.0
C1535 C 0.61004 0.46744 0.31843 0.0
C1536 C 0.60004 0.44949 0.34412 0.0
C1537 C 0.55304 0.43711 0.33709 0.0
C1538 C 0.61475 0.46611 0.3545 0.0
C1539 C 0.62136 0.46092 0.36852 0.0
C1540 C 0.61347 0.43894 0.37242 0.0
C1541 C 0.59876 0.42229 0.36192 0.0
C1542 C 0.59215 0.42754 0.34788 0.0
H1543 H 0.53804 0.43818 0.33423 0.0
H1544 H 0.54837 0.41959 0.33664 0.0
H1545 H 0.55863 0.44338 0.34926 0.0
H1546 H 0.62107 0.48316 0.35178 0.0
H1547 H 0.63267 0.4742 0.37628 0.0
H1548 H 0.45648 0.91307 0.39581 0.0
H1549 H 0.45621 0.89889 0.36951 0.0
H1550 H 0.43688 0.94315 0.35007 0.0
H1551 H 0.43651 0.95695 0.37646 0.0
H1552 H 0.41079 0.90202 0.33952 0.0
H1553 H 0.49808 0.92308 0.33357 0.0
H1554 H 0.4862 0.9083 0.35107 0.0
H1555 H 0.48936 0.93504 0.34871 0.0
C1556 C 0.45265 0.92009 0.38589 0.0
C1557 C 0.44701 0.93645 0.38815 0.0
C1558 C 0.45262 0.91208 0.37086 0.0
C1559 C 0.44705 0.92032 0.35778 0.0
C1560 C 0.44154 0.93677 0.35998 0.0
H1561 H 0.42006 0.87063 0.26052 0.0
H1562 H 0.43002 0.89526 0.28356 0.0
C1563 C 0.44143 0.94471 0.37504 0.0
C1564 C 0.44487 0.91026 0.34203 0.0
H1565 H 0.47166 0.8952 0.31584 0.0
C1566 C 0.42422 0.90087 0.33421 0.0
C1567 C 0.4624 0.90873 0.33513 0.0
C1568 C 0.48531 0.91953 0.34249 0.0
C1569 C 0.42034 0.88919 0.32002 0.0
C1570 C 0.43764 0.88702 0.31343 0.0
C1571 C 0.45845 0.89688 0.32099 0.0
C1572 C 0.4339 0.87344 0.29917 0.0
C1573 C 0.39753 0.87848 0.31248 0.0
C1574 C 0.43323 0.85331 0.30034 0.0
C1575 C 0.42758 0.83934 0.28726 0.0
C1576 C 0.42308 0.84556 0.27276 0.0
C1577 C 0.42394 0.86578 0.27155 0.0
C1578 C 0.42956 0.87976 0.28465 0.0
H1579 H 0.38512 0.87881 0.32033 0.0
H1580 H 0.39806 0.88725 0.30166 0.0
H1581 H 0.39195 0.8612 0.30913 0.0
H1582 H 0.43634 0.84809 0.31149 0.0
H1583 H 0.42618 0.82344 0.28855 0.0
H1584 H 0.56319 0.46258 0.56152 0.0
H1585 H 0.57776 0.45754 0.53683 0.0
H1586 H 0.51647 0.44157 0.51307 0.0
H1587 H 0.5017 0.44641 0.53777 0.0
H1588 H 0.55476 0.41589 0.51846 0.0
H1589 H 0.56784 0.48866 0.48522 0.0
H1590 H 0.56708 0.48801 0.50636 0.0
H1591 H 0.5419 0.47332 0.49498 0.0
C1592 C 0.553 0.45841 0.55096 0.0
C1593 C 0.53151 0.45537 0.55149 0.0
C1594 C 0.5613 0.45549 0.53691 0.0
C1595 C 0.54829 0.44952 0.52314 0.0
C1596 C 0.5269 0.44662 0.52355 0.0
H1597 H 0.56903 0.41713 0.42851 0.0
H1598 H 0.55467 0.4259 0.45199 0.0
C1599 C 0.5185 0.44939 0.53763 0.0
C1600 C 0.5565 0.44463 0.50865 0.0
H1601 H 0.5739 0.46269 0.47182 0.0
C1602 C 0.559 0.42612 0.50826 0.0
C1603 C 0.5618 0.45795 0.49538 0.0
C1604 C 0.55969 0.47821 0.49541 0.0
C1605 C 0.56651 0.4204 0.49485 0.0
C1606 C 0.57221 0.43393 0.48163 0.0
C1607 C 0.56956 0.4524 0.48198 0.0
C1608 C 0.58111 0.42921 0.46739 0.0
C1609 C 0.56783 0.39969 0.49487 0.0
C1610 C 0.60075 0.42835 0.46828 0.0
C1611 C 0.60884 0.42333 0.45496 0.0
C1612 C 0.59777 0.4197 0.44047 0.0
C1613 C 0.57803 0.42036 0.43955 0.0
C1614 C 0.56989 0.42537 0.4529 0.0
H1615 H 0.55704 0.38819 0.50386 0.0
H1616 H 0.56296 0.39118 0.48325 0.0
H1617 H 0.58511 0.40388 0.49762 0.0
H1618 H 0.60984 0.43156 0.47928 0.0
H1619 H 0.62374 0.4222 0.45597 0.0
H1620 H 0.07963 0.517 0.71558 0.0
H1621 H 0.0989 0.52569 0.69059 0.0
H1622 H 0.13463 0.59411 0.70409 0.0
H1623 H 0.11553 0.58552 0.72908 0.0
H1624 H 0.10042 0.55478 0.66691 0.0
H1625 H 0.18358 0.58016 0.69255 0.0
H1626 H 0.15843 0.56474 0.70328 0.0
H1627 H 0.17005 0.59371 0.701 0.0
C1628 C 0.09142 0.53391 0.71312 0.0
C1629 C 0.09582 0.55065 0.72414 0.0
C1630 C 0.10245 0.53883 0.6989 0.0
C1631 C 0.1183 0.5605 0.69558 0.0
C1632 C 0.12264 0.57725 0.70652 0.0
H1633 H 0.2039 0.62423 0.61754 0.0
H1634 H 0.18359 0.61556 0.64198 0.0
C1635 C 0.11161 0.57235 0.72071 0.0
C1636 C 0.1303 0.56564 0.68066 0.0
H1637 H 0.18187 0.58647 0.66551 0.0
C1638 C 0.11821 0.56161 0.66657 0.0
C1639 C 0.15351 0.57458 0.68031 0.0
C1640 C 0.16719 0.5784 0.69507 0.0
C1641 C 0.12879 0.56667 0.6521 0.0
C1642 C 0.152 0.57563 0.65175 0.0
C1643 C 0.16408 0.57964 0.66584 0.0
C1644 C 0.16406 0.5808 0.63685 0.0
C1645 C 0.11513 0.5628 0.63733 0.0
C1646 C 0.15996 0.56407 0.62598 0.0
C1647 C 0.17155 0.56893 0.61202 0.0
C1648 C 0.18753 0.59064 0.60867 0.0
C1649 C 0.19167 0.60734 0.61968 0.0
C1650 C 0.18011 0.60244 0.63367 0.0
H1651 H 0.09869 0.56093 0.63983 0.0
H1652 H 0.12386 0.5765 0.62914 0.0
H1653 H 0.11238 0.54755 0.63138 0.0
H1654 H 0.1479 0.54721 0.62835 0.0
H1655 H 0.16791 0.55563 0.60385 0.0
H1656 H 0.55247 0.12109 0.90627 0.0
H1657 H 0.55547 0.14078 0.87611 0.0
H1658 H 0.61249 0.12218 0.85872 0.0
H1659 H 0.61084 0.10176 0.88818 0.0
H1660 H 0.59255 0.17315 0.85982 0.0
H1661 H 0.56705 0.1 0.82164 0.0
H1662 H 0.56097 0.09825 0.8422 0.0
H1663 H 0.58797 0.10435 0.83595 0.0
C1664 C 0.56409 0.12196 0.89765 0.0
C1665 C 0.57844 0.10573 0.89923 0.0
C1666 C 0.56527 0.13317 0.87861 0.0
C1667 C 0.5829 0.13203 0.86376 0.0
C1668 C 0.60118 0.12132 0.86759 0.0
H1669 H 0.63757 0.18728 0.77655 0.0
H1670 H 0.62604 0.16852 0.80135 0.0
C1671 C 0.60126 0.10976 0.8862 0.0
C1672 C 0.58456 0.1425 0.84865 0.0
H1673 H 0.58534 0.13454 0.80927 0.0
C1674 C 0.59065 0.16468 0.84873 0.0
C1675 C 0.58199 0.13133 0.83427 0.0
C1676 C 0.57393 0.10711 0.83345 0.0
C1677 C 0.59565 0.17642 0.83478 0.0
C1678 C 0.59396 0.16544 0.8204 0.0
C1679 C 0.58686 0.14298 0.82032 0.0
C1680 C 0.60075 0.17712 0.80539 0.0
C1681 C 0.60377 0.20066 0.83564 0.0
C1682 C 0.59024 0.18809 0.79935 0.0
C1683 C 0.59692 0.19903 0.78517 0.0
C1684 C 0.61408 0.19898 0.77669 0.0
C1685 C 0.62434 0.18773 0.78273 0.0
C1686 C 0.61775 0.17694 0.79692 0.0
H1687 H 0.60891 0.20745 0.84775 0.0
H1688 H 0.61799 0.20975 0.82783 0.0
H1689 H 0.59024 0.20357 0.83176 0.0
H1690 H 0.57676 0.18803 0.80552 0.0
H1691 H 0.5885 0.20734 0.78081 0.0
H1692 H 0.52138 0.5713 0.03033 0.0
H1693 H 0.51039 0.58576 0.00821 0.0
H1694 H 0.44382 0.55548 0.02537 0.0
H1695 H 0.4545 0.54031 0.0471 0.0
H1696 H 0.4445 0.54552 0.99543 0.0
H1697 H 0.49767 0.63533 0.00389 0.0
H1698 H 0.5129 0.62103 0.00356 0.0
H1699 H 0.49392 0.61627 0.01908 0.0
C1700 C 0.50452 0.56814 0.02952 0.0
C1701 C 0.48894 0.55511 0.04063 0.0
C1702 C 0.4983 0.57653 0.01696 0.0
C1703 C 0.47641 0.57214 0.01533 0.0
C1704 C 0.46088 0.55932 0.02651 0.0
H1705 H 0.4008 0.59968 0.94779 0.0
H1706 H 0.41376 0.58723 0.97006 0.0
C1707 C 0.46702 0.55073 0.03897 0.0
C1708 C 0.46905 0.57889 0.00118 0.0
H1709 H 0.47828 0.62283 0.97934 0.0
C1710 C 0.45183 0.56246 0.99199 0.0
C1711 C 0.47873 0.60098 0.99663 0.0
C1712 C 0.49669 0.61945 0.00638 0.0
C1713 C 0.44403 0.56745 0.9784 0.0
C1714 C 0.45359 0.58944 0.97381 0.0
C1715 C 0.47102 0.60594 0.98286 0.0
C1716 C 0.44521 0.59562 0.95989 0.0
C1717 C 0.42561 0.54913 0.969 0.0
C1718 C 0.45853 0.6043 0.94678 0.0
C1719 C 0.4509 0.61092 0.9339 0.0
C1720 C 0.42983 0.6089 0.93396 0.0
C1721 C 0.41662 0.60036 0.94714 0.0
C1722 C 0.42413 0.59354 0.95994 0.0
H1723 H 0.42321 0.53286 0.97214 0.0
H1724 H 0.41005 0.5492 0.97133 0.0
H1725 H 0.42904 0.55159 0.95634 0.0
H1726 H 0.4749 0.60614 0.94658 0.0
H1727 H 0.46158 0.61794 0.924 0.0
H1728 H 0.97808 0.51244 0.19717 0.0
H1729 H 0.95028 0.50622 0.17688 0.0
H1730 H 0.91041 0.43945 0.19141 0.0
H1731 H 0.9381 0.44562 0.21176 0.0
H1732 H 0.9378 0.4753 0.15269 0.0
H1733 H 0.8652 0.46053 0.18736 0.0
H1734 H 0.89301 0.47371 0.19555 0.0
H1735 H 0.87736 0.44442 0.19319 0.0
C1736 C 0.96314 0.49659 0.19624 0.0
C1737 C 0.96004 0.47963 0.20623 0.0
C1738 C 0.94733 0.49304 0.18465 0.0
C1739 C 0.92813 0.47249 0.18283 0.0
C1740 C 0.92485 0.45559 0.19288 0.0
H1741 H 0.81583 0.40624 0.12013 0.0
H1742 H 0.84355 0.41889 0.14135 0.0
C1743 C 0.94068 0.4591 0.20447 0.0
C1744 C 0.91254 0.46811 0.16953 0.0
H1745 H 0.85842 0.45031 0.16036 0.0
C1746 C 0.92043 0.46994 0.1543 0.0
C1747 C 0.89002 0.46132 0.17173 0.0
C1748 C 0.88088 0.46006 0.18784 0.0
C1749 C 0.90622 0.46415 0.14115 0.0
C1750 C 0.88339 0.45666 0.1433 0.0
C1751 C 0.87574 0.45565 0.15861 0.0
C1752 C 0.86691 0.44889 0.13006 0.0
C1753 C 0.91604 0.46571 0.12527 0.0
C1754 C 0.87043 0.46151 0.11665 0.0
C1755 C 0.85512 0.45352 0.10413 0.0
C1756 C 0.83575 0.43307 0.10496 0.0
C1757 C 0.83139 0.42128 0.11879 0.0
C1758 C 0.84702 0.42882 0.13106 0.0
H1759 H 0.93065 0.46338 0.12599 0.0
H1760 H 0.90395 0.45351 0.1168 0.0
H1761 H 0.92174 0.48229 0.12065 0.0
H1762 H 0.885 0.47754 0.11583 0.0
H1763 H 0.85834 0.46339 0.09383 0.0
loop_
_geom_bond_atom_site_label_1
_geom_bond_atom_site_label_2
_geom_bond_distance
_geom_bond_site_symmetry_2
_ccdc_geom_bond_type
C0 C1 1.560 . S
C0 H61 0.959 . S
C0 H62 0.959 . S
C0 H63 0.960 . S
C1 C0 1.560 . S
C1 O56 1.426 . S
C1 H60 0.980 . S
C2 C3 1.407 . S
C2 C7 1.418 . S
C2 O56 1.334 . S
C3 C2 1.407 . S
C3 C4 1.360 . S
C3 H64 0.929 . S
C4 C3 1.360 . S
C4 C5 1.401 . S
C4 C8 1.527 . S
C5 C4 1.401 . S
C5 C6 1.405 . S
C5 C38 1.587 . S
C6 C5 1.405 . S
C6 C7 1.332 . S
C6 C9 1.496 . S
C7 C2 1.418 . S
C7 C6 1.332 . S
C7 H65 0.929 . S
C8 C4 1.527 . S
C8 H66 0.959 . S
C8 H67 0.961 . S
C8 H68 0.961 . S
C9 C6 1.496 . S
C9 H69 0.960 . S
C9 H70 0.960 . S
C9 H71 0.961 . S
C10 C11 1.517 . S
C10 H73 0.961 . S
C10 H74 0.960 . S
C10 H75 0.959 . S
C11 C10 1.517 . S
C11 O59 1.468 . S
C11 H72 0.980 . S
C12 C13 1.349 . S
C12 C17 1.367 . S
C12 O59 1.408 . S
C13 C12 1.349 . S
C13 C14 1.407 . S
C13 H76 0.930 . S
C14 C13 1.407 . S
C14 C15 1.449 . S
C14 C18 1.535 . S
C15 C14 1.449 . S
C15 C16 1.384 . S
C15 C40 1.553 1_655 S
C16 C15 1.384 . S
C16 C17 1.364 . S
C16 C19 1.450 . S
C17 C12 1.367 . S
C17 C16 1.364 . S
C17 H77 0.931 . S
C18 C14 1.535 . S
C18 H78 0.959 1_655 S
C18 H79 0.960 1_655 S
C18 H80 0.959 . S
C19 C16 1.450 . S
C19 H81 0.960 . S
C19 H82 0.960 1_655 S
C19 H83 0.960 . S
C20 C21 1.309 . S
C20 C25 1.304 . S
C20 O58 1.435 . S
C21 C20 1.309 . S
C21 C22 1.476 . S
C21 H85 0.930 . S
C22 C21 1.476 . S
C22 C23 1.400 . S
C22 C26 1.567 . S
C23 C22 1.400 . S
C23 C24 1.373 . S
C23 C45 1.432 . S
C24 C23 1.373 . S
C24 C25 1.339 . S
C24 C27 1.530 . S
C25 C20 1.304 . S
C25 C24 1.339 . S
C25 H86 0.930 . S
C26 C22 1.567 . S
C26 H87 0.961 . S
C26 H88 0.960 . S
C26 H89 0.958 . S
C27 C24 1.530 . S
C27 H90 0.961 . S
C27 H91 0.960 . S
C27 H92 0.960 . S
C28 C29 1.530 . S
C28 H94 0.961 . S
C28 H95 0.961 . S
C28 H96 0.959 . S
C29 C28 1.530 . S
C29 O57 1.412 . S
C29 H93 0.980 . S
C30 C31 1.288 . S
C30 C35 1.377 . S
C30 O57 1.393 . S
C31 C30 1.288 . S
C31 C32 1.369 . S
C31 H97 0.932 . S
C32 C31 1.369 . S
C32 C33 1.398 . S
C32 C36 1.527 . S
C33 C32 1.398 . S
C33 C34 1.380 . S
C33 C47 1.497 . S
C34 C33 1.380 . S
C34 C35 1.383 . S
C34 C37 1.603 . S
C35 C30 1.377 . S
C35 C34 1.383 . S
C35 H98 0.929 . S
C36 C32 1.527 . S
C36 H99 0.961 . S
C36 H100 0.962 . S
C36 H101 0.959 . S
C37 C34 1.603 . S
C37 H102 0.960 . S
C37 H103 0.962 . S
C37 H104 0.961 . S
C38 C5 1.587 . S
C38 C39 1.360 . S
C38 C51 1.412 . S
C39 C38 1.360 . S
C39 C40 1.365 . S
C39 H105 0.929 . S
C40 C15 1.553 1_455 S
C40 C39 1.365 . S
C40 C41 1.404 . S
C41 C40 1.404 . S
C41 C42 1.395 1_455 S
C41 C52 1.451 . S
C42 C41 1.395 1_655 S
C42 C43 1.322 . S
C42 H106 0.930 . S
C43 C42 1.322 . S
C43 C44 1.459 . S
C43 H107 0.929 . S
C44 C43 1.459 . S
C44 C45 1.445 . S
C44 C53 1.395 1_655 S
C45 C23 1.432 . S
C45 C44 1.445 . S
C45 C46 1.370 . S
C46 C45 1.370 . S
C46 C47 1.438 1_655 S
C46 H108 0.930 . S
C47 C33 1.497 . S
C47 C46 1.438 1_455 S
C47 C48 1.360 . S
C48 C47 1.360 . S
C48 C49 1.401 . S
C48 C53 1.446 . S
C49 C48 1.401 . S
C49 C50 1.347 . S
C49 H109 0.929 . S
C50 C49 1.347 . S
C50 C51 1.455 . S
C50 H110 0.930 . S
C51 C38 1.412 . S
C51 C50 1.455 . S
C51 C52 1.331 . S
C52 C41 1.451 . S
C52 C51 1.331 . S
C52 C53 1.497 . S
C53 C44 1.395 1_455 S
C53 C48 1.446 . S
C53 C52 1.497 . S
C54 C55 1.582 . S
C54 H111 0.962 . S
C54 H112 0.959 . S
C54 H113 0.958 . S
C55 C54 1.582 . S
C55 O58 1.458 . S
C55 H84 0.980 . S
O56 C1 1.426 . S
O56 C2 1.334 . S
O57 C29 1.412 . S
O57 C30 1.393 . S
O58 C20 1.435 . S
O58 C55 1.458 . S
O59 C11 1.468 . S
O59 C12 1.408 . S
H60 C1 0.980 . S
H61 C0 0.959 . S
H62 C0 0.959 . S
H63 C0 0.960 . S
H64 C3 0.929 . S
H65 C7 0.929 . S
H66 C8 0.959 . S
H67 C8 0.961 . S
H68 C8 0.961 . S
H69 C9 0.960 . S
H70 C9 0.960 . S
H71 C9 0.961 . S
H72 C11 0.980 . S
H73 C10 0.961 . S
H74 C10 0.960 . S
H75 C10 0.959 . S
H76 C13 0.930 . S
H77 C17 0.931 . S
H78 C18 0.959 1_455 S
H79 C18 0.960 1_455 S
H80 C18 0.959 . S
H81 C19 0.960 . S
H82 C19 0.960 1_455 S
H83 C19 0.960 . S
H84 C55 0.980 . S
H85 C21 0.930 . S
H86 C25 0.930 . S
H87 C26 0.961 . S
H88 C26 0.960 . S
H89 C26 0.958 . S
H90 C27 0.961 . S
H91 C27 0.960 . S
H92 C27 0.960 . S
H93 C29 0.980 . S
H94 C28 0.961 . S
H95 C28 0.961 . S
H96 C28 0.959 . S
H97 C31 0.932 . S
H98 C35 0.929 . S
H99 C36 0.961 . S
H100 C36 0.962 . S
H101 C36 0.959 . S
H102 C37 0.960 . S
H103 C37 0.962 . S
H104 C37 0.961 . S
H105 C39 0.929 . S
H106 C42 0.930 . S
H107 C43 0.929 . S
H108 C46 0.930 . S
H109 C49 0.929 . S
H110 C50 0.930 . S
H111 C54 0.962 . S
H112 C54 0.959 . S
H113 C54 0.958 . S
C114 C115 1.560 . S
C114 H175 0.959 . S
C114 H176 0.959 . S
C114 H177 0.960 . S
C115 C114 1.560 . S
C115 O170 1.426 . S
C115 H174 0.980 . S
C116 C117 1.407 . S
C116 C121 1.418 . S
C116 O170 1.334 . S
C117 C116 1.407 . S
C117 C118 1.360 . S
C117 H178 0.929 . S
C118 C117 1.360 . S
C118 C119 1.401 . S
C118 C122 1.527 . S
C119 C118 1.401 . S
C119 C120 1.405 . S
C119 C152 1.587 . S
C120 C119 1.405 . S
C120 C121 1.332 . S
C120 C123 1.496 . S
C121 C116 1.418 . S
C121 C120 1.332 . S
C121 H179 0.929 . S
C122 C118 1.527 . S
C122 H180 0.959 . S
C122 H181 0.961 . S
C122 H182 0.961 . S
C123 C120 1.496 . S
C123 H183 0.960 . S
C123 H184 0.960 . S
C123 H185 0.961 . S
C124 C125 1.517 . S
C124 H187 0.961 . S
C124 H188 0.960 . S
C124 H189 0.959 . S
C125 C124 1.517 . S
C125 O173 1.468 . S
C125 H186 0.980 . S
C126 C127 1.349 . S
C126 C131 1.367 . S
C126 O173 1.408 . S
C127 C126 1.349 . S
C127 C128 1.407 . S
C127 H190 0.930 . S
C128 C127 1.407 . S
C128 C129 1.449 . S
C128 C132 1.535 . S
C129 C128 1.449 . S
C129 C130 1.384 . S
C129 C154 1.553 . S
C130 C129 1.384 . S
C130 C131 1.364 . S
C130 C133 1.450 . S
C131 C126 1.367 . S
C131 C130 1.364 . S
C131 H191 0.931 . S
C132 C128 1.535 . S
C132 H192 0.959 . S
C132 H193 0.961 . S
C132 H194 0.959 . S
C133 C130 1.450 . S
C133 H195 0.960 . S
C133 H196 0.960 . S
C133 H197 0.960 . S
C134 C135 1.309 . S
C134 C139 1.304 . S
C134 O172 1.435 . S
C135 C134 1.309 . S
C135 C136 1.476 . S
C135 H199 0.930 . S
C136 C135 1.476 . S
C136 C137 1.400 . S
C136 C140 1.567 . S
C137 C136 1.400 . S
C137 C138 1.373 . S
C137 C159 1.432 . S
C138 C137 1.373 . S
C138 C139 1.339 . S
C138 C141 1.530 . S
C139 C134 1.304 . S
C139 C138 1.339 . S
C139 H200 0.930 . S
C140 C136 1.567 . S
C140 H201 0.961 . S
C140 H202 0.960 . S
C140 H203 0.958 . S
C141 C138 1.530 . S
C141 H204 0.961 . S
C141 H205 0.960 . S
C141 H206 0.960 . S
C142 C143 1.530 . S
C142 H208 0.961 . S
C142 H209 0.961 . S
C142 H210 0.959 . S
C143 C142 1.530 . S
C143 O171 1.412 . S
C143 H207 0.980 . S
C144 C145 1.288 . S
C144 C149 1.377 . S
C144 O171 1.393 . S
C145 C144 1.288 . S
C145 C146 1.382 . S
C145 H211 0.932 . S
C146 C145 1.382 . S
C146 C147 1.413 1_565 S
C146 C150 1.499 1_565 S
C147 C146 1.413 1_545 S
C147 C148 1.380 1_545 S
C147 C161 1.497 . S
C148 C147 1.380 1_565 S
C148 C149 1.383 . S
C148 C151 1.603 . S
C149 C144 1.377 . S
C149 C148 1.383 . S
C149 H212 0.929 . S
C150 C146 1.499 1_545 S
C150 H213 0.961 . S
C150 H214 0.959 . S
C150 H215 0.959 . S
C151 C148 1.603 . S
C151 H216 0.960 . S
C151 H217 0.962 1_565 S
C151 H218 0.961 . S
C152 C119 1.587 . S
C152 C153 1.360 . S
C152 C165 1.412 . S
C153 C152 1.360 . S
C153 C154 1.365 1_565 S
C153 H219 0.929 . S
C154 C129 1.553 . S
C154 C153 1.365 1_545 S
C154 C155 1.404 . S
C155 C154 1.404 . S
C155 C156 1.395 . S
C155 C166 1.451 . S
C156 C155 1.395 . S
C156 C157 1.322 . S
C156 H220 0.930 . S
C157 C156 1.322 . S
C157 C158 1.459 . S
C157 H221 0.929 . S
C158 C157 1.459 . S
C158 C159 1.445 . S
C158 C167 1.395 . S
C159 C137 1.432 . S
C159 C158 1.445 . S
C159 C160 1.370 . S
C160 C159 1.370 . S
C160 C161 1.438 . S
C160 H222 0.930 . S
C161 C147 1.497 . S
C161 C160 1.438 . S
C161 C162 1.360 . S
C162 C161 1.360 . S
C162 C163 1.401 1_545 S
C162 C167 1.446 . S
C163 C162 1.401 1_565 S
C163 C164 1.347 . S
C163 H223 0.929 . S
C164 C163 1.347 . S
C164 C165 1.455 . S
C164 H224 0.930 . S
C165 C152 1.412 . S
C165 C164 1.455 . S
C165 C166 1.331 1_565 S
C166 C155 1.451 . S
C166 C165 1.331 1_545 S
C166 C167 1.497 . S
C167 C158 1.395 . S
C167 C162 1.446 . S
C167 C166 1.497 . S
C168 C169 1.582 . S
C168 H225 0.962 . S
C168 H226 0.959 . S
C168 H227 0.958 . S
C169 C168 1.582 . S
C169 O172 1.458 . S
C169 H198 0.980 . S
O170 C115 1.426 . S
O170 C116 1.334 . S
O171 C143 1.412 . S
O171 C144 1.393 . S
O172 C134 1.435 . S
O172 C169 1.458 . S
O173 C125 1.468 . S
O173 C126 1.408 . S
H174 C115 0.980 . S
H175 C114 0.959 . S
H176 C114 0.959 . S
H177 C114 0.960 . S
H178 C117 0.929 . S
H179 C121 0.929 . S
H180 C122 0.959 . S
H181 C122 0.961 . S
H182 C122 0.961 . S
H183 C123 0.960 . S
H184 C123 0.960 . S
H185 C123 0.961 . S
H186 C125 0.980 . S
H187 C124 0.961 . S
H188 C124 0.960 . S
H189 C124 0.959 . S
H190 C127 0.930 . S
H191 C131 0.931 . S
H192 C132 0.959 . S
H193 C132 0.961 . S
H194 C132 0.959 . S
H195 C133 0.960 . S
H196 C133 0.960 . S
H197 C133 0.960 . S
H198 C169 0.980 . S
H199 C135 0.930 . S
H200 C139 0.930 . S
H201 C140 0.961 . S
H202 C140 0.960 . S
H203 C140 0.958 . S
H204 C141 0.961 . S
H205 C141 0.960 . S
H206 C141 0.960 . S
H207 C143 0.980 . S
H208 C142 0.961 . S
H209 C142 0.961 . S
H210 C142 0.959 . S
H211 C145 0.932 . S
H212 C149 0.929 . S
H213 C150 0.961 . S
H214 C150 0.959 . S
H215 C150 0.959 . S
H216 C151 0.960 . S
H217 C151 0.962 1_545 S
H218 C151 0.961 . S
H219 C153 0.929 . S
H220 C156 0.930 . S
H221 C157 0.929 . S
H222 C160 0.930 . S
H223 C163 0.929 . S
H224 C164 0.930 . S
H225 C168 0.962 . S
H226 C168 0.959 . S
H227 C168 0.958 . S
C228 C229 1.560 . S
C228 H289 0.959 . S
C228 H290 0.959 . S
C228 H291 0.960 . S
C229 C228 1.560 . S
C229 O284 1.426 . S
C229 H288 0.980 . S
C230 C231 1.407 . S
C230 C235 1.418 . S
C230 O284 1.334 . S
C231 C230 1.407 . S
C231 C232 1.360 . S
C231 H292 0.929 . S
C232 C231 1.360 . S
C232 C233 1.401 . S
C232 C236 1.527 . S
C233 C232 1.401 . S
C233 C234 1.405 . S
C233 C266 1.587 . S
C234 C233 1.405 . S
C234 C235 1.332 . S
C234 C237 1.496 . S
C235 C230 1.418 . S
C235 C234 1.332 . S
C235 H293 0.929 . S
C236 C232 1.527 . S
C236 H294 0.959 . S
C236 H295 0.961 . S
C236 H296 0.961 . S
C237 C234 1.496 . S
C237 H297 0.960 . S
C237 H298 0.960 . S
C237 H299 0.961 . S
C238 C239 1.517 . S
C238 H301 0.961 . S
C238 H302 0.960 . S
C238 H303 0.959 . S
C239 C238 1.517 . S
C239 O287 1.468 . S
C239 H300 0.980 . S
C240 C241 1.349 . S
C240 C245 1.367 . S
C240 O287 1.408 . S
C241 C240 1.349 . S
C241 C242 1.407 . S
C241 H304 0.930 . S
C242 C241 1.407 . S
C242 C243 1.449 . S
C242 C246 1.535 . S
C243 C242 1.449 . S
C243 C244 1.384 . S
C243 C268 1.553 . S
C244 C243 1.384 . S
C244 C245 1.364 . S
C244 C247 1.450 . S
C245 C240 1.367 . S
C245 C244 1.364 . S
C245 H305 0.931 . S
C246 C242 1.535 . S
C246 H306 0.959 . S
C246 H307 0.961 . S
C246 H308 0.959 . S
C247 C244 1.450 . S
C247 H309 0.960 . S
C247 H310 0.960 . S
C247 H311 0.960 . S
C248 C249 1.309 . S
C248 C253 1.304 . S
C248 O286 1.435 . S
C249 C248 1.309 . S
C249 C250 1.476 . S
C249 H313 0.930 . S
C250 C249 1.476 . S
C250 C251 1.400 . S
C250 C254 1.567 . S
C251 C250 1.400 . S
C251 C252 1.373 . S
C251 C273 1.432 . S
C252 C251 1.373 . S
C252 C253 1.339 . S
C252 C255 1.530 . S
C253 C248 1.304 . S
C253 C252 1.339 . S
C253 H314 0.930 . S
C254 C250 1.567 . S
C254 H315 0.961 . S
C254 H316 0.960 . S
C254 H317 0.958 . S
C255 C252 1.530 . S
C255 H318 0.961 . S
C255 H319 0.960 . S
C255 H320 0.960 . S
C256 C257 1.530 . S
C256 H322 0.961 . S
C256 H323 0.961 . S
C256 H324 0.959 . S
C257 C256 1.530 . S
C257 O285 1.412 . S
C257 H321 0.980 . S
C258 C259 1.288 . S
C258 C263 1.377 . S
C258 O285 1.393 . S
C259 C258 1.288 . S
C259 C260 1.369 . S
C259 H325 0.932 . S
C260 C259 1.369 . S
C260 C261 1.398 . S
C260 C264 1.527 . S
C261 C260 1.398 . S
C261 C262 1.380 . S
C261 C275 1.497 . S
C262 C261 1.380 . S
C262 C263 1.383 . S
C262 C265 1.603 . S
C263 C258 1.377 . S
C263 C262 1.383 . S
C263 H326 0.929 . S
C264 C260 1.527 . S
C264 H327 0.961 . S
C264 H328 0.959 . S
C264 H329 0.959 . S
C265 C262 1.603 . S
C265 H330 0.960 . S
C265 H331 0.962 . S
C265 H332 0.961 . S
C266 C233 1.587 . S
C266 C267 1.360 . S
C266 C279 1.412 . S
C267 C266 1.360 . S
C267 C268 1.365 . S
C267 H333 0.929 . S
C268 C243 1.553 . S
C268 C267 1.365 . S
C268 C269 1.404 . S
C269 C268 1.404 . S
C269 C270 1.395 . S
C269 C280 1.451 . S
C270 C269 1.395 . S
C270 C271 1.322 . S
C270 H334 0.930 . S
C271 C270 1.322 . S
C271 C272 1.459 . S
C271 H335 0.929 . S
C272 C271 1.459 . S
C272 C273 1.445 . S
C272 C281 1.395 . S
C273 C251 1.432 . S
C273 C272 1.445 . S
C273 C274 1.370 . S
C274 C273 1.370 . S
C274 C275 1.438 . S
C274 H336 0.930 . S
C275 C261 1.497 . S
C275 C274 1.438 . S
C275 C276 1.360 . S
C276 C275 1.360 . S
C276 C277 1.401 . S
C276 C281 1.446 . S
C277 C276 1.401 . S
C277 C278 1.347 . S
C277 H337 0.929 . S
C278 C277 1.347 . S
C278 C279 1.455 . S
C278 H338 0.930 . S
C279 C266 1.412 . S
C279 C278 1.455 . S
C279 C280 1.331 . S
C280 C269 1.451 . S
C280 C279 1.331 . S
C280 C281 1.497 . S
C281 C272 1.395 . S
C281 C276 1.446 . S
C281 C280 1.497 . S
C282 C283 1.582 . S
C282 H339 0.962 . S
C282 H340 0.959 . S
C282 H341 0.958 . S
C283 C282 1.582 . S
C283 O286 1.458 . S
C283 H312 0.980 . S
O284 C229 1.426 . S
O284 C230 1.334 . S
O285 C257 1.412 . S
O285 C258 1.393 . S
O286 C248 1.435 . S
O286 C283 1.458 . S
O287 C239 1.468 . S
O287 C240 1.408 . S
H288 C229 0.980 . S
H289 C228 0.959 . S
H290 C228 0.959 . S
H291 C228 0.960 . S
H292 C231 0.929 . S
H293 C235 0.929 . S
H294 C236 0.959 . S
H295 C236 0.961 . S
H296 C236 0.961 . S
H297 C237 0.960 . S
H298 C237 0.960 . S
H299 C237 0.961 . S
H300 C239 0.980 . S
H301 C238 0.961 . S
H302 C238 0.960 . S
H303 C238 0.959 . S
H304 C241 0.930 . S
H305 C245 0.931 . S
H306 C246 0.959 . S
H307 C246 0.961 . S
H308 C246 0.959 . S
H309 C247 0.960 . S
H310 C247 0.960 . S
H311 C247 0.960 . S
H312 C283 0.980 . S
H313 C249 0.930 . S
H314 C253 0.930 . S
H315 C254 0.961 . S
H316 C254 0.960 . S
H317 C254 0.958 . S
H318 C255 0.961 . S
H319 C255 0.960 . S
H320 C255 0.960 . S
H321 C257 0.980 . S
H322 C256 0.961 . S
H323 C256 0.961 . S
H324 C256 0.959 . S
H325 C259 0.932 . S
H326 C263 0.929 . S
H327 C264 0.961 . S
H328 C264 0.959 . S
H329 C264 0.959 . S
H330 C265 0.960 . S
H331 C265 0.962 . S
H332 C265 0.961 . S
H333 C267 0.929 . S
H334 C270 0.930 . S
H335 C271 0.929 . S
H336 C274 0.930 . S
H337 C277 0.929 . S
H338 C278 0.930 . S
H339 C282 0.962 . S
H340 C282 0.959 . S
H341 C282 0.958 . S
C342 C343 1.560 . S
C342 H403 0.959 . S
C342 H404 0.959 . S
C342 H405 0.960 . S
C343 C342 1.560 . S
C343 O398 1.426 . S
C343 H402 0.980 . S
C344 C345 1.407 . S
C344 C349 1.418 . S
C344 O398 1.334 . S
C345 C344 1.407 . S
C345 C346 1.360 . S
C345 H406 0.929 . S
C346 C345 1.360 . S
C346 C347 1.401 . S
C346 C350 1.527 . S
C347 C346 1.401 . S
C347 C348 1.405 . S
C347 C380 1.587 . S
C348 C347 1.405 . S
C348 C349 1.332 . S
C348 C351 1.496 . S
C349 C344 1.418 . S
C349 C348 1.332 . S
C349 H407 0.929 . S
C350 C346 1.527 . S
C350 H408 0.959 . S
C350 H409 0.961 . S
C350 H410 0.961 . S
C351 C348 1.496 . S
C351 H411 0.960 . S
C351 H412 0.960 . S
C351 H413 0.961 . S
C352 C353 1.517 . S
C352 H415 0.961 . S
C352 H416 0.960 . S
C352 H417 0.959 . S
C353 C352 1.517 . S
C353 O401 1.468 . S
C353 H414 0.980 . S
C354 C355 1.349 . S
C354 C359 1.367 . S
C354 O401 1.408 . S
C355 C354 1.349 . S
C355 C356 1.407 . S
C355 H418 0.930 . S
C356 C355 1.407 . S
C356 C357 1.449 1_655 S
C356 C360 1.535 1_655 S
C357 C356 1.449 1_455 S
C357 C358 1.384 1_455 S
C357 C382 1.553 . S
C358 C357 1.384 1_655 S
C358 C359 1.364 . S
C358 C361 1.450 1_655 S
C359 C354 1.367 . S
C359 C358 1.364 . S
C359 H419 0.931 . S
C360 C356 1.535 1_455 S
C360 H420 0.959 . S
C360 H421 0.961 . S
C360 H422 0.959 1_455 S
C361 C358 1.450 1_455 S
C361 H423 0.960 1_455 S
C361 H424 0.960 . S
C361 H425 0.960 1_455 S
C362 C363 1.309 . S
C362 C367 1.304 . S
C362 O400 1.435 . S
C363 C362 1.309 . S
C363 C364 1.476 . S
C363 H427 0.930 . S
C364 C363 1.476 . S
C364 C365 1.400 . S
C364 C368 1.567 . S
C365 C364 1.400 . S
C365 C366 1.373 . S
C365 C387 1.432 . S
C366 C365 1.373 . S
C366 C367 1.339 . S
C366 C369 1.530 . S
C367 C362 1.304 . S
C367 C366 1.339 . S
C367 H428 0.930 . S
C368 C364 1.567 . S
C368 H429 0.961 . S
C368 H430 0.960 . S
C368 H431 0.958 . S
C369 C366 1.530 . S
C369 H432 0.961 . S
C369 H433 0.960 . S
C369 H434 0.960 . S
C370 C371 1.530 . S
C370 H436 0.961 . S
C370 H437 0.961 . S
C370 H438 0.959 . S
C371 C370 1.530 . S
C371 O399 1.412 . S
C371 H435 0.980 . S
C372 C373 1.288 . S
C372 C377 1.377 . S
C372 O399 1.393 . S
C373 C372 1.288 . S
C373 C374 1.369 . S
C373 H439 0.932 . S
C374 C373 1.369 . S
C374 C375 1.398 . S
C374 C378 1.527 . S
C375 C374 1.398 . S
C375 C376 1.380 . S
C375 C389 1.497 . S
C376 C375 1.380 . S
C376 C377 1.383 . S
C376 C379 1.603 . S
C377 C372 1.377 . S
C377 C376 1.383 . S
C377 H440 0.929 . S
C378 C374 1.527 . S
C378 H441 0.961 . S
C378 H442 0.959 . S
C378 H443 0.959 . S
C379 C376 1.603 . S
C379 H444 0.960 . S
C379 H445 0.962 . S
C379 H446 0.961 . S
C380 C347 1.587 . S
C380 C381 1.360 . S
C380 C393 1.412 . S
C381 C380 1.360 . S
C381 C382 1.365 . S
C381 H447 0.929 . S
C382 C357 1.553 . S
C382 C381 1.365 . S
C382 C383 1.404 . S
C383 C382 1.404 . S
C383 C384 1.395 1_455 S
C383 C394 1.451 . S
C384 C383 1.395 1_655 S
C384 C385 1.322 . S
C384 H448 0.930 . S
C385 C384 1.322 . S
C385 C386 1.459 . S
C385 H449 0.929 . S
C386 C385 1.459 . S
C386 C387 1.445 . S
C386 C395 1.395 1_655 S
C387 C365 1.432 . S
C387 C386 1.445 . S
C387 C388 1.370 . S
C388 C387 1.370 . S
C388 C389 1.438 1_655 S
C388 H450 0.930 . S
C389 C375 1.497 . S
C389 C388 1.438 1_455 S
C389 C390 1.360 . S
C390 C389 1.360 . S
C390 C391 1.401 . S
C390 C395 1.446 . S
C391 C390 1.401 . S
C391 C392 1.347 . S
C391 H451 0.929 . S
C392 C391 1.347 . S
C392 C393 1.455 . S
C392 H452 0.930 . S
C393 C380 1.412 . S
C393 C392 1.455 . S
C393 C394 1.331 . S
C394 C383 1.451 . S
C394 C393 1.331 . S
C394 C395 1.497 . S
C395 C386 1.395 1_455 S
C395 C390 1.446 . S
C395 C394 1.497 . S
C396 C397 1.582 . S
C396 H453 0.962 . S
C396 H454 0.959 . S
C396 H455 0.958 . S
C397 C396 1.582 . S
C397 O400 1.458 . S
C397 H426 0.980 . S
O398 C343 1.426 . S
O398 C344 1.334 . S
O399 C371 1.412 . S
O399 C372 1.393 . S
O400 C362 1.435 . S
O400 C397 1.458 . S
O401 C353 1.468 . S
O401 C354 1.408 . S
H402 C343 0.980 . S
H403 C342 0.959 . S
H404 C342 0.959 . S
H405 C342 0.960 . S
H406 C345 0.929 . S
H407 C349 0.929 . S
H408 C350 0.959 . S
H409 C350 0.961 . S
H410 C350 0.961 . S
H411 C351 0.960 . S
H412 C351 0.960 . S
H413 C351 0.961 . S
H414 C353 0.980 . S
H415 C352 0.961 . S
H416 C352 0.960 . S
H417 C352 0.959 . S
H418 C355 0.930 . S
H419 C359 0.931 . S
H420 C360 0.959 . S
H421 C360 0.961 . S
H422 C360 0.959 1_655 S
H423 C361 0.960 1_655 S
H424 C361 0.960 . S
H425 C361 0.960 1_655 S
H426 C397 0.980 . S
H427 C363 0.930 . S
H428 C367 0.930 . S
H429 C368 0.961 . S
H430 C368 0.960 . S
H431 C368 0.958 . S
H432 C369 0.961 . S
H433 C369 0.960 . S
H434 C369 0.960 . S
H435 C371 0.980 . S
H436 C370 0.961 . S
H437 C370 0.961 . S
H438 C370 0.959 . S
H439 C373 0.932 . S
H440 C377 0.929 . S
H441 C378 0.961 . S
H442 C378 0.959 . S
H443 C378 0.959 . S
H444 C379 0.960 . S
H445 C379 0.962 . S
H446 C379 0.961 . S
H447 C381 0.929 . S
H448 C384 0.930 . S
H449 C385 0.929 . S
H450 C388 0.930 . S
H451 C391 0.929 . S
H452 C392 0.930 . S
H453 C396 0.962 . S
H454 C396 0.959 . S
H455 C396 0.958 . S
C456 C457 1.560 . S
C456 H517 0.959 . S
C456 H518 0.959 . S
C456 H519 0.960 . S
C457 C456 1.560 . S
C457 O512 1.426 . S
C457 H516 0.980 . S
C458 C459 1.407 . S
C458 C463 1.418 . S
C458 O512 1.334 . S
C459 C458 1.407 . S
C459 C460 1.360 . S
C459 H520 0.929 . S
C460 C459 1.360 . S
C460 C461 1.401 . S
C460 C464 1.527 . S
C461 C460 1.401 . S
C461 C462 1.405 . S
C461 C494 1.587 . S
C462 C461 1.405 . S
C462 C463 1.332 . S
C462 C465 1.496 . S
C463 C458 1.418 . S
C463 C462 1.332 . S
C463 H521 0.929 . S
C464 C460 1.527 . S
C464 H522 0.959 . S
C464 H523 0.961 . S
C464 H524 0.961 . S
C465 C462 1.496 . S
C465 H525 0.960 . S
C465 H526 0.960 . S
C465 H527 0.961 . S
C466 C467 1.517 . S
C466 H529 0.961 . S
C466 H530 0.960 . S
C466 H531 0.959 . S
C467 C466 1.517 . S
C467 O515 1.468 . S
C467 H528 0.980 . S
C468 C469 1.349 . S
C468 C473 1.367 . S
C468 O515 1.408 . S
C469 C468 1.349 . S
C469 C470 1.407 . S
C469 H532 0.930 . S
C470 C469 1.407 . S
C470 C471 1.449 . S
C470 C474 1.535 . S
C471 C470 1.449 . S
C471 C472 1.384 . S
C471 C496 1.553 . S
C472 C471 1.384 . S
C472 C473 1.364 . S
C472 C475 1.450 . S
C473 C468 1.367 . S
C473 C472 1.364 . S
C473 H533 0.931 . S
C474 C470 1.535 . S
C474 H534 0.959 . S
C474 H535 0.961 . S
C474 H536 0.959 . S
C475 C472 1.450 . S
C475 H537 0.960 . S
C475 H538 0.960 . S
C475 H539 0.960 . S
C476 C477 1.309 . S
C476 C481 1.304 . S
C476 O514 1.435 . S
C477 C476 1.309 . S
C477 C478 1.476 . S
C477 H541 0.930 . S
C478 C477 1.476 . S
C478 C479 1.400 . S
C478 C482 1.567 . S
C479 C478 1.400 . S
C479 C480 1.373 . S
C479 C501 1.432 . S
C480 C479 1.373 . S
C480 C481 1.339 . S
C480 C483 1.530 . S
C481 C476 1.304 . S
C481 C480 1.339 . S
C481 H542 0.930 . S
C482 C478 1.567 . S
C482 H543 0.961 . S
C482 H544 0.960 . S
C482 H545 0.958 . S
C483 C480 1.530 . S
C483 H546 0.961 . S
C483 H547 0.960 . S
C483 H548 0.960 . S
C484 C485 1.530 . S
C484 H550 0.961 . S
C484 H551 0.961 . S
C484 H552 0.959 . S
C485 C484 1.530 . S
C485 O513 1.412 . S
C485 H549 0.980 . S
C486 C487 1.288 . S
C486 C491 1.377 . S
C486 O513 1.393 . S
C487 C486 1.288 . S
C487 C488 1.369 1_565 S
C487 H553 0.932 . S
C488 C487 1.369 1_545 S
C488 C489 1.398 . S
C488 C492 1.527 . S
C489 C488 1.398 . S
C489 C490 1.380 1_545 S
C489 C503 1.497 . S
C490 C489 1.380 1_565 S
C490 C491 1.383 . S
C490 C493 1.603 . S
C491 C486 1.377 . S
C491 C490 1.383 . S
C491 H554 0.929 . S
C492 C488 1.527 . S
C492 H555 0.961 . S
C492 H556 0.959 . S
C492 H557 0.959 . S
C493 C490 1.603 . S
C493 H558 0.960 . S
C493 H559 0.962 1_565 S
C493 H560 0.961 . S
C494 C461 1.587 . S
C494 C495 1.360 . S
C494 C507 1.412 . S
C495 C494 1.360 . S
C495 C496 1.365 1_565 S
C495 H561 0.929 . S
C496 C471 1.553 . S
C496 C495 1.365 1_545 S
C496 C497 1.404 . S
C497 C496 1.404 . S
C497 C498 1.395 . S
C497 C508 1.451 . S
C498 C497 1.395 . S
C498 C499 1.322 . S
C498 H562 0.930 . S
C499 C498 1.322 . S
C499 C500 1.459 . S
C499 H563 0.929 . S
C500 C499 1.459 . S
C500 C501 1.445 1_556 S
C500 C509 1.395 . S
C501 C479 1.432 . S
C501 C500 1.445 1_554 S
C501 C502 1.370 . S
C502 C501 1.370 . S
C502 C503 1.438 . S
C502 H564 0.930 . S
C503 C489 1.497 . S
C503 C502 1.438 . S
C503 C504 1.360 . S
C504 C503 1.360 . S
C504 C505 1.401 1_545 S
C504 C509 1.446 1_554 S
C505 C504 1.401 1_565 S
C505 C506 1.347 1_554 S
C505 H565 0.929 . S
C506 C505 1.347 1_556 S
C506 C507 1.455 . S
C506 H566 0.930 . S
C507 C494 1.412 . S
C507 C506 1.455 . S
C507 C508 1.331 1_565 S
C508 C497 1.451 . S
C508 C507 1.331 1_545 S
C508 C509 1.497 . S
C509 C500 1.395 . S
C509 C504 1.446 1_556 S
C509 C508 1.497 . S
C510 C511 1.582 . S
C510 H567 0.962 . S
C510 H568 0.959 . S
C510 H569 0.958 . S
C511 C510 1.582 . S
C511 O514 1.458 . S
C511 H540 0.980 . S
O512 C457 1.426 . S
O512 C458 1.334 . S
O513 C485 1.412 . S
O513 C486 1.393 . S
O514 C476 1.435 . S
O514 C511 1.458 . S
O515 C467 1.468 . S
O515 C468 1.408 . S
H516 C457 0.980 . S
H517 C456 0.959 . S
H518 C456 0.959 . S
H519 C456 0.960 . S
H520 C459 0.929 . S
H521 C463 0.929 . S
H522 C464 0.959 . S
H523 C464 0.961 . S
H524 C464 0.961 . S
H525 C465 0.960 . S
H526 C465 0.960 . S
H527 C465 0.961 . S
H528 C467 0.980 . S
H529 C466 0.961 . S
H530 C466 0.960 . S
H531 C466 0.959 . S
H532 C469 0.930 . S
H533 C473 0.931 . S
H534 C474 0.959 . S
H535 C474 0.961 . S
H536 C474 0.959 . S
H537 C475 0.960 . S
H538 C475 0.960 . S
H539 C475 0.960 . S
H540 C511 0.980 . S
H541 C477 0.930 . S
H542 C481 0.930 . S
H543 C482 0.961 . S
H544 C482 0.960 . S
H545 C482 0.958 . S
H546 C483 0.961 . S
H547 C483 0.960 . S
H548 C483 0.960 . S
H549 C485 0.980 . S
H550 C484 0.961 . S
H551 C484 0.961 . S
H552 C484 0.959 . S
H553 C487 0.932 . S
H554 C491 0.929 . S
H555 C492 0.961 . S
H556 C492 0.959 . S
H557 C492 0.959 . S
H558 C493 0.960 . S
H559 C493 0.962 1_545 S
H560 C493 0.961 . S
H561 C495 0.929 . S
H562 C498 0.930 . S
H563 C499 0.929 . S
H564 C502 0.930 . S
H565 C505 0.929 . S
H566 C506 0.930 . S
H567 C510 0.962 . S
H568 C510 0.959 . S
H569 C510 0.958 . S
C570 C571 1.560 . S
C570 H631 0.959 . S
C570 H632 0.959 . S
C570 H633 0.960 . S
C571 C570 1.560 . S
C571 O626 1.426 . S
C571 H630 0.980 . S
C572 C573 1.407 . S
C572 C577 1.418 . S
C572 O626 1.334 . S
C573 C572 1.407 . S
C573 C574 1.360 . S
C573 H634 0.929 . S
C574 C573 1.360 . S
C574 C575 1.401 . S
C574 C578 1.527 . S
C575 C574 1.401 . S
C575 C576 1.405 . S
C575 C608 1.587 . S
C576 C575 1.405 . S
C576 C577 1.332 . S
C576 C579 1.496 . S
C577 C572 1.418 . S
C577 C576 1.332 . S
C577 H635 0.929 . S
C578 C574 1.527 . S
C578 H636 0.959 . S
C578 H637 0.961 . S
C578 H638 0.961 . S
C579 C576 1.496 . S
C579 H639 0.960 . S
C579 H640 0.960 . S
C579 H641 0.961 . S
C580 C581 1.517 . S
C580 H643 0.961 . S
C580 H644 0.960 . S
C580 H645 0.959 . S
C581 C580 1.517 . S
C581 O629 1.468 . S
C581 H642 0.980 . S
C582 C583 1.349 . S
C582 C587 1.367 . S
C582 O629 1.408 . S
C583 C582 1.349 . S
C583 C584 1.407 . S
C583 H646 0.930 . S
C584 C583 1.407 . S
C584 C585 1.449 . S
C584 C588 1.535 . S
C585 C584 1.449 . S
C585 C586 1.384 . S
C585 C610 1.553 . S
C586 C585 1.384 . S
C586 C587 1.364 . S
C586 C589 1.450 . S
C587 C582 1.367 . S
C587 C586 1.364 . S
C587 H647 0.931 . S
C588 C584 1.535 . S
C588 H648 0.959 . S
C588 H649 0.961 . S
C588 H650 0.959 . S
C589 C586 1.450 . S
C589 H651 0.960 . S
C589 H652 0.960 . S
C589 H653 0.960 . S
C590 C591 1.309 . S
C590 C595 1.304 . S
C590 O628 1.435 . S
C591 C590 1.309 . S
C591 C592 1.476 . S
C591 H655 0.930 . S
C592 C591 1.476 . S
C592 C593 1.400 . S
C592 C596 1.567 . S
C593 C592 1.400 . S
C593 C594 1.373 . S
C593 C615 1.432 . S
C594 C593 1.373 . S
C594 C595 1.339 . S
C594 C597 1.530 . S
C595 C590 1.304 . S
C595 C594 1.339 . S
C595 H656 0.930 . S
C596 C592 1.567 . S
C596 H657 0.961 . S
C596 H658 0.960 . S
C596 H659 0.958 . S
C597 C594 1.530 . S
C597 H660 0.961 . S
C597 H661 0.960 . S
C597 H662 0.960 . S
C598 C599 1.530 . S
C598 H664 0.961 . S
C598 H665 0.961 . S
C598 H666 0.959 . S
C599 C598 1.530 . S
C599 O627 1.412 . S
C599 H663 0.980 . S
C600 C601 1.288 . S
C600 C605 1.377 . S
C600 O627 1.393 . S
C601 C600 1.288 . S
C601 C602 1.369 . S
C601 H667 0.932 . S
C602 C601 1.369 . S
C602 C603 1.398 . S
C602 C606 1.527 . S
C603 C602 1.398 . S
C603 C604 1.380 . S
C603 C617 1.497 . S
C604 C603 1.380 . S
C604 C605 1.383 . S
C604 C607 1.603 . S
C605 C600 1.377 . S
C605 C604 1.383 . S
C605 H668 0.929 . S
C606 C602 1.527 . S
C606 H669 0.961 . S
C606 H670 0.959 . S
C606 H671 0.959 . S
C607 C604 1.603 . S
C607 H672 0.960 . S
C607 H673 0.962 . S
C607 H674 0.961 . S
C608 C575 1.587 . S
C608 C609 1.360 . S
C608 C621 1.412 . S
C609 C608 1.360 . S
C609 C610 1.365 . S
C609 H675 0.929 . S
C610 C585 1.553 . S
C610 C609 1.365 . S
C610 C611 1.404 . S
C611 C610 1.404 . S
C611 C612 1.395 . S
C611 C622 1.451 . S
C612 C611 1.395 . S
C612 C613 1.322 . S
C612 H676 0.930 . S
C613 C612 1.322 . S
C613 C614 1.459 . S
C613 H677 0.929 . S
C614 C613 1.459 . S
C614 C615 1.445 . S
C614 C623 1.395 . S
C615 C593 1.432 . S
C615 C614 1.445 . S
C615 C616 1.370 . S
C616 C615 1.370 . S
C616 C617 1.438 . S
C616 H678 0.930 . S
C617 C603 1.497 . S
C617 C616 1.438 . S
C617 C618 1.360 . S
C618 C617 1.360 . S
C618 C619 1.401 . S
C618 C623 1.446 . S
C619 C618 1.401 . S
C619 C620 1.347 . S
C619 H679 0.929 . S
C620 C619 1.347 . S
C620 C621 1.455 . S
C620 H680 0.930 . S
C621 C608 1.412 . S
C621 C620 1.455 . S
C621 C622 1.331 . S
C622 C611 1.451 . S
C622 C621 1.331 . S
C622 C623 1.497 . S
C623 C614 1.395 . S
C623 C618 1.446 . S
C623 C622 1.497 . S
C624 C625 1.582 . S
C624 H681 0.962 . S
C624 H682 0.959 . S
C624 H683 0.958 . S
C625 C624 1.582 . S
C625 O628 1.458 . S
C625 H654 0.980 . S
O626 C571 1.426 . S
O626 C572 1.334 . S
O627 C599 1.412 . S
O627 C600 1.393 . S
O628 C590 1.435 . S
O628 C625 1.458 . S
O629 C581 1.468 . S
O629 C582 1.408 . S
H630 C571 0.980 . S
H631 C570 0.959 . S
H632 C570 0.959 . S
H633 C570 0.960 . S
H634 C573 0.929 . S
H635 C577 0.929 . S
H636 C578 0.959 . S
H637 C578 0.961 . S
H638 C578 0.961 . S
H639 C579 0.960 . S
H640 C579 0.960 . S
H641 C579 0.961 . S
H642 C581 0.980 . S
H643 C580 0.961 . S
H644 C580 0.960 . S
H645 C580 0.959 . S
H646 C583 0.930 . S
H647 C587 0.931 . S
H648 C588 0.959 . S
H649 C588 0.961 . S
H650 C588 0.959 . S
H651 C589 0.960 . S
H652 C589 0.960 . S
H653 C589 0.960 . S
H654 C625 0.980 . S
H655 C591 0.930 . S
H656 C595 0.930 . S
H657 C596 0.961 . S
H658 C596 0.960 . S
H659 C596 0.958 . S
H660 C597 0.961 . S
H661 C597 0.960 . S
H662 C597 0.960 . S
H663 C599 0.980 . S
H664 C598 0.961 . S
H665 C598 0.961 . S
H666 C598 0.959 . S
H667 C601 0.932 . S
H668 C605 0.929 . S
H669 C606 0.961 . S
H670 C606 0.959 . S
H671 C606 0.959 . S
H672 C607 0.960 . S
H673 C607 0.962 . S
H674 C607 0.961 . S
H675 C609 0.929 . S
H676 C612 0.930 . S
H677 C613 0.929 . S
H678 C616 0.930 . S
H679 C619 0.929 . S
H680 C620 0.930 . S
H681 C624 0.962 . S
H682 C624 0.959 . S
H683 C624 0.958 . S
Mn684 O689 2.095 . S
Mn684 O699 2.162 . S
Mn684 O700 2.297 . S
Mn684 O708 2.385 . S
Mn684 O709 2.209 . S
Mn684 O710 2.094 . S
Mn685 O690 2.121 . S
Mn685 N692 2.257 . S
Mn685 N701 2.282 . S
Mn685 O709 2.215 . S
Mn685 O711 2.117 . S
C686 O708 1.234 . S
C686 O709 1.283 . S
C687 O699 1.281 . S
C687 O700 1.236 . S
C688 O710 1.240 . S
C688 O711 1.264 . S
O689 Mn684 2.095 . S
O689 C698 1.250 . S
O690 Mn685 2.121 . S
O690 C698 1.258 . S
C691 N692 1.326 . S
C691 C695 1.460 . S
C691 H697 0.929 . S
N692 Mn685 2.257 . S
N692 C691 1.326 . S
N692 C696 1.362 . S
C693 C694 1.258 . S
C693 C696 1.431 . S
C693 C713 1.449 . S
C694 C693 1.258 . S
C694 C695 1.477 . S
C694 H714 0.931 . S
C695 C691 1.460 . S
C695 C694 1.477 . S
C695 H715 0.930 . S
C696 N692 1.362 . S
C696 C693 1.431 . S
C696 C706 1.476 . S
H697 C691 0.929 . S
C698 O689 1.250 . S
C698 O690 1.258 . S
O699 Mn684 2.162 . S
O699 C687 1.281 . S
O700 Mn684 2.297 . S
O700 C687 1.236 . S
N701 Mn685 2.282 . S
N701 C702 1.328 . S
N701 C706 1.318 . S
C702 N701 1.328 . S
C702 C703 1.457 . S
C702 H707 0.929 . S
C703 C702 1.457 . S
C703 C704 1.291 . S
C703 H716 0.931 . S
C704 C703 1.291 . S
C704 C705 1.373 . S
C704 H717 0.929 . S
C705 C704 1.373 . S
C705 C706 1.396 . S
C705 C712 1.403 . S
C706 C696 1.476 . S
C706 N701 1.318 . S
C706 C705 1.396 . S
H707 C702 0.929 . S
O708 Mn684 2.385 . S
O708 C686 1.234 . S
O709 Mn684 2.209 . S
O709 Mn685 2.215 . S
O709 C686 1.283 . S
O710 Mn684 2.094 . S
O710 C688 1.240 . S
O711 Mn685 2.117 . S
O711 C688 1.264 . S
C712 C705 1.403 . S
C712 C713 1.399 . S
C712 H718 0.929 . S
C713 C693 1.449 . S
C713 C712 1.399 . S
C713 H719 0.930 . S
H714 C694 0.931 . S
H715 C695 0.930 . S
H716 C703 0.931 . S
H717 C704 0.929 . S
H718 C712 0.929 . S
H719 C713 0.930 . S
Mn720 O725 2.095 . S
Mn720 O735 2.162 . S
Mn720 O736 2.297 . S
Mn720 O744 2.385 . S
Mn720 O745 2.209 . S
Mn720 O746 2.094 . S
Mn721 O726 2.121 . S
Mn721 N728 2.257 . S
Mn721 N737 2.282 . S
Mn721 O745 2.215 . S
Mn721 O747 2.117 . S
C722 O744 1.234 . S
C722 O745 1.283 . S
C723 O735 1.281 . S
C723 O736 1.236 . S
C724 O746 1.240 . S
C724 O747 1.264 . S
O725 Mn720 2.095 . S
O725 C734 1.250 . S
O726 Mn721 2.121 . S
O726 C734 1.258 . S
C727 N728 1.326 . S
C727 C731 1.460 . S
C727 H733 0.929 . S
N728 Mn721 2.257 . S
N728 C727 1.326 . S
N728 C732 1.362 . S
C729 C730 1.258 . S
C729 C732 1.431 . S
C729 C749 1.449 . S
C730 C729 1.258 . S
C730 C731 1.477 . S
C730 H750 0.931 . S
C731 C727 1.460 . S
C731 C730 1.477 . S
C731 H751 0.930 . S
C732 N728 1.362 . S
C732 C729 1.431 . S
C732 C742 1.476 . S
H733 C727 0.929 . S
C734 O725 1.250 . S
C734 O726 1.258 . S
O735 Mn720 2.162 . S
O735 C723 1.281 . S
O736 Mn720 2.297 . S
O736 C723 1.236 . S
N737 Mn721 2.282 . S
N737 C738 1.328 . S
N737 C742 1.318 . S
C738 N737 1.328 . S
C738 C739 1.457 . S
C738 H743 0.929 . S
C739 C738 1.457 . S
C739 C740 1.291 . S
C739 H752 0.931 . S
C740 C739 1.291 . S
C740 C741 1.373 . S
C740 H753 0.929 . S
C741 C740 1.373 . S
C741 C742 1.396 . S
C741 C748 1.403 . S
C742 C732 1.476 . S
C742 N737 1.318 . S
C742 C741 1.396 . S
H743 C738 0.929 . S
O744 Mn720 2.385 . S
O744 C722 1.234 . S
O745 Mn720 2.209 . S
O745 Mn721 2.215 . S
O745 C722 1.283 . S
O746 Mn720 2.094 . S
O746 C724 1.240 . S
O747 Mn721 2.117 . S
O747 C724 1.264 . S
C748 C741 1.403 . S
C748 C749 1.399 . S
C748 H754 0.929 . S
C749 C729 1.449 . S
C749 C748 1.399 . S
C749 H755 0.930 . S
H750 C730 0.931 . S
H751 C731 0.930 . S
H752 C739 0.931 . S
H753 C740 0.929 . S
H754 C748 0.929 . S
H755 C749 0.930 . S
Mn756 O761 2.095 . S
Mn756 O771 2.162 . S
Mn756 O772 2.297 . S
Mn756 O780 2.385 . S
Mn756 O781 2.209 . S
Mn756 O782 2.094 . S
Mn757 O762 2.121 . S
Mn757 N764 2.257 . S
Mn757 N773 2.282 . S
Mn757 O781 2.215 . S
Mn757 O783 2.117 . S
C758 O780 1.234 . S
C758 O781 1.283 . S
C759 O771 1.281 . S
C759 O772 1.236 . S
C760 O782 1.240 . S
C760 O783 1.264 . S
O761 Mn756 2.095 . S
O761 C770 1.250 . S
O762 Mn757 2.121 . S
O762 C770 1.258 . S
C763 N764 1.326 . S
C763 C767 1.460 . S
C763 H769 0.929 . S
N764 Mn757 2.257 . S
N764 C763 1.326 . S
N764 C768 1.362 . S
C765 C766 1.258 . S
C765 C768 1.431 . S
C765 C785 1.449 . S
C766 C765 1.258 . S
C766 C767 1.477 . S
C766 H786 0.931 . S
C767 C763 1.460 . S
C767 C766 1.477 . S
C767 H787 0.930 . S
C768 N764 1.362 . S
C768 C765 1.431 . S
C768 C778 1.476 . S
H769 C763 0.929 . S
C770 O761 1.250 . S
C770 O762 1.258 . S
O771 Mn756 2.162 . S
O771 C759 1.281 . S
O772 Mn756 2.297 . S
O772 C759 1.236 . S
N773 Mn757 2.282 . S
N773 C774 1.328 . S
N773 C778 1.318 . S
C774 N773 1.328 . S
C774 C775 1.457 . S
C774 H779 0.929 . S
C775 C774 1.457 . S
C775 C776 1.291 . S
C775 H788 0.931 . S
C776 C775 1.291 . S
C776 C777 1.373 . S
C776 H789 0.929 . S
C777 C776 1.373 . S
C777 C778 1.396 . S
C777 C784 1.403 . S
C778 C768 1.476 . S
C778 N773 1.318 . S
C778 C777 1.396 . S
H779 C774 0.929 . S
O780 Mn756 2.385 . S
O780 C758 1.234 . S
O781 Mn756 2.209 . S
O781 Mn757 2.215 . S
O781 C758 1.283 . S
O782 Mn756 2.094 . S
O782 C760 1.240 . S
O783 Mn757 2.117 . S
O783 C760 1.264 . S
C784 C777 1.403 . S
C784 C785 1.399 . S
C784 H790 0.929 . S
C785 C765 1.449 . S
C785 C784 1.399 . S
C785 H791 0.930 . S
H786 C766 0.931 . S
H787 C767 0.930 . S
H788 C775 0.931 . S
H789 C776 0.929 . S
H790 C784 0.929 . S
H791 C785 0.930 . S
Mn792 O797 2.095 . S
Mn792 O807 2.162 . S
Mn792 O808 2.297 . S
Mn792 O816 2.385 . S
Mn792 O817 2.209 . S
Mn792 O818 2.094 . S
Mn793 O798 2.121 . S
Mn793 N800 2.257 . S
Mn793 N809 2.282 . S
Mn793 O817 2.215 . S
Mn793 O819 2.117 . S
C794 O816 1.234 . S
C794 O817 1.283 . S
C795 O807 1.281 . S
C795 O808 1.236 . S
C796 O818 1.240 . S
C796 O819 1.264 . S
O797 Mn792 2.095 . S
O797 C806 1.250 . S
O798 Mn793 2.121 . S
O798 C806 1.258 . S
C799 N800 1.326 . S
C799 C803 1.460 . S
C799 H805 0.929 . S
N800 Mn793 2.257 . S
N800 C799 1.326 . S
N800 C804 1.362 . S
C801 C802 1.258 . S
C801 C804 1.431 . S
C801 C821 1.449 . S
C802 C801 1.258 . S
C802 C803 1.477 . S
C802 H822 0.931 . S
C803 C799 1.460 . S
C803 C802 1.477 . S
C803 H823 0.930 . S
C804 N800 1.362 . S
C804 C801 1.431 . S
C804 C814 1.476 . S
H805 C799 0.929 . S
C806 O797 1.250 . S
C806 O798 1.258 . S
O807 Mn792 2.162 . S
O807 C795 1.281 . S
O808 Mn792 2.297 . S
O808 C795 1.236 . S
N809 Mn793 2.282 . S
N809 C810 1.328 . S
N809 C814 1.318 . S
C810 N809 1.328 . S
C810 C811 1.457 . S
C810 H815 0.929 . S
C811 C810 1.457 . S
C811 C812 1.291 . S
C811 H824 0.931 . S
C812 C811 1.291 . S
C812 C813 1.373 . S
C812 H825 0.929 . S
C813 C812 1.373 . S
C813 C814 1.396 . S
C813 C820 1.403 . S
C814 C804 1.476 . S
C814 N809 1.318 . S
C814 C813 1.396 . S
H815 C810 0.929 . S
O816 Mn792 2.385 . S
O816 C794 1.234 . S
O817 Mn792 2.209 . S
O817 Mn793 2.215 . S
O817 C794 1.283 . S
O818 Mn792 2.094 . S
O818 C796 1.240 . S
O819 Mn793 2.117 . S
O819 C796 1.264 . S
C820 C813 1.403 . S
C820 C821 1.399 . S
C820 H826 0.929 . S
C821 C801 1.449 . S
C821 C820 1.399 . S
C821 H827 0.930 . S
H822 C802 0.931 . S
H823 C803 0.930 . S
H824 C811 0.931 . S
H825 C812 0.929 . S
H826 C820 0.929 . S
H827 C821 0.930 . S
Mn828 O833 2.095 . S
Mn828 O843 2.162 . S
Mn828 O844 2.297 . S
Mn828 O852 2.385 . S
Mn828 O853 2.209 . S
Mn828 O854 2.094 . S
Mn829 O834 2.121 . S
Mn829 N836 2.257 . S
Mn829 N845 2.282 . S
Mn829 O853 2.215 . S
Mn829 O855 2.117 . S
C830 O852 1.234 . S
C830 O853 1.283 . S
C831 O843 1.281 . S
C831 O844 1.236 . S
C832 O854 1.240 . S
C832 O855 1.264 . S
O833 Mn828 2.095 . S
O833 C842 1.250 . S
O834 Mn829 2.121 . S
O834 C842 1.258 . S
C835 N836 1.326 . S
C835 C839 1.460 . S
C835 H841 0.929 . S
N836 Mn829 2.257 . S
N836 C835 1.326 . S
N836 C840 1.362 . S
C837 C838 1.258 . S
C837 C840 1.431 . S
C837 C857 1.449 . S
C838 C837 1.258 . S
C838 C839 1.477 . S
C838 H858 0.931 . S
C839 C835 1.460 . S
C839 C838 1.477 . S
C839 H859 0.930 . S
C840 N836 1.362 . S
C840 C837 1.431 . S
C840 C850 1.476 . S
H841 C835 0.929 . S
C842 O833 1.250 . S
C842 O834 1.258 . S
O843 Mn828 2.162 . S
O843 C831 1.281 . S
O844 Mn828 2.297 . S
O844 C831 1.236 . S
N845 Mn829 2.282 . S
N845 C846 1.328 . S
N845 C850 1.318 . S
C846 N845 1.328 . S
C846 C847 1.457 . S
C846 H851 0.929 . S
C847 C846 1.457 . S
C847 C848 1.291 . S
C847 H860 0.931 . S
C848 C847 1.291 . S
C848 C849 1.373 . S
C848 H861 0.929 . S
C849 C848 1.373 . S
C849 C850 1.396 . S
C849 C856 1.403 . S
C850 C840 1.476 . S
C850 N845 1.318 . S
C850 C849 1.396 . S
H851 C846 0.929 . S
O852 Mn828 2.385 . S
O852 C830 1.234 . S
O853 Mn828 2.209 . S
O853 Mn829 2.215 . S
O853 C830 1.283 . S
O854 Mn828 2.094 . S
O854 C832 1.240 . S
O855 Mn829 2.117 . S
O855 C832 1.264 . S
C856 C849 1.403 . S
C856 C857 1.399 . S
C856 H862 0.929 . S
C857 C837 1.449 . S
C857 C856 1.399 . S
C857 H863 0.930 . S
H858 C838 0.931 . S
H859 C839 0.930 . S
H860 C847 0.931 . S
H861 C848 0.929 . S
H862 C856 0.929 . S
H863 C857 0.930 . S
Mn864 O869 2.095 . S
Mn864 O879 2.162 . S
Mn864 O880 2.297 . S
Mn864 O888 2.385 . S
Mn864 O889 2.209 . S
Mn864 O890 2.094 . S
Mn865 O870 2.121 . S
Mn865 N872 2.257 . S
Mn865 N881 2.282 . S
Mn865 O889 2.215 . S
Mn865 O891 2.117 . S
C866 O888 1.234 . S
C866 O889 1.283 . S
C867 O879 1.281 . S
C867 O880 1.236 . S
C868 O890 1.240 . S
C868 O891 1.264 . S
O869 Mn864 2.095 . S
O869 C878 1.250 . S
O870 Mn865 2.121 . S
O870 C878 1.258 . S
C871 N872 1.326 . S
C871 C875 1.460 . S
C871 H877 0.929 . S
N872 Mn865 2.257 . S
N872 C871 1.326 . S
N872 C876 1.362 . S
C873 C874 1.258 . S
C873 C876 1.431 . S
C873 C893 1.449 . S
C874 C873 1.258 . S
C874 C875 1.477 . S
C874 H894 0.931 . S
C875 C871 1.460 . S
C875 C874 1.477 . S
C875 H895 0.930 . S
C876 N872 1.362 . S
C876 C873 1.431 . S
C876 C886 1.476 . S
H877 C871 0.929 . S
C878 O869 1.250 . S
C878 O870 1.258 . S
O879 Mn864 2.162 . S
O879 C867 1.281 . S
O880 Mn864 2.297 . S
O880 C867 1.236 . S
N881 Mn865 2.282 . S
N881 C882 1.328 . S
N881 C886 1.318 . S
C882 N881 1.328 . S
C882 C883 1.457 . S
C882 H887 0.929 . S
C883 C882 1.457 . S
C883 C884 1.291 . S
C883 H896 0.931 . S
C884 C883 1.291 . S
C884 C885 1.373 . S
C884 H897 0.929 . S
C885 C884 1.373 . S
C885 C886 1.396 . S
C885 C892 1.403 . S
C886 C876 1.476 . S
C886 N881 1.318 . S
C886 C885 1.396 . S
H887 C882 0.929 . S
O888 Mn864 2.385 . S
O888 C866 1.234 . S
O889 Mn864 2.209 . S
O889 Mn865 2.215 . S
O889 C866 1.283 . S
O890 Mn864 2.094 . S
O890 C868 1.240 . S
O891 Mn865 2.117 . S
O891 C868 1.264 . S
C892 C885 1.403 . S
C892 C893 1.399 . S
C892 H898 0.929 . S
C893 C873 1.449 . S
C893 C892 1.399 . S
C893 H899 0.930 . S
H894 C874 0.931 . S
H895 C875 0.930 . S
H896 C883 0.931 . S
H897 C884 0.929 . S
H898 C892 0.929 . S
H899 C893 0.930 . S
H900 C908 0.929 . S
H901 C910 0.930 . S
H902 C912 0.930 . S
H903 C915 0.929 . S
H904 C918 0.930 . S
H905 C920 0.960 . S
H906 C920 0.960 . S
H907 C920 0.960 . S
C908 H900 0.929 . S
C908 C909 1.377 . S
C908 C910 1.384 . S
C909 C908 1.377 . S
C909 C915 1.390 . S
C910 H901 0.930 . S
C910 C908 1.384 . S
C910 C911 1.372 . S
C911 C910 1.372 . S
C911 C912 1.400 . S
C911 C916 1.490 . S
C912 H902 0.930 . S
C912 C911 1.400 . S
C912 C915 1.386 . S
H913 C929 0.930 . S
H914 C930 0.931 . S
C915 H903 0.929 . S
C915 C909 1.390 . S
C915 C912 1.386 . S
C916 C911 1.490 . S
C916 C918 1.395 . S
C916 C919 1.403 . S
H917 C923 0.930 . S
C918 H904 0.930 . S
C918 C916 1.395 . S
C918 C921 1.403 . S
C919 C916 1.403 . S
C919 C920 1.524 . S
C919 C923 1.400 . S
C920 H905 0.960 . S
C920 H906 0.960 . S
C920 H907 0.960 . S
C920 C919 1.524 . S
C921 C918 1.403 . S
C921 C922 1.392 . S
C921 C925 1.495 . S
C922 C921 1.392 . S
C922 C923 1.385 . S
C922 C924 1.478 . S
C923 H917 0.930 . S
C923 C919 1.400 . S
C923 C922 1.385 . S
C924 C922 1.478 . S
C924 C926 1.381 . S
C924 C930 1.383 . S
C925 C921 1.495 . S
C925 H931 0.959 . S
C925 H932 0.961 . S
C925 H933 0.960 . S
C926 C924 1.381 . S
C926 C927 1.394 . S
C926 H934 0.930 . S
C927 C926 1.394 . S
C927 C928 1.383 . S
C927 H935 0.929 . S
C928 C927 1.383 . S
C928 C929 1.377 . S
C929 H913 0.930 . S
C929 C928 1.377 . S
C929 C930 1.379 . S
C930 H914 0.931 . S
C930 C924 1.383 . S
C930 C929 1.379 . S
H931 C925 0.959 . S
H932 C925 0.961 . S
H933 C925 0.960 . S
H934 C926 0.930 . S
H935 C927 0.929 . S
H936 C944 0.929 . S
H937 C946 0.930 . S
H938 C948 0.930 . S
H939 C951 0.929 . S
H940 C954 0.930 . S
H941 C956 0.960 . S
H942 C956 0.960 . S
H943 C956 0.960 . S
C944 H936 0.929 . S
C944 C945 1.377 . S
C944 C946 1.384 . S
C945 C944 1.377 . S
C945 C951 1.390 . S
C946 H937 0.930 . S
C946 C944 1.384 . S
C946 C947 1.372 . S
C947 C946 1.372 . S
C947 C948 1.400 . S
C947 C952 1.490 . S
C948 H938 0.930 . S
C948 C947 1.400 . S
C948 C951 1.386 . S
H949 C965 0.930 . S
H950 C966 0.931 . S
C951 H939 0.929 . S
C951 C945 1.390 . S
C951 C948 1.386 . S
C952 C947 1.490 . S
C952 C954 1.395 . S
C952 C955 1.403 . S
H953 C959 0.930 . S
C954 H940 0.930 . S
C954 C952 1.395 . S
C954 C957 1.403 . S
C955 C952 1.403 . S
C955 C956 1.524 . S
C955 C959 1.400 . S
C956 H941 0.960 . S
C956 H942 0.960 . S
C956 H943 0.960 . S
C956 C955 1.524 . S
C957 C954 1.403 . S
C957 C958 1.392 . S
C957 C961 1.495 . S
C958 C957 1.392 . S
C958 C959 1.385 . S
C958 C960 1.478 . S
C959 H953 0.930 . S
C959 C955 1.400 . S
C959 C958 1.385 . S
C960 C958 1.478 . S
C960 C962 1.381 . S
C960 C966 1.383 . S
C961 C957 1.495 . S
C961 H967 0.959 . S
C961 H968 0.961 . S
C961 H969 0.960 . S
C962 C960 1.381 . S
C962 C963 1.394 . S
C962 H970 0.930 . S
C963 C962 1.394 . S
C963 C964 1.383 . S
C963 H971 0.929 . S
C964 C963 1.383 . S
C964 C965 1.377 . S
C965 H949 0.930 . S
C965 C964 1.377 . S
C965 C966 1.379 . S
C966 H950 0.931 . S
C966 C960 1.383 . S
C966 C965 1.379 . S
H967 C961 0.959 . S
H968 C961 0.961 . S
H969 C961 0.960 . S
H970 C962 0.930 . S
H971 C963 0.929 . S
H972 C980 0.929 . S
H973 C982 0.930 . S
H974 C984 0.930 . S
H975 C987 0.929 . S
H976 C990 0.930 . S
H977 C992 0.960 . S
H978 C992 0.960 . S
H979 C992 0.960 . S
C980 H972 0.929 . S
C980 C981 1.377 . S
C980 C982 1.384 . S
C981 C980 1.377 . S
C981 C987 1.390 . S
C982 H973 0.930 . S
C982 C980 1.384 . S
C982 C983 1.372 . S
C983 C982 1.372 . S
C983 C984 1.400 . S
C983 C988 1.490 . S
C984 H974 0.930 . S
C984 C983 1.400 . S
C984 C987 1.386 . S
H985 C1001 0.930 . S
H986 C1002 0.931 . S
C987 H975 0.929 . S
C987 C981 1.390 . S
C987 C984 1.386 . S
C988 C983 1.490 . S
C988 C990 1.395 . S
C988 C991 1.403 . S
H989 C995 0.930 . S
C990 H976 0.930 . S
C990 C988 1.395 . S
C990 C993 1.403 . S
C991 C988 1.403 . S
C991 C992 1.524 . S
C991 C995 1.400 . S
C992 H977 0.960 . S
C992 H978 0.960 . S
C992 H979 0.960 . S
C992 C991 1.524 . S
C993 C990 1.403 . S
C993 C994 1.392 . S
C993 C997 1.495 . S
C994 C993 1.392 . S
C994 C995 1.385 . S
C994 C996 1.478 . S
C995 H989 0.930 . S
C995 C991 1.400 . S
C995 C994 1.385 . S
C996 C994 1.478 . S
C996 C998 1.381 . S
C996 C1002 1.383 . S
C997 C993 1.495 . S
C997 H1003 0.959 . S
C997 H1004 0.961 . S
C997 H1005 0.960 . S
C998 C996 1.381 . S
C998 C999 1.394 . S
C998 H1006 0.930 . S
C999 C998 1.394 . S
C999 C1000 1.383 . S
C999 H1007 0.929 . S
C1000 C999 1.383 . S
C1000 C1001 1.377 . S
C1001 H985 0.930 . S
C1001 C1000 1.377 . S
C1001 C1002 1.379 . S
C1002 H986 0.931 . S
C1002 C996 1.383 . S
C1002 C1001 1.379 . S
H1003 C997 0.959 . S
H1004 C997 0.961 . S
H1005 C997 0.960 . S
H1006 C998 0.930 . S
H1007 C999 0.929 . S
H1008 C1016 0.929 . S
H1009 C1018 0.930 . S
H1010 C1020 0.930 . S
H1011 C1023 0.929 . S
H1012 C1026 0.930 . S
H1013 C1028 0.960 . S
H1014 C1028 0.960 . S
H1015 C1028 0.960 . S
C1016 H1008 0.929 . S
C1016 C1017 1.377 . S
C1016 C1018 1.384 . S
C1017 C1016 1.377 . S
C1017 C1023 1.390 . S
C1018 H1009 0.930 . S
C1018 C1016 1.384 . S
C1018 C1019 1.372 . S
C1019 C1018 1.372 . S
C1019 C1020 1.400 . S
C1019 C1024 1.490 . S
C1020 H1010 0.930 . S
C1020 C1019 1.400 . S
C1020 C1023 1.386 . S
H1021 C1037 0.930 . S
H1022 C1038 0.931 . S
C1023 H1011 0.929 . S
C1023 C1017 1.390 . S
C1023 C1020 1.386 . S
C1024 C1019 1.490 . S
C1024 C1026 1.395 . S
C1024 C1027 1.403 . S
H1025 C1031 0.930 . S
C1026 H1012 0.930 . S
C1026 C1024 1.395 . S
C1026 C1029 1.403 . S
C1027 C1024 1.403 . S
C1027 C1028 1.524 . S
C1027 C1031 1.400 . S
C1028 H1013 0.960 . S
C1028 H1014 0.960 . S
C1028 H1015 0.960 . S
C1028 C1027 1.524 . S
C1029 C1026 1.403 . S
C1029 C1030 1.392 . S
C1029 C1033 1.495 . S
C1030 C1029 1.392 . S
C1030 C1031 1.385 . S
C1030 C1032 1.478 . S
C1031 H1025 0.930 . S
C1031 C1027 1.400 . S
C1031 C1030 1.385 . S
C1032 C1030 1.478 . S
C1032 C1034 1.381 . S
C1032 C1038 1.383 . S
C1033 C1029 1.495 . S
C1033 H1039 0.959 . S
C1033 H1040 0.961 . S
C1033 H1041 0.960 . S
C1034 C1032 1.381 . S
C1034 C1035 1.394 . S
C1034 H1042 0.930 . S
C1035 C1034 1.394 . S
C1035 C1036 1.383 . S
C1035 H1043 0.929 . S
C1036 C1035 1.383 . S
C1036 C1037 1.377 . S
C1037 H1021 0.930 . S
C1037 C1036 1.377 . S
C1037 C1038 1.379 . S
C1038 H1022 0.931 . S
C1038 C1032 1.383 . S
C1038 C1037 1.379 . S
H1039 C1033 0.959 . S
H1040 C1033 0.961 . S
H1041 C1033 0.960 . S
H1042 C1034 0.930 . S
H1043 C1035 0.929 . S
H1044 C1052 0.929 . S
H1045 C1054 0.930 . S
H1046 C1056 0.930 . S
H1047 C1059 0.929 . S
H1048 C1062 0.930 . S
H1049 C1064 0.960 . S
H1050 C1064 0.960 . S
H1051 C1064 0.960 . S
C1052 H1044 0.929 . S
C1052 C1053 1.377 . S
C1052 C1054 1.384 . S
C1053 C1052 1.377 . S
C1053 C1059 1.390 . S
C1054 H1045 0.930 . S
C1054 C1052 1.384 . S
C1054 C1055 1.372 . S
C1055 C1054 1.372 . S
C1055 C1056 1.400 . S
C1055 C1060 1.490 . S
C1056 H1046 0.930 . S
C1056 C1055 1.400 . S
C1056 C1059 1.386 . S
H1057 C1073 0.930 . S
H1058 C1074 0.931 . S
C1059 H1047 0.929 . S
C1059 C1053 1.390 . S
C1059 C1056 1.386 . S
C1060 C1055 1.490 . S
C1060 C1062 1.395 . S
C1060 C1063 1.403 . S
H1061 C1067 0.930 . S
C1062 H1048 0.930 . S
C1062 C1060 1.395 . S
C1062 C1065 1.403 . S
C1063 C1060 1.403 . S
C1063 C1064 1.524 . S
C1063 C1067 1.400 . S
C1064 H1049 0.960 . S
C1064 H1050 0.960 . S
C1064 H1051 0.960 . S
C1064 C1063 1.524 . S
C1065 C1062 1.403 . S
C1065 C1066 1.392 . S
C1065 C1069 1.495 . S
C1066 C1065 1.392 . S
C1066 C1067 1.385 . S
C1066 C1068 1.478 . S
C1067 H1061 0.930 . S
C1067 C1063 1.400 . S
C1067 C1066 1.385 . S
C1068 C1066 1.478 . S
C1068 C1070 1.381 . S
C1068 C1074 1.383 . S
C1069 C1065 1.495 . S
C1069 H1075 0.959 . S
C1069 H1076 0.961 . S
C1069 H1077 0.960 . S
C1070 C1068 1.381 . S
C1070 C1071 1.394 . S
C1070 H1078 0.930 . S
C1071 C1070 1.394 . S
C1071 C1072 1.383 . S
C1071 H1079 0.929 . S
C1072 C1071 1.383 . S
C1072 C1073 1.377 . S
C1073 H1057 0.930 . S
C1073 C1072 1.377 . S
C1073 C1074 1.379 . S
C1074 H1058 0.931 . S
C1074 C1068 1.383 . S
C1074 C1073 1.379 . S
H1075 C1069 0.959 . S
H1076 C1069 0.961 . S
H1077 C1069 0.960 . S
H1078 C1070 0.930 . S
H1079 C1071 0.929 . S
H1080 C1088 0.929 . S
H1081 C1090 0.930 . S
H1082 C1092 0.930 . S
H1083 C1095 0.929 . S
H1084 C1098 0.930 . S
H1085 C1100 0.960 . S
H1086 C1100 0.960 . S
H1087 C1100 0.960 . S
C1088 H1080 0.929 . S
C1088 C1089 1.377 . S
C1088 C1090 1.384 . S
C1089 C1088 1.377 . S
C1089 C1095 1.390 . S
C1090 H1081 0.930 . S
C1090 C1088 1.384 . S
C1090 C1091 1.372 . S
C1091 C1090 1.372 . S
C1091 C1092 1.400 . S
C1091 C1096 1.490 . S
C1092 H1082 0.930 . S
C1092 C1091 1.400 . S
C1092 C1095 1.386 . S
H1093 C1109 0.930 . S
H1094 C1110 0.931 . S
C1095 H1083 0.929 . S
C1095 C1089 1.390 . S
C1095 C1092 1.386 . S
C1096 C1091 1.490 . S
C1096 C1098 1.395 . S
C1096 C1099 1.403 . S
H1097 C1103 0.930 . S
C1098 H1084 0.930 . S
C1098 C1096 1.395 . S
C1098 C1101 1.403 . S
C1099 C1096 1.403 . S
C1099 C1100 1.524 . S
C1099 C1103 1.400 . S
C1100 H1085 0.960 . S
C1100 H1086 0.960 . S
C1100 H1087 0.960 . S
C1100 C1099 1.524 . S
C1101 C1098 1.403 . S
C1101 C1102 1.392 . S
C1101 C1105 1.495 . S
C1102 C1101 1.392 . S
C1102 C1103 1.385 . S
C1102 C1104 1.478 . S
C1103 H1097 0.930 . S
C1103 C1099 1.400 . S
C1103 C1102 1.385 . S
C1104 C1102 1.478 . S
C1104 C1106 1.381 . S
C1104 C1110 1.383 . S
C1105 C1101 1.495 . S
C1105 H1111 0.959 . S
C1105 H1112 0.961 . S
C1105 H1113 0.960 . S
C1106 C1104 1.381 . S
C1106 C1107 1.394 . S
C1106 H1114 0.930 . S
C1107 C1106 1.394 . S
C1107 C1108 1.383 . S
C1107 H1115 0.929 . S
C1108 C1107 1.383 . S
C1108 C1109 1.377 . S
C1109 H1093 0.930 . S
C1109 C1108 1.377 . S
C1109 C1110 1.379 . S
C1110 H1094 0.931 . S
C1110 C1104 1.383 . S
C1110 C1109 1.379 . S
H1111 C1105 0.959 . S
H1112 C1105 0.961 . S
H1113 C1105 0.960 . S
H1114 C1106 0.930 . S
H1115 C1107 0.929 . S
H1116 C1124 0.929 . S
H1117 C1126 0.930 . S
H1118 C1128 0.930 . S
H1119 C1131 0.929 . S
H1120 C1134 0.930 . S
H1121 C1136 0.960 . S
H1122 C1136 0.960 . S
H1123 C1136 0.960 . S
C1124 H1116 0.929 . S
C1124 C1125 1.377 . S
C1124 C1126 1.384 . S
C1125 C1124 1.377 . S
C1125 C1131 1.390 . S
C1126 H1117 0.930 . S
C1126 C1124 1.384 . S
C1126 C1127 1.372 . S
C1127 C1126 1.372 . S
C1127 C1128 1.400 . S
C1127 C1132 1.490 . S
C1128 H1118 0.930 . S
C1128 C1127 1.400 . S
C1128 C1131 1.386 . S
H1129 C1145 0.930 . S
H1130 C1146 0.931 . S
C1131 H1119 0.929 . S
C1131 C1125 1.390 . S
C1131 C1128 1.386 . S
C1132 C1127 1.490 . S
C1132 C1134 1.395 . S
C1132 C1135 1.403 . S
H1133 C1139 0.930 . S
C1134 H1120 0.930 . S
C1134 C1132 1.395 . S
C1134 C1137 1.403 . S
C1135 C1132 1.403 . S
C1135 C1136 1.524 . S
C1135 C1139 1.400 . S
C1136 H1121 0.960 . S
C1136 H1122 0.960 . S
C1136 H1123 0.960 . S
C1136 C1135 1.524 . S
C1137 C1134 1.403 . S
C1137 C1138 1.392 . S
C1137 C1141 1.495 . S
C1138 C1137 1.392 . S
C1138 C1139 1.385 . S
C1138 C1140 1.478 . S
C1139 H1133 0.930 . S
C1139 C1135 1.400 . S
C1139 C1138 1.385 . S
C1140 C1138 1.478 . S
C1140 C1142 1.381 . S
C1140 C1146 1.383 . S
C1141 C1137 1.495 . S
C1141 H1147 0.959 . S
C1141 H1148 0.961 . S
C1141 H1149 0.960 . S
C1142 C1140 1.381 . S
C1142 C1143 1.394 . S
C1142 H1150 0.930 . S
C1143 C1142 1.394 . S
C1143 C1144 1.383 . S
C1143 H1151 0.929 . S
C1144 C1143 1.383 . S
C1144 C1145 1.377 . S
C1145 H1129 0.930 . S
C1145 C1144 1.377 . S
C1145 C1146 1.379 . S
C1146 H1130 0.931 . S
C1146 C1140 1.383 . S
C1146 C1145 1.379 . S
H1147 C1141 0.959 . S
H1148 C1141 0.961 . S
H1149 C1141 0.960 . S
H1150 C1142 0.930 . S
H1151 C1143 0.929 . S
H1152 C1160 0.929 . S
H1153 C1162 0.930 . S
H1154 C1164 0.930 . S
H1155 C1167 0.929 . S
H1156 C1170 0.930 . S
H1157 C1172 0.960 . S
H1158 C1172 0.960 . S
H1159 C1172 0.960 . S
C1160 H1152 0.929 . S
C1160 C1161 1.377 . S
C1160 C1162 1.384 . S
C1161 C1160 1.377 . S
C1161 C1167 1.390 . S
C1162 H1153 0.930 . S
C1162 C1160 1.384 . S
C1162 C1163 1.372 . S
C1163 C1162 1.372 . S
C1163 C1164 1.400 . S
C1163 C1168 1.490 . S
C1164 H1154 0.930 . S
C1164 C1163 1.400 . S
C1164 C1167 1.386 . S
H1165 C1181 0.930 . S
H1166 C1182 0.931 . S
C1167 H1155 0.929 . S
C1167 C1161 1.390 . S
C1167 C1164 1.386 . S
C1168 C1163 1.490 . S
C1168 C1170 1.395 . S
C1168 C1171 1.403 . S
H1169 C1175 0.930 . S
C1170 H1156 0.930 . S
C1170 C1168 1.395 . S
C1170 C1173 1.403 . S
C1171 C1168 1.403 . S
C1171 C1172 1.524 . S
C1171 C1175 1.400 . S
C1172 H1157 0.960 . S
C1172 H1158 0.960 . S
C1172 H1159 0.960 . S
C1172 C1171 1.524 . S
C1173 C1170 1.403 . S
C1173 C1174 1.392 . S
C1173 C1177 1.495 . S
C1174 C1173 1.392 . S
C1174 C1175 1.385 . S
C1174 C1176 1.478 . S
C1175 H1169 0.930 . S
C1175 C1171 1.400 . S
C1175 C1174 1.385 . S
C1176 C1174 1.478 . S
C1176 C1178 1.381 . S
C1176 C1182 1.383 . S
C1177 C1173 1.495 . S
C1177 H1183 0.959 . S
C1177 H1184 0.961 . S
C1177 H1185 0.960 . S
C1178 C1176 1.381 . S
C1178 C1179 1.394 . S
C1178 H1186 0.930 . S
C1179 C1178 1.394 . S
C1179 C1180 1.383 . S
C1179 H1187 0.929 . S
C1180 C1179 1.383 . S
C1180 C1181 1.377 . S
C1181 H1165 0.930 . S
C1181 C1180 1.377 . S
C1181 C1182 1.379 . S
C1182 H1166 0.931 . S
C1182 C1176 1.383 . S
C1182 C1181 1.379 . S
H1183 C1177 0.959 . S
H1184 C1177 0.961 . S
H1185 C1177 0.960 . S
H1186 C1178 0.930 . S
H1187 C1179 0.929 . S
H1188 C1196 0.929 . S
H1189 C1198 0.930 . S
H1190 C1200 0.930 . S
H1191 C1203 0.929 . S
H1192 C1206 0.930 . S
H1193 C1208 0.960 . S
H1194 C1208 0.960 . S
H1195 C1208 0.960 . S
C1196 H1188 0.929 . S
C1196 C1197 1.377 . S
C1196 C1198 1.384 . S
C1197 C1196 1.377 . S
C1197 C1203 1.390 . S
C1198 H1189 0.930 . S
C1198 C1196 1.384 . S
C1198 C1199 1.372 . S
C1199 C1198 1.372 . S
C1199 C1200 1.400 . S
C1199 C1204 1.490 . S
C1200 H1190 0.930 . S
C1200 C1199 1.400 . S
C1200 C1203 1.386 . S
H1201 C1217 0.930 . S
H1202 C1218 0.931 . S
C1203 H1191 0.929 . S
C1203 C1197 1.390 . S
C1203 C1200 1.386 . S
C1204 C1199 1.490 . S
C1204 C1206 1.395 . S
C1204 C1207 1.403 . S
H1205 C1211 0.930 . S
C1206 H1192 0.930 . S
C1206 C1204 1.395 . S
C1206 C1209 1.403 . S
C1207 C1204 1.403 . S
C1207 C1208 1.524 . S
C1207 C1211 1.400 . S
C1208 H1193 0.960 . S
C1208 H1194 0.960 . S
C1208 H1195 0.960 . S
C1208 C1207 1.524 . S
C1209 C1206 1.403 . S
C1209 C1210 1.392 . S
C1209 C1213 1.495 . S
C1210 C1209 1.392 . S
C1210 C1211 1.385 . S
C1210 C1212 1.478 . S
C1211 H1205 0.930 . S
C1211 C1207 1.400 . S
C1211 C1210 1.385 . S
C1212 C1210 1.478 . S
C1212 C1214 1.381 . S
C1212 C1218 1.383 . S
C1213 C1209 1.495 . S
C1213 H1219 0.959 . S
C1213 H1220 0.961 . S
C1213 H1221 0.960 . S
C1214 C1212 1.381 . S
C1214 C1215 1.394 . S
C1214 H1222 0.930 . S
C1215 C1214 1.394 . S
C1215 C1216 1.383 . S
C1215 H1223 0.929 . S
C1216 C1215 1.383 . S
C1216 C1217 1.377 . S
C1217 H1201 0.930 . S
C1217 C1216 1.377 . S
C1217 C1218 1.379 . S
C1218 H1202 0.931 . S
C1218 C1212 1.383 . S
C1218 C1217 1.379 . S
H1219 C1213 0.959 . S
H1220 C1213 0.961 . S
H1221 C1213 0.960 . S
H1222 C1214 0.930 . S
H1223 C1215 0.929 . S
H1224 C1232 0.929 . S
H1225 C1234 0.930 . S
H1226 C1236 0.930 . S
H1227 C1239 0.929 . S
H1228 C1242 0.930 . S
H1229 C1244 0.960 . S
H1230 C1244 0.960 . S
H1231 C1244 0.960 . S
C1232 H1224 0.929 . S
C1232 C1233 1.377 . S
C1232 C1234 1.384 . S
C1233 C1232 1.377 . S
C1233 C1239 1.390 . S
C1234 H1225 0.930 . S
C1234 C1232 1.384 . S
C1234 C1235 1.372 . S
C1235 C1234 1.372 . S
C1235 C1236 1.400 . S
C1235 C1240 1.490 . S
C1236 H1226 0.930 . S
C1236 C1235 1.400 . S
C1236 C1239 1.386 . S
H1237 C1253 0.930 . S
H1238 C1254 0.931 . S
C1239 H1227 0.929 . S
C1239 C1233 1.390 . S
C1239 C1236 1.386 . S
C1240 C1235 1.490 . S
C1240 C1242 1.395 . S
C1240 C1243 1.403 . S
H1241 C1247 0.930 . S
C1242 H1228 0.930 . S
C1242 C1240 1.395 . S
C1242 C1245 1.403 . S
C1243 C1240 1.403 . S
C1243 C1244 1.524 . S
C1243 C1247 1.400 . S
C1244 H1229 0.960 . S
C1244 H1230 0.960 . S
C1244 H1231 0.960 . S
C1244 C1243 1.524 . S
C1245 C1242 1.403 . S
C1245 C1246 1.392 . S
C1245 C1249 1.495 . S
C1246 C1245 1.392 . S
C1246 C1247 1.385 . S
C1246 C1248 1.478 . S
C1247 H1241 0.930 . S
C1247 C1243 1.400 . S
C1247 C1246 1.385 . S
C1248 C1246 1.478 . S
C1248 C1250 1.381 . S
C1248 C1254 1.383 . S
C1249 C1245 1.495 . S
C1249 H1255 0.959 . S
C1249 H1256 0.961 . S
C1249 H1257 0.960 . S
C1250 C1248 1.381 . S
C1250 C1251 1.394 . S
C1250 H1258 0.930 . S
C1251 C1250 1.394 . S
C1251 C1252 1.383 . S
C1251 H1259 0.929 . S
C1252 C1251 1.383 . S
C1252 C1253 1.377 . S
C1253 H1237 0.930 . S
C1253 C1252 1.377 . S
C1253 C1254 1.379 . S
C1254 H1238 0.931 . S
C1254 C1248 1.383 . S
C1254 C1253 1.379 . S
H1255 C1249 0.959 . S
H1256 C1249 0.961 . S
H1257 C1249 0.960 . S
H1258 C1250 0.930 . S
H1259 C1251 0.929 . S
H1260 C1268 0.929 . S
H1261 C1270 0.930 . S
H1262 C1272 0.930 . S
H1263 C1275 0.929 . S
H1264 C1278 0.930 . S
H1265 C1280 0.960 . S
H1266 C1280 0.960 . S
H1267 C1280 0.960 . S
C1268 H1260 0.929 . S
C1268 C1269 1.377 . S
C1268 C1270 1.384 . S
C1269 C1268 1.377 . S
C1269 C1275 1.390 . S
C1270 H1261 0.930 . S
C1270 C1268 1.384 . S
C1270 C1271 1.372 . S
C1271 C1270 1.372 . S
C1271 C1272 1.400 . S
C1271 C1276 1.490 . S
C1272 H1262 0.930 . S
C1272 C1271 1.400 . S
C1272 C1275 1.386 . S
H1273 C1289 0.930 . S
H1274 C1290 0.931 . S
C1275 H1263 0.929 . S
C1275 C1269 1.390 . S
C1275 C1272 1.386 . S
C1276 C1271 1.490 . S
C1276 C1278 1.395 . S
C1276 C1279 1.403 . S
H1277 C1283 0.930 . S
C1278 H1264 0.930 . S
C1278 C1276 1.395 . S
C1278 C1281 1.403 . S
C1279 C1276 1.403 . S
C1279 C1280 1.524 . S
C1279 C1283 1.400 . S
C1280 H1265 0.960 . S
C1280 H1266 0.960 . S
C1280 H1267 0.960 . S
C1280 C1279 1.524 . S
C1281 C1278 1.403 . S
C1281 C1282 1.392 . S
C1281 C1285 1.495 . S
C1282 C1281 1.392 . S
C1282 C1283 1.385 . S
C1282 C1284 1.478 . S
C1283 H1277 0.930 . S
C1283 C1279 1.400 . S
C1283 C1282 1.385 . S
C1284 C1282 1.478 . S
C1284 C1286 1.381 . S
C1284 C1290 1.383 . S
C1285 C1281 1.495 . S
C1285 H1291 0.959 . S
C1285 H1292 0.961 . S
C1285 H1293 0.960 . S
C1286 C1284 1.381 . S
C1286 C1287 1.394 . S
C1286 H1294 0.930 . S
C1287 C1286 1.394 . S
C1287 C1288 1.383 . S
C1287 H1295 0.929 . S
C1288 C1287 1.383 . S
C1288 C1289 1.377 . S
C1289 H1273 0.930 . S
C1289 C1288 1.377 . S
C1289 C1290 1.379 . S
C1290 H1274 0.931 . S
C1290 C1284 1.383 . S
C1290 C1289 1.379 . S
H1291 C1285 0.959 . S
H1292 C1285 0.961 . S
H1293 C1285 0.960 . S
H1294 C1286 0.930 . S
H1295 C1287 0.929 . S
H1296 C1304 0.929 . S
H1297 C1306 0.930 . S
H1298 C1308 0.930 . S
H1299 C1311 0.929 . S
H1300 C1314 0.930 . S
H1301 C1316 0.960 . S
H1302 C1316 0.960 . S
H1303 C1316 0.960 . S
C1304 H1296 0.929 . S
C1304 C1305 1.377 . S
C1304 C1306 1.384 . S
C1305 C1304 1.377 . S
C1305 C1311 1.390 . S
C1306 H1297 0.930 . S
C1306 C1304 1.384 . S
C1306 C1307 1.372 . S
C1307 C1306 1.372 . S
C1307 C1308 1.400 . S
C1307 C1312 1.490 . S
C1308 H1298 0.930 . S
C1308 C1307 1.400 . S
C1308 C1311 1.386 . S
H1309 C1325 0.930 . S
H1310 C1326 0.931 . S
C1311 H1299 0.929 . S
C1311 C1305 1.390 . S
C1311 C1308 1.386 . S
C1312 C1307 1.490 . S
C1312 C1314 1.395 . S
C1312 C1315 1.403 . S
H1313 C1319 0.930 . S
C1314 H1300 0.930 . S
C1314 C1312 1.395 . S
C1314 C1317 1.403 . S
C1315 C1312 1.403 . S
C1315 C1316 1.524 . S
C1315 C1319 1.400 . S
C1316 H1301 0.960 . S
C1316 H1302 0.960 . S
C1316 H1303 0.960 . S
C1316 C1315 1.524 . S
C1317 C1314 1.403 . S
C1317 C1318 1.392 . S
C1317 C1321 1.495 . S
C1318 C1317 1.392 . S
C1318 C1319 1.385 . S
C1318 C1320 1.478 . S
C1319 H1313 0.930 . S
C1319 C1315 1.400 . S
C1319 C1318 1.385 . S
C1320 C1318 1.478 . S
C1320 C1322 1.381 . S
C1320 C1326 1.383 . S
C1321 C1317 1.495 . S
C1321 H1327 0.959 . S
C1321 H1328 0.961 . S
C1321 H1329 0.960 . S
C1322 C1320 1.381 . S
C1322 C1323 1.394 . S
C1322 H1330 0.930 . S
C1323 C1322 1.394 . S
C1323 C1324 1.383 . S
C1323 H1331 0.929 . S
C1324 C1323 1.383 . S
C1324 C1325 1.377 . S
C1325 H1309 0.930 . S
C1325 C1324 1.377 . S
C1325 C1326 1.379 . S
C1326 H1310 0.931 . S
C1326 C1320 1.383 . S
C1326 C1325 1.379 . S
H1327 C1321 0.959 . S
H1328 C1321 0.961 . S
H1329 C1321 0.960 . S
H1330 C1322 0.930 . S
H1331 C1323 0.929 . S
H1332 C1340 0.929 . S
H1333 C1342 0.930 . S
H1334 C1344 0.930 . S
H1335 C1347 0.929 . S
H1336 C1350 0.930 . S
H1337 C1352 0.960 . S
H1338 C1352 0.960 . S
H1339 C1352 0.960 . S
C1340 H1332 0.929 . S
C1340 C1341 1.377 . S
C1340 C1342 1.384 . S
C1341 C1340 1.377 . S
C1341 C1347 1.390 . S
C1342 H1333 0.930 . S
C1342 C1340 1.384 . S
C1342 C1343 1.372 . S
C1343 C1342 1.372 . S
C1343 C1344 1.400 . S
C1343 C1348 1.490 . S
C1344 H1334 0.930 . S
C1344 C1343 1.400 . S
C1344 C1347 1.386 . S
H1345 C1361 0.930 . S
H1346 C1362 0.931 . S
C1347 H1335 0.929 . S
C1347 C1341 1.390 . S
C1347 C1344 1.386 . S
C1348 C1343 1.490 . S
C1348 C1350 1.395 . S
C1348 C1351 1.403 . S
H1349 C1355 0.930 . S
C1350 H1336 0.930 . S
C1350 C1348 1.395 . S
C1350 C1353 1.403 . S
C1351 C1348 1.403 . S
C1351 C1352 1.524 . S
C1351 C1355 1.400 . S
C1352 H1337 0.960 . S
C1352 H1338 0.960 . S
C1352 H1339 0.960 . S
C1352 C1351 1.524 . S
C1353 C1350 1.403 . S
C1353 C1354 1.392 . S
C1353 C1357 1.495 . S
C1354 C1353 1.392 . S
C1354 C1355 1.385 . S
C1354 C1356 1.478 . S
C1355 H1349 0.930 . S
C1355 C1351 1.400 . S
C1355 C1354 1.385 . S
C1356 C1354 1.478 . S
C1356 C1358 1.381 . S
C1356 C1362 1.383 . S
C1357 C1353 1.495 . S
C1357 H1363 0.959 . S
C1357 H1364 0.961 . S
C1357 H1365 0.960 . S
C1358 C1356 1.381 . S
C1358 C1359 1.394 . S
C1358 H1366 0.930 . S
C1359 C1358 1.394 . S
C1359 C1360 1.383 . S
C1359 H1367 0.929 . S
C1360 C1359 1.383 . S
C1360 C1361 1.377 . S
C1361 H1345 0.930 . S
C1361 C1360 1.377 . S
C1361 C1362 1.379 . S
C1362 H1346 0.931 . S
C1362 C1356 1.383 . S
C1362 C1361 1.379 . S
H1363 C1357 0.959 . S
H1364 C1357 0.961 . S
H1365 C1357 0.960 . S
H1366 C1358 0.930 . S
H1367 C1359 0.929 . S
H1368 C1376 0.929 . S
H1369 C1378 0.930 . S
H1370 C1380 0.930 . S
H1371 C1383 0.929 . S
H1372 C1386 0.930 . S
H1373 C1388 0.960 . S
H1374 C1388 0.960 . S
H1375 C1388 0.960 . S
C1376 H1368 0.929 . S
C1376 C1377 1.377 . S
C1376 C1378 1.384 . S
C1377 C1376 1.377 . S
C1377 C1383 1.390 . S
C1378 H1369 0.930 . S
C1378 C1376 1.384 . S
C1378 C1379 1.372 . S
C1379 C1378 1.372 . S
C1379 C1380 1.400 . S
C1379 C1384 1.490 . S
C1380 H1370 0.930 . S
C1380 C1379 1.400 . S
C1380 C1383 1.386 . S
H1381 C1397 0.930 . S
H1382 C1398 0.931 . S
C1383 H1371 0.929 . S
C1383 C1377 1.390 . S
C1383 C1380 1.386 . S
C1384 C1379 1.490 . S
C1384 C1386 1.395 . S
C1384 C1387 1.403 . S
H1385 C1391 0.930 . S
C1386 H1372 0.930 . S
C1386 C1384 1.395 . S
C1386 C1389 1.403 . S
C1387 C1384 1.403 . S
C1387 C1388 1.524 . S
C1387 C1391 1.400 . S
C1388 H1373 0.960 . S
C1388 H1374 0.960 . S
C1388 H1375 0.960 . S
C1388 C1387 1.524 . S
C1389 C1386 1.403 . S
C1389 C1390 1.392 . S
C1389 C1393 1.495 . S
C1390 C1389 1.392 . S
C1390 C1391 1.385 . S
C1390 C1392 1.478 . S
C1391 H1385 0.930 . S
C1391 C1387 1.400 . S
C1391 C1390 1.385 . S
C1392 C1390 1.478 . S
C1392 C1394 1.381 . S
C1392 C1398 1.383 . S
C1393 C1389 1.495 . S
C1393 H1399 0.959 . S
C1393 H1400 0.961 . S
C1393 H1401 0.960 . S
C1394 C1392 1.381 . S
C1394 C1395 1.394 . S
C1394 H1402 0.930 . S
C1395 C1394 1.394 . S
C1395 C1396 1.383 . S
C1395 H1403 0.929 . S
C1396 C1395 1.383 . S
C1396 C1397 1.377 . S
C1397 H1381 0.930 . S
C1397 C1396 1.377 . S
C1397 C1398 1.379 . S
C1398 H1382 0.931 . S
C1398 C1392 1.383 . S
C1398 C1397 1.379 . S
H1399 C1393 0.959 . S
H1400 C1393 0.961 . S
H1401 C1393 0.960 . S
H1402 C1394 0.930 . S
H1403 C1395 0.929 . S
H1404 C1412 0.929 . S
H1405 C1414 0.930 . S
H1406 C1416 0.930 . S
H1407 C1419 0.929 . S
H1408 C1422 0.930 . S
H1409 C1424 0.960 . S
H1410 C1424 0.960 . S
H1411 C1424 0.960 . S
C1412 H1404 0.929 . S
C1412 C1413 1.377 . S
C1412 C1414 1.384 . S
C1413 C1412 1.377 . S
C1413 C1419 1.390 . S
C1414 H1405 0.930 . S
C1414 C1412 1.384 . S
C1414 C1415 1.372 . S
C1415 C1414 1.372 . S
C1415 C1416 1.400 . S
C1415 C1420 1.490 . S
C1416 H1406 0.930 . S
C1416 C1415 1.400 . S
C1416 C1419 1.386 . S
H1417 C1433 0.930 . S
H1418 C1434 0.931 . S
C1419 H1407 0.929 . S
C1419 C1413 1.390 . S
C1419 C1416 1.386 . S
C1420 C1415 1.490 . S
C1420 C1422 1.395 . S
C1420 C1423 1.403 . S
H1421 C1427 0.930 . S
C1422 H1408 0.930 . S
C1422 C1420 1.395 . S
C1422 C1425 1.403 . S
C1423 C1420 1.403 . S
C1423 C1424 1.524 . S
C1423 C1427 1.400 . S
C1424 H1409 0.960 . S
C1424 H1410 0.960 . S
C1424 H1411 0.960 . S
C1424 C1423 1.524 . S
C1425 C1422 1.403 . S
C1425 C1426 1.392 . S
C1425 C1429 1.495 . S
C1426 C1425 1.392 . S
C1426 C1427 1.385 . S
C1426 C1428 1.478 . S
C1427 H1421 0.930 . S
C1427 C1423 1.400 . S
C1427 C1426 1.385 . S
C1428 C1426 1.478 . S
C1428 C1430 1.381 . S
C1428 C1434 1.383 . S
C1429 C1425 1.495 . S
C1429 H1435 0.959 . S
C1429 H1436 0.961 . S
C1429 H1437 0.960 . S
C1430 C1428 1.381 . S
C1430 C1431 1.394 . S
C1430 H1438 0.930 . S
C1431 C1430 1.394 . S
C1431 C1432 1.383 . S
C1431 H1439 0.929 . S
C1432 C1431 1.383 . S
C1432 C1433 1.377 . S
C1433 H1417 0.930 . S
C1433 C1432 1.377 . S
C1433 C1434 1.379 . S
C1434 H1418 0.931 . S
C1434 C1428 1.383 . S
C1434 C1433 1.379 . S
H1435 C1429 0.959 . S
H1436 C1429 0.961 . S
H1437 C1429 0.960 . S
H1438 C1430 0.930 . S
H1439 C1431 0.929 . S
H1440 C1448 0.929 . S
H1441 C1450 0.930 . S
H1442 C1452 0.930 . S
H1443 C1455 0.929 . S
H1444 C1458 0.930 . S
H1445 C1460 0.960 . S
H1446 C1460 0.960 . S
H1447 C1460 0.960 . S
C1448 H1440 0.929 . S
C1448 C1449 1.377 . S
C1448 C1450 1.384 . S
C1449 C1448 1.377 . S
C1449 C1455 1.390 . S
C1450 H1441 0.930 . S
C1450 C1448 1.384 . S
C1450 C1451 1.372 . S
C1451 C1450 1.372 . S
C1451 C1452 1.400 . S
C1451 C1456 1.490 . S
C1452 H1442 0.930 . S
C1452 C1451 1.400 . S
C1452 C1455 1.386 . S
H1453 C1469 0.930 . S
H1454 C1470 0.931 . S
C1455 H1443 0.929 . S
C1455 C1449 1.390 . S
C1455 C1452 1.386 . S
C1456 C1451 1.490 . S
C1456 C1458 1.395 . S
C1456 C1459 1.403 . S
H1457 C1463 0.930 . S
C1458 H1444 0.930 . S
C1458 C1456 1.395 . S
C1458 C1461 1.403 . S
C1459 C1456 1.403 . S
C1459 C1460 1.524 . S
C1459 C1463 1.400 . S
C1460 H1445 0.960 . S
C1460 H1446 0.960 . S
C1460 H1447 0.960 . S
C1460 C1459 1.524 . S
C1461 C1458 1.403 . S
C1461 C1462 1.392 . S
C1461 C1465 1.495 1_556 S
C1462 C1461 1.392 . S
C1462 C1463 1.385 . S
C1462 C1464 1.478 1_556 S
C1463 H1457 0.930 . S
C1463 C1459 1.400 . S
C1463 C1462 1.385 . S
C1464 C1462 1.478 1_554 S
C1464 C1466 1.381 . S
C1464 C1470 1.383 . S
C1465 C1461 1.495 1_554 S
C1465 H1471 0.976 . S
C1465 H1472 0.961 . S
C1465 H1473 0.960 . S
C1466 C1464 1.381 . S
C1466 C1467 1.394 . S
C1466 H1474 0.930 . S
C1467 C1466 1.394 . S
C1467 C1468 1.383 . S
C1467 H1475 0.929 . S
C1468 C1467 1.383 . S
C1468 C1469 1.377 . S
C1469 H1453 0.930 . S
C1469 C1468 1.377 . S
C1469 C1470 1.379 . S
C1470 H1454 0.931 . S
C1470 C1464 1.383 . S
C1470 C1469 1.379 . S
H1471 C1465 0.976 . S
H1472 C1465 0.961 . S
H1473 C1465 0.960 . S
H1474 C1466 0.930 . S
H1475 C1467 0.929 . S
H1476 C1484 0.929 . S
H1477 C1486 0.930 . S
H1478 C1488 0.930 . S
H1479 C1491 0.929 . S
H1480 C1494 0.930 . S
H1481 C1496 0.960 . S
H1482 C1496 0.960 . S
H1483 C1496 0.960 . S
C1484 H1476 0.929 . S
C1484 C1485 1.377 . S
C1484 C1486 1.384 . S
C1485 C1484 1.377 . S
C1485 C1491 1.390 . S
C1486 H1477 0.930 . S
C1486 C1484 1.384 . S
C1486 C1487 1.372 . S
C1487 C1486 1.372 . S
C1487 C1488 1.400 . S
C1487 C1492 1.490 . S
C1488 H1478 0.930 . S
C1488 C1487 1.400 . S
C1488 C1491 1.386 . S
H1489 C1505 0.930 . S
H1490 C1506 0.931 . S
C1491 H1479 0.929 . S
C1491 C1485 1.390 . S
C1491 C1488 1.386 . S
C1492 C1487 1.490 . S
C1492 C1494 1.395 . S
C1492 C1495 1.403 . S
H1493 C1499 0.930 . S
C1494 H1480 0.930 . S
C1494 C1492 1.395 . S
C1494 C1497 1.403 . S
C1495 C1492 1.403 . S
C1495 C1496 1.524 . S
C1495 C1499 1.400 . S
C1496 H1481 0.960 . S
C1496 H1482 0.960 . S
C1496 H1483 0.960 . S
C1496 C1495 1.524 . S
C1497 C1494 1.403 . S
C1497 C1498 1.392 . S
C1497 C1501 1.495 . S
C1498 C1497 1.392 . S
C1498 C1499 1.385 . S
C1498 C1500 1.478 . S
C1499 H1493 0.930 . S
C1499 C1495 1.400 . S
C1499 C1498 1.385 . S
C1500 C1498 1.478 . S
C1500 C1502 1.381 . S
C1500 C1506 1.383 . S
C1501 C1497 1.495 . S
C1501 H1507 0.959 . S
C1501 H1508 0.961 . S
C1501 H1509 0.960 . S
C1502 C1500 1.381 . S
C1502 C1503 1.394 . S
C1502 H1510 0.930 . S
C1503 C1502 1.394 . S
C1503 C1504 1.383 . S
C1503 H1511 0.929 . S
C1504 C1503 1.383 . S
C1504 C1505 1.377 . S
C1505 H1489 0.930 . S
C1505 C1504 1.377 . S
C1505 C1506 1.379 . S
C1506 H1490 0.931 . S
C1506 C1500 1.383 . S
C1506 C1505 1.379 . S
H1507 C1501 0.959 . S
H1508 C1501 0.961 . S
H1509 C1501 0.960 . S
H1510 C1502 0.930 . S
H1511 C1503 0.929 . S
H1512 C1520 0.929 . S
H1513 C1522 0.930 . S
H1514 C1524 0.930 . S
H1515 C1527 0.929 . S
H1516 C1530 0.930 . S
H1517 C1532 0.960 . S
H1518 C1532 0.960 . S
H1519 C1532 0.960 . S
C1520 H1512 0.929 . S
C1520 C1521 1.377 . S
C1520 C1522 1.384 . S
C1521 C1520 1.377 . S
C1521 C1527 1.390 . S
C1522 H1513 0.930 . S
C1522 C1520 1.384 . S
C1522 C1523 1.372 . S
C1523 C1522 1.372 . S
C1523 C1524 1.400 . S
C1523 C1528 1.490 . S
C1524 H1514 0.930 . S
C1524 C1523 1.400 . S
C1524 C1527 1.386 . S
H1525 C1541 0.930 . S
H1526 C1542 0.931 . S
C1527 H1515 0.929 . S
C1527 C1521 1.390 . S
C1527 C1524 1.386 . S
C1528 C1523 1.490 . S
C1528 C1530 1.395 . S
C1528 C1531 1.403 . S
H1529 C1535 0.930 . S
C1530 H1516 0.930 . S
C1530 C1528 1.395 . S
C1530 C1533 1.403 . S
C1531 C1528 1.403 . S
C1531 C1532 1.524 . S
C1531 C1535 1.400 . S
C1532 H1517 0.960 . S
C1532 H1518 0.960 . S
C1532 H1519 0.960 . S
C1532 C1531 1.524 . S
C1533 C1530 1.403 . S
C1533 C1534 1.392 . S
C1533 C1537 1.495 . S
C1534 C1533 1.392 . S
C1534 C1535 1.385 . S
C1534 C1536 1.478 . S
C1535 H1529 0.930 . S
C1535 C1531 1.400 . S
C1535 C1534 1.385 . S
C1536 C1534 1.478 . S
C1536 C1538 1.381 . S
C1536 C1542 1.383 . S
C1537 C1533 1.495 . S
C1537 H1543 0.959 . S
C1537 H1544 0.961 . S
C1537 H1545 0.960 . S
C1538 C1536 1.381 . S
C1538 C1539 1.394 . S
C1538 H1546 0.930 . S
C1539 C1538 1.394 . S
C1539 C1540 1.383 . S
C1539 H1547 0.929 . S
C1540 C1539 1.383 . S
C1540 C1541 1.377 . S
C1541 H1525 0.930 . S
C1541 C1540 1.377 . S
C1541 C1542 1.379 . S
C1542 H1526 0.931 . S
C1542 C1536 1.383 . S
C1542 C1541 1.379 . S
H1543 C1537 0.959 . S
H1544 C1537 0.961 . S
H1545 C1537 0.960 . S
H1546 C1538 0.930 . S
H1547 C1539 0.929 . S
H1548 C1556 0.929 . S
H1549 C1558 0.930 . S
H1550 C1560 0.930 . S
H1551 C1563 0.929 . S
H1552 C1566 0.930 . S
H1553 C1568 0.960 . S
H1554 C1568 0.960 . S
H1555 C1568 0.960 . S
C1556 H1548 0.929 . S
C1556 C1557 1.377 . S
C1556 C1558 1.384 . S
C1557 C1556 1.377 . S
C1557 C1563 1.390 . S
C1558 H1549 0.930 . S
C1558 C1556 1.384 . S
C1558 C1559 1.372 . S
C1559 C1558 1.372 . S
C1559 C1560 1.400 . S
C1559 C1564 1.490 . S
C1560 H1550 0.930 . S
C1560 C1559 1.400 . S
C1560 C1563 1.386 . S
H1561 C1577 0.930 . S
H1562 C1578 0.931 . S
C1563 H1551 0.929 . S
C1563 C1557 1.390 . S
C1563 C1560 1.386 . S
C1564 C1559 1.490 . S
C1564 C1566 1.395 . S
C1564 C1567 1.403 . S
H1565 C1571 0.930 . S
C1566 H1552 0.930 . S
C1566 C1564 1.395 . S
C1566 C1569 1.403 . S
C1567 C1564 1.403 . S
C1567 C1568 1.524 . S
C1567 C1571 1.400 . S
C1568 H1553 0.960 . S
C1568 H1554 0.960 . S
C1568 H1555 0.960 . S
C1568 C1567 1.524 . S
C1569 C1566 1.403 . S
C1569 C1570 1.392 . S
C1569 C1573 1.495 . S
C1570 C1569 1.392 . S
C1570 C1571 1.385 . S
C1570 C1572 1.478 . S
C1571 H1565 0.930 . S
C1571 C1567 1.400 . S
C1571 C1570 1.385 . S
C1572 C1570 1.478 . S
C1572 C1574 1.381 . S
C1572 C1578 1.383 . S
C1573 C1569 1.495 . S
C1573 H1579 0.959 . S
C1573 H1580 0.961 . S
C1573 H1581 0.960 . S
C1574 C1572 1.381 . S
C1574 C1575 1.394 . S
C1574 H1582 0.930 . S
C1575 C1574 1.394 . S
C1575 C1576 1.383 . S
C1575 H1583 0.929 . S
C1576 C1575 1.383 . S
C1576 C1577 1.377 . S
C1577 H1561 0.930 . S
C1577 C1576 1.377 . S
C1577 C1578 1.379 . S
C1578 H1562 0.931 . S
C1578 C1572 1.383 . S
C1578 C1577 1.379 . S
H1579 C1573 0.959 . S
H1580 C1573 0.961 . S
H1581 C1573 0.960 . S
H1582 C1574 0.930 . S
H1583 C1575 0.929 . S
H1584 C1592 0.929 . S
H1585 C1594 0.930 . S
H1586 C1596 0.930 . S
H1587 C1599 0.929 . S
H1588 C1602 0.930 . S
H1589 C1604 0.960 . S
H1590 C1604 0.960 . S
H1591 C1604 0.960 . S
C1592 H1584 0.929 . S
C1592 C1593 1.377 . S
C1592 C1594 1.384 . S
C1593 C1592 1.377 . S
C1593 C1599 1.390 . S
C1594 H1585 0.930 . S
C1594 C1592 1.384 . S
C1594 C1595 1.372 . S
C1595 C1594 1.372 . S
C1595 C1596 1.400 . S
C1595 C1600 1.490 . S
C1596 H1586 0.930 . S
C1596 C1595 1.400 . S
C1596 C1599 1.386 . S
H1597 C1613 0.930 . S
H1598 C1614 0.931 . S
C1599 H1587 0.929 . S
C1599 C1593 1.390 . S
C1599 C1596 1.386 . S
C1600 C1595 1.490 . S
C1600 C1602 1.395 . S
C1600 C1603 1.403 . S
H1601 C1607 0.930 . S
C1602 H1588 0.930 . S
C1602 C1600 1.395 . S
C1602 C1605 1.403 . S
C1603 C1600 1.403 . S
C1603 C1604 1.524 . S
C1603 C1607 1.400 . S
C1604 H1589 0.960 . S
C1604 H1590 0.960 . S
C1604 H1591 0.960 . S
C1604 C1603 1.524 . S
C1605 C1602 1.403 . S
C1605 C1606 1.392 . S
C1605 C1609 1.495 . S
C1606 C1605 1.392 . S
C1606 C1607 1.385 . S
C1606 C1608 1.478 . S
C1607 H1601 0.930 . S
C1607 C1603 1.400 . S
C1607 C1606 1.385 . S
C1608 C1606 1.478 . S
C1608 C1610 1.381 . S
C1608 C1614 1.383 . S
C1609 C1605 1.495 . S
C1609 H1615 0.959 . S
C1609 H1616 0.961 . S
C1609 H1617 0.960 . S
C1610 C1608 1.381 . S
C1610 C1611 1.394 . S
C1610 H1618 0.930 . S
C1611 C1610 1.394 . S
C1611 C1612 1.383 . S
C1611 H1619 0.929 . S
C1612 C1611 1.383 . S
C1612 C1613 1.377 . S
C1613 H1597 0.930 . S
C1613 C1612 1.377 . S
C1613 C1614 1.379 . S
C1614 H1598 0.931 . S
C1614 C1608 1.383 . S
C1614 C1613 1.379 . S
H1615 C1609 0.959 . S
H1616 C1609 0.961 . S
H1617 C1609 0.960 . S
H1618 C1610 0.930 . S
H1619 C1611 0.929 . S
H1620 C1628 0.929 . S
H1621 C1630 0.930 . S
H1622 C1632 0.930 . S
H1623 C1635 0.929 . S
H1624 C1638 0.930 . S
H1625 C1640 0.960 . S
H1626 C1640 0.960 . S
H1627 C1640 0.960 . S
C1628 H1620 0.929 . S
C1628 C1629 1.377 . S
C1628 C1630 1.384 . S
C1629 C1628 1.377 . S
C1629 C1635 1.390 . S
C1630 H1621 0.930 . S
C1630 C1628 1.384 . S
C1630 C1631 1.372 . S
C1631 C1630 1.372 . S
C1631 C1632 1.400 . S
C1631 C1636 1.490 . S
C1632 H1622 0.930 . S
C1632 C1631 1.400 . S
C1632 C1635 1.386 . S
H1633 C1649 0.930 . S
H1634 C1650 0.931 . S
C1635 H1623 0.929 . S
C1635 C1629 1.390 . S
C1635 C1632 1.386 . S
C1636 C1631 1.490 . S
C1636 C1638 1.395 . S
C1636 C1639 1.403 . S
H1637 C1643 0.930 . S
C1638 H1624 0.930 . S
C1638 C1636 1.395 . S
C1638 C1641 1.403 . S
C1639 C1636 1.403 . S
C1639 C1640 1.524 . S
C1639 C1643 1.400 . S
C1640 H1625 0.960 . S
C1640 H1626 0.960 . S
C1640 H1627 0.960 . S
C1640 C1639 1.524 . S
C1641 C1638 1.403 . S
C1641 C1642 1.392 . S
C1641 C1645 1.495 . S
C1642 C1641 1.392 . S
C1642 C1643 1.385 . S
C1642 C1644 1.478 . S
C1643 H1637 0.930 . S
C1643 C1639 1.400 . S
C1643 C1642 1.385 . S
C1644 C1642 1.478 . S
C1644 C1646 1.381 . S
C1644 C1650 1.383 . S
C1645 C1641 1.495 . S
C1645 H1651 0.959 . S
C1645 H1652 0.961 . S
C1645 H1653 0.960 . S
C1646 C1644 1.381 . S
C1646 C1647 1.394 . S
C1646 H1654 0.930 . S
C1647 C1646 1.394 . S
C1647 C1648 1.383 . S
C1647 H1655 0.929 . S
C1648 C1647 1.383 . S
C1648 C1649 1.377 . S
C1649 H1633 0.930 . S
C1649 C1648 1.377 . S
C1649 C1650 1.379 . S
C1650 H1634 0.931 . S
C1650 C1644 1.383 . S
C1650 C1649 1.379 . S
H1651 C1645 0.959 . S
H1652 C1645 0.961 . S
H1653 C1645 0.960 . S
H1654 C1646 0.930 . S
H1655 C1647 0.929 . S
H1656 C1664 0.929 . S
H1657 C1666 0.930 . S
H1658 C1668 0.930 . S
H1659 C1671 0.929 . S
H1660 C1674 0.930 . S
H1661 C1676 0.960 . S
H1662 C1676 0.960 . S
H1663 C1676 0.960 . S
C1664 H1656 0.929 . S
C1664 C1665 1.377 . S
C1664 C1666 1.384 . S
C1665 C1664 1.377 . S
C1665 C1671 1.390 . S
C1666 H1657 0.930 . S
C1666 C1664 1.384 . S
C1666 C1667 1.372 . S
C1667 C1666 1.372 . S
C1667 C1668 1.400 . S
C1667 C1672 1.490 . S
C1668 H1658 0.930 . S
C1668 C1667 1.400 . S
C1668 C1671 1.386 . S
H1669 C1685 0.930 . S
H1670 C1686 0.931 . S
C1671 H1659 0.929 . S
C1671 C1665 1.390 . S
C1671 C1668 1.386 . S
C1672 C1667 1.490 . S
C1672 C1674 1.395 . S
C1672 C1675 1.403 . S
H1673 C1679 0.930 . S
C1674 H1660 0.930 . S
C1674 C1672 1.395 . S
C1674 C1677 1.403 . S
C1675 C1672 1.403 . S
C1675 C1676 1.524 . S
C1675 C1679 1.400 . S
C1676 H1661 0.960 . S
C1676 H1662 0.960 . S
C1676 H1663 0.960 . S
C1676 C1675 1.524 . S
C1677 C1674 1.403 . S
C1677 C1678 1.392 . S
C1677 C1681 1.495 . S
C1678 C1677 1.392 . S
C1678 C1679 1.385 . S
C1678 C1680 1.478 . S
C1679 H1673 0.930 . S
C1679 C1675 1.400 . S
C1679 C1678 1.385 . S
C1680 C1678 1.478 . S
C1680 C1682 1.381 . S
C1680 C1686 1.383 . S
C1681 C1677 1.495 . S
C1681 H1687 0.959 . S
C1681 H1688 0.961 . S
C1681 H1689 0.960 . S
C1682 C1680 1.381 . S
C1682 C1683 1.394 . S
C1682 H1690 0.930 . S
C1683 C1682 1.394 . S
C1683 C1684 1.383 . S
C1683 H1691 0.929 . S
C1684 C1683 1.383 . S
C1684 C1685 1.377 . S
C1685 H1669 0.930 . S
C1685 C1684 1.377 . S
C1685 C1686 1.379 . S
C1686 H1670 0.931 . S
C1686 C1680 1.383 . S
C1686 C1685 1.379 . S
H1687 C1681 0.959 . S
H1688 C1681 0.961 . S
H1689 C1681 0.960 . S
H1690 C1682 0.930 . S
H1691 C1683 0.929 . S
H1692 C1700 0.929 . S
H1693 C1702 0.930 . S
H1694 C1704 0.930 . S
H1695 C1707 0.929 . S
H1696 C1710 0.930 . S
H1697 C1712 0.960 . S
H1698 C1712 0.960 . S
H1699 C1712 0.960 . S
C1700 H1692 0.929 . S
C1700 C1701 1.377 . S
C1700 C1702 1.384 . S
C1701 C1700 1.377 . S
C1701 C1707 1.390 . S
C1702 H1693 0.930 . S
C1702 C1700 1.384 . S
C1702 C1703 1.372 . S
C1703 C1702 1.372 . S
C1703 C1704 1.400 . S
C1703 C1708 1.490 . S
C1704 H1694 0.930 . S
C1704 C1703 1.400 . S
C1704 C1707 1.386 . S
H1705 C1721 0.930 . S
H1706 C1722 0.931 . S
C1707 H1695 0.929 . S
C1707 C1701 1.390 . S
C1707 C1704 1.386 . S
C1708 C1703 1.490 . S
C1708 C1710 1.395 . S
C1708 C1711 1.403 . S
H1709 C1715 0.930 . S
C1710 H1696 0.930 . S
C1710 C1708 1.395 . S
C1710 C1713 1.403 1_554 S
C1711 C1708 1.403 . S
C1711 C1712 1.524 . S
C1711 C1715 1.400 1_554 S
C1712 H1697 0.960 . S
C1712 H1698 0.960 . S
C1712 H1699 0.960 . S
C1712 C1711 1.524 . S
C1713 C1710 1.403 1_556 S
C1713 C1714 1.392 . S
C1713 C1717 1.495 . S
C1714 C1713 1.392 . S
C1714 C1715 1.385 . S
C1714 C1716 1.478 . S
C1715 H1709 0.930 . S
C1715 C1711 1.400 1_556 S
C1715 C1714 1.385 . S
C1716 C1714 1.478 . S
C1716 C1718 1.381 . S
C1716 C1722 1.383 . S
C1717 C1713 1.495 . S
C1717 H1723 0.959 . S
C1717 H1724 0.961 . S
C1717 H1725 0.960 . S
C1718 C1716 1.381 . S
C1718 C1719 1.394 . S
C1718 H1726 0.930 . S
C1719 C1718 1.394 . S
C1719 C1720 1.383 . S
C1719 H1727 0.929 . S
C1720 C1719 1.383 . S
C1720 C1721 1.377 . S
C1721 H1705 0.930 . S
C1721 C1720 1.377 . S
C1721 C1722 1.379 . S
C1722 H1706 0.931 . S
C1722 C1716 1.383 . S
C1722 C1721 1.379 . S
H1723 C1717 0.959 . S
H1724 C1717 0.961 . S
H1725 C1717 0.960 . S
H1726 C1718 0.930 . S
H1727 C1719 0.929 . S
H1728 C1736 0.929 . S
H1729 C1738 0.930 . S
H1730 C1740 0.930 . S
H1731 C1743 0.929 . S
H1732 C1746 0.930 . S
H1733 C1748 0.960 . S
H1734 C1748 0.960 . S
H1735 C1748 0.960 . S
C1736 H1728 0.929 . S
C1736 C1737 1.377 . S
C1736 C1738 1.384 . S
C1737 C1736 1.377 . S
C1737 C1743 1.390 . S
C1738 H1729 0.930 . S
C1738 C1736 1.384 . S
C1738 C1739 1.372 . S
C1739 C1738 1.372 . S
C1739 C1740 1.400 . S
C1739 C1744 1.490 . S
C1740 H1730 0.930 . S
C1740 C1739 1.400 . S
C1740 C1743 1.386 . S
H1741 C1757 0.930 . S
H1742 C1758 0.931 . S
C1743 H1731 0.929 . S
C1743 C1737 1.390 . S
C1743 C1740 1.386 . S
C1744 C1739 1.490 . S
C1744 C1746 1.395 . S
C1744 C1747 1.403 . S
H1745 C1751 0.930 . S
C1746 H1732 0.930 . S
C1746 C1744 1.395 . S
C1746 C1749 1.403 . S
C1747 C1744 1.403 . S
C1747 C1748 1.524 . S
C1747 C1751 1.400 . S
C1748 H1733 0.960 . S
C1748 H1734 0.960 . S
C1748 H1735 0.960 . S
C1748 C1747 1.524 . S
C1749 C1746 1.403 . S
C1749 C1750 1.392 . S
C1749 C1753 1.495 . S
C1750 C1749 1.392 . S
C1750 C1751 1.385 . S
C1750 C1752 1.478 . S
C1751 H1745 0.930 . S
C1751 C1747 1.400 . S
C1751 C1750 1.385 . S
C1752 C1750 1.478 . S
C1752 C1754 1.381 . S
C1752 C1758 1.383 . S
C1753 C1749 1.495 . S
C1753 H1759 0.959 . S
C1753 H1760 0.961 . S
C1753 H1761 0.960 . S
C1754 C1752 1.381 . S
C1754 C1755 1.394 . S
C1754 H1762 0.930 . S
C1755 C1754 1.394 . S
C1755 C1756 1.383 . S
C1755 H1763 0.929 . S
C1756 C1755 1.383 . S
C1756 C1757 1.377 . S
C1757 H1741 0.930 . S
C1757 C1756 1.377 . S
C1757 C1758 1.379 . S
C1758 H1742 0.931 . S
C1758 C1752 1.383 . S
C1758 C1757 1.379 . S
H1759 C1753 0.959 . S
H1760 C1753 0.961 . S
H1761 C1753 0.960 . S
H1762 C1754 0.930 . S
H1763 C1755 0.929 . S
C928 C867 1.643 . S
C909 C1 1.200 . S
C945 C169 1.517 . S
C964 C687 1.830 . S
C981 C283 1.456 . S
C1000 C734 1.754 . S
C1017 C397 1.227 . S
C1036 C770 1.532 . S
C1072 C795 1.433 . S
C1053 C457 1.081 . S
C1089 C571 1.087 . S
C1108 C831 1.473 . S
C1125 C115 1.257 . S
C1144 C723 1.650 . S
C1161 C229 1.094 . S
C1180 C759 1.491 . S
C1197 C343 1.069 . S
C1216 C806 1.398 . S
C1252 C842 1.611 . S
C1233 C511 1.295 . S
C1288 C878 1.748 . S
C1269 C625 1.437 . S
C1324 C698 1.819 . S
C1305 C55 1.495 . S
C1341 C29 1.115 . S
C1360 C722 1.373 . S
C1377 C125 0.946 . S
C1396 C758 1.520 . S
C1432 C796 1.471 . S
C1413 C239 0.925 . S
C1449 C353 0.927 . S
C1468 C832 1.444 . S
C1504 C868 1.337 . S
C1485 C485 1.063 . S
C1540 C688 1.387 . S
C1521 C599 1.100 . S
C1576 C866 1.374 . S
C1557 C143 1.110 . S
C1593 C257 1.119 . S
C1612 C686 1.383 . S
C1648 C724 1.330 . S
C1629 C371 1.067 . S
C1665 C467 0.898 . S
C1684 C760 1.457 . S
C1701 C581 0.913 . S
C1720 C794 1.487 . S
C1737 C11 0.957 . S
C1756 C830 1.526 . S
