# Generated by pormake.
# Topology pyr, (3,6)-cn, num edge types: 1
# Building blocks:
#     Node 0, Type 0, BuildingBlock: BETDIP_clean_linker_0, # of connection points: 3
#     Node 1, Type 0, BuildingBlock: BETDIP_clean_linker_0, # of connection points: 3
#     Node 2, Type 0, BuildingBlock: BETDIP_clean_linker_0, # of connection points: 3
#     Node 3, Type 0, BuildingBlock: BETDIP_clean_linker_0, # of connection points: 3
#     Node 4, Type 0, BuildingBlock: BETDIP_clean_linker_0, # of connection points: 3
#     Node 5, Type 0, BuildingBlock: BETDIP_clean_linker_0, # of connection points: 3
#     Node 6, Type 0, BuildingBlock: BETDIP_clean_linker_0, # of connection points: 3
#     Node 7, Type 0, BuildingBlock: BETDIP_clean_linker_0, # of connection points: 3
#     Node 8, Type 1, BuildingBlock: VOLQOD_clean_sbu_1, # of connection points: 6
#     Node 9, Type 1, BuildingBlock: VOLQOD_clean_sbu_1, # of connection points: 6
#     Node 10, Type 1, BuildingBlock: VOLQOD_clean_sbu_1, # of connection points: 6
#     Node 11, Type 1, BuildingBlock: VOLQOD_clean_sbu_1, # of connection points: 6
#     Edge 12, Type (0, 1), BuildingBlock: OJICUG_clean_linker_0, # of connection points: 2
#     Edge 13, Type (0, 1), BuildingBlock: OJICUG_clean_linker_0, # of connection points: 2
#     Edge 14, Type (0, 1), BuildingBlock: OJICUG_clean_linker_0, # of connection points: 2
#     Edge 15, Type (0, 1), BuildingBlock: OJICUG_clean_linker_0, # of connection points: 2
#     Edge 16, Type (0, 1), BuildingBlock: OJICUG_clean_linker_0, # of connection points: 2
#     Edge 17, Type (0, 1), BuildingBlock: OJICUG_clean_linker_0, # of connection points: 2
#     Edge 18, Type (0, 1), BuildingBlock: OJICUG_clean_linker_0, # of connection points: 2
#     Edge 19, Type (0, 1), BuildingBlock: OJICUG_clean_linker_0, # of connection points: 2
#     Edge 20, Type (0, 1), BuildingBlock: OJICUG_clean_linker_0, # of connection points: 2
#     Edge 21, Type (0, 1), BuildingBlock: OJICUG_clean_linker_0, # of connection points: 2
#     Edge 22, Type (0, 1), BuildingBlock: OJICUG_clean_linker_0, # of connection points: 2
#     Edge 23, Type (0, 1), BuildingBlock: OJICUG_clean_linker_0, # of connection points: 2
#     Edge 24, Type (0, 1), BuildingBlock: OJICUG_clean_linker_0, # of connection points: 2
#     Edge 25, Type (0, 1), BuildingBlock: OJICUG_clean_linker_0, # of connection points: 2
#     Edge 26, Type (0, 1), BuildingBlock: OJICUG_clean_linker_0, # of connection points: 2
#     Edge 27, Type (0, 1), BuildingBlock: OJICUG_clean_linker_0, # of connection points: 2
#     Edge 28, Type (0, 1), BuildingBlock: OJICUG_clean_linker_0, # of connection points: 2
#     Edge 29, Type (0, 1), BuildingBlock: OJICUG_clean_linker_0, # of connection points: 2
#     Edge 30, Type (0, 1), BuildingBlock: OJICUG_clean_linker_0, # of connection points: 2
#     Edge 31, Type (0, 1), BuildingBlock: OJICUG_clean_linker_0, # of connection points: 2
#     Edge 32, Type (0, 1), BuildingBlock: OJICUG_clean_linker_0, # of connection points: 2
#     Edge 33, Type (0, 1), BuildingBlock: OJICUG_clean_linker_0, # of connection points: 2
#     Edge 34, Type (0, 1), BuildingBlock: OJICUG_clean_linker_0, # of connection points: 2
#     Edge 35, Type (0, 1), BuildingBlock: OJICUG_clean_linker_0, # of connection points: 2
# Relax obj value: 0.111
# Max RMSD: 0.182
# Mean RMSD: 0.148
data_MOF--net-pry--node1-VOLQOD_clean_sbu_1--node2-BETDIP_clean_linker_0--edge1-OJICUG_clean_linker_0
_symmetry_space_group_name_H-M    P1
_symmetry_Int_Tables_number       1
_symmetry_cell_setting            triclinic
loop_
_symmetry_equiv_pos_as_xyz
'x, y, z'
_cell_length_a     27.223864
_cell_length_b     26.631434
_cell_length_c     28.239755
_cell_angle_alpha  93.534128
_cell_angle_beta   85.34117
_cell_angle_gamma 96.002833
loop_
_atom_site_label
_atom_site_type_symbol
_atom_site_fract_x
_atom_site_fract_y
_atom_site_fract_z
_atom_type_partial_charge
H0 H 0.05416 0.12992 0.1982 0.0
H1 H 0.16263 0.12913 0.07898 0.0
H2 H 0.1818 0.0484 0.20231 0.0
H3 H 0.10823 0.1626 0.04099 0.0
C4 C 0.08626 0.18369 0.06742 0.0
C5 C 0.08804 0.11699 0.18116 0.0
C6 C 0.11541 0.08613 0.20533 0.0
C7 C 0.10475 0.133 0.13578 0.0
C8 C 0.14937 0.1172 0.11396 0.0
C9 C 0.17761 0.08637 0.1374 0.0
C10 C 0.16023 0.07132 0.18329 0.0
N11 N 0.07748 0.16761 0.1148 0.0
H12 H 0.36955 0.94746 0.7016 0.0
H13 H 0.38332 0.83605 0.58689 0.0
H14 H 0.47639 0.83943 0.70333 0.0
H15 H 0.30448 0.84888 0.58138 0.0
C16 C 0.30271 0.88918 0.58874 0.0
C17 C 0.38831 0.91624 0.68501 0.0
C18 C 0.42431 0.89552 0.70858 0.0
C19 C 0.37353 0.8951 0.64129 0.0
C20 C 0.39549 0.85281 0.62026 0.0
C21 C 0.43233 0.83156 0.64253 0.0
C22 C 0.4471 0.85412 0.68632 0.0
N23 N 0.33521 0.91634 0.62035 0.0
H24 H 0.67237 0.46758 0.89948 0.0
H25 H 0.54924 0.35307 0.90085 0.0
H26 H 0.67409 0.33555 0.97959 0.0
H27 H 0.51553 0.40027 0.8557 0.0
C28 C 0.54451 0.42544 0.8385 0.0
C29 C 0.65471 0.43199 0.91206 0.0
C30 C 0.67865 0.40444 0.94272 0.0
C31 C 0.60864 0.41353 0.89592 0.0
C32 C 0.58505 0.36764 0.91233 0.0
C33 C 0.60796 0.33952 0.9432 0.0
C34 C 0.65488 0.35822 0.958 0.0
N35 N 0.58958 0.43994 0.86022 0.0
H36 H 0.86718 0.52328 0.41316 0.0
H37 H 0.97382 0.65292 0.39469 0.0
H38 H 0.84502 0.66464 0.49043 0.0
H39 H 0.01802 0.60046 0.34892 0.0
C40 C 0.99021 0.5728 0.33447 0.0
C41 C 0.88 0.56214 0.42302 0.0
C42 C 0.85057 0.59112 0.45485 0.0
C43 C 0.92429 0.58374 0.40088 0.0
C44 C 0.94039 0.63475 0.4121 0.0
C45 C 0.91248 0.66329 0.44557 0.0
C46 C 0.86786 0.64131 0.46693 0.0
N47 N 0.94804 0.55473 0.36364 0.0
H48 H 0.83184 0.89979 0.96729 0.0
H49 H 0.95312 0.90322 0.86039 0.0
H50 H 0.82853 0.98734 0.84527 0.0
H51 H 0.99375 0.87153 0.92268 0.0
C52 C 0.96268 0.84546 0.93512 0.0
C53 C 0.84981 0.91449 0.93458 0.0
C54 C 0.82603 0.94698 0.90916 0.0
C55 C 0.89559 0.89899 0.91761 0.0
C56 C 0.91815 0.91622 0.87421 0.0
C57 C 0.8943 0.94822 0.8474 0.0
C58 C 0.84844 0.96424 0.86585 0.0
N59 N 0.91439 0.86128 0.94233 0.0
H60 H 0.62638 0.05423 0.34536 0.0
H61 H 0.6196 0.16825 0.45972 0.0
H62 H 0.53216 0.17326 0.34033 0.0
H63 H 0.66525 0.1212 0.49659 0.0
C64 C 0.6835 0.09672 0.47015 0.0
C65 C 0.61077 0.08749 0.36176 0.0
C66 C 0.57696 0.11097 0.33801 0.0
C67 C 0.62582 0.10702 0.40593 0.0
C68 C 0.60671 0.1511 0.42671 0.0
C69 C 0.57289 0.17532 0.40318 0.0
C70 C 0.55764 0.15451 0.3591 0.0
N71 N 0.6632 0.08334 0.42582 0.0
H72 H 0.33446 0.53951 0.13309 0.0
H73 H 0.4551 0.65447 0.15432 0.0
H74 H 0.35735 0.66758 0.04511 0.0
H75 H 0.49041 0.57973 0.17721 0.0
C76 C 0.45844 0.56985 0.2017 0.0
C77 C 0.35628 0.57375 0.12199 0.0
C78 C 0.34119 0.60086 0.08546 0.0
C79 C 0.39815 0.59205 0.14611 0.0
C80 C 0.42446 0.63843 0.1342 0.0
C81 C 0.40985 0.66554 0.09769 0.0
C82 C 0.36911 0.64598 0.07274 0.0
N83 N 0.41012 0.56605 0.18537 0.0
H84 H 0.02528 0.3821 0.60633 0.0
H85 H 0.15265 0.49225 0.60549 0.0
H86 H 0.16639 0.34446 0.5413 0.0
H87 H 0.1099 0.53636 0.65817 0.0
C88 C 0.07813 0.51152 0.67102 0.0
C89 C 0.06387 0.39278 0.59552 0.0
C90 C 0.09291 0.35727 0.57126 0.0
C91 C 0.08509 0.44129 0.60878 0.0
C92 C 0.1353 0.45523 0.59536 0.0
C93 C 0.16448 0.42042 0.57079 0.0
C94 C 0.14312 0.37172 0.55881 0.0
N95 N 0.05668 0.47257 0.64029 0.0
O96 O 0.99545 0.12336 0.56776 0.0
Zn97 Zn 0.96249 0.05241 0.5662 0.0
O98 O 0.0017 0.00843 0.52341 0.0
Zn99 Zn 0.96609 0.98499 0.4671 0.0
Zn100 Zn 0.06577 0.04385 0.5025 0.0
Zn101 Zn 0.0128 0.9513 0.55895 0.0
O102 O 0.95663 0.90836 0.46134 0.0
O103 O 0.98274 0.88728 0.52926 0.0
O104 O 0.89547 0.05511 0.54189 0.0
O105 O 0.89834 0.01063 0.47267 0.0
O106 O 0.00319 0.00977 0.40616 0.0
O107 O 0.07511 0.04413 0.43077 0.0
O108 O 0.12389 0.01236 0.52594 0.0
O109 O 0.95197 0.0293 0.63382 0.0
O110 O 0.08485 0.94407 0.55869 0.0
O111 O 0.98529 0.95657 0.62708 0.0
C112 C 0.03642 0.14323 0.54901 0.0
C113 C 0.96366 0.87515 0.49007 0.0
C114 C 0.04678 0.03132 0.39739 0.0
C115 C 0.87538 0.03752 0.50434 0.0
C116 C 0.12459 0.97081 0.54592 0.0
C117 C 0.96265 0.98961 0.65208 0.0
O118 O 0.06675 0.11699 0.52433 0.0
O119 O 0.493 0.11417 0.97697 0.0
Zn120 Zn 0.45924 0.04344 0.98595 0.0
O121 O 0.49888 0.00536 0.02386 0.0
Zn122 Zn 0.51936 0.94654 0.98623 0.0
Zn123 Zn 0.55828 0.04745 0.04214 0.0
Zn124 Zn 0.46012 0.98268 0.0814 0.0
O125 O 0.49802 0.88236 0.01842 0.0
O126 O 0.45646 0.90675 0.0853 0.0
O127 O 0.45067 0.00858 0.92003 0.0
O128 O 0.4901 0.94014 0.92353 0.0
O129 O 0.59288 0.95108 0.97238 0.0
O130 O 0.6211 0.02244 0.01018 0.0
O131 O 0.56216 0.05297 0.11321 0.0
O132 O 0.39125 0.05018 0.02069 0.0
O133 O 0.4899 0.01473 0.14051 0.0
O134 O 0.39094 0.00311 0.08318 0.0
C135 C 0.5305 0.13844 0.99505 0.0
C136 C 0.47341 0.87211 0.05742 0.0
C137 C 0.62853 0.98328 0.98343 0.0
C138 C 0.46482 0.96714 0.90127 0.0
C139 C 0.53117 0.04013 0.14765 0.0
C140 C 0.36937 0.03099 0.05808 0.0
O141 O 0.55698 0.11762 0.0217 0.0
O142 O 0.54652 0.51461 0.62877 0.0
Zn143 Zn 0.54954 0.54717 0.56595 0.0
O144 O 0.50847 0.5062 0.52098 0.0
Zn145 Zn 0.54807 0.486 0.46401 0.0
Zn146 Zn 0.47829 0.44474 0.55111 0.0
Zn147 Zn 0.45839 0.54661 0.50137 0.0
O148 O 0.52678 0.51205 0.40444 0.0
O149 O 0.46111 0.55143 0.43014 0.0
O150 O 0.62128 0.55426 0.54003 0.0
O151 O 0.61844 0.5111 0.47023 0.0
O152 O 0.54516 0.4108 0.45385 0.0
O153 O 0.49988 0.38035 0.51644 0.0
O154 O 0.40441 0.44219 0.55153 0.0
O155 O 0.52548 0.61661 0.58016 0.0
O156 O 0.39093 0.51397 0.52078 0.0
O157 O 0.46482 0.61729 0.53207 0.0
C158 C 0.52296 0.47477 0.64516 0.0
C159 C 0.49081 0.53635 0.39638 0.0
C160 C 0.52579 0.37356 0.47734 0.0
C161 C 0.64268 0.53708 0.50147 0.0
C162 C 0.375 0.4724 0.53925 0.0
C163 C 0.49216 0.63908 0.56332 0.0
O164 O 0.49512 0.44492 0.61951 0.0
O165 O 0.97161 0.49631 0.11256 0.0
Zn166 Zn 0.97064 0.4666 0.04473 0.0
O167 O 0.01393 0.51069 1.00201 0.0
Zn168 Zn 0.97422 0.53245 0.95487 0.0
Zn169 Zn 0.04168 0.5714 0.03617 0.0
Zn170 Zn 0.06888 0.47507 0.97119 0.0
O171 O 0.00308 0.51548 0.89001 0.0
O172 O 0.07198 0.48008 0.8993 0.0
O173 O 0.89922 0.45492 0.02453 0.0
O174 O 0.90582 0.49884 0.95973 0.0
O175 O 0.9702 0.60738 0.95906 0.0
O176 O 0.02372 0.63624 0.01186 0.0
O177 O 0.11507 0.57511 0.03353 0.0
O178 O -0.00247 0.39843 0.04407 0.0
O179 O 0.13534 0.50474 0.99414 0.0
O180 O 0.06065 0.40189 0.98872 0.0
C181 C 0.99372 0.53667 0.13077 0.0
C182 C 0.04189 0.49628 0.87285 0.0
C183 C 0.99335 0.64392 0.98178 0.0
C184 C 0.88034 0.46993 0.98858 0.0
C185 C 0.14735 0.54591 0.01772 0.0
C186 C 0.03223 0.37775 0.01963 0.0
O187 O 0.02027 0.56829 0.10513 0.0
C188 C 0.04808 0.05301 0.2653 0.0
C189 C 0.09794 0.0707 0.2542 0.0
H190 H 0.99289 0.02608 0.31881 0.0
C191 C 0.13097 0.07416 0.2903 0.0
H192 H 0.02181 0.04952 0.23817 0.0
C193 C 0.11445 0.06091 0.33651 0.0
C194 C 0.06452 0.04343 0.34777 0.0
H195 H 0.1695 0.08813 0.28306 0.0
H196 H 0.14088 0.06466 0.36349 0.0
C197 C 0.0316 0.03927 0.31146 0.0
C198 C 0.43477 0.96638 0.77215 0.0
C199 C 0.43542 0.91476 0.75777 0.0
H200 H 0.44278 0.02344 0.82892 0.0
C201 C 0.44462 0.88092 0.79157 0.0
H202 H 0.42837 0.99374 0.7471 0.0
C203 C 0.45366 0.89814 0.83801 0.0
C204 C 0.45295 0.94956 0.85235 0.0
H205 H 0.44407 0.84078 0.7825 0.0
H206 H 0.46078 0.87087 0.86292 0.0
C207 C 0.44305 0.98351 0.81905 0.0
C208 C 0.57165 0.47662 0.76747 0.0
C209 C 0.53826 0.44002 0.78983 0.0
H210 H 0.59283 0.51651 0.7043 0.0
C211 C 0.49936 0.41559 0.76471 0.0
H212 H 0.60198 0.49617 0.78598 0.0
C213 C 0.49442 0.42674 0.7177 0.0
C214 C 0.52797 0.46311 0.69507 0.0
H215 H 0.47319 0.38716 0.7812 0.0
H216 H 0.46424 0.40691 0.69916 0.0
C217 C 0.56636 0.48828 0.72065 0.0
C218 C 0.95821 0.52423 0.26243 0.0
C219 C 0.99183 0.56159 0.28262 0.0
H220 H 0.93226 0.48702 0.1984 0.0
C221 C 0.02568 0.59055 0.25278 0.0
H222 H 0.93163 0.50131 0.2847 0.0
C223 C 0.02557 0.58292 0.2035 0.0
C224 C 0.99191 0.54568 0.18304 0.0
H225 H 0.05177 0.6197 0.26757 0.0
H226 H 0.05227 0.60601 0.18148 0.0
C227 C 0.95843 0.51615 0.21303 0.0
C228 C 0.2414 0.02365 0.12255 0.0
C229 C 0.22574 0.07097 0.11456 0.0
H230 H 0.29883 0.97408 0.11112 0.0
C231 C 0.25703 0.10377 0.08531 0.0
H232 H 0.2181 0.99672 0.14376 0.0
C233 C 0.30274 0.08992 0.06525 0.0
C234 C 0.31886 0.04346 0.07481 0.0
H235 H 0.24706 0.14091 0.07889 0.0
H236 H 0.32631 0.11649 0.04382 0.0
C237 C 0.28756 0.01035 0.1034 0.0
C238 C 0.25669 0.96415 0.57679 0.0
C239 C 0.25903 0.91153 0.57474 0.0
H240 H 0.21214 0.02462 0.56816 0.0
C241 C 0.2182 0.87929 0.56062 0.0
H242 H 0.28792 0.98984 0.58729 0.0
C243 C 0.17494 0.89898 0.55069 0.0
C244 C 0.17199 0.95145 0.55355 0.0
H245 H 0.2192 0.83863 0.5586 0.0
H246 H 0.14356 0.87301 0.54096 0.0
C247 C 0.21357 0.98404 0.56568 0.0
C248 C 0.76449 0.44467 0.92191 0.0
C249 C 0.72992 0.42192 0.95574 0.0
H250 H 0.83824 0.47735 0.90572 0.0
C251 C 0.74535 0.41471 1.00112 0.0
H252 H 0.75463 0.44966 0.88624 0.0
C253 C 0.79422 0.4299 0.01219 0.0
C254 C 0.82845 0.45301 0.97824 0.0
H255 H 0.7196 0.39766 0.02822 0.0
H256 H 0.80501 0.42396 0.04733 0.0
C257 C 0.81283 0.46022 0.93307 0.0
C258 C 0.77715 0.58476 0.51508 0.0
C259 C 0.7989 0.57198 0.46962 0.0
H260 H 0.71044 0.58398 0.56098 0.0
C261 C 0.76934 0.54533 0.43607 0.0
H262 H 0.79913 0.60492 0.54183 0.0
C263 C 0.71898 0.53315 0.44705 0.0
C264 C 0.69672 0.54767 0.49174 0.0
H265 H 0.78452 0.53582 0.40039 0.0
H266 H 0.69729 0.51361 0.41976 0.0
C267 C 0.72643 0.57282 0.52603 0.0
C268 C 0.08719 0.25196 0.01068 0.0
C269 C 0.06887 0.23137 0.05398 0.0
H270 H 0.09013 0.31431 0.96578 0.0
C271 C 0.03584 0.25764 0.08452 0.0
H272 H 0.11264 0.23237 0.98647 0.0
C273 C 0.0224 0.30428 0.07246 0.0
C274 C 0.04224 0.32592 0.02991 0.0
H275 H 0.02087 0.2426 0.11804 0.0
H276 H -0.0023 0.32409 0.09725 0.0
C277 C 0.07432 0.29888 0.99889 0.0
C278 C 0.55738 0.25647 0.92597 0.0
C279 C 0.58432 0.28926 0.95785 0.0
H280 H 0.51837 0.18333 0.91314 0.0
C281 C 0.59011 0.27283 0.00327 0.0
H282 H 0.55283 0.26723 0.89037 0.0
C283 C 0.57148 0.2242 0.01568 0.0
C284 C 0.54564 0.19127 0.9834 0.0
H285 H 0.60954 0.29731 0.02919 0.0
H286 H 0.57766 0.21219 0.05049 0.0
C287 C 0.53775 0.20819 0.93885 0.0
C288 C 0.93139 0.73531 0.5036 0.0
C289 C 0.92764 0.71724 0.45626 0.0
H290 H 0.94583 0.79951 0.5513 0.0
C291 C 0.93553 0.75128 0.41971 0.0
H292 H 0.92527 0.7096 0.53227 0.0
C293 C 0.94642 0.80297 0.43055 0.0
C294 C 0.9504 0.82107 0.47801 0.0
H295 H 0.93222 0.738 0.38296 0.0
H296 H 0.95223 0.82862 0.40185 0.0
C297 C 0.94307 0.78668 0.51437 0.0
C298 C 0.46718 0.74826 0.65105 0.0
C299 C 0.45284 0.78419 0.62153 0.0
H300 H 0.49191 0.67494 0.6556 0.0
C301 C 0.45556 0.77282 0.57197 0.0
H302 H 0.46486 0.75453 0.68935 0.0
C303 C 0.46919 0.72605 0.55296 0.0
C304 C 0.48232 0.69018 0.58274 0.0
H305 H 0.44655 0.79968 0.54759 0.0
H306 H 0.46927 0.71782 0.5149 0.0
C307 C 0.48243 0.70222 0.63179 0.0
C308 C 0.93621 0.92368 0.76799 0.0
C309 C 0.91459 0.96055 0.79831 0.0
H310 H 0.96831 0.9039 0.69872 0.0
C311 C 0.91023 0.00793 0.78038 0.0
H312 H 0.93924 0.88636 0.77997 0.0
C313 C 0.9263 0.01779 0.73313 0.0
C314 C 0.94733 0.98056 0.70279 0.0
H315 H 0.89423 0.03741 0.80281 0.0
H316 H 0.92195 0.05446 0.72035 0.0
C317 C 0.95256 0.93362 0.72103 0.0
C318 C 0.60304 0.08631 0.25378 0.0
C319 C 0.56485 0.09195 0.28962 0.0
H320 H 0.6223 0.06587 0.18065 0.0
C321 C 0.51548 0.07965 0.27885 0.0
H322 H 0.64141 0.09588 0.26127 0.0
C323 C 0.50451 0.0616 0.23293 0.0
C324 C 0.54272 0.05667 0.1968 0.0
H325 H 0.48548 0.08364 0.30604 0.0
H326 H 0.46609 0.05249 0.22549 0.0
C327 C 0.59208 0.0693 0.2077 0.0
C328 C 0.42699 0.56129 0.28706 0.0
C329 C 0.46604 0.56041 0.25142 0.0
H330 H 0.40447 0.55526 0.36112 0.0
C331 C 0.51334 0.55224 0.26374 0.0
H332 H 0.39021 0.56801 0.27861 0.0
C333 C 0.52141 0.54433 0.31085 0.0
C334 C 0.48249 0.54559 0.34668 0.0
H335 H 0.54405 0.55169 0.23684 0.0
H336 H 0.55824 0.53773 0.31927 0.0
C337 C 0.43525 0.5544 0.33435 0.0
C338 C 0.1079 0.51903 0.75244 0.0
C339 C 0.06898 0.50715 0.72268 0.0
H340 H 0.13017 0.52281 0.8239 0.0
C341 C 0.02204 0.48887 0.74224 0.0
H342 H 0.14455 0.53266 0.73778 0.0
C343 C 0.01371 0.48405 0.7912 0.0
C344 C 0.05256 0.49589 0.82107 0.0
H345 H 0.9916 0.47927 0.71982 0.0
H346 H 0.97678 0.47136 0.80584 0.0
C347 C 0.09992 0.51274 0.80134 0.0
C348 C 0.73767 0.91756 0.92897 0.0
C349 C 0.77528 0.95768 0.92586 0.0
H350 H 0.66187 0.89429 0.94946 0.0
C351 C 0.76466 0.00668 0.94142 0.0
H352 H 0.74528 0.87944 0.91724 0.0
C353 C 0.71703 0.01519 0.96081 0.0
C354 C 0.67929 0.97489 0.96403 0.0
H355 H 0.79342 0.038 0.93955 0.0
H356 H 0.70967 0.05325 0.97292 0.0
C357 C 0.69007 0.92611 0.94748 0.0
C358 C 0.75621 0.04754 0.44632 0.0
C359 C 0.73116 0.07888 0.47988 0.0
H360 H 0.82119 0.00975 0.42774 0.0
C361 C 0.75282 0.09477 0.52236 0.0
H362 H 0.74046 0.03449 0.41322 0.0
C363 C 0.79924 0.08059 0.53072 0.0
C364 C 0.82494 0.05016 0.4967 0.0
H365 H 0.7342 0.11889 0.54878 0.0
H366 H 0.81525 0.09414 0.56359 0.0
C367 C 0.80258 0.03332 0.45466 0.0
C368 C 0.27878 0.53584 0.04938 0.0
C369 C 0.29316 0.58611 0.06461 0.0
H370 H 0.22137 0.48356 0.02133 0.0
C371 C 0.26042 0.62296 0.06143 0.0
H372 H 0.30343 0.50676 0.05133 0.0
C373 C 0.21398 0.60987 0.04448 0.0
C374 C 0.19896 0.55957 0.0301 0.0
H375 H 0.27008 0.66188 0.0735 0.0
H376 H 0.18937 0.6392 0.04357 0.0
C377 C 0.23212 0.52271 0.03186 0.0
C378 C 0.23674 0.47979 0.54256 0.0
C379 C 0.2183 0.43343 0.56142 0.0
H380 H 0.30085 0.52848 0.52051 0.0
C381 C 0.2516 0.39989 0.57268 0.0
H382 H 0.21174 0.50615 0.5334 0.0
C383 C 0.30248 0.4125 0.56534 0.0
C384 C 0.32109 0.45894 0.54659 0.0
H385 H 0.23832 0.36423 0.58801 0.0
H386 H 0.32715 0.38589 0.57463 0.0
C387 C 0.2877 0.49241 0.5351 0.0
C388 C 0.93182 0.75534 0.9471 0.0
C389 C 0.9707 0.79435 0.94827 0.0
H390 H 0.90885 0.677 0.95633 0.0
C391 C 0.01701 0.78398 0.96152 0.0
H392 H 0.89581 0.76222 0.93662 0.0
C393 C 0.02413 0.7353 0.97398 0.0
C394 C 0.98542 0.69607 0.97189 0.0
H395 H 0.04747 0.81356 0.96259 0.0
H396 H 0.06019 0.72803 0.98402 0.0
C397 C 0.93929 0.70655 0.95824 0.0
C398 C 0.43177 0.75511 0.12551 0.0
C399 C 0.43284 0.71707 0.08886 0.0
H400 H 0.44331 0.83443 0.14423 0.0
C401 C 0.4505 0.72976 0.04268 0.0
H402 H 0.4177 0.7461 0.16131 0.0
C403 C 0.46555 0.78002 0.03295 0.0
C404 C 0.46221 0.8186 0.06907 0.0
H405 H 0.45139 0.70093 0.01391 0.0
H406 H 0.47791 0.78881 0.9967 0.0
C407 C 0.44597 0.80557 0.11564 0.0
C408 C 0.08938 0.27565 0.52207 0.0
C409 C 0.07316 0.30363 0.56318 0.0
H410 H 0.09132 0.20288 0.48598 0.0
C411 C 0.04221 0.27863 0.59857 0.0
H412 H 0.11228 0.29389 0.49362 0.0
C413 C 0.02935 0.2265 0.59365 0.0
C414 C 0.04801 0.19841 0.55376 0.0
H415 H 0.02957 0.29883 0.63098 0.0
H416 H 0.00626 0.20793 0.62181 0.0
C417 C 0.07748 0.22353 0.5177 0.0
C418 C 0.54118 0.23295 0.47038 0.0
C419 C 0.55748 0.22498 0.4222 0.0
H420 H 0.51745 0.28611 0.52564 0.0
C421 C 0.56133 0.26562 0.39229 0.0
H422 H 0.53778 0.20218 0.49417 0.0
C423 C 0.5503 0.31346 0.41025 0.0
C424 C 0.53458 0.32181 0.45851 0.0
H425 H 0.57434 0.2608 0.35516 0.0
H426 H 0.55452 0.34409 0.38626 0.0
C427 C 0.52937 0.28086 0.48829 0.0
loop_
_geom_bond_atom_site_label_1
_geom_bond_atom_site_label_2
_geom_bond_distance
_geom_bond_site_symmetry_2
_ccdc_geom_bond_type
H0 C5 0.930 . S
H1 C8 0.930 . S
H2 C10 0.930 . S
H3 C4 1.016 . S
C4 H3 1.016 . S
C4 N11 1.286 . S
C5 H0 0.930 . S
C5 C6 1.397 . S
C5 C7 1.361 . S
C6 C5 1.397 . S
C6 C10 1.390 . S
C7 C5 1.361 . S
C7 C8 1.393 . S
C7 N11 1.413 . S
C8 H1 0.930 . S
C8 C7 1.393 . S
C8 C9 1.399 . S
C9 C8 1.399 . S
C9 C10 1.381 . S
C10 H2 0.930 . S
C10 C6 1.390 . S
C10 C9 1.381 . S
N11 C4 1.286 . S
N11 C7 1.413 . S
H12 C17 0.930 . S
H13 C20 0.930 . S
H14 C22 0.930 . S
H15 C16 1.016 . S
C16 H15 1.016 . S
C16 N23 1.286 . S
C17 H12 0.930 . S
C17 C18 1.397 . S
C17 C19 1.361 . S
C18 C17 1.397 . S
C18 C22 1.390 . S
C19 C17 1.361 . S
C19 C20 1.393 . S
C19 N23 1.413 . S
C20 H13 0.930 . S
C20 C19 1.393 . S
C20 C21 1.399 . S
C21 C20 1.399 . S
C21 C22 1.381 . S
C22 H14 0.930 . S
C22 C18 1.390 . S
C22 C21 1.381 . S
N23 C16 1.286 . S
N23 C19 1.413 . S
H24 C29 0.930 . S
H25 C32 0.930 . S
H26 C34 0.930 . S
H27 C28 1.016 . S
C28 H27 1.016 . S
C28 N35 1.286 . S
C29 H24 0.930 . S
C29 C30 1.397 . S
C29 C31 1.361 . S
C30 C29 1.397 . S
C30 C34 1.390 . S
C31 C29 1.361 . S
C31 C32 1.393 . S
C31 N35 1.413 . S
C32 H25 0.930 . S
C32 C31 1.393 . S
C32 C33 1.399 . S
C33 C32 1.399 . S
C33 C34 1.381 . S
C34 H26 0.930 . S
C34 C30 1.390 . S
C34 C33 1.381 . S
N35 C28 1.286 . S
N35 C31 1.413 . S
H36 C41 0.930 . S
H37 C44 0.930 . S
H38 C46 0.930 . S
H39 C40 1.016 . S
C40 H39 1.016 . S
C40 N47 1.286 . S
C41 H36 0.930 . S
C41 C42 1.397 . S
C41 C43 1.361 . S
C42 C41 1.397 . S
C42 C46 1.390 . S
C43 C41 1.361 . S
C43 C44 1.393 . S
C43 N47 1.413 . S
C44 H37 0.930 . S
C44 C43 1.393 . S
C44 C45 1.399 . S
C45 C44 1.399 . S
C45 C46 1.381 . S
C46 H38 0.930 . S
C46 C42 1.390 . S
C46 C45 1.381 . S
N47 C40 1.286 . S
N47 C43 1.413 . S
H48 C53 0.930 . S
H49 C56 0.930 . S
H50 C58 0.930 1_545 S
H51 C52 1.016 . S
C52 H51 1.016 . S
C52 N59 1.286 . S
C53 H48 0.930 . S
C53 C54 1.397 . S
C53 C55 1.361 . S
C54 C53 1.397 . S
C54 C58 1.390 . S
C55 C53 1.361 . S
C55 C56 1.393 . S
C55 N59 1.413 . S
C56 H49 0.930 . S
C56 C55 1.393 . S
C56 C57 1.399 . S
C57 C56 1.399 . S
C57 C58 1.381 . S
C58 H50 0.930 1_565 S
C58 C54 1.390 . S
C58 C57 1.381 . S
N59 C52 1.286 . S
N59 C55 1.413 . S
H60 C65 0.930 . S
H61 C68 0.930 . S
H62 C70 0.930 . S
H63 C64 1.016 . S
C64 H63 1.016 . S
C64 N71 1.286 . S
C65 H60 0.930 . S
C65 C66 1.397 . S
C65 C67 1.361 . S
C66 C65 1.397 . S
C66 C70 1.390 . S
C67 C65 1.361 . S
C67 C68 1.393 . S
C67 N71 1.413 . S
C68 H61 0.930 . S
C68 C67 1.393 . S
C68 C69 1.399 . S
C69 C68 1.399 . S
C69 C70 1.381 . S
C70 H62 0.930 . S
C70 C66 1.390 . S
C70 C69 1.381 . S
N71 C64 1.286 . S
N71 C67 1.413 . S
H72 C77 0.930 . S
H73 C80 0.930 . S
H74 C82 0.930 . S
H75 C76 1.016 . S
C76 H75 1.016 . S
C76 N83 1.286 . S
C77 H72 0.930 . S
C77 C78 1.397 . S
C77 C79 1.361 . S
C78 C77 1.397 . S
C78 C82 1.390 . S
C79 C77 1.361 . S
C79 C80 1.393 . S
C79 N83 1.413 . S
C80 H73 0.930 . S
C80 C79 1.393 . S
C80 C81 1.399 . S
C81 C80 1.399 . S
C81 C82 1.381 . S
C82 H74 0.930 . S
C82 C78 1.390 . S
C82 C81 1.381 . S
N83 C76 1.286 . S
N83 C79 1.413 . S
H84 C89 0.930 . S
H85 C92 0.930 . S
H86 C94 0.930 . S
H87 C88 1.016 . S
C88 H87 1.016 . S
C88 N95 1.286 . S
C89 H84 0.930 . S
C89 C90 1.397 . S
C89 C91 1.361 . S
C90 C89 1.397 . S
C90 C94 1.390 . S
C91 C89 1.361 . S
C91 C92 1.393 . S
C91 N95 1.413 . S
C92 H85 0.930 . S
C92 C91 1.393 . S
C92 C93 1.399 . S
C93 C92 1.399 . S
C93 C94 1.381 . S
C94 H86 0.930 . S
C94 C90 1.390 . S
C94 C93 1.381 . S
N95 C88 1.286 . S
N95 C91 1.413 . S
O96 Zn97 1.953 . S
O96 C112 1.225 1_655 S
Zn97 O96 1.953 . S
Zn97 O98 1.949 1_655 S
Zn97 O104 1.919 . S
Zn97 O109 1.924 . S
O98 Zn97 1.949 1_455 S
O98 Zn99 1.923 1_445 S
O98 Zn100 1.950 . S
O98 Zn101 1.945 1_545 S
Zn99 O98 1.923 1_665 S
Zn99 O102 1.933 . S
Zn99 O105 1.941 1_565 S
Zn99 O106 1.965 1_665 S
Zn100 O98 1.950 . S
Zn100 O107 1.938 . S
Zn100 O108 1.906 1_545 S
Zn100 O118 1.953 . S
Zn101 O98 1.945 1_565 S
Zn101 O103 1.932 1_455 S
Zn101 O110 1.977 . S
Zn101 O111 1.910 1_455 S
O102 Zn99 1.933 . S
O102 C113 1.226 . S
O103 Zn101 1.932 1_655 S
O103 C113 1.307 . S
O104 Zn97 1.919 . S
O104 C115 1.253 . S
O105 Zn99 1.941 1_545 S
O105 C115 1.283 . S
O106 Zn99 1.965 1_445 S
O106 C114 1.303 . S
O107 Zn100 1.938 . S
O107 C114 1.247 . S
O108 Zn100 1.906 1_565 S
O108 C116 1.304 . S
O109 Zn97 1.924 . S
O109 C117 1.311 1_545 S
O110 Zn101 1.977 . S
O110 C116 1.272 . S
O111 Zn101 1.910 1_655 S
O111 C117 1.231 . S
C112 O96 1.225 1_455 S
C112 O118 1.298 . S
C113 O102 1.226 . S
C113 O103 1.307 . S
C114 O106 1.303 . S
C114 O107 1.247 . S
C115 O104 1.253 . S
C115 O105 1.283 . S
C116 O108 1.304 . S
C116 O110 1.272 . S
C117 O109 1.311 1_565 S
C117 O111 1.231 . S
O118 Zn100 1.953 . S
O118 C112 1.298 . S
O119 Zn120 1.953 . S
O119 C135 1.225 . S
Zn120 O119 1.953 . S
Zn120 O121 1.949 1_556 S
Zn120 O127 1.919 . S
Zn120 O132 1.924 1_556 S
O121 Zn120 1.949 1_554 S
O121 Zn122 1.923 1_544 S
O121 Zn123 1.950 . S
O121 Zn124 1.945 1_545 S
Zn122 O121 1.923 1_566 S
Zn122 O125 1.933 1_556 S
Zn122 O128 1.941 . S
Zn122 O129 1.965 . S
Zn123 O121 1.950 . S
Zn123 O130 1.938 . S
Zn123 O131 1.906 . S
Zn123 O141 1.953 . S
Zn124 O121 1.945 1_565 S
Zn124 O126 1.932 . S
Zn124 O133 1.977 1_565 S
Zn124 O134 1.910 1_565 S
O125 Zn122 1.933 1_554 S
O125 C136 1.226 . S
O126 Zn124 1.932 . S
O126 C136 1.307 . S
O127 Zn120 1.919 . S
O127 C138 1.253 1_545 S
O128 Zn122 1.941 . S
O128 C138 1.283 . S
O129 Zn122 1.965 . S
O129 C137 1.303 1_565 S
O130 Zn123 1.938 . S
O130 C137 1.247 1_554 S
O131 Zn123 1.906 . S
O131 C139 1.304 . S
O132 Zn120 1.924 1_554 S
O132 C140 1.311 . S
O133 Zn124 1.977 1_545 S
O133 C139 1.272 . S
O134 Zn124 1.910 1_545 S
O134 C140 1.231 . S
C135 O119 1.225 . S
C135 O141 1.298 1_556 S
C136 O125 1.226 . S
C136 O126 1.307 . S
C137 O129 1.303 1_545 S
C137 O130 1.247 1_556 S
C138 O127 1.253 1_565 S
C138 O128 1.283 . S
C139 O131 1.304 . S
C139 O133 1.272 . S
C140 O132 1.311 . S
C140 O134 1.231 . S
O141 Zn123 1.953 . S
O141 C135 1.298 1_554 S
O142 Zn143 1.953 . S
O142 C158 1.225 . S
Zn143 O142 1.953 . S
Zn143 O144 1.949 . S
Zn143 O150 1.919 . S
Zn143 O155 1.924 . S
O144 Zn143 1.949 . S
O144 Zn145 1.923 . S
O144 Zn146 1.950 . S
O144 Zn147 1.945 . S
Zn145 O144 1.923 . S
Zn145 O148 1.933 . S
Zn145 O151 1.941 . S
Zn145 O152 1.965 . S
Zn146 O144 1.950 . S
Zn146 O153 1.938 . S
Zn146 O154 1.906 . S
Zn146 O164 1.953 . S
Zn147 O144 1.945 . S
Zn147 O149 1.932 . S
Zn147 O156 1.977 . S
Zn147 O157 1.910 . S
O148 Zn145 1.933 . S
O148 C159 1.226 . S
O149 Zn147 1.932 . S
O149 C159 1.307 . S
O150 Zn143 1.919 . S
O150 C161 1.253 . S
O151 Zn145 1.941 . S
O151 C161 1.283 . S
O152 Zn145 1.965 . S
O152 C160 1.303 . S
O153 Zn146 1.938 . S
O153 C160 1.247 . S
O154 Zn146 1.906 . S
O154 C162 1.304 . S
O155 Zn143 1.924 . S
O155 C163 1.311 . S
O156 Zn147 1.977 . S
O156 C162 1.272 . S
O157 Zn147 1.910 . S
O157 C163 1.231 . S
C158 O142 1.225 . S
C158 O164 1.298 . S
C159 O148 1.226 . S
C159 O149 1.307 . S
C160 O152 1.303 . S
C160 O153 1.247 . S
C161 O150 1.253 . S
C161 O151 1.283 . S
C162 O154 1.304 . S
C162 O156 1.272 . S
C163 O155 1.311 . S
C163 O157 1.231 . S
O164 Zn146 1.953 . S
O164 C158 1.298 . S
O165 Zn166 1.953 . S
O165 C181 1.225 . S
Zn166 O165 1.953 . S
Zn166 O167 1.949 1_655 S
Zn166 O173 1.919 . S
Zn166 O178 1.924 . S
O167 Zn166 1.949 1_455 S
O167 Zn168 1.923 1_554 S
O167 Zn169 1.950 . S
O167 Zn170 1.945 1_554 S
Zn168 O167 1.923 1_556 S
Zn168 O171 1.933 . S
Zn168 O174 1.941 1_455 S
Zn168 O175 1.965 . S
Zn169 O167 1.950 . S
Zn169 O176 1.938 . S
Zn169 O177 1.906 . S
Zn169 O187 1.953 . S
Zn170 O167 1.945 1_556 S
Zn170 O172 1.932 . S
Zn170 O179 1.977 1_556 S
Zn170 O180 1.910 1_556 S
O171 Zn168 1.933 . S
O171 C182 1.226 . S
O172 Zn170 1.932 . S
O172 C182 1.307 . S
O173 Zn166 1.919 . S
O173 C184 1.253 1_554 S
O174 Zn168 1.941 1_655 S
O174 C184 1.283 . S
O175 Zn168 1.965 . S
O175 C183 1.303 . S
O176 Zn169 1.938 . S
O176 C183 1.247 1_554 S
O177 Zn169 1.906 . S
O177 C185 1.304 . S
O178 Zn166 1.924 . S
O178 C186 1.311 1_655 S
O179 Zn170 1.977 1_554 S
O179 C185 1.272 . S
O180 Zn170 1.910 1_554 S
O180 C186 1.231 . S
C181 O165 1.225 . S
C181 O187 1.298 1_655 S
C182 O171 1.226 . S
C182 O172 1.307 . S
C183 O175 1.303 . S
C183 O176 1.247 1_556 S
C184 O173 1.253 1_556 S
C184 O174 1.283 . S
C185 O177 1.304 . S
C185 O179 1.272 . S
C186 O178 1.311 1_455 S
C186 O180 1.231 . S
O187 Zn169 1.953 . S
O187 C181 1.298 1_455 S
C188 C189 1.387 . S
C188 H192 0.950 . S
C188 C197 1.390 . S
C189 C188 1.387 . S
C189 C191 1.387 . S
H190 C197 0.950 . S
C191 C189 1.387 . S
C191 C193 1.390 . S
C191 H195 0.950 . S
H192 C188 0.950 . S
C193 C191 1.390 . S
C193 C194 1.387 . S
C193 H196 0.950 . S
C194 C193 1.387 . S
C194 C197 1.387 . S
H195 C191 0.950 . S
H196 C193 0.950 . S
C197 C188 1.390 . S
C197 H190 0.950 . S
C197 C194 1.387 . S
C198 C199 1.387 . S
C198 H202 0.950 . S
C198 C207 1.390 . S
C199 C198 1.387 . S
C199 C201 1.387 . S
H200 C207 0.950 . S
C201 C199 1.387 . S
C201 C203 1.390 . S
C201 H205 0.950 . S
H202 C198 0.950 . S
C203 C201 1.390 . S
C203 C204 1.387 . S
C203 H206 0.950 . S
C204 C203 1.387 . S
C204 C207 1.387 . S
H205 C201 0.950 . S
H206 C203 0.950 . S
C207 C198 1.390 . S
C207 H200 0.950 . S
C207 C204 1.387 . S
C208 C209 1.387 . S
C208 H212 0.950 . S
C208 C217 1.390 . S
C209 C208 1.387 . S
C209 C211 1.387 . S
H210 C217 0.950 . S
C211 C209 1.387 . S
C211 C213 1.390 . S
C211 H215 0.950 . S
H212 C208 0.950 . S
C213 C211 1.390 . S
C213 C214 1.387 . S
C213 H216 0.950 . S
C214 C213 1.387 . S
C214 C217 1.387 . S
H215 C211 0.950 . S
H216 C213 0.950 . S
C217 C208 1.390 . S
C217 H210 0.950 . S
C217 C214 1.387 . S
C218 C219 1.387 . S
C218 H222 0.950 . S
C218 C227 1.390 . S
C219 C218 1.387 . S
C219 C221 1.387 . S
H220 C227 0.950 . S
C221 C219 1.387 . S
C221 C223 1.390 . S
C221 H225 0.950 . S
H222 C218 0.950 . S
C223 C221 1.390 . S
C223 C224 1.387 . S
C223 H226 0.950 . S
C224 C223 1.387 . S
C224 C227 1.387 . S
H225 C221 0.950 . S
H226 C223 0.950 . S
C227 C218 1.390 . S
C227 H220 0.950 . S
C227 C224 1.387 . S
C228 C229 1.387 . S
C228 H232 0.950 . S
C228 C237 1.390 . S
C229 C228 1.387 . S
C229 C231 1.387 . S
H230 C237 0.950 . S
C231 C229 1.387 . S
C231 C233 1.390 . S
C231 H235 0.950 . S
H232 C228 0.950 . S
C233 C231 1.390 . S
C233 C234 1.387 . S
C233 H236 0.950 . S
C234 C233 1.387 . S
C234 C237 1.387 . S
H235 C231 0.950 . S
H236 C233 0.950 . S
C237 C228 1.390 . S
C237 H230 0.950 . S
C237 C234 1.387 . S
C238 C239 1.387 . S
C238 H242 0.950 . S
C238 C247 1.390 . S
C239 C238 1.387 . S
C239 C241 1.387 . S
H240 C247 0.950 . S
C241 C239 1.387 . S
C241 C243 1.390 . S
C241 H245 0.950 . S
H242 C238 0.950 . S
C243 C241 1.390 . S
C243 C244 1.387 . S
C243 H246 0.950 . S
C244 C243 1.387 . S
C244 C247 1.387 . S
H245 C241 0.950 . S
H246 C243 0.950 . S
C247 C238 1.390 . S
C247 H240 0.950 . S
C247 C244 1.387 . S
C248 C249 1.387 . S
C248 H252 0.950 . S
C248 C257 1.390 . S
C249 C248 1.387 . S
C249 C251 1.387 . S
H250 C257 0.950 . S
C251 C249 1.387 . S
C251 C253 1.390 . S
C251 H255 0.950 . S
H252 C248 0.950 . S
C253 C251 1.390 . S
C253 C254 1.387 . S
C253 H256 0.950 1_556 S
C254 C253 1.387 . S
C254 C257 1.387 . S
H255 C251 0.950 . S
H256 C253 0.950 1_554 S
C257 C248 1.390 . S
C257 H250 0.950 . S
C257 C254 1.387 . S
C258 C259 1.387 . S
C258 H262 0.950 . S
C258 C267 1.390 . S
C259 C258 1.387 . S
C259 C261 1.387 . S
H260 C267 0.950 . S
C261 C259 1.387 . S
C261 C263 1.390 . S
C261 H265 0.950 . S
H262 C258 0.950 . S
C263 C261 1.390 . S
C263 C264 1.387 . S
C263 H266 0.950 . S
C264 C263 1.387 . S
C264 C267 1.387 . S
H265 C261 0.950 . S
H266 C263 0.950 . S
C267 C258 1.390 . S
C267 H260 0.950 . S
C267 C264 1.387 . S
C268 C269 1.387 . S
C268 H272 0.950 . S
C268 C277 1.390 . S
C269 C268 1.387 . S
C269 C271 1.387 . S
H270 C277 0.950 . S
C271 C269 1.387 . S
C271 C273 1.390 . S
C271 H275 0.950 . S
H272 C268 0.950 . S
C273 C271 1.390 . S
C273 C274 1.387 . S
C273 H276 0.950 . S
C274 C273 1.387 . S
C274 C277 1.387 . S
H275 C271 0.950 . S
H276 C273 0.950 . S
C277 C268 1.390 . S
C277 H270 0.950 . S
C277 C274 1.387 . S
C278 C279 1.387 . S
C278 H282 0.950 . S
C278 C287 1.390 . S
C279 C278 1.387 . S
C279 C281 1.387 . S
H280 C287 0.950 . S
C281 C279 1.387 . S
C281 C283 1.390 1_556 S
C281 H285 0.950 1_556 S
H282 C278 0.950 . S
C283 C281 1.390 1_554 S
C283 C284 1.386 1_554 S
C283 H286 0.951 . S
C284 C283 1.386 1_556 S
C284 C287 1.387 . S
H285 C281 0.950 1_554 S
H286 C283 0.951 . S
C287 C278 1.390 . S
C287 H280 0.950 . S
C287 C284 1.387 . S
C288 C289 1.387 . S
C288 H292 0.950 . S
C288 C297 1.390 . S
C289 C288 1.387 . S
C289 C291 1.387 . S
H290 C297 0.950 . S
C291 C289 1.387 . S
C291 C293 1.390 . S
C291 H295 0.950 . S
H292 C288 0.950 . S
C293 C291 1.390 . S
C293 C294 1.387 . S
C293 H296 0.950 . S
C294 C293 1.387 . S
C294 C297 1.387 . S
H295 C291 0.950 . S
H296 C293 0.950 . S
C297 C288 1.390 . S
C297 H290 0.950 . S
C297 C294 1.387 . S
C298 C299 1.387 . S
C298 H302 0.950 . S
C298 C307 1.390 . S
C299 C298 1.387 . S
C299 C301 1.387 . S
H300 C307 0.950 . S
C301 C299 1.387 . S
C301 C303 1.390 . S
C301 H305 0.950 . S
H302 C298 0.950 . S
C303 C301 1.390 . S
C303 C304 1.387 . S
C303 H306 0.950 . S
C304 C303 1.387 . S
C304 C307 1.387 . S
H305 C301 0.950 . S
H306 C303 0.950 . S
C307 C298 1.390 . S
C307 H300 0.950 . S
C307 C304 1.387 . S
C308 C309 1.387 . S
C308 H312 0.936 1_655 S
C308 C317 1.390 . S
C309 C308 1.387 . S
C309 C311 1.387 1_565 S
H310 C317 0.950 1_455 S
C311 C309 1.387 1_545 S
C311 C313 1.390 . S
C311 H315 0.950 . S
H312 C308 0.936 1_455 S
C313 C311 1.390 . S
C313 C314 1.387 1_545 S
C313 H316 0.950 . S
C314 C313 1.387 1_565 S
C314 C317 1.387 . S
H315 C311 0.950 . S
H316 C313 0.950 . S
C317 C308 1.390 . S
C317 H310 0.950 1_655 S
C317 C314 1.387 . S
C318 C319 1.387 . S
C318 H322 0.950 . S
C318 C327 1.390 . S
C319 C318 1.387 . S
C319 C321 1.387 . S
H320 C327 0.950 . S
C321 C319 1.387 . S
C321 C323 1.390 . S
C321 H325 0.950 . S
H322 C318 0.950 . S
C323 C321 1.390 . S
C323 C324 1.387 . S
C323 H326 0.950 . S
C324 C323 1.387 . S
C324 C327 1.387 . S
H325 C321 0.950 . S
H326 C323 0.950 . S
C327 C318 1.390 . S
C327 H320 0.950 . S
C327 C324 1.387 . S
C328 C329 1.387 . S
C328 H332 0.950 . S
C328 C337 1.390 . S
C329 C328 1.387 . S
C329 C331 1.387 . S
H330 C337 0.950 . S
C331 C329 1.387 . S
C331 C333 1.390 . S
C331 H335 0.950 . S
H332 C328 0.950 . S
C333 C331 1.390 . S
C333 C334 1.387 . S
C333 H336 0.950 . S
C334 C333 1.387 . S
C334 C337 1.387 . S
H335 C331 0.950 . S
H336 C333 0.950 . S
C337 C328 1.390 . S
C337 H330 0.950 . S
C337 C334 1.387 . S
C338 C339 1.387 . S
C338 H342 0.950 . S
C338 C347 1.390 . S
C339 C338 1.387 . S
C339 C341 1.387 . S
H340 C347 0.950 . S
C341 C339 1.387 . S
C341 C343 1.390 . S
C341 H345 0.950 . S
H342 C338 0.950 . S
C343 C341 1.390 . S
C343 C344 1.387 . S
C343 H346 0.953 . S
C344 C343 1.387 . S
C344 C347 1.387 . S
H345 C341 0.950 . S
H346 C343 0.953 . S
C347 C338 1.390 . S
C347 H340 0.950 . S
C347 C344 1.387 . S
C348 C349 1.387 . S
C348 H352 0.950 . S
C348 C357 1.390 . S
C349 C348 1.387 . S
C349 C351 1.387 1_565 S
H350 C357 0.950 1_554 S
C351 C349 1.387 1_545 S
C351 C353 1.390 . S
C351 H355 0.950 . S
H352 C348 0.950 . S
C353 C351 1.390 . S
C353 C354 1.387 . S
C353 H356 0.950 . S
C354 C353 1.387 . S
C354 C357 1.387 1_545 S
H355 C351 0.950 . S
H356 C353 0.950 . S
C357 C348 1.390 . S
C357 H350 0.950 1_556 S
C357 C354 1.387 1_565 S
C358 C359 1.387 . S
C358 H362 0.950 1_545 S
C358 C367 1.390 . S
C359 C358 1.387 . S
C359 C361 1.387 . S
H360 C367 0.950 1_565 S
C361 C359 1.387 . S
C361 C363 1.390 . S
C361 H365 0.950 . S
H362 C358 0.950 1_565 S
C363 C361 1.390 . S
C363 C364 1.387 . S
C363 H366 0.950 . S
C364 C363 1.387 . S
C364 C367 1.387 . S
H365 C361 0.950 . S
H366 C363 0.950 . S
C367 C358 1.390 . S
C367 H360 0.950 1_545 S
C367 C364 1.387 . S
C368 C369 1.387 . S
C368 H372 0.950 . S
C368 C377 1.390 . S
C369 C368 1.387 . S
C369 C371 1.387 . S
H370 C377 0.950 . S
C371 C369 1.387 . S
C371 C373 1.390 . S
C371 H375 0.950 . S
H372 C368 0.950 . S
C373 C371 1.390 . S
C373 C374 1.387 . S
C373 H376 0.950 . S
C374 C373 1.387 . S
C374 C377 1.387 . S
H375 C371 0.950 . S
H376 C373 0.950 . S
C377 C368 1.390 . S
C377 H370 0.950 . S
C377 C374 1.387 . S
C378 C379 1.387 . S
C378 H382 0.950 . S
C378 C387 1.390 . S
C379 C378 1.387 . S
C379 C381 1.387 . S
H380 C387 0.950 . S
C381 C379 1.387 . S
C381 C383 1.390 . S
C381 H385 0.950 . S
H382 C378 0.950 . S
C383 C381 1.390 . S
C383 C384 1.387 . S
C383 H386 0.950 . S
C384 C383 1.387 . S
C384 C387 1.387 . S
H385 C381 0.950 . S
H386 C383 0.950 . S
C387 C378 1.390 . S
C387 H380 0.950 . S
C387 C384 1.387 . S
C388 C389 1.387 . S
C388 H392 0.950 . S
C388 C397 1.390 . S
C389 C388 1.387 . S
C389 C391 1.387 1_655 S
H390 C397 0.950 1_554 S
C391 C389 1.387 1_455 S
C391 C393 1.390 . S
C391 H395 0.950 . S
H392 C388 0.950 . S
C393 C391 1.390 . S
C393 C394 1.387 1_455 S
C393 H396 0.950 . S
C394 C393 1.387 1_655 S
C394 C397 1.387 . S
H395 C391 0.950 . S
H396 C393 0.950 . S
C397 C388 1.390 . S
C397 H390 0.950 1_556 S
C397 C394 1.387 . S
C398 C399 1.387 . S
C398 H402 0.950 . S
C398 C407 1.390 . S
C399 C398 1.387 . S
C399 C401 1.387 . S
H400 C407 0.950 . S
C401 C399 1.387 . S
C401 C403 1.390 . S
C401 H405 0.950 . S
H402 C398 0.950 . S
C403 C401 1.390 . S
C403 C404 1.387 . S
C403 H406 0.948 . S
C404 C403 1.387 . S
C404 C407 1.387 . S
H405 C401 0.950 . S
H406 C403 0.948 . S
C407 C398 1.390 . S
C407 H400 0.950 . S
C407 C404 1.387 . S
C408 C409 1.387 . S
C408 H412 0.950 . S
C408 C417 1.390 . S
C409 C408 1.387 . S
C409 C411 1.387 . S
H410 C417 0.950 . S
C411 C409 1.387 . S
C411 C413 1.390 . S
C411 H415 0.950 . S
H412 C408 0.950 . S
C413 C411 1.390 . S
C413 C414 1.387 . S
C413 H416 0.950 . S
C414 C413 1.387 . S
C414 C417 1.387 . S
H415 C411 0.950 . S
H416 C413 0.950 . S
C417 C408 1.390 . S
C417 H410 0.950 . S
C417 C414 1.387 . S
C418 C419 1.387 . S
C418 H422 0.950 . S
C418 C427 1.390 . S
C419 C418 1.387 . S
C419 C421 1.387 . S
H420 C427 0.950 . S
C421 C419 1.387 . S
C421 C423 1.390 . S
C421 H425 0.950 . S
H422 C418 0.950 . S
C423 C421 1.390 . S
C423 C424 1.387 . S
C423 H426 0.950 . S
C424 C423 1.387 . S
C424 C427 1.387 . S
H425 C421 0.950 . S
H426 C423 0.950 . S
C427 C418 1.390 . S
C427 H420 0.950 . S
C427 C424 1.387 . S
C189 C6 1.732 . S
C194 C114 1.694 . S
C199 C18 1.804 . S
C204 C138 1.779 . S
C214 C158 1.461 . S
C209 C28 1.437 . S
C219 C40 1.097 . S
C224 C181 1.120 . S
C234 C140 1.838 . S
C229 C9 1.891 . S
C244 C116 1.569 . S
C239 C16 1.617 . S
C254 C184 1.569 . S
C249 C30 1.631 . S
C264 C161 1.341 . S
C259 C42 1.394 . S
C269 C4 1.485 . S
C274 C186 1.440 . S
C284 C135 1.634 . S
C279 C33 1.625 . S
C289 C45 1.412 . S
C294 C113 1.420 . S
C299 C21 1.669 . S
C304 C163 1.629 . S
C314 C117 1.822 . S
C309 C57 1.798 . S
C319 C66 1.787 . S
C324 C139 1.769 . S
C329 C76 1.703 . S
C334 C159 1.723 . S
C339 C88 1.263 . S
C344 C182 1.309 . S
C349 C54 1.735 . S
C354 C137 1.709 . S
C364 C115 1.564 . S
C359 C64 1.548 . S
C374 C185 1.424 . S
C369 C78 1.468 . S
C384 C162 1.313 . S
C379 C93 1.335 . S
C389 C52 1.635 . S
C394 C183 1.634 1_655 S
C404 C136 1.580 . S
C399 C81 1.539 . S
C414 C112 1.440 . S
C409 C90 1.420 . S
C419 C69 1.917 . S
C424 C160 1.882 . S
