# Generated by pormake.
# Topology ctn, (3,4)-cn, num edge types: 1
# Building blocks:
#     Node 0, Type 0, BuildingBlock: BETDIP_clean_linker_0, # of connection points: 3
#     Node 1, Type 0, BuildingBlock: BETDIP_clean_linker_0, # of connection points: 3
#     Node 2, Type 0, BuildingBlock: BETDIP_clean_linker_0, # of connection points: 3
#     Node 3, Type 0, BuildingBlock: BETDIP_clean_linker_0, # of connection points: 3
#     Node 4, Type 0, BuildingBlock: BETDIP_clean_linker_0, # of connection points: 3
#     Node 5, Type 0, BuildingBlock: BETDIP_clean_linker_0, # of connection points: 3
#     Node 6, Type 0, BuildingBlock: BETDIP_clean_linker_0, # of connection points: 3
#     Node 7, Type 0, BuildingBlock: BETDIP_clean_linker_0, # of connection points: 3
#     Node 8, Type 0, BuildingBlock: BETDIP_clean_linker_0, # of connection points: 3
#     Node 9, Type 0, BuildingBlock: BETDIP_clean_linker_0, # of connection points: 3
#     Node 10, Type 0, BuildingBlock: BETDIP_clean_linker_0, # of connection points: 3
#     Node 11, Type 0, BuildingBlock: BETDIP_clean_linker_0, # of connection points: 3
#     Node 12, Type 0, BuildingBlock: BETDIP_clean_linker_0, # of connection points: 3
#     Node 13, Type 0, BuildingBlock: BETDIP_clean_linker_0, # of connection points: 3
#     Node 14, Type 0, BuildingBlock: BETDIP_clean_linker_0, # of connection points: 3
#     Node 15, Type 0, BuildingBlock: BETDIP_clean_linker_0, # of connection points: 3
#     Node 16, Type 1, BuildingBlock: NAHDIM_clean_sbu_0, # of connection points: 4
#     Node 17, Type 1, BuildingBlock: NAHDIM_clean_sbu_0, # of connection points: 4
#     Node 18, Type 1, BuildingBlock: NAHDIM_clean_sbu_0, # of connection points: 4
#     Node 19, Type 1, BuildingBlock: NAHDIM_clean_sbu_0, # of connection points: 4
#     Node 20, Type 1, BuildingBlock: NAHDIM_clean_sbu_0, # of connection points: 4
#     Node 21, Type 1, BuildingBlock: NAHDIM_clean_sbu_0, # of connection points: 4
#     Node 22, Type 1, BuildingBlock: NAHDIM_clean_sbu_0, # of connection points: 4
#     Node 23, Type 1, BuildingBlock: NAHDIM_clean_sbu_0, # of connection points: 4
#     Node 24, Type 1, BuildingBlock: NAHDIM_clean_sbu_0, # of connection points: 4
#     Node 25, Type 1, BuildingBlock: NAHDIM_clean_sbu_0, # of connection points: 4
#     Node 26, Type 1, BuildingBlock: NAHDIM_clean_sbu_0, # of connection points: 4
#     Node 27, Type 1, BuildingBlock: NAHDIM_clean_sbu_0, # of connection points: 4
#     Edge 28, Type (0, 1), BuildingBlock: CIFDUS_clean_linker_0, # of connection points: 2
#     Edge 29, Type (0, 1), BuildingBlock: CIFDUS_clean_linker_0, # of connection points: 2
#     Edge 30, Type (0, 1), BuildingBlock: CIFDUS_clean_linker_0, # of connection points: 2
#     Edge 31, Type (0, 1), BuildingBlock: CIFDUS_clean_linker_0, # of connection points: 2
#     Edge 32, Type (0, 1), BuildingBlock: CIFDUS_clean_linker_0, # of connection points: 2
#     Edge 33, Type (0, 1), BuildingBlock: CIFDUS_clean_linker_0, # of connection points: 2
#     Edge 34, Type (0, 1), BuildingBlock: CIFDUS_clean_linker_0, # of connection points: 2
#     Edge 35, Type (0, 1), BuildingBlock: CIFDUS_clean_linker_0, # of connection points: 2
#     Edge 36, Type (0, 1), BuildingBlock: CIFDUS_clean_linker_0, # of connection points: 2
#     Edge 37, Type (0, 1), BuildingBlock: CIFDUS_clean_linker_0, # of connection points: 2
#     Edge 38, Type (0, 1), BuildingBlock: CIFDUS_clean_linker_0, # of connection points: 2
#     Edge 39, Type (0, 1), BuildingBlock: CIFDUS_clean_linker_0, # of connection points: 2
#     Edge 40, Type (0, 1), BuildingBlock: CIFDUS_clean_linker_0, # of connection points: 2
#     Edge 41, Type (0, 1), BuildingBlock: CIFDUS_clean_linker_0, # of connection points: 2
#     Edge 42, Type (0, 1), BuildingBlock: CIFDUS_clean_linker_0, # of connection points: 2
#     Edge 43, Type (0, 1), BuildingBlock: CIFDUS_clean_linker_0, # of connection points: 2
#     Edge 44, Type (0, 1), BuildingBlock: CIFDUS_clean_linker_0, # of connection points: 2
#     Edge 45, Type (0, 1), BuildingBlock: CIFDUS_clean_linker_0, # of connection points: 2
#     Edge 46, Type (0, 1), BuildingBlock: CIFDUS_clean_linker_0, # of connection points: 2
#     Edge 47, Type (0, 1), BuildingBlock: CIFDUS_clean_linker_0, # of connection points: 2
#     Edge 48, Type (0, 1), BuildingBlock: CIFDUS_clean_linker_0, # of connection points: 2
#     Edge 49, Type (0, 1), BuildingBlock: CIFDUS_clean_linker_0, # of connection points: 2
#     Edge 50, Type (0, 1), BuildingBlock: CIFDUS_clean_linker_0, # of connection points: 2
#     Edge 51, Type (0, 1), BuildingBlock: CIFDUS_clean_linker_0, # of connection points: 2
#     Edge 52, Type (0, 1), BuildingBlock: CIFDUS_clean_linker_0, # of connection points: 2
#     Edge 53, Type (0, 1), BuildingBlock: CIFDUS_clean_linker_0, # of connection points: 2
#     Edge 54, Type (0, 1), BuildingBlock: CIFDUS_clean_linker_0, # of connection points: 2
#     Edge 55, Type (0, 1), BuildingBlock: CIFDUS_clean_linker_0, # of connection points: 2
#     Edge 56, Type (0, 1), BuildingBlock: CIFDUS_clean_linker_0, # of connection points: 2
#     Edge 57, Type (0, 1), BuildingBlock: CIFDUS_clean_linker_0, # of connection points: 2
#     Edge 58, Type (0, 1), BuildingBlock: CIFDUS_clean_linker_0, # of connection points: 2
#     Edge 59, Type (0, 1), BuildingBlock: CIFDUS_clean_linker_0, # of connection points: 2
#     Edge 60, Type (0, 1), BuildingBlock: CIFDUS_clean_linker_0, # of connection points: 2
#     Edge 61, Type (0, 1), BuildingBlock: CIFDUS_clean_linker_0, # of connection points: 2
#     Edge 62, Type (0, 1), BuildingBlock: CIFDUS_clean_linker_0, # of connection points: 2
#     Edge 63, Type (0, 1), BuildingBlock: CIFDUS_clean_linker_0, # of connection points: 2
#     Edge 64, Type (0, 1), BuildingBlock: CIFDUS_clean_linker_0, # of connection points: 2
#     Edge 65, Type (0, 1), BuildingBlock: CIFDUS_clean_linker_0, # of connection points: 2
#     Edge 66, Type (0, 1), BuildingBlock: CIFDUS_clean_linker_0, # of connection points: 2
#     Edge 67, Type (0, 1), BuildingBlock: CIFDUS_clean_linker_0, # of connection points: 2
#     Edge 68, Type (0, 1), BuildingBlock: CIFDUS_clean_linker_0, # of connection points: 2
#     Edge 69, Type (0, 1), BuildingBlock: CIFDUS_clean_linker_0, # of connection points: 2
#     Edge 70, Type (0, 1), BuildingBlock: CIFDUS_clean_linker_0, # of connection points: 2
#     Edge 71, Type (0, 1), BuildingBlock: CIFDUS_clean_linker_0, # of connection points: 2
#     Edge 72, Type (0, 1), BuildingBlock: CIFDUS_clean_linker_0, # of connection points: 2
#     Edge 73, Type (0, 1), BuildingBlock: CIFDUS_clean_linker_0, # of connection points: 2
#     Edge 74, Type (0, 1), BuildingBlock: CIFDUS_clean_linker_0, # of connection points: 2
#     Edge 75, Type (0, 1), BuildingBlock: CIFDUS_clean_linker_0, # of connection points: 2
# Relax obj value: 0.071
# Max RMSD: 0.190
# Mean RMSD: 0.116
data_MOF--net-ctn--node1-NAHDIM_clean_sbu_0--node2-BETDIP_clean_linker_0--edge1-CIFDUS_clean_linker_0
_symmetry_space_group_name_H-M    P1
_symmetry_Int_Tables_number       1
_symmetry_cell_setting            triclinic
loop_
_symmetry_equiv_pos_as_xyz
'x, y, z'
_cell_length_a     45.440735
_cell_length_b     45.986303
_cell_length_c     50.254269
_cell_angle_alpha  94.893739
_cell_angle_beta   94.063076
_cell_angle_gamma 95.28281
loop_
_atom_site_label
_atom_site_type_symbol
_atom_site_fract_x
_atom_site_fract_y
_atom_site_fract_z
_atom_type_partial_charge
H0 H 0.03755 0.07704 0.06536 0.0
H1 H 0.09434 0.04712 0.0064 0.0
H2 H 0.08001 0.99799 0.07403 0.0
H3 H 0.07444 0.07771 0.9811 0.0
C4 C 0.06398 0.09374 0.99333 0.0
C5 C 0.05152 0.06076 0.058 0.0
C6 C 0.05705 0.03701 0.07287 0.0
C7 C 0.06408 0.06421 0.03375 0.0
C8 C 0.0833 0.04403 0.02443 0.0
C9 C 0.08941 0.02019 0.039 0.0
C10 C 0.07601 0.01674 0.0631 0.0
N11 N 0.05721 0.08871 0.01984 0.0
H12 H 0.24688 0.6854 0.19809 0.0
H13 H 0.33516 0.72769 0.21517 0.0
H14 H 0.30236 0.66212 0.26455 0.0
H15 H 0.32247 0.75832 0.18673 0.0
C16 C 0.30197 0.75006 0.17509 0.0
C17 C 0.26761 0.68825 0.21054 0.0
C18 C 0.27162 0.6713 0.23224 0.0
C19 C 0.29004 0.70883 0.20435 0.0
C20 C 0.31739 0.7121 0.21972 0.0
C21 C 0.32201 0.69528 0.24146 0.0
C22 C 0.29896 0.675 0.24771 0.0
N23 N 0.28397 0.72553 0.18242 0.0
H24 H 0.95312 0.50874 1.00102 0.0
H25 H 0.00619 0.46903 0.05873 0.0
H26 H 0.96414 0.54583 0.08333 0.0
H27 H 0.02848 0.45329 0.02214 0.0
C28 C 0.00987 0.44784 0.00722 0.0
C29 C 0.96226 0.5086 0.02151 0.0
C30 C 0.95565 0.52984 0.0415 0.0
C31 C 0.98091 0.48712 0.02739 0.0
C32 C 0.99316 0.48661 0.05375 0.0
C33 C 0.98776 0.508 0.07407 0.0
C34 C 0.96883 0.52953 0.06776 0.0
N35 N 0.98585 0.46558 0.00658 0.0
H36 H 0.72451 0.77415 0.18319 0.0
H37 H 0.74874 0.85239 0.23629 0.0
H38 H 0.79603 0.83636 0.16647 0.0
H39 H 0.72606 0.82732 0.26599 0.0
C40 C 0.70862 0.81241 0.25497 0.0
C41 C 0.73875 0.79434 0.18853 0.0
C42 C 0.76071 0.80317 0.17175 0.0
C43 C 0.73463 0.81146 0.21215 0.0
C44 C 0.7524 0.8382 0.2188 0.0
C45 C 0.77438 0.84744 0.2022 0.0
C46 C 0.77851 0.82969 0.17888 0.0
N47 N 0.71172 0.80153 0.22808 0.0
H48 H 0.01604 0.96558 0.43339 0.0
H49 H 0.09869 0.98846 0.48015 0.0
H50 H 0.07145 0.04306 0.41937 0.0
H51 H 0.07609 0.96362 0.51076 0.0
C52 C 0.06138 0.94625 0.49944 0.0
C53 C 0.03592 0.98055 0.43822 0.0
C54 C 0.04123 0.005 0.42366 0.0
C55 C 0.05592 0.975 0.45912 0.0
C56 C 0.08233 0.99352 0.46499 0.0
C57 C 0.08827 0.01814 0.45069 0.0
C58 C 0.06751 0.02375 0.43004 0.0
N59 N 0.04888 0.95027 0.47344 0.0
H60 H 0.20872 0.73899 0.83514 0.0
H61 H 0.24521 0.67167 0.7874 0.0
H62 H 0.29539 0.71426 0.85828 0.0
H63 H 0.21833 0.6996 0.75369 0.0
C64 C 0.19769 0.69954 0.76339 0.0
C65 C 0.22704 0.72601 0.83161 0.0
C66 C 0.25264 0.72975 0.84935 0.0
C67 C 0.22472 0.7059 0.80898 0.0
C68 C 0.24768 0.68812 0.80438 0.0
C69 C 0.27294 0.69038 0.82262 0.0
C70 C 0.27546 0.71164 0.84479 0.0
N71 N 0.19843 0.70346 0.79172 0.0
H72 H 0.00697 0.59693 0.47031 0.0
H73 H 0.95987 0.51079 0.4566 0.0
H74 H 0.9472 0.56676 0.52691 0.0
H75 H 0.98885 0.50365 0.42356 0.0
C76 C 1.00093 0.52407 0.41961 0.0
C77 C 0.99159 0.57999 0.47676 0.0
C78 C 0.97789 0.58507 0.50063 0.0
C79 C 0.98556 0.55336 0.46081 0.0
C80 C 0.96511 0.53142 0.46872 0.0
C81 C 0.95127 0.53615 0.4927 0.0
C82 C 0.95785 0.56299 0.50847 0.0
N83 N 1.00061 0.55002 0.43706 0.0
H84 H 0.79951 0.83867 0.76102 0.0
H85 H 0.83375 0.77979 0.81431 0.0
H86 H 0.75829 0.82452 0.83423 0.0
H87 H 0.87281 0.78242 0.7922 0.0
C88 C 0.86839 0.79142 0.77324 0.0
C89 C 0.79848 0.82844 0.77962 0.0
C90 C 0.77614 0.83427 0.7968 0.0
C91 C 0.81981 0.8096 0.78598 0.0
C92 C 0.81827 0.7954 0.80956 0.0
C93 C 0.79614 0.80057 0.82709 0.0
C94 C 0.77499 0.81995 0.82052 0.0
N95 N 0.84237 0.8057 0.76809 0.0
H96 H 0.29373 0.3257 0.27244 0.0
H97 H 0.33004 0.25419 0.30858 0.0
H98 H 0.25452 0.29058 0.34008 0.0
H99 H 0.37283 0.2765 0.29443 0.0
C100 C 0.36549 0.28227 0.27469 0.0
C101 C 0.29299 0.31012 0.28746 0.0
C102 C 0.27121 0.31058 0.30598 0.0
C103 C 0.31473 0.29054 0.2887 0.0
C104 C 0.31398 0.27016 0.30799 0.0
C105 C 0.29239 0.27017 0.32664 0.0
C106 C 0.27132 0.2907 0.32581 0.0
N107 N 0.33682 0.29173 0.27007 0.0
H108 H 0.45599 0.98884 0.49227 0.0
H109 H 0.51057 0.94955 0.54936 0.0
H110 H 0.47133 0.02833 0.57357 0.0
H111 H 0.53162 0.93371 0.51219 0.0
C112 C 0.51252 0.92766 0.4979 0.0
C113 C 0.46624 0.98912 0.51245 0.0
C114 C 0.46171 0.01158 0.53208 0.0
C115 C 0.48407 0.967 0.51839 0.0
C116 C 0.49695 0.96677 0.54459 0.0
C117 C 0.49253 0.98871 0.56476 0.0
C118 C 0.47479 0.01114 0.55832 0.0
N119 N 0.48818 0.94498 0.49773 0.0
H120 H 0.21164 0.28007 0.67896 0.0
H121 H 0.24006 0.35875 0.73008 0.0
H122 H 0.28932 0.33458 0.66309 0.0
H123 H 0.19233 0.35671 0.73857 0.0
C124 C 0.18548 0.33344 0.7384 0.0
C125 C 0.22691 0.29965 0.68379 0.0
C126 C 0.25135 0.30478 0.66863 0.0
C127 C 0.22217 0.31937 0.70549 0.0
C128 C 0.24253 0.34427 0.71244 0.0
C129 C 0.26693 0.35 0.69732 0.0
C130 C 0.27102 0.33015 0.67533 0.0
N131 N 0.19747 0.31281 0.72055 0.0
H132 H 0.75411 0.19228 0.69371 0.0
H133 H 0.83552 0.24717 0.71536 0.0
H134 H 0.81364 0.17235 0.75858 0.0
H135 H 0.83223 0.25064 0.66987 0.0
C136 C 0.80894 0.25373 0.66608 0.0
C137 C 0.77457 0.19742 0.70638 0.0
C138 C 0.78157 0.1796 0.72679 0.0
C139 C 0.79444 0.22112 0.70143 0.0
C140 C 0.82081 0.22795 0.71809 0.0
C141 C 0.82782 0.21067 0.73897 0.0
C142 C 0.80823 0.18623 0.7429 0.0
N143 N 0.78729 0.23782 0.67974 0.0
H144 H 0.52639 0.57641 0.57428 0.0
H145 H 0.58856 0.5417 0.52303 0.0
H146 H 0.58727 0.51759 0.60353 0.0
H147 H 0.5747 0.57168 0.49494 0.0
C148 C 0.5575 0.58433 0.50227 0.0
C149 C 0.54456 0.56306 0.57154 0.0
C150 C 0.55505 0.54708 0.5923 0.0
C151 C 0.55697 0.56205 0.54686 0.0
C152 C 0.57958 0.54378 0.54232 0.0
C153 C 0.5904 0.52732 0.56258 0.0
C154 C 0.57824 0.52939 0.58761 0.0
N155 N 0.54617 0.58014 0.52748 0.0
H156 H 0.52067 0.47791 0.95195 0.0
H157 H 0.59616 0.51541 0.00442 0.0
H158 H 0.56736 0.56031 0.93763 0.0
H159 H 0.59656 0.4716 0.01805 0.0
C160 C 0.57436 0.46039 0.01475 0.0
C161 C 0.53842 0.49528 0.95731 0.0
C162 C 0.54139 0.51943 0.94195 0.0
C163 C 0.55816 0.49324 0.97968 0.0
C164 C 0.58102 0.51594 0.98693 0.0
C165 C 0.5841 0.54023 0.97191 0.0
C166 C 0.56427 0.54189 0.94959 0.0
N167 N 0.55384 0.46844 0.9946 0.0
H168 H 0.71385 0.25684 0.32099 0.0
H169 H 0.74798 0.19318 0.26709 0.0
H170 H 0.77969 0.2031 0.35028 0.0
H171 H 0.70159 0.19395 0.24573 0.0
C172 C 0.69759 0.21692 0.24797 0.0
C173 C 0.72877 0.24007 0.31763 0.0
C174 C 0.74677 0.23185 0.33908 0.0
C175 C 0.72877 0.22609 0.29183 0.0
C176 C 0.74752 0.20387 0.28707 0.0
C177 C 0.76571 0.19526 0.3082 0.0
C178 C 0.76519 0.20933 0.33412 0.0
N179 N 0.70953 0.23503 0.27123 0.0
H180 H 0.52701 0.09165 0.96266 0.0
H181 H 0.47239 0.00954 0.9533 0.0
H182 H 0.46529 0.07129 0.02113 0.0
H183 H 0.48081 0.01265 0.90909 0.0
C184 C 0.50375 0.02195 0.9101 0.0
C185 C 0.51012 0.07685 0.96999 0.0
C186 C 0.49721 0.08491 0.99374 0.0
C187 C 0.50097 0.05009 0.95504 0.0
C188 C 0.4789 0.03076 0.96418 0.0
C189 C 0.466 0.03828 0.98811 0.0
C190 C 0.47523 0.0654 0.0027 0.0
N191 N 0.51529 0.04303 0.93147 0.0
C192 C 0.21916 0.9185 0.00887 0.0
O193 O 0.21992 0.91074 0.98318 0.0
O194 O 0.26409 0.85755 0.98576 0.0
Zn195 Zn 0.27425 0.88977 0.01584 0.0
O196 O 0.30644 0.91769 0.00412 0.0
C197 C 0.27152 0.85175 0.05723 0.0
O198 O 0.24536 0.84426 0.04435 0.0
O199 O 0.23936 0.91163 0.0253 0.0
C200 C 0.32806 0.92962 0.01994 0.0
O201 O 0.32937 0.92414 0.04521 0.0
C202 C 0.28008 0.83622 0.98493 0.0
O203 O 0.30163 0.83578 0.00369 0.0
O204 O 0.28868 0.87175 0.04883 0.0
C205 C 0.16073 0.43092 0.2738 0.0
O206 O 0.1581 0.44854 0.29532 0.0
O207 O 0.10067 0.47588 0.27989 0.0
Zn208 Zn 0.12865 0.47407 0.25019 0.0
O209 O 0.1611 0.50774 0.25495 0.0
C210 C 0.08152 0.48588 0.21085 0.0
O211 O 0.06878 0.49546 0.23212 0.0
O212 O 0.14907 0.43689 0.25138 0.0
C213 C 0.15681 0.53292 0.24767 0.0
O214 O 0.13025 0.53759 0.23791 0.0
C215 C 0.09945 0.49875 0.29573 0.0
O216 O 0.11688 0.5225 0.29293 0.0
O217 O 0.10635 0.4753 0.2139 0.0
C218 C 0.8292 0.62593 0.98745 0.0
O219 O 0.80685 0.61717 0.96967 0.0
O220 O 0.79497 0.69679 0.96143 0.0
Zn221 Zn 0.79374 0.67363 0.99441 0.0
O222 O 0.75814 0.6434 0.99013 0.0
C223 C 0.79094 0.72826 0.02794 0.0
O224 O 0.79538 0.74063 0.00576 0.0
O225 O 0.82982 0.65114 1.0002 0.0
C226 C 0.73306 0.64783 0.99854 0.0
O227 O 0.72911 0.67366 0.01028 0.0
C228 C 0.77082 0.70275 0.94957 0.0
O229 O 0.74559 0.69324 0.95852 0.0
O230 O 0.79004 0.70053 0.02769 0.0
C231 C 0.87411 0.07623 0.26254 0.0
O232 O 0.86912 0.0522 0.27455 0.0
O233 O 0.94872 0.04149 0.27051 0.0
Zn234 Zn 0.91832 0.0432 0.23944 0.0
O235 O 0.89058 0.00598 0.23417 0.0
C236 C 0.96301 0.03575 0.20169 0.0
O237 O 0.9753 0.02193 0.22075 0.0
O238 O 0.89437 0.07768 0.24635 0.0
C239 C 0.87474 1.00072 0.2121 0.0
O240 O 0.87705 0.01966 0.19403 0.0
C241 C 0.94169 0.02969 0.29144 0.0
O242 O 0.91426 0.01843 0.29271 0.0
O243 O 0.93897 0.04707 0.20546 0.0
C244 C 0.34217 0.12484 0.50338 0.0
O245 O 0.34503 0.13569 0.48025 0.0
O246 O 0.29685 0.18135 0.47616 0.0
Zn247 Zn 0.28742 0.15526 0.50549 0.0
O248 O 0.25017 0.12849 0.49385 0.0
C249 C 0.2551 0.19341 0.53816 0.0
O250 O 0.23513 0.18741 0.51775 0.0
O251 O 0.32026 0.13066 0.51661 0.0
C252 C 0.23663 0.11566 0.51152 0.0
O253 O 0.24771 0.11975 0.53657 0.0
C254 C 0.2916 0.17316 0.45133 0.0
O255 O 0.28177 0.14571 0.44386 0.0
O256 O 0.27949 0.18194 0.53756 0.0
C257 C 0.38707 0.57481 0.78208 0.0
O258 O 0.39219 0.55849 0.8018 0.0
O259 O 0.44437 0.52948 0.79159 0.0
Zn260 Zn 0.42263 0.53438 0.75581 0.0
O261 O 0.3939 0.49839 0.74394 0.0
C262 C 0.4752 0.52684 0.72734 0.0
O263 O 0.48082 0.5096 0.74621 0.0
O264 O 0.39836 0.56909 0.76 0.0
C265 C 0.4011 0.47617 0.72993 0.0
O266 O 0.42824 0.47614 0.72259 0.0
C267 C 0.44802 0.5045 0.79971 0.0
O268 O 0.43771 0.48069 0.78436 0.0
O269 O 0.45203 0.54043 0.72766 0.0
C270 C 0.72343 0.43893 0.51326 0.0
O271 O 0.7432 0.44688 0.49676 0.0
O272 O 0.74353 0.36263 0.4781 0.0
Zn273 Zn 0.75613 0.38828 0.51236 0.0
O274 O 0.79209 0.41373 0.50371 0.0
C275 C 0.7917 0.35365 0.54465 0.0
O276 O 0.81061 0.35899 0.52665 0.0
O277 O 0.72405 0.41407 0.52252 0.0
C278 C 0.81188 0.42741 0.52046 0.0
O279 O 0.80976 0.42548 0.54621 0.0
C280 C 0.74459 0.33501 0.47526 0.0
O281 O 0.75168 0.32119 0.49625 0.0
O282 O 0.76665 0.36387 0.54266 0.0
C283 C 0.6842 0.9624 0.74533 0.0
O284 O 0.69495 0.98624 0.7353 0.0
O285 O 0.60716 0.99792 0.77611 0.0
Zn286 Zn 0.63203 0.99394 0.74472 0.0
O287 O 0.65967 0.03128 0.74437 0.0
C288 C 0.5928 0.01165 0.7039 0.0
O289 O 0.59798 0.03582 0.72005 0.0
O290 O 0.65691 0.95972 0.74984 0.0
C291 C 0.65493 0.05647 0.75476 0.0
O292 O 0.63088 0.05942 0.76737 0.0
C293 C 0.62002 0.00415 0.79946 0.0
O294 O 0.64913 0.00777 0.80235 0.0
O295 O 0.60485 0.98894 0.71012 0.0
C296 C 0.02745 0.22623 0.90763 0.0
O297 O 0.01208 0.2448 0.92066 0.0
O298 O 0.98501 0.25598 0.84334 0.0
Zn299 Zn 0.02322 0.26641 0.86626 0.0
O300 O 0.01934 0.30024 0.89359 0.0
C301 C 0.06446 0.25956 0.82615 0.0
O302 O 0.05348 0.23201 0.82533 0.0
O303 O 0.03457 0.23106 0.88428 0.0
C304 C 0.04141 0.30948 0.91006 0.0
O305 O 0.06589 0.29642 0.9089 0.0
C306 C 0.96079 0.24838 0.85318 0.0
O307 O 0.9605 0.24754 0.87923 0.0
O308 O 0.05491 0.27849 0.84242 0.0
C309 C 0.52564 0.70568 0.40232 0.0
O310 O 0.50795 0.72411 0.41228 0.0
O311 O 0.48681 0.73298 0.33692 0.0
Zn312 Zn 0.52537 0.74387 0.35963 0.0
O313 O 0.52141 0.77862 0.38587 0.0
C314 C 0.56045 0.74482 0.31296 0.0
O315 O 0.53937 0.72532 0.30156 0.0
O316 O 0.53585 0.70964 0.37985 0.0
C317 C 0.54348 0.78796 0.4023 0.0
O318 O 0.56775 0.77451 0.4016 0.0
C319 C 0.46242 0.73207 0.34792 0.0
O320 O 0.46286 0.73862 0.37391 0.0
O321 O 0.55871 0.75525 0.33698 0.0
C322 C 0.02805 0.81534 0.59088 0.0
O323 O 0.00988 0.79396 0.57817 0.0
O324 O 0.99853 0.78165 0.65923 0.0
Zn325 Zn 0.02939 0.77584 0.63279 0.0
O326 O 0.01585 0.74166 0.60561 0.0
C327 C 0.06537 0.7477 0.66983 0.0
O328 O 0.03924 0.73656 0.67579 0.0
O329 O 0.03872 0.81255 0.6145 0.0
C330 C 0.98903 0.73109 0.60031 0.0
O331 O 0.96806 0.74313 0.61268 0.0
C332 C 0.97719 0.79718 0.6552 0.0
O333 O 0.97507 0.81042 0.63309 0.0
O334 O 0.0668 0.7658 0.65211 0.0
C335 C 0.51154 0.32276 0.08803 0.0
O336 O 0.48845 0.30388 0.08024 0.0
O337 O 0.48907 0.28743 0.15442 0.0
Zn338 Zn 0.51936 0.28192 0.12748 0.0
O339 O 0.50412 0.24834 0.10028 0.0
C340 C 0.55721 0.24456 0.15266 0.0
O341 O 0.53406 0.22559 0.14529 0.0
O342 O 0.52823 0.31831 0.10839 0.0
C343 C 0.52196 0.2374 0.08479 0.0
O344 O 0.54963 0.24898 0.08639 0.0
C345 C 0.46159 0.28779 0.14781 0.0
O346 O 0.45228 0.28562 0.12231 0.0
O347 O 0.55644 0.27103 0.14728 0.0
H348 H 0.27648 0.72622 0.90032 0.0
H349 H 0.23485 0.78505 0.85029 0.0
H350 H 0.23775 0.82227 0.88814 0.0
H351 H 0.25312 0.83876 0.93526 0.0
H352 H 0.2978 0.7813 0.98446 0.0
H353 H 0.29295 0.74311 0.94711 0.0
C354 C 0.26834 0.74728 0.89758 0.0
C355 C 0.2553 0.75264 0.87245 0.0
C356 C 0.27059 0.7689 0.91932 0.0
C357 C 0.2445 0.78001 0.86948 0.0
C358 C 0.2463 0.80145 0.89109 0.0
C359 C 0.26157 0.81779 0.93783 0.0
C360 C 0.27569 0.81282 0.96258 0.0
C361 C 0.25929 0.79615 0.9161 0.0
C362 C 0.28688 0.78568 0.96556 0.0
C363 C 0.28413 0.76383 0.94421 0.0
H364 H 0.00948 0.47818 0.38445 0.0
H365 H 0.03475 0.57083 0.40348 0.0
H366 H 0.06693 0.57096 0.36679 0.0
H367 H 0.08873 0.54487 0.32982 0.0
H368 H 0.06383 0.45226 0.31015 0.0
H369 H 0.03074 0.45206 0.34644 0.0
C370 C 0.022 0.49836 0.38044 0.0
C371 C 0.01978 0.52435 0.39673 0.0
C372 C 0.0406 0.49833 0.35923 0.0
C373 C 0.03606 0.55043 0.39136 0.0
C374 C 0.05452 0.55057 0.37034 0.0
C375 C 0.07608 0.52461 0.33341 0.0
C376 C 0.07887 0.49862 0.31732 0.0
C377 C 0.0571 0.52464 0.35426 0.0
C378 C 0.06214 0.47261 0.32223 0.0
C379 C 0.04321 0.47246 0.343 0.0
H380 H 0.74855 0.77276 0.84804 0.0
H381 H 0.84304 0.79442 0.86246 0.0
H382 H 0.84379 0.76597 0.90129 0.0
H383 H 0.8179 0.73365 0.93054 0.0
H384 H 0.72324 0.71248 0.9165 0.0
H385 H 0.72232 0.74196 0.87841 0.0
C386 C 0.76921 0.77157 0.85991 0.0
C387 C 0.7957 0.78552 0.8522 0.0
C388 C 0.76954 0.75503 0.88225 0.0
C389 C 0.82237 0.78355 0.86771 0.0
C390 C 0.82283 0.76731 0.88997 0.0
C391 C 0.79708 0.73544 0.91913 0.0
C392 C 0.77074 0.72069 0.92635 0.0
C393 C 0.79662 0.75263 0.89725 0.0
C394 C 0.74391 0.72352 0.91143 0.0
C395 C 0.74332 0.74042 0.8896 0.0
H396 H 0.05152 0.02302 0.37442 0.0
H397 H 0.98096 1.00002 0.42427 0.0
H398 H 0.94418 0.00568 0.38787 0.0
H399 H 0.93191 0.01574 0.34159 0.0
H400 H 1.002 0.04032 0.29184 0.0
H401 H 0.03905 0.03589 0.32863 0.0
C402 C 0.02811 0.01966 0.37744 0.0
C403 C 0.01908 0.01075 0.40197 0.0
C404 C 0.00696 0.02316 0.35644 0.0
C405 C 0.98859 0.00627 0.40544 0.0
C406 C 0.9675 0.00965 0.38467 0.0
C407 C 0.95529 0.02017 0.33877 0.0
C408 C 0.96416 0.02813 0.31395 0.0
C409 C 0.97642 0.01773 0.36 0.0
C410 C 0.99455 0.03411 0.31075 0.0
C411 C 0.01577 0.03155 0.33177 0.0
H412 H 0.21136 0.27938 0.62865 0.0
H413 H 0.30329 0.28274 0.65788 0.0
H414 H 0.31249 0.24821 0.62037 0.0
H415 H 0.29453 0.21739 0.57914 0.0
H416 H 0.2028 0.21479 0.54927 0.0
H417 H 0.19336 0.24849 0.58725 0.0
C418 C 0.23333 0.27235 0.62687 0.0
C419 C 0.25661 0.28356 0.64596 0.0
C420 C 0.23851 0.25265 0.60516 0.0
C421 C 0.28508 0.2746 0.64326 0.0
C422 C 0.29033 0.25479 0.6219 0.0
C423 C 0.27244 0.22411 0.58097 0.0
C424 C 0.24941 0.21354 0.5614 0.0
C425 C 0.26723 0.24373 0.6027 0.0
C426 C 0.22096 0.22263 0.564 0.0
C427 C 0.21552 0.24189 0.58574 0.0
H428 H 0.5467 0.50377 0.62612 0.0
H429 H 0.5328 0.59448 0.61825 0.0
H430 H 0.5065 0.59605 0.65874 0.0
H431 H 0.48605 0.57135 0.69599 0.0
H432 H 0.50455 0.48254 0.70639 0.0
H433 H 0.53116 0.48092 0.6658 0.0
C434 C 0.53855 0.52414 0.63342 0.0
C435 C 0.5414 0.54875 0.61856 0.0
C436 C 0.52424 0.5253 0.65734 0.0
C437 C 0.53021 0.57478 0.62854 0.0
C438 C 0.51535 0.57586 0.65195 0.0
C439 C 0.49609 0.55175 0.6894 0.0
C440 C 0.49321 0.52706 0.70401 0.0
C441 C 0.5119 0.55115 0.66633 0.0
C442 C 0.50658 0.50188 0.69551 0.0
C443 C 0.52169 0.50089 0.67224 0.0
H444 H 0.84487 0.27844 0.63236 0.0
H445 H 0.7538 0.27036 0.65196 0.0
H446 H 0.74056 0.30106 0.61637 0.0
H447 H 0.75493 0.32997 0.57944 0.0
H448 H 0.84595 0.33672 0.55927 0.0
H449 H 0.85912 0.3068 0.59527 0.0
C450 C 0.82214 0.28344 0.62879 0.0
C451 C 0.80037 0.27218 0.64467 0.0
C452 C 0.81468 0.30085 0.6082 0.0
C453 C 0.77096 0.2787 0.63992 0.0
C454 C 0.76339 0.29629 0.6196 0.0
C455 C 0.77766 0.32496 0.58297 0.0
C456 C 0.79943 0.33562 0.56669 0.0
C457 C 0.78507 0.30745 0.60358 0.0
C458 C 0.82874 0.32875 0.57143 0.0
C459 C 0.83632 0.31166 0.59205 0.0
H460 H 0.52011 0.03517 0.59743 0.0
H461 H 0.49922 0.94136 0.59353 0.0
H462 H 0.52895 0.93982 0.63566 0.0
H463 H 0.5624 0.96497 0.67316 0.0
H464 H 0.58086 0.05909 0.67798 0.0
H465 H 0.55048 0.0606 0.63627 0.0
C466 C 0.52157 0.01445 0.60601 0.0
C467 C 0.50767 0.98842 0.59206 0.0
C468 C 0.53853 0.0137 0.63042 0.0
C469 C 0.51015 0.96172 0.60348 0.0
C470 C 0.5271 0.96079 0.62766 0.0
C471 C 0.55976 0.98576 0.66502 0.0
C472 C 0.57405 0.01182 0.67858 0.0
C473 C 0.54178 0.98659 0.64113 0.0
C474 C 0.57011 0.03867 0.66797 0.0
C475 C 0.55272 0.03959 0.64408 0.0
H476 H 0.83434 0.21107 0.79322 0.0
H477 H 0.88328 0.22758 0.72465 0.0
H478 H 0.9286 0.24094 0.75393 0.0
H479 H 0.9543 0.24778 0.79892 0.0
H480 H 0.90546 0.23088 0.86754 0.0
H481 H 0.86018 0.21751 0.83826 0.0
C482 C 0.85499 0.2173 0.78467 0.0
C483 C 0.85543 0.21831 0.7568 0.0
C484 C 0.88097 0.22488 0.80161 0.0
C485 C 0.88227 0.22692 0.74606 0.0
C486 C 0.90822 0.23443 0.76278 0.0
C487 C 0.93377 0.24118 0.80751 0.0
C488 C 0.93332 0.24036 0.83541 0.0
C489 C 0.90781 0.23353 0.79058 0.0
C490 C 0.90648 0.23174 0.84615 0.0
C491 C 0.88055 0.22407 0.82942 0.0
H492 H 0.55711 0.89365 0.49255 0.0
H493 H 0.46947 0.90481 0.45856 0.0
H494 H 0.47134 0.86244 0.42609 0.0
H495 H 0.49793 0.82215 0.4074 0.0
H496 H 0.5858 0.81134 0.44139 0.0
H497 H 0.58375 0.85358 0.47378 0.0
C498 C 0.53846 0.88677 0.47798 0.0
C499 C 0.51327 0.90229 0.4779 0.0
C500 C 0.53971 0.86245 0.45939 0.0
C501 C 0.48918 0.89325 0.459 0.0
C502 C 0.49022 0.869 0.44044 0.0
C503 C 0.51663 0.82902 0.4219 0.0
C504 C 0.54197 0.81357 0.42194 0.0
C505 C 0.51537 0.85342 0.44046 0.0
C506 C 0.56601 0.82281 0.44086 0.0
C507 C 0.56489 0.84698 0.45942 0.0
H508 H 0.16085 0.2777 0.74297 0.0
H509 H 0.15907 0.36795 0.77379 0.0
H510 H 0.12156 0.35319 0.80391 0.0
H511 H 0.0894 0.31473 0.82138 0.0
H512 H 0.09096 0.22444 0.79034 0.0
H513 H 0.12851 0.23918 0.76039 0.0
C514 C 0.15225 0.29414 0.75625 0.0
C515 C 0.16264 0.3239 0.7562 0.0
C516 C 0.1307 0.2855 0.77346 0.0
C517 C 0.1513 0.34492 0.77352 0.0
C518 C 0.12991 0.3365 0.79072 0.0
C519 C 0.09795 0.29824 0.80809 0.0
C520 C 0.08737 0.26851 0.80814 0.0
C521 C 0.11946 0.30686 0.79087 0.0
C522 C 0.09869 0.24747 0.79073 0.0
C523 C 0.12017 0.25587 0.77358 0.0
H524 H 0.5762 0.59855 0.45487 0.0
H525 H 0.51583 0.62213 0.51379 0.0
H526 H 0.50054 0.66136 0.48779 0.0
H527 H 0.50496 0.68963 0.44885 0.0
H528 H 0.5652 0.66626 0.38968 0.0
H529 H 0.57983 0.62631 0.4152 0.0
C530 C 0.55962 0.61225 0.4619 0.0
C531 C 0.54725 0.60749 0.48619 0.0
C532 C 0.55094 0.63485 0.44686 0.0
C533 C 0.52577 0.62533 0.49516 0.0
C534 C 0.51701 0.64781 0.48031 0.0
C535 C 0.52127 0.6758 0.44148 0.0
C536 C 0.53401 0.68102 0.41742 0.0
C537 C 0.52957 0.65288 0.45623 0.0
C538 C 0.55503 0.66276 0.40814 0.0
C539 C 0.56343 0.63991 0.42274 0.0
H540 H 0.86911 0.81549 0.72526 0.0
H541 H 0.9184 0.76403 0.77714 0.0
H542 H 0.9566 0.76127 0.74534 0.0
H543 H 0.97593 0.77349 0.70293 0.0
H544 H 0.92692 0.82545 0.65121 0.0
H545 H 0.88871 0.82806 0.6829 0.0
C546 C 0.88817 0.80363 0.72959 0.0
C547 C 0.89096 0.78989 0.75348 0.0
C548 C 0.91012 0.80228 0.7113 0.0
C549 C 0.91583 0.77473 0.75883 0.0
C550 C 0.93765 0.77317 0.74069 0.0
C551 C 0.95691 0.78543 0.69857 0.0
C552 C 0.95433 0.79924 0.6747 0.0
C553 C 0.93504 0.78688 0.71688 0.0
C554 C 0.92953 0.81464 0.66943 0.0
C555 C 0.90762 0.81612 0.68753 0.0
H556 H 0.07771 0.93497 0.54981 0.0
H557 H 0.02442 0.89798 0.47837 0.0
H558 H 0.0092 0.85452 0.50058 0.0
H559 H 0.01111 0.82692 0.54021 0.0
H560 H 0.06445 0.86376 0.61178 0.0
H561 H 0.07945 0.90735 0.58964 0.0
C562 C 0.06278 0.91734 0.53916 0.0
C563 C 0.05222 0.91967 0.51257 0.0
C564 C 0.05408 0.89241 0.55207 0.0
C565 C 0.03287 0.89676 0.49889 0.0
C566 C 0.02414 0.87187 0.51158 0.0
C567 C 0.02597 0.84449 0.55102 0.0
C568 C 0.03663 0.84203 0.57762 0.0
C569 C 0.03459 0.86947 0.53816 0.0
C570 C 0.0559 0.86504 0.59128 0.0
C571 C 0.06453 0.88999 0.57864 0.0
H572 H 0.19254 0.7216 0.71536 0.0
H573 H 0.14105 0.68711 0.77646 0.0
H574 H 0.09536 0.69792 0.75224 0.0
H575 H 0.07032 0.71933 0.71487 0.0
H576 H 0.12197 0.75675 0.6551 0.0
H577 H 0.16729 0.74284 0.67763 0.0
C578 C 0.17123 0.71619 0.72312 0.0
C579 C 0.17003 0.70361 0.74754 0.0
C580 C 0.14515 0.72328 0.70949 0.0
C581 C 0.14244 0.69693 0.75769 0.0
C582 C 0.11635 0.70314 0.74389 0.0
C583 C 0.09147 0.72433 0.7067 0.0
C584 C 0.09276 0.73908 0.68338 0.0
C585 C 0.11748 0.7167 0.71998 0.0
C586 C 0.12038 0.74556 0.67313 0.0
C587 C 0.14631 0.73753 0.68595 0.0
H588 H 0.93897 0.61788 0.52507 0.0
H589 H 0.03209 0.61556 0.51409 0.0
H590 H 0.04356 0.66119 0.54306 0.0
H591 H 0.02737 0.70063 0.57273 0.0
H592 H 0.93435 0.70242 0.58467 0.0
H593 H 0.92266 0.65789 0.55426 0.0
C594 C 0.96179 0.62728 0.52916 0.0
C595 C 0.98465 0.61329 0.51753 0.0
C596 C 0.96825 0.65332 0.54605 0.0
C597 C 0.01406 0.62604 0.52259 0.0
C598 C 0.02065 0.65202 0.53928 0.0
C599 C 0.00451 0.69138 0.56864 0.0
C600 C 0.98179 0.7048 0.58106 0.0
C601 C 0.99795 0.66571 0.55126 0.0
C602 C 0.95229 0.69251 0.57545 0.0
C603 C 0.94557 0.66703 0.55806 0.0
H604 H 0.78795 0.88907 0.16876 0.0
H605 H 0.80238 0.86928 0.25074 0.0
H606 H 0.83447 0.91517 0.26126 0.0
H607 H 0.85943 0.96034 0.24675 0.0
H608 H 0.84438 0.97986 0.16463 0.0
H609 H 0.81176 0.93455 0.15456 0.0
C610 C 0.79825 0.89475 0.1889 0.0
C611 C 0.79297 0.87575 0.2089 0.0
C612 C 0.81664 0.92107 0.19476 0.0
C613 C 0.80598 0.88365 0.23504 0.0
C614 C 0.82444 0.90979 0.24102 0.0
C615 C 0.849 0.95468 0.22666 0.0
C616 C 0.85448 0.97344 0.20646 0.0
C617 C 0.83008 0.92859 0.22099 0.0
C618 C 0.8406 0.96586 0.18058 0.0
C619 C 0.82194 0.93992 0.17476 0.0
H620 H 0.80323 0.18841 0.26873 0.0
H621 H 0.77104 0.14822 0.33695 0.0
H622 H 0.80179 0.10796 0.32889 0.0
H623 H 0.83727 0.08389 0.30219 0.0
H624 H 0.87059 0.12446 0.23453 0.0
H625 H 0.83991 0.16481 0.24258 0.0
C626 C 0.80291 0.17074 0.28173 0.0
C627 C 0.78486 0.17121 0.30335 0.0
C628 C 0.82081 0.14776 0.27708 0.0
C629 C 0.78492 0.14843 0.32029 0.0
C630 C 0.8024 0.12536 0.31563 0.0
C631 C 0.83783 0.10154 0.28917 0.0
C632 C 0.8561 0.10107 0.26771 0.0
C633 C 0.82035 0.12477 0.29405 0.0
C634 C 0.85675 0.12427 0.2512 0.0
C635 C 0.83916 0.14734 0.25576 0.0
H636 H 0.41801 0.00829 0.95957 0.0
H637 H 0.46229 0.02276 0.03906 0.0
H638 H 0.4235 0.99056 0.05596 0.0
H639 H 0.37685 0.9586 0.04823 0.0
H640 H 0.33246 0.94417 0.96868 0.0
H641 H 0.37152 0.97588 0.95174 0.0
C642 C 0.41928 0.00414 0.98053 0.0
C643 C 0.44292 0.0179 0.99804 0.0
C644 C 0.39686 0.98567 0.99013 0.0
C645 C 0.44411 0.01266 0.02524 0.0
C646 C 0.42201 0.99418 0.03489 0.0
C647 C 0.37569 0.96238 0.02718 0.0
C648 C 0.35172 0.94903 0.0098 0.0
C649 C 0.39821 0.98068 0.01755 0.0
C650 C 0.35062 0.95418 0.98256 0.0
C651 C 0.37297 0.9723 0.97282 0.0
H652 H 0.24029 0.32562 0.26165 0.0
H653 H 0.25207 0.3443 0.34755 0.0
H654 H 0.21783 0.38217 0.34528 0.0
H655 H 0.18658 0.41166 0.31869 0.0
H656 H 0.17532 0.39338 0.23267 0.0
H657 H 0.20746 0.35381 0.23521 0.0
C658 C 0.23541 0.33803 0.27988 0.0
C659 C 0.24889 0.33225 0.30472 0.0
C660 C 0.2159 0.35994 0.27839 0.0
C661 C 0.24186 0.34814 0.32819 0.0
C662 C 0.22243 0.36994 0.32689 0.0
C663 C 0.19101 0.39895 0.30048 0.0
C664 C 0.17866 0.40566 0.2755 0.0
C665 C 0.2096 0.37626 0.30207 0.0
C666 C 0.18454 0.38879 0.25216 0.0
C667 C 0.20298 0.36616 0.25358 0.0
H668 H 0.11481 0.03626 0.50033 0.0
H669 H 0.12447 0.0445 0.4164 0.0
H670 H 0.17083 0.07585 0.42776 0.0
H671 H 0.2093 0.09994 0.46155 0.0
H672 H 0.20012 0.08983 0.5453 0.0
H673 H 0.15323 0.05969 0.53387 0.0
C674 C 0.12717 0.04463 0.48446 0.0
C675 C 0.11614 0.03788 0.45753 0.0
C676 C 0.15403 0.06219 0.49108 0.0
C677 C 0.1322 0.04955 0.43731 0.0
C678 C 0.15885 0.06732 0.44377 0.0
C679 C 0.19705 0.09114 0.4773 0.0
C680 C 0.2083 0.09714 0.50425 0.0
C681 C 0.17006 0.07366 0.4706 0.0
C682 C 0.1921 0.08553 0.52439 0.0
C683 C 0.16522 0.06831 0.51789 0.0
H684 H 0.72439 0.17848 0.73889 0.0
H685 H 0.79403 0.12292 0.72456 0.0
H686 H 0.76093 0.07964 0.73176 0.0
H687 H 0.71213 0.05774 0.74208 0.0
H688 H 0.6433 0.11371 0.75903 0.0
H689 H 0.67608 0.15671 0.75105 0.0
C690 C 0.73214 0.15682 0.73728 0.0
C691 C 0.76137 0.15366 0.73106 0.0
C692 C 0.71321 0.13222 0.74203 0.0
C693 C 0.77152 0.12569 0.72935 0.0
C694 C 0.75264 0.10102 0.73344 0.0
C695 C 0.70433 0.07936 0.74404 0.0
C696 C 0.6753 0.08252 0.75103 0.0
C697 C 0.72344 0.10403 0.73981 0.0
C698 C 0.66559 0.11069 0.75377 0.0
C699 C 0.68428 0.13529 0.74911 0.0
H700 H 0.41749 0.03421 0.55893 0.0
H701 H 0.46522 0.04244 0.48833 0.0
H702 H 0.4332 0.07875 0.47364 0.0
H703 H 0.3903 0.10663 0.47974 0.0
H704 H 0.34201 0.09824 0.55008 0.0
H705 H 0.37562 0.06386 0.56598 0.0
C706 C 0.42109 0.04426 0.54052 0.0
C707 C 0.44357 0.03545 0.52466 0.0
C708 C 0.40237 0.06502 0.53203 0.0
C709 C 0.4478 0.04852 0.50073 0.0
C710 C 0.42954 0.06935 0.49233 0.0
C711 C 0.38717 0.09742 0.49862 0.0
C712 C 0.36352 0.10498 0.51357 0.0
C713 C 0.40649 0.07747 0.50762 0.0
C714 C 0.35994 0.0928 0.53805 0.0
C715 C 0.37917 0.07309 0.5472 0.0
H716 H 0.63925 0.53857 0.53526 0.0
H717 H 0.59497 0.47197 0.57794 0.0
H718 H 0.63258 0.43903 0.56722 0.0
H719 H 0.6771 0.42845 0.54418 0.0
H720 H 0.71977 0.49477 0.50006 0.0
H721 H 0.68339 0.52817 0.51245 0.0
C722 C 0.63763 0.51677 0.54206 0.0
C723 C 0.61416 0.50778 0.55728 0.0
C724 C 0.65896 0.49774 0.53538 0.0
C725 C 0.61292 0.47964 0.56643 0.0
C726 C 0.6343 0.46068 0.56012 0.0
C727 C 0.67846 0.45022 0.5373 0.0
C728 C 0.70114 0.45898 0.52112 0.0
C729 C 0.65729 0.46939 0.54439 0.0
C730 C 0.70254 0.48731 0.51242 0.0
C731 C 0.68174 0.50651 0.51954 0.0
H732 H 0.74174 0.28969 0.35316 0.0
H733 H 0.75003 0.20734 0.38703 0.0
H734 H 0.74928 0.23176 0.432 0.0
H735 H 0.74678 0.27661 0.46177 0.0
H736 H 0.73636 0.35837 0.42745 0.0
H737 H 0.73638 0.33373 0.38256 0.0
C738 C 0.74292 0.2769 0.37028 0.0
C739 C 0.74607 0.24667 0.36656 0.0
C740 C 0.74184 0.29092 0.39606 0.0
C741 C 0.74817 0.23072 0.3892 0.0
C742 C 0.74745 0.24461 0.41496 0.0
C743 C 0.74427 0.28902 0.44448 0.0
C744 C 0.74169 0.31934 0.44805 0.0
C745 C 0.74439 0.27473 0.41863 0.0
C746 C 0.73838 0.33502 0.42536 0.0
C747 C 0.73852 0.32097 0.39964 0.0
H748 H 0.56313 0.03509 0.90787 0.0
H749 H 0.48451 0.99407 0.8614 0.0
H750 H 0.51349 0.98471 0.82281 0.0
H751 H 0.56103 0.98918 0.80218 0.0
H752 H 0.63976 0.02903 0.84944 0.0
H753 H 0.61082 0.03786 0.88789 0.0
C754 C 0.55231 0.02413 0.8893 0.0
C755 C 0.52169 0.01551 0.8873 0.0
C756 C 0.56912 0.01865 0.86738 0.0
C757 C 0.50807 1.00097 0.86327 0.0
C758 C 0.5246 0.99567 0.84125 0.0
C759 C 0.57185 0.99978 0.8209 0.0
C760 C 0.60248 0.00857 0.82289 0.0
C761 C 0.55512 0.00458 0.84303 0.0
C762 C 0.61622 0.02202 0.84736 0.0
C763 C 0.59969 0.02714 0.86936 0.0
H764 H 0.2948 0.2808 0.38075 0.0
H765 H 0.28926 0.21086 0.3173 0.0
H766 H 0.28899 0.17453 0.3502 0.0
H767 H 0.28992 0.1627 0.39705 0.0
H768 H 0.29775 0.23288 0.46066 0.0
H769 H 0.29781 0.26901 0.42778 0.0
C770 C 0.2934 0.25758 0.37424 0.0
C771 C 0.29183 0.2484 0.34674 0.0
C772 C 0.29385 0.23689 0.39329 0.0
C773 C 0.29048 0.21833 0.33842 0.0
C774 C 0.29032 0.1976 0.3572 0.0
C775 C 0.29176 0.18589 0.40373 0.0
C776 C 0.29373 0.195 0.4313 0.0
C777 C 0.292 0.20662 0.3847 0.0
C778 C 0.29631 0.2252 0.43958 0.0
C779 C 0.29621 0.24592 0.42078 0.0
H780 H 0.52169 0.4751 0.90357 0.0
H781 H 0.51651 0.56728 0.92502 0.0
H782 H 0.48723 0.57082 0.883 0.0
H783 H 0.46427 0.54808 0.83958 0.0
H784 H 0.46834 0.4556 0.81869 0.0
H785 H 0.4965 0.4518 0.86123 0.0
C786 C 0.51375 0.49586 0.89928 0.0
C787 C 0.52148 0.52091 0.91739 0.0
C788 C 0.4968 0.49773 0.87511 0.0
C789 C 0.5113 0.54774 0.91127 0.0
C790 C 0.49446 0.54977 0.88728 0.0
C791 C 0.47129 0.52708 0.84434 0.0
C792 C 0.46436 0.50221 0.82588 0.0
C793 C 0.48737 0.52499 0.86891 0.0
C794 C 0.47339 0.47511 0.83249 0.0
C795 C 0.48953 0.47291 0.85682 0.0
H796 H 0.77132 0.82163 0.12297 0.0
H797 H 0.7602 0.74343 0.16446 0.0
H798 H 0.76835 0.71339 0.12366 0.0
H799 H 0.77934 0.70941 0.07641 0.0
H800 H 0.79146 0.78784 0.03528 0.0
H801 H 0.78274 0.81772 0.07593 0.0
C802 C 0.77096 0.79804 0.12318 0.0
C803 C 0.7652 0.78484 0.14679 0.0
C804 C 0.77598 0.78094 0.09976 0.0
C805 C 0.76423 0.75416 0.14651 0.0
C806 C 0.76909 0.73697 0.12323 0.0
C807 C 0.78015 0.73305 0.07632 0.0
C808 C 0.78611 0.74633 0.0528 0.0
C809 C 0.77507 0.75014 0.09977 0.0
C810 C 0.78697 0.777 0.05308 0.0
C811 C 0.78195 0.79413 0.07632 0.0
H812 H 1.00125 0.04818 0.08463 0.0
H813 H 0.0817 0.01869 0.11927 0.0
H814 H 0.05946 0.01491 0.16181 0.0
H815 H 0.01768 0.02137 0.18963 0.0
H816 H 0.93846 0.05357 0.15544 0.0
H817 H 0.96009 0.0556 0.1125 0.0
C818 C 0.01413 0.04125 0.10153 0.0
C819 C 0.0432 0.03381 0.09862 0.0
C820 C 1.00151 0.03982 0.12613 0.0
C821 C 0.05916 0.02418 0.12069 0.0
C822 C 0.04655 0.02225 0.14514 0.0
C823 C 0.00514 0.02883 0.17278 0.0
C824 C 0.97649 0.03733 0.1758 0.0
C825 C 0.01781 0.03018 0.14814 0.0
C826 C 0.9606 0.04703 0.15376 0.0
C827 C 0.97291 0.04812 0.12914 0.0
H828 H 0.3306 0.79745 0.15679 0.0
H829 H 0.25084 0.73792 0.14208 0.0
H830 H 0.23443 0.76449 0.1047 0.0
H831 H 0.24262 0.80449 0.07613 0.0
H832 H 0.32253 0.86394 0.09014 0.0
H833 H 0.33893 0.83761 0.12785 0.0
C834 C 0.30965 0.79036 0.14533 0.0
C835 C 0.29201 0.76583 0.15219 0.0
C836 C 0.30033 0.80572 0.12378 0.0
C837 C 0.2649 0.75674 0.13725 0.0
C838 C 0.25545 0.77194 0.11585 0.0
C839 C 0.26359 0.81177 0.08745 0.0
C840 C 0.28127 0.83618 0.08035 0.0
C841 C 0.27297 0.79646 0.10897 0.0
C842 C 0.30847 0.84521 0.09518 0.0
C843 C 0.31788 0.83017 0.11675 0.0
H844 H 0.04341 0.49447 0.08875 0.0
H845 H 0.96336 0.51937 0.12203 0.0
H846 H 0.9855 0.5154 0.16716 0.0
H847 H 0.027 0.50313 0.19713 0.0
H848 H 0.10574 0.47561 0.16317 0.0
H849 H 0.08427 0.48153 0.11834 0.0
C850 C 0.03058 0.49874 0.1058 0.0
C851 C 1.00163 0.50709 0.10181 0.0
C852 C 0.04311 0.49565 0.13163 0.0
C853 C 0.98579 0.51327 0.12436 0.0
C854 C 0.99834 0.51072 0.15022 0.0
C855 C 0.03947 0.4984 0.17993 0.0
C856 C 0.06796 0.48887 0.1836 0.0
C857 C 0.0269 0.50168 0.15408 0.0
C858 C 0.08374 0.48283 0.16102 0.0
C859 C 0.07152 0.4863 0.13533 0.0
H860 H 0.33125 0.70273 0.29573 0.0
H861 H 0.3774 0.69773 0.22365 0.0
H862 H 0.42499 0.70811 0.25018 0.0
H863 H 0.45338 0.7201 0.29376 0.0
H864 H 0.4071 0.72583 0.36587 0.0
H865 H 0.35977 0.7135 0.33947 0.0
C866 C 0.35176 0.70354 0.2859 0.0
C867 C 0.35084 0.69953 0.2578 0.0
C868 C 0.37902 0.7098 0.30126 0.0
C869 C 0.37756 0.70102 0.24527 0.0
C870 C 0.40476 0.7069 0.26041 0.0
C871 C 0.43296 0.71857 0.30372 0.0
C872 C 0.43384 0.72399 0.33176 0.0
C873 C 0.40575 0.71164 0.28841 0.0
C874 C 0.40712 0.72189 0.34431 0.0
C875 C 0.38 0.7148 0.32923 0.0
H876 H 0.05416 0.41328 0.00222 0.0
H877 H 0.96757 0.42614 0.96688 0.0
H878 H 0.96964 0.38426 0.93393 0.0
H879 H 0.99612 0.344 0.91511 0.0
H880 H 0.08303 0.33152 0.95026 0.0
H881 H 0.08073 0.37315 0.98329 0.0
C882 C 0.03579 0.40687 0.98725 0.0
C883 C 0.01083 0.42275 0.98693 0.0
C884 C 0.03716 0.38283 0.96835 0.0
C885 C 0.9871 0.41432 0.96751 0.0
C886 C 0.98825 0.39034 0.94867 0.0
C887 C 0.01455 0.35034 0.93001 0.0
C888 C 0.0397 0.33462 0.93018 0.0
C889 C 0.01317 0.37443 0.9489 0.0
C890 C 0.0634 0.34323 0.94961 0.0
C891 C 0.06212 0.36705 0.96854 0.0
H892 H 0.66088 0.77373 0.23559 0.0
H893 H 0.69804 0.8287 0.30604 0.0
H894 H 0.65549 0.81283 0.33028 0.0
H895 H 0.60795 0.78336 0.33147 0.0
H896 H 0.57072 0.72814 0.26112 0.0
H897 H 0.61313 0.74411 0.23683 0.0
C898 C 0.65968 0.78223 0.25624 0.0
C899 C 0.68257 0.80236 0.26907 0.0
C900 C 0.63516 0.77297 0.27006 0.0
C901 C 0.68066 0.81317 0.2958 0.0
C902 C 0.65636 0.80412 0.30965 0.0
C903 C 0.60905 0.77479 0.31081 0.0
C904 C 0.58613 0.75456 0.29816 0.0
C905 C 0.6335 0.78402 0.29698 0.0
C906 C 0.58801 0.74371 0.27138 0.0
C907 C 0.61228 0.75284 0.25746 0.0
H908 H 0.07375 0.10912 0.94388 0.0
H909 H 0.03452 0.13784 0.01608 0.0
H910 H 0.01981 0.18117 0.99582 0.0
H911 H 0.01789 0.2109 0.9576 0.0
H912 H 0.05737 0.18253 0.88537 0.0
H913 H 0.07216 0.13918 0.90563 0.0
C914 C 0.062 0.12493 0.95513 0.0
C915 C 0.05524 0.12027 0.98136 0.0
C916 C 0.05363 0.14987 0.94337 0.0
C917 C 0.04003 0.14087 0.99582 0.0
C918 C 0.03158 0.16568 0.98425 0.0
C919 C 0.02972 0.19525 0.94626 0.0
C920 C 0.03646 0.19998 0.91999 0.0
C921 C 0.03823 0.17039 0.95804 0.0
C922 C 0.05187 0.17946 0.90563 0.0
C923 C 0.06035 0.15464 0.91719 0.0
H924 H 0.35526 0.292 0.22205 0.0
H925 H 0.42365 0.27425 0.28075 0.0
H926 H 0.45985 0.27544 0.24697 0.0
H927 H 0.47181 0.28082 0.20072 0.0
H928 H 0.40306 0.29701 0.1416 0.0
H929 H 0.36725 0.29726 0.17563 0.0
C930 C 0.37809 0.28849 0.22746 0.0
C931 C 0.38688 0.28314 0.25386 0.0
C932 C 0.39869 0.28894 0.20788 0.0
C933 C 0.41646 0.27841 0.26052 0.0
C934 C 0.43714 0.27912 0.24125 0.0
C935 C 0.44904 0.28458 0.19529 0.0
C936 C 0.44016 0.28896 0.16865 0.0
C937 C 0.42848 0.2843 0.21486 0.0
C938 C 0.41049 0.29355 0.16193 0.0
C939 C 0.38998 0.29369 0.18139 0.0
H940 H 0.52295 0.42373 0.01063 0.0
H941 H 0.60828 0.44204 0.05519 0.0
H942 H 0.5963 0.4016 0.08246 0.0
H943 H 0.56178 0.36072 0.09326 0.0
H944 H 0.47687 0.3419 0.04789 0.0
H945 H 0.48847 0.3829 0.02141 0.0
C946 C 0.53891 0.41891 0.02632 0.0
C947 C 0.56648 0.43583 0.03094 0.0
C948 C 0.53194 0.39555 0.04179 0.0
C949 C 0.58692 0.42925 0.0513 0.0
C950 C 0.58008 0.40617 0.06689 0.0
C951 C 0.54575 0.36566 0.07766 0.0
C952 C 0.51848 0.34825 0.07261 0.0
C953 C 0.55267 0.38914 0.06229 0.0
C954 C 0.49805 0.35488 0.0522 0.0
C955 C 0.50465 0.37835 0.03702 0.0
H956 H 0.65757 0.18362 0.21343 0.0
H957 H 0.68627 0.27355 0.24196 0.0
H958 H 0.64626 0.29018 0.21376 0.0
H959 H 0.60166 0.27896 0.18254 0.0
H960 H 0.57144 0.18873 0.156 0.0
H961 H 0.61341 0.17244 0.18176 0.0
C962 C 0.65513 0.20685 0.21325 0.0
C963 C 0.67467 0.2273 0.22974 0.0
C964 C 0.6317 0.21619 0.19745 0.0
C965 C 0.67133 0.25736 0.22954 0.0
C966 C 0.64847 0.26689 0.21341 0.0
C967 C 0.6044 0.25576 0.18225 0.0
C968 C 0.58344 0.2351 0.16743 0.0
C969 C 0.6283 0.24648 0.19754 0.0
C970 C 0.58717 0.20508 0.16739 0.0
C971 C 0.61119 0.19573 0.18208 0.0
H972 H 0.46205 0.1226 0.01741 0.0
H973 H 0.55351 0.11187 0.00462 0.0
H974 H 0.56901 0.15892 0.03032 0.0
H975 H 0.55678 0.20222 0.05772 0.0
H976 H 0.46549 0.2119 0.07215 0.0
H977 H 0.44979 0.16595 0.0447 0.0
C978 C 0.4854 0.13042 0.02044 0.0
C979 C 0.50657 0.11368 0.00915 0.0
C980 C 0.4942 0.15727 0.03555 0.0
C981 C 0.53671 0.12445 0.01283 0.0
C982 C 0.54562 0.15128 0.02765 0.0
C983 C 0.53342 0.19441 0.05471 0.0
C984 C 0.51235 0.21046 0.06697 0.0
C985 C 0.52457 0.16779 0.03921 0.0
C986 C 0.48218 0.19992 0.06299 0.0
C987 C 0.47317 0.17364 0.04731 0.0
H988 H 0.32701 0.3544 0.69577 0.0
H989 H 0.25498 0.40531 0.71547 0.0
H990 H 0.29009 0.44852 0.72807 0.0
H991 H 0.34127 0.47209 0.73293 0.0
H992 H 0.41272 0.42162 0.71068 0.0
H993 H 0.37768 0.37821 0.6991 0.0
C994 C 0.31886 0.37501 0.70244 0.0
C995 C 0.28832 0.37647 0.70467 0.0
C996 C 0.33908 0.39994 0.70913 0.0
C997 C 0.27837 0.40333 0.71393 0.0
C998 C 0.29843 0.42815 0.72097 0.0
C999 C 0.34916 0.45158 0.72557 0.0
C1000 C 0.37957 0.4501 0.72273 0.0
C1001 C 0.32883 0.42671 0.71864 0.0
C1002 C 0.38942 0.42341 0.71299 0.0
C1003 C 0.36941 0.39853 0.7064 0.0
H1004 H 0.29804 0.67262 0.77686 0.0
H1005 H 0.29917 0.66117 0.86125 0.0
H1006 H 0.33522 0.62532 0.85629 0.0
H1007 H 0.36505 0.59591 0.82788 0.0
H1008 H 0.3644 0.60702 0.74344 0.0
H1009 H 0.32954 0.64421 0.74852 0.0
C1010 C 0.30618 0.66223 0.79413 0.0
C1011 C 0.29591 0.66958 0.81939 0.0
C1012 C 0.32693 0.64151 0.79113 0.0
C1013 C 0.30695 0.65619 0.84165 0.0
C1014 C 0.32744 0.63553 0.83881 0.0
C1015 C 0.35738 0.6065 0.81056 0.0
C1016 C 0.36723 0.59853 0.78529 0.0
C1017 C 0.3374 0.62786 0.81363 0.0
C1018 C 0.3572 0.6127 0.76313 0.0
C1019 C 0.33719 0.63394 0.76601 0.0
H1020 H 0.90519 0.50479 0.46244 0.0
H1021 H 0.94792 0.51746 0.54256 0.0
H1022 H 0.90883 0.48461 0.55822 0.0
H1023 H 0.86131 0.45409 0.54961 0.0
H1024 H 0.81867 0.44123 0.46936 0.0
H1025 H 0.85897 0.47211 0.45333 0.0
C1026 C 0.90618 0.49994 0.48321 0.0
C1027 C 0.92929 0.51366 0.50133 0.0
C1028 C 0.88352 0.48118 0.49214 0.0
C1029 C 0.93012 0.50744 0.52828 0.0
C1030 C 0.90781 0.48864 0.53726 0.0
C1031 C 0.86085 0.45799 0.5286 0.0
C1032 C 0.83689 0.4455 0.5108 0.0
C1033 C 0.88414 0.47577 0.51946 0.0
C1034 C 0.8368 0.4506 0.48357 0.0
C1035 C 0.85985 0.46828 0.47434 0.0
H1036 H 0.78783 0.88572 0.77481 0.0
H1037 H 0.71623 0.83159 0.80336 0.0
H1038 H 0.68131 0.86623 0.79004 0.0
H1039 H 0.67101 0.91163 0.7692 0.0
H1040 H 0.74326 0.96385 0.7393 0.0
H1041 H 0.7777 0.92974 0.75354 0.0
C1042 C 0.76453 0.88116 0.77785 0.0
C1043 C 0.75475 0.85582 0.78988 0.0
C1044 C 0.74454 0.90077 0.76965 0.0
C1045 C 0.72454 0.85097 0.79434 0.0
C1046 C 0.70448 0.87067 0.78652 0.0
C1047 C 0.69425 0.91544 0.76567 0.0
C1048 C 0.7044 0.94034 0.75309 0.0
C1049 C 0.7142 0.89559 0.77396 0.0
C1050 C 0.73467 0.94493 0.74883 0.0
C1051 C 0.7545 0.92545 0.75705 0.0
H1052 H 0.64275 0.53406 0.97653 0.0
H1053 H 0.58001 0.59863 0.98249 0.0
H1054 H 0.62066 0.63775 0.99252 0.0
H1055 H 0.6741 0.65356 0.99831 0.0
H1056 H 0.73683 0.58912 0.9893 0.0
H1057 H 0.69622 0.54994 0.98177 0.0
C1058 C 0.63811 0.55671 0.98028 0.0
C1059 C 0.60862 0.56361 0.979 0.0
C1060 C 0.66156 0.57904 0.98535 0.0
C1061 C 0.60266 0.59297 0.98342 0.0
C1062 C 0.62585 0.61526 0.98914 0.0
C1063 C 0.67885 0.63092 0.99485 0.0
C1064 C 0.70839 0.62423 0.99444 0.0
C1065 C 0.65539 0.60857 0.98997 0.0
C1066 C 0.71425 0.59484 0.98963 0.0
C1067 C 0.69106 0.57242 0.98536 0.0
H1068 H 0.27551 0.61537 0.24566 0.0
H1069 H 0.21264 0.67844 0.23198 0.0
H1070 H 0.17171 0.64147 0.23643 0.0
H1071 H 0.15357 0.59062 0.24159 0.0
H1072 H 0.21611 0.52755 0.25634 0.0
H1073 H 0.25732 0.56526 0.25457 0.0
C1074 C 0.25289 0.62117 0.24414 0.0
C1075 C 0.24718 0.64955 0.2381 0.0
C1076 C 0.22936 0.59977 0.24679 0.0
C1077 C 0.21767 0.6566 0.23603 0.0
C1078 C 0.19422 0.6355 0.23869 0.0
C1079 C 0.17621 0.58513 0.24457 0.0
C1080 C 0.18173 0.55624 0.24882 0.0
C1081 C 0.19978 0.60689 0.24355 0.0
C1082 C 0.21122 0.54961 0.25296 0.0
C1083 C 0.23481 0.57115 0.25189 0.0
H1084 H 0.90573 0.52117 0.00729 0.0
H1085 H 0.95805 0.58819 0.06047 0.0
H1086 H 0.92379 0.62388 0.0486 0.0
H1087 H 0.87899 0.6362 0.02255 0.0
H1088 H 0.82902 0.56901 0.96774 0.0
H1089 H 0.86294 0.53366 0.98023 0.0
C1090 C 0.91007 0.54367 0.01604 0.0
C1091 C 0.93467 0.55182 0.03471 0.0
C1092 C 0.89076 0.56423 0.00864 0.0
C1093 C 0.93918 0.58102 0.04631 0.0
C1094 C 0.9197 0.60157 0.03934 0.0
C1095 C 0.87564 0.61387 0.01323 0.0
C1096 C 0.85139 0.60538 0.99421 0.0
C1097 C 0.89543 0.59345 0.02045 0.0
C1098 C 0.84745 0.57631 0.98237 0.0
C1099 C 0.86681 0.55596 0.98956 0.0
H1100 H 0.13293 0.99745 0.06835 0.0
H1101 H 0.09313 0.99636 0.98768 0.0
H1102 H 0.12934 0.96447 0.97126 0.0
H1103 H 0.17314 0.93787 0.97965 0.0
H1104 H 0.21253 0.93882 0.06053 0.0
H1105 H 0.17541 0.96938 0.07698 0.0
C1106 C 0.1319 0.9899 0.04723 0.0
C1107 C 0.1104 0.9994 0.02929 0.0
C1108 C 0.15277 0.97155 0.03791 0.0
C1109 C 0.1097 0.98972 0.0019 0.0
C1110 C 0.13032 0.97138 0.9925 0.0
C1111 C 0.17355 0.94465 1.00088 0.0
C1112 C 0.19572 0.93611 0.01875 0.0
C1113 C 0.15214 0.96236 0.01028 0.0
C1114 C 0.19581 0.94509 0.04624 0.0
C1115 C 0.17458 0.96261 0.05572 0.0
loop_
_geom_bond_atom_site_label_1
_geom_bond_atom_site_label_2
_geom_bond_distance
_geom_bond_site_symmetry_2
_ccdc_geom_bond_type
H0 C5 0.930 . S
H1 C8 0.930 . S
H2 C10 0.930 . S
H3 C4 1.030 . S
C4 H3 1.030 . S
C4 N11 1.263 1_556 S
C5 H0 0.930 . S
C5 C6 1.397 . S
C5 C7 1.361 . S
C6 C5 1.397 . S
C6 C10 1.390 . S
C7 C5 1.361 . S
C7 C8 1.393 . S
C7 N11 1.413 . S
C8 H1 0.930 . S
C8 C7 1.393 . S
C8 C9 1.399 . S
C9 C8 1.399 . S
C9 C10 1.381 . S
C10 H2 0.930 . S
C10 C6 1.390 . S
C10 C9 1.381 . S
N11 C4 1.263 1_554 S
N11 C7 1.413 . S
H12 C17 0.930 . S
H13 C20 0.930 . S
H14 C22 0.930 . S
H15 C16 1.016 . S
C16 H15 1.016 . S
C16 N23 1.286 . S
C17 H12 0.930 . S
C17 C18 1.397 . S
C17 C19 1.361 . S
C18 C17 1.397 . S
C18 C22 1.390 . S
C19 C17 1.361 . S
C19 C20 1.393 . S
C19 N23 1.413 . S
C20 H13 0.930 . S
C20 C19 1.393 . S
C20 C21 1.399 . S
C21 C20 1.399 . S
C21 C22 1.381 . S
C22 H14 0.930 . S
C22 C18 1.390 . S
C22 C21 1.381 . S
N23 C16 1.286 . S
N23 C19 1.413 . S
H24 C29 0.930 . S
H25 C32 0.929 . S
H26 C34 0.930 . S
H27 C28 1.016 1_454 S
C28 H27 1.016 1_656 S
C28 N35 1.286 1_556 S
C29 H24 0.930 . S
C29 C30 1.397 . S
C29 C31 1.361 . S
C30 C29 1.397 . S
C30 C34 1.390 . S
C31 C29 1.361 . S
C31 C32 1.393 . S
C31 N35 1.413 . S
C32 H25 0.929 . S
C32 C31 1.393 . S
C32 C33 1.399 . S
C33 C32 1.399 . S
C33 C34 1.381 . S
C34 H26 0.930 . S
C34 C30 1.390 . S
C34 C33 1.381 . S
N35 C28 1.286 1_554 S
N35 C31 1.413 . S
H36 C41 0.930 . S
H37 C44 0.930 . S
H38 C46 0.930 . S
H39 C40 1.016 . S
C40 H39 1.016 . S
C40 N47 1.286 . S
C41 H36 0.930 . S
C41 C42 1.397 . S
C41 C43 1.361 . S
C42 C41 1.397 . S
C42 C46 1.390 . S
C43 C41 1.361 . S
C43 C44 1.393 . S
C43 N47 1.413 . S
C44 H37 0.930 . S
C44 C43 1.393 . S
C44 C45 1.399 . S
C45 C44 1.399 . S
C45 C46 1.381 . S
C46 H38 0.930 . S
C46 C42 1.390 . S
C46 C45 1.381 . S
N47 C40 1.286 . S
N47 C43 1.413 . S
H48 C53 0.930 . S
H49 C56 0.930 . S
H50 C58 0.930 . S
H51 C52 1.016 . S
C52 H51 1.016 . S
C52 N59 1.286 . S
C53 H48 0.930 . S
C53 C54 1.409 . S
C53 C55 1.361 . S
C54 C53 1.409 . S
C54 C58 1.383 1_565 S
C55 C53 1.361 . S
C55 C56 1.393 . S
C55 N59 1.413 . S
C56 H49 0.930 . S
C56 C55 1.393 . S
C56 C57 1.399 1_565 S
C57 C56 1.399 1_545 S
C57 C58 1.381 . S
C58 H50 0.930 . S
C58 C54 1.383 1_545 S
C58 C57 1.381 . S
N59 C52 1.286 . S
N59 C55 1.413 . S
H60 C65 0.930 . S
H61 C68 0.930 . S
H62 C70 0.930 . S
H63 C64 1.016 . S
C64 H63 1.016 . S
C64 N71 1.286 . S
C65 H60 0.930 . S
C65 C66 1.397 . S
C65 C67 1.361 . S
C66 C65 1.397 . S
C66 C70 1.390 . S
C67 C65 1.361 . S
C67 C68 1.393 . S
C67 N71 1.413 . S
C68 H61 0.930 . S
C68 C67 1.393 . S
C68 C69 1.399 . S
C69 C68 1.399 . S
C69 C70 1.381 . S
C70 H62 0.930 . S
C70 C66 1.390 . S
C70 C69 1.381 . S
N71 C64 1.286 . S
N71 C67 1.413 . S
H72 C77 0.930 1_455 S
H73 C80 0.930 . S
H74 C82 0.930 . S
H75 C76 1.016 . S
C76 H75 1.016 . S
C76 N83 1.286 . S
C77 H72 0.930 1_655 S
C77 C78 1.397 . S
C77 C79 1.361 . S
C78 C77 1.397 . S
C78 C82 1.390 . S
C79 C77 1.361 . S
C79 C80 1.393 . S
C79 N83 1.413 1_655 S
C80 H73 0.930 . S
C80 C79 1.393 . S
C80 C81 1.399 . S
C81 C80 1.399 . S
C81 C82 1.381 . S
C82 H74 0.930 . S
C82 C78 1.390 . S
C82 C81 1.381 . S
N83 C76 1.286 . S
N83 C79 1.413 1_455 S
H84 C89 0.930 . S
H85 C92 0.930 . S
H86 C94 0.930 . S
H87 C88 1.016 . S
C88 H87 1.016 . S
C88 N95 1.286 . S
C89 H84 0.930 . S
C89 C90 1.397 . S
C89 C91 1.361 . S
C90 C89 1.397 . S
C90 C94 1.390 . S
C91 C89 1.361 . S
C91 C92 1.393 . S
C91 N95 1.413 . S
C92 H85 0.930 . S
C92 C91 1.393 . S
C92 C93 1.399 . S
C93 C92 1.399 . S
C93 C94 1.381 . S
C94 H86 0.930 . S
C94 C90 1.390 . S
C94 C93 1.381 . S
N95 C88 1.286 . S
N95 C91 1.413 . S
H96 C101 0.930 . S
H97 C104 0.930 . S
H98 C106 0.930 . S
H99 C100 1.016 . S
C100 H99 1.016 . S
C100 N107 1.286 . S
C101 H96 0.930 . S
C101 C102 1.397 . S
C101 C103 1.361 . S
C102 C101 1.397 . S
C102 C106 1.390 . S
C103 C101 1.361 . S
C103 C104 1.393 . S
C103 N107 1.413 . S
C104 H97 0.930 . S
C104 C103 1.393 . S
C104 C105 1.399 . S
C105 C104 1.399 . S
C105 C106 1.381 . S
C106 H98 0.930 . S
C106 C102 1.390 . S
C106 C105 1.381 . S
N107 C100 1.286 . S
N107 C103 1.413 . S
H108 C113 0.930 . S
H109 C116 0.930 . S
H110 C118 0.930 . S
H111 C112 1.016 . S
C112 H111 1.016 . S
C112 N119 1.286 . S
C113 H108 0.930 . S
C113 C114 1.397 1_565 S
C113 C115 1.361 . S
C114 C113 1.397 1_545 S
C114 C118 1.390 . S
C115 C113 1.361 . S
C115 C116 1.393 . S
C115 N119 1.413 . S
C116 H109 0.930 . S
C116 C115 1.393 . S
C116 C117 1.399 . S
C117 C116 1.399 . S
C117 C118 1.381 1_565 S
C118 H110 0.930 . S
C118 C114 1.390 . S
C118 C117 1.381 1_545 S
N119 C112 1.286 . S
N119 C115 1.413 . S
H120 C125 0.930 . S
H121 C128 0.930 . S
H122 C130 0.930 . S
H123 C124 1.016 . S
C124 H123 1.016 . S
C124 N131 1.286 . S
C125 H120 0.930 . S
C125 C126 1.397 . S
C125 C127 1.361 . S
C126 C125 1.397 . S
C126 C130 1.390 . S
C127 C125 1.361 . S
C127 C128 1.393 . S
C127 N131 1.413 . S
C128 H121 0.930 . S
C128 C127 1.393 . S
C128 C129 1.399 . S
C129 C128 1.399 . S
C129 C130 1.381 . S
C130 H122 0.930 . S
C130 C126 1.390 . S
C130 C129 1.381 . S
N131 C124 1.286 . S
N131 C127 1.413 . S
H132 C137 0.930 . S
H133 C140 0.930 . S
H134 C142 0.930 . S
H135 C136 1.016 . S
C136 H135 1.016 . S
C136 N143 1.286 . S
C137 H132 0.930 . S
C137 C138 1.397 . S
C137 C139 1.361 . S
C138 C137 1.397 . S
C138 C142 1.390 . S
C139 C137 1.361 . S
C139 C140 1.393 . S
C139 N143 1.413 . S
C140 H133 0.930 . S
C140 C139 1.393 . S
C140 C141 1.399 . S
C141 C140 1.399 . S
C141 C142 1.381 . S
C142 H134 0.930 . S
C142 C138 1.390 . S
C142 C141 1.381 . S
N143 C136 1.286 . S
N143 C139 1.413 . S
H144 C149 0.930 . S
H145 C152 0.930 . S
H146 C154 0.930 . S
H147 C148 1.016 . S
C148 H147 1.016 . S
C148 N155 1.286 . S
C149 H144 0.930 . S
C149 C150 1.397 . S
C149 C151 1.361 . S
C150 C149 1.397 . S
C150 C154 1.390 . S
C151 C149 1.361 . S
C151 C152 1.393 . S
C151 N155 1.413 . S
C152 H145 0.930 . S
C152 C151 1.393 . S
C152 C153 1.399 . S
C153 C152 1.399 . S
C153 C154 1.381 . S
C154 H146 0.930 . S
C154 C150 1.390 . S
C154 C153 1.381 . S
N155 C148 1.286 . S
N155 C151 1.413 . S
H156 C161 0.930 . S
H157 C164 0.930 . S
H158 C166 0.930 . S
H159 C160 1.025 . S
C160 H159 1.025 . S
C160 N167 1.270 1_554 S
C161 H156 0.930 . S
C161 C162 1.397 . S
C161 C163 1.361 . S
C162 C161 1.397 . S
C162 C166 1.390 . S
C163 C161 1.361 . S
C163 C164 1.393 . S
C163 N167 1.413 . S
C164 H157 0.930 . S
C164 C163 1.393 . S
C164 C165 1.399 . S
C165 C164 1.399 . S
C165 C166 1.381 . S
C166 H158 0.930 . S
C166 C162 1.390 . S
C166 C165 1.381 . S
N167 C160 1.270 1_556 S
N167 C163 1.413 . S
H168 C173 0.930 . S
H169 C176 0.930 . S
H170 C178 0.930 . S
H171 C172 1.016 . S
C172 H171 1.016 . S
C172 N179 1.286 . S
C173 H168 0.930 . S
C173 C174 1.397 . S
C173 C175 1.361 . S
C174 C173 1.397 . S
C174 C178 1.390 . S
C175 C173 1.361 . S
C175 C176 1.393 . S
C175 N179 1.413 . S
C176 H169 0.930 . S
C176 C175 1.393 . S
C176 C177 1.399 . S
C177 C176 1.399 . S
C177 C178 1.381 . S
C178 H170 0.930 . S
C178 C174 1.390 . S
C178 C177 1.381 . S
N179 C172 1.286 . S
N179 C175 1.413 . S
H180 C185 0.930 . S
H181 C188 0.930 . S
H182 C190 0.930 1_554 S
H183 C184 1.016 . S
C184 H183 1.016 . S
C184 N191 1.286 . S
C185 H180 0.930 . S
C185 C186 1.397 . S
C185 C187 1.361 . S
C186 C185 1.397 . S
C186 C190 1.390 . S
C187 C185 1.361 . S
C187 C188 1.393 . S
C187 N191 1.413 . S
C188 H181 0.930 . S
C188 C187 1.393 . S
C188 C189 1.399 . S
C189 C188 1.399 . S
C189 C190 1.381 . S
C190 H182 0.930 1_556 S
C190 C186 1.390 . S
C190 C189 1.381 . S
N191 C184 1.286 . S
N191 C187 1.413 . S
C192 O193 1.160 1_554 S
C192 O199 1.185 . S
O193 C192 1.160 1_556 S
O194 Zn195 1.899 1_556 S
O194 C202 1.284 . S
Zn195 O194 1.899 1_554 S
Zn195 O196 2.032 . S
Zn195 O199 2.086 . S
Zn195 O204 1.977 . S
O196 Zn195 2.032 . S
O196 C200 1.278 . S
C197 O198 1.203 . S
C197 O204 1.267 . S
O198 C197 1.203 . S
O199 C192 1.185 . S
O199 Zn195 2.086 . S
C200 O196 1.278 . S
C200 O201 1.211 . S
O201 C200 1.211 . S
C202 O194 1.284 . S
C202 O203 1.273 . S
O203 C202 1.273 . S
O204 Zn195 1.977 . S
O204 C197 1.267 . S
C205 O206 1.160 . S
C205 O212 1.185 . S
O206 C205 1.160 . S
O207 Zn208 1.899 . S
O207 C215 1.284 . S
Zn208 O207 1.899 . S
Zn208 O209 2.032 . S
Zn208 O212 2.086 . S
Zn208 O217 1.977 . S
O209 Zn208 2.032 . S
O209 C213 1.278 . S
C210 O211 1.203 . S
C210 O217 1.267 . S
O211 C210 1.203 . S
O212 C205 1.185 . S
O212 Zn208 2.086 . S
C213 O209 1.278 . S
C213 O214 1.211 . S
O214 C213 1.211 . S
C215 O207 1.284 . S
C215 O216 1.273 . S
O216 C215 1.273 . S
O217 Zn208 1.977 . S
O217 C210 1.267 . S
C218 O219 1.160 1_554 S
C218 O225 1.185 . S
O219 C218 1.160 1_556 S
O220 Zn221 1.899 1_556 S
O220 C228 1.284 . S
Zn221 O220 1.899 1_554 S
Zn221 O222 2.032 1_554 S
Zn221 O225 2.086 . S
Zn221 O230 1.977 . S
O222 Zn221 2.032 1_556 S
O222 C226 1.278 . S
C223 O224 1.203 . S
C223 O230 1.267 . S
O224 C223 1.203 . S
O225 C218 1.185 . S
O225 Zn221 2.086 . S
C226 O222 1.278 . S
C226 O227 1.211 1_556 S
O227 C226 1.211 1_554 S
C228 O220 1.284 . S
C228 O229 1.273 . S
O229 C228 1.273 . S
O230 Zn221 1.977 . S
O230 C223 1.267 . S
C231 O232 1.160 . S
C231 O238 1.185 . S
O232 C231 1.160 . S
O233 Zn234 1.899 . S
O233 C241 1.284 . S
Zn234 O233 1.899 . S
Zn234 O235 2.032 . S
Zn234 O238 2.086 . S
Zn234 O243 1.977 . S
O235 Zn234 2.032 . S
O235 C239 1.278 1_545 S
C236 O237 1.203 . S
C236 O243 1.267 . S
O237 C236 1.203 . S
O238 C231 1.185 . S
O238 Zn234 2.086 . S
C239 O235 1.278 1_565 S
C239 O240 1.211 . S
O240 C239 1.211 . S
C241 O233 1.284 . S
C241 O242 1.273 1_545 S
O242 C241 1.273 1_565 S
O243 Zn234 1.977 . S
O243 C236 1.267 . S
C244 O245 1.160 . S
C244 O251 1.185 . S
O245 C244 1.160 . S
O246 Zn247 1.899 . S
O246 C254 1.284 . S
Zn247 O246 1.899 . S
Zn247 O248 2.032 . S
Zn247 O251 2.086 . S
Zn247 O256 1.977 . S
O248 Zn247 2.032 . S
O248 C252 1.278 . S
C249 O250 1.203 . S
C249 O256 1.267 . S
O250 C249 1.203 . S
O251 C244 1.185 . S
O251 Zn247 2.086 . S
C252 O248 1.278 . S
C252 O253 1.211 . S
O253 C252 1.211 . S
C254 O246 1.284 . S
C254 O255 1.273 . S
O255 C254 1.273 . S
O256 Zn247 1.977 . S
O256 C249 1.267 . S
C257 O258 1.160 . S
C257 O264 1.185 . S
O258 C257 1.160 . S
O259 Zn260 1.899 . S
O259 C267 1.284 . S
Zn260 O259 1.899 . S
Zn260 O261 2.032 . S
Zn260 O264 2.086 . S
Zn260 O269 1.977 . S
O261 Zn260 2.032 . S
O261 C265 1.278 . S
C262 O263 1.203 . S
C262 O269 1.267 . S
O263 C262 1.203 . S
O264 C257 1.185 . S
O264 Zn260 2.086 . S
C265 O261 1.278 . S
C265 O266 1.211 . S
O266 C265 1.211 . S
C267 O259 1.284 . S
C267 O268 1.273 . S
O268 C267 1.273 . S
O269 Zn260 1.977 . S
O269 C262 1.267 . S
C270 O271 1.160 . S
C270 O277 1.185 . S
O271 C270 1.160 . S
O272 Zn273 1.899 . S
O272 C280 1.284 . S
Zn273 O272 1.899 . S
Zn273 O274 2.032 . S
Zn273 O277 2.086 . S
Zn273 O282 1.977 . S
O274 Zn273 2.032 . S
O274 C278 1.278 . S
C275 O276 1.203 . S
C275 O282 1.267 . S
O276 C275 1.203 . S
O277 C270 1.185 . S
O277 Zn273 2.086 . S
C278 O274 1.278 . S
C278 O279 1.211 . S
O279 C278 1.211 . S
C280 O272 1.284 . S
C280 O281 1.273 . S
O281 C280 1.273 . S
O282 Zn273 1.977 . S
O282 C275 1.267 . S
C283 O284 1.160 . S
C283 O290 1.185 . S
O284 C283 1.160 . S
O285 Zn286 1.899 . S
O285 C293 1.284 1_565 S
Zn286 O285 1.899 . S
Zn286 O287 2.032 1_565 S
Zn286 O290 2.086 . S
Zn286 O295 1.977 . S
O287 Zn286 2.032 1_545 S
O287 C291 1.278 . S
C288 O289 1.203 1_565 S
C288 O295 1.267 . S
O289 C288 1.203 1_545 S
O290 C283 1.185 . S
O290 Zn286 2.086 . S
C291 O287 1.278 . S
C291 O292 1.211 . S
O292 C291 1.211 . S
C293 O285 1.284 1_545 S
C293 O294 1.273 . S
O294 C293 1.273 . S
O295 Zn286 1.977 . S
O295 C288 1.267 . S
C296 O297 1.160 1_455 S
C296 O303 1.185 . S
O297 C296 1.160 1_655 S
O298 Zn299 1.899 1_655 S
O298 C306 1.284 . S
Zn299 O298 1.899 1_455 S
Zn299 O300 2.032 . S
Zn299 O303 2.086 . S
Zn299 O308 1.977 . S
O300 Zn299 2.032 . S
O300 C304 1.278 . S
C301 O302 1.203 . S
C301 O308 1.267 . S
O302 C301 1.203 . S
O303 C296 1.185 . S
O303 Zn299 2.086 . S
C304 O300 1.278 . S
C304 O305 1.211 . S
O305 C304 1.211 . S
C306 O298 1.284 . S
C306 O307 1.273 . S
O307 C306 1.273 . S
O308 Zn299 1.977 . S
O308 C301 1.267 . S
C309 O310 1.160 . S
C309 O316 1.185 . S
O310 C309 1.160 . S
O311 Zn312 1.899 . S
O311 C319 1.284 . S
Zn312 O311 1.899 . S
Zn312 O313 2.032 . S
Zn312 O316 2.086 . S
Zn312 O321 1.977 . S
O313 Zn312 2.032 . S
O313 C317 1.278 . S
C314 O315 1.203 . S
C314 O321 1.267 . S
O315 C314 1.203 . S
O316 C309 1.185 . S
O316 Zn312 2.086 . S
C317 O313 1.278 . S
C317 O318 1.211 . S
O318 C317 1.211 . S
C319 O311 1.284 . S
C319 O320 1.273 . S
O320 C319 1.273 . S
O321 Zn312 1.977 . S
O321 C314 1.267 . S
C322 O323 1.160 1_455 S
C322 O329 1.185 . S
O323 C322 1.160 1_655 S
O324 Zn325 1.899 1_655 S
O324 C332 1.284 . S
Zn325 O324 1.899 1_455 S
Zn325 O326 2.032 . S
Zn325 O329 2.086 . S
Zn325 O334 1.977 . S
O326 Zn325 2.032 . S
O326 C330 1.278 . S
C327 O328 1.203 . S
C327 O334 1.267 . S
O328 C327 1.203 . S
O329 C322 1.185 . S
O329 Zn325 2.086 . S
C330 O326 1.278 . S
C330 O331 1.211 . S
O331 C330 1.211 . S
C332 O324 1.284 . S
C332 O333 1.273 . S
O333 C332 1.273 . S
O334 Zn325 1.977 . S
O334 C327 1.267 . S
C335 O336 1.160 . S
C335 O342 1.185 . S
O336 C335 1.160 . S
O337 Zn338 1.899 . S
O337 C345 1.284 . S
Zn338 O337 1.899 . S
Zn338 O339 2.032 . S
Zn338 O342 2.086 . S
Zn338 O347 1.977 . S
O339 Zn338 2.032 . S
O339 C343 1.278 . S
C340 O341 1.203 . S
C340 O347 1.267 . S
O341 C340 1.203 . S
O342 C335 1.185 . S
O342 Zn338 2.086 . S
C343 O339 1.278 . S
C343 O344 1.211 . S
O344 C343 1.211 . S
C345 O337 1.284 . S
C345 O346 1.273 . S
O346 C345 1.273 . S
O347 Zn338 1.977 . S
O347 C340 1.267 . S
H348 C354 0.930 . S
H349 C357 0.930 . S
H350 C358 0.930 . S
H351 C359 0.930 . S
H352 C362 0.930 . S
H353 C363 0.930 . S
C354 H348 0.930 . S
C354 C355 1.355 . S
C354 C356 1.415 . S
C355 C354 1.355 . S
C355 C357 1.419 . S
C356 C354 1.415 . S
C356 C361 1.425 . S
C356 C363 1.409 . S
C357 H349 0.930 . S
C357 C355 1.419 . S
C357 C358 1.362 . S
C358 H350 0.930 . S
C358 C357 1.362 . S
C358 C361 1.409 . S
C359 H351 0.930 . S
C359 C360 1.355 . S
C359 C361 1.415 . S
C360 C359 1.355 . S
C360 C362 1.419 . S
C361 C356 1.425 . S
C361 C358 1.409 . S
C361 C359 1.415 . S
C362 H352 0.930 . S
C362 C360 1.419 . S
C362 C363 1.362 . S
C363 H353 0.930 . S
C363 C356 1.409 . S
C363 C362 1.362 . S
H364 C370 0.930 . S
H365 C373 0.930 . S
H366 C374 0.930 . S
H367 C375 0.930 . S
H368 C378 0.930 . S
H369 C379 0.930 . S
C370 H364 0.930 . S
C370 C371 1.355 . S
C370 C372 1.415 . S
C371 C370 1.355 . S
C371 C373 1.419 . S
C372 C370 1.415 . S
C372 C377 1.425 . S
C372 C379 1.409 . S
C373 H365 0.930 . S
C373 C371 1.419 . S
C373 C374 1.362 . S
C374 H366 0.930 . S
C374 C373 1.362 . S
C374 C377 1.409 . S
C375 H367 0.930 . S
C375 C376 1.355 . S
C375 C377 1.415 . S
C376 C375 1.355 . S
C376 C378 1.419 . S
C377 C372 1.425 . S
C377 C374 1.409 . S
C377 C375 1.415 . S
C378 H368 0.930 . S
C378 C376 1.419 . S
C378 C379 1.362 . S
C379 H369 0.930 . S
C379 C372 1.409 . S
C379 C378 1.362 . S
H380 C386 0.930 . S
H381 C389 0.930 . S
H382 C390 0.930 . S
H383 C391 0.930 . S
H384 C394 0.930 . S
H385 C395 0.930 . S
C386 H380 0.930 . S
C386 C387 1.355 . S
C386 C388 1.415 . S
C387 C386 1.355 . S
C387 C389 1.419 . S
C388 C386 1.415 . S
C388 C393 1.425 . S
C388 C395 1.409 . S
C389 H381 0.930 . S
C389 C387 1.419 . S
C389 C390 1.362 . S
C390 H382 0.930 . S
C390 C389 1.362 . S
C390 C393 1.409 . S
C391 H383 0.930 . S
C391 C392 1.355 . S
C391 C393 1.415 . S
C392 C391 1.355 . S
C392 C394 1.419 . S
C393 C388 1.425 . S
C393 C390 1.409 . S
C393 C391 1.415 . S
C394 H384 0.930 . S
C394 C392 1.419 . S
C394 C395 1.362 . S
C395 H385 0.930 . S
C395 C388 1.409 . S
C395 C394 1.362 . S
H396 C402 0.930 . S
H397 C405 0.930 1_655 S
H398 C406 0.930 . S
H399 C407 0.917 1_565 S
H400 C410 0.930 . S
H401 C411 0.930 . S
C402 H396 0.930 . S
C402 C403 1.355 . S
C402 C404 1.415 . S
C403 C402 1.355 . S
C403 C405 1.419 1_545 S
C404 C402 1.415 . S
C404 C409 1.425 1_455 S
C404 C411 1.409 . S
C405 H397 0.930 1_455 S
C405 C403 1.419 1_565 S
C405 C406 1.362 1_455 S
C406 H398 0.930 . S
C406 C405 1.362 1_655 S
C406 C409 1.409 1_565 S
C407 H399 0.917 1_545 S
C407 C408 1.355 . S
C407 C409 1.415 . S
C408 C407 1.355 . S
C408 C410 1.419 1_655 S
C409 C404 1.425 1_655 S
C409 C406 1.409 1_545 S
C409 C407 1.415 . S
C410 H400 0.930 . S
C410 C408 1.419 1_455 S
C410 C411 1.362 . S
C411 H401 0.930 . S
C411 C404 1.409 . S
C411 C410 1.362 . S
H412 C418 0.930 . S
H413 C421 0.930 . S
H414 C422 0.930 . S
H415 C423 0.930 . S
H416 C426 0.930 . S
H417 C427 0.930 . S
C418 H412 0.930 . S
C418 C419 1.355 . S
C418 C420 1.415 . S
C419 C418 1.355 . S
C419 C421 1.419 . S
C420 C418 1.415 . S
C420 C425 1.425 . S
C420 C427 1.409 . S
C421 H413 0.930 . S
C421 C419 1.419 . S
C421 C422 1.362 . S
C422 H414 0.930 . S
C422 C421 1.362 . S
C422 C425 1.409 . S
C423 H415 0.930 . S
C423 C424 1.355 . S
C423 C425 1.415 . S
C424 C423 1.355 . S
C424 C426 1.419 . S
C425 C420 1.425 . S
C425 C422 1.409 . S
C425 C423 1.415 . S
C426 H416 0.930 . S
C426 C424 1.419 . S
C426 C427 1.362 . S
C427 H417 0.930 . S
C427 C420 1.409 . S
C427 C426 1.362 . S
H428 C434 0.930 . S
H429 C437 0.930 . S
H430 C438 0.930 . S
H431 C439 0.930 . S
H432 C442 0.930 . S
H433 C443 0.930 . S
C434 H428 0.930 . S
C434 C435 1.355 . S
C434 C436 1.415 . S
C435 C434 1.355 . S
C435 C437 1.419 . S
C436 C434 1.415 . S
C436 C441 1.425 . S
C436 C443 1.409 . S
C437 H429 0.930 . S
C437 C435 1.419 . S
C437 C438 1.362 . S
C438 H430 0.930 . S
C438 C437 1.362 . S
C438 C441 1.409 . S
C439 H431 0.930 . S
C439 C440 1.355 . S
C439 C441 1.415 . S
C440 C439 1.355 . S
C440 C442 1.419 . S
C441 C436 1.425 . S
C441 C438 1.409 . S
C441 C439 1.415 . S
C442 H432 0.930 . S
C442 C440 1.419 . S
C442 C443 1.362 . S
C443 H433 0.930 . S
C443 C436 1.409 . S
C443 C442 1.362 . S
H444 C450 0.930 . S
H445 C453 0.930 . S
H446 C454 0.930 . S
H447 C455 0.930 . S
H448 C458 0.930 . S
H449 C459 0.930 . S
C450 H444 0.930 . S
C450 C451 1.355 . S
C450 C452 1.415 . S
C451 C450 1.355 . S
C451 C453 1.419 . S
C452 C450 1.415 . S
C452 C457 1.425 . S
C452 C459 1.409 . S
C453 H445 0.930 . S
C453 C451 1.419 . S
C453 C454 1.362 . S
C454 H446 0.930 . S
C454 C453 1.362 . S
C454 C457 1.409 . S
C455 H447 0.930 . S
C455 C456 1.355 . S
C455 C457 1.415 . S
C456 C455 1.355 . S
C456 C458 1.419 . S
C457 C452 1.425 . S
C457 C454 1.409 . S
C457 C455 1.415 . S
C458 H448 0.930 . S
C458 C456 1.419 . S
C458 C459 1.362 . S
C459 H449 0.930 . S
C459 C452 1.409 . S
C459 C458 1.362 . S
H460 C466 0.930 . S
H461 C469 0.930 . S
H462 C470 0.930 . S
H463 C471 0.930 . S
H464 C474 0.930 . S
H465 C475 0.930 . S
C466 H460 0.930 . S
C466 C467 1.355 1_545 S
C466 C468 1.415 . S
C467 C466 1.355 1_565 S
C467 C469 1.419 . S
C468 C466 1.415 . S
C468 C473 1.425 1_545 S
C468 C475 1.409 . S
C469 H461 0.930 . S
C469 C467 1.419 . S
C469 C470 1.362 . S
C470 H462 0.930 . S
C470 C469 1.362 . S
C470 C473 1.409 . S
C471 H463 0.930 . S
C471 C472 1.355 . S
C471 C473 1.415 . S
C472 C471 1.355 . S
C472 C474 1.419 1_565 S
C473 C468 1.425 1_565 S
C473 C470 1.409 . S
C473 C471 1.415 . S
C474 H464 0.930 . S
C474 C472 1.419 1_545 S
C474 C475 1.362 . S
C475 H465 0.930 . S
C475 C468 1.409 . S
C475 C474 1.362 . S
H476 C482 0.930 . S
H477 C485 0.930 . S
H478 C486 0.930 . S
H479 C487 0.930 . S
H480 C490 0.930 . S
H481 C491 0.930 . S
C482 H476 0.930 . S
C482 C483 1.355 . S
C482 C484 1.415 . S
C483 C482 1.355 . S
C483 C485 1.419 . S
C484 C482 1.415 . S
C484 C489 1.425 . S
C484 C491 1.409 . S
C485 H477 0.930 . S
C485 C483 1.419 . S
C485 C486 1.362 . S
C486 H478 0.930 . S
C486 C485 1.362 . S
C486 C489 1.409 . S
C487 H479 0.930 . S
C487 C488 1.355 . S
C487 C489 1.415 . S
C488 C487 1.355 . S
C488 C490 1.419 . S
C489 C484 1.425 . S
C489 C486 1.409 . S
C489 C487 1.415 . S
C490 H480 0.930 . S
C490 C488 1.419 . S
C490 C491 1.362 . S
C491 H481 0.930 . S
C491 C484 1.409 . S
C491 C490 1.362 . S
H492 C498 0.930 . S
H493 C501 0.930 . S
H494 C502 0.930 . S
H495 C503 0.930 . S
H496 C506 0.930 . S
H497 C507 0.930 . S
C498 H492 0.930 . S
C498 C499 1.355 . S
C498 C500 1.415 . S
C499 C498 1.355 . S
C499 C501 1.419 . S
C500 C498 1.415 . S
C500 C505 1.425 . S
C500 C507 1.409 . S
C501 H493 0.930 . S
C501 C499 1.419 . S
C501 C502 1.362 . S
C502 H494 0.930 . S
C502 C501 1.362 . S
C502 C505 1.409 . S
C503 H495 0.930 . S
C503 C504 1.355 . S
C503 C505 1.415 . S
C504 C503 1.355 . S
C504 C506 1.419 . S
C505 C500 1.425 . S
C505 C502 1.409 . S
C505 C503 1.415 . S
C506 H496 0.930 . S
C506 C504 1.419 . S
C506 C507 1.362 . S
C507 H497 0.930 . S
C507 C500 1.409 . S
C507 C506 1.362 . S
H508 C514 0.930 . S
H509 C517 0.930 . S
H510 C518 0.930 . S
H511 C519 0.930 . S
H512 C522 0.930 . S
H513 C523 0.930 . S
C514 H508 0.930 . S
C514 C515 1.355 . S
C514 C516 1.415 . S
C515 C514 1.355 . S
C515 C517 1.419 . S
C516 C514 1.415 . S
C516 C521 1.425 . S
C516 C523 1.409 . S
C517 H509 0.930 . S
C517 C515 1.419 . S
C517 C518 1.362 . S
C518 H510 0.930 . S
C518 C517 1.362 . S
C518 C521 1.409 . S
C519 H511 0.930 . S
C519 C520 1.355 . S
C519 C521 1.415 . S
C520 C519 1.355 . S
C520 C522 1.419 . S
C521 C516 1.425 . S
C521 C518 1.409 . S
C521 C519 1.415 . S
C522 H512 0.930 . S
C522 C520 1.419 . S
C522 C523 1.362 . S
C523 H513 0.930 . S
C523 C516 1.409 . S
C523 C522 1.362 . S
H524 C530 0.930 . S
H525 C533 0.930 . S
H526 C534 0.930 . S
H527 C535 0.930 . S
H528 C538 0.930 . S
H529 C539 0.930 . S
C530 H524 0.930 . S
C530 C531 1.355 . S
C530 C532 1.415 . S
C531 C530 1.355 . S
C531 C533 1.419 . S
C532 C530 1.415 . S
C532 C537 1.425 . S
C532 C539 1.409 . S
C533 H525 0.930 . S
C533 C531 1.419 . S
C533 C534 1.362 . S
C534 H526 0.930 . S
C534 C533 1.362 . S
C534 C537 1.409 . S
C535 H527 0.930 . S
C535 C536 1.355 . S
C535 C537 1.415 . S
C536 C535 1.355 . S
C536 C538 1.419 . S
C537 C532 1.425 . S
C537 C534 1.409 . S
C537 C535 1.415 . S
C538 H528 0.930 . S
C538 C536 1.419 . S
C538 C539 1.362 . S
C539 H529 0.930 . S
C539 C532 1.409 . S
C539 C538 1.362 . S
H540 C546 0.930 . S
H541 C549 0.930 . S
H542 C550 0.930 . S
H543 C551 0.930 . S
H544 C554 0.930 . S
H545 C555 0.930 . S
C546 H540 0.930 . S
C546 C547 1.355 . S
C546 C548 1.415 . S
C547 C546 1.355 . S
C547 C549 1.419 . S
C548 C546 1.415 . S
C548 C553 1.425 . S
C548 C555 1.409 . S
C549 H541 0.930 . S
C549 C547 1.419 . S
C549 C550 1.362 . S
C550 H542 0.930 . S
C550 C549 1.362 . S
C550 C553 1.409 . S
C551 H543 0.930 . S
C551 C552 1.355 . S
C551 C553 1.415 . S
C552 C551 1.355 . S
C552 C554 1.419 . S
C553 C548 1.425 . S
C553 C550 1.409 . S
C553 C551 1.415 . S
C554 H544 0.930 . S
C554 C552 1.419 . S
C554 C555 1.362 . S
C555 H545 0.930 . S
C555 C548 1.409 . S
C555 C554 1.362 . S
H556 C562 0.930 . S
H557 C565 0.930 . S
H558 C566 0.930 1_655 S
H559 C567 0.930 1_655 S
H560 C570 0.930 . S
H561 C571 0.930 . S
C562 H556 0.930 . S
C562 C563 1.355 . S
C562 C564 1.415 . S
C563 C562 1.355 . S
C563 C565 1.419 . S
C564 C562 1.415 . S
C564 C569 1.425 . S
C564 C571 1.409 . S
C565 H557 0.930 . S
C565 C563 1.419 . S
C565 C566 1.362 . S
C566 H558 0.930 1_455 S
C566 C565 1.362 . S
C566 C569 1.409 . S
C567 H559 0.930 1_455 S
C567 C568 1.355 . S
C567 C569 1.415 . S
C568 C567 1.355 . S
C568 C570 1.419 . S
C569 C564 1.425 . S
C569 C566 1.409 . S
C569 C567 1.415 . S
C570 H560 0.930 . S
C570 C568 1.419 . S
C570 C571 1.362 . S
C571 H561 0.930 . S
C571 C564 1.409 . S
C571 C570 1.362 . S
H572 C578 0.930 . S
H573 C581 0.930 . S
H574 C582 0.930 . S
H575 C583 0.930 . S
H576 C586 0.930 . S
H577 C587 0.930 . S
C578 H572 0.930 . S
C578 C579 1.355 . S
C578 C580 1.415 . S
C579 C578 1.355 . S
C579 C581 1.419 . S
C580 C578 1.415 . S
C580 C585 1.425 . S
C580 C587 1.409 . S
C581 H573 0.930 . S
C581 C579 1.419 . S
C581 C582 1.362 . S
C582 H574 0.930 . S
C582 C581 1.362 . S
C582 C585 1.409 . S
C583 H575 0.930 . S
C583 C584 1.355 . S
C583 C585 1.415 . S
C584 C583 1.355 . S
C584 C586 1.419 . S
C585 C580 1.425 . S
C585 C582 1.409 . S
C585 C583 1.415 . S
C586 H576 0.930 . S
C586 C584 1.419 . S
C586 C587 1.362 . S
C587 H577 0.930 . S
C587 C580 1.409 . S
C587 C586 1.362 . S
H588 C594 0.930 . S
H589 C597 0.930 . S
H590 C598 0.930 . S
H591 C599 0.930 . S
H592 C602 0.930 . S
H593 C603 0.930 . S
C594 H588 0.930 . S
C594 C595 1.355 . S
C594 C596 1.415 . S
C595 C594 1.355 . S
C595 C597 1.419 1_655 S
C596 C594 1.415 . S
C596 C601 1.425 1_655 S
C596 C603 1.409 . S
C597 H589 0.930 . S
C597 C595 1.419 1_455 S
C597 C598 1.362 . S
C598 H590 0.930 . S
C598 C597 1.362 . S
C598 C601 1.409 . S
C599 H591 0.930 . S
C599 C600 1.355 1_455 S
C599 C601 1.415 . S
C600 C599 1.355 1_655 S
C600 C602 1.419 . S
C601 C596 1.425 1_455 S
C601 C598 1.409 . S
C601 C599 1.415 . S
C602 H592 0.930 . S
C602 C600 1.419 . S
C602 C603 1.362 . S
C603 H593 0.930 . S
C603 C596 1.409 . S
C603 C602 1.362 . S
H604 C610 0.930 . S
H605 C613 0.930 . S
H606 C614 0.930 . S
H607 C615 0.930 . S
H608 C618 0.930 . S
H609 C619 0.930 . S
C610 H604 0.930 . S
C610 C611 1.355 . S
C610 C612 1.415 . S
C611 C610 1.355 . S
C611 C613 1.419 . S
C612 C610 1.415 . S
C612 C617 1.425 . S
C612 C619 1.409 . S
C613 H605 0.930 . S
C613 C611 1.419 . S
C613 C614 1.362 . S
C614 H606 0.930 . S
C614 C613 1.362 . S
C614 C617 1.409 . S
C615 H607 0.930 . S
C615 C616 1.355 . S
C615 C617 1.415 . S
C616 C615 1.355 . S
C616 C618 1.419 . S
C617 C612 1.425 . S
C617 C614 1.409 . S
C617 C615 1.415 . S
C618 H608 0.930 . S
C618 C616 1.419 . S
C618 C619 1.362 . S
C619 H609 0.930 . S
C619 C612 1.409 . S
C619 C618 1.362 . S
H620 C626 0.930 . S
H621 C629 0.930 . S
H622 C630 0.930 . S
H623 C631 0.930 . S
H624 C634 0.930 . S
H625 C635 0.930 . S
C626 H620 0.930 . S
C626 C627 1.355 . S
C626 C628 1.415 . S
C627 C626 1.355 . S
C627 C629 1.419 . S
C628 C626 1.415 . S
C628 C633 1.425 . S
C628 C635 1.409 . S
C629 H621 0.930 . S
C629 C627 1.419 . S
C629 C630 1.362 . S
C630 H622 0.930 . S
C630 C629 1.362 . S
C630 C633 1.409 . S
C631 H623 0.930 . S
C631 C632 1.355 . S
C631 C633 1.415 . S
C632 C631 1.355 . S
C632 C634 1.419 . S
C633 C628 1.425 . S
C633 C630 1.409 . S
C633 C631 1.415 . S
C634 H624 0.930 . S
C634 C632 1.419 . S
C634 C635 1.362 . S
C635 H625 0.930 . S
C635 C628 1.409 . S
C635 C634 1.362 . S
H636 C642 0.930 . S
H637 C645 0.930 . S
H638 C646 0.930 . S
H639 C647 0.930 . S
H640 C650 0.930 . S
H641 C651 0.930 . S
C642 H636 0.930 . S
C642 C643 1.355 1_565 S
C642 C644 1.415 . S
C643 C642 1.355 1_545 S
C643 C645 1.419 1_556 S
C644 C642 1.415 . S
C644 C649 1.425 1_556 S
C644 C651 1.409 . S
C645 H637 0.930 . S
C645 C643 1.419 1_554 S
C645 C646 1.362 1_545 S
C646 H638 0.930 . S
C646 C645 1.362 1_565 S
C646 C649 1.409 . S
C647 H639 0.930 . S
C647 C648 1.355 . S
C647 C649 1.415 . S
C648 C647 1.355 . S
C648 C650 1.419 1_554 S
C649 C644 1.425 1_554 S
C649 C646 1.409 . S
C649 C647 1.415 . S
C650 H640 0.930 . S
C650 C648 1.419 1_556 S
C650 C651 1.362 . S
C651 H641 0.930 . S
C651 C644 1.409 . S
C651 C650 1.362 . S
H652 C658 0.930 . S
H653 C661 0.930 . S
H654 C662 0.930 . S
H655 C663 0.930 . S
H656 C666 0.930 . S
H657 C667 0.930 . S
C658 H652 0.930 . S
C658 C659 1.355 . S
C658 C660 1.415 . S
C659 C658 1.355 . S
C659 C661 1.419 . S
C660 C658 1.415 . S
C660 C665 1.425 . S
C660 C667 1.409 . S
C661 H653 0.930 . S
C661 C659 1.419 . S
C661 C662 1.362 . S
C662 H654 0.930 . S
C662 C661 1.362 . S
C662 C665 1.409 . S
C663 H655 0.930 . S
C663 C664 1.355 . S
C663 C665 1.415 . S
C664 C663 1.355 . S
C664 C666 1.419 . S
C665 C660 1.425 . S
C665 C662 1.409 . S
C665 C663 1.415 . S
C666 H656 0.930 . S
C666 C664 1.419 . S
C666 C667 1.362 . S
C667 H657 0.930 . S
C667 C660 1.409 . S
C667 C666 1.362 . S
H668 C674 0.930 . S
H669 C677 0.930 . S
H670 C678 0.930 . S
H671 C679 0.930 . S
H672 C682 0.930 . S
H673 C683 0.930 . S
C674 H668 0.930 . S
C674 C675 1.355 . S
C674 C676 1.415 . S
C675 C674 1.355 . S
C675 C677 1.419 . S
C676 C674 1.415 . S
C676 C681 1.425 . S
C676 C683 1.409 . S
C677 H669 0.930 . S
C677 C675 1.419 . S
C677 C678 1.362 . S
C678 H670 0.930 . S
C678 C677 1.362 . S
C678 C681 1.409 . S
C679 H671 0.930 . S
C679 C680 1.355 . S
C679 C681 1.415 . S
C680 C679 1.355 . S
C680 C682 1.419 . S
C681 C676 1.425 . S
C681 C678 1.409 . S
C681 C679 1.415 . S
C682 H672 0.930 . S
C682 C680 1.419 . S
C682 C683 1.362 . S
C683 H673 0.930 . S
C683 C676 1.409 . S
C683 C682 1.362 . S
H684 C690 0.930 . S
H685 C693 0.930 . S
H686 C694 0.930 . S
H687 C695 0.930 . S
H688 C698 0.930 . S
H689 C699 0.930 . S
C690 H684 0.930 . S
C690 C691 1.355 . S
C690 C692 1.415 . S
C691 C690 1.355 . S
C691 C693 1.419 . S
C692 C690 1.415 . S
C692 C697 1.425 . S
C692 C699 1.409 . S
C693 H685 0.930 . S
C693 C691 1.419 . S
C693 C694 1.362 . S
C694 H686 0.930 . S
C694 C693 1.362 . S
C694 C697 1.409 . S
C695 H687 0.930 . S
C695 C696 1.355 . S
C695 C697 1.415 . S
C696 C695 1.355 . S
C696 C698 1.419 . S
C697 C692 1.425 . S
C697 C694 1.409 . S
C697 C695 1.415 . S
C698 H688 0.930 . S
C698 C696 1.419 . S
C698 C699 1.362 . S
C699 H689 0.930 . S
C699 C692 1.409 . S
C699 C698 1.362 . S
H700 C706 0.930 . S
H701 C709 0.930 . S
H702 C710 0.930 . S
H703 C711 0.930 . S
H704 C714 0.930 . S
H705 C715 0.930 . S
C706 H700 0.930 . S
C706 C707 1.355 . S
C706 C708 1.415 . S
C707 C706 1.355 . S
C707 C709 1.419 . S
C708 C706 1.415 . S
C708 C713 1.425 . S
C708 C715 1.409 . S
C709 H701 0.930 . S
C709 C707 1.419 . S
C709 C710 1.362 . S
C710 H702 0.930 . S
C710 C709 1.362 . S
C710 C713 1.409 . S
C711 H703 0.930 . S
C711 C712 1.355 . S
C711 C713 1.415 . S
C712 C711 1.355 . S
C712 C714 1.419 . S
C713 C708 1.425 . S
C713 C710 1.409 . S
C713 C711 1.415 . S
C714 H704 0.930 . S
C714 C712 1.419 . S
C714 C715 1.362 . S
C715 H705 0.930 . S
C715 C708 1.409 . S
C715 C714 1.362 . S
H716 C722 0.930 . S
H717 C725 0.930 . S
H718 C726 0.930 . S
H719 C727 0.930 . S
H720 C730 0.930 . S
H721 C731 0.930 . S
C722 H716 0.930 . S
C722 C723 1.355 . S
C722 C724 1.415 . S
C723 C722 1.355 . S
C723 C725 1.419 . S
C724 C722 1.415 . S
C724 C729 1.425 . S
C724 C731 1.409 . S
C725 H717 0.930 . S
C725 C723 1.419 . S
C725 C726 1.362 . S
C726 H718 0.930 . S
C726 C725 1.362 . S
C726 C729 1.409 . S
C727 H719 0.930 . S
C727 C728 1.355 . S
C727 C729 1.415 . S
C728 C727 1.355 . S
C728 C730 1.419 . S
C729 C724 1.425 . S
C729 C726 1.409 . S
C729 C727 1.415 . S
C730 H720 0.930 . S
C730 C728 1.419 . S
C730 C731 1.362 . S
C731 H721 0.930 . S
C731 C724 1.409 . S
C731 C730 1.362 . S
H732 C738 0.930 . S
H733 C741 0.930 . S
H734 C742 0.930 . S
H735 C743 0.930 . S
H736 C746 0.930 . S
H737 C747 0.930 . S
C738 H732 0.930 . S
C738 C739 1.355 . S
C738 C740 1.415 . S
C739 C738 1.355 . S
C739 C741 1.419 . S
C740 C738 1.415 . S
C740 C745 1.425 . S
C740 C747 1.409 . S
C741 H733 0.930 . S
C741 C739 1.419 . S
C741 C742 1.362 . S
C742 H734 0.930 . S
C742 C741 1.362 . S
C742 C745 1.409 . S
C743 H735 0.930 . S
C743 C744 1.355 . S
C743 C745 1.415 . S
C744 C743 1.355 . S
C744 C746 1.419 . S
C745 C740 1.425 . S
C745 C742 1.409 . S
C745 C743 1.415 . S
C746 H736 0.930 . S
C746 C744 1.419 . S
C746 C747 1.362 . S
C747 H737 0.930 . S
C747 C740 1.409 . S
C747 C746 1.362 . S
H748 C754 0.930 . S
H749 C757 0.930 1_565 S
H750 C758 0.930 . S
H751 C759 0.930 1_565 S
H752 C762 0.930 . S
H753 C763 0.930 . S
C754 H748 0.930 . S
C754 C755 1.355 . S
C754 C756 1.415 . S
C755 C754 1.355 . S
C755 C757 1.419 . S
C756 C754 1.415 . S
C756 C761 1.425 . S
C756 C763 1.409 . S
C757 H749 0.930 1_545 S
C757 C755 1.419 . S
C757 C758 1.362 1_545 S
C758 H750 0.930 . S
C758 C757 1.362 1_565 S
C758 C761 1.409 1_565 S
C759 H751 0.930 1_545 S
C759 C760 1.355 . S
C759 C761 1.415 . S
C760 C759 1.355 . S
C760 C762 1.419 . S
C761 C756 1.425 . S
C761 C758 1.409 1_545 S
C761 C759 1.415 . S
C762 H752 0.930 . S
C762 C760 1.419 . S
C762 C763 1.362 . S
C763 H753 0.930 . S
C763 C756 1.409 . S
C763 C762 1.362 . S
H764 C770 0.930 . S
H765 C773 0.930 . S
H766 C774 0.930 . S
H767 C775 0.930 . S
H768 C778 0.930 . S
H769 C779 0.930 . S
C770 H764 0.930 . S
C770 C771 1.355 . S
C770 C772 1.415 . S
C771 C770 1.355 . S
C771 C773 1.419 . S
C772 C770 1.415 . S
C772 C777 1.425 . S
C772 C779 1.409 . S
C773 H765 0.930 . S
C773 C771 1.419 . S
C773 C774 1.362 . S
C774 H766 0.930 . S
C774 C773 1.362 . S
C774 C777 1.409 . S
C775 H767 0.930 . S
C775 C776 1.355 . S
C775 C777 1.415 . S
C776 C775 1.355 . S
C776 C778 1.419 . S
C777 C772 1.425 . S
C777 C774 1.409 . S
C777 C775 1.415 . S
C778 H768 0.930 . S
C778 C776 1.419 . S
C778 C779 1.362 . S
C779 H769 0.930 . S
C779 C772 1.409 . S
C779 C778 1.362 . S
H780 C786 0.930 . S
H781 C789 0.930 . S
H782 C790 0.930 . S
H783 C791 0.930 . S
H784 C794 0.930 . S
H785 C795 0.930 . S
C786 H780 0.930 . S
C786 C787 1.355 . S
C786 C788 1.415 . S
C787 C786 1.355 . S
C787 C789 1.419 . S
C788 C786 1.415 . S
C788 C793 1.425 . S
C788 C795 1.409 . S
C789 H781 0.930 . S
C789 C787 1.419 . S
C789 C790 1.362 . S
C790 H782 0.930 . S
C790 C789 1.362 . S
C790 C793 1.409 . S
C791 H783 0.930 . S
C791 C792 1.355 . S
C791 C793 1.415 . S
C792 C791 1.355 . S
C792 C794 1.419 . S
C793 C788 1.425 . S
C793 C790 1.409 . S
C793 C791 1.415 . S
C794 H784 0.930 . S
C794 C792 1.419 . S
C794 C795 1.362 . S
C795 H785 0.930 . S
C795 C788 1.409 . S
C795 C794 1.362 . S
H796 C802 0.930 . S
H797 C805 0.930 . S
H798 C806 0.930 . S
H799 C807 0.930 . S
H800 C810 0.930 . S
H801 C811 0.930 . S
C802 H796 0.930 . S
C802 C803 1.355 . S
C802 C804 1.415 . S
C803 C802 1.355 . S
C803 C805 1.419 . S
C804 C802 1.415 . S
C804 C809 1.425 . S
C804 C811 1.409 . S
C805 H797 0.930 . S
C805 C803 1.419 . S
C805 C806 1.362 . S
C806 H798 0.930 . S
C806 C805 1.362 . S
C806 C809 1.409 . S
C807 H799 0.930 . S
C807 C808 1.355 . S
C807 C809 1.415 . S
C808 C807 1.355 . S
C808 C810 1.419 . S
C809 C804 1.425 . S
C809 C806 1.409 . S
C809 C807 1.415 . S
C810 H800 0.930 . S
C810 C808 1.419 . S
C810 C811 1.362 . S
C811 H801 0.930 . S
C811 C804 1.409 . S
C811 C810 1.362 . S
H812 C818 0.930 . S
H813 C821 0.930 . S
H814 C822 0.930 . S
H815 C823 0.930 1_455 S
H816 C826 0.930 1_565 S
H817 C827 0.930 1_565 S
C818 H812 0.930 . S
C818 C819 1.355 . S
C818 C820 1.404 1_455 S
C819 C818 1.355 . S
C819 C821 1.419 . S
C820 C818 1.404 1_655 S
C820 C825 1.423 1_655 S
C820 C827 1.423 . S
C821 H813 0.930 . S
C821 C819 1.419 . S
C821 C822 1.362 . S
C822 H814 0.930 . S
C822 C821 1.362 . S
C822 C825 1.409 . S
C823 H815 0.930 1_655 S
C823 C824 1.355 . S
C823 C825 1.415 1_655 S
C824 C823 1.355 . S
C824 C826 1.419 . S
C825 C820 1.423 1_455 S
C825 C822 1.409 . S
C825 C823 1.415 1_455 S
C826 H816 0.930 1_545 S
C826 C824 1.419 . S
C826 C827 1.362 . S
C827 H817 0.930 1_545 S
C827 C820 1.423 . S
C827 C826 1.362 . S
H828 C834 0.930 . S
H829 C837 0.930 . S
H830 C838 0.930 . S
H831 C839 0.930 . S
H832 C842 0.930 . S
H833 C843 0.930 . S
C834 H828 0.930 . S
C834 C835 1.355 . S
C834 C836 1.415 . S
C835 C834 1.355 . S
C835 C837 1.419 . S
C836 C834 1.415 . S
C836 C841 1.425 . S
C836 C843 1.409 . S
C837 H829 0.930 . S
C837 C835 1.419 . S
C837 C838 1.362 . S
C838 H830 0.930 . S
C838 C837 1.362 . S
C838 C841 1.409 . S
C839 H831 0.930 . S
C839 C840 1.355 . S
C839 C841 1.415 . S
C840 C839 1.355 . S
C840 C842 1.419 . S
C841 C836 1.425 . S
C841 C838 1.409 . S
C841 C839 1.415 . S
C842 H832 0.930 . S
C842 C840 1.419 . S
C842 C843 1.362 . S
C843 H833 0.930 . S
C843 C836 1.409 . S
C843 C842 1.362 . S
H844 C850 0.930 . S
H845 C853 0.930 . S
H846 C854 0.930 1_655 S
H847 C855 0.930 . S
H848 C858 0.930 . S
H849 C859 0.930 . S
C850 H844 0.930 . S
C850 C851 1.355 . S
C850 C852 1.415 . S
C851 C850 1.355 . S
C851 C853 1.419 1_455 S
C852 C850 1.415 . S
C852 C857 1.425 . S
C852 C859 1.409 . S
C853 H845 0.930 . S
C853 C851 1.419 1_655 S
C853 C854 1.362 1_655 S
C854 H846 0.930 1_455 S
C854 C853 1.362 1_455 S
C854 C857 1.409 . S
C855 H847 0.930 . S
C855 C856 1.355 . S
C855 C857 1.415 . S
C856 C855 1.355 . S
C856 C858 1.419 . S
C857 C852 1.425 . S
C857 C854 1.409 . S
C857 C855 1.415 . S
C858 H848 0.930 . S
C858 C856 1.419 . S
C858 C859 1.362 . S
C859 H849 0.930 . S
C859 C852 1.409 . S
C859 C858 1.362 . S
H860 C866 0.930 . S
H861 C869 0.930 . S
H862 C870 0.930 . S
H863 C871 0.930 . S
H864 C874 0.930 . S
H865 C875 0.930 . S
C866 H860 0.930 . S
C866 C867 1.355 . S
C866 C868 1.415 . S
C867 C866 1.355 . S
C867 C869 1.419 . S
C868 C866 1.415 . S
C868 C873 1.425 . S
C868 C875 1.409 . S
C869 H861 0.930 . S
C869 C867 1.419 . S
C869 C870 1.362 . S
C870 H862 0.930 . S
C870 C869 1.362 . S
C870 C873 1.409 . S
C871 H863 0.930 . S
C871 C872 1.355 . S
C871 C873 1.415 . S
C872 C871 1.355 . S
C872 C874 1.419 . S
C873 C868 1.425 . S
C873 C870 1.409 . S
C873 C871 1.415 . S
C874 H864 0.930 . S
C874 C872 1.419 . S
C874 C875 1.362 . S
C875 H865 0.930 . S
C875 C868 1.409 . S
C875 C874 1.362 . S
H876 C882 0.930 . S
H877 C885 0.930 . S
H878 C886 0.930 . S
H879 C887 0.930 . S
H880 C890 0.930 . S
H881 C891 0.930 . S
C882 H876 0.930 . S
C882 C883 1.355 1_455 S
C882 C884 1.415 . S
C883 C882 1.355 1_655 S
C883 C885 1.419 . S
C884 C882 1.415 . S
C884 C889 1.425 1_455 S
C884 C891 1.409 . S
C885 H877 0.930 . S
C885 C883 1.419 . S
C885 C886 1.362 . S
C886 H878 0.930 . S
C886 C885 1.362 . S
C886 C889 1.409 . S
C887 H879 0.930 . S
C887 C888 1.355 1_655 S
C887 C889 1.415 . S
C888 C887 1.355 1_455 S
C888 C890 1.419 . S
C889 C884 1.425 1_655 S
C889 C886 1.409 . S
C889 C887 1.415 . S
C890 H880 0.930 . S
C890 C888 1.419 . S
C890 C891 1.362 . S
C891 H881 0.930 . S
C891 C884 1.409 . S
C891 C890 1.362 . S
H892 C898 0.930 . S
H893 C901 0.930 . S
H894 C902 0.930 . S
H895 C903 0.930 . S
H896 C906 0.930 . S
H897 C907 0.930 . S
C898 H892 0.930 . S
C898 C899 1.355 . S
C898 C900 1.415 . S
C899 C898 1.355 . S
C899 C901 1.419 . S
C900 C898 1.415 . S
C900 C905 1.425 . S
C900 C907 1.409 . S
C901 H893 0.930 . S
C901 C899 1.419 . S
C901 C902 1.362 . S
C902 H894 0.930 . S
C902 C901 1.362 . S
C902 C905 1.409 . S
C903 H895 0.930 . S
C903 C904 1.355 . S
C903 C905 1.415 . S
C904 C903 1.355 . S
C904 C906 1.419 . S
C905 C900 1.425 . S
C905 C902 1.409 . S
C905 C903 1.415 . S
C906 H896 0.930 . S
C906 C904 1.419 . S
C906 C907 1.362 . S
C907 H897 0.930 . S
C907 C900 1.409 . S
C907 C906 1.362 . S
H908 C914 0.930 . S
H909 C917 0.930 . S
H910 C918 0.930 1_655 S
H911 C919 0.930 1_655 S
H912 C922 0.930 . S
H913 C923 0.930 . S
C914 H908 0.930 . S
C914 C915 1.355 . S
C914 C916 1.415 . S
C915 C914 1.355 . S
C915 C917 1.419 . S
C916 C914 1.415 . S
C916 C921 1.425 . S
C916 C923 1.409 . S
C917 H909 0.930 . S
C917 C915 1.419 . S
C917 C918 1.362 . S
C918 H910 0.930 1_455 S
C918 C917 1.362 . S
C918 C921 1.409 . S
C919 H911 0.930 1_455 S
C919 C920 1.355 . S
C919 C921 1.415 . S
C920 C919 1.355 . S
C920 C922 1.419 . S
C921 C916 1.425 . S
C921 C918 1.409 . S
C921 C919 1.415 . S
C922 H912 0.930 . S
C922 C920 1.419 . S
C922 C923 1.362 . S
C923 H913 0.930 . S
C923 C916 1.409 . S
C923 C922 1.362 . S
H924 C930 0.930 . S
H925 C933 0.930 . S
H926 C934 0.930 . S
H927 C935 0.930 . S
H928 C938 0.930 . S
H929 C939 0.930 . S
C930 H924 0.930 . S
C930 C931 1.355 . S
C930 C932 1.415 . S
C931 C930 1.355 . S
C931 C933 1.419 . S
C932 C930 1.415 . S
C932 C937 1.425 . S
C932 C939 1.409 . S
C933 H925 0.930 . S
C933 C931 1.419 . S
C933 C934 1.362 . S
C934 H926 0.930 . S
C934 C933 1.362 . S
C934 C937 1.409 . S
C935 H927 0.930 . S
C935 C936 1.355 . S
C935 C937 1.415 . S
C936 C935 1.355 . S
C936 C938 1.419 . S
C937 C932 1.425 . S
C937 C934 1.409 . S
C937 C935 1.415 . S
C938 H928 0.930 . S
C938 C936 1.419 . S
C938 C939 1.362 . S
C939 H929 0.930 . S
C939 C932 1.409 . S
C939 C938 1.362 . S
H940 C946 0.930 . S
H941 C949 0.930 . S
H942 C950 0.930 . S
H943 C951 0.930 . S
H944 C954 0.930 . S
H945 C955 0.930 . S
C946 H940 0.930 . S
C946 C947 1.355 . S
C946 C948 1.415 . S
C947 C946 1.355 . S
C947 C949 1.419 . S
C948 C946 1.415 . S
C948 C953 1.425 . S
C948 C955 1.409 . S
C949 H941 0.930 . S
C949 C947 1.419 . S
C949 C950 1.362 . S
C950 H942 0.930 . S
C950 C949 1.362 . S
C950 C953 1.409 . S
C951 H943 0.930 . S
C951 C952 1.355 . S
C951 C953 1.415 . S
C952 C951 1.355 . S
C952 C954 1.419 . S
C953 C948 1.425 . S
C953 C950 1.409 . S
C953 C951 1.415 . S
C954 H944 0.930 . S
C954 C952 1.419 . S
C954 C955 1.362 . S
C955 H945 0.930 . S
C955 C948 1.409 . S
C955 C954 1.362 . S
H956 C962 0.930 . S
H957 C965 0.930 . S
H958 C966 0.930 . S
H959 C967 0.930 . S
H960 C970 0.930 . S
H961 C971 0.930 . S
C962 H956 0.930 . S
C962 C963 1.355 . S
C962 C964 1.415 . S
C963 C962 1.355 . S
C963 C965 1.419 . S
C964 C962 1.415 . S
C964 C969 1.425 . S
C964 C971 1.409 . S
C965 H957 0.930 . S
C965 C963 1.419 . S
C965 C966 1.362 . S
C966 H958 0.930 . S
C966 C965 1.362 . S
C966 C969 1.409 . S
C967 H959 0.930 . S
C967 C968 1.355 . S
C967 C969 1.415 . S
C968 C967 1.355 . S
C968 C970 1.419 . S
C969 C964 1.425 . S
C969 C966 1.409 . S
C969 C967 1.415 . S
C970 H960 0.930 . S
C970 C968 1.419 . S
C970 C971 1.362 . S
C971 H961 0.930 . S
C971 C964 1.409 . S
C971 C970 1.362 . S
H972 C978 0.930 1_556 S
H973 C981 0.930 . S
H974 C982 0.930 . S
H975 C983 0.930 . S
H976 C986 0.930 . S
H977 C987 0.930 . S
C978 H972 0.930 1_554 S
C978 C979 1.355 . S
C978 C980 1.415 . S
C979 C978 1.355 . S
C979 C981 1.419 . S
C980 C978 1.415 . S
C980 C985 1.425 . S
C980 C987 1.409 . S
C981 H973 0.930 . S
C981 C979 1.419 . S
C981 C982 1.362 . S
C982 H974 0.930 . S
C982 C981 1.362 . S
C982 C985 1.409 . S
C983 H975 0.930 . S
C983 C984 1.355 . S
C983 C985 1.415 . S
C984 C983 1.355 . S
C984 C986 1.419 . S
C985 C980 1.425 . S
C985 C982 1.409 . S
C985 C983 1.415 . S
C986 H976 0.930 . S
C986 C984 1.419 . S
C986 C987 1.362 . S
C987 H977 0.930 . S
C987 C980 1.409 . S
C987 C986 1.362 . S
H988 C994 0.930 . S
H989 C997 0.930 . S
H990 C998 0.930 . S
H991 C999 0.930 . S
H992 C1002 0.930 . S
H993 C1003 0.930 . S
C994 H988 0.930 . S
C994 C995 1.355 . S
C994 C996 1.415 . S
C995 C994 1.355 . S
C995 C997 1.419 . S
C996 C994 1.415 . S
C996 C1001 1.425 . S
C996 C1003 1.409 . S
C997 H989 0.930 . S
C997 C995 1.419 . S
C997 C998 1.362 . S
C998 H990 0.930 . S
C998 C997 1.362 . S
C998 C1001 1.409 . S
C999 H991 0.930 . S
C999 C1000 1.355 . S
C999 C1001 1.415 . S
C1000 C999 1.355 . S
C1000 C1002 1.419 . S
C1001 C996 1.425 . S
C1001 C998 1.409 . S
C1001 C999 1.415 . S
C1002 H992 0.930 . S
C1002 C1000 1.419 . S
C1002 C1003 1.362 . S
C1003 H993 0.930 . S
C1003 C996 1.409 . S
C1003 C1002 1.362 . S
H1004 C1010 0.930 . S
H1005 C1013 0.930 . S
H1006 C1014 0.930 . S
H1007 C1015 0.930 . S
H1008 C1018 0.930 . S
H1009 C1019 0.930 . S
C1010 H1004 0.930 . S
C1010 C1011 1.355 . S
C1010 C1012 1.415 . S
C1011 C1010 1.355 . S
C1011 C1013 1.419 . S
C1012 C1010 1.415 . S
C1012 C1017 1.425 . S
C1012 C1019 1.409 . S
C1013 H1005 0.930 . S
C1013 C1011 1.419 . S
C1013 C1014 1.362 . S
C1014 H1006 0.930 . S
C1014 C1013 1.362 . S
C1014 C1017 1.409 . S
C1015 H1007 0.930 . S
C1015 C1016 1.355 . S
C1015 C1017 1.415 . S
C1016 C1015 1.355 . S
C1016 C1018 1.419 . S
C1017 C1012 1.425 . S
C1017 C1014 1.409 . S
C1017 C1015 1.415 . S
C1018 H1008 0.930 . S
C1018 C1016 1.419 . S
C1018 C1019 1.362 . S
C1019 H1009 0.930 . S
C1019 C1012 1.409 . S
C1019 C1018 1.362 . S
H1020 C1026 0.930 . S
H1021 C1029 0.930 . S
H1022 C1030 0.930 . S
H1023 C1031 0.930 . S
H1024 C1034 0.930 . S
H1025 C1035 0.930 . S
C1026 H1020 0.930 . S
C1026 C1027 1.355 . S
C1026 C1028 1.415 . S
C1027 C1026 1.355 . S
C1027 C1029 1.419 . S
C1028 C1026 1.415 . S
C1028 C1033 1.425 . S
C1028 C1035 1.409 . S
C1029 H1021 0.930 . S
C1029 C1027 1.419 . S
C1029 C1030 1.362 . S
C1030 H1022 0.930 . S
C1030 C1029 1.362 . S
C1030 C1033 1.409 . S
C1031 H1023 0.930 . S
C1031 C1032 1.355 . S
C1031 C1033 1.415 . S
C1032 C1031 1.355 . S
C1032 C1034 1.419 . S
C1033 C1028 1.425 . S
C1033 C1030 1.409 . S
C1033 C1031 1.415 . S
C1034 H1024 0.930 . S
C1034 C1032 1.419 . S
C1034 C1035 1.362 . S
C1035 H1025 0.930 . S
C1035 C1028 1.409 . S
C1035 C1034 1.362 . S
H1036 C1042 0.930 . S
H1037 C1045 0.930 . S
H1038 C1046 0.930 . S
H1039 C1047 0.930 . S
H1040 C1050 0.930 . S
H1041 C1051 0.930 . S
C1042 H1036 0.930 . S
C1042 C1043 1.355 . S
C1042 C1044 1.415 . S
C1043 C1042 1.355 . S
C1043 C1045 1.419 . S
C1044 C1042 1.415 . S
C1044 C1049 1.425 . S
C1044 C1051 1.409 . S
C1045 H1037 0.930 . S
C1045 C1043 1.419 . S
C1045 C1046 1.362 . S
C1046 H1038 0.930 . S
C1046 C1045 1.362 . S
C1046 C1049 1.409 . S
C1047 H1039 0.930 . S
C1047 C1048 1.355 . S
C1047 C1049 1.415 . S
C1048 C1047 1.355 . S
C1048 C1050 1.419 . S
C1049 C1044 1.425 . S
C1049 C1046 1.409 . S
C1049 C1047 1.415 . S
C1050 H1040 0.930 . S
C1050 C1048 1.419 . S
C1050 C1051 1.362 . S
C1051 H1041 0.930 . S
C1051 C1044 1.409 . S
C1051 C1050 1.362 . S
H1052 C1058 0.930 . S
H1053 C1061 0.930 . S
H1054 C1062 0.930 . S
H1055 C1063 0.930 . S
H1056 C1066 0.930 . S
H1057 C1067 0.953 . S
C1058 H1052 0.930 . S
C1058 C1059 1.355 . S
C1058 C1060 1.415 . S
C1059 C1058 1.355 . S
C1059 C1061 1.419 . S
C1060 C1058 1.415 . S
C1060 C1065 1.425 . S
C1060 C1067 1.391 1_556 S
C1061 H1053 0.930 . S
C1061 C1059 1.419 . S
C1061 C1062 1.362 . S
C1062 H1054 0.930 . S
C1062 C1061 1.362 . S
C1062 C1065 1.409 . S
C1063 H1055 0.930 . S
C1063 C1064 1.355 . S
C1063 C1065 1.415 . S
C1064 C1063 1.355 . S
C1064 C1066 1.419 1_556 S
C1065 C1060 1.425 . S
C1065 C1062 1.409 . S
C1065 C1063 1.415 . S
C1066 H1056 0.930 . S
C1066 C1064 1.419 1_554 S
C1066 C1067 1.360 . S
C1067 H1057 0.953 . S
C1067 C1060 1.391 1_554 S
C1067 C1066 1.360 . S
H1068 C1074 0.930 . S
H1069 C1077 0.930 . S
H1070 C1078 0.930 . S
H1071 C1079 0.930 . S
H1072 C1082 0.930 . S
H1073 C1083 0.930 . S
C1074 H1068 0.930 . S
C1074 C1075 1.355 . S
C1074 C1076 1.415 . S
C1075 C1074 1.355 . S
C1075 C1077 1.419 . S
C1076 C1074 1.415 . S
C1076 C1081 1.425 . S
C1076 C1083 1.409 . S
C1077 H1069 0.930 . S
C1077 C1075 1.419 . S
C1077 C1078 1.362 . S
C1078 H1070 0.930 . S
C1078 C1077 1.362 . S
C1078 C1081 1.409 . S
C1079 H1071 0.930 . S
C1079 C1080 1.355 . S
C1079 C1081 1.415 . S
C1080 C1079 1.355 . S
C1080 C1082 1.419 . S
C1081 C1076 1.425 . S
C1081 C1078 1.409 . S
C1081 C1079 1.415 . S
C1082 H1072 0.930 . S
C1082 C1080 1.419 . S
C1082 C1083 1.362 . S
C1083 H1073 0.930 . S
C1083 C1076 1.409 . S
C1083 C1082 1.362 . S
H1084 C1090 0.930 . S
H1085 C1093 0.930 . S
H1086 C1094 0.930 . S
H1087 C1095 0.930 . S
H1088 C1098 0.930 1_556 S
H1089 C1099 0.930 . S
C1090 H1084 0.930 . S
C1090 C1091 1.355 . S
C1090 C1092 1.415 . S
C1091 C1090 1.355 . S
C1091 C1093 1.419 . S
C1092 C1090 1.415 . S
C1092 C1097 1.425 . S
C1092 C1099 1.409 . S
C1093 H1085 0.930 . S
C1093 C1091 1.419 . S
C1093 C1094 1.362 . S
C1094 H1086 0.930 . S
C1094 C1093 1.362 . S
C1094 C1097 1.409 . S
C1095 H1087 0.930 . S
C1095 C1096 1.355 . S
C1095 C1097 1.415 . S
C1096 C1095 1.355 . S
C1096 C1098 1.419 . S
C1097 C1092 1.425 . S
C1097 C1094 1.409 . S
C1097 C1095 1.415 . S
C1098 H1088 0.930 1_554 S
C1098 C1096 1.419 . S
C1098 C1099 1.362 . S
C1099 H1089 0.930 . S
C1099 C1092 1.409 . S
C1099 C1098 1.362 . S
H1100 C1106 0.930 . S
H1101 C1109 0.930 . S
H1102 C1110 0.930 1_556 S
H1103 C1111 0.930 . S
H1104 C1114 0.930 . S
H1105 C1115 0.930 1_545 S
C1106 H1100 0.930 . S
C1106 C1107 1.355 . S
C1106 C1108 1.415 1_545 S
C1107 C1106 1.355 . S
C1107 C1109 1.419 1_545 S
C1108 C1106 1.415 1_565 S
C1108 C1113 1.425 . S
C1108 C1115 1.409 . S
C1109 H1101 0.930 . S
C1109 C1107 1.419 1_565 S
C1109 C1110 1.362 . S
C1110 H1102 0.930 1_554 S
C1110 C1109 1.362 . S
C1110 C1113 1.409 . S
C1111 H1103 0.930 . S
C1111 C1112 1.355 . S
C1111 C1113 1.415 . S
C1112 C1111 1.355 . S
C1112 C1114 1.419 . S
C1113 C1108 1.425 . S
C1113 C1110 1.409 . S
C1113 C1111 1.415 . S
C1114 H1104 0.930 . S
C1114 C1112 1.419 . S
C1114 C1115 1.362 . S
C1115 H1105 0.930 1_565 S
C1115 C1108 1.409 . S
C1115 C1114 1.362 . S
C360 C202 1.617 . S
C355 C66 1.651 . S
C376 C215 1.288 . S
C371 C76 1.286 . S
C387 C93 1.773 . S
C392 C228 1.710 . S
C408 C241 1.491 . S
C403 C54 1.493 1_545 S
C424 C249 1.466 . S
C419 C126 1.505 . S
C440 C262 1.684 . S
C435 C150 1.722 . S
C451 C136 1.244 . S
C456 C275 1.209 . S
C472 C288 1.705 . S
C467 C117 1.751 . S
C483 C141 1.269 . S
C488 C306 1.245 . S
C504 C317 1.324 . S
C499 C112 1.370 . S
C515 C124 1.490 . S
C520 C301 1.482 . S
C536 C309 1.314 . S
C531 C148 1.315 . S
C547 C88 1.321 . S
C552 C332 1.332 . S
C563 C52 1.578 . S
C568 C322 1.557 . S
C579 C64 1.305 . S
C584 C327 1.281 . S
C595 C78 1.288 . S
C600 C330 1.256 1_655 S
C611 C45 1.659 . S
C616 C239 1.613 . S
C627 C177 1.761 . S
C632 C231 1.752 . S
C648 C200 1.452 . S
C643 C189 1.443 . S
C664 C205 1.572 . S
C659 C102 1.614 . S
C675 C57 1.712 . S
C680 C252 1.679 . S
C696 C291 1.433 . S
C691 C138 1.493 . S
C712 C244 1.752 . S
C707 C114 1.747 . S
C728 C270 1.649 . S
C723 C153 1.667 . S
C744 C280 1.649 . S
C739 C174 1.673 . S
C755 C184 1.271 . S
C760 C293 1.258 . S
C771 C105 1.782 . S
C776 C254 1.747 . S
C792 C267 1.452 . S
C787 C162 1.494 . S
C803 C42 1.505 . S
C808 C223 1.473 . S
C824 C236 1.686 . S
C819 C6 1.722 . S
C840 C197 1.252 . S
C835 C16 1.251 . S
C856 C210 1.735 . S
C851 C33 1.744 1_455 S
C867 C21 1.266 . S
C872 C319 1.238 . S
C883 C28 1.372 . S
C888 C304 1.325 . S
C899 C40 1.476 . S
C904 C314 1.444 . S
C915 C4 1.337 . S
C920 C296 1.316 . S
C936 C345 1.328 . S
C931 C100 1.321 . S
C952 C335 1.534 . S
C947 C160 1.579 . S
C968 C340 1.257 . S
C963 C172 1.293 . S
C979 C186 1.305 1_554 S
C984 C343 1.301 . S
C995 C129 1.662 . S
C1000 C265 1.619 . S
C1016 C257 1.740 . S
C1011 C69 1.765 . S
C1032 C278 1.461 . S
C1027 C81 1.449 . S
C1048 C283 1.607 . S
C1043 C90 1.624 . S
C1059 C165 1.704 . S
C1064 C226 1.707 . S
C1080 C213 1.484 . S
C1075 C18 1.494 . S
C1091 C30 1.753 . S
C1096 C218 1.742 . S
C1112 C192 1.655 . S
C1107 C9 1.672 . S
