# Generated by pormake.
# Topology pyr, (3,6)-cn, num edge types: 1
# Building blocks:
#     Node 0, Type 0, BuildingBlock: PAMTOO_clean_linker_0, # of connection points: 3
#     Node 1, Type 0, BuildingBlock: PAMTOO_clean_linker_0, # of connection points: 3
#     Node 2, Type 0, BuildingBlock: PAMTOO_clean_linker_0, # of connection points: 3
#     Node 3, Type 0, BuildingBlock: PAMTOO_clean_linker_0, # of connection points: 3
#     Node 4, Type 0, BuildingBlock: PAMTOO_clean_linker_0, # of connection points: 3
#     Node 5, Type 0, BuildingBlock: PAMTOO_clean_linker_0, # of connection points: 3
#     Node 6, Type 0, BuildingBlock: PAMTOO_clean_linker_0, # of connection points: 3
#     Node 7, Type 0, BuildingBlock: PAMTOO_clean_linker_0, # of connection points: 3
#     Node 8, Type 1, BuildingBlock: PAMTUU_clean_sbu_0, # of connection points: 6
#     Node 9, Type 1, BuildingBlock: PAMTUU_clean_sbu_0, # of connection points: 6
#     Node 10, Type 1, BuildingBlock: PAMTUU_clean_sbu_0, # of connection points: 6
#     Node 11, Type 1, BuildingBlock: PAMTUU_clean_sbu_0, # of connection points: 6
#     Edge 12, Type (0, 1), BuildingBlock: XIVTED_clean_linker_0, # of connection points: 2
#     Edge 13, Type (0, 1), BuildingBlock: XIVTED_clean_linker_0, # of connection points: 2
#     Edge 14, Type (0, 1), BuildingBlock: XIVTED_clean_linker_0, # of connection points: 2
#     Edge 15, Type (0, 1), BuildingBlock: XIVTED_clean_linker_0, # of connection points: 2
#     Edge 16, Type (0, 1), BuildingBlock: XIVTED_clean_linker_0, # of connection points: 2
#     Edge 17, Type (0, 1), BuildingBlock: XIVTED_clean_linker_0, # of connection points: 2
#     Edge 18, Type (0, 1), BuildingBlock: XIVTED_clean_linker_0, # of connection points: 2
#     Edge 19, Type (0, 1), BuildingBlock: XIVTED_clean_linker_0, # of connection points: 2
#     Edge 20, Type (0, 1), BuildingBlock: XIVTED_clean_linker_0, # of connection points: 2
#     Edge 21, Type (0, 1), BuildingBlock: XIVTED_clean_linker_0, # of connection points: 2
#     Edge 22, Type (0, 1), BuildingBlock: XIVTED_clean_linker_0, # of connection points: 2
#     Edge 23, Type (0, 1), BuildingBlock: XIVTED_clean_linker_0, # of connection points: 2
#     Edge 24, Type (0, 1), BuildingBlock: XIVTED_clean_linker_0, # of connection points: 2
#     Edge 25, Type (0, 1), BuildingBlock: XIVTED_clean_linker_0, # of connection points: 2
#     Edge 26, Type (0, 1), BuildingBlock: XIVTED_clean_linker_0, # of connection points: 2
#     Edge 27, Type (0, 1), BuildingBlock: XIVTED_clean_linker_0, # of connection points: 2
#     Edge 28, Type (0, 1), BuildingBlock: XIVTED_clean_linker_0, # of connection points: 2
#     Edge 29, Type (0, 1), BuildingBlock: XIVTED_clean_linker_0, # of connection points: 2
#     Edge 30, Type (0, 1), BuildingBlock: XIVTED_clean_linker_0, # of connection points: 2
#     Edge 31, Type (0, 1), BuildingBlock: XIVTED_clean_linker_0, # of connection points: 2
#     Edge 32, Type (0, 1), BuildingBlock: XIVTED_clean_linker_0, # of connection points: 2
#     Edge 33, Type (0, 1), BuildingBlock: XIVTED_clean_linker_0, # of connection points: 2
#     Edge 34, Type (0, 1), BuildingBlock: XIVTED_clean_linker_0, # of connection points: 2
#     Edge 35, Type (0, 1), BuildingBlock: XIVTED_clean_linker_0, # of connection points: 2
# Relax obj value: 0.169
# Max RMSD: 0.237
# Mean RMSD: 0.145
data_MOF--net-pyr--node1-PAMTUU_clean_sbu_0--node2-PAMTOO_clean_linker_0--edge1-XIVTED_clean_linker_0
_symmetry_space_group_name_H-M    P1
_symmetry_Int_Tables_number       1
_symmetry_cell_setting            triclinic
loop_
_symmetry_equiv_pos_as_xyz
'x, y, z'
_cell_length_a     37.886627
_cell_length_b     39.976384
_cell_length_c     36.789449
_cell_angle_alpha  90.588669
_cell_angle_beta   89.540134
_cell_angle_gamma 106.00333
loop_
_atom_site_label
_atom_site_type_symbol
_atom_site_fract_x
_atom_site_fract_y
_atom_site_fract_z
_atom_type_partial_charge
H0 H 0.31353 0.31701 0.29901 0.0
H1 H 0.3993 0.26745 0.27859 0.0
H2 H 0.37326 0.33285 0.19774 0.0
H3 H 0.38597 0.27418 0.16279 0.0
C4 C 0.3945 0.26234 0.18728 0.0
O5 O 0.41034 0.28849 0.21176 0.0
H6 H 0.36918 0.2442 0.1989 0.0
C7 C 0.33605 0.31382 0.28226 0.0
C8 C 0.34149 0.32877 0.24752 0.0
C9 C 0.35685 0.29183 0.29407 0.0
C10 C 0.38371 0.28519 0.27072 0.0
C11 C 0.3892 0.29976 0.23607 0.0
C12 C 0.36901 0.3223 0.22494 0.0
H13 H 0.22267 0.84579 0.74612 0.0
H14 H 0.15041 0.76984 0.67688 0.0
H15 H 0.23954 0.74459 0.73135 0.0
H16 H 0.19685 0.73968 0.63385 0.0
C17 C 0.19634 0.71698 0.65137 0.0
O18 O 0.18468 0.72203 0.68616 0.0
H19 H 0.17598 0.69436 0.63895 0.0
C20 C 0.21443 0.8201 0.73372 0.0
C21 C 0.23449 0.79638 0.74136 0.0
C22 C 0.18394 0.81101 0.71056 0.0
C23 C 0.17339 0.77732 0.6954 0.0
C24 C 0.19369 0.7536 0.70259 0.0
C25 C 0.2239 0.76296 0.72599 0.0
H26 H 0.73074 0.3439 0.94541 0.0
H27 H 0.64809 0.335 0.86342 0.0
H28 H 0.74077 0.42573 0.86761 0.0
H29 H 0.66427 0.4348 0.85838 0.0
C30 C 0.65498 0.41492 0.83649 0.0
O31 O 0.67987 0.39537 0.83306 0.0
H32 H 0.62776 0.39762 0.84454 0.0
C33 C 0.72012 0.35451 0.92226 0.0
C34 C 0.74007 0.387 0.90857 0.0
C35 C 0.68684 0.33538 0.90656 0.0
C36 C 0.6736 0.34923 0.87609 0.0
C37 C 0.69282 0.38204 0.86235 0.0
C38 C 0.72589 0.40079 0.87872 0.0
H39 H 0.8702 0.74285 0.46206 0.0
H40 H 0.86413 0.66261 0.38162 0.0
H41 H 0.95964 0.75025 0.38674 0.0
H42 H 0.9315 0.72482 0.31074 0.0
C43 C 0.92088 0.69661 0.31688 0.0
O44 O 0.92839 0.69123 0.35277 0.0
H45 H 0.89065 0.68904 0.31261 0.0
C46 C 0.88231 0.73234 0.43949 0.0
C47 C 0.91742 0.75075 0.42682 0.0
C48 C 0.86261 0.70052 0.42375 0.0
C49 C 0.87868 0.68694 0.39449 0.0
C50 C 0.91338 0.705 0.3809 0.0
C51 C 0.93264 0.73686 0.39704 0.0
H52 H 0.68757 0.82737 0.88601 0.0
H53 H 0.66735 0.77589 0.98922 0.0
H54 H 0.73769 0.74596 0.91132 0.0
H55 H 0.68438 0.6911 0.95144 0.0
C56 C 0.70012 0.70129 0.97656 0.0
O57 O 0.71136 0.73715 0.97729 0.0
H58 H 0.68173 0.69188 1.00019 0.0
C59 C 0.69032 0.80672 0.90368 0.0
C60 C 0.71349 0.7861 0.89341 0.0
C61 C 0.67382 0.80348 0.93825 0.0
C62 C 0.67915 0.77817 0.96211 0.0
C63 C 0.70208 0.75756 0.95223 0.0
C64 C 0.71924 0.76155 0.91809 0.0
H65 H 0.88869 0.22256 0.38335 0.0
H66 H 0.85064 0.31246 0.40759 0.0
H67 H 0.92594 0.28398 0.47945 0.0
H68 H 0.88134 0.33257 0.52331 0.0
C69 C 0.86441 0.32144 0.49928 0.0
O70 O 0.88672 0.32735 0.46877 0.0
H71 H 0.8531 0.29308 0.50468 0.0
C72 C 0.88933 0.24508 0.40028 0.0
C73 C 0.91023 0.25069 0.43222 0.0
C74 C 0.868 0.26737 0.39089 0.0
C75 C 0.86753 0.29543 0.41398 0.0
C76 C 0.8887 0.30146 0.44563 0.0
C77 C 0.91058 0.2796 0.4543 0.0
H78 H 0.3556 0.73711 0.16701 0.0
H79 H 0.35489 0.65443 0.24147 0.0
H80 H 0.43816 0.75155 0.25012 0.0
H81 H 0.46456 0.68842 0.26493 0.0
C82 C 0.43824 0.67076 0.27482 0.0
O83 O 0.41229 0.68918 0.27806 0.0
H84 H 0.42897 0.64953 0.25431 0.0
C85 C 0.36754 0.72719 0.18973 0.0
C86 C 0.39901 0.74878 0.20665 0.0
C87 C 0.35108 0.69311 0.20187 0.0
C88 C 0.36678 0.68058 0.23161 0.0
C89 C 0.39826 0.70147 0.24876 0.0
C90 C 0.41428 0.73546 0.23624 0.0
H91 H 0.11989 0.32831 0.80461 0.0
H92 H 0.19828 0.4287 0.79063 0.0
H93 H 0.20187 0.34513 0.71911 0.0
H94 H 0.2716 0.38743 0.75647 0.0
C95 C 0.26824 0.41314 0.74829 0.0
O96 O 0.23294 0.40944 0.73621 0.0
H97 H 0.2734 0.43036 0.77274 0.0
C98 C 0.14302 0.34506 0.79021 0.0
C99 C 0.15916 0.33166 0.76052 0.0
C100 C 0.15666 0.38032 0.80112 0.0
C101 C 0.18692 0.40178 0.78241 0.0
C102 C 0.20336 0.38872 0.75348 0.0
C103 C 0.18926 0.35415 0.74238 0.0
Tb104 Tb 0.08182 0.04766 0.57613 0.0
Tb105 Tb 1.00311 1.02853 0.62117 0.0
C106 C 0.01682 0.98015 0.5571 0.0
C107 C 0.17128 0.08756 0.52789 0.0
C108 C 0.22426 0.13863 0.4899 0.0
C109 C 0.23388 0.111 0.50672 0.0
C110 C 0.20756 0.08566 0.52549 0.0
C111 C 0.16171 0.11576 0.51247 0.0
C112 C 0.18805 0.14114 0.49355 0.0
C113 C 0.1439 0.05922 0.54562 0.0
O114 O 0.04808 0.07261 0.54458 0.0
O115 O 0.99893 0.06877 0.58385 0.0
O116 O 0.04053 0.07296 0.64887 0.0
O117 O 0.08193 0.09602 0.60352 0.0
O118 O 0.94548 1.01579 0.62428 0.0
O119 O 0.97867 1.02301 0.67275 0.0
O120 O 0.03022 0.98903 0.63458 0.0
O121 O 0.08779 1.02479 0.62813 0.0
O122 O 0.05238 0.99512 0.55832 0.0
O123 O 0.99297 0.99219 0.57553 0.0
C124 C 0.0175 0.0801 0.55398 0.0
O125 O 0.13929 0.06285 0.58039 0.0
O126 O 0.11278 0.04702 0.52877 0.0
C127 C 0.06642 0.09883 0.63504 0.0
C128 C 0.92153 0.98037 0.67541 0.0
C129 C 0.87553 0.92012 0.70766 0.0
C130 C 0.90234 0.94383 0.72828 0.0
C131 C 0.92491 0.97366 0.71241 0.0
C132 C 0.89474 0.95667 0.65461 0.0
C133 C 0.87184 0.92682 0.67066 0.0
C134 C 0.94556 1.01253 0.65954 0.0
C135 C 0.06552 0.99588 0.64009 0.0
H136 H 0.26165 0.10865 0.50489 0.0
H137 H 0.21539 0.06417 0.53758 0.0
H138 H 0.13377 0.11767 0.51431 0.0
H139 H 0.17971 0.16194 0.48061 0.0
H140 H 0.90525 0.93982 0.75706 0.0
H141 H 0.94487 0.99169 0.72927 0.0
H142 H 0.89127 0.96123 0.62607 0.0
H143 H 0.85131 0.909 0.65418 0.0
Tb144 Tb 0.58085 0.05149 0.08948 0.0
Tb145 Tb 0.51359 0.0352 1.02998 0.0
C146 C 0.57633 0.9992 1.02383 0.0
C147 C 0.65626 0.09251 0.15519 0.0
C148 C 0.70108 0.14659 0.19747 0.0
C149 C 0.71367 0.11818 0.18612 0.0
C150 C 0.69146 0.09144 0.16521 0.0
C151 C 0.64348 0.1209 0.166 0.0
C152 C 0.66572 0.14773 0.18719 0.0
C153 C 0.6338 0.06367 0.13338 0.0
O154 O 0.58809 0.09968 0.05991 0.0
O155 O 0.5593 0.0761 1.0074 0.0
O156 O 0.5089 0.07996 0.06095 0.0
O157 O 0.5389 0.0732 0.11328 0.0
O158 O 0.49856 0.03319 0.97525 0.0
O159 O 0.45733 1.02334 1.01774 0.0
O160 O 0.49391 0.99894 0.07488 0.0
O161 O 0.54925 0.9982 0.09944 0.0
O162 O 0.5973 1.02483 1.04306 0.0
O163 O 0.54112 0.99538 1.02016 0.0
C164 C 0.58109 0.1023 1.02534 0.0
O165 O 0.59949 0.05124 0.14302 0.0
O166 O 0.6377 0.06688 0.09827 0.0
C167 C 0.51711 0.08751 0.09517 0.0
C168 C 0.44209 0.99408 0.96133 0.0
C169 C 0.40679 0.93928 0.91451 0.0
C170 C 0.40759 0.97378 0.90654 0.0
C171 C 0.42506 1.00091 0.92978 0.0
C172 C 0.44083 0.95963 0.96999 0.0
C173 C 0.42296 0.93228 0.9468 0.0
C174 C 0.46361 1.02362 0.9828 0.0
C175 C 0.51376 0.98448 0.09561 0.0
H176 H 0.74046 0.11616 0.19412 0.0
H177 H 0.70169 0.06969 0.15706 0.0
H178 H 0.61638 0.12222 0.1582 0.0
H179 H 0.65537 0.16937 0.1954 0.0
H180 H 0.39481 0.97982 0.88214 0.0
H181 H 0.42597 1.02738 0.92267 0.0
H182 H 0.45428 0.95404 0.99416 0.0
H183 H 0.42272 0.9059 0.95349 0.0
Tb184 Tb 0.54887 0.51273 0.53558 0.0
Tb185 Tb 0.5483 0.58381 0.58142 0.0
C186 C 0.51741 0.57014 0.50145 0.0
C187 C 0.58515 0.44535 0.49479 0.0
C188 C 0.64674 0.41891 0.48842 0.0
C189 C 0.61089 0.39666 0.48494 0.0
C190 C 0.58034 0.40982 0.4881 0.0
C191 C 0.62077 0.46766 0.49773 0.0
C192 C 0.65123 0.45468 0.49425 0.0
C193 C 0.55333 0.45892 0.50146 0.0
O194 O 0.59738 0.55288 0.5182 0.0
O195 O 0.60552 0.59274 0.5653 0.0
O196 O 0.56348 0.54905 0.61999 0.0
O197 O 0.58597 0.51461 0.58104 0.0
O198 O 0.55509 0.63784 0.5841 0.0
O199 O 0.5366 0.60557 0.6307 0.0
O200 O 0.49182 0.5517 0.5791 0.0
O201 O 0.50245 0.49837 0.57298 0.0
O202 O 0.51251 0.53645 0.5054 0.0
O203 O 0.53658 0.59268 0.52504 0.0
C204 C 0.61751 0.58013 0.53595 0.0
O205 O 0.5432 0.45892 0.53536 0.0
O206 O 0.55448 0.48834 0.48586 0.0
C207 C 0.58196 0.52608 0.614 0.0
C208 C 0.5076 0.64882 0.61972 0.0
C209 C 0.44146 0.66686 0.63086 0.0
C210 C 0.47258 0.68249 0.65195 0.0
C211 C 0.5054 0.67333 0.64655 0.0
C212 C 0.47698 0.63414 0.59785 0.0
C213 C 0.44423 0.643 0.6034 0.0
C214 C 0.54028 0.63597 0.61637 0.0
C215 C 0.48132 0.51786 0.58317 0.0
H216 H 0.60636 0.36893 0.48093 0.0
H217 H 0.55299 0.39215 0.4862 0.0
H218 H 0.62502 0.49509 0.50341 0.0
H219 H 0.67833 0.47272 0.49645 0.0
H220 H 0.47116 0.70085 0.6734 0.0
H221 H 0.52871 0.68469 0.66387 0.0
H222 H 0.47814 0.61516 0.57697 0.0
H223 H 0.42092 0.63095 0.58635 0.0
Tb224 Tb 0.04506 0.56708 1.03891 0.0
Tb225 Tb 0.03887 0.5003 0.09142 0.0
C226 C 0.07111 0.50218 1.01225 0.0
C227 C 0.01156 0.63424 0.99961 0.0
C228 C 0.94669 0.65534 0.99462 0.0
C229 C 0.97217 0.6612 0.96567 0.0
C230 C 1.00438 0.65063 0.96815 0.0
C231 C 0.9867 0.62925 1.02886 0.0
C232 C 0.95467 0.63973 1.02643 0.0
C233 C 0.0418 0.61789 1.00055 0.0
O234 O 0.98695 0.53925 1.04244 0.0
O235 O 0.99234 0.48497 0.05474 0.0
O236 O 1.00455 0.52982 0.11731 0.0
O237 O 0.03524 0.58269 0.09409 0.0
O238 O 0.03025 0.44657 0.09849 0.0
O239 O 0.04169 0.48181 0.14428 0.0
O240 O 0.08876 0.53998 0.10636 0.0
O241 O 0.10176 0.57176 0.05395 0.0
O242 O 0.05576 0.52679 1.00381 0.0
O243 O 0.07425 0.49363 1.04627 0.0
C244 C 0.97372 0.50526 1.0415 0.0
O245 O 0.05982 0.62121 1.03102 0.0
O246 O 0.03304 0.58588 0.98873 0.0
C247 C 0.01346 0.56402 0.11874 0.0
C248 C 0.07001 0.4368 0.14332 0.0
C249 C 0.13105 0.41526 0.166 0.0
C250 C 0.09885 0.40807 0.1873 0.0
C251 C 0.06851 0.41875 0.17598 0.0
C252 C 0.10208 0.44397 0.12201 0.0
C253 C 0.13224 0.43315 0.13314 0.0
C254 C 0.03941 0.45043 0.13266 0.0
C255 C 0.1117 0.56277 0.08576 0.0
H256 H 0.96694 0.67343 0.94092 0.0
H257 H 0.02303 0.65423 0.94514 0.0
H258 H 0.99131 0.61595 0.05313 0.0
H259 H 0.93542 0.63419 0.04896 0.0
H260 H 0.09708 0.3941 0.21262 0.0
H261 H 0.04409 0.41332 0.19292 0.0
H262 H 0.10402 0.45844 0.097 0.0
H263 H 0.15682 0.43952 0.11643 0.0
H264 H 0.33663 0.31503 0.35954 0.0
H265 H 0.27273 0.12338 0.44151 0.0
H266 H 0.35287 0.22344 0.30659 0.0
H267 H 0.2367 0.20951 0.48429 0.0
H268 H 0.31295 0.16273 0.39905 0.0
H269 H 0.31037 0.27948 0.41208 0.0
C270 C 0.33509 0.28757 0.35911 0.0
C271 C 0.34666 0.27218 0.32839 0.0
C272 C 0.29651 0.17313 0.41793 0.0
C273 C 0.31692 0.23152 0.38843 0.0
C274 C 0.27371 0.15071 0.4424 0.0
C275 C 0.25113 0.16313 0.46638 0.0
C276 C 0.29674 0.20827 0.41727 0.0
C277 C 0.25321 0.19874 0.46586 0.0
C278 C 0.32017 0.26735 0.38911 0.0
C279 C 0.34465 0.23661 0.32966 0.0
N280 N 0.27544 0.22006 0.44148 0.0
N281 N 0.32973 0.21746 0.359 0.0
H282 H 0.24487 0.77348 0.80912 0.0
H283 H 0.41719 0.93833 0.84134 0.0
H284 H 0.29707 0.84632 0.72644 0.0
H285 H 0.3569 0.87646 0.92871 0.0
H286 H 0.38207 0.89619 0.79759 0.0
H287 H 0.29403 0.80212 0.85163 0.0
C288 C 0.26728 0.79491 0.79977 0.0
C289 C 0.26715 0.80785 0.76455 0.0
C290 C 0.37669 0.89153 0.82632 0.0
C291 C 0.32275 0.84076 0.81258 0.0
C292 C 0.39668 0.91563 0.85127 0.0
C293 C 0.38935 0.91116 0.88858 0.0
C294 C 0.34885 0.86284 0.83869 0.0
C295 C 0.36314 0.88092 0.9001 0.0
C296 C 0.29511 0.81136 0.82397 0.0
C297 C 0.29635 0.8358 0.75354 0.0
N298 N 0.34334 0.85811 0.87517 0.0
N299 N 0.3228 0.85154 0.77758 0.0
H300 H 0.6493 0.389 0.76572 0.0
H301 H 0.58898 0.55018 0.6844 0.0
H302 H 0.64738 0.48054 0.82765 0.0
H303 H 0.60934 0.46884 0.61635 0.0
H304 H 0.61024 0.52449 0.7369 0.0
H305 H 0.63492 0.41698 0.71058 0.0
C306 C 0.64654 0.41522 0.76757 0.0
C307 C 0.65042 0.43276 0.80123 0.0
C308 C 0.6103 0.51229 0.71049 0.0
C309 C 0.63283 0.46458 0.73849 0.0
C310 C 0.59808 0.52699 0.68038 0.0
C311 C 0.59724 0.51173 0.6457 0.0
C312 C 0.62151 0.48174 0.70629 0.0
C313 C 0.60954 0.48164 0.64245 0.0
C314 C 0.63815 0.43113 0.73615 0.0
C315 C 0.64537 0.46629 0.80222 0.0
N316 N 0.62088 0.46752 0.67233 0.0
N317 N 0.63679 0.48098 0.77149 0.0
H318 H 0.90354 0.62519 0.3086 0.0
H319 H 0.02896 0.63426 0.1301 0.0
H320 H 0.97524 0.71967 0.26554 0.0
H321 H 0.9676 0.53673 0.17678 0.0
H322 H 0.00859 0.66519 0.17967 0.0
H323 H 0.92628 0.59168 0.26173 0.0
C324 C 0.92441 0.63878 0.28956 0.0
C325 C 0.93757 0.67525 0.29101 0.0
C326 C 0.99954 0.63703 0.17926 0.0
C327 C 0.96331 0.63726 0.23699 0.0
C328 C 0.01113 0.6192 0.15076 0.0
C329 C 1.00007 0.58264 0.14903 0.0
C330 C 0.97639 0.61842 0.20657 0.0
C331 C 0.97687 0.56488 0.17686 0.0
C332 C 0.93725 0.6197 0.26273 0.0
C333 C 0.96436 0.69163 0.26551 0.0
N334 N 0.96575 0.58291 0.2044 0.0
N335 N 0.97613 0.6726 0.23956 0.0
H336 H 0.43487 0.26584 0.12468 0.0
H337 H 0.50863 0.10097 0.16803 0.0
H338 H 0.41335 0.21213 0.2269 0.0
H339 H 0.49654 0.13853 0.06051 0.0
H340 H 0.4849 0.14773 0.19377 0.0
H341 H 0.47046 0.22634 0.10489 0.0
C342 C 0.43807 0.2459 0.14307 0.0
C343 C 0.4207 0.24162 0.17709 0.0
C344 C 0.48765 0.14565 0.16458 0.0
C345 C 0.46108 0.19628 0.15474 0.0
C346 C 0.50114 0.11906 0.14992 0.0
C347 C 0.50398 0.11555 0.11209 0.0
C348 C 0.47772 0.16908 0.14115 0.0
C349 C 0.49418 0.1398 0.08981 0.0
C350 C 0.45821 0.22329 0.13178 0.0
C351 C 0.42604 0.21577 0.20022 0.0
N352 N 0.48153 0.16544 0.10466 0.0
N353 N 0.44548 0.1937 0.18847 0.0
H354 H 0.10951 0.80252 0.7039 0.0
H355 H 0.13643 1.00397 0.66044 0.0
H356 H 0.21434 0.87979 0.69591 0.0
H357 H 0.0308 0.9275 0.6556 0.0
H358 H 0.16402 0.95887 0.67944 0.0
H359 H 0.07896 0.84767 0.69021 0.0
C360 C 0.12608 0.82889 0.69916 0.0
C361 C 0.16454 0.83742 0.70137 0.0
C362 C 0.13476 0.95187 0.67443 0.0
C363 C 0.12985 0.88911 0.6862 0.0
C364 C 0.11892 0.97771 0.6637 0.0
C365 C 0.08126 0.96949 0.65619 0.0
C366 C 0.1129 0.91739 0.67759 0.0
C367 C 0.05997 0.93499 0.66111 0.0
C368 C 0.10863 0.85466 0.6916 0.0
C369 C 0.18462 0.87207 0.69526 0.0
N370 N 0.07615 0.91009 0.67125 0.0
N371 N 0.16707 0.89654 0.68803 0.0
H372 H 0.79468 0.35956 0.93142 0.0
H373 H 0.926 0.53783 1.01051 0.0
H374 H 0.76717 0.45712 0.92492 0.0
H375 H 0.94022 0.43604 1.0301 0.0
H376 H 0.86958 0.51031 0.97687 0.0
H377 H 0.85033 0.38877 0.96423 0.0
C378 C 0.80027 0.38719 0.93697 0.0
C379 C 0.77577 0.40574 0.92575 0.0
C380 C 0.88502 0.49406 0.9887 0.0
C381 C 0.84021 0.4397 0.96331 0.0
C382 C 0.9172 0.50973 1.00801 0.0
C383 C 0.93801 0.48926 1.0233 0.0
C384 C 0.87368 0.45769 0.98438 0.0
C385 C 0.92521 0.45298 1.01895 0.0
C386 C 0.83221 0.40391 0.9557 0.0
C387 C 0.78522 0.44174 0.93295 0.0
N388 N 0.8941 0.43847 0.99985 0.0
N389 N 0.81661 0.45753 0.95141 0.0
H390 H 0.8318 0.62966 0.43079 0.0
H391 H 0.66031 0.6467 0.54938 0.0
H392 H 0.80849 0.72814 0.45089 0.0
H393 H 0.65898 0.55363 0.48829 0.0
H394 H 0.71978 0.67573 0.5215 0.0
H395 H 0.77258 0.59999 0.45844 0.0
C396 C 0.81429 0.64512 0.44068 0.0
C397 C 0.82565 0.68164 0.43863 0.0
C398 C 0.70643 0.6489 0.51435 0.0
C399 C 0.75816 0.64769 0.47134 0.0
C400 C 0.67262 0.63225 0.53041 0.0
C401 C 0.65453 0.59764 0.52119 0.0
C402 C 0.7226 0.63065 0.48937 0.0
C403 C 0.67179 0.58031 0.49621 0.0
C404 C 0.78057 0.62811 0.45673 0.0
C405 C 0.80167 0.70008 0.45259 0.0
N406 N 0.70488 0.59691 0.48132 0.0
N407 N 0.76934 0.68297 0.46856 0.0
H408 H 0.31139 0.3233 0.17947 0.0
H409 H 0.16104 0.42096 0.23412 0.0
H410 H 0.30999 0.37414 0.28341 0.0
H411 H 0.17522 0.38556 0.12518 0.0
H412 H 0.21516 0.40359 0.25307 0.0
H413 H 0.26239 0.34696 0.15886 0.0
C414 C 0.30135 0.34003 0.19778 0.0
C415 C 0.31495 0.34671 0.23331 0.0
C416 C 0.20651 0.39976 0.22499 0.0
C417 C 0.25781 0.37307 0.21009 0.0
C418 C 0.17545 0.40938 0.21424 0.0
C419 C 0.16357 0.40459 0.17805 0.0
C420 C 0.22564 0.38498 0.19941 0.0
C421 C 0.1836 0.38998 0.15329 0.0
C422 C 0.27302 0.35326 0.18606 0.0
C423 C 0.30004 0.36791 0.25598 0.0
N424 N 0.21353 0.38054 0.16447 0.0
N425 N 0.27208 0.38009 0.24409 0.0
H426 H 0.65223 0.27363 0.87133 0.0
H427 H 0.61986 0.16407 0.05593 0.0
H428 H 0.67573 0.3186 0.97855 0.0
H429 H 0.57696 0.1186 0.95292 0.0
H430 H 0.6427 0.22028 1.02659 0.0
H431 H 0.62526 0.21653 0.89921 0.0
C432 C 0.65139 0.27164 0.90067 0.0
C433 C 0.66677 0.30103 0.92254 0.0
C434 C 0.62831 0.19808 1.01029 0.0
C435 C 0.63646 0.23565 0.9546 0.0
C436 C 0.61536 0.16578 1.02705 0.0
C437 C 0.59645 0.13632 1.00694 0.0
C438 C 0.62264 0.20127 0.97292 0.0
C439 C 0.59141 0.14051 0.96956 0.0
C440 C 0.63621 0.23897 0.91657 0.0
C441 C 0.66503 0.29668 0.96046 0.0
N442 N 0.60448 0.17232 0.95375 0.0
N443 N 0.6505 0.26474 0.97515 0.0
H444 H 0.96249 0.81103 0.39652 0.0
H445 H 0.95448 0.92778 0.56993 0.0
H446 H 0.91817 0.76748 0.49962 0.0
H447 H 0.04821 0.95641 0.49789 0.0
H448 H 0.93341 0.87198 0.53787 0.0
H449 H 0.9889 0.86722 0.42736 0.0
C450 C 0.9585 0.81302 0.42555 0.0
C451 C 0.93725 0.78434 0.44517 0.0
C452 C 0.95857 0.8905 0.52904 0.0
C453 C 0.96656 0.84885 0.48026 0.0
C454 C 0.9705 0.92247 0.54717 0.0
C455 C 1.00321 0.94685 0.53662 0.0
C456 C 0.97895 0.88296 0.49955 0.0
C457 C 0.02293 0.9383 0.50702 0.0
C458 C 0.97343 0.84519 0.44304 0.0
C459 C 0.93307 0.78889 0.48284 0.0
N460 N 0.01035 0.90716 0.48928 0.0
N461 N 0.94702 0.82048 0.49891 0.0
H462 H 0.26413 0.76473 0.64872 0.0
H463 H 0.37375 0.6203 0.63552 0.0
H464 H 0.21276 0.65457 0.65659 0.0
H465 H 0.42788 0.73026 0.64244 0.0
H466 H 0.31466 0.63269 0.64392 0.0
H467 H 0.32455 0.75325 0.64752 0.0
C468 C 0.26572 0.73813 0.65018 0.0
C469 C 0.23362 0.71045 0.65202 0.0
C470 C 0.33941 0.65416 0.64377 0.0
C471 C 0.30227 0.69707 0.65081 0.0
C472 C 0.37315 0.64711 0.63876 0.0
C473 C 0.40574 0.67434 0.63791 0.0
C474 C 0.33805 0.68876 0.64772 0.0
C475 C 0.40341 0.70851 0.64299 0.0
C476 C 0.3001 0.73158 0.6496 0.0
C477 C 0.23694 0.67652 0.65456 0.0
N478 N 0.37009 0.7148 0.64737 0.0
N479 N 0.27064 0.67074 0.65354 0.0
H480 H 0.78558 0.7875 0.88242 0.0
H481 H 0.80076 0.89593 0.70118 0.0
H482 H 0.69156 0.803 0.82657 0.0
H483 H 0.89301 0.87559 0.75569 0.0
H484 H 0.75917 0.85283 0.73977 0.0
H485 H 0.82356 0.80974 0.82977 0.0
C486 C 0.77263 0.79479 0.85879 0.0
C487 C 0.7353 0.79382 0.85924 0.0
C488 C 0.78851 0.85736 0.74289 0.0
C489 C 0.77916 0.82044 0.79901 0.0
C490 C 0.81226 0.88182 0.72071 0.0
C491 C 0.85035 0.88979 0.72577 0.0
C492 C 0.80305 0.84093 0.77033 0.0
C493 C 0.86378 0.87082 0.75154 0.0
C494 C 0.79451 0.80782 0.82873 0.0
C495 C 0.7204 0.80411 0.8278 0.0
N496 N 0.84016 0.84765 0.7732 0.0
N497 N 0.74249 0.81753 0.79918 0.0
H498 H 0.88753 0.25253 0.3224 0.0
H499 H 0.68078 0.17751 0.2581 0.0
H500 H 0.795 0.26376 0.38549 0.0
H501 H 0.77486 0.17748 0.19121 0.0
H502 H 0.72163 0.21559 0.3018 0.0
H503 H 0.84672 0.23131 0.27112 0.0
C504 C 0.85861 0.25085 0.32523 0.0
C505 C 0.84449 0.2595 0.35825 0.0
C506 C 0.73328 0.20764 0.27731 0.0
C507 C 0.79746 0.23489 0.29989 0.0
C508 C 0.70994 0.18605 0.25226 0.0
C509 C 0.72452 0.17382 0.22128 0.0
C510 C 0.77143 0.21691 0.27137 0.0
C511 C 0.76254 0.18559 0.21519 0.0
C512 C 0.83531 0.23882 0.29596 0.0
C513 C 0.80693 0.25733 0.36043 0.0
N514 N 0.78469 0.2061 0.24021 0.0
N515 N 0.78457 0.24471 0.3318 0.0
H516 H 0.46815 0.70558 0.33709 0.0
H517 H 0.47897 0.53362 0.44324 0.0
H518 H 0.42459 0.60176 0.29436 0.0
H519 H 0.5205 0.63791 0.48605 0.0
H520 H 0.45632 0.55751 0.38986 0.0
H521 H 0.48461 0.68095 0.39329 0.0
C522 C 0.46168 0.67758 0.33977 0.0
C523 C 0.44497 0.65573 0.31104 0.0
C524 C 0.47027 0.57515 0.41102 0.0
C525 C 0.46412 0.62715 0.37513 0.0
C526 C 0.48322 0.56148 0.44158 0.0
C527 C 0.5019 0.58368 0.46931 0.0
C528 C 0.476 0.61134 0.408 0.0
C529 C 0.50647 0.61964 0.46544 0.0
C530 C 0.4712 0.66347 0.37177 0.0
C531 C 0.43742 0.61958 0.31583 0.0
N532 N 0.49379 0.63226 0.43547 0.0
N533 N 0.44719 0.60646 0.34708 0.0
H534 H 0.13675 0.44087 0.8014 0.0
H535 H 0.09498 0.44277 1.01553 0.0
H536 H 0.13932 0.35533 0.87073 0.0
H537 H 0.07638 0.5178 0.93977 0.0
H538 H 0.11333 0.41105 0.96438 0.0
H539 H 0.11583 0.46955 0.85279 0.0
C540 C 0.13269 0.42801 0.8275 0.0
C541 C 0.13994 0.39567 0.83173 0.0
C542 C 0.10521 0.43445 0.95904 0.0
C543 C 0.11614 0.42871 0.89127 0.0
C544 C 0.09492 0.45272 0.98826 0.0
C545 C 0.08411 0.48315 0.98212 0.0
C546 C 0.10498 0.4468 0.92339 0.0
C547 C 0.08441 0.49455 0.94606 0.0
C548 C 0.12071 0.44442 0.85692 0.0
C549 C 0.13386 0.38014 0.86619 0.0
N550 N 0.09469 0.47649 0.91828 0.0
N551 N 0.12263 0.39693 0.89472 0.0
H552 H 0.62106 0.82678 0.9042 0.0
H553 H 0.64155 0.9867 1.04112 0.0
H554 H 0.68768 0.84164 1.00072 0.0
H555 H 0.54654 0.94955 0.97251 0.0
H556 H 0.6641 0.93814 1.02016 0.0
H557 H 0.59737 0.87554 0.92356 0.0
C558 C 0.63035 0.84011 0.92962 0.0
C559 C 0.65605 0.83008 0.9511 0.0
C560 C 0.63837 0.94071 1.00963 0.0
C561 C 0.62992 0.88602 0.97285 0.0
C562 C 0.62564 0.96859 1.02132 0.0
C563 C 0.59208 0.97214 1.00859 0.0
C564 C 0.61765 0.91646 0.98471 0.0
C565 C 0.5725 0.9477 0.98314 0.0
C566 C 0.61692 0.86786 0.9406 0.0
C567 C 0.66745 0.84823 0.98368 0.0
N568 N 0.5856 0.92088 0.97197 0.0
N569 N 0.65454 0.87552 0.99342 0.0
H570 H 0.87988 0.18082 0.43673 0.0
H571 H 0.05711 0.13467 0.51285 0.0
H572 H 0.98087 0.26063 0.45638 0.0
H573 H 0.94637 0.07888 0.54292 0.0
H574 H 0.03267 0.17598 0.4787 0.0
H575 H 0.90759 0.13766 0.46188 0.0
C576 C 0.90811 0.18913 0.44583 0.0
C577 C 0.92818 0.22429 0.44454 0.0
C578 C 0.01387 0.15449 0.49261 0.0
C579 C 0.95991 0.17512 0.47331 0.0
C580 C 0.02769 0.13089 0.51184 0.0
C581 C 1.00365 0.10352 0.53081 0.0
C582 C 0.9758 0.15003 0.49174 0.0
C583 C 0.96582 0.09983 0.5289 0.0
C584 C 0.92377 0.16457 0.46037 0.0
C585 C 0.96449 0.23376 0.45714 0.0
N586 N 0.95305 0.12275 0.50962 0.0
N587 N 0.9793 0.20926 0.47102 0.0
H588 H 0.29107 0.64728 0.23362 0.0
H589 H 0.16921 0.61146 0.05311 0.0
H590 H 0.33286 0.68886 0.12906 0.0
H591 H 0.13901 0.55368 0.15243 0.0
H592 H 0.22864 0.64143 0.08028 0.0
H593 H 0.23465 0.61384 0.20428 0.0
C594 C 0.28867 0.64918 0.20446 0.0
C595 C 0.31701 0.6712 0.18397 0.0
C596 C 0.20901 0.62204 0.09599 0.0
C597 C 0.25169 0.63325 0.15011 0.0
C598 C 0.17505 0.60491 0.08049 0.0
C599 C 0.14884 0.58004 0.10047 0.0
C600 C 0.21674 0.61447 0.13184 0.0
C601 C 0.15812 0.57268 0.13589 0.0
C602 C 0.25622 0.63018 0.18771 0.0
C603 C 0.31165 0.67287 0.14624 0.0
N604 N 0.19107 0.58992 0.15043 0.0
N605 N 0.27965 0.65437 0.13063 0.0
H606 H 0.29404 0.48168 0.7287 0.0
H607 H 0.44837 0.44843 0.59416 0.0
H608 H 0.30447 0.37979 0.70136 0.0
H609 H 0.43374 0.5502 0.6155 0.0
H610 H 0.39336 0.42262 0.63018 0.0
H611 H 0.34254 0.50714 0.68434 0.0
C612 C 0.30648 0.46473 0.71312 0.0
C613 C 0.29582 0.42874 0.71904 0.0
C614 C 0.40198 0.45058 0.62676 0.0
C615 C 0.35118 0.45745 0.66833 0.0
C616 C 0.43345 0.46537 0.60612 0.0
C617 C 0.44593 0.5016 0.60187 0.0
C618 C 0.38286 0.47212 0.64357 0.0
C619 C 0.42528 0.52215 0.61803 0.0
C620 C 0.33412 0.47919 0.68785 0.0
C621 C 0.31234 0.40775 0.69792 0.0
N622 N 0.39499 0.50715 0.63838 0.0
N623 N 0.33943 0.42242 0.67377 0.0
H624 H 0.73824 0.68028 0.92104 0.0
H625 H 0.91021 0.68281 1.04652 0.0
H626 H 0.73982 0.69699 1.03696 0.0
H627 H 0.90129 0.64593 0.93534 0.0
H628 H 0.84893 0.69098 1.04236 0.0
H629 H 0.79862 0.66912 0.92468 0.0
C630 C 0.75105 0.68081 0.94734 0.0
C631 C 0.73389 0.68877 0.97889 0.0
C632 C 0.86036 0.68111 1.01885 0.0
C633 C 0.80318 0.67728 0.98318 0.0
C634 C 0.89537 0.67643 1.0212 0.0
C635 C 0.91091 0.66348 0.99129 0.0
C636 C 0.84066 0.67299 0.98628 0.0
C637 C 0.89061 0.65633 0.95896 0.0
C638 C 0.78554 0.67473 0.9494 0.0
C639 C 0.75195 0.69022 1.01218 0.0
N640 N 0.8565 0.6611 0.95733 0.0
N641 N 0.78569 0.68467 1.01346 0.0
H642 H 0.36345 0.79572 0.18193 0.0
H643 H 0.54777 0.94421 0.13446 0.0
H644 H 0.47223 0.78513 0.20027 0.0
H645 H 0.44047 0.94726 0.09867 0.0
H646 H 0.52006 0.88831 0.16306 0.0
H647 H 0.39065 0.85307 0.1559 0.0
C648 C 0.39308 0.80529 0.18041 0.0
C649 C 0.41548 0.78505 0.19306 0.0
C650 C 0.50251 0.90118 0.14904 0.0
C651 C 0.44692 0.85151 0.16362 0.0
C652 C 0.51831 0.93328 0.13268 0.0
C653 C 0.49649 0.95074 0.11398 0.0
C654 C 0.46444 0.88615 0.14703 0.0
C655 C 0.45846 0.9349 0.1127 0.0
C656 C 0.40859 0.83824 0.16564 0.0
C657 C 0.45373 0.79962 0.19117 0.0
N658 N 0.44368 0.90359 0.12899 0.0
N659 N 0.46816 0.8318 0.17667 0.0
H660 H 0.19882 0.28822 0.73475 0.0
H661 H 0.0297 0.12425 0.68884 0.0
H662 H 0.0872 0.29027 0.75611 0.0
H663 H 0.1319 0.14922 0.62901 0.0
H664 H 0.0513 0.17955 0.7225 0.0
H665 H 0.17577 0.23146 0.70565 0.0
C666 C 0.1694 0.27685 0.73336 0.0
C667 C 0.14499 0.29476 0.74734 0.0
C668 C 0.06892 0.17282 0.70202 0.0
C669 C 0.11837 0.22875 0.71453 0.0
C670 C 0.05672 0.14123 0.68288 0.0
C671 C 0.07901 0.13202 0.65598 0.0
C672 C 0.10399 0.19501 0.69479 0.0
C673 C 0.11368 0.15521 0.64933 0.0
C674 C 0.15629 0.24427 0.71677 0.0
C675 C 0.10716 0.27768 0.74579 0.0
N676 N 0.12515 0.18541 0.66873 0.0
N677 N 0.09501 0.2457 0.72955 0.0
H678 H 0.85877 0.3838 0.52672 0.0
H679 H 0.65892 0.36627 0.44534 0.0
H680 H 0.80014 0.29605 0.46176 0.0
H681 H 0.70893 0.43938 0.52987 0.0
H682 H 0.71259 0.34339 0.44571 0.0
H683 H 0.80662 0.40851 0.52204 0.0
C684 C 0.83485 0.36984 0.5114 0.0
C685 C 0.83333 0.33769 0.49505 0.0
C686 C 0.71177 0.36452 0.46406 0.0
C687 C 0.77377 0.36573 0.48929 0.0
C688 C 0.68106 0.37748 0.46402 0.0
C689 C 0.67931 0.40491 0.48754 0.0
C690 C 0.74102 0.37916 0.48767 0.0
C691 C 0.70919 0.4187 0.51074 0.0
C692 C 0.8051 0.38386 0.50875 0.0
C693 C 0.80204 0.32078 0.47502 0.0
N694 N 0.73872 0.40571 0.51019 0.0
N695 N 0.77335 0.33494 0.4728 0.0
loop_
_geom_bond_atom_site_label_1
_geom_bond_atom_site_label_2
_geom_bond_distance
_geom_bond_site_symmetry_2
_ccdc_geom_bond_type
H0 C7 0.929 . S
H1 C10 0.930 . S
H2 C12 0.929 . S
H3 C4 0.969 . S
C4 H3 0.969 . S
C4 O5 1.550 . S
C4 H6 0.973 . S
O5 C4 1.550 . S
O5 C11 1.412 . S
H6 C4 0.973 . S
C7 H0 0.929 . S
C7 C8 1.400 . S
C7 C9 1.364 . S
C8 C7 1.400 . S
C8 C12 1.377 . S
C9 C7 1.364 . S
C9 C10 1.374 . S
C10 H1 0.930 . S
C10 C9 1.374 . S
C10 C11 1.383 . S
C11 O5 1.412 . S
C11 C10 1.383 . S
C11 C12 1.394 . S
C12 H2 0.929 . S
C12 C8 1.377 . S
C12 C11 1.394 . S
H13 C20 0.929 . S
H14 C23 0.930 . S
H15 C25 0.929 . S
H16 C17 0.969 . S
C17 H16 0.969 . S
C17 O18 1.550 . S
C17 H19 0.973 . S
O18 C17 1.550 . S
O18 C24 1.412 . S
H19 C17 0.973 . S
C20 H13 0.929 . S
C20 C21 1.400 . S
C20 C22 1.364 . S
C21 C20 1.400 . S
C21 C25 1.377 . S
C22 C20 1.364 . S
C22 C23 1.374 . S
C23 H14 0.930 . S
C23 C22 1.374 . S
C23 C24 1.383 . S
C24 O18 1.412 . S
C24 C23 1.383 . S
C24 C25 1.394 . S
C25 H15 0.929 . S
C25 C21 1.377 . S
C25 C24 1.394 . S
H26 C33 0.929 . S
H27 C36 0.930 . S
H28 C38 0.929 . S
H29 C30 0.969 . S
C30 H29 0.969 . S
C30 O31 1.550 . S
C30 H32 0.973 . S
O31 C30 1.550 . S
O31 C37 1.412 . S
H32 C30 0.973 . S
C33 H26 0.929 . S
C33 C34 1.400 . S
C33 C35 1.364 . S
C34 C33 1.400 . S
C34 C38 1.377 . S
C35 C33 1.364 . S
C35 C36 1.374 . S
C36 H27 0.930 . S
C36 C35 1.374 . S
C36 C37 1.383 . S
C37 O31 1.412 . S
C37 C36 1.383 . S
C37 C38 1.394 . S
C38 H28 0.929 . S
C38 C34 1.377 . S
C38 C37 1.394 . S
H39 C46 0.929 . S
H40 C49 0.930 . S
H41 C51 0.929 . S
H42 C43 0.969 . S
C43 H42 0.969 . S
C43 O44 1.550 . S
C43 H45 0.973 . S
O44 C43 1.550 . S
O44 C50 1.412 . S
H45 C43 0.973 . S
C46 H39 0.929 . S
C46 C47 1.400 . S
C46 C48 1.364 . S
C47 C46 1.400 . S
C47 C51 1.377 . S
C48 C46 1.364 . S
C48 C49 1.374 . S
C49 H40 0.930 . S
C49 C48 1.374 . S
C49 C50 1.383 . S
C50 O44 1.412 . S
C50 C49 1.383 . S
C50 C51 1.394 . S
C51 H41 0.929 . S
C51 C47 1.377 . S
C51 C50 1.394 . S
H52 C59 0.929 . S
H53 C62 0.930 . S
H54 C64 0.929 . S
H55 C56 0.969 . S
C56 H55 0.969 . S
C56 O57 1.550 . S
C56 H58 0.973 . S
O57 C56 1.550 . S
O57 C63 1.412 . S
H58 C56 0.973 . S
C59 H52 0.929 . S
C59 C60 1.400 . S
C59 C61 1.364 . S
C60 C59 1.400 . S
C60 C64 1.377 . S
C61 C59 1.364 . S
C61 C62 1.374 . S
C62 H53 0.930 . S
C62 C61 1.374 . S
C62 C63 1.383 . S
C63 O57 1.412 . S
C63 C62 1.383 . S
C63 C64 1.394 . S
C64 H54 0.929 . S
C64 C60 1.377 . S
C64 C63 1.394 . S
H65 C72 0.929 . S
H66 C75 0.930 . S
H67 C77 0.929 . S
H68 C69 0.969 . S
C69 H68 0.969 . S
C69 O70 1.550 . S
C69 H71 0.973 . S
O70 C69 1.550 . S
O70 C76 1.412 . S
H71 C69 0.973 . S
C72 H65 0.929 . S
C72 C73 1.400 . S
C72 C74 1.364 . S
C73 C72 1.400 . S
C73 C77 1.377 . S
C74 C72 1.364 . S
C74 C75 1.374 . S
C75 H66 0.930 . S
C75 C74 1.374 . S
C75 C76 1.383 . S
C76 O70 1.412 . S
C76 C75 1.383 . S
C76 C77 1.394 . S
C77 H67 0.929 . S
C77 C73 1.377 . S
C77 C76 1.394 . S
H78 C85 0.929 . S
H79 C88 0.930 . S
H80 C90 0.929 . S
H81 C82 0.969 . S
C82 H81 0.969 . S
C82 O83 1.550 . S
C82 H84 0.973 . S
O83 C82 1.550 . S
O83 C89 1.412 . S
H84 C82 0.973 . S
C85 H78 0.929 . S
C85 C86 1.400 . S
C85 C87 1.364 . S
C86 C85 1.400 . S
C86 C90 1.377 . S
C87 C85 1.364 . S
C87 C88 1.374 . S
C88 H79 0.930 . S
C88 C87 1.374 . S
C88 C89 1.383 . S
C89 O83 1.412 . S
C89 C88 1.383 . S
C89 C90 1.394 . S
C90 H80 0.929 . S
C90 C86 1.377 . S
C90 C89 1.394 . S
H91 C98 0.929 . S
H92 C101 0.930 . S
H93 C103 0.929 . S
H94 C95 0.969 . S
C95 H94 0.969 . S
C95 O96 1.550 . S
C95 H97 0.973 . S
O96 C95 1.550 . S
O96 C102 1.412 . S
H97 C95 0.973 . S
C98 H91 0.929 . S
C98 C99 1.400 . S
C98 C100 1.364 . S
C99 C98 1.400 . S
C99 C103 1.377 . S
C100 C98 1.364 . S
C100 C101 1.374 . S
C101 H92 0.930 . S
C101 C100 1.374 . S
C101 C102 1.383 . S
C102 O96 1.412 . S
C102 C101 1.383 . S
C102 C103 1.394 . S
C103 H93 0.929 . S
C103 C99 1.377 . S
C103 C102 1.394 . S
Tb104 C113 2.764 . S
Tb104 O114 2.325 . S
Tb104 O117 2.303 . S
Tb104 O121 2.322 1_545 S
Tb104 O122 2.349 1_545 S
Tb104 O125 2.415 . S
Tb104 O126 2.399 . S
Tb105 O115 2.322 . S
Tb105 O116 2.349 1_655 S
Tb105 O118 2.415 1_545 S
Tb105 O119 2.399 . S
Tb105 O120 2.325 1_645 S
Tb105 O123 2.303 1_545 S
Tb105 C134 2.764 1_545 S
C106 O122 1.261 1_655 S
C106 O123 1.257 . S
C107 C110 1.358 . S
C107 C111 1.332 . S
C107 C113 1.504 . S
C108 C109 1.373 . S
C108 C112 1.308 . S
C109 C108 1.373 . S
C109 C110 1.429 . S
C109 H136 0.932 . S
C110 C107 1.358 . S
C110 C109 1.429 . S
C110 H137 0.930 . S
C111 C107 1.332 . S
C111 C112 1.394 . S
C111 H138 0.932 . S
C112 C108 1.308 . S
C112 C111 1.394 . S
C112 H139 0.929 . S
C113 Tb104 2.764 . S
C113 C107 1.504 . S
C113 O125 1.239 . S
C113 O126 1.263 . S
O114 Tb104 2.325 . S
O114 C124 1.236 1_455 S
O115 Tb105 2.322 . S
O115 C124 1.257 . S
O116 Tb105 2.349 1_455 S
O116 C127 1.261 . S
O117 Tb104 2.303 . S
O117 C127 1.257 . S
O118 Tb105 2.415 1_565 S
O118 C134 1.239 . S
O119 Tb105 2.399 . S
O119 C134 1.263 1_545 S
O120 Tb105 2.325 1_465 S
O120 C135 1.236 . S
O121 Tb104 2.322 1_565 S
O121 C135 1.257 . S
O122 Tb104 2.349 1_565 S
O122 C106 1.261 1_455 S
O123 Tb105 2.303 1_565 S
O123 C106 1.257 . S
C124 O114 1.236 1_655 S
C124 O115 1.257 . S
O125 Tb104 2.415 . S
O125 C113 1.239 . S
O126 Tb104 2.399 . S
O126 C113 1.263 . S
C127 O116 1.261 . S
C127 O117 1.257 . S
C128 C131 1.358 . S
C128 C132 1.332 . S
C128 C134 1.504 . S
C129 C130 1.373 . S
C129 C133 1.308 . S
C130 C129 1.373 . S
C130 C131 1.429 . S
C130 H140 0.932 . S
C131 C128 1.358 . S
C131 C130 1.429 . S
C131 H141 0.930 . S
C132 C128 1.332 . S
C132 C133 1.394 . S
C132 H142 0.932 . S
C133 C129 1.308 . S
C133 C132 1.394 . S
C133 H143 0.929 . S
C134 Tb105 2.764 1_565 S
C134 O118 1.239 . S
C134 O119 1.263 1_565 S
C134 C128 1.504 . S
C135 O120 1.236 . S
C135 O121 1.257 . S
H136 C109 0.932 . S
H137 C110 0.930 . S
H138 C111 0.932 . S
H139 C112 0.929 . S
H140 C130 0.932 . S
H141 C131 0.930 . S
H142 C132 0.932 . S
H143 C133 0.929 . S
Tb144 C153 2.764 . S
Tb144 O154 2.325 . S
Tb144 O157 2.303 . S
Tb144 O161 2.322 1_545 S
Tb144 O162 2.349 1_545 S
Tb144 O165 2.415 . S
Tb144 O166 2.399 . S
Tb145 O155 2.322 . S
Tb145 O156 2.349 1_556 S
Tb145 O158 2.415 1_545 S
Tb145 O159 2.399 1_545 S
Tb145 O160 2.325 1_546 S
Tb145 O163 2.303 1_545 S
Tb145 C174 2.764 1_545 S
C146 O162 1.261 1_556 S
C146 O163 1.257 . S
C147 C150 1.358 . S
C147 C151 1.332 . S
C147 C153 1.504 . S
C148 C149 1.373 . S
C148 C152 1.308 . S
C149 C148 1.373 . S
C149 C150 1.429 . S
C149 H176 0.932 . S
C150 C147 1.358 . S
C150 C149 1.429 . S
C150 H177 0.930 . S
C151 C147 1.332 . S
C151 C152 1.394 . S
C151 H178 0.932 . S
C152 C148 1.308 . S
C152 C151 1.394 . S
C152 H179 0.929 . S
C153 Tb144 2.764 . S
C153 C147 1.504 . S
C153 O165 1.239 . S
C153 O166 1.263 . S
O154 Tb144 2.325 . S
O154 C164 1.236 1_554 S
O155 Tb145 2.322 . S
O155 C164 1.257 . S
O156 Tb145 2.349 1_554 S
O156 C167 1.261 . S
O157 Tb144 2.303 . S
O157 C167 1.257 . S
O158 Tb145 2.415 1_565 S
O158 C174 1.239 . S
O159 Tb145 2.399 1_565 S
O159 C174 1.263 . S
O160 Tb145 2.325 1_564 S
O160 C175 1.236 . S
O161 Tb144 2.322 1_565 S
O161 C175 1.257 . S
O162 Tb144 2.349 1_565 S
O162 C146 1.261 1_554 S
O163 Tb145 2.303 1_565 S
O163 C146 1.257 . S
C164 O154 1.236 1_556 S
C164 O155 1.257 . S
O165 Tb144 2.415 . S
O165 C153 1.239 . S
O166 Tb144 2.399 . S
O166 C153 1.263 . S
C167 O156 1.261 . S
C167 O157 1.257 . S
C168 C171 1.358 . S
C168 C172 1.332 . S
C168 C174 1.504 . S
C169 C170 1.373 . S
C169 C173 1.308 . S
C170 C169 1.373 . S
C170 C171 1.429 . S
C170 H180 0.932 . S
C171 C168 1.358 . S
C171 C170 1.429 . S
C171 H181 0.930 . S
C172 C168 1.332 . S
C172 C173 1.394 . S
C172 H182 0.932 . S
C173 C169 1.308 . S
C173 C172 1.394 . S
C173 H183 0.929 . S
C174 Tb145 2.764 1_565 S
C174 O158 1.239 . S
C174 O159 1.263 . S
C174 C168 1.504 . S
C175 O160 1.236 . S
C175 O161 1.257 . S
H176 C149 0.932 . S
H177 C150 0.930 . S
H178 C151 0.932 . S
H179 C152 0.929 . S
H180 C170 0.932 . S
H181 C171 0.930 . S
H182 C172 0.932 . S
H183 C173 0.929 . S
Tb184 C193 2.764 . S
Tb184 O194 2.325 . S
Tb184 O197 2.303 . S
Tb184 O201 2.322 . S
Tb184 O202 2.349 . S
Tb184 O205 2.415 . S
Tb184 O206 2.399 . S
Tb185 O195 2.322 . S
Tb185 O196 2.349 . S
Tb185 O198 2.415 . S
Tb185 O199 2.399 . S
Tb185 O200 2.325 . S
Tb185 O203 2.303 . S
Tb185 C214 2.764 . S
C186 O202 1.261 . S
C186 O203 1.257 . S
C187 C190 1.358 . S
C187 C191 1.332 . S
C187 C193 1.504 . S
C188 C189 1.373 . S
C188 C192 1.308 . S
C189 C188 1.373 . S
C189 C190 1.429 . S
C189 H216 0.932 . S
C190 C187 1.358 . S
C190 C189 1.429 . S
C190 H217 0.930 . S
C191 C187 1.332 . S
C191 C192 1.394 . S
C191 H218 0.932 . S
C192 C188 1.308 . S
C192 C191 1.394 . S
C192 H219 0.929 . S
C193 Tb184 2.764 . S
C193 C187 1.504 . S
C193 O205 1.239 . S
C193 O206 1.263 . S
O194 Tb184 2.325 . S
O194 C204 1.236 . S
O195 Tb185 2.322 . S
O195 C204 1.257 . S
O196 Tb185 2.349 . S
O196 C207 1.261 . S
O197 Tb184 2.303 . S
O197 C207 1.257 . S
O198 Tb185 2.415 . S
O198 C214 1.239 . S
O199 Tb185 2.399 . S
O199 C214 1.263 . S
O200 Tb185 2.325 . S
O200 C215 1.236 . S
O201 Tb184 2.322 . S
O201 C215 1.257 . S
O202 Tb184 2.349 . S
O202 C186 1.261 . S
O203 Tb185 2.303 . S
O203 C186 1.257 . S
C204 O194 1.236 . S
C204 O195 1.257 . S
O205 Tb184 2.415 . S
O205 C193 1.239 . S
O206 Tb184 2.399 . S
O206 C193 1.263 . S
C207 O196 1.261 . S
C207 O197 1.257 . S
C208 C211 1.358 . S
C208 C212 1.332 . S
C208 C214 1.504 . S
C209 C210 1.373 . S
C209 C213 1.308 . S
C210 C209 1.373 . S
C210 C211 1.429 . S
C210 H220 0.932 . S
C211 C208 1.358 . S
C211 C210 1.429 . S
C211 H221 0.930 . S
C212 C208 1.332 . S
C212 C213 1.394 . S
C212 H222 0.932 . S
C213 C209 1.308 . S
C213 C212 1.394 . S
C213 H223 0.929 . S
C214 Tb185 2.764 . S
C214 O198 1.239 . S
C214 O199 1.263 . S
C214 C208 1.504 . S
C215 O200 1.236 . S
C215 O201 1.257 . S
H216 C189 0.932 . S
H217 C190 0.930 . S
H218 C191 0.932 . S
H219 C192 0.929 . S
H220 C210 0.932 . S
H221 C211 0.930 . S
H222 C212 0.932 . S
H223 C213 0.929 . S
Tb224 C233 2.764 1_454 S
Tb224 O234 2.325 1_455 S
Tb224 O237 2.303 . S
Tb224 O241 2.322 . S
Tb224 O242 2.349 1_554 S
Tb224 O245 2.415 1_455 S
Tb224 O246 2.399 1_454 S
Tb225 O235 2.322 1_455 S
Tb225 O236 2.352 . S
Tb225 O238 2.415 . S
Tb225 O239 2.399 . S
Tb225 O240 2.325 . S
Tb225 O243 2.303 . S
Tb225 C254 2.764 . S
C226 O242 1.261 . S
C226 O243 1.257 1_556 S
C227 C230 1.358 . S
C227 C231 1.332 . S
C227 C233 1.504 . S
C228 C229 1.373 . S
C228 C232 1.308 . S
C229 C228 1.373 . S
C229 C230 1.429 . S
C229 H256 0.932 . S
C230 C227 1.358 . S
C230 C229 1.429 . S
C230 H257 0.930 . S
C231 C227 1.332 . S
C231 C232 1.394 . S
C231 H258 0.932 1_556 S
C232 C228 1.308 . S
C232 C231 1.394 . S
C232 H259 0.929 . S
C233 Tb224 2.764 1_656 S
C233 C227 1.504 . S
C233 O245 1.239 1_556 S
C233 O246 1.263 . S
O234 Tb224 2.325 1_655 S
O234 C244 1.236 . S
O235 Tb225 2.322 1_655 S
O235 C244 1.257 . S
O236 Tb225 2.352 . S
O236 C247 1.260 1_455 S
O237 Tb224 2.303 . S
O237 C247 1.257 1_455 S
O238 Tb225 2.415 . S
O238 C254 1.239 . S
O239 Tb225 2.399 . S
O239 C254 1.263 . S
O240 Tb225 2.325 . S
O240 C255 1.236 . S
O241 Tb224 2.322 . S
O241 C255 1.257 . S
O242 Tb224 2.349 1_556 S
O242 C226 1.261 . S
O243 Tb225 2.303 . S
O243 C226 1.257 1_554 S
C244 O234 1.236 . S
C244 O235 1.257 . S
O245 Tb224 2.415 1_655 S
O245 C233 1.239 1_554 S
O246 Tb224 2.399 1_656 S
O246 C233 1.263 . S
C247 O236 1.260 1_655 S
C247 O237 1.257 1_655 S
C248 C251 1.358 . S
C248 C252 1.332 . S
C248 C254 1.504 . S
C249 C250 1.373 . S
C249 C253 1.308 . S
C250 C249 1.373 . S
C250 C251 1.429 . S
C250 H260 0.932 . S
C251 C248 1.358 . S
C251 C250 1.429 . S
C251 H261 0.930 . S
C252 C248 1.332 . S
C252 C253 1.394 . S
C252 H262 0.932 . S
C253 C249 1.308 . S
C253 C252 1.394 . S
C253 H263 0.929 . S
C254 Tb225 2.764 . S
C254 O238 1.239 . S
C254 O239 1.263 . S
C254 C248 1.504 . S
C255 O240 1.236 . S
C255 O241 1.257 . S
H256 C229 0.932 . S
H257 C230 0.930 . S
H258 C231 0.932 1_554 S
H259 C232 0.929 . S
H260 C250 0.932 . S
H261 C251 0.930 . S
H262 C252 0.932 . S
H263 C253 0.929 . S
H264 C270 0.930 . S
H265 C274 0.930 . S
H266 C279 0.929 . S
H267 C277 0.929 . S
H268 C272 0.929 . S
H269 C278 0.929 . S
C270 H264 0.930 . S
C270 C271 1.367 . S
C270 C278 1.378 . S
C271 C270 1.367 . S
C271 C279 1.433 . S
C272 H268 0.929 . S
C272 C274 1.378 . S
C272 C276 1.350 . S
C273 C276 1.463 . S
C273 C278 1.350 . S
C273 N281 1.427 . S
C274 H265 0.930 . S
C274 C272 1.378 . S
C274 C275 1.367 . S
C275 C274 1.367 . S
C275 C277 1.433 . S
C276 C272 1.350 . S
C276 C273 1.463 . S
C276 N280 1.427 . S
C277 H267 0.929 . S
C277 C275 1.433 . S
C277 N280 1.384 . S
C278 H269 0.929 . S
C278 C270 1.378 . S
C278 C273 1.350 . S
C279 H266 0.929 . S
C279 C271 1.433 . S
C279 N281 1.384 . S
N280 C276 1.427 . S
N280 C277 1.384 . S
N281 C273 1.427 . S
N281 C279 1.384 . S
H282 C288 0.930 . S
H283 C292 0.930 . S
H284 C297 0.929 . S
H285 C295 0.929 . S
H286 C290 0.929 . S
H287 C296 0.929 . S
C288 H282 0.930 . S
C288 C289 1.367 . S
C288 C296 1.378 . S
C289 C288 1.367 . S
C289 C297 1.433 . S
C290 H286 0.929 . S
C290 C292 1.378 . S
C290 C294 1.350 . S
C291 C294 1.463 . S
C291 C296 1.350 . S
C291 N299 1.427 . S
C292 H283 0.930 . S
C292 C290 1.378 . S
C292 C293 1.367 . S
C293 C292 1.367 . S
C293 C295 1.433 . S
C294 C290 1.350 . S
C294 C291 1.463 . S
C294 N298 1.427 . S
C295 H285 0.929 . S
C295 C293 1.433 . S
C295 N298 1.384 . S
C296 H287 0.929 . S
C296 C288 1.378 . S
C296 C291 1.350 . S
C297 H284 0.929 . S
C297 C289 1.433 . S
C297 N299 1.384 . S
N298 C294 1.427 . S
N298 C295 1.384 . S
N299 C291 1.427 . S
N299 C297 1.384 . S
H300 C306 0.930 . S
H301 C310 0.930 . S
H302 C315 0.929 . S
H303 C313 0.929 . S
H304 C308 0.929 . S
H305 C314 0.929 . S
C306 H300 0.930 . S
C306 C307 1.367 . S
C306 C314 1.378 . S
C307 C306 1.367 . S
C307 C315 1.433 . S
C308 H304 0.929 . S
C308 C310 1.378 . S
C308 C312 1.350 . S
C309 C312 1.463 . S
C309 C314 1.350 . S
C309 N317 1.427 . S
C310 H301 0.930 . S
C310 C308 1.378 . S
C310 C311 1.367 . S
C311 C310 1.367 . S
C311 C313 1.433 . S
C312 C308 1.350 . S
C312 C309 1.463 . S
C312 N316 1.427 . S
C313 H303 0.929 . S
C313 C311 1.433 . S
C313 N316 1.384 . S
C314 H305 0.929 . S
C314 C306 1.378 . S
C314 C309 1.350 . S
C315 H302 0.929 . S
C315 C307 1.433 . S
C315 N317 1.384 . S
N316 C312 1.427 . S
N316 C313 1.384 . S
N317 C309 1.427 . S
N317 C315 1.384 . S
H318 C324 0.930 . S
H319 C328 0.930 1_455 S
H320 C333 0.929 . S
H321 C331 0.929 . S
H322 C326 0.929 . S
H323 C332 0.929 . S
C324 H318 0.930 . S
C324 C325 1.367 . S
C324 C332 1.378 . S
C325 C324 1.367 . S
C325 C333 1.433 . S
C326 H322 0.929 . S
C326 C328 1.378 . S
C326 C330 1.350 . S
C327 C330 1.463 . S
C327 C332 1.350 . S
C327 N335 1.427 . S
C328 H319 0.930 1_655 S
C328 C326 1.378 . S
C328 C329 1.367 . S
C329 C328 1.367 . S
C329 C331 1.433 . S
C330 C326 1.350 . S
C330 C327 1.463 . S
C330 N334 1.427 . S
C331 H321 0.929 . S
C331 C329 1.433 . S
C331 N334 1.384 . S
C332 H323 0.929 . S
C332 C324 1.378 . S
C332 C327 1.350 . S
C333 H320 0.929 . S
C333 C325 1.433 . S
C333 N335 1.384 . S
N334 C330 1.427 . S
N334 C331 1.384 . S
N335 C327 1.427 . S
N335 C333 1.384 . S
H336 C342 0.930 . S
H337 C346 0.930 . S
H338 C351 0.929 . S
H339 C349 0.929 . S
H340 C344 0.929 . S
H341 C350 0.929 . S
C342 H336 0.930 . S
C342 C343 1.367 . S
C342 C350 1.378 . S
C343 C342 1.367 . S
C343 C351 1.433 . S
C344 H340 0.929 . S
C344 C346 1.378 . S
C344 C348 1.350 . S
C345 C348 1.463 . S
C345 C350 1.350 . S
C345 N353 1.427 . S
C346 H337 0.930 . S
C346 C344 1.378 . S
C346 C347 1.367 . S
C347 C346 1.367 . S
C347 C349 1.433 . S
C348 C344 1.350 . S
C348 C345 1.463 . S
C348 N352 1.427 . S
C349 H339 0.929 . S
C349 C347 1.433 . S
C349 N352 1.384 . S
C350 H341 0.929 . S
C350 C342 1.378 . S
C350 C345 1.350 . S
C351 H338 0.929 . S
C351 C343 1.433 . S
C351 N353 1.384 . S
N352 C348 1.427 . S
N352 C349 1.384 . S
N353 C345 1.427 . S
N353 C351 1.384 . S
H354 C360 0.930 . S
H355 C364 0.930 . S
H356 C369 0.929 . S
H357 C367 0.929 . S
H358 C362 0.929 . S
H359 C368 0.929 . S
C360 H354 0.930 . S
C360 C361 1.367 . S
C360 C368 1.378 . S
C361 C360 1.367 . S
C361 C369 1.433 . S
C362 H358 0.929 . S
C362 C364 1.378 . S
C362 C366 1.350 . S
C363 C366 1.463 . S
C363 C368 1.350 . S
C363 N371 1.427 . S
C364 H355 0.930 . S
C364 C362 1.378 . S
C364 C365 1.367 . S
C365 C364 1.367 . S
C365 C367 1.433 . S
C366 C362 1.350 . S
C366 C363 1.463 . S
C366 N370 1.427 . S
C367 H357 0.929 . S
C367 C365 1.433 . S
C367 N370 1.384 . S
C368 H359 0.929 . S
C368 C360 1.378 . S
C368 C363 1.350 . S
C369 H356 0.929 . S
C369 C361 1.433 . S
C369 N371 1.384 . S
N370 C366 1.427 . S
N370 C367 1.384 . S
N371 C363 1.427 . S
N371 C369 1.384 . S
H372 C378 0.930 . S
H373 C382 0.930 . S
H374 C387 0.929 . S
H375 C385 0.929 . S
H376 C380 0.929 . S
H377 C386 0.929 . S
C378 H372 0.930 . S
C378 C379 1.367 . S
C378 C386 1.378 . S
C379 C378 1.367 . S
C379 C387 1.433 . S
C380 H376 0.929 . S
C380 C382 1.378 . S
C380 C384 1.350 . S
C381 C384 1.463 . S
C381 C386 1.350 . S
C381 N389 1.427 . S
C382 H373 0.930 . S
C382 C380 1.378 . S
C382 C383 1.367 1_556 S
C383 C382 1.367 1_554 S
C383 C385 1.433 . S
C384 C380 1.350 . S
C384 C381 1.463 . S
C384 N388 1.427 . S
C385 H375 0.929 . S
C385 C383 1.433 . S
C385 N388 1.384 1_554 S
C386 H377 0.929 . S
C386 C378 1.378 . S
C386 C381 1.350 . S
C387 H374 0.929 . S
C387 C379 1.433 . S
C387 N389 1.384 . S
N388 C384 1.427 . S
N388 C385 1.384 1_556 S
N389 C381 1.427 . S
N389 C387 1.384 . S
H390 C396 0.930 . S
H391 C400 0.930 . S
H392 C405 0.929 . S
H393 C403 0.929 . S
H394 C398 0.929 . S
H395 C404 0.929 . S
C396 H390 0.930 . S
C396 C397 1.367 . S
C396 C404 1.378 . S
C397 C396 1.367 . S
C397 C405 1.433 . S
C398 H394 0.929 . S
C398 C400 1.378 . S
C398 C402 1.350 . S
C399 C402 1.463 . S
C399 C404 1.350 . S
C399 N407 1.427 . S
C400 H391 0.930 . S
C400 C398 1.378 . S
C400 C401 1.367 . S
C401 C400 1.367 . S
C401 C403 1.433 . S
C402 C398 1.350 . S
C402 C399 1.463 . S
C402 N406 1.427 . S
C403 H393 0.929 . S
C403 C401 1.433 . S
C403 N406 1.384 . S
C404 H395 0.929 . S
C404 C396 1.378 . S
C404 C399 1.350 . S
C405 H392 0.929 . S
C405 C397 1.433 . S
C405 N407 1.384 . S
N406 C402 1.427 . S
N406 C403 1.384 . S
N407 C399 1.427 . S
N407 C405 1.384 . S
H408 C414 0.930 . S
H409 C418 0.930 . S
H410 C423 0.929 . S
H411 C421 0.929 . S
H412 C416 0.929 . S
H413 C422 0.929 . S
C414 H408 0.930 . S
C414 C415 1.367 . S
C414 C422 1.378 . S
C415 C414 1.367 . S
C415 C423 1.433 . S
C416 H412 0.929 . S
C416 C418 1.378 . S
C416 C420 1.350 . S
C417 C420 1.463 . S
C417 C422 1.350 . S
C417 N425 1.427 . S
C418 H409 0.930 . S
C418 C416 1.378 . S
C418 C419 1.367 . S
C419 C418 1.367 . S
C419 C421 1.433 . S
C420 C416 1.350 . S
C420 C417 1.463 . S
C420 N424 1.427 . S
C421 H411 0.929 . S
C421 C419 1.433 . S
C421 N424 1.384 . S
C422 H413 0.929 . S
C422 C414 1.378 . S
C422 C417 1.350 . S
C423 H410 0.929 . S
C423 C415 1.433 . S
C423 N425 1.384 . S
N424 C420 1.427 . S
N424 C421 1.384 . S
N425 C417 1.427 . S
N425 C423 1.384 . S
H426 C432 0.930 . S
H427 C436 0.930 1_554 S
H428 C441 0.929 . S
H429 C439 0.929 . S
H430 C434 0.929 . S
H431 C440 0.929 . S
C432 H426 0.930 . S
C432 C433 1.367 . S
C432 C440 1.378 . S
C433 C432 1.367 . S
C433 C441 1.433 . S
C434 H430 0.929 . S
C434 C436 1.378 . S
C434 C438 1.350 . S
C435 C438 1.463 . S
C435 C440 1.350 . S
C435 N443 1.427 . S
C436 H427 0.930 1_556 S
C436 C434 1.378 . S
C436 C437 1.367 . S
C437 C436 1.367 . S
C437 C439 1.433 . S
C438 C434 1.350 . S
C438 C435 1.463 . S
C438 N442 1.427 . S
C439 H429 0.929 . S
C439 C437 1.433 . S
C439 N442 1.384 . S
C440 H431 0.929 . S
C440 C432 1.378 . S
C440 C435 1.350 . S
C441 H428 0.929 . S
C441 C433 1.433 . S
C441 N443 1.384 . S
N442 C438 1.427 . S
N442 C439 1.384 . S
N443 C435 1.427 . S
N443 C441 1.384 . S
H444 C450 0.930 . S
H445 C454 0.930 . S
H446 C459 0.929 . S
H447 C457 0.929 . S
H448 C452 0.929 . S
H449 C458 0.929 . S
C450 H444 0.930 . S
C450 C451 1.367 . S
C450 C458 1.378 . S
C451 C450 1.367 . S
C451 C459 1.433 . S
C452 H448 0.929 . S
C452 C454 1.378 . S
C452 C456 1.350 . S
C453 C456 1.463 . S
C453 C458 1.350 . S
C453 N461 1.427 . S
C454 H445 0.930 . S
C454 C452 1.378 . S
C454 C455 1.367 . S
C455 C454 1.367 . S
C455 C457 1.433 . S
C456 C452 1.350 . S
C456 C453 1.463 . S
C456 N460 1.427 . S
C457 H447 0.929 . S
C457 C455 1.433 . S
C457 N460 1.384 . S
C458 H449 0.929 . S
C458 C450 1.378 . S
C458 C453 1.350 . S
C459 H446 0.929 . S
C459 C451 1.433 . S
C459 N461 1.384 . S
N460 C456 1.427 . S
N460 C457 1.384 . S
N461 C453 1.427 . S
N461 C459 1.384 . S
H462 C468 0.930 . S
H463 C472 0.930 . S
H464 C477 0.929 . S
H465 C475 0.929 . S
H466 C470 0.929 . S
H467 C476 0.929 . S
C468 H462 0.930 . S
C468 C469 1.367 . S
C468 C476 1.378 . S
C469 C468 1.367 . S
C469 C477 1.433 . S
C470 H466 0.929 . S
C470 C472 1.378 . S
C470 C474 1.350 . S
C471 C474 1.463 . S
C471 C476 1.350 . S
C471 N479 1.427 . S
C472 H463 0.930 . S
C472 C470 1.378 . S
C472 C473 1.367 . S
C473 C472 1.367 . S
C473 C475 1.433 . S
C474 C470 1.350 . S
C474 C471 1.463 . S
C474 N478 1.427 . S
C475 H465 0.929 . S
C475 C473 1.433 . S
C475 N478 1.384 . S
C476 H467 0.929 . S
C476 C468 1.378 . S
C476 C471 1.350 . S
C477 H464 0.929 . S
C477 C469 1.433 . S
C477 N479 1.384 . S
N478 C474 1.427 . S
N478 C475 1.384 . S
N479 C471 1.427 . S
N479 C477 1.384 . S
H480 C486 0.930 . S
H481 C490 0.930 . S
H482 C495 0.929 . S
H483 C493 0.929 . S
H484 C488 0.929 . S
H485 C494 0.929 . S
C486 H480 0.930 . S
C486 C487 1.367 . S
C486 C494 1.378 . S
C487 C486 1.367 . S
C487 C495 1.433 . S
C488 H484 0.929 . S
C488 C490 1.378 . S
C488 C492 1.350 . S
C489 C492 1.463 . S
C489 C494 1.350 . S
C489 N497 1.427 . S
C490 H481 0.930 . S
C490 C488 1.378 . S
C490 C491 1.367 . S
C491 C490 1.367 . S
C491 C493 1.433 . S
C492 C488 1.350 . S
C492 C489 1.463 . S
C492 N496 1.427 . S
C493 H483 0.929 . S
C493 C491 1.433 . S
C493 N496 1.384 . S
C494 H485 0.929 . S
C494 C486 1.378 . S
C494 C489 1.350 . S
C495 H482 0.929 . S
C495 C487 1.433 . S
C495 N497 1.384 . S
N496 C492 1.427 . S
N496 C493 1.384 . S
N497 C489 1.427 . S
N497 C495 1.384 . S
H498 C504 0.930 . S
H499 C508 0.930 . S
H500 C513 0.929 . S
H501 C511 0.929 . S
H502 C506 0.929 . S
H503 C512 0.929 . S
C504 H498 0.930 . S
C504 C505 1.367 . S
C504 C512 1.378 . S
C505 C504 1.367 . S
C505 C513 1.433 . S
C506 H502 0.929 . S
C506 C508 1.378 . S
C506 C510 1.350 . S
C507 C510 1.463 . S
C507 C512 1.350 . S
C507 N515 1.427 . S
C508 H499 0.930 . S
C508 C506 1.378 . S
C508 C509 1.367 . S
C509 C508 1.367 . S
C509 C511 1.433 . S
C510 C506 1.350 . S
C510 C507 1.463 . S
C510 N514 1.427 . S
C511 H501 0.929 . S
C511 C509 1.433 . S
C511 N514 1.384 . S
C512 H503 0.929 . S
C512 C504 1.378 . S
C512 C507 1.350 . S
C513 H500 0.929 . S
C513 C505 1.433 . S
C513 N515 1.384 . S
N514 C510 1.427 . S
N514 C511 1.384 . S
N515 C507 1.427 . S
N515 C513 1.384 . S
H516 C522 0.930 . S
H517 C526 0.930 . S
H518 C531 0.929 . S
H519 C529 0.929 . S
H520 C524 0.929 . S
H521 C530 0.929 . S
C522 H516 0.930 . S
C522 C523 1.367 . S
C522 C530 1.378 . S
C523 C522 1.367 . S
C523 C531 1.433 . S
C524 H520 0.929 . S
C524 C526 1.378 . S
C524 C528 1.350 . S
C525 C528 1.463 . S
C525 C530 1.350 . S
C525 N533 1.427 . S
C526 H517 0.930 . S
C526 C524 1.378 . S
C526 C527 1.367 . S
C527 C526 1.367 . S
C527 C529 1.433 . S
C528 C524 1.350 . S
C528 C525 1.463 . S
C528 N532 1.427 . S
C529 H519 0.929 . S
C529 C527 1.433 . S
C529 N532 1.384 . S
C530 H521 0.929 . S
C530 C522 1.378 . S
C530 C525 1.350 . S
C531 H518 0.929 . S
C531 C523 1.433 . S
C531 N533 1.384 . S
N532 C528 1.427 . S
N532 C529 1.384 . S
N533 C525 1.427 . S
N533 C531 1.384 . S
H534 C540 0.930 . S
H535 C544 0.930 . S
H536 C549 0.929 . S
H537 C547 0.929 . S
H538 C542 0.929 . S
H539 C548 0.929 . S
C540 H534 0.930 . S
C540 C541 1.367 . S
C540 C548 1.378 . S
C541 C540 1.367 . S
C541 C549 1.433 . S
C542 H538 0.929 . S
C542 C544 1.378 . S
C542 C546 1.350 . S
C543 C546 1.463 . S
C543 C548 1.350 . S
C543 N551 1.427 . S
C544 H535 0.930 . S
C544 C542 1.378 . S
C544 C545 1.367 . S
C545 C544 1.367 . S
C545 C547 1.433 . S
C546 C542 1.350 . S
C546 C543 1.463 . S
C546 N550 1.427 . S
C547 H537 0.929 . S
C547 C545 1.433 . S
C547 N550 1.384 . S
C548 H539 0.929 . S
C548 C540 1.378 . S
C548 C543 1.350 . S
C549 H536 0.929 . S
C549 C541 1.433 . S
C549 N551 1.384 . S
N550 C546 1.427 . S
N550 C547 1.384 . S
N551 C543 1.427 . S
N551 C549 1.384 . S
H552 C558 0.930 . S
H553 C562 0.930 . S
H554 C567 0.929 . S
H555 C565 0.929 . S
H556 C560 0.929 . S
H557 C566 0.929 . S
C558 H552 0.930 . S
C558 C559 1.367 . S
C558 C566 1.378 . S
C559 C558 1.367 . S
C559 C567 1.433 . S
C560 H556 0.929 . S
C560 C562 1.378 . S
C560 C564 1.350 . S
C561 C564 1.463 . S
C561 C566 1.350 . S
C561 N569 1.427 . S
C562 H553 0.930 . S
C562 C560 1.378 . S
C562 C563 1.367 . S
C563 C562 1.367 . S
C563 C565 1.433 . S
C564 C560 1.350 . S
C564 C561 1.463 . S
C564 N568 1.427 . S
C565 H555 0.929 . S
C565 C563 1.433 . S
C565 N568 1.384 . S
C566 H557 0.929 . S
C566 C558 1.378 . S
C566 C561 1.350 . S
C567 H554 0.929 . S
C567 C559 1.433 . S
C567 N569 1.384 . S
N568 C564 1.427 . S
N568 C565 1.384 . S
N569 C561 1.427 . S
N569 C567 1.384 . S
H570 C576 0.930 . S
H571 C580 0.930 1_455 S
H572 C585 0.929 . S
H573 C583 0.929 . S
H574 C578 0.929 . S
H575 C584 0.929 . S
C576 H570 0.930 . S
C576 C577 1.367 . S
C576 C584 1.378 . S
C577 C576 1.367 . S
C577 C585 1.433 . S
C578 H574 0.929 . S
C578 C580 1.378 . S
C578 C582 1.350 . S
C579 C582 1.463 . S
C579 C584 1.350 . S
C579 N587 1.427 . S
C580 H571 0.930 1_655 S
C580 C578 1.378 . S
C580 C581 1.367 . S
C581 C580 1.367 . S
C581 C583 1.433 . S
C582 C578 1.350 . S
C582 C579 1.463 . S
C582 N586 1.427 . S
C583 H573 0.929 . S
C583 C581 1.433 . S
C583 N586 1.384 . S
C584 H575 0.929 . S
C584 C576 1.378 . S
C584 C579 1.350 . S
C585 H572 0.929 . S
C585 C577 1.433 . S
C585 N587 1.384 . S
N586 C582 1.427 . S
N586 C583 1.384 . S
N587 C579 1.427 . S
N587 C585 1.384 . S
H588 C594 0.930 . S
H589 C598 0.930 . S
H590 C603 0.929 . S
H591 C601 0.929 . S
H592 C596 0.929 . S
H593 C602 0.929 . S
C594 H588 0.930 . S
C594 C595 1.367 . S
C594 C602 1.378 . S
C595 C594 1.367 . S
C595 C603 1.433 . S
C596 H592 0.929 . S
C596 C598 1.378 . S
C596 C600 1.350 . S
C597 C600 1.463 . S
C597 C602 1.350 . S
C597 N605 1.427 . S
C598 H589 0.930 . S
C598 C596 1.378 . S
C598 C599 1.367 . S
C599 C598 1.367 . S
C599 C601 1.433 . S
C600 C596 1.350 . S
C600 C597 1.463 . S
C600 N604 1.427 . S
C601 H591 0.929 . S
C601 C599 1.433 . S
C601 N604 1.384 . S
C602 H593 0.929 . S
C602 C594 1.378 . S
C602 C597 1.350 . S
C603 H590 0.929 . S
C603 C595 1.433 . S
C603 N605 1.384 . S
N604 C600 1.427 . S
N604 C601 1.384 . S
N605 C597 1.427 . S
N605 C603 1.384 . S
H606 C612 0.930 . S
H607 C616 0.930 . S
H608 C621 0.929 . S
H609 C619 0.929 . S
H610 C614 0.929 . S
H611 C620 0.929 . S
C612 H606 0.930 . S
C612 C613 1.367 . S
C612 C620 1.378 . S
C613 C612 1.367 . S
C613 C621 1.433 . S
C614 H610 0.929 . S
C614 C616 1.378 . S
C614 C618 1.350 . S
C615 C618 1.463 . S
C615 C620 1.350 . S
C615 N623 1.427 . S
C616 H607 0.930 . S
C616 C614 1.378 . S
C616 C617 1.367 . S
C617 C616 1.367 . S
C617 C619 1.433 . S
C618 C614 1.350 . S
C618 C615 1.463 . S
C618 N622 1.427 . S
C619 H609 0.929 . S
C619 C617 1.433 . S
C619 N622 1.384 . S
C620 H611 0.929 . S
C620 C612 1.378 . S
C620 C615 1.350 . S
C621 H608 0.929 . S
C621 C613 1.433 . S
C621 N623 1.384 . S
N622 C618 1.427 . S
N622 C619 1.384 . S
N623 C615 1.427 . S
N623 C621 1.384 . S
H624 C630 0.930 . S
H625 C634 0.930 . S
H626 C639 0.929 . S
H627 C637 0.929 . S
H628 C632 0.929 . S
H629 C638 0.929 . S
C630 H624 0.930 . S
C630 C631 1.367 . S
C630 C638 1.378 . S
C631 C630 1.367 . S
C631 C639 1.433 . S
C632 H628 0.929 . S
C632 C634 1.378 . S
C632 C636 1.350 . S
C633 C636 1.463 . S
C633 C638 1.350 . S
C633 N641 1.427 . S
C634 H625 0.930 . S
C634 C632 1.378 . S
C634 C635 1.367 . S
C635 C634 1.367 . S
C635 C637 1.433 . S
C636 C632 1.350 . S
C636 C633 1.463 . S
C636 N640 1.427 . S
C637 H627 0.929 . S
C637 C635 1.433 . S
C637 N640 1.384 . S
C638 H629 0.929 . S
C638 C630 1.378 . S
C638 C633 1.350 . S
C639 H626 0.929 . S
C639 C631 1.433 . S
C639 N641 1.384 . S
N640 C636 1.427 . S
N640 C637 1.384 . S
N641 C633 1.427 . S
N641 C639 1.384 . S
H642 C648 0.930 . S
H643 C652 0.930 . S
H644 C657 0.929 . S
H645 C655 0.929 . S
H646 C650 0.929 . S
H647 C656 0.929 . S
C648 H642 0.930 . S
C648 C649 1.367 . S
C648 C656 1.378 . S
C649 C648 1.367 . S
C649 C657 1.433 . S
C650 H646 0.929 . S
C650 C652 1.378 . S
C650 C654 1.350 . S
C651 C654 1.463 . S
C651 C656 1.350 . S
C651 N659 1.427 . S
C652 H643 0.930 . S
C652 C650 1.378 . S
C652 C653 1.367 . S
C653 C652 1.367 . S
C653 C655 1.433 . S
C654 C650 1.350 . S
C654 C651 1.463 . S
C654 N658 1.427 . S
C655 H645 0.929 . S
C655 C653 1.433 . S
C655 N658 1.384 . S
C656 H647 0.929 . S
C656 C648 1.378 . S
C656 C651 1.350 . S
C657 H644 0.929 . S
C657 C649 1.433 . S
C657 N659 1.384 . S
N658 C654 1.427 . S
N658 C655 1.384 . S
N659 C651 1.427 . S
N659 C657 1.384 . S
H660 C666 0.930 . S
H661 C670 0.930 . S
H662 C675 0.929 . S
H663 C673 0.929 . S
H664 C668 0.929 . S
H665 C674 0.929 . S
C666 H660 0.930 . S
C666 C667 1.367 . S
C666 C674 1.378 . S
C667 C666 1.367 . S
C667 C675 1.433 . S
C668 H664 0.929 . S
C668 C670 1.378 . S
C668 C672 1.350 . S
C669 C672 1.463 . S
C669 C674 1.350 . S
C669 N677 1.427 . S
C670 H661 0.930 . S
C670 C668 1.378 . S
C670 C671 1.367 . S
C671 C670 1.367 . S
C671 C673 1.433 . S
C672 C668 1.350 . S
C672 C669 1.463 . S
C672 N676 1.427 . S
C673 H663 0.929 . S
C673 C671 1.433 . S
C673 N676 1.384 . S
C674 H665 0.929 . S
C674 C666 1.378 . S
C674 C669 1.350 . S
C675 H662 0.929 . S
C675 C667 1.433 . S
C675 N677 1.384 . S
N676 C672 1.427 . S
N676 C673 1.384 . S
N677 C669 1.427 . S
N677 C675 1.384 . S
H678 C684 0.930 . S
H679 C688 0.930 . S
H680 C693 0.929 . S
H681 C691 0.929 . S
H682 C686 0.929 . S
H683 C692 0.929 . S
C684 H678 0.930 . S
C684 C685 1.367 . S
C684 C692 1.378 . S
C685 C684 1.367 . S
C685 C693 1.433 . S
C686 H682 0.929 . S
C686 C688 1.378 . S
C686 C690 1.350 . S
C687 C690 1.463 . S
C687 C692 1.350 . S
C687 N695 1.427 . S
C688 H679 0.930 . S
C688 C686 1.378 . S
C688 C689 1.367 . S
C689 C688 1.367 . S
C689 C691 1.433 . S
C690 C686 1.350 . S
C690 C687 1.463 . S
C690 N694 1.427 . S
C691 H681 0.929 . S
C691 C689 1.433 . S
C691 N694 1.384 . S
C692 H683 0.929 . S
C692 C684 1.378 . S
C692 C687 1.350 . S
C693 H680 0.929 . S
C693 C685 1.433 . S
C693 N695 1.384 . S
N694 C690 1.427 . S
N694 C691 1.384 . S
N695 C687 1.427 . S
N695 C693 1.384 . S
C271 C9 1.242 . S
C275 C108 1.282 . S
C289 C21 1.061 . S
C293 C169 1.088 . S
C311 C207 2.217 . S
C307 C30 2.229 . S
C325 C43 2.113 . S
C329 C247 2.207 . S
C347 C167 1.164 . S
C343 C4 1.062 . S
C365 C135 2.438 . S
C361 C22 2.368 . S
C383 C244 1.402 . S
C379 C34 1.432 . S
C401 C204 1.757 . S
C397 C48 1.768 . S
C415 C8 1.183 . S
C419 C249 1.196 . S
C437 C164 2.346 . S
C433 C35 2.329 . S
C451 C47 2.396 . S
C455 C106 2.344 . S
C469 C17 1.259 . S
C473 C209 1.325 . S
C491 C129 0.786 . S
C487 C60 0.781 . S
C505 C74 1.195 . S
C509 C148 1.200 . S
C523 C82 2.008 . S
C527 C186 1.992 . S
C541 C100 2.758 . S
C545 C226 2.700 . S
C559 C61 1.552 . S
C563 C146 1.569 . S
C581 C124 1.846 . S
C577 C73 1.763 . S
C599 C255 1.918 . S
C595 C87 1.935 . S
C617 C215 1.597 . S
C613 C95 1.588 . S
C631 C56 1.075 . S
C635 C228 1.064 . S
C653 C175 2.524 . S
C649 C86 2.525 . S
C671 C127 2.244 . S
C667 C99 2.280 . S
C685 C69 1.094 . S
C689 C188 1.235 . S
