# Generated by pormake.
# Topology ptr, (4,4)-cn, num edge types: 1
# Building blocks:
#     Node 0, Type 0, BuildingBlock: KUFVIS_clean_sbu_0, # of connection points: 4
#     Node 1, Type 0, BuildingBlock: KUFVIS_clean_sbu_0, # of connection points: 4
#     Node 2, Type 0, BuildingBlock: KUFVIS_clean_sbu_0, # of connection points: 4
#     Node 3, Type 0, BuildingBlock: KUFVIS_clean_sbu_0, # of connection points: 4
#     Node 4, Type 0, BuildingBlock: KUFVIS_clean_sbu_0, # of connection points: 4
#     Node 5, Type 0, BuildingBlock: KUFVIS_clean_sbu_0, # of connection points: 4
#     Node 6, Type 0, BuildingBlock: KUFVIS_clean_sbu_0, # of connection points: 4
#     Node 7, Type 0, BuildingBlock: KUFVIS_clean_sbu_0, # of connection points: 4
#     Node 8, Type 0, BuildingBlock: KUFVIS_clean_sbu_0, # of connection points: 4
#     Node 9, Type 0, BuildingBlock: KUFVIS_clean_sbu_0, # of connection points: 4
#     Node 10, Type 0, BuildingBlock: KUFVIS_clean_sbu_0, # of connection points: 4
#     Node 11, Type 0, BuildingBlock: KUFVIS_clean_sbu_0, # of connection points: 4
#     Node 12, Type 0, BuildingBlock: KUFVIS_clean_sbu_0, # of connection points: 4
#     Node 13, Type 0, BuildingBlock: KUFVIS_clean_sbu_0, # of connection points: 4
#     Node 14, Type 0, BuildingBlock: KUFVIS_clean_sbu_0, # of connection points: 4
#     Node 15, Type 0, BuildingBlock: KUFVIS_clean_sbu_0, # of connection points: 4
#     Node 16, Type 0, BuildingBlock: KUFVIS_clean_sbu_0, # of connection points: 4
#     Node 17, Type 0, BuildingBlock: KUFVIS_clean_sbu_0, # of connection points: 4
#     Node 18, Type 1, BuildingBlock: MIFKUJ_clean_linker_1, # of connection points: 4
#     Node 19, Type 1, BuildingBlock: MIFKUJ_clean_linker_1, # of connection points: 4
#     Node 20, Type 1, BuildingBlock: MIFKUJ_clean_linker_1, # of connection points: 4
#     Node 21, Type 1, BuildingBlock: MIFKUJ_clean_linker_1, # of connection points: 4
#     Node 22, Type 1, BuildingBlock: MIFKUJ_clean_linker_1, # of connection points: 4
#     Node 23, Type 1, BuildingBlock: MIFKUJ_clean_linker_1, # of connection points: 4
#     Node 24, Type 1, BuildingBlock: MIFKUJ_clean_linker_1, # of connection points: 4
#     Node 25, Type 1, BuildingBlock: MIFKUJ_clean_linker_1, # of connection points: 4
#     Node 26, Type 1, BuildingBlock: MIFKUJ_clean_linker_1, # of connection points: 4
#     Node 27, Type 1, BuildingBlock: MIFKUJ_clean_linker_1, # of connection points: 4
#     Node 28, Type 1, BuildingBlock: MIFKUJ_clean_linker_1, # of connection points: 4
#     Node 29, Type 1, BuildingBlock: MIFKUJ_clean_linker_1, # of connection points: 4
#     Node 30, Type 1, BuildingBlock: MIFKUJ_clean_linker_1, # of connection points: 4
#     Node 31, Type 1, BuildingBlock: MIFKUJ_clean_linker_1, # of connection points: 4
#     Node 32, Type 1, BuildingBlock: MIFKUJ_clean_linker_1, # of connection points: 4
#     Node 33, Type 1, BuildingBlock: MIFKUJ_clean_linker_1, # of connection points: 4
#     Node 34, Type 1, BuildingBlock: MIFKUJ_clean_linker_1, # of connection points: 4
#     Node 35, Type 1, BuildingBlock: MIFKUJ_clean_linker_1, # of connection points: 4
#     Edge 36, Type (0, 1), BuildingBlock: EZIPEK_clean_linker_0, # of connection points: 2
#     Edge 37, Type (0, 1), BuildingBlock: EZIPEK_clean_linker_0, # of connection points: 2
#     Edge 38, Type (0, 1), BuildingBlock: EZIPEK_clean_linker_0, # of connection points: 2
#     Edge 39, Type (0, 1), BuildingBlock: EZIPEK_clean_linker_0, # of connection points: 2
#     Edge 40, Type (0, 1), BuildingBlock: EZIPEK_clean_linker_0, # of connection points: 2
#     Edge 41, Type (0, 1), BuildingBlock: EZIPEK_clean_linker_0, # of connection points: 2
#     Edge 42, Type (0, 1), BuildingBlock: EZIPEK_clean_linker_0, # of connection points: 2
#     Edge 43, Type (0, 1), BuildingBlock: EZIPEK_clean_linker_0, # of connection points: 2
#     Edge 44, Type (0, 1), BuildingBlock: EZIPEK_clean_linker_0, # of connection points: 2
#     Edge 45, Type (0, 1), BuildingBlock: EZIPEK_clean_linker_0, # of connection points: 2
#     Edge 46, Type (0, 1), BuildingBlock: EZIPEK_clean_linker_0, # of connection points: 2
#     Edge 47, Type (0, 1), BuildingBlock: EZIPEK_clean_linker_0, # of connection points: 2
#     Edge 48, Type (0, 1), BuildingBlock: EZIPEK_clean_linker_0, # of connection points: 2
#     Edge 49, Type (0, 1), BuildingBlock: EZIPEK_clean_linker_0, # of connection points: 2
#     Edge 50, Type (0, 1), BuildingBlock: EZIPEK_clean_linker_0, # of connection points: 2
#     Edge 51, Type (0, 1), BuildingBlock: EZIPEK_clean_linker_0, # of connection points: 2
#     Edge 52, Type (0, 1), BuildingBlock: EZIPEK_clean_linker_0, # of connection points: 2
#     Edge 53, Type (0, 1), BuildingBlock: EZIPEK_clean_linker_0, # of connection points: 2
#     Edge 54, Type (0, 1), BuildingBlock: EZIPEK_clean_linker_0, # of connection points: 2
#     Edge 55, Type (0, 1), BuildingBlock: EZIPEK_clean_linker_0, # of connection points: 2
#     Edge 56, Type (0, 1), BuildingBlock: EZIPEK_clean_linker_0, # of connection points: 2
#     Edge 57, Type (0, 1), BuildingBlock: EZIPEK_clean_linker_0, # of connection points: 2
#     Edge 58, Type (0, 1), BuildingBlock: EZIPEK_clean_linker_0, # of connection points: 2
#     Edge 59, Type (0, 1), BuildingBlock: EZIPEK_clean_linker_0, # of connection points: 2
#     Edge 60, Type (0, 1), BuildingBlock: EZIPEK_clean_linker_0, # of connection points: 2
#     Edge 61, Type (0, 1), BuildingBlock: EZIPEK_clean_linker_0, # of connection points: 2
#     Edge 62, Type (0, 1), BuildingBlock: EZIPEK_clean_linker_0, # of connection points: 2
#     Edge 63, Type (0, 1), BuildingBlock: EZIPEK_clean_linker_0, # of connection points: 2
#     Edge 64, Type (0, 1), BuildingBlock: EZIPEK_clean_linker_0, # of connection points: 2
#     Edge 65, Type (0, 1), BuildingBlock: EZIPEK_clean_linker_0, # of connection points: 2
#     Edge 66, Type (0, 1), BuildingBlock: EZIPEK_clean_linker_0, # of connection points: 2
#     Edge 67, Type (0, 1), BuildingBlock: EZIPEK_clean_linker_0, # of connection points: 2
#     Edge 68, Type (0, 1), BuildingBlock: EZIPEK_clean_linker_0, # of connection points: 2
#     Edge 69, Type (0, 1), BuildingBlock: EZIPEK_clean_linker_0, # of connection points: 2
#     Edge 70, Type (0, 1), BuildingBlock: EZIPEK_clean_linker_0, # of connection points: 2
#     Edge 71, Type (0, 1), BuildingBlock: EZIPEK_clean_linker_0, # of connection points: 2
#     Edge 72, Type (0, 1), BuildingBlock: EZIPEK_clean_linker_0, # of connection points: 2
#     Edge 73, Type (0, 1), BuildingBlock: EZIPEK_clean_linker_0, # of connection points: 2
#     Edge 74, Type (0, 1), BuildingBlock: EZIPEK_clean_linker_0, # of connection points: 2
#     Edge 75, Type (0, 1), BuildingBlock: EZIPEK_clean_linker_0, # of connection points: 2
#     Edge 76, Type (0, 1), BuildingBlock: EZIPEK_clean_linker_0, # of connection points: 2
#     Edge 77, Type (0, 1), BuildingBlock: EZIPEK_clean_linker_0, # of connection points: 2
#     Edge 78, Type (0, 1), BuildingBlock: EZIPEK_clean_linker_0, # of connection points: 2
#     Edge 79, Type (0, 1), BuildingBlock: EZIPEK_clean_linker_0, # of connection points: 2
#     Edge 80, Type (0, 1), BuildingBlock: EZIPEK_clean_linker_0, # of connection points: 2
#     Edge 81, Type (0, 1), BuildingBlock: EZIPEK_clean_linker_0, # of connection points: 2
#     Edge 82, Type (0, 1), BuildingBlock: EZIPEK_clean_linker_0, # of connection points: 2
#     Edge 83, Type (0, 1), BuildingBlock: EZIPEK_clean_linker_0, # of connection points: 2
#     Edge 84, Type (0, 1), BuildingBlock: EZIPEK_clean_linker_0, # of connection points: 2
#     Edge 85, Type (0, 1), BuildingBlock: EZIPEK_clean_linker_0, # of connection points: 2
#     Edge 86, Type (0, 1), BuildingBlock: EZIPEK_clean_linker_0, # of connection points: 2
#     Edge 87, Type (0, 1), BuildingBlock: EZIPEK_clean_linker_0, # of connection points: 2
#     Edge 88, Type (0, 1), BuildingBlock: EZIPEK_clean_linker_0, # of connection points: 2
#     Edge 89, Type (0, 1), BuildingBlock: EZIPEK_clean_linker_0, # of connection points: 2
#     Edge 90, Type (0, 1), BuildingBlock: EZIPEK_clean_linker_0, # of connection points: 2
#     Edge 91, Type (0, 1), BuildingBlock: EZIPEK_clean_linker_0, # of connection points: 2
#     Edge 92, Type (0, 1), BuildingBlock: EZIPEK_clean_linker_0, # of connection points: 2
#     Edge 93, Type (0, 1), BuildingBlock: EZIPEK_clean_linker_0, # of connection points: 2
#     Edge 94, Type (0, 1), BuildingBlock: EZIPEK_clean_linker_0, # of connection points: 2
#     Edge 95, Type (0, 1), BuildingBlock: EZIPEK_clean_linker_0, # of connection points: 2
#     Edge 96, Type (0, 1), BuildingBlock: EZIPEK_clean_linker_0, # of connection points: 2
#     Edge 97, Type (0, 1), BuildingBlock: EZIPEK_clean_linker_0, # of connection points: 2
#     Edge 98, Type (0, 1), BuildingBlock: EZIPEK_clean_linker_0, # of connection points: 2
#     Edge 99, Type (0, 1), BuildingBlock: EZIPEK_clean_linker_0, # of connection points: 2
#     Edge 100, Type (0, 1), BuildingBlock: EZIPEK_clean_linker_0, # of connection points: 2
#     Edge 101, Type (0, 1), BuildingBlock: EZIPEK_clean_linker_0, # of connection points: 2
#     Edge 102, Type (0, 1), BuildingBlock: EZIPEK_clean_linker_0, # of connection points: 2
#     Edge 103, Type (0, 1), BuildingBlock: EZIPEK_clean_linker_0, # of connection points: 2
#     Edge 104, Type (0, 1), BuildingBlock: EZIPEK_clean_linker_0, # of connection points: 2
#     Edge 105, Type (0, 1), BuildingBlock: EZIPEK_clean_linker_0, # of connection points: 2
#     Edge 106, Type (0, 1), BuildingBlock: EZIPEK_clean_linker_0, # of connection points: 2
#     Edge 107, Type (0, 1), BuildingBlock: EZIPEK_clean_linker_0, # of connection points: 2
# Relax obj value: 0.041
# Max RMSD: 0.154
# Mean RMSD: 0.069
data_MOF--net-ptr--node1-KUFVIS_clean_sbu_0--node2-MIFKUJ_clean_linker_1--edge1-EZIPEK_clean_linker_0
_symmetry_space_group_name_H-M    P1
_symmetry_Int_Tables_number       1
_symmetry_cell_setting            triclinic
loop_
_symmetry_equiv_pos_as_xyz
'x, y, z'
_cell_length_a     69.461983
_cell_length_b     69.110034
_cell_length_c     48.103245
_cell_angle_alpha  89.753809
_cell_angle_beta   90.768972
_cell_angle_gamma 119.43
loop_
_atom_site_label
_atom_site_type_symbol
_atom_site_fract_x
_atom_site_fract_y
_atom_site_fract_z
_atom_type_partial_charge
Mn0 Mn 1.00028 0.35148 1.00059 0.0
Mn1 Mn 0.04819 0.3999 0.99742 0.0
C2 C 0.00378 0.379 0.96956 0.0
C3 C 0.97818 0.31509 0.98457 0.0
C4 C 0.01418 0.38898 0.04308 0.0
O5 O 0.02176 0.34456 0.0221 0.0
O6 O 0.05314 0.37632 0.01409 0.0
C7 C 0.07024 0.38577 0.95637 0.0
N8 N 0.06329 0.40018 0.96439 0.0
C9 C 0.07857 0.42254 0.9236 0.0
C10 C 0.08603 0.40803 0.91497 0.0
C11 C 0.08171 0.38948 0.93134 0.0
C12 C 0.06685 0.41775 0.94846 0.0
H13 H 0.06703 0.37153 0.96895 0.0
C14 C 0.04274 0.35673 0.02425 0.0
O15 O 0.97457 0.32141 0.00842 0.0
O16 O 0.99536 0.32935 0.97107 0.0
N17 N 0.04656 0.42444 0.9814 0.0
C18 C 0.03866 0.43708 0.99297 0.0
C19 C 0.04183 0.45642 0.97939 0.0
C20 C 0.05365 0.46294 0.95449 0.0
C21 C 0.06207 0.44995 0.94326 0.0
C22 C 0.0583 0.43079 0.95768 0.0
H23 H 0.03005 0.43251 0.01248 0.0
O24 O 0.98446 0.36326 0.97666 0.0
O25 O 0.02045 0.37796 0.98042 0.0
O26 O 1.00006 0.3697 0.03408 0.0
O27 O 0.03284 0.40111 0.0314 0.0
C28 C 0.07437 0.45545 0.91859 0.0
C29 C 0.08237 0.44161 0.90858 0.0
H30 H 0.09504 0.41095 0.8958 0.0
H31 H 0.08732 0.37814 0.92477 0.0
H32 H 0.03544 0.46645 0.98829 0.0
H33 H 0.05637 0.47809 0.94438 0.0
H34 H 0.07778 0.47028 0.90709 0.0
H35 H 0.09154 0.44586 0.8894 0.0
Mn36 Mn 0.64693 0.65352 0.01937 0.0
Mn37 Mn 0.64593 0.60431 0.01682 0.0
C38 C 0.62455 0.62511 0.04973 0.0
C39 C 0.66229 0.68937 0.03762 0.0
C40 C 0.62203 0.61856 0.97471 0.0
O41 O 0.67375 0.66026 0.99544 0.0
O42 O 0.67389 0.62807 1.00124 0.0
C43 C 0.68249 0.61469 0.05684 0.0
N44 N 0.66106 0.60147 0.04867 0.0
C45 C 0.65443 0.5768 0.08721 0.0
C46 C 0.67645 0.59006 0.09597 0.0
C47 C 0.6905 0.60917 0.0808 0.0
C48 C 0.64728 0.58333 0.06343 0.0
H49 H 0.69337 0.62936 0.04519 0.0
C50 C 0.68246 0.64791 0.99187 0.0
O51 O 0.65123 0.68409 0.0143 0.0
O52 O 0.66577 0.67438 0.04921 0.0
N53 N 0.62007 0.5796 0.03166 0.0
C54 C 0.59929 0.56858 0.02042 0.0
C55 C 0.58317 0.54909 0.03314 0.0
C56 C 0.58871 0.54082 0.05684 0.0
C57 C 0.61033 0.55217 0.06767 0.0
C58 C 0.62565 0.57158 0.05421 0.0
H59 H 0.59503 0.5746 0.0019 0.0
O60 O 0.62106 0.64162 0.04513 0.0
O61 O 0.64126 0.62599 0.03687 0.0
O62 O 0.62668 0.63698 0.98624 0.0
O63 O 0.62929 0.60578 0.98359 0.0
C64 C 0.61736 0.54486 0.09112 0.0
C65 C 0.6393 0.55732 0.1011 0.0
H66 H 0.68273 0.58576 0.11433 0.0
H67 H 0.7075 0.61955 0.08748 0.0
H68 H 0.56656 0.54036 0.02457 0.0
H69 H 0.57626 0.52569 0.06643 0.0
H70 H 0.60606 0.52969 0.10168 0.0
H71 H 0.6444 0.55171 0.11938 0.0
Mn72 Mn 0.34483 0.99391 0.01596 0.0
Mn73 Mn 0.39324 0.04202 0.01126 0.0
C74 C 0.37437 1.00017 0.04482 0.0
C75 C 0.30996 0.97258 0.035 0.0
C76 C 0.37942 0.00374 0.9709 0.0
O77 O 0.33568 0.01363 0.99454 0.0
O78 O 0.36883 0.0449 0.9927 0.0
C79 C 0.38163 0.0694 0.04714 0.0
N80 N 0.39498 0.06068 0.04156 0.0
C81 C 0.41745 0.07813 0.08216 0.0
C82 C 0.4038 0.08713 0.08844 0.0
C83 C 0.38581 0.08274 0.07084 0.0
C84 C 0.41232 0.06477 0.05839 0.0
H85 H 0.36796 0.06628 0.03356 0.0
C86 C 0.34802 0.03378 0.98735 0.0
O87 O 0.31488 0.96749 0.01118 0.0
O88 O 0.32482 0.99064 0.04703 0.0
N89 N 0.41832 0.04205 0.02832 0.0
C90 C 0.43064 0.03322 0.01844 0.0
C91 C 0.44962 0.03659 0.0332 0.0
C92 C 0.45605 0.04946 0.05759 0.0
C93 C 0.44357 0.05906 0.06682 0.0
C94 C 0.42484 0.05515 0.05119 0.0
H95 H 0.42596 0.02354 0.99951 0.0
O96 O 0.35856 0.98016 0.03984 0.0
O97 O 0.37249 0.01605 0.03268 0.0
O98 O 0.36044 0.99118 0.98133 0.0
O99 O 0.3929 0.02313 0.98027 0.0
C100 C 0.44912 0.07256 0.09073 0.0
C101 C 0.43596 0.08193 0.09852 0.0
H102 H 0.40704 0.09751 0.10665 0.0
H103 H 0.37525 0.0897 0.07546 0.0
H104 H 0.4593 0.02934 0.02576 0.0
H105 H 0.47075 0.05208 0.06884 0.0
H106 H 0.46352 0.07592 0.10323 0.0
H107 H 0.44035 0.09221 0.117 0.0
Mn108 Mn 0.99552 0.64846 0.99878 0.0
Mn109 Mn 0.0457 0.65162 0.00229 0.0
C110 C 0.00313 0.62621 0.9701 0.0
C111 C 0.97188 0.66031 0.98024 0.0
C112 C 0.00977 0.62678 0.04452 0.0
O113 O 0.01403 0.6774 0.01977 0.0
O114 O 0.04714 0.67867 0.01938 0.0
C115 C 0.0694 0.68933 0.9637 0.0
N116 N 0.06234 0.66779 0.97069 0.0
C117 C 0.07925 0.66244 0.93025 0.0
C118 C 0.08651 0.68451 0.9225 0.0
C119 C 0.08155 0.69801 0.93931 0.0
C120 C 0.067 0.65465 0.95463 0.0
H121 H 0.06588 0.6998 0.97671 0.0
C122 C 0.03462 0.68677 0.02562 0.0
O123 O 0.96802 0.65024 0.00406 0.0
O124 O 0.98997 0.6644 0.96787 0.0
N125 N 0.047 0.62685 0.98669 0.0
C126 C 0.03988 0.60634 0.99791 0.0
C127 C 0.04399 0.59093 0.98403 0.0
C128 C 0.05583 0.59694 0.95913 0.0
C129 C 0.06369 0.6184 0.9485 0.0
C130 C 0.05912 0.63306 0.96329 0.0
H131 H 0.031 0.60167 0.01723 0.0
O132 O 0.98291 0.62109 0.97528 0.0
O133 O 0.01842 0.64439 0.98173 0.0
O134 O 0.99533 0.63095 0.03357 0.0
O135 O 0.02913 0.63393 0.03476 0.0
C136 C 0.07607 0.62591 0.92397 0.0
C137 C 0.08375 0.64788 0.91477 0.0
H138 H 0.09597 0.6913 0.90377 0.0
H139 H 0.08718 0.71511 0.93357 0.0
H140 H 0.03809 0.57448 0.99255 0.0
H141 H 0.05905 0.58503 0.94858 0.0
H142 H 0.07979 0.61493 0.91201 0.0
H143 H 0.09318 0.65343 0.89582 0.0
Mn144 Mn 0.34854 0.35622 0.01505 0.0
Mn145 Mn 0.39597 0.35408 0.00868 0.0
C146 C 0.37928 0.37906 0.04226 0.0
C147 C 0.31423 0.34453 0.03565 0.0
C148 C 0.38177 0.37814 0.9676 0.0
O149 O 0.33799 0.32693 0.99451 0.0
O150 O 0.37051 0.32709 0.99182 0.0
C151 C 0.38413 0.31608 0.04658 0.0
N152 N 0.39791 0.33767 0.0397 0.0
C153 C 0.4209 0.34299 0.08003 0.0
C154 C 0.40686 0.32083 0.08761 0.0
C155 C 0.3884 0.30732 0.0708 0.0
C156 C 0.41569 0.35083 0.05578 0.0
H157 H 0.37004 0.30561 0.03366 0.0
C158 C 0.34964 0.31824 0.98719 0.0
O159 O 0.31893 0.35417 0.01153 0.0
O160 O 0.32901 0.34066 0.04709 0.0
N161 N 0.422 0.37875 0.02401 0.0
C162 C 0.43487 0.39914 0.01256 0.0
C163 C 0.45459 0.41438 0.02607 0.0
C164 C 0.46103 0.40841 0.051 0.0
C165 C 0.44794 0.38706 0.06186 0.0
C166 C 0.42863 0.37247 0.04725 0.0
H167 H 0.43009 0.4038 0.9933 0.0
O168 O 0.36369 0.38393 0.03796 0.0
O169 O 0.37643 0.36089 0.0305 0.0
O170 O 0.36353 0.3732 0.97937 0.0
O171 O 0.39531 0.37203 0.97685 0.0
C172 C 0.45349 0.37955 0.08634 0.0
C173 C 0.43988 0.35758 0.09555 0.0
H174 H 0.41014 0.31401 0.10623 0.0
H175 H 0.37751 0.29019 0.07645 0.0
H176 H 0.46474 0.43074 0.01735 0.0
H177 H 0.47615 0.42028 0.0615 0.0
H178 H 0.46826 0.39049 0.09815 0.0
H179 H 0.44431 0.352 0.11441 0.0
Mn180 Mn 0.65417 0.00862 0.01125 0.0
Mn181 Mn 0.60811 0.95818 0.01003 0.0
C182 C 0.6252 0.00169 0.98095 0.0
C183 C 0.68963 0.03309 0.99544 0.0
C184 C 0.6166 0.99291 0.05379 0.0
O185 O 0.66452 0.98954 0.03157 0.0
O186 O 0.63272 0.95685 0.03013 0.0
C187 C 0.62595 0.93672 0.97314 0.0
N188 N 0.61017 0.94235 0.97876 0.0
C189 C 0.59013 0.9248 0.9367 0.0
C190 C 0.60615 0.91877 0.93049 0.0
C191 C 0.62419 0.92484 0.94875 0.0
C192 C 0.59297 0.93694 0.96109 0.0
H193 H 0.63978 0.94127 0.98715 0.0
C194 C 0.65306 0.96896 0.03717 0.0
O195 O 0.68292 0.03598 0.01936 0.0
O196 O 0.67611 0.01557 0.98135 0.0
N197 N 0.58268 0.95624 0.99152 0.0
C198 C 0.56817 0.96245 1.00123 0.0
C199 C 0.54879 0.95695 0.98596 0.0
C200 C 0.54428 0.9447 0.96122 0.0
C201 C 0.55921 0.93807 0.95192 0.0
C202 C 0.57819 0.94393 0.96811 0.0
H203 H 0.5713 0.97148 0.02054 0.0
O204 O 0.63965 0.02188 0.9878 0.0
O205 O 0.62824 0.98612 0.99181 0.0
O206 O 0.63589 0.00717 0.04552 0.0
O207 O 0.60471 0.97422 0.04167 0.0
C208 C 0.55585 0.92556 0.92748 0.0
C209 C 0.57142 0.91915 0.91971 0.0
H210 H 0.60477 0.90947 0.91179 0.0
H211 H 0.63664 0.92029 0.94409 0.0
H212 H 0.53726 0.96197 0.99338 0.0
H213 H 0.52912 0.94021 0.94979 0.0
H214 H 0.54133 0.92077 0.9145 0.0
H215 H 0.56874 0.9097 0.90076 0.0
Mn216 Mn 0.66523 0.68175 0.33688 0.0
Mn217 Mn 0.71447 0.72928 0.33858 0.0
C218 C 0.67125 0.71125 0.30826 0.0
C219 C 0.64211 0.64643 0.31849 0.0
C220 C 0.67915 0.71785 0.38189 0.0
O221 O 0.68496 0.672 0.35689 0.0
O222 O 0.7171 0.70447 0.3562 0.0
C223 C 0.73809 0.7152 0.29989 0.0
N224 N 0.73093 0.72965 0.30685 0.0
C225 C 0.74781 0.752 0.26646 0.0
C226 C 0.75526 0.73727 0.25879 0.0
C227 C 0.75033 0.71876 0.27555 0.0
C228 C 0.73539 0.74739 0.29071 0.0
H229 H 0.73457 0.70115 0.31286 0.0
C230 C 0.70551 0.68387 0.36248 0.0
O231 O 0.63843 0.65213 0.34271 0.0
O232 O 0.65968 0.66077 0.30566 0.0
N233 N 0.71486 0.75482 0.32243 0.0
C234 C 0.70732 0.76797 0.33344 0.0
C235 C 0.71149 0.78758 0.31971 0.0
C236 C 0.7238 0.79376 0.29518 0.0
C237 C 0.73183 0.78025 0.28457 0.0
C238 C 0.72719 0.76091 0.29921 0.0
H239 H 0.6982 0.76355 0.35258 0.0
O240 O 0.65134 0.69601 0.31419 0.0
O241 O 0.68712 0.70873 0.3191 0.0
O242 O 0.6653 0.69874 0.37209 0.0
O243 O 0.69791 0.73042 0.3709 0.0
C244 C 0.74454 0.78538 0.26029 0.0
C245 C 0.75234 0.77115 0.25109 0.0
H246 H 0.76484 0.74006 0.24014 0.0
H247 H 0.75606 0.70734 0.26984 0.0
H248 H 0.70539 0.79801 0.32815 0.0
H249 H 0.72721 0.80907 0.28491 0.0
H250 H 0.74846 0.80023 0.24853 0.0
H251 H 0.76197 0.77519 0.2323 0.0
Mn252 Mn 0.31074 0.98445 0.35273 0.0
Mn253 Mn 0.3106 0.93547 0.34876 0.0
C254 C 0.28943 0.95585 0.38342 0.0
C255 C 0.32531 0.02042 0.37065 0.0
C256 C 0.28401 0.94804 0.30922 0.0
O257 O 0.33771 0.99234 0.32884 0.0
O258 O 0.33621 0.95903 0.3284 0.0
C259 C 0.35128 0.94969 0.38264 0.0
N260 N 0.32939 0.93531 0.37808 0.0
C261 C 0.32775 0.91398 0.41853 0.0
C262 C 0.3503 0.92848 0.42354 0.0
C263 C 0.36209 0.94647 0.40559 0.0
C264 C 0.3178 0.91822 0.39554 0.0
H265 H 0.36044 0.96356 0.36892 0.0
C266 C 0.34527 0.97958 0.32178 0.0
O267 O 0.31389 0.01459 0.34762 0.0
O268 O 0.32946 0.00588 0.38229 0.0
N269 N 0.28729 0.91079 0.36765 0.0
C270 C 0.26605 0.89746 0.3589 0.0
C271 C 0.25199 0.87864 0.37446 0.0
C272 C 0.26017 0.87313 0.39824 0.0
C273 C 0.28242 0.88638 0.40606 0.0
C274 C 0.29557 0.90508 0.38984 0.0
H275 H 0.26013 0.90075 0.33972 0.0
O276 O 0.2855 0.97211 0.37908 0.0
O277 O 0.30619 0.9571 0.37003 0.0
O278 O 0.29004 0.96718 0.31978 0.0
O279 O 0.2904 0.93466 0.31853 0.0
C280 C 0.29217 0.88157 0.42901 0.0
C281 C 0.31476 0.89549 0.4354 0.0
H282 H 0.35872 0.92597 0.44114 0.0
H283 H 0.37948 0.9578 0.40938 0.0
H284 H 0.23501 0.86814 0.36779 0.0
H285 H 0.24934 0.8584 0.40994 0.0
H286 H 0.28249 0.86718 0.44185 0.0
H287 H 0.32202 0.89173 0.45324 0.0
Mn288 Mn 0.01156 0.32604 0.34703 0.0
Mn289 Mn 0.05914 0.37451 0.33874 0.0
C290 C 0.04242 0.33396 0.37432 0.0
C291 C 0.97747 0.30487 0.36827 0.0
C292 C 0.04482 0.33499 0.30033 0.0
O293 O 1.00103 0.34456 0.32545 0.0
O294 O 0.03374 0.376 0.32095 0.0
C295 C 0.04724 0.40181 0.37437 0.0
N296 N 0.06108 0.39373 0.36846 0.0
C297 C 0.08395 0.41207 0.40848 0.0
C298 C 0.06987 0.42049 0.41503 0.0
C299 C 0.05143 0.41533 0.3979 0.0
C300 C 0.07881 0.3985 0.38491 0.0
H301 H 0.03312 0.39797 0.36125 0.0
C302 C 0.0128 0.36446 0.31698 0.0
O303 O 0.98169 0.29911 0.34444 0.0
O304 O 0.99257 0.32338 0.3791 0.0
N305 N 0.08519 0.37602 0.35487 0.0
C306 C 0.09821 0.36826 0.34422 0.0
C307 C 0.11802 0.37304 0.35798 0.0
C308 C 0.12438 0.38595 0.38235 0.0
C309 C 0.11113 0.39442 0.39234 0.0
C310 C 0.09177 0.38944 0.37745 0.0
H311 H 0.09351 0.35847 0.32539 0.0
O312 O 0.02673 0.31365 0.37082 0.0
O313 O 0.0396 0.34909 0.36169 0.0
O314 O 0.0262 0.32263 0.31179 0.0
O315 O 0.05839 0.35475 0.30856 0.0
C316 C 0.1166 0.40798 0.41617 0.0
C317 C 0.10291 0.41664 0.42438 0.0
H318 H 0.07308 0.43099 0.43311 0.0
H319 H 0.04049 0.4218 0.40277 0.0
H320 H 0.12831 0.3667 0.3499 0.0
H321 H 0.13956 0.38941 0.39306 0.0
H322 H 0.13138 0.41197 0.42822 0.0
H323 H 0.10729 0.42704 0.44275 0.0
Mn324 Mn 0.66272 0.98406 0.33849 0.0
Mn325 Mn 0.71119 0.98373 0.34463 0.0
C326 C 0.66916 0.96011 0.31138 0.0
C327 C 0.64055 0.99719 0.31849 0.0
C328 C 0.67426 0.96157 0.38621 0.0
O329 O 0.68232 0.01319 0.35872 0.0
O330 O 0.71407 0.01167 0.3608 0.0
C331 C 0.73735 0.02074 0.30605 0.0
N332 N 0.72906 0.99909 0.31345 0.0
C333 C 0.74653 0.99237 0.27465 0.0
C334 C 0.75509 0.01457 0.2665 0.0
C335 C 0.75045 0.02881 0.28227 0.0
C336 C 0.73333 0.98522 0.29834 0.0
H337 H 0.73409 0.03177 0.31829 0.0
C338 C 0.70263 0.02125 0.36561 0.0
O339 O 0.63622 0.98779 0.34273 0.0
O340 O 0.65827 0.99987 0.30635 0.0
N341 N 0.71111 0.958 0.3299 0.0
C342 C 0.70224 0.93727 0.34111 0.0
C343 C 0.70573 0.92109 0.32816 0.0
C344 C 0.71867 0.92652 0.30419 0.0
C345 C 0.72814 0.94813 0.29347 0.0
C346 C 0.72407 0.96354 0.30726 0.0
H347 H 0.69249 0.93305 0.35972 0.0
O348 O 0.64917 0.95611 0.31589 0.0
O349 O 0.68485 0.97806 0.32288 0.0
O350 O 0.66111 0.96705 0.37428 0.0
O351 O 0.69338 0.96686 0.37692 0.0
C352 C 0.74162 0.95505 0.2698 0.0
C353 C 0.75065 0.9771 0.26026 0.0
H354 H 0.76531 0.02088 0.24826 0.0
H355 H 0.75707 0.046 0.27622 0.0
H356 H 0.69851 0.9045 0.33669 0.0
H357 H 0.72138 0.91401 0.29435 0.0
H358 H 0.74521 0.94358 0.25879 0.0
H359 H 0.76087 0.98218 0.24194 0.0
Mn360 Mn 0.02136 0.68964 0.35607 0.0
Mn361 Mn 0.07085 0.69152 0.35163 0.0
C362 C 0.05014 0.71244 0.38613 0.0
C363 C 0.98591 0.67437 0.3744 0.0
C364 C 0.05629 0.71636 0.31196 0.0
O365 O 0.01386 0.66221 0.33262 0.0
O366 O 0.04757 0.66504 0.33158 0.0
C367 C 0.05852 0.65147 0.38582 0.0
N368 N 0.0722 0.67351 0.38106 0.0
C369 C 0.09437 0.67662 0.42143 0.0
C370 C 0.0806 0.65394 0.42666 0.0
C371 C 0.06253 0.64134 0.40884 0.0
C372 C 0.08936 0.68587 0.39839 0.0
H373 H 0.04461 0.64168 0.37221 0.0
C374 C 0.02695 0.65519 0.32533 0.0
O375 O 0.9909 0.6853 0.35117 0.0
O376 O 1.00101 0.67107 0.38603 0.0
N377 N 0.09537 0.71573 0.3702 0.0
C378 C 0.10803 0.73697 0.36115 0.0
C379 C 0.12686 0.75179 0.3765 0.0
C380 C 0.13308 0.74436 0.40037 0.0
C381 C 0.12054 0.72209 0.40846 0.0
C382 C 0.10179 0.70817 0.39245 0.0
H383 H 0.10421 0.74231 0.34189 0.0
O384 O 0.03344 0.7156 0.3819 0.0
O385 O 0.04924 0.69553 0.37303 0.0
O386 O 0.03734 0.70988 0.32273 0.0
O387 O 0.07035 0.7109 0.32127 0.0
C388 C 0.12613 0.71305 0.43146 0.0
C389 C 0.11292 0.69039 0.43812 0.0
H390 H 0.08373 0.64604 0.44431 0.0
H391 H 0.05176 0.62383 0.41279 0.0
H392 H 0.13682 0.76877 0.36961 0.0
H393 H 0.1478 0.75577 0.41192 0.0
H394 H 0.1406 0.72333 0.44413 0.0
H395 H 0.11728 0.68368 0.45598 0.0
Mn396 Mn 0.32292 0.34563 0.34194 0.0
Mn397 Mn 0.2742 0.2979 0.34793 0.0
C398 C 0.29373 0.33876 0.31211 0.0
C399 C 0.35803 0.36667 0.32351 0.0
C400 C 0.28908 0.3368 0.38744 0.0
O401 O 0.33162 0.3261 0.36427 0.0
O402 O 0.29864 0.29443 0.36548 0.0
C403 C 0.28216 0.26733 0.31313 0.0
N404 N 0.27014 0.27755 0.31866 0.0
C405 C 0.24328 0.25621 0.28321 0.0
C406 C 0.25554 0.24568 0.27691 0.0
C407 C 0.27511 0.25133 0.29189 0.0
C408 C 0.25129 0.27225 0.30436 0.0
H409 H 0.29682 0.27117 0.32506 0.0
C410 C 0.31943 0.30582 0.37101 0.0
O411 O 0.35282 0.37178 0.3471 0.0
O412 O 0.34326 0.34857 0.31139 0.0
N413 N 0.24947 0.299 0.3316 0.0
C414 C 0.24015 0.31147 0.33933 0.0
C415 C 0.22097 0.30857 0.32551 0.0
C416 C 0.21131 0.29257 0.30434 0.0
C417 C 0.22101 0.27971 0.29704 0.0
C418 C 0.24035 0.28362 0.3112 0.0
H419 H 0.24738 0.32366 0.35575 0.0
O420 O 0.30953 0.35888 0.31679 0.0
O421 O 0.29529 0.32311 0.32541 0.0
O422 O 0.30755 0.34952 0.37602 0.0
O423 O 0.27578 0.31723 0.37881 0.0
C424 C 0.21238 0.2633 0.27611 0.0
C425 C 0.22346 0.2515 0.26927 0.0
H426 H 0.25008 0.23323 0.26065 0.0
H427 H 0.2846 0.24317 0.28729 0.0
H428 H 0.21359 0.31858 0.33125 0.0
H429 H 0.19648 0.29034 0.29378 0.0
H430 H 0.19741 0.25985 0.26486 0.0
H431 H 0.21682 0.23912 0.25289 0.0
Mn432 Mn 0.33543 0.02113 0.67135 0.0
Mn433 Mn 0.38504 0.06711 0.66595 0.0
C434 C 0.33985 0.04856 0.6401 0.0
C435 C 0.31181 0.98479 0.65644 0.0
C436 C 0.35385 0.0581 0.71468 0.0
O437 O 0.35624 0.01317 0.69267 0.0
O438 O 0.38889 0.04242 0.68088 0.0
C439 C 0.40371 0.05178 0.62184 0.0
N440 N 0.39812 0.06685 0.6314 0.0
C441 C 0.41222 0.08923 0.59038 0.0
C442 C 0.41824 0.07401 0.58013 0.0
C443 C 0.41385 0.05514 0.59587 0.0
C444 C 0.40185 0.08481 0.6162 0.0
H445 H 0.40041 0.03729 0.63395 0.0
C446 C 0.37736 0.02376 0.69306 0.0
O447 O 0.30892 0.99184 0.68021 0.0
O448 O 0.32899 0.9983 0.64239 0.0
N449 N 0.3842 0.09257 0.65171 0.0
C450 C 0.37757 0.10573 0.66472 0.0
C451 C 0.38076 0.12531 0.65178 0.0
C452 C 0.39124 0.13146 0.62594 0.0
C453 C 0.39843 0.11794 0.61324 0.0
C454 C 0.39472 0.09858 0.6271 0.0
H455 H 0.36987 0.10132 0.68482 0.0
O456 O 0.32029 0.03366 0.6477 0.0
O457 O 0.35612 0.04655 0.65049 0.0
O458 O 0.33729 0.04081 0.70432 0.0
O459 O 0.37213 0.06868 0.7018 0.0
C460 C 0.40936 0.12303 0.58754 0.0
C461 C 0.41606 0.10857 0.576 0.0
H462 H 0.42619 0.07662 0.56017 0.0
H463 H 0.41837 0.04327 0.58805 0.0
H464 H 0.37532 0.13574 0.66181 0.0
H465 H 0.39386 0.1467 0.61619 0.0
H466 H 0.41269 0.13799 0.57643 0.0
H467 H 0.42418 0.11252 0.55606 0.0
Mn468 Mn 0.98094 0.31546 0.68746 0.0
Mn469 Mn 0.98679 0.27022 0.69371 0.0
C470 C 0.95873 0.28769 0.71829 0.0
C471 C 0.9923 0.35177 0.7019 0.0
C472 C 0.96444 0.27904 0.64368 0.0
O473 O 0.00972 0.32389 0.66708 0.0
O474 O 0.01495 0.29558 0.68059 0.0
C475 C 0.01949 0.28512 0.73994 0.0
N476 N 0.99944 0.27006 0.72915 0.0
C477 C 0.99091 0.24718 0.76993 0.0
C478 C 0.01152 0.26238 0.78145 0.0
C479 C 0.02583 0.28149 0.76644 0.0
C480 C 0.9854 0.25182 0.74359 0.0
H481 H 0.03053 0.2998 0.72843 0.0
C482 C 0.02114 0.31397 0.6678 0.0
O483 O 0.98256 0.34448 0.67793 0.0
O484 O 0.99648 0.33849 0.71658 0.0
N485 N 0.96096 0.24429 0.70638 0.0
C486 C 0.94174 0.23122 0.69224 0.0
C487 C 0.92555 0.21149 0.70442 0.0
C488 C 0.92949 0.20515 0.73072 0.0
C489 C 0.94962 0.21857 0.74459 0.0
C490 C 0.96511 0.23806 0.73142 0.0
H491 H 0.93871 0.23584 0.67187 0.0
O492 O 0.95347 0.30243 0.71032 0.0
O493 O 0.97715 0.29012 0.70857 0.0
O494 O 0.96382 0.2957 0.65418 0.0
O495 O 0.97303 0.26895 0.65682 0.0
C496 C 0.955 0.21331 0.77087 0.0
C497 C 0.97556 0.22767 0.78361 0.0
H498 H 0.0165 0.25959 0.80185 0.0
H499 H 0.04172 0.29335 0.77524 0.0
H500 H 0.91012 0.20114 0.6935 0.0
H501 H 0.917 0.18984 0.73995 0.0
H502 H 0.94342 0.1983 0.78153 0.0
H503 H 0.97939 0.22359 0.80396 0.0
Mn504 Mn 0.67819 0.65805 0.67552 0.0
Mn505 Mn 0.72657 0.70576 0.66795 0.0
C506 C 0.70842 0.66508 0.70371 0.0
C507 C 0.64377 0.63802 0.69649 0.0
C508 C 0.71069 0.66623 0.6286 0.0
O509 O 0.66922 0.67748 0.65261 0.0
O510 O 0.7019 0.70935 0.65246 0.0
C511 C 0.71718 0.73305 0.70692 0.0
N512 N 0.73031 0.72459 0.69893 0.0
C513 C 0.75482 0.74151 0.73809 0.0
C514 C 0.74166 0.75053 0.74662 0.0
C515 C 0.72273 0.74623 0.731 0.0
C516 C 0.74838 0.72837 0.71402 0.0
H517 H 0.70251 0.72963 0.69512 0.0
C518 C 0.68124 0.69804 0.64661 0.0
O519 O 0.64787 0.63177 0.67293 0.0
O520 O 0.65908 0.65662 0.70691 0.0
N521 N 0.75216 0.70523 0.68219 0.0
C522 C 0.76379 0.69638 0.6702 0.0
C523 C 0.78371 0.69997 0.68255 0.0
C524 C 0.79161 0.7128 0.7069 0.0
C525 C 0.77969 0.72224 0.71842 0.0
C526 C 0.76017 0.71845 0.70488 0.0
H527 H 0.75793 0.68668 0.65134 0.0
O528 O 0.69218 0.64502 0.70052 0.0
O529 O 0.70641 0.68039 0.69039 0.0
O530 O 0.69284 0.65335 0.64128 0.0
O531 O 0.72388 0.68635 0.636 0.0
C532 C 0.78655 0.73547 0.74262 0.0
C533 C 0.77401 0.74494 0.75259 0.0
H534 H 0.74589 0.76072 0.76517 0.0
H535 H 0.71241 0.75302 0.73754 0.0
H536 H 0.79292 0.69279 0.67337 0.0
H537 H 0.80687 0.71534 0.71652 0.0
H538 H 0.80146 0.73849 0.7537 0.0
H539 H 0.77938 0.75498 0.77131 0.0
Mn540 Mn 0.32685 0.31636 0.66998 0.0
Mn541 Mn 0.37244 0.31135 0.67905 0.0
C542 C 0.3327 0.29278 0.64106 0.0
C543 C 0.30849 0.33365 0.64978 0.0
C544 C 0.33247 0.28986 0.7171 0.0
O545 O 0.34694 0.343 0.69489 0.0
O546 O 0.37805 0.34044 0.69395 0.0
C547 C 0.40218 0.34709 0.64103 0.0
N548 N 0.39219 0.32539 0.64899 0.0
C549 C 0.4103 0.31651 0.61301 0.0
C550 C 0.4209 0.33878 0.60453 0.0
C551 C 0.41671 0.3541 0.61851 0.0
C552 C 0.39575 0.31043 0.63533 0.0
H553 H 0.39903 0.35894 0.65175 0.0
C554 C 0.36743 0.35044 0.70074 0.0
O555 O 0.30174 0.32239 0.67264 0.0
O556 O 0.32684 0.33622 0.63966 0.0
N557 N 0.36977 0.28423 0.66511 0.0
C558 C 0.35799 0.2633 0.6756 0.0
C559 C 0.36007 0.24592 0.66365 0.0
C560 C 0.37463 0.25032 0.64151 0.0
C561 C 0.38699 0.27208 0.63151 0.0
C562 C 0.38407 0.28867 0.64406 0.0
H563 H 0.34702 0.25988 0.69288 0.0
O564 O 0.31315 0.29061 0.64336 0.0
O565 O 0.34823 0.3089 0.65545 0.0
O566 O 0.32037 0.29557 0.70314 0.0
O567 O 0.35251 0.29581 0.71084 0.0
C568 C 0.40222 0.27799 0.60972 0.0
C569 C 0.41363 0.30012 0.60021 0.0
H570 H 0.43222 0.34427 0.58727 0.0
H571 H 0.42473 0.3713 0.61201 0.0
H572 H 0.35055 0.22919 0.67158 0.0
H573 H 0.37622 0.23688 0.63238 0.0
H574 H 0.40533 0.26568 0.60012 0.0
H575 H 0.425 0.30436 0.58312 0.0
Mn576 Mn 0.68316 0.02 0.68853 0.0
Mn577 Mn 0.7302 0.01695 0.68465 0.0
C578 C 0.71332 0.04257 0.7166 0.0
C579 C 0.64857 0.0085 0.70766 0.0
C580 C 0.71801 0.04219 0.64296 0.0
O581 O 0.67263 0.99076 0.66814 0.0
O582 O 0.70495 0.99052 0.66636 0.0
C583 C 0.71636 0.97814 0.72176 0.0
N584 N 0.73063 0.9998 0.71574 0.0
C585 C 0.75186 0.00406 0.75751 0.0
C586 C 0.73725 0.98185 0.76424 0.0
C587 C 0.71944 0.96883 0.74626 0.0
C588 C 0.74784 0.01247 0.7329 0.0
H589 H 0.70279 0.96805 0.70793 0.0
C590 C 0.68421 0.98197 0.66104 0.0
O591 O 0.6537 0.0181 0.68353 0.0
O592 O 0.66307 0.00471 0.72006 0.0
N593 N 0.756 0.04099 0.70135 0.0
C594 C 0.76972 0.06142 0.6905 0.0
C595 C 0.78899 0.07619 0.7052 0.0
C596 C 0.79413 0.06971 0.7307 0.0
C597 C 0.78025 0.04828 0.74086 0.0
C598 C 0.76145 0.03418 0.72508 0.0
H599 H 0.76593 0.06647 0.67084 0.0
O600 O 0.69803 0.04769 0.71137 0.0
O601 O 0.71048 0.02423 0.70531 0.0
O602 O 0.69919 0.03698 0.65326 0.0
O603 O 0.731 0.03569 0.65306 0.0
C604 C 0.78454 0.04023 0.76579 0.0
C605 C 0.77027 0.01818 0.77421 0.0
H606 H 0.73961 0.97459 0.78309 0.0
H607 H 0.70814 0.95163 0.75124 0.0
H608 H 0.79979 0.09258 0.69699 0.0
H609 H 0.80889 0.08122 0.74212 0.0
H610 H 0.79888 0.0508 0.77853 0.0
H611 H 0.77376 0.01216 0.79339 0.0
Mn612 Mn 0.99015 0.67971 0.67558 0.0
Mn613 Mn 0.94367 0.62947 0.67494 0.0
C614 C 0.96129 0.67292 0.64505 0.0
C615 C 0.02605 0.70389 0.6611 0.0
C616 C 0.9533 0.66451 0.71877 0.0
O617 O 1.00007 0.66028 0.69602 0.0
O618 O 0.96849 0.62736 0.6934 0.0
C619 C 0.95894 0.60657 0.63653 0.0
N620 N 0.94415 0.61333 0.64303 0.0
C621 C 0.92248 0.59606 0.60183 0.0
C622 C 0.93758 0.58906 0.59461 0.0
C623 C 0.95592 0.59438 0.61202 0.0
C624 C 0.92657 0.60847 0.62628 0.0
H625 H 0.97285 0.61035 0.65002 0.0
C626 C 0.9888 0.63951 0.7007 0.0
O627 O 0.01871 0.7066 0.6846 0.0
O628 O 0.01267 0.68682 0.64613 0.0
N629 N 0.91824 0.62863 0.65784 0.0
C630 C 0.9048 0.63593 0.66831 0.0
C631 C 0.88533 0.63139 0.65386 0.0
C632 C 0.87963 0.61897 0.62914 0.0
C633 C 0.89349 0.61126 0.61901 0.0
C634 C 0.91266 0.61628 0.63435 0.0
H635 H 0.90886 0.64515 0.68757 0.0
O636 O 0.97591 0.6931 0.65178 0.0
O637 O 0.96406 0.65728 0.65627 0.0
O638 O 0.9721 0.67891 0.7095 0.0
O639 O 0.94145 0.6454 0.70768 0.0
C640 C 0.88888 0.59852 0.59453 0.0
C641 C 0.90348 0.59111 0.58581 0.0
H642 H 0.93521 0.5795 0.57583 0.0
H643 H 0.96762 0.58897 0.60667 0.0
H644 H 0.87465 0.63727 0.66189 0.0
H645 H 0.86442 0.61524 0.61832 0.0
H646 H 0.87415 0.59429 0.58225 0.0
H647 H 0.89984 0.58147 0.56685 0.0
H648 H 0.14485 0.33654 0.20934 0.0
H649 H 0.11755 0.33909 0.2383 0.0
H650 H 0.06488 0.286 0.19146 0.0
H651 H 0.09244 0.2833 0.1621 0.0
H652 H 0.15139 0.30122 0.20167 0.0
H653 H 0.1232 0.34147 0.14992 0.0
H654 H 0.097 0.34772 0.1227 0.0
H655 H 0.0972 0.30472 0.05814 0.0
H656 H 0.12146 0.29619 0.08701 0.0
H657 H 0.18169 0.28725 0.10619 0.0
H658 H 0.2148 0.29359 0.0809 0.0
H659 H 0.24844 0.36196 0.10809 0.0
H660 H 0.21559 0.35528 0.13445 0.0
H661 H 0.16114 0.32044 0.10199 0.0
H662 H 0.21205 0.30583 0.15812 0.0
H663 H 0.24367 0.3164 0.18825 0.0
H664 H 0.20903 0.32648 0.25536 0.0
H665 H 0.18128 0.32401 0.22335 0.0
C666 C 0.12071 0.30968 0.18356 0.0
C667 C 0.12744 0.32529 0.2053 0.0
C668 C 0.11192 0.32687 0.22173 0.0
C669 C 0.0893 0.3128 0.21693 0.0
C670 C 0.08234 0.29702 0.19535 0.0
C671 C 0.09799 0.29547 0.1787 0.0
C672 C 0.13801 0.30914 0.16623 0.0
C673 C 0.15441 0.30649 0.1802 0.0
C674 C 0.14025 0.31406 0.13748 0.0
C675 C 0.12388 0.3177 0.12115 0.0
C676 C 0.11686 0.33242 0.13062 0.0
C677 C 0.10207 0.33627 0.11484 0.0
C678 C 0.09497 0.32658 0.0884 0.0
C679 C 0.10217 0.31212 0.07862 0.0
C680 C 0.11622 0.30747 0.09501 0.0
C681 C 0.19639 0.32072 0.1225 0.0
C682 C 0.1962 0.3036 0.10666 0.0
C683 C 0.21504 0.30721 0.09226 0.0
C684 C 0.23412 0.32823 0.09265 0.0
C685 C 0.23395 0.3456 0.10761 0.0
C686 C 0.21526 0.34184 0.12259 0.0
C687 C 0.17672 0.31629 0.13877 0.0
C688 C 0.15925 0.31667 0.12404 0.0
C689 C 0.1748 0.31186 0.16792 0.0
C690 C 0.19357 0.31461 0.18706 0.0
C691 C 0.21149 0.31192 0.17842 0.0
C692 C 0.22944 0.31691 0.19633 0.0
C693 C 0.22868 0.32166 0.22454 0.0
C694 C 0.21018 0.32272 0.2338 0.0
C695 C 0.19371 0.32057 0.21521 0.0
H696 H 0.71437 0.8863 0.21065 0.0
H697 H 0.71123 0.9113 0.24389 0.0
H698 H 0.65072 0.90002 0.20394 0.0
H699 H 0.65326 0.87425 0.17114 0.0
H700 H 0.68749 0.84394 0.2064 0.0
H701 H 0.71207 0.90495 0.14096 0.0
H702 H 0.70871 0.93443 0.1162 0.0
H703 H 0.64574 0.88545 0.08208 0.0
H704 H 0.64908 0.85598 0.10658 0.0
H705 H 0.65069 0.79818 0.10326 0.0
H706 H 0.64825 0.76645 0.07743 0.0
H707 H 0.71104 0.77959 0.11225 0.0
H708 H 0.71354 0.81135 0.13822 0.0
H709 H 0.67966 0.84226 0.10374 0.0
H710 H 0.65361 0.78206 0.169 0.0
H711 H 0.6511 0.75315 0.20111 0.0
H712 H 0.71349 0.80007 0.23841 0.0
H713 H 0.71626 0.82887 0.20635 0.0
C714 C 0.68418 0.87849 0.18814 0.0
C715 C 0.70054 0.88936 0.20876 0.0
C716 C 0.69884 0.90371 0.22768 0.0
C717 C 0.68086 0.90758 0.22623 0.0
C718 C 0.66481 0.89733 0.20519 0.0
C719 C 0.66637 0.88277 0.18638 0.0
C720 C 0.68468 0.8611 0.1705 0.0
C721 C 0.68635 0.8439 0.18388 0.0
C722 C 0.68225 0.86049 0.1412 0.0
C723 C 0.68074 0.87831 0.12573 0.0
C724 C 0.69756 0.90057 0.12813 0.0
C725 C 0.69571 0.91733 0.11401 0.0
C726 C 0.67694 0.91201 0.0975 0.0
C727 C 0.66029 0.88978 0.0948 0.0
C728 C 0.66224 0.87303 0.10869 0.0
C729 C 0.68219 0.80702 0.12288 0.0
C730 C 0.66407 0.79443 0.10511 0.0
C731 C 0.66267 0.77637 0.09039 0.0
C732 C 0.6795 0.7708 0.09293 0.0
C733 C 0.69797 0.78375 0.10997 0.0
C734 C 0.69929 0.80172 0.12488 0.0
C735 C 0.68293 0.82535 0.13973 0.0
C736 C 0.68131 0.84259 0.12621 0.0
C737 C 0.68531 0.82598 0.16901 0.0
C738 C 0.68519 0.80762 0.18521 0.0
C739 C 0.66705 0.78597 0.18358 0.0
C740 C 0.66555 0.76954 0.20194 0.0
C741 C 0.68209 0.7746 0.22217 0.0
C742 C 0.7006 0.79591 0.22301 0.0
C743 C 0.70215 0.8123 0.20471 0.0
H744 H 0.10741 0.82744 0.1959 0.0
H745 H 0.08352 0.79949 0.22975 0.0
H746 H 0.10561 0.75481 0.20073 0.0
H747 H 0.12936 0.78265 0.16667 0.0
H748 H 0.1529 0.84513 0.19826 0.0
H749 H 0.094 0.80697 0.13132 0.0
H750 H 0.06607 0.7744 0.10548 0.0
H751 H 0.11745 0.76391 0.07189 0.0
H752 H 0.14541 0.79627 0.09789 0.0
H753 H 0.20157 0.85317 0.09916 0.0
H754 H 0.23382 0.88194 0.07466 0.0
H755 H 0.21998 0.93211 0.10599 0.0
H756 H 0.18765 0.90338 0.13052 0.0
H757 H 0.15799 0.83898 0.09628 0.0
H758 H 0.21485 0.86966 0.1661 0.0
H759 H 0.24316 0.89468 0.19947 0.0
H760 H 0.19825 0.91587 0.22949 0.0
H761 H 0.16982 0.89069 0.19632 0.0
C762 C 0.12015 0.80713 0.17877 0.0
C763 C 0.1067 0.81143 0.19633 0.0
C764 C 0.09303 0.79549 0.21552 0.0
C765 C 0.09287 0.77515 0.21771 0.0
C766 C 0.10542 0.77036 0.19919 0.0
C767 C 0.11895 0.78624 0.17981 0.0
C768 C 0.13728 0.82529 0.16182 0.0
C769 C 0.1537 0.84407 0.17584 0.0
C770 C 0.13881 0.82336 0.13276 0.0
C771 C 0.12182 0.80396 0.11677 0.0
C772 C 0.09928 0.79761 0.11855 0.0
C773 C 0.08337 0.77913 0.10375 0.0
C774 C 0.08977 0.76679 0.08692 0.0
C775 C 0.11225 0.77326 0.08482 0.0
C776 C 0.12816 0.79173 0.09958 0.0
C777 C 0.19231 0.87614 0.11684 0.0
C778 C 0.2053 0.87031 0.10053 0.0
C779 C 0.22367 0.88666 0.08661 0.0
C780 C 0.22914 0.90904 0.08855 0.0
C781 C 0.21589 0.91489 0.10424 0.0
C782 C 0.19759 0.89854 0.11831 0.0
C783 C 0.17353 0.85886 0.13277 0.0
C784 C 0.15691 0.84025 0.11861 0.0
C785 C 0.17201 0.86066 0.16184 0.0
C786 C 0.19021 0.87831 0.17872 0.0
C787 C 0.21127 0.88011 0.17933 0.0
C788 C 0.22742 0.89436 0.19834 0.0
C789 C 0.22276 0.90708 0.21692 0.0
C790 C 0.20216 0.90625 0.21523 0.0
C791 C 0.18595 0.89184 0.19642 0.0
H792 H 0.28944 0.17398 0.81575 0.0
H793 H 0.2872 0.20078 0.78651 0.0
H794 H 0.34615 0.25294 0.82618 0.0
H795 H 0.34855 0.2254 0.85459 0.0
H796 H 0.31997 0.16282 0.8182 0.0
H797 H 0.29173 0.19561 0.8851 0.0
H798 H 0.29464 0.22807 0.9098 0.0
H799 H 0.35693 0.24082 0.94589 0.0
H800 H 0.35428 0.20865 0.92098 0.0
H801 H 0.35402 0.15061 0.9239 0.0
H802 H 0.35642 0.12076 0.94883 0.0
H803 H 0.29789 0.07193 0.90565 0.0
H804 H 0.29531 0.10173 0.8808 0.0
H805 H 0.32496 0.16462 0.92115 0.0
H806 H 0.35542 0.13518 0.85876 0.0
H807 H 0.36195 0.11103 0.82783 0.0
H808 H 0.30376 0.09734 0.77979 0.0
H809 H 0.29657 0.12081 0.81145 0.0
C810 C 0.31847 0.19768 0.83855 0.0
C811 C 0.30142 0.19137 0.81886 0.0
C812 C 0.29975 0.20724 0.80254 0.0
C813 C 0.31442 0.23028 0.80625 0.0
C814 C 0.33262 0.23613 0.82463 0.0
C815 C 0.33441 0.22018 0.84078 0.0
C816 C 0.32028 0.18041 0.85513 0.0
C817 C 0.32052 0.16289 0.84076 0.0
C818 C 0.32227 0.18128 0.88452 0.0
C819 C 0.32293 0.19982 0.90092 0.0
C820 C 0.30601 0.20536 0.89833 0.0
C821 C 0.30761 0.2238 0.91244 0.0
C822 C 0.32606 0.23684 0.92949 0.0
C823 C 0.34261 0.23095 0.93276 0.0
C824 C 0.34104 0.21257 0.91864 0.0
C825 C 0.32461 0.12844 0.90025 0.0
C826 C 0.34157 0.13352 0.91995 0.0
C827 C 0.34299 0.11652 0.9341 0.0
C828 C 0.32741 0.09419 0.92891 0.0
C829 C 0.31012 0.08907 0.90979 0.0
C830 C 0.30872 0.10606 0.89559 0.0
C831 C 0.32379 0.14649 0.88418 0.0
C832 C 0.32393 0.16425 0.89862 0.0
C833 C 0.3226 0.14612 0.85473 0.0
C834 C 0.32534 0.12969 0.83771 0.0
C835 C 0.34363 0.1265 0.84215 0.0
C836 C 0.34748 0.11285 0.82438 0.0
C837 C 0.33337 0.1025 0.80152 0.0
C838 C 0.3148 0.10518 0.79736 0.0
C839 C 0.31078 0.11862 0.81536 0.0
H840 H 0.81848 0.1029 0.84451 0.0
H841 H 0.79187 0.07695 0.81002 0.0
H842 H 0.76206 0.11873 0.80236 0.0
H843 H 0.78929 0.14511 0.83564 0.0
H844 H 0.84152 0.15906 0.82309 0.0
H845 H 0.82453 0.11779 0.93155 0.0
H846 H 0.79356 0.09105 0.95986 0.0
H847 H 0.7488 0.105 0.91221 0.0
H848 H 0.77976 0.13265 0.88524 0.0
H849 H 0.85599 0.20558 0.92615 0.0
H850 H 0.88598 0.23742 0.95068 0.0
H851 H 0.93375 0.22328 0.91321 0.0
H852 H 0.90374 0.19131 0.88858 0.0
H853 H 0.84118 0.16173 0.92604 0.0
H854 H 0.87496 0.22206 0.86029 0.0
H855 H 0.90076 0.24972 0.82745 0.0
H856 H 0.90826 0.19862 0.7863 0.0
H857 H 0.88327 0.17115 0.81952 0.0
C858 C 0.80547 0.12561 0.84305 0.0
C859 C 0.80592 0.1062 0.83579 0.0
C860 C 0.79085 0.09149 0.8161 0.0
C861 C 0.77495 0.09589 0.80375 0.0
C862 C 0.7741 0.11497 0.81177 0.0
C863 C 0.7895 0.12991 0.83085 0.0
C864 C 0.82361 0.14304 0.85994 0.0
C865 C 0.84167 0.15957 0.84565 0.0
C866 C 0.82333 0.14369 0.8893 0.0
C867 C 0.80444 0.12681 0.90562 0.0
C868 C 0.80804 0.11507 0.92714 0.0
C869 C 0.79041 0.09979 0.94324 0.0
C870 C 0.76885 0.09583 0.93787 0.0
C871 C 0.76526 0.10759 0.91644 0.0
C872 C 0.78291 0.12314 0.90074 0.0
C873 C 0.87761 0.19616 0.90531 0.0
C874 C 0.87287 0.20909 0.92348 0.0
C875 C 0.88993 0.22722 0.93748 0.0
C876 C 0.912 0.23257 0.9338 0.0
C877 C 0.91678 0.21927 0.9164 0.0
C878 C 0.8997 0.20118 0.90224 0.0
C879 C 0.85943 0.17786 0.88914 0.0
C880 C 0.84135 0.16108 0.90352 0.0
C881 C 0.85955 0.17705 0.85972 0.0
C882 C 0.8773 0.19451 0.84258 0.0
C883 C 0.88268 0.21691 0.84477 0.0
C884 C 0.89725 0.23265 0.82595 0.0
C885 C 0.90641 0.22614 0.80453 0.0
C886 C 0.90153 0.20396 0.80281 0.0
C887 C 0.8872 0.18831 0.82172 0.0
H888 H 0.78799 0.64417 0.82477 0.0
H889 H 0.76052 0.64188 0.79061 0.0
H890 H 0.78569 0.7125 0.79847 0.0
H891 H 0.81209 0.71438 0.83461 0.0
H892 H 0.83723 0.67918 0.81624 0.0
H893 H 0.77372 0.65378 0.87056 0.0
H894 H 0.74272 0.65149 0.89509 0.0
H895 H 0.78712 0.69803 0.95621 0.0
H896 H 0.81873 0.70398 0.92806 0.0
H897 H 0.88954 0.71377 0.91008 0.0
H898 H 0.91934 0.71063 0.93441 0.0
H899 H 0.88444 0.63986 0.92001 0.0
H900 H 0.85514 0.64314 0.89495 0.0
H901 H 0.8355 0.68145 0.91912 0.0
H902 H 0.89857 0.70849 0.85459 0.0
H903 H 0.92645 0.70639 0.82569 0.0
H904 H 0.87592 0.64467 0.79037 0.0
H905 H 0.84817 0.64646 0.81958 0.0
C906 C 0.80161 0.67932 0.83267 0.0
C907 C 0.78721 0.65905 0.81965 0.0
C908 C 0.77161 0.65777 0.80016 0.0
C909 C 0.77107 0.67702 0.79195 0.0
C910 C 0.78573 0.69743 0.80466 0.0
C911 C 0.80071 0.69851 0.82524 0.0
C912 C 0.81917 0.68051 0.85148 0.0
C913 C 0.83687 0.67987 0.83876 0.0
C914 C 0.81836 0.6812 0.88098 0.0
C915 C 0.79904 0.67998 0.89613 0.0
C916 C 0.77722 0.66505 0.88768 0.0
C917 C 0.75925 0.66317 0.90241 0.0
C918 C 0.76241 0.67452 0.92767 0.0
C919 C 0.78413 0.68925 0.93664 0.0
C920 C 0.80221 0.69236 0.92069 0.0
C921 C 0.87022 0.67867 0.90083 0.0
C922 C 0.88823 0.69758 0.91251 0.0
C923 C 0.90518 0.6958 0.92629 0.0
C924 C 0.90403 0.675 0.92904 0.0
C925 C 0.88559 0.65602 0.91815 0.0
C926 C 0.8689 0.65787 0.90396 0.0
C927 C 0.85351 0.68068 0.88363 0.0
C928 C 0.83595 0.6816 0.8966 0.0
C929 C 0.85389 0.67967 0.85439 0.0
C930 C 0.8713 0.67756 0.83936 0.0
C931 C 0.89359 0.69422 0.8412 0.0
C932 C 0.90945 0.69311 0.82464 0.0
C933 C 0.90314 0.67543 0.80588 0.0
C934 C 0.88104 0.65843 0.80474 0.0
C935 C 0.86525 0.65949 0.82131 0.0
H936 H 0.81776 0.68507 0.53685 0.0
H937 H 0.78842 0.68449 0.56535 0.0
H938 H 0.74001 0.62563 0.52235 0.0
H939 H 0.76937 0.62591 0.49405 0.0
H940 H 0.83066 0.65444 0.53493 0.0
H941 H 0.80875 0.6917 0.46469 0.0
H942 H 0.78007 0.69529 0.43852 0.0
H943 H 0.75267 0.62775 0.40952 0.0
H944 H 0.7819 0.62442 0.43502 0.0
H945 H 0.86384 0.6245 0.47184 0.0
H946 H 0.89597 0.62648 0.44819 0.0
H947 H 0.90825 0.68756 0.40877 0.0
H948 H 0.87616 0.68562 0.43222 0.0
H949 H 0.83225 0.65568 0.43184 0.0
H950 H 0.84532 0.62516 0.53872 0.0
H951 H 0.87371 0.62904 0.57235 0.0
H952 H 0.92114 0.68961 0.5328 0.0
H953 H 0.8926 0.686 0.49908 0.0
C954 C 0.79577 0.65561 0.51319 0.0
C955 C 0.80083 0.67212 0.53338 0.0
C956 C 0.78414 0.67186 0.54953 0.0
C957 C 0.76214 0.65508 0.5458 0.0
C958 C 0.75691 0.63878 0.52532 0.0
C959 C 0.77363 0.63902 0.50915 0.0
C960 C 0.81383 0.65519 0.49745 0.0
C961 C 0.83097 0.65454 0.51237 0.0
C962 C 0.81434 0.65561 0.46811 0.0
C963 C 0.79744 0.65784 0.4516 0.0
C964 C 0.79669 0.67775 0.45248 0.0
C965 C 0.78035 0.67977 0.43766 0.0
C966 C 0.76432 0.6618 0.42205 0.0
C967 C 0.76497 0.64181 0.42133 0.0
C968 C 0.78162 0.63995 0.43574 0.0
C969 C 0.8677 0.65501 0.45395 0.0
C970 C 0.87335 0.63824 0.45798 0.0
C971 C 0.89156 0.63929 0.44443 0.0
C972 C 0.90439 0.65716 0.42678 0.0
C973 C 0.89847 0.67363 0.42226 0.0
C974 C 0.88019 0.67249 0.4356 0.0
C975 C 0.84918 0.65474 0.46939 0.0
C976 C 0.83189 0.65523 0.45438 0.0
C977 C 0.84871 0.65448 0.49881 0.0
C978 C 0.86683 0.65524 0.51632 0.0
C979 C 0.8619 0.6391 0.53694 0.0
C980 C 0.87809 0.64125 0.55612 0.0
C981 C 0.89944 0.65958 0.55507 0.0
C982 C 0.90473 0.6753 0.53381 0.0
C983 C 0.88849 0.67317 0.51456 0.0
H984 H 0.37722 0.21856 0.53974 0.0
H985 H 0.37433 0.24352 0.57317 0.0
H986 H 0.31497 0.23437 0.53221 0.0
H987 H 0.31706 0.20839 0.49929 0.0
H988 H 0.35011 0.1769 0.53531 0.0
H989 H 0.37554 0.23767 0.47081 0.0
H990 H 0.37281 0.2677 0.44672 0.0
H991 H 0.31072 0.21959 0.40962 0.0
H992 H 0.31332 0.18954 0.43374 0.0
H993 H 0.31361 0.13037 0.43288 0.0
H994 H 0.31095 0.09811 0.40811 0.0
H995 H 0.37412 0.11204 0.44249 0.0
H996 H 0.37684 0.14434 0.46738 0.0
H997 H 0.34287 0.1749 0.43259 0.0
H998 H 0.31834 0.11431 0.49779 0.0
H999 H 0.31702 0.08622 0.53044 0.0
H1000 H 0.37717 0.13582 0.56971 0.0
H1001 H 0.3792 0.16362 0.53659 0.0
C1002 C 0.34746 0.21164 0.51675 0.0
C1003 C 0.3637 0.22209 0.53761 0.0
C1004 C 0.36221 0.23649 0.55661 0.0
C1005 C 0.34467 0.24102 0.55495 0.0
C1006 C 0.32878 0.23125 0.5336 0.0
C1007 C 0.33008 0.21655 0.51473 0.0
C1008 C 0.34763 0.194 0.49921 0.0
C1009 C 0.34911 0.17679 0.51277 0.0
C1010 C 0.34543 0.19335 0.46988 0.0
C1011 C 0.34451 0.2114 0.45426 0.0
C1012 C 0.36134 0.23358 0.45749 0.0
C1013 C 0.35984 0.25066 0.44376 0.0
C1014 C 0.3415 0.24577 0.42664 0.0
C1015 C 0.32494 0.2236 0.42286 0.0
C1016 C 0.32647 0.20652 0.43651 0.0
C1017 C 0.34532 0.13967 0.4522 0.0
C1018 C 0.32704 0.12669 0.43483 0.0
C1019 C 0.3255 0.1083 0.42073 0.0
C1020 C 0.34234 0.10277 0.4235 0.0
C1021 C 0.361 0.11613 0.44006 0.0
C1022 C 0.36247 0.13444 0.45433 0.0
C1023 C 0.34602 0.15812 0.4688 0.0
C1024 C 0.34442 0.17531 0.45508 0.0
C1025 C 0.34837 0.15893 0.4981 0.0
C1026 C 0.34898 0.14106 0.5146 0.0
C1027 C 0.33167 0.11898 0.51279 0.0
C1028 C 0.33081 0.10301 0.53148 0.0
C1029 C 0.34706 0.10906 0.55237 0.0
C1030 C 0.36468 0.13086 0.55358 0.0
C1031 C 0.36573 0.1467 0.53475 0.0
H1032 H 0.76654 0.13859 0.50328 0.0
H1033 H 0.73976 0.10924 0.53376 0.0
H1034 H 0.79258 0.10214 0.57153 0.0
H1035 H 0.81925 0.13109 0.54096 0.0
H1036 H 0.83009 0.17323 0.53943 0.0
H1037 H 0.77914 0.15557 0.43867 0.0
H1038 H 0.75032 0.12381 0.41235 0.0
H1039 H 0.77443 0.08169 0.44614 0.0
H1040 H 0.80292 0.11326 0.47278 0.0
H1041 H 0.86934 0.18608 0.43282 0.0
H1042 H 0.90046 0.21512 0.40708 0.0
H1043 H 0.89235 0.26541 0.44952 0.0
H1044 H 0.86115 0.23634 0.47548 0.0
H1045 H 0.82641 0.17368 0.43644 0.0
H1046 H 0.88994 0.20356 0.49662 0.0
H1047 H 0.92078 0.22769 0.52756 0.0
H1048 H 0.87651 0.23945 0.57759 0.0
H1049 H 0.84568 0.2159 0.54615 0.0
C1050 C 0.79492 0.13704 0.51983 0.0
C1051 C 0.77231 0.13048 0.51779 0.0
C1052 C 0.75707 0.11384 0.53519 0.0
C1053 C 0.7643 0.10369 0.5549 0.0
C1054 C 0.78676 0.10985 0.55646 0.0
C1055 C 0.80193 0.1264 0.53911 0.0
C1056 C 0.81155 0.1557 0.50298 0.0
C1057 C 0.82921 0.17351 0.5169 0.0
C1058 C 0.81048 0.1558 0.47362 0.0
C1059 C 0.79308 0.13672 0.45774 0.0
C1060 C 0.77818 0.13949 0.44041 0.0
C1061 C 0.76177 0.12142 0.42548 0.0
C1062 C 0.76034 0.10046 0.42724 0.0
C1063 C 0.77529 0.09774 0.4445 0.0
C1064 C 0.79149 0.1157 0.45968 0.0
C1065 C 0.863 0.20903 0.45621 0.0
C1066 C 0.87404 0.20333 0.43638 0.0
C1067 C 0.89179 0.21984 0.42174 0.0
C1068 C 0.89861 0.24232 0.42644 0.0
C1069 C 0.88722 0.24811 0.44562 0.0
C1070 C 0.86954 0.23156 0.46046 0.0
C1071 C 0.84515 0.19134 0.47293 0.0
C1072 C 0.82714 0.17374 0.45898 0.0
C1073 C 0.8462 0.1912 0.50238 0.0
C1074 C 0.86545 0.20806 0.51881 0.0
C1075 C 0.88691 0.21185 0.51368 0.0
C1076 C 0.90449 0.22546 0.53145 0.0
C1077 C 0.90085 0.23523 0.55489 0.0
C1078 C 0.87962 0.23206 0.5596 0.0
C1079 C 0.86207 0.21861 0.54169 0.0
H1080 H 0.9595 0.52488 0.17506 0.0
H1081 H 0.96238 0.55393 0.14303 0.0
H1082 H 0.03229 0.57779 0.13536 0.0
H1083 H 0.02961 0.54961 0.16877 0.0
H1084 H 0.99275 0.49998 0.15341 0.0
H1085 H 0.96391 0.53253 0.22377 0.0
H1086 H 0.97021 0.5663 0.24831 0.0
H1087 H 0.03202 0.57482 0.28087 0.0
H1088 H 0.02631 0.5417 0.25517 0.0
H1089 H 0.01896 0.48095 0.25896 0.0
H1090 H 0.01974 0.44981 0.28252 0.0
H1091 H 0.96084 0.40362 0.23762 0.0
H1092 H 0.95985 0.43484 0.21408 0.0
H1093 H 0.99132 0.49675 0.25629 0.0
H1094 H 0.01585 0.45899 0.19613 0.0
H1095 H 0.01834 0.43275 0.16474 0.0
H1096 H 0.97409 0.43958 0.10687 0.0
H1097 H 0.96851 0.4627 0.14021 0.0
C1098 C 0.99446 0.53554 0.17486 0.0
C1099 C 0.97559 0.53694 0.16738 0.0
C1100 C 0.97718 0.55333 0.14892 0.0
C1101 C 0.99752 0.56792 0.13671 0.0
C1102 C 0.01647 0.56675 0.14461 0.0
C1103 C 0.01496 0.55074 0.16365 0.0
C1104 C 0.99232 0.51628 0.19088 0.0
C1105 C 0.99172 0.49867 0.17588 0.0
C1106 C 0.99232 0.51573 0.2202 0.0
C1107 C 0.99493 0.53492 0.23696 0.0
C1108 C 0.97898 0.54183 0.23578 0.0
C1109 C 0.98242 0.56091 0.25005 0.0
C1110 C 1.00159 0.57303 0.26633 0.0
C1111 C 0.01712 0.56565 0.26843 0.0
C1112 C 0.01384 0.54678 0.25382 0.0
C1113 C 0.98946 0.46026 0.23454 0.0
C1114 C 0.006 0.46417 0.25443 0.0
C1115 C 0.00652 0.44644 0.26779 0.0
C1116 C 0.99046 0.42448 0.26161 0.0
C1117 C 0.97342 0.42048 0.24252 0.0
C1118 C 0.97289 0.43826 0.22911 0.0
C1119 C 0.99033 0.47921 0.2187 0.0
C1120 C 0.99133 0.49719 0.23374 0.0
C1121 C 0.9908 0.48005 0.18914 0.0
C1122 C 0.99161 0.46278 0.17114 0.0
C1123 C 0.00566 0.45401 0.1775 0.0
C1124 C 0.00749 0.43931 0.1592 0.0
C1125 C 0.99671 0.43439 0.13311 0.0
C1126 C 0.98264 0.44305 0.12677 0.0
C1127 C 0.97967 0.45653 0.14581 0.0
H1128 H 0.48576 0.43655 0.16895 0.0
H1129 H 0.45879 0.41153 0.13406 0.0
H1130 H 0.43034 0.45462 0.12856 0.0
H1131 H 0.45794 0.48009 0.1622 0.0
H1132 H 0.50983 0.49428 0.15047 0.0
H1133 H 0.49202 0.44886 0.25626 0.0
H1134 H 0.46102 0.42147 0.28398 0.0
H1135 H 0.41622 0.43599 0.2373 0.0
H1136 H 0.44718 0.46434 0.21115 0.0
H1137 H 0.52127 0.53672 0.25536 0.0
H1138 H 0.55023 0.56853 0.28112 0.0
H1139 H 0.59993 0.55706 0.24411 0.0
H1140 H 0.57096 0.52513 0.21826 0.0
H1141 H 0.50782 0.49276 0.25347 0.0
H1142 H 0.54137 0.55564 0.19079 0.0
H1143 H 0.56737 0.58453 0.1593 0.0
H1144 H 0.57729 0.53554 0.1167 0.0
H1145 H 0.55223 0.50689 0.14858 0.0
C1146 C 0.4735 0.45989 0.16849 0.0
C1147 C 0.47349 0.44039 0.16049 0.0
C1148 C 0.4582 0.4262 0.14058 0.0
C1149 C 0.44254 0.4312 0.12878 0.0
C1150 C 0.44222 0.45041 0.13747 0.0
C1151 C 0.45785 0.46485 0.15672 0.0
C1152 C 0.49148 0.47657 0.18632 0.0
C1153 C 0.5096 0.49384 0.17304 0.0
C1154 C 0.49083 0.47596 0.21569 0.0
C1155 C 0.47189 0.45827 0.231 0.0
C1156 C 0.4755 0.44605 0.25188 0.0
C1157 C 0.45786 0.43038 0.26758 0.0
C1158 C 0.43631 0.4265 0.26238 0.0
C1159 C 0.43268 0.43849 0.24131 0.0
C1160 C 0.45034 0.45447 0.2261 0.0
C1161 C 0.54395 0.52865 0.23471 0.0
C1162 C 0.53835 0.54081 0.25307 0.0
C1163 C 0.55483 0.55893 0.26773 0.0
C1164 C 0.57713 0.56503 0.2645 0.0
C1165 C 0.58276 0.55249 0.24691 0.0
C1166 C 0.56627 0.5344 0.2321 0.0
C1167 C 0.52643 0.51058 0.21758 0.0
C1168 C 0.50838 0.49299 0.23094 0.0
C1169 C 0.52706 0.5109 0.18817 0.0
C1170 C 0.54498 0.5291 0.1722 0.0
C1171 C 0.54974 0.55125 0.1753 0.0
C1172 C 0.56445 0.5677 0.1573 0.0
C1173 C 0.57436 0.56211 0.13586 0.0
C1174 C 0.57016 0.5402 0.13337 0.0
C1175 C 0.55571 0.52385 0.15145 0.0
H1176 H 0.54026 0.03731 0.14532 0.0
H1177 H 0.56468 0.03211 0.11419 0.0
H1178 H 0.56882 0.98677 0.17267 0.0
H1179 H 0.54127 0.98877 0.20146 0.0
H1180 H 0.5028 0.01329 0.15541 0.0
H1181 H 0.56435 0.04576 0.22164 0.0
H1182 H 0.59502 0.04427 0.2459 0.0
H1183 H 0.5485 0.98313 0.28537 0.0
H1184 H 0.51785 0.98454 0.26123 0.0
H1185 H 0.46037 0.9824 0.26044 0.0
H1186 H 0.42738 0.97769 0.28434 0.0
H1187 H 0.43106 0.03357 0.2397 0.0
H1188 H 0.46464 0.03895 0.21645 0.0
H1189 H 0.50173 0.01293 0.2583 0.0
H1190 H 0.44093 0.9821 0.18915 0.0
H1191 H 0.41322 0.97995 0.15499 0.0
H1192 H 0.46207 0.04123 0.11819 0.0
H1193 H 0.48956 0.04378 0.15248 0.0
C1194 C 0.5387 0.01358 0.1762 0.0
C1195 C 0.54608 0.02596 0.15148 0.0
C1196 C 0.56033 0.02323 0.13375 0.0
C1197 C 0.56865 0.00898 0.14091 0.0
C1198 C 0.56256 0.99776 0.1665 0.0
C1199 C 0.54709 0.99932 0.18335 0.0
C1200 C 0.52084 0.01427 0.19269 0.0
C1201 C 0.50307 0.01394 0.17795 0.0
C1202 C 0.52047 0.01429 0.22222 0.0
C1203 C 0.53881 0.01514 0.23942 0.0
C1204 C 0.56072 0.03222 0.23583 0.0
C1205 C 0.57818 0.0314 0.24965 0.0
C1206 C 0.57394 0.01355 0.26729 0.0
C1207 C 0.55203 0.99703 0.27185 0.0
C1208 C 0.53458 0.99789 0.25817 0.0
C1209 C 0.46493 0.01085 0.23629 0.0
C1210 C 0.45436 0.99391 0.25604 0.0
C1211 C 0.43551 0.99116 0.26964 0.0
C1212 C 0.42681 0.00526 0.26374 0.0
C1213 C 0.43754 0.02253 0.24451 0.0
C1214 C 0.45659 0.02545 0.23111 0.0
C1215 C 0.48423 0.01268 0.22078 0.0
C1216 C 0.50204 0.01314 0.23576 0.0
C1217 C 0.48504 0.01347 0.19138 0.0
C1218 C 0.46731 0.01318 0.17347 0.0
C1219 C 0.44553 0.99537 0.1742 0.0
C1220 C 0.42977 0.99409 0.1547 0.0
C1221 C 0.43571 0.01045 0.13411 0.0
C1222 C 0.45721 0.02854 0.13394 0.0
C1223 C 0.47286 0.02992 0.15347 0.0
H1224 H 0.48164 0.00675 0.88346 0.0
H1225 H 0.4537 0.00796 0.91247 0.0
H1226 H 0.40214 0.95917 0.85978 0.0
H1227 H 0.43021 0.95682 0.83137 0.0
H1228 H 0.49203 0.97759 0.87347 0.0
H1229 H 0.45965 0.01268 0.82076 0.0
H1230 H 0.43233 0.01777 0.79441 0.0
H1231 H 0.43247 0.97466 0.7299 0.0
H1232 H 0.45727 0.96674 0.75833 0.0
H1233 H 0.52814 0.95622 0.80571 0.0
H1234 H 0.56058 0.96061 0.78045 0.0
H1235 H 0.57134 0.02338 0.74814 0.0
H1236 H 0.53897 0.01911 0.7734 0.0
H1237 H 0.49622 0.98964 0.77163 0.0
H1238 H 0.51029 0.95073 0.87167 0.0
H1239 H 0.53919 0.95488 0.90472 0.0
H1240 H 0.58232 0.02071 0.87385 0.0
H1241 H 0.55343 0.01662 0.84046 0.0
C1242 C 0.45811 0.98171 0.8551 0.0
C1243 C 0.46434 0.99592 0.87832 0.0
C1244 C 0.44843 0.99674 0.89482 0.0
C1245 C 0.42592 0.98362 0.88831 0.0
C1246 C 0.41948 0.96935 0.86516 0.0
C1247 C 0.43547 0.9681 0.84894 0.0
C1248 C 0.47565 0.98181 0.8375 0.0
C1249 C 0.49267 0.97993 0.8511 0.0
C1250 C 0.47681 0.98533 0.80826 0.0
C1251 C 0.46014 0.98869 0.7922 0.0
C1252 C 0.45307 0.00336 0.80169 0.0
C1253 C 0.43765 0.00655 0.78638 0.0
C1254 C 0.43027 0.99658 0.76012 0.0
C1255 C 0.43768 0.98233 0.75021 0.0
C1256 C 0.45209 0.97807 0.76634 0.0
C1257 C 0.53121 0.98742 0.7916 0.0
C1258 C 0.53743 0.97091 0.79316 0.0
C1259 C 0.55581 0.97332 0.77867 0.0
C1260 C 0.56821 0.99227 0.76245 0.0
C1261 C 0.56185 0.00861 0.76049 0.0
C1262 C 0.54341 0.00615 0.77485 0.0
C1263 C 0.51222 0.98534 0.80778 0.0
C1264 C 0.49504 0.98677 0.79388 0.0
C1265 C 0.51111 0.98218 0.83684 0.0
C1266 C 0.52973 0.98333 0.85355 0.0
C1267 C 0.52611 0.96589 0.87162 0.0
C1268 C 0.54253 0.96826 0.89053 0.0
C1269 C 0.56274 0.98813 0.89187 0.0
C1270 C 0.56681 0.00523 0.87303 0.0
C1271 C 0.55039 0.00285 0.85396 0.0
H1272 H 0.04612 0.5516 0.8675 0.0
H1273 H 0.04444 0.57761 0.90053 0.0
H1274 H 0.98403 0.56777 0.86165 0.0
H1275 H 0.98531 0.54128 0.82886 0.0
H1276 H 0.01706 0.50906 0.86434 0.0
H1277 H 0.04399 0.57031 0.80067 0.0
H1278 H 0.04191 0.60092 0.77724 0.0
H1279 H 0.98035 0.55386 0.73807 0.0
H1280 H 0.98215 0.52323 0.76176 0.0
H1281 H 0.98008 0.46367 0.76082 0.0
H1282 H 0.97662 0.43134 0.73537 0.0
H1283 H 0.03813 0.44201 0.77175 0.0
H1284 H 0.04171 0.47441 0.79721 0.0
H1285 H 0.01022 0.50736 0.76158 0.0
H1286 H 0.98316 0.44629 0.82675 0.0
H1287 H 0.98065 0.41759 0.85932 0.0
H1288 H 0.04151 0.46559 0.89869 0.0
H1289 H 0.04464 0.49395 0.8659 0.0
C1290 C 0.01589 0.54451 0.84558 0.0
C1291 C 0.03264 0.55522 0.86579 0.0
C1292 C 0.03176 0.57011 0.88458 0.0
C1293 C 0.01415 0.57457 0.88345 0.0
C1294 C 0.99783 0.5646 0.86265 0.0
C1295 C 0.99862 0.54957 0.84392 0.0
C1296 C 0.01549 0.52657 0.82815 0.0
C1297 C 0.01609 0.50892 0.8418 0.0
C1298 C 0.01337 0.52605 0.79883 0.0
C1299 C 0.01308 0.54448 0.78321 0.0
C1300 C 0.03004 0.56655 0.78705 0.0
C1301 C 0.02893 0.58398 0.77366 0.0
C1302 C 0.01093 0.57954 0.75611 0.0
C1303 C 0.99433 0.55751 0.7516 0.0
C1304 C 0.99541 0.54009 0.76501 0.0
C1305 C 0.01102 0.47133 0.78117 0.0
C1306 C 0.99298 0.45926 0.76306 0.0
C1307 C 0.99101 0.44087 0.74853 0.0
C1308 C 0.00718 0.43443 0.75164 0.0
C1309 C 0.02559 0.44686 0.769 0.0
C1310 C 0.02751 0.4652 0.78365 0.0
C1311 C 0.01232 0.49 0.79785 0.0
C1312 C 0.01163 0.50768 0.78408 0.0
C1313 C 0.01448 0.49064 0.82719 0.0
C1314 C 0.01417 0.4723 0.84377 0.0
C1315 C 0.99634 0.45048 0.84185 0.0
C1316 C 0.9948 0.43416 0.86051 0.0
C1317 C 0.01093 0.43957 0.88146 0.0
C1318 C 0.02903 0.46109 0.8827 0.0
C1319 C 0.03073 0.47727 0.86398 0.0
H1320 H 0.44937 0.49437 0.86969 0.0
H1321 H 0.42193 0.46565 0.89793 0.0
H1322 H 0.43432 0.41733 0.85676 0.0
H1323 H 0.46195 0.44649 0.82908 0.0
H1324 H 0.49229 0.50823 0.86695 0.0
H1325 H 0.43036 0.47512 0.80035 0.0
H1326 H 0.40144 0.44212 0.77601 0.0
H1327 H 0.45155 0.43147 0.73866 0.0
H1328 H 0.4804 0.46418 0.76306 0.0
H1329 H 0.54404 0.52187 0.77806 0.0
H1330 H 0.57564 0.55048 0.75228 0.0
H1331 H 0.55076 0.59609 0.7632 0.0
H1332 H 0.51897 0.56735 0.7887 0.0
H1333 H 0.49345 0.50774 0.76387 0.0
H1334 H 0.5405 0.5193 0.85918 0.0
H1335 H 0.56916 0.54535 0.89151 0.0
H1336 H 0.55027 0.59481 0.87248 0.0
H1337 H 0.52127 0.56857 0.84053 0.0
C1338 C 0.45693 0.47252 0.84606 0.0
C1339 C 0.44542 0.47735 0.866 0.0
C1340 C 0.42891 0.4604 0.88171 0.0
C1341 C 0.4225 0.43774 0.87726 0.0
C1342 C 0.43578 0.43352 0.85878 0.0
C1343 C 0.45234 0.45051 0.8431 0.0
C1344 C 0.47475 0.49075 0.82981 0.0
C1345 C 0.49225 0.50827 0.84439 0.0
C1346 C 0.47513 0.49052 0.80034 0.0
C1347 C 0.45757 0.47201 0.78374 0.0
C1348 C 0.43513 0.4658 0.78674 0.0
C1349 C 0.41866 0.44711 0.77277 0.0
C1350 C 0.42444 0.43449 0.75552 0.0
C1351 C 0.44683 0.44112 0.75177 0.0
C1352 C 0.46326 0.45977 0.76566 0.0
C1353 C 0.52936 0.54262 0.78549 0.0
C1354 C 0.54536 0.538 0.77483 0.0
C1355 C 0.56331 0.55426 0.76013 0.0
C1356 C 0.56545 0.57533 0.75581 0.0
C1357 C 0.54933 0.5799 0.76627 0.0
C1358 C 0.53133 0.5636 0.78092 0.0
C1359 C 0.51046 0.52535 0.80113 0.0
C1360 C 0.49302 0.50788 0.7864 0.0
C1361 C 0.51016 0.52541 0.83045 0.0
C1362 C 0.52896 0.54212 0.84728 0.0
C1363 C 0.54275 0.53586 0.86167 0.0
C1364 C 0.55906 0.55068 0.88004 0.0
C1365 C 0.56178 0.57194 0.88434 0.0
C1366 C 0.54845 0.57848 0.8693 0.0
C1367 C 0.53203 0.56359 0.85102 0.0
H1368 H 0.62731 0.84528 0.48202 0.0
H1369 H 0.62881 0.8749 0.45434 0.0
H1370 H 0.68807 0.92159 0.49908 0.0
H1371 H 0.68624 0.89152 0.52629 0.0
H1372 H 0.65711 0.83148 0.48629 0.0
H1373 H 0.62627 0.86396 0.55101 0.0
H1374 H 0.62993 0.89616 0.57717 0.0
H1375 H 0.6882 0.90262 0.61871 0.0
H1376 H 0.68471 0.87063 0.59252 0.0
H1377 H 0.67882 0.81237 0.59563 0.0
H1378 H 0.68033 0.78162 0.61897 0.0
H1379 H 0.62643 0.7347 0.5674 0.0
H1380 H 0.62421 0.76552 0.54459 0.0
H1381 H 0.65199 0.82721 0.58895 0.0
H1382 H 0.68009 0.79131 0.5317 0.0
H1383 H 0.68295 0.76409 0.50252 0.0
H1384 H 0.64055 0.77021 0.44093 0.0
H1385 H 0.63437 0.79418 0.47218 0.0
C1386 C 0.65596 0.86623 0.50733 0.0
C1387 C 0.64012 0.86213 0.48656 0.0
C1388 C 0.64069 0.87957 0.47117 0.0
C1389 C 0.65659 0.90203 0.47671 0.0
C1390 C 0.67361 0.90557 0.49608 0.0
C1391 C 0.67303 0.88806 0.5115 0.0
C1392 C 0.65512 0.8474 0.52339 0.0
C1393 C 0.6554 0.83005 0.50869 0.0
C1394 C 0.6543 0.84654 0.55273 0.0
C1395 C 0.65536 0.86501 0.56962 0.0
C1396 C 0.63981 0.87227 0.56577 0.0
C1397 C 0.64184 0.89055 0.58069 0.0
C1398 C 0.65941 0.90177 0.59969 0.0
C1399 C 0.67458 0.89418 0.60408 0.0
C1400 C 0.67254 0.87592 0.58922 0.0
C1401 C 0.65164 0.79133 0.56799 0.0
C1402 C 0.66686 0.79549 0.5898 0.0
C1403 C 0.66775 0.77797 0.60314 0.0
C1404 C 0.65349 0.75596 0.59489 0.0
C1405 C 0.63747 0.7516 0.57412 0.0
C1406 C 0.63635 0.76917 0.561 0.0
C1407 C 0.65285 0.81029 0.55174 0.0
C1408 C 0.65304 0.82797 0.56645 0.0
C1409 C 0.65456 0.81153 0.52225 0.0
C1410 C 0.65649 0.79462 0.50481 0.0
C1411 C 0.67042 0.78602 0.51265 0.0
C1412 C 0.67247 0.77076 0.49563 0.0
C1413 C 0.66223 0.76522 0.46923 0.0
C1414 C 0.64864 0.7741 0.46115 0.0
C1415 C 0.64535 0.78809 0.47897 0.0
H1416 H 0.16653 0.78055 0.49435 0.0
H1417 H 0.13859 0.75485 0.46133 0.0
H1418 H 0.09166 0.77291 0.49232 0.0
H1419 H 0.11967 0.799 0.52513 0.0
H1420 H 0.18273 0.8243 0.49293 0.0
H1421 H 0.14467 0.76712 0.56314 0.0
H1422 H 0.1144 0.74152 0.59164 0.0
H1423 H 0.10276 0.79506 0.61564 0.0
H1424 H 0.13303 0.82023 0.5875 0.0
H1425 H 0.19095 0.87497 0.59192 0.0
H1426 H 0.21933 0.90712 0.61775 0.0
H1427 H 0.26962 0.89388 0.5866 0.0
H1428 H 0.24123 0.86155 0.56076 0.0
H1429 H 0.17689 0.83225 0.59431 0.0
H1430 H 0.20952 0.88832 0.52596 0.0
H1431 H 0.23431 0.91598 0.49253 0.0
H1432 H 0.25032 0.86803 0.45895 0.0
H1433 H 0.22587 0.8404 0.49254 0.0
C1434 C 0.14519 0.7916 0.51244 0.0
C1435 C 0.15011 0.77869 0.49445 0.0
C1436 C 0.13418 0.76397 0.47564 0.0
C1437 C 0.11306 0.76189 0.4745 0.0
C1438 C 0.10781 0.77412 0.49314 0.0
C1439 C 0.12377 0.78892 0.51193 0.0
C1440 C 0.1631 0.80959 0.52925 0.0
C1441 C 0.18177 0.82574 0.51526 0.0
C1442 C 0.16123 0.81209 0.55808 0.0
C1443 C 0.14198 0.79591 0.57438 0.0
C1444 C 0.13601 0.77341 0.5755 0.0
C1445 C 0.11899 0.75884 0.59292 0.0
C1446 C 0.10816 0.76653 0.61094 0.0
C1447 C 0.11253 0.78861 0.60647 0.0
C1448 C 0.1296 0.80319 0.58931 0.0
C1449 C 0.21397 0.86594 0.57418 0.0
C1450 C 0.20803 0.87879 0.59084 0.0
C1451 C 0.22417 0.89707 0.60562 0.0
C1452 C 0.24646 0.90268 0.60419 0.0
C1453 C 0.25244 0.88964 0.58808 0.0
C1454 C 0.23629 0.87137 0.57317 0.0
C1455 C 0.19672 0.84683 0.55804 0.0
C1456 C 0.17815 0.83058 0.57208 0.0
C1457 C 0.19841 0.84453 0.52907 0.0
C1458 C 0.21592 0.86227 0.51195 0.0
C1459 C 0.21889 0.88392 0.51203 0.0
C1460 C 0.23295 0.89968 0.4929 0.0
C1461 C 0.24418 0.89403 0.47333 0.0
C1462 C 0.24195 0.87274 0.47395 0.0
C1463 C 0.22793 0.85698 0.49309 0.0
H1464 H 0.1248 0.31634 0.49564 0.0
H1465 H 0.09667 0.31259 0.46152 0.0
H1466 H 0.11974 0.3829 0.4678 0.0
H1467 H 0.1469 0.38628 0.50369 0.0
H1468 H 0.17404 0.35459 0.48465 0.0
H1469 H 0.11107 0.32448 0.5419 0.0
H1470 H 0.08007 0.31997 0.56881 0.0
H1471 H 0.12476 0.36878 0.62766 0.0
H1472 H 0.15595 0.37635 0.59769 0.0
H1473 H 0.22549 0.38799 0.58146 0.0
H1474 H 0.25606 0.38593 0.60529 0.0
H1475 H 0.22676 0.3168 0.58233 0.0
H1476 H 0.19688 0.31918 0.55754 0.0
H1477 H 0.17372 0.35451 0.58766 0.0
H1478 H 0.23692 0.3827 0.5257 0.0
H1479 H 0.26546 0.38118 0.49764 0.0
H1480 H 0.21486 0.3255 0.45188 0.0
H1481 H 0.18649 0.32589 0.48102 0.0
C1482 C 0.13742 0.35144 0.5028 0.0
C1483 C 0.12336 0.33083 0.49026 0.0
C1484 C 0.10743 0.32872 0.47072 0.0
C1485 C 0.10613 0.34747 0.46202 0.0
C1486 C 0.12038 0.36821 0.47431 0.0
C1487 C 0.13576 0.37013 0.49483 0.0
C1488 C 0.15585 0.35371 0.52084 0.0
C1489 C 0.17399 0.35466 0.50722 0.0
C1490 C 0.15554 0.35391 0.5504 0.0
C1491 C 0.13619 0.35158 0.56656 0.0
C1492 C 0.11444 0.33559 0.55917 0.0
C1493 C 0.09656 0.33251 0.57519 0.0
C1494 C 0.09994 0.344 0.60039 0.0
C1495 C 0.12161 0.35987 0.60817 0.0
C1496 C 0.13946 0.36395 0.59114 0.0
C1497 C 0.209 0.35374 0.56777 0.0
C1498 C 0.22561 0.37238 0.58179 0.0
C1499 C 0.24301 0.37121 0.59529 0.0
C1500 C 0.24364 0.35118 0.59567 0.0
C1501 C 0.2266 0.33239 0.58233 0.0
C1502 C 0.20954 0.33372 0.56829 0.0
C1503 C 0.19168 0.35534 0.55128 0.0
C1504 C 0.17384 0.35507 0.56513 0.0
C1505 C 0.19176 0.3551 0.52192 0.0
C1506 C 0.20947 0.35424 0.50578 0.0
C1507 C 0.23195 0.36977 0.51019 0.0
C1508 C 0.24823 0.36912 0.49397 0.0
C1509 C 0.24216 0.35344 0.47248 0.0
C1510 C 0.2198 0.33787 0.46818 0.0
C1511 C 0.20364 0.33816 0.48477 0.0
C1512 C 0.98699 0.39442 0.07322 0.0
C1513 C 0.00881 0.39835 0.06808 0.0
C1514 C 0.02279 0.42713 0.10421 0.0
C1515 C 1.00089 0.42118 0.11178 0.0
N1516 N 0.96213 0.39379 0.1084 0.0
N1517 N 0.0457 0.41273 0.08737 0.0
C1518 C 0.98295 0.40306 0.0979 0.0
C1519 C 0.02619 0.41295 0.08625 0.0
N1520 N 0.9703 0.38385 0.05412 0.0
N1521 N 0.04037 0.44675 0.11279 0.0
H1522 H 0.04781 0.40077 0.07697 0.0
H1523 H 0.05825 0.42219 0.10167 0.0
H1524 H 0.03868 0.45868 0.124 0.0
H1525 H 0.05637 0.45221 0.10577 0.0
H1526 H 0.9548 0.38254 0.05644 0.0
H1527 H 0.97244 0.37887 0.03459 0.0
H1528 H 0.94891 0.3794 0.1001 0.0
H1529 H 0.95871 0.39894 0.12715 0.0
C1530 C 0.58851 0.59518 0.06848 0.0
C1531 C 0.61184 0.60843 0.07141 0.0
C1532 C 0.61055 0.59163 0.11699 0.0
C1533 C 0.58727 0.57858 0.11414 0.0
N1534 N 0.55386 0.56601 0.0869 0.0
N1535 N 0.64452 0.62289 0.10069 0.0
C1536 C 0.57615 0.57999 0.08988 0.0
C1537 C 0.62275 0.6076 0.09625 0.0
N1538 N 0.57825 0.59728 0.04515 0.0
N1539 N 0.62105 0.58822 0.13915 0.0
H1540 H 0.65406 0.63503 0.08625 0.0
H1541 H 0.65283 0.62477 0.1195 0.0
H1542 H 0.61259 0.5772 0.15521 0.0
H1543 H 0.63812 0.595 0.14073 0.0
H1544 H 0.56124 0.59026 0.04251 0.0
H1545 H 0.58699 0.60661 0.02812 0.0
H1546 H 0.54483 0.56424 0.06878 0.0
H1547 H 0.54416 0.55513 0.10242 0.0
C1548 C 0.40463 0.99405 0.06464 0.0
C1549 C 0.39089 0.00385 0.06709 0.0
C1550 C 0.40661 0.01805 0.11339 0.0
C1551 C 0.42 0.0079 0.11129 0.0
N1552 N 0.43032 0.98417 0.08662 0.0
N1553 N 0.37703 0.02318 0.09535 0.0
C1554 C 0.41856 0.99526 0.08737 0.0
C1555 C 0.39139 0.01522 0.09185 0.0
N1556 N 0.40516 0.9846 0.03995 0.0
N1557 N 0.40768 0.0303 0.13605 0.0
H1558 H 0.36478 0.02086 0.08087 0.0
H1559 H 0.37712 0.03175 0.11321 0.0
H1560 H 0.41829 0.03329 0.15306 0.0
H1561 H 0.41829 0.03329 0.15306 0.0
H1562 H 0.41621 0.979 0.0355 0.0
H1563 H 0.39588 0.98432 0.02265 0.0
H1564 H 0.42823 0.97261 0.07142 0.0
H1565 H 0.44143 0.98545 0.10226 0.0
C1566 C 0.38789 0.97564 0.94841 0.0
C1567 C 0.38676 0.99568 0.94666 0.0
C1568 C 0.40757 0.00528 0.90307 0.0
C1569 C 0.40953 0.98587 0.9056 0.0
N1570 N 0.39767 0.95012 0.92644 0.0
N1571 N 0.39067 0.02662 0.9191 0.0
C1572 C 0.39827 0.97019 0.92682 0.0
C1573 C 0.39509 0.00956 0.9229 0.0
N1574 N 0.38043 0.96252 0.9715 0.0
N1575 N 0.41828 0.01999 0.8821 0.0
H1576 H 0.38184 0.0304 0.93333 0.0
H1577 H 0.39413 0.03593 0.90096 0.0
H1578 H 0.4262 0.01661 0.86608 0.0
H1579 H 0.42018 0.03587 0.88105 0.0
H1580 H 0.38389 0.94978 0.97599 0.0
H1581 H 0.37169 0.96485 0.98725 0.0
H1582 H 0.38761 0.93686 0.93922 0.0
H1583 H 0.40594 0.94596 0.91176 0.0
C1584 C 0.01553 0.39418 0.92139 0.0
C1585 C 0.00582 0.39464 0.94704 0.0
C1586 C 0.99649 0.42205 0.92785 0.0
C1587 C 0.00831 0.4233 0.90343 0.0
N1588 N 0.03108 0.41255 0.87769 0.0
N1589 N 0.98838 0.40992 0.97579 0.0
C1590 C 0.0184 0.40992 0.90041 0.0
C1591 C 0.99644 0.40866 0.95046 0.0
N1592 N 0.02113 0.37809 0.91659 0.0
N1593 N 0.98517 0.43355 0.92928 0.0
H1594 H 0.98844 0.40067 0.99292 0.0
H1595 H 0.98353 0.42151 0.98074 0.0
H1596 H 0.98548 0.44415 0.91359 0.0
H1597 H 0.9742 0.43147 0.94503 0.0
H1598 H 0.02615 0.37546 0.89735 0.0
H1599 H 0.01902 0.36603 0.93118 0.0
H1600 H 0.04106 0.40529 0.87585 0.0
H1601 H 0.03288 0.42331 0.86141 0.0
C1602 C 0.61568 0.60817 0.924 0.0
C1603 C 0.60743 0.61121 0.94951 0.0
C1604 C 0.56949 0.5899 0.93153 0.0
C1605 C 0.57761 0.58672 0.90603 0.0
N1606 N 0.60826 0.59659 0.87553 0.0
N1607 N 0.57742 0.61189 0.97338 0.0
C1608 C 0.60072 0.59703 0.9015 0.0
C1609 C 0.58464 0.60432 0.95196 0.0
N1610 N 0.63786 0.61607 0.92138 0.0
N1611 N 0.54736 0.57829 0.9369 0.0
H1612 H 0.58812 0.62354 0.98774 0.0
H1613 H 0.56122 0.60885 0.97486 0.0
H1614 H 0.53562 0.56738 0.92267 0.0
H1615 H 0.54084 0.57793 0.95639 0.0
H1616 H 0.64487 0.6121 0.90493 0.0
H1617 H 0.64931 0.62644 0.93627 0.0
H1618 H 0.62483 0.60538 0.87005 0.0
H1619 H 0.59768 0.5887 0.85867 0.0
C1620 C 0.99904 0.59032 0.95228 0.0
C1621 C 0.00742 0.61348 0.94856 0.0
C1622 C 0.02118 0.61135 0.9025 0.0
C1623 C 0.01175 0.58806 0.90568 0.0
N1624 N 0.9893 0.55464 0.93165 0.0
N1625 N 0.02233 0.64525 0.91795 0.0
C1626 C 0.99995 0.57733 0.93002 0.0
C1627 C 0.01741 0.62383 0.92307 0.0
N1628 N 0.99106 0.58094 0.97759 0.0
N1629 N 0.03401 0.62158 0.87997 0.0
H1630 H 0.0197 0.65496 0.93227 0.0
H1631 H 0.02743 0.65293 0.89871 0.0
H1632 H 0.03658 0.61287 0.86412 0.0
H1633 H 0.04343 0.63876 0.87795 0.0
H1634 H 0.98679 0.56471 0.9828 0.0
H1635 H 0.99091 0.59017 0.99453 0.0
H1636 H 0.97825 0.5456 0.94725 0.0
H1637 H 0.99025 0.54456 0.91627 0.0
C1638 C 0.38664 0.41154 0.93984 0.0
C1639 C 0.3875 0.39137 0.94138 0.0
C1640 C 0.39957 0.3969 0.89275 0.0
C1641 C 0.40443 0.41929 0.89454 0.0
N1642 N 0.38422 0.43753 0.9083 0.0
N1643 N 0.39261 0.36351 0.91711 0.0
C1644 C 0.39259 0.42386 0.91475 0.0
C1645 C 0.39322 0.38356 0.91713 0.0
N1646 N 0.38131 0.41976 0.96244 0.0
N1647 N 0.39733 0.38744 0.86723 0.0
H1648 H 0.38649 0.35228 0.9335 0.0
H1649 H 0.39915 0.35851 0.90107 0.0
H1650 H 0.39807 0.39605 0.84902 0.0
H1651 H 0.39171 0.37056 0.86428 0.0
H1652 H 0.38289 0.43557 0.9626 0.0
H1653 H 0.37704 0.41179 0.98157 0.0
H1654 H 0.37363 0.43983 0.92134 0.0
H1655 H 0.38553 0.44397 0.88829 0.0
C1656 C 0.59319 0.00509 0.96178 0.0
C1657 C 0.60877 0.99761 0.95846 0.0
C1658 C 0.59434 0.98415 0.91135 0.0
C1659 C 0.57888 0.99171 0.91459 0.0
N1660 N 0.56161 0.00731 0.94307 0.0
N1661 N 0.62747 0.98443 0.92836 0.0
C1662 C 0.57791 0.00184 0.93979 0.0
C1663 C 0.6102 0.98824 0.93281 0.0
N1664 N 0.59308 0.0153 0.98606 0.0
N1665 N 0.5934 0.97244 0.88803 0.0
H1666 H 0.63967 0.98746 0.94324 0.0
H1667 H 0.63086 0.97992 0.9092 0.0
H1668 H 0.5826 0.96988 0.8714 0.0
H1669 H 0.60213 0.96388 0.88587 0.0
H1670 H 0.58405 0.02343 0.98913 0.0
H1671 H 0.60259 0.01616 0.00345 0.0
H1672 H 0.55829 0.01268 0.96161 0.0
H1673 H 0.55035 0.00546 0.92733 0.0
C1674 C 0.59196 0.98014 0.09565 0.0
C1675 C 0.60686 0.99793 0.07852 0.0
C1676 C 0.60115 0.02336 0.10835 0.0
C1677 C 0.58274 0.0051 0.12085 0.0
N1678 N 0.55752 0.96536 0.11986 0.0
N1679 N 0.62129 0.03673 0.06578 0.0
C1680 C 0.57726 0.98322 0.1128 0.0
C1681 C 0.61048 0.01973 0.08413 0.0
N1682 N 0.59203 0.96042 0.09622 0.0
N1683 N 0.60994 0.04412 0.11964 0.0
H1684 H 0.62659 0.03482 0.04639 0.0
H1685 H 0.62246 0.05225 0.06842 0.0
H1686 H 0.60422 0.04722 0.13812 0.0
H1687 H 0.62444 0.05757 0.11236 0.0
H1688 H 0.5824 0.94771 0.11 0.0
H1689 H 0.60363 0.95788 0.08571 0.0
H1690 H 0.55239 0.94941 0.11233 0.0
H1691 H 0.54519 0.96681 0.13018 0.0
C1692 C 0.0169 0.62096 0.09459 0.0
C1693 C 0.00403 0.61257 0.06978 0.0
C1694 C 0.98718 0.57488 0.08876 0.0
C1695 C 0.99882 0.58342 0.11425 0.0
N1696 N 0.02048 0.61515 0.14372 0.0
N1697 N 0.9723 0.58224 0.04697 0.0
C1698 C 0.01238 0.60667 0.11788 0.0
C1699 C 0.98757 0.58981 0.06813 0.0
N1700 N 0.0337 0.64245 0.09585 0.0
N1701 N 0.97687 0.55257 0.0834 0.0
H1702 H 0.97158 0.59243 0.03151 0.0
H1703 H 0.95879 0.56622 0.04648 0.0
H1704 H 0.97694 0.541 0.09732 0.0
H1705 H 0.97028 0.54579 0.06394 0.0
H1706 H 0.04519 0.64865 0.11215 0.0
H1707 H 0.03712 0.65375 0.07974 0.0
H1708 H 0.02865 0.63209 0.14818 0.0
H1709 H 0.01711 0.60517 0.16133 0.0
C1710 C 0.41203 0.41444 0.05908 0.0
C1711 C 0.39665 0.39168 0.0636 0.0
C1712 C 0.4105 0.39497 0.11169 0.0
C1713 C 0.42716 0.41712 0.10619 0.0
N1714 N 0.44673 0.44633 0.0729 0.0
N1715 N 0.38204 0.35953 0.09359 0.0
C1716 C 0.42869 0.42644 0.07941 0.0
C1717 C 0.39626 0.38167 0.08966 0.0
N1718 N 0.41085 0.42461 0.03521 0.0
N1719 N 0.40738 0.38709 0.13833 0.0
H1720 H 0.37014 0.34949 0.07897 0.0
H1721 H 0.383 0.35067 0.1106 0.0
H1722 H 0.41708 0.39646 0.15512 0.0
H1723 H 0.39404 0.37203 0.14436 0.0
H1724 H 0.41968 0.44174 0.03229 0.0
H1725 H 0.40022 0.41598 0.01874 0.0
H1726 H 0.44989 0.45294 0.05292 0.0
H1727 H 0.45983 0.45519 0.08677 0.0
C1728 C 0.69092 0.74085 0.42557 0.0
C1729 C 0.67356 0.7267 0.40708 0.0
C1730 C 0.64805 0.7328 0.43574 0.0
C1731 C 0.66617 0.75085 0.44946 0.0
N1732 N 0.70593 0.77501 0.4515 0.0
N1733 N 0.63536 0.71307 0.3923 0.0
C1734 C 0.68797 0.75568 0.44291 0.0
C1735 C 0.65192 0.72348 0.41159 0.0
N1736 N 0.71013 0.73999 0.42702 0.0
N1737 N 0.62717 0.72433 0.44583 0.0
H1738 H 0.63742 0.70752 0.37312 0.0
H1739 H 0.62007 0.71234 0.3941 0.0
H1740 H 0.62386 0.73003 0.46423 0.0
H1741 H 0.61373 0.71005 0.43766 0.0
H1742 H 0.72253 0.74903 0.44167 0.0
H1743 H 0.71237 0.72823 0.41614 0.0
H1744 H 0.72192 0.77971 0.44509 0.0
H1745 H 0.70471 0.7875 0.46201 0.0
C1746 C 0.29036 0.93911 0.4299 0.0
C1747 C 0.27796 0.93984 0.40644 0.0
C1748 C 0.24381 0.91052 0.42707 0.0
C1749 C 0.25613 0.90958 0.45023 0.0
N1750 N 0.29105 0.92093 0.47312 0.0
N1751 N 0.24213 0.93131 0.38764 0.0
C1752 C 0.27941 0.92337 0.45153 0.0
C1753 C 0.25448 0.92701 0.40642 0.0
N1754 N 0.31231 0.95454 0.43241 0.0
N1755 N 0.22194 0.89498 0.42416 0.0
H1756 H 0.2489 0.94358 0.37255 0.0
H1757 H 0.22503 0.9243 0.38874 0.0
H1758 H 0.21331 0.88275 0.43894 0.0
H1759 H 0.21283 0.89287 0.40595 0.0
H1760 H 0.32199 0.95639 0.44993 0.0
H1761 H 0.32076 0.96686 0.4177 0.0
H1762 H 0.30819 0.92842 0.47402 0.0
H1763 H 0.28344 0.91011 0.48965 0.0
C1764 C 0.07532 0.33164 0.39238 0.0
C1765 C 0.0597 0.33899 0.39597 0.0
C1766 C 0.0733 0.35037 0.44388 0.0
C1767 C 0.09046 0.34529 0.43911 0.0
N1768 N 0.11058 0.33555 0.40668 0.0
N1769 N 0.04477 0.3571 0.42446 0.0
C1770 C 0.09218 0.33705 0.41278 0.0
C1771 C 0.05912 0.34907 0.42144 0.0
N1772 N 0.07426 0.31972 0.36926 0.0
N1773 N 0.06958 0.35499 0.47024 0.0
H1774 H 0.0329 0.35505 0.40956 0.0
H1775 H 0.04567 0.36721 0.44097 0.0
H1776 H 0.07899 0.35525 0.48745 0.0
H1777 H 0.05588 0.35644 0.47563 0.0
H1778 H 0.0834 0.31157 0.36713 0.0
H1779 H 0.06338 0.31704 0.35274 0.0
H1780 H 0.1137 0.33157 0.38701 0.0
H1781 H 0.12399 0.34067 0.42037 0.0
C1782 C 0.05418 0.30693 0.27993 0.0
C1783 C 0.0517 0.3261 0.27645 0.0
C1784 C 0.06764 0.33155 0.22971 0.0
C1785 C 0.0733 0.31482 0.23526 0.0
N1786 N 0.07295 0.2869 0.26559 0.0
N1787 N 0.0558 0.35666 0.24774 0.0
C1788 C 0.06652 0.30235 0.26016 0.0
C1789 C 0.05818 0.33829 0.2511 0.0
N1790 N 0.04503 0.29313 0.30216 0.0
N1791 N 0.07129 0.3409 0.20384 0.0
H1792 H 0.04771 0.36136 0.26199 0.0
H1793 H 0.06271 0.3679 0.2315 0.0
H1794 H 0.07836 0.33637 0.18791 0.0
H1795 H 0.06568 0.35166 0.19732 0.0
H1796 H 0.04405 0.27765 0.30388 0.0
H1797 H 0.03679 0.29604 0.31804 0.0
H1798 H 0.07142 0.27946 0.28491 0.0
H1799 H 0.08113 0.2824 0.25114 0.0
C1800 C 0.68473 0.72765 0.26092 0.0
C1801 C 0.67473 0.72787 0.28648 0.0
C1802 C 0.66805 0.75735 0.26881 0.0
C1803 C 0.67925 0.75818 0.24398 0.0
N1804 N 0.7008 0.74634 0.21749 0.0
N1805 N 0.65628 0.74259 0.31461 0.0
C1806 C 0.68831 0.74393 0.24033 0.0
C1807 C 0.66612 0.74248 0.29022 0.0
N1808 N 0.68973 0.71118 0.25572 0.0
N1809 N 0.65934 0.77096 0.27305 0.0
H1810 H 0.65531 0.73277 0.33163 0.0
H1811 H 0.64971 0.75308 0.31805 0.0
H1812 H 0.66001 0.78267 0.25873 0.0
H1813 H 0.66001 0.78267 0.25873 0.0
H1814 H 0.69487 0.7087 0.2365 0.0
H1815 H 0.68707 0.69872 0.26994 0.0
H1816 H 0.71017 0.73846 0.21519 0.0
H1817 H 0.70312 0.75755 0.20156 0.0
C1818 C 0.24608 0.92223 0.29047 0.0
C1819 C 0.26764 0.94004 0.28575 0.0
C1820 C 0.25848 0.93883 0.23592 0.0
C1821 C 0.23824 0.91895 0.24047 0.0
N1822 N 0.21437 0.88969 0.2717 0.0
N1823 N 0.29466 0.966 0.25411 0.0
C1824 C 0.23243 0.91015 0.26766 0.0
C1825 C 0.2739 0.94868 0.25848 0.0
N1826 N 0.23826 0.91745 0.31687 0.0
N1827 N 0.26266 0.94852 0.21025 0.0
H1828 H 0.30564 0.97456 0.27036 0.0
H1829 H 0.30134 0.97136 0.23449 0.0
H1830 H 0.25175 0.94163 0.19342 0.0
H1831 H 0.27606 0.96407 0.20603 0.0
H1832 H 0.22186 0.90627 0.32155 0.0
H1833 H 0.24787 0.92635 0.33387 0.0
H1834 H 0.21086 0.8815 0.29076 0.0
H1835 H 0.20403 0.8799 0.25557 0.0
C1836 C 0.66372 0.92368 0.29337 0.0
C1837 C 0.6731 0.94697 0.29002 0.0
C1838 C 0.68797 0.94456 0.24475 0.0
C1839 C 0.67807 0.92121 0.24797 0.0
N1840 N 0.65637 0.88843 0.2761 0.0
N1841 N 0.69004 0.97898 0.25987 0.0
C1842 C 0.66587 0.91079 0.2722 0.0
C1843 C 0.6842 0.95731 0.265 0.0
N1844 N 0.65288 0.91359 0.31719 0.0
N1845 N 0.70141 0.95462 0.22262 0.0
H1846 H 0.68728 0.98884 0.27379 0.0
H1847 H 0.69603 0.98681 0.24091 0.0
H1848 H 0.70394 0.94576 0.20694 0.0
H1849 H 0.71134 0.97175 0.22078 0.0
H1850 H 0.64567 0.89649 0.32037 0.0
H1851 H 0.65181 0.92239 0.33407 0.0
H1852 H 0.65713 0.87743 0.26193 0.0
H1853 H 0.65713 0.87743 0.26193 0.0
C1854 C 0.08077 0.75401 0.29194 0.0
C1855 C 0.06312 0.73209 0.28807 0.0
C1856 C 0.0623 0.73971 0.23815 0.0
C1857 C 0.08209 0.7603 0.24179 0.0
N1858 N 0.11213 0.78559 0.27174 0.0
N1859 N 0.03629 0.70382 0.25764 0.0
C1860 C 0.09181 0.7671 0.2686 0.0
C1861 C 0.0535 0.72489 0.26119 0.0
N1862 N 0.08635 0.76273 0.31807 0.0
N1863 N 0.05173 0.73463 0.21286 0.0
H1864 H 0.02846 0.69323 0.27427 0.0
H1865 H 0.03027 0.69649 0.23829 0.0
H1866 H 0.05788 0.74508 0.19567 0.0
H1867 H 0.03619 0.72094 0.20931 0.0
H1868 H 0.09745 0.7794 0.32216 0.0
H1869 H 0.07813 0.75357 0.33545 0.0
H1870 H 0.12098 0.78982 0.29047 0.0
H1871 H 0.12114 0.79559 0.25519 0.0
C1872 C 0.27436 0.31888 0.26768 0.0
C1873 C 0.27777 0.33454 0.28886 0.0
C1874 C 0.25504 0.34604 0.26185 0.0
C1875 C 0.24738 0.32696 0.24457 0.0
N1876 N 0.25008 0.29388 0.23343 0.0
N1877 N 0.26841 0.36124 0.30753 0.0
C1878 C 0.25713 0.31312 0.24789 0.0
C1879 C 0.26737 0.34773 0.28628 0.0
N1880 N 0.28731 0.30913 0.2663 0.0
N1881 N 0.25142 0.36309 0.25435 0.0
H1882 H 0.27634 0.36216 0.32638 0.0
H1883 H 0.25926 0.3695 0.30751 0.0
H1884 H 0.24396 0.36329 0.23545 0.0
H1885 H 0.25827 0.37809 0.2652 0.0
H1886 H 0.28495 0.29745 0.25103 0.0
H1887 H 0.30112 0.31371 0.27909 0.0
H1888 H 0.23623 0.2868 0.2203 0.0
H1889 H 0.23623 0.2868 0.2203 0.0
C1890 C 0.27819 0.36304 0.40958 0.0
C1891 C 0.28207 0.3447 0.41204 0.0
C1892 C 0.26396 0.33534 0.45755 0.0
C1893 C 0.25891 0.35276 0.45419 0.0
N1894 N 0.2649 0.38608 0.4307 0.0
N1895 N 0.28279 0.31618 0.4403 0.0
C1896 C 0.26739 0.36764 0.43146 0.0
C1897 C 0.27629 0.33178 0.43676 0.0
N1898 N 0.28339 0.37511 0.38555 0.0
N1899 N 0.25626 0.32179 0.48028 0.0
H1900 H 0.29121 0.31272 0.42513 0.0
H1901 H 0.28119 0.30761 0.45871 0.0
H1902 H 0.24857 0.32496 0.49676 0.0
H1903 H 0.2568 0.30711 0.48268 0.0
H1904 H 0.27808 0.3864 0.38061 0.0
H1905 H 0.29233 0.37323 0.36965 0.0
H1906 H 0.27282 0.39899 0.41657 0.0
H1907 H 0.25613 0.38942 0.44555 0.0
C1908 C 0.68106 0.95623 0.43677 0.0
C1909 C 0.66718 0.94863 0.41258 0.0
C1910 C 0.64032 0.91678 0.43949 0.0
C1911 C 0.65692 0.92088 0.45962 0.0
N1912 N 0.68221 0.95253 0.48671 0.0
N1913 N 0.63238 0.92092 0.39173 0.0
C1914 C 0.67453 0.94302 0.46126 0.0
C1915 C 0.64624 0.92893 0.41428 0.0
N1916 N 0.70036 0.976 0.43664 0.0
N1917 N 0.61864 0.90352 0.44596 0.0
H1918 H 0.6358 0.92872 0.37248 0.0
H1919 H 0.61813 0.90538 0.39171 0.0
H1920 H 0.61395 0.89694 0.4659 0.0
H1921 H 0.60566 0.90161 0.43299 0.0
H1922 H 0.71212 0.9808 0.45262 0.0
H1923 H 0.70506 0.9872 0.42019 0.0
H1924 H 0.69363 0.9693 0.48952 0.0
H1925 H 0.67453 0.94422 0.50495 0.0
C1926 C 0.07862 0.74859 0.40804 0.0
C1927 C 0.06646 0.72497 0.40873 0.0
C1928 C 0.08411 0.72544 0.45378 0.0
C1929 C 0.09722 0.74887 0.45182 0.0
N1930 N 0.11039 0.78229 0.42466 0.0
N1931 N 0.05342 0.69129 0.43553 0.0
C1932 C 0.09539 0.7603 0.42831 0.0
C1933 C 0.06815 0.71343 0.43247 0.0
N1934 N 0.07346 0.76007 0.38893 0.0
N1935 N 0.08738 0.71469 0.47573 0.0
H1936 H 0.04097 0.68207 0.42104 0.0
H1937 H 0.05227 0.68215 0.45326 0.0
H1938 H 0.09828 0.72306 0.49213 0.0
H1939 H 0.08045 0.69753 0.4771 0.0
H1940 H 0.07999 0.77723 0.38959 0.0
H1941 H 0.061 0.75251 0.37401 0.0
H1942 H 0.11179 0.79077 0.40618 0.0
H1943 H 0.12291 0.79163 0.43905 0.0
C1944 C 0.33261 0.05529 0.7591 0.0
C1945 C 0.35118 0.0677 0.74164 0.0
C1946 C 0.358 0.10214 0.76431 0.0
C1947 C 0.33909 0.09018 0.78091 0.0
N1948 N 0.31085 0.05515 0.7986 0.0
N1949 N 0.38772 0.10027 0.74199 0.0
C1950 C 0.32701 0.06661 0.77958 0.0
C1951 C 0.36582 0.09037 0.74837 0.0
N1952 N 0.32108 0.03267 0.75708 0.0
N1953 N 0.36845 0.12482 0.76335 0.0
H1954 H 0.39529 0.09128 0.73556 0.0
H1955 H 0.39906 0.11647 0.74798 0.0
H1956 H 0.36313 0.13423 0.77441 0.0
H1957 H 0.38105 0.13402 0.74937 0.0
H1958 H 0.3056 0.02276 0.76567 0.0
H1959 H 0.32755 0.02365 0.74745 0.0
H1960 H 0.30246 0.03795 0.80052 0.0
H1961 H 0.30658 0.06299 0.81386 0.0
C1962 C 0.95519 0.27287 0.76689 0.0
C1963 C 0.94565 0.27146 0.74012 0.0
C1964 C 0.90973 0.24237 0.75692 0.0
C1965 C 0.91989 0.24216 0.78264 0.0
N1966 N 0.95253 0.25528 0.81153 0.0
N1967 N 0.91435 0.25417 0.70871 0.0
C1968 C 0.9427 0.2569 0.78748 0.0
C1969 C 0.92299 0.25611 0.73494 0.0
N1970 N 0.97584 0.29003 0.77302 0.0
N1971 N 0.88728 0.22982 0.7538 0.0
H1972 H 0.92357 0.26386 0.69205 0.0
H1973 H 0.89869 0.24169 0.70268 0.0
H1974 H 0.87706 0.2193 0.76927 0.0
H1975 H 0.87847 0.231 0.73682 0.0
H1976 H 0.98278 0.29332 0.79293 0.0
H1977 H 0.9855 0.30218 0.75865 0.0
H1978 H 0.96954 0.26381 0.81503 0.0
H1979 H 0.94381 0.24406 0.82729 0.0
C1980 C 0.74083 0.66206 0.72219 0.0
C1981 C 0.72552 0.66983 0.72552 0.0
C1982 C 0.73907 0.68124 0.77342 0.0
C1983 C 0.75591 0.67565 0.76886 0.0
N1984 N 0.7758 0.6654 0.73669 0.0
N1985 N 0.71104 0.68856 0.75358 0.0
C1986 C 0.75758 0.6673 0.74262 0.0
C1987 C 0.72508 0.68015 0.75084 0.0
N1988 N 0.73947 0.64976 0.69938 0.0
N1989 N 0.73543 0.68612 0.79968 0.0
H1990 H 0.69936 0.68673 0.73849 0.0
H1991 H 0.71202 0.69877 0.77003 0.0
H1992 H 0.74471 0.68627 0.81697 0.0
H1993 H 0.72193 0.68796 0.80491 0.0
H1994 H 0.74837 0.64134 0.69743 0.0
H1995 H 0.72851 0.64705 0.68303 0.0
H1996 H 0.77883 0.6612 0.7171 0.0
H1997 H 0.78918 0.67047 0.7504 0.0
C1998 C 0.72625 0.64298 0.60969 0.0
C1999 C 0.71756 0.65743 0.60476 0.0
C2000 C 0.73332 0.6655 0.55806 0.0
C2001 C 0.74488 0.65388 0.56473 0.0
N2002 N 0.75256 0.6313 0.59641 0.0
N2003 N 0.70489 0.67444 0.57131 0.0
C2004 C 0.74111 0.64222 0.59025 0.0
C2005 C 0.71879 0.66641 0.57796 0.0
N2006 N 0.71951 0.62933 0.63229 0.0
N2007 N 0.73692 0.6763 0.53317 0.0
H2008 H 0.69256 0.67268 0.58491 0.0
H2009 H 0.70372 0.68026 0.55174 0.0
H2010 H 0.74686 0.67527 0.51781 0.0
H2011 H 0.7309 0.687 0.52808 0.0
H2012 H 0.72385 0.61714 0.63615 0.0
H2013 H 0.70737 0.62839 0.64558 0.0
H2014 H 0.75282 0.62494 0.61597 0.0
H2015 H 0.76295 0.62966 0.58231 0.0
C2016 C 0.33428 0.07949 0.6221 0.0
C2017 C 0.34232 0.06442 0.61785 0.0
C2018 C 0.3536 0.07869 0.57061 0.0
C2019 C 0.34482 0.09313 0.5745 0.0
N2020 N 0.32397 0.10539 0.60186 0.0
N2021 N 0.35486 0.04597 0.58629 0.0
C2022 C 0.3343 0.09296 0.59967 0.0
C2023 C 0.35066 0.06296 0.59159 0.0
N2024 N 0.3274 0.08149 0.64793 0.0
N2025 N 0.36512 0.08032 0.54707 0.0
H2026 H 0.35273 0.03395 0.60095 0.0
H2027 H 0.35878 0.04267 0.5667 0.0
H2028 H 0.36708 0.09125 0.53093 0.0
H2029 H 0.37411 0.07207 0.54438 0.0
H2030 H 0.32365 0.09381 0.65333 0.0
H2031 H 0.32731 0.07203 0.66494 0.0
H2032 H 0.3139 0.10419 0.61834 0.0
H2033 H 0.32411 0.11589 0.58613 0.0
C2034 C 0.94552 0.24709 0.60915 0.0
C2035 C 0.95277 0.26963 0.61617 0.0
C2036 C 0.92975 0.27096 0.57736 0.0
C2037 C 0.91899 0.24742 0.57557 0.0
N2038 N 0.91497 0.21269 0.59251 0.0
N2039 N 0.95698 0.30476 0.6007 0.0
C2040 C 0.9264 0.23539 0.59226 0.0
C2041 C 0.94637 0.28214 0.59838 0.0
N2042 N 0.95783 0.2373 0.61627 0.0
N2043 N 0.92453 0.28252 0.5584 0.0
H2044 H 0.97209 0.31363 0.61118 0.0
H2045 H 0.95143 0.31482 0.59159 0.0
H2046 H 0.91263 0.27475 0.54275 0.0
H2047 H 0.93257 0.29974 0.55698 0.0
H2048 H 0.95359 0.22123 0.61011 0.0
H2049 H 0.97405 0.2463 0.62361 0.0
H2050 H 0.91857 0.20335 0.60657 0.0
H2051 H 0.90067 0.2033 0.58064 0.0
C2052 C 0.32545 0.25606 0.62131 0.0
C2053 C 0.33682 0.27966 0.61976 0.0
C2054 C 0.35347 0.27795 0.5756 0.0
C2055 C 0.3419 0.25442 0.57709 0.0
N2056 N 0.31958 0.22089 0.6028 0.0
N2057 N 0.35803 0.31291 0.5928 0.0
C2058 C 0.32848 0.24341 0.60026 0.0
C2059 C 0.35 0.2906 0.59627 0.0
N2060 N 0.31146 0.24575 0.64286 0.0
N2061 N 0.36827 0.28821 0.55475 0.0
H2062 H 0.35565 0.3228 0.6071 0.0
H2063 H 0.36564 0.3215 0.57479 0.0
H2064 H 0.37056 0.27952 0.53864 0.0
H2065 H 0.37944 0.30518 0.55439 0.0
H2066 H 0.30035 0.22881 0.64371 0.0
H2067 H 0.31045 0.25444 0.65984 0.0
H2068 H 0.3119 0.21197 0.62058 0.0
H2069 H 0.32109 0.21099 0.58764 0.0
C2070 C 0.72915 0.07885 0.61927 0.0
C2071 C 0.72571 0.05678 0.61798 0.0
C2072 C 0.74205 0.06445 0.57139 0.0
C2073 C 0.74876 0.08721 0.57498 0.0
N2074 N 0.7505 0.11682 0.60312 0.0
N2075 N 0.72925 0.02849 0.59279 0.0
C2076 C 0.74255 0.09458 0.59896 0.0
C2077 C 0.73214 0.04952 0.59391 0.0
N2078 N 0.71986 0.085 0.63986 0.0
N2079 N 0.74494 0.05712 0.54626 0.0
H2080 H 0.72098 0.01657 0.60798 0.0
H2081 H 0.73608 0.02314 0.57754 0.0
H2082 H 0.75217 0.06774 0.52943 0.0
H2083 H 0.73843 0.04041 0.54123 0.0
H2084 H 0.71979 0.10003 0.63983 0.0
H2085 H 0.71045 0.07454 0.65576 0.0
H2086 H 0.7491 0.12351 0.62184 0.0
H2087 H 0.76002 0.12888 0.58859 0.0
C2088 C 0.93001 0.67696 0.62465 0.0
C2089 C 0.94514 0.6689 0.62216 0.0
C2090 C 0.93036 0.65466 0.5753 0.0
C2091 C 0.91562 0.66323 0.57773 0.0
N2092 N 0.90175 0.68308 0.60523 0.0
N2093 N 0.96312 0.65437 0.59288 0.0
C2094 C 0.91565 0.67459 0.60226 0.0
C2095 C 0.94624 0.65886 0.59687 0.0
N2096 N 0.92889 0.68669 0.64878 0.0
N2097 N 0.92876 0.642 0.5527 0.0
H2098 H 0.9753 0.6575 0.60783 0.0
H2099 H 0.96619 0.64921 0.57398 0.0
H2100 H 0.91779 0.63915 0.53618 0.0
H2101 H 0.93706 0.63296 0.55117 0.0
H2102 H 0.91803 0.69289 0.65138 0.0
H2103 H 0.93819 0.68776 0.66645 0.0
H2104 H 0.89046 0.6822 0.59005 0.0
H2105 H 0.89046 0.6822 0.59005 0.0
C2106 C 0.93945 0.6879 0.74219 0.0
C2107 C 0.94418 0.67006 0.74348 0.0
C2108 C 0.92694 0.6599 0.7895 0.0
C2109 C 0.91915 0.67522 0.78586 0.0
N2110 N 0.91575 0.70222 0.75739 0.0
N2111 N 0.94185 0.63846 0.76825 0.0
C2112 C 0.925 0.68898 0.762 0.0
C2113 C 0.93785 0.65594 0.76721 0.0
N2114 N 0.94856 0.70381 0.72208 0.0
N2115 N 0.92418 0.64941 0.8145 0.0
H2116 H 0.95085 0.63565 0.75322 0.0
H2117 H 0.93525 0.62602 0.78321 0.0
H2118 H 0.91626 0.65203 0.83117 0.0
H2119 H 0.93141 0.63974 0.8196 0.0
H2120 H 0.94762 0.7184 0.72223 0.0
H2121 H 0.95882 0.70374 0.70663 0.0
H2122 H 0.91703 0.71036 0.73865 0.0
H2123 H 0.90521 0.7037 0.77138 0.0
C2124 C 0.33317 0.2852 0.76905 0.0
C2125 C 0.32319 0.2764 0.74274 0.0
C2126 C 0.29755 0.24188 0.76599 0.0
C2127 C 0.31269 0.24776 0.78856 0.0
N2128 N 0.33213 0.27914 0.81896 0.0
N2129 N 0.29253 0.2468 0.71739 0.0
C2130 C 0.32709 0.27084 0.79256 0.0
C2131 C 0.30421 0.25494 0.74155 0.0
N2132 N 0.34779 0.30732 0.77158 0.0
N2133 N 0.27587 0.22661 0.76966 0.0
H2134 H 0.29562 0.25628 0.69949 0.0
H2135 H 0.28015 0.23027 0.71523 0.0
H2136 H 0.26988 0.22006 0.78929 0.0
H2137 H 0.26368 0.22313 0.75456 0.0
H2138 H 0.35787 0.31446 0.789 0.0
H2139 H 0.34936 0.31847 0.75594 0.0
H2140 H 0.3413 0.29598 0.82372 0.0
H2141 H 0.32481 0.269 0.83618 0.0
C2142 C 0.74594 0.07804 0.73326 0.0
C2143 C 0.73045 0.05537 0.7381 0.0
C2144 C 0.74339 0.05934 0.78671 0.0
C2145 C 0.76007 0.08145 0.78105 0.0
N2146 N 0.78028 0.11022 0.74749 0.0
N2147 N 0.71524 0.02365 0.76881 0.0
C2148 C 0.76214 0.09038 0.75393 0.0
C2149 C 0.72955 0.04573 0.76459 0.0
N2150 N 0.74534 0.08779 0.70874 0.0
N2151 N 0.73992 0.0518 0.81351 0.0
H2152 H 0.70368 0.0134 0.75399 0.0
H2153 H 0.71581 0.01502 0.7863 0.0
H2154 H 0.74942 0.06137 0.8303 0.0
H2155 H 0.72654 0.03679 0.81959 0.0
H2156 H 0.7542 0.10486 0.70539 0.0
H2157 H 0.73518 0.07885 0.69207 0.0
H2158 H 0.78389 0.11653 0.72738 0.0
H2159 H 0.79301 0.11937 0.76171 0.0
C2160 C 0.04978 0.32542 0.04045 0.0
C2161 C 0.0561 0.34843 0.03996 0.0
C2162 C 0.09029 0.35641 0.06482 0.0
C2163 C 0.08187 0.33354 0.0702 0.0
N2164 N 0.05107 0.29616 0.06687 0.0
N2165 N 0.08052 0.38497 0.06007 0.0
C2166 C 0.06085 0.31794 0.05912 0.0
C2167 C 0.07587 0.36375 0.05444 0.0
N2168 N 0.03421 0.31081 0.02223 0.0
N2169 N 0.11218 0.37123 0.0692 0.0
H2170 H 0.06974 0.39096 0.05574 0.0
H2171 H 0.09389 0.39574 0.07258 0.0
H2172 H 0.1236 0.3664 0.07557 0.0
H2173 H 0.11928 0.38786 0.06331 0.0
H2174 H 0.03042 0.29426 0.02068 0.0
H2175 H 0.02729 0.31571 0.00626 0.0
H2176 H 0.03486 0.28465 0.06126 0.0
H2177 H 0.05832 0.29014 0.08108 0.0
C2178 C 0.6813 0.73122 0.03901 0.0
C2179 C 0.66813 0.7105 0.05228 0.0
C2180 C 0.66587 0.72989 0.09376 0.0
C2181 C 0.67683 0.75033 0.07932 0.0
N2182 N 0.69349 0.77073 0.03753 0.0
N2183 N 0.64454 0.6899 0.09054 0.0
C2184 C 0.68417 0.75109 0.05173 0.0
C2185 C 0.65967 0.70975 0.0793 0.0
N2186 N 0.6917 0.73196 0.01478 0.0
N2187 N 0.66143 0.72971 0.12142 0.0
H2188 H 0.63888 0.67468 0.0806 0.0
H2189 H 0.63589 0.68859 0.1086 0.0
H2190 H 0.665 0.74401 0.13259 0.0
H2191 H 0.65592 0.71565 0.13387 0.0
H2192 H 0.7033 0.74666 0.00547 0.0
H2193 H 0.6902 0.71777 0.00517 0.0
H2194 H 0.6969 0.77198 0.01638 0.0
H2195 H 0.69656 0.78569 0.04656 0.0
C2196 C 0.28995 0.94863 0.07578 0.0
C2197 C 0.28908 0.95728 0.04919 0.0
C2198 C 0.24869 0.93388 0.04807 0.0
C2199 C 0.24956 0.92644 0.07536 0.0
N2200 N 0.27028 0.92976 0.11738 0.0
N2201 N 0.2676 0.96134 0.01217 0.0
C2202 C 0.26998 0.93483 0.08991 0.0
C2203 C 0.26842 0.95078 0.03589 0.0
N2204 N 0.30976 0.95245 0.08686 0.0
N2205 N 0.22909 0.92444 0.03362 0.0
H2206 H 0.28169 0.97403 0.00295 0.0
H2207 H 0.25294 0.95897 0.003 0.0
H2208 H 0.21422 0.91252 0.04222 0.0
H2209 H 0.22778 0.92726 0.01258 0.0
H2210 H 0.31113 0.94451 0.10461 0.0
H2211 H 0.32482 0.96188 0.077 0.0
H2212 H 0.2844 0.93743 0.12995 0.0
H2213 H 0.25602 0.91926 0.12833 0.0
C2214 C 0.32925 0.05697 0.9865 0.0
C2215 C 0.33806 0.04538 0.97186 0.0
C2216 C 0.33784 0.06408 0.92861 0.0
C2217 C 0.32956 0.07619 0.94325 0.0
N2218 N 0.31277 0.08092 0.98428 0.0
N2219 N 0.34362 0.03219 0.92827 0.0
C2220 C 0.3238 0.0716 0.9717 0.0
C2221 C 0.34012 0.04716 0.94263 0.0
N2222 N 0.32647 0.05423 0.01458 0.0
N2223 N 0.34447 0.0694 0.90168 0.0
H2224 H 0.34427 0.01903 0.93813 0.0
H2225 H 0.34345 0.03132 0.90666 0.0
H2226 H 0.34302 0.08163 0.89059 0.0
H2227 H 0.35292 0.06287 0.89098 0.0
H2228 H 0.32274 0.06408 0.02724 0.0
H2229 H 0.32871 0.04238 0.0255 0.0
H2230 H 0.30632 0.07685 0.00419 0.0
H2231 H 0.30856 0.09165 0.97396 0.0
C2232 C 0.95574 0.27318 0.985 0.0
C2233 C 0.96187 0.29366 0.97145 0.0
C2234 C 0.93797 0.27351 0.93156 0.0
C2235 C 0.93008 0.2533 0.94635 0.0
N2236 N 0.92959 0.23366 0.98805 0.0
N2237 N 0.95559 0.31353 0.93405 0.0
C2238 C 0.93846 0.25306 0.97336 0.0
C2239 C 0.95225 0.29389 0.94522 0.0
N2240 N 0.967 0.2729 0.00838 0.0
N2241 N 0.93192 0.27324 0.90432 0.0
H2242 H 0.96528 0.32888 0.94357 0.0
H2243 H 0.947 0.31449 0.91667 0.0
H2244 H 0.92096 0.25873 0.89374 0.0
H2245 H 0.93921 0.28714 0.89148 0.0
H2246 H 0.9649 0.25837 0.01767 0.0
H2247 H 0.97988 0.28727 0.01722 0.0
H2248 H 0.93314 0.23278 0.00896 0.0
H2249 H 0.9175 0.21854 0.97976 0.0
C2250 C 0.70647 0.64006 0.96021 0.0
C2251 C 0.70309 0.6559 0.97512 0.0
C2252 C 0.7382 0.68518 0.95626 0.0
C2253 C 0.74288 0.66877 0.94564 0.0
N2254 N 0.73392 0.63025 0.94748 0.0
N2255 N 0.71988 0.69374 0.99267 0.0
C2256 C 0.72783 0.64611 0.95086 0.0
C2257 C 0.72011 0.67861 0.97472 0.0
N2258 N 0.6893 0.61958 0.95342 0.0
N2259 N 0.75038 0.70681 0.94821 0.0
H2260 H 0.70826 0.68952 0.00828 0.0
H2261 H 0.73292 0.71 0.99427 0.0
H2262 H 0.76309 0.71213 0.93386 0.0
H2263 H 0.74625 0.7189 0.9536 0.0
H2264 H 0.69134 0.60843 0.94093 0.0
H2265 H 0.6728 0.61492 0.95672 0.0
H2266 H 0.72366 0.61369 0.95298 0.0
H2267 H 0.75 0.63411 0.94254 0.0
C2268 C 0.94588 0.67593 0.9823 0.0
C2269 C 0.95553 0.66549 0.96681 0.0
C2270 C 0.93466 0.66584 0.92546 0.0
C2271 C 0.9226 0.67303 0.94197 0.0
N2272 N 0.91444 0.68174 0.98735 0.0
N2273 N 0.95514 0.64602 0.92484 0.0
C2274 C 0.9276 0.67728 0.97076 0.0
C2275 C 0.94897 0.65932 0.93863 0.0
N2276 N 0.95465 0.68531 0.00756 0.0
N2277 N 0.93277 0.6656 0.89711 0.0
H2278 H 0.9644 0.63951 0.934 0.0
H2279 H 0.94893 0.63934 0.90523 0.0
H2280 H 0.92281 0.67072 0.88662 0.0
H2281 H 0.94283 0.66255 0.88403 0.0
H2282 H 0.94958 0.69497 0.0185 0.0
H2283 H 0.96857 0.68546 0.01622 0.0
H2284 H 0.91596 0.68262 0.00895 0.0
H2285 H 0.90073 0.68259 0.97981 0.0
C2286 C 0.32984 0.27648 0.98688 0.0
C2287 C 0.33884 0.29676 0.97197 0.0
C2288 C 0.33678 0.27732 0.92858 0.0
C2289 C 0.3285 0.25709 0.94357 0.0
N2290 N 0.3127 0.23618 0.9853 0.0
N2291 N 0.34459 0.31566 0.92828 0.0
C2292 C 0.32359 0.2563 0.97227 0.0
C2293 C 0.34029 0.29688 0.94264 0.0
N2294 N 0.32777 0.27671 0.01508 0.0
N2295 N 0.34217 0.27802 0.9012 0.0
H2296 H 0.34659 0.32996 0.93816 0.0
H2297 H 0.34403 0.31643 0.90669 0.0
H2298 H 0.33948 0.26398 0.89003 0.0
H2299 H 0.35061 0.29269 0.88997 0.0
H2300 H 0.32392 0.26314 0.02788 0.0
H2301 H 0.33067 0.29095 0.02593 0.0
H2302 H 0.30687 0.23407 0.00551 0.0
H2303 H 0.30801 0.22118 0.97512 0.0
C2304 C 0.71764 0.07251 0.98272 0.0
C2305 C 0.71129 0.04957 0.98365 0.0
C2306 C 0.74268 0.05679 0.95413 0.0
C2307 C 0.74995 0.0799 0.95511 0.0
N2308 N 0.74756 0.1101 0.97664 0.0
N2309 N 0.72117 0.02104 0.97629 0.0
C2310 C 0.73846 0.08786 0.97148 0.0
C2311 C 0.72487 0.04205 0.97119 0.0
N2312 N 0.70333 0.07961 0.99072 0.0
N2313 N 0.75205 0.04872 0.93603 0.0
H2314 H 0.70886 0.01008 0.98958 0.0
H2315 H 0.73181 0.01539 0.96981 0.0
H2316 H 0.76484 0.05886 0.92277 0.0
H2317 H 0.74576 0.03181 0.93238 0.0
H2318 H 0.7064 0.09581 0.98762 0.0
H2319 H 0.68739 0.06898 0.99764 0.0
H2320 H 0.74088 0.11658 0.99066 0.0
H2321 H 0.76299 0.12183 0.96917 0.0
C2322 C 0.65854 0.95456 0.08259 0.0
C2323 C 0.66326 0.95826 0.05384 0.0
C2324 C 0.67989 0.93415 0.05467 0.0
C2325 C 0.67433 0.92966 0.08317 0.0
N2326 N 0.66211 0.93811 0.1258 0.0
N2327 N 0.68265 0.95626 0.01388 0.0
C2328 C 0.66491 0.94078 0.09766 0.0
C2329 C 0.67537 0.94957 0.04033 0.0
N2330 N 0.64747 0.96385 0.09518 0.0
N2331 N 0.68879 0.92307 0.04119 0.0
H2332 H 0.67949 0.96747 0.00292 0.0
H2333 H 0.69324 0.95218 0.00352 0.0
H2334 H 0.69324 0.91246 0.05137 0.0
H2335 H 0.69086 0.92347 0.01978 0.0
H2336 H 0.64103 0.95989 0.11509 0.0
H2337 H 0.64415 0.97535 0.08521 0.0
H2338 H 0.65723 0.94717 0.13821 0.0
H2339 H 0.66596 0.92762 0.13731 0.0
C2340 C 0.04513 0.70736 0.07078 0.0
C2341 C 0.04482 0.70798 0.04137 0.0
C2342 C 0.06979 0.74829 0.04252 0.0
C2343 C 0.07296 0.74688 0.07155 0.0
N2344 N 0.06462 0.72506 0.11349 0.0
N2345 N 0.05438 0.72879 0.99883 0.0
C2346 C 0.06068 0.72645 0.08582 0.0
C2347 C 0.05633 0.72846 0.0271 0.0
N2348 N 0.03014 0.68864 0.08427 0.0
N2349 N 0.07937 0.76865 0.02997 0.0
H2350 H 0.04297 0.71492 0.98751 0.0
H2351 H 0.06418 0.74245 0.98648 0.0
H2352 H 0.08924 0.78341 0.04078 0.0
H2353 H 0.07646 0.77125 0.00939 0.0
H2354 H 0.02811 0.68771 0.10573 0.0
H2355 H 0.01816 0.67465 0.07367 0.0
H2356 H 0.0581 0.71011 0.12429 0.0
H2357 H 0.07571 0.73872 0.12536 0.0
C2358 C 0.29433 0.3451 0.07901 0.0
C2359 C 0.29353 0.3396 0.05038 0.0
C2360 C 0.2542 0.329 0.04876 0.0
C2361 C 0.25449 0.33188 0.07802 0.0
N2362 N 0.27394 0.33725 0.12179 0.0
N2363 N 0.27107 0.32119 0.00986 0.0
C2364 C 0.27429 0.33827 0.09341 0.0
C2365 C 0.27299 0.33008 0.03573 0.0
N2366 N 0.31414 0.358 0.09225 0.0
N2367 N 0.23636 0.32604 0.03318 0.0
H2368 H 0.28409 0.32056 1.00015 0.0
H2369 H 0.25597 0.31222 0.99943 0.0
H2370 H 0.22255 0.32582 0.04177 0.0
H2371 H 0.23625 0.32606 0.01152 0.0
H2372 H 0.31535 0.36408 0.11236 0.0
H2373 H 0.3293 0.36489 0.08226 0.0
H2374 H 0.28757 0.33969 0.13378 0.0
H2375 H 0.25949 0.33166 0.13317 0.0
C2376 C 0.72951 0.66638 0.36298 0.0
C2377 C 0.7169 0.67375 0.37788 0.0
C2378 C 0.73124 0.66749 0.4218 0.0
C2379 C 0.7468 0.6641 0.40671 0.0
N2380 N 0.7624 0.66276 0.3626 0.0
N2381 N 0.7056 0.68184 0.42143 0.0
C2382 C 0.74624 0.66393 0.37717 0.0
C2383 C 0.71756 0.67427 0.40734 0.0
N2384 N 0.72524 0.66143 0.33535 0.0
N2385 N 0.72926 0.66374 0.44983 0.0
H2386 H 0.69456 0.68583 0.41153 0.0
H2387 H 0.70748 0.68526 0.44267 0.0
H2388 H 0.73873 0.65833 0.46094 0.0
H2389 H 0.71692 0.66399 0.4616 0.0
H2390 H 0.73257 0.6541 0.32385 0.0
H2391 H 0.71261 0.66252 0.32472 0.0
H2392 H 0.7641 0.66501 0.34117 0.0
H2393 H 0.77533 0.66153 0.3721 0.0
C2394 C 0.34388 0.06226 0.37077 0.0
C2395 C 0.33112 0.04177 0.38474 0.0
C2396 C 0.32903 0.06188 0.42561 0.0
C2397 C 0.33961 0.08204 0.41049 0.0
N2398 N 0.35556 0.10162 0.368 0.0
N2399 N 0.30828 0.02177 0.42378 0.0
C2400 C 0.34664 0.0823 0.38285 0.0
C2401 C 0.32298 0.04149 0.41183 0.0
N2402 N 0.35403 0.06263 0.34646 0.0
N2403 N 0.32484 0.06223 0.45326 0.0
H2404 H 0.30282 0.00638 0.41435 0.0
H2405 H 0.29982 0.02067 0.44194 0.0
H2406 H 0.32831 0.07671 0.46394 0.0
H2407 H 0.31964 0.04847 0.46619 0.0
H2408 H 0.36535 0.0772 0.33662 0.0
H2409 H 0.35263 0.04833 0.3373 0.0
H2410 H 0.35869 0.10246 0.3468 0.0
H2411 H 0.35856 0.11672 0.37654 0.0
C2412 C 0.93602 0.28359 0.37191 0.0
C2413 C 0.95713 0.28991 0.38373 0.0
C2414 C 0.93955 0.26783 0.42536 0.0
C2415 C 0.91856 0.25972 0.4123 0.0
N2416 N 0.89646 0.25806 0.37239 0.0
N2417 N 0.97918 0.28535 0.41975 0.0
C2418 C 0.91669 0.26712 0.38534 0.0
C2419 C 0.95897 0.28147 0.41006 0.0
N2420 N 0.93445 0.29396 0.34841 0.0
N2421 N 0.94093 0.26256 0.45249 0.0
H2422 H 0.99384 0.29483 0.40909 0.0
H2423 H 0.98128 0.27754 0.43716 0.0
H2424 H 0.92715 0.25195 0.46413 0.0
H2425 H 0.95552 0.27006 0.4642 0.0
H2426 H 0.91956 0.29181 0.34028 0.0
H2427 H 0.94825 0.30626 0.33825 0.0
H2428 H 0.89425 0.26075 0.35157 0.0
H2429 H 0.88187 0.24666 0.38205 0.0
C2430 C 0.99229 0.38596 0.31709 0.0
C2431 C 0.00195 0.3754 0.30197 0.0
C2432 C 1.00122 0.39466 0.25945 0.0
C2433 C 0.99217 0.40581 0.27466 0.0
N2434 N 0.97435 0.4086 0.31584 0.0
N2435 N 0.00891 0.36399 0.25793 0.0
C2436 C 0.98614 0.40029 0.30287 0.0
C2437 C 0.00427 0.37795 0.27281 0.0
N2438 N 0.98968 0.38282 0.34516 0.0
N2439 N 0.00788 0.40076 0.23268 0.0
H2440 H 0.01022 0.35104 0.26732 0.0
H2441 H 0.00907 0.36367 0.2363 0.0
H2442 H 0.00572 0.41274 0.22201 0.0
H2443 H 0.01691 0.39506 0.22163 0.0
H2444 H 0.98532 0.39203 0.35811 0.0
H2445 H 0.99281 0.37144 0.35581 0.0
H2446 H 0.96769 0.40378 0.33556 0.0
H2447 H 0.96967 0.41913 0.3059 0.0
C2448 C 0.61638 0.62625 0.27864 0.0
C2449 C 0.62585 0.62538 0.30468 0.0
C2450 C 0.60273 0.58473 0.30495 0.0
C2451 C 0.5946 0.58561 0.27803 0.0
N2452 N 0.59634 0.6066 0.23705 0.0
N2453 N 0.63086 0.60379 0.34064 0.0
C2454 C 0.60231 0.60621 0.26418 0.0
C2455 C 0.61976 0.6046 0.31737 0.0
N2456 N 0.61977 0.64617 0.2684 0.0
N2457 N 0.59388 0.56496 0.31883 0.0
H2458 H 0.64357 0.61796 0.35008 0.0
H2459 H 0.62883 0.58907 0.34926 0.0
H2460 H 0.58195 0.55 0.30999 0.0
H2461 H 0.59724 0.56356 0.33968 0.0
H2462 H 0.61133 0.6476 0.25115 0.0
H2463 H 0.62938 0.66127 0.27859 0.0
H2464 H 0.60349 0.62086 0.22483 0.0
H2465 H 0.58555 0.59233 0.22593 0.0
C2466 C 0.38638 0.00496 0.31691 0.0
C2467 C 0.36587 0.98864 0.30522 0.0
C2468 C 0.3853 0.98444 0.26526 0.0
C2469 C 0.40571 1.00097 0.27677 0.0
N2470 N 0.42565 0.02992 0.3105 0.0
N2471 N 0.34522 0.9655 0.26634 0.0
C2472 C 0.4062 0.01224 0.30159 0.0
C2473 C 0.36519 0.9792 0.27877 0.0
N2474 N 0.38713 0.01244 0.34341 0.0
N2475 N 0.38523 0.9733 0.24177 0.0
H2476 H 0.33019 0.96079 0.27589 0.0
H2477 H 0.34336 0.96005 0.24584 0.0
H2478 H 0.39945 0.97751 0.23042 0.0
H2479 H 0.37138 0.95917 0.23421 0.0
H2480 H 0.40175 0.02225 0.3544 0.0
H2481 H 0.3731 0.00751 0.35542 0.0
H2482 H 0.42677 0.04042 0.32664 0.0
H2483 H 0.44058 0.0352 0.30032 0.0
C2484 C 0.61495 0.99275 0.27854 0.0
C2485 C 0.62488 0.00295 0.30436 0.0
C2486 C 0.60144 0.02038 0.30593 0.0
C2487 C 0.59243 0.01112 0.27948 0.0
N2488 N 0.59344 0.99211 0.23808 0.0
N2489 N 0.63078 0.02972 0.34009 0.0
C2490 C 0.60016 0.9985 0.26496 0.0
C2491 C 0.61901 0.0177 0.31737 0.0
N2492 N 0.61853 0.97651 0.26776 0.0
N2493 N 0.59282 0.03129 0.32038 0.0
H2494 H 0.64397 0.02843 0.3487 0.0
H2495 H 0.62883 0.04237 0.34891 0.0
H2496 H 0.58048 0.0342 0.31222 0.0
H2497 H 0.59683 0.03618 0.34105 0.0
H2498 H 0.60977 0.9667 0.25077 0.0
H2499 H 0.62881 0.97132 0.27718 0.0
H2500 H 0.60043 0.98514 0.22532 0.0
H2501 H 0.58214 0.99546 0.22766 0.0
C2502 C 0.00327 0.6136 0.32128 0.0
C2503 C 0.01819 0.63427 0.30894 0.0
C2504 C 0.0212 0.61475 0.26797 0.0
C2505 C 0.0061 0.59414 0.28019 0.0
N2506 N 0.97995 0.57368 0.316 0.0
N2507 N 0.03908 0.65503 0.26928 0.0
C2508 C 0.99617 0.59352 0.30603 0.0
C2509 C 0.02648 0.63496 0.28187 0.0
N2510 N 0.99698 0.61307 0.34824 0.0
N2511 N 0.03085 0.61494 0.24327 0.0
H2512 H 0.04396 0.67014 0.27917 0.0
H2513 H 0.04359 0.6569 0.24849 0.0
H2514 H 0.02634 0.60063 0.23156 0.0
H2515 H 0.04404 0.62902 0.23481 0.0
H2516 H 0.98836 0.59853 0.35965 0.0
H2517 H 0.00172 0.62732 0.36012 0.0
H2518 H 0.9702 0.57227 0.33296 0.0
H2519 H 0.97508 0.55853 0.30613 0.0
C2520 C 0.38584 0.40501 0.30774 0.0
C2521 C 0.37907 0.38201 0.3096 0.0
C2522 C 0.40976 0.38786 0.27959 0.0
C2523 C 0.4176 0.41109 0.28012 0.0
N2524 N 0.41643 0.44208 0.3013 0.0
N2525 N 0.38767 0.35253 0.30252 0.0
C2526 C 0.40672 0.41976 0.29638 0.0
C2527 C 0.39195 0.37369 0.29707 0.0
N2528 N 0.37183 0.41273 0.3149 0.0
N2529 N 0.41863 0.37918 0.26164 0.0
H2530 H 0.37531 0.34194 0.31602 0.0
H2531 H 0.39784 0.34634 0.29599 0.0
H2532 H 0.43147 0.38895 0.24824 0.0
H2533 H 0.41195 0.36217 0.25834 0.0
H2534 H 0.37539 0.42903 0.31129 0.0
H2535 H 0.35564 0.40246 0.32126 0.0
H2536 H 0.41006 0.44896 0.31521 0.0
H2537 H 0.43202 0.45342 0.29386 0.0
C2538 C 0.33728 0.28192 0.36973 0.0
C2539 C 0.32987 0.29429 0.38537 0.0
C2540 C 0.33277 0.27695 0.42842 0.0
C2541 C 0.33932 0.26383 0.41279 0.0
N2542 N 0.35273 0.25707 0.37003 0.0
N2543 N 0.32855 0.30975 0.42944 0.0
C2544 C 0.34315 0.26736 0.38381 0.0
C2545 C 0.33013 0.29374 0.41474 0.0
N2546 N 0.33847 0.28405 0.34145 0.0
N2547 N 0.32812 0.27273 0.45604 0.0
H2548 H 0.3279 0.32293 0.41966 0.0
H2549 H 0.33042 0.3114 0.45096 0.0
H2550 H 0.32993 0.26063 0.46693 0.0
H2551 H 0.32091 0.28009 0.46769 0.0
H2552 H 0.34118 0.27374 0.32829 0.0
H2553 H 0.33607 0.29596 0.33096 0.0
H2554 H 0.35769 0.26021 0.34943 0.0
H2555 H 0.35728 0.24641 0.37988 0.0
C2556 C 0.71221 0.04297 0.41024 0.0
C2557 C 0.71381 0.04266 0.3809 0.0
C2558 C 0.7447 0.08076 0.38157 0.0
C2559 C 0.74327 0.08121 0.41098 0.0
N2560 N 0.72246 0.06503 0.45259 0.0
N2561 N 0.72606 0.0632 0.33833 0.0
C2562 C 0.72598 0.06298 0.42512 0.0
C2563 C 0.72833 0.06222 0.36645 0.0
N2564 N 0.69792 0.02399 0.42388 0.0
N2565 N 0.7623 0.09743 0.36816 0.0
H2566 H 0.71354 0.05007 0.32704 0.0
H2567 H 0.7349 0.07767 0.32681 0.0
H2568 H 0.77491 0.11116 0.37842 0.0
H2569 H 0.76539 0.09669 0.34717 0.0
H2570 H 0.69789 0.02221 0.44538 0.0
H2571 H 0.68662 0.00953 0.41346 0.0
H2572 H 0.70895 0.05315 0.46351 0.0
H2573 H 0.73207 0.07956 0.46396 0.0
C2574 C 0.9443 0.65453 0.37494 0.0
C2575 C 0.9648 0.66821 0.38866 0.0
C2576 C 0.94513 0.67095 0.42924 0.0
C2577 C 0.92489 0.65953 0.41422 0.0
N2578 N 0.90489 0.64173 0.37217 0.0
N2579 N 0.98498 0.69244 0.42721 0.0
C2580 C 0.92437 0.65162 0.38689 0.0
C2581 C 0.96531 0.67704 0.41551 0.0
N2582 N 0.94383 0.64373 0.35098 0.0
N2583 N 0.94508 0.67598 0.45671 0.0
H2584 H 1.00021 0.69793 0.41783 0.0
H2585 H 0.98615 0.70139 0.44511 0.0
H2586 H 0.93075 0.67255 0.46729 0.0
H2587 H 0.95898 0.68186 0.46964 0.0
H2588 H 0.92932 0.6318 0.34137 0.0
H2589 H 0.95808 0.64523 0.34195 0.0
H2590 H 0.90378 0.63793 0.35109 0.0
H2591 H 0.88987 0.63852 0.38068 0.0
C2592 C 0.3841 0.99296 0.71187 0.0
C2593 C 0.38977 0.01571 0.71077 0.0
C2594 C 0.42351 0.02547 0.73742 0.0
C2595 C 0.41635 0.00272 0.74226 0.0
N2596 N 0.38676 0.96465 0.73883 0.0
N2597 N 0.41105 0.05209 0.73214 0.0
C2598 C 0.39572 0.98633 0.73086 0.0
C2599 C 0.40835 0.03156 0.72639 0.0
N2600 N 0.36841 0.97781 0.69424 0.0
N2601 N 0.44493 0.04135 0.74253 0.0
H2602 H 0.39912 0.05658 0.72719 0.0
H2603 H 0.42364 0.06341 0.74518 0.0
H2604 H 0.4571 0.03755 0.74884 0.0
H2605 H 0.45101 0.05799 0.73723 0.0
H2606 H 0.36519 0.96145 0.69274 0.0
H2607 H 0.3603 0.98209 0.67909 0.0
H2608 H 0.37086 0.95252 0.73296 0.0
H2609 H 0.39424 0.9593 0.75357 0.0
C2610 C 0.01017 0.39363 0.70071 0.0
C2611 C 0.99599 0.37314 0.71389 0.0
C2612 C 0.99111 0.39314 0.75284 0.0
C2613 C 0.00376 0.41347 0.73863 0.0
N2614 N 0.02323 0.43328 0.69774 0.0
N2615 N 0.96934 0.35314 0.74963 0.0
C2616 C 0.01268 0.41378 0.71213 0.0
C2617 C 0.98552 0.37282 0.73923 0.0
N2618 N 0.02192 0.3939 0.678 0.0
N2619 N 0.98473 0.39324 0.7796 0.0
H2620 H 0.96421 0.33787 0.74003 0.0
H2621 H 0.95943 0.35208 0.76626 0.0
H2622 H 0.98795 0.40772 0.79013 0.0
H2623 H 0.97783 0.3792 0.7922 0.0
H2624 H 0.0343 0.40841 0.66918 0.0
H2625 H 0.02052 0.3795 0.66918 0.0
H2626 H 0.028 0.43428 0.67712 0.0
H2627 H 0.02587 0.44839 0.70584 0.0
C2628 C 0.62535 0.6165 0.73971 0.0
C2629 C 0.62346 0.62332 0.71231 0.0
C2630 C 0.58328 0.59838 0.71318 0.0
C2631 C 0.58512 0.5928 0.74117 0.0
N2632 N 0.60707 0.60028 0.78308 0.0
N2633 N 0.60031 0.62425 0.67515 0.0
C2634 C 0.60591 0.60308 0.75506 0.0
C2635 C 0.6023 0.61525 0.69965 0.0
N2636 N 0.64562 0.62162 0.75055 0.0
N2637 N 0.56354 0.58706 0.69923 0.0
H2638 H 0.61383 0.63692 0.66499 0.0
H2639 H 0.58516 0.62068 0.66628 0.0
H2640 H 0.54922 0.57479 0.70853 0.0
H2641 H 0.56174 0.5886 0.67795 0.0
H2642 H 0.64768 0.61496 0.76909 0.0
H2643 H 0.66035 0.63072 0.7399 0.0
H2644 H 0.62146 0.60928 0.79488 0.0
H2645 H 0.59318 0.59051 0.79503 0.0
C2646 C 0.6542 0.71255 0.64326 0.0
C2647 C 0.67141 0.70995 0.63129 0.0
C2648 C 0.67483 0.73554 0.59354 0.0
C2649 C 0.65767 0.7381 0.60553 0.0
N2650 N 0.62801 0.72615 0.63808 0.0
N2651 N 0.69574 0.71604 0.59283 0.0
C2652 C 0.64631 0.72555 0.62915 0.0
C2653 C 0.68095 0.72055 0.6057 0.0
N2654 N 0.64648 0.70394 0.66898 0.0
N2655 N 0.68584 0.74815 0.57104 0.0
H2656 H 0.70165 0.70621 0.60172 0.0
H2657 H 0.70115 0.72079 0.57259 0.0
H2658 H 0.68096 0.75825 0.56041 0.0
H2659 H 0.70045 0.74955 0.56355 0.0
H2660 H 0.63582 0.70737 0.68026 0.0
H2661 H 0.65199 0.69463 0.68021 0.0
H2662 H 0.61756 0.7157 0.65336 0.0
H2663 H 0.62222 0.73593 0.62856 0.0
C2664 C 0.28869 0.94292 0.657 0.0
C2665 C 0.29483 0.96351 0.64377 0.0
C2666 C 0.27134 0.94383 0.60345 0.0
C2667 C 0.26368 0.92342 0.61769 0.0
N2668 N 0.26276 0.9033 0.65912 0.0
N2669 N 0.28845 0.98375 0.60699 0.0
C2670 C 0.27169 0.92289 0.64483 0.0
C2671 C 0.28525 0.96402 0.61764 0.0
N2672 N 0.29971 0.94244 0.68052 0.0
N2673 N 0.2656 0.94392 0.57615 0.0
H2674 H 0.29788 0.99894 0.617 0.0
H2675 H 0.27994 0.98489 0.58963 0.0
H2676 H 0.25503 0.9295 0.56511 0.0
H2677 H 0.27279 0.95806 0.56373 0.0
H2678 H 0.29765 0.92784 0.68954 0.0
H2679 H 0.31229 0.95676 0.68986 0.0
H2680 H 0.26609 0.90217 0.68005 0.0
H2681 H 0.25077 0.88827 0.65051 0.0
C2682 C 0.05707 0.34577 0.64878 0.0
C2683 C 0.04172 0.32265 0.65099 0.0
C2684 C 0.06751 0.31464 0.62616 0.0
C2685 C 0.08087 0.3374 0.61953 0.0
N2686 N 0.08551 0.37445 0.62055 0.0
N2687 N 0.02998 0.28591 0.63208 0.0
C2688 C 0.07491 0.35301 0.62974 0.0
C2689 C 0.04624 0.30727 0.63695 0.0
N2690 N 0.05529 0.36076 0.6654 0.0
N2691 N 0.07512 0.29998 0.62262 0.0
H2692 H 0.0134 0.28026 0.63635 0.0
H2693 H 0.03254 0.27482 0.62015 0.0
H2694 H 0.0912 0.30493 0.61635 0.0
H2695 H 0.06628 0.28349 0.62914 0.0
H2696 H 0.06719 0.37754 0.66604 0.0
H2697 H 0.04338 0.35612 0.68075 0.0
H2698 H 0.08033 0.38583 0.62547 0.0
H2699 H 0.09799 0.38019 0.60583 0.0
C2700 C 0.28424 0.35119 0.65035 0.0
C2701 C 0.29455 0.34139 0.63491 0.0
C2702 C 0.27573 0.34409 0.59273 0.0
C2703 C 0.26241 0.34977 0.60912 0.0
N2704 N 0.25204 0.35576 0.6547 0.0
N2705 N 0.2965 0.32459 0.59157 0.0
C2706 C 0.26622 0.35269 0.63827 0.0
C2707 C 0.28956 0.33698 0.60604 0.0
N2708 N 0.29198 0.35952 0.67633 0.0
N2709 N 0.27531 0.34561 0.56441 0.0
H2710 H 0.30543 0.31764 0.60046 0.0
H2711 H 0.29125 0.31911 0.57129 0.0
H2712 H 0.26571 0.3512 0.55395 0.0
H2713 H 0.28621 0.34362 0.55162 0.0
H2714 H 0.28633 0.36859 0.6875 0.0
H2715 H 0.30574 0.35955 0.68534 0.0
H2716 H 0.25279 0.35562 0.67635 0.0
H2717 H 0.23828 0.35636 0.64689 0.0
C2718 C 0.6637 0.94022 0.6589 0.0
C2719 C 0.67345 0.96093 0.64493 0.0
C2720 C 0.67156 0.94258 0.60073 0.0
C2721 C 0.66241 0.92186 0.61473 0.0
N2722 N 0.64526 0.89992 0.65536 0.0
N2723 N 0.67982 0.981 0.60204 0.0
C2724 C 0.65705 0.92037 0.64334 0.0
C2725 C 0.67522 0.96183 0.61562 0.0
N2726 N 0.66116 0.93968 0.68706 0.0
N2727 N 0.67772 0.94407 0.57357 0.0
H2728 H 0.68178 0.99507 0.6125 0.0
H2729 H 0.67945 0.98227 0.58048 0.0
H2730 H 0.67519 0.93034 0.56182 0.0
H2731 H 0.68679 0.9591 0.56323 0.0
H2732 H 0.65673 0.92567 0.69922 0.0
H2733 H 0.6642 0.95371 0.69853 0.0
H2734 H 0.63911 0.89742 0.67544 0.0
H2735 H 0.64014 0.88514 0.64444 0.0
C2736 C 0.05609 0.74317 0.65323 0.0
C2737 C 0.0487 0.72003 0.65176 0.0
C2738 C 0.08561 0.72879 0.63584 0.0
C2739 C 0.09081 0.7512 0.63168 0.0
N2740 N 0.08864 0.77854 0.66031 0.0
N2741 N 0.05753 0.69066 0.64426 0.0
C2742 C 0.07837 0.75842 0.64728 0.0
C2743 C 0.06378 0.71274 0.64382 0.0
N2744 N 0.04186 0.75086 0.65911 0.0
N2745 N 0.10231 0.72379 0.63714 0.0
H2746 H 0.04266 0.67857 0.65259 0.0
H2747 H 0.06686 0.68432 0.6353 0.0
H2748 H 0.11886 0.73623 0.63678 0.0
H2749 H 0.10004 0.70821 0.64259 0.0
H2750 H 0.04667 0.76773 0.65821 0.0
H2751 H 0.02497 0.74049 0.66193 0.0
H2752 H 0.08046 0.78369 0.67394 0.0
H2753 H 0.10584 0.78839 0.6605 0.0
C2754 C 0.99678 0.62571 0.74491 0.0
C2755 C 0.99943 0.62849 0.71581 0.0
C2756 C 0.01523 0.60362 0.71482 0.0
C2757 C 0.00897 0.59797 0.74294 0.0
N2758 N 0.99339 0.60297 0.78505 0.0
N2759 N 0.01332 0.62262 0.67302 0.0
C2760 C 0.9999 0.60905 0.75822 0.0
C2761 C 0.00954 0.61835 0.70077 0.0
N2762 N 0.99176 0.63941 0.75978 0.0
N2763 N 0.02677 0.59503 0.70182 0.0
H2764 H 0.01093 0.63468 0.66288 0.0
H2765 H 0.01826 0.61403 0.65984 0.0
H2766 H 0.03106 0.58416 0.71163 0.0
H2767 H 0.03341 0.59966 0.68207 0.0
H2768 H 0.99139 0.6396 0.7814 0.0
H2769 H 0.99015 0.65222 0.75047 0.0
H2770 H 0.98433 0.60856 0.7962 0.0
H2771 H 0.99583 0.59117 0.79574 0.0
C2772 C 0.38237 0.39198 0.70441 0.0
C2773 C 0.38016 0.37197 0.71602 0.0
C2774 C 0.40288 0.3931 0.75632 0.0
C2775 C 0.40726 0.41315 0.74315 0.0
N2776 N 0.40264 0.43242 0.70414 0.0
N2777 N 0.39191 0.3544 0.7511 0.0
C2778 C 0.39719 0.4128 0.71718 0.0
C2779 C 0.39136 0.37276 0.74147 0.0
N2780 N 0.37086 0.39123 0.68078 0.0
N2781 N 0.40956 0.39347 0.78329 0.0
H2782 H 0.3838 0.33893 0.74152 0.0
H2783 H 0.4021 0.3549 0.76749 0.0
H2784 H 0.41825 0.40811 0.79479 0.0
H2785 H 0.40462 0.37918 0.79516 0.0
H2786 H 0.36951 0.40469 0.67337 0.0
H2787 H 0.3617 0.37687 0.66902 0.0
H2788 H 0.39814 0.43355 0.68373 0.0
H2789 H 0.41289 0.44786 0.71329 0.0
C2790 C 0.62904 0.01388 0.74789 0.0
C2791 C 0.62783 0.00384 0.72171 0.0
C2792 C 0.5874 0.98701 0.72153 0.0
C2793 C 0.58861 0.99566 0.7486 0.0
N2794 N 0.61 0.01404 0.78967 0.0
N2795 N 0.60593 0.97797 0.6856 0.0
C2796 C 0.60928 0.00806 0.76244 0.0
C2797 C 0.60701 0.98964 0.709 0.0
N2798 N 0.64899 0.02993 0.7582 0.0
N2799 N 0.56757 0.97668 0.70761 0.0
H2800 H 0.61992 0.97926 0.67608 0.0
H2801 H 0.59118 0.96561 0.67696 0.0
H2802 H 0.5528 0.97391 0.71646 0.0
H2803 H 0.56595 0.97224 0.6867 0.0
H2804 H 0.65062 0.03956 0.77559 0.0
H2805 H 0.66388 0.03522 0.74797 0.0
H2806 H 0.62436 0.02079 0.80185 0.0
H2807 H 0.59591 0.01057 0.80088 0.0
loop_
_geom_bond_atom_site_label_1
_geom_bond_atom_site_label_2
_geom_bond_distance
_geom_bond_site_symmetry_2
_ccdc_geom_bond_type
Mn0 O5 2.095 1_655 S
Mn0 O15 2.162 . S
Mn0 O16 2.297 1_554 S
Mn0 O24 2.385 1_554 S
Mn0 O25 2.209 1_654 S
Mn0 O26 2.094 . S
Mn1 O6 2.121 . S
Mn1 N8 2.257 1_554 S
Mn1 N17 2.291 . S
Mn1 O25 2.215 1_554 S
Mn1 O27 2.117 . S
C2 O24 1.234 1_455 S
C2 O25 1.283 . S
C3 O15 1.281 1_556 S
C3 O16 1.236 . S
C4 O26 1.255 . S
C4 O27 1.229 1_655 S
O5 Mn0 2.095 1_455 S
O5 C14 1.250 . S
O6 Mn1 2.121 . S
O6 C14 1.258 . S
C7 N8 1.326 . S
C7 C11 1.460 . S
C7 H13 0.929 . S
N8 Mn1 2.257 1_556 S
N8 C7 1.326 . S
N8 C12 1.362 . S
C9 C10 1.258 . S
C9 C12 1.431 . S
C9 C29 1.449 . S
C10 C9 1.258 . S
C10 C11 1.477 . S
C10 H30 0.931 . S
C11 C7 1.460 . S
C11 C10 1.477 . S
C11 H31 0.930 . S
C12 N8 1.362 . S
C12 C9 1.431 . S
C12 C22 1.476 . S
H13 C7 0.929 . S
C14 O5 1.250 . S
C14 O6 1.258 . S
O15 Mn0 2.162 . S
O15 C3 1.281 1_554 S
O16 Mn0 2.297 1_556 S
O16 C3 1.236 . S
N17 Mn1 2.291 . S
N17 C18 1.334 . S
N17 C22 1.301 1_554 S
C18 N17 1.334 . S
C18 C19 1.457 1_554 S
C18 H23 0.929 . S
C19 C18 1.457 1_556 S
C19 C20 1.291 . S
C19 H32 0.931 . S
C20 C19 1.291 . S
C20 C21 1.373 . S
C20 H33 0.929 . S
C21 C20 1.373 . S
C21 C22 1.396 . S
C21 C28 1.403 . S
C22 C12 1.476 . S
C22 N17 1.301 1_556 S
C22 C21 1.396 . S
H23 C18 0.929 . S
O24 Mn0 2.385 1_556 S
O24 C2 1.234 1_655 S
O25 Mn0 2.209 1_456 S
O25 Mn1 2.215 1_556 S
O25 C2 1.283 . S
O26 Mn0 2.094 . S
O26 C4 1.255 . S
O27 Mn1 2.117 . S
O27 C4 1.229 1_455 S
C28 C21 1.403 . S
C28 C29 1.399 . S
C28 H34 0.929 . S
C29 C9 1.449 . S
C29 C28 1.399 . S
C29 H35 0.930 . S
H30 C10 0.931 . S
H31 C11 0.930 . S
H32 C19 0.931 . S
H33 C20 0.929 . S
H34 C28 0.929 . S
H35 C29 0.930 . S
Mn36 O41 2.095 1_554 S
Mn36 O51 2.162 . S
Mn36 O52 2.297 . S
Mn36 O60 2.385 . S
Mn36 O61 2.209 . S
Mn36 O62 2.094 1_554 S
Mn37 O42 2.121 . S
Mn37 N44 2.257 1_556 S
Mn37 N53 2.282 1_556 S
Mn37 O61 2.215 1_556 S
Mn37 O63 2.117 . S
C38 O60 1.234 . S
C38 O61 1.283 . S
C39 O51 1.281 . S
C39 O52 1.236 . S
C40 O62 1.240 . S
C40 O63 1.264 . S
O41 Mn36 2.095 1_556 S
O41 C50 1.250 . S
O42 Mn37 2.121 . S
O42 C50 1.258 . S
C43 N44 1.326 . S
C43 C47 1.460 . S
C43 H49 0.929 . S
N44 Mn37 2.257 1_554 S
N44 C43 1.326 . S
N44 C48 1.362 . S
C45 C46 1.258 . S
C45 C48 1.431 . S
C45 C65 1.449 . S
C46 C45 1.258 . S
C46 C47 1.477 . S
C46 H66 0.931 . S
C47 C43 1.460 . S
C47 C46 1.477 . S
C47 H67 0.930 . S
C48 N44 1.362 . S
C48 C45 1.431 . S
C48 C58 1.476 . S
H49 C43 0.929 . S
C50 O41 1.250 . S
C50 O42 1.258 . S
O51 Mn36 2.162 . S
O51 C39 1.281 . S
O52 Mn36 2.297 . S
O52 C39 1.236 . S
N53 Mn37 2.282 1_554 S
N53 C54 1.328 . S
N53 C58 1.318 . S
C54 N53 1.328 . S
C54 C55 1.457 . S
C54 H59 0.929 1_554 S
C55 C54 1.457 . S
C55 C56 1.291 . S
C55 H68 0.931 . S
C56 C55 1.291 . S
C56 C57 1.373 . S
C56 H69 0.929 . S
C57 C56 1.373 . S
C57 C58 1.396 . S
C57 C64 1.403 . S
C58 C48 1.476 . S
C58 N53 1.318 . S
C58 C57 1.396 . S
H59 C54 0.929 1_556 S
O60 Mn36 2.385 . S
O60 C38 1.234 . S
O61 Mn36 2.209 . S
O61 Mn37 2.215 1_554 S
O61 C38 1.283 . S
O62 Mn36 2.094 1_556 S
O62 C40 1.240 . S
O63 Mn37 2.117 . S
O63 C40 1.264 . S
C64 C57 1.403 . S
C64 C65 1.399 . S
C64 H70 0.929 . S
C65 C45 1.449 . S
C65 C64 1.399 . S
C65 H71 0.930 . S
H66 C46 0.931 . S
H67 C47 0.930 . S
H68 C55 0.931 . S
H69 C56 0.929 . S
H70 C64 0.929 . S
H71 C65 0.930 . S
Mn72 O77 2.095 1_564 S
Mn72 O87 2.162 . S
Mn72 O88 2.297 . S
Mn72 O96 2.385 . S
Mn72 O97 2.209 1_565 S
Mn72 O98 2.094 1_554 S
Mn73 O78 2.121 1_554 S
Mn73 N80 2.257 . S
Mn73 N89 2.282 . S
Mn73 O97 2.215 . S
Mn73 O99 2.117 1_554 S
C74 O96 1.234 1_545 S
C74 O97 1.283 . S
C75 O87 1.281 . S
C75 O88 1.236 . S
C76 O98 1.240 . S
C76 O99 1.264 1_565 S
O77 Mn72 2.095 1_546 S
O77 C86 1.250 . S
O78 Mn73 2.121 1_556 S
O78 C86 1.258 . S
C79 N80 1.326 . S
C79 C83 1.460 . S
C79 H85 0.929 . S
N80 Mn73 2.257 . S
N80 C79 1.326 . S
N80 C84 1.362 . S
C81 C82 1.258 . S
C81 C84 1.431 . S
C81 C101 1.449 . S
C82 C81 1.258 . S
C82 C83 1.477 . S
C82 H102 0.931 . S
C83 C79 1.460 . S
C83 C82 1.477 . S
C83 H103 0.930 . S
C84 N80 1.362 . S
C84 C81 1.431 . S
C84 C94 1.476 . S
H85 C79 0.929 . S
C86 O77 1.250 . S
C86 O78 1.258 . S
O87 Mn72 2.162 . S
O87 C75 1.281 . S
O88 Mn72 2.297 . S
O88 C75 1.236 . S
N89 Mn73 2.282 . S
N89 C90 1.328 . S
N89 C94 1.318 . S
C90 N89 1.328 . S
C90 C91 1.457 . S
C90 H95 0.929 . S
C91 C90 1.457 . S
C91 C92 1.291 . S
C91 H104 0.931 . S
C92 C91 1.291 . S
C92 C93 1.373 . S
C92 H105 0.929 . S
C93 C92 1.373 . S
C93 C94 1.396 . S
C93 C100 1.403 . S
C94 C84 1.476 . S
C94 N89 1.318 . S
C94 C93 1.396 . S
H95 C90 0.929 . S
O96 Mn72 2.385 . S
O96 C74 1.234 1_565 S
O97 Mn72 2.209 1_545 S
O97 Mn73 2.215 . S
O97 C74 1.283 . S
O98 Mn72 2.094 1_556 S
O98 C76 1.240 . S
O99 Mn73 2.117 1_556 S
O99 C76 1.264 1_545 S
C100 C93 1.403 . S
C100 C101 1.399 . S
C100 H106 0.929 . S
C101 C81 1.449 . S
C101 C100 1.399 . S
C101 H107 0.930 . S
H102 C82 0.931 . S
H103 C83 0.930 . S
H104 C91 0.931 . S
H105 C92 0.929 . S
H106 C100 0.929 . S
H107 C101 0.930 . S
Mn108 O113 2.095 1_655 S
Mn108 O123 2.162 . S
Mn108 O124 2.297 1_554 S
Mn108 O132 2.385 1_554 S
Mn108 O133 2.209 1_654 S
Mn108 O134 2.094 . S
Mn109 O114 2.121 . S
Mn109 N116 2.257 1_554 S
Mn109 N125 2.285 . S
Mn109 O133 2.215 1_554 S
Mn109 O135 2.117 . S
C110 O132 1.234 1_455 S
C110 O133 1.283 . S
C111 O123 1.281 1_556 S
C111 O124 1.236 . S
C112 O134 1.240 . S
C112 O135 1.264 1_655 S
O113 Mn108 2.095 1_455 S
O113 C122 1.250 . S
O114 Mn109 2.121 . S
O114 C122 1.258 . S
C115 N116 1.326 . S
C115 C119 1.460 . S
C115 H121 0.929 . S
N116 Mn109 2.257 1_556 S
N116 C115 1.326 . S
N116 C120 1.362 . S
C117 C118 1.258 . S
C117 C120 1.431 . S
C117 C137 1.449 . S
C118 C117 1.258 . S
C118 C119 1.477 . S
C118 H138 0.931 . S
C119 C115 1.460 . S
C119 C118 1.477 . S
C119 H139 0.930 . S
C120 N116 1.362 . S
C120 C117 1.431 . S
C120 C130 1.476 . S
H121 C115 0.929 . S
C122 O113 1.250 . S
C122 O114 1.258 . S
O123 Mn108 2.162 . S
O123 C111 1.281 1_554 S
O124 Mn108 2.297 1_556 S
O124 C111 1.236 . S
N125 Mn109 2.285 . S
N125 C126 1.329 . S
N125 C130 1.313 1_554 S
C126 N125 1.329 . S
C126 C127 1.457 1_554 S
C126 H131 0.929 . S
C127 C126 1.457 1_556 S
C127 C128 1.291 . S
C127 H140 0.931 . S
C128 C127 1.291 . S
C128 C129 1.373 . S
C128 H141 0.929 . S
C129 C128 1.373 . S
C129 C130 1.396 . S
C129 C136 1.403 . S
C130 C120 1.476 . S
C130 N125 1.313 1_556 S
C130 C129 1.396 . S
H131 C126 0.929 . S
O132 Mn108 2.385 1_556 S
O132 C110 1.234 1_655 S
O133 Mn108 2.209 1_456 S
O133 Mn109 2.215 1_556 S
O133 C110 1.283 . S
O134 Mn108 2.094 . S
O134 C112 1.240 . S
O135 Mn109 2.117 . S
O135 C112 1.264 1_455 S
C136 C129 1.403 . S
C136 C137 1.399 . S
C136 H142 0.929 . S
C137 C117 1.449 . S
C137 C136 1.399 . S
C137 H143 0.930 . S
H138 C118 0.931 . S
H139 C119 0.930 . S
H140 C127 0.931 . S
H141 C128 0.929 . S
H142 C136 0.929 . S
H143 C137 0.930 . S
Mn144 O149 2.095 1_554 S
Mn144 O159 2.162 . S
Mn144 O160 2.297 . S
Mn144 O168 2.385 . S
Mn144 O169 2.209 . S
Mn144 O170 2.094 1_554 S
Mn145 O150 2.121 . S
Mn145 N152 2.257 1_556 S
Mn145 N161 2.282 1_556 S
Mn145 O169 2.215 1_556 S
Mn145 O171 2.117 . S
C146 O168 1.234 . S
C146 O169 1.283 . S
C147 O159 1.281 . S
C147 O160 1.236 . S
C148 O170 1.240 . S
C148 O171 1.264 . S
O149 Mn144 2.095 1_556 S
O149 C158 1.250 . S
O150 Mn145 2.121 . S
O150 C158 1.258 . S
C151 N152 1.326 . S
C151 C155 1.460 . S
C151 H157 0.929 . S
N152 Mn145 2.257 1_554 S
N152 C151 1.326 . S
N152 C156 1.362 . S
C153 C154 1.258 . S
C153 C156 1.431 . S
C153 C173 1.449 . S
C154 C153 1.258 . S
C154 C155 1.477 . S
C154 H174 0.931 . S
C155 C151 1.460 . S
C155 C154 1.477 . S
C155 H175 0.930 . S
C156 N152 1.362 . S
C156 C153 1.431 . S
C156 C166 1.476 . S
H157 C151 0.929 . S
C158 O149 1.250 . S
C158 O150 1.258 . S
O159 Mn144 2.162 . S
O159 C147 1.281 . S
O160 Mn144 2.297 . S
O160 C147 1.236 . S
N161 Mn145 2.282 1_554 S
N161 C162 1.328 . S
N161 C166 1.318 . S
C162 N161 1.328 . S
C162 C163 1.457 . S
C162 H167 0.929 1_554 S
C163 C162 1.457 . S
C163 C164 1.291 . S
C163 H176 0.931 . S
C164 C163 1.291 . S
C164 C165 1.373 . S
C164 H177 0.929 . S
C165 C164 1.373 . S
C165 C166 1.396 . S
C165 C172 1.403 . S
C166 C156 1.476 . S
C166 N161 1.318 . S
C166 C165 1.396 . S
H167 C162 0.929 1_556 S
O168 Mn144 2.385 . S
O168 C146 1.234 . S
O169 Mn144 2.209 . S
O169 Mn145 2.215 1_554 S
O169 C146 1.283 . S
O170 Mn144 2.094 1_556 S
O170 C148 1.240 . S
O171 Mn145 2.117 . S
O171 C148 1.264 . S
C172 C165 1.403 . S
C172 C173 1.399 . S
C172 H178 0.929 . S
C173 C153 1.449 . S
C173 C172 1.399 . S
C173 H179 0.930 . S
H174 C154 0.931 . S
H175 C155 0.930 . S
H176 C163 0.931 . S
H177 C164 0.929 . S
H178 C172 0.929 . S
H179 C173 0.930 . S
Mn180 O185 2.095 1_545 S
Mn180 O195 2.162 . S
Mn180 O196 2.297 1_554 S
Mn180 O204 2.385 1_554 S
Mn180 O205 2.209 1_544 S
Mn180 O206 2.094 . S
Mn181 O186 2.121 . S
Mn181 N188 2.257 1_554 S
Mn181 N197 2.294 . S
Mn181 O205 2.215 1_554 S
Mn181 O207 2.117 . S
C182 O204 1.234 1_565 S
C182 O205 1.283 . S
C183 O195 1.281 1_556 S
C183 O196 1.236 . S
C184 O206 1.240 . S
C184 O207 1.264 1_545 S
O185 Mn180 2.095 1_565 S
O185 C194 1.250 . S
O186 Mn181 2.121 . S
O186 C194 1.258 . S
C187 N188 1.326 . S
C187 C191 1.460 . S
C187 H193 0.929 . S
N188 Mn181 2.257 1_556 S
N188 C187 1.326 . S
N188 C192 1.362 . S
C189 C190 1.258 . S
C189 C192 1.431 . S
C189 C209 1.449 . S
C190 C189 1.258 . S
C190 C191 1.477 . S
C190 H210 0.931 . S
C191 C187 1.460 . S
C191 C190 1.477 . S
C191 H211 0.930 . S
C192 N188 1.362 . S
C192 C189 1.431 . S
C192 C202 1.476 . S
H193 C187 0.929 . S
C194 O185 1.250 . S
C194 O186 1.258 . S
O195 Mn180 2.162 . S
O195 C183 1.281 1_554 S
O196 Mn180 2.297 1_556 S
O196 C183 1.236 . S
N197 Mn181 2.294 . S
N197 C198 1.335 . S
N197 C202 1.296 1_554 S
C198 N197 1.335 . S
C198 C199 1.457 1_554 S
C198 H203 0.929 . S
C199 C198 1.457 1_556 S
C199 C200 1.291 . S
C199 H212 0.931 . S
C200 C199 1.291 . S
C200 C201 1.373 . S
C200 H213 0.929 . S
C201 C200 1.373 . S
C201 C202 1.396 . S
C201 C208 1.403 . S
C202 C192 1.476 . S
C202 N197 1.296 1_556 S
C202 C201 1.396 . S
H203 C198 0.929 . S
O204 Mn180 2.385 1_556 S
O204 C182 1.234 1_545 S
O205 Mn180 2.209 1_566 S
O205 Mn181 2.215 1_556 S
O205 C182 1.283 . S
O206 Mn180 2.094 . S
O206 C184 1.240 . S
O207 Mn181 2.117 . S
O207 C184 1.264 1_565 S
C208 C201 1.403 . S
C208 C209 1.399 . S
C208 H214 0.929 . S
C209 C189 1.449 . S
C209 C208 1.399 . S
C209 H215 0.930 . S
H210 C190 0.931 . S
H211 C191 0.930 . S
H212 C199 0.931 . S
H213 C200 0.929 . S
H214 C208 0.929 . S
H215 C209 0.930 . S
Mn216 O221 2.095 . S
Mn216 O231 2.162 . S
Mn216 O232 2.297 . S
Mn216 O240 2.385 . S
Mn216 O241 2.209 . S
Mn216 O242 2.094 . S
Mn217 O222 2.121 . S
Mn217 N224 2.257 . S
Mn217 N233 2.282 . S
Mn217 O241 2.215 . S
Mn217 O243 2.117 . S
C218 O240 1.234 . S
C218 O241 1.283 . S
C219 O231 1.281 . S
C219 O232 1.236 . S
C220 O242 1.240 . S
C220 O243 1.264 . S
O221 Mn216 2.095 . S
O221 C230 1.250 . S
O222 Mn217 2.121 . S
O222 C230 1.258 . S
C223 N224 1.326 . S
C223 C227 1.460 . S
C223 H229 0.929 . S
N224 Mn217 2.257 . S
N224 C223 1.326 . S
N224 C228 1.362 . S
C225 C226 1.258 . S
C225 C228 1.431 . S
C225 C245 1.449 . S
C226 C225 1.258 . S
C226 C227 1.477 . S
C226 H246 0.931 . S
C227 C223 1.460 . S
C227 C226 1.477 . S
C227 H247 0.930 . S
C228 N224 1.362 . S
C228 C225 1.431 . S
C228 C238 1.476 . S
H229 C223 0.929 . S
C230 O221 1.250 . S
C230 O222 1.258 . S
O231 Mn216 2.162 . S
O231 C219 1.281 . S
O232 Mn216 2.297 . S
O232 C219 1.236 . S
N233 Mn217 2.282 . S
N233 C234 1.328 . S
N233 C238 1.318 . S
C234 N233 1.328 . S
C234 C235 1.457 . S
C234 H239 0.929 . S
C235 C234 1.457 . S
C235 C236 1.291 . S
C235 H248 0.931 . S
C236 C235 1.291 . S
C236 C237 1.373 . S
C236 H249 0.929 . S
C237 C236 1.373 . S
C237 C238 1.396 . S
C237 C244 1.403 . S
C238 C228 1.476 . S
C238 N233 1.318 . S
C238 C237 1.396 . S
H239 C234 0.929 . S
O240 Mn216 2.385 . S
O240 C218 1.234 . S
O241 Mn216 2.209 . S
O241 Mn217 2.215 . S
O241 C218 1.283 . S
O242 Mn216 2.094 . S
O242 C220 1.240 . S
O243 Mn217 2.117 . S
O243 C220 1.264 . S
C244 C237 1.403 . S
C244 C245 1.399 . S
C244 H250 0.929 . S
C245 C225 1.449 . S
C245 C244 1.399 . S
C245 H251 0.930 . S
H246 C226 0.931 . S
H247 C227 0.930 . S
H248 C235 0.931 . S
H249 C236 0.929 . S
H250 C244 0.929 . S
H251 C245 0.930 . S
Mn252 O257 2.095 . S
Mn252 O267 2.162 1_565 S
Mn252 O268 2.297 1_565 S
Mn252 O276 2.385 . S
Mn252 O277 2.209 . S
Mn252 O278 2.094 . S
Mn253 O258 2.121 . S
Mn253 N260 2.257 . S
Mn253 N269 2.282 . S
Mn253 O277 2.215 . S
Mn253 O279 2.117 . S
C254 O276 1.234 . S
C254 O277 1.283 . S
C255 O267 1.281 . S
C255 O268 1.236 . S
C256 O278 1.240 . S
C256 O279 1.264 . S
O257 Mn252 2.095 . S
O257 C266 1.250 . S
O258 Mn253 2.121 . S
O258 C266 1.258 . S
C259 N260 1.326 . S
C259 C263 1.460 . S
C259 H265 0.929 . S
N260 Mn253 2.257 . S
N260 C259 1.326 . S
N260 C264 1.362 . S
C261 C262 1.258 . S
C261 C264 1.431 . S
C261 C281 1.449 . S
C262 C261 1.258 . S
C262 C263 1.477 . S
C262 H282 0.931 . S
C263 C259 1.460 . S
C263 C262 1.477 . S
C263 H283 0.930 . S
C264 N260 1.362 . S
C264 C261 1.431 . S
C264 C274 1.476 . S
H265 C259 0.929 . S
C266 O257 1.250 . S
C266 O258 1.258 . S
O267 Mn252 2.162 1_545 S
O267 C255 1.281 . S
O268 Mn252 2.297 1_545 S
O268 C255 1.236 . S
N269 Mn253 2.282 . S
N269 C270 1.328 . S
N269 C274 1.318 . S
C270 N269 1.328 . S
C270 C271 1.457 . S
C270 H275 0.929 . S
C271 C270 1.457 . S
C271 C272 1.291 . S
C271 H284 0.931 . S
C272 C271 1.291 . S
C272 C273 1.373 . S
C272 H285 0.929 . S
C273 C272 1.373 . S
C273 C274 1.396 . S
C273 C280 1.403 . S
C274 C264 1.476 . S
C274 N269 1.318 . S
C274 C273 1.396 . S
H275 C270 0.929 . S
O276 Mn252 2.385 . S
O276 C254 1.234 . S
O277 Mn252 2.209 . S
O277 Mn253 2.215 . S
O277 C254 1.283 . S
O278 Mn252 2.094 . S
O278 C256 1.240 . S
O279 Mn253 2.117 . S
O279 C256 1.264 . S
C280 C273 1.403 . S
C280 C281 1.399 . S
C280 H286 0.929 . S
C281 C261 1.449 . S
C281 C280 1.399 . S
C281 H287 0.930 . S
H282 C262 0.931 . S
H283 C263 0.930 . S
H284 C271 0.931 . S
H285 C272 0.929 . S
H286 C280 0.929 . S
H287 C281 0.930 . S
Mn288 O293 2.095 . S
Mn288 O303 2.162 1_455 S
Mn288 O304 2.297 1_455 S
Mn288 O312 2.385 . S
Mn288 O313 2.209 . S
Mn288 O314 2.094 . S
Mn289 O294 2.121 . S
Mn289 N296 2.257 . S
Mn289 N305 2.282 . S
Mn289 O313 2.215 . S
Mn289 O315 2.117 . S
C290 O312 1.234 . S
C290 O313 1.283 . S
C291 O303 1.281 . S
C291 O304 1.236 . S
C292 O314 1.240 . S
C292 O315 1.264 . S
O293 Mn288 2.095 . S
O293 C302 1.250 . S
O294 Mn289 2.121 . S
O294 C302 1.258 . S
C295 N296 1.326 . S
C295 C299 1.460 . S
C295 H301 0.929 . S
N296 Mn289 2.257 . S
N296 C295 1.326 . S
N296 C300 1.362 . S
C297 C298 1.258 . S
C297 C300 1.431 . S
C297 C317 1.449 . S
C298 C297 1.258 . S
C298 C299 1.477 . S
C298 H318 0.931 . S
C299 C295 1.460 . S
C299 C298 1.477 . S
C299 H319 0.930 . S
C300 N296 1.362 . S
C300 C297 1.431 . S
C300 C310 1.476 . S
H301 C295 0.929 . S
C302 O293 1.250 . S
C302 O294 1.258 . S
O303 Mn288 2.162 1_655 S
O303 C291 1.281 . S
O304 Mn288 2.297 1_655 S
O304 C291 1.236 . S
N305 Mn289 2.282 . S
N305 C306 1.328 . S
N305 C310 1.318 . S
C306 N305 1.328 . S
C306 C307 1.457 . S
C306 H311 0.929 . S
C307 C306 1.457 . S
C307 C308 1.291 . S
C307 H320 0.931 . S
C308 C307 1.291 . S
C308 C309 1.373 . S
C308 H321 0.929 . S
C309 C308 1.373 . S
C309 C310 1.396 . S
C309 C316 1.403 . S
C310 C300 1.476 . S
C310 N305 1.318 . S
C310 C309 1.396 . S
H311 C306 0.929 . S
O312 Mn288 2.385 . S
O312 C290 1.234 . S
O313 Mn288 2.209 . S
O313 Mn289 2.215 . S
O313 C290 1.283 . S
O314 Mn288 2.094 . S
O314 C292 1.240 . S
O315 Mn289 2.117 . S
O315 C292 1.264 . S
C316 C309 1.403 . S
C316 C317 1.399 . S
C316 H322 0.929 . S
C317 C297 1.449 . S
C317 C316 1.399 . S
C317 H323 0.930 . S
H318 C298 0.931 . S
H319 C299 0.930 . S
H320 C307 0.931 . S
H321 C308 0.929 . S
H322 C316 0.929 . S
H323 C317 0.930 . S
Mn324 O329 2.095 1_565 S
Mn324 O339 2.162 . S
Mn324 O340 2.297 . S
Mn324 O348 2.385 . S
Mn324 O349 2.209 . S
Mn324 O350 2.094 . S
Mn325 O330 2.121 1_565 S
Mn325 N332 2.257 . S
Mn325 N341 2.282 . S
Mn325 O349 2.215 . S
Mn325 O351 2.117 . S
C326 O348 1.234 . S
C326 O349 1.283 . S
C327 O339 1.281 . S
C327 O340 1.236 . S
C328 O350 1.240 . S
C328 O351 1.264 . S
O329 Mn324 2.095 1_545 S
O329 C338 1.250 . S
O330 Mn325 2.121 1_545 S
O330 C338 1.258 . S
C331 N332 1.326 1_545 S
C331 C335 1.460 . S
C331 H337 0.929 . S
N332 Mn325 2.257 . S
N332 C331 1.326 1_565 S
N332 C336 1.362 . S
C333 C334 1.258 1_565 S
C333 C336 1.431 . S
C333 C353 1.449 . S
C334 C333 1.258 1_545 S
C334 C335 1.477 . S
C334 H354 0.931 . S
C335 C331 1.460 . S
C335 C334 1.477 . S
C335 H355 0.930 . S
C336 N332 1.362 . S
C336 C333 1.431 . S
C336 C346 1.476 . S
H337 C331 0.929 . S
C338 O329 1.250 . S
C338 O330 1.258 . S
O339 Mn324 2.162 . S
O339 C327 1.281 . S
O340 Mn324 2.297 . S
O340 C327 1.236 . S
N341 Mn325 2.282 . S
N341 C342 1.328 . S
N341 C346 1.318 . S
C342 N341 1.328 . S
C342 C343 1.457 . S
C342 H347 0.929 . S
C343 C342 1.457 . S
C343 C344 1.291 . S
C343 H356 0.931 . S
C344 C343 1.291 . S
C344 C345 1.373 . S
C344 H357 0.929 . S
C345 C344 1.373 . S
C345 C346 1.396 . S
C345 C352 1.403 . S
C346 C336 1.476 . S
C346 N341 1.318 . S
C346 C345 1.396 . S
H347 C342 0.929 . S
O348 Mn324 2.385 . S
O348 C326 1.234 . S
O349 Mn324 2.209 . S
O349 Mn325 2.215 . S
O349 C326 1.283 . S
O350 Mn324 2.094 . S
O350 C328 1.240 . S
O351 Mn325 2.117 . S
O351 C328 1.264 . S
C352 C345 1.403 . S
C352 C353 1.399 . S
C352 H358 0.929 . S
C353 C333 1.449 . S
C353 C352 1.399 . S
C353 H359 0.930 . S
H354 C334 0.931 . S
H355 C335 0.930 . S
H356 C343 0.931 . S
H357 C344 0.929 . S
H358 C352 0.929 . S
H359 C353 0.930 . S
Mn360 O365 2.095 . S
Mn360 O375 2.162 1_455 S
Mn360 O376 2.297 1_455 S
Mn360 O384 2.385 . S
Mn360 O385 2.209 . S
Mn360 O386 2.094 . S
Mn361 O366 2.121 . S
Mn361 N368 2.257 . S
Mn361 N377 2.282 . S
Mn361 O385 2.215 . S
Mn361 O387 2.117 . S
C362 O384 1.234 . S
C362 O385 1.283 . S
C363 O375 1.281 . S
C363 O376 1.236 . S
C364 O386 1.240 . S
C364 O387 1.264 . S
O365 Mn360 2.095 . S
O365 C374 1.250 . S
O366 Mn361 2.121 . S
O366 C374 1.258 . S
C367 N368 1.326 . S
C367 C371 1.460 . S
C367 H373 0.929 . S
N368 Mn361 2.257 . S
N368 C367 1.326 . S
N368 C372 1.362 . S
C369 C370 1.258 . S
C369 C372 1.431 . S
C369 C389 1.449 . S
C370 C369 1.258 . S
C370 C371 1.477 . S
C370 H390 0.931 . S
C371 C367 1.460 . S
C371 C370 1.477 . S
C371 H391 0.930 . S
C372 N368 1.362 . S
C372 C369 1.431 . S
C372 C382 1.476 . S
H373 C367 0.929 . S
C374 O365 1.250 . S
C374 O366 1.258 . S
O375 Mn360 2.162 1_655 S
O375 C363 1.281 . S
O376 Mn360 2.297 1_655 S
O376 C363 1.236 . S
N377 Mn361 2.282 . S
N377 C378 1.328 . S
N377 C382 1.318 . S
C378 N377 1.328 . S
C378 C379 1.457 . S
C378 H383 0.929 . S
C379 C378 1.457 . S
C379 C380 1.291 . S
C379 H392 0.931 . S
C380 C379 1.291 . S
C380 C381 1.373 . S
C380 H393 0.929 . S
C381 C380 1.373 . S
C381 C382 1.396 . S
C381 C388 1.403 . S
C382 C372 1.476 . S
C382 N377 1.318 . S
C382 C381 1.396 . S
H383 C378 0.929 . S
O384 Mn360 2.385 . S
O384 C362 1.234 . S
O385 Mn360 2.209 . S
O385 Mn361 2.215 . S
O385 C362 1.283 . S
O386 Mn360 2.094 . S
O386 C364 1.240 . S
O387 Mn361 2.117 . S
O387 C364 1.264 . S
C388 C381 1.403 . S
C388 C389 1.399 . S
C388 H394 0.929 . S
C389 C369 1.449 . S
C389 C388 1.399 . S
C389 H395 0.930 . S
H390 C370 0.931 . S
H391 C371 0.930 . S
H392 C379 0.931 . S
H393 C380 0.929 . S
H394 C388 0.929 . S
H395 C389 0.930 . S
Mn396 O401 2.095 . S
Mn396 O411 2.162 . S
Mn396 O412 2.297 . S
Mn396 O420 2.385 . S
Mn396 O421 2.209 . S
Mn396 O422 2.094 . S
Mn397 O402 2.121 . S
Mn397 N404 2.257 . S
Mn397 N413 2.282 . S
Mn397 O421 2.215 . S
Mn397 O423 2.117 . S
C398 O420 1.234 . S
C398 O421 1.283 . S
C399 O411 1.281 . S
C399 O412 1.236 . S
C400 O422 1.240 . S
C400 O423 1.264 . S
O401 Mn396 2.095 . S
O401 C410 1.250 . S
O402 Mn397 2.121 . S
O402 C410 1.258 . S
C403 N404 1.326 . S
C403 C407 1.460 . S
C403 H409 0.929 . S
N404 Mn397 2.257 . S
N404 C403 1.326 . S
N404 C408 1.362 . S
C405 C406 1.258 . S
C405 C408 1.431 . S
C405 C425 1.449 . S
C406 C405 1.258 . S
C406 C407 1.477 . S
C406 H426 0.931 . S
C407 C403 1.460 . S
C407 C406 1.477 . S
C407 H427 0.930 . S
C408 N404 1.362 . S
C408 C405 1.431 . S
C408 C418 1.476 . S
H409 C403 0.929 . S
C410 O401 1.250 . S
C410 O402 1.258 . S
O411 Mn396 2.162 . S
O411 C399 1.281 . S
O412 Mn396 2.297 . S
O412 C399 1.236 . S
N413 Mn397 2.282 . S
N413 C414 1.328 . S
N413 C418 1.318 . S
C414 N413 1.328 . S
C414 C415 1.457 . S
C414 H419 0.929 . S
C415 C414 1.457 . S
C415 C416 1.291 . S
C415 H428 0.931 . S
C416 C415 1.291 . S
C416 C417 1.373 . S
C416 H429 0.929 . S
C417 C416 1.373 . S
C417 C418 1.396 . S
C417 C424 1.403 . S
C418 C408 1.476 . S
C418 N413 1.318 . S
C418 C417 1.396 . S
H419 C414 0.929 . S
O420 Mn396 2.385 . S
O420 C398 1.234 . S
O421 Mn396 2.209 . S
O421 Mn397 2.215 . S
O421 C398 1.283 . S
O422 Mn396 2.094 . S
O422 C400 1.240 . S
O423 Mn397 2.117 . S
O423 C400 1.264 . S
C424 C417 1.403 . S
C424 C425 1.399 . S
C424 H430 0.929 . S
C425 C405 1.449 . S
C425 C424 1.399 . S
C425 H431 0.930 . S
H426 C406 0.931 . S
H427 C407 0.930 . S
H428 C415 0.931 . S
H429 C416 0.929 . S
H430 C424 0.929 . S
H431 C425 0.930 . S
Mn432 O437 2.095 . S
Mn432 O447 2.162 1_545 S
Mn432 O448 2.297 1_545 S
Mn432 O456 2.385 . S
Mn432 O457 2.209 . S
Mn432 O458 2.094 . S
Mn433 O438 2.121 . S
Mn433 N440 2.257 . S
Mn433 N449 2.282 . S
Mn433 O457 2.215 . S
Mn433 O459 2.117 . S
C434 O456 1.234 . S
C434 O457 1.283 . S
C435 O447 1.281 . S
C435 O448 1.236 . S
C436 O458 1.240 . S
C436 O459 1.264 . S
O437 Mn432 2.095 . S
O437 C446 1.250 . S
O438 Mn433 2.121 . S
O438 C446 1.258 . S
C439 N440 1.326 . S
C439 C443 1.460 . S
C439 H445 0.929 . S
N440 Mn433 2.257 . S
N440 C439 1.326 . S
N440 C444 1.362 . S
C441 C442 1.258 . S
C441 C444 1.431 . S
C441 C461 1.449 . S
C442 C441 1.258 . S
C442 C443 1.477 . S
C442 H462 0.931 . S
C443 C439 1.460 . S
C443 C442 1.477 . S
C443 H463 0.930 . S
C444 N440 1.362 . S
C444 C441 1.431 . S
C444 C454 1.476 . S
H445 C439 0.929 . S
C446 O437 1.250 . S
C446 O438 1.258 . S
O447 Mn432 2.162 1_565 S
O447 C435 1.281 . S
O448 Mn432 2.297 1_565 S
O448 C435 1.236 . S
N449 Mn433 2.282 . S
N449 C450 1.328 . S
N449 C454 1.318 . S
C450 N449 1.328 . S
C450 C451 1.457 . S
C450 H455 0.929 . S
C451 C450 1.457 . S
C451 C452 1.291 . S
C451 H464 0.931 . S
C452 C451 1.291 . S
C452 C453 1.373 . S
C452 H465 0.929 . S
C453 C452 1.373 . S
C453 C454 1.396 . S
C453 C460 1.403 . S
C454 C444 1.476 . S
C454 N449 1.318 . S
C454 C453 1.396 . S
H455 C450 0.929 . S
O456 Mn432 2.385 . S
O456 C434 1.234 . S
O457 Mn432 2.209 . S
O457 Mn433 2.215 . S
O457 C434 1.283 . S
O458 Mn432 2.094 . S
O458 C436 1.240 . S
O459 Mn433 2.117 . S
O459 C436 1.264 . S
C460 C453 1.403 . S
C460 C461 1.399 . S
C460 H466 0.929 . S
C461 C441 1.449 . S
C461 C460 1.399 . S
C461 H467 0.930 . S
H462 C442 0.931 . S
H463 C443 0.930 . S
H464 C451 0.931 . S
H465 C452 0.929 . S
H466 C460 0.929 . S
H467 C461 0.930 . S
Mn468 O473 2.095 1_655 S
Mn468 O483 2.162 . S
Mn468 O484 2.297 . S
Mn468 O492 2.385 . S
Mn468 O493 2.209 . S
Mn468 O494 2.094 . S
Mn469 O474 2.121 1_655 S
Mn469 N476 2.257 . S
Mn469 N485 2.282 . S
Mn469 O493 2.215 . S
Mn469 O495 2.117 . S
C470 O492 1.234 . S
C470 O493 1.283 . S
C471 O483 1.281 . S
C471 O484 1.236 . S
C472 O494 1.240 . S
C472 O495 1.264 . S
O473 Mn468 2.095 1_455 S
O473 C482 1.250 . S
O474 Mn469 2.121 1_455 S
O474 C482 1.258 . S
C475 N476 1.326 1_455 S
C475 C479 1.460 . S
C475 H481 0.929 . S
N476 Mn469 2.257 . S
N476 C475 1.326 1_655 S
N476 C480 1.362 . S
C477 C478 1.258 1_655 S
C477 C480 1.431 . S
C477 C497 1.449 . S
C478 C477 1.258 1_455 S
C478 C479 1.477 . S
C478 H498 0.931 . S
C479 C475 1.460 . S
C479 C478 1.477 . S
C479 H499 0.930 . S
C480 N476 1.362 . S
C480 C477 1.431 . S
C480 C490 1.476 . S
H481 C475 0.929 . S
C482 O473 1.250 . S
C482 O474 1.258 . S
O483 Mn468 2.162 . S
O483 C471 1.281 . S
O484 Mn468 2.297 . S
O484 C471 1.236 . S
N485 Mn469 2.282 . S
N485 C486 1.328 . S
N485 C490 1.318 . S
C486 N485 1.328 . S
C486 C487 1.457 . S
C486 H491 0.929 . S
C487 C486 1.457 . S
C487 C488 1.291 . S
C487 H500 0.931 . S
C488 C487 1.291 . S
C488 C489 1.373 . S
C488 H501 0.929 . S
C489 C488 1.373 . S
C489 C490 1.396 . S
C489 C496 1.403 . S
C490 C480 1.476 . S
C490 N485 1.318 . S
C490 C489 1.396 . S
H491 C486 0.929 . S
O492 Mn468 2.385 . S
O492 C470 1.234 . S
O493 Mn468 2.209 . S
O493 Mn469 2.215 . S
O493 C470 1.283 . S
O494 Mn468 2.094 . S
O494 C472 1.240 . S
O495 Mn469 2.117 . S
O495 C472 1.264 . S
C496 C489 1.403 . S
C496 C497 1.399 . S
C496 H502 0.929 . S
C497 C477 1.449 . S
C497 C496 1.399 . S
C497 H503 0.930 . S
H498 C478 0.931 . S
H499 C479 0.930 . S
H500 C487 0.931 . S
H501 C488 0.929 . S
H502 C496 0.929 . S
H503 C497 0.930 . S
Mn504 O509 2.095 . S
Mn504 O519 2.162 . S
Mn504 O520 2.297 . S
Mn504 O528 2.385 . S
Mn504 O529 2.209 . S
Mn504 O530 2.094 . S
Mn505 O510 2.121 . S
Mn505 N512 2.257 . S
Mn505 N521 2.282 . S
Mn505 O529 2.215 . S
Mn505 O531 2.117 . S
C506 O528 1.234 . S
C506 O529 1.283 . S
C507 O519 1.281 . S
C507 O520 1.236 . S
C508 O530 1.240 . S
C508 O531 1.264 . S
O509 Mn504 2.095 . S
O509 C518 1.250 . S
O510 Mn505 2.121 . S
O510 C518 1.258 . S
C511 N512 1.326 . S
C511 C515 1.460 . S
C511 H517 0.929 . S
N512 Mn505 2.257 . S
N512 C511 1.326 . S
N512 C516 1.362 . S
C513 C514 1.258 . S
C513 C516 1.431 . S
C513 C533 1.449 . S
C514 C513 1.258 . S
C514 C515 1.477 . S
C514 H534 0.931 . S
C515 C511 1.460 . S
C515 C514 1.477 . S
C515 H535 0.930 . S
C516 N512 1.362 . S
C516 C513 1.431 . S
C516 C526 1.476 . S
H517 C511 0.929 . S
C518 O509 1.250 . S
C518 O510 1.258 . S
O519 Mn504 2.162 . S
O519 C507 1.281 . S
O520 Mn504 2.297 . S
O520 C507 1.236 . S
N521 Mn505 2.282 . S
N521 C522 1.328 . S
N521 C526 1.318 . S
C522 N521 1.328 . S
C522 C523 1.457 . S
C522 H527 0.929 . S
C523 C522 1.457 . S
C523 C524 1.291 . S
C523 H536 0.931 . S
C524 C523 1.291 . S
C524 C525 1.373 . S
C524 H537 0.929 . S
C525 C524 1.373 . S
C525 C526 1.396 . S
C525 C532 1.403 . S
C526 C516 1.476 . S
C526 N521 1.318 . S
C526 C525 1.396 . S
H527 C522 0.929 . S
O528 Mn504 2.385 . S
O528 C506 1.234 . S
O529 Mn504 2.209 . S
O529 Mn505 2.215 . S
O529 C506 1.283 . S
O530 Mn504 2.094 . S
O530 C508 1.240 . S
O531 Mn505 2.117 . S
O531 C508 1.264 . S
C532 C525 1.403 . S
C532 C533 1.399 . S
C532 H538 0.929 . S
C533 C513 1.449 . S
C533 C532 1.399 . S
C533 H539 0.930 . S
H534 C514 0.931 . S
H535 C515 0.930 . S
H536 C523 0.931 . S
H537 C524 0.929 . S
H538 C532 0.929 . S
H539 C533 0.930 . S
Mn540 O545 2.095 . S
Mn540 O555 2.162 . S
Mn540 O556 2.297 . S
Mn540 O564 2.385 . S
Mn540 O565 2.209 . S
Mn540 O566 2.094 . S
Mn541 O546 2.121 . S
Mn541 N548 2.257 . S
Mn541 N557 2.282 . S
Mn541 O565 2.215 . S
Mn541 O567 2.117 . S
C542 O564 1.234 . S
C542 O565 1.283 . S
C543 O555 1.281 . S
C543 O556 1.236 . S
C544 O566 1.240 . S
C544 O567 1.264 . S
O545 Mn540 2.095 . S
O545 C554 1.250 . S
O546 Mn541 2.121 . S
O546 C554 1.258 . S
C547 N548 1.326 . S
C547 C551 1.460 . S
C547 H553 0.929 . S
N548 Mn541 2.257 . S
N548 C547 1.326 . S
N548 C552 1.362 . S
C549 C550 1.258 . S
C549 C552 1.431 . S
C549 C569 1.449 . S
C550 C549 1.258 . S
C550 C551 1.477 . S
C550 H570 0.931 . S
C551 C547 1.460 . S
C551 C550 1.477 . S
C551 H571 0.930 . S
C552 N548 1.362 . S
C552 C549 1.431 . S
C552 C562 1.476 . S
H553 C547 0.929 . S
C554 O545 1.250 . S
C554 O546 1.258 . S
O555 Mn540 2.162 . S
O555 C543 1.281 . S
O556 Mn540 2.297 . S
O556 C543 1.236 . S
N557 Mn541 2.282 . S
N557 C558 1.328 . S
N557 C562 1.318 . S
C558 N557 1.328 . S
C558 C559 1.457 . S
C558 H563 0.929 . S
C559 C558 1.457 . S
C559 C560 1.291 . S
C559 H572 0.931 . S
C560 C559 1.291 . S
C560 C561 1.373 . S
C560 H573 0.929 . S
C561 C560 1.373 . S
C561 C562 1.396 . S
C561 C568 1.403 . S
C562 C552 1.476 . S
C562 N557 1.318 . S
C562 C561 1.396 . S
H563 C558 0.929 . S
O564 Mn540 2.385 . S
O564 C542 1.234 . S
O565 Mn540 2.209 . S
O565 Mn541 2.215 . S
O565 C542 1.283 . S
O566 Mn540 2.094 . S
O566 C544 1.240 . S
O567 Mn541 2.117 . S
O567 C544 1.264 . S
C568 C561 1.403 . S
C568 C569 1.399 . S
C568 H574 0.929 . S
C569 C549 1.449 . S
C569 C568 1.399 . S
C569 H575 0.930 . S
H570 C550 0.931 . S
H571 C551 0.930 . S
H572 C559 0.931 . S
H573 C560 0.929 . S
H574 C568 0.929 . S
H575 C569 0.930 . S
Mn576 O581 2.095 1_545 S
Mn576 O591 2.162 . S
Mn576 O592 2.297 . S
Mn576 O600 2.385 . S
Mn576 O601 2.209 . S
Mn576 O602 2.094 . S
Mn577 O582 2.121 1_545 S
Mn577 N584 2.257 . S
Mn577 N593 2.282 . S
Mn577 O601 2.215 . S
Mn577 O603 2.117 . S
C578 O600 1.234 . S
C578 O601 1.283 . S
C579 O591 1.281 . S
C579 O592 1.236 . S
C580 O602 1.240 . S
C580 O603 1.264 . S
O581 Mn576 2.095 1_565 S
O581 C590 1.250 . S
O582 Mn577 2.121 1_565 S
O582 C590 1.258 . S
C583 N584 1.326 1_565 S
C583 C587 1.460 . S
C583 H589 0.929 . S
N584 Mn577 2.257 . S
N584 C583 1.326 1_545 S
N584 C588 1.362 . S
C585 C586 1.258 1_545 S
C585 C588 1.431 . S
C585 C605 1.449 . S
C586 C585 1.258 1_565 S
C586 C587 1.477 . S
C586 H606 0.931 . S
C587 C583 1.460 . S
C587 C586 1.477 . S
C587 H607 0.930 . S
C588 N584 1.362 . S
C588 C585 1.431 . S
C588 C598 1.476 . S
H589 C583 0.929 . S
C590 O581 1.250 . S
C590 O582 1.258 . S
O591 Mn576 2.162 . S
O591 C579 1.281 . S
O592 Mn576 2.297 . S
O592 C579 1.236 . S
N593 Mn577 2.282 . S
N593 C594 1.328 . S
N593 C598 1.318 . S
C594 N593 1.328 . S
C594 C595 1.457 . S
C594 H599 0.929 . S
C595 C594 1.457 . S
C595 C596 1.291 . S
C595 H608 0.931 . S
C596 C595 1.291 . S
C596 C597 1.373 . S
C596 H609 0.929 . S
C597 C596 1.373 . S
C597 C598 1.396 . S
C597 C604 1.403 . S
C598 C588 1.476 . S
C598 N593 1.318 . S
C598 C597 1.396 . S
H599 C594 0.929 . S
O600 Mn576 2.385 . S
O600 C578 1.234 . S
O601 Mn576 2.209 . S
O601 Mn577 2.215 . S
O601 C578 1.283 . S
O602 Mn576 2.094 . S
O602 C580 1.240 . S
O603 Mn577 2.117 . S
O603 C580 1.264 . S
C604 C597 1.403 . S
C604 C605 1.399 . S
C604 H610 0.929 . S
C605 C585 1.449 . S
C605 C604 1.399 . S
C605 H611 0.930 . S
H606 C586 0.931 . S
H607 C587 0.930 . S
H608 C595 0.931 . S
H609 C596 0.929 . S
H610 C604 0.929 . S
H611 C605 0.930 . S
Mn612 O617 2.095 . S
Mn612 O627 2.162 1_655 S
Mn612 O628 2.297 1_655 S
Mn612 O636 2.385 . S
Mn612 O637 2.209 . S
Mn612 O638 2.094 . S
Mn613 O618 2.121 . S
Mn613 N620 2.257 . S
Mn613 N629 2.282 . S
Mn613 O637 2.215 . S
Mn613 O639 2.117 . S
C614 O636 1.234 . S
C614 O637 1.283 . S
C615 O627 1.281 . S
C615 O628 1.236 . S
C616 O638 1.240 . S
C616 O639 1.264 . S
O617 Mn612 2.095 . S
O617 C626 1.250 . S
O618 Mn613 2.121 . S
O618 C626 1.258 . S
C619 N620 1.326 . S
C619 C623 1.460 . S
C619 H625 0.929 . S
N620 Mn613 2.257 . S
N620 C619 1.326 . S
N620 C624 1.362 . S
C621 C622 1.258 . S
C621 C624 1.431 . S
C621 C641 1.449 . S
C622 C621 1.258 . S
C622 C623 1.477 . S
C622 H642 0.931 . S
C623 C619 1.460 . S
C623 C622 1.477 . S
C623 H643 0.930 . S
C624 N620 1.362 . S
C624 C621 1.431 . S
C624 C634 1.476 . S
H625 C619 0.929 . S
C626 O617 1.250 . S
C626 O618 1.258 . S
O627 Mn612 2.162 1_455 S
O627 C615 1.281 . S
O628 Mn612 2.297 1_455 S
O628 C615 1.236 . S
N629 Mn613 2.282 . S
N629 C630 1.328 . S
N629 C634 1.318 . S
C630 N629 1.328 . S
C630 C631 1.457 . S
C630 H635 0.929 . S
C631 C630 1.457 . S
C631 C632 1.291 . S
C631 H644 0.931 . S
C632 C631 1.291 . S
C632 C633 1.373 . S
C632 H645 0.929 . S
C633 C632 1.373 . S
C633 C634 1.396 . S
C633 C640 1.403 . S
C634 C624 1.476 . S
C634 N629 1.318 . S
C634 C633 1.396 . S
H635 C630 0.929 . S
O636 Mn612 2.385 . S
O636 C614 1.234 . S
O637 Mn612 2.209 . S
O637 Mn613 2.215 . S
O637 C614 1.283 . S
O638 Mn612 2.094 . S
O638 C616 1.240 . S
O639 Mn613 2.117 . S
O639 C616 1.264 . S
C640 C633 1.403 . S
C640 C641 1.399 . S
C640 H646 0.929 . S
C641 C621 1.449 . S
C641 C640 1.399 . S
C641 H647 0.930 . S
H642 C622 0.931 . S
H643 C623 0.930 . S
H644 C631 0.931 . S
H645 C632 0.929 . S
H646 C640 0.929 . S
H647 C641 0.930 . S
H648 C667 0.949 . S
H649 C668 0.950 . S
H650 C670 0.950 . S
H651 C671 0.950 . S
H652 C673 0.950 . S
H653 C676 0.950 . S
H654 C677 0.950 . S
H655 C679 0.951 . S
H656 C680 0.949 . S
H657 C682 0.949 . S
H658 C683 0.950 . S
H659 C685 0.950 . S
H660 C686 0.950 . S
H661 C688 0.950 . S
H662 C691 0.950 . S
H663 C692 0.950 . S
H664 C694 0.951 . S
H665 C695 0.949 . S
C666 C667 1.376 . S
C666 C671 1.386 . S
C666 C672 1.483 . S
C667 H648 0.949 . S
C667 C666 1.376 . S
C667 C668 1.397 . S
C668 H649 0.950 . S
C668 C667 1.397 . S
C668 C669 1.391 . S
C669 C668 1.391 . S
C669 C670 1.405 . S
C670 H650 0.950 . S
C670 C669 1.405 . S
C670 C671 1.367 . S
C671 H651 0.950 . S
C671 C666 1.386 . S
C671 C670 1.367 . S
C672 C666 1.483 . S
C672 C673 1.382 . S
C672 C674 1.403 . S
C673 H652 0.950 . S
C673 C672 1.382 . S
C673 C689 1.411 . S
C674 C672 1.403 . S
C674 C675 1.489 . S
C674 C688 1.411 . S
C675 C674 1.489 . S
C675 C676 1.383 . S
C675 C680 1.382 . S
C676 H653 0.950 . S
C676 C675 1.383 . S
C676 C677 1.395 . S
C677 H654 0.950 . S
C677 C676 1.395 . S
C677 C678 1.288 . S
C678 C677 1.288 . S
C678 C679 1.392 . S
C679 H655 0.951 . S
C679 C678 1.392 . S
C679 C680 1.392 . S
C680 H656 0.949 . S
C680 C675 1.382 . S
C680 C679 1.392 . S
C681 C682 1.376 . S
C681 C686 1.386 . S
C681 C687 1.483 . S
C682 H657 0.949 . S
C682 C681 1.376 . S
C682 C683 1.397 . S
C683 H658 0.950 . S
C683 C682 1.397 . S
C683 C684 1.391 . S
C684 C683 1.391 . S
C684 C685 1.405 . S
C685 H659 0.950 . S
C685 C684 1.405 . S
C685 C686 1.367 . S
C686 H660 0.950 . S
C686 C681 1.386 . S
C686 C685 1.367 . S
C687 C681 1.483 . S
C687 C688 1.382 . S
C687 C689 1.403 . S
C688 H661 0.950 . S
C688 C674 1.411 . S
C688 C687 1.382 . S
C689 C673 1.411 . S
C689 C687 1.403 . S
C689 C690 1.489 . S
C690 C689 1.489 . S
C690 C691 1.383 . S
C690 C695 1.382 . S
C691 H662 0.950 . S
C691 C690 1.383 . S
C691 C692 1.395 . S
C692 H663 0.950 . S
C692 C691 1.395 . S
C692 C693 1.288 . S
C693 C692 1.288 . S
C693 C694 1.392 . S
C694 H664 0.951 . S
C694 C693 1.392 . S
C694 C695 1.392 . S
C695 H665 0.949 . S
C695 C690 1.382 . S
C695 C694 1.392 . S
H696 C715 0.949 . S
H697 C716 0.950 . S
H698 C718 0.950 . S
H699 C719 0.950 . S
H700 C721 0.950 . S
H701 C724 0.950 . S
H702 C725 0.950 . S
H703 C727 0.951 . S
H704 C728 0.949 . S
H705 C730 0.949 . S
H706 C731 0.950 . S
H707 C733 0.950 . S
H708 C734 0.950 . S
H709 C736 0.950 . S
H710 C739 0.950 . S
H711 C740 0.950 . S
H712 C742 0.951 . S
H713 C743 0.949 . S
C714 C715 1.376 . S
C714 C719 1.386 . S
C714 C720 1.483 . S
C715 H696 0.949 . S
C715 C714 1.376 . S
C715 C716 1.397 . S
C716 H697 0.950 . S
C716 C715 1.397 . S
C716 C717 1.391 . S
C717 C716 1.391 . S
C717 C718 1.405 . S
C718 H698 0.950 . S
C718 C717 1.405 . S
C718 C719 1.367 . S
C719 H699 0.950 . S
C719 C714 1.386 . S
C719 C718 1.367 . S
C720 C714 1.483 . S
C720 C721 1.382 . S
C720 C722 1.403 . S
C721 H700 0.950 . S
C721 C720 1.382 . S
C721 C737 1.411 . S
C722 C720 1.403 . S
C722 C723 1.489 . S
C722 C736 1.411 . S
C723 C722 1.489 . S
C723 C724 1.383 . S
C723 C728 1.382 . S
C724 H701 0.950 . S
C724 C723 1.383 . S
C724 C725 1.395 . S
C725 H702 0.950 . S
C725 C724 1.395 . S
C725 C726 1.288 . S
C726 C725 1.288 . S
C726 C727 1.392 . S
C727 H703 0.951 . S
C727 C726 1.392 . S
C727 C728 1.392 . S
C728 H704 0.949 . S
C728 C723 1.382 . S
C728 C727 1.392 . S
C729 C730 1.376 . S
C729 C734 1.386 . S
C729 C735 1.483 . S
C730 H705 0.949 . S
C730 C729 1.376 . S
C730 C731 1.397 . S
C731 H706 0.950 . S
C731 C730 1.397 . S
C731 C732 1.391 . S
C732 C731 1.391 . S
C732 C733 1.405 . S
C733 H707 0.950 . S
C733 C732 1.405 . S
C733 C734 1.367 . S
C734 H708 0.950 . S
C734 C729 1.386 . S
C734 C733 1.367 . S
C735 C729 1.483 . S
C735 C736 1.382 . S
C735 C737 1.403 . S
C736 H709 0.950 . S
C736 C722 1.411 . S
C736 C735 1.382 . S
C737 C721 1.411 . S
C737 C735 1.403 . S
C737 C738 1.489 . S
C738 C737 1.489 . S
C738 C739 1.383 . S
C738 C743 1.382 . S
C739 H710 0.950 . S
C739 C738 1.383 . S
C739 C740 1.395 . S
C740 H711 0.950 . S
C740 C739 1.395 . S
C740 C741 1.288 . S
C741 C740 1.288 . S
C741 C742 1.392 . S
C742 H712 0.951 . S
C742 C741 1.392 . S
C742 C743 1.392 . S
C743 H713 0.949 . S
C743 C738 1.382 . S
C743 C742 1.392 . S
H744 C763 0.949 . S
H745 C764 0.950 . S
H746 C766 0.950 . S
H747 C767 0.950 . S
H748 C769 0.950 . S
H749 C772 0.950 . S
H750 C773 0.950 . S
H751 C775 0.951 . S
H752 C776 0.949 . S
H753 C778 0.949 . S
H754 C779 0.950 . S
H755 C781 0.950 . S
H756 C782 0.950 . S
H757 C784 0.950 . S
H758 C787 0.950 . S
H759 C788 0.950 . S
H760 C790 0.951 . S
H761 C791 0.949 . S
C762 C763 1.376 . S
C762 C767 1.386 . S
C762 C768 1.483 . S
C763 H744 0.949 . S
C763 C762 1.376 . S
C763 C764 1.397 . S
C764 H745 0.950 . S
C764 C763 1.397 . S
C764 C765 1.391 . S
C765 C764 1.391 . S
C765 C766 1.405 . S
C766 H746 0.950 . S
C766 C765 1.405 . S
C766 C767 1.367 . S
C767 H747 0.950 . S
C767 C762 1.386 . S
C767 C766 1.367 . S
C768 C762 1.483 . S
C768 C769 1.382 . S
C768 C770 1.403 . S
C769 H748 0.950 . S
C769 C768 1.382 . S
C769 C785 1.411 . S
C770 C768 1.403 . S
C770 C771 1.489 . S
C770 C784 1.411 . S
C771 C770 1.489 . S
C771 C772 1.383 . S
C771 C776 1.382 . S
C772 H749 0.950 . S
C772 C771 1.383 . S
C772 C773 1.395 . S
C773 H750 0.950 . S
C773 C772 1.395 . S
C773 C774 1.288 . S
C774 C773 1.288 . S
C774 C775 1.392 . S
C775 H751 0.951 . S
C775 C774 1.392 . S
C775 C776 1.392 . S
C776 H752 0.949 . S
C776 C771 1.382 . S
C776 C775 1.392 . S
C777 C778 1.376 . S
C777 C782 1.386 . S
C777 C783 1.483 . S
C778 H753 0.949 . S
C778 C777 1.376 . S
C778 C779 1.397 . S
C779 H754 0.950 . S
C779 C778 1.397 . S
C779 C780 1.391 . S
C780 C779 1.391 . S
C780 C781 1.405 . S
C781 H755 0.950 . S
C781 C780 1.405 . S
C781 C782 1.367 . S
C782 H756 0.950 . S
C782 C777 1.386 . S
C782 C781 1.367 . S
C783 C777 1.483 . S
C783 C784 1.382 . S
C783 C785 1.403 . S
C784 H757 0.950 . S
C784 C770 1.411 . S
C784 C783 1.382 . S
C785 C769 1.411 . S
C785 C783 1.403 . S
C785 C786 1.489 . S
C786 C785 1.489 . S
C786 C787 1.383 . S
C786 C791 1.382 . S
C787 H758 0.950 . S
C787 C786 1.383 . S
C787 C788 1.395 . S
C788 H759 0.950 . S
C788 C787 1.395 . S
C788 C789 1.288 . S
C789 C788 1.288 . S
C789 C790 1.392 . S
C790 H760 0.951 . S
C790 C789 1.392 . S
C790 C791 1.392 . S
C791 H761 0.949 . S
C791 C786 1.382 . S
C791 C790 1.392 . S
H792 C811 0.949 . S
H793 C812 0.950 . S
H794 C814 0.950 . S
H795 C815 0.950 . S
H796 C817 0.950 . S
H797 C820 0.950 . S
H798 C821 0.950 . S
H799 C823 0.951 . S
H800 C824 0.949 . S
H801 C826 0.949 . S
H802 C827 0.950 . S
H803 C829 0.950 . S
H804 C830 0.950 . S
H805 C832 0.950 . S
H806 C835 0.950 . S
H807 C836 0.950 . S
H808 C838 0.951 . S
H809 C839 0.949 . S
C810 C811 1.376 . S
C810 C815 1.386 . S
C810 C816 1.483 . S
C811 H792 0.949 . S
C811 C810 1.376 . S
C811 C812 1.397 . S
C812 H793 0.950 . S
C812 C811 1.397 . S
C812 C813 1.391 . S
C813 C812 1.391 . S
C813 C814 1.405 . S
C814 H794 0.950 . S
C814 C813 1.405 . S
C814 C815 1.367 . S
C815 H795 0.950 . S
C815 C810 1.386 . S
C815 C814 1.367 . S
C816 C810 1.483 . S
C816 C817 1.382 . S
C816 C818 1.403 . S
C817 H796 0.950 . S
C817 C816 1.382 . S
C817 C833 1.411 . S
C818 C816 1.403 . S
C818 C819 1.489 . S
C818 C832 1.411 . S
C819 C818 1.489 . S
C819 C820 1.383 . S
C819 C824 1.382 . S
C820 H797 0.950 . S
C820 C819 1.383 . S
C820 C821 1.395 . S
C821 H798 0.950 . S
C821 C820 1.395 . S
C821 C822 1.288 . S
C822 C821 1.288 . S
C822 C823 1.392 . S
C823 H799 0.951 . S
C823 C822 1.392 . S
C823 C824 1.392 . S
C824 H800 0.949 . S
C824 C819 1.382 . S
C824 C823 1.392 . S
C825 C826 1.376 . S
C825 C830 1.386 . S
C825 C831 1.483 . S
C826 H801 0.949 . S
C826 C825 1.376 . S
C826 C827 1.397 . S
C827 H802 0.950 . S
C827 C826 1.397 . S
C827 C828 1.391 . S
C828 C827 1.391 . S
C828 C829 1.405 . S
C829 H803 0.950 . S
C829 C828 1.405 . S
C829 C830 1.367 . S
C830 H804 0.950 . S
C830 C825 1.386 . S
C830 C829 1.367 . S
C831 C825 1.483 . S
C831 C832 1.382 . S
C831 C833 1.403 . S
C832 H805 0.950 . S
C832 C818 1.411 . S
C832 C831 1.382 . S
C833 C817 1.411 . S
C833 C831 1.403 . S
C833 C834 1.489 . S
C834 C833 1.489 . S
C834 C835 1.383 . S
C834 C839 1.382 . S
C835 H806 0.950 . S
C835 C834 1.383 . S
C835 C836 1.395 . S
C836 H807 0.950 . S
C836 C835 1.395 . S
C836 C837 1.288 . S
C837 C836 1.288 . S
C837 C838 1.392 . S
C838 H808 0.951 . S
C838 C837 1.392 . S
C838 C839 1.392 . S
C839 H809 0.949 . S
C839 C834 1.382 . S
C839 C838 1.392 . S
H840 C859 0.949 . S
H841 C860 0.950 . S
H842 C862 0.950 . S
H843 C863 0.950 . S
H844 C865 0.950 . S
H845 C868 0.950 . S
H846 C869 0.950 . S
H847 C871 0.951 . S
H848 C872 0.949 . S
H849 C874 0.949 . S
H850 C875 0.950 . S
H851 C877 0.950 . S
H852 C878 0.950 . S
H853 C880 0.950 . S
H854 C883 0.950 . S
H855 C884 0.950 . S
H856 C886 0.951 . S
H857 C887 0.949 . S
C858 C859 1.376 . S
C858 C863 1.386 . S
C858 C864 1.483 . S
C859 H840 0.949 . S
C859 C858 1.376 . S
C859 C860 1.397 . S
C860 H841 0.950 . S
C860 C859 1.397 . S
C860 C861 1.391 . S
C861 C860 1.391 . S
C861 C862 1.405 . S
C862 H842 0.950 . S
C862 C861 1.405 . S
C862 C863 1.367 . S
C863 H843 0.950 . S
C863 C858 1.386 . S
C863 C862 1.367 . S
C864 C858 1.483 . S
C864 C865 1.382 . S
C864 C866 1.403 . S
C865 H844 0.950 . S
C865 C864 1.382 . S
C865 C881 1.411 . S
C866 C864 1.403 . S
C866 C867 1.489 . S
C866 C880 1.411 . S
C867 C866 1.489 . S
C867 C868 1.383 . S
C867 C872 1.382 . S
C868 H845 0.950 . S
C868 C867 1.383 . S
C868 C869 1.395 . S
C869 H846 0.950 . S
C869 C868 1.395 . S
C869 C870 1.288 . S
C870 C869 1.288 . S
C870 C871 1.392 . S
C871 H847 0.951 . S
C871 C870 1.392 . S
C871 C872 1.392 . S
C872 H848 0.949 . S
C872 C867 1.382 . S
C872 C871 1.392 . S
C873 C874 1.376 . S
C873 C878 1.386 . S
C873 C879 1.483 . S
C874 H849 0.949 . S
C874 C873 1.376 . S
C874 C875 1.397 . S
C875 H850 0.950 . S
C875 C874 1.397 . S
C875 C876 1.391 . S
C876 C875 1.391 . S
C876 C877 1.405 . S
C877 H851 0.950 . S
C877 C876 1.405 . S
C877 C878 1.367 . S
C878 H852 0.950 . S
C878 C873 1.386 . S
C878 C877 1.367 . S
C879 C873 1.483 . S
C879 C880 1.382 . S
C879 C881 1.403 . S
C880 H853 0.950 . S
C880 C866 1.411 . S
C880 C879 1.382 . S
C881 C865 1.411 . S
C881 C879 1.403 . S
C881 C882 1.489 . S
C882 C881 1.489 . S
C882 C883 1.383 . S
C882 C887 1.382 . S
C883 H854 0.950 . S
C883 C882 1.383 . S
C883 C884 1.395 . S
C884 H855 0.950 . S
C884 C883 1.395 . S
C884 C885 1.288 . S
C885 C884 1.288 . S
C885 C886 1.392 . S
C886 H856 0.951 . S
C886 C885 1.392 . S
C886 C887 1.392 . S
C887 H857 0.949 . S
C887 C882 1.382 . S
C887 C886 1.392 . S
H888 C907 0.949 . S
H889 C908 0.950 . S
H890 C910 0.950 . S
H891 C911 0.950 . S
H892 C913 0.950 . S
H893 C916 0.950 . S
H894 C917 0.950 . S
H895 C919 0.951 . S
H896 C920 0.949 . S
H897 C922 0.949 . S
H898 C923 0.950 . S
H899 C925 0.950 . S
H900 C926 0.950 . S
H901 C928 0.950 . S
H902 C931 0.950 . S
H903 C932 0.950 . S
H904 C934 0.951 . S
H905 C935 0.949 . S
C906 C907 1.376 . S
C906 C911 1.386 . S
C906 C912 1.483 . S
C907 H888 0.949 . S
C907 C906 1.376 . S
C907 C908 1.397 . S
C908 H889 0.950 . S
C908 C907 1.397 . S
C908 C909 1.391 . S
C909 C908 1.391 . S
C909 C910 1.405 . S
C910 H890 0.950 . S
C910 C909 1.405 . S
C910 C911 1.367 . S
C911 H891 0.950 . S
C911 C906 1.386 . S
C911 C910 1.367 . S
C912 C906 1.483 . S
C912 C913 1.382 . S
C912 C914 1.403 . S
C913 H892 0.950 . S
C913 C912 1.382 . S
C913 C929 1.411 . S
C914 C912 1.403 . S
C914 C915 1.489 . S
C914 C928 1.411 . S
C915 C914 1.489 . S
C915 C916 1.383 . S
C915 C920 1.382 . S
C916 H893 0.950 . S
C916 C915 1.383 . S
C916 C917 1.395 . S
C917 H894 0.950 . S
C917 C916 1.395 . S
C917 C918 1.288 . S
C918 C917 1.288 . S
C918 C919 1.392 . S
C919 H895 0.951 . S
C919 C918 1.392 . S
C919 C920 1.392 . S
C920 H896 0.949 . S
C920 C915 1.382 . S
C920 C919 1.392 . S
C921 C922 1.376 . S
C921 C926 1.386 . S
C921 C927 1.483 . S
C922 H897 0.949 . S
C922 C921 1.376 . S
C922 C923 1.397 . S
C923 H898 0.950 . S
C923 C922 1.397 . S
C923 C924 1.391 . S
C924 C923 1.391 . S
C924 C925 1.405 . S
C925 H899 0.950 . S
C925 C924 1.405 . S
C925 C926 1.367 . S
C926 H900 0.950 . S
C926 C921 1.386 . S
C926 C925 1.367 . S
C927 C921 1.483 . S
C927 C928 1.382 . S
C927 C929 1.403 . S
C928 H901 0.950 . S
C928 C914 1.411 . S
C928 C927 1.382 . S
C929 C913 1.411 . S
C929 C927 1.403 . S
C929 C930 1.489 . S
C930 C929 1.489 . S
C930 C931 1.383 . S
C930 C935 1.382 . S
C931 H902 0.950 . S
C931 C930 1.383 . S
C931 C932 1.395 . S
C932 H903 0.950 . S
C932 C931 1.395 . S
C932 C933 1.288 . S
C933 C932 1.288 . S
C933 C934 1.392 . S
C934 H904 0.951 . S
C934 C933 1.392 . S
C934 C935 1.392 . S
C935 H905 0.949 . S
C935 C930 1.382 . S
C935 C934 1.392 . S
H936 C955 0.949 . S
H937 C956 0.950 . S
H938 C958 0.950 . S
H939 C959 0.950 . S
H940 C961 0.950 . S
H941 C964 0.950 . S
H942 C965 0.950 . S
H943 C967 0.951 . S
H944 C968 0.949 . S
H945 C970 0.949 . S
H946 C971 0.950 . S
H947 C973 0.950 . S
H948 C974 0.950 . S
H949 C976 0.950 . S
H950 C979 0.950 . S
H951 C980 0.950 . S
H952 C982 0.951 . S
H953 C983 0.949 . S
C954 C955 1.376 . S
C954 C959 1.386 . S
C954 C960 1.483 . S
C955 H936 0.949 . S
C955 C954 1.376 . S
C955 C956 1.397 . S
C956 H937 0.950 . S
C956 C955 1.397 . S
C956 C957 1.391 . S
C957 C956 1.391 . S
C957 C958 1.405 . S
C958 H938 0.950 . S
C958 C957 1.405 . S
C958 C959 1.367 . S
C959 H939 0.950 . S
C959 C954 1.386 . S
C959 C958 1.367 . S
C960 C954 1.483 . S
C960 C961 1.382 . S
C960 C962 1.403 . S
C961 H940 0.950 . S
C961 C960 1.382 . S
C961 C977 1.411 . S
C962 C960 1.403 . S
C962 C963 1.489 . S
C962 C976 1.411 . S
C963 C962 1.489 . S
C963 C964 1.383 . S
C963 C968 1.382 . S
C964 H941 0.950 . S
C964 C963 1.383 . S
C964 C965 1.395 . S
C965 H942 0.950 . S
C965 C964 1.395 . S
C965 C966 1.288 . S
C966 C965 1.288 . S
C966 C967 1.392 . S
C967 H943 0.951 . S
C967 C966 1.392 . S
C967 C968 1.392 . S
C968 H944 0.949 . S
C968 C963 1.382 . S
C968 C967 1.392 . S
C969 C970 1.376 . S
C969 C974 1.386 . S
C969 C975 1.483 . S
C970 H945 0.949 . S
C970 C969 1.376 . S
C970 C971 1.397 . S
C971 H946 0.950 . S
C971 C970 1.397 . S
C971 C972 1.391 . S
C972 C971 1.391 . S
C972 C973 1.405 . S
C973 H947 0.950 . S
C973 C972 1.405 . S
C973 C974 1.367 . S
C974 H948 0.950 . S
C974 C969 1.386 . S
C974 C973 1.367 . S
C975 C969 1.483 . S
C975 C976 1.382 . S
C975 C977 1.403 . S
C976 H949 0.950 . S
C976 C962 1.411 . S
C976 C975 1.382 . S
C977 C961 1.411 . S
C977 C975 1.403 . S
C977 C978 1.489 . S
C978 C977 1.489 . S
C978 C979 1.383 . S
C978 C983 1.382 . S
C979 H950 0.950 . S
C979 C978 1.383 . S
C979 C980 1.395 . S
C980 H951 0.950 . S
C980 C979 1.395 . S
C980 C981 1.288 . S
C981 C980 1.288 . S
C981 C982 1.392 . S
C982 H952 0.951 . S
C982 C981 1.392 . S
C982 C983 1.392 . S
C983 H953 0.949 . S
C983 C978 1.382 . S
C983 C982 1.392 . S
H984 C1003 0.949 . S
H985 C1004 0.950 . S
H986 C1006 0.950 . S
H987 C1007 0.950 . S
H988 C1009 0.950 . S
H989 C1012 0.950 . S
H990 C1013 0.950 . S
H991 C1015 0.951 . S
H992 C1016 0.949 . S
H993 C1018 0.949 . S
H994 C1019 0.950 . S
H995 C1021 0.950 . S
H996 C1022 0.950 . S
H997 C1024 0.950 . S
H998 C1027 0.950 . S
H999 C1028 0.950 . S
H1000 C1030 0.951 . S
H1001 C1031 0.949 . S
C1002 C1003 1.376 . S
C1002 C1007 1.386 . S
C1002 C1008 1.483 . S
C1003 H984 0.949 . S
C1003 C1002 1.376 . S
C1003 C1004 1.397 . S
C1004 H985 0.950 . S
C1004 C1003 1.397 . S
C1004 C1005 1.391 . S
C1005 C1004 1.391 . S
C1005 C1006 1.405 . S
C1006 H986 0.950 . S
C1006 C1005 1.405 . S
C1006 C1007 1.367 . S
C1007 H987 0.950 . S
C1007 C1002 1.386 . S
C1007 C1006 1.367 . S
C1008 C1002 1.483 . S
C1008 C1009 1.382 . S
C1008 C1010 1.403 . S
C1009 H988 0.950 . S
C1009 C1008 1.382 . S
C1009 C1025 1.411 . S
C1010 C1008 1.403 . S
C1010 C1011 1.489 . S
C1010 C1024 1.411 . S
C1011 C1010 1.489 . S
C1011 C1012 1.383 . S
C1011 C1016 1.382 . S
C1012 H989 0.950 . S
C1012 C1011 1.383 . S
C1012 C1013 1.395 . S
C1013 H990 0.950 . S
C1013 C1012 1.395 . S
C1013 C1014 1.288 . S
C1014 C1013 1.288 . S
C1014 C1015 1.392 . S
C1015 H991 0.951 . S
C1015 C1014 1.392 . S
C1015 C1016 1.392 . S
C1016 H992 0.949 . S
C1016 C1011 1.382 . S
C1016 C1015 1.392 . S
C1017 C1018 1.376 . S
C1017 C1022 1.386 . S
C1017 C1023 1.483 . S
C1018 H993 0.949 . S
C1018 C1017 1.376 . S
C1018 C1019 1.397 . S
C1019 H994 0.950 . S
C1019 C1018 1.397 . S
C1019 C1020 1.391 . S
C1020 C1019 1.391 . S
C1020 C1021 1.405 . S
C1021 H995 0.950 . S
C1021 C1020 1.405 . S
C1021 C1022 1.367 . S
C1022 H996 0.950 . S
C1022 C1017 1.386 . S
C1022 C1021 1.367 . S
C1023 C1017 1.483 . S
C1023 C1024 1.382 . S
C1023 C1025 1.403 . S
C1024 H997 0.950 . S
C1024 C1010 1.411 . S
C1024 C1023 1.382 . S
C1025 C1009 1.411 . S
C1025 C1023 1.403 . S
C1025 C1026 1.489 . S
C1026 C1025 1.489 . S
C1026 C1027 1.383 . S
C1026 C1031 1.382 . S
C1027 H998 0.950 . S
C1027 C1026 1.383 . S
C1027 C1028 1.395 . S
C1028 H999 0.950 . S
C1028 C1027 1.395 . S
C1028 C1029 1.288 . S
C1029 C1028 1.288 . S
C1029 C1030 1.392 . S
C1030 H1000 0.951 . S
C1030 C1029 1.392 . S
C1030 C1031 1.392 . S
C1031 H1001 0.949 . S
C1031 C1026 1.382 . S
C1031 C1030 1.392 . S
H1032 C1051 0.949 . S
H1033 C1052 0.950 . S
H1034 C1054 0.950 . S
H1035 C1055 0.950 . S
H1036 C1057 0.950 . S
H1037 C1060 0.950 . S
H1038 C1061 0.950 . S
H1039 C1063 0.951 . S
H1040 C1064 0.949 . S
H1041 C1066 0.949 . S
H1042 C1067 0.950 . S
H1043 C1069 0.950 . S
H1044 C1070 0.950 . S
H1045 C1072 0.950 . S
H1046 C1075 0.950 . S
H1047 C1076 0.950 . S
H1048 C1078 0.951 . S
H1049 C1079 0.949 . S
C1050 C1051 1.376 . S
C1050 C1055 1.386 . S
C1050 C1056 1.483 . S
C1051 H1032 0.949 . S
C1051 C1050 1.376 . S
C1051 C1052 1.397 . S
C1052 H1033 0.950 . S
C1052 C1051 1.397 . S
C1052 C1053 1.391 . S
C1053 C1052 1.391 . S
C1053 C1054 1.405 . S
C1054 H1034 0.950 . S
C1054 C1053 1.405 . S
C1054 C1055 1.367 . S
C1055 H1035 0.950 . S
C1055 C1050 1.386 . S
C1055 C1054 1.367 . S
C1056 C1050 1.483 . S
C1056 C1057 1.382 . S
C1056 C1058 1.403 . S
C1057 H1036 0.950 . S
C1057 C1056 1.382 . S
C1057 C1073 1.411 . S
C1058 C1056 1.403 . S
C1058 C1059 1.489 . S
C1058 C1072 1.411 . S
C1059 C1058 1.489 . S
C1059 C1060 1.383 . S
C1059 C1064 1.382 . S
C1060 H1037 0.950 . S
C1060 C1059 1.383 . S
C1060 C1061 1.395 . S
C1061 H1038 0.950 . S
C1061 C1060 1.395 . S
C1061 C1062 1.288 . S
C1062 C1061 1.288 . S
C1062 C1063 1.392 . S
C1063 H1039 0.951 . S
C1063 C1062 1.392 . S
C1063 C1064 1.392 . S
C1064 H1040 0.949 . S
C1064 C1059 1.382 . S
C1064 C1063 1.392 . S
C1065 C1066 1.376 . S
C1065 C1070 1.386 . S
C1065 C1071 1.483 . S
C1066 H1041 0.949 . S
C1066 C1065 1.376 . S
C1066 C1067 1.397 . S
C1067 H1042 0.950 . S
C1067 C1066 1.397 . S
C1067 C1068 1.391 . S
C1068 C1067 1.391 . S
C1068 C1069 1.405 . S
C1069 H1043 0.950 . S
C1069 C1068 1.405 . S
C1069 C1070 1.367 . S
C1070 H1044 0.950 . S
C1070 C1065 1.386 . S
C1070 C1069 1.367 . S
C1071 C1065 1.483 . S
C1071 C1072 1.382 . S
C1071 C1073 1.403 . S
C1072 H1045 0.950 . S
C1072 C1058 1.411 . S
C1072 C1071 1.382 . S
C1073 C1057 1.411 . S
C1073 C1071 1.403 . S
C1073 C1074 1.489 . S
C1074 C1073 1.489 . S
C1074 C1075 1.383 . S
C1074 C1079 1.382 . S
C1075 H1046 0.950 . S
C1075 C1074 1.383 . S
C1075 C1076 1.395 . S
C1076 H1047 0.950 . S
C1076 C1075 1.395 . S
C1076 C1077 1.288 . S
C1077 C1076 1.288 . S
C1077 C1078 1.392 . S
C1078 H1048 0.951 . S
C1078 C1077 1.392 . S
C1078 C1079 1.392 . S
C1079 H1049 0.949 . S
C1079 C1074 1.382 . S
C1079 C1078 1.392 . S
H1080 C1099 0.949 . S
H1081 C1100 0.950 . S
H1082 C1102 0.950 . S
H1083 C1103 0.950 . S
H1084 C1105 0.950 . S
H1085 C1108 0.950 . S
H1086 C1109 0.950 . S
H1087 C1111 0.951 . S
H1088 C1112 0.949 . S
H1089 C1114 0.949 . S
H1090 C1115 0.950 . S
H1091 C1117 0.950 . S
H1092 C1118 0.950 . S
H1093 C1120 0.950 . S
H1094 C1123 0.950 . S
H1095 C1124 0.950 . S
H1096 C1126 0.951 . S
H1097 C1127 0.949 . S
C1098 C1099 1.376 . S
C1098 C1103 1.386 1_655 S
C1098 C1104 1.483 . S
C1099 H1080 0.949 . S
C1099 C1098 1.376 . S
C1099 C1100 1.397 . S
C1100 H1081 0.950 . S
C1100 C1099 1.397 . S
C1100 C1101 1.391 . S
C1101 C1100 1.391 . S
C1101 C1102 1.405 1_655 S
C1102 H1082 0.950 . S
C1102 C1101 1.405 1_455 S
C1102 C1103 1.367 . S
C1103 H1083 0.950 . S
C1103 C1098 1.386 1_455 S
C1103 C1102 1.367 . S
C1104 C1098 1.483 . S
C1104 C1105 1.382 . S
C1104 C1106 1.403 1_655 S
C1105 H1084 0.950 . S
C1105 C1104 1.382 . S
C1105 C1121 1.411 . S
C1106 C1104 1.403 1_455 S
C1106 C1107 1.489 . S
C1106 C1120 1.411 . S
C1107 C1106 1.489 . S
C1107 C1108 1.383 1_455 S
C1107 C1112 1.382 . S
C1108 H1085 0.950 . S
C1108 C1107 1.383 1_655 S
C1108 C1109 1.395 . S
C1109 H1086 0.950 . S
C1109 C1108 1.395 . S
C1109 C1110 1.288 1_655 S
C1110 C1109 1.288 1_455 S
C1110 C1111 1.392 . S
C1111 H1087 0.951 . S
C1111 C1110 1.392 . S
C1111 C1112 1.392 . S
C1112 H1088 0.949 . S
C1112 C1107 1.382 . S
C1112 C1111 1.392 . S
C1113 C1114 1.376 . S
C1113 C1118 1.386 1_455 S
C1113 C1119 1.483 . S
C1114 H1089 0.949 . S
C1114 C1113 1.376 . S
C1114 C1115 1.397 . S
C1115 H1090 0.950 . S
C1115 C1114 1.397 . S
C1115 C1116 1.391 . S
C1116 C1115 1.391 . S
C1116 C1117 1.405 1_455 S
C1117 H1091 0.950 . S
C1117 C1116 1.405 1_655 S
C1117 C1118 1.367 . S
C1118 H1092 0.950 . S
C1118 C1113 1.386 1_655 S
C1118 C1117 1.367 . S
C1119 C1113 1.483 . S
C1119 C1120 1.382 . S
C1119 C1121 1.403 1_455 S
C1120 H1093 0.950 . S
C1120 C1106 1.411 . S
C1120 C1119 1.382 . S
C1121 C1105 1.411 . S
C1121 C1119 1.403 1_655 S
C1121 C1122 1.489 . S
C1122 C1121 1.489 . S
C1122 C1123 1.383 1_655 S
C1122 C1127 1.382 . S
C1123 H1094 0.950 . S
C1123 C1122 1.383 1_455 S
C1123 C1124 1.395 . S
C1124 H1095 0.950 . S
C1124 C1123 1.395 . S
C1124 C1125 1.288 1_455 S
C1125 C1124 1.288 1_655 S
C1125 C1126 1.392 . S
C1126 H1096 0.951 . S
C1126 C1125 1.392 . S
C1126 C1127 1.392 . S
C1127 H1097 0.949 . S
C1127 C1122 1.382 . S
C1127 C1126 1.392 . S
H1128 C1147 0.949 . S
H1129 C1148 0.950 . S
H1130 C1150 0.950 . S
H1131 C1151 0.950 . S
H1132 C1153 0.950 . S
H1133 C1156 0.950 . S
H1134 C1157 0.950 . S
H1135 C1159 0.951 . S
H1136 C1160 0.949 . S
H1137 C1162 0.949 . S
H1138 C1163 0.950 . S
H1139 C1165 0.950 . S
H1140 C1166 0.950 . S
H1141 C1168 0.950 . S
H1142 C1171 0.950 . S
H1143 C1172 0.950 . S
H1144 C1174 0.951 . S
H1145 C1175 0.949 . S
C1146 C1147 1.376 . S
C1146 C1151 1.386 . S
C1146 C1152 1.483 . S
C1147 H1128 0.949 . S
C1147 C1146 1.376 . S
C1147 C1148 1.397 . S
C1148 H1129 0.950 . S
C1148 C1147 1.397 . S
C1148 C1149 1.391 . S
C1149 C1148 1.391 . S
C1149 C1150 1.405 . S
C1150 H1130 0.950 . S
C1150 C1149 1.405 . S
C1150 C1151 1.367 . S
C1151 H1131 0.950 . S
C1151 C1146 1.386 . S
C1151 C1150 1.367 . S
C1152 C1146 1.483 . S
C1152 C1153 1.382 . S
C1152 C1154 1.403 . S
C1153 H1132 0.950 . S
C1153 C1152 1.382 . S
C1153 C1169 1.411 . S
C1154 C1152 1.403 . S
C1154 C1155 1.489 . S
C1154 C1168 1.411 . S
C1155 C1154 1.489 . S
C1155 C1156 1.383 . S
C1155 C1160 1.382 . S
C1156 H1133 0.950 . S
C1156 C1155 1.383 . S
C1156 C1157 1.395 . S
C1157 H1134 0.950 . S
C1157 C1156 1.395 . S
C1157 C1158 1.288 . S
C1158 C1157 1.288 . S
C1158 C1159 1.392 . S
C1159 H1135 0.951 . S
C1159 C1158 1.392 . S
C1159 C1160 1.392 . S
C1160 H1136 0.949 . S
C1160 C1155 1.382 . S
C1160 C1159 1.392 . S
C1161 C1162 1.376 . S
C1161 C1166 1.386 . S
C1161 C1167 1.483 . S
C1162 H1137 0.949 . S
C1162 C1161 1.376 . S
C1162 C1163 1.397 . S
C1163 H1138 0.950 . S
C1163 C1162 1.397 . S
C1163 C1164 1.391 . S
C1164 C1163 1.391 . S
C1164 C1165 1.405 . S
C1165 H1139 0.950 . S
C1165 C1164 1.405 . S
C1165 C1166 1.367 . S
C1166 H1140 0.950 . S
C1166 C1161 1.386 . S
C1166 C1165 1.367 . S
C1167 C1161 1.483 . S
C1167 C1168 1.382 . S
C1167 C1169 1.403 . S
C1168 H1141 0.950 . S
C1168 C1154 1.411 . S
C1168 C1167 1.382 . S
C1169 C1153 1.411 . S
C1169 C1167 1.403 . S
C1169 C1170 1.489 . S
C1170 C1169 1.489 . S
C1170 C1171 1.383 . S
C1170 C1175 1.382 . S
C1171 H1142 0.950 . S
C1171 C1170 1.383 . S
C1171 C1172 1.395 . S
C1172 H1143 0.950 . S
C1172 C1171 1.395 . S
C1172 C1173 1.288 . S
C1173 C1172 1.288 . S
C1173 C1174 1.392 . S
C1174 H1144 0.951 . S
C1174 C1173 1.392 . S
C1174 C1175 1.392 . S
C1175 H1145 0.949 . S
C1175 C1170 1.382 . S
C1175 C1174 1.392 . S
H1176 C1195 0.949 . S
H1177 C1196 0.950 . S
H1178 C1198 0.950 . S
H1179 C1199 0.950 . S
H1180 C1201 0.950 . S
H1181 C1204 0.950 . S
H1182 C1205 0.950 . S
H1183 C1207 0.951 . S
H1184 C1208 0.949 . S
H1185 C1210 0.949 . S
H1186 C1211 0.950 . S
H1187 C1213 0.950 . S
H1188 C1214 0.950 . S
H1189 C1216 0.950 . S
H1190 C1219 0.950 . S
H1191 C1220 0.950 . S
H1192 C1222 0.951 . S
H1193 C1223 0.949 . S
C1194 C1195 1.376 . S
C1194 C1199 1.386 1_545 S
C1194 C1200 1.483 . S
C1195 H1176 0.949 . S
C1195 C1194 1.376 . S
C1195 C1196 1.397 . S
C1196 H1177 0.950 . S
C1196 C1195 1.397 . S
C1196 C1197 1.391 . S
C1197 C1196 1.391 . S
C1197 C1198 1.405 1_545 S
C1198 H1178 0.950 . S
C1198 C1197 1.405 1_565 S
C1198 C1199 1.367 . S
C1199 H1179 0.950 . S
C1199 C1194 1.386 1_565 S
C1199 C1198 1.367 . S
C1200 C1194 1.483 . S
C1200 C1201 1.382 . S
C1200 C1202 1.403 1_545 S
C1201 H1180 0.950 . S
C1201 C1200 1.382 . S
C1201 C1217 1.411 . S
C1202 C1200 1.403 1_565 S
C1202 C1203 1.489 . S
C1202 C1216 1.411 . S
C1203 C1202 1.489 . S
C1203 C1204 1.383 1_565 S
C1203 C1208 1.382 . S
C1204 H1181 0.950 . S
C1204 C1203 1.383 1_545 S
C1204 C1205 1.395 . S
C1205 H1182 0.950 . S
C1205 C1204 1.395 . S
C1205 C1206 1.288 1_545 S
C1206 C1205 1.288 1_565 S
C1206 C1207 1.392 . S
C1207 H1183 0.951 . S
C1207 C1206 1.392 . S
C1207 C1208 1.392 . S
C1208 H1184 0.949 . S
C1208 C1203 1.382 . S
C1208 C1207 1.392 . S
C1209 C1210 1.376 . S
C1209 C1214 1.386 1_565 S
C1209 C1215 1.483 . S
C1210 H1185 0.949 . S
C1210 C1209 1.376 . S
C1210 C1211 1.397 . S
C1211 H1186 0.950 . S
C1211 C1210 1.397 . S
C1211 C1212 1.391 . S
C1212 C1211 1.391 . S
C1212 C1213 1.405 1_565 S
C1213 H1187 0.950 . S
C1213 C1212 1.405 1_545 S
C1213 C1214 1.367 . S
C1214 H1188 0.950 . S
C1214 C1209 1.386 1_545 S
C1214 C1213 1.367 . S
C1215 C1209 1.483 . S
C1215 C1216 1.382 . S
C1215 C1217 1.403 1_565 S
C1216 H1189 0.950 . S
C1216 C1202 1.411 . S
C1216 C1215 1.382 . S
C1217 C1201 1.411 . S
C1217 C1215 1.403 1_545 S
C1217 C1218 1.489 . S
C1218 C1217 1.489 . S
C1218 C1219 1.383 1_545 S
C1218 C1223 1.382 . S
C1219 H1190 0.950 . S
C1219 C1218 1.383 1_565 S
C1219 C1220 1.395 . S
C1220 H1191 0.950 . S
C1220 C1219 1.395 . S
C1220 C1221 1.288 1_565 S
C1221 C1220 1.288 1_545 S
C1221 C1222 1.392 . S
C1222 H1192 0.951 . S
C1222 C1221 1.392 . S
C1222 C1223 1.392 . S
C1223 H1193 0.949 . S
C1223 C1218 1.382 . S
C1223 C1222 1.392 . S
H1224 C1243 0.949 . S
H1225 C1244 0.950 . S
H1226 C1246 0.950 . S
H1227 C1247 0.950 . S
H1228 C1249 0.950 . S
H1229 C1252 0.950 . S
H1230 C1253 0.950 . S
H1231 C1255 0.951 . S
H1232 C1256 0.949 . S
H1233 C1258 0.949 . S
H1234 C1259 0.950 . S
H1235 C1261 0.950 . S
H1236 C1262 0.950 . S
H1237 C1264 0.950 . S
H1238 C1267 0.950 . S
H1239 C1268 0.950 . S
H1240 C1270 0.951 . S
H1241 C1271 0.949 . S
C1242 C1243 1.381 . S
C1242 C1247 1.384 1_545 S
C1242 C1248 1.505 . S
C1243 H1224 0.949 . S
C1243 C1242 1.381 . S
C1243 C1244 1.397 . S
C1244 H1225 0.950 . S
C1244 C1243 1.397 . S
C1244 C1245 1.391 1_545 S
C1245 C1244 1.391 1_565 S
C1245 C1246 1.405 . S
C1246 H1226 0.950 . S
C1246 C1245 1.405 . S
C1246 C1247 1.367 . S
C1247 H1227 0.950 . S
C1247 C1242 1.384 1_565 S
C1247 C1246 1.367 . S
C1248 C1242 1.505 . S
C1248 C1249 1.360 . S
C1248 C1250 1.398 1_545 S
C1249 H1228 0.950 . S
C1249 C1248 1.360 . S
C1249 C1265 1.411 . S
C1250 C1248 1.398 1_565 S
C1250 C1251 1.485 . S
C1250 C1264 1.438 . S
C1251 C1250 1.485 . S
C1251 C1252 1.342 1_565 S
C1251 C1256 1.405 . S
C1252 H1229 0.950 . S
C1252 C1251 1.342 1_545 S
C1252 C1253 1.395 . S
C1253 H1230 0.950 . S
C1253 C1252 1.395 . S
C1253 C1254 1.288 . S
C1254 C1253 1.288 . S
C1254 C1255 1.392 1_545 S
C1255 H1231 0.951 . S
C1255 C1254 1.392 1_565 S
C1255 C1256 1.392 . S
C1256 H1232 0.949 . S
C1256 C1251 1.405 . S
C1256 C1255 1.392 . S
C1257 C1258 1.381 1_545 S
C1257 C1262 1.384 . S
C1257 C1263 1.499 1_545 S
C1258 H1233 0.949 . S
C1258 C1257 1.381 1_565 S
C1258 C1259 1.397 . S
C1259 H1234 0.950 . S
C1259 C1258 1.397 . S
C1259 C1260 1.391 1_565 S
C1260 C1259 1.391 1_545 S
C1260 C1261 1.405 . S
C1261 H1235 0.950 . S
C1261 C1260 1.405 . S
C1261 C1262 1.367 . S
C1262 H1236 0.950 . S
C1262 C1257 1.384 . S
C1262 C1261 1.367 . S
C1263 C1257 1.499 1_565 S
C1263 C1264 1.365 . S
C1263 C1265 1.400 1_565 S
C1264 H1237 0.950 . S
C1264 C1250 1.438 . S
C1264 C1263 1.365 . S
C1265 C1249 1.411 . S
C1265 C1263 1.400 1_545 S
C1265 C1266 1.513 . S
C1266 C1265 1.513 . S
C1266 C1267 1.328 1_545 S
C1266 C1271 1.412 . S
C1267 H1238 0.950 . S
C1267 C1266 1.328 1_565 S
C1267 C1268 1.395 . S
C1268 H1239 0.950 . S
C1268 C1267 1.395 . S
C1268 C1269 1.288 . S
C1269 C1268 1.288 . S
C1269 C1270 1.392 1_565 S
C1270 H1240 0.951 . S
C1270 C1269 1.392 1_545 S
C1270 C1271 1.392 . S
C1271 H1241 0.949 . S
C1271 C1266 1.412 . S
C1271 C1270 1.392 . S
H1272 C1291 0.949 . S
H1273 C1292 0.950 . S
H1274 C1294 0.950 . S
H1275 C1295 0.950 . S
H1276 C1297 0.950 . S
H1277 C1300 0.950 . S
H1278 C1301 0.950 . S
H1279 C1303 0.951 . S
H1280 C1304 0.949 . S
H1281 C1306 0.949 . S
H1282 C1307 0.950 . S
H1283 C1309 0.950 . S
H1284 C1310 0.950 . S
H1285 C1312 0.950 . S
H1286 C1315 0.950 . S
H1287 C1316 0.950 . S
H1288 C1318 0.951 . S
H1289 C1319 0.949 . S
C1290 C1291 1.376 . S
C1290 C1295 1.386 1_455 S
C1290 C1296 1.483 . S
C1291 H1272 0.949 . S
C1291 C1290 1.376 . S
C1291 C1292 1.397 . S
C1292 H1273 0.950 . S
C1292 C1291 1.397 . S
C1292 C1293 1.391 . S
C1293 C1292 1.391 . S
C1293 C1294 1.405 1_455 S
C1294 H1274 0.950 . S
C1294 C1293 1.405 1_655 S
C1294 C1295 1.367 . S
C1295 H1275 0.950 . S
C1295 C1290 1.386 1_655 S
C1295 C1294 1.367 . S
C1296 C1290 1.483 . S
C1296 C1297 1.382 . S
C1296 C1298 1.403 1_455 S
C1297 H1276 0.950 . S
C1297 C1296 1.382 . S
C1297 C1313 1.411 . S
C1298 C1296 1.403 1_655 S
C1298 C1299 1.489 . S
C1298 C1312 1.411 . S
C1299 C1298 1.489 . S
C1299 C1300 1.383 1_655 S
C1299 C1304 1.382 . S
C1300 H1277 0.950 . S
C1300 C1299 1.383 1_455 S
C1300 C1301 1.395 . S
C1301 H1278 0.950 . S
C1301 C1300 1.395 . S
C1301 C1302 1.288 1_455 S
C1302 C1301 1.288 1_655 S
C1302 C1303 1.392 . S
C1303 H1279 0.951 . S
C1303 C1302 1.392 . S
C1303 C1304 1.392 . S
C1304 H1280 0.949 . S
C1304 C1299 1.382 . S
C1304 C1303 1.392 . S
C1305 C1306 1.376 . S
C1305 C1310 1.386 1_655 S
C1305 C1311 1.483 . S
C1306 H1281 0.949 . S
C1306 C1305 1.376 . S
C1306 C1307 1.397 . S
C1307 H1282 0.950 . S
C1307 C1306 1.397 . S
C1307 C1308 1.391 . S
C1308 C1307 1.391 . S
C1308 C1309 1.405 1_655 S
C1309 H1283 0.950 . S
C1309 C1308 1.405 1_455 S
C1309 C1310 1.367 . S
C1310 H1284 0.950 . S
C1310 C1305 1.386 1_455 S
C1310 C1309 1.367 . S
C1311 C1305 1.483 . S
C1311 C1312 1.382 . S
C1311 C1313 1.403 1_655 S
C1312 H1285 0.950 . S
C1312 C1298 1.411 . S
C1312 C1311 1.382 . S
C1313 C1297 1.411 . S
C1313 C1311 1.403 1_455 S
C1313 C1314 1.489 . S
C1314 C1313 1.489 . S
C1314 C1315 1.383 1_455 S
C1314 C1319 1.382 . S
C1315 H1286 0.950 . S
C1315 C1314 1.383 1_655 S
C1315 C1316 1.395 . S
C1316 H1287 0.950 . S
C1316 C1315 1.395 . S
C1316 C1317 1.288 1_655 S
C1317 C1316 1.288 1_455 S
C1317 C1318 1.392 . S
C1318 H1288 0.951 . S
C1318 C1317 1.392 . S
C1318 C1319 1.392 . S
C1319 H1289 0.949 . S
C1319 C1314 1.382 . S
C1319 C1318 1.392 . S
H1320 C1339 0.949 . S
H1321 C1340 0.950 . S
H1322 C1342 0.950 . S
H1323 C1343 0.950 . S
H1324 C1345 0.950 . S
H1325 C1348 0.950 . S
H1326 C1349 0.950 . S
H1327 C1351 0.951 . S
H1328 C1352 0.949 . S
H1329 C1354 0.949 . S
H1330 C1355 0.950 . S
H1331 C1357 0.950 . S
H1332 C1358 0.950 . S
H1333 C1360 0.950 . S
H1334 C1363 0.950 . S
H1335 C1364 0.950 . S
H1336 C1366 0.951 . S
H1337 C1367 0.949 . S
C1338 C1339 1.376 . S
C1338 C1343 1.386 . S
C1338 C1344 1.483 . S
C1339 H1320 0.949 . S
C1339 C1338 1.376 . S
C1339 C1340 1.397 . S
C1340 H1321 0.950 . S
C1340 C1339 1.397 . S
C1340 C1341 1.391 . S
C1341 C1340 1.391 . S
C1341 C1342 1.405 . S
C1342 H1322 0.950 . S
C1342 C1341 1.405 . S
C1342 C1343 1.367 . S
C1343 H1323 0.950 . S
C1343 C1338 1.386 . S
C1343 C1342 1.367 . S
C1344 C1338 1.483 . S
C1344 C1345 1.382 . S
C1344 C1346 1.403 . S
C1345 H1324 0.950 . S
C1345 C1344 1.382 . S
C1345 C1361 1.411 . S
C1346 C1344 1.403 . S
C1346 C1347 1.489 . S
C1346 C1360 1.411 . S
C1347 C1346 1.489 . S
C1347 C1348 1.383 . S
C1347 C1352 1.382 . S
C1348 H1325 0.950 . S
C1348 C1347 1.383 . S
C1348 C1349 1.395 . S
C1349 H1326 0.950 . S
C1349 C1348 1.395 . S
C1349 C1350 1.288 . S
C1350 C1349 1.288 . S
C1350 C1351 1.392 . S
C1351 H1327 0.951 . S
C1351 C1350 1.392 . S
C1351 C1352 1.392 . S
C1352 H1328 0.949 . S
C1352 C1347 1.382 . S
C1352 C1351 1.392 . S
C1353 C1354 1.376 . S
C1353 C1358 1.386 . S
C1353 C1359 1.483 . S
C1354 H1329 0.949 . S
C1354 C1353 1.376 . S
C1354 C1355 1.397 . S
C1355 H1330 0.950 . S
C1355 C1354 1.397 . S
C1355 C1356 1.391 . S
C1356 C1355 1.391 . S
C1356 C1357 1.405 . S
C1357 H1331 0.950 . S
C1357 C1356 1.405 . S
C1357 C1358 1.367 . S
C1358 H1332 0.950 . S
C1358 C1353 1.386 . S
C1358 C1357 1.367 . S
C1359 C1353 1.483 . S
C1359 C1360 1.382 . S
C1359 C1361 1.403 . S
C1360 H1333 0.950 . S
C1360 C1346 1.411 . S
C1360 C1359 1.382 . S
C1361 C1345 1.411 . S
C1361 C1359 1.403 . S
C1361 C1362 1.489 . S
C1362 C1361 1.489 . S
C1362 C1363 1.383 . S
C1362 C1367 1.382 . S
C1363 H1334 0.950 . S
C1363 C1362 1.383 . S
C1363 C1364 1.395 . S
C1364 H1335 0.950 . S
C1364 C1363 1.395 . S
C1364 C1365 1.288 . S
C1365 C1364 1.288 . S
C1365 C1366 1.392 . S
C1366 H1336 0.951 . S
C1366 C1365 1.392 . S
C1366 C1367 1.392 . S
C1367 H1337 0.949 . S
C1367 C1362 1.382 . S
C1367 C1366 1.392 . S
H1368 C1387 0.949 . S
H1369 C1388 0.950 . S
H1370 C1390 0.950 . S
H1371 C1391 0.950 . S
H1372 C1393 0.950 . S
H1373 C1396 0.950 . S
H1374 C1397 0.950 . S
H1375 C1399 0.951 . S
H1376 C1400 0.949 . S
H1377 C1402 0.949 . S
H1378 C1403 0.950 . S
H1379 C1405 0.950 . S
H1380 C1406 0.950 . S
H1381 C1408 0.950 . S
H1382 C1411 0.950 . S
H1383 C1412 0.950 . S
H1384 C1414 0.951 . S
H1385 C1415 0.949 . S
C1386 C1387 1.376 . S
C1386 C1391 1.386 . S
C1386 C1392 1.483 . S
C1387 H1368 0.949 . S
C1387 C1386 1.376 . S
C1387 C1388 1.397 . S
C1388 H1369 0.950 . S
C1388 C1387 1.397 . S
C1388 C1389 1.391 . S
C1389 C1388 1.391 . S
C1389 C1390 1.405 . S
C1390 H1370 0.950 . S
C1390 C1389 1.405 . S
C1390 C1391 1.367 . S
C1391 H1371 0.950 . S
C1391 C1386 1.386 . S
C1391 C1390 1.367 . S
C1392 C1386 1.483 . S
C1392 C1393 1.382 . S
C1392 C1394 1.403 . S
C1393 H1372 0.950 . S
C1393 C1392 1.382 . S
C1393 C1409 1.411 . S
C1394 C1392 1.403 . S
C1394 C1395 1.489 . S
C1394 C1408 1.411 . S
C1395 C1394 1.489 . S
C1395 C1396 1.383 . S
C1395 C1400 1.382 . S
C1396 H1373 0.950 . S
C1396 C1395 1.383 . S
C1396 C1397 1.395 . S
C1397 H1374 0.950 . S
C1397 C1396 1.395 . S
C1397 C1398 1.288 . S
C1398 C1397 1.288 . S
C1398 C1399 1.392 . S
C1399 H1375 0.951 . S
C1399 C1398 1.392 . S
C1399 C1400 1.392 . S
C1400 H1376 0.949 . S
C1400 C1395 1.382 . S
C1400 C1399 1.392 . S
C1401 C1402 1.376 . S
C1401 C1406 1.386 . S
C1401 C1407 1.483 . S
C1402 H1377 0.949 . S
C1402 C1401 1.376 . S
C1402 C1403 1.397 . S
C1403 H1378 0.950 . S
C1403 C1402 1.397 . S
C1403 C1404 1.391 . S
C1404 C1403 1.391 . S
C1404 C1405 1.405 . S
C1405 H1379 0.950 . S
C1405 C1404 1.405 . S
C1405 C1406 1.367 . S
C1406 H1380 0.950 . S
C1406 C1401 1.386 . S
C1406 C1405 1.367 . S
C1407 C1401 1.483 . S
C1407 C1408 1.382 . S
C1407 C1409 1.403 . S
C1408 H1381 0.950 . S
C1408 C1394 1.411 . S
C1408 C1407 1.382 . S
C1409 C1393 1.411 . S
C1409 C1407 1.403 . S
C1409 C1410 1.489 . S
C1410 C1409 1.489 . S
C1410 C1411 1.383 . S
C1410 C1415 1.382 . S
C1411 H1382 0.950 . S
C1411 C1410 1.383 . S
C1411 C1412 1.395 . S
C1412 H1383 0.950 . S
C1412 C1411 1.395 . S
C1412 C1413 1.288 . S
C1413 C1412 1.288 . S
C1413 C1414 1.392 . S
C1414 H1384 0.951 . S
C1414 C1413 1.392 . S
C1414 C1415 1.392 . S
C1415 H1385 0.949 . S
C1415 C1410 1.382 . S
C1415 C1414 1.392 . S
H1416 C1435 0.949 . S
H1417 C1436 0.950 . S
H1418 C1438 0.950 . S
H1419 C1439 0.950 . S
H1420 C1441 0.950 . S
H1421 C1444 0.950 . S
H1422 C1445 0.950 . S
H1423 C1447 0.951 . S
H1424 C1448 0.949 . S
H1425 C1450 0.949 . S
H1426 C1451 0.950 . S
H1427 C1453 0.950 . S
H1428 C1454 0.950 . S
H1429 C1456 0.950 . S
H1430 C1459 0.950 . S
H1431 C1460 0.950 . S
H1432 C1462 0.951 . S
H1433 C1463 0.949 . S
C1434 C1435 1.376 . S
C1434 C1439 1.386 . S
C1434 C1440 1.483 . S
C1435 H1416 0.949 . S
C1435 C1434 1.376 . S
C1435 C1436 1.397 . S
C1436 H1417 0.950 . S
C1436 C1435 1.397 . S
C1436 C1437 1.391 . S
C1437 C1436 1.391 . S
C1437 C1438 1.405 . S
C1438 H1418 0.950 . S
C1438 C1437 1.405 . S
C1438 C1439 1.367 . S
C1439 H1419 0.950 . S
C1439 C1434 1.386 . S
C1439 C1438 1.367 . S
C1440 C1434 1.483 . S
C1440 C1441 1.382 . S
C1440 C1442 1.403 . S
C1441 H1420 0.950 . S
C1441 C1440 1.382 . S
C1441 C1457 1.411 . S
C1442 C1440 1.403 . S
C1442 C1443 1.489 . S
C1442 C1456 1.411 . S
C1443 C1442 1.489 . S
C1443 C1444 1.383 . S
C1443 C1448 1.382 . S
C1444 H1421 0.950 . S
C1444 C1443 1.383 . S
C1444 C1445 1.395 . S
C1445 H1422 0.950 . S
C1445 C1444 1.395 . S
C1445 C1446 1.288 . S
C1446 C1445 1.288 . S
C1446 C1447 1.392 . S
C1447 H1423 0.951 . S
C1447 C1446 1.392 . S
C1447 C1448 1.392 . S
C1448 H1424 0.949 . S
C1448 C1443 1.382 . S
C1448 C1447 1.392 . S
C1449 C1450 1.376 . S
C1449 C1454 1.386 . S
C1449 C1455 1.483 . S
C1450 H1425 0.949 . S
C1450 C1449 1.376 . S
C1450 C1451 1.397 . S
C1451 H1426 0.950 . S
C1451 C1450 1.397 . S
C1451 C1452 1.391 . S
C1452 C1451 1.391 . S
C1452 C1453 1.405 . S
C1453 H1427 0.950 . S
C1453 C1452 1.405 . S
C1453 C1454 1.367 . S
C1454 H1428 0.950 . S
C1454 C1449 1.386 . S
C1454 C1453 1.367 . S
C1455 C1449 1.483 . S
C1455 C1456 1.382 . S
C1455 C1457 1.403 . S
C1456 H1429 0.950 . S
C1456 C1442 1.411 . S
C1456 C1455 1.382 . S
C1457 C1441 1.411 . S
C1457 C1455 1.403 . S
C1457 C1458 1.489 . S
C1458 C1457 1.489 . S
C1458 C1459 1.383 . S
C1458 C1463 1.382 . S
C1459 H1430 0.950 . S
C1459 C1458 1.383 . S
C1459 C1460 1.395 . S
C1460 H1431 0.950 . S
C1460 C1459 1.395 . S
C1460 C1461 1.288 . S
C1461 C1460 1.288 . S
C1461 C1462 1.392 . S
C1462 H1432 0.951 . S
C1462 C1461 1.392 . S
C1462 C1463 1.392 . S
C1463 H1433 0.949 . S
C1463 C1458 1.382 . S
C1463 C1462 1.392 . S
H1464 C1483 0.949 . S
H1465 C1484 0.950 . S
H1466 C1486 0.950 . S
H1467 C1487 0.950 . S
H1468 C1489 0.950 . S
H1469 C1492 0.950 . S
H1470 C1493 0.950 . S
H1471 C1495 0.951 . S
H1472 C1496 0.949 . S
H1473 C1498 0.949 . S
H1474 C1499 0.950 . S
H1475 C1501 0.950 . S
H1476 C1502 0.950 . S
H1477 C1504 0.950 . S
H1478 C1507 0.950 . S
H1479 C1508 0.950 . S
H1480 C1510 0.951 . S
H1481 C1511 0.949 . S
C1482 C1483 1.376 . S
C1482 C1487 1.386 . S
C1482 C1488 1.483 . S
C1483 H1464 0.949 . S
C1483 C1482 1.376 . S
C1483 C1484 1.397 . S
C1484 H1465 0.950 . S
C1484 C1483 1.397 . S
C1484 C1485 1.391 . S
C1485 C1484 1.391 . S
C1485 C1486 1.405 . S
C1486 H1466 0.950 . S
C1486 C1485 1.405 . S
C1486 C1487 1.367 . S
C1487 H1467 0.950 . S
C1487 C1482 1.386 . S
C1487 C1486 1.367 . S
C1488 C1482 1.483 . S
C1488 C1489 1.382 . S
C1488 C1490 1.403 . S
C1489 H1468 0.950 . S
C1489 C1488 1.382 . S
C1489 C1505 1.411 . S
C1490 C1488 1.403 . S
C1490 C1491 1.489 . S
C1490 C1504 1.411 . S
C1491 C1490 1.489 . S
C1491 C1492 1.383 . S
C1491 C1496 1.382 . S
C1492 H1469 0.950 . S
C1492 C1491 1.383 . S
C1492 C1493 1.395 . S
C1493 H1470 0.950 . S
C1493 C1492 1.395 . S
C1493 C1494 1.288 . S
C1494 C1493 1.288 . S
C1494 C1495 1.392 . S
C1495 H1471 0.951 . S
C1495 C1494 1.392 . S
C1495 C1496 1.392 . S
C1496 H1472 0.949 . S
C1496 C1491 1.382 . S
C1496 C1495 1.392 . S
C1497 C1498 1.376 . S
C1497 C1502 1.386 . S
C1497 C1503 1.483 . S
C1498 H1473 0.949 . S
C1498 C1497 1.376 . S
C1498 C1499 1.397 . S
C1499 H1474 0.950 . S
C1499 C1498 1.397 . S
C1499 C1500 1.391 . S
C1500 C1499 1.391 . S
C1500 C1501 1.405 . S
C1501 H1475 0.950 . S
C1501 C1500 1.405 . S
C1501 C1502 1.367 . S
C1502 H1476 0.950 . S
C1502 C1497 1.386 . S
C1502 C1501 1.367 . S
C1503 C1497 1.483 . S
C1503 C1504 1.382 . S
C1503 C1505 1.403 . S
C1504 H1477 0.950 . S
C1504 C1490 1.411 . S
C1504 C1503 1.382 . S
C1505 C1489 1.411 . S
C1505 C1503 1.403 . S
C1505 C1506 1.489 . S
C1506 C1505 1.489 . S
C1506 C1507 1.383 . S
C1506 C1511 1.382 . S
C1507 H1478 0.950 . S
C1507 C1506 1.383 . S
C1507 C1508 1.395 . S
C1508 H1479 0.950 . S
C1508 C1507 1.395 . S
C1508 C1509 1.288 . S
C1509 C1508 1.288 . S
C1509 C1510 1.392 . S
C1510 H1480 0.951 . S
C1510 C1509 1.392 . S
C1510 C1511 1.392 . S
C1511 H1481 0.949 . S
C1511 C1506 1.382 . S
C1511 C1510 1.392 . S
C1512 C1513 1.363 . S
C1512 C1518 1.379 . S
C1512 N1520 1.356 . S
C1513 C1512 1.363 . S
C1513 C1519 1.363 1_655 S
C1514 C1515 1.363 1_455 S
C1514 C1519 1.379 . S
C1514 N1521 1.356 . S
C1515 C1514 1.363 1_655 S
C1515 C1518 1.363 . S
N1516 C1518 1.356 . S
N1516 H1528 0.984 . S
N1516 H1529 0.985 . S
N1517 C1519 1.356 . S
N1517 H1522 0.984 . S
N1517 H1523 0.985 . S
C1518 C1512 1.379 . S
C1518 C1515 1.363 . S
C1518 N1516 1.356 . S
C1519 C1513 1.363 1_455 S
C1519 C1514 1.379 . S
C1519 N1517 1.356 . S
N1520 C1512 1.356 . S
N1520 H1526 0.984 . S
N1520 H1527 0.984 . S
N1521 C1514 1.356 . S
N1521 H1524 0.984 . S
N1521 H1525 0.985 . S
H1522 N1517 0.984 . S
H1523 N1517 0.985 . S
H1524 N1521 0.984 . S
H1525 N1521 0.985 . S
H1526 N1520 0.984 . S
H1527 N1520 0.984 . S
H1528 N1516 0.984 . S
H1529 N1516 0.985 . S
C1530 C1531 1.363 . S
C1530 C1536 1.379 . S
C1530 N1538 1.356 . S
C1531 C1530 1.363 . S
C1531 C1537 1.363 . S
C1532 C1533 1.363 . S
C1532 C1537 1.379 . S
C1532 N1539 1.356 . S
C1533 C1532 1.363 . S
C1533 C1536 1.363 . S
N1534 C1536 1.356 . S
N1534 H1546 0.984 . S
N1534 H1547 0.985 . S
N1535 C1537 1.356 . S
N1535 H1540 0.984 . S
N1535 H1541 0.985 . S
C1536 C1530 1.379 . S
C1536 C1533 1.363 . S
C1536 N1534 1.356 . S
C1537 C1531 1.363 . S
C1537 C1532 1.379 . S
C1537 N1535 1.356 . S
N1538 C1530 1.356 . S
N1538 H1544 0.984 . S
N1538 H1545 0.984 . S
N1539 C1532 1.356 . S
N1539 H1542 0.984 . S
N1539 H1543 0.985 . S
H1540 N1535 0.984 . S
H1541 N1535 0.985 . S
H1542 N1539 0.984 . S
H1543 N1539 0.985 . S
H1544 N1538 0.984 . S
H1545 N1538 0.984 . S
H1546 N1534 0.984 . S
H1547 N1534 0.985 . S
C1548 C1549 1.363 1_565 S
C1548 C1554 1.379 . S
C1548 N1556 1.356 . S
C1549 C1548 1.363 1_545 S
C1549 C1555 1.363 . S
C1550 C1551 1.363 . S
C1550 C1555 1.379 . S
C1550 N1557 1.356 . S
C1551 C1550 1.363 . S
C1551 C1554 1.363 1_545 S
N1552 C1554 1.356 . S
N1552 H1564 0.984 . S
N1552 H1565 0.985 . S
N1553 C1555 1.356 . S
N1553 H1558 0.984 . S
N1553 H1559 0.985 . S
C1554 C1548 1.379 . S
C1554 C1551 1.363 1_565 S
C1554 N1552 1.356 . S
C1555 C1549 1.363 . S
C1555 C1550 1.379 . S
C1555 N1553 1.356 . S
N1556 C1548 1.356 . S
N1556 H1562 0.984 . S
N1556 H1563 0.984 . S
N1557 C1550 1.356 . S
N1557 H1560 0.984 . S
N1557 H1561 0.985 . S
H1558 N1553 0.984 . S
H1559 N1553 0.985 . S
H1560 N1557 0.984 . S
H1561 N1557 0.985 . S
H1562 N1556 0.984 . S
H1563 N1556 0.984 . S
H1564 N1552 0.984 . S
H1565 N1552 0.985 . S
C1566 C1567 1.363 . S
C1566 C1572 1.379 . S
C1566 N1574 1.356 . S
C1567 C1566 1.363 . S
C1567 C1573 1.363 1_565 S
C1568 C1569 1.363 1_545 S
C1568 C1573 1.379 . S
C1568 N1575 1.356 . S
C1569 C1568 1.363 1_565 S
C1569 C1572 1.363 . S
N1570 C1572 1.356 . S
N1570 H1582 0.984 . S
N1570 H1583 0.985 . S
N1571 C1573 1.356 . S
N1571 H1576 0.984 . S
N1571 H1577 0.985 . S
C1572 C1566 1.379 . S
C1572 C1569 1.363 . S
C1572 N1570 1.356 . S
C1573 C1567 1.363 1_545 S
C1573 C1568 1.379 . S
C1573 N1571 1.356 . S
N1574 C1566 1.356 . S
N1574 H1580 0.984 . S
N1574 H1581 0.984 . S
N1575 C1568 1.356 . S
N1575 H1578 0.984 . S
N1575 H1579 0.985 . S
H1576 N1571 0.984 . S
H1577 N1571 0.985 . S
H1578 N1575 0.984 . S
H1579 N1575 0.985 . S
H1580 N1574 0.984 . S
H1581 N1574 0.984 . S
H1582 N1570 0.984 . S
H1583 N1570 0.985 . S
C1584 C1585 1.363 . S
C1584 C1590 1.379 . S
C1584 N1592 1.356 . S
C1585 C1584 1.363 . S
C1585 C1591 1.363 1_455 S
C1586 C1587 1.363 1_655 S
C1586 C1591 1.379 . S
C1586 N1593 1.356 . S
C1587 C1586 1.363 1_455 S
C1587 C1590 1.363 . S
N1588 C1590 1.356 . S
N1588 H1600 0.984 . S
N1588 H1601 0.985 . S
N1589 C1591 1.356 . S
N1589 H1594 0.984 . S
N1589 H1595 0.985 . S
C1590 C1584 1.379 . S
C1590 C1587 1.363 . S
C1590 N1588 1.356 . S
C1591 C1585 1.363 1_655 S
C1591 C1586 1.379 . S
C1591 N1589 1.356 . S
N1592 C1584 1.356 . S
N1592 H1598 0.984 . S
N1592 H1599 0.984 . S
N1593 C1586 1.356 . S
N1593 H1596 0.984 . S
N1593 H1597 0.985 . S
H1594 N1589 0.984 . S
H1595 N1589 0.985 . S
H1596 N1593 0.984 . S
H1597 N1593 0.985 . S
H1598 N1592 0.984 . S
H1599 N1592 0.984 . S
H1600 N1588 0.984 . S
H1601 N1588 0.985 . S
C1602 C1603 1.363 . S
C1602 C1608 1.379 . S
C1602 N1610 1.356 . S
C1603 C1602 1.363 . S
C1603 C1609 1.363 . S
C1604 C1605 1.363 . S
C1604 C1609 1.379 . S
C1604 N1611 1.356 . S
C1605 C1604 1.363 . S
C1605 C1608 1.363 . S
N1606 C1608 1.356 . S
N1606 H1618 0.984 . S
N1606 H1619 0.985 . S
N1607 C1609 1.356 . S
N1607 H1612 0.984 . S
N1607 H1613 0.985 . S
C1608 C1602 1.379 . S
C1608 C1605 1.363 . S
C1608 N1606 1.356 . S
C1609 C1603 1.363 . S
C1609 C1604 1.379 . S
C1609 N1607 1.356 . S
N1610 C1602 1.356 . S
N1610 H1616 0.984 . S
N1610 H1617 0.984 . S
N1611 C1604 1.356 . S
N1611 H1614 0.984 . S
N1611 H1615 0.985 . S
H1612 N1607 0.984 . S
H1613 N1607 0.985 . S
H1614 N1611 0.984 . S
H1615 N1611 0.985 . S
H1616 N1610 0.984 . S
H1617 N1610 0.984 . S
H1618 N1606 0.984 . S
H1619 N1606 0.985 . S
C1620 C1621 1.363 1_655 S
C1620 C1626 1.379 . S
C1620 N1628 1.356 . S
C1621 C1620 1.363 1_455 S
C1621 C1627 1.363 . S
C1622 C1623 1.363 . S
C1622 C1627 1.379 . S
C1622 N1629 1.356 . S
C1623 C1622 1.363 . S
C1623 C1626 1.363 1_455 S
N1624 C1626 1.356 . S
N1624 H1636 0.984 . S
N1624 H1637 0.985 . S
N1625 C1627 1.356 . S
N1625 H1630 0.984 . S
N1625 H1631 0.985 . S
C1626 C1620 1.379 . S
C1626 C1623 1.363 1_655 S
C1626 N1624 1.356 . S
C1627 C1621 1.363 . S
C1627 C1622 1.379 . S
C1627 N1625 1.356 . S
N1628 C1620 1.356 . S
N1628 H1634 0.984 . S
N1628 H1635 0.984 . S
N1629 C1622 1.356 . S
N1629 H1632 0.984 . S
N1629 H1633 0.985 . S
H1630 N1625 0.984 . S
H1631 N1625 0.985 . S
H1632 N1629 0.984 . S
H1633 N1629 0.985 . S
H1634 N1628 0.984 . S
H1635 N1628 0.984 . S
H1636 N1624 0.984 . S
H1637 N1624 0.985 . S
C1638 C1639 1.363 . S
C1638 C1644 1.379 . S
C1638 N1646 1.356 . S
C1639 C1638 1.363 . S
C1639 C1645 1.363 . S
C1640 C1641 1.363 . S
C1640 C1645 1.379 . S
C1640 N1647 1.356 . S
C1641 C1640 1.363 . S
C1641 C1644 1.363 . S
N1642 C1644 1.356 . S
N1642 H1654 0.984 . S
N1642 H1655 0.985 . S
N1643 C1645 1.356 . S
N1643 H1648 0.984 . S
N1643 H1649 0.985 . S
C1644 C1638 1.379 . S
C1644 C1641 1.363 . S
C1644 N1642 1.356 . S
C1645 C1639 1.363 . S
C1645 C1640 1.379 . S
C1645 N1643 1.356 . S
N1646 C1638 1.356 . S
N1646 H1652 0.984 . S
N1646 H1653 0.984 . S
N1647 C1640 1.356 . S
N1647 H1650 0.984 . S
N1647 H1651 0.985 . S
H1648 N1643 0.984 . S
H1649 N1643 0.985 . S
H1650 N1647 0.984 . S
H1651 N1647 0.985 . S
H1652 N1646 0.984 . S
H1653 N1646 0.984 . S
H1654 N1642 0.984 . S
H1655 N1642 0.985 . S
C1656 C1657 1.363 1_545 S
C1656 C1662 1.379 . S
C1656 N1664 1.356 . S
C1657 C1656 1.363 1_565 S
C1657 C1663 1.363 . S
C1658 C1659 1.363 . S
C1658 C1663 1.379 . S
C1658 N1665 1.356 . S
C1659 C1658 1.363 . S
C1659 C1662 1.363 1_565 S
N1660 C1662 1.356 . S
N1660 H1672 0.984 . S
N1660 H1673 0.985 . S
N1661 C1663 1.356 . S
N1661 H1666 0.984 . S
N1661 H1667 0.985 . S
C1662 C1656 1.379 . S
C1662 C1659 1.363 1_545 S
C1662 N1660 1.356 . S
C1663 C1657 1.363 . S
C1663 C1658 1.379 . S
C1663 N1661 1.356 . S
N1664 C1656 1.356 . S
N1664 H1670 0.984 . S
N1664 H1671 0.984 . S
N1665 C1658 1.356 . S
N1665 H1668 0.984 . S
N1665 H1669 0.985 . S
H1666 N1661 0.984 . S
H1667 N1661 0.985 . S
H1668 N1665 0.984 . S
H1669 N1665 0.985 . S
H1670 N1664 0.984 . S
H1671 N1664 0.984 . S
H1672 N1660 0.984 . S
H1673 N1660 0.985 . S
C1674 C1675 1.363 1_565 S
C1674 C1680 1.379 . S
C1674 N1682 1.356 . S
C1675 C1674 1.363 1_545 S
C1675 C1681 1.363 . S
C1676 C1677 1.363 . S
C1676 C1681 1.379 . S
C1676 N1683 1.356 . S
C1677 C1676 1.363 . S
C1677 C1680 1.363 1_545 S
N1678 C1680 1.356 . S
N1678 H1690 0.984 . S
N1678 H1691 0.985 . S
N1679 C1681 1.356 . S
N1679 H1684 0.984 . S
N1679 H1685 0.985 . S
C1680 C1674 1.379 . S
C1680 C1677 1.363 1_565 S
C1680 N1678 1.356 . S
C1681 C1675 1.363 . S
C1681 C1676 1.379 . S
C1681 N1679 1.356 . S
N1682 C1674 1.356 . S
N1682 H1688 0.984 . S
N1682 H1689 0.984 . S
N1683 C1676 1.356 . S
N1683 H1686 0.984 . S
N1683 H1687 0.985 . S
H1684 N1679 0.984 . S
H1685 N1679 0.985 . S
H1686 N1683 0.984 . S
H1687 N1683 0.985 . S
H1688 N1682 0.984 . S
H1689 N1682 0.984 . S
H1690 N1678 0.984 . S
H1691 N1678 0.985 . S
C1692 C1693 1.363 1_455 S
C1692 C1698 1.379 . S
C1692 N1700 1.356 . S
C1693 C1692 1.363 1_655 S
C1693 C1699 1.363 . S
C1694 C1695 1.363 . S
C1694 C1699 1.379 . S
C1694 N1701 1.356 . S
C1695 C1694 1.363 . S
C1695 C1698 1.363 1_655 S
N1696 C1698 1.356 . S
N1696 H1708 0.984 . S
N1696 H1709 0.985 . S
N1697 C1699 1.356 . S
N1697 H1702 0.984 . S
N1697 H1703 0.985 . S
C1698 C1692 1.379 . S
C1698 C1695 1.363 1_455 S
C1698 N1696 1.356 . S
C1699 C1693 1.363 . S
C1699 C1694 1.379 . S
C1699 N1697 1.356 . S
N1700 C1692 1.356 . S
N1700 H1706 0.984 . S
N1700 H1707 0.984 . S
N1701 C1694 1.356 . S
N1701 H1704 0.984 . S
N1701 H1705 0.985 . S
H1702 N1697 0.984 . S
H1703 N1697 0.985 . S
H1704 N1701 0.984 . S
H1705 N1701 0.985 . S
H1706 N1700 0.984 . S
H1707 N1700 0.984 . S
H1708 N1696 0.984 . S
H1709 N1696 0.985 . S
C1710 C1711 1.363 . S
C1710 C1716 1.379 . S
C1710 N1718 1.356 . S
C1711 C1710 1.363 . S
C1711 C1717 1.363 . S
C1712 C1713 1.363 . S
C1712 C1717 1.379 . S
C1712 N1719 1.356 . S
C1713 C1712 1.363 . S
C1713 C1716 1.363 . S
N1714 C1716 1.356 . S
N1714 H1726 0.984 . S
N1714 H1727 0.985 . S
N1715 C1717 1.356 . S
N1715 H1720 0.984 . S
N1715 H1721 0.985 . S
C1716 C1710 1.379 . S
C1716 C1713 1.363 . S
C1716 N1714 1.356 . S
C1717 C1711 1.363 . S
C1717 C1712 1.379 . S
C1717 N1715 1.356 . S
N1718 C1710 1.356 . S
N1718 H1724 0.984 . S
N1718 H1725 0.984 . S
N1719 C1712 1.356 . S
N1719 H1722 0.984 . S
N1719 H1723 0.985 . S
H1720 N1715 0.984 . S
H1721 N1715 0.985 . S
H1722 N1719 0.984 . S
H1723 N1719 0.985 . S
H1724 N1718 0.984 . S
H1725 N1718 0.984 . S
H1726 N1714 0.984 . S
H1727 N1714 0.985 . S
C1728 C1729 1.363 . S
C1728 C1734 1.379 . S
C1728 N1736 1.356 . S
C1729 C1728 1.363 . S
C1729 C1735 1.363 . S
C1730 C1731 1.363 . S
C1730 C1735 1.379 . S
C1730 N1737 1.356 . S
C1731 C1730 1.363 . S
C1731 C1734 1.363 . S
N1732 C1734 1.356 . S
N1732 H1744 0.984 . S
N1732 H1745 0.985 . S
N1733 C1735 1.356 . S
N1733 H1738 0.984 . S
N1733 H1739 0.985 . S
C1734 C1728 1.379 . S
C1734 C1731 1.363 . S
C1734 N1732 1.356 . S
C1735 C1729 1.363 . S
C1735 C1730 1.379 . S
C1735 N1733 1.356 . S
N1736 C1728 1.356 . S
N1736 H1742 0.984 . S
N1736 H1743 0.984 . S
N1737 C1730 1.356 . S
N1737 H1740 0.984 . S
N1737 H1741 0.985 . S
H1738 N1733 0.984 . S
H1739 N1733 0.985 . S
H1740 N1737 0.984 . S
H1741 N1737 0.985 . S
H1742 N1736 0.984 . S
H1743 N1736 0.984 . S
H1744 N1732 0.984 . S
H1745 N1732 0.985 . S
C1746 C1747 1.363 . S
C1746 C1752 1.379 . S
C1746 N1754 1.356 . S
C1747 C1746 1.363 . S
C1747 C1753 1.363 . S
C1748 C1749 1.363 . S
C1748 C1753 1.379 . S
C1748 N1755 1.356 . S
C1749 C1748 1.363 . S
C1749 C1752 1.363 . S
N1750 C1752 1.356 . S
N1750 H1762 0.984 . S
N1750 H1763 0.985 . S
N1751 C1753 1.356 . S
N1751 H1756 0.984 . S
N1751 H1757 0.985 . S
C1752 C1746 1.379 . S
C1752 C1749 1.363 . S
C1752 N1750 1.356 . S
C1753 C1747 1.363 . S
C1753 C1748 1.379 . S
C1753 N1751 1.356 . S
N1754 C1746 1.356 . S
N1754 H1760 0.984 . S
N1754 H1761 0.984 . S
N1755 C1748 1.356 . S
N1755 H1758 0.984 . S
N1755 H1759 0.985 . S
H1756 N1751 0.984 . S
H1757 N1751 0.985 . S
H1758 N1755 0.984 . S
H1759 N1755 0.985 . S
H1760 N1754 0.984 . S
H1761 N1754 0.984 . S
H1762 N1750 0.984 . S
H1763 N1750 0.985 . S
C1764 C1765 1.363 . S
C1764 C1770 1.379 . S
C1764 N1772 1.356 . S
C1765 C1764 1.363 . S
C1765 C1771 1.363 . S
C1766 C1767 1.363 . S
C1766 C1771 1.379 . S
C1766 N1773 1.356 . S
C1767 C1766 1.363 . S
C1767 C1770 1.363 . S
N1768 C1770 1.356 . S
N1768 H1780 0.984 . S
N1768 H1781 0.985 . S
N1769 C1771 1.356 . S
N1769 H1774 0.984 . S
N1769 H1775 0.985 . S
C1770 C1764 1.379 . S
C1770 C1767 1.363 . S
C1770 N1768 1.356 . S
C1771 C1765 1.363 . S
C1771 C1766 1.379 . S
C1771 N1769 1.356 . S
N1772 C1764 1.356 . S
N1772 H1778 0.984 . S
N1772 H1779 0.984 . S
N1773 C1766 1.356 . S
N1773 H1776 0.984 . S
N1773 H1777 0.985 . S
H1774 N1769 0.984 . S
H1775 N1769 0.985 . S
H1776 N1773 0.984 . S
H1777 N1773 0.985 . S
H1778 N1772 0.984 . S
H1779 N1772 0.984 . S
H1780 N1768 0.984 . S
H1781 N1768 0.985 . S
C1782 C1783 1.363 . S
C1782 C1788 1.379 . S
C1782 N1790 1.356 . S
C1783 C1782 1.363 . S
C1783 C1789 1.363 . S
C1784 C1785 1.363 . S
C1784 C1789 1.379 . S
C1784 N1791 1.356 . S
C1785 C1784 1.363 . S
C1785 C1788 1.363 . S
N1786 C1788 1.356 . S
N1786 H1798 0.984 . S
N1786 H1799 0.985 . S
N1787 C1789 1.356 . S
N1787 H1792 0.984 . S
N1787 H1793 0.985 . S
C1788 C1782 1.379 . S
C1788 C1785 1.363 . S
C1788 N1786 1.356 . S
C1789 C1783 1.363 . S
C1789 C1784 1.379 . S
C1789 N1787 1.356 . S
N1790 C1782 1.356 . S
N1790 H1796 0.984 . S
N1790 H1797 0.984 . S
N1791 C1784 1.356 . S
N1791 H1794 0.984 . S
N1791 H1795 0.985 . S
H1792 N1787 0.984 . S
H1793 N1787 0.985 . S
H1794 N1791 0.984 . S
H1795 N1791 0.985 . S
H1796 N1790 0.984 . S
H1797 N1790 0.984 . S
H1798 N1786 0.984 . S
H1799 N1786 0.985 . S
C1800 C1801 1.363 . S
C1800 C1806 1.379 . S
C1800 N1808 1.356 . S
C1801 C1800 1.363 . S
C1801 C1807 1.363 . S
C1802 C1803 1.363 . S
C1802 C1807 1.379 . S
C1802 N1809 1.356 . S
C1803 C1802 1.363 . S
C1803 C1806 1.363 . S
N1804 C1806 1.356 . S
N1804 H1816 0.984 . S
N1804 H1817 0.985 . S
N1805 C1807 1.356 . S
N1805 H1810 0.984 . S
N1805 H1811 0.985 . S
C1806 C1800 1.379 . S
C1806 C1803 1.363 . S
C1806 N1804 1.356 . S
C1807 C1801 1.363 . S
C1807 C1802 1.379 . S
C1807 N1805 1.356 . S
N1808 C1800 1.356 . S
N1808 H1814 0.984 . S
N1808 H1815 0.984 . S
N1809 C1802 1.356 . S
N1809 H1812 0.984 . S
N1809 H1813 0.985 . S
H1810 N1805 0.984 . S
H1811 N1805 0.985 . S
H1812 N1809 0.984 . S
H1813 N1809 0.985 . S
H1814 N1808 0.984 . S
H1815 N1808 0.984 . S
H1816 N1804 0.984 . S
H1817 N1804 0.985 . S
C1818 C1819 1.363 . S
C1818 C1824 1.379 . S
C1818 N1826 1.356 . S
C1819 C1818 1.363 . S
C1819 C1825 1.363 . S
C1820 C1821 1.363 . S
C1820 C1825 1.379 . S
C1820 N1827 1.356 . S
C1821 C1820 1.363 . S
C1821 C1824 1.363 . S
N1822 C1824 1.356 . S
N1822 H1834 0.984 . S
N1822 H1835 0.985 . S
N1823 C1825 1.356 . S
N1823 H1828 0.984 . S
N1823 H1829 0.985 . S
C1824 C1818 1.379 . S
C1824 C1821 1.363 . S
C1824 N1822 1.356 . S
C1825 C1819 1.363 . S
C1825 C1820 1.379 . S
C1825 N1823 1.356 . S
N1826 C1818 1.356 . S
N1826 H1832 0.984 . S
N1826 H1833 0.984 . S
N1827 C1820 1.356 . S
N1827 H1830 0.984 . S
N1827 H1831 0.985 . S
H1828 N1823 0.984 . S
H1829 N1823 0.985 . S
H1830 N1827 0.984 . S
H1831 N1827 0.985 . S
H1832 N1826 0.984 . S
H1833 N1826 0.984 . S
H1834 N1822 0.984 . S
H1835 N1822 0.985 . S
C1836 C1837 1.363 . S
C1836 C1842 1.379 . S
C1836 N1844 1.356 . S
C1837 C1836 1.363 . S
C1837 C1843 1.363 . S
C1838 C1839 1.363 . S
C1838 C1843 1.379 . S
C1838 N1845 1.356 . S
C1839 C1838 1.363 . S
C1839 C1842 1.363 . S
N1840 C1842 1.356 . S
N1840 H1852 0.984 . S
N1840 H1853 0.985 . S
N1841 C1843 1.356 . S
N1841 H1846 0.984 . S
N1841 H1847 0.985 . S
C1842 C1836 1.379 . S
C1842 C1839 1.363 . S
C1842 N1840 1.356 . S
C1843 C1837 1.363 . S
C1843 C1838 1.379 . S
C1843 N1841 1.356 . S
N1844 C1836 1.356 . S
N1844 H1850 0.984 . S
N1844 H1851 0.984 . S
N1845 C1838 1.356 . S
N1845 H1848 0.984 . S
N1845 H1849 0.985 . S
H1846 N1841 0.984 . S
H1847 N1841 0.985 . S
H1848 N1845 0.984 . S
H1849 N1845 0.985 . S
H1850 N1844 0.984 . S
H1851 N1844 0.984 . S
H1852 N1840 0.984 . S
H1853 N1840 0.985 . S
C1854 C1855 1.363 . S
C1854 C1860 1.379 . S
C1854 N1862 1.356 . S
C1855 C1854 1.363 . S
C1855 C1861 1.363 . S
C1856 C1857 1.363 . S
C1856 C1861 1.379 . S
C1856 N1863 1.356 . S
C1857 C1856 1.363 . S
C1857 C1860 1.363 . S
N1858 C1860 1.356 . S
N1858 H1870 0.984 . S
N1858 H1871 0.985 . S
N1859 C1861 1.356 . S
N1859 H1864 0.984 . S
N1859 H1865 0.985 . S
C1860 C1854 1.379 . S
C1860 C1857 1.363 . S
C1860 N1858 1.356 . S
C1861 C1855 1.363 . S
C1861 C1856 1.379 . S
C1861 N1859 1.356 . S
N1862 C1854 1.356 . S
N1862 H1868 0.984 . S
N1862 H1869 0.984 . S
N1863 C1856 1.356 . S
N1863 H1866 0.984 . S
N1863 H1867 0.985 . S
H1864 N1859 0.984 . S
H1865 N1859 0.985 . S
H1866 N1863 0.984 . S
H1867 N1863 0.985 . S
H1868 N1862 0.984 . S
H1869 N1862 0.984 . S
H1870 N1858 0.984 . S
H1871 N1858 0.985 . S
C1872 C1873 1.363 . S
C1872 C1878 1.379 . S
C1872 N1880 1.356 . S
C1873 C1872 1.363 . S
C1873 C1879 1.363 . S
C1874 C1875 1.363 . S
C1874 C1879 1.379 . S
C1874 N1881 1.356 . S
C1875 C1874 1.363 . S
C1875 C1878 1.363 . S
N1876 C1878 1.356 . S
N1876 H1888 0.984 . S
N1876 H1889 0.985 . S
N1877 C1879 1.356 . S
N1877 H1882 0.984 . S
N1877 H1883 0.985 . S
C1878 C1872 1.379 . S
C1878 C1875 1.363 . S
C1878 N1876 1.356 . S
C1879 C1873 1.363 . S
C1879 C1874 1.379 . S
C1879 N1877 1.356 . S
N1880 C1872 1.356 . S
N1880 H1886 0.984 . S
N1880 H1887 0.984 . S
N1881 C1874 1.356 . S
N1881 H1884 0.984 . S
N1881 H1885 0.985 . S
H1882 N1877 0.984 . S
H1883 N1877 0.985 . S
H1884 N1881 0.984 . S
H1885 N1881 0.985 . S
H1886 N1880 0.984 . S
H1887 N1880 0.984 . S
H1888 N1876 0.984 . S
H1889 N1876 0.985 . S
C1890 C1891 1.363 . S
C1890 C1896 1.379 . S
C1890 N1898 1.356 . S
C1891 C1890 1.363 . S
C1891 C1897 1.363 . S
C1892 C1893 1.363 . S
C1892 C1897 1.379 . S
C1892 N1899 1.356 . S
C1893 C1892 1.363 . S
C1893 C1896 1.363 . S
N1894 C1896 1.356 . S
N1894 H1906 0.984 . S
N1894 H1907 0.985 . S
N1895 C1897 1.356 . S
N1895 H1900 0.984 . S
N1895 H1901 0.985 . S
C1896 C1890 1.379 . S
C1896 C1893 1.363 . S
C1896 N1894 1.356 . S
C1897 C1891 1.363 . S
C1897 C1892 1.379 . S
C1897 N1895 1.356 . S
N1898 C1890 1.356 . S
N1898 H1904 0.984 . S
N1898 H1905 0.984 . S
N1899 C1892 1.356 . S
N1899 H1902 0.984 . S
N1899 H1903 0.985 . S
H1900 N1895 0.984 . S
H1901 N1895 0.985 . S
H1902 N1899 0.984 . S
H1903 N1899 0.985 . S
H1904 N1898 0.984 . S
H1905 N1898 0.984 . S
H1906 N1894 0.984 . S
H1907 N1894 0.985 . S
C1908 C1909 1.363 . S
C1908 C1914 1.379 . S
C1908 N1916 1.356 . S
C1909 C1908 1.363 . S
C1909 C1915 1.363 . S
C1910 C1911 1.363 . S
C1910 C1915 1.379 . S
C1910 N1917 1.356 . S
C1911 C1910 1.363 . S
C1911 C1914 1.363 . S
N1912 C1914 1.356 . S
N1912 H1924 0.984 . S
N1912 H1925 0.985 . S
N1913 C1915 1.356 . S
N1913 H1918 0.984 . S
N1913 H1919 0.985 . S
C1914 C1908 1.379 . S
C1914 C1911 1.363 . S
C1914 N1912 1.356 . S
C1915 C1909 1.363 . S
C1915 C1910 1.379 . S
C1915 N1913 1.356 . S
N1916 C1908 1.356 . S
N1916 H1922 0.984 . S
N1916 H1923 0.984 . S
N1917 C1910 1.356 . S
N1917 H1920 0.984 . S
N1917 H1921 0.985 . S
H1918 N1913 0.984 . S
H1919 N1913 0.985 . S
H1920 N1917 0.984 . S
H1921 N1917 0.985 . S
H1922 N1916 0.984 . S
H1923 N1916 0.984 . S
H1924 N1912 0.984 . S
H1925 N1912 0.985 . S
C1926 C1927 1.363 . S
C1926 C1932 1.379 . S
C1926 N1934 1.356 . S
C1927 C1926 1.363 . S
C1927 C1933 1.363 . S
C1928 C1929 1.363 . S
C1928 C1933 1.379 . S
C1928 N1935 1.356 . S
C1929 C1928 1.363 . S
C1929 C1932 1.363 . S
N1930 C1932 1.356 . S
N1930 H1942 0.984 . S
N1930 H1943 0.985 . S
N1931 C1933 1.356 . S
N1931 H1936 0.984 . S
N1931 H1937 0.985 . S
C1932 C1926 1.379 . S
C1932 C1929 1.363 . S
C1932 N1930 1.356 . S
C1933 C1927 1.363 . S
C1933 C1928 1.379 . S
C1933 N1931 1.356 . S
N1934 C1926 1.356 . S
N1934 H1940 0.984 . S
N1934 H1941 0.984 . S
N1935 C1928 1.356 . S
N1935 H1938 0.984 . S
N1935 H1939 0.985 . S
H1936 N1931 0.984 . S
H1937 N1931 0.985 . S
H1938 N1935 0.984 . S
H1939 N1935 0.985 . S
H1940 N1934 0.984 . S
H1941 N1934 0.984 . S
H1942 N1930 0.984 . S
H1943 N1930 0.985 . S
C1944 C1945 1.363 . S
C1944 C1950 1.379 . S
C1944 N1952 1.356 . S
C1945 C1944 1.363 . S
C1945 C1951 1.363 . S
C1946 C1947 1.363 . S
C1946 C1951 1.379 . S
C1946 N1953 1.356 . S
C1947 C1946 1.363 . S
C1947 C1950 1.363 . S
N1948 C1950 1.356 . S
N1948 H1960 0.984 . S
N1948 H1961 0.985 . S
N1949 C1951 1.356 . S
N1949 H1954 0.984 . S
N1949 H1955 0.985 . S
C1950 C1944 1.379 . S
C1950 C1947 1.363 . S
C1950 N1948 1.356 . S
C1951 C1945 1.363 . S
C1951 C1946 1.379 . S
C1951 N1949 1.356 . S
N1952 C1944 1.356 . S
N1952 H1958 0.984 . S
N1952 H1959 0.984 . S
N1953 C1946 1.356 . S
N1953 H1956 0.984 . S
N1953 H1957 0.985 . S
H1954 N1949 0.984 . S
H1955 N1949 0.985 . S
H1956 N1953 0.984 . S
H1957 N1953 0.985 . S
H1958 N1952 0.984 . S
H1959 N1952 0.984 . S
H1960 N1948 0.984 . S
H1961 N1948 0.985 . S
C1962 C1963 1.363 . S
C1962 C1968 1.379 . S
C1962 N1970 1.356 . S
C1963 C1962 1.363 . S
C1963 C1969 1.363 . S
C1964 C1965 1.363 . S
C1964 C1969 1.379 . S
C1964 N1971 1.356 . S
C1965 C1964 1.363 . S
C1965 C1968 1.363 . S
N1966 C1968 1.356 . S
N1966 H1978 0.984 . S
N1966 H1979 0.985 . S
N1967 C1969 1.356 . S
N1967 H1972 0.984 . S
N1967 H1973 0.985 . S
C1968 C1962 1.379 . S
C1968 C1965 1.363 . S
C1968 N1966 1.356 . S
C1969 C1963 1.363 . S
C1969 C1964 1.379 . S
C1969 N1967 1.356 . S
N1970 C1962 1.356 . S
N1970 H1976 0.984 . S
N1970 H1977 0.984 . S
N1971 C1964 1.356 . S
N1971 H1974 0.984 . S
N1971 H1975 0.985 . S
H1972 N1967 0.984 . S
H1973 N1967 0.985 . S
H1974 N1971 0.984 . S
H1975 N1971 0.985 . S
H1976 N1970 0.984 . S
H1977 N1970 0.984 . S
H1978 N1966 0.984 . S
H1979 N1966 0.985 . S
C1980 C1981 1.363 . S
C1980 C1986 1.379 . S
C1980 N1988 1.356 . S
C1981 C1980 1.363 . S
C1981 C1987 1.363 . S
C1982 C1983 1.363 . S
C1982 C1987 1.379 . S
C1982 N1989 1.356 . S
C1983 C1982 1.363 . S
C1983 C1986 1.363 . S
N1984 C1986 1.356 . S
N1984 H1996 0.984 . S
N1984 H1997 0.985 . S
N1985 C1987 1.356 . S
N1985 H1990 0.984 . S
N1985 H1991 0.985 . S
C1986 C1980 1.379 . S
C1986 C1983 1.363 . S
C1986 N1984 1.356 . S
C1987 C1981 1.363 . S
C1987 C1982 1.379 . S
C1987 N1985 1.356 . S
N1988 C1980 1.356 . S
N1988 H1994 0.984 . S
N1988 H1995 0.984 . S
N1989 C1982 1.356 . S
N1989 H1992 0.984 . S
N1989 H1993 0.985 . S
H1990 N1985 0.984 . S
H1991 N1985 0.985 . S
H1992 N1989 0.984 . S
H1993 N1989 0.985 . S
H1994 N1988 0.984 . S
H1995 N1988 0.984 . S
H1996 N1984 0.984 . S
H1997 N1984 0.985 . S
C1998 C1999 1.363 . S
C1998 C2004 1.379 . S
C1998 N2006 1.356 . S
C1999 C1998 1.363 . S
C1999 C2005 1.363 . S
C2000 C2001 1.363 . S
C2000 C2005 1.379 . S
C2000 N2007 1.356 . S
C2001 C2000 1.363 . S
C2001 C2004 1.363 . S
N2002 C2004 1.356 . S
N2002 H2014 0.984 . S
N2002 H2015 0.985 . S
N2003 C2005 1.356 . S
N2003 H2008 0.984 . S
N2003 H2009 0.985 . S
C2004 C1998 1.379 . S
C2004 C2001 1.363 . S
C2004 N2002 1.356 . S
C2005 C1999 1.363 . S
C2005 C2000 1.379 . S
C2005 N2003 1.356 . S
N2006 C1998 1.356 . S
N2006 H2012 0.984 . S
N2006 H2013 0.984 . S
N2007 C2000 1.356 . S
N2007 H2010 0.984 . S
N2007 H2011 0.985 . S
H2008 N2003 0.984 . S
H2009 N2003 0.985 . S
H2010 N2007 0.984 . S
H2011 N2007 0.985 . S
H2012 N2006 0.984 . S
H2013 N2006 0.984 . S
H2014 N2002 0.984 . S
H2015 N2002 0.985 . S
C2016 C2017 1.363 . S
C2016 C2022 1.379 . S
C2016 N2024 1.356 . S
C2017 C2016 1.363 . S
C2017 C2023 1.363 . S
C2018 C2019 1.363 . S
C2018 C2023 1.379 . S
C2018 N2025 1.356 . S
C2019 C2018 1.363 . S
C2019 C2022 1.363 . S
N2020 C2022 1.356 . S
N2020 H2032 0.984 . S
N2020 H2033 0.985 . S
N2021 C2023 1.356 . S
N2021 H2026 0.984 . S
N2021 H2027 0.985 . S
C2022 C2016 1.379 . S
C2022 C2019 1.363 . S
C2022 N2020 1.356 . S
C2023 C2017 1.363 . S
C2023 C2018 1.379 . S
C2023 N2021 1.356 . S
N2024 C2016 1.356 . S
N2024 H2030 0.984 . S
N2024 H2031 0.984 . S
N2025 C2018 1.356 . S
N2025 H2028 0.984 . S
N2025 H2029 0.985 . S
H2026 N2021 0.984 . S
H2027 N2021 0.985 . S
H2028 N2025 0.984 . S
H2029 N2025 0.985 . S
H2030 N2024 0.984 . S
H2031 N2024 0.984 . S
H2032 N2020 0.984 . S
H2033 N2020 0.985 . S
C2034 C2035 1.363 . S
C2034 C2040 1.379 . S
C2034 N2042 1.356 . S
C2035 C2034 1.363 . S
C2035 C2041 1.363 . S
C2036 C2037 1.363 . S
C2036 C2041 1.379 . S
C2036 N2043 1.356 . S
C2037 C2036 1.363 . S
C2037 C2040 1.363 . S
N2038 C2040 1.356 . S
N2038 H2050 0.984 . S
N2038 H2051 0.985 . S
N2039 C2041 1.356 . S
N2039 H2044 0.984 . S
N2039 H2045 0.985 . S
C2040 C2034 1.379 . S
C2040 C2037 1.363 . S
C2040 N2038 1.356 . S
C2041 C2035 1.363 . S
C2041 C2036 1.379 . S
C2041 N2039 1.356 . S
N2042 C2034 1.356 . S
N2042 H2048 0.984 . S
N2042 H2049 0.984 . S
N2043 C2036 1.356 . S
N2043 H2046 0.984 . S
N2043 H2047 0.985 . S
H2044 N2039 0.984 . S
H2045 N2039 0.985 . S
H2046 N2043 0.984 . S
H2047 N2043 0.985 . S
H2048 N2042 0.984 . S
H2049 N2042 0.984 . S
H2050 N2038 0.984 . S
H2051 N2038 0.985 . S
C2052 C2053 1.363 . S
C2052 C2058 1.379 . S
C2052 N2060 1.356 . S
C2053 C2052 1.363 . S
C2053 C2059 1.363 . S
C2054 C2055 1.363 . S
C2054 C2059 1.379 . S
C2054 N2061 1.356 . S
C2055 C2054 1.363 . S
C2055 C2058 1.363 . S
N2056 C2058 1.356 . S
N2056 H2068 0.984 . S
N2056 H2069 0.985 . S
N2057 C2059 1.356 . S
N2057 H2062 0.984 . S
N2057 H2063 0.985 . S
C2058 C2052 1.379 . S
C2058 C2055 1.363 . S
C2058 N2056 1.356 . S
C2059 C2053 1.363 . S
C2059 C2054 1.379 . S
C2059 N2057 1.356 . S
N2060 C2052 1.356 . S
N2060 H2066 0.984 . S
N2060 H2067 0.984 . S
N2061 C2054 1.356 . S
N2061 H2064 0.984 . S
N2061 H2065 0.985 . S
H2062 N2057 0.984 . S
H2063 N2057 0.985 . S
H2064 N2061 0.984 . S
H2065 N2061 0.985 . S
H2066 N2060 0.984 . S
H2067 N2060 0.984 . S
H2068 N2056 0.984 . S
H2069 N2056 0.985 . S
C2070 C2071 1.363 . S
C2070 C2076 1.379 . S
C2070 N2078 1.356 . S
C2071 C2070 1.363 . S
C2071 C2077 1.363 . S
C2072 C2073 1.363 . S
C2072 C2077 1.379 . S
C2072 N2079 1.356 . S
C2073 C2072 1.363 . S
C2073 C2076 1.363 . S
N2074 C2076 1.356 . S
N2074 H2086 0.984 . S
N2074 H2087 0.985 . S
N2075 C2077 1.356 . S
N2075 H2080 0.984 . S
N2075 H2081 0.985 . S
C2076 C2070 1.379 . S
C2076 C2073 1.363 . S
C2076 N2074 1.356 . S
C2077 C2071 1.363 . S
C2077 C2072 1.379 . S
C2077 N2075 1.356 . S
N2078 C2070 1.356 . S
N2078 H2084 0.984 . S
N2078 H2085 0.984 . S
N2079 C2072 1.356 . S
N2079 H2082 0.984 . S
N2079 H2083 0.985 . S
H2080 N2075 0.984 . S
H2081 N2075 0.985 . S
H2082 N2079 0.984 . S
H2083 N2079 0.985 . S
H2084 N2078 0.984 . S
H2085 N2078 0.984 . S
H2086 N2074 0.984 . S
H2087 N2074 0.985 . S
C2088 C2089 1.363 . S
C2088 C2094 1.379 . S
C2088 N2096 1.356 . S
C2089 C2088 1.363 . S
C2089 C2095 1.363 . S
C2090 C2091 1.363 . S
C2090 C2095 1.379 . S
C2090 N2097 1.356 . S
C2091 C2090 1.363 . S
C2091 C2094 1.363 . S
N2092 C2094 1.356 . S
N2092 H2104 0.984 . S
N2092 H2105 0.985 . S
N2093 C2095 1.356 . S
N2093 H2098 0.984 . S
N2093 H2099 0.985 . S
C2094 C2088 1.379 . S
C2094 C2091 1.363 . S
C2094 N2092 1.356 . S
C2095 C2089 1.363 . S
C2095 C2090 1.379 . S
C2095 N2093 1.356 . S
N2096 C2088 1.356 . S
N2096 H2102 0.984 . S
N2096 H2103 0.984 . S
N2097 C2090 1.356 . S
N2097 H2100 0.984 . S
N2097 H2101 0.985 . S
H2098 N2093 0.984 . S
H2099 N2093 0.985 . S
H2100 N2097 0.984 . S
H2101 N2097 0.985 . S
H2102 N2096 0.984 . S
H2103 N2096 0.984 . S
H2104 N2092 0.984 . S
H2105 N2092 0.985 . S
C2106 C2107 1.363 . S
C2106 C2112 1.379 . S
C2106 N2114 1.356 . S
C2107 C2106 1.363 . S
C2107 C2113 1.363 . S
C2108 C2109 1.363 . S
C2108 C2113 1.379 . S
C2108 N2115 1.356 . S
C2109 C2108 1.363 . S
C2109 C2112 1.363 . S
N2110 C2112 1.356 . S
N2110 H2122 0.984 . S
N2110 H2123 0.985 . S
N2111 C2113 1.356 . S
N2111 H2116 0.984 . S
N2111 H2117 0.985 . S
C2112 C2106 1.379 . S
C2112 C2109 1.363 . S
C2112 N2110 1.356 . S
C2113 C2107 1.363 . S
C2113 C2108 1.379 . S
C2113 N2111 1.356 . S
N2114 C2106 1.356 . S
N2114 H2120 0.984 . S
N2114 H2121 0.984 . S
N2115 C2108 1.356 . S
N2115 H2118 0.984 . S
N2115 H2119 0.985 . S
H2116 N2111 0.984 . S
H2117 N2111 0.985 . S
H2118 N2115 0.984 . S
H2119 N2115 0.985 . S
H2120 N2114 0.984 . S
H2121 N2114 0.984 . S
H2122 N2110 0.984 . S
H2123 N2110 0.985 . S
C2124 C2125 1.363 . S
C2124 C2130 1.379 . S
C2124 N2132 1.356 . S
C2125 C2124 1.363 . S
C2125 C2131 1.363 . S
C2126 C2127 1.363 . S
C2126 C2131 1.379 . S
C2126 N2133 1.356 . S
C2127 C2126 1.363 . S
C2127 C2130 1.363 . S
N2128 C2130 1.356 . S
N2128 H2140 0.984 . S
N2128 H2141 0.985 . S
N2129 C2131 1.356 . S
N2129 H2134 0.984 . S
N2129 H2135 0.985 . S
C2130 C2124 1.379 . S
C2130 C2127 1.363 . S
C2130 N2128 1.356 . S
C2131 C2125 1.363 . S
C2131 C2126 1.379 . S
C2131 N2129 1.356 . S
N2132 C2124 1.356 . S
N2132 H2138 0.984 . S
N2132 H2139 0.984 . S
N2133 C2126 1.356 . S
N2133 H2136 0.984 . S
N2133 H2137 0.985 . S
H2134 N2129 0.984 . S
H2135 N2129 0.985 . S
H2136 N2133 0.984 . S
H2137 N2133 0.985 . S
H2138 N2132 0.984 . S
H2139 N2132 0.984 . S
H2140 N2128 0.984 . S
H2141 N2128 0.985 . S
C2142 C2143 1.363 . S
C2142 C2148 1.379 . S
C2142 N2150 1.356 . S
C2143 C2142 1.363 . S
C2143 C2149 1.363 . S
C2144 C2145 1.363 . S
C2144 C2149 1.379 . S
C2144 N2151 1.356 . S
C2145 C2144 1.363 . S
C2145 C2148 1.363 . S
N2146 C2148 1.356 . S
N2146 H2158 0.984 . S
N2146 H2159 0.985 . S
N2147 C2149 1.356 . S
N2147 H2152 0.984 . S
N2147 H2153 0.985 . S
C2148 C2142 1.379 . S
C2148 C2145 1.363 . S
C2148 N2146 1.356 . S
C2149 C2143 1.363 . S
C2149 C2144 1.379 . S
C2149 N2147 1.356 . S
N2150 C2142 1.356 . S
N2150 H2156 0.984 . S
N2150 H2157 0.984 . S
N2151 C2144 1.356 . S
N2151 H2154 0.984 . S
N2151 H2155 0.985 . S
H2152 N2147 0.984 . S
H2153 N2147 0.985 . S
H2154 N2151 0.984 . S
H2155 N2151 0.985 . S
H2156 N2150 0.984 . S
H2157 N2150 0.984 . S
H2158 N2146 0.984 . S
H2159 N2146 0.985 . S
C2160 C2161 1.363 . S
C2160 C2166 1.379 . S
C2160 N2168 1.356 . S
C2161 C2160 1.363 . S
C2161 C2167 1.363 . S
C2162 C2163 1.363 . S
C2162 C2167 1.379 . S
C2162 N2169 1.356 . S
C2163 C2162 1.363 . S
C2163 C2166 1.363 . S
N2164 C2166 1.356 . S
N2164 H2176 0.984 . S
N2164 H2177 0.985 . S
N2165 C2167 1.356 . S
N2165 H2170 0.984 . S
N2165 H2171 0.985 . S
C2166 C2160 1.379 . S
C2166 C2163 1.363 . S
C2166 N2164 1.356 . S
C2167 C2161 1.363 . S
C2167 C2162 1.379 . S
C2167 N2165 1.356 . S
N2168 C2160 1.356 . S
N2168 H2174 0.984 . S
N2168 H2175 0.984 . S
N2169 C2162 1.356 . S
N2169 H2172 0.984 . S
N2169 H2173 0.985 . S
H2170 N2165 0.984 . S
H2171 N2165 0.985 . S
H2172 N2169 0.984 . S
H2173 N2169 0.985 . S
H2174 N2168 0.984 . S
H2175 N2168 0.984 . S
H2176 N2164 0.984 . S
H2177 N2164 0.985 . S
C2178 C2179 1.363 . S
C2178 C2184 1.379 . S
C2178 N2186 1.356 . S
C2179 C2178 1.363 . S
C2179 C2185 1.363 . S
C2180 C2181 1.363 . S
C2180 C2185 1.379 . S
C2180 N2187 1.356 . S
C2181 C2180 1.363 . S
C2181 C2184 1.363 . S
N2182 C2184 1.356 . S
N2182 H2194 0.984 . S
N2182 H2195 0.985 . S
N2183 C2185 1.356 . S
N2183 H2188 0.984 . S
N2183 H2189 0.985 . S
C2184 C2178 1.379 . S
C2184 C2181 1.363 . S
C2184 N2182 1.356 . S
C2185 C2179 1.363 . S
C2185 C2180 1.379 . S
C2185 N2183 1.356 . S
N2186 C2178 1.356 . S
N2186 H2192 0.984 1_554 S
N2186 H2193 0.984 . S
N2187 C2180 1.356 . S
N2187 H2190 0.984 . S
N2187 H2191 0.985 . S
H2188 N2183 0.984 . S
H2189 N2183 0.985 . S
H2190 N2187 0.984 . S
H2191 N2187 0.985 . S
H2192 N2186 0.984 1_556 S
H2193 N2186 0.984 . S
H2194 N2182 0.984 . S
H2195 N2182 0.985 . S
C2196 C2197 1.363 . S
C2196 C2202 1.379 . S
C2196 N2204 1.356 . S
C2197 C2196 1.363 . S
C2197 C2203 1.363 . S
C2198 C2199 1.363 . S
C2198 C2203 1.379 . S
C2198 N2205 1.356 . S
C2199 C2198 1.363 . S
C2199 C2202 1.363 . S
N2200 C2202 1.356 . S
N2200 H2212 0.984 . S
N2200 H2213 0.985 . S
N2201 C2203 1.382 . S
N2201 H2206 0.982 1_554 S
N2201 H2207 0.961 1_554 S
C2202 C2196 1.379 . S
C2202 C2199 1.363 . S
C2202 N2200 1.356 . S
C2203 C2197 1.363 . S
C2203 C2198 1.379 . S
C2203 N2201 1.382 . S
N2204 C2196 1.356 . S
N2204 H2210 0.984 . S
N2204 H2211 0.984 . S
N2205 C2198 1.356 . S
N2205 H2208 0.984 . S
N2205 H2209 0.985 . S
H2206 N2201 0.982 1_556 S
H2207 N2201 0.961 1_556 S
H2208 N2205 0.984 . S
H2209 N2205 0.985 . S
H2210 N2204 0.984 . S
H2211 N2204 0.984 . S
H2212 N2200 0.984 . S
H2213 N2200 0.985 . S
C2214 C2215 1.363 . S
C2214 C2220 1.379 . S
C2214 N2222 1.356 1_556 S
C2215 C2214 1.363 . S
C2215 C2221 1.363 . S
C2216 C2217 1.363 . S
C2216 C2221 1.379 . S
C2216 N2223 1.356 . S
C2217 C2216 1.363 . S
C2217 C2220 1.363 . S
N2218 C2220 1.356 . S
N2218 H2230 0.984 1_556 S
N2218 H2231 0.985 . S
N2219 C2221 1.356 . S
N2219 H2224 0.984 . S
N2219 H2225 0.985 . S
C2220 C2214 1.379 . S
C2220 C2217 1.363 . S
C2220 N2218 1.356 . S
C2221 C2215 1.363 . S
C2221 C2216 1.379 . S
C2221 N2219 1.356 . S
N2222 C2214 1.356 1_554 S
N2222 H2228 0.984 . S
N2222 H2229 0.984 . S
N2223 C2216 1.356 . S
N2223 H2226 0.984 . S
N2223 H2227 0.985 . S
H2224 N2219 0.984 . S
H2225 N2219 0.985 . S
H2226 N2223 0.984 . S
H2227 N2223 0.985 . S
H2228 N2222 0.984 . S
H2229 N2222 0.984 . S
H2230 N2218 0.984 1_554 S
H2231 N2218 0.985 . S
C2232 C2233 1.363 . S
C2232 C2238 1.379 . S
C2232 N2240 1.356 . S
C2233 C2232 1.363 . S
C2233 C2239 1.363 . S
C2234 C2235 1.363 . S
C2234 C2239 1.379 . S
C2234 N2241 1.356 . S
C2235 C2234 1.363 . S
C2235 C2238 1.363 . S
N2236 C2238 1.356 . S
N2236 H2248 0.984 . S
N2236 H2249 0.985 . S
N2237 C2239 1.356 . S
N2237 H2242 0.984 . S
N2237 H2243 0.985 . S
C2238 C2232 1.379 . S
C2238 C2235 1.363 . S
C2238 N2236 1.356 . S
C2239 C2233 1.363 . S
C2239 C2234 1.379 . S
C2239 N2237 1.356 . S
N2240 C2232 1.356 . S
N2240 H2246 0.984 1_556 S
N2240 H2247 0.988 . S
N2241 C2234 1.356 . S
N2241 H2244 0.984 . S
N2241 H2245 0.985 . S
H2242 N2237 0.984 . S
H2243 N2237 0.985 . S
H2244 N2241 0.984 . S
H2245 N2241 0.985 . S
H2246 N2240 0.984 1_554 S
H2247 N2240 0.988 . S
H2248 N2236 0.984 . S
H2249 N2236 0.985 . S
C2250 C2251 1.363 . S
C2250 C2256 1.379 . S
C2250 N2258 1.356 . S
C2251 C2250 1.363 . S
C2251 C2257 1.363 . S
C2252 C2253 1.363 . S
C2252 C2257 1.379 . S
C2252 N2259 1.356 . S
C2253 C2252 1.363 . S
C2253 C2256 1.363 . S
N2254 C2256 1.356 . S
N2254 H2266 0.984 . S
N2254 H2267 0.985 . S
N2255 C2257 1.356 . S
N2255 H2260 0.981 1_556 S
N2255 H2261 0.985 1_556 S
C2256 C2250 1.379 . S
C2256 C2253 1.363 . S
C2256 N2254 1.356 . S
C2257 C2251 1.363 . S
C2257 C2252 1.379 . S
C2257 N2255 1.356 . S
N2258 C2250 1.356 . S
N2258 H2264 0.984 . S
N2258 H2265 0.984 . S
N2259 C2252 1.356 . S
N2259 H2262 0.984 . S
N2259 H2263 0.985 . S
H2260 N2255 0.981 1_554 S
H2261 N2255 0.985 1_554 S
H2262 N2259 0.984 . S
H2263 N2259 0.985 . S
H2264 N2258 0.984 . S
H2265 N2258 0.984 . S
H2266 N2254 0.984 . S
H2267 N2254 0.985 . S
C2268 C2269 1.363 . S
C2268 C2274 1.379 . S
C2268 N2276 1.356 1_556 S
C2269 C2268 1.363 . S
C2269 C2275 1.363 . S
C2270 C2271 1.363 . S
C2270 C2275 1.379 . S
C2270 N2277 1.356 . S
C2271 C2270 1.363 . S
C2271 C2274 1.363 . S
N2272 C2274 1.356 . S
N2272 H2284 0.984 1_556 S
N2272 H2285 0.985 . S
N2273 C2275 1.356 . S
N2273 H2278 0.984 . S
N2273 H2279 0.985 . S
C2274 C2268 1.379 . S
C2274 C2271 1.363 . S
C2274 N2272 1.356 . S
C2275 C2269 1.363 . S
C2275 C2270 1.379 . S
C2275 N2273 1.356 . S
N2276 C2268 1.356 1_554 S
N2276 H2282 0.984 . S
N2276 H2283 0.984 . S
N2277 C2270 1.356 . S
N2277 H2280 0.984 . S
N2277 H2281 0.985 . S
H2278 N2273 0.984 . S
H2279 N2273 0.985 . S
H2280 N2277 0.984 . S
H2281 N2277 0.985 . S
H2282 N2276 0.984 . S
H2283 N2276 0.984 . S
H2284 N2272 0.984 1_554 S
H2285 N2272 0.985 . S
C2286 C2287 1.363 . S
C2286 C2292 1.379 . S
C2286 N2294 1.356 1_556 S
C2287 C2286 1.363 . S
C2287 C2293 1.363 . S
C2288 C2289 1.363 . S
C2288 C2293 1.379 . S
C2288 N2295 1.356 . S
C2289 C2288 1.363 . S
C2289 C2292 1.363 . S
N2290 C2292 1.356 . S
N2290 H2302 0.984 1_556 S
N2290 H2303 0.985 . S
N2291 C2293 1.356 . S
N2291 H2296 0.984 . S
N2291 H2297 0.985 . S
C2292 C2286 1.379 . S
C2292 C2289 1.363 . S
C2292 N2290 1.356 . S
C2293 C2287 1.363 . S
C2293 C2288 1.379 . S
C2293 N2291 1.356 . S
N2294 C2286 1.356 1_554 S
N2294 H2300 0.984 . S
N2294 H2301 0.984 . S
N2295 C2288 1.356 . S
N2295 H2298 0.984 . S
N2295 H2299 0.985 . S
H2296 N2291 0.984 . S
H2297 N2291 0.985 . S
H2298 N2295 0.984 . S
H2299 N2295 0.985 . S
H2300 N2294 0.984 . S
H2301 N2294 0.984 . S
H2302 N2290 0.984 1_554 S
H2303 N2290 0.985 . S
C2304 C2305 1.363 . S
C2304 C2310 1.379 . S
C2304 N2312 1.356 . S
C2305 C2304 1.363 . S
C2305 C2311 1.363 . S
C2306 C2307 1.363 . S
C2306 C2311 1.379 . S
C2306 N2313 1.356 . S
C2307 C2306 1.363 . S
C2307 C2310 1.363 . S
N2308 C2310 1.356 . S
N2308 H2320 0.984 . S
N2308 H2321 0.985 . S
N2309 C2311 1.356 . S
N2309 H2314 0.984 . S
N2309 H2315 0.985 . S
C2310 C2304 1.379 . S
C2310 C2307 1.363 . S
C2310 N2308 1.356 . S
C2311 C2305 1.363 . S
C2311 C2306 1.379 . S
C2311 N2309 1.356 . S
N2312 C2304 1.356 . S
N2312 H2318 0.991 . S
N2312 H2319 0.993 . S
N2313 C2306 1.356 . S
N2313 H2316 0.984 . S
N2313 H2317 0.985 . S
H2314 N2309 0.984 . S
H2315 N2309 0.985 . S
H2316 N2313 0.984 . S
H2317 N2313 0.985 . S
H2318 N2312 0.991 . S
H2319 N2312 0.993 . S
H2320 N2308 0.984 . S
H2321 N2308 0.985 . S
C2322 C2323 1.363 . S
C2322 C2328 1.379 . S
C2322 N2330 1.356 . S
C2323 C2322 1.363 . S
C2323 C2329 1.363 . S
C2324 C2325 1.363 . S
C2324 C2329 1.379 . S
C2324 N2331 1.356 . S
C2325 C2324 1.363 . S
C2325 C2328 1.363 . S
N2326 C2328 1.356 . S
N2326 H2338 0.984 . S
N2326 H2339 0.985 . S
N2327 C2329 1.356 . S
N2327 H2332 0.984 . S
N2327 H2333 0.985 . S
C2328 C2322 1.379 . S
C2328 C2325 1.363 . S
C2328 N2326 1.356 . S
C2329 C2323 1.363 . S
C2329 C2324 1.379 . S
C2329 N2327 1.356 . S
N2330 C2322 1.356 . S
N2330 H2336 0.984 . S
N2330 H2337 0.984 . S
N2331 C2324 1.356 . S
N2331 H2334 0.984 . S
N2331 H2335 0.985 . S
H2332 N2327 0.984 . S
H2333 N2327 0.985 . S
H2334 N2331 0.984 . S
H2335 N2331 0.985 . S
H2336 N2330 0.984 . S
H2337 N2330 0.984 . S
H2338 N2326 0.984 . S
H2339 N2326 0.985 . S
C2340 C2341 1.363 . S
C2340 C2346 1.379 . S
C2340 N2348 1.356 . S
C2341 C2340 1.363 . S
C2341 C2347 1.363 . S
C2342 C2343 1.363 . S
C2342 C2347 1.379 . S
C2342 N2349 1.356 . S
C2343 C2342 1.363 . S
C2343 C2346 1.363 . S
N2344 C2346 1.356 . S
N2344 H2356 0.984 . S
N2344 H2357 0.985 . S
N2345 C2347 1.356 . S
N2345 H2350 0.984 . S
N2345 H2351 0.985 1_554 S
C2346 C2340 1.379 . S
C2346 C2343 1.363 . S
C2346 N2344 1.356 . S
C2347 C2341 1.363 . S
C2347 C2342 1.379 . S
C2347 N2345 1.356 . S
N2348 C2340 1.356 . S
N2348 H2354 0.984 . S
N2348 H2355 0.984 . S
N2349 C2342 1.356 . S
N2349 H2352 0.984 . S
N2349 H2353 0.985 . S
H2350 N2345 0.984 . S
H2351 N2345 0.985 1_556 S
H2352 N2349 0.984 . S
H2353 N2349 0.985 . S
H2354 N2348 0.984 . S
H2355 N2348 0.984 . S
H2356 N2344 0.984 . S
H2357 N2344 0.985 . S
C2358 C2359 1.363 . S
C2358 C2364 1.379 . S
C2358 N2366 1.356 . S
C2359 C2358 1.363 . S
C2359 C2365 1.363 . S
C2360 C2361 1.363 . S
C2360 C2365 1.379 . S
C2360 N2367 1.356 . S
C2361 C2360 1.363 . S
C2361 C2364 1.363 . S
N2362 C2364 1.356 . S
N2362 H2374 0.984 . S
N2362 H2375 0.985 . S
N2363 C2365 1.356 . S
N2363 H2368 0.984 . S
N2363 H2369 0.985 1_554 S
C2364 C2358 1.379 . S
C2364 C2361 1.363 . S
C2364 N2362 1.356 . S
C2365 C2359 1.363 . S
C2365 C2360 1.379 . S
C2365 N2363 1.356 . S
N2366 C2358 1.356 . S
N2366 H2372 0.984 . S
N2366 H2373 0.984 . S
N2367 C2360 1.356 . S
N2367 H2370 0.984 . S
N2367 H2371 0.985 . S
H2368 N2363 0.984 . S
H2369 N2363 0.985 1_556 S
H2370 N2367 0.984 . S
H2371 N2367 0.985 . S
H2372 N2366 0.984 . S
H2373 N2366 0.984 . S
H2374 N2362 0.984 . S
H2375 N2362 0.985 . S
C2376 C2377 1.363 . S
C2376 C2382 1.379 . S
C2376 N2384 1.356 . S
C2377 C2376 1.363 . S
C2377 C2383 1.363 . S
C2378 C2379 1.363 . S
C2378 C2383 1.379 . S
C2378 N2385 1.356 . S
C2379 C2378 1.363 . S
C2379 C2382 1.363 . S
N2380 C2382 1.356 . S
N2380 H2392 0.984 . S
N2380 H2393 0.985 . S
N2381 C2383 1.356 . S
N2381 H2386 0.984 . S
N2381 H2387 0.985 . S
C2382 C2376 1.379 . S
C2382 C2379 1.363 . S
C2382 N2380 1.356 . S
C2383 C2377 1.363 . S
C2383 C2378 1.379 . S
C2383 N2381 1.356 . S
N2384 C2376 1.356 . S
N2384 H2390 0.984 . S
N2384 H2391 0.984 . S
N2385 C2378 1.356 . S
N2385 H2388 0.984 . S
N2385 H2389 0.985 . S
H2386 N2381 0.984 . S
H2387 N2381 0.985 . S
H2388 N2385 0.984 . S
H2389 N2385 0.985 . S
H2390 N2384 0.984 . S
H2391 N2384 0.984 . S
H2392 N2380 0.984 . S
H2393 N2380 0.985 . S
C2394 C2395 1.363 . S
C2394 C2400 1.379 . S
C2394 N2402 1.356 . S
C2395 C2394 1.363 . S
C2395 C2401 1.363 . S
C2396 C2397 1.363 . S
C2396 C2401 1.379 . S
C2396 N2403 1.356 . S
C2397 C2396 1.363 . S
C2397 C2400 1.363 . S
N2398 C2400 1.356 . S
N2398 H2410 0.984 . S
N2398 H2411 0.985 . S
N2399 C2401 1.356 . S
N2399 H2404 0.984 . S
N2399 H2405 0.985 . S
C2400 C2394 1.379 . S
C2400 C2397 1.363 . S
C2400 N2398 1.356 . S
C2401 C2395 1.363 . S
C2401 C2396 1.379 . S
C2401 N2399 1.356 . S
N2402 C2394 1.356 . S
N2402 H2408 0.984 . S
N2402 H2409 0.984 . S
N2403 C2396 1.356 . S
N2403 H2406 0.984 . S
N2403 H2407 0.985 . S
H2404 N2399 0.984 . S
H2405 N2399 0.985 . S
H2406 N2403 0.984 . S
H2407 N2403 0.985 . S
H2408 N2402 0.984 . S
H2409 N2402 0.984 . S
H2410 N2398 0.984 . S
H2411 N2398 0.985 . S
C2412 C2413 1.363 . S
C2412 C2418 1.379 . S
C2412 N2420 1.356 . S
C2413 C2412 1.363 . S
C2413 C2419 1.363 . S
C2414 C2415 1.363 . S
C2414 C2419 1.379 . S
C2414 N2421 1.356 . S
C2415 C2414 1.363 . S
C2415 C2418 1.363 . S
N2416 C2418 1.356 . S
N2416 H2428 0.984 . S
N2416 H2429 0.985 . S
N2417 C2419 1.356 . S
N2417 H2422 0.984 . S
N2417 H2423 0.985 . S
C2418 C2412 1.379 . S
C2418 C2415 1.363 . S
C2418 N2416 1.356 . S
C2419 C2413 1.363 . S
C2419 C2414 1.379 . S
C2419 N2417 1.356 . S
N2420 C2412 1.356 . S
N2420 H2426 0.984 . S
N2420 H2427 0.984 . S
N2421 C2414 1.356 . S
N2421 H2424 0.984 . S
N2421 H2425 0.985 . S
H2422 N2417 0.984 . S
H2423 N2417 0.985 . S
H2424 N2421 0.984 . S
H2425 N2421 0.985 . S
H2426 N2420 0.984 . S
H2427 N2420 0.984 . S
H2428 N2416 0.984 . S
H2429 N2416 0.985 . S
C2430 C2431 1.363 1_655 S
C2430 C2436 1.379 . S
C2430 N2438 1.356 . S
C2431 C2430 1.363 1_455 S
C2431 C2437 1.363 . S
C2432 C2433 1.363 . S
C2432 C2437 1.379 . S
C2432 N2439 1.356 . S
C2433 C2432 1.363 . S
C2433 C2436 1.363 1_455 S
N2434 C2436 1.356 . S
N2434 H2446 0.984 . S
N2434 H2447 0.985 . S
N2435 C2437 1.356 . S
N2435 H2440 0.984 . S
N2435 H2441 0.985 . S
C2436 C2430 1.379 . S
C2436 C2433 1.363 1_655 S
C2436 N2434 1.356 . S
C2437 C2431 1.363 . S
C2437 C2432 1.379 . S
C2437 N2435 1.356 . S
N2438 C2430 1.356 . S
N2438 H2444 0.984 . S
N2438 H2445 0.984 . S
N2439 C2432 1.356 . S
N2439 H2442 0.984 . S
N2439 H2443 0.985 . S
H2440 N2435 0.984 . S
H2441 N2435 0.985 . S
H2442 N2439 0.984 . S
H2443 N2439 0.985 . S
H2444 N2438 0.984 . S
H2445 N2438 0.984 . S
H2446 N2434 0.984 . S
H2447 N2434 0.985 . S
C2448 C2449 1.363 . S
C2448 C2454 1.379 . S
C2448 N2456 1.356 . S
C2449 C2448 1.363 . S
C2449 C2455 1.363 . S
C2450 C2451 1.363 . S
C2450 C2455 1.379 . S
C2450 N2457 1.356 . S
C2451 C2450 1.363 . S
C2451 C2454 1.363 . S
N2452 C2454 1.356 . S
N2452 H2464 0.984 . S
N2452 H2465 0.985 . S
N2453 C2455 1.356 . S
N2453 H2458 0.984 . S
N2453 H2459 0.985 . S
C2454 C2448 1.379 . S
C2454 C2451 1.363 . S
C2454 N2452 1.356 . S
C2455 C2449 1.363 . S
C2455 C2450 1.379 . S
C2455 N2453 1.356 . S
N2456 C2448 1.356 . S
N2456 H2462 0.984 . S
N2456 H2463 0.984 . S
N2457 C2450 1.356 . S
N2457 H2460 0.984 . S
N2457 H2461 0.985 . S
H2458 N2453 0.984 . S
H2459 N2453 0.985 . S
H2460 N2457 0.984 . S
H2461 N2457 0.985 . S
H2462 N2456 0.984 . S
H2463 N2456 0.984 . S
H2464 N2452 0.984 . S
H2465 N2452 0.985 . S
C2466 C2467 1.363 1_545 S
C2466 C2472 1.379 . S
C2466 N2474 1.356 . S
C2467 C2466 1.363 1_565 S
C2467 C2473 1.363 . S
C2468 C2469 1.363 . S
C2468 C2473 1.379 . S
C2468 N2475 1.356 . S
C2469 C2468 1.363 . S
C2469 C2472 1.363 1_565 S
N2470 C2472 1.356 . S
N2470 H2482 0.984 . S
N2470 H2483 0.985 . S
N2471 C2473 1.356 . S
N2471 H2476 0.984 . S
N2471 H2477 0.985 . S
C2472 C2466 1.379 . S
C2472 C2469 1.363 1_545 S
C2472 N2470 1.356 . S
C2473 C2467 1.363 . S
C2473 C2468 1.379 . S
C2473 N2471 1.356 . S
N2474 C2466 1.356 . S
N2474 H2480 0.984 . S
N2474 H2481 0.984 . S
N2475 C2468 1.356 . S
N2475 H2478 0.984 . S
N2475 H2479 0.985 . S
H2476 N2471 0.984 . S
H2477 N2471 0.985 . S
H2478 N2475 0.984 . S
H2479 N2475 0.985 . S
H2480 N2474 0.984 . S
H2481 N2474 0.984 . S
H2482 N2470 0.984 . S
H2483 N2470 0.985 . S
C2484 C2485 1.363 . S
C2484 C2490 1.379 . S
C2484 N2492 1.356 . S
C2485 C2484 1.363 . S
C2485 C2491 1.363 1_565 S
C2486 C2487 1.363 1_545 S
C2486 C2491 1.379 . S
C2486 N2493 1.356 . S
C2487 C2486 1.363 1_565 S
C2487 C2490 1.363 . S
N2488 C2490 1.356 . S
N2488 H2500 0.984 . S
N2488 H2501 0.985 . S
N2489 C2491 1.356 . S
N2489 H2494 0.984 . S
N2489 H2495 0.985 . S
C2490 C2484 1.379 . S
C2490 C2487 1.363 . S
C2490 N2488 1.356 . S
C2491 C2485 1.363 1_545 S
C2491 C2486 1.379 . S
C2491 N2489 1.356 . S
N2492 C2484 1.356 . S
N2492 H2498 0.984 . S
N2492 H2499 0.984 . S
N2493 C2486 1.356 . S
N2493 H2496 0.984 . S
N2493 H2497 0.985 . S
H2494 N2489 0.984 . S
H2495 N2489 0.985 . S
H2496 N2493 0.984 . S
H2497 N2493 0.985 . S
H2498 N2492 0.984 . S
H2499 N2492 0.984 . S
H2500 N2488 0.984 . S
H2501 N2488 0.985 . S
C2502 C2503 1.363 1_655 S
C2502 C2508 1.379 . S
C2502 N2510 1.356 . S
C2503 C2502 1.363 1_455 S
C2503 C2509 1.363 . S
C2504 C2505 1.363 . S
C2504 C2509 1.379 . S
C2504 N2511 1.356 . S
C2505 C2504 1.363 . S
C2505 C2508 1.363 1_455 S
N2506 C2508 1.356 . S
N2506 H2518 0.984 . S
N2506 H2519 0.985 . S
N2507 C2509 1.356 . S
N2507 H2512 0.984 . S
N2507 H2513 0.985 . S
C2508 C2502 1.379 . S
C2508 C2505 1.363 1_655 S
C2508 N2506 1.356 . S
C2509 C2503 1.363 . S
C2509 C2504 1.379 . S
C2509 N2507 1.356 . S
N2510 C2502 1.356 . S
N2510 H2516 0.984 . S
N2510 H2517 0.984 . S
N2511 C2504 1.356 . S
N2511 H2514 0.984 . S
N2511 H2515 0.985 . S
H2512 N2507 0.984 . S
H2513 N2507 0.985 . S
H2514 N2511 0.984 . S
H2515 N2511 0.985 . S
H2516 N2510 0.984 . S
H2517 N2510 0.984 . S
H2518 N2506 0.984 . S
H2519 N2506 0.985 . S
C2520 C2521 1.363 . S
C2520 C2526 1.379 . S
C2520 N2528 1.356 . S
C2521 C2520 1.363 . S
C2521 C2527 1.363 . S
C2522 C2523 1.363 . S
C2522 C2527 1.379 . S
C2522 N2529 1.356 . S
C2523 C2522 1.363 . S
C2523 C2526 1.363 . S
N2524 C2526 1.356 . S
N2524 H2536 0.984 . S
N2524 H2537 0.985 . S
N2525 C2527 1.356 . S
N2525 H2530 0.984 . S
N2525 H2531 0.985 . S
C2526 C2520 1.379 . S
C2526 C2523 1.363 . S
C2526 N2524 1.356 . S
C2527 C2521 1.363 . S
C2527 C2522 1.379 . S
C2527 N2525 1.356 . S
N2528 C2520 1.356 . S
N2528 H2534 0.984 . S
N2528 H2535 0.984 . S
N2529 C2522 1.356 . S
N2529 H2532 0.984 . S
N2529 H2533 0.985 . S
H2530 N2525 0.984 . S
H2531 N2525 0.985 . S
H2532 N2529 0.984 . S
H2533 N2529 0.985 . S
H2534 N2528 0.984 . S
H2535 N2528 0.984 . S
H2536 N2524 0.984 . S
H2537 N2524 0.985 . S
C2538 C2539 1.363 . S
C2538 C2544 1.379 . S
C2538 N2546 1.356 . S
C2539 C2538 1.363 . S
C2539 C2545 1.363 . S
C2540 C2541 1.363 . S
C2540 C2545 1.379 . S
C2540 N2547 1.356 . S
C2541 C2540 1.363 . S
C2541 C2544 1.363 . S
N2542 C2544 1.356 . S
N2542 H2554 0.984 . S
N2542 H2555 0.985 . S
N2543 C2545 1.356 . S
N2543 H2548 0.984 . S
N2543 H2549 0.985 . S
C2544 C2538 1.379 . S
C2544 C2541 1.363 . S
C2544 N2542 1.356 . S
C2545 C2539 1.363 . S
C2545 C2540 1.379 . S
C2545 N2543 1.356 . S
N2546 C2538 1.356 . S
N2546 H2552 0.984 . S
N2546 H2553 0.984 . S
N2547 C2540 1.356 . S
N2547 H2550 0.984 . S
N2547 H2551 0.985 . S
H2548 N2543 0.984 . S
H2549 N2543 0.985 . S
H2550 N2547 0.984 . S
H2551 N2547 0.985 . S
H2552 N2546 0.984 . S
H2553 N2546 0.984 . S
H2554 N2542 0.984 . S
H2555 N2542 0.985 . S
C2556 C2557 1.363 . S
C2556 C2562 1.379 . S
C2556 N2564 1.356 . S
C2557 C2556 1.363 . S
C2557 C2563 1.363 . S
C2558 C2559 1.363 . S
C2558 C2563 1.379 . S
C2558 N2565 1.356 . S
C2559 C2558 1.363 . S
C2559 C2562 1.363 . S
N2560 C2562 1.356 . S
N2560 H2572 0.984 . S
N2560 H2573 0.985 . S
N2561 C2563 1.356 . S
N2561 H2566 0.984 . S
N2561 H2567 0.985 . S
C2562 C2556 1.379 . S
C2562 C2559 1.363 . S
C2562 N2560 1.356 . S
C2563 C2557 1.363 . S
C2563 C2558 1.379 . S
C2563 N2561 1.356 . S
N2564 C2556 1.356 . S
N2564 H2570 0.984 . S
N2564 H2571 0.984 . S
N2565 C2558 1.356 . S
N2565 H2568 0.984 . S
N2565 H2569 0.985 . S
H2566 N2561 0.984 . S
H2567 N2561 0.985 . S
H2568 N2565 0.984 . S
H2569 N2565 0.985 . S
H2570 N2564 0.984 . S
H2571 N2564 0.984 . S
H2572 N2560 0.984 . S
H2573 N2560 0.985 . S
C2574 C2575 1.363 . S
C2574 C2580 1.379 . S
C2574 N2582 1.356 . S
C2575 C2574 1.363 . S
C2575 C2581 1.363 . S
C2576 C2577 1.363 . S
C2576 C2581 1.379 . S
C2576 N2583 1.356 . S
C2577 C2576 1.363 . S
C2577 C2580 1.363 . S
N2578 C2580 1.356 . S
N2578 H2590 0.984 . S
N2578 H2591 0.985 . S
N2579 C2581 1.356 . S
N2579 H2584 0.984 . S
N2579 H2585 0.985 . S
C2580 C2574 1.379 . S
C2580 C2577 1.363 . S
C2580 N2578 1.356 . S
C2581 C2575 1.363 . S
C2581 C2576 1.379 . S
C2581 N2579 1.356 . S
N2582 C2574 1.356 . S
N2582 H2588 0.984 . S
N2582 H2589 0.984 . S
N2583 C2576 1.356 . S
N2583 H2586 0.984 . S
N2583 H2587 0.985 . S
H2584 N2579 0.984 . S
H2585 N2579 0.985 . S
H2586 N2583 0.984 . S
H2587 N2583 0.985 . S
H2588 N2582 0.984 . S
H2589 N2582 0.984 . S
H2590 N2578 0.984 . S
H2591 N2578 0.985 . S
C2592 C2593 1.363 1_565 S
C2592 C2598 1.379 . S
C2592 N2600 1.356 . S
C2593 C2592 1.363 1_545 S
C2593 C2599 1.363 . S
C2594 C2595 1.363 . S
C2594 C2599 1.379 . S
C2594 N2601 1.356 . S
C2595 C2594 1.363 . S
C2595 C2598 1.363 1_545 S
N2596 C2598 1.356 . S
N2596 H2608 0.984 . S
N2596 H2609 0.985 . S
N2597 C2599 1.356 . S
N2597 H2602 0.984 . S
N2597 H2603 0.985 . S
C2598 C2592 1.379 . S
C2598 C2595 1.363 1_565 S
C2598 N2596 1.356 . S
C2599 C2593 1.363 . S
C2599 C2594 1.379 . S
C2599 N2597 1.356 . S
N2600 C2592 1.356 . S
N2600 H2606 0.984 . S
N2600 H2607 0.984 . S
N2601 C2594 1.356 . S
N2601 H2604 0.984 . S
N2601 H2605 0.985 . S
H2602 N2597 0.984 . S
H2603 N2597 0.985 . S
H2604 N2601 0.984 . S
H2605 N2601 0.985 . S
H2606 N2600 0.984 . S
H2607 N2600 0.984 . S
H2608 N2596 0.984 . S
H2609 N2596 0.985 . S
C2610 C2611 1.363 1_455 S
C2610 C2616 1.379 . S
C2610 N2618 1.356 . S
C2611 C2610 1.363 1_655 S
C2611 C2617 1.363 . S
C2612 C2613 1.363 . S
C2612 C2617 1.379 . S
C2612 N2619 1.356 . S
C2613 C2612 1.363 . S
C2613 C2616 1.363 1_655 S
N2614 C2616 1.356 . S
N2614 H2626 0.984 . S
N2614 H2627 0.985 . S
N2615 C2617 1.356 . S
N2615 H2620 0.984 . S
N2615 H2621 0.985 . S
C2616 C2610 1.379 . S
C2616 C2613 1.363 1_455 S
C2616 N2614 1.356 . S
C2617 C2611 1.363 . S
C2617 C2612 1.379 . S
C2617 N2615 1.356 . S
N2618 C2610 1.356 . S
N2618 H2624 0.984 . S
N2618 H2625 0.984 . S
N2619 C2612 1.356 . S
N2619 H2622 0.984 . S
N2619 H2623 0.985 . S
H2620 N2615 0.984 . S
H2621 N2615 0.985 . S
H2622 N2619 0.984 . S
H2623 N2619 0.985 . S
H2624 N2618 0.984 . S
H2625 N2618 0.984 . S
H2626 N2614 0.984 . S
H2627 N2614 0.985 . S
C2628 C2629 1.363 . S
C2628 C2634 1.379 . S
C2628 N2636 1.356 . S
C2629 C2628 1.363 . S
C2629 C2635 1.363 . S
C2630 C2631 1.363 . S
C2630 C2635 1.379 . S
C2630 N2637 1.356 . S
C2631 C2630 1.363 . S
C2631 C2634 1.363 . S
N2632 C2634 1.356 . S
N2632 H2644 0.984 . S
N2632 H2645 0.985 . S
N2633 C2635 1.356 . S
N2633 H2638 0.984 . S
N2633 H2639 0.985 . S
C2634 C2628 1.379 . S
C2634 C2631 1.363 . S
C2634 N2632 1.356 . S
C2635 C2629 1.363 . S
C2635 C2630 1.379 . S
C2635 N2633 1.356 . S
N2636 C2628 1.356 . S
N2636 H2642 0.984 . S
N2636 H2643 0.984 . S
N2637 C2630 1.356 . S
N2637 H2640 0.984 . S
N2637 H2641 0.985 . S
H2638 N2633 0.984 . S
H2639 N2633 0.985 . S
H2640 N2637 0.984 . S
H2641 N2637 0.985 . S
H2642 N2636 0.984 . S
H2643 N2636 0.984 . S
H2644 N2632 0.984 . S
H2645 N2632 0.985 . S
C2646 C2647 1.363 . S
C2646 C2652 1.379 . S
C2646 N2654 1.356 . S
C2647 C2646 1.363 . S
C2647 C2653 1.363 . S
C2648 C2649 1.363 . S
C2648 C2653 1.379 . S
C2648 N2655 1.356 . S
C2649 C2648 1.363 . S
C2649 C2652 1.363 . S
N2650 C2652 1.356 . S
N2650 H2662 0.984 . S
N2650 H2663 0.985 . S
N2651 C2653 1.356 . S
N2651 H2656 0.984 . S
N2651 H2657 0.985 . S
C2652 C2646 1.379 . S
C2652 C2649 1.363 . S
C2652 N2650 1.356 . S
C2653 C2647 1.363 . S
C2653 C2648 1.379 . S
C2653 N2651 1.356 . S
N2654 C2646 1.356 . S
N2654 H2660 0.984 . S
N2654 H2661 0.984 . S
N2655 C2648 1.356 . S
N2655 H2658 0.984 . S
N2655 H2659 0.985 . S
H2656 N2651 0.984 . S
H2657 N2651 0.985 . S
H2658 N2655 0.984 . S
H2659 N2655 0.985 . S
H2660 N2654 0.984 . S
H2661 N2654 0.984 . S
H2662 N2650 0.984 . S
H2663 N2650 0.985 . S
C2664 C2665 1.363 . S
C2664 C2670 1.379 . S
C2664 N2672 1.356 . S
C2665 C2664 1.363 . S
C2665 C2671 1.363 . S
C2666 C2667 1.363 . S
C2666 C2671 1.379 . S
C2666 N2673 1.356 . S
C2667 C2666 1.363 . S
C2667 C2670 1.363 . S
N2668 C2670 1.356 . S
N2668 H2680 0.984 . S
N2668 H2681 0.985 . S
N2669 C2671 1.356 . S
N2669 H2674 0.984 . S
N2669 H2675 0.985 . S
C2670 C2664 1.379 . S
C2670 C2667 1.363 . S
C2670 N2668 1.356 . S
C2671 C2665 1.363 . S
C2671 C2666 1.379 . S
C2671 N2669 1.356 . S
N2672 C2664 1.356 . S
N2672 H2678 0.984 . S
N2672 H2679 0.984 . S
N2673 C2666 1.356 . S
N2673 H2676 0.984 . S
N2673 H2677 0.985 . S
H2674 N2669 0.984 . S
H2675 N2669 0.985 . S
H2676 N2673 0.984 . S
H2677 N2673 0.985 . S
H2678 N2672 0.984 . S
H2679 N2672 0.984 . S
H2680 N2668 0.984 . S
H2681 N2668 0.985 . S
C2682 C2683 1.363 . S
C2682 C2688 1.379 . S
C2682 N2690 1.356 . S
C2683 C2682 1.363 . S
C2683 C2689 1.363 . S
C2684 C2685 1.363 . S
C2684 C2689 1.379 . S
C2684 N2691 1.356 . S
C2685 C2684 1.363 . S
C2685 C2688 1.363 . S
N2686 C2688 1.356 . S
N2686 H2698 0.984 . S
N2686 H2699 0.985 . S
N2687 C2689 1.356 . S
N2687 H2692 0.984 . S
N2687 H2693 0.985 . S
C2688 C2682 1.379 . S
C2688 C2685 1.363 . S
C2688 N2686 1.356 . S
C2689 C2683 1.363 . S
C2689 C2684 1.379 . S
C2689 N2687 1.356 . S
N2690 C2682 1.356 . S
N2690 H2696 0.984 . S
N2690 H2697 0.984 . S
N2691 C2684 1.356 . S
N2691 H2694 0.984 . S
N2691 H2695 0.985 . S
H2692 N2687 0.984 . S
H2693 N2687 0.985 . S
H2694 N2691 0.984 . S
H2695 N2691 0.985 . S
H2696 N2690 0.984 . S
H2697 N2690 0.984 . S
H2698 N2686 0.984 . S
H2699 N2686 0.985 . S
C2700 C2701 1.363 . S
C2700 C2706 1.379 . S
C2700 N2708 1.356 . S
C2701 C2700 1.363 . S
C2701 C2707 1.363 . S
C2702 C2703 1.363 . S
C2702 C2707 1.379 . S
C2702 N2709 1.356 . S
C2703 C2702 1.363 . S
C2703 C2706 1.363 . S
N2704 C2706 1.356 . S
N2704 H2716 0.984 . S
N2704 H2717 0.985 . S
N2705 C2707 1.356 . S
N2705 H2710 0.984 . S
N2705 H2711 0.985 . S
C2706 C2700 1.379 . S
C2706 C2703 1.363 . S
C2706 N2704 1.356 . S
C2707 C2701 1.363 . S
C2707 C2702 1.379 . S
C2707 N2705 1.356 . S
N2708 C2700 1.356 . S
N2708 H2714 0.984 . S
N2708 H2715 0.984 . S
N2709 C2702 1.356 . S
N2709 H2712 0.984 . S
N2709 H2713 0.985 . S
H2710 N2705 0.984 . S
H2711 N2705 0.985 . S
H2712 N2709 0.984 . S
H2713 N2709 0.985 . S
H2714 N2708 0.984 . S
H2715 N2708 0.984 . S
H2716 N2704 0.984 . S
H2717 N2704 0.985 . S
C2718 C2719 1.363 . S
C2718 C2724 1.379 . S
C2718 N2726 1.356 . S
C2719 C2718 1.363 . S
C2719 C2725 1.363 . S
C2720 C2721 1.363 . S
C2720 C2725 1.379 . S
C2720 N2727 1.356 . S
C2721 C2720 1.363 . S
C2721 C2724 1.363 . S
N2722 C2724 1.356 . S
N2722 H2734 0.984 . S
N2722 H2735 0.985 . S
N2723 C2725 1.356 . S
N2723 H2728 0.984 . S
N2723 H2729 0.985 . S
C2724 C2718 1.379 . S
C2724 C2721 1.363 . S
C2724 N2722 1.356 . S
C2725 C2719 1.363 . S
C2725 C2720 1.379 . S
C2725 N2723 1.356 . S
N2726 C2718 1.356 . S
N2726 H2732 0.984 . S
N2726 H2733 0.984 . S
N2727 C2720 1.356 . S
N2727 H2730 0.984 . S
N2727 H2731 0.985 . S
H2728 N2723 0.984 . S
H2729 N2723 0.985 . S
H2730 N2727 0.984 . S
H2731 N2727 0.985 . S
H2732 N2726 0.984 . S
H2733 N2726 0.984 . S
H2734 N2722 0.984 . S
H2735 N2722 0.985 . S
C2736 C2737 1.363 . S
C2736 C2742 1.379 . S
C2736 N2744 1.356 . S
C2737 C2736 1.363 . S
C2737 C2743 1.363 . S
C2738 C2739 1.363 . S
C2738 C2743 1.379 . S
C2738 N2745 1.356 . S
C2739 C2738 1.363 . S
C2739 C2742 1.363 . S
N2740 C2742 1.356 . S
N2740 H2752 0.984 . S
N2740 H2753 0.985 . S
N2741 C2743 1.356 . S
N2741 H2746 0.984 . S
N2741 H2747 0.985 . S
C2742 C2736 1.379 . S
C2742 C2739 1.363 . S
C2742 N2740 1.356 . S
C2743 C2737 1.363 . S
C2743 C2738 1.379 . S
C2743 N2741 1.356 . S
N2744 C2736 1.356 . S
N2744 H2750 0.984 . S
N2744 H2751 0.984 . S
N2745 C2738 1.356 . S
N2745 H2748 0.984 . S
N2745 H2749 0.985 . S
H2746 N2741 0.984 . S
H2747 N2741 0.985 . S
H2748 N2745 0.984 . S
H2749 N2745 0.985 . S
H2750 N2744 0.984 . S
H2751 N2744 0.984 . S
H2752 N2740 0.984 . S
H2753 N2740 0.985 . S
C2754 C2755 1.363 . S
C2754 C2760 1.379 . S
C2754 N2762 1.356 . S
C2755 C2754 1.363 . S
C2755 C2761 1.363 1_655 S
C2756 C2757 1.363 1_455 S
C2756 C2761 1.379 . S
C2756 N2763 1.356 . S
C2757 C2756 1.363 1_655 S
C2757 C2760 1.363 . S
N2758 C2760 1.356 . S
N2758 H2770 0.984 . S
N2758 H2771 0.985 . S
N2759 C2761 1.356 . S
N2759 H2764 0.984 . S
N2759 H2765 0.985 . S
C2760 C2754 1.379 . S
C2760 C2757 1.363 . S
C2760 N2758 1.356 . S
C2761 C2755 1.363 1_455 S
C2761 C2756 1.379 . S
C2761 N2759 1.356 . S
N2762 C2754 1.356 . S
N2762 H2768 0.984 . S
N2762 H2769 0.984 . S
N2763 C2756 1.356 . S
N2763 H2766 0.984 . S
N2763 H2767 0.985 . S
H2764 N2759 0.984 . S
H2765 N2759 0.985 . S
H2766 N2763 0.984 . S
H2767 N2763 0.985 . S
H2768 N2762 0.984 . S
H2769 N2762 0.984 . S
H2770 N2758 0.984 . S
H2771 N2758 0.985 . S
C2772 C2773 1.363 . S
C2772 C2778 1.379 . S
C2772 N2780 1.356 . S
C2773 C2772 1.363 . S
C2773 C2779 1.363 . S
C2774 C2775 1.363 . S
C2774 C2779 1.379 . S
C2774 N2781 1.356 . S
C2775 C2774 1.363 . S
C2775 C2778 1.363 . S
N2776 C2778 1.356 . S
N2776 H2788 0.984 . S
N2776 H2789 0.985 . S
N2777 C2779 1.356 . S
N2777 H2782 0.984 . S
N2777 H2783 0.985 . S
C2778 C2772 1.379 . S
C2778 C2775 1.363 . S
C2778 N2776 1.356 . S
C2779 C2773 1.363 . S
C2779 C2774 1.379 . S
C2779 N2777 1.356 . S
N2780 C2772 1.356 . S
N2780 H2786 0.984 . S
N2780 H2787 0.984 . S
N2781 C2774 1.356 . S
N2781 H2784 0.984 . S
N2781 H2785 0.985 . S
H2782 N2777 0.984 . S
H2783 N2777 0.985 . S
H2784 N2781 0.984 . S
H2785 N2781 0.985 . S
H2786 N2780 0.984 . S
H2787 N2780 0.984 . S
H2788 N2776 0.984 . S
H2789 N2776 0.985 . S
C2790 C2791 1.363 . S
C2790 C2796 1.379 . S
C2790 N2798 1.356 . S
C2791 C2790 1.363 . S
C2791 C2797 1.363 1_545 S
C2792 C2793 1.363 1_565 S
C2792 C2797 1.379 . S
C2792 N2799 1.356 . S
C2793 C2792 1.363 1_545 S
C2793 C2796 1.363 . S
N2794 C2796 1.356 . S
N2794 H2806 0.984 . S
N2794 H2807 0.985 . S
N2795 C2797 1.356 . S
N2795 H2800 0.984 . S
N2795 H2801 0.985 . S
C2796 C2790 1.379 . S
C2796 C2793 1.363 . S
C2796 N2794 1.356 . S
C2797 C2791 1.363 1_565 S
C2797 C2792 1.379 . S
C2797 N2795 1.356 . S
N2798 C2790 1.356 . S
N2798 H2804 0.984 . S
N2798 H2805 0.984 . S
N2799 C2792 1.356 . S
N2799 H2802 0.984 . S
N2799 H2803 0.985 . S
H2800 N2795 0.984 . S
H2801 N2795 0.985 . S
H2802 N2799 0.984 . S
H2803 N2799 0.985 . S
H2804 N2798 0.984 . S
H2805 N2798 0.984 . S
H2806 N2794 0.984 . S
H2807 N2794 0.985 . S
C1513 C4 1.489 . S
C1515 C1125 1.473 . S
C1531 C38 1.724 . S
C1533 C1173 1.717 . S
C1551 C1221 1.495 . S
C1549 C74 1.479 . S
C1567 C76 1.448 . S
C1569 C1245 1.474 . S
C1585 C2 1.553 . S
C1587 C1317 1.587 . S
C1603 C40 1.571 . S
C1605 C1365 1.559 . S
C1621 C110 1.528 . S
C1623 C1293 1.562 . S
C1641 C1341 1.566 . S
C1639 C148 1.587 . S
C1659 C1269 1.547 . S
C1657 C182 1.528 . S
C1675 C184 1.491 . S
C1677 C1197 1.522 . S
C1695 C1101 1.471 . S
C1693 C112 1.456 . S
C1711 C146 1.670 . S
C1713 C1149 1.659 . S
C1729 C220 1.657 . S
C1731 C1413 1.639 . S
C1747 C254 1.799 . S
C1749 C1461 1.778 . S
C1767 C1485 1.639 . S
C1765 C290 1.687 . S
C1783 C292 1.580 . S
C1785 C669 1.550 . S
C1801 C218 1.711 . S
C1803 C741 1.704 . S
C1819 C256 1.608 . S
C1821 C789 1.586 . S
C1837 C326 1.706 . S
C1839 C717 1.688 . S
C1855 C364 1.643 . S
C1857 C765 1.613 . S
C1875 C693 1.645 . S
C1873 C398 1.714 . S
C1893 C1509 1.619 . S
C1891 C400 1.673 . S
C1911 C1389 1.550 . S
C1909 C328 1.570 . S
C1929 C1437 1.720 . S
C1927 C362 1.744 . S
C1945 C436 1.600 . S
C1947 C837 1.582 . S
C1963 C470 1.774 . S
C1965 C885 1.756 . S
C1981 C506 1.682 . S
C1983 C909 1.640 . S
C1999 C508 1.638 . S
C2001 C957 1.606 . S
C2019 C1029 1.701 . S
C2017 C434 1.712 . S
C2037 C1077 1.608 . S
C2035 C472 1.632 . S
C2055 C1005 1.753 . S
C2053 C542 1.771 . S
C2073 C1053 1.630 . S
C2071 C580 1.662 . S
C2089 C614 1.710 . S
C2091 C981 1.635 . S
C2109 C933 1.557 . S
C2107 C616 1.609 . S
C2125 C544 1.574 . S
C2127 C813 1.557 . S
C2145 C861 1.690 . S
C2143 C578 1.710 . S
C2163 C678 1.656 . S
C2161 C14 1.655 . S
C2179 C39 1.579 . S
C2181 C732 1.538 . S
C2199 C780 1.544 . S
C2197 C75 1.591 . S
C2217 C828 1.487 . S
C2215 C86 1.513 . S
C2235 C876 1.581 . S
C2233 C3 1.620 . S
C2253 C918 1.585 . S
C2251 C50 1.585 . S
C2269 C111 1.604 . S
C2271 C924 1.587 . S
C2287 C158 1.551 . S
C2289 C822 1.488 . S
C2305 C183 1.692 . S
C2307 C870 1.627 . S
C2323 C194 1.630 . S
C2325 C726 1.586 . S
C2343 C774 1.515 . S
C2341 C122 1.581 . S
C2359 C147 1.508 . S
C2361 C684 1.491 . S
C2379 C966 1.621 . S
C2377 C230 1.623 . S
C2395 C255 1.657 . S
C2397 C1020 1.616 . S
C2413 C291 1.612 . S
C2415 C1068 1.564 . S
C2433 C1116 1.374 . S
C2431 C302 1.325 . S
C2449 C219 1.589 . S
C2451 C1164 1.555 . S
C2467 C266 1.393 . S
C2469 C1212 1.454 . S
C2485 C327 1.392 . S
C2487 C1206 1.383 . S
C2503 C374 1.372 . S
C2505 C1110 1.413 . S
C2523 C1158 1.594 . S
C2521 C399 1.653 . S
C2539 C410 1.602 . S
C2541 C1014 1.559 . S
C2557 C338 1.605 . S
C2559 C1062 1.560 . S
C2577 C972 1.568 . S
C2575 C363 1.588 . S
C2595 C1254 1.456 . S
C2593 C446 1.397 . S
C2611 C471 1.439 . S
C2613 C1308 1.436 . S
C2629 C507 1.554 . S
C2631 C1356 1.512 . S
C2649 C1404 1.470 . S
C2647 C518 1.503 . S
C2667 C1452 1.614 . S
C2665 C435 1.654 . S
C2683 C482 1.641 . S
C2685 C1494 1.655 . S
C2701 C543 1.563 . S
C2703 C1500 1.539 . S
C2719 C590 1.610 . S
C2721 C1398 1.566 . S
C2739 C1446 1.642 . S
C2737 C615 1.705 . S
C2757 C1302 1.453 . S
C2755 C626 1.389 . S
C2775 C1350 1.517 . S
C2773 C554 1.564 . S
C2791 C579 1.393 . S
C2793 C1260 1.392 . S
