# Generated by pormake.
# Topology ctn, (3,4)-cn, num edge types: 1
# Building blocks:
#     Node 0, Type 0, BuildingBlock: QEWDON_clean_linker_0, # of connection points: 3
#     Node 1, Type 0, BuildingBlock: QEWDON_clean_linker_0, # of connection points: 3
#     Node 2, Type 0, BuildingBlock: QEWDON_clean_linker_0, # of connection points: 3
#     Node 3, Type 0, BuildingBlock: QEWDON_clean_linker_0, # of connection points: 3
#     Node 4, Type 0, BuildingBlock: QEWDON_clean_linker_0, # of connection points: 3
#     Node 5, Type 0, BuildingBlock: QEWDON_clean_linker_0, # of connection points: 3
#     Node 6, Type 0, BuildingBlock: QEWDON_clean_linker_0, # of connection points: 3
#     Node 7, Type 0, BuildingBlock: QEWDON_clean_linker_0, # of connection points: 3
#     Node 8, Type 0, BuildingBlock: QEWDON_clean_linker_0, # of connection points: 3
#     Node 9, Type 0, BuildingBlock: QEWDON_clean_linker_0, # of connection points: 3
#     Node 10, Type 0, BuildingBlock: QEWDON_clean_linker_0, # of connection points: 3
#     Node 11, Type 0, BuildingBlock: QEWDON_clean_linker_0, # of connection points: 3
#     Node 12, Type 0, BuildingBlock: QEWDON_clean_linker_0, # of connection points: 3
#     Node 13, Type 0, BuildingBlock: QEWDON_clean_linker_0, # of connection points: 3
#     Node 14, Type 0, BuildingBlock: QEWDON_clean_linker_0, # of connection points: 3
#     Node 15, Type 0, BuildingBlock: QEWDON_clean_linker_0, # of connection points: 3
#     Node 16, Type 1, BuildingBlock: KUFVIS_clean_sbu_0, # of connection points: 4
#     Node 17, Type 1, BuildingBlock: KUFVIS_clean_sbu_0, # of connection points: 4
#     Node 18, Type 1, BuildingBlock: KUFVIS_clean_sbu_0, # of connection points: 4
#     Node 19, Type 1, BuildingBlock: KUFVIS_clean_sbu_0, # of connection points: 4
#     Node 20, Type 1, BuildingBlock: KUFVIS_clean_sbu_0, # of connection points: 4
#     Node 21, Type 1, BuildingBlock: KUFVIS_clean_sbu_0, # of connection points: 4
#     Node 22, Type 1, BuildingBlock: KUFVIS_clean_sbu_0, # of connection points: 4
#     Node 23, Type 1, BuildingBlock: KUFVIS_clean_sbu_0, # of connection points: 4
#     Node 24, Type 1, BuildingBlock: KUFVIS_clean_sbu_0, # of connection points: 4
#     Node 25, Type 1, BuildingBlock: KUFVIS_clean_sbu_0, # of connection points: 4
#     Node 26, Type 1, BuildingBlock: KUFVIS_clean_sbu_0, # of connection points: 4
#     Node 27, Type 1, BuildingBlock: KUFVIS_clean_sbu_0, # of connection points: 4
#     Edge 28, Type (0, 1), BuildingBlock: UVAHIK_clean_linker_0, # of connection points: 2
#     Edge 29, Type (0, 1), BuildingBlock: UVAHIK_clean_linker_0, # of connection points: 2
#     Edge 30, Type (0, 1), BuildingBlock: UVAHIK_clean_linker_0, # of connection points: 2
#     Edge 31, Type (0, 1), BuildingBlock: UVAHIK_clean_linker_0, # of connection points: 2
#     Edge 32, Type (0, 1), BuildingBlock: UVAHIK_clean_linker_0, # of connection points: 2
#     Edge 33, Type (0, 1), BuildingBlock: UVAHIK_clean_linker_0, # of connection points: 2
#     Edge 34, Type (0, 1), BuildingBlock: UVAHIK_clean_linker_0, # of connection points: 2
#     Edge 35, Type (0, 1), BuildingBlock: UVAHIK_clean_linker_0, # of connection points: 2
#     Edge 36, Type (0, 1), BuildingBlock: UVAHIK_clean_linker_0, # of connection points: 2
#     Edge 37, Type (0, 1), BuildingBlock: UVAHIK_clean_linker_0, # of connection points: 2
#     Edge 38, Type (0, 1), BuildingBlock: UVAHIK_clean_linker_0, # of connection points: 2
#     Edge 39, Type (0, 1), BuildingBlock: UVAHIK_clean_linker_0, # of connection points: 2
#     Edge 40, Type (0, 1), BuildingBlock: UVAHIK_clean_linker_0, # of connection points: 2
#     Edge 41, Type (0, 1), BuildingBlock: UVAHIK_clean_linker_0, # of connection points: 2
#     Edge 42, Type (0, 1), BuildingBlock: UVAHIK_clean_linker_0, # of connection points: 2
#     Edge 43, Type (0, 1), BuildingBlock: UVAHIK_clean_linker_0, # of connection points: 2
#     Edge 44, Type (0, 1), BuildingBlock: UVAHIK_clean_linker_0, # of connection points: 2
#     Edge 45, Type (0, 1), BuildingBlock: UVAHIK_clean_linker_0, # of connection points: 2
#     Edge 46, Type (0, 1), BuildingBlock: UVAHIK_clean_linker_0, # of connection points: 2
#     Edge 47, Type (0, 1), BuildingBlock: UVAHIK_clean_linker_0, # of connection points: 2
#     Edge 48, Type (0, 1), BuildingBlock: UVAHIK_clean_linker_0, # of connection points: 2
#     Edge 49, Type (0, 1), BuildingBlock: UVAHIK_clean_linker_0, # of connection points: 2
#     Edge 50, Type (0, 1), BuildingBlock: UVAHIK_clean_linker_0, # of connection points: 2
#     Edge 51, Type (0, 1), BuildingBlock: UVAHIK_clean_linker_0, # of connection points: 2
#     Edge 52, Type (0, 1), BuildingBlock: UVAHIK_clean_linker_0, # of connection points: 2
#     Edge 53, Type (0, 1), BuildingBlock: UVAHIK_clean_linker_0, # of connection points: 2
#     Edge 54, Type (0, 1), BuildingBlock: UVAHIK_clean_linker_0, # of connection points: 2
#     Edge 55, Type (0, 1), BuildingBlock: UVAHIK_clean_linker_0, # of connection points: 2
#     Edge 56, Type (0, 1), BuildingBlock: UVAHIK_clean_linker_0, # of connection points: 2
#     Edge 57, Type (0, 1), BuildingBlock: UVAHIK_clean_linker_0, # of connection points: 2
#     Edge 58, Type (0, 1), BuildingBlock: UVAHIK_clean_linker_0, # of connection points: 2
#     Edge 59, Type (0, 1), BuildingBlock: UVAHIK_clean_linker_0, # of connection points: 2
#     Edge 60, Type (0, 1), BuildingBlock: UVAHIK_clean_linker_0, # of connection points: 2
#     Edge 61, Type (0, 1), BuildingBlock: UVAHIK_clean_linker_0, # of connection points: 2
#     Edge 62, Type (0, 1), BuildingBlock: UVAHIK_clean_linker_0, # of connection points: 2
#     Edge 63, Type (0, 1), BuildingBlock: UVAHIK_clean_linker_0, # of connection points: 2
#     Edge 64, Type (0, 1), BuildingBlock: UVAHIK_clean_linker_0, # of connection points: 2
#     Edge 65, Type (0, 1), BuildingBlock: UVAHIK_clean_linker_0, # of connection points: 2
#     Edge 66, Type (0, 1), BuildingBlock: UVAHIK_clean_linker_0, # of connection points: 2
#     Edge 67, Type (0, 1), BuildingBlock: UVAHIK_clean_linker_0, # of connection points: 2
#     Edge 68, Type (0, 1), BuildingBlock: UVAHIK_clean_linker_0, # of connection points: 2
#     Edge 69, Type (0, 1), BuildingBlock: UVAHIK_clean_linker_0, # of connection points: 2
#     Edge 70, Type (0, 1), BuildingBlock: UVAHIK_clean_linker_0, # of connection points: 2
#     Edge 71, Type (0, 1), BuildingBlock: UVAHIK_clean_linker_0, # of connection points: 2
#     Edge 72, Type (0, 1), BuildingBlock: UVAHIK_clean_linker_0, # of connection points: 2
#     Edge 73, Type (0, 1), BuildingBlock: UVAHIK_clean_linker_0, # of connection points: 2
#     Edge 74, Type (0, 1), BuildingBlock: UVAHIK_clean_linker_0, # of connection points: 2
#     Edge 75, Type (0, 1), BuildingBlock: UVAHIK_clean_linker_0, # of connection points: 2
# Relax obj value: 0.122
# Max RMSD: 0.270
# Mean RMSD: 0.162
data_MOF--net-ctn--node1-KUFVIS_clean_sbu_0--node2-QEWDON_clean_linker_0--edge1-UVAHIK_clean_linker_0
_symmetry_space_group_name_H-M    P1
_symmetry_Int_Tables_number       1
_symmetry_cell_setting            triclinic
loop_
_symmetry_equiv_pos_as_xyz
'x, y, z'
_cell_length_a     67.60041
_cell_length_b     70.338694
_cell_length_c     75.109112
_cell_angle_alpha  98.840256
_cell_angle_beta   92.478606
_cell_angle_gamma 96.722514
loop_
_atom_site_label
_atom_site_type_symbol
_atom_site_fract_x
_atom_site_fract_y
_atom_site_fract_z
_atom_type_partial_charge
H0 H 0.09226 0.04437 0.04767 0.0
C1 C 0.08473 0.0416 0.05961 0.0
C2 C 0.08611 0.02414 0.06643 0.0
C3 C 0.07449 0.05608 0.06866 0.0
H4 H 0.07714 0.00803 0.08778 0.0
C5 C 0.07594 0.02105 0.08197 0.0
C6 C 0.06515 0.03522 0.09086 0.0
C7 C 0.0647 0.05275 0.08419 0.0
C8 C 0.07602 0.0756 0.06329 0.0
H9 H 0.05678 0.06394 0.09116 0.0
C10 C 0.07014 0.07832 0.04569 0.0
C11 C 0.07241 0.09706 0.04096 0.0
C12 C 0.08401 0.09176 0.07602 0.0
H13 H 0.08872 0.09 0.08959 0.0
C14 C 0.08636 0.11025 0.07131 0.0
H15 H 0.06387 0.06597 0.0358 0.0
C16 C 0.08068 0.11291 0.0539 0.0
H17 H 0.08246 0.12746 0.0506 0.0
H18 H 0.09262 0.12258 0.0812 0.0
H19 H 0.35627 0.72046 0.20795 0.0
C20 C 0.3492 0.70566 0.20396 0.0
C21 C 0.35857 0.69025 0.20886 0.0
C22 C 0.33 0.70215 0.19532 0.0
H23 H 0.35575 0.65952 0.20912 0.0
C24 C 0.34877 0.67126 0.20471 0.0
C25 C 0.32923 0.66761 0.19673 0.0
C26 C 0.32014 0.68314 0.19171 0.0
C27 C 0.31857 0.7185 0.1936 0.0
H28 H 0.30475 0.68073 0.18632 0.0
C29 C 0.32265 0.7307 0.18065 0.0
C30 C 0.31123 0.74605 0.17931 0.0
C31 C 0.30317 0.72173 0.20521 0.0
H32 H 0.29986 0.71248 0.21526 0.0
C33 C 0.29196 0.73692 0.20402 0.0
H34 H 0.33454 0.7282 0.17168 0.0
C35 C 0.29589 0.74897 0.19117 0.0
H36 H 0.28659 0.76037 0.19028 0.0
H37 H 0.28007 0.73928 0.21299 0.0
H38 H 0.03001 0.47463 0.03732 0.0
C39 C 0.01793 0.48312 0.0354 0.0
C40 C 0.00931 0.49272 0.05043 0.0
C41 C 0.01196 0.48538 0.01783 0.0
H42 H 0.98741 0.5118 0.05893 0.0
C43 C 0.99414 0.5043 0.0475 0.0
C44 C 0.98796 0.50664 0.02989 0.0
C45 C 0.99698 0.49704 0.01519 0.0
C46 C 0.02211 0.47659 1.00214 0.0
H47 H 0.99229 0.4985 1.00153 0.0
C48 C 0.02232 0.4564 0.99822 0.0
C49 C 0.03078 0.44816 0.98249 0.0
C50 C 0.031 0.48852 0.99056 0.0
H51 H 0.03105 0.5041 0.99339 0.0
C52 C 0.03991 0.48045 0.97527 0.0
H53 H 0.01511 0.44711 0.00693 0.0
C54 C 0.03971 0.46041 0.97117 0.0
H55 H 0.0465 0.45445 0.95909 0.0
H56 H 0.04678 0.48975 0.96645 0.0
H57 H 0.75537 0.81378 0.23061 0.0
C58 C 0.75622 0.80714 0.21671 0.0
C59 C 0.76577 0.8178 0.20433 0.0
C60 C 0.74884 0.78746 0.21159 0.0
H61 H 0.77442 0.81614 0.17668 0.0
C62 C 0.76655 0.80862 0.18633 0.0
C63 C 0.75864 0.78913 0.18095 0.0
C64 C 0.74985 0.7787 0.19364 0.0
C65 C 0.74237 0.77532 0.2253 0.0
H66 H 0.74413 0.76351 0.18961 0.0
C67 C 0.72839 0.78086 0.23787 0.0
C68 C 0.72262 0.76902 0.25079 0.0
C69 C 0.75064 0.75797 0.2259 0.0
H70 H 0.76163 0.75352 0.21656 0.0
C71 C 0.74506 0.74631 0.23867 0.0
H72 H 0.72199 0.79423 0.23752 0.0
C73 C 0.73113 0.75171 0.25099 0.0
H74 H 0.72675 0.74212 0.2605 0.0
H75 H 0.75149 0.73296 0.23897 0.0
H76 H 0.0987 0.95861 0.49351 0.0
C77 C 0.08912 0.96463 0.48445 0.0
C78 C 0.09613 0.98188 0.47821 0.0
C79 C 0.07054 0.95425 0.47766 0.0
H80 H 0.09005 1.00195 0.4603 0.0
C81 C 0.08436 0.98893 0.46547 0.0
C82 C 0.06566 0.97903 0.45887 0.0
C83 C 0.0587 0.96187 0.46522 0.0
C84 C 0.06498 0.93403 0.4809 0.0
H85 H 0.04459 0.95378 0.45962 0.0
C86 C 0.06485 0.92906 0.49844 0.0
C87 C 0.06016 0.90951 0.50073 0.0
C88 C 0.06032 0.9193 0.46589 0.0
H89 H 0.06057 0.92265 0.45228 0.0
C90 C 0.05572 0.90005 0.46816 0.0
H91 H 0.06842 0.94025 0.51013 0.0
C92 C 0.05567 0.89515 0.48542 0.0
H93 H 0.05186 0.88008 0.48683 0.0
H94 H 0.05222 0.88885 0.45648 0.0
H95 H 0.27135 0.67868 0.79114 0.0
C96 C 0.26686 0.6862 0.80374 0.0
C97 C 0.2741 0.6816 0.82014 0.0
C98 C 0.25406 0.70051 0.80337 0.0
H99 H 0.27412 0.68825 0.84912 0.0
C100 C 0.26825 0.69146 0.8364 0.0
C101 C 0.25559 0.70601 0.83635 0.0
C102 C 0.24823 0.71017 0.81973 0.0
C103 C 0.24839 0.70645 0.78591 0.0
H104 H 0.239 0.72175 0.81951 0.0
C105 C 0.22839 0.7081 0.78089 0.0
C106 C 0.22333 0.71284 0.76382 0.0
C107 C 0.26328 0.71021 0.77396 0.0
H108 H 0.27879 0.70932 0.77759 0.0
C109 C 0.25837 0.71532 0.75727 0.0
H110 H 0.21677 0.70502 0.78991 0.0
C111 C 0.23857 0.71654 0.75218 0.0
H112 H 0.23515 0.72051 0.73911 0.0
H113 H 0.26997 0.71825 0.74821 0.0
H114 H 0.00306 0.57488 0.46538 0.0
C115 C 0.99178 0.56454 0.46962 0.0
C116 C 0.98706 0.56626 0.48787 0.0
C117 C 0.98111 0.55021 0.45651 0.0
H118 H 0.96752 0.55423 0.50658 0.0
C119 C 0.97203 0.55271 0.49282 0.0
C120 C 0.96152 0.53809 0.47985 0.0
C121 C 0.9662 0.53698 0.46173 0.0
C122 C 0.98301 0.551 0.4371 0.0
H123 H 0.95784 0.52611 0.45149 0.0
C124 C 1.00053 0.54715 0.42847 0.0
C125 C 1.00178 0.54835 0.40998 0.0
C126 C 0.96681 0.55587 0.42712 0.0
H127 H 0.95322 0.55887 0.43355 0.0
C128 C 0.96809 0.55716 0.40888 0.0
H129 H 0.01306 0.54331 0.43607 0.0
C130 C 0.98546 0.55349 0.40035 0.0
H131 H 0.98607 0.55442 0.38611 0.0
H132 H 0.95556 0.561 0.40132 0.0
H133 H 0.85467 0.83667 0.81232 0.0
C134 C 0.85331 0.82564 0.82096 0.0
C135 C 0.86192 0.80838 0.81629 0.0
C136 C 0.84356 0.82902 0.83709 0.0
H137 H 0.86698 0.78108 0.82455 0.0
C138 C 0.86009 0.79425 0.82776 0.0
C139 C 0.85046 0.79749 0.84394 0.0
C140 C 0.84229 0.81489 0.84849 0.0
C141 C 0.83604 0.84786 0.84293 0.0
H142 H 0.83484 0.81744 0.86098 0.0
C143 C 0.82323 0.85578 0.83149 0.0
C144 C 0.81601 0.87355 0.8376 0.0
C145 C 0.84166 0.85792 0.86039 0.0
H146 H 0.85162 0.85224 0.86937 0.0
C147 C 0.83464 0.87546 0.86644 0.0
H148 H 0.81883 0.84811 0.818 0.0
C149 C 0.82188 0.8832 0.85521 0.0
H150 H 0.81633 0.89665 0.86047 0.0
H151 H 0.839 0.88304 0.87995 0.0
H152 H 0.34931 0.3294 0.30744 0.0
C153 C 0.34861 0.31867 0.31639 0.0
C154 C 0.3576 0.30161 0.31191 0.0
C155 C 0.33925 0.32221 0.3327 0.0
H156 H 0.36357 0.27476 0.32062 0.0
C157 C 0.35647 0.28781 0.32374 0.0
C158 C 0.34723 0.29126 0.34011 0.0
C159 C 0.33877 0.30852 0.34451 0.0
C160 C 0.33106 0.34072 0.33823 0.0
H161 H 0.33164 0.31127 0.35715 0.0
C162 C 0.3159 0.34667 0.32762 0.0
C163 C 0.30713 0.36343 0.33408 0.0
C164 C 0.33785 0.35207 0.3549 0.0
H165 H 0.34954 0.34782 0.36321 0.0
C166 C 0.3296 0.36893 0.36105 0.0
H167 H 0.31037 0.33786 0.31486 0.0
C168 C 0.31426 0.37452 0.35081 0.0
H169 H 0.30794 0.38759 0.35596 0.0
H170 H 0.33495 0.37759 0.37391 0.0
H171 H 0.52906 0.9721 0.53632 0.0
C172 C 0.51764 0.98151 0.53514 0.0
C173 C 0.51097 0.99224 0.5507 0.0
C174 C 0.51016 0.98329 0.51786 0.0
H175 H 0.49044 0.01252 0.56024 0.0
C176 C 0.49577 0.00407 0.54855 0.0
C177 C 0.48749 0.00523 0.53126 0.0
C178 C 0.49506 0.99501 0.51606 0.0
C179 C 0.51889 0.97396 0.50152 0.0
H180 H 0.48939 0.99637 0.50264 0.0
C181 C 0.51926 0.95377 0.49804 0.0
C182 C 0.52641 0.94507 0.4818 0.0
C183 C 0.52632 0.98543 0.48896 0.0
H184 H 0.52628 1.00101 0.49144 0.0
C185 C 0.53391 0.97692 0.47312 0.0
H186 H 0.51321 0.94481 0.50753 0.0
C187 C 0.53386 0.95688 0.46948 0.0
H188 H 0.53964 0.95057 0.45699 0.0
H189 H 0.53965 0.98587 0.46354 0.0
H190 H 0.24942 0.31371 0.72783 0.0
C191 C 0.25072 0.30716 0.71399 0.0
C192 C 0.26006 0.31812 0.7017 0.0
C193 C 0.24427 0.28728 0.70891 0.0
H194 H 0.26913 0.31668 0.67417 0.0
C195 C 0.26138 0.30898 0.68375 0.0
C196 C 0.25425 0.28929 0.67838 0.0
C197 C 0.24574 0.2786 0.69101 0.0
C198 C 0.23877 0.2749 0.72271 0.0
H199 H 0.24075 0.26325 0.687 0.0
C200 C 0.22496 0.27983 0.73566 0.0
C201 C 0.22062 0.26804 0.74893 0.0
C202 C 0.24814 0.25814 0.72322 0.0
H203 H 0.25905 0.25418 0.71362 0.0
C204 C 0.24386 0.24649 0.7363 0.0
H205 H 0.21767 0.29273 0.73542 0.0
C206 C 0.23022 0.25136 0.74906 0.0
H207 H 0.22695 0.24188 0.75892 0.0
H208 H 0.25116 0.23362 0.73654 0.0
H209 H 0.85529 0.22536 0.70658 0.0
C210 C 0.84745 0.21078 0.70339 0.0
C211 C 0.85579 0.1953 0.70937 0.0
C212 C 0.82833 0.2077 0.69458 0.0
H213 H 0.85118 0.16495 0.71146 0.0
C214 C 0.84502 0.17669 0.70622 0.0
C215 C 0.8256 0.17354 0.698 0.0
C216 C 0.81755 0.18906 0.69187 0.0
C217 C 0.81799 0.22436 0.69132 0.0
H218 H 0.80229 0.18702 0.68618 0.0
C219 C 0.82387 0.23578 0.67815 0.0
C220 C 0.81326 0.25125 0.67507 0.0
C221 C 0.80167 0.22858 0.70149 0.0
H222 H 0.79697 0.21996 0.7117 0.0
C223 C 0.7913 0.24391 0.69864 0.0
H224 H 0.83647 0.23252 0.67028 0.0
C225 C 0.79695 0.25512 0.68551 0.0
H226 H 0.78821 0.2666 0.68328 0.0
H227 H 0.77868 0.24701 0.70651 0.0
H228 H 0.59316 0.54063 0.54732 0.0
C229 C 0.58539 0.53764 0.5591 0.0
C230 C 0.58672 0.52008 0.56575 0.0
C231 C 0.57489 0.55195 0.56808 0.0
H232 H 0.57738 0.50362 0.58677 0.0
C233 C 0.57624 0.5167 0.58106 0.0
C234 C 0.5652 0.5307 0.58987 0.0
C235 C 0.56478 0.54831 0.58337 0.0
C236 C 0.57639 0.57158 0.56293 0.0
H237 H 0.55663 0.55933 0.5903 0.0
C238 C 0.5715 0.57443 0.54515 0.0
C239 C 0.5737 0.59329 0.54072 0.0
C240 C 0.58331 0.58773 0.57609 0.0
H241 H 0.58729 0.5859 0.5898 0.0
C242 C 0.58558 0.60635 0.57164 0.0
H243 H 0.56604 0.56212 0.5349 0.0
C244 C 0.58089 0.60913 0.55406 0.0
H245 H 0.58265 0.62373 0.55089 0.0
H246 H 0.59104 0.61867 0.58186 0.0
H247 H 0.59937 0.46446 0.99338 0.0
C248 C 0.58852 0.46912 0.98446 0.0
C249 C 0.59301 0.48662 0.97776 0.0
C250 C 0.57095 0.45675 0.97818 0.0
H251 H 0.58342 0.50513 0.95961 0.0
C252 C 0.57951 0.49199 0.96525 0.0
C253 C 0.56183 0.47986 0.95894 0.0
C254 C 0.55764 0.46229 0.9656 0.0
C255 C 0.56828 0.43649 0.98165 0.0
H256 H 0.54437 0.45246 0.96043 0.0
C257 C 0.56309 0.43167 0.99855 0.0
C258 C 0.55916 0.41201 1.0007 0.0
C259 C 0.57016 0.42163 0.96727 0.0
H260 H 0.57417 0.42507 0.95421 0.0
C261 C 0.56679 0.40226 0.96952 0.0
H262 H 0.56139 0.44305 0.00966 0.0
C263 C 0.56121 0.39745 0.98606 0.0
H264 H 0.5585 0.38227 0.98743 0.0
H265 H 0.56831 0.39093 0.95834 0.0
H266 H 0.76133 0.16946 0.28785 0.0
C267 C 0.7585 0.17894 0.30002 0.0
C268 C 0.76811 0.1773 0.31659 0.0
C269 C 0.7457 0.19306 0.29871 0.0
H270 H 0.77157 0.18889 0.34504 0.0
C271 C 0.76374 0.18944 0.33227 0.0
C272 C 0.7504 0.2033 0.33136 0.0
C273 C 0.74135 0.2049 0.31448 0.0
C274 C 0.73889 0.1967 0.28059 0.0
H275 H 0.73152 0.21586 0.31349 0.0
C276 C 0.71888 0.19907 0.27634 0.0
C277 C 0.71288 0.20188 0.25879 0.0
C278 C 0.75285 0.19785 0.26731 0.0
H279 H 0.7684 0.19649 0.2703 0.0
C280 C 0.74703 0.20099 0.25011 0.0
H281 H 0.70794 0.19809 0.2864 0.0
C282 C 0.7272 0.20291 0.24583 0.0
H283 H 0.72308 0.20538 0.23235 0.0
H284 H 0.75793 0.20191 0.24004 0.0
H285 H 0.49507 0.07021 0.9633 0.0
C286 C 0.48509 0.0599 0.96907 0.0
C287 C 0.47968 0.06462 0.98695 0.0
C288 C 0.47606 0.04278 0.95811 0.0
H289 H 0.4613 0.05547 0.00763 0.0
C290 C 0.46572 0.05175 0.99395 0.0
C291 C 0.45705 0.03438 0.98333 0.0
C292 C 0.46242 0.02992 0.96548 0.0
C293 C 0.47787 0.03992 0.93831 0.0
H294 H 0.45504 0.01698 0.95693 0.0
C295 C 0.49644 0.03891 0.93057 0.0
C296 C 0.49738 0.0366 0.91165 0.0
C297 C 0.46047 0.03856 0.92699 0.0
H298 H 0.44607 0.03944 0.93265 0.0
C299 C 0.46147 0.0364 0.90832 0.0
H300 H 0.50995 0.0399 0.93913 0.0
C301 C 0.47981 0.03548 0.90067 0.0
H302 H 0.48027 0.03371 0.88611 0.0
H303 H 0.44799 0.03546 0.89975 0.0
Mn304 Mn 0.26027 0.87032 0.01725 0.0
Mn305 Mn 0.25877 0.88456 0.97632 0.0
C306 C 0.24653 0.84893 0.99198 0.0
C307 C 0.27605 0.8572 0.03995 0.0
C308 C 0.23118 0.89707 0.00546 0.0
O309 O 0.28118 0.89426 0.02064 0.0
O310 O 0.27988 0.90169 0.99238 0.0
C311 C 0.29816 0.87475 0.96477 0.0
N312 N 0.27793 0.8726 0.9619 0.0
C313 C 0.27923 0.85031 0.93438 0.0
C314 C 0.30008 0.85237 0.93698 0.0
C315 C 0.30958 0.86462 0.95226 0.0
C316 C 0.26864 0.86082 0.94727 0.0
H317 H 0.30552 0.88407 0.97654 0.0
C318 C 0.2871 0.90449 0.00876 0.0
O319 O 0.26247 0.86861 0.04341 0.0
O320 O 0.28085 0.85373 0.02331 0.0
N321 N 0.2391 0.86885 0.95951 0.0
C322 C 0.21884 0.86765 0.95951 0.0
C323 C 0.20706 0.85563 0.94535 0.0
C324 C 0.21624 0.84504 0.93131 0.0
C325 C 0.23712 0.84659 0.93156 0.0
C326 C 0.24808 0.85891 0.94595 0.0
H327 H 0.21171 0.87574 0.97027 0.0
O328 O 0.24142 0.84622 0.00797 0.0
O329 O 0.25912 0.86419 0.9914 0.0
O330 O 0.23757 0.88721 0.01688 0.0
O331 O 0.23825 0.89741 0.98999 0.0
C332 C 0.24749 0.83616 0.91824 0.0
C333 C 0.26852 0.83797 0.91968 0.0
H334 H 0.30894 0.84451 0.92741 0.0
H335 H 0.32566 0.86621 0.95441 0.0
H336 H 0.19096 0.85447 0.94528 0.0
H337 H 0.20711 0.83565 0.9205 0.0
H338 H 0.23942 0.82653 0.90694 0.0
H339 H 0.2763 0.82965 0.9095 0.0
Mn340 Mn 0.1574 0.49717 0.24134 0.0
Mn341 Mn 0.14848 0.54349 0.24207 0.0
C342 C 0.17831 0.5182 0.22744 0.0
C343 C 0.1728 0.47449 0.25502 0.0
C344 C 0.1249 0.50931 0.2173 0.0
O345 O 0.13803 0.50096 0.26147 0.0
O346 O 0.13529 0.53264 0.26203 0.0
C347 C 0.17079 0.56109 0.27659 0.0
N348 N 0.16756 0.56043 0.25847 0.0
C349 C 0.19274 0.58761 0.25852 0.0
C350 C 0.19627 0.58865 0.2772 0.0
C351 C 0.18531 0.57528 0.28625 0.0
C352 C 0.17817 0.57309 0.24959 0.0
H353 H 0.16236 0.55087 0.28361 0.0
C354 C 0.13163 0.51672 0.26827 0.0
O355 O 0.15759 0.46908 0.24341 0.0
O356 O 0.17855 0.49294 0.25893 0.0
N357 N 0.16062 0.55591 0.2236 0.0
C358 C 0.1558 0.55259 0.20549 0.0
C359 C 0.16569 0.56451 0.19441 0.0
C360 C 0.18024 0.57983 0.20209 0.0
C361 C 0.18474 0.58313 0.22079 0.0
C362 C 0.1744 0.57079 0.23115 0.0
H363 H 0.14453 0.54093 0.19952 0.0
O364 O 0.17784 0.4996 0.22291 0.0
O365 O 0.16671 0.52383 0.23999 0.0
O366 O 0.13463 0.49611 0.22191 0.0
O367 O 0.12856 0.52715 0.22449 0.0
C368 C 0.19915 0.59812 0.22954 0.0
C369 C 0.20319 0.60032 0.24839 0.0
H370 H 0.20744 0.59959 0.2847 0.0
H371 H 0.188 0.57594 0.30066 0.0
H372 H 0.1621 0.56189 0.18 0.0
H373 H 0.18789 0.58895 0.19349 0.0
H374 H 0.20739 0.60789 0.22188 0.0
H375 H 0.21449 0.61175 0.25493 0.0
Mn376 Mn 0.80424 0.63848 0.99463 0.0
Mn377 Mn 0.76148 0.64925 0.97572 0.0
C378 C 0.77425 0.61929 0.99651 0.0
C379 C 0.83328 0.62339 0.99401 0.0
C380 C 0.78146 0.67131 0.01101 0.0
O381 O 0.81422 0.65713 0.97752 0.0
O382 O 0.78473 0.66079 0.96398 0.0
C383 C 0.76282 0.62653 0.93926 0.0
N384 N 0.75299 0.6309 0.95451 0.0
C385 C 0.72414 0.60867 0.94218 0.0
C386 C 0.73383 0.60418 0.92622 0.0
C387 C 0.75331 0.61304 0.92481 0.0
C388 C 0.73441 0.62215 0.95616 0.0
H389 H 0.77783 0.63322 0.9382 0.0
C390 C 0.80383 0.6637 0.96573 0.0
O391 O 0.83155 0.63874 0.00553 0.0
O392 O 0.81843 0.61725 0.98215 0.0
N393 N 0.73768 0.63888 0.98557 0.0
C394 C 0.73093 0.64388 1.00228 0.0
C395 C 0.71198 0.63566 0.00619 0.0
C396 C 0.70005 0.62264 0.99281 0.0
C397 C 0.70721 0.61792 0.97565 0.0
C398 C 0.72624 0.62649 0.97257 0.0
H399 H 0.73993 0.65402 0.01257 0.0
O400 O 0.78924 0.61928 0.00789 0.0
O401 O 0.77729 0.63028 0.98424 0.0
O402 O 0.79542 0.66076 0.01174 0.0
O403 O 0.76842 0.66886 0.99777 0.0
C404 C 0.69628 0.60491 0.96154 0.0
C405 C 0.7048 0.60016 0.94486 0.0
H406 H 0.72654 0.59379 0.91503 0.0
H407 H 0.76097 0.60949 0.91261 0.0
H408 H 0.70656 0.63939 0.01946 0.0
H409 H 0.68546 0.61629 0.99588 0.0
H410 H 0.68144 0.59819 0.96348 0.0
H411 H 0.69642 0.58979 0.93425 0.0
Mn412 Mn 0.92614 0.01586 0.27497 0.0
Mn413 Mn 0.94368 0.9724 0.26972 0.0
C414 C 0.90716 0.98873 0.25859 0.0
C415 C 0.90876 0.0394 0.29046 0.0
C416 C 0.95808 0.00438 0.24885 0.0
O417 O 0.94795 0.01948 0.29536 0.0
O418 O 0.95802 0.98969 0.29092 0.0
C419 C 0.92988 0.9588 0.30302 0.0
N420 N 0.93023 0.95608 0.2847 0.0
C421 C 0.91057 0.92485 0.28201 0.0
C422 C 0.91007 0.92727 0.30086 0.0
C423 C 0.9197 0.94435 0.3114 0.0
C424 C 0.92089 0.93977 0.27442 0.0
H425 H 0.93733 0.97187 0.31118 0.0
C426 C 0.95879 0.00694 0.29964 0.0
O427 O 0.92251 0.04382 0.27974 0.0
O428 O 0.90549 0.02138 0.29266 0.0
N429 N 0.93086 0.95419 0.24984 0.0
C430 C 0.93158 0.95473 0.23182 0.0
C431 C 0.92196 0.93907 0.21938 0.0
C432 C 0.91193 0.92295 0.2256 0.0
C433 C 0.91153 0.92268 0.2442 0.0
C434 C 0.92128 0.93874 0.25596 0.0
H435 H 0.93937 0.96703 0.22697 0.0
O436 O 0.90425 0.00598 0.25578 0.0
O437 O 0.92126 0.9879 0.27066 0.0
O438 O 0.94686 0.01654 0.25576 0.0
O439 O 0.9583 0.98766 0.25339 0.0
C440 C 0.90165 0.9072 0.25155 0.0
C441 C 0.90106 0.90833 0.27044 0.0
H442 H 0.90224 0.91616 0.30738 0.0
H443 H 0.91932 0.94636 0.32596 0.0
H444 H 0.92231 0.93941 0.20504 0.0
H445 H 0.9045 0.91091 0.21596 0.0
H446 H 0.89412 0.89451 0.24279 0.0
H447 H 0.89306 0.8965 0.27592 0.0
Mn448 Mn 0.30403 0.13647 0.49494 0.0
Mn449 Mn 0.26057 0.14541 0.47584 0.0
C450 C 0.27461 0.11664 0.49738 0.0
C451 C 0.33357 0.12219 0.49444 0.0
C452 C 0.2803 0.16885 0.51067 0.0
O453 O 0.31322 0.15477 0.47726 0.0
O454 O 0.28336 0.15729 0.46373 0.0
C455 C 0.26236 0.12201 0.43976 0.0
N456 N 0.25253 0.12635 0.45501 0.0
C457 C 0.22458 0.10259 0.44344 0.0
C458 C 0.23427 0.09809 0.42748 0.0
C459 C 0.2533 0.10776 0.42569 0.0
C460 C 0.23438 0.11687 0.45702 0.0
H461 H 0.27704 0.1293 0.4384 0.0
C462 C 0.30245 0.16074 0.46534 0.0
O463 O 0.3316 0.13769 0.50569 0.0
O464 O 0.31866 0.11545 0.4828 0.0
N465 N 0.2372 0.1346 0.48604 0.0
C466 C 0.23035 0.13989 0.50265 0.0
C467 C 0.2118 0.13107 0.50689 0.0
C468 C 0.20036 0.11711 0.49393 0.0
C469 C 0.20759 0.11209 0.47685 0.0
C470 C 0.22619 0.12136 0.4734 0.0
H471 H 0.23899 0.15072 0.51263 0.0
O472 O 0.28977 0.11737 0.50877 0.0
O473 O 0.27717 0.12733 0.48481 0.0
O474 O 0.29469 0.15883 0.5116 0.0
O475 O 0.2671 0.16564 0.49751 0.0
C476 C 0.19716 0.09813 0.46316 0.0
C477 C 0.20571 0.09329 0.44651 0.0
H478 H 0.22733 0.08709 0.4166 0.0
H479 H 0.26097 0.10423 0.41348 0.0
H480 H 0.20631 0.13504 0.5201 0.0
H481 H 0.1861 0.11027 0.49727 0.0
H482 H 0.1827 0.09079 0.46541 0.0
H483 H 0.19771 0.08224 0.43623 0.0
Mn484 Mn 0.42356 0.51374 0.77249 0.0
Mn485 Mn 0.43747 0.4687 0.76622 0.0
C486 C 0.40237 0.48775 0.75648 0.0
C487 C 0.40828 0.5387 0.78847 0.0
C488 C 0.45375 0.50017 0.74547 0.0
O489 O 0.44611 0.51581 0.79221 0.0
O490 O 0.45284 0.48483 0.78737 0.0
C491 C 0.4232 0.45526 0.79944 0.0
N492 N 0.42317 0.45286 0.7811 0.0
C493 C 0.40207 0.4224 0.77818 0.0
C494 C 0.40191 0.42451 0.79705 0.0
C495 C 0.41245 0.44106 0.80771 0.0
C496 C 0.41292 0.4371 0.7707 0.0
H497 H 0.43142 0.46788 0.80769 0.0
C498 C 0.4555 0.5021 0.79626 0.0
O499 O 0.42187 0.54208 0.7773 0.0
O500 O 0.40415 0.52085 0.79101 0.0
N501 N 0.42339 0.45153 0.74628 0.0
C502 C 0.42402 0.45232 0.7283 0.0
C503 C 0.41354 0.43724 0.71576 0.0
C504 C 0.4028 0.42139 0.72184 0.0
C505 C 0.40252 0.42084 0.7404 0.0
C506 C 0.41308 0.43637 0.75226 0.0
H507 H 0.4324 0.46438 0.72355 0.0
O508 O 0.40061 0.50534 0.75396 0.0
O509 O 0.41655 0.48591 0.76806 0.0
O510 O 0.44343 0.51304 0.75259 0.0
O511 O 0.45298 0.48334 0.74994 0.0
C512 C 0.39208 0.40555 0.74762 0.0
C513 C 0.39177 0.40637 0.7665 0.0
H514 H 0.39368 0.41356 0.80348 0.0
H515 H 0.41237 0.44281 0.82228 0.0
H516 H 0.41382 0.43779 0.70146 0.0
H517 H 0.39475 0.40978 0.71213 0.0
H518 H 0.38393 0.39326 0.73878 0.0
H519 H 0.38337 0.3947 0.77188 0.0
Mn520 Mn 0.76597 0.37192 0.51304 0.0
Mn521 Mn 0.76041 0.38557 0.47213 0.0
C522 C 0.7521 0.34969 0.48822 0.0
C523 C 0.78415 0.3597 0.53495 0.0
C524 C 0.73424 0.3968 0.50283 0.0
O525 O 0.78549 0.39699 0.51548 0.0
O526 O 0.78166 0.40352 0.48708 0.0
C527 C 0.79941 0.3781 0.45791 0.0
N528 N 0.7791 0.3748 0.45638 0.0
C529 C 0.77942 0.35408 0.42778 0.0
C530 C 0.80034 0.35731 0.42901 0.0
C531 C 0.81037 0.3693 0.44418 0.0
C532 C 0.76931 0.36314 0.44192 0.0
H533 H 0.80717 0.38741 0.4695 0.0
C534 C 0.78997 0.40714 0.50311 0.0
O535 O 0.77008 0.37033 0.53913 0.0
O536 O 0.78816 0.35667 0.51807 0.0
N537 N 0.74037 0.36899 0.45639 0.0
C538 C 0.72023 0.36652 0.45777 0.0
C539 C 0.70803 0.3543 0.44402 0.0
C540 C 0.71663 0.34491 0.42895 0.0
C541 C 0.73739 0.34778 0.42778 0.0
C542 C 0.74879 0.36007 0.44192 0.0
H543 H 0.71354 0.37378 0.46929 0.0
O544 O 0.74823 0.34679 0.50444 0.0
O545 O 0.76345 0.36559 0.48715 0.0
O546 O 0.74196 0.38734 0.51393 0.0
O547 O 0.74025 0.39737 0.48703 0.0
C548 C 0.74722 0.33883 0.41322 0.0
C549 C 0.76822 0.34206 0.41318 0.0
H550 H 0.80884 0.35056 0.41844 0.0
H551 H 0.82651 0.37182 0.44526 0.0
H552 H 0.69203 0.35215 0.44503 0.0
H553 H 0.70718 0.33547 0.41839 0.0
H554 H 0.73881 0.32928 0.40207 0.0
H555 H 0.77562 0.33499 0.40196 0.0
Mn556 Mn 0.65735 1.00002 0.74425 0.0
Mn557 Mn 0.64412 0.0448 0.74405 0.0
C558 C 0.67654 0.02223 0.73026 0.0
C559 C 0.67476 0.97906 0.7585 0.0
C560 C 0.62342 0.00882 0.71975 0.0
O561 O 0.63741 1.00248 0.76408 0.0
O562 O 0.63216 0.03357 0.76435 0.0
C563 C 0.6655 0.06486 0.77824 0.0
N564 N 0.66205 0.06343 0.76006 0.0
C565 C 0.68515 0.09202 0.75936 0.0
C566 C 0.68888 0.09386 0.7781 0.0
C567 C 0.67906 0.08017 0.78757 0.0
C568 C 0.67153 0.07643 0.7508 0.0
H569 H 0.65797 0.05438 0.78557 0.0
C570 C 0.62979 0.01763 0.77073 0.0
O571 O 0.65989 0.97241 0.74679 0.0
O572 O 0.67896 0.99774 0.76225 0.0
N573 N 0.65499 0.05742 0.72517 0.0
C574 C 0.65035 0.05314 0.70704 0.0
C575 C 0.65928 0.06518 0.69557 0.0
C576 C 0.67271 0.08158 0.70286 0.0
C577 C 0.67708 0.08581 0.72157 0.0
C578 C 0.6677 0.07332 0.73234 0.0
H579 H 0.63996 0.04061 0.70136 0.0
O580 O 0.67779 0.00384 0.72609 0.0
O581 O 0.6643 0.02697 0.74254 0.0
O582 O 0.63475 0.99685 0.72437 0.0
O583 O 0.62514 0.0267 0.72684 0.0
C584 C 0.69052 0.10184 0.72995 0.0
C585 C 0.69458 0.10492 0.74882 0.0
H586 H 0.69934 0.10564 0.78533 0.0
H587 H 0.68192 0.08144 0.80201 0.0
H588 H 0.65581 0.06182 0.68115 0.0
H589 H 0.67965 0.09077 0.69396 0.0
H590 H 0.69802 0.11174 0.72197 0.0
H591 H 0.70515 0.11714 0.75508 0.0
Mn592 Mn 0.03305 0.22248 0.87301 0.0
Mn593 Mn 0.98518 0.21819 0.88416 0.0
C594 C 0.00781 0.20669 0.85211 0.0
C595 C 0.06025 0.23907 0.86147 0.0
C596 C 0.01601 0.19499 0.89802 0.0
O597 O 0.03334 0.24357 0.89503 0.0
O598 O 1.00049 0.24087 0.89999 0.0
C599 C 0.97353 0.2541 0.87296 0.0
N600 N 0.97078 0.23442 0.87157 0.0
C601 C 0.94364 0.23178 0.84915 0.0
C602 C 0.94612 0.25203 0.85041 0.0
C603 C 0.96115 0.26323 0.86234 0.0
C604 C 0.95643 0.22351 0.86005 0.0
H605 H 0.98512 0.26277 0.88205 0.0
C606 C 0.01847 0.24921 0.90344 0.0
O607 O 0.06259 0.22678 0.87239 0.0
O608 O 0.04211 0.24217 0.85764 0.0
N609 N 0.96894 0.19696 0.86938 0.0
C610 C 0.96919 0.17757 0.86908 0.0
C611 C 0.95527 0.16433 0.85762 0.0
C612 C 0.94122 0.17115 0.84663 0.0
C613 C 0.94121 0.19117 0.84721 0.0
C614 C 0.95534 0.20367 0.85901 0.0
H615 H 0.97994 0.17223 0.87749 0.0
O616 O 0.02604 0.20288 0.85041 0.0
O617 O 0.00512 0.219 0.8662 0.0
O618 O 0.03016 0.20148 0.88906 0.0
O619 O 0.99866 0.20051 0.89746 0.0
C620 C 0.92797 0.19919 0.83633 0.0
C621 C 0.9292 0.21949 0.83728 0.0
H622 H 0.93665 0.25911 0.84219 0.0
H623 H 0.96322 0.27885 0.86333 0.0
H624 H 0.9554 0.1489 0.85721 0.0
H625 H 0.93062 0.16089 0.83769 0.0
H626 H 0.91696 0.18988 0.827 0.0
H627 H 0.9191 0.22547 0.82869 0.0
Mn628 Mn 0.53614 0.7215 0.37261 0.0
Mn629 Mn 0.48848 0.71531 0.3841 0.0
C630 C 0.51116 0.70513 0.35177 0.0
C631 C 0.5624 0.7394 0.361 0.0
C632 C 0.52058 0.69309 0.39735 0.0
O633 O 0.53595 0.74212 0.39492 0.0
O634 O 0.50315 0.73826 0.40005 0.0
C635 C 0.47514 0.7508 0.37341 0.0
N636 N 0.47317 0.7311 0.37182 0.0
C637 C 0.44579 0.72775 0.34953 0.0
C638 C 0.44745 0.74799 0.351 0.0
C639 C 0.46222 0.75956 0.36297 0.0
C640 C 0.45908 0.71984 0.36028 0.0
H641 H 0.48653 0.75975 0.38252 0.0
C642 C 0.52093 0.74712 0.40349 0.0
O643 O 0.5656 0.72701 0.37163 0.0
O644 O 0.54396 0.7418 0.35756 0.0
N645 N 0.47284 0.69373 0.36924 0.0
C646 C 0.47388 0.67443 0.36872 0.0
C647 C 0.46033 0.66087 0.35719 0.0
C648 C 0.44583 0.66728 0.34636 0.0
C649 C 0.445 0.68721 0.34716 0.0
C650 C 0.4588 0.70005 0.35902 0.0
H651 H 0.48499 0.66941 0.37702 0.0
O652 O 0.52958 0.7021 0.34984 0.0
O653 O 0.50817 0.71707 0.36602 0.0
O654 O 0.53438 0.70013 0.38831 0.0
O655 O 0.50299 0.69806 0.39707 0.0
C656 C 0.43127 0.69485 0.33643 0.0
C657 C 0.43168 0.71511 0.3376 0.0
H658 H 0.43758 0.7548 0.34292 0.0
H659 H 0.46367 0.77519 0.36411 0.0
H660 H 0.46109 0.6455 0.35662 0.0
H661 H 0.43552 0.65677 0.33737 0.0
H662 H 0.42051 0.68529 0.32706 0.0
H663 H 0.4212 0.7208 0.32913 0.0
Mn664 Mn 0.02229 0.76147 0.64653 0.0
Mn665 Mn 1.00024 0.71833 0.65499 0.0
C666 C 0.02359 0.73319 0.62614 0.0
C667 C 0.02223 0.79016 0.63425 0.0
C668 C 0.03972 0.73813 0.6734 0.0
O669 O 0.00331 0.76968 0.66615 0.0
O670 O 0.98879 0.73997 0.66932 0.0
C671 C 0.95957 0.7198 0.63937 0.0
N672 N 0.9761 0.71053 0.64018 0.0
C673 C 0.96043 0.68301 0.61922 0.0
C674 C 0.94319 0.69221 0.61822 0.0
C675 C 0.94281 0.71074 0.62826 0.0
C676 C 0.97674 0.69285 0.63036 0.0
H677 H 0.95918 0.73397 0.64718 0.0
C678 C 0.99059 0.7585 0.67313 0.0
O679 O 0.0349 0.78869 0.64729 0.0
O680 O 0.00892 0.77526 0.62892 0.0
N681 N 0.00965 0.69595 0.64194 0.0
C682 C 0.02778 0.68953 0.64367 0.0
C683 C 0.03088 0.67149 0.63402 0.0
C684 C 0.01521 0.66007 0.62301 0.0
C685 C 0.99659 0.66686 0.62166 0.0
C686 C 0.99446 0.68505 0.63142 0.0
H687 H 0.0398 0.69812 0.65232 0.0
O688 O 0.03673 0.74823 0.6263 0.0
O689 O 0.01006 0.7351 0.63782 0.0
O690 O 0.04082 0.7528 0.66525 0.0
O691 O 0.02506 0.72463 0.67071 0.0
C692 C 0.9801 0.65635 0.61095 0.0
C693 C 0.9621 0.6645 0.60956 0.0
H694 H 0.93019 0.68523 0.60974 0.0
H695 H 0.92958 0.71796 0.62752 0.0
H696 H 0.04528 0.66634 0.63516 0.0
H697 H 0.01764 0.64615 0.61561 0.0
H698 H 0.98122 0.64211 0.60346 0.0
H699 H 0.94967 0.65644 0.60097 0.0
Mn700 Mn 0.5179 0.26094 0.14133 0.0
Mn701 Mn 0.49602 0.2165 0.14641 0.0
C702 C 0.52057 0.23416 0.11964 0.0
C703 C 0.51729 0.29047 0.13065 0.0
C704 C 0.53441 0.23606 0.16718 0.0
O705 O 0.49803 0.26721 0.16065 0.0
O706 O 0.48325 0.2369 0.16132 0.0
C707 C 0.4561 0.21803 0.12926 0.0
N708 N 0.47288 0.20915 0.13019 0.0
C709 C 0.45974 0.18369 0.10597 0.0
C710 C 0.44226 0.19251 0.10481 0.0
C711 C 0.44046 0.20978 0.11648 0.0
C712 C 0.4748 0.19258 0.11899 0.0
H713 H 0.45467 0.23132 0.13819 0.0
C714 C 0.48495 0.2553 0.16638 0.0
O715 O 0.52977 0.28867 0.14374 0.0
O716 O 0.50452 0.27542 0.12444 0.0
N717 N 0.50678 0.19532 0.13264 0.0
C718 C 0.52496 0.18916 0.13495 0.0
C719 C 0.52933 0.17225 0.12408 0.0
C720 C 0.51491 0.16176 0.1111 0.0
C721 C 0.49625 0.16828 0.10909 0.0
C722 C 0.4927 0.18516 0.12039 0.0
H723 H 0.53607 0.19711 0.14496 0.0
O724 O 0.53342 0.24959 0.121 0.0
O725 O 0.50654 0.23486 0.13093 0.0
O726 O 0.53596 0.25128 0.15977 0.0
O727 O 0.51989 0.22247 0.1634 0.0
C728 C 0.48116 0.1589 0.09611 0.0
C729 C 0.46294 0.16663 0.09452 0.0
H730 H 0.4302 0.18623 0.09494 0.0
H731 H 0.42706 0.21671 0.11561 0.0
H732 H 0.54377 0.16731 0.12571 0.0
H733 H 0.51837 0.14878 0.10269 0.0
H734 H 0.48353 0.14589 0.0871 0.0
H735 H 0.45156 0.15944 0.08431 0.0
C736 C 0.26744 0.7254 0.8665 0.0
C737 C 0.25166 0.71813 0.85356 0.0
C738 C 0.26425 0.73764 0.88229 0.0
C739 C 0.22936 0.77087 0.90211 0.0
H740 H 0.26108 0.76927 0.946 0.0
C741 C 0.22538 0.82276 0.97043 0.0
C742 C 0.2442 0.83248 0.97705 0.0
C743 C 0.22383 0.80724 0.95605 0.0
C744 C 0.25206 0.76984 0.93385 0.0
H745 H 0.22005 0.71783 0.8472 0.0
H746 H 0.21432 0.73898 0.87507 0.0
H747 H 0.26259 0.74466 0.91966 0.0
H748 H 0.27608 0.83297 0.97496 0.0
H749 H 0.27345 0.8058 0.95019 0.0
H750 H 0.21882 0.79613 0.9166 0.0
C751 C 0.22927 0.73545 0.87283 0.0
C752 C 0.25302 0.75582 0.91869 0.0
C753 C 0.23252 0.72328 0.8569 0.0
C754 C 0.2614 0.82591 0.9698 0.0
C755 C 0.25989 0.81028 0.95575 0.0
C756 C 0.2282 0.78478 0.91742 0.0
C757 C 0.24514 0.74287 0.88572 0.0
C758 C 0.24215 0.75646 0.90243 0.0
C759 C 0.24112 0.80086 0.94862 0.0
C760 C 0.23999 0.78469 0.93326 0.0
H761 H 0.28245 0.72208 0.86416 0.0
H762 H 0.27697 0.74342 0.89161 0.0
H763 H 0.22088 0.77195 0.88982 0.0
H764 H 0.21196 0.82746 0.97608 0.0
H765 H 0.2092 0.80014 0.95083 0.0
C766 C 0.02895 0.55779 0.39047 0.0
C767 C 0.01978 0.54415 0.4003 0.0
C768 C 0.04406 0.55306 0.37914 0.0
C769 C 0.06073 0.51176 0.35107 0.0
H770 H 0.10596 0.54932 0.34574 0.0
C771 C 0.1156 0.50092 0.29313 0.0
C772 C 0.12002 0.51733 0.2847 0.0
C773 C 0.10534 0.50225 0.30907 0.0
C774 C 0.0934 0.53866 0.34703 0.0
H775 H 0.01947 0.51504 0.40642 0.0
H776 H 0.04596 0.50658 0.38631 0.0
H777 H 0.08513 0.55547 0.37117 0.0
H778 H 0.11672 0.54795 0.28646 0.0
H779 H 0.09896 0.5501 0.31376 0.0
H780 H 0.0686 0.49532 0.32646 0.0
C781 C 0.04146 0.52098 0.38748 0.0
C782 C 0.08151 0.54217 0.36163 0.0
C783 C 0.02647 0.52585 0.39907 0.0
C784 C 0.11374 0.53496 0.2925 0.0
C785 C 0.10366 0.53628 0.30833 0.0
C786 C 0.07264 0.50826 0.33637 0.0
C787 C 0.0502 0.53447 0.37719 0.0
C788 C 0.06468 0.52907 0.36351 0.0
C789 C 0.09948 0.52004 0.31694 0.0
C790 C 0.08871 0.522 0.33388 0.0
H791 H 0.02398 0.57197 0.39115 0.0
H792 H 0.05031 0.56371 0.37126 0.0
H793 H 0.04779 0.50143 0.3521 0.0
H794 H 0.12021 0.48712 0.28754 0.0
H795 H 0.10231 0.48946 0.31539 0.0
C796 C 0.85604 0.78878 0.87474 0.0
C797 C 0.84952 0.78307 0.85649 0.0
C798 C 0.85471 0.77538 0.88675 0.0
C799 C 0.84479 0.72195 0.88839 0.0
H800 H 0.8323 0.74 0.93756 0.0
C801 C 0.80567 0.67394 0.93544 0.0
C802 C 0.81391 0.67544 0.95319 0.0
C803 C 0.81357 0.68622 0.92388 0.0
C804 C 0.83609 0.73481 0.92395 0.0
H805 H 0.8365 0.75892 0.83644 0.0
H806 H 0.83321 0.73567 0.85743 0.0
H807 H 0.83844 0.76321 0.91686 0.0
H808 H 0.83708 0.69088 0.97269 0.0
H809 H 0.85052 0.71304 0.9525 0.0
H810 H 0.84105 0.69334 0.89538 0.0
C811 C 0.84004 0.75031 0.8625 0.0
C812 C 0.83969 0.74812 0.91202 0.0
C813 C 0.84176 0.76365 0.85043 0.0
C814 C 0.83055 0.6893 0.95903 0.0
C815 C 0.83815 0.702 0.94755 0.0
C816 C 0.8408 0.70863 0.90023 0.0
C817 C 0.84642 0.75596 0.88089 0.0
C818 C 0.84385 0.74188 0.89396 0.0
C819 C 0.82959 0.70064 0.92991 0.0
C820 C 0.83621 0.71491 0.91806 0.0
H821 H 0.86233 0.80363 0.8797 0.0
H822 H 0.86024 0.7803 0.90062 0.0
H823 H 0.84842 0.71653 0.8748 0.0
H824 H 0.79283 0.66347 0.93054 0.0
H825 H 0.80658 0.68497 0.91042 0.0
C826 C 0.03448 0.98855 0.44503 0.0
C827 C 0.05456 0.98549 0.44389 0.0
C828 C 0.02421 0.99459 0.4307 0.0
C829 C 0.03269 0.01408 0.38731 0.0
H830 H 0.97668 0.99479 0.37657 0.0
C831 C 0.99016 0.00438 0.3173 0.0
C832 C 0.97161 0.01146 0.31654 0.0
C833 C 1.00075 0.00525 0.33386 0.0
C834 C 0.99226 1.00051 0.37958 0.0
H835 H 0.07952 0.9858 0.42679 0.0
H836 H 0.06156 0.99534 0.40156 0.0
H837 H 0.9939 0.9876 0.40346 0.0
H838 H 0.94975 0.02537 0.33238 0.0
H839 H 0.96808 0.02632 0.36155 0.0
H840 H 0.03114 0.02584 0.36261 0.0
C841 C 0.05379 0.994 0.41369 0.0
C842 C 1.00218 0.99646 0.39505 0.0
C843 C 0.06411 0.98836 0.42812 0.0
C844 C 0.96416 0.02008 0.33259 0.0
C845 C 0.97453 0.02047 0.34925 0.0
C846 C 0.02286 0.01775 0.37165 0.0
C847 C 0.03369 0.99731 0.41474 0.0
C848 C 0.02265 0.00293 0.39902 0.0
C849 C 0.99274 0.01274 0.35002 0.0
C850 C 1.00262 0.01082 0.36755 0.0
H851 H 0.02682 0.9865 0.4571 0.0
H852 H 0.00887 0.99724 0.43223 0.0
H853 H 0.04827 0.01984 0.39007 0.0
H854 H 0.99614 0.99754 0.30512 0.0
H855 H 0.0147 0.99908 0.33412 0.0
C856 C 0.26721 0.26249 0.65839 0.0
C857 C 0.25747 0.27917 0.66015 0.0
C858 C 0.26943 0.2521 0.64139 0.0
C859 C 0.26663 0.25438 0.59216 0.0
H860 H 0.26263 0.19848 0.58904 0.0
C861 C 0.26413 0.19722 0.52571 0.0
C862 C 0.27814 0.18398 0.52634 0.0
C863 C 0.26125 0.21037 0.54114 0.0
C864 C 0.26379 0.21408 0.58972 0.0
H865 H 0.24288 0.29843 0.64558 0.0
H866 H 0.24619 0.27987 0.61565 0.0
H867 H 0.25782 0.21836 0.61759 0.0
H868 H 0.30041 0.17458 0.54368 0.0
H869 H 0.29505 0.19712 0.57043 0.0
H870 H 0.27219 0.24969 0.56393 0.0
C871 C 0.25241 0.27499 0.62742 0.0
C872 C 0.26119 0.22553 0.60612 0.0
C873 C 0.25044 0.28558 0.64453 0.0
C874 C 0.28949 0.18452 0.54261 0.0
C875 C 0.28639 0.19738 0.558 0.0
C876 C 0.26894 0.24281 0.5756 0.0
C877 C 0.26168 0.25792 0.62567 0.0
C878 C 0.26304 0.24587 0.60771 0.0
C879 C 0.27208 0.21023 0.5575 0.0
C880 C 0.26795 0.2226 0.57438 0.0
H881 H 0.2731 0.25746 0.67023 0.0
H882 H 0.27723 0.23943 0.64062 0.0
H883 H 0.26825 0.26997 0.59287 0.0
H884 H 0.25517 0.19723 0.5134 0.0
H885 H 0.2501 0.22015 0.54047 0.0
C886 C 0.54199 0.51019 0.60657 0.0
C887 C 0.55479 0.52736 0.60635 0.0
C888 C 0.53159 0.50744 0.62189 0.0
C889 C 0.51604 0.5348 0.66467 0.0
H890 H 0.50431 0.48325 0.67677 0.0
C891 C 0.463 0.51917 0.72065 0.0
C892 C 0.4666 0.50448 0.73068 0.0
C893 C 0.4742 0.52223 0.70586 0.0
C894 C 0.50766 0.49782 0.6738 0.0
H895 H 0.56731 0.55484 0.62219 0.0
H896 H 0.54983 0.54984 0.6491 0.0
H897 H 0.52347 0.48784 0.65085 0.0
H898 H 0.48532 0.48194 0.73336 0.0
H899 H 0.50534 0.48776 0.70817 0.0
H900 H 0.501 0.5449 0.68808 0.0
C901 C 0.54716 0.53871 0.63729 0.0
C902 C 0.51841 0.50041 0.65866 0.0
C903 C 0.55731 0.54156 0.62189 0.0
C904 C 0.48203 0.49328 0.72585 0.0
C905 C 0.49342 0.49653 0.71125 0.0
C906 C 0.50552 0.53224 0.67995 0.0
C907 C 0.53398 0.5217 0.63749 0.0
C908 C 0.5227 0.51893 0.65381 0.0
C909 C 0.48951 0.51087 0.70086 0.0
C910 C 0.50109 0.5137 0.68472 0.0
H911 H 0.53965 0.49907 0.59472 0.0
H912 H 0.52136 0.49429 0.62133 0.0
H913 H 0.51873 0.54926 0.6613 0.0
H914 H 0.45111 0.52795 0.72389 0.0
H915 H 0.47045 0.5332 0.69809 0.0
C916 C 0.82247 0.25412 0.64332 0.0
C917 C 0.81828 0.26299 0.66059 0.0
C918 C 0.82421 0.26486 0.62908 0.0
C919 C 0.82791 0.31565 0.6186 0.0
H920 H 0.80023 0.29045 0.57332 0.0
C921 C 0.79211 0.35647 0.56711 0.0
C922 C 0.79395 0.35024 0.54864 0.0
C923 C 0.7995 0.34634 0.58005 0.0
C924 C 0.8083 0.29762 0.58577 0.0
H925 H 0.81417 0.29041 0.67673 0.0
H926 H 0.81649 0.30887 0.65201 0.0
H927 H 0.80553 0.27155 0.5973 0.0
H928 H 0.80544 0.32878 0.52925 0.0
H929 H 0.81804 0.31082 0.5519 0.0
H930 H 0.82963 0.34195 0.60727 0.0
C931 C 0.81865 0.29371 0.64932 0.0
C932 C 0.81143 0.28677 0.59955 0.0
C933 C 0.81704 0.28303 0.66352 0.0
C934 C 0.80386 0.33397 0.54339 0.0
C935 C 0.81097 0.32363 0.55633 0.0
C936 C 0.82455 0.32653 0.6049 0.0
C937 C 0.82177 0.28471 0.63179 0.0
C938 C 0.82088 0.29571 0.61632 0.0
C939 C 0.80863 0.32958 0.57478 0.0
C940 C 0.81436 0.31771 0.58848 0.0
H941 H 0.82348 0.23871 0.64058 0.0
H942 H 0.82699 0.25749 0.61585 0.0
H943 H 0.83566 0.32299 0.63113 0.0
H944 H 0.78456 0.36896 0.57158 0.0
H945 H 0.79731 0.35117 0.59415 0.0
C946 C 0.54079 0.98923 0.57108 0.0
C947 C 0.52043 0.99158 0.56898 0.0
C948 C 0.54977 0.98869 0.58807 0.0
C949 C 0.54893 0.00764 0.63499 0.0
H950 H 0.57707 0.96482 0.64418 0.0
C951 C 0.59045 0.01036 0.70402 0.0
C952 C 0.60856 1.00245 0.70431 0.0
C953 C 0.57762 0.00669 0.68844 0.0
C954 C 0.56955 0.97706 0.64185 0.0
H955 H 0.49367 0.99507 0.58358 0.0
H956 H 0.5098 0.99522 0.61337 0.0
H957 H 0.5591 0.96334 0.61501 0.0
H958 H 0.62733 0.98422 0.68867 0.0
H959 H 0.60556 0.97854 0.66121 0.0
H960 H 0.56024 0.02207 0.66112 0.0
C961 C 0.51857 0.99349 0.60163 0.0
C962 C 0.55911 0.97608 0.62515 0.0
C963 C 0.50941 0.99357 0.58454 0.0
C964 C 0.61331 0.99028 0.68889 0.0
C965 C 0.60072 0.98701 0.67313 0.0
C966 C 0.55974 0.00885 0.65152 0.0
C967 C 0.53881 0.99096 0.60351 0.0
C968 C 0.54879 0.9914 0.62156 0.0
C969 C 0.58284 0.99549 0.67253 0.0
C970 C 0.57034 0.99362 0.65521 0.0
H971 H 0.55004 0.98821 0.55965 0.0
H972 H 0.56549 0.98702 0.58922 0.0
H973 H 0.54127 0.01974 0.63244 0.0
H974 H 0.58638 0.01972 0.71578 0.0
H975 H 0.56376 0.01301 0.68885 0.0
C976 C 0.87313 0.20978 0.73902 0.0
C977 C 0.87382 0.19887 0.72186 0.0
C978 C 0.88865 0.21073 0.75213 0.0
C979 C 0.93269 0.18581 0.76312 0.0
H980 H 0.94235 0.23032 0.80107 0.0
C981 C 0.98546 0.18666 0.82671 0.0
C982 C 0.99425 0.20471 0.8359 0.0
C983 C 0.97165 0.18568 0.81198 0.0
C984 C 0.94028 0.21785 0.79047 0.0
H985 H 0.8913 0.18074 0.70465 0.0
H986 H 0.91924 0.18348 0.72707 0.0
H987 H 0.91825 0.23035 0.77662 0.0
H988 H 0.99733 0.23569 0.83612 0.0
H989 H 0.97475 0.23411 0.80991 0.0
H990 H 0.95579 0.1739 0.77646 0.0
C991 C 0.90642 0.19075 0.73078 0.0
C992 C 0.92595 0.21769 0.7765 0.0
C993 C 0.89059 0.18941 0.71779 0.0
C994 C 0.99025 0.22161 0.82948 0.0
C995 C 0.97706 0.22065 0.81452 0.0
C996 C 0.94746 0.18618 0.7769 0.0
C997 C 0.90552 0.20113 0.7483 0.0
C998 C 0.92171 0.2016 0.76268 0.0
C999 C 0.967 0.20275 0.80583 0.0
C1000 C 0.95143 0.20219 0.79087 0.0
H1001 H 0.86008 0.2168 0.74258 0.0
H1002 H 0.88694 0.21845 0.76548 0.0
H1003 H 0.92974 0.17295 0.75298 0.0
H1004 H 0.9886 0.17343 0.83136 0.0
H1005 H 0.9642 0.17159 0.80586 0.0
C1006 C 0.53249 0.91251 0.48938 0.0
C1007 C 0.52532 0.9237 0.47711 0.0
C1008 C 0.53221 0.89244 0.48436 0.0
C1009 C 0.50721 0.8509 0.45221 0.0
H1010 H 0.55528 0.82694 0.45886 0.0
C1011 C 0.5078 0.76989 0.42783 0.0
C1012 C 0.52354 0.76513 0.417 0.0
C1013 C 0.50871 0.78814 0.43842 0.0
C1014 C 0.54174 0.83343 0.45697 0.0
H1015 H 0.51167 0.92265 0.45028 0.0
H1016 H 0.51103 0.88775 0.4416 0.0
H1017 H 0.55482 0.86129 0.47099 0.0
H1018 H 0.55317 0.77551 0.40979 0.0
H1019 H 0.55465 0.80747 0.42823 0.0
H1020 H 0.49425 0.82342 0.43775 0.0
C1021 C 0.51695 0.89441 0.45503 0.0
C1022 C 0.54142 0.85302 0.46404 0.0
C1023 C 0.51746 0.91441 0.45995 0.0
C1024 C 0.54077 0.77866 0.41795 0.0
C1025 C 0.54165 0.79699 0.42856 0.0
C1026 C 0.50747 0.83137 0.44529 0.0
C1027 C 0.52442 0.88321 0.46712 0.0
C1028 C 0.52426 0.86203 0.46141 0.0
C1029 C 0.52534 0.80213 0.43845 0.0
C1030 C 0.52482 0.82245 0.44733 0.0
H1031 H 0.5387 0.91935 0.50267 0.0
H1032 H 0.53797 0.88412 0.49397 0.0
H1033 H 0.49372 0.85741 0.45011 0.0
H1034 H 0.4944 0.75977 0.42765 0.0
H1035 H 0.49607 0.79151 0.44618 0.0
C1036 C 0.18658 0.27615 0.75713 0.0
C1037 C 0.20575 0.27242 0.76246 0.0
C1038 C 0.17156 0.27678 0.76944 0.0
C1039 C 0.15812 0.25569 0.80947 0.0
H1040 H 0.11694 0.28984 0.81313 0.0
C1041 C 0.09697 0.24668 0.85898 0.0
C1042 C 0.07738 0.2479 0.85268 0.0
C1043 C 0.11317 0.25295 0.8495 0.0
C1044 C 0.12825 0.2801 0.81217 0.0
H1045 H 0.22474 0.2682 0.78515 0.0
H1046 H 0.19868 0.26943 0.80658 0.0
H1047 H 0.14436 0.29533 0.79352 0.0
H1048 H 0.0594 0.25734 0.8319 0.0
H1049 H 0.08762 0.26777 0.81503 0.0
H1050 H 0.14193 0.24 0.82746 0.0
C1051 C 0.19506 0.27139 0.79284 0.0
C1052 C 0.14397 0.28329 0.80097 0.0
C1053 C 0.20999 0.27073 0.78059 0.0
C1054 C 0.07435 0.25626 0.83711 0.0
C1055 C 0.09056 0.26233 0.82748 0.0
C1056 C 0.14242 0.25243 0.82051 0.0
C1057 C 0.17551 0.27372 0.78726 0.0
C1058 C 0.15908 0.2711 0.79953 0.0
C1059 C 0.11016 0.26032 0.83333 0.0
C1060 C 0.12725 0.26456 0.82204 0.0
H1061 H 0.18288 0.27743 0.74322 0.0
H1062 H 0.15662 0.27856 0.76472 0.0
H1063 H 0.16926 0.24575 0.80834 0.0
H1064 H 0.0998 0.2405 0.87105 0.0
H1065 H 0.12806 0.25164 0.85468 0.0
C1066 C 0.5483 0.59545 0.51613 0.0
C1067 C 0.56838 0.59704 0.52239 0.0
C1068 C 0.54306 0.60288 0.50054 0.0
C1069 C 0.56352 0.63993 0.47373 0.0
H1070 H 0.51723 0.61981 0.44112 0.0
C1071 C 0.54535 0.67532 0.41191 0.0
C1072 C 0.52552 0.67907 0.40931 0.0
C1073 C 0.55037 0.66331 0.42415 0.0
C1074 C 0.53015 0.62563 0.45018 0.0
H1075 H 0.59878 0.6065 0.51693 0.0
H1076 H 0.58986 0.61863 0.48929 0.0
H1077 H 0.5267 0.60166 0.46479 0.0
H1078 H 0.49528 0.67233 0.41715 0.0
H1079 H 0.50411 0.65135 0.43855 0.0
H1080 H 0.56699 0.66385 0.4592 0.0
C1081 C 0.57802 0.61227 0.49661 0.0
C1082 C 0.53558 0.61525 0.46377 0.0
C1083 C 0.58319 0.60511 0.51229 0.0
C1084 C 0.51072 0.66989 0.41884 0.0
C1085 C 0.51575 0.65775 0.43104 0.0
C1086 C 0.55821 0.65017 0.46011 0.0
C1087 C 0.55784 0.61194 0.49087 0.0
C1088 C 0.55234 0.6223 0.47578 0.0
C1089 C 0.53569 0.65461 0.43408 0.0
C1090 C 0.54144 0.6432 0.4482 0.0
H1091 H 0.53663 0.5895 0.52388 0.0
H1092 H 0.52738 0.60246 0.49667 0.0
H1093 H 0.57618 0.64618 0.48296 0.0
H1094 H 0.55717 0.68201 0.40478 0.0
H1095 H 0.56583 0.66097 0.42598 0.0
C1096 C 0.88776 0.8206 0.79616 0.0
C1097 C 0.87391 0.8055 0.80011 0.0
C1098 C 0.90034 0.81734 0.78194 0.0
C1099 C 0.92191 0.7772 0.75507 0.0
H1100 H 0.9358 0.81402 0.72273 0.0
C1101 C 0.96029 0.7546 0.69068 0.0
C1102 C 0.97693 0.76671 0.68645 0.0
C1103 C 0.94811 0.7611 0.7042 0.0
C1104 C 0.93223 0.80373 0.73181 0.0
H1105 H 0.86171 0.77542 0.79159 0.0
H1106 H 0.88345 0.76976 0.76679 0.0
H1107 H 0.91322 0.82188 0.74675 0.0
H1108 H 0.99315 0.79563 0.69269 0.0
H1109 H 0.97161 0.8071 0.71663 0.0
H1110 H 0.94068 0.75899 0.74019 0.0
C1111 C 0.88496 0.78402 0.77492 0.0
C1112 C 0.91928 0.80819 0.74554 0.0
C1113 C 0.87245 0.78727 0.78912 0.0
C1114 C 0.98052 0.78591 0.69565 0.0
C1115 C 0.96819 0.79247 0.70932 0.0
C1116 C 0.93475 0.77276 0.74141 0.0
C1117 C 0.89935 0.7989 0.77136 0.0
C1118 C 0.91371 0.79481 0.75715 0.0
C1119 C 0.95212 0.77992 0.714 0.0
C1120 C 0.9398 0.78578 0.72939 0.0
H1121 H 0.88943 0.83477 0.80449 0.0
H1122 H 0.91132 0.82908 0.77968 0.0
H1123 H 0.91843 0.76678 0.76405 0.0
H1124 H 0.95673 0.73985 0.6837 0.0
H1125 H 0.93557 0.75123 0.70712 0.0
C1126 C 0.04649 0.91097 0.53146 0.0
C1127 C 0.05948 0.9035 0.51883 0.0
C1128 C 0.04305 0.9025 0.54697 0.0
C1129 C 0.06238 0.86873 0.57525 0.0
H1130 H 0.00676 0.85572 0.58425 0.0
C1131 C 0.03979 0.82244 0.62994 0.0
C1132 C 0.02431 0.80717 0.62464 0.0
C1133 C 0.04351 0.8372 0.6195 0.0
C1134 C 0.02237 0.85925 0.58194 0.0
H1135 H 0.07988 0.88216 0.51297 0.0
H1136 H 0.07414 0.86757 0.53997 0.0
H1137 H 0.0156 0.87647 0.56181 0.0
H1138 H 1.00004 0.79591 0.6046 0.0
H1139 H 0.00657 0.82155 0.58636 0.0
H1140 H 0.06915 0.85089 0.59477 0.0
C1141 C 0.06656 0.8799 0.53804 0.0
C1142 C 0.02746 0.87135 0.56922 0.0
C1143 C 0.06982 0.88821 0.52251 0.0
C1144 C 0.01206 0.80748 0.6091 0.0
C1145 C 0.01577 0.82225 0.59867 0.0
C1146 C 0.05731 0.8567 0.588 0.0
C1147 C 0.05273 0.88657 0.55024 0.0
C1148 C 0.04751 0.8759 0.56544 0.0
C1149 C 0.03183 0.83707 0.6035 0.0
C1150 C 0.03721 0.85148 0.59127 0.0
H1151 H 0.03821 0.92264 0.52885 0.0
H1152 H 0.03246 0.90811 0.55619 0.0
H1153 H 0.07798 0.87208 0.57281 0.0
H1154 H 0.04947 0.82271 0.64187 0.0
H1155 H 0.05579 0.84855 0.62381 0.0
C1156 C 0.18963 0.72405 0.76867 0.0
C1157 C 0.20229 0.71359 0.7577 0.0
C1158 C 0.17044 0.72614 0.76199 0.0
C1159 C 0.13739 0.73919 0.73901 0.0
H1160 H 0.10524 0.69651 0.70803 0.0
C1161 C 0.0737 0.74999 0.68888 0.0
C1162 C 0.05662 0.73613 0.68604 0.0
C1163 C 0.0901 0.74736 0.69987 0.0
C1164 C 0.11387 0.70855 0.71682 0.0
H1165 H 0.20445 0.69633 0.73151 0.0
H1166 H 0.17118 0.69995 0.71989 0.0
H1167 H 0.13584 0.69083 0.72357 0.0
H1168 H 0.04329 0.70888 0.69313 0.0
H1169 H 0.07175 0.70445 0.71234 0.0
H1170 H 0.11542 0.75695 0.73214 0.0
C1171 C 0.17596 0.70658 0.73362 0.0
C1172 C 0.13153 0.70532 0.72559 0.0
C1173 C 0.19511 0.70464 0.74022 0.0
C1174 C 0.05619 0.71984 0.69489 0.0
C1175 C 0.07257 0.71722 0.70585 0.0
C1176 C 0.11972 0.74245 0.73017 0.0
C1177 C 0.16347 0.71757 0.7443 0.0
C1178 C 0.14368 0.72066 0.73655 0.0
C1179 C 0.08985 0.7308 0.70828 0.0
C1180 C 0.10788 0.72721 0.71877 0.0
H1181 H 0.19481 0.73115 0.78218 0.0
H1182 H 0.1611 0.73456 0.77061 0.0
H1183 H 0.14647 0.75135 0.74725 0.0
H1184 H 0.07461 0.76271 0.68231 0.0
H1185 H 0.10323 0.75801 0.70128 0.0
C1186 C 1.00023 0.60179 0.49636 0.0
C1187 C 0.99604 0.5833 0.5014 0.0
C1188 C 0.0062 0.61818 0.50939 0.0
C1189 C 0.99613 0.63761 0.55385 0.0
H1190 H 0.04401 0.67437 0.55629 0.0
C1191 C 0.0037 0.71093 0.60107 0.0
C1192 C 0.02195 0.71683 0.61109 0.0
C1193 C 1.00182 0.69533 0.58689 0.0
C1194 C 0.0306 0.6642 0.55583 0.0
H1195 H 0.99626 0.56764 0.52417 0.0
H1196 H 0.00563 0.59644 0.5469 0.0
H1197 H 0.03958 0.64515 0.53321 0.0
H1198 H 0.05296 0.71223 0.61343 0.0
H1199 H 0.04968 0.68451 0.58883 0.0
H1200 H 0.98652 0.65677 0.57562 0.0
C1201 C 0.00439 0.59806 0.53279 0.0
C1202 C 0.02808 0.64756 0.5426 0.0
C1203 C 0.99885 0.58161 0.51976 0.0
C1204 C 0.03864 0.70763 0.60606 0.0
C1205 C 0.03676 0.69189 0.59191 0.0
C1206 C 0.9984 0.6544 0.5667 0.0
C1207 C 0.00776 0.6165 0.52773 0.0
C1208 C 0.0109 0.63405 0.54167 0.0
C1209 C 0.01823 0.68535 0.58232 0.0
C1210 C 0.01575 0.66782 0.56807 0.0
H1211 H 0.99795 0.60387 0.48247 0.0
H1212 H 0.00855 0.63231 0.50522 0.0
H1213 H 0.98261 0.62752 0.5532 0.0
H1214 H 0.99081 0.71833 0.6043 0.0
H1215 H 0.98745 0.69105 0.57955 0.0
C1216 C 0.78631 0.8423 0.22805 0.0
C1217 C 0.77691 0.83755 0.21057 0.0
C1218 C 0.79849 0.85987 0.23337 0.0
C1219 C 0.81515 0.90809 0.21974 0.0
H1220 H 0.86059 0.90531 0.25202 0.0
C1221 C 0.88384 0.96791 0.23457 0.0
C1222 C 0.89167 0.97219 0.25253 0.0
C1223 C 0.86885 0.95227 0.22923 0.0
C1224 C 0.84806 0.90637 0.24296 0.0
H1225 H 0.77231 0.8485 0.18538 0.0
H1226 H 0.79469 0.87842 0.19421 0.0
H1227 H 0.8366 0.87689 0.24291 0.0
H1228 H 0.88887 0.96487 0.27934 0.0
H1229 H 0.86296 0.93755 0.27011 0.0
H1230 H 0.82748 0.93757 0.21934 0.0
C1231 C 0.79225 0.86872 0.20399 0.0
C1232 C 0.83402 0.89007 0.23789 0.0
C1233 C 0.7796 0.85131 0.19881 0.0
C1234 C 0.88361 0.96132 0.26525 0.0
C1235 C 0.86872 0.94575 0.25997 0.0
C1236 C 0.82955 0.92435 0.22453 0.0
C1237 C 0.80222 0.87307 0.22124 0.0
C1238 C 0.8172 0.89068 0.22638 0.0
C1239 C 0.8613 0.94088 0.24187 0.0
C1240 C 0.84611 0.92367 0.23629 0.0
H1241 H 0.78501 0.83218 0.23755 0.0
H1242 H 0.80531 0.86285 0.24697 0.0
H1243 H 0.80232 0.90929 0.21105 0.0
H1244 H 0.88959 0.97641 0.22463 0.0
H1245 H 0.86346 0.94885 0.21518 0.0
C1246 C 0.7865 0.15403 0.3317 0.0
C1247 C 0.78376 0.16396 0.31705 0.0
C1248 C 0.80122 0.14151 0.33178 0.0
C1249 C 0.84668 0.12852 0.30803 0.0
H1250 H 0.83666 0.08123 0.3284 0.0
C1251 C 0.90372 0.07379 0.30147 0.0
C1252 C 0.8963 0.05402 0.2985 0.0
C1253 C 0.89128 0.08781 0.30711 0.0
C1254 C 0.83968 0.09426 0.32245 0.0
H1255 H 0.79509 0.16886 0.29128 0.0
H1256 H 0.81941 0.14638 0.29085 0.0
H1257 H 0.81232 0.10419 0.33094 0.0
H1258 H 0.87019 0.03331 0.29949 0.0
H1259 H 0.84815 0.05764 0.30829 0.0
H1260 H 0.87316 0.11812 0.29831 0.0
C1261 C 0.81066 0.14849 0.30257 0.0
C1262 C 0.82579 0.10766 0.3242 0.0
C1263 C 0.79627 0.16116 0.30263 0.0
C1264 C 0.87634 0.04848 0.30181 0.0
C1265 C 0.86372 0.06251 0.30698 0.0
C1266 C 0.8603 0.11499 0.30595 0.0
C1267 C 0.81348 0.1385 0.31715 0.0
C1268 C 0.82894 0.12486 0.31673 0.0
C1269 C 0.87089 0.08245 0.30938 0.0
C1270 C 0.85696 0.09751 0.31293 0.0
H1271 H 0.77713 0.15572 0.34303 0.0
H1272 H 0.80302 0.1343 0.34337 0.0
H1273 H 0.85002 0.14179 0.3025 0.0
H1274 H 0.91913 0.07844 0.2992 0.0
H1275 H 0.89766 0.10288 0.30937 0.0
C1276 C 0.44109 1.00184 0.98869 0.0
C1277 C 0.44079 0.02196 0.99016 0.0
C1278 C 0.42505 0.99007 0.99415 0.0
C1279 C 0.37176 0.9869 0.9966 0.0
H1280 H 0.37673 0.94991 0.02934 0.0
C1281 C 0.30218 0.93884 0.01183 0.0
C1282 C 0.30427 0.91957 0.01334 0.0
C1283 C 0.31902 0.95254 0.01241 0.0
C1284 C 0.37505 0.95997 0.02 0.0
H1285 H 0.42359 0.04557 0.99846 0.0
H1286 H 0.39533 0.02493 0.00755 0.0
H1287 H 0.40625 0.97094 0.02322 0.0
H1288 H 0.32528 0.89935 0.0169 0.0
H1289 H 0.35482 0.92291 0.01708 0.0
H1290 H 0.34103 0.97548 0.99236 0.0
C1291 C 0.4081 0.01834 1.00246 0.0
C1292 C 0.39198 0.97207 0.01659 0.0
C1293 C 0.42428 0.03012 0.99735 0.0
C1294 C 0.32338 0.91429 0.01608 0.0
C1295 C 0.3403 0.92786 0.01618 0.0
C1296 C 0.35495 0.97458 0.99967 0.0
C1297 C 0.40827 0.9982 1.00078 0.0
C1298 C 0.39045 0.98563 0.00487 0.0
C1299 C 0.33838 0.94709 0.01383 0.0
C1300 C 0.35629 0.96089 0.01142 0.0
H1301 H 0.45367 0.99522 0.98319 0.0
H1302 H 0.42544 0.97456 0.99261 0.0
H1303 H 0.37025 0.99707 0.98731 0.0
H1304 H 0.28751 0.94314 0.00959 0.0
H1305 H 0.3168 0.96727 0.01113 0.0
C1306 C 0.29159 0.37267 0.30606 0.0
C1307 C 0.29017 0.36943 0.32398 0.0
C1308 C 0.27667 0.38116 0.29768 0.0
C1309 C 0.23817 0.41311 0.31045 0.0
H1310 H 0.22213 0.40281 0.25936 0.0
C1311 C 0.19957 0.46744 0.2761 0.0
C1312 C 0.18389 0.4605 0.26297 0.0
C1313 C 0.21091 0.45467 0.28313 0.0
C1314 C 0.22629 0.40571 0.2737 0.0
H1315 H 0.27141 0.37104 0.34668 0.0
H1316 H 0.24524 0.38526 0.33202 0.0
H1317 H 0.24441 0.38245 0.27188 0.0
H1318 H 0.16779 0.4346 0.24696 0.0
H1319 H 0.18766 0.41213 0.25943 0.0
H1320 H 0.22012 0.43623 0.31238 0.0
C1321 C 0.25809 0.38193 0.32456 0.0
C1322 C 0.23923 0.39417 0.28084 0.0
C1323 C 0.27303 0.37367 0.33294 0.0
C1324 C 0.17972 0.44039 0.25712 0.0
C1325 C 0.19119 0.42754 0.26415 0.0
C1326 C 0.22531 0.42457 0.30335 0.0
C1327 C 0.26 0.38641 0.30705 0.0
C1328 C 0.24545 0.39783 0.29931 0.0
C1329 C 0.20694 0.43456 0.27726 0.0
C1330 C 0.2194 0.42123 0.28485 0.0
H1331 H 0.3047 0.36957 0.29888 0.0
H1332 H 0.2787 0.38446 0.28422 0.0
H1333 H 0.24282 0.4166 0.32467 0.0
H1334 H 0.20328 0.48284 0.28086 0.0
H1335 H 0.22311 0.46064 0.29298 0.0
C1336 C 0.12163 0.0039 0.49942 0.0
C1337 C 0.11668 0.99157 0.48291 0.0
C1338 C 0.14007 0.0157 0.50231 0.0
C1339 C 0.17813 0.03841 0.47575 0.0
H1340 H 0.20974 0.05163 0.52119 0.0
C1341 C 0.25267 0.08797 0.4809 0.0
C1342 C 0.25754 0.10142 0.49671 0.0
C1343 C 0.23662 0.07334 0.48006 0.0
C1344 C 0.20098 0.04829 0.50844 0.0
H1345 H 0.12712 0.98105 0.45685 0.0
H1346 H 0.15945 1.00112 0.46197 0.0
H1347 H 0.1798 0.02803 0.51857 0.0
H1348 H 0.25053 0.10957 0.52443 0.0
H1349 H 0.22176 0.08462 0.52284 0.0
H1350 H 0.19897 0.05844 0.4655 0.0
C1351 C 0.1491 1.0021 0.47259 0.0
C1352 C 0.18382 0.0347 0.50695 0.0
C1353 C 0.13071 0.99046 0.4697 0.0
C1354 C 0.24674 0.09951 0.51199 0.0
C1355 C 0.2304 0.08508 0.51108 0.0
C1356 C 0.1952 0.05191 0.47722 0.0
C1357 C 0.15378 0.01534 0.48868 0.0
C1358 C 0.17222 0.02956 0.49054 0.0
C1359 C 0.22495 0.07191 0.49501 0.0
C1360 C 0.2069 0.05714 0.49358 0.0
H1361 H 0.11087 0.0051 0.50969 0.0
H1362 H 0.14315 0.02579 0.51481 0.0
H1363 H 0.16934 0.03518 0.463 0.0
H1364 H 0.26128 0.08879 0.46915 0.0
H1365 H 0.23338 0.0632 0.46762 0.0
C1366 C 0.79914 0.14636 0.68413 0.0
C1367 C 0.81254 0.15518 0.69872 0.0
C1368 C 0.78517 0.13049 0.68591 0.0
C1369 C 0.75703 0.11131 0.72072 0.0
H1370 H 0.74612 0.06298 0.68734 0.0
C1371 C 0.70458 0.04837 0.73897 0.0
C1372 C 0.69216 0.03646 0.72529 0.0
C1373 C 0.71969 0.06187 0.7347 0.0
C1374 C 0.74873 0.0765 0.69667 0.0
H1375 H 0.82195 0.15404 0.7265 0.0
H1376 H 0.79777 0.12647 0.72951 0.0
H1377 H 0.77184 0.08825 0.6812 0.0
H1378 H 0.68629 0.02824 0.69646 0.0
H1379 H 0.71206 0.05267 0.6888 0.0
H1380 H 0.73403 0.10014 0.73608 0.0
C1381 C 0.79808 0.13177 0.71671 0.0
C1382 C 0.76353 0.09091 0.69315 0.0
C1383 C 0.81209 0.14743 0.7149 0.0
C1384 C 0.69555 0.03761 0.7072 0.0
C1385 C 0.71043 0.05147 0.70287 0.0
C1386 C 0.74219 0.09709 0.72412 0.0
C1387 C 0.78421 0.12341 0.7024 0.0
C1388 C 0.768 0.10832 0.70532 0.0
C1389 C 0.72258 0.06396 0.7166 0.0
C1390 C 0.73796 0.07934 0.71231 0.0
H1391 H 0.79918 0.15201 0.6715 0.0
H1392 H 0.77459 0.12432 0.67469 0.0
H1393 H 0.7599 0.12477 0.73015 0.0
H1394 H 0.7026 0.04722 0.75302 0.0
H1395 H 0.72909 0.07065 0.74567 0.0
C1396 C 0.4721 0.03634 0.53823 0.0
C1397 C 0.47128 0.01739 0.52871 0.0
C1398 C 0.45763 0.04818 0.53454 0.0
C1399 C 0.42049 0.05374 0.49853 0.0
H1400 H 0.39874 0.08729 0.53661 0.0
C1401 C 0.35159 0.09308 0.48635 0.0
C1402 C 0.35116 0.11169 0.49621 0.0
C1403 C 0.36706 0.08224 0.48976 0.0
C1404 C 0.40486 0.07822 0.52577 0.0
H1405 H 0.45401 0.99571 0.50855 0.0
H1406 H 0.42882 0.01624 0.5022 0.0
H1407 H 0.42372 0.06702 0.54426 0.0
H1408 H 0.3671 0.13384 0.51681 0.0
H1409 H 0.39419 0.11514 0.52248 0.0
H1410 H 0.40163 0.06489 0.48003 0.0
C1411 C 0.44089 0.02216 0.51219 0.0
C1412 C 0.41917 0.06656 0.53018 0.0
C1413 C 0.4553 0.01036 0.51587 0.0
C1414 C 0.36692 0.11951 0.50903 0.0
C1415 C 0.38238 0.10871 0.51241 0.0
C1416 C 0.40621 0.06541 0.49411 0.0
C1417 C 0.44201 0.04132 0.52126 0.0
C1418 C 0.42708 0.05408 0.51662 0.0
C1419 C 0.38246 0.08979 0.50308 0.0
C1420 C 0.39813 0.07775 0.50768 0.0
H1421 H 0.48431 0.04225 0.54807 0.0
H1422 H 0.45902 0.06291 0.5417 0.0
H1423 H 0.42653 0.04457 0.4877 0.0
H1424 H 0.33962 0.0866 0.47645 0.0
H1425 H 0.36653 0.06767 0.48241 0.0
C1426 C 0.59582 0.48594 0.55792 0.0
C1427 C 0.60015 0.506 0.55763 0.0
C1428 C 0.60916 0.47305 0.55147 0.0
C1429 C 0.64722 0.46495 0.51991 0.0
H1430 H 0.67126 0.43623 0.55339 0.0
C1431 C 0.71486 0.42477 0.50113 0.0
C1432 C 0.71779 0.40812 0.5086 0.0
C1433 C 0.69974 0.43584 0.50679 0.0
C1434 C 0.66446 0.44375 0.54368 0.0
H1435 H 0.62232 0.52791 0.55012 0.0
H1436 H 0.64476 0.50525 0.53796 0.0
H1437 H 0.64563 0.45649 0.56328 0.0
H1438 H 0.70682 0.38976 0.52761 0.0
H1439 H 0.67975 0.40842 0.53685 0.0
H1440 H 0.66528 0.4519 0.50006 0.0
C1441 C 0.63106 0.49967 0.54338 0.0
C1442 C 0.64983 0.45547 0.54944 0.0
C1443 C 0.61801 0.51263 0.55022 0.0
C1444 C 0.70504 0.40262 0.5217 0.0
C1445 C 0.68957 0.41345 0.52708 0.0
C1446 C 0.66148 0.4529 0.514 0.0
C1447 C 0.62689 0.47982 0.54415 0.0
C1448 C 0.64131 0.46638 0.53769 0.0
C1449 C 0.68675 0.43034 0.5198 0.0
C1450 C 0.67061 0.44234 0.52586 0.0
H1451 H 0.58213 0.48011 0.56314 0.0
H1452 H 0.60557 0.45775 0.55207 0.0
H1453 H 0.64072 0.47313 0.51056 0.0
H1454 H 0.72459 0.42953 0.49116 0.0
H1455 H 0.69855 0.44894 0.50113 0.0
C1456 C 0.74755 0.23711 0.34669 0.0
C1457 C 0.74741 0.21731 0.34774 0.0
C1458 C 0.74613 0.25057 0.36217 0.0
C1459 C 0.73214 0.25651 0.40962 0.0
H1460 H 0.77005 0.30299 0.41425 0.0
C1461 C 0.76736 0.32815 0.465 0.0
C1462 C 0.75012 0.33326 0.47324 0.0
C1463 C 0.76617 0.31301 0.45051 0.0
C1464 C 0.75932 0.29017 0.41329 0.0
H1465 H 0.745 0.19609 0.36589 0.0
H1466 H 0.74276 0.21973 0.39306 0.0
H1467 H 0.76886 0.2788 0.38752 0.0
H1468 H 0.71821 0.32592 0.47368 0.0
H1469 H 0.71581 0.29975 0.44763 0.0
H1470 H 0.72286 0.26789 0.43567 0.0
C1471 C 0.74383 0.22476 0.38017 0.0
C1472 C 0.75854 0.27631 0.3978 0.0
C1473 C 0.74531 0.21126 0.36464 0.0
C1474 C 0.73166 0.32236 0.4673 0.0
C1475 C 0.73037 0.30731 0.45249 0.0
C1476 C 0.73281 0.27055 0.42516 0.0
C1477 C 0.74458 0.24462 0.37914 0.0
C1478 C 0.74495 0.25931 0.39573 0.0
C1479 C 0.74762 0.30265 0.44372 0.0
C1480 C 0.74647 0.28759 0.42721 0.0
H1481 H 0.74938 0.24236 0.33396 0.0
H1482 H 0.74653 0.26574 0.36088 0.0
H1483 H 0.72148 0.24356 0.4084 0.0
H1484 H 0.78186 0.33601 0.46972 0.0
H1485 H 0.77988 0.30953 0.44459 0.0
C1486 C 0.5258 0.01834 0.90213 0.0
C1487 C 0.51639 0.03519 0.90283 0.0
C1488 C 0.54137 0.01536 0.89067 0.0
C1489 C 0.57763 0.04028 0.86352 0.0
H1490 H 0.5704 0.99171 0.8302 0.0
C1491 C 0.60973 0.03421 0.79423 0.0
C1492 C 0.61819 0.01751 0.78713 0.0
C1493 C 0.59967 0.03498 0.81007 0.0
C1494 C 0.57289 0.0052 0.83959 0.0
H1495 H 0.51614 0.06238 0.8928 0.0
H1496 H 0.54356 0.05749 0.87317 0.0
H1497 H 0.54944 0.99603 0.85591 0.0
H1498 H 0.6223 0.98833 0.79122 0.0
H1499 H 0.6045 0.98969 0.8191 0.0
H1500 H 0.60068 0.04968 0.84706 0.0
C1501 C 0.53907 0.04657 0.88141 0.0
C1502 C 0.56089 0.00768 0.85434 0.0
C1503 C 0.52339 0.04941 0.89264 0.0
C1504 C 0.61597 1.00141 0.79626 0.0
C1505 C 0.60577 1.00218 0.81222 0.0
C1506 C 0.58963 0.03779 0.84888 0.0
C1507 C 0.54791 0.0293 0.87993 0.0
C1508 C 0.56273 0.02548 0.86614 0.0
C1509 C 0.59772 0.01911 0.81941 0.0
C1510 C 0.58697 0.02046 0.83638 0.0
H1511 H 0.5204 0.00707 0.9097 0.0
H1512 H 0.54796 1.00196 0.88988 0.0
H1513 H 0.57965 0.05403 0.87256 0.0
H1514 H 0.61094 0.04691 0.78762 0.0
H1515 H 0.59325 0.04807 0.81494 0.0
C1516 C 0.33886 0.25767 0.34729 0.0
C1517 C 0.34675 0.27713 0.35293 0.0
C1518 C 0.3373 0.24466 0.35968 0.0
C1519 C 0.33758 0.24372 0.40944 0.0
H1520 H 0.3381 0.18864 0.39382 0.0
C1521 C 0.32888 0.18615 0.45781 0.0
C1522 C 0.31208 0.17235 0.45246 0.0
C1523 C 0.33625 0.19855 0.44598 0.0
C1524 C 0.33807 0.20402 0.39837 0.0
H1525 H 0.35997 0.2981 0.37569 0.0
H1526 H 0.35819 0.27532 0.39714 0.0
H1527 H 0.34545 0.21116 0.37262 0.0
H1528 H 0.2904 0.16019 0.43031 0.0
H1529 H 0.30374 0.18117 0.40958 0.0
H1530 H 0.33047 0.23636 0.43531 0.0
C1531 C 0.35243 0.27012 0.38337 0.0
C1532 C 0.34206 0.21696 0.38618 0.0
C1533 C 0.35361 0.2832 0.37105 0.0
C1534 C 0.30338 0.17064 0.43485 0.0
C1535 C 0.31103 0.18261 0.42293 0.0
C1536 C 0.334 0.23079 0.42171 0.0
C1537 C 0.34396 0.25069 0.37796 0.0
C1538 C 0.34143 0.237 0.39139 0.0
C1539 C 0.32728 0.19693 0.42846 0.0
C1540 C 0.33381 0.21079 0.41619 0.0
H1541 H 0.33333 0.25267 0.33341 0.0
H1542 H 0.33032 0.23 0.35493 0.0
H1543 H 0.33657 0.25892 0.41401 0.0
H1544 H 0.33578 0.18789 0.47135 0.0
H1545 H 0.34881 0.20952 0.45055 0.0
C1546 C 0.54255 0.47003 0.92904 0.0
C1547 C 0.5491 0.48445 0.94389 0.0
C1548 C 0.53168 0.4744 0.91429 0.0
C1549 C 0.52042 0.51533 0.89123 0.0
H1550 H 0.48045 0.47573 0.86501 0.0
C1551 C 0.46778 0.52059 0.82715 0.0
C1552 C 0.46886 0.50517 0.81298 0.0
C1553 C 0.47776 0.52094 0.84405 0.0
C1554 C 0.49153 0.48696 0.87225 0.0
H1555 H 0.54914 0.51478 0.95495 0.0
H1556 H 0.52974 0.52239 0.92926 0.0
H1557 H 0.4961 0.47047 0.89334 0.0
H1558 H 0.48261 0.47895 0.80513 0.0
H1559 H 0.49952 0.47954 0.83439 0.0
H1560 H 0.5155 0.53178 0.86987 0.0
C1561 C 0.53331 0.50774 0.92892 0.0
C1562 C 0.50063 0.48391 0.88842 0.0
C1563 C 0.54434 0.50337 0.94368 0.0
C1564 C 0.48114 0.49091 0.81575 0.0
C1565 C 0.49084 0.49118 0.83253 0.0
C1566 C 0.51106 0.51849 0.87507 0.0
C1567 C 0.52688 0.49331 0.91398 0.0
C1568 C 0.51563 0.49777 0.89789 0.0
C1569 C 0.48877 0.50582 0.84699 0.0
C1570 C 0.49693 0.50407 0.86522 0.0
H1571 H 0.54637 0.45543 0.92855 0.0
H1572 H 0.52749 0.46299 0.90289 0.0
H1573 H 0.53197 0.52631 0.89808 0.0
H1574 H 0.45844 0.53178 0.8255 0.0
H1575 H 0.47601 0.53242 0.85505 0.0
C1576 C 0.75481 0.78626 0.14715 0.0
C1577 C 0.76113 0.77897 0.16254 0.0
C1578 C 0.7563 0.77588 0.12987 0.0
C1579 C 0.76236 0.7261 0.10725 0.0
H1580 H 0.77602 0.75135 0.06623 0.0
C1581 C 0.79038 0.68565 0.04332 0.0
C1582 C 0.77955 0.68612 0.027 0.0
C1583 C 0.78744 0.69822 0.05896 0.0
C1584 C 0.77202 0.74418 0.07757 0.0
H1585 H 0.77494 0.75581 0.17202 0.0
H1586 H 0.77821 0.7381 0.14209 0.0
H1587 H 0.7725 0.77106 0.09555 0.0
H1588 H 0.75768 0.70081 0.01424 0.0
H1589 H 0.75291 0.72322 0.04175 0.0
H1590 H 0.76268 0.69929 0.08946 0.0
C1591 C 0.77133 0.75134 0.14319 0.0
C1592 C 0.76994 0.75542 0.09434 0.0
C1593 C 0.76959 0.76154 0.16037 0.0
C1594 C 0.76623 0.70004 0.02659 0.0
C1595 C 0.76353 0.71288 0.04227 0.0
C1596 C 0.76474 0.71496 0.09064 0.0
C1597 C 0.76437 0.75814 0.12769 0.0
C1598 C 0.7654 0.74649 0.10948 0.0
C1599 C 0.77382 0.71176 0.05865 0.0
C1600 C 0.76985 0.72387 0.07572 0.0
H1601 H 0.74822 0.79969 0.14852 0.0
H1602 H 0.75068 0.78151 0.11828 0.0
H1603 H 0.75825 0.71866 0.11839 0.0
H1604 H 0.80075 0.67516 0.04423 0.0
H1605 H 0.79567 0.6972 0.07141 0.0
C1606 C 0.0426 0.01485 0.10826 0.0
C1607 C 0.05503 0.03214 0.10758 0.0
C1608 C 0.0326 0.01224 0.12382 0.0
C1609 C 0.01735 0.03985 0.1666 0.0
H1610 H 0.00785 0.9886 0.17983 0.0
C1611 C 0.96622 0.02356 0.22388 0.0
C1612 C 0.9707 0.00926 0.23406 0.0
C1613 C 0.97702 0.02684 0.2089 0.0
C1614 C 0.01057 0.0031 0.17654 0.0
H1615 H 0.06725 0.06001 0.12287 0.0
H1616 H 0.05041 0.0553 0.15017 0.0
H1617 H 0.02606 0.99316 0.15337 0.0
H1618 H 0.99064 0.98774 0.23687 0.0
H1619 H 0.00991 0.99394 0.21132 0.0
H1620 H 1.00258 0.04992 0.19021 0.0
C1621 C 0.04776 0.04394 0.13854 0.0
C1622 C 0.02078 0.00566 0.16109 0.0
C1623 C 0.05753 0.04663 0.1229 0.0
C1624 C 0.98665 0.99876 0.22924 0.0
C1625 C 0.99761 1.00221 0.21444 0.0
C1626 C 0.00735 0.03732 0.18218 0.0
C1627 C 0.03501 0.02676 0.13921 0.0
C1628 C 0.02427 0.02406 0.15583 0.0
C1629 C 0.99276 0.01606 0.20383 0.0
C1630 C 0.00375 0.0189 0.18737 0.0
H1631 H 0.04025 0.0035 0.09659 0.0
H1632 H 0.02269 0.99894 0.12362 0.0
H1633 H 0.01944 0.0542 0.16292 0.0
H1634 H 0.95391 0.0318 0.2271 0.0
H1635 H 0.97258 0.03744 0.20099 0.0
C1636 C 0.31653 0.75078 0.14718 0.0
C1637 C 0.31439 0.75871 0.16526 0.0
C1638 C 0.31613 0.76238 0.13358 0.0
C1639 C 0.29383 0.80483 0.12436 0.0
H1640 H 0.32776 0.80484 0.08406 0.0
C1641 C 0.28294 0.85503 0.07246 0.0
C1642 C 0.28468 0.84773 0.05421 0.0
C1643 C 0.28931 0.84516 0.08601 0.0
C1644 C 0.31801 0.80486 0.09512 0.0
H1645 H 0.31197 0.78535 0.18342 0.0
H1646 H 0.31108 0.80543 0.15977 0.0
H1647 H 0.33437 0.78543 0.10758 0.0
H1648 H 0.29501 0.82464 0.03581 0.0
H1649 H 0.3055 0.80697 0.05939 0.0
H1650 H 0.27696 0.82348 0.11187 0.0
C1651 C 0.31269 0.79021 0.15604 0.0
C1652 C 0.32187 0.79378 0.10861 0.0
C1653 C 0.31319 0.7787 0.16958 0.0
C1654 C 0.29354 0.83065 0.04979 0.0
C1655 C 0.29964 0.82057 0.06334 0.0
C1656 C 0.28983 0.81565 0.11085 0.0
C1657 C 0.31352 0.78207 0.13785 0.0
C1658 C 0.30987 0.79378 0.12344 0.0
C1659 C 0.29724 0.82749 0.08164 0.0
C1660 C 0.30191 0.81596 0.09607 0.0
H1661 H 0.3174 0.73542 0.1434 0.0
H1662 H 0.31677 0.75572 0.11966 0.0
H1663 H 0.28405 0.80478 0.13541 0.0
H1664 H 0.27639 0.86829 0.07631 0.0
H1665 H 0.28775 0.8513 0.09993 0.0
C1666 C 0.01991 0.50821 0.08244 0.0
C1667 C 0.01716 0.4916 0.06908 0.0
C1668 C 0.02883 0.50761 0.09947 0.0
C1669 C 0.06361 0.48117 0.122 0.0
H1670 H 0.04593 0.50933 0.16571 0.0
C1671 C 0.10628 0.48573 0.19155 0.0
C1672 C 0.10933 0.50428 0.20213 0.0
C1673 C 0.09285 0.48186 0.17628 0.0
C1674 C 0.05114 0.50147 0.15363 0.0
H1675 H 0.02092 0.46107 0.06356 0.0
H1676 H 0.03672 0.46013 0.09322 0.0
H1677 H 0.02643 0.50706 0.13721 0.0
H1678 H 0.10005 0.5331 0.2051 0.0
H1679 H 0.0771 0.52645 0.17864 0.0
H1680 H 0.08865 0.47609 0.13828 0.0
C1681 C 0.03214 0.47367 0.0904 0.0
C1682 C 0.03994 0.50016 0.13729 0.0
C1683 C 0.0231 0.47424 0.07339 0.0
C1684 C 0.09816 0.51862 0.19736 0.0
C1685 C 0.08481 0.51476 0.18217 0.0
C1686 C 0.07488 0.48256 0.13834 0.0
C1687 C 0.03533 0.49041 0.10357 0.0
C1688 C 0.04622 0.49029 0.12122 0.0
C1689 C 0.08213 0.49642 0.17128 0.0
C1690 C 0.069 0.49305 0.15431 0.0
H1691 H 0.01587 0.52192 0.07956 0.0
H1692 H 0.03131 0.52084 0.10921 0.0
H1693 H 0.06898 0.47361 0.10984 0.0
H1694 H 0.11459 0.47432 0.1948 0.0
H1695 H 0.091 0.4675 0.16831 0.0
C1696 C 0.37526 0.70441 0.23884 0.0
C1697 C 0.37647 0.69406 0.22151 0.0
C1698 C 0.39079 0.70567 0.252 0.0
C1699 C 0.43621 0.68263 0.2627 0.0
H1700 H 0.44383 0.72662 0.30127 0.0
C1701 C 0.48928 0.68464 0.32632 0.0
C1702 C 0.49738 0.70285 0.33569 0.0
C1703 C 0.47536 0.68331 0.31162 0.0
C1704 C 0.44233 0.71432 0.2905 0.0
H1705 H 0.39488 0.67723 0.20408 0.0
H1706 H 0.42279 0.68054 0.22664 0.0
H1707 H 0.41961 0.72607 0.27677 0.0
H1708 H 0.49909 0.73383 0.33627 0.0
H1709 H 0.47629 0.7317 0.31012 0.0
H1710 H 0.45999 0.67155 0.27594 0.0
C1711 C 0.40957 0.68712 0.2304 0.0
C1712 C 0.42795 0.71381 0.27649 0.0
C1713 C 0.39375 0.68545 0.21735 0.0
C1714 C 0.49255 0.71961 0.32949 0.0
C1715 C 0.47924 0.71833 0.31456 0.0
C1716 C 0.45103 0.68338 0.27652 0.0
C1717 C 0.40819 0.69698 0.24806 0.0
C1718 C 0.42444 0.69787 0.26246 0.0
C1719 C 0.46991 0.70021 0.30568 0.0
C1720 C 0.45427 0.69922 0.29071 0.0
H1721 H 0.36185 0.71074 0.24248 0.0
H1722 H 0.38871 0.71292 0.26544 0.0
H1723 H 0.43385 0.66991 0.25237 0.0
H1724 H 0.49308 0.67153 0.33079 0.0
H1725 H 0.46848 0.66906 0.30534 0.0
C1726 C 0.0229 0.41825 0.95947 0.0
C1727 C 0.02943 0.42682 0.97721 0.0
C1728 C 0.02182 0.39825 0.95416 0.0
C1729 C 0.00933 0.35493 0.95028 0.0
H1730 H 0.05473 0.32802 0.95943 0.0
C1731 C 0.00569 0.27326 0.92691 0.0
C1732 C 0.02156 0.26741 0.91674 0.0
C1733 C 0.00725 0.29169 0.93725 0.0
C1734 C 0.04193 0.33535 0.95683 0.0
H1735 H 0.03994 0.42118 0.00332 0.0
H1736 H 0.03823 0.38596 0.99391 0.0
H1737 H 0.05578 0.36258 0.97161 0.0
H1738 H 0.05204 0.27603 0.91051 0.0
H1739 H 0.05469 0.30832 0.92858 0.0
H1740 H 0.99561 0.32805 0.93519 0.0
C1741 C 0.03395 0.39484 0.98418 0.0
C1742 C 0.04247 0.35505 0.96391 0.0
C1743 C 0.03479 0.41492 0.98958 0.0
C1744 C 0.03951 0.28004 0.91813 0.0
C1745 C 0.04106 0.29854 0.92853 0.0
C1746 C 0.00871 0.33528 0.94337 0.0
C1747 C 0.02738 0.38633 0.96641 0.0
C1748 C 0.02629 0.3651 0.96042 0.0
C1749 C 0.0247 0.30477 0.93772 0.0
C1750 C 0.02509 0.3253 0.94636 0.0
H1751 H 0.0185 0.42704 0.94969 0.0
H1752 H 0.01686 0.39213 0.94034 0.0
H1753 H 0.99659 0.36227 0.94749 0.0
H1754 H 0.99171 0.26387 0.92638 0.0
H1755 H 0.99452 0.29593 0.94447 0.0
C1756 C 0.68939 0.78018 0.25785 0.0
C1757 C 0.70724 0.77398 0.26369 0.0
C1758 C 0.67377 0.782 0.26941 0.0
C1759 C 0.66087 0.7822 0.31742 0.0
H1760 H 0.60908 0.7585 0.29555 0.0
C1761 C 0.59881 0.74717 0.35669 0.0
C1762 C 0.57888 0.74918 0.35208 0.0
C1763 C 0.61425 0.75466 0.34697 0.0
C1764 C 0.62335 0.76548 0.30185 0.0
H1765 H 0.72326 0.76629 0.28665 0.0
H1766 H 0.69602 0.76893 0.30655 0.0
H1767 H 0.63665 0.76413 0.27646 0.0
H1768 H 0.55957 0.76125 0.33411 0.0
H1769 H 0.58655 0.77421 0.31707 0.0
H1770 H 0.64765 0.78266 0.3429 0.0
C1771 C 0.69399 0.77255 0.29315 0.0
C1772 C 0.63918 0.76878 0.29089 0.0
C1773 C 0.70957 0.77079 0.28164 0.0
C1774 C 0.57477 0.75944 0.33798 0.0
C1775 C 0.5902 0.76678 0.32815 0.0
C1776 C 0.64506 0.77876 0.32839 0.0
C1777 C 0.67568 0.77767 0.28705 0.0
C1778 C 0.65828 0.77677 0.29855 0.0
C1779 C 0.61007 0.76418 0.33234 0.0
C1780 C 0.62623 0.77 0.32074 0.0
H1781 H 0.68712 0.78272 0.24409 0.0
H1782 H 0.66 0.7863 0.26435 0.0
H1783 H 0.67526 0.78873 0.32377 0.0
H1784 H 0.60246 0.73936 0.3675 0.0
H1785 H 0.62938 0.75225 0.35042 0.0
C1786 C 0.07915 0.11112 0.01291 0.0
C1787 C 0.06587 0.10064 0.0228 0.0
C1788 C 0.07243 0.11725 0.99713 0.0
C1789 C 0.02795 0.13202 0.97707 0.0
H1790 H 0.05833 0.13159 0.93443 0.0
C1791 C 0.00467 0.17073 0.9181 0.0
C1792 C 0.02018 0.18084 0.91009 0.0
C1793 C 0.00886 0.15806 0.93007 0.0
C1794 C 0.04973 0.13202 0.94629 0.0
H1795 H 0.0353 0.08783 0.02372 0.0
H1796 H 0.02339 0.09879 0.99611 0.0
H1797 H 0.06832 0.11414 0.95831 0.0
H1798 H 0.05232 0.18535 0.90838 0.0
H1799 H 0.05961 0.16387 0.92947 0.0
H1800 H 0.00991 0.15062 0.96556 0.0
C1801 C 0.03903 0.10216 1.00057 0.0
C1802 C 0.05542 0.12189 0.95992 0.0
C1803 C 0.04585 0.09575 0.01624 0.0
C1804 C 0.03994 0.17775 0.91417 0.0
C1805 C 0.04413 0.16525 0.92623 0.0
C1806 C 0.02238 0.14234 0.96352 0.0
C1807 C 0.0522 0.11328 0.99103 0.0
C1808 C 0.04479 0.12205 0.9756 0.0
C1809 C 0.02868 0.1553 0.93446 0.0
C1810 C 0.03342 0.14279 0.94808 0.0
H1811 H 0.09465 0.11511 0.01773 0.0
H1812 H 0.08291 0.12591 0.99019 0.0
H1813 H 0.0196 0.13261 0.98909 0.0
H1814 H 0.98926 0.17262 0.91518 0.0
H1815 H 0.99652 0.15045 0.93589 0.0
C1816 C 0.3826 0.3138 0.29106 0.0
C1817 C 0.36922 0.29861 0.29551 0.0
C1818 C 0.39478 0.31054 0.27655 0.0
C1819 C 0.4161 0.27051 0.249 0.0
H1820 H 0.42878 0.30786 0.21689 0.0
C1821 C 0.45491 0.24974 0.1841 0.0
C1822 C 0.47103 0.26255 0.17994 0.0
C1823 C 0.44257 0.25553 0.19776 0.0
C1824 C 0.42553 0.29739 0.22588 0.0
H1825 H 0.35748 0.26832 0.28762 0.0
H1826 H 0.37848 0.26266 0.26225 0.0
H1827 H 0.40657 0.31517 0.24129 0.0
H1828 H 0.48618 0.2919 0.18657 0.0
H1829 H 0.4644 0.30207 0.21067 0.0
H1830 H 0.43486 0.25268 0.23363 0.0
C1831 C 0.37996 0.27701 0.27022 0.0
C1832 C 0.41281 0.30156 0.23985 0.0
C1833 C 0.36785 0.28025 0.28474 0.0
C1834 C 0.47396 0.28165 0.18943 0.0
C1835 C 0.46147 0.28748 0.2032 0.0
C1836 C 0.4287 0.26635 0.23507 0.0
C1837 C 0.39385 0.29201 0.26612 0.0
C1838 C 0.40774 0.28804 0.25146 0.0
C1839 C 0.44589 0.27431 0.20775 0.0
C1840 C 0.43338 0.27959 0.22317 0.0
H1841 H 0.38419 0.32807 0.2992 0.0
H1842 H 0.40541 0.32238 0.27391 0.0
H1843 H 0.41302 0.25997 0.25794 0.0
H1844 H 0.4519 0.23502 0.17694 0.0
H1845 H 0.43042 0.24517 0.20061 0.0
C1846 C 0.53529 0.39252 0.01734 0.0
C1847 C 0.55236 0.40611 0.01781 0.0
C1848 C 0.53025 0.38448 0.03266 0.0
C1849 C 0.55367 0.37228 0.07353 0.0
H1850 H 0.49886 0.3579 0.08431 0.0
C1851 C 0.53447 0.32327 0.12719 0.0
C1852 C 0.51893 0.30805 0.12184 0.0
C1853 C 0.5376 0.33858 0.11728 0.0
C1854 C 0.51425 0.36173 0.08146 0.0
H1855 H 0.57711 0.42254 0.03485 0.0
H1856 H 0.56832 0.40837 0.06184 0.0
H1857 H 0.50603 0.37925 0.06207 0.0
H1858 H 0.494 0.29744 0.10233 0.0
H1859 H 0.4995 0.32394 0.08505 0.0
H1860 H 0.56187 0.35422 0.0924 0.0
C1861 C 0.55888 0.40392 0.04954 0.0
C1862 C 0.51837 0.37402 0.06873 0.0
C1863 C 0.56382 0.41216 0.03418 0.0
C1864 C 0.50608 0.30894 0.10686 0.0
C1865 C 0.50919 0.32423 0.09698 0.0
C1866 C 0.54955 0.35994 0.08624 0.0
C1867 C 0.54223 0.38969 0.04884 0.0
C1868 C 0.53809 0.37907 0.06427 0.0
C1869 C 0.52524 0.33906 0.10182 0.0
C1870 C 0.52975 0.35412 0.09005 0.0
H1871 H 0.52618 0.38764 0.00489 0.0
H1872 H 0.51747 0.37343 0.03153 0.0
H1873 H 0.56901 0.37567 0.07029 0.0
H1874 H 0.54463 0.32305 0.13868 0.0
H1875 H 0.54992 0.34989 0.12157 0.0
C1876 C 0.68091 0.21647 0.26403 0.0
C1877 C 0.69179 0.20354 0.25355 0.0
C1878 C 0.66192 0.21961 0.2577 0.0
C1879 C 0.62991 0.23331 0.23419 0.0
H1880 H 0.59359 0.19142 0.20644 0.0
C1881 C 0.56859 0.24614 0.18278 0.0
C1882 C 0.55057 0.23356 0.18037 0.0
C1883 C 0.58426 0.24289 0.19429 0.0
C1884 C 0.60336 0.20331 0.21436 0.0
H1885 H 0.69093 0.18296 0.22881 0.0
H1886 H 0.65809 0.18846 0.21777 0.0
H1887 H 0.62298 0.18409 0.22259 0.0
H1888 H 0.5347 0.20814 0.18886 0.0
H1889 H 0.56181 0.20273 0.20908 0.0
H1890 H 0.61022 0.25253 0.22592 0.0
C1891 C 0.66404 0.19619 0.23085 0.0
C1892 C 0.62036 0.1991 0.22347 0.0
C1893 C 0.68296 0.19316 0.2371 0.0
C1894 C 0.54841 0.21804 0.19021 0.0
C1895 C 0.56402 0.21486 0.20178 0.0
C1896 C 0.61284 0.23753 0.22508 0.0
C1897 C 0.6534 0.2097 0.24089 0.0
C1898 C 0.63408 0.21406 0.23318 0.0
C1899 C 0.58228 0.22704 0.20374 0.0
C1900 C 0.59953 0.2226 0.21477 0.0
H1901 H 0.6874 0.2247 0.27674 0.0
H1902 H 0.65402 0.22997 0.26585 0.0
H1903 H 0.64022 0.24521 0.24144 0.0
H1904 H 0.57083 0.25822 0.17541 0.0
H1905 H 0.59818 0.25244 0.19527 0.0
C1906 C 0.50722 0.09027 1.00142 0.0
C1907 C 0.48677 0.08381 0.99784 0.0
C1908 C 0.51355 0.10798 0.01267 0.0
C1909 C 0.49722 0.15491 0.03045 0.0
H1910 H 0.53301 0.15511 0.07222 0.0
C1911 C 0.50177 0.21416 0.09274 0.0
C1912 C 0.51955 0.21902 0.10363 0.0
C1913 C 0.50023 0.19935 0.07789 0.0
C1914 C 0.52333 0.15549 0.06046 0.0
H1915 H 0.45694 0.09098 1.00257 0.0
H1916 H 0.46792 0.12196 0.02185 0.0
H1917 H 0.52599 0.12591 0.04962 0.0
H1918 H 0.55032 0.21384 0.10663 0.0
H1919 H 0.5478 0.18784 0.08052 0.0
H1920 H 0.49442 0.18436 0.04114 0.0
C1921 C 0.47908 0.11336 0.01614 0.0
C1922 C 0.51929 0.13871 0.04753 0.0
C1923 C 0.4728 0.09559 0.00522 0.0
C1924 C 0.53629 0.20989 0.09866 0.0
C1925 C 0.53477 0.19498 0.08378 0.0
C1926 C 0.50142 0.17174 0.04324 0.0
C1927 C 0.4995 0.11967 0.02015 0.0
C1928 C 0.50581 0.13811 0.03262 0.0
C1929 C 0.51657 0.18923 0.07342 0.0
C1930 C 0.51412 0.17212 0.05868 0.0
H1931 H 0.51825 0.08141 0.99589 0.0
H1932 H 0.52938 0.11256 0.01551 0.0
H1933 H 0.48697 0.15493 0.01896 0.0
H1934 H 0.48886 0.22151 0.09601 0.0
H1935 H 0.48591 0.19533 0.07043 0.0
C1936 C 0.27914 0.34331 0.72586 0.0
C1937 C 0.27058 0.33815 0.70809 0.0
C1938 C 0.29083 0.3611 0.7314 0.0
C1939 C 0.3085 0.40899 0.71736 0.0
H1940 H 0.35204 0.40685 0.75189 0.0
C1941 C 0.37794 0.46794 0.73273 0.0
C1942 C 0.3859 0.47208 0.75066 0.0
C1943 C 0.36238 0.45279 0.72755 0.0
C1944 C 0.34007 0.40777 0.74219 0.0
H1945 H 0.26695 0.34875 0.68259 0.0
H1946 H 0.28873 0.37896 0.69178 0.0
H1947 H 0.32826 0.37849 0.74248 0.0
H1948 H 0.38278 0.46517 0.77757 0.0
H1949 H 0.35568 0.43893 0.7687 0.0
H1950 H 0.32135 0.43824 0.71657 0.0
C1951 C 0.28591 0.36941 0.70164 0.0
C1952 C 0.32609 0.39147 0.73695 0.0
C1953 C 0.27363 0.3518 0.69624 0.0
C1954 C 0.37734 0.46173 0.76352 0.0
C1955 C 0.3618 0.44674 0.75842 0.0
C1956 C 0.3229 0.42524 0.72231 0.0
C1957 C 0.29509 0.37412 0.7192 0.0
C1958 C 0.30993 0.39182 0.7246 0.0
C1959 C 0.35433 0.44183 0.74032 0.0
C1960 C 0.33885 0.4248 0.73484 0.0
H1961 H 0.27761 0.33336 0.7355 0.0
H1962 H 0.29696 0.36435 0.74523 0.0
H1963 H 0.29617 0.41002 0.70802 0.0
H1964 H 0.38412 0.47604 0.72268 0.0
H1965 H 0.35702 0.44934 0.7135 0.0
C1966 C 0.30518 0.66857 0.80942 0.0
C1967 C 0.28873 0.66738 0.82018 0.0
C1968 C 0.31889 0.65514 0.8091 0.0
C1969 C 0.32375 0.6055 0.81585 0.0
H1970 H 0.38051 0.6225 0.81668 0.0
C1971 C 0.38129 0.55034 0.80784 0.0
C1972 C 0.39674 0.55423 0.79647 0.0
C1973 C 0.36901 0.56452 0.81367 0.0
C1974 C 0.36471 0.61745 0.81627 0.0
H1975 H 0.2738 0.65124 0.83916 0.0
H1976 H 0.29773 0.62748 0.83842 0.0
H1977 H 0.35714 0.64647 0.82105 0.0
H1978 H 0.41176 0.57625 0.78276 0.0
H1979 H 0.39028 0.60068 0.79254 0.0
H1980 H 0.33116 0.5765 0.81036 0.0
C1981 C 0.29998 0.63888 0.83027 0.0
C1982 C 0.35133 0.63122 0.81884 0.0
C1983 C 0.28637 0.65252 0.83077 0.0
C1984 C 0.40005 0.57277 0.79157 0.0
C1985 C 0.38775 0.58687 0.79729 0.0
C1986 C 0.33713 0.5917 0.81309 0.0
C1987 C 0.3164 0.64006 0.81942 0.0
C1988 C 0.33068 0.62541 0.81836 0.0
C1989 C 0.37185 0.58288 0.8082 0.0
C1990 C 0.35778 0.59749 0.81295 0.0
H1991 H 0.30751 0.67998 0.80126 0.0
H1992 H 0.33126 0.65634 0.80048 0.0
H1993 H 0.30791 0.60057 0.81525 0.0
H1994 H 0.37837 0.53621 0.8119 0.0
H1995 H 0.35714 0.561 0.82229 0.0
C1996 C 0.9264 0.52173 0.47424 0.0
C1997 C 0.94444 0.52506 0.48488 0.0
C1998 C 0.91034 0.50931 0.47857 0.0
C1999 C 0.88914 0.4851 0.51521 0.0
H2000 H 0.85815 0.45252 0.47481 0.0
C2001 C 0.80719 0.43781 0.49553 0.0
C2002 C 0.80655 0.42326 0.50648 0.0
C2003 C 0.82437 0.45081 0.49553 0.0
C2004 C 0.86661 0.46159 0.48624 0.0
H2005 H 0.95962 0.51828 0.50868 0.0
H2006 H 0.93148 0.49622 0.51617 0.0
H2007 H 0.88782 0.47329 0.46934 0.0
H2008 H 0.82298 0.41193 0.52708 0.0
H2009 H 0.8533 0.43504 0.52715 0.0
H2010 H 0.86767 0.47298 0.53207 0.0
C2011 C 0.92976 0.5034 0.50454 0.0
C2012 C 0.88359 0.47356 0.48311 0.0
C2013 C 0.94589 0.51598 0.50023 0.0
C2014 C 0.82302 0.42301 0.51853 0.0
C2015 C 0.84036 0.43616 0.51853 0.0
C2016 C 0.87211 0.4729 0.51837 0.0
C2017 C 0.91186 0.49975 0.49361 0.0
C2018 C 0.89481 0.48585 0.49747 0.0
C2019 C 0.8414 0.44966 0.50648 0.0
C2020 C 0.86044 0.4614 0.50383 0.0
H2021 H 0.92462 0.5289 0.46259 0.0
H2022 H 0.89662 0.50729 0.47012 0.0
H2023 H 0.89744 0.49439 0.52658 0.0
H2024 H 0.79466 0.43862 0.4863 0.0
H2025 H 0.82462 0.46134 0.48639 0.0
C2026 C 0.78538 0.8707 0.81636 0.0
C2027 C 0.80198 0.88212 0.82617 0.0
C2028 C 0.77076 0.87943 0.80783 0.0
C2029 C 0.74973 0.92548 0.81285 0.0
H2030 H 0.72659 0.90921 0.76397 0.0
C2031 C 0.7038 0.97444 0.77836 0.0
C2032 C 0.68726 0.96622 0.76658 0.0
C2033 C 0.71646 0.96273 0.78537 0.0
C2034 C 0.73265 0.91374 0.77775 0.0
H2035 H 0.817 0.91146 0.8334 0.0
H2036 H 0.79155 0.92658 0.81879 0.0
H2037 H 0.75168 0.89114 0.77588 0.0
H2038 H 0.67096 0.93912 0.75302 0.0
H2039 H 0.69299 0.91852 0.76559 0.0
H2040 H 0.73081 0.94788 0.81498 0.0
C2041 C 0.78959 0.91095 0.81798 0.0
C2042 C 0.74708 0.90342 0.78452 0.0
C2043 C 0.80418 0.90228 0.82635 0.0
C2044 C 0.68356 0.9459 0.76211 0.0
C2045 C 0.69627 0.93411 0.7692 0.0
C2046 C 0.73527 0.93563 0.80618 0.0
C2047 C 0.77245 0.89972 0.80905 0.0
C2048 C 0.75608 0.90948 0.80202 0.0
C2049 C 0.71292 0.94241 0.78092 0.0
C2050 C 0.72685 0.93022 0.78841 0.0
H2051 H 0.7832 0.85514 0.81601 0.0
H2052 H 0.75771 0.87041 0.80101 0.0
H2053 H 0.75605 0.93022 0.82654 0.0
H2054 H 0.70723 0.99003 0.782 0.0
H2055 H 0.72932 0.96972 0.79402 0.0
C2056 C 0.62561 0.49897 0.96717 0.0
C2057 C 0.613 0.49793 0.98141 0.0
C2058 C 0.64391 0.51075 0.96981 0.0
C2059 C 0.68107 0.53948 0.0048 0.0
H2060 H 0.69547 0.56608 0.96487 0.0
C2061 C 0.74603 0.60262 0.01105 0.0
C2062 C 0.7566 0.60469 0.99566 0.0
C2063 C 0.72915 0.58878 0.01001 0.0
C2064 C 0.69182 0.55881 0.97618 0.0
H2065 H 0.60965 0.50785 0.00969 0.0
H2066 H 0.64156 0.52912 0.01433 0.0
H2067 H 0.66487 0.54416 0.96225 0.0
H2068 H 0.7593 0.59285 0.96769 0.0
H2069 H 0.73027 0.56839 0.96585 0.0
H2070 H 0.708 0.55463 0.01883 0.0
C2071 C 0.63751 0.52054 1.00116 0.0
C2072 C 0.67423 0.54602 0.97462 0.0
C2073 C 0.61922 0.50845 0.99854 0.0
C2074 C 0.75089 0.59194 0.97955 0.0
C2075 C 0.73424 0.57796 0.97854 0.0
C2076 C 0.69865 0.55253 0.00644 0.0
C2077 C 0.64992 0.5221 0.9867 0.0
C2078 C 0.66864 0.53602 0.98882 0.0
C2079 C 0.72288 0.5764 0.99365 0.0
C2080 C 0.70428 0.56236 0.99211 0.0
H2081 H 0.62117 0.49078 0.95389 0.0
H2082 H 0.65326 0.51108 0.95848 0.0
H2083 H 0.6774 0.53188 0.01594 0.0
H2084 H 0.75045 0.61211 0.02371 0.0
H2085 H 0.72076 0.58814 0.0219 0.0
C2086 C 0.31776 0.63979 0.21239 0.0
C2087 C 0.31703 0.64862 0.19684 0.0
C2088 C 0.30423 0.6237 0.21399 0.0
C2089 C 0.26784 0.58415 0.19042 0.0
H2090 H 0.24128 0.59207 0.23516 0.0
C2091 C 0.19827 0.53289 0.20455 0.0
C2092 C 0.195 0.53134 0.22259 0.0
C2093 C 0.21396 0.54603 0.20038 0.0
C2094 C 0.24861 0.58933 0.22268 0.0
H2095 H 0.30216 0.64676 0.17035 0.0
H2096 H 0.27831 0.61844 0.17322 0.0
H2097 H 0.2674 0.61633 0.22922 0.0
H2098 H 0.20644 0.5404 0.25029 0.0
H2099 H 0.23438 0.56234 0.24318 0.0
H2100 H 0.24922 0.55692 0.184 0.0
C2101 C 0.28949 0.62408 0.18411 0.0
C2102 C 0.26363 0.60337 0.21928 0.0
C2103 C 0.30304 0.64032 0.18252 0.0
C2104 C 0.20837 0.54191 0.2363 0.0
C2105 C 0.2243 0.55459 0.23217 0.0
C2106 C 0.25283 0.56991 0.19391 0.0
C2107 C 0.28959 0.61603 0.20011 0.0
C2108 C 0.2735 0.6009 0.2032 0.0
C2109 C 0.22704 0.5573 0.2142 0.0
C2110 C 0.24303 0.57229 0.21015 0.0
H2111 H 0.32809 0.64592 0.2238 0.0
H2112 H 0.30475 0.61765 0.2264 0.0
H2113 H 0.27528 0.58191 0.17792 0.0
H2114 H 0.18825 0.52453 0.19377 0.0
H2115 H 0.21541 0.54772 0.18641 0.0
C2116 C 0.95517 0.51935 0.0364 0.0
C2117 C 0.97246 0.51938 0.02663 0.0
C2118 C 0.94029 0.53073 0.03263 0.0
C2119 C 0.92091 0.5554 0.99659 0.0
H2120 H 0.89498 0.58379 0.03538 0.0
C2121 C 0.85128 0.5944 0.98484 0.0
C2122 C 0.85056 0.61245 0.99568 0.0
C2123 C 0.8665 0.58317 0.988 0.0
C2124 C 0.90216 0.57605 0.02438 0.0
H2125 H 0.98796 0.53208 0.00575 0.0
H2126 H 0.96206 0.55173 0.99915 0.0
H2127 H 0.92075 0.56411 0.04251 0.0
H2128 H 0.86573 0.63316 0.01787 0.0
H2129 H 0.89226 0.61374 0.02321 0.0
H2130 H 0.90247 0.56754 0.97847 0.0
C2131 C 0.95979 0.54263 0.00947 0.0
C2132 C 0.91678 0.56458 0.02848 0.0
C2133 C 0.97466 0.53135 0.01327 0.0
C2134 C 0.86576 0.61929 0.00931 0.0
C2135 C 0.8809 0.60808 0.01248 0.0
C2136 C 0.90621 0.56678 0.99249 0.0
C2137 C 0.94235 0.54236 0.01899 0.0
C2138 C 0.92643 0.5542 0.01464 0.0
C2139 C 0.88128 0.58973 1.0021 0.0
C2140 C 0.89674 0.57735 0.00634 0.0
H2141 H 0.9529 0.51018 0.04665 0.0
H2142 H 0.92697 0.53007 0.04013 0.0
H2143 H 0.92788 0.54741 0.9856 0.0
H2144 H 0.83975 0.58867 0.97429 0.0
H2145 H 0.8663 0.56906 0.9798 0.0
C2146 C 0.11707 0.01627 0.05053 0.0
C2147 C 0.0993 0.00988 0.0582 0.0
C2148 C 0.12995 0.00314 0.04366 0.0
C2149 C 0.14766 0.95822 0.04998 0.0
H2150 H 0.16499 0.9554 1.00123 0.0
C2151 C 0.20124 0.90366 0.02297 0.0
C2152 C 0.21492 0.90894 0.01049 0.0
C2153 C 0.18611 0.91504 0.02796 0.0
C2154 C 0.16065 0.95618 0.01499 0.0
H2155 H 0.08117 0.98421 0.06406 0.0
H2156 H 0.10426 0.96156 0.05289 0.0
H2157 H 0.1408 0.97719 0.01144 0.0
H2158 H 0.22357 0.93046 0.99359 0.0
H2159 H 0.19799 0.95084 0.0029 0.0
H2160 H 0.16813 0.93815 0.05408 0.0
C2161 C 0.10797 0.97681 0.05214 0.0
C2162 C 0.14661 0.96857 0.02075 0.0
C2163 C 0.09482 0.98987 0.05864 0.0
C2164 C 0.21314 0.92589 0.00312 0.0
C2165 C 0.1983 0.93752 0.0084 0.0
C2166 C 0.16204 0.94615 0.04438 0.0
C2167 C 0.12566 0.98334 0.04462 0.0
C2168 C 0.13999 0.9697 0.03829 0.0
C2169 C 0.18451 0.9323 0.02091 0.0
C2170 C 0.16881 0.94493 0.02679 0.0
H2171 H 0.12147 0.03151 0.05028 0.0
H2172 H 0.14362 0.00857 0.0381 0.0
H2173 H 0.14296 0.95902 0.06365 0.0
H2174 H 0.20209 0.89056 0.02876 0.0
H2175 H 0.1756 0.91016 0.03726 0.0
loop_
_geom_bond_atom_site_label_1
_geom_bond_atom_site_label_2
_geom_bond_distance
_geom_bond_site_symmetry_2
_ccdc_geom_bond_type
H0 C1 0.949 . S
C1 H0 0.949 . S
C1 C2 1.395 . S
C1 C3 1.391 . S
C2 C1 1.395 . S
C2 C5 1.390 . S
C3 C1 1.391 . S
C3 C7 1.387 . S
C3 C8 1.491 . S
H4 C5 0.950 1_565 S
C5 C2 1.390 . S
C5 H4 0.950 1_545 S
C5 C6 1.378 . S
C6 C5 1.378 . S
C6 C7 1.409 . S
C7 C3 1.387 . S
C7 C6 1.409 . S
C7 H9 0.951 . S
C8 C3 1.491 . S
C8 C10 1.382 . S
C8 C12 1.404 . S
H9 C7 0.951 . S
C10 C8 1.382 . S
C10 C11 1.410 . S
C10 H15 0.949 . S
C11 C10 1.410 . S
C11 C16 1.413 . S
C12 C8 1.404 . S
C12 H13 0.950 . S
C12 C14 1.375 . S
H13 C12 0.950 . S
C14 C12 1.375 . S
C14 C16 1.382 . S
C14 H18 0.950 . S
H15 C10 0.949 . S
C16 C11 1.413 . S
C16 C14 1.382 . S
C16 H17 0.952 . S
H17 C16 0.952 . S
H18 C14 0.950 . S
H19 C20 0.949 . S
C20 H19 0.949 . S
C20 C21 1.395 . S
C20 C22 1.391 . S
C21 C20 1.395 . S
C21 C24 1.390 . S
C22 C20 1.391 . S
C22 C26 1.387 . S
C22 C27 1.491 . S
H23 C24 0.950 . S
C24 C21 1.390 . S
C24 H23 0.950 . S
C24 C25 1.378 . S
C25 C24 1.378 . S
C25 C26 1.409 . S
C26 C22 1.387 . S
C26 C25 1.409 . S
C26 H28 0.951 . S
C27 C22 1.491 . S
C27 C29 1.382 . S
C27 C31 1.404 . S
H28 C26 0.951 . S
C29 C27 1.382 . S
C29 C30 1.390 . S
C29 H34 0.949 . S
C30 C29 1.390 . S
C30 C35 1.399 . S
C31 C27 1.404 . S
C31 H32 0.950 . S
C31 C33 1.375 . S
H32 C31 0.950 . S
C33 C31 1.375 . S
C33 C35 1.382 . S
C33 H37 0.950 . S
H34 C29 0.949 . S
C35 C30 1.399 . S
C35 C33 1.382 . S
C35 H36 0.952 . S
H36 C35 0.952 . S
H37 C33 0.950 . S
H38 C39 0.949 . S
C39 H38 0.949 . S
C39 C40 1.395 . S
C39 C41 1.391 1_455 S
C40 C39 1.395 . S
C40 C43 1.390 1_455 S
C41 C39 1.391 1_655 S
C41 C45 1.387 . S
C41 C46 1.491 1_554 S
H42 C43 0.950 . S
C43 C40 1.390 1_655 S
C43 H42 0.950 . S
C43 C44 1.378 . S
C44 C43 1.378 . S
C44 C45 1.409 . S
C45 C41 1.387 . S
C45 C44 1.409 . S
C45 H47 0.951 1_554 S
C46 C41 1.491 1_556 S
C46 C48 1.382 1_655 S
C46 C50 1.404 . S
H47 C45 0.951 1_556 S
C48 C46 1.382 1_455 S
C48 C49 1.390 . S
C48 H53 0.949 1_556 S
C49 C48 1.390 . S
C49 C54 1.399 . S
C50 C46 1.404 . S
C50 H51 0.955 . S
C50 C52 1.370 1_655 S
H51 C50 0.955 . S
C52 C50 1.370 1_455 S
C52 C54 1.382 . S
C52 H56 0.950 . S
H53 C48 0.949 1_554 S
C54 C49 1.399 . S
C54 C52 1.382 . S
C54 H55 0.952 . S
H55 C54 0.952 . S
H56 C52 0.950 . S
H57 C58 0.949 . S
C58 H57 0.949 . S
C58 C59 1.395 . S
C58 C60 1.391 . S
C59 C58 1.395 . S
C59 C62 1.390 . S
C60 C58 1.391 . S
C60 C64 1.387 . S
C60 C65 1.491 . S
H61 C62 0.950 . S
C62 C59 1.390 . S
C62 H61 0.950 . S
C62 C63 1.378 . S
C63 C62 1.378 . S
C63 C64 1.409 . S
C64 C60 1.387 . S
C64 C63 1.409 . S
C64 H66 0.951 . S
C65 C60 1.491 . S
C65 C67 1.382 . S
C65 C69 1.404 . S
H66 C64 0.951 . S
C67 C65 1.382 . S
C67 C68 1.390 . S
C67 H72 0.949 . S
C68 C67 1.390 . S
C68 C73 1.399 . S
C69 C65 1.404 . S
C69 H70 0.950 . S
C69 C71 1.375 . S
H70 C69 0.950 . S
C71 C69 1.375 . S
C71 C73 1.382 . S
C71 H75 0.950 . S
H72 C67 0.949 . S
C73 C68 1.399 . S
C73 C71 1.382 . S
C73 H74 0.952 . S
H74 C73 0.952 . S
H75 C71 0.950 . S
H76 C77 0.949 . S
C77 H76 0.949 . S
C77 C78 1.395 . S
C77 C79 1.391 . S
C78 C77 1.395 . S
C78 C81 1.390 . S
C79 C77 1.391 . S
C79 C83 1.387 . S
C79 C84 1.491 . S
H80 C81 0.950 . S
C81 C78 1.390 . S
C81 H80 0.950 . S
C81 C82 1.378 . S
C82 C81 1.378 . S
C82 C83 1.409 . S
C83 C79 1.387 . S
C83 C82 1.409 . S
C83 H85 0.951 . S
C84 C79 1.491 . S
C84 C86 1.382 . S
C84 C88 1.404 . S
H85 C83 0.951 . S
C86 C84 1.382 . S
C86 C87 1.390 . S
C86 H91 0.949 . S
C87 C86 1.390 . S
C87 C92 1.399 . S
C88 C84 1.404 . S
C88 H89 0.950 . S
C88 C90 1.375 . S
H89 C88 0.950 . S
C90 C88 1.375 . S
C90 C92 1.382 . S
C90 H94 0.950 . S
H91 C86 0.949 . S
C92 C87 1.399 . S
C92 C90 1.382 . S
C92 H93 0.952 . S
H93 C92 0.952 . S
H94 C90 0.950 . S
H95 C96 0.949 . S
C96 H95 0.949 . S
C96 C97 1.395 . S
C96 C98 1.391 . S
C97 C96 1.395 . S
C97 C100 1.390 . S
C98 C96 1.391 . S
C98 C102 1.387 . S
C98 C103 1.491 . S
H99 C100 0.950 . S
C100 C97 1.390 . S
C100 H99 0.950 . S
C100 C101 1.378 . S
C101 C100 1.378 . S
C101 C102 1.409 . S
C102 C98 1.387 . S
C102 C101 1.409 . S
C102 H104 0.951 . S
C103 C98 1.491 . S
C103 C105 1.382 . S
C103 C107 1.404 . S
H104 C102 0.951 . S
C105 C103 1.382 . S
C105 C106 1.390 . S
C105 H110 0.949 . S
C106 C105 1.390 . S
C106 C111 1.399 . S
C107 C103 1.404 . S
C107 H108 0.950 . S
C107 C109 1.375 . S
H108 C107 0.950 . S
C109 C107 1.375 . S
C109 C111 1.382 . S
C109 H113 0.950 . S
H110 C105 0.949 . S
C111 C106 1.399 . S
C111 C109 1.382 . S
C111 H112 0.952 . S
H112 C111 0.952 . S
H113 C109 0.950 . S
H114 C115 0.949 1_455 S
C115 H114 0.949 1_655 S
C115 C116 1.395 . S
C115 C117 1.391 . S
C116 C115 1.395 . S
C116 C119 1.390 . S
C117 C115 1.391 . S
C117 C121 1.387 . S
C117 C122 1.491 . S
H118 C119 0.950 . S
C119 C116 1.390 . S
C119 H118 0.950 . S
C119 C120 1.378 . S
C120 C119 1.378 . S
C120 C121 1.409 . S
C121 C117 1.387 . S
C121 C120 1.409 . S
C121 H123 0.951 . S
C122 C117 1.491 . S
C122 C124 1.382 1_655 S
C122 C126 1.404 . S
H123 C121 0.951 . S
C124 C122 1.382 1_455 S
C124 C125 1.390 . S
C124 H129 0.949 . S
C125 C124 1.390 . S
C125 C130 1.399 . S
C126 C122 1.404 . S
C126 H127 0.950 . S
C126 C128 1.375 . S
H127 C126 0.950 . S
C128 C126 1.375 . S
C128 C130 1.382 1_655 S
C128 H132 0.950 . S
H129 C124 0.949 . S
C130 C125 1.399 . S
C130 C128 1.382 1_455 S
C130 H131 0.952 . S
H131 C130 0.952 . S
H132 C128 0.950 . S
H133 C134 0.949 . S
C134 H133 0.949 . S
C134 C135 1.395 . S
C134 C136 1.391 . S
C135 C134 1.395 . S
C135 C138 1.390 . S
C136 C134 1.391 . S
C136 C140 1.387 . S
C136 C141 1.491 . S
H137 C138 0.950 . S
C138 C135 1.390 . S
C138 H137 0.950 . S
C138 C139 1.378 . S
C139 C138 1.378 . S
C139 C140 1.409 . S
C140 C136 1.387 . S
C140 C139 1.409 . S
C140 H142 0.951 . S
C141 C136 1.491 . S
C141 C143 1.382 . S
C141 C145 1.404 . S
H142 C140 0.951 . S
C143 C141 1.382 . S
C143 C144 1.390 . S
C143 H148 0.949 . S
C144 C143 1.390 . S
C144 C149 1.399 . S
C145 C141 1.404 . S
C145 H146 0.950 . S
C145 C147 1.375 . S
H146 C145 0.950 . S
C147 C145 1.375 . S
C147 C149 1.382 . S
C147 H151 0.950 . S
H148 C143 0.949 . S
C149 C144 1.399 . S
C149 C147 1.382 . S
C149 H150 0.952 . S
H150 C149 0.952 . S
H151 C147 0.950 . S
H152 C153 0.949 . S
C153 H152 0.949 . S
C153 C154 1.395 . S
C153 C155 1.391 . S
C154 C153 1.395 . S
C154 C157 1.390 . S
C155 C153 1.391 . S
C155 C159 1.387 . S
C155 C160 1.491 . S
H156 C157 0.950 . S
C157 C154 1.390 . S
C157 H156 0.950 . S
C157 C158 1.378 . S
C158 C157 1.378 . S
C158 C159 1.409 . S
C159 C155 1.387 . S
C159 C158 1.409 . S
C159 H161 0.951 . S
C160 C155 1.491 . S
C160 C162 1.382 . S
C160 C164 1.404 . S
H161 C159 0.951 . S
C162 C160 1.382 . S
C162 C163 1.390 . S
C162 H167 0.949 . S
C163 C162 1.390 . S
C163 C168 1.399 . S
C164 C160 1.404 . S
C164 H165 0.950 . S
C164 C166 1.375 . S
H165 C164 0.950 . S
C166 C164 1.375 . S
C166 C168 1.382 . S
C166 H170 0.950 . S
H167 C162 0.949 . S
C168 C163 1.399 . S
C168 C166 1.382 . S
C168 H169 0.952 . S
H169 C168 0.952 . S
H170 C166 0.950 . S
H171 C172 0.949 . S
C172 H171 0.949 . S
C172 C173 1.395 . S
C172 C174 1.391 . S
C173 C172 1.395 . S
C173 C176 1.390 . S
C174 C172 1.391 . S
C174 C178 1.387 . S
C174 C179 1.491 . S
H175 C176 0.924 1_545 S
C176 C173 1.390 . S
C176 H175 0.924 1_565 S
C176 C177 1.378 . S
C177 C176 1.378 . S
C177 C178 1.409 . S
C178 C174 1.387 . S
C178 C177 1.409 . S
C178 H180 0.951 . S
C179 C174 1.491 . S
C179 C181 1.382 . S
C179 C183 1.404 . S
H180 C178 0.951 . S
C181 C179 1.382 . S
C181 C182 1.390 . S
C181 H186 0.949 . S
C182 C181 1.390 . S
C182 C187 1.399 . S
C183 C179 1.404 . S
C183 H184 0.950 . S
C183 C185 1.375 . S
H184 C183 0.950 . S
C185 C183 1.375 . S
C185 C187 1.382 . S
C185 H189 0.950 . S
H186 C181 0.949 . S
C187 C182 1.399 . S
C187 C185 1.382 . S
C187 H188 0.952 . S
H188 C187 0.952 . S
H189 C185 0.950 . S
H190 C191 0.949 . S
C191 H190 0.949 . S
C191 C192 1.395 . S
C191 C193 1.391 . S
C192 C191 1.395 . S
C192 C195 1.390 . S
C193 C191 1.391 . S
C193 C197 1.387 . S
C193 C198 1.491 . S
H194 C195 0.950 . S
C195 C192 1.390 . S
C195 H194 0.950 . S
C195 C196 1.378 . S
C196 C195 1.378 . S
C196 C197 1.409 . S
C197 C193 1.387 . S
C197 C196 1.409 . S
C197 H199 0.951 . S
C198 C193 1.491 . S
C198 C200 1.382 . S
C198 C202 1.404 . S
H199 C197 0.951 . S
C200 C198 1.382 . S
C200 C201 1.390 . S
C200 H205 0.949 . S
C201 C200 1.390 . S
C201 C206 1.399 . S
C202 C198 1.404 . S
C202 H203 0.950 . S
C202 C204 1.375 . S
H203 C202 0.950 . S
C204 C202 1.375 . S
C204 C206 1.382 . S
C204 H208 0.950 . S
H205 C200 0.949 . S
C206 C201 1.399 . S
C206 C204 1.382 . S
C206 H207 0.952 . S
H207 C206 0.952 . S
H208 C204 0.950 . S
H209 C210 0.949 . S
C210 H209 0.949 . S
C210 C211 1.395 . S
C210 C212 1.391 . S
C211 C210 1.395 . S
C211 C214 1.390 . S
C212 C210 1.391 . S
C212 C216 1.387 . S
C212 C217 1.491 . S
H213 C214 0.950 . S
C214 C211 1.390 . S
C214 H213 0.950 . S
C214 C215 1.378 . S
C215 C214 1.378 . S
C215 C216 1.409 . S
C216 C212 1.387 . S
C216 C215 1.409 . S
C216 H218 0.951 . S
C217 C212 1.491 . S
C217 C219 1.382 . S
C217 C221 1.404 . S
H218 C216 0.951 . S
C219 C217 1.382 . S
C219 C220 1.390 . S
C219 H224 0.949 . S
C220 C219 1.390 . S
C220 C225 1.399 . S
C221 C217 1.404 . S
C221 H222 0.950 . S
C221 C223 1.375 . S
H222 C221 0.950 . S
C223 C221 1.375 . S
C223 C225 1.382 . S
C223 H227 0.950 . S
H224 C219 0.949 . S
C225 C220 1.399 . S
C225 C223 1.382 . S
C225 H226 0.952 . S
H226 C225 0.952 . S
H227 C223 0.950 . S
H228 C229 0.949 . S
C229 H228 0.949 . S
C229 C230 1.395 . S
C229 C231 1.391 . S
C230 C229 1.395 . S
C230 C233 1.390 . S
C231 C229 1.391 . S
C231 C235 1.387 . S
C231 C236 1.491 . S
H232 C233 0.950 . S
C233 C230 1.390 . S
C233 H232 0.950 . S
C233 C234 1.378 . S
C234 C233 1.378 . S
C234 C235 1.409 . S
C235 C231 1.387 . S
C235 C234 1.409 . S
C235 H237 0.951 . S
C236 C231 1.491 . S
C236 C238 1.382 . S
C236 C240 1.404 . S
H237 C235 0.951 . S
C238 C236 1.382 . S
C238 C239 1.390 . S
C238 H243 0.949 . S
C239 C238 1.390 . S
C239 C244 1.399 . S
C240 C236 1.404 . S
C240 H241 0.950 . S
C240 C242 1.375 . S
H241 C240 0.950 . S
C242 C240 1.375 . S
C242 C244 1.382 . S
C242 H246 0.950 . S
H243 C238 0.949 . S
C244 C239 1.399 . S
C244 C242 1.382 . S
C244 H245 0.952 . S
H245 C244 0.952 . S
H246 C242 0.950 . S
H247 C248 0.930 1_554 S
C248 H247 0.930 1_556 S
C248 C249 1.395 . S
C248 C250 1.391 . S
C249 C248 1.395 . S
C249 C252 1.390 . S
C250 C248 1.391 . S
C250 C254 1.387 . S
C250 C255 1.491 . S
H251 C252 0.950 . S
C252 C249 1.390 . S
C252 H251 0.950 . S
C252 C253 1.378 . S
C253 C252 1.378 . S
C253 C254 1.409 . S
C254 C250 1.387 . S
C254 C253 1.409 . S
C254 H256 0.951 . S
C255 C250 1.491 . S
C255 C257 1.382 1_556 S
C255 C259 1.404 . S
H256 C254 0.951 . S
C257 C255 1.382 1_554 S
C257 C258 1.390 . S
C257 H262 0.949 . S
C258 C257 1.390 . S
C258 C263 1.399 . S
C259 C255 1.404 . S
C259 H260 0.950 . S
C259 C261 1.375 . S
H260 C259 0.950 . S
C261 C259 1.375 . S
C261 C263 1.382 1_556 S
C261 H265 0.950 . S
H262 C257 0.949 . S
C263 C258 1.399 . S
C263 C261 1.382 1_554 S
C263 H264 0.952 . S
H264 C263 0.952 . S
H265 C261 0.950 . S
H266 C267 0.949 . S
C267 H266 0.949 . S
C267 C268 1.395 . S
C267 C269 1.391 . S
C268 C267 1.395 . S
C268 C271 1.390 . S
C269 C267 1.391 . S
C269 C273 1.387 . S
C269 C274 1.491 . S
H270 C271 0.950 . S
C271 C268 1.390 . S
C271 H270 0.950 . S
C271 C272 1.378 . S
C272 C271 1.378 . S
C272 C273 1.409 . S
C273 C269 1.387 . S
C273 C272 1.409 . S
C273 H275 0.951 . S
C274 C269 1.491 . S
C274 C276 1.382 . S
C274 C278 1.404 . S
H275 C273 0.951 . S
C276 C274 1.382 . S
C276 C277 1.390 . S
C276 H281 0.949 . S
C277 C276 1.390 . S
C277 C282 1.399 . S
C278 C274 1.404 . S
C278 H279 0.950 . S
C278 C280 1.375 . S
H279 C278 0.950 . S
C280 C278 1.375 . S
C280 C282 1.382 . S
C280 H284 0.950 . S
H281 C276 0.949 . S
C282 C277 1.399 . S
C282 C280 1.382 . S
C282 H283 0.952 . S
H283 C282 0.952 . S
H284 C280 0.950 . S
H285 C286 0.949 . S
C286 H285 0.949 . S
C286 C287 1.395 . S
C286 C288 1.391 . S
C287 C286 1.395 . S
C287 C290 1.390 . S
C288 C286 1.391 . S
C288 C292 1.387 . S
C288 C293 1.491 . S
H289 C290 0.950 . S
C290 C287 1.390 . S
C290 H289 0.950 . S
C290 C291 1.378 . S
C291 C290 1.378 . S
C291 C292 1.409 . S
C292 C288 1.387 . S
C292 C291 1.409 . S
C292 H294 0.951 . S
C293 C288 1.491 . S
C293 C295 1.382 . S
C293 C297 1.404 . S
H294 C292 0.951 . S
C295 C293 1.382 . S
C295 C296 1.390 . S
C295 H300 0.949 . S
C296 C295 1.390 . S
C296 C301 1.399 . S
C297 C293 1.404 . S
C297 H298 0.950 . S
C297 C299 1.375 . S
H298 C297 0.950 . S
C299 C297 1.375 . S
C299 C301 1.382 . S
C299 H303 0.950 . S
H300 C295 0.949 . S
C301 C296 1.399 . S
C301 C299 1.382 . S
C301 H302 0.952 . S
H302 C301 0.952 . S
H303 C299 0.950 . S
Mn304 O309 2.095 . S
Mn304 O319 2.162 . S
Mn304 O320 2.297 . S
Mn304 O328 2.385 . S
Mn304 O329 2.209 . S
Mn304 O330 2.094 . S
Mn305 O310 2.137 . S
Mn305 N312 2.215 1_554 S
Mn305 N321 2.258 1_554 S
Mn305 O329 2.241 . S
Mn305 O331 2.151 . S
C306 O328 1.234 . S
C306 O329 1.283 . S
C307 O319 1.281 . S
C307 O320 1.236 . S
C308 O330 1.240 . S
C308 O331 1.264 . S
O309 Mn304 2.095 . S
O309 C318 1.250 . S
O310 Mn305 2.137 . S
O310 C318 1.258 . S
C311 N312 1.326 . S
C311 C315 1.460 . S
C311 H317 0.929 . S
N312 Mn305 2.215 1_556 S
N312 C311 1.326 . S
N312 C316 1.362 . S
C313 C314 1.258 . S
C313 C316 1.431 . S
C313 C333 1.449 . S
C314 C313 1.258 . S
C314 C315 1.477 . S
C314 H334 0.931 . S
C315 C311 1.460 . S
C315 C314 1.477 . S
C315 H335 0.930 . S
C316 N312 1.362 . S
C316 C313 1.431 . S
C316 C326 1.476 . S
H317 C311 0.929 . S
C318 O309 1.250 . S
C318 O310 1.258 . S
O319 Mn304 2.162 . S
O319 C307 1.281 . S
O320 Mn304 2.297 . S
O320 C307 1.236 . S
N321 Mn305 2.258 1_556 S
N321 C322 1.328 . S
N321 C326 1.318 . S
C322 N321 1.328 . S
C322 C323 1.457 . S
C322 H327 0.965 . S
C323 C322 1.457 . S
C323 C324 1.291 . S
C323 H336 0.931 . S
C324 C323 1.291 . S
C324 C325 1.373 . S
C324 H337 0.929 . S
C325 C324 1.373 . S
C325 C326 1.396 . S
C325 C332 1.403 . S
C326 C316 1.476 . S
C326 N321 1.318 . S
C326 C325 1.396 . S
H327 C322 0.965 . S
O328 Mn304 2.385 . S
O328 C306 1.234 . S
O329 Mn304 2.209 . S
O329 Mn305 2.241 . S
O329 C306 1.283 . S
O330 Mn304 2.094 . S
O330 C308 1.240 . S
O331 Mn305 2.151 . S
O331 C308 1.264 . S
C332 C325 1.403 . S
C332 C333 1.399 . S
C332 H338 0.929 . S
C333 C313 1.449 . S
C333 C332 1.399 . S
C333 H339 0.930 . S
H334 C314 0.931 . S
H335 C315 0.930 . S
H336 C323 0.931 . S
H337 C324 0.929 . S
H338 C332 0.929 . S
H339 C333 0.930 . S
Mn340 O345 2.095 . S
Mn340 O355 2.162 . S
Mn340 O356 2.297 . S
Mn340 O364 2.385 . S
Mn340 O365 2.209 . S
Mn340 O366 2.094 . S
Mn341 O346 2.121 . S
Mn341 N348 2.257 . S
Mn341 N357 2.282 . S
Mn341 O365 2.215 . S
Mn341 O367 2.117 . S
C342 O364 1.234 . S
C342 O365 1.283 . S
C343 O355 1.281 . S
C343 O356 1.236 . S
C344 O366 1.240 . S
C344 O367 1.264 . S
O345 Mn340 2.095 . S
O345 C354 1.250 . S
O346 Mn341 2.121 . S
O346 C354 1.258 . S
C347 N348 1.326 . S
C347 C351 1.460 . S
C347 H353 0.929 . S
N348 Mn341 2.257 . S
N348 C347 1.326 . S
N348 C352 1.362 . S
C349 C350 1.258 . S
C349 C352 1.431 . S
C349 C369 1.449 . S
C350 C349 1.258 . S
C350 C351 1.477 . S
C350 H370 0.931 . S
C351 C347 1.460 . S
C351 C350 1.477 . S
C351 H371 0.930 . S
C352 N348 1.362 . S
C352 C349 1.431 . S
C352 C362 1.476 . S
H353 C347 0.929 . S
C354 O345 1.250 . S
C354 O346 1.258 . S
O355 Mn340 2.162 . S
O355 C343 1.281 . S
O356 Mn340 2.297 . S
O356 C343 1.236 . S
N357 Mn341 2.282 . S
N357 C358 1.328 . S
N357 C362 1.318 . S
C358 N357 1.328 . S
C358 C359 1.457 . S
C358 H363 0.929 . S
C359 C358 1.457 . S
C359 C360 1.291 . S
C359 H372 0.931 . S
C360 C359 1.291 . S
C360 C361 1.373 . S
C360 H373 0.929 . S
C361 C360 1.373 . S
C361 C362 1.396 . S
C361 C368 1.403 . S
C362 C352 1.476 . S
C362 N357 1.318 . S
C362 C361 1.396 . S
H363 C358 0.929 . S
O364 Mn340 2.385 . S
O364 C342 1.234 . S
O365 Mn340 2.209 . S
O365 Mn341 2.215 . S
O365 C342 1.283 . S
O366 Mn340 2.094 . S
O366 C344 1.240 . S
O367 Mn341 2.117 . S
O367 C344 1.264 . S
C368 C361 1.403 . S
C368 C369 1.399 . S
C368 H374 0.929 . S
C369 C349 1.449 . S
C369 C368 1.399 . S
C369 H375 0.930 . S
H370 C350 0.931 . S
H371 C351 0.930 . S
H372 C359 0.931 . S
H373 C360 0.929 . S
H374 C368 0.929 . S
H375 C369 0.930 . S
Mn376 O381 2.095 1_554 S
Mn376 O391 2.162 . S
Mn376 O392 2.297 1_554 S
Mn376 O400 2.385 . S
Mn376 O401 2.209 1_554 S
Mn376 O402 2.094 . S
Mn377 O382 2.121 . S
Mn377 N384 2.257 . S
Mn377 N393 2.282 1_556 S
Mn377 O401 2.215 . S
Mn377 O403 2.117 1_556 S
C378 O400 1.234 . S
C378 O401 1.283 1_554 S
C379 O391 1.280 . S
C379 O392 1.236 1_554 S
C380 O402 1.240 . S
C380 O403 1.264 . S
O381 Mn376 2.095 1_556 S
O381 C390 1.250 . S
O382 Mn377 2.121 . S
O382 C390 1.258 . S
C383 N384 1.326 . S
C383 C387 1.460 . S
C383 H389 0.929 . S
N384 Mn377 2.257 . S
N384 C383 1.326 . S
N384 C388 1.362 . S
C385 C386 1.258 . S
C385 C388 1.431 . S
C385 C405 1.449 . S
C386 C385 1.258 . S
C386 C387 1.477 . S
C386 H406 0.931 . S
C387 C383 1.460 . S
C387 C386 1.477 . S
C387 H407 0.930 . S
C388 N384 1.362 . S
C388 C385 1.431 . S
C388 C398 1.476 . S
H389 C383 0.929 . S
C390 O381 1.250 . S
C390 O382 1.258 . S
O391 Mn376 2.162 . S
O391 C379 1.280 . S
O392 Mn376 2.297 1_556 S
O392 C379 1.236 1_556 S
N393 Mn377 2.282 1_554 S
N393 C394 1.328 . S
N393 C398 1.318 1_554 S
C394 N393 1.328 . S
C394 C395 1.457 . S
C394 H399 0.929 . S
C395 C394 1.457 . S
C395 C396 1.291 . S
C395 H408 0.931 . S
C396 C395 1.291 . S
C396 C397 1.373 1_554 S
C396 H409 0.929 . S
C397 C396 1.373 1_556 S
C397 C398 1.396 . S
C397 C404 1.403 . S
C398 C388 1.476 . S
C398 N393 1.318 1_556 S
C398 C397 1.396 . S
H399 C394 0.929 . S
O400 Mn376 2.385 . S
O400 C378 1.234 . S
O401 Mn376 2.209 1_556 S
O401 Mn377 2.215 . S
O401 C378 1.283 1_556 S
O402 Mn376 2.094 . S
O402 C380 1.240 . S
O403 Mn377 2.117 1_554 S
O403 C380 1.264 . S
C404 C397 1.403 . S
C404 C405 1.399 . S
C404 H410 0.929 . S
C405 C385 1.449 . S
C405 C404 1.399 . S
C405 H411 0.930 . S
H406 C386 0.931 . S
H407 C387 0.930 . S
H408 C395 0.931 . S
H409 C396 0.929 . S
H410 C404 0.929 . S
H411 C405 0.930 . S
Mn412 O417 2.095 . S
Mn412 O427 2.162 . S
Mn412 O428 2.297 . S
Mn412 O436 2.385 . S
Mn412 O437 2.209 1_545 S
Mn412 O438 2.094 . S
Mn413 O418 2.111 1_565 S
Mn413 N420 2.257 . S
Mn413 N429 2.282 . S
Mn413 O437 2.215 . S
Mn413 O439 2.117 1_565 S
C414 O436 1.234 1_565 S
C414 O437 1.283 . S
C415 O427 1.281 . S
C415 O428 1.236 . S
C416 O438 1.240 . S
C416 O439 1.264 . S
O417 Mn412 2.095 . S
O417 C426 1.250 . S
O418 Mn413 2.111 1_545 S
O418 C426 1.292 . S
C419 N420 1.326 . S
C419 C423 1.460 . S
C419 H425 0.929 . S
N420 Mn413 2.257 . S
N420 C419 1.326 . S
N420 C424 1.362 . S
C421 C422 1.258 . S
C421 C424 1.431 . S
C421 C441 1.449 . S
C422 C421 1.258 . S
C422 C423 1.477 . S
C422 H442 0.931 . S
C423 C419 1.460 . S
C423 C422 1.477 . S
C423 H443 0.930 . S
C424 N420 1.362 . S
C424 C421 1.431 . S
C424 C434 1.476 . S
H425 C419 0.929 . S
C426 O417 1.250 . S
C426 O418 1.292 . S
O427 Mn412 2.162 . S
O427 C415 1.281 . S
O428 Mn412 2.297 . S
O428 C415 1.236 . S
N429 Mn413 2.282 . S
N429 C430 1.328 . S
N429 C434 1.318 . S
C430 N429 1.328 . S
C430 C431 1.457 . S
C430 H435 0.929 . S
C431 C430 1.457 . S
C431 C432 1.291 . S
C431 H444 0.931 . S
C432 C431 1.291 . S
C432 C433 1.373 . S
C432 H445 0.929 . S
C433 C432 1.373 . S
C433 C434 1.396 . S
C433 C440 1.403 . S
C434 C424 1.476 . S
C434 N429 1.318 . S
C434 C433 1.396 . S
H435 C430 0.929 . S
O436 Mn412 2.385 . S
O436 C414 1.234 1_545 S
O437 Mn412 2.209 1_565 S
O437 Mn413 2.215 . S
O437 C414 1.283 . S
O438 Mn412 2.094 . S
O438 C416 1.240 . S
O439 Mn413 2.117 1_545 S
O439 C416 1.264 . S
C440 C433 1.403 . S
C440 C441 1.399 . S
C440 H446 0.929 . S
C441 C421 1.449 . S
C441 C440 1.399 . S
C441 H447 0.930 . S
H442 C422 0.931 . S
H443 C423 0.930 . S
H444 C431 0.931 . S
H445 C432 0.929 . S
H446 C440 0.929 . S
H447 C441 0.930 . S
Mn448 O453 2.095 . S
Mn448 O463 2.162 . S
Mn448 O464 2.297 . S
Mn448 O472 2.385 . S
Mn448 O473 2.209 . S
Mn448 O474 2.094 . S
Mn449 O454 2.121 . S
Mn449 N456 2.257 . S
Mn449 N465 2.282 . S
Mn449 O473 2.215 . S
Mn449 O475 2.117 . S
C450 O472 1.234 . S
C450 O473 1.283 . S
C451 O463 1.281 . S
C451 O464 1.236 . S
C452 O474 1.240 . S
C452 O475 1.264 . S
O453 Mn448 2.095 . S
O453 C462 1.250 . S
O454 Mn449 2.121 . S
O454 C462 1.258 . S
C455 N456 1.326 . S
C455 C459 1.460 . S
C455 H461 0.929 . S
N456 Mn449 2.257 . S
N456 C455 1.326 . S
N456 C460 1.362 . S
C457 C458 1.258 . S
C457 C460 1.431 . S
C457 C477 1.449 . S
C458 C457 1.258 . S
C458 C459 1.477 . S
C458 H478 0.931 . S
C459 C455 1.460 . S
C459 C458 1.477 . S
C459 H479 0.930 . S
C460 N456 1.362 . S
C460 C457 1.431 . S
C460 C470 1.476 . S
H461 C455 0.929 . S
C462 O453 1.250 . S
C462 O454 1.258 . S
O463 Mn448 2.162 . S
O463 C451 1.281 . S
O464 Mn448 2.297 . S
O464 C451 1.236 . S
N465 Mn449 2.282 . S
N465 C466 1.328 . S
N465 C470 1.318 . S
C466 N465 1.328 . S
C466 C467 1.457 . S
C466 H471 0.929 . S
C467 C466 1.457 . S
C467 C468 1.291 . S
C467 H480 0.931 . S
C468 C467 1.291 . S
C468 C469 1.373 . S
C468 H481 0.929 . S
C469 C468 1.373 . S
C469 C470 1.396 . S
C469 C476 1.403 . S
C470 C460 1.476 . S
C470 N465 1.318 . S
C470 C469 1.396 . S
H471 C466 0.929 . S
O472 Mn448 2.385 . S
O472 C450 1.234 . S
O473 Mn448 2.209 . S
O473 Mn449 2.215 . S
O473 C450 1.283 . S
O474 Mn448 2.094 . S
O474 C452 1.240 . S
O475 Mn449 2.117 . S
O475 C452 1.264 . S
C476 C469 1.403 . S
C476 C477 1.399 . S
C476 H482 0.929 . S
C477 C457 1.449 . S
C477 C476 1.399 . S
C477 H483 0.930 . S
H478 C458 0.931 . S
H479 C459 0.930 . S
H480 C467 0.931 . S
H481 C468 0.929 . S
H482 C476 0.929 . S
H483 C477 0.930 . S
Mn484 O489 2.095 . S
Mn484 O499 2.162 . S
Mn484 O500 2.297 . S
Mn484 O508 2.385 . S
Mn484 O509 2.209 . S
Mn484 O510 2.094 . S
Mn485 O490 2.121 . S
Mn485 N492 2.257 . S
Mn485 N501 2.282 . S
Mn485 O509 2.215 . S
Mn485 O511 2.117 . S
C486 O508 1.234 . S
C486 O509 1.283 . S
C487 O499 1.281 . S
C487 O500 1.236 . S
C488 O510 1.240 . S
C488 O511 1.264 . S
O489 Mn484 2.095 . S
O489 C498 1.250 . S
O490 Mn485 2.121 . S
O490 C498 1.258 . S
C491 N492 1.326 . S
C491 C495 1.460 . S
C491 H497 0.929 . S
N492 Mn485 2.257 . S
N492 C491 1.326 . S
N492 C496 1.362 . S
C493 C494 1.258 . S
C493 C496 1.431 . S
C493 C513 1.449 . S
C494 C493 1.258 . S
C494 C495 1.477 . S
C494 H514 0.931 . S
C495 C491 1.460 . S
C495 C494 1.477 . S
C495 H515 0.930 . S
C496 N492 1.362 . S
C496 C493 1.431 . S
C496 C506 1.476 . S
H497 C491 0.929 . S
C498 O489 1.250 . S
C498 O490 1.258 . S
O499 Mn484 2.162 . S
O499 C487 1.281 . S
O500 Mn484 2.297 . S
O500 C487 1.236 . S
N501 Mn485 2.282 . S
N501 C502 1.328 . S
N501 C506 1.318 . S
C502 N501 1.328 . S
C502 C503 1.457 . S
C502 H507 0.929 . S
C503 C502 1.457 . S
C503 C504 1.291 . S
C503 H516 0.931 . S
C504 C503 1.291 . S
C504 C505 1.373 . S
C504 H517 0.929 . S
C505 C504 1.373 . S
C505 C506 1.396 . S
C505 C512 1.403 . S
C506 C496 1.476 . S
C506 N501 1.318 . S
C506 C505 1.396 . S
H507 C502 0.929 . S
O508 Mn484 2.385 . S
O508 C486 1.234 . S
O509 Mn484 2.209 . S
O509 Mn485 2.215 . S
O509 C486 1.283 . S
O510 Mn484 2.094 . S
O510 C488 1.240 . S
O511 Mn485 2.117 . S
O511 C488 1.264 . S
C512 C505 1.403 . S
C512 C513 1.399 . S
C512 H518 0.929 . S
C513 C493 1.449 . S
C513 C512 1.399 . S
C513 H519 0.930 . S
H514 C494 0.931 . S
H515 C495 0.930 . S
H516 C503 0.931 . S
H517 C504 0.929 . S
H518 C512 0.929 . S
H519 C513 0.930 . S
Mn520 O525 2.095 . S
Mn520 O535 2.162 . S
Mn520 O536 2.297 . S
Mn520 O544 2.385 . S
Mn520 O545 2.209 . S
Mn520 O546 2.094 . S
Mn521 O526 2.121 . S
Mn521 N528 2.257 . S
Mn521 N537 2.282 . S
Mn521 O545 2.215 . S
Mn521 O547 2.117 . S
C522 O544 1.234 . S
C522 O545 1.283 . S
C523 O535 1.281 . S
C523 O536 1.236 . S
C524 O546 1.240 . S
C524 O547 1.264 . S
O525 Mn520 2.095 . S
O525 C534 1.250 . S
O526 Mn521 2.121 . S
O526 C534 1.258 . S
C527 N528 1.326 . S
C527 C531 1.460 . S
C527 H533 0.929 . S
N528 Mn521 2.257 . S
N528 C527 1.326 . S
N528 C532 1.362 . S
C529 C530 1.258 . S
C529 C532 1.431 . S
C529 C549 1.449 . S
C530 C529 1.258 . S
C530 C531 1.477 . S
C530 H550 0.931 . S
C531 C527 1.460 . S
C531 C530 1.477 . S
C531 H551 0.930 . S
C532 N528 1.362 . S
C532 C529 1.431 . S
C532 C542 1.476 . S
H533 C527 0.929 . S
C534 O525 1.250 . S
C534 O526 1.258 . S
O535 Mn520 2.162 . S
O535 C523 1.281 . S
O536 Mn520 2.297 . S
O536 C523 1.236 . S
N537 Mn521 2.282 . S
N537 C538 1.328 . S
N537 C542 1.318 . S
C538 N537 1.328 . S
C538 C539 1.457 . S
C538 H543 0.929 . S
C539 C538 1.457 . S
C539 C540 1.291 . S
C539 H552 0.931 . S
C540 C539 1.291 . S
C540 C541 1.373 . S
C540 H553 0.929 . S
C541 C540 1.373 . S
C541 C542 1.396 . S
C541 C548 1.403 . S
C542 C532 1.476 . S
C542 N537 1.318 . S
C542 C541 1.396 . S
H543 C538 0.929 . S
O544 Mn520 2.385 . S
O544 C522 1.234 . S
O545 Mn520 2.209 . S
O545 Mn521 2.215 . S
O545 C522 1.283 . S
O546 Mn520 2.094 . S
O546 C524 1.240 . S
O547 Mn521 2.117 . S
O547 C524 1.264 . S
C548 C541 1.403 . S
C548 C549 1.399 . S
C548 H554 0.929 . S
C549 C529 1.449 . S
C549 C548 1.399 . S
C549 H555 0.930 . S
H550 C530 0.931 . S
H551 C531 0.930 . S
H552 C539 0.931 . S
H553 C540 0.929 . S
H554 C548 0.929 . S
H555 C549 0.930 . S
Mn556 O561 2.095 . S
Mn556 O571 2.162 1_545 S
Mn556 O572 2.297 . S
Mn556 O580 2.385 . S
Mn556 O581 2.209 . S
Mn556 O582 2.094 . S
Mn557 O562 2.121 . S
Mn557 N564 2.257 . S
Mn557 N573 2.282 . S
Mn557 O581 2.215 . S
Mn557 O583 2.117 . S
C558 O580 1.234 . S
C558 O581 1.283 . S
C559 O571 1.281 . S
C559 O572 1.236 1_565 S
C560 O582 1.240 . S
C560 O583 1.264 . S
O561 Mn556 2.095 . S
O561 C570 1.250 . S
O562 Mn557 2.121 . S
O562 C570 1.258 . S
C563 N564 1.326 . S
C563 C567 1.460 . S
C563 H569 0.929 . S
N564 Mn557 2.257 . S
N564 C563 1.326 . S
N564 C568 1.362 . S
C565 C566 1.258 . S
C565 C568 1.431 . S
C565 C585 1.449 . S
C566 C565 1.258 . S
C566 C567 1.477 . S
C566 H586 0.931 . S
C567 C563 1.460 . S
C567 C566 1.477 . S
C567 H587 0.930 . S
C568 N564 1.362 . S
C568 C565 1.431 . S
C568 C578 1.476 . S
H569 C563 0.929 . S
C570 O561 1.250 . S
C570 O562 1.258 . S
O571 Mn556 2.162 1_565 S
O571 C559 1.281 . S
O572 Mn556 2.297 . S
O572 C559 1.236 1_545 S
N573 Mn557 2.282 . S
N573 C574 1.328 . S
N573 C578 1.318 . S
C574 N573 1.328 . S
C574 C575 1.457 . S
C574 H579 0.929 . S
C575 C574 1.457 . S
C575 C576 1.291 . S
C575 H588 0.931 . S
C576 C575 1.291 . S
C576 C577 1.373 . S
C576 H589 0.929 . S
C577 C576 1.373 . S
C577 C578 1.396 . S
C577 C584 1.403 . S
C578 C568 1.476 . S
C578 N573 1.318 . S
C578 C577 1.396 . S
H579 C574 0.929 . S
O580 Mn556 2.385 . S
O580 C558 1.234 . S
O581 Mn556 2.209 . S
O581 Mn557 2.215 . S
O581 C558 1.283 . S
O582 Mn556 2.094 . S
O582 C560 1.240 . S
O583 Mn557 2.117 . S
O583 C560 1.264 . S
C584 C577 1.403 . S
C584 C585 1.399 . S
C584 H590 0.929 . S
C585 C565 1.449 . S
C585 C584 1.399 . S
C585 H591 0.930 . S
H586 C566 0.931 . S
H587 C567 0.930 . S
H588 C575 0.931 . S
H589 C576 0.929 . S
H590 C584 0.929 . S
H591 C585 0.930 . S
Mn592 O597 2.095 . S
Mn592 O607 2.162 . S
Mn592 O608 2.297 . S
Mn592 O616 2.385 . S
Mn592 O617 2.209 1_455 S
Mn592 O618 2.094 . S
Mn593 O598 2.121 . S
Mn593 N600 2.257 . S
Mn593 N609 2.282 . S
Mn593 O617 2.215 . S
Mn593 O619 2.117 . S
C594 O616 1.234 1_655 S
C594 O617 1.283 . S
C595 O607 1.281 . S
C595 O608 1.236 . S
C596 O618 1.240 . S
C596 O619 1.264 1_455 S
O597 Mn592 2.095 . S
O597 C606 1.250 . S
O598 Mn593 2.121 . S
O598 C606 1.258 1_655 S
C599 N600 1.326 . S
C599 C603 1.460 . S
C599 H605 0.929 . S
N600 Mn593 2.257 . S
N600 C599 1.326 . S
N600 C604 1.362 . S
C601 C602 1.258 . S
C601 C604 1.431 . S
C601 C621 1.449 . S
C602 C601 1.258 . S
C602 C603 1.477 . S
C602 H622 0.931 . S
C603 C599 1.460 . S
C603 C602 1.477 . S
C603 H623 0.930 . S
C604 N600 1.362 . S
C604 C601 1.431 . S
C604 C614 1.476 . S
H605 C599 0.929 . S
C606 O597 1.250 . S
C606 O598 1.258 1_455 S
O607 Mn592 2.162 . S
O607 C595 1.281 . S
O608 Mn592 2.297 . S
O608 C595 1.236 . S
N609 Mn593 2.282 . S
N609 C610 1.328 . S
N609 C614 1.318 . S
C610 N609 1.328 . S
C610 C611 1.457 . S
C610 H615 0.929 . S
C611 C610 1.457 . S
C611 C612 1.291 . S
C611 H624 0.931 . S
C612 C611 1.291 . S
C612 C613 1.373 . S
C612 H625 0.929 . S
C613 C612 1.373 . S
C613 C614 1.396 . S
C613 C620 1.403 . S
C614 C604 1.476 . S
C614 N609 1.318 . S
C614 C613 1.396 . S
H615 C610 0.929 . S
O616 Mn592 2.385 . S
O616 C594 1.234 1_455 S
O617 Mn592 2.209 1_655 S
O617 Mn593 2.215 . S
O617 C594 1.283 . S
O618 Mn592 2.094 . S
O618 C596 1.240 . S
O619 Mn593 2.117 . S
O619 C596 1.264 1_655 S
C620 C613 1.403 . S
C620 C621 1.399 . S
C620 H626 0.929 . S
C621 C601 1.449 . S
C621 C620 1.399 . S
C621 H627 0.930 . S
H622 C602 0.931 . S
H623 C603 0.930 . S
H624 C611 0.931 . S
H625 C612 0.929 . S
H626 C620 0.929 . S
H627 C621 0.930 . S
Mn628 O633 2.095 . S
Mn628 O643 2.162 . S
Mn628 O644 2.297 . S
Mn628 O652 2.385 . S
Mn628 O653 2.209 . S
Mn628 O654 2.094 . S
Mn629 O634 2.121 . S
Mn629 N636 2.257 . S
Mn629 N645 2.282 . S
Mn629 O653 2.215 . S
Mn629 O655 2.117 . S
C630 O652 1.234 . S
C630 O653 1.283 . S
C631 O643 1.281 . S
C631 O644 1.236 . S
C632 O654 1.240 . S
C632 O655 1.264 . S
O633 Mn628 2.095 . S
O633 C642 1.250 . S
O634 Mn629 2.121 . S
O634 C642 1.258 . S
C635 N636 1.326 . S
C635 C639 1.460 . S
C635 H641 0.929 . S
N636 Mn629 2.257 . S
N636 C635 1.326 . S
N636 C640 1.362 . S
C637 C638 1.258 . S
C637 C640 1.431 . S
C637 C657 1.449 . S
C638 C637 1.258 . S
C638 C639 1.477 . S
C638 H658 0.931 . S
C639 C635 1.460 . S
C639 C638 1.477 . S
C639 H659 0.930 . S
C640 N636 1.362 . S
C640 C637 1.431 . S
C640 C650 1.476 . S
H641 C635 0.929 . S
C642 O633 1.250 . S
C642 O634 1.258 . S
O643 Mn628 2.162 . S
O643 C631 1.281 . S
O644 Mn628 2.297 . S
O644 C631 1.236 . S
N645 Mn629 2.282 . S
N645 C646 1.328 . S
N645 C650 1.318 . S
C646 N645 1.328 . S
C646 C647 1.457 . S
C646 H651 0.929 . S
C647 C646 1.457 . S
C647 C648 1.291 . S
C647 H660 0.931 . S
C648 C647 1.291 . S
C648 C649 1.373 . S
C648 H661 0.929 . S
C649 C648 1.373 . S
C649 C650 1.396 . S
C649 C656 1.403 . S
C650 C640 1.476 . S
C650 N645 1.318 . S
C650 C649 1.396 . S
H651 C646 0.929 . S
O652 Mn628 2.385 . S
O652 C630 1.234 . S
O653 Mn628 2.209 . S
O653 Mn629 2.215 . S
O653 C630 1.283 . S
O654 Mn628 2.094 . S
O654 C632 1.240 . S
O655 Mn629 2.117 . S
O655 C632 1.264 . S
C656 C649 1.403 . S
C656 C657 1.399 . S
C656 H662 0.929 . S
C657 C637 1.449 . S
C657 C656 1.399 . S
C657 H663 0.930 . S
H658 C638 0.931 . S
H659 C639 0.930 . S
H660 C647 0.931 . S
H661 C648 0.929 . S
H662 C656 0.929 . S
H663 C657 0.930 . S
Mn664 O669 2.095 1_455 S
Mn664 O679 2.162 . S
Mn664 O680 2.297 1_455 S
Mn664 O688 2.385 . S
Mn664 O689 2.209 1_455 S
Mn664 O690 2.094 . S
Mn665 O670 2.121 . S
Mn665 N672 2.257 . S
Mn665 N681 2.282 . S
Mn665 O689 2.215 . S
Mn665 O691 2.117 1_655 S
C666 O688 1.234 . S
C666 O689 1.283 1_455 S
C667 O679 1.281 . S
C667 O680 1.236 1_455 S
C668 O690 1.240 . S
C668 O691 1.264 . S
O669 Mn664 2.095 1_655 S
O669 C678 1.250 . S
O670 Mn665 2.121 . S
O670 C678 1.258 . S
C671 N672 1.326 . S
C671 C675 1.460 . S
C671 H677 0.929 . S
N672 Mn665 2.257 . S
N672 C671 1.326 . S
N672 C676 1.362 . S
C673 C674 1.258 . S
C673 C676 1.431 . S
C673 C693 1.449 . S
C674 C673 1.258 . S
C674 C675 1.477 . S
C674 H694 0.931 . S
C675 C671 1.460 . S
C675 C674 1.477 . S
C675 H695 0.930 . S
C676 N672 1.362 . S
C676 C673 1.431 . S
C676 C686 1.476 . S
H677 C671 0.929 . S
C678 O669 1.250 . S
C678 O670 1.258 . S
O679 Mn664 2.162 . S
O679 C667 1.281 . S
O680 Mn664 2.297 1_655 S
O680 C667 1.236 1_655 S
N681 Mn665 2.282 . S
N681 C682 1.328 1_655 S
N681 C686 1.318 . S
C682 N681 1.328 1_455 S
C682 C683 1.457 . S
C682 H687 0.929 . S
C683 C682 1.457 . S
C683 C684 1.291 . S
C683 H696 0.931 . S
C684 C683 1.291 . S
C684 C685 1.373 1_455 S
C684 H697 0.929 . S
C685 C684 1.373 1_655 S
C685 C686 1.396 . S
C685 C692 1.403 . S
C686 C676 1.476 . S
C686 N681 1.318 . S
C686 C685 1.396 . S
H687 C682 0.929 . S
O688 Mn664 2.385 . S
O688 C666 1.234 . S
O689 Mn664 2.209 1_655 S
O689 Mn665 2.215 . S
O689 C666 1.283 1_655 S
O690 Mn664 2.094 . S
O690 C668 1.240 . S
O691 Mn665 2.117 1_455 S
O691 C668 1.264 . S
C692 C685 1.403 . S
C692 C693 1.399 . S
C692 H698 0.929 . S
C693 C673 1.449 . S
C693 C692 1.399 . S
C693 H699 0.930 . S
H694 C674 0.931 . S
H695 C675 0.930 . S
H696 C683 0.931 . S
H697 C684 0.929 . S
H698 C692 0.929 . S
H699 C693 0.930 . S
Mn700 O705 2.095 . S
Mn700 O715 2.162 . S
Mn700 O716 2.297 . S
Mn700 O724 2.385 . S
Mn700 O725 2.209 . S
Mn700 O726 2.094 . S
Mn701 O706 2.121 . S
Mn701 N708 2.257 . S
Mn701 N717 2.282 . S
Mn701 O725 2.215 . S
Mn701 O727 2.117 . S
C702 O724 1.234 . S
C702 O725 1.283 . S
C703 O715 1.281 . S
C703 O716 1.236 . S
C704 O726 1.240 . S
C704 O727 1.264 . S
O705 Mn700 2.095 . S
O705 C714 1.250 . S
O706 Mn701 2.121 . S
O706 C714 1.258 . S
C707 N708 1.326 . S
C707 C711 1.460 . S
C707 H713 0.929 . S
N708 Mn701 2.257 . S
N708 C707 1.326 . S
N708 C712 1.362 . S
C709 C710 1.258 . S
C709 C712 1.431 . S
C709 C729 1.449 . S
C710 C709 1.258 . S
C710 C711 1.477 . S
C710 H730 0.931 . S
C711 C707 1.460 . S
C711 C710 1.477 . S
C711 H731 0.930 . S
C712 N708 1.362 . S
C712 C709 1.431 . S
C712 C722 1.476 . S
H713 C707 0.929 . S
C714 O705 1.250 . S
C714 O706 1.258 . S
O715 Mn700 2.162 . S
O715 C703 1.281 . S
O716 Mn700 2.297 . S
O716 C703 1.236 . S
N717 Mn701 2.282 . S
N717 C718 1.328 . S
N717 C722 1.318 . S
C718 N717 1.328 . S
C718 C719 1.457 . S
C718 H723 0.929 . S
C719 C718 1.457 . S
C719 C720 1.291 . S
C719 H732 0.931 . S
C720 C719 1.291 . S
C720 C721 1.373 . S
C720 H733 0.929 . S
C721 C720 1.373 . S
C721 C722 1.396 . S
C721 C728 1.403 . S
C722 C712 1.476 . S
C722 N717 1.318 . S
C722 C721 1.396 . S
H723 C718 0.929 . S
O724 Mn700 2.385 . S
O724 C702 1.234 . S
O725 Mn700 2.209 . S
O725 Mn701 2.215 . S
O725 C702 1.283 . S
O726 Mn700 2.094 . S
O726 C704 1.240 . S
O727 Mn701 2.117 . S
O727 C704 1.264 . S
C728 C721 1.403 . S
C728 C729 1.399 . S
C728 H734 0.929 . S
C729 C709 1.449 . S
C729 C728 1.399 . S
C729 H735 0.930 . S
H730 C710 0.931 . S
H731 C711 0.930 . S
H732 C719 0.931 . S
H733 C720 0.929 . S
H734 C728 0.929 . S
H735 C729 0.930 . S
C736 C737 1.349 . S
C736 C738 1.327 . S
C736 H761 0.950 . S
C737 C736 1.349 . S
C737 C753 1.349 . S
C738 C736 1.327 . S
C738 C757 1.429 . S
C738 H762 0.950 . S
C739 C756 1.574 . S
C739 C758 1.368 . S
C739 H763 0.949 . S
H740 C744 0.949 . S
C741 C742 1.349 . S
C741 C743 1.327 . S
C741 H764 0.950 . S
C742 C741 1.349 . S
C742 C754 1.349 . S
C743 C741 1.327 . S
C743 C759 1.429 . S
C743 H765 0.950 . S
C744 H740 0.949 . S
C744 C752 1.574 . S
C744 C760 1.368 . S
H745 C753 0.950 . S
H746 C751 0.950 . S
H747 C752 0.949 . S
H748 C754 0.950 . S
H749 C755 0.950 . S
H750 C756 0.949 . S
C751 H746 0.950 . S
C751 C753 1.327 . S
C751 C757 1.429 . S
C752 C744 1.574 . S
C752 H747 0.949 . S
C752 C758 1.368 . S
C753 C737 1.349 . S
C753 H745 0.950 . S
C753 C751 1.327 . S
C754 C742 1.349 . S
C754 H748 0.950 . S
C754 C755 1.327 . S
C755 H749 0.950 . S
C755 C754 1.327 . S
C755 C759 1.429 . S
C756 C739 1.574 . S
C756 H750 0.949 . S
C756 C760 1.368 . S
C757 C738 1.429 . S
C757 C751 1.429 . S
C757 C758 1.523 . S
C758 C739 1.368 . S
C758 C752 1.368 . S
C758 C757 1.523 . S
C759 C743 1.429 . S
C759 C755 1.429 . S
C759 C760 1.523 . S
C760 C744 1.368 . S
C760 C756 1.368 . S
C760 C759 1.523 . S
H761 C736 0.950 . S
H762 C738 0.950 . S
H763 C739 0.949 . S
H764 C741 0.950 . S
H765 C743 0.950 . S
C766 C767 1.349 . S
C766 C768 1.327 . S
C766 H791 0.950 . S
C767 C766 1.349 . S
C767 C783 1.349 . S
C768 C766 1.327 . S
C768 C787 1.429 . S
C768 H792 0.950 . S
C769 C786 1.574 . S
C769 C788 1.368 . S
C769 H793 0.949 . S
H770 C774 0.949 . S
C771 C772 1.349 . S
C771 C773 1.327 . S
C771 H794 0.950 . S
C772 C771 1.349 . S
C772 C784 1.349 . S
C773 C771 1.327 . S
C773 C789 1.429 . S
C773 H795 0.950 . S
C774 H770 0.949 . S
C774 C782 1.574 . S
C774 C790 1.368 . S
H775 C783 0.950 . S
H776 C781 0.950 . S
H777 C782 0.949 . S
H778 C784 0.950 . S
H779 C785 0.950 . S
H780 C786 0.949 . S
C781 H776 0.950 . S
C781 C783 1.327 . S
C781 C787 1.429 . S
C782 C774 1.574 . S
C782 H777 0.949 . S
C782 C788 1.368 . S
C783 C767 1.349 . S
C783 H775 0.950 . S
C783 C781 1.327 . S
C784 C772 1.349 . S
C784 H778 0.950 . S
C784 C785 1.327 . S
C785 H779 0.950 . S
C785 C784 1.327 . S
C785 C789 1.429 . S
C786 C769 1.574 . S
C786 H780 0.949 . S
C786 C790 1.368 . S
C787 C768 1.429 . S
C787 C781 1.429 . S
C787 C788 1.523 . S
C788 C769 1.368 . S
C788 C782 1.368 . S
C788 C787 1.523 . S
C789 C773 1.429 . S
C789 C785 1.429 . S
C789 C790 1.523 . S
C790 C774 1.368 . S
C790 C786 1.368 . S
C790 C789 1.523 . S
H791 C766 0.950 . S
H792 C768 0.950 . S
H793 C769 0.949 . S
H794 C771 0.950 . S
H795 C773 0.950 . S
C796 C797 1.349 . S
C796 C798 1.327 . S
C796 H821 0.950 . S
C797 C796 1.349 . S
C797 C813 1.349 . S
C798 C796 1.327 . S
C798 C817 1.429 . S
C798 H822 0.950 . S
C799 C816 1.574 . S
C799 C818 1.368 . S
C799 H823 0.949 . S
H800 C804 0.949 . S
C801 C802 1.349 . S
C801 C803 1.327 . S
C801 H824 0.950 . S
C802 C801 1.349 . S
C802 C814 1.349 . S
C803 C801 1.327 . S
C803 C819 1.429 . S
C803 H825 0.950 . S
C804 H800 0.949 . S
C804 C812 1.574 . S
C804 C820 1.368 . S
H805 C813 0.950 . S
H806 C811 0.950 . S
H807 C812 0.949 . S
H808 C814 0.950 . S
H809 C815 0.950 . S
H810 C816 0.949 . S
C811 H806 0.950 . S
C811 C813 1.327 . S
C811 C817 1.429 . S
C812 C804 1.574 . S
C812 H807 0.949 . S
C812 C818 1.368 . S
C813 C797 1.349 . S
C813 H805 0.950 . S
C813 C811 1.327 . S
C814 C802 1.349 . S
C814 H808 0.950 . S
C814 C815 1.327 . S
C815 H809 0.950 . S
C815 C814 1.327 . S
C815 C819 1.429 . S
C816 C799 1.574 . S
C816 H810 0.949 . S
C816 C820 1.368 . S
C817 C798 1.429 . S
C817 C811 1.429 . S
C817 C818 1.523 . S
C818 C799 1.368 . S
C818 C812 1.368 . S
C818 C817 1.523 . S
C819 C803 1.429 . S
C819 C815 1.429 . S
C819 C820 1.523 . S
C820 C804 1.368 . S
C820 C816 1.368 . S
C820 C819 1.523 . S
H821 C796 0.950 . S
H822 C798 0.950 . S
H823 C799 0.949 . S
H824 C801 0.950 . S
H825 C803 0.950 . S
C826 C827 1.349 . S
C826 C828 1.327 . S
C826 H851 0.950 . S
C827 C826 1.349 . S
C827 C843 1.349 . S
C828 C826 1.327 . S
C828 C847 1.429 . S
C828 H852 0.950 . S
C829 C846 1.574 . S
C829 C848 1.368 1_545 S
C829 H853 0.949 . S
H830 C834 0.949 1_655 S
C831 C832 1.349 . S
C831 C833 1.327 1_655 S
C831 H854 0.950 1_655 S
C832 C831 1.349 . S
C832 C844 1.349 . S
C833 C831 1.327 1_455 S
C833 C849 1.418 1_455 S
C833 H855 0.950 . S
C834 H830 0.949 1_455 S
C834 C842 1.574 . S
C834 C850 1.368 1_565 S
H835 C843 0.950 1_545 S
H836 C841 0.950 . S
H837 C842 0.949 . S
H838 C844 0.950 1_565 S
H839 C845 0.950 . S
H840 C846 0.949 . S
C841 H836 0.950 . S
C841 C843 1.327 1_545 S
C841 C847 1.429 1_545 S
C842 C834 1.574 . S
C842 H837 0.949 . S
C842 C848 1.368 . S
C843 C827 1.349 . S
C843 H835 0.950 1_565 S
C843 C841 1.327 1_565 S
C844 C832 1.349 . S
C844 H838 0.950 1_545 S
C844 C845 1.327 1_545 S
C845 H839 0.950 . S
C845 C844 1.327 1_565 S
C845 C849 1.463 1_565 S
C846 C829 1.574 . S
C846 H840 0.949 . S
C846 C850 1.368 . S
C847 C828 1.429 . S
C847 C841 1.429 1_565 S
C847 C848 1.523 . S
C848 C829 1.368 1_565 S
C848 C842 1.368 . S
C848 C847 1.523 . S
C849 C833 1.418 1_655 S
C849 C845 1.463 1_545 S
C849 C850 1.502 1_655 S
C850 C834 1.368 1_545 S
C850 C846 1.368 . S
C850 C849 1.502 1_455 S
H851 C826 0.950 . S
H852 C828 0.950 . S
H853 C829 0.949 . S
H854 C831 0.950 1_455 S
H855 C833 0.950 . S
C856 C857 1.349 . S
C856 C858 1.327 . S
C856 H881 0.950 . S
C857 C856 1.349 . S
C857 C873 1.349 . S
C858 C856 1.327 . S
C858 C877 1.429 . S
C858 H882 0.950 . S
C859 C876 1.574 . S
C859 C878 1.368 . S
C859 H883 0.949 . S
H860 C864 0.949 . S
C861 C862 1.349 . S
C861 C863 1.327 . S
C861 H884 0.950 . S
C862 C861 1.349 . S
C862 C874 1.349 . S
C863 C861 1.327 . S
C863 C879 1.429 . S
C863 H885 0.950 . S
C864 H860 0.949 . S
C864 C872 1.574 . S
C864 C880 1.368 . S
H865 C873 0.950 . S
H866 C871 0.950 . S
H867 C872 0.949 . S
H868 C874 0.950 . S
H869 C875 0.950 . S
H870 C876 0.949 . S
C871 H866 0.950 . S
C871 C873 1.327 . S
C871 C877 1.429 . S
C872 C864 1.574 . S
C872 H867 0.949 . S
C872 C878 1.368 . S
C873 C857 1.349 . S
C873 H865 0.950 . S
C873 C871 1.327 . S
C874 C862 1.349 . S
C874 H868 0.950 . S
C874 C875 1.327 . S
C875 H869 0.950 . S
C875 C874 1.327 . S
C875 C879 1.429 . S
C876 C859 1.574 . S
C876 H870 0.949 . S
C876 C880 1.368 . S
C877 C858 1.429 . S
C877 C871 1.429 . S
C877 C878 1.523 . S
C878 C859 1.368 . S
C878 C872 1.368 . S
C878 C877 1.523 . S
C879 C863 1.429 . S
C879 C875 1.429 . S
C879 C880 1.523 . S
C880 C864 1.368 . S
C880 C876 1.368 . S
C880 C879 1.523 . S
H881 C856 0.950 . S
H882 C858 0.950 . S
H883 C859 0.949 . S
H884 C861 0.950 . S
H885 C863 0.950 . S
C886 C887 1.349 . S
C886 C888 1.327 . S
C886 H911 0.950 . S
C887 C886 1.349 . S
C887 C903 1.349 . S
C888 C886 1.327 . S
C888 C907 1.429 . S
C888 H912 0.950 . S
C889 C906 1.574 . S
C889 C908 1.368 . S
C889 H913 0.949 . S
H890 C894 0.949 . S
C891 C892 1.349 . S
C891 C893 1.327 . S
C891 H914 0.950 . S
C892 C891 1.349 . S
C892 C904 1.349 . S
C893 C891 1.327 . S
C893 C909 1.429 . S
C893 H915 0.950 . S
C894 H890 0.949 . S
C894 C902 1.574 . S
C894 C910 1.368 . S
H895 C903 0.950 . S
H896 C901 0.950 . S
H897 C902 0.949 . S
H898 C904 0.950 . S
H899 C905 0.950 . S
H900 C906 0.949 . S
C901 H896 0.950 . S
C901 C903 1.327 . S
C901 C907 1.429 . S
C902 C894 1.574 . S
C902 H897 0.949 . S
C902 C908 1.368 . S
C903 C887 1.349 . S
C903 H895 0.950 . S
C903 C901 1.327 . S
C904 C892 1.349 . S
C904 H898 0.950 . S
C904 C905 1.327 . S
C905 H899 0.950 . S
C905 C904 1.327 . S
C905 C909 1.429 . S
C906 C889 1.574 . S
C906 H900 0.949 . S
C906 C910 1.368 . S
C907 C888 1.429 . S
C907 C901 1.429 . S
C907 C908 1.523 . S
C908 C889 1.368 . S
C908 C902 1.368 . S
C908 C907 1.523 . S
C909 C893 1.429 . S
C909 C905 1.429 . S
C909 C910 1.523 . S
C910 C894 1.368 . S
C910 C906 1.368 . S
C910 C909 1.523 . S
H911 C886 0.950 . S
H912 C888 0.950 . S
H913 C889 0.949 . S
H914 C891 0.950 . S
H915 C893 0.950 . S
C916 C917 1.349 . S
C916 C918 1.327 . S
C916 H941 0.950 . S
C917 C916 1.349 . S
C917 C933 1.349 . S
C918 C916 1.327 . S
C918 C937 1.429 . S
C918 H942 0.950 . S
C919 C936 1.574 . S
C919 C938 1.368 . S
C919 H943 0.949 . S
H920 C924 0.949 . S
C921 C922 1.349 . S
C921 C923 1.327 . S
C921 H944 0.950 . S
C922 C921 1.349 . S
C922 C934 1.349 . S
C923 C921 1.327 . S
C923 C939 1.429 . S
C923 H945 0.950 . S
C924 H920 0.949 . S
C924 C932 1.574 . S
C924 C940 1.368 . S
H925 C933 0.950 . S
H926 C931 0.950 . S
H927 C932 0.949 . S
H928 C934 0.950 . S
H929 C935 0.950 . S
H930 C936 0.949 . S
C931 H926 0.950 . S
C931 C933 1.327 . S
C931 C937 1.429 . S
C932 C924 1.574 . S
C932 H927 0.949 . S
C932 C938 1.368 . S
C933 C917 1.349 . S
C933 H925 0.950 . S
C933 C931 1.327 . S
C934 C922 1.349 . S
C934 H928 0.950 . S
C934 C935 1.327 . S
C935 H929 0.950 . S
C935 C934 1.327 . S
C935 C939 1.429 . S
C936 C919 1.574 . S
C936 H930 0.949 . S
C936 C940 1.368 . S
C937 C918 1.429 . S
C937 C931 1.429 . S
C937 C938 1.523 . S
C938 C919 1.368 . S
C938 C932 1.368 . S
C938 C937 1.523 . S
C939 C923 1.429 . S
C939 C935 1.429 . S
C939 C940 1.523 . S
C940 C924 1.368 . S
C940 C936 1.368 . S
C940 C939 1.523 . S
H941 C916 0.950 . S
H942 C918 0.950 . S
H943 C919 0.949 . S
H944 C921 0.950 . S
H945 C923 0.950 . S
C946 C947 1.349 . S
C946 C948 1.327 . S
C946 H971 0.950 . S
C947 C946 1.349 . S
C947 C963 1.349 . S
C948 C946 1.327 . S
C948 C967 1.429 . S
C948 H972 0.950 . S
C949 C966 1.574 . S
C949 C968 1.368 1_545 S
C949 H973 0.949 . S
H950 C954 0.949 . S
C951 C952 1.349 . S
C951 C953 1.327 . S
C951 H974 0.950 . S
C952 C951 1.349 . S
C952 C964 1.373 . S
C953 C951 1.327 . S
C953 C969 1.429 . S
C953 H975 0.950 . S
C954 H950 0.949 . S
C954 C962 1.574 . S
C954 C970 1.334 1_565 S
H955 C963 0.963 . S
H956 C961 0.950 1_545 S
H957 C962 0.949 . S
H958 C964 0.927 1_565 S
H959 C965 0.950 . S
H960 C966 0.949 . S
C961 H956 0.950 1_565 S
C961 C963 1.327 . S
C961 C967 1.429 . S
C962 C954 1.574 . S
C962 H957 0.949 . S
C962 C968 1.368 . S
C963 C947 1.349 . S
C963 H955 0.963 . S
C963 C961 1.327 . S
C964 C952 1.373 . S
C964 H958 0.927 1_545 S
C964 C965 1.327 1_545 S
C965 H959 0.950 . S
C965 C964 1.327 1_565 S
C965 C969 1.429 1_565 S
C966 C949 1.574 . S
C966 H960 0.949 . S
C966 C970 1.404 . S
C967 C948 1.429 . S
C967 C961 1.429 . S
C967 C968 1.523 . S
C968 C949 1.368 1_565 S
C968 C962 1.368 . S
C968 C967 1.523 . S
C969 C953 1.429 . S
C969 C965 1.429 1_545 S
C969 C970 1.524 . S
C970 C954 1.334 1_545 S
C970 C966 1.404 . S
C970 C969 1.524 . S
H971 C946 0.950 . S
H972 C948 0.950 . S
H973 C949 0.949 . S
H974 C951 0.950 . S
H975 C953 0.950 . S
C976 C977 1.349 . S
C976 C978 1.327 . S
C976 H1001 0.950 . S
C977 C976 1.349 . S
C977 C993 1.349 . S
C978 C976 1.327 . S
C978 C997 1.429 . S
C978 H1002 0.950 . S
C979 C996 1.574 . S
C979 C998 1.368 . S
C979 H1003 0.949 . S
H980 C984 0.949 . S
C981 C982 1.349 . S
C981 C983 1.327 . S
C981 H1004 0.950 . S
C982 C981 1.349 . S
C982 C994 1.349 . S
C983 C981 1.327 . S
C983 C999 1.429 . S
C983 H1005 0.950 . S
C984 H980 0.949 . S
C984 C992 1.574 . S
C984 C1000 1.368 . S
H985 C993 0.950 . S
H986 C991 0.950 . S
H987 C992 0.949 . S
H988 C994 0.950 . S
H989 C995 0.950 . S
H990 C996 0.949 . S
C991 H986 0.950 . S
C991 C993 1.327 . S
C991 C997 1.429 . S
C992 C984 1.574 . S
C992 H987 0.949 . S
C992 C998 1.368 . S
C993 C977 1.349 . S
C993 H985 0.950 . S
C993 C991 1.327 . S
C994 C982 1.349 . S
C994 H988 0.950 . S
C994 C995 1.327 . S
C995 H989 0.950 . S
C995 C994 1.327 . S
C995 C999 1.429 . S
C996 C979 1.574 . S
C996 H990 0.949 . S
C996 C1000 1.368 . S
C997 C978 1.429 . S
C997 C991 1.429 . S
C997 C998 1.523 . S
C998 C979 1.368 . S
C998 C992 1.368 . S
C998 C997 1.523 . S
C999 C983 1.429 . S
C999 C995 1.429 . S
C999 C1000 1.523 . S
C1000 C984 1.368 . S
C1000 C996 1.368 . S
C1000 C999 1.523 . S
H1001 C976 0.950 . S
H1002 C978 0.950 . S
H1003 C979 0.949 . S
H1004 C981 0.950 . S
H1005 C983 0.950 . S
C1006 C1007 1.349 . S
C1006 C1008 1.327 . S
C1006 H1031 0.950 . S
C1007 C1006 1.349 . S
C1007 C1023 1.349 . S
C1008 C1006 1.327 . S
C1008 C1027 1.429 . S
C1008 H1032 0.950 . S
C1009 C1026 1.574 . S
C1009 C1028 1.368 . S
C1009 H1033 0.949 . S
H1010 C1014 0.949 . S
C1011 C1012 1.349 . S
C1011 C1013 1.327 . S
C1011 H1034 0.950 . S
C1012 C1011 1.349 . S
C1012 C1024 1.349 . S
C1013 C1011 1.327 . S
C1013 C1029 1.429 . S
C1013 H1035 0.950 . S
C1014 H1010 0.949 . S
C1014 C1022 1.574 . S
C1014 C1030 1.368 . S
H1015 C1023 0.950 . S
H1016 C1021 0.950 . S
H1017 C1022 0.949 . S
H1018 C1024 0.950 . S
H1019 C1025 0.950 . S
H1020 C1026 0.949 . S
C1021 H1016 0.950 . S
C1021 C1023 1.327 . S
C1021 C1027 1.429 . S
C1022 C1014 1.574 . S
C1022 H1017 0.949 . S
C1022 C1028 1.368 . S
C1023 C1007 1.349 . S
C1023 H1015 0.950 . S
C1023 C1021 1.327 . S
C1024 C1012 1.349 . S
C1024 H1018 0.950 . S
C1024 C1025 1.327 . S
C1025 H1019 0.950 . S
C1025 C1024 1.327 . S
C1025 C1029 1.429 . S
C1026 C1009 1.574 . S
C1026 H1020 0.949 . S
C1026 C1030 1.368 . S
C1027 C1008 1.429 . S
C1027 C1021 1.429 . S
C1027 C1028 1.523 . S
C1028 C1009 1.368 . S
C1028 C1022 1.368 . S
C1028 C1027 1.523 . S
C1029 C1013 1.429 . S
C1029 C1025 1.429 . S
C1029 C1030 1.523 . S
C1030 C1014 1.368 . S
C1030 C1026 1.368 . S
C1030 C1029 1.523 . S
H1031 C1006 0.950 . S
H1032 C1008 0.950 . S
H1033 C1009 0.949 . S
H1034 C1011 0.950 . S
H1035 C1013 0.950 . S
C1036 C1037 1.349 . S
C1036 C1038 1.327 . S
C1036 H1061 0.950 . S
C1037 C1036 1.349 . S
C1037 C1053 1.349 . S
C1038 C1036 1.327 . S
C1038 C1057 1.429 . S
C1038 H1062 0.950 . S
C1039 C1056 1.574 . S
C1039 C1058 1.368 . S
C1039 H1063 0.949 . S
H1040 C1044 0.949 . S
C1041 C1042 1.349 . S
C1041 C1043 1.327 . S
C1041 H1064 0.950 . S
C1042 C1041 1.349 . S
C1042 C1054 1.349 . S
C1043 C1041 1.327 . S
C1043 C1059 1.429 . S
C1043 H1065 0.950 . S
C1044 H1040 0.949 . S
C1044 C1052 1.574 . S
C1044 C1060 1.368 . S
H1045 C1053 0.950 . S
H1046 C1051 0.950 . S
H1047 C1052 0.949 . S
H1048 C1054 0.950 . S
H1049 C1055 0.950 . S
H1050 C1056 0.949 . S
C1051 H1046 0.950 . S
C1051 C1053 1.327 . S
C1051 C1057 1.429 . S
C1052 C1044 1.574 . S
C1052 H1047 0.949 . S
C1052 C1058 1.368 . S
C1053 C1037 1.349 . S
C1053 H1045 0.950 . S
C1053 C1051 1.327 . S
C1054 C1042 1.349 . S
C1054 H1048 0.950 . S
C1054 C1055 1.327 . S
C1055 H1049 0.950 . S
C1055 C1054 1.327 . S
C1055 C1059 1.429 . S
C1056 C1039 1.574 . S
C1056 H1050 0.949 . S
C1056 C1060 1.368 . S
C1057 C1038 1.429 . S
C1057 C1051 1.429 . S
C1057 C1058 1.523 . S
C1058 C1039 1.368 . S
C1058 C1052 1.368 . S
C1058 C1057 1.523 . S
C1059 C1043 1.429 . S
C1059 C1055 1.429 . S
C1059 C1060 1.523 . S
C1060 C1044 1.368 . S
C1060 C1056 1.368 . S
C1060 C1059 1.523 . S
H1061 C1036 0.950 . S
H1062 C1038 0.950 . S
H1063 C1039 0.949 . S
H1064 C1041 0.950 . S
H1065 C1043 0.950 . S
C1066 C1067 1.349 . S
C1066 C1068 1.327 . S
C1066 H1091 0.950 . S
C1067 C1066 1.349 . S
C1067 C1083 1.349 . S
C1068 C1066 1.327 . S
C1068 C1087 1.429 . S
C1068 H1092 0.950 . S
C1069 C1086 1.574 . S
C1069 C1088 1.368 . S
C1069 H1093 0.949 . S
H1070 C1074 0.949 . S
C1071 C1072 1.349 . S
C1071 C1073 1.327 . S
C1071 H1094 0.950 . S
C1072 C1071 1.349 . S
C1072 C1084 1.349 . S
C1073 C1071 1.327 . S
C1073 C1089 1.429 . S
C1073 H1095 0.950 . S
C1074 H1070 0.949 . S
C1074 C1082 1.574 . S
C1074 C1090 1.368 . S
H1075 C1083 0.950 . S
H1076 C1081 0.950 . S
H1077 C1082 0.949 . S
H1078 C1084 0.950 . S
H1079 C1085 0.950 . S
H1080 C1086 0.949 . S
C1081 H1076 0.950 . S
C1081 C1083 1.327 . S
C1081 C1087 1.429 . S
C1082 C1074 1.574 . S
C1082 H1077 0.949 . S
C1082 C1088 1.368 . S
C1083 C1067 1.349 . S
C1083 H1075 0.950 . S
C1083 C1081 1.327 . S
C1084 C1072 1.349 . S
C1084 H1078 0.950 . S
C1084 C1085 1.327 . S
C1085 H1079 0.950 . S
C1085 C1084 1.327 . S
C1085 C1089 1.429 . S
C1086 C1069 1.574 . S
C1086 H1080 0.949 . S
C1086 C1090 1.368 . S
C1087 C1068 1.429 . S
C1087 C1081 1.429 . S
C1087 C1088 1.523 . S
C1088 C1069 1.368 . S
C1088 C1082 1.368 . S
C1088 C1087 1.523 . S
C1089 C1073 1.429 . S
C1089 C1085 1.429 . S
C1089 C1090 1.523 . S
C1090 C1074 1.368 . S
C1090 C1086 1.368 . S
C1090 C1089 1.523 . S
H1091 C1066 0.950 . S
H1092 C1068 0.950 . S
H1093 C1069 0.949 . S
H1094 C1071 0.950 . S
H1095 C1073 0.950 . S
C1096 C1097 1.349 . S
C1096 C1098 1.327 . S
C1096 H1121 0.950 . S
C1097 C1096 1.349 . S
C1097 C1113 1.349 . S
C1098 C1096 1.327 . S
C1098 C1117 1.429 . S
C1098 H1122 0.950 . S
C1099 C1116 1.574 . S
C1099 C1118 1.368 . S
C1099 H1123 0.949 . S
H1100 C1104 0.949 . S
C1101 C1102 1.349 . S
C1101 C1103 1.327 . S
C1101 H1124 0.950 . S
C1102 C1101 1.349 . S
C1102 C1114 1.349 . S
C1103 C1101 1.327 . S
C1103 C1119 1.429 . S
C1103 H1125 0.950 . S
C1104 H1100 0.949 . S
C1104 C1112 1.574 . S
C1104 C1120 1.368 . S
H1105 C1113 0.950 . S
H1106 C1111 0.950 . S
H1107 C1112 0.949 . S
H1108 C1114 0.950 . S
H1109 C1115 0.950 . S
H1110 C1116 0.949 . S
C1111 H1106 0.950 . S
C1111 C1113 1.327 . S
C1111 C1117 1.429 . S
C1112 C1104 1.574 . S
C1112 H1107 0.949 . S
C1112 C1118 1.368 . S
C1113 C1097 1.349 . S
C1113 H1105 0.950 . S
C1113 C1111 1.327 . S
C1114 C1102 1.349 . S
C1114 H1108 0.950 . S
C1114 C1115 1.327 . S
C1115 H1109 0.950 . S
C1115 C1114 1.327 . S
C1115 C1119 1.429 . S
C1116 C1099 1.574 . S
C1116 H1110 0.949 . S
C1116 C1120 1.368 . S
C1117 C1098 1.429 . S
C1117 C1111 1.429 . S
C1117 C1118 1.523 . S
C1118 C1099 1.368 . S
C1118 C1112 1.368 . S
C1118 C1117 1.523 . S
C1119 C1103 1.429 . S
C1119 C1115 1.429 . S
C1119 C1120 1.523 . S
C1120 C1104 1.368 . S
C1120 C1116 1.368 . S
C1120 C1119 1.523 . S
H1121 C1096 0.950 . S
H1122 C1098 0.950 . S
H1123 C1099 0.949 . S
H1124 C1101 0.950 . S
H1125 C1103 0.950 . S
C1126 C1127 1.349 . S
C1126 C1128 1.327 . S
C1126 H1151 0.950 . S
C1127 C1126 1.349 . S
C1127 C1143 1.349 . S
C1128 C1126 1.327 . S
C1128 C1147 1.429 . S
C1128 H1152 0.950 . S
C1129 C1146 1.574 . S
C1129 C1148 1.368 . S
C1129 H1153 0.949 . S
H1130 C1134 0.949 . S
C1131 C1132 1.349 . S
C1131 C1133 1.327 . S
C1131 H1154 0.950 . S
C1132 C1131 1.349 . S
C1132 C1144 1.349 . S
C1133 C1131 1.327 . S
C1133 C1149 1.429 . S
C1133 H1155 0.950 . S
C1134 H1130 0.949 . S
C1134 C1142 1.574 . S
C1134 C1150 1.368 . S
H1135 C1143 0.950 . S
H1136 C1141 0.950 . S
H1137 C1142 0.949 . S
H1138 C1144 0.950 1_655 S
H1139 C1145 0.950 . S
H1140 C1146 0.949 . S
C1141 H1136 0.950 . S
C1141 C1143 1.327 . S
C1141 C1147 1.429 . S
C1142 C1134 1.574 . S
C1142 H1137 0.949 . S
C1142 C1148 1.368 . S
C1143 C1127 1.349 . S
C1143 H1135 0.950 . S
C1143 C1141 1.327 . S
C1144 C1132 1.349 . S
C1144 H1138 0.950 1_455 S
C1144 C1145 1.327 . S
C1145 H1139 0.950 . S
C1145 C1144 1.327 . S
C1145 C1149 1.429 . S
C1146 C1129 1.574 . S
C1146 H1140 0.949 . S
C1146 C1150 1.368 . S
C1147 C1128 1.429 . S
C1147 C1141 1.429 . S
C1147 C1148 1.523 . S
C1148 C1129 1.368 . S
C1148 C1142 1.368 . S
C1148 C1147 1.523 . S
C1149 C1133 1.429 . S
C1149 C1145 1.429 . S
C1149 C1150 1.523 . S
C1150 C1134 1.368 . S
C1150 C1146 1.368 . S
C1150 C1149 1.523 . S
H1151 C1126 0.950 . S
H1152 C1128 0.950 . S
H1153 C1129 0.949 . S
H1154 C1131 0.950 . S
H1155 C1133 0.950 . S
C1156 C1157 1.349 . S
C1156 C1158 1.327 . S
C1156 H1181 0.950 . S
C1157 C1156 1.349 . S
C1157 C1173 1.349 . S
C1158 C1156 1.327 . S
C1158 C1177 1.429 . S
C1158 H1182 0.950 . S
C1159 C1176 1.574 . S
C1159 C1178 1.368 . S
C1159 H1183 0.949 . S
H1160 C1164 0.949 . S
C1161 C1162 1.349 . S
C1161 C1163 1.327 . S
C1161 H1184 0.950 . S
C1162 C1161 1.349 . S
C1162 C1174 1.349 . S
C1163 C1161 1.327 . S
C1163 C1179 1.429 . S
C1163 H1185 0.950 . S
C1164 H1160 0.949 . S
C1164 C1172 1.574 . S
C1164 C1180 1.368 . S
H1165 C1173 0.950 . S
H1166 C1171 0.950 . S
H1167 C1172 0.949 . S
H1168 C1174 0.950 . S
H1169 C1175 0.950 . S
H1170 C1176 0.949 . S
C1171 H1166 0.950 . S
C1171 C1173 1.327 . S
C1171 C1177 1.429 . S
C1172 C1164 1.574 . S
C1172 H1167 0.949 . S
C1172 C1178 1.368 . S
C1173 C1157 1.349 . S
C1173 H1165 0.950 . S
C1173 C1171 1.327 . S
C1174 C1162 1.349 . S
C1174 H1168 0.950 . S
C1174 C1175 1.327 . S
C1175 H1169 0.950 . S
C1175 C1174 1.327 . S
C1175 C1179 1.429 . S
C1176 C1159 1.574 . S
C1176 H1170 0.949 . S
C1176 C1180 1.368 . S
C1177 C1158 1.429 . S
C1177 C1171 1.429 . S
C1177 C1178 1.523 . S
C1178 C1159 1.368 . S
C1178 C1172 1.368 . S
C1178 C1177 1.523 . S
C1179 C1163 1.429 . S
C1179 C1175 1.429 . S
C1179 C1180 1.523 . S
C1180 C1164 1.368 . S
C1180 C1176 1.368 . S
C1180 C1179 1.523 . S
H1181 C1156 0.950 . S
H1182 C1158 0.950 . S
H1183 C1159 0.949 . S
H1184 C1161 0.950 . S
H1185 C1163 0.950 . S
C1186 C1187 1.349 . S
C1186 C1188 1.325 . S
C1186 H1211 0.950 1_655 S
C1187 C1186 1.349 . S
C1187 C1203 1.349 . S
C1188 C1186 1.325 . S
C1188 C1207 1.439 . S
C1188 H1212 0.943 1_655 S
C1189 C1206 1.574 . S
C1189 C1208 1.368 . S
C1189 H1213 0.949 . S
H1190 C1194 0.949 . S
C1191 C1192 1.349 . S
C1191 C1193 1.327 . S
C1191 H1214 0.950 . S
C1192 C1191 1.349 . S
C1192 C1204 1.349 1_655 S
C1193 C1191 1.327 . S
C1193 C1209 1.429 . S
C1193 H1215 0.950 . S
C1194 H1190 0.949 . S
C1194 C1202 1.574 . S
C1194 C1210 1.368 1_455 S
H1195 C1203 0.950 . S
H1196 C1201 0.950 . S
H1197 C1202 0.949 . S
H1198 C1204 0.950 . S
H1199 C1205 0.950 . S
H1200 C1206 0.949 . S
C1201 H1196 0.950 . S
C1201 C1203 1.327 . S
C1201 C1207 1.429 . S
C1202 C1194 1.574 . S
C1202 H1197 0.949 . S
C1202 C1208 1.368 1_455 S
C1203 C1187 1.349 . S
C1203 H1195 0.950 . S
C1203 C1201 1.327 . S
C1204 C1192 1.349 1_455 S
C1204 H1198 0.950 . S
C1204 C1205 1.327 . S
C1205 H1199 0.950 . S
C1205 C1204 1.327 . S
C1205 C1209 1.429 1_455 S
C1206 C1189 1.574 . S
C1206 H1200 0.949 . S
C1206 C1210 1.368 . S
C1207 C1188 1.439 . S
C1207 C1201 1.429 . S
C1207 C1208 1.523 . S
C1208 C1189 1.368 . S
C1208 C1202 1.368 1_655 S
C1208 C1207 1.523 . S
C1209 C1193 1.429 . S
C1209 C1205 1.429 1_655 S
C1209 C1210 1.523 . S
C1210 C1194 1.368 1_655 S
C1210 C1206 1.368 . S
C1210 C1209 1.523 . S
H1211 C1186 0.950 1_455 S
H1212 C1188 0.943 1_455 S
H1213 C1189 0.949 . S
H1214 C1191 0.950 . S
H1215 C1193 0.950 . S
C1216 C1217 1.349 . S
C1216 C1218 1.327 . S
C1216 H1241 0.950 . S
C1217 C1216 1.349 . S
C1217 C1233 1.349 . S
C1218 C1216 1.327 . S
C1218 C1237 1.429 . S
C1218 H1242 0.950 . S
C1219 C1236 1.574 . S
C1219 C1238 1.368 . S
C1219 H1243 0.949 . S
H1220 C1224 0.949 . S
C1221 C1222 1.349 . S
C1221 C1223 1.327 . S
C1221 H1244 0.950 . S
C1222 C1221 1.349 . S
C1222 C1234 1.349 . S
C1223 C1221 1.327 . S
C1223 C1239 1.429 . S
C1223 H1245 0.950 . S
C1224 H1220 0.949 . S
C1224 C1232 1.574 . S
C1224 C1240 1.368 . S
H1225 C1233 0.950 . S
H1226 C1231 0.950 . S
H1227 C1232 0.949 . S
H1228 C1234 0.950 . S
H1229 C1235 0.950 . S
H1230 C1236 0.949 . S
C1231 H1226 0.950 . S
C1231 C1233 1.327 . S
C1231 C1237 1.429 . S
C1232 C1224 1.574 . S
C1232 H1227 0.949 . S
C1232 C1238 1.368 . S
C1233 C1217 1.349 . S
C1233 H1225 0.950 . S
C1233 C1231 1.327 . S
C1234 C1222 1.349 . S
C1234 H1228 0.950 . S
C1234 C1235 1.327 . S
C1235 H1229 0.950 . S
C1235 C1234 1.327 . S
C1235 C1239 1.429 . S
C1236 C1219 1.574 . S
C1236 H1230 0.949 . S
C1236 C1240 1.368 . S
C1237 C1218 1.429 . S
C1237 C1231 1.429 . S
C1237 C1238 1.523 . S
C1238 C1219 1.368 . S
C1238 C1232 1.368 . S
C1238 C1237 1.523 . S
C1239 C1223 1.429 . S
C1239 C1235 1.429 . S
C1239 C1240 1.523 . S
C1240 C1224 1.368 . S
C1240 C1236 1.368 . S
C1240 C1239 1.523 . S
H1241 C1216 0.950 . S
H1242 C1218 0.950 . S
H1243 C1219 0.949 . S
H1244 C1221 0.950 . S
H1245 C1223 0.950 . S
C1246 C1247 1.349 . S
C1246 C1248 1.327 . S
C1246 H1271 0.950 . S
C1247 C1246 1.349 . S
C1247 C1263 1.349 . S
C1248 C1246 1.327 . S
C1248 C1267 1.429 . S
C1248 H1272 0.950 . S
C1249 C1266 1.574 . S
C1249 C1268 1.368 . S
C1249 H1273 0.949 . S
H1250 C1254 0.949 . S
C1251 C1252 1.349 . S
C1251 C1253 1.327 . S
C1251 H1274 0.950 . S
C1252 C1251 1.349 . S
C1252 C1264 1.349 . S
C1253 C1251 1.327 . S
C1253 C1269 1.429 . S
C1253 H1275 0.950 . S
C1254 H1250 0.949 . S
C1254 C1262 1.574 . S
C1254 C1270 1.368 . S
H1255 C1263 0.950 . S
H1256 C1261 0.950 . S
H1257 C1262 0.949 . S
H1258 C1264 0.950 . S
H1259 C1265 0.950 . S
H1260 C1266 0.949 . S
C1261 H1256 0.950 . S
C1261 C1263 1.327 . S
C1261 C1267 1.429 . S
C1262 C1254 1.574 . S
C1262 H1257 0.949 . S
C1262 C1268 1.368 . S
C1263 C1247 1.349 . S
C1263 H1255 0.950 . S
C1263 C1261 1.327 . S
C1264 C1252 1.349 . S
C1264 H1258 0.950 . S
C1264 C1265 1.327 . S
C1265 H1259 0.950 . S
C1265 C1264 1.327 . S
C1265 C1269 1.429 . S
C1266 C1249 1.574 . S
C1266 H1260 0.949 . S
C1266 C1270 1.368 . S
C1267 C1248 1.429 . S
C1267 C1261 1.429 . S
C1267 C1268 1.523 . S
C1268 C1249 1.368 . S
C1268 C1262 1.368 . S
C1268 C1267 1.523 . S
C1269 C1253 1.429 . S
C1269 C1265 1.429 . S
C1269 C1270 1.523 . S
C1270 C1254 1.368 . S
C1270 C1266 1.368 . S
C1270 C1269 1.523 . S
H1271 C1246 0.950 . S
H1272 C1248 0.950 . S
H1273 C1249 0.949 . S
H1274 C1251 0.950 . S
H1275 C1253 0.950 . S
C1276 C1277 1.349 1_565 S
C1276 C1278 1.327 . S
C1276 H1301 0.950 . S
C1277 C1276 1.349 1_545 S
C1277 C1293 1.349 . S
C1278 C1276 1.327 . S
C1278 C1297 1.429 . S
C1278 H1302 0.950 . S
C1279 C1296 1.576 . S
C1279 C1298 1.368 1_554 S
C1279 H1303 0.948 1_554 S
H1280 C1284 0.949 . S
C1281 C1282 1.349 . S
C1281 C1283 1.327 . S
C1281 H1304 0.950 . S
C1282 C1281 1.349 . S
C1282 C1294 1.349 . S
C1283 C1281 1.327 . S
C1283 C1299 1.429 . S
C1283 H1305 0.950 . S
C1284 H1280 0.949 . S
C1284 C1292 1.567 1_554 S
C1284 C1300 1.368 . S
H1285 C1293 0.950 . S
H1286 C1291 0.950 . S
H1287 C1292 0.952 . S
H1288 C1294 0.950 . S
H1289 C1295 0.950 . S
H1290 C1296 0.949 . S
C1291 H1286 0.950 . S
C1291 C1293 1.327 . S
C1291 C1297 1.429 1_545 S
C1292 C1284 1.567 1_556 S
C1292 H1287 0.952 . S
C1292 C1298 1.372 . S
C1293 C1277 1.349 . S
C1293 H1285 0.950 . S
C1293 C1291 1.327 . S
C1294 C1282 1.349 . S
C1294 H1288 0.950 . S
C1294 C1295 1.327 . S
C1295 H1289 0.950 . S
C1295 C1294 1.327 . S
C1295 C1299 1.429 . S
C1296 C1279 1.576 . S
C1296 H1290 0.949 . S
C1296 C1300 1.368 . S
C1297 C1278 1.429 . S
C1297 C1291 1.429 1_565 S
C1297 C1298 1.523 . S
C1298 C1279 1.368 1_556 S
C1298 C1292 1.372 . S
C1298 C1297 1.523 . S
C1299 C1283 1.429 . S
C1299 C1295 1.429 . S
C1299 C1300 1.523 . S
C1300 C1284 1.368 . S
C1300 C1296 1.368 . S
C1300 C1299 1.523 . S
H1301 C1276 0.950 . S
H1302 C1278 0.950 . S
H1303 C1279 0.948 1_556 S
H1304 C1281 0.950 . S
H1305 C1283 0.950 . S
C1306 C1307 1.349 . S
C1306 C1308 1.327 . S
C1306 H1331 0.950 . S
C1307 C1306 1.349 . S
C1307 C1323 1.349 . S
C1308 C1306 1.327 . S
C1308 C1327 1.429 . S
C1308 H1332 0.950 . S
C1309 C1326 1.574 . S
C1309 C1328 1.368 . S
C1309 H1333 0.949 . S
H1310 C1314 0.949 . S
C1311 C1312 1.349 . S
C1311 C1313 1.327 . S
C1311 H1334 0.950 . S
C1312 C1311 1.349 . S
C1312 C1324 1.349 . S
C1313 C1311 1.327 . S
C1313 C1329 1.429 . S
C1313 H1335 0.950 . S
C1314 H1310 0.949 . S
C1314 C1322 1.574 . S
C1314 C1330 1.368 . S
H1315 C1323 0.950 . S
H1316 C1321 0.950 . S
H1317 C1322 0.949 . S
H1318 C1324 0.950 . S
H1319 C1325 0.950 . S
H1320 C1326 0.949 . S
C1321 H1316 0.950 . S
C1321 C1323 1.327 . S
C1321 C1327 1.429 . S
C1322 C1314 1.574 . S
C1322 H1317 0.949 . S
C1322 C1328 1.368 . S
C1323 C1307 1.349 . S
C1323 H1315 0.950 . S
C1323 C1321 1.327 . S
C1324 C1312 1.349 . S
C1324 H1318 0.950 . S
C1324 C1325 1.327 . S
C1325 H1319 0.950 . S
C1325 C1324 1.327 . S
C1325 C1329 1.429 . S
C1326 C1309 1.574 . S
C1326 H1320 0.949 . S
C1326 C1330 1.368 . S
C1327 C1308 1.429 . S
C1327 C1321 1.429 . S
C1327 C1328 1.523 . S
C1328 C1309 1.368 . S
C1328 C1322 1.368 . S
C1328 C1327 1.523 . S
C1329 C1313 1.429 . S
C1329 C1325 1.429 . S
C1329 C1330 1.523 . S
C1330 C1314 1.368 . S
C1330 C1326 1.368 . S
C1330 C1329 1.523 . S
H1331 C1306 0.950 . S
H1332 C1308 0.950 . S
H1333 C1309 0.949 . S
H1334 C1311 0.950 . S
H1335 C1313 0.950 . S
C1336 C1337 1.349 . S
C1336 C1338 1.327 . S
C1336 H1361 0.950 1_545 S
C1337 C1336 1.349 . S
C1337 C1353 1.349 . S
C1338 C1336 1.327 . S
C1338 C1357 1.429 . S
C1338 H1362 0.950 . S
C1339 C1356 1.574 . S
C1339 C1358 1.368 . S
C1339 H1363 0.949 . S
H1340 C1344 0.949 . S
C1341 C1342 1.349 . S
C1341 C1343 1.327 . S
C1341 H1364 0.950 . S
C1342 C1341 1.349 . S
C1342 C1354 1.349 . S
C1343 C1341 1.327 . S
C1343 C1359 1.429 . S
C1343 H1365 0.950 . S
C1344 H1340 0.949 . S
C1344 C1352 1.574 . S
C1344 C1360 1.368 . S
H1345 C1353 0.950 . S
H1346 C1351 0.950 . S
H1347 C1352 0.949 . S
H1348 C1354 0.950 . S
H1349 C1355 0.950 . S
H1350 C1356 0.949 . S
C1351 H1346 0.950 . S
C1351 C1353 1.327 . S
C1351 C1357 1.429 . S
C1352 C1344 1.574 . S
C1352 H1347 0.949 . S
C1352 C1358 1.368 . S
C1353 C1337 1.349 . S
C1353 H1345 0.950 . S
C1353 C1351 1.327 . S
C1354 C1342 1.349 . S
C1354 H1348 0.950 . S
C1354 C1355 1.327 . S
C1355 H1349 0.950 . S
C1355 C1354 1.327 . S
C1355 C1359 1.429 . S
C1356 C1339 1.574 . S
C1356 H1350 0.949 . S
C1356 C1360 1.368 . S
C1357 C1338 1.429 . S
C1357 C1351 1.429 . S
C1357 C1358 1.523 . S
C1358 C1339 1.368 . S
C1358 C1352 1.368 . S
C1358 C1357 1.523 . S
C1359 C1343 1.429 . S
C1359 C1355 1.429 . S
C1359 C1360 1.523 . S
C1360 C1344 1.368 . S
C1360 C1356 1.368 . S
C1360 C1359 1.523 . S
H1361 C1336 0.950 1_565 S
H1362 C1338 0.950 . S
H1363 C1339 0.949 . S
H1364 C1341 0.950 . S
H1365 C1343 0.950 . S
C1366 C1367 1.349 . S
C1366 C1368 1.327 . S
C1366 H1391 0.950 . S
C1367 C1366 1.349 . S
C1367 C1383 1.349 . S
C1368 C1366 1.327 . S
C1368 C1387 1.429 . S
C1368 H1392 0.950 . S
C1369 C1386 1.574 . S
C1369 C1388 1.368 . S
C1369 H1393 0.949 . S
H1370 C1374 0.949 . S
C1371 C1372 1.349 . S
C1371 C1373 1.327 . S
C1371 H1394 0.950 . S
C1372 C1371 1.349 . S
C1372 C1384 1.349 . S
C1373 C1371 1.327 . S
C1373 C1389 1.429 . S
C1373 H1395 0.950 . S
C1374 H1370 0.949 . S
C1374 C1382 1.574 . S
C1374 C1390 1.368 . S
H1375 C1383 0.950 . S
H1376 C1381 0.950 . S
H1377 C1382 0.949 . S
H1378 C1384 0.950 . S
H1379 C1385 0.950 . S
H1380 C1386 0.949 . S
C1381 H1376 0.950 . S
C1381 C1383 1.327 . S
C1381 C1387 1.429 . S
C1382 C1374 1.574 . S
C1382 H1377 0.949 . S
C1382 C1388 1.368 . S
C1383 C1367 1.349 . S
C1383 H1375 0.950 . S
C1383 C1381 1.327 . S
C1384 C1372 1.349 . S
C1384 H1378 0.950 . S
C1384 C1385 1.327 . S
C1385 H1379 0.950 . S
C1385 C1384 1.327 . S
C1385 C1389 1.429 . S
C1386 C1369 1.574 . S
C1386 H1380 0.949 . S
C1386 C1390 1.368 . S
C1387 C1368 1.429 . S
C1387 C1381 1.429 . S
C1387 C1388 1.523 . S
C1388 C1369 1.368 . S
C1388 C1382 1.368 . S
C1388 C1387 1.523 . S
C1389 C1373 1.429 . S
C1389 C1385 1.429 . S
C1389 C1390 1.523 . S
C1390 C1374 1.368 . S
C1390 C1386 1.368 . S
C1390 C1389 1.523 . S
H1391 C1366 0.950 . S
H1392 C1368 0.950 . S
H1393 C1369 0.949 . S
H1394 C1371 0.950 . S
H1395 C1373 0.950 . S
C1396 C1397 1.349 . S
C1396 C1398 1.327 . S
C1396 H1421 0.950 . S
C1397 C1396 1.349 . S
C1397 C1413 1.349 . S
C1398 C1396 1.327 . S
C1398 C1417 1.429 . S
C1398 H1422 0.950 . S
C1399 C1416 1.574 . S
C1399 C1418 1.368 . S
C1399 H1423 0.949 . S
H1400 C1404 0.949 . S
C1401 C1402 1.349 . S
C1401 C1403 1.327 . S
C1401 H1424 0.950 . S
C1402 C1401 1.349 . S
C1402 C1414 1.349 . S
C1403 C1401 1.327 . S
C1403 C1419 1.429 . S
C1403 H1425 0.950 . S
C1404 H1400 0.949 . S
C1404 C1412 1.574 . S
C1404 C1420 1.368 . S
H1405 C1413 0.950 1_565 S
H1406 C1411 0.950 . S
H1407 C1412 0.949 . S
H1408 C1414 0.950 . S
H1409 C1415 0.950 . S
H1410 C1416 0.949 . S
C1411 H1406 0.950 . S
C1411 C1413 1.327 . S
C1411 C1417 1.429 . S
C1412 C1404 1.574 . S
C1412 H1407 0.949 . S
C1412 C1418 1.368 . S
C1413 C1397 1.349 . S
C1413 H1405 0.950 1_545 S
C1413 C1411 1.327 . S
C1414 C1402 1.349 . S
C1414 H1408 0.950 . S
C1414 C1415 1.327 . S
C1415 H1409 0.950 . S
C1415 C1414 1.327 . S
C1415 C1419 1.429 . S
C1416 C1399 1.574 . S
C1416 H1410 0.949 . S
C1416 C1420 1.368 . S
C1417 C1398 1.429 . S
C1417 C1411 1.429 . S
C1417 C1418 1.523 . S
C1418 C1399 1.368 . S
C1418 C1412 1.368 . S
C1418 C1417 1.523 . S
C1419 C1403 1.429 . S
C1419 C1415 1.429 . S
C1419 C1420 1.523 . S
C1420 C1404 1.368 . S
C1420 C1416 1.368 . S
C1420 C1419 1.523 . S
H1421 C1396 0.950 . S
H1422 C1398 0.950 . S
H1423 C1399 0.949 . S
H1424 C1401 0.950 . S
H1425 C1403 0.950 . S
C1426 C1427 1.349 . S
C1426 C1428 1.327 . S
C1426 H1451 0.950 . S
C1427 C1426 1.349 . S
C1427 C1443 1.349 . S
C1428 C1426 1.327 . S
C1428 C1447 1.429 . S
C1428 H1452 0.950 . S
C1429 C1446 1.574 . S
C1429 C1448 1.368 . S
C1429 H1453 0.949 . S
H1430 C1434 0.949 . S
C1431 C1432 1.349 . S
C1431 C1433 1.327 . S
C1431 H1454 0.950 . S
C1432 C1431 1.349 . S
C1432 C1444 1.349 . S
C1433 C1431 1.327 . S
C1433 C1449 1.429 . S
C1433 H1455 0.950 . S
C1434 H1430 0.949 . S
C1434 C1442 1.574 . S
C1434 C1450 1.368 . S
H1435 C1443 0.950 . S
H1436 C1441 0.950 . S
H1437 C1442 0.949 . S
H1438 C1444 0.950 . S
H1439 C1445 0.950 . S
H1440 C1446 0.949 . S
C1441 H1436 0.950 . S
C1441 C1443 1.327 . S
C1441 C1447 1.429 . S
C1442 C1434 1.574 . S
C1442 H1437 0.949 . S
C1442 C1448 1.368 . S
C1443 C1427 1.349 . S
C1443 H1435 0.950 . S
C1443 C1441 1.327 . S
C1444 C1432 1.349 . S
C1444 H1438 0.950 . S
C1444 C1445 1.327 . S
C1445 H1439 0.950 . S
C1445 C1444 1.327 . S
C1445 C1449 1.429 . S
C1446 C1429 1.574 . S
C1446 H1440 0.949 . S
C1446 C1450 1.368 . S
C1447 C1428 1.429 . S
C1447 C1441 1.429 . S
C1447 C1448 1.523 . S
C1448 C1429 1.368 . S
C1448 C1442 1.368 . S
C1448 C1447 1.523 . S
C1449 C1433 1.429 . S
C1449 C1445 1.429 . S
C1449 C1450 1.523 . S
C1450 C1434 1.368 . S
C1450 C1446 1.368 . S
C1450 C1449 1.523 . S
H1451 C1426 0.950 . S
H1452 C1428 0.950 . S
H1453 C1429 0.949 . S
H1454 C1431 0.950 . S
H1455 C1433 0.950 . S
C1456 C1457 1.349 . S
C1456 C1458 1.327 . S
C1456 H1481 0.950 . S
C1457 C1456 1.349 . S
C1457 C1473 1.349 . S
C1458 C1456 1.327 . S
C1458 C1477 1.429 . S
C1458 H1482 0.950 . S
C1459 C1476 1.574 . S
C1459 C1478 1.368 . S
C1459 H1483 0.949 . S
H1460 C1464 0.949 . S
C1461 C1462 1.349 . S
C1461 C1463 1.327 . S
C1461 H1484 0.950 . S
C1462 C1461 1.349 . S
C1462 C1474 1.349 . S
C1463 C1461 1.327 . S
C1463 C1479 1.429 . S
C1463 H1485 0.950 . S
C1464 H1460 0.949 . S
C1464 C1472 1.574 . S
C1464 C1480 1.368 . S
H1465 C1473 0.950 . S
H1466 C1471 0.950 . S
H1467 C1472 0.949 . S
H1468 C1474 0.950 . S
H1469 C1475 0.950 . S
H1470 C1476 0.949 . S
C1471 H1466 0.950 . S
C1471 C1473 1.327 . S
C1471 C1477 1.429 . S
C1472 C1464 1.574 . S
C1472 H1467 0.949 . S
C1472 C1478 1.368 . S
C1473 C1457 1.349 . S
C1473 H1465 0.950 . S
C1473 C1471 1.327 . S
C1474 C1462 1.349 . S
C1474 H1468 0.950 . S
C1474 C1475 1.327 . S
C1475 H1469 0.950 . S
C1475 C1474 1.327 . S
C1475 C1479 1.429 . S
C1476 C1459 1.574 . S
C1476 H1470 0.949 . S
C1476 C1480 1.368 . S
C1477 C1458 1.429 . S
C1477 C1471 1.429 . S
C1477 C1478 1.523 . S
C1478 C1459 1.368 . S
C1478 C1472 1.368 . S
C1478 C1477 1.523 . S
C1479 C1463 1.429 . S
C1479 C1475 1.429 . S
C1479 C1480 1.523 . S
C1480 C1464 1.368 . S
C1480 C1476 1.368 . S
C1480 C1479 1.523 . S
H1481 C1456 0.950 . S
H1482 C1458 0.950 . S
H1483 C1459 0.949 . S
H1484 C1461 0.950 . S
H1485 C1463 0.950 . S
C1486 C1487 1.349 . S
C1486 C1488 1.327 . S
C1486 H1511 0.950 . S
C1487 C1486 1.349 . S
C1487 C1503 1.349 . S
C1488 C1486 1.327 . S
C1488 C1507 1.429 . S
C1488 H1512 0.950 . S
C1489 C1506 1.574 . S
C1489 C1508 1.368 . S
C1489 H1513 0.949 . S
H1490 C1494 0.949 . S
C1491 C1492 1.349 . S
C1491 C1493 1.327 . S
C1491 H1514 0.950 . S
C1492 C1491 1.349 . S
C1492 C1504 1.349 . S
C1493 C1491 1.327 . S
C1493 C1509 1.429 . S
C1493 H1515 0.950 . S
C1494 H1490 0.949 . S
C1494 C1502 1.574 . S
C1494 C1510 1.368 . S
H1495 C1503 0.950 . S
H1496 C1501 0.950 . S
H1497 C1502 0.949 . S
H1498 C1504 0.950 . S
H1499 C1505 0.950 . S
H1500 C1506 0.949 . S
C1501 H1496 0.950 . S
C1501 C1503 1.327 . S
C1501 C1507 1.429 . S
C1502 C1494 1.574 . S
C1502 H1497 0.949 . S
C1502 C1508 1.368 . S
C1503 C1487 1.349 . S
C1503 H1495 0.950 . S
C1503 C1501 1.327 . S
C1504 C1492 1.349 . S
C1504 H1498 0.950 . S
C1504 C1505 1.327 . S
C1505 H1499 0.950 . S
C1505 C1504 1.327 . S
C1505 C1509 1.429 . S
C1506 C1489 1.574 . S
C1506 H1500 0.949 . S
C1506 C1510 1.368 . S
C1507 C1488 1.429 . S
C1507 C1501 1.429 . S
C1507 C1508 1.523 . S
C1508 C1489 1.368 . S
C1508 C1502 1.368 . S
C1508 C1507 1.523 . S
C1509 C1493 1.429 . S
C1509 C1505 1.429 . S
C1509 C1510 1.523 . S
C1510 C1494 1.368 . S
C1510 C1506 1.368 . S
C1510 C1509 1.523 . S
H1511 C1486 0.950 . S
H1512 C1488 0.950 . S
H1513 C1489 0.949 . S
H1514 C1491 0.950 . S
H1515 C1493 0.950 . S
C1516 C1517 1.349 . S
C1516 C1518 1.327 . S
C1516 H1541 0.950 . S
C1517 C1516 1.349 . S
C1517 C1533 1.349 . S
C1518 C1516 1.327 . S
C1518 C1537 1.429 . S
C1518 H1542 0.950 . S
C1519 C1536 1.574 . S
C1519 C1538 1.368 . S
C1519 H1543 0.949 . S
H1520 C1524 0.949 . S
C1521 C1522 1.349 . S
C1521 C1523 1.327 . S
C1521 H1544 0.950 . S
C1522 C1521 1.349 . S
C1522 C1534 1.349 . S
C1523 C1521 1.327 . S
C1523 C1539 1.429 . S
C1523 H1545 0.950 . S
C1524 H1520 0.949 . S
C1524 C1532 1.574 . S
C1524 C1540 1.368 . S
H1525 C1533 0.950 . S
H1526 C1531 0.950 . S
H1527 C1532 0.949 . S
H1528 C1534 0.950 . S
H1529 C1535 0.950 . S
H1530 C1536 0.949 . S
C1531 H1526 0.950 . S
C1531 C1533 1.327 . S
C1531 C1537 1.429 . S
C1532 C1524 1.574 . S
C1532 H1527 0.949 . S
C1532 C1538 1.368 . S
C1533 C1517 1.349 . S
C1533 H1525 0.950 . S
C1533 C1531 1.327 . S
C1534 C1522 1.349 . S
C1534 H1528 0.950 . S
C1534 C1535 1.327 . S
C1535 H1529 0.950 . S
C1535 C1534 1.327 . S
C1535 C1539 1.429 . S
C1536 C1519 1.574 . S
C1536 H1530 0.949 . S
C1536 C1540 1.368 . S
C1537 C1518 1.429 . S
C1537 C1531 1.429 . S
C1537 C1538 1.523 . S
C1538 C1519 1.368 . S
C1538 C1532 1.368 . S
C1538 C1537 1.523 . S
C1539 C1523 1.429 . S
C1539 C1535 1.429 . S
C1539 C1540 1.523 . S
C1540 C1524 1.368 . S
C1540 C1536 1.368 . S
C1540 C1539 1.523 . S
H1541 C1516 0.950 . S
H1542 C1518 0.950 . S
H1543 C1519 0.949 . S
H1544 C1521 0.950 . S
H1545 C1523 0.950 . S
C1546 C1547 1.349 . S
C1546 C1548 1.327 . S
C1546 H1571 0.950 . S
C1547 C1546 1.349 . S
C1547 C1563 1.349 . S
C1548 C1546 1.327 . S
C1548 C1567 1.429 . S
C1548 H1572 0.950 . S
C1549 C1566 1.574 . S
C1549 C1568 1.368 . S
C1549 H1573 0.949 . S
H1550 C1554 0.949 . S
C1551 C1552 1.349 . S
C1551 C1553 1.327 . S
C1551 H1574 0.950 . S
C1552 C1551 1.349 . S
C1552 C1564 1.349 . S
C1553 C1551 1.327 . S
C1553 C1569 1.429 . S
C1553 H1575 0.950 . S
C1554 H1550 0.949 . S
C1554 C1562 1.574 . S
C1554 C1570 1.368 . S
H1555 C1563 0.950 . S
H1556 C1561 0.950 . S
H1557 C1562 0.949 . S
H1558 C1564 0.950 . S
H1559 C1565 0.950 . S
H1560 C1566 0.949 . S
C1561 H1556 0.950 . S
C1561 C1563 1.327 . S
C1561 C1567 1.429 . S
C1562 C1554 1.574 . S
C1562 H1557 0.949 . S
C1562 C1568 1.368 . S
C1563 C1547 1.349 . S
C1563 H1555 0.950 . S
C1563 C1561 1.327 . S
C1564 C1552 1.349 . S
C1564 H1558 0.950 . S
C1564 C1565 1.327 . S
C1565 H1559 0.950 . S
C1565 C1564 1.327 . S
C1565 C1569 1.429 . S
C1566 C1549 1.574 . S
C1566 H1560 0.949 . S
C1566 C1570 1.368 . S
C1567 C1548 1.429 . S
C1567 C1561 1.429 . S
C1567 C1568 1.523 . S
C1568 C1549 1.368 . S
C1568 C1562 1.368 . S
C1568 C1567 1.523 . S
C1569 C1553 1.429 . S
C1569 C1565 1.429 . S
C1569 C1570 1.523 . S
C1570 C1554 1.368 . S
C1570 C1566 1.368 . S
C1570 C1569 1.523 . S
H1571 C1546 0.950 . S
H1572 C1548 0.950 . S
H1573 C1549 0.949 . S
H1574 C1551 0.950 . S
H1575 C1553 0.950 . S
C1576 C1577 1.349 . S
C1576 C1578 1.327 . S
C1576 H1601 0.950 . S
C1577 C1576 1.349 . S
C1577 C1593 1.349 . S
C1578 C1576 1.327 . S
C1578 C1597 1.429 . S
C1578 H1602 0.950 . S
C1579 C1596 1.574 . S
C1579 C1598 1.368 . S
C1579 H1603 0.949 . S
H1580 C1584 0.949 . S
C1581 C1582 1.349 . S
C1581 C1583 1.327 . S
C1581 H1604 0.950 . S
C1582 C1581 1.349 . S
C1582 C1594 1.349 . S
C1583 C1581 1.327 . S
C1583 C1599 1.429 . S
C1583 H1605 0.950 . S
C1584 H1580 0.949 . S
C1584 C1592 1.574 . S
C1584 C1600 1.368 . S
H1585 C1593 0.950 . S
H1586 C1591 0.950 . S
H1587 C1592 0.949 . S
H1588 C1594 0.950 . S
H1589 C1595 0.950 . S
H1590 C1596 0.949 . S
C1591 H1586 0.950 . S
C1591 C1593 1.327 . S
C1591 C1597 1.429 . S
C1592 C1584 1.574 . S
C1592 H1587 0.949 . S
C1592 C1598 1.368 . S
C1593 C1577 1.349 . S
C1593 H1585 0.950 . S
C1593 C1591 1.327 . S
C1594 C1582 1.349 . S
C1594 H1588 0.950 . S
C1594 C1595 1.327 . S
C1595 H1589 0.950 . S
C1595 C1594 1.327 . S
C1595 C1599 1.429 . S
C1596 C1579 1.574 . S
C1596 H1590 0.949 . S
C1596 C1600 1.368 . S
C1597 C1578 1.429 . S
C1597 C1591 1.429 . S
C1597 C1598 1.523 . S
C1598 C1579 1.368 . S
C1598 C1592 1.368 . S
C1598 C1597 1.523 . S
C1599 C1583 1.429 . S
C1599 C1595 1.429 . S
C1599 C1600 1.523 . S
C1600 C1584 1.368 . S
C1600 C1596 1.368 . S
C1600 C1599 1.523 . S
H1601 C1576 0.950 . S
H1602 C1578 0.950 . S
H1603 C1579 0.949 . S
H1604 C1581 0.950 . S
H1605 C1583 0.950 . S
C1606 C1607 1.349 . S
C1606 C1608 1.327 . S
C1606 H1631 0.950 1_545 S
C1607 C1606 1.349 . S
C1607 C1623 1.349 . S
C1608 C1606 1.327 . S
C1608 C1627 1.429 . S
C1608 H1632 0.950 1_545 S
C1609 C1626 1.574 1_455 S
C1609 C1628 1.368 . S
C1609 H1633 0.949 1_455 S
H1610 C1614 0.916 1_565 S
C1611 C1612 1.349 . S
C1611 C1613 1.327 . S
C1611 H1634 0.950 . S
C1612 C1611 1.349 . S
C1612 C1624 1.349 . S
C1613 C1611 1.327 . S
C1613 C1629 1.429 . S
C1613 H1635 0.950 . S
C1614 H1610 0.916 1_545 S
C1614 C1622 1.574 . S
C1614 C1630 1.364 1_455 S
H1615 C1623 0.950 . S
H1616 C1621 0.950 . S
H1617 C1622 0.949 1_565 S
H1618 C1624 0.950 . S
H1619 C1625 0.969 1_455 S
H1620 C1626 0.949 . S
C1621 H1616 0.950 . S
C1621 C1623 1.327 . S
C1621 C1627 1.429 . S
C1622 C1614 1.574 . S
C1622 H1617 0.949 1_545 S
C1622 C1628 1.368 . S
C1623 C1607 1.349 . S
C1623 H1615 0.950 . S
C1623 C1621 1.327 . S
C1624 C1612 1.349 . S
C1624 H1618 0.950 . S
C1624 C1625 1.327 . S
C1625 H1619 0.969 1_655 S
C1625 C1624 1.327 . S
C1625 C1629 1.429 . S
C1626 C1609 1.574 1_655 S
C1626 H1620 0.949 . S
C1626 C1630 1.371 . S
C1627 C1608 1.429 . S
C1627 C1621 1.429 . S
C1627 C1628 1.523 . S
C1628 C1609 1.368 . S
C1628 C1622 1.368 . S
C1628 C1627 1.523 . S
C1629 C1613 1.429 . S
C1629 C1625 1.429 . S
C1629 C1630 1.526 . S
C1630 C1614 1.364 1_655 S
C1630 C1626 1.371 . S
C1630 C1629 1.526 . S
H1631 C1606 0.950 1_565 S
H1632 C1608 0.950 1_565 S
H1633 C1609 0.949 1_655 S
H1634 C1611 0.950 . S
H1635 C1613 0.950 . S
C1636 C1637 1.349 . S
C1636 C1638 1.327 . S
C1636 H1661 0.950 . S
C1637 C1636 1.349 . S
C1637 C1653 1.349 . S
C1638 C1636 1.327 . S
C1638 C1657 1.429 . S
C1638 H1662 0.950 . S
C1639 C1656 1.574 . S
C1639 C1658 1.368 . S
C1639 H1663 0.949 . S
H1640 C1644 0.949 . S
C1641 C1642 1.349 . S
C1641 C1643 1.327 . S
C1641 H1664 0.950 . S
C1642 C1641 1.349 . S
C1642 C1654 1.349 . S
C1643 C1641 1.327 . S
C1643 C1659 1.429 . S
C1643 H1665 0.950 . S
C1644 H1640 0.949 . S
C1644 C1652 1.574 . S
C1644 C1660 1.368 . S
H1645 C1653 0.950 . S
H1646 C1651 0.950 . S
H1647 C1652 0.949 . S
H1648 C1654 0.950 . S
H1649 C1655 0.950 . S
H1650 C1656 0.949 . S
C1651 H1646 0.950 . S
C1651 C1653 1.327 . S
C1651 C1657 1.429 . S
C1652 C1644 1.574 . S
C1652 H1647 0.949 . S
C1652 C1658 1.368 . S
C1653 C1637 1.349 . S
C1653 H1645 0.950 . S
C1653 C1651 1.327 . S
C1654 C1642 1.349 . S
C1654 H1648 0.950 . S
C1654 C1655 1.327 . S
C1655 H1649 0.950 . S
C1655 C1654 1.327 . S
C1655 C1659 1.429 . S
C1656 C1639 1.574 . S
C1656 H1650 0.949 . S
C1656 C1660 1.368 . S
C1657 C1638 1.429 . S
C1657 C1651 1.429 . S
C1657 C1658 1.523 . S
C1658 C1639 1.368 . S
C1658 C1652 1.368 . S
C1658 C1657 1.523 . S
C1659 C1643 1.429 . S
C1659 C1655 1.429 . S
C1659 C1660 1.523 . S
C1660 C1644 1.368 . S
C1660 C1656 1.368 . S
C1660 C1659 1.523 . S
H1661 C1636 0.950 . S
H1662 C1638 0.950 . S
H1663 C1639 0.949 . S
H1664 C1641 0.950 . S
H1665 C1643 0.950 . S
C1666 C1667 1.349 . S
C1666 C1668 1.327 . S
C1666 H1691 0.950 . S
C1667 C1666 1.349 . S
C1667 C1683 1.349 . S
C1668 C1666 1.327 . S
C1668 C1687 1.429 . S
C1668 H1692 0.950 . S
C1669 C1686 1.574 . S
C1669 C1688 1.368 . S
C1669 H1693 0.949 . S
H1670 C1674 0.949 . S
C1671 C1672 1.349 . S
C1671 C1673 1.327 . S
C1671 H1694 0.950 . S
C1672 C1671 1.349 . S
C1672 C1684 1.349 . S
C1673 C1671 1.327 . S
C1673 C1689 1.429 . S
C1673 H1695 0.950 . S
C1674 H1670 0.949 . S
C1674 C1682 1.574 . S
C1674 C1690 1.368 . S
H1675 C1683 0.950 . S
H1676 C1681 0.950 . S
H1677 C1682 0.949 . S
H1678 C1684 0.950 . S
H1679 C1685 0.950 . S
H1680 C1686 0.949 . S
C1681 H1676 0.950 . S
C1681 C1683 1.327 . S
C1681 C1687 1.429 . S
C1682 C1674 1.574 . S
C1682 H1677 0.949 . S
C1682 C1688 1.368 . S
C1683 C1667 1.349 . S
C1683 H1675 0.950 . S
C1683 C1681 1.327 . S
C1684 C1672 1.349 . S
C1684 H1678 0.950 . S
C1684 C1685 1.327 . S
C1685 H1679 0.950 . S
C1685 C1684 1.327 . S
C1685 C1689 1.429 . S
C1686 C1669 1.574 . S
C1686 H1680 0.949 . S
C1686 C1690 1.368 . S
C1687 C1668 1.429 . S
C1687 C1681 1.429 . S
C1687 C1688 1.523 . S
C1688 C1669 1.368 . S
C1688 C1682 1.368 . S
C1688 C1687 1.523 . S
C1689 C1673 1.429 . S
C1689 C1685 1.429 . S
C1689 C1690 1.523 . S
C1690 C1674 1.368 . S
C1690 C1686 1.368 . S
C1690 C1689 1.523 . S
H1691 C1666 0.950 . S
H1692 C1668 0.950 . S
H1693 C1669 0.949 . S
H1694 C1671 0.950 . S
H1695 C1673 0.950 . S
C1696 C1697 1.349 . S
C1696 C1698 1.327 . S
C1696 H1721 0.950 . S
C1697 C1696 1.349 . S
C1697 C1713 1.349 . S
C1698 C1696 1.327 . S
C1698 C1717 1.429 . S
C1698 H1722 0.950 . S
C1699 C1716 1.574 . S
C1699 C1718 1.368 . S
C1699 H1723 0.949 . S
H1700 C1704 0.949 . S
C1701 C1702 1.349 . S
C1701 C1703 1.327 . S
C1701 H1724 0.950 . S
C1702 C1701 1.349 . S
C1702 C1714 1.349 . S
C1703 C1701 1.327 . S
C1703 C1719 1.429 . S
C1703 H1725 0.950 . S
C1704 H1700 0.949 . S
C1704 C1712 1.574 . S
C1704 C1720 1.368 . S
H1705 C1713 0.950 . S
H1706 C1711 0.950 . S
H1707 C1712 0.949 . S
H1708 C1714 0.950 . S
H1709 C1715 0.950 . S
H1710 C1716 0.949 . S
C1711 H1706 0.950 . S
C1711 C1713 1.327 . S
C1711 C1717 1.429 . S
C1712 C1704 1.574 . S
C1712 H1707 0.949 . S
C1712 C1718 1.368 . S
C1713 C1697 1.349 . S
C1713 H1705 0.950 . S
C1713 C1711 1.327 . S
C1714 C1702 1.349 . S
C1714 H1708 0.950 . S
C1714 C1715 1.327 . S
C1715 H1709 0.950 . S
C1715 C1714 1.327 . S
C1715 C1719 1.429 . S
C1716 C1699 1.574 . S
C1716 H1710 0.949 . S
C1716 C1720 1.368 . S
C1717 C1698 1.429 . S
C1717 C1711 1.429 . S
C1717 C1718 1.523 . S
C1718 C1699 1.368 . S
C1718 C1712 1.368 . S
C1718 C1717 1.523 . S
C1719 C1703 1.429 . S
C1719 C1715 1.429 . S
C1719 C1720 1.523 . S
C1720 C1704 1.368 . S
C1720 C1716 1.368 . S
C1720 C1719 1.523 . S
H1721 C1696 0.950 . S
H1722 C1698 0.950 . S
H1723 C1699 0.949 . S
H1724 C1701 0.950 . S
H1725 C1703 0.950 . S
C1726 C1727 1.354 . S
C1726 C1728 1.332 . S
C1726 H1751 0.940 1_455 S
C1727 C1726 1.354 . S
C1727 C1743 1.349 . S
C1728 C1726 1.332 . S
C1728 C1747 1.429 . S
C1728 H1752 0.950 1_455 S
C1729 C1746 1.574 . S
C1729 C1748 1.368 . S
C1729 H1753 0.949 . S
H1730 C1734 0.948 1_655 S
C1731 C1732 1.349 . S
C1731 C1733 1.327 . S
C1731 H1754 0.950 . S
C1732 C1731 1.349 . S
C1732 C1744 1.349 . S
C1733 C1731 1.327 . S
C1733 C1749 1.429 . S
C1733 H1755 0.950 . S
C1734 H1730 0.948 1_455 S
C1734 C1742 1.574 . S
C1734 C1750 1.368 . S
H1735 C1743 0.950 . S
H1736 C1741 0.950 . S
H1737 C1742 0.949 1_655 S
H1738 C1744 0.950 . S
H1739 C1745 0.967 . S
H1740 C1746 0.949 . S
C1741 H1736 0.950 . S
C1741 C1743 1.327 . S
C1741 C1747 1.429 . S
C1742 C1734 1.574 . S
C1742 H1737 0.949 1_455 S
C1742 C1748 1.368 . S
C1743 C1727 1.349 . S
C1743 H1735 0.950 . S
C1743 C1741 1.327 . S
C1744 C1732 1.349 . S
C1744 H1738 0.950 . S
C1744 C1745 1.327 . S
C1745 H1739 0.967 . S
C1745 C1744 1.327 . S
C1745 C1749 1.429 . S
C1746 C1729 1.574 . S
C1746 H1740 0.949 . S
C1746 C1750 1.368 . S
C1747 C1728 1.429 . S
C1747 C1741 1.429 . S
C1747 C1748 1.523 . S
C1748 C1729 1.368 . S
C1748 C1742 1.368 . S
C1748 C1747 1.523 . S
C1749 C1733 1.429 . S
C1749 C1745 1.429 . S
C1749 C1750 1.523 . S
C1750 C1734 1.368 . S
C1750 C1746 1.368 . S
C1750 C1749 1.523 . S
H1751 C1726 0.940 1_655 S
H1752 C1728 0.950 1_655 S
H1753 C1729 0.949 . S
H1754 C1731 0.950 . S
H1755 C1733 0.950 . S
C1756 C1757 1.349 . S
C1756 C1758 1.327 . S
C1756 H1781 0.950 . S
C1757 C1756 1.349 . S
C1757 C1773 1.349 . S
C1758 C1756 1.327 . S
C1758 C1777 1.429 . S
C1758 H1782 0.950 . S
C1759 C1776 1.574 . S
C1759 C1778 1.368 . S
C1759 H1783 0.949 . S
H1760 C1764 0.949 . S
C1761 C1762 1.349 . S
C1761 C1763 1.327 . S
C1761 H1784 0.950 . S
C1762 C1761 1.349 . S
C1762 C1774 1.349 . S
C1763 C1761 1.327 . S
C1763 C1779 1.429 . S
C1763 H1785 0.950 . S
C1764 H1760 0.949 . S
C1764 C1772 1.574 . S
C1764 C1780 1.368 . S
H1765 C1773 0.950 . S
H1766 C1771 0.950 . S
H1767 C1772 0.949 . S
H1768 C1774 0.950 . S
H1769 C1775 0.950 . S
H1770 C1776 0.949 . S
C1771 H1766 0.950 . S
C1771 C1773 1.327 . S
C1771 C1777 1.429 . S
C1772 C1764 1.574 . S
C1772 H1767 0.949 . S
C1772 C1778 1.368 . S
C1773 C1757 1.349 . S
C1773 H1765 0.950 . S
C1773 C1771 1.327 . S
C1774 C1762 1.349 . S
C1774 H1768 0.950 . S
C1774 C1775 1.327 . S
C1775 H1769 0.950 . S
C1775 C1774 1.327 . S
C1775 C1779 1.429 . S
C1776 C1759 1.574 . S
C1776 H1770 0.949 . S
C1776 C1780 1.368 . S
C1777 C1758 1.429 . S
C1777 C1771 1.429 . S
C1777 C1778 1.523 . S
C1778 C1759 1.368 . S
C1778 C1772 1.368 . S
C1778 C1777 1.523 . S
C1779 C1763 1.429 . S
C1779 C1775 1.429 . S
C1779 C1780 1.523 . S
C1780 C1764 1.368 . S
C1780 C1776 1.368 . S
C1780 C1779 1.523 . S
H1781 C1756 0.950 . S
H1782 C1758 0.950 . S
H1783 C1759 0.949 . S
H1784 C1761 0.950 . S
H1785 C1763 0.950 . S
C1786 C1787 1.349 . S
C1786 C1788 1.327 . S
C1786 H1811 0.950 . S
C1787 C1786 1.349 . S
C1787 C1803 1.349 . S
C1788 C1786 1.327 . S
C1788 C1807 1.429 . S
C1788 H1812 0.950 . S
C1789 C1806 1.574 . S
C1789 C1808 1.368 . S
C1789 H1813 0.949 . S
H1790 C1794 0.949 . S
C1791 C1792 1.349 . S
C1791 C1793 1.327 . S
C1791 H1814 0.950 1_455 S
C1792 C1791 1.349 . S
C1792 C1804 1.349 . S
C1793 C1791 1.327 . S
C1793 C1809 1.429 . S
C1793 H1815 0.949 . S
C1794 H1790 0.949 . S
C1794 C1802 1.574 . S
C1794 C1810 1.368 . S
H1795 C1803 0.950 . S
H1796 C1801 0.950 . S
H1797 C1802 0.949 . S
H1798 C1804 0.950 . S
H1799 C1805 0.950 . S
H1800 C1806 0.949 . S
C1801 H1796 0.950 . S
C1801 C1803 1.327 . S
C1801 C1807 1.429 . S
C1802 C1794 1.574 . S
C1802 H1797 0.949 . S
C1802 C1808 1.368 . S
C1803 C1787 1.349 . S
C1803 H1795 0.950 . S
C1803 C1801 1.327 . S
C1804 C1792 1.349 . S
C1804 H1798 0.950 . S
C1804 C1805 1.327 . S
C1805 H1799 0.950 . S
C1805 C1804 1.327 . S
C1805 C1809 1.429 . S
C1806 C1789 1.574 . S
C1806 H1800 0.949 . S
C1806 C1810 1.368 . S
C1807 C1788 1.429 . S
C1807 C1801 1.429 . S
C1807 C1808 1.523 . S
C1808 C1789 1.368 . S
C1808 C1802 1.368 . S
C1808 C1807 1.523 . S
C1809 C1793 1.429 . S
C1809 C1805 1.429 . S
C1809 C1810 1.523 . S
C1810 C1794 1.368 . S
C1810 C1806 1.368 . S
C1810 C1809 1.523 . S
H1811 C1786 0.950 . S
H1812 C1788 0.950 . S
H1813 C1789 0.949 . S
H1814 C1791 0.950 1_655 S
H1815 C1793 0.949 . S
C1816 C1817 1.349 . S
C1816 C1818 1.327 . S
C1816 H1841 0.950 . S
C1817 C1816 1.349 . S
C1817 C1833 1.349 . S
C1818 C1816 1.327 . S
C1818 C1837 1.429 . S
C1818 H1842 0.950 . S
C1819 C1836 1.574 . S
C1819 C1838 1.368 . S
C1819 H1843 0.949 . S
H1820 C1824 0.949 . S
C1821 C1822 1.349 . S
C1821 C1823 1.327 . S
C1821 H1844 0.950 . S
C1822 C1821 1.349 . S
C1822 C1834 1.349 . S
C1823 C1821 1.327 . S
C1823 C1839 1.429 . S
C1823 H1845 0.950 . S
C1824 H1820 0.949 . S
C1824 C1832 1.574 . S
C1824 C1840 1.368 . S
H1825 C1833 0.950 . S
H1826 C1831 0.950 . S
H1827 C1832 0.949 . S
H1828 C1834 0.950 . S
H1829 C1835 0.950 . S
H1830 C1836 0.949 . S
C1831 H1826 0.950 . S
C1831 C1833 1.327 . S
C1831 C1837 1.429 . S
C1832 C1824 1.574 . S
C1832 H1827 0.949 . S
C1832 C1838 1.368 . S
C1833 C1817 1.349 . S
C1833 H1825 0.950 . S
C1833 C1831 1.327 . S
C1834 C1822 1.349 . S
C1834 H1828 0.950 . S
C1834 C1835 1.327 . S
C1835 H1829 0.950 . S
C1835 C1834 1.327 . S
C1835 C1839 1.429 . S
C1836 C1819 1.574 . S
C1836 H1830 0.949 . S
C1836 C1840 1.368 . S
C1837 C1818 1.429 . S
C1837 C1831 1.429 . S
C1837 C1838 1.523 . S
C1838 C1819 1.368 . S
C1838 C1832 1.368 . S
C1838 C1837 1.523 . S
C1839 C1823 1.429 . S
C1839 C1835 1.429 . S
C1839 C1840 1.523 . S
C1840 C1824 1.368 . S
C1840 C1836 1.368 . S
C1840 C1839 1.523 . S
H1841 C1816 0.950 . S
H1842 C1818 0.950 . S
H1843 C1819 0.949 . S
H1844 C1821 0.950 . S
H1845 C1823 0.950 . S
C1846 C1847 1.349 . S
C1846 C1848 1.327 . S
C1846 H1871 0.950 . S
C1847 C1846 1.349 . S
C1847 C1863 1.349 . S
C1848 C1846 1.327 . S
C1848 C1867 1.429 . S
C1848 H1872 0.950 . S
C1849 C1866 1.574 . S
C1849 C1868 1.368 . S
C1849 H1873 0.949 . S
H1850 C1854 0.949 . S
C1851 C1852 1.349 . S
C1851 C1853 1.327 . S
C1851 H1874 0.950 . S
C1852 C1851 1.349 . S
C1852 C1864 1.349 . S
C1853 C1851 1.327 . S
C1853 C1869 1.429 . S
C1853 H1875 0.950 . S
C1854 H1850 0.949 . S
C1854 C1862 1.574 . S
C1854 C1870 1.368 . S
H1855 C1863 0.950 . S
H1856 C1861 0.950 . S
H1857 C1862 0.949 . S
H1858 C1864 0.950 . S
H1859 C1865 0.950 . S
H1860 C1866 0.949 . S
C1861 H1856 0.950 . S
C1861 C1863 1.327 . S
C1861 C1867 1.429 . S
C1862 C1854 1.574 . S
C1862 H1857 0.949 . S
C1862 C1868 1.368 . S
C1863 C1847 1.349 . S
C1863 H1855 0.950 . S
C1863 C1861 1.327 . S
C1864 C1852 1.349 . S
C1864 H1858 0.950 . S
C1864 C1865 1.327 . S
C1865 H1859 0.950 . S
C1865 C1864 1.327 . S
C1865 C1869 1.429 . S
C1866 C1849 1.574 . S
C1866 H1860 0.949 . S
C1866 C1870 1.368 . S
C1867 C1848 1.429 . S
C1867 C1861 1.429 . S
C1867 C1868 1.523 . S
C1868 C1849 1.368 . S
C1868 C1862 1.368 . S
C1868 C1867 1.523 . S
C1869 C1853 1.429 . S
C1869 C1865 1.429 . S
C1869 C1870 1.523 . S
C1870 C1854 1.368 . S
C1870 C1866 1.368 . S
C1870 C1869 1.523 . S
H1871 C1846 0.950 . S
H1872 C1848 0.950 . S
H1873 C1849 0.949 . S
H1874 C1851 0.950 . S
H1875 C1853 0.950 . S
C1876 C1877 1.349 . S
C1876 C1878 1.327 . S
C1876 H1901 0.950 . S
C1877 C1876 1.349 . S
C1877 C1893 1.349 . S
C1878 C1876 1.327 . S
C1878 C1897 1.429 . S
C1878 H1902 0.950 . S
C1879 C1896 1.574 . S
C1879 C1898 1.368 . S
C1879 H1903 0.949 . S
H1880 C1884 0.949 . S
C1881 C1882 1.349 . S
C1881 C1883 1.327 . S
C1881 H1904 0.950 . S
C1882 C1881 1.349 . S
C1882 C1894 1.349 . S
C1883 C1881 1.327 . S
C1883 C1899 1.429 . S
C1883 H1905 0.950 . S
C1884 H1880 0.949 . S
C1884 C1892 1.574 . S
C1884 C1900 1.368 . S
H1885 C1893 0.950 . S
H1886 C1891 0.950 . S
H1887 C1892 0.949 . S
H1888 C1894 0.950 . S
H1889 C1895 0.950 . S
H1890 C1896 0.949 . S
C1891 H1886 0.950 . S
C1891 C1893 1.327 . S
C1891 C1897 1.429 . S
C1892 C1884 1.574 . S
C1892 H1887 0.949 . S
C1892 C1898 1.368 . S
C1893 C1877 1.349 . S
C1893 H1885 0.950 . S
C1893 C1891 1.327 . S
C1894 C1882 1.349 . S
C1894 H1888 0.950 . S
C1894 C1895 1.327 . S
C1895 H1889 0.950 . S
C1895 C1894 1.327 . S
C1895 C1899 1.429 . S
C1896 C1879 1.574 . S
C1896 H1890 0.949 . S
C1896 C1900 1.368 . S
C1897 C1878 1.429 . S
C1897 C1891 1.429 . S
C1897 C1898 1.523 . S
C1898 C1879 1.368 . S
C1898 C1892 1.368 . S
C1898 C1897 1.523 . S
C1899 C1883 1.429 . S
C1899 C1895 1.429 . S
C1899 C1900 1.523 . S
C1900 C1884 1.368 . S
C1900 C1896 1.368 . S
C1900 C1899 1.523 . S
H1901 C1876 0.950 . S
H1902 C1878 0.950 . S
H1903 C1879 0.949 . S
H1904 C1881 0.950 . S
H1905 C1883 0.950 . S
C1906 C1907 1.349 1_554 S
C1906 C1908 1.327 . S
C1906 H1931 0.950 . S
C1907 C1906 1.349 1_556 S
C1907 C1923 1.349 . S
C1908 C1906 1.327 . S
C1908 C1927 1.429 . S
C1908 H1932 0.950 . S
C1909 C1926 1.574 . S
C1909 C1928 1.368 . S
C1909 H1933 0.949 . S
H1910 C1914 0.949 . S
C1911 C1912 1.349 . S
C1911 C1913 1.327 . S
C1911 H1934 0.950 . S
C1912 C1911 1.349 . S
C1912 C1924 1.349 . S
C1913 C1911 1.327 . S
C1913 C1929 1.429 . S
C1913 H1935 0.950 . S
C1914 H1910 0.949 . S
C1914 C1922 1.574 . S
C1914 C1930 1.368 . S
H1915 C1923 0.950 . S
H1916 C1921 0.950 . S
H1917 C1922 0.949 . S
H1918 C1924 0.950 . S
H1919 C1925 0.950 . S
H1920 C1926 0.949 . S
C1921 H1916 0.950 . S
C1921 C1923 1.327 1_554 S
C1921 C1927 1.429 . S
C1922 C1914 1.574 . S
C1922 H1917 0.949 . S
C1922 C1928 1.368 . S
C1923 C1907 1.349 . S
C1923 H1915 0.950 . S
C1923 C1921 1.327 1_556 S
C1924 C1912 1.349 . S
C1924 H1918 0.950 . S
C1924 C1925 1.327 . S
C1925 H1919 0.950 . S
C1925 C1924 1.327 . S
C1925 C1929 1.429 . S
C1926 C1909 1.574 . S
C1926 H1920 0.949 . S
C1926 C1930 1.368 . S
C1927 C1908 1.429 . S
C1927 C1921 1.429 . S
C1927 C1928 1.523 . S
C1928 C1909 1.368 . S
C1928 C1922 1.368 . S
C1928 C1927 1.523 . S
C1929 C1913 1.429 . S
C1929 C1925 1.429 . S
C1929 C1930 1.523 . S
C1930 C1914 1.368 . S
C1930 C1926 1.368 . S
C1930 C1929 1.523 . S
H1931 C1906 0.950 . S
H1932 C1908 0.950 . S
H1933 C1909 0.949 . S
H1934 C1911 0.950 . S
H1935 C1913 0.950 . S
C1936 C1937 1.349 . S
C1936 C1938 1.327 . S
C1936 H1961 0.950 . S
C1937 C1936 1.349 . S
C1937 C1953 1.349 . S
C1938 C1936 1.327 . S
C1938 C1957 1.429 . S
C1938 H1962 0.950 . S
C1939 C1956 1.574 . S
C1939 C1958 1.368 . S
C1939 H1963 0.949 . S
H1940 C1944 0.949 . S
C1941 C1942 1.349 . S
C1941 C1943 1.327 . S
C1941 H1964 0.950 . S
C1942 C1941 1.349 . S
C1942 C1954 1.349 . S
C1943 C1941 1.327 . S
C1943 C1959 1.429 . S
C1943 H1965 0.950 . S
C1944 H1940 0.949 . S
C1944 C1952 1.574 . S
C1944 C1960 1.368 . S
H1945 C1953 0.950 . S
H1946 C1951 0.950 . S
H1947 C1952 0.949 . S
H1948 C1954 0.950 . S
H1949 C1955 0.950 . S
H1950 C1956 0.949 . S
C1951 H1946 0.950 . S
C1951 C1953 1.327 . S
C1951 C1957 1.429 . S
C1952 C1944 1.574 . S
C1952 H1947 0.949 . S
C1952 C1958 1.368 . S
C1953 C1937 1.349 . S
C1953 H1945 0.950 . S
C1953 C1951 1.327 . S
C1954 C1942 1.349 . S
C1954 H1948 0.950 . S
C1954 C1955 1.327 . S
C1955 H1949 0.950 . S
C1955 C1954 1.327 . S
C1955 C1959 1.429 . S
C1956 C1939 1.574 . S
C1956 H1950 0.949 . S
C1956 C1960 1.368 . S
C1957 C1938 1.429 . S
C1957 C1951 1.429 . S
C1957 C1958 1.523 . S
C1958 C1939 1.368 . S
C1958 C1952 1.368 . S
C1958 C1957 1.523 . S
C1959 C1943 1.429 . S
C1959 C1955 1.429 . S
C1959 C1960 1.523 . S
C1960 C1944 1.368 . S
C1960 C1956 1.368 . S
C1960 C1959 1.523 . S
H1961 C1936 0.950 . S
H1962 C1938 0.950 . S
H1963 C1939 0.949 . S
H1964 C1941 0.950 . S
H1965 C1943 0.950 . S
C1966 C1967 1.349 . S
C1966 C1968 1.327 . S
C1966 H1991 0.950 . S
C1967 C1966 1.349 . S
C1967 C1983 1.349 . S
C1968 C1966 1.327 . S
C1968 C1987 1.429 . S
C1968 H1992 0.950 . S
C1969 C1986 1.574 . S
C1969 C1988 1.368 . S
C1969 H1993 0.949 . S
H1970 C1974 0.949 . S
C1971 C1972 1.349 . S
C1971 C1973 1.327 . S
C1971 H1994 0.950 . S
C1972 C1971 1.349 . S
C1972 C1984 1.349 . S
C1973 C1971 1.327 . S
C1973 C1989 1.429 . S
C1973 H1995 0.950 . S
C1974 H1970 0.949 . S
C1974 C1982 1.574 . S
C1974 C1990 1.368 . S
H1975 C1983 0.950 . S
H1976 C1981 0.950 . S
H1977 C1982 0.949 . S
H1978 C1984 0.950 . S
H1979 C1985 0.950 . S
H1980 C1986 0.949 . S
C1981 H1976 0.950 . S
C1981 C1983 1.327 . S
C1981 C1987 1.429 . S
C1982 C1974 1.574 . S
C1982 H1977 0.949 . S
C1982 C1988 1.368 . S
C1983 C1967 1.349 . S
C1983 H1975 0.950 . S
C1983 C1981 1.327 . S
C1984 C1972 1.349 . S
C1984 H1978 0.950 . S
C1984 C1985 1.327 . S
C1985 H1979 0.950 . S
C1985 C1984 1.327 . S
C1985 C1989 1.429 . S
C1986 C1969 1.574 . S
C1986 H1980 0.949 . S
C1986 C1990 1.368 . S
C1987 C1968 1.429 . S
C1987 C1981 1.429 . S
C1987 C1988 1.523 . S
C1988 C1969 1.368 . S
C1988 C1982 1.368 . S
C1988 C1987 1.523 . S
C1989 C1973 1.429 . S
C1989 C1985 1.429 . S
C1989 C1990 1.523 . S
C1990 C1974 1.368 . S
C1990 C1986 1.368 . S
C1990 C1989 1.523 . S
H1991 C1966 0.950 . S
H1992 C1968 0.950 . S
H1993 C1969 0.949 . S
H1994 C1971 0.950 . S
H1995 C1973 0.950 . S
C1996 C1997 1.349 . S
C1996 C1998 1.327 . S
C1996 H2021 0.950 . S
C1997 C1996 1.349 . S
C1997 C2013 1.349 . S
C1998 C1996 1.327 . S
C1998 C2017 1.429 . S
C1998 H2022 0.950 . S
C1999 C2016 1.574 . S
C1999 C2018 1.368 . S
C1999 H2023 0.949 . S
H2000 C2004 0.949 . S
C2001 C2002 1.349 . S
C2001 C2003 1.327 . S
C2001 H2024 0.950 . S
C2002 C2001 1.349 . S
C2002 C2014 1.349 . S
C2003 C2001 1.327 . S
C2003 C2019 1.429 . S
C2003 H2025 0.950 . S
C2004 H2000 0.949 . S
C2004 C2012 1.574 . S
C2004 C2020 1.368 . S
H2005 C2013 0.950 . S
H2006 C2011 0.950 . S
H2007 C2012 0.949 . S
H2008 C2014 0.950 . S
H2009 C2015 0.950 . S
H2010 C2016 0.949 . S
C2011 H2006 0.950 . S
C2011 C2013 1.327 . S
C2011 C2017 1.429 . S
C2012 C2004 1.574 . S
C2012 H2007 0.949 . S
C2012 C2018 1.368 . S
C2013 C1997 1.349 . S
C2013 H2005 0.950 . S
C2013 C2011 1.327 . S
C2014 C2002 1.349 . S
C2014 H2008 0.950 . S
C2014 C2015 1.327 . S
C2015 H2009 0.950 . S
C2015 C2014 1.327 . S
C2015 C2019 1.429 . S
C2016 C1999 1.574 . S
C2016 H2010 0.949 . S
C2016 C2020 1.368 . S
C2017 C1998 1.429 . S
C2017 C2011 1.429 . S
C2017 C2018 1.523 . S
C2018 C1999 1.368 . S
C2018 C2012 1.368 . S
C2018 C2017 1.523 . S
C2019 C2003 1.429 . S
C2019 C2015 1.429 . S
C2019 C2020 1.523 . S
C2020 C2004 1.368 . S
C2020 C2016 1.368 . S
C2020 C2019 1.523 . S
H2021 C1996 0.950 . S
H2022 C1998 0.950 . S
H2023 C1999 0.949 . S
H2024 C2001 0.950 . S
H2025 C2003 0.950 . S
C2026 C2027 1.349 . S
C2026 C2028 1.327 . S
C2026 H2051 0.950 . S
C2027 C2026 1.349 . S
C2027 C2043 1.349 . S
C2028 C2026 1.327 . S
C2028 C2047 1.429 . S
C2028 H2052 0.950 . S
C2029 C2046 1.574 . S
C2029 C2048 1.368 . S
C2029 H2053 0.949 . S
H2030 C2034 0.949 . S
C2031 C2032 1.349 . S
C2031 C2033 1.327 . S
C2031 H2054 0.951 . S
C2032 C2031 1.349 . S
C2032 C2044 1.349 . S
C2033 C2031 1.327 . S
C2033 C2049 1.429 . S
C2033 H2055 0.950 . S
C2034 H2030 0.949 . S
C2034 C2042 1.574 . S
C2034 C2050 1.368 . S
H2035 C2043 0.950 . S
H2036 C2041 0.950 . S
H2037 C2042 0.949 . S
H2038 C2044 0.950 . S
H2039 C2045 0.950 . S
H2040 C2046 0.949 . S
C2041 H2036 0.950 . S
C2041 C2043 1.327 . S
C2041 C2047 1.429 . S
C2042 C2034 1.574 . S
C2042 H2037 0.949 . S
C2042 C2048 1.368 . S
C2043 C2027 1.349 . S
C2043 H2035 0.950 . S
C2043 C2041 1.327 . S
C2044 C2032 1.349 . S
C2044 H2038 0.950 . S
C2044 C2045 1.327 . S
C2045 H2039 0.950 . S
C2045 C2044 1.327 . S
C2045 C2049 1.429 . S
C2046 C2029 1.574 . S
C2046 H2040 0.949 . S
C2046 C2050 1.368 . S
C2047 C2028 1.429 . S
C2047 C2041 1.429 . S
C2047 C2048 1.523 . S
C2048 C2029 1.368 . S
C2048 C2042 1.368 . S
C2048 C2047 1.523 . S
C2049 C2033 1.429 . S
C2049 C2045 1.429 . S
C2049 C2050 1.523 . S
C2050 C2034 1.368 . S
C2050 C2046 1.368 . S
C2050 C2049 1.523 . S
H2051 C2026 0.950 . S
H2052 C2028 0.950 . S
H2053 C2029 0.949 . S
H2054 C2031 0.951 . S
H2055 C2033 0.950 . S
C2056 C2057 1.349 . S
C2056 C2058 1.327 . S
C2056 H2081 0.950 . S
C2057 C2056 1.349 . S
C2057 C2073 1.349 1_556 S
C2058 C2056 1.327 . S
C2058 C2077 1.429 . S
C2058 H2082 0.950 . S
C2059 C2076 1.574 . S
C2059 C2078 1.368 1_554 S
C2059 H2083 0.949 . S
H2060 C2064 0.949 . S
C2061 C2062 1.349 1_554 S
C2061 C2063 1.327 . S
C2061 H2084 0.950 . S
C2062 C2061 1.349 1_556 S
C2062 C2074 1.349 . S
C2063 C2061 1.327 . S
C2063 C2079 1.429 1_554 S
C2063 H2085 0.950 . S
C2064 H2060 0.949 . S
C2064 C2072 1.574 . S
C2064 C2080 1.368 . S
H2065 C2073 0.950 . S
H2066 C2071 0.950 . S
H2067 C2072 0.949 . S
H2068 C2074 0.950 . S
H2069 C2075 0.950 . S
H2070 C2076 0.949 . S
C2071 H2066 0.950 . S
C2071 C2073 1.327 . S
C2071 C2077 1.429 1_554 S
C2072 C2064 1.574 . S
C2072 H2067 0.949 . S
C2072 C2078 1.368 . S
C2073 C2057 1.349 1_554 S
C2073 H2065 0.950 . S
C2073 C2071 1.327 . S
C2074 C2062 1.349 . S
C2074 H2068 0.950 . S
C2074 C2075 1.327 . S
C2075 H2069 0.950 . S
C2075 C2074 1.327 . S
C2075 C2079 1.429 . S
C2076 C2059 1.574 . S
C2076 H2070 0.949 . S
C2076 C2080 1.368 1_554 S
C2077 C2058 1.429 . S
C2077 C2071 1.429 1_556 S
C2077 C2078 1.523 . S
C2078 C2059 1.368 1_556 S
C2078 C2072 1.368 . S
C2078 C2077 1.523 . S
C2079 C2063 1.429 1_556 S
C2079 C2075 1.429 . S
C2079 C2080 1.523 . S
C2080 C2064 1.368 . S
C2080 C2076 1.368 1_556 S
C2080 C2079 1.523 . S
H2081 C2056 0.950 . S
H2082 C2058 0.950 . S
H2083 C2059 0.949 . S
H2084 C2061 0.950 . S
H2085 C2063 0.950 . S
C2086 C2087 1.349 . S
C2086 C2088 1.327 . S
C2086 H2111 0.950 . S
C2087 C2086 1.349 . S
C2087 C2103 1.349 . S
C2088 C2086 1.327 . S
C2088 C2107 1.429 . S
C2088 H2112 0.950 . S
C2089 C2106 1.574 . S
C2089 C2108 1.368 . S
C2089 H2113 0.949 . S
H2090 C2094 0.949 . S
C2091 C2092 1.349 . S
C2091 C2093 1.327 . S
C2091 H2114 0.950 . S
C2092 C2091 1.349 . S
C2092 C2104 1.349 . S
C2093 C2091 1.327 . S
C2093 C2109 1.429 . S
C2093 H2115 0.950 . S
C2094 H2090 0.949 . S
C2094 C2102 1.574 . S
C2094 C2110 1.368 . S
H2095 C2103 0.950 . S
H2096 C2101 0.950 . S
H2097 C2102 0.949 . S
H2098 C2104 0.950 . S
H2099 C2105 0.950 . S
H2100 C2106 0.949 . S
C2101 H2096 0.950 . S
C2101 C2103 1.327 . S
C2101 C2107 1.429 . S
C2102 C2094 1.574 . S
C2102 H2097 0.949 . S
C2102 C2108 1.368 . S
C2103 C2087 1.349 . S
C2103 H2095 0.950 . S
C2103 C2101 1.327 . S
C2104 C2092 1.349 . S
C2104 H2098 0.950 . S
C2104 C2105 1.327 . S
C2105 H2099 0.950 . S
C2105 C2104 1.327 . S
C2105 C2109 1.429 . S
C2106 C2089 1.574 . S
C2106 H2100 0.949 . S
C2106 C2110 1.368 . S
C2107 C2088 1.429 . S
C2107 C2101 1.429 . S
C2107 C2108 1.523 . S
C2108 C2089 1.368 . S
C2108 C2102 1.368 . S
C2108 C2107 1.523 . S
C2109 C2093 1.429 . S
C2109 C2105 1.429 . S
C2109 C2110 1.523 . S
C2110 C2094 1.368 . S
C2110 C2106 1.368 . S
C2110 C2109 1.523 . S
H2111 C2086 0.950 . S
H2112 C2088 0.950 . S
H2113 C2089 0.949 . S
H2114 C2091 0.950 . S
H2115 C2093 0.950 . S
C2116 C2117 1.349 . S
C2116 C2118 1.327 . S
C2116 H2141 0.950 . S
C2117 C2116 1.349 . S
C2117 C2133 1.349 . S
C2118 C2116 1.327 . S
C2118 C2137 1.429 . S
C2118 H2142 0.950 . S
C2119 C2136 1.574 . S
C2119 C2138 1.368 1_556 S
C2119 H2143 0.949 . S
H2120 C2124 0.949 . S
C2121 C2122 1.311 1_556 S
C2121 C2123 1.327 . S
C2121 H2144 0.950 . S
C2122 C2121 1.311 1_554 S
C2122 C2134 1.400 . S
C2123 C2121 1.327 . S
C2123 C2139 1.429 1_556 S
C2123 H2145 0.950 . S
C2124 H2120 0.949 . S
C2124 C2132 1.574 . S
C2124 C2140 1.368 . S
H2125 C2133 0.950 1_556 S
H2126 C2131 0.950 1_556 S
H2127 C2132 0.949 . S
H2128 C2134 0.950 . S
H2129 C2135 0.950 . S
H2130 C2136 0.949 . S
C2131 H2126 0.950 1_554 S
C2131 C2133 1.327 . S
C2131 C2137 1.429 . S
C2132 C2124 1.574 . S
C2132 H2127 0.949 . S
C2132 C2138 1.368 . S
C2133 C2117 1.349 . S
C2133 H2125 0.950 1_554 S
C2133 C2131 1.327 . S
C2134 C2122 1.400 . S
C2134 H2128 0.950 . S
C2134 C2135 1.327 . S
C2135 H2129 0.950 . S
C2135 C2134 1.327 . S
C2135 C2139 1.429 . S
C2136 C2119 1.574 . S
C2136 H2130 0.949 . S
C2136 C2140 1.368 1_556 S
C2137 C2118 1.429 . S
C2137 C2131 1.429 . S
C2137 C2138 1.523 . S
C2138 C2119 1.368 1_554 S
C2138 C2132 1.368 . S
C2138 C2137 1.523 . S
C2139 C2123 1.429 1_554 S
C2139 C2135 1.429 . S
C2139 C2140 1.523 . S
C2140 C2124 1.368 . S
C2140 C2136 1.368 1_554 S
C2140 C2139 1.523 . S
H2141 C2116 0.950 . S
H2142 C2118 0.950 . S
H2143 C2119 0.949 . S
H2144 C2121 0.950 . S
H2145 C2123 0.950 . S
C2146 C2147 1.358 . S
C2146 C2148 1.358 . S
C2146 H2171 0.911 1_565 S
C2147 C2146 1.358 . S
C2147 C2163 1.349 . S
C2148 C2146 1.358 . S
C2148 C2167 1.429 . S
C2148 H2172 0.950 . S
C2149 C2166 1.574 . S
C2149 C2168 1.368 . S
C2149 H2173 0.949 . S
H2150 C2154 0.949 . S
C2151 C2152 1.349 . S
C2151 C2153 1.327 . S
C2151 H2174 0.950 . S
C2152 C2151 1.349 . S
C2152 C2164 1.349 . S
C2153 C2151 1.327 . S
C2153 C2169 1.429 . S
C2153 H2175 0.950 . S
C2154 H2150 0.949 . S
C2154 C2162 1.574 . S
C2154 C2170 1.368 . S
H2155 C2163 0.950 . S
H2156 C2161 0.950 . S
H2157 C2162 0.949 . S
H2158 C2164 0.950 . S
H2159 C2165 0.950 . S
H2160 C2166 0.949 . S
C2161 H2156 0.950 . S
C2161 C2163 1.327 . S
C2161 C2167 1.429 . S
C2162 C2154 1.574 . S
C2162 H2157 0.949 . S
C2162 C2168 1.368 . S
C2163 C2147 1.349 . S
C2163 H2155 0.950 . S
C2163 C2161 1.327 . S
C2164 C2152 1.349 . S
C2164 H2158 0.950 . S
C2164 C2165 1.327 . S
C2165 H2159 0.950 . S
C2165 C2164 1.327 . S
C2165 C2169 1.429 . S
C2166 C2149 1.574 . S
C2166 H2160 0.949 . S
C2166 C2170 1.368 . S
C2167 C2148 1.429 . S
C2167 C2161 1.429 . S
C2167 C2168 1.523 . S
C2168 C2149 1.368 . S
C2168 C2162 1.368 . S
C2168 C2167 1.523 . S
C2169 C2153 1.429 . S
C2169 C2165 1.429 . S
C2169 C2170 1.523 . S
C2170 C2154 1.368 . S
C2170 C2166 1.368 . S
C2170 C2169 1.523 . S
H2171 C2146 0.911 1_545 S
H2172 C2148 0.950 . S
H2173 C2149 0.949 . S
H2174 C2151 0.950 . S
H2175 C2153 0.950 . S
C742 C306 1.833 1_556 S
C737 C101 1.817 . S
C772 C354 1.118 . S
C767 C125 1.051 . S
C797 C139 1.974 . S
C802 C390 1.873 . S
C832 C426 1.865 . S
C827 C82 1.949 . S
C862 C452 1.438 . S
C857 C196 1.446 . S
C892 C488 1.987 . S
C887 C234 2.011 . S
C917 C220 0.824 . S
C922 C523 0.880 . S
C952 C560 1.797 . S
C947 C173 1.796 . S
C977 C211 0.973 . S
C982 C594 0.983 . S
C1012 C642 1.071 . S
C1007 C182 1.033 . S
C1037 C201 1.121 . S
C1042 C595 1.260 . S
C1072 C632 1.458 . S
C1067 C239 1.327 . S
C1097 C135 1.542 . S
C1102 C678 1.495 . S
C1127 C87 1.977 . S
C1132 C667 2.147 . S
C1157 C106 1.149 . S
C1162 C668 1.312 . S
C1187 C116 1.266 . S
C1192 C666 1.267 1_655 S
C1217 C59 1.760 . S
C1222 C414 1.768 . S
C1247 C268 2.298 . S
C1252 C415 2.319 . S
C1282 C318 1.330 . S
C1277 C291 1.418 . S
C1312 C343 1.377 . S
C1307 C163 1.296 . S
C1337 C78 2.279 1_545 S
C1342 C450 2.293 . S
C1372 C558 1.053 . S
C1367 C215 1.062 . S
C1402 C451 1.567 . S
C1397 C177 1.577 1_545 S
C1432 C524 1.963 . S
C1427 C230 1.964 . S
C1462 C522 1.833 . S
C1457 C272 1.817 . S
C1487 C296 1.052 . S
C1492 C570 1.118 . S
C1517 C158 1.974 . S
C1522 C462 1.873 . S
C1552 C498 1.865 . S
C1547 C253 1.949 . S
C1577 C63 1.446 . S
C1582 C380 1.438 . S
C1612 C416 1.987 . S
C1607 C6 2.011 . S
C1642 C307 0.880 . S
C1637 C30 0.824 . S
C1672 C344 1.798 . S
C1667 C40 1.800 . S
C1697 C21 0.973 . S
C1702 C630 0.983 . S
C1727 C49 1.033 . S
C1732 C606 1.071 . S
C1757 C68 1.120 . S
C1762 C631 1.260 . S
C1787 C11 1.295 1_556 S
C1792 C596 1.458 . S
C1822 C714 1.494 . S
C1817 C154 1.542 . S
C1852 C703 2.147 . S
C1847 C258 1.977 . S
C1882 C704 1.312 . S
C1877 C277 1.149 . S
C1907 C287 1.266 . S
C1912 C702 1.267 . S
C1937 C192 1.759 . S
C1942 C486 1.768 . S
C1972 C487 2.319 . S
C1967 C97 2.298 . S
C2002 C534 1.330 . S
C1997 C120 1.418 . S
C2032 C559 1.377 . S
C2027 C144 1.296 . S
C2057 C249 2.279 . S
C2062 C378 2.292 1_556 S
C2092 C342 1.053 . S
C2087 C25 1.062 . S
C2117 C44 1.577 . S
C2122 C379 1.557 . S
C2152 C308 1.963 . S
C2147 C2 1.964 1_565 S
