# Generated by pormake.
# Topology llj, (12,3)-cn, num edge types: 1
# Building blocks:
#     Node 0, Type 0, BuildingBlock: QEWDON_clean_sbu_0, # of connection points: 12
#     Node 1, Type 0, BuildingBlock: QEWDON_clean_sbu_0, # of connection points: 12
#     Node 2, Type 1, BuildingBlock: VETTIZ_charged_linker_0, # of connection points: 3
#     Node 3, Type 1, BuildingBlock: VETTIZ_charged_linker_0, # of connection points: 3
#     Node 4, Type 1, BuildingBlock: VETTIZ_charged_linker_0, # of connection points: 3
#     Node 5, Type 1, BuildingBlock: VETTIZ_charged_linker_0, # of connection points: 3
#     Node 6, Type 1, BuildingBlock: VETTIZ_charged_linker_0, # of connection points: 3
#     Node 7, Type 1, BuildingBlock: VETTIZ_charged_linker_0, # of connection points: 3
#     Node 8, Type 1, BuildingBlock: VETTIZ_charged_linker_0, # of connection points: 3
#     Node 9, Type 1, BuildingBlock: VETTIZ_charged_linker_0, # of connection points: 3
#     Edge 10, Type (0, 1), BuildingBlock: CIFDUS_clean_linker_0, # of connection points: 2
#     Edge 11, Type (0, 1), BuildingBlock: CIFDUS_clean_linker_0, # of connection points: 2
#     Edge 12, Type (0, 1), BuildingBlock: CIFDUS_clean_linker_0, # of connection points: 2
#     Edge 13, Type (0, 1), BuildingBlock: CIFDUS_clean_linker_0, # of connection points: 2
#     Edge 14, Type (0, 1), BuildingBlock: CIFDUS_clean_linker_0, # of connection points: 2
#     Edge 15, Type (0, 1), BuildingBlock: CIFDUS_clean_linker_0, # of connection points: 2
#     Edge 16, Type (0, 1), BuildingBlock: CIFDUS_clean_linker_0, # of connection points: 2
#     Edge 17, Type (0, 1), BuildingBlock: CIFDUS_clean_linker_0, # of connection points: 2
#     Edge 18, Type (0, 1), BuildingBlock: CIFDUS_clean_linker_0, # of connection points: 2
#     Edge 19, Type (0, 1), BuildingBlock: CIFDUS_clean_linker_0, # of connection points: 2
#     Edge 20, Type (0, 1), BuildingBlock: CIFDUS_clean_linker_0, # of connection points: 2
#     Edge 21, Type (0, 1), BuildingBlock: CIFDUS_clean_linker_0, # of connection points: 2
#     Edge 22, Type (0, 1), BuildingBlock: CIFDUS_clean_linker_0, # of connection points: 2
#     Edge 23, Type (0, 1), BuildingBlock: CIFDUS_clean_linker_0, # of connection points: 2
#     Edge 24, Type (0, 1), BuildingBlock: CIFDUS_clean_linker_0, # of connection points: 2
#     Edge 25, Type (0, 1), BuildingBlock: CIFDUS_clean_linker_0, # of connection points: 2
#     Edge 26, Type (0, 1), BuildingBlock: CIFDUS_clean_linker_0, # of connection points: 2
#     Edge 27, Type (0, 1), BuildingBlock: CIFDUS_clean_linker_0, # of connection points: 2
#     Edge 28, Type (0, 1), BuildingBlock: CIFDUS_clean_linker_0, # of connection points: 2
#     Edge 29, Type (0, 1), BuildingBlock: CIFDUS_clean_linker_0, # of connection points: 2
#     Edge 30, Type (0, 1), BuildingBlock: CIFDUS_clean_linker_0, # of connection points: 2
#     Edge 31, Type (0, 1), BuildingBlock: CIFDUS_clean_linker_0, # of connection points: 2
#     Edge 32, Type (0, 1), BuildingBlock: CIFDUS_clean_linker_0, # of connection points: 2
#     Edge 33, Type (0, 1), BuildingBlock: CIFDUS_clean_linker_0, # of connection points: 2
# Relax obj value: 0.012
# Max RMSD: 0.058
# Mean RMSD: 0.054
data_MOF--net-llj--node1-QEWDON_clean_sbu_0--node2-VETTIZ_charged_linker_0--edge1-CIFDUS_clean_linker_0
_symmetry_space_group_name_H-M    P1
_symmetry_Int_Tables_number       1
_symmetry_cell_setting            triclinic
loop_
_symmetry_equiv_pos_as_xyz
'x, y, z'
_cell_length_a     40.914382
_cell_length_b     40.885387
_cell_length_c     28.582686
_cell_angle_alpha  89.934148
_cell_angle_beta   90.106147
_cell_angle_gamma 89.965887
loop_
_atom_site_label
_atom_site_type_symbol
_atom_site_fract_x
_atom_site_fract_y
_atom_site_fract_z
_atom_type_partial_charge
Zn0 Zn 0.94953 0.05477 0.96316 0.0
Zn1 Zn 0.95942 0.07163 0.06139 0.0
O2 O 0.98704 0.06977 0.00442 0.0
H3 H 0.00363 0.08532 0.99528 0.0
C4 C 0.90686 0.99504 0.89366 0.0
O5 O 0.90155 0.00815 0.93489 0.0
Zn6 Zn 0.04942 0.93503 0.07101 0.0
Zn7 Zn 0.05004 0.921 0.96261 0.0
O8 O 0.02125 0.9384 0.01423 0.0
H9 H 0.00573 0.95578 0.00918 0.0
Zn10 Zn 0.93682 0.94708 0.95312 0.0
O11 O 0.94672 0.97886 0.00483 0.0
Zn12 Zn 0.93585 0.95571 0.06435 0.0
H13 H 0.96167 0.99696 0.00106 0.0
Zn14 Zn 0.09118 0.04998 0.9585 0.0
O15 O 0.06887 0.02399 0.00873 0.0
H16 H 0.05176 0.00833 0.00232 0.0
Zn17 Zn 0.07383 0.04936 0.06765 0.0
C18 C 0.14023 0.01202 0.90526 0.0
O19 O 0.16013 0.02072 0.93915 0.0
O20 O 0.90676 0.07972 0.97756 0.0
O21 O 0.91862 0.09822 0.04865 0.0
O22 O 0.08476 0.88881 0.98678 0.0
O23 O 0.08521 0.90118 0.06276 0.0
O24 O 0.91085 0.90727 0.97531 0.0
O25 O 0.90617 0.91658 0.05181 0.0
C26 C 0.01633 0.08164 0.11499 0.0
O27 O 0.11469 0.09123 0.98218 0.0
O28 O 0.10469 0.08822 0.05883 0.0
O29 O 0.02904 0.91575 0.89678 0.0
C30 C 0.89956 0.09694 0.01325 0.0
O31 O 0.96281 0.0491 0.89402 0.0
C32 C 0.992 0.92977 0.12804 0.0
O33 O 0.92198 0.96801 0.89116 0.0
C34 C 0.09589 0.88471 0.02809 0.0
O35 O 0.11091 0.02222 0.90546 0.0
C36 C 0.92279 0.01777 0.10411 0.0
O37 O 0.98638 0.08976 0.11407 0.0
O38 O 0.02783 0.0646 0.08176 0.0
C39 C 0.89972 0.89962 0.01541 0.0
O40 O 0.02252 0.92401 0.12771 0.0
O41 O 0.97907 0.94049 0.09054 0.0
C42 C 0.08488 0.98942 0.11512 0.0
O43 O 0.91383 0.98813 0.10667 0.0
O44 O 0.94538 0.02568 0.07592 0.0
C45 C 0.11808 0.10213 0.02367 0.0
O46 O 0.09185 0.01957 0.1179 0.0
O47 O 0.06787 0.97954 0.08089 0.0
C48 C -0.00097 0.90781 0.89694 0.0
O49 O 0.98472 0.90234 0.93731 0.0
C50 C 0.99063 0.03661 0.88583 0.0
O51 O 0.00845 0.02623 0.92115 0.0
Zn52 Zn 0.45048 0.55105 0.4586 0.0
Zn53 Zn 0.45825 0.55294 0.56609 0.0
O54 O 0.48536 0.54779 0.50891 0.0
H55 H 0.5043 0.53378 0.50652 0.0
C56 C 0.40735 0.47511 0.39616 0.0
O57 O 0.41229 0.49458 0.43201 0.0
Zn58 Zn 0.55462 0.44412 0.59639 0.0
Zn59 Zn 0.55426 0.42369 0.4884 0.0
O60 O 0.53033 0.45022 0.53658 0.0
H61 H 0.51642 0.46873 0.52981 0.0
Zn62 Zn 0.41522 0.42936 0.47086 0.0
O63 O 0.44078 0.45855 0.51348 0.0
Zn64 Zn 0.43782 0.43649 0.5755 0.0
H65 H 0.45779 0.47338 0.50351 0.0
Zn66 Zn 0.58464 0.55104 0.47718 0.0
O67 O 0.59203 0.52054 0.53134 0.0
H68 H 0.60827 0.50338 0.53226 0.0
Zn69 Zn 0.58148 0.55256 0.5813 0.0
C70 C 0.57962 0.4997 0.41029 0.0
O71 O 0.56669 0.48612 0.44758 0.0
O72 O 0.41278 0.58139 0.47724 0.0
O73 O 0.41879 0.58322 0.55453 0.0
O74 O 0.59397 0.39882 0.51396 0.0
O75 O 0.59147 0.41045 0.59011 0.0
O76 O 0.38493 0.39743 0.5049 0.0
O77 O 0.40795 0.39642 0.57571 0.0
C78 C 0.51743 0.57048 0.61694 0.0
O79 O 0.60473 0.59627 0.48993 0.0
O80 O 0.60436 0.596 0.56786 0.0
O81 O 0.52632 0.40191 0.437 0.0
C82 C 0.40394 0.59199 0.51714 0.0
O83 O 0.46648 0.55535 0.3905 0.0
C84 C 0.49342 0.42534 0.63683 0.0
O85 O 0.40679 0.44443 0.40295 0.0
C86 C 0.60457 0.39552 0.55562 0.0
O87 O 0.58938 0.52914 0.41264 0.0
C88 C 0.42746 0.49824 0.61754 0.0
O89 O 0.48637 0.57103 0.61793 0.0
O90 O 0.53232 0.55864 0.58188 0.0
C91 C 0.38689 0.38596 0.54629 0.0
O92 O 0.52338 0.42956 0.64667 0.0
O93 O 0.48401 0.42828 0.59478 0.0
C94 C 0.58621 0.50186 0.64476 0.0
O95 O 0.42005 0.46832 0.62209 0.0
O96 O 0.44367 0.5074 0.58212 0.0
C97 C 0.61135 0.60986 0.52898 0.0
O98 O 0.59519 0.53157 0.64243 0.0
O99 O 0.57212 0.48926 0.60957 0.0
C100 C 0.49738 0.39226 0.44513 0.0
O101 O 0.4852 0.39575 0.48733 0.0
C102 C 0.49688 0.55944 0.38416 0.0
O103 O 0.51648 0.55959 0.4206 0.0
C104 C 0.37374 0.38356 0.88007 0.0
C105 C 0.40176 0.40355 0.87817 0.0
C106 C 0.41901 0.40996 0.91997 0.0
C107 C 0.38165 0.37571 0.96351 0.0
C108 C 0.3643 0.3698 0.92291 0.0
C109 C 0.33641 0.3464 0.93074 0.0
H110 H 0.24804 0.25381 0.08085 0.0
C111 C 0.36653 0.35662 0.00154 0.0
C112 C 0.33996 0.3394 0.98276 0.0
H113 H 0.23741 0.26223 0.93033 0.0
H114 H 0.28189 0.3002 0.92795 0.0
H115 H 0.32343 0.24364 0.07509 0.0
H116 H 0.26742 0.33048 0.10431 0.0
H117 H 0.29931 0.32712 0.1457 0.0
H118 H 0.26878 0.29554 0.14244 0.0
H119 H 0.30605 0.25091 0.1317 0.0
H120 H 0.34592 0.26632 0.11601 0.0
C121 C 0.3424 0.31543 0.9006 0.0
C122 C 0.30418 0.36463 0.9195 0.0
C123 C 0.41674 0.36027 0.16341 0.0
C124 C 0.4097 0.34425 0.20572 0.0
C125 C 0.38233 0.32329 0.20776 0.0
C126 C 0.3626 0.31822 0.16818 0.0
C127 C 0.37044 0.33405 0.12597 0.0
C128 C 0.39716 0.35462 0.12423 0.0
C129 C 0.40257 0.36876 0.07643 0.0
C130 C 0.37468 0.35326 0.04952 0.0
C131 C 0.35583 0.33306 0.07863 0.0
C132 C 0.43641 0.35688 0.05873 0.0
C133 C 0.39886 0.40645 0.07976 0.0
C134 C 0.2552 0.26354 0.04718 0.0
C135 C 0.23835 0.255 0.00587 0.0
C136 C 0.24888 0.26885 0.96312 0.0
C137 C 0.27517 0.29072 0.96157 0.0
C138 C 0.29182 0.29856 0.00298 0.0
C139 C 0.28203 0.28475 0.04479 0.0
C140 C 0.30432 0.29385 0.08465 0.0
C141 C 0.32853 0.31605 0.05998 0.0
C142 C 0.32085 0.31899 0.01222 0.0
C143 C 0.32074 0.26219 0.1033 0.0
C144 C 0.28406 0.3126 0.12157 0.0
H145 H 0.42353 0.40192 0.9927 0.0
H146 H 0.35972 0.37822 0.84884 0.0
H147 H 0.30467 0.38979 0.93426 0.0
H148 H 0.28248 0.35285 0.93495 0.0
H149 H 0.30048 0.36678 0.8811 0.0
H150 H 0.36896 0.31121 0.89483 0.0
H151 H 0.33064 0.3177 0.8657 0.0
H152 H 0.33376 0.29279 0.91776 0.0
H153 H 0.43711 0.37707 0.16062 0.0
H154 H 0.37642 0.31039 0.23975 0.0
H155 H 0.34217 0.30198 0.17186 0.0
H156 H 0.44209 0.33194 0.07214 0.0
H157 H 0.45627 0.37343 0.07061 0.0
H158 H 0.43757 0.35444 0.02029 0.0
H159 H 0.38009 0.41327 0.10614 0.0
H160 H 0.39021 0.41769 0.04682 0.0
H161 H 0.42222 0.41815 0.09035 0.0
H162 H 0.44105 0.4246 0.91973 0.0
C163 C 0.40902 0.39636 0.96247 0.0
C164 C 0.65505 0.37597 0.8799 0.0
C165 C 0.63309 0.40218 0.87435 0.0
C166 C 0.61405 0.4122 0.91279 0.0
C167 C 0.63959 0.37106 0.96155 0.0
C168 C 0.65777 0.36071 0.92367 0.0
C169 C 0.6799 0.33254 0.93597 0.0
H170 H 0.74262 0.23165 0.10157 0.0
C171 C 0.64896 0.35104 0.00235 0.0
C172 C 0.67236 0.32819 0.98766 0.0
H173 H 0.76555 0.23517 0.9539 0.0
H174 H 0.72534 0.27738 0.94241 0.0
H175 H 0.74156 0.30767 0.11534 0.0
H176 H 0.66322 0.23966 0.09005 0.0
H177 H 0.65043 0.26696 0.13394 0.0
H178 H 0.68548 0.24116 0.1442 0.0
H179 H 0.72623 0.28127 0.1604 0.0
H180 H 0.70829 0.32082 0.149 0.0
C181 C 0.71566 0.34356 0.92775 0.0
C182 C 0.66926 0.30243 0.90678 0.0
C183 C 0.60531 0.38123 0.16217 0.0
C184 C 0.61286 0.37042 0.20759 0.0
C185 C 0.6329 0.3426 0.21321 0.0
C186 C 0.64655 0.3269 0.17425 0.0
C187 C 0.64033 0.33932 0.12922 0.0
C188 C 0.6195 0.36565 0.12378 0.0
C189 C 0.61664 0.37647 0.07374 0.0
C190 C 0.63965 0.35263 0.05004 0.0
C191 C 0.65343 0.3309 0.08261 0.0
C192 C 0.62901 0.41229 0.07046 0.0
C193 C 0.58073 0.37143 0.05788 0.0
C194 C 0.73903 0.24155 0.06677 0.0
C195 C 0.75732 0.22988 0.02863 0.0
C196 C 0.75152 0.24326 0.98383 0.0
C197 C 0.72832 0.26804 0.97723 0.0
C198 C 0.71078 0.27988 0.01585 0.0
C199 C 0.71605 0.26645 0.05961 0.0
C200 C 0.69555 0.28249 0.09669 0.0
C201 C 0.67691 0.30753 0.06785 0.0
C202 C 0.68611 0.30603 0.02057 0.0
C203 C 0.71886 0.2988 0.13259 0.0
C204 C 0.67251 0.25634 0.11779 0.0
H205 H 0.60212 0.40576 0.9841 0.0
H206 H 0.66966 0.36742 0.8508 0.0
H207 H 0.64239 0.30251 0.90069 0.0
H208 H 0.67418 0.279 0.92476 0.0
H209 H 0.68138 0.30227 0.87204 0.0
H210 H 0.71914 0.3694 0.9389 0.0
H211 H 0.72221 0.34195 0.89012 0.0
H212 H 0.7336 0.32944 0.94835 0.0
H213 H 0.58959 0.40221 0.15657 0.0
H214 H 0.63928 0.33383 0.24781 0.0
H215 H 0.66225 0.30637 0.18082 0.0
H216 H 0.64948 0.41663 0.0954 0.0
H217 H 0.60925 0.42992 0.07903 0.0
H218 H 0.63924 0.41857 0.03592 0.0
H219 H 0.56963 0.34987 0.07557 0.0
H220 H 0.57853 0.36604 0.02011 0.0
H221 H 0.56547 0.39308 0.06642 0.0
H222 H 0.59719 0.43252 0.90954 0.0
C223 C 0.61709 0.39674 0.9562 0.0
C224 C 0.61659 0.64174 0.1572 0.0
C225 C 0.59219 0.61752 0.15623 0.0
C226 C 0.57979 0.60715 0.11263 0.0
C227 C 0.61599 0.64472 0.07256 0.0
C228 C 0.62827 0.65465 0.11522 0.0
C229 C 0.65502 0.67956 0.11035 0.0
H230 H 0.74954 0.77365 0.97158 0.0
C231 C 0.63374 0.6627 0.03577 0.0
C232 C 0.65686 0.68284 0.05758 0.0
H233 H 0.75104 0.76552 0.12261 0.0
H234 H 0.70771 0.726 0.11956 0.0
H235 H 0.74473 0.69686 0.95309 0.0
H236 H 0.66922 0.77052 0.9587 0.0
H237 H 0.66366 0.74609 0.90847 0.0
H238 H 0.70038 0.76985 0.9145 0.0
H239 H 0.73843 0.7253 0.90605 0.0
H240 H 0.71568 0.68755 0.90982 0.0
C241 C 0.68682 0.66487 0.13137 0.0
C242 C 0.64336 0.71165 0.13386 0.0
C243 C 0.60254 0.64535 0.86652 0.0
C244 C 0.61584 0.65577 0.82369 0.0
C245 C 0.64275 0.67742 0.82447 0.0
C246 C 0.65616 0.68813 0.8671 0.0
C247 C 0.6428 0.67683 0.90944 0.0
C248 C 0.61665 0.65552 0.90844 0.0
C249 C 0.60678 0.64406 0.95623 0.0
C250 C 0.63085 0.6626 0.9864 0.0
C251 C 0.65167 0.68211 0.95906 0.0
C252 C 0.61215 0.60648 0.95893 0.0
C253 C 0.57113 0.65519 0.96507 0.0
C254 C 0.74072 0.76316 0.00398 0.0
C255 C 0.75369 0.77296 0.04747 0.0
C256 C 0.74116 0.7589 0.08874 0.0
C257 C 0.7161 0.73572 0.08688 0.0
C258 C 0.7034 0.72625 0.04328 0.0
C259 C 0.71575 0.73976 0.00271 0.0
C260 C 0.69957 0.7261 0.95955 0.0
C261 C 0.67523 0.70247 0.98112 0.0
C262 C 0.67766 0.7028 0.03013 0.0
C263 C 0.72581 0.70815 0.93017 0.0
C264 C 0.68236 0.7545 0.93352 0.0
H265 H 0.58094 0.61188 0.03889 0.0
H266 H 0.62637 0.65076 0.18996 0.0
H267 H 0.61681 0.71567 0.12756 0.0
H268 H 0.65538 0.73368 0.11965 0.0
H269 H 0.64726 0.7108 0.17231 0.0
H270 H 0.68728 0.63777 0.1278 0.0
H271 H 0.68908 0.67065 0.1692 0.0
H272 H 0.70909 0.67319 0.11304 0.0
H273 H 0.5815 0.62935 0.8678 0.0
H274 H 0.65386 0.68566 0.7922 0.0
H275 H 0.67664 0.70447 0.86547 0.0
H276 H 0.63105 0.59815 0.93364 0.0
H277 H 0.58928 0.59297 0.95088 0.0
H278 H 0.62153 0.59846 0.99342 0.0
H279 H 0.5673 0.68062 0.95225 0.0
H280 H 0.56462 0.65574 0.0025 0.0
H281 H 0.55352 0.63911 0.94644 0.0
H282 H 0.56133 0.58823 0.11069 0.0
C283 C 0.59144 0.62072 0.07086 0.0
C284 C 0.34795 0.60128 0.16086 0.0
C285 C 0.37181 0.57657 0.16322 0.0
C286 C 0.38566 0.56477 0.12137 0.0
C287 C 0.35153 0.60162 0.07617 0.0
C288 C 0.33827 0.61341 0.11726 0.0
C289 C 0.31289 0.63935 0.10884 0.0
H290 H 0.22694 0.73108 0.95491 0.0
C291 C 0.33568 0.61901 0.03691 0.0
C292 C 0.31315 0.64128 0.05589 0.0
H293 H 0.219 0.73083 0.1058 0.0
H294 H 0.26184 0.69019 0.11076 0.0
H295 H 0.30426 0.72795 0.94918 0.0
H296 H 0.2289 0.65499 0.94506 0.0
H297 H 0.25864 0.642 0.90517 0.0
H298 H 0.23808 0.68051 0.89574 0.0
H299 H 0.27853 0.72177 0.89907 0.0
H300 H 0.31623 0.69942 0.90666 0.0
C301 C 0.32493 0.67153 0.13164 0.0
C302 C 0.27975 0.62672 0.12782 0.0
C303 C 0.36262 0.58875 0.86883 0.0
C304 C 0.35052 0.59995 0.82557 0.0
C305 C 0.32791 0.62591 0.82473 0.0
C306 C 0.31693 0.64005 0.86632 0.0
C307 C 0.32851 0.62802 0.90933 0.0
C308 C 0.35125 0.60306 0.91017 0.0
C309 C 0.36055 0.59337 0.95926 0.0
C310 C 0.33919 0.61634 0.98765 0.0
C311 C 0.32052 0.63643 0.9581 0.0
C312 C 0.39741 0.60062 0.96617 0.0
C313 C 0.35096 0.55707 0.96655 0.0
C314 C 0.23413 0.72212 0.98909 0.0
C315 C 0.21938 0.73405 0.02998 0.0
C316 C 0.23012 0.7222 0.07375 0.0
C317 C 0.25486 0.69846 0.07653 0.0
C318 C 0.26893 0.68642 0.0351 0.0
C319 C 0.25845 0.69835 0.99242 0.0
C320 C 0.27531 0.68239 0.95189 0.0
C321 C 0.29795 0.659 0.97719 0.0
C322 C 0.2942 0.66142 0.02583 0.0
C323 C 0.29447 0.7091 0.92484 0.0
C324 C 0.24909 0.66415 0.92252 0.0
H325 H 0.38707 0.56717 0.04731 0.0
H326 H 0.33644 0.61055 0.19227 0.0
H327 H 0.27736 0.59987 0.12241 0.0
H328 H 0.25849 0.63741 0.10951 0.0
H329 H 0.27743 0.6315 0.16592 0.0
H330 H 0.35183 0.67427 0.1275 0.0
H331 H 0.31947 0.67189 0.16969 0.0
H332 H 0.31439 0.69359 0.11521 0.0
H333 H 0.37981 0.56861 0.87056 0.0
H334 H 0.31862 0.63521 0.79178 0.0
H335 H 0.29954 0.65956 0.86328 0.0
H336 H 0.40487 0.62275 0.94616 0.0
H337 H 0.41267 0.57988 0.95385 0.0
H338 H 0.40377 0.60622 0.00287 0.0
H339 H 0.32726 0.55161 0.94908 0.0
H340 H 0.34717 0.5506 0.00362 0.0
H341 H 0.36968 0.54044 0.95152 0.0
H342 H 0.40434 0.54599 0.12229 0.0
C343 C 0.3757 0.5772 0.07789 0.0
C344 C 0.84685 0.90084 0.35445 0.0
C345 C 0.87459 0.92094 0.35108 0.0
C346 C 0.88817 0.93414 0.39235 0.0
C347 C 0.84916 0.90399 0.43929 0.0
C348 C 0.83473 0.89253 0.39871 0.0
C349 C 0.80728 0.86907 0.40848 0.0
H350 H 0.73453 0.76617 0.55966 0.0
C351 C 0.83323 0.88768 0.47944 0.0
C352 C 0.80857 0.86725 0.46153 0.0
H353 H 0.71036 0.78275 0.41392 0.0
H354 H 0.74906 0.82695 0.41078 0.0
H355 H 0.81087 0.77632 0.55359 0.0
H356 H 0.73217 0.84219 0.58511 0.0
H357 H 0.76528 0.85531 0.61932 0.0
H358 H 0.74858 0.81488 0.62829 0.0
H359 H 0.78765 0.7746 0.60676 0.0
H360 H 0.82322 0.80023 0.60153 0.0
C361 C 0.81586 0.83588 0.3854 0.0
C362 C 0.77492 0.88452 0.39073 0.0
C363 C 0.87826 0.90271 0.64457 0.0
C364 C 0.87111 0.88724 0.68745 0.0
C365 C 0.84584 0.86377 0.68874 0.0
C366 C 0.82822 0.85571 0.64845 0.0
C367 C 0.83602 0.87086 0.60588 0.0
C368 C 0.86054 0.89406 0.60433 0.0
C369 C 0.8662 0.90648 0.55534 0.0
C370 C 0.84046 0.88742 0.52816 0.0
C371 C 0.82305 0.86652 0.55809 0.0
C372 C 0.90148 0.89702 0.54087 0.0
C373 C 0.85927 0.9437 0.55458 0.0
C374 C 0.73707 0.77947 0.52711 0.0
C375 C 0.71977 0.77002 0.48665 0.0
C376 C 0.72409 0.78847 0.44527 0.0
C377 C 0.74645 0.81437 0.44349 0.0
C378 C 0.76474 0.82222 0.4835 0.0
C379 C 0.75896 0.80575 0.52484 0.0
C380 C 0.77897 0.81909 0.56465 0.0
C381 C 0.79843 0.8456 0.53993 0.0
C382 C 0.79056 0.84673 0.49219 0.0
C383 C 0.8013 0.79124 0.58308 0.0
C384 C 0.75525 0.83347 0.6016 0.0
H385 H 0.88725 0.93626 0.46651 0.0
H386 H 0.83594 0.89024 0.32343 0.0
H387 H 0.77646 0.91168 0.38939 0.0
H388 H 0.75414 0.87942 0.41441 0.0
H389 H 0.76876 0.87588 0.35496 0.0
H390 H 0.84172 0.82918 0.39282 0.0
H391 H 0.81277 0.83714 0.34682 0.0
H392 H 0.80108 0.81532 0.39844 0.0
H393 H 0.89737 0.92095 0.64219 0.0
H394 H 0.84015 0.85083 0.72079 0.0
H395 H 0.80962 0.83741 0.65193 0.0
H396 H 0.90916 0.87366 0.55764 0.0
H397 H 0.91928 0.91613 0.55153 0.0
H398 H 0.90399 0.89242 0.50302 0.0
H399 H 0.83726 0.94956 0.5758 0.0
H400 H 0.85389 0.95305 0.51913 0.0
H401 H 0.88015 0.95765 0.56942 0.0
H402 H 0.90919 0.95018 0.3906 0.0
C403 C 0.87547 0.92595 0.43637 0.0
C404 C 0.141 0.87033 0.35629 0.0
C405 C 0.12107 0.89853 0.35533 0.0
C406 C 0.11493 0.91513 0.39764 0.0
C407 C 0.1478 0.87604 0.44034 0.0
C408 C 0.15419 0.85963 0.39916 0.0
C409 C 0.17657 0.83073 0.40704 0.0
H410 H 0.27657 0.74706 0.55482 0.0
C411 C 0.16566 0.85959 0.47853 0.0
C412 C 0.18283 0.83308 0.45955 0.0
H413 H 0.25535 0.72612 0.40938 0.0
H414 H 0.21712 0.77075 0.40701 0.0
H415 H 0.27634 0.82537 0.54911 0.0
H416 H 0.19941 0.75685 0.58134 0.0
H417 H 0.19574 0.7902 0.61964 0.0
H418 H 0.23209 0.76522 0.62156 0.0
H419 H 0.27602 0.80146 0.60188 0.0
H420 H 0.25458 0.83986 0.598 0.0
C421 C 0.20808 0.83639 0.3783 0.0
C422 C 0.15777 0.79916 0.39396 0.0
C423 C 0.15437 0.90392 0.64266 0.0
C424 C 0.16809 0.89532 0.68592 0.0
C425 C 0.19124 0.86979 0.68785 0.0
C426 C 0.19985 0.85252 0.64714 0.0
C427 C 0.1853 0.8611 0.60413 0.0
C428 C 0.16325 0.88668 0.6026 0.0
C429 C 0.15077 0.89335 0.55424 0.0
C430 C 0.16803 0.86681 0.52687 0.0
C431 C 0.18826 0.84794 0.55602 0.0
C432 C 0.16222 0.92815 0.53969 0.0
C433 C 0.11316 0.88844 0.55447 0.0
C434 C 0.26353 0.75171 0.52251 0.0
C435 C 0.26988 0.73318 0.48196 0.0
C436 C 0.25203 0.74047 0.44082 0.0
C437 C 0.22956 0.76634 0.43948 0.0
C438 C 0.22436 0.78516 0.47979 0.0
C439 C 0.24058 0.7772 0.52073 0.0
C440 C 0.23037 0.79865 0.56091 0.0
C441 C 0.20619 0.82136 0.53694 0.0
C442 C 0.20305 0.81361 0.48917 0.0
C443 C 0.26082 0.81728 0.57888 0.0
C444 C 0.2137 0.7768 0.59817 0.0
H445 H 0.12215 0.9179 0.47048 0.0
H446 H 0.1462 0.85688 0.32455 0.0
H447 H 0.13118 0.8018 0.40116 0.0
H448 H 0.16548 0.77781 0.41502 0.0
H449 H 0.16056 0.79335 0.35623 0.0
H450 H 0.21661 0.86208 0.38216 0.0
H451 H 0.20364 0.83186 0.3405 0.0
H452 H 0.22871 0.82102 0.38983 0.0
H453 H 0.13714 0.92398 0.63988 0.0
H454 H 0.20222 0.86287 0.72092 0.0
H455 H 0.21742 0.83317 0.65069 0.0
H456 H 0.18459 0.93571 0.55907 0.0
H457 H 0.14307 0.94675 0.54682 0.0
H458 H 0.16936 0.92959 0.50241 0.0
H459 H 0.10627 0.86745 0.57722 0.0
H460 H 0.10307 0.88234 0.51971 0.0
H461 H 0.10048 0.9105 0.56802 0.0
H462 H 0.10054 0.93737 0.39816 0.0
C463 C 0.12794 0.90399 0.43987 0.0
C464 C 0.1195 0.10819 0.66735 0.0
C465 C 0.09564 0.08353 0.66329 0.0
C466 C 0.08392 0.07503 0.61858 0.0
C467 C 0.11765 0.117 0.58347 0.0
C468 C 0.13007 0.12462 0.62709 0.0
C469 C 0.15414 0.15249 0.62514 0.0
H470 H 0.22788 0.26992 0.49501 0.0
C471 C 0.13186 0.13995 0.54931 0.0
C472 C 0.15337 0.16082 0.57335 0.0
H473 H 0.24219 0.25081 0.64233 0.0
H474 H 0.20427 0.20513 0.63794 0.0
H475 H 0.2307 0.1964 0.46262 0.0
H476 H 0.1514 0.26145 0.49481 0.0
H477 H 0.1386 0.23838 0.44646 0.0
H478 H 0.17412 0.26427 0.44135 0.0
H479 H 0.21823 0.22876 0.42408 0.0
H480 H 0.20007 0.18862 0.42106 0.0
C481 C 0.18798 0.13947 0.6407 0.0
C482 C 0.14088 0.18083 0.65555 0.0
C483 C 0.09525 0.13537 0.37973 0.0
C484 C 0.10282 0.15445 0.34029 0.0
C485 C 0.12476 0.18076 0.34489 0.0
C486 C 0.13924 0.18776 0.38815 0.0
C487 C 0.13154 0.16836 0.42727 0.0
C488 C 0.10978 0.14277 0.42267 0.0
C489 C 0.10393 0.12526 0.46814 0.0
C490 C 0.12618 0.1443 0.50073 0.0
C491 C 0.14219 0.16943 0.47659 0.0
C492 C 0.11525 0.08928 0.46248 0.0
C493 C 0.06735 0.12942 0.48102 0.0
C494 C 0.22261 0.25618 0.52656 0.0
C495 C 0.23754 0.26423 0.56922 0.0
C496 C 0.23081 0.24507 0.60909 0.0
C497 C 0.20879 0.21869 0.60644 0.0
C498 C 0.19362 0.21139 0.5634 0.0
C499 C 0.20096 0.22998 0.52443 0.0
C500 C 0.18335 0.21885 0.48132 0.0
C501 C 0.16407 0.19035 0.50055 0.0
C502 C 0.16989 0.18605 0.54865 0.0
C503 C 0.20921 0.20773 0.44501 0.0
C504 C 0.16079 0.2471 0.46462 0.0
H505 H 0.08463 0.08419 0.54579 0.0
H506 H 0.12878 0.11547 0.70129 0.0
H507 H 0.1141 0.18385 0.6502 0.0
H508 H 0.15169 0.20472 0.64661 0.0
H509 H 0.14515 0.17597 0.69332 0.0
H510 H 0.19177 0.11394 0.62841 0.0
H511 H 0.19026 0.13945 0.67944 0.0
H512 H 0.20845 0.1535 0.62557 0.0
H513 H 0.07803 0.11531 0.37737 0.0
H514 H 0.13106 0.19563 0.31484 0.0
H515 H 0.15588 0.208 0.38936 0.0
H516 H 0.13689 0.08766 0.43904 0.0
H517 H 0.09561 0.07396 0.44699 0.0
H518 H 0.12342 0.07813 0.49573 0.0
H519 H 0.05797 0.15366 0.46937 0.0
H520 H 0.06289 0.129 0.5191 0.0
H521 H 0.05209 0.11035 0.46404 0.0
H522 H 0.06591 0.05582 0.61453 0.0
C523 C 0.09485 0.09154 0.57871 0.0
C524 C 0.83561 0.08957 0.64267 0.0
C525 C 0.85676 0.06234 0.64146 0.0
C526 C 0.8709 0.05328 0.59841 0.0
C527 C 0.84387 0.09857 0.55973 0.0
C528 C 0.82981 0.10742 0.6017 0.0
C529 C 0.80978 0.13822 0.59755 0.0
H530 H 0.74556 0.25635 0.45937 0.0
C531 C 0.83335 0.12241 0.524 0.0
C532 C 0.81334 0.1457 0.54574 0.0
H533 H 0.74151 0.24908 0.61059 0.0
H534 H 0.77277 0.19933 0.60768 0.0
H535 H 0.82344 0.24063 0.45604 0.0
H536 H 0.73798 0.18072 0.43453 0.0
H537 H 0.7671 0.16982 0.39213 0.0
H538 H 0.75075 0.21082 0.39261 0.0
H539 H 0.79703 0.24541 0.40625 0.0
H540 H 0.82997 0.2162 0.40639 0.0
C541 C 0.82565 0.16496 0.62866 0.0
C542 C 0.77404 0.12999 0.61061 0.0
C543 C 0.87367 0.10962 0.35797 0.0
C544 C 0.86664 0.12593 0.31602 0.0
C545 C 0.84375 0.15163 0.31584 0.0
C546 C 0.82867 0.16154 0.35764 0.0
C547 C 0.83639 0.14523 0.39968 0.0
C548 C 0.85812 0.11935 0.39901 0.0
C549 C 0.86194 0.10332 0.44589 0.0
C550 C 0.83977 0.12453 0.47544 0.0
C551 C 0.82512 0.14924 0.44848 0.0
C552 C 0.89824 0.10636 0.46096 0.0
C553 C 0.84918 0.06764 0.44206 0.0
C554 C 0.75169 0.24458 0.49215 0.0
C555 C 0.74055 0.25706 0.53527 0.0
C556 C 0.74888 0.24 0.57666 0.0
C557 C 0.76744 0.21117 0.57504 0.0
C558 C 0.77847 0.1994 0.53173 0.0
C559 C 0.77097 0.21633 0.49131 0.0
C560 C 0.7867 0.20154 0.44874 0.0
C561 C 0.80471 0.17279 0.4703 0.0
C562 C 0.79934 0.17135 0.51881 0.0
C563 C 0.81044 0.22715 0.42778 0.0
C564 C 0.75939 0.19025 0.41484 0.0
H565 H 0.87626 0.06308 0.52623 0.0
H566 H 0.82397 0.09714 0.67487 0.0
H567 H 0.76612 0.10703 0.59308 0.0
H568 H 0.75652 0.14897 0.5994 0.0
H569 H 0.77152 0.12641 0.64897 0.0
H570 H 0.85212 0.16017 0.63452 0.0
H571 H 0.8138 0.16619 0.66354 0.0
H572 H 0.82488 0.18946 0.61218 0.0
H573 H 0.89046 0.0891 0.35864 0.0
H574 H 0.83774 0.1641 0.28349 0.0
H575 H 0.81154 0.18139 0.35563 0.0
H576 H 0.90848 0.13042 0.45014 0.0
H577 H 0.9134 0.08698 0.44455 0.0
H578 H 0.9017 0.10546 0.49925 0.0
H579 H 0.82984 0.06545 0.41481 0.0
H580 H 0.83731 0.059 0.47452 0.0
H581 H 0.86915 0.05049 0.43258 0.0
H582 H 0.88775 0.03291 0.59632 0.0
C583 C 0.86445 0.0711 0.55764 0.0
H584 H 0.12176 0.1565 0.97025 0.0
H585 H 0.16248 0.11106 0.09338 0.0
H586 H 0.20311 0.15484 0.09962 0.0
H587 H 0.22957 0.2031 0.06587 0.0
H588 H 0.18449 0.25215 0.94805 0.0
H589 H 0.14344 0.20937 0.94346 0.0
C590 C 0.13935 0.15647 -0.00129 0.0
C591 C 0.13952 0.13058 0.03101 0.0
C592 C 0.16212 0.18198 0.00257 0.0
C593 C 0.16198 0.13086 0.06817 0.0
C594 C 0.18528 0.15575 0.07156 0.0
C595 C 0.21041 0.20517 0.03984 0.0
C596 C 0.21097 0.23077 0.00667 0.0
C597 C 0.18593 0.18113 0.03842 0.0
C598 C 0.18577 0.23228 0.97303 0.0
C599 C 0.16191 0.20795 0.97062 0.0
H600 H 0.87939 0.14166 0.07778 0.0
H601 H 0.85164 0.09699 0.94668 0.0
H602 H 0.80405 0.13265 0.94162 0.0
H603 H 0.77193 0.17844 0.97203 0.0
H604 H 0.8011 0.22514 0.10087 0.0
H605 H 0.84602 0.1863 0.1096 0.0
C606 C 0.86283 0.13955 0.04821 0.0
C607 C 0.86934 0.11687 0.01244 0.0
C608 C 0.8357 0.1605 0.0451 0.0
C609 C 0.84746 0.11438 0.97455 0.0
C610 C 0.8202 0.13479 0.9716 0.0
C611 C 0.78819 0.18024 0.00193 0.0
C612 C 0.78323 0.20484 0.03553 0.0
C613 C 0.81441 0.15832 0.0062 0.0
C614 C 0.80411 0.20629 0.07465 0.0
C615 C 0.82999 0.18424 0.0795 0.0
H616 H 0.85289 0.889 0.08086 0.0
H617 H 0.89568 0.84778 0.95621 0.0
H618 H 0.85508 0.8041 0.95638 0.0
H619 H 0.80611 0.77906 0.98978 0.0
H620 H 0.76079 0.82251 0.11105 0.0
H621 H 0.80397 0.86353 0.11473 0.0
C622 C 0.85355 0.8702 0.05413 0.0
C623 C 0.8772 0.87158 0.01862 0.0
C624 C 0.82961 0.84564 0.05368 0.0
C625 C 0.8776 0.84728 0.98386 0.0
C626 C 0.85438 0.82234 0.98386 0.0
C627 C 0.80548 0.79767 0.01678 0.0
C628 C 0.78017 0.7977 0.04997 0.0
C629 C 0.82995 0.82161 0.01811 0.0
C630 C 0.78018 0.82162 0.08534 0.0
C631 C 0.80476 0.84523 0.08735 0.0
H632 H 0.10502 0.8302 0.97705 0.0
H633 H 0.14156 0.88161 0.09801 0.0
H634 H 0.18267 0.83886 0.11046 0.0
H635 H 0.20918 0.78769 0.08496 0.0
H636 H 0.16959 0.73525 0.96664 0.0
H637 H 0.12873 0.77776 0.95508 0.0
C638 C 0.12209 0.83213 0.00603 0.0
C639 C 0.12063 0.85913 0.03618 0.0
C640 C 0.14507 0.80732 0.01341 0.0
C641 C 0.14237 0.86104 0.0742 0.0
C642 C 0.16583 0.83664 0.08131 0.0
C643 C 0.19131 0.78534 0.05712 0.0
C644 C 0.19281 0.75859 0.02626 0.0
C645 C 0.16748 0.80971 0.05098 0.0
C646 C 0.16952 0.75599 0.99019 0.0
C647 C 0.14602 0.78019 0.98365 0.0
H648 H 0.6434 0.63756 0.45628 0.0
H649 H 0.61858 0.65344 0.60113 0.0
H650 H 0.64826 0.70543 0.60021 0.0
H651 H 0.682 0.74578 0.55827 0.0
H652 H 0.7105 0.72631 0.41537 0.0
H653 H 0.67782 0.67681 0.41532 0.0
C654 C 0.64425 0.65244 0.48766 0.0
C655 C 0.62862 0.64169 0.52867 0.0
C656 C 0.66187 0.68182 0.48713 0.0
C657 C 0.63036 0.66117 0.5691 0.0
C658 C 0.64733 0.69089 0.56856 0.0
C659 C 0.68139 0.73064 0.5272 0.0
C660 C 0.69869 0.74023 0.48678 0.0
C661 C 0.66339 0.70135 0.52781 0.0
C662 C 0.69694 0.7203 0.4467 0.0
C663 C 0.6785 0.69165 0.44672 0.0
H664 H 0.38323 0.63105 0.44687 0.0
H665 H 0.36477 0.60817 0.59182 0.0
H666 H 0.32094 0.64915 0.59359 0.0
H667 H 0.28792 0.6914 0.5534 0.0
H668 H 0.31078 0.71655 0.41015 0.0
H669 H 0.35228 0.67419 0.4082 0.0
C670 C 0.36953 0.63482 0.47888 0.0
C671 C 0.37712 0.61639 0.51906 0.0
C672 C 0.34497 0.65873 0.47987 0.0
C673 C 0.35943 0.62203 0.56039 0.0
C674 C 0.33435 0.64543 0.56137 0.0
C675 C 0.30215 0.68796 0.52186 0.0
C676 C 0.29559 0.70714 0.48177 0.0
C677 C 0.32697 0.66403 0.52128 0.0
C678 C 0.31432 0.70177 0.44119 0.0
C679 C 0.33843 0.67769 0.44011 0.0
H680 H 0.32349 0.38659 0.52401 0.0
H681 H 0.39517 0.33228 0.6028 0.0
H682 H 0.35397 0.29048 0.62141 0.0
H683 H 0.29848 0.26738 0.60855 0.0
H684 H 0.22717 0.32441 0.5325 0.0
H685 H 0.26722 0.36753 0.52007 0.0
C686 C 0.33004 0.36561 0.54538 0.0
C687 C 0.36228 0.3619 0.56112 0.0
C688 C 0.30629 0.34231 0.55644 0.0
C689 C 0.37043 0.33526 0.5899 0.0
C690 C 0.34693 0.31146 0.60049 0.0
C691 C 0.2916 0.28959 0.59026 0.0
C692 C 0.26016 0.29246 0.5706 0.0
C693 C 0.31488 0.31444 0.58314 0.0
C694 C 0.25146 0.32139 0.54705 0.0
C695 C 0.27431 0.34603 0.53989 0.0
H696 H 0.65749 0.3853 0.50149 0.0
H697 H 0.61037 0.35227 0.6277 0.0
H698 H 0.64904 0.30664 0.63362 0.0
H699 H 0.69242 0.27346 0.59814 0.0
H700 H 0.7432 0.31025 0.47632 0.0
H701 H 0.70634 0.35674 0.47302 0.0
C702 C 0.65608 0.36835 0.53066 0.0
C703 C 0.63107 0.37179 0.56385 0.0
C704 C 0.67854 0.34254 0.53409 0.0
C705 C 0.62956 0.35005 0.60183 0.0
C706 C 0.65149 0.32387 0.60499 0.0
C707 C 0.69615 0.2919 0.57144 0.0
C708 C 0.72025 0.28746 0.53675 0.0
C709 C 0.6756 0.31945 0.57065 0.0
C710 C 0.72415 0.31193 0.50243 0.0
C711 C 0.70329 0.3389 0.50076 0.0
H712 H 0.02713 0.14227 0.1486 0.0
H713 H 0.04789 0.04046 0.17277 0.0
H714 H 0.07874 0.0541 0.24346 0.0
H715 H 0.09727 0.09493 0.30021 0.0
H716 H 0.07481 0.19689 0.27823 0.0
H717 H 0.04726 0.18354 0.20461 0.0
C718 C 0.03888 0.1233 0.16922 0.0
C719 C 0.03654 0.09057 0.15514 0.0
C720 C 0.05592 0.1314 0.21019 0.0
C721 C 0.05103 0.06589 0.18212 0.0
C722 C 0.0681 0.07367 0.22282 0.0
C723 C 0.08629 0.11418 0.27927 0.0
C724 C 0.08779 0.14675 0.29459 0.0
C725 C 0.07043 0.10632 0.23737 0.0
C726 C 0.07405 0.17163 0.26688 0.0
C727 C 0.05818 0.16401 0.225 0.0
H728 H 0.95295 0.05434 0.16834 0.0
H729 H 0.85848 0.03371 0.1091 0.0
H730 H 0.83254 0.07028 0.1661 0.0
H731 H 0.83676 0.10329 0.23812 0.0
H732 H 0.93152 0.12149 0.29875 0.0
H733 H 0.95783 0.09195 0.23467 0.0
C734 C 0.92689 0.05903 0.16686 0.0
C735 C 0.90758 0.04225 0.13436 0.0
C736 C 0.91235 0.07955 0.20001 0.0
C737 C 0.87362 0.04676 0.13398 0.0
C738 C 0.85889 0.0676 0.16643 0.0
C739 C 0.86318 0.10149 0.23637 0.0
C740 C 0.88231 0.1144 0.27271 0.0
C741 C 0.87797 0.08352 0.20033 0.0
C742 C 0.91649 0.11162 0.27089 0.0
C743 C 0.93145 0.0946 0.23454 0.0
H744 H 0.92561 0.93372 0.14286 0.0
H745 H 0.01704 0.91496 0.21312 0.0
H746 H 0.98921 0.91234 0.28795 0.0
H747 H 0.93921 0.91563 0.33391 0.0
H748 H 0.84714 0.93462 0.26542 0.0
H749 H 0.8749 0.93773 0.18958 0.0
C750 C 0.93947 0.92985 0.17457 0.0
C751 C 0.97358 0.92585 0.17233 0.0
C752 C 0.9232 0.92851 0.21792 0.0
C753 C 0.99091 0.91893 0.21375 0.0
C754 C 0.97501 0.91739 0.25671 0.0
C755 C 0.92525 0.92103 0.30253 0.0
C756 C 0.89125 0.92526 0.30536 0.0
C757 C 0.94125 0.92246 0.25927 0.0
C758 C 0.87339 0.93129 0.26413 0.0
C759 C 0.88923 0.93303 0.2208 0.0
H760 H 0.05161 0.97808 0.19419 0.0
H761 H 0.13921 0.95157 0.1202 0.0
H762 H 0.15745 0.91844 0.18709 0.0
H763 H 0.15026 0.90116 0.26918 0.0
H764 H 0.06101 0.92627 0.3413 0.0
H765 H 0.04204 0.95649 0.27319 0.0
C766 C 0.07452 0.96474 0.19281 0.0
C767 C 0.09424 0.96712 0.15298 0.0
C768 C 0.08473 0.94595 0.23124 0.0
C769 C 0.12381 0.94988 0.15091 0.0
C770 C 0.1342 0.93107 0.18908 0.0
C771 C 0.12629 0.91247 0.26963 0.0
C772 C 0.10749 0.91195 0.31086 0.0
C773 C 0.11509 0.92938 0.2298 0.0
C774 C 0.07652 0.92702 0.31066 0.0
C775 C 0.06547 0.94416 0.27155 0.0
H776 H 0.10213 0.98003 0.84293 0.0
H777 H 0.20275 0.99291 0.88461 0.0
H778 H 0.22032 0.956 0.82215 0.0
H779 H 0.20702 0.92184 0.75339 0.0
H780 H 0.10615 0.90962 0.71281 0.0
H781 H 0.08873 0.94448 0.77732 0.0
C782 C 0.12795 0.97487 0.83836 0.0
C783 C 0.15113 0.98946 0.86805 0.0
C784 C 0.1378 0.95369 0.80261 0.0
C785 C 0.18442 0.98209 0.86206 0.0
C786 C 0.19448 0.96098 0.82638 0.0
C787 C 0.18124 0.92644 0.75924 0.0
C788 C 0.15791 0.91339 0.72832 0.0
C789 C 0.17138 0.9468 0.79624 0.0
C790 C 0.12456 0.91973 0.73592 0.0
C791 C 0.11458 0.93964 0.77274 0.0
H792 H 0.05459 0.03279 0.86263 0.0
H793 H 0.95861 0.04678 0.80317 0.0
H794 H 0.98295 0.05948 0.72731 0.0
H795 H 0.03149 0.07261 0.6807 0.0
H796 H 0.12753 0.06124 0.74122 0.0
H797 H 0.10321 0.04205 0.8142 0.0
C798 C 0.03901 0.03805 0.83288 0.0
C799 C 0.00491 0.03914 0.83858 0.0
C800 C 0.05321 0.0463 0.78984 0.0
C801 C 0.98496 0.04609 0.79975 0.0
C802 C -0.00114 0.05343 0.75642 0.0
C803 C 0.04712 0.0652 0.70951 0.0
C804 C 0.08125 0.06846 0.70568 0.0
C805 C 0.03296 0.05453 0.75146 0.0
C806 C 0.10117 0.0593 0.74356 0.0
C807 C 0.08729 0.04815 0.78519 0.0
H808 H 0.89925 0.96895 0.80713 0.0
H809 H 0.89071 0.05926 0.88419 0.0
H810 H 0.87489 0.088 0.81282 0.0
H811 H 0.86488 0.08771 0.72871 0.0
H812 H 0.86823 0.99646 0.65261 0.0
H813 H 0.88534 0.96795 0.72349 0.0
C814 C 0.89384 0.99489 0.80827 0.0
C815 C 0.89629 0.01201 0.85074 0.0
C816 C 0.88406 0.0111 0.76734 0.0
C817 C 0.88894 0.04555 0.8519 0.0
C818 C 0.87997 0.06201 0.81111 0.0
C819 C 0.86861 0.06147 0.72759 0.0
C820 C 0.86531 0.04442 0.68511 0.0
C821 C 0.87749 0.04502 0.76868 0.0
C822 C 0.87114 0.01046 0.68448 0.0
C823 C 0.88071 0.99403 0.72511 0.0
H824 H 0.93375 0.89951 0.88808 0.0
H825 H 0.02162 0.91175 0.80673 0.0
H826 H 0.98967 0.90788 0.73446 0.0
H827 H 0.93687 0.89886 0.69473 0.0
H828 H 0.84889 0.89138 0.77742 0.0
H829 H 0.88094 0.89577 0.84893 0.0
C830 C 0.94599 0.9015 0.85463 0.0
C831 C 0.98004 0.90575 0.85291 0.0
C832 C 0.92744 0.90005 0.81344 0.0
C833 C 0.99542 0.90836 0.80911 0.0
C834 C 0.97715 0.90623 0.76776 0.0
C835 C 0.92458 0.8988 0.7283 0.0
C836 C 0.89049 0.8941 0.73049 0.0
C837 C 0.94313 0.90192 0.76952 0.0
C838 C 0.87515 0.89397 0.77453 0.0
C839 C 0.89343 0.89662 0.81554 0.0
H840 H 0.55105 0.62689 0.62635 0.0
H841 H 0.52443 0.53833 0.69843 0.0
H842 H 0.55592 0.55532 0.76704 0.0
H843 H 0.58977 0.59568 0.80647 0.0
H844 H 0.60971 0.6884 0.73964 0.0
H845 H 0.58287 0.66925 0.66844 0.0
C846 C 0.55228 0.61151 0.65727 0.0
C847 C 0.53593 0.58138 0.6578 0.0
C848 C 0.56937 0.6221 0.69712 0.0
C849 C 0.53707 0.56156 0.69773 0.0
C850 C 0.55506 0.57126 0.73673 0.0
C851 C 0.58788 0.61209 0.77678 0.0
C852 C 0.60153 0.64368 0.77896 0.0
C853 C 0.57105 0.6016 0.7369 0.0
C854 C 0.59983 0.66385 0.73909 0.0
C855 C 0.5842 0.65302 0.69839 0.0
H856 H 0.36807 0.52293 0.63631 0.0
H857 H 0.46819 0.5226 0.68248 0.0
H858 H 0.45371 0.55579 0.75075 0.0
H859 H 0.41169 0.58217 0.79916 0.0
H860 H 0.31109 0.5813 0.75356 0.0
H861 H 0.32647 0.55178 0.68274 0.0
C862 C 0.3866 0.5307 0.66111 0.0
C863 C 0.41911 0.52116 0.65465 0.0
C864 C 0.37793 0.54936 0.70026 0.0
C865 C 0.44315 0.5306 0.68683 0.0
C866 C 0.43481 0.54923 0.72586 0.0
C867 C 0.39319 0.57549 0.77367 0.0
C868 C 0.36034 0.58374 0.78157 0.0
C869 C 0.40217 0.55833 0.73327 0.0
C870 C 0.33661 0.57543 0.748 0.0
C871 C 0.34533 0.5584 0.70767 0.0
H872 H 0.483 0.46342 0.71219 0.0
H873 H 0.4513 0.37474 0.64494 0.0
H874 H 0.41709 0.36134 0.71261 0.0
H875 H 0.40181 0.37195 0.79412 0.0
H876 H 0.43112 0.4625 0.85969 0.0
H877 H 0.4609 0.47811 0.78931 0.0
C878 C 0.46836 0.44135 0.71242 0.0
C879 C 0.46982 0.41976 0.67444 0.0
C880 C 0.44872 0.43404 0.75115 0.0
C881 C 0.45035 0.39158 0.67415 0.0
C882 C 0.431 0.38389 0.71283 0.0
C883 C 0.41391 0.39551 0.79279 0.0
C884 C 0.41479 0.41562 0.83274 0.0
C885 C 0.43069 0.40454 0.75203 0.0
C886 C 0.43086 0.44601 0.83007 0.0
C887 C 0.44778 0.45508 0.78976 0.0
H888 H 0.64273 0.48239 0.68553 0.0
H889 H 0.53814 0.4802 0.70019 0.0
H890 H 0.54305 0.44792 0.77202 0.0
H891 H 0.57732 0.42066 0.83055 0.0
H892 H 0.68227 0.42267 0.81675 0.0
H893 H 0.67726 0.45412 0.74418 0.0
C894 C 0.62119 0.47475 0.70473 0.0
C895 C 0.59008 0.48311 0.688 0.0
C896 C 0.62436 0.45607 0.74576 0.0
C897 C 0.56218 0.47336 0.7126 0.0
C898 C 0.56504 0.45509 0.75356 0.0
C899 C 0.5991 0.42811 0.81175 0.0
C900 C 0.6301 0.41954 0.82903 0.0
C901 C 0.59602 0.44629 0.77043 0.0
C902 C 0.65811 0.42879 0.80388 0.0
C903 C 0.65527 0.44696 0.76262 0.0
H904 H 0.57467 0.43403 0.40083 0.0
H905 H 0.59667 0.52195 0.32367 0.0
H906 H 0.60699 0.48968 0.25346 0.0
H907 H 0.61264 0.43644 0.21553 0.0
H908 H 0.59056 0.34821 0.29232 0.0
H909 H 0.57783 0.38071 0.36171 0.0
C910 C 0.58112 0.44615 0.36845 0.0
C911 C 0.5845 0.48035 0.36731 0.0
C912 C 0.58735 0.42738 0.32844 0.0
C913 C 0.59372 0.49569 0.32538 0.0
C914 C 0.59968 0.47724 0.28527 0.0
C915 C 0.60428 0.42428 0.24706 0.0
C916 C 0.60245 0.38992 0.24868 0.0
C917 C 0.59686 0.44306 0.28657 0.0
C918 C 0.59245 0.37459 0.29028 0.0
C919 C 0.585 0.39316 0.32985 0.0
H920 H 0.55969 0.57139 0.36077 0.0
H921 H 0.46282 0.56433 0.30194 0.0
H922 H 0.48387 0.58068 0.22549 0.0
H923 H 0.52943 0.60015 0.17697 0.0
H924 H 0.62687 0.60316 0.23549 0.0
H925 H 0.6058 0.58527 0.3108 0.0
C926 C 0.54324 0.57279 0.33114 0.0
C927 C 0.50977 0.56665 0.33709 0.0
C928 C 0.55555 0.58183 0.2874 0.0
C929 C 0.4887 0.56903 0.29832 0.0
C930 C 0.50073 0.57839 0.25461 0.0
C931 C 0.54622 0.59625 0.20584 0.0
C932 C 0.57963 0.60356 0.20064 0.0
C933 C 0.53408 0.58525 0.24893 0.0
C934 C 0.60089 0.59865 0.23875 0.0
C935 C 0.58894 0.58816 0.28179 0.0
H936 H 0.40198 0.53904 0.37263 0.0
H937 H 0.40139 0.44191 0.31349 0.0
H938 H 0.39184 0.46489 0.23568 0.0
H939 H 0.3815 0.51251 0.18513 0.0
H940 H 0.38331 0.6095 0.24459 0.0
H941 H 0.39454 0.58653 0.32178 0.0
C942 C 0.4 0.52286 0.34272 0.0
C943 C 0.40229 0.48884 0.34888 0.0
C944 C 0.39457 0.5362 0.29821 0.0
C945 C 0.39952 0.46822 0.30974 0.0
C946 C 0.39412 0.48133 0.26523 0.0
C947 C 0.38488 0.52864 0.21483 0.0
C948 C 0.38134 0.56265 0.20918 0.0
C949 C 0.39139 0.51528 0.25913 0.0
C950 C 0.38538 0.58321 0.24816 0.0
C951 C 0.39187 0.57011 0.29227 0.0
H952 H 0.51639 0.38008 0.35612 0.0
H953 H 0.4329 0.37469 0.44765 0.0
H954 H 0.39821 0.35889 0.38178 0.0
H955 H 0.39128 0.34972 0.29726 0.0
H956 H 0.47619 0.35082 0.20761 0.0
H957 H 0.51068 0.36529 0.27386 0.0
C958 C 0.49067 0.37523 0.36182 0.0
C959 C 0.47708 0.37939 0.40651 0.0
C960 C 0.47111 0.36556 0.32407 0.0
C961 C 0.4438 0.37244 0.41337 0.0
C962 C 0.42399 0.36326 0.37575 0.0
C963 C 0.41739 0.3525 0.29229 0.0
C964 C 0.43092 0.34976 0.24723 0.0
C965 C 0.43731 0.36022 0.33077 0.0
C966 C 0.46487 0.35369 0.24158 0.0
C967 C 0.48472 0.36173 0.27951 0.0
loop_
_geom_bond_atom_site_label_1
_geom_bond_atom_site_label_2
_geom_bond_distance
_geom_bond_site_symmetry_2
_ccdc_geom_bond_type
Zn0 O2 1.933 1_556 S
Zn0 O20 1.985 . S
Zn0 O31 1.955 . S
Zn1 O2 1.911 . S
Zn1 O21 1.970 . S
Zn1 O37 1.945 . S
Zn1 O44 1.981 . S
O2 Zn0 1.933 1_554 S
O2 Zn1 1.911 . S
O2 H3 0.841 1_655 S
H3 O2 0.841 1_455 S
C4 O5 1.246 . S
C4 O33 1.276 1_545 S
O5 C4 1.246 . S
Zn6 O8 1.911 . S
Zn6 O23 1.970 . S
Zn6 O40 1.945 . S
Zn6 O47 1.981 . S
Zn7 O8 1.933 1_556 S
Zn7 O22 1.985 . S
Zn7 O29 1.955 . S
O8 Zn6 1.911 . S
O8 Zn7 1.933 1_554 S
O8 H9 0.841 1_455 S
H9 O8 0.841 1_655 S
Zn10 O11 1.933 1_556 S
Zn10 O24 1.985 . S
Zn10 O33 1.955 . S
O11 Zn10 1.933 1_554 S
O11 Zn12 1.911 . S
O11 H13 0.841 1_565 S
Zn12 O11 1.911 . S
Zn12 O25 1.970 . S
Zn12 O41 1.981 . S
Zn12 O43 1.945 . S
H13 O11 0.841 1_545 S
Zn14 O15 1.933 1_556 S
Zn14 O27 1.985 . S
Zn14 O35 1.955 . S
O15 Zn14 1.933 1_554 S
O15 H16 0.841 1_545 S
O15 Zn17 1.911 . S
H16 O15 0.841 1_565 S
Zn17 O15 1.911 . S
Zn17 O28 1.970 . S
Zn17 O38 1.981 . S
Zn17 O46 1.945 . S
C18 O19 1.246 . S
C18 O35 1.276 1_565 S
O19 C18 1.246 . S
O20 Zn0 1.985 . S
O20 C30 1.245 1_556 S
O21 Zn1 1.970 . S
O21 C30 1.263 . S
O22 Zn7 1.985 . S
O22 C34 1.245 1_556 S
O23 Zn6 1.970 . S
O23 C34 1.263 . S
O24 Zn10 1.985 . S
O24 C39 1.245 1_556 S
O25 Zn12 1.970 . S
O25 C39 1.263 . S
C26 O37 1.262 1_455 S
C26 O38 1.245 . S
O27 Zn14 1.985 . S
O27 C45 1.245 1_556 S
O28 Zn17 1.970 . S
O28 C45 1.263 . S
O29 Zn7 1.955 . S
O29 C48 1.276 1_455 S
C30 O20 1.245 1_554 S
C30 O21 1.263 . S
O31 Zn0 1.955 . S
O31 C50 1.276 1_655 S
C32 O40 1.262 1_655 S
C32 O41 1.245 . S
O33 C4 1.276 1_565 S
O33 Zn10 1.955 . S
C34 O22 1.245 1_554 S
C34 O23 1.263 . S
O35 Zn14 1.955 . S
O35 C18 1.276 1_545 S
C36 O43 1.262 1_545 S
C36 O44 1.245 . S
O37 Zn1 1.945 . S
O37 C26 1.262 1_655 S
O38 Zn17 1.981 . S
O38 C26 1.245 . S
C39 O24 1.245 1_554 S
C39 O25 1.263 . S
O40 Zn6 1.945 . S
O40 C32 1.262 1_455 S
O41 Zn12 1.981 . S
O41 C32 1.245 . S
C42 O46 1.262 1_565 S
C42 O47 1.245 . S
O43 Zn12 1.945 . S
O43 C36 1.262 1_565 S
O44 Zn1 1.981 . S
O44 C36 1.245 . S
C45 O27 1.245 1_554 S
C45 O28 1.263 . S
O46 Zn17 1.945 . S
O46 C42 1.262 1_545 S
O47 Zn6 1.981 . S
O47 C42 1.245 . S
C48 O29 1.276 1_655 S
C48 O49 1.246 . S
O49 C48 1.246 . S
C50 O31 1.276 1_455 S
C50 O51 1.246 . S
O51 C50 1.246 . S
Zn52 O54 1.933 . S
Zn52 O72 1.985 . S
Zn52 O83 1.955 . S
Zn53 O54 1.911 . S
Zn53 O73 1.970 . S
Zn53 O89 1.945 . S
Zn53 O96 1.981 . S
O54 Zn52 1.933 . S
O54 Zn53 1.911 . S
O54 H55 0.841 . S
H55 O54 0.841 . S
C56 O57 1.246 . S
C56 O85 1.276 . S
O57 C56 1.246 . S
Zn58 O60 1.911 . S
Zn58 O75 1.970 . S
Zn58 O92 1.945 . S
Zn58 O99 1.981 . S
Zn59 O60 1.933 . S
Zn59 O74 1.985 . S
Zn59 O81 1.955 . S
O60 Zn58 1.911 . S
O60 Zn59 1.933 . S
O60 H61 0.841 . S
H61 O60 0.841 . S
Zn62 O63 1.933 . S
Zn62 O76 1.985 . S
Zn62 O85 1.955 . S
O63 Zn62 1.933 . S
O63 Zn64 1.911 . S
O63 H65 0.841 . S
Zn64 O63 1.911 . S
Zn64 O77 1.970 . S
Zn64 O93 1.981 . S
Zn64 O95 1.945 . S
H65 O63 0.841 . S
Zn66 O67 1.933 . S
Zn66 O79 1.985 . S
Zn66 O87 1.955 . S
O67 Zn66 1.933 . S
O67 H68 0.841 . S
O67 Zn69 1.911 . S
H68 O67 0.841 . S
Zn69 O67 1.911 . S
Zn69 O80 1.970 . S
Zn69 O90 1.981 . S
Zn69 O98 1.945 . S
C70 O71 1.246 . S
C70 O87 1.276 . S
O71 C70 1.246 . S
O72 Zn52 1.985 . S
O72 C82 1.245 . S
O73 Zn53 1.970 . S
O73 C82 1.263 . S
O74 Zn59 1.985 . S
O74 C86 1.245 . S
O75 Zn58 1.970 . S
O75 C86 1.263 . S
O76 Zn62 1.985 . S
O76 C91 1.245 . S
O77 Zn64 1.970 . S
O77 C91 1.263 . S
C78 O89 1.262 . S
C78 O90 1.245 . S
O79 Zn66 1.985 . S
O79 C97 1.245 . S
O80 Zn69 1.970 . S
O80 C97 1.263 . S
O81 Zn59 1.955 . S
O81 C100 1.276 . S
C82 O72 1.245 . S
C82 O73 1.263 . S
O83 Zn52 1.955 . S
O83 C102 1.276 . S
C84 O92 1.262 . S
C84 O93 1.245 . S
O85 C56 1.276 . S
O85 Zn62 1.955 . S
C86 O74 1.245 . S
C86 O75 1.263 . S
O87 Zn66 1.955 . S
O87 C70 1.276 . S
C88 O95 1.262 . S
C88 O96 1.245 . S
O89 Zn53 1.945 . S
O89 C78 1.262 . S
O90 Zn69 1.981 . S
O90 C78 1.245 . S
C91 O76 1.245 . S
C91 O77 1.263 . S
O92 Zn58 1.945 . S
O92 C84 1.262 . S
O93 Zn64 1.981 . S
O93 C84 1.245 . S
C94 O98 1.262 . S
C94 O99 1.245 . S
O95 Zn64 1.945 . S
O95 C88 1.262 . S
O96 Zn53 1.981 . S
O96 C88 1.245 . S
C97 O79 1.245 . S
C97 O80 1.263 . S
O98 Zn69 1.945 . S
O98 C94 1.262 . S
O99 Zn58 1.981 . S
O99 C94 1.245 . S
C100 O81 1.276 . S
C100 O101 1.246 . S
O101 C100 1.246 . S
C102 O83 1.276 . S
C102 O103 1.246 . S
O103 C102 1.246 . S
C104 C105 1.391 . S
C104 C108 1.391 . S
C104 H146 0.948 . S
C105 C104 1.391 . S
C105 C106 1.391 . S
C106 C105 1.391 . S
C106 H162 0.947 . S
C106 C163 1.392 . S
C107 C108 1.391 . S
C107 C111 1.397 . S
C107 C163 1.419 . S
C108 C104 1.391 . S
C108 C107 1.391 . S
C108 C109 1.399 . S
C109 C108 1.399 . S
C109 C112 1.396 . S
C109 C121 1.453 . S
C109 C122 1.684 . S
H110 C134 0.948 . S
C111 C107 1.397 . S
C111 C112 1.394 . S
C111 C130 1.723 1_556 S
C112 C109 1.396 . S
C112 C111 1.394 . S
C112 C142 1.723 1_556 S
H113 C136 0.947 . S
H114 C137 0.948 . S
H115 C143 0.982 . S
H116 C144 0.979 . S
H117 C144 0.980 . S
H118 C144 0.983 . S
H119 C143 0.979 . S
H120 C143 0.977 . S
C121 C109 1.453 . S
C121 H150 0.982 . S
C121 H151 0.979 . S
C121 H152 0.977 . S
C122 C109 1.684 . S
C122 H147 0.979 . S
C122 H148 0.980 . S
C122 H149 0.983 . S
C123 C124 1.391 . S
C123 C128 1.391 . S
C123 H153 0.948 . S
C124 C123 1.391 . S
C124 C125 1.391 . S
C125 C124 1.391 . S
C125 C126 1.392 . S
C125 H154 0.947 . S
C126 C125 1.392 . S
C126 C127 1.419 . S
C126 H155 0.948 . S
C127 C126 1.419 . S
C127 C128 1.391 . S
C127 C131 1.397 . S
C128 C123 1.391 . S
C128 C127 1.391 . S
C128 C129 1.399 . S
C129 C128 1.399 . S
C129 C130 1.396 . S
C129 C132 1.453 . S
C129 C133 1.684 . S
C130 C111 1.723 1_554 S
C130 C129 1.396 . S
C130 C131 1.394 . S
C131 C127 1.397 . S
C131 C130 1.394 . S
C131 C141 1.723 . S
C132 C129 1.453 . S
C132 H156 0.982 . S
C132 H157 0.979 . S
C132 H158 0.977 . S
C133 C129 1.684 . S
C133 H159 0.979 . S
C133 H160 0.980 . S
C133 H161 0.983 . S
C134 H110 0.948 . S
C134 C135 1.391 . S
C134 C139 1.391 . S
C135 C134 1.391 . S
C135 C136 1.391 1_554 S
C136 H113 0.947 . S
C136 C135 1.391 1_556 S
C136 C137 1.392 . S
C137 H114 0.948 . S
C137 C136 1.392 . S
C137 C138 1.419 1_556 S
C138 C137 1.419 1_554 S
C138 C139 1.391 . S
C138 C142 1.397 . S
C139 C134 1.391 . S
C139 C138 1.391 . S
C139 C140 1.399 . S
C140 C139 1.399 . S
C140 C141 1.396 . S
C140 C143 1.453 . S
C140 C144 1.684 . S
C141 C131 1.723 . S
C141 C140 1.396 . S
C141 C142 1.394 . S
C142 C112 1.723 1_554 S
C142 C138 1.397 . S
C142 C141 1.394 . S
C143 H115 0.982 . S
C143 H119 0.979 . S
C143 H120 0.977 . S
C143 C140 1.453 . S
C144 H116 0.979 . S
C144 H117 0.980 . S
C144 H118 0.983 . S
C144 C140 1.684 . S
H145 C163 0.948 . S
H146 C104 0.948 . S
H147 C122 0.979 . S
H148 C122 0.980 . S
H149 C122 0.983 . S
H150 C121 0.982 . S
H151 C121 0.979 . S
H152 C121 0.977 . S
H153 C123 0.948 . S
H154 C125 0.947 . S
H155 C126 0.948 . S
H156 C132 0.982 . S
H157 C132 0.979 . S
H158 C132 0.977 . S
H159 C133 0.979 . S
H160 C133 0.980 . S
H161 C133 0.983 . S
H162 C106 0.947 . S
C163 C106 1.392 . S
C163 C107 1.419 . S
C163 H145 0.948 . S
C164 C165 1.391 . S
C164 C168 1.391 . S
C164 H206 0.948 . S
C165 C164 1.391 . S
C165 C166 1.391 . S
C166 C165 1.391 . S
C166 H222 0.947 . S
C166 C223 1.392 . S
C167 C168 1.391 . S
C167 C171 1.397 . S
C167 C223 1.419 . S
C168 C164 1.391 . S
C168 C167 1.391 . S
C168 C169 1.399 . S
C169 C168 1.399 . S
C169 C172 1.396 . S
C169 C181 1.453 . S
C169 C182 1.684 . S
H170 C194 0.948 . S
C171 C167 1.397 . S
C171 C172 1.394 . S
C171 C190 1.723 1_556 S
C172 C169 1.396 . S
C172 C171 1.394 . S
C172 C202 1.723 1_556 S
H173 C196 0.947 . S
H174 C197 0.948 . S
H175 C203 0.982 . S
H176 C204 0.979 . S
H177 C204 0.980 . S
H178 C204 0.983 . S
H179 C203 0.979 . S
H180 C203 0.977 . S
C181 C169 1.453 . S
C181 H210 0.982 . S
C181 H211 0.979 . S
C181 H212 0.977 . S
C182 C169 1.684 . S
C182 H207 0.979 . S
C182 H208 0.980 . S
C182 H209 0.983 . S
C183 C184 1.391 . S
C183 C188 1.391 . S
C183 H213 0.948 . S
C184 C183 1.391 . S
C184 C185 1.391 . S
C185 C184 1.391 . S
C185 C186 1.392 . S
C185 H214 0.947 . S
C186 C185 1.392 . S
C186 C187 1.419 . S
C186 H215 0.948 . S
C187 C186 1.419 . S
C187 C188 1.391 . S
C187 C191 1.397 . S
C188 C183 1.391 . S
C188 C187 1.391 . S
C188 C189 1.399 . S
C189 C188 1.399 . S
C189 C190 1.396 . S
C189 C192 1.453 . S
C189 C193 1.684 . S
C190 C171 1.723 1_554 S
C190 C189 1.396 . S
C190 C191 1.394 . S
C191 C187 1.397 . S
C191 C190 1.394 . S
C191 C201 1.723 . S
C192 C189 1.453 . S
C192 H216 0.982 . S
C192 H217 0.979 . S
C192 H218 0.977 . S
C193 C189 1.684 . S
C193 H219 0.979 . S
C193 H220 0.980 . S
C193 H221 0.983 . S
C194 H170 0.948 . S
C194 C195 1.391 . S
C194 C199 1.391 . S
C195 C194 1.391 . S
C195 C196 1.391 1_554 S
C196 H173 0.947 . S
C196 C195 1.391 1_556 S
C196 C197 1.392 . S
C197 H174 0.948 . S
C197 C196 1.392 . S
C197 C198 1.419 1_556 S
C198 C197 1.419 1_554 S
C198 C199 1.391 . S
C198 C202 1.397 . S
C199 C194 1.391 . S
C199 C198 1.391 . S
C199 C200 1.399 . S
C200 C199 1.399 . S
C200 C201 1.396 . S
C200 C203 1.453 . S
C200 C204 1.684 . S
C201 C191 1.723 . S
C201 C200 1.396 . S
C201 C202 1.394 . S
C202 C172 1.723 1_554 S
C202 C198 1.397 . S
C202 C201 1.394 . S
C203 H175 0.982 . S
C203 H179 0.979 . S
C203 H180 0.977 . S
C203 C200 1.453 . S
C204 H176 0.979 . S
C204 H177 0.980 . S
C204 H178 0.983 . S
C204 C200 1.684 . S
H205 C223 0.948 . S
H206 C164 0.948 . S
H207 C182 0.979 . S
H208 C182 0.980 . S
H209 C182 0.983 . S
H210 C181 0.982 . S
H211 C181 0.979 . S
H212 C181 0.977 . S
H213 C183 0.948 . S
H214 C185 0.947 . S
H215 C186 0.948 . S
H216 C192 0.982 . S
H217 C192 0.979 . S
H218 C192 0.977 . S
H219 C193 0.979 . S
H220 C193 0.980 . S
H221 C193 0.983 . S
H222 C166 0.947 . S
C223 C166 1.392 . S
C223 C167 1.419 . S
C223 H205 0.948 . S
C224 C225 1.391 . S
C224 C228 1.391 . S
C224 H266 0.948 . S
C225 C224 1.391 . S
C225 C226 1.391 . S
C226 C225 1.391 . S
C226 H282 0.947 . S
C226 C283 1.392 . S
C227 C228 1.391 . S
C227 C231 1.397 . S
C227 C283 1.419 . S
C228 C224 1.391 . S
C228 C227 1.391 . S
C228 C229 1.399 . S
C229 C228 1.399 . S
C229 C232 1.396 . S
C229 C241 1.453 . S
C229 C242 1.684 . S
H230 C254 0.948 . S
C231 C227 1.397 . S
C231 C232 1.394 . S
C231 C250 1.723 . S
C232 C229 1.396 . S
C232 C231 1.394 . S
C232 C262 1.723 . S
H233 C256 0.947 . S
H234 C257 0.948 . S
H235 C263 0.982 . S
H236 C264 0.979 . S
H237 C264 0.980 . S
H238 C264 0.983 . S
H239 C263 0.979 . S
H240 C263 0.977 . S
C241 C229 1.453 . S
C241 H270 0.982 . S
C241 H271 0.979 . S
C241 H272 0.977 . S
C242 C229 1.684 . S
C242 H267 0.979 . S
C242 H268 0.980 . S
C242 H269 0.983 . S
C243 C244 1.391 . S
C243 C248 1.391 . S
C243 H273 0.948 . S
C244 C243 1.391 . S
C244 C245 1.391 . S
C245 C244 1.391 . S
C245 C246 1.392 . S
C245 H274 0.947 . S
C246 C245 1.392 . S
C246 C247 1.419 . S
C246 H275 0.948 . S
C247 C246 1.419 . S
C247 C248 1.391 . S
C247 C251 1.397 . S
C248 C243 1.391 . S
C248 C247 1.391 . S
C248 C249 1.399 . S
C249 C248 1.399 . S
C249 C250 1.396 1_556 S
C249 C252 1.453 . S
C249 C253 1.684 . S
C250 C231 1.723 . S
C250 C249 1.396 1_554 S
C250 C251 1.394 1_554 S
C251 C247 1.397 . S
C251 C250 1.394 1_556 S
C251 C261 1.723 . S
C252 C249 1.453 . S
C252 H276 0.982 . S
C252 H277 0.979 . S
C252 H278 0.977 1_556 S
C253 C249 1.684 . S
C253 H279 0.979 . S
C253 H280 0.980 1_556 S
C253 H281 0.983 . S
C254 H230 0.948 . S
C254 C255 1.391 1_556 S
C254 C259 1.391 . S
C255 C254 1.391 1_554 S
C255 C256 1.391 . S
C256 H233 0.947 . S
C256 C255 1.391 . S
C256 C257 1.392 . S
C257 H234 0.948 . S
C257 C256 1.392 . S
C257 C258 1.419 . S
C258 C257 1.419 . S
C258 C259 1.391 1_554 S
C258 C262 1.397 . S
C259 C254 1.391 . S
C259 C258 1.391 1_556 S
C259 C260 1.399 . S
C260 C259 1.399 . S
C260 C261 1.396 . S
C260 C263 1.453 . S
C260 C264 1.684 . S
C261 C251 1.723 . S
C261 C260 1.396 . S
C261 C262 1.394 1_556 S
C262 C232 1.723 . S
C262 C258 1.397 . S
C262 C261 1.394 1_554 S
C263 H235 0.982 . S
C263 H239 0.979 . S
C263 H240 0.977 . S
C263 C260 1.453 . S
C264 H236 0.979 . S
C264 H237 0.980 . S
C264 H238 0.983 . S
C264 C260 1.684 . S
H265 C283 0.948 . S
H266 C224 0.948 . S
H267 C242 0.979 . S
H268 C242 0.980 . S
H269 C242 0.983 . S
H270 C241 0.982 . S
H271 C241 0.979 . S
H272 C241 0.977 . S
H273 C243 0.948 . S
H274 C245 0.947 . S
H275 C246 0.948 . S
H276 C252 0.982 . S
H277 C252 0.979 . S
H278 C252 0.977 1_554 S
H279 C253 0.979 . S
H280 C253 0.980 1_554 S
H281 C253 0.983 . S
H282 C226 0.947 . S
C283 C226 1.392 . S
C283 C227 1.419 . S
C283 H265 0.948 . S
C284 C285 1.391 . S
C284 C288 1.391 . S
C284 H326 0.948 . S
C285 C284 1.391 . S
C285 C286 1.391 . S
C286 C285 1.391 . S
C286 H342 0.947 . S
C286 C343 1.392 . S
C287 C288 1.391 . S
C287 C291 1.397 . S
C287 C343 1.419 . S
C288 C284 1.391 . S
C288 C287 1.391 . S
C288 C289 1.399 . S
C289 C288 1.399 . S
C289 C292 1.396 . S
C289 C301 1.453 . S
C289 C302 1.684 . S
H290 C314 0.948 . S
C291 C287 1.397 . S
C291 C292 1.394 . S
C291 C310 1.723 . S
C292 C289 1.396 . S
C292 C291 1.394 . S
C292 C322 1.723 . S
H293 C316 0.947 . S
H294 C317 0.948 . S
H295 C323 0.982 . S
H296 C324 0.979 . S
H297 C324 0.980 . S
H298 C324 0.983 . S
H299 C323 0.979 . S
H300 C323 0.977 . S
C301 C289 1.453 . S
C301 H330 0.982 . S
C301 H331 0.979 . S
C301 H332 0.977 . S
C302 C289 1.684 . S
C302 H327 0.979 . S
C302 H328 0.980 . S
C302 H329 0.983 . S
C303 C304 1.391 . S
C303 C308 1.391 . S
C303 H333 0.948 . S
C304 C303 1.391 . S
C304 C305 1.391 . S
C305 C304 1.391 . S
C305 C306 1.392 . S
C305 H334 0.947 . S
C306 C305 1.392 . S
C306 C307 1.419 . S
C306 H335 0.948 . S
C307 C306 1.419 . S
C307 C308 1.391 . S
C307 C311 1.397 . S
C308 C303 1.391 . S
C308 C307 1.391 . S
C308 C309 1.399 . S
C309 C308 1.399 . S
C309 C310 1.396 1_556 S
C309 C312 1.453 . S
C309 C313 1.684 . S
C310 C291 1.723 . S
C310 C309 1.396 1_554 S
C310 C311 1.394 1_554 S
C311 C307 1.397 . S
C311 C310 1.394 1_556 S
C311 C321 1.723 . S
C312 C309 1.453 . S
C312 H336 0.982 . S
C312 H337 0.979 . S
C312 H338 0.977 1_556 S
C313 C309 1.684 . S
C313 H339 0.979 . S
C313 H340 0.980 1_556 S
C313 H341 0.983 . S
C314 H290 0.948 . S
C314 C315 1.391 1_556 S
C314 C319 1.391 . S
C315 C314 1.391 1_554 S
C315 C316 1.391 . S
C316 H293 0.947 . S
C316 C315 1.391 . S
C316 C317 1.392 . S
C317 H294 0.948 . S
C317 C316 1.392 . S
C317 C318 1.419 . S
C318 C317 1.419 . S
C318 C319 1.391 1_554 S
C318 C322 1.397 . S
C319 C314 1.391 . S
C319 C318 1.391 1_556 S
C319 C320 1.399 . S
C320 C319 1.399 . S
C320 C321 1.396 . S
C320 C323 1.453 . S
C320 C324 1.684 . S
C321 C311 1.723 . S
C321 C320 1.396 . S
C321 C322 1.394 1_556 S
C322 C292 1.723 . S
C322 C318 1.397 . S
C322 C321 1.394 1_554 S
C323 H295 0.982 . S
C323 H299 0.979 . S
C323 H300 0.977 . S
C323 C320 1.453 . S
C324 H296 0.979 . S
C324 H297 0.980 . S
C324 H298 0.983 . S
C324 C320 1.684 . S
H325 C343 0.948 . S
H326 C284 0.948 . S
H327 C302 0.979 . S
H328 C302 0.980 . S
H329 C302 0.983 . S
H330 C301 0.982 . S
H331 C301 0.979 . S
H332 C301 0.977 . S
H333 C303 0.948 . S
H334 C305 0.947 . S
H335 C306 0.948 . S
H336 C312 0.982 . S
H337 C312 0.979 . S
H338 C312 0.977 1_554 S
H339 C313 0.979 . S
H340 C313 0.980 1_554 S
H341 C313 0.983 . S
H342 C286 0.947 . S
C343 C286 1.392 . S
C343 C287 1.419 . S
C343 H325 0.948 . S
C344 C345 1.391 . S
C344 C348 1.391 . S
C344 H386 0.948 . S
C345 C344 1.391 . S
C345 C346 1.391 . S
C346 C345 1.391 . S
C346 H402 0.947 . S
C346 C403 1.392 . S
C347 C348 1.391 . S
C347 C351 1.397 . S
C347 C403 1.419 . S
C348 C344 1.391 . S
C348 C347 1.391 . S
C348 C349 1.399 . S
C349 C348 1.399 . S
C349 C352 1.396 . S
C349 C361 1.453 . S
C349 C362 1.684 . S
H350 C374 0.948 . S
C351 C347 1.397 . S
C351 C352 1.394 . S
C351 C370 1.723 . S
C352 C349 1.396 . S
C352 C351 1.394 . S
C352 C382 1.723 . S
H353 C376 0.947 . S
H354 C377 0.948 . S
H355 C383 0.982 . S
H356 C384 0.979 . S
H357 C384 0.980 . S
H358 C384 0.983 . S
H359 C383 0.979 . S
H360 C383 0.977 . S
C361 C349 1.453 . S
C361 H390 0.982 . S
C361 H391 0.979 . S
C361 H392 0.977 . S
C362 C349 1.684 . S
C362 H387 0.979 . S
C362 H388 0.980 . S
C362 H389 0.983 . S
C363 C364 1.391 . S
C363 C368 1.391 . S
C363 H393 0.948 . S
C364 C363 1.391 . S
C364 C365 1.391 . S
C365 C364 1.391 . S
C365 C366 1.392 . S
C365 H394 0.947 . S
C366 C365 1.392 . S
C366 C367 1.419 . S
C366 H395 0.948 . S
C367 C366 1.419 . S
C367 C368 1.391 . S
C367 C371 1.397 . S
C368 C363 1.391 . S
C368 C367 1.391 . S
C368 C369 1.399 . S
C369 C368 1.399 . S
C369 C370 1.396 . S
C369 C372 1.453 . S
C369 C373 1.684 . S
C370 C351 1.723 . S
C370 C369 1.396 . S
C370 C371 1.394 . S
C371 C367 1.397 . S
C371 C370 1.394 . S
C371 C381 1.723 . S
C372 C369 1.453 . S
C372 H396 0.982 . S
C372 H397 0.979 . S
C372 H398 0.977 . S
C373 C369 1.684 . S
C373 H399 0.979 . S
C373 H400 0.980 . S
C373 H401 0.983 . S
C374 H350 0.948 . S
C374 C375 1.391 . S
C374 C379 1.391 . S
C375 C374 1.391 . S
C375 C376 1.391 . S
C376 H353 0.947 . S
C376 C375 1.391 . S
C376 C377 1.392 . S
C377 H354 0.948 . S
C377 C376 1.392 . S
C377 C378 1.419 . S
C378 C377 1.419 . S
C378 C379 1.391 . S
C378 C382 1.397 . S
C379 C374 1.391 . S
C379 C378 1.391 . S
C379 C380 1.399 . S
C380 C379 1.399 . S
C380 C381 1.396 . S
C380 C383 1.453 . S
C380 C384 1.684 . S
C381 C371 1.723 . S
C381 C380 1.396 . S
C381 C382 1.394 . S
C382 C352 1.723 . S
C382 C378 1.397 . S
C382 C381 1.394 . S
C383 H355 0.982 . S
C383 H359 0.979 . S
C383 H360 0.977 . S
C383 C380 1.453 . S
C384 H356 0.979 . S
C384 H357 0.980 . S
C384 H358 0.983 . S
C384 C380 1.684 . S
H385 C403 0.948 . S
H386 C344 0.948 . S
H387 C362 0.979 . S
H388 C362 0.980 . S
H389 C362 0.983 . S
H390 C361 0.982 . S
H391 C361 0.979 . S
H392 C361 0.977 . S
H393 C363 0.948 . S
H394 C365 0.947 . S
H395 C366 0.948 . S
H396 C372 0.982 . S
H397 C372 0.979 . S
H398 C372 0.977 . S
H399 C373 0.979 . S
H400 C373 0.980 . S
H401 C373 0.983 . S
H402 C346 0.947 . S
C403 C346 1.392 . S
C403 C347 1.419 . S
C403 H385 0.948 . S
C404 C405 1.391 . S
C404 C408 1.391 . S
C404 H446 0.948 . S
C405 C404 1.391 . S
C405 C406 1.391 . S
C406 C405 1.391 . S
C406 H462 0.947 . S
C406 C463 1.392 . S
C407 C408 1.391 . S
C407 C411 1.397 . S
C407 C463 1.419 . S
C408 C404 1.391 . S
C408 C407 1.391 . S
C408 C409 1.399 . S
C409 C408 1.399 . S
C409 C412 1.396 . S
C409 C421 1.453 . S
C409 C422 1.684 . S
H410 C434 0.948 . S
C411 C407 1.397 . S
C411 C412 1.394 . S
C411 C430 1.723 . S
C412 C409 1.396 . S
C412 C411 1.394 . S
C412 C442 1.723 . S
H413 C436 0.947 . S
H414 C437 0.948 . S
H415 C443 0.982 . S
H416 C444 0.979 . S
H417 C444 0.980 . S
H418 C444 0.983 . S
H419 C443 0.979 . S
H420 C443 0.977 . S
C421 C409 1.453 . S
C421 H450 0.982 . S
C421 H451 0.979 . S
C421 H452 0.977 . S
C422 C409 1.684 . S
C422 H447 0.979 . S
C422 H448 0.980 . S
C422 H449 0.983 . S
C423 C424 1.391 . S
C423 C428 1.391 . S
C423 H453 0.948 . S
C424 C423 1.391 . S
C424 C425 1.391 . S
C425 C424 1.391 . S
C425 C426 1.392 . S
C425 H454 0.947 . S
C426 C425 1.392 . S
C426 C427 1.419 . S
C426 H455 0.948 . S
C427 C426 1.419 . S
C427 C428 1.391 . S
C427 C431 1.397 . S
C428 C423 1.391 . S
C428 C427 1.391 . S
C428 C429 1.399 . S
C429 C428 1.399 . S
C429 C430 1.396 . S
C429 C432 1.453 . S
C429 C433 1.684 . S
C430 C411 1.723 . S
C430 C429 1.396 . S
C430 C431 1.394 . S
C431 C427 1.397 . S
C431 C430 1.394 . S
C431 C441 1.723 . S
C432 C429 1.453 . S
C432 H456 0.982 . S
C432 H457 0.979 . S
C432 H458 0.977 . S
C433 C429 1.684 . S
C433 H459 0.979 . S
C433 H460 0.980 . S
C433 H461 0.983 . S
C434 H410 0.948 . S
C434 C435 1.391 . S
C434 C439 1.391 . S
C435 C434 1.391 . S
C435 C436 1.391 . S
C436 H413 0.947 . S
C436 C435 1.391 . S
C436 C437 1.392 . S
C437 H414 0.948 . S
C437 C436 1.392 . S
C437 C438 1.419 . S
C438 C437 1.419 . S
C438 C439 1.391 . S
C438 C442 1.397 . S
C439 C434 1.391 . S
C439 C438 1.391 . S
C439 C440 1.399 . S
C440 C439 1.399 . S
C440 C441 1.396 . S
C440 C443 1.453 . S
C440 C444 1.684 . S
C441 C431 1.723 . S
C441 C440 1.396 . S
C441 C442 1.394 . S
C442 C412 1.723 . S
C442 C438 1.397 . S
C442 C441 1.394 . S
C443 H415 0.982 . S
C443 H419 0.979 . S
C443 H420 0.977 . S
C443 C440 1.453 . S
C444 H416 0.979 . S
C444 H417 0.980 . S
C444 H418 0.983 . S
C444 C440 1.684 . S
H445 C463 0.948 . S
H446 C404 0.948 . S
H447 C422 0.979 . S
H448 C422 0.980 . S
H449 C422 0.983 . S
H450 C421 0.982 . S
H451 C421 0.979 . S
H452 C421 0.977 . S
H453 C423 0.948 . S
H454 C425 0.947 . S
H455 C426 0.948 . S
H456 C432 0.982 . S
H457 C432 0.979 . S
H458 C432 0.977 . S
H459 C433 0.979 . S
H460 C433 0.980 . S
H461 C433 0.983 . S
H462 C406 0.947 . S
C463 C406 1.392 . S
C463 C407 1.419 . S
C463 H445 0.948 . S
C464 C465 1.391 . S
C464 C468 1.391 . S
C464 H506 0.948 . S
C465 C464 1.391 . S
C465 C466 1.391 . S
C466 C465 1.391 . S
C466 H522 0.947 . S
C466 C523 1.392 . S
C467 C468 1.391 . S
C467 C471 1.397 . S
C467 C523 1.419 . S
C468 C464 1.391 . S
C468 C467 1.391 . S
C468 C469 1.399 . S
C469 C468 1.399 . S
C469 C472 1.396 . S
C469 C481 1.453 . S
C469 C482 1.684 . S
H470 C494 0.948 . S
C471 C467 1.397 . S
C471 C472 1.394 . S
C471 C490 1.723 . S
C472 C469 1.396 . S
C472 C471 1.394 . S
C472 C502 1.723 . S
H473 C496 0.947 . S
H474 C497 0.948 . S
H475 C503 0.982 . S
H476 C504 0.979 . S
H477 C504 0.980 . S
H478 C504 0.983 . S
H479 C503 0.979 . S
H480 C503 0.977 . S
C481 C469 1.453 . S
C481 H510 0.982 . S
C481 H511 0.979 . S
C481 H512 0.977 . S
C482 C469 1.684 . S
C482 H507 0.979 . S
C482 H508 0.980 . S
C482 H509 0.983 . S
C483 C484 1.391 . S
C483 C488 1.391 . S
C483 H513 0.948 . S
C484 C483 1.391 . S
C484 C485 1.391 . S
C485 C484 1.391 . S
C485 C486 1.392 . S
C485 H514 0.947 . S
C486 C485 1.392 . S
C486 C487 1.419 . S
C486 H515 0.948 . S
C487 C486 1.419 . S
C487 C488 1.391 . S
C487 C491 1.397 . S
C488 C483 1.391 . S
C488 C487 1.391 . S
C488 C489 1.399 . S
C489 C488 1.399 . S
C489 C490 1.396 . S
C489 C492 1.453 . S
C489 C493 1.684 . S
C490 C471 1.723 . S
C490 C489 1.396 . S
C490 C491 1.394 . S
C491 C487 1.397 . S
C491 C490 1.394 . S
C491 C501 1.723 . S
C492 C489 1.453 . S
C492 H516 0.982 . S
C492 H517 0.979 . S
C492 H518 0.977 . S
C493 C489 1.684 . S
C493 H519 0.979 . S
C493 H520 0.980 . S
C493 H521 0.983 . S
C494 H470 0.948 . S
C494 C495 1.391 . S
C494 C499 1.391 . S
C495 C494 1.391 . S
C495 C496 1.391 . S
C496 H473 0.947 . S
C496 C495 1.391 . S
C496 C497 1.392 . S
C497 H474 0.948 . S
C497 C496 1.392 . S
C497 C498 1.419 . S
C498 C497 1.419 . S
C498 C499 1.391 . S
C498 C502 1.397 . S
C499 C494 1.391 . S
C499 C498 1.391 . S
C499 C500 1.399 . S
C500 C499 1.399 . S
C500 C501 1.396 . S
C500 C503 1.453 . S
C500 C504 1.684 . S
C501 C491 1.723 . S
C501 C500 1.396 . S
C501 C502 1.394 . S
C502 C472 1.723 . S
C502 C498 1.397 . S
C502 C501 1.394 . S
C503 H475 0.982 . S
C503 H479 0.979 . S
C503 H480 0.977 . S
C503 C500 1.453 . S
C504 H476 0.979 . S
C504 H477 0.980 . S
C504 H478 0.983 . S
C504 C500 1.684 . S
H505 C523 0.948 . S
H506 C464 0.948 . S
H507 C482 0.979 . S
H508 C482 0.980 . S
H509 C482 0.983 . S
H510 C481 0.982 . S
H511 C481 0.979 . S
H512 C481 0.977 . S
H513 C483 0.948 . S
H514 C485 0.947 . S
H515 C486 0.948 . S
H516 C492 0.982 . S
H517 C492 0.979 . S
H518 C492 0.977 . S
H519 C493 0.979 . S
H520 C493 0.980 . S
H521 C493 0.983 . S
H522 C466 0.947 . S
C523 C466 1.392 . S
C523 C467 1.419 . S
C523 H505 0.948 . S
C524 C525 1.391 . S
C524 C528 1.391 . S
C524 H566 0.948 . S
C525 C524 1.391 . S
C525 C526 1.391 . S
C526 C525 1.391 . S
C526 H582 0.947 . S
C526 C583 1.392 . S
C527 C528 1.391 . S
C527 C531 1.397 . S
C527 C583 1.419 . S
C528 C524 1.391 . S
C528 C527 1.391 . S
C528 C529 1.399 . S
C529 C528 1.399 . S
C529 C532 1.396 . S
C529 C541 1.453 . S
C529 C542 1.684 . S
H530 C554 0.948 . S
C531 C527 1.397 . S
C531 C532 1.394 . S
C531 C550 1.723 . S
C532 C529 1.396 . S
C532 C531 1.394 . S
C532 C562 1.723 . S
H533 C556 0.947 . S
H534 C557 0.948 . S
H535 C563 0.982 . S
H536 C564 0.979 . S
H537 C564 0.980 . S
H538 C564 0.983 . S
H539 C563 0.979 . S
H540 C563 0.977 . S
C541 C529 1.453 . S
C541 H570 0.982 . S
C541 H571 0.979 . S
C541 H572 0.977 . S
C542 C529 1.684 . S
C542 H567 0.979 . S
C542 H568 0.980 . S
C542 H569 0.983 . S
C543 C544 1.391 . S
C543 C548 1.391 . S
C543 H573 0.948 . S
C544 C543 1.391 . S
C544 C545 1.391 . S
C545 C544 1.391 . S
C545 C546 1.392 . S
C545 H574 0.947 . S
C546 C545 1.392 . S
C546 C547 1.419 . S
C546 H575 0.948 . S
C547 C546 1.419 . S
C547 C548 1.391 . S
C547 C551 1.397 . S
C548 C543 1.391 . S
C548 C547 1.391 . S
C548 C549 1.399 . S
C549 C548 1.399 . S
C549 C550 1.396 . S
C549 C552 1.453 . S
C549 C553 1.684 . S
C550 C531 1.723 . S
C550 C549 1.396 . S
C550 C551 1.394 . S
C551 C547 1.397 . S
C551 C550 1.394 . S
C551 C561 1.723 . S
C552 C549 1.453 . S
C552 H576 0.982 . S
C552 H577 0.979 . S
C552 H578 0.977 . S
C553 C549 1.684 . S
C553 H579 0.979 . S
C553 H580 0.980 . S
C553 H581 0.983 . S
C554 H530 0.948 . S
C554 C555 1.391 . S
C554 C559 1.391 . S
C555 C554 1.391 . S
C555 C556 1.391 . S
C556 H533 0.947 . S
C556 C555 1.391 . S
C556 C557 1.392 . S
C557 H534 0.948 . S
C557 C556 1.392 . S
C557 C558 1.419 . S
C558 C557 1.419 . S
C558 C559 1.391 . S
C558 C562 1.397 . S
C559 C554 1.391 . S
C559 C558 1.391 . S
C559 C560 1.399 . S
C560 C559 1.399 . S
C560 C561 1.396 . S
C560 C563 1.453 . S
C560 C564 1.684 . S
C561 C551 1.723 . S
C561 C560 1.396 . S
C561 C562 1.394 . S
C562 C532 1.723 . S
C562 C558 1.397 . S
C562 C561 1.394 . S
C563 H535 0.982 . S
C563 H539 0.979 . S
C563 H540 0.977 . S
C563 C560 1.453 . S
C564 H536 0.979 . S
C564 H537 0.980 . S
C564 H538 0.983 . S
C564 C560 1.684 . S
H565 C583 0.948 . S
H566 C524 0.948 . S
H567 C542 0.979 . S
H568 C542 0.980 . S
H569 C542 0.983 . S
H570 C541 0.982 . S
H571 C541 0.979 . S
H572 C541 0.977 . S
H573 C543 0.948 . S
H574 C545 0.947 . S
H575 C546 0.948 . S
H576 C552 0.982 . S
H577 C552 0.979 . S
H578 C552 0.977 . S
H579 C553 0.979 . S
H580 C553 0.980 . S
H581 C553 0.983 . S
H582 C526 0.947 . S
C583 C526 1.392 . S
C583 C527 1.419 . S
C583 H565 0.948 . S
H584 C590 0.930 . S
H585 C593 0.930 . S
H586 C594 0.930 . S
H587 C595 0.930 . S
H588 C598 0.930 . S
H589 C599 0.925 1_556 S
C590 H584 0.930 . S
C590 C591 1.355 . S
C590 C592 1.415 . S
C591 C590 1.355 . S
C591 C593 1.419 . S
C592 C590 1.415 . S
C592 C597 1.425 . S
C592 C599 1.409 . S
C593 H585 0.930 . S
C593 C591 1.419 . S
C593 C594 1.362 . S
C594 H586 0.930 . S
C594 C593 1.362 . S
C594 C597 1.409 . S
C595 H587 0.930 . S
C595 C596 1.355 . S
C595 C597 1.415 . S
C596 C595 1.355 . S
C596 C598 1.419 . S
C597 C592 1.425 . S
C597 C594 1.409 . S
C597 C595 1.415 . S
C598 H588 0.930 . S
C598 C596 1.419 . S
C598 C599 1.362 . S
C599 H589 0.925 1_554 S
C599 C592 1.409 . S
C599 C598 1.362 . S
H600 C606 0.930 . S
H601 C609 0.930 . S
H602 C610 0.930 . S
H603 C611 0.930 . S
H604 C614 0.930 . S
H605 C615 0.930 . S
C606 H600 0.930 . S
C606 C607 1.355 . S
C606 C608 1.415 . S
C607 C606 1.355 . S
C607 C609 1.419 1_554 S
C608 C606 1.415 . S
C608 C613 1.425 1_554 S
C608 C615 1.409 . S
C609 H601 0.930 . S
C609 C607 1.419 1_556 S
C609 C610 1.362 . S
C610 H602 0.930 . S
C610 C609 1.362 . S
C610 C613 1.409 . S
C611 H603 0.930 . S
C611 C612 1.355 1_556 S
C611 C613 1.415 . S
C612 C611 1.355 1_554 S
C612 C614 1.419 . S
C613 C608 1.425 1_556 S
C613 C610 1.409 . S
C613 C611 1.415 . S
C614 H604 0.930 . S
C614 C612 1.419 . S
C614 C615 1.362 . S
C615 H605 0.930 . S
C615 C608 1.409 . S
C615 C614 1.362 . S
H616 C622 0.930 . S
H617 C625 0.930 . S
H618 C626 0.930 . S
H619 C627 0.930 . S
H620 C630 0.930 . S
H621 C631 0.930 . S
C622 H616 0.930 . S
C622 C623 1.355 . S
C622 C624 1.415 . S
C623 C622 1.355 . S
C623 C625 1.419 . S
C624 C622 1.415 . S
C624 C629 1.425 . S
C624 C631 1.409 . S
C625 H617 0.930 . S
C625 C623 1.419 . S
C625 C626 1.362 . S
C626 H618 0.930 . S
C626 C625 1.362 . S
C626 C629 1.409 . S
C627 H619 0.930 . S
C627 C628 1.355 . S
C627 C629 1.415 . S
C628 C627 1.355 . S
C628 C630 1.419 . S
C629 C624 1.425 . S
C629 C626 1.409 . S
C629 C627 1.415 . S
C630 H620 0.930 . S
C630 C628 1.419 . S
C630 C631 1.362 . S
C631 H621 0.930 . S
C631 C624 1.409 . S
C631 C630 1.362 . S
H632 C638 0.930 . S
H633 C641 0.930 . S
H634 C642 0.930 . S
H635 C643 0.930 . S
H636 C646 0.930 . S
H637 C647 0.930 . S
C638 H632 0.930 . S
C638 C639 1.355 . S
C638 C640 1.415 . S
C639 C638 1.355 . S
C639 C641 1.419 . S
C640 C638 1.415 . S
C640 C645 1.425 . S
C640 C647 1.409 . S
C641 H633 0.930 . S
C641 C639 1.419 . S
C641 C642 1.362 . S
C642 H634 0.930 . S
C642 C641 1.362 . S
C642 C645 1.409 . S
C643 H635 0.930 . S
C643 C644 1.355 . S
C643 C645 1.415 . S
C644 C643 1.355 . S
C644 C646 1.419 . S
C645 C640 1.425 . S
C645 C642 1.409 . S
C645 C643 1.415 . S
C646 H636 0.930 . S
C646 C644 1.419 . S
C646 C647 1.362 . S
C647 H637 0.930 . S
C647 C640 1.409 . S
C647 C646 1.362 . S
H648 C654 0.930 . S
H649 C657 0.930 . S
H650 C658 0.930 . S
H651 C659 0.930 . S
H652 C662 0.930 . S
H653 C663 0.930 . S
C654 H648 0.930 . S
C654 C655 1.355 . S
C654 C656 1.415 . S
C655 C654 1.355 . S
C655 C657 1.419 . S
C656 C654 1.415 . S
C656 C661 1.425 . S
C656 C663 1.409 . S
C657 H649 0.930 . S
C657 C655 1.419 . S
C657 C658 1.362 . S
C658 H650 0.930 . S
C658 C657 1.362 . S
C658 C661 1.409 . S
C659 H651 0.930 . S
C659 C660 1.355 . S
C659 C661 1.415 . S
C660 C659 1.355 . S
C660 C662 1.419 . S
C661 C656 1.425 . S
C661 C658 1.409 . S
C661 C659 1.415 . S
C662 H652 0.930 . S
C662 C660 1.419 . S
C662 C663 1.362 . S
C663 H653 0.930 . S
C663 C656 1.409 . S
C663 C662 1.362 . S
H664 C670 0.930 . S
H665 C673 0.930 . S
H666 C674 0.930 . S
H667 C675 0.930 . S
H668 C678 0.930 . S
H669 C679 0.930 . S
C670 H664 0.930 . S
C670 C671 1.355 . S
C670 C672 1.415 . S
C671 C670 1.355 . S
C671 C673 1.419 . S
C672 C670 1.415 . S
C672 C677 1.425 . S
C672 C679 1.409 . S
C673 H665 0.930 . S
C673 C671 1.419 . S
C673 C674 1.362 . S
C674 H666 0.930 . S
C674 C673 1.362 . S
C674 C677 1.409 . S
C675 H667 0.930 . S
C675 C676 1.355 . S
C675 C677 1.415 . S
C676 C675 1.355 . S
C676 C678 1.419 . S
C677 C672 1.425 . S
C677 C674 1.409 . S
C677 C675 1.415 . S
C678 H668 0.930 . S
C678 C676 1.419 . S
C678 C679 1.362 . S
C679 H669 0.930 . S
C679 C672 1.409 . S
C679 C678 1.362 . S
H680 C686 0.930 . S
H681 C689 0.930 . S
H682 C690 0.930 . S
H683 C691 0.930 . S
H684 C694 0.930 . S
H685 C695 0.930 . S
C686 H680 0.930 . S
C686 C687 1.355 . S
C686 C688 1.415 . S
C687 C686 1.355 . S
C687 C689 1.419 . S
C688 C686 1.415 . S
C688 C693 1.425 . S
C688 C695 1.409 . S
C689 H681 0.930 . S
C689 C687 1.419 . S
C689 C690 1.362 . S
C690 H682 0.930 . S
C690 C689 1.362 . S
C690 C693 1.409 . S
C691 H683 0.930 . S
C691 C692 1.355 . S
C691 C693 1.415 . S
C692 C691 1.355 . S
C692 C694 1.419 . S
C693 C688 1.425 . S
C693 C690 1.409 . S
C693 C691 1.415 . S
C694 H684 0.930 . S
C694 C692 1.419 . S
C694 C695 1.362 . S
C695 H685 0.930 . S
C695 C688 1.409 . S
C695 C694 1.362 . S
H696 C702 0.930 . S
H697 C705 0.930 . S
H698 C706 0.930 . S
H699 C707 0.930 . S
H700 C710 0.930 . S
H701 C711 0.930 . S
C702 H696 0.930 . S
C702 C703 1.355 . S
C702 C704 1.415 . S
C703 C702 1.355 . S
C703 C705 1.419 . S
C704 C702 1.415 . S
C704 C709 1.425 . S
C704 C711 1.409 . S
C705 H697 0.930 . S
C705 C703 1.419 . S
C705 C706 1.362 . S
C706 H698 0.930 . S
C706 C705 1.362 . S
C706 C709 1.409 . S
C707 H699 0.930 . S
C707 C708 1.355 . S
C707 C709 1.415 . S
C708 C707 1.355 . S
C708 C710 1.419 . S
C709 C704 1.425 . S
C709 C706 1.409 . S
C709 C707 1.415 . S
C710 H700 0.930 . S
C710 C708 1.419 . S
C710 C711 1.362 . S
C711 H701 0.930 . S
C711 C704 1.409 . S
C711 C710 1.362 . S
H712 C718 0.930 . S
H713 C721 0.930 . S
H714 C722 0.930 . S
H715 C723 0.930 . S
H716 C726 0.930 . S
H717 C727 0.930 . S
C718 H712 0.930 . S
C718 C719 1.355 . S
C718 C720 1.415 . S
C719 C718 1.355 . S
C719 C721 1.419 . S
C720 C718 1.415 . S
C720 C725 1.425 . S
C720 C727 1.409 . S
C721 H713 0.930 . S
C721 C719 1.419 . S
C721 C722 1.362 . S
C722 H714 0.930 . S
C722 C721 1.362 . S
C722 C725 1.409 . S
C723 H715 0.930 . S
C723 C724 1.355 . S
C723 C725 1.415 . S
C724 C723 1.355 . S
C724 C726 1.419 . S
C725 C720 1.425 . S
C725 C722 1.409 . S
C725 C723 1.415 . S
C726 H716 0.930 . S
C726 C724 1.419 . S
C726 C727 1.362 . S
C727 H717 0.930 . S
C727 C720 1.409 . S
C727 C726 1.362 . S
H728 C734 0.930 . S
H729 C737 0.930 . S
H730 C738 0.930 . S
H731 C739 0.930 . S
H732 C742 0.930 . S
H733 C743 0.930 . S
C734 H728 0.930 . S
C734 C735 1.355 . S
C734 C736 1.415 . S
C735 C734 1.355 . S
C735 C737 1.419 . S
C736 C734 1.415 . S
C736 C741 1.425 . S
C736 C743 1.409 . S
C737 H729 0.930 . S
C737 C735 1.419 . S
C737 C738 1.362 . S
C738 H730 0.930 . S
C738 C737 1.362 . S
C738 C741 1.409 . S
C739 H731 0.930 . S
C739 C740 1.355 . S
C739 C741 1.415 . S
C740 C739 1.355 . S
C740 C742 1.419 . S
C741 C736 1.425 . S
C741 C738 1.409 . S
C741 C739 1.415 . S
C742 H732 0.930 . S
C742 C740 1.419 . S
C742 C743 1.362 . S
C743 H733 0.930 . S
C743 C736 1.409 . S
C743 C742 1.362 . S
H744 C750 0.930 . S
H745 C753 0.930 1_455 S
H746 C754 0.930 1_455 S
H747 C755 0.930 . S
H748 C758 0.930 . S
H749 C759 0.930 . S
C750 H744 0.930 . S
C750 C751 1.355 . S
C750 C752 1.415 . S
C751 C750 1.355 . S
C751 C753 1.419 . S
C752 C750 1.415 . S
C752 C757 1.425 . S
C752 C759 1.409 . S
C753 H745 0.930 1_655 S
C753 C751 1.419 . S
C753 C754 1.362 . S
C754 H746 0.930 1_655 S
C754 C753 1.362 . S
C754 C757 1.409 . S
C755 H747 0.930 . S
C755 C756 1.355 . S
C755 C757 1.415 . S
C756 C755 1.355 . S
C756 C758 1.419 . S
C757 C752 1.425 . S
C757 C754 1.409 . S
C757 C755 1.415 . S
C758 H748 0.930 . S
C758 C756 1.419 . S
C758 C759 1.362 . S
C759 H749 0.930 . S
C759 C752 1.409 . S
C759 C758 1.362 . S
H760 C766 0.930 . S
H761 C769 0.930 . S
H762 C770 0.930 . S
H763 C771 0.930 . S
H764 C774 0.930 . S
H765 C775 0.930 . S
C766 H760 0.930 . S
C766 C767 1.355 . S
C766 C768 1.415 . S
C767 C766 1.355 . S
C767 C769 1.419 . S
C768 C766 1.415 . S
C768 C773 1.425 . S
C768 C775 1.409 . S
C769 H761 0.930 . S
C769 C767 1.419 . S
C769 C770 1.362 . S
C770 H762 0.930 . S
C770 C769 1.362 . S
C770 C773 1.409 . S
C771 H763 0.930 . S
C771 C772 1.355 . S
C771 C773 1.415 . S
C772 C771 1.355 . S
C772 C774 1.419 . S
C773 C768 1.425 . S
C773 C770 1.409 . S
C773 C771 1.415 . S
C774 H764 0.930 . S
C774 C772 1.419 . S
C774 C775 1.362 . S
C775 H765 0.930 . S
C775 C768 1.409 . S
C775 C774 1.362 . S
H776 C782 0.930 . S
H777 C785 0.930 . S
H778 C786 0.930 . S
H779 C787 0.930 . S
H780 C790 0.930 . S
H781 C791 0.930 . S
C782 H776 0.930 . S
C782 C783 1.355 . S
C782 C784 1.415 . S
C783 C782 1.355 . S
C783 C785 1.419 . S
C784 C782 1.415 . S
C784 C789 1.425 . S
C784 C791 1.409 . S
C785 H777 0.930 . S
C785 C783 1.419 . S
C785 C786 1.362 . S
C786 H778 0.930 . S
C786 C785 1.362 . S
C786 C789 1.409 . S
C787 H779 0.930 . S
C787 C788 1.355 . S
C787 C789 1.415 . S
C788 C787 1.355 . S
C788 C790 1.419 . S
C789 C784 1.425 . S
C789 C786 1.409 . S
C789 C787 1.415 . S
C790 H780 0.930 . S
C790 C788 1.419 . S
C790 C791 1.362 . S
C791 H781 0.930 . S
C791 C784 1.409 . S
C791 C790 1.362 . S
H792 C798 0.930 . S
H793 C801 0.930 1_655 S
H794 C802 0.930 1_655 S
H795 C803 0.930 . S
H796 C806 0.930 . S
H797 C807 0.930 . S
C798 H792 0.930 . S
C798 C799 1.355 . S
C798 C800 1.415 . S
C799 C798 1.355 . S
C799 C801 1.419 . S
C800 C798 1.415 . S
C800 C805 1.425 . S
C800 C807 1.409 . S
C801 H793 0.930 1_455 S
C801 C799 1.419 . S
C801 C802 1.362 . S
C802 H794 0.930 1_455 S
C802 C801 1.362 . S
C802 C805 1.409 . S
C803 H795 0.930 . S
C803 C804 1.355 . S
C803 C805 1.415 . S
C804 C803 1.355 . S
C804 C806 1.419 . S
C805 C800 1.425 . S
C805 C802 1.409 . S
C805 C803 1.415 . S
C806 H796 0.930 . S
C806 C804 1.419 . S
C806 C807 1.362 . S
C807 H797 0.930 . S
C807 C800 1.409 . S
C807 C806 1.362 . S
H808 C814 0.930 1_565 S
H809 C817 0.930 . S
H810 C818 0.930 . S
H811 C819 0.930 . S
H812 C822 0.930 . S
H813 C823 0.930 1_565 S
C814 H808 0.930 1_545 S
C814 C815 1.355 . S
C814 C816 1.415 . S
C815 C814 1.355 . S
C815 C817 1.419 . S
C816 C814 1.415 . S
C816 C821 1.425 . S
C816 C823 1.409 . S
C817 H809 0.930 . S
C817 C815 1.419 . S
C817 C818 1.362 . S
C818 H810 0.930 . S
C818 C817 1.362 . S
C818 C821 1.409 . S
C819 H811 0.930 . S
C819 C820 1.355 . S
C819 C821 1.415 . S
C820 C819 1.355 . S
C820 C822 1.419 . S
C821 C816 1.425 . S
C821 C818 1.409 . S
C821 C819 1.415 . S
C822 H812 0.930 . S
C822 C820 1.419 . S
C822 C823 1.362 . S
C823 H813 0.930 1_545 S
C823 C816 1.409 . S
C823 C822 1.362 . S
H824 C830 0.930 . S
H825 C833 0.930 1_455 S
H826 C834 0.930 1_455 S
H827 C835 0.930 . S
H828 C838 0.930 . S
H829 C839 0.930 . S
C830 H824 0.930 . S
C830 C831 1.355 . S
C830 C832 1.415 . S
C831 C830 1.355 . S
C831 C833 1.419 . S
C832 C830 1.415 . S
C832 C837 1.425 . S
C832 C839 1.409 . S
C833 H825 0.930 1_655 S
C833 C831 1.419 . S
C833 C834 1.362 . S
C834 H826 0.930 1_655 S
C834 C833 1.362 . S
C834 C837 1.409 . S
C835 H827 0.930 . S
C835 C836 1.355 . S
C835 C837 1.415 . S
C836 C835 1.355 . S
C836 C838 1.419 . S
C837 C832 1.425 . S
C837 C834 1.409 . S
C837 C835 1.415 . S
C838 H828 0.930 . S
C838 C836 1.419 . S
C838 C839 1.362 . S
C839 H829 0.930 . S
C839 C832 1.409 . S
C839 C838 1.362 . S
H840 C846 0.930 . S
H841 C849 0.930 . S
H842 C850 0.930 . S
H843 C851 0.930 . S
H844 C854 0.930 . S
H845 C855 0.930 . S
C846 H840 0.930 . S
C846 C847 1.355 . S
C846 C848 1.415 . S
C847 C846 1.355 . S
C847 C849 1.419 . S
C848 C846 1.415 . S
C848 C853 1.425 . S
C848 C855 1.409 . S
C849 H841 0.930 . S
C849 C847 1.419 . S
C849 C850 1.362 . S
C850 H842 0.930 . S
C850 C849 1.362 . S
C850 C853 1.409 . S
C851 H843 0.930 . S
C851 C852 1.355 . S
C851 C853 1.415 . S
C852 C851 1.355 . S
C852 C854 1.419 . S
C853 C848 1.425 . S
C853 C850 1.409 . S
C853 C851 1.415 . S
C854 H844 0.930 . S
C854 C852 1.419 . S
C854 C855 1.362 . S
C855 H845 0.930 . S
C855 C848 1.409 . S
C855 C854 1.362 . S
H856 C862 0.930 . S
H857 C865 0.930 . S
H858 C866 0.930 . S
H859 C867 0.930 . S
H860 C870 0.930 . S
H861 C871 0.930 . S
C862 H856 0.930 . S
C862 C863 1.355 . S
C862 C864 1.415 . S
C863 C862 1.355 . S
C863 C865 1.419 . S
C864 C862 1.415 . S
C864 C869 1.425 . S
C864 C871 1.409 . S
C865 H857 0.930 . S
C865 C863 1.419 . S
C865 C866 1.362 . S
C866 H858 0.930 . S
C866 C865 1.362 . S
C866 C869 1.409 . S
C867 H859 0.930 . S
C867 C868 1.355 . S
C867 C869 1.415 . S
C868 C867 1.355 . S
C868 C870 1.419 . S
C869 C864 1.425 . S
C869 C866 1.409 . S
C869 C867 1.415 . S
C870 H860 0.930 . S
C870 C868 1.419 . S
C870 C871 1.362 . S
C871 H861 0.930 . S
C871 C864 1.409 . S
C871 C870 1.362 . S
H872 C878 0.930 . S
H873 C881 0.930 . S
H874 C882 0.930 . S
H875 C883 0.930 . S
H876 C886 0.930 . S
H877 C887 0.930 . S
C878 H872 0.930 . S
C878 C879 1.355 . S
C878 C880 1.415 . S
C879 C878 1.355 . S
C879 C881 1.419 . S
C880 C878 1.415 . S
C880 C885 1.425 . S
C880 C887 1.409 . S
C881 H873 0.930 . S
C881 C879 1.419 . S
C881 C882 1.362 . S
C882 H874 0.930 . S
C882 C881 1.362 . S
C882 C885 1.409 . S
C883 H875 0.930 . S
C883 C884 1.355 . S
C883 C885 1.415 . S
C884 C883 1.355 . S
C884 C886 1.419 . S
C885 C880 1.425 . S
C885 C882 1.409 . S
C885 C883 1.415 . S
C886 H876 0.930 . S
C886 C884 1.419 . S
C886 C887 1.362 . S
C887 H877 0.930 . S
C887 C880 1.409 . S
C887 C886 1.362 . S
H888 C894 0.930 . S
H889 C897 0.930 . S
H890 C898 0.930 . S
H891 C899 0.930 . S
H892 C902 0.930 . S
H893 C903 0.930 . S
C894 H888 0.930 . S
C894 C895 1.355 . S
C894 C896 1.415 . S
C895 C894 1.355 . S
C895 C897 1.419 . S
C896 C894 1.415 . S
C896 C901 1.425 . S
C896 C903 1.409 . S
C897 H889 0.930 . S
C897 C895 1.419 . S
C897 C898 1.362 . S
C898 H890 0.930 . S
C898 C897 1.362 . S
C898 C901 1.409 . S
C899 H891 0.930 . S
C899 C900 1.355 . S
C899 C901 1.415 . S
C900 C899 1.355 . S
C900 C902 1.419 . S
C901 C896 1.425 . S
C901 C898 1.409 . S
C901 C899 1.415 . S
C902 H892 0.930 . S
C902 C900 1.419 . S
C902 C903 1.362 . S
C903 H893 0.930 . S
C903 C896 1.409 . S
C903 C902 1.362 . S
H904 C910 0.930 . S
H905 C913 0.930 . S
H906 C914 0.930 . S
H907 C915 0.930 . S
H908 C918 0.930 . S
H909 C919 0.930 . S
C910 H904 0.930 . S
C910 C911 1.355 . S
C910 C912 1.415 . S
C911 C910 1.355 . S
C911 C913 1.419 . S
C912 C910 1.415 . S
C912 C917 1.425 . S
C912 C919 1.409 . S
C913 H905 0.930 . S
C913 C911 1.419 . S
C913 C914 1.362 . S
C914 H906 0.930 . S
C914 C913 1.362 . S
C914 C917 1.409 . S
C915 H907 0.930 . S
C915 C916 1.355 . S
C915 C917 1.415 . S
C916 C915 1.355 . S
C916 C918 1.419 . S
C917 C912 1.425 . S
C917 C914 1.409 . S
C917 C915 1.415 . S
C918 H908 0.930 . S
C918 C916 1.419 . S
C918 C919 1.362 . S
C919 H909 0.930 . S
C919 C912 1.409 . S
C919 C918 1.362 . S
H920 C926 0.930 . S
H921 C929 0.930 . S
H922 C930 0.930 . S
H923 C931 0.930 . S
H924 C934 0.930 . S
H925 C935 0.930 . S
C926 H920 0.930 . S
C926 C927 1.355 . S
C926 C928 1.415 . S
C927 C926 1.355 . S
C927 C929 1.419 . S
C928 C926 1.415 . S
C928 C933 1.425 . S
C928 C935 1.409 . S
C929 H921 0.930 . S
C929 C927 1.419 . S
C929 C930 1.362 . S
C930 H922 0.930 . S
C930 C929 1.362 . S
C930 C933 1.409 . S
C931 H923 0.930 . S
C931 C932 1.355 . S
C931 C933 1.415 . S
C932 C931 1.355 . S
C932 C934 1.419 . S
C933 C928 1.425 . S
C933 C930 1.409 . S
C933 C931 1.415 . S
C934 H924 0.930 . S
C934 C932 1.419 . S
C934 C935 1.362 . S
C935 H925 0.930 . S
C935 C928 1.409 . S
C935 C934 1.362 . S
H936 C942 0.930 . S
H937 C945 0.930 . S
H938 C946 0.930 . S
H939 C947 0.930 . S
H940 C950 0.930 . S
H941 C951 0.930 . S
C942 H936 0.930 . S
C942 C943 1.355 . S
C942 C944 1.415 . S
C943 C942 1.355 . S
C943 C945 1.419 . S
C944 C942 1.415 . S
C944 C949 1.425 . S
C944 C951 1.409 . S
C945 H937 0.930 . S
C945 C943 1.419 . S
C945 C946 1.362 . S
C946 H938 0.930 . S
C946 C945 1.362 . S
C946 C949 1.409 . S
C947 H939 0.930 . S
C947 C948 1.355 . S
C947 C949 1.415 . S
C948 C947 1.355 . S
C948 C950 1.419 . S
C949 C944 1.425 . S
C949 C946 1.409 . S
C949 C947 1.415 . S
C950 H940 0.930 . S
C950 C948 1.419 . S
C950 C951 1.362 . S
C951 H941 0.930 . S
C951 C944 1.409 . S
C951 C950 1.362 . S
H952 C958 0.930 . S
H953 C961 0.930 . S
H954 C962 0.930 . S
H955 C963 0.930 . S
H956 C966 0.930 . S
H957 C967 0.930 . S
C958 H952 0.930 . S
C958 C959 1.355 . S
C958 C960 1.415 . S
C959 C958 1.355 . S
C959 C961 1.419 . S
C960 C958 1.415 . S
C960 C965 1.425 . S
C960 C967 1.409 . S
C961 H953 0.930 . S
C961 C959 1.419 . S
C961 C962 1.362 . S
C962 H954 0.930 . S
C962 C961 1.362 . S
C962 C965 1.409 . S
C963 H955 0.930 . S
C963 C964 1.355 . S
C963 C965 1.415 . S
C964 C963 1.355 . S
C964 C966 1.419 . S
C965 C960 1.425 . S
C965 C962 1.409 . S
C965 C963 1.415 . S
C966 H956 0.930 . S
C966 C964 1.419 . S
C966 C967 1.362 . S
C967 H957 0.930 . S
C967 C960 1.409 . S
C967 C966 1.362 . S
C591 C45 1.593 . S
C596 C135 1.544 . S
C607 C30 1.630 . S
C612 C195 1.609 . S
C623 C39 1.650 . S
C628 C255 1.661 . S
C644 C315 1.658 . S
C639 C34 1.650 . S
C655 C97 1.646 . S
C660 C375 1.598 . S
C676 C435 1.553 . S
C671 C82 1.613 . S
C692 C495 1.658 . S
C687 C91 1.650 . S
C708 C555 1.650 . S
C703 C86 1.607 . S
C724 C484 1.574 . S
C719 C26 1.527 . S
C740 C544 1.565 . S
C735 C36 1.452 . S
C756 C345 1.498 . S
C751 C32 1.500 . S
C772 C405 1.430 . S
C767 C42 1.453 . S
C783 C18 1.537 . S
C788 C424 1.598 . S
C804 C465 1.605 . S
C799 C50 1.518 . S
C815 C4 1.593 . S
C820 C525 1.624 . S
C831 C48 1.551 . S
C836 C364 1.579 . S
C852 C244 1.570 . S
C847 C78 1.524 . S
C863 C88 1.537 . S
C868 C304 1.585 . S
C884 C105 1.431 . S
C879 C84 1.453 . S
C900 C165 1.523 . S
C895 C94 1.537 . S
C916 C184 1.575 . S
C911 C70 1.521 . S
C932 C225 1.634 . S
C927 C102 1.540 . S
C943 C56 1.555 . S
C948 C285 1.644 . S
C959 C100 1.600 . S
C964 C124 1.641 . S
