# Generated by pormake.
# Topology zzz, (3,6)-cn, num edge types: 1
# Building blocks:
#     Node 0, Type 0, BuildingBlock: MIDCAF_clean_linker_0, # of connection points: 3
#     Node 1, Type 0, BuildingBlock: MIDCAF_clean_linker_0, # of connection points: 3
#     Node 2, Type 0, BuildingBlock: MIDCAF_clean_linker_0, # of connection points: 3
#     Node 3, Type 0, BuildingBlock: MIDCAF_clean_linker_0, # of connection points: 3
#     Node 4, Type 0, BuildingBlock: MIDCAF_clean_linker_0, # of connection points: 3
#     Node 5, Type 0, BuildingBlock: MIDCAF_clean_linker_0, # of connection points: 3
#     Node 6, Type 0, BuildingBlock: MIDCAF_clean_linker_0, # of connection points: 3
#     Node 7, Type 0, BuildingBlock: MIDCAF_clean_linker_0, # of connection points: 3
#     Node 8, Type 1, BuildingBlock: JUFBIX_clean_sbu_0, # of connection points: 6
#     Node 9, Type 1, BuildingBlock: JUFBIX_clean_sbu_0, # of connection points: 6
#     Node 10, Type 1, BuildingBlock: JUFBIX_clean_sbu_0, # of connection points: 6
#     Node 11, Type 1, BuildingBlock: JUFBIX_clean_sbu_0, # of connection points: 6
#     Edge 12, Type (0, 1), BuildingBlock: MIFKUJ_clean_linker_0, # of connection points: 2
#     Edge 13, Type (0, 1), BuildingBlock: MIFKUJ_clean_linker_0, # of connection points: 2
#     Edge 14, Type (0, 1), BuildingBlock: MIFKUJ_clean_linker_0, # of connection points: 2
#     Edge 15, Type (0, 1), BuildingBlock: MIFKUJ_clean_linker_0, # of connection points: 2
#     Edge 16, Type (0, 1), BuildingBlock: MIFKUJ_clean_linker_0, # of connection points: 2
#     Edge 17, Type (0, 1), BuildingBlock: MIFKUJ_clean_linker_0, # of connection points: 2
#     Edge 18, Type (0, 1), BuildingBlock: MIFKUJ_clean_linker_0, # of connection points: 2
#     Edge 19, Type (0, 1), BuildingBlock: MIFKUJ_clean_linker_0, # of connection points: 2
#     Edge 20, Type (0, 1), BuildingBlock: MIFKUJ_clean_linker_0, # of connection points: 2
#     Edge 21, Type (0, 1), BuildingBlock: MIFKUJ_clean_linker_0, # of connection points: 2
#     Edge 22, Type (0, 1), BuildingBlock: MIFKUJ_clean_linker_0, # of connection points: 2
#     Edge 23, Type (0, 1), BuildingBlock: MIFKUJ_clean_linker_0, # of connection points: 2
#     Edge 24, Type (0, 1), BuildingBlock: MIFKUJ_clean_linker_0, # of connection points: 2
#     Edge 25, Type (0, 1), BuildingBlock: MIFKUJ_clean_linker_0, # of connection points: 2
#     Edge 26, Type (0, 1), BuildingBlock: MIFKUJ_clean_linker_0, # of connection points: 2
#     Edge 27, Type (0, 1), BuildingBlock: MIFKUJ_clean_linker_0, # of connection points: 2
#     Edge 28, Type (0, 1), BuildingBlock: MIFKUJ_clean_linker_0, # of connection points: 2
#     Edge 29, Type (0, 1), BuildingBlock: MIFKUJ_clean_linker_0, # of connection points: 2
#     Edge 30, Type (0, 1), BuildingBlock: MIFKUJ_clean_linker_0, # of connection points: 2
#     Edge 31, Type (0, 1), BuildingBlock: MIFKUJ_clean_linker_0, # of connection points: 2
#     Edge 32, Type (0, 1), BuildingBlock: MIFKUJ_clean_linker_0, # of connection points: 2
#     Edge 33, Type (0, 1), BuildingBlock: MIFKUJ_clean_linker_0, # of connection points: 2
#     Edge 34, Type (0, 1), BuildingBlock: MIFKUJ_clean_linker_0, # of connection points: 2
#     Edge 35, Type (0, 1), BuildingBlock: MIFKUJ_clean_linker_0, # of connection points: 2
# Relax obj value: 0.299
# Max RMSD: 0.222
# Mean RMSD: 0.190
data_MOF--net-zzz--node1-JUFBIX_clean_sbu_0--node2-MIDCAF_clean_linker_0--edge1-MIFKUJ_clean_linker_0
_symmetry_space_group_name_H-M    P1
_symmetry_Int_Tables_number       1
_symmetry_cell_setting            triclinic
loop_
_symmetry_equiv_pos_as_xyz
'x, y, z'
_cell_length_a     70.629757
_cell_length_b     72.932854
_cell_length_c     28.101587
_cell_angle_alpha  83.841849
_cell_angle_beta   90.200656
_cell_angle_gamma 86.817421
loop_
_atom_site_label
_atom_site_type_symbol
_atom_site_fract_x
_atom_site_fract_y
_atom_site_fract_z
_atom_type_partial_charge
C0 C 0.80317 0.5786 0.41503 0.0
C1 C 0.80135 0.56237 0.44611 0.0
C2 C 0.78796 0.54986 0.43464 0.0
C3 C 0.77788 0.55276 0.39109 0.0
H4 H 0.72114 0.56079 0.29016 0.0
H5 H 0.69023 0.55615 0.25405 0.0
H6 H 0.71729 0.55157 0.11804 0.0
H7 H 0.74764 0.55621 0.15305 0.0
H8 H 0.78923 0.55941 0.13754 0.0
H9 H 0.81718 0.55597 0.08871 0.0
H10 H 0.8508 0.57916 0.1938 0.0
H11 H 0.82287 0.58205 0.24363 0.0
H12 H 0.79615 0.5933 0.34676 0.0
H13 H 0.81341 0.58849 0.42224 0.0
H14 H 0.78603 0.53734 0.45812 0.0
H15 H 0.76881 0.54222 0.38139 0.0
N16 N 0.75886 0.56405 0.29168 0.0
N17 N 0.77029 0.56588 0.21288 0.0
N18 N 0.79045 0.57109 0.27521 0.0
C19 C 0.75574 0.56315 0.24395 0.0
C20 C 0.78764 0.56983 0.22812 0.0
C21 C 0.7763 0.56824 0.30716 0.0
C22 C 0.73694 0.55914 0.22456 0.0
C23 C 0.72046 0.5587 0.25264 0.0
C24 C 0.70277 0.55601 0.23202 0.0
C25 C 0.70128 0.55384 0.18297 0.0
C26 C 0.71784 0.55368 0.15559 0.0
C27 C 0.73535 0.55628 0.17597 0.0
C28 C 0.80385 0.57074 0.19488 0.0
C29 C 0.80249 0.56409 0.14996 0.0
C30 C 0.81855 0.56221 0.12174 0.0
C31 C 0.83631 0.56712 0.13754 0.0
C32 C 0.83742 0.57489 0.18105 0.0
C33 C 0.82138 0.57663 0.20949 0.0
C34 C 0.78118 0.56812 0.35829 0.0
C35 C 0.79326 0.58139 0.37161 0.0
C36 C 0.95959 0.79599 0.38907 0.0
C37 C 0.97537 0.79588 0.41989 0.0
C38 C 0.99082 0.78322 0.41422 0.0
C39 C 0.99115 0.77222 0.37619 0.0
H40 H 0.99059 0.71275 0.27721 0.0
H41 H 0.98976 0.68373 0.24001 0.0
H42 H 0.95782 0.71252 0.12071 0.0
H43 H 0.95887 0.7412 0.15733 0.0
H44 H 0.99992 0.77472 0.12477 0.0
H45 H 0.00959 0.79938 0.06553 0.0
H46 H 0.99587 0.83954 0.16411 0.0
H47 H 0.98619 0.81508 0.22325 0.0
H48 H 0.94829 0.78659 0.32567 0.0
H49 H 0.94752 0.80565 0.39163 0.0
H50 H 0.00311 0.78251 0.43765 0.0
H51 H 0.00388 0.76382 0.37017 0.0
N52 N 0.97622 0.75086 0.28287 0.0
N53 N 0.98347 0.76104 0.20288 0.0
N54 N 0.98415 0.78153 0.26105 0.0
C55 C 0.97832 0.74737 0.23626 0.0
C56 C 0.98653 0.7781 0.21505 0.0
C57 C 0.97909 0.76814 0.29501 0.0
C58 C 0.97482 0.72918 0.22009 0.0
C59 C 0.98299 0.71267 0.24371 0.0
C60 C 0.98262 0.69614 0.22223 0.0
C61 C 0.97374 0.69582 0.17732 0.0
C62 C 0.96459 0.71218 0.15546 0.0
C63 C 0.96527 0.72865 0.17636 0.0
C64 C 0.99226 0.79292 0.17875 0.0
C65 C 0.99893 0.78881 0.13379 0.0
C66 C 0.00459 0.80288 0.1 0.0
C67 C 0.00346 0.82132 0.11034 0.0
C68 C 0.99673 0.82544 0.15512 0.0
C69 C 0.99128 0.81139 0.18904 0.0
C70 C 0.97595 0.77348 0.34353 0.0
C71 C 0.95993 0.78497 0.35128 0.0
C72 C 0.72831 0.97936 0.38524 0.0
C73 C 0.72904 0.96482 0.42248 0.0
C74 C 0.74175 0.94946 0.41868 0.0
C75 C 0.75224 0.948 0.3768 0.0
H76 H 0.81011 0.96122 0.27069 0.0
H77 H 0.8414 0.96287 0.23383 0.0
H78 H 0.8192 0.94215 0.10771 0.0
H79 H 0.78847 0.93995 0.14465 0.0
H80 H 0.74427 0.94106 0.12366 0.0
H81 H 0.71791 0.94258 0.06666 0.0
H82 H 0.68183 0.96901 0.16626 0.0
H83 H 0.7077 0.96679 0.22343 0.0
H84 H 0.73651 0.98851 0.31377 0.0
H85 H 0.71854 0.99128 0.38648 0.0
H86 H 0.74275 0.93809 0.4469 0.0
H87 H 0.76072 0.93541 0.37308 0.0
N88 N 0.77337 0.95525 0.2752 0.0
N89 N 0.76227 0.95108 0.19818 0.0
N90 N 0.74069 0.95718 0.2579 0.0
C91 C 0.77701 0.9519 0.22909 0.0
C92 C 0.74409 0.95369 0.21234 0.0
C93 C 0.75508 0.95783 0.2895 0.0
C94 C 0.79667 0.95063 0.21054 0.0
C95 C 0.81204 0.95666 0.23551 0.0
C96 C 0.82994 0.95775 0.2142 0.0
C97 C 0.83285 0.95275 0.16761 0.0
C98 C 0.81766 0.9459 0.14381 0.0
C99 C 0.79988 0.94481 0.16497 0.0
C100 C 0.72811 0.95381 0.1781 0.0
C101 C 0.73064 0.94704 0.13343 0.0
C102 C 0.71554 0.94798 0.10069 0.0
C103 C 0.69768 0.95588 0.11179 0.0
C104 C 0.6952 0.96243 0.15674 0.0
C105 C 0.71015 0.96129 0.18954 0.0
C106 C 0.75007 0.96185 0.33819 0.0
C107 C 0.73862 0.97781 0.34349 0.0
C108 C 0.47174 0.67642 0.14197 0.0
C109 C 0.46896 0.68027 0.09229 0.0
C110 C 0.46881 0.69874 0.07173 0.0
C111 C 0.47178 0.71296 0.10011 0.0
H112 H 0.49974 0.76254 0.09725 0.0
H113 H 0.50371 0.79279 0.05491 0.0
H114 H 0.48802 0.81821 0.18218 0.0
H115 H 0.48459 0.78758 0.22538 0.0
H116 H 0.5102 0.74098 0.32191 0.0
H117 H 0.51549 0.72479 0.40254 0.0
H118 H 0.46451 0.69568 0.38708 0.0
H119 H 0.45922 0.71195 0.30815 0.0
H120 H 0.4769 0.68699 0.20835 0.0
H121 H 0.47233 0.66235 0.15899 0.0
H122 H 0.46645 0.70223 0.03366 0.0
H123 H 0.47177 0.72701 0.08312 0.0
N124 N 0.48303 0.74081 0.16017 0.0
N125 N 0.48787 0.75019 0.23673 0.0
N126 N 0.47903 0.72013 0.22814 0.0
C127 C 0.4875 0.75412 0.18808 0.0
C128 C 0.4835 0.7331 0.25676 0.0
C129 C 0.4788 0.72379 0.17996 0.0
C130 C 0.49163 0.77264 0.16461 0.0
C131 C 0.49722 0.77454 0.11645 0.0
C132 C 0.49939 0.79195 0.092 0.0
C133 C 0.49581 0.80801 0.11475 0.0
C134 C 0.49095 0.80613 0.16355 0.0
C135 C 0.48895 0.78859 0.18832 0.0
C136 C 0.48436 0.72762 0.30886 0.0
C137 C 0.49983 0.73162 0.33676 0.0
C138 C 0.50295 0.72218 0.3826 0.0
C139 C 0.49054 0.70876 0.40125 0.0
C140 C 0.47429 0.706 0.37447 0.0
C141 C 0.47128 0.71528 0.32892 0.0
C142 C 0.4748 0.70902 0.14971 0.0
C143 C 0.47451 0.6906 0.17032 0.0
C144 C 0.19226 0.42656 0.13773 0.0
C145 C 0.19763 0.44062 0.1031 0.0
C146 C 0.21391 0.45015 0.1118 0.0
C147 C 0.22386 0.44643 0.15544 0.0
H148 H 0.27614 0.45306 0.25168 0.0
H149 H 0.30773 0.45837 0.28279 0.0
H150 H 0.29718 0.42204 0.41045 0.0
H151 H 0.26592 0.41689 0.37984 0.0
H152 H 0.22048 0.44098 0.41346 0.0
H153 H 0.19506 0.44838 0.46771 0.0
H154 H 0.1541 0.43 0.37126 0.0
H155 H 0.17941 0.42305 0.31637 0.0
H156 H 0.1968 0.41282 0.20819 0.0
H157 H 0.17971 0.41908 0.13267 0.0
H158 H 0.21849 0.46097 0.08565 0.0
H159 H 0.23568 0.45465 0.16238 0.0
N160 N 0.24308 0.43392 0.25231 0.0
N161 N 0.23522 0.43192 0.33403 0.0
N162 N 0.2115 0.4308 0.27663 0.0
C163 C 0.24853 0.43329 0.29917 0.0
C164 C 0.21668 0.43077 0.32303 0.0
C165 C 0.22447 0.43231 0.24114 0.0
C166 C 0.26855 0.43465 0.31347 0.0
C167 C 0.28079 0.44596 0.28591 0.0
C168 C 0.29878 0.44909 0.30384 0.0
C169 C 0.30492 0.44063 0.34909 0.0
C170 C 0.29298 0.42861 0.37531 0.0
C171 C 0.275 0.42576 0.35787 0.0
C172 C 0.20194 0.43175 0.36012 0.0
C173 C 0.2061 0.43816 0.40422 0.0
C174 C 0.19152 0.44235 0.43547 0.0
C175 C 0.17253 0.44008 0.42338 0.0
C176 C 0.16855 0.43233 0.38103 0.0
C177 C 0.18309 0.42826 0.34967 0.0
C178 C 0.21749 0.43332 0.19122 0.0
C179 C 0.20201 0.42303 0.18124 0.0
C180 C 0.97779 0.21602 0.1388 0.0
C181 C 0.9943 0.21809 0.11143 0.0
C182 C 0.00686 0.23148 0.12242 0.0
C183 C 0.00328 0.24196 0.16106 0.0
H184 H 0.96317 0.29901 0.29959 0.0
H185 H 0.96971 0.32622 0.33883 0.0
H186 H 0.02951 0.30991 0.34197 0.0
H187 H 0.0227 0.28246 0.30268 0.0
H188 H 0.97974 0.24145 0.41087 0.0
H189 H 0.9702 0.21781 0.47275 0.0
H190 H 0.93732 0.19368 0.36782 0.0
H191 H 0.94766 0.21674 0.30579 0.0
H192 H 0.96167 0.22383 0.19801 0.0
H193 H 0.9679 0.20571 0.13237 0.0
H194 H 0.01963 0.23358 0.10185 0.0
H195 H 0.01353 0.25158 0.16998 0.0
N196 N 0.99062 0.26395 0.24373 0.0
N197 N 0.97887 0.25968 0.32248 0.0
N198 N 0.97574 0.23683 0.27137 0.0
C199 C 0.98752 0.27032 0.28727 0.0
C200 C 0.97299 0.2429 0.31472 0.0
C201 C 0.98451 0.24707 0.23572 0.0
C202 C 0.99247 0.28888 0.29745 0.0
C203 C 0.97778 0.30167 0.307 0.0
C204 C 0.98156 0.31725 0.3296 0.0
C205 C 1.00014 0.32026 0.3439 0.0
C206 C 0.01502 0.30794 0.33182 0.0
C207 C 0.0112 0.29237 0.30874 0.0
C208 C 0.96467 0.23073 0.35347 0.0
C209 C 0.97021 0.23126 0.4013 0.0
C210 C 0.96466 0.21774 0.4368 0.0
C211 C 0.95322 0.20363 0.42518 0.0
C212 C 0.94657 0.20401 0.37783 0.0
C213 C 0.9524 0.21729 0.3423 0.0
C214 C 0.98718 0.23907 0.18959 0.0
C215 C 0.97429 0.22636 0.17703 0.0
C216 C 0.27976 0.085 0.13858 0.0
C217 C 0.28499 0.06772 0.12324 0.0
C218 C 0.27642 0.05197 0.14475 0.0
C219 C 0.26451 0.05325 0.18424 0.0
H220 H 0.20251 0.057 0.2736 0.0
H221 H 0.17151 0.05163 0.3102 0.0
H222 H 0.19231 0.06818 0.44295 0.0
H223 H 0.22264 0.07386 0.40689 0.0
H224 H 0.26503 0.07884 0.42623 0.0
H225 H 0.29145 0.07766 0.48282 0.0
H226 H 0.33061 0.06774 0.36919 0.0
H227 H 0.3045 0.06971 0.31274 0.0
H228 H 0.26568 0.09946 0.19197 0.0
H229 H 0.28588 0.09742 0.12224 0.0
H230 H 0.28023 0.03845 0.13392 0.0
H231 H 0.25964 0.0407 0.2033 0.0
N232 N 0.23799 0.0681 0.26944 0.0
N233 N 0.24885 0.07092 0.34748 0.0
N234 N 0.27002 0.07308 0.28395 0.0
C235 C 0.23438 0.06845 0.31711 0.0
C236 C 0.26668 0.07316 0.33126 0.0
C237 C 0.25589 0.07064 0.25296 0.0
C238 C 0.21515 0.06583 0.33719 0.0
C239 C 0.20035 0.05965 0.31043 0.0
C240 C 0.18264 0.05647 0.33146 0.0
C241 C 0.17938 0.05959 0.37943 0.0
C242 C 0.19414 0.06596 0.4057 0.0
C243 C 0.2117 0.06906 0.38495 0.0
C244 C 0.28262 0.07424 0.36499 0.0
C245 C 0.27932 0.07667 0.41329 0.0
C246 C 0.29446 0.0759 0.44578 0.0
C247 C 0.3132 0.0725 0.43076 0.0
C248 C 0.31646 0.07072 0.38209 0.0
C249 C 0.3014 0.0717 0.34961 0.0
C250 C 0.26096 0.07027 0.20243 0.0
C251 C 0.26797 0.08623 0.17802 0.0
C252 C 0.54483 0.34326 0.36413 0.0
C253 C 0.54539 0.3409 0.4143 0.0
C254 C 0.54414 0.3231 0.43832 0.0
C255 C 0.54137 0.30805 0.41252 0.0
H256 H 0.5276 0.25473 0.42746 0.0
H257 H 0.52215 0.22507 0.47064 0.0
H258 H 0.50709 0.204 0.33852 0.0
H259 H 0.51298 0.23394 0.29438 0.0
H260 H 0.49463 0.28326 0.20677 0.0
H261 H 0.48702 0.30251 0.13099 0.0
H262 H 0.54451 0.31964 0.12414 0.0
H263 H 0.55203 0.30063 0.19922 0.0
H264 H 0.54142 0.33079 0.29974 0.0
H265 H 0.54601 0.35681 0.34477 0.0
H266 H 0.54448 0.32096 0.47707 0.0
H267 H 0.53978 0.29461 0.43206 0.0
N268 N 0.53084 0.27858 0.35673 0.0
N269 N 0.52242 0.26865 0.28284 0.0
N270 N 0.53291 0.29847 0.2865 0.0
C271 C 0.52475 0.2651 0.33134 0.0
C272 C 0.52675 0.28538 0.26041 0.0
C273 C 0.5349 0.29532 0.33456 0.0
C274 C 0.52074 0.24685 0.35718 0.0
C275 C 0.52306 0.2439 0.40724 0.0
C276 C 0.51978 0.22684 0.43228 0.0
C277 C 0.51399 0.21217 0.4082 0.0
C278 C 0.51162 0.21501 0.35813 0.0
C279 C 0.51491 0.2322 0.33287 0.0
C280 C 0.52389 0.29055 0.20868 0.0
C281 C 0.50582 0.29042 0.18768 0.0
C282 C 0.50145 0.3015 0.14459 0.0
C283 C 0.51513 0.31275 0.12239 0.0
C284 C 0.53369 0.31123 0.14088 0.0
C285 C 0.53801 0.30026 0.18362 0.0
C286 C 0.53997 0.31057 0.36225 0.0
C287 C 0.54224 0.32828 0.3384 0.0
Co288 Co 0.00702 0.01786 0.78377 0.0
C289 C 0.97492 0.00303 0.82244 0.0
Co290 Co 0.99337 1.0004 0.73486 0.0
C291 C 0.01106 0.0486 0.83968 0.0
C292 C 0.03719 0.03264 0.83498 0.0
N293 N 0.01875 0.03334 0.82211 0.0
N294 N 0.02398 0.05761 0.86256 0.0
C295 C 0.04044 0.04748 0.85979 0.0
H296 H 0.99635 0.05337 0.83419 0.0
H297 H 0.04771 0.02227 0.82589 0.0
C298 C 0.02572 0.01499 0.69666 0.0
N299 N 0.9813 0.98505 0.69661 0.0
C300 C 0.98785 0.96907 0.68037 0.0
C301 C 0.96293 0.987 0.68282 0.0
N302 N 0.97423 0.96092 0.65747 0.0
C303 C 0.95858 0.97231 0.65879 0.0
C304 C 0.98068 0.03706 0.72079 0.0
O305 O 0.026 0.022 0.73625 0.0
O306 O 0.01242 0.00468 0.68815 0.0
O307 O 0.97876 0.02145 0.7057 0.0
O308 O 0.99235 0.03836 0.75448 0.0
O309 O 0.97446 0.99608 0.7828 0.0
H310 H 0.95314 0.99816 0.69086 0.0
H311 H 0.00215 0.96318 0.68683 0.0
O312 O 0.98805 0.01358 0.83029 0.0
O313 O 0.02149 0.99687 0.81333 0.0
O314 O 0.00805 0.97992 0.76416 0.0
C315 C 0.01946 0.98121 0.79851 0.0
H316 H 0.05396 0.05058 0.87433 0.0
H317 H 0.94485 0.97016 0.64379 0.0
Co318 Co 0.49907 0.0193 0.79578 0.0
C319 C 0.5005 0.98142 0.81751 0.0
Co320 Co 0.51311 0.00436 0.73984 0.0
C321 C 0.46824 0.02908 0.85634 0.0
C322 C 0.49102 0.04703 0.86003 0.0
N323 N 0.48594 0.03199 0.84026 0.0
N324 N 0.4619 0.04183 0.88494 0.0
C325 C 0.47632 0.05309 0.8875 0.0
H326 H 0.46006 0.01794 0.84643 0.0
H327 H 0.5043 0.05354 0.85353 0.0
C328 C 0.51184 0.04229 0.71835 0.0
N329 N 0.52616 0.99165 0.69531 0.0
C330 C 0.54418 0.99389 0.68087 0.0
C331 C 0.52051 0.97734 0.67326 0.0
N332 N 0.55015 0.98144 0.65112 0.0
C333 C 0.5352 0.97103 0.64611 0.0
C334 C 0.47531 0.0112 0.72183 0.0
O335 O 0.50333 0.04205 0.75824 0.0
O336 O 0.51789 0.02711 0.70394 0.0
O337 O 0.49027 0.004 0.70499 0.0
O338 O 0.47605 0.01797 0.76152 0.0
O339 O 0.50812 0.9815 0.77652 0.0
H340 H 0.50676 0.97157 0.67761 0.0
H341 H 0.55298 0.00406 0.69355 0.0
O342 O 0.49513 0.99663 0.83275 0.0
O343 O 0.52221 0.02042 0.8296 0.0
O344 O 0.53585 0.00507 0.77479 0.0
C345 C 0.53698 0.01266 0.81317 0.0
H346 H 0.47604 0.06531 0.90623 0.0
H347 H 0.53491 0.95955 0.62476 0.0
Co348 Co 0.51657 0.51043 0.76941 0.0
C349 C 0.49893 0.47884 0.80541 0.0
Co350 Co 0.48757 0.50871 0.74006 0.0
C351 C 0.54595 0.51393 0.84019 0.0
C352 C 0.55657 0.51517 0.76872 0.0
N353 N 0.54072 0.51236 0.79448 0.0
N354 N 0.56434 0.5179 0.8437 0.0
C355 C 0.57106 0.51856 0.79878 0.0
H356 H 0.53623 0.51319 0.86992 0.0
H357 H 0.55735 0.51554 0.7302 0.0
C358 C 0.50518 0.54038 0.70428 0.0
N359 N 0.46335 0.50771 0.71387 0.0
C360 C 0.4569 0.49618 0.68354 0.0
C361 C 0.449 0.52057 0.71647 0.0
N362 N 0.43926 0.50155 0.66675 0.0
C363 C 0.43424 0.51681 0.68782 0.0
C364 C 0.48828 0.52686 0.8212 0.0
O365 O 0.51894 0.53332 0.73062 0.0
O366 O 0.49012 0.5317 0.70279 0.0
O367 O 0.47729 0.52147 0.79038 0.0
O368 O 0.50601 0.52338 0.81854 0.0
O369 O 0.48526 0.48564 0.77811 0.0
H370 H 0.44951 0.53249 0.73615 0.0
H371 H 0.46535 0.48468 0.6719 0.0
O372 O 0.51391 0.48768 0.80752 0.0
O373 O 0.52685 0.49723 0.72015 0.0
O374 O 0.4983 0.49604 0.69012 0.0
C375 C 0.51601 0.49202 0.68867 0.0
H376 H 0.58534 0.5217 0.78817 0.0
H377 H 0.42101 0.52498 0.68205 0.0
Co378 Co 0.00476 0.52147 0.77335 0.0
C379 C 0.03238 0.49633 0.81603 0.0
Co380 Co 0.99975 0.4923 0.76333 0.0
C381 C 0.99874 0.55649 0.81419 0.0
C382 C 0.02434 0.55495 0.774 0.0
N383 N 0.00866 0.54573 0.78549 0.0
N384 N 0.00781 0.57178 0.82166 0.0
C385 C 0.02388 0.57087 0.7962 0.0
H386 H 0.98585 0.55253 0.83229 0.0
H387 H 0.03604 0.54985 0.75343 0.0
C388 C 0.97211 0.5174 0.7207 0.0
N389 N 0.99679 0.46801 0.75118 0.0
C390 C 0.99593 0.46156 0.70788 0.0
C391 C 0.99837 0.45275 0.78287 0.0
N392 N 0.99731 0.44292 0.71116 0.0
C393 C 0.99874 0.43733 0.75842 0.0
C394 C 0.98269 0.5029 0.8436 0.0
O395 O 0.98201 0.5293 0.73781 0.0
O396 O 0.97761 0.50039 0.72708 0.0
O397 O 0.9847 0.48924 0.81919 0.0
O398 O 0.99038 0.51786 0.82993 0.0
O399 O 0.02219 0.48451 0.79991 0.0
H400 H 1.00015 0.45283 0.8211 0.0
H401 H 0.99552 0.4704 0.67435 0.0
O402 O 0.02718 0.51337 0.8086 0.0
O403 O 0.01935 0.52454 0.71632 0.0
O404 O 0.01449 0.49565 0.70804 0.0
C405 C 0.02186 0.51061 0.69312 0.0
H406 H 0.03497 0.58056 0.79566 0.0
H407 H 1.00043 0.42313 0.7742 0.0
H408 H 0.15727 0.03006 0.37295 0.0
H409 H 0.12946 0.02193 0.4212 0.0
H410 H 0.13266 0.07192 0.48932 0.0
H411 H 0.16002 0.08034 0.44066 0.0
H412 H 0.1321 0.04002 0.55376 0.0
H413 H 0.09776 0.06847 0.41319 0.0
H414 H 0.0893 0.07228 0.32735 0.0
H415 H 0.07211 0.01644 0.33779 0.0
H416 H 0.08072 0.01222 0.42361 0.0
H417 H 0.05027 0.04263 0.69297 0.0
H418 H 0.0749 0.04945 0.63417 0.0
H419 H 0.06005 0.00308 0.56106 0.0
H420 H 0.03476 0.99664 0.61892 0.0
H421 H 0.06708 0.03045 0.49757 0.0
H422 H 0.10009 0.00134 0.63603 0.0
H423 H 0.10914 0.99593 0.72142 0.0
H424 H 0.13008 0.05029 0.71477 0.0
H425 H 0.12092 0.05613 0.62947 0.0
C426 C 0.15177 0.03953 0.39736 0.0
C427 C 0.16102 0.05574 0.40335 0.0
C428 C 0.13593 0.03482 0.42506 0.0
C429 C 0.12911 0.04627 0.45909 0.0
C430 C 0.13781 0.06281 0.4636 0.0
C431 C 0.15349 0.06756 0.43584 0.0
C432 C 0.1137 0.04059 0.49233 0.0
C433 C 0.11781 0.03812 0.54155 0.0
C434 C 0.0953 0.03741 0.47621 0.0
C435 C 0.09008 0.03996 0.42469 0.0
C436 C 0.09234 0.05695 0.39709 0.0
C437 C 0.08748 0.05919 0.34846 0.0
C438 C 0.08022 0.04459 0.3271 0.0
C439 C 0.07776 0.02773 0.35436 0.0
C440 C 0.08261 0.02541 0.403 0.0
C441 C 0.05224 0.03386 0.66442 0.0
C442 C 0.04066 0.01901 0.66082 0.0
C443 C 0.0664 0.03772 0.63088 0.0
C444 C 0.06965 0.02655 0.59364 0.0
C445 C 0.05789 0.01187 0.58951 0.0
C446 C 0.04348 0.00817 0.6227 0.0
C447 C 0.08535 0.03025 0.5593 0.0
C448 C 0.08136 0.03225 0.5099 0.0
C449 C 0.10401 0.03273 0.57517 0.0
C450 C 0.10967 0.02922 0.62642 0.0
C451 C 0.10651 0.01219 0.65285 0.0
C452 C 0.11168 0.00904 0.70123 0.0
C453 C 0.12014 0.02277 0.72353 0.0
C454 C 0.12351 0.03967 0.69745 0.0
C455 C 0.11835 0.0429 0.64907 0.0
H456 H 0.12412 0.02031 0.76099 0.0
H457 H 0.07647 0.04636 0.28944 0.0
H458 H 0.49684 0.20557 0.49499 0.0
H459 H 0.4957 0.17619 0.54518 0.0
H460 H 0.52288 0.148 0.43438 0.0
H461 H 0.52446 0.1775 0.38406 0.0
H462 H 0.4929 0.12848 0.48212 0.0
H463 H 0.54951 0.15817 0.52019 0.0
H464 H 0.56747 0.18411 0.54215 0.0
H465 H 0.53607 0.18481 0.67258 0.0
H466 H 0.51771 0.15905 0.65101 0.0
H467 H 0.52496 0.04697 0.6267 0.0
H468 H 0.5245 0.07556 0.57263 0.0
H469 H 0.50116 0.10587 0.68446 0.0
H470 H 0.5016 0.07731 0.73895 0.0
H471 H 0.52908 0.12412 0.63513 0.0
H472 H 0.47271 0.09483 0.59989 0.0
H473 H 0.45406 0.06903 0.58006 0.0
H474 H 0.48348 0.06783 0.44688 0.0
H475 H 0.50257 0.09342 0.46632 0.0
C476 C 0.50256 0.19314 0.48115 0.0
C477 C 0.51103 0.19395 0.43576 0.0
C478 C 0.5018 0.17634 0.50982 0.0
C479 C 0.50944 0.15997 0.49375 0.0
C480 C 0.51692 0.1605 0.44743 0.0
C481 C 0.51776 0.17737 0.41869 0.0
C482 C 0.51076 0.14263 0.52671 0.0
C483 C 0.50101 0.12741 0.51525 0.0
C484 C 0.52097 0.14142 0.57049 0.0
C485 C 0.53212 0.1568 0.58375 0.0
C486 C 0.54633 0.16395 0.55337 0.0
C487 C 0.5566 0.17861 0.56578 0.0
C488 C 0.55288 0.18614 0.60868 0.0
C489 C 0.53892 0.17899 0.63933 0.0
C490 C 0.52859 0.16435 0.62705 0.0
C491 C 0.5199 0.05973 0.64002 0.0
C492 C 0.51325 0.05985 0.68713 0.0
C493 C 0.51954 0.07604 0.60894 0.0
C494 C 0.51255 0.09278 0.62433 0.0
C495 C 0.50655 0.09308 0.67182 0.0
C496 C 0.5068 0.07674 0.7029 0.0
C497 C 0.51123 0.10993 0.59064 0.0
C498 C 0.52098 0.12514 0.60197 0.0
C499 C 0.50088 0.11114 0.54702 0.0
C500 C 0.48922 0.09593 0.5348 0.0
C501 C 0.47532 0.08898 0.56653 0.0
C502 C 0.46465 0.0744 0.55536 0.0
C503 C 0.46762 0.06676 0.5123 0.0
C504 C 0.48122 0.07374 0.48026 0.0
C505 C 0.49196 0.08829 0.49133 0.0
H506 H 0.45935 0.05547 0.50372 0.0
H507 H 0.56084 0.19748 0.61823 0.0
H508 H 0.31816 0.47487 0.35365 0.0
H509 H 0.34498 0.48291 0.40088 0.0
H510 H 0.35904 0.42507 0.44274 0.0
H511 H 0.33194 0.41701 0.39621 0.0
H512 H 0.35841 0.44253 0.51819 0.0
H513 H 0.38781 0.45273 0.36629 0.0
H514 H 0.3908 0.46497 0.28157 0.0
H515 H 0.38607 0.52042 0.32016 0.0
H516 H 0.38278 0.50852 0.40507 0.0
H517 H 0.43977 0.46572 0.64822 0.0
H518 H 0.42082 0.4529 0.58753 0.0
H519 H 0.39587 0.50733 0.54229 0.0
H520 H 0.41485 0.52015 0.60194 0.0
H521 H 0.40543 0.4884 0.4659 0.0
H522 H 0.37224 0.47749 0.61622 0.0
H523 H 0.36932 0.46501 0.70081 0.0
H524 H 0.38191 0.41008 0.66362 0.0
H525 H 0.38515 0.42229 0.57883 0.0
C526 C 0.32725 0.46386 0.37193 0.0
C527 C 0.32294 0.44531 0.37122 0.0
C528 C 0.34262 0.46846 0.39898 0.0
C529 C 0.35419 0.4546 0.42526 0.0
C530 C 0.35033 0.43603 0.42297 0.0
C531 C 0.33486 0.43143 0.3963 0.0
C532 C 0.36927 0.45956 0.45804 0.0
C533 C 0.36895 0.45225 0.50638 0.0
C534 C 0.38288 0.47248 0.4431 0.0
C535 C 0.38491 0.47972 0.39205 0.0
C536 C 0.38727 0.46753 0.35669 0.0
C537 C 0.38904 0.47441 0.30863 0.0
C538 C 0.38859 0.49346 0.29548 0.0
C539 C 0.38641 0.50567 0.33039 0.0
C540 C 0.38461 0.49886 0.37851 0.0
C541 C 0.43036 0.47493 0.62502 0.0
C542 C 0.42865 0.49391 0.63032 0.0
C543 C 0.41949 0.4676 0.59053 0.0
C544 C 0.40681 0.47915 0.56061 0.0
C545 C 0.40552 0.49815 0.56498 0.0
C546 C 0.41624 0.50543 0.59952 0.0
C547 C 0.3943 0.47156 0.5258 0.0
C548 C 0.39508 0.47842 0.47725 0.0
C549 C 0.38117 0.45816 0.54043 0.0
C550 C 0.37916 0.45082 0.59132 0.0
C551 C 0.37454 0.46277 0.62615 0.0
C552 C 0.3728 0.45574 0.67411 0.0
C553 C 0.37549 0.43677 0.68761 0.0
C554 C 0.37987 0.42478 0.65313 0.0
C555 C 0.38165 0.43174 0.60512 0.0
H556 H 0.37413 0.43135 0.72476 0.0
H557 H 0.38996 0.49876 0.25825 0.0
H558 H 0.02325 0.31791 0.4231 0.0
H559 H 0.02518 0.34021 0.48165 0.0
H560 H 0.98578 0.37778 0.39727 0.0
H561 H 0.98415 0.35572 0.33773 0.0
H562 H 0.01348 0.39633 0.4372 0.0
H563 H 0.97009 0.35015 0.49003 0.0
H564 H 0.96001 0.31847 0.51056 0.0
H565 H 0.00316 0.30887 0.61981 0.0
H566 H 0.01368 0.34043 0.59942 0.0
H567 H 0.98144 0.45002 0.62261 0.0
H568 H 0.9841 0.43055 0.55692 0.0
H569 H 0.02001 0.39074 0.64521 0.0
H570 H 0.01712 0.40999 0.71104 0.0
H571 H 0.99462 0.37362 0.60203 0.0
H572 H 0.03729 0.42093 0.55032 0.0
H573 H 0.0465 0.45291 0.52913 0.0
H574 H 0.00402 0.46086 0.41827 0.0
H575 H 0.99438 0.42901 0.43893 0.0
C576 C 0.01536 0.3311 0.41623 0.0
C577 C 0.00345 0.33494 0.37572 0.0
C578 C 0.01634 0.34378 0.45008 0.0
C579 C 0.00537 0.36056 0.44436 0.0
C580 C 0.9943 0.3649 0.40265 0.0
C581 C 0.99329 0.35221 0.36878 0.0
C582 C 0.00449 0.37297 0.48324 0.0
C583 C 0.00921 0.39143 0.47317 0.0
C584 C 0.99915 0.36654 0.53038 0.0
C585 C 0.9928 0.34759 0.54285 0.0
C586 C 0.97753 0.34124 0.51817 0.0
C587 C 0.97172 0.32331 0.52982 0.0
C588 C 0.98097 0.31164 0.56638 0.0
C589 C 0.99603 0.31791 0.59144 0.0
C590 C 0.00191 0.33582 0.57987 0.0
C591 C 0.99 0.43717 0.62787 0.0
C592 C 0.99896 0.43152 0.6722 0.0
C593 C 0.99158 0.42607 0.5902 0.0
C594 C 0.00244 0.40921 0.59575 0.0
C595 C 0.01149 0.40362 0.63995 0.0
C596 C 0.00976 0.41462 0.67772 0.0
C597 C 0.00382 0.39702 0.55634 0.0
C598 C 0.99908 0.37856 0.56624 0.0
C599 C 0.00909 0.4035 0.50911 0.0
C600 C 0.015 0.42262 0.49646 0.0
C601 C 0.02982 0.42953 0.52163 0.0
C602 C 0.03513 0.44762 0.50971 0.0
C603 C 0.02582 0.45891 0.47258 0.0
C604 C 0.01121 0.45211 0.44709 0.0
C605 C 0.00583 0.43403 0.45882 0.0
H606 H 0.02996 0.47292 0.46349 0.0
H607 H 0.97645 0.29777 0.57536 0.0
H608 H 0.85552 0.98203 0.16989 0.0
H609 H 0.88245 0.98958 0.11868 0.0
H610 H 0.87755 0.93912 0.05345 0.0
H611 H 0.8513 0.93096 0.10641 0.0
H612 H 0.91363 0.94617 0.05942 0.0
H613 H 0.85664 0.98078 0.0029 0.0
H614 H 0.82831 0.00174 0.00872 0.0
H615 H 0.86361 0.04514 0.03963 0.0
H616 H 0.89215 0.02434 0.03464 0.0
H617 H 0.95192 0.97395 0.82908 0.0
H618 H 0.93033 0.96464 0.89419 0.0
H619 H 0.94494 0.01127 0.96631 0.0
H620 H 0.96677 0.02055 0.90172 0.0
H621 H 0.90547 0.00655 0.95977 0.0
H622 H 0.96312 0.97133 0.00596 0.0
H623 H 0.99052 0.94966 0.99616 0.0
H624 H 0.95302 0.90631 0.98034 0.0
H625 H 0.92536 0.92785 0.98857 0.0
C626 C 0.86048 0.97226 0.14569 0.0
C627 C 0.851 0.956 0.14188 0.0
C628 C 0.87577 0.97671 0.11595 0.0
C629 C 0.88172 0.96516 0.08126 0.0
C630 C 0.87312 0.94836 0.07955 0.0
C631 C 0.85796 0.9438 0.10959 0.0
C632 C 0.89591 0.97116 0.04458 0.0
C633 C 0.91177 0.9593 0.03737 0.0
C634 C 0.89363 0.9884 0.01608 0.0
C635 C 0.8765 0.00095 0.01893 0.0
C636 C 0.85834 0.99476 0.01129 0.0
C637 C 0.84225 0.00661 0.01439 0.0
C638 C 0.84415 0.02474 0.02468 0.0
C639 C 0.86216 0.03108 0.03176 0.0
C640 C 0.87829 0.01927 0.02878 0.0
C641 C 0.95046 0.98228 0.85868 0.0
C642 C 0.96102 0.99801 0.86025 0.0
C643 C 0.93823 0.97687 0.89597 0.0
C644 C 0.9362 0.98717 0.93522 0.0
C645 C 0.94639 0.00309 0.9364 0.0
C646 C 0.95884 0.00837 0.89949 0.0
C647 C 0.92311 0.98156 0.97459 0.0
C648 C 0.90741 0.99348 0.98211 0.0
C649 C 0.92544 0.96427 0.00275 0.0
C650 C 0.94211 0.9513 0.99734 0.0
C651 C 0.96068 0.95725 0.99972 0.0
C652 C 0.97628 0.94497 0.9945 0.0
C653 C 0.97352 0.92663 0.98747 0.0
C654 C 0.95515 0.92054 0.9856 0.0
C655 C 0.9395 0.93278 0.99048 0.0
H656 H 0.98562 0.91714 0.98365 0.0
H657 H 0.83168 0.0339 0.02705 0.0
H658 H 0.48344 0.81825 0.02294 0.0
H659 H 0.48558 0.84803 0.97552 0.0
H660 H 0.51117 0.86988 0.09541 0.0
H661 H 0.50952 0.83982 0.14316 0.0
H662 H 0.48274 0.89356 0.05001 0.0
H663 H 0.53862 0.85935 0.00618 0.0
H664 H 0.5568 0.83262 0.97903 0.0
H665 H 0.52543 0.83939 0.84657 0.0
H666 H 0.50686 0.86601 0.87322 0.0
H667 H 0.50636 0.97652 0.91342 0.0
H668 H 0.507 0.94768 0.96624 0.0
H669 H 0.49273 0.91837 0.84651 0.0
H670 H 0.49357 0.94716 0.79294 0.0
H671 H 0.51719 0.89858 0.89605 0.0
H672 H 0.45976 0.93181 0.94177 0.0
H673 H 0.44129 0.95822 0.96999 0.0
H674 H 0.47482 0.95296 0.09899 0.0
H675 H 0.49363 0.92671 0.0713 0.0
C676 C 0.48979 0.82927 0.03921 0.0
C677 C 0.49656 0.82651 0.08678 0.0
C678 C 0.49091 0.84633 0.01202 0.0
C679 C 0.49878 0.86109 0.0317 0.0
C680 C 0.50511 0.85863 0.07951 0.0
C681 C 0.50408 0.84146 0.10678 0.0
C682 C 0.50021 0.87908 0.00211 0.0
C683 C 0.49046 0.89476 0.01661 0.0
C684 C 0.51 0.88051 0.95815 0.0
C685 C 0.52124 0.86458 0.94188 0.0
C686 C 0.5355 0.85506 0.97141 0.0
C687 C 0.54589 0.83994 0.95608 0.0
C688 C 0.54224 0.83428 0.91115 0.0
C689 C 0.52823 0.84377 0.88138 0.0
C690 C 0.51778 0.85889 0.89656 0.0
C691 C 0.50319 0.96392 0.89853 0.0
C692 C 0.49963 0.96405 0.84929 0.0
C693 C 0.50343 0.94743 0.92882 0.0
C694 C 0.49937 0.9308 0.91087 0.0
C695 C 0.49583 0.93097 0.86147 0.0
C696 C 0.4962 0.94741 0.83086 0.0
C697 C 0.49926 0.91317 0.94314 0.0
C698 C 0.50937 0.89749 0.9293 0.0
C699 C 0.48967 0.91172 0.9876 0.0
C700 C 0.47819 0.9274 0.00428 0.0
C701 C 0.46324 0.93635 0.97604 0.0
C702 C 0.45271 0.95128 0.99195 0.0
C703 C 0.45692 0.95727 0.03621 0.0
C704 C 0.4716 0.94831 0.06471 0.0
C705 C 0.48218 0.93341 0.04896 0.0
H706 H 0.44882 0.96882 0.04854 0.0
H707 H 0.5503 0.82257 0.89935 0.0
H708 H 0.68853 0.57142 0.09767 0.0
H709 H 0.6602 0.56593 0.05306 0.0
H710 H 0.64326 0.52695 0.16941 0.0
H711 H 0.6722 0.53203 0.21399 0.0
H712 H 0.64056 0.51272 0.08666 0.0
H713 H 0.61818 0.56891 0.14222 0.0
H714 H 0.61898 0.6012 0.16032 0.0
H715 H 0.62429 0.61932 0.01073 0.0
H716 H 0.62381 0.58713 0.99173 0.0
H717 H 0.55949 0.50379 0.93597 0.0
H718 H 0.57757 0.51062 0.00628 0.0
H719 H 0.60963 0.54897 0.91603 0.0
H720 H 0.59159 0.54235 0.84627 0.0
H721 H 0.59906 0.56263 1.00019 0.0
H722 H 0.62754 0.50573 0.94886 0.0
H723 H 0.62701 0.47339 0.93089 0.0
H724 H 0.60964 0.45686 0.07469 0.0
H725 H 0.60983 0.48918 0.0933 0.0
C726 C 0.67874 0.56175 0.114 0.0
C727 C 0.68271 0.55203 0.15922 0.0
C728 C 0.66239 0.55877 0.08862 0.0
C729 C 0.64941 0.54617 0.10797 0.0
C730 C 0.65301 0.5368 0.1538 0.0
C731 C 0.66947 0.5398 0.17937 0.0
C732 C 0.633 0.54194 0.07833 0.0
C733 C 0.63116 0.5236 0.06877 0.0
C734 C 0.62082 0.55611 0.05442 0.0
C735 C 0.62104 0.57555 0.06559 0.0
C736 C 0.61964 0.57976 0.11319 0.0
C737 C 0.62002 0.59806 0.12361 0.0
C738 C 0.62171 0.6123 0.08671 0.0
C739 C 0.62298 0.60828 0.03928 0.0
C740 C 0.62262 0.59 0.02866 0.0
C741 C 0.57029 0.51378 0.93135 0.0
C742 C 0.57431 0.52234 0.88551 0.0
C743 C 0.58064 0.51763 0.97144 0.0
C744 C 0.59506 0.5302 0.96634 0.0
C745 C 0.5986 0.5392 0.92084 0.0
C746 C 0.58842 0.53525 0.88088 0.0
C747 C 0.60715 0.53359 0.00755 0.0
C748 C 0.60817 0.55175 0.01914 0.0
C749 C 0.61852 0.51927 0.03344 0.0
C750 C 0.61846 0.49988 0.02228 0.0
C751 C 0.62345 0.49522 0.97651 0.0
C752 C 0.62324 0.47689 0.96624 0.0
C753 C 0.61823 0.46309 0.00158 0.0
C754 C 0.61347 0.46758 0.04732 0.0
C755 C 0.61364 0.48589 0.05775 0.0
H756 H 0.61808 0.44891 0.99356 0.0
H757 H 0.622 0.62645 0.09485 0.0
H758 H 0.94615 0.68063 0.12747 0.0
H759 H 0.95062 0.65711 0.0718 0.0
H760 H 0.01003 0.65052 0.10933 0.0
H761 H 0.00568 0.67405 0.16482 0.0
H762 H 0.00389 0.65837 0.01295 0.0
H763 H 0.98113 0.61672 0.14028 0.0
H764 H 0.95926 0.60421 0.20209 0.0
H765 H 0.9166 0.60079 0.09467 0.0
H766 H 0.93805 0.61369 0.03226 0.0
H767 H 0.03237 0.58466 0.8819 0.0
H768 H 0.02495 0.60433 0.94512 0.0
H769 H 0.96569 0.60655 0.90599 0.0
H770 H 0.97316 0.58655 0.84252 0.0
H771 H 0.97059 0.6008 0.00252 0.0
H772 H 0.99215 0.6435 0.87609 0.0
H773 H 0.01381 0.65541 0.81296 0.0
H774 H 0.05797 0.65682 0.91771 0.0
H775 H 0.03664 0.64467 0.98143 0.0
C776 C 0.96009 0.67391 0.12451 0.0
C777 C 0.97558 0.67926 0.15048 0.0
C778 C 0.96261 0.66039 0.09284 0.0
C779 C 0.98067 0.65204 0.0863 0.0
C780 C 0.99596 0.65676 0.11382 0.0
C781 C 0.99342 0.67012 0.14582 0.0
C782 C 0.98406 0.63996 0.04731 0.0
C783 C 0.99679 0.64564 0.01113 0.0
C784 C 0.97427 0.62369 0.04388 0.0
C785 C 0.96113 0.61647 0.08161 0.0
C786 C 0.96698 0.6136 0.12987 0.0
C787 C 0.95467 0.60637 0.16502 0.0
C788 C 0.93652 0.60179 0.15235 0.0
C789 C 0.93064 0.60442 0.10447 0.0
C790 C 0.94287 0.6117 0.0692 0.0
C791 C 0.0178 0.58958 0.88626 0.0
C792 C 0.00335 0.58424 0.85702 0.0
C793 C 0.01355 0.60077 0.92254 0.0
C794 C 0.99479 0.60713 0.93004 0.0
C795 C 0.98028 0.60186 0.90081 0.0
C796 C 0.98454 0.59054 0.86449 0.0
C797 C 0.99049 0.61921 0.96858 0.0
C798 C 0.9776 0.61357 0.00445 0.0
C799 C 0.99998 0.63564 0.97168 0.0
C800 C 0.01284 0.64302 0.93347 0.0
C801 C 0.00652 0.64622 0.88562 0.0
C802 C 0.01874 0.65303 0.84974 0.0
C803 C 0.03727 0.65683 0.8613 0.0
C804 C 0.04361 0.65386 0.9088 0.0
C805 C 0.03146 0.64702 0.94482 0.0
H806 H 0.0467 0.66211 0.83347 0.0
H807 H 0.92704 0.59614 0.1796 0.0
H808 H 0.94661 0.20349 0.52185 0.0
H809 H 0.9447 0.17643 0.58108 0.0
H810 H 0.94999 0.14068 0.46861 0.0
H811 H 0.95252 0.16734 0.40971 0.0
H812 H 0.92327 0.12944 0.53659 0.0
H813 H 0.98775 0.14973 0.52891 0.0
H814 H 0.01275 0.17157 0.53622 0.0
H815 H 0.99859 0.17458 0.68377 0.0
H816 H 0.97321 0.15305 0.67702 0.0
H817 H 0.96617 0.04321 0.62993 0.0
H818 H 0.95432 0.07283 0.58854 0.0
H819 H 0.96009 0.09841 0.71909 0.0
H820 H 0.97271 0.06903 0.75992 0.0
H821 H 0.9768 0.11727 0.65236 0.0
H822 H 0.91561 0.09344 0.66459 0.0
H823 H 0.89116 0.07091 0.65877 0.0
H824 H 0.89872 0.07402 0.50664 0.0
H825 H 0.92341 0.09637 0.51158 0.0
C826 C 0.9473 0.18987 0.50972 0.0
C827 C 0.94977 0.18764 0.46094 0.0
C828 C 0.94609 0.17446 0.54356 0.0
C829 C 0.94727 0.1566 0.52912 0.0
C830 C 0.94888 0.15437 0.48039 0.0
C831 C 0.95025 0.16969 0.4467 0.0
C832 C 0.94838 0.14005 0.56454 0.0
C833 C 0.93493 0.12671 0.56205 0.0
C834 C 0.96332 0.13681 0.59852 0.0
C835 C 0.97835 0.15004 0.60221 0.0
C836 C 0.98978 0.15525 0.56271 0.0
C837 C 0.00405 0.16754 0.56679 0.0
C838 C 0.00719 0.17454 0.61036 0.0
C839 C 0.99608 0.16923 0.64997 0.0
C840 C 0.98173 0.15701 0.64601 0.0
C841 C 0.96452 0.05508 0.64996 0.0
C842 C 0.97051 0.05391 0.69791 0.0
C843 C 0.95763 0.07199 0.62639 0.0
C844 C 0.9562 0.08788 0.65076 0.0
C845 C 0.96113 0.08639 0.69949 0.0
C846 C 0.96833 0.0696 0.72277 0.0
C847 C 0.95184 0.10634 0.62416 0.0
C848 C 0.96477 0.12006 0.62805 0.0
C849 C 0.93636 0.10993 0.59176 0.0
C850 C 0.92146 0.09652 0.58853 0.0
C851 C 0.91215 0.08923 0.62993 0.0
C852 C 0.89823 0.0765 0.62678 0.0
C853 C 0.89341 0.07102 0.58238 0.0
C854 C 0.90247 0.07828 0.54101 0.0
C855 C 0.91641 0.09101 0.54396 0.0
H856 H 0.88263 0.06116 0.58002 0.0
H857 H 0.01829 0.18401 0.61348 0.0
H858 H 0.31288 0.05486 0.52204 0.0
H859 H 0.34007 0.04597 0.57505 0.0
H860 H 0.37708 0.07276 0.47116 0.0
H861 H 0.34989 0.08266 0.41882 0.0
H862 H 0.38522 0.0326 0.503 0.0
H863 H 0.37308 0.09191 0.56208 0.0
H864 H 0.35334 0.11602 0.59658 0.0
H865 H 0.34339 0.07824 0.7208 0.0
H866 H 0.36285 0.05381 0.68669 0.0
H867 H 0.47293 0.01914 0.62566 0.0
H868 H 0.44473 0.03009 0.57852 0.0
H869 H 0.41027 0.02146 0.70484 0.0
H870 H 0.43884 0.01179 0.75277 0.0
H871 H 0.39988 0.05234 0.6619 0.0
H872 H 0.41033 0.99286 0.60674 0.0
H873 H 0.42852 0.96723 0.57429 0.0
H874 H 0.43935 0.00249 0.44602 0.0
H875 H 0.42142 0.0284 0.47796 0.0
C876 C 0.32667 0.05942 0.51097 0.0
C877 C 0.32918 0.06933 0.4658 0.0
C878 C 0.3422 0.05419 0.54123 0.0
C879 C 0.36049 0.05863 0.52667 0.0
C880 C 0.36302 0.06914 0.4827 0.0
C881 C 0.34747 0.07466 0.45277 0.0
C882 C 0.37713 0.05092 0.55544 0.0
C883 C 0.38864 0.03703 0.53753 0.0
C884 C 0.38098 0.05629 0.60109 0.0
C885 C 0.36924 0.07096 0.62155 0.0
C886 C 0.36651 0.08867 0.5965 0.0
C887 C 0.35541 0.10242 0.61605 0.0
C888 C 0.34706 0.09865 0.66078 0.0
C889 C 0.34983 0.08114 0.68611 0.0
C890 C 0.36091 0.06734 0.6667 0.0
C891 C 0.45926 0.01918 0.64308 0.0
C892 C 0.45794 0.0144 0.69261 0.0
C893 C 0.44312 0.02542 0.61611 0.0
C894 C 0.42524 0.02631 0.63784 0.0
C895 C 0.42387 0.02091 0.6872 0.0
C896 C 0.44013 0.01522 0.71447 0.0
C897 C 0.4082 0.03385 0.60964 0.0
C898 C 0.39653 0.04775 0.62755 0.0
C899 C 0.40393 0.02818 0.56433 0.0
C900 C 0.41464 0.0126 0.54489 0.0
C901 C 0.41668 0.99517 0.57173 0.0
C902 C 0.42693 0.98059 0.55341 0.0
C903 C 0.43511 0.98324 0.50816 0.0
C904 C 0.43301 1.00046 0.48108 0.0
C905 C 0.42278 0.01509 0.49923 0.0
H906 H 0.44305 0.97193 0.49405 0.0
H907 H 0.33849 0.10931 0.67587 0.0
H908 H 0.5687 0.34611 0.48926 0.0
H909 H 0.56893 0.37337 0.5334 0.0
H910 H 0.52282 0.39928 0.44462 0.0
H911 H 0.52301 0.37244 0.39979 0.0
H912 H 0.54678 0.42378 0.45707 0.0
H913 H 0.51667 0.37724 0.56085 0.0
H914 H 0.51422 0.347 0.60828 0.0
H915 H 0.5625 0.35714 0.69296 0.0
H916 H 0.56539 0.38735 0.64555 0.0
H917 H 0.49852 0.48294 0.60837 0.0
H918 H 0.50915 0.45906 0.55812 0.0
H919 H 0.56069 0.4487 0.64174 0.0
H920 H 0.55032 0.47276 0.69184 0.0
H921 H 0.53933 0.41709 0.63343 0.0
H922 H 0.56519 0.4667 0.53361 0.0
H923 H 0.56455 0.49747 0.48755 0.0
H924 H 0.52069 0.4819 0.3962 0.0
H925 H 0.52085 0.45112 0.44217 0.0
C926 C 0.55868 0.35768 0.47929 0.0
C927 C 0.54587 0.35723 0.44115 0.0
C928 C 0.55878 0.37321 0.50449 0.0
C929 C 0.54577 0.38833 0.49262 0.0
C930 C 0.53309 0.38787 0.45427 0.0
C931 C 0.53318 0.37252 0.42872 0.0
C932 C 0.54487 0.40452 0.5205 0.0
C933 C 0.54506 0.42229 0.49562 0.0
C934 C 0.54305 0.40263 0.57094 0.0
C935 C 0.5414 0.38443 0.59925 0.0
C936 C 0.52687 0.37294 0.5893 0.0
C937 C 0.52538 0.35583 0.61623 0.0
C938 C 0.53824 0.35012 0.6535 0.0
C939 C 0.55259 0.36155 0.66399 0.0
C940 C 0.55416 0.37867 0.63711 0.0
C941 C 0.51229 0.47584 0.61547 0.0
C942 C 0.52356 0.47968 0.6541 0.0
C943 C 0.51835 0.46224 0.5867 0.0
C944 C 0.53569 0.45217 0.59633 0.0
C945 C 0.54728 0.45638 0.63381 0.0
C946 C 0.54135 0.47017 0.6622 0.0
C947 C 0.54082 0.43621 0.56981 0.0
C948 C 0.5414 0.41852 0.59498 0.0
C949 C 0.54297 0.43818 0.51962 0.0
C950 C 0.54295 0.45663 0.49158 0.0
C951 C 0.5553 0.46988 0.50393 0.0
C952 C 0.55504 0.48732 0.47779 0.0
C953 C 0.54256 0.49165 0.43903 0.0
C954 C 0.53035 0.47853 0.42625 0.0
C955 C 0.53054 0.46107 0.45229 0.0
H956 H 0.54238 0.50516 0.41885 0.0
H957 H 0.53705 0.33688 0.67434 0.0
H958 H 0.14 0.45912 0.39028 0.0
H959 H 0.1152 0.47332 0.43645 0.0
H960 H 0.14502 0.4531 0.56749 0.0
H961 H 0.16976 0.43821 0.52138 0.0
H962 H 0.1071 0.44938 0.57573 0.0
H963 H 0.14785 0.49724 0.52442 0.0
H964 H 0.16673 0.51647 0.46707 0.0
H965 H 0.11618 0.5358 0.38753 0.0
H966 H 0.09702 0.51647 0.44402 0.0
H967 H 0.05444 0.52894 0.68163 0.0
H968 H 0.08131 0.52006 0.63226 0.0
H969 H 0.04679 0.48227 0.56783 0.0
H970 H 0.02014 0.49077 0.6175 0.0
H971 H 0.09044 0.51638 0.53613 0.0
H972 H 0.07237 0.43947 0.58186 0.0
H973 H 0.05328 0.42156 0.64156 0.0
H974 H 0.0615 0.46101 0.74167 0.0
H975 H 0.08064 0.47911 0.68267 0.0
C976 C 0.14115 0.45734 0.42896 0.0
C977 C 0.15686 0.44749 0.45217 0.0
C978 C 0.12707 0.46568 0.45526 0.0
C979 C 0.12846 0.46453 0.50528 0.0
C980 C 0.14378 0.45424 0.52883 0.0
C981 C 0.15793 0.44585 0.50247 0.0
C982 C 0.11393 0.47432 0.53254 0.0
C983 C 0.10351 0.46403 0.56725 0.0
C984 C 0.10957 0.49353 0.52218 0.0
C985 C 0.12101 0.5053 0.4883 0.0
C986 C 0.14077 0.5055 0.49452 0.0
C987 C 0.15152 0.51643 0.46219 0.0
C988 C 0.14266 0.52733 0.42364 0.0
C989 C 0.12302 0.52735 0.4174 0.0
C990 C 0.11221 0.51642 0.4496 0.0
C991 C 0.0524 0.51932 0.65549 0.0
C992 C 0.03539 0.51033 0.65366 0.0
C993 C 0.06776 0.51421 0.62751 0.0
C994 C 0.06609 0.50016 0.59752 0.0
C995 C 0.0484 0.49286 0.59154 0.0
C996 C 0.03319 0.49779 0.61973 0.0
C997 C 0.08316 0.49129 0.57767 0.0
C998 C 0.09412 0.50176 0.5447 0.0
C999 C 0.08824 0.4723 0.5904 0.0
C1000 C 0.0777 0.46085 0.62735 0.0
C1001 C 0.07015 0.44431 0.61662 0.0
C1002 C 0.05929 0.43413 0.65035 0.0
C1003 C 0.05608 0.4402 0.69529 0.0
C1004 C 0.06388 0.45637 0.70675 0.0
C1005 C 0.0747 0.46662 0.6731 0.0
H1006 H 0.0476 0.43234 0.72127 0.0
H1007 H 0.15101 0.53578 0.39864 0.0
H1008 H 0.98385 0.85395 0.08313 0.0
H1009 H 0.99307 0.87893 0.02413 0.0
H1010 H 0.04486 0.84761 0.99761 0.0
H1011 H 0.03571 0.82251 0.05693 0.0
H1012 H 0.04999 0.88517 0.00817 0.0
H1013 H 0.0118 0.84858 0.92055 0.0
H1014 H 0.98385 0.83153 0.9034 0.0
H1015 H 0.94878 0.88181 0.89451 0.0
H1016 H 0.97648 0.89913 0.91205 0.0
H1017 H 0.02722 0.94826 0.76405 0.0
H1018 H 0.03291 0.91836 0.81136 0.0
H1019 H 0.03457 0.94557 0.94026 0.0
H1020 H 0.02956 0.97554 0.89284 0.0
H1021 H 0.00748 0.90598 0.86973 0.0
H1022 H 0.0557 0.91782 0.03104 0.0
H1023 H 0.08437 0.93419 0.04626 0.0
H1024 H 0.10161 0.93174 0.9006 0.0
H1025 H 0.07318 0.91513 0.88465 0.0
C1026 C 0.99724 0.85244 0.0649 0.0
C1027 C 0.00907 0.83633 0.07444 0.0
C1028 C 0.00244 0.86665 0.03114 0.0
C1029 C 0.01958 0.86501 0.00648 0.0
C1030 C 0.03158 0.84907 0.01635 0.0
C1031 C 0.02628 0.83474 0.04984 0.0
C1032 C 0.02471 0.87997 0.96997 0.0
C1033 C 0.04083 0.88971 0.97762 0.0
C1034 C 0.01291 0.88551 0.92969 0.0
C1035 C 0.99621 0.87513 0.91851 0.0
C1036 C 0.9981 0.85599 0.91547 0.0
C1037 C 0.9823 0.84627 0.9055 0.0
C1038 C 0.96453 0.85556 0.89809 0.0
C1039 C 0.96254 0.87461 0.90041 0.0
C1040 C 0.9783 0.88439 0.91037 0.0
C1041 C 0.02949 0.94788 0.80231 0.0
C1042 C 0.02781 0.96415 0.82492 0.0
C1043 C 0.03269 0.93081 0.8293 0.0
C1044 C 0.03405 0.9297 0.87936 0.0
C1045 C 0.03386 0.94607 0.90163 0.0
C1046 C 0.03095 0.96321 0.87451 0.0
C1047 C 0.03253 0.91167 0.90844 0.0
C1048 C 0.01693 0.90135 0.89964 0.0
C1049 C 0.04495 0.90552 0.94719 0.0
C1050 C 0.06222 0.91532 0.9566 0.0
C1051 C 0.06566 0.92068 0.00232 0.0
C1052 C 0.08186 0.93002 0.01106 0.0
C1053 C 0.09478 0.93404 0.97439 0.0
C1054 C 0.09155 0.92867 0.92893 0.0
C1055 C 0.07538 0.91932 0.92 0.0
H1056 H 0.10731 0.94128 0.98122 0.0
H1057 H 0.95231 0.84801 0.89038 0.0
H1058 H 0.69982 0.96454 0.01444 0.0
H1059 H 0.67361 0.97232 0.95789 0.0
H1060 H 0.63363 0.96198 0.07209 0.0
H1061 H 0.65968 0.95275 0.12804 0.0
H1062 H 0.61951 0.95195 0.99516 0.0
H1063 H 0.64933 0.00646 0.03386 0.0
H1064 H 0.67593 0.02659 0.04054 0.0
H1065 H 0.68457 0.02919 0.88883 0.0
H1066 H 0.65815 0.00887 0.88136 0.0
H1067 H 0.54151 0.01154 0.90972 0.0
H1068 H 0.57038 0.00132 0.956 0.0
H1069 H 0.6014 0.9977 0.82511 0.0
H1070 H 0.57254 0.00753 0.77858 0.0
H1071 H 0.6206 0.01414 0.9043 0.0
H1072 H 0.58818 0.96079 0.86753 0.0
H1073 H 0.56015 0.94226 0.86391 0.0
H1074 H 0.55499 0.93913 0.01669 0.0
H1075 H 0.58279 0.95797 0.02116 0.0
C1076 C 0.68547 0.96339 0.02735 0.0
C1077 C 0.6819 0.95834 0.0761 0.0
C1078 C 0.67047 0.9681 0.99503 0.0
C1079 C 0.65165 0.9683 0.01102 0.0
C1080 C 0.64803 0.96215 0.05897 0.0
C1081 C 0.66298 0.9571 0.09109 0.0
C1082 C 0.63577 0.97597 0.97888 0.0
C1083 C 0.61974 0.96559 0.97561 0.0
C1084 C 0.6361 0.99371 0.95276 0.0
C1085 C 0.65192 0.00599 0.95714 0.0
C1086 C 0.65699 0.01123 0.00199 0.0
C1087 C 0.67202 0.02268 0.00591 0.0
C1088 C 0.68197 0.02912 0.96516 0.0
C1089 C 0.67687 0.02416 0.92037 0.0
C1090 C 0.66187 0.01268 0.91627 0.0
C1091 C 0.55459 0.00902 0.89087 0.0
C1092 C 0.55484 0.01027 0.84068 0.0
C1093 C 0.57099 0.00308 0.91727 0.0
C1094 C 0.58784 0.99862 0.89376 0.0
C1095 C 0.58846 0.00106 0.84369 0.0
C1096 C 0.572 0.00667 0.81728 0.0
C1097 C 0.60446 0.99021 0.92143 0.0
C1098 C 0.62055 1.00045 0.92369 0.0
C1099 C 0.60406 0.97249 0.94713 0.0
C1100 C 0.58748 0.96094 0.94462 0.0
C1101 C 0.58097 0.9563 0.90032 0.0
C1102 C 0.56513 0.94572 0.89812 0.0
C1103 C 0.55579 0.93953 0.94004 0.0
C1104 C 0.56225 0.94393 0.98425 0.0
C1105 C 0.57805 0.95456 0.98664 0.0
H1106 H 0.5436 0.93126 0.93829 0.0
H1107 H 0.6936 0.03799 0.96826 0.0
H1108 H 0.48381 0.67709 0.0034 0.0
H1109 H 0.48292 0.65079 0.95682 0.0
H1110 H 0.45052 0.62176 0.06785 0.0
H1111 H 0.45026 0.64845 0.11315 0.0
H1112 H 0.49809 0.61806 0.97647 0.0
H1113 H 0.424 0.59046 0.0235 0.0
H1114 H 0.39171 0.60263 0.0403 0.0
H1115 H 0.40261 0.65444 0.96033 0.0
H1116 H 0.43487 0.64251 0.94252 0.0
H1117 H 0.50185 0.5292 0.91078 0.0
H1118 H 0.49412 0.55383 0.96132 0.0
H1119 H 0.45199 0.57779 0.85779 0.0
H1120 H 0.45886 0.55253 0.80879 0.0
H1121 H 0.44105 0.58474 0.94212 0.0
H1122 H 0.49912 0.59064 0.85419 0.0
H1123 H 0.53066 0.57937 0.82867 0.0
H1124 H 0.55092 0.57499 0.97391 0.0
H1125 H 0.5194 0.586 1.0004 0.0
C1126 C 0.47604 0.66533 0.01736 0.0
C1127 C 0.46715 0.6649 0.06214 0.0
C1128 C 0.47573 0.6502 0.99091 0.0
C1129 C 0.46662 0.6343 0.00873 0.0
C1130 C 0.45742 0.63396 0.05298 0.0
C1131 C 0.45751 0.64916 0.07916 0.0
C1132 C 0.46766 0.61772 0.98235 0.0
C1133 C 0.48558 0.61084 0.96887 0.0
C1134 C 0.45136 0.60836 0.97192 0.0
C1135 C 0.43192 0.61563 0.98211 0.0
C1136 C 0.41948 0.60442 0.00936 0.0
C1137 C 0.40119 0.61129 0.01908 0.0
C1138 C 0.39513 0.62932 0.00153 0.0
C1139 C 0.40734 0.64051 0.97407 0.0
C1140 C 0.42564 0.63371 0.96422 0.0
C1141 C 0.49055 0.53945 0.89966 0.0
C1142 C 0.48105 0.53916 0.85585 0.0
C1143 C 0.48623 0.55355 0.92831 0.0
C1144 C 0.47293 0.56798 0.91251 0.0
C1145 C 0.46239 0.56689 0.87054 0.0
C1146 C 0.46633 0.55246 0.84256 0.0
C1147 C 0.47144 0.58507 0.93675 0.0
C1148 C 0.4535 0.59201 0.94982 0.0
C1149 C 0.48766 0.59487 0.94543 0.0
C1150 C 0.50686 0.58902 0.92931 0.0
C1151 C 0.5103 0.58727 0.88068 0.0
C1152 C 0.52817 0.5809 0.86606 0.0
C1153 C 0.54277 0.57642 0.89967 0.0
C1154 C 0.53958 0.57844 0.94793 0.0
C1155 C 0.52173 0.58477 0.96277 0.0
H1156 H 0.55657 0.57142 0.88833 0.0
H1157 H 0.38097 0.63461 0.00911 0.0
H1158 H 0.84123 0.56985 0.04028 0.0
H1159 H 0.86818 0.55731 0.99731 0.0
H1160 H 0.89789 0.54162 0.13101 0.0
H1161 H 0.87083 0.55355 0.17449 0.0
H1162 H 0.92114 0.5565 0.05378 0.0
H1163 H 0.87586 0.51001 0.0896 0.0
H1164 H 0.84376 0.49829 0.09088 0.0
H1165 H 0.84083 0.50716 0.93742 0.0
H1166 H 0.8728 0.51923 0.93528 0.0
H1167 H 0.98886 0.50052 0.93999 0.0
H1168 H 0.96533 0.5083 1.0001 0.0
H1169 H 0.92207 0.51644 0.88956 0.0
H1170 H 0.94519 0.50738 0.83099 0.0
H1171 H 0.90679 0.50341 0.96571 0.0
H1172 H 0.95337 0.54911 0.92946 0.0
H1173 H 0.98557 0.56027 0.92966 0.0
H1174 H 0.98555 0.55648 0.08293 0.0
H1175 H 0.95415 0.54331 0.08419 0.0
C1176 C 0.85353 0.56383 0.06057 0.0
C1177 C 0.85374 0.56249 0.11088 0.0
C1178 C 0.86893 0.55678 0.03596 0.0
C1179 C 0.88484 0.54835 0.06117 0.0
C1180 C 0.88569 0.54808 0.11104 0.0
C1181 C 0.87023 0.555 0.13576 0.0
C1182 C 0.89983 0.53846 0.03578 0.0
C1183 C 0.91821 0.54473 0.0349 0.0
C1184 C 0.89574 0.52323 0.01115 0.0
C1185 C 0.87666 0.51565 0.01232 0.0
C1186 C 0.86832 0.50957 0.05615 0.0
C1187 C 0.85015 0.50286 0.05703 0.0
C1188 C 0.84025 0.50201 0.01426 0.0
C1189 C 0.84851 0.50784 0.97052 0.0
C1190 C 0.86666 0.5146 0.96945 0.0
C1191 C 0.97413 0.50327 0.92937 0.0
C1192 C 0.9686 0.50315 0.88144 0.0
C1193 C 0.96077 0.50794 0.96339 0.0
C1194 C 0.94201 0.51346 0.94917 0.0
C1195 C 0.93641 0.51229 0.90157 0.0
C1196 C 0.94958 0.50707 0.86809 0.0
C1197 C 0.92832 0.52169 0.98206 0.0
C1198 C 0.91002 0.51507 0.98469 0.0
C1199 C 0.93256 0.53671 0.00798 0.0
C1200 C 0.95145 0.54483 0.00691 0.0
C1201 C 0.9603 0.55032 0.96332 0.0
C1202 C 0.97845 0.55704 0.96315 0.0
C1203 C 0.9875 0.55938 0.00613 0.0
C1204 C 0.97855 0.55465 0.04958 0.0
C1205 C 0.96068 0.54728 0.05008 0.0
H1206 H 0.00145 0.56482 0.00575 0.0
H1207 H 0.82618 0.49682 0.01501 0.0
H1208 H 0.96958 0.20459 0.04977 0.0
H1209 H 0.97559 0.17894 0.00178 0.0
H1210 H 0.03492 0.17683 0.03909 0.0
H1211 H 0.02895 0.20195 0.08945 0.0
H1212 H 0.02189 0.17232 0.93219 0.0
H1213 H 0.01657 0.14847 0.10075 0.0
H1214 H 1.00045 0.14683 0.17867 0.0
H1215 H 0.95007 0.12996 0.1136 0.0
H1216 H 0.96582 0.13182 0.03508 0.0
H1217 H 0.05042 0.08221 0.87754 0.0
H1218 H 0.04558 0.1111 0.91324 0.0
H1219 H 0.98603 0.10189 0.92885 0.0
H1220 H 0.99088 0.07257 0.89467 0.0
H1221 H 0.99887 0.11305 0.00743 0.0
H1222 H 0.00189 0.13477 0.84266 0.0
H1223 H 0.01442 0.13825 0.7606 0.0
H1224 H 0.06483 0.16041 0.81156 0.0
H1225 H 0.05266 0.15691 0.89406 0.0
C1226 C 0.98396 0.19878 0.0478 0.0
C1227 C 0.99871 0.20519 0.07445 0.0
C1228 C 0.98737 0.18419 0.01994 0.0
C1229 C 0.00565 0.1759 0.01723 0.0
C1230 C 0.0207 0.18309 0.04069 0.0
C1231 C 0.01726 0.19754 0.0693 0.0
C1232 C 0.00855 0.15867 0.9938 0.0
C1233 C 0.01718 0.15927 0.94883 0.0
C1234 C 0.00167 0.14185 0.01474 0.0
C1235 C 0.9923 0.14048 0.062 0.0
C1236 C 0.002 0.14458 0.10299 0.0
C1237 C 0.99294 0.14358 0.14727 0.0
C1238 C 0.97422 0.13835 0.15106 0.0
C1239 C 0.96455 0.13404 0.11059 0.0
C1240 C 0.97354 0.13506 0.06621 0.0
C1241 C 0.0363 0.08618 0.88886 0.0
C1242 C 0.02106 0.07491 0.8832 0.0
C1243 C 0.03351 0.1029 0.90878 0.0
C1244 C 0.01539 0.10887 0.92328 0.0
C1245 C 1.00015 0.09766 0.91781 0.0
C1246 C 0.00292 0.08091 0.8979 0.0
C1247 C 0.01251 0.12646 0.94567 0.0
C1248 C 0.00376 0.126 0.99056 0.0
C1249 C 0.01893 0.14346 0.92407 0.0
C1250 C 0.02645 0.14539 0.87464 0.0
C1251 C 0.01573 0.14022 0.83645 0.0
C1252 C 0.02274 0.14224 0.78983 0.0
C1253 C 0.04044 0.14949 0.7809 0.0
C1254 C 0.05113 0.15477 0.81856 0.0
C1255 C 0.04417 0.1528 0.86525 0.0
H1256 H 0.04584 0.15106 0.74478 0.0
H1257 H 0.96723 0.13758 0.18537 0.0
H1258 H 0.31869 0.08371 0.12716 0.0
H1259 H 0.34665 0.07931 0.07865 0.0
H1260 H 0.31691 0.04275 0.99748 0.0
H1261 H 0.28872 0.04685 0.04717 0.0
H1262 H 0.35101 0.02841 0.01865 0.0
H1263 H 0.32735 0.08749 0.94911 0.0
H1264 H 0.31458 0.11972 0.947 0.0
H1265 H 0.36573 0.13457 0.01254 0.0
H1266 H 0.37872 0.10237 0.01569 0.0
H1267 H 0.4292 0.02814 0.85544 0.0
H1268 H 0.39764 0.03222 0.88911 0.0
H1269 H 0.42014 0.06457 0.9936 0.0
H1270 H 0.45184 0.06027 0.96088 0.0
H1271 H 0.38753 0.08095 0.94988 0.0
H1272 H 0.40922 0.02067 0.02566 0.0
H1273 H 0.42166 0.98844 0.02624 0.0
H1274 H 0.37341 0.9761 0.94448 0.0
H1275 H 0.36075 0.0084 0.94296 0.0
C1276 C 0.3179 0.07503 0.09834 0.0
C1277 C 0.30134 0.06587 0.09051 0.0
C1278 C 0.33396 0.07251 0.07055 0.0
C1279 C 0.33384 0.06101 0.0336 0.0
C1280 C 0.31732 0.0518 0.02556 0.0
C1281 C 0.30123 0.05417 0.05387 0.0
C1282 C 0.35133 0.05805 0.00528 0.0
C1283 C 0.35876 0.03992 0.00271 0.0
C1284 C 0.36167 0.07303 0.98493 0.0
C1285 C 0.35396 0.09246 0.98289 0.0
C1286 C 0.33583 0.0976 0.96336 0.0
C1287 C 0.32856 0.11587 0.96194 0.0
C1288 C 0.33932 0.12918 0.97969 0.0
C1289 C 0.35741 0.12425 0.99881 0.0
C1290 C 0.36474 0.10599 1.00035 0.0
C1291 C 0.42758 0.0359 0.88601 0.0
C1292 C 0.44322 0.04383 0.90542 0.0
C1293 C 0.40944 0.03829 0.90508 0.0
C1294 C 0.40653 0.04865 0.94397 0.0
C1295 C 0.42204 0.05659 0.96341 0.0
C1296 C 0.44019 0.05415 0.94453 0.0
C1297 C 0.38732 0.05139 0.96437 0.0
C1298 C 0.37959 0.06949 0.96529 0.0
C1299 C 0.37663 0.0364 0.9827 0.0
C1300 C 0.38416 0.01699 0.98373 0.0
C1301 C 0.40134 0.01112 0.00746 0.0
C1302 C 0.40842 0.99283 0.00802 0.0
C1303 C 0.39839 0.98022 0.98526 0.0
C1304 C 0.3812 0.98589 0.96201 0.0
C1305 C 0.37405 0.00418 0.96133 0.0
H1306 H 0.40391 0.96605 0.98577 0.0
H1307 H 0.33366 0.14332 0.97857 0.0
H1308 H 0.49803 0.31166 0.03444 0.0
H1309 H 0.49064 0.33812 0.97347 0.0
H1310 H 0.5122 0.37496 0.06833 0.0
H1311 H 0.51973 0.34883 0.12834 0.0
H1312 H 0.47804 0.38848 0.02368 0.0
H1313 H 0.53988 0.36098 0.98532 0.0
H1314 H 0.56154 0.33561 0.9633 0.0
H1315 H 0.52848 0.33222 0.83631 0.0
H1316 H 0.50646 0.35741 0.85801 0.0
H1317 H 0.5277 0.4579 0.85265 0.0
H1318 H 0.52615 0.42777 0.89905 0.0
H1319 H 0.46626 0.42802 0.86845 0.0
H1320 H 0.46769 0.45827 0.82137 0.0
H1321 H 0.51503 0.39387 0.87353 0.0
H1322 H 0.44656 0.40774 0.97526 0.0
H1323 H 0.42674 0.43396 1.00001 0.0
H1324 H 0.47589 0.46589 0.00417 0.0
H1325 H 0.49601 0.43978 0.9801 0.0
C1326 C 0.50104 0.32546 0.04206 0.0
C1327 C 0.50965 0.32825 0.08566 0.0
C1328 C 0.49684 0.3405 0.00741 0.0
C1329 C 0.5009 0.35849 0.01647 0.0
C1330 C 0.5089 0.36124 0.06067 0.0
C1331 C 0.51333 0.34629 0.09473 0.0
C1332 C 0.49786 0.37456 0.97968 0.0
C1333 C 0.48586 0.38954 0.99042 0.0
C1334 C 0.50819 0.37601 0.93653 0.0
C1335 C 0.52139 0.36087 0.92362 0.0
C1336 C 0.53713 0.35469 0.95296 0.0
C1337 C 0.54949 0.34037 0.9405 0.0
C1338 C 0.54635 0.33226 0.89853 0.0
C1339 C 0.53086 0.33848 0.86888 0.0
C1340 C 0.51844 0.35277 0.88125 0.0
C1341 C 0.51418 0.45158 0.85566 0.0
C1342 C 0.49779 0.46055 0.83351 0.0
C1343 C 0.51336 0.43428 0.88191 0.0
C1344 C 0.49611 0.42566 0.88716 0.0
C1345 C 0.47971 0.43447 0.86487 0.0
C1346 C 0.48055 0.45174 0.83808 0.0
C1347 C 0.49539 0.40785 0.91783 0.0
C1348 C 0.50672 0.39259 0.906 0.0
C1349 C 0.48459 0.40619 0.96022 0.0
C1350 C 0.47271 0.42191 0.97526 0.0
C1351 C 0.45312 0.42035 0.98155 0.0
C1352 C 0.44184 0.43519 0.99547 0.0
C1353 C 0.45004 0.45161 0.00346 0.0
C1354 C 0.46954 0.4532 0.99776 0.0
C1355 C 0.48088 0.43839 0.98392 0.0
H1356 H 0.44128 0.46308 0.0142 0.0
H1357 H 0.55594 0.32119 0.88892 0.0
H1358 H 0.18667 0.4759 0.06655 0.0
H1359 H 0.16093 0.48556 0.00951 0.0
H1360 H 0.15292 0.42864 0.99025 0.0
H1361 H 0.17907 0.41886 0.04629 0.0
H1362 H 0.14653 0.45146 0.90619 0.0
H1363 H 0.12692 0.44881 0.07039 0.0
H1364 H 0.12844 0.45601 0.15403 0.0
H1365 H 0.1188 0.5138 0.1073 0.0
H1366 H 0.11753 0.50696 0.02325 0.0
H1367 H 0.04911 0.46138 0.83338 0.0
H1368 H 0.07912 0.45211 0.87541 0.0
H1369 H 0.08645 0.50878 0.89888 0.0
H1370 H 0.05647 0.51814 0.85739 0.0
H1371 H 0.09359 0.486 0.97909 0.0
H1372 H 0.11273 0.48865 0.81463 0.0
H1373 H 0.11073 0.48134 0.73117 0.0
H1374 H 0.12021 0.42356 0.77822 0.0
H1375 H 0.12223 0.43054 0.86208 0.0
C1376 C 0.17988 0.46544 0.04904 0.0
C1377 C 0.18482 0.44658 0.06142 0.0
C1378 C 0.16502 0.47099 0.01675 0.0
C1379 C 0.15473 0.4578 0.99639 0.0
C1380 C 0.16056 0.43905 0.00577 0.0
C1381 C 0.17544 0.43348 0.03805 0.0
C1382 C 0.13686 0.46341 0.96927 0.0
C1383 C 0.1349 0.45888 0.92222 0.0
C1384 C 0.12171 0.47325 0.98998 0.0
C1385 C 0.12233 0.47739 0.04051 0.0
C1386 C 0.12527 0.46306 0.07792 0.0
C1387 C 0.12607 0.46708 0.1254 0.0
C1388 C 0.12377 0.48535 0.13596 0.0
C1389 C 0.12061 0.49965 0.09906 0.0
C1390 C 0.11985 0.49571 0.0515 0.0
C1391 C 0.05711 0.47187 0.84753 0.0
C1392 C 0.05037 0.4905 0.84206 0.0
C1393 C 0.07432 0.46656 0.87128 0.0
C1394 C 0.08514 0.47978 0.88989 0.0
C1395 C 0.07837 0.49835 0.88478 0.0
C1396 C 0.06121 0.50367 0.86099 0.0
C1397 C 0.10331 0.47427 0.91578 0.0
C1398 C 0.10527 0.47871 0.96284 0.0
C1399 C 0.11838 0.46434 0.89505 0.0
C1400 C 0.11748 0.46011 0.84465 0.0
C1401 C 0.1143 0.47437 0.8072 0.0
C1402 C 0.11318 0.47029 0.75982 0.0
C1403 C 0.11526 0.45199 0.7494 0.0
C1404 C 0.11858 0.43774 0.78635 0.0
C1405 C 0.11978 0.44175 0.8338 0.0
H1406 H 0.11433 0.44885 0.7127 0.0
H1407 H 0.12438 0.48844 0.17275 0.0
H1408 H 0.00636 0.81466 0.44179 0.0
H1409 H 0.00729 0.84098 0.48833 0.0
H1410 H 0.9478 0.8372 0.51895 0.0
H1411 H 0.9468 0.8105 0.47345 0.0
H1412 H 0.95631 0.8721 0.48345 0.0
H1413 H 0.9805 0.82594 0.60636 0.0
H1414 H 0.00187 0.80008 0.64136 0.0
H1415 H 0.04966 0.83373 0.61799 0.0
H1416 H 0.02859 0.85973 0.58221 0.0
H1417 H 0.94574 0.93816 0.64714 0.0
H1418 H 0.94742 0.90919 0.61125 0.0
H1419 H 0.00732 0.9141 0.58802 0.0
H1420 H 0.00572 0.94335 0.62406 0.0
H1421 H 0.99958 0.8787 0.61928 0.0
H1422 H 0.97615 0.92455 0.49592 0.0
H1423 H 0.95533 0.9506 0.45955 0.0
H1424 H 0.90692 0.91769 0.48129 0.0
H1425 H 0.92742 0.8915 0.51845 0.0
C1426 C 0.99356 0.81902 0.4595 0.0
C1427 C 0.97648 0.81035 0.45362 0.0
C1428 C 0.99411 0.8342 0.48596 0.0
C1429 C 0.97762 0.84111 0.50718 0.0
C1430 C 0.96069 0.83218 0.50269 0.0
C1431 C 0.96014 0.81692 0.47651 0.0
C1432 C 0.97773 0.85834 0.53134 0.0
C1433 C 0.96557 0.87342 0.51364 0.0
C1434 C 0.99028 0.86033 0.56965 0.0
C1435 C 0.00298 0.84473 0.59114 0.0
C1436 C 0.99558 0.82778 0.60828 0.0
C1437 C 0.00764 0.8131 0.62835 0.0
C1438 C 0.02711 0.81525 0.63177 0.0
C1439 C 0.03457 0.83209 0.61524 0.0
C1440 C 0.02257 0.8468 0.59511 0.0
C1441 C 0.95927 0.93324 0.63408 0.0
C1442 C 0.97554 0.94332 0.6379 0.0
C1443 C 0.96022 0.91658 0.61366 0.0
C1444 C 0.97742 0.90957 0.59611 0.0
C1445 C 0.99386 0.91925 0.60116 0.0
C1446 C 0.99293 0.93597 0.6218 0.0
C1447 C 0.978 0.89236 0.57171 0.0
C1448 C 0.99032 0.87734 0.58914 0.0
C1449 C 0.96568 0.89042 0.53285 0.0
C1450 C 0.95331 0.90612 0.51038 0.0
C1451 C 0.96104 0.92291 0.49329 0.0
C1452 C 0.94931 0.93769 0.47247 0.0
C1453 C 0.92981 0.93581 0.46822 0.0
C1454 C 0.92202 0.91913 0.48467 0.0
C1455 C 0.9337 0.90431 0.50557 0.0
H1456 H 0.92075 0.94728 0.45208 0.0
H1457 H 0.03642 0.80387 0.64733 0.0
H1458 H 0.70859 0.93584 0.45861 0.0
H1459 H 0.6802 0.93711 0.50762 0.0
H1460 H 0.68709 0.99481 0.51954 0.0
H1461 H 0.71593 0.99353 0.47163 0.0
H1462 H 0.67244 0.977 0.6024 0.0
H1463 H 0.65989 0.98311 0.43271 0.0
H1464 H 0.66212 0.97374 0.35109 0.0
H1465 H 0.63592 0.92324 0.39773 0.0
H1466 H 0.63382 0.9322 0.47988 0.0
H1467 H 0.57638 0.00728 0.63609 0.0
H1468 H 0.60851 0.00287 0.60599 0.0
H1469 H 0.59893 0.94584 0.59169 0.0
H1470 H 0.56685 0.95004 0.62231 0.0
H1471 H 0.61543 0.96221 0.51326 0.0
H1472 H 0.62579 0.95742 0.68262 0.0
H1473 H 0.62303 0.96751 0.76343 0.0
H1474 H 0.65279 0.01596 0.71761 0.0
H1475 H 0.65543 0.00634 0.63624 0.0
C1476 C 0.70451 0.94865 0.47302 0.0
C1477 C 0.71447 0.96465 0.46073 0.0
C1478 C 0.68814 0.9494 0.50069 0.0
C1479 C 0.6813 0.96615 0.51636 0.0
C1480 C 0.69203 0.98177 0.50753 0.0
C1481 C 0.70845 0.98104 0.47989 0.0
C1482 C 0.66207 0.96785 0.53729 0.0
C1483 C 0.65995 0.9739 0.58285 0.0
C1484 C 0.64579 0.96357 0.51199 0.0
C1485 C 0.64689 0.95823 0.46254 0.0
C1486 C 0.65474 0.96994 0.42565 0.0
C1487 C 0.65596 0.96472 0.37928 0.0
C1488 C 0.64921 0.94788 0.36926 0.0
C1489 C 0.64118 0.93626 0.40557 0.0
C1490 C 0.63996 0.94141 0.45203 0.0
C1491 C 0.58112 0.99374 0.62704 0.0
C1492 C 0.56896 0.97901 0.63188 0.0
C1493 C 0.59952 0.99125 0.60979 0.0
C1494 C 0.60622 0.97396 0.59717 0.0
C1495 C 0.59407 0.9593 0.60128 0.0
C1496 C 0.57567 0.96177 0.61857 0.0
C1497 C 0.62573 0.97128 0.57854 0.0
C1498 C 0.6279 0.96514 0.53316 0.0
C1499 C 0.64199 0.97553 0.60403 0.0
C1500 C 0.64066 0.98123 0.65315 0.0
C1501 C 0.63163 0.9703 0.68965 0.0
C1502 C 0.63009 0.97592 0.73558 0.0
C1503 C 0.6377 0.99238 0.74562 0.0
C1504 C 0.64689 0.00322 0.70977 0.0
C1505 C 0.64842 0.99768 0.66373 0.0
H1506 H 0.6365 0.99671 0.78121 0.0
H1507 H 0.65016 0.94386 0.33334 0.0
H1508 H 0.4665 0.69504 0.47112 0.0
H1509 H 0.47303 0.66885 0.53115 0.0
H1510 H 0.53215 0.66747 0.49266 0.0
H1511 H 0.52542 0.69294 0.43008 0.0
H1512 H 0.52092 0.63495 0.49369 0.0
H1513 H 0.51529 0.67879 0.60618 0.0
H1514 H 0.50156 0.70504 0.64542 0.0
H1515 H 0.45165 0.67547 0.67985 0.0
H1516 H 0.46495 0.64913 0.64021 0.0
H1517 H 0.53683 0.55951 0.68139 0.0
H1518 H 0.53804 0.59049 0.63794 0.0
H1519 H 0.47707 0.59425 0.62508 0.0
H1520 H 0.47573 0.56328 0.66747 0.0
H1521 H 0.49412 0.62652 0.65697 0.0
H1522 H 0.4996 0.58467 0.53326 0.0
H1523 H 0.5146 0.5585 0.49586 0.0
H1524 H 0.56725 0.58535 0.48642 0.0
H1525 H 0.55261 0.61157 0.52444 0.0
C1526 C 0.48095 0.68932 0.47571 0.0
C1527 C 0.49537 0.69599 0.4452 0.0
C1528 C 0.48473 0.67443 0.51062 0.0
C1529 C 0.50314 0.66613 0.51682 0.0
C1530 C 0.51782 0.67357 0.48859 0.0
C1531 C 0.51399 0.68833 0.45313 0.0
C1532 C 0.50649 0.64858 0.54889 0.0
C1533 C 0.51545 0.63332 0.52983 0.0
C1534 C 0.49918 0.6462 0.59595 0.0
C1535 C 0.49109 0.66201 0.61992 0.0
C1536 C 0.50133 0.67793 0.62181 0.0
C1537 C 0.49363 0.69282 0.64418 0.0
C1538 C 0.47573 0.69194 0.66505 0.0
C1539 C 0.46551 0.67614 0.66367 0.0
C1540 C 0.47314 0.66121 0.64131 0.0
C1541 C 0.5237 0.56694 0.66918 0.0
C1542 C 0.50619 0.55891 0.67753 0.0
C1543 C 0.52442 0.58461 0.64449 0.0
C1544 C 0.50763 0.59463 0.62847 0.0
C1545 C 0.49016 0.58675 0.63735 0.0
C1546 C 0.48944 0.56901 0.66125 0.0
C1547 C 0.50815 0.61314 0.60119 0.0
C1548 C 0.49989 0.62845 0.62118 0.0
C1549 C 0.51633 0.61565 0.55533 0.0
C1550 C 0.52508 0.59995 0.53224 0.0
C1551 C 0.51442 0.58491 0.52362 0.0
C1552 C 0.52285 0.57008 0.50223 0.0
C1553 C 0.54189 0.57023 0.48893 0.0
C1554 C 0.55252 0.58523 0.49684 0.0
C1555 C 0.54417 0.60008 0.51829 0.0
H1556 H 0.54838 0.55874 0.47236 0.0
H1557 H 0.46979 0.70348 0.68235 0.0
H1558 H 0.81956 0.5288 0.47363 0.0
H1559 H 0.84637 0.52216 0.52883 0.0
H1560 H 0.84244 0.5785 0.56284 0.0
H1561 H 0.81535 0.58523 0.50797 0.0
H1562 H 0.87797 0.56834 0.53786 0.0
H1563 H 0.83177 0.54324 0.64622 0.0
H1564 H 0.80527 0.52408 0.67246 0.0
H1565 H 0.83898 0.47504 0.64962 0.0
H1566 H 0.86562 0.49392 0.62258 0.0
H1567 H 0.95319 0.55155 0.71074 0.0
H1568 H 0.9225 0.56013 0.6714 0.0
H1569 H 0.9193 0.50461 0.63348 0.0
H1570 H 0.94968 0.49586 0.67341 0.0
H1571 H 0.88622 0.51621 0.66617 0.0
H1572 H 0.93105 0.54102 0.55117 0.0
H1573 H 0.9576 0.55978 0.52289 0.0
H1574 H 0.92643 0.60893 0.55633 0.0
H1575 H 0.89978 0.59041 0.58541 0.0
C1576 C 0.82395 0.53966 0.49395 0.0
C1577 C 0.81526 0.55758 0.4862 0.0
C1578 C 0.8394 0.53585 0.5254 0.0
C1579 C 0.84646 0.54983 0.55004 0.0
C1580 C 0.83731 0.56752 0.54404 0.0
C1581 C 0.82182 0.57134 0.51266 0.0
C1582 C 0.86424 0.5463 0.57897 0.0
C1583 C 0.87965 0.55717 0.56659 0.0
C1584 C 0.86662 0.53144 0.61562 0.0
C1585 C 0.85065 0.52002 0.63201 0.0
C1586 C 0.83349 0.52838 0.64644 0.0
C1587 C 0.81845 0.51757 0.66152 0.0
C1588 C 0.82043 0.49836 0.66261 0.0
C1589 C 0.83747 0.48992 0.64872 0.0
C1590 C 0.85255 0.50067 0.63358 0.0
C1591 C 0.946 0.5412 0.69379 0.0
C1592 C 0.95395 0.52303 0.6951 0.0
C1593 C 0.92845 0.54613 0.67125 0.0
C1594 C 0.9186 0.53305 0.64912 0.0
C1595 C 0.92655 0.51493 0.6504 0.0
C1596 C 0.94401 0.50998 0.67309 0.0
C1597 C 0.90001 0.53811 0.62465 0.0
C1598 C 0.88447 0.52751 0.63781 0.0
C1599 C 0.89752 0.55316 0.5885 0.0
C1600 C 0.91352 0.56431 0.57097 0.0
C1601 C 0.92992 0.55581 0.55285 0.0
C1602 C 0.94498 0.5664 0.53662 0.0
C1603 C 0.94373 0.58552 0.53795 0.0
C1604 C 0.92739 0.59411 0.5554 0.0
C1605 C 0.91231 0.58357 0.57174 0.0
H1606 H 0.9554 0.5937 0.52536 0.0
H1607 H 0.80877 0.49001 0.6743 0.0
loop_
_geom_bond_atom_site_label_1
_geom_bond_atom_site_label_2
_geom_bond_distance
_geom_bond_site_symmetry_2
_ccdc_geom_bond_type
C0 C1 1.384 . S
C0 H13 0.947 . S
C0 C35 1.382 . S
C1 C0 1.384 . S
C1 C2 1.378 . S
C2 C1 1.378 . S
C2 C3 1.378 . S
C2 H14 0.952 . S
C3 C2 1.378 . S
C3 H15 0.950 . S
C3 C34 1.383 . S
H4 C23 0.947 . S
H5 C24 0.946 . S
H6 C26 0.953 . S
H7 C27 0.945 . S
H8 C29 0.952 . S
H9 C30 0.949 . S
H10 C32 0.950 . S
H11 C33 0.948 . S
H12 C35 0.951 . S
H13 C0 0.947 . S
H14 C2 0.952 . S
H15 C3 0.950 . S
N16 C19 1.382 . S
N16 C21 1.363 . S
N17 C19 1.371 . S
N17 C20 1.372 . S
N18 C20 1.361 . S
N18 C21 1.377 . S
C19 N16 1.382 . S
C19 N17 1.371 . S
C19 C22 1.480 . S
C20 N17 1.372 . S
C20 N18 1.361 . S
C20 C28 1.457 . S
C21 N16 1.363 . S
C21 N18 1.377 . S
C21 C34 1.479 . S
C22 C19 1.480 . S
C22 C23 1.383 . S
C22 C27 1.385 . S
C23 H4 0.947 . S
C23 C22 1.383 . S
C23 C24 1.388 . S
C24 H5 0.946 . S
C24 C23 1.388 . S
C24 C25 1.384 . S
C25 C24 1.384 . S
C25 C26 1.377 . S
C26 H6 0.953 . S
C26 C25 1.377 . S
C26 C27 1.369 . S
C27 H7 0.945 . S
C27 C22 1.385 . S
C27 C26 1.369 . S
C28 C20 1.457 . S
C28 C29 1.372 . S
C28 C33 1.364 . S
C29 H8 0.952 . S
C29 C28 1.372 . S
C29 C30 1.389 1_554 S
C30 H9 0.949 . S
C30 C29 1.389 1_556 S
C30 C31 1.387 . S
C31 C30 1.387 . S
C31 C32 1.372 1_556 S
C32 H10 0.950 . S
C32 C31 1.372 1_554 S
C32 C33 1.379 . S
C33 H11 0.948 . S
C33 C28 1.364 . S
C33 C32 1.379 . S
C34 C3 1.383 . S
C34 C21 1.479 . S
C34 C35 1.398 . S
C35 C0 1.382 . S
C35 H12 0.951 . S
C35 C34 1.398 . S
C36 C37 1.384 1_655 S
C36 H49 0.947 . S
C36 C71 1.382 1_655 S
C37 C36 1.384 1_455 S
C37 C38 1.378 . S
C38 C37 1.378 . S
C38 C39 1.378 . S
C38 H50 0.952 . S
C39 C38 1.378 . S
C39 H51 0.950 . S
C39 C70 1.383 . S
H40 C59 0.947 . S
H41 C60 0.953 . S
H42 C62 0.953 . S
H43 C63 0.945 . S
H44 C65 0.948 1_655 S
H45 C66 0.957 . S
H46 C68 0.950 . S
H47 C69 0.948 . S
H48 C71 0.951 1_655 S
H49 C36 0.947 . S
H50 C38 0.952 . S
H51 C39 0.950 . S
N52 C55 1.382 . S
N52 C57 1.363 . S
N53 C55 1.371 . S
N53 C56 1.372 . S
N54 C56 1.361 . S
N54 C57 1.377 . S
C55 N52 1.382 . S
C55 N53 1.371 . S
C55 C58 1.480 . S
C56 N53 1.372 . S
C56 N54 1.361 . S
C56 C64 1.457 . S
C57 N52 1.363 . S
C57 N54 1.377 . S
C57 C70 1.479 . S
C58 C55 1.480 . S
C58 C59 1.383 . S
C58 C63 1.385 . S
C59 H40 0.947 . S
C59 C58 1.383 . S
C59 C60 1.384 1_455 S
C60 H41 0.953 . S
C60 C59 1.384 1_655 S
C60 C61 1.382 1_655 S
C61 C60 1.382 1_455 S
C61 C62 1.377 . S
C62 H42 0.953 . S
C62 C61 1.377 . S
C62 C63 1.369 . S
C63 H43 0.945 . S
C63 C58 1.385 . S
C63 C62 1.369 . S
C64 C56 1.457 . S
C64 C65 1.376 . S
C64 C69 1.364 . S
C65 H44 0.948 1_455 S
C65 C64 1.376 . S
C65 C66 1.389 1_454 S
C66 H45 0.957 . S
C66 C65 1.389 1_656 S
C66 C67 1.381 1_655 S
C67 C66 1.381 1_455 S
C67 C68 1.372 1_556 S
C68 H46 0.950 . S
C68 C67 1.372 1_554 S
C68 C69 1.379 . S
C69 H47 0.948 . S
C69 C64 1.364 . S
C69 C68 1.379 . S
C70 C39 1.383 . S
C70 C57 1.479 . S
C70 C71 1.398 . S
C71 C36 1.382 1_455 S
C71 H48 0.951 1_455 S
C71 C70 1.398 . S
C72 C73 1.384 . S
C72 H85 0.947 . S
C72 C107 1.382 . S
C73 C72 1.384 . S
C73 C74 1.378 . S
C74 C73 1.378 . S
C74 C75 1.378 . S
C74 H86 0.952 . S
C75 C74 1.378 . S
C75 H87 0.950 . S
C75 C106 1.383 . S
H76 C95 0.947 . S
H77 C96 0.946 . S
H78 C98 0.953 1_556 S
H79 C99 0.945 . S
H80 C101 0.952 . S
H81 C102 0.949 . S
H82 C104 0.950 . S
H83 C105 0.948 . S
H84 C107 0.951 . S
H85 C72 0.947 . S
H86 C74 0.952 . S
H87 C75 0.950 . S
N88 C91 1.382 . S
N88 C93 1.363 . S
N89 C91 1.371 . S
N89 C92 1.372 . S
N90 C92 1.361 . S
N90 C93 1.377 . S
C91 N88 1.382 . S
C91 N89 1.371 . S
C91 C94 1.480 . S
C92 N89 1.372 . S
C92 N90 1.361 . S
C92 C100 1.457 . S
C93 N88 1.363 . S
C93 N90 1.377 . S
C93 C106 1.479 . S
C94 C91 1.480 . S
C94 C95 1.383 . S
C94 C99 1.385 . S
C95 H76 0.947 . S
C95 C94 1.383 . S
C95 C96 1.388 . S
C96 H77 0.946 . S
C96 C95 1.388 . S
C96 C97 1.384 . S
C97 C96 1.384 . S
C97 C98 1.377 . S
C98 H78 0.953 1_554 S
C98 C97 1.377 . S
C98 C99 1.369 . S
C99 H79 0.945 . S
C99 C94 1.385 . S
C99 C98 1.369 . S
C100 C92 1.457 . S
C100 C101 1.372 1_554 S
C100 C105 1.364 . S
C101 H80 0.952 . S
C101 C100 1.372 1_556 S
C101 C102 1.389 . S
C102 H81 0.949 . S
C102 C101 1.389 . S
C102 C103 1.387 . S
C103 C102 1.387 . S
C103 C104 1.372 1_556 S
C104 H82 0.950 . S
C104 C103 1.372 1_554 S
C104 C105 1.379 . S
C105 H83 0.948 . S
C105 C100 1.364 . S
C105 C104 1.379 . S
C106 C75 1.383 . S
C106 C93 1.479 . S
C106 C107 1.398 . S
C107 C72 1.382 . S
C107 H84 0.951 . S
C107 C106 1.398 . S
C108 C109 1.384 1_554 S
C108 H121 0.947 . S
C108 C143 1.382 . S
C109 C108 1.384 1_556 S
C109 C110 1.378 . S
C110 C109 1.378 . S
C110 C111 1.378 1_556 S
C110 H122 0.952 . S
C111 C110 1.378 1_554 S
C111 H123 0.952 . S
C111 C142 1.383 . S
H112 C131 0.947 . S
H113 C132 0.946 . S
H114 C134 0.953 . S
H115 C135 0.945 . S
H116 C137 0.952 . S
H117 C138 0.949 . S
H118 C140 0.950 . S
H119 C141 0.948 . S
H120 C143 0.951 . S
H121 C108 0.947 . S
H122 C110 0.952 . S
H123 C111 0.952 . S
N124 C127 1.382 . S
N124 C129 1.363 . S
N125 C127 1.371 . S
N125 C128 1.372 . S
N126 C128 1.361 . S
N126 C129 1.377 . S
C127 N124 1.382 . S
C127 N125 1.371 . S
C127 C130 1.480 . S
C128 N125 1.372 . S
C128 N126 1.361 . S
C128 C136 1.457 . S
C129 N124 1.363 . S
C129 N126 1.377 . S
C129 C142 1.479 . S
C130 C127 1.480 . S
C130 C131 1.383 . S
C130 C135 1.385 . S
C131 H112 0.947 . S
C131 C130 1.383 . S
C131 C132 1.388 . S
C132 H113 0.946 . S
C132 C131 1.388 . S
C132 C133 1.384 . S
C133 C132 1.384 . S
C133 C134 1.377 . S
C134 H114 0.953 . S
C134 C133 1.377 . S
C134 C135 1.369 . S
C135 H115 0.945 . S
C135 C130 1.385 . S
C135 C134 1.369 . S
C136 C128 1.457 . S
C136 C137 1.372 . S
C136 C141 1.364 . S
C137 H116 0.952 . S
C137 C136 1.372 . S
C137 C138 1.389 . S
C138 H117 0.949 . S
C138 C137 1.389 . S
C138 C139 1.387 . S
C139 C138 1.387 . S
C139 C140 1.372 . S
C140 H118 0.950 . S
C140 C139 1.372 . S
C140 C141 1.379 . S
C141 H119 0.948 . S
C141 C136 1.364 . S
C141 C140 1.379 . S
C142 C111 1.383 . S
C142 C129 1.479 . S
C142 C143 1.398 . S
C143 C108 1.382 . S
C143 H120 0.951 . S
C143 C142 1.398 . S
C144 C145 1.384 . S
C144 H157 0.947 . S
C144 C179 1.382 . S
C145 C144 1.384 . S
C145 C146 1.378 . S
C146 C145 1.378 . S
C146 C147 1.378 . S
C146 H158 0.952 . S
C147 C146 1.378 . S
C147 H159 0.950 . S
C147 C178 1.383 . S
H148 C167 0.947 . S
H149 C168 0.946 . S
H150 C170 0.953 . S
H151 C171 0.945 . S
H152 C173 0.952 . S
H153 C174 0.949 . S
H154 C176 0.950 . S
H155 C177 0.948 . S
H156 C179 0.951 . S
H157 C144 0.947 . S
H158 C146 0.952 . S
H159 C147 0.950 . S
N160 C163 1.382 . S
N160 C165 1.363 . S
N161 C163 1.371 . S
N161 C164 1.372 . S
N162 C164 1.361 . S
N162 C165 1.377 . S
C163 N160 1.382 . S
C163 N161 1.371 . S
C163 C166 1.480 . S
C164 N161 1.372 . S
C164 N162 1.361 . S
C164 C172 1.457 . S
C165 N160 1.363 . S
C165 N162 1.377 . S
C165 C178 1.479 . S
C166 C163 1.480 . S
C166 C167 1.383 . S
C166 C171 1.385 . S
C167 H148 0.947 . S
C167 C166 1.383 . S
C167 C168 1.388 . S
C168 H149 0.946 . S
C168 C167 1.388 . S
C168 C169 1.384 . S
C169 C168 1.384 . S
C169 C170 1.377 . S
C170 H150 0.953 . S
C170 C169 1.377 . S
C170 C171 1.369 . S
C171 H151 0.945 . S
C171 C166 1.385 . S
C171 C170 1.369 . S
C172 C164 1.457 . S
C172 C173 1.372 . S
C172 C177 1.364 . S
C173 H152 0.952 . S
C173 C172 1.372 . S
C173 C174 1.389 . S
C174 H153 0.949 . S
C174 C173 1.389 . S
C174 C175 1.387 . S
C175 C174 1.387 . S
C175 C176 1.372 . S
C176 H154 0.950 . S
C176 C175 1.372 . S
C176 C177 1.379 . S
C177 H155 0.948 . S
C177 C172 1.364 . S
C177 C176 1.379 . S
C178 C147 1.383 . S
C178 C165 1.479 . S
C178 C179 1.398 . S
C179 C144 1.382 . S
C179 H156 0.951 . S
C179 C178 1.398 . S
C180 C181 1.383 . S
C180 H193 0.948 1_455 S
C180 C215 1.382 . S
C181 C180 1.383 . S
C181 C182 1.378 . S
C182 C181 1.378 . S
C182 C183 1.378 . S
C182 H194 0.952 . S
C183 C182 1.378 . S
C183 H195 0.950 . S
C183 C214 1.383 . S
H184 C203 0.947 . S
H185 C204 0.948 . S
H186 C206 0.953 . S
H187 C207 0.945 . S
H188 C209 0.949 1_655 S
H189 C210 0.953 . S
H190 C212 0.950 . S
H191 C213 0.948 . S
H192 C215 0.950 1_655 S
H193 C180 0.948 1_655 S
H194 C182 0.952 . S
H195 C183 0.950 . S
N196 C199 1.382 . S
N196 C201 1.363 . S
N197 C199 1.371 . S
N197 C200 1.372 . S
N198 C200 1.361 . S
N198 C201 1.377 . S
C199 N196 1.382 . S
C199 N197 1.371 . S
C199 C202 1.480 . S
C200 N197 1.372 . S
C200 N198 1.361 . S
C200 C208 1.457 . S
C201 N196 1.363 . S
C201 N198 1.377 . S
C201 C214 1.479 . S
C202 C199 1.480 . S
C202 C203 1.383 . S
C202 C207 1.385 . S
C203 H184 0.947 . S
C203 C202 1.383 . S
C203 C204 1.388 1_455 S
C204 H185 0.948 . S
C204 C203 1.388 1_655 S
C204 C205 1.382 1_655 S
C205 C204 1.382 1_455 S
C205 C206 1.377 . S
C206 H186 0.953 . S
C206 C205 1.377 . S
C206 C207 1.369 . S
C207 H187 0.945 . S
C207 C202 1.385 . S
C207 C206 1.369 . S
C208 C200 1.457 . S
C208 C209 1.379 . S
C208 C213 1.364 . S
C209 H188 0.949 1_455 S
C209 C208 1.379 . S
C209 C210 1.384 1_455 S
C210 H189 0.953 . S
C210 C209 1.384 1_655 S
C210 C211 1.385 1_655 S
C211 C210 1.385 1_455 S
C211 C212 1.372 . S
C212 H190 0.950 . S
C212 C211 1.372 . S
C212 C213 1.379 . S
C213 H191 0.948 . S
C213 C208 1.364 . S
C213 C212 1.379 . S
C214 C183 1.383 . S
C214 C201 1.479 . S
C214 C215 1.400 . S
C215 C180 1.382 . S
C215 H192 0.950 1_455 S
C215 C214 1.400 . S
C216 C217 1.384 . S
C216 H229 0.947 . S
C216 C251 1.382 . S
C217 C216 1.384 . S
C217 C218 1.378 . S
C218 C217 1.378 . S
C218 C219 1.378 . S
C218 H230 0.952 . S
C219 C218 1.378 . S
C219 H231 0.950 . S
C219 C250 1.383 . S
H220 C239 0.947 . S
H221 C240 0.946 . S
H222 C242 0.953 . S
H223 C243 0.945 . S
H224 C245 0.952 . S
H225 C246 0.949 . S
H226 C248 0.950 . S
H227 C249 0.948 . S
H228 C251 0.951 . S
H229 C216 0.947 . S
H230 C218 0.952 . S
H231 C219 0.950 . S
N232 C235 1.382 . S
N232 C237 1.363 . S
N233 C235 1.371 . S
N233 C236 1.372 . S
N234 C236 1.361 . S
N234 C237 1.377 . S
C235 N232 1.382 . S
C235 N233 1.371 . S
C235 C238 1.480 . S
C236 N233 1.372 . S
C236 N234 1.361 . S
C236 C244 1.457 . S
C237 N232 1.363 . S
C237 N234 1.377 . S
C237 C250 1.479 . S
C238 C235 1.480 . S
C238 C239 1.383 . S
C238 C243 1.385 . S
C239 H220 0.947 . S
C239 C238 1.383 . S
C239 C240 1.388 . S
C240 H221 0.946 . S
C240 C239 1.388 . S
C240 C241 1.384 . S
C241 C240 1.384 . S
C241 C242 1.377 . S
C242 H222 0.953 . S
C242 C241 1.377 . S
C242 C243 1.369 . S
C243 H223 0.945 . S
C243 C238 1.385 . S
C243 C242 1.369 . S
C244 C236 1.457 . S
C244 C245 1.372 . S
C244 C249 1.364 . S
C245 H224 0.952 . S
C245 C244 1.372 . S
C245 C246 1.389 . S
C246 H225 0.949 . S
C246 C245 1.389 . S
C246 C247 1.387 . S
C247 C246 1.387 . S
C247 C248 1.372 . S
C248 H226 0.950 . S
C248 C247 1.372 . S
C248 C249 1.379 . S
C249 H227 0.948 . S
C249 C244 1.364 . S
C249 C248 1.379 . S
C250 C219 1.383 . S
C250 C237 1.479 . S
C250 C251 1.398 . S
C251 C216 1.382 . S
C251 H228 0.951 . S
C251 C250 1.398 . S
C252 C253 1.384 . S
C252 H265 0.947 . S
C252 C287 1.382 . S
C253 C252 1.384 . S
C253 C254 1.378 . S
C254 C253 1.378 . S
C254 C255 1.378 . S
C254 H266 0.952 . S
C255 C254 1.378 . S
C255 H267 0.950 . S
C255 C286 1.383 . S
H256 C275 0.947 . S
H257 C276 0.946 . S
H258 C278 0.953 . S
H259 C279 0.945 . S
H260 C281 0.952 . S
H261 C282 0.949 . S
H262 C284 0.950 . S
H263 C285 0.948 . S
H264 C287 0.951 . S
H265 C252 0.947 . S
H266 C254 0.952 . S
H267 C255 0.950 . S
N268 C271 1.382 . S
N268 C273 1.363 . S
N269 C271 1.371 . S
N269 C272 1.372 . S
N270 C272 1.361 . S
N270 C273 1.377 . S
C271 N268 1.382 . S
C271 N269 1.371 . S
C271 C274 1.480 . S
C272 N269 1.372 . S
C272 N270 1.361 . S
C272 C280 1.457 . S
C273 N268 1.363 . S
C273 N270 1.377 . S
C273 C286 1.479 . S
C274 C271 1.480 . S
C274 C275 1.383 . S
C274 C279 1.385 . S
C275 H256 0.947 . S
C275 C274 1.383 . S
C275 C276 1.388 . S
C276 H257 0.946 . S
C276 C275 1.388 . S
C276 C277 1.384 . S
C277 C276 1.384 . S
C277 C278 1.377 . S
C278 H258 0.953 . S
C278 C277 1.377 . S
C278 C279 1.369 . S
C279 H259 0.945 . S
C279 C274 1.385 . S
C279 C278 1.369 . S
C280 C272 1.457 . S
C280 C281 1.372 . S
C280 C285 1.364 . S
C281 H260 0.952 . S
C281 C280 1.372 . S
C281 C282 1.389 . S
C282 H261 0.949 . S
C282 C281 1.389 . S
C282 C283 1.387 . S
C283 C282 1.387 . S
C283 C284 1.372 . S
C284 H262 0.950 . S
C284 C283 1.372 . S
C284 C285 1.379 . S
C285 H263 0.948 . S
C285 C280 1.364 . S
C285 C284 1.379 . S
C286 C255 1.383 . S
C286 C273 1.479 . S
C286 C287 1.398 . S
C287 C252 1.382 . S
C287 H264 0.951 . S
C287 C286 1.398 . S
Co288 N293 2.057 . S
Co288 O305 2.021 . S
Co288 O308 2.062 1_455 S
Co288 O312 2.117 1_455 S
Co288 O313 2.020 1_545 S
C289 O309 1.259 1_545 S
C289 O312 1.258 . S
Co290 N299 2.057 . S
Co290 O306 2.117 1_665 S
Co290 O307 2.020 1_565 S
Co290 O309 2.021 . S
Co290 O314 2.062 1_655 S
C291 N293 1.316 . S
C291 N294 1.347 . S
C291 H296 0.931 . S
C292 N293 1.375 1_655 S
C292 C295 1.350 . S
C292 H297 0.930 . S
N293 Co288 2.057 . S
N293 C291 1.316 . S
N293 C292 1.375 1_455 S
N294 C291 1.347 . S
N294 C295 1.373 1_455 S
C295 C292 1.350 . S
C295 N294 1.373 1_655 S
C295 H316 0.931 . S
H296 C291 0.931 . S
H297 C292 0.930 . S
C298 O305 1.259 . S
C298 O306 1.258 . S
N299 Co290 2.057 . S
N299 C300 1.316 . S
N299 C301 1.375 1_655 S
C300 N299 1.316 . S
C300 N302 1.347 . S
C300 H311 0.931 . S
C301 N299 1.375 1_455 S
C301 C303 1.350 . S
C301 H310 0.930 . S
N302 C300 1.347 . S
N302 C303 1.373 1_655 S
C303 C301 1.350 . S
C303 N302 1.373 1_455 S
C303 H317 0.931 . S
C304 O307 1.256 . S
C304 O308 1.255 . S
O305 Co288 2.021 . S
O305 C298 1.259 . S
O306 Co290 2.117 1_445 S
O306 C298 1.258 . S
O307 Co290 2.020 1_545 S
O307 C304 1.256 . S
O308 Co288 2.062 1_655 S
O308 C304 1.255 . S
O309 C289 1.259 1_565 S
O309 Co290 2.021 . S
H310 C301 0.930 . S
H311 C300 0.931 . S
O312 Co288 2.117 1_655 S
O312 C289 1.258 . S
O313 Co288 2.020 1_565 S
O313 C315 1.256 . S
O314 Co290 2.062 1_455 S
O314 C315 1.255 . S
C315 O313 1.256 . S
C315 O314 1.255 . S
H316 C295 0.931 . S
H317 C303 0.931 . S
Co318 N323 2.057 . S
Co318 O335 2.021 . S
Co318 O338 2.062 . S
Co318 O342 2.117 1_545 S
Co318 O343 2.020 . S
C319 O339 1.259 . S
C319 O342 1.258 . S
Co320 N329 2.054 1_545 S
Co320 O336 2.141 . S
Co320 O337 2.022 . S
Co320 O339 1.998 1_545 S
Co320 O344 2.063 1_545 S
C321 N323 1.316 . S
C321 N324 1.347 . S
C321 H326 0.931 . S
C322 N323 1.375 . S
C322 C325 1.350 . S
C322 H327 0.930 1_545 S
N323 Co318 2.057 . S
N323 C321 1.316 . S
N323 C322 1.375 . S
N324 C321 1.347 . S
N324 C325 1.373 . S
C325 C322 1.350 . S
C325 N324 1.373 . S
C325 H346 0.931 . S
H326 C321 0.931 . S
H327 C322 0.930 1_565 S
C328 O335 1.259 . S
C328 O336 1.258 . S
N329 Co320 2.054 1_565 S
N329 C330 1.316 . S
N329 C331 1.375 1_565 S
C330 N329 1.316 . S
C330 N332 1.347 . S
C330 H341 0.931 . S
C331 N329 1.375 1_545 S
C331 C333 1.350 . S
C331 H340 0.930 . S
N332 C330 1.347 . S
N332 C333 1.373 1_565 S
C333 C331 1.350 . S
C333 N332 1.373 1_545 S
C333 H347 0.931 . S
C334 O337 1.256 . S
C334 O338 1.255 . S
O335 Co318 2.021 . S
O335 C328 1.259 . S
O336 Co320 2.141 . S
O336 C328 1.258 . S
O337 Co320 2.022 . S
O337 C334 1.256 . S
O338 Co318 2.062 . S
O338 C334 1.255 . S
O339 C319 1.259 . S
O339 Co320 1.998 1_565 S
H340 C331 0.930 . S
H341 C330 0.931 . S
O342 Co318 2.117 1_565 S
O342 C319 1.258 . S
O343 Co318 2.020 . S
O343 C345 1.256 . S
O344 Co320 2.063 1_565 S
O344 C345 1.255 1_565 S
C345 O343 1.256 . S
C345 O344 1.255 1_545 S
H346 C325 0.931 . S
H347 C333 0.931 . S
Co348 N353 2.057 . S
Co348 O365 2.021 . S
Co348 O368 2.062 . S
Co348 O372 2.117 . S
Co348 O373 2.020 . S
C349 O369 1.259 . S
C349 O372 1.258 . S
Co350 N359 2.057 . S
Co350 O366 2.117 . S
Co350 O367 2.020 . S
Co350 O369 2.021 . S
Co350 O374 2.062 . S
C351 N353 1.316 . S
C351 N354 1.347 . S
C351 H356 0.931 . S
C352 N353 1.375 . S
C352 C355 1.350 . S
C352 H357 0.930 . S
N353 Co348 2.057 . S
N353 C351 1.316 . S
N353 C352 1.375 . S
N354 C351 1.347 . S
N354 C355 1.373 . S
C355 C352 1.350 . S
C355 N354 1.373 . S
C355 H376 0.931 . S
H356 C351 0.931 . S
H357 C352 0.930 . S
C358 O365 1.259 . S
C358 O366 1.258 . S
N359 Co350 2.057 . S
N359 C360 1.316 . S
N359 C361 1.375 . S
C360 N359 1.316 . S
C360 N362 1.347 . S
C360 H371 0.931 . S
C361 N359 1.375 . S
C361 C363 1.350 . S
C361 H370 0.930 . S
N362 C360 1.347 . S
N362 C363 1.373 . S
C363 C361 1.350 . S
C363 N362 1.373 . S
C363 H377 0.931 . S
C364 O367 1.256 . S
C364 O368 1.255 . S
O365 Co348 2.021 . S
O365 C358 1.259 . S
O366 Co350 2.117 . S
O366 C358 1.258 . S
O367 Co350 2.020 . S
O367 C364 1.256 . S
O368 Co348 2.062 . S
O368 C364 1.255 . S
O369 C349 1.259 . S
O369 Co350 2.021 . S
H370 C361 0.930 . S
H371 C360 0.931 . S
O372 Co348 2.117 . S
O372 C349 1.258 . S
O373 Co348 2.020 . S
O373 C375 1.256 . S
O374 Co350 2.062 . S
O374 C375 1.255 . S
C375 O373 1.256 . S
C375 O374 1.255 . S
H376 C355 0.931 . S
H377 C363 0.931 . S
Co378 N383 2.057 . S
Co378 O395 2.021 1_455 S
Co378 O398 2.062 1_455 S
Co378 O402 2.117 . S
Co378 O403 2.020 . S
C379 O399 1.259 . S
C379 O402 1.258 . S
Co380 N389 2.057 . S
Co380 O396 2.117 . S
Co380 O397 2.020 . S
Co380 O399 2.021 1_655 S
Co380 O404 2.062 1_655 S
C381 N383 1.316 . S
C381 N384 1.347 . S
C381 H386 0.931 1_455 S
C382 N383 1.375 . S
C382 C385 1.350 . S
C382 H387 0.930 . S
N383 Co378 2.057 . S
N383 C381 1.316 . S
N383 C382 1.375 . S
N384 C381 1.347 . S
N384 C385 1.373 . S
C385 C382 1.350 . S
C385 N384 1.373 . S
C385 H406 0.931 . S
H386 C381 0.931 1_655 S
H387 C382 0.930 . S
C388 O395 1.259 . S
C388 O396 1.258 . S
N389 Co380 2.057 . S
N389 C390 1.316 . S
N389 C391 1.375 . S
C390 N389 1.316 . S
C390 N392 1.347 . S
C390 H401 0.931 1_655 S
C391 N389 1.375 . S
C391 C393 1.350 . S
C391 H400 0.930 . S
N392 C390 1.347 . S
N392 C393 1.373 . S
C393 C391 1.350 . S
C393 N392 1.373 . S
C393 H407 0.931 . S
C394 O397 1.256 . S
C394 O398 1.255 . S
O395 Co378 2.021 1_655 S
O395 C388 1.259 . S
O396 Co380 2.117 . S
O396 C388 1.258 . S
O397 Co380 2.020 . S
O397 C394 1.256 . S
O398 Co378 2.062 1_655 S
O398 C394 1.255 . S
O399 C379 1.259 . S
O399 Co380 2.021 1_455 S
H400 C391 0.930 . S
H401 C390 0.931 1_455 S
O402 Co378 2.117 . S
O402 C379 1.258 . S
O403 Co378 2.020 . S
O403 C405 1.256 . S
O404 Co380 2.062 1_455 S
O404 C405 1.255 . S
C405 O403 1.256 . S
C405 O404 1.255 . S
H406 C385 0.931 . S
H407 C393 0.931 . S
H408 C426 0.951 . S
H409 C428 0.951 . S
H410 C430 0.950 . S
H411 C431 0.950 . S
H412 C433 0.950 . S
H413 C436 0.950 . S
H414 C437 0.950 . S
H415 C439 0.950 1_565 S
H416 C440 0.950 . S
H417 C441 0.951 . S
H418 C443 0.951 . S
H419 C445 0.950 . S
H420 C446 0.950 1_565 S
H421 C448 0.950 . S
H422 C451 0.950 . S
H423 C452 0.950 . S
H424 C454 0.950 . S
H425 C455 0.950 . S
C426 H408 0.951 . S
C426 C427 1.366 . S
C426 C428 1.388 . S
C427 C426 1.366 . S
C427 C431 1.385 . S
C428 H409 0.951 . S
C428 C426 1.388 . S
C428 C429 1.366 . S
C429 C428 1.366 . S
C429 C430 1.414 . S
C429 C432 1.499 . S
C430 H410 0.950 . S
C430 C429 1.414 . S
C430 C431 1.374 . S
C431 H411 0.950 . S
C431 C427 1.385 . S
C431 C430 1.374 . S
C432 C429 1.499 . S
C432 C433 1.373 . S
C432 C434 1.389 . S
C433 H412 0.950 . S
C433 C432 1.373 . S
C433 C449 1.377 . S
C434 C432 1.389 . S
C434 C435 1.524 . S
C434 C448 1.377 . S
C435 C434 1.524 . S
C435 C436 1.397 . S
C435 C440 1.363 . S
C436 H413 0.950 . S
C436 C435 1.397 . S
C436 C437 1.334 . S
C437 H414 0.950 . S
C437 C436 1.334 . S
C437 C438 1.287 . S
C438 C437 1.287 . S
C438 C439 1.524 . S
C438 H457 0.913 . S
C439 H415 0.950 1_545 S
C439 C438 1.524 . S
C439 C440 1.415 . S
C440 H416 0.950 . S
C440 C435 1.363 . S
C440 C439 1.415 . S
C441 H417 0.951 . S
C441 C442 1.366 . S
C441 C443 1.388 . S
C442 C441 1.366 . S
C442 C446 1.385 . S
C443 H418 0.951 . S
C443 C441 1.388 . S
C443 C444 1.366 . S
C444 C443 1.366 . S
C444 C445 1.414 . S
C444 C447 1.499 . S
C445 H419 0.950 . S
C445 C444 1.414 . S
C445 C446 1.374 . S
C446 H420 0.950 1_545 S
C446 C442 1.385 . S
C446 C445 1.374 . S
C447 C444 1.499 . S
C447 C448 1.373 . S
C447 C449 1.389 . S
C448 H421 0.950 . S
C448 C434 1.377 . S
C448 C447 1.373 . S
C449 C433 1.377 . S
C449 C447 1.389 . S
C449 C450 1.524 . S
C450 C449 1.524 . S
C450 C451 1.397 . S
C450 C455 1.363 . S
C451 H422 0.950 . S
C451 C450 1.397 . S
C451 C452 1.334 . S
C452 H423 0.950 . S
C452 C451 1.334 . S
C452 C453 1.287 . S
C453 C452 1.287 . S
C453 C454 1.524 . S
C453 H456 0.999 . S
C454 H424 0.950 . S
C454 C453 1.524 . S
C454 C455 1.415 . S
C455 H425 0.950 . S
C455 C450 1.363 . S
C455 C454 1.415 . S
H456 C453 0.999 . S
H457 C438 0.913 . S
H458 C476 0.951 . S
H459 C478 0.951 . S
H460 C480 0.950 . S
H461 C481 0.950 . S
H462 C483 0.950 . S
H463 C486 0.950 . S
H464 C487 0.950 . S
H465 C489 0.950 . S
H466 C490 0.950 . S
H467 C491 0.951 . S
H468 C493 0.951 . S
H469 C495 0.950 . S
H470 C496 0.950 . S
H471 C498 0.950 . S
H472 C501 0.950 . S
H473 C502 0.950 . S
H474 C504 0.950 . S
H475 C505 0.950 . S
C476 H458 0.951 . S
C476 C477 1.366 . S
C476 C478 1.388 . S
C477 C476 1.366 . S
C477 C481 1.385 . S
C478 H459 0.951 . S
C478 C476 1.388 . S
C478 C479 1.366 . S
C479 C478 1.366 . S
C479 C480 1.414 . S
C479 C482 1.499 . S
C480 H460 0.950 . S
C480 C479 1.414 . S
C480 C481 1.374 . S
C481 H461 0.950 . S
C481 C477 1.385 . S
C481 C480 1.374 . S
C482 C479 1.499 . S
C482 C483 1.373 . S
C482 C484 1.389 . S
C483 H462 0.950 . S
C483 C482 1.373 . S
C483 C499 1.377 . S
C484 C482 1.389 . S
C484 C485 1.524 . S
C484 C498 1.377 . S
C485 C484 1.524 . S
C485 C486 1.397 . S
C485 C490 1.363 . S
C486 H463 0.950 . S
C486 C485 1.397 . S
C486 C487 1.334 . S
C487 H464 0.950 . S
C487 C486 1.334 . S
C487 C488 1.287 . S
C488 C487 1.287 . S
C488 C489 1.524 . S
C488 H507 0.913 . S
C489 H465 0.950 . S
C489 C488 1.524 . S
C489 C490 1.415 . S
C490 H466 0.950 . S
C490 C485 1.363 . S
C490 C489 1.415 . S
C491 H467 0.951 . S
C491 C492 1.366 . S
C491 C493 1.388 . S
C492 C491 1.366 . S
C492 C496 1.385 . S
C493 H468 0.951 . S
C493 C491 1.388 . S
C493 C494 1.366 . S
C494 C493 1.366 . S
C494 C495 1.414 . S
C494 C497 1.499 . S
C495 H469 0.950 . S
C495 C494 1.414 . S
C495 C496 1.374 . S
C496 H470 0.950 . S
C496 C492 1.385 . S
C496 C495 1.374 . S
C497 C494 1.499 . S
C497 C498 1.373 . S
C497 C499 1.389 . S
C498 H471 0.950 . S
C498 C484 1.377 . S
C498 C497 1.373 . S
C499 C483 1.377 . S
C499 C497 1.389 . S
C499 C500 1.524 . S
C500 C499 1.524 . S
C500 C501 1.397 . S
C500 C505 1.363 . S
C501 H472 0.950 . S
C501 C500 1.397 . S
C501 C502 1.334 . S
C502 H473 0.950 . S
C502 C501 1.334 . S
C502 C503 1.287 . S
C503 C502 1.287 . S
C503 C504 1.524 . S
C503 H506 0.999 . S
C504 H474 0.950 . S
C504 C503 1.524 . S
C504 C505 1.415 . S
C505 H475 0.950 . S
C505 C500 1.363 . S
C505 C504 1.415 . S
H506 C503 0.999 . S
H507 C488 0.913 . S
H508 C526 0.951 . S
H509 C528 0.951 . S
H510 C530 0.950 . S
H511 C531 0.950 . S
H512 C533 0.950 . S
H513 C536 0.950 . S
H514 C537 0.950 . S
H515 C539 0.950 . S
H516 C540 0.950 . S
H517 C541 0.951 . S
H518 C543 0.951 . S
H519 C545 0.950 . S
H520 C546 0.950 . S
H521 C548 0.950 . S
H522 C551 0.950 . S
H523 C552 0.950 . S
H524 C554 0.950 . S
H525 C555 0.950 . S
C526 H508 0.951 . S
C526 C527 1.366 . S
C526 C528 1.388 . S
C527 C526 1.366 . S
C527 C531 1.385 . S
C528 H509 0.951 . S
C528 C526 1.388 . S
C528 C529 1.366 . S
C529 C528 1.366 . S
C529 C530 1.414 . S
C529 C532 1.499 . S
C530 H510 0.950 . S
C530 C529 1.414 . S
C530 C531 1.374 . S
C531 H511 0.950 . S
C531 C527 1.385 . S
C531 C530 1.374 . S
C532 C529 1.499 . S
C532 C533 1.373 . S
C532 C534 1.389 . S
C533 H512 0.950 . S
C533 C532 1.373 . S
C533 C549 1.377 . S
C534 C532 1.389 . S
C534 C535 1.524 . S
C534 C548 1.377 . S
C535 C534 1.524 . S
C535 C536 1.397 . S
C535 C540 1.363 . S
C536 H513 0.950 . S
C536 C535 1.397 . S
C536 C537 1.334 . S
C537 H514 0.950 . S
C537 C536 1.334 . S
C537 C538 1.287 . S
C538 C537 1.287 . S
C538 C539 1.524 . S
C538 H557 0.913 . S
C539 H515 0.950 . S
C539 C538 1.524 . S
C539 C540 1.415 . S
C540 H516 0.950 . S
C540 C535 1.363 . S
C540 C539 1.415 . S
C541 H517 0.951 . S
C541 C542 1.366 . S
C541 C543 1.388 . S
C542 C541 1.366 . S
C542 C546 1.385 . S
C543 H518 0.951 . S
C543 C541 1.388 . S
C543 C544 1.366 . S
C544 C543 1.366 . S
C544 C545 1.414 . S
C544 C547 1.499 . S
C545 H519 0.950 . S
C545 C544 1.414 . S
C545 C546 1.374 . S
C546 H520 0.950 . S
C546 C542 1.385 . S
C546 C545 1.374 . S
C547 C544 1.499 . S
C547 C548 1.373 . S
C547 C549 1.389 . S
C548 H521 0.950 . S
C548 C534 1.377 . S
C548 C547 1.373 . S
C549 C533 1.377 . S
C549 C547 1.389 . S
C549 C550 1.524 . S
C550 C549 1.524 . S
C550 C551 1.397 . S
C550 C555 1.363 . S
C551 H522 0.950 . S
C551 C550 1.397 . S
C551 C552 1.334 . S
C552 H523 0.950 . S
C552 C551 1.334 . S
C552 C553 1.287 . S
C553 C552 1.287 . S
C553 C554 1.524 . S
C553 H556 0.999 . S
C554 H524 0.950 . S
C554 C553 1.524 . S
C554 C555 1.415 . S
C555 H525 0.950 . S
C555 C550 1.363 . S
C555 C554 1.415 . S
H556 C553 0.999 . S
H557 C538 0.913 . S
H558 C576 0.958 . S
H559 C578 0.949 1_455 S
H560 C580 0.950 . S
H561 C581 0.950 . S
H562 C583 0.950 . S
H563 C586 0.950 . S
H564 C587 0.950 . S
H565 C589 0.950 . S
H566 C590 0.950 . S
H567 C591 0.951 . S
H568 C593 0.951 . S
H569 C595 0.950 . S
H570 C596 0.950 . S
H571 C598 0.950 . S
H572 C601 0.950 . S
H573 C602 0.950 . S
H574 C604 0.950 . S
H575 C605 0.950 . S
C576 H558 0.958 . S
C576 C577 1.364 1_455 S
C576 C578 1.387 1_455 S
C577 C576 1.364 1_655 S
C577 C581 1.387 . S
C578 H559 0.949 1_655 S
C578 C576 1.387 1_655 S
C578 C579 1.371 . S
C579 C578 1.371 . S
C579 C580 1.414 . S
C579 C582 1.499 . S
C580 H560 0.950 . S
C580 C579 1.414 . S
C580 C581 1.374 . S
C581 H561 0.950 . S
C581 C577 1.387 . S
C581 C580 1.374 . S
C582 C579 1.499 . S
C582 C583 1.373 1_655 S
C582 C584 1.389 . S
C583 H562 0.950 . S
C583 C582 1.373 1_455 S
C583 C599 1.377 . S
C584 C582 1.389 . S
C584 C585 1.524 . S
C584 C598 1.377 . S
C585 C584 1.524 . S
C585 C586 1.397 . S
C585 C590 1.363 . S
C586 H563 0.950 . S
C586 C585 1.397 . S
C586 C587 1.334 . S
C587 H564 0.950 . S
C587 C586 1.334 . S
C587 C588 1.287 . S
C588 C587 1.287 . S
C588 C589 1.524 . S
C588 H607 0.913 . S
C589 H565 0.950 . S
C589 C588 1.524 . S
C589 C590 1.415 . S
C590 H566 0.950 . S
C590 C585 1.363 . S
C590 C589 1.415 . S
C591 H567 0.951 . S
C591 C592 1.366 . S
C591 C593 1.388 . S
C592 C591 1.366 . S
C592 C596 1.385 . S
C593 H568 0.951 . S
C593 C591 1.388 . S
C593 C594 1.366 . S
C594 C593 1.366 . S
C594 C595 1.414 . S
C594 C597 1.499 . S
C595 H569 0.950 . S
C595 C594 1.414 . S
C595 C596 1.374 . S
C596 H570 0.950 . S
C596 C592 1.385 . S
C596 C595 1.374 . S
C597 C594 1.499 . S
C597 C598 1.373 . S
C597 C599 1.389 1_655 S
C598 H571 0.950 . S
C598 C584 1.377 . S
C598 C597 1.373 . S
C599 C583 1.377 . S
C599 C597 1.389 1_455 S
C599 C600 1.524 . S
C600 C599 1.524 . S
C600 C601 1.397 . S
C600 C605 1.363 . S
C601 H572 0.950 . S
C601 C600 1.397 . S
C601 C602 1.334 . S
C602 H573 0.950 . S
C602 C601 1.334 . S
C602 C603 1.287 . S
C603 C602 1.287 . S
C603 C604 1.524 . S
C603 H606 0.999 . S
C604 H574 0.950 . S
C604 C603 1.524 . S
C604 C605 1.415 . S
C605 H575 0.950 . S
C605 C600 1.363 . S
C605 C604 1.415 . S
H606 C603 0.999 . S
H607 C588 0.913 . S
H608 C626 0.951 . S
H609 C628 0.951 . S
H610 C630 0.950 . S
H611 C631 0.950 . S
H612 C633 0.950 . S
H613 C636 0.950 . S
H614 C637 0.950 . S
H615 C639 0.950 1_554 S
H616 C640 0.950 . S
H617 C641 0.951 . S
H618 C643 0.951 . S
H619 C645 0.947 1_545 S
H620 C646 0.950 . S
H621 C648 0.968 . S
H622 C651 0.950 . S
H623 C652 0.950 . S
H624 C654 0.950 . S
H625 C655 0.950 . S
C626 H608 0.951 . S
C626 C627 1.366 . S
C626 C628 1.388 . S
C627 C626 1.366 . S
C627 C631 1.385 1_554 S
C628 H609 0.951 . S
C628 C626 1.388 . S
C628 C629 1.366 1_554 S
C629 C628 1.366 1_556 S
C629 C630 1.414 . S
C629 C632 1.499 . S
C630 H610 0.950 . S
C630 C629 1.414 . S
C630 C631 1.374 . S
C631 H611 0.950 . S
C631 C627 1.385 1_556 S
C631 C630 1.374 . S
C632 C629 1.499 . S
C632 C633 1.373 . S
C632 C634 1.389 . S
C633 H612 0.950 . S
C633 C632 1.373 . S
C633 C649 1.377 . S
C634 C632 1.389 . S
C634 C635 1.524 . S
C634 C648 1.377 . S
C635 C634 1.524 . S
C635 C636 1.397 . S
C635 C640 1.363 1_565 S
C636 H613 0.950 . S
C636 C635 1.397 . S
C636 C637 1.334 1_565 S
C637 H614 0.950 . S
C637 C636 1.334 1_545 S
C637 C638 1.287 . S
C638 C637 1.287 . S
C638 C639 1.524 . S
C638 H657 0.913 . S
C639 H615 0.950 1_556 S
C639 C638 1.524 . S
C639 C640 1.415 . S
C640 H616 0.950 . S
C640 C635 1.363 1_545 S
C640 C639 1.415 . S
C641 H617 0.951 . S
C641 C642 1.366 . S
C641 C643 1.388 . S
C642 C641 1.366 . S
C642 C646 1.385 1_565 S
C643 H618 0.951 . S
C643 C641 1.388 . S
C643 C644 1.366 . S
C644 C643 1.366 . S
C644 C645 1.414 . S
C644 C647 1.499 . S
C645 H619 0.947 1_565 S
C645 C644 1.414 . S
C645 C646 1.374 1_565 S
C646 H620 0.950 . S
C646 C642 1.385 1_545 S
C646 C645 1.374 1_545 S
C647 C644 1.499 . S
C647 C648 1.373 . S
C647 C649 1.389 . S
C648 H621 0.968 . S
C648 C634 1.377 . S
C648 C647 1.373 . S
C649 C633 1.377 . S
C649 C647 1.389 . S
C649 C650 1.524 . S
C650 C649 1.524 . S
C650 C651 1.397 . S
C650 C655 1.363 . S
C651 H622 0.950 . S
C651 C650 1.397 . S
C651 C652 1.334 . S
C652 H623 0.950 . S
C652 C651 1.334 . S
C652 C653 1.287 . S
C653 C652 1.287 . S
C653 C654 1.524 . S
C653 H656 0.999 . S
C654 H624 0.950 . S
C654 C653 1.524 . S
C654 C655 1.415 . S
C655 H625 0.950 . S
C655 C650 1.363 . S
C655 C654 1.415 . S
H656 C653 0.999 . S
H657 C638 0.913 . S
H658 C676 0.951 . S
H659 C678 0.951 . S
H660 C680 0.950 . S
H661 C681 0.950 . S
H662 C683 0.950 1_554 S
H663 C686 0.950 . S
H664 C687 0.950 . S
H665 C689 0.950 . S
H666 C690 0.950 . S
H667 C691 0.951 . S
H668 C693 0.951 . S
H669 C695 0.950 . S
H670 C696 0.950 . S
H671 C698 0.950 . S
H672 C701 0.950 . S
H673 C702 0.950 . S
H674 C704 0.950 . S
H675 C705 0.950 . S
C676 H658 0.951 . S
C676 C677 1.366 . S
C676 C678 1.388 1_554 S
C677 C676 1.366 . S
C677 C681 1.385 . S
C678 H659 0.951 . S
C678 C676 1.388 1_556 S
C678 C679 1.366 . S
C679 C678 1.366 . S
C679 C680 1.414 1_556 S
C679 C682 1.499 . S
C680 H660 0.950 . S
C680 C679 1.414 1_554 S
C680 C681 1.374 . S
C681 H661 0.950 . S
C681 C677 1.385 . S
C681 C680 1.374 . S
C682 C679 1.499 . S
C682 C683 1.373 . S
C682 C684 1.389 . S
C683 H662 0.950 1_556 S
C683 C682 1.373 . S
C683 C699 1.377 . S
C684 C682 1.389 . S
C684 C685 1.524 . S
C684 C698 1.377 . S
C685 C684 1.524 . S
C685 C686 1.397 . S
C685 C690 1.363 . S
C686 H663 0.950 . S
C686 C685 1.397 . S
C686 C687 1.334 . S
C687 H664 0.950 . S
C687 C686 1.334 . S
C687 C688 1.287 . S
C688 C687 1.287 . S
C688 C689 1.524 . S
C688 H707 0.913 . S
C689 H665 0.950 . S
C689 C688 1.524 . S
C689 C690 1.415 . S
C690 H666 0.950 . S
C690 C685 1.363 . S
C690 C689 1.415 . S
C691 H667 0.951 . S
C691 C692 1.366 . S
C691 C693 1.388 . S
C692 C691 1.366 . S
C692 C696 1.385 . S
C693 H668 0.951 . S
C693 C691 1.388 . S
C693 C694 1.366 . S
C694 C693 1.366 . S
C694 C695 1.414 . S
C694 C697 1.499 . S
C695 H669 0.950 . S
C695 C694 1.414 . S
C695 C696 1.374 . S
C696 H670 0.950 . S
C696 C692 1.385 . S
C696 C695 1.374 . S
C697 C694 1.499 . S
C697 C698 1.373 . S
C697 C699 1.389 . S
C698 H671 0.950 . S
C698 C684 1.377 . S
C698 C697 1.373 . S
C699 C683 1.377 . S
C699 C697 1.389 . S
C699 C700 1.524 . S
C700 C699 1.524 . S
C700 C701 1.397 . S
C700 C705 1.363 1_556 S
C701 H672 0.950 . S
C701 C700 1.397 . S
C701 C702 1.334 . S
C702 H673 0.950 . S
C702 C701 1.334 . S
C702 C703 1.287 1_556 S
C703 C702 1.287 1_554 S
C703 C704 1.524 . S
C703 H706 0.999 . S
C704 H674 0.950 . S
C704 C703 1.524 . S
C704 C705 1.415 . S
C705 H675 0.950 . S
C705 C700 1.363 1_554 S
C705 C704 1.415 . S
H706 C703 0.999 . S
H707 C688 0.913 . S
H708 C726 0.951 1_556 S
H709 C728 0.951 . S
H710 C730 0.950 . S
H711 C731 0.950 . S
H712 C733 0.950 1_554 S
H713 C736 0.950 . S
H714 C737 0.950 . S
H715 C739 0.950 . S
H716 C740 0.950 . S
H717 C741 0.951 . S
H718 C743 0.951 . S
H719 C745 0.950 . S
H720 C746 0.950 . S
H721 C748 0.950 . S
H722 C751 0.950 . S
H723 C752 0.950 . S
H724 C754 0.950 . S
H725 C755 0.950 . S
C726 H708 0.951 1_554 S
C726 C727 1.366 . S
C726 C728 1.388 1_554 S
C727 C726 1.366 . S
C727 C731 1.385 . S
C728 H709 0.951 . S
C728 C726 1.388 1_556 S
C728 C729 1.366 1_556 S
C729 C728 1.366 1_554 S
C729 C730 1.414 . S
C729 C732 1.499 1_554 S
C730 H710 0.950 . S
C730 C729 1.414 . S
C730 C731 1.374 . S
C731 H711 0.950 . S
C731 C727 1.385 . S
C731 C730 1.374 . S
C732 C729 1.499 1_556 S
C732 C733 1.373 . S
C732 C734 1.389 . S
C733 H712 0.950 1_556 S
C733 C732 1.373 . S
C733 C749 1.377 . S
C734 C732 1.389 . S
C734 C735 1.524 . S
C734 C748 1.377 . S
C735 C734 1.524 . S
C735 C736 1.397 . S
C735 C740 1.363 . S
C736 H713 0.950 . S
C736 C735 1.397 . S
C736 C737 1.334 . S
C737 H714 0.950 . S
C737 C736 1.334 . S
C737 C738 1.287 . S
C738 C737 1.287 . S
C738 C739 1.524 . S
C738 H757 0.913 . S
C739 H715 0.950 . S
C739 C738 1.524 . S
C739 C740 1.415 . S
C740 H716 0.950 . S
C740 C735 1.363 . S
C740 C739 1.415 . S
C741 H717 0.951 . S
C741 C742 1.366 . S
C741 C743 1.388 . S
C742 C741 1.366 . S
C742 C746 1.385 . S
C743 H718 0.951 . S
C743 C741 1.388 . S
C743 C744 1.366 . S
C744 C743 1.366 . S
C744 C745 1.414 . S
C744 C747 1.499 . S
C745 H719 0.950 . S
C745 C744 1.414 . S
C745 C746 1.374 . S
C746 H720 0.950 . S
C746 C742 1.385 . S
C746 C745 1.374 . S
C747 C744 1.499 . S
C747 C748 1.373 . S
C747 C749 1.389 . S
C748 H721 0.950 . S
C748 C734 1.377 . S
C748 C747 1.373 . S
C749 C733 1.377 . S
C749 C747 1.389 . S
C749 C750 1.524 . S
C750 C749 1.524 . S
C750 C751 1.397 . S
C750 C755 1.363 1_556 S
C751 H722 0.950 . S
C751 C750 1.397 . S
C751 C752 1.334 . S
C752 H723 0.950 . S
C752 C751 1.334 . S
C752 C753 1.287 1_556 S
C753 C752 1.287 1_554 S
C753 C754 1.524 . S
C753 H756 0.999 . S
C754 H724 0.950 . S
C754 C753 1.524 . S
C754 C755 1.415 . S
C755 H725 0.950 . S
C755 C750 1.363 1_554 S
C755 C754 1.415 . S
H756 C753 0.999 . S
H757 C738 0.913 . S
H758 C776 0.951 . S
H759 C778 0.951 . S
H760 C780 0.950 . S
H761 C781 0.950 . S
H762 C783 0.950 . S
H763 C786 0.950 . S
H764 C787 0.950 . S
H765 C789 0.950 . S
H766 C790 0.950 . S
H767 C791 0.951 . S
H768 C793 0.951 . S
H769 C795 0.950 . S
H770 C796 0.950 . S
H771 C798 0.950 . S
H772 C801 0.950 1_655 S
H773 C802 0.969 . S
H774 C804 0.950 . S
H775 C805 0.950 . S
C776 H758 0.951 . S
C776 C777 1.349 1_655 S
C776 C778 1.388 . S
C777 C776 1.349 1_455 S
C777 C781 1.403 . S
C778 H759 0.951 . S
C778 C776 1.388 . S
C778 C779 1.366 1_655 S
C779 C778 1.366 1_455 S
C779 C780 1.414 . S
C779 C782 1.499 1_554 S
C780 H760 0.950 . S
C780 C779 1.414 . S
C780 C781 1.374 . S
C781 H761 0.950 . S
C781 C777 1.403 . S
C781 C780 1.374 . S
C782 C779 1.499 1_556 S
C782 C783 1.373 . S
C782 C784 1.389 1_455 S
C783 H762 0.950 . S
C783 C782 1.373 . S
C783 C799 1.377 . S
C784 C782 1.389 1_655 S
C784 C785 1.524 1_556 S
C784 C798 1.377 . S
C785 C784 1.524 1_554 S
C785 C786 1.397 1_655 S
C785 C790 1.363 . S
C786 H763 0.950 . S
C786 C785 1.397 1_455 S
C786 C787 1.334 . S
C787 H764 0.950 . S
C787 C786 1.334 . S
C787 C788 1.287 1_455 S
C788 C787 1.287 1_655 S
C788 C789 1.524 . S
C788 H807 0.913 . S
C789 H765 0.950 . S
C789 C788 1.524 . S
C789 C790 1.415 . S
C790 H766 0.950 . S
C790 C785 1.363 . S
C790 C789 1.415 . S
C791 H767 0.951 . S
C791 C792 1.366 . S
C791 C793 1.388 . S
C792 C791 1.366 . S
C792 C796 1.385 1_455 S
C793 H768 0.951 . S
C793 C791 1.388 . S
C793 C794 1.366 . S
C794 C793 1.366 . S
C794 C795 1.414 1_455 S
C794 C797 1.499 . S
C795 H769 0.950 . S
C795 C794 1.414 1_655 S
C795 C796 1.374 . S
C796 H770 0.950 . S
C796 C792 1.385 1_655 S
C796 C795 1.374 . S
C797 C794 1.499 . S
C797 C798 1.373 1_455 S
C797 C799 1.389 . S
C798 H771 0.950 . S
C798 C784 1.377 . S
C798 C797 1.373 1_655 S
C799 C783 1.377 . S
C799 C797 1.389 . S
C799 C800 1.524 . S
C800 C799 1.524 . S
C800 C801 1.397 . S
C800 C805 1.363 . S
C801 H772 0.950 1_455 S
C801 C800 1.397 . S
C801 C802 1.334 . S
C802 H773 0.969 . S
C802 C801 1.334 . S
C802 C803 1.287 . S
C803 C802 1.287 . S
C803 C804 1.524 . S
C803 H806 0.999 . S
C804 H774 0.950 . S
C804 C803 1.524 . S
C804 C805 1.415 . S
C805 H775 0.950 . S
C805 C800 1.363 . S
C805 C804 1.415 . S
H806 C803 0.999 . S
H807 C788 0.913 . S
H808 C826 0.951 . S
H809 C828 0.951 . S
H810 C830 0.950 . S
H811 C831 0.950 . S
H812 C833 0.950 . S
H813 C836 0.919 1_455 S
H814 C837 0.950 . S
H815 C839 0.950 . S
H816 C840 0.950 . S
H817 C841 0.951 . S
H818 C843 0.951 . S
H819 C845 0.950 . S
H820 C846 0.950 . S
H821 C848 0.950 . S
H822 C851 0.950 1_655 S
H823 C852 0.950 . S
H824 C854 0.950 . S
H825 C855 0.950 . S
C826 H808 0.951 . S
C826 C827 1.366 1_655 S
C826 C828 1.388 . S
C827 C826 1.366 1_455 S
C827 C831 1.385 . S
C828 H809 0.951 . S
C828 C826 1.388 . S
C828 C829 1.366 . S
C829 C828 1.366 . S
C829 C830 1.414 1_655 S
C829 C832 1.499 . S
C830 H810 0.950 . S
C830 C829 1.414 1_455 S
C830 C831 1.374 . S
C831 H811 0.950 . S
C831 C827 1.385 . S
C831 C830 1.374 . S
C832 C829 1.499 . S
C832 C833 1.373 1_655 S
C832 C834 1.389 . S
C833 H812 0.950 . S
C833 C832 1.373 1_455 S
C833 C849 1.377 . S
C834 C832 1.389 . S
C834 C835 1.524 . S
C834 C848 1.377 . S
C835 C834 1.524 . S
C835 C836 1.397 . S
C835 C840 1.363 . S
C836 H813 0.919 1_655 S
C836 C835 1.397 . S
C836 C837 1.334 . S
C837 H814 0.950 . S
C837 C836 1.334 . S
C837 C838 1.287 . S
C838 C837 1.287 . S
C838 C839 1.524 . S
C838 H857 0.913 . S
C839 H815 0.950 . S
C839 C838 1.524 . S
C839 C840 1.415 . S
C840 H816 0.950 . S
C840 C835 1.363 . S
C840 C839 1.415 . S
C841 H817 0.951 . S
C841 C842 1.366 1_455 S
C841 C843 1.388 . S
C842 C841 1.366 1_655 S
C842 C846 1.385 . S
C843 H818 0.951 . S
C843 C841 1.388 . S
C843 C844 1.366 1_455 S
C844 C843 1.366 1_655 S
C844 C845 1.414 . S
C844 C847 1.499 . S
C845 H819 0.950 . S
C845 C844 1.414 . S
C845 C846 1.374 . S
C846 H820 0.950 . S
C846 C842 1.385 . S
C846 C845 1.374 . S
C847 C844 1.499 . S
C847 C848 1.373 . S
C847 C849 1.389 1_655 S
C848 H821 0.950 . S
C848 C834 1.377 . S
C848 C847 1.373 . S
C849 C833 1.377 . S
C849 C847 1.389 1_455 S
C849 C850 1.524 . S
C850 C849 1.524 . S
C850 C851 1.397 . S
C850 C855 1.363 . S
C851 H822 0.950 1_455 S
C851 C850 1.397 . S
C851 C852 1.334 . S
C852 H823 0.950 . S
C852 C851 1.334 . S
C852 C853 1.287 . S
C853 C852 1.287 . S
C853 C854 1.524 . S
C853 H856 0.999 . S
C854 H824 0.950 . S
C854 C853 1.524 . S
C854 C855 1.415 . S
C855 H825 0.950 . S
C855 C850 1.363 . S
C855 C854 1.415 . S
H856 C853 0.999 . S
H857 C838 0.913 . S
H858 C876 0.951 . S
H859 C878 0.951 . S
H860 C880 0.950 . S
H861 C881 0.950 . S
H862 C883 0.950 . S
H863 C886 0.950 . S
H864 C887 0.950 . S
H865 C889 0.950 . S
H866 C890 0.950 . S
H867 C891 0.951 . S
H868 C893 0.951 . S
H869 C895 0.950 . S
H870 C896 0.950 1_565 S
H871 C898 0.950 . S
H872 C901 0.950 . S
H873 C902 0.913 1_565 S
H874 C904 0.950 . S
H875 C905 0.950 . S
C876 H858 0.951 . S
C876 C877 1.366 . S
C876 C878 1.388 . S
C877 C876 1.366 . S
C877 C881 1.385 . S
C878 H859 0.951 . S
C878 C876 1.388 . S
C878 C879 1.366 . S
C879 C878 1.366 . S
C879 C880 1.414 . S
C879 C882 1.499 . S
C880 H860 0.950 . S
C880 C879 1.414 . S
C880 C881 1.374 . S
C881 H861 0.950 . S
C881 C877 1.385 . S
C881 C880 1.374 . S
C882 C879 1.499 . S
C882 C883 1.373 . S
C882 C884 1.389 . S
C883 H862 0.950 . S
C883 C882 1.373 . S
C883 C899 1.377 . S
C884 C882 1.389 . S
C884 C885 1.524 . S
C884 C898 1.377 . S
C885 C884 1.524 . S
C885 C886 1.397 . S
C885 C890 1.363 . S
C886 H863 0.950 . S
C886 C885 1.397 . S
C886 C887 1.334 . S
C887 H864 0.950 . S
C887 C886 1.334 . S
C887 C888 1.287 . S
C888 C887 1.287 . S
C888 C889 1.524 . S
C888 H907 0.913 . S
C889 H865 0.950 . S
C889 C888 1.524 . S
C889 C890 1.415 . S
C890 H866 0.950 . S
C890 C885 1.363 . S
C890 C889 1.415 . S
C891 H867 0.951 . S
C891 C892 1.366 . S
C891 C893 1.388 . S
C892 C891 1.366 . S
C892 C896 1.385 . S
C893 H868 0.951 . S
C893 C891 1.388 . S
C893 C894 1.366 . S
C894 C893 1.366 . S
C894 C895 1.414 . S
C894 C897 1.499 . S
C895 H869 0.950 . S
C895 C894 1.414 . S
C895 C896 1.374 . S
C896 H870 0.950 1_545 S
C896 C892 1.385 . S
C896 C895 1.374 . S
C897 C894 1.499 . S
C897 C898 1.373 . S
C897 C899 1.389 . S
C898 H871 0.950 . S
C898 C884 1.377 . S
C898 C897 1.373 . S
C899 C883 1.377 . S
C899 C897 1.389 . S
C899 C900 1.524 . S
C900 C899 1.524 . S
C900 C901 1.397 . S
C900 C905 1.363 . S
C901 H872 0.950 . S
C901 C900 1.397 . S
C901 C902 1.357 . S
C902 H873 0.913 1_545 S
C902 C901 1.357 . S
C902 C903 1.302 . S
C903 C902 1.302 . S
C903 C904 1.524 . S
C903 H906 0.999 . S
C904 H874 0.950 . S
C904 C903 1.524 . S
C904 C905 1.415 . S
C905 H875 0.950 . S
C905 C900 1.363 . S
C905 C904 1.415 . S
H906 C903 0.999 . S
H907 C888 0.913 . S
H908 C926 0.951 . S
H909 C928 0.951 . S
H910 C930 0.950 . S
H911 C931 0.950 . S
H912 C933 0.950 . S
H913 C936 0.950 . S
H914 C937 0.950 . S
H915 C939 0.950 . S
H916 C940 0.950 . S
H917 C941 0.951 . S
H918 C943 0.951 . S
H919 C945 0.950 . S
H920 C946 0.950 . S
H921 C948 0.950 . S
H922 C951 0.950 . S
H923 C952 0.950 . S
H924 C954 0.950 . S
H925 C955 0.950 . S
C926 H908 0.951 . S
C926 C927 1.366 . S
C926 C928 1.388 . S
C927 C926 1.366 . S
C927 C931 1.385 . S
C928 H909 0.951 . S
C928 C926 1.388 . S
C928 C929 1.366 . S
C929 C928 1.366 . S
C929 C930 1.414 . S
C929 C932 1.499 . S
C930 H910 0.950 . S
C930 C929 1.414 . S
C930 C931 1.374 . S
C931 H911 0.950 . S
C931 C927 1.385 . S
C931 C930 1.374 . S
C932 C929 1.499 . S
C932 C933 1.373 . S
C932 C934 1.389 . S
C933 H912 0.950 . S
C933 C932 1.373 . S
C933 C949 1.377 . S
C934 C932 1.389 . S
C934 C935 1.524 . S
C934 C948 1.377 . S
C935 C934 1.524 . S
C935 C936 1.397 . S
C935 C940 1.363 . S
C936 H913 0.950 . S
C936 C935 1.397 . S
C936 C937 1.334 . S
C937 H914 0.950 . S
C937 C936 1.334 . S
C937 C938 1.287 . S
C938 C937 1.287 . S
C938 C939 1.524 . S
C938 H957 0.913 . S
C939 H915 0.950 . S
C939 C938 1.524 . S
C939 C940 1.415 . S
C940 H916 0.950 . S
C940 C935 1.363 . S
C940 C939 1.415 . S
C941 H917 0.951 . S
C941 C942 1.366 . S
C941 C943 1.388 . S
C942 C941 1.366 . S
C942 C946 1.385 . S
C943 H918 0.951 . S
C943 C941 1.388 . S
C943 C944 1.366 . S
C944 C943 1.366 . S
C944 C945 1.414 . S
C944 C947 1.499 . S
C945 H919 0.950 . S
C945 C944 1.414 . S
C945 C946 1.374 . S
C946 H920 0.950 . S
C946 C942 1.385 . S
C946 C945 1.374 . S
C947 C944 1.499 . S
C947 C948 1.373 . S
C947 C949 1.389 . S
C948 H921 0.950 . S
C948 C934 1.377 . S
C948 C947 1.373 . S
C949 C933 1.377 . S
C949 C947 1.389 . S
C949 C950 1.524 . S
C950 C949 1.524 . S
C950 C951 1.397 . S
C950 C955 1.363 . S
C951 H922 0.950 . S
C951 C950 1.397 . S
C951 C952 1.334 . S
C952 H923 0.950 . S
C952 C951 1.334 . S
C952 C953 1.287 . S
C953 C952 1.287 . S
C953 C954 1.524 . S
C953 H956 0.999 . S
C954 H924 0.950 . S
C954 C953 1.524 . S
C954 C955 1.415 . S
C955 H925 0.950 . S
C955 C950 1.363 . S
C955 C954 1.415 . S
H956 C953 0.999 . S
H957 C938 0.913 . S
H958 C976 0.951 . S
H959 C978 0.951 . S
H960 C980 0.950 . S
H961 C981 0.950 . S
H962 C983 0.950 . S
H963 C986 0.950 . S
H964 C987 0.950 . S
H965 C989 0.950 . S
H966 C990 0.950 . S
H967 C991 0.951 . S
H968 C993 0.951 . S
H969 C995 0.950 . S
H970 C996 0.950 . S
H971 C998 0.950 . S
H972 C1001 0.950 . S
H973 C1002 0.950 . S
H974 C1004 0.950 . S
H975 C1005 0.950 . S
C976 H958 0.951 . S
C976 C977 1.366 . S
C976 C978 1.388 . S
C977 C976 1.366 . S
C977 C981 1.385 . S
C978 H959 0.951 . S
C978 C976 1.388 . S
C978 C979 1.366 . S
C979 C978 1.366 . S
C979 C980 1.414 . S
C979 C982 1.499 . S
C980 H960 0.950 . S
C980 C979 1.414 . S
C980 C981 1.374 . S
C981 H961 0.950 . S
C981 C977 1.385 . S
C981 C980 1.374 . S
C982 C979 1.499 . S
C982 C983 1.373 . S
C982 C984 1.389 . S
C983 H962 0.950 . S
C983 C982 1.373 . S
C983 C999 1.377 . S
C984 C982 1.389 . S
C984 C985 1.524 . S
C984 C998 1.377 . S
C985 C984 1.524 . S
C985 C986 1.397 . S
C985 C990 1.363 . S
C986 H963 0.950 . S
C986 C985 1.397 . S
C986 C987 1.334 . S
C987 H964 0.950 . S
C987 C986 1.334 . S
C987 C988 1.287 . S
C988 C987 1.287 . S
C988 C989 1.524 . S
C988 H1007 0.913 . S
C989 H965 0.950 . S
C989 C988 1.524 . S
C989 C990 1.415 . S
C990 H966 0.950 . S
C990 C985 1.363 . S
C990 C989 1.415 . S
C991 H967 0.951 . S
C991 C992 1.366 . S
C991 C993 1.388 . S
C992 C991 1.366 . S
C992 C996 1.385 . S
C993 H968 0.951 . S
C993 C991 1.388 . S
C993 C994 1.366 . S
C994 C993 1.366 . S
C994 C995 1.414 . S
C994 C997 1.499 . S
C995 H969 0.950 . S
C995 C994 1.414 . S
C995 C996 1.374 . S
C996 H970 0.950 . S
C996 C992 1.385 . S
C996 C995 1.374 . S
C997 C994 1.499 . S
C997 C998 1.373 . S
C997 C999 1.389 . S
C998 H971 0.950 . S
C998 C984 1.377 . S
C998 C997 1.373 . S
C999 C983 1.377 . S
C999 C997 1.389 . S
C999 C1000 1.524 . S
C1000 C999 1.524 . S
C1000 C1001 1.397 . S
C1000 C1005 1.363 . S
C1001 H972 0.950 . S
C1001 C1000 1.397 . S
C1001 C1002 1.334 . S
C1002 H973 0.950 . S
C1002 C1001 1.334 . S
C1002 C1003 1.287 . S
C1003 C1002 1.287 . S
C1003 C1004 1.524 . S
C1003 H1006 0.999 . S
C1004 H974 0.950 . S
C1004 C1003 1.524 . S
C1004 C1005 1.415 . S
C1005 H975 0.950 . S
C1005 C1000 1.363 . S
C1005 C1004 1.415 . S
H1006 C1003 0.999 . S
H1007 C988 0.913 . S
H1008 C1026 0.951 . S
H1009 C1028 0.951 . S
H1010 C1030 0.950 . S
H1011 C1031 0.950 . S
H1012 C1033 0.950 . S
H1013 C1036 0.950 1_455 S
H1014 C1037 0.950 . S
H1015 C1039 0.950 . S
H1016 C1040 0.950 . S
H1017 C1041 0.951 . S
H1018 C1043 0.951 . S
H1019 C1045 0.950 . S
H1020 C1046 0.950 . S
H1021 C1048 0.950 . S
H1022 C1051 0.950 . S
H1023 C1052 0.953 . S
H1024 C1054 0.950 1_554 S
H1025 C1055 0.950 . S
C1026 H1008 0.951 . S
C1026 C1027 1.366 . S
C1026 C1028 1.388 . S
C1027 C1026 1.366 . S
C1027 C1031 1.385 1_655 S
C1028 H1009 0.951 . S
C1028 C1026 1.388 . S
C1028 C1029 1.366 1_655 S
C1029 C1028 1.366 1_455 S
C1029 C1030 1.414 . S
C1029 C1032 1.499 . S
C1030 H1010 0.950 . S
C1030 C1029 1.414 . S
C1030 C1031 1.374 . S
C1031 H1011 0.950 . S
C1031 C1027 1.385 1_455 S
C1031 C1030 1.374 . S
C1032 C1029 1.499 . S
C1032 C1033 1.373 . S
C1032 C1034 1.389 1_455 S
C1033 H1012 0.950 . S
C1033 C1032 1.373 . S
C1033 C1049 1.377 . S
C1034 C1032 1.389 1_655 S
C1034 C1035 1.524 . S
C1034 C1048 1.377 . S
C1035 C1034 1.524 . S
C1035 C1036 1.397 . S
C1035 C1040 1.363 . S
C1036 H1013 0.950 1_655 S
C1036 C1035 1.397 . S
C1036 C1037 1.334 . S
C1037 H1014 0.950 . S
C1037 C1036 1.334 . S
C1037 C1038 1.287 . S
C1038 C1037 1.287 . S
C1038 C1039 1.524 . S
C1038 H1057 0.913 . S
C1039 H1015 0.950 . S
C1039 C1038 1.524 . S
C1039 C1040 1.415 . S
C1040 H1016 0.950 . S
C1040 C1035 1.363 . S
C1040 C1039 1.415 . S
C1041 H1017 0.951 . S
C1041 C1042 1.366 . S
C1041 C1043 1.388 . S
C1042 C1041 1.366 . S
C1042 C1046 1.385 1_455 S
C1043 H1018 0.951 . S
C1043 C1041 1.388 . S
C1043 C1044 1.366 . S
C1044 C1043 1.366 . S
C1044 C1045 1.414 1_455 S
C1044 C1047 1.499 . S
C1045 H1019 0.950 . S
C1045 C1044 1.414 1_655 S
C1045 C1046 1.374 . S
C1046 H1020 0.950 . S
C1046 C1042 1.385 1_655 S
C1046 C1045 1.374 . S
C1047 C1044 1.499 . S
C1047 C1048 1.373 1_455 S
C1047 C1049 1.389 . S
C1048 H1021 0.950 . S
C1048 C1034 1.377 . S
C1048 C1047 1.373 1_655 S
C1049 C1033 1.377 . S
C1049 C1047 1.389 . S
C1049 C1050 1.524 . S
C1050 C1049 1.524 . S
C1050 C1051 1.397 . S
C1050 C1055 1.363 . S
C1051 H1022 0.950 . S
C1051 C1050 1.397 . S
C1051 C1052 1.334 . S
C1052 H1023 0.953 . S
C1052 C1051 1.334 . S
C1052 C1053 1.287 1_556 S
C1053 C1052 1.287 1_554 S
C1053 C1054 1.524 1_554 S
C1053 H1056 0.999 . S
C1054 H1024 0.950 1_556 S
C1054 C1053 1.524 1_556 S
C1054 C1055 1.414 . S
C1055 H1025 0.950 . S
C1055 C1050 1.363 . S
C1055 C1054 1.414 . S
H1056 C1053 0.999 . S
H1057 C1038 0.913 . S
H1058 C1076 0.951 . S
H1059 C1078 0.951 . S
H1060 C1080 0.950 . S
H1061 C1081 0.950 1_554 S
H1062 C1083 0.950 . S
H1063 C1086 0.950 . S
H1064 C1087 0.950 . S
H1065 C1089 0.950 . S
H1066 C1090 0.950 . S
H1067 C1091 0.951 . S
H1068 C1093 0.951 . S
H1069 C1095 0.950 . S
H1070 C1096 0.950 . S
H1071 C1098 0.950 . S
H1072 C1101 0.950 . S
H1073 C1102 0.950 . S
H1074 C1104 0.950 . S
H1075 C1105 0.950 1_554 S
C1076 H1058 0.951 . S
C1076 C1077 1.366 . S
C1076 C1078 1.388 . S
C1077 C1076 1.366 . S
C1077 C1081 1.385 . S
C1078 H1059 0.951 . S
C1078 C1076 1.388 . S
C1078 C1079 1.366 . S
C1079 C1078 1.366 . S
C1079 C1080 1.414 . S
C1079 C1082 1.499 . S
C1080 H1060 0.950 . S
C1080 C1079 1.414 . S
C1080 C1081 1.374 . S
C1081 H1061 0.950 1_556 S
C1081 C1077 1.385 . S
C1081 C1080 1.374 . S
C1082 C1079 1.499 . S
C1082 C1083 1.373 . S
C1082 C1084 1.389 . S
C1083 H1062 0.950 . S
C1083 C1082 1.373 . S
C1083 C1099 1.377 . S
C1084 C1082 1.389 . S
C1084 C1085 1.524 . S
C1084 C1098 1.377 . S
C1085 C1084 1.524 . S
C1085 C1086 1.397 . S
C1085 C1090 1.363 . S
C1086 H1063 0.950 . S
C1086 C1085 1.397 . S
C1086 C1087 1.334 . S
C1087 H1064 0.950 . S
C1087 C1086 1.334 . S
C1087 C1088 1.287 . S
C1088 C1087 1.287 . S
C1088 C1089 1.524 . S
C1088 H1107 0.913 . S
C1089 H1065 0.950 . S
C1089 C1088 1.524 . S
C1089 C1090 1.415 . S
C1090 H1066 0.950 . S
C1090 C1085 1.363 . S
C1090 C1089 1.415 . S
C1091 H1067 0.951 . S
C1091 C1092 1.366 . S
C1091 C1093 1.388 1_545 S
C1092 C1091 1.366 . S
C1092 C1096 1.385 1_545 S
C1093 H1068 0.951 . S
C1093 C1091 1.388 1_565 S
C1093 C1094 1.366 . S
C1094 C1093 1.366 . S
C1094 C1095 1.414 . S
C1094 C1097 1.499 . S
C1095 H1069 0.950 . S
C1095 C1094 1.414 . S
C1095 C1096 1.374 . S
C1096 H1070 0.950 . S
C1096 C1092 1.385 1_565 S
C1096 C1095 1.374 . S
C1097 C1094 1.499 . S
C1097 C1098 1.373 . S
C1097 C1099 1.389 . S
C1098 H1071 0.950 . S
C1098 C1084 1.377 . S
C1098 C1097 1.373 . S
C1099 C1083 1.377 . S
C1099 C1097 1.389 . S
C1099 C1100 1.524 . S
C1100 C1099 1.524 . S
C1100 C1101 1.397 . S
C1100 C1105 1.363 . S
C1101 H1072 0.950 . S
C1101 C1100 1.397 . S
C1101 C1102 1.334 . S
C1102 H1073 0.950 . S
C1102 C1101 1.334 . S
C1102 C1103 1.287 . S
C1103 C1102 1.287 . S
C1103 C1104 1.524 1_556 S
C1103 H1106 0.999 . S
C1104 H1074 0.950 . S
C1104 C1103 1.524 1_554 S
C1104 C1105 1.415 1_554 S
C1105 H1075 0.950 1_556 S
C1105 C1100 1.363 . S
C1105 C1104 1.415 1_556 S
H1106 C1103 0.999 . S
H1107 C1088 0.913 . S
H1108 C1126 0.951 . S
H1109 C1128 0.951 . S
H1110 C1130 0.950 1_554 S
H1111 C1131 0.950 . S
H1112 C1133 0.950 . S
H1113 C1136 0.950 . S
H1114 C1137 0.950 . S
H1115 C1139 0.950 . S
H1116 C1140 0.950 . S
H1117 C1141 0.951 . S
H1118 C1143 0.951 . S
H1119 C1145 0.950 . S
H1120 C1146 0.950 . S
H1121 C1148 0.950 . S
H1122 C1151 0.950 . S
H1123 C1152 0.950 . S
H1124 C1154 0.950 . S
H1125 C1155 0.950 1_554 S
C1126 H1108 0.951 . S
C1126 C1127 1.366 . S
C1126 C1128 1.388 . S
C1127 C1126 1.366 . S
C1127 C1131 1.385 1_556 S
C1128 H1109 0.951 . S
C1128 C1126 1.388 . S
C1128 C1129 1.366 . S
C1129 C1128 1.366 . S
C1129 C1130 1.414 . S
C1129 C1132 1.499 . S
C1130 H1110 0.950 1_556 S
C1130 C1129 1.414 . S
C1130 C1131 1.374 1_556 S
C1131 H1111 0.950 . S
C1131 C1127 1.385 1_554 S
C1131 C1130 1.374 1_554 S
C1132 C1129 1.499 . S
C1132 C1133 1.373 . S
C1132 C1134 1.389 . S
C1133 H1112 0.950 . S
C1133 C1132 1.373 . S
C1133 C1149 1.377 . S
C1134 C1132 1.389 . S
C1134 C1135 1.524 . S
C1134 C1148 1.377 . S
C1135 C1134 1.524 . S
C1135 C1136 1.397 . S
C1135 C1140 1.363 . S
C1136 H1113 0.950 . S
C1136 C1135 1.397 . S
C1136 C1137 1.334 . S
C1137 H1114 0.950 . S
C1137 C1136 1.334 . S
C1137 C1138 1.287 . S
C1138 C1137 1.287 . S
C1138 C1139 1.524 . S
C1138 H1157 0.913 . S
C1139 H1115 0.950 . S
C1139 C1138 1.524 . S
C1139 C1140 1.415 . S
C1140 H1116 0.950 . S
C1140 C1135 1.363 . S
C1140 C1139 1.415 . S
C1141 H1117 0.951 . S
C1141 C1142 1.366 . S
C1141 C1143 1.388 . S
C1142 C1141 1.366 . S
C1142 C1146 1.385 . S
C1143 H1118 0.951 . S
C1143 C1141 1.388 . S
C1143 C1144 1.366 . S
C1144 C1143 1.366 . S
C1144 C1145 1.414 . S
C1144 C1147 1.499 . S
C1145 H1119 0.950 . S
C1145 C1144 1.414 . S
C1145 C1146 1.374 . S
C1146 H1120 0.950 . S
C1146 C1142 1.385 . S
C1146 C1145 1.374 . S
C1147 C1144 1.499 . S
C1147 C1148 1.373 . S
C1147 C1149 1.389 . S
C1148 H1121 0.950 . S
C1148 C1134 1.377 . S
C1148 C1147 1.373 . S
C1149 C1133 1.377 . S
C1149 C1147 1.389 . S
C1149 C1150 1.524 . S
C1150 C1149 1.524 . S
C1150 C1151 1.397 . S
C1150 C1155 1.363 . S
C1151 H1122 0.950 . S
C1151 C1150 1.397 . S
C1151 C1152 1.334 . S
C1152 H1123 0.950 . S
C1152 C1151 1.334 . S
C1152 C1153 1.287 . S
C1153 C1152 1.287 . S
C1153 C1154 1.524 1_556 S
C1153 H1156 0.999 1_556 S
C1154 H1124 0.950 . S
C1154 C1153 1.524 1_554 S
C1154 C1155 1.415 1_554 S
C1155 H1125 0.950 1_556 S
C1155 C1150 1.363 . S
C1155 C1154 1.415 1_556 S
H1156 C1153 0.999 1_554 S
H1157 C1138 0.913 . S
H1158 C1176 0.951 . S
H1159 C1178 0.951 . S
H1160 C1180 0.950 1_554 S
H1161 C1181 0.950 . S
H1162 C1183 0.950 . S
H1163 C1186 0.950 . S
H1164 C1187 0.950 . S
H1165 C1189 0.950 . S
H1166 C1190 0.950 . S
H1167 C1191 0.951 . S
H1168 C1193 0.951 . S
H1169 C1195 0.950 . S
H1170 C1196 0.950 . S
H1171 C1198 0.950 . S
H1172 C1201 0.950 . S
H1173 C1202 0.950 . S
H1174 C1204 0.950 . S
H1175 C1205 0.950 . S
C1176 H1158 0.951 . S
C1176 C1177 1.366 . S
C1176 C1178 1.388 . S
C1177 C1176 1.366 . S
C1177 C1181 1.385 1_556 S
C1178 H1159 0.951 . S
C1178 C1176 1.388 . S
C1178 C1179 1.366 . S
C1179 C1178 1.366 . S
C1179 C1180 1.414 . S
C1179 C1182 1.499 . S
C1180 H1160 0.950 1_556 S
C1180 C1179 1.414 . S
C1180 C1181 1.374 1_556 S
C1181 H1161 0.950 . S
C1181 C1177 1.385 1_554 S
C1181 C1180 1.374 1_554 S
C1182 C1179 1.499 . S
C1182 C1183 1.373 . S
C1182 C1184 1.389 . S
C1183 H1162 0.950 . S
C1183 C1182 1.373 . S
C1183 C1199 1.377 . S
C1184 C1182 1.389 . S
C1184 C1185 1.524 . S
C1184 C1198 1.377 . S
C1185 C1184 1.524 . S
C1185 C1186 1.397 . S
C1185 C1190 1.363 . S
C1186 H1163 0.950 . S
C1186 C1185 1.397 . S
C1186 C1187 1.334 . S
C1187 H1164 0.950 . S
C1187 C1186 1.334 . S
C1187 C1188 1.287 . S
C1188 C1187 1.287 . S
C1188 C1189 1.524 . S
C1188 H1207 0.913 . S
C1189 H1165 0.950 . S
C1189 C1188 1.524 . S
C1189 C1190 1.415 . S
C1190 H1166 0.950 . S
C1190 C1185 1.363 . S
C1190 C1189 1.415 . S
C1191 H1167 0.951 . S
C1191 C1192 1.366 . S
C1191 C1193 1.388 . S
C1192 C1191 1.366 . S
C1192 C1196 1.385 . S
C1193 H1168 0.951 . S
C1193 C1191 1.388 . S
C1193 C1194 1.366 . S
C1194 C1193 1.366 . S
C1194 C1195 1.414 . S
C1194 C1197 1.499 . S
C1195 H1169 0.950 . S
C1195 C1194 1.414 . S
C1195 C1196 1.374 . S
C1196 H1170 0.950 . S
C1196 C1192 1.385 . S
C1196 C1195 1.374 . S
C1197 C1194 1.499 . S
C1197 C1198 1.373 . S
C1197 C1199 1.389 . S
C1198 H1171 0.950 . S
C1198 C1184 1.377 . S
C1198 C1197 1.373 . S
C1199 C1183 1.377 . S
C1199 C1197 1.389 . S
C1199 C1200 1.524 . S
C1200 C1199 1.524 . S
C1200 C1201 1.397 . S
C1200 C1205 1.363 . S
C1201 H1172 0.950 . S
C1201 C1200 1.397 . S
C1201 C1202 1.334 . S
C1202 H1173 0.950 . S
C1202 C1201 1.334 . S
C1202 C1203 1.287 . S
C1203 C1202 1.287 . S
C1203 C1204 1.524 . S
C1203 H1206 0.999 . S
C1204 H1174 0.950 . S
C1204 C1203 1.524 . S
C1204 C1205 1.415 . S
C1205 H1175 0.950 . S
C1205 C1200 1.363 . S
C1205 C1204 1.415 . S
H1206 C1203 0.999 . S
H1207 C1188 0.913 . S
H1208 C1226 0.951 . S
H1209 C1228 0.951 . S
H1210 C1230 0.950 . S
H1211 C1231 0.950 . S
H1212 C1233 0.950 . S
H1213 C1236 0.950 . S
H1214 C1237 0.950 . S
H1215 C1239 0.950 . S
H1216 C1240 0.950 . S
H1217 C1241 0.951 . S
H1218 C1243 0.951 1_554 S
H1219 C1245 0.950 . S
H1220 C1246 0.950 . S
H1221 C1248 0.950 . S
H1222 C1251 0.950 . S
H1223 C1252 0.950 . S
H1224 C1254 0.950 . S
H1225 C1255 0.950 1_554 S
C1226 H1208 0.951 . S
C1226 C1227 1.323 1_655 S
C1226 C1228 1.388 . S
C1227 C1226 1.323 1_455 S
C1227 C1231 1.429 . S
C1228 H1209 0.951 . S
C1228 C1226 1.388 . S
C1228 C1229 1.366 1_655 S
C1229 C1228 1.366 1_455 S
C1229 C1230 1.414 . S
C1229 C1232 1.499 . S
C1230 H1210 0.950 . S
C1230 C1229 1.414 . S
C1230 C1231 1.374 . S
C1231 H1211 0.950 . S
C1231 C1227 1.429 . S
C1231 C1230 1.374 . S
C1232 C1229 1.499 . S
C1232 C1233 1.373 . S
C1232 C1234 1.389 1_455 S
C1233 H1212 0.950 . S
C1233 C1232 1.373 . S
C1233 C1249 1.377 . S
C1234 C1232 1.389 1_655 S
C1234 C1235 1.524 . S
C1234 C1248 1.377 . S
C1235 C1234 1.524 . S
C1235 C1236 1.397 . S
C1235 C1240 1.363 . S
C1236 H1213 0.950 . S
C1236 C1235 1.397 . S
C1236 C1237 1.334 . S
C1237 H1214 0.950 . S
C1237 C1236 1.334 . S
C1237 C1238 1.287 . S
C1238 C1237 1.287 . S
C1238 C1239 1.524 . S
C1238 H1257 0.913 . S
C1239 H1215 0.950 . S
C1239 C1238 1.524 . S
C1239 C1240 1.415 . S
C1240 H1216 0.950 . S
C1240 C1235 1.363 . S
C1240 C1239 1.415 . S
C1241 H1217 0.951 . S
C1241 C1242 1.366 . S
C1241 C1243 1.388 . S
C1242 C1241 1.366 . S
C1242 C1246 1.385 1_455 S
C1243 H1218 0.951 1_556 S
C1243 C1241 1.388 . S
C1243 C1244 1.366 . S
C1244 C1243 1.366 . S
C1244 C1245 1.414 1_455 S
C1244 C1247 1.499 1_556 S
C1245 H1219 0.950 . S
C1245 C1244 1.414 1_655 S
C1245 C1246 1.374 . S
C1246 H1220 0.950 . S
C1246 C1242 1.385 1_655 S
C1246 C1245 1.374 . S
C1247 C1244 1.499 1_554 S
C1247 C1248 1.373 1_455 S
C1247 C1249 1.389 . S
C1248 H1221 0.950 . S
C1248 C1234 1.377 . S
C1248 C1247 1.373 1_655 S
C1249 C1233 1.377 . S
C1249 C1247 1.389 . S
C1249 C1250 1.524 1_554 S
C1250 C1249 1.524 1_556 S
C1250 C1251 1.397 . S
C1250 C1255 1.363 . S
C1251 H1222 0.950 . S
C1251 C1250 1.397 . S
C1251 C1252 1.334 . S
C1252 H1223 0.950 . S
C1252 C1251 1.334 . S
C1252 C1253 1.287 . S
C1253 C1252 1.287 . S
C1253 C1254 1.524 . S
C1253 H1256 0.999 . S
C1254 H1224 0.950 . S
C1254 C1253 1.524 . S
C1254 C1255 1.415 . S
C1255 H1225 0.950 1_556 S
C1255 C1250 1.363 . S
C1255 C1254 1.415 . S
H1256 C1253 0.999 . S
H1257 C1238 0.913 . S
H1258 C1276 0.951 . S
H1259 C1278 0.951 . S
H1260 C1280 0.950 . S
H1261 C1281 0.950 . S
H1262 C1283 0.950 . S
H1263 C1286 0.950 . S
H1264 C1287 0.950 . S
H1265 C1289 0.950 . S
H1266 C1290 0.950 . S
H1267 C1291 0.951 . S
H1268 C1293 0.951 . S
H1269 C1295 0.950 . S
H1270 C1296 0.950 1_554 S
H1271 C1298 0.950 . S
H1272 C1301 0.950 . S
H1273 C1302 0.950 . S
H1274 C1304 0.950 . S
H1275 C1305 0.950 . S
C1276 H1258 0.951 . S
C1276 C1277 1.366 . S
C1276 C1278 1.388 . S
C1277 C1276 1.366 . S
C1277 C1281 1.385 . S
C1278 H1259 0.951 . S
C1278 C1276 1.388 . S
C1278 C1279 1.366 . S
C1279 C1278 1.366 . S
C1279 C1280 1.414 . S
C1279 C1282 1.499 . S
C1280 H1260 0.950 . S
C1280 C1279 1.414 . S
C1280 C1281 1.374 . S
C1281 H1261 0.950 . S
C1281 C1277 1.385 . S
C1281 C1280 1.374 . S
C1282 C1279 1.499 . S
C1282 C1283 1.373 . S
C1282 C1284 1.389 . S
C1283 H1262 0.950 . S
C1283 C1282 1.373 . S
C1283 C1299 1.377 . S
C1284 C1282 1.389 . S
C1284 C1285 1.524 . S
C1284 C1298 1.377 . S
C1285 C1284 1.524 . S
C1285 C1286 1.397 . S
C1285 C1290 1.363 . S
C1286 H1263 0.950 . S
C1286 C1285 1.397 . S
C1286 C1287 1.334 . S
C1287 H1264 0.950 . S
C1287 C1286 1.334 . S
C1287 C1288 1.287 . S
C1288 C1287 1.287 . S
C1288 C1289 1.524 . S
C1288 H1307 0.913 . S
C1289 H1265 0.950 . S
C1289 C1288 1.524 . S
C1289 C1290 1.415 . S
C1290 H1266 0.950 . S
C1290 C1285 1.363 . S
C1290 C1289 1.415 . S
C1291 H1267 0.951 . S
C1291 C1292 1.366 . S
C1291 C1293 1.388 . S
C1292 C1291 1.366 . S
C1292 C1296 1.385 . S
C1293 H1268 0.951 . S
C1293 C1291 1.388 . S
C1293 C1294 1.366 1_556 S
C1294 C1293 1.366 1_554 S
C1294 C1295 1.414 . S
C1294 C1297 1.499 . S
C1295 H1269 0.950 . S
C1295 C1294 1.414 . S
C1295 C1296 1.374 1_554 S
C1296 H1270 0.950 1_556 S
C1296 C1292 1.385 . S
C1296 C1295 1.374 1_556 S
C1297 C1294 1.499 . S
C1297 C1298 1.373 . S
C1297 C1299 1.389 . S
C1298 H1271 0.950 . S
C1298 C1284 1.377 . S
C1298 C1297 1.373 . S
C1299 C1283 1.377 . S
C1299 C1297 1.389 . S
C1299 C1300 1.524 . S
C1300 C1299 1.524 . S
C1300 C1301 1.397 . S
C1300 C1305 1.363 1_554 S
C1301 H1272 0.950 . S
C1301 C1300 1.397 . S
C1301 C1302 1.334 1_545 S
C1302 H1273 0.950 . S
C1302 C1301 1.334 1_565 S
C1302 C1303 1.287 1_554 S
C1303 C1302 1.287 1_556 S
C1303 C1304 1.524 1_565 S
C1303 H1306 0.999 . S
C1304 H1274 0.950 . S
C1304 C1303 1.524 1_545 S
C1304 C1305 1.415 . S
C1305 H1275 0.950 . S
C1305 C1300 1.363 1_556 S
C1305 C1304 1.415 . S
H1306 C1303 0.999 . S
H1307 C1288 0.913 . S
H1308 C1326 0.951 . S
H1309 C1328 0.951 . S
H1310 C1330 0.950 . S
H1311 C1331 0.950 . S
H1312 C1333 0.950 . S
H1313 C1336 0.950 . S
H1314 C1337 0.950 . S
H1315 C1339 0.950 . S
H1316 C1340 0.950 . S
H1317 C1341 0.951 . S
H1318 C1343 0.950 1_554 S
H1319 C1345 0.950 . S
H1320 C1346 0.950 . S
H1321 C1348 0.950 . S
H1322 C1351 0.950 . S
H1323 C1352 0.950 . S
H1324 C1354 0.950 . S
H1325 C1355 0.950 . S
C1326 H1308 0.951 . S
C1326 C1327 1.366 . S
C1326 C1328 1.388 . S
C1327 C1326 1.366 . S
C1327 C1331 1.385 . S
C1328 H1309 0.951 . S
C1328 C1326 1.388 . S
C1328 C1329 1.366 . S
C1329 C1328 1.366 . S
C1329 C1330 1.414 . S
C1329 C1332 1.499 . S
C1330 H1310 0.950 . S
C1330 C1329 1.414 . S
C1330 C1331 1.374 . S
C1331 H1311 0.950 . S
C1331 C1327 1.385 . S
C1331 C1330 1.374 . S
C1332 C1329 1.499 . S
C1332 C1333 1.373 . S
C1332 C1334 1.389 . S
C1333 H1312 0.950 . S
C1333 C1332 1.373 . S
C1333 C1349 1.377 . S
C1334 C1332 1.389 . S
C1334 C1335 1.524 . S
C1334 C1348 1.377 1_554 S
C1335 C1334 1.524 . S
C1335 C1336 1.397 . S
C1335 C1340 1.363 1_554 S
C1336 H1313 0.950 . S
C1336 C1335 1.397 . S
C1336 C1337 1.334 . S
C1337 H1314 0.950 . S
C1337 C1336 1.334 . S
C1337 C1338 1.287 . S
C1338 C1337 1.287 . S
C1338 C1339 1.524 1_554 S
C1338 H1357 0.913 . S
C1339 H1315 0.950 . S
C1339 C1338 1.524 1_556 S
C1339 C1340 1.415 . S
C1340 H1316 0.950 . S
C1340 C1335 1.363 1_556 S
C1340 C1339 1.415 . S
C1341 H1317 0.951 . S
C1341 C1342 1.366 . S
C1341 C1343 1.388 . S
C1342 C1341 1.366 . S
C1342 C1346 1.385 . S
C1343 H1318 0.950 1_556 S
C1343 C1341 1.388 . S
C1343 C1344 1.366 . S
C1344 C1343 1.366 . S
C1344 C1345 1.414 . S
C1344 C1347 1.499 . S
C1345 H1319 0.950 . S
C1345 C1344 1.414 . S
C1345 C1346 1.374 . S
C1346 H1320 0.950 . S
C1346 C1342 1.385 . S
C1346 C1345 1.374 . S
C1347 C1344 1.499 . S
C1347 C1348 1.373 . S
C1347 C1349 1.389 1_556 S
C1348 H1321 0.950 . S
C1348 C1334 1.377 1_556 S
C1348 C1347 1.373 . S
C1349 C1333 1.377 . S
C1349 C1347 1.389 1_554 S
C1349 C1350 1.524 . S
C1350 C1349 1.524 . S
C1350 C1351 1.397 1_554 S
C1350 C1355 1.363 . S
C1351 H1322 0.950 . S
C1351 C1350 1.397 1_556 S
C1351 C1352 1.334 . S
C1352 H1323 0.950 . S
C1352 C1351 1.334 . S
C1352 C1353 1.287 1_556 S
C1353 C1352 1.287 1_554 S
C1353 C1354 1.524 . S
C1353 H1356 0.999 . S
C1354 H1324 0.950 . S
C1354 C1353 1.524 . S
C1354 C1355 1.415 . S
C1355 H1325 0.950 . S
C1355 C1350 1.363 . S
C1355 C1354 1.415 . S
H1356 C1353 0.999 . S
H1357 C1338 0.913 . S
H1358 C1376 0.951 . S
H1359 C1378 0.951 . S
H1360 C1380 0.950 . S
H1361 C1381 0.950 . S
H1362 C1383 0.950 . S
H1363 C1386 0.950 . S
H1364 C1387 0.950 . S
H1365 C1389 0.950 . S
H1366 C1390 0.950 . S
H1367 C1391 0.951 . S
H1368 C1393 0.951 . S
H1369 C1395 0.950 . S
H1370 C1396 0.950 . S
H1371 C1398 0.950 . S
H1372 C1401 0.950 . S
H1373 C1402 0.950 . S
H1374 C1404 0.950 . S
H1375 C1405 0.950 1_554 S
C1376 H1358 0.951 . S
C1376 C1377 1.366 . S
C1376 C1378 1.388 . S
C1377 C1376 1.366 . S
C1377 C1381 1.385 . S
C1378 H1359 0.951 . S
C1378 C1376 1.388 . S
C1378 C1379 1.366 . S
C1379 C1378 1.366 . S
C1379 C1380 1.414 . S
C1379 C1382 1.499 . S
C1380 H1360 0.950 . S
C1380 C1379 1.414 . S
C1380 C1381 1.374 . S
C1381 H1361 0.950 . S
C1381 C1377 1.385 . S
C1381 C1380 1.374 . S
C1382 C1379 1.499 . S
C1382 C1383 1.373 . S
C1382 C1384 1.389 . S
C1383 H1362 0.950 . S
C1383 C1382 1.373 . S
C1383 C1399 1.377 1_554 S
C1384 C1382 1.389 . S
C1384 C1385 1.524 . S
C1384 C1398 1.377 . S
C1385 C1384 1.524 . S
C1385 C1386 1.397 . S
C1385 C1390 1.363 . S
C1386 H1363 0.950 . S
C1386 C1385 1.397 . S
C1386 C1387 1.334 . S
C1387 H1364 0.950 . S
C1387 C1386 1.334 . S
C1387 C1388 1.287 . S
C1388 C1387 1.287 . S
C1388 C1389 1.524 . S
C1388 H1407 0.913 . S
C1389 H1365 0.950 . S
C1389 C1388 1.524 . S
C1389 C1390 1.415 . S
C1390 H1366 0.950 . S
C1390 C1385 1.363 . S
C1390 C1389 1.415 . S
C1391 H1367 0.951 . S
C1391 C1392 1.366 . S
C1391 C1393 1.388 . S
C1392 C1391 1.366 . S
C1392 C1396 1.385 . S
C1393 H1368 0.951 . S
C1393 C1391 1.388 . S
C1393 C1394 1.366 . S
C1394 C1393 1.366 . S
C1394 C1395 1.414 . S
C1394 C1397 1.499 . S
C1395 H1369 0.950 . S
C1395 C1394 1.414 . S
C1395 C1396 1.374 . S
C1396 H1370 0.950 . S
C1396 C1392 1.385 . S
C1396 C1395 1.374 . S
C1397 C1394 1.499 . S
C1397 C1398 1.373 1_556 S
C1397 C1399 1.389 . S
C1398 H1371 0.950 . S
C1398 C1384 1.377 . S
C1398 C1397 1.373 1_554 S
C1399 C1383 1.377 1_556 S
C1399 C1397 1.389 . S
C1399 C1400 1.524 . S
C1400 C1399 1.524 . S
C1400 C1401 1.397 . S
C1400 C1405 1.363 . S
C1401 H1372 0.950 . S
C1401 C1400 1.397 . S
C1401 C1402 1.334 . S
C1402 H1373 0.950 . S
C1402 C1401 1.334 . S
C1402 C1403 1.287 . S
C1403 C1402 1.287 . S
C1403 C1404 1.524 . S
C1403 H1406 0.999 . S
C1404 H1374 0.950 . S
C1404 C1403 1.524 . S
C1404 C1405 1.415 . S
C1405 H1375 0.950 1_556 S
C1405 C1400 1.363 . S
C1405 C1404 1.415 . S
H1406 C1403 0.999 . S
H1407 C1388 0.913 . S
H1408 C1426 0.951 . S
H1409 C1428 0.951 . S
H1410 C1430 0.950 . S
H1411 C1431 0.950 . S
H1412 C1433 0.950 . S
H1413 C1436 0.950 . S
H1414 C1437 0.950 . S
H1415 C1439 0.950 . S
H1416 C1440 0.950 . S
H1417 C1441 0.951 . S
H1418 C1443 0.951 . S
H1419 C1445 0.950 . S
H1420 C1446 0.950 . S
H1421 C1448 0.949 1_455 S
H1422 C1451 0.916 1_455 S
H1423 C1452 0.950 1_455 S
H1424 C1454 0.950 . S
H1425 C1455 0.950 . S
C1426 H1408 0.951 . S
C1426 C1427 1.328 1_455 S
C1426 C1428 1.388 . S
C1427 C1426 1.328 1_655 S
C1427 C1431 1.425 . S
C1428 H1409 0.951 . S
C1428 C1426 1.388 . S
C1428 C1429 1.366 1_455 S
C1429 C1428 1.366 1_655 S
C1429 C1430 1.414 . S
C1429 C1432 1.499 . S
C1430 H1410 0.950 . S
C1430 C1429 1.414 . S
C1430 C1431 1.374 . S
C1431 H1411 0.950 . S
C1431 C1427 1.425 . S
C1431 C1430 1.374 . S
C1432 C1429 1.499 . S
C1432 C1433 1.373 . S
C1432 C1434 1.392 . S
C1433 H1412 0.950 . S
C1433 C1432 1.373 . S
C1433 C1449 1.377 . S
C1434 C1432 1.392 . S
C1434 C1435 1.523 1_655 S
C1434 C1448 1.376 . S
C1435 C1434 1.523 1_455 S
C1435 C1436 1.397 1_455 S
C1435 C1440 1.363 . S
C1436 H1413 0.950 . S
C1436 C1435 1.397 1_655 S
C1436 C1437 1.334 . S
C1437 H1414 0.950 . S
C1437 C1436 1.334 . S
C1437 C1438 1.287 1_655 S
C1438 C1437 1.287 1_455 S
C1438 C1439 1.524 . S
C1438 H1457 0.913 . S
C1439 H1415 0.950 . S
C1439 C1438 1.524 . S
C1439 C1440 1.415 . S
C1440 H1416 0.950 . S
C1440 C1435 1.363 . S
C1440 C1439 1.415 . S
C1441 H1417 0.951 . S
C1441 C1442 1.366 . S
C1441 C1443 1.388 . S
C1442 C1441 1.366 . S
C1442 C1446 1.385 1_655 S
C1443 H1418 0.951 . S
C1443 C1441 1.388 . S
C1443 C1444 1.366 . S
C1444 C1443 1.366 . S
C1444 C1445 1.414 1_655 S
C1444 C1447 1.499 . S
C1445 H1419 0.950 . S
C1445 C1444 1.414 1_455 S
C1445 C1446 1.374 . S
C1446 H1420 0.950 . S
C1446 C1442 1.385 1_455 S
C1446 C1445 1.374 . S
C1447 C1444 1.499 . S
C1447 C1448 1.375 . S
C1447 C1449 1.389 . S
C1448 H1421 0.949 1_655 S
C1448 C1434 1.376 . S
C1448 C1447 1.375 . S
C1449 C1433 1.377 . S
C1449 C1447 1.389 . S
C1449 C1450 1.524 . S
C1450 C1449 1.524 . S
C1450 C1451 1.428 . S
C1450 C1455 1.363 . S
C1451 H1422 0.916 1_655 S
C1451 C1450 1.428 . S
C1451 C1452 1.337 . S
C1452 H1423 0.950 1_655 S
C1452 C1451 1.337 . S
C1452 C1453 1.287 . S
C1453 C1452 1.287 . S
C1453 C1454 1.524 . S
C1453 H1456 0.999 . S
C1454 H1424 0.950 . S
C1454 C1453 1.524 . S
C1454 C1455 1.415 . S
C1455 H1425 0.950 . S
C1455 C1450 1.363 . S
C1455 C1454 1.415 . S
H1456 C1453 0.999 . S
H1457 C1438 0.913 . S
H1458 C1476 0.951 . S
H1459 C1478 0.951 . S
H1460 C1480 0.950 . S
H1461 C1481 0.950 . S
H1462 C1483 0.950 . S
H1463 C1486 0.950 . S
H1464 C1487 0.950 . S
H1465 C1489 0.950 . S
H1466 C1490 0.950 . S
H1467 C1491 0.951 . S
H1468 C1493 0.951 . S
H1469 C1495 0.950 . S
H1470 C1496 0.950 . S
H1471 C1498 0.950 . S
H1472 C1501 0.950 . S
H1473 C1502 0.950 . S
H1474 C1504 0.950 . S
H1475 C1505 0.950 . S
C1476 H1458 0.951 . S
C1476 C1477 1.366 . S
C1476 C1478 1.388 . S
C1477 C1476 1.366 . S
C1477 C1481 1.385 . S
C1478 H1459 0.951 . S
C1478 C1476 1.388 . S
C1478 C1479 1.366 . S
C1479 C1478 1.366 . S
C1479 C1480 1.414 . S
C1479 C1482 1.499 . S
C1480 H1460 0.950 . S
C1480 C1479 1.414 . S
C1480 C1481 1.374 . S
C1481 H1461 0.950 . S
C1481 C1477 1.385 . S
C1481 C1480 1.374 . S
C1482 C1479 1.499 . S
C1482 C1483 1.373 . S
C1482 C1484 1.389 . S
C1483 H1462 0.950 . S
C1483 C1482 1.373 . S
C1483 C1499 1.377 . S
C1484 C1482 1.389 . S
C1484 C1485 1.524 . S
C1484 C1498 1.377 . S
C1485 C1484 1.524 . S
C1485 C1486 1.397 . S
C1485 C1490 1.363 . S
C1486 H1463 0.950 . S
C1486 C1485 1.397 . S
C1486 C1487 1.334 . S
C1487 H1464 0.950 . S
C1487 C1486 1.334 . S
C1487 C1488 1.287 . S
C1488 C1487 1.287 . S
C1488 C1489 1.524 . S
C1488 H1507 0.913 . S
C1489 H1465 0.950 . S
C1489 C1488 1.524 . S
C1489 C1490 1.415 . S
C1490 H1466 0.950 . S
C1490 C1485 1.363 . S
C1490 C1489 1.415 . S
C1491 H1467 0.951 . S
C1491 C1492 1.366 . S
C1491 C1493 1.388 . S
C1492 C1491 1.366 . S
C1492 C1496 1.385 . S
C1493 H1468 0.951 . S
C1493 C1491 1.388 . S
C1493 C1494 1.366 . S
C1494 C1493 1.366 . S
C1494 C1495 1.414 . S
C1494 C1497 1.499 . S
C1495 H1469 0.950 . S
C1495 C1494 1.414 . S
C1495 C1496 1.374 . S
C1496 H1470 0.950 . S
C1496 C1492 1.385 . S
C1496 C1495 1.374 . S
C1497 C1494 1.499 . S
C1497 C1498 1.373 . S
C1497 C1499 1.389 . S
C1498 H1471 0.950 . S
C1498 C1484 1.377 . S
C1498 C1497 1.373 . S
C1499 C1483 1.377 . S
C1499 C1497 1.389 . S
C1499 C1500 1.524 . S
C1500 C1499 1.524 . S
C1500 C1501 1.397 . S
C1500 C1505 1.363 . S
C1501 H1472 0.950 . S
C1501 C1500 1.397 . S
C1501 C1502 1.334 . S
C1502 H1473 0.950 . S
C1502 C1501 1.334 . S
C1502 C1503 1.287 . S
C1503 C1502 1.287 . S
C1503 C1504 1.524 . S
C1503 H1506 0.999 . S
C1504 H1474 0.950 . S
C1504 C1503 1.524 . S
C1504 C1505 1.415 . S
C1505 H1475 0.950 . S
C1505 C1500 1.363 . S
C1505 C1504 1.415 . S
H1506 C1503 0.999 . S
H1507 C1488 0.913 . S
H1508 C1526 0.951 . S
H1509 C1528 0.951 . S
H1510 C1530 0.950 . S
H1511 C1531 0.950 . S
H1512 C1533 0.950 . S
H1513 C1536 0.950 . S
H1514 C1537 0.950 . S
H1515 C1539 0.950 . S
H1516 C1540 0.950 . S
H1517 C1541 0.951 . S
H1518 C1543 0.951 . S
H1519 C1545 0.950 . S
H1520 C1546 0.950 . S
H1521 C1548 0.950 . S
H1522 C1551 0.950 . S
H1523 C1552 0.950 . S
H1524 C1554 0.950 . S
H1525 C1555 0.950 . S
C1526 H1508 0.951 . S
C1526 C1527 1.366 . S
C1526 C1528 1.388 . S
C1527 C1526 1.366 . S
C1527 C1531 1.385 . S
C1528 H1509 0.951 . S
C1528 C1526 1.388 . S
C1528 C1529 1.366 . S
C1529 C1528 1.366 . S
C1529 C1530 1.414 . S
C1529 C1532 1.499 . S
C1530 H1510 0.950 . S
C1530 C1529 1.414 . S
C1530 C1531 1.374 . S
C1531 H1511 0.950 . S
C1531 C1527 1.385 . S
C1531 C1530 1.374 . S
C1532 C1529 1.499 . S
C1532 C1533 1.373 . S
C1532 C1534 1.389 . S
C1533 H1512 0.950 . S
C1533 C1532 1.373 . S
C1533 C1549 1.377 . S
C1534 C1532 1.389 . S
C1534 C1535 1.524 . S
C1534 C1548 1.377 . S
C1535 C1534 1.524 . S
C1535 C1536 1.397 . S
C1535 C1540 1.363 . S
C1536 H1513 0.950 . S
C1536 C1535 1.397 . S
C1536 C1537 1.334 . S
C1537 H1514 0.950 . S
C1537 C1536 1.334 . S
C1537 C1538 1.287 . S
C1538 C1537 1.287 . S
C1538 C1539 1.524 . S
C1538 H1557 0.913 . S
C1539 H1515 0.950 . S
C1539 C1538 1.524 . S
C1539 C1540 1.415 . S
C1540 H1516 0.950 . S
C1540 C1535 1.363 . S
C1540 C1539 1.415 . S
C1541 H1517 0.951 . S
C1541 C1542 1.366 . S
C1541 C1543 1.388 . S
C1542 C1541 1.366 . S
C1542 C1546 1.385 . S
C1543 H1518 0.951 . S
C1543 C1541 1.388 . S
C1543 C1544 1.366 . S
C1544 C1543 1.366 . S
C1544 C1545 1.414 . S
C1544 C1547 1.499 . S
C1545 H1519 0.950 . S
C1545 C1544 1.414 . S
C1545 C1546 1.374 . S
C1546 H1520 0.950 . S
C1546 C1542 1.385 . S
C1546 C1545 1.374 . S
C1547 C1544 1.499 . S
C1547 C1548 1.373 . S
C1547 C1549 1.389 . S
C1548 H1521 0.950 . S
C1548 C1534 1.377 . S
C1548 C1547 1.373 . S
C1549 C1533 1.377 . S
C1549 C1547 1.389 . S
C1549 C1550 1.524 . S
C1550 C1549 1.524 . S
C1550 C1551 1.397 . S
C1550 C1555 1.363 . S
C1551 H1522 0.950 . S
C1551 C1550 1.397 . S
C1551 C1552 1.334 . S
C1552 H1523 0.950 . S
C1552 C1551 1.334 . S
C1552 C1553 1.287 . S
C1553 C1552 1.287 . S
C1553 C1554 1.524 . S
C1553 H1556 0.999 . S
C1554 H1524 0.950 . S
C1554 C1553 1.524 . S
C1554 C1555 1.415 . S
C1555 H1525 0.950 . S
C1555 C1550 1.363 . S
C1555 C1554 1.415 . S
H1556 C1553 0.999 . S
H1557 C1538 0.913 . S
H1558 C1576 0.951 . S
H1559 C1578 0.951 . S
H1560 C1580 0.950 . S
H1561 C1581 0.950 . S
H1562 C1583 0.950 . S
H1563 C1586 0.950 . S
H1564 C1587 0.950 . S
H1565 C1589 0.950 . S
H1566 C1590 0.950 . S
H1567 C1591 0.951 . S
H1568 C1593 0.951 . S
H1569 C1595 0.950 . S
H1570 C1596 0.950 . S
H1571 C1598 0.950 . S
H1572 C1601 0.950 . S
H1573 C1602 0.950 . S
H1574 C1604 0.950 . S
H1575 C1605 0.950 . S
C1576 H1558 0.951 . S
C1576 C1577 1.366 . S
C1576 C1578 1.388 . S
C1577 C1576 1.366 . S
C1577 C1581 1.385 . S
C1578 H1559 0.951 . S
C1578 C1576 1.388 . S
C1578 C1579 1.366 . S
C1579 C1578 1.366 . S
C1579 C1580 1.414 . S
C1579 C1582 1.499 . S
C1580 H1560 0.950 . S
C1580 C1579 1.414 . S
C1580 C1581 1.374 . S
C1581 H1561 0.950 . S
C1581 C1577 1.385 . S
C1581 C1580 1.374 . S
C1582 C1579 1.499 . S
C1582 C1583 1.373 . S
C1582 C1584 1.389 . S
C1583 H1562 0.950 . S
C1583 C1582 1.373 . S
C1583 C1599 1.377 . S
C1584 C1582 1.389 . S
C1584 C1585 1.524 . S
C1584 C1598 1.377 . S
C1585 C1584 1.524 . S
C1585 C1586 1.397 . S
C1585 C1590 1.363 . S
C1586 H1563 0.950 . S
C1586 C1585 1.397 . S
C1586 C1587 1.334 . S
C1587 H1564 0.950 . S
C1587 C1586 1.334 . S
C1587 C1588 1.287 . S
C1588 C1587 1.287 . S
C1588 C1589 1.524 . S
C1588 H1607 0.913 . S
C1589 H1565 0.950 . S
C1589 C1588 1.524 . S
C1589 C1590 1.415 . S
C1590 H1566 0.950 . S
C1590 C1585 1.363 . S
C1590 C1589 1.415 . S
C1591 H1567 0.951 . S
C1591 C1592 1.366 . S
C1591 C1593 1.388 . S
C1592 C1591 1.366 . S
C1592 C1596 1.385 . S
C1593 H1568 0.951 . S
C1593 C1591 1.388 . S
C1593 C1594 1.366 . S
C1594 C1593 1.366 . S
C1594 C1595 1.414 . S
C1594 C1597 1.499 . S
C1595 H1569 0.950 . S
C1595 C1594 1.414 . S
C1595 C1596 1.374 . S
C1596 H1570 0.950 . S
C1596 C1592 1.385 . S
C1596 C1595 1.374 . S
C1597 C1594 1.499 . S
C1597 C1598 1.373 . S
C1597 C1599 1.389 . S
C1598 H1571 0.950 . S
C1598 C1584 1.377 . S
C1598 C1597 1.373 . S
C1599 C1583 1.377 . S
C1599 C1597 1.389 . S
C1599 C1600 1.524 . S
C1600 C1599 1.524 . S
C1600 C1601 1.397 . S
C1600 C1605 1.363 . S
C1601 H1572 0.950 . S
C1601 C1600 1.397 . S
C1601 C1602 1.334 . S
C1602 H1573 0.950 . S
C1602 C1601 1.334 . S
C1602 C1603 1.287 . S
C1603 C1602 1.287 . S
C1603 C1604 1.524 . S
C1603 H1606 0.999 . S
C1604 H1574 0.950 . S
C1604 C1603 1.524 . S
C1604 C1605 1.415 . S
C1605 H1575 0.950 . S
C1605 C1600 1.363 . S
C1605 C1604 1.415 . S
H1606 C1603 0.999 . S
H1607 C1588 0.913 . S
C427 C241 1.762 . S
C442 C298 1.777 . S
C492 C328 1.679 . S
C477 C277 1.671 . S
C542 N362 1.693 . S
C527 C169 1.695 . S
C592 N392 1.263 . S
C577 C205 1.287 1_655 S
C642 C289 1.784 1_565 S
C627 C97 1.722 . S
C677 C133 1.659 . S
C692 C319 1.679 . S
C727 C25 1.649 . S
C742 N354 1.694 . S
C777 C61 1.284 . S
C792 N384 1.265 . S
C842 C304 0.725 . S
C827 C211 0.769 . S
C892 C334 0.314 . S
C877 C247 0.426 . S
C942 C375 0.200 . S
C927 C253 0.221 . S
C977 C175 0.397 . S
C992 C405 0.377 . S
C1027 C67 0.798 1_655 S
C1042 C315 0.717 . S
C1092 C345 0.317 . S
C1077 C103 0.554 . S
C1142 C364 0.202 . S
C1127 C109 0.264 . S
C1177 C31 0.568 . S
C1192 C394 0.382 . S
C1227 C181 1.613 . S
C1242 N294 1.635 . S
C1277 C217 1.761 . S
C1292 N324 1.782 . S
C1342 C349 1.808 . S
C1327 C283 1.730 . S
C1392 C379 2.099 . S
C1377 C145 2.031 . S
C1427 C37 1.612 1_655 S
C1442 N302 1.639 . S
C1492 N332 1.781 . S
C1477 C73 1.737 . S
C1542 C358 1.808 . S
C1527 C139 1.710 . S
C1577 C1 1.996 . S
C1592 C388 2.104 . S
