# Generated by pormake.
# Topology rtl, (3,6)-cn, num edge types: 1
# Building blocks:
#     Node 0, Type 0, BuildingBlock: INOVEN_clean_linker_0, # of connection points: 3
#     Node 1, Type 0, BuildingBlock: INOVEN_clean_linker_0, # of connection points: 3
#     Node 2, Type 0, BuildingBlock: INOVEN_clean_linker_0, # of connection points: 3
#     Node 3, Type 0, BuildingBlock: INOVEN_clean_linker_0, # of connection points: 3
#     Node 4, Type 1, BuildingBlock: CIFDUS_clean_sbu_1, # of connection points: 6
#     Node 5, Type 1, BuildingBlock: CIFDUS_clean_sbu_1, # of connection points: 6
#     Edge 6, Type (0, 1), BuildingBlock: XIVTED_clean_linker_0, # of connection points: 2
#     Edge 7, Type (0, 1), BuildingBlock: XIVTED_clean_linker_0, # of connection points: 2
#     Edge 8, Type (0, 1), BuildingBlock: XIVTED_clean_linker_0, # of connection points: 2
#     Edge 9, Type (0, 1), BuildingBlock: XIVTED_clean_linker_0, # of connection points: 2
#     Edge 10, Type (0, 1), BuildingBlock: XIVTED_clean_linker_0, # of connection points: 2
#     Edge 11, Type (0, 1), BuildingBlock: XIVTED_clean_linker_0, # of connection points: 2
#     Edge 12, Type (0, 1), BuildingBlock: XIVTED_clean_linker_0, # of connection points: 2
#     Edge 13, Type (0, 1), BuildingBlock: XIVTED_clean_linker_0, # of connection points: 2
#     Edge 14, Type (0, 1), BuildingBlock: XIVTED_clean_linker_0, # of connection points: 2
#     Edge 15, Type (0, 1), BuildingBlock: XIVTED_clean_linker_0, # of connection points: 2
#     Edge 16, Type (0, 1), BuildingBlock: XIVTED_clean_linker_0, # of connection points: 2
#     Edge 17, Type (0, 1), BuildingBlock: XIVTED_clean_linker_0, # of connection points: 2
# Relax obj value: 0.016
# Max RMSD: 0.112
# Mean RMSD: 0.082
data_MOF--net-rtl--node1-CIFDUS_clean_sbu_1--node2-INOVEN_clean_linker_0--edge1-XIVTED_clean_linker_0
_symmetry_space_group_name_H-M    P1
_symmetry_Int_Tables_number       1
_symmetry_cell_setting            triclinic
loop_
_symmetry_equiv_pos_as_xyz
'x, y, z'
_cell_length_a     35.739512
_cell_length_b     35.45783
_cell_length_c     22.408099
_cell_angle_alpha  92.040935
_cell_angle_beta   99.15482
_cell_angle_gamma 89.648457
loop_
_atom_site_label
_atom_site_type_symbol
_atom_site_fract_x
_atom_site_fract_y
_atom_site_fract_z
_atom_type_partial_charge
H0 H 0.20781 0.82764 0.97984 0.0
H1 H 0.15142 0.91236 0.07524 0.0
H2 H 0.22679 0.83301 0.17434 0.0
N3 N 0.24497 0.79511 0.07634 0.0
N4 N 0.27051 0.78857 0.11975 0.0
C5 C 0.20208 0.84069 0.02191 0.0
C6 C 0.17814 0.87241 0.02086 0.0
C7 C 0.22023 0.82676 0.07708 0.0
C8 C 0.2131 0.84395 0.13183 0.0
C9 C 0.18796 0.87474 0.13188 0.0
C10 C 0.17107 0.88892 0.07605 0.0
H11 H 0.70484 0.73189 0.69462 0.0
H12 H 0.62586 0.66904 0.56322 0.0
H13 H 0.69956 0.7503 0.50451 0.0
N14 N 0.73592 0.77097 0.61608 0.0
N15 N 0.74004 0.79717 0.58175 0.0
C16 C 0.69261 0.72509 0.64812 0.0
C17 C 0.66265 0.69878 0.63517 0.0
C18 C 0.70587 0.7441 0.60135 0.0
C19 C 0.68945 0.73589 0.54067 0.0
C20 C 0.66023 0.70899 0.52652 0.0
C21 C 0.64745 0.6906 0.57409 0.0
H22 H 0.78507 0.21292 0.889 0.0
H23 H 0.8545 0.13196 0.99444 0.0
H24 H 0.78603 0.21062 0.08095 0.0
N25 N 0.75612 0.24557 0.97696 0.0
N26 N 0.73236 0.25154 0.01146 0.0
C27 C 0.79573 0.20077 0.93211 0.0
C28 C 0.8212 0.17029 0.93488 0.0
C29 C 0.78251 0.21516 0.98395 0.0
C30 C 0.79585 0.19948 0.04052 0.0
C31 C 0.82188 0.16921 0.04446 0.0
C32 C 0.83406 0.15481 0.99136 0.0
H33 H 0.30767 0.32334 0.38525 0.0
H34 H 0.38265 0.38828 0.51942 0.0
H35 H 0.30087 0.31399 0.57439 0.0
N36 N 0.27046 0.28909 0.46172 0.0
N37 N 0.24467 0.28577 0.49288 0.0
C38 C 0.31747 0.33178 0.43205 0.0
C39 C 0.34745 0.35786 0.44652 0.0
C40 C 0.30011 0.31622 0.47781 0.0
C41 C 0.31344 0.32661 0.53898 0.0
C42 C 0.34413 0.35179 0.55454 0.0
C43 C 0.36021 0.36763 0.50784 0.0
O44 O 0.97373 0.04746 0.4536 0.0
Mn45 Mn 0.00571 0.02452 0.53185 0.0
O46 O 0.95204 0.99688 0.39553 0.0
Mn47 Mn 0.97428 0.96074 0.44745 0.0
O48 O 0.03732 1.0003 0.60958 0.0
O49 O 0.03957 0.07281 0.54056 0.0
Mn50 Mn 0.03942 0.08509 0.6183 0.0
O51 O 0.96557 0.04749 0.58339 0.0
O52 O 0.06372 0.04886 0.66709 0.0
O53 O 0.04597 1.00157 0.48023 0.0
O54 O 0.02276 0.94647 0.44025 0.0
O55 O 0.06815 0.12138 0.59575 0.0
O56 O 0.99201 0.09908 0.63186 0.0
C57 C 0.94945 0.94762 0.5225 0.0
C58 C 0.95435 0.03252 0.40506 0.0
C59 C 0.05895 0.01362 0.65709 0.0
C60 C 0.06111 0.10315 0.54404 0.0
C61 C 0.96376 0.07756 0.61661 0.0
C62 C 0.0497 0.9699 0.4519 0.0
O63 O 0.97187 0.97684 0.52258 0.0
O64 O 0.9442 0.92636 0.4737 0.0
O65 O 0.53037 0.56954 0.10766 0.0
Mn66 Mn 0.5056 0.52784 0.04196 0.0
O67 O 0.5842 0.54518 0.15431 0.0
Mn68 Mn 0.5653 0.49754 0.13688 0.0
O69 O 0.47991 0.48687 0.97584 0.0
O70 O 0.46068 0.56472 0.02612 0.0
Mn71 Mn 0.44833 0.56273 0.94629 0.0
O72 O 0.53388 0.55316 0.97664 0.0
O73 O 0.43048 0.51549 0.92159 0.0
O74 O 0.4783 0.50223 0.10761 0.0
O75 O 0.5265 0.48327 0.17699 0.0
O76 O 0.41516 0.59641 0.9699 0.0
O77 O 0.48802 0.57948 0.911 0.0
C78 C 0.57782 0.46551 0.06301 0.0
C79 C 0.5623 0.57302 0.14337 0.0
C80 C 0.44971 0.48607 0.93554 0.0
C81 C 0.43257 0.58883 0.02338 0.0
C82 C 0.52277 0.57202 0.92879 0.0
C83 C 0.4911 0.48672 0.15809 0.0
O84 O 0.55027 0.49039 0.05799 0.0
O85 O 0.59751 0.462 0.1163 0.0
H86 H 0.17475 0.29269 0.51742 0.0
H87 H 0.12674 0.07992 0.5064 0.0
H88 H 0.24857 0.21507 0.44061 0.0
H89 H 0.03938 0.16438 0.47955 0.0
H90 H 0.17175 0.12511 0.47677 0.0
H91 H 0.12513 0.24429 0.50392 0.0
C92 C 0.18021 0.26547 0.49699 0.0
C93 C 0.21547 0.25802 0.47959 0.0
C94 C 0.14235 0.13327 0.47489 0.0
C95 C 0.15927 0.20182 0.46539 0.0
C96 C 0.1164 0.10717 0.4906 0.0
C97 C 0.07903 0.1182 0.49483 0.0
C98 C 0.13095 0.17085 0.46477 0.0
C99 C 0.06772 0.15447 0.47612 0.0
C100 C 0.15191 0.23789 0.48903 0.0
C101 C 0.22149 0.22209 0.45392 0.0
N102 N 0.09372 0.17979 0.46382 0.0
N103 N 0.19389 0.19504 0.44861 0.0
H104 H 0.25516 0.72194 0.05686 0.0
H105 H 0.46223 0.65032 0.09093 0.0
H106 H 0.3401 0.78139 0.18275 0.0
H107 H 0.36809 0.57321 0.06456 0.0
H108 H 0.4216 0.69875 0.12903 0.0
H109 H 0.2981 0.66777 0.05684 0.0
C110 C 0.28292 0.72355 0.08443 0.0
C111 C 0.29444 0.75627 0.11941 0.0
C112 C 0.41027 0.67074 0.1172 0.0
C113 C 0.34378 0.69448 0.11944 0.0
C114 C 0.43368 0.64285 0.0966 0.0
C115 C 0.41857 0.60758 0.07514 0.0
C116 C 0.37141 0.66336 0.11465 0.0
C117 C 0.38094 0.5999 0.08137 0.0
C118 C 0.30729 0.69253 0.08493 0.0
C119 C 0.33049 0.75665 0.155 0.0
N120 N 0.35834 0.62785 0.0987 0.0
N121 N 0.35425 0.7265 0.15334 0.0
H122 H 0.80844 0.7899 0.6558 0.0
H123 H 0.88436 0.98265 0.54046 0.0
H124 H 0.7418 0.86416 0.533 0.0
H125 H 0.9579 0.89049 0.60095 0.0
H126 H 0.83102 0.94885 0.57048 0.0
H127 H 0.862 0.83435 0.66433 0.0
C128 C 0.80486 0.81588 0.63157 0.0
C129 C 0.77064 0.82352 0.59347 0.0
C130 C 0.8591 0.93658 0.57928 0.0
C131 C 0.83151 0.87456 0.60364 0.0
C132 C 0.88977 0.95633 0.56346 0.0
C133 C 0.92578 0.93961 0.56888 0.0
C134 C 0.86451 0.89986 0.60094 0.0
C135 C 0.93074 0.90468 0.59689 0.0
C136 C 0.83542 0.84119 0.63636 0.0
C137 C 0.76773 0.85738 0.56268 0.0
N138 N 0.90041 0.88566 0.61089 0.0
N139 N 0.79764 0.88158 0.56832 0.0
H140 H 0.73601 0.3138 0.94394 0.0
H141 H 0.54389 0.39798 0.03593 0.0
H142 H 0.66859 0.25886 0.05839 0.0
H143 H 0.63281 0.46824 0.99258 0.0
H144 H 0.57922 0.34197 0.00979 0.0
H145 H 0.69008 0.36597 0.93288 0.0
C146 C 0.71135 0.31255 0.96629 0.0
C147 C 0.70605 0.28205 0.00257 0.0
C148 C 0.59037 0.36968 0.0038 0.0
C149 C 0.65311 0.3412 0.98886 0.0
C150 C 0.56973 0.4017 0.01723 0.0
C151 C 0.58525 0.43784 0.01583 0.0
C152 C 0.62668 0.37391 0.98841 0.0
C153 C 0.61957 0.44091 0.99338 0.0
C154 C 0.68515 0.34228 0.95983 0.0
C155 C 0.67369 0.28199 0.03049 0.0
N156 N 0.63953 0.40938 0.98162 0.0
N157 N 0.64842 0.31103 0.02306 0.0
H158 H 0.17629 0.83725 0.23253 0.0
H159 H 0.09002 0.0166 0.38997 0.0
H160 H 0.17591 0.94939 0.16348 0.0
H161 H 0.08465 0.90221 0.44686 0.0
H162 H 0.13263 0.99547 0.31925 0.0
H163 H 0.15361 0.86322 0.32235 0.0
C164 C 0.17205 0.86745 0.23654 0.0
C165 C 0.17776 0.89101 0.18971 0.0
C166 C 0.12281 0.97518 0.34825 0.0
C167 C 0.15088 0.92107 0.29275 0.0
C168 C 0.0989 0.98735 0.38914 0.0
C169 C 0.08372 0.96105 0.42405 0.0
C170 C 0.13156 0.93654 0.34266 0.0
C171 C 0.09561 0.92335 0.42049 0.0
C172 C 0.15881 0.88229 0.28787 0.0
C173 C 0.17117 0.92994 0.19764 0.0
N174 N 0.11838 0.91219 0.3801 0.0
N175 N 0.15776 0.94367 0.24776 0.0
H176 H 0.69821 0.67338 0.74679 0.0
H177 H 0.50915 0.57298 0.80737 0.0
H178 H 0.58808 0.68248 0.63665 0.0
H179 H 0.59679 0.60036 0.95809 0.0
H180 H 0.54592 0.60254 0.73996 0.0
H181 H 0.66851 0.63983 0.82197 0.0
C182 C 0.66792 0.66857 0.73832 0.0
C183 C 0.64587 0.68029 0.68422 0.0
C184 C 0.55741 0.60215 0.78768 0.0
C185 C 0.61205 0.64135 0.76957 0.0
C186 C 0.53643 0.58505 0.82637 0.0
C187 C 0.54954 0.58462 0.88881 0.0
C188 C 0.59214 0.61938 0.81088 0.0
C189 C 0.58555 0.60013 0.91029 0.0
C190 C 0.65109 0.64926 0.78121 0.0
C191 C 0.60672 0.67309 0.67621 0.0
N192 N 0.60556 0.6173 0.87138 0.0
N193 N 0.59136 0.65399 0.7178 0.0
H194 H 0.82074 0.09492 0.06922 0.0
H195 H 0.95539 0.11073 0.39232 0.0
H196 H 0.85715 0.20282 0.15205 0.0
H197 H 0.90368 0.00839 0.30771 0.0
H198 H 0.92019 0.14649 0.30851 0.0
H199 H 0.85088 0.0641 0.15975 0.0
C200 C 0.83489 0.11217 0.10692 0.0
C201 C 0.83646 0.15146 0.103 0.0
C202 C 0.91658 0.11621 0.30881 0.0
C203 C 0.87191 0.11619 0.2076 0.0
C204 C 0.93667 0.09578 0.35659 0.0
C205 C 0.93296 0.05629 0.35722 0.0
C206 C 0.89265 0.09696 0.26151 0.0
C207 C 0.90811 0.0386 0.30952 0.0
C208 C 0.85222 0.09457 0.1588 0.0
C209 C 0.85511 0.17243 0.15344 0.0
N210 N 0.88926 0.05891 0.26408 0.0
N211 N 0.87248 0.15452 0.20353 0.0
H212 H 0.3059 0.36801 0.65017 0.0
H213 H 0.49254 0.439 0.87309 0.0
H214 H 0.41893 0.35861 0.6065 0.0
H215 H 0.37853 0.45814 0.90695 0.0
H216 H 0.46733 0.39794 0.78518 0.0
H217 H 0.33292 0.39037 0.75267 0.0
C218 C 0.3364 0.37015 0.66227 0.0
C219 C 0.36004 0.36188 0.6191 0.0
C220 C 0.44789 0.41038 0.81275 0.0
C221 C 0.39136 0.38773 0.73674 0.0
C222 C 0.46239 0.43333 0.86352 0.0
C223 C 0.4376 0.45186 0.8975 0.0
C224 C 0.40837 0.40601 0.79601 0.0
C225 C 0.39863 0.44427 0.88205 0.0
C226 C 0.35187 0.38309 0.72083 0.0
C227 C 0.39946 0.36541 0.63769 0.0
N228 N 0.38523 0.4224 0.83223 0.0
N229 N 0.41379 0.37829 0.69471 0.0
H230 H 0.58515 0.69728 0.47911 0.0
H231 H 0.63102 0.60698 0.16835 0.0
H232 H 0.69632 0.69764 0.42731 0.0
H233 H 0.51785 0.61444 0.21109 0.0
H234 H 0.6535 0.64846 0.25587 0.0
H235 H 0.55863 0.67406 0.37709 0.0
C236 C 0.60402 0.69269 0.4462 0.0
C237 C 0.64322 0.69904 0.46238 0.0
C238 C 0.62358 0.64186 0.24559 0.0
C239 C 0.61278 0.6725 0.34471 0.0
C240 C 0.61064 0.61847 0.1951 0.0
C241 C 0.57246 0.60739 0.18215 0.0
C242 C 0.59835 0.6538 0.28453 0.0
C243 C 0.54741 0.62264 0.21895 0.0
C244 C 0.58875 0.67962 0.38773 0.0
C245 C 0.66599 0.69327 0.41719 0.0
N246 N 0.56092 0.64447 0.26913 0.0
N247 N 0.65054 0.67994 0.36086 0.0
H248 H 0.83953 0.20974 0.84029 0.0
H249 H 0.92113 0.03082 0.67449 0.0
H250 H 0.83407 0.09617 0.9017 0.0
H251 H 0.93169 0.14626 0.62559 0.0
H252 H 0.87903 0.05193 0.7461 0.0
H253 H 0.86395 0.185 0.75134 0.0
C254 C 0.84303 0.17952 0.83485 0.0
C255 C 0.83485 0.15512 0.87907 0.0
C256 C 0.88989 0.0725 0.71866 0.0
C257 C 0.86358 0.12641 0.77693 0.0
C258 C 0.91346 0.06037 0.67724 0.0
C259 C 0.92989 0.0869 0.64433 0.0
C260 C 0.88279 0.11132 0.72673 0.0
C261 C 0.91965 0.12494 0.65032 0.0
C262 C 0.8572 0.16536 0.78398 0.0
C263 C 0.84062 0.11619 0.86951 0.0
N264 N 0.89717 0.13602 0.69114 0.0
N265 N 0.85484 0.10308 0.81977 0.0
H266 H 0.42326 0.36847 0.44935 0.0
H267 H 0.4146 0.46612 0.13004 0.0
H268 H 0.31595 0.38541 0.33478 0.0
H269 H 0.5088 0.47131 0.27688 0.0
H270 H 0.37709 0.43377 0.19692 0.0
H271 H 0.45484 0.40104 0.3781 0.0
C272 C 0.40621 0.37918 0.40917 0.0
C273 C 0.36669 0.37467 0.39893 0.0
C274 C 0.40594 0.44228 0.21419 0.0
C275 C 0.40318 0.41224 0.31562 0.0
C276 C 0.42728 0.46088 0.17618 0.0
C277 C 0.4652 0.47113 0.19736 0.0
C278 C 0.42281 0.43385 0.27345 0.0
C279 C 0.48004 0.46354 0.25771 0.0
C280 C 0.42435 0.39785 0.3682 0.0
C281 C 0.34646 0.38827 0.3447 0.0
N282 N 0.45905 0.44532 0.29299 0.0
N283 N 0.36488 0.40663 0.30514 0.0
H284 H 0.14046 0.83795 0.91547 0.0
H285 H 0.11921 0.03221 0.74247 0.0
H286 H 0.17845 0.94657 0.99392 0.0
H287 H 0.04573 0.93806 0.67907 0.0
H288 H 0.14901 0.99572 0.82614 0.0
H289 H 0.11246 0.86908 0.82179 0.0
C290 C 0.14308 0.86824 0.91288 0.0
C291 C 0.16166 0.88975 0.96276 0.0
C292 C 0.12641 0.98281 0.79411 0.0
C293 C 0.13017 0.92526 0.85602 0.0
C294 C 0.10927 0.00369 0.74591 0.0
C295 C 0.07931 0.98855 0.70374 0.0
C296 C 0.1139 0.94609 0.80111 0.0
C297 C 0.06854 0.95101 0.71056 0.0
C298 C 0.12695 0.88594 0.85963 0.0
C299 C 0.16406 0.92888 0.95704 0.0
N300 N 0.08567 0.93107 0.7587 0.0
N301 N 0.1487 0.94521 0.90487 0.0
loop_
_geom_bond_atom_site_label_1
_geom_bond_atom_site_label_2
_geom_bond_distance
_geom_bond_site_symmetry_2
_ccdc_geom_bond_type
H0 C5 0.929 1_556 S
H1 C10 0.931 . S
H2 C8 0.930 . S
N3 N4 1.234 . S
N3 C7 1.453 . S
N4 N3 1.234 . S
C5 H0 0.929 1_554 S
C5 C6 1.373 . S
C5 C7 1.368 . S
C6 C5 1.373 . S
C6 C10 1.397 . S
C7 N3 1.453 . S
C7 C5 1.368 . S
C7 C8 1.373 . S
C8 H2 0.930 . S
C8 C7 1.373 . S
C8 C9 1.371 . S
C9 C8 1.371 . S
C9 C10 1.383 . S
C10 H1 0.931 . S
C10 C6 1.397 . S
C10 C9 1.383 . S
H11 C16 0.929 . S
H12 C21 0.931 . S
H13 C19 0.930 . S
N14 N15 1.234 . S
N14 C18 1.453 . S
N15 N14 1.234 . S
C16 H11 0.929 . S
C16 C17 1.373 . S
C16 C18 1.368 . S
C17 C16 1.373 . S
C17 C21 1.397 . S
C18 N14 1.453 . S
C18 C16 1.368 . S
C18 C19 1.373 . S
C19 H13 0.930 . S
C19 C18 1.373 . S
C19 C20 1.371 . S
C20 C19 1.371 . S
C20 C21 1.383 . S
C21 H12 0.931 . S
C21 C17 1.397 . S
C21 C20 1.383 . S
H22 C27 0.929 . S
H23 C32 0.931 . S
H24 C30 0.930 . S
N25 N26 1.234 1_556 S
N25 C29 1.453 . S
N26 N25 1.234 1_554 S
C27 H22 0.929 . S
C27 C28 1.373 . S
C27 C29 1.368 . S
C28 C27 1.373 . S
C28 C32 1.397 1_556 S
C29 N25 1.453 . S
C29 C27 1.368 . S
C29 C30 1.373 1_556 S
C30 H24 0.930 . S
C30 C29 1.373 1_554 S
C30 C31 1.371 . S
C31 C30 1.371 . S
C31 C32 1.383 . S
C32 H23 0.931 . S
C32 C28 1.397 1_554 S
C32 C31 1.383 . S
H33 C38 0.929 . S
H34 C43 0.931 . S
H35 C41 0.930 . S
N36 N37 1.234 . S
N36 C40 1.453 . S
N37 N36 1.234 . S
C38 H33 0.929 . S
C38 C39 1.373 . S
C38 C40 1.368 . S
C39 C38 1.373 . S
C39 C43 1.397 . S
C40 N36 1.453 . S
C40 C38 1.368 . S
C40 C41 1.373 . S
C41 H35 0.930 . S
C41 C40 1.373 . S
C41 C42 1.371 . S
C42 C41 1.371 . S
C42 C43 1.383 . S
C43 H34 0.931 . S
C43 C39 1.397 . S
C43 C42 1.383 . S
O44 Mn45 2.163 1_655 S
O44 C58 1.244 . S
Mn45 O44 2.163 1_455 S
Mn45 O48 2.160 1_545 S
Mn45 O49 2.221 . S
Mn45 O51 2.163 1_455 S
Mn45 O53 2.160 1_545 S
Mn45 O63 2.221 1_445 S
O46 Mn47 2.087 1_545 S
O46 C58 1.256 . S
Mn47 O46 2.087 1_565 S
Mn47 O54 2.089 1_655 S
Mn47 O63 2.290 . S
Mn47 O64 2.251 . S
O48 Mn45 2.160 1_565 S
O48 C59 1.239 . S
O49 Mn45 2.221 . S
O49 Mn50 2.290 . S
O49 C60 1.278 . S
Mn50 O49 2.290 . S
Mn50 O52 2.089 . S
Mn50 O55 2.251 . S
Mn50 O56 2.087 . S
O51 Mn45 2.163 1_655 S
O51 C61 1.244 . S
O52 Mn50 2.089 . S
O52 C59 1.256 1_545 S
O53 Mn45 2.160 1_565 S
O53 C62 1.239 . S
O54 Mn47 2.089 1_455 S
O54 C62 1.256 . S
O55 Mn50 2.251 . S
O55 C60 1.241 . S
O56 Mn50 2.087 . S
O56 C61 1.256 1_455 S
C57 O63 1.278 . S
C57 O64 1.241 . S
C58 O44 1.244 . S
C58 O46 1.256 . S
C59 O48 1.239 . S
C59 O52 1.256 1_565 S
C60 O49 1.278 . S
C60 O55 1.241 . S
C61 O51 1.244 . S
C61 O56 1.256 1_655 S
C62 O53 1.239 . S
C62 O54 1.256 . S
O63 Mn45 2.221 1_665 S
O63 Mn47 2.290 . S
O63 C57 1.278 . S
O64 Mn47 2.251 . S
O64 C57 1.241 . S
O65 Mn66 2.163 . S
O65 C79 1.244 . S
Mn66 O65 2.163 . S
Mn66 O69 2.160 1_554 S
Mn66 O70 2.221 . S
Mn66 O72 2.163 1_554 S
Mn66 O74 2.160 . S
Mn66 O84 2.221 . S
O67 Mn68 2.087 . S
O67 C79 1.256 . S
Mn68 O67 2.087 . S
Mn68 O75 2.089 . S
Mn68 O84 2.290 . S
Mn68 O85 2.251 . S
O69 Mn66 2.160 1_556 S
O69 C80 1.239 . S
O70 Mn66 2.221 . S
O70 Mn71 2.290 1_554 S
O70 C81 1.278 . S
Mn71 O70 2.290 1_556 S
Mn71 O73 2.089 . S
Mn71 O76 2.251 . S
Mn71 O77 2.087 . S
O72 Mn66 2.163 1_556 S
O72 C82 1.244 . S
O73 Mn71 2.089 . S
O73 C80 1.256 . S
O74 Mn66 2.160 . S
O74 C83 1.239 . S
O75 Mn68 2.089 . S
O75 C83 1.256 . S
O76 Mn71 2.251 . S
O76 C81 1.241 1_556 S
O77 Mn71 2.087 . S
O77 C82 1.256 . S
C78 O84 1.278 . S
C78 O85 1.241 . S
C79 O65 1.244 . S
C79 O67 1.256 . S
C80 O69 1.239 . S
C80 O73 1.256 . S
C81 O70 1.278 . S
C81 O76 1.241 1_554 S
C82 O72 1.244 . S
C82 O77 1.256 . S
C83 O74 1.239 . S
C83 O75 1.256 . S
O84 Mn66 2.221 . S
O84 Mn68 2.290 . S
O84 C78 1.278 . S
O85 Mn68 2.251 . S
O85 C78 1.241 . S
H86 C92 0.930 . S
H87 C96 0.930 . S
H88 C101 0.929 . S
H89 C99 0.929 . S
H90 C94 0.929 . S
H91 C100 0.929 . S
C92 H86 0.930 . S
C92 C93 1.367 . S
C92 C100 1.378 . S
C93 C92 1.367 . S
C93 C101 1.433 . S
C94 H90 0.929 . S
C94 C96 1.378 . S
C94 C98 1.350 . S
C95 C98 1.463 . S
C95 C100 1.350 . S
C95 N103 1.427 . S
C96 H87 0.930 . S
C96 C94 1.378 . S
C96 C97 1.367 . S
C97 C96 1.367 . S
C97 C99 1.433 . S
C98 C94 1.350 . S
C98 C95 1.463 . S
C98 N102 1.427 . S
C99 H89 0.929 . S
C99 C97 1.433 . S
C99 N102 1.384 . S
C100 H91 0.929 . S
C100 C92 1.378 . S
C100 C95 1.350 . S
C101 H88 0.929 . S
C101 C93 1.433 . S
C101 N103 1.384 . S
N102 C98 1.427 . S
N102 C99 1.384 . S
N103 C95 1.427 . S
N103 C101 1.384 . S
H104 C110 0.930 . S
H105 C114 0.930 . S
H106 C119 0.929 . S
H107 C117 0.929 . S
H108 C112 0.929 . S
H109 C118 0.929 . S
C110 H104 0.930 . S
C110 C111 1.367 . S
C110 C118 1.378 . S
C111 C110 1.367 . S
C111 C119 1.433 . S
C112 H108 0.929 . S
C112 C114 1.378 . S
C112 C116 1.350 . S
C113 C116 1.463 . S
C113 C118 1.350 . S
C113 N121 1.427 . S
C114 H105 0.930 . S
C114 C112 1.378 . S
C114 C115 1.367 . S
C115 C114 1.367 . S
C115 C117 1.433 . S
C116 C112 1.350 . S
C116 C113 1.463 . S
C116 N120 1.427 . S
C117 H107 0.929 . S
C117 C115 1.433 . S
C117 N120 1.384 . S
C118 H109 0.929 . S
C118 C110 1.378 . S
C118 C113 1.350 . S
C119 H106 0.929 . S
C119 C111 1.433 . S
C119 N121 1.384 . S
N120 C116 1.427 . S
N120 C117 1.384 . S
N121 C113 1.427 . S
N121 C119 1.384 . S
H122 C128 0.930 . S
H123 C132 0.930 . S
H124 C137 0.929 . S
H125 C135 0.929 . S
H126 C130 0.929 . S
H127 C136 0.929 . S
C128 H122 0.930 . S
C128 C129 1.367 . S
C128 C136 1.378 . S
C129 C128 1.367 . S
C129 C137 1.433 . S
C130 H126 0.929 . S
C130 C132 1.378 . S
C130 C134 1.350 . S
C131 C134 1.463 . S
C131 C136 1.350 . S
C131 N139 1.427 . S
C132 H123 0.930 . S
C132 C130 1.378 . S
C132 C133 1.367 . S
C133 C132 1.367 . S
C133 C135 1.433 . S
C134 C130 1.350 . S
C134 C131 1.463 . S
C134 N138 1.427 . S
C135 H125 0.929 . S
C135 C133 1.433 . S
C135 N138 1.384 . S
C136 H127 0.929 . S
C136 C128 1.378 . S
C136 C131 1.350 . S
C137 H124 0.929 . S
C137 C129 1.433 . S
C137 N139 1.384 . S
N138 C134 1.427 . S
N138 C135 1.384 . S
N139 C131 1.427 . S
N139 C137 1.384 . S
H140 C146 0.930 . S
H141 C150 0.930 . S
H142 C155 0.929 1_556 S
H143 C153 0.929 . S
H144 C148 0.929 . S
H145 C154 0.929 . S
C146 H140 0.930 . S
C146 C147 1.367 . S
C146 C154 1.378 . S
C147 C146 1.367 . S
C147 C155 1.433 . S
C148 H144 0.929 . S
C148 C150 1.378 . S
C148 C152 1.350 . S
C149 C152 1.463 . S
C149 C154 1.350 . S
C149 N157 1.427 . S
C150 H141 0.930 . S
C150 C148 1.378 . S
C150 C151 1.367 . S
C151 C150 1.367 . S
C151 C153 1.433 . S
C152 C148 1.350 . S
C152 C149 1.463 . S
C152 N156 1.427 . S
C153 H143 0.929 . S
C153 C151 1.433 . S
C153 N156 1.384 . S
C154 H145 0.929 . S
C154 C146 1.378 . S
C154 C149 1.350 . S
C155 H142 0.929 1_554 S
C155 C147 1.433 . S
C155 N157 1.384 . S
N156 C152 1.427 . S
N156 C153 1.384 . S
N157 C149 1.427 . S
N157 C155 1.384 . S
H158 C164 0.930 . S
H159 C168 0.930 . S
H160 C173 0.929 . S
H161 C171 0.929 . S
H162 C166 0.929 . S
H163 C172 0.929 . S
C164 H158 0.930 . S
C164 C165 1.367 . S
C164 C172 1.378 . S
C165 C164 1.367 . S
C165 C173 1.433 . S
C166 H162 0.929 . S
C166 C168 1.378 . S
C166 C170 1.350 . S
C167 C170 1.463 . S
C167 C172 1.350 . S
C167 N175 1.427 . S
C168 H159 0.930 . S
C168 C166 1.378 . S
C168 C169 1.367 . S
C169 C168 1.367 . S
C169 C171 1.433 . S
C170 C166 1.350 . S
C170 C167 1.463 . S
C170 N174 1.427 . S
C171 H161 0.929 . S
C171 C169 1.433 . S
C171 N174 1.384 . S
C172 H163 0.929 . S
C172 C164 1.378 . S
C172 C167 1.350 . S
C173 H160 0.929 . S
C173 C165 1.433 . S
C173 N175 1.384 . S
N174 C170 1.427 . S
N174 C171 1.384 . S
N175 C167 1.427 . S
N175 C173 1.384 . S
H176 C182 0.930 . S
H177 C186 0.930 . S
H178 C191 0.929 . S
H179 C189 0.929 . S
H180 C184 0.929 . S
H181 C190 0.929 . S
C182 H176 0.930 . S
C182 C183 1.367 . S
C182 C190 1.378 . S
C183 C182 1.367 . S
C183 C191 1.433 . S
C184 H180 0.929 . S
C184 C186 1.378 . S
C184 C188 1.350 . S
C185 C188 1.463 . S
C185 C190 1.350 . S
C185 N193 1.427 . S
C186 H177 0.930 . S
C186 C184 1.378 . S
C186 C187 1.367 . S
C187 C186 1.367 . S
C187 C189 1.433 . S
C188 C184 1.350 . S
C188 C185 1.463 . S
C188 N192 1.427 . S
C189 H179 0.929 . S
C189 C187 1.433 . S
C189 N192 1.384 . S
C190 H181 0.929 . S
C190 C182 1.378 . S
C190 C185 1.350 . S
C191 H178 0.929 . S
C191 C183 1.433 . S
C191 N193 1.384 . S
N192 C188 1.427 . S
N192 C189 1.384 . S
N193 C185 1.427 . S
N193 C191 1.384 . S
H194 C200 0.930 . S
H195 C204 0.930 . S
H196 C209 0.929 . S
H197 C207 0.929 . S
H198 C202 0.929 . S
H199 C208 0.929 . S
C200 H194 0.930 . S
C200 C201 1.367 . S
C200 C208 1.378 . S
C201 C200 1.367 . S
C201 C209 1.433 . S
C202 H198 0.929 . S
C202 C204 1.378 . S
C202 C206 1.350 . S
C203 C206 1.463 . S
C203 C208 1.350 . S
C203 N211 1.427 . S
C204 H195 0.930 . S
C204 C202 1.378 . S
C204 C205 1.367 . S
C205 C204 1.367 . S
C205 C207 1.433 . S
C206 C202 1.350 . S
C206 C203 1.463 . S
C206 N210 1.427 . S
C207 H197 0.929 . S
C207 C205 1.433 . S
C207 N210 1.384 . S
C208 H199 0.929 . S
C208 C200 1.378 . S
C208 C203 1.350 . S
C209 H196 0.929 . S
C209 C201 1.433 . S
C209 N211 1.384 . S
N210 C206 1.427 . S
N210 C207 1.384 . S
N211 C203 1.427 . S
N211 C209 1.384 . S
H212 C218 0.930 . S
H213 C222 0.930 . S
H214 C227 0.929 . S
H215 C225 0.929 . S
H216 C220 0.929 . S
H217 C226 0.929 . S
C218 H212 0.930 . S
C218 C219 1.367 . S
C218 C226 1.378 . S
C219 C218 1.367 . S
C219 C227 1.433 . S
C220 H216 0.929 . S
C220 C222 1.378 . S
C220 C224 1.350 . S
C221 C224 1.463 . S
C221 C226 1.350 . S
C221 N229 1.427 . S
C222 H213 0.930 . S
C222 C220 1.378 . S
C222 C223 1.367 . S
C223 C222 1.367 . S
C223 C225 1.433 . S
C224 C220 1.350 . S
C224 C221 1.463 . S
C224 N228 1.427 . S
C225 H215 0.929 . S
C225 C223 1.433 . S
C225 N228 1.384 . S
C226 H217 0.929 . S
C226 C218 1.378 . S
C226 C221 1.350 . S
C227 H214 0.929 . S
C227 C219 1.433 . S
C227 N229 1.384 . S
N228 C224 1.427 . S
N228 C225 1.384 . S
N229 C221 1.427 . S
N229 C227 1.384 . S
H230 C236 0.930 . S
H231 C240 0.930 . S
H232 C245 0.929 . S
H233 C243 0.929 . S
H234 C238 0.929 . S
H235 C244 0.929 . S
C236 H230 0.930 . S
C236 C237 1.367 . S
C236 C244 1.378 . S
C237 C236 1.367 . S
C237 C245 1.433 . S
C238 H234 0.929 . S
C238 C240 1.378 . S
C238 C242 1.350 . S
C239 C242 1.463 . S
C239 C244 1.350 . S
C239 N247 1.427 . S
C240 H231 0.930 . S
C240 C238 1.378 . S
C240 C241 1.367 . S
C241 C240 1.367 . S
C241 C243 1.433 . S
C242 C238 1.350 . S
C242 C239 1.463 . S
C242 N246 1.427 . S
C243 H233 0.929 . S
C243 C241 1.433 . S
C243 N246 1.384 . S
C244 H235 0.929 . S
C244 C236 1.378 . S
C244 C239 1.350 . S
C245 H232 0.929 . S
C245 C237 1.433 . S
C245 N247 1.384 . S
N246 C242 1.427 . S
N246 C243 1.384 . S
N247 C239 1.427 . S
N247 C245 1.384 . S
H248 C254 0.930 . S
H249 C258 0.930 . S
H250 C263 0.929 . S
H251 C261 0.929 . S
H252 C256 0.929 . S
H253 C262 0.929 . S
C254 H248 0.930 . S
C254 C255 1.367 . S
C254 C262 1.378 . S
C255 C254 1.367 . S
C255 C263 1.433 . S
C256 H252 0.929 . S
C256 C258 1.378 . S
C256 C260 1.350 . S
C257 C260 1.463 . S
C257 C262 1.350 . S
C257 N265 1.427 . S
C258 H249 0.930 . S
C258 C256 1.378 . S
C258 C259 1.367 . S
C259 C258 1.367 . S
C259 C261 1.433 . S
C260 C256 1.350 . S
C260 C257 1.463 . S
C260 N264 1.427 . S
C261 H251 0.929 . S
C261 C259 1.433 . S
C261 N264 1.384 . S
C262 H253 0.929 . S
C262 C254 1.378 . S
C262 C257 1.350 . S
C263 H250 0.929 . S
C263 C255 1.433 . S
C263 N265 1.384 . S
N264 C260 1.427 . S
N264 C261 1.384 . S
N265 C257 1.427 . S
N265 C263 1.384 . S
H266 C272 0.930 . S
H267 C276 0.930 . S
H268 C281 0.929 . S
H269 C279 0.929 . S
H270 C274 0.929 . S
H271 C280 0.929 . S
C272 H266 0.930 . S
C272 C273 1.367 . S
C272 C280 1.378 . S
C273 C272 1.367 . S
C273 C281 1.433 . S
C274 H270 0.929 . S
C274 C276 1.378 . S
C274 C278 1.350 . S
C275 C278 1.463 . S
C275 C280 1.350 . S
C275 N283 1.427 . S
C276 H267 0.930 . S
C276 C274 1.378 . S
C276 C277 1.367 . S
C277 C276 1.367 . S
C277 C279 1.433 . S
C278 C274 1.350 . S
C278 C275 1.463 . S
C278 N282 1.427 . S
C279 H269 0.929 . S
C279 C277 1.433 . S
C279 N282 1.384 . S
C280 H271 0.929 . S
C280 C272 1.378 . S
C280 C275 1.350 . S
C281 H268 0.929 . S
C281 C273 1.433 . S
C281 N283 1.384 . S
N282 C278 1.427 . S
N282 C279 1.384 . S
N283 C275 1.427 . S
N283 C281 1.384 . S
H284 C290 0.930 . S
H285 C294 0.930 1_545 S
H286 C299 0.929 . S
H287 C297 0.929 . S
H288 C292 0.929 . S
H289 C298 0.929 . S
C290 H284 0.930 . S
C290 C291 1.367 . S
C290 C298 1.378 . S
C291 C290 1.367 . S
C291 C299 1.433 . S
C292 H288 0.929 . S
C292 C294 1.378 . S
C292 C296 1.350 . S
C293 C296 1.463 . S
C293 C298 1.350 . S
C293 N301 1.427 . S
C294 H285 0.930 1_565 S
C294 C292 1.378 . S
C294 C295 1.367 . S
C295 C294 1.367 . S
C295 C297 1.433 . S
C296 C292 1.350 . S
C296 C293 1.463 . S
C296 N300 1.427 . S
C297 H287 0.929 . S
C297 C295 1.433 . S
C297 N300 1.384 . S
C298 H289 0.929 . S
C298 C290 1.378 . S
C298 C293 1.350 . S
C299 H286 0.929 . S
C299 C291 1.433 . S
C299 N301 1.384 . S
N300 C296 1.427 . S
N300 C297 1.384 . S
N301 C293 1.427 . S
N301 C299 1.384 . S
C97 C60 1.259 . S
C93 N37 1.425 . S
C111 N4 1.466 . S
C115 C81 1.284 . S
C129 N15 1.596 . S
C133 C57 1.397 . S
C147 N26 1.593 . S
C151 C78 1.389 . S
C169 C62 1.504 . S
C165 C9 1.515 . S
C187 C82 1.540 . S
C183 C17 1.607 . S
C201 C31 1.583 . S
C205 C58 1.556 . S
C219 C42 1.517 . S
C223 C80 1.476 . S
C241 C79 1.466 . S
C237 C20 1.502 . S
C259 C61 1.472 . S
C255 C28 1.519 . S
C277 C83 1.422 . S
C273 C39 1.449 . S
C291 C6 1.449 1_556 S
C295 C59 1.390 . S
