# Generated by pormake.
# Topology apo, (3,6)-cn, num edge types: 1
# Building blocks:
#     Node 0, Type 0, BuildingBlock: BETDAH_clean_linker_0, # of connection points: 3
#     Node 1, Type 0, BuildingBlock: BETDAH_clean_linker_0, # of connection points: 3
#     Node 2, Type 0, BuildingBlock: BETDAH_clean_linker_0, # of connection points: 3
#     Node 3, Type 0, BuildingBlock: BETDAH_clean_linker_0, # of connection points: 3
#     Node 4, Type 0, BuildingBlock: BETDAH_clean_linker_0, # of connection points: 3
#     Node 5, Type 0, BuildingBlock: BETDAH_clean_linker_0, # of connection points: 3
#     Node 6, Type 0, BuildingBlock: BETDAH_clean_linker_0, # of connection points: 3
#     Node 7, Type 0, BuildingBlock: BETDAH_clean_linker_0, # of connection points: 3
#     Node 8, Type 1, BuildingBlock: KUMBUR_clean_sbu_1, # of connection points: 6
#     Node 9, Type 1, BuildingBlock: KUMBUR_clean_sbu_1, # of connection points: 6
#     Node 10, Type 1, BuildingBlock: KUMBUR_clean_sbu_1, # of connection points: 6
#     Node 11, Type 1, BuildingBlock: KUMBUR_clean_sbu_1, # of connection points: 6
#     Edge 12, Type (0, 1), BuildingBlock: OJICUG_clean_linker_0, # of connection points: 2
#     Edge 13, Type (0, 1), BuildingBlock: OJICUG_clean_linker_0, # of connection points: 2
#     Edge 14, Type (0, 1), BuildingBlock: OJICUG_clean_linker_0, # of connection points: 2
#     Edge 15, Type (0, 1), BuildingBlock: OJICUG_clean_linker_0, # of connection points: 2
#     Edge 16, Type (0, 1), BuildingBlock: OJICUG_clean_linker_0, # of connection points: 2
#     Edge 17, Type (0, 1), BuildingBlock: OJICUG_clean_linker_0, # of connection points: 2
#     Edge 18, Type (0, 1), BuildingBlock: OJICUG_clean_linker_0, # of connection points: 2
#     Edge 19, Type (0, 1), BuildingBlock: OJICUG_clean_linker_0, # of connection points: 2
#     Edge 20, Type (0, 1), BuildingBlock: OJICUG_clean_linker_0, # of connection points: 2
#     Edge 21, Type (0, 1), BuildingBlock: OJICUG_clean_linker_0, # of connection points: 2
#     Edge 22, Type (0, 1), BuildingBlock: OJICUG_clean_linker_0, # of connection points: 2
#     Edge 23, Type (0, 1), BuildingBlock: OJICUG_clean_linker_0, # of connection points: 2
#     Edge 24, Type (0, 1), BuildingBlock: OJICUG_clean_linker_0, # of connection points: 2
#     Edge 25, Type (0, 1), BuildingBlock: OJICUG_clean_linker_0, # of connection points: 2
#     Edge 26, Type (0, 1), BuildingBlock: OJICUG_clean_linker_0, # of connection points: 2
#     Edge 27, Type (0, 1), BuildingBlock: OJICUG_clean_linker_0, # of connection points: 2
#     Edge 28, Type (0, 1), BuildingBlock: OJICUG_clean_linker_0, # of connection points: 2
#     Edge 29, Type (0, 1), BuildingBlock: OJICUG_clean_linker_0, # of connection points: 2
#     Edge 30, Type (0, 1), BuildingBlock: OJICUG_clean_linker_0, # of connection points: 2
#     Edge 31, Type (0, 1), BuildingBlock: OJICUG_clean_linker_0, # of connection points: 2
#     Edge 32, Type (0, 1), BuildingBlock: OJICUG_clean_linker_0, # of connection points: 2
#     Edge 33, Type (0, 1), BuildingBlock: OJICUG_clean_linker_0, # of connection points: 2
#     Edge 34, Type (0, 1), BuildingBlock: OJICUG_clean_linker_0, # of connection points: 2
#     Edge 35, Type (0, 1), BuildingBlock: OJICUG_clean_linker_0, # of connection points: 2
# Relax obj value: 0.036
# Max RMSD: 0.242
# Mean RMSD: 0.168
data_MOF--net-apo--node1-KUMBUR_clean_sbu_1--node2-BETDAH_clean_linker_0--edge1-OJICUG_clean_linker_0
_symmetry_space_group_name_H-M    P1
_symmetry_Int_Tables_number       1
_symmetry_cell_setting            triclinic
loop_
_symmetry_equiv_pos_as_xyz
'x, y, z'
_cell_length_a     20.408286
_cell_length_b     29.999899
_cell_length_c     39.473744
_cell_angle_alpha  89.626211
_cell_angle_beta   90.063281
_cell_angle_gamma 90.492332
loop_
_atom_site_label
_atom_site_type_symbol
_atom_site_fract_x
_atom_site_fract_y
_atom_site_fract_z
_atom_type_partial_charge
H0 H 0.40822 0.43807 0.42562 0.0
H1 H 0.27676 0.38854 0.34835 0.0
H2 H 0.25983 0.34053 0.45041 0.0
C3 C 0.36888 0.41585 0.41788 0.0
C4 C 0.33837 0.38802 0.44206 0.0
C5 C 0.34708 0.4162 0.38391 0.0
C6 C 0.29496 0.38775 0.37415 0.0
C7 C 0.26439 0.35996 0.3983 0.0
C8 C 0.28593 0.3607 0.43184 0.0
N9 N 0.20667 0.33504 0.39124 0.0
C10 C 0.19414 0.31002 0.3624 0.0
H11 H 0.15878 0.04123 0.93042 0.0
H12 H 0.22393 0.14068 0.85812 0.0
H13 H 0.24924 0.16281 0.96476 0.0
C14 C 0.18229 0.07303 0.92498 0.0
C15 C 0.20298 0.1003 0.95182 0.0
C16 C 0.18902 0.08755 0.89111 0.0
C17 C 0.21886 0.12925 0.88408 0.0
C18 C 0.24115 0.15616 0.91095 0.0
C19 C 0.23217 0.14164 0.94434 0.0
N20 N 0.27077 0.19878 0.90633 0.0
C21 C 0.2974 0.21669 0.87678 0.0
H22 H 0.89933 0.09822 0.60886 0.0
H23 H 0.74382 0.11588 0.68132 0.0
H24 H 0.73642 0.18318 0.5853 0.0
C25 C 0.85386 0.11378 0.61627 0.0
C26 C 0.82207 0.14243 0.59331 0.0
C27 C 0.82615 0.10362 0.64814 0.0
C28 C 0.76707 0.12417 0.6574 0.0
C29 C 0.73524 0.1531 0.6348 0.0
C30 C 0.76239 0.16169 0.60284 0.0
N31 N 0.67137 0.16837 0.64198 0.0
C32 C 0.65945 0.2049 0.66247 0.0
H33 H 0.65114 0.46322 0.10748 0.0
H34 H 0.76978 0.40018 0.18435 0.0
H35 H 0.7835 0.35868 0.08081 0.0
C36 C 0.68695 0.43851 0.11491 0.0
C37 C 0.71334 0.41055 0.09016 0.0
C38 C 0.70708 0.4353 0.14903 0.0
C39 C 0.75251 0.40237 0.15843 0.0
C40 C 0.77979 0.37474 0.13362 0.0
C41 C 0.76029 0.37913 0.09982 0.0
N42 N 0.83247 0.34591 0.14096 0.0
C43 C 0.83538 0.31771 0.1689 0.0
H44 H 0.61281 0.56899 0.61134 0.0
H45 H 0.74588 0.63481 0.67957 0.0
H46 H 0.76898 0.65216 0.57232 0.0
C47 C 0.65433 0.59113 0.61514 0.0
C48 C 0.6874 0.60967 0.58712 0.0
C49 C 0.67588 0.59921 0.64836 0.0
C50 C 0.72874 0.62877 0.654 0.0
C51 C 0.76072 0.64903 0.62624 0.0
C52 C 0.74102 0.63832 0.59324 0.0
N53 N 0.81589 0.67783 0.62986 0.0
C54 C 0.83079 0.70433 0.6577 0.0
H55 H 0.88157 0.96443 0.10869 0.0
H56 H 0.77549 0.85176 0.06984 0.0
H57 H 0.76344 0.88315 0.17585 0.0
C58 C 0.84957 0.9359 0.11288 0.0
C59 C 0.82462 0.92734 0.14557 0.0
C60 C 0.83213 0.9091 0.08532 0.0
C61 C 0.78973 0.87283 0.09086 0.0
C62 C 0.76549 0.8628 0.12323 0.0
C63 C 0.78338 0.88991 0.1509 0.0
N64 N 0.72075 0.82644 0.12581 0.0
C65 C 0.69913 0.80487 0.15505 0.0
H66 H 0.14047 0.94905 0.42242 0.0
H67 H 0.17424 0.85489 0.34226 0.0
H68 H 0.18508 0.81251 0.44586 0.0
C69 C 0.15378 0.91602 0.41414 0.0
C70 C 0.165 0.8827 0.43867 0.0
C71 C 0.15717 0.90679 0.37916 0.0
C72 C 0.17146 0.86303 0.36891 0.0
C73 C 0.1801 0.82914 0.39314 0.0
C74 C 0.17669 0.83904 0.42767 0.0
N75 N 0.18781 0.78413 0.38348 0.0
C76 C 0.23502 0.77001 0.36072 0.0
H77 H 0.32137 0.5681 0.93549 0.0
H78 H 0.29061 0.70887 0.94698 0.0
H79 H 0.34231 0.65829 0.85008 0.0
C80 C 0.31937 0.60114 0.92442 0.0
C81 C 0.33294 0.6076 0.88952 0.0
C82 C 0.30549 0.63754 0.94563 0.0
C83 C 0.30167 0.6804 0.93128 0.0
C84 C 0.313 0.68724 0.89679 0.0
C85 C 0.32959 0.65131 0.8762 0.0
N86 N 0.31468 0.73115 0.88361 0.0
C87 C 0.26071 0.74987 0.86771 0.0
Tb88 Tb 0.057 0.11019 0.22703 0.0
C89 C 0.79493 0.07342 0.29054 0.0
N90 N 0.82986 0.11222 0.2919 0.0
C91 C 0.73388 0.15273 0.27506 0.0
C92 C 0.72908 0.07253 0.27969 0.0
C93 C 0.79881 0.15191 0.28644 0.0
C94 C 0.69923 0.11281 0.27102 0.0
C95 C 0.78935 0.994 0.30253 0.0
C96 C 0.8242 0.0347 0.30196 0.0
C97 C 0.72469 0.99257 0.29036 0.0
C98 C 0.69461 0.03176 0.27894 0.0
Tb99 Tb 0.93725 0.10535 0.30891 0.0
N100 N 0.88744 0.03712 0.31258 0.0
C101 C 0.82039 0.95621 0.31576 0.0
C102 C 0.91659 1.00117 0.32755 0.0
C103 C 0.88395 0.95998 0.3288 0.0
H104 H 0.82306 0.18331 0.29136 0.0
H105 H 0.90777 0.93123 0.33981 0.0
H106 H 0.18741 0.05897 0.25706 0.0
H107 H 0.02865 0.27168 0.16672 0.0
H108 H 0.96548 1.00424 0.33782 0.0
H109 H 0.79527 0.92426 0.31668 0.0
H110 H 0.99649 0.19461 0.18082 0.0
H111 H 0.71025 0.18424 0.26999 0.0
H112 H 0.69714 0.96153 0.29027 0.0
H113 H 0.64419 0.03038 0.27037 0.0
H114 H 0.30273 0.07796 0.27001 0.0
H115 H 0.64872 0.11361 0.26256 0.0
H116 H 0.13813 0.30023 0.1833 0.0
N117 N 0.16429 0.12411 0.23946 0.0
C118 C 0.18741 0.16541 0.23146 0.0
C119 C 0.27063 0.10299 0.25943 0.0
C120 C 0.25274 0.17781 0.23839 0.0
C121 C 0.20517 0.09241 0.25229 0.0
C122 C 0.29439 0.14601 0.25278 0.0
N123 N 0.08303 0.18105 0.20916 0.0
C124 C 0.04266 0.20729 0.19008 0.0
C125 C 0.16664 0.23845 0.20759 0.0
C126 C 0.14488 0.19519 0.21641 0.0
C127 C 0.1234 0.2667 0.19049 0.0
C128 C 0.06149 0.25077 0.18121 0.0
H129 H 0.34503 0.15415 0.25846 0.0
H130 H 0.32411 0.23167 0.23604 0.0
H131 H 0.24868 0.28483 0.20901 0.0
O132 O 0.07532 0.11315 0.17459 0.0
O133 O 0.09132 0.1385 0.27539 0.0
O134 O 0.99943 0.16503 0.30243 0.0
O135 O 0.08265 0.05117 0.20188 0.0
O136 O 0.9608 0.14315 0.22413 0.0
O137 O 0.93239 0.1669 0.27799 0.0
O138 O 0.96915 0.09404 0.35884 0.0
O139 O 0.93836 0.05114 0.27114 0.0
O140 O 0.95427 0.09098 0.22289 0.0
O141 O 0.87968 0.1286 0.34939 0.0
O142 O 0.0364 0.07892 0.31332 0.0
O143 O 0.06469 0.05126 0.26055 0.0
C144 C 0.06163 0.16883 0.29357 0.0
C145 C 0.14645 0.05964 0.15155 0.0
C146 C 0.19472 0.05521 0.09487 0.0
C147 C 0.25026 0.03495 0.10916 0.0
C148 C 0.20252 0.03964 0.16528 0.0
C149 C 0.25406 0.02739 0.1441 0.0
C150 C 0.14295 0.06739 0.1164 0.0
C151 C 0.93274 0.1718 0.24473 0.0
C152 C 0.08962 0.07119 0.17272 0.0
C153 C 0.27421 0.2213 0.23065 0.0
C154 C 0.23119 0.25161 0.21534 0.0
C155 C 0.92931 0.05636 0.23854 0.0
C156 C 0.93776 0.14705 0.39918 0.0
C157 C 0.92909 0.16996 0.45834 0.0
C158 C 0.97384 0.20487 0.45169 0.0
C159 C 0.98205 0.18216 0.39304 0.0
C160 C 0.91115 0.14122 0.43174 0.0
C161 C 0.99985 0.21094 0.41921 0.0
C162 C 0.06522 0.04937 0.29402 0.0
C163 C 0.92061 0.11515 0.37237 0.0
H164 H 0.29132 0.02571 0.09341 0.0
H165 H 0.20635 0.03316 0.19221 0.0
H166 H 0.29722 1.01199 0.15482 0.0
H167 H 0.09931 0.0824 0.10576 0.0
H168 H 0.98819 0.22776 0.47152 0.0
H169 H 0.00323 0.18704 0.36817 0.0
H170 H 0.8776 0.11366 0.4365 0.0
H171 H 0.03414 0.23796 0.41434 0.0
Tb172 Tb 0.42565 0.41359 0.73426 0.0
C173 C 0.71016 0.4416 0.78394 0.0
N174 N 0.67534 0.40276 0.78527 0.0
C175 C 0.76896 0.36277 0.76546 0.0
C176 C 0.77575 0.44259 0.77286 0.0
C177 C 0.70407 0.36343 0.77681 0.0
C178 C 0.80488 0.40253 0.7633 0.0
C179 C 0.71422 0.52141 0.79354 0.0
C180 C 0.67975 0.48052 0.79414 0.0
C181 C 0.77942 0.52267 0.78216 0.0
C182 C 0.81009 0.48338 0.77184 0.0
Tb183 Tb 0.56985 0.40835 0.80395 0.0
N184 N 0.61601 0.47814 0.80426 0.0
C185 C 0.68217 0.55971 0.80454 0.0
C186 C 0.58585 0.51494 0.81669 0.0
C187 C 0.61794 0.55634 0.81652 0.0
H188 H 0.67767 0.33234 0.77956 0.0
H189 H 0.59338 0.58553 0.82602 0.0
H190 H 0.31554 0.49071 0.75145 0.0
H191 H 0.39921 0.23719 0.7091 0.0
H192 H 0.5378 0.5126 0.82749 0.0
H193 H 0.70691 0.59181 0.80449 0.0
H194 H 0.4558 0.30968 0.70887 0.0
H195 H 0.79142 0.33151 0.7587 0.0
H196 H 0.80665 0.55382 0.78138 0.0
H197 H 0.8605 0.48485 0.76329 0.0
H198 H 0.19925 0.49332 0.76849 0.0
H199 H 0.85522 0.40186 0.75463 0.0
H200 H 0.28407 0.23162 0.72835 0.0
N201 N 0.31722 0.42026 0.74754 0.0
C202 C 0.28163 0.38182 0.74843 0.0
C203 C 0.22197 0.46165 0.76321 0.0
C204 C 0.21477 0.38164 0.75726 0.0
C205 C 0.28815 0.46007 0.75413 0.0
C206 C 0.18519 0.42222 0.76505 0.0
N207 N 0.37706 0.34449 0.7314 0.0
C208 C 0.40728 0.3076 0.7191 0.0
C209 C 0.2771 0.30204 0.73932 0.0
C210 C 0.3124 0.3426 0.73971 0.0
C211 C 0.3094 0.26349 0.72905 0.0
C212 C 0.3745 0.26646 0.71838 0.0
H213 H 0.13388 0.42355 0.77195 0.0
H214 H 0.12826 0.34026 0.76461 0.0
H215 H 0.18285 0.27053 0.74882 0.0
O216 O 0.44885 0.40499 0.68267 0.0
O217 O 0.40512 0.37758 0.78189 0.0
O218 O 0.50301 0.35036 0.80308 0.0
O219 O 0.37041 0.4478 0.69742 0.0
O220 O 0.51897 0.37961 0.72272 0.0
O221 O 0.56034 0.34944 0.77236 0.0
O222 O 0.56044 0.42076 0.8562 0.0
O223 O 0.58613 0.44277 0.75473 0.0
O224 O 0.48706 0.47268 0.74018 0.0
O225 O 0.63099 0.37401 0.83818 0.0
O226 O 0.47606 0.43878 0.81799 0.0
O227 O 0.42947 0.46991 0.7698 0.0
C228 C 0.43863 0.34871 0.8 0.0
C229 C 0.35798 0.40883 0.6458 0.0
C230 C 0.33843 0.38879 0.58666 0.0
C231 C 0.28032 0.36683 0.59651 0.0
C232 C 0.29897 0.38744 0.65473 0.0
C233 C 0.26065 0.36643 0.63028 0.0
C234 C 0.37723 0.41 0.61147 0.0
C235 C 0.55364 0.34944 0.73922 0.0
C236 C 0.40002 0.42906 0.67216 0.0
C237 C 0.17964 0.34115 0.75773 0.0
C238 C 0.21073 0.30143 0.74875 0.0
C239 C 0.55111 0.47291 0.73868 0.0
C240 C 0.65797 0.4142 0.88791 0.0
C241 C 0.69316 0.43154 0.94561 0.0
C242 C 0.74845 0.4538 0.9324 0.0
C243 C 0.71475 0.43534 0.87554 0.0
C244 C 0.64773 0.41187 0.92315 0.0
C245 C 0.75922 0.45542 0.89758 0.0
C246 C 0.43749 0.46799 0.80307 0.0
C247 C 0.60895 0.395 0.86446 0.0
H248 H 0.24944 0.35057 0.57788 0.0
H249 H 0.28211 0.38705 0.68056 0.0
H250 H 0.2154 0.34989 0.63752 0.0
H251 H 0.42241 0.42671 0.60419 0.0
H252 H 0.78448 0.46877 0.94909 0.0
H253 H 0.72538 0.43603 0.84895 0.0
H254 H 0.60461 0.39496 0.93306 0.0
H255 H 0.80266 0.47182 0.88765 0.0
Tb256 Tb 0.07919 0.90759 0.72919 0.0
C257 C 0.79162 0.87764 0.78221 0.0
N258 N 0.82729 0.91611 0.78277 0.0
C259 C 0.73233 0.95768 0.76643 0.0
C260 C 0.72479 0.87764 0.77319 0.0
C261 C 0.79854 0.95599 0.7755 0.0
C262 C 0.69532 0.91834 0.76516 0.0
C263 C 0.78789 0.79721 0.7891 0.0
C264 C 0.82279 0.83793 0.79004 0.0
C265 C 0.72122 0.79704 0.78021 0.0
C266 C 0.68975 0.83714 0.77227 0.0
Tb267 Tb 0.93448 0.90885 0.79809 0.0
N268 N 0.88804 0.8392 0.79727 0.0
C269 C 0.82123 0.75789 0.79688 0.0
C270 C 0.92 0.80115 0.80635 0.0
C271 C 0.88741 0.75994 0.80581 0.0
H272 H 0.82607 0.9867 0.77751 0.0
H273 H 0.91326 0.72981 0.81255 0.0
H274 H 0.18858 0.83009 0.74754 0.0
H275 H 0.10246 0.0861 0.7117 0.0
H276 H 0.97025 0.80218 0.81441 0.0
H277 H 0.79622 0.72589 0.7964 0.0
H278 H 0.04717 0.01323 0.70798 0.0
H279 H 0.70978 0.98936 0.76067 0.0
H280 H 0.69361 0.76606 0.77928 0.0
H281 H 0.63836 0.83646 0.76536 0.0
H282 H 0.30344 0.82738 0.76723 0.0
H283 H 0.64404 0.91977 0.75811 0.0
H284 H 0.21651 0.09102 0.73279 0.0
N285 N 0.18642 0.90076 0.74476 0.0
C286 C 0.22123 0.93941 0.74731 0.0
C287 C 0.28077 0.85915 0.76192 0.0
C288 C 0.28719 0.93953 0.75784 0.0
C289 C 0.21545 0.86079 0.75124 0.0
C290 C 0.31673 0.89871 0.76544 0.0
N291 N 0.12618 0.97723 0.72959 0.0
C292 C 0.09552 0.01486 0.71857 0.0
C293 C 0.22456 0.01985 0.74104 0.0
C294 C 0.19031 0.979 0.73912 0.0
C295 C 0.19195 0.05889 0.73173 0.0
C296 C 0.12743 0.05627 0.72 0.0
H297 H 0.36735 0.89734 0.77365 0.0
H298 H 0.37208 0.98108 0.76847 0.0
H299 H 0.31727 0.05141 0.7537 0.0
O300 O 0.06393 0.92128 0.67734 0.0
O301 O 0.09802 0.94035 0.77827 0.0
O302 O 0.99906 0.96769 0.79669 0.0
O303 O 0.13582 0.87367 0.69325 0.0
O304 O 0.98514 0.93918 0.71671 0.0
O305 O 0.94147 0.96836 0.76579 0.0
O306 O 0.94299 0.89017 0.8493 0.0
O307 O 0.91606 0.87543 0.74907 0.0
O308 O 0.01612 0.84833 0.73239 0.0
O309 O 0.87662 0.94176 0.83418 0.0
O310 O 0.02863 0.87785 0.8118 0.0
O311 O 0.07123 0.84921 0.76234 0.0
C312 C 0.06348 0.9682 0.79643 0.0
C313 C 0.15657 0.91277 0.64214 0.0
C314 C 0.18864 0.92133 0.58262 0.0
C315 C 0.24556 0.94421 0.59325 0.0
C316 C 0.21351 0.93576 0.65191 0.0
C317 C 0.25754 0.95151 0.62758 0.0
C318 C 0.14409 0.90586 0.60749 0.0
C319 C 0.9485 0.96836 0.7326 0.0
C320 C 0.11049 0.89486 0.66767 0.0
C321 C 0.32138 0.98024 0.76031 0.0
C322 C 0.29016 0.0203 0.75191 0.0
C323 C 0.95171 0.84672 0.73221 0.0
C324 C 0.92288 0.94632 0.889 0.0
C325 C 0.92337 0.95701 0.95036 0.0
C326 C 0.96555 0.99398 0.94591 0.0
C327 C 0.96441 0.98341 0.88514 0.0
C328 C 0.90254 0.93321 0.92156 0.0
C329 C 0.98585 1.00699 0.91349 0.0
C330 C 0.06842 0.85092 0.79561 0.0
C331 C 0.90179 0.92002 0.85956 0.0
H332 H 0.28178 0.95574 0.57512 0.0
H333 H 0.2245 0.94111 0.67828 0.0
H334 H 0.30163 0.96894 0.63539 0.0
H335 H 0.09964 0.88847 0.60004 0.0
H336 H 0.982 0.01334 0.96742 0.0
H337 H 0.98005 0.99403 0.86025 0.0
H338 H 0.87116 0.90409 0.92443 0.0
H339 H 0.01805 0.03559 0.91033 0.0
Tb340 Tb 0.43904 0.60355 0.22418 0.0
C341 C 0.70252 0.6658 0.27624 0.0
N342 N 0.67509 0.62454 0.27972 0.0
C343 C 0.77532 0.59165 0.26052 0.0
C344 C 0.76613 0.6717 0.26295 0.0
C345 C 0.71255 0.58758 0.27446 0.0
C346 C 0.80169 0.63392 0.254 0.0
C347 C 0.69699 0.74495 0.28807 0.0
C348 C 0.6687 0.70196 0.28862 0.0
C349 C 0.75879 0.7514 0.27312 0.0
C350 C 0.79323 0.71484 0.26049 0.0
Tb351 Tb 0.5697 0.62325 0.30036 0.0
N352 N 0.60842 0.69465 0.30212 0.0
C353 C 0.66267 0.77989 0.3031 0.0
C354 C 0.57642 0.72788 0.31867 0.0
C355 C 0.60258 0.77116 0.31893 0.0
H356 H 0.69479 0.5547 0.28122 0.0
H357 H 0.57641 0.79773 0.33128 0.0
H358 H 0.30039 0.63476 0.2589 0.0
H359 H 0.50915 0.44762 0.16647 0.0
H360 H 0.53006 0.721 0.33092 0.0
H361 H 0.68274 0.81344 0.30324 0.0
H362 H 0.51615 0.52828 0.17664 0.0
H363 H 0.8038 0.56218 0.25542 0.0
H364 H 0.78102 0.7843 0.27195 0.0
H365 H 0.84171 0.72008 0.24994 0.0
H366 H 0.19621 0.59979 0.27742 0.0
H367 H 0.85071 0.63698 0.24367 0.0
H368 H 0.41651 0.40369 0.1901 0.0
N369 N 0.34188 0.57394 0.24248 0.0
C370 C 0.33207 0.52977 0.23709 0.0
C371 C 0.23425 0.57963 0.26635 0.0
C372 C 0.27359 0.50828 0.24721 0.0
C373 C 0.29346 0.59933 0.25612 0.0
C374 C 0.22445 0.53381 0.26216 0.0
N375 N 0.43506 0.52924 0.21049 0.0
C376 C 0.47856 0.5091 0.18933 0.0
C377 C 0.37276 0.46059 0.21451 0.0
C378 C 0.38107 0.50641 0.22119 0.0
C379 C 0.42095 0.43887 0.19579 0.0
C380 C 0.47344 0.46349 0.18255 0.0
H381 H 0.17868 0.51861 0.27023 0.0
H382 H 0.22176 0.44498 0.24977 0.0
H383 H 0.3086 0.40315 0.22097 0.0
O384 O 0.42188 0.59573 0.17217 0.0
O385 O 0.42147 0.5755 0.27546 0.0
O386 O 0.52339 0.55749 0.29578 0.0
O387 O 0.37905 0.65031 0.19871 0.0
O388 O 0.54266 0.58739 0.21645 0.0
O389 O 0.58262 0.56397 0.26825 0.0
O390 O 0.53713 0.62063 0.35108 0.0
O391 O 0.54641 0.67701 0.26427 0.0
O392 O 0.5295 0.64144 0.21405 0.0
O393 O 0.63906 0.61549 0.33917 0.0
O394 O 0.46882 0.64598 0.3085 0.0
O395 O 0.42041 0.66204 0.25609 0.0
C396 C 0.45986 0.5502 0.29415 0.0
C397 C 0.32502 0.62356 0.14876 0.0
C398 C 0.27771 0.61863 0.0918 0.0
C399 C 0.217 0.60704 0.10638 0.0
C400 C 0.26405 0.6121 0.16276 0.0
C401 C 0.21036 0.60392 0.1416 0.0
C402 C 0.3315 0.62677 0.11337 0.0
C403 C 0.58156 0.56232 0.23491 0.0
C404 C 0.38401 0.62997 0.1698 0.0
C405 C 0.26606 0.46227 0.24188 0.0
C406 C 0.31563 0.43843 0.22561 0.0
C407 C 0.55401 0.67481 0.23144 0.0
C408 C 0.60361 0.57937 0.38874 0.0
C409 C 0.6255 0.55943 0.4479 0.0
C410 C 0.63199 0.51461 0.43788 0.0
C411 C 0.61031 0.53471 0.37941 0.0
C412 C 0.60981 0.59142 0.42287 0.0
C413 C 0.62365 0.50242 0.404 0.0
C414 C 0.42507 0.66672 0.28938 0.0
C415 C 0.59563 0.61452 0.36309 0.0
H416 H 0.17441 0.60103 0.09062 0.0
H417 H 0.2579 0.60919 0.18984 0.0
H418 H 0.16336 0.5951 0.15254 0.0
H419 H 0.37907 0.63479 0.10262 0.0
H420 H 0.6454 0.48892 0.45589 0.0
H421 H 0.60679 0.52511 0.35308 0.0
H422 H 0.60336 0.62604 0.42961 0.0
H423 H 0.62934 0.46797 0.39666 0.0
C424 C 0.15982 0.98724 0.36068 0.0
C425 C 0.14252 0.94265 0.35386 0.0
H426 H 0.14847 0.05594 0.34695 0.0
C427 C 0.10678 0.93342 0.32407 0.0
H428 H 0.18901 0.99571 0.38268 0.0
C429 C 0.08567 0.96813 0.30287 0.0
C430 C 0.09885 0.01259 0.31146 0.0
H431 H 0.09195 0.89966 0.31803 0.0
H432 H 0.05524 0.9604 0.28114 0.0
C433 C 0.13735 0.0218 0.34003 0.0
C434 C 0.34501 0.57084 0.83206 0.0
C435 C 0.35484 0.5698 0.86747 0.0
H436 H 0.36603 0.54174 0.78406 0.0
C437 C 0.38929 0.53344 0.88126 0.0
H438 H 0.31767 0.5974 0.82013 0.0
C439 C 0.41352 0.49981 0.86046 0.0
C440 C 0.40595 0.50194 0.82503 0.0
H441 H 0.3998 0.53132 0.90808 0.0
H442 H 0.44024 0.4728 0.87226 0.0
C443 C 0.37143 0.53801 0.81115 0.0
C444 C 0.57947 0.57523 0.68321 0.0
C445 C 0.64664 0.57228 0.67609 0.0
H446 H 0.49682 0.5467 0.70902 0.0
C447 C 0.68304 0.53789 0.69099 0.0
H448 H 0.55023 0.60104 0.67144 0.0
C449 C 0.65222 0.50582 0.7115 0.0
C450 C 0.58468 0.50815 0.71832 0.0
H451 H 0.73455 0.53424 0.68508 0.0
H452 H 0.68099 0.47828 0.72084 0.0
C453 C 0.54891 0.54378 0.7044 0.0
C454 C 0.86658 0.94578 0.20426 0.0
C455 C 0.84051 0.95959 0.17292 0.0
H456 H 0.91564 0.96594 0.25009 0.0
C457 C 0.8364 1.00547 0.1659 0.0
H458 H 0.87023 0.91064 0.21036 0.0
C459 C 0.86272 0.03667 0.18816 0.0
C460 C 0.8931 0.02295 0.2183 0.0
H461 H 0.81522 0.01722 0.14233 0.0
H462 H 0.86109 0.07165 0.18119 0.0
C463 C 0.89264 0.97735 0.2269 0.0
C464 C 0.86094 0.07461 0.70567 0.0
C465 C 0.8564 0.06903 0.67036 0.0
H466 H 0.89437 0.04762 0.75308 0.0
C467 C 0.88053 0.02959 0.65615 0.0
H468 H 0.84314 0.1047 0.71741 0.0
C469 C 0.90931 0.99693 0.67649 0.0
C470 C 0.91473 1.00263 0.71171 0.0
H471 H 0.87662 0.02367 0.62918 0.0
H472 H 0.92739 0.9671 0.66447 0.0
C473 C 0.89008 0.04183 0.72612 0.0
C474 C 0.68012 0.51367 0.16427 0.0
C475 C 0.68348 0.46856 0.17385 0.0
H476 H 0.64618 0.57872 0.17658 0.0
C477 C 0.66149 0.45579 0.20632 0.0
H478 H 0.69838 0.52485 0.13987 0.0
C479 C 0.63236 0.48711 0.22771 0.0
C480 C 0.62471 0.5314 0.21675 0.0
H481 H 0.66375 0.42128 0.21443 0.0
H482 H 0.61209 0.47615 0.25174 0.0
C483 C 0.65091 0.54466 0.18542 0.0
C484 C 0.33559 0.48055 0.34364 0.0
C485 C 0.37564 0.44878 0.35946 0.0
H486 H 0.33112 0.53873 0.31219 0.0
C487 C 0.44336 0.44996 0.35321 0.0
H488 H 0.28335 0.4808 0.34847 0.0
C489 C 0.47043 0.4822 0.33138 0.0
C490 C 0.43063 0.51471 0.31605 0.0
H491 H 0.47529 0.42583 0.36515 0.0
H492 H 0.5226 0.48166 0.3266 0.0
C493 C 0.36293 0.51353 0.32261 0.0
C494 C 0.18881 0.01775 0.85664 0.0
C495 C 0.16161 0.05952 0.86364 0.0
H496 H 0.17964 0.95647 0.82922 0.0
C497 C 0.1041 0.07233 0.84675 0.0
H498 H 0.23294 1.00713 0.86953 0.0
C499 C 0.0728 0.04306 0.82427 0.0
C500 C 0.09894 1.0007 0.818 0.0
H501 H 0.08198 0.10423 0.85201 0.0
H502 H 0.02747 0.05317 0.81229 0.0
C503 C 0.15827 0.98885 0.83366 0.0
C504 C 0.21454 0.04432 0.99927 0.0
C505 C 0.19455 0.08654 0.98787 0.0
H506 H 0.23039 1.00124 0.04206 0.0
C507 C 0.1708 0.11713 1.01165 0.0
H508 H 0.23324 0.02014 0.98155 0.0
C509 C 0.16927 0.10645 0.04615 0.0
C510 C 0.19177 0.06495 0.05782 0.0
H511 H 0.15444 0.14979 1.00359 0.0
H512 H 0.15253 0.13137 0.06382 0.0
C513 C 0.21352 0.03373 0.03392 0.0
C514 C 0.35914 0.34891 0.49714 0.0
C515 C 0.35605 0.38907 0.47867 0.0
H516 H 0.35672 0.31756 0.54602 0.0
C517 C 0.35939 0.4296 0.49637 0.0
H518 H 0.35765 0.31717 0.48421 0.0
C519 C 0.35952 0.42976 0.53197 0.0
C520 C 0.35614 0.38942 0.55022 0.0
H521 H 0.35679 0.46107 0.48285 0.0
H522 H 0.35713 0.46129 0.54511 0.0
C523 C 0.35882 0.34908 0.5325 0.0
C524 C 0.68467 0.37954 0.03301 0.0
C525 C 0.69706 0.41663 0.05376 0.0
H526 H 0.67234 0.35541 0.98233 0.0
C527 C 0.70003 0.45926 0.03888 0.0
H528 H 0.68166 0.34634 0.04388 0.0
C529 C 0.69504 0.46438 1.00376 0.0
C530 C 0.68617 0.42705 0.98286 0.0
H531 H 0.70989 0.48841 0.05419 0.0
H532 H 0.70061 0.49739 0.99278 0.0
C533 C 0.67881 0.38475 0.99788 0.0
C534 C 0.9166 0.15924 0.55422 0.0
C535 C 0.84945 0.15027 0.5588 0.0
H536 H 0.99434 0.1725 0.51899 0.0
C537 C 0.80869 0.148 0.53009 0.0
H538 H 0.9492 0.16139 0.57583 0.0
C539 C 0.83452 0.15426 0.49756 0.0
C540 C 0.90163 0.16335 0.49297 0.0
H541 H 0.75689 0.14066 0.53273 0.0
H542 H 0.8018 0.15238 0.47599 0.0
C543 C 0.94233 0.16594 0.52169 0.0
C544 C 0.92157 0.93355 0.04523 0.0
C545 C 0.8562 0.92009 0.05062 0.0
H546 H 0.99432 0.95494 1.00947 0.0
C547 C 0.81348 0.91818 0.02268 0.0
H548 H 0.95597 0.93481 0.06613 0.0
C549 C 0.83537 0.92982 0.99023 0.0
C550 C 0.9006 0.94363 0.98485 0.0
H551 H 0.76256 0.90866 0.026 0.0
H552 H 0.80069 0.92895 0.96946 0.0
C553 C 0.94351 0.94515 1.01275 0.0
C554 C 0.64183 0.55518 0.54421 0.0
C555 C 0.66823 0.59756 0.55166 0.0
H556 H 0.60488 0.51073 0.50663 0.0
C557 C 0.67801 0.62776 0.52467 0.0
H558 H 0.63439 0.53041 0.56391 0.0
C559 C 0.66419 0.61548 0.4913 0.0
C560 C 0.63808 0.57304 0.48381 0.0
H561 H 0.69683 0.66104 0.5291 0.0
H562 H 0.67553 0.63928 0.47141 0.0
C563 C 0.62612 0.54338 0.51093 0.0
C564 C 0.32898 0.66226 1.00511 0.0
C565 C 0.29865 0.63173 0.98303 0.0
H566 H 0.34556 0.68244 0.05628 0.0
C567 C 0.2619 0.5963 0.99705 0.0
H568 H 0.35848 0.68958 0.99525 0.0
C569 C 0.25493 0.59197 0.03228 0.0
C570 C 0.28499 0.62277 0.05429 0.0
H571 H 0.23773 0.57232 0.98078 0.0
H572 H 0.22647 0.56426 0.04228 0.0
C573 C 0.32222 0.65787 0.04019 0.0
C574 C 0.1439 0.86291 0.50016 0.0
C575 C 0.16616 0.89373 0.47558 0.0
H576 H 0.13433 0.84689 0.55284 0.0
C577 C 0.19219 0.93471 0.48667 0.0
H578 H 0.12238 0.83135 0.49275 0.0
C579 C 0.19726 0.94417 0.5212 0.0
C580 C 0.17745 0.91268 0.5458 0.0
H581 H 0.2105 0.95923 0.46871 0.0
H582 H 0.21755 0.97613 0.52857 0.0
C583 C 0.14978 0.87216 0.53478 0.0
C584 C 0.09929 0.28198 0.3309 0.0
C585 C 0.16582 0.27833 0.33905 0.0
H586 H 0.01433 0.25011 0.31012 0.0
C587 C 0.19984 0.23984 0.32979 0.0
H588 H 0.07189 0.31109 0.3384 0.0
C589 C 0.16682 0.20464 0.31362 0.0
C590 C 0.09924 0.20741 0.30691 0.0
H591 H 0.25097 0.23603 0.33655 0.0
H592 H 0.19329 0.17444 0.3081 0.0
C593 C 0.06629 0.24688 0.31502 0.0
C594 C 0.39794 0.24061 0.84677 0.0
C595 C 0.33062 0.24544 0.85269 0.0
H596 H 0.48522 0.26948 0.82527 0.0
C597 C 0.29856 0.28321 0.84023 0.0
H598 H 0.42382 0.21207 0.85687 0.0
C599 C 0.33362 0.31641 0.82285 0.0
C600 C 0.4015 0.31241 0.81741 0.0
H601 H 0.24693 0.28808 0.84527 0.0
H602 H 0.30779 0.34599 0.81479 0.0
C603 C 0.43312 0.27375 0.82914 0.0
C604 C 0.61995 0.28212 0.66581 0.0
C605 C 0.6387 0.24264 0.68217 0.0
H606 H 0.57861 0.34716 0.67105 0.0
C607 C 0.63188 0.2388 0.71735 0.0
H608 H 0.62436 0.28545 0.63855 0.0
C609 C 0.60551 0.27389 0.736 0.0
C610 C 0.58547 0.31341 0.7197 0.0
H611 H 0.64543 0.20829 0.73033 0.0
H612 H 0.59923 0.26954 0.76306 0.0
C613 C 0.59355 0.31726 0.6844 0.0
C614 C 0.83765 0.23786 0.18047 0.0
C615 C 0.84749 0.28141 0.19201 0.0
H616 H 0.85676 0.16859 0.18866 0.0
C617 C 0.87843 0.28863 0.22325 0.0
H618 H 0.81435 0.23179 0.15622 0.0
C619 C 0.90232 0.25239 0.24201 0.0
C620 C 0.89655 0.20896 0.2292 0.0
H621 H 0.88708 0.32221 0.23225 0.0
H622 H 0.92898 0.25857 0.26526 0.0
C623 C 0.86211 0.20186 0.1989 0.0
C624 C 0.82122 0.7746 0.68981 0.0
C625 C 0.85762 0.73711 0.68071 0.0
H626 H 0.82256 0.83909 0.71302 0.0
C627 C 0.92391 0.73491 0.68975 0.0
H628 H 0.77019 0.77724 0.68253 0.0
C629 C 0.95409 0.77023 0.70689 0.0
C630 C 0.91848 0.80855 0.71532 0.0
H631 H 0.95307 0.7065 0.68249 0.0
H632 H 0.00564 0.76773 0.7131 0.0
C633 C 0.85135 0.81002 0.70708 0.0
C634 C 0.67207 0.72749 0.16907 0.0
C635 C 0.6691 0.77266 0.17767 0.0
H636 H 0.63747 0.6612 0.17932 0.0
C637 C 0.62999 0.78577 0.20497 0.0
H638 H 0.7014 0.71683 0.14778 0.0
C639 C 0.59315 0.75384 0.22305 0.0
C640 C 0.59467 0.70865 0.21375 0.0
H641 H 0.62636 0.82064 0.21163 0.0
H642 H 0.56207 0.76458 0.2436 0.0
C643 C 0.63499 0.69578 0.18683 0.0
C644 C 0.3356 0.72651 0.35959 0.0
C645 C 0.28584 0.74827 0.3418 0.0
H646 H 0.41837 0.68384 0.35717 0.0
C647 C 0.28323 0.7453 0.30641 0.0
H648 H 0.33806 0.72831 0.38699 0.0
C649 C 0.32952 0.7198 0.28902 0.0
C650 C 0.37842 0.69653 0.30693 0.0
H651 H 0.24473 0.76181 0.29233 0.0
H652 H 0.32603 0.71756 0.26171 0.0
C653 C 0.38141 0.70091 0.3424 0.0
C654 C 0.18492 0.75814 0.81947 0.0
C655 C 0.20774 0.77271 0.851 0.0
H656 H 0.12133 0.77118 0.77735 0.0
C657 C 0.18165 0.81128 0.86535 0.0
H658 H 0.20463 0.72836 0.80807 0.0
C659 C 0.13441 0.8359 0.84784 0.0
C660 C 0.11307 0.8224 0.8156 0.0
H661 H 0.19898 0.82299 0.88971 0.0
H662 H 0.11645 0.86635 0.85898 0.0
C663 C 0.13763 0.78271 0.80193 0.0
loop_
_geom_bond_atom_site_label_1
_geom_bond_atom_site_label_2
_geom_bond_distance
_geom_bond_site_symmetry_2
_ccdc_geom_bond_type
H0 C3 0.929 . S
H1 C6 0.929 . S
H2 C8 0.930 . S
C3 H0 0.929 . S
C3 C4 1.398 . S
C3 C5 1.396 . S
C4 C3 1.398 . S
C4 C8 1.407 . S
C5 C3 1.396 . S
C5 C6 1.394 . S
C6 H1 0.929 . S
C6 C5 1.394 . S
C6 C7 1.382 . S
C7 C6 1.382 . S
C7 C8 1.392 . S
C7 N9 1.420 . S
C8 H2 0.930 . S
C8 C4 1.407 . S
C8 C7 1.392 . S
N9 C7 1.420 . S
N9 C10 1.244 . S
C10 N9 1.244 . S
H11 C14 0.929 . S
H12 C17 0.929 . S
H13 C19 0.930 . S
C14 H11 0.929 . S
C14 C15 1.398 . S
C14 C16 1.396 . S
C15 C14 1.398 . S
C15 C19 1.407 . S
C16 C14 1.396 . S
C16 C17 1.394 . S
C17 H12 0.929 . S
C17 C16 1.394 . S
C17 C18 1.382 . S
C18 C17 1.382 . S
C18 C19 1.392 . S
C18 N20 1.420 . S
C19 H13 0.930 . S
C19 C15 1.407 . S
C19 C18 1.392 . S
N20 C18 1.420 . S
N20 C21 1.244 . S
C21 N20 1.244 . S
H22 C25 0.929 . S
H23 C28 0.929 . S
H24 C30 0.930 . S
C25 H22 0.929 . S
C25 C26 1.398 . S
C25 C27 1.396 . S
C26 C25 1.398 . S
C26 C30 1.407 . S
C27 C25 1.396 . S
C27 C28 1.394 . S
C28 H23 0.929 . S
C28 C27 1.394 . S
C28 C29 1.382 . S
C29 C28 1.382 . S
C29 C30 1.392 . S
C29 N31 1.420 . S
C30 H24 0.930 . S
C30 C26 1.407 . S
C30 C29 1.392 . S
N31 C29 1.420 . S
N31 C32 1.244 . S
C32 N31 1.244 . S
H33 C36 0.929 . S
H34 C39 0.929 . S
H35 C41 0.930 . S
C36 H33 0.929 . S
C36 C37 1.398 . S
C36 C38 1.396 . S
C37 C36 1.398 . S
C37 C41 1.407 . S
C38 C36 1.396 . S
C38 C39 1.394 . S
C39 H34 0.929 . S
C39 C38 1.394 . S
C39 C40 1.382 . S
C40 C39 1.382 . S
C40 C41 1.392 . S
C40 N42 1.420 . S
C41 H35 0.930 . S
C41 C37 1.407 . S
C41 C40 1.392 . S
N42 C40 1.420 . S
N42 C43 1.244 . S
C43 N42 1.244 . S
H44 C47 0.929 . S
H45 C50 0.929 . S
H46 C52 0.930 . S
C47 H44 0.929 . S
C47 C48 1.398 . S
C47 C49 1.396 . S
C48 C47 1.398 . S
C48 C52 1.407 . S
C49 C47 1.396 . S
C49 C50 1.394 . S
C50 H45 0.929 . S
C50 C49 1.394 . S
C50 C51 1.382 . S
C51 C50 1.382 . S
C51 C52 1.392 . S
C51 N53 1.420 . S
C52 H46 0.930 . S
C52 C48 1.407 . S
C52 C51 1.392 . S
N53 C51 1.420 . S
N53 C54 1.244 . S
C54 N53 1.244 . S
H55 C58 0.929 . S
H56 C61 0.929 . S
H57 C63 0.930 . S
C58 H55 0.929 . S
C58 C59 1.398 . S
C58 C60 1.396 . S
C59 C58 1.398 . S
C59 C63 1.407 . S
C60 C58 1.396 . S
C60 C61 1.394 . S
C61 H56 0.929 . S
C61 C60 1.394 . S
C61 C62 1.382 . S
C62 C61 1.382 . S
C62 C63 1.392 . S
C62 N64 1.420 . S
C63 H57 0.930 . S
C63 C59 1.407 . S
C63 C62 1.392 . S
N64 C62 1.420 . S
N64 C65 1.244 . S
C65 N64 1.244 . S
H66 C69 0.929 . S
H67 C72 0.929 . S
H68 C74 0.930 . S
C69 H66 0.929 . S
C69 C70 1.398 . S
C69 C71 1.396 . S
C70 C69 1.398 . S
C70 C74 1.407 . S
C71 C69 1.396 . S
C71 C72 1.394 . S
C72 H67 0.929 . S
C72 C71 1.394 . S
C72 C73 1.382 . S
C73 C72 1.382 . S
C73 C74 1.392 . S
C73 N75 1.420 . S
C74 H68 0.930 . S
C74 C70 1.407 . S
C74 C73 1.392 . S
N75 C73 1.420 . S
N75 C76 1.244 . S
C76 N75 1.244 . S
H77 C80 0.929 . S
H78 C83 0.929 . S
H79 C85 0.930 . S
C80 H77 0.929 . S
C80 C81 1.398 . S
C80 C82 1.396 . S
C81 C80 1.398 . S
C81 C85 1.407 . S
C82 C80 1.396 . S
C82 C83 1.394 . S
C83 H78 0.929 . S
C83 C82 1.394 . S
C83 C84 1.382 . S
C84 C83 1.382 . S
C84 C85 1.392 . S
C84 N86 1.420 . S
C85 H79 0.930 . S
C85 C81 1.407 . S
C85 C84 1.392 . S
N86 C84 1.420 . S
N86 C87 1.244 . S
C87 N86 1.244 . S
Tb88 N117 2.617 . S
Tb88 N123 2.572 . S
Tb88 O132 2.465 . S
Tb88 O133 2.387 . S
Tb88 O135 2.428 . S
Tb88 O136 2.308 . S
Tb88 O140 2.349 . S
Tb88 O143 2.393 . S
Tb88 C152 2.802 . S
C89 N90 1.379 . S
C89 C92 1.416 . S
C89 C96 1.424 . S
N90 C89 1.379 . S
N90 C93 1.334 . S
N90 Tb99 2.617 . S
C91 C93 1.390 . S
C91 C94 1.339 . S
C91 H111 0.930 . S
C92 C89 1.416 . S
C92 C94 1.416 . S
C92 C98 1.448 . S
C93 N90 1.334 . S
C93 C91 1.390 . S
C93 H104 0.930 . S
C94 C91 1.339 . S
C94 C92 1.416 . S
C94 H115 0.930 . S
C95 C96 1.413 1_565 S
C95 C97 1.427 . S
C95 C101 1.416 . S
C96 C89 1.424 . S
C96 C95 1.413 1_545 S
C96 N100 1.361 . S
C97 C95 1.427 . S
C97 C98 1.328 1_565 S
C97 H112 0.929 . S
C98 C92 1.448 . S
C98 C97 1.328 1_545 S
C98 H113 0.930 . S
Tb99 N90 2.617 . S
Tb99 N100 2.572 . S
Tb99 O134 2.349 1_655 S
Tb99 O137 2.393 . S
Tb99 O138 2.465 . S
Tb99 O139 2.387 . S
Tb99 O141 2.428 . S
Tb99 O142 2.308 1_655 S
Tb99 C163 2.802 . S
N100 C96 1.361 . S
N100 Tb99 2.572 . S
N100 C102 1.340 1_545 S
C101 C95 1.416 . S
C101 C103 1.332 . S
C101 H109 0.931 . S
C102 N100 1.340 1_565 S
C102 C103 1.407 . S
C102 H108 0.930 . S
C103 C101 1.332 . S
C103 C102 1.407 . S
C103 H105 0.929 . S
H104 C93 0.930 . S
H105 C103 0.929 . S
H106 C121 0.930 . S
H107 C128 0.929 . S
H108 C102 0.930 . S
H109 C101 0.931 . S
H110 C124 0.930 . S
H111 C91 0.930 . S
H112 C97 0.929 . S
H113 C98 0.930 . S
H114 C119 0.930 . S
H115 C94 0.930 . S
H116 C127 0.931 . S
N117 Tb88 2.617 . S
N117 C118 1.379 . S
N117 C121 1.334 . S
C118 N117 1.379 . S
C118 C120 1.416 . S
C118 C126 1.424 . S
C119 H114 0.930 . S
C119 C121 1.390 . S
C119 C122 1.339 . S
C120 C118 1.416 . S
C120 C122 1.416 . S
C120 C153 1.448 . S
C121 H106 0.930 . S
C121 N117 1.334 . S
C121 C119 1.390 . S
C122 C119 1.339 . S
C122 C120 1.416 . S
C122 H129 0.930 . S
N123 Tb88 2.572 . S
N123 C124 1.340 . S
N123 C126 1.361 . S
C124 H110 0.930 . S
C124 N123 1.340 . S
C124 C128 1.407 . S
C125 C126 1.413 . S
C125 C127 1.416 . S
C125 C154 1.427 . S
C126 C118 1.424 . S
C126 N123 1.361 . S
C126 C125 1.413 . S
C127 H116 0.931 . S
C127 C125 1.416 . S
C127 C128 1.332 . S
C128 H107 0.929 . S
C128 C124 1.407 . S
C128 C127 1.332 . S
H129 C122 0.930 . S
H130 C153 0.930 . S
H131 C154 0.929 . S
O132 Tb88 2.465 . S
O132 C152 1.264 . S
O133 Tb88 2.387 . S
O133 C144 1.264 . S
O134 Tb99 2.349 1_455 S
O134 C144 1.243 . S
O135 Tb88 2.428 . S
O135 C152 1.256 . S
O136 Tb88 2.308 . S
O136 C151 1.266 1_455 S
O137 Tb99 2.393 . S
O137 C151 1.248 . S
O138 Tb99 2.465 . S
O138 C163 1.264 . S
O139 Tb99 2.387 . S
O139 C155 1.264 . S
O140 Tb88 2.349 . S
O140 C155 1.243 1_455 S
O141 Tb99 2.428 . S
O141 C163 1.256 . S
O142 Tb99 2.308 1_455 S
O142 C162 1.266 . S
O143 Tb88 2.393 . S
O143 C162 1.248 . S
C144 O133 1.264 . S
C144 O134 1.243 . S
C145 C148 1.399 . S
C145 C150 1.383 . S
C145 C152 1.496 . S
C146 C147 1.399 . S
C146 C150 1.389 . S
C147 C146 1.399 . S
C147 C149 1.380 . S
C147 H164 0.929 . S
C148 C145 1.399 . S
C148 C149 1.392 . S
C148 H165 0.929 . S
C149 C147 1.380 . S
C149 C148 1.392 . S
C149 H166 0.929 . S
C150 C145 1.383 . S
C150 C146 1.389 . S
C150 H167 0.931 . S
C151 O136 1.266 1_655 S
C151 O137 1.248 . S
C152 Tb88 2.802 . S
C152 O132 1.264 . S
C152 O135 1.256 . S
C152 C145 1.496 . S
C153 C120 1.448 . S
C153 H130 0.930 . S
C153 C154 1.328 . S
C154 C125 1.427 . S
C154 H131 0.929 . S
C154 C153 1.328 . S
C155 O139 1.264 . S
C155 O140 1.243 1_655 S
C156 C159 1.399 . S
C156 C160 1.383 . S
C156 C163 1.496 . S
C157 C158 1.399 . S
C157 C160 1.389 . S
C158 C157 1.399 . S
C158 C161 1.380 . S
C158 H168 0.929 . S
C159 C156 1.399 . S
C159 C161 1.392 . S
C159 H169 0.929 . S
C160 C156 1.383 . S
C160 C157 1.389 . S
C160 H170 0.931 . S
C161 C158 1.380 . S
C161 C159 1.392 . S
C161 H171 0.929 . S
C162 O142 1.266 . S
C162 O143 1.248 . S
C163 Tb99 2.802 . S
C163 O138 1.264 . S
C163 O141 1.256 . S
C163 C156 1.496 . S
H164 C147 0.929 . S
H165 C148 0.929 . S
H166 C149 0.929 . S
H167 C150 0.931 . S
H168 C158 0.929 . S
H169 C159 0.929 . S
H170 C160 0.931 . S
H171 C161 0.929 . S
Tb172 N201 2.617 . S
Tb172 N207 2.572 . S
Tb172 O216 2.465 . S
Tb172 O217 2.387 . S
Tb172 O219 2.428 . S
Tb172 O220 2.308 . S
Tb172 O224 2.349 . S
Tb172 O227 2.393 . S
Tb172 C236 2.802 . S
C173 N174 1.379 . S
C173 C176 1.416 . S
C173 C180 1.424 . S
N174 C173 1.379 . S
N174 C177 1.334 . S
N174 Tb183 2.617 . S
C175 C177 1.390 . S
C175 C178 1.339 . S
C175 H195 0.930 . S
C176 C173 1.416 . S
C176 C178 1.416 . S
C176 C182 1.448 . S
C177 N174 1.334 . S
C177 C175 1.390 . S
C177 H188 0.930 . S
C178 C175 1.339 . S
C178 C176 1.416 . S
C178 H199 0.930 . S
C179 C180 1.413 . S
C179 C181 1.427 . S
C179 C185 1.416 . S
C180 C173 1.424 . S
C180 C179 1.413 . S
C180 N184 1.361 . S
C181 C179 1.427 . S
C181 C182 1.328 . S
C181 H196 0.929 . S
C182 C176 1.448 . S
C182 C181 1.328 . S
C182 H197 0.930 . S
Tb183 N174 2.617 . S
Tb183 N184 2.572 . S
Tb183 O218 2.349 . S
Tb183 O221 2.393 . S
Tb183 O222 2.465 . S
Tb183 O223 2.387 . S
Tb183 O225 2.428 . S
Tb183 O226 2.308 . S
Tb183 C247 2.802 . S
N184 C180 1.361 . S
N184 Tb183 2.572 . S
N184 C186 1.340 . S
C185 C179 1.416 . S
C185 C187 1.332 . S
C185 H193 0.931 . S
C186 N184 1.340 . S
C186 C187 1.407 . S
C186 H192 0.930 . S
C187 C185 1.332 . S
C187 C186 1.407 . S
C187 H189 0.929 . S
H188 C177 0.930 . S
H189 C187 0.929 . S
H190 C205 0.930 . S
H191 C212 0.929 . S
H192 C186 0.930 . S
H193 C185 0.931 . S
H194 C208 0.930 . S
H195 C175 0.930 . S
H196 C181 0.929 . S
H197 C182 0.930 . S
H198 C203 0.930 . S
H199 C178 0.930 . S
H200 C211 0.931 . S
N201 Tb172 2.617 . S
N201 C202 1.379 . S
N201 C205 1.334 . S
C202 N201 1.379 . S
C202 C204 1.416 . S
C202 C210 1.424 . S
C203 H198 0.930 . S
C203 C205 1.390 . S
C203 C206 1.339 . S
C204 C202 1.416 . S
C204 C206 1.416 . S
C204 C237 1.448 . S
C205 H190 0.930 . S
C205 N201 1.334 . S
C205 C203 1.390 . S
C206 C203 1.339 . S
C206 C204 1.416 . S
C206 H213 0.930 . S
N207 Tb172 2.572 . S
N207 C208 1.340 . S
N207 C210 1.361 . S
C208 H194 0.930 . S
C208 N207 1.340 . S
C208 C212 1.407 . S
C209 C210 1.413 . S
C209 C211 1.416 . S
C209 C238 1.427 . S
C210 C202 1.424 . S
C210 N207 1.361 . S
C210 C209 1.413 . S
C211 H200 0.931 . S
C211 C209 1.416 . S
C211 C212 1.332 . S
C212 H191 0.929 . S
C212 C208 1.407 . S
C212 C211 1.332 . S
H213 C206 0.930 . S
H214 C237 0.930 . S
H215 C238 0.929 . S
O216 Tb172 2.465 . S
O216 C236 1.264 . S
O217 Tb172 2.387 . S
O217 C228 1.264 . S
O218 Tb183 2.349 . S
O218 C228 1.243 . S
O219 Tb172 2.428 . S
O219 C236 1.256 . S
O220 Tb172 2.308 . S
O220 C235 1.266 . S
O221 Tb183 2.393 . S
O221 C235 1.248 . S
O222 Tb183 2.465 . S
O222 C247 1.264 . S
O223 Tb183 2.387 . S
O223 C239 1.264 . S
O224 Tb172 2.349 . S
O224 C239 1.243 . S
O225 Tb183 2.428 . S
O225 C247 1.256 . S
O226 Tb183 2.308 . S
O226 C246 1.266 . S
O227 Tb172 2.393 . S
O227 C246 1.248 . S
C228 O217 1.264 . S
C228 O218 1.243 . S
C229 C232 1.399 . S
C229 C234 1.383 . S
C229 C236 1.496 . S
C230 C231 1.399 . S
C230 C234 1.389 . S
C231 C230 1.399 . S
C231 C233 1.380 . S
C231 H248 0.929 . S
C232 C229 1.399 . S
C232 C233 1.392 . S
C232 H249 0.929 . S
C233 C231 1.380 . S
C233 C232 1.392 . S
C233 H250 0.929 . S
C234 C229 1.383 . S
C234 C230 1.389 . S
C234 H251 0.931 . S
C235 O220 1.266 . S
C235 O221 1.248 . S
C236 Tb172 2.802 . S
C236 O216 1.264 . S
C236 O219 1.256 . S
C236 C229 1.496 . S
C237 C204 1.448 . S
C237 H214 0.930 . S
C237 C238 1.328 . S
C238 C209 1.427 . S
C238 H215 0.929 . S
C238 C237 1.328 . S
C239 O223 1.264 . S
C239 O224 1.243 . S
C240 C243 1.399 . S
C240 C244 1.383 . S
C240 C247 1.496 . S
C241 C242 1.399 . S
C241 C244 1.389 . S
C242 C241 1.399 . S
C242 C245 1.380 . S
C242 H252 0.929 . S
C243 C240 1.399 . S
C243 C245 1.392 . S
C243 H253 0.929 . S
C244 C240 1.383 . S
C244 C241 1.389 . S
C244 H254 0.931 . S
C245 C242 1.380 . S
C245 C243 1.392 . S
C245 H255 0.929 . S
C246 O226 1.266 . S
C246 O227 1.248 . S
C247 Tb183 2.802 . S
C247 O222 1.264 . S
C247 O225 1.256 . S
C247 C240 1.496 . S
H248 C231 0.929 . S
H249 C232 0.929 . S
H250 C233 0.929 . S
H251 C234 0.931 . S
H252 C242 0.929 . S
H253 C243 0.929 . S
H254 C244 0.931 . S
H255 C245 0.929 . S
Tb256 N285 2.617 . S
Tb256 N291 2.572 . S
Tb256 O300 2.465 . S
Tb256 O301 2.387 . S
Tb256 O303 2.428 . S
Tb256 O304 2.298 1_455 S
Tb256 O308 2.349 1_455 S
Tb256 O311 2.393 . S
Tb256 C320 2.802 . S
C257 N258 1.379 . S
C257 C260 1.416 . S
C257 C264 1.424 . S
N258 C257 1.379 . S
N258 C261 1.334 . S
N258 Tb267 2.617 . S
C259 C261 1.390 . S
C259 C262 1.339 . S
C259 H279 0.930 . S
C260 C257 1.416 . S
C260 C262 1.416 . S
C260 C266 1.448 . S
C261 N258 1.334 . S
C261 C259 1.390 . S
C261 H272 0.930 . S
C262 C259 1.339 . S
C262 C260 1.416 . S
C262 H283 0.930 . S
C263 C264 1.413 . S
C263 C265 1.427 . S
C263 C269 1.416 . S
C264 C257 1.424 . S
C264 C263 1.413 . S
C264 N268 1.361 . S
C265 C263 1.427 . S
C265 C266 1.328 . S
C265 H280 0.929 . S
C266 C260 1.448 . S
C266 C265 1.328 . S
C266 H281 0.930 . S
Tb267 N258 2.617 . S
Tb267 N268 2.572 . S
Tb267 O302 2.349 1_655 S
Tb267 O305 2.393 . S
Tb267 O306 2.465 . S
Tb267 O307 2.387 . S
Tb267 O309 2.428 . S
Tb267 O310 2.308 1_655 S
Tb267 C331 2.802 . S
N268 C264 1.361 . S
N268 Tb267 2.572 . S
N268 C270 1.340 . S
C269 C263 1.416 . S
C269 C271 1.332 . S
C269 H277 0.931 . S
C270 N268 1.340 . S
C270 C271 1.407 . S
C270 H276 0.930 . S
C271 C269 1.332 . S
C271 C270 1.407 . S
C271 H273 0.929 . S
H272 C261 0.930 . S
H273 C271 0.929 . S
H274 C289 0.930 . S
H275 C296 0.929 . S
H276 C270 0.930 . S
H277 C269 0.931 . S
H278 C292 0.930 . S
H279 C259 0.930 . S
H280 C265 0.929 . S
H281 C266 0.930 . S
H282 C287 0.930 . S
H283 C262 0.930 . S
H284 C295 0.931 . S
N285 Tb256 2.617 . S
N285 C286 1.379 . S
N285 C289 1.334 . S
C286 N285 1.379 . S
C286 C288 1.416 . S
C286 C294 1.424 . S
C287 H282 0.930 . S
C287 C289 1.390 . S
C287 C290 1.339 . S
C288 C286 1.416 . S
C288 C290 1.416 . S
C288 C321 1.448 . S
C289 H274 0.930 . S
C289 N285 1.334 . S
C289 C287 1.390 . S
C290 C287 1.339 . S
C290 C288 1.416 . S
C290 H297 0.930 . S
N291 Tb256 2.572 . S
N291 C292 1.340 1_565 S
N291 C294 1.361 . S
C292 H278 0.930 . S
C292 N291 1.340 1_545 S
C292 C296 1.407 . S
C293 C294 1.413 1_545 S
C293 C295 1.416 . S
C293 C322 1.427 . S
C294 C286 1.424 . S
C294 N291 1.361 . S
C294 C293 1.413 1_565 S
C295 H284 0.931 . S
C295 C293 1.416 . S
C295 C296 1.332 . S
C296 H275 0.929 . S
C296 C292 1.407 . S
C296 C295 1.332 . S
H297 C290 0.930 . S
H298 C321 0.930 . S
H299 C322 0.929 . S
O300 Tb256 2.465 . S
O300 C320 1.264 . S
O301 Tb256 2.387 . S
O301 C312 1.264 . S
O302 Tb267 2.349 1_455 S
O302 C312 1.243 . S
O303 Tb256 2.428 . S
O303 C320 1.256 . S
O304 Tb256 2.298 1_655 S
O304 C319 1.278 . S
O305 Tb267 2.393 . S
O305 C319 1.248 . S
O306 Tb267 2.465 . S
O306 C331 1.264 . S
O307 Tb267 2.387 . S
O307 C323 1.264 . S
O308 Tb256 2.349 1_655 S
O308 C323 1.243 . S
O309 Tb267 2.428 . S
O309 C331 1.256 . S
O310 Tb267 2.308 1_455 S
O310 C330 1.266 . S
O311 Tb256 2.393 . S
O311 C330 1.248 . S
C312 O301 1.264 . S
C312 O302 1.243 . S
C313 C316 1.399 . S
C313 C318 1.383 . S
C313 C320 1.496 . S
C314 C315 1.399 . S
C314 C318 1.389 . S
C315 C314 1.399 . S
C315 C317 1.380 . S
C315 H332 0.929 . S
C316 C313 1.399 . S
C316 C317 1.392 . S
C316 H333 0.929 . S
C317 C315 1.380 . S
C317 C316 1.392 . S
C317 H334 0.929 . S
C318 C313 1.383 . S
C318 C314 1.389 . S
C318 H335 0.931 . S
C319 O304 1.278 . S
C319 O305 1.248 . S
C320 Tb256 2.802 . S
C320 O300 1.264 . S
C320 O303 1.256 . S
C320 C313 1.496 . S
C321 C288 1.448 . S
C321 H298 0.930 . S
C321 C322 1.328 1_565 S
C322 C293 1.427 . S
C322 H299 0.929 . S
C322 C321 1.328 1_545 S
C323 O307 1.264 . S
C323 O308 1.243 . S
C324 C327 1.399 . S
C324 C328 1.383 . S
C324 C331 1.496 . S
C325 C326 1.399 . S
C325 C328 1.389 . S
C326 C325 1.399 . S
C326 C329 1.380 . S
C326 H336 0.929 . S
C327 C324 1.399 . S
C327 C329 1.392 . S
C327 H337 0.929 . S
C328 C324 1.383 . S
C328 C325 1.389 . S
C328 H338 0.931 . S
C329 C326 1.380 . S
C329 C327 1.392 . S
C329 H339 0.929 . S
C330 O310 1.266 . S
C330 O311 1.248 . S
C331 Tb267 2.802 . S
C331 O306 1.264 . S
C331 O309 1.256 . S
C331 C324 1.496 . S
H332 C315 0.929 . S
H333 C316 0.929 . S
H334 C317 0.929 . S
H335 C318 0.931 . S
H336 C326 0.929 . S
H337 C327 0.929 . S
H338 C328 0.931 . S
H339 C329 0.929 . S
Tb340 N369 2.617 . S
Tb340 N375 2.572 . S
Tb340 O384 2.465 . S
Tb340 O385 2.387 . S
Tb340 O387 2.428 . S
Tb340 O388 2.308 . S
Tb340 O392 2.349 . S
Tb340 O395 2.393 . S
Tb340 C404 2.802 . S
C341 N342 1.379 . S
C341 C344 1.416 . S
C341 C348 1.424 . S
N342 C341 1.379 . S
N342 C345 1.334 . S
N342 Tb351 2.617 . S
C343 C345 1.390 . S
C343 C346 1.339 . S
C343 H363 0.930 . S
C344 C341 1.416 . S
C344 C346 1.416 . S
C344 C350 1.448 . S
C345 N342 1.334 . S
C345 C343 1.390 . S
C345 H356 0.930 . S
C346 C343 1.339 . S
C346 C344 1.416 . S
C346 H367 0.930 . S
C347 C348 1.413 . S
C347 C349 1.427 . S
C347 C353 1.416 . S
C348 C341 1.424 . S
C348 C347 1.413 . S
C348 N352 1.361 . S
C349 C347 1.427 . S
C349 C350 1.328 . S
C349 H364 0.929 . S
C350 C344 1.448 . S
C350 C349 1.328 . S
C350 H365 0.930 . S
Tb351 N342 2.617 . S
Tb351 N352 2.572 . S
Tb351 O386 2.349 . S
Tb351 O389 2.393 . S
Tb351 O390 2.465 . S
Tb351 O391 2.387 . S
Tb351 O393 2.428 . S
Tb351 O394 2.308 . S
Tb351 C415 2.802 . S
N352 C348 1.361 . S
N352 Tb351 2.572 . S
N352 C354 1.340 . S
C353 C347 1.416 . S
C353 C355 1.332 . S
C353 H361 0.931 . S
C354 N352 1.340 . S
C354 C355 1.407 . S
C354 H360 0.930 . S
C355 C353 1.332 . S
C355 C354 1.407 . S
C355 H357 0.929 . S
H356 C345 0.930 . S
H357 C355 0.929 . S
H358 C373 0.930 . S
H359 C380 0.929 . S
H360 C354 0.930 . S
H361 C353 0.931 . S
H362 C376 0.930 . S
H363 C343 0.930 . S
H364 C349 0.929 . S
H365 C350 0.930 . S
H366 C371 0.930 . S
H367 C346 0.930 . S
H368 C379 0.931 . S
N369 Tb340 2.617 . S
N369 C370 1.379 . S
N369 C373 1.334 . S
C370 N369 1.379 . S
C370 C372 1.416 . S
C370 C378 1.424 . S
C371 H366 0.930 . S
C371 C373 1.390 . S
C371 C374 1.339 . S
C372 C370 1.416 . S
C372 C374 1.416 . S
C372 C405 1.448 . S
C373 H358 0.930 . S
C373 N369 1.334 . S
C373 C371 1.390 . S
C374 C371 1.339 . S
C374 C372 1.416 . S
C374 H381 0.930 . S
N375 Tb340 2.572 . S
N375 C376 1.340 . S
N375 C378 1.361 . S
C376 H362 0.930 . S
C376 N375 1.340 . S
C376 C380 1.407 . S
C377 C378 1.413 . S
C377 C379 1.416 . S
C377 C406 1.427 . S
C378 C370 1.424 . S
C378 N375 1.361 . S
C378 C377 1.413 . S
C379 H368 0.931 . S
C379 C377 1.416 . S
C379 C380 1.332 . S
C380 H359 0.929 . S
C380 C376 1.407 . S
C380 C379 1.332 . S
H381 C374 0.930 . S
H382 C405 0.930 . S
H383 C406 0.929 . S
O384 Tb340 2.465 . S
O384 C404 1.264 . S
O385 Tb340 2.387 . S
O385 C396 1.264 . S
O386 Tb351 2.349 . S
O386 C396 1.243 . S
O387 Tb340 2.428 . S
O387 C404 1.256 . S
O388 Tb340 2.308 . S
O388 C403 1.266 . S
O389 Tb351 2.393 . S
O389 C403 1.248 . S
O390 Tb351 2.465 . S
O390 C415 1.264 . S
O391 Tb351 2.387 . S
O391 C407 1.264 . S
O392 Tb340 2.349 . S
O392 C407 1.243 . S
O393 Tb351 2.428 . S
O393 C415 1.256 . S
O394 Tb351 2.308 . S
O394 C414 1.266 . S
O395 Tb340 2.393 . S
O395 C414 1.248 . S
C396 O385 1.264 . S
C396 O386 1.243 . S
C397 C400 1.399 . S
C397 C402 1.383 . S
C397 C404 1.496 . S
C398 C399 1.399 . S
C398 C402 1.389 . S
C399 C398 1.399 . S
C399 C401 1.380 . S
C399 H416 0.929 . S
C400 C397 1.399 . S
C400 C401 1.392 . S
C400 H417 0.929 . S
C401 C399 1.380 . S
C401 C400 1.392 . S
C401 H418 0.929 . S
C402 C397 1.383 . S
C402 C398 1.389 . S
C402 H419 0.931 . S
C403 O388 1.266 . S
C403 O389 1.248 . S
C404 Tb340 2.802 . S
C404 O384 1.264 . S
C404 O387 1.256 . S
C404 C397 1.496 . S
C405 C372 1.448 . S
C405 H382 0.930 . S
C405 C406 1.328 . S
C406 C377 1.427 . S
C406 H383 0.929 . S
C406 C405 1.328 . S
C407 O391 1.264 . S
C407 O392 1.243 . S
C408 C411 1.399 . S
C408 C412 1.383 . S
C408 C415 1.496 . S
C409 C410 1.399 . S
C409 C412 1.389 . S
C410 C409 1.399 . S
C410 C413 1.380 . S
C410 H420 0.929 . S
C411 C408 1.399 . S
C411 C413 1.392 . S
C411 H421 0.929 . S
C412 C408 1.383 . S
C412 C409 1.389 . S
C412 H422 0.931 . S
C413 C410 1.380 . S
C413 C411 1.392 . S
C413 H423 0.929 . S
C414 O394 1.266 . S
C414 O395 1.248 . S
C415 Tb351 2.802 . S
C415 O390 1.264 . S
C415 O393 1.256 . S
C415 C408 1.496 . S
H416 C399 0.929 . S
H417 C400 0.929 . S
H418 C401 0.929 . S
H419 C402 0.931 . S
H420 C410 0.929 . S
H421 C411 0.929 . S
H422 C412 0.931 . S
H423 C413 0.929 . S
C424 C425 1.387 . S
C424 H428 0.950 . S
C424 C433 1.390 . S
C425 C424 1.387 . S
C425 C427 1.387 . S
H426 C433 0.950 1_545 S
C427 C425 1.387 . S
C427 C429 1.390 . S
C427 H431 0.950 . S
H428 C424 0.950 . S
C429 C427 1.390 . S
C429 C430 1.387 . S
C429 H432 0.950 . S
C430 C429 1.387 . S
C430 C433 1.387 . S
H431 C427 0.950 . S
H432 C429 0.950 . S
C433 C424 1.390 . S
C433 H426 0.950 1_565 S
C433 C430 1.387 . S
C434 C435 1.387 . S
C434 H438 0.950 . S
C434 C443 1.390 . S
C435 C434 1.387 . S
C435 C437 1.387 . S
H436 C443 0.950 . S
C437 C435 1.387 . S
C437 C439 1.390 . S
C437 H441 0.950 . S
H438 C434 0.950 . S
C439 C437 1.390 . S
C439 C440 1.387 . S
C439 H442 0.950 . S
C440 C439 1.387 . S
C440 C443 1.387 . S
H441 C437 0.950 . S
H442 C439 0.950 . S
C443 C434 1.390 . S
C443 H436 0.950 . S
C443 C440 1.387 . S
C444 C445 1.387 . S
C444 H448 0.950 . S
C444 C453 1.390 . S
C445 C444 1.387 . S
C445 C447 1.387 . S
H446 C453 0.950 . S
C447 C445 1.387 . S
C447 C449 1.390 . S
C447 H451 0.950 . S
H448 C444 0.950 . S
C449 C447 1.390 . S
C449 C450 1.387 . S
C449 H452 0.950 . S
C450 C449 1.387 . S
C450 C453 1.387 . S
H451 C447 0.950 . S
H452 C449 0.950 . S
C453 C444 1.390 . S
C453 H446 0.950 . S
C453 C450 1.387 . S
C454 C455 1.387 . S
C454 H458 0.950 . S
C454 C463 1.390 . S
C455 C454 1.387 . S
C455 C457 1.387 . S
H456 C463 0.950 . S
C457 C455 1.387 . S
C457 C459 1.390 1_565 S
C457 H461 0.950 . S
H458 C454 0.950 . S
C459 C457 1.390 1_545 S
C459 C460 1.387 . S
C459 H462 0.950 . S
C460 C459 1.387 . S
C460 C463 1.387 1_545 S
H461 C457 0.950 . S
H462 C459 0.950 . S
C463 C454 1.390 . S
C463 H456 0.950 . S
C463 C460 1.387 1_565 S
C464 C465 1.387 . S
C464 H468 0.950 . S
C464 C473 1.390 . S
C465 C464 1.387 . S
C465 C467 1.387 . S
H466 C473 0.950 . S
C467 C465 1.387 . S
C467 C469 1.390 1_545 S
C467 H471 0.950 . S
H468 C464 0.950 . S
C469 C467 1.390 1_565 S
C469 C470 1.387 1_565 S
C469 H472 0.950 . S
C470 C469 1.387 1_545 S
C470 C473 1.388 . S
H471 C467 0.950 . S
H472 C469 0.950 . S
C473 C464 1.390 . S
C473 H466 0.950 . S
C473 C470 1.388 . S
C474 C475 1.387 . S
C474 H478 0.950 . S
C474 C483 1.390 . S
C475 C474 1.387 . S
C475 C477 1.387 . S
H476 C483 0.950 . S
C477 C475 1.387 . S
C477 C479 1.390 . S
C477 H481 0.950 . S
H478 C474 0.950 . S
C479 C477 1.390 . S
C479 C480 1.387 . S
C479 H482 0.950 . S
C480 C479 1.387 . S
C480 C483 1.387 . S
H481 C477 0.950 . S
H482 C479 0.950 . S
C483 C474 1.390 . S
C483 H476 0.950 . S
C483 C480 1.387 . S
C484 C485 1.387 . S
C484 H488 0.950 . S
C484 C493 1.390 . S
C485 C484 1.387 . S
C485 C487 1.387 . S
H486 C493 0.950 . S
C487 C485 1.387 . S
C487 C489 1.390 . S
C487 H491 0.950 . S
H488 C484 0.950 . S
C489 C487 1.390 . S
C489 C490 1.387 . S
C489 H492 0.950 . S
C490 C489 1.387 . S
C490 C493 1.387 . S
H491 C487 0.950 . S
H492 C489 0.950 . S
C493 C484 1.390 . S
C493 H486 0.950 . S
C493 C490 1.387 . S
C494 C495 1.387 . S
C494 H498 0.950 . S
C494 C503 1.390 1_545 S
C495 C494 1.387 . S
C495 C497 1.387 . S
H496 C503 0.950 . S
C497 C495 1.387 . S
C497 C499 1.390 . S
C497 H501 0.950 . S
H498 C494 0.950 . S
C499 C497 1.390 . S
C499 C500 1.364 1_545 S
C499 H502 0.950 . S
C500 C499 1.364 1_565 S
C500 C503 1.395 . S
H501 C497 0.950 . S
H502 C499 0.950 . S
C503 C494 1.390 1_565 S
C503 H496 0.950 . S
C503 C500 1.395 . S
C504 C505 1.387 . S
C504 H508 0.950 . S
C504 C513 1.390 1_556 S
C505 C504 1.387 . S
C505 C507 1.387 . S
H506 C513 0.950 . S
C507 C505 1.387 . S
C507 C509 1.390 1_556 S
C507 H511 0.950 . S
H508 C504 0.950 . S
C509 C507 1.390 1_554 S
C509 C510 1.387 . S
C509 H512 0.950 . S
C510 C509 1.387 . S
C510 C513 1.387 . S
H511 C507 0.950 . S
H512 C509 0.950 . S
C513 C504 1.390 1_554 S
C513 H506 0.950 . S
C513 C510 1.387 . S
C514 C515 1.387 . S
C514 H518 0.950 . S
C514 C523 1.390 . S
C515 C514 1.387 . S
C515 C517 1.387 . S
H516 C523 0.950 . S
C517 C515 1.387 . S
C517 C519 1.390 . S
C517 H521 0.950 . S
H518 C514 0.950 . S
C519 C517 1.390 . S
C519 C520 1.387 . S
C519 H522 0.950 . S
C520 C519 1.387 . S
C520 C523 1.387 . S
H521 C517 0.950 . S
H522 C519 0.950 . S
C523 C514 1.390 . S
C523 H516 0.950 . S
C523 C520 1.387 . S
C524 C525 1.387 . S
C524 H528 0.950 . S
C524 C533 1.390 1_554 S
C525 C524 1.387 . S
C525 C527 1.387 . S
H526 C533 0.950 . S
C527 C525 1.387 . S
C527 C529 1.390 1_554 S
C527 H531 0.950 . S
H528 C524 0.950 . S
C529 C527 1.390 1_556 S
C529 C530 1.387 . S
C529 H532 0.950 . S
C530 C529 1.387 . S
C530 C533 1.387 . S
H531 C527 0.950 . S
H532 C529 0.950 . S
C533 C524 1.390 1_556 S
C533 H526 0.950 . S
C533 C530 1.387 . S
C534 C535 1.387 . S
C534 H538 0.950 . S
C534 C543 1.390 . S
C535 C534 1.387 . S
C535 C537 1.387 . S
H536 C543 0.950 . S
C537 C535 1.387 . S
C537 C539 1.390 . S
C537 H541 0.950 . S
H538 C534 0.950 . S
C539 C537 1.390 . S
C539 C540 1.387 . S
C539 H542 0.950 . S
C540 C539 1.387 . S
C540 C543 1.387 . S
H541 C537 0.950 . S
H542 C539 0.950 . S
C543 C534 1.390 . S
C543 H536 0.950 . S
C543 C540 1.387 . S
C544 C545 1.387 . S
C544 H548 0.950 . S
C544 C553 1.390 . S
C545 C544 1.387 . S
C545 C547 1.387 . S
H546 C553 0.950 . S
C547 C545 1.387 . S
C547 C549 1.390 1_554 S
C547 H551 0.950 . S
H548 C544 0.950 . S
C549 C547 1.390 1_556 S
C549 C550 1.387 . S
C549 H552 0.950 . S
C550 C549 1.387 . S
C550 C553 1.387 1_556 S
H551 C547 0.950 . S
H552 C549 0.950 . S
C553 C544 1.390 . S
C553 H546 0.950 . S
C553 C550 1.387 1_554 S
C554 C555 1.387 . S
C554 H558 0.950 . S
C554 C563 1.390 . S
C555 C554 1.387 . S
C555 C557 1.387 . S
H556 C563 0.950 . S
C557 C555 1.387 . S
C557 C559 1.390 . S
C557 H561 0.950 . S
H558 C554 0.950 . S
C559 C557 1.390 . S
C559 C560 1.387 . S
C559 H562 0.950 . S
C560 C559 1.387 . S
C560 C563 1.387 . S
H561 C557 0.950 . S
H562 C559 0.950 . S
C563 C554 1.390 . S
C563 H556 0.950 . S
C563 C560 1.387 . S
C564 C565 1.387 . S
C564 H568 0.950 . S
C564 C573 1.390 1_556 S
C565 C564 1.387 . S
C565 C567 1.387 . S
H566 C573 0.950 . S
C567 C565 1.387 . S
C567 C569 1.390 . S
C567 H571 0.950 . S
H568 C564 0.950 . S
C569 C567 1.390 . S
C569 C570 1.387 1_556 S
C569 H572 0.950 1_556 S
C570 C569 1.387 1_554 S
C570 C573 1.387 . S
H571 C567 0.950 . S
H572 C569 0.950 1_554 S
C573 C564 1.390 1_554 S
C573 H566 0.950 . S
C573 C570 1.387 . S
C574 C575 1.387 . S
C574 H578 0.950 . S
C574 C583 1.390 . S
C575 C574 1.387 . S
C575 C577 1.387 . S
H576 C583 0.950 . S
C577 C575 1.387 . S
C577 C579 1.390 . S
C577 H581 0.950 . S
H578 C574 0.950 . S
C579 C577 1.390 . S
C579 C580 1.387 . S
C579 H582 0.950 . S
C580 C579 1.387 . S
C580 C583 1.387 . S
H581 C577 0.950 . S
H582 C579 0.950 . S
C583 C574 1.390 . S
C583 H576 0.950 . S
C583 C580 1.387 . S
C584 C585 1.387 . S
C584 H588 0.950 . S
C584 C593 1.390 . S
C585 C584 1.387 . S
C585 C587 1.387 . S
H586 C593 0.950 . S
C587 C585 1.387 . S
C587 C589 1.390 . S
C587 H591 0.950 . S
H588 C584 0.950 . S
C589 C587 1.390 . S
C589 C590 1.387 . S
C589 H592 0.950 . S
C590 C589 1.387 . S
C590 C593 1.387 . S
H591 C587 0.950 . S
H592 C589 0.950 . S
C593 C584 1.390 . S
C593 H586 0.950 . S
C593 C590 1.387 . S
C594 C595 1.387 . S
C594 H598 0.950 . S
C594 C603 1.390 . S
C595 C594 1.387 . S
C595 C597 1.387 . S
H596 C603 0.950 . S
C597 C595 1.387 . S
C597 C599 1.390 . S
C597 H601 0.950 . S
H598 C594 0.950 . S
C599 C597 1.390 . S
C599 C600 1.387 . S
C599 H602 0.950 . S
C600 C599 1.387 . S
C600 C603 1.387 . S
H601 C597 0.950 . S
H602 C599 0.950 . S
C603 C594 1.390 . S
C603 H596 0.950 . S
C603 C600 1.387 . S
C604 C605 1.387 . S
C604 H608 0.950 . S
C604 C613 1.390 . S
C605 C604 1.387 . S
C605 C607 1.387 . S
H606 C613 0.950 . S
C607 C605 1.387 . S
C607 C609 1.390 . S
C607 H611 0.950 . S
H608 C604 0.950 . S
C609 C607 1.390 . S
C609 C610 1.387 . S
C609 H612 0.950 . S
C610 C609 1.387 . S
C610 C613 1.387 . S
H611 C607 0.950 . S
H612 C609 0.950 . S
C613 C604 1.390 . S
C613 H606 0.950 . S
C613 C610 1.387 . S
C614 C615 1.387 . S
C614 H618 0.950 . S
C614 C623 1.390 . S
C615 C614 1.387 . S
C615 C617 1.387 . S
H616 C623 0.950 . S
C617 C615 1.387 . S
C617 C619 1.390 . S
C617 H621 0.950 . S
H618 C614 0.950 . S
C619 C617 1.390 . S
C619 C620 1.387 . S
C619 H622 0.950 . S
C620 C619 1.387 . S
C620 C623 1.387 . S
H621 C617 0.950 . S
H622 C619 0.950 . S
C623 C614 1.390 . S
C623 H616 0.950 . S
C623 C620 1.387 . S
C624 C625 1.387 . S
C624 H628 0.950 . S
C624 C633 1.390 . S
C625 C624 1.387 . S
C625 C627 1.387 . S
H626 C633 0.950 . S
C627 C625 1.387 . S
C627 C629 1.390 . S
C627 H631 0.950 . S
H628 C624 0.950 . S
C629 C627 1.390 . S
C629 C630 1.387 . S
C629 H632 0.950 . S
C630 C629 1.387 . S
C630 C633 1.387 . S
H631 C627 0.950 . S
H632 C629 0.950 . S
C633 C624 1.390 . S
C633 H626 0.950 . S
C633 C630 1.387 . S
C634 C635 1.387 . S
C634 H638 0.950 . S
C634 C643 1.390 . S
C635 C634 1.387 . S
C635 C637 1.387 . S
H636 C643 0.950 . S
C637 C635 1.387 . S
C637 C639 1.390 . S
C637 H641 0.950 . S
H638 C634 0.950 . S
C639 C637 1.390 . S
C639 C640 1.387 . S
C639 H642 0.950 . S
C640 C639 1.387 . S
C640 C643 1.387 . S
H641 C637 0.950 . S
H642 C639 0.950 . S
C643 C634 1.390 . S
C643 H636 0.950 . S
C643 C640 1.387 . S
C644 C645 1.387 . S
C644 H648 0.950 . S
C644 C653 1.390 . S
C645 C644 1.387 . S
C645 C647 1.387 . S
H646 C653 0.950 . S
C647 C645 1.387 . S
C647 C649 1.390 . S
C647 H651 0.950 . S
H648 C644 0.950 . S
C649 C647 1.390 . S
C649 C650 1.387 . S
C649 H652 0.950 . S
C650 C649 1.387 . S
C650 C653 1.387 . S
H651 C647 0.950 . S
H652 C649 0.950 . S
C653 C644 1.390 . S
C653 H646 0.950 . S
C653 C650 1.387 . S
C654 C655 1.387 . S
C654 H658 0.950 . S
C654 C663 1.390 . S
C655 C654 1.387 . S
C655 C657 1.387 . S
H656 C663 0.950 . S
C657 C655 1.387 . S
C657 C659 1.390 . S
C657 H661 0.950 . S
H658 C654 0.950 . S
C659 C657 1.390 . S
C659 C660 1.387 . S
C659 H662 0.950 . S
C660 C659 1.387 . S
C660 C663 1.387 . S
H661 C657 0.950 . S
H662 C659 0.950 . S
C663 C654 1.390 . S
C663 H656 0.950 . S
C663 C660 1.387 . S
C425 C71 1.656 . S
C430 C162 1.644 1_565 S
C440 C246 1.634 . S
C435 C81 1.636 . S
C450 C239 1.648 . S
C445 C49 1.653 . S
C455 C59 1.634 . S
C460 C155 1.631 . S
C470 C319 1.649 1_545 S
C465 C27 1.656 . S
C480 C403 1.680 . S
C475 C38 1.689 . S
C485 C5 1.653 . S
C490 C396 1.650 . S
C495 C16 1.686 . S
C500 C312 1.705 . S
C510 C146 1.391 . S
C505 C15 1.554 . S
C520 C230 1.415 . S
C515 C4 1.573 . S
C530 C241 1.340 . S
C525 C37 1.556 . S
C540 C157 1.347 . S
C535 C26 1.572 . S
C550 C325 1.461 . S
C545 C60 1.600 . S
C555 C48 1.624 . S
C560 C409 1.464 . S
C570 C398 1.374 . S
C565 C82 1.600 . S
C575 C70 1.622 . S
C580 C314 1.384 . S
C590 C144 1.492 . S
C585 C10 1.482 . S
C600 C228 1.529 . S
C595 C21 1.519 . S
C605 C32 1.475 . S
C610 C235 1.455 . S
C620 C151 1.492 . S
C615 C43 1.513 . S
C630 C323 1.565 . S
C625 C54 1.548 . S
C635 C65 1.528 . S
C640 C407 1.530 . S
C645 C76 1.547 . S
C650 C414 1.539 . S
C655 C87 1.522 . S
C660 C330 1.505 . S
