# Generated by pormake.
# Topology pts, (4,4)-cn, num edge types: 1
# Building blocks:
#     Node 0, Type 0, BuildingBlock: GIZVER_clean_linker_0, # of connection points: 4
#     Node 1, Type 0, BuildingBlock: GIZVER_clean_linker_0, # of connection points: 4
#     Node 2, Type 1, BuildingBlock: UXUYUI_clean_sbu_0, # of connection points: 4
#     Node 3, Type 1, BuildingBlock: UXUYUI_clean_sbu_0, # of connection points: 4
#     Edge 4, Type (0, 1), BuildingBlock: XUDNAN_clean_linker_2, # of connection points: 2
#     Edge 5, Type (0, 1), BuildingBlock: XUDNAN_clean_linker_2, # of connection points: 2
#     Edge 6, Type (0, 1), BuildingBlock: XUDNAN_clean_linker_2, # of connection points: 2
#     Edge 7, Type (0, 1), BuildingBlock: XUDNAN_clean_linker_2, # of connection points: 2
#     Edge 8, Type (0, 1), BuildingBlock: XUDNAN_clean_linker_2, # of connection points: 2
#     Edge 9, Type (0, 1), BuildingBlock: XUDNAN_clean_linker_2, # of connection points: 2
#     Edge 10, Type (0, 1), BuildingBlock: XUDNAN_clean_linker_2, # of connection points: 2
#     Edge 11, Type (0, 1), BuildingBlock: XUDNAN_clean_linker_2, # of connection points: 2
# Relax obj value: 0.010
# Max RMSD: 0.058
# Mean RMSD: 0.057
data_MOF--net-pts--node1-UXUYUI_clean_sbu_0--node2-GIZVER_clean_linker_0--edge1-XUDNAN_clean_linker_2
_symmetry_space_group_name_H-M    P1
_symmetry_Int_Tables_number       1
_symmetry_cell_setting            triclinic
loop_
_symmetry_equiv_pos_as_xyz
'x, y, z'
_cell_length_a     32.213201
_cell_length_b     32.169168
_cell_length_c     41.585241
_cell_angle_alpha  90.339194
_cell_angle_beta   89.677436
_cell_angle_gamma 89.844231
loop_
_atom_site_label
_atom_site_type_symbol
_atom_site_fract_x
_atom_site_fract_y
_atom_site_fract_z
_atom_type_partial_charge
H0 H 0.57358 0.06887 0.05101 0.0
H1 H 0.56548 0.06978 0.94745 0.0
H2 H 0.67382 0.02047 0.99323 0.0
H3 H 0.52412 0.11355 0.02522 0.0
H4 H 0.52609 0.12073 0.9829 0.0
H5 H 0.47703 0.06277 0.04928 0.0
H6 H 0.37534 0.02446 0.99 0.0
H7 H 0.48367 0.07851 0.94653 0.0
C8 C 0.58611 0.06032 0.02764 0.0
C9 C 0.62604 0.04289 0.02545 0.0
C10 C 0.56386 0.0701 -0.00045 0.0
C11 C 0.58148 0.06086 0.96921 0.0
C12 C 0.62103 0.0427 0.96707 0.0
C13 C 0.64277 0.0335 0.99512 0.0
C14 C 0.5251 0.09647 0.00187 0.0
C15 C 0.48576 0.07148 -0.00186 0.0
C16 C 0.46409 0.05767 0.02558 0.0
C17 C 0.42403 0.04106 0.02263 0.0
C18 C 0.40679 0.03613 0.99201 0.0
C19 C 0.42785 0.04947 0.96437 0.0
C20 C 0.46766 0.06677 0.96757 0.0
H21 H 0.06076 0.57485 0.4519 0.0
H22 H 0.07222 0.56191 0.55428 0.0
H23 H 1.01073 0.66867 0.51523 0.0
H24 H 0.10973 0.52642 0.47387 0.0
H25 H 0.1186 0.52441 0.51598 0.0
H26 H 0.06866 0.47401 0.4484 0.0
H27 H 0.0257 0.37231 0.50575 0.0
H28 H 0.06949 0.48376 0.55178 0.0
C29 C 0.05316 0.58576 0.47592 0.0
C30 C 0.03372 0.62465 0.48025 0.0
C31 C 0.06633 0.56246 0.50258 0.0
C32 C 0.05988 0.57844 0.5338 0.0
C33 C 0.04008 0.617 0.53853 0.0
C34 C 0.02559 0.63875 0.51169 0.0
C35 C 0.09365 0.52464 0.49758 0.0
C36 C 0.06999 0.48421 0.49985 0.0
C37 C 0.06096 0.4613 0.47177 0.0
C38 C 0.04539 0.42067 0.4739 0.0
C39 C 0.03689 0.40398 0.50426 0.0
C40 C 0.0453 0.42624 0.53259 0.0
C41 C 0.06162 0.46664 0.53016 0.0
Li42 Li 0.02648 0.05948 0.26587 0.0
Li43 Li 0.02309 0.98115 0.2704 0.0
Li44 Li 0.06197 0.01697 0.22736 0.0
Li45 Li 0.98757 0.0184 0.22686 0.0
C46 C 0.08981 0.03521 0.30113 0.0
N47 N 0.12348 0.07077 0.3557 0.0
C48 C 0.07923 0.02011 0.33153 0.0
C49 C 0.11783 0.06814 0.29848 0.0
C50 C 0.09654 0.03854 0.35883 0.0
C51 C 0.1344 0.08579 0.32635 0.0
C52 C 0.9366 0.02835 0.27689 0.0
C53 C 0.86747 1.00027 0.2808 0.0
N54 N 0.85157 0.03933 0.27826 0.0
C55 C 0.91965 0.06823 0.2745 0.0
C56 C 0.91041 0.99407 0.28021 0.0
C57 C 0.87654 0.07313 0.27519 0.0
C58 C 0.03155 0.14673 0.27266 0.0
N59 N 0.02612 0.11091 0.28934 0.0
C60 C 0.01874 0.14923 0.33852 0.0
C61 C 0.01923 0.1115 0.32162 0.0
C62 C 0.02489 0.18674 0.32194 0.0
C63 C 0.03123 0.18507 0.28853 0.0
H64 H 0.03587 0.1457 0.24694 0.0
H65 H 0.0139 0.08269 0.33423 0.0
C66 C 0.04491 0.90032 0.28659 0.0
N67 N 0.02122 0.93298 0.29658 0.0
C68 C 0.04303 0.86242 0.30267 0.0
C69 C 0.99399 0.89311 0.34017 0.0
C70 C 0.99614 0.93026 0.3229 0.0
C71 C 0.0172 0.8585 0.32971 0.0
H72 H 0.06507 0.9037 0.26595 0.0
H73 H 0.97763 0.95679 0.33028 0.0
C74 C 0.04664 0.08595 0.19526 0.0
N75 N 0.09126 0.1259 0.14766 0.0
C76 C 0.03078 0.08863 0.16411 0.0
C77 C 0.08491 0.1042 0.20228 0.0
C78 C 0.05388 0.10881 0.14036 0.0
C79 C 0.10708 0.12407 0.17787 0.0
C80 C 0.0274 0.95058 0.19359 0.0
C81 C 0.01454 0.9718 0.16615 0.0
C82 C 0.04424 0.91065 0.19039 0.0
C83 C 0.01895 0.95292 0.13599 0.0
C84 C 0.04818 0.8928 0.15981 0.0
N85 N 0.03556 0.91413 0.13346 0.0
C86 C 0.14844 1.00902 0.22056 0.0
C87 C 0.11402 0.013 0.17051 0.0
C88 C 0.18705 1.00761 0.20515 0.0
N89 N 0.11292 0.01216 0.2032 0.0
C90 C 0.15194 1.01147 0.1541 0.0
C91 C 0.18924 1.0092 0.17145 0.0
H92 H 0.14691 1.00823 0.2465 0.0
H93 H 0.08561 0.01579 0.15709 0.0
C94 C 0.9214 0.05454 0.19261 0.0
N95 N 0.93667 0.01794 0.20366 0.0
C96 C 0.88293 0.0558 0.17737 0.0
C97 C 0.8764 0.98174 0.18555 0.0
C98 C 0.91521 0.98185 0.20038 0.0
C99 C 0.85983 0.01909 0.17381 0.0
H100 H 0.93882 0.08288 0.19617 0.0
H101 H 0.92802 0.95329 0.20977 0.0
O102 O 0.07259 0.0181 0.27414 0.0
O103 O 0.97863 0.02281 0.27518 0.0
O104 O 0.02465 0.066 0.21884 0.0
O105 O 0.02306 0.9684 0.22343 0.0
H106 H 0.05759 0.99473 0.33407 0.0
H107 H 0.12658 0.08007 0.27517 0.0
H108 H 0.08844 0.02731 0.38251 0.0
H109 H 0.15592 0.11145 0.32466 0.0
H110 H 0.84678 0.97402 0.28311 0.0
H111 H 0.93956 0.09504 0.27171 0.0
H112 H 0.92311 0.96298 0.28184 0.0
H113 H 0.86294 0.10377 0.27316 0.0
H114 H 0.01299 0.14905 0.3642 0.0
H115 H 0.03637 0.21308 0.27476 0.0
H116 H 0.06184 0.83655 0.29425 0.0
H117 H 0.9738 0.89113 0.36102 0.0
H118 H 1.00097 0.07532 0.15825 0.0
H119 H 0.09754 0.10263 0.22626 0.0
H120 H 0.04207 0.11091 0.11613 0.0
H121 H 0.13691 0.13795 0.18293 0.0
H122 H 1.00177 1.00272 0.16801 0.0
H123 H 0.05417 0.89349 0.21125 0.0
H124 H 1.00928 0.96918 0.11459 0.0
H125 H 0.06122 0.86196 0.15703 0.0
H126 H 0.21489 1.00634 0.21959 0.0
H127 H 0.15197 0.01217 0.12807 0.0
H128 H 0.87102 0.08531 0.16899 0.0
H129 H 0.85971 0.95273 0.18304 0.0
Li130 Li 0.9838 0.02708 0.76739 0.0
Li131 Li 0.06281 0.02944 0.7687 0.0
Li132 Li 0.0246 0.06264 0.72804 0.0
Li133 Li 0.0282 0.98801 0.72653 0.0
C134 C 0.01671 0.11631 0.77613 0.0
N135 N 1.00712 0.20166 0.77559 0.0
C136 C 0.05154 0.14208 0.77501 0.0
C137 C 0.97702 0.13392 0.77736 0.0
C138 C 0.04603 0.18517 0.7746 0.0
C139 C 0.97282 0.17716 0.77702 0.0
C140 C 0.02814 0.95747 0.80095 0.0
C141 C 0.04606 0.89344 0.82742 0.0
N142 N 0.03437 0.91048 0.8561 0.0
C143 C 0.01626 0.97432 0.83065 0.0
C144 C 0.04309 0.91668 0.79925 0.0
C145 C 0.01966 0.95007 0.85828 0.0
C146 C 0.90062 1.00475 0.77492 0.0
N147 N 0.93228 0.02464 0.78994 0.0
C148 C 0.88808 0.04179 0.83447 0.0
C149 C 0.92675 0.04324 0.81908 0.0
C150 C 0.8545 0.02167 0.81946 0.0
C151 C 0.86131 1.00307 0.78918 0.0
H152 H 0.90583 0.9906 0.75157 0.0
H153 H 0.95231 0.05938 0.83032 0.0
C154 C 0.1417 0.05915 0.77898 0.0
N155 N 0.11284 0.03454 0.79327 0.0
C156 C 0.18076 0.0644 0.79261 0.0
C157 C 0.15963 0.01995 0.83628 0.0
C158 C 0.12103 0.01498 0.82144 0.0
C159 C 0.19031 0.04483 0.82177 0.0
H160 H 0.13455 0.07429 0.75653 0.0
H161 H 0.09791 0.99545 0.83246 0.0
C162 C 0.96354 0.03284 0.69027 0.0
N163 N 0.93418 0.0532 0.63013 0.0
C164 C 0.9888 0.02735 0.66315 0.0
C165 C 0.92334 0.04854 0.68687 0.0
C166 C 0.97339 0.03788 0.63293 0.0
C167 C 0.90907 0.05869 0.65623 0.0
C168 C 0.11042 1.00567 0.71595 0.0
C169 C 0.13793 0.01777 0.69167 0.0
C170 C 0.11957 0.97076 0.73452 0.0
C171 C 0.1741 0.99463 0.68628 0.0
C172 C 0.15604 0.94845 0.7284 0.0
N173 N 0.18232 0.96073 0.7046 0.0
C174 C 0.06325 0.12682 0.69404 0.0
C175 C 0.99039 0.13556 0.69863 0.0
C176 C 0.06721 0.16601 0.68016 0.0
N177 N 0.02536 0.11263 0.70329 0.0
C178 C 0.99292 0.17499 0.68482 0.0
C179 C 0.03184 0.191 0.67588 0.0
H180 H 0.09062 0.10828 0.69854 0.0
H181 H 0.96076 0.12412 0.707 0.0
C182 C 1.00372 0.90615 0.71415 0.0
N183 N 0.02972 0.93641 0.70349 0.0
C184 C 1.00578 0.8661 0.70099 0.0
C185 C 0.061 0.88923 0.66586 0.0
C186 C 0.05725 0.92903 0.67917 0.0
C187 C 0.03538 0.85719 0.67709 0.0
H188 H 0.98212 0.91292 0.73351 0.0
H189 H 0.07701 0.95368 0.67056 0.0
O190 O 0.0214 0.07405 0.77577 0.0
O191 O 0.02451 0.98043 0.77355 0.0
O192 O 0.9783 0.02329 0.72007 0.0
O193 O 0.07502 0.02834 0.72149 0.0
H194 H 0.08246 0.12896 0.77406 0.0
H195 H 0.94973 0.11441 0.77804 0.0
H196 H 0.07269 0.20549 0.77341 0.0
H197 H 0.94229 0.19122 0.77771 0.0
H198 H 0.05762 0.86185 0.82648 0.0
H199 H 1.00527 1.00601 0.83241 0.0
H200 H 0.05229 0.90311 0.77641 0.0
H201 H 1.01076 0.96279 0.88145 0.0
H202 H 0.88475 0.05605 0.85798 0.0
H203 H 0.83643 0.98789 0.7763 0.0
H204 H 0.20338 0.0832 0.78004 0.0
H205 H 0.16511 1.00472 0.85901 0.0
H206 H 0.02011 0.01549 0.66546 0.0
H207 H 0.9035 0.0531 0.7077 0.0
H208 H 0.99262 0.03395 0.61172 0.0
H209 H 0.87806 0.071 0.6532 0.0
H210 H 0.13135 0.04473 0.67708 0.0
H211 H 0.09885 0.96095 0.75347 0.0
H212 H 0.19563 1.00361 0.66753 0.0
H213 H 0.16345 0.92136 0.74257 0.0
H214 H 0.09776 0.17676 0.67317 0.0
H215 H 0.9649 0.19334 0.68232 0.0
H216 H 0.98553 0.84203 0.71014 0.0
H217 H 0.08383 0.88343 0.64713 0.0
H218 H 0.34757 0.07367 0.03312 0.0
H219 H 0.43971 0.99308 0.07594 0.0
H220 H 0.39045 0.9774 0.12052 0.0
H221 H 0.30419 0.11483 0.10806 0.0
H222 H 0.2522 0.11612 0.09229 0.0
H223 H 0.29597 0.12261 0.06567 0.0
H224 H 0.2698 0.06134 0.03051 0.0
H225 H 0.2262 0.05437 0.05715 0.0
H226 H 0.26079 1.01147 0.04879 0.0
H227 H 0.32794 0.96697 0.15797 0.0
H228 H 0.2602 0.96523 0.18619 0.0
H229 H 0.21098 0.0545 0.11833 0.0
C230 C 0.3575 0.05294 0.05203 0.0
C231 C 0.39718 0.03424 0.05113 0.0
C232 C 0.40938 1.00769 0.07638 0.0
C233 C 0.38159 0.99858 0.10162 0.0
C234 C 0.34213 0.01676 0.10126 0.0
C235 C 0.33041 0.04377 0.07723 0.0
C236 C 0.28616 0.05857 0.08159 0.0
C237 C 0.28456 0.10584 0.08725 0.0
C238 C 0.25916 0.04565 0.0528 0.0
C239 C 0.27425 0.0351 0.11157 0.0
C240 C 0.30684 1.01121 0.12271 0.0
C241 C 0.30244 0.98597 0.14963 0.0
C242 C 0.26385 0.9853 0.16557 0.0
C243 C 0.23011 1.00973 0.15454 0.0
C244 C 0.23579 0.03499 0.12722 0.0
H245 H 0.98481 0.37195 0.55235 0.0
H246 H 0.10033 0.42857 0.58281 0.0
H247 H 0.10384 0.37982 0.62822 0.0
H248 H 0.9453 0.34018 0.63391 0.0
H249 H 0.92581 0.29179 0.61806 0.0
H250 H 0.9269 0.33741 0.5931 0.0
H251 H 0.96959 0.29674 0.55025 0.0
H252 H 0.96922 0.25129 0.57515 0.0
H253 H 0.0179 0.27266 0.56159 0.0
H254 H 0.10139 0.31762 0.66427 0.0
H255 H 0.09196 0.2488 0.68912 0.0
H256 H 0.98093 0.22962 0.63236 0.0
C257 C 1.01029 0.37489 0.56908 0.0
C258 C 0.04223 0.40427 0.56396 0.0
C259 C 0.07501 0.407 0.58645 0.0
C260 C 0.07743 0.37917 0.61225 0.0
C261 C 0.04676 0.3489 0.61534 0.0
C262 C 0.01353 0.34691 0.59453 0.0
C263 C 0.98765 0.30839 0.60034 0.0
C264 C 0.94381 0.32016 0.61206 0.0
C265 C 0.98603 0.28065 0.57004 0.0
C266 C 0.01243 0.2881 0.6268 0.0
C267 C 0.04598 0.3123 0.63552 0.0
C268 C 0.07491 0.29871 0.65794 0.0
C269 C 0.06953 0.25934 0.67164 0.0
C270 C 0.03577 0.23368 0.66262 0.0
C271 C 1.00663 0.24871 0.6402 0.0
H272 H 0.70378 0.0734 0.03271 0.0
H273 H 0.60892 1.00266 0.08223 0.0
H274 H 0.65766 0.99062 0.1274 0.0
H275 H 0.78837 1.01006 0.05253 0.0
H276 H 0.82442 0.05236 0.05736 0.0
H277 H 0.78106 0.05767 0.0306 0.0
H278 H 0.7572 0.12411 0.06116 0.0
H279 H 0.80067 0.11917 0.08794 0.0
H280 H 0.74865 0.12205 0.104 0.0
H281 H 0.71978 0.98189 0.16483 0.0
H282 H 0.78755 0.98102 0.19274 0.0
H283 H 0.84016 0.05833 0.11787 0.0
C284 C 0.69315 0.05564 0.05321 0.0
C285 C 0.65282 0.03864 0.05406 0.0
C286 C 0.63974 0.01597 0.08132 0.0
C287 C 0.66723 1.00892 0.10693 0.0
C288 C 0.70729 0.02529 0.1049 0.0
C289 C 0.71992 0.04862 0.07884 0.0
C290 C 0.76468 0.06204 0.08179 0.0
C291 C 0.79118 0.04447 0.05392 0.0
C292 C 0.76797 0.10967 0.08386 0.0
C293 C 0.77575 0.04201 0.11337 0.0
C294 C 0.74236 0.02094 0.12642 0.0
C295 C 0.74595 0.99865 0.15494 0.0
C296 C 0.78457 0.99809 0.1705 0.0
C297 C 0.81898 0.01981 0.15754 0.0
C298 C 0.81424 0.04205 0.12865 0.0
H299 H 0.97866 0.66404 0.5672 0.0
H300 H 0.10578 0.62257 0.57956 0.0
H301 H 0.11502 0.67426 0.62279 0.0
H302 H 0.99922 0.76625 0.57086 0.0
H303 H 0.95318 0.7826 0.59235 0.0
H304 H 0.95233 0.73594 0.5684 0.0
H305 H 0.9286 0.69316 0.61771 0.0
H306 H 0.92848 0.73992 0.64184 0.0
H307 H 0.95824 0.69537 0.65432 0.0
H308 H 0.11582 0.73971 0.65503 0.0
H309 H 0.10523 0.80974 0.67871 0.0
H310 H 0.9777 0.80939 0.64625 0.0
C311 C 1.00792 0.66479 0.57989 0.0
C312 C 0.04139 0.63902 0.57009 0.0
C313 C 0.07938 0.64126 0.587 0.0
C314 C 0.08504 0.67084 0.61148 0.0
C315 C 0.05228 0.69761 0.61907 0.0
C316 C 0.01411 0.69429 0.60427 0.0
C317 C 0.98557 0.72978 0.61409 0.0
C318 C 0.9718 0.75512 0.58468 0.0
C319 C 0.948 0.71358 0.63313 0.0
C320 C 0.01433 0.75467 0.63546 0.0
C321 C 0.05256 0.73537 0.63824 0.0
C322 C 0.08567 0.75453 0.65382 0.0
C323 C 0.07953 0.79433 0.66695 0.0
C324 C 0.04058 0.81442 0.66453 0.0
C325 C 1.00746 0.79411 0.64898 0.0
H326 H 0.37801 0.98948 0.93792 0.0
H327 H 0.42292 0.11489 0.92288 0.0
H328 H 0.37128 0.1246 0.87999 0.0
H329 H 0.34797 0.96712 0.85183 0.0
H330 H 0.30264 0.93879 0.86461 0.0
H331 H 0.34863 0.93881 0.88911 0.0
H332 H 0.30488 0.96543 0.93749 0.0
H333 H 0.259 0.96644 0.9131 0.0
H334 H 0.27552 0.01293 0.93371 0.0
H335 H 0.30682 0.12547 0.84683 0.0
H336 H 0.2387 0.11523 0.82167 0.0
H337 H 0.23592 0.98842 0.85707 0.0
C338 C 0.37789 0.01848 0.92482 0.0
C339 C 0.4047 0.05133 0.9336 0.0
C340 C 0.40332 0.08899 0.91617 0.0
C341 C 0.37382 0.09491 0.89192 0.0
C342 C 0.34628 0.0627 0.88515 0.0
C343 C 0.34858 0.02489 0.90064 0.0
C344 C 0.31295 0.99678 0.89114 0.0
C345 C 0.32901 0.95808 0.87309 0.0
C346 C 0.28655 0.98471 0.92061 0.0
C347 C 0.28926 0.02534 0.86895 0.0
C348 C 0.30918 0.06306 0.86561 0.0
C349 C 0.29155 0.09563 0.84848 0.0
C350 C 0.25275 0.08939 0.83416 0.0
C351 C 0.23182 0.05077 0.83688 0.0
C352 C 0.25075 0.01837 0.85446 0.0
H353 H 0.07325 0.34106 0.46732 0.0
H354 H 1.00916 0.43853 0.41565 0.0
H355 H 0.99843 0.38989 0.36985 0.0
H356 H 0.12416 0.29294 0.39847 0.0
H357 H 0.11789 0.24119 0.41412 0.0
H358 H 0.12263 0.2847 0.4413 0.0
H359 H 0.05317 0.26426 0.46867 0.0
H360 H 0.04804 0.22089 0.44145 0.0
H361 H 1.00711 0.25904 0.44457 0.0
H362 H 0.99132 0.3283 0.33127 0.0
H363 H 0.99042 0.26078 0.3026 0.0
H364 H 0.05929 0.20466 0.38062 0.0
C365 C 0.05697 0.35228 0.44636 0.0
C366 C 0.04163 0.39344 0.44509 0.0
C367 C 0.02123 0.40714 0.41701 0.0
C368 C 0.01488 0.37969 0.39102 0.0
C369 C 0.02945 0.33889 0.39352 0.0
C370 C 0.05037 0.32545 0.42045 0.0
C371 C 0.06207 0.27998 0.41784 0.0
C372 C 0.1095 0.27439 0.41793 0.0
C373 C 0.04135 0.25456 0.44472 0.0
C374 C 0.04401 0.26953 0.38535 0.0
C375 C 0.02546 0.30386 0.37157 0.0
C376 C 1.0061 0.30137 0.34175 0.0
C377 C 1.00589 0.2629 0.32559 0.0
C378 C 0.02486 0.22734 0.3393 0.0
C379 C 0.04412 0.23101 0.3696 0.0
H380 H 0.67834 0.09469 0.94251 0.0
H381 H 0.61627 0.97777 0.92476 0.0
H382 H 0.66614 0.9621 0.88057 0.0
H383 H 0.70908 0.11683 0.85677 0.0
H384 H 0.75808 0.1383 0.86927 0.0
H385 H 0.71313 0.14304 0.89506 0.0
H386 H 0.75423 0.10844 0.94116 0.0
H387 H 0.79896 0.10273 0.91544 0.0
H388 H 0.77701 0.05779 0.93478 0.0
H389 H 0.72932 0.95479 0.84476 0.0
H390 H 0.79743 0.95798 0.81764 0.0
H391 H 0.81699 0.08132 0.85779 0.0
C392 C 0.67428 0.06672 0.92825 0.0
C393 C 0.64307 0.03784 0.93615 0.0
C394 C 0.63942 1.00063 0.91822 0.0
C395 C 0.66772 0.99147 0.89331 0.0
C396 C 0.69921 0.02002 0.88676 0.0
C397 C 0.7022 0.05723 0.90341 0.0
C398 C 0.74092 0.08086 0.89393 0.0
C399 C 0.72961 0.1222 0.87779 0.0
C400 C 0.76944 0.08784 0.92306 0.0
C401 C 0.76003 0.05061 0.87008 0.0
C402 C 0.73546 0.01583 0.8661 0.0
C403 C 0.74829 0.98235 0.84708 0.0
C404 C 0.78709 0.98455 0.83165 0.0
C405 C 0.81278 0.02006 0.83523 0.0
C406 C 0.79854 0.05356 0.85457 0.0
H407 H 0.04442 0.70925 0.47926 0.0
H408 H 1.00883 0.60535 0.41824 0.0
H409 H 1.00007 0.65387 0.37272 0.0
H410 H 0.96933 0.78198 0.44761 0.0
H411 H 1.00404 0.82554 0.45165 0.0
H412 H 1.00797 0.7823 0.4788 0.0
H413 H 0.0856 0.77334 0.46349 0.0
H414 H 0.08191 0.81636 0.43617 0.0
H415 H 0.10001 0.76649 0.42183 0.0
H416 H 0.99816 0.71454 0.33336 0.0
H417 H 0.9998 0.78185 0.30461 0.0
H418 H 0.03074 0.84518 0.3935 0.0
C419 C 0.03372 0.69643 0.45667 0.0
C420 C 0.0268 0.65326 0.45263 0.0
C421 C 0.01454 0.63816 0.42203 0.0
C422 C 1.00926 0.66554 0.39608 0.0
C423 C 0.01601 0.70791 0.4012 0.0
C424 C 0.0276 0.7232 0.43089 0.0
C425 C 0.03282 0.76991 0.43051 0.0
C426 C 1.00168 0.79118 0.4535 0.0
C427 C 0.07775 0.78222 0.43846 0.0
C428 C 0.02265 0.77876 0.3958 0.0
C429 C 0.01336 0.74263 0.37914 0.0
C430 C 1.00492 0.74299 0.34629 0.0
C431 C 1.00602 0.78123 0.33017 0.0
C432 C 0.01496 0.81851 0.34701 0.0
C433 C 0.02311 0.81716 0.38024 0.0
loop_
_geom_bond_atom_site_label_1
_geom_bond_atom_site_label_2
_geom_bond_distance
_geom_bond_site_symmetry_2
_ccdc_geom_bond_type
H0 C8 0.930 . S
H1 C11 0.930 . S
H2 C13 0.930 1_565 S
H3 C14 0.970 . S
H4 C14 0.970 1_556 S
H5 C16 0.930 . S
H6 C18 0.930 1_565 S
H7 C20 0.930 . S
C8 H0 0.930 . S
C8 C9 1.382 . S
C8 C10 1.426 . S
C9 C8 1.382 . S
C9 C13 1.389 . S
C10 C8 1.426 . S
C10 C11 1.375 1_554 S
C10 C14 1.532 . S
C11 H1 0.930 . S
C11 C10 1.375 1_556 S
C11 C12 1.416 . S
C12 C11 1.416 . S
C12 C13 1.371 1_556 S
C13 H2 0.930 1_545 S
C13 C9 1.389 . S
C13 C12 1.371 1_554 S
C14 H3 0.970 . S
C14 H4 0.970 1_554 S
C14 C10 1.532 . S
C14 C15 1.499 . S
C15 C14 1.499 . S
C15 C16 1.370 . S
C15 C20 1.415 1_554 S
C16 H5 0.930 . S
C16 C15 1.370 . S
C16 C17 1.407 . S
C17 C16 1.407 . S
C17 C18 1.365 . S
C18 H6 0.930 1_545 S
C18 C17 1.365 . S
C18 C19 1.393 1_554 S
C19 C18 1.393 1_556 S
C19 C20 1.387 . S
C20 H7 0.930 . S
C20 C15 1.415 1_556 S
C20 C19 1.387 . S
H21 C29 0.930 . S
H22 C32 0.930 . S
H23 C34 0.930 1_655 S
H24 C35 0.970 . S
H25 C35 0.970 . S
H26 C37 0.930 . S
H27 C39 0.930 1_655 S
H28 C41 0.930 . S
C29 H21 0.930 . S
C29 C30 1.382 . S
C29 C31 1.426 . S
C30 C29 1.382 . S
C30 C34 1.389 . S
C31 C29 1.426 . S
C31 C32 1.375 . S
C31 C35 1.532 . S
C32 H22 0.930 . S
C32 C31 1.375 . S
C32 C33 1.416 . S
C33 C32 1.416 . S
C33 C34 1.371 . S
C34 H23 0.930 1_455 S
C34 C30 1.389 . S
C34 C33 1.371 . S
C35 H24 0.970 . S
C35 H25 0.970 . S
C35 C31 1.532 . S
C35 C36 1.499 . S
C36 C35 1.499 . S
C36 C37 1.370 . S
C36 C41 1.415 . S
C37 H26 0.930 . S
C37 C36 1.370 . S
C37 C38 1.407 . S
C38 C37 1.407 . S
C38 C39 1.365 . S
C39 H27 0.930 1_455 S
C39 C38 1.365 . S
C39 C40 1.393 . S
C40 C39 1.393 . S
C40 C41 1.387 . S
C41 H28 0.930 . S
C41 C36 1.415 . S
C41 C40 1.387 . S
Li42 N59 1.990 . S
Li42 O102 1.956 . S
Li42 O103 1.970 1_455 S
Li42 O104 1.961 . S
Li43 N67 1.990 . S
Li43 O102 1.970 1_565 S
Li43 O103 1.956 1_465 S
Li43 O105 1.961 . S
Li44 N89 1.990 . S
Li44 O102 1.961 . S
Li44 O104 1.956 . S
Li44 O105 1.970 1_545 S
Li45 N95 1.990 . S
Li45 O103 1.961 . S
Li45 O104 1.970 1_655 S
Li45 O105 1.956 1_645 S
C46 C48 1.348 1_545 S
C46 C49 1.356 . S
C46 O102 1.325 . S
N47 C50 1.314 1_545 S
N47 C51 1.279 . S
C48 C46 1.348 1_565 S
C48 C50 1.353 . S
C48 H106 0.929 . S
C49 C46 1.356 . S
C49 C51 1.358 . S
C49 H107 0.930 . S
C50 N47 1.314 1_565 S
C50 C48 1.353 . S
C50 H108 0.930 . S
C51 N47 1.279 . S
C51 C49 1.358 . S
C51 H109 0.930 . S
C52 C55 1.348 . S
C52 C56 1.356 1_545 S
C52 O103 1.325 . S
C53 N54 1.279 1_565 S
C53 C56 1.358 . S
C53 H110 0.930 . S
N54 C53 1.279 1_545 S
N54 C57 1.314 . S
C55 C52 1.348 . S
C55 C57 1.353 . S
C55 H111 0.929 . S
C56 C52 1.356 1_565 S
C56 C53 1.358 . S
C56 H112 0.930 . S
C57 N54 1.314 . S
C57 C55 1.353 . S
C57 H113 0.930 . S
C58 N59 1.314 1_655 S
C58 C63 1.353 . S
C58 H64 0.930 . S
N59 Li42 1.990 . S
N59 C58 1.314 1_455 S
N59 C61 1.279 . S
C60 C61 1.358 . S
C60 C62 1.356 . S
C60 H114 0.930 . S
C61 N59 1.279 . S
C61 C60 1.358 . S
C61 H65 0.930 . S
C62 C60 1.356 . S
C62 C63 1.348 1_455 S
C63 C58 1.353 . S
C63 C62 1.348 1_655 S
C63 H115 0.929 . S
H64 C58 0.930 . S
H65 C61 0.930 . S
C66 N67 1.314 . S
C66 C68 1.353 . S
C66 H72 0.930 . S
N67 Li43 1.990 . S
N67 C66 1.314 . S
N67 C70 1.279 1_455 S
C68 C66 1.353 . S
C68 C71 1.348 . S
C68 H116 0.929 . S
C69 C70 1.358 . S
C69 C71 1.356 1_655 S
C69 H117 0.930 . S
C70 N67 1.279 1_655 S
C70 C69 1.358 . S
C70 H73 0.930 . S
C71 C68 1.348 . S
C71 C69 1.356 1_455 S
H72 C66 0.930 . S
H73 C70 0.930 . S
C74 C76 1.348 1_455 S
C74 C77 1.356 . S
C74 O104 1.325 . S
N75 C78 1.314 1_455 S
N75 C79 1.279 . S
C76 C74 1.348 1_655 S
C76 C78 1.353 . S
C76 H118 0.929 . S
C77 C74 1.356 . S
C77 C79 1.358 . S
C77 H119 0.930 . S
C78 N75 1.314 1_655 S
C78 C76 1.353 . S
C78 H120 0.930 . S
C79 N75 1.279 . S
C79 C77 1.358 . S
C79 H121 0.930 . S
C80 C81 1.348 . S
C80 C82 1.356 1_455 S
C80 O105 1.325 . S
C81 C80 1.348 . S
C81 C83 1.353 . S
C81 H122 0.929 . S
C82 C80 1.356 1_655 S
C82 C84 1.358 . S
C82 H123 0.930 . S
C83 C81 1.353 . S
C83 N85 1.314 . S
C83 H124 0.930 . S
C84 C82 1.358 . S
C84 N85 1.279 1_655 S
C84 H125 0.930 . S
N85 C83 1.314 . S
N85 C84 1.279 1_455 S
C86 C88 1.353 . S
C86 N89 1.314 1_565 S
C86 H92 0.930 . S
C87 N89 1.279 . S
C87 C90 1.358 . S
C87 H93 0.930 . S
C88 C86 1.353 . S
C88 C91 1.348 1_565 S
C88 H126 0.929 . S
N89 Li44 1.990 . S
N89 C86 1.314 1_545 S
N89 C87 1.279 . S
C90 C87 1.358 . S
C90 C91 1.356 . S
C90 H127 0.930 . S
C91 C88 1.348 1_545 S
C91 C90 1.356 . S
H92 C86 0.930 . S
H93 C87 0.930 . S
C94 N95 1.314 . S
C94 C96 1.353 . S
C94 H100 0.930 . S
N95 Li45 1.990 . S
N95 C94 1.314 . S
N95 C98 1.279 1_545 S
C96 C94 1.353 . S
C96 C99 1.348 . S
C96 H128 0.929 . S
C97 C98 1.358 . S
C97 C99 1.356 1_565 S
C97 H129 0.930 . S
C98 N95 1.279 1_565 S
C98 C97 1.358 . S
C98 H101 0.930 . S
C99 C96 1.348 . S
C99 C97 1.356 1_545 S
H100 C94 0.930 . S
H101 C98 0.930 . S
O102 Li42 1.956 . S
O102 Li43 1.970 1_545 S
O102 Li44 1.961 . S
O102 C46 1.325 . S
O103 Li42 1.970 1_655 S
O103 Li43 1.956 1_645 S
O103 Li45 1.961 . S
O103 C52 1.325 . S
O104 Li42 1.961 . S
O104 Li44 1.956 . S
O104 Li45 1.970 1_455 S
O104 C74 1.325 . S
O105 Li43 1.961 . S
O105 Li44 1.970 1_565 S
O105 Li45 1.956 1_465 S
O105 C80 1.325 . S
H106 C48 0.929 . S
H107 C49 0.930 . S
H108 C50 0.930 . S
H109 C51 0.930 . S
H110 C53 0.930 . S
H111 C55 0.929 . S
H112 C56 0.930 . S
H113 C57 0.930 . S
H114 C60 0.930 . S
H115 C63 0.929 . S
H116 C68 0.929 . S
H117 C69 0.930 . S
H118 C76 0.929 . S
H119 C77 0.930 . S
H120 C78 0.930 . S
H121 C79 0.930 . S
H122 C81 0.929 . S
H123 C82 0.930 . S
H124 C83 0.930 . S
H125 C84 0.930 . S
H126 C88 0.929 . S
H127 C90 0.930 . S
H128 C96 0.929 . S
H129 C97 0.930 . S
Li130 N147 1.990 . S
Li130 O190 1.956 1_655 S
Li130 O191 1.970 1_645 S
Li130 O192 1.961 . S
Li131 N155 1.990 . S
Li131 O190 1.970 . S
Li131 O191 1.956 1_545 S
Li131 O193 1.961 . S
Li132 N177 1.990 . S
Li132 O190 1.961 . S
Li132 O192 1.956 1_455 S
Li132 O193 1.970 . S
Li133 N183 1.990 . S
Li133 O191 1.961 . S
Li133 O192 1.970 1_465 S
Li133 O193 1.956 1_565 S
C134 C136 1.348 . S
C134 C137 1.356 1_455 S
C134 O190 1.325 . S
N135 C138 1.314 . S
N135 C139 1.279 1_455 S
C136 C134 1.348 . S
C136 C138 1.353 . S
C136 H194 0.929 . S
C137 C134 1.356 1_655 S
C137 C139 1.358 . S
C137 H195 0.930 . S
C138 N135 1.314 . S
C138 C136 1.353 . S
C138 H196 0.930 . S
C139 N135 1.279 1_655 S
C139 C137 1.358 . S
C139 H197 0.930 . S
C140 C143 1.348 1_455 S
C140 C144 1.356 . S
C140 O191 1.325 . S
C141 N142 1.279 . S
C141 C144 1.358 . S
C141 H198 0.930 . S
N142 C141 1.279 . S
N142 C145 1.314 1_455 S
C143 C140 1.348 1_655 S
C143 C145 1.353 . S
C143 H199 0.929 . S
C144 C140 1.356 . S
C144 C141 1.358 . S
C144 H200 0.930 . S
C145 N142 1.314 1_655 S
C145 C143 1.353 . S
C145 H201 0.930 . S
C146 N147 1.314 1_565 S
C146 C151 1.353 . S
C146 H152 0.930 . S
N147 Li130 1.990 . S
N147 C146 1.314 1_545 S
N147 C149 1.279 . S
C148 C149 1.358 . S
C148 C150 1.356 . S
C148 H202 0.930 . S
C149 N147 1.279 . S
C149 C148 1.358 . S
C149 H153 0.930 . S
C150 C148 1.356 . S
C150 C151 1.348 1_545 S
C151 C146 1.353 . S
C151 C150 1.348 1_565 S
C151 H203 0.929 . S
H152 C146 0.930 . S
H153 C149 0.930 . S
C154 N155 1.314 . S
C154 C156 1.353 . S
C154 H160 0.930 . S
N155 Li131 1.990 . S
N155 C154 1.314 . S
N155 C158 1.279 1_545 S
C156 C154 1.353 . S
C156 C159 1.348 . S
C156 H204 0.929 . S
C157 C158 1.358 . S
C157 C159 1.356 1_565 S
C157 H205 0.930 . S
C158 N155 1.279 1_565 S
C158 C157 1.358 . S
C158 H161 0.930 . S
C159 C156 1.348 . S
C159 C157 1.356 1_545 S
H160 C154 0.930 . S
H161 C158 0.930 . S
C162 C164 1.348 1_545 S
C162 C165 1.356 . S
C162 O192 1.325 . S
N163 C166 1.314 1_545 S
N163 C167 1.279 . S
C164 C162 1.348 1_565 S
C164 C166 1.353 . S
C164 H206 0.929 . S
C165 C162 1.356 . S
C165 C167 1.358 . S
C165 H207 0.930 . S
C166 N163 1.314 1_565 S
C166 C164 1.353 . S
C166 H208 0.930 . S
C167 N163 1.279 . S
C167 C165 1.358 . S
C167 H209 0.930 . S
C168 C169 1.348 . S
C168 C170 1.356 1_545 S
C168 O193 1.325 . S
C169 C168 1.348 . S
C169 C171 1.353 . S
C169 H210 0.929 . S
C170 C168 1.356 1_565 S
C170 C172 1.358 . S
C170 H211 0.930 . S
C171 C169 1.353 . S
C171 N173 1.314 . S
C171 H212 0.930 . S
C172 C170 1.358 . S
C172 N173 1.279 1_565 S
C172 H213 0.930 . S
N173 C171 1.314 . S
N173 C172 1.279 1_545 S
C174 C176 1.353 . S
C174 N177 1.314 . S
C174 H180 0.930 . S
C175 N177 1.279 1_655 S
C175 C178 1.358 . S
C175 H181 0.930 . S
C176 C174 1.353 . S
C176 C179 1.348 . S
C176 H214 0.929 . S
N177 Li132 1.990 . S
N177 C174 1.314 . S
N177 C175 1.279 1_455 S
C178 C175 1.358 . S
C178 C179 1.356 1_655 S
C178 H215 0.930 . S
C179 C176 1.348 . S
C179 C178 1.356 1_455 S
H180 C174 0.930 . S
H181 C175 0.930 . S
C182 N183 1.314 1_655 S
C182 C184 1.353 . S
C182 H188 0.930 . S
N183 Li133 1.990 . S
N183 C182 1.314 1_455 S
N183 C186 1.279 . S
C184 C182 1.353 . S
C184 C187 1.348 1_655 S
C184 H216 0.929 . S
C185 C186 1.358 . S
C185 C187 1.356 . S
C185 H217 0.930 . S
C186 N183 1.279 . S
C186 C185 1.358 . S
C186 H189 0.930 . S
C187 C184 1.348 1_455 S
C187 C185 1.356 . S
H188 C182 0.930 . S
H189 C186 0.930 . S
O190 Li130 1.956 1_455 S
O190 Li131 1.970 . S
O190 Li132 1.961 . S
O190 C134 1.325 . S
O191 Li130 1.970 1_465 S
O191 Li131 1.956 1_565 S
O191 Li133 1.961 . S
O191 C140 1.325 . S
O192 Li130 1.961 . S
O192 Li132 1.956 1_655 S
O192 Li133 1.970 1_645 S
O192 C162 1.325 . S
O193 Li131 1.961 . S
O193 Li132 1.970 . S
O193 Li133 1.956 1_545 S
O193 C168 1.325 . S
H194 C136 0.929 . S
H195 C137 0.930 . S
H196 C138 0.930 . S
H197 C139 0.930 . S
H198 C141 0.930 . S
H199 C143 0.929 . S
H200 C144 0.930 . S
H201 C145 0.930 . S
H202 C148 0.930 . S
H203 C151 0.929 . S
H204 C156 0.929 . S
H205 C157 0.930 . S
H206 C164 0.929 . S
H207 C165 0.930 . S
H208 C166 0.930 . S
H209 C167 0.930 . S
H210 C169 0.929 . S
H211 C170 0.930 . S
H212 C171 0.930 . S
H213 C172 0.930 . S
H214 C176 0.929 . S
H215 C178 0.930 . S
H216 C184 0.929 . S
H217 C185 0.930 . S
H218 C230 0.930 . S
H219 C232 0.930 . S
H220 C233 0.930 . S
H221 C237 0.959 . S
H222 C237 0.959 . S
H223 C237 0.961 . S
H224 C238 0.960 . S
H225 C238 0.961 . S
H226 C238 0.959 . S
H227 C241 0.929 . S
H228 C242 0.931 . S
H229 C244 0.930 . S
C230 H218 0.930 . S
C230 C231 1.399 . S
C230 C235 1.399 . S
C231 C230 1.399 . S
C231 C232 1.376 1_545 S
C232 H219 0.930 . S
C232 C231 1.376 1_565 S
C232 C233 1.388 . S
C233 H220 0.930 . S
C233 C232 1.388 . S
C233 C234 1.390 1_565 S
C234 C233 1.390 1_545 S
C234 C235 1.394 . S
C234 C240 1.465 . S
C235 C230 1.399 . S
C235 C234 1.394 . S
C235 C236 1.516 . S
C236 C235 1.516 . S
C236 C237 1.502 . S
C236 C238 1.561 . S
C236 C239 1.526 . S
C237 H221 0.959 . S
C237 H222 0.959 . S
C237 H223 0.961 . S
C237 C236 1.502 . S
C238 H224 0.960 . S
C238 H225 0.961 . S
C238 H226 0.959 . S
C238 C236 1.561 . S
C239 C236 1.526 . S
C239 C240 1.396 . S
C239 C244 1.390 . S
C240 C234 1.465 . S
C240 C239 1.396 . S
C240 C241 1.399 1_545 S
C241 H227 0.929 . S
C241 C240 1.399 1_565 S
C241 C242 1.385 . S
C242 H228 0.931 . S
C242 C241 1.385 . S
C242 C243 1.389 1_565 S
C243 C242 1.389 1_545 S
C243 C244 1.387 . S
C244 H229 0.930 . S
C244 C239 1.390 . S
C244 C243 1.387 . S
H245 C257 0.930 1_655 S
H246 C259 0.930 . S
H247 C260 0.930 . S
H248 C264 0.959 . S
H249 C264 0.959 . S
H250 C264 0.961 . S
H251 C265 0.960 . S
H252 C265 0.961 . S
H253 C265 0.959 . S
H254 C268 0.929 . S
H255 C269 0.931 . S
H256 C271 0.930 1_655 S
C257 H245 0.930 1_455 S
C257 C258 1.399 . S
C257 C262 1.399 . S
C258 C257 1.399 . S
C258 C259 1.376 . S
C259 H246 0.930 . S
C259 C258 1.376 . S
C259 C260 1.388 . S
C260 H247 0.930 . S
C260 C259 1.388 . S
C260 C261 1.390 . S
C261 C260 1.390 . S
C261 C262 1.394 . S
C261 C267 1.465 . S
C262 C257 1.399 . S
C262 C261 1.394 . S
C262 C263 1.516 1_455 S
C263 C262 1.516 1_655 S
C263 C264 1.502 . S
C263 C265 1.561 1_655 S
C263 C266 1.526 1_655 S
C264 H248 0.959 . S
C264 H249 0.959 . S
C264 H250 0.961 . S
C264 C263 1.502 . S
C265 H251 0.960 . S
C265 H252 0.961 . S
C265 H253 0.959 . S
C265 C263 1.561 1_455 S
C266 C263 1.526 1_455 S
C266 C267 1.396 . S
C266 C271 1.390 . S
C267 C261 1.465 . S
C267 C266 1.396 . S
C267 C268 1.399 . S
C268 H254 0.929 . S
C268 C267 1.399 . S
C268 C269 1.385 . S
C269 H255 0.931 . S
C269 C268 1.385 . S
C269 C270 1.389 . S
C270 C269 1.389 . S
C270 C271 1.387 . S
C271 H256 0.930 1_455 S
C271 C266 1.390 . S
C271 C270 1.387 . S
H272 C284 0.930 . S
H273 C286 0.930 . S
H274 C287 0.930 . S
H275 C291 0.959 . S
H276 C291 0.959 . S
H277 C291 0.961 . S
H278 C292 0.960 . S
H279 C292 0.961 . S
H280 C292 0.959 . S
H281 C295 0.929 . S
H282 C296 0.931 . S
H283 C298 0.930 . S
C284 H272 0.930 . S
C284 C285 1.399 . S
C284 C289 1.399 . S
C285 C284 1.399 . S
C285 C286 1.376 1_545 S
C286 H273 0.930 . S
C286 C285 1.376 1_565 S
C286 C287 1.388 . S
C287 H274 0.930 . S
C287 C286 1.388 . S
C287 C288 1.390 1_565 S
C288 C287 1.390 1_545 S
C288 C289 1.394 . S
C288 C294 1.466 . S
C289 C284 1.399 . S
C289 C288 1.394 . S
C289 C290 1.516 . S
C290 C289 1.516 . S
C290 C291 1.502 . S
C290 C292 1.561 . S
C290 C293 1.526 . S
C291 H275 0.959 . S
C291 H276 0.959 . S
C291 H277 0.961 . S
C291 C290 1.502 . S
C292 H278 0.960 . S
C292 H279 0.961 . S
C292 H280 0.959 . S
C292 C290 1.561 . S
C293 C290 1.526 . S
C293 C294 1.416 . S
C293 C298 1.390 . S
C294 C288 1.466 . S
C294 C293 1.416 . S
C294 C295 1.383 1_545 S
C295 H281 0.929 . S
C295 C294 1.383 1_565 S
C295 C296 1.385 . S
C296 H282 0.931 . S
C296 C295 1.385 . S
C296 C297 1.389 1_565 S
C297 C296 1.389 1_545 S
C297 C298 1.387 . S
C298 H283 0.930 . S
C298 C293 1.390 . S
C298 C297 1.387 . S
H299 C311 0.930 . S
H300 C313 0.930 . S
H301 C314 0.930 . S
H302 C318 0.959 . S
H303 C318 0.959 . S
H304 C318 0.961 . S
H305 C319 0.960 . S
H306 C319 0.961 . S
H307 C319 0.959 . S
H308 C322 0.929 . S
H309 C323 0.931 . S
H310 C325 0.930 . S
C311 H299 0.930 . S
C311 C312 1.399 1_655 S
C311 C316 1.399 . S
C312 C311 1.399 1_455 S
C312 C313 1.376 . S
C313 H300 0.930 . S
C313 C312 1.376 . S
C313 C314 1.388 . S
C314 H301 0.930 . S
C314 C313 1.388 . S
C314 C315 1.390 . S
C315 C314 1.390 . S
C315 C316 1.394 1_455 S
C315 C321 1.465 . S
C316 C311 1.399 . S
C316 C315 1.394 1_655 S
C316 C317 1.516 . S
C317 C316 1.516 . S
C317 C318 1.502 . S
C317 C319 1.561 . S
C317 C320 1.526 . S
C318 H302 0.959 . S
C318 H303 0.959 . S
C318 H304 0.961 . S
C318 C317 1.502 . S
C319 H305 0.960 . S
C319 H306 0.961 . S
C319 H307 0.959 . S
C319 C317 1.561 . S
C320 C317 1.526 . S
C320 C321 1.396 1_655 S
C320 C325 1.390 . S
C321 C315 1.465 . S
C321 C320 1.396 1_455 S
C321 C322 1.399 . S
C322 H308 0.929 . S
C322 C321 1.399 . S
C322 C323 1.385 . S
C323 H309 0.931 . S
C323 C322 1.385 . S
C323 C324 1.389 . S
C324 C323 1.389 . S
C324 C325 1.387 1_455 S
C325 H310 0.930 . S
C325 C320 1.390 . S
C325 C324 1.387 1_655 S
H326 C338 0.930 . S
H327 C340 0.930 . S
H328 C341 0.930 . S
H329 C345 0.959 . S
H330 C345 0.959 . S
H331 C345 0.961 . S
H332 C346 0.960 . S
H333 C346 0.961 . S
H334 C346 0.959 . S
H335 C349 0.929 . S
H336 C350 0.931 . S
H337 C352 0.930 . S
C338 H326 0.930 . S
C338 C339 1.399 1_565 S
C338 C343 1.403 . S
C339 C338 1.399 1_545 S
C339 C340 1.376 . S
C340 H327 0.930 . S
C340 C339 1.376 . S
C340 C341 1.388 . S
C341 H328 0.930 . S
C341 C340 1.388 . S
C341 C342 1.390 . S
C342 C341 1.390 . S
C342 C343 1.372 1_545 S
C342 C348 1.465 . S
C343 C338 1.403 . S
C343 C342 1.372 1_565 S
C343 C344 1.532 . S
C344 C343 1.532 . S
C344 C345 1.502 . S
C344 C346 1.561 . S
C344 C347 1.526 . S
C345 H329 0.959 . S
C345 H330 0.959 . S
C345 H331 0.961 . S
C345 C344 1.502 . S
C346 H332 0.960 . S
C346 H333 0.961 . S
C346 H334 0.959 . S
C346 C344 1.561 . S
C347 C344 1.526 . S
C347 C348 1.396 1_565 S
C347 C352 1.390 . S
C348 C342 1.465 . S
C348 C347 1.396 1_545 S
C348 C349 1.399 . S
C349 H335 0.929 . S
C349 C348 1.399 . S
C349 C350 1.385 . S
C350 H336 0.931 . S
C350 C349 1.385 . S
C350 C351 1.389 . S
C351 C350 1.389 . S
C351 C352 1.387 1_545 S
C352 H337 0.930 . S
C352 C347 1.390 . S
C352 C351 1.387 1_565 S
H353 C365 0.930 . S
H354 C367 0.930 . S
H355 C368 0.930 . S
H356 C372 0.959 . S
H357 C372 0.959 . S
H358 C372 0.961 . S
H359 C373 0.960 . S
H360 C373 0.961 . S
H361 C373 0.959 . S
H362 C376 0.929 . S
H363 C377 0.931 . S
H364 C379 0.930 . S
C365 H353 0.930 . S
C365 C366 1.399 . S
C365 C370 1.399 . S
C366 C365 1.399 . S
C366 C367 1.376 1_455 S
C367 H354 0.930 . S
C367 C366 1.376 1_655 S
C367 C368 1.388 . S
C368 H355 0.930 . S
C368 C367 1.388 . S
C368 C369 1.390 . S
C369 C368 1.390 . S
C369 C370 1.394 1_655 S
C369 C375 1.465 . S
C370 C365 1.399 . S
C370 C369 1.394 1_455 S
C370 C371 1.516 . S
C371 C370 1.516 . S
C371 C372 1.502 . S
C371 C373 1.561 . S
C371 C374 1.526 . S
C372 H356 0.959 . S
C372 H357 0.959 . S
C372 H358 0.961 . S
C372 C371 1.502 . S
C373 H359 0.960 . S
C373 H360 0.961 . S
C373 H361 0.959 . S
C373 C371 1.561 . S
C374 C371 1.526 . S
C374 C375 1.396 1_455 S
C374 C379 1.390 . S
C375 C369 1.465 . S
C375 C374 1.396 1_655 S
C375 C376 1.399 . S
C376 H362 0.929 . S
C376 C375 1.399 . S
C376 C377 1.385 . S
C377 H363 0.931 . S
C377 C376 1.385 . S
C377 C378 1.389 1_655 S
C378 C377 1.389 1_455 S
C378 C379 1.387 . S
C379 H364 0.930 . S
C379 C374 1.390 . S
C379 C378 1.387 . S
H380 C392 0.930 . S
H381 C394 0.930 . S
H382 C395 0.930 . S
H383 C399 0.959 . S
H384 C399 0.959 . S
H385 C399 0.961 . S
H386 C400 0.960 . S
H387 C400 0.961 . S
H388 C400 0.959 . S
H389 C403 0.929 . S
H390 C404 0.931 . S
H391 C406 0.930 . S
C392 H380 0.930 . S
C392 C393 1.399 . S
C392 C397 1.399 . S
C393 C392 1.399 . S
C393 C394 1.376 1_545 S
C394 H381 0.930 . S
C394 C393 1.376 1_565 S
C394 C395 1.388 . S
C395 H382 0.930 . S
C395 C394 1.388 . S
C395 C396 1.390 1_565 S
C396 C395 1.390 1_545 S
C396 C397 1.394 . S
C396 C402 1.465 . S
C397 C392 1.399 . S
C397 C396 1.394 . S
C397 C398 1.516 . S
C398 C397 1.516 . S
C398 C399 1.502 . S
C398 C400 1.561 . S
C398 C401 1.526 . S
C399 H383 0.959 . S
C399 H384 0.959 . S
C399 H385 0.961 . S
C399 C398 1.502 . S
C400 H386 0.960 . S
C400 H387 0.961 . S
C400 H388 0.959 . S
C400 C398 1.561 . S
C401 C398 1.526 . S
C401 C402 1.396 . S
C401 C406 1.390 . S
C402 C396 1.465 . S
C402 C401 1.396 . S
C402 C403 1.399 1_545 S
C403 H389 0.929 . S
C403 C402 1.399 1_565 S
C403 C404 1.385 . S
C404 H390 0.931 . S
C404 C403 1.385 . S
C404 C405 1.389 1_565 S
C405 C404 1.389 1_545 S
C405 C406 1.387 . S
C406 H391 0.930 . S
C406 C401 1.390 . S
C406 C405 1.387 . S
H407 C419 0.933 . S
H408 C421 0.930 . S
H409 C422 0.930 . S
H410 C426 0.959 . S
H411 C426 0.959 . S
H412 C426 0.961 . S
H413 C427 0.960 . S
H414 C427 0.961 . S
H415 C427 0.959 . S
H416 C430 0.929 . S
H417 C431 0.931 . S
H418 C433 0.936 . S
C419 H407 0.933 . S
C419 C420 1.399 . S
C419 C424 1.399 . S
C420 C419 1.399 . S
C420 C421 1.376 . S
C421 H408 0.930 . S
C421 C420 1.376 . S
C421 C422 1.388 . S
C422 H409 0.930 . S
C422 C421 1.388 . S
C422 C423 1.390 . S
C423 C422 1.390 . S
C423 C424 1.394 . S
C423 C429 1.465 . S
C424 C419 1.399 . S
C424 C423 1.394 . S
C424 C425 1.516 . S
C425 C424 1.516 . S
C425 C426 1.502 1_455 S
C425 C427 1.561 . S
C425 C428 1.526 . S
C426 H410 0.959 . S
C426 H411 0.959 . S
C426 H412 0.961 . S
C426 C425 1.502 1_655 S
C427 H413 0.960 . S
C427 H414 0.961 . S
C427 H415 0.959 . S
C427 C425 1.561 . S
C428 C425 1.526 . S
C428 C429 1.396 . S
C428 C433 1.390 . S
C429 C423 1.465 . S
C429 C428 1.396 . S
C429 C430 1.399 . S
C430 H416 0.929 . S
C430 C429 1.399 . S
C430 C431 1.385 . S
C431 H417 0.931 . S
C431 C430 1.385 . S
C431 C432 1.389 . S
C432 C431 1.389 . S
C432 C433 1.387 . S
C433 H418 0.936 . S
C433 C428 1.390 . S
C433 C432 1.387 . S
C243 C91 1.559 . S
C231 C17 1.426 . S
C270 C179 1.539 . S
C258 C40 1.475 . S
C297 C99 1.550 . S
C285 C9 1.517 . S
C324 C187 1.544 . S
C312 C33 1.421 . S
C351 C159 1.547 . S
C339 C19 1.431 . S
C378 C62 1.552 . S
C366 C38 1.483 . S
C405 C150 1.552 . S
C393 C12 1.412 . S
C420 C30 1.486 . S
C432 C71 1.550 . S
