# Generated by pormake.
# Topology eea, (3,6)-cn, num edge types: 1
# Building blocks:
#     Node 0, Type 0, BuildingBlock: MIDCAF_clean_linker_0, # of connection points: 3
#     Node 1, Type 0, BuildingBlock: MIDCAF_clean_linker_0, # of connection points: 3
#     Node 2, Type 0, BuildingBlock: MIDCAF_clean_linker_0, # of connection points: 3
#     Node 3, Type 0, BuildingBlock: MIDCAF_clean_linker_0, # of connection points: 3
#     Node 4, Type 0, BuildingBlock: MIDCAF_clean_linker_0, # of connection points: 3
#     Node 5, Type 0, BuildingBlock: MIDCAF_clean_linker_0, # of connection points: 3
#     Node 6, Type 0, BuildingBlock: MIDCAF_clean_linker_0, # of connection points: 3
#     Node 7, Type 0, BuildingBlock: MIDCAF_clean_linker_0, # of connection points: 3
#     Node 8, Type 0, BuildingBlock: MIDCAF_clean_linker_0, # of connection points: 3
#     Node 9, Type 0, BuildingBlock: MIDCAF_clean_linker_0, # of connection points: 3
#     Node 10, Type 0, BuildingBlock: MIDCAF_clean_linker_0, # of connection points: 3
#     Node 11, Type 0, BuildingBlock: MIDCAF_clean_linker_0, # of connection points: 3
#     Node 12, Type 0, BuildingBlock: MIDCAF_clean_linker_0, # of connection points: 3
#     Node 13, Type 0, BuildingBlock: MIDCAF_clean_linker_0, # of connection points: 3
#     Node 14, Type 0, BuildingBlock: MIDCAF_clean_linker_0, # of connection points: 3
#     Node 15, Type 0, BuildingBlock: MIDCAF_clean_linker_0, # of connection points: 3
#     Node 16, Type 0, BuildingBlock: MIDCAF_clean_linker_0, # of connection points: 3
#     Node 17, Type 0, BuildingBlock: MIDCAF_clean_linker_0, # of connection points: 3
#     Node 18, Type 1, BuildingBlock: KUMJIN_clean_sbu_0, # of connection points: 6
#     Node 19, Type 1, BuildingBlock: KUMJIN_clean_sbu_0, # of connection points: 6
#     Node 20, Type 1, BuildingBlock: KUMJIN_clean_sbu_0, # of connection points: 6
#     Node 21, Type 1, BuildingBlock: KUMJIN_clean_sbu_0, # of connection points: 6
#     Node 22, Type 1, BuildingBlock: KUMJIN_clean_sbu_0, # of connection points: 6
#     Node 23, Type 1, BuildingBlock: KUMJIN_clean_sbu_0, # of connection points: 6
#     Node 24, Type 1, BuildingBlock: KUMJIN_clean_sbu_0, # of connection points: 6
#     Node 25, Type 1, BuildingBlock: KUMJIN_clean_sbu_0, # of connection points: 6
#     Node 26, Type 1, BuildingBlock: KUMJIN_clean_sbu_0, # of connection points: 6
#     Edge 27, Type (0, 1), BuildingBlock: MIFKUJ_clean_linker_0, # of connection points: 2
#     Edge 28, Type (0, 1), BuildingBlock: MIFKUJ_clean_linker_0, # of connection points: 2
#     Edge 29, Type (0, 1), BuildingBlock: MIFKUJ_clean_linker_0, # of connection points: 2
#     Edge 30, Type (0, 1), BuildingBlock: MIFKUJ_clean_linker_0, # of connection points: 2
#     Edge 31, Type (0, 1), BuildingBlock: MIFKUJ_clean_linker_0, # of connection points: 2
#     Edge 32, Type (0, 1), BuildingBlock: MIFKUJ_clean_linker_0, # of connection points: 2
#     Edge 33, Type (0, 1), BuildingBlock: MIFKUJ_clean_linker_0, # of connection points: 2
#     Edge 34, Type (0, 1), BuildingBlock: MIFKUJ_clean_linker_0, # of connection points: 2
#     Edge 35, Type (0, 1), BuildingBlock: MIFKUJ_clean_linker_0, # of connection points: 2
#     Edge 36, Type (0, 1), BuildingBlock: MIFKUJ_clean_linker_0, # of connection points: 2
#     Edge 37, Type (0, 1), BuildingBlock: MIFKUJ_clean_linker_0, # of connection points: 2
#     Edge 38, Type (0, 1), BuildingBlock: MIFKUJ_clean_linker_0, # of connection points: 2
#     Edge 39, Type (0, 1), BuildingBlock: MIFKUJ_clean_linker_0, # of connection points: 2
#     Edge 40, Type (0, 1), BuildingBlock: MIFKUJ_clean_linker_0, # of connection points: 2
#     Edge 41, Type (0, 1), BuildingBlock: MIFKUJ_clean_linker_0, # of connection points: 2
#     Edge 42, Type (0, 1), BuildingBlock: MIFKUJ_clean_linker_0, # of connection points: 2
#     Edge 43, Type (0, 1), BuildingBlock: MIFKUJ_clean_linker_0, # of connection points: 2
#     Edge 44, Type (0, 1), BuildingBlock: MIFKUJ_clean_linker_0, # of connection points: 2
#     Edge 45, Type (0, 1), BuildingBlock: MIFKUJ_clean_linker_0, # of connection points: 2
#     Edge 46, Type (0, 1), BuildingBlock: MIFKUJ_clean_linker_0, # of connection points: 2
#     Edge 47, Type (0, 1), BuildingBlock: MIFKUJ_clean_linker_0, # of connection points: 2
#     Edge 48, Type (0, 1), BuildingBlock: MIFKUJ_clean_linker_0, # of connection points: 2
#     Edge 49, Type (0, 1), BuildingBlock: MIFKUJ_clean_linker_0, # of connection points: 2
#     Edge 50, Type (0, 1), BuildingBlock: MIFKUJ_clean_linker_0, # of connection points: 2
#     Edge 51, Type (0, 1), BuildingBlock: MIFKUJ_clean_linker_0, # of connection points: 2
#     Edge 52, Type (0, 1), BuildingBlock: MIFKUJ_clean_linker_0, # of connection points: 2
#     Edge 53, Type (0, 1), BuildingBlock: MIFKUJ_clean_linker_0, # of connection points: 2
#     Edge 54, Type (0, 1), BuildingBlock: MIFKUJ_clean_linker_0, # of connection points: 2
#     Edge 55, Type (0, 1), BuildingBlock: MIFKUJ_clean_linker_0, # of connection points: 2
#     Edge 56, Type (0, 1), BuildingBlock: MIFKUJ_clean_linker_0, # of connection points: 2
#     Edge 57, Type (0, 1), BuildingBlock: MIFKUJ_clean_linker_0, # of connection points: 2
#     Edge 58, Type (0, 1), BuildingBlock: MIFKUJ_clean_linker_0, # of connection points: 2
#     Edge 59, Type (0, 1), BuildingBlock: MIFKUJ_clean_linker_0, # of connection points: 2
#     Edge 60, Type (0, 1), BuildingBlock: MIFKUJ_clean_linker_0, # of connection points: 2
#     Edge 61, Type (0, 1), BuildingBlock: MIFKUJ_clean_linker_0, # of connection points: 2
#     Edge 62, Type (0, 1), BuildingBlock: MIFKUJ_clean_linker_0, # of connection points: 2
#     Edge 63, Type (0, 1), BuildingBlock: MIFKUJ_clean_linker_0, # of connection points: 2
#     Edge 64, Type (0, 1), BuildingBlock: MIFKUJ_clean_linker_0, # of connection points: 2
#     Edge 65, Type (0, 1), BuildingBlock: MIFKUJ_clean_linker_0, # of connection points: 2
#     Edge 66, Type (0, 1), BuildingBlock: MIFKUJ_clean_linker_0, # of connection points: 2
#     Edge 67, Type (0, 1), BuildingBlock: MIFKUJ_clean_linker_0, # of connection points: 2
#     Edge 68, Type (0, 1), BuildingBlock: MIFKUJ_clean_linker_0, # of connection points: 2
#     Edge 69, Type (0, 1), BuildingBlock: MIFKUJ_clean_linker_0, # of connection points: 2
#     Edge 70, Type (0, 1), BuildingBlock: MIFKUJ_clean_linker_0, # of connection points: 2
#     Edge 71, Type (0, 1), BuildingBlock: MIFKUJ_clean_linker_0, # of connection points: 2
#     Edge 72, Type (0, 1), BuildingBlock: MIFKUJ_clean_linker_0, # of connection points: 2
#     Edge 73, Type (0, 1), BuildingBlock: MIFKUJ_clean_linker_0, # of connection points: 2
#     Edge 74, Type (0, 1), BuildingBlock: MIFKUJ_clean_linker_0, # of connection points: 2
#     Edge 75, Type (0, 1), BuildingBlock: MIFKUJ_clean_linker_0, # of connection points: 2
#     Edge 76, Type (0, 1), BuildingBlock: MIFKUJ_clean_linker_0, # of connection points: 2
#     Edge 77, Type (0, 1), BuildingBlock: MIFKUJ_clean_linker_0, # of connection points: 2
#     Edge 78, Type (0, 1), BuildingBlock: MIFKUJ_clean_linker_0, # of connection points: 2
#     Edge 79, Type (0, 1), BuildingBlock: MIFKUJ_clean_linker_0, # of connection points: 2
#     Edge 80, Type (0, 1), BuildingBlock: MIFKUJ_clean_linker_0, # of connection points: 2
# Relax obj value: 0.010
# Max RMSD: 0.099
# Mean RMSD: 0.055
data_MOF--net-eea--node1-KUMJIN_clean_sbu_0--node2-MIDCAF_clean_linker_0--edge1-MIFKUJ_clean_linker_0
_symmetry_space_group_name_H-M    P1
_symmetry_Int_Tables_number       1
_symmetry_cell_setting            triclinic
loop_
_symmetry_equiv_pos_as_xyz
'x, y, z'
_cell_length_a     78.078562
_cell_length_b     79.339061
_cell_length_c     107.27493
_cell_angle_alpha  90.321769
_cell_angle_beta   90.276014
_cell_angle_gamma 119.98204
loop_
_atom_site_label
_atom_site_type_symbol
_atom_site_fract_x
_atom_site_fract_y
_atom_site_fract_z
_atom_type_partial_charge
C0 C 0.23137 0.05315 0.41947 0.0
C1 C 0.22794 0.05086 0.40655 0.0
C2 C 0.22838 0.06613 0.39973 0.0
C3 C 0.23215 0.08335 0.40572 0.0
H4 H 0.22264 0.12964 0.40207 0.0
H5 H 0.2146 0.15203 0.39176 0.0
H6 H 0.24015 0.19243 0.42266 0.0
H7 H 0.24784 0.16985 0.43316 0.0
H8 H 0.26598 0.15891 0.45609 0.0
H9 H 0.28152 0.16629 0.47667 0.0
H10 H 0.27416 0.10863 0.47826 0.0
H11 H 0.25907 0.10136 0.45763 0.0
H12 H 0.23805 0.07175 0.43542 0.0
H13 H 0.23127 0.04165 0.42494 0.0
H14 H 0.22563 0.06468 0.38976 0.0
H15 H 0.2324 0.09484 0.40018 0.0
N16 N 0.23635 0.11707 0.41915 0.0
N17 N 0.24844 0.13796 0.43654 0.0
N18 N 0.24808 0.10823 0.43663 0.0
C19 C 0.24039 0.134 0.42488 0.0
C20 C 0.25233 0.12513 0.44248 0.0
C21 C 0.24014 0.10411 0.42497 0.0
C22 C 0.23588 0.14788 0.41849 0.0
C23 C 0.22659 0.14329 0.4067 0.0
C24 C 0.22206 0.15619 0.40073 0.0
C25 C 0.22674 0.17403 0.40638 0.0
C26 C 0.2361 0.17869 0.41813 0.0
C27 C 0.24061 0.16576 0.42412 0.0
C28 C 0.26132 0.12955 0.45514 0.0
C29 C 0.26764 0.14778 0.46082 0.0
C30 C 0.27648 0.15199 0.47265 0.0
C31 C 0.27915 0.13808 0.47909 0.0
C32 C 0.27264 0.1198 0.47347 0.0
C33 C 0.26387 0.1156 0.46164 0.0
C34 C 0.23579 0.08574 0.41864 0.0
C35 C 0.23537 0.07044 0.42545 0.0
C36 C 0.96295 0.17302 0.41948 0.0
C37 C 0.96502 0.16953 0.40686 0.0
C38 C 0.9501 0.15249 0.40111 0.0
C39 C 0.93346 0.13928 0.40779 0.0
H40 H 0.88627 0.08311 0.40606 0.0
H41 H 0.86211 0.05228 0.39653 0.0
H42 H 0.82344 0.04064 0.42793 0.0
H43 H 0.84774 0.07116 0.43763 0.0
H44 H 0.86587 0.09674 0.46215 0.0
H45 H 0.85861 0.10505 0.48251 0.0
H46 H 0.9046 0.16481 0.47764 0.0
H47 H 0.91232 0.15636 0.45737 0.0
H48 H 0.94508 0.16311 0.43582 0.0
H49 H 0.9741 0.18611 0.42415 0.0
H50 H 0.95136 0.14927 0.39145 0.0
H51 H 0.92229 0.12633 0.40301 0.0
N52 N 0.9001 0.11145 0.42219 0.0
N53 N 0.88052 0.10344 0.44006 0.0
N54 N 0.90996 0.13345 0.43902 0.0
C55 C 0.88364 0.09863 0.42845 0.0
C56 C 0.89357 0.12079 0.44543 0.0
C57 C 0.91337 0.12888 0.4274 0.0
C58 C 0.86902 0.07971 0.42264 0.0
C59 C 0.87265 0.07398 0.41097 0.0
C60 C 0.85872 0.0563 0.40546 0.0
C61 C 0.84078 0.04392 0.41144 0.0
C62 C 0.83721 0.04962 0.42313 0.0
C63 C 0.85114 0.06725 0.42867 0.0
C64 C 0.88963 0.12589 0.45804 0.0
C65 C 0.87451 0.11167 0.4654 0.0
C66 C 0.87025 0.11647 0.47709 0.0
C67 C 0.88088 0.13566 0.48172 0.0
C68 C 0.89623 0.14984 0.47446 0.0
C69 C 0.9006 0.145 0.46278 0.0
C70 C 0.93124 0.14282 0.42038 0.0
C71 C 0.94622 0.15987 0.42615 0.0
C72 C 0.83619 0.78962 0.41746 0.0
C73 C 0.83984 0.79831 0.40564 0.0
C74 C 0.8581 0.80391 0.39997 0.0
C75 C 0.87223 0.80065 0.40588 0.0
H76 H 0.92359 0.79848 0.399 0.0
H77 H 0.95353 0.80439 0.3882 0.0
H78 H 0.97483 0.79114 0.42186 0.0
H79 H 0.94512 0.78542 0.4327 0.0
H80 H 0.9148 0.76399 0.45456 0.0
H81 H 0.90871 0.75056 0.4755 0.0
H82 H 0.85827 0.75881 0.4786 0.0
H83 H 0.86437 0.77239 0.45767 0.0
H84 H 0.8469 0.77969 0.43247 0.0
H85 H 0.82239 0.78535 0.42217 0.0
H86 H 0.86134 0.81046 0.39083 0.0
H87 H 0.88603 0.80501 0.40116 0.0
N88 N 0.90008 0.79142 0.41784 0.0
N89 N 0.91021 0.78072 0.43524 0.0
N90 N 0.88032 0.78096 0.43571 0.0
C91 C 0.9136 0.78782 0.42344 0.0
C92 C 0.89364 0.77725 0.44146 0.0
C93 C 0.88339 0.78805 0.4239 0.0
C94 C 0.93184 0.79147 0.41676 0.0
C95 C 0.93465 0.79685 0.40413 0.0
C96 C 0.95179 0.80014 0.3979 0.0
C97 C 0.96663 0.79829 0.40416 0.0
C98 C 0.96384 0.79296 0.41678 0.0
C99 C 0.94669 0.78955 0.42299 0.0
C100 C 0.89007 0.76929 0.45434 0.0
C101 C 0.90242 0.76302 0.45968 0.0
C102 C 0.89888 0.75521 0.47169 0.0
C103 C 0.88299 0.75358 0.47874 0.0
C104 C 0.87077 0.76004 0.47348 0.0
C105 C 0.87421 0.76772 0.46143 0.0
C106 C 0.86853 0.79183 0.41767 0.0
C107 C 0.85034 0.78647 0.4234 0.0
C108 C 0.04094 0.20524 0.59117 0.0
C109 C 0.03892 0.20137 0.60402 0.0
C110 C 0.05471 0.20163 0.61054 0.0
C111 C 0.07204 0.20551 0.60434 0.0
H112 H 0.1259 0.20694 0.60924 0.0
H113 H 0.15062 0.2011 0.61922 0.0
H114 H 0.1785 0.20658 0.58367 0.0
H115 H 0.15389 0.2124 0.57365 0.0
H116 H 0.14525 0.23522 0.55247 0.0
H117 H 0.15172 0.24902 0.53167 0.0
H118 H 0.09485 0.24578 0.53124 0.0
H119 H 0.08815 0.23168 0.55202 0.0
H120 H 0.0593 0.21223 0.5751 0.0
H121 H 0.02915 0.20538 0.58589 0.0
H122 H 0.05356 0.19857 0.62043 0.0
H123 H 0.08386 0.2055 0.60967 0.0
N124 N 0.10623 0.21036 0.59053 0.0
N125 N 0.12591 0.22085 0.57265 0.0
N126 N 0.09573 0.22051 0.57302 0.0
C127 C 0.12295 0.21389 0.58447 0.0
C128 C 0.11244 0.22427 0.56685 0.0
C129 C 0.09249 0.21356 0.58486 0.0
C130 C 0.13786 0.21017 0.59062 0.0
C131 C 0.13726 0.20686 0.60353 0.0
C132 C 0.15148 0.2036 0.60927 0.0
C133 C 0.16649 0.20334 0.60223 0.0
C134 C 0.167 0.20648 0.58933 0.0
C135 C 0.15294 0.20996 0.5836 0.0
C136 C 0.11617 0.23233 0.55401 0.0
C137 C 0.13404 0.23736 0.54797 0.0
C138 C 0.13783 0.24541 0.53604 0.0
C139 C 0.12385 0.2486 0.52979 0.0
C140 C 0.10587 0.24335 0.53573 0.0
C141 C 0.10209 0.23535 0.5477 0.0
C142 C 0.07409 0.20943 0.59148 0.0
C143 C 0.05832 0.2093 0.58499 0.0
C144 C 0.73909 0.80689 0.6034 0.0
C145 C 0.75151 0.81237 0.61397 0.0
C146 C 0.75987 0.83156 0.61852 0.0
C147 C 0.75608 0.84497 0.61259 0.0
H148 H 0.76366 0.89962 0.61674 0.0
H149 H 0.77401 0.93123 0.62626 0.0
H150 H 0.74506 0.94436 0.59655 0.0
H151 H 0.73517 0.91302 0.58683 0.0
H152 H 0.72326 0.88773 0.56257 0.0
H153 H 0.71257 0.88266 0.54089 0.0
H154 H 0.7115 0.82771 0.54051 0.0
H155 H 0.72252 0.83283 0.5622 0.0
H156 H 0.72595 0.81571 0.5892 0.0
H157 H 0.73216 0.79216 0.59975 0.0
H158 H 0.76982 0.83642 0.62649 0.0
H159 H 0.76303 0.8597 0.61626 0.0
N160 N 0.74561 0.87134 0.60092 0.0
N161 N 0.73575 0.88122 0.58306 0.0
N162 N 0.73349 0.85065 0.58344 0.0
C163 C 0.74305 0.88492 0.59488 0.0
C164 C 0.73098 0.86416 0.57725 0.0
C165 C 0.74077 0.85413 0.59529 0.0
C166 C 0.74865 0.90379 0.60098 0.0
C167 C 0.75943 0.9092 0.61225 0.0
C168 C 0.76529 0.9273 0.61775 0.0
C169 C 0.76041 0.94035 0.61215 0.0
C170 C 0.74936 0.93479 0.60099 0.0
C171 C 0.7436 0.91676 0.59545 0.0
C172 C 0.72378 0.86069 0.56417 0.0
C173 C 0.72073 0.87452 0.55792 0.0
C174 C 0.7145 0.87159 0.54548 0.0
C175 C 0.71121 0.8548 0.539 0.0
C176 C 0.71415 0.84091 0.54523 0.0
C177 C 0.72034 0.8438 0.55769 0.0
C178 C 0.74402 0.83961 0.60187 0.0
C179 C 0.73547 0.82038 0.59737 0.0
C180 C 0.17015 0.95194 0.58849 0.0
C181 C 0.16644 0.95748 0.6002 0.0
C182 C 0.14843 0.94506 0.60609 0.0
C183 C 0.13457 0.92749 0.60048 0.0
H184 H 0.08673 0.87349 0.60899 0.0
H185 H 0.05718 0.85081 0.62038 0.0
H186 H 0.03164 0.81784 0.58651 0.0
H187 H 0.0611 0.84043 0.57506 0.0
H188 H 0.0996 0.84519 0.55547 0.0
H189 H 0.10596 0.83722 0.53455 0.0
H190 H 0.14027 0.89838 0.52615 0.0
H191 H 0.13434 0.90646 0.54715 0.0
H192 H 0.1597 0.93059 0.57387 0.0
H193 H 0.18396 0.96101 0.58376 0.0
H194 H 0.14493 0.949 0.61501 0.0
H195 H 0.12089 0.91833 0.60532 0.0
N196 N 0.10748 0.89011 0.58932 0.0
N197 N 0.09714 0.86847 0.5723 0.0
N198 N 0.1264 0.89863 0.57111 0.0
C199 C 0.09412 0.87278 0.58408 0.0
C200 C 0.11323 0.88133 0.56576 0.0
C201 C 0.12367 0.90312 0.58292 0.0
C202 C 0.07632 0.85883 0.59108 0.0
C203 C 0.07484 0.86141 0.60395 0.0
C204 C 0.05796 0.84838 0.6105 0.0
C205 C 0.04209 0.83261 0.60432 0.0
C206 C 0.04356 0.82999 0.59149 0.0
C207 C 0.06051 0.84289 0.58495 0.0
C208 C 0.11652 0.87646 0.55297 0.0
C209 C 0.10844 0.85694 0.54916 0.0
C210 C 0.11211 0.85237 0.53722 0.0
C211 C 0.12355 0.8672 0.52878 0.0
C212 C 0.13129 0.88669 0.53248 0.0
C213 C 0.12799 0.89129 0.54451 0.0
C214 C 0.1383 0.92191 0.5888 0.0
C215 C 0.15624 0.93441 0.58285 0.0
C216 C 0.8917 0.38414 0.75284 0.0
C217 C 0.87893 0.37755 0.74242 0.0
C218 C 0.87102 0.38894 0.73807 0.0
C219 C 0.87593 0.40658 0.7439 0.0
H220 H 0.87522 0.45672 0.7378 0.0
H221 H 0.8677 0.4793 0.72722 0.0
H222 H 0.89455 0.5205 0.75759 0.0
H223 H 0.90246 0.49811 0.76813 0.0
H224 H 0.92126 0.48792 0.79069 0.0
H225 H 0.93855 0.49659 0.8107 0.0
H226 H 0.93828 0.44202 0.81085 0.0
H227 H 0.92133 0.43342 0.79076 0.0
H228 H 0.90654 0.40642 0.76665 0.0
H229 H 0.89832 0.37589 0.75631 0.0
H230 H 0.8609 0.38417 0.73019 0.0
H231 H 0.86956 0.41497 0.74027 0.0
N232 N 0.88948 0.44457 0.75476 0.0
N233 N 0.90437 0.46688 0.77122 0.0
N234 N 0.9041 0.4372 0.7714 0.0
C235 C 0.89452 0.46199 0.76012 0.0
C236 C 0.9092 0.45455 0.77693 0.0
C237 C 0.89421 0.43209 0.76032 0.0
C238 C 0.88951 0.47558 0.75383 0.0
C239 C 0.87953 0.47057 0.74227 0.0
C240 C 0.87509 0.48347 0.73621 0.0
C241 C 0.88054 0.50168 0.74156 0.0
C242 C 0.89039 0.50666 0.75315 0.0
C243 C 0.89482 0.49376 0.75922 0.0
C244 C 0.91985 0.45994 0.78908 0.0
C245 C 0.9249 0.47775 0.79495 0.0
C246 C 0.93473 0.4827 0.80647 0.0
C247 C 0.93978 0.46999 0.81236 0.0
C248 C 0.93483 0.45224 0.80647 0.0
C249 C 0.92498 0.44727 0.79497 0.0
C250 C 0.88878 0.41321 0.75428 0.0
C251 C 0.89651 0.40172 0.75873 0.0
C252 C 0.62499 0.51734 0.74626 0.0
C253 C 0.6288 0.51287 0.73426 0.0
C254 C 0.61579 0.49446 0.72909 0.0
C255 C 0.59939 0.48084 0.73576 0.0
H256 H 0.55246 0.42504 0.7334 0.0
H257 H 0.52902 0.39396 0.7238 0.0
H258 H 0.49053 0.38054 0.75549 0.0
H259 H 0.51411 0.41129 0.76525 0.0
H260 H 0.52958 0.43716 0.78898 0.0
H261 H 0.52326 0.44403 0.81001 0.0
H262 H 0.5736 0.50211 0.80791 0.0
H263 H 0.57987 0.49539 0.7867 0.0
H264 H 0.60621 0.50765 0.7622 0.0
H265 H 0.63485 0.53131 0.75058 0.0
H266 H 0.61815 0.49064 0.7198 0.0
H267 H 0.58972 0.46683 0.73143 0.0
N268 N 0.56535 0.45318 0.74961 0.0
N269 N 0.54628 0.44403 0.76772 0.0
N270 N 0.57485 0.47471 0.76668 0.0
C271 C 0.54934 0.43976 0.75596 0.0
C272 C 0.55893 0.46142 0.77318 0.0
C273 C 0.57818 0.4707 0.75488 0.0
C274 C 0.53522 0.42075 0.75011 0.0
C275 C 0.53903 0.41545 0.73835 0.0
C276 C 0.52553 0.39765 0.73281 0.0
C277 C 0.50786 0.38472 0.73886 0.0
C278 C 0.50412 0.38998 0.75064 0.0
C279 C 0.51763 0.40772 0.75621 0.0
C280 C 0.55527 0.46571 0.78608 0.0
C281 C 0.53937 0.45142 0.79294 0.0
C282 C 0.53579 0.45531 0.80507 0.0
C283 C 0.54797 0.47358 0.81066 0.0
C284 C 0.56384 0.48793 0.80382 0.0
C285 C 0.56749 0.48402 0.79168 0.0
C286 C 0.59559 0.48525 0.7478 0.0
C287 C 0.60861 0.5037 0.75296 0.0
C288 C 0.50452 0.13272 0.75204 0.0
C289 C 0.50631 0.13789 0.73939 0.0
C290 C 0.52212 0.13883 0.73259 0.0
C291 C 0.53574 0.13463 0.73828 0.0
H292 H 0.59314 0.14269 0.73489 0.0
H293 H 0.62324 0.14862 0.72443 0.0
H294 H 0.6307 0.11223 0.7512 0.0
H295 H 0.60105 0.10687 0.76189 0.0
H296 H 0.56802 0.08654 0.78408 0.0
H297 H 0.5606 0.07209 0.80486 0.0
H298 H 0.52859 0.10195 0.81334 0.0
H299 H 0.53556 0.1161 0.79248 0.0
H300 H 0.51601 0.12431 0.76743 0.0
H301 H 0.4924 0.13163 0.75752 0.0
H302 H 0.52406 0.14296 0.72287 0.0
H303 H 0.54766 0.13543 0.73272 0.0
N304 N 0.56409 0.1265 0.75069 0.0
N305 N 0.57261 0.11336 0.76757 0.0
N306 N 0.54425 0.11639 0.76853 0.0
C307 C 0.57661 0.12126 0.75598 0.0
C308 C 0.55652 0.11096 0.77393 0.0
C309 C 0.54782 0.12404 0.75687 0.0
C310 C 0.59462 0.12435 0.74929 0.0
C311 C 0.60117 0.13592 0.73855 0.0
C312 C 0.61845 0.13925 0.73249 0.0
C313 C 0.62958 0.13099 0.73696 0.0
C314 C 0.62283 0.1192 0.7476 0.0
C315 C 0.60568 0.11601 0.75371 0.0
C316 C 0.55235 0.10245 0.7866 0.0
C317 C 0.55942 0.09006 0.79037 0.0
C318 C 0.55512 0.08171 0.80223 0.0
C319 C 0.54405 0.08593 0.81068 0.0
C320 C 0.53724 0.09854 0.80702 0.0
C321 C 0.54115 0.10654 0.79506 0.0
C322 C 0.53381 0.12922 0.7509 0.0
C323 C 0.51804 0.1284 0.7577 0.0
C324 C 0.71617 0.55369 0.92814 0.0
C325 C 0.71063 0.54307 0.9393 0.0
C326 C 0.72272 0.536 0.94395 0.0
C327 C 0.7399 0.53958 0.9377 0.0
H328 H 0.7911 0.53668 0.94234 0.0
H329 H 0.81594 0.53155 0.9528 0.0
H330 H 0.85521 0.55731 0.92168 0.0
H331 H 0.8306 0.56264 0.91126 0.0
H332 H 0.81109 0.56581 0.88547 0.0
H333 H 0.81743 0.57845 0.86433 0.0
H334 H 0.77173 0.5936 0.86794 0.0
H335 H 0.76528 0.58094 0.88916 0.0
H336 H 0.73706 0.56546 0.91331 0.0
H337 H 0.70747 0.55966 0.92435 0.0
H338 H 0.71882 0.52746 0.95238 0.0
H339 H 0.74876 0.53384 0.94158 0.0
N340 N 0.77712 0.55028 0.92556 0.0
N341 N 0.79711 0.56087 0.90783 0.0
N342 N 0.76727 0.56126 0.90814 0.0
C343 C 0.79391 0.55375 0.91961 0.0
C344 C 0.7839 0.56465 0.90201 0.0
C345 C 0.76372 0.554 0.91991 0.0
C346 C 0.80879 0.55014 0.92594 0.0
C347 C 0.80502 0.54125 0.9377 0.0
C348 C 0.81922 0.5382 0.94369 0.0
C349 C 0.8376 0.54408 0.9381 0.0
C350 C 0.84132 0.55285 0.92632 0.0
C351 C 0.82711 0.55579 0.92031 0.0
C352 C 0.78766 0.57234 0.88908 0.0
C353 C 0.80236 0.57183 0.8818 0.0
C354 C 0.80593 0.57896 0.86963 0.0
C355 C 0.79507 0.58699 0.86444 0.0
C356 C 0.78044 0.58762 0.87171 0.0
C357 C 0.77669 0.58026 0.88385 0.0
C358 C 0.74542 0.55019 0.92654 0.0
C359 C 0.73327 0.55713 0.92183 0.0
C360 C 0.434 0.15273 0.92563 0.0
C361 C 0.44331 0.15726 0.93739 0.0
C362 C 0.44758 0.17482 0.94327 0.0
C363 C 0.44267 0.1876 0.9375 0.0
H364 H 0.44495 0.23967 0.94259 0.0
H365 H 0.45266 0.27016 0.95278 0.0
H366 H 0.42997 0.28584 0.92079 0.0
H367 H 0.42188 0.25522 0.91064 0.0
H368 H 0.40655 0.22766 0.88734 0.0
H369 H 0.39154 0.21992 0.86666 0.0
H370 H 0.38699 0.16342 0.86816 0.0
H371 H 0.4024 0.17125 0.88874 0.0
H372 H 0.42202 0.16155 0.91077 0.0
H373 H 0.43073 0.13942 0.9208 0.0
H374 H 0.45453 0.1786 0.9524 0.0
H375 H 0.44617 0.20099 0.94232 0.0
N376 N 0.43252 0.21374 0.92519 0.0
N377 N 0.41941 0.22184 0.90806 0.0
N378 N 0.41964 0.19243 0.90807 0.0
C379 C 0.42809 0.22637 0.91953 0.0
C380 C 0.41511 0.20489 0.90227 0.0
C381 C 0.42835 0.19673 0.91953 0.0
C382 C 0.43278 0.24493 0.92577 0.0
C383 C 0.44156 0.24957 0.9377 0.0
C384 C 0.44609 0.26711 0.94354 0.0
C385 C 0.44195 0.28042 0.93759 0.0
C386 C 0.43312 0.27578 0.92568 0.0
C387 C 0.42859 0.25824 0.91984 0.0
C388 C 0.40573 0.2001 0.88974 0.0
C389 C 0.40235 0.21357 0.88329 0.0
C390 C 0.39364 0.2091 0.87145 0.0
C391 C 0.38805 0.19105 0.86577 0.0
C392 C 0.39137 0.17756 0.87221 0.0
C393 C 0.40012 0.18203 0.88405 0.0
C394 C 0.4334 0.18311 0.92571 0.0
C395 C 0.4291 0.1655 0.91986 0.0
C396 C 0.84218 0.27764 0.92718 0.0
C397 C 0.83989 0.28122 0.93974 0.0
C398 C 0.82319 0.26724 0.94617 0.0
C399 C 0.80901 0.2502 0.94015 0.0
H400 H 0.76063 0.1931 0.94593 0.0
H401 H 0.73075 0.1701 0.95699 0.0
H402 H 0.69854 0.15207 0.92213 0.0
H403 H 0.72855 0.17478 0.91095 0.0
H404 H 0.76202 0.17733 0.88786 0.0
H405 H 0.76902 0.17133 0.86664 0.0
H406 H 0.82152 0.22814 0.86643 0.0
H407 H 0.81486 0.23401 0.88759 0.0
H408 H 0.83026 0.25852 0.91145 0.0
H409 H 0.85471 0.28821 0.92189 0.0
H410 H 0.82109 0.26943 0.95589 0.0
H411 H 0.79631 0.23982 0.9454 0.0
N412 N 0.77926 0.21585 0.92696 0.0
N413 N 0.76777 0.1967 0.90873 0.0
N414 N 0.7984 0.22562 0.90888 0.0
C415 C 0.76509 0.19976 0.92089 0.0
C416 C 0.78449 0.20957 0.90267 0.0
C417 C 0.79593 0.22892 0.921 0.0
C418 C 0.74696 0.18574 0.92755 0.0
C419 C 0.74719 0.18424 0.9406 0.0
C420 C 0.73014 0.17105 0.94694 0.0
C421 C 0.7124 0.15939 0.9404 0.0
C422 C 0.71205 0.161 0.92738 0.0
C423 C 0.72923 0.1739 0.92099 0.0
C424 C 0.78793 0.2061 0.88952 0.0
C425 C 0.77502 0.18858 0.88328 0.0
C426 C 0.77898 0.18516 0.87108 0.0
C427 C 0.79593 0.19919 0.86486 0.0
C428 C 0.80856 0.21685 0.87102 0.0
C429 C 0.80464 0.22025 0.88317 0.0
C430 C 0.8112 0.24672 0.92754 0.0
C431 C 0.82804 0.26062 0.92117 0.0
C432 C 0.57625 0.72315 0.0828 0.0
C433 C 0.56302 0.71598 0.07265 0.0
C434 C 0.55573 0.7275 0.06764 0.0
C435 C 0.56155 0.74586 0.07269 0.0
H436 H 0.56557 0.79831 0.06415 0.0
H437 H 0.55689 0.82008 0.05357 0.0
H438 H 0.57589 0.85807 0.08588 0.0
H439 H 0.58503 0.8366 0.0964 0.0
H440 H 0.60495 0.82784 0.11888 0.0
H441 H 0.61725 0.83488 0.14024 0.0
H442 H 0.61552 0.77967 0.14188 0.0
H443 H 0.60291 0.77238 0.12057 0.0
H444 H 0.59204 0.74647 0.09582 0.0
H445 H 0.582 0.7145 0.08688 0.0
H446 H 0.54568 0.72239 0.05972 0.0
H447 H 0.55561 0.75435 0.06861 0.0
N448 N 0.57621 0.78477 0.08249 0.0
N449 N 0.58974 0.80697 0.09913 0.0
N450 N 0.58919 0.77719 0.09993 0.0
C451 C 0.58093 0.80222 0.08771 0.0
C452 C 0.59395 0.79455 0.1053 0.0
C453 C 0.58032 0.7722 0.08853 0.0
C454 C 0.57599 0.81566 0.08115 0.0
C455 C 0.56796 0.81132 0.06902 0.0
C456 C 0.56287 0.82375 0.06295 0.0
C457 C 0.56564 0.84078 0.06889 0.0
C458 C 0.57381 0.8452 0.08098 0.0
C459 C 0.57896 0.83281 0.08704 0.0
C460 C 0.60277 0.79947 0.11799 0.0
C461 C 0.60729 0.81722 0.12373 0.0
C462 C 0.61447 0.82133 0.13597 0.0
C463 C 0.61728 0.8078 0.14275 0.0
C464 C 0.61325 0.79027 0.13694 0.0
C465 C 0.6061 0.78616 0.12469 0.0
C466 C 0.57463 0.75299 0.08294 0.0
C467 C 0.58192 0.74143 0.08794 0.0
C468 C 0.29231 0.84779 0.08163 0.0
C469 C 0.29659 0.84255 0.06999 0.0
C470 C 0.28349 0.82398 0.06506 0.0
C471 C 0.26648 0.81105 0.07152 0.0
H472 H 0.21543 0.75877 0.06732 0.0
H473 H 0.19097 0.72846 0.05736 0.0
H474 H 0.15413 0.7141 0.08994 0.0
H475 H 0.17834 0.74449 0.09985 0.0
H476 H 0.19397 0.77059 0.12348 0.0
H477 H 0.18742 0.77801 0.14432 0.0
H478 H 0.23832 0.83571 0.1421 0.0
H479 H 0.24487 0.82842 0.12109 0.0
H480 H 0.27242 0.83944 0.097 0.0
H481 H 0.30193 0.86207 0.08563 0.0
H482 H 0.28648 0.81932 0.05623 0.0
H483 H 0.25679 0.79689 0.06739 0.0
N484 N 0.23042 0.78545 0.08443 0.0
N485 N 0.2105 0.77728 0.10214 0.0
N486 N 0.24043 0.8069 0.10157 0.0
C487 C 0.21367 0.77274 0.09047 0.0
C488 C 0.22377 0.79429 0.10777 0.0
C489 C 0.24389 0.80256 0.08989 0.0
C490 C 0.19891 0.75417 0.08441 0.0
C491 C 0.20213 0.74919 0.07239 0.0
C492 C 0.18815 0.73174 0.06668 0.0
C493 C 0.17059 0.71886 0.07285 0.0
C494 C 0.16737 0.72381 0.08486 0.0
C495 C 0.18135 0.74123 0.09058 0.0
C496 C 0.21998 0.7989 0.12055 0.0
C497 C 0.20383 0.78489 0.12738 0.0
C498 C 0.20012 0.78908 0.13939 0.0
C499 C 0.21239 0.80742 0.14488 0.0
C500 C 0.22851 0.82149 0.13808 0.0
C501 C 0.23231 0.81726 0.12606 0.0
C502 C 0.26211 0.81631 0.08312 0.0
C503 C 0.2753 0.83483 0.08812 0.0
C504 C 0.16317 0.44918 0.0826 0.0
C505 C 0.16592 0.45673 0.07049 0.0
C506 C 0.18374 0.46177 0.06438 0.0
C507 C 0.19834 0.45916 0.0702 0.0
H508 H 0.25603 0.46933 0.06616 0.0
H509 H 0.28619 0.47627 0.05533 0.0
H510 H 0.29834 0.44465 0.08337 0.0
H511 H 0.26865 0.43833 0.09441 0.0
H512 H 0.24458 0.42728 0.11951 0.0
H513 H 0.23888 0.41409 0.1405 0.0
H514 H 0.18506 0.41677 0.14244 0.0
H515 H 0.19083 0.43021 0.12153 0.0
H516 H 0.17501 0.44071 0.09776 0.0
H517 H 0.14977 0.4454 0.08766 0.0
H518 H 0.18628 0.46744 0.05499 0.0
H519 H 0.21178 0.46308 0.06515 0.0
N520 N 0.2277 0.45233 0.08238 0.0
N521 N 0.23827 0.44178 0.09965 0.0
N522 N 0.20793 0.4411 0.1002 0.0
C523 C 0.24151 0.44908 0.08791 0.0
C524 C 0.22156 0.4378 0.10589 0.0
C525 C 0.21082 0.44833 0.08845 0.0
C526 C 0.25985 0.45328 0.0812 0.0
C527 C 0.26515 0.46388 0.07004 0.0
C528 C 0.28244 0.46778 0.06377 0.0
C529 C 0.29483 0.46107 0.06844 0.0
C530 C 0.28945 0.45042 0.07959 0.0
C531 C 0.27228 0.44666 0.0859 0.0
C532 C 0.21817 0.42983 0.11875 0.0
C533 C 0.23154 0.42512 0.12439 0.0
C534 C 0.22822 0.41744 0.13642 0.0
C535 C 0.2115 0.41435 0.14317 0.0
C536 C 0.19821 0.41918 0.13758 0.0
C537 C 0.20148 0.42678 0.12552 0.0
C538 C 0.19552 0.45148 0.08229 0.0
C539 C 0.17776 0.4466 0.08843 0.0
C540 C 0.38432 0.88548 0.25953 0.0
C541 C 0.3795 0.8763 0.27119 0.0
C542 C 0.39229 0.87054 0.27647 0.0
C543 C 0.40961 0.87415 0.27034 0.0
H544 H 0.45854 0.86435 0.27173 0.0
H545 H 0.48321 0.85842 0.2818 0.0
H546 H 0.52801 0.89955 0.25721 0.0
H547 H 0.50342 0.90537 0.24704 0.0
H548 H 0.4872 0.91118 0.22058 0.0
H549 H 0.49383 0.92477 0.19973 0.0
H550 H 0.43737 0.92242 0.1992 0.0
H551 H 0.43049 0.90846 0.22001 0.0
H552 H 0.40473 0.89618 0.24443 0.0
H553 H 0.37469 0.88987 0.2551 0.0
H554 H 0.38914 0.86359 0.28549 0.0
H555 H 0.41918 0.86969 0.27477 0.0
N556 N 0.44673 0.88437 0.25799 0.0
N557 N 0.4676 0.89679 0.24071 0.0
N558 N 0.43707 0.89576 0.24069 0.0
C559 C 0.46401 0.88886 0.25227 0.0
C560 C 0.4542 0.90021 0.2348 0.0
C561 C 0.43319 0.88786 0.25228 0.0
C562 C 0.47895 0.88532 0.25855 0.0
C563 C 0.47364 0.87215 0.26847 0.0
C564 C 0.48774 0.86866 0.27419 0.0
C565 C 0.50754 0.87852 0.27029 0.0
C566 C 0.5129 0.89183 0.26047 0.0
C567 C 0.49876 0.89507 0.25461 0.0
C568 C 0.45828 0.90868 0.22206 0.0
C569 C 0.47614 0.91352 0.21606 0.0
C570 C 0.48002 0.92145 0.20409 0.0
C571 C 0.46617 0.92476 0.19776 0.0
C572 C 0.44828 0.91987 0.20373 0.0
C573 C 0.4444 0.91196 0.21572 0.0
C574 C 0.41453 0.88352 0.25871 0.0
C575 C 0.40155 0.88899 0.25336 0.0
C576 C 0.09195 0.48401 0.26146 0.0
C577 C 0.10795 0.49106 0.26992 0.0
C578 C 0.11842 0.51112 0.27271 0.0
C579 C 0.11294 0.52371 0.2673 0.0
H580 H 0.114 0.57566 0.27431 0.0
H581 H 0.12267 0.60646 0.28443 0.0
H582 H 0.08818 0.61653 0.25696 0.0
H583 H 0.0799 0.58599 0.24663 0.0
H584 H 0.06815 0.56108 0.22194 0.0
H585 H 0.05344 0.55425 0.20118 0.0
H586 H 0.04882 0.4977 0.20155 0.0
H587 H 0.06337 0.50436 0.22243 0.0
H588 H 0.07429 0.49075 0.24941 0.0
H589 H 0.08324 0.46864 0.25925 0.0
H590 H 0.13107 0.51721 0.27897 0.0
H591 H 0.12136 0.53906 0.26964 0.0
N592 N 0.09622 0.5472 0.25862 0.0
N593 N 0.08158 0.55492 0.24217 0.0
N594 N 0.08172 0.52545 0.24181 0.0
C595 C 0.0912 0.55967 0.25334 0.0
C596 C 0.07682 0.53788 0.23632 0.0
C597 C 0.09146 0.53004 0.25294 0.0
C598 C 0.09628 0.57831 0.25962 0.0
C599 C 0.10823 0.5844 0.27042 0.0
C600 C 0.11312 0.60204 0.27628 0.0
C601 C 0.10611 0.61398 0.27152 0.0
C602 C 0.09407 0.60783 0.26077 0.0
C603 C 0.08924 0.59024 0.25488 0.0
C604 C 0.06705 0.53331 0.22389 0.0
C605 C 0.06394 0.54713 0.21767 0.0
C606 C 0.05562 0.54328 0.20572 0.0
C607 C 0.05011 0.5255 0.1997 0.0
C608 C 0.05281 0.51149 0.20599 0.0
C609 C 0.06124 0.51537 0.21793 0.0
C610 C 0.09708 0.51663 0.25877 0.0
C611 C 0.08671 0.49667 0.25586 0.0
C612 C 0.49614 0.61811 0.25492 0.0
C613 C 0.49531 0.62166 0.2677 0.0
C614 C 0.47967 0.60742 0.27474 0.0
C615 C 0.46528 0.59003 0.26917 0.0
H616 H 0.41828 0.53335 0.27693 0.0
H617 H 0.38954 0.51006 0.28881 0.0
H618 H 0.35669 0.48646 0.25457 0.0
H619 H 0.38549 0.50948 0.24261 0.0
H620 H 0.4262 0.51154 0.22157 0.0
H621 H 0.43296 0.505 0.20034 0.0
H622 H 0.46565 0.56666 0.19321 0.0
H623 H 0.45932 0.5733 0.21447 0.0
H624 H 0.48296 0.59859 0.23948 0.0
H625 H 0.50779 0.62887 0.24916 0.0
H626 H 0.47871 0.60955 0.28464 0.0
H627 H 0.45354 0.57936 0.27492 0.0
N628 N 0.43534 0.55451 0.25703 0.0
N629 N 0.42373 0.53385 0.23948 0.0
N630 N 0.45295 0.56405 0.23833 0.0
C631 C 0.42154 0.53752 0.2516 0.0
C632 C 0.43945 0.54707 0.23279 0.0
C633 C 0.45108 0.56789 0.25044 0.0
C634 C 0.40419 0.52326 0.25881 0.0
C635 C 0.40494 0.52319 0.27192 0.0
C636 C 0.38854 0.50983 0.27873 0.0
C637 C 0.37091 0.49653 0.2726 0.0
C638 C 0.37008 0.49667 0.25952 0.0
C639 C 0.3866 0.50976 0.25269 0.0
C640 C 0.44227 0.54294 0.21971 0.0
C641 C 0.43468 0.52369 0.21544 0.0
C642 C 0.43862 0.51994 0.20334 0.0
C643 C 0.44981 0.53534 0.19518 0.0
C644 C 0.45689 0.55453 0.19931 0.0
C645 C 0.45333 0.55831 0.21148 0.0
C646 C 0.46618 0.58644 0.25639 0.0
C647 C 0.48179 0.60074 0.24935 0.0
Eu648 Eu 0.49658 0.98439 0.98781 0.0
C649 C 0.53541 0.05889 0.02113 0.0
C650 C 0.57023 0.06895 0.02126 0.0
C651 C 0.56002 0.09325 0.02272 0.0
C652 C 0.55021 0.05422 0.0205 0.0
C653 C 0.54011 0.07842 0.02254 0.0
C654 C 0.57507 0.08853 0.02207 0.0
C655 C 0.50517 0.06701 0.02451 0.0
N656 N 0.51637 0.0442 0.02103 0.0
C657 C 0.50128 0.04786 0.02315 0.0
C658 C 0.52466 0.08238 0.02405 0.0
Eu659 Eu 0.51082 0.01232 0.01765 0.0
N660 N 0.545 0.03516 0.0198 0.0
C661 C 0.55901 0.02975 0.02084 0.0
C662 C 0.58475 0.06353 0.02155 0.0
C663 C 0.57909 0.04382 0.02155 0.0
H664 H 0.48618 0.03601 0.02338 0.0
H665 H 0.59017 0.03945 0.02202 0.0
H666 H 0.59037 0.10007 0.02252 0.0
H667 H 0.49314 0.06989 0.02588 0.0
H668 H 0.55485 0.01458 0.02072 0.0
H669 H 0.41725 0.9546 0.98141 0.0
H670 H 0.6003 0.07441 0.02209 0.0
H671 H 0.52393 0.96297 0.98329 0.0
H672 H 0.45164 0.97996 0.9858 0.0
H673 H 0.51902 0.93057 0.97818 0.0
H674 H 0.56395 0.10837 0.02366 0.0
H675 H 0.40934 0.9209 0.9769 0.0
H676 H 0.42138 0.89715 0.97358 0.0
H677 H 0.52764 0.0972 0.02514 0.0
H678 H 0.44879 0.89034 0.97339 0.0
N679 N 0.463 0.96058 0.98473 0.0
C680 C 0.44836 0.96521 0.98419 0.0
C681 C 0.42441 0.93184 0.97917 0.0
C682 C 0.43958 0.92731 0.97929 0.0
C683 C 0.42883 0.95088 0.98164 0.0
C684 C 0.45899 0.94219 0.98217 0.0
H685 H 0.48524 0.90266 0.97514 0.0
N686 N 0.49316 0.9535 0.98362 0.0
C687 C 0.50636 0.93254 0.97924 0.0
C688 C 0.47453 0.9385 0.98168 0.0
C689 C 0.50908 0.95092 0.98211 0.0
C690 C 0.48727 0.91684 0.97753 0.0
C691 C 0.47108 0.91977 0.97852 0.0
O692 O 0.51437 0.99274 0.97094 0.0
O693 O 0.51944 0.01024 0.99827 0.0
O694 O 0.50734 0.03056 0.00287 0.0
O695 O 0.48571 0.00627 0.98908 0.0
O696 O 0.52962 0.99574 0.98734 0.0
O697 O 0.48575 0.99077 0.97058 0.0
O698 O 0.4953 0.00837 0.03525 0.0
O699 O 0.48781 0.98662 0.00719 0.0
O700 O 0.49894 0.96541 0.00249 0.0
O701 O 0.52044 0.9894 0.01653 0.0
O702 O 0.47766 0.0007 0.01852 0.0
O703 O 0.52037 0.00381 0.03449 0.0
C704 C 0.53488 0.01053 0.99461 0.0
C705 C 0.49748 0.98473 0.95167 0.0
C706 C 0.49872 0.98782 0.92891 0.0
C707 C 0.50082 0.99605 0.94094 0.0
C708 C 0.49317 0.96799 0.92796 0.0
C709 C 0.49166 0.965 0.95041 0.0
C710 C 0.48952 0.9567 0.93862 0.0
C711 C 0.49429 0.02428 0.99362 0.0
C712 C 0.50115 0.99388 0.96411 0.0
C713 C 0.45172 0.90479 0.97594 0.0
C714 C 0.43607 0.90862 0.97616 0.0
C715 C 0.47235 0.98613 0.01102 0.0
C716 C 0.51451 0.01488 0.05359 0.0
C717 C 0.50882 0.00444 0.06481 0.0
C718 C 0.51575 0.01415 0.07638 0.0
C719 C 0.52833 0.03448 0.07647 0.0
C720 C 0.52712 0.03509 0.05393 0.0
C721 C 0.53395 0.04482 0.06532 0.0
C722 C 0.5117 0.9714 0.01191 0.0
C723 C 0.50726 0.00457 0.04159 0.0
H724 H 0.50504 0.01124 0.94201 0.0
H725 H 0.49195 0.96115 0.91899 0.0
H726 H 0.4891 0.95608 0.95853 0.0
H727 H 0.48528 0.94151 0.93772 0.0
H728 H 0.49925 0.98878 0.0645 0.0
H729 H 0.53365 0.04248 0.08517 0.0
H730 H 0.53166 0.04334 0.04541 0.0
H731 H 0.54361 0.06045 0.06552 0.0
Eu732 Eu 0.01998 0.50837 0.99131 0.0
C733 C 0.93813 0.47667 0.01729 0.0
C734 C 0.92992 0.50208 0.01451 0.0
C735 C 0.90369 0.46834 0.01577 0.0
C736 C 0.94408 0.49611 0.01581 0.0
C737 C 0.91786 0.4626 0.01763 0.0
C738 C 0.90971 0.48805 0.0142 0.0
C739 C 0.92713 0.43856 0.02273 0.0
N740 N 0.9522 0.47166 0.01916 0.0
C741 C 0.94704 0.45307 0.02234 0.0
C742 C 0.91247 0.44329 0.02019 0.0
Eu743 Eu 0.9856 0.49678 0.01784 0.0
N744 N 0.96372 0.50927 0.01619 0.0
C745 C 0.97014 0.52875 0.01624 0.0
C746 C 0.93649 0.522 0.01387 0.0
C747 C 0.95667 0.5354 0.01491 0.0
H748 H 0.95835 0.44935 0.02422 0.0
H749 H 0.96189 0.55085 0.01464 0.0
H750 H 0.89863 0.49234 0.01304 0.0
H751 H 0.92311 0.42375 0.02495 0.0
H752 H 0.98569 0.53927 0.01696 0.0
H753 H 0.04584 0.45607 0.99084 0.0
H754 H 0.92609 0.52719 0.01284 0.0
H755 H 0.04573 0.5566 0.98677 0.0
H756 H 0.02126 0.46671 0.99109 0.0
H757 H 0.08057 0.58295 0.98569 0.0
H758 H 0.88805 0.45771 0.01585 0.0
H759 H 0.08163 0.48043 0.99126 0.0
H760 H 0.10833 0.51552 0.99148 0.0
H761 H 0.89705 0.43204 0.02053 0.0
H762 H 0.11777 0.55006 0.99021 0.0
N763 N 0.04267 0.49688 0.99178 0.0
C764 C 0.03675 0.47753 0.9913 0.0
C765 C 0.07083 0.4852 0.99146 0.0
C766 C 0.07681 0.50501 0.9916 0.0
C767 C 0.0507 0.47142 0.9912 0.0
C768 C 0.06218 0.51048 0.9916 0.0
H769 H 0.10753 0.57532 0.98792 0.0
N770 N 0.05295 0.53444 0.99 0.0
C771 C 0.0771 0.56809 0.98717 0.0
C772 C 0.06749 0.52987 0.99079 0.0
C773 C 0.0574 0.55314 0.98776 0.0
C774 C 0.09227 0.56373 0.98847 0.0
C775 C 0.08758 0.5444 0.99008 0.0
O776 O 0.0189 0.51943 0.97293 0.0
O777 O 0.99231 0.50651 0.99821 0.0
O778 O 0.96944 0.47444 0.00265 0.0
O779 O 0.99597 0.47617 0.99158 0.0
O780 O 0.00993 0.53029 0.98745 0.0
O781 O 0.01492 0.49047 0.97466 0.0
O782 O 0.98619 0.48601 0.03641 0.0
O783 O 0.01299 0.498 0.01086 0.0
O784 O 0.03654 0.52934 0.00705 0.0
O785 O 0.01023 0.52878 0.0176 0.0
O786 O 0.99528 0.47466 0.02198 0.0
O787 O 0.99039 0.51497 0.03431 0.0
C788 C 0.99336 0.52133 0.99324 0.0
C789 C 0.02919 0.50763 0.95613 0.0
C790 C 0.03252 0.50885 0.93351 0.0
C791 C 0.02081 0.50502 0.9442 0.0
C792 C 0.05281 0.51533 0.93499 0.0
C793 C 0.0494 0.51403 0.95743 0.0
C794 C 0.06114 0.51786 0.94688 0.0
C795 C 0.97694 0.46728 0.99454 0.0
C796 C 0.01665 0.50402 0.96706 0.0
C797 C 0.10225 0.53911 0.99065 0.0
C798 C 0.09687 0.51944 0.99137 0.0
C799 C 0.01163 0.48304 0.0159 0.0
C800 C 0.97517 0.49801 0.05271 0.0
C801 C 0.98281 0.50039 0.06484 0.0
C802 C 0.97043 0.49638 0.07521 0.0
C803 C 0.95026 0.48997 0.07324 0.0
C804 C 0.95507 0.49179 0.05091 0.0
C805 C 0.94269 0.48777 0.06114 0.0
C806 C 0.02935 0.53697 0.01501 0.0
C807 C 0.98826 0.50149 0.04209 0.0
H808 H 0.0051 0.49981 0.94328 0.0
H809 H 0.06229 0.51866 0.92696 0.0
H810 H 0.0561 0.51612 0.96654 0.0
H811 H 0.07676 0.52288 0.94794 0.0
H812 H 0.99833 0.50504 0.06621 0.0
H813 H 0.94043 0.48692 0.08106 0.0
H814 H 0.94895 0.48996 0.04163 0.0
H815 H 0.92717 0.48294 0.0597 0.0
Eu816 Eu 0.51038 0.49274 0.01864 0.0
C817 C 0.46772 0.52728 0.9867 0.0
C818 C 0.43301 0.50269 0.98648 0.0
C819 C 0.44271 0.53687 0.98492 0.0
C820 C 0.45312 0.50795 0.98725 0.0
C821 C 0.46271 0.54195 0.98531 0.0
C822 C 0.42789 0.51727 0.98552 0.0
C823 C 0.49759 0.56543 0.98396 0.0
N824 N 0.48687 0.53167 0.98705 0.0
C825 C 0.5018 0.55034 0.98527 0.0
C826 C 0.47796 0.56125 0.9841 0.0
Eu827 Eu 0.49293 0.50552 0.98986 0.0
N828 N 0.45859 0.49424 0.98823 0.0
C829 C 0.4447 0.47492 0.98776 0.0
C830 C 0.41868 0.48293 0.98655 0.0
C831 C 0.42457 0.46898 0.98707 0.0
H832 H 0.517 0.55365 0.98522 0.0
H833 H 0.41361 0.45365 0.98699 0.0
H834 H 0.41252 0.51353 0.98502 0.0
H835 H 0.50947 0.58026 0.98283 0.0
H836 H 0.449 0.46398 0.98823 0.0
H837 H 0.58971 0.54294 0.02242 0.0
H838 H 0.40307 0.47829 0.98604 0.0
H839 H 0.48493 0.44462 0.02386 0.0
H840 H 0.55476 0.53345 0.02003 0.0
H841 H 0.49143 0.41755 0.02712 0.0
H842 H 0.43855 0.54795 0.98395 0.0
H843 H 0.59934 0.51767 0.02451 0.0
H844 H 0.58899 0.48226 0.0258 0.0
H845 H 0.47472 0.57295 0.98303 0.0
H846 H 0.56224 0.44814 0.02699 0.0
N847 N 0.54441 0.50304 0.02048 0.0
C848 C 0.55865 0.52224 0.02087 0.0
C849 C 0.58391 0.51341 0.02333 0.0
C850 C 0.56921 0.49378 0.02331 0.0
C851 C 0.57856 0.5277 0.0222 0.0
C852 C 0.5493 0.489 0.022 0.0
H853 H 0.52585 0.4239 0.0276 0.0
N854 N 0.51532 0.466 0.02212 0.0
C855 C 0.50363 0.43219 0.02587 0.0
C856 C 0.5343 0.46987 0.02276 0.0
C857 C 0.5 0.44757 0.02404 0.0
C858 C 0.52307 0.43583 0.0261 0.0
C859 C 0.53872 0.45489 0.02473 0.0
O860 O 0.4944 0.48377 0.03617 0.0
O861 O 0.48614 0.49507 0.00934 0.0
O862 O 0.4965 0.5268 0.00517 0.0
O863 O 0.52043 0.52506 0.01725 0.0
O864 O 0.4775 0.47124 0.02056 0.0
O865 O 0.5223 0.51078 0.03548 0.0
O866 O 0.50758 0.51652 0.97205 0.0
O867 O 0.51725 0.50314 0.99907 0.0
O868 O 0.5066 0.47104 0.00371 0.0
O869 O 0.4836 0.47322 0.99082 0.0
O870 O 0.52582 0.52697 0.98786 0.0
O871 O 0.48223 0.48743 0.97305 0.0
C872 C 0.47122 0.4803 0.01364 0.0
C873 C 0.51293 0.49424 0.05474 0.0
C874 C 0.5112 0.49569 0.07748 0.0
C875 C 0.50856 0.50144 0.06552 0.0
C876 C 0.51877 0.48286 0.07828 0.0
C877 C 0.52075 0.48182 0.05581 0.0
C878 C 0.52371 0.47623 0.06755 0.0
C879 C 0.51038 0.53372 0.01393 0.0
C880 C 0.50779 0.49864 0.04248 0.0
C881 C 0.55854 0.45946 0.02555 0.0
C882 C 0.57377 0.47888 0.02487 0.0
C883 C 0.53216 0.51789 0.99471 0.0
C884 C 0.48766 0.50417 0.95404 0.0
C885 C 0.49496 0.50146 0.94273 0.0
C886 C 0.4885 0.50506 0.9313 0.0
C887 C 0.47452 0.51132 0.93138 0.0
C888 C 0.4737 0.51036 0.95394 0.0
C889 C 0.46716 0.51389 0.94264 0.0
C890 C 0.4929 0.46409 0.99483 0.0
C891 C 0.49515 0.50095 0.96583 0.0
H892 H 0.50291 0.51135 0.06448 0.0
H893 H 0.52049 0.47748 0.08717 0.0
H894 H 0.52416 0.47613 0.04759 0.0
H895 H 0.52947 0.46638 0.06833 0.0
H896 H 0.50592 0.49688 0.94286 0.0
H897 H 0.46909 0.51399 0.92274 0.0
H898 H 0.46792 0.51252 0.96255 0.0
H899 H 0.45636 0.51865 0.94261 0.0
Eu900 Eu 0.15986 0.31721 0.32149 0.0
C901 C 0.19687 0.39045 0.35612 0.0
C902 C 0.2318 0.40098 0.35599 0.0
C903 C 0.22112 0.42479 0.35854 0.0
C904 C 0.21186 0.38609 0.35506 0.0
C905 C 0.20129 0.40977 0.35825 0.0
C906 C 0.23636 0.42041 0.35738 0.0
C907 C 0.16632 0.39767 0.36084 0.0
N908 N 0.17791 0.37558 0.35588 0.0
C909 C 0.16268 0.37875 0.35865 0.0
C910 C 0.18569 0.41329 0.36043 0.0
Eu911 Eu 0.17281 0.34411 0.35163 0.0
N912 N 0.20691 0.36715 0.35388 0.0
C913 C 0.22112 0.36195 0.35463 0.0
C914 C 0.24652 0.39583 0.35591 0.0
C915 C 0.24113 0.3762 0.35546 0.0
H916 H 0.14768 0.36671 0.35883 0.0
H917 H 0.25237 0.37202 0.35568 0.0
H918 H 0.25159 0.43208 0.35797 0.0
H919 H 0.15418 0.40019 0.36276 0.0
H920 H 0.21718 0.34685 0.35419 0.0
H921 H 0.08013 0.28751 0.31706 0.0
H922 H 0.26202 0.40683 0.35656 0.0
H923 H 0.18639 0.29681 0.31289 0.0
H924 H 0.11484 0.31298 0.32022 0.0
H925 H 0.18127 0.26445 0.30702 0.0
H926 H 0.22484 0.43977 0.36001 0.0
H927 H 0.07176 0.25354 0.3131 0.0
H928 H 0.08341 0.22957 0.30941 0.0
H929 H 0.18847 0.42793 0.36213 0.0
H930 H 0.11083 0.22305 0.30723 0.0
N931 N 0.12602 0.29343 0.31904 0.0
C932 C 0.11142 0.29815 0.3188 0.0
C933 C 0.08698 0.26453 0.31487 0.0
C934 C 0.10209 0.25995 0.31445 0.0
C935 C 0.09168 0.28374 0.31699 0.0
C936 C 0.12173 0.27493 0.31659 0.0
H937 H 0.14742 0.23601 0.30617 0.0
N938 N 0.15589 0.28656 0.31601 0.0
C939 C 0.16874 0.26615 0.30935 0.0
C940 C 0.13719 0.27135 0.31509 0.0
C941 C 0.17159 0.28444 0.31269 0.0
C942 C 0.14963 0.25012 0.30894 0.0
C943 C 0.13352 0.25269 0.31152 0.0
O944 O 0.17718 0.32529 0.30435 0.0
O945 O 0.18209 0.34304 0.33225 0.0
O946 O 0.16895 0.3628 0.33736 0.0
O947 O 0.1489 0.33905 0.32278 0.0
O948 O 0.193 0.32927 0.32124 0.0
O949 O 0.14935 0.3249 0.30471 0.0
O950 O 0.15632 0.3388 0.36897 0.0
O951 O 0.15048 0.31794 0.34103 0.0
O952 O 0.16523 0.29864 0.3351 0.0
O953 O 0.18268 0.32144 0.35099 0.0
O954 O 0.13971 0.33214 0.35181 0.0
O955 O 0.18265 0.3363 0.36862 0.0
C956 C 0.1978 0.34385 0.32862 0.0
C957 C 0.15919 0.31793 0.28548 0.0
C958 C 0.16255 0.32045 0.26282 0.0
C959 C 0.16682 0.32929 0.27473 0.0
C960 C 0.15051 0.3001 0.26187 0.0
C961 C 0.14711 0.29771 0.28429 0.0
C962 C 0.14284 0.28886 0.27254 0.0
C963 C 0.15686 0.35686 0.32759 0.0
C964 C 0.16414 0.32725 0.29788 0.0
C965 C 0.11396 0.23749 0.30998 0.0
C966 C 0.0983 0.24117 0.31133 0.0
C967 C 0.13479 0.31725 0.34468 0.0
C968 C 0.17479 0.34572 0.38768 0.0
C969 C 0.16886 0.33477 0.39869 0.0
C970 C 0.17475 0.34405 0.41045 0.0
C971 C 0.1865 0.36447 0.41095 0.0
C972 C 0.18661 0.36602 0.38842 0.0
C973 C 0.19237 0.37532 0.40001 0.0
C974 C 0.17623 0.30433 0.34539 0.0
C975 C 0.16868 0.33581 0.37549 0.0
H976 H 0.17623 0.34493 0.27565 0.0
H977 H 0.14674 0.29289 0.25285 0.0
H978 H 0.14097 0.28876 0.29241 0.0
H979 H 0.13349 0.27323 0.27169 0.0
H980 H 0.15995 0.31905 0.39807 0.0
H981 H 0.191 0.37213 0.41981 0.0
H982 H 0.19138 0.37466 0.38007 0.0
H983 H 0.20141 0.39101 0.40052 0.0
Eu984 Eu 0.68171 0.84002 0.32624 0.0
C985 C 0.60503 0.79995 0.35683 0.0
C986 C 0.59464 0.82384 0.35965 0.0
C987 C 0.57042 0.78933 0.36055 0.0
C988 C 0.60959 0.81923 0.35732 0.0
C989 C 0.5854 0.7848 0.3585 0.0
C990 C 0.57511 0.80879 0.36136 0.0
C991 C 0.59728 0.76191 0.35809 0.0
N992 N 0.62004 0.79606 0.35583 0.0
C993 C 0.61658 0.77744 0.35688 0.0
C994 C 0.58159 0.76559 0.35882 0.0
Eu995 Eu 0.65231 0.82317 0.35459 0.0
N996 N 0.62882 0.83345 0.35651 0.0
C997 C 0.63414 0.85253 0.35815 0.0
C998 C 0.59991 0.84343 0.36079 0.0
C999 C 0.61975 0.85784 0.36003 0.0
H1000 H 0.62872 0.77459 0.35651 0.0
H1001 H 0.62402 0.87301 0.36111 0.0
H1002 H 0.56362 0.81204 0.36375 0.0
H1003 H 0.59455 0.74715 0.35863 0.0
H1004 H 0.6495 0.86375 0.35792 0.0
H1005 H 0.70721 0.7869 0.32128 0.0
H1006 H 0.58885 0.84757 0.36256 0.0
H1007 H 0.70676 0.88754 0.31951 0.0
H1008 H 0.68267 0.79704 0.32334 0.0
H1009 H 0.74142 0.91363 0.31681 0.0
H1010 H 0.5553 0.77792 0.36204 0.0
H1011 H 0.74276 0.81144 0.32044 0.0
H1012 H 0.76926 0.84625 0.32063 0.0
H1013 H 0.5667 0.75356 0.36004 0.0
H1014 H 0.77866 0.88074 0.31969 0.0
N1015 N 0.70374 0.82754 0.32426 0.0
C1016 C 0.69796 0.80821 0.32313 0.0
C1017 C 0.73198 0.81608 0.32162 0.0
C1018 C 0.73787 0.83583 0.32224 0.0
C1019 C 0.71195 0.80224 0.32197 0.0
C1020 C 0.72325 0.84125 0.32336 0.0
H1021 H 0.76841 0.90593 0.31805 0.0
N1022 N 0.71425 0.86562 0.32292 0.0
C1023 C 0.73807 0.89888 0.3186 0.0
C1024 C 0.72864 0.86079 0.32281 0.0
C1025 C 0.71849 0.8841 0.32014 0.0
C1026 C 0.75325 0.89448 0.31934 0.0
C1027 C 0.74862 0.8752 0.32115 0.0
O1028 O 0.65992 0.83124 0.31107 0.0
O1029 O 0.65508 0.83642 0.33597 0.0
O1030 O 0.63468 0.80383 0.33845 0.0
O1031 O 0.66013 0.80726 0.32567 0.0
O1032 O 0.67219 0.86276 0.32751 0.0
O1033 O 0.69084 0.8461 0.30676 0.0
O1034 O 0.65334 0.8088 0.37164 0.0
O1035 O 0.6803 0.82865 0.34544 0.0
O1036 O 0.69801 0.8642 0.34043 0.0
O1037 O 0.67604 0.85508 0.35717 0.0
O1038 O 0.66466 0.80267 0.35467 0.0
O1039 O 0.65742 0.83791 0.37262 0.0
C1040 C 0.65581 0.85224 0.33334 0.0
C1041 C 0.67 0.85147 0.29344 0.0
C1042 C 0.66279 0.85683 0.27217 0.0
C1043 C 0.66536 0.84523 0.28101 0.0
C1044 C 0.6646 0.87463 0.276 0.0
C1045 C 0.67201 0.86941 0.29705 0.0
C1046 C 0.66915 0.88083 0.28838 0.0
C1047 C 0.64139 0.79774 0.3292 0.0
C1048 C 0.67303 0.83923 0.3024 0.0
C1049 C 0.76323 0.86985 0.3208 0.0
C1050 C 0.75787 0.85021 0.32132 0.0
C1051 C 0.68071 0.81361 0.34871 0.0
C1052 C 0.64301 0.81769 0.38999 0.0
C1053 C 0.65185 0.82373 0.4018 0.0
C1054 C 0.6401 0.81901 0.41254 0.0
C1055 C 0.6194 0.80824 0.41129 0.0
C1056 C 0.62236 0.80677 0.38896 0.0
C1057 C 0.61062 0.80215 0.39955 0.0
C1058 C 0.69265 0.86743 0.35148 0.0
C1059 C 0.65557 0.82304 0.37889 0.0
H1060 H 0.66419 0.83155 0.27818 0.0
H1061 H 0.66242 0.88373 0.26943 0.0
H1062 H 0.67592 0.87475 0.30648 0.0
H1063 H 0.6706 0.89459 0.29125 0.0
H1064 H 0.66782 0.83222 0.40261 0.0
H1065 H 0.61001 0.80421 0.41941 0.0
H1066 H 0.61526 0.80172 0.38005 0.0
H1067 H 0.59468 0.79371 0.39865 0.0
Eu1068 Eu 0.1814 0.82802 0.3521 0.0
C1069 C 0.13841 0.86355 0.32238 0.0
C1070 C 0.10364 0.83972 0.32423 0.0
C1071 C 0.11399 0.87404 0.32245 0.0
C1072 C 0.12361 0.84445 0.32373 0.0
C1073 C 0.13376 0.87854 0.32143 0.0
C1074 C 0.09896 0.85466 0.32387 0.0
C1075 C 0.16832 0.90099 0.31754 0.0
N1076 N 0.15731 0.86737 0.32139 0.0
C1077 C 0.17218 0.88564 0.31856 0.0
C1078 C 0.14908 0.89751 0.31917 0.0
Eu1079 Eu 0.16291 0.84089 0.32395 0.0
N1080 N 0.12866 0.8304 0.32402 0.0
C1081 C 0.11439 0.8112 0.32386 0.0
C1082 C 0.08899 0.8201 0.32481 0.0
C1083 C 0.09439 0.80577 0.32443 0.0
H1084 H 0.18711 0.88844 0.3174 0.0
H1085 H 0.08316 0.79054 0.32466 0.0
H1086 H 0.08372 0.85133 0.32439 0.0
H1087 H 0.18019 0.91547 0.31547 0.0
H1088 H 0.11837 0.79999 0.32368 0.0
H1089 H 0.26101 0.87718 0.35476 0.0
H1090 H 0.07349 0.81585 0.32528 0.0
H1091 H 0.15545 0.77981 0.35711 0.0
H1092 H 0.22614 0.86829 0.35302 0.0
H1093 H 0.16151 0.75233 0.35965 0.0
H1094 H 0.11013 0.88537 0.32188 0.0
H1095 H 0.27012 0.85144 0.35615 0.0
H1096 H 0.25925 0.81589 0.35694 0.0
H1097 H 0.14615 0.90944 0.31837 0.0
H1098 H 0.23218 0.78193 0.35814 0.0
N1099 N 0.21534 0.83779 0.35316 0.0
C1100 C 0.22982 0.85689 0.35355 0.0
C1101 C 0.25473 0.84746 0.35524 0.0
C1102 C 0.2398 0.82791 0.35517 0.0
C1103 C 0.24968 0.86201 0.3545 0.0
C1104 C 0.21995 0.82349 0.35426 0.0
H1105 H 0.19572 0.75812 0.35926 0.0
N1106 N 0.18585 0.80084 0.35484 0.0
C1107 C 0.17381 0.7669 0.35833 0.0
C1108 C 0.20475 0.80442 0.35504 0.0
C1109 C 0.17043 0.78251 0.3569 0.0
C1110 C 0.19313 0.77022 0.35806 0.0
C1111 C 0.20892 0.78919 0.35661 0.0
O1112 O 0.166 0.81877 0.36979 0.0
O1113 O 0.15709 0.8312 0.34364 0.0
O1114 O 0.16852 0.86321 0.33887 0.0
O1115 O 0.1918 0.8606 0.35117 0.0
O1116 O 0.14854 0.80693 0.35441 0.0
O1117 O 0.19458 0.84506 0.36916 0.0
O1118 O 0.17636 0.85101 0.30572 0.0
O1119 O 0.18747 0.8382 0.33248 0.0
O1120 O 0.17695 0.8064 0.33694 0.0
O1121 O 0.15323 0.80847 0.32479 0.0
O1122 O 0.19577 0.86181 0.32115 0.0
O1123 O 0.15 0.82272 0.30734 0.0
C1124 C 0.14223 0.81651 0.34806 0.0
C1125 C 0.18526 0.82738 0.38804 0.0
C1126 C 0.1828 0.82604 0.41078 0.0
C1127 C 0.18032 0.83303 0.39924 0.0
C1128 C 0.19085 0.81359 0.41078 0.0
C1129 C 0.1935 0.81525 0.38829 0.0
C1130 C 0.19635 0.80847 0.39963 0.0
C1131 C 0.18261 0.87 0.34749 0.0
C1132 C 0.18009 0.83294 0.37619 0.0
C1133 C 0.22867 0.79344 0.35701 0.0
C1134 C 0.24408 0.81277 0.35633 0.0
C1135 C 0.20227 0.85275 0.32787 0.0
C1136 C 0.15484 0.8395 0.28839 0.0
C1137 C 0.1614 0.83689 0.27677 0.0
C1138 C 0.15447 0.84089 0.26567 0.0
C1139 C 0.14084 0.84756 0.2664 0.0
C1140 C 0.14121 0.84608 0.28895 0.0
C1141 C 0.13426 0.85009 0.27798 0.0
C1142 C 0.16281 0.79939 0.32835 0.0
C1143 C 0.16277 0.83573 0.2998 0.0
H1144 H 0.17435 0.84275 0.39884 0.0
H1145 H 0.19255 0.80739 0.41933 0.0
H1146 H 0.19736 0.81073 0.37974 0.0
H1147 H 0.20247 0.79888 0.39978 0.0
H1148 H 0.17213 0.83204 0.2764 0.0
H1149 H 0.13507 0.85056 0.25803 0.0
H1150 H 0.13599 0.84815 0.29782 0.0
H1151 H 0.12372 0.85515 0.27845 0.0
Eu1152 Eu 0.8295 0.65562 0.65625 0.0
C1153 C 0.87552 0.72956 0.69103 0.0
C1154 C 0.90954 0.73792 0.68804 0.0
C1155 C 0.9018 0.76324 0.69315 0.0
C1156 C 0.8892 0.72402 0.68822 0.0
C1157 C 0.88168 0.74913 0.69397 0.0
C1158 C 0.91572 0.75765 0.69015 0.0
C1159 C 0.848 0.7389 0.69968 0.0
N1160 N 0.8563 0.71553 0.69185 0.0
C1161 C 0.84267 0.7197 0.69664 0.0
C1162 C 0.86754 0.75375 0.69811 0.0
Eu1163 Eu 0.84787 0.68344 0.68614 0.0
N1164 N 0.88268 0.70481 0.68645 0.0
C1165 C 0.8959 0.69835 0.68554 0.0
C1166 C 0.92308 0.73149 0.68618 0.0
C1167 C 0.91623 0.71157 0.68516 0.0
H1168 H 0.82751 0.70826 0.69777 0.0
H1169 H 0.92659 0.70638 0.68404 0.0
H1170 H 0.93126 0.76858 0.68989 0.0
H1171 H 0.83703 0.74222 0.70318 0.0
H1172 H 0.89088 0.68303 0.68468 0.0
H1173 H 0.75163 0.63412 0.65121 0.0
H1174 H 0.93882 0.7417 0.68591 0.0
H1175 H 0.85166 0.6295 0.65075 0.0
H1176 H 0.78706 0.65681 0.65434 0.0
H1177 H 0.84242 0.59518 0.647 0.0
H1178 H 0.90682 0.7784 0.69521 0.0
H1179 H 0.73932 0.59882 0.64859 0.0
H1180 H 0.74675 0.57154 0.64733 0.0
H1181 H 0.87166 0.7686 0.7005 0.0
H1182 H 0.77143 0.5609 0.64639 0.0
N1183 N 0.79501 0.63475 0.65385 0.0
C1184 C 0.78201 0.64151 0.65332 0.0
C1185 C 0.75494 0.60875 0.65015 0.0
C1186 C 0.76839 0.60197 0.65037 0.0
C1187 C 0.76181 0.62863 0.65156 0.0
C1188 C 0.78864 0.61554 0.6521 0.0
H1189 H 0.80714 0.56961 0.64619 0.0
N1190 N 0.82192 0.62322 0.6524 0.0
C1191 C 0.83105 0.599 0.64832 0.0
C1192 C 0.80251 0.60957 0.65146 0.0
C1193 C 0.83623 0.6184 0.65039 0.0
C1194 C 0.81111 0.58462 0.64788 0.0
C1195 C 0.79654 0.58985 0.64922 0.0
O1196 O 0.84491 0.65945 0.63863 0.0
O1197 O 0.85387 0.68126 0.66604 0.0
O1198 O 0.84115 0.70225 0.6735 0.0
O1199 O 0.82166 0.67961 0.65795 0.0
O1200 O 0.86208 0.66553 0.65462 0.0
O1201 O 0.82023 0.66464 0.63952 0.0
O1202 O 0.83306 0.67701 0.70418 0.0
O1203 O 0.82297 0.65882 0.67597 0.0
O1204 O 0.83116 0.63602 0.67076 0.0
O1205 O 0.85587 0.65961 0.68342 0.0
O1206 O 0.81535 0.67373 0.68852 0.0
O1207 O 0.85893 0.67417 0.70192 0.0
C1208 C 0.86855 0.68097 0.66146 0.0
C1209 C 0.82638 0.65436 0.62016 0.0
C1210 C 0.82788 0.65634 0.5974 0.0
C1211 C 0.83394 0.66527 0.60924 0.0
C1212 C 0.81398 0.63631 0.59672 0.0
C1213 C 0.81256 0.63445 0.61925 0.0
C1214 C 0.80639 0.6255 0.60758 0.0
C1215 C 0.82901 0.69674 0.6637 0.0
C1216 C 0.83333 0.66388 0.6324 0.0
C1217 C 0.77632 0.57614 0.64803 0.0
C1218 C 0.76227 0.5822 0.64857 0.0
C1219 C 0.80849 0.6594 0.68067 0.0
C1220 C 0.85307 0.68265 0.72196 0.0
C1221 C 0.84627 0.67141 0.73283 0.0
C1222 C 0.85282 0.6801 0.74471 0.0
C1223 C 0.86622 0.70026 0.74545 0.0
C1224 C 0.86655 0.70264 0.72295 0.0
C1225 C 0.87304 0.71137 0.73465 0.0
C1226 C 0.84495 0.64137 0.67949 0.0
C1227 C 0.84577 0.67342 0.70967 0.0
H1228 H 0.84472 0.68062 0.60998 0.0
H1229 H 0.80874 0.62902 0.58779 0.0
H1230 H 0.80658 0.62584 0.62754 0.0
H1231 H 0.79566 0.61013 0.60693 0.0
H1232 H 0.83606 0.65591 0.73198 0.0
H1233 H 0.87128 0.70756 0.75439 0.0
H1234 H 0.87201 0.71148 0.7147 0.0
H1235 H 0.88334 0.72685 0.73535 0.0
Eu1236 Eu 0.35252 0.17608 0.65865 0.0
C1237 C 0.2711 0.14183 0.68721 0.0
C1238 C 0.26051 0.16551 0.68444 0.0
C1239 C 0.23624 0.13189 0.68884 0.0
C1240 C 0.27561 0.16066 0.68465 0.0
C1241 C 0.25141 0.1273 0.68956 0.0
C1242 C 0.24077 0.15094 0.68622 0.0
C1243 C 0.26346 0.1055 0.69488 0.0
N1244 N 0.2862 0.13814 0.68854 0.0
C1245 C 0.28277 0.12053 0.69279 0.0
C1246 C 0.24767 0.10883 0.69313 0.0
Eu1247 Eu 0.31864 0.16441 0.68558 0.0
N1248 N 0.29492 0.17459 0.68371 0.0
C1249 C 0.30019 0.19378 0.68353 0.0
C1250 C 0.2658 0.18506 0.68324 0.0
C1251 C 0.28575 0.19929 0.68305 0.0
H1252 H 0.29495 0.11796 0.69432 0.0
H1253 H 0.29005 0.21452 0.68257 0.0
H1254 H 0.22899 0.1544 0.68601 0.0
H1255 H 0.26079 0.09142 0.69795 0.0
H1256 H 0.31557 0.20494 0.68356 0.0
H1257 H 0.3696 0.11727 0.66321 0.0
H1258 H 0.25465 0.18939 0.68301 0.0
H1259 H 0.38341 0.2224 0.65115 0.0
H1260 H 0.34828 0.13149 0.6601 0.0
H1261 H 0.4194 0.24594 0.65124 0.0
H1262 H 0.22102 0.12091 0.69057 0.0
H1263 H 0.40575 0.13862 0.66571 0.0
H1264 H 0.43519 0.1724 0.66574 0.0
H1265 H 0.23275 0.09727 0.69496 0.0
H1266 H 0.44877 0.20754 0.66276 0.0
N1267 N 0.37197 0.16085 0.66094 0.0
C1268 C 0.364 0.1411 0.66104 0.0
C1269 C 0.39645 0.145 0.66426 0.0
C1270 C 0.40464 0.16517 0.66348 0.0
C1271 C 0.37606 0.13291 0.66283 0.0
C1272 C 0.39186 0.17273 0.66167 0.0
H1273 H 0.44302 0.2351 0.65719 0.0
N1274 N 0.38678 0.19896 0.65761 0.0
C1275 C 0.41401 0.23097 0.65385 0.0
C1276 C 0.39949 0.19245 0.66008 0.0
C1277 C 0.3937 0.21766 0.65381 0.0
C1278 C 0.42729 0.2248 0.65724 0.0
C1279 C 0.42012 0.20522 0.66011 0.0
O1280 O 0.35485 0.18875 0.64028 0.0
O1281 O 0.32465 0.17364 0.66571 0.0
O1282 O 0.30175 0.14048 0.67147 0.0
O1283 O 0.32686 0.14465 0.65772 0.0
O1284 O 0.34163 0.19724 0.65465 0.0
O1285 O 0.34651 0.15839 0.64183 0.0
O1286 O 0.32142 0.15553 0.70437 0.0
O1287 O 0.34681 0.1676 0.67854 0.0
O1288 O 0.36784 0.20077 0.67251 0.0
O1289 O 0.34183 0.19677 0.68535 0.0
O1290 O 0.33045 0.14403 0.68977 0.0
O1291 O 0.32245 0.18305 0.7016 0.0
C1292 C 0.32519 0.18819 0.66063 0.0
C1293 C 0.36369 0.17492 0.62382 0.0
C1294 C 0.36801 0.17435 0.60135 0.0
C1295 C 0.35616 0.17252 0.61166 0.0
C1296 C 0.38759 0.17861 0.60343 0.0
C1297 C 0.38321 0.1791 0.62574 0.0
C1298 C 0.39509 0.18097 0.61557 0.0
C1299 C 0.30861 0.13468 0.66212 0.0
C1300 C 0.35086 0.17283 0.63432 0.0
C1301 C 0.43289 0.19792 0.66254 0.0
C1302 C 0.42516 0.17792 0.66421 0.0
C1303 C 0.34683 0.15349 0.68383 0.0
C1304 C 0.30894 0.16654 0.72042 0.0
C1305 C 0.3162 0.16666 0.73241 0.0
C1306 C 0.30401 0.16264 0.74288 0.0
C1307 C 0.28434 0.15829 0.74112 0.0
C1308 C 0.28937 0.16239 0.71887 0.0
C1309 C 0.27711 0.15819 0.72918 0.0
C1310 C 0.3602 0.20692 0.68118 0.0
C1311 C 0.32197 0.17061 0.70969 0.0
H1312 H 0.34093 0.16892 0.61028 0.0
H1313 H 0.39716 0.18032 0.59569 0.0
H1314 H 0.38921 0.18087 0.63506 0.0
H1315 H 0.41017 0.18426 0.61709 0.0
H1316 H 0.33146 0.17023 0.73357 0.0
H1317 H 0.2745 0.15487 0.74897 0.0
H1318 H 0.28357 0.16245 0.70974 0.0
H1319 H 0.26198 0.15489 0.72791 0.0
Eu1320 Eu 0.84682 0.16252 0.68593 0.0
C1321 C 0.79519 0.18898 0.65618 0.0
C1322 C 0.76185 0.16255 0.65944 0.0
C1323 C 0.76788 0.19547 0.65673 0.0
C1324 C 0.78231 0.16951 0.65832 0.0
C1325 C 0.78808 0.2021 0.65499 0.0
C1326 C 0.75479 0.17571 0.65895 0.0
C1327 C 0.82099 0.22681 0.64912 0.0
N1328 N 0.81456 0.19488 0.65451 0.0
C1329 C 0.82728 0.21319 0.65037 0.0
C1330 C 0.80137 0.22134 0.65168 0.0
Eu1331 Eu 0.82464 0.17162 0.65767 0.0
N1332 N 0.78968 0.15723 0.65882 0.0
C1333 C 0.77715 0.13758 0.65945 0.0
C1334 C 0.74909 0.14255 0.6608 0.0
C1335 C 0.75676 0.12999 0.66059 0.0
H1336 H 0.84251 0.21746 0.6485 0.0
H1337 H 0.74698 0.11445 0.66142 0.0
H1338 H 0.73917 0.17068 0.65998 0.0
H1339 H 0.83128 0.24151 0.64623 0.0
H1340 H 0.78273 0.12761 0.65944 0.0
H1341 H 0.9254 0.21542 0.67995 0.0
H1342 H 0.7333 0.13663 0.66175 0.0
H1343 H 0.82683 0.11765 0.69729 0.0
H1344 H 0.89013 0.2046 0.68258 0.0
H1345 H 0.83605 0.09242 0.70103 0.0
H1346 H 0.76217 0.20538 0.65603 0.0
H1347 H 0.93689 0.19148 0.68044 0.0
H1348 H 0.9289 0.157 0.68387 0.0
H1349 H 0.79651 0.2319 0.6507 0.0
H1350 H 0.90455 0.12342 0.68966 0.0
N1351 N 0.88136 0.1746 0.68419 0.0
C1352 C 0.89482 0.19393 0.68289 0.0
C1353 C 0.92133 0.18661 0.68162 0.0
C1354 C 0.90768 0.16703 0.68382 0.0
C1355 C 0.9149 0.20017 0.68137 0.0
C1356 C 0.88757 0.16145 0.68519 0.0
H1357 H 0.86995 0.09928 0.69634 0.0
N1358 N 0.85497 0.13814 0.69019 0.0
C1359 C 0.84682 0.10642 0.69735 0.0
C1360 C 0.87391 0.14259 0.68829 0.0
C1361 C 0.84165 0.12071 0.69525 0.0
C1362 C 0.86595 0.11034 0.69466 0.0
C1363 C 0.8799 0.12874 0.6903 0.0
O1364 O 0.83415 0.15479 0.70457 0.0
O1365 O 0.82149 0.1643 0.67781 0.0
O1366 O 0.83248 0.19648 0.67116 0.0
O1367 O 0.85551 0.19441 0.68421 0.0
O1368 O 0.81443 0.14168 0.68996 0.0
O1369 O 0.86106 0.18216 0.70175 0.0
O1370 O 0.83663 0.1824 0.63919 0.0
O1371 O 0.84992 0.16969 0.66568 0.0
O1372 O 0.83797 0.13658 0.67333 0.0
O1373 O 0.8174 0.13999 0.6587 0.0
O1374 O 0.85701 0.19274 0.65391 0.0
O1375 O 0.813 0.15261 0.64135 0.0
C1376 C 0.80732 0.15021 0.68323 0.0
C1377 C 0.85624 0.16763 0.72155 0.0
C1378 C 0.8563 0.16781 0.74432 0.0
C1379 C 0.84913 0.17053 0.73289 0.0
C1380 C 0.87071 0.16208 0.74419 0.0
C1381 C 0.87058 0.16193 0.7216 0.0
C1382 C 0.87775 0.15917 0.73289 0.0
C1383 C 0.84636 0.2035 0.67995 0.0
C1384 C 0.84829 0.17042 0.70982 0.0
C1385 C 0.8997 0.13392 0.68833 0.0
C1386 C 0.91357 0.15304 0.68505 0.0
C1387 C 0.86409 0.18382 0.66028 0.0
C1388 C 0.8149 0.16778 0.62214 0.0
C1389 C 0.82293 0.1673 0.61056 0.0
C1390 C 0.81392 0.16827 0.59941 0.0
C1391 C 0.79681 0.1699 0.60003 0.0
C1392 C 0.79791 0.16954 0.62261 0.0
C1393 C 0.78895 0.17062 0.61158 0.0
C1394 C 0.82499 0.13008 0.66402 0.0
C1395 C 0.82434 0.16614 0.63356 0.0
H1396 H 0.83819 0.17515 0.73277 0.0
H1397 H 0.87636 0.15962 0.75281 0.0
H1398 H 0.8762 0.15964 0.71294 0.0
H1399 H 0.88879 0.15471 0.7329 0.0
H1400 H 0.83596 0.16576 0.61024 0.0
H1401 H 0.78963 0.17079 0.5916 0.0
H1402 H 0.79155 0.16995 0.63147 0.0
H1403 H 0.77582 0.17195 0.61197 0.0
H1404 H 0.33388 0.86739 0.07916 0.0
H1405 H 0.36312 0.89032 0.0675 0.0
H1406 H 0.32925 0.87187 0.03327 0.0
H1407 H 0.29991 0.84915 0.04484 0.0
H1408 H 0.3651 0.87462 0.03057 0.0
H1409 H 0.33956 0.91425 0.04709 0.0
H1410 H 0.32828 0.92795 0.06369 0.0
H1411 H 0.38524 0.95303 0.08154 0.0
H1412 H 0.39678 0.93924 0.06512 0.0
H1413 H 0.43697 0.98431 0.01126 0.0
H1414 H 0.40559 0.95726 0.01835 0.0
H1415 H 0.43311 0.92201 0.02257 0.0
H1416 H 0.46408 0.94869 0.01468 0.0
H1417 H 0.40003 0.94527 0.04027 0.0
H1418 H 0.40681 0.88085 0.02704 0.0
H1419 H 0.41309 0.86401 0.00974 0.0
H1420 H 0.38823 0.88703 0.98374 0.0
H1421 H 0.38276 0.90478 1.00082 0.0
C1422 C 0.33259 0.86833 0.06916 0.0
C1423 C 0.3145 0.85643 0.06295 0.0
C1424 C 0.34935 0.88139 0.06251 0.0
C1425 C 0.34834 0.88287 0.04952 0.0
C1426 C 0.33039 0.87089 0.04328 0.0
C1427 C 0.31364 0.85787 0.04992 0.0
C1428 C 0.3659 0.89702 0.0424 0.0
C1429 C 0.37274 0.8901 0.03267 0.0
C1430 C 0.37585 0.91719 0.04509 0.0
C1431 C 0.36896 0.92555 0.05495 0.0
C1432 C 0.34963 0.92256 0.05461 0.0
C1433 C 0.3432 0.93036 0.06397 0.0
C1434 C 0.35602 0.94131 0.07368 0.0
C1435 C 0.37532 0.94452 0.07403 0.0
C1436 C 0.38182 0.93673 0.06469 0.0
C1437 C 0.43603 0.97049 0.01325 0.0
C1438 C 0.45283 0.96851 0.01235 0.0
C1439 C 0.41814 0.95506 0.01738 0.0
C1440 C 0.41682 0.93747 0.02109 0.0
C1441 C 0.43341 0.93513 0.01952 0.0
C1442 C 0.45122 0.95047 0.01506 0.0
C1443 C 0.39915 0.92301 0.02814 0.0
C1444 C 0.3924 0.92984 0.03805 0.0
C1445 C 0.38916 0.90279 0.02553 0.0
C1446 C 0.39467 0.8943 0.01512 0.0
C1447 C 0.40308 0.8826 0.01758 0.0
C1448 C 0.40654 0.87296 0.00783 0.0
C1449 C 0.40117 0.87455 0.99564 0.0
C1450 C 0.39263 0.88604 0.99316 0.0
C1451 C 0.3896 0.8961 0.00284 0.0
H1452 H 0.40357 0.86683 0.98812 0.0
H1453 H 0.35101 0.94734 0.08093 0.0
H1454 H 0.17033 0.48717 0.05612 0.0
H1455 H 0.14442 0.49109 0.04596 0.0
H1456 H 0.10002 0.43607 0.06077 0.0
H1457 H 0.12586 0.43179 0.07066 0.0
H1458 H 0.09238 0.43922 0.03683 0.0
H1459 H 0.10823 0.47894 0.07359 0.0
H1460 H 0.12994 0.50462 0.08853 0.0
H1461 H 0.14719 0.54753 0.05986 0.0
H1462 H 0.12578 0.52205 0.0447 0.0
H1463 H 0.00874 0.44927 0.02338 0.0
H1464 H 0.03468 0.44414 0.03192 0.0
H1465 H 0.07792 0.50393 0.02409 0.0
H1466 H 0.05144 0.50958 0.01713 0.0
H1467 H 0.08643 0.49773 0.04456 0.0
H1468 H 0.07459 0.45643 0.00707 0.0
H1469 H 0.05375 0.42998 0.99218 0.0
H1470 H 0.02892 0.38996 0.02248 0.0
H1471 H 0.04988 0.4161 0.03744 0.0
C1472 C 0.15507 0.47582 0.05714 0.0
C1473 C 0.1502 0.45919 0.06426 0.0
C1474 C 0.14025 0.47817 0.05142 0.0
C1475 C 0.12023 0.46398 0.05271 0.0
C1476 C 0.11534 0.44726 0.05967 0.0
C1477 C 0.13014 0.44491 0.06541 0.0
C1478 C 0.10438 0.46648 0.04676 0.0
C1479 C 0.09099 0.45197 0.03857 0.0
C1480 C 0.10267 0.4832 0.04888 0.0
C1481 C 0.11556 0.49855 0.05798 0.0
C1482 C 0.11678 0.49382 0.07045 0.0
C1483 C 0.12901 0.50835 0.07896 0.0
C1484 C 0.13998 0.52769 0.07514 0.0
C1485 C 0.13871 0.53254 0.0628 0.0
C1486 C 0.12652 0.51807 0.05425 0.0
C1487 C 0.02386 0.46124 0.02333 0.0
C1488 C 0.02813 0.47966 0.01913 0.0
C1489 C 0.03883 0.45821 0.02805 0.0
C1490 C 0.05864 0.4734 0.02833 0.0
C1491 C 0.0629 0.49181 0.02396 0.0
C1492 C 0.04777 0.49501 0.01972 0.0
C1493 C 0.07457 0.47071 0.03422 0.0
C1494 C 0.08792 0.48511 0.04257 0.0
C1495 C 0.07625 0.45387 0.03224 0.0
C1496 C 0.06347 0.43826 0.02332 0.0
C1497 C 0.0645 0.44203 0.01051 0.0
C1498 C 0.05277 0.42709 0.00208 0.0
C1499 C 0.03985 0.40837 0.0064 0.0
C1500 C 0.03885 0.40448 0.01914 0.0
C1501 C 0.05074 0.41932 0.02758 0.0
H1502 H 0.03071 0.39686 0.99986 0.0
H1503 H 0.14944 0.53892 0.08175 0.0
H1504 H 0.58662 0.70099 0.06653 0.0
H1505 H 0.57656 0.66914 0.05714 0.0
H1506 H 0.51568 0.65541 0.05717 0.0
H1507 H 0.52564 0.68725 0.06663 0.0
H1508 H 0.52171 0.62473 0.06565 0.0
H1509 H 0.53876 0.6687 0.03112 0.0
H1510 H 0.56029 0.69842 0.01933 0.0
H1511 H 0.60472 0.68173 0.01711 0.0
H1512 H 0.58355 0.65204 0.02906 0.0
H1513 H 0.48568 0.54807 0.01843 0.0
H1514 H 0.49367 0.57816 0.02976 0.0
H1515 H 0.5538 0.59077 0.03474 0.0
H1516 H 0.54582 0.56053 0.0238 0.0
H1517 H 0.54731 0.62159 0.02397 0.0
H1518 H 0.53079 0.57749 0.05772 0.0
H1519 H 0.51107 0.5487 0.07068 0.0
H1520 H 0.46734 0.56582 0.07559 0.0
H1521 H 0.48646 0.5944 0.06229 0.0
C1522 C 0.57108 0.6911 0.06463 0.0
C1523 C 0.5569 0.69657 0.06725 0.0
C1524 C 0.56538 0.673 0.05923 0.0
C1525 C 0.54541 0.66004 0.05642 0.0
C1526 C 0.53116 0.66526 0.05928 0.0
C1527 C 0.53688 0.68345 0.06458 0.0
C1528 C 0.53951 0.64126 0.05018 0.0
C1529 C 0.52699 0.62395 0.05645 0.0
C1530 C 0.54693 0.64044 0.03833 0.0
C1531 C 0.55965 0.65824 0.0311 0.0
C1532 C 0.55319 0.67145 0.02821 0.0
C1533 C 0.56531 0.68827 0.02148 0.0
C1534 C 0.58388 0.69198 0.0175 0.0
C1535 C 0.59034 0.67885 0.02021 0.0
C1536 C 0.57828 0.66201 0.02696 0.0
C1537 C 0.50059 0.5573 0.02194 0.0
C1538 C 0.51518 0.55207 0.02025 0.0
C1539 C 0.50507 0.57434 0.02847 0.0
C1540 C 0.52425 0.58648 0.03313 0.0
C1541 C 0.53888 0.58143 0.03126 0.0
C1542 C 0.53431 0.56422 0.02502 0.0
C1543 C 0.52943 0.605 0.03941 0.0
C1544 C 0.54185 0.62229 0.03313 0.0
C1545 C 0.522 0.60574 0.05128 0.0
C1546 C 0.50993 0.58797 0.05877 0.0
C1547 C 0.51676 0.57493 0.06131 0.0
C1548 C 0.50574 0.55868 0.06879 0.0
C1549 C 0.48797 0.55543 0.07396 0.0
C1550 C 0.48113 0.56837 0.07161 0.0
C1551 C 0.49202 0.58456 0.06404 0.0
H1552 H 0.47948 0.54287 0.07977 0.0
H1553 H 0.59325 0.70502 0.01228 0.0
H1554 H 0.83279 0.30405 0.9557 0.0
H1555 H 0.85684 0.33513 0.96517 0.0
H1556 H 0.90423 0.33178 0.94702 0.0
H1557 H 0.8803 0.3003 0.93784 0.0
H1558 H 0.91422 0.34498 0.97078 0.0
H1559 H 0.88708 0.36002 0.93516 0.0
H1560 H 0.86054 0.3581 0.92161 0.0
H1561 H 0.84048 0.38008 0.95143 0.0
H1562 H 0.86674 0.38187 0.96522 0.0
H1563 H 0.9865 0.44474 0.97993 0.0
H1564 H 0.96394 0.41309 0.97048 0.0
H1565 H 0.91426 0.41476 0.98657 0.0
H1566 H 0.93656 0.44672 0.99554 0.0
H1567 H 0.90627 0.40239 0.96334 0.0
H1568 H 0.93337 0.387 0.99909 0.0
H1569 H 0.9605 0.38967 0.01238 0.0
H1570 H 0.98106 0.36882 0.98221 0.0
H1571 H 0.9542 0.36628 0.96867 0.0
C1572 C 0.84835 0.30975 0.95387 0.0
C1573 C 0.8546 0.29972 0.94595 0.0
C1574 C 0.86207 0.32763 0.9592 0.0
C1575 C 0.88231 0.33592 0.95665 0.0
C1576 C 0.88868 0.3257 0.94906 0.0
C1577 C 0.87496 0.30779 0.94373 0.0
C1578 C 0.89674 0.35548 0.96167 0.0
C1579 C 0.91263 0.35759 0.96904 0.0
C1580 C 0.89451 0.37188 0.95954 0.0
C1581 C 0.87876 0.3709 0.95125 0.0
C1582 C 0.87692 0.3643 0.93886 0.0
C1583 C 0.86194 0.36326 0.93113 0.0
C1584 C 0.84881 0.36892 0.93567 0.0
C1585 C 0.85065 0.37568 0.94793 0.0
C1586 C 0.86559 0.37672 0.95571 0.0
C1587 C 0.97077 0.4384 0.98145 0.0
C1588 C 0.96339 0.44815 0.9887 0.0
C1589 C 0.9579 0.42023 0.9761 0.0
C1590 C 0.93742 0.41136 0.97801 0.0
C1591 C 0.93001 0.42124 0.98504 0.0
C1592 C 0.94283 0.43946 0.99028 0.0
C1593 C 0.92362 0.39188 0.9726 0.0
C1594 C 0.90787 0.38979 0.96511 0.0
C1595 C 0.926 0.37553 0.97462 0.0
C1596 C 0.94187 0.37661 0.98284 0.0
C1597 C 0.94373 0.38307 0.99527 0.0
C1598 C 0.95906 0.38456 0.00285 0.0
C1599 C 0.97253 0.37947 0.99813 0.0
C1600 C 0.97063 0.37278 0.98584 0.0
C1601 C 0.95535 0.37129 0.97822 0.0
H1602 H 0.98442 0.38068 0.004 0.0
H1603 H 0.83722 0.3681 0.92967 0.0
H1604 H 0.70509 0.54252 0.96462 0.0
H1605 H 0.67536 0.5364 0.97572 0.0
H1606 H 0.64554 0.53067 0.94066 0.0
H1607 H 0.67484 0.53565 0.92948 0.0
H1608 H 0.65679 0.55544 0.97726 0.0
H1609 H 0.5962 0.5007 0.94329 0.0
H1610 H 0.59101 0.47468 0.92843 0.0
H1611 H 0.63327 0.4654 0.9485 0.0
H1612 H 0.63851 0.49118 0.96357 0.0
H1613 H 0.56551 0.55088 0.98863 0.0
H1614 H 0.59655 0.55426 0.98132 0.0
H1615 H 0.57471 0.4934 0.98851 0.0
H1616 H 0.54298 0.48974 0.99488 0.0
H1617 H 0.59 0.50007 0.96753 0.0
H1618 H 0.6191 0.5342 0.00639 0.0
H1619 H 0.62662 0.55816 0.02339 0.0
H1620 H 0.64875 0.60436 0.99672 0.0
H1621 H 0.64166 0.58067 0.97966 0.0
C1622 C 0.69212 0.53961 0.95924 0.0
C1623 C 0.69245 0.53949 0.94611 0.0
C1624 C 0.67514 0.5363 0.96562 0.0
C1625 C 0.65805 0.53285 0.95907 0.0
C1626 C 0.65837 0.53294 0.94597 0.0
C1627 C 0.67529 0.53607 0.93957 0.0
C1628 C 0.64012 0.52967 0.96596 0.0
C1629 C 0.6422 0.54327 0.97515 0.0
C1630 C 0.62104 0.51365 0.96343 0.0
C1631 C 0.61788 0.49801 0.95448 0.0
C1632 C 0.60433 0.49306 0.94455 0.0
C1633 C 0.60139 0.47836 0.93609 0.0
C1634 C 0.61185 0.46844 0.9375 0.0
C1635 C 0.62523 0.47315 0.94739 0.0
C1636 C 0.62821 0.48782 0.95589 0.0
C1637 C 0.56748 0.5383 0.98887 0.0
C1638 C 0.55193 0.52014 0.99259 0.0
C1639 C 0.58539 0.54029 0.9848 0.0
C1640 C 0.58836 0.52421 0.98454 0.0
C1641 C 0.57296 0.50611 0.98863 0.0
C1642 C 0.55486 0.50404 0.99245 0.0
C1643 C 0.60662 0.52588 0.97885 0.0
C1644 C 0.60459 0.51212 0.96977 0.0
C1645 C 0.62584 0.54147 0.98169 0.0
C1646 C 0.62956 0.55567 0.9918 0.0
C1647 C 0.62536 0.54945 0.0042 0.0
C1648 C 0.62967 0.56298 0.01382 0.0
C1649 C 0.63798 0.58274 0.01112 0.0
C1650 C 0.64222 0.58904 0.9988 0.0
C1651 C 0.63818 0.57559 0.98916 0.0
H1652 H 0.64122 0.59318 0.01858 0.0
H1653 H 0.60956 0.45708 0.93093 0.0
H1654 H 0.42103 0.11762 0.93863 0.0
H1655 H 0.42987 0.09529 0.94848 0.0
H1656 H 0.48601 0.14386 0.96004 0.0
H1657 H 0.47752 0.16627 0.94986 0.0
H1658 H 0.49027 0.11458 0.95055 0.0
H1659 H 0.44915 0.12143 0.98078 0.0
H1660 H 0.41938 0.12128 0.9885 0.0
H1661 H 0.38396 0.06072 0.97886 0.0
H1662 H 0.41349 0.06058 0.97092 0.0
H1663 H 0.51464 0.06392 0.99531 0.0
H1664 H 0.50566 0.08656 0.98604 0.0
H1665 H 0.45256 0.03831 0.97055 0.0
H1666 H 0.46141 0.01551 0.97975 0.0
H1667 H 0.44699 0.06756 0.98237 0.0
H1668 H 0.48819 0.06108 0.95179 0.0
H1669 H 0.51817 0.06114 0.94462 0.0
H1670 H 0.55365 0.12121 0.95544 0.0
H1671 H 0.52387 0.12141 0.96285 0.0
C1672 C 0.43532 0.12354 0.94318 0.0
C1673 C 0.44857 0.14371 0.94349 0.0
C1674 C 0.44028 0.11078 0.9489 0.0
C1675 C 0.4585 0.11795 0.95511 0.0
C1676 C 0.47184 0.13805 0.95534 0.0
C1677 C 0.4669 0.15083 0.94961 0.0
C1678 C 0.46368 0.10444 0.96129 0.0
C1679 C 0.48095 0.1045 0.95763 0.0
C1680 C 0.4513 0.09102 0.97035 0.0
C1681 C 0.43351 0.09105 0.97514 0.0
C1682 C 0.43499 0.10812 0.98021 0.0
C1683 C 0.41816 0.10808 0.98464 0.0
C1684 C 0.39978 0.09101 0.98414 0.0
C1685 C 0.3982 0.07394 0.97923 0.0
C1686 C 0.41498 0.0739 0.97477 0.0
C1687 C 0.50098 0.05811 0.99 0.0
C1688 C 0.48872 0.03794 0.98824 0.0
C1689 C 0.49593 0.07106 0.98468 0.0
C1690 C 0.47852 0.06405 0.97759 0.0
C1691 C 0.46606 0.04394 0.97601 0.0
C1692 C 0.4712 0.03097 0.98121 0.0
C1693 C 0.47349 0.07774 0.9716 0.0
C1694 C 0.45628 0.0777 0.9753 0.0
C1695 C 0.48593 0.09119 0.96261 0.0
C1696 C 0.50383 0.09121 0.95799 0.0
C1697 C 0.5024 0.07426 0.95273 0.0
C1698 C 0.51935 0.07425 0.94861 0.0
C1699 C 0.53781 0.09116 0.94961 0.0
C1700 C 0.53934 0.10812 0.95469 0.0
C1701 C 0.52243 0.1082 0.95884 0.0
H1702 H 0.55093 0.09112 0.94642 0.0
H1703 H 0.38677 0.09101 0.98758 0.0
H1704 H 0.67595 0.15624 0.93962 0.0
H1705 H 0.64609 0.13291 0.95086 0.0
H1706 H 0.67834 0.10749 0.96728 0.0
H1707 H 0.70833 0.1311 0.95636 0.0
H1708 H 0.63708 0.08186 0.95274 0.0
H1709 H 0.67226 0.12927 0.98623 0.0
H1710 H 0.68878 0.16251 0.99508 0.0
H1711 H 0.63598 0.16564 0.98931 0.0
H1712 H 0.61925 0.13251 0.98023 0.0
H1713 H 0.57028 0.01261 0.99285 0.0
H1714 H 0.60131 0.04028 0.9858 0.0
H1715 H 0.57351 0.07551 0.98417 0.0
H1716 H 0.54256 0.04794 0.99156 0.0
H1717 H 0.61179 0.09754 0.99089 0.0
H1718 H 0.57566 0.05285 0.9584 0.0
H1719 H 0.55676 0.02069 0.94819 0.0
H1720 H 0.60793 0.01384 0.94951 0.0
H1721 H 0.62706 0.04585 0.95994 0.0
C1722 C 0.67662 0.1457 0.94567 0.0
C1723 C 0.69438 0.14542 0.94716 0.0
C1724 C 0.65965 0.13248 0.9521 0.0
C1725 C 0.66013 0.11861 0.95992 0.0
C1726 C 0.67778 0.11819 0.96133 0.0
C1727 C 0.69485 0.13166 0.95512 0.0
C1728 C 0.64201 0.104 0.96626 0.0
C1729 C 0.63167 0.08518 0.96117 0.0
C1730 C 0.63456 0.10867 0.97691 0.0
C1731 C 0.64461 0.12853 0.98239 0.0
C1732 C 0.66426 0.13713 0.9867 0.0
C1733 C 0.67364 0.15593 0.9918 0.0
C1734 C 0.66346 0.16621 0.99271 0.0
C1735 C 0.64386 0.15768 0.98857 0.0
C1736 C 0.63442 0.13889 0.98346 0.0
C1737 C 0.57098 0.02642 0.99128 0.0
C1738 C 0.55414 0.02822 0.9928 0.0
C1739 C 0.58865 0.04218 0.98721 0.0
C1740 C 0.5896 0.05983 0.98418 0.0
C1741 C 0.5731 0.06202 0.98641 0.0
C1742 C 0.55544 0.04628 0.99065 0.0
C1743 C 0.60712 0.07514 0.97759 0.0
C1744 C 0.61722 0.09414 0.9825 0.0
C1745 C 0.61407 0.07081 0.96652 0.0
C1746 C 0.60275 0.05168 0.96005 0.0
C1747 C 0.58286 0.04444 0.95659 0.0
C1748 C 0.5721 0.02624 0.95075 0.0
C1749 C 0.58114 0.01522 0.94823 0.0
C1750 C 0.60096 0.0224 0.95149 0.0
C1751 C 0.61177 0.04057 0.95736 0.0
H1752 H 0.57279 0.00112 0.94372 0.0
H1753 H 0.67075 0.18076 0.99667 0.0
H1754 H 0.83264 0.51202 0.95082 0.0
H1755 H 0.85808 0.5073 0.96094 0.0
H1756 H 0.90267 0.56504 0.95012 0.0
H1757 H 0.87735 0.56975 0.93991 0.0
H1758 H 0.91531 0.54071 0.94565 0.0
H1759 H 0.8848 0.5532 0.9805 0.0
H1760 H 0.85755 0.54832 0.9943 0.0
H1761 H 0.84537 0.49041 0.00229 0.0
H1762 H 0.87235 0.49482 0.98839 0.0
H1763 H 0.99347 0.5541 0.98623 0.0
H1764 H 0.96592 0.55687 0.97743 0.0
H1765 H 0.92732 0.49506 0.98148 0.0
H1766 H 0.95496 0.49213 0.98984 0.0
H1767 H 0.9111 0.51987 0.9896 0.0
H1768 H 0.94176 0.50769 0.95476 0.0
H1769 H 0.96984 0.51314 0.94159 0.0
H1770 H 0.98234 0.5713 0.93414 0.0
H1771 H 0.95452 0.56631 0.94746 0.0
C1772 C 0.84784 0.52378 0.9507 0.0
C1773 C 0.85295 0.54126 0.94454 0.0
C1774 C 0.86239 0.52106 0.9565 0.0
C1775 C 0.88233 0.53588 0.95642 0.0
C1776 C 0.88743 0.55336 0.9503 0.0
C1777 C 0.87293 0.55602 0.94443 0.0
C1778 C 0.898 0.53311 0.96243 0.0
C1779 C 0.91445 0.5364 0.95531 0.0
C1780 C 0.89675 0.52698 0.97496 0.0
C1781 C 0.88043 0.52425 0.98326 0.0
C1782 C 0.87618 0.53935 0.9851 0.0
C1783 C 0.8608 0.53668 0.99296 0.0
C1784 C 0.84969 0.51904 0.99913 0.0
C1785 C 0.85395 0.50404 0.99748 0.0
C1786 C 0.86929 0.50662 0.98961 0.0
C1787 C 0.97905 0.54115 0.98534 0.0
C1788 C 0.97622 0.52299 0.98902 0.0
C1789 C 0.96337 0.54274 0.98032 0.0
C1790 C 0.9446 0.52617 0.97885 0.0
C1791 C 0.94166 0.50803 0.98263 0.0
C1792 C 0.95743 0.5064 0.98748 0.0
C1793 C 0.92832 0.52775 0.97285 0.0
C1794 C 0.91183 0.52418 0.97995 0.0
C1795 C 0.92953 0.53368 0.96033 0.0
C1796 C 0.94618 0.53669 0.95222 0.0
C1797 C 0.95061 0.52171 0.95042 0.0
C1798 C 0.96646 0.5247 0.94291 0.0
C1799 C 0.9779 0.54257 0.93706 0.0
C1800 C 0.97348 0.55747 0.93869 0.0
C1801 C 0.95767 0.55457 0.94622 0.0
H1802 H 0.99015 0.54485 0.93124 0.0
H1803 H 0.8378 0.51701 0.00522 0.0
H1804 H 0.47555 0.30503 0.95067 0.0
H1805 H 0.48372 0.33589 0.96075 0.0
H1806 H 0.42792 0.32909 0.94841 0.0
H1807 H 0.41958 0.29814 0.93837 0.0
H1808 H 0.458 0.36542 0.94432 0.0
H1809 H 0.43462 0.32084 0.97845 0.0
H1810 H 0.43333 0.29548 0.99223 0.0
H1811 H 0.49388 0.33333 0.00305 0.0
H1812 H 0.49563 0.35884 0.98919 0.0
H1813 H 0.45965 0.44014 0.98131 0.0
H1814 H 0.45066 0.40865 0.972 0.0
H1815 H 0.5048 0.41347 0.98614 0.0
H1816 H 0.51359 0.44472 0.99585 0.0
H1817 H 0.47539 0.37799 0.98927 0.0
H1818 H 0.49847 0.42286 0.95495 0.0
H1819 H 0.49905 0.44805 0.94127 0.0
H1820 H 0.4385 0.40943 0.9308 0.0
H1821 H 0.43745 0.38413 0.94456 0.0
C1822 C 0.46493 0.31 0.95022 0.0
C1823 C 0.44689 0.29912 0.94375 0.0
C1824 C 0.46963 0.32765 0.95596 0.0
C1825 C 0.45634 0.33468 0.95542 0.0
C1826 C 0.43839 0.32393 0.94891 0.0
C1827 C 0.43368 0.30629 0.94316 0.0
C1828 C 0.46128 0.35339 0.96151 0.0
C1829 C 0.46157 0.36811 0.95418 0.0
C1830 C 0.46633 0.35698 0.97431 0.0
C1831 C 0.46531 0.34168 0.98268 0.0
C1832 C 0.44771 0.3237 0.98368 0.0
C1833 C 0.44689 0.30931 0.99153 0.0
C1834 C 0.46353 0.31277 0.99849 0.0
C1835 C 0.48101 0.33066 0.99764 0.0
C1836 C 0.48192 0.3451 0.9898 0.0
C1837 C 0.46966 0.43452 0.98244 0.0
C1838 C 0.48738 0.44496 0.98927 0.0
C1839 C 0.46453 0.41654 0.97706 0.0
C1840 C 0.47724 0.40887 0.97816 0.0
C1841 C 0.4948 0.41914 0.98513 0.0
C1842 C 0.49981 0.43701 0.99067 0.0
C1843 C 0.47219 0.3901 0.97207 0.0
C1844 C 0.47187 0.37535 0.9794 0.0
C1845 C 0.4671 0.38648 0.95925 0.0
C1846 C 0.46784 0.40165 0.95087 0.0
C1847 C 0.48524 0.41979 0.94979 0.0
C1848 C 0.48566 0.43408 0.94201 0.0
C1849 C 0.46881 0.43034 0.93519 0.0
C1850 C 0.45153 0.4123 0.9361 0.0
C1851 C 0.45102 0.39798 0.94387 0.0
H1852 H 0.46912 0.44139 0.92918 0.0
H1853 H 0.46286 0.30161 0.00456 0.0
H1854 H 0.17714 0.69331 0.05928 0.0
H1855 H 0.15259 0.6628 0.04939 0.0
H1856 H 0.10579 0.67182 0.06287 0.0
H1857 H 0.13027 0.70239 0.07276 0.0
H1858 H 0.09719 0.63499 0.06647 0.0
H1859 H 0.11965 0.67958 0.03239 0.0
H1860 H 0.14428 0.70442 0.01848 0.0
H1861 H 0.16372 0.66472 0.00722 0.0
H1862 H 0.13938 0.63972 0.0212 0.0
H1863 H 0.02086 0.56122 0.02862 0.0
H1864 H 0.0443 0.59225 0.0385 0.0
H1865 H 0.09293 0.5859 0.02535 0.0
H1866 H 0.0697 0.55502 0.01541 0.0
H1867 H 0.09992 0.62184 0.02148 0.0
H1868 H 0.07776 0.5774 0.05584 0.0
H1869 H 0.05357 0.55282 0.07009 0.0
H1870 H 0.03366 0.59232 0.08094 0.0
H1871 H 0.05751 0.61703 0.06661 0.0
C1872 C 0.16164 0.68891 0.06003 0.0
C1873 C 0.15568 0.70033 0.06678 0.0
C1874 C 0.14761 0.67145 0.05439 0.0
C1875 C 0.12735 0.66512 0.05527 0.0
C1876 C 0.12134 0.6764 0.06208 0.0
C1877 C 0.13535 0.69384 0.06775 0.0
C1878 C 0.11242 0.64663 0.04922 0.0
C1879 C 0.09759 0.63221 0.0566 0.0
C1880 C 0.11321 0.64286 0.03638 0.0
C1881 C 0.12781 0.65784 0.02793 0.0
C1882 C 0.12928 0.6762 0.02702 0.0
C1883 C 0.14317 0.6903 0.01911 0.0
C1884 C 0.15559 0.68617 0.012 0.0
C1885 C 0.15411 0.6679 0.01275 0.0
C1886 C 0.14025 0.65376 0.02065 0.0
C1887 C 0.03654 0.56639 0.02785 0.0
C1888 C 0.04339 0.55567 0.02115 0.0
C1889 C 0.04992 0.58412 0.03354 0.0
C1890 C 0.07038 0.59134 0.03275 0.0
C1891 C 0.07722 0.58066 0.02606 0.0
C1892 C 0.06389 0.56299 0.02036 0.0
C1893 C 0.08474 0.61013 0.03875 0.0
C1894 C 0.09946 0.62462 0.03135 0.0
C1895 C 0.08384 0.61396 0.05157 0.0
C1896 C 0.0693 0.599 0.06006 0.0
C1897 C 0.06808 0.58077 0.06117 0.0
C1898 C 0.05446 0.56683 0.06928 0.0
C1899 C 0.04208 0.57101 0.0764 0.0
C1900 C 0.04325 0.58911 0.0754 0.0
C1901 C 0.05682 0.60308 0.0673 0.0
H1902 H 0.03165 0.56028 0.08274 0.0
H1903 H 0.16634 0.6971 0.00588 0.0
H1904 H 0.30063 0.46177 0.04311 0.0
H1905 H 0.33022 0.46702 0.03218 0.0
H1906 H 0.35981 0.47328 0.0674 0.0
H1907 H 0.33071 0.4692 0.0784 0.0
H1908 H 0.38514 0.49838 0.05186 0.0
H1909 H 0.33827 0.42993 0.05006 0.0
H1910 H 0.30621 0.40057 0.04548 0.0
H1911 H 0.31237 0.41516 0.00664 0.0
H1912 H 0.34437 0.44476 0.01103 0.0
H1913 H 0.43775 0.44805 0.02074 0.0
H1914 H 0.40724 0.44595 0.02823 0.0
H1915 H 0.42977 0.50616 0.01864 0.0
H1916 H 0.46118 0.50891 0.01292 0.0
H1917 H 0.3782 0.44866 0.02082 0.0
H1918 H 0.41418 0.52787 0.03628 0.0
H1919 H 0.44832 0.55483 0.03974 0.0
H1920 H 0.46516 0.51466 0.05394 0.0
H1921 H 0.43109 0.48748 0.05063 0.0
C1922 C 0.31352 0.46461 0.04856 0.0
C1923 C 0.31312 0.46489 0.06169 0.0
C1924 C 0.3304 0.46739 0.04228 0.0
C1925 C 0.34719 0.47022 0.04894 0.0
C1926 C 0.34705 0.47104 0.06202 0.0
C1927 C 0.33025 0.46845 0.06831 0.0
C1928 C 0.36467 0.47169 0.04235 0.0
C1929 C 0.38357 0.48748 0.04508 0.0
C1930 C 0.36282 0.45745 0.03356 0.0
C1931 C 0.3436 0.43967 0.03089 0.0
C1932 C 0.33271 0.42695 0.04056 0.0
C1933 C 0.31457 0.41026 0.03799 0.0
C1934 C 0.30723 0.40603 0.02578 0.0
C1935 C 0.31806 0.41847 0.0161 0.0
C1936 C 0.3362 0.4352 0.01862 0.0
C1937 C 0.43612 0.46081 0.02022 0.0
C1938 C 0.45176 0.47856 0.01602 0.0
C1939 C 0.4186 0.45957 0.02442 0.0
C1940 C 0.41623 0.47601 0.02432 0.0
C1941 C 0.43137 0.4934 0.01928 0.0
C1942 C 0.44925 0.49488 0.01569 0.0
C1943 C 0.39865 0.47522 0.03038 0.0
C1944 C 0.37974 0.45958 0.02756 0.0
C1945 C 0.40055 0.48924 0.03939 0.0
C1946 C 0.42016 0.50568 0.04313 0.0
C1947 C 0.42508 0.52486 0.04036 0.0
C1948 C 0.44443 0.54014 0.04221 0.0
C1949 C 0.4589 0.53639 0.04691 0.0
C1950 C 0.45394 0.51749 0.05021 0.0
C1951 C 0.43461 0.50216 0.04839 0.0
H1952 H 0.47398 0.54813 0.04793 0.0
H1953 H 0.29318 0.39309 0.02382 0.0
H1954 H 0.58562 0.88061 0.06872 0.0
H1955 H 0.57548 0.90194 0.05882 0.0
H1956 H 0.52262 0.85183 0.0447 0.0
H1957 H 0.53249 0.83035 0.05473 0.0
H1958 H 0.54089 0.88009 0.02698 0.0
H1959 H 0.51961 0.87589 0.06932 0.0
H1960 H 0.52346 0.87779 0.09219 0.0
H1961 H 0.56722 0.93835 0.08988 0.0
H1962 H 0.56385 0.93675 0.06696 0.0
H1963 H 0.49226 0.93183 0.00892 0.0
H1964 H 0.5007 0.90891 0.01829 0.0
H1965 H 0.55143 0.95655 0.03641 0.0
H1966 H 0.5428 0.97948 0.02738 0.0
H1967 H 0.53284 0.9283 0.05215 0.0
H1968 H 0.55569 0.93248 0.01001 0.0
H1969 H 0.55254 0.93094 0.98709 0.0
H1970 H 0.50652 0.87114 0.98898 0.0
H1971 H 0.50934 0.87237 0.01193 0.0
C1972 C 0.57175 0.87411 0.0636 0.0
C1973 C 0.55981 0.85378 0.06257 0.0
C1974 C 0.56602 0.88632 0.05792 0.0
C1975 C 0.54821 0.87844 0.05115 0.0
C1976 C 0.53643 0.85818 0.04989 0.0
C1977 C 0.54214 0.84595 0.05559 0.0
C1978 C 0.54184 0.89138 0.04544 0.0
C1979 C 0.53886 0.89047 0.03249 0.0
C1980 C 0.53959 0.90513 0.05262 0.0
C1981 C 0.54161 0.90615 0.06641 0.0
C1982 C 0.53018 0.88957 0.07368 0.0
C1983 C 0.53225 0.8906 0.08665 0.0
C1984 C 0.54561 0.90816 0.09249 0.0
C1985 C 0.5569 0.92475 0.08535 0.0
C1986 C 0.55489 0.92379 0.07237 0.0
C1987 C 0.50527 0.93744 0.01486 0.0
C1988 C 0.51691 0.95749 0.01737 0.0
C1989 C 0.51012 0.92432 0.02017 0.0
C1990 C 0.52685 0.93103 0.02793 0.0
C1991 C 0.53845 0.95104 0.03046 0.0
C1992 C 0.5335 0.96414 0.02526 0.0
C1993 C 0.53215 0.91725 0.03364 0.0
C1994 C 0.53486 0.91794 0.04662 0.0
C1995 C 0.53425 0.90337 0.02647 0.0
C1996 C 0.53262 0.90257 0.01268 0.0
C1997 C 0.54484 0.91903 0.00554 0.0
C1998 C 0.54315 0.9182 0.99254 0.0
C1999 C 0.52933 0.90095 0.98658 0.0
C2000 C 0.51722 0.88449 0.99361 0.0
C2001 C 0.51889 0.88523 0.00661 0.0
H2002 H 0.528 0.90036 0.97652 0.0
H2003 H 0.5472 0.90893 0.10254 0.0
H2004 H 0.004 0.1885 0.41415 0.0
H2005 H 0.0327 0.2118 0.4022 0.0
H2006 H 0.99429 0.20605 0.37142 0.0
H2007 H 0.96565 0.18262 0.38326 0.0
H2008 H 0.02547 0.20595 0.36285 0.0
H2009 H 0.01439 0.24592 0.39194 0.0
H2010 H 0.01039 0.25701 0.41269 0.0
H2011 H 0.06863 0.26925 0.42329 0.0
H2012 H 0.07287 0.25798 0.40266 0.0
H2013 H 0.09966 0.31486 0.34871 0.0
H2014 H 0.06977 0.28717 0.35696 0.0
H2015 H 0.09706 0.25159 0.3543 0.0
H2016 H 0.12712 0.2794 0.34598 0.0
H2017 H 0.07237 0.27167 0.3796 0.0
H2018 H 0.06893 0.21343 0.35088 0.0
H2019 H 0.06615 0.19964 0.32976 0.0
H2020 H 0.03158 0.22503 0.31771 0.0
H2021 H 0.03452 0.23924 0.3387 0.0
C2022 C 0.00168 0.1923 0.40486 0.0
C2023 C 0.98254 0.18372 0.39966 0.0
C2024 C 0.0181 0.20562 0.39803 0.0
C2025 C 0.01568 0.21086 0.38593 0.0
C2026 C 0.99658 0.20221 0.38071 0.0
C2027 C 0.98021 0.18879 0.38749 0.0
C2028 C 0.03294 0.22535 0.37866 0.0
C2029 C 0.03575 0.22029 0.36658 0.0
C2030 C 0.04639 0.24415 0.3834 0.0
C2031 C 0.04385 0.2509 0.39581 0.0
C2032 C 0.02627 0.25083 0.39874 0.0
C2033 C 0.02398 0.25717 0.41047 0.0
C2034 C 0.03922 0.26377 0.41932 0.0
C2035 C 0.05682 0.26409 0.41644 0.0
C2036 C 0.05918 0.25774 0.40473 0.0
C2037 C 0.09907 0.30097 0.34954 0.0
C2038 C 0.11567 0.29927 0.34671 0.0
C2039 C 0.08199 0.28516 0.35426 0.0
C2040 C 0.08116 0.26731 0.35628 0.0
C2041 C 0.09725 0.26515 0.35267 0.0
C2042 C 0.11444 0.28105 0.34793 0.0
C2043 C 0.06477 0.25225 0.3638 0.0
C2044 C 0.0622 0.25723 0.37597 0.0
C2045 C 0.05138 0.23352 0.35912 0.0
C2046 C 0.0522 0.22758 0.34621 0.0
C2047 C 0.06108 0.21635 0.34363 0.0
C2048 C 0.05936 0.20836 0.33173 0.0
C2049 C 0.04856 0.21134 0.32243 0.0
C2050 C 0.03986 0.22268 0.32493 0.0
C2051 C 0.04172 0.23086 0.33678 0.0
H2052 H 0.04702 0.20494 0.31326 0.0
H2053 H 0.03742 0.26869 0.42839 0.0
H2054 H 0.84486 0.83005 0.39242 0.0
H2055 H 0.81955 0.83413 0.38147 0.0
H2056 H 0.77479 0.77716 0.39338 0.0
H2057 H 0.8 0.77285 0.40412 0.0
H2058 H 0.77127 0.7824 0.3688 0.0
H2059 H 0.77966 0.81841 0.40694 0.0
H2060 H 0.79802 0.84373 0.4229 0.0
H2061 H 0.81531 0.88811 0.39522 0.0
H2062 H 0.79732 0.86303 0.37905 0.0
H2063 H 0.68284 0.78194 0.35539 0.0
H2064 H 0.71121 0.78066 0.36362 0.0
H2065 H 0.74836 0.84218 0.35691 0.0
H2066 H 0.71929 0.84375 0.34988 0.0
H2067 H 0.75817 0.83635 0.37751 0.0
H2068 H 0.75188 0.80151 0.33921 0.0
H2069 H 0.73474 0.77677 0.3226 0.0
H2070 H 0.71508 0.73134 0.34969 0.0
H2071 H 0.73214 0.75579 0.36637 0.0
C2072 C 0.82963 0.81836 0.39267 0.0
C2073 C 0.82448 0.80112 0.39918 0.0
C2074 C 0.81515 0.82079 0.3865 0.0
C2075 C 0.7952 0.80602 0.38667 0.0
C2076 C 0.79005 0.7888 0.39313 0.0
C2077 C 0.80448 0.78641 0.39935 0.0
C2078 C 0.77971 0.80813 0.37985 0.0
C2079 C 0.76829 0.79412 0.37078 0.0
C2080 C 0.77624 0.82377 0.38208 0.0
C2081 C 0.78735 0.83882 0.39176 0.0
C2082 C 0.78757 0.83355 0.40423 0.0
C2083 C 0.79788 0.84787 0.41332 0.0
C2084 C 0.80789 0.86751 0.41007 0.0
C2085 C 0.80762 0.87289 0.39772 0.0
C2086 C 0.79739 0.85863 0.38859 0.0
C2087 C 0.69713 0.79515 0.35551 0.0
C2088 C 0.69889 0.81285 0.3517 0.0
C2089 C 0.71351 0.79437 0.36007 0.0
C2090 C 0.73232 0.81119 0.36061 0.0
C2091 C 0.73416 0.82889 0.35655 0.0
C2092 C 0.71757 0.82977 0.35235 0.0
C2093 C 0.7495 0.81051 0.3664 0.0
C2094 C 0.76125 0.82476 0.37534 0.0
C2095 C 0.75347 0.7952 0.36394 0.0
C2096 C 0.74302 0.78047 0.354 0.0
C2097 C 0.7437 0.78624 0.34158 0.0
C2098 C 0.73409 0.77229 0.33218 0.0
C2099 C 0.7237 0.75253 0.33511 0.0
C2100 C 0.72306 0.74666 0.34744 0.0
C2101 C 0.73277 0.76055 0.35686 0.0
H2102 H 0.71624 0.74176 0.32782 0.0
H2103 H 0.81581 0.87857 0.41713 0.0
H2104 H 0.20231 0.01357 0.41355 0.0
H2105 H 0.19602 0.98348 0.40313 0.0
H2106 H 0.23875 0.017 0.37499 0.0
H2107 H 0.2447 0.04712 0.38523 0.0
H2108 H 0.20806 0.98841 0.36435 0.0
H2109 H 0.24932 0.99404 0.39898 0.0
H2110 H 0.25978 0.99822 0.42105 0.0
H2111 H 0.20637 0.94577 0.43032 0.0
H2112 H 0.19546 0.94142 0.40833 0.0
H2113 H 0.21639 0.89386 0.36068 0.0
H2114 H 0.22585 0.92552 0.37005 0.0
H2115 H 0.17108 0.92053 0.35705 0.0
H2116 H 0.16182 0.88923 0.34737 0.0
H2117 H 0.2109 0.9361 0.38776 0.0
H2118 H 0.17608 0.96381 0.35113 0.0
H2119 H 0.16925 0.96114 0.32851 0.0
H2120 H 0.21676 0.94969 0.32214 0.0
H2121 H 0.22397 0.95244 0.34471 0.0
C2122 C 0.2104 0.01448 0.40517 0.0
C2123 C 0.22404 0.03264 0.40021 0.0
C2124 C 0.20684 0.9973 0.39924 0.0
C2125 C 0.21714 0.99797 0.38838 0.0
C2126 C 0.23063 0.01612 0.38335 0.0
C2127 C 0.23401 0.0333 0.3892 0.0
C2128 C 0.21371 0.97974 0.38219 0.0
C2129 C 0.20872 0.977 0.36946 0.0
C2130 C 0.21495 0.96497 0.38879 0.0
C2131 C 0.2215 0.9675 0.40202 0.0
C2132 C 0.23974 0.98347 0.40574 0.0
C2133 C 0.24576 0.98586 0.41823 0.0
C2134 C 0.23372 0.97229 0.42708 0.0
C2135 C 0.21566 0.95628 0.42346 0.0
C2136 C 0.20957 0.95383 0.41098 0.0
C2137 C 0.20641 0.89956 0.35977 0.0
C2138 C 0.18845 0.88913 0.35319 0.0
C2139 C 0.21182 0.91764 0.36515 0.0
C2140 C 0.19932 0.92556 0.36412 0.0
C2141 C 0.18121 0.91498 0.35772 0.0
C2142 C 0.17591 0.89703 0.35222 0.0
C2143 C 0.20499 0.94467 0.36995 0.0
C2144 C 0.21033 0.94755 0.38262 0.0
C2145 C 0.2046 0.95978 0.36322 0.0
C2146 C 0.20047 0.95821 0.34962 0.0
C2147 C 0.18512 0.96081 0.3449 0.0
C2148 C 0.18117 0.95925 0.33209 0.0
C2149 C 0.19257 0.95526 0.3239 0.0
C2150 C 0.20794 0.95278 0.3285 0.0
C2151 C 0.21192 0.95428 0.3413 0.0
H2152 H 0.18948 0.95405 0.31398 0.0
H2153 H 0.23841 0.97417 0.43675 0.0
H2154 H 0.53526 0.64103 0.26356 0.0
H2155 H 0.56055 0.67136 0.27321 0.0
H2156 H 0.51589 0.67412 0.29521 0.0
H2157 H 0.49038 0.64415 0.28524 0.0
H2158 H 0.54135 0.7092 0.28607 0.0
H2159 H 0.54628 0.65898 0.30781 0.0
H2160 H 0.55012 0.63008 0.30978 0.0
H2161 H 0.60694 0.6607 0.29236 0.0
H2162 H 0.60332 0.68971 0.29013 0.0
H2163 H 0.60126 0.77734 0.33163 0.0
H2164 H 0.57762 0.74767 0.32083 0.0
H2165 H 0.62495 0.7481 0.29999 0.0
H2166 H 0.64902 0.77753 0.31126 0.0
H2167 H 0.59908 0.71199 0.30768 0.0
H2168 H 0.59445 0.76285 0.28669 0.0
H2169 H 0.59101 0.79209 0.28594 0.0
H2170 H 0.53373 0.76045 0.30268 0.0
H2171 H 0.53691 0.73106 0.30366 0.0
C2172 C 0.53076 0.64818 0.27035 0.0
C2173 C 0.51076 0.6401 0.27364 0.0
C2174 C 0.54528 0.66544 0.27596 0.0
C2175 C 0.54017 0.67491 0.28505 0.0
C2176 C 0.5202 0.66703 0.28824 0.0
C2177 C 0.50566 0.64979 0.28262 0.0
C2178 C 0.55562 0.69298 0.29128 0.0
C2179 C 0.55387 0.70975 0.2909 0.0
C2180 C 0.57221 0.69386 0.29734 0.0
C2181 C 0.57443 0.67644 0.29868 0.0
C2182 C 0.55952 0.6595 0.30431 0.0
C2183 C 0.56167 0.64311 0.30549 0.0
C2184 C 0.57874 0.64354 0.30117 0.0
C2185 C 0.59371 0.66038 0.29568 0.0
C2186 C 0.59163 0.6768 0.29447 0.0
C2187 C 0.60678 0.77105 0.3249 0.0
C2188 C 0.62713 0.77974 0.32244 0.0
C2189 C 0.59316 0.75415 0.31861 0.0
C2190 C 0.59946 0.74579 0.30946 0.0
C2191 C 0.61976 0.75433 0.307 0.0
C2192 C 0.63348 0.77119 0.31341 0.0
C2193 C 0.58476 0.72815 0.30251 0.0
C2194 C 0.58665 0.71147 0.30276 0.0
C2195 C 0.56828 0.72735 0.29634 0.0
C2196 C 0.56597 0.74477 0.2953 0.0
C2197 C 0.58113 0.76213 0.29023 0.0
C2198 C 0.57923 0.77874 0.28977 0.0
C2199 C 0.56218 0.77814 0.29428 0.0
C2200 C 0.54693 0.76089 0.29919 0.0
C2201 C 0.54875 0.74424 0.29967 0.0
H2202 H 0.56077 0.79102 0.29395 0.0
H2203 H 0.58037 0.63084 0.30209 0.0
H2204 H 0.35277 0.84395 0.28406 0.0
H2205 H 0.32331 0.83906 0.29519 0.0
H2206 H 0.33568 0.89636 0.28451 0.0
H2207 H 0.36529 0.90148 0.27359 0.0
H2208 H 0.32638 0.88981 0.30892 0.0
H2209 H 0.29921 0.85583 0.27013 0.0
H2210 H 0.29306 0.83179 0.25352 0.0
H2211 H 0.26597 0.78546 0.27997 0.0
H2212 H 0.27221 0.80926 0.29678 0.0
H2213 H 0.23569 0.88566 0.32178 0.0
H2214 H 0.26648 0.88892 0.31407 0.0
H2215 H 0.2442 0.82779 0.32051 0.0
H2216 H 0.21272 0.8243 0.32731 0.0
H2217 H 0.25919 0.83503 0.2993 0.0
H2218 H 0.28986 0.86815 0.3383 0.0
H2219 H 0.29807 0.8917 0.35565 0.0
H2220 H 0.31894 0.9385 0.32948 0.0
H2221 H 0.31114 0.91521 0.31206 0.0
C2222 C 0.34927 0.85554 0.28413 0.0
C2223 C 0.3614 0.87309 0.27789 0.0
C2224 C 0.33232 0.85266 0.29041 0.0
C2225 C 0.32714 0.86727 0.2906 0.0
C2226 C 0.3393 0.88484 0.28447 0.0
C2227 C 0.35617 0.88769 0.27814 0.0
C2228 C 0.30928 0.86449 0.29737 0.0
C2229 C 0.31165 0.87792 0.30673 0.0
C2230 C 0.29011 0.84866 0.29483 0.0
C2231 C 0.28639 0.83435 0.28473 0.0
C2232 C 0.29211 0.84053 0.27242 0.0
C2233 C 0.28857 0.82694 0.26297 0.0
C2234 C 0.27919 0.80711 0.26569 0.0
C2235 C 0.27328 0.80083 0.27788 0.0
C2236 C 0.2768 0.81436 0.28737 0.0
C2237 C 0.23752 0.873 0.32178 0.0
C2238 C 0.22192 0.85483 0.32544 0.0
C2239 C 0.25529 0.8749 0.31749 0.0
C2240 C 0.25809 0.85872 0.31691 0.0
C2241 C 0.24262 0.84059 0.32089 0.0
C2242 C 0.22464 0.83862 0.32495 0.0
C2243 C 0.2762 0.86037 0.31096 0.0
C2244 C 0.2739 0.84679 0.30165 0.0
C2245 C 0.2955 0.87598 0.31361 0.0
C2246 C 0.29959 0.88994 0.32394 0.0
C2247 C 0.29597 0.88344 0.3363 0.0
C2248 C 0.30069 0.89674 0.34612 0.0
C2249 C 0.30884 0.91656 0.34366 0.0
C2250 C 0.31253 0.92314 0.33137 0.0
C2251 C 0.30808 0.90991 0.32154 0.0
H2252 H 0.3124 0.92682 0.35127 0.0
H2253 H 0.27646 0.79662 0.25836 0.0
H2254 H 0.10657 0.45855 0.25964 0.0
H2255 H 0.11492 0.43598 0.26962 0.0
H2256 H 0.13171 0.47077 0.30323 0.0
H2257 H 0.12234 0.49288 0.29366 0.0
H2258 H 0.15984 0.45826 0.29339 0.0
H2259 H 0.09151 0.43396 0.305 0.0
H2260 H 0.05638 0.42267 0.30052 0.0
H2261 H 0.05278 0.37669 0.27734 0.0
H2262 H 0.088 0.38791 0.28154 0.0
H2263 H 0.16987 0.39475 0.33433 0.0
H2264 H 0.16126 0.41732 0.32488 0.0
H2265 H 0.12566 0.37385 0.29724 0.0
H2266 H 0.13291 0.35062 0.3073 0.0
H2267 H 0.10724 0.39128 0.30371 0.0
H2268 H 0.17397 0.41364 0.29157 0.0
H2269 H 0.20917 0.42406 0.29492 0.0
H2270 H 0.21667 0.47273 0.3169 0.0
H2271 H 0.18142 0.46242 0.31385 0.0
C2272 C 0.11174 0.46133 0.26922 0.0
C2273 C 0.11365 0.47758 0.27583 0.0
C2274 C 0.1167 0.44849 0.27485 0.0
C2275 C 0.12393 0.45178 0.28713 0.0
C2276 C 0.12627 0.46811 0.2937 0.0
C2277 C 0.12099 0.48079 0.28816 0.0
C2278 C 0.12858 0.43787 0.29321 0.0
C2279 C 0.14839 0.44367 0.2958 0.0
C2280 C 0.11362 0.41871 0.29595 0.0
C2281 C 0.09243 0.41191 0.29347 0.0
C2282 C 0.08328 0.42156 0.29885 0.0
C2283 C 0.06334 0.41515 0.29638 0.0
C2284 C 0.05237 0.39901 0.28862 0.0
C2285 C 0.06131 0.38921 0.28333 0.0
C2286 C 0.08125 0.39558 0.28576 0.0
C2287 C 0.15987 0.3898 0.32642 0.0
C2288 C 0.15184 0.37072 0.32174 0.0
C2289 C 0.15522 0.40288 0.32086 0.0
C2290 C 0.14308 0.39745 0.31018 0.0
C2291 C 0.13506 0.37842 0.30547 0.0
C2292 C 0.13931 0.36516 0.31122 0.0
C2293 C 0.13864 0.41155 0.30397 0.0
C2294 C 0.11882 0.40581 0.30131 0.0
C2295 C 0.15368 0.43065 0.30094 0.0
C2296 C 0.175 0.43716 0.30256 0.0
C2297 C 0.1831 0.42651 0.29717 0.0
C2298 C 0.20306 0.4324 0.29901 0.0
C2299 C 0.21514 0.44902 0.30614 0.0
C2300 C 0.20729 0.45984 0.31139 0.0
C2301 C 0.18732 0.45399 0.3096 0.0
H2302 H 0.23058 0.45354 0.30758 0.0
H2303 H 0.03694 0.39406 0.28672 0.0
H2304 H 0.33294 0.4894 0.27076 0.0
H2305 H 0.30399 0.46556 0.28246 0.0
H2306 H 0.34049 0.44768 0.30206 0.0
H2307 H 0.36957 0.47181 0.29064 0.0
H2308 H 0.29783 0.41827 0.28582 0.0
H2309 H 0.33243 0.46504 0.32047 0.0
H2310 H 0.34812 0.49821 0.3294 0.0
H2311 H 0.29498 0.50033 0.3226 0.0
H2312 H 0.27911 0.46726 0.31343 0.0
H2313 H 0.23371 0.34725 0.32618 0.0
H2314 H 0.26403 0.3756 0.31894 0.0
H2315 H 0.23443 0.40922 0.31848 0.0
H2316 H 0.20419 0.38095 0.32604 0.0
H2317 H 0.27285 0.43212 0.3248 0.0
H2318 H 0.23662 0.38751 0.29233 0.0
H2319 H 0.21821 0.35546 0.28191 0.0
H2320 H 0.27054 0.35054 0.28192 0.0
H2321 H 0.28919 0.38244 0.29254 0.0
C2322 C 0.33477 0.48044 0.27762 0.0
C2323 C 0.35347 0.48244 0.27982 0.0
C2324 C 0.31829 0.46694 0.28431 0.0
C2325 C 0.32021 0.45505 0.29318 0.0
C2326 C 0.33881 0.45691 0.29535 0.0
C2327 C 0.35537 0.47067 0.28884 0.0
C2328 C 0.30258 0.43992 0.29968 0.0
C2329 C 0.29252 0.42118 0.29444 0.0
C2330 C 0.29519 0.44403 0.31057 0.0
C2331 C 0.30472 0.46383 0.3161 0.0
C2332 C 0.3242 0.47268 0.32073 0.0
C2333 C 0.33309 0.49143 0.32587 0.0
C2334 C 0.32258 0.50141 0.32652 0.0
C2335 C 0.30313 0.49261 0.32206 0.0
C2336 C 0.29418 0.47387 0.3169 0.0
C2337 C 0.23387 0.36085 0.32482 0.0
C2338 C 0.2167 0.36197 0.32671 0.0
C2339 C 0.25113 0.377 0.32064 0.0
C2340 C 0.25137 0.39441 0.31789 0.0
C2341 C 0.23457 0.39593 0.3205 0.0
C2342 C 0.21731 0.37978 0.32483 0.0
C2343 C 0.26846 0.41016 0.31121 0.0
C2344 C 0.27824 0.42909 0.31626 0.0
C2345 C 0.27531 0.40635 0.29991 0.0
C2346 C 0.26426 0.3873 0.29333 0.0
C2347 C 0.24417 0.37954 0.29018 0.0
C2348 C 0.23369 0.36141 0.28424 0.0
C2349 C 0.24319 0.35096 0.28128 0.0
C2350 C 0.2632 0.35865 0.28423 0.0
C2351 C 0.27374 0.37676 0.29021 0.0
H2352 H 0.23506 0.33692 0.27668 0.0
H2353 H 0.32949 0.51592 0.33051 0.0
H2354 H 0.54425 0.90548 0.27895 0.0
H2355 H 0.56857 0.89968 0.28959 0.0
H2356 H 0.52939 0.8377 0.28573 0.0
H2357 H 0.50474 0.84354 0.27554 0.0
H2358 H 0.54323 0.84394 0.30742 0.0
H2359 H 0.57399 0.86494 0.26817 0.0
H2360 H 0.58745 0.88595 0.24979 0.0
H2361 H 0.62992 0.9325 0.27304 0.0
H2362 H 0.61654 0.91186 0.2916 0.0
H2363 H 0.6185 0.82251 0.32748 0.0
H2364 H 0.59211 0.82532 0.31722 0.0
H2365 H 0.62689 0.88789 0.32038 0.0
H2366 H 0.65372 0.88504 0.33013 0.0
H2367 H 0.61476 0.87913 0.29788 0.0
H2368 H 0.57235 0.85759 0.33712 0.0
H2369 H 0.55318 0.83496 0.35395 0.0
H2370 H 0.53239 0.7866 0.32845 0.0
H2371 H 0.55078 0.80909 0.31139 0.0
C2372 C 0.54091 0.89063 0.2803 0.0
C2373 C 0.52258 0.87497 0.27643 0.0
C2374 C 0.5549 0.8873 0.28632 0.0
C2375 C 0.55108 0.86822 0.28833 0.0
C2376 C 0.53279 0.85257 0.28434 0.0
C2377 C 0.51867 0.8559 0.27852 0.0
C2378 C 0.56561 0.86456 0.2952 0.0
C2379 C 0.55884 0.85149 0.30517 0.0
C2380 C 0.58607 0.87438 0.29243 0.0
C2381 C 0.59412 0.8869 0.2813 0.0
C2382 C 0.58609 0.87971 0.26939 0.0
C2383 C 0.59373 0.89155 0.25893 0.0
C2384 C 0.6095 0.91057 0.26025 0.0
C2385 C 0.61769 0.91778 0.27203 0.0
C2386 C 0.61009 0.90601 0.28253 0.0
C2387 C 0.6203 0.83684 0.32632 0.0
C2388 C 0.63817 0.85358 0.3297 0.0
C2389 C 0.60507 0.83845 0.32047 0.0
C2390 C 0.60724 0.85684 0.31807 0.0
C2391 C 0.62475 0.87351 0.32206 0.0
C2392 C 0.64007 0.8719 0.32771 0.0
C2393 C 0.59241 0.85896 0.31034 0.0
C2394 C 0.59915 0.87165 0.30011 0.0
C2395 C 0.57185 0.84846 0.31264 0.0
C2396 C 0.56316 0.8349 0.32311 0.0
C2397 C 0.56391 0.8421 0.33519 0.0
C2398 C 0.55296 0.82934 0.3447 0.0
C2399 C 0.54158 0.80936 0.34227 0.0
C2400 C 0.54118 0.80207 0.33033 0.0
C2401 C 0.55174 0.81482 0.32072 0.0
H2402 H 0.53309 0.79951 0.34965 0.0
H2403 H 0.6154 0.9197 0.25214 0.0
H2404 H 0.11595 0.64862 0.2604 0.0
H2405 H 0.12522 0.67971 0.27052 0.0
H2406 H 0.11859 0.65344 0.30658 0.0
H2407 H 0.10847 0.62207 0.29654 0.0
H2408 H 0.1033 0.67679 0.30668 0.0
H2409 H 0.16431 0.68151 0.29386 0.0
H2410 H 0.18753 0.6799 0.27905 0.0
H2411 H 0.18676 0.72447 0.25693 0.0
H2412 H 0.16332 0.72615 0.27153 0.0
H2413 H 0.18315 0.77968 0.32935 0.0
H2414 H 0.17356 0.74785 0.32025 0.0
H2415 H 0.12041 0.74414 0.30525 0.0
H2416 H 0.12978 0.77592 0.31441 0.0
H2417 H 0.16673 0.73547 0.2958 0.0
H2418 H 0.08338 0.69615 0.30772 0.0
H2419 H 0.06162 0.69771 0.32374 0.0
H2420 H 0.10982 0.72176 0.35007 0.0
H2421 H 0.13175 0.72004 0.33429 0.0
C2422 C 0.1162 0.64937 0.27049 0.0
C2423 C 0.11153 0.63285 0.27766 0.0
C2424 C 0.1217 0.66721 0.27626 0.0
C2425 C 0.12287 0.66896 0.2893 0.0
C2426 C 0.11787 0.65244 0.2965 0.0
C2427 C 0.11228 0.63457 0.29074 0.0
C2428 C 0.1295 0.68806 0.29544 0.0
C2429 C 0.11716 0.68961 0.30429 0.0
C2430 C 0.14774 0.70473 0.29248 0.0
C2431 C 0.16193 0.70383 0.28373 0.0
C2432 C 0.16899 0.69087 0.28579 0.0
C2433 C 0.1822 0.68996 0.27744 0.0
C2434 C 0.18858 0.70205 0.26704 0.0
C2435 C 0.1818 0.71511 0.26499 0.0
C2436 C 0.16856 0.71605 0.2733 0.0
C2437 C 0.16936 0.77207 0.32417 0.0
C2438 C 0.15714 0.78027 0.32269 0.0
C2439 C 0.16399 0.75395 0.31891 0.0
C2440 C 0.14623 0.74362 0.31216 0.0
C2441 C 0.13409 0.75182 0.31054 0.0
C2442 C 0.1395 0.77001 0.31574 0.0
C2443 C 0.14038 0.72422 0.30684 0.0
C2444 C 0.15286 0.72263 0.29815 0.0
C2445 C 0.12245 0.70746 0.31012 0.0
C2446 C 0.10925 0.70814 0.31977 0.0
C2447 C 0.0893 0.70168 0.31694 0.0
C2448 C 0.07694 0.7026 0.32598 0.0
C2449 C 0.08435 0.70988 0.3379 0.0
C2450 C 0.10411 0.71618 0.34082 0.0
C2451 C 0.11652 0.71525 0.33183 0.0
H2452 H 0.07476 0.71062 0.34487 0.0
H2453 H 0.19881 0.70132 0.26059 0.0
H2454 H 0.8301 0.03695 0.38673 0.0
H2455 H 0.80482 0.00671 0.37702 0.0
H2456 H 0.79132 0.97866 0.41282 0.0
H2457 H 0.81721 0.00865 0.42254 0.0
H2458 H 0.79135 0.95466 0.3953 0.0
H2459 H 0.76192 0.99482 0.39978 0.0
H2460 H 0.75954 0.02449 0.39753 0.0
H2461 H 0.76046 0.01969 0.35768 0.0
H2462 H 0.76313 0.99012 0.3597 0.0
H2463 H 0.69857 0.87378 0.37656 0.0
H2464 H 0.72315 0.90365 0.38725 0.0
H2465 H 0.74213 0.93236 0.35183 0.0
H2466 H 0.71743 0.90276 0.34118 0.0
H2467 H 0.73862 0.95552 0.36977 0.0
H2468 H 0.76805 0.91507 0.36551 0.0
H2469 H 0.76879 0.88455 0.36798 0.0
H2470 H 0.767 0.88947 0.40777 0.0
H2471 H 0.76583 0.91983 0.40553 0.0
C2472 C 0.82198 0.0243 0.39253 0.0
C2473 C 0.82567 0.02532 0.40545 0.0
C2474 C 0.80735 0.00704 0.38698 0.0
C2475 C 0.79592 0.99047 0.39421 0.0
C2476 C 0.79986 0.99128 0.40705 0.0
C2477 C 0.81455 0.00851 0.41261 0.0
C2478 C 0.77967 0.97241 0.38841 0.0
C2479 C 0.77968 0.95481 0.38986 0.0
C2480 C 0.76457 0.9726 0.38115 0.0
C2481 C 0.76291 0.99036 0.3799 0.0
C2482 C 0.76177 0.00017 0.39054 0.0
C2483 C 0.76034 0.01696 0.3893 0.0
C2484 C 0.7599 0.024 0.37747 0.0
C2485 C 0.76083 0.01423 0.36684 0.0
C2486 C 0.76229 0.99745 0.36802 0.0
C2487 C 0.70785 0.88653 0.37108 0.0
C2488 C 0.70632 0.88584 0.358 0.0
C2489 C 0.72196 0.90353 0.37718 0.0
C2490 C 0.73465 0.92013 0.37031 0.0
C2491 C 0.73259 0.91968 0.3573 0.0
C2492 C 0.71862 0.90267 0.35121 0.0
C2493 C 0.75039 0.93789 0.37661 0.0
C2494 C 0.75028 0.9554 0.37524 0.0
C2495 C 0.76533 0.93758 0.38397 0.0
C2496 C 0.76662 0.91962 0.38535 0.0
C2497 C 0.76768 0.90958 0.37479 0.0
C2498 C 0.76818 0.89232 0.37614 0.0
C2499 C 0.76785 0.88504 0.38802 0.0
C2500 C 0.76719 0.8951 0.39857 0.0
C2501 C 0.7666 0.91234 0.39727 0.0
H2502 H 0.76808 0.8716 0.38906 0.0
H2503 H 0.75879 0.037 0.37653 0.0
H2504 H 0.00482 0.81795 0.41288 0.0
H2505 H 0.03473 0.823 0.4024 0.0
H2506 H 0.99989 0.79146 0.37019 0.0
H2507 H 0.96994 0.78654 0.3806 0.0
H2508 H 0.04605 0.79919 0.39512 0.0
H2509 H 0.02775 0.8079 0.3437 0.0
H2510 H 0.00947 0.82079 0.3321 0.0
H2511 H 0.01622 0.85835 0.36299 0.0
H2512 H 0.03478 0.8459 0.37469 0.0
H2513 H 0.10795 0.78445 0.3543 0.0
H2514 H 0.0782 0.78295 0.3629 0.0
H2515 H 0.10468 0.84506 0.35885 0.0
H2516 H 0.13464 0.84667 0.35056 0.0
H2517 H 0.06447 0.8249 0.35224 0.0
H2518 H 0.10653 0.8292 0.38559 0.0
H2519 H 0.12752 0.82065 0.39814 0.0
H2520 H 0.07746 0.76447 0.40551 0.0
H2521 H 0.05624 0.77243 0.39262 0.0
C2522 C 0.00351 0.81206 0.40357 0.0
C2523 C 0.98494 0.80183 0.39759 0.0
C2524 C 0.02065 0.81499 0.39757 0.0
C2525 C 0.01969 0.80777 0.38544 0.0
C2526 C 0.00116 0.79754 0.37944 0.0
C2527 C 0.98401 0.79471 0.38541 0.0
C2528 C 0.03798 0.81041 0.37928 0.0
C2529 C 0.04999 0.80477 0.38574 0.0
C2530 C 0.04351 0.81812 0.36712 0.0
C2531 C 0.03244 0.82578 0.36013 0.0
C2532 C 0.02537 0.81894 0.348 0.0
C2533 C 0.01497 0.82618 0.34141 0.0
C2534 C 0.01162 0.84032 0.34682 0.0
C2535 C 0.01874 0.84732 0.35883 0.0
C2536 C 0.02918 0.84016 0.36545 0.0
C2537 C 0.10729 0.79773 0.35508 0.0
C2538 C 0.12348 0.81562 0.35155 0.0
C2539 C 0.09032 0.79687 0.36001 0.0
C2540 C 0.08925 0.8139 0.36157 0.0
C2541 C 0.10515 0.83172 0.35767 0.0
C2542 C 0.12224 0.83262 0.35287 0.0
C2543 C 0.07207 0.81319 0.36799 0.0
C2544 C 0.06036 0.81921 0.36159 0.0
C2545 C 0.06708 0.80632 0.38034 0.0
C2546 C 0.07983 0.80133 0.38799 0.0
C2547 C 0.10003 0.81491 0.38974 0.0
C2548 C 0.11197 0.81019 0.39695 0.0
C2549 C 0.10384 0.79204 0.40264 0.0
C2550 C 0.08375 0.77852 0.40108 0.0
C2551 C 0.07176 0.78312 0.3938 0.0
H2552 H 0.1131 0.78846 0.40828 0.0
H2553 H 0.00355 0.84589 0.3417 0.0
H2554 H 0.2303 0.18325 0.38161 0.0
H2555 H 0.22147 0.20513 0.37114 0.0
H2556 H 0.20368 0.21799 0.40629 0.0
H2557 H 0.21176 0.19552 0.41677 0.0
H2558 H 0.1773 0.21221 0.38851 0.0
H2559 H 0.2476 0.25026 0.39305 0.0
H2560 H 0.28219 0.25781 0.39126 0.0
H2561 H 0.27626 0.2532 0.35139 0.0
H2562 H 0.24153 0.24534 0.35295 0.0
H2563 H 0.1787 0.29915 0.37017 0.0
H2564 H 0.18713 0.2766 0.38024 0.0
H2565 H 0.19425 0.25665 0.3442 0.0
H2566 H 0.1858 0.27916 0.33411 0.0
H2567 H 0.22581 0.26603 0.36216 0.0
H2568 H 0.15503 0.2285 0.35812 0.0
H2569 H 0.12117 0.22285 0.36045 0.0
H2570 H 0.12883 0.22815 0.40022 0.0
H2571 H 0.1629 0.2342 0.39811 0.0
C2572 C 0.22434 0.1906 0.38711 0.0
C2573 C 0.22176 0.18766 0.40004 0.0
C2574 C 0.21948 0.20325 0.38112 0.0
C2575 C 0.21213 0.21337 0.38796 0.0
C2576 C 0.2094 0.21038 0.40085 0.0
C2577 C 0.2142 0.19768 0.40684 0.0
C2578 C 0.20718 0.22699 0.38164 0.0
C2579 C 0.18799 0.22411 0.38288 0.0
C2580 C 0.22102 0.24233 0.37411 0.0
C2581 C 0.24189 0.24701 0.37313 0.0
C2582 C 0.25361 0.25068 0.38391 0.0
C2583 C 0.27326 0.25505 0.38293 0.0
C2584 C 0.2814 0.25593 0.37122 0.0
C2585 C 0.26992 0.25248 0.36046 0.0
C2586 C 0.25026 0.24808 0.36138 0.0
C2587 C 0.18211 0.28999 0.36439 0.0
C2588 C 0.18142 0.29076 0.35133 0.0
C2589 C 0.18683 0.27709 0.37015 0.0
C2590 C 0.19118 0.26493 0.36294 0.0
C2591 C 0.19085 0.26589 0.3499 0.0
C2592 C 0.18582 0.27859 0.34414 0.0
C2593 C 0.19602 0.25118 0.36905 0.0
C2594 C 0.21516 0.25407 0.36778 0.0
C2595 C 0.18221 0.23598 0.37662 0.0
C2596 C 0.1616 0.23199 0.37794 0.0
C2597 C 0.14956 0.22862 0.36736 0.0
C2598 C 0.13032 0.22532 0.36864 0.0
C2599 C 0.12287 0.22519 0.38048 0.0
C2600 C 0.13463 0.22829 0.39106 0.0
C2601 C 0.15391 0.23164 0.38982 0.0
H2602 H 0.10797 0.22265 0.38145 0.0
H2603 H 0.29661 0.25932 0.37048 0.0
H2604 H 0.65414 0.50628 0.72026 0.0
H2605 H 0.68309 0.53002 0.70875 0.0
H2606 H 0.67242 0.57584 0.72094 0.0
H2607 H 0.64311 0.55208 0.7322 0.0
H2608 H 0.68203 0.57929 0.69641 0.0
H2609 H 0.70782 0.56984 0.73482 0.0
H2610 H 0.71269 0.55092 0.7512 0.0
H2611 H 0.73809 0.52947 0.72444 0.0
H2612 H 0.7331 0.54807 0.70785 0.0
H2613 H 0.77611 0.66186 0.68589 0.0
H2614 H 0.7439 0.63568 0.69233 0.0
H2615 H 0.76241 0.59374 0.68448 0.0
H2616 H 0.79526 0.62023 0.67911 0.0
H2617 H 0.74782 0.58695 0.70577 0.0
H2618 H 0.72002 0.59474 0.66704 0.0
H2619 H 0.71447 0.61324 0.65057 0.0
H2620 H 0.69331 0.638 0.67793 0.0
H2621 H 0.69852 0.61945 0.69447 0.0
C2622 C 0.65783 0.52138 0.72039 0.0
C2623 C 0.64634 0.52729 0.72718 0.0
C2624 C 0.67447 0.53495 0.71389 0.0
C2625 C 0.68004 0.55474 0.71409 0.0
C2626 C 0.66843 0.56066 0.72068 0.0
C2627 C 0.65179 0.54709 0.72721 0.0
C2628 C 0.69813 0.56931 0.70758 0.0
C2629 C 0.69646 0.58108 0.6985 0.0
C2630 C 0.71688 0.57137 0.71011 0.0
C2631 C 0.71988 0.56017 0.72007 0.0
C2632 C 0.71428 0.56095 0.73241 0.0
C2633 C 0.71709 0.55031 0.74173 0.0
C2634 C 0.72564 0.53895 0.73886 0.0
C2635 C 0.73143 0.53825 0.72665 0.0
C2636 C 0.72863 0.54884 0.71728 0.0
C2637 C 0.77311 0.64698 0.68527 0.0
C2638 C 0.78805 0.64305 0.68174 0.0
C2639 C 0.75456 0.63194 0.68882 0.0
C2640 C 0.75039 0.61253 0.68871 0.0
C2641 C 0.76512 0.60853 0.68462 0.0
C2642 C 0.78386 0.62367 0.68138 0.0
C2643 C 0.73183 0.59691 0.69437 0.0
C2644 C 0.7334 0.585 0.70344 0.0
C2645 C 0.71299 0.59473 0.69182 0.0
C2646 C 0.70991 0.60594 0.68195 0.0
C2647 C 0.71435 0.60428 0.6695 0.0
C2648 C 0.71118 0.61468 0.66017 0.0
C2649 C 0.70371 0.62691 0.66322 0.0
C2650 C 0.69917 0.62858 0.67559 0.0
C2651 C 0.70211 0.61803 0.68492 0.0
H2652 H 0.70136 0.63503 0.656 0.0
H2653 H 0.72782 0.53074 0.74609 0.0
H2654 H 0.489 0.12595 0.7163 0.0
H2655 H 0.46388 0.13162 0.70669 0.0
H2656 H 0.46499 0.16464 0.73908 0.0
H2657 H 0.48999 0.15887 0.74878 0.0
H2658 H 0.42857 0.14131 0.73271 0.0
H2659 H 0.48615 0.1864 0.71086 0.0
H2660 H 0.51632 0.19799 0.69835 0.0
H2661 H 0.48202 0.16025 0.66813 0.0
H2662 H 0.45166 0.14819 0.68053 0.0
H2663 H 0.38402 0.18496 0.68718 0.0
H2664 H 0.41298 0.18516 0.6963 0.0
H2665 H 0.37858 0.12305 0.70128 0.0
H2666 H 0.34973 0.12273 0.69188 0.0
H2667 H 0.43333 0.16535 0.68955 0.0
H2668 H 0.39061 0.11426 0.73058 0.0
H2669 H 0.36159 0.10641 0.74356 0.0
H2670 H 0.36894 0.16287 0.73652 0.0
H2671 H 0.39819 0.17118 0.72369 0.0
C2672 C 0.48408 0.13463 0.72132 0.0
C2673 C 0.49154 0.14196 0.73332 0.0
C2674 C 0.4697 0.13788 0.7158 0.0
C2675 C 0.46262 0.14874 0.72208 0.0
C2676 C 0.47014 0.15617 0.73404 0.0
C2677 C 0.48442 0.15283 0.73959 0.0
C2678 C 0.44689 0.15176 0.71639 0.0
C2679 C 0.4297 0.14659 0.72328 0.0
C2680 C 0.4484 0.15909 0.70416 0.0
C2681 C 0.46665 0.16622 0.6967 0.0
C2682 C 0.48506 0.18042 0.70159 0.0
C2683 C 0.50219 0.1871 0.69451 0.0
C2684 C 0.5011 0.17981 0.68247 0.0
C2685 C 0.48285 0.16586 0.67747 0.0
C2686 C 0.46567 0.1591 0.68452 0.0
C2687 C 0.38277 0.17131 0.68998 0.0
C2688 C 0.36479 0.15373 0.68851 0.0
C2689 C 0.39928 0.17146 0.69524 0.0
C2690 C 0.39791 0.15413 0.69948 0.0
C2691 C 0.37993 0.13659 0.69809 0.0
C2692 C 0.36351 0.13641 0.69271 0.0
C2693 C 0.415 0.15431 0.70573 0.0
C2694 C 0.43235 0.16009 0.69897 0.0
C2695 C 0.41387 0.14802 0.71817 0.0
C2696 C 0.39648 0.14325 0.72606 0.0
C2697 C 0.38609 0.12503 0.73185 0.0
C2698 C 0.3696 0.1205 0.73918 0.0
C2699 C 0.3634 0.13411 0.74083 0.0
C2700 C 0.37372 0.15232 0.7352 0.0
C2701 C 0.39024 0.15693 0.72788 0.0
H2702 H 0.35062 0.13057 0.7465 0.0
H2703 H 0.51438 0.18502 0.67699 0.0
H2704 H 0.87169 0.34325 0.75297 0.0
H2705 H 0.86563 0.31345 0.74229 0.0
H2706 H 0.86884 0.33992 0.70674 0.0
H2707 H 0.8754 0.36997 0.7173 0.0
H2708 H 0.83735 0.30106 0.70833 0.0
H2709 H 0.90777 0.33855 0.71654 0.0
H2710 H 0.93739 0.35671 0.72987 0.0
H2711 H 0.9197 0.30586 0.75209 0.0
H2712 H 0.88982 0.28747 0.739 0.0
H2713 H 0.8499 0.2363 0.66932 0.0
H2714 H 0.85533 0.26587 0.68001 0.0
H2715 H 0.85883 0.24173 0.71525 0.0
H2716 H 0.8536 0.21225 0.70454 0.0
H2717 H 0.88627 0.27908 0.71406 0.0
H2718 H 0.81686 0.24089 0.70612 0.0
H2719 H 0.78771 0.22143 0.69265 0.0
H2720 H 0.80238 0.27186 0.67068 0.0
H2721 H 0.83187 0.29156 0.68387 0.0
C2722 C 0.87122 0.3428 0.74288 0.0
C2723 C 0.87418 0.35906 0.73599 0.0
C2724 C 0.86763 0.32571 0.7368 0.0
C2725 C 0.86692 0.32457 0.72374 0.0
C2726 C 0.86926 0.34052 0.71683 0.0
C2727 C 0.87296 0.35765 0.7229 0.0
C2728 C 0.86463 0.30705 0.71727 0.0
C2729 C 0.84812 0.29634 0.70947 0.0
C2730 C 0.87846 0.30068 0.71902 0.0
C2731 C 0.89647 0.3117 0.72687 0.0
C2732 C 0.91012 0.33129 0.72433 0.0
C2733 C 0.92697 0.34162 0.73183 0.0
C2734 C 0.9304 0.33246 0.74184 0.0
C2735 C 0.91701 0.31294 0.74435 0.0
C2736 C 0.90013 0.30256 0.73689 0.0
C2737 C 0.85168 0.23726 0.67932 0.0
C2738 C 0.85105 0.22192 0.68611 0.0
C2739 C 0.85488 0.25418 0.68543 0.0
C2740 C 0.85714 0.25583 0.69845 0.0
C2741 C 0.85711 0.24074 0.7052 0.0
C2742 C 0.85415 0.22393 0.69907 0.0
C2743 C 0.85903 0.27309 0.70508 0.0
C2744 C 0.87544 0.28374 0.71294 0.0
C2745 C 0.84496 0.27922 0.7035 0.0
C2746 C 0.82666 0.26768 0.69595 0.0
C2747 C 0.81389 0.24783 0.69841 0.0
C2748 C 0.79732 0.23675 0.69082 0.0
C2749 C 0.79321 0.2454 0.68081 0.0
C2750 C 0.8056 0.26518 0.67843 0.0
C2751 C 0.82223 0.27632 0.68597 0.0
H2752 H 0.78043 0.23678 0.67491 0.0
H2753 H 0.94346 0.34048 0.74763 0.0
H2754 H 0.17681 0.96423 0.62494 0.0
H2755 H 0.20088 0.99483 0.63493 0.0
H2756 H 0.21427 0.02333 0.59929 0.0
H2757 H 0.18989 0.99286 0.58922 0.0
H2758 H 0.24785 0.03232 0.61307 0.0
H2759 H 0.18612 0.0308 0.6192 0.0
H2760 H 0.15145 0.01642 0.62585 0.0
H2761 H 0.16851 0.01325 0.6635 0.0
H2762 H 0.20326 0.02737 0.65703 0.0
H2763 H 0.30382 0.12872 0.63713 0.0
H2764 H 0.27957 0.09919 0.62607 0.0
H2765 H 0.25817 0.07027 0.66127 0.0
H2766 H 0.282 0.09996 0.67227 0.0
H2767 H 0.22831 0.06192 0.64698 0.0
H2768 H 0.28943 0.06201 0.64125 0.0
H2769 H 0.32427 0.076 0.63504 0.0
H2770 H 0.30878 0.08104 0.59733 0.0
H2771 H 0.27388 0.06731 0.60336 0.0
C2772 C 0.18468 0.97704 0.61922 0.0
C2773 C 0.1813 0.97607 0.60627 0.0
C2774 C 0.1985 0.9945 0.62495 0.0
C2775 C 0.20923 0.01138 0.61786 0.0
C2776 C 0.20615 0.01045 0.60492 0.0
C2777 C 0.19226 0.993 0.59918 0.0
C2778 C 0.2237 0.02998 0.62398 0.0
C2779 C 0.24357 0.03896 0.62037 0.0
C2780 C 0.21814 0.03837 0.63369 0.0
C2781 C 0.19727 0.02997 0.63761 0.0
C2782 C 0.18246 0.02689 0.62888 0.0
C2783 C 0.16279 0.01882 0.63262 0.0
C2784 C 0.15777 0.01388 0.64508 0.0
C2785 C 0.17241 0.01706 0.65384 0.0
C2786 C 0.1921 0.02512 0.65015 0.0
C2787 C 0.294 0.11597 0.64246 0.0
C2788 C 0.29468 0.11656 0.65555 0.0
C2789 C 0.28017 0.0991 0.63615 0.0
C2790 C 0.26717 0.08236 0.64282 0.0
C2791 C 0.26796 0.08299 0.65591 0.0
C2792 C 0.28153 0.09997 0.66221 0.0
C2793 C 0.25261 0.06422 0.63621 0.0
C2794 C 0.23266 0.05533 0.63969 0.0
C2795 C 0.25815 0.05581 0.62646 0.0
C2796 C 0.27907 0.06379 0.62278 0.0
C2797 C 0.29347 0.0662 0.63165 0.0
C2798 C 0.31323 0.07408 0.62816 0.0
C2799 C 0.31874 0.07945 0.6158 0.0
C2800 C 0.30449 0.07689 0.6069 0.0
C2801 C 0.28472 0.06904 0.61035 0.0
H2802 H 0.33404 0.08556 0.61312 0.0
H2803 H 0.14254 0.00763 0.64796 0.0
H2804 H 0.03523 0.21577 0.62651 0.0
H2805 H 0.0048 0.20985 0.63675 0.0
H2806 H 0.97034 0.17136 0.6066 0.0
H2807 H 1.00073 0.17753 0.59624 0.0
H2808 H 0.95657 0.19382 0.6115 0.0
H2809 H 0.97354 0.15481 0.63641 0.0
H2810 H 0.99448 0.14699 0.64966 0.0
H2811 H 0.99905 0.18878 0.67702 0.0
H2812 H 0.97838 0.19708 0.66385 0.0
H2813 H 0.87155 0.15349 0.65929 0.0
H2814 H 0.90064 0.15381 0.65047 0.0
H2815 H 0.92565 0.21457 0.64169 0.0
H2816 H 0.8969 0.21445 0.65086 0.0
H2817 H 0.9417 0.17669 0.65609 0.0
H2818 H 0.94472 0.21919 0.61124 0.0
H2819 H 0.92202 0.22292 0.59695 0.0
H2820 H 0.87411 0.1677 0.60841 0.0
H2821 H 0.89661 0.16338 0.62254 0.0
C2822 C 0.02115 0.20587 0.62214 0.0
C2823 C 0.02041 0.19715 0.61054 0.0
C2824 C 0.00374 0.20245 0.62802 0.0
C2825 C 0.98517 0.18998 0.62254 0.0
C2826 C 0.98443 0.18108 0.61103 0.0
C2827 C 0.00183 0.18465 0.60509 0.0
C2828 C 0.96659 0.18695 0.62846 0.0
C2829 C 0.95337 0.19006 0.62125 0.0
C2830 C 0.96208 0.18161 0.64113 0.0
C2831 C 0.97458 0.17671 0.64907 0.0
C2832 C 0.97916 0.16246 0.6452 0.0
C2833 C 0.99095 0.15792 0.6527 0.0
C2834 C 0.99813 0.16742 0.66415 0.0
C2835 C 0.9935 0.18146 0.66814 0.0
C2836 C 0.98174 0.18608 0.66065 0.0
C2837 C 0.88346 0.16701 0.65574 0.0
C2838 C 0.8822 0.18407 0.656 0.0
C2839 C 0.90001 0.16715 0.65064 0.0
C2840 C 0.91524 0.18419 0.64537 0.0
C2841 C 0.91402 0.20124 0.64566 0.0
C2842 C 0.89764 0.20118 0.65092 0.0
C2843 C 0.93218 0.18413 0.63919 0.0
C2844 C 0.94502 0.18045 0.64634 0.0
C2845 C 0.93613 0.18851 0.62639 0.0
C2846 C 0.92234 0.1911 0.61809 0.0
C2847 C 0.92935 0.20783 0.61071 0.0
C2848 C 0.91653 0.21002 0.60262 0.0
C2849 C 0.89664 0.19558 0.60181 0.0
C2850 C 0.88951 0.17892 0.60911 0.0
C2851 C 0.9023 0.1766 0.61717 0.0
H2852 H 0.88681 0.19729 0.59548 0.0
H2853 H 0.00725 0.16388 0.66996 0.0
H2854 H 0.75625 0.8081 0.6389 0.0
H2855 H 0.76787 0.78765 0.64842 0.0
H2856 H 0.76904 0.76431 0.61225 0.0
H2857 H 0.75817 0.78519 0.60256 0.0
H2858 H 0.75301 0.73595 0.63212 0.0
H2859 H 0.80997 0.79885 0.62255 0.0
H2860 H 0.82939 0.83469 0.62356 0.0
H2861 H 0.83171 0.8327 0.6635 0.0
H2862 H 0.81203 0.79683 0.66272 0.0
H2863 H 0.81476 0.69677 0.64052 0.0
H2864 H 0.8006 0.71619 0.63318 0.0
H2865 H 0.81293 0.7454 0.6689 0.0
H2866 H 0.82771 0.72641 0.67615 0.0
H2867 H 0.82033 0.77039 0.65095 0.0
H2868 H 0.7663 0.70817 0.66118 0.0
H2869 H 0.7471 0.67229 0.66092 0.0
H2870 H 0.7381 0.67243 0.62142 0.0
H2871 H 0.75753 0.70831 0.6214 0.0
C2872 C 0.75901 0.79865 0.63295 0.0
C2873 C 0.75647 0.79846 0.61994 0.0
C2874 C 0.76548 0.78688 0.63843 0.0
C2875 C 0.76938 0.7746 0.63101 0.0
C2876 C 0.76599 0.77365 0.61812 0.0
C2877 C 0.75971 0.78556 0.61261 0.0
C2878 C 0.77836 0.76381 0.63654 0.0
C2879 C 0.76776 0.74341 0.63617 0.0
C2880 C 0.79737 0.77365 0.64213 0.0
C2881 C 0.80934 0.79519 0.64258 0.0
C2882 C 0.81448 0.80607 0.63155 0.0
C2883 C 0.82555 0.82638 0.63208 0.0
C2884 C 0.83173 0.83597 0.64359 0.0
C2885 C 0.82689 0.82526 0.65459 0.0
C2886 C 0.81578 0.80494 0.65411 0.0
C2887 C 0.81457 0.70738 0.64682 0.0
C2888 C 0.82215 0.70986 0.65903 0.0
C2889 C 0.80638 0.71841 0.64262 0.0
C2890 C 0.80521 0.73185 0.65061 0.0
C2891 C 0.81352 0.73497 0.66262 0.0
C2892 C 0.82199 0.7241 0.66677 0.0
C2893 C 0.79511 0.74244 0.64642 0.0
C2894 C 0.80548 0.76283 0.64704 0.0
C2895 C 0.77576 0.73255 0.64125 0.0
C2896 C 0.76351 0.71096 0.64128 0.0
C2897 C 0.7603 0.70056 0.65243 0.0
C2898 C 0.74938 0.68022 0.65233 0.0
C2899 C 0.74143 0.6701 0.64116 0.0
C2900 C 0.74429 0.6803 0.63007 0.0
C2901 C 0.75523 0.70064 0.63011 0.0
H2902 H 0.73305 0.65435 0.64109 0.0
H2903 H 0.8403 0.8517 0.64398 0.0
H2904 H 0.00366 0.81886 0.59738 0.0
H2905 H 0.97383 0.79574 0.60844 0.0
H2906 H 0.00989 0.79191 0.63768 0.0
H2907 H 0.03975 0.8154 0.62676 0.0
H2908 H 0.95998 0.75997 0.61357 0.0
H2909 H 0.98563 0.78059 0.66537 0.0
H2910 H 0.00723 0.80985 0.67795 0.0
H2911 H 1.00084 0.84582 0.65071 0.0
H2912 H 0.97897 0.81678 0.63806 0.0
H2913 H 0.90192 0.68247 0.65321 0.0
H2914 H 0.93122 0.71062 0.64467 0.0
H2915 H 0.90642 0.74713 0.65332 0.0
H2916 H 0.87678 0.71887 0.66152 0.0
H2917 H 0.94837 0.76459 0.65861 0.0
H2918 H 0.90189 0.73573 0.62532 0.0
H2919 H 0.87734 0.70916 0.61199 0.0
H2920 H 0.92102 0.6942 0.60125 0.0
H2921 H 0.94591 0.7208 0.61454 0.0
C2922 C 0.0052 0.8131 0.60618 0.0
C2923 C 0.02402 0.81892 0.61121 0.0
C2924 C 0.98815 0.79991 0.61251 0.0
C2925 C 0.98956 0.79217 0.62396 0.0
C2926 C 0.00837 0.79797 0.629 0.0
C2927 C 0.02544 0.81135 0.62274 0.0
C2928 C 0.97136 0.77739 0.63033 0.0
C2929 C 0.95753 0.76109 0.62341 0.0
C2930 C 0.96776 0.77894 0.64312 0.0
C2931 C 0.98084 0.7965 0.6507 0.0
C2932 C 0.98878 0.79474 0.66208 0.0
C2933 C 0.00108 0.81129 0.66922 0.0
C2934 C 0.00546 0.82969 0.66511 0.0
C2935 C 0.9975 0.83157 0.65386 0.0
C2936 C 0.98518 0.81507 0.64669 0.0
C2937 C 0.90286 0.69656 0.65345 0.0
C2938 C 0.88723 0.69856 0.65815 0.0
C2939 C 0.91956 0.71259 0.64857 0.0
C2940 C 0.92089 0.73088 0.64833 0.0
C2941 C 0.90566 0.73313 0.65348 0.0
C2942 C 0.8888 0.71701 0.65821 0.0
C2943 C 0.93757 0.74722 0.64188 0.0
C2944 C 0.95101 0.76367 0.64877 0.0
C2945 C 0.94053 0.74619 0.62898 0.0
C2946 C 0.92568 0.73009 0.62103 0.0
C2947 C 0.90621 0.72666 0.62021 0.0
C2948 C 0.89224 0.71161 0.61264 0.0
C2949 C 0.89755 0.69986 0.60585 0.0
C2950 C 0.9169 0.70326 0.60655 0.0
C2951 C 0.93097 0.71836 0.61407 0.0
H2952 H 0.8867 0.68823 0.59999 0.0
H2953 H 0.01499 0.84249 0.67065 0.0
H2954 H 0.18718 0.21984 0.62379 0.0
H2955 H 0.21325 0.21545 0.63332 0.0
H2956 H 0.20654 0.17525 0.60392 0.0
H2957 H 0.18037 0.1795 0.59438 0.0
H2958 H 0.21024 0.16259 0.62757 0.0
H2959 H 0.24361 0.21951 0.60231 0.0
H2960 H 0.25158 0.25192 0.59479 0.0
H2961 H 0.27139 0.27595 0.6315 0.0
H2962 H 0.26327 0.2436 0.63928 0.0
H2963 H 0.29672 0.15983 0.64619 0.0
H2964 H 0.27065 0.16122 0.63453 0.0
H2965 H 0.28723 0.21659 0.6521 0.0
H2966 H 0.31593 0.21692 0.66136 0.0
H2967 H 0.27731 0.21996 0.63247 0.0
H2968 H 0.24164 0.16012 0.65805 0.0
H2969 H 0.23453 0.12708 0.66379 0.0
H2970 H 0.21848 0.10771 0.62598 0.0
H2971 H 0.22602 0.14061 0.61987 0.0
C2972 C 0.19111 0.20991 0.61943 0.0
C2973 C 0.18177 0.20008 0.6083 0.0
C2974 C 0.20608 0.2075 0.62484 0.0
C2975 C 0.21193 0.19512 0.61928 0.0
C2976 C 0.20228 0.18488 0.60836 0.0
C2977 C 0.18744 0.18744 0.60287 0.0
C2978 C 0.22852 0.19333 0.62468 0.0
C2979 C 0.22496 0.17509 0.62872 0.0
C2980 C 0.24767 0.20961 0.62608 0.0
C2981 C 0.25265 0.22909 0.6214 0.0
C2982 C 0.24951 0.23167 0.6088 0.0
C2983 C 0.25408 0.25004 0.60449 0.0
C2984 C 0.26194 0.26598 0.61267 0.0
C2985 C 0.26528 0.26359 0.62517 0.0
C2986 C 0.26071 0.24524 0.62954 0.0
C2987 C 0.29454 0.17216 0.64762 0.0
C2988 C 0.3076 0.18781 0.65525 0.0
C2989 C 0.27935 0.17285 0.64107 0.0
C2990 C 0.27581 0.18848 0.64282 0.0
C2991 C 0.28915 0.20416 0.65048 0.0
C2992 C 0.3054 0.20423 0.65606 0.0
C2993 C 0.25906 0.18927 0.63637 0.0
C2994 C 0.26259 0.20737 0.63182 0.0
C2995 C 0.23983 0.17278 0.63458 0.0
C2996 C 0.23452 0.15287 0.6385 0.0
C2997 C 0.23657 0.1488 0.65098 0.0
C2998 C 0.23253 0.13013 0.65429 0.0
C2999 C 0.22604 0.11536 0.6453 0.0
C3000 C 0.22352 0.11916 0.63294 0.0
C3001 C 0.22771 0.13781 0.62954 0.0
H3002 H 0.22298 0.10096 0.64791 0.0
H3003 H 0.26547 0.28019 0.60931 0.0
H3004 H 0.77446 0.97506 0.60014 0.0
H3005 H 0.78548 0.00706 0.60936 0.0
H3006 H 0.77357 0.98201 0.64609 0.0
H3007 H 0.76159 0.94973 0.63689 0.0
H3008 H 0.76091 0.00721 0.64417 0.0
H3009 H 0.8209 0.00763 0.63498 0.0
H3010 H 0.84476 0.00372 0.62208 0.0
H3011 H 0.84945 0.04829 0.59745 0.0
H3012 H 0.82539 0.05227 0.61011 0.0
H3013 H 0.81729 0.09741 0.67675 0.0
H3014 H 0.80682 0.06506 0.6681 0.0
H3015 H 0.80772 0.08641 0.63107 0.0
H3016 H 0.81828 0.11885 0.63972 0.0
H3017 H 0.82661 0.0632 0.63373 0.0
H3018 H 0.76573 0.06194 0.64338 0.0
H3019 H 0.74297 0.06619 0.65716 0.0
H3020 H 0.74123 0.02309 0.68197 0.0
H3021 H 0.76429 0.01883 0.66844 0.0
C3022 C 0.77394 0.97629 0.61017 0.0
C3023 C 0.76715 0.95982 0.61778 0.0
C3024 C 0.78048 0.99464 0.61544 0.0
C3025 C 0.78063 0.99696 0.62843 0.0
C3026 C 0.77367 0.98055 0.63605 0.0
C3027 C 0.767 0.96215 0.63078 0.0
C3028 C 0.78791 0.01651 0.63402 0.0
C3029 C 0.77539 0.01937 0.64202 0.0
C3030 C 0.8067 0.03246 0.63107 0.0
C3031 C 0.82118 0.03011 0.62343 0.0
C3032 C 0.82689 0.01649 0.62676 0.0
C3033 C 0.84048 0.01428 0.6195 0.0
C3034 C 0.84858 0.02571 0.60894 0.0
C3035 C 0.84314 0.03942 0.60563 0.0
C3036 C 0.82954 0.04167 0.61284 0.0
C3037 C 0.81556 0.09528 0.66678 0.0
C3038 C 0.81875 0.11061 0.6589 0.0
C3039 C 0.80941 0.07678 0.66186 0.0
C3040 C 0.8065 0.07343 0.64897 0.0
C3041 C 0.80993 0.08878 0.64105 0.0
C3042 C 0.81582 0.10721 0.64599 0.0
C3043 C 0.79957 0.0538 0.64376 0.0
C3044 C 0.81216 0.05097 0.63586 0.0
C3045 C 0.78096 0.03785 0.6469 0.0
C3046 C 0.7669 0.04021 0.65496 0.0
C3047 C 0.76064 0.05349 0.65183 0.0
C3048 C 0.74766 0.05588 0.65959 0.0
C3049 C 0.74069 0.04495 0.67045 0.0
C3050 C 0.74666 0.03157 0.67356 0.0
C3051 C 0.75968 0.02915 0.66585 0.0
H3052 H 0.73065 0.04683 0.67644 0.0
H3053 H 0.8591 0.02399 0.60333 0.0
H3054 H 0.49677 0.37803 0.71423 0.0
H3055 H 0.47167 0.34772 0.70449 0.0
H3056 H 0.45984 0.31902 0.74003 0.0
H3057 H 0.48557 0.34908 0.74977 0.0
H3058 H 0.45949 0.2955 0.72197 0.0
H3059 H 0.42972 0.335 0.72835 0.0
H3060 H 0.4269 0.36453 0.72694 0.0
H3061 H 0.42599 0.36073 0.68698 0.0
H3062 H 0.42909 0.33131 0.68814 0.0
H3063 H 0.36472 0.21563 0.70588 0.0
H3064 H 0.38942 0.2463 0.71579 0.0
H3065 H 0.40981 0.2715 0.67956 0.0
H3066 H 0.38522 0.24088 0.66966 0.0
H3067 H 0.40522 0.29631 0.69816 0.0
H3068 H 0.43519 0.2565 0.69214 0.0
H3069 H 0.43545 0.22566 0.69391 0.0
H3070 H 0.43428 0.2293 0.73382 0.0
H3071 H 0.4336 0.25999 0.73227 0.0
C3072 C 0.48908 0.36521 0.71996 0.0
C3073 C 0.49313 0.36605 0.73281 0.0
C3074 C 0.47457 0.34793 0.71439 0.0
C3075 C 0.46363 0.33117 0.72157 0.0
C3076 C 0.46801 0.33179 0.73432 0.0
C3077 C 0.48259 0.34905 0.73989 0.0
C3078 C 0.44728 0.31319 0.71583 0.0
C3079 C 0.44753 0.29566 0.71689 0.0
C3080 C 0.43175 0.3134 0.70907 0.0
C3081 C 0.42984 0.33106 0.70833 0.0
C3082 C 0.42908 0.34055 0.71926 0.0
C3083 C 0.4274 0.35725 0.7185 0.0
C3084 C 0.42632 0.36453 0.70688 0.0
C3085 C 0.42686 0.35509 0.69598 0.0
C3086 C 0.42856 0.33839 0.69668 0.0
C3087 C 0.3743 0.22784 0.70007 0.0
C3088 C 0.37335 0.22592 0.68703 0.0
C3089 C 0.3884 0.24526 0.70571 0.0
C3090 C 0.40148 0.26103 0.69838 0.0
C3091 C 0.39987 0.25943 0.68535 0.0
C3092 C 0.386 0.24192 0.67972 0.0
C3093 C 0.41757 0.27883 0.70428 0.0
C3094 C 0.41723 0.29625 0.70325 0.0
C3095 C 0.43292 0.27849 0.71111 0.0
C3096 C 0.43416 0.26046 0.71209 0.0
C3097 C 0.43488 0.25067 0.70129 0.0
C3098 C 0.4351 0.23321 0.70225 0.0
C3099 C 0.43483 0.22549 0.71397 0.0
C3100 C 0.43446 0.23528 0.72475 0.0
C3101 C 0.43416 0.25272 0.72384 0.0
H3102 H 0.43496 0.21195 0.7147 0.0
H3103 H 0.42502 0.37746 0.70631 0.0
H3104 H 0.63757 0.13445 0.7118 0.0
H3105 H 0.66779 0.14002 0.70154 0.0
H3106 H 0.69359 0.14046 0.73727 0.0
H3107 H 0.66392 0.13604 0.74765 0.0
H3108 H 0.72067 0.16728 0.72358 0.0
H3109 H 0.67267 0.09974 0.71719 0.0
H3110 H 0.64086 0.0718 0.71033 0.0
H3111 H 0.65229 0.09247 0.67269 0.0
H3112 H 0.68407 0.12068 0.67936 0.0
H3113 H 0.77389 0.11853 0.69095 0.0
H3114 H 0.74385 0.11702 0.69887 0.0
H3115 H 0.7684 0.1782 0.69134 0.0
H3116 H 0.79893 0.17992 0.68418 0.0
H3117 H 0.71612 0.1218 0.6901 0.0
H3118 H 0.75116 0.19851 0.71198 0.0
H3119 H 0.7835 0.22401 0.72014 0.0
H3120 H 0.79867 0.18059 0.72973 0.0
H3121 H 0.76625 0.1548 0.72187 0.0
C3122 C 0.64976 0.13603 0.71752 0.0
C3123 C 0.64813 0.13464 0.7306 0.0
C3124 C 0.667 0.139 0.7116 0.0
C3125 C 0.68294 0.14037 0.71859 0.0
C3126 C 0.68152 0.13939 0.73164 0.0
C3127 C 0.66438 0.1366 0.73757 0.0
C3128 C 0.70091 0.14236 0.71235 0.0
C3129 C 0.71964 0.15735 0.71623 0.0
C3130 C 0.69972 0.12935 0.70283 0.0
C3131 C 0.68062 0.11243 0.6988 0.0
C3132 C 0.66832 0.0984 0.70747 0.0
C3133 C 0.65031 0.08251 0.70361 0.0
C3134 C 0.64453 0.0804 0.69109 0.0
C3135 C 0.65677 0.09415 0.68239 0.0
C3136 C 0.67478 0.11009 0.6862 0.0
C3137 C 0.77279 0.13161 0.69095 0.0
C3138 C 0.78855 0.14924 0.68671 0.0
C3139 C 0.75558 0.13074 0.69541 0.0
C3140 C 0.75381 0.14751 0.69583 0.0
C3141 C 0.76945 0.1651 0.69135 0.0
C3142 C 0.78682 0.16603 0.68708 0.0
C3143 C 0.73588 0.14656 0.70142 0.0
C3144 C 0.71715 0.13182 0.69738 0.0
C3145 C 0.73711 0.15945 0.71104 0.0
C3146 C 0.75636 0.17476 0.71622 0.0
C3147 C 0.76134 0.1944 0.71591 0.0
C3148 C 0.77969 0.2089 0.72047 0.0
C3149 C 0.79318 0.20394 0.72538 0.0
C3150 C 0.78825 0.18443 0.72587 0.0
C3151 C 0.76988 0.16986 0.72139 0.0
H3152 H 0.80742 0.2152 0.72883 0.0
H3153 H 0.63059 0.06808 0.68812 0.0
H3154 H 0.90474 0.54089 0.73902 0.0
H3155 H 0.89756 0.56372 0.72822 0.0
H3156 H 0.83951 0.51668 0.71829 0.0
H3157 H 0.84655 0.49372 0.72915 0.0
H3158 H 0.8577 0.54069 0.69863 0.0
H3159 H 0.84435 0.54791 0.74158 0.0
H3160 H 0.85203 0.5533 0.76408 0.0
H3161 H 0.90276 0.609 0.75657 0.0
H3162 H 0.89538 0.60392 0.73404 0.0
H3163 H 0.8206 0.60193 0.67877 0.0
H3164 H 0.82567 0.5774 0.6891 0.0
H3165 H 0.88231 0.62243 0.70302 0.0
H3166 H 0.87704 0.64707 0.69309 0.0
H3167 H 0.8632 0.59827 0.72081 0.0
H3168 H 0.87749 0.59131 0.67807 0.0
H3169 H 0.87024 0.58658 0.65551 0.0
H3170 H 0.81884 0.53106 0.66232 0.0
H3171 H 0.82571 0.53554 0.68495 0.0
C3172 C 0.89037 0.53543 0.73465 0.0
C3173 C 0.87616 0.51552 0.735 0.0
C3174 C 0.88631 0.54848 0.72846 0.0
C3175 C 0.86792 0.54191 0.72258 0.0
C3176 C 0.85379 0.52203 0.72277 0.0
C3177 C 0.85785 0.50894 0.72895 0.0
C3178 C 0.86351 0.55585 0.71624 0.0
C3179 C 0.85862 0.55314 0.7035 0.0
C3180 C 0.86511 0.57227 0.72256 0.0
C3181 C 0.86939 0.57547 0.73613 0.0
C3182 C 0.85718 0.56127 0.74473 0.0
C3183 C 0.86146 0.56429 0.75749 0.0
C3184 C 0.87789 0.58147 0.76176 0.0
C3185 C 0.89002 0.5957 0.75327 0.0
C3186 C 0.88576 0.59279 0.74051 0.0
C3187 C 0.8342 0.60659 0.68395 0.0
C3188 C 0.84845 0.62643 0.6851 0.0
C3189 C 0.83711 0.59255 0.68983 0.0
C3190 C 0.85448 0.59806 0.69672 0.0
C3191 C 0.86878 0.61785 0.69777 0.0
C3192 C 0.86577 0.63191 0.69206 0.0
C3193 C 0.85765 0.58331 0.70313 0.0
C3194 C 0.86223 0.58582 0.71591 0.0
C3195 C 0.85589 0.56679 0.69682 0.0
C3196 C 0.85203 0.56383 0.6832 0.0
C3197 C 0.86461 0.57812 0.67476 0.0
C3198 C 0.86057 0.57548 0.66196 0.0
C3199 C 0.84406 0.55855 0.65749 0.0
C3200 C 0.83162 0.54417 0.6658 0.0
C3201 C 0.8356 0.54673 0.67861 0.0
H3202 H 0.84091 0.55658 0.64758 0.0
H3203 H 0.88119 0.58378 0.77164 0.0
H3204 H 0.44082 0.91476 0.17768 0.0
H3205 H 0.44803 0.92899 0.15685 0.0
H3206 H 0.50846 0.96806 0.16806 0.0
H3207 H 0.50122 0.95435 0.18899 0.0
H3208 H 0.49406 0.98703 0.15523 0.0
H3209 H 0.49564 0.9276 0.14976 0.0
H3210 H 0.48249 0.89219 0.15078 0.0
H3211 H 0.43414 0.88226 0.12673 0.0
H3212 H 0.44687 0.91762 0.12571 0.0
H3213 H 0.53911 0.0197 0.09687 0.0
H3214 H 0.52933 0.00357 0.117 0.0
H3215 H 0.46965 0.96773 0.10333 0.0
H3216 H 0.47931 0.98398 0.08311 0.0
H3217 H 0.48179 0.94669 0.11713 0.0
H3218 H 0.48076 0.00612 0.12205 0.0
H3219 H 0.494 0.04153 0.12093 0.0
H3220 H 0.5412 0.05141 0.14603 0.0
H3221 H 0.5284 0.01605 0.14716 0.0
C3222 C 0.45561 0.92649 0.17575 0.0
C3223 C 0.47045 0.93335 0.18503 0.0
C3224 C 0.45976 0.93449 0.16378 0.0
C3225 C 0.47886 0.94946 0.16081 0.0
C3226 C 0.49363 0.95647 0.17009 0.0
C3227 C 0.4895 0.94849 0.18204 0.0
C3228 C 0.48348 0.95803 0.1481 0.0
C3229 C 0.49159 0.97821 0.14692 0.0
C3230 C 0.47976 0.9465 0.13718 0.0
C3231 C 0.4721 0.92525 0.13777 0.0
C3232 C 0.48212 0.91786 0.14478 0.0
C3233 C 0.47476 0.8978 0.14533 0.0
C3234 C 0.45746 0.88498 0.13885 0.0
C3235 C 0.44752 0.8922 0.13176 0.0
C3236 C 0.45481 0.91225 0.13118 0.0
C3237 C 0.52386 0.00847 0.09813 0.0
C3238 C 0.50995 0.00332 0.08838 0.0
C3239 C 0.5183 0.99922 0.10966 0.0
C3240 C 0.49867 0.98465 0.11177 0.0
C3241 C 0.48487 0.97897 0.10194 0.0
C3242 C 0.49044 0.98824 0.09037 0.0
C3243 C 0.4926 0.97569 0.12431 0.0
C3244 C 0.48419 0.95547 0.12544 0.0
C3245 C 0.49603 0.98716 0.1352 0.0
C3246 C 0.50372 0.00844 0.1346 0.0
C3247 C 0.49405 0.01585 0.12726 0.0
C3248 C 0.50146 0.03591 0.12663 0.0
C3249 C 0.51846 0.04872 0.13338 0.0
C3250 C 0.52805 0.04148 0.14079 0.0
C3251 C 0.52071 0.02142 0.14144 0.0
H3252 H 0.52417 0.06425 0.13288 0.0
H3253 H 0.45179 0.86945 0.13929 0.0
H3254 H 0.06337 0.55028 0.17999 0.0
H3255 H 0.04952 0.54458 0.15892 0.0
H3256 H 0.00451 0.48669 0.16918 0.0
H3257 H 0.01844 0.49228 0.19032 0.0
H3258 H 0.01902 0.48641 0.14671 0.0
H3259 H 0.99398 0.52354 0.16685 0.0
H3260 H 0.9959 0.55093 0.17898 0.0
H3261 H 0.03235 0.59088 0.15083 0.0
H3262 H 0.03089 0.56374 0.13861 0.0
H3263 H 0.95504 0.47137 0.09477 0.0
H3264 H 0.96868 0.47576 0.11594 0.0
H3265 H 0.01779 0.53147 0.10567 0.0
H3266 H 0.00417 0.52715 0.08451 0.0
H3267 H 1.00041 0.53229 0.12822 0.0
H3268 H 0.02532 0.49466 0.1082 0.0
H3269 H 0.02286 0.46696 0.09616 0.0
H3270 H 0.98557 0.42747 0.12423 0.0
H3271 H 0.98757 0.45493 0.13636 0.0
C3272 C 0.05044 0.53638 0.17779 0.0
C3273 C 0.04188 0.52179 0.18684 0.0
C3274 C 0.04255 0.53314 0.16574 0.0
C3275 C 0.02578 0.51532 0.16253 0.0
C3276 C 0.01743 0.50056 0.17147 0.0
C3277 C 0.02541 0.50376 0.18352 0.0
C3278 C 0.01697 0.51219 0.14985 0.0
C3279 C 0.01467 0.49627 0.14274 0.0
C3280 C 0.01164 0.52527 0.14458 0.0
C3281 C 0.01247 0.54162 0.15188 0.0
C3282 C 0.00253 0.53818 0.16329 0.0
C3283 C 0.00351 0.55366 0.17018 0.0
C3284 C 0.01428 0.57264 0.16569 0.0
C3285 C 0.02404 0.57617 0.1543 0.0
C3286 C 0.02312 0.56075 0.14739 0.0
C3287 C 0.9687 0.48457 0.09706 0.0
C3288 C 0.97859 0.49894 0.08802 0.0
C3289 C 0.97652 0.487 0.10911 0.0
C3290 C 0.99429 0.50388 0.11232 0.0
C3291 C 0.00408 0.51833 0.10335 0.0
C3292 C 0.99637 0.51581 0.09128 0.0
C3293 C 0.00256 0.50659 0.1251 0.0
C3294 C 0.00472 0.52241 0.13223 0.0
C3295 C 0.00764 0.49337 0.13039 0.0
C3296 C 0.00642 0.47683 0.12312 0.0
C3297 C 0.01644 0.48005 0.11175 0.0
C3298 C 0.01516 0.4644 0.10492 0.0
C3299 C 0.00402 0.44546 0.10941 0.0
C3300 C 0.99417 0.44214 0.12076 0.0
C3301 C 0.99538 0.45775 0.12762 0.0
H3302 H 0.00305 0.43336 0.10411 0.0
H3303 H 0.01502 0.5846 0.17104 0.0
H3304 H 0.46708 0.51394 0.18908 0.0
H3305 H 0.47717 0.50917 0.16832 0.0
H3306 H 0.4537 0.54309 0.15209 0.0
H3307 H 0.44403 0.54835 0.17291 0.0
H3308 H 0.44356 0.50308 0.14005 0.0
H3309 H 0.49698 0.56635 0.15343 0.0
H3310 H 0.52224 0.5887 0.16848 0.0
H3311 H 0.54969 0.5534 0.16803 0.0
H3312 H 0.52437 0.53066 0.15312 0.0
H3313 H 0.48206 0.50565 0.0803 0.0
H3314 H 0.47224 0.5153 0.09925 0.0
H3315 H 0.5158 0.50867 0.1202 0.0
H3316 H 0.52739 0.50137 0.10112 0.0
H3317 H 0.51488 0.53671 0.12964 0.0
H3318 H 0.46266 0.47254 0.11822 0.0
H3319 H 0.43718 0.44751 0.10441 0.0
H3320 H 0.40719 0.48039 0.10247 0.0
H3321 H 0.43262 0.50573 0.11616 0.0
C3322 C 0.46395 0.52024 0.18106 0.0
C3323 C 0.45479 0.5315 0.18255 0.0
C3324 C 0.46975 0.51756 0.16925 0.0
C3325 C 0.46618 0.52581 0.15872 0.0
C3326 C 0.45655 0.53661 0.16013 0.0
C3327 C 0.45111 0.53965 0.17198 0.0
C3328 C 0.47303 0.52352 0.14632 0.0
C3329 C 0.45911 0.51062 0.13765 0.0
C3330 C 0.49335 0.53295 0.1434 0.0
C3331 C 0.50866 0.54671 0.15227 0.0
C3332 C 0.50828 0.56326 0.15664 0.0
C3333 C 0.52264 0.57602 0.16512 0.0
C3334 C 0.53753 0.57245 0.16923 0.0
C3335 C 0.53813 0.55614 0.16484 0.0
C3336 C 0.52379 0.54332 0.15637 0.0
C3337 C 0.49 0.50669 0.08883 0.0
C3338 C 0.50545 0.50235 0.08903 0.0
C3339 C 0.48402 0.51187 0.09978 0.0
C3340 C 0.49277 0.51211 0.11131 0.0
C3341 C 0.50857 0.5084 0.11149 0.0
C3342 C 0.51499 0.50385 0.10051 0.0
C3343 C 0.48543 0.51594 0.12323 0.0
C3344 C 0.49927 0.52917 0.13189 0.0
C3345 C 0.46503 0.5064 0.12625 0.0
C3346 C 0.44964 0.49111 0.11811 0.0
C3347 C 0.45068 0.47448 0.11479 0.0
C3348 C 0.43625 0.46023 0.10699 0.0
C3349 C 0.42061 0.46239 0.10254 0.0
C3350 C 0.41933 0.47876 0.10591 0.0
C3351 C 0.43374 0.49306 0.1137 0.0
H3352 H 0.40946 0.45135 0.09649 0.0
H3353 H 0.54863 0.58234 0.1758 0.0
H3354 H 0.93228 0.48656 0.83251 0.0
H3355 H 0.94867 0.4943 0.85291 0.0
H3356 H 0.98656 0.47254 0.84052 0.0
H3357 H 0.9703 0.46485 0.82007 0.0
H3358 H 0.97128 0.45865 0.86314 0.0
H3359 H 0.00399 0.52122 0.84339 0.0
H3360 H 0.00576 0.54916 0.83228 0.0
H3361 H 0.9765 0.55956 0.86265 0.0
H3362 H 0.97431 0.5315 0.87387 0.0
H3363 H 0.0401 0.4933 0.91286 0.0
H3364 H 0.0249 0.48793 0.89221 0.0
H3365 H 0.98882 0.51157 0.90498 0.0
H3366 H 0.0046 0.5178 0.92553 0.0
H3367 H 0.0028 0.52461 0.88227 0.0
H3368 H 0.96976 0.46241 0.90202 0.0
H3369 H 0.96733 0.43431 0.91329 0.0
H3370 H 0.9962 0.4229 0.88314 0.0
H3371 H 0.99905 0.45112 0.87176 0.0
C3372 C 0.94427 0.48365 0.83408 0.0
C3373 C 0.95 0.47511 0.82467 0.0
C3374 C 0.9536 0.48805 0.84574 0.0
C3375 C 0.96894 0.48414 0.84819 0.0
C3376 C 0.97472 0.47563 0.83883 0.0
C3377 C 0.96538 0.4712 0.82717 0.0
C3378 C 0.97865 0.48843 0.86063 0.0
C3379 C 0.97843 0.47313 0.86725 0.0
C3380 C 0.98744 0.50721 0.86613 0.0
C3381 C 0.98882 0.52414 0.85942 0.0
C3382 C 0.9978 0.52937 0.84766 0.0
C3383 C 0.9989 0.54525 0.84135 0.0
C3384 C 0.9912 0.5561 0.84674 0.0
C3385 C 0.98243 0.55113 0.85848 0.0
C3386 C 0.98127 0.53525 0.86482 0.0
C3387 C 0.02913 0.49761 0.91124 0.0
C3388 C 0.02352 0.5059 0.92087 0.0
C3389 C 0.0203 0.49433 0.89946 0.0
C3390 C 0.0055 0.49906 0.89711 0.0
C3391 C 1.00013 0.5077 0.90661 0.0
C3392 C 0.00903 0.51108 0.91839 0.0
C3393 C 0.99554 0.49485 0.88475 0.0
C3394 C 0.99567 0.51014 0.87816 0.0
C3395 C 0.98655 0.47602 0.87929 0.0
C3396 C 0.98478 0.45899 0.88609 0.0
C3397 C 0.97573 0.454 0.89783 0.0
C3398 C 0.97425 0.43804 0.90424 0.0
C3399 C 0.98165 0.42686 0.89895 0.0
C3400 C 0.9905 0.43159 0.88723 0.0
C3401 C 0.99203 0.44756 0.88079 0.0
H3402 H 0.9805 0.4145 0.90392 0.0
H3403 H 0.99207 0.56839 0.84184 0.0
H3404 H 0.53791 0.4498 0.83092 0.0
H3405 H 0.5294 0.45562 0.85177 0.0
H3406 H 0.54029 0.51221 0.84046 0.0
H3407 H 0.54886 0.50648 0.81954 0.0
H3408 H 0.55501 0.51382 0.86346 0.0
H3409 H 0.49338 0.47398 0.84217 0.0
H3410 H 0.46876 0.44563 0.83 0.0
H3411 H 0.46554 0.40744 0.85924 0.0
H3412 H 0.49038 0.43555 0.87151 0.0
H3413 H 0.50051 0.52898 0.91106 0.0
H3414 H 0.51241 0.52391 0.8911 0.0
H3415 H 0.50608 0.46993 0.90448 0.0
H3416 H 0.49416 0.47493 0.92448 0.0
H3417 H 0.48951 0.46678 0.88078 0.0
H3418 H 0.55064 0.5073 0.90234 0.0
H3419 H 0.57485 0.53601 0.91441 0.0
H3420 H 0.57835 0.57338 0.88454 0.0
H3421 H 0.55393 0.5449 0.87235 0.0
C3422 C 0.53844 0.46346 0.83285 0.0
C3423 C 0.54389 0.47761 0.82353 0.0
C3424 C 0.53359 0.46678 0.84478 0.0
C3425 C 0.53391 0.48423 0.84763 0.0
C3426 C 0.53992 0.49863 0.83847 0.0
C3427 C 0.54485 0.49535 0.82653 0.0
C3428 C 0.52754 0.48725 0.86007 0.0
C3429 C 0.5406 0.50366 0.86718 0.0
C3430 C 0.50888 0.47379 0.86504 0.0
C3431 C 0.49389 0.45686 0.8577 0.0
C3432 C 0.48754 0.45952 0.84596 0.0
C3433 C 0.47353 0.4435 0.83905 0.0
C3434 C 0.46563 0.42474 0.84383 0.0
C3435 C 0.4717 0.42197 0.85554 0.0
C3436 C 0.48573 0.43795 0.86248 0.0
C3437 C 0.5016 0.516 0.90974 0.0
C3438 C 0.49628 0.50228 0.91932 0.0
C3439 C 0.50854 0.5132 0.89837 0.0
C3440 C 0.5102 0.49659 0.89634 0.0
C3441 C 0.50492 0.48286 0.90588 0.0
C3442 C 0.49819 0.48577 0.9173 0.0
C3443 C 0.51696 0.49333 0.88414 0.0
C3444 C 0.50395 0.47689 0.87707 0.0
C3445 C 0.5356 0.50681 0.87919 0.0
C3446 C 0.5503 0.52398 0.88648 0.0
C3447 C 0.55644 0.52166 0.89839 0.0
C3448 C 0.57023 0.53788 0.90524 0.0
C3449 C 0.57809 0.55651 0.90026 0.0
C3450 C 0.57222 0.55894 0.8884 0.0
C3451 C 0.55842 0.54276 0.88151 0.0
H3452 H 0.58878 0.56906 0.90558 0.0
H3453 H 0.45478 0.41235 0.83846 0.0
H3454 H 0.55075 0.10433 0.83329 0.0
H3455 H 0.54317 0.08942 0.85405 0.0
H3456 H 0.51879 0.03257 0.83707 0.0
H3457 H 0.52684 0.04742 0.81634 0.0
H3458 H 0.49461 0.03964 0.85707 0.0
H3459 H 0.55887 0.04606 0.84818 0.0
H3460 H 0.5941 0.06492 0.84258 0.0
H3461 H 0.60563 0.10228 0.87441 0.0
H3462 H 0.57037 0.08379 0.88008 0.0
H3463 H 0.48027 0.97604 0.90603 0.0
H3464 H 0.48827 0.99437 0.88685 0.0
H3465 H 0.53268 0.0455 0.90631 0.0
H3466 H 0.52604 0.02669 0.92539 0.0
H3467 H 0.54706 0.04436 0.8856 0.0
H3468 H 0.48556 0.03882 0.89605 0.0
H3469 H 0.45058 0.0229 0.90226 0.0
H3470 H 0.43359 0.98816 0.86878 0.0
H3471 H 0.46851 0.00369 0.86245 0.0
C3472 C 0.54379 0.08865 0.83402 0.0
C3473 C 0.53941 0.077 0.82324 0.0
C3474 C 0.5395 0.08018 0.84585 0.0
C3475 C 0.53042 0.05991 0.84707 0.0
C3476 C 0.52579 0.04824 0.83631 0.0
C3477 C 0.53046 0.05672 0.8245 0.0
C3478 C 0.52579 0.05082 0.85956 0.0
C3479 C 0.506 0.04046 0.86329 0.0
C3480 C 0.54077 0.05267 0.86785 0.0
C3481 C 0.56195 0.0637 0.86446 0.0
C3482 C 0.56887 0.05842 0.8539 0.0
C3483 C 0.58886 0.06901 0.85074 0.0
C3484 C 0.60209 0.08483 0.85811 0.0
C3485 C 0.59537 0.09005 0.86869 0.0
C3486 C 0.57539 0.07951 0.87189 0.0
C3487 C 0.49196 0.99111 0.90628 0.0
C3488 C 0.50258 -0.00028 0.91737 0.0
C3489 C 0.49626 0.00175 0.89527 0.0
C3490 C 0.51085 0.02152 0.89507 0.0
C3491 C 0.52129 0.0303 0.90616 0.0
C3492 C 0.51728 0.01953 0.91715 0.0
C3493 C 0.51566 0.03268 0.88318 0.0
C3494 C 0.53554 0.04354 0.87951 0.0
C3495 C 0.50075 0.0317 0.87507 0.0
C3496 C 0.47969 0.02233 0.87882 0.0
C3497 C 0.47439 0.02769 0.89005 0.0
C3498 C 0.45456 0.01875 0.89359 0.0
C3499 C 0.43988 0.0045 0.88593 0.0
C3500 C 0.44498 0.99919 0.87471 0.0
C3501 C 0.46479 0.00808 0.87113 0.0
H3502 H 0.42454 0.99759 0.88869 0.0
H3503 H 0.61756 0.09301 0.85564 0.0
H3504 H 0.09893 0.23862 0.5095 0.0
H3505 H 0.10624 0.25375 0.48892 0.0
H3506 H 0.16594 0.29394 0.50095 0.0
H3507 H 0.15861 0.27923 0.5216 0.0
H3508 H 0.1502 0.31241 0.48853 0.0
H3509 H 0.15559 0.25516 0.4821 0.0
H3510 H 0.14408 0.22002 0.48244 0.0
H3511 H 0.09594 0.2089 0.45784 0.0
H3512 H 0.107 0.24398 0.4575 0.0
H3513 H 0.19731 0.3497 0.43134 0.0
H3514 H 0.18714 0.33244 0.45108 0.0
H3515 H 0.12863 0.29509 0.43606 0.0
H3516 H 0.13868 0.31246 0.41622 0.0
H3517 H 0.1416 0.27459 0.44969 0.0
H3518 H 0.13676 0.33182 0.45549 0.0
H3519 H 0.14823 0.36695 0.45504 0.0
H3520 H 0.19501 0.37804 0.48084 0.0
H3521 H 0.18399 0.34298 0.4813 0.0
C3522 C 0.11357 0.25076 0.50779 0.0
C3523 C 0.1282 0.25765 0.51721 0.0
C3524 C 0.11779 0.25929 0.49598 0.0
C3525 C 0.13671 0.27487 0.49333 0.0
C3526 C 0.15125 0.2819 0.50275 0.0
C3527 C 0.14708 0.27336 0.51453 0.0
C3528 C 0.14138 0.28408 0.48082 0.0
C3529 C 0.14853 0.30416 0.48006 0.0
C3530 C 0.13866 0.27325 0.46971 0.0
C3531 C 0.132 0.25217 0.46989 0.0
C3532 C 0.14245 0.24521 0.47685 0.0
C3533 C 0.13603 0.2253 0.47703 0.0
C3534 C 0.11926 0.21223 0.47019 0.0
C3535 C 0.1089 0.21904 0.46314 0.0
C3536 C 0.11525 0.23893 0.46295 0.0
C3537 C 0.18223 0.3379 0.43223 0.0
C3538 C 0.16875 0.33265 0.42222 0.0
C3539 C 0.17645 0.328 0.44353 0.0
C3540 C 0.15702 0.31266 0.44514 0.0
C3541 C 0.14368 0.30691 0.43505 0.0
C3542 C 0.14947 0.31683 0.4237 0.0
C3543 C 0.15068 0.30296 0.45744 0.0
C3544 C 0.14318 0.2828 0.45816 0.0
C3545 C 0.15303 0.3137 0.46854 0.0
C3546 C 0.15964 0.33479 0.46834 0.0
C3547 C 0.14958 0.34176 0.46099 0.0
C3548 C 0.15599 0.36166 0.46075 0.0
C3549 C 0.17237 0.37472 0.46788 0.0
C3550 C 0.18234 0.3679 0.4753 0.0
C3551 C 0.17601 0.34802 0.47557 0.0
H3552 H 0.17731 0.39012 0.46768 0.0
H3553 H 0.11431 0.19683 0.47034 0.0
H3554 H 0.72454 0.84162 0.51984 0.0
H3555 H 0.71368 0.83668 0.49802 0.0
H3556 H 0.6728 0.85672 0.50642 0.0
H3557 H 0.68321 0.86122 0.52829 0.0
H3558 H 0.65572 0.82373 0.49248 0.0
H3559 H 0.71559 0.88589 0.49153 0.0
H3560 H 0.75105 0.90888 0.49516 0.0
H3561 H 0.76609 0.87424 0.47171 0.0
H3562 H 0.73069 0.85088 0.46808 0.0
H3563 H 0.62976 0.83501 0.43157 0.0
H3564 H 0.64336 0.84239 0.45275 0.0
H3565 H 0.68468 0.82344 0.44303 0.0
H3566 H 0.67123 0.81617 0.42177 0.0
H3567 H 0.70203 0.85565 0.45753 0.0
H3568 H 0.64273 0.79345 0.45855 0.0
H3569 H 0.60739 0.77008 0.45482 0.0
H3570 H 0.59146 0.80409 0.47822 0.0
H3571 H 0.62673 0.82784 0.48194 0.0
C3572 C 0.71314 0.84484 0.51704 0.0
C3573 C 0.70473 0.85183 0.52577 0.0
C3574 C 0.7071 0.8422 0.50456 0.0
C3575 C 0.6926 0.84654 0.50059 0.0
C3576 C 0.68408 0.85337 0.50929 0.0
C3577 C 0.69013 0.85605 0.52176 0.0
C3578 C 0.68591 0.84353 0.48743 0.0
C3579 C 0.66579 0.83091 0.48485 0.0
C3580 C 0.69919 0.85248 0.47747 0.0
C3581 C 0.72048 0.86653 0.47964 0.0
C3582 C 0.72645 0.88308 0.48723 0.0
C3583 C 0.74654 0.89619 0.48927 0.0
C3584 C 0.76082 0.89299 0.4837 0.0
C3585 C 0.75502 0.87668 0.47604 0.0
C3586 C 0.73495 0.86351 0.47398 0.0
C3587 C 0.64176 0.83245 0.43395 0.0
C3588 C 0.64932 0.82485 0.42507 0.0
C3589 C 0.64952 0.83668 0.44604 0.0
C3590 C 0.66479 0.83313 0.44951 0.0
C3591 C 0.67287 0.82624 0.44054 0.0
C3592 C 0.6652 0.82212 0.42841 0.0
C3593 C 0.67181 0.83599 0.46261 0.0
C3594 C 0.69197 0.84849 0.46517 0.0
C3595 C 0.6586 0.82685 0.47257 0.0
C3596 C 0.63737 0.81252 0.47043 0.0
C3597 C 0.63169 0.79602 0.46283 0.0
C3598 C 0.61167 0.7827 0.46072 0.0
C3599 C 0.59718 0.78562 0.46625 0.0
C3600 C 0.60269 0.80186 0.47393 0.0
C3601 C 0.6227 0.81525 0.47604 0.0
H3602 H 0.58169 0.77529 0.46461 0.0
H3603 H 0.77636 0.90317 0.48528 0.0
H3604 H 0.13974 0.84469 0.52324 0.0
H3605 H 0.14872 0.83816 0.5026 0.0
H3606 H 0.12588 0.87206 0.48554 0.0
H3607 H 0.11736 0.8791 0.50623 0.0
H3608 H 0.11487 0.83067 0.47446 0.0
H3609 H 0.16841 0.89513 0.48598 0.0
H3610 H 0.19387 0.91864 0.50047 0.0
H3611 H 0.2214 0.88344 0.50175 0.0
H3612 H 0.19587 0.85954 0.48741 0.0
H3613 H 0.15266 0.83421 0.41443 0.0
H3614 H 0.1426 0.84263 0.4337 0.0
H3615 H 0.18681 0.83602 0.45387 0.0
H3616 H 0.19859 0.82987 0.43441 0.0
H3617 H 0.18596 0.86435 0.4634 0.0
H3618 H 0.13395 0.79989 0.45233 0.0
H3619 H 0.1087 0.77501 0.43834 0.0
H3620 H 0.07805 0.80728 0.43693 0.0
H3621 H 0.10326 0.83249 0.4508 0.0
C3622 C 0.13651 0.8506 0.51507 0.0
C3623 C 0.12791 0.86241 0.51628 0.0
C3624 C 0.14164 0.84689 0.50333 0.0
C3625 C 0.13791 0.85462 0.49261 0.0
C3626 C 0.12879 0.86594 0.49373 0.0
C3627 C 0.12404 0.87001 0.50551 0.0
C3628 C 0.14444 0.85159 0.4803 0.0
C3629 C 0.13036 0.83817 0.47191 0.0
C3630 C 0.16468 0.86104 0.47721 0.0
C3631 C 0.18011 0.87545 0.48575 0.0
C3632 C 0.17977 0.8923 0.48945 0.0
C3633 C 0.19424 0.90572 0.49762 0.0
C3634 C 0.20921 0.90251 0.50206 0.0
C3635 C 0.20977 0.88589 0.49832 0.0
C3636 C 0.19532 0.87241 0.49017 0.0
C3637 C 0.16065 0.83495 0.42285 0.0
C3638 C 0.17648 0.83117 0.42269 0.0
C3639 C 0.15454 0.83941 0.43399 0.0
C3640 C 0.16351 0.83943 0.44537 0.0
C3641 C 0.17947 0.83594 0.44526 0.0
C3642 C 0.186 0.83209 0.43407 0.0
C3643 C 0.15642 0.84316 0.45739 0.0
C3644 C 0.17041 0.85676 0.46581 0.0
C3645 C 0.13608 0.83357 0.46057 0.0
C3646 C 0.12058 0.81815 0.45253 0.0
C3647 C 0.12186 0.8017 0.44901 0.0
C3648 C 0.10755 0.78755 0.4411 0.0
C3649 C 0.0918 0.78958 0.43673 0.0
C3650 C 0.09026 0.80574 0.44032 0.0
C3651 C 0.10454 0.81994 0.44822 0.0
H3652 H 0.08076 0.77863 0.43059 0.0
H3653 H 0.2204 0.91291 0.50838 0.0
H3654 H 0.60266 0.78241 0.16215 0.0
H3655 H 0.61154 0.7892 0.18421 0.0
H3656 H 0.65439 0.84863 0.17553 0.0
H3657 H 0.64596 0.84181 0.15336 0.0
H3658 H 0.66845 0.83321 0.19289 0.0
H3659 H 0.61001 0.83796 0.18618 0.0
H3660 H 0.57578 0.82639 0.17913 0.0
H3661 H 0.55457 0.77826 0.20428 0.0
H3662 H 0.58873 0.7894 0.21136 0.0
H3663 H 0.67953 0.87891 0.25157 0.0
H3664 H 0.67251 0.86876 0.22971 0.0
H3665 H 0.63003 0.81047 0.24096 0.0
H3666 H 0.63667 0.82066 0.26289 0.0
H3667 H 0.61571 0.8235 0.22252 0.0
H3668 H 0.67414 0.81993 0.23017 0.0
H3669 H 0.7084 0.83168 0.23724 0.0
H3670 H 0.72973 0.87768 0.21045 0.0
H3671 H 0.69556 0.86637 0.20334 0.0
C3672 C 0.61421 0.79684 0.1649 0.0
C3673 C 0.62356 0.81162 0.15603 0.0
C3674 C 0.61914 0.80073 0.17752 0.0
C3675 C 0.63343 0.81947 0.1815 0.0
C3676 C 0.64327 0.83409 0.17263 0.0
C3677 C 0.63833 0.83022 0.16 0.0
C3678 C 0.6376 0.82404 0.19495 0.0
C3679 C 0.65699 0.83128 0.19937 0.0
C3680 C 0.6225 0.82107 0.2034 0.0
C3681 C 0.60194 0.81439 0.1992 0.0
C3682 C 0.59806 0.82482 0.19013 0.0
C3683 C 0.57867 0.81836 0.18614 0.0
C3684 C 0.56301 0.80157 0.19122 0.0
C3685 C 0.56671 0.79124 0.20033 0.0
C3686 C 0.58609 0.79763 0.20434 0.0
C3687 C 0.6686 0.86396 0.24939 0.0
C3688 C 0.65862 0.85058 0.25893 0.0
C3689 C 0.66476 0.85814 0.23691 0.0
C3690 C 0.65093 0.83882 0.23374 0.0
C3691 C 0.64084 0.82543 0.24323 0.0
C3692 C 0.64472 0.83123 0.25573 0.0
C3693 C 0.6466 0.83279 0.22048 0.0
C3694 C 0.62717 0.8253 0.21608 0.0
C3695 C 0.66167 0.83556 0.21206 0.0
C3696 C 0.68226 0.8424 0.2163 0.0
C3697 C 0.68612 0.83265 0.22586 0.0
C3698 C 0.70553 0.83921 0.22986 0.0
C3699 C 0.72123 0.85545 0.22432 0.0
C3700 C 0.71755 0.86512 0.21474 0.0
C3701 C 0.69817 0.85863 0.21071 0.0
H3702 H 0.73624 0.8605 0.22743 0.0
H3703 H 0.54801 0.7966 0.18812 0.0
H3704 H 0.21307 0.84047 0.15316 0.0
H3705 H 0.20459 0.8469 0.1739 0.0
H3706 H 0.19369 0.79068 0.18611 0.0
H3707 H 0.20201 0.78414 0.16539 0.0
H3708 H 0.16471 0.79634 0.19322 0.0
H3709 H 0.23544 0.8334 0.19531 0.0
H3710 H 0.26892 0.85762 0.18846 0.0
H3711 H 0.25421 0.90287 0.19171 0.0
H3712 H 0.22053 0.87886 0.19842 0.0
H3713 H 0.15908 0.81044 0.25805 0.0
H3714 H 0.17018 0.80564 0.23774 0.0
H3715 H 0.17629 0.85986 0.22507 0.0
H3716 H 0.16557 0.86497 0.24548 0.0
H3717 H 0.20788 0.85556 0.2183 0.0
H3718 H 0.13692 0.81795 0.21616 0.0
H3719 H 0.10371 0.79349 0.22329 0.0
H3720 H 0.11941 0.7489 0.22039 0.0
H3721 H 0.15283 0.77316 0.21341 0.0
C3722 C 0.20911 0.82959 0.16032 0.0
C3723 C 0.20818 0.81178 0.15763 0.0
C3724 C 0.20427 0.83328 0.17217 0.0
C3725 C 0.19865 0.81933 0.18162 0.0
C3726 C 0.19791 0.80163 0.17898 0.0
C3727 C 0.20264 0.7979 0.16712 0.0
C3728 C 0.19287 0.82287 0.19412 0.0
C3729 C 0.17429 0.80916 0.19877 0.0
C3730 C 0.20515 0.83981 0.20126 0.0
C3731 C 0.22539 0.85429 0.19725 0.0
C3732 C 0.23929 0.84849 0.19447 0.0
C3733 C 0.25831 0.86219 0.19063 0.0
C3734 C 0.26367 0.88176 0.18962 0.0
C3735 C 0.25003 0.88769 0.19248 0.0
C3736 C 0.23097 0.87405 0.19631 0.0
C3737 C 0.16296 0.82143 0.25099 0.0
C3738 C 0.16138 0.83805 0.25336 0.0
C3739 C 0.16916 0.8186 0.23936 0.0
C3740 C 0.17387 0.8323 0.22986 0.0
C3741 C 0.17267 0.84908 0.23226 0.0
C3742 C 0.16638 0.85189 0.24388 0.0
C3743 C 0.17981 0.82898 0.21737 0.0
C3744 C 0.19836 0.84274 0.21273 0.0
C3745 C 0.16756 0.81204 0.21025 0.0
C3746 C 0.14744 0.79741 0.21438 0.0
C3747 C 0.13334 0.80295 0.21714 0.0
C3748 C 0.11447 0.78912 0.22114 0.0
C3749 C 0.10947 0.76966 0.22232 0.0
C3750 C 0.12331 0.76399 0.21948 0.0
C3751 C 0.14222 0.77777 0.2155 0.0
H3752 H 0.09485 0.75898 0.22542 0.0
H3753 H 0.27841 0.89235 0.18665 0.0
H3754 H 0.19833 0.42515 0.16372 0.0
H3755 H 0.19144 0.41058 0.18445 0.0
H3756 H 0.20966 0.37007 0.17227 0.0
H3757 H 0.21612 0.38425 0.15145 0.0
H3758 H 0.17534 0.35197 0.1849 0.0
H3759 H 0.23937 0.40868 0.19107 0.0
H3760 H 0.26392 0.44371 0.19057 0.0
H3761 H 0.22806 0.45578 0.21516 0.0
H3762 H 0.20314 0.42082 0.21567 0.0
H3763 H 0.17942 0.31319 0.24279 0.0
H3764 H 0.18927 0.33069 0.22308 0.0
H3765 H 0.1727 0.37163 0.23698 0.0
H3766 H 0.16305 0.35426 0.25684 0.0
H3767 H 0.20585 0.39004 0.22362 0.0
H3768 H 0.14184 0.33398 0.2175 0.0
H3769 H 0.11675 0.29911 0.21806 0.0
H3770 H 0.15167 0.28605 0.19327 0.0
H3771 H 0.17712 0.32083 0.19271 0.0
C3772 C 0.20079 0.41308 0.16543 0.0
C3773 C 0.2078 0.40588 0.15591 0.0
C3774 C 0.19702 0.40489 0.17733 0.0
C3775 C 0.20021 0.38934 0.17997 0.0
C3776 C 0.20715 0.3821 0.17048 0.0
C3777 C 0.21099 0.39032 0.1586 0.0
C3778 C 0.19579 0.38024 0.19251 0.0
C3779 C 0.18223 0.36025 0.19335 0.0
C3780 C 0.20431 0.39114 0.20358 0.0
C3781 C 0.2193 0.41215 0.20331 0.0
C3782 C 0.23664 0.41882 0.19629 0.0
C3783 C 0.25063 0.43866 0.19602 0.0
C3784 C 0.24753 0.45197 0.2028 0.0
C3785 C 0.23043 0.44545 0.2099 0.0
C3786 C 0.21638 0.42563 0.21019 0.0
C3787 C 0.17793 0.32596 0.24166 0.0
C3788 C 0.17024 0.33221 0.25131 0.0
C3789 C 0.18354 0.33594 0.23038 0.0
C3790 C 0.18133 0.35225 0.22842 0.0
C3791 C 0.17446 0.35904 0.23824 0.0
C3792 C 0.16898 0.34913 0.24959 0.0
C3793 C 0.18555 0.36172 0.21599 0.0
C3794 C 0.19898 0.38176 0.21517 0.0
C3795 C 0.17682 0.3509 0.20492 0.0
C3796 C 0.16147 0.32999 0.20516 0.0
C3797 C 0.14424 0.32366 0.21224 0.0
C3798 C 0.12994 0.30391 0.21254 0.0
C3799 C 0.13264 0.29037 0.20573 0.0
C3800 C 0.14962 0.29656 0.19856 0.0
C3801 C 0.16397 0.31629 0.19824 0.0
H3802 H 0.12156 0.27509 0.20598 0.0
H3803 H 0.25838 0.46732 0.20258 0.0
H3804 H 0.79927 0.62146 0.85622 0.0
H3805 H 0.80712 0.63476 0.83517 0.0
H3806 H 0.80763 0.58334 0.82239 0.0
H3807 H 0.80027 0.57024 0.84351 0.0
H3808 H 0.83726 0.61289 0.8129 0.0
H3809 H 0.76884 0.59252 0.81531 0.0
H3810 H 0.73852 0.58983 0.82422 0.0
H3811 H 0.76309 0.6516 0.82109 0.0
H3812 H 0.79368 0.6547 0.81232 0.0
H3813 H 0.81555 0.64981 0.74987 0.0
H3814 H 0.80409 0.63114 0.76912 0.0
H3815 H 0.86222 0.66581 0.7854 0.0
H3816 H 0.87402 0.68377 0.76604 0.0
H3817 H 0.80049 0.64075 0.79177 0.0
H3818 H 0.87233 0.64037 0.80603 0.0
H3819 H 0.90017 0.63952 0.79589 0.0
H3820 H 0.86411 0.61244 0.76344 0.0
H3821 H 0.83596 0.61283 0.77346 0.0
C3822 C 0.80087 0.61292 0.84889 0.0
C3823 C 0.79912 0.59479 0.85153 0.0
C3824 C 0.80532 0.62051 0.83683 0.0
C3825 C 0.80774 0.60998 0.82708 0.0
C3826 C 0.8059 0.59181 0.82971 0.0
C3827 C 0.80169 0.58432 0.8418 0.0
C3828 C 0.8128 0.61815 0.81425 0.0
C3829 C 0.82916 0.61892 0.80829 0.0
C3830 C 0.802 0.62564 0.80801 0.0
C3831 C 0.78362 0.62385 0.81325 0.0
C3832 C 0.76783 0.60555 0.8166 0.0
C3833 C 0.75059 0.60395 0.82162 0.0
C3834 C 0.7489 0.62054 0.82324 0.0
C3835 C 0.76443 0.63876 0.81983 0.0
C3836 C 0.78172 0.64044 0.81483 0.0
C3837 C 0.826 0.65324 0.75746 0.0
C3838 C 0.84575 0.66834 0.75634 0.0
C3839 C 0.81936 0.64267 0.76853 0.0
C3840 C 0.8323 0.6469 0.77872 0.0
C3841 C 0.85198 0.66199 0.77763 0.0
C3842 C 0.85866 0.67246 0.76657 0.0
C3843 C 0.82522 0.63589 0.79059 0.0
C3844 C 0.8085 0.63461 0.79637 0.0
C3845 C 0.83533 0.62741 0.7965 0.0
C3846 C 0.85209 0.62681 0.79047 0.0
C3847 C 0.87031 0.63414 0.79676 0.0
C3848 C 0.88615 0.63374 0.79103 0.0
C3849 C 0.88393 0.62598 0.77902 0.0
C3850 C 0.86583 0.6185 0.77273 0.0
C3851 C 0.84993 0.61882 0.77843 0.0
H3852 H 0.89624 0.62577 0.7746 0.0
H3853 H 0.73554 0.61927 0.82713 0.0
H3854 H 0.39514 0.17257 0.84653 0.0
H3855 H 0.38016 0.16519 0.82571 0.0
H3856 H 0.34573 0.19207 0.83552 0.0
H3857 H 0.36006 0.19883 0.8565 0.0
H3858 H 0.32367 0.15865 0.82301 0.0
H3859 H 0.38757 0.21595 0.81805 0.0
H3860 H 0.42393 0.23545 0.81961 0.0
H3861 H 0.42913 0.19393 0.79646 0.0
H3862 H 0.39277 0.17403 0.7949 0.0
H3863 H 0.29776 0.17826 0.76393 0.0
H3864 H 0.31133 0.18024 0.78477 0.0
H3865 H 0.34214 0.1513 0.77147 0.0
H3866 H 0.32843 0.14906 0.75055 0.0
H3867 H 0.36592 0.18317 0.78554 0.0
H3868 H 0.30177 0.12703 0.78934 0.0
H3869 H 0.26542 0.10801 0.7876 0.0
H3870 H 0.26061 0.14764 0.81282 0.0
H3871 H 0.29696 0.16707 0.81456 0.0
C3872 C 0.38421 0.1767 0.84431 0.0
C3873 C 0.37885 0.18636 0.85316 0.0
C3874 C 0.3758 0.17264 0.83237 0.0
C3875 C 0.36201 0.1783 0.82903 0.0
C3876 C 0.35639 0.18764 0.8379 0.0
C3877 C 0.36474 0.19166 0.84984 0.0
C3878 C 0.35353 0.17467 0.81626 0.0
C3879 C 0.33289 0.16417 0.81482 0.0
C3880 C 0.3656 0.18142 0.80556 0.0
C3881 C 0.38746 0.19339 0.80647 0.0
C3882 C 0.39647 0.21089 0.81337 0.0
C3883 C 0.41707 0.22204 0.81424 0.0
C3884 C 0.42883 0.2159 0.80817 0.0
C3885 C 0.42 0.19864 0.80118 0.0
C3886 C 0.3994 0.18743 0.80029 0.0
C3887 C 0.30717 0.17204 0.76546 0.0
C3888 C 0.31193 0.16341 0.7556 0.0
C3889 C 0.31495 0.17322 0.77738 0.0
C3890 C 0.32755 0.16572 0.77969 0.0
C3891 C 0.33242 0.15716 0.76987 0.0
C3892 C 0.32463 0.15596 0.75793 0.0
C3893 C 0.33606 0.16737 0.7923 0.0
C3894 C 0.3567 0.1775 0.79372 0.0
C3895 C 0.32399 0.16031 0.80297 0.0
C3896 C 0.30211 0.1486 0.802 0.0
C3897 C 0.29297 0.13177 0.79444 0.0
C3898 C 0.27236 0.1209 0.79347 0.0
C3899 C 0.26071 0.12663 0.80008 0.0
C3900 C 0.26965 0.14322 0.8077 0.0
C3901 C 0.29026 0.15416 0.80869 0.0
H3902 H 0.24476 0.1182 0.79931 0.0
H3903 H 0.44478 0.22455 0.80885 0.0
H3904 H 0.77068 0.18156 0.84498 0.0
H3905 H 0.7791 0.17594 0.82397 0.0
H3906 H 0.84049 0.20272 0.83489 0.0
H3907 H 0.83221 0.2082 0.85586 0.0
H3908 H 0.83631 0.21612 0.81267 0.0
H3909 H 0.81165 0.15343 0.83207 0.0
H3910 H 0.78699 0.12412 0.84307 0.0
H3911 H 0.74552 0.11089 0.81302 0.0
H3912 H 0.76986 0.14028 0.80192 0.0
H3913 H 0.87764 0.18585 0.76542 0.0
H3914 H 0.86545 0.19094 0.78519 0.0
H3915 H 0.80608 0.16266 0.77019 0.0
H3916 H 0.81811 0.15701 0.75045 0.0
H3917 H 0.80681 0.15029 0.79352 0.0
H3918 H 0.83161 0.21141 0.77343 0.0
H3919 H 0.85581 0.24068 0.76221 0.0
H3920 H 0.89625 0.25711 0.79317 0.0
H3921 H 0.8724 0.22777 0.80451 0.0
C3922 C 0.78594 0.18608 0.84294 0.0
C3923 C 0.80078 0.1954 0.85211 0.0
C3924 C 0.79074 0.1829 0.83092 0.0
C3925 C 0.81043 0.18885 0.82787 0.0
C3926 C 0.82522 0.19812 0.837 0.0
C3927 C 0.82046 0.20129 0.84899 0.0
C3928 C 0.81579 0.18559 0.81516 0.0
C3929 C 0.83 0.2017 0.80853 0.0
C3930 C 0.8071 0.16686 0.80959 0.0
C3931 C 0.79249 0.14916 0.81624 0.0
C3932 C 0.79721 0.14435 0.82786 0.0
C3933 C 0.78331 0.12771 0.8341 0.0
C3934 C 0.76468 0.11568 0.82877 0.0
C3935 C 0.75994 0.12024 0.81716 0.0
C3936 C 0.77379 0.13688 0.81088 0.0
C3937 C 0.86196 0.18056 0.76634 0.0
C3938 C 0.84886 0.17103 0.75634 0.0
C3939 C 0.85503 0.18366 0.77762 0.0
C3940 C 0.83487 0.17738 0.77913 0.0
C3941 C 0.8217 0.16769 0.76922 0.0
C3942 C 0.82863 0.16461 0.75791 0.0
C3943 C 0.82761 0.18078 0.79113 0.0
C3944 C 0.81302 0.16472 0.79761 0.0
C3945 C 0.83588 0.19959 0.79655 0.0
C3946 C 0.85027 0.21729 0.78978 0.0
C3947 C 0.84573 0.22118 0.77781 0.0
C3948 C 0.85937 0.2378 0.77143 0.0
C3949 C 0.87758 0.25072 0.77696 0.0
C3950 C 0.88215 0.24707 0.78889 0.0
C3951 C 0.86856 0.23046 0.7953 0.0
H3952 H 0.88812 0.26358 0.77201 0.0
H3953 H 0.75393 0.1028 0.83361 0.0
H3954 H 0.30612 0.12859 0.48799 0.0
H3955 H 0.32136 0.13525 0.5087 0.0
H3956 H 0.28967 0.16468 0.51913 0.0
H3957 H 0.27411 0.15785 0.49845 0.0
H3958 H 0.32852 0.18495 0.52646 0.0
H3959 H 0.2742 0.11965 0.5293 0.0
H3960 H 0.25351 0.08528 0.52291 0.0
H3961 H 0.30297 0.07628 0.52781 0.0
H3962 H 0.32405 0.11069 0.53405 0.0
H3963 H 0.34425 0.18746 0.59181 0.0
H3964 H 0.32967 0.18181 0.57094 0.0
H3965 H 0.35905 0.14996 0.5608 0.0
H3966 H 0.37309 0.15492 0.58183 0.0
H3967 H 0.3213 0.13105 0.55327 0.0
H3968 H 0.37567 0.19639 0.55049 0.0
H3969 H 0.39634 0.23077 0.55688 0.0
H3970 H 0.34688 0.23974 0.55189 0.0
H3971 H 0.32583 0.20533 0.54563 0.0
C3972 C 0.30223 0.13632 0.49472 0.0
C3973 C 0.28879 0.14257 0.49159 0.0
C3974 C 0.31101 0.14017 0.50653 0.0
C3975 C 0.30648 0.15028 0.51548 0.0
C3976 C 0.29337 0.15687 0.51234 0.0
C3977 C 0.28454 0.153 0.50052 0.0
C3978 C 0.31539 0.15389 0.52813 0.0
C3979 C 0.32674 0.17317 0.5324 0.0
C3980 C 0.31341 0.13852 0.53574 0.0
C3981 C 0.30075 0.1178 0.53202 0.0
C3982 C 0.28071 0.11038 0.52892 0.0
C3983 C 0.26891 0.09089 0.52534 0.0
C3984 C 0.27693 0.07862 0.52492 0.0
C3985 C 0.29678 0.08581 0.52811 0.0
C3986 C 0.30866 0.10531 0.53168 0.0
C3987 C 0.34752 0.17915 0.58517 0.0
C3988 C 0.35983 0.17163 0.58849 0.0
C3989 C 0.33934 0.17611 0.5732 0.0
C3990 C 0.34345 0.16565 0.56427 0.0
C3991 C 0.35574 0.15814 0.56754 0.0
C3992 C 0.3639 0.16113 0.57952 0.0
C3993 C 0.33453 0.16213 0.55161 0.0
C3994 C 0.32314 0.14286 0.54734 0.0
C3995 C 0.33649 0.17752 0.544 0.0
C3996 C 0.34913 0.19823 0.54771 0.0
C3997 C 0.36916 0.20565 0.55085 0.0
C3998 C 0.38095 0.22515 0.55443 0.0
C3999 C 0.37291 0.23742 0.55482 0.0
C4000 C 0.35308 0.23022 0.5516 0.0
C4001 C 0.34122 0.21072 0.54802 0.0
H4002 H 0.38206 0.25251 0.55759 0.0
H4003 H 0.26777 0.06353 0.52215 0.0
H4004 H 0.84391 0.12208 0.49141 0.0
H4005 H 0.83509 0.13015 0.5114 0.0
H4006 H 0.89668 0.16979 0.51959 0.0
H4007 H 0.90577 0.16101 0.49978 0.0
H4008 H 0.87889 0.14976 0.53977 0.0
H4009 H 0.86551 0.18661 0.51054 0.0
H4010 H 0.85182 0.19278 0.49148 0.0
H4011 H 0.79289 0.15295 0.50366 0.0
H4012 H 0.80623 0.14631 0.52272 0.0
H4013 H 0.85247 0.18811 0.59211 0.0
H4014 H 0.8662 0.18555 0.57215 0.0
H4015 H 0.80762 0.14329 0.55928 0.0
H4016 H 0.7939 0.14603 0.57913 0.0
H4017 H 0.82721 0.16866 0.54148 0.0
H4018 H 0.84221 0.13025 0.57014 0.0
H4019 H 0.85687 0.12586 0.58941 0.0
H4020 H 0.91423 0.17141 0.57841 0.0
H4021 H 0.89987 0.17616 0.5591 0.0
C4022 C 0.85566 0.13233 0.4975 0.0
C4023 C 0.87559 0.14086 0.49394 0.0
C4024 C 0.85055 0.13714 0.50889 0.0
C4025 C 0.86518 0.15084 0.51694 0.0
C4026 C 0.88511 0.15927 0.51351 0.0
C4027 C 0.89027 0.15436 0.50212 0.0
C4028 C 0.85952 0.15615 0.52895 0.0
C4029 C 0.86782 0.1542 0.54012 0.0
C4030 C 0.84501 0.16187 0.52947 0.0
C4031 C 0.83689 0.16585 0.51802 0.0
C4032 C 0.84963 0.17905 0.50912 0.0
C4033 C 0.84193 0.18265 0.49832 0.0
C4034 C 0.8215 0.17323 0.49635 0.0
C4035 C 0.80872 0.16022 0.50519 0.0
C4036 C 0.81634 0.15655 0.51601 0.0
C4037 C 0.84259 0.17822 0.58502 0.0
C4038 C 0.82216 0.16719 0.58719 0.0
C4039 C 0.85043 0.17676 0.57363 0.0
C4040 C 0.83799 0.164 0.56426 0.0
C4041 C 0.81753 0.15323 0.56635 0.0
C4042 C 0.80969 0.15482 0.57769 0.0
C4043 C 0.84613 0.1617 0.55227 0.0
C4044 C 0.83836 0.16433 0.5411 0.0
C4045 C 0.86126 0.15682 0.55177 0.0
C4046 C 0.86995 0.15363 0.56322 0.0
C4047 C 0.85794 0.13935 0.57184 0.0
C4048 C 0.8662 0.13679 0.58276 0.0
C4049 C 0.88647 0.14832 0.58511 0.0
C4050 C 0.89854 0.16244 0.57655 0.0
C4051 C 0.89036 0.16506 0.56561 0.0
H4052 H 0.89283 0.14634 0.59358 0.0
H4053 H 0.81557 0.17604 0.48798 0.0
H4054 H 0.88391 0.72112 0.48628 0.0
H4055 H 0.87642 0.70618 0.50689 0.0
H4056 H 0.86518 0.75095 0.5205 0.0
H4057 H 0.87292 0.76616 0.4999 0.0
H4058 H 0.8872 0.74215 0.53747 0.0
H4059 H 0.82721 0.70817 0.51318 0.0
H4060 H 0.80698 0.68991 0.49493 0.0
H4061 H 0.82113 0.64485 0.50131 0.0
H4062 H 0.8417 0.663 0.5195 0.0
H4063 H 0.83432 0.69291 0.59221 0.0
H4064 H 0.84552 0.71066 0.57261 0.0
H4065 H 0.85064 0.66337 0.55663 0.0
H4066 H 0.8394 0.64556 0.57616 0.0
H4067 H 0.832 0.67415 0.54095 0.0
H4068 H 0.89191 0.70723 0.56487 0.0
H4069 H 0.91255 0.7249 0.58313 0.0
H4070 H 0.89934 0.77078 0.57764 0.0
H4071 H 0.87853 0.75333 0.55935 0.0
C4072 C 0.88007 0.72793 0.49368 0.0
C4073 C 0.87895 0.74481 0.49141 0.0
C4074 C 0.87568 0.71931 0.50545 0.0
C4075 C 0.87009 0.72736 0.51523 0.0
C4076 C 0.86943 0.74447 0.5131 0.0
C4077 C 0.87369 0.75304 0.50129 0.0
C4078 C 0.86425 0.71747 0.52751 0.0
C4079 C 0.87498 0.72737 0.53827 0.0
C4080 C 0.8486 0.69803 0.52853 0.0
C4081 C 0.83615 0.68704 0.51763 0.0
C4082 C 0.82614 0.69445 0.51064 0.0
C4083 C 0.81459 0.6841 0.50031 0.0
C4084 C 0.81281 0.66625 0.49694 0.0
C4085 C 0.82254 0.65869 0.50392 0.0
C4086 C 0.83414 0.66899 0.51424 0.0
C4087 C 0.83809 0.68641 0.58458 0.0
C4088 C 0.83585 0.66775 0.58575 0.0
C4089 C 0.8445 0.69658 0.57336 0.0
C4090 C 0.84904 0.68842 0.56312 0.0
C4091 C 0.84713 0.66995 0.56435 0.0
C4092 C 0.84065 0.65975 0.57553 0.0
C4093 C 0.85502 0.69873 0.55096 0.0
C4094 C 0.84427 0.68892 0.54019 0.0
C4095 C 0.87075 0.71818 0.54995 0.0
C4096 C 0.88351 0.72888 0.56081 0.0
C4097 C 0.89331 0.72103 0.5676 0.0
C4098 C 0.90505 0.73101 0.57795 0.0
C4099 C 0.90716 0.74889 0.58159 0.0
C4100 C 0.89765 0.7569 0.57482 0.0
C4101 C 0.88593 0.747 0.56444 0.0
H4102 H 0.91621 0.75655 0.58963 0.0
H4103 H 0.80386 0.65826 0.48895 0.0
loop_
_geom_bond_atom_site_label_1
_geom_bond_atom_site_label_2
_geom_bond_distance
_geom_bond_site_symmetry_2
_ccdc_geom_bond_type
C0 C1 1.384 . S
C0 H13 0.947 . S
C0 C35 1.382 . S
C1 C0 1.384 . S
C1 C2 1.378 . S
C2 C1 1.378 . S
C2 C3 1.378 . S
C2 H14 0.952 . S
C3 C2 1.378 . S
C3 H15 0.950 . S
C3 C34 1.383 . S
H4 C23 0.947 . S
H5 C24 0.946 . S
H6 C26 0.953 . S
H7 C27 0.945 . S
H8 C29 0.952 . S
H9 C30 0.949 . S
H10 C32 0.950 . S
H11 C33 0.948 . S
H12 C35 0.951 . S
H13 C0 0.947 . S
H14 C2 0.952 . S
H15 C3 0.950 . S
N16 C19 1.382 . S
N16 C21 1.363 . S
N17 C19 1.371 . S
N17 C20 1.372 . S
N18 C20 1.361 . S
N18 C21 1.377 . S
C19 N16 1.382 . S
C19 N17 1.371 . S
C19 C22 1.480 . S
C20 N17 1.372 . S
C20 N18 1.361 . S
C20 C28 1.457 . S
C21 N16 1.363 . S
C21 N18 1.377 . S
C21 C34 1.479 . S
C22 C19 1.480 . S
C22 C23 1.383 . S
C22 C27 1.385 . S
C23 H4 0.947 . S
C23 C22 1.383 . S
C23 C24 1.388 . S
C24 H5 0.946 . S
C24 C23 1.388 . S
C24 C25 1.384 . S
C25 C24 1.384 . S
C25 C26 1.377 . S
C26 H6 0.953 . S
C26 C25 1.377 . S
C26 C27 1.369 . S
C27 H7 0.945 . S
C27 C22 1.385 . S
C27 C26 1.369 . S
C28 C20 1.457 . S
C28 C29 1.372 . S
C28 C33 1.364 . S
C29 H8 0.952 . S
C29 C28 1.372 . S
C29 C30 1.389 . S
C30 H9 0.949 . S
C30 C29 1.389 . S
C30 C31 1.387 . S
C31 C30 1.387 . S
C31 C32 1.372 . S
C32 H10 0.950 . S
C32 C31 1.372 . S
C32 C33 1.379 . S
C33 H11 0.948 . S
C33 C28 1.364 . S
C33 C32 1.379 . S
C34 C3 1.383 . S
C34 C21 1.479 . S
C34 C35 1.398 . S
C35 C0 1.382 . S
C35 H12 0.951 . S
C35 C34 1.398 . S
C36 C37 1.384 . S
C36 H49 0.947 . S
C36 C71 1.382 . S
C37 C36 1.384 . S
C37 C38 1.378 . S
C38 C37 1.378 . S
C38 C39 1.378 . S
C38 H50 0.952 . S
C39 C38 1.378 . S
C39 H51 0.950 . S
C39 C70 1.383 . S
H40 C59 0.947 . S
H41 C60 0.946 . S
H42 C62 0.953 . S
H43 C63 0.945 . S
H44 C65 0.952 . S
H45 C66 0.949 . S
H46 C68 0.950 . S
H47 C69 0.948 . S
H48 C71 0.951 . S
H49 C36 0.947 . S
H50 C38 0.952 . S
H51 C39 0.950 . S
N52 C55 1.382 . S
N52 C57 1.363 . S
N53 C55 1.371 . S
N53 C56 1.372 . S
N54 C56 1.361 . S
N54 C57 1.377 . S
C55 N52 1.382 . S
C55 N53 1.371 . S
C55 C58 1.480 . S
C56 N53 1.372 . S
C56 N54 1.361 . S
C56 C64 1.457 . S
C57 N52 1.363 . S
C57 N54 1.377 . S
C57 C70 1.479 . S
C58 C55 1.480 . S
C58 C59 1.383 . S
C58 C63 1.385 . S
C59 H40 0.947 . S
C59 C58 1.383 . S
C59 C60 1.388 . S
C60 H41 0.946 . S
C60 C59 1.388 . S
C60 C61 1.384 . S
C61 C60 1.384 . S
C61 C62 1.377 . S
C62 H42 0.953 . S
C62 C61 1.377 . S
C62 C63 1.369 . S
C63 H43 0.945 . S
C63 C58 1.385 . S
C63 C62 1.369 . S
C64 C56 1.457 . S
C64 C65 1.372 . S
C64 C69 1.364 . S
C65 H44 0.952 . S
C65 C64 1.372 . S
C65 C66 1.389 . S
C66 H45 0.949 . S
C66 C65 1.389 . S
C66 C67 1.387 . S
C67 C66 1.387 . S
C67 C68 1.372 . S
C68 H46 0.950 . S
C68 C67 1.372 . S
C68 C69 1.379 . S
C69 H47 0.948 . S
C69 C64 1.364 . S
C69 C68 1.379 . S
C70 C39 1.383 . S
C70 C57 1.479 . S
C70 C71 1.398 . S
C71 C36 1.382 . S
C71 H48 0.951 . S
C71 C70 1.398 . S
C72 C73 1.384 . S
C72 H85 0.947 . S
C72 C107 1.382 . S
C73 C72 1.384 . S
C73 C74 1.378 . S
C74 C73 1.378 . S
C74 C75 1.378 . S
C74 H86 0.952 . S
C75 C74 1.378 . S
C75 H87 0.950 . S
C75 C106 1.383 . S
H76 C95 0.947 . S
H77 C96 0.946 . S
H78 C98 0.953 . S
H79 C99 0.945 . S
H80 C101 0.952 . S
H81 C102 0.949 . S
H82 C104 0.950 . S
H83 C105 0.948 . S
H84 C107 0.951 . S
H85 C72 0.947 . S
H86 C74 0.952 . S
H87 C75 0.950 . S
N88 C91 1.382 . S
N88 C93 1.363 . S
N89 C91 1.371 . S
N89 C92 1.372 . S
N90 C92 1.361 . S
N90 C93 1.377 . S
C91 N88 1.382 . S
C91 N89 1.371 . S
C91 C94 1.480 . S
C92 N89 1.372 . S
C92 N90 1.361 . S
C92 C100 1.457 . S
C93 N88 1.363 . S
C93 N90 1.377 . S
C93 C106 1.479 . S
C94 C91 1.480 . S
C94 C95 1.383 . S
C94 C99 1.385 . S
C95 H76 0.947 . S
C95 C94 1.383 . S
C95 C96 1.388 . S
C96 H77 0.946 . S
C96 C95 1.388 . S
C96 C97 1.384 . S
C97 C96 1.384 . S
C97 C98 1.377 . S
C98 H78 0.953 . S
C98 C97 1.377 . S
C98 C99 1.369 . S
C99 H79 0.945 . S
C99 C94 1.385 . S
C99 C98 1.369 . S
C100 C92 1.457 . S
C100 C101 1.372 . S
C100 C105 1.364 . S
C101 H80 0.952 . S
C101 C100 1.372 . S
C101 C102 1.389 . S
C102 H81 0.949 . S
C102 C101 1.389 . S
C102 C103 1.387 . S
C103 C102 1.387 . S
C103 C104 1.372 . S
C104 H82 0.950 . S
C104 C103 1.372 . S
C104 C105 1.379 . S
C105 H83 0.948 . S
C105 C100 1.364 . S
C105 C104 1.379 . S
C106 C75 1.383 . S
C106 C93 1.479 . S
C106 C107 1.398 . S
C107 C72 1.382 . S
C107 H84 0.951 . S
C107 C106 1.398 . S
C108 C109 1.384 . S
C108 H121 0.947 . S
C108 C143 1.382 . S
C109 C108 1.384 . S
C109 C110 1.378 . S
C110 C109 1.378 . S
C110 C111 1.378 . S
C110 H122 0.952 . S
C111 C110 1.378 . S
C111 H123 0.950 . S
C111 C142 1.383 . S
H112 C131 0.947 . S
H113 C132 0.946 . S
H114 C134 0.953 . S
H115 C135 0.945 . S
H116 C137 0.952 . S
H117 C138 0.949 . S
H118 C140 0.950 . S
H119 C141 0.948 . S
H120 C143 0.951 . S
H121 C108 0.947 . S
H122 C110 0.952 . S
H123 C111 0.950 . S
N124 C127 1.382 . S
N124 C129 1.363 . S
N125 C127 1.371 . S
N125 C128 1.372 . S
N126 C128 1.361 . S
N126 C129 1.377 . S
C127 N124 1.382 . S
C127 N125 1.371 . S
C127 C130 1.480 . S
C128 N125 1.372 . S
C128 N126 1.361 . S
C128 C136 1.457 . S
C129 N124 1.363 . S
C129 N126 1.377 . S
C129 C142 1.479 . S
C130 C127 1.480 . S
C130 C131 1.383 . S
C130 C135 1.385 . S
C131 H112 0.947 . S
C131 C130 1.383 . S
C131 C132 1.388 . S
C132 H113 0.946 . S
C132 C131 1.388 . S
C132 C133 1.384 . S
C133 C132 1.384 . S
C133 C134 1.377 . S
C134 H114 0.953 . S
C134 C133 1.377 . S
C134 C135 1.369 . S
C135 H115 0.945 . S
C135 C130 1.385 . S
C135 C134 1.369 . S
C136 C128 1.457 . S
C136 C137 1.372 . S
C136 C141 1.364 . S
C137 H116 0.952 . S
C137 C136 1.372 . S
C137 C138 1.389 . S
C138 H117 0.949 . S
C138 C137 1.389 . S
C138 C139 1.387 . S
C139 C138 1.387 . S
C139 C140 1.372 . S
C140 H118 0.950 . S
C140 C139 1.372 . S
C140 C141 1.379 . S
C141 H119 0.948 . S
C141 C136 1.364 . S
C141 C140 1.379 . S
C142 C111 1.383 . S
C142 C129 1.479 . S
C142 C143 1.398 . S
C143 C108 1.382 . S
C143 H120 0.951 . S
C143 C142 1.398 . S
C144 C145 1.384 . S
C144 H157 0.947 . S
C144 C179 1.382 . S
C145 C144 1.384 . S
C145 C146 1.378 . S
C146 C145 1.378 . S
C146 C147 1.378 . S
C146 H158 0.952 . S
C147 C146 1.378 . S
C147 H159 0.950 . S
C147 C178 1.383 . S
H148 C167 0.947 . S
H149 C168 0.946 . S
H150 C170 0.953 . S
H151 C171 0.945 . S
H152 C173 0.952 . S
H153 C174 0.949 . S
H154 C176 0.950 . S
H155 C177 0.948 . S
H156 C179 0.951 . S
H157 C144 0.947 . S
H158 C146 0.952 . S
H159 C147 0.950 . S
N160 C163 1.382 . S
N160 C165 1.363 . S
N161 C163 1.371 . S
N161 C164 1.372 . S
N162 C164 1.361 . S
N162 C165 1.377 . S
C163 N160 1.382 . S
C163 N161 1.371 . S
C163 C166 1.480 . S
C164 N161 1.372 . S
C164 N162 1.361 . S
C164 C172 1.457 . S
C165 N160 1.363 . S
C165 N162 1.377 . S
C165 C178 1.479 . S
C166 C163 1.480 . S
C166 C167 1.383 . S
C166 C171 1.385 . S
C167 H148 0.947 . S
C167 C166 1.383 . S
C167 C168 1.388 . S
C168 H149 0.946 . S
C168 C167 1.388 . S
C168 C169 1.384 . S
C169 C168 1.384 . S
C169 C170 1.377 . S
C170 H150 0.953 . S
C170 C169 1.377 . S
C170 C171 1.369 . S
C171 H151 0.945 . S
C171 C166 1.385 . S
C171 C170 1.369 . S
C172 C164 1.457 . S
C172 C173 1.372 . S
C172 C177 1.364 . S
C173 H152 0.952 . S
C173 C172 1.372 . S
C173 C174 1.389 . S
C174 H153 0.949 . S
C174 C173 1.389 . S
C174 C175 1.387 . S
C175 C174 1.387 . S
C175 C176 1.372 . S
C176 H154 0.950 . S
C176 C175 1.372 . S
C176 C177 1.379 . S
C177 H155 0.948 . S
C177 C172 1.364 . S
C177 C176 1.379 . S
C178 C147 1.383 . S
C178 C165 1.479 . S
C178 C179 1.398 . S
C179 C144 1.382 . S
C179 H156 0.951 . S
C179 C178 1.398 . S
C180 C181 1.384 . S
C180 H193 0.947 . S
C180 C215 1.382 . S
C181 C180 1.384 . S
C181 C182 1.378 . S
C182 C181 1.378 . S
C182 C183 1.378 . S
C182 H194 0.952 . S
C183 C182 1.378 . S
C183 H195 0.950 . S
C183 C214 1.383 . S
H184 C203 0.947 . S
H185 C204 0.946 . S
H186 C206 0.953 . S
H187 C207 0.945 . S
H188 C209 0.952 . S
H189 C210 0.949 . S
H190 C212 0.950 . S
H191 C213 0.948 . S
H192 C215 0.951 . S
H193 C180 0.947 . S
H194 C182 0.952 . S
H195 C183 0.950 . S
N196 C199 1.382 . S
N196 C201 1.363 . S
N197 C199 1.371 . S
N197 C200 1.372 . S
N198 C200 1.361 . S
N198 C201 1.377 . S
C199 N196 1.382 . S
C199 N197 1.371 . S
C199 C202 1.480 . S
C200 N197 1.372 . S
C200 N198 1.361 . S
C200 C208 1.457 . S
C201 N196 1.363 . S
C201 N198 1.377 . S
C201 C214 1.479 . S
C202 C199 1.480 . S
C202 C203 1.383 . S
C202 C207 1.385 . S
C203 H184 0.947 . S
C203 C202 1.383 . S
C203 C204 1.388 . S
C204 H185 0.946 . S
C204 C203 1.388 . S
C204 C205 1.384 . S
C205 C204 1.384 . S
C205 C206 1.377 . S
C206 H186 0.953 . S
C206 C205 1.377 . S
C206 C207 1.369 . S
C207 H187 0.945 . S
C207 C202 1.385 . S
C207 C206 1.369 . S
C208 C200 1.457 . S
C208 C209 1.372 . S
C208 C213 1.364 . S
C209 H188 0.952 . S
C209 C208 1.372 . S
C209 C210 1.389 . S
C210 H189 0.949 . S
C210 C209 1.389 . S
C210 C211 1.387 . S
C211 C210 1.387 . S
C211 C212 1.372 . S
C212 H190 0.950 . S
C212 C211 1.372 . S
C212 C213 1.379 . S
C213 H191 0.948 . S
C213 C208 1.364 . S
C213 C212 1.379 . S
C214 C183 1.383 . S
C214 C201 1.479 . S
C214 C215 1.398 . S
C215 C180 1.382 . S
C215 H192 0.951 . S
C215 C214 1.398 . S
C216 C217 1.384 . S
C216 H229 0.947 . S
C216 C251 1.382 . S
C217 C216 1.384 . S
C217 C218 1.378 . S
C218 C217 1.378 . S
C218 C219 1.378 . S
C218 H230 0.952 . S
C219 C218 1.378 . S
C219 H231 0.950 . S
C219 C250 1.383 . S
H220 C239 0.947 . S
H221 C240 0.946 . S
H222 C242 0.953 . S
H223 C243 0.945 . S
H224 C245 0.952 . S
H225 C246 0.949 . S
H226 C248 0.950 . S
H227 C249 0.948 . S
H228 C251 0.951 . S
H229 C216 0.947 . S
H230 C218 0.952 . S
H231 C219 0.950 . S
N232 C235 1.382 . S
N232 C237 1.363 . S
N233 C235 1.371 . S
N233 C236 1.372 . S
N234 C236 1.361 . S
N234 C237 1.377 . S
C235 N232 1.382 . S
C235 N233 1.371 . S
C235 C238 1.480 . S
C236 N233 1.372 . S
C236 N234 1.361 . S
C236 C244 1.457 . S
C237 N232 1.363 . S
C237 N234 1.377 . S
C237 C250 1.479 . S
C238 C235 1.480 . S
C238 C239 1.383 . S
C238 C243 1.385 . S
C239 H220 0.947 . S
C239 C238 1.383 . S
C239 C240 1.388 . S
C240 H221 0.946 . S
C240 C239 1.388 . S
C240 C241 1.384 . S
C241 C240 1.384 . S
C241 C242 1.377 . S
C242 H222 0.953 . S
C242 C241 1.377 . S
C242 C243 1.369 . S
C243 H223 0.945 . S
C243 C238 1.385 . S
C243 C242 1.369 . S
C244 C236 1.457 . S
C244 C245 1.372 . S
C244 C249 1.364 . S
C245 H224 0.952 . S
C245 C244 1.372 . S
C245 C246 1.389 . S
C246 H225 0.949 . S
C246 C245 1.389 . S
C246 C247 1.387 . S
C247 C246 1.387 . S
C247 C248 1.372 . S
C248 H226 0.950 . S
C248 C247 1.372 . S
C248 C249 1.379 . S
C249 H227 0.948 . S
C249 C244 1.364 . S
C249 C248 1.379 . S
C250 C219 1.383 . S
C250 C237 1.479 . S
C250 C251 1.398 . S
C251 C216 1.382 . S
C251 H228 0.951 . S
C251 C250 1.398 . S
C252 C253 1.384 . S
C252 H265 0.947 . S
C252 C287 1.382 . S
C253 C252 1.384 . S
C253 C254 1.378 . S
C254 C253 1.378 . S
C254 C255 1.378 . S
C254 H266 0.952 . S
C255 C254 1.378 . S
C255 H267 0.950 . S
C255 C286 1.383 . S
H256 C275 0.947 . S
H257 C276 0.946 . S
H258 C278 0.953 . S
H259 C279 0.945 . S
H260 C281 0.952 . S
H261 C282 0.949 . S
H262 C284 0.950 . S
H263 C285 0.948 . S
H264 C287 0.951 . S
H265 C252 0.947 . S
H266 C254 0.952 . S
H267 C255 0.950 . S
N268 C271 1.382 . S
N268 C273 1.363 . S
N269 C271 1.371 . S
N269 C272 1.372 . S
N270 C272 1.361 . S
N270 C273 1.377 . S
C271 N268 1.382 . S
C271 N269 1.371 . S
C271 C274 1.480 . S
C272 N269 1.372 . S
C272 N270 1.361 . S
C272 C280 1.457 . S
C273 N268 1.363 . S
C273 N270 1.377 . S
C273 C286 1.479 . S
C274 C271 1.480 . S
C274 C275 1.383 . S
C274 C279 1.385 . S
C275 H256 0.947 . S
C275 C274 1.383 . S
C275 C276 1.388 . S
C276 H257 0.946 . S
C276 C275 1.388 . S
C276 C277 1.384 . S
C277 C276 1.384 . S
C277 C278 1.377 . S
C278 H258 0.953 . S
C278 C277 1.377 . S
C278 C279 1.369 . S
C279 H259 0.945 . S
C279 C274 1.385 . S
C279 C278 1.369 . S
C280 C272 1.457 . S
C280 C281 1.372 . S
C280 C285 1.364 . S
C281 H260 0.952 . S
C281 C280 1.372 . S
C281 C282 1.389 . S
C282 H261 0.949 . S
C282 C281 1.389 . S
C282 C283 1.387 . S
C283 C282 1.387 . S
C283 C284 1.372 . S
C284 H262 0.950 . S
C284 C283 1.372 . S
C284 C285 1.379 . S
C285 H263 0.948 . S
C285 C280 1.364 . S
C285 C284 1.379 . S
C286 C255 1.383 . S
C286 C273 1.479 . S
C286 C287 1.398 . S
C287 C252 1.382 . S
C287 H264 0.951 . S
C287 C286 1.398 . S
C288 C289 1.384 . S
C288 H301 0.947 . S
C288 C323 1.382 . S
C289 C288 1.384 . S
C289 C290 1.378 . S
C290 C289 1.378 . S
C290 C291 1.378 . S
C290 H302 0.952 . S
C291 C290 1.378 . S
C291 H303 0.950 . S
C291 C322 1.383 . S
H292 C311 0.947 . S
H293 C312 0.946 . S
H294 C314 0.953 . S
H295 C315 0.945 . S
H296 C317 0.952 . S
H297 C318 0.949 . S
H298 C320 0.950 . S
H299 C321 0.948 . S
H300 C323 0.951 . S
H301 C288 0.947 . S
H302 C290 0.952 . S
H303 C291 0.950 . S
N304 C307 1.382 . S
N304 C309 1.363 . S
N305 C307 1.371 . S
N305 C308 1.372 . S
N306 C308 1.361 . S
N306 C309 1.377 . S
C307 N304 1.382 . S
C307 N305 1.371 . S
C307 C310 1.480 . S
C308 N305 1.372 . S
C308 N306 1.361 . S
C308 C316 1.457 . S
C309 N304 1.363 . S
C309 N306 1.377 . S
C309 C322 1.479 . S
C310 C307 1.480 . S
C310 C311 1.383 . S
C310 C315 1.385 . S
C311 H292 0.947 . S
C311 C310 1.383 . S
C311 C312 1.388 . S
C312 H293 0.946 . S
C312 C311 1.388 . S
C312 C313 1.384 . S
C313 C312 1.384 . S
C313 C314 1.377 . S
C314 H294 0.953 . S
C314 C313 1.377 . S
C314 C315 1.369 . S
C315 H295 0.945 . S
C315 C310 1.385 . S
C315 C314 1.369 . S
C316 C308 1.457 . S
C316 C317 1.372 . S
C316 C321 1.364 . S
C317 H296 0.952 . S
C317 C316 1.372 . S
C317 C318 1.389 . S
C318 H297 0.949 . S
C318 C317 1.389 . S
C318 C319 1.387 . S
C319 C318 1.387 . S
C319 C320 1.372 . S
C320 H298 0.950 . S
C320 C319 1.372 . S
C320 C321 1.379 . S
C321 H299 0.948 . S
C321 C316 1.364 . S
C321 C320 1.379 . S
C322 C291 1.383 . S
C322 C309 1.479 . S
C322 C323 1.398 . S
C323 C288 1.382 . S
C323 H300 0.951 . S
C323 C322 1.398 . S
C324 C325 1.384 . S
C324 H337 0.947 . S
C324 C359 1.382 . S
C325 C324 1.384 . S
C325 C326 1.378 . S
C326 C325 1.378 . S
C326 C327 1.378 . S
C326 H338 0.952 . S
C327 C326 1.378 . S
C327 H339 0.950 . S
C327 C358 1.383 . S
H328 C347 0.947 . S
H329 C348 0.946 . S
H330 C350 0.953 . S
H331 C351 0.945 . S
H332 C353 0.952 . S
H333 C354 0.949 . S
H334 C356 0.950 . S
H335 C357 0.948 . S
H336 C359 0.951 . S
H337 C324 0.947 . S
H338 C326 0.952 . S
H339 C327 0.950 . S
N340 C343 1.382 . S
N340 C345 1.363 . S
N341 C343 1.371 . S
N341 C344 1.372 . S
N342 C344 1.361 . S
N342 C345 1.377 . S
C343 N340 1.382 . S
C343 N341 1.371 . S
C343 C346 1.480 . S
C344 N341 1.372 . S
C344 N342 1.361 . S
C344 C352 1.457 . S
C345 N340 1.363 . S
C345 N342 1.377 . S
C345 C358 1.479 . S
C346 C343 1.480 . S
C346 C347 1.383 . S
C346 C351 1.385 . S
C347 H328 0.947 . S
C347 C346 1.383 . S
C347 C348 1.388 . S
C348 H329 0.946 . S
C348 C347 1.388 . S
C348 C349 1.384 . S
C349 C348 1.384 . S
C349 C350 1.377 . S
C350 H330 0.953 . S
C350 C349 1.377 . S
C350 C351 1.369 . S
C351 H331 0.945 . S
C351 C346 1.385 . S
C351 C350 1.369 . S
C352 C344 1.457 . S
C352 C353 1.372 . S
C352 C357 1.364 . S
C353 H332 0.952 . S
C353 C352 1.372 . S
C353 C354 1.389 . S
C354 H333 0.949 . S
C354 C353 1.389 . S
C354 C355 1.387 . S
C355 C354 1.387 . S
C355 C356 1.372 . S
C356 H334 0.950 . S
C356 C355 1.372 . S
C356 C357 1.379 . S
C357 H335 0.948 . S
C357 C352 1.364 . S
C357 C356 1.379 . S
C358 C327 1.383 . S
C358 C345 1.479 . S
C358 C359 1.398 . S
C359 C324 1.382 . S
C359 H336 0.951 . S
C359 C358 1.398 . S
C360 C361 1.384 . S
C360 H373 0.947 . S
C360 C395 1.382 . S
C361 C360 1.384 . S
C361 C362 1.378 . S
C362 C361 1.378 . S
C362 C363 1.378 . S
C362 H374 0.952 . S
C363 C362 1.378 . S
C363 H375 0.950 . S
C363 C394 1.383 . S
H364 C383 0.947 . S
H365 C384 0.946 . S
H366 C386 0.953 . S
H367 C387 0.945 . S
H368 C389 0.952 . S
H369 C390 0.949 . S
H370 C392 0.950 . S
H371 C393 0.948 . S
H372 C395 0.951 . S
H373 C360 0.947 . S
H374 C362 0.952 . S
H375 C363 0.950 . S
N376 C379 1.382 . S
N376 C381 1.363 . S
N377 C379 1.371 . S
N377 C380 1.372 . S
N378 C380 1.361 . S
N378 C381 1.377 . S
C379 N376 1.382 . S
C379 N377 1.371 . S
C379 C382 1.480 . S
C380 N377 1.372 . S
C380 N378 1.361 . S
C380 C388 1.457 . S
C381 N376 1.363 . S
C381 N378 1.377 . S
C381 C394 1.479 . S
C382 C379 1.480 . S
C382 C383 1.383 . S
C382 C387 1.385 . S
C383 H364 0.947 . S
C383 C382 1.383 . S
C383 C384 1.388 . S
C384 H365 0.946 . S
C384 C383 1.388 . S
C384 C385 1.384 . S
C385 C384 1.384 . S
C385 C386 1.377 . S
C386 H366 0.953 . S
C386 C385 1.377 . S
C386 C387 1.369 . S
C387 H367 0.945 . S
C387 C382 1.385 . S
C387 C386 1.369 . S
C388 C380 1.457 . S
C388 C389 1.372 . S
C388 C393 1.364 . S
C389 H368 0.952 . S
C389 C388 1.372 . S
C389 C390 1.389 . S
C390 H369 0.949 . S
C390 C389 1.389 . S
C390 C391 1.387 . S
C391 C390 1.387 . S
C391 C392 1.372 . S
C392 H370 0.950 . S
C392 C391 1.372 . S
C392 C393 1.379 . S
C393 H371 0.948 . S
C393 C388 1.364 . S
C393 C392 1.379 . S
C394 C363 1.383 . S
C394 C381 1.479 . S
C394 C395 1.398 . S
C395 C360 1.382 . S
C395 H372 0.951 . S
C395 C394 1.398 . S
C396 C397 1.384 . S
C396 H409 0.947 . S
C396 C431 1.382 . S
C397 C396 1.384 . S
C397 C398 1.378 . S
C398 C397 1.378 . S
C398 C399 1.378 . S
C398 H410 0.952 . S
C399 C398 1.378 . S
C399 H411 0.950 . S
C399 C430 1.383 . S
H400 C419 0.947 . S
H401 C420 0.946 . S
H402 C422 0.953 . S
H403 C423 0.945 . S
H404 C425 0.952 . S
H405 C426 0.949 . S
H406 C428 0.950 . S
H407 C429 0.948 . S
H408 C431 0.951 . S
H409 C396 0.947 . S
H410 C398 0.952 . S
H411 C399 0.950 . S
N412 C415 1.382 . S
N412 C417 1.363 . S
N413 C415 1.371 . S
N413 C416 1.372 . S
N414 C416 1.361 . S
N414 C417 1.377 . S
C415 N412 1.382 . S
C415 N413 1.371 . S
C415 C418 1.480 . S
C416 N413 1.372 . S
C416 N414 1.361 . S
C416 C424 1.457 . S
C417 N412 1.363 . S
C417 N414 1.377 . S
C417 C430 1.479 . S
C418 C415 1.480 . S
C418 C419 1.383 . S
C418 C423 1.385 . S
C419 H400 0.947 . S
C419 C418 1.383 . S
C419 C420 1.388 . S
C420 H401 0.946 . S
C420 C419 1.388 . S
C420 C421 1.384 . S
C421 C420 1.384 . S
C421 C422 1.377 . S
C422 H402 0.953 . S
C422 C421 1.377 . S
C422 C423 1.369 . S
C423 H403 0.945 . S
C423 C418 1.385 . S
C423 C422 1.369 . S
C424 C416 1.457 . S
C424 C425 1.372 . S
C424 C429 1.364 . S
C425 H404 0.952 . S
C425 C424 1.372 . S
C425 C426 1.389 . S
C426 H405 0.949 . S
C426 C425 1.389 . S
C426 C427 1.387 . S
C427 C426 1.387 . S
C427 C428 1.372 . S
C428 H406 0.950 . S
C428 C427 1.372 . S
C428 C429 1.379 . S
C429 H407 0.948 . S
C429 C424 1.364 . S
C429 C428 1.379 . S
C430 C399 1.383 . S
C430 C417 1.479 . S
C430 C431 1.398 . S
C431 C396 1.382 . S
C431 H408 0.951 . S
C431 C430 1.398 . S
C432 C433 1.384 . S
C432 H445 0.947 . S
C432 C467 1.382 . S
C433 C432 1.384 . S
C433 C434 1.378 . S
C434 C433 1.378 . S
C434 C435 1.378 . S
C434 H446 0.952 . S
C435 C434 1.378 . S
C435 H447 0.950 . S
C435 C466 1.383 . S
H436 C455 0.947 . S
H437 C456 0.946 . S
H438 C458 0.953 . S
H439 C459 0.945 . S
H440 C461 0.952 . S
H441 C462 0.949 . S
H442 C464 0.950 . S
H443 C465 0.948 . S
H444 C467 0.951 . S
H445 C432 0.947 . S
H446 C434 0.952 . S
H447 C435 0.950 . S
N448 C451 1.382 . S
N448 C453 1.363 . S
N449 C451 1.371 . S
N449 C452 1.372 . S
N450 C452 1.361 . S
N450 C453 1.377 . S
C451 N448 1.382 . S
C451 N449 1.371 . S
C451 C454 1.480 . S
C452 N449 1.372 . S
C452 N450 1.361 . S
C452 C460 1.457 . S
C453 N448 1.363 . S
C453 N450 1.377 . S
C453 C466 1.479 . S
C454 C451 1.480 . S
C454 C455 1.383 . S
C454 C459 1.385 . S
C455 H436 0.947 . S
C455 C454 1.383 . S
C455 C456 1.388 . S
C456 H437 0.946 . S
C456 C455 1.388 . S
C456 C457 1.384 . S
C457 C456 1.384 . S
C457 C458 1.377 . S
C458 H438 0.953 . S
C458 C457 1.377 . S
C458 C459 1.369 . S
C459 H439 0.945 . S
C459 C454 1.385 . S
C459 C458 1.369 . S
C460 C452 1.457 . S
C460 C461 1.372 . S
C460 C465 1.364 . S
C461 H440 0.952 . S
C461 C460 1.372 . S
C461 C462 1.389 . S
C462 H441 0.949 . S
C462 C461 1.389 . S
C462 C463 1.387 . S
C463 C462 1.387 . S
C463 C464 1.372 . S
C464 H442 0.950 . S
C464 C463 1.372 . S
C464 C465 1.379 . S
C465 H443 0.948 . S
C465 C460 1.364 . S
C465 C464 1.379 . S
C466 C435 1.383 . S
C466 C453 1.479 . S
C466 C467 1.398 . S
C467 C432 1.382 . S
C467 H444 0.951 . S
C467 C466 1.398 . S
C468 C469 1.384 . S
C468 H481 0.947 . S
C468 C503 1.382 . S
C469 C468 1.384 . S
C469 C470 1.378 . S
C470 C469 1.378 . S
C470 C471 1.378 . S
C470 H482 0.952 . S
C471 C470 1.378 . S
C471 H483 0.950 . S
C471 C502 1.383 . S
H472 C491 0.947 . S
H473 C492 0.946 . S
H474 C494 0.953 . S
H475 C495 0.945 . S
H476 C497 0.952 . S
H477 C498 0.949 . S
H478 C500 0.950 . S
H479 C501 0.948 . S
H480 C503 0.951 . S
H481 C468 0.947 . S
H482 C470 0.952 . S
H483 C471 0.950 . S
N484 C487 1.382 . S
N484 C489 1.363 . S
N485 C487 1.371 . S
N485 C488 1.372 . S
N486 C488 1.361 . S
N486 C489 1.377 . S
C487 N484 1.382 . S
C487 N485 1.371 . S
C487 C490 1.480 . S
C488 N485 1.372 . S
C488 N486 1.361 . S
C488 C496 1.457 . S
C489 N484 1.363 . S
C489 N486 1.377 . S
C489 C502 1.479 . S
C490 C487 1.480 . S
C490 C491 1.383 . S
C490 C495 1.385 . S
C491 H472 0.947 . S
C491 C490 1.383 . S
C491 C492 1.388 . S
C492 H473 0.946 . S
C492 C491 1.388 . S
C492 C493 1.384 . S
C493 C492 1.384 . S
C493 C494 1.377 . S
C494 H474 0.953 . S
C494 C493 1.377 . S
C494 C495 1.369 . S
C495 H475 0.945 . S
C495 C490 1.385 . S
C495 C494 1.369 . S
C496 C488 1.457 . S
C496 C497 1.372 . S
C496 C501 1.364 . S
C497 H476 0.952 . S
C497 C496 1.372 . S
C497 C498 1.389 . S
C498 H477 0.949 . S
C498 C497 1.389 . S
C498 C499 1.387 . S
C499 C498 1.387 . S
C499 C500 1.372 . S
C500 H478 0.950 . S
C500 C499 1.372 . S
C500 C501 1.379 . S
C501 H479 0.948 . S
C501 C496 1.364 . S
C501 C500 1.379 . S
C502 C471 1.383 . S
C502 C489 1.479 . S
C502 C503 1.398 . S
C503 C468 1.382 . S
C503 H480 0.951 . S
C503 C502 1.398 . S
C504 C505 1.384 . S
C504 H517 0.947 . S
C504 C539 1.382 . S
C505 C504 1.384 . S
C505 C506 1.378 . S
C506 C505 1.378 . S
C506 C507 1.378 . S
C506 H518 0.952 . S
C507 C506 1.378 . S
C507 H519 0.950 . S
C507 C538 1.383 . S
H508 C527 0.947 . S
H509 C528 0.946 . S
H510 C530 0.953 . S
H511 C531 0.945 . S
H512 C533 0.952 . S
H513 C534 0.949 . S
H514 C536 0.950 . S
H515 C537 0.948 . S
H516 C539 0.951 . S
H517 C504 0.947 . S
H518 C506 0.952 . S
H519 C507 0.950 . S
N520 C523 1.382 . S
N520 C525 1.363 . S
N521 C523 1.371 . S
N521 C524 1.372 . S
N522 C524 1.361 . S
N522 C525 1.377 . S
C523 N520 1.382 . S
C523 N521 1.371 . S
C523 C526 1.480 . S
C524 N521 1.372 . S
C524 N522 1.361 . S
C524 C532 1.457 . S
C525 N520 1.363 . S
C525 N522 1.377 . S
C525 C538 1.479 . S
C526 C523 1.480 . S
C526 C527 1.383 . S
C526 C531 1.385 . S
C527 H508 0.947 . S
C527 C526 1.383 . S
C527 C528 1.388 . S
C528 H509 0.946 . S
C528 C527 1.388 . S
C528 C529 1.384 . S
C529 C528 1.384 . S
C529 C530 1.377 . S
C530 H510 0.953 . S
C530 C529 1.377 . S
C530 C531 1.369 . S
C531 H511 0.945 . S
C531 C526 1.385 . S
C531 C530 1.369 . S
C532 C524 1.457 . S
C532 C533 1.372 . S
C532 C537 1.364 . S
C533 H512 0.952 . S
C533 C532 1.372 . S
C533 C534 1.389 . S
C534 H513 0.949 . S
C534 C533 1.389 . S
C534 C535 1.387 . S
C535 C534 1.387 . S
C535 C536 1.372 . S
C536 H514 0.950 . S
C536 C535 1.372 . S
C536 C537 1.379 . S
C537 H515 0.948 . S
C537 C532 1.364 . S
C537 C536 1.379 . S
C538 C507 1.383 . S
C538 C525 1.479 . S
C538 C539 1.398 . S
C539 C504 1.382 . S
C539 H516 0.951 . S
C539 C538 1.398 . S
C540 C541 1.384 . S
C540 H553 0.947 . S
C540 C575 1.382 . S
C541 C540 1.384 . S
C541 C542 1.378 . S
C542 C541 1.378 . S
C542 C543 1.378 . S
C542 H554 0.952 . S
C543 C542 1.378 . S
C543 H555 0.950 . S
C543 C574 1.383 . S
H544 C563 0.947 . S
H545 C564 0.946 . S
H546 C566 0.953 . S
H547 C567 0.945 . S
H548 C569 0.952 . S
H549 C570 0.949 . S
H550 C572 0.950 . S
H551 C573 0.948 . S
H552 C575 0.951 . S
H553 C540 0.947 . S
H554 C542 0.952 . S
H555 C543 0.950 . S
N556 C559 1.382 . S
N556 C561 1.363 . S
N557 C559 1.371 . S
N557 C560 1.372 . S
N558 C560 1.361 . S
N558 C561 1.377 . S
C559 N556 1.382 . S
C559 N557 1.371 . S
C559 C562 1.480 . S
C560 N557 1.372 . S
C560 N558 1.361 . S
C560 C568 1.457 . S
C561 N556 1.363 . S
C561 N558 1.377 . S
C561 C574 1.479 . S
C562 C559 1.480 . S
C562 C563 1.383 . S
C562 C567 1.385 . S
C563 H544 0.947 . S
C563 C562 1.383 . S
C563 C564 1.388 . S
C564 H545 0.946 . S
C564 C563 1.388 . S
C564 C565 1.384 . S
C565 C564 1.384 . S
C565 C566 1.377 . S
C566 H546 0.953 . S
C566 C565 1.377 . S
C566 C567 1.369 . S
C567 H547 0.945 . S
C567 C562 1.385 . S
C567 C566 1.369 . S
C568 C560 1.457 . S
C568 C569 1.372 . S
C568 C573 1.364 . S
C569 H548 0.952 . S
C569 C568 1.372 . S
C569 C570 1.389 . S
C570 H549 0.949 . S
C570 C569 1.389 . S
C570 C571 1.387 . S
C571 C570 1.387 . S
C571 C572 1.372 . S
C572 H550 0.950 . S
C572 C571 1.372 . S
C572 C573 1.379 . S
C573 H551 0.948 . S
C573 C568 1.364 . S
C573 C572 1.379 . S
C574 C543 1.383 . S
C574 C561 1.479 . S
C574 C575 1.398 . S
C575 C540 1.382 . S
C575 H552 0.951 . S
C575 C574 1.398 . S
C576 C577 1.384 . S
C576 H589 0.947 . S
C576 C611 1.382 . S
C577 C576 1.384 . S
C577 C578 1.378 . S
C578 C577 1.378 . S
C578 C579 1.378 . S
C578 H590 0.952 . S
C579 C578 1.378 . S
C579 H591 0.950 . S
C579 C610 1.383 . S
H580 C599 0.947 . S
H581 C600 0.946 . S
H582 C602 0.953 . S
H583 C603 0.945 . S
H584 C605 0.952 . S
H585 C606 0.949 . S
H586 C608 0.950 . S
H587 C609 0.948 . S
H588 C611 0.951 . S
H589 C576 0.947 . S
H590 C578 0.952 . S
H591 C579 0.950 . S
N592 C595 1.382 . S
N592 C597 1.363 . S
N593 C595 1.371 . S
N593 C596 1.372 . S
N594 C596 1.361 . S
N594 C597 1.377 . S
C595 N592 1.382 . S
C595 N593 1.371 . S
C595 C598 1.480 . S
C596 N593 1.372 . S
C596 N594 1.361 . S
C596 C604 1.457 . S
C597 N592 1.363 . S
C597 N594 1.377 . S
C597 C610 1.479 . S
C598 C595 1.480 . S
C598 C599 1.383 . S
C598 C603 1.385 . S
C599 H580 0.947 . S
C599 C598 1.383 . S
C599 C600 1.388 . S
C600 H581 0.946 . S
C600 C599 1.388 . S
C600 C601 1.384 . S
C601 C600 1.384 . S
C601 C602 1.377 . S
C602 H582 0.953 . S
C602 C601 1.377 . S
C602 C603 1.369 . S
C603 H583 0.945 . S
C603 C598 1.385 . S
C603 C602 1.369 . S
C604 C596 1.457 . S
C604 C605 1.372 . S
C604 C609 1.364 . S
C605 H584 0.952 . S
C605 C604 1.372 . S
C605 C606 1.389 . S
C606 H585 0.949 . S
C606 C605 1.389 . S
C606 C607 1.387 . S
C607 C606 1.387 . S
C607 C608 1.372 . S
C608 H586 0.950 . S
C608 C607 1.372 . S
C608 C609 1.379 . S
C609 H587 0.948 . S
C609 C604 1.364 . S
C609 C608 1.379 . S
C610 C579 1.383 . S
C610 C597 1.479 . S
C610 C611 1.398 . S
C611 C576 1.382 . S
C611 H588 0.951 . S
C611 C610 1.398 . S
C612 C613 1.384 . S
C612 H625 0.947 . S
C612 C647 1.382 . S
C613 C612 1.384 . S
C613 C614 1.378 . S
C614 C613 1.378 . S
C614 C615 1.378 . S
C614 H626 0.952 . S
C615 C614 1.378 . S
C615 H627 0.950 . S
C615 C646 1.383 . S
H616 C635 0.947 . S
H617 C636 0.946 . S
H618 C638 0.953 . S
H619 C639 0.945 . S
H620 C641 0.952 . S
H621 C642 0.949 . S
H622 C644 0.950 . S
H623 C645 0.948 . S
H624 C647 0.951 . S
H625 C612 0.947 . S
H626 C614 0.952 . S
H627 C615 0.950 . S
N628 C631 1.382 . S
N628 C633 1.363 . S
N629 C631 1.371 . S
N629 C632 1.372 . S
N630 C632 1.361 . S
N630 C633 1.377 . S
C631 N628 1.382 . S
C631 N629 1.371 . S
C631 C634 1.480 . S
C632 N629 1.372 . S
C632 N630 1.361 . S
C632 C640 1.457 . S
C633 N628 1.363 . S
C633 N630 1.377 . S
C633 C646 1.479 . S
C634 C631 1.480 . S
C634 C635 1.383 . S
C634 C639 1.385 . S
C635 H616 0.947 . S
C635 C634 1.383 . S
C635 C636 1.388 . S
C636 H617 0.946 . S
C636 C635 1.388 . S
C636 C637 1.384 . S
C637 C636 1.384 . S
C637 C638 1.377 . S
C638 H618 0.953 . S
C638 C637 1.377 . S
C638 C639 1.369 . S
C639 H619 0.945 . S
C639 C634 1.385 . S
C639 C638 1.369 . S
C640 C632 1.457 . S
C640 C641 1.372 . S
C640 C645 1.364 . S
C641 H620 0.952 . S
C641 C640 1.372 . S
C641 C642 1.389 . S
C642 H621 0.949 . S
C642 C641 1.389 . S
C642 C643 1.387 . S
C643 C642 1.387 . S
C643 C644 1.372 . S
C644 H622 0.950 . S
C644 C643 1.372 . S
C644 C645 1.379 . S
C645 H623 0.948 . S
C645 C640 1.364 . S
C645 C644 1.379 . S
C646 C615 1.383 . S
C646 C633 1.479 . S
C646 C647 1.398 . S
C647 C612 1.382 . S
C647 H624 0.951 . S
C647 C646 1.398 . S
Eu648 N679 2.657 . S
Eu648 N686 2.609 . S
Eu648 O692 2.558 . S
Eu648 O693 2.594 1_566 S
Eu648 O695 2.339 1_565 S
Eu648 O696 2.563 1_565 S
Eu648 O697 2.419 . S
Eu648 O699 2.380 1_556 S
Eu648 O700 2.456 . S
Eu648 C712 2.848 . S
C649 C652 1.429 . S
C649 C653 1.411 . S
C649 N656 1.377 . S
C650 C652 1.420 . S
C650 C654 1.423 . S
C650 C662 1.392 . S
C651 C653 1.420 . S
C651 C654 1.351 . S
C651 H674 0.931 . S
C652 C649 1.429 . S
C652 C650 1.420 . S
C652 N660 1.362 . S
C653 C649 1.411 . S
C653 C651 1.420 . S
C653 C658 1.395 . S
C654 C650 1.423 . S
C654 C651 1.351 . S
C654 H666 0.930 . S
C655 C657 1.400 . S
C655 C658 1.386 . S
C655 H667 0.930 . S
N656 C649 1.377 . S
N656 C657 1.321 . S
N656 Eu659 2.609 . S
C657 C655 1.400 . S
C657 N656 1.321 . S
C657 H664 0.930 . S
C658 C653 1.395 . S
C658 C655 1.386 . S
C658 H677 0.930 . S
Eu659 N656 2.609 . S
Eu659 N660 2.657 . S
Eu659 O693 2.412 . S
Eu659 O694 2.432 . S
Eu659 O698 2.558 . S
Eu659 O699 2.612 1_545 S
Eu659 O701 2.339 1_545 S
Eu659 O702 2.563 1_545 S
Eu659 O703 2.419 . S
Eu659 C723 2.848 . S
N660 C652 1.362 . S
N660 Eu659 2.657 . S
N660 C661 1.334 . S
C661 N660 1.334 . S
C661 C663 1.413 . S
C661 H668 0.929 . S
C662 C650 1.392 . S
C662 C663 1.367 . S
C662 H670 0.930 . S
C663 C661 1.413 . S
C663 C662 1.367 . S
C663 H665 0.930 . S
H664 C657 0.930 . S
H665 C663 0.930 . S
H666 C654 0.930 . S
H667 C655 0.930 . S
H668 C661 0.929 . S
H669 C683 0.930 . S
H670 C662 0.930 . S
H671 C689 0.930 . S
H672 C680 0.929 . S
H673 C687 0.930 . S
H674 C651 0.931 . S
H675 C681 0.930 . S
H676 C714 0.930 . S
H677 C658 0.930 . S
H678 C713 0.931 . S
N679 Eu648 2.657 . S
N679 C680 1.334 . S
N679 C684 1.362 . S
C680 H672 0.929 . S
C680 N679 1.334 . S
C680 C683 1.413 . S
C681 H675 0.930 . S
C681 C682 1.392 . S
C681 C683 1.367 . S
C682 C681 1.392 . S
C682 C684 1.420 . S
C682 C714 1.423 . S
C683 H669 0.930 . S
C683 C680 1.413 . S
C683 C681 1.367 . S
C684 N679 1.362 . S
C684 C682 1.420 . S
C684 C688 1.429 . S
H685 C690 0.930 . S
N686 Eu648 2.609 . S
N686 C688 1.377 . S
N686 C689 1.321 . S
C687 H673 0.930 . S
C687 C689 1.400 . S
C687 C690 1.386 . S
C688 C684 1.429 . S
C688 N686 1.377 . S
C688 C691 1.411 . S
C689 H671 0.930 . S
C689 N686 1.321 . S
C689 C687 1.400 . S
C690 H685 0.930 . S
C690 C687 1.386 . S
C690 C691 1.395 . S
C691 C688 1.411 . S
C691 C690 1.395 . S
C691 C713 1.420 . S
O692 Eu648 2.558 . S
O692 C712 1.257 . S
O693 Eu648 2.594 1_544 S
O693 Eu659 2.412 . S
O693 C704 1.250 1_554 S
O694 Eu659 2.432 . S
O694 C711 1.264 1_554 S
O695 Eu648 2.339 1_545 S
O695 C711 1.254 . S
O696 Eu648 2.563 1_545 S
O696 C704 1.235 . S
O697 Eu648 2.419 . S
O697 C712 1.249 . S
O698 Eu659 2.558 . S
O698 C723 1.257 . S
O699 Eu648 2.380 1_554 S
O699 Eu659 2.612 1_565 S
O699 C715 1.276 . S
O700 Eu648 2.456 . S
O700 C722 1.222 1_556 S
O701 Eu659 2.339 1_565 S
O701 C722 1.254 . S
O702 Eu659 2.563 1_565 S
O702 C715 1.235 . S
O703 Eu659 2.419 . S
O703 C723 1.249 . S
C704 O693 1.250 1_556 S
C704 O696 1.235 . S
C705 C707 1.393 1_565 S
C705 C709 1.395 . S
C705 C712 1.492 . S
C706 C707 1.392 . S
C706 C708 1.386 1_545 S
C707 C705 1.393 1_545 S
C707 C706 1.392 . S
C707 H724 0.930 . S
C708 C706 1.386 1_565 S
C708 C710 1.395 . S
C708 H725 0.930 . S
C709 C705 1.395 . S
C709 C710 1.379 . S
C709 H726 0.930 . S
C710 C708 1.395 . S
C710 C709 1.379 . S
C710 H727 0.930 . S
C711 O694 1.264 1_556 S
C711 O695 1.254 . S
C712 Eu648 2.848 . S
C712 O692 1.257 . S
C712 O697 1.249 . S
C712 C705 1.492 . S
C713 H678 0.931 . S
C713 C691 1.420 . S
C713 C714 1.351 . S
C714 H676 0.930 . S
C714 C682 1.423 . S
C714 C713 1.351 . S
C715 O699 1.276 . S
C715 O702 1.235 . S
C716 C717 1.393 1_545 S
C716 C720 1.395 . S
C716 C723 1.492 . S
C717 C716 1.393 1_565 S
C717 C718 1.392 . S
C717 H728 0.930 . S
C718 C717 1.392 . S
C718 C719 1.386 1_565 S
C719 C718 1.386 1_545 S
C719 C721 1.395 . S
C719 H729 0.930 . S
C720 C716 1.395 . S
C720 C721 1.379 . S
C720 H730 0.930 . S
C721 C719 1.395 . S
C721 C720 1.379 . S
C721 H731 0.930 . S
C722 O700 1.222 1_554 S
C722 O701 1.254 . S
C723 Eu659 2.848 . S
C723 O698 1.257 . S
C723 O703 1.249 . S
C723 C716 1.492 . S
H724 C707 0.930 . S
H725 C708 0.930 . S
H726 C709 0.930 . S
H727 C710 0.930 . S
H728 C717 0.930 . S
H729 C719 0.930 . S
H730 C720 0.930 . S
H731 C721 0.930 . S
Eu732 N763 2.657 . S
Eu732 N770 2.609 . S
Eu732 O776 2.558 . S
Eu732 O777 2.607 1_455 S
Eu732 O779 2.339 1_455 S
Eu732 O780 2.563 1_455 S
Eu732 O781 2.419 . S
Eu732 O783 2.380 1_556 S
Eu732 O784 2.432 1_556 S
Eu732 C796 2.848 . S
C733 C736 1.429 . S
C733 C737 1.411 . S
C733 N740 1.377 . S
C734 C736 1.420 . S
C734 C738 1.423 . S
C734 C746 1.392 . S
C735 C737 1.420 . S
C735 C738 1.351 . S
C735 H758 0.931 . S
C736 C733 1.429 . S
C736 C734 1.420 . S
C736 N744 1.362 . S
C737 C733 1.411 . S
C737 C735 1.420 . S
C737 C742 1.395 . S
C738 C734 1.423 . S
C738 C735 1.351 . S
C738 H750 0.930 . S
C739 C741 1.400 . S
C739 C742 1.386 . S
C739 H751 0.930 . S
N740 C733 1.377 . S
N740 C741 1.321 . S
N740 Eu743 2.609 . S
C741 C739 1.400 . S
C741 N740 1.321 . S
C741 H748 0.930 . S
C742 C737 1.395 . S
C742 C739 1.386 . S
C742 H761 0.930 . S
Eu743 N740 2.609 . S
Eu743 N744 2.657 . S
Eu743 O777 2.390 1_554 S
Eu743 O778 2.432 . S
Eu743 O782 2.558 . S
Eu743 O783 2.612 1_655 S
Eu743 O785 2.339 1_655 S
Eu743 O786 2.563 1_655 S
Eu743 O787 2.419 . S
Eu743 C807 2.848 . S
N744 C736 1.362 . S
N744 Eu743 2.657 . S
N744 C745 1.334 . S
C745 N744 1.334 . S
C745 C747 1.413 . S
C745 H752 0.929 . S
C746 C734 1.392 . S
C746 C747 1.367 . S
C746 H754 0.930 . S
C747 C745 1.413 . S
C747 C746 1.367 . S
C747 H749 0.930 . S
H748 C741 0.930 . S
H749 C747 0.930 . S
H750 C738 0.930 . S
H751 C739 0.930 . S
H752 C745 0.929 . S
H753 C767 0.930 . S
H754 C746 0.930 . S
H755 C773 0.930 . S
H756 C764 0.929 . S
H757 C771 0.930 . S
H758 C735 0.931 . S
H759 C765 0.930 . S
H760 C798 0.930 . S
H761 C742 0.930 . S
H762 C797 0.931 . S
N763 Eu732 2.657 . S
N763 C764 1.334 . S
N763 C768 1.362 . S
C764 H756 0.929 . S
C764 N763 1.334 . S
C764 C767 1.413 . S
C765 H759 0.930 . S
C765 C766 1.392 . S
C765 C767 1.367 . S
C766 C765 1.392 . S
C766 C768 1.420 . S
C766 C798 1.423 . S
C767 H753 0.930 . S
C767 C764 1.413 . S
C767 C765 1.367 . S
C768 N763 1.362 . S
C768 C766 1.420 . S
C768 C772 1.429 . S
H769 C774 0.930 . S
N770 Eu732 2.609 . S
N770 C772 1.377 . S
N770 C773 1.321 . S
C771 H757 0.930 . S
C771 C773 1.400 . S
C771 C774 1.386 . S
C772 C768 1.429 . S
C772 N770 1.377 . S
C772 C775 1.411 . S
C773 H755 0.930 . S
C773 N770 1.321 . S
C773 C771 1.400 . S
C774 H769 0.930 . S
C774 C771 1.386 . S
C774 C775 1.395 . S
C775 C772 1.411 . S
C775 C774 1.395 . S
C775 C797 1.420 . S
O776 Eu732 2.558 . S
O776 C796 1.257 . S
O777 Eu732 2.607 1_655 S
O777 Eu743 2.390 1_556 S
O777 C788 1.268 . S
O778 Eu743 2.432 . S
O778 C795 1.264 1_554 S
O779 Eu732 2.339 1_655 S
O779 C795 1.254 . S
O780 Eu732 2.563 1_655 S
O780 C788 1.235 . S
O781 Eu732 2.419 . S
O781 C796 1.249 . S
O782 Eu743 2.558 . S
O782 C807 1.257 . S
O783 Eu732 2.380 1_554 S
O783 Eu743 2.612 1_455 S
O783 C799 1.276 . S
O784 Eu732 2.432 1_554 S
O784 C806 1.265 . S
O785 Eu743 2.339 1_455 S
O785 C806 1.254 . S
O786 Eu743 2.563 1_455 S
O786 C799 1.235 . S
O787 Eu743 2.419 . S
O787 C807 1.249 . S
C788 O777 1.268 . S
C788 O780 1.235 . S
C789 C791 1.393 1_455 S
C789 C793 1.395 . S
C789 C796 1.492 . S
C790 C791 1.392 . S
C790 C792 1.386 1_655 S
C791 C789 1.393 1_655 S
C791 C790 1.392 . S
C791 H808 0.930 . S
C792 C790 1.386 1_455 S
C792 C794 1.395 . S
C792 H809 0.930 . S
C793 C789 1.395 . S
C793 C794 1.379 . S
C793 H810 0.930 . S
C794 C792 1.395 . S
C794 C793 1.379 . S
C794 H811 0.930 . S
C795 O778 1.264 1_556 S
C795 O779 1.254 . S
C796 Eu732 2.848 . S
C796 O776 1.257 . S
C796 O781 1.249 . S
C796 C789 1.492 . S
C797 H762 0.931 . S
C797 C775 1.420 . S
C797 C798 1.351 . S
C798 H760 0.930 . S
C798 C766 1.423 . S
C798 C797 1.351 . S
C799 O783 1.276 . S
C799 O786 1.235 . S
C800 C801 1.393 1_655 S
C800 C804 1.395 . S
C800 C807 1.492 . S
C801 C800 1.393 1_455 S
C801 C802 1.392 . S
C801 H812 0.930 . S
C802 C801 1.392 . S
C802 C803 1.386 1_455 S
C803 C802 1.386 1_655 S
C803 C805 1.395 . S
C803 H813 0.930 . S
C804 C800 1.395 . S
C804 C805 1.379 . S
C804 H814 0.930 . S
C805 C803 1.395 . S
C805 C804 1.379 . S
C805 H815 0.930 . S
C806 O784 1.265 . S
C806 O785 1.254 . S
C807 Eu743 2.848 . S
C807 O782 1.257 . S
C807 O787 1.249 . S
C807 C800 1.492 . S
H808 C791 0.930 . S
H809 C792 0.930 . S
H810 C793 0.930 . S
H811 C794 0.930 . S
H812 C801 0.930 . S
H813 C803 0.930 . S
H814 C804 0.930 . S
H815 C805 0.930 . S
Eu816 N847 2.657 . S
Eu816 N854 2.609 . S
Eu816 O860 2.558 . S
Eu816 O861 2.612 . S
Eu816 O863 2.339 . S
Eu816 O864 2.563 . S
Eu816 O865 2.419 . S
Eu816 O867 2.390 . S
Eu816 O868 2.432 . S
Eu816 C880 2.848 . S
C817 C820 1.429 . S
C817 C821 1.411 . S
C817 N824 1.377 . S
C818 C820 1.420 . S
C818 C822 1.423 . S
C818 C830 1.392 . S
C819 C821 1.420 . S
C819 C822 1.351 . S
C819 H842 0.931 . S
C820 C817 1.429 . S
C820 C818 1.420 . S
C820 N828 1.362 . S
C821 C817 1.411 . S
C821 C819 1.420 . S
C821 C826 1.395 . S
C822 C818 1.423 . S
C822 C819 1.351 . S
C822 H834 0.930 . S
C823 C825 1.400 . S
C823 C826 1.386 . S
C823 H835 0.930 . S
N824 C817 1.377 . S
N824 C825 1.321 . S
N824 Eu827 2.609 . S
C825 C823 1.400 . S
C825 N824 1.321 . S
C825 H832 0.930 . S
C826 C821 1.395 . S
C826 C823 1.386 . S
C826 H845 0.930 . S
Eu827 N824 2.609 . S
Eu827 N828 2.657 . S
Eu827 O861 2.380 1_556 S
Eu827 O862 2.438 . S
Eu827 O866 2.558 . S
Eu827 O867 2.607 1_556 S
Eu827 O869 2.339 . S
Eu827 O870 2.563 . S
Eu827 O871 2.419 . S
Eu827 C891 2.848 . S
N828 C820 1.362 . S
N828 Eu827 2.657 . S
N828 C829 1.334 . S
C829 N828 1.334 . S
C829 C831 1.413 . S
C829 H836 0.929 . S
C830 C818 1.392 . S
C830 C831 1.367 . S
C830 H838 0.930 . S
C831 C829 1.413 . S
C831 C830 1.367 . S
C831 H833 0.930 . S
H832 C825 0.930 . S
H833 C831 0.930 . S
H834 C822 0.930 . S
H835 C823 0.930 . S
H836 C829 0.929 . S
H837 C851 0.930 . S
H838 C830 0.930 . S
H839 C857 0.930 . S
H840 C848 0.929 . S
H841 C855 0.930 . S
H842 C819 0.931 . S
H843 C849 0.930 . S
H844 C882 0.930 . S
H845 C826 0.930 . S
H846 C881 0.931 . S
N847 Eu816 2.657 . S
N847 C848 1.334 . S
N847 C852 1.362 . S
C848 H840 0.929 . S
C848 N847 1.334 . S
C848 C851 1.413 . S
C849 H843 0.930 . S
C849 C850 1.392 . S
C849 C851 1.367 . S
C850 C849 1.392 . S
C850 C852 1.420 . S
C850 C882 1.423 . S
C851 H837 0.930 . S
C851 C848 1.413 . S
C851 C849 1.367 . S
C852 N847 1.362 . S
C852 C850 1.420 . S
C852 C856 1.429 . S
H853 C858 0.930 . S
N854 Eu816 2.609 . S
N854 C856 1.377 . S
N854 C857 1.321 . S
C855 H841 0.930 . S
C855 C857 1.400 . S
C855 C858 1.386 . S
C856 C852 1.429 . S
C856 N854 1.377 . S
C856 C859 1.411 . S
C857 H839 0.930 . S
C857 N854 1.321 . S
C857 C855 1.400 . S
C858 H853 0.930 . S
C858 C855 1.386 . S
C858 C859 1.395 . S
C859 C856 1.411 . S
C859 C858 1.395 . S
C859 C881 1.420 . S
O860 Eu816 2.558 . S
O860 C880 1.257 . S
O861 Eu816 2.612 . S
O861 Eu827 2.380 1_554 S
O861 C872 1.276 . S
O862 Eu827 2.438 . S
O862 C879 1.253 1_556 S
O863 Eu816 2.339 . S
O863 C879 1.254 . S
O864 Eu816 2.563 . S
O864 C872 1.235 . S
O865 Eu816 2.419 . S
O865 C880 1.249 . S
O866 Eu827 2.558 . S
O866 C891 1.257 . S
O867 Eu816 2.390 . S
O867 Eu827 2.607 1_554 S
O867 C883 1.268 1_554 S
O868 Eu816 2.432 . S
O868 C890 1.264 1_554 S
O869 Eu827 2.339 . S
O869 C890 1.254 . S
O870 Eu827 2.563 . S
O870 C883 1.235 . S
O871 Eu827 2.419 . S
O871 C891 1.249 . S
C872 O861 1.276 . S
C872 O864 1.235 . S
C873 C875 1.393 . S
C873 C877 1.395 . S
C873 C880 1.492 . S
C874 C875 1.392 . S
C874 C876 1.386 . S
C875 C873 1.393 . S
C875 C874 1.392 . S
C875 H892 0.930 . S
C876 C874 1.386 . S
C876 C878 1.395 . S
C876 H893 0.930 . S
C877 C873 1.395 . S
C877 C878 1.379 . S
C877 H894 0.930 . S
C878 C876 1.395 . S
C878 C877 1.379 . S
C878 H895 0.930 . S
C879 O862 1.253 1_554 S
C879 O863 1.254 . S
C880 Eu816 2.848 . S
C880 O860 1.257 . S
C880 O865 1.249 . S
C880 C873 1.492 . S
C881 H846 0.931 . S
C881 C859 1.420 . S
C881 C882 1.351 . S
C882 H844 0.930 . S
C882 C850 1.423 . S
C882 C881 1.351 . S
C883 O867 1.268 1_556 S
C883 O870 1.235 . S
C884 C885 1.393 . S
C884 C888 1.395 . S
C884 C891 1.492 . S
C885 C884 1.393 . S
C885 C886 1.392 . S
C885 H896 0.930 . S
C886 C885 1.392 . S
C886 C887 1.386 . S
C887 C886 1.386 . S
C887 C889 1.395 . S
C887 H897 0.930 . S
C888 C884 1.395 . S
C888 C889 1.379 . S
C888 H898 0.930 . S
C889 C887 1.395 . S
C889 C888 1.379 . S
C889 H899 0.930 . S
C890 O868 1.264 1_556 S
C890 O869 1.254 . S
C891 Eu827 2.848 . S
C891 O866 1.257 . S
C891 O871 1.249 . S
C891 C884 1.492 . S
H892 C875 0.930 . S
H893 C876 0.930 . S
H894 C877 0.930 . S
H895 C878 0.930 . S
H896 C885 0.930 . S
H897 C887 0.930 . S
H898 C888 0.930 . S
H899 C889 0.930 . S
Eu900 N931 2.657 . S
Eu900 N938 2.609 . S
Eu900 O944 2.558 . S
Eu900 O945 2.612 . S
Eu900 O947 2.339 . S
Eu900 O948 2.563 . S
Eu900 O949 2.419 . S
Eu900 O951 2.380 . S
Eu900 O952 2.432 . S
Eu900 C964 2.848 . S
C901 C904 1.429 . S
C901 C905 1.411 . S
C901 N908 1.377 . S
C902 C904 1.420 . S
C902 C906 1.423 . S
C902 C914 1.392 . S
C903 C905 1.420 . S
C903 C906 1.351 . S
C903 H926 0.931 . S
C904 C901 1.429 . S
C904 C902 1.420 . S
C904 N912 1.362 . S
C905 C901 1.411 . S
C905 C903 1.420 . S
C905 C910 1.395 . S
C906 C902 1.423 . S
C906 C903 1.351 . S
C906 H918 0.930 . S
C907 C909 1.400 . S
C907 C910 1.386 . S
C907 H919 0.930 . S
N908 C901 1.377 . S
N908 C909 1.321 . S
N908 Eu911 2.609 . S
C909 C907 1.400 . S
C909 N908 1.321 . S
C909 H916 0.930 . S
C910 C905 1.395 . S
C910 C907 1.386 . S
C910 H929 0.930 . S
Eu911 N908 2.609 . S
Eu911 N912 2.657 . S
Eu911 O945 2.380 . S
Eu911 O946 2.432 . S
Eu911 O950 2.558 . S
Eu911 O951 2.612 . S
Eu911 O953 2.339 . S
Eu911 O954 2.563 . S
Eu911 O955 2.419 . S
Eu911 C975 2.848 . S
N912 C904 1.362 . S
N912 Eu911 2.657 . S
N912 C913 1.334 . S
C913 N912 1.334 . S
C913 C915 1.413 . S
C913 H920 0.929 . S
C914 C902 1.392 . S
C914 C915 1.367 . S
C914 H922 0.930 . S
C915 C913 1.413 . S
C915 C914 1.367 . S
C915 H917 0.930 . S
H916 C909 0.930 . S
H917 C915 0.930 . S
H918 C906 0.930 . S
H919 C907 0.930 . S
H920 C913 0.929 . S
H921 C935 0.930 . S
H922 C914 0.930 . S
H923 C941 0.930 . S
H924 C932 0.929 . S
H925 C939 0.930 . S
H926 C903 0.931 . S
H927 C933 0.930 . S
H928 C966 0.930 . S
H929 C910 0.930 . S
H930 C965 0.931 . S
N931 Eu900 2.657 . S
N931 C932 1.334 . S
N931 C936 1.362 . S
C932 H924 0.929 . S
C932 N931 1.334 . S
C932 C935 1.413 . S
C933 H927 0.930 . S
C933 C934 1.392 . S
C933 C935 1.367 . S
C934 C933 1.392 . S
C934 C936 1.420 . S
C934 C966 1.423 . S
C935 H921 0.930 . S
C935 C932 1.413 . S
C935 C933 1.367 . S
C936 N931 1.362 . S
C936 C934 1.420 . S
C936 C940 1.429 . S
H937 C942 0.930 . S
N938 Eu900 2.609 . S
N938 C940 1.377 . S
N938 C941 1.321 . S
C939 H925 0.930 . S
C939 C941 1.400 . S
C939 C942 1.386 . S
C940 C936 1.429 . S
C940 N938 1.377 . S
C940 C943 1.411 . S
C941 H923 0.930 . S
C941 N938 1.321 . S
C941 C939 1.400 . S
C942 H937 0.930 . S
C942 C939 1.386 . S
C942 C943 1.395 . S
C943 C940 1.411 . S
C943 C942 1.395 . S
C943 C965 1.420 . S
O944 Eu900 2.558 . S
O944 C964 1.257 . S
O945 Eu900 2.612 . S
O945 Eu911 2.380 . S
O945 C956 1.276 . S
O946 Eu911 2.432 . S
O946 C963 1.264 . S
O947 Eu900 2.339 . S
O947 C963 1.254 . S
O948 Eu900 2.563 . S
O948 C956 1.235 . S
O949 Eu900 2.419 . S
O949 C964 1.249 . S
O950 Eu911 2.558 . S
O950 C975 1.257 . S
O951 Eu900 2.380 . S
O951 Eu911 2.612 . S
O951 C967 1.276 . S
O952 Eu900 2.432 . S
O952 C974 1.264 . S
O953 Eu911 2.339 . S
O953 C974 1.254 . S
O954 Eu911 2.563 . S
O954 C967 1.235 . S
O955 Eu911 2.419 . S
O955 C975 1.249 . S
C956 O945 1.276 . S
C956 O948 1.235 . S
C957 C959 1.393 . S
C957 C961 1.395 . S
C957 C964 1.492 . S
C958 C959 1.392 . S
C958 C960 1.386 . S
C959 C957 1.393 . S
C959 C958 1.392 . S
C959 H976 0.930 . S
C960 C958 1.386 . S
C960 C962 1.395 . S
C960 H977 0.930 . S
C961 C957 1.395 . S
C961 C962 1.379 . S
C961 H978 0.930 . S
C962 C960 1.395 . S
C962 C961 1.379 . S
C962 H979 0.930 . S
C963 O946 1.264 . S
C963 O947 1.254 . S
C964 Eu900 2.848 . S
C964 O944 1.257 . S
C964 O949 1.249 . S
C964 C957 1.492 . S
C965 H930 0.931 . S
C965 C943 1.420 . S
C965 C966 1.351 . S
C966 H928 0.930 . S
C966 C934 1.423 . S
C966 C965 1.351 . S
C967 O951 1.276 . S
C967 O954 1.235 . S
C968 C969 1.393 . S
C968 C972 1.395 . S
C968 C975 1.492 . S
C969 C968 1.393 . S
C969 C970 1.392 . S
C969 H980 0.930 . S
C970 C969 1.392 . S
C970 C971 1.386 . S
C971 C970 1.386 . S
C971 C973 1.395 . S
C971 H981 0.930 . S
C972 C968 1.395 . S
C972 C973 1.379 . S
C972 H982 0.930 . S
C973 C971 1.395 . S
C973 C972 1.379 . S
C973 H983 0.930 . S
C974 O952 1.264 . S
C974 O953 1.254 . S
C975 Eu911 2.848 . S
C975 O950 1.257 . S
C975 O955 1.249 . S
C975 C968 1.492 . S
H976 C959 0.930 . S
H977 C960 0.930 . S
H978 C961 0.930 . S
H979 C962 0.930 . S
H980 C969 0.930 . S
H981 C971 0.930 . S
H982 C972 0.930 . S
H983 C973 0.930 . S
Eu984 N1015 2.657 . S
Eu984 N1022 2.609 . S
Eu984 O1028 2.558 . S
Eu984 O1029 2.612 . S
Eu984 O1031 2.339 . S
Eu984 O1032 2.563 . S
Eu984 O1033 2.419 . S
Eu984 O1035 2.380 . S
Eu984 O1036 2.432 . S
Eu984 C1048 2.848 . S
C985 C988 1.429 . S
C985 C989 1.411 . S
C985 N992 1.377 . S
C986 C988 1.420 . S
C986 C990 1.423 . S
C986 C998 1.392 . S
C987 C989 1.420 . S
C987 C990 1.351 . S
C987 H1010 0.931 . S
C988 C985 1.429 . S
C988 C986 1.420 . S
C988 N996 1.362 . S
C989 C985 1.411 . S
C989 C987 1.420 . S
C989 C994 1.395 . S
C990 C986 1.423 . S
C990 C987 1.351 . S
C990 H1002 0.930 . S
C991 C993 1.400 . S
C991 C994 1.386 . S
C991 H1003 0.930 . S
N992 C985 1.377 . S
N992 C993 1.321 . S
N992 Eu995 2.609 . S
C993 C991 1.400 . S
C993 N992 1.321 . S
C993 H1000 0.930 . S
C994 C989 1.395 . S
C994 C991 1.386 . S
C994 H1013 0.930 . S
Eu995 N992 2.609 . S
Eu995 N996 2.657 . S
Eu995 O1029 2.380 . S
Eu995 O1030 2.432 . S
Eu995 O1034 2.558 . S
Eu995 O1035 2.612 . S
Eu995 O1037 2.339 . S
Eu995 O1038 2.563 . S
Eu995 O1039 2.419 . S
Eu995 C1059 2.848 . S
N996 C988 1.362 . S
N996 Eu995 2.657 . S
N996 C997 1.334 . S
C997 N996 1.334 . S
C997 C999 1.413 . S
C997 H1004 0.929 . S
C998 C986 1.392 . S
C998 C999 1.367 . S
C998 H1006 0.930 . S
C999 C997 1.413 . S
C999 C998 1.367 . S
C999 H1001 0.930 . S
H1000 C993 0.930 . S
H1001 C999 0.930 . S
H1002 C990 0.930 . S
H1003 C991 0.930 . S
H1004 C997 0.929 . S
H1005 C1019 0.930 . S
H1006 C998 0.930 . S
H1007 C1025 0.930 . S
H1008 C1016 0.929 . S
H1009 C1023 0.930 . S
H1010 C987 0.931 . S
H1011 C1017 0.930 . S
H1012 C1050 0.930 . S
H1013 C994 0.930 . S
H1014 C1049 0.931 . S
N1015 Eu984 2.657 . S
N1015 C1016 1.334 . S
N1015 C1020 1.362 . S
C1016 H1008 0.929 . S
C1016 N1015 1.334 . S
C1016 C1019 1.413 . S
C1017 H1011 0.930 . S
C1017 C1018 1.392 . S
C1017 C1019 1.367 . S
C1018 C1017 1.392 . S
C1018 C1020 1.420 . S
C1018 C1050 1.423 . S
C1019 H1005 0.930 . S
C1019 C1016 1.413 . S
C1019 C1017 1.367 . S
C1020 N1015 1.362 . S
C1020 C1018 1.420 . S
C1020 C1024 1.429 . S
H1021 C1026 0.930 . S
N1022 Eu984 2.609 . S
N1022 C1024 1.377 . S
N1022 C1025 1.321 . S
C1023 H1009 0.930 . S
C1023 C1025 1.400 . S
C1023 C1026 1.386 . S
C1024 C1020 1.429 . S
C1024 N1022 1.377 . S
C1024 C1027 1.411 . S
C1025 H1007 0.930 . S
C1025 N1022 1.321 . S
C1025 C1023 1.400 . S
C1026 H1021 0.930 . S
C1026 C1023 1.386 . S
C1026 C1027 1.395 . S
C1027 C1024 1.411 . S
C1027 C1026 1.395 . S
C1027 C1049 1.420 . S
O1028 Eu984 2.558 . S
O1028 C1048 1.257 . S
O1029 Eu984 2.612 . S
O1029 Eu995 2.380 . S
O1029 C1040 1.276 . S
O1030 Eu995 2.432 . S
O1030 C1047 1.264 . S
O1031 Eu984 2.339 . S
O1031 C1047 1.254 . S
O1032 Eu984 2.563 . S
O1032 C1040 1.235 . S
O1033 Eu984 2.419 . S
O1033 C1048 1.249 . S
O1034 Eu995 2.558 . S
O1034 C1059 1.257 . S
O1035 Eu984 2.380 . S
O1035 Eu995 2.612 . S
O1035 C1051 1.276 . S
O1036 Eu984 2.432 . S
O1036 C1058 1.264 . S
O1037 Eu995 2.339 . S
O1037 C1058 1.254 . S
O1038 Eu995 2.563 . S
O1038 C1051 1.235 . S
O1039 Eu995 2.419 . S
O1039 C1059 1.249 . S
C1040 O1029 1.276 . S
C1040 O1032 1.235 . S
C1041 C1043 1.393 . S
C1041 C1045 1.395 . S
C1041 C1048 1.492 . S
C1042 C1043 1.392 . S
C1042 C1044 1.386 . S
C1043 C1041 1.393 . S
C1043 C1042 1.392 . S
C1043 H1060 0.930 . S
C1044 C1042 1.386 . S
C1044 C1046 1.395 . S
C1044 H1061 0.930 . S
C1045 C1041 1.395 . S
C1045 C1046 1.379 . S
C1045 H1062 0.930 . S
C1046 C1044 1.395 . S
C1046 C1045 1.379 . S
C1046 H1063 0.930 . S
C1047 O1030 1.264 . S
C1047 O1031 1.254 . S
C1048 Eu984 2.848 . S
C1048 O1028 1.257 . S
C1048 O1033 1.249 . S
C1048 C1041 1.492 . S
C1049 H1014 0.931 . S
C1049 C1027 1.420 . S
C1049 C1050 1.351 . S
C1050 H1012 0.930 . S
C1050 C1018 1.423 . S
C1050 C1049 1.351 . S
C1051 O1035 1.276 . S
C1051 O1038 1.235 . S
C1052 C1053 1.393 . S
C1052 C1056 1.395 . S
C1052 C1059 1.492 . S
C1053 C1052 1.393 . S
C1053 C1054 1.392 . S
C1053 H1064 0.930 . S
C1054 C1053 1.392 . S
C1054 C1055 1.386 . S
C1055 C1054 1.386 . S
C1055 C1057 1.395 . S
C1055 H1065 0.930 . S
C1056 C1052 1.395 . S
C1056 C1057 1.379 . S
C1056 H1066 0.930 . S
C1057 C1055 1.395 . S
C1057 C1056 1.379 . S
C1057 H1067 0.930 . S
C1058 O1036 1.264 . S
C1058 O1037 1.254 . S
C1059 Eu995 2.848 . S
C1059 O1034 1.257 . S
C1059 O1039 1.249 . S
C1059 C1052 1.492 . S
H1060 C1043 0.930 . S
H1061 C1044 0.930 . S
H1062 C1045 0.930 . S
H1063 C1046 0.930 . S
H1064 C1053 0.930 . S
H1065 C1055 0.930 . S
H1066 C1056 0.930 . S
H1067 C1057 0.930 . S
Eu1068 N1099 2.657 . S
Eu1068 N1106 2.609 . S
Eu1068 O1112 2.558 . S
Eu1068 O1113 2.612 . S
Eu1068 O1115 2.339 . S
Eu1068 O1116 2.563 . S
Eu1068 O1117 2.419 . S
Eu1068 O1119 2.380 . S
Eu1068 O1120 2.432 . S
Eu1068 C1132 2.848 . S
C1069 C1072 1.429 . S
C1069 C1073 1.411 . S
C1069 N1076 1.377 . S
C1070 C1072 1.420 . S
C1070 C1074 1.423 . S
C1070 C1082 1.392 . S
C1071 C1073 1.420 . S
C1071 C1074 1.351 . S
C1071 H1094 0.931 . S
C1072 C1069 1.429 . S
C1072 C1070 1.420 . S
C1072 N1080 1.362 . S
C1073 C1069 1.411 . S
C1073 C1071 1.420 . S
C1073 C1078 1.395 . S
C1074 C1070 1.423 . S
C1074 C1071 1.351 . S
C1074 H1086 0.930 . S
C1075 C1077 1.400 . S
C1075 C1078 1.386 . S
C1075 H1087 0.930 . S
N1076 C1069 1.377 . S
N1076 C1077 1.321 . S
N1076 Eu1079 2.609 . S
C1077 C1075 1.400 . S
C1077 N1076 1.321 . S
C1077 H1084 0.930 . S
C1078 C1073 1.395 . S
C1078 C1075 1.386 . S
C1078 H1097 0.930 . S
Eu1079 N1076 2.609 . S
Eu1079 N1080 2.657 . S
Eu1079 O1113 2.380 . S
Eu1079 O1114 2.432 . S
Eu1079 O1118 2.558 . S
Eu1079 O1119 2.612 . S
Eu1079 O1121 2.339 . S
Eu1079 O1122 2.563 . S
Eu1079 O1123 2.419 . S
Eu1079 C1143 2.848 . S
N1080 C1072 1.362 . S
N1080 Eu1079 2.657 . S
N1080 C1081 1.334 . S
C1081 N1080 1.334 . S
C1081 C1083 1.413 . S
C1081 H1088 0.929 . S
C1082 C1070 1.392 . S
C1082 C1083 1.367 . S
C1082 H1090 0.930 . S
C1083 C1081 1.413 . S
C1083 C1082 1.367 . S
C1083 H1085 0.930 . S
H1084 C1077 0.930 . S
H1085 C1083 0.930 . S
H1086 C1074 0.930 . S
H1087 C1075 0.930 . S
H1088 C1081 0.929 . S
H1089 C1103 0.930 . S
H1090 C1082 0.930 . S
H1091 C1109 0.930 . S
H1092 C1100 0.929 . S
H1093 C1107 0.930 . S
H1094 C1071 0.931 . S
H1095 C1101 0.930 . S
H1096 C1134 0.930 . S
H1097 C1078 0.930 . S
H1098 C1133 0.931 . S
N1099 Eu1068 2.657 . S
N1099 C1100 1.334 . S
N1099 C1104 1.362 . S
C1100 H1092 0.929 . S
C1100 N1099 1.334 . S
C1100 C1103 1.413 . S
C1101 H1095 0.930 . S
C1101 C1102 1.392 . S
C1101 C1103 1.367 . S
C1102 C1101 1.392 . S
C1102 C1104 1.420 . S
C1102 C1134 1.423 . S
C1103 H1089 0.930 . S
C1103 C1100 1.413 . S
C1103 C1101 1.367 . S
C1104 N1099 1.362 . S
C1104 C1102 1.420 . S
C1104 C1108 1.429 . S
H1105 C1110 0.930 . S
N1106 Eu1068 2.609 . S
N1106 C1108 1.377 . S
N1106 C1109 1.321 . S
C1107 H1093 0.930 . S
C1107 C1109 1.400 . S
C1107 C1110 1.386 . S
C1108 C1104 1.429 . S
C1108 N1106 1.377 . S
C1108 C1111 1.411 . S
C1109 H1091 0.930 . S
C1109 N1106 1.321 . S
C1109 C1107 1.400 . S
C1110 H1105 0.930 . S
C1110 C1107 1.386 . S
C1110 C1111 1.395 . S
C1111 C1108 1.411 . S
C1111 C1110 1.395 . S
C1111 C1133 1.420 . S
O1112 Eu1068 2.558 . S
O1112 C1132 1.257 . S
O1113 Eu1068 2.612 . S
O1113 Eu1079 2.380 . S
O1113 C1124 1.276 . S
O1114 Eu1079 2.432 . S
O1114 C1131 1.264 . S
O1115 Eu1068 2.339 . S
O1115 C1131 1.254 . S
O1116 Eu1068 2.563 . S
O1116 C1124 1.235 . S
O1117 Eu1068 2.419 . S
O1117 C1132 1.249 . S
O1118 Eu1079 2.558 . S
O1118 C1143 1.257 . S
O1119 Eu1068 2.380 . S
O1119 Eu1079 2.612 . S
O1119 C1135 1.276 . S
O1120 Eu1068 2.432 . S
O1120 C1142 1.264 . S
O1121 Eu1079 2.339 . S
O1121 C1142 1.254 . S
O1122 Eu1079 2.563 . S
O1122 C1135 1.235 . S
O1123 Eu1079 2.419 . S
O1123 C1143 1.249 . S
C1124 O1113 1.276 . S
C1124 O1116 1.235 . S
C1125 C1127 1.393 . S
C1125 C1129 1.395 . S
C1125 C1132 1.492 . S
C1126 C1127 1.392 . S
C1126 C1128 1.386 . S
C1127 C1125 1.393 . S
C1127 C1126 1.392 . S
C1127 H1144 0.930 . S
C1128 C1126 1.386 . S
C1128 C1130 1.395 . S
C1128 H1145 0.930 . S
C1129 C1125 1.395 . S
C1129 C1130 1.379 . S
C1129 H1146 0.930 . S
C1130 C1128 1.395 . S
C1130 C1129 1.379 . S
C1130 H1147 0.930 . S
C1131 O1114 1.264 . S
C1131 O1115 1.254 . S
C1132 Eu1068 2.848 . S
C1132 O1112 1.257 . S
C1132 O1117 1.249 . S
C1132 C1125 1.492 . S
C1133 H1098 0.931 . S
C1133 C1111 1.420 . S
C1133 C1134 1.351 . S
C1134 H1096 0.930 . S
C1134 C1102 1.423 . S
C1134 C1133 1.351 . S
C1135 O1119 1.276 . S
C1135 O1122 1.235 . S
C1136 C1137 1.393 . S
C1136 C1140 1.395 . S
C1136 C1143 1.492 . S
C1137 C1136 1.393 . S
C1137 C1138 1.392 . S
C1137 H1148 0.930 . S
C1138 C1137 1.392 . S
C1138 C1139 1.386 . S
C1139 C1138 1.386 . S
C1139 C1141 1.395 . S
C1139 H1149 0.930 . S
C1140 C1136 1.395 . S
C1140 C1141 1.379 . S
C1140 H1150 0.930 . S
C1141 C1139 1.395 . S
C1141 C1140 1.379 . S
C1141 H1151 0.930 . S
C1142 O1120 1.264 . S
C1142 O1121 1.254 . S
C1143 Eu1079 2.848 . S
C1143 O1118 1.257 . S
C1143 O1123 1.249 . S
C1143 C1136 1.492 . S
H1144 C1127 0.930 . S
H1145 C1128 0.930 . S
H1146 C1129 0.930 . S
H1147 C1130 0.930 . S
H1148 C1137 0.930 . S
H1149 C1139 0.930 . S
H1150 C1140 0.930 . S
H1151 C1141 0.930 . S
Eu1152 N1183 2.657 . S
Eu1152 N1190 2.609 . S
Eu1152 O1196 2.558 . S
Eu1152 O1197 2.612 . S
Eu1152 O1199 2.339 . S
Eu1152 O1200 2.563 . S
Eu1152 O1201 2.419 . S
Eu1152 O1203 2.380 . S
Eu1152 O1204 2.432 . S
Eu1152 C1216 2.848 . S
C1153 C1156 1.429 . S
C1153 C1157 1.411 . S
C1153 N1160 1.377 . S
C1154 C1156 1.420 . S
C1154 C1158 1.423 . S
C1154 C1166 1.392 . S
C1155 C1157 1.420 . S
C1155 C1158 1.351 . S
C1155 H1178 0.931 . S
C1156 C1153 1.429 . S
C1156 C1154 1.420 . S
C1156 N1164 1.362 . S
C1157 C1153 1.411 . S
C1157 C1155 1.420 . S
C1157 C1162 1.395 . S
C1158 C1154 1.423 . S
C1158 C1155 1.351 . S
C1158 H1170 0.930 . S
C1159 C1161 1.400 . S
C1159 C1162 1.386 . S
C1159 H1171 0.930 . S
N1160 C1153 1.377 . S
N1160 C1161 1.321 . S
N1160 Eu1163 2.609 . S
C1161 C1159 1.400 . S
C1161 N1160 1.321 . S
C1161 H1168 0.930 . S
C1162 C1157 1.395 . S
C1162 C1159 1.386 . S
C1162 H1181 0.930 . S
Eu1163 N1160 2.609 . S
Eu1163 N1164 2.657 . S
Eu1163 O1197 2.380 . S
Eu1163 O1198 2.432 . S
Eu1163 O1202 2.558 . S
Eu1163 O1203 2.612 . S
Eu1163 O1205 2.339 . S
Eu1163 O1206 2.563 . S
Eu1163 O1207 2.419 . S
Eu1163 C1227 2.848 . S
N1164 C1156 1.362 . S
N1164 Eu1163 2.657 . S
N1164 C1165 1.334 . S
C1165 N1164 1.334 . S
C1165 C1167 1.413 . S
C1165 H1172 0.929 . S
C1166 C1154 1.392 . S
C1166 C1167 1.367 . S
C1166 H1174 0.930 . S
C1167 C1165 1.413 . S
C1167 C1166 1.367 . S
C1167 H1169 0.930 . S
H1168 C1161 0.930 . S
H1169 C1167 0.930 . S
H1170 C1158 0.930 . S
H1171 C1159 0.930 . S
H1172 C1165 0.929 . S
H1173 C1187 0.930 . S
H1174 C1166 0.930 . S
H1175 C1193 0.930 . S
H1176 C1184 0.929 . S
H1177 C1191 0.930 . S
H1178 C1155 0.931 . S
H1179 C1185 0.930 . S
H1180 C1218 0.930 . S
H1181 C1162 0.930 . S
H1182 C1217 0.931 . S
N1183 Eu1152 2.657 . S
N1183 C1184 1.334 . S
N1183 C1188 1.362 . S
C1184 H1176 0.929 . S
C1184 N1183 1.334 . S
C1184 C1187 1.413 . S
C1185 H1179 0.930 . S
C1185 C1186 1.392 . S
C1185 C1187 1.367 . S
C1186 C1185 1.392 . S
C1186 C1188 1.420 . S
C1186 C1218 1.423 . S
C1187 H1173 0.930 . S
C1187 C1184 1.413 . S
C1187 C1185 1.367 . S
C1188 N1183 1.362 . S
C1188 C1186 1.420 . S
C1188 C1192 1.429 . S
H1189 C1194 0.930 . S
N1190 Eu1152 2.609 . S
N1190 C1192 1.377 . S
N1190 C1193 1.321 . S
C1191 H1177 0.930 . S
C1191 C1193 1.400 . S
C1191 C1194 1.386 . S
C1192 C1188 1.429 . S
C1192 N1190 1.377 . S
C1192 C1195 1.411 . S
C1193 H1175 0.930 . S
C1193 N1190 1.321 . S
C1193 C1191 1.400 . S
C1194 H1189 0.930 . S
C1194 C1191 1.386 . S
C1194 C1195 1.395 . S
C1195 C1192 1.411 . S
C1195 C1194 1.395 . S
C1195 C1217 1.420 . S
O1196 Eu1152 2.558 . S
O1196 C1216 1.257 . S
O1197 Eu1152 2.612 . S
O1197 Eu1163 2.380 . S
O1197 C1208 1.276 . S
O1198 Eu1163 2.432 . S
O1198 C1215 1.264 . S
O1199 Eu1152 2.339 . S
O1199 C1215 1.254 . S
O1200 Eu1152 2.563 . S
O1200 C1208 1.235 . S
O1201 Eu1152 2.419 . S
O1201 C1216 1.249 . S
O1202 Eu1163 2.558 . S
O1202 C1227 1.257 . S
O1203 Eu1152 2.380 . S
O1203 Eu1163 2.612 . S
O1203 C1219 1.276 . S
O1204 Eu1152 2.432 . S
O1204 C1226 1.264 . S
O1205 Eu1163 2.339 . S
O1205 C1226 1.254 . S
O1206 Eu1163 2.563 . S
O1206 C1219 1.235 . S
O1207 Eu1163 2.419 . S
O1207 C1227 1.249 . S
C1208 O1197 1.276 . S
C1208 O1200 1.235 . S
C1209 C1211 1.393 . S
C1209 C1213 1.395 . S
C1209 C1216 1.492 . S
C1210 C1211 1.392 . S
C1210 C1212 1.386 . S
C1211 C1209 1.393 . S
C1211 C1210 1.392 . S
C1211 H1228 0.930 . S
C1212 C1210 1.386 . S
C1212 C1214 1.395 . S
C1212 H1229 0.930 . S
C1213 C1209 1.395 . S
C1213 C1214 1.379 . S
C1213 H1230 0.930 . S
C1214 C1212 1.395 . S
C1214 C1213 1.379 . S
C1214 H1231 0.930 . S
C1215 O1198 1.264 . S
C1215 O1199 1.254 . S
C1216 Eu1152 2.848 . S
C1216 O1196 1.257 . S
C1216 O1201 1.249 . S
C1216 C1209 1.492 . S
C1217 H1182 0.931 . S
C1217 C1195 1.420 . S
C1217 C1218 1.351 . S
C1218 H1180 0.930 . S
C1218 C1186 1.423 . S
C1218 C1217 1.351 . S
C1219 O1203 1.276 . S
C1219 O1206 1.235 . S
C1220 C1221 1.393 . S
C1220 C1224 1.395 . S
C1220 C1227 1.492 . S
C1221 C1220 1.393 . S
C1221 C1222 1.392 . S
C1221 H1232 0.930 . S
C1222 C1221 1.392 . S
C1222 C1223 1.386 . S
C1223 C1222 1.386 . S
C1223 C1225 1.395 . S
C1223 H1233 0.930 . S
C1224 C1220 1.395 . S
C1224 C1225 1.379 . S
C1224 H1234 0.930 . S
C1225 C1223 1.395 . S
C1225 C1224 1.379 . S
C1225 H1235 0.930 . S
C1226 O1204 1.264 . S
C1226 O1205 1.254 . S
C1227 Eu1163 2.848 . S
C1227 O1202 1.257 . S
C1227 O1207 1.249 . S
C1227 C1220 1.492 . S
H1228 C1211 0.930 . S
H1229 C1212 0.930 . S
H1230 C1213 0.930 . S
H1231 C1214 0.930 . S
H1232 C1221 0.930 . S
H1233 C1223 0.930 . S
H1234 C1224 0.930 . S
H1235 C1225 0.930 . S
Eu1236 N1267 2.657 . S
Eu1236 N1274 2.609 . S
Eu1236 O1280 2.558 . S
Eu1236 O1281 2.612 . S
Eu1236 O1283 2.339 . S
Eu1236 O1284 2.563 . S
Eu1236 O1285 2.419 . S
Eu1236 O1287 2.380 . S
Eu1236 O1288 2.432 . S
Eu1236 C1300 2.848 . S
C1237 C1240 1.429 . S
C1237 C1241 1.411 . S
C1237 N1244 1.377 . S
C1238 C1240 1.420 . S
C1238 C1242 1.423 . S
C1238 C1250 1.392 . S
C1239 C1241 1.420 . S
C1239 C1242 1.351 . S
C1239 H1262 0.931 . S
C1240 C1237 1.429 . S
C1240 C1238 1.420 . S
C1240 N1248 1.362 . S
C1241 C1237 1.411 . S
C1241 C1239 1.420 . S
C1241 C1246 1.395 . S
C1242 C1238 1.423 . S
C1242 C1239 1.351 . S
C1242 H1254 0.930 . S
C1243 C1245 1.400 . S
C1243 C1246 1.386 . S
C1243 H1255 0.930 . S
N1244 C1237 1.377 . S
N1244 C1245 1.321 . S
N1244 Eu1247 2.609 . S
C1245 C1243 1.400 . S
C1245 N1244 1.321 . S
C1245 H1252 0.930 . S
C1246 C1241 1.395 . S
C1246 C1243 1.386 . S
C1246 H1265 0.930 . S
Eu1247 N1244 2.609 . S
Eu1247 N1248 2.657 . S
Eu1247 O1281 2.380 . S
Eu1247 O1282 2.432 . S
Eu1247 O1286 2.558 . S
Eu1247 O1287 2.612 . S
Eu1247 O1289 2.339 . S
Eu1247 O1290 2.563 . S
Eu1247 O1291 2.419 . S
Eu1247 C1311 2.848 . S
N1248 C1240 1.362 . S
N1248 Eu1247 2.657 . S
N1248 C1249 1.334 . S
C1249 N1248 1.334 . S
C1249 C1251 1.413 . S
C1249 H1256 0.929 . S
C1250 C1238 1.392 . S
C1250 C1251 1.367 . S
C1250 H1258 0.930 . S
C1251 C1249 1.413 . S
C1251 C1250 1.367 . S
C1251 H1253 0.930 . S
H1252 C1245 0.930 . S
H1253 C1251 0.930 . S
H1254 C1242 0.930 . S
H1255 C1243 0.930 . S
H1256 C1249 0.929 . S
H1257 C1271 0.930 . S
H1258 C1250 0.930 . S
H1259 C1277 0.930 . S
H1260 C1268 0.929 . S
H1261 C1275 0.930 . S
H1262 C1239 0.931 . S
H1263 C1269 0.930 . S
H1264 C1302 0.930 . S
H1265 C1246 0.930 . S
H1266 C1301 0.931 . S
N1267 Eu1236 2.657 . S
N1267 C1268 1.334 . S
N1267 C1272 1.362 . S
C1268 H1260 0.929 . S
C1268 N1267 1.334 . S
C1268 C1271 1.413 . S
C1269 H1263 0.930 . S
C1269 C1270 1.392 . S
C1269 C1271 1.367 . S
C1270 C1269 1.392 . S
C1270 C1272 1.420 . S
C1270 C1302 1.423 . S
C1271 H1257 0.930 . S
C1271 C1268 1.413 . S
C1271 C1269 1.367 . S
C1272 N1267 1.362 . S
C1272 C1270 1.420 . S
C1272 C1276 1.429 . S
H1273 C1278 0.930 . S
N1274 Eu1236 2.609 . S
N1274 C1276 1.377 . S
N1274 C1277 1.321 . S
C1275 H1261 0.930 . S
C1275 C1277 1.400 . S
C1275 C1278 1.386 . S
C1276 C1272 1.429 . S
C1276 N1274 1.377 . S
C1276 C1279 1.411 . S
C1277 H1259 0.930 . S
C1277 N1274 1.321 . S
C1277 C1275 1.400 . S
C1278 H1273 0.930 . S
C1278 C1275 1.386 . S
C1278 C1279 1.395 . S
C1279 C1276 1.411 . S
C1279 C1278 1.395 . S
C1279 C1301 1.420 . S
O1280 Eu1236 2.558 . S
O1280 C1300 1.257 . S
O1281 Eu1236 2.612 . S
O1281 Eu1247 2.380 . S
O1281 C1292 1.276 . S
O1282 Eu1247 2.432 . S
O1282 C1299 1.264 . S
O1283 Eu1236 2.339 . S
O1283 C1299 1.254 . S
O1284 Eu1236 2.563 . S
O1284 C1292 1.235 . S
O1285 Eu1236 2.419 . S
O1285 C1300 1.249 . S
O1286 Eu1247 2.558 . S
O1286 C1311 1.257 . S
O1287 Eu1236 2.380 . S
O1287 Eu1247 2.612 . S
O1287 C1303 1.276 . S
O1288 Eu1236 2.432 . S
O1288 C1310 1.264 . S
O1289 Eu1247 2.339 . S
O1289 C1310 1.254 . S
O1290 Eu1247 2.563 . S
O1290 C1303 1.235 . S
O1291 Eu1247 2.419 . S
O1291 C1311 1.249 . S
C1292 O1281 1.276 . S
C1292 O1284 1.235 . S
C1293 C1295 1.393 . S
C1293 C1297 1.395 . S
C1293 C1300 1.492 . S
C1294 C1295 1.392 . S
C1294 C1296 1.386 . S
C1295 C1293 1.393 . S
C1295 C1294 1.392 . S
C1295 H1312 0.930 . S
C1296 C1294 1.386 . S
C1296 C1298 1.395 . S
C1296 H1313 0.930 . S
C1297 C1293 1.395 . S
C1297 C1298 1.379 . S
C1297 H1314 0.930 . S
C1298 C1296 1.395 . S
C1298 C1297 1.379 . S
C1298 H1315 0.930 . S
C1299 O1282 1.264 . S
C1299 O1283 1.254 . S
C1300 Eu1236 2.848 . S
C1300 O1280 1.257 . S
C1300 O1285 1.249 . S
C1300 C1293 1.492 . S
C1301 H1266 0.931 . S
C1301 C1279 1.420 . S
C1301 C1302 1.351 . S
C1302 H1264 0.930 . S
C1302 C1270 1.423 . S
C1302 C1301 1.351 . S
C1303 O1287 1.276 . S
C1303 O1290 1.235 . S
C1304 C1305 1.393 . S
C1304 C1308 1.395 . S
C1304 C1311 1.492 . S
C1305 C1304 1.393 . S
C1305 C1306 1.392 . S
C1305 H1316 0.930 . S
C1306 C1305 1.392 . S
C1306 C1307 1.386 . S
C1307 C1306 1.386 . S
C1307 C1309 1.395 . S
C1307 H1317 0.930 . S
C1308 C1304 1.395 . S
C1308 C1309 1.379 . S
C1308 H1318 0.930 . S
C1309 C1307 1.395 . S
C1309 C1308 1.379 . S
C1309 H1319 0.930 . S
C1310 O1288 1.264 . S
C1310 O1289 1.254 . S
C1311 Eu1247 2.848 . S
C1311 O1286 1.257 . S
C1311 O1291 1.249 . S
C1311 C1304 1.492 . S
H1312 C1295 0.930 . S
H1313 C1296 0.930 . S
H1314 C1297 0.930 . S
H1315 C1298 0.930 . S
H1316 C1305 0.930 . S
H1317 C1307 0.930 . S
H1318 C1308 0.930 . S
H1319 C1309 0.930 . S
Eu1320 N1351 2.657 . S
Eu1320 N1358 2.609 . S
Eu1320 O1364 2.558 . S
Eu1320 O1365 2.612 . S
Eu1320 O1367 2.339 . S
Eu1320 O1368 2.563 . S
Eu1320 O1369 2.419 . S
Eu1320 O1371 2.380 . S
Eu1320 O1372 2.432 . S
Eu1320 C1384 2.848 . S
C1321 C1324 1.429 . S
C1321 C1325 1.411 . S
C1321 N1328 1.377 . S
C1322 C1324 1.420 . S
C1322 C1326 1.423 . S
C1322 C1334 1.392 . S
C1323 C1325 1.420 . S
C1323 C1326 1.351 . S
C1323 H1346 0.931 . S
C1324 C1321 1.429 . S
C1324 C1322 1.420 . S
C1324 N1332 1.362 . S
C1325 C1321 1.411 . S
C1325 C1323 1.420 . S
C1325 C1330 1.395 . S
C1326 C1322 1.423 . S
C1326 C1323 1.351 . S
C1326 H1338 0.930 . S
C1327 C1329 1.400 . S
C1327 C1330 1.386 . S
C1327 H1339 0.930 . S
N1328 C1321 1.377 . S
N1328 C1329 1.321 . S
N1328 Eu1331 2.609 . S
C1329 C1327 1.400 . S
C1329 N1328 1.321 . S
C1329 H1336 0.930 . S
C1330 C1325 1.395 . S
C1330 C1327 1.386 . S
C1330 H1349 0.930 . S
Eu1331 N1328 2.609 . S
Eu1331 N1332 2.657 . S
Eu1331 O1365 2.380 . S
Eu1331 O1366 2.432 . S
Eu1331 O1370 2.558 . S
Eu1331 O1371 2.612 . S
Eu1331 O1373 2.339 . S
Eu1331 O1374 2.563 . S
Eu1331 O1375 2.419 . S
Eu1331 C1395 2.848 . S
N1332 C1324 1.362 . S
N1332 Eu1331 2.657 . S
N1332 C1333 1.334 . S
C1333 N1332 1.334 . S
C1333 C1335 1.413 . S
C1333 H1340 0.929 . S
C1334 C1322 1.392 . S
C1334 C1335 1.367 . S
C1334 H1342 0.930 . S
C1335 C1333 1.413 . S
C1335 C1334 1.367 . S
C1335 H1337 0.930 . S
H1336 C1329 0.930 . S
H1337 C1335 0.930 . S
H1338 C1326 0.930 . S
H1339 C1327 0.930 . S
H1340 C1333 0.929 . S
H1341 C1355 0.930 . S
H1342 C1334 0.930 . S
H1343 C1361 0.930 . S
H1344 C1352 0.929 . S
H1345 C1359 0.930 . S
H1346 C1323 0.931 . S
H1347 C1353 0.930 . S
H1348 C1386 0.930 . S
H1349 C1330 0.930 . S
H1350 C1385 0.931 . S
N1351 Eu1320 2.657 . S
N1351 C1352 1.334 . S
N1351 C1356 1.362 . S
C1352 H1344 0.929 . S
C1352 N1351 1.334 . S
C1352 C1355 1.413 . S
C1353 H1347 0.930 . S
C1353 C1354 1.392 . S
C1353 C1355 1.367 . S
C1354 C1353 1.392 . S
C1354 C1356 1.420 . S
C1354 C1386 1.423 . S
C1355 H1341 0.930 . S
C1355 C1352 1.413 . S
C1355 C1353 1.367 . S
C1356 N1351 1.362 . S
C1356 C1354 1.420 . S
C1356 C1360 1.429 . S
H1357 C1362 0.930 . S
N1358 Eu1320 2.609 . S
N1358 C1360 1.377 . S
N1358 C1361 1.321 . S
C1359 H1345 0.930 . S
C1359 C1361 1.400 . S
C1359 C1362 1.386 . S
C1360 C1356 1.429 . S
C1360 N1358 1.377 . S
C1360 C1363 1.411 . S
C1361 H1343 0.930 . S
C1361 N1358 1.321 . S
C1361 C1359 1.400 . S
C1362 H1357 0.930 . S
C1362 C1359 1.386 . S
C1362 C1363 1.395 . S
C1363 C1360 1.411 . S
C1363 C1362 1.395 . S
C1363 C1385 1.420 . S
O1364 Eu1320 2.558 . S
O1364 C1384 1.257 . S
O1365 Eu1320 2.612 . S
O1365 Eu1331 2.380 . S
O1365 C1376 1.276 . S
O1366 Eu1331 2.432 . S
O1366 C1383 1.264 . S
O1367 Eu1320 2.339 . S
O1367 C1383 1.254 . S
O1368 Eu1320 2.563 . S
O1368 C1376 1.235 . S
O1369 Eu1320 2.419 . S
O1369 C1384 1.249 . S
O1370 Eu1331 2.558 . S
O1370 C1395 1.257 . S
O1371 Eu1320 2.380 . S
O1371 Eu1331 2.612 . S
O1371 C1387 1.276 . S
O1372 Eu1320 2.432 . S
O1372 C1394 1.264 . S
O1373 Eu1331 2.339 . S
O1373 C1394 1.254 . S
O1374 Eu1331 2.563 . S
O1374 C1387 1.235 . S
O1375 Eu1331 2.419 . S
O1375 C1395 1.249 . S
C1376 O1365 1.276 . S
C1376 O1368 1.235 . S
C1377 C1379 1.393 . S
C1377 C1381 1.395 . S
C1377 C1384 1.492 . S
C1378 C1379 1.392 . S
C1378 C1380 1.386 . S
C1379 C1377 1.393 . S
C1379 C1378 1.392 . S
C1379 H1396 0.930 . S
C1380 C1378 1.386 . S
C1380 C1382 1.395 . S
C1380 H1397 0.930 . S
C1381 C1377 1.395 . S
C1381 C1382 1.379 . S
C1381 H1398 0.930 . S
C1382 C1380 1.395 . S
C1382 C1381 1.379 . S
C1382 H1399 0.930 . S
C1383 O1366 1.264 . S
C1383 O1367 1.254 . S
C1384 Eu1320 2.848 . S
C1384 O1364 1.257 . S
C1384 O1369 1.249 . S
C1384 C1377 1.492 . S
C1385 H1350 0.931 . S
C1385 C1363 1.420 . S
C1385 C1386 1.351 . S
C1386 H1348 0.930 . S
C1386 C1354 1.423 . S
C1386 C1385 1.351 . S
C1387 O1371 1.276 . S
C1387 O1374 1.235 . S
C1388 C1389 1.393 . S
C1388 C1392 1.395 . S
C1388 C1395 1.492 . S
C1389 C1388 1.393 . S
C1389 C1390 1.392 . S
C1389 H1400 0.930 . S
C1390 C1389 1.392 . S
C1390 C1391 1.386 . S
C1391 C1390 1.386 . S
C1391 C1393 1.395 . S
C1391 H1401 0.930 . S
C1392 C1388 1.395 . S
C1392 C1393 1.379 . S
C1392 H1402 0.930 . S
C1393 C1391 1.395 . S
C1393 C1392 1.379 . S
C1393 H1403 0.930 . S
C1394 O1372 1.264 . S
C1394 O1373 1.254 . S
C1395 Eu1331 2.848 . S
C1395 O1370 1.257 . S
C1395 O1375 1.249 . S
C1395 C1388 1.492 . S
H1396 C1379 0.930 . S
H1397 C1380 0.930 . S
H1398 C1381 0.930 . S
H1399 C1382 0.930 . S
H1400 C1389 0.930 . S
H1401 C1391 0.930 . S
H1402 C1392 0.930 . S
H1403 C1393 0.930 . S
H1404 C1422 0.951 . S
H1405 C1424 0.951 . S
H1406 C1426 0.950 . S
H1407 C1427 0.950 . S
H1408 C1429 0.950 . S
H1409 C1432 0.950 . S
H1410 C1433 0.950 . S
H1411 C1435 0.950 . S
H1412 C1436 0.950 . S
H1413 C1437 0.951 . S
H1414 C1439 0.951 . S
H1415 C1441 0.950 . S
H1416 C1442 0.950 . S
H1417 C1444 0.950 . S
H1418 C1447 0.950 . S
H1419 C1448 0.950 . S
H1420 C1450 0.950 . S
H1421 C1451 0.950 . S
C1422 H1404 0.951 . S
C1422 C1423 1.366 . S
C1422 C1424 1.388 . S
C1423 C1422 1.366 . S
C1423 C1427 1.385 . S
C1424 H1405 0.951 . S
C1424 C1422 1.388 . S
C1424 C1425 1.366 . S
C1425 C1424 1.366 . S
C1425 C1426 1.414 . S
C1425 C1428 1.499 . S
C1426 H1406 0.950 . S
C1426 C1425 1.414 . S
C1426 C1427 1.374 . S
C1427 H1407 0.950 . S
C1427 C1423 1.385 . S
C1427 C1426 1.374 . S
C1428 C1425 1.499 . S
C1428 C1429 1.373 . S
C1428 C1430 1.389 . S
C1429 H1408 0.950 . S
C1429 C1428 1.373 . S
C1429 C1445 1.377 . S
C1430 C1428 1.389 . S
C1430 C1431 1.524 . S
C1430 C1444 1.377 . S
C1431 C1430 1.524 . S
C1431 C1432 1.397 . S
C1431 C1436 1.363 . S
C1432 H1409 0.950 . S
C1432 C1431 1.397 . S
C1432 C1433 1.334 . S
C1433 H1410 0.950 . S
C1433 C1432 1.334 . S
C1433 C1434 1.287 . S
C1434 C1433 1.287 . S
C1434 C1435 1.524 . S
C1434 H1453 0.913 . S
C1435 H1411 0.950 . S
C1435 C1434 1.524 . S
C1435 C1436 1.415 . S
C1436 H1412 0.950 . S
C1436 C1431 1.363 . S
C1436 C1435 1.415 . S
C1437 H1413 0.951 . S
C1437 C1438 1.366 . S
C1437 C1439 1.388 . S
C1438 C1437 1.366 . S
C1438 C1442 1.385 . S
C1439 H1414 0.951 . S
C1439 C1437 1.388 . S
C1439 C1440 1.366 . S
C1440 C1439 1.366 . S
C1440 C1441 1.414 . S
C1440 C1443 1.499 . S
C1441 H1415 0.950 . S
C1441 C1440 1.414 . S
C1441 C1442 1.374 . S
C1442 H1416 0.950 . S
C1442 C1438 1.385 . S
C1442 C1441 1.374 . S
C1443 C1440 1.499 . S
C1443 C1444 1.373 . S
C1443 C1445 1.389 . S
C1444 H1417 0.950 . S
C1444 C1430 1.377 . S
C1444 C1443 1.373 . S
C1445 C1429 1.377 . S
C1445 C1443 1.389 . S
C1445 C1446 1.524 . S
C1446 C1445 1.524 . S
C1446 C1447 1.397 . S
C1446 C1451 1.363 . S
C1447 H1418 0.950 . S
C1447 C1446 1.397 . S
C1447 C1448 1.334 . S
C1448 H1419 0.950 . S
C1448 C1447 1.334 . S
C1448 C1449 1.287 1_554 S
C1449 C1448 1.287 1_556 S
C1449 C1450 1.524 . S
C1449 H1452 0.999 . S
C1450 H1420 0.950 . S
C1450 C1449 1.524 . S
C1450 C1451 1.415 1_556 S
C1451 H1421 0.950 . S
C1451 C1446 1.363 . S
C1451 C1450 1.415 1_554 S
H1452 C1449 0.999 . S
H1453 C1434 0.913 . S
H1454 C1472 0.951 . S
H1455 C1474 0.951 . S
H1456 C1476 0.950 . S
H1457 C1477 0.950 . S
H1458 C1479 0.950 . S
H1459 C1482 0.950 . S
H1460 C1483 0.950 . S
H1461 C1485 0.950 . S
H1462 C1486 0.950 . S
H1463 C1487 0.951 . S
H1464 C1489 0.951 . S
H1465 C1491 0.950 . S
H1466 C1492 0.950 . S
H1467 C1494 0.950 . S
H1468 C1497 0.950 . S
H1469 C1498 0.950 1_556 S
H1470 C1500 0.950 . S
H1471 C1501 0.950 . S
C1472 H1454 0.951 . S
C1472 C1473 1.366 . S
C1472 C1474 1.388 . S
C1473 C1472 1.366 . S
C1473 C1477 1.385 . S
C1474 H1455 0.951 . S
C1474 C1472 1.388 . S
C1474 C1475 1.366 . S
C1475 C1474 1.366 . S
C1475 C1476 1.414 . S
C1475 C1478 1.499 . S
C1476 H1456 0.950 . S
C1476 C1475 1.414 . S
C1476 C1477 1.374 . S
C1477 H1457 0.950 . S
C1477 C1473 1.385 . S
C1477 C1476 1.374 . S
C1478 C1475 1.499 . S
C1478 C1479 1.373 . S
C1478 C1480 1.389 . S
C1479 H1458 0.950 . S
C1479 C1478 1.373 . S
C1479 C1495 1.377 . S
C1480 C1478 1.389 . S
C1480 C1481 1.524 . S
C1480 C1494 1.377 . S
C1481 C1480 1.524 . S
C1481 C1482 1.397 . S
C1481 C1486 1.363 . S
C1482 H1459 0.950 . S
C1482 C1481 1.397 . S
C1482 C1483 1.334 . S
C1483 H1460 0.950 . S
C1483 C1482 1.334 . S
C1483 C1484 1.287 . S
C1484 C1483 1.287 . S
C1484 C1485 1.524 . S
C1484 H1503 0.913 . S
C1485 H1461 0.950 . S
C1485 C1484 1.524 . S
C1485 C1486 1.415 . S
C1486 H1462 0.950 . S
C1486 C1481 1.363 . S
C1486 C1485 1.415 . S
C1487 H1463 0.951 . S
C1487 C1488 1.366 . S
C1487 C1489 1.388 . S
C1488 C1487 1.366 . S
C1488 C1492 1.385 . S
C1489 H1464 0.951 . S
C1489 C1487 1.388 . S
C1489 C1490 1.366 . S
C1490 C1489 1.366 . S
C1490 C1491 1.414 . S
C1490 C1493 1.499 . S
C1491 H1465 0.950 . S
C1491 C1490 1.414 . S
C1491 C1492 1.374 . S
C1492 H1466 0.950 . S
C1492 C1488 1.385 . S
C1492 C1491 1.374 . S
C1493 C1490 1.499 . S
C1493 C1494 1.373 . S
C1493 C1495 1.389 . S
C1494 H1467 0.950 . S
C1494 C1480 1.377 . S
C1494 C1493 1.373 . S
C1495 C1479 1.377 . S
C1495 C1493 1.389 . S
C1495 C1496 1.524 . S
C1496 C1495 1.524 . S
C1496 C1497 1.397 . S
C1496 C1501 1.363 . S
C1497 H1468 0.950 . S
C1497 C1496 1.397 . S
C1497 C1498 1.334 . S
C1498 H1469 0.950 1_554 S
C1498 C1497 1.334 . S
C1498 C1499 1.287 . S
C1499 C1498 1.287 . S
C1499 C1500 1.524 . S
C1499 H1502 0.999 . S
C1500 H1470 0.950 . S
C1500 C1499 1.524 . S
C1500 C1501 1.415 . S
C1501 H1471 0.950 . S
C1501 C1496 1.363 . S
C1501 C1500 1.415 . S
H1502 C1499 0.999 . S
H1503 C1484 0.913 . S
H1504 C1522 0.951 . S
H1505 C1524 0.951 . S
H1506 C1526 0.950 . S
H1507 C1527 0.950 . S
H1508 C1529 0.950 . S
H1509 C1532 0.950 . S
H1510 C1533 0.950 . S
H1511 C1535 0.950 . S
H1512 C1536 0.950 . S
H1513 C1537 0.951 . S
H1514 C1539 0.951 . S
H1515 C1541 0.950 . S
H1516 C1542 0.950 . S
H1517 C1544 0.950 . S
H1518 C1547 0.950 . S
H1519 C1548 0.950 . S
H1520 C1550 0.950 . S
H1521 C1551 0.950 . S
C1522 H1504 0.951 . S
C1522 C1523 1.366 . S
C1522 C1524 1.388 . S
C1523 C1522 1.366 . S
C1523 C1527 1.385 . S
C1524 H1505 0.951 . S
C1524 C1522 1.388 . S
C1524 C1525 1.366 . S
C1525 C1524 1.366 . S
C1525 C1526 1.414 . S
C1525 C1528 1.499 . S
C1526 H1506 0.950 . S
C1526 C1525 1.414 . S
C1526 C1527 1.374 . S
C1527 H1507 0.950 . S
C1527 C1523 1.385 . S
C1527 C1526 1.374 . S
C1528 C1525 1.499 . S
C1528 C1529 1.373 . S
C1528 C1530 1.389 . S
C1529 H1508 0.950 . S
C1529 C1528 1.373 . S
C1529 C1545 1.377 . S
C1530 C1528 1.389 . S
C1530 C1531 1.524 . S
C1530 C1544 1.377 . S
C1531 C1530 1.524 . S
C1531 C1532 1.397 . S
C1531 C1536 1.363 . S
C1532 H1509 0.950 . S
C1532 C1531 1.397 . S
C1532 C1533 1.334 . S
C1533 H1510 0.950 . S
C1533 C1532 1.334 . S
C1533 C1534 1.287 . S
C1534 C1533 1.287 . S
C1534 C1535 1.524 . S
C1534 H1553 0.913 . S
C1535 H1511 0.950 . S
C1535 C1534 1.524 . S
C1535 C1536 1.415 . S
C1536 H1512 0.950 . S
C1536 C1531 1.363 . S
C1536 C1535 1.415 . S
C1537 H1513 0.951 . S
C1537 C1538 1.366 . S
C1537 C1539 1.388 . S
C1538 C1537 1.366 . S
C1538 C1542 1.385 . S
C1539 H1514 0.951 . S
C1539 C1537 1.388 . S
C1539 C1540 1.366 . S
C1540 C1539 1.366 . S
C1540 C1541 1.414 . S
C1540 C1543 1.499 . S
C1541 H1515 0.950 . S
C1541 C1540 1.414 . S
C1541 C1542 1.374 . S
C1542 H1516 0.950 . S
C1542 C1538 1.385 . S
C1542 C1541 1.374 . S
C1543 C1540 1.499 . S
C1543 C1544 1.373 . S
C1543 C1545 1.389 . S
C1544 H1517 0.950 . S
C1544 C1530 1.377 . S
C1544 C1543 1.373 . S
C1545 C1529 1.377 . S
C1545 C1543 1.389 . S
C1545 C1546 1.524 . S
C1546 C1545 1.524 . S
C1546 C1547 1.397 . S
C1546 C1551 1.363 . S
C1547 H1518 0.950 . S
C1547 C1546 1.397 . S
C1547 C1548 1.334 . S
C1548 H1519 0.950 . S
C1548 C1547 1.334 . S
C1548 C1549 1.287 . S
C1549 C1548 1.287 . S
C1549 C1550 1.524 . S
C1549 H1552 0.999 . S
C1550 H1520 0.950 . S
C1550 C1549 1.524 . S
C1550 C1551 1.415 . S
C1551 H1521 0.950 . S
C1551 C1546 1.363 . S
C1551 C1550 1.415 . S
H1552 C1549 0.999 . S
H1553 C1534 0.913 . S
H1554 C1572 0.951 . S
H1555 C1574 0.951 . S
H1556 C1576 0.950 . S
H1557 C1577 0.950 . S
H1558 C1579 0.950 . S
H1559 C1582 0.950 . S
H1560 C1583 0.950 . S
H1561 C1585 0.950 . S
H1562 C1586 0.950 . S
H1563 C1587 0.951 . S
H1564 C1589 0.951 . S
H1565 C1591 0.950 . S
H1566 C1592 0.950 1_554 S
H1567 C1594 0.950 . S
H1568 C1597 0.950 . S
H1569 C1598 0.950 . S
H1570 C1600 0.950 . S
H1571 C1601 0.950 . S
C1572 H1554 0.951 . S
C1572 C1573 1.366 . S
C1572 C1574 1.388 . S
C1573 C1572 1.366 . S
C1573 C1577 1.385 . S
C1574 H1555 0.951 . S
C1574 C1572 1.388 . S
C1574 C1575 1.366 . S
C1575 C1574 1.366 . S
C1575 C1576 1.414 . S
C1575 C1578 1.499 . S
C1576 H1556 0.950 . S
C1576 C1575 1.414 . S
C1576 C1577 1.374 . S
C1577 H1557 0.950 . S
C1577 C1573 1.385 . S
C1577 C1576 1.374 . S
C1578 C1575 1.499 . S
C1578 C1579 1.373 . S
C1578 C1580 1.389 . S
C1579 H1558 0.950 . S
C1579 C1578 1.373 . S
C1579 C1595 1.377 . S
C1580 C1578 1.389 . S
C1580 C1581 1.524 . S
C1580 C1594 1.377 . S
C1581 C1580 1.524 . S
C1581 C1582 1.397 . S
C1581 C1586 1.363 . S
C1582 H1559 0.950 . S
C1582 C1581 1.397 . S
C1582 C1583 1.334 . S
C1583 H1560 0.950 . S
C1583 C1582 1.334 . S
C1583 C1584 1.287 . S
C1584 C1583 1.287 . S
C1584 C1585 1.524 . S
C1584 H1603 0.913 . S
C1585 H1561 0.950 . S
C1585 C1584 1.524 . S
C1585 C1586 1.415 . S
C1586 H1562 0.950 . S
C1586 C1581 1.363 . S
C1586 C1585 1.415 . S
C1587 H1563 0.951 . S
C1587 C1588 1.366 . S
C1587 C1589 1.388 . S
C1588 C1587 1.366 . S
C1588 C1592 1.385 . S
C1589 H1564 0.951 . S
C1589 C1587 1.388 . S
C1589 C1590 1.366 . S
C1590 C1589 1.366 . S
C1590 C1591 1.414 . S
C1590 C1593 1.499 . S
C1591 H1565 0.950 . S
C1591 C1590 1.414 . S
C1591 C1592 1.374 . S
C1592 H1566 0.950 1_556 S
C1592 C1588 1.385 . S
C1592 C1591 1.374 . S
C1593 C1590 1.499 . S
C1593 C1594 1.373 . S
C1593 C1595 1.389 . S
C1594 H1567 0.950 . S
C1594 C1580 1.377 . S
C1594 C1593 1.373 . S
C1595 C1579 1.377 . S
C1595 C1593 1.389 . S
C1595 C1596 1.524 . S
C1596 C1595 1.524 . S
C1596 C1597 1.397 . S
C1596 C1601 1.363 . S
C1597 H1568 0.950 . S
C1597 C1596 1.397 . S
C1597 C1598 1.334 . S
C1598 H1569 0.950 . S
C1598 C1597 1.334 . S
C1598 C1599 1.287 . S
C1599 C1598 1.287 . S
C1599 C1600 1.524 . S
C1599 H1602 1.035 . S
C1600 H1570 0.950 . S
C1600 C1599 1.524 . S
C1600 C1601 1.415 . S
C1601 H1571 0.950 . S
C1601 C1596 1.363 . S
C1601 C1600 1.415 . S
H1602 C1599 1.035 . S
H1603 C1584 0.913 . S
H1604 C1622 0.951 . S
H1605 C1624 0.951 . S
H1606 C1626 0.950 . S
H1607 C1627 0.950 . S
H1608 C1629 0.950 . S
H1609 C1632 0.950 . S
H1610 C1633 0.950 . S
H1611 C1635 1.031 . S
H1612 C1636 0.950 . S
H1613 C1637 0.951 . S
H1614 C1639 0.951 . S
H1615 C1641 0.950 . S
H1616 C1642 0.950 1_554 S
H1617 C1644 0.950 . S
H1618 C1647 0.950 . S
H1619 C1648 0.950 . S
H1620 C1650 0.950 . S
H1621 C1651 0.950 . S
C1622 H1604 0.951 . S
C1622 C1623 1.366 . S
C1622 C1624 1.388 . S
C1623 C1622 1.366 . S
C1623 C1627 1.385 . S
C1624 H1605 0.951 . S
C1624 C1622 1.388 . S
C1624 C1625 1.366 . S
C1625 C1624 1.366 . S
C1625 C1626 1.414 . S
C1625 C1628 1.499 . S
C1626 H1606 0.950 . S
C1626 C1625 1.414 . S
C1626 C1627 1.374 . S
C1627 H1607 0.950 . S
C1627 C1623 1.385 . S
C1627 C1626 1.374 . S
C1628 C1625 1.499 . S
C1628 C1629 1.373 . S
C1628 C1630 1.389 . S
C1629 H1608 0.950 . S
C1629 C1628 1.373 . S
C1629 C1645 1.377 . S
C1630 C1628 1.389 . S
C1630 C1631 1.524 . S
C1630 C1644 1.377 . S
C1631 C1630 1.524 . S
C1631 C1632 1.397 . S
C1631 C1636 1.363 . S
C1632 H1609 0.950 . S
C1632 C1631 1.397 . S
C1632 C1633 1.334 . S
C1633 H1610 0.950 . S
C1633 C1632 1.334 . S
C1633 C1634 1.287 . S
C1634 C1633 1.287 . S
C1634 C1635 1.524 . S
C1634 H1653 0.913 . S
C1635 H1611 1.031 . S
C1635 C1634 1.524 . S
C1635 C1636 1.415 . S
C1636 H1612 0.950 . S
C1636 C1631 1.363 . S
C1636 C1635 1.415 . S
C1637 H1613 0.951 . S
C1637 C1638 1.366 . S
C1637 C1639 1.388 . S
C1638 C1637 1.366 . S
C1638 C1642 1.385 . S
C1639 H1614 0.951 . S
C1639 C1637 1.388 . S
C1639 C1640 1.366 . S
C1640 C1639 1.366 . S
C1640 C1641 1.414 . S
C1640 C1643 1.499 . S
C1641 H1615 0.950 . S
C1641 C1640 1.414 . S
C1641 C1642 1.374 . S
C1642 H1616 0.950 1_556 S
C1642 C1638 1.385 . S
C1642 C1641 1.374 . S
C1643 C1640 1.499 . S
C1643 C1644 1.373 . S
C1643 C1645 1.389 . S
C1644 H1617 0.950 . S
C1644 C1630 1.377 . S
C1644 C1643 1.373 . S
C1645 C1629 1.377 . S
C1645 C1643 1.389 . S
C1645 C1646 1.524 . S
C1646 C1645 1.524 . S
C1646 C1647 1.397 . S
C1646 C1651 1.363 . S
C1647 H1618 0.950 . S
C1647 C1646 1.397 . S
C1647 C1648 1.334 . S
C1648 H1619 0.950 . S
C1648 C1647 1.334 . S
C1648 C1649 1.287 . S
C1649 C1648 1.287 . S
C1649 C1650 1.524 . S
C1649 H1652 0.999 . S
C1650 H1620 0.950 . S
C1650 C1649 1.524 . S
C1650 C1651 1.415 . S
C1651 H1621 0.950 . S
C1651 C1646 1.363 . S
C1651 C1650 1.415 . S
H1652 C1649 0.999 . S
H1653 C1634 0.913 . S
H1654 C1672 0.951 . S
H1655 C1674 0.951 . S
H1656 C1676 0.950 . S
H1657 C1677 0.950 . S
H1658 C1679 0.950 . S
H1659 C1682 0.950 . S
H1660 C1683 0.944 1_554 S
H1661 C1685 0.950 . S
H1662 C1686 0.950 . S
H1663 C1687 0.951 . S
H1664 C1689 0.951 . S
H1665 C1691 0.950 . S
H1666 C1692 0.950 . S
H1667 C1694 0.950 . S
H1668 C1697 0.950 . S
H1669 C1698 0.950 . S
H1670 C1700 0.950 . S
H1671 C1701 0.950 . S
C1672 H1654 0.951 . S
C1672 C1673 1.366 . S
C1672 C1674 1.388 . S
C1673 C1672 1.366 . S
C1673 C1677 1.385 . S
C1674 H1655 0.951 . S
C1674 C1672 1.388 . S
C1674 C1675 1.366 . S
C1675 C1674 1.366 . S
C1675 C1676 1.414 . S
C1675 C1678 1.499 . S
C1676 H1656 0.950 . S
C1676 C1675 1.414 . S
C1676 C1677 1.374 . S
C1677 H1657 0.950 . S
C1677 C1673 1.385 . S
C1677 C1676 1.374 . S
C1678 C1675 1.499 . S
C1678 C1679 1.373 . S
C1678 C1680 1.389 . S
C1679 H1658 0.950 . S
C1679 C1678 1.373 . S
C1679 C1695 1.377 . S
C1680 C1678 1.389 . S
C1680 C1681 1.524 . S
C1680 C1694 1.377 . S
C1681 C1680 1.524 . S
C1681 C1682 1.397 . S
C1681 C1686 1.363 . S
C1682 H1659 0.950 . S
C1682 C1681 1.397 . S
C1682 C1683 1.379 . S
C1683 H1660 0.944 1_556 S
C1683 C1682 1.379 . S
C1683 C1684 1.251 1_556 S
C1684 C1683 1.251 1_554 S
C1684 C1685 1.524 . S
C1684 H1703 0.913 . S
C1685 H1661 0.950 . S
C1685 C1684 1.524 . S
C1685 C1686 1.415 1_554 S
C1686 H1662 0.950 . S
C1686 C1681 1.363 . S
C1686 C1685 1.415 1_556 S
C1687 H1663 0.951 . S
C1687 C1688 1.366 . S
C1687 C1689 1.388 . S
C1688 C1687 1.366 . S
C1688 C1692 1.385 . S
C1689 H1664 0.951 . S
C1689 C1687 1.388 . S
C1689 C1690 1.366 . S
C1690 C1689 1.366 . S
C1690 C1691 1.414 . S
C1690 C1693 1.499 . S
C1691 H1665 0.950 . S
C1691 C1690 1.414 . S
C1691 C1692 1.374 . S
C1692 H1666 0.950 . S
C1692 C1688 1.385 . S
C1692 C1691 1.374 . S
C1693 C1690 1.499 . S
C1693 C1694 1.373 . S
C1693 C1695 1.389 . S
C1694 H1667 0.950 . S
C1694 C1680 1.377 . S
C1694 C1693 1.373 . S
C1695 C1679 1.377 . S
C1695 C1693 1.389 . S
C1695 C1696 1.524 . S
C1696 C1695 1.524 . S
C1696 C1697 1.397 . S
C1696 C1701 1.363 . S
C1697 H1668 0.950 . S
C1697 C1696 1.397 . S
C1697 C1698 1.334 . S
C1698 H1669 0.950 . S
C1698 C1697 1.334 . S
C1698 C1699 1.287 . S
C1699 C1698 1.287 . S
C1699 C1700 1.524 . S
C1699 H1702 0.999 . S
C1700 H1670 0.950 . S
C1700 C1699 1.524 . S
C1700 C1701 1.415 . S
C1701 H1671 0.950 . S
C1701 C1696 1.363 . S
C1701 C1700 1.415 . S
H1702 C1699 0.999 . S
H1703 C1684 0.913 . S
H1704 C1722 0.951 . S
H1705 C1724 0.951 . S
H1706 C1726 0.950 . S
H1707 C1727 0.950 . S
H1708 C1729 0.950 . S
H1709 C1732 0.950 . S
H1710 C1733 0.950 . S
H1711 C1735 0.950 . S
H1712 C1736 0.950 . S
H1713 C1737 0.951 1_554 S
H1714 C1739 0.951 . S
H1715 C1741 0.950 . S
H1716 C1742 0.950 . S
H1717 C1744 0.950 . S
H1718 C1747 0.950 . S
H1719 C1748 0.950 . S
H1720 C1750 0.945 1_554 S
H1721 C1751 0.950 . S
C1722 H1704 0.951 . S
C1722 C1723 1.366 . S
C1722 C1724 1.388 . S
C1723 C1722 1.366 . S
C1723 C1727 1.385 . S
C1724 H1705 0.951 . S
C1724 C1722 1.388 . S
C1724 C1725 1.366 . S
C1725 C1724 1.366 . S
C1725 C1726 1.414 . S
C1725 C1728 1.499 . S
C1726 H1706 0.950 . S
C1726 C1725 1.414 . S
C1726 C1727 1.374 . S
C1727 H1707 0.950 . S
C1727 C1723 1.385 . S
C1727 C1726 1.374 . S
C1728 C1725 1.499 . S
C1728 C1729 1.373 . S
C1728 C1730 1.389 . S
C1729 H1708 0.950 . S
C1729 C1728 1.373 . S
C1729 C1745 1.377 . S
C1730 C1728 1.389 . S
C1730 C1731 1.524 . S
C1730 C1744 1.377 . S
C1731 C1730 1.524 . S
C1731 C1732 1.397 . S
C1731 C1736 1.363 . S
C1732 H1709 0.950 . S
C1732 C1731 1.397 . S
C1732 C1733 1.334 . S
C1733 H1710 0.950 . S
C1733 C1732 1.334 . S
C1733 C1734 1.287 . S
C1734 C1733 1.287 . S
C1734 C1735 1.524 . S
C1734 H1753 0.913 . S
C1735 H1711 0.950 . S
C1735 C1734 1.524 . S
C1735 C1736 1.415 . S
C1736 H1712 0.950 . S
C1736 C1731 1.363 . S
C1736 C1735 1.415 . S
C1737 H1713 0.951 1_556 S
C1737 C1738 1.366 . S
C1737 C1739 1.388 . S
C1738 C1737 1.366 . S
C1738 C1742 1.385 . S
C1739 H1714 0.951 . S
C1739 C1737 1.388 . S
C1739 C1740 1.366 . S
C1740 C1739 1.366 . S
C1740 C1741 1.414 . S
C1740 C1743 1.499 . S
C1741 H1715 0.950 . S
C1741 C1740 1.414 . S
C1741 C1742 1.374 . S
C1742 H1716 0.950 . S
C1742 C1738 1.385 . S
C1742 C1741 1.374 . S
C1743 C1740 1.499 . S
C1743 C1744 1.373 . S
C1743 C1745 1.389 . S
C1744 H1717 0.950 . S
C1744 C1730 1.377 . S
C1744 C1743 1.373 . S
C1745 C1729 1.377 . S
C1745 C1743 1.389 . S
C1745 C1746 1.524 . S
C1746 C1745 1.524 . S
C1746 C1747 1.397 . S
C1746 C1751 1.363 . S
C1747 H1718 0.950 . S
C1747 C1746 1.397 . S
C1747 C1748 1.334 . S
C1748 H1719 0.950 . S
C1748 C1747 1.334 . S
C1748 C1749 1.287 . S
C1749 C1748 1.287 . S
C1749 C1750 1.524 . S
C1749 H1752 0.999 . S
C1750 H1720 0.945 1_556 S
C1750 C1749 1.524 . S
C1750 C1751 1.415 . S
C1751 H1721 0.950 . S
C1751 C1746 1.363 . S
C1751 C1750 1.415 . S
H1752 C1749 0.999 . S
H1753 C1734 0.913 . S
H1754 C1772 0.951 . S
H1755 C1774 0.951 . S
H1756 C1776 0.950 . S
H1757 C1777 0.950 . S
H1758 C1779 0.950 . S
H1759 C1782 0.950 . S
H1760 C1783 0.950 . S
H1761 C1785 0.950 1_554 S
H1762 C1786 0.950 . S
H1763 C1787 0.951 . S
H1764 C1789 0.951 . S
H1765 C1791 0.950 . S
H1766 C1792 0.950 . S
H1767 C1794 0.950 . S
H1768 C1797 0.950 . S
H1769 C1798 0.950 . S
H1770 C1800 0.950 . S
H1771 C1801 0.950 . S
C1772 H1754 0.951 . S
C1772 C1773 1.366 . S
C1772 C1774 1.388 . S
C1773 C1772 1.366 . S
C1773 C1777 1.385 . S
C1774 H1755 0.951 . S
C1774 C1772 1.388 . S
C1774 C1775 1.366 . S
C1775 C1774 1.366 . S
C1775 C1776 1.414 . S
C1775 C1778 1.499 . S
C1776 H1756 0.950 . S
C1776 C1775 1.414 . S
C1776 C1777 1.374 . S
C1777 H1757 0.950 . S
C1777 C1773 1.385 . S
C1777 C1776 1.374 . S
C1778 C1775 1.499 . S
C1778 C1779 1.373 . S
C1778 C1780 1.389 . S
C1779 H1758 0.950 . S
C1779 C1778 1.373 . S
C1779 C1795 1.377 . S
C1780 C1778 1.389 . S
C1780 C1781 1.524 . S
C1780 C1794 1.377 . S
C1781 C1780 1.524 . S
C1781 C1782 1.397 . S
C1781 C1786 1.363 . S
C1782 H1759 0.950 . S
C1782 C1781 1.397 . S
C1782 C1783 1.334 . S
C1783 H1760 0.950 . S
C1783 C1782 1.334 . S
C1783 C1784 1.302 . S
C1784 C1783 1.302 . S
C1784 C1785 1.529 . S
C1784 H1803 0.894 1_556 S
C1785 H1761 0.950 1_556 S
C1785 C1784 1.529 . S
C1785 C1786 1.415 . S
C1786 H1762 0.950 . S
C1786 C1781 1.363 . S
C1786 C1785 1.415 . S
C1787 H1763 0.951 . S
C1787 C1788 1.366 . S
C1787 C1789 1.388 . S
C1788 C1787 1.366 . S
C1788 C1792 1.385 . S
C1789 H1764 0.951 . S
C1789 C1787 1.388 . S
C1789 C1790 1.366 . S
C1790 C1789 1.366 . S
C1790 C1791 1.414 . S
C1790 C1793 1.499 . S
C1791 H1765 0.950 . S
C1791 C1790 1.414 . S
C1791 C1792 1.374 . S
C1792 H1766 0.950 . S
C1792 C1788 1.385 . S
C1792 C1791 1.374 . S
C1793 C1790 1.499 . S
C1793 C1794 1.373 . S
C1793 C1795 1.389 . S
C1794 H1767 0.950 . S
C1794 C1780 1.377 . S
C1794 C1793 1.373 . S
C1795 C1779 1.377 . S
C1795 C1793 1.389 . S
C1795 C1796 1.524 . S
C1796 C1795 1.524 . S
C1796 C1797 1.397 . S
C1796 C1801 1.363 . S
C1797 H1768 0.950 . S
C1797 C1796 1.397 . S
C1797 C1798 1.334 . S
C1798 H1769 0.950 . S
C1798 C1797 1.334 . S
C1798 C1799 1.287 . S
C1799 C1798 1.287 . S
C1799 C1800 1.524 . S
C1799 H1802 0.999 . S
C1800 H1770 0.950 . S
C1800 C1799 1.524 . S
C1800 C1801 1.415 . S
C1801 H1771 0.950 . S
C1801 C1796 1.363 . S
C1801 C1800 1.415 . S
H1802 C1799 0.999 . S
H1803 C1784 0.894 1_554 S
H1804 C1822 0.951 . S
H1805 C1824 0.951 . S
H1806 C1826 0.950 . S
H1807 C1827 0.950 . S
H1808 C1829 0.950 . S
H1809 C1832 0.950 . S
H1810 C1833 0.932 1_554 S
H1811 C1835 0.968 . S
H1812 C1836 0.950 . S
H1813 C1837 0.951 . S
H1814 C1839 0.951 . S
H1815 C1841 0.950 . S
H1816 C1842 0.950 . S
H1817 C1844 0.950 . S
H1818 C1847 0.950 . S
H1819 C1848 0.950 . S
H1820 C1850 0.950 . S
H1821 C1851 0.950 . S
C1822 H1804 0.951 . S
C1822 C1823 1.366 . S
C1822 C1824 1.388 . S
C1823 C1822 1.366 . S
C1823 C1827 1.385 . S
C1824 H1805 0.951 . S
C1824 C1822 1.388 . S
C1824 C1825 1.366 . S
C1825 C1824 1.366 . S
C1825 C1826 1.414 . S
C1825 C1828 1.499 . S
C1826 H1806 0.950 . S
C1826 C1825 1.414 . S
C1826 C1827 1.374 . S
C1827 H1807 0.950 . S
C1827 C1823 1.385 . S
C1827 C1826 1.374 . S
C1828 C1825 1.499 . S
C1828 C1829 1.373 . S
C1828 C1830 1.389 . S
C1829 H1808 0.950 . S
C1829 C1828 1.373 . S
C1829 C1845 1.377 . S
C1830 C1828 1.389 . S
C1830 C1831 1.524 . S
C1830 C1844 1.377 . S
C1831 C1830 1.524 . S
C1831 C1832 1.397 . S
C1831 C1836 1.363 . S
C1832 H1809 0.950 . S
C1832 C1831 1.397 . S
C1832 C1833 1.392 . S
C1833 H1810 0.932 1_556 S
C1833 C1832 1.392 . S
C1833 C1834 1.256 1_556 S
C1834 C1833 1.256 1_554 S
C1834 C1835 1.536 . S
C1834 H1853 0.913 . S
C1835 H1811 0.968 . S
C1835 C1834 1.536 . S
C1835 C1836 1.384 1_554 S
C1836 H1812 0.950 . S
C1836 C1831 1.363 . S
C1836 C1835 1.384 1_556 S
C1837 H1813 0.951 . S
C1837 C1838 1.366 . S
C1837 C1839 1.388 . S
C1838 C1837 1.366 . S
C1838 C1842 1.385 . S
C1839 H1814 0.951 . S
C1839 C1837 1.388 . S
C1839 C1840 1.366 . S
C1840 C1839 1.366 . S
C1840 C1841 1.414 . S
C1840 C1843 1.499 . S
C1841 H1815 0.950 . S
C1841 C1840 1.414 . S
C1841 C1842 1.374 . S
C1842 H1816 0.950 . S
C1842 C1838 1.385 . S
C1842 C1841 1.374 . S
C1843 C1840 1.499 . S
C1843 C1844 1.373 . S
C1843 C1845 1.389 . S
C1844 H1817 0.950 . S
C1844 C1830 1.377 . S
C1844 C1843 1.373 . S
C1845 C1829 1.377 . S
C1845 C1843 1.389 . S
C1845 C1846 1.524 . S
C1846 C1845 1.524 . S
C1846 C1847 1.397 . S
C1846 C1851 1.363 . S
C1847 H1818 0.950 . S
C1847 C1846 1.397 . S
C1847 C1848 1.334 . S
C1848 H1819 0.950 . S
C1848 C1847 1.334 . S
C1848 C1849 1.287 . S
C1849 C1848 1.287 . S
C1849 C1850 1.524 . S
C1849 H1852 0.999 . S
C1850 H1820 0.950 . S
C1850 C1849 1.524 . S
C1850 C1851 1.415 . S
C1851 H1821 0.950 . S
C1851 C1846 1.363 . S
C1851 C1850 1.415 . S
H1852 C1849 0.999 . S
H1853 C1834 0.913 . S
H1854 C1872 0.951 . S
H1855 C1874 0.951 . S
H1856 C1876 0.950 . S
H1857 C1877 0.950 . S
H1858 C1879 0.950 . S
H1859 C1882 0.950 . S
H1860 C1883 0.950 . S
H1861 C1885 0.950 . S
H1862 C1886 0.950 . S
H1863 C1887 0.951 . S
H1864 C1889 0.951 . S
H1865 C1891 0.950 . S
H1866 C1892 0.950 . S
H1867 C1894 0.950 . S
H1868 C1897 0.950 . S
H1869 C1898 0.950 . S
H1870 C1900 0.950 . S
H1871 C1901 0.950 . S
C1872 H1854 0.951 . S
C1872 C1873 1.366 . S
C1872 C1874 1.388 . S
C1873 C1872 1.366 . S
C1873 C1877 1.385 . S
C1874 H1855 0.951 . S
C1874 C1872 1.388 . S
C1874 C1875 1.366 . S
C1875 C1874 1.366 . S
C1875 C1876 1.414 . S
C1875 C1878 1.499 . S
C1876 H1856 0.950 . S
C1876 C1875 1.414 . S
C1876 C1877 1.374 . S
C1877 H1857 0.950 . S
C1877 C1873 1.385 . S
C1877 C1876 1.374 . S
C1878 C1875 1.499 . S
C1878 C1879 1.373 . S
C1878 C1880 1.389 . S
C1879 H1858 0.950 . S
C1879 C1878 1.373 . S
C1879 C1895 1.377 . S
C1880 C1878 1.389 . S
C1880 C1881 1.524 . S
C1880 C1894 1.377 . S
C1881 C1880 1.524 . S
C1881 C1882 1.397 . S
C1881 C1886 1.363 . S
C1882 H1859 0.950 . S
C1882 C1881 1.397 . S
C1882 C1883 1.334 . S
C1883 H1860 0.950 . S
C1883 C1882 1.334 . S
C1883 C1884 1.287 . S
C1884 C1883 1.287 . S
C1884 C1885 1.524 . S
C1884 H1903 0.913 . S
C1885 H1861 0.950 . S
C1885 C1884 1.524 . S
C1885 C1886 1.415 . S
C1886 H1862 0.950 . S
C1886 C1881 1.363 . S
C1886 C1885 1.415 . S
C1887 H1863 0.951 . S
C1887 C1888 1.366 . S
C1887 C1889 1.388 . S
C1888 C1887 1.366 . S
C1888 C1892 1.385 . S
C1889 H1864 0.951 . S
C1889 C1887 1.388 . S
C1889 C1890 1.366 . S
C1890 C1889 1.366 . S
C1890 C1891 1.414 . S
C1890 C1893 1.499 . S
C1891 H1865 0.950 . S
C1891 C1890 1.414 . S
C1891 C1892 1.374 . S
C1892 H1866 0.950 . S
C1892 C1888 1.385 . S
C1892 C1891 1.374 . S
C1893 C1890 1.499 . S
C1893 C1894 1.373 . S
C1893 C1895 1.389 . S
C1894 H1867 0.950 . S
C1894 C1880 1.377 . S
C1894 C1893 1.373 . S
C1895 C1879 1.377 . S
C1895 C1893 1.389 . S
C1895 C1896 1.524 . S
C1896 C1895 1.524 . S
C1896 C1897 1.397 . S
C1896 C1901 1.363 . S
C1897 H1868 0.950 . S
C1897 C1896 1.397 . S
C1897 C1898 1.334 . S
C1898 H1869 0.950 . S
C1898 C1897 1.334 . S
C1898 C1899 1.287 . S
C1899 C1898 1.287 . S
C1899 C1900 1.524 . S
C1899 H1902 0.999 . S
C1900 H1870 0.950 . S
C1900 C1899 1.524 . S
C1900 C1901 1.415 . S
C1901 H1871 0.950 . S
C1901 C1896 1.363 . S
C1901 C1900 1.415 . S
H1902 C1899 0.999 . S
H1903 C1884 0.913 . S
H1904 C1922 0.951 . S
H1905 C1924 0.951 . S
H1906 C1926 0.950 . S
H1907 C1927 0.950 . S
H1908 C1929 0.950 . S
H1909 C1932 0.950 . S
H1910 C1933 0.950 . S
H1911 C1935 0.950 . S
H1912 C1936 0.950 . S
H1913 C1937 0.951 . S
H1914 C1939 0.951 . S
H1915 C1941 0.950 . S
H1916 C1942 0.950 . S
H1917 C1944 0.950 . S
H1918 C1947 0.950 . S
H1919 C1948 0.950 . S
H1920 C1950 0.950 . S
H1921 C1951 0.950 . S
C1922 H1904 0.951 . S
C1922 C1923 1.366 . S
C1922 C1924 1.388 . S
C1923 C1922 1.366 . S
C1923 C1927 1.385 . S
C1924 H1905 0.951 . S
C1924 C1922 1.388 . S
C1924 C1925 1.366 . S
C1925 C1924 1.366 . S
C1925 C1926 1.414 . S
C1925 C1928 1.499 . S
C1926 H1906 0.950 . S
C1926 C1925 1.414 . S
C1926 C1927 1.374 . S
C1927 H1907 0.950 . S
C1927 C1923 1.385 . S
C1927 C1926 1.374 . S
C1928 C1925 1.499 . S
C1928 C1929 1.373 . S
C1928 C1930 1.389 . S
C1929 H1908 0.950 . S
C1929 C1928 1.373 . S
C1929 C1945 1.377 . S
C1930 C1928 1.389 . S
C1930 C1931 1.524 . S
C1930 C1944 1.377 . S
C1931 C1930 1.524 . S
C1931 C1932 1.397 . S
C1931 C1936 1.363 . S
C1932 H1909 0.950 . S
C1932 C1931 1.397 . S
C1932 C1933 1.334 . S
C1933 H1910 0.950 . S
C1933 C1932 1.334 . S
C1933 C1934 1.287 . S
C1934 C1933 1.287 . S
C1934 C1935 1.524 . S
C1934 H1953 0.913 . S
C1935 H1911 0.950 . S
C1935 C1934 1.524 . S
C1935 C1936 1.415 . S
C1936 H1912 0.950 . S
C1936 C1931 1.363 . S
C1936 C1935 1.415 . S
C1937 H1913 0.951 . S
C1937 C1938 1.366 . S
C1937 C1939 1.388 . S
C1938 C1937 1.366 . S
C1938 C1942 1.385 . S
C1939 H1914 0.951 . S
C1939 C1937 1.388 . S
C1939 C1940 1.366 . S
C1940 C1939 1.366 . S
C1940 C1941 1.414 . S
C1940 C1943 1.499 . S
C1941 H1915 0.950 . S
C1941 C1940 1.414 . S
C1941 C1942 1.374 . S
C1942 H1916 0.950 . S
C1942 C1938 1.385 . S
C1942 C1941 1.374 . S
C1943 C1940 1.499 . S
C1943 C1944 1.373 . S
C1943 C1945 1.389 . S
C1944 H1917 0.950 . S
C1944 C1930 1.377 . S
C1944 C1943 1.373 . S
C1945 C1929 1.377 . S
C1945 C1943 1.389 . S
C1945 C1946 1.524 . S
C1946 C1945 1.524 . S
C1946 C1947 1.397 . S
C1946 C1951 1.363 . S
C1947 H1918 0.950 . S
C1947 C1946 1.397 . S
C1947 C1948 1.334 . S
C1948 H1919 0.950 . S
C1948 C1947 1.334 . S
C1948 C1949 1.287 . S
C1949 C1948 1.287 . S
C1949 C1950 1.524 . S
C1949 H1952 0.999 . S
C1950 H1920 0.950 . S
C1950 C1949 1.524 . S
C1950 C1951 1.415 . S
C1951 H1921 0.950 . S
C1951 C1946 1.363 . S
C1951 C1950 1.415 . S
H1952 C1949 0.999 . S
H1953 C1934 0.913 . S
H1954 C1972 0.951 . S
H1955 C1974 0.951 . S
H1956 C1976 0.950 . S
H1957 C1977 0.950 . S
H1958 C1979 0.950 . S
H1959 C1982 0.950 . S
H1960 C1983 0.950 . S
H1961 C1985 0.950 . S
H1962 C1986 0.950 . S
H1963 C1987 0.951 . S
H1964 C1989 0.951 . S
H1965 C1991 0.950 . S
H1966 C1992 0.950 . S
H1967 C1994 0.950 . S
H1968 C1997 0.950 . S
H1969 C1998 0.950 . S
H1970 C2000 0.950 . S
H1971 C2001 0.950 . S
C1972 H1954 0.951 . S
C1972 C1973 1.366 . S
C1972 C1974 1.388 . S
C1973 C1972 1.366 . S
C1973 C1977 1.385 . S
C1974 H1955 0.951 . S
C1974 C1972 1.388 . S
C1974 C1975 1.366 . S
C1975 C1974 1.366 . S
C1975 C1976 1.414 . S
C1975 C1978 1.499 . S
C1976 H1956 0.950 . S
C1976 C1975 1.414 . S
C1976 C1977 1.374 . S
C1977 H1957 0.950 . S
C1977 C1973 1.385 . S
C1977 C1976 1.374 . S
C1978 C1975 1.499 . S
C1978 C1979 1.373 . S
C1978 C1980 1.389 . S
C1979 H1958 0.950 . S
C1979 C1978 1.373 . S
C1979 C1995 1.377 . S
C1980 C1978 1.389 . S
C1980 C1981 1.524 . S
C1980 C1994 1.377 . S
C1981 C1980 1.524 . S
C1981 C1982 1.397 . S
C1981 C1986 1.363 . S
C1982 H1959 0.950 . S
C1982 C1981 1.397 . S
C1982 C1983 1.334 . S
C1983 H1960 0.950 . S
C1983 C1982 1.334 . S
C1983 C1984 1.287 . S
C1984 C1983 1.287 . S
C1984 C1985 1.524 . S
C1984 H2003 0.913 . S
C1985 H1961 0.950 . S
C1985 C1984 1.524 . S
C1985 C1986 1.415 . S
C1986 H1962 0.950 . S
C1986 C1981 1.363 . S
C1986 C1985 1.415 . S
C1987 H1963 0.951 . S
C1987 C1988 1.366 . S
C1987 C1989 1.388 . S
C1988 C1987 1.366 . S
C1988 C1992 1.385 . S
C1989 H1964 0.951 . S
C1989 C1987 1.388 . S
C1989 C1990 1.366 . S
C1990 C1989 1.366 . S
C1990 C1991 1.414 . S
C1990 C1993 1.499 . S
C1991 H1965 0.950 . S
C1991 C1990 1.414 . S
C1991 C1992 1.374 . S
C1992 H1966 0.950 . S
C1992 C1988 1.385 . S
C1992 C1991 1.374 . S
C1993 C1990 1.499 . S
C1993 C1994 1.373 . S
C1993 C1995 1.389 . S
C1994 H1967 0.950 . S
C1994 C1980 1.377 . S
C1994 C1993 1.373 . S
C1995 C1979 1.377 . S
C1995 C1993 1.389 . S
C1995 C1996 1.524 . S
C1996 C1995 1.524 . S
C1996 C1997 1.397 . S
C1996 C2001 1.363 . S
C1997 H1968 0.950 . S
C1997 C1996 1.397 . S
C1997 C1998 1.334 1_554 S
C1998 H1969 0.950 . S
C1998 C1997 1.334 1_556 S
C1998 C1999 1.287 1_556 S
C1999 C1998 1.287 1_554 S
C1999 C2000 1.524 . S
C1999 H2002 0.999 1_554 S
C2000 H1970 0.950 . S
C2000 C1999 1.524 . S
C2000 C2001 1.415 . S
C2001 H1971 0.950 . S
C2001 C1996 1.363 . S
C2001 C2000 1.415 . S
H2002 C1999 0.999 1_556 S
H2003 C1984 0.913 . S
H2004 C2022 0.951 . S
H2005 C2024 0.951 . S
H2006 C2026 0.950 . S
H2007 C2027 0.950 . S
H2008 C2029 0.950 . S
H2009 C2032 0.950 . S
H2010 C2033 0.950 . S
H2011 C2035 0.950 . S
H2012 C2036 0.950 . S
H2013 C2037 0.951 . S
H2014 C2039 0.951 . S
H2015 C2041 0.950 . S
H2016 C2042 0.950 . S
H2017 C2044 0.950 . S
H2018 C2047 0.950 . S
H2019 C2048 0.950 . S
H2020 C2050 0.950 . S
H2021 C2051 0.950 . S
C2022 H2004 0.951 . S
C2022 C2023 1.366 . S
C2022 C2024 1.388 1_655 S
C2023 C2022 1.366 . S
C2023 C2027 1.385 . S
C2024 H2005 0.951 . S
C2024 C2022 1.388 1_455 S
C2024 C2025 1.366 . S
C2025 C2024 1.366 . S
C2025 C2026 1.414 1_455 S
C2025 C2028 1.499 . S
C2026 H2006 0.950 . S
C2026 C2025 1.414 1_655 S
C2026 C2027 1.374 . S
C2027 H2007 0.950 . S
C2027 C2023 1.385 . S
C2027 C2026 1.374 . S
C2028 C2025 1.499 . S
C2028 C2029 1.373 . S
C2028 C2030 1.389 . S
C2029 H2008 0.950 . S
C2029 C2028 1.373 . S
C2029 C2045 1.377 . S
C2030 C2028 1.389 . S
C2030 C2031 1.524 . S
C2030 C2044 1.377 . S
C2031 C2030 1.524 . S
C2031 C2032 1.397 . S
C2031 C2036 1.363 . S
C2032 H2009 0.950 . S
C2032 C2031 1.397 . S
C2032 C2033 1.334 . S
C2033 H2010 0.950 . S
C2033 C2032 1.334 . S
C2033 C2034 1.287 . S
C2034 C2033 1.287 . S
C2034 C2035 1.524 . S
C2034 H2053 0.913 . S
C2035 H2011 0.950 . S
C2035 C2034 1.524 . S
C2035 C2036 1.415 . S
C2036 H2012 0.950 . S
C2036 C2031 1.363 . S
C2036 C2035 1.415 . S
C2037 H2013 0.951 . S
C2037 C2038 1.366 . S
C2037 C2039 1.388 . S
C2038 C2037 1.366 . S
C2038 C2042 1.385 . S
C2039 H2014 0.951 . S
C2039 C2037 1.388 . S
C2039 C2040 1.366 . S
C2040 C2039 1.366 . S
C2040 C2041 1.414 . S
C2040 C2043 1.499 . S
C2041 H2015 0.950 . S
C2041 C2040 1.414 . S
C2041 C2042 1.374 . S
C2042 H2016 0.950 . S
C2042 C2038 1.385 . S
C2042 C2041 1.374 . S
C2043 C2040 1.499 . S
C2043 C2044 1.373 . S
C2043 C2045 1.389 . S
C2044 H2017 0.950 . S
C2044 C2030 1.377 . S
C2044 C2043 1.373 . S
C2045 C2029 1.377 . S
C2045 C2043 1.389 . S
C2045 C2046 1.524 . S
C2046 C2045 1.524 . S
C2046 C2047 1.397 . S
C2046 C2051 1.363 . S
C2047 H2018 0.950 . S
C2047 C2046 1.397 . S
C2047 C2048 1.334 . S
C2048 H2019 0.950 . S
C2048 C2047 1.334 . S
C2048 C2049 1.287 . S
C2049 C2048 1.287 . S
C2049 C2050 1.524 . S
C2049 H2052 0.999 . S
C2050 H2020 0.950 . S
C2050 C2049 1.524 . S
C2050 C2051 1.415 . S
C2051 H2021 0.950 . S
C2051 C2046 1.363 . S
C2051 C2050 1.415 . S
H2052 C2049 0.999 . S
H2053 C2034 0.913 . S
H2054 C2072 0.951 . S
H2055 C2074 0.951 . S
H2056 C2076 0.950 . S
H2057 C2077 0.950 . S
H2058 C2079 0.950 . S
H2059 C2082 0.950 . S
H2060 C2083 0.950 . S
H2061 C2085 0.950 . S
H2062 C2086 0.950 . S
H2063 C2087 0.951 . S
H2064 C2089 0.951 . S
H2065 C2091 0.950 . S
H2066 C2092 0.950 . S
H2067 C2094 0.950 . S
H2068 C2097 0.950 . S
H2069 C2098 0.950 . S
H2070 C2100 0.950 . S
H2071 C2101 0.950 . S
C2072 H2054 0.951 . S
C2072 C2073 1.366 . S
C2072 C2074 1.388 . S
C2073 C2072 1.366 . S
C2073 C2077 1.385 . S
C2074 H2055 0.951 . S
C2074 C2072 1.388 . S
C2074 C2075 1.366 . S
C2075 C2074 1.366 . S
C2075 C2076 1.414 . S
C2075 C2078 1.499 . S
C2076 H2056 0.950 . S
C2076 C2075 1.414 . S
C2076 C2077 1.374 . S
C2077 H2057 0.950 . S
C2077 C2073 1.385 . S
C2077 C2076 1.374 . S
C2078 C2075 1.499 . S
C2078 C2079 1.373 . S
C2078 C2080 1.389 . S
C2079 H2058 0.950 . S
C2079 C2078 1.373 . S
C2079 C2095 1.377 . S
C2080 C2078 1.389 . S
C2080 C2081 1.524 . S
C2080 C2094 1.377 . S
C2081 C2080 1.524 . S
C2081 C2082 1.397 . S
C2081 C2086 1.363 . S
C2082 H2059 0.950 . S
C2082 C2081 1.397 . S
C2082 C2083 1.334 . S
C2083 H2060 0.950 . S
C2083 C2082 1.334 . S
C2083 C2084 1.287 . S
C2084 C2083 1.287 . S
C2084 C2085 1.524 . S
C2084 H2103 0.913 . S
C2085 H2061 0.950 . S
C2085 C2084 1.524 . S
C2085 C2086 1.415 . S
C2086 H2062 0.950 . S
C2086 C2081 1.363 . S
C2086 C2085 1.415 . S
C2087 H2063 0.951 . S
C2087 C2088 1.366 . S
C2087 C2089 1.388 . S
C2088 C2087 1.366 . S
C2088 C2092 1.385 . S
C2089 H2064 0.951 . S
C2089 C2087 1.388 . S
C2089 C2090 1.366 . S
C2090 C2089 1.366 . S
C2090 C2091 1.414 . S
C2090 C2093 1.499 . S
C2091 H2065 0.950 . S
C2091 C2090 1.414 . S
C2091 C2092 1.374 . S
C2092 H2066 0.950 . S
C2092 C2088 1.385 . S
C2092 C2091 1.374 . S
C2093 C2090 1.499 . S
C2093 C2094 1.373 . S
C2093 C2095 1.389 . S
C2094 H2067 0.950 . S
C2094 C2080 1.377 . S
C2094 C2093 1.373 . S
C2095 C2079 1.377 . S
C2095 C2093 1.389 . S
C2095 C2096 1.524 . S
C2096 C2095 1.524 . S
C2096 C2097 1.397 . S
C2096 C2101 1.363 . S
C2097 H2068 0.950 . S
C2097 C2096 1.397 . S
C2097 C2098 1.334 . S
C2098 H2069 0.950 . S
C2098 C2097 1.334 . S
C2098 C2099 1.287 . S
C2099 C2098 1.287 . S
C2099 C2100 1.524 . S
C2099 H2102 0.999 . S
C2100 H2070 0.950 . S
C2100 C2099 1.524 . S
C2100 C2101 1.415 . S
C2101 H2071 0.950 . S
C2101 C2096 1.363 . S
C2101 C2100 1.415 . S
H2102 C2099 0.999 . S
H2103 C2084 0.913 . S
H2104 C2122 0.951 . S
H2105 C2124 0.951 1_565 S
H2106 C2126 0.950 . S
H2107 C2127 0.950 . S
H2108 C2129 0.950 . S
H2109 C2132 0.950 . S
H2110 C2133 0.950 . S
H2111 C2135 0.950 . S
H2112 C2136 0.950 . S
H2113 C2137 0.951 . S
H2114 C2139 0.951 . S
H2115 C2141 0.950 . S
H2116 C2142 0.950 . S
H2117 C2144 0.950 . S
H2118 C2147 0.950 . S
H2119 C2148 0.950 . S
H2120 C2150 0.950 . S
H2121 C2151 0.950 . S
C2122 H2104 0.951 . S
C2122 C2123 1.366 . S
C2122 C2124 1.388 . S
C2123 C2122 1.366 . S
C2123 C2127 1.385 . S
C2124 H2105 0.951 1_545 S
C2124 C2122 1.388 . S
C2124 C2125 1.366 . S
C2125 C2124 1.366 . S
C2125 C2126 1.414 . S
C2125 C2128 1.499 1_545 S
C2126 H2106 0.950 . S
C2126 C2125 1.414 . S
C2126 C2127 1.374 . S
C2127 H2107 0.950 . S
C2127 C2123 1.385 . S
C2127 C2126 1.374 . S
C2128 C2125 1.499 1_565 S
C2128 C2129 1.373 . S
C2128 C2130 1.389 . S
C2129 H2108 0.950 . S
C2129 C2128 1.373 . S
C2129 C2145 1.377 . S
C2130 C2128 1.389 . S
C2130 C2131 1.524 . S
C2130 C2144 1.377 . S
C2131 C2130 1.524 . S
C2131 C2132 1.397 . S
C2131 C2136 1.363 . S
C2132 H2109 0.950 . S
C2132 C2131 1.397 . S
C2132 C2133 1.334 . S
C2133 H2110 0.950 . S
C2133 C2132 1.334 . S
C2133 C2134 1.287 . S
C2134 C2133 1.287 . S
C2134 C2135 1.524 . S
C2134 H2153 0.913 . S
C2135 H2111 0.950 . S
C2135 C2134 1.524 . S
C2135 C2136 1.415 . S
C2136 H2112 0.950 . S
C2136 C2131 1.363 . S
C2136 C2135 1.415 . S
C2137 H2113 0.951 . S
C2137 C2138 1.366 . S
C2137 C2139 1.388 . S
C2138 C2137 1.366 . S
C2138 C2142 1.385 . S
C2139 H2114 0.951 . S
C2139 C2137 1.388 . S
C2139 C2140 1.366 . S
C2140 C2139 1.366 . S
C2140 C2141 1.414 . S
C2140 C2143 1.499 . S
C2141 H2115 0.950 . S
C2141 C2140 1.414 . S
C2141 C2142 1.374 . S
C2142 H2116 0.950 . S
C2142 C2138 1.385 . S
C2142 C2141 1.374 . S
C2143 C2140 1.499 . S
C2143 C2144 1.373 . S
C2143 C2145 1.389 . S
C2144 H2117 0.950 . S
C2144 C2130 1.377 . S
C2144 C2143 1.373 . S
C2145 C2129 1.377 . S
C2145 C2143 1.389 . S
C2145 C2146 1.524 . S
C2146 C2145 1.524 . S
C2146 C2147 1.397 . S
C2146 C2151 1.363 . S
C2147 H2118 0.950 . S
C2147 C2146 1.397 . S
C2147 C2148 1.334 . S
C2148 H2119 0.950 . S
C2148 C2147 1.334 . S
C2148 C2149 1.287 . S
C2149 C2148 1.287 . S
C2149 C2150 1.524 . S
C2149 H2152 0.999 . S
C2150 H2120 0.950 . S
C2150 C2149 1.524 . S
C2150 C2151 1.415 . S
C2151 H2121 0.950 . S
C2151 C2146 1.363 . S
C2151 C2150 1.415 . S
H2152 C2149 0.999 . S
H2153 C2134 0.913 . S
H2154 C2172 0.951 . S
H2155 C2174 0.951 . S
H2156 C2176 0.950 . S
H2157 C2177 0.950 . S
H2158 C2179 0.950 . S
H2159 C2182 0.950 . S
H2160 C2183 0.950 . S
H2161 C2185 0.950 . S
H2162 C2186 0.950 . S
H2163 C2187 0.951 . S
H2164 C2189 0.951 . S
H2165 C2191 0.950 . S
H2166 C2192 0.950 . S
H2167 C2194 0.950 . S
H2168 C2197 0.950 . S
H2169 C2198 0.950 . S
H2170 C2200 0.950 . S
H2171 C2201 0.950 . S
C2172 H2154 0.951 . S
C2172 C2173 1.366 . S
C2172 C2174 1.388 . S
C2173 C2172 1.366 . S
C2173 C2177 1.385 . S
C2174 H2155 0.951 . S
C2174 C2172 1.388 . S
C2174 C2175 1.366 . S
C2175 C2174 1.366 . S
C2175 C2176 1.414 . S
C2175 C2178 1.499 . S
C2176 H2156 0.950 . S
C2176 C2175 1.414 . S
C2176 C2177 1.374 . S
C2177 H2157 0.950 . S
C2177 C2173 1.385 . S
C2177 C2176 1.374 . S
C2178 C2175 1.499 . S
C2178 C2179 1.373 . S
C2178 C2180 1.389 . S
C2179 H2158 0.950 . S
C2179 C2178 1.373 . S
C2179 C2195 1.377 . S
C2180 C2178 1.389 . S
C2180 C2181 1.524 . S
C2180 C2194 1.377 . S
C2181 C2180 1.524 . S
C2181 C2182 1.397 . S
C2181 C2186 1.363 . S
C2182 H2159 0.950 . S
C2182 C2181 1.397 . S
C2182 C2183 1.334 . S
C2183 H2160 0.950 . S
C2183 C2182 1.334 . S
C2183 C2184 1.287 . S
C2184 C2183 1.287 . S
C2184 C2185 1.524 . S
C2184 H2203 0.913 . S
C2185 H2161 0.950 . S
C2185 C2184 1.524 . S
C2185 C2186 1.415 . S
C2186 H2162 0.950 . S
C2186 C2181 1.363 . S
C2186 C2185 1.415 . S
C2187 H2163 0.951 . S
C2187 C2188 1.366 . S
C2187 C2189 1.388 . S
C2188 C2187 1.366 . S
C2188 C2192 1.385 . S
C2189 H2164 0.951 . S
C2189 C2187 1.388 . S
C2189 C2190 1.366 . S
C2190 C2189 1.366 . S
C2190 C2191 1.414 . S
C2190 C2193 1.499 . S
C2191 H2165 0.950 . S
C2191 C2190 1.414 . S
C2191 C2192 1.374 . S
C2192 H2166 0.950 . S
C2192 C2188 1.385 . S
C2192 C2191 1.374 . S
C2193 C2190 1.499 . S
C2193 C2194 1.373 . S
C2193 C2195 1.389 . S
C2194 H2167 0.950 . S
C2194 C2180 1.377 . S
C2194 C2193 1.373 . S
C2195 C2179 1.377 . S
C2195 C2193 1.389 . S
C2195 C2196 1.524 . S
C2196 C2195 1.524 . S
C2196 C2197 1.397 . S
C2196 C2201 1.363 . S
C2197 H2168 0.950 . S
C2197 C2196 1.397 . S
C2197 C2198 1.334 . S
C2198 H2169 0.950 . S
C2198 C2197 1.334 . S
C2198 C2199 1.287 . S
C2199 C2198 1.287 . S
C2199 C2200 1.524 . S
C2199 H2202 0.999 . S
C2200 H2170 0.950 . S
C2200 C2199 1.524 . S
C2200 C2201 1.415 . S
C2201 H2171 0.950 . S
C2201 C2196 1.363 . S
C2201 C2200 1.415 . S
H2202 C2199 0.999 . S
H2203 C2184 0.913 . S
H2204 C2222 0.951 . S
H2205 C2224 0.951 . S
H2206 C2226 0.950 . S
H2207 C2227 0.950 . S
H2208 C2229 0.950 . S
H2209 C2232 0.950 . S
H2210 C2233 0.950 . S
H2211 C2235 0.950 . S
H2212 C2236 0.950 . S
H2213 C2237 0.951 . S
H2214 C2239 0.951 . S
H2215 C2241 0.950 . S
H2216 C2242 0.950 . S
H2217 C2244 0.950 . S
H2218 C2247 0.950 . S
H2219 C2248 0.950 . S
H2220 C2250 0.950 . S
H2221 C2251 0.950 . S
C2222 H2204 0.951 . S
C2222 C2223 1.366 . S
C2222 C2224 1.388 . S
C2223 C2222 1.366 . S
C2223 C2227 1.385 . S
C2224 H2205 0.951 . S
C2224 C2222 1.388 . S
C2224 C2225 1.366 . S
C2225 C2224 1.366 . S
C2225 C2226 1.414 . S
C2225 C2228 1.499 . S
C2226 H2206 0.950 . S
C2226 C2225 1.414 . S
C2226 C2227 1.374 . S
C2227 H2207 0.950 . S
C2227 C2223 1.385 . S
C2227 C2226 1.374 . S
C2228 C2225 1.499 . S
C2228 C2229 1.373 . S
C2228 C2230 1.389 . S
C2229 H2208 0.950 . S
C2229 C2228 1.373 . S
C2229 C2245 1.377 . S
C2230 C2228 1.389 . S
C2230 C2231 1.524 . S
C2230 C2244 1.377 . S
C2231 C2230 1.524 . S
C2231 C2232 1.397 . S
C2231 C2236 1.363 . S
C2232 H2209 0.950 . S
C2232 C2231 1.397 . S
C2232 C2233 1.334 . S
C2233 H2210 0.950 . S
C2233 C2232 1.334 . S
C2233 C2234 1.287 . S
C2234 C2233 1.287 . S
C2234 C2235 1.524 . S
C2234 H2253 0.913 . S
C2235 H2211 0.950 . S
C2235 C2234 1.524 . S
C2235 C2236 1.415 . S
C2236 H2212 0.950 . S
C2236 C2231 1.363 . S
C2236 C2235 1.415 . S
C2237 H2213 0.951 . S
C2237 C2238 1.366 . S
C2237 C2239 1.388 . S
C2238 C2237 1.366 . S
C2238 C2242 1.385 . S
C2239 H2214 0.951 . S
C2239 C2237 1.388 . S
C2239 C2240 1.366 . S
C2240 C2239 1.366 . S
C2240 C2241 1.414 . S
C2240 C2243 1.499 . S
C2241 H2215 0.950 . S
C2241 C2240 1.414 . S
C2241 C2242 1.374 . S
C2242 H2216 0.950 . S
C2242 C2238 1.385 . S
C2242 C2241 1.374 . S
C2243 C2240 1.499 . S
C2243 C2244 1.373 . S
C2243 C2245 1.389 . S
C2244 H2217 0.950 . S
C2244 C2230 1.377 . S
C2244 C2243 1.373 . S
C2245 C2229 1.377 . S
C2245 C2243 1.389 . S
C2245 C2246 1.524 . S
C2246 C2245 1.524 . S
C2246 C2247 1.397 . S
C2246 C2251 1.363 . S
C2247 H2218 0.950 . S
C2247 C2246 1.397 . S
C2247 C2248 1.334 . S
C2248 H2219 0.950 . S
C2248 C2247 1.334 . S
C2248 C2249 1.287 . S
C2249 C2248 1.287 . S
C2249 C2250 1.524 . S
C2249 H2252 0.999 . S
C2250 H2220 0.950 . S
C2250 C2249 1.524 . S
C2250 C2251 1.415 . S
C2251 H2221 0.950 . S
C2251 C2246 1.363 . S
C2251 C2250 1.415 . S
H2252 C2249 0.999 . S
H2253 C2234 0.913 . S
H2254 C2272 0.951 . S
H2255 C2274 0.951 . S
H2256 C2276 0.950 . S
H2257 C2277 0.950 . S
H2258 C2279 0.950 . S
H2259 C2282 0.950 . S
H2260 C2283 0.950 . S
H2261 C2285 0.950 . S
H2262 C2286 0.950 . S
H2263 C2287 0.951 . S
H2264 C2289 0.951 . S
H2265 C2291 0.950 . S
H2266 C2292 0.950 . S
H2267 C2294 0.950 . S
H2268 C2297 0.950 . S
H2269 C2298 0.950 . S
H2270 C2300 0.950 . S
H2271 C2301 0.950 . S
C2272 H2254 0.951 . S
C2272 C2273 1.366 . S
C2272 C2274 1.388 . S
C2273 C2272 1.366 . S
C2273 C2277 1.385 . S
C2274 H2255 0.951 . S
C2274 C2272 1.388 . S
C2274 C2275 1.366 . S
C2275 C2274 1.366 . S
C2275 C2276 1.414 . S
C2275 C2278 1.499 . S
C2276 H2256 0.950 . S
C2276 C2275 1.414 . S
C2276 C2277 1.374 . S
C2277 H2257 0.950 . S
C2277 C2273 1.385 . S
C2277 C2276 1.374 . S
C2278 C2275 1.499 . S
C2278 C2279 1.373 . S
C2278 C2280 1.389 . S
C2279 H2258 0.950 . S
C2279 C2278 1.373 . S
C2279 C2295 1.377 . S
C2280 C2278 1.389 . S
C2280 C2281 1.524 . S
C2280 C2294 1.377 . S
C2281 C2280 1.524 . S
C2281 C2282 1.397 . S
C2281 C2286 1.363 . S
C2282 H2259 0.950 . S
C2282 C2281 1.397 . S
C2282 C2283 1.334 . S
C2283 H2260 0.950 . S
C2283 C2282 1.334 . S
C2283 C2284 1.287 . S
C2284 C2283 1.287 . S
C2284 C2285 1.524 . S
C2284 H2303 0.913 . S
C2285 H2261 0.950 . S
C2285 C2284 1.524 . S
C2285 C2286 1.415 . S
C2286 H2262 0.950 . S
C2286 C2281 1.363 . S
C2286 C2285 1.415 . S
C2287 H2263 0.951 . S
C2287 C2288 1.366 . S
C2287 C2289 1.388 . S
C2288 C2287 1.366 . S
C2288 C2292 1.385 . S
C2289 H2264 0.951 . S
C2289 C2287 1.388 . S
C2289 C2290 1.366 . S
C2290 C2289 1.366 . S
C2290 C2291 1.414 . S
C2290 C2293 1.499 . S
C2291 H2265 0.950 . S
C2291 C2290 1.414 . S
C2291 C2292 1.374 . S
C2292 H2266 0.950 . S
C2292 C2288 1.385 . S
C2292 C2291 1.374 . S
C2293 C2290 1.499 . S
C2293 C2294 1.373 . S
C2293 C2295 1.389 . S
C2294 H2267 0.950 . S
C2294 C2280 1.377 . S
C2294 C2293 1.373 . S
C2295 C2279 1.377 . S
C2295 C2293 1.389 . S
C2295 C2296 1.524 . S
C2296 C2295 1.524 . S
C2296 C2297 1.397 . S
C2296 C2301 1.363 . S
C2297 H2268 0.950 . S
C2297 C2296 1.397 . S
C2297 C2298 1.334 . S
C2298 H2269 0.950 . S
C2298 C2297 1.334 . S
C2298 C2299 1.287 . S
C2299 C2298 1.287 . S
C2299 C2300 1.524 . S
C2299 H2302 0.999 . S
C2300 H2270 0.950 . S
C2300 C2299 1.524 . S
C2300 C2301 1.415 . S
C2301 H2271 0.950 . S
C2301 C2296 1.363 . S
C2301 C2300 1.415 . S
H2302 C2299 0.999 . S
H2303 C2284 0.913 . S
H2304 C2322 0.951 . S
H2305 C2324 0.951 . S
H2306 C2326 0.950 . S
H2307 C2327 0.950 . S
H2308 C2329 0.950 . S
H2309 C2332 0.950 . S
H2310 C2333 0.950 . S
H2311 C2335 0.950 . S
H2312 C2336 0.950 . S
H2313 C2337 0.951 . S
H2314 C2339 0.951 . S
H2315 C2341 0.950 . S
H2316 C2342 0.950 . S
H2317 C2344 0.950 . S
H2318 C2347 0.950 . S
H2319 C2348 0.950 . S
H2320 C2350 0.950 . S
H2321 C2351 0.950 . S
C2322 H2304 0.951 . S
C2322 C2323 1.366 . S
C2322 C2324 1.388 . S
C2323 C2322 1.366 . S
C2323 C2327 1.385 . S
C2324 H2305 0.951 . S
C2324 C2322 1.388 . S
C2324 C2325 1.366 . S
C2325 C2324 1.366 . S
C2325 C2326 1.414 . S
C2325 C2328 1.499 . S
C2326 H2306 0.950 . S
C2326 C2325 1.414 . S
C2326 C2327 1.374 . S
C2327 H2307 0.950 . S
C2327 C2323 1.385 . S
C2327 C2326 1.374 . S
C2328 C2325 1.499 . S
C2328 C2329 1.373 . S
C2328 C2330 1.389 . S
C2329 H2308 0.950 . S
C2329 C2328 1.373 . S
C2329 C2345 1.377 . S
C2330 C2328 1.389 . S
C2330 C2331 1.524 . S
C2330 C2344 1.377 . S
C2331 C2330 1.524 . S
C2331 C2332 1.397 . S
C2331 C2336 1.363 . S
C2332 H2309 0.950 . S
C2332 C2331 1.397 . S
C2332 C2333 1.334 . S
C2333 H2310 0.950 . S
C2333 C2332 1.334 . S
C2333 C2334 1.287 . S
C2334 C2333 1.287 . S
C2334 C2335 1.524 . S
C2334 H2353 0.913 . S
C2335 H2311 0.950 . S
C2335 C2334 1.524 . S
C2335 C2336 1.415 . S
C2336 H2312 0.950 . S
C2336 C2331 1.363 . S
C2336 C2335 1.415 . S
C2337 H2313 0.951 . S
C2337 C2338 1.366 . S
C2337 C2339 1.388 . S
C2338 C2337 1.366 . S
C2338 C2342 1.385 . S
C2339 H2314 0.951 . S
C2339 C2337 1.388 . S
C2339 C2340 1.366 . S
C2340 C2339 1.366 . S
C2340 C2341 1.414 . S
C2340 C2343 1.499 . S
C2341 H2315 0.950 . S
C2341 C2340 1.414 . S
C2341 C2342 1.374 . S
C2342 H2316 0.950 . S
C2342 C2338 1.385 . S
C2342 C2341 1.374 . S
C2343 C2340 1.499 . S
C2343 C2344 1.373 . S
C2343 C2345 1.389 . S
C2344 H2317 0.950 . S
C2344 C2330 1.377 . S
C2344 C2343 1.373 . S
C2345 C2329 1.377 . S
C2345 C2343 1.389 . S
C2345 C2346 1.524 . S
C2346 C2345 1.524 . S
C2346 C2347 1.397 . S
C2346 C2351 1.363 . S
C2347 H2318 0.950 . S
C2347 C2346 1.397 . S
C2347 C2348 1.334 . S
C2348 H2319 0.950 . S
C2348 C2347 1.334 . S
C2348 C2349 1.287 . S
C2349 C2348 1.287 . S
C2349 C2350 1.524 . S
C2349 H2352 0.999 . S
C2350 H2320 0.950 . S
C2350 C2349 1.524 . S
C2350 C2351 1.415 . S
C2351 H2321 0.950 . S
C2351 C2346 1.363 . S
C2351 C2350 1.415 . S
H2352 C2349 0.999 . S
H2353 C2334 0.913 . S
H2354 C2372 0.951 . S
H2355 C2374 0.951 . S
H2356 C2376 0.950 . S
H2357 C2377 0.950 . S
H2358 C2379 0.950 . S
H2359 C2382 0.950 . S
H2360 C2383 0.950 . S
H2361 C2385 0.950 . S
H2362 C2386 0.950 . S
H2363 C2387 0.951 . S
H2364 C2389 0.951 . S
H2365 C2391 0.950 . S
H2366 C2392 0.950 . S
H2367 C2394 0.950 . S
H2368 C2397 0.950 . S
H2369 C2398 0.950 . S
H2370 C2400 0.950 . S
H2371 C2401 0.950 . S
C2372 H2354 0.951 . S
C2372 C2373 1.366 . S
C2372 C2374 1.388 . S
C2373 C2372 1.366 . S
C2373 C2377 1.385 . S
C2374 H2355 0.951 . S
C2374 C2372 1.388 . S
C2374 C2375 1.366 . S
C2375 C2374 1.366 . S
C2375 C2376 1.414 . S
C2375 C2378 1.499 . S
C2376 H2356 0.950 . S
C2376 C2375 1.414 . S
C2376 C2377 1.374 . S
C2377 H2357 0.950 . S
C2377 C2373 1.385 . S
C2377 C2376 1.374 . S
C2378 C2375 1.499 . S
C2378 C2379 1.373 . S
C2378 C2380 1.389 . S
C2379 H2358 0.950 . S
C2379 C2378 1.373 . S
C2379 C2395 1.377 . S
C2380 C2378 1.389 . S
C2380 C2381 1.524 . S
C2380 C2394 1.377 . S
C2381 C2380 1.524 . S
C2381 C2382 1.397 . S
C2381 C2386 1.363 . S
C2382 H2359 0.950 . S
C2382 C2381 1.397 . S
C2382 C2383 1.334 . S
C2383 H2360 0.950 . S
C2383 C2382 1.334 . S
C2383 C2384 1.287 . S
C2384 C2383 1.287 . S
C2384 C2385 1.524 . S
C2384 H2403 0.913 . S
C2385 H2361 0.950 . S
C2385 C2384 1.524 . S
C2385 C2386 1.415 . S
C2386 H2362 0.950 . S
C2386 C2381 1.363 . S
C2386 C2385 1.415 . S
C2387 H2363 0.951 . S
C2387 C2388 1.366 . S
C2387 C2389 1.388 . S
C2388 C2387 1.366 . S
C2388 C2392 1.385 . S
C2389 H2364 0.951 . S
C2389 C2387 1.388 . S
C2389 C2390 1.366 . S
C2390 C2389 1.366 . S
C2390 C2391 1.414 . S
C2390 C2393 1.499 . S
C2391 H2365 0.950 . S
C2391 C2390 1.414 . S
C2391 C2392 1.374 . S
C2392 H2366 0.950 . S
C2392 C2388 1.385 . S
C2392 C2391 1.374 . S
C2393 C2390 1.499 . S
C2393 C2394 1.373 . S
C2393 C2395 1.389 . S
C2394 H2367 0.950 . S
C2394 C2380 1.377 . S
C2394 C2393 1.373 . S
C2395 C2379 1.377 . S
C2395 C2393 1.389 . S
C2395 C2396 1.524 . S
C2396 C2395 1.524 . S
C2396 C2397 1.397 . S
C2396 C2401 1.363 . S
C2397 H2368 0.950 . S
C2397 C2396 1.397 . S
C2397 C2398 1.334 . S
C2398 H2369 0.950 . S
C2398 C2397 1.334 . S
C2398 C2399 1.287 . S
C2399 C2398 1.287 . S
C2399 C2400 1.524 . S
C2399 H2402 0.999 . S
C2400 H2370 0.950 . S
C2400 C2399 1.524 . S
C2400 C2401 1.415 . S
C2401 H2371 0.950 . S
C2401 C2396 1.363 . S
C2401 C2400 1.415 . S
H2402 C2399 0.999 . S
H2403 C2384 0.913 . S
H2404 C2422 0.951 . S
H2405 C2424 0.951 . S
H2406 C2426 0.950 . S
H2407 C2427 0.950 . S
H2408 C2429 0.950 . S
H2409 C2432 0.950 . S
H2410 C2433 0.950 . S
H2411 C2435 0.950 . S
H2412 C2436 0.950 . S
H2413 C2437 0.951 . S
H2414 C2439 0.951 . S
H2415 C2441 0.950 . S
H2416 C2442 0.950 . S
H2417 C2444 0.950 . S
H2418 C2447 0.950 . S
H2419 C2448 0.950 . S
H2420 C2450 0.950 . S
H2421 C2451 0.950 . S
C2422 H2404 0.951 . S
C2422 C2423 1.366 . S
C2422 C2424 1.388 . S
C2423 C2422 1.366 . S
C2423 C2427 1.385 . S
C2424 H2405 0.951 . S
C2424 C2422 1.388 . S
C2424 C2425 1.366 . S
C2425 C2424 1.366 . S
C2425 C2426 1.414 . S
C2425 C2428 1.499 . S
C2426 H2406 0.950 . S
C2426 C2425 1.414 . S
C2426 C2427 1.374 . S
C2427 H2407 0.950 . S
C2427 C2423 1.385 . S
C2427 C2426 1.374 . S
C2428 C2425 1.499 . S
C2428 C2429 1.373 . S
C2428 C2430 1.389 . S
C2429 H2408 0.950 . S
C2429 C2428 1.373 . S
C2429 C2445 1.377 . S
C2430 C2428 1.389 . S
C2430 C2431 1.524 . S
C2430 C2444 1.377 . S
C2431 C2430 1.524 . S
C2431 C2432 1.397 . S
C2431 C2436 1.363 . S
C2432 H2409 0.950 . S
C2432 C2431 1.397 . S
C2432 C2433 1.334 . S
C2433 H2410 0.950 . S
C2433 C2432 1.334 . S
C2433 C2434 1.287 . S
C2434 C2433 1.287 . S
C2434 C2435 1.524 . S
C2434 H2453 0.913 . S
C2435 H2411 0.950 . S
C2435 C2434 1.524 . S
C2435 C2436 1.415 . S
C2436 H2412 0.950 . S
C2436 C2431 1.363 . S
C2436 C2435 1.415 . S
C2437 H2413 0.951 . S
C2437 C2438 1.366 . S
C2437 C2439 1.388 . S
C2438 C2437 1.366 . S
C2438 C2442 1.385 . S
C2439 H2414 0.951 . S
C2439 C2437 1.388 . S
C2439 C2440 1.366 . S
C2440 C2439 1.366 . S
C2440 C2441 1.414 . S
C2440 C2443 1.499 . S
C2441 H2415 0.950 . S
C2441 C2440 1.414 . S
C2441 C2442 1.374 . S
C2442 H2416 0.950 . S
C2442 C2438 1.385 . S
C2442 C2441 1.374 . S
C2443 C2440 1.499 . S
C2443 C2444 1.373 . S
C2443 C2445 1.389 . S
C2444 H2417 0.950 . S
C2444 C2430 1.377 . S
C2444 C2443 1.373 . S
C2445 C2429 1.377 . S
C2445 C2443 1.389 . S
C2445 C2446 1.524 . S
C2446 C2445 1.524 . S
C2446 C2447 1.397 . S
C2446 C2451 1.363 . S
C2447 H2418 0.950 . S
C2447 C2446 1.397 . S
C2447 C2448 1.334 . S
C2448 H2419 0.950 . S
C2448 C2447 1.334 . S
C2448 C2449 1.287 . S
C2449 C2448 1.287 . S
C2449 C2450 1.524 . S
C2449 H2452 0.999 . S
C2450 H2420 0.950 . S
C2450 C2449 1.524 . S
C2450 C2451 1.415 . S
C2451 H2421 0.950 . S
C2451 C2446 1.363 . S
C2451 C2450 1.415 . S
H2452 C2449 0.999 . S
H2453 C2434 0.913 . S
H2454 C2472 0.951 . S
H2455 C2474 0.951 . S
H2456 C2476 0.950 1_565 S
H2457 C2477 0.950 . S
H2458 C2479 0.950 . S
H2459 C2482 0.946 1_565 S
H2460 C2483 0.950 . S
H2461 C2485 0.950 . S
H2462 C2486 0.950 . S
H2463 C2487 0.951 . S
H2464 C2489 0.951 . S
H2465 C2491 0.950 . S
H2466 C2492 0.950 . S
H2467 C2494 0.950 . S
H2468 C2497 0.950 . S
H2469 C2498 0.950 . S
H2470 C2500 0.950 . S
H2471 C2501 0.950 . S
C2472 H2454 0.951 . S
C2472 C2473 1.366 . S
C2472 C2474 1.388 . S
C2473 C2472 1.366 . S
C2473 C2477 1.385 . S
C2474 H2455 0.951 . S
C2474 C2472 1.388 . S
C2474 C2475 1.366 . S
C2475 C2474 1.366 . S
C2475 C2476 1.414 . S
C2475 C2478 1.498 1_545 S
C2476 H2456 0.950 1_545 S
C2476 C2475 1.414 . S
C2476 C2477 1.374 . S
C2477 H2457 0.950 . S
C2477 C2473 1.385 . S
C2477 C2476 1.374 . S
C2478 C2475 1.498 1_565 S
C2478 C2479 1.373 . S
C2478 C2480 1.389 . S
C2479 H2458 0.950 . S
C2479 C2478 1.373 . S
C2479 C2495 1.377 . S
C2480 C2478 1.389 . S
C2480 C2481 1.524 . S
C2480 C2494 1.377 . S
C2481 C2480 1.524 . S
C2481 C2482 1.390 1_565 S
C2481 C2486 1.363 . S
C2482 H2459 0.946 1_545 S
C2482 C2481 1.390 1_545 S
C2482 C2483 1.344 . S
C2483 H2460 0.950 . S
C2483 C2482 1.344 . S
C2483 C2484 1.287 . S
C2484 C2483 1.287 . S
C2484 C2485 1.524 . S
C2484 H2503 0.913 . S
C2485 H2461 0.950 . S
C2485 C2484 1.524 . S
C2485 C2486 1.415 1_545 S
C2486 H2462 0.950 . S
C2486 C2481 1.363 . S
C2486 C2485 1.415 1_565 S
C2487 H2463 0.951 . S
C2487 C2488 1.366 . S
C2487 C2489 1.388 . S
C2488 C2487 1.366 . S
C2488 C2492 1.385 . S
C2489 H2464 0.951 . S
C2489 C2487 1.388 . S
C2489 C2490 1.366 . S
C2490 C2489 1.366 . S
C2490 C2491 1.414 . S
C2490 C2493 1.499 . S
C2491 H2465 0.950 . S
C2491 C2490 1.414 . S
C2491 C2492 1.374 . S
C2492 H2466 0.950 . S
C2492 C2488 1.385 . S
C2492 C2491 1.374 . S
C2493 C2490 1.499 . S
C2493 C2494 1.373 . S
C2493 C2495 1.389 . S
C2494 H2467 0.950 . S
C2494 C2480 1.377 . S
C2494 C2493 1.373 . S
C2495 C2479 1.377 . S
C2495 C2493 1.389 . S
C2495 C2496 1.524 . S
C2496 C2495 1.524 . S
C2496 C2497 1.397 . S
C2496 C2501 1.363 . S
C2497 H2468 0.950 . S
C2497 C2496 1.397 . S
C2497 C2498 1.334 . S
C2498 H2469 0.950 . S
C2498 C2497 1.334 . S
C2498 C2499 1.287 . S
C2499 C2498 1.287 . S
C2499 C2500 1.524 . S
C2499 H2502 0.999 . S
C2500 H2470 0.950 . S
C2500 C2499 1.524 . S
C2500 C2501 1.415 . S
C2501 H2471 0.950 . S
C2501 C2496 1.363 . S
C2501 C2500 1.415 . S
H2502 C2499 0.999 . S
H2503 C2484 0.913 . S
H2504 C2522 0.951 . S
H2505 C2524 0.951 . S
H2506 C2526 0.950 . S
H2507 C2527 0.950 . S
H2508 C2529 0.950 . S
H2509 C2532 0.950 . S
H2510 C2533 0.950 . S
H2511 C2535 0.950 . S
H2512 C2536 0.950 . S
H2513 C2537 0.951 . S
H2514 C2539 0.951 . S
H2515 C2541 0.950 . S
H2516 C2542 0.950 . S
H2517 C2544 0.950 . S
H2518 C2547 0.950 . S
H2519 C2548 0.950 . S
H2520 C2550 0.950 . S
H2521 C2551 0.950 . S
C2522 H2504 0.951 . S
C2522 C2523 1.366 . S
C2522 C2524 1.388 1_655 S
C2523 C2522 1.366 . S
C2523 C2527 1.385 . S
C2524 H2505 0.951 . S
C2524 C2522 1.388 1_455 S
C2524 C2525 1.366 . S
C2525 C2524 1.366 . S
C2525 C2526 1.414 1_455 S
C2525 C2528 1.499 . S
C2526 H2506 0.950 . S
C2526 C2525 1.414 1_655 S
C2526 C2527 1.374 . S
C2527 H2507 0.950 . S
C2527 C2523 1.385 . S
C2527 C2526 1.374 . S
C2528 C2525 1.499 . S
C2528 C2529 1.373 . S
C2528 C2530 1.389 . S
C2529 H2508 0.950 . S
C2529 C2528 1.373 . S
C2529 C2545 1.377 . S
C2530 C2528 1.389 . S
C2530 C2531 1.524 . S
C2530 C2544 1.377 . S
C2531 C2530 1.524 . S
C2531 C2532 1.397 . S
C2531 C2536 1.363 . S
C2532 H2509 0.950 . S
C2532 C2531 1.397 . S
C2532 C2533 1.334 . S
C2533 H2510 0.950 . S
C2533 C2532 1.334 . S
C2533 C2534 1.287 . S
C2534 C2533 1.287 . S
C2534 C2535 1.524 . S
C2534 H2553 0.913 . S
C2535 H2511 0.950 . S
C2535 C2534 1.524 . S
C2535 C2536 1.415 . S
C2536 H2512 0.950 . S
C2536 C2531 1.363 . S
C2536 C2535 1.415 . S
C2537 H2513 0.951 . S
C2537 C2538 1.366 . S
C2537 C2539 1.388 . S
C2538 C2537 1.366 . S
C2538 C2542 1.385 . S
C2539 H2514 0.951 . S
C2539 C2537 1.388 . S
C2539 C2540 1.366 . S
C2540 C2539 1.366 . S
C2540 C2541 1.414 . S
C2540 C2543 1.499 . S
C2541 H2515 0.950 . S
C2541 C2540 1.414 . S
C2541 C2542 1.374 . S
C2542 H2516 0.950 . S
C2542 C2538 1.385 . S
C2542 C2541 1.374 . S
C2543 C2540 1.499 . S
C2543 C2544 1.373 . S
C2543 C2545 1.389 . S
C2544 H2517 0.950 . S
C2544 C2530 1.377 . S
C2544 C2543 1.373 . S
C2545 C2529 1.377 . S
C2545 C2543 1.389 . S
C2545 C2546 1.524 . S
C2546 C2545 1.524 . S
C2546 C2547 1.397 . S
C2546 C2551 1.363 . S
C2547 H2518 0.950 . S
C2547 C2546 1.397 . S
C2547 C2548 1.334 . S
C2548 H2519 0.950 . S
C2548 C2547 1.334 . S
C2548 C2549 1.287 . S
C2549 C2548 1.287 . S
C2549 C2550 1.524 . S
C2549 H2552 0.999 . S
C2550 H2520 0.950 . S
C2550 C2549 1.524 . S
C2550 C2551 1.415 . S
C2551 H2521 0.950 . S
C2551 C2546 1.363 . S
C2551 C2550 1.415 . S
H2552 C2549 0.999 . S
H2553 C2534 0.913 . S
H2554 C2572 0.951 . S
H2555 C2574 0.951 . S
H2556 C2576 0.950 . S
H2557 C2577 0.950 . S
H2558 C2579 0.950 . S
H2559 C2582 0.950 . S
H2560 C2583 0.950 . S
H2561 C2585 0.950 . S
H2562 C2586 0.950 . S
H2563 C2587 0.951 . S
H2564 C2589 0.951 . S
H2565 C2591 0.950 . S
H2566 C2592 0.950 . S
H2567 C2594 0.950 . S
H2568 C2597 0.950 . S
H2569 C2598 0.950 . S
H2570 C2600 0.950 . S
H2571 C2601 0.950 . S
C2572 H2554 0.951 . S
C2572 C2573 1.366 . S
C2572 C2574 1.388 . S
C2573 C2572 1.366 . S
C2573 C2577 1.385 . S
C2574 H2555 0.951 . S
C2574 C2572 1.388 . S
C2574 C2575 1.366 . S
C2575 C2574 1.366 . S
C2575 C2576 1.414 . S
C2575 C2578 1.499 . S
C2576 H2556 0.950 . S
C2576 C2575 1.414 . S
C2576 C2577 1.374 . S
C2577 H2557 0.950 . S
C2577 C2573 1.385 . S
C2577 C2576 1.374 . S
C2578 C2575 1.499 . S
C2578 C2579 1.373 . S
C2578 C2580 1.389 . S
C2579 H2558 0.950 . S
C2579 C2578 1.373 . S
C2579 C2595 1.377 . S
C2580 C2578 1.389 . S
C2580 C2581 1.524 . S
C2580 C2594 1.377 . S
C2581 C2580 1.524 . S
C2581 C2582 1.397 . S
C2581 C2586 1.363 . S
C2582 H2559 0.950 . S
C2582 C2581 1.397 . S
C2582 C2583 1.334 . S
C2583 H2560 0.950 . S
C2583 C2582 1.334 . S
C2583 C2584 1.287 . S
C2584 C2583 1.287 . S
C2584 C2585 1.524 . S
C2584 H2603 0.913 . S
C2585 H2561 0.950 . S
C2585 C2584 1.524 . S
C2585 C2586 1.415 . S
C2586 H2562 0.950 . S
C2586 C2581 1.363 . S
C2586 C2585 1.415 . S
C2587 H2563 0.951 . S
C2587 C2588 1.366 . S
C2587 C2589 1.388 . S
C2588 C2587 1.366 . S
C2588 C2592 1.385 . S
C2589 H2564 0.951 . S
C2589 C2587 1.388 . S
C2589 C2590 1.366 . S
C2590 C2589 1.366 . S
C2590 C2591 1.414 . S
C2590 C2593 1.499 . S
C2591 H2565 0.950 . S
C2591 C2590 1.414 . S
C2591 C2592 1.374 . S
C2592 H2566 0.950 . S
C2592 C2588 1.385 . S
C2592 C2591 1.374 . S
C2593 C2590 1.499 . S
C2593 C2594 1.373 . S
C2593 C2595 1.389 . S
C2594 H2567 0.950 . S
C2594 C2580 1.377 . S
C2594 C2593 1.373 . S
C2595 C2579 1.377 . S
C2595 C2593 1.389 . S
C2595 C2596 1.524 . S
C2596 C2595 1.524 . S
C2596 C2597 1.397 . S
C2596 C2601 1.363 . S
C2597 H2568 0.950 . S
C2597 C2596 1.397 . S
C2597 C2598 1.334 . S
C2598 H2569 0.950 . S
C2598 C2597 1.334 . S
C2598 C2599 1.287 . S
C2599 C2598 1.287 . S
C2599 C2600 1.524 . S
C2599 H2602 0.999 . S
C2600 H2570 0.950 . S
C2600 C2599 1.524 . S
C2600 C2601 1.415 . S
C2601 H2571 0.950 . S
C2601 C2596 1.363 . S
C2601 C2600 1.415 . S
H2602 C2599 0.999 . S
H2603 C2584 0.913 . S
H2604 C2622 0.951 . S
H2605 C2624 0.951 . S
H2606 C2626 0.950 . S
H2607 C2627 0.950 . S
H2608 C2629 0.950 . S
H2609 C2632 0.950 . S
H2610 C2633 0.950 . S
H2611 C2635 0.950 . S
H2612 C2636 0.950 . S
H2613 C2637 0.951 . S
H2614 C2639 0.951 . S
H2615 C2641 0.950 . S
H2616 C2642 0.950 . S
H2617 C2644 0.950 . S
H2618 C2647 0.950 . S
H2619 C2648 0.950 . S
H2620 C2650 0.950 . S
H2621 C2651 0.950 . S
C2622 H2604 0.951 . S
C2622 C2623 1.366 . S
C2622 C2624 1.388 . S
C2623 C2622 1.366 . S
C2623 C2627 1.385 . S
C2624 H2605 0.951 . S
C2624 C2622 1.388 . S
C2624 C2625 1.366 . S
C2625 C2624 1.366 . S
C2625 C2626 1.414 . S
C2625 C2628 1.499 . S
C2626 H2606 0.950 . S
C2626 C2625 1.414 . S
C2626 C2627 1.374 . S
C2627 H2607 0.950 . S
C2627 C2623 1.385 . S
C2627 C2626 1.374 . S
C2628 C2625 1.499 . S
C2628 C2629 1.373 . S
C2628 C2630 1.389 . S
C2629 H2608 0.950 . S
C2629 C2628 1.373 . S
C2629 C2645 1.377 . S
C2630 C2628 1.389 . S
C2630 C2631 1.524 . S
C2630 C2644 1.377 . S
C2631 C2630 1.524 . S
C2631 C2632 1.397 . S
C2631 C2636 1.363 . S
C2632 H2609 0.950 . S
C2632 C2631 1.397 . S
C2632 C2633 1.334 . S
C2633 H2610 0.950 . S
C2633 C2632 1.334 . S
C2633 C2634 1.287 . S
C2634 C2633 1.287 . S
C2634 C2635 1.524 . S
C2634 H2653 0.913 . S
C2635 H2611 0.950 . S
C2635 C2634 1.524 . S
C2635 C2636 1.415 . S
C2636 H2612 0.950 . S
C2636 C2631 1.363 . S
C2636 C2635 1.415 . S
C2637 H2613 0.951 . S
C2637 C2638 1.366 . S
C2637 C2639 1.388 . S
C2638 C2637 1.366 . S
C2638 C2642 1.385 . S
C2639 H2614 0.951 . S
C2639 C2637 1.388 . S
C2639 C2640 1.366 . S
C2640 C2639 1.366 . S
C2640 C2641 1.414 . S
C2640 C2643 1.499 . S
C2641 H2615 0.950 . S
C2641 C2640 1.414 . S
C2641 C2642 1.374 . S
C2642 H2616 0.950 . S
C2642 C2638 1.385 . S
C2642 C2641 1.374 . S
C2643 C2640 1.499 . S
C2643 C2644 1.373 . S
C2643 C2645 1.389 . S
C2644 H2617 0.950 . S
C2644 C2630 1.377 . S
C2644 C2643 1.373 . S
C2645 C2629 1.377 . S
C2645 C2643 1.389 . S
C2645 C2646 1.524 . S
C2646 C2645 1.524 . S
C2646 C2647 1.397 . S
C2646 C2651 1.363 . S
C2647 H2618 0.950 . S
C2647 C2646 1.397 . S
C2647 C2648 1.334 . S
C2648 H2619 0.950 . S
C2648 C2647 1.334 . S
C2648 C2649 1.287 . S
C2649 C2648 1.287 . S
C2649 C2650 1.524 . S
C2649 H2652 0.999 . S
C2650 H2620 0.950 . S
C2650 C2649 1.524 . S
C2650 C2651 1.415 . S
C2651 H2621 0.950 . S
C2651 C2646 1.363 . S
C2651 C2650 1.415 . S
H2652 C2649 0.999 . S
H2653 C2634 0.913 . S
H2654 C2672 0.951 . S
H2655 C2674 0.951 . S
H2656 C2676 0.950 . S
H2657 C2677 0.950 . S
H2658 C2679 0.950 . S
H2659 C2682 0.950 . S
H2660 C2683 0.950 . S
H2661 C2685 0.950 . S
H2662 C2686 0.950 . S
H2663 C2687 0.951 . S
H2664 C2689 0.951 . S
H2665 C2691 0.950 . S
H2666 C2692 0.950 . S
H2667 C2694 0.950 . S
H2668 C2697 0.950 . S
H2669 C2698 0.950 . S
H2670 C2700 0.950 . S
H2671 C2701 0.950 . S
C2672 H2654 0.951 . S
C2672 C2673 1.366 . S
C2672 C2674 1.388 . S
C2673 C2672 1.366 . S
C2673 C2677 1.385 . S
C2674 H2655 0.951 . S
C2674 C2672 1.388 . S
C2674 C2675 1.366 . S
C2675 C2674 1.366 . S
C2675 C2676 1.414 . S
C2675 C2678 1.499 . S
C2676 H2656 0.950 . S
C2676 C2675 1.414 . S
C2676 C2677 1.374 . S
C2677 H2657 0.950 . S
C2677 C2673 1.385 . S
C2677 C2676 1.374 . S
C2678 C2675 1.499 . S
C2678 C2679 1.373 . S
C2678 C2680 1.389 . S
C2679 H2658 0.950 . S
C2679 C2678 1.373 . S
C2679 C2695 1.377 . S
C2680 C2678 1.389 . S
C2680 C2681 1.524 . S
C2680 C2694 1.377 . S
C2681 C2680 1.524 . S
C2681 C2682 1.397 . S
C2681 C2686 1.363 . S
C2682 H2659 0.950 . S
C2682 C2681 1.397 . S
C2682 C2683 1.334 . S
C2683 H2660 0.950 . S
C2683 C2682 1.334 . S
C2683 C2684 1.287 . S
C2684 C2683 1.287 . S
C2684 C2685 1.524 . S
C2684 H2703 0.913 . S
C2685 H2661 0.950 . S
C2685 C2684 1.524 . S
C2685 C2686 1.415 . S
C2686 H2662 0.950 . S
C2686 C2681 1.363 . S
C2686 C2685 1.415 . S
C2687 H2663 0.951 . S
C2687 C2688 1.366 . S
C2687 C2689 1.388 . S
C2688 C2687 1.366 . S
C2688 C2692 1.385 . S
C2689 H2664 0.951 . S
C2689 C2687 1.388 . S
C2689 C2690 1.366 . S
C2690 C2689 1.366 . S
C2690 C2691 1.414 . S
C2690 C2693 1.499 . S
C2691 H2665 0.950 . S
C2691 C2690 1.414 . S
C2691 C2692 1.374 . S
C2692 H2666 0.950 . S
C2692 C2688 1.385 . S
C2692 C2691 1.374 . S
C2693 C2690 1.499 . S
C2693 C2694 1.373 . S
C2693 C2695 1.389 . S
C2694 H2667 0.950 . S
C2694 C2680 1.377 . S
C2694 C2693 1.373 . S
C2695 C2679 1.377 . S
C2695 C2693 1.389 . S
C2695 C2696 1.524 . S
C2696 C2695 1.524 . S
C2696 C2697 1.397 . S
C2696 C2701 1.363 . S
C2697 H2668 0.950 . S
C2697 C2696 1.397 . S
C2697 C2698 1.334 . S
C2698 H2669 0.950 . S
C2698 C2697 1.334 . S
C2698 C2699 1.287 . S
C2699 C2698 1.287 . S
C2699 C2700 1.524 . S
C2699 H2702 0.999 . S
C2700 H2670 0.950 . S
C2700 C2699 1.524 . S
C2700 C2701 1.415 . S
C2701 H2671 0.950 . S
C2701 C2696 1.363 . S
C2701 C2700 1.415 . S
H2702 C2699 0.999 . S
H2703 C2684 0.913 . S
H2704 C2722 0.951 . S
H2705 C2724 0.951 . S
H2706 C2726 0.950 . S
H2707 C2727 0.950 . S
H2708 C2729 0.950 . S
H2709 C2732 0.950 . S
H2710 C2733 0.950 . S
H2711 C2735 0.950 . S
H2712 C2736 0.950 . S
H2713 C2737 0.951 . S
H2714 C2739 0.951 . S
H2715 C2741 0.950 . S
H2716 C2742 0.950 . S
H2717 C2744 0.950 . S
H2718 C2747 0.950 . S
H2719 C2748 0.950 . S
H2720 C2750 0.950 . S
H2721 C2751 0.950 . S
C2722 H2704 0.951 . S
C2722 C2723 1.366 . S
C2722 C2724 1.388 . S
C2723 C2722 1.366 . S
C2723 C2727 1.385 . S
C2724 H2705 0.951 . S
C2724 C2722 1.388 . S
C2724 C2725 1.366 . S
C2725 C2724 1.366 . S
C2725 C2726 1.414 . S
C2725 C2728 1.499 . S
C2726 H2706 0.950 . S
C2726 C2725 1.414 . S
C2726 C2727 1.374 . S
C2727 H2707 0.950 . S
C2727 C2723 1.385 . S
C2727 C2726 1.374 . S
C2728 C2725 1.499 . S
C2728 C2729 1.373 . S
C2728 C2730 1.389 . S
C2729 H2708 0.950 . S
C2729 C2728 1.373 . S
C2729 C2745 1.377 . S
C2730 C2728 1.389 . S
C2730 C2731 1.524 . S
C2730 C2744 1.377 . S
C2731 C2730 1.524 . S
C2731 C2732 1.397 . S
C2731 C2736 1.363 . S
C2732 H2709 0.950 . S
C2732 C2731 1.397 . S
C2732 C2733 1.334 . S
C2733 H2710 0.950 . S
C2733 C2732 1.334 . S
C2733 C2734 1.287 . S
C2734 C2733 1.287 . S
C2734 C2735 1.524 . S
C2734 H2753 0.913 . S
C2735 H2711 0.950 . S
C2735 C2734 1.524 . S
C2735 C2736 1.415 . S
C2736 H2712 0.950 . S
C2736 C2731 1.363 . S
C2736 C2735 1.415 . S
C2737 H2713 0.951 . S
C2737 C2738 1.366 . S
C2737 C2739 1.388 . S
C2738 C2737 1.366 . S
C2738 C2742 1.385 . S
C2739 H2714 0.951 . S
C2739 C2737 1.388 . S
C2739 C2740 1.366 . S
C2740 C2739 1.366 . S
C2740 C2741 1.414 . S
C2740 C2743 1.499 . S
C2741 H2715 0.950 . S
C2741 C2740 1.414 . S
C2741 C2742 1.374 . S
C2742 H2716 0.950 . S
C2742 C2738 1.385 . S
C2742 C2741 1.374 . S
C2743 C2740 1.499 . S
C2743 C2744 1.373 . S
C2743 C2745 1.389 . S
C2744 H2717 0.950 . S
C2744 C2730 1.377 . S
C2744 C2743 1.373 . S
C2745 C2729 1.377 . S
C2745 C2743 1.389 . S
C2745 C2746 1.524 . S
C2746 C2745 1.524 . S
C2746 C2747 1.397 . S
C2746 C2751 1.363 . S
C2747 H2718 0.950 . S
C2747 C2746 1.397 . S
C2747 C2748 1.334 . S
C2748 H2719 0.950 . S
C2748 C2747 1.334 . S
C2748 C2749 1.287 . S
C2749 C2748 1.287 . S
C2749 C2750 1.524 . S
C2749 H2752 0.999 . S
C2750 H2720 0.950 . S
C2750 C2749 1.524 . S
C2750 C2751 1.415 . S
C2751 H2721 0.950 . S
C2751 C2746 1.363 . S
C2751 C2750 1.415 . S
H2752 C2749 0.999 . S
H2753 C2734 0.913 . S
H2754 C2772 0.951 . S
H2755 C2774 0.951 . S
H2756 C2776 0.912 1_545 S
H2757 C2777 0.950 . S
H2758 C2779 0.950 . S
H2759 C2782 0.950 . S
H2760 C2783 0.950 . S
H2761 C2785 0.952 . S
H2762 C2786 0.950 . S
H2763 C2787 0.951 . S
H2764 C2789 0.951 . S
H2765 C2791 0.950 . S
H2766 C2792 0.950 . S
H2767 C2794 0.950 . S
H2768 C2797 0.950 . S
H2769 C2798 0.950 . S
H2770 C2800 0.950 . S
H2771 C2801 0.950 . S
C2772 H2754 0.951 . S
C2772 C2773 1.366 . S
C2772 C2774 1.388 . S
C2773 C2772 1.366 . S
C2773 C2777 1.385 . S
C2774 H2755 0.951 . S
C2774 C2772 1.388 . S
C2774 C2775 1.366 1_565 S
C2775 C2774 1.366 1_545 S
C2775 C2776 1.420 1_545 S
C2775 C2778 1.499 . S
C2776 H2756 0.912 1_565 S
C2776 C2775 1.420 1_565 S
C2776 C2777 1.408 . S
C2777 H2757 0.950 . S
C2777 C2773 1.385 . S
C2777 C2776 1.408 . S
C2778 C2775 1.499 . S
C2778 C2779 1.373 . S
C2778 C2780 1.389 . S
C2779 H2758 0.950 . S
C2779 C2778 1.373 . S
C2779 C2795 1.377 . S
C2780 C2778 1.389 . S
C2780 C2781 1.524 . S
C2780 C2794 1.377 . S
C2781 C2780 1.524 . S
C2781 C2782 1.397 . S
C2781 C2786 1.363 . S
C2782 H2759 0.950 . S
C2782 C2781 1.397 . S
C2782 C2783 1.334 1_545 S
C2783 H2760 0.950 . S
C2783 C2782 1.334 1_565 S
C2783 C2784 1.287 . S
C2784 C2783 1.287 . S
C2784 C2785 1.522 . S
C2784 H2803 0.913 . S
C2785 H2761 0.952 . S
C2785 C2784 1.522 . S
C2785 C2786 1.414 1_565 S
C2786 H2762 0.950 . S
C2786 C2781 1.363 . S
C2786 C2785 1.414 1_545 S
C2787 H2763 0.951 . S
C2787 C2788 1.366 . S
C2787 C2789 1.388 . S
C2788 C2787 1.366 . S
C2788 C2792 1.385 . S
C2789 H2764 0.951 . S
C2789 C2787 1.388 . S
C2789 C2790 1.366 . S
C2790 C2789 1.366 . S
C2790 C2791 1.414 . S
C2790 C2793 1.499 . S
C2791 H2765 0.950 . S
C2791 C2790 1.414 . S
C2791 C2792 1.374 . S
C2792 H2766 0.950 . S
C2792 C2788 1.385 . S
C2792 C2791 1.374 . S
C2793 C2790 1.499 . S
C2793 C2794 1.373 . S
C2793 C2795 1.389 . S
C2794 H2767 0.950 . S
C2794 C2780 1.377 . S
C2794 C2793 1.373 . S
C2795 C2779 1.377 . S
C2795 C2793 1.389 . S
C2795 C2796 1.524 . S
C2796 C2795 1.524 . S
C2796 C2797 1.397 . S
C2796 C2801 1.363 . S
C2797 H2768 0.950 . S
C2797 C2796 1.397 . S
C2797 C2798 1.334 . S
C2798 H2769 0.950 . S
C2798 C2797 1.334 . S
C2798 C2799 1.287 . S
C2799 C2798 1.287 . S
C2799 C2800 1.524 . S
C2799 H2802 0.999 . S
C2800 H2770 0.950 . S
C2800 C2799 1.524 . S
C2800 C2801 1.415 . S
C2801 H2771 0.950 . S
C2801 C2796 1.363 . S
C2801 C2800 1.415 . S
H2802 C2799 0.999 . S
H2803 C2784 0.913 . S
H2804 C2822 0.951 . S
H2805 C2824 0.951 . S
H2806 C2826 0.950 . S
H2807 C2827 0.950 . S
H2808 C2829 0.950 . S
H2809 C2832 0.950 . S
H2810 C2833 0.950 . S
H2811 C2835 0.950 . S
H2812 C2836 0.950 . S
H2813 C2837 0.951 . S
H2814 C2839 0.951 . S
H2815 C2841 0.950 . S
H2816 C2842 0.950 . S
H2817 C2844 0.950 . S
H2818 C2847 0.950 . S
H2819 C2848 0.950 . S
H2820 C2850 0.950 . S
H2821 C2851 0.950 . S
C2822 H2804 0.951 . S
C2822 C2823 1.366 . S
C2822 C2824 1.388 . S
C2823 C2822 1.366 . S
C2823 C2827 1.385 . S
C2824 H2805 0.951 . S
C2824 C2822 1.388 . S
C2824 C2825 1.366 1_455 S
C2825 C2824 1.366 1_655 S
C2825 C2826 1.414 . S
C2825 C2828 1.499 . S
C2826 H2806 0.950 . S
C2826 C2825 1.414 . S
C2826 C2827 1.374 1_655 S
C2827 H2807 0.950 . S
C2827 C2823 1.385 . S
C2827 C2826 1.374 1_455 S
C2828 C2825 1.499 . S
C2828 C2829 1.373 . S
C2828 C2830 1.389 . S
C2829 H2808 0.950 . S
C2829 C2828 1.373 . S
C2829 C2845 1.377 . S
C2830 C2828 1.389 . S
C2830 C2831 1.524 . S
C2830 C2844 1.377 . S
C2831 C2830 1.524 . S
C2831 C2832 1.397 . S
C2831 C2836 1.363 . S
C2832 H2809 0.950 . S
C2832 C2831 1.397 . S
C2832 C2833 1.334 . S
C2833 H2810 0.950 . S
C2833 C2832 1.334 . S
C2833 C2834 1.287 . S
C2834 C2833 1.287 . S
C2834 C2835 1.524 . S
C2834 H2853 0.913 . S
C2835 H2811 0.950 . S
C2835 C2834 1.524 . S
C2835 C2836 1.415 . S
C2836 H2812 0.950 . S
C2836 C2831 1.363 . S
C2836 C2835 1.415 . S
C2837 H2813 0.951 . S
C2837 C2838 1.366 . S
C2837 C2839 1.388 . S
C2838 C2837 1.366 . S
C2838 C2842 1.385 . S
C2839 H2814 0.951 . S
C2839 C2837 1.388 . S
C2839 C2840 1.366 . S
C2840 C2839 1.366 . S
C2840 C2841 1.414 . S
C2840 C2843 1.499 . S
C2841 H2815 0.950 . S
C2841 C2840 1.414 . S
C2841 C2842 1.374 . S
C2842 H2816 0.950 . S
C2842 C2838 1.385 . S
C2842 C2841 1.374 . S
C2843 C2840 1.499 . S
C2843 C2844 1.373 . S
C2843 C2845 1.389 . S
C2844 H2817 0.950 . S
C2844 C2830 1.377 . S
C2844 C2843 1.373 . S
C2845 C2829 1.377 . S
C2845 C2843 1.389 . S
C2845 C2846 1.524 . S
C2846 C2845 1.524 . S
C2846 C2847 1.397 . S
C2846 C2851 1.363 . S
C2847 H2818 0.950 . S
C2847 C2846 1.397 . S
C2847 C2848 1.334 . S
C2848 H2819 0.950 . S
C2848 C2847 1.334 . S
C2848 C2849 1.287 . S
C2849 C2848 1.287 . S
C2849 C2850 1.524 . S
C2849 H2852 0.999 . S
C2850 H2820 0.950 . S
C2850 C2849 1.524 . S
C2850 C2851 1.415 . S
C2851 H2821 0.950 . S
C2851 C2846 1.363 . S
C2851 C2850 1.415 . S
H2852 C2849 0.999 . S
H2853 C2834 0.913 . S
H2854 C2872 0.951 . S
H2855 C2874 0.951 . S
H2856 C2876 0.950 . S
H2857 C2877 0.950 . S
H2858 C2879 0.950 . S
H2859 C2882 0.950 . S
H2860 C2883 0.950 . S
H2861 C2885 0.950 . S
H2862 C2886 0.950 . S
H2863 C2887 0.951 . S
H2864 C2889 0.951 . S
H2865 C2891 0.950 . S
H2866 C2892 0.950 . S
H2867 C2894 0.950 . S
H2868 C2897 0.950 . S
H2869 C2898 0.950 . S
H2870 C2900 0.950 . S
H2871 C2901 0.950 . S
C2872 H2854 0.951 . S
C2872 C2873 1.366 . S
C2872 C2874 1.388 . S
C2873 C2872 1.366 . S
C2873 C2877 1.385 . S
C2874 H2855 0.951 . S
C2874 C2872 1.388 . S
C2874 C2875 1.366 . S
C2875 C2874 1.366 . S
C2875 C2876 1.414 . S
C2875 C2878 1.499 . S
C2876 H2856 0.950 . S
C2876 C2875 1.414 . S
C2876 C2877 1.374 . S
C2877 H2857 0.950 . S
C2877 C2873 1.385 . S
C2877 C2876 1.374 . S
C2878 C2875 1.499 . S
C2878 C2879 1.373 . S
C2878 C2880 1.389 . S
C2879 H2858 0.950 . S
C2879 C2878 1.373 . S
C2879 C2895 1.377 . S
C2880 C2878 1.389 . S
C2880 C2881 1.524 . S
C2880 C2894 1.377 . S
C2881 C2880 1.524 . S
C2881 C2882 1.397 . S
C2881 C2886 1.363 . S
C2882 H2859 0.950 . S
C2882 C2881 1.397 . S
C2882 C2883 1.334 . S
C2883 H2860 0.950 . S
C2883 C2882 1.334 . S
C2883 C2884 1.287 . S
C2884 C2883 1.287 . S
C2884 C2885 1.524 . S
C2884 H2903 0.913 . S
C2885 H2861 0.950 . S
C2885 C2884 1.524 . S
C2885 C2886 1.415 . S
C2886 H2862 0.950 . S
C2886 C2881 1.363 . S
C2886 C2885 1.415 . S
C2887 H2863 0.951 . S
C2887 C2888 1.366 . S
C2887 C2889 1.388 . S
C2888 C2887 1.366 . S
C2888 C2892 1.385 . S
C2889 H2864 0.951 . S
C2889 C2887 1.388 . S
C2889 C2890 1.366 . S
C2890 C2889 1.366 . S
C2890 C2891 1.414 . S
C2890 C2893 1.499 . S
C2891 H2865 0.950 . S
C2891 C2890 1.414 . S
C2891 C2892 1.374 . S
C2892 H2866 0.950 . S
C2892 C2888 1.385 . S
C2892 C2891 1.374 . S
C2893 C2890 1.499 . S
C2893 C2894 1.373 . S
C2893 C2895 1.389 . S
C2894 H2867 0.950 . S
C2894 C2880 1.377 . S
C2894 C2893 1.373 . S
C2895 C2879 1.377 . S
C2895 C2893 1.389 . S
C2895 C2896 1.524 . S
C2896 C2895 1.524 . S
C2896 C2897 1.397 . S
C2896 C2901 1.363 . S
C2897 H2868 0.950 . S
C2897 C2896 1.397 . S
C2897 C2898 1.334 . S
C2898 H2869 0.950 . S
C2898 C2897 1.334 . S
C2898 C2899 1.287 . S
C2899 C2898 1.287 . S
C2899 C2900 1.524 . S
C2899 H2902 0.999 . S
C2900 H2870 0.950 . S
C2900 C2899 1.524 . S
C2900 C2901 1.415 . S
C2901 H2871 0.950 . S
C2901 C2896 1.363 . S
C2901 C2900 1.415 . S
H2902 C2899 0.999 . S
H2903 C2884 0.913 . S
H2904 C2922 0.951 . S
H2905 C2924 0.951 . S
H2906 C2926 0.950 . S
H2907 C2927 0.950 . S
H2908 C2929 0.950 . S
H2909 C2932 0.950 . S
H2910 C2933 0.950 . S
H2911 C2935 0.950 . S
H2912 C2936 0.950 . S
H2913 C2937 0.951 . S
H2914 C2939 0.951 . S
H2915 C2941 0.950 . S
H2916 C2942 0.950 . S
H2917 C2944 0.950 . S
H2918 C2947 0.950 . S
H2919 C2948 0.950 . S
H2920 C2950 0.950 . S
H2921 C2951 0.950 . S
C2922 H2904 0.951 . S
C2922 C2923 1.366 . S
C2922 C2924 1.388 1_455 S
C2923 C2922 1.366 . S
C2923 C2927 1.385 . S
C2924 H2905 0.951 . S
C2924 C2922 1.388 1_655 S
C2924 C2925 1.366 . S
C2925 C2924 1.366 . S
C2925 C2926 1.414 1_655 S
C2925 C2928 1.499 . S
C2926 H2906 0.950 . S
C2926 C2925 1.414 1_455 S
C2926 C2927 1.374 . S
C2927 H2907 0.950 . S
C2927 C2923 1.385 . S
C2927 C2926 1.374 . S
C2928 C2925 1.499 . S
C2928 C2929 1.373 . S
C2928 C2930 1.389 . S
C2929 H2908 0.950 . S
C2929 C2928 1.373 . S
C2929 C2945 1.377 . S
C2930 C2928 1.389 . S
C2930 C2931 1.524 . S
C2930 C2944 1.377 . S
C2931 C2930 1.524 . S
C2931 C2932 1.397 . S
C2931 C2936 1.363 . S
C2932 H2909 0.950 . S
C2932 C2931 1.397 . S
C2932 C2933 1.334 . S
C2933 H2910 0.950 . S
C2933 C2932 1.334 . S
C2933 C2934 1.287 . S
C2934 C2933 1.287 . S
C2934 C2935 1.524 . S
C2934 H2953 0.913 . S
C2935 H2911 0.950 . S
C2935 C2934 1.524 . S
C2935 C2936 1.415 . S
C2936 H2912 0.950 . S
C2936 C2931 1.363 . S
C2936 C2935 1.415 . S
C2937 H2913 0.951 . S
C2937 C2938 1.366 . S
C2937 C2939 1.388 . S
C2938 C2937 1.366 . S
C2938 C2942 1.385 . S
C2939 H2914 0.951 . S
C2939 C2937 1.388 . S
C2939 C2940 1.366 . S
C2940 C2939 1.366 . S
C2940 C2941 1.414 . S
C2940 C2943 1.499 . S
C2941 H2915 0.950 . S
C2941 C2940 1.414 . S
C2941 C2942 1.374 . S
C2942 H2916 0.950 . S
C2942 C2938 1.385 . S
C2942 C2941 1.374 . S
C2943 C2940 1.499 . S
C2943 C2944 1.373 . S
C2943 C2945 1.389 . S
C2944 H2917 0.950 . S
C2944 C2930 1.377 . S
C2944 C2943 1.373 . S
C2945 C2929 1.377 . S
C2945 C2943 1.389 . S
C2945 C2946 1.524 . S
C2946 C2945 1.524 . S
C2946 C2947 1.397 . S
C2946 C2951 1.363 . S
C2947 H2918 0.950 . S
C2947 C2946 1.397 . S
C2947 C2948 1.334 . S
C2948 H2919 0.950 . S
C2948 C2947 1.334 . S
C2948 C2949 1.287 . S
C2949 C2948 1.287 . S
C2949 C2950 1.524 . S
C2949 H2952 0.999 . S
C2950 H2920 0.950 . S
C2950 C2949 1.524 . S
C2950 C2951 1.415 . S
C2951 H2921 0.950 . S
C2951 C2946 1.363 . S
C2951 C2950 1.415 . S
H2952 C2949 0.999 . S
H2953 C2934 0.913 . S
H2954 C2972 0.951 . S
H2955 C2974 0.951 . S
H2956 C2976 0.950 . S
H2957 C2977 0.950 . S
H2958 C2979 0.950 . S
H2959 C2982 0.950 . S
H2960 C2983 0.950 . S
H2961 C2985 0.950 . S
H2962 C2986 0.950 . S
H2963 C2987 0.951 . S
H2964 C2989 0.951 . S
H2965 C2991 0.950 . S
H2966 C2992 0.950 . S
H2967 C2994 0.950 . S
H2968 C2997 0.950 . S
H2969 C2998 0.950 . S
H2970 C3000 0.950 . S
H2971 C3001 0.950 . S
C2972 H2954 0.951 . S
C2972 C2973 1.366 . S
C2972 C2974 1.388 . S
C2973 C2972 1.366 . S
C2973 C2977 1.385 . S
C2974 H2955 0.951 . S
C2974 C2972 1.388 . S
C2974 C2975 1.366 . S
C2975 C2974 1.366 . S
C2975 C2976 1.414 . S
C2975 C2978 1.499 . S
C2976 H2956 0.950 . S
C2976 C2975 1.414 . S
C2976 C2977 1.374 . S
C2977 H2957 0.950 . S
C2977 C2973 1.385 . S
C2977 C2976 1.374 . S
C2978 C2975 1.499 . S
C2978 C2979 1.373 . S
C2978 C2980 1.389 . S
C2979 H2958 0.950 . S
C2979 C2978 1.373 . S
C2979 C2995 1.377 . S
C2980 C2978 1.389 . S
C2980 C2981 1.524 . S
C2980 C2994 1.377 . S
C2981 C2980 1.524 . S
C2981 C2982 1.397 . S
C2981 C2986 1.363 . S
C2982 H2959 0.950 . S
C2982 C2981 1.397 . S
C2982 C2983 1.334 . S
C2983 H2960 0.950 . S
C2983 C2982 1.334 . S
C2983 C2984 1.287 . S
C2984 C2983 1.287 . S
C2984 C2985 1.524 . S
C2984 H3003 0.913 . S
C2985 H2961 0.950 . S
C2985 C2984 1.524 . S
C2985 C2986 1.415 . S
C2986 H2962 0.950 . S
C2986 C2981 1.363 . S
C2986 C2985 1.415 . S
C2987 H2963 0.951 . S
C2987 C2988 1.366 . S
C2987 C2989 1.388 . S
C2988 C2987 1.366 . S
C2988 C2992 1.385 . S
C2989 H2964 0.951 . S
C2989 C2987 1.388 . S
C2989 C2990 1.366 . S
C2990 C2989 1.366 . S
C2990 C2991 1.414 . S
C2990 C2993 1.499 . S
C2991 H2965 0.950 . S
C2991 C2990 1.414 . S
C2991 C2992 1.374 . S
C2992 H2966 0.950 . S
C2992 C2988 1.385 . S
C2992 C2991 1.374 . S
C2993 C2990 1.499 . S
C2993 C2994 1.373 . S
C2993 C2995 1.389 . S
C2994 H2967 0.950 . S
C2994 C2980 1.377 . S
C2994 C2993 1.373 . S
C2995 C2979 1.377 . S
C2995 C2993 1.389 . S
C2995 C2996 1.524 . S
C2996 C2995 1.524 . S
C2996 C2997 1.397 . S
C2996 C3001 1.363 . S
C2997 H2968 0.950 . S
C2997 C2996 1.397 . S
C2997 C2998 1.334 . S
C2998 H2969 0.950 . S
C2998 C2997 1.334 . S
C2998 C2999 1.287 . S
C2999 C2998 1.287 . S
C2999 C3000 1.524 . S
C2999 H3002 0.999 . S
C3000 H2970 0.950 . S
C3000 C2999 1.524 . S
C3000 C3001 1.415 . S
C3001 H2971 0.950 . S
C3001 C2996 1.363 . S
C3001 C3000 1.415 . S
H3002 C2999 0.999 . S
H3003 C2984 0.913 . S
H3004 C3022 0.951 . S
H3005 C3024 0.951 1_545 S
H3006 C3026 0.950 . S
H3007 C3027 0.950 . S
H3008 C3029 0.950 . S
H3009 C3032 0.950 . S
H3010 C3033 0.963 . S
H3011 C3035 0.950 . S
H3012 C3036 0.950 . S
H3013 C3037 0.951 . S
H3014 C3039 0.951 . S
H3015 C3041 0.950 . S
H3016 C3042 0.950 . S
H3017 C3044 0.950 . S
H3018 C3047 0.950 . S
H3019 C3048 0.950 . S
H3020 C3050 0.950 . S
H3021 C3051 0.950 . S
C3022 H3004 0.951 . S
C3022 C3023 1.366 . S
C3022 C3024 1.388 . S
C3023 C3022 1.366 . S
C3023 C3027 1.385 . S
C3024 H3005 0.951 1_565 S
C3024 C3022 1.388 . S
C3024 C3025 1.377 . S
C3025 C3024 1.377 . S
C3025 C3026 1.434 . S
C3025 C3028 1.468 1_565 S
C3026 H3006 0.950 . S
C3026 C3025 1.434 . S
C3026 C3027 1.374 . S
C3027 H3007 0.950 . S
C3027 C3023 1.385 . S
C3027 C3026 1.374 . S
C3028 C3025 1.468 1_545 S
C3028 C3029 1.373 . S
C3028 C3030 1.389 . S
C3029 H3008 0.950 . S
C3029 C3028 1.373 . S
C3029 C3045 1.377 . S
C3030 C3028 1.389 . S
C3030 C3031 1.524 . S
C3030 C3044 1.377 . S
C3031 C3030 1.524 . S
C3031 C3032 1.397 . S
C3031 C3036 1.363 . S
C3032 H3009 0.950 . S
C3032 C3031 1.397 . S
C3032 C3033 1.334 . S
C3033 H3010 0.963 . S
C3033 C3032 1.334 . S
C3033 C3034 1.287 . S
C3034 C3033 1.287 . S
C3034 C3035 1.524 . S
C3034 H3053 0.913 . S
C3035 H3011 0.950 . S
C3035 C3034 1.524 . S
C3035 C3036 1.415 . S
C3036 H3012 0.950 . S
C3036 C3031 1.363 . S
C3036 C3035 1.415 . S
C3037 H3013 0.951 . S
C3037 C3038 1.366 . S
C3037 C3039 1.388 . S
C3038 C3037 1.366 . S
C3038 C3042 1.385 . S
C3039 H3014 0.951 . S
C3039 C3037 1.388 . S
C3039 C3040 1.366 . S
C3040 C3039 1.366 . S
C3040 C3041 1.414 . S
C3040 C3043 1.499 . S
C3041 H3015 0.950 . S
C3041 C3040 1.414 . S
C3041 C3042 1.374 . S
C3042 H3016 0.950 . S
C3042 C3038 1.385 . S
C3042 C3041 1.374 . S
C3043 C3040 1.499 . S
C3043 C3044 1.373 . S
C3043 C3045 1.389 . S
C3044 H3017 0.950 . S
C3044 C3030 1.377 . S
C3044 C3043 1.373 . S
C3045 C3029 1.377 . S
C3045 C3043 1.389 . S
C3045 C3046 1.524 . S
C3046 C3045 1.524 . S
C3046 C3047 1.397 . S
C3046 C3051 1.363 . S
C3047 H3018 0.950 . S
C3047 C3046 1.397 . S
C3047 C3048 1.334 . S
C3048 H3019 0.950 . S
C3048 C3047 1.334 . S
C3048 C3049 1.287 . S
C3049 C3048 1.287 . S
C3049 C3050 1.524 . S
C3049 H3052 0.999 . S
C3050 H3020 0.950 . S
C3050 C3049 1.524 . S
C3050 C3051 1.415 . S
C3051 H3021 0.950 . S
C3051 C3046 1.363 . S
C3051 C3050 1.415 . S
H3052 C3049 0.999 . S
H3053 C3034 0.913 . S
H3054 C3072 0.951 . S
H3055 C3074 0.951 . S
H3056 C3076 0.950 . S
H3057 C3077 0.950 . S
H3058 C3079 0.950 . S
H3059 C3082 0.950 . S
H3060 C3083 0.950 . S
H3061 C3085 0.950 . S
H3062 C3086 0.950 . S
H3063 C3087 0.951 . S
H3064 C3089 0.951 . S
H3065 C3091 0.950 . S
H3066 C3092 0.950 . S
H3067 C3094 0.950 . S
H3068 C3097 0.950 . S
H3069 C3098 0.950 . S
H3070 C3100 0.950 . S
H3071 C3101 0.950 . S
C3072 H3054 0.951 . S
C3072 C3073 1.366 . S
C3072 C3074 1.388 . S
C3073 C3072 1.366 . S
C3073 C3077 1.385 . S
C3074 H3055 0.951 . S
C3074 C3072 1.388 . S
C3074 C3075 1.366 . S
C3075 C3074 1.366 . S
C3075 C3076 1.414 . S
C3075 C3078 1.499 . S
C3076 H3056 0.950 . S
C3076 C3075 1.414 . S
C3076 C3077 1.374 . S
C3077 H3057 0.950 . S
C3077 C3073 1.385 . S
C3077 C3076 1.374 . S
C3078 C3075 1.499 . S
C3078 C3079 1.373 . S
C3078 C3080 1.389 . S
C3079 H3058 0.950 . S
C3079 C3078 1.373 . S
C3079 C3095 1.377 . S
C3080 C3078 1.389 . S
C3080 C3081 1.524 . S
C3080 C3094 1.377 . S
C3081 C3080 1.524 . S
C3081 C3082 1.397 . S
C3081 C3086 1.363 . S
C3082 H3059 0.950 . S
C3082 C3081 1.397 . S
C3082 C3083 1.334 . S
C3083 H3060 0.950 . S
C3083 C3082 1.334 . S
C3083 C3084 1.287 . S
C3084 C3083 1.287 . S
C3084 C3085 1.524 . S
C3084 H3103 0.913 . S
C3085 H3061 0.950 . S
C3085 C3084 1.524 . S
C3085 C3086 1.415 . S
C3086 H3062 0.950 . S
C3086 C3081 1.363 . S
C3086 C3085 1.415 . S
C3087 H3063 0.951 . S
C3087 C3088 1.366 . S
C3087 C3089 1.388 . S
C3088 C3087 1.366 . S
C3088 C3092 1.385 . S
C3089 H3064 0.951 . S
C3089 C3087 1.388 . S
C3089 C3090 1.366 . S
C3090 C3089 1.366 . S
C3090 C3091 1.414 . S
C3090 C3093 1.499 . S
C3091 H3065 0.950 . S
C3091 C3090 1.414 . S
C3091 C3092 1.374 . S
C3092 H3066 0.950 . S
C3092 C3088 1.385 . S
C3092 C3091 1.374 . S
C3093 C3090 1.499 . S
C3093 C3094 1.373 . S
C3093 C3095 1.389 . S
C3094 H3067 0.950 . S
C3094 C3080 1.377 . S
C3094 C3093 1.373 . S
C3095 C3079 1.377 . S
C3095 C3093 1.389 . S
C3095 C3096 1.524 . S
C3096 C3095 1.524 . S
C3096 C3097 1.397 . S
C3096 C3101 1.363 . S
C3097 H3068 0.950 . S
C3097 C3096 1.397 . S
C3097 C3098 1.334 . S
C3098 H3069 0.950 . S
C3098 C3097 1.334 . S
C3098 C3099 1.287 . S
C3099 C3098 1.287 . S
C3099 C3100 1.524 . S
C3099 H3102 0.999 . S
C3100 H3070 0.950 . S
C3100 C3099 1.524 . S
C3100 C3101 1.415 . S
C3101 H3071 0.950 . S
C3101 C3096 1.363 . S
C3101 C3100 1.415 . S
H3102 C3099 0.999 . S
H3103 C3084 0.913 . S
H3104 C3122 0.951 . S
H3105 C3124 0.951 . S
H3106 C3126 0.950 . S
H3107 C3127 0.950 . S
H3108 C3129 0.950 . S
H3109 C3132 0.950 . S
H3110 C3133 0.950 . S
H3111 C3135 0.950 . S
H3112 C3136 0.950 . S
H3113 C3137 0.951 . S
H3114 C3139 0.951 . S
H3115 C3141 0.950 . S
H3116 C3142 0.950 . S
H3117 C3144 0.950 . S
H3118 C3147 0.950 . S
H3119 C3148 0.950 . S
H3120 C3150 0.950 . S
H3121 C3151 0.950 . S
C3122 H3104 0.951 . S
C3122 C3123 1.366 . S
C3122 C3124 1.388 . S
C3123 C3122 1.366 . S
C3123 C3127 1.385 . S
C3124 H3105 0.951 . S
C3124 C3122 1.388 . S
C3124 C3125 1.366 . S
C3125 C3124 1.366 . S
C3125 C3126 1.414 . S
C3125 C3128 1.499 . S
C3126 H3106 0.950 . S
C3126 C3125 1.414 . S
C3126 C3127 1.374 . S
C3127 H3107 0.950 . S
C3127 C3123 1.385 . S
C3127 C3126 1.374 . S
C3128 C3125 1.499 . S
C3128 C3129 1.373 . S
C3128 C3130 1.389 . S
C3129 H3108 0.950 . S
C3129 C3128 1.373 . S
C3129 C3145 1.377 . S
C3130 C3128 1.389 . S
C3130 C3131 1.524 . S
C3130 C3144 1.377 . S
C3131 C3130 1.524 . S
C3131 C3132 1.397 . S
C3131 C3136 1.363 . S
C3132 H3109 0.950 . S
C3132 C3131 1.397 . S
C3132 C3133 1.334 . S
C3133 H3110 0.950 . S
C3133 C3132 1.334 . S
C3133 C3134 1.287 . S
C3134 C3133 1.287 . S
C3134 C3135 1.524 . S
C3134 H3153 0.913 . S
C3135 H3111 0.950 . S
C3135 C3134 1.524 . S
C3135 C3136 1.415 . S
C3136 H3112 0.950 . S
C3136 C3131 1.363 . S
C3136 C3135 1.415 . S
C3137 H3113 0.951 . S
C3137 C3138 1.366 . S
C3137 C3139 1.388 . S
C3138 C3137 1.366 . S
C3138 C3142 1.385 . S
C3139 H3114 0.951 . S
C3139 C3137 1.388 . S
C3139 C3140 1.366 . S
C3140 C3139 1.366 . S
C3140 C3141 1.414 . S
C3140 C3143 1.499 . S
C3141 H3115 0.950 . S
C3141 C3140 1.414 . S
C3141 C3142 1.374 . S
C3142 H3116 0.950 . S
C3142 C3138 1.385 . S
C3142 C3141 1.374 . S
C3143 C3140 1.499 . S
C3143 C3144 1.373 . S
C3143 C3145 1.389 . S
C3144 H3117 0.950 . S
C3144 C3130 1.377 . S
C3144 C3143 1.373 . S
C3145 C3129 1.377 . S
C3145 C3143 1.389 . S
C3145 C3146 1.524 . S
C3146 C3145 1.524 . S
C3146 C3147 1.397 . S
C3146 C3151 1.363 . S
C3147 H3118 0.950 . S
C3147 C3146 1.397 . S
C3147 C3148 1.334 . S
C3148 H3119 0.950 . S
C3148 C3147 1.334 . S
C3148 C3149 1.287 . S
C3149 C3148 1.287 . S
C3149 C3150 1.524 . S
C3149 H3152 0.999 . S
C3150 H3120 0.950 . S
C3150 C3149 1.524 . S
C3150 C3151 1.415 . S
C3151 H3121 0.950 . S
C3151 C3146 1.363 . S
C3151 C3150 1.415 . S
H3152 C3149 0.999 . S
H3153 C3134 0.913 . S
H3154 C3172 0.951 . S
H3155 C3174 0.951 . S
H3156 C3176 0.950 . S
H3157 C3177 0.950 . S
H3158 C3179 0.950 . S
H3159 C3182 0.950 . S
H3160 C3183 0.950 . S
H3161 C3185 0.950 . S
H3162 C3186 0.950 . S
H3163 C3187 0.951 . S
H3164 C3189 0.951 . S
H3165 C3191 0.950 . S
H3166 C3192 0.950 . S
H3167 C3194 0.950 . S
H3168 C3197 0.950 . S
H3169 C3198 0.950 . S
H3170 C3200 0.950 . S
H3171 C3201 0.950 . S
C3172 H3154 0.951 . S
C3172 C3173 1.366 . S
C3172 C3174 1.388 . S
C3173 C3172 1.366 . S
C3173 C3177 1.385 . S
C3174 H3155 0.951 . S
C3174 C3172 1.388 . S
C3174 C3175 1.366 . S
C3175 C3174 1.366 . S
C3175 C3176 1.414 . S
C3175 C3178 1.499 . S
C3176 H3156 0.950 . S
C3176 C3175 1.414 . S
C3176 C3177 1.374 . S
C3177 H3157 0.950 . S
C3177 C3173 1.385 . S
C3177 C3176 1.374 . S
C3178 C3175 1.499 . S
C3178 C3179 1.373 . S
C3178 C3180 1.389 . S
C3179 H3158 0.950 . S
C3179 C3178 1.373 . S
C3179 C3195 1.377 . S
C3180 C3178 1.389 . S
C3180 C3181 1.524 . S
C3180 C3194 1.377 . S
C3181 C3180 1.524 . S
C3181 C3182 1.397 . S
C3181 C3186 1.363 . S
C3182 H3159 0.950 . S
C3182 C3181 1.397 . S
C3182 C3183 1.334 . S
C3183 H3160 0.950 . S
C3183 C3182 1.334 . S
C3183 C3184 1.287 . S
C3184 C3183 1.287 . S
C3184 C3185 1.524 . S
C3184 H3203 0.913 . S
C3185 H3161 0.950 . S
C3185 C3184 1.524 . S
C3185 C3186 1.415 . S
C3186 H3162 0.950 . S
C3186 C3181 1.363 . S
C3186 C3185 1.415 . S
C3187 H3163 0.951 . S
C3187 C3188 1.366 . S
C3187 C3189 1.388 . S
C3188 C3187 1.366 . S
C3188 C3192 1.385 . S
C3189 H3164 0.951 . S
C3189 C3187 1.388 . S
C3189 C3190 1.366 . S
C3190 C3189 1.366 . S
C3190 C3191 1.414 . S
C3190 C3193 1.499 . S
C3191 H3165 0.950 . S
C3191 C3190 1.414 . S
C3191 C3192 1.374 . S
C3192 H3166 0.950 . S
C3192 C3188 1.385 . S
C3192 C3191 1.374 . S
C3193 C3190 1.499 . S
C3193 C3194 1.373 . S
C3193 C3195 1.389 . S
C3194 H3167 0.950 . S
C3194 C3180 1.377 . S
C3194 C3193 1.373 . S
C3195 C3179 1.377 . S
C3195 C3193 1.389 . S
C3195 C3196 1.524 . S
C3196 C3195 1.524 . S
C3196 C3197 1.397 . S
C3196 C3201 1.363 . S
C3197 H3168 0.950 . S
C3197 C3196 1.397 . S
C3197 C3198 1.334 . S
C3198 H3169 0.950 . S
C3198 C3197 1.334 . S
C3198 C3199 1.287 . S
C3199 C3198 1.287 . S
C3199 C3200 1.524 . S
C3199 H3202 0.999 . S
C3200 H3170 0.950 . S
C3200 C3199 1.524 . S
C3200 C3201 1.415 . S
C3201 H3171 0.950 . S
C3201 C3196 1.363 . S
C3201 C3200 1.415 . S
H3202 C3199 0.999 . S
H3203 C3184 0.913 . S
H3204 C3222 0.951 . S
H3205 C3224 0.951 . S
H3206 C3226 0.950 . S
H3207 C3227 0.950 . S
H3208 C3229 0.950 . S
H3209 C3232 0.950 . S
H3210 C3233 0.950 . S
H3211 C3235 0.950 . S
H3212 C3236 0.950 . S
H3213 C3237 0.934 1_545 S
H3214 C3239 0.951 . S
H3215 C3241 0.950 . S
H3216 C3242 0.950 . S
H3217 C3244 0.950 . S
H3218 C3247 0.950 . S
H3219 C3248 0.950 . S
H3220 C3250 0.950 . S
H3221 C3251 0.950 . S
C3222 H3204 0.951 . S
C3222 C3223 1.366 . S
C3222 C3224 1.388 . S
C3223 C3222 1.366 . S
C3223 C3227 1.385 . S
C3224 H3205 0.951 . S
C3224 C3222 1.388 . S
C3224 C3225 1.366 . S
C3225 C3224 1.366 . S
C3225 C3226 1.414 . S
C3225 C3228 1.499 . S
C3226 H3206 0.950 . S
C3226 C3225 1.414 . S
C3226 C3227 1.374 . S
C3227 H3207 0.950 . S
C3227 C3223 1.385 . S
C3227 C3226 1.374 . S
C3228 C3225 1.499 . S
C3228 C3229 1.373 . S
C3228 C3230 1.389 . S
C3229 H3208 0.950 . S
C3229 C3228 1.373 . S
C3229 C3245 1.377 . S
C3230 C3228 1.389 . S
C3230 C3231 1.524 . S
C3230 C3244 1.377 . S
C3231 C3230 1.524 . S
C3231 C3232 1.397 . S
C3231 C3236 1.363 . S
C3232 H3209 0.950 . S
C3232 C3231 1.397 . S
C3232 C3233 1.334 . S
C3233 H3210 0.950 . S
C3233 C3232 1.334 . S
C3233 C3234 1.287 . S
C3234 C3233 1.287 . S
C3234 C3235 1.524 . S
C3234 H3253 0.913 . S
C3235 H3211 0.950 . S
C3235 C3234 1.524 . S
C3235 C3236 1.415 . S
C3236 H3212 0.950 . S
C3236 C3231 1.363 . S
C3236 C3235 1.415 . S
C3237 H3213 0.934 1_565 S
C3237 C3238 1.366 . S
C3237 C3239 1.388 . S
C3238 C3237 1.366 . S
C3238 C3242 1.385 . S
C3239 H3214 0.951 . S
C3239 C3237 1.388 . S
C3239 C3240 1.366 . S
C3240 C3239 1.366 . S
C3240 C3241 1.414 . S
C3240 C3243 1.499 . S
C3241 H3215 0.950 . S
C3241 C3240 1.414 . S
C3241 C3242 1.374 . S
C3242 H3216 0.950 . S
C3242 C3238 1.385 . S
C3242 C3241 1.374 . S
C3243 C3240 1.499 . S
C3243 C3244 1.373 . S
C3243 C3245 1.389 . S
C3244 H3217 0.950 . S
C3244 C3230 1.377 . S
C3244 C3243 1.373 . S
C3245 C3229 1.377 . S
C3245 C3243 1.389 . S
C3245 C3246 1.524 . S
C3246 C3245 1.524 . S
C3246 C3247 1.397 . S
C3246 C3251 1.363 1_565 S
C3247 H3218 0.950 . S
C3247 C3246 1.397 . S
C3247 C3248 1.334 1_565 S
C3248 H3219 0.950 . S
C3248 C3247 1.334 1_545 S
C3248 C3249 1.287 . S
C3249 C3248 1.287 . S
C3249 C3250 1.524 . S
C3249 H3252 0.999 . S
C3250 H3220 0.950 . S
C3250 C3249 1.524 . S
C3250 C3251 1.415 . S
C3251 H3221 0.950 . S
C3251 C3246 1.363 1_545 S
C3251 C3250 1.415 . S
H3252 C3249 0.999 . S
H3253 C3234 0.913 . S
H3254 C3272 0.951 . S
H3255 C3274 0.951 . S
H3256 C3276 0.950 . S
H3257 C3277 0.950 . S
H3258 C3279 0.950 . S
H3259 C3282 0.950 . S
H3260 C3283 0.950 1_655 S
H3261 C3285 0.950 . S
H3262 C3286 0.950 . S
H3263 C3287 0.951 . S
H3264 C3289 0.951 . S
H3265 C3291 0.950 . S
H3266 C3292 0.950 . S
H3267 C3294 0.950 . S
H3268 C3297 0.950 . S
H3269 C3298 0.950 . S
H3270 C3300 0.950 . S
H3271 C3301 0.950 . S
C3272 H3254 0.951 . S
C3272 C3273 1.366 . S
C3272 C3274 1.388 . S
C3273 C3272 1.366 . S
C3273 C3277 1.385 . S
C3274 H3255 0.951 . S
C3274 C3272 1.388 . S
C3274 C3275 1.366 . S
C3275 C3274 1.366 . S
C3275 C3276 1.414 . S
C3275 C3278 1.499 . S
C3276 H3256 0.950 . S
C3276 C3275 1.414 . S
C3276 C3277 1.374 . S
C3277 H3257 0.950 . S
C3277 C3273 1.385 . S
C3277 C3276 1.374 . S
C3278 C3275 1.499 . S
C3278 C3279 1.373 . S
C3278 C3280 1.389 . S
C3279 H3258 0.950 . S
C3279 C3278 1.373 . S
C3279 C3295 1.377 . S
C3280 C3278 1.389 . S
C3280 C3281 1.524 . S
C3280 C3294 1.377 . S
C3281 C3280 1.524 . S
C3281 C3282 1.397 . S
C3281 C3286 1.363 . S
C3282 H3259 0.950 . S
C3282 C3281 1.397 . S
C3282 C3283 1.334 . S
C3283 H3260 0.950 1_455 S
C3283 C3282 1.334 . S
C3283 C3284 1.287 . S
C3284 C3283 1.287 . S
C3284 C3285 1.524 . S
C3284 H3303 0.955 . S
C3285 H3261 0.950 . S
C3285 C3284 1.524 . S
C3285 C3286 1.415 . S
C3286 H3262 0.950 . S
C3286 C3281 1.363 . S
C3286 C3285 1.415 . S
C3287 H3263 0.951 . S
C3287 C3288 1.366 . S
C3287 C3289 1.388 . S
C3288 C3287 1.366 . S
C3288 C3292 1.385 . S
C3289 H3264 0.951 . S
C3289 C3287 1.388 . S
C3289 C3290 1.366 . S
C3290 C3289 1.366 . S
C3290 C3291 1.414 . S
C3290 C3293 1.499 . S
C3291 H3265 0.950 . S
C3291 C3290 1.414 . S
C3291 C3292 1.374 . S
C3292 H3266 0.950 . S
C3292 C3288 1.385 . S
C3292 C3291 1.374 . S
C3293 C3290 1.499 . S
C3293 C3294 1.373 . S
C3293 C3295 1.389 . S
C3294 H3267 0.950 . S
C3294 C3280 1.377 . S
C3294 C3293 1.373 . S
C3295 C3279 1.377 . S
C3295 C3293 1.389 . S
C3295 C3296 1.524 . S
C3296 C3295 1.524 . S
C3296 C3297 1.397 . S
C3296 C3301 1.363 . S
C3297 H3268 0.950 . S
C3297 C3296 1.397 . S
C3297 C3298 1.334 . S
C3298 H3269 0.950 . S
C3298 C3297 1.334 . S
C3298 C3299 1.287 . S
C3299 C3298 1.287 . S
C3299 C3300 1.524 . S
C3299 H3302 0.999 . S
C3300 H3270 0.950 . S
C3300 C3299 1.524 . S
C3300 C3301 1.415 . S
C3301 H3271 0.950 . S
C3301 C3296 1.363 . S
C3301 C3300 1.415 . S
H3302 C3299 0.999 . S
H3303 C3284 0.955 . S
H3304 C3322 0.951 . S
H3305 C3324 0.951 . S
H3306 C3326 0.950 . S
H3307 C3327 0.950 . S
H3308 C3329 0.950 . S
H3309 C3332 0.950 . S
H3310 C3333 0.950 . S
H3311 C3335 0.950 . S
H3312 C3336 0.950 . S
H3313 C3337 0.951 . S
H3314 C3339 0.951 . S
H3315 C3341 0.950 . S
H3316 C3342 0.950 . S
H3317 C3344 0.950 . S
H3318 C3347 0.950 . S
H3319 C3348 0.950 . S
H3320 C3350 0.950 . S
H3321 C3351 0.950 . S
C3322 H3304 0.951 . S
C3322 C3323 1.366 . S
C3322 C3324 1.388 . S
C3323 C3322 1.366 . S
C3323 C3327 1.385 . S
C3324 H3305 0.951 . S
C3324 C3322 1.388 . S
C3324 C3325 1.366 . S
C3325 C3324 1.366 . S
C3325 C3326 1.414 . S
C3325 C3328 1.499 . S
C3326 H3306 0.950 . S
C3326 C3325 1.414 . S
C3326 C3327 1.374 . S
C3327 H3307 0.950 . S
C3327 C3323 1.385 . S
C3327 C3326 1.374 . S
C3328 C3325 1.499 . S
C3328 C3329 1.373 . S
C3328 C3330 1.389 . S
C3329 H3308 0.950 . S
C3329 C3328 1.373 . S
C3329 C3345 1.377 . S
C3330 C3328 1.389 . S
C3330 C3331 1.524 . S
C3330 C3344 1.377 . S
C3331 C3330 1.524 . S
C3331 C3332 1.397 . S
C3331 C3336 1.363 . S
C3332 H3309 0.950 . S
C3332 C3331 1.397 . S
C3332 C3333 1.334 . S
C3333 H3310 0.950 . S
C3333 C3332 1.334 . S
C3333 C3334 1.287 . S
C3334 C3333 1.287 . S
C3334 C3335 1.524 . S
C3334 H3353 0.913 . S
C3335 H3311 0.950 . S
C3335 C3334 1.524 . S
C3335 C3336 1.415 . S
C3336 H3312 0.950 . S
C3336 C3331 1.363 . S
C3336 C3335 1.415 . S
C3337 H3313 0.951 . S
C3337 C3338 1.366 . S
C3337 C3339 1.388 . S
C3338 C3337 1.366 . S
C3338 C3342 1.385 . S
C3339 H3314 0.951 . S
C3339 C3337 1.388 . S
C3339 C3340 1.366 . S
C3340 C3339 1.366 . S
C3340 C3341 1.414 . S
C3340 C3343 1.499 . S
C3341 H3315 0.950 . S
C3341 C3340 1.414 . S
C3341 C3342 1.374 . S
C3342 H3316 0.950 . S
C3342 C3338 1.385 . S
C3342 C3341 1.374 . S
C3343 C3340 1.499 . S
C3343 C3344 1.373 . S
C3343 C3345 1.389 . S
C3344 H3317 0.950 . S
C3344 C3330 1.377 . S
C3344 C3343 1.373 . S
C3345 C3329 1.377 . S
C3345 C3343 1.389 . S
C3345 C3346 1.524 . S
C3346 C3345 1.524 . S
C3346 C3347 1.397 . S
C3346 C3351 1.363 . S
C3347 H3318 0.950 . S
C3347 C3346 1.397 . S
C3347 C3348 1.334 . S
C3348 H3319 0.950 . S
C3348 C3347 1.334 . S
C3348 C3349 1.287 . S
C3349 C3348 1.287 . S
C3349 C3350 1.524 . S
C3349 H3352 0.999 . S
C3350 H3320 0.950 . S
C3350 C3349 1.524 . S
C3350 C3351 1.415 . S
C3351 H3321 0.950 . S
C3351 C3346 1.363 . S
C3351 C3350 1.415 . S
H3352 C3349 0.999 . S
H3353 C3334 0.913 . S
H3354 C3372 0.951 . S
H3355 C3374 0.951 . S
H3356 C3376 0.950 . S
H3357 C3377 0.950 . S
H3358 C3379 0.950 . S
H3359 C3382 0.950 . S
H3360 C3383 0.950 . S
H3361 C3385 0.950 . S
H3362 C3386 0.950 . S
H3363 C3387 0.951 1_455 S
H3364 C3389 0.951 1_455 S
H3365 C3391 0.950 . S
H3366 C3392 0.950 . S
H3367 C3394 0.950 . S
H3368 C3397 0.950 . S
H3369 C3398 0.950 . S
H3370 C3400 0.950 . S
H3371 C3401 0.950 . S
C3372 H3354 0.951 . S
C3372 C3373 1.366 . S
C3372 C3374 1.388 . S
C3373 C3372 1.366 . S
C3373 C3377 1.385 . S
C3374 H3355 0.951 . S
C3374 C3372 1.388 . S
C3374 C3375 1.366 . S
C3375 C3374 1.366 . S
C3375 C3376 1.414 . S
C3375 C3378 1.499 . S
C3376 H3356 0.950 . S
C3376 C3375 1.414 . S
C3376 C3377 1.374 . S
C3377 H3357 0.950 . S
C3377 C3373 1.385 . S
C3377 C3376 1.374 . S
C3378 C3375 1.499 . S
C3378 C3379 1.373 . S
C3378 C3380 1.389 . S
C3379 H3358 0.950 . S
C3379 C3378 1.373 . S
C3379 C3395 1.377 . S
C3380 C3378 1.389 . S
C3380 C3381 1.524 . S
C3380 C3394 1.377 . S
C3381 C3380 1.524 . S
C3381 C3382 1.397 . S
C3381 C3386 1.363 . S
C3382 H3359 0.950 . S
C3382 C3381 1.397 . S
C3382 C3383 1.334 . S
C3383 H3360 0.950 . S
C3383 C3382 1.334 . S
C3383 C3384 1.287 . S
C3384 C3383 1.287 . S
C3384 C3385 1.524 . S
C3384 H3403 0.913 . S
C3385 H3361 0.950 . S
C3385 C3384 1.524 . S
C3385 C3386 1.415 . S
C3386 H3362 0.950 . S
C3386 C3381 1.363 . S
C3386 C3385 1.415 . S
C3387 H3363 0.951 1_655 S
C3387 C3388 1.366 . S
C3387 C3389 1.388 . S
C3388 C3387 1.366 . S
C3388 C3392 1.385 . S
C3389 H3364 0.951 1_655 S
C3389 C3387 1.388 . S
C3389 C3390 1.366 . S
C3390 C3389 1.366 . S
C3390 C3391 1.414 . S
C3390 C3393 1.499 . S
C3391 H3365 0.950 . S
C3391 C3390 1.414 . S
C3391 C3392 1.374 . S
C3392 H3366 0.950 . S
C3392 C3388 1.385 . S
C3392 C3391 1.374 . S
C3393 C3390 1.499 . S
C3393 C3394 1.373 . S
C3393 C3395 1.389 . S
C3394 H3367 0.950 . S
C3394 C3380 1.377 . S
C3394 C3393 1.373 . S
C3395 C3379 1.377 . S
C3395 C3393 1.389 . S
C3395 C3396 1.524 . S
C3396 C3395 1.524 . S
C3396 C3397 1.397 . S
C3396 C3401 1.363 1_655 S
C3397 H3368 0.950 . S
C3397 C3396 1.397 . S
C3397 C3398 1.334 . S
C3398 H3369 0.950 . S
C3398 C3397 1.334 . S
C3398 C3399 1.287 1_655 S
C3399 C3398 1.287 1_455 S
C3399 C3400 1.524 . S
C3399 H3402 0.999 . S
C3400 H3370 0.950 . S
C3400 C3399 1.524 . S
C3400 C3401 1.415 . S
C3401 H3371 0.950 . S
C3401 C3396 1.363 1_455 S
C3401 C3400 1.415 . S
H3402 C3399 0.999 . S
H3403 C3384 0.913 . S
H3404 C3422 0.951 . S
H3405 C3424 0.951 . S
H3406 C3426 0.950 . S
H3407 C3427 0.950 . S
H3408 C3429 0.950 . S
H3409 C3432 0.950 . S
H3410 C3433 0.950 . S
H3411 C3435 0.950 . S
H3412 C3436 0.950 . S
H3413 C3437 0.951 . S
H3414 C3439 0.951 . S
H3415 C3441 0.950 . S
H3416 C3442 0.950 . S
H3417 C3444 0.950 . S
H3418 C3447 0.950 . S
H3419 C3448 0.950 . S
H3420 C3450 0.950 . S
H3421 C3451 0.950 . S
C3422 H3404 0.951 . S
C3422 C3423 1.366 . S
C3422 C3424 1.388 . S
C3423 C3422 1.366 . S
C3423 C3427 1.385 . S
C3424 H3405 0.951 . S
C3424 C3422 1.388 . S
C3424 C3425 1.366 . S
C3425 C3424 1.366 . S
C3425 C3426 1.414 . S
C3425 C3428 1.499 . S
C3426 H3406 0.950 . S
C3426 C3425 1.414 . S
C3426 C3427 1.374 . S
C3427 H3407 0.950 . S
C3427 C3423 1.385 . S
C3427 C3426 1.374 . S
C3428 C3425 1.499 . S
C3428 C3429 1.373 . S
C3428 C3430 1.389 . S
C3429 H3408 0.950 . S
C3429 C3428 1.373 . S
C3429 C3445 1.377 . S
C3430 C3428 1.389 . S
C3430 C3431 1.524 . S
C3430 C3444 1.377 . S
C3431 C3430 1.524 . S
C3431 C3432 1.397 . S
C3431 C3436 1.363 . S
C3432 H3409 0.950 . S
C3432 C3431 1.397 . S
C3432 C3433 1.334 . S
C3433 H3410 0.950 . S
C3433 C3432 1.334 . S
C3433 C3434 1.287 . S
C3434 C3433 1.287 . S
C3434 C3435 1.524 . S
C3434 H3453 0.913 . S
C3435 H3411 0.950 . S
C3435 C3434 1.524 . S
C3435 C3436 1.415 . S
C3436 H3412 0.950 . S
C3436 C3431 1.363 . S
C3436 C3435 1.415 . S
C3437 H3413 0.951 . S
C3437 C3438 1.366 . S
C3437 C3439 1.388 . S
C3438 C3437 1.366 . S
C3438 C3442 1.385 . S
C3439 H3414 0.951 . S
C3439 C3437 1.388 . S
C3439 C3440 1.366 . S
C3440 C3439 1.366 . S
C3440 C3441 1.414 . S
C3440 C3443 1.499 . S
C3441 H3415 0.950 . S
C3441 C3440 1.414 . S
C3441 C3442 1.374 . S
C3442 H3416 0.950 . S
C3442 C3438 1.385 . S
C3442 C3441 1.374 . S
C3443 C3440 1.499 . S
C3443 C3444 1.373 . S
C3443 C3445 1.389 . S
C3444 H3417 0.950 . S
C3444 C3430 1.377 . S
C3444 C3443 1.373 . S
C3445 C3429 1.377 . S
C3445 C3443 1.389 . S
C3445 C3446 1.524 . S
C3446 C3445 1.524 . S
C3446 C3447 1.397 . S
C3446 C3451 1.363 . S
C3447 H3418 0.950 . S
C3447 C3446 1.397 . S
C3447 C3448 1.334 . S
C3448 H3419 0.950 . S
C3448 C3447 1.334 . S
C3448 C3449 1.287 . S
C3449 C3448 1.287 . S
C3449 C3450 1.524 . S
C3449 H3452 0.999 . S
C3450 H3420 0.950 . S
C3450 C3449 1.524 . S
C3450 C3451 1.415 . S
C3451 H3421 0.950 . S
C3451 C3446 1.363 . S
C3451 C3450 1.415 . S
H3452 C3449 0.999 . S
H3453 C3434 0.913 . S
H3454 C3472 0.951 . S
H3455 C3474 0.951 . S
H3456 C3476 0.950 . S
H3457 C3477 0.950 . S
H3458 C3479 0.950 . S
H3459 C3482 0.950 . S
H3460 C3483 0.950 . S
H3461 C3485 0.950 . S
H3462 C3486 0.950 . S
H3463 C3487 0.951 1_565 S
H3464 C3489 0.951 . S
H3465 C3491 0.950 . S
H3466 C3492 0.950 . S
H3467 C3494 0.950 . S
H3468 C3497 0.950 . S
H3469 C3498 0.971 . S
H3470 C3500 0.950 . S
H3471 C3501 0.950 . S
C3472 H3454 0.951 . S
C3472 C3473 1.366 . S
C3472 C3474 1.388 . S
C3473 C3472 1.366 . S
C3473 C3477 1.385 . S
C3474 H3455 0.951 . S
C3474 C3472 1.388 . S
C3474 C3475 1.366 . S
C3475 C3474 1.366 . S
C3475 C3476 1.414 . S
C3475 C3478 1.499 . S
C3476 H3456 0.950 . S
C3476 C3475 1.414 . S
C3476 C3477 1.374 . S
C3477 H3457 0.950 . S
C3477 C3473 1.385 . S
C3477 C3476 1.374 . S
C3478 C3475 1.499 . S
C3478 C3479 1.373 . S
C3478 C3480 1.389 . S
C3479 H3458 0.950 . S
C3479 C3478 1.373 . S
C3479 C3495 1.377 . S
C3480 C3478 1.389 . S
C3480 C3481 1.524 . S
C3480 C3494 1.377 . S
C3481 C3480 1.524 . S
C3481 C3482 1.397 . S
C3481 C3486 1.363 . S
C3482 H3459 0.950 . S
C3482 C3481 1.397 . S
C3482 C3483 1.334 . S
C3483 H3460 0.950 . S
C3483 C3482 1.334 . S
C3483 C3484 1.287 . S
C3484 C3483 1.287 . S
C3484 C3485 1.524 . S
C3484 H3503 0.913 . S
C3485 H3461 0.950 . S
C3485 C3484 1.524 . S
C3485 C3486 1.415 . S
C3486 H3462 0.950 . S
C3486 C3481 1.363 . S
C3486 C3485 1.415 . S
C3487 H3463 0.951 1_545 S
C3487 C3488 1.366 . S
C3487 C3489 1.388 . S
C3488 C3487 1.366 . S
C3488 C3492 1.385 . S
C3489 H3464 0.951 . S
C3489 C3487 1.388 . S
C3489 C3490 1.366 . S
C3490 C3489 1.366 . S
C3490 C3491 1.414 . S
C3490 C3493 1.499 . S
C3491 H3465 0.950 . S
C3491 C3490 1.414 . S
C3491 C3492 1.374 . S
C3492 H3466 0.950 . S
C3492 C3488 1.385 . S
C3492 C3491 1.374 . S
C3493 C3490 1.499 . S
C3493 C3494 1.373 . S
C3493 C3495 1.389 . S
C3494 H3467 0.950 . S
C3494 C3480 1.377 . S
C3494 C3493 1.373 . S
C3495 C3479 1.377 . S
C3495 C3493 1.389 . S
C3495 C3496 1.524 . S
C3496 C3495 1.524 . S
C3496 C3497 1.397 . S
C3496 C3501 1.363 1_545 S
C3497 H3468 0.950 . S
C3497 C3496 1.397 . S
C3497 C3498 1.334 1_545 S
C3498 H3469 0.971 . S
C3498 C3497 1.334 1_565 S
C3498 C3499 1.287 . S
C3499 C3498 1.287 . S
C3499 C3500 1.524 . S
C3499 H3502 0.999 . S
C3500 H3470 0.950 . S
C3500 C3499 1.524 . S
C3500 C3501 1.415 . S
C3501 H3471 0.950 . S
C3501 C3496 1.363 1_565 S
C3501 C3500 1.415 . S
H3502 C3499 0.999 . S
H3503 C3484 0.913 . S
H3504 C3522 0.951 . S
H3505 C3524 0.951 . S
H3506 C3526 0.950 . S
H3507 C3527 0.950 . S
H3508 C3529 0.950 . S
H3509 C3532 0.950 . S
H3510 C3533 0.950 . S
H3511 C3535 0.950 . S
H3512 C3536 0.950 . S
H3513 C3537 0.951 . S
H3514 C3539 0.951 . S
H3515 C3541 0.950 . S
H3516 C3542 0.950 . S
H3517 C3544 0.950 . S
H3518 C3547 0.950 . S
H3519 C3548 0.950 . S
H3520 C3550 0.950 . S
H3521 C3551 0.950 . S
C3522 H3504 0.951 . S
C3522 C3523 1.366 . S
C3522 C3524 1.388 . S
C3523 C3522 1.366 . S
C3523 C3527 1.385 . S
C3524 H3505 0.951 . S
C3524 C3522 1.388 . S
C3524 C3525 1.366 . S
C3525 C3524 1.366 . S
C3525 C3526 1.414 . S
C3525 C3528 1.499 . S
C3526 H3506 0.950 . S
C3526 C3525 1.414 . S
C3526 C3527 1.374 . S
C3527 H3507 0.950 . S
C3527 C3523 1.385 . S
C3527 C3526 1.374 . S
C3528 C3525 1.499 . S
C3528 C3529 1.373 . S
C3528 C3530 1.389 . S
C3529 H3508 0.950 . S
C3529 C3528 1.373 . S
C3529 C3545 1.377 . S
C3530 C3528 1.389 . S
C3530 C3531 1.524 . S
C3530 C3544 1.377 . S
C3531 C3530 1.524 . S
C3531 C3532 1.397 . S
C3531 C3536 1.363 . S
C3532 H3509 0.950 . S
C3532 C3531 1.397 . S
C3532 C3533 1.334 . S
C3533 H3510 0.950 . S
C3533 C3532 1.334 . S
C3533 C3534 1.287 . S
C3534 C3533 1.287 . S
C3534 C3535 1.524 . S
C3534 H3553 0.913 . S
C3535 H3511 0.950 . S
C3535 C3534 1.524 . S
C3535 C3536 1.415 . S
C3536 H3512 0.950 . S
C3536 C3531 1.363 . S
C3536 C3535 1.415 . S
C3537 H3513 0.951 . S
C3537 C3538 1.366 . S
C3537 C3539 1.388 . S
C3538 C3537 1.366 . S
C3538 C3542 1.385 . S
C3539 H3514 0.951 . S
C3539 C3537 1.388 . S
C3539 C3540 1.366 . S
C3540 C3539 1.366 . S
C3540 C3541 1.414 . S
C3540 C3543 1.499 . S
C3541 H3515 0.950 . S
C3541 C3540 1.414 . S
C3541 C3542 1.374 . S
C3542 H3516 0.950 . S
C3542 C3538 1.385 . S
C3542 C3541 1.374 . S
C3543 C3540 1.499 . S
C3543 C3544 1.373 . S
C3543 C3545 1.389 . S
C3544 H3517 0.950 . S
C3544 C3530 1.377 . S
C3544 C3543 1.373 . S
C3545 C3529 1.377 . S
C3545 C3543 1.389 . S
C3545 C3546 1.524 . S
C3546 C3545 1.524 . S
C3546 C3547 1.397 . S
C3546 C3551 1.363 . S
C3547 H3518 0.950 . S
C3547 C3546 1.397 . S
C3547 C3548 1.334 . S
C3548 H3519 0.950 . S
C3548 C3547 1.334 . S
C3548 C3549 1.287 . S
C3549 C3548 1.287 . S
C3549 C3550 1.524 . S
C3549 H3552 0.999 . S
C3550 H3520 0.950 . S
C3550 C3549 1.524 . S
C3550 C3551 1.415 . S
C3551 H3521 0.950 . S
C3551 C3546 1.363 . S
C3551 C3550 1.415 . S
H3552 C3549 0.999 . S
H3553 C3534 0.913 . S
H3554 C3572 0.951 . S
H3555 C3574 0.951 . S
H3556 C3576 0.950 . S
H3557 C3577 0.950 . S
H3558 C3579 0.950 . S
H3559 C3582 0.950 . S
H3560 C3583 0.950 . S
H3561 C3585 0.950 . S
H3562 C3586 0.950 . S
H3563 C3587 0.951 . S
H3564 C3589 0.951 . S
H3565 C3591 0.950 . S
H3566 C3592 0.950 . S
H3567 C3594 0.950 . S
H3568 C3597 0.950 . S
H3569 C3598 0.950 . S
H3570 C3600 0.950 . S
H3571 C3601 0.950 . S
C3572 H3554 0.951 . S
C3572 C3573 1.366 . S
C3572 C3574 1.388 . S
C3573 C3572 1.366 . S
C3573 C3577 1.385 . S
C3574 H3555 0.951 . S
C3574 C3572 1.388 . S
C3574 C3575 1.366 . S
C3575 C3574 1.366 . S
C3575 C3576 1.414 . S
C3575 C3578 1.499 . S
C3576 H3556 0.950 . S
C3576 C3575 1.414 . S
C3576 C3577 1.374 . S
C3577 H3557 0.950 . S
C3577 C3573 1.385 . S
C3577 C3576 1.374 . S
C3578 C3575 1.499 . S
C3578 C3579 1.373 . S
C3578 C3580 1.389 . S
C3579 H3558 0.950 . S
C3579 C3578 1.373 . S
C3579 C3595 1.377 . S
C3580 C3578 1.389 . S
C3580 C3581 1.524 . S
C3580 C3594 1.377 . S
C3581 C3580 1.524 . S
C3581 C3582 1.397 . S
C3581 C3586 1.363 . S
C3582 H3559 0.950 . S
C3582 C3581 1.397 . S
C3582 C3583 1.334 . S
C3583 H3560 0.950 . S
C3583 C3582 1.334 . S
C3583 C3584 1.287 . S
C3584 C3583 1.287 . S
C3584 C3585 1.524 . S
C3584 H3603 0.913 . S
C3585 H3561 0.950 . S
C3585 C3584 1.524 . S
C3585 C3586 1.415 . S
C3586 H3562 0.950 . S
C3586 C3581 1.363 . S
C3586 C3585 1.415 . S
C3587 H3563 0.951 . S
C3587 C3588 1.366 . S
C3587 C3589 1.388 . S
C3588 C3587 1.366 . S
C3588 C3592 1.385 . S
C3589 H3564 0.951 . S
C3589 C3587 1.388 . S
C3589 C3590 1.366 . S
C3590 C3589 1.366 . S
C3590 C3591 1.414 . S
C3590 C3593 1.499 . S
C3591 H3565 0.950 . S
C3591 C3590 1.414 . S
C3591 C3592 1.374 . S
C3592 H3566 0.950 . S
C3592 C3588 1.385 . S
C3592 C3591 1.374 . S
C3593 C3590 1.499 . S
C3593 C3594 1.373 . S
C3593 C3595 1.389 . S
C3594 H3567 0.950 . S
C3594 C3580 1.377 . S
C3594 C3593 1.373 . S
C3595 C3579 1.377 . S
C3595 C3593 1.389 . S
C3595 C3596 1.524 . S
C3596 C3595 1.524 . S
C3596 C3597 1.397 . S
C3596 C3601 1.363 . S
C3597 H3568 0.950 . S
C3597 C3596 1.397 . S
C3597 C3598 1.334 . S
C3598 H3569 0.950 . S
C3598 C3597 1.334 . S
C3598 C3599 1.287 . S
C3599 C3598 1.287 . S
C3599 C3600 1.524 . S
C3599 H3602 0.999 . S
C3600 H3570 0.950 . S
C3600 C3599 1.524 . S
C3600 C3601 1.415 . S
C3601 H3571 0.950 . S
C3601 C3596 1.363 . S
C3601 C3600 1.415 . S
H3602 C3599 0.999 . S
H3603 C3584 0.913 . S
H3604 C3622 0.951 . S
H3605 C3624 0.951 . S
H3606 C3626 0.950 . S
H3607 C3627 0.950 . S
H3608 C3629 0.950 . S
H3609 C3632 0.950 . S
H3610 C3633 0.950 . S
H3611 C3635 0.950 . S
H3612 C3636 0.950 . S
H3613 C3637 0.951 . S
H3614 C3639 0.951 . S
H3615 C3641 0.950 . S
H3616 C3642 0.950 . S
H3617 C3644 0.950 . S
H3618 C3647 0.950 . S
H3619 C3648 0.950 . S
H3620 C3650 0.950 . S
H3621 C3651 0.950 . S
C3622 H3604 0.951 . S
C3622 C3623 1.366 . S
C3622 C3624 1.388 . S
C3623 C3622 1.366 . S
C3623 C3627 1.385 . S
C3624 H3605 0.951 . S
C3624 C3622 1.388 . S
C3624 C3625 1.366 . S
C3625 C3624 1.366 . S
C3625 C3626 1.414 . S
C3625 C3628 1.499 . S
C3626 H3606 0.950 . S
C3626 C3625 1.414 . S
C3626 C3627 1.374 . S
C3627 H3607 0.950 . S
C3627 C3623 1.385 . S
C3627 C3626 1.374 . S
C3628 C3625 1.499 . S
C3628 C3629 1.373 . S
C3628 C3630 1.389 . S
C3629 H3608 0.950 . S
C3629 C3628 1.373 . S
C3629 C3645 1.377 . S
C3630 C3628 1.389 . S
C3630 C3631 1.524 . S
C3630 C3644 1.377 . S
C3631 C3630 1.524 . S
C3631 C3632 1.397 . S
C3631 C3636 1.363 . S
C3632 H3609 0.950 . S
C3632 C3631 1.397 . S
C3632 C3633 1.334 . S
C3633 H3610 0.950 . S
C3633 C3632 1.334 . S
C3633 C3634 1.287 . S
C3634 C3633 1.287 . S
C3634 C3635 1.524 . S
C3634 H3653 0.913 . S
C3635 H3611 0.950 . S
C3635 C3634 1.524 . S
C3635 C3636 1.415 . S
C3636 H3612 0.950 . S
C3636 C3631 1.363 . S
C3636 C3635 1.415 . S
C3637 H3613 0.951 . S
C3637 C3638 1.366 . S
C3637 C3639 1.388 . S
C3638 C3637 1.366 . S
C3638 C3642 1.385 . S
C3639 H3614 0.951 . S
C3639 C3637 1.388 . S
C3639 C3640 1.366 . S
C3640 C3639 1.366 . S
C3640 C3641 1.414 . S
C3640 C3643 1.499 . S
C3641 H3615 0.950 . S
C3641 C3640 1.414 . S
C3641 C3642 1.374 . S
C3642 H3616 0.950 . S
C3642 C3638 1.385 . S
C3642 C3641 1.374 . S
C3643 C3640 1.499 . S
C3643 C3644 1.373 . S
C3643 C3645 1.389 . S
C3644 H3617 0.950 . S
C3644 C3630 1.377 . S
C3644 C3643 1.373 . S
C3645 C3629 1.377 . S
C3645 C3643 1.389 . S
C3645 C3646 1.524 . S
C3646 C3645 1.524 . S
C3646 C3647 1.397 . S
C3646 C3651 1.363 . S
C3647 H3618 0.950 . S
C3647 C3646 1.397 . S
C3647 C3648 1.334 . S
C3648 H3619 0.950 . S
C3648 C3647 1.334 . S
C3648 C3649 1.287 . S
C3649 C3648 1.287 . S
C3649 C3650 1.524 . S
C3649 H3652 0.999 . S
C3650 H3620 0.950 . S
C3650 C3649 1.524 . S
C3650 C3651 1.415 . S
C3651 H3621 0.950 . S
C3651 C3646 1.363 . S
C3651 C3650 1.415 . S
H3652 C3649 0.999 . S
H3653 C3634 0.913 . S
H3654 C3672 0.951 . S
H3655 C3674 0.951 . S
H3656 C3676 0.950 . S
H3657 C3677 0.950 . S
H3658 C3679 0.950 . S
H3659 C3682 0.950 . S
H3660 C3683 0.950 . S
H3661 C3685 0.950 . S
H3662 C3686 0.950 . S
H3663 C3687 0.951 . S
H3664 C3689 0.951 . S
H3665 C3691 0.950 . S
H3666 C3692 0.950 . S
H3667 C3694 0.950 . S
H3668 C3697 0.950 . S
H3669 C3698 0.950 . S
H3670 C3700 0.950 . S
H3671 C3701 0.950 . S
C3672 H3654 0.951 . S
C3672 C3673 1.366 . S
C3672 C3674 1.388 . S
C3673 C3672 1.366 . S
C3673 C3677 1.385 . S
C3674 H3655 0.951 . S
C3674 C3672 1.388 . S
C3674 C3675 1.366 . S
C3675 C3674 1.366 . S
C3675 C3676 1.414 . S
C3675 C3678 1.499 . S
C3676 H3656 0.950 . S
C3676 C3675 1.414 . S
C3676 C3677 1.374 . S
C3677 H3657 0.950 . S
C3677 C3673 1.385 . S
C3677 C3676 1.374 . S
C3678 C3675 1.499 . S
C3678 C3679 1.373 . S
C3678 C3680 1.389 . S
C3679 H3658 0.950 . S
C3679 C3678 1.373 . S
C3679 C3695 1.377 . S
C3680 C3678 1.389 . S
C3680 C3681 1.524 . S
C3680 C3694 1.377 . S
C3681 C3680 1.524 . S
C3681 C3682 1.397 . S
C3681 C3686 1.363 . S
C3682 H3659 0.950 . S
C3682 C3681 1.397 . S
C3682 C3683 1.334 . S
C3683 H3660 0.950 . S
C3683 C3682 1.334 . S
C3683 C3684 1.287 . S
C3684 C3683 1.287 . S
C3684 C3685 1.524 . S
C3684 H3703 0.913 . S
C3685 H3661 0.950 . S
C3685 C3684 1.524 . S
C3685 C3686 1.415 . S
C3686 H3662 0.950 . S
C3686 C3681 1.363 . S
C3686 C3685 1.415 . S
C3687 H3663 0.951 . S
C3687 C3688 1.366 . S
C3687 C3689 1.388 . S
C3688 C3687 1.366 . S
C3688 C3692 1.385 . S
C3689 H3664 0.951 . S
C3689 C3687 1.388 . S
C3689 C3690 1.366 . S
C3690 C3689 1.366 . S
C3690 C3691 1.414 . S
C3690 C3693 1.499 . S
C3691 H3665 0.950 . S
C3691 C3690 1.414 . S
C3691 C3692 1.374 . S
C3692 H3666 0.950 . S
C3692 C3688 1.385 . S
C3692 C3691 1.374 . S
C3693 C3690 1.499 . S
C3693 C3694 1.373 . S
C3693 C3695 1.389 . S
C3694 H3667 0.950 . S
C3694 C3680 1.377 . S
C3694 C3693 1.373 . S
C3695 C3679 1.377 . S
C3695 C3693 1.389 . S
C3695 C3696 1.524 . S
C3696 C3695 1.524 . S
C3696 C3697 1.397 . S
C3696 C3701 1.363 . S
C3697 H3668 0.950 . S
C3697 C3696 1.397 . S
C3697 C3698 1.334 . S
C3698 H3669 0.950 . S
C3698 C3697 1.334 . S
C3698 C3699 1.287 . S
C3699 C3698 1.287 . S
C3699 C3700 1.524 . S
C3699 H3702 0.999 . S
C3700 H3670 0.950 . S
C3700 C3699 1.524 . S
C3700 C3701 1.415 . S
C3701 H3671 0.950 . S
C3701 C3696 1.363 . S
C3701 C3700 1.415 . S
H3702 C3699 0.999 . S
H3703 C3684 0.913 . S
H3704 C3722 0.951 . S
H3705 C3724 0.951 . S
H3706 C3726 0.950 . S
H3707 C3727 0.950 . S
H3708 C3729 0.950 . S
H3709 C3732 0.950 . S
H3710 C3733 0.950 . S
H3711 C3735 0.950 . S
H3712 C3736 0.950 . S
H3713 C3737 0.951 . S
H3714 C3739 0.951 . S
H3715 C3741 0.950 . S
H3716 C3742 0.950 . S
H3717 C3744 0.950 . S
H3718 C3747 0.950 . S
H3719 C3748 0.950 . S
H3720 C3750 0.950 . S
H3721 C3751 0.950 . S
C3722 H3704 0.951 . S
C3722 C3723 1.366 . S
C3722 C3724 1.388 . S
C3723 C3722 1.366 . S
C3723 C3727 1.385 . S
C3724 H3705 0.951 . S
C3724 C3722 1.388 . S
C3724 C3725 1.366 . S
C3725 C3724 1.366 . S
C3725 C3726 1.414 . S
C3725 C3728 1.499 . S
C3726 H3706 0.950 . S
C3726 C3725 1.414 . S
C3726 C3727 1.374 . S
C3727 H3707 0.950 . S
C3727 C3723 1.385 . S
C3727 C3726 1.374 . S
C3728 C3725 1.499 . S
C3728 C3729 1.373 . S
C3728 C3730 1.389 . S
C3729 H3708 0.950 . S
C3729 C3728 1.373 . S
C3729 C3745 1.377 . S
C3730 C3728 1.389 . S
C3730 C3731 1.524 . S
C3730 C3744 1.377 . S
C3731 C3730 1.524 . S
C3731 C3732 1.397 . S
C3731 C3736 1.363 . S
C3732 H3709 0.950 . S
C3732 C3731 1.397 . S
C3732 C3733 1.334 . S
C3733 H3710 0.950 . S
C3733 C3732 1.334 . S
C3733 C3734 1.287 . S
C3734 C3733 1.287 . S
C3734 C3735 1.524 . S
C3734 H3753 0.913 . S
C3735 H3711 0.950 . S
C3735 C3734 1.524 . S
C3735 C3736 1.415 . S
C3736 H3712 0.950 . S
C3736 C3731 1.363 . S
C3736 C3735 1.415 . S
C3737 H3713 0.951 . S
C3737 C3738 1.366 . S
C3737 C3739 1.388 . S
C3738 C3737 1.366 . S
C3738 C3742 1.385 . S
C3739 H3714 0.951 . S
C3739 C3737 1.388 . S
C3739 C3740 1.366 . S
C3740 C3739 1.366 . S
C3740 C3741 1.414 . S
C3740 C3743 1.499 . S
C3741 H3715 0.950 . S
C3741 C3740 1.414 . S
C3741 C3742 1.374 . S
C3742 H3716 0.950 . S
C3742 C3738 1.385 . S
C3742 C3741 1.374 . S
C3743 C3740 1.499 . S
C3743 C3744 1.373 . S
C3743 C3745 1.389 . S
C3744 H3717 0.950 . S
C3744 C3730 1.377 . S
C3744 C3743 1.373 . S
C3745 C3729 1.377 . S
C3745 C3743 1.389 . S
C3745 C3746 1.524 . S
C3746 C3745 1.524 . S
C3746 C3747 1.397 . S
C3746 C3751 1.363 . S
C3747 H3718 0.950 . S
C3747 C3746 1.397 . S
C3747 C3748 1.334 . S
C3748 H3719 0.950 . S
C3748 C3747 1.334 . S
C3748 C3749 1.287 . S
C3749 C3748 1.287 . S
C3749 C3750 1.524 . S
C3749 H3752 0.999 . S
C3750 H3720 0.950 . S
C3750 C3749 1.524 . S
C3750 C3751 1.415 . S
C3751 H3721 0.950 . S
C3751 C3746 1.363 . S
C3751 C3750 1.415 . S
H3752 C3749 0.999 . S
H3753 C3734 0.913 . S
H3754 C3772 0.951 . S
H3755 C3774 0.951 . S
H3756 C3776 0.950 . S
H3757 C3777 0.950 . S
H3758 C3779 0.950 . S
H3759 C3782 0.950 . S
H3760 C3783 0.950 . S
H3761 C3785 0.950 . S
H3762 C3786 0.950 . S
H3763 C3787 0.951 . S
H3764 C3789 0.951 . S
H3765 C3791 0.950 . S
H3766 C3792 0.950 . S
H3767 C3794 0.950 . S
H3768 C3797 0.950 . S
H3769 C3798 0.950 . S
H3770 C3800 0.950 . S
H3771 C3801 0.950 . S
C3772 H3754 0.951 . S
C3772 C3773 1.366 . S
C3772 C3774 1.388 . S
C3773 C3772 1.366 . S
C3773 C3777 1.385 . S
C3774 H3755 0.951 . S
C3774 C3772 1.388 . S
C3774 C3775 1.366 . S
C3775 C3774 1.366 . S
C3775 C3776 1.414 . S
C3775 C3778 1.499 . S
C3776 H3756 0.950 . S
C3776 C3775 1.414 . S
C3776 C3777 1.374 . S
C3777 H3757 0.950 . S
C3777 C3773 1.385 . S
C3777 C3776 1.374 . S
C3778 C3775 1.499 . S
C3778 C3779 1.373 . S
C3778 C3780 1.389 . S
C3779 H3758 0.950 . S
C3779 C3778 1.373 . S
C3779 C3795 1.377 . S
C3780 C3778 1.389 . S
C3780 C3781 1.524 . S
C3780 C3794 1.377 . S
C3781 C3780 1.524 . S
C3781 C3782 1.397 . S
C3781 C3786 1.363 . S
C3782 H3759 0.950 . S
C3782 C3781 1.397 . S
C3782 C3783 1.334 . S
C3783 H3760 0.950 . S
C3783 C3782 1.334 . S
C3783 C3784 1.287 . S
C3784 C3783 1.287 . S
C3784 C3785 1.524 . S
C3784 H3803 0.913 . S
C3785 H3761 0.950 . S
C3785 C3784 1.524 . S
C3785 C3786 1.415 . S
C3786 H3762 0.950 . S
C3786 C3781 1.363 . S
C3786 C3785 1.415 . S
C3787 H3763 0.951 . S
C3787 C3788 1.366 . S
C3787 C3789 1.388 . S
C3788 C3787 1.366 . S
C3788 C3792 1.385 . S
C3789 H3764 0.951 . S
C3789 C3787 1.388 . S
C3789 C3790 1.366 . S
C3790 C3789 1.366 . S
C3790 C3791 1.414 . S
C3790 C3793 1.499 . S
C3791 H3765 0.950 . S
C3791 C3790 1.414 . S
C3791 C3792 1.374 . S
C3792 H3766 0.950 . S
C3792 C3788 1.385 . S
C3792 C3791 1.374 . S
C3793 C3790 1.499 . S
C3793 C3794 1.373 . S
C3793 C3795 1.389 . S
C3794 H3767 0.950 . S
C3794 C3780 1.377 . S
C3794 C3793 1.373 . S
C3795 C3779 1.377 . S
C3795 C3793 1.389 . S
C3795 C3796 1.524 . S
C3796 C3795 1.524 . S
C3796 C3797 1.397 . S
C3796 C3801 1.363 . S
C3797 H3768 0.950 . S
C3797 C3796 1.397 . S
C3797 C3798 1.334 . S
C3798 H3769 0.950 . S
C3798 C3797 1.334 . S
C3798 C3799 1.287 . S
C3799 C3798 1.287 . S
C3799 C3800 1.524 . S
C3799 H3802 0.999 . S
C3800 H3770 0.950 . S
C3800 C3799 1.524 . S
C3800 C3801 1.415 . S
C3801 H3771 0.950 . S
C3801 C3796 1.363 . S
C3801 C3800 1.415 . S
H3802 C3799 0.999 . S
H3803 C3784 0.913 . S
H3804 C3822 0.951 . S
H3805 C3824 0.951 . S
H3806 C3826 0.950 . S
H3807 C3827 0.950 . S
H3808 C3829 0.950 . S
H3809 C3832 0.950 . S
H3810 C3833 0.950 . S
H3811 C3835 0.950 . S
H3812 C3836 0.950 . S
H3813 C3837 0.951 . S
H3814 C3839 0.951 . S
H3815 C3841 0.950 . S
H3816 C3842 0.950 . S
H3817 C3844 0.950 . S
H3818 C3847 0.950 . S
H3819 C3848 0.950 . S
H3820 C3850 0.950 . S
H3821 C3851 0.950 . S
C3822 H3804 0.951 . S
C3822 C3823 1.366 . S
C3822 C3824 1.388 . S
C3823 C3822 1.366 . S
C3823 C3827 1.385 . S
C3824 H3805 0.951 . S
C3824 C3822 1.388 . S
C3824 C3825 1.366 . S
C3825 C3824 1.366 . S
C3825 C3826 1.414 . S
C3825 C3828 1.499 . S
C3826 H3806 0.950 . S
C3826 C3825 1.414 . S
C3826 C3827 1.374 . S
C3827 H3807 0.950 . S
C3827 C3823 1.385 . S
C3827 C3826 1.374 . S
C3828 C3825 1.499 . S
C3828 C3829 1.373 . S
C3828 C3830 1.389 . S
C3829 H3808 0.950 . S
C3829 C3828 1.373 . S
C3829 C3845 1.377 . S
C3830 C3828 1.389 . S
C3830 C3831 1.524 . S
C3830 C3844 1.377 . S
C3831 C3830 1.524 . S
C3831 C3832 1.397 . S
C3831 C3836 1.363 . S
C3832 H3809 0.950 . S
C3832 C3831 1.397 . S
C3832 C3833 1.334 . S
C3833 H3810 0.950 . S
C3833 C3832 1.334 . S
C3833 C3834 1.287 . S
C3834 C3833 1.287 . S
C3834 C3835 1.524 . S
C3834 H3853 0.913 . S
C3835 H3811 0.950 . S
C3835 C3834 1.524 . S
C3835 C3836 1.415 . S
C3836 H3812 0.950 . S
C3836 C3831 1.363 . S
C3836 C3835 1.415 . S
C3837 H3813 0.951 . S
C3837 C3838 1.366 . S
C3837 C3839 1.388 . S
C3838 C3837 1.366 . S
C3838 C3842 1.385 . S
C3839 H3814 0.951 . S
C3839 C3837 1.388 . S
C3839 C3840 1.366 . S
C3840 C3839 1.366 . S
C3840 C3841 1.414 . S
C3840 C3843 1.499 . S
C3841 H3815 0.950 . S
C3841 C3840 1.414 . S
C3841 C3842 1.374 . S
C3842 H3816 0.950 . S
C3842 C3838 1.385 . S
C3842 C3841 1.374 . S
C3843 C3840 1.499 . S
C3843 C3844 1.373 . S
C3843 C3845 1.389 . S
C3844 H3817 0.950 . S
C3844 C3830 1.377 . S
C3844 C3843 1.373 . S
C3845 C3829 1.377 . S
C3845 C3843 1.389 . S
C3845 C3846 1.524 . S
C3846 C3845 1.524 . S
C3846 C3847 1.397 . S
C3846 C3851 1.363 . S
C3847 H3818 0.950 . S
C3847 C3846 1.397 . S
C3847 C3848 1.334 . S
C3848 H3819 0.950 . S
C3848 C3847 1.334 . S
C3848 C3849 1.287 . S
C3849 C3848 1.287 . S
C3849 C3850 1.524 . S
C3849 H3852 0.999 . S
C3850 H3820 0.950 . S
C3850 C3849 1.524 . S
C3850 C3851 1.415 . S
C3851 H3821 0.950 . S
C3851 C3846 1.363 . S
C3851 C3850 1.415 . S
H3852 C3849 0.999 . S
H3853 C3834 0.913 . S
H3854 C3872 0.951 . S
H3855 C3874 0.951 . S
H3856 C3876 0.950 . S
H3857 C3877 0.950 . S
H3858 C3879 0.950 . S
H3859 C3882 0.950 . S
H3860 C3883 0.950 . S
H3861 C3885 0.950 . S
H3862 C3886 0.950 . S
H3863 C3887 0.951 . S
H3864 C3889 0.951 . S
H3865 C3891 0.950 . S
H3866 C3892 0.950 . S
H3867 C3894 0.950 . S
H3868 C3897 0.950 . S
H3869 C3898 0.950 . S
H3870 C3900 0.950 . S
H3871 C3901 0.950 . S
C3872 H3854 0.951 . S
C3872 C3873 1.366 . S
C3872 C3874 1.388 . S
C3873 C3872 1.366 . S
C3873 C3877 1.385 . S
C3874 H3855 0.951 . S
C3874 C3872 1.388 . S
C3874 C3875 1.366 . S
C3875 C3874 1.366 . S
C3875 C3876 1.414 . S
C3875 C3878 1.499 . S
C3876 H3856 0.950 . S
C3876 C3875 1.414 . S
C3876 C3877 1.374 . S
C3877 H3857 0.950 . S
C3877 C3873 1.385 . S
C3877 C3876 1.374 . S
C3878 C3875 1.499 . S
C3878 C3879 1.373 . S
C3878 C3880 1.389 . S
C3879 H3858 0.950 . S
C3879 C3878 1.373 . S
C3879 C3895 1.377 . S
C3880 C3878 1.389 . S
C3880 C3881 1.524 . S
C3880 C3894 1.377 . S
C3881 C3880 1.524 . S
C3881 C3882 1.397 . S
C3881 C3886 1.363 . S
C3882 H3859 0.950 . S
C3882 C3881 1.397 . S
C3882 C3883 1.334 . S
C3883 H3860 0.950 . S
C3883 C3882 1.334 . S
C3883 C3884 1.287 . S
C3884 C3883 1.287 . S
C3884 C3885 1.524 . S
C3884 H3903 0.913 . S
C3885 H3861 0.950 . S
C3885 C3884 1.524 . S
C3885 C3886 1.415 . S
C3886 H3862 0.950 . S
C3886 C3881 1.363 . S
C3886 C3885 1.415 . S
C3887 H3863 0.951 . S
C3887 C3888 1.366 . S
C3887 C3889 1.388 . S
C3888 C3887 1.366 . S
C3888 C3892 1.385 . S
C3889 H3864 0.951 . S
C3889 C3887 1.388 . S
C3889 C3890 1.366 . S
C3890 C3889 1.366 . S
C3890 C3891 1.414 . S
C3890 C3893 1.499 . S
C3891 H3865 0.950 . S
C3891 C3890 1.414 . S
C3891 C3892 1.374 . S
C3892 H3866 0.950 . S
C3892 C3888 1.385 . S
C3892 C3891 1.374 . S
C3893 C3890 1.499 . S
C3893 C3894 1.373 . S
C3893 C3895 1.389 . S
C3894 H3867 0.950 . S
C3894 C3880 1.377 . S
C3894 C3893 1.373 . S
C3895 C3879 1.377 . S
C3895 C3893 1.389 . S
C3895 C3896 1.524 . S
C3896 C3895 1.524 . S
C3896 C3897 1.397 . S
C3896 C3901 1.363 . S
C3897 H3868 0.950 . S
C3897 C3896 1.397 . S
C3897 C3898 1.334 . S
C3898 H3869 0.950 . S
C3898 C3897 1.334 . S
C3898 C3899 1.287 . S
C3899 C3898 1.287 . S
C3899 C3900 1.524 . S
C3899 H3902 0.999 . S
C3900 H3870 0.950 . S
C3900 C3899 1.524 . S
C3900 C3901 1.415 . S
C3901 H3871 0.950 . S
C3901 C3896 1.363 . S
C3901 C3900 1.415 . S
H3902 C3899 0.999 . S
H3903 C3884 0.913 . S
H3904 C3922 0.951 . S
H3905 C3924 0.951 . S
H3906 C3926 0.950 . S
H3907 C3927 0.950 . S
H3908 C3929 0.950 . S
H3909 C3932 0.950 . S
H3910 C3933 0.950 . S
H3911 C3935 0.950 . S
H3912 C3936 0.950 . S
H3913 C3937 0.951 . S
H3914 C3939 0.951 . S
H3915 C3941 0.950 . S
H3916 C3942 0.950 . S
H3917 C3944 0.950 . S
H3918 C3947 0.950 . S
H3919 C3948 0.950 . S
H3920 C3950 0.950 . S
H3921 C3951 0.950 . S
C3922 H3904 0.951 . S
C3922 C3923 1.366 . S
C3922 C3924 1.388 . S
C3923 C3922 1.366 . S
C3923 C3927 1.385 . S
C3924 H3905 0.951 . S
C3924 C3922 1.388 . S
C3924 C3925 1.366 . S
C3925 C3924 1.366 . S
C3925 C3926 1.414 . S
C3925 C3928 1.499 . S
C3926 H3906 0.950 . S
C3926 C3925 1.414 . S
C3926 C3927 1.374 . S
C3927 H3907 0.950 . S
C3927 C3923 1.385 . S
C3927 C3926 1.374 . S
C3928 C3925 1.499 . S
C3928 C3929 1.373 . S
C3928 C3930 1.389 . S
C3929 H3908 0.950 . S
C3929 C3928 1.373 . S
C3929 C3945 1.377 . S
C3930 C3928 1.389 . S
C3930 C3931 1.524 . S
C3930 C3944 1.377 . S
C3931 C3930 1.524 . S
C3931 C3932 1.397 . S
C3931 C3936 1.363 . S
C3932 H3909 0.950 . S
C3932 C3931 1.397 . S
C3932 C3933 1.334 . S
C3933 H3910 0.950 . S
C3933 C3932 1.334 . S
C3933 C3934 1.287 . S
C3934 C3933 1.287 . S
C3934 C3935 1.524 . S
C3934 H3953 0.913 . S
C3935 H3911 0.950 . S
C3935 C3934 1.524 . S
C3935 C3936 1.415 . S
C3936 H3912 0.950 . S
C3936 C3931 1.363 . S
C3936 C3935 1.415 . S
C3937 H3913 0.951 . S
C3937 C3938 1.366 . S
C3937 C3939 1.388 . S
C3938 C3937 1.366 . S
C3938 C3942 1.385 . S
C3939 H3914 0.951 . S
C3939 C3937 1.388 . S
C3939 C3940 1.366 . S
C3940 C3939 1.366 . S
C3940 C3941 1.414 . S
C3940 C3943 1.499 . S
C3941 H3915 0.950 . S
C3941 C3940 1.414 . S
C3941 C3942 1.374 . S
C3942 H3916 0.950 . S
C3942 C3938 1.385 . S
C3942 C3941 1.374 . S
C3943 C3940 1.499 . S
C3943 C3944 1.373 . S
C3943 C3945 1.389 . S
C3944 H3917 0.950 . S
C3944 C3930 1.377 . S
C3944 C3943 1.373 . S
C3945 C3929 1.377 . S
C3945 C3943 1.389 . S
C3945 C3946 1.524 . S
C3946 C3945 1.524 . S
C3946 C3947 1.397 . S
C3946 C3951 1.363 . S
C3947 H3918 0.950 . S
C3947 C3946 1.397 . S
C3947 C3948 1.334 . S
C3948 H3919 0.950 . S
C3948 C3947 1.334 . S
C3948 C3949 1.287 . S
C3949 C3948 1.287 . S
C3949 C3950 1.524 . S
C3949 H3952 0.999 . S
C3950 H3920 0.950 . S
C3950 C3949 1.524 . S
C3950 C3951 1.415 . S
C3951 H3921 0.950 . S
C3951 C3946 1.363 . S
C3951 C3950 1.415 . S
H3952 C3949 0.999 . S
H3953 C3934 0.913 . S
H3954 C3972 0.951 . S
H3955 C3974 0.951 . S
H3956 C3976 0.950 . S
H3957 C3977 0.950 . S
H3958 C3979 0.950 . S
H3959 C3982 0.950 . S
H3960 C3983 0.950 . S
H3961 C3985 0.950 . S
H3962 C3986 0.950 . S
H3963 C3987 0.951 . S
H3964 C3989 0.951 . S
H3965 C3991 0.950 . S
H3966 C3992 0.950 . S
H3967 C3994 0.950 . S
H3968 C3997 0.950 . S
H3969 C3998 0.950 . S
H3970 C4000 0.950 . S
H3971 C4001 0.950 . S
C3972 H3954 0.951 . S
C3972 C3973 1.366 . S
C3972 C3974 1.388 . S
C3973 C3972 1.366 . S
C3973 C3977 1.385 . S
C3974 H3955 0.951 . S
C3974 C3972 1.388 . S
C3974 C3975 1.366 . S
C3975 C3974 1.366 . S
C3975 C3976 1.414 . S
C3975 C3978 1.499 . S
C3976 H3956 0.950 . S
C3976 C3975 1.414 . S
C3976 C3977 1.374 . S
C3977 H3957 0.950 . S
C3977 C3973 1.385 . S
C3977 C3976 1.374 . S
C3978 C3975 1.499 . S
C3978 C3979 1.373 . S
C3978 C3980 1.389 . S
C3979 H3958 0.950 . S
C3979 C3978 1.373 . S
C3979 C3995 1.377 . S
C3980 C3978 1.389 . S
C3980 C3981 1.524 . S
C3980 C3994 1.377 . S
C3981 C3980 1.524 . S
C3981 C3982 1.397 . S
C3981 C3986 1.363 . S
C3982 H3959 0.950 . S
C3982 C3981 1.397 . S
C3982 C3983 1.334 . S
C3983 H3960 0.950 . S
C3983 C3982 1.334 . S
C3983 C3984 1.287 . S
C3984 C3983 1.287 . S
C3984 C3985 1.524 . S
C3984 H4003 0.913 . S
C3985 H3961 0.950 . S
C3985 C3984 1.524 . S
C3985 C3986 1.415 . S
C3986 H3962 0.950 . S
C3986 C3981 1.363 . S
C3986 C3985 1.415 . S
C3987 H3963 0.951 . S
C3987 C3988 1.366 . S
C3987 C3989 1.388 . S
C3988 C3987 1.366 . S
C3988 C3992 1.385 . S
C3989 H3964 0.951 . S
C3989 C3987 1.388 . S
C3989 C3990 1.366 . S
C3990 C3989 1.366 . S
C3990 C3991 1.414 . S
C3990 C3993 1.499 . S
C3991 H3965 0.950 . S
C3991 C3990 1.414 . S
C3991 C3992 1.374 . S
C3992 H3966 0.950 . S
C3992 C3988 1.385 . S
C3992 C3991 1.374 . S
C3993 C3990 1.499 . S
C3993 C3994 1.373 . S
C3993 C3995 1.389 . S
C3994 H3967 0.950 . S
C3994 C3980 1.377 . S
C3994 C3993 1.373 . S
C3995 C3979 1.377 . S
C3995 C3993 1.389 . S
C3995 C3996 1.524 . S
C3996 C3995 1.524 . S
C3996 C3997 1.397 . S
C3996 C4001 1.363 . S
C3997 H3968 0.950 . S
C3997 C3996 1.397 . S
C3997 C3998 1.334 . S
C3998 H3969 0.950 . S
C3998 C3997 1.334 . S
C3998 C3999 1.287 . S
C3999 C3998 1.287 . S
C3999 C4000 1.524 . S
C3999 H4002 0.999 . S
C4000 H3970 0.950 . S
C4000 C3999 1.524 . S
C4000 C4001 1.415 . S
C4001 H3971 0.950 . S
C4001 C3996 1.363 . S
C4001 C4000 1.415 . S
H4002 C3999 0.999 . S
H4003 C3984 0.913 . S
H4004 C4022 0.951 . S
H4005 C4024 0.951 . S
H4006 C4026 0.950 . S
H4007 C4027 0.950 . S
H4008 C4029 0.950 . S
H4009 C4032 0.950 . S
H4010 C4033 0.950 . S
H4011 C4035 0.950 . S
H4012 C4036 0.950 . S
H4013 C4037 0.951 . S
H4014 C4039 0.951 . S
H4015 C4041 0.950 . S
H4016 C4042 0.950 . S
H4017 C4044 0.950 . S
H4018 C4047 0.950 . S
H4019 C4048 0.950 . S
H4020 C4050 0.950 . S
H4021 C4051 0.950 . S
C4022 H4004 0.951 . S
C4022 C4023 1.366 . S
C4022 C4024 1.388 . S
C4023 C4022 1.366 . S
C4023 C4027 1.385 . S
C4024 H4005 0.951 . S
C4024 C4022 1.388 . S
C4024 C4025 1.366 . S
C4025 C4024 1.366 . S
C4025 C4026 1.414 . S
C4025 C4028 1.499 . S
C4026 H4006 0.950 . S
C4026 C4025 1.414 . S
C4026 C4027 1.374 . S
C4027 H4007 0.950 . S
C4027 C4023 1.385 . S
C4027 C4026 1.374 . S
C4028 C4025 1.499 . S
C4028 C4029 1.373 . S
C4028 C4030 1.389 . S
C4029 H4008 0.950 . S
C4029 C4028 1.373 . S
C4029 C4045 1.377 . S
C4030 C4028 1.389 . S
C4030 C4031 1.524 . S
C4030 C4044 1.377 . S
C4031 C4030 1.524 . S
C4031 C4032 1.397 . S
C4031 C4036 1.363 . S
C4032 H4009 0.950 . S
C4032 C4031 1.397 . S
C4032 C4033 1.334 . S
C4033 H4010 0.950 . S
C4033 C4032 1.334 . S
C4033 C4034 1.287 . S
C4034 C4033 1.287 . S
C4034 C4035 1.524 . S
C4034 H4053 0.913 . S
C4035 H4011 0.950 . S
C4035 C4034 1.524 . S
C4035 C4036 1.415 . S
C4036 H4012 0.950 . S
C4036 C4031 1.363 . S
C4036 C4035 1.415 . S
C4037 H4013 0.951 . S
C4037 C4038 1.366 . S
C4037 C4039 1.388 . S
C4038 C4037 1.366 . S
C4038 C4042 1.385 . S
C4039 H4014 0.951 . S
C4039 C4037 1.388 . S
C4039 C4040 1.366 . S
C4040 C4039 1.366 . S
C4040 C4041 1.414 . S
C4040 C4043 1.499 . S
C4041 H4015 0.950 . S
C4041 C4040 1.414 . S
C4041 C4042 1.374 . S
C4042 H4016 0.950 . S
C4042 C4038 1.385 . S
C4042 C4041 1.374 . S
C4043 C4040 1.499 . S
C4043 C4044 1.373 . S
C4043 C4045 1.389 . S
C4044 H4017 0.950 . S
C4044 C4030 1.377 . S
C4044 C4043 1.373 . S
C4045 C4029 1.377 . S
C4045 C4043 1.389 . S
C4045 C4046 1.524 . S
C4046 C4045 1.524 . S
C4046 C4047 1.397 . S
C4046 C4051 1.363 . S
C4047 H4018 0.950 . S
C4047 C4046 1.397 . S
C4047 C4048 1.334 . S
C4048 H4019 0.950 . S
C4048 C4047 1.334 . S
C4048 C4049 1.287 . S
C4049 C4048 1.287 . S
C4049 C4050 1.524 . S
C4049 H4052 0.999 . S
C4050 H4020 0.950 . S
C4050 C4049 1.524 . S
C4050 C4051 1.415 . S
C4051 H4021 0.950 . S
C4051 C4046 1.363 . S
C4051 C4050 1.415 . S
H4052 C4049 0.999 . S
H4053 C4034 0.913 . S
H4054 C4072 0.951 . S
H4055 C4074 0.951 . S
H4056 C4076 0.950 . S
H4057 C4077 0.950 . S
H4058 C4079 0.950 . S
H4059 C4082 0.950 . S
H4060 C4083 0.950 . S
H4061 C4085 0.950 . S
H4062 C4086 0.950 . S
H4063 C4087 0.951 . S
H4064 C4089 0.951 . S
H4065 C4091 0.950 . S
H4066 C4092 0.950 . S
H4067 C4094 0.950 . S
H4068 C4097 0.950 . S
H4069 C4098 0.950 . S
H4070 C4100 0.950 . S
H4071 C4101 0.950 . S
C4072 H4054 0.951 . S
C4072 C4073 1.366 . S
C4072 C4074 1.388 . S
C4073 C4072 1.366 . S
C4073 C4077 1.385 . S
C4074 H4055 0.951 . S
C4074 C4072 1.388 . S
C4074 C4075 1.366 . S
C4075 C4074 1.366 . S
C4075 C4076 1.414 . S
C4075 C4078 1.499 . S
C4076 H4056 0.950 . S
C4076 C4075 1.414 . S
C4076 C4077 1.374 . S
C4077 H4057 0.950 . S
C4077 C4073 1.385 . S
C4077 C4076 1.374 . S
C4078 C4075 1.499 . S
C4078 C4079 1.373 . S
C4078 C4080 1.389 . S
C4079 H4058 0.950 . S
C4079 C4078 1.373 . S
C4079 C4095 1.377 . S
C4080 C4078 1.389 . S
C4080 C4081 1.524 . S
C4080 C4094 1.377 . S
C4081 C4080 1.524 . S
C4081 C4082 1.397 . S
C4081 C4086 1.363 . S
C4082 H4059 0.950 . S
C4082 C4081 1.397 . S
C4082 C4083 1.334 . S
C4083 H4060 0.950 . S
C4083 C4082 1.334 . S
C4083 C4084 1.287 . S
C4084 C4083 1.287 . S
C4084 C4085 1.524 . S
C4084 H4103 0.913 . S
C4085 H4061 0.950 . S
C4085 C4084 1.524 . S
C4085 C4086 1.415 . S
C4086 H4062 0.950 . S
C4086 C4081 1.363 . S
C4086 C4085 1.415 . S
C4087 H4063 0.951 . S
C4087 C4088 1.366 . S
C4087 C4089 1.388 . S
C4088 C4087 1.366 . S
C4088 C4092 1.385 . S
C4089 H4064 0.951 . S
C4089 C4087 1.388 . S
C4089 C4090 1.366 . S
C4090 C4089 1.366 . S
C4090 C4091 1.414 . S
C4090 C4093 1.499 . S
C4091 H4065 0.950 . S
C4091 C4090 1.414 . S
C4091 C4092 1.374 . S
C4092 H4066 0.950 . S
C4092 C4088 1.385 . S
C4092 C4091 1.374 . S
C4093 C4090 1.499 . S
C4093 C4094 1.373 . S
C4093 C4095 1.389 . S
C4094 H4067 0.950 . S
C4094 C4080 1.377 . S
C4094 C4093 1.373 . S
C4095 C4079 1.377 . S
C4095 C4093 1.389 . S
C4095 C4096 1.524 . S
C4096 C4095 1.524 . S
C4096 C4097 1.397 . S
C4096 C4101 1.363 . S
C4097 H4068 0.950 . S
C4097 C4096 1.397 . S
C4097 C4098 1.334 . S
C4098 H4069 0.950 . S
C4098 C4097 1.334 . S
C4098 C4099 1.287 . S
C4099 C4098 1.287 . S
C4099 C4100 1.524 . S
C4099 H4102 0.999 . S
C4100 H4070 0.950 . S
C4100 C4099 1.524 . S
C4100 C4101 1.415 . S
C4101 H4071 0.950 . S
C4101 C4096 1.363 . S
C4101 C4100 1.415 . S
H4102 C4099 0.999 . S
H4103 C4084 0.913 . S
C1423 C469 1.416 . S
C1438 C715 1.339 . S
C1473 C505 1.445 . S
C1488 C799 1.373 . S
C1523 C433 1.451 . S
C1538 C879 1.408 . S
C1573 C397 1.404 . S
C1588 C795 1.367 . S
C1638 C883 1.299 . S
C1623 C325 1.371 . S
C1673 C361 1.379 . S
C1688 C711 1.338 . S
C1738 C704 1.340 . S
C1723 C421 1.415 . S
C1788 C788 1.374 . S
C1773 C349 1.443 . S
C1823 C385 1.450 . S
C1838 C890 1.409 . S
C1873 C493 1.402 . S
C1888 C806 1.366 . S
C1923 C529 1.370 . S
C1938 C872 1.299 . S
C1988 C722 1.339 . S
C1973 C457 1.379 . S
C2038 C967 1.339 . S
C2023 C37 1.416 . S
C2073 C73 1.444 . S
C2088 C1051 1.373 . S
C2123 C1 1.452 . S
C2138 C1131 1.409 . S
C2173 C613 1.404 . S
C2188 C1047 1.365 . S
C2223 C541 1.371 . S
C2238 C1135 1.299 . S
C2273 C577 1.380 . S
C2288 C963 1.338 . S
C2323 C637 1.415 . S
C2338 C956 1.341 . S
C2373 C565 1.443 . S
C2388 C1040 1.373 . S
C2438 C1142 1.410 . S
C2423 C601 1.450 . S
C2473 C61 1.402 . S
C2488 C1058 1.366 . S
C2538 C1124 1.300 . S
C2523 C97 1.370 . S
C2573 C25 1.379 . S
C2588 C974 1.339 . S
C2638 C1219 1.339 . S
C2623 C253 1.416 . S
C2673 C289 1.444 . S
C2688 C1303 1.374 . S
C2738 C1383 1.408 . S
C2723 C217 1.451 . S
C2788 C1299 1.366 . S
C2773 C181 1.404 . S
C2838 C1387 1.299 . S
C2823 C109 1.371 . S
C2873 C145 1.380 . S
C2888 C1215 1.339 . S
C2923 C205 1.415 . S
C2938 C1208 1.341 . S
C2973 C133 1.443 . S
C2988 C1292 1.374 . S
C3038 C1394 1.410 . S
C3023 C169 1.450 . S
C3073 C277 1.403 . S
C3088 C1310 1.366 . S
C3123 C313 1.370 . S
C3138 C1376 1.299 . S
C3173 C241 1.379 . S
C3188 C1226 1.339 . S
C3223 C571 1.416 . S
C3238 C718 1.305 . S
C3288 C802 1.355 . S
C3273 C607 1.498 . S
C3323 C643 1.454 . S
C3338 C874 1.324 . S
C3373 C247 1.498 . S
C3388 C790 1.355 . S
C3423 C283 1.455 . S
C3438 C886 1.324 . S
C3488 C706 1.304 . S
C3473 C319 1.416 . S
C3523 C139 1.416 . S
C3538 C970 1.305 . S
C3573 C175 1.498 . S
C3588 C1054 1.356 . S
C3623 C211 1.454 . S
C3638 C1126 1.324 . S
C3673 C463 1.498 . S
C3688 C1042 1.355 . S
C3738 C1138 1.325 . S
C3723 C499 1.455 . S
C3773 C535 1.416 . S
C3788 C958 1.304 . S
C3823 C355 1.417 . S
C3838 C1222 1.303 . S
C3873 C391 1.498 . S
C3888 C1306 1.356 . S
C3938 C1378 1.324 . S
C3923 C427 1.454 . S
C3973 C31 1.498 . S
C3988 C1294 1.356 . S
C4023 C67 1.455 . S
C4038 C1390 1.324 . S
C4073 C103 1.416 . S
C4088 C1210 1.303 . S
