# Generated by pormake.
# Topology pyr, (3,6)-cn, num edge types: 1
# Building blocks:
#     Node 0, Type 0, BuildingBlock: BELTOD_clean_linker_0, # of connection points: 3
#     Node 1, Type 0, BuildingBlock: BELTOD_clean_linker_0, # of connection points: 3
#     Node 2, Type 0, BuildingBlock: BELTOD_clean_linker_0, # of connection points: 3
#     Node 3, Type 0, BuildingBlock: BELTOD_clean_linker_0, # of connection points: 3
#     Node 4, Type 0, BuildingBlock: BELTOD_clean_linker_0, # of connection points: 3
#     Node 5, Type 0, BuildingBlock: BELTOD_clean_linker_0, # of connection points: 3
#     Node 6, Type 0, BuildingBlock: BELTOD_clean_linker_0, # of connection points: 3
#     Node 7, Type 0, BuildingBlock: BELTOD_clean_linker_0, # of connection points: 3
#     Node 8, Type 1, BuildingBlock: GEDQOX_clean_sbu_0, # of connection points: 6
#     Node 9, Type 1, BuildingBlock: GEDQOX_clean_sbu_0, # of connection points: 6
#     Node 10, Type 1, BuildingBlock: GEDQOX_clean_sbu_0, # of connection points: 6
#     Node 11, Type 1, BuildingBlock: GEDQOX_clean_sbu_0, # of connection points: 6
#     Edge 12, Type (0, 1), BuildingBlock: UVAHIK_clean_linker_0, # of connection points: 2
#     Edge 13, Type (0, 1), BuildingBlock: UVAHIK_clean_linker_0, # of connection points: 2
#     Edge 14, Type (0, 1), BuildingBlock: UVAHIK_clean_linker_0, # of connection points: 2
#     Edge 15, Type (0, 1), BuildingBlock: UVAHIK_clean_linker_0, # of connection points: 2
#     Edge 16, Type (0, 1), BuildingBlock: UVAHIK_clean_linker_0, # of connection points: 2
#     Edge 17, Type (0, 1), BuildingBlock: UVAHIK_clean_linker_0, # of connection points: 2
#     Edge 18, Type (0, 1), BuildingBlock: UVAHIK_clean_linker_0, # of connection points: 2
#     Edge 19, Type (0, 1), BuildingBlock: UVAHIK_clean_linker_0, # of connection points: 2
#     Edge 20, Type (0, 1), BuildingBlock: UVAHIK_clean_linker_0, # of connection points: 2
#     Edge 21, Type (0, 1), BuildingBlock: UVAHIK_clean_linker_0, # of connection points: 2
#     Edge 22, Type (0, 1), BuildingBlock: UVAHIK_clean_linker_0, # of connection points: 2
#     Edge 23, Type (0, 1), BuildingBlock: UVAHIK_clean_linker_0, # of connection points: 2
#     Edge 24, Type (0, 1), BuildingBlock: UVAHIK_clean_linker_0, # of connection points: 2
#     Edge 25, Type (0, 1), BuildingBlock: UVAHIK_clean_linker_0, # of connection points: 2
#     Edge 26, Type (0, 1), BuildingBlock: UVAHIK_clean_linker_0, # of connection points: 2
#     Edge 27, Type (0, 1), BuildingBlock: UVAHIK_clean_linker_0, # of connection points: 2
#     Edge 28, Type (0, 1), BuildingBlock: UVAHIK_clean_linker_0, # of connection points: 2
#     Edge 29, Type (0, 1), BuildingBlock: UVAHIK_clean_linker_0, # of connection points: 2
#     Edge 30, Type (0, 1), BuildingBlock: UVAHIK_clean_linker_0, # of connection points: 2
#     Edge 31, Type (0, 1), BuildingBlock: UVAHIK_clean_linker_0, # of connection points: 2
#     Edge 32, Type (0, 1), BuildingBlock: UVAHIK_clean_linker_0, # of connection points: 2
#     Edge 33, Type (0, 1), BuildingBlock: UVAHIK_clean_linker_0, # of connection points: 2
#     Edge 34, Type (0, 1), BuildingBlock: UVAHIK_clean_linker_0, # of connection points: 2
#     Edge 35, Type (0, 1), BuildingBlock: UVAHIK_clean_linker_0, # of connection points: 2
# Relax obj value: 0.087
# Max RMSD: 0.149
# Mean RMSD: 0.055
data_MOF--net-pyr--node1-GEDQOX_clean_sbu_0--node2-BELTOD_clean_linker_0--edge1-UVAHIK_clean_linker_0
_symmetry_space_group_name_H-M    P1
_symmetry_Int_Tables_number       1
_symmetry_cell_setting            triclinic
loop_
_symmetry_equiv_pos_as_xyz
'x, y, z'
_cell_length_a     56.261288
_cell_length_b     57.189789
_cell_length_c     49.558078
_cell_angle_alpha  87.696436
_cell_angle_beta   91.76312
_cell_angle_gamma 88.721589
loop_
_atom_site_label
_atom_site_type_symbol
_atom_site_fract_x
_atom_site_fract_y
_atom_site_fract_z
_atom_type_partial_charge
P0 P 0.20401 0.19237 0.18389 0.0
H1 H 0.23997 0.2073 0.14536 0.0
H2 H 0.27273 0.18708 0.12432 0.0
H3 H 0.24986 0.12136 0.15964 0.0
H4 H 0.21637 0.1417 0.17934 0.0
H5 H 0.16881 0.22531 0.20336 0.0
H6 H 0.14714 0.25933 0.18332 0.0
H7 H 0.17759 0.2462 0.10625 0.0
H8 H 0.1984 0.21132 0.1264 0.0
H9 H 0.21801 0.16276 0.23154 0.0
H10 H 0.15256 0.181 0.18759 0.0
O11 O 0.22165 0.20724 0.20437 0.0
H12 H 0.19589 0.14176 0.26614 0.0
H13 H 0.13017 0.15988 0.22217 0.0
C14 C 0.22505 0.17617 0.16353 0.0
C15 C 0.24146 0.18842 0.14785 0.0
C16 C 0.26068 0.17674 0.13622 0.0
C17 C 0.26457 0.15234 0.1403 0.0
C18 C 0.24766 0.14002 0.15551 0.0
C19 C 0.22828 0.15174 0.16695 0.0
C20 C 0.18523 0.21536 0.16654 0.0
C21 C 0.17051 0.22939 0.18198 0.0
C22 C 0.15832 0.24926 0.17046 0.0
C23 C 0.16068 0.25615 0.14303 0.0
C24 C 0.17503 0.24165 0.12735 0.0
C25 C 0.18714 0.22158 0.13895 0.0
C26 C 0.1871 0.17369 0.20686 0.0
C27 C 0.19886 0.16198 0.22909 0.0
C28 C 0.18609 0.14986 0.24896 0.0
C29 C 0.16105 0.14912 0.24733 0.0
C30 C 0.14934 0.16031 0.22454 0.0
C31 C 0.1622 0.17231 0.20452 0.0
P32 P 0.38711 0.80893 0.71398 0.0
H33 H 0.42873 0.83214 0.73549 0.0
H34 H 0.43931 0.84545 0.7802 0.0
H35 H 0.37737 0.81203 0.81222 0.0
H36 H 0.36653 0.79936 0.76693 0.0
H37 H 0.38124 0.78662 0.6632 0.0
H38 H 0.39066 0.74745 0.64839 0.0
H39 H 0.4174 0.72744 0.72894 0.0
H40 H 0.40817 0.76703 0.74352 0.0
H41 H 0.35857 0.85121 0.70115 0.0
H42 H 0.3463 0.77804 0.71842 0.0
O43 O 0.40049 0.82725 0.69255 0.0
H44 H 0.31606 0.85802 0.69162 0.0
H45 H 0.30367 0.78473 0.70914 0.0
C46 C 0.39662 0.8152 0.74784 0.0
C47 C 0.41753 0.82749 0.75216 0.0
C48 C 0.42367 0.83492 0.77787 0.0
C49 C 0.4091 0.82999 0.79988 0.0
C50 C 0.38876 0.81652 0.79566 0.0
C51 C 0.3826 0.80916 0.76983 0.0
C52 C 0.3942 0.77972 0.70432 0.0
C53 C 0.38912 0.77378 0.67767 0.0
C54 C 0.39429 0.7513 0.66932 0.0
C55 C 0.40467 0.73427 0.68752 0.0
C56 C 0.40957 0.74024 0.71439 0.0
C57 C 0.40429 0.76283 0.72276 0.0
C58 C 0.35558 0.81405 0.70977 0.0
C59 C 0.34667 0.83665 0.70308 0.0
C60 C 0.32235 0.84054 0.69786 0.0
C61 C 0.30654 0.82185 0.69941 0.0
C62 C 0.31547 0.79938 0.70734 0.0
C63 C 0.33981 0.79555 0.71266 0.0
P64 P 0.75459 0.35303 0.7991 0.0
H65 H 0.79106 0.33994 0.83957 0.0
H66 H 0.81566 0.36241 0.87006 0.0
H67 H 0.77935 0.42615 0.84034 0.0
H68 H 0.75491 0.40353 0.80966 0.0
H69 H 0.74354 0.30551 0.78453 0.0
H70 H 0.72142 0.27448 0.80714 0.0
H71 H 0.71242 0.31796 0.87559 0.0
H72 H 0.73441 0.34898 0.85275 0.0
H73 H 0.75651 0.38506 0.75199 0.0
H74 H 0.70281 0.3586 0.80475 0.0
O75 O 0.77361 0.34199 0.77751 0.0
H76 H 0.7255 0.40536 0.7235 0.0
H77 H 0.67195 0.3786 0.77637 0.0
C78 C 0.77121 0.37006 0.82242 0.0
C79 C 0.78826 0.35874 0.83981 0.0
C80 C 0.80218 0.37158 0.85736 0.0
C81 C 0.79938 0.39605 0.85768 0.0
C82 C 0.78201 0.40734 0.8404 0.0
C83 C 0.768 0.39441 0.8229 0.0
C84 C 0.741 0.32929 0.81722 0.0
C85 C 0.7372 0.30816 0.80461 0.0
C86 C 0.72458 0.29046 0.81756 0.0
C87 C 0.71528 0.29379 0.84317 0.0
C88 C 0.7193 0.31496 0.85582 0.0
C89 C 0.73205 0.33259 0.84292 0.0
C90 C 0.73196 0.36991 0.78011 0.0
C91 C 0.7381 0.38375 0.75754 0.0
C92 C 0.72042 0.39542 0.74139 0.0
C93 C 0.69633 0.39329 0.7476 0.0
C94 C 0.69036 0.38021 0.77091 0.0
C95 C 0.70805 0.36877 0.78715 0.0
P96 P 0.79381 0.81301 0.28137 0.0
H97 H 0.82449 0.85224 0.26949 0.0
H98 H 0.85247 0.87381 0.29749 0.0
H99 H 0.83875 0.82728 0.36579 0.0
H100 H 0.81086 0.80605 0.33801 0.0
H101 H 0.77362 0.79418 0.23258 0.0
H102 H 0.7892 0.76583 0.20172 0.0
H103 H 0.85888 0.77018 0.24021 0.0
H104 H 0.84296 0.79799 0.27147 0.0
H105 H 0.75055 0.8137 0.31286 0.0
H106 H 0.80612 0.76395 0.29513 0.0
O107 O 0.7736 0.83261 0.26874 0.0
H108 H 0.73143 0.78355 0.3407 0.0
H109 H 0.7872 0.73395 0.32271 0.0
C110 C 0.8154 0.82774 0.30168 0.0
C111 C 0.82763 0.84667 0.29047 0.0
C112 C 0.84371 0.85885 0.30641 0.0
C113 C 0.84767 0.85231 0.33387 0.0
C114 C 0.8358 0.83293 0.3448 0.0
C115 C 0.81985 0.82072 0.32884 0.0
C116 C 0.80717 0.79838 0.25406 0.0
C117 C 0.79242 0.78962 0.23375 0.0
C118 C 0.80138 0.7734 0.21612 0.0
C119 C 0.82525 0.7656 0.21867 0.0
C120 C 0.84033 0.77561 0.23798 0.0
C121 C 0.83132 0.79176 0.25567 0.0
C122 C 0.77935 0.79089 0.30134 0.0
C123 C 0.75851 0.79628 0.31477 0.0
C124 C 0.74772 0.77911 0.3308 0.0
C125 C 0.75771 0.75633 0.33363 0.0
C126 C 0.77884 0.75119 0.32046 0.0
C127 C 0.78965 0.76836 0.30465 0.0
P128 P 0.84966 0.86161 0.88587 0.0
H129 H 0.81593 0.8452 0.92695 0.0
H130 H 0.77717 0.85977 0.94034 0.0
H131 H 0.77722 0.91197 0.87475 0.0
H132 H 0.81496 0.89606 0.86054 0.0
H133 H 0.89747 0.84145 0.8897 0.0
H134 H 0.91439 0.80293 0.90251 0.0
H135 H 0.84362 0.77575 0.90828 0.0
H136 H 0.82677 0.81483 0.89563 0.0
H137 H 0.86363 0.90876 0.86847 0.0
H138 H 0.85857 0.84183 0.83215 0.0
O139 O 0.8642 0.87621 0.90947 0.0
H140 H 0.88084 0.92532 0.82754 0.0
H141 H 0.87606 0.85831 0.79085 0.0
C142 C 0.8183 0.8687 0.89193 0.0
C143 C 0.80714 0.85911 0.91471 0.0
C144 C 0.78498 0.86802 0.92282 0.0
C145 C 0.77346 0.88743 0.90897 0.0
C146 C 0.78472 0.89679 0.88593 0.0
C147 C 0.80665 0.88759 0.87762 0.0
C148 C 0.86077 0.83137 0.89183 0.0
C149 C 0.88549 0.82719 0.89343 0.0
C150 C 0.89522 0.80492 0.90072 0.0
C151 C 0.88056 0.78582 0.90666 0.0
C152 C 0.85565 0.78991 0.90438 0.0
C153 C 0.8459 0.81237 0.89697 0.0
C154 C 0.85995 0.87391 0.85371 0.0
C155 C 0.86615 0.89757 0.85163 0.0
C156 C 0.8762 0.90703 0.82813 0.0
C157 C 0.88029 0.89318 0.80576 0.0
C158 C 0.87321 0.86963 0.8075 0.0
C159 C 0.86321 0.86011 0.8312 0.0
P160 P 0.71092 0.28251 0.24289 0.0
H161 H 0.71826 0.29322 0.30011 0.0
H162 H 0.69554 0.31659 0.3305 0.0
H163 H 0.64279 0.33214 0.26665 0.0
H164 H 0.66538 0.30785 0.2364 0.0
H165 H 0.76213 0.29031 0.2483 0.0
H166 H 0.79371 0.27102 0.27665 0.0
H167 H 0.74334 0.22108 0.30665 0.0
H168 H 0.71186 0.24063 0.27859 0.0
H169 H 0.71326 0.26597 0.18819 0.0
H170 H 0.67079 0.25333 0.25802 0.0
O171 O 0.72216 0.30179 0.22086 0.0
H172 H 0.69134 0.23644 0.164 0.0
H173 H 0.64878 0.22363 0.23393 0.0
C174 C 0.69334 0.29849 0.26602 0.0
C175 C 0.70165 0.30129 0.29263 0.0
C176 C 0.68873 0.31493 0.31 0.0
C177 C 0.66738 0.32637 0.30101 0.0
C178 C 0.65899 0.32334 0.27435 0.0
C179 C 0.67192 0.30956 0.257 0.0
C180 C 0.73475 0.26665 0.26101 0.0
C181 C 0.75798 0.27498 0.26064 0.0
C182 C 0.77601 0.26394 0.27684 0.0
C183 C 0.77099 0.24455 0.2939 0.0
C184 C 0.74771 0.23611 0.29391 0.0
C185 C 0.72975 0.24711 0.27764 0.0
C186 C 0.69335 0.2621 0.22469 0.0
C187 C 0.69899 0.25706 0.19818 0.0
C188 C 0.68644 0.24019 0.18438 0.0
C189 C 0.66828 0.22779 0.19704 0.0
C190 C 0.66276 0.23282 0.22371 0.0
C191 C 0.6752 0.24988 0.23741 0.0
P192 P 0.36335 0.59929 0.13002 0.0
H193 H 0.33441 0.58513 0.08413 0.0
H194 H 0.29151 0.58089 0.07692 0.0
H195 H 0.28006 0.60271 0.15805 0.0
H196 H 0.32295 0.60705 0.16506 0.0
H197 H 0.40678 0.61646 0.10657 0.0
H198 H 0.42038 0.65608 0.09611 0.0
H199 H 0.35145 0.68431 0.11549 0.0
H200 H 0.33803 0.64475 0.12628 0.0
H201 H 0.35286 0.56457 0.17258 0.0
H202 H 0.39453 0.62681 0.16489 0.0
O203 O 0.37759 0.57871 0.11339 0.0
H204 H 0.36544 0.55986 0.22022 0.0
H205 H 0.40786 0.6217 0.21172 0.0
C206 C 0.33185 0.59573 0.12535 0.0
C207 C 0.32266 0.58884 0.1004 0.0
C208 C 0.29816 0.58662 0.09625 0.0
C209 C 0.28248 0.59133 0.117 0.0
C210 C 0.29177 0.59859 0.14187 0.0
C211 C 0.31627 0.601 0.14591 0.0
C212 C 0.3713 0.62766 0.11676 0.0
C213 C 0.39441 0.63112 0.10787 0.0
C214 C 0.40221 0.65373 0.10212 0.0
C215 C 0.38693 0.67317 0.10502 0.0
C216 C 0.36346 0.66957 0.11279 0.0
C217 C 0.35578 0.64697 0.11892 0.0
C218 C 0.37241 0.5962 0.1652 0.0
C219 C 0.36467 0.57722 0.18113 0.0
C220 C 0.37202 0.57447 0.20831 0.0
C221 C 0.38758 0.59049 0.21991 0.0
C222 C 0.39545 0.60934 0.20371 0.0
C223 C 0.38793 0.61217 0.17668 0.0
P224 P 0.25164 0.22595 0.75361 0.0
H225 H 0.25602 0.17834 0.7358 0.0
H226 H 0.22784 0.15195 0.71526 0.0
H227 H 0.17208 0.20482 0.71936 0.0
H228 H 0.20019 0.23076 0.74065 0.0
H229 H 0.29504 0.25217 0.75332 0.0
H230 H 0.31148 0.27954 0.72024 0.0
H231 H 0.25559 0.26322 0.66265 0.0
H232 H 0.23891 0.23632 0.69618 0.0
H233 H 0.25108 0.23145 0.81224 0.0
H234 H 0.22353 0.26845 0.73999 0.0
O235 O 0.27222 0.21039 0.77199 0.0
H236 H 0.23728 0.26354 0.83942 0.0
H237 H 0.20909 0.30018 0.76697 0.0
C238 C 0.23014 0.20633 0.74019 0.0
C239 C 0.23765 0.18411 0.73261 0.0
C240 C 0.22156 0.16914 0.72061 0.0
C241 C 0.19767 0.17627 0.71562 0.0
C242 C 0.19023 0.19862 0.7233 0.0
C243 C 0.20635 0.21354 0.73542 0.0
C244 C 0.26606 0.2419 0.72705 0.0
C245 C 0.28668 0.25406 0.73333 0.0
C246 C 0.29605 0.26971 0.71437 0.0
C247 C 0.28485 0.27357 0.68875 0.0
C248 C 0.26451 0.26082 0.68227 0.0
C249 C 0.25511 0.24519 0.70134 0.0
C250 C 0.23848 0.24768 0.77411 0.0
C251 C 0.24174 0.2463 0.80227 0.0
C252 C 0.23376 0.26463 0.81779 0.0
C253 C 0.22233 0.28456 0.80532 0.0
C254 C 0.21828 0.28534 0.77715 0.0
C255 C 0.22634 0.2671 0.76172 0.0
Nd256 Nd 0.03398 0.99787 0.52248 0.0
Nd257 Nd 1.00359 0.04077 0.52708 0.0
C258 C 0.05708 0.95879 0.51206 0.0
C259 C 0.06904 0.94047 0.52934 0.0
C260 C 0.06567 0.93967 0.55729 0.0
C261 C 0.07944 0.92436 0.5743 0.0
C262 C 0.09687 0.90966 0.56363 0.0
C263 C 0.09946 0.90987 0.53546 0.0
C264 C 0.08568 0.92523 0.51845 0.0
C265 C 0.04918 0.02592 0.56313 0.0
C266 C 0.9969 0.99878 0.57125 0.0
C267 C 0.98464 0.08334 0.53059 0.0
C268 C 0.97275 0.10022 0.51137 0.0
C269 C 0.96137 0.12018 0.52077 0.0
C270 C 0.94781 0.135 0.50293 0.0
C271 C 0.9454 0.13001 0.47542 0.0
C272 C 0.95758 0.11037 0.46595 0.0
C273 C 0.97111 0.09556 0.48382 0.0
C274 C 0.9816 1.00557 0.50036 0.0
C275 C 0.03928 0.04019 0.47573 0.0
O276 O 0.03386 0.96026 0.51333 0.0
O277 O 0.06714 0.97919 0.51242 0.0
O278 O 0.05017 1.00328 0.56506 0.0
O279 O 0.04153 0.03288 0.54005 0.0
O280 O 1.00573 0.9854 0.55261 0.0
O281 O 0.99853 0.02182 0.56861 0.0
O282 O 1.00728 0.07935 0.52733 0.0
O283 O 0.97307 0.06419 0.53537 0.0
O284 O 0.97095 0.0188 0.51703 0.0
O285 O 1.00265 0.01178 0.49726 0.0
O286 O 0.02122 0.05109 0.48676 0.0
O287 O 0.04763 0.01979 0.48602 0.0
H288 H 0.05294 0.95143 0.56602 0.0
H289 H 0.07686 0.92441 0.59586 0.0
H290 H 0.11293 0.89897 0.52667 0.0
H291 H 0.08862 0.92582 0.49693 0.0
H292 H 0.96247 0.12396 0.54202 0.0
H293 H 0.93887 0.15015 0.51074 0.0
H294 H 0.95585 0.10588 0.44497 0.0
H295 H 0.97965 0.08006 0.4763 0.0
Nd296 Nd 0.52041 1.00135 0.04973 0.0
Nd297 Nd 0.51423 0.03035 1.00395 0.0
C298 C 0.52625 0.96516 0.08444 0.0
C299 C 0.51289 0.94373 0.08925 0.0
C300 C 0.52507 0.92287 0.0972 0.0
C301 C 0.51283 0.90194 0.09958 0.0
C302 C 0.48812 0.90157 0.09415 0.0
C303 C 0.47595 0.92268 0.08655 0.0
C304 C 0.48825 0.94354 0.08394 0.0
C305 C 0.48269 0.03293 0.05571 0.0
C306 C 0.4862 0.98404 1.00034 0.0
C307 C 0.50921 0.06561 0.96785 0.0
C308 C 0.52562 0.08356 0.95874 0.0
C309 C 0.51759 0.10215 0.94135 0.0
C310 C 0.53335 0.11935 0.93298 0.0
C311 C 0.55736 0.11809 0.94189 0.0
C312 C 0.56525 0.0994 0.95944 0.0
C313 C 0.54949 0.08231 0.96783 0.0
C314 C 0.55215 0.99884 0.99853 0.0
C315 C 0.54796 0.04819 0.05382 0.0
O316 O 0.53679 0.96663 0.06138 0.0
O317 O 0.51572 0.98477 0.09036 0.0
O318 O 0.49944 0.02807 0.07371 0.0
O319 O 0.48629 0.02161 0.03463 0.0
O320 O 0.50145 0.97731 0.01991 0.0
O321 O 0.48427 1.00624 0.9928 0.0
O322 O 0.50279 0.0669 0.99283 0.0
O323 O 0.51479 0.04428 0.96162 0.0
O324 O 0.53529 1.00311 0.98057 0.0
O325 O 0.54843 1.01059 0.01923 0.0
O326 O 0.53372 0.05453 0.03313 0.0
O327 O 0.54902 0.02629 0.06275 0.0
H328 H 0.54415 0.92267 0.10096 0.0
H329 H 0.52287 0.88598 0.10496 0.0
H330 H 0.45691 0.92312 0.08255 0.0
H331 H 0.47855 0.95946 0.0774 0.0
H332 H 0.49918 0.10334 0.93424 0.0
H333 H 0.52685 0.13346 0.91928 0.0
H334 H 0.58355 0.09815 0.96692 0.0
H335 H 0.5559 0.0681 0.98148 0.0
Nd336 Nd 0.49563 0.49731 0.50353 0.0
Nd337 Nd 0.5412 0.52461 0.51441 0.0
C338 C 0.45267 0.48325 0.48964 0.0
C339 C 0.43199 0.47459 0.50379 0.0
C340 C 0.41217 0.46713 0.48899 0.0
C341 C 0.39373 0.45594 0.50221 0.0
C342 C 0.39496 0.45198 0.53044 0.0
C343 C 0.41446 0.46049 0.54525 0.0
C344 C 0.43283 0.4717 0.53201 0.0
C345 C 0.52352 0.47959 0.54637 0.0
C346 C 0.49482 0.54048 0.5451 0.0
C347 C 0.58383 0.54026 0.52705 0.0
C348 C 0.60305 0.55166 0.51272 0.0
C349 C 0.62193 0.56104 0.52747 0.0
C350 C 0.63872 0.57462 0.51432 0.0
C351 C 0.63679 0.57905 0.4862 0.0
C352 C 0.61834 0.56875 0.47137 0.0
C353 C 0.60155 0.55519 0.48457 0.0
C354 C 0.51304 0.54151 0.47113 0.0
C355 C 0.54289 0.48001 0.47514 0.0
O356 O 0.45769 0.50527 0.4925 0.0
O357 O 0.47148 0.46938 0.49161 0.0
O358 O 0.51021 0.46658 0.53165 0.0
O359 O 0.51963 0.50081 0.54021 0.0
O360 O 0.48246 0.52953 0.5265 0.0
O361 O 0.51802 0.53705 0.54811 0.0
O362 O 0.57999 0.51841 0.52173 0.0
O363 O 0.56423 0.55285 0.5281 0.0
O364 O 0.52536 0.55501 0.48627 0.0
O365 O 0.51763 0.52051 0.47761 0.0
O366 O 0.55477 0.49177 0.4934 0.0
O367 O 0.51967 0.48297 0.47146 0.0
H368 H 0.41133 0.46926 0.46715 0.0
H369 H 0.37882 0.44986 0.49029 0.0
H370 H 0.41616 0.45745 0.56694 0.0
H371 H 0.44815 0.47727 0.54368 0.0
H372 H 0.62325 0.55848 0.54926 0.0
H373 H 0.6529 0.5821 0.52621 0.0
H374 H 0.6162 0.57206 0.44975 0.0
H375 H 0.5869 0.54819 0.47295 0.0
Nd376 Nd 0.99971 0.51456 0.04202 0.0
Nd377 Nd 0.03856 0.52405 1.00175 0.0
C378 C 0.95896 0.50886 0.06629 0.0
C379 C 0.93995 0.52476 0.07465 0.0
C380 C 0.92969 0.52094 0.09979 0.0
C381 C 0.91421 0.53775 0.10972 0.0
C382 C 0.90892 0.55876 0.09472 0.0
C383 C 0.91833 0.56191 0.0689 0.0
C384 C 0.93364 0.54502 0.05895 0.0
C385 C 0.03863 0.53677 0.06233 0.0
C386 C 0.99747 0.56453 1.00374 0.0
C387 C 0.07947 0.52814 0.97756 0.0
C388 C 0.09594 0.5104 0.96784 0.0
C389 C 0.11813 0.51663 0.95812 0.0
C390 C 0.13338 0.49951 0.94827 0.0
C391 C 0.12659 0.47595 0.94811 0.0
C392 C 0.10441 0.46988 0.95832 0.0
C393 C 0.08926 0.48693 0.96811 0.0
C394 C 0.99968 0.50215 0.98116 0.0
C395 C 0.04103 0.47426 0.04019 0.0
O396 O 0.96129 0.50697 0.04025 0.0
O397 O 0.97934 0.51052 0.07941 0.0
O398 O 0.02731 0.52105 0.07614 0.0
O399 O 0.02859 0.54101 0.0396 0.0
O400 O 0.98578 0.5489 0.01851 0.0
O401 O 1.01986 0.56038 0.99747 0.0
O402 O 0.07763 0.52822 1.00381 0.0
O403 O 0.05884 0.52981 0.96463 0.0
O404 O 1.0114 0.51758 0.96743 0.0
O405 O 1.00956 0.49763 1.00396 0.0
O406 O 0.05255 0.48981 0.02521 0.0
O407 O 1.01876 0.47845 0.04678 0.0
H408 H 0.93432 0.50535 0.11216 0.0
H409 H 0.90691 0.53459 0.12947 0.0
H410 H 0.91487 0.57794 0.05689 0.0
H411 H 0.94126 0.5482 0.03942 0.0
H412 H 0.12355 0.53469 0.95794 0.0
H413 H 0.15043 0.50469 0.94077 0.0
H414 H 0.09842 0.45202 0.95806 0.0
H415 H 0.07213 0.48186 0.97551 0.0
C416 C 0.15616 0.11659 0.28324 0.0
C417 C 0.14737 0.1373 0.26965 0.0
C418 C 0.14388 0.10603 0.30468 0.0
C419 C 0.09792 0.11844 0.35575 0.0
H420 H 0.09658 0.05087 0.36443 0.0
C421 C 0.04168 0.07213 0.43876 0.0
C422 C 0.05068 0.05108 0.45133 0.0
C423 C 0.0528 0.08252 0.41632 0.0
C424 C 0.09696 0.06978 0.36267 0.0
H425 H 0.11835 0.16295 0.26861 0.0
H426 H 0.09691 0.1445 0.30557 0.0
H427 H 0.11693 0.06885 0.32651 0.0
H428 H 0.0788 0.02466 0.44971 0.0
H429 H 0.09824 0.04278 0.41124 0.0
H430 H 0.07816 0.1194 0.39205 0.0
C431 C 0.11349 0.13645 0.29977 0.0
C432 C 0.10871 0.08017 0.34072 0.0
C433 C 0.12571 0.14694 0.27821 0.0
C434 C 0.07113 0.04076 0.44062 0.0
C435 C 0.08229 0.05117 0.41828 0.0
C436 C 0.08625 0.10805 0.37778 0.0
C437 C 0.12238 0.11583 0.31347 0.0
C438 C 0.10946 0.1047 0.33685 0.0
C439 C 0.07338 0.07227 0.40566 0.0
C440 C 0.08558 0.0835 0.38174 0.0
H441 H 0.1726 0.10838 0.27725 0.0
H442 H 0.15156 0.09034 0.3147 0.0
H443 H 0.09831 0.13735 0.35389 0.0
H444 H 0.02597 0.08066 0.44625 0.0
H445 H 0.04502 0.09852 0.40716 0.0
C446 C 0.43791 0.84273 0.83593 0.0
C447 C 0.41431 0.84036 0.82644 0.0
C448 C 0.44297 0.85525 0.85897 0.0
C449 C 0.41669 0.90198 0.89872 0.0
H450 H 0.47242 0.88867 0.94518 0.0
C451 C 0.4612 0.97274 0.96058 0.0
C452 C 0.47298 0.9664 0.98526 0.0
C453 C 0.45112 0.95571 0.94467 0.0
C454 C 0.45654 0.8925 0.93275 0.0
H455 H 0.37743 0.84843 0.8347 0.0
H456 H 0.38619 0.86944 0.87542 0.0
H457 H 0.46033 0.86047 0.91226 0.0
H458 H 0.48233 0.93734 0.01336 0.0
H459 H 0.4642 0.90765 0.98589 0.0
H460 H 0.41271 0.93386 0.91941 0.0
C461 C 0.40086 0.86212 0.86464 0.0
C462 C 0.4498 0.87644 0.91356 0.0
C463 C 0.39582 0.84975 0.84146 0.0
C464 C 0.47354 0.94277 0.99429 0.0
C465 C 0.46328 0.92572 0.97846 0.0
C466 C 0.42331 0.91794 0.91805 0.0
C467 C 0.42453 0.86557 0.87329 0.0
C468 C 0.43011 0.88122 0.89586 0.0
C469 C 0.45238 0.93192 0.95316 0.0
C470 C 0.44366 0.91369 0.93488 0.0
H471 H 0.45259 0.8354 0.82515 0.0
H472 H 0.46142 0.85765 0.86482 0.0
H473 H 0.40155 0.90643 0.88533 0.0
H474 H 0.46054 0.99077 0.95297 0.0
H475 H 0.44321 0.96116 0.92517 0.0
C476 C 0.65822 0.38977 0.72105 0.0
C477 C 0.67741 0.40347 0.729 0.0
C478 C 0.64092 0.39875 0.70243 0.0
C479 C 0.63121 0.44532 0.64893 0.0
H480 H 0.56527 0.42773 0.65422 0.0
C481 C 0.55585 0.48677 0.58016 0.0
C482 C 0.54028 0.4711 0.56813 0.0
C483 C 0.57218 0.4789 0.60044 0.0
C484 C 0.58366 0.43264 0.65244 0.0
H485 H 0.69327 0.43749 0.72437 0.0
H486 H 0.66269 0.45352 0.69233 0.0
H487 H 0.59427 0.4141 0.68931 0.0
H488 H 0.52931 0.43505 0.56786 0.0
H489 H 0.55778 0.42125 0.60377 0.0
H490 H 0.62039 0.46417 0.61224 0.0
C491 C 0.66129 0.4356 0.69993 0.0
C492 C 0.6003 0.42481 0.67248 0.0
C493 C 0.67876 0.4265 0.71836 0.0
C494 C 0.54113 0.44745 0.57688 0.0
C495 C 0.5573 0.43961 0.59744 0.0
C496 C 0.61452 0.45334 0.62908 0.0
C497 C 0.64228 0.42175 0.69152 0.0
C498 C 0.62433 0.43091 0.67087 0.0
C499 C 0.57307 0.45526 0.60927 0.0
C500 C 0.59063 0.44696 0.63056 0.0
H501 H 0.65694 0.37182 0.72864 0.0
H502 H 0.62683 0.38741 0.69608 0.0
H503 H 0.64961 0.45001 0.64672 0.0
H504 H 0.55556 0.50511 0.57375 0.0
H505 H 0.584 0.49135 0.60937 0.0
C506 C 0.84737 0.72732 0.21693 0.0
C507 C 0.83353 0.74524 0.20353 0.0
C508 C 0.85333 0.707 0.20381 0.0
C509 C 0.85873 0.68206 0.13699 0.0
H510 H 0.85507 0.62321 0.17825 0.0
C511 C 0.87979 0.59287 0.09101 0.0
C512 C 0.89556 0.57818 0.10685 0.0
C513 C 0.86929 0.61262 0.10192 0.0
C514 C 0.85623 0.63951 0.1665 0.0
H515 H 0.8157 0.75615 0.16553 0.0
H516 H 0.82599 0.72039 0.14259 0.0
H517 H 0.84313 0.65957 0.19858 0.0
H518 H 0.91238 0.57264 0.14668 0.0
H519 H 0.89384 0.60673 0.16569 0.0
H520 H 0.87218 0.66192 0.10504 0.0
C521 C 0.83227 0.7222 0.16326 0.0
C522 C 0.84947 0.66033 0.17815 0.0
C523 C 0.82627 0.74259 0.17644 0.0
C524 C 0.89996 0.58326 0.13404 0.0
C525 C 0.88939 0.60287 0.14495 0.0
C526 C 0.86548 0.66118 0.1253 0.0
C527 C 0.84555 0.70404 0.17699 0.0
C528 C 0.85109 0.68188 0.16373 0.0
C529 C 0.87424 0.61796 0.12891 0.0
C530 C 0.86471 0.63975 0.14015 0.0
H531 H 0.85296 0.7286 0.23792 0.0
H532 H 0.86392 0.6935 0.21479 0.0
H533 H 0.8603 0.6984 0.12544 0.0
H534 H 0.87578 0.58928 0.07009 0.0
H535 H 0.85746 0.6238 0.08919 0.0
C536 C 0.28637 0.11654 0.12233 0.0
C537 C 0.28654 0.14013 0.12976 0.0
C538 C 0.30701 0.1052 0.1132 0.0
C539 C 0.37388 0.11094 0.1118 0.0
H540 H 0.36972 0.06155 0.06074 0.0
C541 C 0.45734 0.05442 0.08817 0.0
C542 C 0.45993 0.04553 0.0623 0.0
C543 C 0.4362 0.06584 0.09533 0.0
C544 C 0.37139 0.07545 0.07481 0.0
H545 H 0.30964 0.16985 0.13326 0.0
H546 H 0.34476 0.15071 0.11655 0.0
H547 H 0.33355 0.08152 0.07447 0.0
H548 H 0.44185 0.04201 0.02357 0.0
H549 H 0.40503 0.06235 0.03575 0.0
H550 H 0.41164 0.10549 0.11157 0.0
C551 C 0.32879 0.14063 0.1182 0.0
C552 C 0.35042 0.08679 0.08307 0.0
C553 C 0.30824 0.15189 0.12746 0.0
C554 C 0.44058 0.04857 0.04368 0.0
C555 C 0.41931 0.06015 0.05083 0.0
C556 C 0.39479 0.09972 0.10346 0.0
C557 C 0.32873 0.11698 0.11104 0.0
C558 C 0.3512 0.10476 0.10183 0.0
C559 C 0.41671 0.06906 0.07684 0.0
C560 C 0.39404 0.0816 0.08493 0.0
H561 H 0.27019 0.1067 0.12337 0.0
H562 H 0.30594 0.08699 0.10828 0.0
H563 H 0.37565 0.12432 0.12651 0.0
H564 H 0.47171 0.05238 0.1032 0.0
H565 H 0.43512 0.07181 0.11571 0.0
C566 C 0.26859 0.84581 0.69838 0.0
C567 C 0.28115 0.82564 0.69108 0.0
C568 C 0.24557 0.85066 0.68801 0.0
C569 C 0.20828 0.83959 0.62845 0.0
H570 H 0.15881 0.86957 0.66854 0.0
C571 C 0.12078 0.87287 0.57568 0.0
C572 C 0.11362 0.89568 0.58187 0.0
C573 C 0.13832 0.86071 0.59155 0.0
C574 C 0.17247 0.86125 0.65707 0.0
H575 H 0.2791 0.7943 0.66795 0.0
H576 H 0.23878 0.80263 0.65011 0.0
H577 H 0.19505 0.85461 0.69227 0.0
H578 H 0.11896 0.92346 0.60984 0.0
H579 H 0.14957 0.90239 0.63733 0.0
H580 H 0.18623 0.84692 0.59313 0.0
C581 C 0.24683 0.81479 0.66367 0.0
C582 C 0.1932 0.85268 0.67066 0.0
C583 C 0.26983 0.80991 0.67411 0.0
C584 C 0.1238 0.90576 0.60477 0.0
C585 C 0.14135 0.89366 0.62057 0.0
C586 C 0.18762 0.8482 0.61487 0.0
C587 C 0.23465 0.83546 0.67006 0.0
C588 C 0.21152 0.84216 0.6564 0.0
C589 C 0.14913 0.87116 0.61388 0.0
C590 C 0.16967 0.85955 0.62892 0.0
H591 H 0.27676 0.85812 0.71166 0.0
H592 H 0.23673 0.86683 0.69315 0.0
H593 H 0.22221 0.83189 0.61681 0.0
H594 H 0.11303 0.86454 0.55836 0.0
H595 H 0.14369 0.84327 0.5861 0.0
C596 C 0.82598 0.43003 0.86424 0.0
C597 C 0.81556 0.4097 0.87486 0.0
C598 C 0.84326 0.44145 0.87928 0.0
C599 C 0.88831 0.42909 0.93332 0.0
H600 H 0.89514 0.49645 0.92967 0.0
C601 C 0.96623 0.47457 0.9872 0.0
C602 C 0.97726 0.49203 0.97166 0.0
C603 C 0.94475 0.46531 0.97818 0.0
C604 C 0.8935 0.4776 0.93077 0.0
H605 H 0.814 0.38619 0.91016 0.0
H606 H 0.84414 0.4062 0.93651 0.0
H607 H 0.85981 0.47935 0.90943 0.0
H608 H 0.97465 0.51358 0.93467 0.0
H609 H 0.93736 0.49727 0.91874 0.0
H610 H 0.92221 0.42731 0.95417 0.0
C611 C 0.83928 0.41304 0.91635 0.0
C612 C 0.87328 0.46782 0.91921 0.0
C613 C 0.82202 0.4016 0.90128 0.0
C614 C 0.9665 0.50012 0.94703 0.0
C615 C 0.94504 0.49093 0.93805 0.0
C616 C 0.90852 0.43888 0.94491 0.0
C617 C 0.85045 0.4328 0.90529 0.0
C618 C 0.87065 0.44342 0.91994 0.0
C619 C 0.93393 0.47341 0.95349 0.0
C620 C 0.91153 0.46321 0.94333 0.0
H621 H 0.8216 0.43653 0.84383 0.0
H622 H 0.85173 0.45644 0.87003 0.0
H623 H 0.88701 0.41021 0.9339 0.0
H624 H 0.97418 0.46807 1.00632 0.0
H625 H 0.93653 0.45195 0.9906 0.0
C626 C 0.74407 0.71524 0.34079 0.0
C627 C 0.74629 0.73793 0.35028 0.0
C628 C 0.73363 0.69775 0.35656 0.0
C629 C 0.69373 0.6892 0.4137 0.0
H630 H 0.71928 0.62557 0.41519 0.0
C631 C 0.65785 0.61713 0.48448 0.0
C632 C 0.65273 0.59582 0.47264 0.0
C633 C 0.67098 0.63398 0.47075 0.0
C634 C 0.71189 0.64324 0.41483 0.0
H635 H 0.73962 0.76004 0.38386 0.0
H636 H 0.72155 0.72944 0.41158 0.0
H637 H 0.73873 0.65624 0.38889 0.0
H638 H 0.65817 0.57508 0.4376 0.0
H639 H 0.681 0.60465 0.41345 0.0
H640 H 0.6669 0.6762 0.43961 0.0
C641 C 0.7275 0.72526 0.39173 0.0
C642 C 0.72297 0.66079 0.39974 0.0
C643 C 0.73785 0.74279 0.37588 0.0
C644 C 0.66167 0.59142 0.44712 0.0
C645 C 0.67491 0.60825 0.43342 0.0
C646 C 0.68273 0.67168 0.42887 0.0
C647 C 0.72526 0.70253 0.38224 0.0
C648 C 0.71393 0.68396 0.39888 0.0
C649 C 0.67933 0.62987 0.44491 0.0
C650 C 0.69162 0.6485 0.4295 0.0
H651 H 0.75015 0.71107 0.32097 0.0
H652 H 0.73178 0.68056 0.34842 0.0
H653 H 0.68606 0.70676 0.41312 0.0
H654 H 0.651 0.62117 0.50399 0.0
H655 H 0.67435 0.65037 0.48024 0.0
C656 C 0.14023 0.28076 0.10424 0.0
C657 C 0.14873 0.27857 0.13136 0.0
C658 C 0.12889 0.30163 0.09377 0.0
C659 C 0.09797 0.35644 0.11554 0.0
H660 H 0.10715 0.37893 0.04188 0.0
C661 C 0.04215 0.4355 0.06717 0.0
C662 C 0.05332 0.45154 0.04963 0.0
C663 C 0.05372 0.41447 0.07648 0.0
C664 C 0.10443 0.37307 0.06258 0.0
H665 H 0.15239 0.29777 0.16812 0.0
H666 H 0.13265 0.33353 0.15016 0.0
H667 H 0.12742 0.34287 0.0591 0.0
H668 H 0.08575 0.4574 0.02806 0.0
H669 H 0.10585 0.42093 0.04426 0.0
H670 H 0.07529 0.38671 0.11922 0.0
C671 C 0.13427 0.31895 0.137 0.0
C672 C 0.11592 0.3521 0.07242 0.0
C673 C 0.14566 0.2982 0.14741 0.0
C674 C 0.07644 0.44564 0.04152 0.0
C675 C 0.08798 0.42451 0.05074 0.0
C676 C 0.0864 0.37729 0.10567 0.0
C677 C 0.12555 0.32109 0.11002 0.0
C678 C 0.11299 0.34341 0.09914 0.0
C679 C 0.0769 0.40856 0.06855 0.0
C680 C 0.0894 0.38607 0.07901 0.0
H681 H 0.14188 0.26618 0.09112 0.0
H682 H 0.12229 0.30229 0.073 0.0
H683 H 0.09489 0.3504 0.13609 0.0
H684 H 0.02438 0.43922 0.07391 0.0
H685 H 0.04427 0.40268 0.08976 0.0
C686 C 0.67894 0.28188 0.86767 0.0
C687 C 0.7005 0.27563 0.85601 0.0
C688 C 0.66431 0.2647 0.87841 0.0
C689 C 0.65184 0.20194 0.87395 0.0
H690 H 0.61677 0.21162 0.9389 0.0
C691 C 0.59701 0.12951 0.92471 0.0
C692 C 0.57421 0.1361 0.93286 0.0
C693 C 0.61294 0.14643 0.9162 0.0
C694 C 0.62632 0.20878 0.92062 0.0
H695 H 0.72406 0.2466 0.84727 0.0
H696 H 0.69866 0.21654 0.86636 0.0
H697 H 0.64419 0.24129 0.92309 0.0
H698 H 0.55029 0.16555 0.93886 0.0
H699 H 0.57812 0.19519 0.92377 0.0
H700 H 0.63399 0.16941 0.87154 0.0
C701 C 0.69281 0.2347 0.86669 0.0
C702 C 0.64201 0.22575 0.91156 0.0
C703 C 0.70738 0.25188 0.85582 0.0
C704 C 0.56768 0.15997 0.93245 0.0
C705 C 0.58368 0.17692 0.9241 0.0
C706 C 0.63625 0.18493 0.88309 0.0
C707 C 0.67097 0.24089 0.87783 0.0
C708 C 0.65487 0.22257 0.88805 0.0
C709 C 0.60644 0.17031 0.91581 0.0
C710 C 0.62326 0.18822 0.90644 0.0
H711 H 0.67303 0.30004 0.86775 0.0
H712 H 0.64745 0.27005 0.88647 0.0
H713 H 0.66113 0.19912 0.8555 0.0
H714 H 0.60245 0.11122 0.92461 0.0
H715 H 0.63044 0.14085 0.91013 0.0
C716 C 0.88523 0.87416 0.3427 0.0
C717 C 0.86314 0.86632 0.35145 0.0
C718 C 0.89927 0.88806 0.35912 0.0
C719 C 0.8941 0.92938 0.41313 0.0
H720 H 0.96174 0.91774 0.42599 0.0
C721 C 0.98046 0.97851 0.46195 0.0
C722 C 0.96952 0.98803 0.48423 0.0
C723 C 0.96833 0.96279 0.44592 0.0
C724 C 0.94293 0.92141 0.42233 0.0
H725 H 0.83846 0.86685 0.3842 0.0
H726 H 0.86294 0.89104 0.41278 0.0
H727 H 0.93907 0.89201 0.3971 0.0
H728 H 0.9379 0.98792 0.50803 0.0
H729 H 0.91696 0.96002 0.48072 0.0
H730 H 0.89779 0.95896 0.4377 0.0
C731 C 0.8694 0.88646 0.39326 0.0
C732 C 0.92997 0.90664 0.40584 0.0
C733 C 0.85549 0.87244 0.37701 0.0
C734 C 0.94659 0.98106 0.49076 0.0
C735 C 0.93458 0.96518 0.47496 0.0
C736 C 0.90704 0.94423 0.42935 0.0
C737 C 0.89133 0.89457 0.38441 0.0
C738 C 0.90539 0.91039 0.40129 0.0
C739 C 0.9451 0.95613 0.45207 0.0
C740 C 0.93158 0.94035 0.43438 0.0
H741 H 0.89163 0.86956 0.32317 0.0
H742 H 0.91607 0.89417 0.35176 0.0
H743 H 0.87525 0.93294 0.40957 0.0
H744 H 0.9982 0.98362 0.45652 0.0
H745 H 0.9769 0.95636 0.42834 0.0
C746 C 0.43349 0.70034 0.68536 0.0
C747 C 0.41131 0.71082 0.67789 0.0
C748 C 0.44094 0.67965 0.6738 0.0
C749 C 0.42074 0.62987 0.63373 0.0
H750 H 0.48565 0.63025 0.60965 0.0
C751 C 0.45932 0.56465 0.55797 0.0
C752 C 0.48293 0.55677 0.5631 0.0
C753 C 0.4492 0.58174 0.57386 0.0
C754 C 0.46758 0.62968 0.61654 0.0
H755 H 0.37893 0.70698 0.65372 0.0
H756 H 0.39214 0.67112 0.63313 0.0
H757 H 0.47062 0.66272 0.63478 0.0
H758 H 0.51395 0.55967 0.58986 0.0
H759 H 0.49628 0.58903 0.6175 0.0
H760 H 0.41776 0.59683 0.61498 0.0
C761 C 0.40374 0.67884 0.648 0.0
C762 C 0.45897 0.6483 0.63102 0.0
C763 C 0.39628 0.69953 0.65958 0.0
C764 C 0.49582 0.56556 0.58507 0.0
C765 C 0.48573 0.5825 0.6009 0.0
C766 C 0.42939 0.61117 0.61916 0.0
C767 C 0.42639 0.66898 0.65449 0.0
C768 C 0.43549 0.64862 0.63986 0.0
C769 C 0.46252 0.59119 0.59513 0.0
C770 C 0.45295 0.61087 0.61051 0.0
H771 H 0.44554 0.70863 0.6993 0.0
H772 H 0.45834 0.67227 0.67956 0.0
H773 H 0.4026 0.62955 0.64039 0.0
H774 H 0.44894 0.5582 0.5412 0.0
H775 H 0.43128 0.58817 0.56887 0.0
C776 C 0.91123 0.91889 0.78406 0.0
C777 C 0.89233 0.90331 0.78121 0.0
C778 C 0.92235 0.92875 0.7614 0.0
C779 C 0.92918 0.92265 0.68642 0.0
H780 H 0.95427 0.98496 0.69077 0.0
C781 C 0.98615 0.96341 0.60054 0.0
C782 C 0.985 0.9878 0.59523 0.0
C783 C 0.97487 0.95309 0.62289 0.0
C784 C 0.94719 0.96765 0.68887 0.0
H785 H 0.87053 0.88606 0.75158 0.0
H786 H 0.88952 0.90346 0.71216 0.0
H787 H 0.93421 0.9676 0.72903 0.0
H788 H 0.97063 0.02032 0.60957 0.0
H789 H 0.95057 1.00249 0.64783 0.0
H790 H 0.94141 0.92308 0.64586 0.0
C791 C 0.89614 0.9078 0.73203 0.0
C792 C 0.9359 0.95741 0.71123 0.0
C793 C 0.88512 0.89778 0.75477 0.0
C794 C 0.97213 1.00152 0.61298 0.0
C795 C 0.96067 0.99119 0.63519 0.0
C796 C 0.94034 0.93296 0.66397 0.0
C797 C 0.91495 0.92358 0.73488 0.0
C798 C 0.92675 0.93465 0.71056 0.0
C799 C 0.96184 0.96675 0.64067 0.0
C800 C 0.94966 0.95566 0.66474 0.0
H801 H 0.91774 0.9233 0.80396 0.0
H802 H 0.93707 0.94024 0.76485 0.0
H803 H 0.92273 0.90505 0.68487 0.0
H804 H 0.99597 0.95219 0.58751 0.0
H805 H 0.97674 0.93432 0.62637 0.0
C806 C 0.65152 0.18755 0.1954 0.0
C807 C 0.65551 0.2094 0.18254 0.0
C808 C 0.64023 0.16995 0.1814 0.0
C809 C 0.60018 0.16035 0.1231 0.0
H810 H 0.62682 0.09714 0.12787 0.0
C811 C 0.56396 0.0886 0.05574 0.0
C812 C 0.56201 0.06601 0.06758 0.0
C813 C 0.57611 0.10585 0.06937 0.0
C814 C 0.61896 0.11462 0.12656 0.0
H815 H 0.65036 0.23012 0.14514 0.0
H816 H 0.6306 0.19941 0.12069 0.0
H817 H 0.6459 0.12776 0.15304 0.0
H818 H 0.57151 0.04373 0.10287 0.0
H819 H 0.59223 0.07393 0.12692 0.0
H820 H 0.57302 0.14728 0.09704 0.0
C821 C 0.63621 0.19588 0.14159 0.0
C822 C 0.62992 0.13217 0.14097 0.0
C823 C 0.64769 0.21339 0.15551 0.0
C824 C 0.57281 0.06093 0.09314 0.0
C825 C 0.58479 0.07825 0.10688 0.0
C826 C 0.5891 0.14279 0.10886 0.0
C827 C 0.63249 0.17393 0.15433 0.0
C828 C 0.62068 0.15522 0.13933 0.0
C829 C 0.58642 0.101 0.09528 0.0
C830 C 0.59838 0.1197 0.11034 0.0
H831 H 0.65753 0.1839 0.21615 0.0
H832 H 0.63742 0.15327 0.1918 0.0
H833 H 0.59247 0.1779 0.12173 0.0
H834 H 0.55601 0.09301 0.03594 0.0
H835 H 0.57742 0.12301 0.05955 0.0
C836 C 0.39997 0.60669 0.26452 0.0
C837 C 0.39629 0.58724 0.24849 0.0
C838 C 0.40976 0.60374 0.29072 0.0
C839 C 0.42019 0.56052 0.34695 0.0
H840 H 0.47513 0.59737 0.36477 0.0
C841 C 0.48638 0.53207 0.43246 0.0
C842 C 0.49732 0.54904 0.44796 0.0
C843 C 0.47179 0.53865 0.41013 0.0
C844 C 0.45954 0.58726 0.36039 0.0
H845 H 0.39973 0.54939 0.24778 0.0
H846 H 0.41628 0.54427 0.29368 0.0
H847 H 0.45313 0.60534 0.32207 0.0
H848 H 0.50128 0.58623 0.45269 0.0
H849 H 0.47533 0.59794 0.41358 0.0
H850 H 0.42655 0.54233 0.38508 0.0
C851 C 0.4115 0.56178 0.28592 0.0
C852 C 0.44698 0.59179 0.33589 0.0
C853 C 0.40194 0.56473 0.25964 0.0
C854 C 0.49313 0.57283 0.44095 0.0
C855 C 0.47837 0.57947 0.41853 0.0
C856 C 0.43258 0.55613 0.37152 0.0
C857 C 0.4158 0.58128 0.30158 0.0
C858 C 0.42752 0.57811 0.32869 0.0
C859 C 0.4676 0.56241 0.40282 0.0
C860 C 0.45277 0.56905 0.37824 0.0
H861 H 0.39538 0.62424 0.2568 0.0
H862 H 0.41265 0.61904 0.30249 0.0
H863 H 0.40501 0.54997 0.34207 0.0
H864 H 0.48929 0.51356 0.4374 0.0
H865 H 0.46422 0.52503 0.39823 0.0
C866 C 0.2187 0.32779 0.8112 0.0
C867 C 0.21534 0.30483 0.82135 0.0
C868 C 0.21184 0.34696 0.82591 0.0
C869 C 0.19782 0.36493 0.89423 0.0
H870 H 0.16188 0.4152 0.85585 0.0
C871 C 0.14367 0.43506 0.94796 0.0
C872 C 0.14183 0.45783 0.93615 0.0
C873 C 0.1556 0.41725 0.93502 0.0
C874 C 0.17228 0.40155 0.86682 0.0
H875 H 0.20229 0.28403 0.8551 0.0
H876 H 0.19039 0.31761 0.88092 0.0
H877 H 0.17672 0.38227 0.83116 0.0
H878 H 0.15204 0.47995 0.90206 0.0
H879 H 0.17348 0.44902 0.87987 0.0
H880 H 0.19325 0.38417 0.92995 0.0
C881 C 0.19853 0.3207 0.86162 0.0
C882 C 0.18071 0.38264 0.85266 0.0
C883 C 0.20533 0.30149 0.84683 0.0
C884 C 0.15322 0.46265 0.91177 0.0
C885 C 0.16525 0.44484 0.89888 0.0
C886 C 0.18948 0.38393 0.9084 0.0
C887 C 0.20155 0.34363 0.85119 0.0
C888 C 0.1934 0.36404 0.86624 0.0
C889 C 0.16608 0.42182 0.91003 0.0
C890 C 0.17644 0.40237 0.89488 0.0
H891 H 0.22686 0.33099 0.79192 0.0
H892 H 0.21473 0.36443 0.81756 0.0
H893 H 0.20783 0.35097 0.90515 0.0
H894 H 0.13541 0.43087 0.96695 0.0
H895 H 0.15576 0.39971 0.94411 0.0
C896 C 0.74455 0.89678 0.94641 0.0
C897 C 0.75047 0.89833 0.91888 0.0
C898 C 0.72347 0.9072 0.95562 0.0
C899 C 0.66453 0.93555 0.93038 0.0
H900 H 0.66102 0.95341 1.0047 0.0
C901 C 0.5751 0.97064 0.97091 0.0
C902 C 0.57494 0.98628 0.99211 0.0
C903 C 0.59628 0.95964 0.96315 0.0
C904 C 0.66155 0.94889 0.98374 0.0
H905 H 0.73749 0.91248 0.87968 0.0
H906 H 0.70221 0.93157 0.8957 0.0
H907 H 0.69761 0.93625 0.9889 0.0
H908 H 0.59739 1.00243 0.0219 0.0
H909 H 0.63454 0.98412 1.00784 0.0
H910 H 0.62908 0.94941 0.92468 0.0
C911 C 0.71344 0.92167 0.91035 0.0
C912 C 0.68271 0.93849 0.97465 0.0
C913 C 0.73428 0.91092 0.90107 0.0
C914 C 0.59674 0.99038 1.00559 0.0
C915 C 0.61815 0.97968 0.99747 0.0
C916 C 0.64357 0.94628 0.93932 0.0
C917 C 0.70743 0.92002 0.93785 0.0
C918 C 0.68469 0.93145 0.94775 0.0
C919 C 0.61844 0.96419 0.97585 0.0
C920 C 0.64144 0.95304 0.96628 0.0
H921 H 0.75634 0.88776 0.96123 0.0
H922 H 0.71979 0.90492 0.97684 0.0
H923 H 0.66463 0.93026 0.90968 0.0
H924 H 0.55866 0.96683 0.96017 0.0
H925 H 0.59506 0.94741 0.94711 0.0
C926 C 0.81279 0.22936 0.30325 0.0
C927 C 0.78973 0.23362 0.3123 0.0
C928 C 0.83031 0.21889 0.32068 0.0
C929 C 0.83736 0.18253 0.38384 0.0
H930 H 0.90229 0.20394 0.38391 0.0
C931 C 0.90634 0.15094 0.46573 0.0
C932 C 0.92893 0.14419 0.45704 0.0
C933 C 0.89003 0.16273 0.44798 0.0
C934 C 0.88427 0.19766 0.38393 0.0
H935 H 0.76715 0.23098 0.34692 0.0
H936 H 0.79767 0.21287 0.37733 0.0
H937 H 0.87241 0.22275 0.35289 0.0
H938 H 0.95239 0.14518 0.42312 0.0
H939 H 0.92372 0.16567 0.39195 0.0
H940 H 0.84913 0.15754 0.4149 0.0
C941 C 0.80212 0.2171 0.35662 0.0
C942 C 0.86717 0.20839 0.36616 0.0
C943 C 0.78463 0.22748 0.3392 0.0
C944 C 0.93505 0.15 0.43034 0.0
C945 C 0.91873 0.16189 0.41257 0.0
C946 C 0.8544 0.17188 0.40162 0.0
C947 C 0.82512 0.21255 0.34753 0.0
C948 C 0.84349 0.20101 0.36602 0.0
C949 C 0.89592 0.16807 0.42112 0.0
C950 C 0.87801 0.17939 0.40197 0.0
H951 H 0.81718 0.23373 0.28255 0.0
H952 H 0.84777 0.21537 0.31296 0.0
H953 H 0.8194 0.1761 0.38387 0.0
H954 H 0.90097 0.1465 0.48607 0.0
H955 H 0.8727 0.16753 0.45525 0.0
C956 C 0.24498 0.59696 0.08868 0.0
C957 C 0.25654 0.58847 0.11274 0.0
C958 C 0.2207 0.59354 0.08424 0.0
C959 C 0.16545 0.57743 0.11906 0.0
H960 H 0.14453 0.56074 0.04721 0.0
C961 C 0.07385 0.53762 0.09425 0.0
C962 C 0.06203 0.54582 0.07025 0.0
C963 C 0.0969 0.54479 0.10049 0.0
C964 C 0.15004 0.56566 0.0673 0.0
H965 H 0.25179 0.56982 0.15105 0.0
H966 H 0.20947 0.56344 0.14315 0.0
H967 H 0.18613 0.56941 0.056 0.0
H968 H 0.06451 0.5686 0.03447 0.0
H969 H 0.1048 0.58101 0.04525 0.0
H970 H 0.12929 0.57306 0.13038 0.0
C971 C 0.21901 0.57318 0.12792 0.0
C972 C 0.17389 0.57069 0.07235 0.0
C973 C 0.24327 0.57677 0.13244 0.0
C974 C 0.07331 0.56187 0.05301 0.0
C975 C 0.09638 0.56889 0.05912 0.0
C976 C 0.14159 0.57223 0.11404 0.0
C977 C 0.20746 0.58137 0.10367 0.0
C978 C 0.18191 0.57661 0.09829 0.0
C979 C 0.10855 0.56017 0.08272 0.0
C980 C 0.13367 0.56628 0.0881 0.0
H981 H 0.2547 0.60636 0.07333 0.0
H982 H 0.21229 0.60049 0.06557 0.0
H983 H 0.17094 0.58225 0.13918 0.0
H984 H 0.06552 0.52523 0.10789 0.0
H985 H 0.10592 0.53767 0.11872 0.0
C986 C 0.31818 0.2951 0.66717 0.0
C987 C 0.29365 0.29184 0.66963 0.0
C988 C 0.32645 0.31354 0.65102 0.0
C989 C 0.31015 0.35508 0.59478 0.0
H990 H 0.361 0.39131 0.62551 0.0
C991 C 0.36968 0.41647 0.53256 0.0
C992 C 0.37731 0.43714 0.54421 0.0
C993 C 0.35585 0.4007 0.54705 0.0
C994 C 0.34659 0.38157 0.61676 0.0
H995 H 0.25856 0.30522 0.65659 0.0
H996 H 0.27311 0.33724 0.628 0.0
H997 H 0.34458 0.35918 0.65219 0.0
H998 H 0.37495 0.45826 0.57946 0.0
H999 H 0.35092 0.43056 0.60488 0.0
H1000 H 0.3124 0.37742 0.55919 0.0
C1001 C 0.28588 0.32542 0.63856 0.0
C1002 C 0.33741 0.36299 0.63191 0.0
C1003 C 0.27758 0.30703 0.65486 0.0
C1004 C 0.36972 0.44228 0.57012 0.0
C1005 C 0.35596 0.42646 0.58466 0.0
C1006 C 0.31947 0.37361 0.57951 0.0
C1007 C 0.3104 0.32908 0.63686 0.0
C1008 C 0.31931 0.34937 0.62097 0.0
C1009 C 0.34943 0.40522 0.57354 0.0
C1010 C 0.33794 0.38691 0.59028 0.0
H1011 H 0.33103 0.28347 0.67788 0.0
H1012 H 0.34547 0.31569 0.64966 0.0
H1013 H 0.29622 0.34483 0.58584 0.0
H1014 H 0.37546 0.41181 0.51279 0.0
H1015 H 0.3513 0.38437 0.53805 0.0
C1016 C 0.88069 0.74749 0.93515 0.0
C1017 C 0.89142 0.76213 0.91565 0.0
C1018 C 0.89153 0.72603 0.94443 0.0
C1019 C 0.93942 0.68182 0.92787 0.0
H1020 H 0.93335 0.66076 1.00257 0.0
C1021 C 0.99598 0.6027 0.97552 0.0
C1022 C 0.98524 0.58725 0.99413 0.0
C1023 C 0.98437 0.62369 0.96604 0.0
C1024 C 0.93509 0.66615 0.98154 0.0
H1025 H 0.92207 0.76455 0.89022 0.0
H1026 H 0.94103 0.72794 0.9067 0.0
H1027 H 0.91354 0.69712 0.98596 0.0
H1028 H 0.95365 0.58254 0.01746 0.0
H1029 H 0.9335 0.61878 1.00103 0.0
H1030 H 0.96116 0.65095 0.92355 0.0
C1031 C 0.92405 0.73282 0.91479 0.0
C1032 C 0.9236 0.68716 0.97191 0.0
C1033 C 0.91322 0.75421 0.90551 0.0
C1034 C 0.96258 0.59372 1.00311 0.0
C1035 C 0.95102 0.61477 0.99377 0.0
C1036 C 0.95099 0.66088 0.93754 0.0
C1037 C 0.91353 0.71831 0.93456 0.0
C1038 C 0.92555 0.69548 0.94487 0.0
C1039 C 0.96164 0.63014 0.97493 0.0
C1040 C 0.9491 0.65263 0.96458 0.0
H1041 H 0.86408 0.75281 0.94378 0.0
H1042 H 0.88249 0.71544 0.95932 0.0
H1043 H 0.94115 0.68709 0.90682 0.0
H1044 H 1.01339 0.59854 0.96805 0.0
H1045 H 0.99344 0.63503 0.9519 0.0
C1046 C 0.41706 0.70281 0.1164 0.0
C1047 C 0.39606 0.69716 0.10232 0.0
C1048 C 0.42514 0.72569 0.11537 0.0
C1049 C 0.42437 0.77967 0.07457 0.0
H1050 H 0.44053 0.80855 0.142 0.0
C1051 C 0.45692 0.87461 0.07689 0.0
C1052 C 0.47527 0.87915 0.09576 0.0
C1053 C 0.44534 0.85326 0.07794 0.0
C1054 C 0.4364 0.80067 0.12296 0.0
H1055 H 0.36722 0.71073 0.07581 0.0
H1056 H 0.38178 0.75091 0.07347 0.0
H1057 H 0.42442 0.76933 0.1428 0.0
H1058 H 0.49539 0.86486 0.13093 0.0
H1059 H 0.47607 0.82734 0.13198 0.0
H1060 H 0.43721 0.81049 0.0546 0.0
C1061 C 0.39179 0.73758 0.08543 0.0
C1062 C 0.42705 0.77827 0.12347 0.0
C1063 C 0.38346 0.71472 0.08683 0.0
C1064 C 0.48159 0.86187 0.11583 0.0
C1065 C 0.47021 0.84044 0.11669 0.0
C1066 C 0.43406 0.80197 0.07403 0.0
C1067 C 0.41256 0.74328 0.09996 0.0
C1068 C 0.42118 0.7675 0.09929 0.0
C1069 C 0.45197 0.83581 0.09772 0.0
C1070 C 0.44042 0.81266 0.09824 0.0
H1071 H 0.42694 0.68964 0.12874 0.0
H1072 H 0.44131 0.72964 0.12657 0.0
H1073 H 0.42012 0.77162 0.05566 0.0
H1074 H 0.45177 0.88737 0.06093 0.0
H1075 H 0.43118 0.85045 0.06322 0.0
C1076 C 0.15714 0.15899 0.71015 0.0
C1077 C 0.18078 0.16062 0.70196 0.0
C1078 C 0.14137 0.14417 0.69724 0.0
C1079 C 0.14015 0.09216 0.65577 0.0
H1080 H 0.07614 0.11386 0.63497 0.0
C1081 C 0.061 0.06551 0.57725 0.0
C1082 C 0.06089 0.0412 0.58249 0.0
C1083 C 0.07371 0.07987 0.59438 0.0
C1084 C 0.09396 0.10757 0.64066 0.0
H1085 H 0.20616 0.14839 0.67327 0.0
H1086 H 0.17877 0.12244 0.65102 0.0
H1087 H 0.10263 0.13951 0.65947 0.0
H1088 H 0.07305 0.01289 0.61025 0.0
H1089 H 0.09525 0.03802 0.64028 0.0
H1090 H 0.13178 0.06049 0.63641 0.0
C1091 C 0.17253 0.13234 0.66769 0.0
C1092 C 0.10905 0.12217 0.65488 0.0
C1093 C 0.18824 0.14719 0.68049 0.0
C1094 C 0.07299 0.03158 0.60565 0.0
C1095 C 0.08577 0.04593 0.62275 0.0
C1096 C 0.12505 0.07754 0.6417 0.0
C1097 C 0.14895 0.1306 0.67597 0.0
C1098 C 0.13241 0.11472 0.66226 0.0
C1099 C 0.08658 0.07019 0.61705 0.0
C1100 C 0.10188 0.08517 0.63372 0.0
H1101 H 0.15089 0.16888 0.72683 0.0
H1102 H 0.12336 0.14304 0.70421 0.0
H1103 H 0.15796 0.08582 0.66146 0.0
H1104 H 0.05177 0.07338 0.55954 0.0
H1105 H 0.07415 0.09845 0.58928 0.0
C1106 C 0.62941 0.34228 0.31953 0.0
C1107 C 0.65439 0.3419 0.31919 0.0
C1108 C 0.61733 0.35702 0.3366 0.0
C1109 C 0.62519 0.4103 0.37573 0.0
H1110 H 0.56981 0.38831 0.41296 0.0
C1111 C 0.58082 0.46224 0.45908 0.0
C1112 C 0.55585 0.46394 0.45778 0.0
C1113 C 0.59295 0.44717 0.44243 0.0
C1114 C 0.58513 0.39476 0.40252 0.0
H1115 H 0.68623 0.35703 0.33632 0.0
H1116 H 0.66525 0.38214 0.36657 0.0
H1117 H 0.59067 0.36233 0.38329 0.0
H1118 H 0.52402 0.45101 0.43808 0.0
H1119 H 0.5452 0.42481 0.40908 0.0
H1120 H 0.61972 0.44267 0.39514 0.0
C1121 C 0.65494 0.37128 0.35342 0.0
C1122 C 0.59706 0.3799 0.38547 0.0
C1123 C 0.66699 0.35661 0.33632 0.0
C1124 C 0.54328 0.45014 0.43961 0.0
C1125 C 0.55538 0.435 0.42309 0.0
C1126 C 0.61333 0.42511 0.39286 0.0
C1127 C 0.62997 0.37171 0.35374 0.0
C1128 C 0.61722 0.3875 0.37184 0.0
C1129 C 0.58035 0.43339 0.42426 0.0
C1130 C 0.59315 0.41752 0.4064 0.0
H1131 H 0.61917 0.33103 0.30677 0.0
H1132 H 0.59808 0.3571 0.33613 0.0
H1133 H 0.64041 0.41686 0.3652 0.0
H1134 H 0.59105 0.47259 0.47287 0.0
H1135 H 0.61219 0.44612 0.44396 0.0
loop_
_geom_bond_atom_site_label_1
_geom_bond_atom_site_label_2
_geom_bond_distance
_geom_bond_site_symmetry_2
_ccdc_geom_bond_type
P0 O11 1.490 . S
P0 C14 1.812 . S
P0 C20 1.803 . S
P0 C26 1.819 . S
H1 C15 0.941 . S
H2 C16 0.939 . S
H3 C18 0.940 . S
H4 C19 0.940 . S
H5 C21 0.939 . S
H6 C22 0.942 . S
H7 C24 0.940 . S
H8 C25 0.939 . S
H9 C27 0.941 . S
H10 C31 0.939 . S
O11 P0 1.490 . S
H12 C28 0.939 . S
H13 C30 0.940 . S
C14 P0 1.812 . S
C14 C15 1.389 . S
C14 C19 1.391 . S
C15 H1 0.941 . S
C15 C14 1.389 . S
C15 C16 1.397 . S
C16 H2 0.939 . S
C16 C15 1.397 . S
C16 C17 1.378 . S
C17 C16 1.378 . S
C17 C18 1.378 . S
C18 H3 0.940 . S
C18 C17 1.378 . S
C18 C19 1.396 . S
C19 H4 0.940 . S
C19 C14 1.391 . S
C19 C18 1.396 . S
C20 P0 1.803 . S
C20 C21 1.378 . S
C20 C25 1.400 . S
C21 H5 0.939 . S
C21 C20 1.378 . S
C21 C22 1.361 . S
C22 H6 0.942 . S
C22 C21 1.361 . S
C22 C23 1.369 . S
C23 C22 1.369 . S
C23 C24 1.404 . S
C24 H7 0.940 . S
C24 C23 1.404 . S
C24 C25 1.389 . S
C25 H8 0.939 . S
C25 C20 1.400 . S
C25 C24 1.389 . S
C26 P0 1.819 . S
C26 C27 1.391 . S
C26 C31 1.391 . S
C27 H9 0.941 . S
C27 C26 1.391 . S
C27 C28 1.396 . S
C28 H12 0.939 . S
C28 C27 1.396 . S
C28 C29 1.397 . S
C29 C28 1.397 . S
C29 C30 1.385 . S
C30 H13 0.940 . S
C30 C29 1.385 . S
C30 C31 1.388 . S
C31 H10 0.939 . S
C31 C26 1.391 . S
C31 C30 1.388 . S
P32 O43 1.490 . S
P32 C46 1.812 . S
P32 C52 1.803 . S
P32 C58 1.819 . S
H33 C47 0.941 . S
H34 C48 0.939 . S
H35 C50 0.940 . S
H36 C51 0.940 . S
H37 C53 0.939 . S
H38 C54 0.942 . S
H39 C56 0.940 . S
H40 C57 0.939 . S
H41 C59 0.941 . S
H42 C63 0.939 . S
O43 P32 1.490 . S
H44 C60 0.939 . S
H45 C62 0.940 . S
C46 P32 1.812 . S
C46 C47 1.389 . S
C46 C51 1.391 . S
C47 H33 0.941 . S
C47 C46 1.389 . S
C47 C48 1.397 . S
C48 H34 0.939 . S
C48 C47 1.397 . S
C48 C49 1.378 . S
C49 C48 1.378 . S
C49 C50 1.378 . S
C50 H35 0.940 . S
C50 C49 1.378 . S
C50 C51 1.396 . S
C51 H36 0.940 . S
C51 C46 1.391 . S
C51 C50 1.396 . S
C52 P32 1.803 . S
C52 C53 1.378 . S
C52 C57 1.400 . S
C53 H37 0.939 . S
C53 C52 1.378 . S
C53 C54 1.361 . S
C54 H38 0.942 . S
C54 C53 1.361 . S
C54 C55 1.369 . S
C55 C54 1.369 . S
C55 C56 1.404 . S
C56 H39 0.940 . S
C56 C55 1.404 . S
C56 C57 1.389 . S
C57 H40 0.939 . S
C57 C52 1.400 . S
C57 C56 1.389 . S
C58 P32 1.819 . S
C58 C59 1.391 . S
C58 C63 1.391 . S
C59 H41 0.941 . S
C59 C58 1.391 . S
C59 C60 1.396 . S
C60 H44 0.939 . S
C60 C59 1.396 . S
C60 C61 1.397 . S
C61 C60 1.397 . S
C61 C62 1.385 . S
C62 H45 0.940 . S
C62 C61 1.385 . S
C62 C63 1.388 . S
C63 H42 0.939 . S
C63 C58 1.391 . S
C63 C62 1.388 . S
P64 O75 1.490 . S
P64 C78 1.812 . S
P64 C84 1.803 . S
P64 C90 1.819 . S
H65 C79 0.941 . S
H66 C80 0.939 . S
H67 C82 0.940 . S
H68 C83 0.940 . S
H69 C85 0.939 . S
H70 C86 0.942 . S
H71 C88 0.940 . S
H72 C89 0.939 . S
H73 C91 0.941 . S
H74 C95 0.939 . S
O75 P64 1.490 . S
H76 C92 0.939 . S
H77 C94 0.940 . S
C78 P64 1.812 . S
C78 C79 1.389 . S
C78 C83 1.391 . S
C79 H65 0.941 . S
C79 C78 1.389 . S
C79 C80 1.397 . S
C80 H66 0.939 . S
C80 C79 1.397 . S
C80 C81 1.378 . S
C81 C80 1.378 . S
C81 C82 1.378 . S
C82 H67 0.940 . S
C82 C81 1.378 . S
C82 C83 1.396 . S
C83 H68 0.940 . S
C83 C78 1.391 . S
C83 C82 1.396 . S
C84 P64 1.803 . S
C84 C85 1.378 . S
C84 C89 1.400 . S
C85 H69 0.939 . S
C85 C84 1.378 . S
C85 C86 1.361 . S
C86 H70 0.942 . S
C86 C85 1.361 . S
C86 C87 1.369 . S
C87 C86 1.369 . S
C87 C88 1.404 . S
C88 H71 0.940 . S
C88 C87 1.404 . S
C88 C89 1.389 . S
C89 H72 0.939 . S
C89 C84 1.400 . S
C89 C88 1.389 . S
C90 P64 1.819 . S
C90 C91 1.391 . S
C90 C95 1.391 . S
C91 H73 0.941 . S
C91 C90 1.391 . S
C91 C92 1.396 . S
C92 H76 0.939 . S
C92 C91 1.396 . S
C92 C93 1.397 . S
C93 C92 1.397 . S
C93 C94 1.385 . S
C94 H77 0.940 . S
C94 C93 1.385 . S
C94 C95 1.388 . S
C95 H74 0.939 . S
C95 C90 1.391 . S
C95 C94 1.388 . S
P96 O107 1.490 . S
P96 C110 1.812 . S
P96 C116 1.803 . S
P96 C122 1.819 . S
H97 C111 0.941 . S
H98 C112 0.939 . S
H99 C114 0.940 . S
H100 C115 0.940 . S
H101 C117 0.939 . S
H102 C118 0.942 . S
H103 C120 0.940 . S
H104 C121 0.939 . S
H105 C123 0.941 . S
H106 C127 0.939 . S
O107 P96 1.490 . S
H108 C124 0.939 . S
H109 C126 0.940 . S
C110 P96 1.812 . S
C110 C111 1.389 . S
C110 C115 1.391 . S
C111 H97 0.941 . S
C111 C110 1.389 . S
C111 C112 1.397 . S
C112 H98 0.939 . S
C112 C111 1.397 . S
C112 C113 1.378 . S
C113 C112 1.378 . S
C113 C114 1.378 . S
C114 H99 0.940 . S
C114 C113 1.378 . S
C114 C115 1.396 . S
C115 H100 0.940 . S
C115 C110 1.391 . S
C115 C114 1.396 . S
C116 P96 1.803 . S
C116 C117 1.378 . S
C116 C121 1.400 . S
C117 H101 0.939 . S
C117 C116 1.378 . S
C117 C118 1.361 . S
C118 H102 0.942 . S
C118 C117 1.361 . S
C118 C119 1.369 . S
C119 C118 1.369 . S
C119 C120 1.404 . S
C120 H103 0.940 . S
C120 C119 1.404 . S
C120 C121 1.389 . S
C121 H104 0.939 . S
C121 C116 1.400 . S
C121 C120 1.389 . S
C122 P96 1.819 . S
C122 C123 1.391 . S
C122 C127 1.391 . S
C123 H105 0.941 . S
C123 C122 1.391 . S
C123 C124 1.396 . S
C124 H108 0.939 . S
C124 C123 1.396 . S
C124 C125 1.397 . S
C125 C124 1.397 . S
C125 C126 1.385 . S
C126 H109 0.940 . S
C126 C125 1.385 . S
C126 C127 1.388 . S
C127 H106 0.939 . S
C127 C122 1.391 . S
C127 C126 1.388 . S
P128 O139 1.490 . S
P128 C142 1.812 . S
P128 C148 1.803 . S
P128 C154 1.819 . S
H129 C143 0.941 . S
H130 C144 0.939 . S
H131 C146 0.940 . S
H132 C147 0.940 . S
H133 C149 0.939 . S
H134 C150 0.942 . S
H135 C152 0.940 . S
H136 C153 0.939 . S
H137 C155 0.941 . S
H138 C159 0.939 . S
O139 P128 1.490 . S
H140 C156 0.939 . S
H141 C158 0.940 . S
C142 P128 1.812 . S
C142 C143 1.389 . S
C142 C147 1.391 . S
C143 H129 0.941 . S
C143 C142 1.389 . S
C143 C144 1.397 . S
C144 H130 0.939 . S
C144 C143 1.397 . S
C144 C145 1.378 . S
C145 C144 1.378 . S
C145 C146 1.378 . S
C146 H131 0.940 . S
C146 C145 1.378 . S
C146 C147 1.396 . S
C147 H132 0.940 . S
C147 C142 1.391 . S
C147 C146 1.396 . S
C148 P128 1.803 . S
C148 C149 1.378 . S
C148 C153 1.400 . S
C149 H133 0.939 . S
C149 C148 1.378 . S
C149 C150 1.361 . S
C150 H134 0.942 . S
C150 C149 1.361 . S
C150 C151 1.369 . S
C151 C150 1.369 . S
C151 C152 1.404 . S
C152 H135 0.940 . S
C152 C151 1.404 . S
C152 C153 1.389 . S
C153 H136 0.939 . S
C153 C148 1.400 . S
C153 C152 1.389 . S
C154 P128 1.819 . S
C154 C155 1.391 . S
C154 C159 1.391 . S
C155 H137 0.941 . S
C155 C154 1.391 . S
C155 C156 1.396 . S
C156 H140 0.939 . S
C156 C155 1.396 . S
C156 C157 1.397 . S
C157 C156 1.397 . S
C157 C158 1.385 . S
C158 H141 0.940 . S
C158 C157 1.385 . S
C158 C159 1.388 . S
C159 H138 0.939 . S
C159 C154 1.391 . S
C159 C158 1.388 . S
P160 O171 1.490 . S
P160 C174 1.812 . S
P160 C180 1.803 . S
P160 C186 1.819 . S
H161 C175 0.941 . S
H162 C176 0.939 . S
H163 C178 0.940 . S
H164 C179 0.940 . S
H165 C181 0.939 . S
H166 C182 0.942 . S
H167 C184 0.940 . S
H168 C185 0.939 . S
H169 C187 0.941 . S
H170 C191 0.939 . S
O171 P160 1.490 . S
H172 C188 0.939 . S
H173 C190 0.940 . S
C174 P160 1.812 . S
C174 C175 1.389 . S
C174 C179 1.391 . S
C175 H161 0.941 . S
C175 C174 1.389 . S
C175 C176 1.397 . S
C176 H162 0.939 . S
C176 C175 1.397 . S
C176 C177 1.378 . S
C177 C176 1.378 . S
C177 C178 1.378 . S
C178 H163 0.940 . S
C178 C177 1.378 . S
C178 C179 1.396 . S
C179 H164 0.940 . S
C179 C174 1.391 . S
C179 C178 1.396 . S
C180 P160 1.803 . S
C180 C181 1.378 . S
C180 C185 1.400 . S
C181 H165 0.939 . S
C181 C180 1.378 . S
C181 C182 1.361 . S
C182 H166 0.942 . S
C182 C181 1.361 . S
C182 C183 1.369 . S
C183 C182 1.369 . S
C183 C184 1.404 . S
C184 H167 0.940 . S
C184 C183 1.404 . S
C184 C185 1.389 . S
C185 H168 0.939 . S
C185 C180 1.400 . S
C185 C184 1.389 . S
C186 P160 1.819 . S
C186 C187 1.391 . S
C186 C191 1.391 . S
C187 H169 0.941 . S
C187 C186 1.391 . S
C187 C188 1.396 . S
C188 H172 0.939 . S
C188 C187 1.396 . S
C188 C189 1.397 . S
C189 C188 1.397 . S
C189 C190 1.385 . S
C190 H173 0.940 . S
C190 C189 1.385 . S
C190 C191 1.388 . S
C191 H170 0.939 . S
C191 C186 1.391 . S
C191 C190 1.388 . S
P192 O203 1.490 . S
P192 C206 1.812 . S
P192 C212 1.803 . S
P192 C218 1.819 . S
H193 C207 0.941 . S
H194 C208 0.939 . S
H195 C210 0.940 . S
H196 C211 0.940 . S
H197 C213 0.939 . S
H198 C214 0.942 . S
H199 C216 0.940 . S
H200 C217 0.939 . S
H201 C219 0.941 . S
H202 C223 0.939 . S
O203 P192 1.490 . S
H204 C220 0.939 . S
H205 C222 0.940 . S
C206 P192 1.812 . S
C206 C207 1.389 . S
C206 C211 1.391 . S
C207 H193 0.941 . S
C207 C206 1.389 . S
C207 C208 1.397 . S
C208 H194 0.939 . S
C208 C207 1.397 . S
C208 C209 1.378 . S
C209 C208 1.378 . S
C209 C210 1.378 . S
C210 H195 0.940 . S
C210 C209 1.378 . S
C210 C211 1.396 . S
C211 H196 0.940 . S
C211 C206 1.391 . S
C211 C210 1.396 . S
C212 P192 1.803 . S
C212 C213 1.378 . S
C212 C217 1.400 . S
C213 H197 0.939 . S
C213 C212 1.378 . S
C213 C214 1.361 . S
C214 H198 0.942 . S
C214 C213 1.361 . S
C214 C215 1.369 . S
C215 C214 1.369 . S
C215 C216 1.404 . S
C216 H199 0.940 . S
C216 C215 1.404 . S
C216 C217 1.389 . S
C217 H200 0.939 . S
C217 C212 1.400 . S
C217 C216 1.389 . S
C218 P192 1.819 . S
C218 C219 1.391 . S
C218 C223 1.391 . S
C219 H201 0.941 . S
C219 C218 1.391 . S
C219 C220 1.396 . S
C220 H204 0.939 . S
C220 C219 1.396 . S
C220 C221 1.397 . S
C221 C220 1.397 . S
C221 C222 1.385 . S
C222 H205 0.940 . S
C222 C221 1.385 . S
C222 C223 1.388 . S
C223 H202 0.939 . S
C223 C218 1.391 . S
C223 C222 1.388 . S
P224 O235 1.490 . S
P224 C238 1.812 . S
P224 C244 1.803 . S
P224 C250 1.819 . S
H225 C239 0.941 . S
H226 C240 0.939 . S
H227 C242 0.940 . S
H228 C243 0.940 . S
H229 C245 0.939 . S
H230 C246 0.942 . S
H231 C248 0.940 . S
H232 C249 0.939 . S
H233 C251 0.941 . S
H234 C255 0.939 . S
O235 P224 1.490 . S
H236 C252 0.939 . S
H237 C254 0.940 . S
C238 P224 1.812 . S
C238 C239 1.389 . S
C238 C243 1.391 . S
C239 H225 0.941 . S
C239 C238 1.389 . S
C239 C240 1.397 . S
C240 H226 0.939 . S
C240 C239 1.397 . S
C240 C241 1.378 . S
C241 C240 1.378 . S
C241 C242 1.378 . S
C242 H227 0.940 . S
C242 C241 1.378 . S
C242 C243 1.396 . S
C243 H228 0.940 . S
C243 C238 1.391 . S
C243 C242 1.396 . S
C244 P224 1.803 . S
C244 C245 1.378 . S
C244 C249 1.400 . S
C245 H229 0.939 . S
C245 C244 1.378 . S
C245 C246 1.361 . S
C246 H230 0.942 . S
C246 C245 1.361 . S
C246 C247 1.369 . S
C247 C246 1.369 . S
C247 C248 1.404 . S
C248 H231 0.940 . S
C248 C247 1.404 . S
C248 C249 1.389 . S
C249 H232 0.939 . S
C249 C244 1.400 . S
C249 C248 1.389 . S
C250 P224 1.819 . S
C250 C251 1.391 . S
C250 C255 1.391 . S
C251 H233 0.941 . S
C251 C250 1.391 . S
C251 C252 1.396 . S
C252 H236 0.939 . S
C252 C251 1.396 . S
C252 C253 1.397 . S
C253 C252 1.397 . S
C253 C254 1.385 . S
C254 H237 0.940 . S
C254 C253 1.385 . S
C254 C255 1.388 . S
C255 H234 0.939 . S
C255 C250 1.391 . S
C255 C254 1.388 . S
Nd256 C258 2.836 . S
Nd256 O276 2.500 . S
Nd256 O277 2.492 . S
Nd256 O278 2.487 1_565 S
Nd256 O279 2.682 1_565 S
Nd256 O280 2.410 . S
Nd256 O285 2.414 1_455 S
Nd256 O287 2.424 1_565 S
Nd257 C267 2.836 . S
Nd257 O279 2.414 1_655 S
Nd257 O281 2.424 1_545 S
Nd257 O282 2.500 . S
Nd257 O283 2.492 . S
Nd257 O284 2.487 1_545 S
Nd257 O285 2.682 1_545 S
Nd257 O286 2.410 . S
C258 Nd256 2.836 . S
C258 C259 1.498 . S
C258 O276 1.258 . S
C258 O277 1.239 . S
C259 C258 1.498 . S
C259 C260 1.366 . S
C259 C264 1.407 . S
C260 C259 1.366 . S
C260 C261 1.392 . S
C260 H288 0.930 . S
C261 C260 1.392 . S
C261 C262 1.398 . S
C261 H289 0.929 . S
C262 C261 1.398 . S
C262 C263 1.352 . S
C263 C262 1.352 . S
C263 C264 1.384 . S
C263 H290 0.930 . S
C264 C259 1.407 . S
C264 C263 1.384 . S
C264 H291 0.929 . S
C265 O278 1.241 . S
C265 O279 1.273 . S
C266 O280 1.251 1_655 S
C266 O281 1.268 . S
C267 Nd257 2.836 . S
C267 C268 1.498 . S
C267 O282 1.258 . S
C267 O283 1.239 . S
C268 C267 1.498 . S
C268 C269 1.366 . S
C268 C273 1.407 . S
C269 C268 1.366 . S
C269 C270 1.392 . S
C269 H292 0.930 . S
C270 C269 1.392 . S
C270 C271 1.398 . S
C270 H293 0.929 . S
C271 C270 1.398 . S
C271 C272 1.352 . S
C272 C271 1.352 . S
C272 C273 1.384 . S
C272 H294 0.930 . S
C273 C268 1.407 . S
C273 C272 1.384 . S
C273 H295 0.929 . S
C274 O284 1.241 . S
C274 O285 1.273 . S
C275 O286 1.251 1_455 S
C275 O287 1.268 . S
O276 Nd256 2.500 . S
O276 C258 1.258 . S
O277 Nd256 2.492 . S
O277 C258 1.239 . S
O278 Nd256 2.487 1_545 S
O278 C265 1.241 . S
O279 Nd256 2.682 1_545 S
O279 Nd257 2.414 1_455 S
O279 C265 1.273 . S
O280 Nd256 2.410 . S
O280 C266 1.251 1_455 S
O281 Nd257 2.424 1_565 S
O281 C266 1.268 . S
O282 Nd257 2.500 . S
O282 C267 1.258 . S
O283 Nd257 2.492 . S
O283 C267 1.239 . S
O284 Nd257 2.487 1_565 S
O284 C274 1.241 . S
O285 Nd256 2.414 1_655 S
O285 Nd257 2.682 1_565 S
O285 C274 1.273 . S
O286 Nd257 2.410 . S
O286 C275 1.251 1_655 S
O287 Nd256 2.424 1_545 S
O287 C275 1.268 . S
H288 C260 0.930 . S
H289 C261 0.929 . S
H290 C263 0.930 . S
H291 C264 0.929 . S
H292 C269 0.930 . S
H293 C270 0.929 . S
H294 C272 0.930 . S
H295 C273 0.929 . S
Nd296 C298 2.836 . S
Nd296 O316 2.500 . S
Nd296 O317 2.492 . S
Nd296 O318 2.487 1_565 S
Nd296 O319 2.682 1_565 S
Nd296 O320 2.410 1_554 S
Nd296 O325 2.414 1_554 S
Nd296 O327 2.424 1_565 S
Nd297 C307 2.836 . S
Nd297 O319 2.414 1_556 S
Nd297 O321 2.424 1_545 S
Nd297 O322 2.500 . S
Nd297 O323 2.492 . S
Nd297 O324 2.487 . S
Nd297 O325 2.682 1_545 S
Nd297 O326 2.410 1_556 S
C298 Nd296 2.836 . S
C298 C299 1.498 . S
C298 O316 1.258 . S
C298 O317 1.239 . S
C299 C298 1.498 . S
C299 C300 1.366 . S
C299 C304 1.407 . S
C300 C299 1.366 . S
C300 C301 1.392 . S
C300 H328 0.930 . S
C301 C300 1.392 . S
C301 C302 1.398 . S
C301 H329 0.929 . S
C302 C301 1.398 . S
C302 C303 1.352 . S
C303 C302 1.352 . S
C303 C304 1.384 . S
C303 H330 0.930 . S
C304 C299 1.407 . S
C304 C303 1.384 . S
C304 H331 0.929 . S
C305 O318 1.241 . S
C305 O319 1.273 . S
C306 O320 1.251 . S
C306 O321 1.268 . S
C307 Nd297 2.836 . S
C307 C308 1.498 . S
C307 O322 1.258 . S
C307 O323 1.239 . S
C308 C307 1.498 . S
C308 C309 1.366 . S
C308 C313 1.407 . S
C309 C308 1.366 . S
C309 C310 1.392 . S
C309 H332 0.930 . S
C310 C309 1.392 . S
C310 C311 1.398 . S
C310 H333 0.929 . S
C311 C310 1.398 . S
C311 C312 1.352 . S
C312 C311 1.352 . S
C312 C313 1.384 . S
C312 H334 0.930 . S
C313 C308 1.407 . S
C313 C312 1.384 . S
C313 H335 0.929 . S
C314 O324 1.241 1_565 S
C314 O325 1.273 . S
C315 O326 1.251 . S
C315 O327 1.268 . S
O316 Nd296 2.500 . S
O316 C298 1.258 . S
O317 Nd296 2.492 . S
O317 C298 1.239 . S
O318 Nd296 2.487 1_545 S
O318 C305 1.241 . S
O319 Nd296 2.682 1_545 S
O319 Nd297 2.414 1_554 S
O319 C305 1.273 . S
O320 Nd296 2.410 1_556 S
O320 C306 1.251 . S
O321 Nd297 2.424 1_565 S
O321 C306 1.268 . S
O322 Nd297 2.500 . S
O322 C307 1.258 . S
O323 Nd297 2.492 . S
O323 C307 1.239 . S
O324 Nd297 2.487 . S
O324 C314 1.241 1_545 S
O325 Nd296 2.414 1_556 S
O325 Nd297 2.682 1_565 S
O325 C314 1.273 . S
O326 Nd297 2.410 1_554 S
O326 C315 1.251 . S
O327 Nd296 2.424 1_545 S
O327 C315 1.268 . S
H328 C300 0.930 . S
H329 C301 0.929 . S
H330 C303 0.930 . S
H331 C304 0.929 . S
H332 C309 0.930 . S
H333 C310 0.929 . S
H334 C312 0.930 . S
H335 C313 0.929 . S
Nd336 C338 2.836 . S
Nd336 O356 2.500 . S
Nd336 O357 2.492 . S
Nd336 O358 2.487 . S
Nd336 O359 2.682 . S
Nd336 O360 2.410 . S
Nd336 O365 2.414 . S
Nd336 O367 2.424 . S
Nd337 C347 2.836 . S
Nd337 O359 2.414 . S
Nd337 O361 2.424 . S
Nd337 O362 2.500 . S
Nd337 O363 2.492 . S
Nd337 O364 2.487 . S
Nd337 O365 2.682 . S
Nd337 O366 2.410 . S
C338 Nd336 2.836 . S
C338 C339 1.498 . S
C338 O356 1.258 . S
C338 O357 1.239 . S
C339 C338 1.498 . S
C339 C340 1.366 . S
C339 C344 1.407 . S
C340 C339 1.366 . S
C340 C341 1.392 . S
C340 H368 0.930 . S
C341 C340 1.392 . S
C341 C342 1.398 . S
C341 H369 0.929 . S
C342 C341 1.398 . S
C342 C343 1.352 . S
C343 C342 1.352 . S
C343 C344 1.384 . S
C343 H370 0.930 . S
C344 C339 1.407 . S
C344 C343 1.384 . S
C344 H371 0.929 . S
C345 O358 1.241 . S
C345 O359 1.273 . S
C346 O360 1.251 . S
C346 O361 1.268 . S
C347 Nd337 2.836 . S
C347 C348 1.498 . S
C347 O362 1.258 . S
C347 O363 1.239 . S
C348 C347 1.498 . S
C348 C349 1.366 . S
C348 C353 1.407 . S
C349 C348 1.366 . S
C349 C350 1.392 . S
C349 H372 0.930 . S
C350 C349 1.392 . S
C350 C351 1.398 . S
C350 H373 0.929 . S
C351 C350 1.398 . S
C351 C352 1.352 . S
C352 C351 1.352 . S
C352 C353 1.384 . S
C352 H374 0.930 . S
C353 C348 1.407 . S
C353 C352 1.384 . S
C353 H375 0.929 . S
C354 O364 1.241 . S
C354 O365 1.273 . S
C355 O366 1.251 . S
C355 O367 1.268 . S
O356 Nd336 2.500 . S
O356 C338 1.258 . S
O357 Nd336 2.492 . S
O357 C338 1.239 . S
O358 Nd336 2.487 . S
O358 C345 1.241 . S
O359 Nd336 2.682 . S
O359 Nd337 2.414 . S
O359 C345 1.273 . S
O360 Nd336 2.410 . S
O360 C346 1.251 . S
O361 Nd337 2.424 . S
O361 C346 1.268 . S
O362 Nd337 2.500 . S
O362 C347 1.258 . S
O363 Nd337 2.492 . S
O363 C347 1.239 . S
O364 Nd337 2.487 . S
O364 C354 1.241 . S
O365 Nd336 2.414 . S
O365 Nd337 2.682 . S
O365 C354 1.273 . S
O366 Nd337 2.410 . S
O366 C355 1.251 . S
O367 Nd336 2.424 . S
O367 C355 1.268 . S
H368 C340 0.930 . S
H369 C341 0.929 . S
H370 C343 0.930 . S
H371 C344 0.929 . S
H372 C349 0.930 . S
H373 C350 0.929 . S
H374 C352 0.930 . S
H375 C353 0.929 . S
Nd376 C378 2.836 . S
Nd376 O396 2.500 . S
Nd376 O397 2.492 . S
Nd376 O398 2.487 1_655 S
Nd376 O399 2.682 1_655 S
Nd376 O400 2.410 . S
Nd376 O405 2.414 1_554 S
Nd376 O407 2.424 1_655 S
Nd377 C387 2.836 . S
Nd377 O399 2.414 1_556 S
Nd377 O401 2.424 1_455 S
Nd377 O402 2.500 . S
Nd377 O403 2.492 . S
Nd377 O404 2.487 1_455 S
Nd377 O405 2.682 1_455 S
Nd377 O406 2.410 . S
C378 Nd376 2.836 . S
C378 C379 1.498 . S
C378 O396 1.258 . S
C378 O397 1.239 . S
C379 C378 1.498 . S
C379 C380 1.366 . S
C379 C384 1.407 . S
C380 C379 1.366 . S
C380 C381 1.392 . S
C380 H408 0.930 . S
C381 C380 1.392 . S
C381 C382 1.398 . S
C381 H409 0.929 . S
C382 C381 1.398 . S
C382 C383 1.352 . S
C383 C382 1.352 . S
C383 C384 1.384 . S
C383 H410 0.930 . S
C384 C379 1.407 . S
C384 C383 1.384 . S
C384 H411 0.929 . S
C385 O398 1.241 . S
C385 O399 1.273 . S
C386 O400 1.251 1_556 S
C386 O401 1.268 . S
C387 Nd377 2.836 . S
C387 C388 1.498 . S
C387 O402 1.258 . S
C387 O403 1.239 . S
C388 C387 1.498 . S
C388 C389 1.366 . S
C388 C393 1.407 . S
C389 C388 1.366 . S
C389 C390 1.392 . S
C389 H412 0.930 . S
C390 C389 1.392 . S
C390 C391 1.398 . S
C390 H413 0.929 . S
C391 C390 1.398 . S
C391 C392 1.352 . S
C392 C391 1.352 . S
C392 C393 1.384 . S
C392 H414 0.930 . S
C393 C388 1.407 . S
C393 C392 1.384 . S
C393 H415 0.929 . S
C394 O404 1.241 . S
C394 O405 1.273 . S
C395 O406 1.251 1_554 S
C395 O407 1.268 . S
O396 Nd376 2.500 . S
O396 C378 1.258 . S
O397 Nd376 2.492 . S
O397 C378 1.239 . S
O398 Nd376 2.487 1_455 S
O398 C385 1.241 . S
O399 Nd376 2.682 1_455 S
O399 Nd377 2.414 1_554 S
O399 C385 1.273 . S
O400 Nd376 2.410 . S
O400 C386 1.251 1_554 S
O401 Nd377 2.424 1_655 S
O401 C386 1.268 . S
O402 Nd377 2.500 . S
O402 C387 1.258 . S
O403 Nd377 2.492 . S
O403 C387 1.239 . S
O404 Nd377 2.487 1_655 S
O404 C394 1.241 . S
O405 Nd376 2.414 1_556 S
O405 Nd377 2.682 1_655 S
O405 C394 1.273 . S
O406 Nd377 2.410 . S
O406 C395 1.251 1_556 S
O407 Nd376 2.424 1_455 S
O407 C395 1.268 . S
H408 C380 0.930 . S
H409 C381 0.929 . S
H410 C383 0.930 . S
H411 C384 0.929 . S
H412 C389 0.930 . S
H413 C390 0.929 . S
H414 C392 0.930 . S
H415 C393 0.929 . S
C416 C417 1.349 . S
C416 C418 1.327 . S
C416 H441 0.950 . S
C417 C416 1.349 . S
C417 C433 1.349 . S
C418 C416 1.327 . S
C418 C437 1.429 . S
C418 H442 0.950 . S
C419 C436 1.574 . S
C419 C438 1.368 . S
C419 H443 0.949 . S
H420 C424 0.949 . S
C421 C422 1.349 . S
C421 C423 1.327 . S
C421 H444 0.950 . S
C422 C421 1.349 . S
C422 C434 1.349 . S
C423 C421 1.327 . S
C423 C439 1.429 . S
C423 H445 0.950 . S
C424 H420 0.949 . S
C424 C432 1.574 . S
C424 C440 1.368 . S
H425 C433 0.950 . S
H426 C431 0.950 . S
H427 C432 0.949 . S
H428 C434 0.950 . S
H429 C435 0.950 . S
H430 C436 0.949 . S
C431 H426 0.950 . S
C431 C433 1.327 . S
C431 C437 1.429 . S
C432 C424 1.574 . S
C432 H427 0.949 . S
C432 C438 1.368 . S
C433 C417 1.349 . S
C433 H425 0.950 . S
C433 C431 1.327 . S
C434 C422 1.349 . S
C434 H428 0.950 . S
C434 C435 1.327 . S
C435 H429 0.950 . S
C435 C434 1.327 . S
C435 C439 1.429 . S
C436 C419 1.574 . S
C436 H430 0.949 . S
C436 C440 1.368 . S
C437 C418 1.429 . S
C437 C431 1.429 . S
C437 C438 1.523 . S
C438 C419 1.368 . S
C438 C432 1.368 . S
C438 C437 1.523 . S
C439 C423 1.429 . S
C439 C435 1.429 . S
C439 C440 1.523 . S
C440 C424 1.368 . S
C440 C436 1.368 . S
C440 C439 1.523 . S
H441 C416 0.950 . S
H442 C418 0.950 . S
H443 C419 0.949 . S
H444 C421 0.950 . S
H445 C423 0.950 . S
C446 C447 1.349 . S
C446 C448 1.327 . S
C446 H471 0.950 . S
C447 C446 1.349 . S
C447 C463 1.349 . S
C448 C446 1.327 . S
C448 C467 1.429 . S
C448 H472 0.950 . S
C449 C466 1.574 . S
C449 C468 1.368 . S
C449 H473 0.949 . S
H450 C454 0.949 . S
C451 C452 1.349 . S
C451 C453 1.327 . S
C451 H474 0.950 . S
C452 C451 1.349 . S
C452 C464 1.349 . S
C453 C451 1.327 . S
C453 C469 1.429 . S
C453 H475 0.950 . S
C454 H450 0.949 . S
C454 C462 1.574 . S
C454 C470 1.368 . S
H455 C463 0.950 . S
H456 C461 0.950 . S
H457 C462 0.949 . S
H458 C464 0.950 . S
H459 C465 0.950 . S
H460 C466 0.949 . S
C461 H456 0.950 . S
C461 C463 1.327 . S
C461 C467 1.429 . S
C462 C454 1.574 . S
C462 H457 0.949 . S
C462 C468 1.368 . S
C463 C447 1.349 . S
C463 H455 0.950 . S
C463 C461 1.327 . S
C464 C452 1.349 . S
C464 H458 0.950 . S
C464 C465 1.327 . S
C465 H459 0.950 . S
C465 C464 1.327 . S
C465 C469 1.429 . S
C466 C449 1.574 . S
C466 H460 0.949 . S
C466 C470 1.368 . S
C467 C448 1.429 . S
C467 C461 1.429 . S
C467 C468 1.523 . S
C468 C449 1.368 . S
C468 C462 1.368 . S
C468 C467 1.523 . S
C469 C453 1.429 . S
C469 C465 1.429 . S
C469 C470 1.523 . S
C470 C454 1.368 . S
C470 C466 1.368 . S
C470 C469 1.523 . S
H471 C446 0.950 . S
H472 C448 0.950 . S
H473 C449 0.949 . S
H474 C451 0.950 . S
H475 C453 0.950 . S
C476 C477 1.349 . S
C476 C478 1.327 . S
C476 H501 0.950 . S
C477 C476 1.349 . S
C477 C493 1.349 . S
C478 C476 1.327 . S
C478 C497 1.429 . S
C478 H502 0.950 . S
C479 C496 1.574 . S
C479 C498 1.368 . S
C479 H503 0.949 . S
H480 C484 0.949 . S
C481 C482 1.349 . S
C481 C483 1.327 . S
C481 H504 0.950 . S
C482 C481 1.349 . S
C482 C494 1.349 . S
C483 C481 1.327 . S
C483 C499 1.429 . S
C483 H505 0.950 . S
C484 H480 0.949 . S
C484 C492 1.574 . S
C484 C500 1.368 . S
H485 C493 0.950 . S
H486 C491 0.950 . S
H487 C492 0.949 . S
H488 C494 0.950 . S
H489 C495 0.950 . S
H490 C496 0.949 . S
C491 H486 0.950 . S
C491 C493 1.327 . S
C491 C497 1.429 . S
C492 C484 1.574 . S
C492 H487 0.949 . S
C492 C498 1.368 . S
C493 C477 1.349 . S
C493 H485 0.950 . S
C493 C491 1.327 . S
C494 C482 1.349 . S
C494 H488 0.950 . S
C494 C495 1.327 . S
C495 H489 0.950 . S
C495 C494 1.327 . S
C495 C499 1.429 . S
C496 C479 1.574 . S
C496 H490 0.949 . S
C496 C500 1.368 . S
C497 C478 1.429 . S
C497 C491 1.429 . S
C497 C498 1.523 . S
C498 C479 1.368 . S
C498 C492 1.368 . S
C498 C497 1.523 . S
C499 C483 1.429 . S
C499 C495 1.429 . S
C499 C500 1.523 . S
C500 C484 1.368 . S
C500 C496 1.368 . S
C500 C499 1.523 . S
H501 C476 0.950 . S
H502 C478 0.950 . S
H503 C479 0.949 . S
H504 C481 0.950 . S
H505 C483 0.950 . S
C506 C507 1.349 . S
C506 C508 1.327 . S
C506 H531 0.950 . S
C507 C506 1.349 . S
C507 C523 1.349 . S
C508 C506 1.327 . S
C508 C527 1.429 . S
C508 H532 0.950 . S
C509 C526 1.574 . S
C509 C528 1.368 . S
C509 H533 0.949 . S
H510 C514 0.949 . S
C511 C512 1.349 . S
C511 C513 1.327 . S
C511 H534 0.950 . S
C512 C511 1.349 . S
C512 C524 1.349 . S
C513 C511 1.327 . S
C513 C529 1.429 . S
C513 H535 0.950 . S
C514 H510 0.949 . S
C514 C522 1.574 . S
C514 C530 1.368 . S
H515 C523 0.950 . S
H516 C521 0.950 . S
H517 C522 0.949 . S
H518 C524 0.950 . S
H519 C525 0.950 . S
H520 C526 0.949 . S
C521 H516 0.950 . S
C521 C523 1.327 . S
C521 C527 1.429 . S
C522 C514 1.574 . S
C522 H517 0.949 . S
C522 C528 1.368 . S
C523 C507 1.349 . S
C523 H515 0.950 . S
C523 C521 1.327 . S
C524 C512 1.349 . S
C524 H518 0.950 . S
C524 C525 1.327 . S
C525 H519 0.950 . S
C525 C524 1.327 . S
C525 C529 1.429 . S
C526 C509 1.574 . S
C526 H520 0.949 . S
C526 C530 1.368 . S
C527 C508 1.429 . S
C527 C521 1.429 . S
C527 C528 1.523 . S
C528 C509 1.368 . S
C528 C522 1.368 . S
C528 C527 1.523 . S
C529 C513 1.429 . S
C529 C525 1.429 . S
C529 C530 1.523 . S
C530 C514 1.368 . S
C530 C526 1.368 . S
C530 C529 1.523 . S
H531 C506 0.950 . S
H532 C508 0.950 . S
H533 C509 0.949 . S
H534 C511 0.950 . S
H535 C513 0.950 . S
C536 C537 1.349 . S
C536 C538 1.327 . S
C536 H561 0.950 . S
C537 C536 1.349 . S
C537 C553 1.349 . S
C538 C536 1.327 . S
C538 C557 1.429 . S
C538 H562 0.950 . S
C539 C556 1.574 . S
C539 C558 1.368 . S
C539 H563 0.949 . S
H540 C544 0.949 . S
C541 C542 1.349 . S
C541 C543 1.327 . S
C541 H564 0.950 . S
C542 C541 1.349 . S
C542 C554 1.349 . S
C543 C541 1.327 . S
C543 C559 1.429 . S
C543 H565 0.950 . S
C544 H540 0.949 . S
C544 C552 1.574 . S
C544 C560 1.368 . S
H545 C553 0.950 . S
H546 C551 0.950 . S
H547 C552 0.949 . S
H548 C554 0.950 1_556 S
H549 C555 0.950 . S
H550 C556 0.949 . S
C551 H546 0.950 . S
C551 C553 1.327 . S
C551 C557 1.429 . S
C552 C544 1.574 . S
C552 H547 0.949 . S
C552 C558 1.368 . S
C553 C537 1.349 . S
C553 H545 0.950 . S
C553 C551 1.327 . S
C554 C542 1.349 . S
C554 H548 0.950 1_554 S
C554 C555 1.327 . S
C555 H549 0.950 . S
C555 C554 1.327 . S
C555 C559 1.429 . S
C556 C539 1.574 . S
C556 H550 0.949 . S
C556 C560 1.368 . S
C557 C538 1.429 . S
C557 C551 1.429 . S
C557 C558 1.523 . S
C558 C539 1.368 . S
C558 C552 1.368 . S
C558 C557 1.523 . S
C559 C543 1.429 . S
C559 C555 1.429 . S
C559 C560 1.523 . S
C560 C544 1.368 . S
C560 C556 1.368 . S
C560 C559 1.523 . S
H561 C536 0.950 . S
H562 C538 0.950 . S
H563 C539 0.949 . S
H564 C541 0.950 . S
H565 C543 0.950 . S
C566 C567 1.349 . S
C566 C568 1.327 . S
C566 H591 0.950 . S
C567 C566 1.349 . S
C567 C583 1.349 . S
C568 C566 1.327 . S
C568 C587 1.429 . S
C568 H592 0.950 . S
C569 C586 1.574 . S
C569 C588 1.368 . S
C569 H593 0.949 . S
H570 C574 0.949 . S
C571 C572 1.349 . S
C571 C573 1.327 . S
C571 H594 0.950 . S
C572 C571 1.349 . S
C572 C584 1.349 . S
C573 C571 1.327 . S
C573 C589 1.429 . S
C573 H595 0.950 . S
C574 H570 0.949 . S
C574 C582 1.574 . S
C574 C590 1.368 . S
H575 C583 0.950 . S
H576 C581 0.950 . S
H577 C582 0.949 . S
H578 C584 0.950 . S
H579 C585 0.950 . S
H580 C586 0.949 . S
C581 H576 0.950 . S
C581 C583 1.327 . S
C581 C587 1.429 . S
C582 C574 1.574 . S
C582 H577 0.949 . S
C582 C588 1.368 . S
C583 C567 1.349 . S
C583 H575 0.950 . S
C583 C581 1.327 . S
C584 C572 1.349 . S
C584 H578 0.950 . S
C584 C585 1.327 . S
C585 H579 0.950 . S
C585 C584 1.327 . S
C585 C589 1.429 . S
C586 C569 1.574 . S
C586 H580 0.949 . S
C586 C590 1.368 . S
C587 C568 1.429 . S
C587 C581 1.429 . S
C587 C588 1.523 . S
C588 C569 1.368 . S
C588 C582 1.368 . S
C588 C587 1.523 . S
C589 C573 1.429 . S
C589 C585 1.429 . S
C589 C590 1.523 . S
C590 C574 1.368 . S
C590 C586 1.368 . S
C590 C589 1.523 . S
H591 C566 0.950 . S
H592 C568 0.950 . S
H593 C569 0.949 . S
H594 C571 0.950 . S
H595 C573 0.950 . S
C596 C597 1.349 . S
C596 C598 1.327 . S
C596 H621 0.950 . S
C597 C596 1.349 . S
C597 C613 1.349 . S
C598 C596 1.327 . S
C598 C617 1.429 . S
C598 H622 0.950 . S
C599 C616 1.574 . S
C599 C618 1.368 . S
C599 H623 0.949 . S
H600 C604 0.949 . S
C601 C602 1.349 . S
C601 C603 1.327 . S
C601 H624 0.950 . S
C602 C601 1.349 . S
C602 C614 1.349 . S
C603 C601 1.327 . S
C603 C619 1.429 . S
C603 H625 0.950 . S
C604 H600 0.949 . S
C604 C612 1.574 . S
C604 C620 1.368 . S
H605 C613 0.950 . S
H606 C611 0.950 . S
H607 C612 0.949 . S
H608 C614 0.950 . S
H609 C615 0.950 . S
H610 C616 0.949 . S
C611 H606 0.950 . S
C611 C613 1.327 . S
C611 C617 1.429 . S
C612 C604 1.574 . S
C612 H607 0.949 . S
C612 C618 1.368 . S
C613 C597 1.349 . S
C613 H605 0.950 . S
C613 C611 1.327 . S
C614 C602 1.349 . S
C614 H608 0.950 . S
C614 C615 1.327 . S
C615 H609 0.950 . S
C615 C614 1.327 . S
C615 C619 1.429 . S
C616 C599 1.574 . S
C616 H610 0.949 . S
C616 C620 1.368 . S
C617 C598 1.429 . S
C617 C611 1.429 . S
C617 C618 1.523 . S
C618 C599 1.368 . S
C618 C612 1.368 . S
C618 C617 1.523 . S
C619 C603 1.429 . S
C619 C615 1.429 . S
C619 C620 1.523 . S
C620 C604 1.368 . S
C620 C616 1.368 . S
C620 C619 1.523 . S
H621 C596 0.950 . S
H622 C598 0.950 . S
H623 C599 0.949 . S
H624 C601 0.950 . S
H625 C603 0.950 . S
C626 C627 1.349 . S
C626 C628 1.327 . S
C626 H651 0.950 . S
C627 C626 1.349 . S
C627 C643 1.349 . S
C628 C626 1.327 . S
C628 C647 1.429 . S
C628 H652 0.950 . S
C629 C646 1.574 . S
C629 C648 1.368 . S
C629 H653 0.949 . S
H630 C634 0.949 . S
C631 C632 1.349 . S
C631 C633 1.327 . S
C631 H654 0.950 . S
C632 C631 1.349 . S
C632 C644 1.349 . S
C633 C631 1.327 . S
C633 C649 1.429 . S
C633 H655 0.950 . S
C634 H630 0.949 . S
C634 C642 1.574 . S
C634 C650 1.368 . S
H635 C643 0.950 . S
H636 C641 0.950 . S
H637 C642 0.949 . S
H638 C644 0.950 . S
H639 C645 0.950 . S
H640 C646 0.949 . S
C641 H636 0.950 . S
C641 C643 1.327 . S
C641 C647 1.429 . S
C642 C634 1.574 . S
C642 H637 0.949 . S
C642 C648 1.368 . S
C643 C627 1.349 . S
C643 H635 0.950 . S
C643 C641 1.327 . S
C644 C632 1.349 . S
C644 H638 0.950 . S
C644 C645 1.327 . S
C645 H639 0.950 . S
C645 C644 1.327 . S
C645 C649 1.429 . S
C646 C629 1.574 . S
C646 H640 0.949 . S
C646 C650 1.368 . S
C647 C628 1.429 . S
C647 C641 1.429 . S
C647 C648 1.523 . S
C648 C629 1.368 . S
C648 C642 1.368 . S
C648 C647 1.523 . S
C649 C633 1.429 . S
C649 C645 1.429 . S
C649 C650 1.523 . S
C650 C634 1.368 . S
C650 C646 1.368 . S
C650 C649 1.523 . S
H651 C626 0.950 . S
H652 C628 0.950 . S
H653 C629 0.949 . S
H654 C631 0.950 . S
H655 C633 0.950 . S
C656 C657 1.349 . S
C656 C658 1.327 . S
C656 H681 0.950 . S
C657 C656 1.349 . S
C657 C673 1.349 . S
C658 C656 1.327 . S
C658 C677 1.429 . S
C658 H682 0.950 . S
C659 C676 1.574 . S
C659 C678 1.368 . S
C659 H683 0.949 . S
H660 C664 0.949 . S
C661 C662 1.349 . S
C661 C663 1.327 . S
C661 H684 0.950 . S
C662 C661 1.349 . S
C662 C674 1.349 . S
C663 C661 1.327 . S
C663 C679 1.429 . S
C663 H685 0.950 . S
C664 H660 0.949 . S
C664 C672 1.574 . S
C664 C680 1.368 . S
H665 C673 0.950 . S
H666 C671 0.950 . S
H667 C672 0.949 . S
H668 C674 0.950 1_556 S
H669 C675 0.950 1_556 S
H670 C676 0.949 . S
C671 H666 0.950 . S
C671 C673 1.327 . S
C671 C677 1.429 . S
C672 C664 1.574 . S
C672 H667 0.949 . S
C672 C678 1.368 . S
C673 C657 1.349 . S
C673 H665 0.950 . S
C673 C671 1.327 . S
C674 C662 1.349 . S
C674 H668 0.950 1_554 S
C674 C675 1.327 . S
C675 H669 0.950 1_554 S
C675 C674 1.327 . S
C675 C679 1.429 . S
C676 C659 1.574 . S
C676 H670 0.949 . S
C676 C680 1.368 . S
C677 C658 1.429 . S
C677 C671 1.429 . S
C677 C678 1.523 . S
C678 C659 1.368 . S
C678 C672 1.368 . S
C678 C677 1.523 . S
C679 C663 1.429 . S
C679 C675 1.429 . S
C679 C680 1.523 . S
C680 C664 1.368 . S
C680 C676 1.368 . S
C680 C679 1.523 . S
H681 C656 0.950 . S
H682 C658 0.950 . S
H683 C659 0.949 . S
H684 C661 0.950 . S
H685 C663 0.950 . S
C686 C687 1.349 . S
C686 C688 1.327 . S
C686 H711 0.950 . S
C687 C686 1.349 . S
C687 C703 1.349 . S
C688 C686 1.327 . S
C688 C707 1.429 . S
C688 H712 0.950 . S
C689 C706 1.574 . S
C689 C708 1.368 . S
C689 H713 0.949 . S
H690 C694 0.949 . S
C691 C692 1.349 . S
C691 C693 1.327 . S
C691 H714 0.950 . S
C692 C691 1.349 . S
C692 C704 1.349 . S
C693 C691 1.327 . S
C693 C709 1.429 . S
C693 H715 0.950 . S
C694 H690 0.949 . S
C694 C702 1.574 . S
C694 C710 1.368 . S
H695 C703 0.950 . S
H696 C701 0.950 . S
H697 C702 0.949 . S
H698 C704 0.950 . S
H699 C705 0.950 . S
H700 C706 0.949 . S
C701 H696 0.950 . S
C701 C703 1.327 . S
C701 C707 1.429 . S
C702 C694 1.574 . S
C702 H697 0.949 . S
C702 C708 1.368 . S
C703 C687 1.349 . S
C703 H695 0.950 . S
C703 C701 1.327 . S
C704 C692 1.349 . S
C704 H698 0.950 . S
C704 C705 1.327 . S
C705 H699 0.950 . S
C705 C704 1.327 . S
C705 C709 1.429 . S
C706 C689 1.574 . S
C706 H700 0.949 . S
C706 C710 1.368 . S
C707 C688 1.429 . S
C707 C701 1.429 . S
C707 C708 1.523 . S
C708 C689 1.368 . S
C708 C702 1.368 . S
C708 C707 1.523 . S
C709 C693 1.429 . S
C709 C705 1.429 . S
C709 C710 1.523 . S
C710 C694 1.368 . S
C710 C706 1.368 . S
C710 C709 1.523 . S
H711 C686 0.950 . S
H712 C688 0.950 . S
H713 C689 0.949 . S
H714 C691 0.950 . S
H715 C693 0.950 . S
C716 C717 1.349 . S
C716 C718 1.327 . S
C716 H741 0.950 . S
C717 C716 1.349 . S
C717 C733 1.349 . S
C718 C716 1.327 . S
C718 C737 1.429 . S
C718 H742 0.950 . S
C719 C736 1.574 . S
C719 C738 1.368 . S
C719 H743 0.949 . S
H720 C724 0.949 . S
C721 C722 1.349 . S
C721 C723 1.327 . S
C721 H744 0.950 . S
C722 C721 1.349 . S
C722 C734 1.349 . S
C723 C721 1.327 . S
C723 C739 1.429 . S
C723 H745 0.950 . S
C724 H720 0.949 . S
C724 C732 1.574 . S
C724 C740 1.368 . S
H725 C733 0.950 . S
H726 C731 0.950 . S
H727 C732 0.949 . S
H728 C734 0.950 1_455 S
H729 C735 0.950 . S
H730 C736 0.949 . S
C731 H726 0.950 . S
C731 C733 1.327 . S
C731 C737 1.429 . S
C732 C724 1.574 . S
C732 H727 0.949 . S
C732 C738 1.368 . S
C733 C717 1.349 . S
C733 H725 0.950 . S
C733 C731 1.327 . S
C734 C722 1.349 . S
C734 H728 0.950 1_655 S
C734 C735 1.327 . S
C735 H729 0.950 . S
C735 C734 1.327 . S
C735 C739 1.429 . S
C736 C719 1.574 . S
C736 H730 0.949 . S
C736 C740 1.368 . S
C737 C718 1.429 . S
C737 C731 1.429 . S
C737 C738 1.523 . S
C738 C719 1.368 . S
C738 C732 1.368 . S
C738 C737 1.523 . S
C739 C723 1.429 . S
C739 C735 1.429 . S
C739 C740 1.523 . S
C740 C724 1.368 . S
C740 C736 1.368 . S
C740 C739 1.523 . S
H741 C716 0.950 . S
H742 C718 0.950 . S
H743 C719 0.949 . S
H744 C721 0.950 . S
H745 C723 0.950 . S
C746 C747 1.349 . S
C746 C748 1.327 . S
C746 H771 0.950 . S
C747 C746 1.349 . S
C747 C763 1.349 . S
C748 C746 1.327 . S
C748 C767 1.429 . S
C748 H772 0.950 . S
C749 C766 1.574 . S
C749 C768 1.368 . S
C749 H773 0.949 . S
H750 C754 0.949 . S
C751 C752 1.349 . S
C751 C753 1.327 . S
C751 H774 0.950 . S
C752 C751 1.349 . S
C752 C764 1.349 . S
C753 C751 1.327 . S
C753 C769 1.429 . S
C753 H775 0.950 . S
C754 H750 0.949 . S
C754 C762 1.574 . S
C754 C770 1.368 . S
H755 C763 0.950 . S
H756 C761 0.950 . S
H757 C762 0.949 . S
H758 C764 0.950 . S
H759 C765 0.950 . S
H760 C766 0.949 . S
C761 H756 0.950 . S
C761 C763 1.327 . S
C761 C767 1.429 . S
C762 C754 1.574 . S
C762 H757 0.949 . S
C762 C768 1.368 . S
C763 C747 1.349 . S
C763 H755 0.950 . S
C763 C761 1.327 . S
C764 C752 1.349 . S
C764 H758 0.950 . S
C764 C765 1.327 . S
C765 H759 0.950 . S
C765 C764 1.327 . S
C765 C769 1.429 . S
C766 C749 1.574 . S
C766 H760 0.949 . S
C766 C770 1.368 . S
C767 C748 1.429 . S
C767 C761 1.429 . S
C767 C768 1.523 . S
C768 C749 1.368 . S
C768 C762 1.368 . S
C768 C767 1.523 . S
C769 C753 1.429 . S
C769 C765 1.429 . S
C769 C770 1.523 . S
C770 C754 1.368 . S
C770 C766 1.368 . S
C770 C769 1.523 . S
H771 C746 0.950 . S
H772 C748 0.950 . S
H773 C749 0.949 . S
H774 C751 0.950 . S
H775 C753 0.950 . S
C776 C777 1.349 . S
C776 C778 1.327 . S
C776 H801 0.950 . S
C777 C776 1.349 . S
C777 C793 1.349 . S
C778 C776 1.327 . S
C778 C797 1.429 . S
C778 H802 0.950 . S
C779 C796 1.574 . S
C779 C798 1.368 . S
C779 H803 0.949 . S
H780 C784 0.949 . S
C781 C782 1.349 . S
C781 C783 1.327 . S
C781 H804 0.950 . S
C782 C781 1.349 . S
C782 C794 1.349 . S
C783 C781 1.327 . S
C783 C799 1.429 . S
C783 H805 0.950 . S
C784 H780 0.949 . S
C784 C792 1.574 . S
C784 C800 1.368 . S
H785 C793 0.950 . S
H786 C791 0.950 . S
H787 C792 0.949 . S
H788 C794 0.950 . S
H789 C795 0.950 . S
H790 C796 0.949 . S
C791 H786 0.950 . S
C791 C793 1.327 . S
C791 C797 1.429 . S
C792 C784 1.574 . S
C792 H787 0.949 . S
C792 C798 1.368 . S
C793 C777 1.349 . S
C793 H785 0.950 . S
C793 C791 1.327 . S
C794 C782 1.349 . S
C794 H788 0.950 . S
C794 C795 1.327 . S
C795 H789 0.950 . S
C795 C794 1.327 . S
C795 C799 1.429 . S
C796 C779 1.574 . S
C796 H790 0.949 . S
C796 C800 1.368 . S
C797 C778 1.429 . S
C797 C791 1.429 . S
C797 C798 1.523 . S
C798 C779 1.368 . S
C798 C792 1.368 . S
C798 C797 1.523 . S
C799 C783 1.429 . S
C799 C795 1.429 . S
C799 C800 1.523 . S
C800 C784 1.368 . S
C800 C796 1.368 . S
C800 C799 1.523 . S
H801 C776 0.950 . S
H802 C778 0.950 . S
H803 C779 0.949 . S
H804 C781 0.950 . S
H805 C783 0.950 . S
C806 C807 1.349 . S
C806 C808 1.327 . S
C806 H831 0.950 . S
C807 C806 1.349 . S
C807 C823 1.349 . S
C808 C806 1.327 . S
C808 C827 1.429 . S
C808 H832 0.950 . S
C809 C826 1.574 . S
C809 C828 1.368 . S
C809 H833 0.949 . S
H810 C814 0.949 . S
C811 C812 1.349 . S
C811 C813 1.327 . S
C811 H834 0.950 . S
C812 C811 1.349 . S
C812 C824 1.349 . S
C813 C811 1.327 . S
C813 C829 1.429 . S
C813 H835 0.950 . S
C814 H810 0.949 . S
C814 C822 1.574 . S
C814 C830 1.368 . S
H815 C823 0.950 . S
H816 C821 0.950 . S
H817 C822 0.949 . S
H818 C824 0.950 . S
H819 C825 0.950 . S
H820 C826 0.949 . S
C821 H816 0.950 . S
C821 C823 1.327 . S
C821 C827 1.429 . S
C822 C814 1.574 . S
C822 H817 0.949 . S
C822 C828 1.368 . S
C823 C807 1.349 . S
C823 H815 0.950 . S
C823 C821 1.327 . S
C824 C812 1.349 . S
C824 H818 0.950 . S
C824 C825 1.327 . S
C825 H819 0.950 . S
C825 C824 1.327 . S
C825 C829 1.429 . S
C826 C809 1.574 . S
C826 H820 0.949 . S
C826 C830 1.368 . S
C827 C808 1.429 . S
C827 C821 1.429 . S
C827 C828 1.523 . S
C828 C809 1.368 . S
C828 C822 1.368 . S
C828 C827 1.523 . S
C829 C813 1.429 . S
C829 C825 1.429 . S
C829 C830 1.523 . S
C830 C814 1.368 . S
C830 C826 1.368 . S
C830 C829 1.523 . S
H831 C806 0.950 . S
H832 C808 0.950 . S
H833 C809 0.949 . S
H834 C811 0.950 . S
H835 C813 0.950 . S
C836 C837 1.349 . S
C836 C838 1.327 . S
C836 H861 0.950 . S
C837 C836 1.349 . S
C837 C853 1.349 . S
C838 C836 1.327 . S
C838 C857 1.429 . S
C838 H862 0.950 . S
C839 C856 1.574 . S
C839 C858 1.368 . S
C839 H863 0.949 . S
H840 C844 0.949 . S
C841 C842 1.349 . S
C841 C843 1.327 . S
C841 H864 0.950 . S
C842 C841 1.349 . S
C842 C854 1.349 . S
C843 C841 1.327 . S
C843 C859 1.429 . S
C843 H865 0.950 . S
C844 H840 0.949 . S
C844 C852 1.574 . S
C844 C860 1.368 . S
H845 C853 0.950 . S
H846 C851 0.950 . S
H847 C852 0.949 . S
H848 C854 0.950 . S
H849 C855 0.950 . S
H850 C856 0.949 . S
C851 H846 0.950 . S
C851 C853 1.327 . S
C851 C857 1.429 . S
C852 C844 1.574 . S
C852 H847 0.949 . S
C852 C858 1.368 . S
C853 C837 1.349 . S
C853 H845 0.950 . S
C853 C851 1.327 . S
C854 C842 1.349 . S
C854 H848 0.950 . S
C854 C855 1.327 . S
C855 H849 0.950 . S
C855 C854 1.327 . S
C855 C859 1.429 . S
C856 C839 1.574 . S
C856 H850 0.949 . S
C856 C860 1.368 . S
C857 C838 1.429 . S
C857 C851 1.429 . S
C857 C858 1.523 . S
C858 C839 1.368 . S
C858 C852 1.368 . S
C858 C857 1.523 . S
C859 C843 1.429 . S
C859 C855 1.429 . S
C859 C860 1.523 . S
C860 C844 1.368 . S
C860 C856 1.368 . S
C860 C859 1.523 . S
H861 C836 0.950 . S
H862 C838 0.950 . S
H863 C839 0.949 . S
H864 C841 0.950 . S
H865 C843 0.950 . S
C866 C867 1.349 . S
C866 C868 1.327 . S
C866 H891 0.950 . S
C867 C866 1.349 . S
C867 C883 1.349 . S
C868 C866 1.327 . S
C868 C887 1.429 . S
C868 H892 0.950 . S
C869 C886 1.574 . S
C869 C888 1.368 . S
C869 H893 0.949 . S
H870 C874 0.949 . S
C871 C872 1.349 . S
C871 C873 1.327 . S
C871 H894 0.950 . S
C872 C871 1.349 . S
C872 C884 1.349 . S
C873 C871 1.327 . S
C873 C889 1.429 . S
C873 H895 0.950 . S
C874 H870 0.949 . S
C874 C882 1.574 . S
C874 C890 1.368 . S
H875 C883 0.950 . S
H876 C881 0.950 . S
H877 C882 0.949 . S
H878 C884 0.950 . S
H879 C885 0.950 . S
H880 C886 0.949 . S
C881 H876 0.950 . S
C881 C883 1.327 . S
C881 C887 1.429 . S
C882 C874 1.574 . S
C882 H877 0.949 . S
C882 C888 1.368 . S
C883 C867 1.349 . S
C883 H875 0.950 . S
C883 C881 1.327 . S
C884 C872 1.349 . S
C884 H878 0.950 . S
C884 C885 1.327 . S
C885 H879 0.950 . S
C885 C884 1.327 . S
C885 C889 1.429 . S
C886 C869 1.574 . S
C886 H880 0.949 . S
C886 C890 1.368 . S
C887 C868 1.429 . S
C887 C881 1.429 . S
C887 C888 1.523 . S
C888 C869 1.368 . S
C888 C882 1.368 . S
C888 C887 1.523 . S
C889 C873 1.429 . S
C889 C885 1.429 . S
C889 C890 1.523 . S
C890 C874 1.368 . S
C890 C886 1.368 . S
C890 C889 1.523 . S
H891 C866 0.950 . S
H892 C868 0.950 . S
H893 C869 0.949 . S
H894 C871 0.950 . S
H895 C873 0.950 . S
C896 C897 1.349 . S
C896 C898 1.327 . S
C896 H921 0.950 . S
C897 C896 1.349 . S
C897 C913 1.349 . S
C898 C896 1.327 . S
C898 C917 1.429 . S
C898 H922 0.950 . S
C899 C916 1.574 . S
C899 C918 1.368 . S
C899 H923 0.949 . S
H900 C904 0.949 . S
C901 C902 1.349 . S
C901 C903 1.327 . S
C901 H924 0.950 . S
C902 C901 1.349 . S
C902 C914 1.349 . S
C903 C901 1.327 . S
C903 C919 1.429 . S
C903 H925 0.950 . S
C904 H900 0.949 . S
C904 C912 1.574 . S
C904 C920 1.368 . S
H905 C913 0.950 . S
H906 C911 0.950 . S
H907 C912 0.949 . S
H908 C914 0.950 1_554 S
H909 C915 0.952 . S
H910 C916 0.949 . S
C911 H906 0.950 . S
C911 C913 1.327 . S
C911 C917 1.429 . S
C912 C904 1.574 . S
C912 H907 0.949 . S
C912 C918 1.368 . S
C913 C897 1.349 . S
C913 H905 0.950 . S
C913 C911 1.327 . S
C914 C902 1.349 . S
C914 H908 0.950 1_556 S
C914 C915 1.327 . S
C915 H909 0.952 . S
C915 C914 1.327 . S
C915 C919 1.429 . S
C916 C899 1.574 . S
C916 H910 0.949 . S
C916 C920 1.368 . S
C917 C898 1.429 . S
C917 C911 1.429 . S
C917 C918 1.523 . S
C918 C899 1.368 . S
C918 C912 1.368 . S
C918 C917 1.523 . S
C919 C903 1.429 . S
C919 C915 1.429 . S
C919 C920 1.523 . S
C920 C904 1.368 . S
C920 C916 1.368 . S
C920 C919 1.523 . S
H921 C896 0.950 . S
H922 C898 0.950 . S
H923 C899 0.949 . S
H924 C901 0.950 . S
H925 C903 0.950 . S
C926 C927 1.349 . S
C926 C928 1.327 . S
C926 H951 0.950 . S
C927 C926 1.349 . S
C927 C943 1.349 . S
C928 C926 1.327 . S
C928 C947 1.429 . S
C928 H952 0.950 . S
C929 C946 1.574 . S
C929 C948 1.368 . S
C929 H953 0.949 . S
H930 C934 0.949 . S
C931 C932 1.349 . S
C931 C933 1.327 . S
C931 H954 0.950 . S
C932 C931 1.349 . S
C932 C944 1.349 . S
C933 C931 1.327 . S
C933 C949 1.429 . S
C933 H955 0.950 . S
C934 H930 0.949 . S
C934 C942 1.574 . S
C934 C950 1.368 . S
H935 C943 0.950 . S
H936 C941 0.950 . S
H937 C942 0.949 . S
H938 C944 0.950 . S
H939 C945 0.950 . S
H940 C946 0.949 . S
C941 H936 0.950 . S
C941 C943 1.327 . S
C941 C947 1.429 . S
C942 C934 1.574 . S
C942 H937 0.949 . S
C942 C948 1.368 . S
C943 C927 1.349 . S
C943 H935 0.950 . S
C943 C941 1.327 . S
C944 C932 1.349 . S
C944 H938 0.950 . S
C944 C945 1.327 . S
C945 H939 0.950 . S
C945 C944 1.327 . S
C945 C949 1.429 . S
C946 C929 1.574 . S
C946 H940 0.949 . S
C946 C950 1.368 . S
C947 C928 1.429 . S
C947 C941 1.429 . S
C947 C948 1.523 . S
C948 C929 1.368 . S
C948 C942 1.368 . S
C948 C947 1.523 . S
C949 C933 1.429 . S
C949 C945 1.429 . S
C949 C950 1.523 . S
C950 C934 1.368 . S
C950 C946 1.368 . S
C950 C949 1.523 . S
H951 C926 0.950 . S
H952 C928 0.950 . S
H953 C929 0.949 . S
H954 C931 0.950 . S
H955 C933 0.950 . S
C956 C957 1.349 . S
C956 C958 1.327 . S
C956 H981 0.950 . S
C957 C956 1.349 . S
C957 C973 1.349 . S
C958 C956 1.327 . S
C958 C977 1.429 . S
C958 H982 0.950 . S
C959 C976 1.574 . S
C959 C978 1.368 . S
C959 H983 0.949 . S
H960 C964 0.949 . S
C961 C962 1.349 . S
C961 C963 1.327 . S
C961 H984 0.950 . S
C962 C961 1.349 . S
C962 C974 1.349 . S
C963 C961 1.327 . S
C963 C979 1.429 . S
C963 H985 0.950 . S
C964 H960 0.949 . S
C964 C972 1.574 . S
C964 C980 1.368 . S
H965 C973 0.950 . S
H966 C971 0.950 . S
H967 C972 0.949 . S
H968 C974 0.950 1_556 S
H969 C975 0.950 . S
H970 C976 0.949 . S
C971 H966 0.950 . S
C971 C973 1.327 . S
C971 C977 1.429 . S
C972 C964 1.574 . S
C972 H967 0.949 . S
C972 C978 1.368 . S
C973 C957 1.349 . S
C973 H965 0.950 . S
C973 C971 1.327 . S
C974 C962 1.349 . S
C974 H968 0.950 1_554 S
C974 C975 1.327 . S
C975 H969 0.950 . S
C975 C974 1.327 . S
C975 C979 1.429 . S
C976 C959 1.574 . S
C976 H970 0.949 . S
C976 C980 1.368 . S
C977 C958 1.429 . S
C977 C971 1.429 . S
C977 C978 1.523 . S
C978 C959 1.368 . S
C978 C972 1.368 . S
C978 C977 1.523 . S
C979 C963 1.429 . S
C979 C975 1.429 . S
C979 C980 1.523 . S
C980 C964 1.368 . S
C980 C976 1.368 . S
C980 C979 1.523 . S
H981 C956 0.950 . S
H982 C958 0.950 . S
H983 C959 0.949 . S
H984 C961 0.950 . S
H985 C963 0.950 . S
C986 C987 1.349 . S
C986 C988 1.327 . S
C986 H1011 0.950 . S
C987 C986 1.349 . S
C987 C1003 1.349 . S
C988 C986 1.327 . S
C988 C1007 1.429 . S
C988 H1012 0.950 . S
C989 C1006 1.574 . S
C989 C1008 1.368 . S
C989 H1013 0.949 . S
H990 C994 0.949 . S
C991 C992 1.349 . S
C991 C993 1.327 . S
C991 H1014 0.950 . S
C992 C991 1.349 . S
C992 C1004 1.349 . S
C993 C991 1.327 . S
C993 C1009 1.429 . S
C993 H1015 0.950 . S
C994 H990 0.949 . S
C994 C1002 1.574 . S
C994 C1010 1.368 . S
H995 C1003 0.950 . S
H996 C1001 0.950 . S
H997 C1002 0.949 . S
H998 C1004 0.950 . S
H999 C1005 0.950 . S
H1000 C1006 0.949 . S
C1001 H996 0.950 . S
C1001 C1003 1.327 . S
C1001 C1007 1.429 . S
C1002 C994 1.574 . S
C1002 H997 0.949 . S
C1002 C1008 1.368 . S
C1003 C987 1.349 . S
C1003 H995 0.950 . S
C1003 C1001 1.327 . S
C1004 C992 1.349 . S
C1004 H998 0.950 . S
C1004 C1005 1.327 . S
C1005 H999 0.950 . S
C1005 C1004 1.327 . S
C1005 C1009 1.429 . S
C1006 C989 1.574 . S
C1006 H1000 0.949 . S
C1006 C1010 1.368 . S
C1007 C988 1.429 . S
C1007 C1001 1.429 . S
C1007 C1008 1.523 . S
C1008 C989 1.368 . S
C1008 C1002 1.368 . S
C1008 C1007 1.523 . S
C1009 C993 1.429 . S
C1009 C1005 1.429 . S
C1009 C1010 1.523 . S
C1010 C994 1.368 . S
C1010 C1006 1.368 . S
C1010 C1009 1.523 . S
H1011 C986 0.950 . S
H1012 C988 0.950 . S
H1013 C989 0.949 . S
H1014 C991 0.950 . S
H1015 C993 0.950 . S
C1016 C1017 1.349 . S
C1016 C1018 1.327 . S
C1016 H1041 0.950 . S
C1017 C1016 1.349 . S
C1017 C1033 1.349 . S
C1018 C1016 1.327 . S
C1018 C1037 1.429 . S
C1018 H1042 0.950 . S
C1019 C1036 1.574 . S
C1019 C1038 1.368 . S
C1019 H1043 0.949 . S
H1020 C1024 0.949 . S
C1021 C1022 1.349 . S
C1021 C1023 1.327 . S
C1021 H1044 0.950 . S
C1022 C1021 1.349 . S
C1022 C1034 1.349 . S
C1023 C1021 1.327 . S
C1023 C1039 1.429 . S
C1023 H1045 0.950 . S
C1024 H1020 0.949 . S
C1024 C1032 1.574 . S
C1024 C1040 1.368 . S
H1025 C1033 0.950 . S
H1026 C1031 0.950 . S
H1027 C1032 0.949 . S
H1028 C1034 0.950 1_554 S
H1029 C1035 0.928 1_554 S
H1030 C1036 0.949 . S
C1031 H1026 0.950 . S
C1031 C1033 1.327 . S
C1031 C1037 1.429 . S
C1032 C1024 1.574 . S
C1032 H1027 0.949 . S
C1032 C1038 1.368 . S
C1033 C1017 1.349 . S
C1033 H1025 0.950 . S
C1033 C1031 1.327 . S
C1034 C1022 1.349 . S
C1034 H1028 0.950 1_556 S
C1034 C1035 1.327 . S
C1035 H1029 0.928 1_556 S
C1035 C1034 1.327 . S
C1035 C1039 1.429 . S
C1036 C1019 1.574 . S
C1036 H1030 0.949 . S
C1036 C1040 1.368 . S
C1037 C1018 1.429 . S
C1037 C1031 1.429 . S
C1037 C1038 1.523 . S
C1038 C1019 1.368 . S
C1038 C1032 1.368 . S
C1038 C1037 1.523 . S
C1039 C1023 1.429 . S
C1039 C1035 1.429 . S
C1039 C1040 1.523 . S
C1040 C1024 1.368 . S
C1040 C1036 1.368 . S
C1040 C1039 1.523 . S
H1041 C1016 0.950 . S
H1042 C1018 0.950 . S
H1043 C1019 0.949 . S
H1044 C1021 0.950 . S
H1045 C1023 0.950 . S
C1046 C1047 1.349 . S
C1046 C1048 1.327 . S
C1046 H1071 0.950 . S
C1047 C1046 1.349 . S
C1047 C1063 1.349 . S
C1048 C1046 1.327 . S
C1048 C1067 1.429 . S
C1048 H1072 0.950 . S
C1049 C1066 1.574 . S
C1049 C1068 1.368 . S
C1049 H1073 0.949 . S
H1050 C1054 0.949 . S
C1051 C1052 1.349 . S
C1051 C1053 1.327 . S
C1051 H1074 0.950 . S
C1052 C1051 1.349 . S
C1052 C1064 1.349 . S
C1053 C1051 1.327 . S
C1053 C1069 1.429 . S
C1053 H1075 0.950 . S
C1054 H1050 0.949 . S
C1054 C1062 1.574 . S
C1054 C1070 1.368 . S
H1055 C1063 0.950 . S
H1056 C1061 0.950 . S
H1057 C1062 0.949 . S
H1058 C1064 0.950 . S
H1059 C1065 0.950 . S
H1060 C1066 0.949 . S
C1061 H1056 0.950 . S
C1061 C1063 1.327 . S
C1061 C1067 1.429 . S
C1062 C1054 1.574 . S
C1062 H1057 0.949 . S
C1062 C1068 1.368 . S
C1063 C1047 1.349 . S
C1063 H1055 0.950 . S
C1063 C1061 1.327 . S
C1064 C1052 1.349 . S
C1064 H1058 0.950 . S
C1064 C1065 1.327 . S
C1065 H1059 0.950 . S
C1065 C1064 1.327 . S
C1065 C1069 1.429 . S
C1066 C1049 1.574 . S
C1066 H1060 0.949 . S
C1066 C1070 1.368 . S
C1067 C1048 1.429 . S
C1067 C1061 1.429 . S
C1067 C1068 1.523 . S
C1068 C1049 1.368 . S
C1068 C1062 1.368 . S
C1068 C1067 1.523 . S
C1069 C1053 1.429 . S
C1069 C1065 1.429 . S
C1069 C1070 1.523 . S
C1070 C1054 1.368 . S
C1070 C1066 1.368 . S
C1070 C1069 1.523 . S
H1071 C1046 0.950 . S
H1072 C1048 0.950 . S
H1073 C1049 0.949 . S
H1074 C1051 0.950 . S
H1075 C1053 0.950 . S
C1076 C1077 1.349 . S
C1076 C1078 1.327 . S
C1076 H1101 0.950 . S
C1077 C1076 1.349 . S
C1077 C1093 1.349 . S
C1078 C1076 1.327 . S
C1078 C1097 1.429 . S
C1078 H1102 0.950 . S
C1079 C1096 1.574 . S
C1079 C1098 1.368 . S
C1079 H1103 0.949 . S
H1080 C1084 0.949 . S
C1081 C1082 1.349 . S
C1081 C1083 1.327 . S
C1081 H1104 0.950 . S
C1082 C1081 1.349 . S
C1082 C1094 1.349 . S
C1083 C1081 1.327 . S
C1083 C1099 1.429 . S
C1083 H1105 0.950 . S
C1084 H1080 0.949 . S
C1084 C1092 1.574 . S
C1084 C1100 1.368 . S
H1085 C1093 0.950 . S
H1086 C1091 0.950 . S
H1087 C1092 0.949 . S
H1088 C1094 0.925 1_655 S
H1089 C1095 0.950 . S
H1090 C1096 0.949 . S
C1091 H1086 0.950 . S
C1091 C1093 1.327 . S
C1091 C1097 1.429 . S
C1092 C1084 1.574 . S
C1092 H1087 0.949 . S
C1092 C1098 1.368 . S
C1093 C1077 1.349 . S
C1093 H1085 0.950 . S
C1093 C1091 1.327 . S
C1094 C1082 1.349 . S
C1094 H1088 0.925 1_455 S
C1094 C1095 1.327 . S
C1095 H1089 0.950 . S
C1095 C1094 1.327 . S
C1095 C1099 1.429 . S
C1096 C1079 1.574 . S
C1096 H1090 0.949 . S
C1096 C1100 1.368 . S
C1097 C1078 1.429 . S
C1097 C1091 1.429 . S
C1097 C1098 1.523 . S
C1098 C1079 1.368 . S
C1098 C1092 1.368 . S
C1098 C1097 1.523 . S
C1099 C1083 1.429 . S
C1099 C1095 1.429 . S
C1099 C1100 1.523 . S
C1100 C1084 1.368 . S
C1100 C1096 1.368 . S
C1100 C1099 1.523 . S
H1101 C1076 0.950 . S
H1102 C1078 0.950 . S
H1103 C1079 0.949 . S
H1104 C1081 0.950 . S
H1105 C1083 0.950 . S
C1106 C1107 1.349 . S
C1106 C1108 1.327 . S
C1106 H1131 0.950 . S
C1107 C1106 1.349 . S
C1107 C1123 1.349 . S
C1108 C1106 1.327 . S
C1108 C1127 1.429 . S
C1108 H1132 0.950 . S
C1109 C1126 1.574 . S
C1109 C1128 1.368 . S
C1109 H1133 0.949 . S
H1110 C1114 0.949 . S
C1111 C1112 1.349 . S
C1111 C1113 1.327 . S
C1111 H1134 0.950 . S
C1112 C1111 1.349 . S
C1112 C1124 1.349 . S
C1113 C1111 1.327 . S
C1113 C1129 1.429 . S
C1113 H1135 0.950 . S
C1114 H1110 0.949 . S
C1114 C1122 1.574 . S
C1114 C1130 1.368 . S
H1115 C1123 0.950 . S
H1116 C1121 0.950 . S
H1117 C1122 0.949 . S
H1118 C1124 0.950 . S
H1119 C1125 0.950 . S
H1120 C1126 0.949 . S
C1121 H1116 0.950 . S
C1121 C1123 1.327 . S
C1121 C1127 1.429 . S
C1122 C1114 1.574 . S
C1122 H1117 0.949 . S
C1122 C1128 1.368 . S
C1123 C1107 1.349 . S
C1123 H1115 0.950 . S
C1123 C1121 1.327 . S
C1124 C1112 1.349 . S
C1124 H1118 0.950 . S
C1124 C1125 1.327 . S
C1125 H1119 0.950 . S
C1125 C1124 1.327 . S
C1125 C1129 1.429 . S
C1126 C1109 1.574 . S
C1126 H1120 0.949 . S
C1126 C1130 1.368 . S
C1127 C1108 1.429 . S
C1127 C1121 1.429 . S
C1127 C1128 1.523 . S
C1128 C1109 1.368 . S
C1128 C1122 1.368 . S
C1128 C1127 1.523 . S
C1129 C1113 1.429 . S
C1129 C1125 1.429 . S
C1129 C1130 1.523 . S
C1130 C1114 1.368 . S
C1130 C1126 1.368 . S
C1130 C1129 1.523 . S
H1131 C1106 0.950 . S
H1132 C1108 0.950 . S
H1133 C1109 0.949 . S
H1134 C1111 0.950 . S
H1135 C1113 0.950 . S
C417 C29 2.911 . S
C422 C275 2.958 . S
C447 C49 2.191 . S
C452 C306 2.353 . S
C482 C345 1.311 . S
C477 C93 1.295 . S
C507 C119 0.392 . S
C512 C382 0.356 . S
C542 C305 2.806 . S
C537 C17 2.838 . S
C572 C262 1.581 . S
C567 C61 1.494 . S
C602 C394 1.308 . S
C597 C81 1.310 . S
C632 C351 0.971 . S
C627 C125 0.970 . S
C657 C23 2.194 . S
C662 C395 2.238 . S
C692 C311 1.239 . S
C687 C87 1.212 . S
C717 C113 0.613 . S
C722 C274 0.633 . S
C747 C55 2.381 . S
C752 C346 2.516 . S
C782 C266 2.899 . S
C777 C157 2.892 . S
C807 C189 2.405 . S
C812 C315 2.413 . S
C837 C221 1.326 . S
C842 C354 1.294 . S
C867 C253 0.461 . S
C872 C391 0.405 . S
C897 C145 2.942 . S
C902 C314 2.867 . S
C932 C271 1.509 . S
C927 C183 1.517 . S
C962 C385 1.353 . S
C957 C209 1.393 . S
C992 C342 0.920 . S
C987 C247 0.928 . S
C1017 C151 2.251 . S
C1022 C386 2.264 . S
C1052 C302 1.229 . S
C1047 C215 1.220 . S
C1082 C265 0.604 . S
C1077 C241 0.576 . S
C1107 C177 2.562 . S
C1112 C355 2.533 . S
