# Generated by pormake.
# Topology anh, (6,3)-cn, num edge types: 1
# Building blocks:
#     Node 0, Type 0, BuildingBlock: MIFKUJ_clean_sbu_0, # of connection points: 6
#     Node 1, Type 0, BuildingBlock: MIFKUJ_clean_sbu_0, # of connection points: 6
#     Node 2, Type 0, BuildingBlock: MIFKUJ_clean_sbu_0, # of connection points: 6
#     Node 3, Type 1, BuildingBlock: MIDCAF_clean_linker_0, # of connection points: 3
#     Node 4, Type 1, BuildingBlock: MIDCAF_clean_linker_0, # of connection points: 3
#     Node 5, Type 1, BuildingBlock: MIDCAF_clean_linker_0, # of connection points: 3
#     Node 6, Type 1, BuildingBlock: MIDCAF_clean_linker_0, # of connection points: 3
#     Node 7, Type 1, BuildingBlock: MIDCAF_clean_linker_0, # of connection points: 3
#     Node 8, Type 1, BuildingBlock: MIDCAF_clean_linker_0, # of connection points: 3
#     Edge 9, Type (0, 1), BuildingBlock: ZUJKAS_clean_linker_0, # of connection points: 2
#     Edge 10, Type (0, 1), BuildingBlock: ZUJKAS_clean_linker_0, # of connection points: 2
#     Edge 11, Type (0, 1), BuildingBlock: ZUJKAS_clean_linker_0, # of connection points: 2
#     Edge 12, Type (0, 1), BuildingBlock: ZUJKAS_clean_linker_0, # of connection points: 2
#     Edge 13, Type (0, 1), BuildingBlock: ZUJKAS_clean_linker_0, # of connection points: 2
#     Edge 14, Type (0, 1), BuildingBlock: ZUJKAS_clean_linker_0, # of connection points: 2
#     Edge 15, Type (0, 1), BuildingBlock: ZUJKAS_clean_linker_0, # of connection points: 2
#     Edge 16, Type (0, 1), BuildingBlock: ZUJKAS_clean_linker_0, # of connection points: 2
#     Edge 17, Type (0, 1), BuildingBlock: ZUJKAS_clean_linker_0, # of connection points: 2
#     Edge 18, Type (0, 1), BuildingBlock: ZUJKAS_clean_linker_0, # of connection points: 2
#     Edge 19, Type (0, 1), BuildingBlock: ZUJKAS_clean_linker_0, # of connection points: 2
#     Edge 20, Type (0, 1), BuildingBlock: ZUJKAS_clean_linker_0, # of connection points: 2
#     Edge 21, Type (0, 1), BuildingBlock: ZUJKAS_clean_linker_0, # of connection points: 2
#     Edge 22, Type (0, 1), BuildingBlock: ZUJKAS_clean_linker_0, # of connection points: 2
#     Edge 23, Type (0, 1), BuildingBlock: ZUJKAS_clean_linker_0, # of connection points: 2
#     Edge 24, Type (0, 1), BuildingBlock: ZUJKAS_clean_linker_0, # of connection points: 2
#     Edge 25, Type (0, 1), BuildingBlock: ZUJKAS_clean_linker_0, # of connection points: 2
#     Edge 26, Type (0, 1), BuildingBlock: ZUJKAS_clean_linker_0, # of connection points: 2
# Relax obj value: 0.136
# Max RMSD: 0.183
# Mean RMSD: 0.141
data_MOF--net-anh--node1-MIFKUJ_clean_sbu_0--node2-MIDCAF_clean_linker_0--edge1-ZUJKAS_clean_linker_0
_symmetry_space_group_name_H-M    P1
_symmetry_Int_Tables_number       1
_symmetry_cell_setting            triclinic
loop_
_symmetry_equiv_pos_as_xyz
'x, y, z'
_cell_length_a     45.466234
_cell_length_b     45.434281
_cell_length_c     79.609519
_cell_angle_alpha  93.755
_cell_angle_beta   90.767997
_cell_angle_gamma 120.02005
loop_
_atom_site_label
_atom_site_type_symbol
_atom_site_fract_x
_atom_site_fract_y
_atom_site_fract_z
_atom_type_partial_charge
Zn0 Zn 0.03619 0.55773 0.16789 0.0
Zn1 Zn 0.96929 0.4846 0.16515 0.0
C2 C 0.09346 0.55056 0.17553 0.0
O3 O 0.09556 0.57208 0.188 0.0
C4 C 0.91881 0.50096 0.15419 0.0
O5 O 0.9192 0.48332 0.14053 0.0
O6 O 0.06702 0.60813 0.16775 0.0
O7 O 0.00456 0.54605 0.14746 0.0
O8 O 0.99499 0.49393 0.14393 0.0
C9 C 0.07982 0.61851 0.15374 0.0
O10 O 0.07193 0.59616 0.14069 0.0
O11 O 0.06822 0.53852 0.16483 0.0
C12 C 0.91208 0.42482 0.17324 0.0
O13 O 0.91464 0.44629 0.18585 0.0
O14 O 0.93464 0.43509 0.16242 0.0
O15 O 0.99449 0.49252 0.18752 0.0
O16 O 0.01664 0.54832 0.19079 0.0
O17 O 0.93991 0.50713 0.16648 0.0
C18 C 1.00051 0.52105 0.13768 0.0
C19 C 0.00622 0.51994 0.19707 0.0
Zn20 Zn 0.54207 0.04997 0.50076 0.0
Zn21 Zn 0.55049 0.98479 0.50119 0.0
C22 C 0.60819 0.10709 0.50854 0.0
O23 O 0.5897 0.11339 0.51913 0.0
C24 C 0.48559 0.9272 0.4896 0.0
O25 O 0.50428 0.92677 0.47724 0.0
O26 O 0.52653 0.08385 0.49875 0.0
O27 O 0.51988 0.01659 0.48051 0.0
O28 O 0.56256 0.00734 0.47935 0.0
C29 C 0.53104 0.09703 0.48473 0.0
O30 O 0.5433 0.08632 0.47246 0.0
O31 O 0.59378 0.0791 0.49922 0.0
C32 C 0.56787 0.93682 0.51223 0.0
O33 O 0.55231 0.93925 0.52559 0.0
O34 O 0.57119 0.95503 0.50019 0.0
O35 O 0.56703 0.01334 0.52355 0.0
O36 O 0.53067 0.03202 0.52357 0.0
O37 O 0.49934 0.95112 0.50139 0.0
C38 C 0.53995 0.01095 0.47184 0.0
C39 C 0.54956 0.02385 0.53154 0.0
Zn40 Zn 0.55941 0.52543 0.83402 0.0
Zn41 Zn 0.48669 0.5176 0.83112 0.0
C42 C 0.54812 0.46085 0.84271 0.0
O43 O 0.56764 0.48099 0.85566 0.0
C44 C 0.49872 0.5814 0.82074 0.0
O45 O 0.47958 0.56034 0.80793 0.0
O46 O 0.60937 0.54332 0.83436 0.0
O47 O 0.55052 0.54291 0.81317 0.0
O48 O 0.498 0.50092 0.80946 0.0
C49 C 0.62001 0.53428 0.82146 0.0
O50 O 0.59811 0.51485 0.80905 0.0
O51 O 0.53894 0.4737 0.83142 0.0
C52 C 0.42398 0.50805 0.84124 0.0
O53 O 0.44308 0.52346 0.85511 0.0
O54 O 0.43694 0.50083 0.82876 0.0
O55 O 0.4943 0.50257 0.85329 0.0
O56 O 0.54908 0.53969 0.85657 0.0
O57 O 0.50754 0.56945 0.83261 0.0
C58 C 0.52565 0.52188 0.80332 0.0
C59 C 0.52075 0.52094 0.86288 0.0
C60 C 0.38663 0.91997 0.20325 0.0
C61 C 0.38131 0.92151 0.18599 0.0
C62 C 0.40556 0.94939 0.17784 0.0
C63 C 0.43487 0.97503 0.18677 0.0
H64 H 0.53137 0.05441 0.17996 0.0
H65 H 0.57639 0.10023 0.16548 0.0
H66 H 0.62487 0.15425 0.21353 0.0
H67 H 0.5801 0.10888 0.22804 0.0
H68 H 0.56078 0.0646 0.26002 0.0
H69 H 0.56751 0.06288 0.29029 0.0
H70 H 0.46428 0.97907 0.29031 0.0
H71 H 0.45722 0.98084 0.2601 0.0
H72 H 0.41903 0.94347 0.22547 0.0
H73 H 0.36807 0.89901 0.2099 0.0
H74 H 0.40213 0.95108 0.16452 0.0
H75 H 0.45322 0.99607 0.1801 0.0
N76 N 0.49642 0.02566 0.20544 0.0
N77 N 0.52882 0.04927 0.23093 0.0
N78 N 0.47558 0.99952 0.2304 0.0
C79 C 0.52513 0.0503 0.21406 0.0
C80 C 0.50417 0.02394 0.2392 0.0
C81 C 0.47151 1.00021 0.21352 0.0
C82 C 0.55212 0.07798 0.20518 0.0
C83 C 0.55156 0.07612 0.18745 0.0
C84 C 0.57734 0.10223 0.17913 0.0
C85 C 0.6039 0.13079 0.18839 0.0
C86 C 0.60439 0.13271 0.20608 0.0
C87 C 0.57885 0.10656 0.21438 0.0
C88 C 0.50842 0.02288 0.25759 0.0
C89 C 0.53945 0.04579 0.26645 0.0
C90 C 0.54343 0.04471 0.28378 0.0
C91 C 0.51642 0.02085 0.29265 0.0
C92 C 0.48542 0.99797 0.28382 0.0
C93 C 0.48148 0.9989 0.26648 0.0
C94 C 0.44034 0.97335 0.20404 0.0
C95 C 0.41578 0.9456 0.21218 0.0
C96 C 0.59124 0.42844 0.53445 0.0
C97 C 0.58735 0.4254 0.51678 0.0
C98 C 0.58691 0.45166 0.50862 0.0
C99 C 0.58955 0.48007 0.51799 0.0
H100 H 0.61089 0.58203 0.51539 0.0
H101 H 0.61096 0.62901 0.50191 0.0
H102 H 0.57232 0.65363 0.54666 0.0
H103 H 0.57221 0.60715 0.56012 0.0
H104 H 0.57924 0.57964 0.59376 0.0
H105 H 0.5706 0.57639 0.62379 0.0
H106 H 0.57629 0.48416 0.62205 0.0
H107 H 0.58547 0.48752 0.59198 0.0
H108 H 0.59602 0.45779 0.55743 0.0
H109 H 0.59122 0.40841 0.54113 0.0
H110 H 0.58423 0.4501 0.495 0.0
H111 H 0.58853 0.4996 0.51132 0.0
N112 N 0.59336 0.53746 0.53808 0.0
N113 N 0.58835 0.56139 0.56411 0.0
N114 N 0.58932 0.51029 0.56272 0.0
C115 C 0.59145 0.56271 0.5472 0.0
C116 C 0.58739 0.53536 0.57199 0.0
C117 C 0.59231 0.51113 0.54577 0.0
C118 C 0.59158 0.59087 0.53884 0.0
C119 C 0.60231 0.59742 0.52232 0.0
C120 C 0.60247 0.6243 0.51461 0.0
C121 C 0.59138 0.64466 0.52321 0.0
C122 C 0.58052 0.63797 0.53966 0.0
C123 C 0.58074 0.6115 0.54741 0.0
C124 C 0.583 0.53379 0.59038 0.0
C125 C 0.57877 0.55867 0.59973 0.0
C126 C 0.57358 0.55672 0.61695 0.0
C127 C 0.57257 0.52993 0.62526 0.0
C128 C 0.57721 0.50527 0.61601 0.0
C129 C 0.58232 0.50714 0.59875 0.0
C130 C 0.59241 0.48261 0.53572 0.0
C131 C 0.59373 0.45669 0.54381 0.0
C132 C 0.93976 0.56156 0.87032 0.0
C133 C 0.94343 0.57319 0.85417 0.0
C134 C 0.9757 0.58935 0.84752 0.0
C135 C 0.00386 0.59308 0.85679 0.0
H136 H 0.08508 0.57433 0.84939 0.0
H137 H 0.12761 0.56575 0.83505 0.0
H138 H 0.18341 0.58495 0.88265 0.0
H139 H 0.14135 0.59388 0.89699 0.0
H140 H 0.09646 0.57358 0.92971 0.0
H141 H 0.09198 0.5667 0.95985 0.0
H142 H 0.00503 0.58111 0.95954 0.0
H143 H 0.0095 0.58828 0.92948 0.0
H144 H 0.9642 0.55644 0.89211 0.0
H145 H 0.91508 0.54937 0.87575 0.0
H146 H 0.97897 0.59859 0.83509 0.0
H147 H 0.02849 0.60523 0.85134 0.0
N148 N 0.05607 0.58553 0.8746 0.0
N149 N 0.0813 0.58514 0.9004 0.0
N150 N 0.02892 0.58331 0.8997 0.0
C151 C 0.08213 0.58601 0.88338 0.0
C152 C 0.05485 0.58395 0.90867 0.0
C153 C 0.02944 0.58424 0.88269 0.0
C154 C 0.10964 0.58451 0.87438 0.0
C155 C 0.10667 0.57723 0.85678 0.0
C156 C 0.1309 0.57214 0.84855 0.0
C157 C 0.15871 0.57459 0.85774 0.0
C158 C 0.16243 0.58328 0.87521 0.0
C159 C 0.13815 0.58814 0.88345 0.0
C160 C 0.05328 0.58141 0.92712 0.0
C161 C 0.0765 0.57552 0.93606 0.0
C162 C 0.07384 0.57135 0.95331 0.0
C163 C 0.04811 0.57327 0.96201 0.0
C164 C 0.02531 0.5798 0.95318 0.0
C165 C 0.02779 0.58372 0.93592 0.0
C166 C 1.00017 0.58141 0.87299 0.0
C167 C 0.9679 0.56588 0.87971 0.0
C168 C 0.13226 0.63057 0.4644 0.0
C169 C 0.15205 0.62914 0.47764 0.0
C170 C 0.13902 0.59884 0.48588 0.0
C171 C 0.10789 0.56982 0.4801 0.0
H172 H 0.99459 0.47629 0.48951 0.0
H173 H 0.9486 0.4253 0.50095 0.0
H174 H 0.92889 0.36977 0.45208 0.0
H175 H 0.97455 0.41954 0.44097 0.0
H176 H 0.98118 0.46163 0.40926 0.0
H177 H 0.97545 0.46174 0.37879 0.0
H178 H 0.06725 0.56019 0.38062 0.0
H179 H 0.07259 0.56059 0.41103 0.0
H180 H 0.08766 0.60389 0.44805 0.0
H181 H 0.14115 0.65371 0.45805 0.0
H182 H 0.15371 0.59704 0.49617 0.0
H183 H 0.09936 0.54623 0.48599 0.0
N184 N 0.03885 0.5115 0.46537 0.0
N185 N 0.00977 0.48368 0.43933 0.0
N186 N 0.05617 0.53888 0.44029 0.0
C187 C 0.0132 0.48337 0.4563 0.0
C188 C 0.03107 0.51122 0.43122 0.0
C189 C 0.06045 0.53951 0.45725 0.0
C190 C 0.98826 0.45222 0.46429 0.0
C191 C 0.98076 0.45297 0.48135 0.0
C192 C 0.9542 0.42381 0.48785 0.0
C193 C 0.93489 0.39325 0.47746 0.0
C194 C 0.94334 0.39246 0.46059 0.0
C195 C 0.96952 0.42135 0.45415 0.0
C196 C 0.02733 0.51111 0.41266 0.0
C197 C 1.00012 0.48336 0.40319 0.0
C198 C 0.99692 0.48331 0.38569 0.0
C199 C 0.02088 0.51098 0.37724 0.0
C200 C 0.04804 0.5387 0.38673 0.0
C201 C 0.05119 0.53881 0.4042 0.0
C202 C 0.08941 0.5708 0.46604 0.0
C203 C 0.10146 0.60193 0.45871 0.0
C204 C 0.50132 0.11245 0.79984 0.0
C205 C 0.51939 0.13064 0.81498 0.0
C206 C 0.53838 0.11897 0.82363 0.0
C207 C 0.5401 0.09045 0.81694 0.0
H208 H 0.51299 0.97139 0.82114 0.0
H209 H 0.50997 0.9195 0.83069 0.0
H210 H 0.56584 0.91517 0.78812 0.0
H211 H 0.56888 0.96615 0.77868 0.0
H212 H 0.533 0.97563 0.74338 0.0
H213 H 0.53642 0.97685 0.71285 0.0
H214 H 0.55266 0.07919 0.71663 0.0
H215 H 0.54908 0.0781 0.74719 0.0
H216 H 0.49019 0.07198 0.78107 0.0
H217 H 0.48676 0.12081 0.79272 0.0
H218 H 0.55242 0.1323 0.83538 0.0
H219 H 0.55588 0.08277 0.8235 0.0
N220 N 0.53268 0.02362 0.80035 0.0
N221 N 0.54093 0.00196 0.77428 0.0
N222 N 0.53239 0.04853 0.77535 0.0
C223 C 0.53837 1.0005 0.79123 0.0
C224 C 0.53809 0.02583 0.76625 0.0
C225 C 0.52965 0.04776 0.7923 0.0
C226 C 0.54064 0.97268 0.79898 0.0
C227 C 0.52513 0.95965 0.81403 0.0
C228 C 0.52337 0.92993 0.81948 0.0
C229 C 0.53704 0.91281 0.80994 0.0
C230 C 0.5543 0.92718 0.79552 0.0
C231 C 0.55609 0.95658 0.79014 0.0
C232 C 0.5407 0.02676 0.74774 0.0
C233 C 0.53739 0.99846 0.73774 0.0
C234 C 0.53916 0.99905 0.72025 0.0
C235 C 0.54476 0.02809 0.71241 0.0
C236 C 0.54854 0.05656 0.72239 0.0
C237 C 0.54629 0.05582 0.73986 0.0
C238 C 0.52338 0.07356 0.80135 0.0
C239 C 0.50343 0.08448 0.7931 0.0
C240 C 0.624 0.55211 0.13167 0.0
C241 C 0.62352 0.53779 0.14686 0.0
C242 C 0.59294 0.52283 0.15537 0.0
C243 C 0.56342 0.52133 0.14853 0.0
H244 H 0.46911 0.54128 0.15494 0.0
H245 H 0.41895 0.54251 0.16538 0.0
H246 H 0.36316 0.49063 0.11834 0.0
H247 H 0.41236 0.48932 0.10803 0.0
H248 H 0.45125 0.50681 0.07502 0.0
H249 H 0.45156 0.50485 0.04439 0.0
H250 H 0.55737 0.53241 0.04703 0.0
H251 H 0.55698 0.53364 0.07759 0.0
H252 H 0.59628 0.56115 0.11292 0.0
H253 H 0.64665 0.56335 0.12453 0.0
H254 H 0.59167 0.5118 0.16718 0.0
H255 H 0.54002 0.50867 0.15504 0.0
N256 N 0.50431 0.52466 0.13193 0.0
N257 N 0.47641 0.51758 0.10557 0.0
N258 N 0.53178 0.52724 0.10675 0.0
C259 C 0.47608 0.51906 0.12268 0.0
C260 C 0.50403 0.52164 0.0975 0.0
C261 C 0.53238 0.52874 0.12385 0.0
C262 C 0.44507 0.51573 0.13054 0.0
C263 C 0.44592 0.52965 0.14699 0.0
C264 C 0.41722 0.53039 0.15294 0.0
C265 C 0.38728 0.51732 0.14253 0.0
C266 C 0.38603 0.50172 0.12652 0.0
C267 C 0.41437 0.50091 0.12064 0.0
C268 C 0.50408 0.52036 0.07883 0.0
C269 C 0.47461 0.51242 0.0691 0.0
C270 C 0.47481 0.51147 0.05151 0.0
C271 C 0.50449 0.51849 0.04324 0.0
C272 C 0.53393 0.52638 0.05297 0.0
C273 C 0.53373 0.52726 0.07054 0.0
C274 C 0.56387 0.53444 0.13296 0.0
C275 C 0.59478 0.55052 0.12488 0.0
H276 H 0.10116 0.51118 0.15003 0.0
H277 H 0.15027 0.50321 0.14603 0.0
H278 H 0.19881 0.56548 0.19224 0.0
H279 H 0.15023 0.57368 0.19629 0.0
H280 H 0.2408 0.5851 0.16515 0.0
H281 H 0.18162 0.44589 0.17085 0.0
H282 H 0.16 0.45764 0.15597 0.0
H283 H 0.16179 0.47003 0.17802 0.0
C284 C 0.1221 0.52281 0.15944 0.0
C285 C 0.12166 0.54309 0.17348 0.0
C286 C 0.15013 0.51812 0.15718 0.0
C287 C 0.17818 0.5335 0.16892 0.0
C288 C 0.17749 0.55328 0.18303 0.0
H289 H 0.35622 0.50525 0.17286 0.0
H290 H 0.30597 0.50952 0.18028 0.0
C291 C 0.14958 0.5579 0.18532 0.0
C292 C 0.20916 0.53082 0.16611 0.0
H293 H 0.23813 0.47436 0.16163 0.0
C294 C 0.24019 0.56088 0.16445 0.0
C295 C 0.20853 0.49928 0.16539 0.0
C296 C 0.1763 0.46635 0.16779 0.0
C297 C 0.27034 0.5602 0.1617 0.0
C298 C 0.26953 0.52859 0.16047 0.0
C299 C 0.23871 0.49857 0.16252 0.0
C300 C 0.30013 0.52623 0.15626 0.0
C301 C 0.30294 0.59335 0.16016 0.0
C302 C 0.31347 0.53415 0.14034 0.0
C303 C 0.34193 0.53167 0.13609 0.0
C304 C 0.35784 0.52117 0.14766 0.0
C305 C 0.3447 0.5136 0.16372 0.0
C306 C 0.3159 0.51582 0.16792 0.0
H307 H 0.30109 0.61567 0.16531 0.0
H308 H 0.32461 0.59349 0.16685 0.0
H309 H 0.30853 0.59634 0.14665 0.0
H310 H 0.30164 0.54201 0.1311 0.0
H311 H 0.35157 0.53807 0.12369 0.0
H312 H 0.64223 0.17144 0.52417 0.0
H313 H 0.69952 0.21723 0.51981 0.0
H314 H 0.71387 0.14977 0.48461 0.0
H315 H 0.65575 0.1038 0.48853 0.0
H316 H 0.76122 0.22531 0.52508 0.0
H317 H 0.73894 0.22879 0.45672 0.0
H318 H 0.70481 0.20439 0.47011 0.0
H319 H 0.73134 0.18807 0.46238 0.0
C320 C 0.65748 0.16616 0.5155 0.0
C321 C 0.64416 0.13388 0.5066 0.0
C322 C 0.69039 0.1925 0.51303 0.0
C323 C 0.71099 0.18734 0.50164 0.0
C324 C 0.69824 0.15477 0.49314 0.0
H325 H 0.91502 0.32571 0.47013 0.0
H326 H 0.8621 0.27564 0.47689 0.0
C327 C 0.66508 0.12838 0.49549 0.0
C328 C 0.74553 0.21631 0.4987 0.0
H329 H 0.79512 0.26483 0.4682 0.0
C330 C 0.76858 0.2339 0.51263 0.0
C331 C 0.75525 0.22781 0.48247 0.0
C332 C 0.73122 0.21154 0.46708 0.0
C333 C 0.8009 0.26237 0.51077 0.0
C334 C 0.81052 0.27375 0.49457 0.0
C335 C 0.78774 0.256 0.48062 0.0
C336 C 0.84393 0.30425 0.49175 0.0
C337 C 0.82471 0.27991 0.52612 0.0
C338 C 0.85161 0.3371 0.49802 0.0
C339 C 0.88181 0.36597 0.49403 0.0
C340 C 0.90494 0.36259 0.48362 0.0
C341 C 0.89763 0.32946 0.47792 0.0
C342 C 0.86741 0.30071 0.48183 0.0
H343 H 0.81658 0.26392 0.53698 0.0
H344 H 0.85102 0.28629 0.52332 0.0
H345 H 0.82515 0.3041 0.52986 0.0
H346 H 0.83368 0.34051 0.50553 0.0
H347 H 0.88627 0.39098 0.49848 0.0
H348 H 0.48795 0.61449 0.79617 0.0
H349 H 0.4961 0.67188 0.79823 0.0
H350 H 0.53446 0.68756 0.84981 0.0
H351 H 0.52683 0.62995 0.84776 0.0
H352 H 0.46489 0.69627 0.81967 0.0
H353 H 0.60546 0.7748 0.83033 0.0
H354 H 0.5843 0.7302 0.8229 0.0
H355 H 0.58397 0.74263 0.84475 0.0
C356 C 0.49852 0.63019 0.80793 0.0
C357 C 0.50677 0.61753 0.8218 0.0
C358 C 0.5031 0.66307 0.80909 0.0
C359 C 0.51609 0.68425 0.82413 0.0
C360 C 0.52495 0.67199 0.83797 0.0
H361 H 0.54587 0.89287 0.84075 0.0
H362 H 0.53972 0.83747 0.8466 0.0
C363 C 0.52048 0.63898 0.83679 0.0
C364 C 0.51865 0.71838 0.8253 0.0
H365 H 0.57504 0.80429 0.82988 0.0
C366 C 0.48898 0.71985 0.82203 0.0
C367 C 0.55001 0.74925 0.82851 0.0
C368 C 0.58285 0.74937 0.83171 0.0
C369 C 0.48992 0.75115 0.82142 0.0
C370 C 0.52141 0.78195 0.82397 0.0
C371 C 0.55091 0.78064 0.82795 0.0
C372 C 0.52454 0.81534 0.82087 0.0
C373 C 0.4572 0.75101 0.81778 0.0
C374 C 0.51815 0.82126 0.80452 0.0
C375 C 0.52173 0.85265 0.80117 0.0
C376 C 0.53186 0.87904 0.81409 0.0
C377 C 0.53785 0.873 0.83057 0.0
C378 C 0.53453 0.84148 0.83389 0.0
H379 H 0.43465 0.72669 0.82074 0.0
H380 H 0.45691 0.77249 0.82513 0.0
H381 H 0.45489 0.75398 0.80418 0.0
H382 H 0.51073 0.80164 0.79425 0.0
H383 H 0.51655 0.85628 0.78838 0.0
H384 H 0.89521 0.51658 0.18311 0.0
H385 H 0.84513 0.5234 0.18549 0.0
H386 H 0.8308 0.51225 0.13131 0.0
H387 H 0.87988 0.50428 0.12888 0.0
H388 H 0.82697 0.56707 0.17528 0.0
H389 H 0.73894 0.43981 0.14352 0.0
H390 H 0.78219 0.45275 0.14993 0.0
H391 H 0.77278 0.46486 0.13034 0.0
C392 C 0.88152 0.51587 0.1717 0.0
C393 C 0.89136 0.50954 0.1558 0.0
C394 C 0.85281 0.51966 0.17308 0.0
C395 C 0.83346 0.51736 0.1586 0.0
C396 C 0.84446 0.51294 0.14271 0.0
H397 H 0.69071 0.58718 0.14555 0.0
H398 H 0.74066 0.58182 0.15056 0.0
C399 C 0.87279 0.5087 0.14133 0.0
C400 C 0.8017 0.51928 0.15998 0.0
H401 H 0.71811 0.47891 0.14604 0.0
C402 C 0.80308 0.54761 0.16902 0.0
C403 C 0.77013 0.49351 0.15225 0.0
C404 C 0.76578 0.46086 0.14364 0.0
C405 C 0.77431 0.55159 0.16989 0.0
C406 C 0.74342 0.52706 0.16107 0.0
C407 C 0.74173 0.49804 0.15264 0.0
C408 C 0.71306 0.53154 0.15964 0.0
C409 C 0.77737 0.58192 0.18042 0.0
C410 C 0.68044 0.50498 0.16285 0.0
C411 C 0.65146 0.5076 0.15953 0.0
C412 C 0.6544 0.53687 0.15288 0.0
C413 C 0.68725 0.564 0.15042 0.0
C414 C 0.71608 0.56121 0.15355 0.0
H415 H 0.79691 0.59032 0.19094 0.0
H416 H 0.78549 0.60356 0.17244 0.0
H417 H 0.75281 0.57615 0.18579 0.0
H418 H 0.67726 0.48172 0.16749 0.0
H419 H 0.62669 0.48601 0.16143 0.0
H420 H 0.44775 0.87712 0.4648 0.0
H421 H 0.39112 0.82761 0.46624 0.0
H422 H 0.38643 0.8615 0.5175 0.0
H423 H 0.44307 0.91177 0.51601 0.0
H424 H 0.37116 0.77658 0.48674 0.0
H425 H 0.29488 0.84012 0.49756 0.0
H426 H 0.338 0.86261 0.49097 0.0
H427 H 0.3299 0.8536 0.51261 0.0
C428 C 0.43459 0.87435 0.47634 0.0
C429 C 0.45002 0.89857 0.49027 0.0
C430 C 0.40216 0.84589 0.47716 0.0
C431 C 0.38421 0.84079 0.49192 0.0
C432 C 0.39935 0.8651 0.50584 0.0
H433 H 0.18271 0.662 0.50871 0.0
H434 H 0.23968 0.71281 0.51443 0.0
C435 C 0.43184 0.89382 0.50499 0.0
C436 C 0.3504 0.80924 0.49274 0.0
H437 H 0.2657 0.78005 0.49754 0.0
C438 C 0.34818 0.77744 0.4892 0.0
C439 C 0.32028 0.81015 0.49605 0.0
C440 C 0.32066 0.84341 0.49938 0.0
C441 C 0.31682 0.74679 0.48849 0.0
C442 C 0.28669 0.74778 0.49132 0.0
C443 C 0.28888 0.77936 0.49546 0.0
C444 C 0.25256 0.71666 0.48829 0.0
C445 C 0.31598 0.71347 0.48442 0.0
C446 C 0.24101 0.70205 0.47177 0.0
C447 C 0.2087 0.67343 0.4685 0.0
C448 C 0.18707 0.65856 0.48169 0.0
C449 C 0.19885 0.6728 0.49832 0.0
C450 C 0.23125 0.70187 0.50157 0.0
H451 H 0.34146 0.71615 0.48645 0.0
H452 H 0.29771 0.69354 0.49225 0.0
H453 H 0.30745 0.70465 0.47098 0.0
H454 H 0.25692 0.7131 0.46132 0.0
H455 H 0.20056 0.66289 0.45557 0.0
H456 H 0.5177 0.41404 0.81525 0.0
H457 H 0.50887 0.35604 0.81161 0.0
H458 H 0.55228 0.3684 0.86183 0.0
H459 H 0.56089 0.42596 0.86562 0.0
H460 H 0.55914 0.33772 0.8132 0.0
H461 H 0.46476 0.27584 0.86126 0.0
H462 H 0.47396 0.31594 0.85355 0.0
H463 H 0.50205 0.3147 0.86924 0.0
C464 C 0.52489 0.40422 0.8256 0.0
C465 C 0.53992 0.42469 0.84075 0.0
C466 C 0.51995 0.3711 0.82348 0.0
C467 C 0.52954 0.35765 0.83652 0.0
C468 C 0.54406 0.37788 0.85171 0.0
H469 H 0.57431 0.19183 0.82708 0.0
H470 H 0.57643 0.24651 0.83303 0.0
C471 C 0.54913 0.41094 0.85381 0.0
C472 C 0.52622 0.3233 0.83398 0.0
H473 H 0.49103 0.2453 0.84994 0.0
C474 C 0.5441 0.31746 0.82118 0.0
C475 C 0.50641 0.29674 0.84431 0.0
C476 C 0.48543 0.3009 0.85777 0.0
C477 C 0.54327 0.28611 0.81865 0.0
C478 C 0.5244 0.25995 0.82935 0.0
C479 C 0.50589 0.2655 0.84191 0.0
C480 C 0.52275 0.22631 0.82729 0.0
C481 C 0.56226 0.28109 0.80438 0.0
C482 C 0.49164 0.19648 0.82282 0.0
C483 C 0.4903 0.16516 0.81955 0.0
C484 C 0.52004 0.1629 0.82079 0.0
C485 C 0.5509 0.19256 0.8261 0.0
C486 C 0.55223 0.22394 0.82931 0.0
H487 H 0.56865 0.30023 0.79502 0.0
H488 H 0.58639 0.28385 0.80953 0.0
H489 H 0.54708 0.25517 0.79781 0.0
H490 H 0.46851 0.1976 0.82134 0.0
H491 H 0.46604 0.14277 0.8157 0.0
H492 H 0.56718 0.89584 0.53597 0.0
H493 H 0.58028 0.84989 0.53231 0.0
H494 H 0.6052 0.87296 0.48095 0.0
H495 H 0.59207 0.91901 0.48445 0.0
H496 H 0.55822 0.80352 0.4849 0.0
H497 H 0.67239 0.85336 0.52815 0.0
H498 H 0.63809 0.85595 0.53768 0.0
H499 H 0.65784 0.88044 0.52012 0.0
C500 C 0.57588 0.89147 0.52397 0.0
C501 C 0.57859 0.91105 0.51051 0.0
C502 C 0.58354 0.86535 0.52193 0.0
C503 C 0.5941 0.8584 0.50643 0.0
C504 C 0.59734 0.87818 0.49304 0.0
H505 H 0.64344 0.695 0.50738 0.0
H506 H 0.64686 0.74733 0.49851 0.0
C507 C 0.58986 0.90446 0.49509 0.0
C508 C 0.59913 0.82877 0.50398 0.0
H509 H 0.64097 0.79254 0.52137 0.0
C510 C 0.57677 0.80131 0.4926 0.0
C511 C 0.62373 0.82624 0.51382 0.0
C512 C 0.64963 0.85572 0.52551 0.0
C513 C 0.57672 0.77037 0.49174 0.0
C514 C 0.59937 0.76689 0.50265 0.0
C515 C 0.62343 0.7952 0.5131 0.0
C516 C 0.59573 0.73331 0.50512 0.0
C517 C 0.55171 0.74134 0.47956 0.0
C518 C 0.56571 0.70805 0.51152 0.0
C519 C 0.56376 0.6784 0.51661 0.0
C520 C 0.59186 0.67355 0.51545 0.0
C521 C 0.62136 0.69807 0.50828 0.0
C522 C 0.62337 0.72792 0.50327 0.0
H523 H 0.54488 0.75094 0.46854 0.0
H524 H 0.56207 0.7249 0.47499 0.0
H525 H 0.52801 0.72546 0.48603 0.0
H526 H 0.54434 0.71201 0.51338 0.0
H527 H 0.54067 0.65975 0.522 0.0
H528 H 0.64825 0.51 0.79839 0.0
H529 H 0.70586 0.51869 0.79978 0.0
H530 H 0.73037 0.58679 0.84471 0.0
H531 H 0.67265 0.57775 0.84365 0.0
H532 H 0.77244 0.57674 0.80116 0.0
H533 H 0.74363 0.50903 0.8596 0.0
H534 H 0.71108 0.50871 0.84624 0.0
H535 H 0.73724 0.54503 0.86083 0.0
C536 C 0.666 0.52713 0.80847 0.0
C537 C 0.65579 0.54275 0.82109 0.0
C538 C 0.6989 0.53213 0.80919 0.0
C539 C 0.72201 0.55287 0.8225 0.0
C540 C 0.71258 0.57018 0.83451 0.0
H541 H 0.93461 0.6226 0.84154 0.0
H542 H 0.88094 0.61643 0.83067 0.0
C543 C 0.67965 0.56501 0.83388 0.0
C544 C 0.75497 0.55427 0.82462 0.0
H545 H 0.80076 0.53576 0.85178 0.0
C546 C 0.77871 0.56767 0.81216 0.0
C547 C 0.76259 0.5417 0.83881 0.0
C548 C 0.7372 0.52499 0.85206 0.0
C549 C 0.81048 0.56968 0.81379 0.0
C550 C 0.81862 0.55846 0.82838 0.0
C551 C 0.7945 0.54443 0.84061 0.0
C552 C 0.85218 0.56159 0.83169 0.0
C553 C 0.83478 0.5834 0.79986 0.0
C554 C 0.85386 0.53281 0.83569 0.0
C555 C 0.88418 0.53643 0.8422 0.0
C556 C 0.91337 0.56883 0.84463 0.0
C557 C 0.91237 0.59735 0.83959 0.0
C558 C 0.88183 0.5938 0.8333 0.0
H559 H 0.82117 0.58084 0.78768 0.0
H560 H 0.85299 0.61092 0.80309 0.0
H561 H 0.8495 0.57002 0.79821 0.0
H562 H 0.83124 0.50775 0.83455 0.0
H563 H 0.88454 0.51411 0.84595 0.0
H564 H 0.1103 0.66905 0.17924 0.0
H565 H 0.15746 0.7268 0.1773 0.0
H566 H 0.15426 0.70763 0.12331 0.0
H567 H 0.10746 0.64938 0.12518 0.0
H568 H 0.21628 0.73133 0.13673 0.0
H569 H 0.1685 0.81425 0.16224 0.0
H570 H 0.1607 0.78235 0.17642 0.0
H571 H 0.14039 0.76973 0.15552 0.0
C572 C 0.11917 0.67731 0.16691 0.0
C573 C 0.10536 0.65463 0.15238 0.0
C574 C 0.14593 0.71047 0.1658 0.0
C575 C 0.159 0.72171 0.15012 0.0
C576 C 0.14436 0.69952 0.13551 0.0
H577 H 0.33881 0.92748 0.16352 0.0
H578 H 0.28539 0.88126 0.1498 0.0
C579 C 0.11772 0.66625 0.13662 0.0
C580 C 0.19066 0.75484 0.14943 0.0
H581 H 0.22992 0.83727 0.16634 0.0
C582 C 0.21906 0.75474 0.1428 0.0
C583 C 0.19422 0.78557 0.15698 0.0
C584 C 0.16416 0.78804 0.16301 0.0
C585 C 0.2515 0.78375 0.14494 0.0
C586 C 0.25559 0.81323 0.15426 0.0
C587 C 0.22679 0.81438 0.15946 0.0
C588 C 0.28943 0.84102 0.16077 0.0
C589 C 0.28125 0.78205 0.13783 0.0
C590 C 0.30924 0.83357 0.17143 0.0
C591 C 0.33955 0.85971 0.17921 0.0
C592 C 0.35049 0.89387 0.17661 0.0
C593 C 0.33106 0.90132 0.16562 0.0
C594 C 0.30058 0.87504 0.15783 0.0
H595 H 0.27316 0.76412 0.1263 0.0
H596 H 0.30169 0.80754 0.13471 0.0
H597 H 0.29185 0.77246 0.14728 0.0
H598 H 0.3007 0.80755 0.17418 0.0
H599 H 0.35418 0.85322 0.18748 0.0
H600 H 0.51686 0.1324 0.5092 0.0
H601 H 0.51935 0.1869 0.50731 0.0
H602 H 0.53938 0.18461 0.45456 0.0
H603 H 0.53761 0.13024 0.45642 0.0
H604 H 0.58576 0.24303 0.47141 0.0
H605 H 0.458 0.21756 0.48766 0.0
H606 H 0.47514 0.20232 0.50305 0.0
H607 H 0.46665 0.18373 0.48159 0.0
C608 C 0.52105 0.14307 0.4971 0.0
C609 C 0.52724 0.12712 0.48299 0.0
C610 C 0.52221 0.17415 0.496 0.0
C611 C 0.52909 0.1896 0.48073 0.0
C612 C 0.53383 0.173 0.46643 0.0
H613 H 0.54063 0.38854 0.49076 0.0
H614 H 0.52699 0.33281 0.47729 0.0
C615 C 0.53283 0.14197 0.46754 0.0
C616 C 0.53546 0.22482 0.48038 0.0
H617 H 0.5042 0.27602 0.4939 0.0
C618 C 0.56763 0.25018 0.47595 0.0
C619 C 0.51162 0.23412 0.48597 0.0
C620 C 0.4758 0.20788 0.48965 0.0
C621 C 0.57751 0.28481 0.47824 0.0
C622 C 0.55487 0.29422 0.48546 0.0
C623 C 0.52177 0.26879 0.4886 0.0
C624 C 0.56608 0.32986 0.49162 0.0
C625 C 0.61246 0.31097 0.47336 0.0
C626 C 0.59284 0.34679 0.50396 0.0
C627 C 0.6008 0.3786 0.51157 0.0
C628 C 0.5819 0.39394 0.50711 0.0
C629 C 0.55589 0.37752 0.49431 0.0
C630 C 0.54794 0.34564 0.48668 0.0
H631 H 0.62114 0.30043 0.46282 0.0
H632 H 0.61296 0.33429 0.46956 0.0
H633 H 0.63085 0.31824 0.48429 0.0
H634 H 0.60669 0.33477 0.50824 0.0
H635 H 0.62115 0.39077 0.52129 0.0
H636 H 0.38246 0.48839 0.81257 0.0
H637 H 0.32971 0.49003 0.80895 0.0
H638 H 0.33615 0.52095 0.86189 0.0
H639 H 0.38855 0.51917 0.86568 0.0
H640 H 0.26887 0.47079 0.84789 0.0
H641 H 0.33554 0.58499 0.81123 0.0
H642 H 0.33692 0.54731 0.80409 0.0
H643 H 0.35847 0.57045 0.8237 0.0
C644 C 0.37231 0.49497 0.8235 0.0
C645 C 0.38983 0.50404 0.83939 0.0
C646 C 0.3423 0.49602 0.82137 0.0
C647 C 0.32947 0.50608 0.83511 0.0
C648 C 0.34582 0.51322 0.85114 0.0
H649 H 0.22788 0.6086 0.86196 0.0
H650 H 0.26616 0.58869 0.85219 0.0
C651 C 0.37579 0.51227 0.85327 0.0
C652 C 0.3005 0.51175 0.83286 0.0
H653 H 0.28084 0.56999 0.8195 0.0
C654 C 0.27102 0.49196 0.84137 0.0
C655 C 0.30378 0.5396 0.82441 0.0
C656 C 0.33538 0.56204 0.81538 0.0
C657 C 0.24536 0.50043 0.84247 0.0
C658 C 0.24931 0.52919 0.83465 0.0
C659 C 0.27795 0.54785 0.82536 0.0
C660 C 0.22666 0.54311 0.83815 0.0
C661 C 0.21539 0.48 0.85294 0.0
C662 C 0.19208 0.52461 0.83296 0.0
C663 C 0.17011 0.53584 0.83862 0.0
C664 C 0.18254 0.56571 0.84952 0.0
C665 C 0.21758 0.58524 0.85378 0.0
C666 C 0.23946 0.57403 0.84812 0.0
H667 H 0.21858 0.46139 0.86 0.0
H668 H 0.21164 0.49721 0.8621 0.0
H669 H 0.19198 0.46568 0.84458 0.0
H670 H 0.18189 0.50087 0.8251 0.0
H671 H 0.14319 0.52021 0.83519 0.0
H672 H 0.85715 0.39784 0.19261 0.0
H673 H 0.80445 0.34334 0.1872 0.0
H674 H 0.84435 0.3202 0.14262 0.0
H675 H 0.89748 0.37498 0.14786 0.0
H676 H 0.76282 0.32132 0.15213 0.0
H677 H 0.8076 0.23616 0.17502 0.0
H678 H 0.82756 0.28028 0.18324 0.0
H679 H 0.83356 0.26988 0.16194 0.0
C680 C 0.85494 0.38113 0.18172 0.0
C681 C 0.88147 0.39071 0.17066 0.0
C682 C 0.82478 0.3501 0.17862 0.0
C683 C 0.82072 0.32807 0.16451 0.0
C684 C 0.84724 0.33706 0.15358 0.0
H685 H 0.6401 0.12465 0.16261 0.0
H686 H 0.69082 0.17076 0.15108 0.0
C687 C 0.87749 0.36824 0.15663 0.0
C688 C 0.78824 0.29589 0.16138 0.0
H689 H 0.74861 0.21304 0.1707 0.0
C690 C 0.75968 0.29737 0.1558 0.0
C691 C 0.78455 0.2648 0.16596 0.0
C692 C 0.81482 0.26233 0.17189 0.0
C693 C 0.72697 0.26885 0.15576 0.0
C694 C 0.72294 0.23856 0.16183 0.0
C695 C 0.7518 0.23636 0.16611 0.0
C696 C 0.6895 0.21113 0.16645 0.0
C697 C 0.69698 0.27185 0.14988 0.0
C698 C 0.6719 0.21869 0.17874 0.0
C699 C 0.64316 0.19258 0.18532 0.0
C700 C 0.63163 0.15839 0.17981 0.0
C701 C 0.64837 0.15085 0.16698 0.0
C702 C 0.67731 0.17707 0.16042 0.0
H703 H 0.70423 0.29037 0.14012 0.0
H704 H 0.67557 0.24683 0.14464 0.0
H705 H 0.68807 0.2814 0.16071 0.0
H706 H 0.68133 0.24471 0.18387 0.0
H707 H 0.63053 0.19906 0.1951 0.0
H708 H 0.00524 0.57295 0.12036 0.0
H709 H 0.01256 0.57957 0.09027 0.0
H710 H 0.01097 0.48379 0.08347 0.0
H711 H 0.00297 0.4766 0.11358 0.0
H712 H 0.06525 0.58404 0.0722 0.0
H713 H 0.94279 0.47302 0.04658 0.0
H714 H 0.95017 0.48875 0.06853 0.0
H715 H 0.96684 0.46242 0.06052 0.0
C716 C 0.00615 0.55312 0.11246 0.0
C717 C 0.00346 0.5242 0.11934 0.0
C718 C 0.01036 0.55697 0.09527 0.0
C719 C 0.0119 0.53199 0.08462 0.0
C720 C 0.00912 0.50302 0.09142 0.0
H721 H 0.05083 0.52343 0.97819 0.0
H722 H 0.04348 0.5136 0.00814 0.0
C723 C 0.00471 0.49904 0.10863 0.0
C724 C 0.01783 0.53714 0.06654 0.0
H725 H 0.98373 0.503 0.02676 0.0
C726 C 0.04739 0.56637 0.06226 0.0
C727 C 0.9945 0.51398 0.05363 0.0
C728 C 0.96163 0.48293 0.0575 0.0
C729 C 0.05431 0.57302 0.04538 0.0
C730 C 0.03094 0.54995 0.03251 0.0
C731 C 1.00159 0.52053 0.03674 0.0
C732 C 0.03613 0.55639 0.01456 0.0
C733 C 0.08669 0.60447 0.04141 0.0
C734 C 0.03424 0.58359 0.00834 0.0
C735 C 0.0384 0.58926 0.99129 0.0
C736 C 0.04457 0.56781 0.98019 0.0
C737 C 0.04655 0.54062 0.9865 0.0
C738 C 0.04216 0.53485 0.00354 0.0
H739 H 0.10527 0.61559 0.05244 0.0
H740 H 0.09879 0.59852 0.0307 0.0
H741 H 0.08062 0.62404 0.0377 0.0
H742 H 0.02923 0.60024 0.01666 0.0
H743 H 0.03694 0.61051 0.98679 0.0
H744 H 0.58363 0.00719 0.44964 0.0
H745 H 0.58217 0.00999 0.41905 0.0
H746 H 0.49107 0.01688 0.42157 0.0
H747 H 0.49264 0.01477 0.4521 0.0
H748 H 0.53263 0.96762 0.39458 0.0
H749 H 0.55303 0.09874 0.3961 0.0
H750 H 0.55999 0.08142 0.41452 0.0
H751 H 0.51764 0.07086 0.40782 0.0
C752 C 0.56329 0.00932 0.44368 0.0
C753 C 0.5384 0.01104 0.4533 0.0
C754 C 0.56252 0.01093 0.42622 0.0
C755 C 0.53691 0.01434 0.41813 0.0
C756 C 0.51154 0.01513 0.42764 0.0
H757 H 0.47186 0.01561 0.31649 0.0
H758 H 0.47834 0.01379 0.34693 0.0
C759 C 0.51236 0.01368 0.44508 0.0
C760 C 0.53632 0.01652 0.39969 0.0
H761 H 0.53534 0.06602 0.36947 0.0
C762 C 0.53355 0.98925 0.38907 0.0
C763 C 0.53767 0.04489 0.39257 0.0
C764 C 0.54259 0.0758 0.40334 0.0
C765 C 0.53098 0.9891 0.37148 0.0
C766 C 0.53147 0.01706 0.36442 0.0
C767 C 0.53479 0.04457 0.375 0.0
C768 C 0.52777 0.0179 0.34604 0.0
C769 C 0.52682 0.9587 0.36056 0.0
C770 C 0.55361 0.0211 0.33559 0.0
C771 C 0.55001 0.02216 0.31822 0.0
C772 C 0.52045 0.01995 0.31107 0.0
C773 C 0.4947 0.01691 0.32163 0.0
C774 C 0.49842 0.01605 0.33899 0.0
H775 H 0.52105 0.93676 0.36801 0.0
H776 H 0.50614 0.95049 0.35068 0.0
H777 H 0.55074 0.96592 0.35414 0.0
H778 H 0.5766 0.02292 0.34088 0.0
H779 H 0.57015 0.0243 0.31037 0.0
H780 H 0.4766 0.48345 0.77834 0.0
H781 H 0.48322 0.48352 0.74786 0.0
H782 H 0.58931 0.55975 0.75624 0.0
H783 H 0.5829 0.56027 0.78662 0.0
H784 H 0.55602 0.57457 0.73173 0.0
H785 H 0.53137 0.44196 0.72055 0.0
H786 H 0.49861 0.44569 0.73115 0.0
H787 H 0.54022 0.46384 0.74135 0.0
C788 C 0.50135 0.50016 0.77369 0.0
C789 C 0.52924 0.52178 0.7849 0.0
C790 C 0.50512 0.50003 0.75629 0.0
C791 C 0.53687 0.52128 0.74984 0.0
C792 C 0.56463 0.54307 0.76099 0.0
H793 H 0.60508 0.5146 0.64939 0.0
H794 H 0.59574 0.51227 0.67961 0.0
C795 C 0.56089 0.54331 0.77835 0.0
C796 C 0.54118 0.52149 0.73147 0.0
H797 H 0.53664 0.47175 0.69636 0.0
C798 C 0.55179 0.55211 0.72398 0.0
C799 C 0.53606 0.49224 0.72148 0.0
C800 C 0.52623 0.45912 0.72902 0.0
C801 C 0.55718 0.55423 0.70669 0.0
C802 C 0.55121 0.52475 0.69662 0.0
C803 C 0.54089 0.4942 0.70413 0.0
C804 C 0.5561 0.52531 0.6783 0.0
C805 C 0.56991 0.58817 0.69944 0.0
C806 C 0.53648 0.53284 0.66756 0.0
C807 C 0.54174 0.53418 0.65033 0.0
C808 C 0.56653 0.52773 0.64351 0.0
C809 C 0.58564 0.51946 0.65426 0.0
C810 C 0.58042 0.51822 0.67151 0.0
H811 H 0.58132 0.6097 0.7094 0.0
H812 H 0.5892 0.59242 0.69004 0.0
H813 H 0.54828 0.58845 0.693 0.0
H814 H 0.51706 0.53764 0.67252 0.0
H815 H 0.52617 0.53997 0.64231 0.0
H816 H 0.59493 0.01993 0.55289 0.0
H817 H 0.59583 0.02214 0.58367 0.0
H818 H 0.50699 0.03326 0.58309 0.0
H819 H 0.50664 0.03232 0.55238 0.0
H820 H 0.55248 0.07566 0.60704 0.0
H821 H 0.53429 0.9464 0.61145 0.0
H822 H 0.57123 0.97344 0.60043 0.0
H823 H 0.52959 0.96137 0.59173 0.0
C824 C 0.57559 0.02286 0.55932 0.0
C825 C 0.55061 0.02578 0.55018 0.0
C826 C 0.57599 0.02387 0.57691 0.0
C827 C 0.55104 0.02711 0.58568 0.0
C828 C 0.52641 0.03057 0.5766 0.0
H829 H 0.50039 0.97939 0.68865 0.0
H830 H 0.50227 0.98029 0.65797 0.0
C831 C 0.52623 0.03 0.55903 0.0
C832 C 0.55068 0.02729 0.60432 0.0
H833 H 0.54762 0.98128 0.63715 0.0
C834 C 0.55131 0.05497 0.61363 0.0
C835 C 0.54864 1.00005 0.61289 0.0
C836 C 0.54554 0.96848 0.60361 0.0
C837 C 0.55014 0.05627 0.63126 0.0
C838 C 0.54938 0.02962 0.63987 0.0
C839 C 0.54857 0.00187 0.63056 0.0
C840 C 0.54841 0.02946 0.6585 0.0
C841 C 0.54875 0.0857 0.64038 0.0
C842 C 0.5739 0.05662 0.669 0.0
C843 C 0.57262 0.05632 0.68653 0.0
C844 C 0.54622 0.02851 0.69385 0.0
C845 C 0.52112 1.00105 0.68333 0.0
C846 C 0.52216 1.00157 0.66582 0.0
H847 H 0.53936 0.09796 0.63184 0.0
H848 H 0.532 0.07727 0.65117 0.0
H849 H 0.57473 0.10531 0.6453 0.0
H850 H 0.59494 0.07795 0.66366 0.0
H851 H 0.59255 0.07757 0.69437 0.0
H852 H 0.46349 0.48869 0.88066 0.0
H853 H 0.4598 0.48859 0.91127 0.0
H854 H 0.56897 0.55105 0.91763 0.0
H855 H 0.57292 0.55184 0.88705 0.0
H856 H 0.48739 0.4652 0.93413 0.0
H857 H 0.53685 0.60375 0.9481 0.0
H858 H 0.52374 0.58298 0.92705 0.0
H859 H 0.5648 0.59429 0.9362 0.0
C860 C 0.48674 0.50251 0.88856 0.0
C861 C 0.5185 0.52046 0.88141 0.0
C862 C 0.48456 0.5024 0.90605 0.0
C863 C 0.51405 0.52026 0.91672 0.0
C864 C 0.54583 0.53776 0.90963 0.0
H865 H 0.53511 0.49309 0.02213 0.0
H866 H 0.53679 0.49326 0.99147 0.0
C867 C 0.54804 0.53801 0.89214 0.0
C868 C 0.51156 0.51996 0.93525 0.0
H869 H 0.53078 0.57173 0.9716 0.0
C870 C 0.49675 0.48847 0.94233 0.0
C871 C 0.52335 0.55032 0.94589 0.0
C872 C 0.53778 0.58473 0.93894 0.0
C873 C 0.49396 0.48655 0.95981 0.0
C874 C 0.50693 0.51701 0.97049 0.0
C875 C 0.52117 0.54845 0.96339 0.0
C876 C 0.50589 0.51684 0.98908 0.0
C877 C 0.4767 0.45191 0.96665 0.0
C878 C 0.4887 0.53085 0.99796 0.0
C879 C 0.4881 0.53125 0.01552 0.0
C880 C 0.50483 0.51777 0.02455 0.0
C881 C 0.52219 0.50392 0.01559 0.0
C882 C 0.52283 0.50361 0.99804 0.0
H883 H 0.46011 0.43145 0.9568 0.0
H884 H 0.49633 0.44621 0.97122 0.0
H885 H 0.46106 0.45122 0.97738 0.0
H886 H 0.47569 0.54145 0.99128 0.0
H887 H 0.47496 0.5426 0.02203 0.0
H888 H 0.98728 0.464 0.21474 0.0
H889 H 0.98857 0.46195 0.24535 0.0
H890 H 0.02911 0.57063 0.25198 0.0
H891 H 0.02785 0.57304 0.2214 0.0
H892 H 0.0466 0.4987 0.26879 0.0
H893 H 0.94509 0.53016 0.28142 0.0
H894 H 0.95079 0.51569 0.26069 0.0
H895 H 0.97854 0.55903 0.26897 0.0
C896 C 0.99644 0.4875 0.22269 0.0
C897 C 0.00736 0.51869 0.2156 0.0
C898 C 0.99716 0.48624 0.24017 0.0
C899 C 0.0085 0.51605 0.25089 0.0
C900 C 0.01972 0.54726 0.2439 0.0
H901 H 0.03263 0.56438 0.35886 0.0
H902 H 0.02994 0.56483 0.3282 0.0
C903 C 0.01913 0.54859 0.22642 0.0
C904 C 0.00925 0.51458 0.26939 0.0
H905 H 0.97561 0.52795 0.30519 0.0
C906 C 0.03099 0.50492 0.27677 0.0
C907 C 0.98888 0.5228 0.27971 0.0
C908 C 0.96426 0.53225 0.27234 0.0
C909 C 0.03347 0.50396 0.2943 0.0
C910 C 0.01306 0.51215 0.30464 0.0
C911 C 0.99121 0.52167 0.29723 0.0
C912 C 0.01437 0.51149 0.32322 0.0
C913 C 0.05859 0.49509 0.3016 0.0
C914 C 0.006 0.48122 0.33059 0.0
C915 C 0.00787 0.48095 0.34812 0.0
C916 C 0.01786 0.51091 0.35861 0.0
C917 C 0.02546 0.54101 0.35116 0.0
C918 C 0.02369 0.54126 0.33364 0.0
H919 H 0.07832 0.49842 0.29262 0.0
H920 H 0.07141 0.51111 0.31347 0.0
H921 H 0.04488 0.46798 0.30449 0.0
H922 H 0.99807 0.45778 0.32279 0.0
H923 H 1.00204 0.45739 0.35342 0.0
loop_
_geom_bond_atom_site_label_1
_geom_bond_atom_site_label_2
_geom_bond_distance
_geom_bond_site_symmetry_2
_ccdc_geom_bond_type
Zn0 O6 1.969 . S
Zn0 O7 1.965 . S
Zn0 O11 2.024 . S
Zn0 O16 1.969 . S
Zn1 O8 1.969 . S
Zn1 O14 1.969 . S
Zn1 O15 1.965 . S
Zn1 O17 2.024 . S
C2 O3 1.229 . S
C2 O11 1.058 . S
O3 C2 1.229 . S
C4 O5 1.229 . S
C4 O17 1.058 . S
O5 C4 1.229 . S
O6 Zn0 1.969 . S
O6 C9 1.267 . S
O7 Zn0 1.965 . S
O7 C18 1.260 . S
O8 Zn1 1.969 . S
O8 C18 1.257 1_655 S
C9 O6 1.267 . S
C9 O10 1.228 . S
O10 C9 1.228 . S
O11 Zn0 2.024 . S
O11 C2 1.058 . S
C12 O13 1.228 . S
C12 O14 1.267 . S
O13 C12 1.228 . S
O14 Zn1 1.969 . S
O14 C12 1.267 . S
O15 Zn1 1.965 . S
O15 C19 1.260 1_655 S
O16 Zn0 1.969 . S
O16 C19 1.258 . S
O17 Zn1 2.024 . S
O17 C4 1.058 . S
C18 O7 1.260 . S
C18 O8 1.257 1_455 S
C19 O15 1.260 1_455 S
C19 O16 1.258 . S
Zn20 O26 1.969 . S
Zn20 O27 1.965 . S
Zn20 O31 2.024 . S
Zn20 O36 1.969 . S
Zn21 O28 1.969 . S
Zn21 O34 1.969 . S
Zn21 O35 1.965 . S
Zn21 O37 2.024 . S
C22 O23 1.229 . S
C22 O31 1.058 . S
O23 C22 1.229 . S
C24 O25 1.229 . S
C24 O37 1.058 . S
O25 C24 1.229 . S
O26 Zn20 1.969 . S
O26 C29 1.267 . S
O27 Zn20 1.965 . S
O27 C38 1.260 . S
O28 Zn21 1.969 . S
O28 C38 1.258 1_565 S
C29 O26 1.267 . S
C29 O30 1.228 . S
O30 C29 1.228 . S
O31 Zn20 2.024 . S
O31 C22 1.058 . S
C32 O33 1.228 . S
C32 O34 1.267 . S
O33 C32 1.228 . S
O34 Zn21 1.969 . S
O34 C32 1.267 . S
O35 Zn21 1.965 . S
O35 C39 1.260 1_565 S
O36 Zn20 1.969 . S
O36 C39 1.258 . S
O37 Zn21 2.024 . S
O37 C24 1.058 . S
C38 O27 1.260 . S
C38 O28 1.258 1_545 S
C39 O35 1.260 1_545 S
C39 O36 1.258 . S
Zn40 O46 1.969 . S
Zn40 O47 1.965 . S
Zn40 O51 2.024 . S
Zn40 O56 1.969 . S
Zn41 O48 1.969 . S
Zn41 O54 1.969 . S
Zn41 O55 1.965 . S
Zn41 O57 2.024 . S
C42 O43 1.229 . S
C42 O51 1.058 . S
O43 C42 1.229 . S
C44 O45 1.229 . S
C44 O57 1.058 . S
O45 C44 1.229 . S
O46 Zn40 1.969 . S
O46 C49 1.267 . S
O47 Zn40 1.965 . S
O47 C58 1.260 . S
O48 Zn41 1.969 . S
O48 C58 1.258 . S
C49 O46 1.267 . S
C49 O50 1.228 . S
O50 C49 1.228 . S
O51 Zn40 2.024 . S
O51 C42 1.058 . S
C52 O53 1.228 . S
C52 O54 1.267 . S
O53 C52 1.228 . S
O54 Zn41 1.969 . S
O54 C52 1.267 . S
O55 Zn41 1.965 . S
O55 C59 1.260 . S
O56 Zn40 1.969 . S
O56 C59 1.258 . S
O57 Zn41 2.024 . S
O57 C44 1.058 . S
C58 O47 1.260 . S
C58 O48 1.258 . S
C59 O55 1.260 . S
C59 O56 1.258 . S
C60 C61 1.384 . S
C60 H73 0.947 . S
C60 C95 1.382 . S
C61 C60 1.384 . S
C61 C62 1.378 . S
C62 C61 1.378 . S
C62 C63 1.378 . S
C62 H74 0.952 . S
C63 C62 1.378 . S
C63 H75 0.950 . S
C63 C94 1.383 . S
H64 C83 0.947 . S
H65 C84 0.946 . S
H66 C86 0.953 . S
H67 C87 0.945 . S
H68 C89 0.952 . S
H69 C90 0.949 . S
H70 C92 0.950 1_565 S
H71 C93 0.937 1_565 S
H72 C95 0.951 . S
H73 C60 0.947 . S
H74 C62 0.952 . S
H75 C63 0.950 . S
N76 C79 1.382 . S
N76 C81 1.363 . S
N77 C79 1.371 . S
N77 C80 1.372 . S
N78 C80 1.361 . S
N78 C81 1.377 . S
C79 N76 1.382 . S
C79 N77 1.371 . S
C79 C82 1.480 . S
C80 N77 1.372 . S
C80 N78 1.361 . S
C80 C88 1.457 . S
C81 N76 1.363 . S
C81 N78 1.377 . S
C81 C94 1.479 1_545 S
C82 C79 1.480 . S
C82 C83 1.383 . S
C82 C87 1.385 . S
C83 H64 0.947 . S
C83 C82 1.383 . S
C83 C84 1.388 . S
C84 H65 0.946 . S
C84 C83 1.388 . S
C84 C85 1.384 . S
C85 C84 1.384 . S
C85 C86 1.377 . S
C86 H66 0.953 . S
C86 C85 1.377 . S
C86 C87 1.369 . S
C87 H67 0.945 . S
C87 C82 1.385 . S
C87 C86 1.369 . S
C88 C80 1.457 . S
C88 C89 1.372 . S
C88 C93 1.377 . S
C89 H68 0.952 . S
C89 C88 1.372 . S
C89 C90 1.389 . S
C90 H69 0.949 . S
C90 C89 1.389 . S
C90 C91 1.387 . S
C91 C90 1.387 . S
C91 C92 1.372 . S
C92 H70 0.950 1_545 S
C92 C91 1.372 . S
C92 C93 1.378 . S
C93 H71 0.937 1_545 S
C93 C88 1.377 . S
C93 C92 1.378 . S
C94 C63 1.383 . S
C94 C81 1.479 1_565 S
C94 C95 1.398 . S
C95 C60 1.382 . S
C95 H72 0.951 . S
C95 C94 1.398 . S
C96 C97 1.384 . S
C96 H109 0.947 . S
C96 C131 1.382 . S
C97 C96 1.384 . S
C97 C98 1.378 . S
C98 C97 1.378 . S
C98 C99 1.378 . S
C98 H110 0.952 . S
C99 C98 1.378 . S
C99 H111 0.950 . S
C99 C130 1.383 . S
H100 C119 0.947 . S
H101 C120 0.946 . S
H102 C122 0.953 . S
H103 C123 0.945 . S
H104 C125 0.952 . S
H105 C126 0.949 . S
H106 C128 0.950 . S
H107 C129 0.948 . S
H108 C131 0.951 . S
H109 C96 0.947 . S
H110 C98 0.952 . S
H111 C99 0.950 . S
N112 C115 1.382 . S
N112 C117 1.363 . S
N113 C115 1.371 . S
N113 C116 1.372 . S
N114 C116 1.361 . S
N114 C117 1.377 . S
C115 N112 1.382 . S
C115 N113 1.371 . S
C115 C118 1.480 . S
C116 N113 1.372 . S
C116 N114 1.361 . S
C116 C124 1.457 . S
C117 N112 1.363 . S
C117 N114 1.377 . S
C117 C130 1.479 . S
C118 C115 1.480 . S
C118 C119 1.383 . S
C118 C123 1.385 . S
C119 H100 0.947 . S
C119 C118 1.383 . S
C119 C120 1.388 . S
C120 H101 0.946 . S
C120 C119 1.388 . S
C120 C121 1.384 . S
C121 C120 1.384 . S
C121 C122 1.377 . S
C122 H102 0.953 . S
C122 C121 1.377 . S
C122 C123 1.369 . S
C123 H103 0.945 . S
C123 C118 1.385 . S
C123 C122 1.369 . S
C124 C116 1.457 . S
C124 C125 1.372 . S
C124 C129 1.364 . S
C125 H104 0.952 . S
C125 C124 1.372 . S
C125 C126 1.389 . S
C126 H105 0.949 . S
C126 C125 1.389 . S
C126 C127 1.387 . S
C127 C126 1.387 . S
C127 C128 1.372 . S
C128 H106 0.950 . S
C128 C127 1.372 . S
C128 C129 1.379 . S
C129 H107 0.948 . S
C129 C124 1.364 . S
C129 C128 1.379 . S
C130 C99 1.383 . S
C130 C117 1.479 . S
C130 C131 1.398 . S
C131 C96 1.382 . S
C131 H108 0.951 . S
C131 C130 1.398 . S
C132 C133 1.384 . S
C132 H145 0.947 . S
C132 C167 1.382 . S
C133 C132 1.384 . S
C133 C134 1.378 . S
C134 C133 1.378 . S
C134 C135 1.378 . S
C134 H146 0.952 . S
C135 C134 1.378 . S
C135 H147 0.950 . S
C135 C166 1.383 . S
H136 C155 0.947 . S
H137 C156 0.946 . S
H138 C158 0.953 . S
H139 C159 0.945 . S
H140 C161 0.952 . S
H141 C162 0.949 . S
H142 C164 0.950 1_655 S
H143 C165 0.948 1_655 S
H144 C167 0.951 . S
H145 C132 0.947 . S
H146 C134 0.952 . S
H147 C135 0.950 . S
N148 C151 1.382 . S
N148 C153 1.363 . S
N149 C151 1.371 . S
N149 C152 1.372 . S
N150 C152 1.361 . S
N150 C153 1.377 . S
C151 N148 1.382 . S
C151 N149 1.371 . S
C151 C154 1.480 . S
C152 N149 1.372 . S
C152 N150 1.361 . S
C152 C160 1.457 . S
C153 N148 1.363 . S
C153 N150 1.377 . S
C153 C166 1.479 1_455 S
C154 C151 1.480 . S
C154 C155 1.383 . S
C154 C159 1.385 . S
C155 H136 0.947 . S
C155 C154 1.383 . S
C155 C156 1.388 . S
C156 H137 0.946 . S
C156 C155 1.388 . S
C156 C157 1.384 . S
C157 C156 1.384 . S
C157 C158 1.377 . S
C158 H138 0.953 . S
C158 C157 1.377 . S
C158 C159 1.369 . S
C159 H139 0.945 . S
C159 C154 1.385 . S
C159 C158 1.369 . S
C160 C152 1.457 . S
C160 C161 1.372 . S
C160 C165 1.364 . S
C161 H140 0.952 . S
C161 C160 1.372 . S
C161 C162 1.389 . S
C162 H141 0.949 . S
C162 C161 1.389 . S
C162 C163 1.387 . S
C163 C162 1.387 . S
C163 C164 1.372 . S
C164 H142 0.950 1_455 S
C164 C163 1.372 . S
C164 C165 1.379 . S
C165 H143 0.948 1_455 S
C165 C160 1.364 . S
C165 C164 1.379 . S
C166 C135 1.383 . S
C166 C153 1.479 1_655 S
C166 C167 1.398 . S
C167 C132 1.382 . S
C167 H144 0.951 . S
C167 C166 1.398 . S
C168 C169 1.384 . S
C168 H181 0.947 . S
C168 C203 1.382 . S
C169 C168 1.384 . S
C169 C170 1.378 . S
C170 C169 1.378 . S
C170 C171 1.378 . S
C170 H182 0.952 . S
C171 C170 1.378 . S
C171 H183 0.950 . S
C171 C202 1.383 . S
H172 C191 0.947 . S
H173 C192 0.946 . S
H174 C194 0.953 . S
H175 C195 0.945 . S
H176 C197 0.952 . S
H177 C198 0.949 . S
H178 C200 0.950 . S
H179 C201 0.948 . S
H180 C203 0.951 . S
H181 C168 0.947 . S
H182 C170 0.952 . S
H183 C171 0.950 . S
N184 C187 1.382 . S
N184 C189 1.363 . S
N185 C187 1.367 1_655 S
N185 C188 1.359 1_655 S
N186 C188 1.361 . S
N186 C189 1.377 . S
C187 N184 1.382 . S
C187 N185 1.367 1_455 S
C187 C190 1.480 1_455 S
C188 N185 1.359 1_455 S
C188 N186 1.361 . S
C188 C196 1.457 . S
C189 N184 1.363 . S
C189 N186 1.377 . S
C189 C202 1.479 . S
C190 C187 1.480 1_655 S
C190 C191 1.383 . S
C190 C195 1.385 . S
C191 H172 0.947 . S
C191 C190 1.383 . S
C191 C192 1.388 . S
C192 H173 0.946 . S
C192 C191 1.388 . S
C192 C193 1.384 . S
C193 C192 1.384 . S
C193 C194 1.377 . S
C194 H174 0.953 . S
C194 C193 1.377 . S
C194 C195 1.369 . S
C195 H175 0.945 . S
C195 C190 1.385 . S
C195 C194 1.369 . S
C196 C188 1.457 . S
C196 C197 1.372 1_455 S
C196 C201 1.364 . S
C197 H176 0.952 . S
C197 C196 1.372 1_655 S
C197 C198 1.389 . S
C198 H177 0.949 . S
C198 C197 1.389 . S
C198 C199 1.387 1_655 S
C199 C198 1.387 1_455 S
C199 C200 1.372 . S
C200 H178 0.950 . S
C200 C199 1.372 . S
C200 C201 1.379 . S
C201 H179 0.948 . S
C201 C196 1.364 . S
C201 C200 1.379 . S
C202 C171 1.383 . S
C202 C189 1.479 . S
C202 C203 1.398 . S
C203 C168 1.382 . S
C203 H180 0.951 . S
C203 C202 1.398 . S
C204 C205 1.384 . S
C204 H217 0.947 . S
C204 C239 1.382 . S
C205 C204 1.384 . S
C205 C206 1.378 . S
C206 C205 1.378 . S
C206 C207 1.378 . S
C206 H218 0.952 . S
C207 C206 1.378 . S
C207 H219 0.950 . S
C207 C238 1.383 . S
H208 C227 0.947 . S
H209 C228 0.946 . S
H210 C230 0.953 . S
H211 C231 0.945 . S
H212 C233 0.952 . S
H213 C234 0.949 . S
H214 C236 0.950 . S
H215 C237 0.948 . S
H216 C239 0.951 . S
H217 C204 0.947 . S
H218 C206 0.952 . S
H219 C207 0.950 . S
N220 C223 1.413 . S
N220 C225 1.363 . S
N221 C223 1.370 1_565 S
N221 C224 1.372 1_565 S
N222 C224 1.361 . S
N222 C225 1.377 . S
C223 N220 1.413 . S
C223 N221 1.370 1_545 S
C223 C226 1.449 1_545 S
C224 N221 1.372 1_545 S
C224 N222 1.361 . S
C224 C232 1.457 . S
C225 N220 1.363 . S
C225 N222 1.377 . S
C225 C238 1.479 . S
C226 C223 1.449 1_565 S
C226 C227 1.383 . S
C226 C231 1.385 . S
C227 H208 0.947 . S
C227 C226 1.383 . S
C227 C228 1.388 . S
C228 H209 0.946 . S
C228 C227 1.388 . S
C228 C229 1.384 . S
C229 C228 1.384 . S
C229 C230 1.377 . S
C230 H210 0.953 . S
C230 C229 1.377 . S
C230 C231 1.369 . S
C231 H211 0.945 . S
C231 C226 1.385 . S
C231 C230 1.369 . S
C232 C224 1.457 . S
C232 C233 1.372 1_545 S
C232 C237 1.364 . S
C233 H212 0.952 . S
C233 C232 1.372 1_565 S
C233 C234 1.389 . S
C234 H213 0.949 . S
C234 C233 1.389 . S
C234 C235 1.387 1_565 S
C235 C234 1.387 1_545 S
C235 C236 1.372 . S
C236 H214 0.950 . S
C236 C235 1.372 . S
C236 C237 1.379 . S
C237 H215 0.948 . S
C237 C232 1.364 . S
C237 C236 1.379 . S
C238 C207 1.383 . S
C238 C225 1.479 . S
C238 C239 1.398 . S
C239 C204 1.382 . S
C239 H216 0.951 . S
C239 C238 1.398 . S
C240 C241 1.384 . S
C240 H253 0.947 . S
C240 C275 1.382 . S
C241 C240 1.384 . S
C241 C242 1.378 . S
C242 C241 1.378 . S
C242 C243 1.378 . S
C242 H254 0.952 . S
C243 C242 1.378 . S
C243 H255 0.950 . S
C243 C274 1.383 . S
H244 C263 0.947 . S
H245 C264 0.946 . S
H246 C266 0.953 . S
H247 C267 0.945 . S
H248 C269 0.952 . S
H249 C270 0.949 . S
H250 C272 0.950 . S
H251 C273 0.948 . S
H252 C275 0.951 . S
H253 C240 0.947 . S
H254 C242 0.952 . S
H255 C243 0.950 . S
N256 C259 1.382 . S
N256 C261 1.363 . S
N257 C259 1.371 . S
N257 C260 1.372 . S
N258 C260 1.361 . S
N258 C261 1.377 . S
C259 N256 1.382 . S
C259 N257 1.371 . S
C259 C262 1.480 . S
C260 N257 1.372 . S
C260 N258 1.361 . S
C260 C268 1.457 . S
C261 N256 1.363 . S
C261 N258 1.377 . S
C261 C274 1.479 . S
C262 C259 1.480 . S
C262 C263 1.383 . S
C262 C267 1.385 . S
C263 H244 0.947 . S
C263 C262 1.383 . S
C263 C264 1.388 . S
C264 H245 0.946 . S
C264 C263 1.388 . S
C264 C265 1.384 . S
C265 C264 1.384 . S
C265 C266 1.377 . S
C266 H246 0.953 . S
C266 C265 1.377 . S
C266 C267 1.369 . S
C267 H247 0.945 . S
C267 C262 1.385 . S
C267 C266 1.369 . S
C268 C260 1.457 . S
C268 C269 1.372 . S
C268 C273 1.364 . S
C269 H248 0.952 . S
C269 C268 1.372 . S
C269 C270 1.389 . S
C270 H249 0.949 . S
C270 C269 1.389 . S
C270 C271 1.387 . S
C271 C270 1.387 . S
C271 C272 1.372 . S
C272 H250 0.950 . S
C272 C271 1.372 . S
C272 C273 1.379 . S
C273 H251 0.948 . S
C273 C268 1.364 . S
C273 C272 1.379 . S
C274 C243 1.383 . S
C274 C261 1.479 . S
C274 C275 1.398 . S
C275 C240 1.382 . S
C275 H252 0.951 . S
C275 C274 1.398 . S
H276 C284 0.929 . S
H277 C286 0.930 . S
H278 C288 0.930 . S
H279 C291 0.929 . S
H280 C294 0.930 . S
H281 C296 0.960 . S
H282 C296 0.960 . S
H283 C296 0.960 . S
C284 H276 0.929 . S
C284 C285 1.377 . S
C284 C286 1.384 . S
C285 C284 1.377 . S
C285 C291 1.390 . S
C286 H277 0.930 . S
C286 C284 1.384 . S
C286 C287 1.372 . S
C287 C286 1.372 . S
C287 C288 1.400 . S
C287 C292 1.490 . S
C288 H278 0.930 . S
C288 C287 1.400 . S
C288 C291 1.386 . S
H289 C305 0.930 . S
H290 C306 0.931 . S
C291 H279 0.929 . S
C291 C285 1.390 . S
C291 C288 1.386 . S
C292 C287 1.490 . S
C292 C294 1.395 . S
C292 C295 1.403 . S
H293 C299 0.930 . S
C294 H280 0.930 . S
C294 C292 1.395 . S
C294 C297 1.403 . S
C295 C292 1.403 . S
C295 C296 1.524 . S
C295 C299 1.400 . S
C296 H281 0.960 . S
C296 H282 0.960 . S
C296 H283 0.960 . S
C296 C295 1.524 . S
C297 C294 1.403 . S
C297 C298 1.392 . S
C297 C301 1.495 . S
C298 C297 1.392 . S
C298 C299 1.385 . S
C298 C300 1.478 . S
C299 H293 0.930 . S
C299 C295 1.400 . S
C299 C298 1.385 . S
C300 C298 1.478 . S
C300 C302 1.381 . S
C300 C306 1.383 . S
C301 C297 1.495 . S
C301 H307 0.959 . S
C301 H308 0.961 . S
C301 H309 0.960 . S
C302 C300 1.381 . S
C302 C303 1.394 . S
C302 H310 0.930 . S
C303 C302 1.394 . S
C303 C304 1.383 . S
C303 H311 0.929 . S
C304 C303 1.383 . S
C304 C305 1.377 . S
C305 H289 0.930 . S
C305 C304 1.377 . S
C305 C306 1.379 . S
C306 H290 0.931 . S
C306 C300 1.383 . S
C306 C305 1.379 . S
H307 C301 0.959 . S
H308 C301 0.961 . S
H309 C301 0.960 . S
H310 C302 0.930 . S
H311 C303 0.929 . S
H312 C320 0.929 . S
H313 C322 0.930 . S
H314 C324 0.930 . S
H315 C327 0.929 . S
H316 C330 0.930 . S
H317 C332 0.960 . S
H318 C332 0.960 . S
H319 C332 0.960 . S
C320 H312 0.929 . S
C320 C321 1.377 . S
C320 C322 1.384 . S
C321 C320 1.377 . S
C321 C327 1.390 . S
C322 H313 0.930 . S
C322 C320 1.384 . S
C322 C323 1.372 . S
C323 C322 1.372 . S
C323 C324 1.400 . S
C323 C328 1.490 . S
C324 H314 0.930 . S
C324 C323 1.400 . S
C324 C327 1.386 . S
H325 C341 0.930 . S
H326 C342 0.931 . S
C327 H315 0.929 . S
C327 C321 1.390 . S
C327 C324 1.386 . S
C328 C323 1.490 . S
C328 C330 1.395 . S
C328 C331 1.403 . S
H329 C335 0.930 . S
C330 H316 0.930 . S
C330 C328 1.395 . S
C330 C333 1.403 . S
C331 C328 1.403 . S
C331 C332 1.524 . S
C331 C335 1.400 . S
C332 H317 0.960 . S
C332 H318 0.960 . S
C332 H319 0.960 . S
C332 C331 1.524 . S
C333 C330 1.403 . S
C333 C334 1.392 . S
C333 C337 1.495 . S
C334 C333 1.392 . S
C334 C335 1.385 . S
C334 C336 1.478 . S
C335 H329 0.930 . S
C335 C331 1.400 . S
C335 C334 1.385 . S
C336 C334 1.478 . S
C336 C338 1.381 . S
C336 C342 1.383 . S
C337 C333 1.495 . S
C337 H343 0.959 . S
C337 H344 0.961 . S
C337 H345 0.960 . S
C338 C336 1.381 . S
C338 C339 1.394 . S
C338 H346 0.930 . S
C339 C338 1.394 . S
C339 C340 1.383 . S
C339 H347 0.929 . S
C340 C339 1.383 . S
C340 C341 1.377 . S
C341 H325 0.930 . S
C341 C340 1.377 . S
C341 C342 1.379 . S
C342 H326 0.931 . S
C342 C336 1.383 . S
C342 C341 1.379 . S
H343 C337 0.959 . S
H344 C337 0.961 . S
H345 C337 0.960 . S
H346 C338 0.930 . S
H347 C339 0.929 . S
H348 C356 0.929 . S
H349 C358 0.930 . S
H350 C360 0.930 . S
H351 C363 0.929 . S
H352 C366 0.930 . S
H353 C368 0.960 . S
H354 C368 0.960 . S
H355 C368 0.960 . S
C356 H348 0.929 . S
C356 C357 1.377 . S
C356 C358 1.384 . S
C357 C356 1.377 . S
C357 C363 1.390 . S
C358 H349 0.930 . S
C358 C356 1.384 . S
C358 C359 1.372 . S
C359 C358 1.372 . S
C359 C360 1.400 . S
C359 C364 1.490 . S
C360 H350 0.930 . S
C360 C359 1.400 . S
C360 C363 1.386 . S
H361 C377 0.930 . S
H362 C378 0.931 . S
C363 H351 0.929 . S
C363 C357 1.390 . S
C363 C360 1.386 . S
C364 C359 1.490 . S
C364 C366 1.395 . S
C364 C367 1.403 . S
H365 C371 0.930 . S
C366 H352 0.930 . S
C366 C364 1.395 . S
C366 C369 1.403 . S
C367 C364 1.403 . S
C367 C368 1.524 . S
C367 C371 1.400 . S
C368 H353 0.960 . S
C368 H354 0.960 . S
C368 H355 0.960 . S
C368 C367 1.524 . S
C369 C366 1.403 . S
C369 C370 1.392 . S
C369 C373 1.495 . S
C370 C369 1.392 . S
C370 C371 1.385 . S
C370 C372 1.478 . S
C371 H365 0.930 . S
C371 C367 1.400 . S
C371 C370 1.385 . S
C372 C370 1.478 . S
C372 C374 1.381 . S
C372 C378 1.383 . S
C373 C369 1.495 . S
C373 H379 0.959 . S
C373 H380 0.961 . S
C373 H381 0.960 . S
C374 C372 1.381 . S
C374 C375 1.394 . S
C374 H382 0.930 . S
C375 C374 1.394 . S
C375 C376 1.383 . S
C375 H383 0.929 . S
C376 C375 1.383 . S
C376 C377 1.377 . S
C377 H361 0.930 . S
C377 C376 1.377 . S
C377 C378 1.379 . S
C378 H362 0.931 . S
C378 C372 1.383 . S
C378 C377 1.379 . S
H379 C373 0.959 . S
H380 C373 0.961 . S
H381 C373 0.960 . S
H382 C374 0.930 . S
H383 C375 0.929 . S
H384 C392 0.929 . S
H385 C394 0.930 . S
H386 C396 0.930 . S
H387 C399 0.929 . S
H388 C402 0.930 . S
H389 C404 0.960 . S
H390 C404 0.960 . S
H391 C404 0.960 . S
C392 H384 0.929 . S
C392 C393 1.377 . S
C392 C394 1.384 . S
C393 C392 1.377 . S
C393 C399 1.390 . S
C394 H385 0.930 . S
C394 C392 1.384 . S
C394 C395 1.372 . S
C395 C394 1.372 . S
C395 C396 1.400 . S
C395 C400 1.490 . S
C396 H386 0.930 . S
C396 C395 1.400 . S
C396 C399 1.386 . S
H397 C413 0.930 . S
H398 C414 0.931 . S
C399 H387 0.929 . S
C399 C393 1.390 . S
C399 C396 1.386 . S
C400 C395 1.490 . S
C400 C402 1.395 . S
C400 C403 1.403 . S
H401 C407 0.930 . S
C402 H388 0.930 . S
C402 C400 1.395 . S
C402 C405 1.403 . S
C403 C400 1.403 . S
C403 C404 1.524 . S
C403 C407 1.400 . S
C404 H389 0.960 . S
C404 H390 0.960 . S
C404 H391 0.960 . S
C404 C403 1.524 . S
C405 C402 1.403 . S
C405 C406 1.392 . S
C405 C409 1.495 . S
C406 C405 1.392 . S
C406 C407 1.385 . S
C406 C408 1.478 . S
C407 H401 0.930 . S
C407 C403 1.400 . S
C407 C406 1.385 . S
C408 C406 1.478 . S
C408 C410 1.381 . S
C408 C414 1.383 . S
C409 C405 1.495 . S
C409 H415 0.959 . S
C409 H416 0.961 . S
C409 H417 0.960 . S
C410 C408 1.381 . S
C410 C411 1.394 . S
C410 H418 0.930 . S
C411 C410 1.394 . S
C411 C412 1.383 . S
C411 H419 0.929 . S
C412 C411 1.383 . S
C412 C413 1.377 . S
C413 H397 0.930 . S
C413 C412 1.377 . S
C413 C414 1.379 . S
C414 H398 0.931 . S
C414 C408 1.383 . S
C414 C413 1.379 . S
H415 C409 0.959 . S
H416 C409 0.961 . S
H417 C409 0.960 . S
H418 C410 0.930 . S
H419 C411 0.929 . S
H420 C428 0.929 . S
H421 C430 0.930 . S
H422 C432 0.930 . S
H423 C435 0.929 . S
H424 C438 0.930 . S
H425 C440 0.960 . S
H426 C440 0.960 . S
H427 C440 0.960 . S
C428 H420 0.929 . S
C428 C429 1.377 . S
C428 C430 1.384 . S
C429 C428 1.377 . S
C429 C435 1.390 . S
C430 H421 0.930 . S
C430 C428 1.384 . S
C430 C431 1.372 . S
C431 C430 1.372 . S
C431 C432 1.400 . S
C431 C436 1.490 . S
C432 H422 0.930 . S
C432 C431 1.400 . S
C432 C435 1.386 . S
H433 C449 0.930 . S
H434 C450 0.931 . S
C435 H423 0.929 . S
C435 C429 1.390 . S
C435 C432 1.386 . S
C436 C431 1.490 . S
C436 C438 1.395 . S
C436 C439 1.403 . S
H437 C443 0.930 . S
C438 H424 0.930 . S
C438 C436 1.395 . S
C438 C441 1.403 . S
C439 C436 1.403 . S
C439 C440 1.524 . S
C439 C443 1.400 . S
C440 H425 0.960 . S
C440 H426 0.960 . S
C440 H427 0.960 . S
C440 C439 1.524 . S
C441 C438 1.403 . S
C441 C442 1.392 . S
C441 C445 1.495 . S
C442 C441 1.392 . S
C442 C443 1.385 . S
C442 C444 1.478 . S
C443 H437 0.930 . S
C443 C439 1.400 . S
C443 C442 1.385 . S
C444 C442 1.478 . S
C444 C446 1.381 . S
C444 C450 1.383 . S
C445 C441 1.495 . S
C445 H451 0.959 . S
C445 H452 0.961 . S
C445 H453 0.960 . S
C446 C444 1.381 . S
C446 C447 1.394 . S
C446 H454 0.930 . S
C447 C446 1.394 . S
C447 C448 1.383 . S
C447 H455 0.929 . S
C448 C447 1.383 . S
C448 C449 1.377 . S
C449 H433 0.930 . S
C449 C448 1.377 . S
C449 C450 1.379 . S
C450 H434 0.931 . S
C450 C444 1.383 . S
C450 C449 1.379 . S
H451 C445 0.959 . S
H452 C445 0.961 . S
H453 C445 0.960 . S
H454 C446 0.930 . S
H455 C447 0.929 . S
H456 C464 0.929 . S
H457 C466 0.930 . S
H458 C468 0.930 . S
H459 C471 0.929 . S
H460 C474 0.930 . S
H461 C476 0.960 . S
H462 C476 0.960 . S
H463 C476 0.960 . S
C464 H456 0.929 . S
C464 C465 1.377 . S
C464 C466 1.384 . S
C465 C464 1.377 . S
C465 C471 1.390 . S
C466 H457 0.930 . S
C466 C464 1.384 . S
C466 C467 1.372 . S
C467 C466 1.372 . S
C467 C468 1.400 . S
C467 C472 1.490 . S
C468 H458 0.930 . S
C468 C467 1.400 . S
C468 C471 1.386 . S
H469 C485 0.930 . S
H470 C486 0.931 . S
C471 H459 0.929 . S
C471 C465 1.390 . S
C471 C468 1.386 . S
C472 C467 1.490 . S
C472 C474 1.395 . S
C472 C475 1.403 . S
H473 C479 0.930 . S
C474 H460 0.930 . S
C474 C472 1.395 . S
C474 C477 1.403 . S
C475 C472 1.403 . S
C475 C476 1.524 . S
C475 C479 1.400 . S
C476 H461 0.960 . S
C476 H462 0.960 . S
C476 H463 0.960 . S
C476 C475 1.524 . S
C477 C474 1.403 . S
C477 C478 1.392 . S
C477 C481 1.495 . S
C478 C477 1.392 . S
C478 C479 1.385 . S
C478 C480 1.478 . S
C479 H473 0.930 . S
C479 C475 1.400 . S
C479 C478 1.385 . S
C480 C478 1.478 . S
C480 C482 1.381 . S
C480 C486 1.383 . S
C481 C477 1.495 . S
C481 H487 0.959 . S
C481 H488 0.961 . S
C481 H489 0.960 . S
C482 C480 1.381 . S
C482 C483 1.394 . S
C482 H490 0.930 . S
C483 C482 1.394 . S
C483 C484 1.383 . S
C483 H491 0.929 . S
C484 C483 1.383 . S
C484 C485 1.377 . S
C485 H469 0.930 . S
C485 C484 1.377 . S
C485 C486 1.379 . S
C486 H470 0.931 . S
C486 C480 1.383 . S
C486 C485 1.379 . S
H487 C481 0.959 . S
H488 C481 0.961 . S
H489 C481 0.960 . S
H490 C482 0.930 . S
H491 C483 0.929 . S
H492 C500 0.929 . S
H493 C502 0.930 . S
H494 C504 0.930 . S
H495 C507 0.929 . S
H496 C510 0.930 . S
H497 C512 0.960 . S
H498 C512 0.960 . S
H499 C512 0.960 . S
C500 H492 0.929 . S
C500 C501 1.377 . S
C500 C502 1.384 . S
C501 C500 1.377 . S
C501 C507 1.390 . S
C502 H493 0.930 . S
C502 C500 1.384 . S
C502 C503 1.372 . S
C503 C502 1.372 . S
C503 C504 1.400 . S
C503 C508 1.490 . S
C504 H494 0.930 . S
C504 C503 1.400 . S
C504 C507 1.386 . S
H505 C521 0.930 . S
H506 C522 0.931 . S
C507 H495 0.929 . S
C507 C501 1.390 . S
C507 C504 1.386 . S
C508 C503 1.490 . S
C508 C510 1.395 . S
C508 C511 1.403 . S
H509 C515 0.930 . S
C510 H496 0.930 . S
C510 C508 1.395 . S
C510 C513 1.403 . S
C511 C508 1.403 . S
C511 C512 1.524 . S
C511 C515 1.400 . S
C512 H497 0.960 . S
C512 H498 0.960 . S
C512 H499 0.960 . S
C512 C511 1.524 . S
C513 C510 1.403 . S
C513 C514 1.392 . S
C513 C517 1.495 . S
C514 C513 1.392 . S
C514 C515 1.385 . S
C514 C516 1.478 . S
C515 H509 0.930 . S
C515 C511 1.400 . S
C515 C514 1.385 . S
C516 C514 1.478 . S
C516 C518 1.381 . S
C516 C522 1.383 . S
C517 C513 1.495 . S
C517 H523 0.959 . S
C517 H524 0.961 . S
C517 H525 0.960 . S
C518 C516 1.381 . S
C518 C519 1.394 . S
C518 H526 0.930 . S
C519 C518 1.394 . S
C519 C520 1.383 . S
C519 H527 0.929 . S
C520 C519 1.383 . S
C520 C521 1.377 . S
C521 H505 0.930 . S
C521 C520 1.377 . S
C521 C522 1.379 . S
C522 H506 0.931 . S
C522 C516 1.383 . S
C522 C521 1.379 . S
H523 C517 0.959 . S
H524 C517 0.961 . S
H525 C517 0.960 . S
H526 C518 0.930 . S
H527 C519 0.929 . S
H528 C536 0.929 . S
H529 C538 0.930 . S
H530 C540 0.930 . S
H531 C543 0.929 . S
H532 C546 0.930 . S
H533 C548 0.960 . S
H534 C548 0.960 . S
H535 C548 0.960 . S
C536 H528 0.929 . S
C536 C537 1.377 . S
C536 C538 1.384 . S
C537 C536 1.377 . S
C537 C543 1.390 . S
C538 H529 0.930 . S
C538 C536 1.384 . S
C538 C539 1.372 . S
C539 C538 1.372 . S
C539 C540 1.400 . S
C539 C544 1.490 . S
C540 H530 0.930 . S
C540 C539 1.400 . S
C540 C543 1.386 . S
H541 C557 0.930 . S
H542 C558 0.931 . S
C543 H531 0.929 . S
C543 C537 1.390 . S
C543 C540 1.386 . S
C544 C539 1.490 . S
C544 C546 1.395 . S
C544 C547 1.403 . S
H545 C551 0.930 . S
C546 H532 0.930 . S
C546 C544 1.395 . S
C546 C549 1.403 . S
C547 C544 1.403 . S
C547 C548 1.524 . S
C547 C551 1.400 . S
C548 H533 0.960 . S
C548 H534 0.960 . S
C548 H535 0.960 . S
C548 C547 1.524 . S
C549 C546 1.403 . S
C549 C550 1.392 . S
C549 C553 1.495 . S
C550 C549 1.392 . S
C550 C551 1.385 . S
C550 C552 1.478 . S
C551 H545 0.930 . S
C551 C547 1.400 . S
C551 C550 1.385 . S
C552 C550 1.478 . S
C552 C554 1.381 . S
C552 C558 1.383 . S
C553 C549 1.495 . S
C553 H559 0.959 . S
C553 H560 0.961 . S
C553 H561 0.960 . S
C554 C552 1.381 . S
C554 C555 1.394 . S
C554 H562 0.930 . S
C555 C554 1.394 . S
C555 C556 1.383 . S
C555 H563 0.929 . S
C556 C555 1.383 . S
C556 C557 1.377 . S
C557 H541 0.930 . S
C557 C556 1.377 . S
C557 C558 1.379 . S
C558 H542 0.931 . S
C558 C552 1.383 . S
C558 C557 1.379 . S
H559 C553 0.959 . S
H560 C553 0.961 . S
H561 C553 0.960 . S
H562 C554 0.930 . S
H563 C555 0.929 . S
H564 C572 0.929 . S
H565 C574 0.930 . S
H566 C576 0.930 . S
H567 C579 0.929 . S
H568 C582 0.930 . S
H569 C584 0.960 . S
H570 C584 0.960 . S
H571 C584 0.960 . S
C572 H564 0.929 . S
C572 C573 1.377 . S
C572 C574 1.384 . S
C573 C572 1.377 . S
C573 C579 1.390 . S
C574 H565 0.930 . S
C574 C572 1.384 . S
C574 C575 1.372 . S
C575 C574 1.372 . S
C575 C576 1.400 . S
C575 C580 1.490 . S
C576 H566 0.930 . S
C576 C575 1.400 . S
C576 C579 1.386 . S
H577 C593 0.930 . S
H578 C594 0.931 . S
C579 H567 0.929 . S
C579 C573 1.390 . S
C579 C576 1.386 . S
C580 C575 1.490 . S
C580 C582 1.395 . S
C580 C583 1.403 . S
H581 C587 0.930 . S
C582 H568 0.930 . S
C582 C580 1.395 . S
C582 C585 1.403 . S
C583 C580 1.403 . S
C583 C584 1.524 . S
C583 C587 1.400 . S
C584 H569 0.960 . S
C584 H570 0.960 . S
C584 H571 0.960 . S
C584 C583 1.524 . S
C585 C582 1.403 . S
C585 C586 1.392 . S
C585 C589 1.495 . S
C586 C585 1.392 . S
C586 C587 1.385 . S
C586 C588 1.478 . S
C587 H581 0.930 . S
C587 C583 1.400 . S
C587 C586 1.385 . S
C588 C586 1.478 . S
C588 C590 1.381 . S
C588 C594 1.383 . S
C589 C585 1.495 . S
C589 H595 0.959 . S
C589 H596 0.961 . S
C589 H597 0.960 . S
C590 C588 1.381 . S
C590 C591 1.394 . S
C590 H598 0.930 . S
C591 C590 1.394 . S
C591 C592 1.383 . S
C591 H599 0.929 . S
C592 C591 1.383 . S
C592 C593 1.377 . S
C593 H577 0.930 . S
C593 C592 1.377 . S
C593 C594 1.379 . S
C594 H578 0.931 . S
C594 C588 1.383 . S
C594 C593 1.379 . S
H595 C589 0.959 . S
H596 C589 0.961 . S
H597 C589 0.960 . S
H598 C590 0.930 . S
H599 C591 0.929 . S
H600 C608 0.929 . S
H601 C610 0.930 . S
H602 C612 0.930 . S
H603 C615 0.929 . S
H604 C618 0.930 . S
H605 C620 0.960 . S
H606 C620 0.960 . S
H607 C620 0.960 . S
C608 H600 0.929 . S
C608 C609 1.377 . S
C608 C610 1.384 . S
C609 C608 1.377 . S
C609 C615 1.390 . S
C610 H601 0.930 . S
C610 C608 1.384 . S
C610 C611 1.372 . S
C611 C610 1.372 . S
C611 C612 1.400 . S
C611 C616 1.490 . S
C612 H602 0.930 . S
C612 C611 1.400 . S
C612 C615 1.386 . S
H613 C629 0.930 . S
H614 C630 0.931 . S
C615 H603 0.929 . S
C615 C609 1.390 . S
C615 C612 1.386 . S
C616 C611 1.490 . S
C616 C618 1.395 . S
C616 C619 1.403 . S
H617 C623 0.930 . S
C618 H604 0.930 . S
C618 C616 1.395 . S
C618 C621 1.403 . S
C619 C616 1.403 . S
C619 C620 1.524 . S
C619 C623 1.400 . S
C620 H605 0.960 . S
C620 H606 0.960 . S
C620 H607 0.960 . S
C620 C619 1.524 . S
C621 C618 1.403 . S
C621 C622 1.392 . S
C621 C625 1.495 . S
C622 C621 1.392 . S
C622 C623 1.385 . S
C622 C624 1.478 . S
C623 H617 0.930 . S
C623 C619 1.400 . S
C623 C622 1.385 . S
C624 C622 1.478 . S
C624 C626 1.381 . S
C624 C630 1.383 . S
C625 C621 1.495 . S
C625 H631 0.959 . S
C625 H632 0.961 . S
C625 H633 0.960 . S
C626 C624 1.381 . S
C626 C627 1.394 . S
C626 H634 0.930 . S
C627 C626 1.394 . S
C627 C628 1.383 . S
C627 H635 0.929 . S
C628 C627 1.383 . S
C628 C629 1.377 . S
C629 H613 0.930 . S
C629 C628 1.377 . S
C629 C630 1.379 . S
C630 H614 0.931 . S
C630 C624 1.383 . S
C630 C629 1.379 . S
H631 C625 0.959 . S
H632 C625 0.961 . S
H633 C625 0.960 . S
H634 C626 0.930 . S
H635 C627 0.929 . S
H636 C644 0.929 . S
H637 C646 0.930 . S
H638 C648 0.930 . S
H639 C651 0.929 . S
H640 C654 0.930 . S
H641 C656 0.960 . S
H642 C656 0.960 . S
H643 C656 0.960 . S
C644 H636 0.929 . S
C644 C645 1.377 . S
C644 C646 1.384 . S
C645 C644 1.377 . S
C645 C651 1.390 . S
C646 H637 0.930 . S
C646 C644 1.384 . S
C646 C647 1.372 . S
C647 C646 1.372 . S
C647 C648 1.400 . S
C647 C652 1.490 . S
C648 H638 0.930 . S
C648 C647 1.400 . S
C648 C651 1.386 . S
H649 C665 0.930 . S
H650 C666 0.931 . S
C651 H639 0.929 . S
C651 C645 1.390 . S
C651 C648 1.386 . S
C652 C647 1.490 . S
C652 C654 1.395 . S
C652 C655 1.403 . S
H653 C659 0.930 . S
C654 H640 0.930 . S
C654 C652 1.395 . S
C654 C657 1.403 . S
C655 C652 1.403 . S
C655 C656 1.524 . S
C655 C659 1.400 . S
C656 H641 0.960 . S
C656 H642 0.960 . S
C656 H643 0.960 . S
C656 C655 1.524 . S
C657 C654 1.403 . S
C657 C658 1.392 . S
C657 C661 1.495 . S
C658 C657 1.392 . S
C658 C659 1.385 . S
C658 C660 1.478 . S
C659 H653 0.930 . S
C659 C655 1.400 . S
C659 C658 1.385 . S
C660 C658 1.478 . S
C660 C662 1.381 . S
C660 C666 1.383 . S
C661 C657 1.495 . S
C661 H667 0.959 . S
C661 H668 0.961 . S
C661 H669 0.960 . S
C662 C660 1.381 . S
C662 C663 1.394 . S
C662 H670 0.930 . S
C663 C662 1.394 . S
C663 C664 1.383 . S
C663 H671 0.929 . S
C664 C663 1.383 . S
C664 C665 1.377 . S
C665 H649 0.930 . S
C665 C664 1.377 . S
C665 C666 1.379 . S
C666 H650 0.931 . S
C666 C660 1.383 . S
C666 C665 1.379 . S
H667 C661 0.959 . S
H668 C661 0.961 . S
H669 C661 0.960 . S
H670 C662 0.930 . S
H671 C663 0.929 . S
H672 C680 0.929 . S
H673 C682 0.930 . S
H674 C684 0.930 . S
H675 C687 0.929 . S
H676 C690 0.930 . S
H677 C692 0.960 . S
H678 C692 0.960 . S
H679 C692 0.960 . S
C680 H672 0.929 . S
C680 C681 1.377 . S
C680 C682 1.384 . S
C681 C680 1.377 . S
C681 C687 1.390 . S
C682 H673 0.930 . S
C682 C680 1.384 . S
C682 C683 1.372 . S
C683 C682 1.372 . S
C683 C684 1.400 . S
C683 C688 1.490 . S
C684 H674 0.930 . S
C684 C683 1.400 . S
C684 C687 1.386 . S
H685 C701 0.930 . S
H686 C702 0.931 . S
C687 H675 0.929 . S
C687 C681 1.390 . S
C687 C684 1.386 . S
C688 C683 1.490 . S
C688 C690 1.395 . S
C688 C691 1.403 . S
H689 C695 0.930 . S
C690 H676 0.930 . S
C690 C688 1.395 . S
C690 C693 1.403 . S
C691 C688 1.403 . S
C691 C692 1.524 . S
C691 C695 1.400 . S
C692 H677 0.960 . S
C692 H678 0.960 . S
C692 H679 0.960 . S
C692 C691 1.524 . S
C693 C690 1.403 . S
C693 C694 1.392 . S
C693 C697 1.495 . S
C694 C693 1.392 . S
C694 C695 1.385 . S
C694 C696 1.478 . S
C695 H689 0.930 . S
C695 C691 1.400 . S
C695 C694 1.385 . S
C696 C694 1.478 . S
C696 C698 1.381 . S
C696 C702 1.383 . S
C697 C693 1.495 . S
C697 H703 0.959 . S
C697 H704 0.961 . S
C697 H705 0.960 . S
C698 C696 1.381 . S
C698 C699 1.394 . S
C698 H706 0.930 . S
C699 C698 1.394 . S
C699 C700 1.383 . S
C699 H707 0.929 . S
C700 C699 1.383 . S
C700 C701 1.377 . S
C701 H685 0.930 . S
C701 C700 1.377 . S
C701 C702 1.379 . S
C702 H686 0.931 . S
C702 C696 1.383 . S
C702 C701 1.379 . S
H703 C697 0.959 . S
H704 C697 0.961 . S
H705 C697 0.960 . S
H706 C698 0.930 . S
H707 C699 0.929 . S
H708 C716 0.929 . S
H709 C718 0.930 . S
H710 C720 0.930 . S
H711 C723 0.929 . S
H712 C726 0.930 . S
H713 C728 0.960 . S
H714 C728 0.960 . S
H715 C728 0.960 1_455 S
C716 H708 0.929 . S
C716 C717 1.377 1_655 S
C716 C718 1.384 . S
C717 C716 1.377 1_455 S
C717 C723 1.390 . S
C718 H709 0.930 . S
C718 C716 1.384 . S
C718 C719 1.372 1_655 S
C719 C718 1.372 1_455 S
C719 C720 1.400 . S
C719 C724 1.490 . S
C720 H710 0.930 . S
C720 C719 1.400 . S
C720 C723 1.386 . S
H721 C737 0.930 . S
H722 C738 0.931 . S
C723 H711 0.929 . S
C723 C717 1.390 . S
C723 C720 1.386 . S
C724 C719 1.490 . S
C724 C726 1.395 . S
C724 C727 1.403 . S
H725 C731 0.930 . S
C726 H712 0.930 . S
C726 C724 1.395 . S
C726 C729 1.403 . S
C727 C724 1.403 . S
C727 C728 1.524 1_455 S
C727 C731 1.400 . S
C728 H713 0.960 . S
C728 H714 0.960 . S
C728 H715 0.960 1_655 S
C728 C727 1.524 1_655 S
C729 C726 1.403 . S
C729 C730 1.392 . S
C729 C733 1.495 . S
C730 C729 1.392 . S
C730 C731 1.385 . S
C730 C732 1.478 . S
C731 H725 0.930 . S
C731 C727 1.400 . S
C731 C730 1.385 . S
C732 C730 1.478 . S
C732 C734 1.381 . S
C732 C738 1.383 . S
C733 C729 1.495 . S
C733 H739 0.959 . S
C733 H740 0.961 . S
C733 H741 0.960 . S
C734 C732 1.381 . S
C734 C735 1.394 1_554 S
C734 H742 0.930 1_455 S
C735 C734 1.394 1_556 S
C735 C736 1.383 . S
C735 H743 0.929 1_455 S
C736 C735 1.383 . S
C736 C737 1.377 . S
C737 H721 0.930 . S
C737 C736 1.377 . S
C737 C738 1.379 1_556 S
C738 H722 0.931 . S
C738 C732 1.383 . S
C738 C737 1.379 1_554 S
H739 C733 0.959 . S
H740 C733 0.961 . S
H741 C733 0.960 . S
H742 C734 0.930 1_655 S
H743 C735 0.929 1_655 S
H744 C752 0.929 . S
H745 C754 0.930 . S
H746 C756 0.930 1_565 S
H747 C759 0.929 1_565 S
H748 C762 0.930 . S
H749 C764 0.960 . S
H750 C764 0.960 . S
H751 C764 0.960 . S
C752 H744 0.929 . S
C752 C753 1.377 . S
C752 C754 1.384 . S
C753 C752 1.377 . S
C753 C759 1.390 . S
C754 H745 0.930 . S
C754 C752 1.384 . S
C754 C755 1.372 . S
C755 C754 1.372 . S
C755 C756 1.400 . S
C755 C760 1.490 . S
C756 H746 0.930 1_545 S
C756 C755 1.400 . S
C756 C759 1.386 . S
H757 C773 0.930 1_565 S
H758 C774 0.931 1_565 S
C759 H747 0.929 1_545 S
C759 C753 1.390 . S
C759 C756 1.386 . S
C760 C755 1.490 . S
C760 C762 1.395 . S
C760 C763 1.403 . S
H761 C767 0.930 . S
C762 H748 0.930 . S
C762 C760 1.395 . S
C762 C765 1.403 . S
C763 C760 1.403 . S
C763 C764 1.524 . S
C763 C767 1.400 . S
C764 H749 0.960 . S
C764 H750 0.960 . S
C764 H751 0.960 . S
C764 C763 1.524 . S
C765 C762 1.403 . S
C765 C766 1.392 . S
C765 C769 1.495 1_545 S
C766 C765 1.392 . S
C766 C767 1.385 . S
C766 C768 1.478 . S
C767 H761 0.930 . S
C767 C763 1.400 . S
C767 C766 1.385 . S
C768 C766 1.478 . S
C768 C770 1.381 . S
C768 C774 1.383 . S
C769 C765 1.495 1_565 S
C769 H775 0.959 . S
C769 H776 0.961 . S
C769 H777 0.960 1_565 S
C770 C768 1.381 . S
C770 C771 1.394 . S
C770 H778 0.930 . S
C771 C770 1.394 . S
C771 C772 1.383 . S
C771 H779 0.929 . S
C772 C771 1.383 . S
C772 C773 1.377 . S
C773 H757 0.930 1_545 S
C773 C772 1.377 . S
C773 C774 1.379 . S
C774 H758 0.931 1_545 S
C774 C768 1.383 . S
C774 C773 1.379 . S
H775 C769 0.959 . S
H776 C769 0.961 . S
H777 C769 0.960 1_545 S
H778 C770 0.930 . S
H779 C771 0.929 . S
H780 C788 0.929 . S
H781 C790 0.930 . S
H782 C792 0.930 . S
H783 C795 0.929 . S
H784 C798 0.930 . S
H785 C800 0.960 . S
H786 C800 0.960 . S
H787 C800 0.960 . S
C788 H780 0.929 . S
C788 C789 1.377 . S
C788 C790 1.384 . S
C789 C788 1.377 . S
C789 C795 1.390 . S
C790 H781 0.930 . S
C790 C788 1.384 . S
C790 C791 1.372 . S
C791 C790 1.372 . S
C791 C792 1.400 . S
C791 C796 1.490 . S
C792 H782 0.930 . S
C792 C791 1.400 . S
C792 C795 1.386 . S
H793 C809 0.930 . S
H794 C810 0.931 . S
C795 H783 0.929 . S
C795 C789 1.390 . S
C795 C792 1.386 . S
C796 C791 1.490 . S
C796 C798 1.395 . S
C796 C799 1.403 . S
H797 C803 0.930 . S
C798 H784 0.930 . S
C798 C796 1.395 . S
C798 C801 1.403 . S
C799 C796 1.403 . S
C799 C800 1.524 . S
C799 C803 1.400 . S
C800 H785 0.960 . S
C800 H786 0.960 . S
C800 H787 0.960 . S
C800 C799 1.524 . S
C801 C798 1.403 . S
C801 C802 1.392 . S
C801 C805 1.495 . S
C802 C801 1.392 . S
C802 C803 1.385 . S
C802 C804 1.478 . S
C803 H797 0.930 . S
C803 C799 1.400 . S
C803 C802 1.385 . S
C804 C802 1.478 . S
C804 C806 1.381 . S
C804 C810 1.383 . S
C805 C801 1.495 . S
C805 H811 0.959 . S
C805 H812 0.961 . S
C805 H813 0.960 . S
C806 C804 1.381 . S
C806 C807 1.394 . S
C806 H814 0.930 . S
C807 C806 1.394 . S
C807 C808 1.383 . S
C807 H815 0.929 . S
C808 C807 1.383 . S
C808 C809 1.377 . S
C809 H793 0.930 . S
C809 C808 1.377 . S
C809 C810 1.379 . S
C810 H794 0.931 . S
C810 C804 1.383 . S
C810 C809 1.379 . S
H811 C805 0.959 . S
H812 C805 0.961 . S
H813 C805 0.960 . S
H814 C806 0.930 . S
H815 C807 0.929 . S
H816 C824 0.929 . S
H817 C826 0.930 . S
H818 C828 0.930 . S
H819 C831 0.929 . S
H820 C834 0.930 . S
H821 C836 0.960 . S
H822 C836 0.960 . S
H823 C836 0.960 . S
C824 H816 0.929 . S
C824 C825 1.377 . S
C824 C826 1.384 . S
C825 C824 1.377 . S
C825 C831 1.390 1_545 S
C826 H817 0.930 . S
C826 C824 1.384 . S
C826 C827 1.372 . S
C827 C826 1.372 . S
C827 C828 1.400 1_545 S
C827 C832 1.490 . S
C828 H818 0.930 . S
C828 C827 1.400 1_565 S
C828 C831 1.386 . S
H829 C845 0.930 1_565 S
H830 C846 0.931 1_565 S
C831 H819 0.929 . S
C831 C825 1.390 1_565 S
C831 C828 1.386 . S
C832 C827 1.490 . S
C832 C834 1.395 . S
C832 C835 1.403 1_545 S
H833 C839 0.930 . S
C834 H820 0.930 . S
C834 C832 1.395 . S
C834 C837 1.403 . S
C835 C832 1.403 1_565 S
C835 C836 1.524 . S
C835 C839 1.400 . S
C836 H821 0.960 . S
C836 H822 0.960 . S
C836 H823 0.960 . S
C836 C835 1.524 . S
C837 C834 1.403 . S
C837 C838 1.392 . S
C837 C841 1.495 . S
C838 C837 1.392 . S
C838 C839 1.385 1_545 S
C838 C840 1.478 . S
C839 H833 0.930 . S
C839 C835 1.400 . S
C839 C838 1.385 1_565 S
C840 C838 1.478 . S
C840 C842 1.381 . S
C840 C846 1.383 . S
C841 C837 1.495 . S
C841 H847 0.959 . S
C841 H848 0.961 . S
C841 H849 0.960 . S
C842 C840 1.381 . S
C842 C843 1.394 . S
C842 H850 0.930 . S
C843 C842 1.394 . S
C843 C844 1.383 . S
C843 H851 0.929 . S
C844 C843 1.383 . S
C844 C845 1.377 . S
C845 H829 0.930 1_545 S
C845 C844 1.377 . S
C845 C846 1.379 . S
C846 H830 0.931 1_545 S
C846 C840 1.383 . S
C846 C845 1.379 . S
H847 C841 0.959 . S
H848 C841 0.961 . S
H849 C841 0.960 . S
H850 C842 0.930 . S
H851 C843 0.929 . S
H852 C860 0.929 . S
H853 C862 0.930 . S
H854 C864 0.930 . S
H855 C867 0.929 . S
H856 C870 0.930 . S
H857 C872 0.960 . S
H858 C872 0.960 . S
H859 C872 0.960 . S
C860 H852 0.929 . S
C860 C861 1.377 . S
C860 C862 1.384 . S
C861 C860 1.377 . S
C861 C867 1.390 . S
C862 H853 0.930 . S
C862 C860 1.384 . S
C862 C863 1.372 . S
C863 C862 1.372 . S
C863 C864 1.400 . S
C863 C868 1.490 . S
C864 H854 0.930 . S
C864 C863 1.400 . S
C864 C867 1.386 . S
H865 C881 0.930 . S
H866 C882 0.931 . S
C867 H855 0.929 . S
C867 C861 1.390 . S
C867 C864 1.386 . S
C868 C863 1.490 . S
C868 C870 1.395 . S
C868 C871 1.403 . S
H869 C875 0.930 . S
C870 H856 0.930 . S
C870 C868 1.395 . S
C870 C873 1.403 . S
C871 C868 1.403 . S
C871 C872 1.524 . S
C871 C875 1.400 . S
C872 H857 0.960 . S
C872 H858 0.960 . S
C872 H859 0.960 . S
C872 C871 1.524 . S
C873 C870 1.403 . S
C873 C874 1.392 . S
C873 C877 1.495 . S
C874 C873 1.392 . S
C874 C875 1.385 . S
C874 C876 1.478 . S
C875 H869 0.930 . S
C875 C871 1.400 . S
C875 C874 1.385 . S
C876 C874 1.478 . S
C876 C878 1.381 . S
C876 C882 1.383 . S
C877 C873 1.495 . S
C877 H883 0.959 . S
C877 H884 0.961 . S
C877 H885 0.960 . S
C878 C876 1.381 . S
C878 C879 1.394 1_556 S
C878 H886 0.930 . S
C879 C878 1.394 1_554 S
C879 C880 1.383 . S
C879 H887 0.929 . S
C880 C879 1.383 . S
C880 C881 1.377 . S
C881 H865 0.930 . S
C881 C880 1.377 . S
C881 C882 1.379 1_554 S
C882 H866 0.931 . S
C882 C876 1.383 . S
C882 C881 1.379 1_556 S
H883 C877 0.959 . S
H884 C877 0.961 . S
H885 C877 0.960 . S
H886 C878 0.930 . S
H887 C879 0.929 . S
H888 C896 0.929 . S
H889 C898 0.930 . S
H890 C900 0.930 . S
H891 C903 0.929 . S
H892 C906 0.930 . S
H893 C908 0.960 . S
H894 C908 0.960 . S
H895 C908 0.960 . S
C896 H888 0.929 . S
C896 C897 1.377 1_655 S
C896 C898 1.384 . S
C897 C896 1.377 1_455 S
C897 C903 1.390 . S
C898 H889 0.930 . S
C898 C896 1.384 . S
C898 C899 1.372 1_655 S
C899 C898 1.372 1_455 S
C899 C900 1.400 . S
C899 C904 1.490 . S
C900 H890 0.930 . S
C900 C899 1.400 . S
C900 C903 1.386 . S
H901 C917 0.930 . S
H902 C918 0.931 . S
C903 H891 0.929 . S
C903 C897 1.390 . S
C903 C900 1.386 . S
C904 C899 1.490 . S
C904 C906 1.395 . S
C904 C907 1.403 1_455 S
H905 C911 0.930 . S
C906 H892 0.930 . S
C906 C904 1.395 . S
C906 C909 1.403 . S
C907 C904 1.403 1_655 S
C907 C908 1.524 . S
C907 C911 1.400 . S
C908 H893 0.960 . S
C908 H894 0.960 . S
C908 H895 0.960 . S
C908 C907 1.524 . S
C909 C906 1.403 . S
C909 C910 1.392 . S
C909 C913 1.495 . S
C910 C909 1.392 . S
C910 C911 1.385 1_455 S
C910 C912 1.478 . S
C911 H905 0.930 . S
C911 C907 1.400 . S
C911 C910 1.385 1_655 S
C912 C910 1.478 . S
C912 C914 1.381 1_455 S
C912 C918 1.383 . S
C913 C909 1.495 . S
C913 H919 0.959 . S
C913 H920 0.961 . S
C913 H921 0.960 . S
C914 C912 1.381 1_655 S
C914 C915 1.394 . S
C914 H922 0.930 . S
C915 C914 1.394 . S
C915 C916 1.383 1_655 S
C915 H923 0.929 . S
C916 C915 1.383 1_455 S
C916 C917 1.377 . S
C917 H901 0.930 . S
C917 C916 1.377 . S
C917 C918 1.379 . S
C918 H902 0.931 . S
C918 C912 1.383 . S
C918 C917 1.379 . S
H919 C913 0.959 . S
H920 C913 0.961 . S
H921 C913 0.960 . S
H922 C914 0.930 . S
H923 C915 0.929 . S
C285 C2 1.278 . S
C304 C265 1.344 . S
C321 C22 1.242 . S
C340 C193 1.332 . S
C357 C44 1.314 . S
C376 C229 1.380 . S
C393 C4 1.488 . S
C412 C241 1.591 . S
C448 C169 1.611 . S
C429 C24 1.537 . S
C484 C205 1.511 . S
C465 C42 1.457 . S
C501 C32 1.264 . S
C520 C121 1.288 . S
C537 C49 1.202 . S
C556 C133 1.217 . S
C573 C9 1.190 . S
C592 C61 1.196 . S
C628 C97 1.187 . S
C609 C29 1.165 . S
C664 C157 1.198 . S
C645 C52 1.215 . S
C681 C12 1.206 . S
C700 C85 1.219 . S
C736 C163 1.437 . S
C717 C18 1.424 . S
C753 C38 1.423 . S
C772 C91 1.419 . S
C789 C58 1.418 . S
C808 C127 1.437 . S
C844 C235 1.487 . S
C825 C39 1.483 . S
C880 C271 1.481 . S
C861 C59 1.466 . S
C897 C19 1.468 . S
C916 C199 1.475 . S
