# Generated by pormake.
# Topology zzz, (3,6)-cn, num edge types: 1
# Building blocks:
#     Node 0, Type 0, BuildingBlock: QEWDON_clean_linker_0, # of connection points: 3
#     Node 1, Type 0, BuildingBlock: QEWDON_clean_linker_0, # of connection points: 3
#     Node 2, Type 0, BuildingBlock: QEWDON_clean_linker_0, # of connection points: 3
#     Node 3, Type 0, BuildingBlock: QEWDON_clean_linker_0, # of connection points: 3
#     Node 4, Type 0, BuildingBlock: QEWDON_clean_linker_0, # of connection points: 3
#     Node 5, Type 0, BuildingBlock: QEWDON_clean_linker_0, # of connection points: 3
#     Node 6, Type 0, BuildingBlock: QEWDON_clean_linker_0, # of connection points: 3
#     Node 7, Type 0, BuildingBlock: QEWDON_clean_linker_0, # of connection points: 3
#     Node 8, Type 1, BuildingBlock: HISSIN_clean_sbu_0, # of connection points: 6
#     Node 9, Type 1, BuildingBlock: HISSIN_clean_sbu_0, # of connection points: 6
#     Node 10, Type 1, BuildingBlock: HISSIN_clean_sbu_0, # of connection points: 6
#     Node 11, Type 1, BuildingBlock: HISSIN_clean_sbu_0, # of connection points: 6
#     Edge 12, Type (0, 1), BuildingBlock: MIFKUJ_clean_linker_0, # of connection points: 2
#     Edge 13, Type (0, 1), BuildingBlock: MIFKUJ_clean_linker_0, # of connection points: 2
#     Edge 14, Type (0, 1), BuildingBlock: MIFKUJ_clean_linker_0, # of connection points: 2
#     Edge 15, Type (0, 1), BuildingBlock: MIFKUJ_clean_linker_0, # of connection points: 2
#     Edge 16, Type (0, 1), BuildingBlock: MIFKUJ_clean_linker_0, # of connection points: 2
#     Edge 17, Type (0, 1), BuildingBlock: MIFKUJ_clean_linker_0, # of connection points: 2
#     Edge 18, Type (0, 1), BuildingBlock: MIFKUJ_clean_linker_0, # of connection points: 2
#     Edge 19, Type (0, 1), BuildingBlock: MIFKUJ_clean_linker_0, # of connection points: 2
#     Edge 20, Type (0, 1), BuildingBlock: MIFKUJ_clean_linker_0, # of connection points: 2
#     Edge 21, Type (0, 1), BuildingBlock: MIFKUJ_clean_linker_0, # of connection points: 2
#     Edge 22, Type (0, 1), BuildingBlock: MIFKUJ_clean_linker_0, # of connection points: 2
#     Edge 23, Type (0, 1), BuildingBlock: MIFKUJ_clean_linker_0, # of connection points: 2
#     Edge 24, Type (0, 1), BuildingBlock: MIFKUJ_clean_linker_0, # of connection points: 2
#     Edge 25, Type (0, 1), BuildingBlock: MIFKUJ_clean_linker_0, # of connection points: 2
#     Edge 26, Type (0, 1), BuildingBlock: MIFKUJ_clean_linker_0, # of connection points: 2
#     Edge 27, Type (0, 1), BuildingBlock: MIFKUJ_clean_linker_0, # of connection points: 2
#     Edge 28, Type (0, 1), BuildingBlock: MIFKUJ_clean_linker_0, # of connection points: 2
#     Edge 29, Type (0, 1), BuildingBlock: MIFKUJ_clean_linker_0, # of connection points: 2
#     Edge 30, Type (0, 1), BuildingBlock: MIFKUJ_clean_linker_0, # of connection points: 2
#     Edge 31, Type (0, 1), BuildingBlock: MIFKUJ_clean_linker_0, # of connection points: 2
#     Edge 32, Type (0, 1), BuildingBlock: MIFKUJ_clean_linker_0, # of connection points: 2
#     Edge 33, Type (0, 1), BuildingBlock: MIFKUJ_clean_linker_0, # of connection points: 2
#     Edge 34, Type (0, 1), BuildingBlock: MIFKUJ_clean_linker_0, # of connection points: 2
#     Edge 35, Type (0, 1), BuildingBlock: MIFKUJ_clean_linker_0, # of connection points: 2
# Relax obj value: 0.153
# Max RMSD: 0.182
# Mean RMSD: 0.061
data_MOF--net-zzz--node1-HISSIN_clean_sbu_0--node2-QEWDON_clean_linker_0--edge1-MIFKUJ_clean_linker_0
_symmetry_space_group_name_H-M    P1
_symmetry_Int_Tables_number       1
_symmetry_cell_setting            triclinic
loop_
_symmetry_equiv_pos_as_xyz
'x, y, z'
_cell_length_a     69.350398
_cell_length_b     69.39734
_cell_length_c     20.542909
_cell_angle_alpha  89.865221
_cell_angle_beta   91.914779
_cell_angle_gamma 90.296599
loop_
_atom_site_label
_atom_site_type_symbol
_atom_site_fract_x
_atom_site_fract_y
_atom_site_fract_z
_atom_type_partial_charge
H0 H 0.75618 0.54871 0.14838 0.0
C1 C 0.7664 0.54617 0.1883 0.0
C2 C 0.78595 0.54725 0.17507 0.0
C3 C 0.7603 0.54254 0.25206 0.0
H4 H 0.81497 0.54609 0.21358 0.0
C5 C 0.79983 0.54531 0.22528 0.0
C6 C 0.79463 0.54216 0.2897 0.0
C7 C 0.77477 0.54021 0.30274 0.0
C8 C 0.73896 0.5425 0.26501 0.0
H9 H 0.7708 0.53724 0.35223 0.0
C10 C 0.72477 0.5388 0.21466 0.0
C11 C 0.70488 0.54138 0.22486 0.0
C12 C 0.73247 0.5477 0.32677 0.0
H13 H 0.74248 0.55117 0.36653 0.0
C14 C 0.71281 0.54928 0.33795 0.0
H15 H 0.72902 0.53442 0.16682 0.0
C16 C 0.69915 0.54634 0.28756 0.0
H17 H 0.68403 0.54802 0.29773 0.0
H18 H 0.70813 0.55329 0.38578 0.0
H19 H 0.98808 0.75905 0.14312 0.0
C20 C 0.99197 0.76881 0.18243 0.0
C21 C 0.98626 0.78807 0.17639 0.0
C22 C 1.00242 0.76226 0.23824 0.0
H23 H 0.9866 0.81598 0.2218 0.0
C24 C 0.99037 0.80091 0.22754 0.0
C25 C 1.00065 0.7953 0.28393 0.0
C26 C 1.0071 0.77596 0.28864 0.0
C27 C 1.00749 0.74108 0.24416 0.0
H28 H 0.01556 0.77174 0.33146 0.0
C29 C 1.00948 0.72885 0.1887 0.0
C30 C 1.01283 0.70874 0.19583 0.0
C31 C 1.0092 0.73257 0.30632 0.0
H32 H 1.00722 0.7409 0.34999 0.0
C33 C 1.01276 0.71293 0.31358 0.0
H34 H 1.00872 0.73482 0.14003 0.0
C35 C 0.01445 0.70114 0.25929 0.0
H36 H 0.01662 0.68587 0.26728 0.0
H37 H 0.01383 0.70669 0.3619 0.0
H38 H 0.7815 0.98777 0.12312 0.0
C39 C 0.77169 0.99141 0.16101 0.0
C40 C 0.75278 0.98446 0.15507 0.0
C41 C 0.77794 1.00256 0.21484 0.0
H42 H 0.72516 0.98272 0.19839 0.0
C43 C 0.73982 0.98799 0.20439 0.0
C44 C 0.74489 0.99921 0.25896 0.0
C45 C 0.76406 1.00682 0.26349 0.0
C46 C 0.79916 1.00833 0.22086 0.0
H47 H 0.76808 0.01573 0.30495 0.0
C48 C 0.8114 1.01006 0.16578 0.0
C49 C 0.83171 0.01331 0.17372 0.0
C50 C 0.80782 1.01049 0.28324 0.0
H51 H 0.79954 1.00885 0.3266 0.0
C52 C 0.82757 0.01384 0.29139 0.0
H53 H 0.80526 1.00907 0.11685 0.0
C54 C 0.83935 0.01499 0.23787 0.0
H55 H 0.85469 0.0168 0.24743 0.0
H56 H 0.83393 0.01508 0.34006 0.0
H57 H 0.51795 0.78513 0.12016 0.0
C58 C 0.52164 0.77412 0.15569 0.0
C59 C 0.51569 0.7553 0.14218 0.0
C60 C 0.53189 0.77863 0.21416 0.0
H61 H 0.51385 0.7262 0.17671 0.0
C62 C 0.51887 0.74069 0.18796 0.0
C63 C 0.52827 0.74445 0.24792 0.0
C64 C 0.53534 0.76337 0.26022 0.0
C65 C 0.53784 0.79936 0.22714 0.0
H66 H 0.54314 0.76607 0.30576 0.0
C67 C 0.54014 0.813 0.17567 0.0
C68 C 0.54407 0.83272 0.18853 0.0
C69 C 0.54016 0.80605 0.29158 0.0
H70 H 0.53804 0.79662 0.33271 0.0
C71 C 0.54458 0.82534 0.30449 0.0
H72 H 0.5391 0.80847 0.12537 0.0
C73 C 0.54641 0.83855 0.25379 0.0
H74 H 0.54918 0.85351 0.26594 0.0
H75 H 0.54617 0.83019 0.35443 0.0
H76 H 0.28476 0.51232 0.13622 0.0
C77 C 0.27484 0.50835 0.09663 0.0
C78 C 0.25527 0.50625 0.10983 0.0
C79 C 0.28143 0.50647 0.03284 0.0
H80 H 0.22672 0.50131 0.06865 0.0
C81 C 0.24199 0.50207 0.05893 0.0
C82 C 0.24781 0.50069 0.99464 0.0
C83 C 0.26758 0.50281 0.98152 0.0
C84 C 0.30241 0.51009 0.02051 0.0
H85 H 0.27198 0.50169 0.93164 0.0
C86 C 0.31705 0.50612 0.06879 0.0
C87 C 0.33651 0.51153 0.06002 0.0
C88 C 0.30786 0.51892 0.96221 0.0
H89 H 0.29724 0.5227 0.92461 0.0
C90 C 0.32707 0.52384 0.95248 0.0
H91 H 0.31337 0.49879 0.11327 0.0
C92 C 0.34122 0.52039 1.0009 0.0
H93 H 0.3558 0.52516 0.99239 0.0
H94 H 0.33096 0.53086 0.90764 0.0
H95 H 0.05483 0.28087 0.14799 0.0
C96 C 0.05102 0.27095 0.10911 0.0
C97 C 0.05886 0.25243 0.11265 0.0
C98 C 0.03858 0.27647 0.05662 0.0
H99 H 0.06069 0.22479 0.06619 0.0
C100 C 0.05499 0.23929 0.06222 0.0
C101 C 0.04272 0.24387 0.00922 0.0
C102 C 0.03412 0.26237 0.00725 0.0
C103 C 0.03086 0.29692 0.05328 0.0
H104 H 0.02412 0.26558 0.96725 0.0
C105 C 0.02995 0.30909 0.10937 0.0
C106 C 0.0236 0.32847 0.10415 0.0
C107 C 0.02512 0.30488 0.99256 0.0
H108 H 0.02612 0.29679 0.94794 0.0
C109 C 0.01849 0.32377 0.98753 0.0
H110 H 0.03381 0.30367 0.15738 0.0
C111 C 0.01775 0.33544 0.04244 0.0
H112 H 1.01298 0.3502 0.03624 0.0
H113 H 0.01421 0.32956 0.94026 0.0
H114 H 0.27055 0.0356 0.19487 0.0
C115 C 0.28016 0.03372 0.15504 0.0
C116 C 0.29951 0.03018 0.17058 0.0
C117 C 0.27321 0.03461 0.09016 0.0
H118 H 0.32787 0.02636 0.13506 0.0
C119 C 0.31282 0.02857 0.12124 0.0
C120 C 0.30715 0.03011 0.05512 0.0
C121 C 0.2871 0.03308 0.03972 0.0
C122 C 0.25164 0.03768 0.0777 0.0
H123 H 0.28247 0.03366 0.98898 0.0
C124 C 0.23752 0.03301 0.12522 0.0
C125 C 0.21763 0.03749 0.11515 0.0
C126 C 0.24498 0.04639 0.01943 0.0
H127 H 0.25486 0.05067 0.98238 0.0
C128 C 0.22544 0.05044 0.0086 0.0
H129 H 0.2417 0.02562 0.16981 0.0
C130 C 0.21199 0.04621 0.05571 0.0
H131 H 0.1971 0.0502 0.04585 0.0
H132 H 0.2207 0.05733 0.96354 0.0
H133 H 0.53853 0.26466 0.17508 0.0
C134 C 0.53416 0.27557 0.13986 0.0
C135 C 0.54004 0.29456 0.15101 0.0
C136 C 0.52353 0.27055 0.08276 0.0
H137 H 0.54061 0.32347 0.11473 0.0
C138 C 0.53547 0.30893 0.1054 0.0
C139 C 0.52481 0.30477 0.04785 0.0
C140 C 0.51891 0.28541 0.03659 0.0
C141 C 0.51874 0.24964 0.07032 0.0
H142 H 0.51057 0.28206 0.99257 0.0
C143 C 0.5156 0.23636 0.12209 0.0
C144 C 0.51339 0.21629 0.11035 0.0
C145 C 0.51891 0.24246 0.00646 0.0
H146 H 0.52168 0.25185 0.96566 0.0
C147 C 0.51646 0.22284 0.99432 0.0
H148 H 0.5148 0.24164 0.17142 0.0
C149 C 0.51399 0.20989 0.04539 0.0
H150 H 0.51303 0.19473 0.03356 0.0
H151 H 0.51699 0.21754 0.94489 0.0
Eu152 Eu 1.00799 0.02748 0.57893 0.0
Eu153 Eu 0.03716 0.01496 0.69755 0.0
C154 C 0.02709 0.05926 0.67968 0.0
C155 C 0.9943 0.05725 0.43624 0.0
C156 C 1.01333 0.05718 0.41487 0.0
C157 C 0.99046 0.0898 0.39463 0.0
C158 C 0.02108 0.07347 0.38599 0.0
C159 C 0.98272 0.07344 0.42412 0.0
C160 C 1.00994 0.09021 0.37743 0.0
C161 C 0.98804 0.04224 0.48155 0.0
O162 O 1.00711 0.01728 0.74046 0.0
O163 O 0.98685 0.01535 0.65052 0.0
C164 C 0.9896 0.01522 0.71417 0.0
O165 O 1.0079 0.99519 0.56574 0.0
O166 O 0.0461 0.01888 0.79955 0.0
O167 O 0.05909 0.99643 0.74318 0.0
O168 O 0.02974 0.98639 0.6469 0.0
C169 C 0.01822 0.982 0.59662 0.0
O170 O 0.03813 0.03031 0.53644 0.0
O171 O 0.05893 0.02115 0.6202 0.0
O172 O 0.04133 0.04727 0.69158 0.0
O173 O 0.99689 0.02576 0.4784 0.0
O174 O 0.98656 0.04801 0.54143 0.0
O175 O 1.01152 0.05337 0.64704 0.0
C176 C 0.05051 0.9885 0.84865 0.0
C177 C 0.0309 0.98606 0.86184 0.0
C178 C 0.05759 0.95826 0.9034 0.0
C179 C 0.02459 0.96953 0.89342 0.0
C180 C 0.0639 0.97484 0.87158 0.0
C181 C 0.03777 0.9551 0.91219 0.0
C182 C 0.05626 1.00312 0.80128 0.0
C183 C 0.05577 0.02678 0.55959 0.0
H184 H 0.02268 0.04496 0.42405 0.0
H185 H 0.98142 0.10236 0.3876 0.0
H186 H 0.03618 0.07328 0.37425 0.0
H187 H 0.96806 0.07382 0.44069 0.0
H188 H 0.02023 0.9963 0.84407 0.0
H189 H 0.0681 0.94749 0.91827 0.0
H190 H 1.00923 0.96748 0.89875 0.0
H191 H 0.07906 0.97643 0.86145 0.0
Eu192 Eu 0.53411 0.03875 0.70088 0.0
Eu193 Eu 0.51606 1.01005 0.59275 0.0
C194 C 0.53217 0.99324 0.73041 0.0
C195 C 0.5736 0.06175 0.79347 0.0
C196 C 0.581 0.05935 0.85723 0.0
C197 C 0.60449 0.05241 0.75149 0.0
C198 C 0.59979 0.05263 0.86791 0.0
C199 C 0.58587 0.05936 0.7409 0.0
C200 C 0.6112 0.04809 0.81482 0.0
C201 C 0.55262 0.06163 0.78114 0.0
O202 O 0.48959 0.02172 0.64343 0.0
O203 O 0.50372 0.03389 0.73725 0.0
C204 C 0.48819 0.02828 0.70343 0.0
O205 O 0.51722 0.05802 0.63135 0.0
O206 O 0.50434 0.98186 0.56432 0.0
O207 O 0.50538 1.0047 0.49319 0.0
O208 O 0.51958 0.03896 0.54224 0.0
C209 C 0.51689 0.056 0.56792 0.0
O210 O 0.5581 0.03426 0.62836 0.0
O211 O 0.54843 1.00591 0.58085 0.0
O212 O 0.51854 0.99225 0.68478 0.0
O213 O 0.54678 0.06692 0.72288 0.0
O214 O 0.54397 0.04594 0.79998 0.0
O215 O 0.5429 1.00884 0.73655 0.0
C216 C 0.4762 0.98755 0.5018 0.0
C217 C 0.46569 1.00482 0.50176 0.0
C218 C 0.44639 0.96968 0.51641 0.0
C219 C 0.44594 1.00456 0.5107 0.0
C220 C 0.46634 0.96993 0.50776 0.0
C221 C 0.4362 0.98707 0.52007 0.0
C222 C 0.49736 0.98839 0.50901 0.0
C223 C 0.56184 0.01916 0.59208 0.0
H224 H 0.57175 0.06096 0.89832 0.0
H225 H 0.61316 0.04916 0.71001 0.0
H226 H 0.60471 0.04933 0.91726 0.0
H227 H 0.5806 0.06122 0.69112 0.0
H228 H 0.47282 0.01869 0.49817 0.0
H229 H 0.43908 0.95601 0.52295 0.0
H230 H 0.43834 0.01815 0.51174 0.0
H231 H 0.47421 0.95648 0.50896 0.0
Eu232 Eu 0.50846 0.52929 0.68047 0.0
Eu233 Eu 0.53935 0.51354 0.57935 0.0
C234 C 0.55299 0.52662 0.72189 0.0
C235 C 0.47986 0.56487 0.77124 0.0
C236 C 0.49102 0.57902 0.74139 0.0
C237 C 0.46183 0.58987 0.82427 0.0
C238 C 0.48771 0.59843 0.75296 0.0
C239 C 0.46513 0.57032 0.81232 0.0
C240 C 0.47326 0.6041 0.79513 0.0
C241 C 0.4836 0.54459 0.75758 0.0
O242 O 0.52744 0.48622 0.62525 0.0
O243 O 0.51414 0.4989 0.71657 0.0
C244 C 0.52019 0.48402 0.68337 0.0
O245 O 0.49153 0.51247 0.6036 0.0
O246 O 0.56905 0.51202 0.54789 0.0
O247 O 0.54635 0.49685 0.49379 0.0
O248 O 0.51159 0.51859 0.52063 0.0
C249 C 0.49436 0.51416 0.541 0.0
O250 O 0.51223 0.55381 0.60853 0.0
O251 O 0.54181 0.54618 0.57012 0.0
O252 O 0.55385 0.5127 0.67916 0.0
O253 O 0.47938 0.53934 0.69796 0.0
O254 O 0.50046 0.5383 0.77766 0.0
O255 O 0.53813 0.53831 0.72026 0.0
C256 C 0.57572 0.48107 0.50886 0.0
C257 C 0.57424 0.46958 0.56484 0.0
C258 C 0.593 0.45547 0.45668 0.0
C259 C 0.58153 0.45088 0.5659 0.0
C260 C 0.58562 0.47416 0.45559 0.0
C261 C 0.59041 0.4434 0.51097 0.0
C262 C 0.56491 0.4991 0.5035 0.0
C263 C 0.52775 0.55861 0.57705 0.0
H264 H 0.5024 0.57505 0.70925 0.0
H265 H 0.4507 0.59382 0.85741 0.0
H266 H 0.49657 0.60898 0.72899 0.0
H267 H 0.45633 0.55951 0.83541 0.0
H268 H 0.56659 0.47474 0.60646 0.0
H269 H 0.59952 0.45003 0.41325 0.0
H270 H 0.57939 0.44196 0.60841 0.0
H271 H 0.58677 0.48283 0.41194 0.0
Eu272 Eu 0.02716 0.53325 0.59465 0.0
Eu273 Eu 1.01362 0.50492 0.7093 0.0
C274 C 0.05839 0.51262 0.69287 0.0
C275 C 0.06178 0.55774 0.48742 0.0
C276 C 0.07628 0.54758 0.52182 0.0
C277 C 0.08565 0.57011 0.41438 0.0
C278 C 0.09533 0.54872 0.50301 0.0
C279 C 0.06651 0.56908 0.43375 0.0
C280 C 0.10021 0.55991 0.44894 0.0
C281 C 0.04184 0.55613 0.50807 0.0
O282 O 0.02029 0.53407 0.75535 0.0
O283 O 1.01277 0.5527 0.66732 0.0
C284 C 0.01565 0.55093 0.73053 0.0
O285 O 0.99569 0.52851 0.56841 0.0
O286 O 0.015 0.49647 0.8119 0.0
O287 O 0.99507 0.48201 0.74494 0.0
O288 O 0.98592 0.5185 0.66853 0.0
C289 C 0.98191 0.52438 0.60862 0.0
O290 O 0.03328 0.50315 0.55589 0.0
O291 O 0.01467 0.48492 0.6229 0.0
O292 O 0.04561 0.4991 0.70453 0.0
O293 O 0.03315 0.53995 0.4933 0.0
O294 O 0.03925 0.56111 0.56821 0.0
O295 O 0.05313 0.52858 0.66287 0.0
C296 C 0.9829 0.49219 0.84278 0.0
C297 C 0.97956 0.51204 0.84931 0.0
C298 C 0.95041 0.48565 0.87748 0.0
C299 C 0.96164 0.51864 0.86757 0.0
C300 C 0.96841 0.47901 0.85872 0.0
C301 C 0.94672 0.50554 0.87955 0.0
C302 C 0.99943 0.4859 0.80568 0.0
C303 C 0.02475 0.48672 0.57017 0.0
H304 H 0.07284 0.53857 0.56292 0.0
H305 H 0.08907 0.57884 0.37249 0.0
H306 H 0.10616 0.5404 0.52972 0.0
H307 H 0.05543 0.57698 0.4067 0.0
H308 H 0.99038 0.52255 0.83631 0.0
H309 H 0.93907 0.4753 0.88657 0.0
H310 H 0.95921 0.53404 0.86991 0.0
H311 H 0.97061 0.46367 0.85274 0.0
H312 H 0.22007 0.04283 0.24951 0.0
H313 H 0.19403 0.04066 0.3276 0.0
H314 H 0.15462 0.0219 0.17367 0.0
H315 H 0.18039 0.02408 0.09605 0.0
H316 H 0.13776 0.04845 0.23916 0.0
H317 H 0.17323 0.99152 0.30388 0.0
H318 H 0.20219 0.97373 0.34191 0.0
H319 H 0.20577 1.00816 0.51531 0.0
H320 H 0.17696 0.02632 0.47793 0.0
H321 H 0.05588 0.02478 0.42536 0.0
H322 H 0.08334 0.02569 0.35404 0.0
H323 H 0.12176 0.03489 0.52074 0.0
H324 H 0.09434 0.03259 0.59243 0.0
H325 H 0.14024 0.01416 0.45087 0.0
H326 H 0.10549 0.07162 0.38762 0.0
H327 H 0.07945 0.09269 0.34439 0.0
H328 H 0.0761 0.05982 0.16755 0.0
H329 H 0.10187 0.03842 0.20994 0.0
C330 C 0.20595 0.03789 0.23243 0.0
C331 C 0.20252 0.03379 0.16573 0.0
C332 C 0.19094 0.03667 0.2774 0.0
C333 C 0.17203 0.03109 0.25735 0.0
C334 C 0.16883 0.02642 0.19118 0.0
C335 C 0.18373 0.02769 0.14644 0.0
C336 C 0.15531 0.03092 0.30349 0.0
C337 C 0.13826 0.04069 0.28509 0.0
C338 C 0.15589 0.02147 0.36494 0.0
C339 C 0.17305 1.0104 0.3878 0.0
C340 C 0.18026 0.99537 0.34994 0.0
C341 C 0.19665 0.98521 0.3714 0.0
C342 C 0.20585 0.98985 0.43089 0.0
C343 C 0.19865 1.0046 0.46919 0.0
C344 C 0.18228 0.01482 0.44792 0.0
C345 C 0.07015 0.02714 0.44697 0.0
C346 C 0.07267 0.02871 0.51516 0.0
C347 C 0.08604 0.02785 0.40569 0.0
C348 C 0.10507 0.03085 0.43063 0.0
C349 C 0.10751 0.03254 0.49896 0.0
C350 C 0.09167 0.03133 0.54037 0.0
C351 C 0.12237 0.03163 0.38641 0.0
C352 C 0.13961 0.02197 0.40512 0.0
C353 C 0.12205 0.04139 0.32526 0.0
C354 C 0.10553 0.05335 0.30217 0.0
C355 C 0.099 0.06872 0.33993 0.0
C356 C 0.08433 0.08076 0.31547 0.0
C357 C 0.07622 0.07761 0.25317 0.0
C358 C 0.08245 0.06224 0.21571 0.0
C359 C 0.09705 0.05016 0.23994 0.0
H360 H 0.06524 0.08717 0.23343 0.0
H361 H 0.21855 0.98198 0.44738 0.0
H362 H 0.52827 0.21742 0.23782 0.0
H363 H 0.52669 0.19248 0.3215 0.0
H364 H 0.49352 0.15626 0.18875 0.0
H365 H 0.49332 0.18173 0.10776 0.0
H366 H 0.48082 0.14919 0.29656 0.0
H367 H 0.54637 0.15253 0.22766 0.0
H368 H 0.57773 0.16792 0.20711 0.0
H369 H 0.58469 0.18226 0.40979 0.0
H370 H 0.55325 0.16714 0.4314 0.0
H371 H 0.50691 0.05737 0.43727 0.0
H372 H 0.50461 0.08583 0.3663 0.0
H373 H 0.52023 0.12235 0.5292 0.0
H374 H 0.52218 0.09403 0.60071 0.0
H375 H 0.54146 0.12992 0.41321 0.0
H376 H 0.47577 0.12268 0.47881 0.0
H377 H 0.44558 0.10449 0.49373 0.0
H378 H 0.44034 0.09445 0.28773 0.0
H379 H 0.47067 0.11232 0.27168 0.0
C380 C 0.52025 0.20436 0.22662 0.0
C381 C 0.51127 0.20172 0.16462 0.0
C382 C 0.51967 0.18982 0.27452 0.0
C383 C 0.51055 0.17195 0.26147 0.0
C384 C 0.5009 0.16965 0.20068 0.0
C385 C 0.50107 0.18429 0.15352 0.0
C386 C 0.5112 0.15552 0.30992 0.0
C387 C 0.4942 0.14496 0.32127 0.0
C388 C 0.52847 0.14983 0.34382 0.0
C389 C 0.54737 0.1589 0.33099 0.0
C390 C 0.55454 0.15908 0.26775 0.0
C391 C 0.57233 0.16774 0.25593 0.0
C392 C 0.58317 0.17612 0.30708 0.0
C393 C 0.57626 0.1758 0.3702 0.0
C394 C 0.55846 0.16718 0.38228 0.0
C395 C 0.50973 0.07146 0.45817 0.0
C396 C 0.51466 0.07334 0.52494 0.0
C397 C 0.50839 0.08775 0.41746 0.0
C398 C 0.51222 0.10632 0.44224 0.0
C399 C 0.51721 0.10823 0.50879 0.0
C400 C 0.51821 0.09199 0.54975 0.0
C401 C 0.51124 0.12366 0.39859 0.0
C402 C 0.52815 0.13432 0.38837 0.0
C403 C 0.49402 0.12915 0.36467 0.0
C404 C 0.47559 0.1187 0.37412 0.0
C405 C 0.46825 0.11648 0.43673 0.0
C406 C 0.45111 0.10624 0.44539 0.0
C407 C 0.44107 0.09828 0.39173 0.0
C408 C 0.44814 0.10061 0.32927 0.0
C409 C 0.4653 0.11081 0.32035 0.0
H410 H 0.42781 0.09034 0.39853 0.0
H411 H 0.59694 0.18282 0.29783 0.0
H412 H 0.37478 0.50228 0.04688 0.0
H413 H 0.40039 0.50134 0.13062 0.0
H414 H 0.35901 0.5127 0.27772 0.0
H415 H 0.33338 0.51493 0.19329 0.0
H416 H 0.38905 0.53352 0.30322 0.0
H417 H 0.38109 0.4668 0.25519 0.0
H418 H 0.37831 0.43769 0.18687 0.0
H419 H 0.43559 0.44719 0.11992 0.0
H420 H 0.43862 0.47652 0.18719 0.0
H421 H 0.45579 0.51185 0.56602 0.0
H422 H 0.42851 0.50962 0.48762 0.0
H423 H 0.46783 0.50913 0.32951 0.0
H424 H 0.49524 0.51148 0.40765 0.0
H425 H 0.43808 0.48172 0.31439 0.0
H426 H 0.44474 0.54946 0.36312 0.0
H427 H 0.447 0.57759 0.43614 0.0
H428 H 0.39092 0.56454 0.50757 0.0
H429 H 0.38846 0.53614 0.43564 0.0
C430 C 0.37103 0.5047 0.09691 0.0
C431 C 0.35185 0.50881 0.11272 0.0
C432 C 0.38576 0.50387 0.1452 0.0
C433 C 0.38177 0.50668 0.21116 0.0
C434 C 0.36259 0.51042 0.2274 0.0
C435 C 0.34783 0.51147 0.17892 0.0
C436 C 0.39772 0.50644 0.26247 0.0
C437 C 0.39953 0.52198 0.30618 0.0
C438 C 0.41176 0.49161 0.26632 0.0
C439 C 0.41001 0.47396 0.22583 0.0
C440 C 0.39304 0.46277 0.22554 0.0
C441 C 0.39143 0.44621 0.18705 0.0
C442 C 0.40675 0.44062 0.14896 0.0
C443 C 0.42373 0.45155 0.1494 0.0
C444 C 0.42541 0.46813 0.18776 0.0
C445 C 0.45869 0.51116 0.51461 0.0
C446 C 0.47779 0.51189 0.49331 0.0
C447 C 0.44303 0.50996 0.46974 0.0
C448 C 0.44605 0.50935 0.40246 0.0
C449 C 0.46509 0.5096 0.38109 0.0
C450 C 0.48077 0.511 0.42591 0.0
C451 C 0.42936 0.5088 0.35437 0.0
C452 C 0.42747 0.49315 0.3114 0.0
C453 C 0.41512 0.52337 0.35174 0.0
C454 C 0.4165 0.54056 0.39448 0.0
C455 C 0.43296 0.5525 0.39476 0.0
C456 C 0.43427 0.56851 0.43589 0.0
C457 C 0.41914 0.57282 0.47659 0.0
C458 C 0.40264 0.56117 0.47609 0.0
C459 C 0.40127 0.54512 0.43512 0.0
H460 H 0.42018 0.58522 0.50841 0.0
H461 H 0.40547 0.4278 0.11921 0.0
H462 H 0.05233 0.33553 0.19764 0.0
H463 H 0.0535 0.36117 0.27991 0.0
H464 H 0.99564 0.37795 0.22172 0.0
H465 H 0.99467 0.35274 0.1389 0.0
H466 H 0.0153 0.40873 0.23284 0.0
H467 H 1.00855 0.35389 0.37248 0.0
H468 H 0.0168 0.32212 0.41948 0.0
H469 H 0.07233 0.34375 0.48374 0.0
H470 H 0.06451 0.37559 0.43639 0.0
H471 H 1.00936 0.45044 0.58521 0.0
H472 H 1.01006 0.42312 0.51067 0.0
H473 H 0.04405 0.45648 0.37894 0.0
H474 H 0.04316 0.48407 0.45306 0.0
H475 H 0.03636 0.40054 0.46415 0.0
H476 H 0.03301 0.44315 0.22134 0.0
H477 H 0.02067 0.4741 0.17821 0.0
H478 H 0.97847 0.47541 0.32632 0.0
H479 H 0.99032 0.44434 0.36962 0.0
C480 C 0.03973 0.34445 0.20329 0.0
C481 C 0.02342 0.342 0.16135 0.0
C482 C 0.0404 0.35921 0.25046 0.0
C483 C 0.02464 0.37174 0.25775 0.0
C484 C 1.00812 0.36879 0.21726 0.0
C485 C 1.00753 0.35422 0.16989 0.0
C486 C 0.02544 0.38833 0.30533 0.0
C487 C 0.01999 0.40684 0.28332 0.0
C488 C 0.03127 0.38618 0.37187 0.0
C489 C 0.03602 0.36706 0.40028 0.0
C490 C 0.02258 0.35182 0.39619 0.0
C491 C 0.02717 0.33382 0.42297 0.0
C492 C 0.0451 0.33091 0.45441 0.0
C493 C 0.05846 0.34602 0.45928 0.0
C494 C 0.05395 0.36405 0.43252 0.0
C495 C 0.01707 0.45205 0.54049 0.0
C496 C 0.02613 0.46968 0.52541 0.0
C497 C 0.01751 0.43627 0.4978 0.0
C498 C 0.02693 0.43758 0.43834 0.0
C499 C 0.03639 0.45502 0.42377 0.0
C500 C 0.03595 0.47086 0.46653 0.0
C501 C 0.02638 0.42087 0.39137 0.0
C502 C 0.03185 0.4024 0.4135 0.0
C503 C 0.02011 0.42294 0.32527 0.0
C504 C 1.01273 0.44153 0.29915 0.0
C505 C 0.02105 0.45002 0.24455 0.0
C506 C 0.01413 0.46758 0.22007 0.0
C507 C 0.99882 0.47675 0.24964 0.0
C508 C 0.99035 0.46833 0.30358 0.0
C509 C 0.99717 0.45075 0.32814 0.0
H510 H 0.9935 0.49035 0.23069 0.0
H511 H 0.04862 0.31696 0.47512 0.0
H512 H 0.83052 0.99411 0.05373 0.0
H513 H 0.85481 0.99429 0.96953 0.0
H514 H 0.8894 0.03442 0.08369 0.0
H515 H 0.86466 0.03561 0.16394 0.0
H516 H 0.89508 0.04404 0.97306 0.0
H517 H 0.89698 0.9805 0.06594 0.0
H518 H 0.88459 0.94854 0.09745 0.0
H519 H 0.86987 0.93599 0.89726 0.0
H520 H 0.88195 0.96799 0.86466 0.0
H521 H 0.98797 0.02422 0.84455 0.0
H522 H 0.96001 0.02371 0.91448 0.0
H523 H 0.92427 1.00244 0.75469 0.0
H524 H 0.95214 1.00336 0.68376 0.0
H525 H 0.91811 0.98292 0.87939 0.0
H526 H 0.9209 0.04734 0.79134 0.0
H527 H 0.93671 0.0784 0.76817 0.0
H528 H 0.94602 0.08827 0.97314 0.0
H529 H 0.93077 0.05707 0.99742 0.0
C530 C 0.84311 1.00326 0.06047 0.0
C531 C 0.84549 0.01452 0.1174 0.0
C532 C 0.85734 1.00309 0.01241 0.0
C533 C 0.87464 0.01391 0.01998 0.0
C534 C 0.87655 0.02571 0.07554 0.0
C535 C 0.86228 0.02616 0.1226 0.0
C536 C 0.89078 0.01323 0.97122 0.0
C537 C 0.90012 0.03053 0.95362 0.0
C538 C 0.89761 0.99584 0.94348 0.0
C539 C 0.89012 0.97673 0.96299 0.0
C540 C 0.89094 0.97098 0.02872 0.0
C541 C 0.884 0.95286 0.04676 0.0
C542 C 0.87639 0.94027 0.99941 0.0
C543 C 0.87573 0.94578 0.9339 0.0
C544 C 0.88261 0.9639 0.91562 0.0
C545 C 0.97422 0.01934 0.82402 0.0
C546 C 0.97251 0.01387 0.7579 0.0
C547 C 0.95813 0.0191 0.86433 0.0
C548 C 0.9398 0.0131 0.84037 0.0
C549 C 0.93813 1.00713 0.77487 0.0
C550 C 0.95416 1.00772 0.73411 0.0
C551 C 0.92241 0.01359 0.88315 0.0
C552 C 0.9129 0.99633 0.89919 0.0
C553 C 0.91575 0.03092 0.91093 0.0
C554 C 0.92485 0.04976 0.89618 0.0
C555 C 0.92651 0.05604 0.83144 0.0
C556 C 0.93538 0.07369 0.81809 0.0
C557 C 0.94246 0.08528 0.8691 0.0
C558 C 0.94064 0.07927 0.93357 0.0
C559 C 0.93189 0.06159 0.94717 0.0
H560 H 0.94929 0.09895 0.85864 0.0
H561 H 0.87104 0.92624 0.01347 0.0
H562 H 0.52035 0.83666 0.07876 0.0
H563 H 0.51975 0.86302 0.99913 0.0
H564 H 0.56906 0.88913 0.09802 0.0
H565 H 0.56959 0.86297 0.17783 0.0
H566 H 0.54392 0.9159 0.07244 0.0
H567 H 0.57111 0.86588 0.94421 0.0
H568 H 0.57277 0.83373 0.89387 0.0
H569 H 0.51925 0.84404 0.78873 0.0
H570 H 0.51714 0.87617 0.83911 0.0
H571 H 0.55967 0.98823 0.82983 0.0
H572 H 0.5634 0.96072 0.90434 0.0
H573 H 0.51431 0.93285 0.81001 0.0
H574 H 0.51081 0.95994 0.73484 0.0
H575 H 0.54045 0.90694 0.83306 0.0
H576 H 0.51285 0.95655 0.96341 0.0
H577 H 0.51094 0.98856 0.01463 0.0
H578 H 0.56511 0.97888 0.11658 0.0
H579 H 0.56748 0.94692 0.06517 0.0
C580 C 0.5313 0.84781 0.0829 0.0
C581 C 0.54499 0.84759 0.13513 0.0
C582 C 0.53093 0.86298 0.03721 0.0
C583 C 0.54443 0.87823 0.04184 0.0
C584 C 0.55838 0.87775 0.09311 0.0
C585 C 0.55867 0.86268 0.13889 0.0
C586 C 0.54367 0.89501 0.99506 0.0
C587 C 0.54347 0.91388 0.02009 0.0
C588 C 0.54261 0.89264 0.92644 0.0
C589 C 0.54388 0.87336 0.89592 0.0
C590 C 0.55962 0.86124 0.91071 0.0
C591 C 0.56066 0.84303 0.88211 0.0
C592 C 0.5461 0.83683 0.83826 0.0
C593 C 0.5305 0.84885 0.82278 0.0
C594 C 0.52939 0.86707 0.85129 0.0
C595 C 0.54969 0.97624 0.82485 0.0
C596 C 0.53491 0.97647 0.77608 0.0
C597 C 0.55177 0.96048 0.86788 0.0
C598 C 0.53899 0.94461 0.86386 0.0
C599 C 0.52441 0.94477 0.81462 0.0
C600 C 0.5224 0.96041 0.77155 0.0
C601 C 0.54065 0.92783 0.91046 0.0
C602 C 0.54099 0.90896 0.88541 0.0
C603 C 0.54182 0.9302 0.97909 0.0
C604 C 0.54044 0.94944 0.00985 0.0
C605 C 0.52443 0.96132 0.99631 0.0
C606 C 0.52326 0.97944 0.02544 0.0
C607 C 0.53792 0.98578 0.06865 0.0
C608 C 0.55378 0.97398 0.08295 0.0
C609 C 0.55505 0.95586 0.05385 0.0
H610 H 0.53698 0.99981 0.09119 0.0
H611 H 0.54693 0.82273 0.81618 0.0
H612 H 0.67442 0.5654 0.19862 0.0
H613 H 0.64943 0.56284 0.11271 0.0
H614 H 0.67645 0.51176 0.03998 0.0
H615 H 0.70174 0.51433 0.12621 0.0
H616 H 0.66451 0.53404 0.9407 0.0
H617 H 0.63502 0.50947 0.13148 0.0
H618 H 0.62509 0.50983 0.24562 0.0
H619 H 0.59116 0.56043 0.20719 0.0
H620 H 0.60109 0.56052 0.09297 0.0
H621 H 0.5844 0.50334 0.74182 0.0
H622 H 0.6102 0.50604 0.82487 0.0
H623 H 0.58381 0.55712 0.90027 0.0
H624 H 0.55757 0.55426 0.81763 0.0
H625 H 0.59557 0.5345 0.99795 0.0
H626 H 0.62513 0.55883 0.80628 0.0
H627 H 0.635 0.55806 0.69209 0.0
H628 H 0.66871 0.50741 0.73207 0.0
H629 H 0.65883 0.50772 0.84634 0.0
C630 C 0.67502 0.55349 0.16478 0.0
C631 C 0.69003 0.53991 0.17019 0.0
C632 C 0.66066 0.55205 0.11544 0.0
C633 C 0.6607 0.53688 0.07027 0.0
C634 C 0.67596 0.52357 0.07426 0.0
C635 C 0.69046 0.52507 0.12362 0.0
C636 C 0.64478 0.53498 0.01933 0.0
C637 C 0.64945 0.53385 0.95339 0.0
C638 C 0.62503 0.53517 0.03525 0.0
C639 C 0.61894 0.5351 0.10382 0.0
C640 C 0.62555 0.52075 0.14748 0.0
C641 C 0.6199 0.52086 0.21218 0.0
C642 C 0.60754 0.53517 0.23368 0.0
C643 C 0.60075 0.54937 0.19048 0.0
C644 C 0.60637 0.54933 0.12574 0.0
C645 C 0.58403 0.51523 0.77583 0.0
C646 C 0.56884 0.52865 0.77257 0.0
C647 C 0.59894 0.51681 0.82332 0.0
C648 C 0.59925 0.53197 0.8686 0.0
C649 C 0.58401 0.54531 0.86591 0.0
C650 C 0.56901 0.5437 0.81843 0.0
C651 C 0.61527 0.53365 0.91925 0.0
C652 C 0.61063 0.5347 0.9852 0.0
C653 C 0.63503 0.53334 0.90331 0.0
C654 C 0.6411 0.5332 0.83473 0.0
C655 C 0.63454 0.54745 0.79061 0.0
C656 C 0.64015 0.54711 0.72589 0.0
C657 C 0.65243 0.53267 0.7048 0.0
C658 C 0.65918 0.51857 0.74845 0.0
C659 C 0.6536 0.51884 0.81322 0.0
H660 H 0.65676 0.53243 0.65466 0.0
H661 H 0.60318 0.53523 0.28379 0.0
H662 H 0.03777 0.67851 0.18189 0.0
H663 H 0.03751 0.65381 0.09804 0.0
H664 H 0.99116 0.68307 0.99433 0.0
H665 H 0.99083 0.70764 0.08045 0.0
H666 H 0.98359 0.64575 0.9935 0.0
H667 H 0.03908 0.68232 0.93948 0.0
H668 H 0.07019 0.69914 0.95763 0.0
H669 H 0.0968 0.646 0.01802 0.0
H670 H 0.06577 0.6289 1.00109 0.0
H671 H 0.99731 0.58567 0.70782 0.0
H672 H 0.99623 0.61377 0.78046 0.0
H673 H 0.03134 0.58363 0.92409 0.0
H674 H 0.03199 0.55539 0.8529 0.0
H675 H 0.04387 0.62301 0.89614 0.0
H676 H 0.9874 0.587 0.95232 0.0
H677 H 0.95641 0.57045 0.92909 0.0
H678 H 0.9316 0.62348 0.85928 0.0
H679 H 0.96263 0.64027 0.88055 0.0
C680 C 0.02749 0.67982 0.14131 0.0
C681 C 0.01424 0.69519 0.1387 0.0
C682 C 0.02748 0.66566 0.09266 0.0
C683 C 0.01444 0.66643 0.03875 0.0
C684 C 1.00142 0.68198 0.03507 0.0
C685 C 1.00138 0.69621 0.08414 0.0
C686 C 0.01421 0.65069 0.98794 0.0
C687 C 0.99676 0.64109 0.97142 0.0
C688 C 0.03134 0.64413 0.95919 0.0
C689 C 0.05004 0.65435 0.96952 0.0
C690 C 0.05153 0.67424 0.9571 0.0
C691 C 0.06916 0.68382 0.96709 0.0
C692 C 0.08545 0.67365 0.9891 0.0
C693 C 0.08416 0.65387 1.00103 0.0
C694 C 0.06656 0.64421 0.99117 0.0
C695 C 1.00475 0.58499 0.75496 0.0
C696 C 0.01471 0.56816 0.77433 0.0
C697 C 1.0041 0.60109 0.79655 0.0
C698 C 1.01372 0.60093 0.85802 0.0
C699 C 0.02382 0.58422 0.87706 0.0
C700 C 0.02411 0.568 0.83623 0.0
C701 C 1.01337 0.61808 0.90257 0.0
C702 C 0.03071 0.62787 0.91788 0.0
C703 C 0.99614 0.62489 0.92962 0.0
C704 C 0.97743 0.61485 0.91721 0.0
C705 C 0.97541 0.5951 0.93128 0.0
C706 C 0.95783 0.58567 0.91856 0.0
C707 C 0.94206 0.59589 0.89259 0.0
C708 C 0.94385 0.61557 0.8793 0.0
C709 C 0.96144 0.62505 0.89161 0.0
H710 H 0.92845 0.58857 0.88294 0.0
H711 H 0.09909 0.6811 0.99679 0.0
H712 H 0.04481 0.25348 0.23399 0.0
H713 H 0.0496 0.22727 0.31137 0.0
H714 H 0.09808 0.20738 0.20445 0.0
H715 H 0.09332 0.23371 0.12677 0.0
H716 H 0.06384 0.18738 0.1808 0.0
H717 H 0.10218 0.20674 0.36626 0.0
H718 H 0.11269 0.22772 0.45756 0.0
H719 H 0.0573 0.22127 0.5426 0.0
H720 H 0.04638 0.20041 0.45166 0.0
H721 H 0.03729 0.09462 0.28619 0.0
H722 H 0.056 0.12352 0.26271 0.0
H723 H 0.02135 0.1561 0.39374 0.0
H724 H 1.004 0.12678 0.42227 0.0
H725 H 0.05627 0.16732 0.41017 0.0
H726 H 0.01493 0.15685 0.22168 0.0
H727 H 1.00025 0.13969 0.12723 0.0
H728 H 0.05594 0.13407 0.04431 0.0
H729 H 0.07102 0.15096 0.13883 0.0
C730 C 0.05735 0.24437 0.22958 0.0
C731 C 0.06826 0.24507 0.17328 0.0
C732 C 0.06012 0.22934 0.27409 0.0
C733 C 0.07382 0.21505 0.26232 0.0
C734 C 0.08729 0.21817 0.21387 0.0
C735 C 0.08453 0.2332 0.16938 0.0
C736 C 0.06921 0.19506 0.28148 0.0
C737 C 0.06283 0.18271 0.23106 0.0
C738 C 0.06692 0.18948 0.34689 0.0
C739 C 0.07344 0.20204 0.40185 0.0
C740 C 0.09219 0.20989 0.4042 0.0
C741 C 0.09824 0.22173 0.45602 0.0
C742 C 0.08568 0.22581 0.50589 0.0
C743 C 0.06705 0.21804 0.5041 0.0
C744 C 0.06094 0.20617 0.45248 0.0
C745 C 0.03389 0.10789 0.31062 0.0
C746 C 0.01929 0.10834 0.35632 0.0
C747 C 0.04441 0.12447 0.29661 0.0
C748 C 0.03999 0.14206 0.32605 0.0
C749 C 0.0251 0.14267 0.37064 0.0
C750 C 0.01492 0.12596 0.38594 0.0
C751 C 0.05056 0.15993 0.30938 0.0
C752 C 0.05787 0.17179 0.36001 0.0
C753 C 0.05308 0.16552 0.24393 0.0
C754 C 0.04414 0.1549 0.18784 0.0
C755 C 0.02408 0.15175 0.18371 0.0
C756 C 0.01569 0.14212 0.13009 0.0
C757 C 0.02717 0.13573 0.07999 0.0
C758 C 0.04708 0.13897 0.08332 0.0
C759 C 0.05556 0.14856 0.13691 0.0
H760 H 0.02064 0.12834 0.03853 0.0
H761 H 0.09039 0.23501 0.54588 0.0
H762 H 0.31799 0.99903 0.21993 0.0
H763 H 0.32875 0.99335 0.33246 0.0
H764 H 0.30535 0.04816 0.38851 0.0
H765 H 0.29432 0.05383 0.27492 0.0
H766 H 0.34337 0.04398 0.42365 0.0
H767 H 0.28751 1.0104 0.46524 0.0
H768 H 0.25912 0.98943 0.44617 0.0
H769 H 0.29602 0.94038 0.42823 0.0
H770 H 0.32467 0.96105 0.44601 0.0
H771 H 0.41846 1.0093 0.60772 0.0
H772 H 0.38403 0.01598 0.61203 0.0
H773 H 0.37298 0.9742 0.4598 0.0
H774 H 0.40726 0.96642 0.4597 0.0
H775 H 0.34062 0.97997 0.53126 0.0
H776 H 0.38994 0.02285 0.418 0.0
H777 H 0.41891 0.04364 0.42888 0.0
H778 H 0.39307 0.07491 0.58341 0.0
H779 H 0.36393 0.05433 0.573 0.0
C780 C 0.31503 1.00979 0.25639 0.0
C781 C 0.30561 0.02694 0.23909 0.0
C782 C 0.32084 1.00641 0.3208 0.0
C783 C 0.31745 0.02017 0.36904 0.0
C784 C 0.30776 0.03725 0.35212 0.0
C785 C 0.30165 0.04052 0.28748 0.0
C786 C 0.32709 0.01767 0.4336 0.0
C787 C 0.34224 0.03039 0.44956 0.0
C788 C 0.32544 1.00009 0.46793 0.0
C789 C 0.30831 0.98734 0.45738 0.0
C790 C 0.28961 0.99516 0.45699 0.0
C791 C 0.27345 0.98331 0.44638 0.0
C792 C 0.27577 0.96358 0.43613 0.0
C793 C 0.29425 0.95566 0.43643 0.0
C794 C 0.31047 0.96744 0.44699 0.0
C795 C 0.4085 1.00077 0.57817 0.0
C796 C 0.41543 0.98747 0.53321 0.0
C797 C 0.38885 1.00467 0.58029 0.0
C798 C 0.37603 0.99602 0.53491 0.0
C799 C 0.38264 0.9811 0.49523 0.0
C800 C 0.40226 0.97676 0.49469 0.0
C801 C 0.35764 1.00547 0.51587 0.0
C802 C 0.34091 0.99412 0.50882 0.0
C803 C 0.3577 0.02441 0.48983 0.0
C804 C 0.37488 0.0371 0.49487 0.0
C805 C 0.39046 0.03424 0.454 0.0
C806 C 0.40688 0.04596 0.46014 0.0
C807 C 0.40783 0.06058 0.50683 0.0
C808 C 0.39231 0.06359 0.54724 0.0
C809 C 0.37582 0.05195 0.54115 0.0
H810 H 0.42059 0.06958 0.51169 0.0
H811 H 0.26324 0.95443 0.42788 0.0
H812 H 0.52633 0.30462 0.26777 0.0
H813 H 0.5443 0.32172 0.35493 0.0
H814 H 0.59699 0.3141 0.25221 0.0
H815 H 0.5789 0.29729 0.16459 0.0
H816 H 0.57708 0.31929 0.44006 0.0
H817 H 0.6164 0.35814 0.23691 0.0
H818 H 0.61306 0.36381 0.11831 0.0
H819 H 0.55142 0.35955 0.12799 0.0
H820 H 0.55442 0.35404 0.24659 0.0
H821 H 0.62192 0.42548 0.46181 0.0
H822 H 0.62359 0.39176 0.42751 0.0
H823 H 0.56825 0.38079 0.51064 0.0
H824 H 0.56665 0.41413 0.54536 0.0
H825 H 0.59831 0.38045 0.33863 0.0
H826 H 0.5592 0.3347 0.53342 0.0
H827 H 0.55983 0.3307 0.65275 0.0
H828 H 0.61819 0.35164 0.66479 0.0
H829 H 0.61801 0.35562 0.54548 0.0
C830 C 0.54186 0.30599 0.26537 0.0
C831 C 0.55135 0.29982 0.21005 0.0
C832 C 0.55212 0.31564 0.31514 0.0
C833 C 0.57193 0.31932 0.30958 0.0
C834 C 0.58171 0.31143 0.2572 0.0
C835 C 0.57142 0.30188 0.20731 0.0
C836 C 0.58116 0.33456 0.35022 0.0
C837 C 0.58189 0.33266 0.41829 0.0
C838 C 0.58764 0.35185 0.32142 0.0
C839 C 0.58568 0.35542 0.25031 0.0
C840 C 0.60216 0.35844 0.21364 0.0
C841 C 0.60032 0.36162 0.14647 0.0
C842 C 0.58205 0.36194 0.1156 0.0
C843 C 0.56557 0.35919 0.15189 0.0
C844 C 0.56733 0.35602 0.21905 0.0
C845 C 0.61045 0.41567 0.47457 0.0
C846 C 0.59407 0.42247 0.50558 0.0
C847 C 0.61145 0.39641 0.45527 0.0
C848 C 0.59606 0.38371 0.46651 0.0
C849 C 0.5805 0.39014 0.50247 0.0
C850 C 0.57955 0.40931 0.52212 0.0
C851 C 0.59408 0.3655 0.4293 0.0
C852 C 0.59441 0.36688 0.36119 0.0
C853 C 0.5883 0.34796 0.45843 0.0
C854 C 0.58857 0.34547 0.53033 0.0
C855 C 0.57223 0.33831 0.56141 0.0
C856 C 0.57249 0.33608 0.6291 0.0
C857 C 0.58906 0.34085 0.6663 0.0
C858 C 0.60538 0.34792 0.6359 0.0
C859 C 0.60518 0.35023 0.56825 0.0
H860 H 0.58921 0.33916 0.71871 0.0
H861 H 0.58066 0.36437 0.06359 0.0
H862 H 0.26427 0.53788 0.18307 0.0
H863 H 0.24579 0.55048 0.27261 0.0
H864 H 0.21047 0.49909 0.26886 0.0
H865 H 0.22918 0.48626 0.18041 0.0
H866 H 0.20914 0.5584 0.24496 0.0
H867 H 0.18769 0.4934 0.40932 0.0
H868 H 0.20336 0.46562 0.46364 0.0
H869 H 0.25796 0.49505 0.46323 0.0
H870 H 0.24259 0.52315 0.40986 0.0
H871 H 0.11221 0.55506 0.32537 0.0
H872 H 0.1452 0.55052 0.29101 0.0
H873 H 0.16651 0.55954 0.48848 0.0
H874 H 0.13338 0.56388 0.52331 0.0
H875 H 0.18141 0.52796 0.43964 0.0
H876 H 0.17518 0.59322 0.36812 0.0
H877 H 0.15949 0.62088 0.31291 0.0
H878 H 0.16143 0.59151 0.1295 0.0
H879 H 0.17686 0.56357 0.18369 0.0
C880 C 0.25315 0.5289 0.20337 0.0
C881 C 0.24796 0.5112 0.17444 0.0
C882 C 0.24255 0.53615 0.25431 0.0
C883 C 0.22672 0.52577 0.27715 0.0
C884 C 0.22276 0.50726 0.25255 0.0
C885 C 0.23334 0.50001 0.20163 0.0
C886 C 0.2121 0.53555 0.31581 0.0
C887 C 0.20329 0.55196 0.28831 0.0
C888 C 0.20462 0.52721 0.37257 0.0
C889 C 0.21396 0.51039 0.40526 0.0
C890 C 0.20301 0.49403 0.42119 0.0
C891 C 0.21186 0.4782 0.45174 0.0
C892 C 0.23165 0.47856 0.46678 0.0
C893 C 0.24264 0.49477 0.45139 0.0
C894 C 0.23387 0.51064 0.42088 0.0
C895 C 0.12395 0.55655 0.36113 0.0
C896 C 0.12027 0.55983 0.42692 0.0
C897 C 0.14281 0.55396 0.34151 0.0
C898 C 0.15833 0.5549 0.38713 0.0
C899 C 0.15474 0.55879 0.45255 0.0
C900 C 0.13585 0.56125 0.47231 0.0
C901 C 0.17803 0.55024 0.36693 0.0
C902 C 0.18766 0.53476 0.39761 0.0
C903 C 0.18632 0.5594 0.31299 0.0
C904 C 0.17717 0.57628 0.28008 0.0
C905 C 0.17218 0.59262 0.31607 0.0
C906 C 0.16333 0.60835 0.28493 0.0
C907 C 0.15946 0.60795 0.21776 0.0
C908 C 0.16445 0.59182 0.18152 0.0
C909 C 0.17329 0.57605 0.21241 0.0
H910 H 0.1526 0.62014 0.19377 0.0
H911 H 0.23847 0.46629 0.49041 0.0
H912 H 1.00008 0.78153 0.05557 0.0
H913 H 1.00166 0.80694 0.97405 0.0
H914 H 0.95951 0.83958 0.07643 0.0
H915 H 0.95665 0.8135 0.15469 0.0
H916 H 0.96309 0.85482 0.96099 0.0
H917 H 1.00706 0.83689 0.13938 0.0
H918 H 0.02938 0.81573 0.20216 0.0
H919 H 0.06423 0.80944 0.03482 0.0
H920 H 0.04229 0.83086 0.9714 0.0
H921 H 1.00831 0.94704 0.99421 0.0
H922 H 0.99406 0.91542 0.01611 0.0
H923 H 0.03649 0.88854 0.89766 0.0
H924 H 0.0505 0.91994 0.8745 0.0
H925 H 0.03226 0.86973 0.00764 0.0
H926 H 0.98902 0.89692 0.84285 0.0
H927 H 0.96687 0.92158 0.79731 0.0
H928 H 0.92938 0.91313 0.95716 0.0
H929 H 0.95149 0.88863 1.004 0.0
C930 C 0.99007 0.79342 0.05805 0.0
C931 C 0.97906 0.79616 0.11343 0.0
C932 C 0.99114 0.80809 0.01166 0.0
C933 C 0.9817 0.82563 0.02199 0.0
C934 C 0.96743 0.82641 0.06868 0.0
C935 C 0.96585 0.81148 0.11367 0.0
C936 C 0.99022 0.84394 0.99911 0.0
C937 C 0.97823 0.85808 0.97067 0.0
C938 C 1.00993 0.84835 0.01296 0.0
C939 C 0.02296 0.83526 0.05056 0.0
C940 C 0.01945 0.83092 0.11598 0.0
C941 C 0.03202 0.81892 0.15168 0.0
C942 C 0.04809 0.81111 0.12235 0.0
C943 C 0.05173 0.81544 0.0574 0.0
C944 C 0.03928 0.82757 0.02164 0.0
C945 C 0.01457 0.93437 0.97282 0.0
C946 C 0.03053 0.93599 0.93262 0.0
C947 C 1.00635 0.91636 0.98502 0.0
C948 C 0.01389 0.89974 0.95686 0.0
C949 C 0.03027 0.90125 0.919 0.0
C950 C 0.03844 0.91919 0.90656 0.0
C951 C 1.00525 0.88058 0.96852 0.0
C952 C 0.01724 0.86636 0.99591 0.0
C953 C 0.98545 0.87646 0.9556 0.0
C954 C 0.972 0.89101 0.92701 0.0
C955 C 0.97611 0.90039 0.86833 0.0
C956 C 0.96356 0.91433 0.84232 0.0
C957 C 0.94674 0.91893 0.87436 0.0
C958 C 0.94242 0.90955 0.93238 0.0
C959 C 0.95496 0.89562 0.95863 0.0
H960 H 0.93704 0.92974 0.8542 0.0
H961 H 0.05778 0.80178 0.15003 0.0
H962 H 0.75649 0.99939 0.03443 0.0
H963 H 0.73339 0.99463 0.94451 0.0
H964 H 0.70872 0.94615 0.04442 0.0
H965 H 0.73152 0.95136 0.13634 0.0
H966 H 0.71219 0.971 0.85849 0.0
H967 H 0.66904 0.95216 0.05863 0.0
H968 H 0.66571 0.9508 0.17797 0.0
H969 H 0.69311 1.00623 0.19724 0.0
H970 H 0.69693 1.00766 0.07802 0.0
H971 H 0.61852 0.01388 0.75739 0.0
H972 H 0.64367 0.99078 0.78994 0.0
H973 H 0.66737 0.032 0.92833 0.0
H974 H 0.64191 0.05482 0.89735 0.0
H975 H 0.65837 0.99755 0.98317 0.0
H976 H 0.68858 0.01945 0.77885 0.0
H977 H 0.68586 0.02188 0.65903 0.0
H978 H 0.68021 0.96037 0.6449 0.0
H979 H 0.68254 0.95762 0.76466 0.0
C980 C 0.74682 0.98708 0.03591 0.0
C981 C 0.74528 0.97615 0.09304 0.0
C982 C 0.73362 0.9843 0.98417 0.0
C983 C 0.71885 0.97053 0.98912 0.0
C984 C 0.71968 0.95723 0.04069 0.0
C985 C 0.73269 0.96021 0.09311 0.0
C986 C 0.7004 0.97447 0.95363 0.0
C987 C 0.70014 0.97634 0.88542 0.0
C988 C 0.68448 0.9812 0.98838 0.0
C989 C 0.68347 0.97988 0.05999 0.0
C990 C 0.67452 0.96393 0.08856 0.0
C991 C 0.67256 0.96315 0.15603 0.0
C992 C 0.67924 0.9784 0.19511 0.0
C993 C 0.68797 0.99442 0.16686 0.0
C994 C 0.69018 0.99516 0.09946 0.0
C995 C 0.62944 0.01813 0.79355 0.0
C996 C 0.6284 0.03605 0.82517 0.0
C997 C 0.64372 1.00493 0.81209 0.0
C998 C 0.65727 1.00969 0.86161 0.0
C999 C 0.6569 0.02806 0.89023 0.0
C1000 C 0.64248 0.04109 0.87252 0.0
C1001 C 0.67082 0.99526 0.88894 0.0
C1002 C 0.66995 0.99145 0.95561 0.0
C1003 C 0.68535 0.98661 0.85243 0.0
C1004 C 0.68556 0.98834 0.78062 0.0
C1005 C 0.68679 1.00645 0.75013 0.0
C1006 C 0.68527 1.00788 0.68224 0.0
C1007 C 0.68276 0.99128 0.64442 0.0
C1008 C 0.68209 0.97321 0.67429 0.0
C1009 C 0.68352 0.9717 0.74213 0.0
H1010 H 0.68124 0.99237 0.59201 0.0
H1011 H 0.67756 0.9778 0.2472 0.0
H1012 H 0.47812 0.76088 0.1053 0.0
H1013 H 0.46086 0.74478 0.01396 0.0
H1014 H 0.51479 0.72171 0.95053 0.0
H1015 H 0.53187 0.73783 0.04108 0.0
H1016 H 0.48901 0.72729 0.84708 0.0
H1017 H 0.49125 0.69825 0.06607 0.0
H1018 H 0.48469 0.69898 0.18337 0.0
H1019 H 0.42431 0.7069 0.1385 0.0
H1020 H 0.43061 0.70646 0.02082 0.0
H1021 H 0.50172 0.63032 0.82 0.0
H1022 H 0.49852 0.66435 0.84437 0.0
H1023 H 0.43653 0.65881 0.83431 0.0
H1024 H 0.43962 0.62451 0.8065 0.0
H1025 H 0.45275 0.67445 0.95193 0.0
H1026 H 0.45274 0.6918 0.72647 0.0
H1027 H 0.46237 0.6904 0.61203 0.0
H1028 H 0.52126 0.70171 0.67167 0.0
H1029 H 0.5119 0.70365 0.78633 0.0
C1030 C 0.48625 0.75301 0.07002 0.0
C1031 C 0.50617 0.75037 0.07959 0.0
C1032 C 0.47644 0.74386 0.01807 0.0
C1033 C 0.48655 0.73191 0.97605 0.0
C1034 C 0.50674 0.73095 0.98216 0.0
C1035 C 0.51648 0.74003 0.03396 0.0
C1036 C 0.47637 0.71729 0.93542 0.0
C1037 C 0.48071 0.7159 0.86943 0.0
C1038 C 0.46527 0.70261 0.96445 0.0
C1039 C 0.46141 0.70255 0.03491 0.0
C1040 C 0.4766 0.70023 0.08132 0.0
C1041 C 0.47293 0.7006 0.14781 0.0
C1042 C 0.4541 0.70304 0.16837 0.0
C1043 C 0.43889 0.70506 0.12247 0.0
C1044 C 0.4425 0.70476 0.0559 0.0
C1045 C 0.48737 0.63638 0.82118 0.0
C1046 C 0.47092 0.62477 0.81056 0.0
C1047 C 0.48557 0.65587 0.83481 0.0
C1048 C 0.46729 0.66417 0.83941 0.0
C1049 C 0.45075 0.65269 0.82959 0.0
C1050 C 0.45254 0.63311 0.81469 0.0
C1051 C 0.46612 0.68403 0.86434 0.0
C1052 C 0.45987 0.68635 0.92797 0.0
C1053 C 0.47574 0.69936 0.83346 0.0
C1054 C 0.4816 0.69791 0.76488 0.0
C1055 C 0.46774 0.69398 0.71514 0.0
C1056 C 0.47313 0.69323 0.65022 0.0
C1057 C 0.49241 0.69598 0.63458 0.0
C1058 C 0.50632 0.69965 0.68382 0.0
C1059 C 0.50095 0.70075 0.74872 0.0
H1060 H 0.49658 0.6952 0.58435 0.0
H1061 H 0.45128 0.70333 0.21986 0.0
H1062 H 0.7999 0.57993 0.12151 0.0
H1063 H 0.82163 0.58107 0.0301 0.0
H1064 H 0.8102 0.52082 0.9925 0.0
H1065 H 0.78806 0.51997 0.08232 0.0
H1066 H 0.852 0.56081 0.05504 0.0
H1067 H 0.82745 0.50617 0.85114 0.0
H1068 H 0.79878 0.49973 0.78033 0.0
H1069 H 0.78027 0.5582 0.80273 0.0
H1070 H 0.80898 0.56512 0.87292 0.0
H1071 H 0.92251 0.49525 0.97561 0.0
H1072 H 0.8907 0.5088 0.99604 0.0
H1073 H 0.89502 0.54551 0.82734 0.0
H1074 H 0.92685 0.53202 0.80663 0.0
H1075 H 0.85724 0.52683 0.8443 0.0
H1076 H 0.90433 0.56678 0.95653 0.0
H1077 H 0.9329 0.57319 0.02816 0.0
H1078 H 0.90523 0.54551 0.18745 0.0
H1079 H 0.87664 0.53867 0.11665 0.0
C1080 C 0.80124 0.5673 0.09109 0.0
C1081 C 0.79252 0.54985 0.10843 0.0
C1082 C 0.81363 0.56792 0.03902 0.0
C1083 C 0.81772 0.55099 1.00483 0.0
C1084 C 0.80713 0.53414 0.01741 0.0
C1085 C 0.79454 0.5336 0.06898 0.0
C1086 C 0.8362 0.54934 0.97129 0.0
C1087 C 0.85305 0.55378 0.00818 0.0
C1088 C 0.83767 0.54019 0.91017 0.0
C1089 C 0.82038 0.53614 0.86766 0.0
C1090 C 0.81734 0.51771 0.84074 0.0
C1091 C 0.80104 0.51395 0.80079 0.0
C1092 C 0.78768 0.52853 0.78719 0.0
C1093 C 0.79059 0.5469 0.81351 0.0
C1094 C 0.80687 0.55074 0.85348 0.0
C1095 C 0.91655 0.50605 0.9426 0.0
C1096 C 0.92713 0.51278 0.89014 0.0
C1097 C 0.89847 0.51377 0.95424 0.0
C1098 C 0.8907 0.52819 0.91328 0.0
C1099 C 0.90087 0.5344 0.85933 0.0
C1100 C 0.91904 0.52682 0.84804 0.0
C1101 C 0.87249 0.53752 0.92983 0.0
C1102 C 0.85595 0.53443 0.89001 0.0
C1103 C 0.87117 0.54796 0.98833 0.0
C1104 C 0.88838 0.55212 0.03112 0.0
C1105 C 0.90441 0.56192 0.00668 0.0
C1106 C 0.92061 0.56563 0.04715 0.0
C1107 C 0.92092 0.55969 0.11221 0.0
C1108 C 0.90501 0.55006 0.13702 0.0
C1109 C 0.88879 0.54629 0.09677 0.0
H1110 H 0.93347 0.56259 0.14346 0.0
H1111 H 0.7751 0.52561 0.75615 0.0
H1112 H 0.06948 0.22421 0.94226 0.0
H1113 H 0.06522 0.19451 0.88008 0.0
H1114 H 1.00371 0.19759 0.90244 0.0
H1115 H 1.00811 0.22738 0.96658 0.0
H1116 H 0.01542 0.16206 0.92808 0.0
H1117 H 0.0259 0.20508 0.75134 0.0
H1118 H 0.04249 0.23076 0.69137 0.0
H1119 H 0.09344 0.19602 0.68538 0.0
H1120 H 0.07726 0.17022 0.74621 0.0
H1121 H 0.99702 0.08386 0.70204 0.0
H1122 H 0.99826 0.116 0.75161 0.0
H1123 H 0.06022 0.11262 0.76906 0.0
H1124 H 0.05906 0.08024 0.721 0.0
H1125 H 0.04662 0.14876 0.71925 0.0
H1126 H 0.03525 0.10565 0.89629 0.0
H1127 H 0.01843 0.08067 0.95849 0.0
H1128 H 0.96821 0.11646 0.96422 0.0
H1129 H 0.98444 0.14134 0.89994 0.0
C1130 C 0.05497 0.21886 0.93259 0.0
C1131 C 0.03912 0.22841 0.95888 0.0
C1132 C 0.05252 0.20176 0.89683 0.0
C1133 C 0.0341 0.19361 0.88551 0.0
C1134 C 0.01811 0.20345 0.91003 0.0
C1135 C 0.02058 0.22068 0.946 0.0
C1136 C 0.03185 0.17443 0.85124 0.0
C1137 C 0.02189 0.15934 0.88166 0.0
C1138 C 0.04071 0.17043 0.79137 0.0
C1139 C 0.05042 0.18579 0.75395 0.0
C1140 C 0.04069 0.20296 0.73764 0.0
C1141 C 0.05002 0.21753 0.70347 0.0
C1142 C 0.06904 0.21506 0.68495 0.0
C1143 C 0.07873 0.19793 0.70001 0.0
C1144 C 0.06947 0.18332 0.73426 0.0
C1145 C 1.01095 0.08994 0.71613 0.0
C1146 C 0.02795 0.07932 0.70726 0.0
C1147 C 1.01162 0.10837 0.74482 0.0
C1148 C 0.02933 0.11688 0.76453 0.0
C1149 C 0.04635 0.10649 0.75443 0.0
C1150 C 0.04566 0.08789 0.72697 0.0
C1151 C 0.03011 0.1365 0.79598 0.0
C1152 C 0.03992 0.15159 0.76519 0.0
C1153 C 0.02095 0.14053 0.85519 0.0
C1154 C 1.01097 0.12526 0.89217 0.0
C1155 C 0.02048 0.10804 0.90959 0.0
C1156 C 1.01105 0.09389 0.94538 0.0
C1157 C 0.9922 0.09689 0.9649 0.0
C1158 C 0.98275 0.11405 0.94866 0.0
C1159 C 0.99203 0.12817 0.91236 0.0
H1160 H 0.98496 0.08596 0.99289 0.0
H1161 H 0.07627 0.2264 0.6588 0.0
H1162 H 0.314 0.05254 0.9449 0.0
H1163 H 0.34261 0.05216 0.87674 0.0
H1164 H 0.36547 1.0044 0.98887 0.0
H1165 H 0.33679 1.00403 0.05344 0.0
H1166 H 0.37841 0.05928 0.89392 0.0
H1167 H 0.39705 0.97752 0.91429 0.0
H1168 H 0.38008 0.9462 0.91647 0.0
H1169 H 0.33061 0.97141 0.81882 0.0
H1170 H 0.34737 1.00281 0.81532 0.0
H1171 H 0.47751 0.0476 0.81444 0.0
H1172 H 0.44609 0.04798 0.86557 0.0
H1173 H 0.4229 1.01022 0.71656 0.0
H1174 H 0.4542 1.01007 0.66411 0.0
H1175 H 0.40814 0.99898 0.81735 0.0
H1176 H 0.41176 0.06155 0.72707 0.0
H1177 H 0.42571 0.0935 0.70394 0.0
H1178 H 0.42563 0.10757 0.9074 0.0
H1179 H 0.41187 0.0756 0.93185 0.0
C1180 C 0.32486 0.04159 0.95372 0.0
C1181 C 0.32281 0.02833 1.00525 0.0
C1182 C 0.34148 0.04154 0.91512 0.0
C1183 C 0.35658 0.02816 0.92644 0.0
C1184 C 0.35421 0.01469 0.97701 0.0
C1185 C 0.33766 0.01462 0.01482 0.0
C1186 C 0.37501 0.02847 0.88776 0.0
C1187 C 0.38481 0.04602 0.87734 0.0
C1188 C 0.38356 1.01142 0.86348 0.0
C1189 C 0.37342 0.99256 0.86515 0.0
C1190 C 0.38258 0.97636 0.89308 0.0
C1191 C 0.37299 0.9586 0.89459 0.0
C1192 C 0.35426 0.95684 0.86799 0.0
C1193 C 0.3451 0.97282 0.83964 0.0
C1194 C 0.35462 0.9906 0.83797 0.0
C1195 C 0.4657 0.03953 0.79179 0.0
C1196 C 0.46861 0.02901 0.73418 0.0
C1197 C 0.44753 0.03984 0.82113 0.0
C1198 C 0.43154 0.02955 0.79429 0.0
C1199 C 0.43462 0.01869 0.73769 0.0
C1200 C 0.45267 0.01862 0.70767 0.0
C1201 C 0.41184 0.02971 0.82533 0.0
C1202 C 0.40178 1.01224 0.83415 0.0
C1203 C 0.4027 0.0469 0.84565 0.0
C1204 C 0.41098 0.06612 0.83137 0.0
C1205 C 0.41485 0.07141 0.76695 0.0
C1206 C 0.4227 0.08953 0.75358 0.0
C1207 C 0.42661 0.10253 0.8042 0.0
C1208 C 0.42262 0.09747 0.86827 0.0
C1209 C 0.41478 0.07936 0.88191 0.0
H1210 H 0.43269 0.11656 0.79377 0.0
H1211 H 0.34686 0.94308 0.86923 0.0
H1212 H 0.51286 0.34122 0.07624 0.0
H1213 H 0.51071 0.36921 1.00505 0.0
H1214 H 0.52468 0.33388 0.84096 0.0
H1215 H 0.52765 0.30565 0.91346 0.0
H1216 H 0.54455 0.36657 0.8358 0.0
H1217 H 0.47806 0.35251 0.86165 0.0
H1218 H 0.44848 0.34494 0.92015 0.0
H1219 H 0.45327 0.39874 0.02232 0.0
H1220 H 0.48303 0.40653 0.96512 0.0
H1221 H 0.52753 0.44875 0.62715 0.0
H1222 H 0.52624 0.41675 0.67751 0.0
H1223 H 0.51038 0.44254 0.85879 0.0
H1224 H 0.51091 0.47434 0.80816 0.0
H1225 H 0.4898 0.41214 0.84216 0.0
H1226 H 0.55843 0.42432 0.82192 0.0
H1227 H 0.58751 0.43177 0.76033 0.0
H1228 H 0.57782 0.38126 0.64342 0.0
H1229 H 0.54865 0.37353 0.70397 0.0
C1230 C 0.51538 0.33926 0.02492 0.0
C1231 C 0.52051 0.32103 1.00094 0.0
C1232 C 0.51399 0.35538 0.98388 0.0
C1233 C 0.51731 0.35386 0.91695 0.0
C1234 C 0.52199 0.33558 0.89226 0.0
C1235 C 0.52347 0.31934 0.93366 0.0
C1236 C 0.51649 0.37156 0.87421 0.0
C1237 C 0.5324 0.37635 0.83639 0.0
C1238 C 0.50082 0.38464 0.87495 0.0
C1239 C 0.48287 0.38004 0.90937 0.0
C1240 C 0.47288 0.36267 0.89691 0.0
C1241 C 0.45607 0.35835 0.9298 0.0
C1242 C 0.44902 0.37133 0.97501 0.0
C1243 C 0.45875 0.38869 0.98732 0.0
C1244 C 0.47558 0.39308 0.95461 0.0
C1245 C 0.52369 0.44763 0.67774 0.0
C1246 C 0.51929 0.46429 0.71333 0.0
C1247 C 0.52311 0.42923 0.70679 0.0
C1248 C 0.51849 0.42698 0.77273 0.0
C1249 C 0.51397 0.44364 0.80801 0.0
C1250 C 0.51432 0.46196 0.77885 0.0
C1251 C 0.51811 0.40748 0.80541 0.0
C1252 C 0.50192 0.40232 0.84123 0.0
C1253 C 0.53348 0.39407 0.80252 0.0
C1254 C 0.55127 0.39846 0.76711 0.0
C1255 C 0.56249 0.41483 0.78296 0.0
C1256 C 0.579 0.41908 0.74829 0.0
C1257 C 0.58453 0.40696 0.69804 0.0
C1258 C 0.57358 0.39056 0.68249 0.0
C1259 C 0.55706 0.38624 0.71699 0.0
H1260 H 0.59727 0.4103 0.67107 0.0
H1261 H 0.43599 0.36796 1.00043 0.0
H1262 H 0.23695 0.52779 0.90453 0.0
H1263 H 0.20608 0.52901 0.8423 0.0
H1264 H 0.19199 0.47197 0.91005 0.0
H1265 H 0.22269 0.47089 0.97292 0.0
H1266 H 0.17941 0.47848 0.77918 0.0
H1267 H 0.17582 0.50825 0.98926 0.0
H1268 H 0.18565 0.53084 0.07685 0.0
H1269 H 0.17381 0.57876 0.94937 0.0
H1270 H 0.16424 0.55643 0.86057 0.0
H1271 H 0.07611 0.48088 0.74897 0.0
H1272 H 0.10968 0.478 0.78922 0.0
H1273 H 0.12079 0.5366 0.73079 0.0
H1274 H 0.08741 0.53958 0.69035 0.0
H1275 H 0.13546 0.52957 0.85324 0.0
H1276 H 0.13808 0.49991 0.64396 0.0
H1277 H 0.12835 0.47733 0.55628 0.0
H1278 H 0.1418 0.42936 0.68187 0.0
H1279 H 0.15138 0.45168 0.77068 0.0
C1280 C 0.22758 0.51525 0.90404 0.0
C1281 C 0.23235 0.49913 0.94276 0.0
C1282 C 0.20983 0.51603 0.86911 0.0
C1283 C 0.19655 0.50065 0.87195 0.0
C1284 C 0.20195 0.48399 0.90688 0.0
C1285 C 0.21955 0.48333 0.94248 0.0
C1286 C 0.17646 0.50258 0.84375 0.0
C1287 C 0.16976 0.48955 0.79577 0.0
C1288 C 0.16385 0.51718 0.8646 0.0
C1289 C 0.16954 0.53065 0.91798 0.0
C1290 C 0.17549 0.5236 0.97968 0.0
C1291 C 0.18099 0.53636 0.02959 0.0
C1292 C 0.18041 0.55622 0.01862 0.0
C1293 C 0.17429 0.56337 0.95775 0.0
C1294 C 0.16883 0.55067 0.9076 0.0
C1295 C 0.0857 0.49315 0.74444 0.0
C1296 C 0.07893 0.51047 0.71631 0.0
C1297 C 0.10495 0.49146 0.76733 0.0
C1298 C 0.11791 0.50706 0.76292 0.0
C1299 C 0.11116 0.52435 0.73497 0.0
C1300 C 0.092 0.526 0.7116 0.0
C1301 C 0.13836 0.5055 0.78839 0.0
C1302 C 0.14513 0.51857 0.83622 0.0
C1303 C 0.151 0.49094 0.7674 0.0
C1304 C 0.14525 0.47747 0.71419 0.0
C1305 C 0.13881 0.48455 0.65308 0.0
C1306 C 0.13335 0.47179 0.60313 0.0
C1307 C 0.1344 0.45192 0.61355 0.0
C1308 C 0.14096 0.44476 0.67391 0.0
C1309 C 0.14643 0.45745 0.72405 0.0
H1310 H 0.13018 0.44207 0.57482 0.0
H1311 H 0.18466 0.56609 0.05729 0.0
H1312 H 0.9745 0.8189 0.33837 0.0
H1313 H 0.98056 0.84913 0.39648 0.0
H1314 H 0.04159 0.83791 0.40045 0.0
H1315 H 0.0356 0.80762 0.33981 0.0
H1316 H 0.01749 0.85494 0.52933 0.0
H1317 H 0.03839 0.86693 0.30757 0.0
H1318 H 0.03449 0.86519 0.18794 0.0
H1319 H 0.97989 0.89382 0.19605 0.0
H1320 H 0.98354 0.89579 0.31589 0.0
H1321 H 0.04217 0.9514 0.62852 0.0
H1322 H 0.04181 0.9189 0.58235 0.0
H1323 H 0.99174 0.93343 0.46245 0.0
H1324 H 0.99249 0.96608 0.50665 0.0
H1325 H 1.01321 0.91363 0.39139 0.0
H1326 H 0.99151 0.90338 0.607 0.0
H1327 H 0.9927 0.90491 0.72673 0.0
H1328 H 0.04489 0.87184 0.73319 0.0
H1329 H 0.04425 0.87046 0.61307 0.0
C1330 C 0.98923 0.82258 0.35284 0.0
C1331 C 1.00455 0.81067 0.33443 0.0
C1332 C 0.99267 0.83999 0.38585 0.0
C1333 C 1.01152 0.846 0.40251 0.0
C1334 C 0.02688 0.83362 0.38815 0.0
C1335 C 0.02344 0.81617 0.35412 0.0
C1336 C 0.01483 0.86568 0.43133 0.0
C1337 C 0.01703 0.86779 0.49914 0.0
C1338 C 1.01343 0.88254 0.3925 0.0
C1339 C 1.01115 0.88133 0.32064 0.0
C1340 C 0.02549 0.8727 0.28386 0.0
C1341 C 0.02335 0.87174 0.21602 0.0
C1342 C 1.0069 0.87929 0.18441 0.0
C1343 C 0.99261 0.88794 0.2206 0.0
C1344 C 0.99474 0.88906 0.28846 0.0
C1345 C 0.03097 0.94768 0.59267 0.0
C1346 C 0.0173 0.96156 0.57186 0.0
C1347 C 0.03073 0.92893 0.56622 0.0
C1348 C 0.0166 0.92328 0.51893 0.0
C1349 C 1.0029 0.93714 0.49846 0.0
C1350 C 1.00327 0.95593 0.52428 0.0
C1351 C 0.0161 0.90316 0.49019 0.0
C1352 C 0.0141 0.90091 0.42209 0.0
C1353 C 0.01745 0.88617 0.52901 0.0
C1354 C 0.01795 0.88701 0.60107 0.0
C1355 C 1.00334 0.89657 0.63391 0.0
C1356 C 1.0039 0.89739 0.70187 0.0
C1357 C 0.01887 0.88847 0.73757 0.0
C1358 C 0.03333 0.87875 0.7054 0.0
C1359 C 0.03288 0.87796 0.63738 0.0
H1360 H 0.01922 0.88902 0.79011 0.0
H1361 H 1.00525 0.87849 0.13191 0.0
H1362 H 0.73199 0.03359 0.31294 0.0
H1363 H 0.70234 0.03847 0.37417 0.0
H1364 H 0.69193 0.97724 0.37321 0.0
H1365 H 0.72134 0.97235 0.31358 0.0
H1366 H 0.65952 0.99728 0.33104 0.0
H1367 H 0.70702 1.0016 0.50713 0.0
H1368 H 0.73485 0.01519 0.56914 0.0
H1369 H 0.70549 0.06922 0.58458 0.0
H1370 H 0.67756 0.05606 0.52164 0.0
H1371 H 0.57793 0.98793 0.52995 0.0
H1372 H 0.60952 0.98551 0.48098 0.0
H1373 H 0.62208 0.0444 0.53429 0.0
H1374 H 0.59084 0.04657 0.58553 0.0
H1375 H 0.65373 0.02753 0.54765 0.0
H1376 H 0.60846 0.02699 0.36901 0.0
H1377 H 0.5804 0.01676 0.30049 0.0
H1378 H 0.60516 0.96062 0.27972 0.0
H1379 H 0.63325 0.97042 0.34894 0.0
C1380 C 0.72369 0.02113 0.3274 0.0
C1381 C 0.72931 1.00254 0.30801 0.0
C1382 C 0.70654 0.02394 0.36206 0.0
C1383 C 0.69449 1.00825 0.37826 0.0
C1384 C 0.70061 0.9897 0.36122 0.0
C1385 C 0.71765 0.9869 0.32722 0.0
C1386 C 0.67525 1.0108 0.41057 0.0
C1387 C 0.65835 1.00371 0.3788 0.0
C1388 C 0.67326 0.01991 0.47185 0.0
C1389 C 0.69024 0.02789 0.50882 0.0
C1390 C 0.70658 0.01647 0.52279 0.0
C1391 C 0.72236 0.02408 0.55842 0.0
C1392 C 0.72197 0.04308 0.58059 0.0
C1393 C 0.70579 0.05451 0.56727 0.0
C1394 C 0.68996 0.04697 0.53167 0.0
C1395 C 0.58737 1.00041 0.53138 0.0
C1396 C 0.58148 0.01749 0.56192 0.0
C1397 C 0.60557 0.99907 0.50263 0.0
C1398 C 0.61851 0.01489 0.50181 0.0
C1399 C 0.61272 0.03186 0.53336 0.0
C1400 C 0.59463 0.03312 0.56284 0.0
C1401 C 0.63786 0.01381 0.46834 0.0
C1402 C 0.6548 0.02115 0.49977 0.0
C1403 C 0.63987 1.00544 0.40569 0.0
C1404 C 0.62286 0.99937 0.36489 0.0
C1405 C 0.60783 1.0124 0.35038 0.0
C1406 C 0.59193 1.00669 0.31131 0.0
C1407 C 0.59096 0.98804 0.28594 0.0
C1408 C 0.6059 0.97506 0.29954 0.0
C1409 C 0.62182 0.98068 0.33869 0.0
H1410 H 0.57866 0.98366 0.25558 0.0
H1411 H 0.73419 0.04893 0.60826 0.0
H1412 H 0.56072 0.72881 0.30986 0.0
H1413 H 0.56253 0.69848 0.37257 0.0
H1414 H 0.50068 0.6924 0.35351 0.0
H1415 H 0.49889 0.72254 0.29223 0.0
H1416 H 0.51167 0.6814 0.47042 0.0
H1417 H 0.53229 0.66772 0.25482 0.0
H1418 H 0.55245 0.67132 0.15889 0.0
H1419 H 0.60277 0.65596 0.27467 0.0
H1420 H 0.58292 0.65253 0.37159 0.0
H1421 H 0.49801 0.58255 0.54075 0.0
H1422 H 0.49948 0.61432 0.49048 0.0
H1423 H 0.56167 0.61205 0.49855 0.0
H1424 H 0.56013 0.57946 0.54479 0.0
H1425 H 0.55247 0.6283 0.39251 0.0
H1426 H 0.53107 0.6452 0.61111 0.0
H1427 H 0.50993 0.64222 0.70479 0.0
H1428 H 0.46003 0.65035 0.57841 0.0
H1429 H 0.48099 0.65408 0.48434 0.0
C1430 C 0.54752 0.72121 0.32053 0.0
C1431 C 0.52966 0.72818 0.29618 0.0
C1432 C 0.54855 0.7037 0.35567 0.0
C1433 C 0.53176 0.69278 0.36725 0.0
C1434 C 0.5139 0.70032 0.34551 0.0
C1435 C 0.51288 0.71765 0.31042 0.0
C1436 C 0.5325 0.67334 0.40021 0.0
C1437 C 0.52058 0.66982 0.453 0.0
C1438 C 0.54421 0.65804 0.37872 0.0
C1439 C 0.55616 0.6601 0.32061 0.0
C1440 C 0.54768 0.66527 0.25995 0.0
C1441 C 0.55904 0.66725 0.20538 0.0
C1442 C 0.57889 0.66393 0.21073 0.0
C1443 C 0.5874 0.65857 0.27064 0.0
C1444 C 0.5761 0.6566 0.3254 0.0
C1445 C 0.51204 0.58881 0.53213 0.0
C1446 C 0.52896 0.57836 0.54742 0.0
C1447 C 0.5129 0.60725 0.50391 0.0
C1448 C 0.53073 0.61628 0.49223 0.0
C1449 C 0.54767 0.60574 0.50709 0.0
C1450 C 0.5468 0.58702 0.5338 0.0
C1451 C 0.53164 0.63633 0.46304 0.0
C1452 C 0.5438 0.63995 0.41069 0.0
C1453 C 0.52007 0.65176 0.48454 0.0
C1454 C 0.50754 0.64973 0.54091 0.0
C1455 C 0.51559 0.64633 0.60346 0.0
C1456 C 0.50364 0.64457 0.65659 0.0
C1457 C 0.48361 0.64588 0.64744 0.0
C1458 C 0.47552 0.64922 0.58531 0.0
C1459 C 0.48743 0.65139 0.53225 0.0
H1460 H 0.47433 0.64455 0.68841 0.0
H1461 H 0.58767 0.66546 0.16842 0.0
H1462 H 0.80096 0.51529 0.3886 0.0
H1463 H 0.83076 0.51134 0.45656 0.0
H1464 H 0.85442 0.56269 0.3714 0.0
H1465 H 0.82482 0.56704 0.30582 0.0
H1466 H 0.87705 0.52689 0.35953 0.0
H1467 H 0.84336 0.5655 0.51657 0.0
H1468 H 0.81755 0.57239 0.59266 0.0
H1469 H 0.83165 0.52107 0.70086 0.0
H1470 H 0.85728 0.51365 0.6246 0.0
H1471 H 0.96777 0.54519 0.50441 0.0
H1472 H 0.93454 0.54746 0.46274 0.0
H1473 H 0.91606 0.50968 0.61592 0.0
H1474 H 0.94935 0.50818 0.65993 0.0
H1475 H 0.8894 0.53431 0.59731 0.0
H1476 H 0.92155 0.49423 0.45023 0.0
H1477 H 0.94696 0.48393 0.3771 0.0
H1478 H 0.93507 0.53244 0.25226 0.0
H1479 H 0.90961 0.54312 0.32497 0.0
C1480 C 0.81229 0.52602 0.38593 0.0
C1481 C 0.81054 0.54135 0.34105 0.0
C1482 C 0.82938 0.52369 0.42448 0.0
C1483 C 0.84497 0.53661 0.41857 0.0
C1484 C 0.84273 0.55244 0.37654 0.0
C1485 C 0.82574 0.55489 0.33898 0.0
C1486 C 0.86428 0.53308 0.45106 0.0
C1487 C 0.87977 0.52863 0.41151 0.0
C1488 C 0.86775 0.53454 0.51921 0.0
C1489 C 0.85205 0.53885 0.56416 0.0
C1490 C 0.84076 0.55551 0.55593 0.0
C1491 C 0.8262 0.55955 0.59927 0.0
C1492 C 0.82289 0.54713 0.65141 0.0
C1493 C 0.83416 0.53065 0.66035 0.0
C1494 C 0.8487 0.52651 0.61704 0.0
C1495 C 0.95666 0.53739 0.52949 0.0
C1496 C 0.96136 0.52635 0.58526 0.0
C1497 C 0.93757 0.53857 0.50522 0.0
C1498 C 0.92261 0.52828 0.53468 0.0
C1499 C 0.92719 0.51767 0.59163 0.0
C1500 C 0.9463 0.51679 0.61678 0.0
C1501 C 0.9024 0.52858 0.50549 0.0
C1502 C 0.88673 0.53236 0.54542 0.0
C1503 C 0.89859 0.52595 0.43772 0.0
C1504 C 0.91378 0.51956 0.39341 0.0
C1505 C 0.92441 0.50277 0.40737 0.0
C1506 C 0.93881 0.49685 0.36593 0.0
C1507 C 0.94266 0.50755 0.31011 0.0
C1508 C 0.93205 0.52416 0.2955 0.0
C1509 C 0.91761 0.53014 0.33675 0.0
H1510 H 0.95384 0.50295 0.27812 0.0
H1511 H 0.81166 0.55033 0.68499 0.0
loop_
_geom_bond_atom_site_label_1
_geom_bond_atom_site_label_2
_geom_bond_distance
_geom_bond_site_symmetry_2
_ccdc_geom_bond_type
H0 C1 0.949 . S
C1 H0 0.949 . S
C1 C2 1.395 . S
C1 C3 1.391 . S
C2 C1 1.395 . S
C2 C5 1.390 . S
C3 C1 1.391 . S
C3 C7 1.387 . S
C3 C8 1.491 . S
H4 C5 0.950 . S
C5 C2 1.390 . S
C5 H4 0.950 . S
C5 C6 1.378 . S
C6 C5 1.378 . S
C6 C7 1.409 . S
C7 C3 1.387 . S
C7 C6 1.409 . S
C7 H9 0.951 . S
C8 C3 1.491 . S
C8 C10 1.382 . S
C8 C12 1.404 . S
H9 C7 0.951 . S
C10 C8 1.382 . S
C10 C11 1.390 . S
C10 H15 0.949 . S
C11 C10 1.390 . S
C11 C16 1.399 . S
C12 C8 1.404 . S
C12 H13 0.950 . S
C12 C14 1.375 . S
H13 C12 0.950 . S
C14 C12 1.375 . S
C14 C16 1.382 . S
C14 H18 0.950 . S
H15 C10 0.949 . S
C16 C11 1.399 . S
C16 C14 1.382 . S
C16 H17 0.952 . S
H17 C16 0.952 . S
H18 C14 0.950 . S
H19 C20 0.949 . S
C20 H19 0.949 . S
C20 C21 1.395 . S
C20 C22 1.391 . S
C21 C20 1.395 . S
C21 C24 1.390 . S
C22 C20 1.391 . S
C22 C26 1.387 . S
C22 C27 1.491 . S
H23 C24 0.950 . S
C24 C21 1.390 . S
C24 H23 0.950 . S
C24 C25 1.378 . S
C25 C24 1.378 . S
C25 C26 1.409 . S
C26 C22 1.387 . S
C26 C25 1.409 . S
C26 H28 0.951 . S
C27 C22 1.491 . S
C27 C29 1.382 . S
C27 C31 1.404 . S
H28 C26 0.951 . S
C29 C27 1.382 . S
C29 C30 1.390 . S
C29 H34 0.949 . S
C30 C29 1.390 . S
C30 C35 1.399 . S
C31 C27 1.404 . S
C31 H32 0.950 . S
C31 C33 1.375 . S
H32 C31 0.950 . S
C33 C31 1.375 . S
C33 C35 1.382 . S
C33 H37 0.950 . S
H34 C29 0.949 . S
C35 C30 1.399 . S
C35 C33 1.382 . S
C35 H36 0.952 . S
H36 C35 0.952 . S
H37 C33 0.950 . S
H38 C39 0.949 . S
C39 H38 0.949 . S
C39 C40 1.395 . S
C39 C41 1.391 . S
C40 C39 1.395 . S
C40 C43 1.390 . S
C41 C39 1.391 . S
C41 C45 1.387 . S
C41 C46 1.491 . S
H42 C43 0.950 . S
C43 C40 1.390 . S
C43 H42 0.950 . S
C43 C44 1.378 . S
C44 C43 1.378 . S
C44 C45 1.409 . S
C45 C41 1.387 . S
C45 C44 1.409 . S
C45 H47 0.951 . S
C46 C41 1.491 . S
C46 C48 1.382 . S
C46 C50 1.404 . S
H47 C45 0.951 . S
C48 C46 1.382 . S
C48 C49 1.390 . S
C48 H53 0.949 . S
C49 C48 1.390 . S
C49 C54 1.399 . S
C50 C46 1.404 . S
C50 H51 0.950 . S
C50 C52 1.375 . S
H51 C50 0.950 . S
C52 C50 1.375 . S
C52 C54 1.382 . S
C52 H56 0.950 . S
H53 C48 0.949 . S
C54 C49 1.399 . S
C54 C52 1.382 . S
C54 H55 0.952 . S
H55 C54 0.952 . S
H56 C52 0.950 . S
H57 C58 0.949 . S
C58 H57 0.949 . S
C58 C59 1.395 . S
C58 C60 1.391 . S
C59 C58 1.395 . S
C59 C62 1.390 . S
C60 C58 1.391 . S
C60 C64 1.387 . S
C60 C65 1.491 . S
H61 C62 0.950 . S
C62 C59 1.390 . S
C62 H61 0.950 . S
C62 C63 1.378 . S
C63 C62 1.378 . S
C63 C64 1.409 . S
C64 C60 1.387 . S
C64 C63 1.409 . S
C64 H66 0.951 . S
C65 C60 1.491 . S
C65 C67 1.382 . S
C65 C69 1.404 . S
H66 C64 0.951 . S
C67 C65 1.382 . S
C67 C68 1.390 . S
C67 H72 0.949 . S
C68 C67 1.390 . S
C68 C73 1.399 . S
C69 C65 1.404 . S
C69 H70 0.950 . S
C69 C71 1.375 . S
H70 C69 0.950 . S
C71 C69 1.375 . S
C71 C73 1.382 . S
C71 H75 0.950 . S
H72 C67 0.949 . S
C73 C68 1.399 . S
C73 C71 1.382 . S
C73 H74 0.952 . S
H74 C73 0.952 . S
H75 C71 0.950 . S
H76 C77 0.949 . S
C77 H76 0.949 . S
C77 C78 1.395 . S
C77 C79 1.391 . S
C78 C77 1.395 . S
C78 C81 1.390 . S
C79 C77 1.391 . S
C79 C83 1.387 . S
C79 C84 1.491 . S
H80 C81 0.950 . S
C81 C78 1.390 . S
C81 H80 0.950 . S
C81 C82 1.378 1_554 S
C82 C81 1.378 1_556 S
C82 C83 1.409 1_556 S
C83 C79 1.387 . S
C83 C82 1.409 1_554 S
C83 H85 0.951 1_554 S
C84 C79 1.491 . S
C84 C86 1.382 . S
C84 C88 1.404 . S
H85 C83 0.951 1_556 S
C86 C84 1.382 . S
C86 C87 1.390 . S
C86 H91 0.949 . S
C87 C86 1.390 . S
C87 C92 1.399 . S
C88 C84 1.404 . S
C88 H89 0.950 1_554 S
C88 C90 1.375 . S
H89 C88 0.950 1_556 S
C90 C88 1.375 . S
C90 C92 1.382 . S
C90 H94 0.959 . S
H91 C86 0.949 . S
C92 C87 1.399 . S
C92 C90 1.382 . S
C92 H93 0.952 . S
H93 C92 0.952 . S
H94 C90 0.959 . S
H95 C96 0.949 . S
C96 H95 0.949 . S
C96 C97 1.395 . S
C96 C98 1.391 . S
C97 C96 1.395 . S
C97 C100 1.390 . S
C98 C96 1.391 . S
C98 C102 1.387 1_554 S
C98 C103 1.491 . S
H99 C100 0.950 . S
C100 C97 1.390 . S
C100 H99 0.950 . S
C100 C101 1.378 1_554 S
C101 C100 1.378 1_556 S
C101 C102 1.409 . S
C102 C98 1.387 1_556 S
C102 C101 1.409 . S
C102 H104 0.951 . S
C103 C98 1.491 . S
C103 C105 1.382 . S
C103 C107 1.404 1_554 S
H104 C102 0.951 . S
C105 C103 1.382 . S
C105 C106 1.390 . S
C105 H110 0.949 . S
C106 C105 1.390 . S
C106 C111 1.399 . S
C107 C103 1.404 1_556 S
C107 H108 0.950 . S
C107 C109 1.375 . S
H108 C107 0.950 . S
C109 C107 1.375 . S
C109 C111 1.382 1_556 S
C109 H113 0.950 . S
H110 C105 0.949 . S
C111 C106 1.399 . S
C111 C109 1.382 1_554 S
C111 H112 0.952 . S
H112 C111 0.952 . S
H113 C109 0.950 . S
H114 C115 0.949 . S
C115 H114 0.949 . S
C115 C116 1.395 . S
C115 C117 1.391 1_554 S
C116 C115 1.395 . S
C116 C119 1.390 1_554 S
C117 C115 1.391 1_556 S
C117 C121 1.387 . S
C117 C122 1.491 . S
H118 C119 0.950 . S
C119 C116 1.390 1_556 S
C119 H118 0.950 . S
C119 C120 1.378 . S
C120 C119 1.378 . S
C120 C121 1.409 . S
C121 C117 1.387 . S
C121 C120 1.409 . S
C121 H123 0.951 . S
C122 C117 1.491 . S
C122 C124 1.382 1_556 S
C122 C126 1.404 . S
H123 C121 0.951 . S
C124 C122 1.382 1_554 S
C124 C125 1.390 . S
C124 H129 0.949 . S
C125 C124 1.390 . S
C125 C130 1.399 1_554 S
C126 C122 1.404 . S
C126 H127 0.950 . S
C126 C128 1.375 . S
H127 C126 0.950 . S
C128 C126 1.375 . S
C128 C130 1.382 . S
C128 H132 0.950 . S
H129 C124 0.949 . S
C130 C125 1.399 1_556 S
C130 C128 1.382 . S
C130 H131 0.952 . S
H131 C130 0.952 . S
H132 C128 0.950 . S
H133 C134 0.949 . S
C134 H133 0.949 . S
C134 C135 1.395 . S
C134 C136 1.391 . S
C135 C134 1.395 . S
C135 C138 1.390 . S
C136 C134 1.391 . S
C136 C140 1.387 1_554 S
C136 C141 1.491 . S
H137 C138 0.950 . S
C138 C135 1.390 . S
C138 H137 0.950 . S
C138 C139 1.378 1_554 S
C139 C138 1.378 1_556 S
C139 C140 1.409 . S
C140 C136 1.387 1_556 S
C140 C139 1.409 . S
C140 H142 0.951 . S
C141 C136 1.491 . S
C141 C143 1.382 . S
C141 C145 1.404 . S
H142 C140 0.951 . S
C143 C141 1.382 . S
C143 C144 1.390 . S
C143 H148 0.949 . S
C144 C143 1.390 . S
C144 C149 1.399 . S
C145 C141 1.404 . S
C145 H146 0.950 1_554 S
C145 C147 1.375 . S
H146 C145 0.950 1_556 S
C147 C145 1.375 . S
C147 C149 1.382 . S
C147 H151 0.950 1_554 S
H148 C143 0.949 . S
C149 C144 1.399 . S
C149 C147 1.382 . S
C149 H150 0.952 . S
H150 C149 0.952 . S
H151 C147 0.950 1_556 S
Eu152 C161 2.824 1_655 S
Eu152 O163 2.392 . S
Eu152 O165 2.418 1_545 S
Eu152 O170 2.373 1_655 S
Eu152 O173 2.488 . S
Eu152 O174 2.471 1_655 S
Eu152 O175 2.349 1_655 S
Eu153 O162 2.379 1_455 S
Eu153 O166 2.488 . S
Eu153 O167 2.471 . S
Eu153 O168 2.349 . S
Eu153 O171 2.392 1_565 S
Eu153 O172 2.418 1_565 S
Eu153 C182 2.828 . S
C154 O172 1.244 . S
C154 O175 1.265 . S
C155 C156 1.379 . S
C155 C159 1.373 1_455 S
C155 C161 1.510 . S
C156 C155 1.379 . S
C156 C158 1.369 . S
C156 H184 0.930 . S
C157 C159 1.383 1_455 S
C157 C160 1.382 . S
C157 H185 0.930 1_455 S
C158 C156 1.369 . S
C158 C160 1.392 . S
C158 H186 0.930 . S
C159 C155 1.373 1_655 S
C159 C157 1.383 1_655 S
C159 H187 0.931 . S
C160 C157 1.382 . S
C160 C158 1.392 . S
C161 Eu152 2.824 1_455 S
C161 C155 1.510 . S
C161 O173 1.242 1_455 S
C161 O174 1.247 . S
O162 Eu153 2.379 1_655 S
O162 C164 1.250 1_565 S
O163 Eu152 2.392 . S
O163 C164 1.242 . S
C164 O162 1.250 1_545 S
C164 O163 1.242 . S
O165 Eu152 2.418 1_565 S
O165 C169 1.266 . S
O166 Eu153 2.488 . S
O166 C182 1.249 . S
O167 Eu153 2.471 . S
O167 C182 1.244 . S
O168 Eu153 2.349 . S
O168 C169 1.246 1_455 S
C169 O165 1.266 . S
C169 O168 1.246 1_655 S
O170 Eu152 2.373 1_455 S
O170 C183 1.258 . S
O171 Eu153 2.392 1_545 S
O171 C183 1.242 . S
O172 Eu153 2.418 1_545 S
O172 C154 1.244 . S
O173 Eu152 2.488 . S
O173 C161 1.242 1_655 S
O174 Eu152 2.471 1_455 S
O174 C161 1.247 . S
O175 Eu152 2.349 1_455 S
O175 C154 1.265 . S
C176 C177 1.379 . S
C176 C180 1.373 . S
C176 C182 1.505 . S
C177 C176 1.379 . S
C177 C179 1.369 1_455 S
C177 H188 0.930 1_455 S
C178 C180 1.383 . S
C178 C181 1.382 . S
C178 H189 0.930 1_556 S
C179 C177 1.369 1_655 S
C179 C181 1.392 1_655 S
C179 H190 0.930 . S
C180 C176 1.373 . S
C180 C178 1.383 . S
C180 H191 0.931 . S
C181 C178 1.382 . S
C181 C179 1.392 1_455 S
C182 Eu153 2.828 . S
C182 O166 1.249 . S
C182 O167 1.244 . S
C182 C176 1.505 . S
C183 O170 1.258 . S
C183 O171 1.242 . S
H184 C156 0.930 . S
H185 C157 0.930 1_655 S
H186 C158 0.930 . S
H187 C159 0.931 . S
H188 C177 0.930 1_655 S
H189 C178 0.930 1_554 S
H190 C179 0.930 . S
H191 C180 0.931 . S
Eu192 C201 2.828 . S
Eu192 O203 2.392 . S
Eu192 O205 2.418 . S
Eu192 O210 2.373 . S
Eu192 O213 2.488 . S
Eu192 O214 2.471 . S
Eu192 O215 2.349 1_545 S
Eu193 O202 2.373 1_565 S
Eu193 O206 2.488 . S
Eu193 O207 2.471 1_565 S
Eu193 O208 2.349 1_565 S
Eu193 O211 2.392 . S
Eu193 O212 2.418 . S
Eu193 C222 2.828 . S
C194 O212 1.244 . S
C194 O215 1.265 . S
C195 C196 1.433 . S
C195 C199 1.373 . S
C195 C201 1.505 . S
C196 C195 1.433 . S
C196 C198 1.364 1_545 S
C196 H224 0.882 1_545 S
C197 C199 1.383 . S
C197 C200 1.382 . S
C197 H225 0.930 . S
C198 C196 1.364 1_565 S
C198 C200 1.360 1_565 S
C198 H226 0.967 . S
C199 C195 1.373 . S
C199 C197 1.383 . S
C199 H227 0.931 . S
C200 C197 1.382 . S
C200 C198 1.360 1_545 S
C201 Eu192 2.828 . S
C201 C195 1.505 . S
C201 O213 1.249 . S
C201 O214 1.244 . S
O202 Eu193 2.373 1_545 S
O202 C204 1.258 . S
O203 Eu192 2.392 . S
O203 C204 1.242 . S
C204 O202 1.258 . S
C204 O203 1.242 . S
O205 Eu192 2.418 . S
O205 C209 1.244 . S
O206 Eu193 2.488 . S
O206 C222 1.249 . S
O207 Eu193 2.471 1_545 S
O207 C222 1.244 1_545 S
O208 Eu193 2.349 1_545 S
O208 C209 1.265 . S
C209 O205 1.244 . S
C209 O208 1.265 . S
O210 Eu192 2.373 . S
O210 C223 1.233 1_545 S
O211 Eu193 2.392 . S
O211 C223 1.258 . S
O212 Eu193 2.418 . S
O212 C194 1.244 . S
O213 Eu192 2.488 . S
O213 C201 1.249 . S
O214 Eu192 2.471 . S
O214 C201 1.244 . S
O215 Eu192 2.349 1_565 S
O215 C194 1.265 . S
C216 C217 1.380 1_565 S
C216 C220 1.372 . S
C216 C222 1.505 . S
C217 C216 1.380 1_545 S
C217 C219 1.369 . S
C217 H228 0.930 . S
C218 C220 1.383 . S
C218 C221 1.382 1_565 S
C218 H229 0.930 . S
C219 C217 1.369 . S
C219 C221 1.392 . S
C219 H230 0.930 . S
C220 C216 1.372 . S
C220 C218 1.383 . S
C220 H231 0.931 . S
C221 C218 1.382 1_545 S
C221 C219 1.392 . S
C222 Eu193 2.828 . S
C222 O206 1.249 . S
C222 O207 1.244 1_565 S
C222 C216 1.505 . S
C223 O210 1.233 1_565 S
C223 O211 1.258 . S
H224 C196 0.882 1_565 S
H225 C197 0.930 . S
H226 C198 0.967 . S
H227 C199 0.931 . S
H228 C217 0.930 . S
H229 C218 0.930 . S
H230 C219 0.930 . S
H231 C220 0.931 . S
Eu232 C241 2.828 . S
Eu232 O243 2.392 . S
Eu232 O245 2.418 . S
Eu232 O250 2.373 . S
Eu232 O253 2.488 . S
Eu232 O254 2.471 . S
Eu232 O255 2.349 . S
Eu233 O242 2.373 . S
Eu233 O246 2.488 . S
Eu233 O247 2.471 . S
Eu233 O248 2.349 . S
Eu233 O251 2.392 . S
Eu233 O252 2.418 . S
Eu233 C262 2.828 . S
C234 O252 1.244 . S
C234 O255 1.265 . S
C235 C236 1.379 . S
C235 C239 1.373 . S
C235 C241 1.505 . S
C236 C235 1.379 . S
C236 C238 1.369 . S
C236 H264 0.930 . S
C237 C239 1.383 . S
C237 C240 1.382 . S
C237 H265 0.930 . S
C238 C236 1.369 . S
C238 C240 1.392 . S
C238 H266 0.930 . S
C239 C235 1.373 . S
C239 C237 1.383 . S
C239 H267 0.931 . S
C240 C237 1.382 . S
C240 C238 1.392 . S
C241 Eu232 2.828 . S
C241 C235 1.505 . S
C241 O253 1.249 . S
C241 O254 1.244 . S
O242 Eu233 2.373 . S
O242 C244 1.258 . S
O243 Eu232 2.392 . S
O243 C244 1.242 . S
C244 O242 1.258 . S
C244 O243 1.242 . S
O245 Eu232 2.418 . S
O245 C249 1.244 . S
O246 Eu233 2.488 . S
O246 C262 1.249 . S
O247 Eu233 2.471 . S
O247 C262 1.244 . S
O248 Eu233 2.349 . S
O248 C249 1.265 . S
C249 O245 1.244 . S
C249 O248 1.265 . S
O250 Eu232 2.373 . S
O250 C263 1.258 . S
O251 Eu233 2.392 . S
O251 C263 1.242 . S
O252 Eu233 2.418 . S
O252 C234 1.244 . S
O253 Eu232 2.488 . S
O253 C241 1.249 . S
O254 Eu232 2.471 . S
O254 C241 1.244 . S
O255 Eu232 2.349 . S
O255 C234 1.265 . S
C256 C257 1.379 . S
C256 C260 1.373 . S
C256 C262 1.505 . S
C257 C256 1.379 . S
C257 C259 1.369 . S
C257 H268 0.930 . S
C258 C260 1.383 . S
C258 C261 1.382 . S
C258 H269 0.930 . S
C259 C257 1.369 . S
C259 C261 1.392 . S
C259 H270 0.930 . S
C260 C256 1.373 . S
C260 C258 1.383 . S
C260 H271 0.931 . S
C261 C258 1.382 . S
C261 C259 1.392 . S
C262 Eu233 2.828 . S
C262 O246 1.249 . S
C262 O247 1.244 . S
C262 C256 1.505 . S
C263 O250 1.258 . S
C263 O251 1.242 . S
H264 C236 0.930 . S
H265 C237 0.930 . S
H266 C238 0.930 . S
H267 C239 0.931 . S
H268 C257 0.930 . S
H269 C258 0.930 . S
H270 C259 0.930 . S
H271 C260 0.931 . S
Eu272 C281 2.828 . S
Eu272 O283 2.392 . S
Eu272 O285 2.418 1_455 S
Eu272 O290 2.373 . S
Eu272 O293 2.488 . S
Eu272 O294 2.471 . S
Eu272 O295 2.349 . S
Eu273 O282 2.374 . S
Eu273 O286 2.488 . S
Eu273 O287 2.471 . S
Eu273 O288 2.349 . S
Eu273 O291 2.392 1_655 S
Eu273 O292 2.418 1_655 S
Eu273 C302 2.828 . S
C274 O292 1.244 . S
C274 O295 1.265 . S
C275 C276 1.379 . S
C275 C279 1.373 . S
C275 C281 1.505 . S
C276 C275 1.379 . S
C276 C278 1.369 . S
C276 H304 0.930 . S
C277 C279 1.383 . S
C277 C280 1.382 . S
C277 H305 0.930 . S
C278 C276 1.369 . S
C278 C280 1.392 . S
C278 H306 0.930 . S
C279 C275 1.373 . S
C279 C277 1.383 . S
C279 H307 0.931 . S
C280 C277 1.382 . S
C280 C278 1.392 . S
C281 Eu272 2.828 . S
C281 C275 1.505 . S
C281 O293 1.249 . S
C281 O294 1.244 . S
O282 Eu273 2.374 . S
O282 C284 1.255 1_655 S
O283 Eu272 2.392 . S
O283 C284 1.242 . S
C284 O282 1.255 1_455 S
C284 O283 1.242 . S
O285 Eu272 2.418 1_655 S
O285 C289 1.244 . S
O286 Eu273 2.488 . S
O286 C302 1.249 . S
O287 Eu273 2.471 . S
O287 C302 1.244 . S
O288 Eu273 2.349 . S
O288 C289 1.265 . S
C289 O285 1.244 . S
C289 O288 1.265 . S
O290 Eu272 2.373 . S
O290 C303 1.258 . S
O291 Eu273 2.392 1_455 S
O291 C303 1.242 . S
O292 Eu273 2.418 1_455 S
O292 C274 1.244 . S
O293 Eu272 2.488 . S
O293 C281 1.249 . S
O294 Eu272 2.471 . S
O294 C281 1.244 . S
O295 Eu272 2.349 . S
O295 C274 1.265 . S
C296 C297 1.379 . S
C296 C300 1.373 . S
C296 C302 1.505 . S
C297 C296 1.379 . S
C297 C299 1.369 . S
C297 H308 0.930 . S
C298 C300 1.383 . S
C298 C301 1.382 . S
C298 H309 0.930 . S
C299 C297 1.369 . S
C299 C301 1.392 . S
C299 H310 0.930 . S
C300 C296 1.373 . S
C300 C298 1.383 . S
C300 H311 0.931 . S
C301 C298 1.382 . S
C301 C299 1.392 . S
C302 Eu273 2.828 . S
C302 O286 1.249 . S
C302 O287 1.244 . S
C302 C296 1.505 . S
C303 O290 1.258 . S
C303 O291 1.242 . S
H304 C276 0.930 . S
H305 C277 0.930 . S
H306 C278 0.930 . S
H307 C279 0.931 . S
H308 C297 0.930 . S
H309 C298 0.930 . S
H310 C299 0.930 . S
H311 C300 0.931 . S
H312 C330 0.951 . S
H313 C332 0.951 . S
H314 C334 0.950 . S
H315 C335 0.950 . S
H316 C337 0.950 . S
H317 C340 0.950 . S
H318 C341 0.950 . S
H319 C343 0.950 . S
H320 C344 0.950 . S
H321 C345 0.951 1_565 S
H322 C347 0.951 . S
H323 C349 0.950 . S
H324 C350 0.950 . S
H325 C352 0.950 . S
H326 C355 0.950 . S
H327 C356 0.950 . S
H328 C358 0.950 . S
H329 C359 0.950 . S
C330 H312 0.951 . S
C330 C331 1.366 . S
C330 C332 1.388 . S
C331 C330 1.366 . S
C331 C335 1.385 . S
C332 H313 0.951 . S
C332 C330 1.388 . S
C332 C333 1.366 . S
C333 C332 1.366 . S
C333 C334 1.414 . S
C333 C336 1.499 . S
C334 H314 0.950 . S
C334 C333 1.414 . S
C334 C335 1.374 . S
C335 H315 0.950 . S
C335 C331 1.385 . S
C335 C334 1.374 . S
C336 C333 1.499 . S
C336 C337 1.373 . S
C336 C338 1.389 . S
C337 H316 0.950 . S
C337 C336 1.373 . S
C337 C353 1.377 . S
C338 C336 1.389 . S
C338 C339 1.524 . S
C338 C352 1.377 . S
C339 C338 1.524 . S
C339 C340 1.397 . S
C339 C344 1.363 . S
C340 H317 0.950 . S
C340 C339 1.397 . S
C340 C341 1.334 . S
C341 H318 0.950 . S
C341 C340 1.334 . S
C341 C342 1.287 . S
C342 C341 1.287 . S
C342 C343 1.524 . S
C342 H361 0.913 . S
C343 H319 0.950 . S
C343 C342 1.524 . S
C343 C344 1.415 . S
C344 H320 0.950 . S
C344 C339 1.363 . S
C344 C343 1.415 . S
C345 H321 0.951 1_545 S
C345 C346 1.366 . S
C345 C347 1.388 . S
C346 C345 1.366 . S
C346 C350 1.385 . S
C347 H322 0.951 . S
C347 C345 1.388 . S
C347 C348 1.366 . S
C348 C347 1.366 . S
C348 C349 1.414 . S
C348 C351 1.499 . S
C349 H323 0.950 . S
C349 C348 1.414 . S
C349 C350 1.374 . S
C350 H324 0.950 . S
C350 C346 1.385 . S
C350 C349 1.374 . S
C351 C348 1.499 . S
C351 C352 1.373 . S
C351 C353 1.389 . S
C352 H325 0.950 . S
C352 C338 1.377 . S
C352 C351 1.373 . S
C353 C337 1.377 . S
C353 C351 1.389 . S
C353 C354 1.524 . S
C354 C353 1.524 . S
C354 C355 1.397 . S
C354 C359 1.363 . S
C355 H326 0.950 . S
C355 C354 1.397 . S
C355 C356 1.334 . S
C356 H327 0.950 . S
C356 C355 1.334 . S
C356 C357 1.287 . S
C357 C356 1.287 . S
C357 C358 1.524 . S
C357 H360 0.999 . S
C358 H328 0.950 . S
C358 C357 1.524 . S
C358 C359 1.415 . S
C359 H329 0.950 . S
C359 C354 1.363 . S
C359 C358 1.415 . S
H360 C357 0.999 . S
H361 C342 0.913 . S
H362 C380 0.951 . S
H363 C382 0.951 . S
H364 C384 0.950 . S
H365 C385 0.950 . S
H366 C387 0.950 . S
H367 C390 0.950 . S
H368 C391 0.950 . S
H369 C393 0.950 . S
H370 C394 0.950 . S
H371 C395 0.951 . S
H372 C397 0.951 . S
H373 C399 0.950 . S
H374 C400 0.950 . S
H375 C402 0.950 . S
H376 C405 0.950 . S
H377 C406 0.950 . S
H378 C408 0.950 . S
H379 C409 0.950 . S
C380 H362 0.951 . S
C380 C381 1.366 . S
C380 C382 1.388 . S
C381 C380 1.366 . S
C381 C385 1.385 . S
C382 H363 0.951 . S
C382 C380 1.388 . S
C382 C383 1.366 . S
C383 C382 1.366 . S
C383 C384 1.414 . S
C383 C386 1.499 . S
C384 H364 0.950 . S
C384 C383 1.414 . S
C384 C385 1.374 . S
C385 H365 0.950 . S
C385 C381 1.385 . S
C385 C384 1.374 . S
C386 C383 1.499 . S
C386 C387 1.373 . S
C386 C388 1.389 . S
C387 H366 0.950 . S
C387 C386 1.373 . S
C387 C403 1.377 . S
C388 C386 1.389 . S
C388 C389 1.524 . S
C388 C402 1.377 . S
C389 C388 1.524 . S
C389 C390 1.397 . S
C389 C394 1.363 . S
C390 H367 0.950 . S
C390 C389 1.397 . S
C390 C391 1.334 . S
C391 H368 0.950 . S
C391 C390 1.334 . S
C391 C392 1.287 . S
C392 C391 1.287 . S
C392 C393 1.524 . S
C392 H411 0.913 . S
C393 H369 0.950 . S
C393 C392 1.524 . S
C393 C394 1.415 . S
C394 H370 0.950 . S
C394 C389 1.363 . S
C394 C393 1.415 . S
C395 H371 0.951 . S
C395 C396 1.366 . S
C395 C397 1.388 . S
C396 C395 1.366 . S
C396 C400 1.385 . S
C397 H372 0.951 . S
C397 C395 1.388 . S
C397 C398 1.366 . S
C398 C397 1.366 . S
C398 C399 1.414 . S
C398 C401 1.499 . S
C399 H373 0.950 . S
C399 C398 1.414 . S
C399 C400 1.374 . S
C400 H374 0.950 . S
C400 C396 1.385 . S
C400 C399 1.374 . S
C401 C398 1.499 . S
C401 C402 1.373 . S
C401 C403 1.389 . S
C402 H375 0.950 . S
C402 C388 1.377 . S
C402 C401 1.373 . S
C403 C387 1.377 . S
C403 C401 1.389 . S
C403 C404 1.524 . S
C404 C403 1.524 . S
C404 C405 1.397 . S
C404 C409 1.363 . S
C405 H376 0.950 . S
C405 C404 1.397 . S
C405 C406 1.334 . S
C406 H377 0.950 . S
C406 C405 1.334 . S
C406 C407 1.287 . S
C407 C406 1.287 . S
C407 C408 1.524 . S
C407 H410 0.999 . S
C408 H378 0.950 . S
C408 C407 1.524 . S
C408 C409 1.415 . S
C409 H379 0.950 . S
C409 C404 1.363 . S
C409 C408 1.415 . S
H410 C407 0.999 . S
H411 C392 0.913 . S
H412 C430 0.951 . S
H413 C432 0.951 . S
H414 C434 0.950 . S
H415 C435 0.950 . S
H416 C437 0.950 . S
H417 C440 0.950 . S
H418 C441 0.950 . S
H419 C443 0.950 . S
H420 C444 0.950 . S
H421 C445 0.951 . S
H422 C447 0.951 . S
H423 C449 0.950 . S
H424 C450 0.950 . S
H425 C452 0.950 . S
H426 C455 0.950 . S
H427 C456 0.950 . S
H428 C458 0.950 . S
H429 C459 0.950 . S
C430 H412 0.951 . S
C430 C431 1.366 . S
C430 C432 1.388 . S
C431 C430 1.366 . S
C431 C435 1.385 . S
C432 H413 0.951 . S
C432 C430 1.388 . S
C432 C433 1.366 . S
C433 C432 1.366 . S
C433 C434 1.414 . S
C433 C436 1.499 . S
C434 H414 0.950 . S
C434 C433 1.414 . S
C434 C435 1.374 . S
C435 H415 0.950 . S
C435 C431 1.385 . S
C435 C434 1.374 . S
C436 C433 1.499 . S
C436 C437 1.373 . S
C436 C438 1.389 . S
C437 H416 0.950 . S
C437 C436 1.373 . S
C437 C453 1.377 . S
C438 C436 1.389 . S
C438 C439 1.524 . S
C438 C452 1.377 . S
C439 C438 1.524 . S
C439 C440 1.397 . S
C439 C444 1.363 . S
C440 H417 0.950 . S
C440 C439 1.397 . S
C440 C441 1.334 . S
C441 H418 0.950 . S
C441 C440 1.334 . S
C441 C442 1.287 . S
C442 C441 1.287 . S
C442 C443 1.524 . S
C442 H461 0.913 . S
C443 H419 0.950 . S
C443 C442 1.524 . S
C443 C444 1.415 . S
C444 H420 0.950 . S
C444 C439 1.363 . S
C444 C443 1.415 . S
C445 H421 0.951 . S
C445 C446 1.366 . S
C445 C447 1.388 . S
C446 C445 1.366 . S
C446 C450 1.385 . S
C447 H422 0.951 . S
C447 C445 1.388 . S
C447 C448 1.366 . S
C448 C447 1.366 . S
C448 C449 1.414 . S
C448 C451 1.499 . S
C449 H423 0.950 . S
C449 C448 1.414 . S
C449 C450 1.374 . S
C450 H424 0.950 . S
C450 C446 1.385 . S
C450 C449 1.374 . S
C451 C448 1.499 . S
C451 C452 1.373 . S
C451 C453 1.389 . S
C452 H425 0.950 . S
C452 C438 1.377 . S
C452 C451 1.373 . S
C453 C437 1.377 . S
C453 C451 1.389 . S
C453 C454 1.524 . S
C454 C453 1.524 . S
C454 C455 1.397 . S
C454 C459 1.363 . S
C455 H426 0.950 . S
C455 C454 1.397 . S
C455 C456 1.334 . S
C456 H427 0.950 . S
C456 C455 1.334 . S
C456 C457 1.287 . S
C457 C456 1.287 . S
C457 C458 1.524 . S
C457 H460 0.999 . S
C458 H428 0.950 . S
C458 C457 1.524 . S
C458 C459 1.415 . S
C459 H429 0.950 . S
C459 C454 1.363 . S
C459 C458 1.415 . S
H460 C457 0.999 . S
H461 C442 0.913 . S
H462 C480 0.951 . S
H463 C482 0.951 . S
H464 C484 0.950 . S
H465 C485 0.950 . S
H466 C487 0.950 . S
H467 C490 0.950 . S
H468 C491 0.950 . S
H469 C493 0.950 . S
H470 C494 0.950 . S
H471 C495 0.951 1_655 S
H472 C497 0.989 . S
H473 C499 0.950 . S
H474 C500 0.950 . S
H475 C502 0.950 . S
H476 C505 0.950 . S
H477 C506 0.950 . S
H478 C508 0.950 . S
H479 C509 0.949 . S
C480 H462 0.951 . S
C480 C481 1.366 . S
C480 C482 1.388 . S
C481 C480 1.366 . S
C481 C485 1.385 . S
C482 H463 0.951 . S
C482 C480 1.388 . S
C482 C483 1.366 . S
C483 C482 1.366 . S
C483 C484 1.414 . S
C483 C486 1.499 . S
C484 H464 0.950 . S
C484 C483 1.414 . S
C484 C485 1.374 . S
C485 H465 0.950 . S
C485 C481 1.385 . S
C485 C484 1.374 . S
C486 C483 1.499 . S
C486 C487 1.373 . S
C486 C488 1.389 . S
C487 H466 0.950 . S
C487 C486 1.373 . S
C487 C503 1.377 . S
C488 C486 1.389 . S
C488 C489 1.524 . S
C488 C502 1.377 . S
C489 C488 1.524 . S
C489 C490 1.397 . S
C489 C494 1.363 . S
C490 H467 0.950 . S
C490 C489 1.397 . S
C490 C491 1.334 . S
C491 H468 0.950 . S
C491 C490 1.334 . S
C491 C492 1.287 . S
C492 C491 1.287 . S
C492 C493 1.524 . S
C492 H511 0.913 . S
C493 H469 0.950 . S
C493 C492 1.524 . S
C493 C494 1.415 . S
C494 H470 0.950 . S
C494 C489 1.363 . S
C494 C493 1.415 . S
C495 H471 0.951 1_455 S
C495 C496 1.366 . S
C495 C497 1.388 . S
C496 C495 1.366 . S
C496 C500 1.385 . S
C497 H472 0.989 . S
C497 C495 1.388 . S
C497 C498 1.366 . S
C498 C497 1.366 . S
C498 C499 1.414 . S
C498 C501 1.499 . S
C499 H473 0.950 . S
C499 C498 1.414 . S
C499 C500 1.374 . S
C500 H474 0.950 . S
C500 C496 1.385 . S
C500 C499 1.374 . S
C501 C498 1.499 . S
C501 C502 1.373 . S
C501 C503 1.389 . S
C502 H475 0.950 . S
C502 C488 1.377 . S
C502 C501 1.373 . S
C503 C487 1.377 . S
C503 C501 1.389 . S
C503 C504 1.524 . S
C504 C503 1.524 . S
C504 C505 1.397 . S
C504 C509 1.365 1_455 S
C505 H476 0.950 . S
C505 C504 1.397 . S
C505 C506 1.334 . S
C506 H477 0.950 . S
C506 C505 1.334 . S
C506 C507 1.287 . S
C507 C506 1.287 . S
C507 C508 1.524 1_455 S
C507 H510 0.999 1_455 S
C508 H478 0.950 . S
C508 C507 1.524 1_655 S
C508 C509 1.414 . S
C509 H479 0.949 . S
C509 C504 1.365 1_655 S
C509 C508 1.414 . S
H510 C507 0.999 1_655 S
H511 C492 0.913 . S
H512 C530 0.951 . S
H513 C532 0.951 . S
H514 C534 0.950 . S
H515 C535 0.950 . S
H516 C537 0.956 . S
H517 C540 0.950 . S
H518 C541 0.950 . S
H519 C543 0.950 . S
H520 C544 0.950 . S
H521 C545 0.946 1_545 S
H522 C547 0.951 . S
H523 C549 0.950 . S
H524 C550 0.950 . S
H525 C552 0.950 . S
H526 C555 0.950 . S
H527 C556 0.950 . S
H528 C558 0.950 . S
H529 C559 0.950 . S
C530 H512 0.951 . S
C530 C531 1.366 . S
C530 C532 1.388 . S
C531 C530 1.366 . S
C531 C535 1.385 . S
C532 H513 0.951 . S
C532 C530 1.388 . S
C532 C533 1.366 . S
C533 C532 1.366 . S
C533 C534 1.414 . S
C533 C536 1.499 . S
C534 H514 0.950 . S
C534 C533 1.414 . S
C534 C535 1.374 . S
C535 H515 0.950 . S
C535 C531 1.385 . S
C535 C534 1.374 . S
C536 C533 1.499 . S
C536 C537 1.366 1_565 S
C536 C538 1.389 1_554 S
C537 H516 0.956 . S
C537 C536 1.366 1_545 S
C537 C553 1.378 1_554 S
C538 C536 1.389 1_556 S
C538 C539 1.524 . S
C538 C552 1.377 . S
C539 C538 1.524 . S
C539 C540 1.397 1_556 S
C539 C544 1.363 . S
C540 H517 0.950 . S
C540 C539 1.397 1_554 S
C540 C541 1.334 . S
C541 H518 0.950 . S
C541 C540 1.334 . S
C541 C542 1.287 1_554 S
C542 C541 1.287 1_556 S
C542 C543 1.524 . S
C542 H561 0.913 . S
C543 H519 0.950 . S
C543 C542 1.524 . S
C543 C544 1.415 . S
C544 H520 0.950 . S
C544 C539 1.363 . S
C544 C543 1.415 . S
C545 H521 0.946 1_565 S
C545 C546 1.368 . S
C545 C547 1.392 . S
C546 C545 1.368 . S
C546 C550 1.385 . S
C547 H522 0.951 . S
C547 C545 1.392 . S
C547 C548 1.366 . S
C548 C547 1.366 . S
C548 C549 1.414 . S
C548 C551 1.499 . S
C549 H523 0.950 . S
C549 C548 1.414 . S
C549 C550 1.374 . S
C550 H524 0.950 . S
C550 C546 1.385 . S
C550 C549 1.374 . S
C551 C548 1.499 . S
C551 C552 1.373 . S
C551 C553 1.389 1_565 S
C552 H525 0.950 . S
C552 C538 1.377 . S
C552 C551 1.373 . S
C553 C537 1.378 1_556 S
C553 C551 1.389 1_545 S
C553 C554 1.524 . S
C554 C553 1.524 . S
C554 C555 1.397 . S
C554 C559 1.363 1_556 S
C555 H526 0.950 . S
C555 C554 1.397 . S
C555 C556 1.334 . S
C556 H527 0.950 . S
C556 C555 1.334 . S
C556 C557 1.287 . S
C557 C556 1.287 . S
C557 C558 1.524 1_556 S
C557 H560 0.999 . S
C558 H528 0.950 . S
C558 C557 1.524 1_554 S
C558 C559 1.415 . S
C559 H529 0.950 . S
C559 C554 1.363 1_554 S
C559 C558 1.415 . S
H560 C557 0.999 . S
H561 C542 0.913 . S
H562 C580 0.951 . S
H563 C582 0.951 . S
H564 C584 0.950 . S
H565 C585 0.950 . S
H566 C587 0.959 . S
H567 C590 0.950 . S
H568 C591 0.950 . S
H569 C593 0.950 . S
H570 C594 0.950 . S
H571 C595 0.951 . S
H572 C597 0.951 . S
H573 C599 0.950 . S
H574 C600 0.950 . S
H575 C602 0.950 . S
H576 C605 0.950 . S
H577 C606 0.950 . S
H578 C608 0.950 . S
H579 C609 0.950 . S
C580 H562 0.951 . S
C580 C581 1.366 . S
C580 C582 1.388 . S
C581 C580 1.366 . S
C581 C585 1.385 . S
C582 H563 0.951 . S
C582 C580 1.388 . S
C582 C583 1.366 . S
C583 C582 1.366 . S
C583 C584 1.414 . S
C583 C586 1.499 1_554 S
C584 H564 0.950 . S
C584 C583 1.414 . S
C584 C585 1.374 . S
C585 H565 0.950 . S
C585 C581 1.385 . S
C585 C584 1.374 . S
C586 C583 1.499 1_556 S
C586 C587 1.371 1_556 S
C586 C588 1.389 . S
C587 H566 0.959 . S
C587 C586 1.371 1_554 S
C587 C603 1.370 1_554 S
C588 C586 1.389 . S
C588 C589 1.524 . S
C588 C602 1.377 . S
C589 C588 1.524 . S
C589 C590 1.397 . S
C589 C594 1.363 . S
C590 H567 0.950 . S
C590 C589 1.397 . S
C590 C591 1.334 . S
C591 H568 0.950 . S
C591 C590 1.334 . S
C591 C592 1.287 . S
C592 C591 1.287 . S
C592 C593 1.524 . S
C592 H611 0.913 . S
C593 H569 0.950 . S
C593 C592 1.524 . S
C593 C594 1.415 . S
C594 H570 0.950 . S
C594 C589 1.363 . S
C594 C593 1.415 . S
C595 H571 0.951 . S
C595 C596 1.366 . S
C595 C597 1.388 . S
C596 C595 1.366 . S
C596 C600 1.385 . S
C597 H572 0.951 . S
C597 C595 1.388 . S
C597 C598 1.366 . S
C598 C597 1.366 . S
C598 C599 1.414 . S
C598 C601 1.499 . S
C599 H573 0.950 . S
C599 C598 1.414 . S
C599 C600 1.374 . S
C600 H574 0.950 . S
C600 C596 1.385 . S
C600 C599 1.374 . S
C601 C598 1.499 . S
C601 C602 1.373 . S
C601 C603 1.389 . S
C602 H575 0.950 . S
C602 C588 1.377 . S
C602 C601 1.373 . S
C603 C587 1.370 1_556 S
C603 C601 1.389 . S
C603 C604 1.524 . S
C604 C603 1.524 . S
C604 C605 1.397 . S
C604 C609 1.363 1_556 S
C605 H576 0.950 . S
C605 C604 1.397 . S
C605 C606 1.334 . S
C606 H577 0.950 . S
C606 C605 1.334 . S
C606 C607 1.287 1_556 S
C607 C606 1.287 1_554 S
C607 C608 1.524 . S
C607 H610 0.999 . S
C608 H578 0.950 . S
C608 C607 1.524 . S
C608 C609 1.415 . S
C609 H579 0.950 . S
C609 C604 1.363 1_554 S
C609 C608 1.415 . S
H610 C607 0.999 . S
H611 C592 0.913 . S
H612 C630 0.951 . S
H613 C632 0.951 . S
H614 C634 0.950 . S
H615 C635 0.950 . S
H616 C637 0.950 . S
H617 C640 0.950 . S
H618 C641 0.950 . S
H619 C643 0.950 . S
H620 C644 0.950 1_556 S
H621 C645 0.951 . S
H622 C647 0.951 . S
H623 C649 0.950 . S
H624 C650 0.950 . S
H625 C652 0.950 . S
H626 C655 0.950 . S
H627 C656 0.950 . S
H628 C658 0.950 . S
H629 C659 0.950 . S
C630 H612 0.951 . S
C630 C631 1.366 . S
C630 C632 1.388 . S
C631 C630 1.366 . S
C631 C635 1.385 . S
C632 H613 0.951 . S
C632 C630 1.388 . S
C632 C633 1.366 . S
C633 C632 1.366 . S
C633 C634 1.414 . S
C633 C636 1.499 1_554 S
C634 H614 0.950 . S
C634 C633 1.414 . S
C634 C635 1.374 . S
C635 H615 0.950 . S
C635 C631 1.385 . S
C635 C634 1.374 . S
C636 C633 1.499 1_556 S
C636 C637 1.373 . S
C636 C638 1.389 . S
C637 H616 0.950 . S
C637 C636 1.373 . S
C637 C653 1.377 . S
C638 C636 1.389 . S
C638 C639 1.524 1_556 S
C638 C652 1.377 . S
C639 C638 1.524 1_554 S
C639 C640 1.397 . S
C639 C644 1.363 . S
C640 H617 0.950 . S
C640 C639 1.397 . S
C640 C641 1.334 . S
C641 H618 0.950 . S
C641 C640 1.334 . S
C641 C642 1.287 . S
C642 C641 1.287 . S
C642 C643 1.524 . S
C642 H661 0.913 . S
C643 H619 0.950 . S
C643 C642 1.524 . S
C643 C644 1.415 . S
C644 H620 0.950 1_554 S
C644 C639 1.363 . S
C644 C643 1.415 . S
C645 H621 0.951 . S
C645 C646 1.366 . S
C645 C647 1.388 . S
C646 C645 1.366 . S
C646 C650 1.385 . S
C647 H622 0.951 . S
C647 C645 1.388 . S
C647 C648 1.366 . S
C648 C647 1.366 . S
C648 C649 1.414 . S
C648 C651 1.499 . S
C649 H623 0.950 . S
C649 C648 1.414 . S
C649 C650 1.374 . S
C650 H624 0.950 . S
C650 C646 1.385 . S
C650 C649 1.374 . S
C651 C648 1.499 . S
C651 C652 1.373 . S
C651 C653 1.389 . S
C652 H625 0.950 . S
C652 C638 1.377 . S
C652 C651 1.373 . S
C653 C637 1.377 . S
C653 C651 1.389 . S
C653 C654 1.524 . S
C654 C653 1.524 . S
C654 C655 1.397 . S
C654 C659 1.363 . S
C655 H626 0.950 . S
C655 C654 1.397 . S
C655 C656 1.334 . S
C656 H627 0.950 . S
C656 C655 1.334 . S
C656 C657 1.287 . S
C657 C656 1.287 . S
C657 C658 1.524 . S
C657 H660 0.999 . S
C658 H628 0.950 . S
C658 C657 1.524 . S
C658 C659 1.415 . S
C659 H629 0.950 . S
C659 C654 1.363 . S
C659 C658 1.415 . S
H660 C657 0.999 . S
H661 C642 0.913 . S
H662 C680 0.951 . S
H663 C682 0.951 . S
H664 C684 0.950 1_556 S
H665 C685 0.950 . S
H666 C687 0.950 . S
H667 C690 0.950 1_556 S
H668 C691 0.950 . S
H669 C693 0.950 . S
H670 C694 0.950 . S
H671 C695 0.951 . S
H672 C697 0.951 . S
H673 C699 0.957 . S
H674 C700 0.950 . S
H675 C702 0.950 . S
H676 C705 0.950 . S
H677 C706 0.950 . S
H678 C708 0.950 . S
H679 C709 0.950 . S
C680 H662 0.951 . S
C680 C681 1.366 . S
C680 C682 1.388 . S
C681 C680 1.366 . S
C681 C685 1.385 . S
C682 H663 0.951 . S
C682 C680 1.388 . S
C682 C683 1.366 . S
C683 C682 1.366 . S
C683 C684 1.414 . S
C683 C686 1.499 . S
C684 H664 0.950 1_554 S
C684 C683 1.414 . S
C684 C685 1.374 . S
C685 H665 0.950 . S
C685 C681 1.385 . S
C685 C684 1.374 . S
C686 C683 1.499 . S
C686 C687 1.373 1_554 S
C686 C688 1.432 1_554 S
C687 H666 0.950 . S
C687 C686 1.373 1_556 S
C687 C703 1.377 . S
C688 C686 1.432 1_556 S
C688 C689 1.487 1_656 S
C688 C702 1.369 1_655 S
C689 C688 1.487 1_454 S
C689 C690 1.397 . S
C689 C694 1.363 . S
C690 H667 0.950 1_554 S
C690 C689 1.397 . S
C690 C691 1.334 . S
C691 H668 0.950 . S
C691 C690 1.334 . S
C691 C692 1.287 . S
C692 C691 1.287 . S
C692 C693 1.524 . S
C692 H711 0.913 . S
C693 H669 0.950 . S
C693 C692 1.524 . S
C693 C694 1.415 . S
C694 H670 0.950 . S
C694 C689 1.363 . S
C694 C693 1.415 . S
C695 H671 0.951 . S
C695 C696 1.366 . S
C695 C697 1.388 . S
C696 C695 1.366 . S
C696 C700 1.385 1_655 S
C697 H672 0.951 . S
C697 C695 1.388 . S
C697 C698 1.366 . S
C698 C697 1.366 . S
C698 C699 1.403 1_655 S
C698 C701 1.499 . S
C699 H673 0.957 . S
C699 C698 1.403 1_455 S
C699 C700 1.379 . S
C700 H674 0.950 . S
C700 C696 1.385 1_455 S
C700 C699 1.379 . S
C701 C698 1.499 . S
C701 C702 1.373 1_655 S
C701 C703 1.389 . S
C702 H675 0.950 . S
C702 C688 1.369 1_455 S
C702 C701 1.373 1_455 S
C703 C687 1.377 . S
C703 C701 1.389 . S
C703 C704 1.524 . S
C704 C703 1.524 . S
C704 C705 1.397 . S
C704 C709 1.363 . S
C705 H676 0.950 . S
C705 C704 1.397 . S
C705 C706 1.334 . S
C706 H677 0.950 . S
C706 C705 1.334 . S
C706 C707 1.287 . S
C707 C706 1.287 . S
C707 C708 1.524 . S
C707 H710 0.999 . S
C708 H678 0.950 . S
C708 C707 1.524 . S
C708 C709 1.415 . S
C709 H679 0.950 . S
C709 C704 1.363 . S
C709 C708 1.415 . S
H710 C707 0.999 . S
H711 C692 0.913 . S
H712 C730 0.951 . S
H713 C732 0.951 . S
H714 C734 0.950 . S
H715 C735 0.950 . S
H716 C737 0.950 . S
H717 C740 0.950 . S
H718 C741 0.950 . S
H719 C743 0.950 . S
H720 C744 0.950 . S
H721 C745 0.951 . S
H722 C747 0.951 . S
H723 C749 0.950 1_655 S
H724 C750 0.950 1_655 S
H725 C752 0.950 . S
H726 C755 0.950 . S
H727 C756 0.950 . S
H728 C758 0.950 . S
H729 C759 0.950 . S
C730 H712 0.951 . S
C730 C731 1.366 . S
C730 C732 1.388 . S
C731 C730 1.366 . S
C731 C735 1.385 . S
C732 H713 0.951 . S
C732 C730 1.388 . S
C732 C733 1.366 . S
C733 C732 1.366 . S
C733 C734 1.414 . S
C733 C736 1.499 . S
C734 H714 0.950 . S
C734 C733 1.414 . S
C734 C735 1.374 . S
C735 H715 0.950 . S
C735 C731 1.385 . S
C735 C734 1.374 . S
C736 C733 1.499 . S
C736 C737 1.373 . S
C736 C738 1.389 . S
C737 H716 0.950 . S
C737 C736 1.373 . S
C737 C753 1.377 . S
C738 C736 1.389 . S
C738 C739 1.524 . S
C738 C752 1.377 . S
C739 C738 1.524 . S
C739 C740 1.397 . S
C739 C744 1.363 1_455 S
C740 H717 0.950 . S
C740 C739 1.397 . S
C740 C741 1.334 . S
C741 H718 0.950 . S
C741 C740 1.334 . S
C741 C742 1.287 1_455 S
C742 C741 1.287 1_655 S
C742 C743 1.524 . S
C742 H761 0.913 . S
C743 H719 0.950 . S
C743 C742 1.524 . S
C743 C744 1.415 . S
C744 H720 0.950 . S
C744 C739 1.363 1_655 S
C744 C743 1.415 . S
C745 H721 0.951 . S
C745 C746 1.366 . S
C745 C747 1.388 . S
C746 C745 1.366 . S
C746 C750 1.385 . S
C747 H722 0.951 . S
C747 C745 1.388 . S
C747 C748 1.366 . S
C748 C747 1.366 . S
C748 C749 1.414 . S
C748 C751 1.499 . S
C749 H723 0.950 1_455 S
C749 C748 1.414 . S
C749 C750 1.374 . S
C750 H724 0.950 1_455 S
C750 C746 1.385 . S
C750 C749 1.374 . S
C751 C748 1.499 . S
C751 C752 1.373 . S
C751 C753 1.389 . S
C752 H725 0.950 . S
C752 C738 1.377 . S
C752 C751 1.373 . S
C753 C737 1.377 . S
C753 C751 1.389 . S
C753 C754 1.524 . S
C754 C753 1.524 . S
C754 C755 1.397 . S
C754 C759 1.363 . S
C755 H726 0.950 . S
C755 C754 1.397 . S
C755 C756 1.334 . S
C756 H727 0.950 . S
C756 C755 1.334 . S
C756 C757 1.287 . S
C757 C756 1.287 . S
C757 C758 1.524 . S
C757 H760 0.999 . S
C758 H728 0.950 . S
C758 C757 1.524 . S
C758 C759 1.415 . S
C759 H729 0.950 . S
C759 C754 1.363 . S
C759 C758 1.415 . S
H760 C757 0.999 . S
H761 C742 0.913 . S
H762 C780 0.951 . S
H763 C782 0.951 . S
H764 C784 0.950 . S
H765 C785 0.950 . S
H766 C787 0.950 . S
H767 C790 0.950 1_545 S
H768 C791 0.950 . S
H769 C793 0.950 . S
H770 C794 0.950 . S
H771 C795 0.951 . S
H772 C797 0.951 . S
H773 C799 0.950 . S
H774 C800 0.950 . S
H775 C802 0.950 1_565 S
H776 C805 0.950 . S
H777 C806 0.950 . S
H778 C808 0.950 . S
H779 C809 0.950 . S
C780 H762 0.951 . S
C780 C781 1.366 . S
C780 C782 1.388 . S
C781 C780 1.366 . S
C781 C785 1.385 . S
C782 H763 0.951 . S
C782 C780 1.388 . S
C782 C783 1.366 . S
C783 C782 1.366 . S
C783 C784 1.414 . S
C783 C786 1.499 . S
C784 H764 0.950 . S
C784 C783 1.414 . S
C784 C785 1.374 . S
C785 H765 0.950 . S
C785 C781 1.385 . S
C785 C784 1.374 . S
C786 C783 1.499 . S
C786 C787 1.373 . S
C786 C788 1.389 . S
C787 H766 0.950 . S
C787 C786 1.373 . S
C787 C803 1.377 . S
C788 C786 1.389 . S
C788 C789 1.524 1_545 S
C788 C802 1.377 . S
C789 C788 1.524 1_565 S
C789 C790 1.397 . S
C789 C794 1.363 . S
C790 H767 0.950 1_565 S
C790 C789 1.397 . S
C790 C791 1.334 . S
C791 H768 0.950 . S
C791 C790 1.334 . S
C791 C792 1.287 . S
C792 C791 1.287 . S
C792 C793 1.524 . S
C792 H811 0.913 . S
C793 H769 0.950 . S
C793 C792 1.524 . S
C793 C794 1.415 . S
C794 H770 0.950 . S
C794 C789 1.363 . S
C794 C793 1.415 . S
C795 H771 0.951 . S
C795 C796 1.366 . S
C795 C797 1.388 . S
C796 C795 1.366 . S
C796 C800 1.385 1_545 S
C797 H772 0.951 . S
C797 C795 1.388 . S
C797 C798 1.366 . S
C798 C797 1.366 . S
C798 C799 1.414 1_545 S
C798 C801 1.499 . S
C799 H773 0.950 . S
C799 C798 1.414 1_565 S
C799 C800 1.374 . S
C800 H774 0.950 . S
C800 C796 1.385 1_565 S
C800 C799 1.374 . S
C801 C798 1.499 . S
C801 C802 1.373 . S
C801 C803 1.389 . S
C802 H775 0.950 1_545 S
C802 C788 1.377 . S
C802 C801 1.373 . S
C803 C787 1.377 . S
C803 C801 1.389 . S
C803 C804 1.524 . S
C804 C803 1.524 . S
C804 C805 1.397 . S
C804 C809 1.363 . S
C805 H776 0.950 . S
C805 C804 1.397 . S
C805 C806 1.334 . S
C806 H777 0.950 . S
C806 C805 1.334 . S
C806 C807 1.287 . S
C807 C806 1.287 . S
C807 C808 1.524 . S
C807 H810 0.999 . S
C808 H778 0.950 . S
C808 C807 1.524 . S
C808 C809 1.415 . S
C809 H779 0.950 . S
C809 C804 1.363 . S
C809 C808 1.415 . S
H810 C807 0.999 . S
H811 C792 0.913 . S
H812 C830 0.951 . S
H813 C832 0.951 . S
H814 C834 0.950 . S
H815 C835 0.950 . S
H816 C837 0.950 . S
H817 C840 0.950 . S
H818 C841 0.950 1_556 S
H819 C843 0.950 . S
H820 C844 0.950 . S
H821 C845 0.951 . S
H822 C847 0.951 . S
H823 C849 0.950 . S
H824 C850 0.950 . S
H825 C852 0.950 . S
H826 C855 0.950 . S
H827 C856 0.950 . S
H828 C858 0.950 . S
H829 C859 0.950 . S
C830 H812 0.951 . S
C830 C831 1.366 . S
C830 C832 1.388 . S
C831 C830 1.366 . S
C831 C835 1.385 . S
C832 H813 0.951 . S
C832 C830 1.388 . S
C832 C833 1.366 . S
C833 C832 1.366 . S
C833 C834 1.414 . S
C833 C836 1.499 . S
C834 H814 0.950 . S
C834 C833 1.414 . S
C834 C835 1.374 . S
C835 H815 0.950 . S
C835 C831 1.385 . S
C835 C834 1.374 . S
C836 C833 1.499 . S
C836 C837 1.373 . S
C836 C838 1.389 . S
C837 H816 0.950 . S
C837 C836 1.373 . S
C837 C853 1.377 . S
C838 C836 1.389 . S
C838 C839 1.524 . S
C838 C852 1.377 . S
C839 C838 1.524 . S
C839 C840 1.397 . S
C839 C844 1.363 . S
C840 H817 0.950 . S
C840 C839 1.397 . S
C840 C841 1.334 . S
C841 H818 0.950 1_554 S
C841 C840 1.334 . S
C841 C842 1.287 . S
C842 C841 1.287 . S
C842 C843 1.524 . S
C842 H861 0.913 1_554 S
C843 H819 0.950 . S
C843 C842 1.524 . S
C843 C844 1.415 . S
C844 H820 0.950 . S
C844 C839 1.363 . S
C844 C843 1.415 . S
C845 H821 0.951 . S
C845 C846 1.366 . S
C845 C847 1.388 . S
C846 C845 1.366 . S
C846 C850 1.385 . S
C847 H822 0.951 . S
C847 C845 1.388 . S
C847 C848 1.366 . S
C848 C847 1.366 . S
C848 C849 1.414 . S
C848 C851 1.499 . S
C849 H823 0.950 . S
C849 C848 1.414 . S
C849 C850 1.374 . S
C850 H824 0.950 . S
C850 C846 1.385 . S
C850 C849 1.374 . S
C851 C848 1.499 . S
C851 C852 1.373 . S
C851 C853 1.389 . S
C852 H825 0.950 . S
C852 C838 1.377 . S
C852 C851 1.373 . S
C853 C837 1.377 . S
C853 C851 1.389 . S
C853 C854 1.524 . S
C854 C853 1.524 . S
C854 C855 1.397 . S
C854 C859 1.363 . S
C855 H826 0.950 . S
C855 C854 1.397 . S
C855 C856 1.334 . S
C856 H827 0.950 . S
C856 C855 1.334 . S
C856 C857 1.287 . S
C857 C856 1.287 . S
C857 C858 1.524 . S
C857 H860 0.999 . S
C858 H828 0.950 . S
C858 C857 1.524 . S
C858 C859 1.415 . S
C859 H829 0.950 . S
C859 C854 1.363 . S
C859 C858 1.415 . S
H860 C857 0.999 . S
H861 C842 0.913 1_556 S
H862 C880 0.951 . S
H863 C882 0.951 . S
H864 C884 0.950 . S
H865 C885 0.950 . S
H866 C887 0.950 . S
H867 C890 0.950 . S
H868 C891 0.950 . S
H869 C893 0.950 . S
H870 C894 0.950 . S
H871 C895 0.951 . S
H872 C897 0.951 . S
H873 C899 0.950 . S
H874 C900 0.950 . S
H875 C902 0.950 . S
H876 C905 0.950 . S
H877 C906 0.950 . S
H878 C908 0.950 . S
H879 C909 0.950 . S
C880 H862 0.951 . S
C880 C881 1.366 . S
C880 C882 1.388 . S
C881 C880 1.366 . S
C881 C885 1.385 . S
C882 H863 0.951 . S
C882 C880 1.388 . S
C882 C883 1.366 . S
C883 C882 1.366 . S
C883 C884 1.414 . S
C883 C886 1.499 . S
C884 H864 0.950 . S
C884 C883 1.414 . S
C884 C885 1.374 . S
C885 H865 0.950 . S
C885 C881 1.385 . S
C885 C884 1.374 . S
C886 C883 1.499 . S
C886 C887 1.373 . S
C886 C888 1.389 . S
C887 H866 0.950 . S
C887 C886 1.373 . S
C887 C903 1.377 . S
C888 C886 1.389 . S
C888 C889 1.524 . S
C888 C902 1.377 . S
C889 C888 1.524 . S
C889 C890 1.397 . S
C889 C894 1.363 . S
C890 H867 0.950 . S
C890 C889 1.397 . S
C890 C891 1.334 . S
C891 H868 0.950 . S
C891 C890 1.334 . S
C891 C892 1.287 . S
C892 C891 1.287 . S
C892 C893 1.524 . S
C892 H911 0.913 . S
C893 H869 0.950 . S
C893 C892 1.524 . S
C893 C894 1.415 . S
C894 H870 0.950 . S
C894 C889 1.363 . S
C894 C893 1.415 . S
C895 H871 0.951 . S
C895 C896 1.366 . S
C895 C897 1.388 . S
C896 C895 1.366 . S
C896 C900 1.385 . S
C897 H872 0.951 . S
C897 C895 1.388 . S
C897 C898 1.366 . S
C898 C897 1.366 . S
C898 C899 1.414 . S
C898 C901 1.499 . S
C899 H873 0.950 . S
C899 C898 1.414 . S
C899 C900 1.374 . S
C900 H874 0.950 . S
C900 C896 1.385 . S
C900 C899 1.374 . S
C901 C898 1.499 . S
C901 C902 1.373 . S
C901 C903 1.389 . S
C902 H875 0.950 . S
C902 C888 1.377 . S
C902 C901 1.373 . S
C903 C887 1.377 . S
C903 C901 1.389 . S
C903 C904 1.524 . S
C904 C903 1.524 . S
C904 C905 1.397 . S
C904 C909 1.363 . S
C905 H876 0.950 . S
C905 C904 1.397 . S
C905 C906 1.334 . S
C906 H877 0.950 . S
C906 C905 1.334 . S
C906 C907 1.287 . S
C907 C906 1.287 . S
C907 C908 1.524 . S
C907 H910 0.999 . S
C908 H878 0.950 . S
C908 C907 1.524 . S
C908 C909 1.415 . S
C909 H879 0.950 . S
C909 C904 1.363 . S
C909 C908 1.415 . S
H910 C907 0.999 . S
H911 C892 0.913 . S
H912 C930 0.951 . S
H913 C932 0.958 . S
H914 C934 0.950 . S
H915 C935 0.950 . S
H916 C937 0.950 . S
H917 C940 0.950 1_655 S
H918 C941 0.950 . S
H919 C943 0.950 . S
H920 C944 0.950 . S
H921 C945 0.951 . S
H922 C947 0.951 . S
H923 C949 0.950 . S
H924 C950 0.950 . S
H925 C952 0.950 . S
H926 C955 0.950 . S
H927 C956 0.950 . S
H928 C958 0.950 . S
H929 C959 0.950 1_554 S
C930 H912 0.951 . S
C930 C931 1.366 . S
C930 C932 1.388 . S
C931 C930 1.366 . S
C931 C935 1.385 . S
C932 H913 0.958 . S
C932 C930 1.388 . S
C932 C933 1.366 . S
C933 C932 1.366 . S
C933 C934 1.414 . S
C933 C936 1.499 . S
C934 H914 0.950 . S
C934 C933 1.414 . S
C934 C935 1.374 . S
C935 H915 0.950 . S
C935 C931 1.385 . S
C935 C934 1.374 . S
C936 C933 1.499 . S
C936 C937 1.373 . S
C936 C938 1.389 . S
C937 H916 0.950 . S
C937 C936 1.373 . S
C937 C953 1.377 . S
C938 C936 1.389 . S
C938 C939 1.524 1_655 S
C938 C952 1.377 1_655 S
C939 C938 1.524 1_455 S
C939 C940 1.397 . S
C939 C944 1.363 . S
C940 H917 0.950 1_455 S
C940 C939 1.397 . S
C940 C941 1.334 . S
C941 H918 0.950 . S
C941 C940 1.334 . S
C941 C942 1.287 . S
C942 C941 1.287 . S
C942 C943 1.524 . S
C942 H961 0.913 . S
C943 H919 0.950 . S
C943 C942 1.524 . S
C943 C944 1.415 . S
C944 H920 0.950 . S
C944 C939 1.363 . S
C944 C943 1.415 . S
C945 H921 0.951 . S
C945 C946 1.366 1_655 S
C945 C947 1.388 1_556 S
C946 C945 1.366 1_455 S
C946 C950 1.385 . S
C947 H922 0.951 . S
C947 C945 1.388 1_554 S
C947 C948 1.366 . S
C948 C947 1.366 . S
C948 C949 1.414 1_654 S
C948 C951 1.499 . S
C949 H923 0.950 . S
C949 C948 1.414 1_456 S
C949 C950 1.374 . S
C950 H924 0.950 . S
C950 C946 1.385 . S
C950 C949 1.374 . S
C951 C948 1.499 . S
C951 C952 1.373 1_655 S
C951 C953 1.389 . S
C952 H925 0.950 . S
C952 C938 1.377 1_455 S
C952 C951 1.373 1_455 S
C953 C937 1.377 . S
C953 C951 1.389 . S
C953 C954 1.524 1_554 S
C954 C953 1.524 1_556 S
C954 C955 1.397 . S
C954 C959 1.363 . S
C955 H926 0.950 . S
C955 C954 1.397 . S
C955 C956 1.334 . S
C956 H927 0.950 . S
C956 C955 1.334 . S
C956 C957 1.287 . S
C957 C956 1.287 . S
C957 C958 1.524 . S
C957 H960 0.999 . S
C958 H928 0.950 . S
C958 C957 1.524 . S
C958 C959 1.415 . S
C959 H929 0.950 1_556 S
C959 C954 1.363 . S
C959 C958 1.415 . S
H960 C957 0.999 . S
H961 C942 0.913 . S
H962 C980 0.951 . S
H963 C982 0.951 . S
H964 C984 0.950 . S
H965 C985 0.950 . S
H966 C987 0.951 . S
H967 C990 0.950 . S
H968 C991 0.950 . S
H969 C993 0.950 . S
H970 C994 0.950 . S
H971 C995 0.951 . S
H972 C997 0.951 1_565 S
H973 C999 0.950 1_554 S
H974 C1000 0.950 . S
H975 C1002 0.950 . S
H976 C1005 0.950 . S
H977 C1006 0.950 . S
H978 C1008 0.950 . S
H979 C1009 0.950 . S
C980 H962 0.951 . S
C980 C981 1.366 . S
C980 C982 1.388 . S
C981 C980 1.366 . S
C981 C985 1.385 . S
C982 H963 0.951 . S
C982 C980 1.388 . S
C982 C983 1.366 . S
C983 C982 1.366 . S
C983 C984 1.414 . S
C983 C986 1.499 . S
C984 H964 0.950 . S
C984 C983 1.414 . S
C984 C985 1.374 . S
C985 H965 0.950 . S
C985 C981 1.385 . S
C985 C984 1.374 . S
C986 C983 1.499 . S
C986 C987 1.372 1_565 S
C986 C988 1.389 . S
C987 H966 0.951 . S
C987 C986 1.372 1_545 S
C987 C1003 1.377 . S
C988 C986 1.389 . S
C988 C989 1.524 . S
C988 C1002 1.377 . S
C989 C988 1.524 . S
C989 C990 1.397 . S
C989 C994 1.363 . S
C990 H967 0.950 . S
C990 C989 1.397 . S
C990 C991 1.334 . S
C991 H968 0.950 . S
C991 C990 1.334 . S
C991 C992 1.287 . S
C992 C991 1.287 . S
C992 C993 1.524 . S
C992 H1011 0.913 . S
C993 H969 0.950 . S
C993 C992 1.524 . S
C993 C994 1.415 . S
C994 H970 0.950 . S
C994 C989 1.363 . S
C994 C993 1.415 . S
C995 H971 0.951 . S
C995 C996 1.366 . S
C995 C997 1.388 . S
C996 C995 1.366 . S
C996 C1000 1.385 . S
C997 H972 0.951 1_545 S
C997 C995 1.388 . S
C997 C998 1.366 . S
C998 C997 1.366 . S
C998 C999 1.414 . S
C998 C1001 1.513 1_556 S
C999 H973 0.950 1_556 S
C999 C998 1.414 . S
C999 C1000 1.374 . S
C1000 H974 0.950 . S
C1000 C996 1.385 . S
C1000 C999 1.374 . S
C1001 C998 1.513 1_554 S
C1001 C1002 1.341 1_545 S
C1001 C1003 1.405 . S
C1002 H975 0.950 . S
C1002 C988 1.377 . S
C1002 C1001 1.341 1_565 S
C1003 C987 1.377 . S
C1003 C1001 1.405 . S
C1003 C1004 1.524 1_554 S
C1004 C1003 1.524 1_556 S
C1004 C1005 1.397 . S
C1004 C1009 1.363 . S
C1005 H976 0.950 . S
C1005 C1004 1.397 . S
C1005 C1006 1.334 . S
C1006 H977 0.950 . S
C1006 C1005 1.334 . S
C1006 C1007 1.287 . S
C1007 C1006 1.287 . S
C1007 C1008 1.524 . S
C1007 H1010 0.999 . S
C1008 H978 0.950 . S
C1008 C1007 1.524 . S
C1008 C1009 1.415 . S
C1009 H979 0.950 . S
C1009 C1004 1.363 . S
C1009 C1008 1.415 . S
H1010 C1007 0.999 . S
H1011 C992 0.913 . S
H1012 C1030 0.951 . S
H1013 C1032 0.951 . S
H1014 C1034 0.950 . S
H1015 C1035 0.950 . S
H1016 C1037 0.950 . S
H1017 C1040 0.950 . S
H1018 C1041 0.950 . S
H1019 C1043 0.950 1_556 S
H1020 C1044 0.950 1_556 S
H1021 C1045 0.951 . S
H1022 C1047 0.951 . S
H1023 C1049 0.950 . S
H1024 C1050 0.950 . S
H1025 C1052 0.950 . S
H1026 C1055 0.950 . S
H1027 C1056 0.950 . S
H1028 C1058 0.950 . S
H1029 C1059 0.950 . S
C1030 H1012 0.951 . S
C1030 C1031 1.366 . S
C1030 C1032 1.388 . S
C1031 C1030 1.366 . S
C1031 C1035 1.385 . S
C1032 H1013 0.951 . S
C1032 C1030 1.388 . S
C1032 C1033 1.366 . S
C1033 C1032 1.366 . S
C1033 C1034 1.414 . S
C1033 C1036 1.499 . S
C1034 H1014 0.950 . S
C1034 C1033 1.414 . S
C1034 C1035 1.374 . S
C1035 H1015 0.950 . S
C1035 C1031 1.385 . S
C1035 C1034 1.374 . S
C1036 C1033 1.499 . S
C1036 C1037 1.373 . S
C1036 C1038 1.389 . S
C1037 H1016 0.950 . S
C1037 C1036 1.373 . S
C1037 C1053 1.377 1_554 S
C1038 C1036 1.389 . S
C1038 C1039 1.524 . S
C1038 C1052 1.377 1_554 S
C1039 C1038 1.524 . S
C1039 C1040 1.397 . S
C1039 C1044 1.363 . S
C1040 H1017 0.950 . S
C1040 C1039 1.397 . S
C1040 C1041 1.334 . S
C1041 H1018 0.950 . S
C1041 C1040 1.334 . S
C1041 C1042 1.287 . S
C1042 C1041 1.287 . S
C1042 C1043 1.524 . S
C1042 H1061 0.913 . S
C1043 H1019 0.950 1_554 S
C1043 C1042 1.524 . S
C1043 C1044 1.415 . S
C1044 H1020 0.950 1_554 S
C1044 C1039 1.363 . S
C1044 C1043 1.415 . S
C1045 H1021 0.951 . S
C1045 C1046 1.366 . S
C1045 C1047 1.388 . S
C1046 C1045 1.366 . S
C1046 C1050 1.385 . S
C1047 H1022 0.951 . S
C1047 C1045 1.388 . S
C1047 C1048 1.366 . S
C1048 C1047 1.366 . S
C1048 C1049 1.414 . S
C1048 C1051 1.499 . S
C1049 H1023 0.950 . S
C1049 C1048 1.414 . S
C1049 C1050 1.374 . S
C1050 H1024 0.950 . S
C1050 C1046 1.385 . S
C1050 C1049 1.374 . S
C1051 C1048 1.499 . S
C1051 C1052 1.373 . S
C1051 C1053 1.389 . S
C1052 H1025 0.950 . S
C1052 C1038 1.377 1_556 S
C1052 C1051 1.373 . S
C1053 C1037 1.377 1_556 S
C1053 C1051 1.389 . S
C1053 C1054 1.524 . S
C1054 C1053 1.524 . S
C1054 C1055 1.397 . S
C1054 C1059 1.363 1_556 S
C1055 H1026 0.950 . S
C1055 C1054 1.397 . S
C1055 C1056 1.334 . S
C1056 H1027 0.950 . S
C1056 C1055 1.334 . S
C1056 C1057 1.287 . S
C1057 C1056 1.287 . S
C1057 C1058 1.524 1_556 S
C1057 H1060 0.999 . S
C1058 H1028 0.950 . S
C1058 C1057 1.524 1_554 S
C1058 C1059 1.415 . S
C1059 H1029 0.950 . S
C1059 C1054 1.363 1_554 S
C1059 C1058 1.415 . S
H1060 C1057 0.999 . S
H1061 C1042 0.913 . S
H1062 C1080 0.951 . S
H1063 C1082 0.951 . S
H1064 C1084 0.950 . S
H1065 C1085 0.950 . S
H1066 C1087 0.950 . S
H1067 C1090 0.950 . S
H1068 C1091 0.950 . S
H1069 C1093 0.950 . S
H1070 C1094 0.950 . S
H1071 C1095 0.951 . S
H1072 C1097 0.951 . S
H1073 C1099 0.950 . S
H1074 C1100 0.950 . S
H1075 C1102 0.950 . S
H1076 C1105 0.950 . S
H1077 C1106 0.950 . S
H1078 C1108 0.950 . S
H1079 C1109 0.950 . S
C1080 H1062 0.951 . S
C1080 C1081 1.366 . S
C1080 C1082 1.388 . S
C1081 C1080 1.366 . S
C1081 C1085 1.385 . S
C1082 H1063 0.951 . S
C1082 C1080 1.388 . S
C1082 C1083 1.366 . S
C1083 C1082 1.366 . S
C1083 C1084 1.414 . S
C1083 C1086 1.499 . S
C1084 H1064 0.950 . S
C1084 C1083 1.414 . S
C1084 C1085 1.374 . S
C1085 H1065 0.950 . S
C1085 C1081 1.385 . S
C1085 C1084 1.374 . S
C1086 C1083 1.499 . S
C1086 C1087 1.373 . S
C1086 C1088 1.389 . S
C1087 H1066 0.950 . S
C1087 C1086 1.373 . S
C1087 C1103 1.377 . S
C1088 C1086 1.389 . S
C1088 C1089 1.526 . S
C1088 C1102 1.377 1_554 S
C1089 C1088 1.526 . S
C1089 C1090 1.401 . S
C1089 C1094 1.356 1_554 S
C1090 H1067 0.950 . S
C1090 C1089 1.401 . S
C1090 C1091 1.334 . S
C1091 H1068 0.950 . S
C1091 C1090 1.334 . S
C1091 C1092 1.287 1_554 S
C1092 C1091 1.287 1_556 S
C1092 C1093 1.524 . S
C1092 H1111 0.913 . S
C1093 H1069 0.950 . S
C1093 C1092 1.524 . S
C1093 C1094 1.415 . S
C1094 H1070 0.950 . S
C1094 C1089 1.356 1_556 S
C1094 C1093 1.415 . S
C1095 H1071 0.951 . S
C1095 C1096 1.366 1_554 S
C1095 C1097 1.388 . S
C1096 C1095 1.366 1_556 S
C1096 C1100 1.385 . S
C1097 H1072 0.951 . S
C1097 C1095 1.388 . S
C1097 C1098 1.366 1_554 S
C1098 C1097 1.366 1_556 S
C1098 C1099 1.414 . S
C1098 C1101 1.499 1_556 S
C1099 H1073 0.950 . S
C1099 C1098 1.414 . S
C1099 C1100 1.374 . S
C1100 H1074 0.950 . S
C1100 C1096 1.385 . S
C1100 C1099 1.374 . S
C1101 C1098 1.499 1_554 S
C1101 C1102 1.373 1_554 S
C1101 C1103 1.389 . S
C1102 H1075 0.950 . S
C1102 C1088 1.377 1_556 S
C1102 C1101 1.373 1_556 S
C1103 C1087 1.377 . S
C1103 C1101 1.389 . S
C1103 C1104 1.524 . S
C1104 C1103 1.524 . S
C1104 C1105 1.397 . S
C1104 C1109 1.363 . S
C1105 H1076 0.950 . S
C1105 C1104 1.397 . S
C1105 C1106 1.334 . S
C1106 H1077 0.950 . S
C1106 C1105 1.334 . S
C1106 C1107 1.287 . S
C1107 C1106 1.287 . S
C1107 C1108 1.524 . S
C1107 H1110 0.999 . S
C1108 H1078 0.950 . S
C1108 C1107 1.524 . S
C1108 C1109 1.415 . S
C1109 H1079 0.950 . S
C1109 C1104 1.363 . S
C1109 C1108 1.415 . S
H1110 C1107 0.999 . S
H1111 C1092 0.913 . S
H1112 C1130 0.951 . S
H1113 C1132 0.951 . S
H1114 C1134 0.950 . S
H1115 C1135 0.950 . S
H1116 C1137 0.950 . S
H1117 C1140 0.950 . S
H1118 C1141 0.950 . S
H1119 C1143 0.950 . S
H1120 C1144 0.950 . S
H1121 C1145 0.951 1_655 S
H1122 C1147 0.951 . S
H1123 C1149 0.950 . S
H1124 C1150 0.950 . S
H1125 C1152 0.950 . S
H1126 C1155 0.950 . S
H1127 C1156 0.950 . S
H1128 C1158 0.950 . S
H1129 C1159 0.950 . S
C1130 H1112 0.951 . S
C1130 C1131 1.366 . S
C1130 C1132 1.388 . S
C1131 C1130 1.366 . S
C1131 C1135 1.385 . S
C1132 H1113 0.951 . S
C1132 C1130 1.388 . S
C1132 C1133 1.366 . S
C1133 C1132 1.366 . S
C1133 C1134 1.414 . S
C1133 C1136 1.499 . S
C1134 H1114 0.950 . S
C1134 C1133 1.414 . S
C1134 C1135 1.374 . S
C1135 H1115 0.950 . S
C1135 C1131 1.385 . S
C1135 C1134 1.374 . S
C1136 C1133 1.499 . S
C1136 C1137 1.373 . S
C1136 C1138 1.389 . S
C1137 H1116 0.950 . S
C1137 C1136 1.373 . S
C1137 C1153 1.377 . S
C1138 C1136 1.389 . S
C1138 C1139 1.524 . S
C1138 C1152 1.377 . S
C1139 C1138 1.524 . S
C1139 C1140 1.397 . S
C1139 C1144 1.363 . S
C1140 H1117 0.950 . S
C1140 C1139 1.397 . S
C1140 C1141 1.334 . S
C1141 H1118 0.950 . S
C1141 C1140 1.334 . S
C1141 C1142 1.287 . S
C1142 C1141 1.287 . S
C1142 C1143 1.524 . S
C1142 H1161 0.913 . S
C1143 H1119 0.950 . S
C1143 C1142 1.524 . S
C1143 C1144 1.415 . S
C1144 H1120 0.950 . S
C1144 C1139 1.363 . S
C1144 C1143 1.415 . S
C1145 H1121 0.951 1_455 S
C1145 C1146 1.366 . S
C1145 C1147 1.388 . S
C1146 C1145 1.366 . S
C1146 C1150 1.385 . S
C1147 H1122 0.951 . S
C1147 C1145 1.388 . S
C1147 C1148 1.366 . S
C1148 C1147 1.366 . S
C1148 C1149 1.414 . S
C1148 C1151 1.499 . S
C1149 H1123 0.950 . S
C1149 C1148 1.414 . S
C1149 C1150 1.374 . S
C1150 H1124 0.950 . S
C1150 C1146 1.385 . S
C1150 C1149 1.374 . S
C1151 C1148 1.499 . S
C1151 C1152 1.373 . S
C1151 C1153 1.389 . S
C1152 H1125 0.950 . S
C1152 C1138 1.377 . S
C1152 C1151 1.373 . S
C1153 C1137 1.377 . S
C1153 C1151 1.389 . S
C1153 C1154 1.524 . S
C1154 C1153 1.524 . S
C1154 C1155 1.397 . S
C1154 C1159 1.363 1_455 S
C1155 H1126 0.950 . S
C1155 C1154 1.397 . S
C1155 C1156 1.334 . S
C1156 H1127 0.950 . S
C1156 C1155 1.334 . S
C1156 C1157 1.287 1_455 S
C1157 C1156 1.287 1_655 S
C1157 C1158 1.524 . S
C1157 H1160 0.999 . S
C1158 H1128 0.950 . S
C1158 C1157 1.524 . S
C1158 C1159 1.415 . S
C1159 H1129 0.950 . S
C1159 C1154 1.363 1_655 S
C1159 C1158 1.415 . S
H1160 C1157 0.999 . S
H1161 C1142 0.913 . S
H1162 C1180 0.951 . S
H1163 C1182 0.951 . S
H1164 C1184 0.950 . S
H1165 C1185 0.950 . S
H1166 C1187 0.950 . S
H1167 C1190 0.920 1_545 S
H1168 C1191 0.950 . S
H1169 C1193 0.950 . S
H1170 C1194 0.950 . S
H1171 C1195 0.951 . S
H1172 C1197 0.951 . S
H1173 C1199 0.950 . S
H1174 C1200 0.950 . S
H1175 C1202 0.950 . S
H1176 C1205 0.950 . S
H1177 C1206 0.950 . S
H1178 C1208 0.950 . S
H1179 C1209 0.950 . S
C1180 H1162 0.951 . S
C1180 C1181 1.366 . S
C1180 C1182 1.388 . S
C1181 C1180 1.366 . S
C1181 C1185 1.385 . S
C1182 H1163 0.951 . S
C1182 C1180 1.388 . S
C1182 C1183 1.366 . S
C1183 C1182 1.366 . S
C1183 C1184 1.414 . S
C1183 C1186 1.499 . S
C1184 H1164 0.950 . S
C1184 C1183 1.414 . S
C1184 C1185 1.374 . S
C1185 H1165 0.950 . S
C1185 C1181 1.385 . S
C1185 C1184 1.374 . S
C1186 C1183 1.499 . S
C1186 C1187 1.373 . S
C1186 C1188 1.389 . S
C1187 H1166 0.950 . S
C1187 C1186 1.373 . S
C1187 C1203 1.377 . S
C1188 C1186 1.389 . S
C1188 C1189 1.524 1_545 S
C1188 C1202 1.377 . S
C1189 C1188 1.524 1_565 S
C1189 C1190 1.397 . S
C1189 C1194 1.363 . S
C1190 H1167 0.920 1_565 S
C1190 C1189 1.397 . S
C1190 C1191 1.334 . S
C1191 H1168 0.950 . S
C1191 C1190 1.334 . S
C1191 C1192 1.287 . S
C1192 C1191 1.287 . S
C1192 C1193 1.524 . S
C1192 H1211 0.913 . S
C1193 H1169 0.950 . S
C1193 C1192 1.524 . S
C1193 C1194 1.415 . S
C1194 H1170 0.950 . S
C1194 C1189 1.363 . S
C1194 C1193 1.415 . S
C1195 H1171 0.951 . S
C1195 C1196 1.366 . S
C1195 C1197 1.388 . S
C1196 C1195 1.366 . S
C1196 C1200 1.385 . S
C1197 H1172 0.951 . S
C1197 C1195 1.388 . S
C1197 C1198 1.366 . S
C1198 C1197 1.366 . S
C1198 C1199 1.414 . S
C1198 C1201 1.499 . S
C1199 H1173 0.950 . S
C1199 C1198 1.414 . S
C1199 C1200 1.374 . S
C1200 H1174 0.950 . S
C1200 C1196 1.385 . S
C1200 C1199 1.374 . S
C1201 C1198 1.499 . S
C1201 C1202 1.373 . S
C1201 C1203 1.389 . S
C1202 H1175 0.950 . S
C1202 C1188 1.377 . S
C1202 C1201 1.373 . S
C1203 C1187 1.377 . S
C1203 C1201 1.389 . S
C1203 C1204 1.524 . S
C1204 C1203 1.524 . S
C1204 C1205 1.397 . S
C1204 C1209 1.363 . S
C1205 H1176 0.950 . S
C1205 C1204 1.397 . S
C1205 C1206 1.334 . S
C1206 H1177 0.950 . S
C1206 C1205 1.334 . S
C1206 C1207 1.287 . S
C1207 C1206 1.287 . S
C1207 C1208 1.524 . S
C1207 H1210 0.999 . S
C1208 H1178 0.950 . S
C1208 C1207 1.524 . S
C1208 C1209 1.415 . S
C1209 H1179 0.950 . S
C1209 C1204 1.363 . S
C1209 C1208 1.415 . S
H1210 C1207 0.999 . S
H1211 C1192 0.913 . S
H1212 C1230 0.951 1_554 S
H1213 C1232 0.951 . S
H1214 C1234 0.950 . S
H1215 C1235 0.950 . S
H1216 C1237 0.950 . S
H1217 C1240 0.950 . S
H1218 C1241 0.950 . S
H1219 C1243 0.950 . S
H1220 C1244 0.950 . S
H1221 C1245 0.951 . S
H1222 C1247 0.951 . S
H1223 C1249 0.950 . S
H1224 C1250 0.950 . S
H1225 C1252 0.950 . S
H1226 C1255 0.950 . S
H1227 C1256 0.950 . S
H1228 C1258 0.950 . S
H1229 C1259 0.950 . S
C1230 H1212 0.951 1_556 S
C1230 C1231 1.366 . S
C1230 C1232 1.388 . S
C1231 C1230 1.366 . S
C1231 C1235 1.385 . S
C1232 H1213 0.951 . S
C1232 C1230 1.388 . S
C1232 C1233 1.366 . S
C1233 C1232 1.366 . S
C1233 C1234 1.414 . S
C1233 C1236 1.499 . S
C1234 H1214 0.950 . S
C1234 C1233 1.414 . S
C1234 C1235 1.374 . S
C1235 H1215 0.950 . S
C1235 C1231 1.385 . S
C1235 C1234 1.374 . S
C1236 C1233 1.499 . S
C1236 C1237 1.373 . S
C1236 C1238 1.389 . S
C1237 H1216 0.950 . S
C1237 C1236 1.373 . S
C1237 C1253 1.377 . S
C1238 C1236 1.389 . S
C1238 C1239 1.524 . S
C1238 C1252 1.377 . S
C1239 C1238 1.524 . S
C1239 C1240 1.397 . S
C1239 C1244 1.363 . S
C1240 H1217 0.950 . S
C1240 C1239 1.397 . S
C1240 C1241 1.334 . S
C1241 H1218 0.950 . S
C1241 C1240 1.334 . S
C1241 C1242 1.287 . S
C1242 C1241 1.287 . S
C1242 C1243 1.524 . S
C1242 H1261 0.913 . S
C1243 H1219 0.950 . S
C1243 C1242 1.524 . S
C1243 C1244 1.415 . S
C1244 H1220 0.950 . S
C1244 C1239 1.363 . S
C1244 C1243 1.415 . S
C1245 H1221 0.951 . S
C1245 C1246 1.366 . S
C1245 C1247 1.388 . S
C1246 C1245 1.366 . S
C1246 C1250 1.385 . S
C1247 H1222 0.951 . S
C1247 C1245 1.388 . S
C1247 C1248 1.366 . S
C1248 C1247 1.366 . S
C1248 C1249 1.414 . S
C1248 C1251 1.499 . S
C1249 H1223 0.950 . S
C1249 C1248 1.414 . S
C1249 C1250 1.374 . S
C1250 H1224 0.950 . S
C1250 C1246 1.385 . S
C1250 C1249 1.374 . S
C1251 C1248 1.499 . S
C1251 C1252 1.373 . S
C1251 C1253 1.389 . S
C1252 H1225 0.950 . S
C1252 C1238 1.377 . S
C1252 C1251 1.373 . S
C1253 C1237 1.377 . S
C1253 C1251 1.389 . S
C1253 C1254 1.524 . S
C1254 C1253 1.524 . S
C1254 C1255 1.397 . S
C1254 C1259 1.363 . S
C1255 H1226 0.950 . S
C1255 C1254 1.397 . S
C1255 C1256 1.334 . S
C1256 H1227 0.950 . S
C1256 C1255 1.334 . S
C1256 C1257 1.287 . S
C1257 C1256 1.287 . S
C1257 C1258 1.524 . S
C1257 H1260 0.999 . S
C1258 H1228 0.950 . S
C1258 C1257 1.524 . S
C1258 C1259 1.415 . S
C1259 H1229 0.950 . S
C1259 C1254 1.363 . S
C1259 C1258 1.415 . S
H1260 C1257 0.999 . S
H1261 C1242 0.913 . S
H1262 C1280 0.951 . S
H1263 C1282 0.951 . S
H1264 C1284 0.950 . S
H1265 C1285 0.950 . S
H1266 C1287 0.950 . S
H1267 C1290 0.951 . S
H1268 C1291 0.950 . S
H1269 C1293 0.950 . S
H1270 C1294 0.950 . S
H1271 C1295 0.951 . S
H1272 C1297 0.951 . S
H1273 C1299 0.950 . S
H1274 C1300 0.950 . S
H1275 C1302 0.950 . S
H1276 C1305 0.950 . S
H1277 C1306 0.950 . S
H1278 C1308 0.950 . S
H1279 C1309 0.950 . S
C1280 H1262 0.951 . S
C1280 C1281 1.366 . S
C1280 C1282 1.388 . S
C1281 C1280 1.366 . S
C1281 C1285 1.385 . S
C1282 H1263 0.951 . S
C1282 C1280 1.388 . S
C1282 C1283 1.366 . S
C1283 C1282 1.366 . S
C1283 C1284 1.414 . S
C1283 C1286 1.499 . S
C1284 H1264 0.950 . S
C1284 C1283 1.414 . S
C1284 C1285 1.374 . S
C1285 H1265 0.950 . S
C1285 C1281 1.385 . S
C1285 C1284 1.374 . S
C1286 C1283 1.499 . S
C1286 C1287 1.373 . S
C1286 C1288 1.389 . S
C1287 H1266 0.950 . S
C1287 C1286 1.373 . S
C1287 C1303 1.377 . S
C1288 C1286 1.389 . S
C1288 C1289 1.524 . S
C1288 C1302 1.377 . S
C1289 C1288 1.524 . S
C1289 C1290 1.397 . S
C1289 C1294 1.363 . S
C1290 H1267 0.951 . S
C1290 C1289 1.397 . S
C1290 C1291 1.334 1_556 S
C1291 H1268 0.950 . S
C1291 C1290 1.334 1_554 S
C1291 C1292 1.287 1_554 S
C1292 C1291 1.287 1_556 S
C1292 C1293 1.524 . S
C1292 H1311 0.913 1_556 S
C1293 H1269 0.950 . S
C1293 C1292 1.524 . S
C1293 C1294 1.415 . S
C1294 H1270 0.950 . S
C1294 C1289 1.363 . S
C1294 C1293 1.415 . S
C1295 H1271 0.951 . S
C1295 C1296 1.366 . S
C1295 C1297 1.388 . S
C1296 C1295 1.366 . S
C1296 C1300 1.385 . S
C1297 H1272 0.951 . S
C1297 C1295 1.388 . S
C1297 C1298 1.366 . S
C1298 C1297 1.366 . S
C1298 C1299 1.414 . S
C1298 C1301 1.499 . S
C1299 H1273 0.950 . S
C1299 C1298 1.414 . S
C1299 C1300 1.374 . S
C1300 H1274 0.950 . S
C1300 C1296 1.385 . S
C1300 C1299 1.374 . S
C1301 C1298 1.499 . S
C1301 C1302 1.373 . S
C1301 C1303 1.389 . S
C1302 H1275 0.950 . S
C1302 C1288 1.377 . S
C1302 C1301 1.373 . S
C1303 C1287 1.377 . S
C1303 C1301 1.389 . S
C1303 C1304 1.524 . S
C1304 C1303 1.524 . S
C1304 C1305 1.397 . S
C1304 C1309 1.363 . S
C1305 H1276 0.950 . S
C1305 C1304 1.397 . S
C1305 C1306 1.334 . S
C1306 H1277 0.950 . S
C1306 C1305 1.334 . S
C1306 C1307 1.287 . S
C1307 C1306 1.287 . S
C1307 C1308 1.524 . S
C1307 H1310 0.999 . S
C1308 H1278 0.950 . S
C1308 C1307 1.524 . S
C1308 C1309 1.415 . S
C1309 H1279 0.950 . S
C1309 C1304 1.363 . S
C1309 C1308 1.415 . S
H1310 C1307 0.999 . S
H1311 C1292 0.913 1_554 S
H1312 C1330 0.951 . S
H1313 C1332 0.951 . S
H1314 C1334 0.994 . S
H1315 C1335 0.950 . S
H1316 C1337 0.950 . S
H1317 C1340 0.950 1_455 S
H1318 C1341 0.950 1_455 S
H1319 C1343 0.950 . S
H1320 C1344 0.950 . S
H1321 C1345 0.951 . S
H1322 C1347 0.951 . S
H1323 C1349 0.950 . S
H1324 C1350 0.950 . S
H1325 C1352 0.950 . S
H1326 C1355 0.950 . S
H1327 C1356 0.950 . S
H1328 C1358 0.950 1_455 S
H1329 C1359 0.950 1_455 S
C1330 H1312 0.951 . S
C1330 C1331 1.366 . S
C1330 C1332 1.388 . S
C1331 C1330 1.366 . S
C1331 C1335 1.385 . S
C1332 H1313 0.951 . S
C1332 C1330 1.388 . S
C1332 C1333 1.366 . S
C1333 C1332 1.366 . S
C1333 C1334 1.414 . S
C1333 C1336 1.499 . S
C1334 H1314 0.994 . S
C1334 C1333 1.414 . S
C1334 C1335 1.374 . S
C1335 H1315 0.950 . S
C1335 C1331 1.385 . S
C1335 C1334 1.374 . S
C1336 C1333 1.499 . S
C1336 C1337 1.373 . S
C1336 C1338 1.389 . S
C1337 H1316 0.950 . S
C1337 C1336 1.373 . S
C1337 C1353 1.377 . S
C1338 C1336 1.389 . S
C1338 C1339 1.524 . S
C1338 C1352 1.377 . S
C1339 C1338 1.524 . S
C1339 C1340 1.397 . S
C1339 C1344 1.363 . S
C1340 H1317 0.950 1_655 S
C1340 C1339 1.397 . S
C1340 C1341 1.334 . S
C1341 H1318 0.950 1_655 S
C1341 C1340 1.334 . S
C1341 C1342 1.287 . S
C1342 C1341 1.287 . S
C1342 C1343 1.524 . S
C1342 H1361 0.913 . S
C1343 H1319 0.950 . S
C1343 C1342 1.524 . S
C1343 C1344 1.415 . S
C1344 H1320 0.950 . S
C1344 C1339 1.363 . S
C1344 C1343 1.415 . S
C1345 H1321 0.951 . S
C1345 C1346 1.366 1_455 S
C1345 C1347 1.388 . S
C1346 C1345 1.366 1_655 S
C1346 C1350 1.385 . S
C1347 H1322 0.951 . S
C1347 C1345 1.388 . S
C1347 C1348 1.366 1_455 S
C1348 C1347 1.366 1_655 S
C1348 C1349 1.414 . S
C1348 C1351 1.499 . S
C1349 H1323 0.950 . S
C1349 C1348 1.414 . S
C1349 C1350 1.374 . S
C1350 H1324 0.950 . S
C1350 C1346 1.385 . S
C1350 C1349 1.374 . S
C1351 C1348 1.499 . S
C1351 C1352 1.373 . S
C1351 C1353 1.389 . S
C1352 H1325 0.950 . S
C1352 C1338 1.377 . S
C1352 C1351 1.373 . S
C1353 C1337 1.377 . S
C1353 C1351 1.389 . S
C1353 C1354 1.524 . S
C1354 C1353 1.524 . S
C1354 C1355 1.397 . S
C1354 C1359 1.363 . S
C1355 H1326 0.950 . S
C1355 C1354 1.397 . S
C1355 C1356 1.334 . S
C1356 H1327 0.950 . S
C1356 C1355 1.334 . S
C1356 C1357 1.287 . S
C1357 C1356 1.287 . S
C1357 C1358 1.524 . S
C1357 H1360 0.999 . S
C1358 H1328 0.950 1_655 S
C1358 C1357 1.524 . S
C1358 C1359 1.415 . S
C1359 H1329 0.950 1_655 S
C1359 C1354 1.363 . S
C1359 C1358 1.415 . S
H1360 C1357 0.999 . S
H1361 C1342 0.913 . S
H1362 C1380 0.951 . S
H1363 C1382 0.951 1_545 S
H1364 C1384 0.950 . S
H1365 C1385 0.950 . S
H1366 C1387 0.950 . S
H1367 C1390 0.950 . S
H1368 C1391 0.950 . S
H1369 C1393 0.950 . S
H1370 C1394 0.950 . S
H1371 C1395 0.951 . S
H1372 C1397 0.951 . S
H1373 C1399 0.950 . S
H1374 C1400 0.950 . S
H1375 C1402 0.950 . S
H1376 C1405 0.950 . S
H1377 C1406 0.950 . S
H1378 C1408 0.950 . S
H1379 C1409 0.950 . S
C1380 H1362 0.951 . S
C1380 C1381 1.366 . S
C1380 C1382 1.388 . S
C1381 C1380 1.366 . S
C1381 C1385 1.385 . S
C1382 H1363 0.951 1_565 S
C1382 C1380 1.388 . S
C1382 C1383 1.366 . S
C1383 C1382 1.366 . S
C1383 C1384 1.414 . S
C1383 C1386 1.499 . S
C1384 H1364 0.950 . S
C1384 C1383 1.414 . S
C1384 C1385 1.374 . S
C1385 H1365 0.950 . S
C1385 C1381 1.385 . S
C1385 C1384 1.374 . S
C1386 C1383 1.499 . S
C1386 C1387 1.373 . S
C1386 C1388 1.389 1_565 S
C1387 H1366 0.950 . S
C1387 C1386 1.373 . S
C1387 C1403 1.377 . S
C1388 C1386 1.389 1_545 S
C1388 C1389 1.524 . S
C1388 C1402 1.377 . S
C1389 C1388 1.524 . S
C1389 C1390 1.397 . S
C1389 C1394 1.363 . S
C1390 H1367 0.950 . S
C1390 C1389 1.397 . S
C1390 C1391 1.334 . S
C1391 H1368 0.950 . S
C1391 C1390 1.334 . S
C1391 C1392 1.287 . S
C1392 C1391 1.287 . S
C1392 C1393 1.524 . S
C1392 H1411 0.913 . S
C1393 H1369 0.950 . S
C1393 C1392 1.524 . S
C1393 C1394 1.415 . S
C1394 H1370 0.950 . S
C1394 C1389 1.363 . S
C1394 C1393 1.415 . S
C1395 H1371 0.951 . S
C1395 C1396 1.366 . S
C1395 C1397 1.388 . S
C1396 C1395 1.366 . S
C1396 C1400 1.385 1_565 S
C1397 H1372 0.951 . S
C1397 C1395 1.388 . S
C1397 C1398 1.366 . S
C1398 C1397 1.366 . S
C1398 C1399 1.414 1_565 S
C1398 C1401 1.499 . S
C1399 H1373 0.950 . S
C1399 C1398 1.414 1_545 S
C1399 C1400 1.374 . S
C1400 H1374 0.950 . S
C1400 C1396 1.385 1_545 S
C1400 C1399 1.374 . S
C1401 C1398 1.499 . S
C1401 C1402 1.373 1_565 S
C1401 C1403 1.389 . S
C1402 H1375 0.950 . S
C1402 C1388 1.377 . S
C1402 C1401 1.373 1_545 S
C1403 C1387 1.377 . S
C1403 C1401 1.389 . S
C1403 C1404 1.524 . S
C1404 C1403 1.524 . S
C1404 C1405 1.397 . S
C1404 C1409 1.363 . S
C1405 H1376 0.950 . S
C1405 C1404 1.397 . S
C1405 C1406 1.334 . S
C1406 H1377 0.950 . S
C1406 C1405 1.334 . S
C1406 C1407 1.287 . S
C1407 C1406 1.287 . S
C1407 C1408 1.524 . S
C1407 H1410 0.999 . S
C1408 H1378 0.950 . S
C1408 C1407 1.524 . S
C1408 C1409 1.415 . S
C1409 H1379 0.950 . S
C1409 C1404 1.363 . S
C1409 C1408 1.415 . S
H1410 C1407 0.999 . S
H1411 C1392 0.913 . S
H1412 C1430 0.951 . S
H1413 C1432 0.951 . S
H1414 C1434 0.950 . S
H1415 C1435 0.950 . S
H1416 C1437 0.950 . S
H1417 C1440 0.950 . S
H1418 C1441 0.950 . S
H1419 C1443 0.950 . S
H1420 C1444 0.950 . S
H1421 C1445 0.951 . S
H1422 C1447 0.951 . S
H1423 C1449 0.950 . S
H1424 C1450 0.950 . S
H1425 C1452 0.950 . S
H1426 C1455 0.950 . S
H1427 C1456 0.950 . S
H1428 C1458 0.950 . S
H1429 C1459 0.950 . S
C1430 H1412 0.951 . S
C1430 C1431 1.366 . S
C1430 C1432 1.388 . S
C1431 C1430 1.366 . S
C1431 C1435 1.385 . S
C1432 H1413 0.951 . S
C1432 C1430 1.388 . S
C1432 C1433 1.366 . S
C1433 C1432 1.366 . S
C1433 C1434 1.414 . S
C1433 C1436 1.499 . S
C1434 H1414 0.950 . S
C1434 C1433 1.414 . S
C1434 C1435 1.374 . S
C1435 H1415 0.950 . S
C1435 C1431 1.385 . S
C1435 C1434 1.374 . S
C1436 C1433 1.499 . S
C1436 C1437 1.373 . S
C1436 C1438 1.389 . S
C1437 H1416 0.950 . S
C1437 C1436 1.373 . S
C1437 C1453 1.377 . S
C1438 C1436 1.389 . S
C1438 C1439 1.524 . S
C1438 C1452 1.377 . S
C1439 C1438 1.524 . S
C1439 C1440 1.397 . S
C1439 C1444 1.363 . S
C1440 H1417 0.950 . S
C1440 C1439 1.397 . S
C1440 C1441 1.334 . S
C1441 H1418 0.950 . S
C1441 C1440 1.334 . S
C1441 C1442 1.287 . S
C1442 C1441 1.287 . S
C1442 C1443 1.524 . S
C1442 H1461 0.913 . S
C1443 H1419 0.950 . S
C1443 C1442 1.524 . S
C1443 C1444 1.415 . S
C1444 H1420 0.950 . S
C1444 C1439 1.363 . S
C1444 C1443 1.415 . S
C1445 H1421 0.951 . S
C1445 C1446 1.366 . S
C1445 C1447 1.388 . S
C1446 C1445 1.366 . S
C1446 C1450 1.385 . S
C1447 H1422 0.951 . S
C1447 C1445 1.388 . S
C1447 C1448 1.366 . S
C1448 C1447 1.366 . S
C1448 C1449 1.414 . S
C1448 C1451 1.499 . S
C1449 H1423 0.950 . S
C1449 C1448 1.414 . S
C1449 C1450 1.374 . S
C1450 H1424 0.950 . S
C1450 C1446 1.385 . S
C1450 C1449 1.374 . S
C1451 C1448 1.499 . S
C1451 C1452 1.373 . S
C1451 C1453 1.389 . S
C1452 H1425 0.950 . S
C1452 C1438 1.377 . S
C1452 C1451 1.373 . S
C1453 C1437 1.377 . S
C1453 C1451 1.389 . S
C1453 C1454 1.524 . S
C1454 C1453 1.524 . S
C1454 C1455 1.397 . S
C1454 C1459 1.363 . S
C1455 H1426 0.950 . S
C1455 C1454 1.397 . S
C1455 C1456 1.334 . S
C1456 H1427 0.950 . S
C1456 C1455 1.334 . S
C1456 C1457 1.287 . S
C1457 C1456 1.287 . S
C1457 C1458 1.524 . S
C1457 H1460 0.999 . S
C1458 H1428 0.950 . S
C1458 C1457 1.524 . S
C1458 C1459 1.415 . S
C1459 H1429 0.950 . S
C1459 C1454 1.363 . S
C1459 C1458 1.415 . S
H1460 C1457 0.999 . S
H1461 C1442 0.913 . S
H1462 C1480 0.951 . S
H1463 C1482 0.951 . S
H1464 C1484 0.950 . S
H1465 C1485 0.950 . S
H1466 C1487 0.950 . S
H1467 C1490 0.950 . S
H1468 C1491 0.950 . S
H1469 C1493 0.950 . S
H1470 C1494 0.950 . S
H1471 C1495 0.951 . S
H1472 C1497 0.951 . S
H1473 C1499 0.950 . S
H1474 C1500 0.950 . S
H1475 C1502 0.950 . S
H1476 C1505 0.950 . S
H1477 C1506 0.950 . S
H1478 C1508 0.950 . S
H1479 C1509 0.950 . S
C1480 H1462 0.951 . S
C1480 C1481 1.366 . S
C1480 C1482 1.388 . S
C1481 C1480 1.366 . S
C1481 C1485 1.385 . S
C1482 H1463 0.951 . S
C1482 C1480 1.388 . S
C1482 C1483 1.366 . S
C1483 C1482 1.366 . S
C1483 C1484 1.414 . S
C1483 C1486 1.499 . S
C1484 H1464 0.950 . S
C1484 C1483 1.414 . S
C1484 C1485 1.374 . S
C1485 H1465 0.950 . S
C1485 C1481 1.385 . S
C1485 C1484 1.374 . S
C1486 C1483 1.499 . S
C1486 C1487 1.373 . S
C1486 C1488 1.389 . S
C1487 H1466 0.950 . S
C1487 C1486 1.373 . S
C1487 C1503 1.377 . S
C1488 C1486 1.389 . S
C1488 C1489 1.524 . S
C1488 C1502 1.377 . S
C1489 C1488 1.524 . S
C1489 C1490 1.397 . S
C1489 C1494 1.363 . S
C1490 H1467 0.950 . S
C1490 C1489 1.397 . S
C1490 C1491 1.334 . S
C1491 H1468 0.950 . S
C1491 C1490 1.334 . S
C1491 C1492 1.287 . S
C1492 C1491 1.287 . S
C1492 C1493 1.524 . S
C1492 H1511 0.913 . S
C1493 H1469 0.950 . S
C1493 C1492 1.524 . S
C1493 C1494 1.415 . S
C1494 H1470 0.950 . S
C1494 C1489 1.363 . S
C1494 C1493 1.415 . S
C1495 H1471 0.951 . S
C1495 C1496 1.366 . S
C1495 C1497 1.388 . S
C1496 C1495 1.366 . S
C1496 C1500 1.385 . S
C1497 H1472 0.951 . S
C1497 C1495 1.388 . S
C1497 C1498 1.366 . S
C1498 C1497 1.366 . S
C1498 C1499 1.414 . S
C1498 C1501 1.499 . S
C1499 H1473 0.950 . S
C1499 C1498 1.414 . S
C1499 C1500 1.374 . S
C1500 H1474 0.950 . S
C1500 C1496 1.385 . S
C1500 C1499 1.374 . S
C1501 C1498 1.499 . S
C1501 C1502 1.373 . S
C1501 C1503 1.389 . S
C1502 H1475 0.950 . S
C1502 C1488 1.377 . S
C1502 C1501 1.373 . S
C1503 C1487 1.377 . S
C1503 C1501 1.389 . S
C1503 C1504 1.524 . S
C1504 C1503 1.524 . S
C1504 C1505 1.397 . S
C1504 C1509 1.363 . S
C1505 H1476 0.950 . S
C1505 C1504 1.397 . S
C1505 C1506 1.334 . S
C1506 H1477 0.950 . S
C1506 C1505 1.334 . S
C1506 C1507 1.287 . S
C1507 C1506 1.287 . S
C1507 C1508 1.524 . S
C1507 H1510 0.999 . S
C1508 H1478 0.950 . S
C1508 C1507 1.524 . S
C1508 C1509 1.415 . S
C1509 H1479 0.950 . S
C1509 C1504 1.363 . S
C1509 C1508 1.415 . S
H1510 C1507 0.999 . S
H1511 C1492 0.913 . S
C331 C125 2.213 . S
C346 C183 2.295 . S
C396 C209 1.688 . S
C381 C144 1.669 . S
C446 C249 1.848 . S
C431 C87 1.765 . S
C496 C303 2.400 . S
C481 C106 2.295 . S
C546 C164 2.295 1_565 S
C531 C49 2.274 . S
C581 C68 1.631 . S
C596 C194 1.688 . S
C631 C11 1.826 . S
C646 C234 1.847 . S
C681 C30 2.374 . S
C696 C284 2.400 1_655 S
C746 C160 0.391 . S
C731 C97 0.467 . S
C796 C221 0.599 . S
C781 C116 0.608 . S
C846 C261 0.484 . S
C831 C135 0.507 . S
C881 C78 0.429 . S
C896 C280 0.296 . S
C931 C21 0.467 . S
C946 C181 0.393 . S
C996 C200 0.598 . S
C981 C40 0.608 . S
C1046 C240 0.485 . S
C1031 C59 0.506 . S
C1081 C2 0.427 . S
C1096 C301 0.295 . S
C1131 C101 1.821 . S
C1146 C154 1.974 . S
C1181 C120 2.416 . S
C1196 C204 2.583 . S
C1246 C244 2.306 . S
C1231 C139 2.168 . S
C1296 C274 1.696 . S
C1281 C82 1.580 . S
C1331 C25 1.827 . S
C1346 C169 1.980 . S
C1396 C223 2.589 . S
C1381 C44 2.419 . S
C1446 C263 2.306 . S
C1431 C63 2.165 . S
C1481 C6 1.582 . S
C1496 C289 1.696 . S
