# Generated by pormake.
# Topology apo, (3,6)-cn, num edge types: 1
# Building blocks:
#     Node 0, Type 0, BuildingBlock: BETDIP_clean_linker_0, # of connection points: 3
#     Node 1, Type 0, BuildingBlock: BETDIP_clean_linker_0, # of connection points: 3
#     Node 2, Type 0, BuildingBlock: BETDIP_clean_linker_0, # of connection points: 3
#     Node 3, Type 0, BuildingBlock: BETDIP_clean_linker_0, # of connection points: 3
#     Node 4, Type 0, BuildingBlock: BETDIP_clean_linker_0, # of connection points: 3
#     Node 5, Type 0, BuildingBlock: BETDIP_clean_linker_0, # of connection points: 3
#     Node 6, Type 0, BuildingBlock: BETDIP_clean_linker_0, # of connection points: 3
#     Node 7, Type 0, BuildingBlock: BETDIP_clean_linker_0, # of connection points: 3
#     Node 8, Type 1, BuildingBlock: MIDCAF_clean_sbu_0, # of connection points: 6
#     Node 9, Type 1, BuildingBlock: MIDCAF_clean_sbu_0, # of connection points: 6
#     Node 10, Type 1, BuildingBlock: MIDCAF_clean_sbu_0, # of connection points: 6
#     Node 11, Type 1, BuildingBlock: MIDCAF_clean_sbu_0, # of connection points: 6
#     Edge 12, Type (0, 1), BuildingBlock: AJUNOK_clean_linker_0, # of connection points: 2
#     Edge 13, Type (0, 1), BuildingBlock: AJUNOK_clean_linker_0, # of connection points: 2
#     Edge 14, Type (0, 1), BuildingBlock: AJUNOK_clean_linker_0, # of connection points: 2
#     Edge 15, Type (0, 1), BuildingBlock: AJUNOK_clean_linker_0, # of connection points: 2
#     Edge 16, Type (0, 1), BuildingBlock: AJUNOK_clean_linker_0, # of connection points: 2
#     Edge 17, Type (0, 1), BuildingBlock: AJUNOK_clean_linker_0, # of connection points: 2
#     Edge 18, Type (0, 1), BuildingBlock: AJUNOK_clean_linker_0, # of connection points: 2
#     Edge 19, Type (0, 1), BuildingBlock: AJUNOK_clean_linker_0, # of connection points: 2
#     Edge 20, Type (0, 1), BuildingBlock: AJUNOK_clean_linker_0, # of connection points: 2
#     Edge 21, Type (0, 1), BuildingBlock: AJUNOK_clean_linker_0, # of connection points: 2
#     Edge 22, Type (0, 1), BuildingBlock: AJUNOK_clean_linker_0, # of connection points: 2
#     Edge 23, Type (0, 1), BuildingBlock: AJUNOK_clean_linker_0, # of connection points: 2
#     Edge 24, Type (0, 1), BuildingBlock: AJUNOK_clean_linker_0, # of connection points: 2
#     Edge 25, Type (0, 1), BuildingBlock: AJUNOK_clean_linker_0, # of connection points: 2
#     Edge 26, Type (0, 1), BuildingBlock: AJUNOK_clean_linker_0, # of connection points: 2
#     Edge 27, Type (0, 1), BuildingBlock: AJUNOK_clean_linker_0, # of connection points: 2
#     Edge 28, Type (0, 1), BuildingBlock: AJUNOK_clean_linker_0, # of connection points: 2
#     Edge 29, Type (0, 1), BuildingBlock: AJUNOK_clean_linker_0, # of connection points: 2
#     Edge 30, Type (0, 1), BuildingBlock: AJUNOK_clean_linker_0, # of connection points: 2
#     Edge 31, Type (0, 1), BuildingBlock: AJUNOK_clean_linker_0, # of connection points: 2
#     Edge 32, Type (0, 1), BuildingBlock: AJUNOK_clean_linker_0, # of connection points: 2
#     Edge 33, Type (0, 1), BuildingBlock: AJUNOK_clean_linker_0, # of connection points: 2
#     Edge 34, Type (0, 1), BuildingBlock: AJUNOK_clean_linker_0, # of connection points: 2
#     Edge 35, Type (0, 1), BuildingBlock: AJUNOK_clean_linker_0, # of connection points: 2
# Relax obj value: 0.011
# Max RMSD: 0.060
# Mean RMSD: 0.050
data_MOF--net-apo--node1-MIDCAF_clean_sbu_0--node2-BETDIP_clean_linker_0--edge1-AJUNOK_clean_linker_0
_symmetry_space_group_name_H-M    P1
_symmetry_Int_Tables_number       1
_symmetry_cell_setting            triclinic
loop_
_symmetry_equiv_pos_as_xyz
'x, y, z'
_cell_length_a     27.233423
_cell_length_b     30.452618
_cell_length_c     24.854911
_cell_angle_alpha  90.613396
_cell_angle_beta   89.684119
_cell_angle_gamma 90.432688
loop_
_atom_site_label
_atom_site_type_symbol
_atom_site_fract_x
_atom_site_fract_y
_atom_site_fract_z
_atom_type_partial_charge
H0 H 0.32291 0.27174 0.43939 0.0
H1 H 0.35594 0.35989 0.31034 0.0
H2 H 0.46214 0.33819 0.43491 0.0
H3 H 0.31457 0.29005 0.26152 0.0
C4 C 0.28347 0.29175 0.289 0.0
C5 C 0.3489 0.29305 0.41903 0.0
C6 C 0.39395 0.30327 0.44319 0.0
C7 C 0.33732 0.3103 0.36847 0.0
C8 C 0.36816 0.34257 0.34559 0.0
C9 C 0.41203 0.3553 0.37163 0.0
C10 C 0.42688 0.33125 0.41658 0.0
N11 N 0.29161 0.29857 0.345 0.0
H12 H 0.18575 0.22147 0.93096 0.0
H13 H 0.15685 0.14655 0.7867 0.0
H14 H 0.1011 0.10212 0.93919 0.0
H15 H 0.23491 0.17223 0.76477 0.0
C16 C 0.23367 0.206 0.7792 0.0
C17 C 0.16928 0.19311 0.91126 0.0
C18 C 0.14219 0.16267 0.94159 0.0
C19 C 0.17659 0.18634 0.85574 0.0
C20 C 0.15395 0.15023 0.82994 0.0
C21 C 0.1265 0.11951 0.85963 0.0
C22 C 0.12155 0.12583 0.91557 0.0
N23 N 0.20682 0.2164 0.827 0.0
H24 H 0.81184 0.21511 0.57917 0.0
H25 H 0.81527 0.12209 0.70859 0.0
H26 H 0.88877 0.09364 0.5588 0.0
H27 H 0.74701 0.15847 0.73688 0.0
C28 C 0.75351 0.1924 0.72572 0.0
C29 C 0.82296 0.18363 0.59479 0.0
C30 C 0.85008 0.15475 0.56209 0.0
C31 C 0.80951 0.17187 0.64746 0.0
C32 C 0.8251 0.13136 0.66805 0.0
C33 C 0.85403 0.10291 0.63634 0.0
C34 C 0.86573 0.11486 0.58334 0.0
N35 N 0.78165 0.20222 0.6788 0.0
H36 H 0.68001 0.26244 0.0846 0.0
H37 H 0.68143 0.35553 0.21667 0.0
H38 H 0.59899 0.38189 0.07345 0.0
H39 H 0.74622 0.3171 0.24518 0.0
C40 C 0.74542 0.28461 0.22691 0.0
C41 C 0.66833 0.29334 0.10233 0.0
C42 C 0.6389 0.32159 0.07265 0.0
C43 C 0.68404 0.30524 0.1543 0.0
C44 C 0.66898 0.34566 0.17713 0.0
C45 C 0.6381 0.37375 0.14816 0.0
C46 C 0.62323 0.361 0.09615 0.0
N47 N 0.71521 0.27557 0.18145 0.0
H48 H 0.67604 0.73007 0.60484 0.0
H49 H 0.65089 0.65187 0.74587 0.0
H50 H 0.57067 0.62462 0.60055 0.0
H51 H 0.68787 0.71732 0.78967 0.0
C52 C 0.71709 0.71913 0.75985 0.0
C53 C 0.65588 0.7043 0.62529 0.0
C54 C 0.62103 0.67924 0.59708 0.0
C55 C 0.66627 0.6952 0.67931 0.0
C56 C 0.64134 0.66059 0.70514 0.0
C57 C 0.60632 0.63514 0.67707 0.0
C58 C 0.59614 0.64506 0.62324 0.0
N59 N 0.7061 0.71786 0.70397 0.0
H60 H 0.8167 0.78907 0.09543 0.0
H61 H 0.85841 0.84065 0.25092 0.0
H62 H 0.93237 0.88494 0.10797 0.0
H63 H 0.81623 0.77592 0.28117 0.0
C64 C 0.7854 0.77828 0.25386 0.0
C65 C 0.84079 0.80939 0.11995 0.0
C66 C 0.87647 0.8359 0.09518 0.0
C67 C 0.83425 0.8106 0.17617 0.0
C68 C 0.86418 0.83852 0.20786 0.0
C69 C 0.89973 0.86572 0.18346 0.0
C70 C 0.90593 0.86341 0.12735 0.0
N71 N 0.79364 0.78726 0.19841 0.0
H72 H 0.19344 0.77828 0.45227 0.0
H73 H 0.18726 0.86244 0.31394 0.0
H74 H 0.11558 0.9005 0.46117 0.0
H75 H 0.25445 0.82407 0.28691 0.0
C76 C 0.25069 0.79144 0.30359 0.0
C77 C 0.18161 0.80843 0.4337 0.0
C78 C 0.15419 0.83898 0.46382 0.0
C79 C 0.19466 0.81681 0.37991 0.0
C80 C 0.17863 0.85573 0.35561 0.0
C81 C 0.14973 0.88567 0.38491 0.0
C82 C 0.13796 0.87724 0.43877 0.0
N83 N 0.22286 0.78481 0.35161 0.0
H84 H 0.3088 0.70753 0.96646 0.0
H85 H 0.33019 0.64 0.81502 0.0
H86 H 0.41459 0.60431 0.9537 0.0
H87 H 0.28772 0.70072 0.78129 0.0
C88 C 0.26136 0.70643 0.81349 0.0
C89 C 0.32792 0.68316 0.94229 0.0
C90 C 0.36371 0.65708 0.96591 0.0
C91 C 0.3155 0.67726 0.88799 0.0
C92 C 0.34003 0.64524 0.85672 0.0
C93 C 0.37607 0.61862 0.88019 0.0
C94 C 0.38763 0.62506 0.93477 0.0
N95 N 0.27525 0.70152 0.86814 0.0
Zn96 Zn 0.06072 0.14213 0.34865 0.0
Zn97 Zn 0.9694 0.11228 0.18038 0.0
Zn98 Zn 0.01617 0.12888 0.26558 0.0
C99 C 0.05543 0.15198 0.14606 0.0
C100 C 0.97867 0.03198 0.22715 0.0
O101 O 0.964 0.15956 0.32485 0.0
O102 O 0.00637 0.15082 0.39947 0.0
C103 C 0.10368 0.19859 0.27932 0.0
O104 O 0.06109 0.15655 0.19739 0.0
O105 O 0.01841 0.13196 0.12762 0.0
O106 O 0.9572 0.04913 0.18796 0.0
O107 O 0.00519 0.05581 0.2591 0.0
O108 O 0.09526 0.19585 0.32903 0.0
O109 O 0.08141 0.17221 0.24633 0.0
O110 O 0.04206 0.06458 0.29531 0.0
O111 O 0.09973 0.08719 0.35128 0.0
C112 C 0.07915 0.05635 0.32549 0.0
O113 O 0.94312 0.16212 0.27374 0.0
O114 O 0.91219 0.14944 0.19302 0.0
C115 C 0.96717 0.16175 0.37664 0.0
C116 C 0.9085 0.16695 0.23904 0.0
Zn117 Zn 0.55993 0.37314 0.68192 0.0
Zn118 Zn 0.44881 0.3648 0.84678 0.0
Zn119 Zn 0.5027 0.36603 0.76254 0.0
C120 C 0.45379 0.45172 0.82117 0.0
C121 C 0.39601 0.31985 0.76887 0.0
O122 O 0.57179 0.32931 0.78118 0.0
O123 O 0.61636 0.34121 0.70812 0.0
C124 C 0.54683 0.45764 0.7123 0.0
O125 O 0.48149 0.43502 0.78408 0.0
O126 O 0.43481 0.42756 0.85659 0.0
O127 O 0.39404 0.33121 0.81769 0.0
O128 O 0.43417 0.32913 0.74004 0.0
O129 O 0.57005 0.43656 0.67665 0.0
O130 O 0.51898 0.43721 0.74615 0.0
O131 O 0.46454 0.33172 0.69407 0.0
O132 O 0.51898 0.34169 0.62891 0.0
C133 C 0.47853 0.32592 0.64481 0.0
O134 O 0.54461 0.33446 0.82951 0.0
O135 O 0.49201 0.33532 0.89757 0.0
C136 C 0.61174 0.32398 0.7537 0.0
C137 C 0.53375 0.32571 0.87894 0.0
Zn138 Zn 0.03849 0.8757 0.84129 0.0
Zn139 Zn 0.95165 0.84582 0.68788 0.0
Zn140 Zn 0.99408 0.86523 0.76717 0.0
C141 C 0.93332 0.93513 0.70515 0.0
C142 C 0.9056 0.79557 0.7603 0.0
O143 O 0.06457 0.82776 0.75893 0.0
O144 O 0.0704 0.81794 0.84603 0.0
C145 C 0.05002 0.95155 0.79355 0.0
O146 O 0.96879 0.93011 0.7386 0.0
O147 O 0.91578 0.90187 0.68107 0.0
O148 O 0.91458 0.79426 0.71058 0.0
O149 O 0.92879 0.82352 0.79036 0.0
O150 O 0.07914 0.92548 0.81572 0.0
O151 O 0.00793 0.9371 0.77727 0.0
O152 O 0.95073 0.84043 0.83791 0.0
O153 O 0.9848 0.88841 0.89312 0.0
C154 C 0.95131 0.8606 0.88384 0.0
O155 O 0.04801 0.83638 0.70698 0.0
O156 O 0.00211 0.83472 0.63403 0.0
C157 C 0.08427 0.80798 0.79902 0.0
C158 C 0.04338 0.83024 0.65566 0.0
Zn159 Zn 0.55751 0.63623 0.19318 0.0
Zn160 Zn 0.45743 0.61982 0.35519 0.0
Zn161 Zn 0.51109 0.62309 0.2753 0.0
C162 C 0.53782 0.66468 0.39224 0.0
C163 C 0.4768 0.53302 0.32995 0.0
O164 O 0.46177 0.64998 0.21111 0.0
O165 O 0.50909 0.64904 0.13864 0.0
C166 C 0.60369 0.68979 0.26292 0.0
O167 O 0.5513 0.6567 0.34323 0.0
O168 O 0.49595 0.65269 0.4083 0.0
O169 O 0.45396 0.5567 0.36336 0.0
O170 O 0.50219 0.55105 0.29203 0.0
O171 O 0.59869 0.68576 0.21284 0.0
O172 O 0.57692 0.66639 0.29493 0.0
O173 O 0.53724 0.55625 0.25003 0.0
O174 O 0.58945 0.57867 0.1879 0.0
C175 C 0.57147 0.54782 0.21535 0.0
O176 O 0.43784 0.65663 0.26021 0.0
O177 O 0.39618 0.64624 0.33547 0.0
C178 C 0.46779 0.65555 0.16002 0.0
C179 C 0.39846 0.66193 0.28894 0.0
C180 C 0.08185 0.93479 0.3558 0.0
C181 C 0.13249 0.92684 0.36063 0.0
C182 C 0.06457 0.97627 0.34098 0.0
C183 C 0.09746 0.01122 0.33184 0.0
H184 H 0.05547 0.90918 0.36532 0.0
H185 H 0.02533 0.98165 0.33975 0.0
S186 S 0.23344 0.00621 0.33565 0.0
N187 N 0.21514 0.95618 0.35173 0.0
N188 N 0.18287 0.03441 0.32513 0.0
C189 C 0.14815 0.00308 0.33447 0.0
C190 C 0.16565 0.96076 0.34853 0.0
C191 C 0.44905 0.57217 0.85579 0.0
C192 C 0.39838 0.58077 0.85074 0.0
C193 C 0.4687 0.53123 0.84084 0.0
C194 C 0.43829 0.49784 0.82012 0.0
H195 H 0.47303 0.59625 0.87467 0.0
H196 H 0.50693 0.52463 0.84919 0.0
S197 S 0.3052 0.50497 0.79214 0.0
N198 N 0.31962 0.55337 0.81842 0.0
N199 N 0.35687 0.477 0.78979 0.0
C200 C 0.38878 0.50722 0.81045 0.0
C201 C 0.36871 0.54865 0.8257 0.0
C202 C 0.62097 0.56173 0.71634 0.0
C203 C 0.58719 0.59339 0.69964 0.0
C204 C 0.60627 0.51823 0.72469 0.0
C205 C 0.55721 0.50494 0.71746 0.0
H206 H 0.65973 0.56974 0.71888 0.0
H207 H 0.63409 0.49417 0.73373 0.0
S208 S 0.45314 0.57632 0.68229 0.0
N209 N 0.5014 0.60959 0.68229 0.0
N210 N 0.47389 0.52732 0.6983 0.0
C211 C 0.52226 0.53678 0.70525 0.0
C212 C 0.53727 0.5812 0.69622 0.0
C213 C 0.97527 0.91129 0.20131 0.0
C214 C 0.92566 0.90161 0.21352 0.0
C215 C 0.99569 0.95284 0.21273 0.0
C216 C 0.96747 0.98559 0.23777 0.0
H217 H 0.99699 0.88808 0.17818 0.0
H218 H 0.03194 0.96067 0.19724 0.0
S219 S 0.83962 0.97485 0.28742 0.0
N220 N 0.85144 0.92683 0.2589 0.0
N221 N 0.89063 0.0041 0.28166 0.0
C222 C 0.92025 0.97461 0.25628 0.0
C223 C 0.89913 0.93268 0.24405 0.0
C224 C 0.87056 0.02285 0.62408 0.0
C225 C 0.87255 0.06046 0.65728 0.0
C226 C 0.89067 0.98311 0.64026 0.0
C227 C 0.91355 0.97878 0.69063 0.0
H228 H 0.85337 0.02409 0.58492 0.0
H229 H 0.88848 0.9555 0.61249 0.0
S230 S 0.92491 0.06636 0.79466 0.0
N231 N 0.89792 0.09067 0.74383 0.0
N232 N 0.93378 0.01494 0.77524 0.0
C233 C 0.91467 0.01571 0.72501 0.0
C234 C 0.89445 0.05665 0.70823 0.0
C235 C 0.62384 0.45352 0.13405 0.0
C236 C 0.62296 0.41772 0.16929 0.0
C237 C 0.60659 0.49466 0.14983 0.0
C238 C 0.58833 0.50264 0.2021 0.0
H239 H 0.63786 0.4498 0.09338 0.0
H240 H 0.60741 0.52051 0.12021 0.0
S241 S 0.58363 0.42178 0.31256 0.0
N242 N 0.60448 0.39347 0.26028 0.0
N243 N 0.57527 0.47235 0.29109 0.0
C244 C 0.58913 0.46785 0.23884 0.0
C245 C 0.60596 0.42519 0.22231 0.0
C246 C 0.44144 0.41359 0.30599 0.0
C247 C 0.43713 0.3981 0.35924 0.0
C248 C 0.45855 0.45653 0.29527 0.0
C249 C 0.47255 0.48504 0.33745 0.0
H250 H 0.42982 0.39304 0.27253 0.0
H251 H 0.45827 0.46821 0.25426 0.0
S252 S 0.47138 0.46098 0.48332 0.0
N253 N 0.44907 0.41624 0.45441 0.0
N254 N 0.48508 0.49413 0.43341 0.0
C255 C 0.47163 0.46906 0.39017 0.0
C256 C 0.45292 0.42639 0.40135 0.0
C257 C 0.05626 0.06613 0.8496 0.0
C258 C 0.1034 0.08028 0.83322 0.0
C259 C 0.03686 0.02562 0.83241 0.0
C260 C 0.06282 -0.0015 0.79651 0.0
H261 H 0.03516 0.08544 0.87822 0.0
H262 H 0.00312 0.01395 0.85075 0.0
S263 S 0.18635 0.02026 0.7393 0.0
N264 N 0.17512 0.06356 0.77786 0.0
N265 N 0.13706 0.98857 0.7437 0.0
C266 C 0.10862 0.01312 0.77738 0.0
C267 C 0.1291 0.05388 0.79578 0.0
C268 C 0.14648 0.13576 0.03626 0.0
C269 C 0.13324 0.16898 1.00026 0.0
C270 C 0.12667 0.13436 0.08853 0.0
C271 C 0.09266 0.16587 0.10639 0.0
H272 H 0.16927 0.10883 0.0225 0.0
H273 H 0.13398 0.1059 0.11296 0.0
S274 S 0.0508 0.26237 0.03023 0.0
N275 N 0.08851 0.23678 0.9883 0.0
N276 N 0.0505 0.23349 0.08615 0.0
C277 C 0.08274 0.20135 0.0726 0.0
C278 C 0.10326 0.20307 0.01956 0.0
C279 C 0.37952 0.31566 0.5413 0.0
C280 C 0.40449 0.29263 0.50005 0.0
C281 C 0.40062 0.32144 0.59255 0.0
C282 C 0.4473 0.30448 0.60361 0.0
H283 H 0.34626 0.33335 0.5322 0.0
H284 H 0.38299 0.34336 0.62121 0.0
S285 S 0.52204 0.23373 0.51324 0.0
N286 N 0.47386 0.2467 0.47677 0.0
N287 N 0.51345 0.25735 0.57266 0.0
C288 C 0.46932 0.27679 0.56494 0.0
C289 C 0.44794 0.27094 0.51313 0.0
C290 C 0.6388 0.33717 0.97421 0.0
C291 C 0.62278 0.31082 1.01721 0.0
C292 C 0.6136 0.3371 0.92499 0.0
C293 C 0.57095 0.31146 0.91794 0.0
H294 H 0.6686 0.36046 0.98016 0.0
H295 H 0.62436 0.36073 0.89476 0.0
S296 S 0.51868 0.2321 1.01521 0.0
N297 N 0.56599 0.25433 0.04701 0.0
N298 N 0.51779 0.25492 0.95521 0.0
C299 C 0.55762 0.28192 0.95875 0.0
C300 C 0.5837 0.28152 1.00838 0.0
C301 C 0.90288 0.19961 0.50141 0.0
C302 C 0.86685 0.16676 0.50725 0.0
C303 C 0.93172 0.20182 0.45453 0.0
C304 C 0.92484 0.17178 0.41172 0.0
H305 H 0.91221 0.22077 0.53522 0.0
H306 H 0.96259 0.22447 0.45384 0.0
S307 S 0.82948 0.08481 0.40367 0.0
N308 N 0.82146 0.10738 0.46383 0.0
N309 N 0.87508 0.1123 0.37523 0.0
C310 C 0.88518 0.14228 0.41459 0.0
C311 C 0.85635 0.13949 0.46265 0.0
C312 C 0.88119 0.88002 1.01142 0.0
C313 C 0.88174 0.83847 0.03561 0.0
C314 C 0.89871 0.88597 0.95898 0.0
C315 C 0.91697 0.85058 0.92835 0.0
H316 H 0.87044 0.90873 0.03465 0.0
H317 H 0.90153 0.91914 0.94378 0.0
S318 S 0.91864 0.73408 0.96941 0.0
N319 N 0.89615 0.76042 0.02247 0.0
N320 N 0.92865 0.77171 0.9231 0.0
C321 C 0.91282 0.80817 0.94968 0.0
C322 C 0.89525 0.80208 1.0036 0.0
C323 C 0.63126 0.65784 0.50041 0.0
C324 C 0.61135 0.68657 0.53939 0.0
C325 C 0.61203 0.65566 0.44804 0.0
C326 C 0.57175 0.68157 0.43369 0.0
H327 H 0.65913 0.63453 0.51173 0.0
H328 H 0.62501 0.63016 0.42086 0.0
S329 S 0.5117 0.76639 0.51883 0.0
N330 N 0.5539 0.74522 0.55817 0.0
N331 N 0.51698 0.74056 0.46031 0.0
C332 C 0.55499 0.71334 0.47078 0.0
C333 C 0.57486 0.71585 0.5237 0.0
C334 C 0.40639 0.69915 0.03851 0.0
C335 C 0.37728 0.66296 0.02308 0.0
C336 C 0.43115 0.69953 0.08787 0.0
C337 C 0.42677 0.66414 0.12356 0.0
H338 H 0.41353 0.72538 1.01035 0.0
H339 H 0.45728 0.72575 0.09601 0.0
S340 S 0.34898 0.56503 0.10506 0.0
N341 N 0.34094 0.59337 0.0495 0.0
N342 N 0.38671 0.59463 0.14288 0.0
C343 C 0.39369 0.63011 0.11098 0.0
C344 C 0.3692 0.6293 0.06036 0.0
C345 C 0.1094 0.79327 0.53137 0.0
C346 C 0.13874 0.83026 0.52018 0.0
C347 C 0.08287 0.79045 0.57982 0.0
C348 C 0.08551 0.82408 0.61901 0.0
H349 H 0.10335 0.76836 0.50062 0.0
H350 H 0.0568 0.7637 0.58461 0.0
S351 S 0.16359 0.92397 0.61287 0.0
N352 N 0.17409 0.89826 0.5551 0.0
N353 N 0.12411 0.89281 0.6461 0.0
C354 C 0.11856 0.85891 0.6106 0.0
C355 C 0.14523 0.86204 0.56113 0.0
C356 C 0.19261 0.29074 0.29817 0.0
C357 C 0.23475 0.27481 0.27208 0.0
C358 C 0.14758 0.26874 0.29349 0.0
C359 C 0.14315 0.22947 0.26339 0.0
H360 H 0.1951 0.31882 0.32521 0.0
H361 H 0.11705 0.28029 0.31783 0.0
S362 S 0.24077 0.17839 0.18004 0.0
N363 N 0.2679 0.22142 0.20848 0.0
N364 N 0.18315 0.17895 0.20127 0.0
C365 C 0.18366 0.21581 0.23247 0.0
C366 C 0.22966 0.23875 0.23661 0.0
C367 C 0.31769 0.22129 0.74238 0.0
C368 C 0.27175 0.23709 0.75991 0.0
C369 C 0.35826 0.24987 0.73704 0.0
C370 C 0.35352 0.29493 0.74836 0.0
H371 H 0.32342 0.1863 0.73757 0.0
H372 H 0.39424 0.23604 0.72963 0.0
S373 S 0.23864 0.35362 0.7826 0.0
N374 N 0.22208 0.30138 0.77897 0.0
N375 N 0.29794 0.35491 0.76835 0.0
C376 C 0.30645 0.31153 0.75908 0.0
C377 C 0.26555 0.28261 0.7652 0.0
C378 C 0.67403 0.21603 0.76776 0.0
C379 C 0.72156 0.22686 0.74932 0.0
C380 C 0.63892 0.24892 0.77751 0.0
C381 C 0.6507 0.2934 0.76942 0.0
H382 H 0.66263 0.18194 0.77003 0.0
H383 H 0.60128 0.23918 0.78568 0.0
S384 S 0.7734 0.33906 0.7355 0.0
N385 N 0.78103 0.28531 0.73384 0.0
N386 N 0.71532 0.34684 0.75225 0.0
C387 C 0.69977 0.30461 0.75797 0.0
C388 C 0.73519 0.27136 0.74767 0.0
C389 C 0.78076 0.20932 0.22015 0.0
C390 C 0.78349 0.25218 0.2415 0.0
C391 C 0.82023 0.18056 0.22424 0.0
C392 C 0.86407 0.19329 0.24996 0.0
H393 H 0.74887 0.19841 0.1977 0.0
H394 H 0.8174 0.14882 0.2043 0.0
S395 S 0.88669 0.29907 0.32081 0.0
N396 N 0.83092 0.30397 0.29573 0.0
N397 N 0.9056 0.24949 0.30321 0.0
C398 C 0.86566 0.2344 0.27605 0.0
C399 C 0.82521 0.26398 0.27179 0.0
C400 C 0.80682 0.71126 0.74894 0.0
C401 C 0.76749 0.73175 0.77544 0.0
C402 C 0.85414 0.7291 0.75133 0.0
C403 C 0.8636 0.76877 0.77912 0.0
H404 H 0.80037 0.68285 0.72322 0.0
H405 H 0.88253 0.71407 0.72673 0.0
S406 S 0.77448 0.83069 0.86307 0.0
N407 N 0.74199 0.78949 0.83746 0.0
N408 N 0.8311 0.82441 0.84014 0.0
C409 C 0.82572 0.78688 0.81073 0.0
C410 C 0.77738 0.76808 0.80908 0.0
C411 C 0.73107 0.7237 0.30109 0.0
C412 C 0.73625 0.76218 0.27057 0.0
C413 C 0.68508 0.70245 0.30595 0.0
C414 C 0.64323 0.71966 0.28105 0.0
H415 H 0.76327 0.70793 0.31715 0.0
H416 H 0.68335 0.67038 0.32435 0.0
S417 S 0.63596 0.82476 0.2078 0.0
N418 N 0.69461 0.82026 0.22322 0.0
N419 N 0.60852 0.78101 0.23312 0.0
C420 C 0.64726 0.76085 0.2564 0.0
C421 C 0.6938 0.78192 0.25073 0.0
C422 C 0.27454 0.71252 0.29961 0.0
C423 C 0.28414 0.75614 0.28478 0.0
C424 C 0.31035 0.68017 0.29351 0.0
C425 C 0.35731 0.69023 0.27284 0.0
H426 H 0.24025 0.70378 0.31918 0.0
H427 H 0.30268 0.64788 0.3096 0.0
S428 S 0.3972 0.79738 0.21789 0.0
N429 N 0.34076 0.80615 0.2401 0.0
N430 N 0.40875 0.74518 0.22974 0.0
C431 C 0.36539 0.73237 0.25204 0.0
C432 C 0.32859 0.76546 0.25793 0.0
C433 C 0.17447 0.72118 0.83856 0.0
C434 C 0.21354 0.72716 0.80224 0.0
C435 C 0.13117 0.74514 0.83407 0.0
C436 C 0.1252 0.77643 0.79337 0.0
H437 H 0.17791 0.69881 0.87192 0.0
H438 H 0.10296 0.74056 0.86446 0.0
S439 S 0.21531 0.80182 0.6855 0.0
N440 N 0.24236 0.76373 0.72152 0.0
N441 N 0.16118 0.81008 0.71405 0.0
C442 C 0.1628 0.78082 0.75475 0.0
C443 C 0.20697 0.75585 0.75899 0.0
loop_
_geom_bond_atom_site_label_1
_geom_bond_atom_site_label_2
_geom_bond_distance
_geom_bond_site_symmetry_2
_ccdc_geom_bond_type
H0 C5 0.930 . S
H1 C8 0.930 . S
H2 C10 0.930 . S
H3 C4 1.016 . S
C4 H3 1.016 . S
C4 N11 1.286 . S
C5 H0 0.930 . S
C5 C6 1.397 . S
C5 C7 1.361 . S
C6 C5 1.397 . S
C6 C10 1.390 . S
C7 C5 1.361 . S
C7 C8 1.393 . S
C7 N11 1.413 . S
C8 H1 0.930 . S
C8 C7 1.393 . S
C8 C9 1.399 . S
C9 C8 1.399 . S
C9 C10 1.381 . S
C10 H2 0.930 . S
C10 C6 1.390 . S
C10 C9 1.381 . S
N11 C4 1.286 . S
N11 C7 1.413 . S
H12 C17 0.930 . S
H13 C20 0.930 . S
H14 C22 0.930 . S
H15 C16 1.016 . S
C16 H15 1.016 . S
C16 N23 1.286 . S
C17 H12 0.930 . S
C17 C18 1.397 . S
C17 C19 1.361 . S
C18 C17 1.397 . S
C18 C22 1.390 . S
C19 C17 1.361 . S
C19 C20 1.393 . S
C19 N23 1.413 . S
C20 H13 0.930 . S
C20 C19 1.393 . S
C20 C21 1.399 . S
C21 C20 1.399 . S
C21 C22 1.381 . S
C22 H14 0.930 . S
C22 C18 1.390 . S
C22 C21 1.381 . S
N23 C16 1.286 . S
N23 C19 1.413 . S
H24 C29 0.930 . S
H25 C32 0.930 . S
H26 C34 0.930 . S
H27 C28 1.016 . S
C28 H27 1.016 . S
C28 N35 1.286 . S
C29 H24 0.930 . S
C29 C30 1.397 . S
C29 C31 1.361 . S
C30 C29 1.397 . S
C30 C34 1.390 . S
C31 C29 1.361 . S
C31 C32 1.393 . S
C31 N35 1.413 . S
C32 H25 0.930 . S
C32 C31 1.393 . S
C32 C33 1.399 . S
C33 C32 1.399 . S
C33 C34 1.381 . S
C34 H26 0.930 . S
C34 C30 1.390 . S
C34 C33 1.381 . S
N35 C28 1.286 . S
N35 C31 1.413 . S
H36 C41 0.930 . S
H37 C44 0.930 . S
H38 C46 0.930 . S
H39 C40 1.016 . S
C40 H39 1.016 . S
C40 N47 1.286 . S
C41 H36 0.930 . S
C41 C42 1.397 . S
C41 C43 1.361 . S
C42 C41 1.397 . S
C42 C46 1.390 . S
C43 C41 1.361 . S
C43 C44 1.393 . S
C43 N47 1.413 . S
C44 H37 0.930 . S
C44 C43 1.393 . S
C44 C45 1.399 . S
C45 C44 1.399 . S
C45 C46 1.381 . S
C46 H38 0.930 . S
C46 C42 1.390 . S
C46 C45 1.381 . S
N47 C40 1.286 . S
N47 C43 1.413 . S
H48 C53 0.930 . S
H49 C56 0.930 . S
H50 C58 0.930 . S
H51 C52 1.016 . S
C52 H51 1.016 . S
C52 N59 1.286 . S
C53 H48 0.930 . S
C53 C54 1.397 . S
C53 C55 1.361 . S
C54 C53 1.397 . S
C54 C58 1.390 . S
C55 C53 1.361 . S
C55 C56 1.393 . S
C55 N59 1.413 . S
C56 H49 0.930 . S
C56 C55 1.393 . S
C56 C57 1.399 . S
C57 C56 1.399 . S
C57 C58 1.381 . S
C58 H50 0.930 . S
C58 C54 1.390 . S
C58 C57 1.381 . S
N59 C52 1.286 . S
N59 C55 1.413 . S
H60 C65 0.930 . S
H61 C68 0.930 . S
H62 C70 0.930 . S
H63 C64 1.016 . S
C64 H63 1.016 . S
C64 N71 1.286 . S
C65 H60 0.930 . S
C65 C66 1.397 . S
C65 C67 1.361 . S
C66 C65 1.397 . S
C66 C70 1.390 . S
C67 C65 1.361 . S
C67 C68 1.393 . S
C67 N71 1.413 . S
C68 H61 0.930 . S
C68 C67 1.393 . S
C68 C69 1.399 . S
C69 C68 1.399 . S
C69 C70 1.381 . S
C70 H62 0.930 . S
C70 C66 1.390 . S
C70 C69 1.381 . S
N71 C64 1.286 . S
N71 C67 1.413 . S
H72 C77 0.930 . S
H73 C80 0.930 . S
H74 C82 0.930 . S
H75 C76 1.016 . S
C76 H75 1.016 . S
C76 N83 1.286 . S
C77 H72 0.930 . S
C77 C78 1.397 . S
C77 C79 1.361 . S
C78 C77 1.397 . S
C78 C82 1.390 . S
C79 C77 1.361 . S
C79 C80 1.393 . S
C79 N83 1.413 . S
C80 H73 0.930 . S
C80 C79 1.393 . S
C80 C81 1.399 . S
C81 C80 1.399 . S
C81 C82 1.381 . S
C82 H74 0.930 . S
C82 C78 1.390 . S
C82 C81 1.381 . S
N83 C76 1.286 . S
N83 C79 1.413 . S
H84 C89 0.930 . S
H85 C92 0.930 . S
H86 C94 0.930 . S
H87 C88 1.016 . S
C88 H87 1.016 . S
C88 N95 1.286 . S
C89 H84 0.930 . S
C89 C90 1.397 . S
C89 C91 1.361 . S
C90 C89 1.397 . S
C90 C94 1.390 . S
C91 C89 1.361 . S
C91 C92 1.393 . S
C91 N95 1.413 . S
C92 H85 0.930 . S
C92 C91 1.393 . S
C92 C93 1.399 . S
C93 C92 1.399 . S
C93 C94 1.381 . S
C94 H86 0.930 . S
C94 C90 1.390 . S
C94 C93 1.381 . S
N95 C88 1.286 . S
N95 C91 1.413 . S
Zn96 O102 1.918 1_455 S
Zn96 O108 1.898 . S
Zn96 O111 1.905 . S
Zn97 O105 1.905 1_655 S
Zn97 O106 1.898 . S
Zn97 O114 1.920 . S
Zn98 O101 2.080 1_455 S
Zn98 O104 2.114 . S
Zn98 O107 2.120 1_455 S
Zn98 O109 2.120 . S
Zn98 O110 2.114 . S
Zn98 O113 2.080 1_455 S
C99 O104 1.166 . S
C99 O105 1.182 . S
C100 O106 1.167 . S
C100 O107 1.299 . S
O101 Zn98 2.080 1_655 S
O101 C115 1.305 . S
O102 Zn96 1.918 1_655 S
O102 C115 1.236 . S
C103 O108 1.167 . S
C103 O109 1.299 . S
O104 Zn98 2.114 . S
O104 C99 1.166 . S
O105 Zn97 1.905 1_455 S
O105 C99 1.182 . S
O106 Zn97 1.898 . S
O106 C100 1.167 . S
O107 Zn98 2.120 1_655 S
O107 C100 1.299 . S
O108 Zn96 1.898 . S
O108 C103 1.167 . S
O109 Zn98 2.120 . S
O109 C103 1.299 . S
O110 Zn98 2.114 . S
O110 C112 1.166 . S
O111 Zn96 1.905 . S
O111 C112 1.182 . S
C112 O110 1.166 . S
C112 O111 1.182 . S
O113 Zn98 2.080 1_655 S
O113 C116 1.305 . S
O114 Zn97 1.920 . S
O114 C116 1.234 . S
C115 O101 1.305 . S
C115 O102 1.236 . S
C116 O113 1.305 . S
C116 O114 1.234 . S
Zn117 O123 1.920 . S
Zn117 O129 1.898 . S
Zn117 O132 1.905 . S
Zn118 O126 1.905 . S
Zn118 O127 1.898 . S
Zn118 O135 1.920 . S
Zn119 O122 2.080 . S
Zn119 O125 2.114 . S
Zn119 O128 2.120 . S
Zn119 O130 2.120 . S
Zn119 O131 2.114 . S
Zn119 O134 2.080 . S
C120 O125 1.166 . S
C120 O126 1.182 . S
C121 O127 1.167 . S
C121 O128 1.299 . S
O122 Zn119 2.080 . S
O122 C136 1.305 . S
O123 Zn117 1.920 . S
O123 C136 1.234 . S
C124 O129 1.167 . S
C124 O130 1.299 . S
O125 Zn119 2.114 . S
O125 C120 1.166 . S
O126 Zn118 1.905 . S
O126 C120 1.182 . S
O127 Zn118 1.898 . S
O127 C121 1.167 . S
O128 Zn119 2.120 . S
O128 C121 1.299 . S
O129 Zn117 1.898 . S
O129 C124 1.167 . S
O130 Zn119 2.120 . S
O130 C124 1.299 . S
O131 Zn119 2.114 . S
O131 C133 1.166 . S
O132 Zn117 1.905 . S
O132 C133 1.182 . S
C133 O131 1.166 . S
C133 O132 1.182 . S
O134 Zn119 2.080 . S
O134 C137 1.305 . S
O135 Zn118 1.920 . S
O135 C137 1.234 . S
C136 O122 1.305 . S
C136 O123 1.234 . S
C137 O134 1.305 . S
C137 O135 1.234 . S
Zn138 O144 1.920 . S
Zn138 O150 1.898 . S
Zn138 O153 1.905 1_455 S
Zn139 O147 1.905 . S
Zn139 O148 1.898 . S
Zn139 O156 1.920 1_655 S
Zn140 O143 2.080 . S
Zn140 O146 2.114 1_455 S
Zn140 O149 2.120 1_455 S
Zn140 O151 2.120 . S
Zn140 O152 2.114 1_455 S
Zn140 O155 2.080 . S
C141 O146 1.166 . S
C141 O147 1.182 . S
C142 O148 1.167 . S
C142 O149 1.299 . S
O143 Zn140 2.080 . S
O143 C157 1.305 . S
O144 Zn138 1.920 . S
O144 C157 1.234 . S
C145 O150 1.167 . S
C145 O151 1.299 . S
O146 Zn140 2.114 1_655 S
O146 C141 1.166 . S
O147 Zn139 1.905 . S
O147 C141 1.182 . S
O148 Zn139 1.898 . S
O148 C142 1.167 . S
O149 Zn140 2.120 1_655 S
O149 C142 1.299 . S
O150 Zn138 1.898 . S
O150 C145 1.167 . S
O151 Zn140 2.120 . S
O151 C145 1.299 . S
O152 Zn140 2.114 1_655 S
O152 C154 1.166 . S
O153 Zn138 1.905 1_655 S
O153 C154 1.182 . S
C154 O152 1.166 . S
C154 O153 1.182 . S
O155 Zn140 2.080 . S
O155 C158 1.305 . S
O156 Zn139 1.920 1_455 S
O156 C158 1.234 . S
C157 O143 1.305 . S
C157 O144 1.234 . S
C158 O155 1.305 . S
C158 O156 1.234 . S
Zn159 O165 1.920 . S
Zn159 O171 1.898 . S
Zn159 O174 1.905 . S
Zn160 O168 1.905 . S
Zn160 O169 1.898 . S
Zn160 O177 1.920 . S
Zn161 O164 2.080 . S
Zn161 O167 2.114 . S
Zn161 O170 2.120 . S
Zn161 O172 2.120 . S
Zn161 O173 2.114 . S
Zn161 O176 2.080 . S
C162 O167 1.166 . S
C162 O168 1.182 . S
C163 O169 1.167 . S
C163 O170 1.299 . S
O164 Zn161 2.080 . S
O164 C178 1.305 . S
O165 Zn159 1.920 . S
O165 C178 1.234 . S
C166 O171 1.167 . S
C166 O172 1.299 . S
O167 Zn161 2.114 . S
O167 C162 1.166 . S
O168 Zn160 1.905 . S
O168 C162 1.182 . S
O169 Zn160 1.898 . S
O169 C163 1.167 . S
O170 Zn161 2.120 . S
O170 C163 1.299 . S
O171 Zn159 1.898 . S
O171 C166 1.167 . S
O172 Zn161 2.120 . S
O172 C166 1.299 . S
O173 Zn161 2.114 . S
O173 C175 1.166 . S
O174 Zn159 1.905 . S
O174 C175 1.182 . S
C175 O173 1.166 . S
C175 O174 1.182 . S
O176 Zn161 2.080 . S
O176 C179 1.305 . S
O177 Zn160 1.920 . S
O177 C179 1.234 . S
C178 O164 1.305 . S
C178 O165 1.234 . S
C179 O176 1.305 . S
C179 O177 1.234 . S
C180 C181 1.369 . S
C180 C182 1.419 . S
C180 H184 0.930 . S
C181 C180 1.369 . S
C181 C190 1.429 . S
C182 C180 1.419 . S
C182 C183 1.363 . S
C182 H185 0.929 . S
C183 C182 1.363 . S
C183 C189 1.428 . S
H184 C180 0.930 . S
H185 C182 0.929 . S
S186 N187 1.613 1_545 S
S186 N188 1.610 . S
N187 S186 1.613 1_565 S
N187 C190 1.350 . S
N188 S186 1.610 . S
N188 C189 1.351 1_545 S
C189 C183 1.428 . S
C189 N188 1.351 1_565 S
C189 C190 1.434 . S
C190 C181 1.429 . S
C190 N187 1.350 . S
C190 C189 1.434 . S
C191 C192 1.369 . S
C191 C193 1.419 . S
C191 H195 0.930 . S
C192 C191 1.369 . S
C192 C201 1.429 . S
C193 C191 1.419 . S
C193 C194 1.363 . S
C193 H196 0.929 . S
C194 C193 1.363 . S
C194 C200 1.428 . S
H195 C191 0.930 . S
H196 C193 0.929 . S
S197 N198 1.613 . S
S197 N199 1.610 . S
N198 S197 1.613 . S
N198 C201 1.350 . S
N199 S197 1.610 . S
N199 C200 1.351 . S
C200 C194 1.428 . S
C200 N199 1.351 . S
C200 C201 1.434 . S
C201 C192 1.429 . S
C201 N198 1.350 . S
C201 C200 1.434 . S
C202 C203 1.369 . S
C202 C204 1.419 . S
C202 H206 0.930 . S
C203 C202 1.369 . S
C203 C212 1.429 . S
C204 C202 1.419 . S
C204 C205 1.363 . S
C204 H207 0.929 . S
C205 C204 1.363 . S
C205 C211 1.428 . S
H206 C202 0.930 . S
H207 C204 0.929 . S
S208 N209 1.613 . S
S208 N210 1.610 . S
N209 S208 1.613 . S
N209 C212 1.350 . S
N210 S208 1.610 . S
N210 C211 1.351 . S
C211 C205 1.428 . S
C211 N210 1.351 . S
C211 C212 1.434 . S
C212 C203 1.429 . S
C212 N209 1.350 . S
C212 C211 1.434 . S
C213 C214 1.369 . S
C213 C215 1.419 . S
C213 H217 0.930 . S
C214 C213 1.369 . S
C214 C223 1.429 . S
C215 C213 1.419 . S
C215 C216 1.363 . S
C215 H218 0.929 . S
C216 C215 1.363 . S
C216 C222 1.428 . S
H217 C213 0.930 . S
H218 C215 0.929 . S
S219 N220 1.613 . S
S219 N221 1.621 . S
N220 S219 1.613 . S
N220 C223 1.350 . S
N221 S219 1.621 . S
N221 C222 1.361 . S
C222 C216 1.428 . S
C222 N221 1.361 . S
C222 C223 1.434 . S
C223 C214 1.429 . S
C223 N220 1.350 . S
C223 C222 1.434 . S
C224 C225 1.369 . S
C224 C226 1.419 . S
C224 H228 0.930 . S
C225 C224 1.369 . S
C225 C234 1.429 . S
C226 C224 1.419 . S
C226 C227 1.363 . S
C226 H229 0.929 1_545 S
C227 C226 1.363 . S
C227 C233 1.428 . S
H228 C224 0.930 . S
H229 C226 0.929 1_565 S
S230 N231 1.613 . S
S230 N232 1.610 . S
N231 S230 1.613 . S
N231 C234 1.350 . S
N232 S230 1.610 . S
N232 C233 1.351 . S
C233 C227 1.428 . S
C233 N232 1.351 . S
C233 C234 1.434 . S
C234 C225 1.429 . S
C234 N231 1.350 . S
C234 C233 1.434 . S
C235 C236 1.369 . S
C235 C237 1.419 . S
C235 H239 0.930 . S
C236 C235 1.369 . S
C236 C245 1.429 . S
C237 C235 1.419 . S
C237 C238 1.363 . S
C237 H240 0.929 . S
C238 C237 1.363 . S
C238 C244 1.428 . S
H239 C235 0.930 . S
H240 C237 0.929 . S
S241 N242 1.613 . S
S241 N243 1.610 . S
N242 S241 1.613 . S
N242 C245 1.350 . S
N243 S241 1.610 . S
N243 C244 1.351 . S
C244 C238 1.428 . S
C244 N243 1.351 . S
C244 C245 1.434 . S
C245 C236 1.429 . S
C245 N242 1.350 . S
C245 C244 1.434 . S
C246 C247 1.369 . S
C246 C248 1.419 . S
C246 H250 0.930 . S
C247 C246 1.369 . S
C247 C256 1.429 . S
C248 C246 1.419 . S
C248 C249 1.363 . S
C248 H251 0.929 . S
C249 C248 1.363 . S
C249 C255 1.428 . S
H250 C246 0.930 . S
H251 C248 0.929 . S
S252 N253 1.613 . S
S252 N254 1.610 . S
N253 S252 1.613 . S
N253 C256 1.350 . S
N254 S252 1.610 . S
N254 C255 1.351 . S
C255 C249 1.428 . S
C255 N254 1.351 . S
C255 C256 1.434 . S
C256 C247 1.429 . S
C256 N253 1.350 . S
C256 C255 1.434 . S
C257 C258 1.369 . S
C257 C259 1.419 . S
C257 H261 0.930 . S
C258 C257 1.369 . S
C258 C267 1.429 . S
C259 C257 1.419 . S
C259 C260 1.363 . S
C259 H262 0.929 . S
C260 C259 1.363 . S
C260 C266 1.428 . S
H261 C257 0.930 . S
H262 C259 0.929 . S
S263 N264 1.613 . S
S263 N265 1.610 1_545 S
N264 S263 1.613 . S
N264 C267 1.350 . S
N265 S263 1.610 1_565 S
N265 C266 1.351 1_565 S
C266 C260 1.428 . S
C266 N265 1.351 1_545 S
C266 C267 1.434 . S
C267 C258 1.429 . S
C267 N264 1.350 . S
C267 C266 1.434 . S
C268 C269 1.369 . S
C268 C270 1.419 . S
C268 H272 0.930 . S
C269 C268 1.369 . S
C269 C278 1.429 . S
C270 C268 1.419 . S
C270 C271 1.363 . S
C270 H273 0.929 . S
C271 C270 1.363 . S
C271 C277 1.428 . S
H272 C268 0.930 . S
H273 C270 0.929 . S
S274 N275 1.613 1_655 S
S274 N276 1.610 1_656 S
N275 S274 1.613 1_455 S
N275 C278 1.350 1_556 S
N276 S274 1.610 1_454 S
N276 C277 1.351 . S
C277 C271 1.428 . S
C277 N276 1.351 . S
C277 C278 1.434 . S
C278 C269 1.429 . S
C278 N275 1.350 1_554 S
C278 C277 1.434 . S
C279 C280 1.369 . S
C279 C281 1.419 . S
C279 H283 0.930 . S
C280 C279 1.369 . S
C280 C289 1.429 . S
C281 C279 1.419 . S
C281 C282 1.363 . S
C281 H284 0.929 . S
C282 C281 1.363 . S
C282 C288 1.428 . S
H283 C279 0.930 . S
H284 C281 0.929 . S
S285 N286 1.613 . S
S285 N287 1.610 . S
N286 S285 1.613 . S
N286 C289 1.350 . S
N287 S285 1.610 . S
N287 C288 1.351 . S
C288 C282 1.428 . S
C288 N287 1.351 . S
C288 C289 1.434 . S
C289 C280 1.429 . S
C289 N286 1.350 . S
C289 C288 1.434 . S
C290 C291 1.369 . S
C290 C292 1.419 . S
C290 H294 0.930 . S
C291 C290 1.369 . S
C291 C300 1.429 . S
C292 C290 1.419 . S
C292 C293 1.363 . S
C292 H295 0.929 . S
C293 C292 1.363 . S
C293 C299 1.428 . S
H294 C290 0.930 . S
H295 C292 0.929 . S
S296 N297 1.613 1_556 S
S296 N298 1.610 . S
N297 S296 1.613 1_554 S
N297 C300 1.350 1_554 S
N298 S296 1.610 . S
N298 C299 1.351 . S
C299 C293 1.428 . S
C299 N298 1.351 . S
C299 C300 1.434 . S
C300 C291 1.429 . S
C300 N297 1.350 1_556 S
C300 C299 1.434 . S
C301 C302 1.369 . S
C301 C303 1.419 . S
C301 H305 0.930 . S
C302 C301 1.369 . S
C302 C311 1.429 . S
C303 C301 1.419 . S
C303 C304 1.363 . S
C303 H306 0.929 . S
C304 C303 1.363 . S
C304 C310 1.428 . S
H305 C301 0.930 . S
H306 C303 0.929 . S
S307 N308 1.613 . S
S307 N309 1.610 . S
N308 S307 1.613 . S
N308 C311 1.350 . S
N309 S307 1.610 . S
N309 C310 1.351 . S
C310 C304 1.428 . S
C310 N309 1.351 . S
C310 C311 1.434 . S
C311 C302 1.429 . S
C311 N308 1.350 . S
C311 C310 1.434 . S
C312 C313 1.369 . S
C312 C314 1.419 . S
C312 H316 0.930 1_556 S
C313 C312 1.369 . S
C313 C322 1.429 . S
C314 C312 1.419 . S
C314 C315 1.363 . S
C314 H317 0.929 . S
C315 C314 1.363 . S
C315 C321 1.428 . S
H316 C312 0.930 1_554 S
H317 C314 0.929 . S
S318 N319 1.613 . S
S318 N320 1.610 . S
N319 S318 1.613 . S
N319 C322 1.350 . S
N320 S318 1.610 . S
N320 C321 1.351 . S
C321 C315 1.428 . S
C321 N320 1.351 . S
C321 C322 1.434 . S
C322 C313 1.429 . S
C322 N319 1.350 . S
C322 C321 1.434 . S
C323 C324 1.369 . S
C323 C325 1.419 . S
C323 H327 0.930 . S
C324 C323 1.369 . S
C324 C333 1.429 . S
C325 C323 1.419 . S
C325 C326 1.363 . S
C325 H328 0.929 . S
C326 C325 1.363 . S
C326 C332 1.428 . S
H327 C323 0.930 . S
H328 C325 0.929 . S
S329 N330 1.613 . S
S329 N331 1.610 . S
N330 S329 1.613 . S
N330 C333 1.350 . S
N331 S329 1.610 . S
N331 C332 1.351 . S
C332 C326 1.428 . S
C332 N331 1.351 . S
C332 C333 1.434 . S
C333 C324 1.429 . S
C333 N330 1.350 . S
C333 C332 1.434 . S
C334 C335 1.369 . S
C334 C336 1.419 . S
C334 H338 0.930 . S
C335 C334 1.369 . S
C335 C344 1.429 . S
C336 C334 1.419 . S
C336 C337 1.363 . S
C336 H339 0.929 . S
C337 C336 1.363 . S
C337 C343 1.428 . S
H338 C334 0.930 . S
H339 C336 0.929 . S
S340 N341 1.613 . S
S340 N342 1.610 . S
N341 S340 1.613 . S
N341 C344 1.350 . S
N342 S340 1.610 . S
N342 C343 1.351 . S
C343 C337 1.428 . S
C343 N342 1.351 . S
C343 C344 1.434 . S
C344 C335 1.429 . S
C344 N341 1.350 . S
C344 C343 1.434 . S
C345 C346 1.369 . S
C345 C347 1.419 . S
C345 H349 0.930 . S
C346 C345 1.369 . S
C346 C355 1.429 . S
C347 C345 1.419 . S
C347 C348 1.363 . S
C347 H350 0.929 . S
C348 C347 1.363 . S
C348 C354 1.428 . S
H349 C345 0.930 . S
H350 C347 0.929 . S
S351 N352 1.613 . S
S351 N353 1.610 . S
N352 S351 1.613 . S
N352 C355 1.350 . S
N353 S351 1.610 . S
N353 C354 1.351 . S
C354 C348 1.428 . S
C354 N353 1.351 . S
C354 C355 1.434 . S
C355 C346 1.429 . S
C355 N352 1.350 . S
C355 C354 1.434 . S
C356 C357 1.369 . S
C356 C358 1.419 . S
C356 H360 0.930 . S
C357 C356 1.369 . S
C357 C366 1.429 . S
C358 C356 1.419 . S
C358 C359 1.363 . S
C358 H361 0.929 . S
C359 C358 1.363 . S
C359 C365 1.428 . S
H360 C356 0.930 . S
H361 C358 0.929 . S
S362 N363 1.613 . S
S362 N364 1.610 . S
N363 S362 1.613 . S
N363 C366 1.350 . S
N364 S362 1.610 . S
N364 C365 1.351 . S
C365 C359 1.428 . S
C365 N364 1.351 . S
C365 C366 1.434 . S
C366 C357 1.429 . S
C366 N363 1.350 . S
C366 C365 1.434 . S
C367 C368 1.369 . S
C367 C369 1.419 . S
C367 H371 0.930 . S
C368 C367 1.369 . S
C368 C377 1.429 . S
C369 C367 1.419 . S
C369 C370 1.363 . S
C369 H372 0.929 . S
C370 C369 1.363 . S
C370 C376 1.428 . S
H371 C367 0.930 . S
H372 C369 0.929 . S
S373 N374 1.613 . S
S373 N375 1.610 . S
N374 S373 1.613 . S
N374 C377 1.350 . S
N375 S373 1.610 . S
N375 C376 1.351 . S
C376 C370 1.428 . S
C376 N375 1.351 . S
C376 C377 1.434 . S
C377 C368 1.429 . S
C377 N374 1.350 . S
C377 C376 1.434 . S
C378 C379 1.369 . S
C378 C380 1.419 . S
C378 H382 0.930 . S
C379 C378 1.369 . S
C379 C388 1.429 . S
C380 C378 1.419 . S
C380 C381 1.363 . S
C380 H383 0.929 . S
C381 C380 1.363 . S
C381 C387 1.428 . S
H382 C378 0.930 . S
H383 C380 0.929 . S
S384 N385 1.613 . S
S384 N386 1.610 . S
N385 S384 1.613 . S
N385 C388 1.350 . S
N386 S384 1.610 . S
N386 C387 1.351 . S
C387 C381 1.428 . S
C387 N386 1.351 . S
C387 C388 1.434 . S
C388 C379 1.429 . S
C388 N385 1.350 . S
C388 C387 1.434 . S
C389 C390 1.369 . S
C389 C391 1.419 . S
C389 H393 0.930 . S
C390 C389 1.369 . S
C390 C399 1.429 . S
C391 C389 1.419 . S
C391 C392 1.363 . S
C391 H394 0.929 . S
C392 C391 1.363 . S
C392 C398 1.428 . S
H393 C389 0.930 . S
H394 C391 0.929 . S
S395 N396 1.613 . S
S395 N397 1.610 . S
N396 S395 1.613 . S
N396 C399 1.350 . S
N397 S395 1.610 . S
N397 C398 1.351 . S
C398 C392 1.428 . S
C398 N397 1.351 . S
C398 C399 1.434 . S
C399 C390 1.429 . S
C399 N396 1.350 . S
C399 C398 1.434 . S
C400 C401 1.369 . S
C400 C402 1.419 . S
C400 H404 0.930 . S
C401 C400 1.369 . S
C401 C410 1.429 . S
C402 C400 1.419 . S
C402 C403 1.363 . S
C402 H405 0.929 . S
C403 C402 1.363 . S
C403 C409 1.428 . S
H404 C400 0.930 . S
H405 C402 0.929 . S
S406 N407 1.613 . S
S406 N408 1.610 . S
N407 S406 1.613 . S
N407 C410 1.350 . S
N408 S406 1.610 . S
N408 C409 1.351 . S
C409 C403 1.428 . S
C409 N408 1.351 . S
C409 C410 1.434 . S
C410 C401 1.429 . S
C410 N407 1.350 . S
C410 C409 1.434 . S
C411 C412 1.369 . S
C411 C413 1.419 . S
C411 H415 0.930 . S
C412 C411 1.369 . S
C412 C421 1.429 . S
C413 C411 1.419 . S
C413 C414 1.363 . S
C413 H416 0.929 . S
C414 C413 1.363 . S
C414 C420 1.428 . S
H415 C411 0.930 . S
H416 C413 0.929 . S
S417 N418 1.613 . S
S417 N419 1.610 . S
N418 S417 1.613 . S
N418 C421 1.350 . S
N419 S417 1.610 . S
N419 C420 1.351 . S
C420 C414 1.428 . S
C420 N419 1.351 . S
C420 C421 1.434 . S
C421 C412 1.429 . S
C421 N418 1.350 . S
C421 C420 1.434 . S
C422 C423 1.369 . S
C422 C424 1.419 . S
C422 H426 0.930 . S
C423 C422 1.369 . S
C423 C432 1.429 . S
C424 C422 1.419 . S
C424 C425 1.363 . S
C424 H427 0.929 . S
C425 C424 1.363 . S
C425 C431 1.428 . S
H426 C422 0.930 . S
H427 C424 0.929 . S
S428 N429 1.613 . S
S428 N430 1.610 . S
N429 S428 1.613 . S
N429 C432 1.350 . S
N430 S428 1.610 . S
N430 C431 1.351 . S
C431 C425 1.428 . S
C431 N430 1.351 . S
C431 C432 1.434 . S
C432 C423 1.429 . S
C432 N429 1.350 . S
C432 C431 1.434 . S
C433 C434 1.369 . S
C433 C435 1.419 . S
C433 H437 0.930 . S
C434 C433 1.369 . S
C434 C443 1.429 . S
C435 C433 1.419 . S
C435 C436 1.363 . S
C435 H438 0.929 . S
C436 C435 1.363 . S
C436 C442 1.428 . S
H437 C433 0.930 . S
H438 C435 0.929 . S
S439 N440 1.613 . S
S439 N441 1.610 . S
N440 S439 1.613 . S
N440 C443 1.350 . S
N441 S439 1.610 . S
N441 C442 1.351 . S
C442 C436 1.428 . S
C442 N441 1.351 . S
C442 C443 1.434 . S
C443 C434 1.429 . S
C443 N440 1.350 . S
C443 C442 1.434 . S
C181 C81 1.425 . S
C183 C112 1.374 1_565 S
C194 C120 1.375 . S
C192 C93 1.427 . S
C205 C124 1.372 . S
C203 C57 1.428 . S
C214 C69 1.431 . S
C216 C100 1.370 1_565 S
C227 C141 1.384 1_545 S
C225 C33 1.435 . S
C238 C175 1.384 . S
C236 C45 1.435 . S
C247 C9 1.429 . S
C249 C163 1.366 . S
C258 C21 1.437 . S
C260 C145 1.373 1_545 S
C271 C99 1.341 . S
C269 C18 1.491 1_554 S
C282 C133 1.341 . S
C280 C6 1.491 . S
C293 C137 1.341 . S
C291 C42 1.490 1_556 S
C304 C115 1.344 . S
C302 C30 1.488 . S
C315 C154 1.350 . S
C313 C66 1.485 1_556 S
C324 C54 1.485 . S
C326 C162 1.350 . S
C337 C178 1.347 . S
C335 C90 1.481 1_554 S
C346 C78 1.483 . S
C348 C158 1.348 . S
C359 C103 1.360 . S
C357 C4 1.510 . S
C370 C121 1.358 . S
C368 C16 1.511 . S
C379 C28 1.508 . S
C381 C136 1.361 . S
C392 C116 1.358 . S
C390 C40 1.507 . S
C403 C142 1.358 . S
C401 C52 1.514 . S
C412 C64 1.516 . S
C414 C166 1.349 . S
C423 C76 1.510 . S
C425 C179 1.365 . S
C434 C88 1.512 . S
C436 C157 1.358 . S
