# Generated by pormake.
# Topology ctn, (3,4)-cn, num edge types: 1
# Building blocks:
#     Node 0, Type 0, BuildingBlock: QEWDON_clean_linker_0, # of connection points: 3
#     Node 1, Type 0, BuildingBlock: QEWDON_clean_linker_0, # of connection points: 3
#     Node 2, Type 0, BuildingBlock: QEWDON_clean_linker_0, # of connection points: 3
#     Node 3, Type 0, BuildingBlock: QEWDON_clean_linker_0, # of connection points: 3
#     Node 4, Type 0, BuildingBlock: QEWDON_clean_linker_0, # of connection points: 3
#     Node 5, Type 0, BuildingBlock: QEWDON_clean_linker_0, # of connection points: 3
#     Node 6, Type 0, BuildingBlock: QEWDON_clean_linker_0, # of connection points: 3
#     Node 7, Type 0, BuildingBlock: QEWDON_clean_linker_0, # of connection points: 3
#     Node 8, Type 0, BuildingBlock: QEWDON_clean_linker_0, # of connection points: 3
#     Node 9, Type 0, BuildingBlock: QEWDON_clean_linker_0, # of connection points: 3
#     Node 10, Type 0, BuildingBlock: QEWDON_clean_linker_0, # of connection points: 3
#     Node 11, Type 0, BuildingBlock: QEWDON_clean_linker_0, # of connection points: 3
#     Node 12, Type 0, BuildingBlock: QEWDON_clean_linker_0, # of connection points: 3
#     Node 13, Type 0, BuildingBlock: QEWDON_clean_linker_0, # of connection points: 3
#     Node 14, Type 0, BuildingBlock: QEWDON_clean_linker_0, # of connection points: 3
#     Node 15, Type 0, BuildingBlock: QEWDON_clean_linker_0, # of connection points: 3
#     Node 16, Type 1, BuildingBlock: QUQFOY_clean_sbu_1, # of connection points: 4
#     Node 17, Type 1, BuildingBlock: QUQFOY_clean_sbu_1, # of connection points: 4
#     Node 18, Type 1, BuildingBlock: QUQFOY_clean_sbu_1, # of connection points: 4
#     Node 19, Type 1, BuildingBlock: QUQFOY_clean_sbu_1, # of connection points: 4
#     Node 20, Type 1, BuildingBlock: QUQFOY_clean_sbu_1, # of connection points: 4
#     Node 21, Type 1, BuildingBlock: QUQFOY_clean_sbu_1, # of connection points: 4
#     Node 22, Type 1, BuildingBlock: QUQFOY_clean_sbu_1, # of connection points: 4
#     Node 23, Type 1, BuildingBlock: QUQFOY_clean_sbu_1, # of connection points: 4
#     Node 24, Type 1, BuildingBlock: QUQFOY_clean_sbu_1, # of connection points: 4
#     Node 25, Type 1, BuildingBlock: QUQFOY_clean_sbu_1, # of connection points: 4
#     Node 26, Type 1, BuildingBlock: QUQFOY_clean_sbu_1, # of connection points: 4
#     Node 27, Type 1, BuildingBlock: QUQFOY_clean_sbu_1, # of connection points: 4
#     Edge 28, Type (0, 1), BuildingBlock: UVAHIK_clean_linker_0, # of connection points: 2
#     Edge 29, Type (0, 1), BuildingBlock: UVAHIK_clean_linker_0, # of connection points: 2
#     Edge 30, Type (0, 1), BuildingBlock: UVAHIK_clean_linker_0, # of connection points: 2
#     Edge 31, Type (0, 1), BuildingBlock: UVAHIK_clean_linker_0, # of connection points: 2
#     Edge 32, Type (0, 1), BuildingBlock: UVAHIK_clean_linker_0, # of connection points: 2
#     Edge 33, Type (0, 1), BuildingBlock: UVAHIK_clean_linker_0, # of connection points: 2
#     Edge 34, Type (0, 1), BuildingBlock: UVAHIK_clean_linker_0, # of connection points: 2
#     Edge 35, Type (0, 1), BuildingBlock: UVAHIK_clean_linker_0, # of connection points: 2
#     Edge 36, Type (0, 1), BuildingBlock: UVAHIK_clean_linker_0, # of connection points: 2
#     Edge 37, Type (0, 1), BuildingBlock: UVAHIK_clean_linker_0, # of connection points: 2
#     Edge 38, Type (0, 1), BuildingBlock: UVAHIK_clean_linker_0, # of connection points: 2
#     Edge 39, Type (0, 1), BuildingBlock: UVAHIK_clean_linker_0, # of connection points: 2
#     Edge 40, Type (0, 1), BuildingBlock: UVAHIK_clean_linker_0, # of connection points: 2
#     Edge 41, Type (0, 1), BuildingBlock: UVAHIK_clean_linker_0, # of connection points: 2
#     Edge 42, Type (0, 1), BuildingBlock: UVAHIK_clean_linker_0, # of connection points: 2
#     Edge 43, Type (0, 1), BuildingBlock: UVAHIK_clean_linker_0, # of connection points: 2
#     Edge 44, Type (0, 1), BuildingBlock: UVAHIK_clean_linker_0, # of connection points: 2
#     Edge 45, Type (0, 1), BuildingBlock: UVAHIK_clean_linker_0, # of connection points: 2
#     Edge 46, Type (0, 1), BuildingBlock: UVAHIK_clean_linker_0, # of connection points: 2
#     Edge 47, Type (0, 1), BuildingBlock: UVAHIK_clean_linker_0, # of connection points: 2
#     Edge 48, Type (0, 1), BuildingBlock: UVAHIK_clean_linker_0, # of connection points: 2
#     Edge 49, Type (0, 1), BuildingBlock: UVAHIK_clean_linker_0, # of connection points: 2
#     Edge 50, Type (0, 1), BuildingBlock: UVAHIK_clean_linker_0, # of connection points: 2
#     Edge 51, Type (0, 1), BuildingBlock: UVAHIK_clean_linker_0, # of connection points: 2
#     Edge 52, Type (0, 1), BuildingBlock: UVAHIK_clean_linker_0, # of connection points: 2
#     Edge 53, Type (0, 1), BuildingBlock: UVAHIK_clean_linker_0, # of connection points: 2
#     Edge 54, Type (0, 1), BuildingBlock: UVAHIK_clean_linker_0, # of connection points: 2
#     Edge 55, Type (0, 1), BuildingBlock: UVAHIK_clean_linker_0, # of connection points: 2
#     Edge 56, Type (0, 1), BuildingBlock: UVAHIK_clean_linker_0, # of connection points: 2
#     Edge 57, Type (0, 1), BuildingBlock: UVAHIK_clean_linker_0, # of connection points: 2
#     Edge 58, Type (0, 1), BuildingBlock: UVAHIK_clean_linker_0, # of connection points: 2
#     Edge 59, Type (0, 1), BuildingBlock: UVAHIK_clean_linker_0, # of connection points: 2
#     Edge 60, Type (0, 1), BuildingBlock: UVAHIK_clean_linker_0, # of connection points: 2
#     Edge 61, Type (0, 1), BuildingBlock: UVAHIK_clean_linker_0, # of connection points: 2
#     Edge 62, Type (0, 1), BuildingBlock: UVAHIK_clean_linker_0, # of connection points: 2
#     Edge 63, Type (0, 1), BuildingBlock: UVAHIK_clean_linker_0, # of connection points: 2
#     Edge 64, Type (0, 1), BuildingBlock: UVAHIK_clean_linker_0, # of connection points: 2
#     Edge 65, Type (0, 1), BuildingBlock: UVAHIK_clean_linker_0, # of connection points: 2
#     Edge 66, Type (0, 1), BuildingBlock: UVAHIK_clean_linker_0, # of connection points: 2
#     Edge 67, Type (0, 1), BuildingBlock: UVAHIK_clean_linker_0, # of connection points: 2
#     Edge 68, Type (0, 1), BuildingBlock: UVAHIK_clean_linker_0, # of connection points: 2
#     Edge 69, Type (0, 1), BuildingBlock: UVAHIK_clean_linker_0, # of connection points: 2
#     Edge 70, Type (0, 1), BuildingBlock: UVAHIK_clean_linker_0, # of connection points: 2
#     Edge 71, Type (0, 1), BuildingBlock: UVAHIK_clean_linker_0, # of connection points: 2
#     Edge 72, Type (0, 1), BuildingBlock: UVAHIK_clean_linker_0, # of connection points: 2
#     Edge 73, Type (0, 1), BuildingBlock: UVAHIK_clean_linker_0, # of connection points: 2
#     Edge 74, Type (0, 1), BuildingBlock: UVAHIK_clean_linker_0, # of connection points: 2
#     Edge 75, Type (0, 1), BuildingBlock: UVAHIK_clean_linker_0, # of connection points: 2
# Relax obj value: 0.128
# Max RMSD: 0.258
# Mean RMSD: 0.174
data_MOF--net-ctn--node1-QUQFOY_clean_sbu_1--node2-QEWDON_clean_linker_0--edge1-UVAHIK_clean_linker_0
_symmetry_space_group_name_H-M    P1
_symmetry_Int_Tables_number       1
_symmetry_cell_setting            triclinic
loop_
_symmetry_equiv_pos_as_xyz
'x, y, z'
_cell_length_a     67.340668
_cell_length_b     69.583997
_cell_length_c     75.449793
_cell_angle_alpha  101.27619
_cell_angle_beta   92.047902
_cell_angle_gamma 100.9615
loop_
_atom_site_label
_atom_site_type_symbol
_atom_site_fract_x
_atom_site_fract_y
_atom_site_fract_z
_atom_type_partial_charge
H0 H 0.10825 0.08082 0.0824 0.0
C1 C 0.09658 0.0804 0.09193 0.0
C2 C 0.09004 0.06298 0.09866 0.0
C3 C 0.08839 0.09747 0.09769 0.0
H4 H 0.07023 0.04955 0.11662 0.0
C5 C 0.07487 0.06274 0.11098 0.0
C6 C 0.06622 0.0796 0.11664 0.0
C7 C 0.07326 0.097 0.11001 0.0
C8 C 0.09614 0.1161 0.09136 0.0
H9 H 0.06676 0.11013 0.11415 0.0
C10 C 0.09503 0.1165 0.07279 0.0
C11 C 0.10233 0.13436 0.06689 0.0
C12 C 0.10469 0.13362 0.10402 0.0
H13 H 0.10568 0.13359 0.11838 0.0
C14 C 0.11225 0.15127 0.09823 0.0
H15 H 0.08832 0.10299 0.06301 0.0
C16 C 0.1111 0.15168 0.07981 0.0
H17 H 0.11664 0.16569 0.0757 0.0
H18 H 0.11887 0.16472 0.10806 0.0
H19 H 0.365 0.76433 0.2614 0.0
C20 C 0.35204 0.75202 0.25807 0.0
C21 C 0.35375 0.73307 0.2611 0.0
C22 C 0.33345 0.75538 0.25142 0.0
H23 H 0.33785 0.70265 0.25901 0.0
C24 C 0.33669 0.71743 0.25704 0.0
C25 C 0.31789 0.72066 0.25106 0.0
C26 C 0.31644 0.73955 0.24784 0.0
C27 C 0.33135 0.77582 0.24974 0.0
H28 H 0.30183 0.74224 0.24361 0.0
C29 C 0.32125 0.77905 0.23424 0.0
C30 C 0.31888 0.79842 0.23294 0.0
C31 C 0.33905 0.79221 0.26395 0.0
H32 H 0.34664 0.79014 0.27613 0.0
C33 C 0.33666 0.8114 0.26276 0.0
H34 H 0.31525 0.76649 0.22322 0.0
C35 C 0.32664 0.81453 0.2474 0.0
H36 H 0.32525 0.82962 0.2467 0.0
H37 H 0.34261 0.82391 0.27379 0.0
H38 H 0.94408 0.43042 0.05982 0.0
C39 C 0.93875 0.44342 0.0572 0.0
C40 C 0.94803 0.46258 0.06689 0.0
C41 C 0.92292 0.44091 0.0438 0.0
H42 H 0.94828 0.49419 0.07037 0.0
C43 C 0.94118 0.47931 0.06306 0.0
C44 C 0.9256 0.47707 0.0495 0.0
C45 C 0.91638 0.45778 0.04006 0.0
C46 C 0.91404 0.42074 0.03296 0.0
H47 H 0.90443 0.45592 0.02949 0.0
C48 C 0.92681 0.40812 0.02523 0.0
C49 C 0.91871 0.38915 0.01444 0.0
C50 C 0.89293 0.41417 0.02994 0.0
H51 H 0.88278 0.42362 0.03578 0.0
C52 C 0.88476 0.39521 0.01948 0.0
H53 H 0.94311 0.41319 0.02748 0.0
C54 C 0.89752 0.38275 0.01175 0.0
H55 H 0.89082 0.36829 0.00338 0.0
H56 H 0.86847 0.39022 0.01723 0.0
H57 H 0.80092 0.78197 0.26362 0.0
C58 C 0.80047 0.7749 0.24943 0.0
C59 C 0.80534 0.78678 0.23651 0.0
C60 C 0.79578 0.7539 0.24421 0.0
H61 H 0.80859 0.78645 0.20813 0.0
C62 C 0.80505 0.77742 0.21822 0.0
C63 C 0.80056 0.75653 0.21278 0.0
C64 C 0.79604 0.74484 0.22585 0.0
C65 C 0.79043 0.74135 0.25783 0.0
H66 H 0.7922 0.72869 0.22162 0.0
C67 C 0.77693 0.74635 0.27097 0.0
C68 C 0.7708 0.73388 0.28326 0.0
C69 C 0.79829 0.72396 0.25739 0.0
H70 H 0.8089 0.71986 0.24758 0.0
C71 C 0.79256 0.71169 0.26967 0.0
H72 H 0.77098 0.75982 0.2714 0.0
C73 C 0.77883 0.71648 0.28242 0.0
H74 H 0.7742 0.70629 0.29135 0.0
H75 H 0.7986 0.69827 0.26916 0.0
H76 H 0.10586 0.95976 0.46526 0.0
C77 C 0.09326 0.96342 0.45814 0.0
C78 C 0.0946 0.98285 0.45503 0.0
C79 C 0.07601 0.94849 0.4516 0.0
H80 H 0.07929 0.00225 0.443 0.0
C81 C 0.07818 0.98742 0.44586 0.0
C82 C 0.06092 0.97264 0.43915 0.0
C83 C 0.05999 0.95311 0.44187 0.0
C84 C 0.07514 0.92794 0.45448 0.0
H85 H 0.04672 0.94159 0.43661 0.0
C86 C 0.07878 0.92463 0.47199 0.0
C87 C 0.07848 0.90519 0.47478 0.0
C88 C 0.0711 0.91161 0.43973 0.0
H89 H 0.06834 0.91384 0.42611 0.0
C90 C 0.07104 0.8923 0.4424 0.0
H91 H 0.08178 0.93718 0.48344 0.0
C92 C 0.07477 0.88907 0.4598 0.0
H93 H 0.07431 0.87393 0.46161 0.0
H94 H 0.06804 0.87978 0.43095 0.0
H95 H 0.29291 0.74079 0.79137 0.0
C96 C 0.28613 0.74544 0.8039 0.0
C97 C 0.28681 0.73489 0.81791 0.0
C98 C 0.2761 0.76157 0.80564 0.0
H99 H 0.27797 0.73282 0.84474 0.0
C100 C 0.27744 0.74085 0.83386 0.0
C101 C 0.26751 0.75713 0.83596 0.0
C102 C 0.26678 0.76731 0.82164 0.0
C103 C 0.27533 0.77234 0.79061 0.0
H104 H 0.25952 0.78009 0.82309 0.0
C105 C 0.25666 0.77499 0.78358 0.0
C106 C 0.2557 0.7843 0.76867 0.0
C107 C 0.2932 0.77946 0.78288 0.0
H108 H 0.30777 0.77763 0.78812 0.0
C109 C 0.29243 0.78912 0.76839 0.0
H110 H 0.24286 0.76946 0.78954 0.0
C111 C 0.27383 0.79147 0.76125 0.0
H112 H 0.27363 0.79847 0.74965 0.0
H113 H 0.30627 0.79456 0.76249 0.0
H114 H 0.95416 0.6047 0.44457 0.0
C115 C 0.94575 0.59321 0.45081 0.0
C116 C 0.94752 0.59527 0.46973 0.0
C117 C 0.93293 0.57638 0.43996 0.0
H118 H 0.9374 0.58207 0.49228 0.0
C119 C 0.93636 0.58043 0.47766 0.0
C120 C 0.92363 0.56361 0.46696 0.0
C121 C 0.92199 0.56158 0.44811 0.0
C122 C 0.93067 0.57415 0.4201 0.0
H123 H 0.91207 0.54858 0.43978 0.0
C124 C 0.94745 0.57272 0.40976 0.0
C125 C 0.94505 0.56901 0.39069 0.0
C126 C 0.91148 0.57239 0.41136 0.0
H127 H 0.89836 0.57339 0.41914 0.0
C128 C 0.90908 0.56927 0.39251 0.0
H129 H 0.96223 0.57405 0.41659 0.0
C130 C 0.92569 0.56748 0.38221 0.0
H131 H 0.92323 0.56436 0.36758 0.0
H132 H 0.89422 0.56789 0.38584 0.0
H133 H 0.84383 0.84845 0.79845 0.0
C134 C 0.84396 0.83886 0.80816 0.0
C135 C 0.85528 0.82362 0.80543 0.0
C136 C 0.83335 0.84232 0.82375 0.0
H137 H 0.86463 0.80031 0.81682 0.0
C138 C 0.8553 0.81152 0.81836 0.0
C139 C 0.84419 0.81438 0.83376 0.0
C140 C 0.83331 0.82992 0.83633 0.0
C141 C 0.82369 0.85991 0.82775 0.0
H142 H 0.8247 0.83244 0.84813 0.0
C143 C 0.80895 0.86292 0.81545 0.0
C144 C 0.80023 0.87998 0.81942 0.0
C145 C 0.82958 0.874 0.84402 0.0
H146 H 0.84096 0.87198 0.85363 0.0
C147 C 0.8211 0.89098 0.8479 0.0
H148 H 0.80425 0.85204 0.80292 0.0
C149 C 0.80655 0.89401 0.83569 0.0
H150 H 0.79993 0.90716 0.83913 0.0
H151 H 0.82578 0.90181 0.86044 0.0
H152 H 0.35715 0.3586 0.30363 0.0
C153 C 0.35482 0.34802 0.31253 0.0
C154 C 0.36286 0.33052 0.3089 0.0
C155 C 0.34437 0.3524 0.32807 0.0
H156 H 0.36686 0.30436 0.31887 0.0
C157 C 0.35985 0.31732 0.32098 0.0
C158 C 0.34894 0.32128 0.33638 0.0
C159 C 0.34124 0.33895 0.33977 0.0
C160 C 0.33926 0.37226 0.33354 0.0
H161 H 0.33306 0.34253 0.3517 0.0
C162 C 0.32153 0.37671 0.32632 0.0
C163 C 0.31661 0.39558 0.33247 0.0
C164 C 0.35221 0.38676 0.3466 0.0
H165 H 0.36591 0.3835 0.35227 0.0
C166 C 0.34761 0.40556 0.35246 0.0
H167 H 0.31141 0.36539 0.3164 0.0
C168 C 0.32994 0.40996 0.34549 0.0
H169 H 0.32675 0.42472 0.35023 0.0
H170 H 0.35772 0.41672 0.36248 0.0
H171 H 0.44581 0.93737 0.55958 0.0
C172 C 0.44058 0.95036 0.55681 0.0
C173 C 0.4491 0.96947 0.5671 0.0
C174 C 0.42551 0.94784 0.54274 0.0
H175 H 0.44889 0.00102 0.57079 0.0
C176 C 0.44238 0.98618 0.56304 0.0
C177 C 0.42759 0.98394 0.54877 0.0
C178 C 0.41905 0.96467 0.53884 0.0
C179 C 0.41711 0.92768 0.53165 0.0
H180 H 0.40759 0.96278 0.52783 0.0
C181 C 0.43021 0.9151 0.5246 0.0
C182 C 0.42251 0.89601 0.51387 0.0
C183 C 0.39607 0.92099 0.5279 0.0
H184 H 0.38566 0.9304 0.53323 0.0
C185 C 0.3883 0.90195 0.51742 0.0
H186 H 0.44646 0.92024 0.5274 0.0
C187 C 0.4014 0.88949 0.51045 0.0
H188 H 0.39503 0.87493 0.50211 0.0
H189 H 0.37207 0.89686 0.51463 0.0
H190 H 0.30084 0.28536 0.76402 0.0
C191 C 0.2998 0.2778 0.74992 0.0
C192 C 0.30336 0.28903 0.73636 0.0
C193 C 0.29593 0.25678 0.74547 0.0
H194 H 0.30467 0.28747 0.70762 0.0
C195 C 0.30219 0.27894 0.71821 0.0
C196 C 0.29838 0.25798 0.71353 0.0
C197 C 0.29551 0.24696 0.72727 0.0
C198 C 0.29265 0.24512 0.75991 0.0
H199 H 0.2925 0.23075 0.72377 0.0
C200 C 0.27811 0.24864 0.77241 0.0
C201 C 0.27476 0.23756 0.78616 0.0
C202 C 0.30396 0.2304 0.76122 0.0
H203 H 0.31529 0.22749 0.75177 0.0
C204 C 0.30096 0.21956 0.77496 0.0
H205 H 0.26898 0.25959 0.771 0.0
C206 C 0.2865 0.22309 0.78737 0.0
H207 H 0.2846 0.21454 0.79795 0.0
H208 H 0.30988 0.20837 0.77601 0.0
H209 H 0.84889 0.26376 0.76276 0.0
C210 C 0.83878 0.24932 0.7612 0.0
C211 C 0.84672 0.23208 0.76155 0.0
C212 C 0.81772 0.248 0.75934 0.0
H213 H 0.83934 0.20023 0.76019 0.0
C214 C 0.83335 0.21353 0.75971 0.0
C215 C 0.81229 0.21206 0.75785 0.0
C216 C 0.80459 0.2294 0.75767 0.0
C217 C 0.80907 0.26604 0.75991 0.0
H218 H 0.78833 0.22853 0.75661 0.0
C219 C 0.81091 0.27618 0.7455 0.0
C220 C 0.80056 0.29194 0.74499 0.0
C221 C 0.79751 0.27215 0.77426 0.0
H222 H 0.79586 0.26439 0.78543 0.0
C223 C 0.78778 0.28811 0.77419 0.0
H224 H 0.81993 0.27136 0.73452 0.0
C225 C 0.78909 0.29782 0.75962 0.0
H226 H 0.78055 0.30952 0.75962 0.0
H227 H 0.77877 0.29266 0.78526 0.0
H228 H 0.62378 0.58779 0.59349 0.0
C229 C 0.6121 0.58618 0.60293 0.0
C230 C 0.60691 0.56826 0.60917 0.0
C231 C 0.60254 0.60223 0.60907 0.0
H232 H 0.5882 0.55294 0.62669 0.0
C233 C 0.59174 0.56649 0.6214 0.0
C234 C 0.58172 0.58229 0.62743 0.0
C235 C 0.58739 0.60022 0.62127 0.0
C236 C 0.60887 0.62142 0.60324 0.0
H237 H 0.57982 0.61255 0.6257 0.0
C238 C 0.60782 0.62226 0.58477 0.0
C239 C 0.6138 0.64062 0.57932 0.0
C240 C 0.61602 0.63903 0.61627 0.0
H241 H 0.61696 0.63866 0.63056 0.0
C242 C 0.62229 0.65719 0.61093 0.0
H243 H 0.60217 0.6087 0.57469 0.0
C244 C 0.62121 0.65802 0.59259 0.0
H245 H 0.62572 0.67238 0.58883 0.0
H246 H 0.62786 0.6707 0.62104 0.0
H247 H 0.61534 0.4496 0.96359 0.0
C248 C 0.60354 0.45345 0.95563 0.0
C249 C 0.60626 0.47258 0.95156 0.0
C250 C 0.58578 0.43916 0.94914 0.0
H251 H 0.59321 0.49199 0.93763 0.0
C252 C 0.59105 0.47733 0.94102 0.0
C253 C 0.57328 0.46322 0.93442 0.0
C254 C 0.57064 0.44415 0.93859 0.0
C255 C 0.58336 0.41882 0.95292 0.0
H256 H 0.55699 0.43312 0.93341 0.0
C257 C 0.58543 0.41612 0.97082 0.0
C258 C 0.58315 0.39679 0.97447 0.0
C259 C 0.57912 0.40203 0.93861 0.0
H260 H 0.57755 0.4038 0.92471 0.0
C261 C 0.5772 0.38283 0.94212 0.0
H262 H 0.58861 0.42907 0.9819 0.0
C263 C 0.5792 0.38018 0.95992 0.0
H264 H 0.57714 0.3651 0.96233 0.0
H265 H 0.574 0.36995 0.93102 0.0
H266 H 0.78745 0.24672 0.29342 0.0
C267 C 0.78389 0.25107 0.30735 0.0
C268 C 0.78575 0.23867 0.31972 0.0
C269 C 0.77759 0.26924 0.31294 0.0
H270 H 0.78192 0.235 0.34722 0.0
C271 C 0.78063 0.24451 0.33763 0.0
C272 C 0.77412 0.26262 0.34336 0.0
C273 C 0.77289 0.275 0.33089 0.0
C274 C 0.77585 0.28245 0.30014 0.0
H275 H 0.76838 0.28925 0.3351 0.0
C276 C 0.75971 0.2774 0.28671 0.0
C277 C 0.75658 0.29095 0.27573 0.0
C278 C 0.7894 0.30085 0.30226 0.0
H279 H 0.80183 0.30501 0.31267 0.0
C280 C 0.78683 0.3141 0.29108 0.0
H281 H 0.74936 0.2631 0.2852 0.0
C282 C 0.77048 0.30932 0.27801 0.0
H283 H 0.76843 0.32029 0.2701 0.0
H284 H 0.79729 0.32834 0.29282 0.0
H285 H 0.44624 0.09344 0.94855 0.0
C286 C 0.43619 0.08226 0.95397 0.0
C287 C 0.43599 0.08383 0.97282 0.0
C288 C 0.42321 0.06636 0.94211 0.0
H289 H 0.42221 0.07067 0.9942 0.0
C290 C 0.42271 0.0694 0.97967 0.0
C291 C 0.40984 0.05345 0.96796 0.0
C292 C 0.41017 0.05194 0.9492 0.0
C293 C 0.42289 0.06484 0.9223 0.0
H294 H 0.40012 0.03966 0.9401 0.0
C295 C 0.44064 0.06371 0.91326 0.0
C296 C 0.44008 0.06103 0.89424 0.0
C297 C 0.4046 0.06374 0.91229 0.0
H298 H 0.39076 0.06458 0.91904 0.0
C299 C 0.40403 0.06156 0.8935 0.0
H300 H 0.45474 0.06453 0.92103 0.0
C301 C 0.4216 0.06012 0.88449 0.0
H302 H 0.42057 0.05779 0.86984 0.0
H303 H 0.38986 0.06069 0.88586 0.0
O304 O 0.23993 0.84817 0.0216 0.0
Cd305 Cd 0.25204 0.86887 0.0446 0.0
Cd306 Cd 0.2236 0.88923 0.03282 0.0
O307 O 0.21712 0.86378 0.01242 0.0
O308 O 0.26785 0.85419 0.05812 0.0
O309 O 0.24226 0.86709 0.06931 0.0
C310 C 0.25638 0.85726 0.07126 0.0
C311 C 0.19711 0.9049 0.04319 0.0
C312 C 0.22598 0.84898 0.01013 0.0
C313 C 0.26838 0.90836 0.03534 0.0
O314 O 0.25006 0.90938 0.0319 0.0
O315 O 0.2727 0.89331 0.04064 0.0
O316 O 0.20285 0.90445 0.02706 0.0
O317 O 0.20591 0.89566 0.05342 0.0
O318 O 0.16352 0.54017 0.26453 0.0
Cd319 Cd 0.14481 0.51474 0.2692 0.0
Cd320 Cd 0.12158 0.52162 0.23919 0.0
O321 O 0.14789 0.54212 0.23895 0.0
O322 O 0.16108 0.50653 0.28787 0.0
O323 O 0.15255 0.48792 0.26043 0.0
C324 C 0.16185 0.49052 0.27624 0.0
C325 C 0.10406 0.508 0.21084 0.0
C326 C 0.16259 0.54837 0.25097 0.0
C327 C 0.10353 0.52413 0.27563 0.0
O328 O 0.10275 0.5274 0.25966 0.0
O329 O 0.11842 0.5178 0.28158 0.0
O330 O 0.10602 0.52658 0.2183 0.0
O331 O 0.11227 0.4968 0.2194 0.0
O332 O 0.81799 0.68709 0.97366 0.0
Cd333 Cd 0.80725 0.66909 0.99141 0.0
Cd334 Cd 0.82766 0.64401 0.97121 0.0
O335 O 0.8344 0.6665 0.95688 0.0
O336 O 0.79763 0.68697 0.01175 0.0
O337 O 0.82253 0.67108 0.0153 0.0
C338 C 0.81091 0.68282 0.02237 0.0
C339 C 0.85243 0.63106 0.98437 0.0
C340 C 0.82868 0.68314 0.96038 0.0
C341 C 0.78338 0.62865 0.97284 0.0
O342 O 0.79972 0.62516 0.96624 0.0
O343 O 0.78309 0.64541 0.98307 0.0
O344 O 0.84785 0.62648 0.9671 0.0
O345 O 0.84363 0.64397 0.99408 0.0
O346 O 0.93353 0.02716 0.29812 0.0
Cd347 Cd 0.91553 0.02804 0.27569 0.0
Cd348 Cd 0.89071 0.03799 0.30127 0.0
O349 O 0.91441 0.03814 0.31941 0.0
O350 O 0.93336 0.02347 0.25546 0.0
O351 O 0.92155 0.05125 0.26281 0.0
C352 C 0.93219 0.04081 0.25247 0.0
C353 C 0.87731 0.06639 0.30134 0.0
C354 C 0.93048 0.03205 0.31478 0.0
C355 C 0.87626 0.99893 0.27591 0.0
O356 O 0.87287 0.01033 0.29031 0.0
O357 O 0.8918 0.00403 0.26754 0.0
O358 O 0.8727 0.05537 0.31311 0.0
O359 O 0.88992 0.06138 0.2896 0.0
O360 O 0.31381 0.19099 0.47396 0.0
Cd361 Cd 0.30248 0.17316 0.49166 0.0
Cd362 Cd 0.32089 0.1468 0.47074 0.0
O363 O 0.328 0.1691 0.45621 0.0
O364 O 0.29392 0.19146 0.51233 0.0
O365 O 0.31771 0.17412 0.51533 0.0
C366 C 0.30678 0.18642 0.52271 0.0
C367 C 0.34553 0.13334 0.48354 0.0
C368 C 0.32354 0.18632 0.46015 0.0
C369 C 0.27643 0.13367 0.47328 0.0
O370 O 0.29232 0.12907 0.46653 0.0
O371 O 0.27721 0.15072 0.48342 0.0
O372 O 0.34036 0.12848 0.46636 0.0
O373 O 0.33728 0.14665 0.49334 0.0
O374 O 0.43995 0.52855 0.80589 0.0
Cd375 Cd 0.42229 0.52909 0.7831 0.0
Cd376 Cd 0.3964 0.53739 0.80909 0.0
O377 O 0.41918 0.53539 0.82713 0.0
O378 O 0.44071 0.52285 0.76371 0.0
O379 O 0.43017 0.5514 0.76929 0.0
C380 C 0.44073 0.54005 0.75988 0.0
C381 C 0.38437 0.56667 0.8104 0.0
C382 C 0.43605 0.53121 0.82246 0.0
C383 C 0.38212 0.49995 0.78188 0.0
O384 O 0.37815 0.51077 0.79638 0.0
O385 O 0.39832 0.50523 0.77441 0.0
O386 O 0.37879 0.55488 0.82136 0.0
O387 O 0.39725 0.56195 0.79882 0.0
O388 O 0.76606 0.36046 0.53472 0.0
Cd389 Cd 0.77822 0.38226 0.55694 0.0
Cd390 Cd 0.75037 0.40184 0.5438 0.0
O391 O 0.74372 0.37568 0.52421 0.0
O392 O 0.79308 0.36804 0.57171 0.0
O393 O 0.76791 0.38249 0.58171 0.0
C394 C 0.78141 0.37224 0.58446 0.0
C395 C 0.72393 0.41769 0.55392 0.0
C396 C 0.75231 0.36074 0.52286 0.0
C397 C 0.79522 0.42049 0.5459 0.0
O398 O 0.77695 0.42157 0.54225 0.0
O399 O 0.79934 0.40581 0.55197 0.0
O400 O 0.72954 0.41681 0.5377 0.0
O401 O 0.73291 0.40886 0.56442 0.0
O402 O 0.65993 0.02661 0.76909 0.0
Cd403 Cd 0.63794 0.00229 0.77134 0.0
Cd404 Cd 0.61705 0.01526 0.74453 0.0
O405 O 0.64514 0.03333 0.74513 0.0
O406 O 0.65196 0.98694 0.78556 0.0
O407 O 0.64037 0.97531 0.75689 0.0
C408 C 0.64988 0.97295 0.77125 0.0
C409 C 0.59889 0.00486 0.71619 0.0
C410 C 0.6602 0.03663 0.75669 0.0
C411 C 0.59952 0.01624 0.781 0.0
O412 O 0.59925 0.02135 0.76575 0.0
O413 O 0.61309 0.00729 0.78549 0.0
O414 O 0.60254 0.02324 0.72465 0.0
O415 O 0.60576 0.99207 0.72372 0.0
O416 O 0.0287 0.24145 0.91226 0.0
Cd417 Cd 0.03713 0.21882 0.89412 0.0
Cd418 Cd 0.06044 0.24947 0.88374 0.0
O419 O 0.05132 0.26638 0.90648 0.0
O420 O 0.03072 0.19459 0.90497 0.0
O421 O 0.06197 0.2093 0.90114 0.0
C422 C 0.05002 0.19572 0.90734 0.0
C423 C 0.09453 0.25169 0.87826 0.0
C424 C 0.03696 0.25991 0.91563 0.0
C425 C 0.02613 0.22484 0.85739 0.0
O426 O 0.03986 0.24062 0.86138 0.0
O427 O 0.02328 0.2128 0.86819 0.0
O428 O 0.08518 0.26577 0.87624 0.0
O429 O 0.08461 0.23658 0.88395 0.0
O430 O 0.53457 0.74443 0.42162 0.0
Cd431 Cd 0.5427 0.72059 0.40476 0.0
Cd432 Cd 0.56362 0.74957 0.39064 0.0
O433 O 0.55506 0.76853 0.41232 0.0
O434 O 0.53766 0.69809 0.41788 0.0
O435 O 0.56827 0.71218 0.41176 0.0
C436 C 0.55704 0.69942 0.41941 0.0
C437 C 0.59725 0.75294 0.3834 0.0
C438 C 0.54186 0.76293 0.42288 0.0
C439 C 0.5285 0.72161 0.36735 0.0
O440 O 0.54192 0.73756 0.3694 0.0
O441 O 0.52691 0.71131 0.37961 0.0
O442 O 0.58624 0.76522 0.37992 0.0
O443 O 0.5893 0.73904 0.39162 0.0
O444 O 0.01002 0.78056 0.67287 0.0
Cd445 Cd 0.03374 0.77465 0.65752 0.0
Cd446 Cd 0.02178 0.80036 0.63926 0.0
O447 O 0.00442 0.80576 0.66102 0.0
O448 O 0.05116 0.76288 0.67246 0.0
O449 O 0.06151 0.79188 0.66442 0.0
C450 C 0.06528 0.77839 0.67292 0.0
C451 C 0.04065 0.8267 0.62847 0.0
C452 C 0.00077 0.79482 0.67265 0.0
C453 C 0.01762 0.75799 0.61914 0.0
O454 O 0.01255 0.77473 0.61946 0.0
O455 O 0.02732 0.75512 0.63282 0.0
O456 O 0.02112 0.82255 0.62639 0.0
O457 O 0.04959 0.81641 0.63754 0.0
O458 O 0.51246 0.27127 0.17583 0.0
Cd459 Cd 0.5343 0.26285 0.15921 0.0
Cd460 Cd 0.52346 0.28913 0.14051 0.0
O461 O 0.5075 0.29599 0.163 0.0
O462 O 0.55242 0.25154 0.17389 0.0
O463 O 0.56283 0.2788 0.16301 0.0
C464 C 0.56688 0.26603 0.17225 0.0
C465 C 0.54051 0.31527 0.12822 0.0
C466 C 0.50402 0.28602 0.17536 0.0
C467 C 0.51596 0.24564 0.12166 0.0
O468 O 0.51286 0.26306 0.12144 0.0
O469 O 0.5251 0.24234 0.13544 0.0
O470 O 0.521 0.31067 0.12727 0.0
O471 O 0.55059 0.30535 0.13672 0.0
C472 C 0.24007 0.77068 0.85333 0.0
C473 C 0.25837 0.76368 0.85326 0.0
C474 C 0.23177 0.77706 0.86968 0.0
C475 C 0.23233 0.77275 0.91753 0.0
H476 H 0.22021 0.82592 0.927 0.0
C477 C 0.23391 0.81921 0.9893 0.0
C478 C 0.22214 0.83399 0.99283 0.0
C479 C 0.23337 0.80757 0.97192 0.0
C480 C 0.22299 0.81084 0.92451 0.0
H481 H 0.28238 0.75829 0.87051 0.0
H482 H 0.26761 0.76885 0.89882 0.0
H483 H 0.22879 0.81149 0.89686 0.0
H484 H 0.19924 0.84694 0.98115 0.0
H485 H 0.19792 0.82625 0.95086 0.0
H486 H 0.22681 0.7721 0.94516 0.0
C487 C 0.25961 0.7692 0.88621 0.0
C488 C 0.22801 0.80263 0.90722 0.0
C489 C 0.26803 0.7631 0.86994 0.0
C490 C 0.20865 0.83581 0.97887 0.0
C491 C 0.20802 0.82406 0.96146 0.0
C492 C 0.22709 0.78085 0.93475 0.0
C493 C 0.24145 0.77631 0.88626 0.0
C494 C 0.23331 0.78376 0.90373 0.0
C495 C 0.2209 0.81029 0.95762 0.0
C496 C 0.22299 0.80027 0.93863 0.0
H497 H 0.23204 0.77108 0.84076 0.0
H498 H 0.21771 0.78243 0.86936 0.0
H499 H 0.23605 0.75802 0.9151 0.0
H500 H 0.24444 0.81733 0.99972 0.0
H501 H 0.24366 0.7973 0.96952 0.0
C502 C 0.96479 0.57296 0.36351 0.0
C503 C 0.96241 0.56574 0.37962 0.0
C504 C 0.98037 0.56879 0.35255 0.0
C505 C 0.02991 0.55385 0.35274 0.0
H506 H 0.01627 0.53517 0.30108 0.0
C507 C 0.08651 0.52304 0.30459 0.0
C508 C 0.08715 0.52827 0.28751 0.0
C509 C 0.07129 0.52743 0.31592 0.0
C510 C 0.02042 0.54061 0.31544 0.0
H511 H 0.97468 0.54852 0.39684 0.0
H512 H 0.00206 0.5416 0.37786 0.0
H513 H 0.99015 0.54401 0.32085 0.0
H514 H 0.07226 0.54226 0.26898 0.0
H515 H 0.04604 0.55025 0.28883 0.0
H516 H 0.06023 0.55071 0.34735 0.0
C517 C 0.99192 0.55058 0.3738 0.0
C518 C 0.00543 0.54565 0.32676 0.0
C519 C 0.97626 0.55463 0.3847 0.0
C520 C 0.07217 0.5379 0.282 0.0
C521 C 0.05704 0.5424 0.29336 0.0
C522 C 0.04495 0.54894 0.3414 0.0
C523 C 0.99399 0.55743 0.35751 0.0
C524 C 0.01002 0.55233 0.34552 0.0
C525 C 0.05641 0.53725 0.31047 0.0
C526 C 0.04039 0.54226 0.3226 0.0
H527 H 0.95461 0.58184 0.35934 0.0
H528 H 0.98179 0.57452 0.3402 0.0
H529 H 0.03392 0.55915 0.36714 0.0
H530 H 0.09777 0.51552 0.30923 0.0
H531 H 0.07108 0.52297 0.3289 0.0
C532 C 0.84459 0.8095 0.86597 0.0
C533 C 0.84436 0.80144 0.84732 0.0
C534 C 0.84434 0.79728 0.87864 0.0
C535 C 0.8564 0.75016 0.88588 0.0
H536 H 0.81662 0.75269 0.92171 0.0
C537 C 0.83926 0.69146 0.93082 0.0
C538 C 0.8335 0.69762 0.94841 0.0
C539 C 0.84206 0.70473 0.91898 0.0
C540 C 0.8281 0.75201 0.91205 0.0
H541 H 0.84371 0.77408 0.82747 0.0
H542 H 0.84382 0.75291 0.8497 0.0
H543 H 0.81888 0.77481 0.90023 0.0
H544 H 0.82712 0.72279 0.96769 0.0
H545 H 0.83273 0.74612 0.94733 0.0
H546 H 0.86592 0.72762 0.89781 0.0
C547 C 0.84422 0.76873 0.85442 0.0
C548 C 0.8293 0.76465 0.89968 0.0
C549 C 0.84421 0.78089 0.84172 0.0
C550 C 0.83134 0.71753 0.95414 0.0
C551 C 0.83442 0.73087 0.9424 0.0
C552 C 0.8554 0.73769 0.89841 0.0
C553 C 0.84413 0.77678 0.87299 0.0
C554 C 0.84335 0.76375 0.8864 0.0
C555 C 0.83943 0.72455 0.92454 0.0
C556 C 0.84114 0.73835 0.9116 0.0
H557 H 0.84516 0.82532 0.87084 0.0
H558 H 0.84451 0.80391 0.8929 0.0
H559 H 0.86753 0.74933 0.87588 0.0
H560 H 0.84093 0.67619 0.92596 0.0
H561 H 0.84564 0.69922 0.90528 0.0
C562 C 0.03857 0.96647 0.41065 0.0
C563 C 0.04463 0.97755 0.42825 0.0
C564 C 0.02498 0.97254 0.39952 0.0
C565 C 0.00468 0.01753 0.3946 0.0
H566 H 0.96851 0.97916 0.35744 0.0
C567 C 0.9436 0.03623 0.3472 0.0
C568 C 0.94466 0.0285 0.32866 0.0
C569 C 0.9556 0.03095 0.36028 0.0
C570 C 0.97858 0.99001 0.36777 0.0
H571 H 0.04065 0.00303 0.44841 0.0
H572 H 0.01619 0.01318 0.42933 0.0
H573 H 0.98832 0.96726 0.37914 0.0
H574 H 0.9595 0.00954 0.30933 0.0
H575 H 0.98005 0.0001 0.33218 0.0
H576 H 0.99437 0.04023 0.38329 0.0
C577 C 0.02241 0.00022 0.4238 0.0
C578 C 0.99003 0.98323 0.38015 0.0
C579 C 0.03626 0.99433 0.43481 0.0
C580 C 0.95833 0.01582 0.32348 0.0
C581 C 0.97001 0.01028 0.33653 0.0
C582 C 0.99292 0.02429 0.3824 0.0
C583 C 0.0169 0.98966 0.40586 0.0
C584 C 0.00352 0.99688 0.39355 0.0
C585 C 0.96854 0.01756 0.35503 0.0
C586 C 0.98005 0.01058 0.3687 0.0
H587 H 0.04504 0.95363 0.40522 0.0
H588 H 0.02144 0.96419 0.38572 0.0
H589 H 0.01511 0.02853 0.4045 0.0
H590 H 0.93323 0.04603 0.35161 0.0
H591 H 0.95426 0.03675 0.3745 0.0
C592 C 0.30938 0.23302 0.68906 0.0
C593 C 0.2981 0.24797 0.69426 0.0
C594 C 0.31104 0.22543 0.67068 0.0
C595 C 0.30743 0.24002 0.62648 0.0
H596 H 0.30504 0.18391 0.6061 0.0
C597 C 0.29716 0.20845 0.54991 0.0
C598 C 0.30824 0.19401 0.54252 0.0
C599 C 0.29746 0.21492 0.56863 0.0
C600 C 0.30603 0.19966 0.61166 0.0
H601 H 0.27865 0.26573 0.68444 0.0
H602 H 0.28134 0.25238 0.65248 0.0
H603 H 0.30169 0.19465 0.63854 0.0
H604 H 0.32854 0.17518 0.54898 0.0
H605 H 0.32909 0.1866 0.58185 0.0
H606 H 0.31156 0.24508 0.59969 0.0
C607 C 0.28936 0.24689 0.66251 0.0
C608 C 0.30407 0.2058 0.63021 0.0
C609 C 0.28775 0.25448 0.6808 0.0
C610 C 0.31987 0.18635 0.55428 0.0
C611 C 0.32008 0.19278 0.57308 0.0
C612 C 0.30937 0.23391 0.608 0.0
C613 C 0.30142 0.23265 0.65723 0.0
C614 C 0.30442 0.22601 0.63775 0.0
C615 C 0.3088 0.20708 0.58044 0.0
C616 C 0.30838 0.21364 0.60033 0.0
H617 H 0.31762 0.22784 0.69917 0.0
H618 H 0.32049 0.21451 0.66704 0.0
H619 H 0.30829 0.25578 0.63195 0.0
H620 H 0.28801 0.21461 0.54124 0.0
H621 H 0.28839 0.22576 0.57387 0.0
C622 C 0.56381 0.59594 0.6545 0.0
C623 C 0.5656 0.57999 0.64032 0.0
C624 C 0.54934 0.59325 0.66713 0.0
C625 C 0.52238 0.55439 0.68818 0.0
H626 H 0.48414 0.58897 0.70166 0.0
C627 C 0.45826 0.53157 0.73184 0.0
C628 C 0.45287 0.54626 0.7453 0.0
C629 C 0.47114 0.53694 0.71881 0.0
C630 C 0.4949 0.57933 0.69824 0.0
H631 H 0.55271 0.54903 0.62787 0.0
H632 H 0.52804 0.54425 0.65022 0.0
H633 H 0.50858 0.59643 0.67941 0.0
H634 H 0.45621 0.57815 0.75538 0.0
H635 H 0.47943 0.58765 0.73284 0.0
H636 H 0.50941 0.53756 0.70716 0.0
C637 C 0.53794 0.55877 0.65158 0.0
C638 C 0.50882 0.58359 0.68547 0.0
C639 C 0.55217 0.5615 0.63884 0.0
C640 C 0.46012 0.56652 0.74512 0.0
C641 C 0.47336 0.57194 0.73218 0.0
C642 C 0.50875 0.55031 0.70107 0.0
C643 C 0.53656 0.57452 0.66597 0.0
C644 C 0.52244 0.57092 0.68012 0.0
C645 C 0.47934 0.55715 0.71907 0.0
C646 C 0.49454 0.56246 0.70603 0.0
H647 H 0.574 0.61033 0.65618 0.0
H648 H 0.54862 0.60559 0.67818 0.0
H649 H 0.533 0.54462 0.68456 0.0
H650 H 0.45264 0.51582 0.73146 0.0
H651 H 0.47481 0.52513 0.7086 0.0
C652 C 0.80079 0.28994 0.71129 0.0
C653 C 0.80058 0.30138 0.72884 0.0
C654 C 0.79936 0.29838 0.69607 0.0
C655 C 0.8022 0.34725 0.68159 0.0
H656 H 0.7731 0.31287 0.63804 0.0
C657 C 0.77601 0.37422 0.61749 0.0
C658 C 0.78335 0.36501 0.60147 0.0
C659 C 0.77817 0.36724 0.63352 0.0
C660 C 0.78126 0.32261 0.65014 0.0
H661 H 0.79948 0.33108 0.74394 0.0
H662 H 0.79572 0.34537 0.71746 0.0
H663 H 0.77687 0.29929 0.66508 0.0
H664 H 0.79842 0.34118 0.58958 0.0
H665 H 0.80155 0.32867 0.61739 0.0
H666 H 0.80582 0.37072 0.66652 0.0
C667 C 0.79746 0.32996 0.71543 0.0
C668 C 0.78363 0.31482 0.66561 0.0
C669 C 0.7993 0.32163 0.73069 0.0
C670 C 0.79268 0.34863 0.60173 0.0
C671 C 0.79442 0.34141 0.61759 0.0
C672 C 0.79944 0.35513 0.66618 0.0
C673 C 0.79725 0.31839 0.69787 0.0
C674 C 0.79438 0.32695 0.68151 0.0
C675 C 0.78724 0.35068 0.63362 0.0
C676 C 0.78915 0.3428 0.65029 0.0
H677 H 0.80148 0.27425 0.70918 0.0
H678 H 0.79977 0.28906 0.68285 0.0
H679 H 0.81082 0.35704 0.69342 0.0
H680 H 0.76881 0.38691 0.61767 0.0
H681 H 0.77248 0.37456 0.64575 0.0
C682 C 0.48184 0.98832 0.58446 0.0
C683 C 0.46537 0.97198 0.58174 0.0
C684 C 0.49706 0.99077 0.59824 0.0
C685 C 0.52162 0.96426 0.62717 0.0
H686 H 0.53638 0.01632 0.65933 0.0
C687 C 0.57426 0.97974 0.69335 0.0
C688 C 0.58644 0.99894 0.69879 0.0
C689 C 0.56038 0.97535 0.67813 0.0
C690 C 0.53277 0.00178 0.6503 0.0
H691 H 0.4521 0.94537 0.59149 0.0
H692 H 0.47902 0.94947 0.6153 0.0
H693 H 0.51051 0.01085 0.63459 0.0
H694 H 0.59484 0.02809 0.69196 0.0
H695 H 0.57148 0.02024 0.66509 0.0
H696 H 0.54416 0.95526 0.6427 0.0
C697 C 0.48006 0.96032 0.60667 0.0
C698 C 0.51784 0.99864 0.63618 0.0
C699 C 0.46469 0.95798 0.59301 0.0
C700 C 0.5854 0.01325 0.68821 0.0
C701 C 0.57186 0.00878 0.67289 0.0
C702 C 0.5368 0.96746 0.64121 0.0
C703 C 0.49629 0.97682 0.6095 0.0
C704 C 0.51214 0.97989 0.62446 0.0
C705 C 0.55868 0.99001 0.66797 0.0
C706 C 0.54262 0.98631 0.65292 0.0
H707 H 0.48314 0.99914 0.5758 0.0
H708 H 0.50955 0.00351 0.60001 0.0
H709 H 0.51754 0.94967 0.61823 0.0
H710 H 0.57474 0.96847 0.70134 0.0
H711 H 0.55042 0.96076 0.67481 0.0
C712 C 0.87947 0.24766 0.78004 0.0
C713 C 0.86874 0.23336 0.76541 0.0
C714 C 0.89921 0.24678 0.78567 0.0
C715 C 0.93179 0.20985 0.78505 0.0
H716 H 0.97187 0.25666 0.80802 0.0
C717 C 0.99326 0.20822 0.83937 0.0
C718 C 0.01178 0.222 0.8413 0.0
C719 C 0.97808 0.20825 0.82625 0.0
C720 C 0.96106 0.24338 0.80138 0.0
H721 H 0.87075 0.20785 0.74435 0.0
H722 H 0.90537 0.2065 0.75399 0.0
H723 H 0.94168 0.26075 0.79168 0.0
H724 H 0.02953 0.24547 0.82993 0.0
H725 H 0.00325 0.24519 0.8068 0.0
H726 H 0.95115 0.19247 0.79481 0.0
C727 C 0.89837 0.21809 0.76141 0.0
C728 C 0.94359 0.24576 0.7922 0.0
C729 C 0.87859 0.21891 0.75584 0.0
C730 C 0.01534 0.2348 0.82895 0.0
C731 C 0.00022 0.23474 0.81576 0.0
C732 C 0.94931 0.20745 0.79417 0.0
C733 C 0.9087 0.23165 0.77673 0.0
C734 C 0.9285 0.22906 0.78432 0.0
C735 C 0.98114 0.22197 0.81467 0.0
C736 C 0.96393 0.22421 0.80283 0.0
H737 H 0.87219 0.25882 0.78781 0.0
H738 H 0.90659 0.25733 0.79765 0.0
H739 H 0.92043 0.19663 0.77928 0.0
H740 H 0.99 0.19816 0.84867 0.0
H741 H 0.96355 0.19829 0.82592 0.0
C742 C 0.43266 0.86263 0.50626 0.0
C743 C 0.43656 0.88315 0.50605 0.0
C744 C 0.44597 0.85059 0.49888 0.0
C745 C 0.48479 0.84796 0.46596 0.0
H746 H 0.49891 0.8075 0.49008 0.0
C747 C 0.53988 0.79848 0.4361 0.0
C748 C 0.53356 0.77792 0.43563 0.0
C749 C 0.53021 0.81237 0.44651 0.0
C750 C 0.49502 0.81866 0.48314 0.0
H751 H 0.45734 0.90708 0.49777 0.0
H752 H 0.48066 0.88611 0.48508 0.0
H753 H 0.47727 0.82954 0.50442 0.0
H754 H 0.51277 0.75595 0.44643 0.0
H755 H 0.49583 0.78009 0.46433 0.0
H756 H 0.50212 0.83686 0.44451 0.0
C757 C 0.46729 0.87932 0.49088 0.0
C758 C 0.48262 0.83126 0.49134 0.0
C759 C 0.45404 0.89136 0.49831 0.0
C760 C 0.51801 0.77167 0.44644 0.0
C761 C 0.50835 0.78554 0.45681 0.0
C762 C 0.49714 0.83533 0.45774 0.0
C763 C 0.46339 0.8588 0.49106 0.0
C764 C 0.47722 0.84592 0.48276 0.0
C765 C 0.51404 0.80601 0.45667 0.0
C766 C 0.50225 0.82041 0.46615 0.0
H767 H 0.41941 0.85591 0.51226 0.0
H768 H 0.44245 0.83478 0.49905 0.0
H769 H 0.48068 0.85893 0.4589 0.0
H770 H 0.55188 0.80381 0.42801 0.0
H771 H 0.53518 0.82808 0.44636 0.0
C772 C 0.25479 0.25991 0.80515 0.0
C773 C 0.25863 0.24066 0.79878 0.0
C774 C 0.23886 0.26262 0.81614 0.0
C775 C 0.20454 0.23893 0.84623 0.0
H776 H 0.16766 0.27056 0.83176 0.0
C777 C 0.124 0.23512 0.871 0.0
C778 C 0.11558 0.25234 0.87307 0.0
C779 C 0.14302 0.23512 0.86415 0.0
C780 C 0.17798 0.26201 0.83627 0.0
H781 H 0.24873 0.2092 0.79925 0.0
H782 H 0.22122 0.21403 0.81867 0.0
H783 H 0.19818 0.26812 0.81589 0.0
H784 H 0.12095 0.28338 0.87055 0.0
H785 H 0.15435 0.28359 0.85915 0.0
H786 H 0.18434 0.23277 0.86659 0.0
C787 C 0.23065 0.22702 0.81523 0.0
C788 C 0.19546 0.26057 0.82711 0.0
C789 C 0.24646 0.22427 0.80411 0.0
C790 C 0.12695 0.26981 0.86894 0.0
C791 C 0.14605 0.26988 0.86228 0.0
C792 C 0.18713 0.24051 0.85552 0.0
C793 C 0.22652 0.24618 0.82116 0.0
C794 C 0.20879 0.24881 0.83182 0.0
C795 C 0.15414 0.2524 0.85939 0.0
C796 C 0.17347 0.25186 0.8505 0.0
H797 H 0.26408 0.27292 0.80162 0.0
H798 H 0.23616 0.2776 0.82071 0.0
H799 H 0.21468 0.22995 0.85029 0.0
H800 H 0.11558 0.2214 0.87401 0.0
H801 H 0.14862 0.22131 0.86193 0.0
C802 C 0.59324 0.63282 0.5495 0.0
C803 C 0.61146 0.64196 0.55999 0.0
C804 C 0.59014 0.63592 0.53193 0.0
C805 C 0.60793 0.67282 0.50393 0.0
H806 H 0.57421 0.63345 0.46577 0.0
C807 C 0.587 0.69278 0.4362 0.0
C808 C 0.56608 0.68805 0.43111 0.0
C809 C 0.59498 0.68438 0.44955 0.0
C810 C 0.58368 0.64458 0.47629 0.0
H811 H 0.64119 0.66051 0.55993 0.0
H812 H 0.63599 0.66562 0.52916 0.0
H813 H 0.58397 0.62378 0.49376 0.0
H814 H 0.53737 0.66979 0.43516 0.0
H815 H 0.55128 0.65515 0.45837 0.0
H816 H 0.60735 0.69369 0.48665 0.0
C817 C 0.62385 0.65649 0.53464 0.0
C818 C 0.58922 0.63908 0.49236 0.0
C819 C 0.62687 0.65352 0.55225 0.0
C820 C 0.55354 0.67381 0.43882 0.0
C821 C 0.56154 0.66532 0.45207 0.0
C822 C 0.60251 0.67827 0.48785 0.0
C823 C 0.60526 0.64812 0.5244 0.0
C824 C 0.60109 0.65324 0.50654 0.0
C825 C 0.58224 0.67096 0.45797 0.0
C826 C 0.59 0.66433 0.47399 0.0
H827 H 0.58101 0.624 0.55517 0.0
H828 H 0.57553 0.62945 0.52459 0.0
H829 H 0.61678 0.68424 0.51462 0.0
H830 H 0.59708 0.70366 0.43048 0.0
H831 H 0.61105 0.68881 0.45366 0.0
C832 C 0.87056 0.80181 0.78126 0.0
C833 C 0.86805 0.82099 0.78975 0.0
C834 C 0.88388 0.79943 0.76759 0.0
C835 C 0.92815 0.82784 0.74931 0.0
H836 H 0.9183 0.78072 0.71051 0.0
C837 C 0.97878 0.8167 0.68901 0.0
C838 C 0.98531 0.79838 0.68569 0.0
C839 C 0.96399 0.81992 0.70118 0.0
C840 C 0.92124 0.79391 0.72132 0.0
H841 H 0.8773 0.85269 0.79001 0.0
H842 H 0.89959 0.84846 0.76556 0.0
H843 H 0.89258 0.78571 0.73196 0.0
H844 H 0.98132 0.76902 0.6924 0.0
H845 H 0.95521 0.77456 0.71339 0.0
H846 H 0.95667 0.83615 0.73828 0.0
C847 C 0.89174 0.83526 0.76985 0.0
C848 C 0.90657 0.79676 0.73368 0.0
C849 C 0.87864 0.83767 0.7837 0.0
C850 C 0.97667 0.78332 0.69471 0.0
C851 C 0.96164 0.78642 0.70663 0.0
C852 C 0.94266 0.82514 0.73676 0.0
C853 C 0.89483 0.81613 0.76182 0.0
C854 C 0.90992 0.81365 0.74799 0.0
C855 C 0.9552 0.80475 0.71 0.0
C856 C 0.93944 0.80804 0.72279 0.0
H857 H 0.86241 0.78858 0.78531 0.0
H858 H 0.88596 0.78447 0.76192 0.0
H859 H 0.93151 0.84083 0.7603 0.0
H860 H 0.98518 0.8286 0.68228 0.0
H861 H 0.95921 0.83416 0.70351 0.0
C862 C 0.06996 0.90984 0.50713 0.0
C863 C 0.08119 0.90159 0.49335 0.0
C864 C 0.07122 0.90524 0.52429 0.0
C865 C 0.08464 0.86614 0.54661 0.0
H866 H 0.07413 0.90209 0.58984 0.0
C867 C 0.07143 0.83919 0.61321 0.0
C868 C 0.05217 0.84126 0.6189 0.0
C869 C 0.0803 0.85003 0.60073 0.0
C870 C 0.07728 0.89197 0.5779 0.0
H871 H 0.10333 0.88292 0.48691 0.0
H872 H 0.10606 0.87531 0.51706 0.0
H873 H 0.08018 0.9145 0.56198 0.0
H874 H 0.02791 0.85748 0.61733 0.0
H875 H 0.04356 0.87668 0.59591 0.0
H876 H 0.08143 0.84358 0.56251 0.0
C877 C 0.0958 0.88487 0.51451 0.0
C878 C 0.08059 0.899 0.5619 0.0
C879 C 0.0943 0.88926 0.49725 0.0
C880 C 0.04274 0.85554 0.61311 0.0
C881 C 0.05174 0.86661 0.60091 0.0
C882 C 0.08163 0.85922 0.56267 0.0
C883 C 0.08396 0.89248 0.52816 0.0
C884 C 0.08362 0.88599 0.54587 0.0
C885 C 0.07022 0.86338 0.59405 0.0
C886 C 0.07729 0.87189 0.57831 0.0
H887 H 0.05957 0.91923 0.50442 0.0
H888 H 0.06155 0.91109 0.53427 0.0
H889 H 0.08664 0.85556 0.53456 0.0
H890 H 0.07901 0.82823 0.61741 0.0
H891 H 0.09461 0.84736 0.5957 0.0
C892 C 0.21917 0.7696 0.75826 0.0
C893 C 0.2358 0.78572 0.76035 0.0
C894 C 0.2007 0.7705 0.74978 0.0
C895 C 0.17872 0.79527 0.71737 0.0
H896 H 0.12801 0.77418 0.736 0.0
C897 C 0.10021 0.79787 0.68458 0.0
C898 C 0.08503 0.7806 0.68315 0.0
C899 C 0.11867 0.79989 0.6946 0.0
C900 C 0.14203 0.77997 0.73053 0.0
H901 H 0.24583 0.81565 0.7555 0.0
H902 H 0.21355 0.81713 0.74053 0.0
H903 H 0.16001 0.77529 0.75266 0.0
H904 H 0.07741 0.75181 0.69093 0.0
H905 H 0.10955 0.7552 0.70809 0.0
H906 H 0.16072 0.79963 0.69507 0.0
C907 C 0.21494 0.80372 0.74533 0.0
C908 C 0.16037 0.78063 0.7401 0.0
C909 C 0.23342 0.80285 0.75389 0.0
C910 C 0.08873 0.76536 0.69182 0.0
C911 C 0.10713 0.76737 0.70179 0.0
C912 C 0.16035 0.79456 0.70776 0.0
C913 C 0.1984 0.78752 0.74311 0.0
C914 C 0.17892 0.78804 0.73352 0.0
C915 C 0.12229 0.78469 0.70339 0.0
C916 C 0.1418 0.78665 0.71411 0.0
H917 H 0.22056 0.75601 0.76274 0.0
H918 H 0.18836 0.75763 0.74802 0.0
H919 H 0.19278 0.80088 0.71186 0.0
H920 H 0.09779 0.80989 0.67808 0.0
H921 H 0.12998 0.81348 0.69568 0.0
C922 C 0.97345 0.61085 0.49548 0.0
C923 C 0.96018 0.61315 0.48163 0.0
C924 C 0.98263 0.62727 0.50887 0.0
C925 C 0.99269 0.68269 0.52239 0.0
H926 H 0.98876 0.67161 0.57071 0.0
C927 C 0.00185 0.74478 0.58738 0.0
C928 C 0.01253 0.74189 0.60269 0.0
C929 C 0.99714 0.72956 0.57185 0.0
C930 C 0.99026 0.67494 0.55733 0.0
H931 H 0.94699 0.6345 0.47021 0.0
H932 H 0.96288 0.66335 0.4938 0.0
H933 H 0.97865 0.64448 0.5445 0.0
H934 H 0.02691 0.72082 0.61355 0.0
H935 H 0.01879 0.69439 0.58648 0.0
H936 H 0.00402 0.71332 0.53539 0.0
C937 C 0.96636 0.64887 0.49422 0.0
C938 C 0.9845 0.65936 0.54227 0.0
C939 C 0.95727 0.63239 0.48071 0.0
C940 C 0.01854 0.72351 0.60206 0.0
C941 C 0.01383 0.70832 0.58656 0.0
C942 C 0.99847 0.69834 0.53751 0.0
C943 C 0.97858 0.64635 0.50878 0.0
C944 C 0.98563 0.66302 0.52462 0.0
C945 C 0.00298 0.71112 0.57131 0.0
C946 C 0.99727 0.69461 0.55515 0.0
H947 H 0.97612 0.59617 0.49633 0.0
H948 H 0.99237 0.62491 0.51964 0.0
H949 H 0.99386 0.68597 0.50897 0.0
H950 H 0.99703 0.75877 0.58739 0.0
H951 H 0.98857 0.7321 0.56041 0.0
C952 C 0.80098 0.81998 0.25476 0.0
C953 C 0.81136 0.80892 0.24194 0.0
C954 C 0.80642 0.8409 0.25919 0.0
C955 C 0.84882 0.88268 0.25635 0.0
H956 H 0.8077 0.91519 0.26184 0.0
C957 C 0.86884 0.96546 0.25496 0.0
C958 C 0.86388 0.97846 0.27013 0.0
C959 C 0.86019 0.94511 0.25144 0.0
C960 C 0.81929 0.90624 0.26043 0.0
H961 H 0.83596 0.81114 0.22416 0.0
H962 H 0.84489 0.84733 0.23134 0.0
H963 H 0.79756 0.87865 0.25675 0.0
H964 H 0.84464 0.9805 0.29263 0.0
H965 H 0.82932 0.94478 0.28626 0.0
H966 H 0.87048 0.91012 0.25958 0.0
C967 C 0.83275 0.83999 0.23821 0.0
C968 C 0.81354 0.88537 0.25762 0.0
C969 C 0.82742 0.81919 0.23388 0.0
C970 C 0.84885 0.97088 0.28087 0.0
C971 C 0.84006 0.95045 0.27725 0.0
C972 C 0.85451 0.90341 0.25894 0.0
C973 C 0.82236 0.85114 0.25092 0.0
C974 C 0.82826 0.87334 0.25528 0.0
C975 C 0.84627 0.93731 0.26291 0.0
C976 C 0.83981 0.91538 0.26074 0.0
H977 H 0.78846 0.8125 0.26113 0.0
H978 H 0.79822 0.84903 0.26917 0.0
H979 H 0.86061 0.87396 0.25511 0.0
H980 H 0.88019 0.97078 0.24628 0.0
H981 H 0.86494 0.93532 0.24009 0.0
C982 C 0.81024 0.21961 0.30342 0.0
C983 C 0.7937 0.22 0.31426 0.0
C984 C 0.81874 0.20255 0.29953 0.0
C985 C 0.80909 0.14833 0.30089 0.0
H986 H 0.8678 0.15622 0.30371 0.0
C987 C 0.85176 0.08699 0.3119 0.0
C988 C 0.86798 0.08397 0.30118 0.0
C989 C 0.84254 0.10328 0.31161 0.0
C990 C 0.85139 0.15378 0.30265 0.0
H991 H 0.77258 0.20239 0.32883 0.0
H992 H 0.78776 0.173 0.3226 0.0
H993 H 0.85163 0.18509 0.30631 0.0
H994 H 0.88738 0.09579 0.28187 0.0
H995 H 0.87136 0.12455 0.28158 0.0
H996 H 0.80895 0.11705 0.29786 0.0
C997 C 0.79406 0.18574 0.31687 0.0
C998 C 0.84209 0.17031 0.30408 0.0
C999 C 0.7855 0.20272 0.32067 0.0
C1000 C 0.8749 0.09772 0.29027 0.0
C1001 C 0.86579 0.11419 0.29014 0.0
C1002 C 0.81839 0.13185 0.29963 0.0
C1003 C 0.81095 0.1855 0.30644 0.0
C1004 C 0.82082 0.16782 0.30347 0.0
C1005 C 0.84943 0.11705 0.30073 0.0
C1006 C 0.83963 0.13443 0.30074 0.0
H1007 H 0.81703 0.23269 0.29838 0.0
H1008 H 0.83155 0.20281 0.29124 0.0
H1009 H 0.79268 0.14578 0.29996 0.0
H1010 H 0.84605 0.07668 0.32045 0.0
H1011 H 0.83014 0.10525 0.3201 0.0
C1012 C 0.38204 0.04508 0.98782 0.0
C1013 C 0.39573 0.03868 0.97548 0.0
C1014 C 0.36882 0.03121 0.99516 0.0
C1015 C 0.36273 0.98298 0.00748 0.0
H1016 H 0.30493 0.98122 0.0019 0.0
C1017 C 0.30329 0.91991 0.0263 0.0
C1018 C 0.28468 0.92427 0.03184 0.0
C1019 C 0.31765 0.93436 0.02065 0.0
C1020 C 0.32102 0.98173 0.00397 0.0
H1021 H 0.40666 0.01304 0.96124 0.0
H1022 H 0.38373 0.98867 0.9745 0.0
H1023 H 0.32838 0.00549 0.98957 0.0
H1024 H 0.26698 0.94745 0.03699 0.0
H1025 H 0.29238 0.97298 0.02817 0.0
H1026 H 0.35561 0.95972 0.02238 0.0
C1027 C 0.38317 0.00439 0.97831 0.0
C1028 C 0.33441 0.99554 0.99674 0.0
C1029 C 0.39613 0.01823 0.97067 0.0
C1030 C 0.28112 0.94363 0.03257 0.0
C1031 C 0.29564 0.95819 0.02733 0.0
C1032 C 0.34937 0.96939 0.01505 0.0
C1033 C 0.36937 0.01079 0.99054 0.0
C1034 C 0.35533 0.9962 0.99834 0.0
C1035 C 0.31386 0.95361 0.02078 0.0
C1036 C 0.3283 0.96851 0.01333 0.0
H1037 H 0.38148 0.06079 0.99166 0.0
H1038 H 0.35831 0.03646 0.0046 0.0
H1039 H 0.37887 0.98339 0.009 0.0
H1040 H 0.30635 0.90504 0.02548 0.0
H1041 H 0.33135 0.93013 0.01552 0.0
C1042 C 0.28598 0.41067 0.3379 0.0
C1043 C 0.29764 0.40054 0.32567 0.0
C1044 C 0.26946 0.41754 0.33164 0.0
C1045 C 0.23333 0.41385 0.29262 0.0
H1046 H 0.23333 0.46887 0.31539 0.0
C1047 C 0.18093 0.46273 0.26745 0.0
C1048 C 0.17396 0.47632 0.28093 0.0
C1049 C 0.19457 0.45128 0.27214 0.0
C1050 C 0.23287 0.4534 0.30904 0.0
H1051 H 0.30043 0.38868 0.29729 0.0
H1052 H 0.27137 0.40082 0.28626 0.0
H1053 H 0.25949 0.45263 0.3249 0.0
H1054 H 0.17459 0.48752 0.3099 0.0
H1055 H 0.19776 0.46732 0.31806 0.0
H1056 H 0.20654 0.41478 0.27674 0.0
C1057 C 0.27509 0.40337 0.30073 0.0
C1058 C 0.24792 0.4441 0.31449 0.0
C1059 C 0.2917 0.39644 0.30703 0.0
C1060 C 0.17994 0.47741 0.29917 0.0
C1061 C 0.19333 0.4659 0.30384 0.0
C1062 C 0.21811 0.42319 0.28718 0.0
C1063 C 0.26417 0.41449 0.31298 0.0
C1064 C 0.24823 0.42416 0.30652 0.0
C1065 C 0.20134 0.45317 0.29038 0.0
C1066 C 0.21758 0.44302 0.29552 0.0
H1067 H 0.28988 0.41364 0.35237 0.0
H1068 H 0.26105 0.42564 0.34144 0.0
H1069 H 0.2332 0.39846 0.28624 0.0
H1070 H 0.17657 0.46158 0.25327 0.0
H1071 H 0.20047 0.44163 0.26143 0.0
C1072 C 0.13232 0.99266 0.4552 0.0
C1073 C 0.11374 0.99792 0.45977 0.0
C1074 C 0.15007 0.00727 0.4575 0.0
C1075 C 0.17346 0.05862 0.48082 0.0
H1076 H 0.20634 0.0575 0.43959 0.0
C1077 C 0.23932 0.12371 0.47707 0.0
C1078 C 0.25725 0.11862 0.47037 0.0
C1079 C 0.22161 0.10912 0.47561 0.0
C1080 C 0.19748 0.05791 0.45131 0.0
H1081 H 0.09931 0.0224 0.47112 0.0
H1082 H 0.13041 0.048 0.47516 0.0
H1083 H 0.17632 0.03137 0.43853 0.0
H1084 H 0.27054 0.09425 0.4566 0.0
H1085 H 0.2398 0.0688 0.45432 0.0
H1086 H 0.1947 0.08506 0.49369 0.0
C1087 C 0.13121 0.03257 0.46979 0.0
C1088 C 0.18029 0.04293 0.4507 0.0
C1089 C 0.11341 0.01796 0.46738 0.0
C1090 C 0.25697 0.09871 0.46182 0.0
C1091 C 0.2393 0.08411 0.46046 0.0
C1092 C 0.19074 0.07355 0.48148 0.0
C1093 C 0.14963 0.02742 0.4645 0.0
C1094 C 0.16811 0.04313 0.46544 0.0
C1095 C 0.22147 0.0891 0.46751 0.0
C1096 C 0.20295 0.07338 0.46672 0.0
H1097 H 0.133 0.97736 0.44914 0.0
H1098 H 0.16411 0.00286 0.45351 0.0
H1099 H 0.16443 0.05904 0.49244 0.0
H1100 H 0.23899 0.13894 0.48365 0.0
H1101 H 0.20804 0.11353 0.48088 0.0
C1102 C 0.80172 0.18013 0.76879 0.0
C1103 C 0.79831 0.19259 0.75689 0.0
C1104 C 0.78826 0.16206 0.76828 0.0
C1105 C 0.74829 0.12434 0.7392 0.0
H1106 H 0.7304 0.11187 0.78468 0.0
C1107 C 0.67756 0.06454 0.7428 0.0
C1108 C 0.67782 0.05274 0.75592 0.0
C1109 C 0.69365 0.08037 0.74248 0.0
C1110 C 0.73548 0.11493 0.77188 0.0
H1111 H 0.77836 0.19573 0.73491 0.0
H1112 H 0.75471 0.1642 0.73411 0.0
H1113 H 0.75593 0.14189 0.7849 0.0
H1114 H 0.69549 0.04803 0.77873 0.0
H1115 H 0.72375 0.07558 0.77803 0.0
H1116 H 0.72775 0.09747 0.72616 0.0
C1117 C 0.76787 0.16836 0.74375 0.0
C1118 C 0.75009 0.13216 0.772 0.0
C1119 C 0.78129 0.18649 0.74433 0.0
C1120 C 0.69476 0.05689 0.7685 0.0
C1121 C 0.71091 0.07273 0.76816 0.0
C1122 C 0.73374 0.10707 0.73907 0.0
C1123 C 0.77115 0.15602 0.7558 0.0
C1124 C 0.75646 0.13717 0.75566 0.0
C1125 C 0.71044 0.08476 0.75524 0.0
C1126 C 0.72698 0.1023 0.7554 0.0
H1127 H 0.8146 0.18453 0.77875 0.0
H1128 H 0.79126 0.15279 0.77764 0.0
H1129 H 0.75315 0.12765 0.72641 0.0
H1130 H 0.66474 0.06181 0.73291 0.0
H1131 H 0.69265 0.0895 0.73252 0.0
C1132 C 0.41789 0.01756 0.55705 0.0
C1133 C 0.42167 0.00176 0.54372 0.0
C1134 C 0.41241 0.03433 0.55214 0.0
C1135 C 0.41378 0.0616 0.51459 0.0
H1136 H 0.36793 0.08099 0.53591 0.0
C1137 C 0.36762 0.108 0.48092 0.0
C1138 C 0.35915 0.12267 0.49186 0.0
C1139 C 0.37825 0.09599 0.48872 0.0
C1140 C 0.38102 0.07605 0.53007 0.0
H1141 H 0.42309 0.99136 0.51485 0.0
H1142 H 0.41325 0.02041 0.50628 0.0
H1143 H 0.38054 0.05452 0.54689 0.0
H1144 H 0.35607 0.13691 0.51961 0.0
H1145 H 0.37485 0.116 0.53326 0.0
H1146 H 0.414 0.08283 0.49752 0.0
C1147 C 0.41466 0.01994 0.52053 0.0
C1148 C 0.38821 0.06084 0.53634 0.0
C1149 C 0.42003 0.00317 0.52542 0.0
C1150 C 0.36236 0.12569 0.5108 0.0
C1151 C 0.37299 0.11362 0.51862 0.0
C1152 C 0.40662 0.07683 0.50835 0.0
C1153 C 0.41075 0.03569 0.53382 0.0
C1154 C 0.4044 0.05315 0.52841 0.0
C1155 C 0.38068 0.09835 0.50766 0.0
C1156 C 0.38988 0.08394 0.51575 0.0
H1157 H 0.41895 0.01684 0.57126 0.0
H1158 H 0.40959 0.04628 0.5627 0.0
H1159 H 0.42653 0.05625 0.50845 0.0
H1160 H 0.36543 0.10528 0.46628 0.0
H1161 H 0.38377 0.08423 0.47986 0.0
C1162 C 0.60687 0.53164 0.59906 0.0
C1163 C 0.61767 0.55155 0.60344 0.0
C1164 C 0.61704 0.51585 0.59437 0.0
C1165 C 0.64142 0.48671 0.57467 0.0
H1166 H 0.69238 0.48826 0.60109 0.0
C1167 C 0.69785 0.43726 0.54798 0.0
C1168 C 0.70864 0.42963 0.56037 0.0
C1169 C 0.68505 0.45036 0.55402 0.0
C1170 C 0.67804 0.48746 0.59373 0.0
H1171 H 0.64765 0.57046 0.60637 0.0
H1172 H 0.6654 0.54291 0.5979 0.0
H1173 H 0.67366 0.51494 0.61011 0.0
H1174 H 0.71391 0.42924 0.5888 0.0
H1175 H 0.69141 0.4522 0.59939 0.0
H1176 H 0.64582 0.45926 0.55827 0.0
C1177 C 0.64906 0.53951 0.59827 0.0
C1178 C 0.66745 0.50289 0.59874 0.0
C1179 C 0.63887 0.55531 0.60289 0.0
C1180 C 0.70579 0.43486 0.57892 0.0
C1181 C 0.69304 0.44811 0.58499 0.0
C1182 C 0.65205 0.47133 0.56962 0.0
C1183 C 0.63827 0.51959 0.59403 0.0
C1184 C 0.64913 0.5028 0.58915 0.0
C1185 C 0.68276 0.45624 0.57261 0.0
C1186 C 0.67059 0.47164 0.57896 0.0
H1187 H 0.5905 0.52827 0.59921 0.0
H1188 H 0.6083 0.50068 0.59129 0.0
H1189 H 0.62742 0.48624 0.56694 0.0
H1190 H 0.69969 0.43353 0.53359 0.0
H1191 H 0.67754 0.4565 0.54414 0.0
C1192 C 0.78046 0.26522 0.37691 0.0
C1193 C 0.769 0.26883 0.36241 0.0
C1194 C 0.7761 0.27169 0.3948 0.0
C1195 C 0.73705 0.29123 0.42311 0.0
H1196 H 0.78338 0.31384 0.45788 0.0
C1197 C 0.73607 0.34652 0.49136 0.0
C1198 C 0.74846 0.34486 0.50617 0.0
C1199 C 0.73576 0.33381 0.47446 0.0
C1200 C 0.77025 0.30728 0.44843 0.0
H1201 H 0.74346 0.28154 0.35545 0.0
H1202 H 0.73649 0.29364 0.38661 0.0
H1203 H 0.78873 0.29867 0.42709 0.0
H1204 H 0.76883 0.32738 0.51521 0.0
H1205 H 0.76823 0.30531 0.48579 0.0
H1206 H 0.7187 0.30078 0.4445 0.0
C1207 C 0.74862 0.28545 0.38417 0.0
C1208 C 0.7733 0.29853 0.43073 0.0
C1209 C 0.75284 0.27879 0.36627 0.0
C1210 C 0.75929 0.32925 0.50406 0.0
C1211 C 0.75904 0.31664 0.48718 0.0
C1212 C 0.73401 0.30021 0.44082 0.0
C1213 C 0.76033 0.28217 0.39869 0.0
C1214 C 0.75678 0.29049 0.41778 0.0
C1215 C 0.74788 0.31927 0.47207 0.0
C1216 C 0.75061 0.3084 0.45363 0.0
H1217 H 0.79315 0.25779 0.37451 0.0
H1218 H 0.78524 0.26858 0.40559 0.0
H1219 H 0.72394 0.28493 0.41358 0.0
H1220 H 0.72748 0.35832 0.49252 0.0
H1221 H 0.72703 0.3362 0.46303 0.0
C1222 C 0.46276 0.06677 0.86926 0.0
C1223 C 0.45844 0.05826 0.88447 0.0
C1224 C 0.47925 0.06306 0.85935 0.0
C1225 C 0.51275 0.02658 0.84986 0.0
H1226 H 0.54455 0.06757 0.82851 0.0
C1227 C 0.58289 0.01434 0.81007 0.0
C1228 C 0.58406 0.02113 0.79369 0.0
C1229 C 0.5684 0.01924 0.82207 0.0
C1230 C 0.53572 0.05594 0.8343 0.0
H1231 H 0.46832 0.03939 0.90132 0.0
H1232 H 0.49742 0.03341 0.88435 0.0
H1233 H 0.51816 0.07593 0.84818 0.0
H1234 H 0.57086 0.03838 0.77709 0.0
H1235 H 0.54565 0.04686 0.79797 0.0
H1236 H 0.53035 0.0066 0.83592 0.0
C1237 C 0.48785 0.0427 0.87991 0.0
C1238 C 0.52058 0.06072 0.84555 0.0
C1239 C 0.47132 0.04635 0.88979 0.0
C1240 C 0.57042 0.03291 0.78959 0.0
C1241 C 0.55604 0.0379 0.80161 0.0
C1242 C 0.52797 0.02183 0.83868 0.0
C1243 C 0.49188 0.05082 0.86445 0.0
C1244 C 0.50876 0.04604 0.85331 0.0
C1245 C 0.55488 0.03115 0.81798 0.0
C1246 C 0.53945 0.03641 0.83061 0.0
H1247 H 0.45329 0.0762 0.86491 0.0
H1248 H 0.48177 0.06941 0.84741 0.0
H1249 H 0.50374 0.01484 0.85539 0.0
H1250 H 0.59318 0.00525 0.81366 0.0
H1251 H 0.56794 0.01393 0.83465 0.0
C1252 C 0.34358 0.28664 0.343 0.0
C1253 C 0.34655 0.30748 0.34932 0.0
C1254 C 0.34196 0.27373 0.35517 0.0
C1255 C 0.32787 0.26959 0.40069 0.0
H1256 H 0.36034 0.2287 0.39633 0.0
C1257 C 0.32813 0.22097 0.45419 0.0
C1258 C 0.32867 0.20068 0.44811 0.0
C1259 C 0.33154 0.23431 0.44246 0.0
C1260 C 0.35094 0.23983 0.39762 0.0
H1261 H 0.35034 0.33097 0.37356 0.0
H1262 H 0.34676 0.30835 0.39467 0.0
H1263 H 0.36314 0.25101 0.37489 0.0
H1264 H 0.33347 0.1785 0.42502 0.0
H1265 H 0.33874 0.20156 0.40439 0.0
H1266 H 0.31513 0.25818 0.42297 0.0
C1267 C 0.34571 0.30209 0.38027 0.0
C1268 C 0.35262 0.25265 0.38536 0.0
C1269 C 0.34762 0.31503 0.36813 0.0
C1270 C 0.33309 0.19408 0.43015 0.0
C1271 C 0.3362 0.20736 0.41833 0.0
C1272 C 0.32596 0.25661 0.41278 0.0
C1273 C 0.34297 0.28134 0.37391 0.0
C1274 C 0.34114 0.26767 0.38682 0.0
C1275 C 0.33525 0.22762 0.42427 0.0
C1276 C 0.33752 0.24158 0.41146 0.0
H1277 H 0.34235 0.28025 0.32862 0.0
H1278 H 0.33961 0.25776 0.34991 0.0
H1279 H 0.31866 0.28091 0.40197 0.0
H1280 H 0.32496 0.22657 0.46801 0.0
H1281 H 0.33117 0.24987 0.44768 0.0
C1282 C 0.53757 0.46619 0.92682 0.0
C1283 C 0.55796 0.46849 0.92272 0.0
C1284 C 0.52357 0.47274 0.91645 0.0
C1285 C 0.51455 0.48446 0.87188 0.0
H1286 H 0.48112 0.51961 0.89618 0.0
C1287 C 0.47048 0.52645 0.83163 0.0
C1288 C 0.45053 0.5274 0.83592 0.0
C1289 C 0.48341 0.52008 0.8431 0.0
C1290 C 0.49015 0.50962 0.88918 0.0
H1291 H 0.57961 0.47871 0.90433 0.0
H1292 H 0.55516 0.48989 0.8861 0.0
H1293 H 0.50314 0.50523 0.9141 0.0
H1294 H 0.42872 0.52321 0.85599 0.0
H1295 H 0.45116 0.51166 0.87587 0.0
H1296 H 0.50154 0.48849 0.847 0.0
C1297 C 0.54999 0.48316 0.89733 0.0
C1298 C 0.50274 0.50138 0.89945 0.0
C1299 C 0.56399 0.47687 0.9078 0.0
C1300 C 0.44406 0.52272 0.85235 0.0
C1301 C 0.45694 0.51611 0.86376 0.0
C1302 C 0.50188 0.49251 0.86163 0.0
C1303 C 0.5297 0.48137 0.90166 0.0
C1304 C 0.51523 0.48893 0.89088 0.0
C1305 C 0.47661 0.51425 0.85903 0.0
C1306 C 0.48972 0.50542 0.87014 0.0
H1307 H 0.53263 0.45984 0.93832 0.0
H1308 H 0.50797 0.47108 0.91998 0.0
H1309 H 0.52382 0.47467 0.86493 0.0
H1310 H 0.476 0.53018 0.81916 0.0
H1311 H 0.49865 0.51938 0.83929 0.0
C1312 C 0.81156 0.7316 0.18831 0.0
C1313 C 0.80101 0.74715 0.19343 0.0
C1314 C 0.81352 0.72411 0.16999 0.0
C1315 C 0.81133 0.7387 0.12549 0.0
H1316 H 0.80759 0.68219 0.10588 0.0
C1317 C 0.801 0.70538 0.04908 0.0
C1318 C 0.81214 0.69083 0.04211 0.0
C1319 C 0.80119 0.71232 0.06774 0.0
C1320 C 0.80894 0.69804 0.11123 0.0
H1321 H 0.78331 0.76631 0.18345 0.0
H1322 H 0.7864 0.75306 0.15154 0.0
H1323 H 0.80409 0.69358 0.13817 0.0
H1324 H 0.8324 0.67227 0.04922 0.0
H1325 H 0.83265 0.68442 0.08197 0.0
H1326 H 0.81581 0.74313 0.09853 0.0
C1327 C 0.79369 0.74702 0.16163 0.0
C1328 C 0.80692 0.70456 0.12971 0.0
C1329 C 0.79182 0.75455 0.17989 0.0
C1330 C 0.82369 0.68352 0.0542 0.0
C1331 C 0.82374 0.69037 0.07293 0.0
C1332 C 0.81325 0.73217 0.10705 0.0
C1333 C 0.80488 0.73198 0.15645 0.0
C1334 C 0.80782 0.72495 0.137 0.0
C1335 C 0.81242 0.70479 0.07987 0.0
C1336 C 0.81183 0.71176 0.09968 0.0
H1337 H 0.81892 0.72574 0.19849 0.0
H1338 H 0.82235 0.71261 0.16646 0.0
H1339 H 0.81261 0.75456 0.13073 0.0
H1340 H 0.79194 0.71131 0.04013 0.0
H1341 H 0.79213 0.72327 0.07268 0.0
C1342 C 0.03517 0.0615 0.12835 0.0
C1343 C 0.05004 0.07897 0.12959 0.0
C1344 C 0.02049 0.06044 0.1409 0.0
C1345 C 0.01054 0.08397 0.18726 0.0
H1346 H 0.95728 0.05028 0.1732 0.0
C1347 C 0.94889 0.06871 0.23797 0.0
C1348 C 0.9428 0.04815 0.23757 0.0
C1349 C 0.96022 0.07528 0.22428 0.0
C1350 C 0.97205 0.05986 0.17728 0.0
H1351 H 0.06079 0.10925 0.14496 0.0
H1352 H 0.03468 0.10766 0.16648 0.0
H1353 H 0.98031 0.05708 0.14996 0.0
H1354 H 0.94307 0.01837 0.22228 0.0
H1355 H 0.96227 0.02982 0.19825 0.0
H1356 H 0.00208 0.0866 0.21465 0.0
C1357 C 0.03465 0.09459 0.15598 0.0
C1358 C 0.98533 0.06364 0.16401 0.0
C1359 C 0.04949 0.09559 0.14348 0.0
C1360 C 0.94763 0.03432 0.22299 0.0
C1361 C 0.9585 0.04085 0.20918 0.0
C1362 C 0.9971 0.08041 0.20053 0.0
C1363 C 0.02006 0.07693 0.15496 0.0
C1364 C 0.005 0.07521 0.16886 0.0
C1365 C 0.96513 0.06136 0.20979 0.0
C1366 C 0.97798 0.06784 0.19568 0.0
H1367 H 0.0349 0.04851 0.11767 0.0
H1368 H 0.00976 0.04646 0.1398 0.0
H1369 H 0.02559 0.0928 0.19156 0.0
H1370 H 0.94542 0.07967 0.2491 0.0
H1371 H 0.96519 0.09118 0.22502 0.0
C1372 C 0.31374 0.79351 0.19912 0.0
C1373 C 0.3088 0.80208 0.21643 0.0
C1374 C 0.30543 0.79819 0.18363 0.0
C1375 C 0.2821 0.83728 0.1692 0.0
H1376 H 0.26985 0.79838 0.12388 0.0
C1377 C 0.2497 0.85574 0.10359 0.0
C1378 C 0.2596 0.84976 0.08798 0.0
C1379 C 0.25348 0.84903 0.11949 0.0
C1380 C 0.27326 0.80942 0.13644 0.0
H1381 H 0.29058 0.82153 0.23103 0.0
H1382 H 0.2758 0.82944 0.20402 0.0
H1383 H 0.28018 0.78795 0.15125 0.0
H1384 H 0.28094 0.83177 0.07671 0.0
H1385 H 0.28743 0.82008 0.1043 0.0
H1386 H 0.27523 0.85875 0.1543 0.0
C1387 C 0.28649 0.81951 0.2024 0.0
C1388 C 0.27924 0.80347 0.15212 0.0
C1389 C 0.2949 0.81494 0.21788 0.0
C1390 C 0.27307 0.83669 0.0885 0.0
C1391 C 0.27669 0.82986 0.10428 0.0
C1392 C 0.27597 0.84319 0.15354 0.0
C1393 C 0.29187 0.81143 0.18508 0.0
C1394 C 0.28405 0.81739 0.16866 0.0
C1395 C 0.26706 0.83604 0.11999 0.0
C1396 C 0.2718 0.8294 0.13693 0.0
H1397 H 0.32458 0.78374 0.19758 0.0
H1398 H 0.31018 0.79191 0.17056 0.0
H1399 H 0.28595 0.8485 0.18161 0.0
H1400 H 0.23924 0.8658 0.10361 0.0
H1401 H 0.24575 0.85395 0.13137 0.0
C1402 C 0.96548 0.45192 0.09234 0.0
C1403 C 0.96538 0.46522 0.08049 0.0
C1404 C 0.98173 0.45471 0.10529 0.0
C1405 C 0.02088 0.49429 0.13175 0.0
H1406 H 0.04768 0.45188 0.14021 0.0
C1407 C 0.09062 0.51285 0.18138 0.0
C1408 C 0.09188 0.50008 0.19345 0.0
C1409 C 0.07676 0.50687 0.16625 0.0
C1410 C 0.04022 0.46383 0.13813 0.0
H1411 H 0.98275 0.49136 0.07248 0.0
H1412 H 0.01073 0.4965 0.09536 0.0
H1413 H 0.01977 0.4446 0.1166 0.0
H1414 H 0.08045 0.47068 0.1988 0.0
H1415 H 0.05552 0.46035 0.17255 0.0
H1416 H 0.04061 0.51343 0.15344 0.0
C1417 C 0.99815 0.48402 0.0947 0.0
C1418 C 0.02429 0.45966 0.12461 0.0
C1419 C 0.98206 0.48114 0.08168 0.0
C1420 C 0.07978 0.48075 0.18961 0.0
C1421 C 0.06555 0.47486 0.17458 0.0
C1422 C 0.03657 0.4984 0.14532 0.0
C1423 C 0.99807 0.47096 0.10673 0.0
C1424 C 0.01463 0.47493 0.12121 0.0
C1425 C 0.06345 0.48814 0.16305 0.0
C1426 C 0.04663 0.48331 0.14857 0.0
H1427 H 0.95281 0.4396 0.09189 0.0
H1428 H 0.98124 0.44453 0.11451 0.0
H1429 H 0.01342 0.50625 0.12967 0.0
H1430 H 0.10001 0.52774 0.18391 0.0
H1431 H 0.07606 0.51723 0.15735 0.0
C1432 C 0.37134 0.71766 0.28286 0.0
C1433 C 0.37264 0.72979 0.26988 0.0
C1434 C 0.38878 0.71443 0.29131 0.0
C1435 C 0.44436 0.71881 0.28838 0.0
H1436 H 0.44295 0.71718 0.33941 0.0
C1437 C 0.51479 0.72806 0.33825 0.0
C1438 C 0.51291 0.71682 0.35193 0.0
C1439 C 0.49837 0.72663 0.32587 0.0
C1440 C 0.44349 0.71725 0.32509 0.0
H1441 H 0.39351 0.74805 0.25567 0.0
H1442 H 0.42414 0.74307 0.27106 0.0
H1443 H 0.41318 0.72191 0.32306 0.0
H1444 H 0.49285 0.694 0.36233 0.0
H1445 H 0.46422 0.69154 0.3407 0.0
H1446 H 0.47514 0.71489 0.29082 0.0
C1447 C 0.4095 0.73565 0.27432 0.0
C1448 C 0.4264 0.71998 0.31568 0.0
C1449 C 0.39195 0.73873 0.26568 0.0
C1450 C 0.49479 0.70297 0.35206 0.0
C1451 C 0.47833 0.70165 0.33975 0.0
C1452 C 0.4616 0.71627 0.29789 0.0
C1453 C 0.4081 0.72353 0.28733 0.0
C1454 C 0.42655 0.72074 0.29719 0.0
C1455 C 0.47973 0.71401 0.32698 0.0
C1456 C 0.46129 0.71542 0.31635 0.0
H1457 H 0.35677 0.71083 0.28677 0.0
H1458 H 0.38705 0.70475 0.30101 0.0
H1459 H 0.44494 0.71909 0.27411 0.0
H1460 H 0.52859 0.73878 0.33769 0.0
H1461 H 0.49989 0.73636 0.3162 0.0
C1462 C 0.92846 0.35569 0.00522 0.0
C1463 C 0.93243 0.37637 0.00573 0.0
C1464 C 0.94147 0.34376 0.99701 0.0
C1465 C 0.97988 0.34266 0.96343 0.0
H1466 H 0.99351 0.3 0.98476 0.0
C1467 C 0.03523 0.29482 0.93122 0.0
C1468 C 0.02856 0.27404 0.92918 0.0
C1469 C 0.02549 0.30808 0.94235 0.0
C1470 C 0.98977 0.31181 0.97861 0.0
H1471 H 0.95303 0.40069 0.9978 0.0
H1472 H 0.97589 0.37998 0.98382 0.0
H1473 H 0.97212 0.32153 0.0004 0.0
H1474 H 0.00709 0.25096 0.93798 0.0
H1475 H 0.99009 0.27406 0.95724 0.0
H1476 H 0.99727 0.33282 0.94153 0.0
C1477 C 0.96266 0.37294 0.98965 0.0
C1478 C 0.97748 0.3241 0.98753 0.0
C1479 C 0.94967 0.38484 0.99784 0.0
C1480 C 0.01259 0.26687 0.93919 0.0
C1481 C 0.0029 0.28012 0.95033 0.0
C1482 C 0.99217 0.3304 0.95452 0.0
C1483 C 0.95869 0.35226 0.9891 0.0
C1484 C 0.97227 0.33956 0.97997 0.0
C1485 C 0.00894 0.30086 0.95172 0.0
C1486 C 0.99712 0.31473 0.96193 0.0
H1487 H 0.91539 0.34874 0.01131 0.0
H1488 H 0.93786 0.32783 0.99663 0.0
H1489 H 0.97591 0.35424 0.95709 0.0
H1490 H 0.04755 0.30085 0.92377 0.0
H1491 H 0.03069 0.32401 0.94337 0.0
C1492 C 0.75649 0.73378 0.31371 0.0
C1493 C 0.75552 0.73855 0.29643 0.0
C1494 C 0.74149 0.73712 0.32562 0.0
C1495 C 0.70265 0.76669 0.3368 0.0
H1496 H 0.67348 0.72089 0.3537 0.0
C1497 C 0.62407 0.76563 0.36418 0.0
C1498 C 0.61787 0.75406 0.37705 0.0
C1499 C 0.64272 0.76533 0.35676 0.0
C1500 C 0.6817 0.734 0.34951 0.0
H1501 H 0.73783 0.75077 0.27835 0.0
H1502 H 0.71224 0.75732 0.29945 0.0
H1503 H 0.70304 0.71773 0.33648 0.0
H1504 H 0.62675 0.73381 0.39287 0.0
H1505 H 0.65973 0.73388 0.38045 0.0
H1506 H 0.68163 0.78312 0.34992 0.0
C1507 C 0.72466 0.75095 0.30367 0.0
C1508 C 0.69858 0.73211 0.33955 0.0
C1509 C 0.73942 0.74727 0.29162 0.0
C1510 C 0.63107 0.74277 0.38287 0.0
C1511 C 0.64991 0.74271 0.37564 0.0
C1512 C 0.686 0.7687 0.34703 0.0
C1513 C 0.72542 0.74568 0.32067 0.0
C1514 C 0.70892 0.74832 0.33279 0.0
C1515 C 0.65583 0.7537 0.36222 0.0
C1516 C 0.67497 0.75224 0.35315 0.0
H1517 H 0.76884 0.72743 0.31807 0.0
H1518 H 0.74246 0.73307 0.33873 0.0
H1519 H 0.71056 0.77947 0.33189 0.0
H1520 H 0.61419 0.77438 0.35931 0.0
H1521 H 0.64646 0.7737 0.34624 0.0
C1522 C 0.11592 0.1457 0.0393 0.0
C1523 C 0.09998 0.13538 0.04747 0.0
C1524 C 0.11302 0.14856 0.02164 0.0
C1525 C 0.07748 0.13285 0.97993 0.0
H1526 H 0.099 0.18669 0.97369 0.0
C1527 C 0.04488 0.16951 0.92615 0.0
C1528 C 0.05815 0.18338 0.91862 0.0
C1529 C 0.05214 0.16043 0.93932 0.0
C1530 C 0.0932 0.17146 0.97502 0.0
H1531 H 0.06871 0.11942 0.04334 0.0
H1532 H 0.06349 0.12467 0.01264 0.0
H1533 H 0.10771 0.17686 0.00165 0.0
H1534 H 0.08969 0.19751 0.91807 0.0
H1535 H 0.10238 0.18154 0.94097 0.0
H1536 H 0.06232 0.12781 0.95346 0.0
C1537 C 0.07837 0.13026 0.01971 0.0
C1538 C 0.09821 0.16579 0.9911 0.0
C1539 C 0.08133 0.12727 0.03734 0.0
C1540 C 0.07903 0.18698 0.92368 0.0
C1541 C 0.08629 0.17794 0.93689 0.0
C1542 C 0.07239 0.13856 0.96384 0.0
C1543 C 0.09405 0.14131 0.01178 0.0
C1544 C 0.09018 0.14652 0.9939 0.0
C1545 C 0.07285 0.16504 0.94527 0.0
C1546 C 0.07995 0.15804 0.96132 0.0
H1547 H 0.13056 0.15184 0.04669 0.0
H1548 H 0.12556 0.15676 0.01583 0.0
H1549 H 0.07128 0.11779 0.9815 0.0
H1550 H 0.02871 0.16637 0.92253 0.0
H1551 H 0.04135 0.15068 0.94556 0.0
C1552 C 0.38891 0.34236 0.28817 0.0
C1553 C 0.37558 0.32659 0.29333 0.0
C1554 C 0.40188 0.33852 0.27443 0.0
C1555 C 0.41198 0.29814 0.23721 0.0
H1556 H 0.4658 0.33169 0.24302 0.0
C1557 C 0.47977 0.2769 0.19816 0.0
C1558 C 0.48958 0.29126 0.18892 0.0
C1559 C 0.46543 0.28157 0.21038 0.0
C1560 C 0.45077 0.3223 0.2412 0.0
H1561 H 0.365 0.29436 0.28741 0.0
H1562 H 0.38834 0.2876 0.26436 0.0
H1563 H 0.44131 0.33907 0.26507 0.0
H1564 H 0.4924 0.32188 0.18551 0.0
H1565 H 0.46775 0.33019 0.20736 0.0
H1566 H 0.42202 0.28088 0.21373 0.0
C1567 C 0.38851 0.30303 0.27058 0.0
C1568 C 0.43663 0.32658 0.25375 0.0
C1569 C 0.37529 0.3069 0.28408 0.0
C1570 C 0.48505 0.31049 0.1924 0.0
C1571 C 0.47101 0.31527 0.20491 0.0
C1572 C 0.42627 0.29365 0.22489 0.0
C1573 C 0.40215 0.31877 0.26567 0.0
C1574 C 0.41702 0.31454 0.25195 0.0
C1575 C 0.46095 0.30079 0.21386 0.0
C1576 C 0.44577 0.30568 0.22679 0.0
H1577 H 0.38981 0.35772 0.29506 0.0
H1578 H 0.41182 0.35109 0.27082 0.0
H1579 H 0.39696 0.28875 0.2351 0.0
H1580 H 0.48288 0.26193 0.1957 0.0
H1581 H 0.45793 0.2702 0.21723 0.0
C1582 C 0.57302 0.4043 0.00631 0.0
C1583 C 0.58375 0.39381 0.99341 0.0
C1584 C 0.57175 0.40005 0.02362 0.0
C1585 C 0.59354 0.37556 0.05669 0.0
H1586 H 0.53812 0.36364 0.06986 0.0
C1587 C 0.56816 0.32753 0.10953 0.0
C1588 C 0.55059 0.33021 0.11834 0.0
C1589 C 0.57506 0.33912 0.09692 0.0
C1590 C 0.55378 0.36736 0.06676 0.0
H1591 H 0.60252 0.37148 0.98885 0.0
H1592 H 0.60022 0.36399 0.01916 0.0
H1593 H 0.54518 0.37709 0.04297 0.0
H1594 H 0.52762 0.34827 0.1224 0.0
H1595 H 0.54026 0.36925 0.10131 0.0
H1596 H 0.60213 0.36568 0.08049 0.0
C1597 C 0.59283 0.3755 0.01585 0.0
C1598 C 0.55779 0.37501 0.05122 0.0
C1599 C 0.59396 0.37964 0.99846 0.0
C1600 C 0.54107 0.34575 0.11558 0.0
C1601 C 0.54822 0.35763 0.10334 0.0
C1602 C 0.58956 0.36811 0.07244 0.0
C1603 C 0.58129 0.38532 0.02844 0.0
C1604 C 0.57765 0.37893 0.04587 0.0
C1605 C 0.5647 0.35384 0.09318 0.0
C1606 C 0.56956 0.36365 0.07754 0.0
H1607 H 0.56489 0.41521 0.00279 0.0
H1608 H 0.56287 0.40794 0.03311 0.0
H1609 H 0.60902 0.37858 0.05292 0.0
H1610 H 0.57569 0.31554 0.11138 0.0
H1611 H 0.58772 0.33565 0.08934 0.0
C1612 C 0.71957 0.27628 0.26708 0.0
C1613 C 0.73828 0.28654 0.26274 0.0
C1614 C 0.70216 0.27301 0.2554 0.0
C1615 C 0.67876 0.29411 0.2218 0.0
H1616 H 0.64287 0.24206 0.209 0.0
C1617 C 0.60417 0.28094 0.17646 0.0
C1618 C 0.58737 0.26794 0.18098 0.0
C1619 C 0.62348 0.28256 0.18484 0.0
C1620 C 0.65257 0.25677 0.21261 0.0
H1621 H 0.75324 0.30088 0.2423 0.0
H1622 H 0.72256 0.29576 0.22227 0.0
H1623 H 0.6749 0.24591 0.22669 0.0
H1624 H 0.57757 0.24665 0.19797 0.0
H1625 H 0.61087 0.24999 0.21298 0.0
H1626 H 0.65615 0.30526 0.20848 0.0
C1627 C 0.72155 0.29025 0.23475 0.0
C1628 C 0.67097 0.2589 0.22265 0.0
C1629 C 0.73908 0.29325 0.24629 0.0
C1630 C 0.59024 0.25668 0.19406 0.0
C1631 C 0.60943 0.25849 0.20258 0.0
C1632 C 0.66019 0.29206 0.21198 0.0
C1633 C 0.70293 0.28016 0.23924 0.0
C1634 C 0.68413 0.27763 0.22749 0.0
C1635 C 0.62635 0.27139 0.19806 0.0
C1636 C 0.64672 0.27339 0.20745 0.0
H1637 H 0.71816 0.27127 0.27977 0.0
H1638 H 0.68791 0.2654 0.25929 0.0
H1639 H 0.68858 0.30876 0.22552 0.0
H1640 H 0.60244 0.28973 0.16635 0.0
H1641 H 0.63617 0.29245 0.18081 0.0
C1642 C 0.44877 0.12063 0.98414 0.0
C1643 C 0.44886 0.10084 0.98564 0.0
C1644 C 0.45837 0.13662 0.99788 0.0
C1645 C 0.47334 0.14689 0.04674 0.0
H1646 H 0.5008 0.1985 0.03899 0.0
C1647 C 0.51237 0.20984 0.10582 0.0
C1648 C 0.50928 0.22922 0.10564 0.0
C1649 C 0.50628 0.19438 0.09067 0.0
C1650 C 0.49302 0.1842 0.04134 0.0
H1651 H 0.46027 0.08224 0.00185 0.0
H1652 H 0.47738 0.11009 0.02562 0.0
H1653 H 0.48886 0.17111 0.01295 0.0
H1654 H 0.49747 0.24757 0.0893 0.0
H1655 H 0.48668 0.2205 0.06292 0.0
H1656 H 0.47731 0.15992 0.07505 0.0
C1657 C 0.46942 0.1133 0.01416 0.0
C1658 C 0.48621 0.16852 0.02644 0.0
C1659 C 0.45973 0.09737 0.00052 0.0
C1660 C 0.50005 0.23281 0.08992 0.0
C1661 C 0.49401 0.21734 0.07474 0.0
C1662 C 0.48016 0.16251 0.06159 0.0
C1663 C 0.46832 0.13307 0.0133 0.0
C1664 C 0.47627 0.14968 0.02898 0.0
C1665 C 0.49699 0.19794 0.07497 0.0
C1666 C 0.49005 0.18134 0.05908 0.0
H1667 H 0.44036 0.12368 0.97285 0.0
H1668 H 0.45714 0.15165 0.99684 0.0
H1669 H 0.46532 0.13272 0.04919 0.0
H1670 H 0.51953 0.20656 0.11766 0.0
H1671 H 0.50901 0.17965 0.0912 0.0
C1672 C 0.30019 0.32271 0.75449 0.0
C1673 C 0.30943 0.31121 0.74102 0.0
C1674 C 0.3062 0.3436 0.7587 0.0
C1675 C 0.34938 0.38381 0.75457 0.0
H1676 H 0.31066 0.41869 0.76375 0.0
C1677 C 0.37426 0.46764 0.75919 0.0
C1678 C 0.36928 0.47992 0.77481 0.0
C1679 C 0.36471 0.44754 0.75428 0.0
C1680 C 0.3216 0.40908 0.76128 0.0
H1681 H 0.33249 0.31264 0.72166 0.0
H1682 H 0.34239 0.34878 0.72851 0.0
H1683 H 0.29868 0.38231 0.75736 0.0
H1684 H 0.34923 0.48107 0.79673 0.0
H1685 H 0.33252 0.44584 0.78806 0.0
H1686 H 0.37225 0.41041 0.75831 0.0
C1687 C 0.3307 0.34178 0.73602 0.0
C1688 C 0.31479 0.38829 0.75771 0.0
C1689 C 0.32479 0.32102 0.7319 0.0
C1690 C 0.35348 0.47199 0.78466 0.0
C1691 C 0.34387 0.45184 0.77969 0.0
C1692 C 0.35613 0.40448 0.75798 0.0
C1693 C 0.32161 0.35334 0.74955 0.0
C1694 C 0.32862 0.37543 0.75414 0.0
C1695 C 0.34994 0.43927 0.76483 0.0
C1696 C 0.34233 0.41734 0.7612 0.0
H1697 H 0.28822 0.31561 0.76167 0.0
H1698 H 0.29901 0.35207 0.76929 0.0
H1699 H 0.36051 0.37438 0.75235 0.0
H1700 H 0.38618 0.47328 0.75117 0.0
H1701 H 0.36938 0.43828 0.74253 0.0
C1702 C 0.28892 0.70053 0.82257 0.0
C1703 C 0.29721 0.71761 0.81593 0.0
C1704 C 0.29883 0.68446 0.82107 0.0
C1705 C 0.34902 0.6709 0.8136 0.0
H1706 H 0.31706 0.61691 0.80509 0.0
C1707 C 0.3833 0.59901 0.80066 0.0
C1708 C 0.3756 0.58468 0.81079 0.0
C1709 C 0.37438 0.61562 0.80068 0.0
C1710 C 0.32617 0.63192 0.80755 0.0
H1711 H 0.32252 0.73109 0.80245 0.0
H1712 H 0.33942 0.70272 0.79921 0.0
H1713 H 0.3001 0.64494 0.80566 0.0
H1714 H 0.35264 0.57662 0.82898 0.0
H1715 H 0.33703 0.60542 0.82882 0.0
H1716 H 0.37512 0.65762 0.81522 0.0
C1717 C 0.32543 0.70192 0.80591 0.0
C1718 C 0.31646 0.64801 0.80796 0.0
C1719 C 0.31558 0.71809 0.80755 0.0
C1720 C 0.35894 0.58737 0.82102 0.0
C1721 C 0.34991 0.6038 0.82086 0.0
C1722 C 0.35875 0.65474 0.81299 0.0
C1723 C 0.3172 0.68491 0.8127 0.0
C1724 C 0.32772 0.66774 0.81126 0.0
C1725 C 0.35744 0.61802 0.81061 0.0
C1726 C 0.34738 0.63513 0.81022 0.0
H1727 H 0.27466 0.69949 0.82887 0.0
H1728 H 0.29216 0.67177 0.82671 0.0
H1729 H 0.35817 0.68588 0.81639 0.0
H1730 H 0.39614 0.59735 0.79266 0.0
H1731 H 0.38044 0.62635 0.79262 0.0
C1732 C 0.8987 0.55413 0.4889 0.0
C1733 C 0.91177 0.54845 0.4757 0.0
C1734 C 0.88793 0.54004 0.49769 0.0
C1735 C 0.87162 0.48515 0.49419 0.0
H1736 H 0.85913 0.50213 0.54393 0.0
C1737 C 0.83014 0.43082 0.53633 0.0
C1738 C 0.81168 0.4358 0.54168 0.0
C1739 C 0.84458 0.44456 0.52991 0.0
C1740 C 0.86264 0.49722 0.53007 0.0
H1741 H 0.92412 0.52385 0.46133 0.0
H1742 H 0.90594 0.49923 0.47718 0.0
H1743 H 0.88034 0.52586 0.52914 0.0
H1744 H 0.79426 0.4593 0.54552 0.0
H1745 H 0.81984 0.48353 0.53488 0.0
H1746 H 0.85414 0.45635 0.49544 0.0
C1747 C 0.90346 0.5144 0.48043 0.0
C1748 C 0.87459 0.51082 0.5215 0.0
C1749 C 0.91394 0.52846 0.47138 0.0
C1750 C 0.80836 0.45508 0.54142 0.0
C1751 C 0.82298 0.46894 0.53541 0.0
C1752 C 0.86001 0.47146 0.50292 0.0
C1753 C 0.89031 0.52001 0.49373 0.0
C1754 C 0.87889 0.50509 0.5033 0.0
C1755 C 0.84097 0.46362 0.5292 0.0
C1756 C 0.85513 0.4775 0.5208 0.0
H1757 H 0.89671 0.56948 0.49231 0.0
H1758 H 0.87758 0.54488 0.50746 0.0
H1759 H 0.8743 0.48021 0.48013 0.0
H1760 H 0.83302 0.41602 0.53629 0.0
H1761 H 0.85841 0.4402 0.52519 0.0
C1762 C 0.78505 0.90182 0.80249 0.0
C1763 C 0.78403 0.88309 0.80711 0.0
C1764 C 0.76858 0.90586 0.79314 0.0
C1765 C 0.73339 0.90911 0.76837 0.0
H1766 H 0.68372 0.89801 0.7923 0.0
C1767 C 0.66523 0.94489 0.75504 0.0
C1768 C 0.65953 0.95557 0.77121 0.0
C1769 C 0.67739 0.93072 0.75555 0.0
C1770 C 0.69739 0.90099 0.78531 0.0
H1771 H 0.76542 0.85356 0.80487 0.0
H1772 H 0.73638 0.86069 0.78859 0.0
H1773 H 0.71232 0.88314 0.79929 0.0
H1774 H 0.66082 0.95882 0.80042 0.0
H1775 H 0.68169 0.93404 0.80129 0.0
H1776 H 0.71885 0.92789 0.75518 0.0
C1777 C 0.74997 0.87222 0.7922 0.0
C1778 C 0.71372 0.89235 0.7892 0.0
C1779 C 0.7666 0.8681 0.8014 0.0
C1780 C 0.66506 0.95089 0.78774 0.0
C1781 C 0.6769 0.93657 0.78822 0.0
C1782 C 0.71701 0.91763 0.76438 0.0
C1783 C 0.75063 0.8913 0.78835 0.0
C1784 C 0.73216 0.89695 0.7813 0.0
C1785 C 0.68371 0.92675 0.7722 0.0
C1786 C 0.69913 0.91429 0.77335 0.0
H1787 H 0.79838 0.91358 0.80665 0.0
H1788 H 0.76951 0.92077 0.79056 0.0
H1789 H 0.74735 0.91274 0.76194 0.0
H1790 H 0.66122 0.94824 0.74211 0.0
H1791 H 0.68235 0.9233 0.74298 0.0
C1792 C 0.62483 0.50739 0.96482 0.0
C1793 C 0.62537 0.4874 0.95727 0.0
C1794 C 0.64263 0.52199 0.96794 0.0
C1795 C 0.69226 0.53288 0.95034 0.0
H1796 H 0.70426 0.57569 0.99299 0.0
C1797 C 0.76615 0.59289 0.96152 0.0
C1798 C 0.76501 0.61255 0.96979 0.0
C1799 C 0.74936 0.5773 0.9602 0.0
C1800 C 0.70099 0.56398 0.98089 0.0
H1801 H 0.64493 0.4668 0.94766 0.0
H1802 H 0.67617 0.49239 0.95316 0.0
H1803 H 0.67495 0.54859 0.99154 0.0
H1804 H 0.7451 0.63136 0.98257 0.0
H1805 H 0.71565 0.60424 0.97983 0.0
H1806 H 0.71794 0.54842 0.93947 0.0
C1807 C 0.66194 0.49674 0.95657 0.0
C1808 C 0.68428 0.54841 0.98012 0.0
C1809 C 0.64414 0.4821 0.9536 0.0
C1810 C 0.74652 0.61637 0.97621 0.0
C1811 C 0.72968 0.60079 0.97479 0.0
C1812 C 0.70888 0.54851 0.95105 0.0
C1813 C 0.66129 0.51689 0.96343 0.0
C1814 C 0.6797 0.53276 0.96481 0.0
C1815 C 0.73099 0.58102 0.96702 0.0
C1816 C 0.71339 0.56431 0.96629 0.0
H1817 H 0.61054 0.51182 0.96785 0.0
H1818 H 0.64165 0.5374 0.97315 0.0
H1819 H 0.68889 0.52117 0.93823 0.0
H1820 H 0.7802 0.5894 0.95652 0.0
H1821 H 0.75098 0.56224 0.95431 0.0
C1822 C 0.29665 0.69465 0.26454 0.0
C1823 C 0.29962 0.7047 0.25013 0.0
C1824 C 0.28015 0.67898 0.26374 0.0
C1825 C 0.24442 0.64057 0.2318 0.0
H1826 H 0.21705 0.63415 0.27529 0.0
C1827 C 0.17758 0.57492 0.23436 0.0
C1828 C 0.17816 0.56605 0.24956 0.0
C1829 C 0.19147 0.59236 0.23353 0.0
C1830 C 0.22465 0.63567 0.26307 0.0
H1831 H 0.28736 0.70664 0.22375 0.0
H1832 H 0.25816 0.679 0.22232 0.0
H1833 H 0.24198 0.66455 0.27542 0.0
H1834 H 0.19414 0.56832 0.27561 0.0
H1835 H 0.2184 0.59867 0.27411 0.0
H1836 H 0.22717 0.6115 0.21955 0.0
C1837 C 0.26883 0.68323 0.23417 0.0
C1838 C 0.23887 0.65309 0.26313 0.0
C1839 C 0.2854 0.69909 0.23503 0.0
C1840 C 0.19321 0.57478 0.26374 0.0
C1841 C 0.20702 0.59226 0.26294 0.0
C1842 C 0.2301 0.62311 0.23173 0.0
C1843 C 0.26612 0.67297 0.24852 0.0
C1844 C 0.24925 0.65556 0.24763 0.0
C1845 C 0.20615 0.60135 0.24792 0.0
C1846 C 0.22039 0.62032 0.24749 0.0
H1847 H 0.30721 0.69884 0.27648 0.0
H1848 H 0.27867 0.67125 0.27492 0.0
H1849 H 0.2523 0.64196 0.21971 0.0
H1850 H 0.1662 0.56858 0.22318 0.0
H1851 H 0.19038 0.59908 0.22183 0.0
C1852 C 0.91699 0.51113 0.05785 0.0
C1853 C 0.91987 0.49496 0.04447 0.0
C1854 C 0.91231 0.52824 0.053 0.0
C1855 C 0.91582 0.55578 0.01579 0.0
H1856 H 0.87117 0.57776 0.03676 0.0
C1857 C 0.87414 0.60545 0.98204 0.0
C1858 C 0.86572 0.62022 0.99287 0.0
C1859 C 0.88397 0.59292 0.98993 0.0
C1860 C 0.88397 0.57212 0.03103 0.0
H1861 H 0.92035 0.48411 0.01555 0.0
H1862 H 0.912 0.51387 0.00708 0.0
H1863 H 0.88164 0.55016 0.04759 0.0
H1864 H 0.8621 0.63426 0.02055 0.0
H1865 H 0.87959 0.61253 0.03437 0.0
H1866 H 0.91801 0.57751 0.99906 0.0
C1867 C 0.91346 0.51338 0.02132 0.0
C1868 C 0.8899 0.55623 0.03721 0.0
C1869 C 0.91798 0.49624 0.02615 0.0
C1870 C 0.86836 0.62296 0.01183 0.0
C1871 C 0.87823 0.61041 0.01974 0.0
C1872 C 0.90997 0.57172 0.00969 0.0
C1873 C 0.91063 0.52958 0.03468 0.0
C1874 C 0.90559 0.54762 0.02936 0.0
C1875 C 0.88567 0.59489 0.00886 0.0
C1876 C 0.89367 0.57979 0.01695 0.0
H1877 H 0.91828 0.5105 0.07207 0.0
H1878 H 0.91026 0.54053 0.06358 0.0
H1879 H 0.92823 0.54967 0.00974 0.0
H1880 H 0.87239 0.60294 0.96739 0.0
H1881 H 0.88931 0.58102 0.9811 0.0
C1882 C 0.08737 0.02581 0.08945 0.0
C1883 C 0.09942 0.0452 0.09335 0.0
C1884 C 0.09625 0.00906 0.08502 0.0
C1885 C 0.11817 0.97755 0.06543 0.0
H1886 H 0.16876 0.97647 0.09109 0.0
C1887 C 0.17135 0.92498 0.03774 0.0
C1888 C 0.18206 0.91702 0.04992 0.0
C1889 C 0.1591 0.93855 0.04405 0.0
C1890 C 0.15449 0.97639 0.08396 0.0
H1891 H 0.13027 0.06219 0.09574 0.0
H1892 H 0.14574 0.03299 0.0877 0.0
H1893 H 0.15196 0.00457 0.10025 0.0
H1894 H 0.18767 0.91642 0.07826 0.0
H1895 H 0.16615 0.94022 0.08934 0.0
H1896 H 0.12076 0.94942 0.04908 0.0
C1897 C 0.12943 0.03072 0.08826 0.0
C1898 C 0.14501 0.99263 0.08905 0.0
C1899 C 0.12054 0.04747 0.09263 0.0
C1900 C 0.17959 0.92229 0.06854 0.0
C1901 C 0.1674 0.93602 0.07489 0.0
C1902 C 0.12769 0.96135 0.0603 0.0
C1903 C 0.11739 0.01131 0.08445 0.0
C1904 C 0.12689 0.99353 0.07969 0.0
C1905 C 0.15733 0.94458 0.06271 0.0
C1906 C 0.14611 0.96071 0.06934 0.0
H1907 H 0.07103 0.02357 0.08975 0.0
H1908 H 0.08656 0.99432 0.08227 0.0
H1909 H 0.10429 0.97783 0.05787 0.0
H1910 H 0.17289 0.9212 0.0233 0.0
H1911 H 0.15174 0.94499 0.03432 0.0
loop_
_geom_bond_atom_site_label_1
_geom_bond_atom_site_label_2
_geom_bond_distance
_geom_bond_site_symmetry_2
_ccdc_geom_bond_type
H0 C1 0.949 . S
C1 H0 0.949 . S
C1 C2 1.395 . S
C1 C3 1.391 . S
C2 C1 1.395 . S
C2 C5 1.390 . S
C3 C1 1.391 . S
C3 C7 1.387 . S
C3 C8 1.491 . S
H4 C5 0.950 . S
C5 C2 1.390 . S
C5 H4 0.950 . S
C5 C6 1.378 . S
C6 C5 1.378 . S
C6 C7 1.409 . S
C7 C3 1.387 . S
C7 C6 1.409 . S
C7 H9 0.951 . S
C8 C3 1.491 . S
C8 C10 1.382 . S
C8 C12 1.404 . S
H9 C7 0.951 . S
C10 C8 1.382 . S
C10 C11 1.390 . S
C10 H15 0.949 . S
C11 C10 1.390 . S
C11 C16 1.399 . S
C12 C8 1.404 . S
C12 H13 0.950 . S
C12 C14 1.375 . S
H13 C12 0.950 . S
C14 C12 1.375 . S
C14 C16 1.382 . S
C14 H18 0.950 . S
H15 C10 0.949 . S
C16 C11 1.399 . S
C16 C14 1.382 . S
C16 H17 0.952 . S
H17 C16 0.952 . S
H18 C14 0.950 . S
H19 C20 0.949 . S
C20 H19 0.949 . S
C20 C21 1.395 . S
C20 C22 1.391 . S
C21 C20 1.395 . S
C21 C24 1.390 . S
C22 C20 1.391 . S
C22 C26 1.387 . S
C22 C27 1.491 . S
H23 C24 0.950 . S
C24 C21 1.390 . S
C24 H23 0.950 . S
C24 C25 1.378 . S
C25 C24 1.378 . S
C25 C26 1.409 . S
C26 C22 1.387 . S
C26 C25 1.409 . S
C26 H28 0.951 . S
C27 C22 1.491 . S
C27 C29 1.382 . S
C27 C31 1.404 . S
H28 C26 0.951 . S
C29 C27 1.382 . S
C29 C30 1.390 . S
C29 H34 0.949 . S
C30 C29 1.390 . S
C30 C35 1.399 . S
C31 C27 1.404 . S
C31 H32 0.950 . S
C31 C33 1.375 . S
H32 C31 0.950 . S
C33 C31 1.375 . S
C33 C35 1.382 . S
C33 H37 0.950 . S
H34 C29 0.949 . S
C35 C30 1.399 . S
C35 C33 1.382 . S
C35 H36 0.952 . S
H36 C35 0.952 . S
H37 C33 0.950 . S
H38 C39 0.949 . S
C39 H38 0.949 . S
C39 C40 1.395 . S
C39 C41 1.391 . S
C40 C39 1.395 . S
C40 C43 1.390 . S
C41 C39 1.391 . S
C41 C45 1.387 . S
C41 C46 1.491 . S
H42 C43 0.950 . S
C43 C40 1.390 . S
C43 H42 0.950 . S
C43 C44 1.378 . S
C44 C43 1.378 . S
C44 C45 1.409 . S
C45 C41 1.387 . S
C45 C44 1.409 . S
C45 H47 0.951 . S
C46 C41 1.491 . S
C46 C48 1.382 . S
C46 C50 1.404 . S
H47 C45 0.951 . S
C48 C46 1.382 . S
C48 C49 1.390 . S
C48 H53 0.949 . S
C49 C48 1.390 . S
C49 C54 1.399 1_554 S
C50 C46 1.404 . S
C50 H51 0.950 . S
C50 C52 1.375 1_554 S
H51 C50 0.950 . S
C52 C50 1.375 1_556 S
C52 C54 1.382 . S
C52 H56 0.950 . S
H53 C48 0.949 . S
C54 C49 1.399 1_556 S
C54 C52 1.382 . S
C54 H55 0.952 . S
H55 C54 0.952 . S
H56 C52 0.950 . S
H57 C58 0.949 . S
C58 H57 0.949 . S
C58 C59 1.395 . S
C58 C60 1.391 . S
C59 C58 1.395 . S
C59 C62 1.390 . S
C60 C58 1.391 . S
C60 C64 1.387 . S
C60 C65 1.491 . S
H61 C62 0.950 . S
C62 C59 1.390 . S
C62 H61 0.950 . S
C62 C63 1.378 . S
C63 C62 1.378 . S
C63 C64 1.409 . S
C64 C60 1.387 . S
C64 C63 1.409 . S
C64 H66 0.951 . S
C65 C60 1.491 . S
C65 C67 1.382 . S
C65 C69 1.404 . S
H66 C64 0.951 . S
C67 C65 1.382 . S
C67 C68 1.390 . S
C67 H72 0.949 . S
C68 C67 1.390 . S
C68 C73 1.399 . S
C69 C65 1.404 . S
C69 H70 0.950 . S
C69 C71 1.375 . S
H70 C69 0.950 . S
C71 C69 1.375 . S
C71 C73 1.382 . S
C71 H75 0.950 . S
H72 C67 0.949 . S
C73 C68 1.399 . S
C73 C71 1.382 . S
C73 H74 0.952 . S
H74 C73 0.952 . S
H75 C71 0.950 . S
H76 C77 0.949 . S
C77 H76 0.949 . S
C77 C78 1.395 . S
C77 C79 1.391 . S
C78 C77 1.395 . S
C78 C81 1.390 . S
C79 C77 1.391 . S
C79 C83 1.387 . S
C79 C84 1.491 . S
H80 C81 0.950 . S
C81 C78 1.390 . S
C81 H80 0.950 . S
C81 C82 1.378 . S
C82 C81 1.378 . S
C82 C83 1.409 . S
C83 C79 1.387 . S
C83 C82 1.409 . S
C83 H85 0.951 . S
C84 C79 1.491 . S
C84 C86 1.382 . S
C84 C88 1.404 . S
H85 C83 0.951 . S
C86 C84 1.382 . S
C86 C87 1.390 . S
C86 H91 0.949 . S
C87 C86 1.390 . S
C87 C92 1.399 . S
C88 C84 1.404 . S
C88 H89 0.950 . S
C88 C90 1.375 . S
H89 C88 0.950 . S
C90 C88 1.375 . S
C90 C92 1.382 . S
C90 H94 0.950 . S
H91 C86 0.949 . S
C92 C87 1.399 . S
C92 C90 1.382 . S
C92 H93 0.952 . S
H93 C92 0.952 . S
H94 C90 0.950 . S
H95 C96 0.949 . S
C96 H95 0.949 . S
C96 C97 1.395 . S
C96 C98 1.391 . S
C97 C96 1.395 . S
C97 C100 1.390 . S
C98 C96 1.391 . S
C98 C102 1.387 . S
C98 C103 1.491 . S
H99 C100 0.950 . S
C100 C97 1.390 . S
C100 H99 0.950 . S
C100 C101 1.378 . S
C101 C100 1.378 . S
C101 C102 1.409 . S
C102 C98 1.387 . S
C102 C101 1.409 . S
C102 H104 0.951 . S
C103 C98 1.491 . S
C103 C105 1.382 . S
C103 C107 1.404 . S
H104 C102 0.951 . S
C105 C103 1.382 . S
C105 C106 1.390 . S
C105 H110 0.949 . S
C106 C105 1.390 . S
C106 C111 1.399 . S
C107 C103 1.404 . S
C107 H108 0.950 . S
C107 C109 1.375 . S
H108 C107 0.950 . S
C109 C107 1.375 . S
C109 C111 1.382 . S
C109 H113 0.950 . S
H110 C105 0.949 . S
C111 C106 1.399 . S
C111 C109 1.382 . S
C111 H112 0.952 . S
H112 C111 0.952 . S
H113 C109 0.950 . S
H114 C115 0.949 . S
C115 H114 0.949 . S
C115 C116 1.395 . S
C115 C117 1.391 . S
C116 C115 1.395 . S
C116 C119 1.390 . S
C117 C115 1.391 . S
C117 C121 1.387 . S
C117 C122 1.491 . S
H118 C119 0.950 . S
C119 C116 1.390 . S
C119 H118 0.950 . S
C119 C120 1.378 . S
C120 C119 1.378 . S
C120 C121 1.409 . S
C121 C117 1.387 . S
C121 C120 1.409 . S
C121 H123 0.951 . S
C122 C117 1.491 . S
C122 C124 1.382 . S
C122 C126 1.404 . S
H123 C121 0.951 . S
C124 C122 1.382 . S
C124 C125 1.390 . S
C124 H129 0.949 . S
C125 C124 1.390 . S
C125 C130 1.399 . S
C126 C122 1.404 . S
C126 H127 0.950 . S
C126 C128 1.375 . S
H127 C126 0.950 . S
C128 C126 1.375 . S
C128 C130 1.382 . S
C128 H132 0.950 . S
H129 C124 0.949 . S
C130 C125 1.399 . S
C130 C128 1.382 . S
C130 H131 0.952 . S
H131 C130 0.952 . S
H132 C128 0.950 . S
H133 C134 0.949 . S
C134 H133 0.949 . S
C134 C135 1.395 . S
C134 C136 1.391 . S
C135 C134 1.395 . S
C135 C138 1.390 . S
C136 C134 1.391 . S
C136 C140 1.387 . S
C136 C141 1.491 . S
H137 C138 0.950 . S
C138 C135 1.390 . S
C138 H137 0.950 . S
C138 C139 1.378 . S
C139 C138 1.378 . S
C139 C140 1.409 . S
C140 C136 1.387 . S
C140 C139 1.409 . S
C140 H142 0.951 . S
C141 C136 1.491 . S
C141 C143 1.382 . S
C141 C145 1.404 . S
H142 C140 0.951 . S
C143 C141 1.382 . S
C143 C144 1.390 . S
C143 H148 0.949 . S
C144 C143 1.390 . S
C144 C149 1.399 . S
C145 C141 1.404 . S
C145 H146 0.950 . S
C145 C147 1.375 . S
H146 C145 0.950 . S
C147 C145 1.375 . S
C147 C149 1.382 . S
C147 H151 0.950 . S
H148 C143 0.949 . S
C149 C144 1.399 . S
C149 C147 1.382 . S
C149 H150 0.952 . S
H150 C149 0.952 . S
H151 C147 0.950 . S
H152 C153 0.949 . S
C153 H152 0.949 . S
C153 C154 1.395 . S
C153 C155 1.391 . S
C154 C153 1.395 . S
C154 C157 1.390 . S
C155 C153 1.391 . S
C155 C159 1.387 . S
C155 C160 1.491 . S
H156 C157 0.950 . S
C157 C154 1.390 . S
C157 H156 0.950 . S
C157 C158 1.378 . S
C158 C157 1.378 . S
C158 C159 1.409 . S
C159 C155 1.387 . S
C159 C158 1.409 . S
C159 H161 0.951 . S
C160 C155 1.491 . S
C160 C162 1.382 . S
C160 C164 1.404 . S
H161 C159 0.951 . S
C162 C160 1.382 . S
C162 C163 1.390 . S
C162 H167 0.949 . S
C163 C162 1.390 . S
C163 C168 1.399 . S
C164 C160 1.404 . S
C164 H165 0.950 . S
C164 C166 1.375 . S
H165 C164 0.950 . S
C166 C164 1.375 . S
C166 C168 1.382 . S
C166 H170 0.950 . S
H167 C162 0.949 . S
C168 C163 1.399 . S
C168 C166 1.382 . S
C168 H169 0.952 . S
H169 C168 0.952 . S
H170 C166 0.950 . S
H171 C172 0.949 . S
C172 H171 0.949 . S
C172 C173 1.395 . S
C172 C174 1.391 . S
C173 C172 1.395 . S
C173 C176 1.390 . S
C174 C172 1.391 . S
C174 C178 1.387 . S
C174 C179 1.491 . S
H175 C176 0.950 . S
C176 C173 1.390 . S
C176 H175 0.950 . S
C176 C177 1.378 . S
C177 C176 1.378 . S
C177 C178 1.409 . S
C178 C174 1.387 . S
C178 C177 1.409 . S
C178 H180 0.951 . S
C179 C174 1.491 . S
C179 C181 1.382 . S
C179 C183 1.404 . S
H180 C178 0.951 . S
C181 C179 1.382 . S
C181 C182 1.390 . S
C181 H186 0.949 . S
C182 C181 1.390 . S
C182 C187 1.399 . S
C183 C179 1.404 . S
C183 H184 0.950 . S
C183 C185 1.375 . S
H184 C183 0.950 . S
C185 C183 1.375 . S
C185 C187 1.382 . S
C185 H189 0.950 . S
H186 C181 0.949 . S
C187 C182 1.399 . S
C187 C185 1.382 . S
C187 H188 0.952 . S
H188 C187 0.952 . S
H189 C185 0.950 . S
H190 C191 0.949 . S
C191 H190 0.949 . S
C191 C192 1.395 . S
C191 C193 1.391 . S
C192 C191 1.395 . S
C192 C195 1.390 . S
C193 C191 1.391 . S
C193 C197 1.387 . S
C193 C198 1.491 . S
H194 C195 0.950 . S
C195 C192 1.390 . S
C195 H194 0.950 . S
C195 C196 1.378 . S
C196 C195 1.378 . S
C196 C197 1.409 . S
C197 C193 1.387 . S
C197 C196 1.409 . S
C197 H199 0.951 . S
C198 C193 1.491 . S
C198 C200 1.382 . S
C198 C202 1.404 . S
H199 C197 0.951 . S
C200 C198 1.382 . S
C200 C201 1.390 . S
C200 H205 0.949 . S
C201 C200 1.390 . S
C201 C206 1.399 . S
C202 C198 1.404 . S
C202 H203 0.950 . S
C202 C204 1.375 . S
H203 C202 0.950 . S
C204 C202 1.375 . S
C204 C206 1.382 . S
C204 H208 0.950 . S
H205 C200 0.949 . S
C206 C201 1.399 . S
C206 C204 1.382 . S
C206 H207 0.952 . S
H207 C206 0.952 . S
H208 C204 0.950 . S
H209 C210 0.949 . S
C210 H209 0.949 . S
C210 C211 1.395 . S
C210 C212 1.391 . S
C211 C210 1.395 . S
C211 C214 1.390 . S
C212 C210 1.391 . S
C212 C216 1.387 . S
C212 C217 1.491 . S
H213 C214 0.950 . S
C214 C211 1.390 . S
C214 H213 0.950 . S
C214 C215 1.378 . S
C215 C214 1.378 . S
C215 C216 1.409 . S
C216 C212 1.387 . S
C216 C215 1.409 . S
C216 H218 0.951 . S
C217 C212 1.491 . S
C217 C219 1.382 . S
C217 C221 1.404 . S
H218 C216 0.951 . S
C219 C217 1.382 . S
C219 C220 1.390 . S
C219 H224 0.949 . S
C220 C219 1.390 . S
C220 C225 1.399 . S
C221 C217 1.404 . S
C221 H222 0.950 . S
C221 C223 1.375 . S
H222 C221 0.950 . S
C223 C221 1.375 . S
C223 C225 1.382 . S
C223 H227 0.950 . S
H224 C219 0.949 . S
C225 C220 1.399 . S
C225 C223 1.382 . S
C225 H226 0.952 . S
H226 C225 0.952 . S
H227 C223 0.950 . S
H228 C229 0.949 . S
C229 H228 0.949 . S
C229 C230 1.395 . S
C229 C231 1.391 . S
C230 C229 1.395 . S
C230 C233 1.390 . S
C231 C229 1.391 . S
C231 C235 1.387 . S
C231 C236 1.491 . S
H232 C233 0.950 . S
C233 C230 1.390 . S
C233 H232 0.950 . S
C233 C234 1.378 . S
C234 C233 1.378 . S
C234 C235 1.409 . S
C235 C231 1.387 . S
C235 C234 1.409 . S
C235 H237 0.951 . S
C236 C231 1.491 . S
C236 C238 1.382 . S
C236 C240 1.404 . S
H237 C235 0.951 . S
C238 C236 1.382 . S
C238 C239 1.390 . S
C238 H243 0.949 . S
C239 C238 1.390 . S
C239 C244 1.399 . S
C240 C236 1.404 . S
C240 H241 0.950 . S
C240 C242 1.375 . S
H241 C240 0.950 . S
C242 C240 1.375 . S
C242 C244 1.382 . S
C242 H246 0.950 . S
H243 C238 0.949 . S
C244 C239 1.399 . S
C244 C242 1.382 . S
C244 H245 0.952 . S
H245 C244 0.952 . S
H246 C242 0.950 . S
H247 C248 0.949 . S
C248 H247 0.949 . S
C248 C249 1.395 . S
C248 C250 1.391 . S
C249 C248 1.395 . S
C249 C252 1.390 . S
C250 C248 1.391 . S
C250 C254 1.387 . S
C250 C255 1.491 . S
H251 C252 0.950 . S
C252 C249 1.390 . S
C252 H251 0.950 . S
C252 C253 1.378 . S
C253 C252 1.378 . S
C253 C254 1.409 . S
C254 C250 1.387 . S
C254 C253 1.409 . S
C254 H256 0.951 . S
C255 C250 1.491 . S
C255 C257 1.382 . S
C255 C259 1.404 . S
H256 C254 0.951 . S
C257 C255 1.382 . S
C257 C258 1.390 . S
C257 H262 0.949 . S
C258 C257 1.390 . S
C258 C263 1.399 . S
C259 C255 1.404 . S
C259 H260 0.950 . S
C259 C261 1.375 . S
H260 C259 0.950 . S
C261 C259 1.375 . S
C261 C263 1.382 . S
C261 H265 0.950 . S
H262 C257 0.949 . S
C263 C258 1.399 . S
C263 C261 1.382 . S
C263 H264 0.952 . S
H264 C263 0.952 . S
H265 C261 0.950 . S
H266 C267 0.949 . S
C267 H266 0.949 . S
C267 C268 1.395 . S
C267 C269 1.391 . S
C268 C267 1.395 . S
C268 C271 1.390 . S
C269 C267 1.391 . S
C269 C273 1.387 . S
C269 C274 1.491 . S
H270 C271 0.950 . S
C271 C268 1.390 . S
C271 H270 0.950 . S
C271 C272 1.378 . S
C272 C271 1.378 . S
C272 C273 1.409 . S
C273 C269 1.387 . S
C273 C272 1.409 . S
C273 H275 0.951 . S
C274 C269 1.491 . S
C274 C276 1.382 . S
C274 C278 1.404 . S
H275 C273 0.951 . S
C276 C274 1.382 . S
C276 C277 1.390 . S
C276 H281 0.949 . S
C277 C276 1.390 . S
C277 C282 1.399 . S
C278 C274 1.404 . S
C278 H279 0.950 . S
C278 C280 1.375 . S
H279 C278 0.950 . S
C280 C278 1.375 . S
C280 C282 1.382 . S
C280 H284 0.950 . S
H281 C276 0.949 . S
C282 C277 1.399 . S
C282 C280 1.382 . S
C282 H283 0.952 . S
H283 C282 0.952 . S
H284 C280 0.950 . S
H285 C286 0.949 . S
C286 H285 0.949 . S
C286 C287 1.395 . S
C286 C288 1.391 . S
C287 C286 1.395 . S
C287 C290 1.390 . S
C288 C286 1.391 . S
C288 C292 1.387 . S
C288 C293 1.491 . S
H289 C290 0.950 . S
C290 C287 1.390 . S
C290 H289 0.950 . S
C290 C291 1.378 . S
C291 C290 1.378 . S
C291 C292 1.409 . S
C292 C288 1.387 . S
C292 C291 1.409 . S
C292 H294 0.951 . S
C293 C288 1.491 . S
C293 C295 1.382 . S
C293 C297 1.404 . S
H294 C292 0.951 . S
C295 C293 1.382 . S
C295 C296 1.390 . S
C295 H300 0.949 . S
C296 C295 1.390 . S
C296 C301 1.399 . S
C297 C293 1.404 . S
C297 H298 0.950 . S
C297 C299 1.375 . S
H298 C297 0.950 . S
C299 C297 1.375 . S
C299 C301 1.382 . S
C299 H303 0.950 . S
H300 C295 0.949 . S
C301 C296 1.399 . S
C301 C299 1.382 . S
C301 H302 0.952 . S
H302 C301 0.952 . S
H303 C299 0.950 . S
O304 Cd305 2.223 . S
O304 C312 1.315 . S
Cd305 O304 2.223 . S
Cd305 O308 2.297 . S
Cd305 O309 2.439 . S
Cd305 O315 2.240 . S
Cd306 O307 2.240 . S
Cd306 O314 2.223 . S
Cd306 O316 2.297 . S
Cd306 O317 2.439 . S
O307 Cd306 2.240 . S
O307 C312 1.279 . S
O308 Cd305 2.297 . S
O308 C310 1.247 . S
O309 Cd305 2.439 . S
O309 C310 1.208 . S
C310 O308 1.247 . S
C310 O309 1.208 . S
C311 O316 1.247 . S
C311 O317 1.208 . S
C312 O304 1.315 . S
C312 O307 1.279 . S
C313 O314 1.315 . S
C313 O315 1.279 . S
O314 Cd306 2.223 . S
O314 C313 1.315 . S
O315 Cd305 2.240 . S
O315 C313 1.279 . S
O316 Cd306 2.297 . S
O316 C311 1.247 . S
O317 Cd306 2.439 . S
O317 C311 1.208 . S
O318 Cd319 2.223 . S
O318 C326 1.315 . S
Cd319 O318 2.223 . S
Cd319 O322 2.297 . S
Cd319 O323 2.439 . S
Cd319 O329 2.240 . S
Cd320 O321 2.240 . S
Cd320 O328 2.223 . S
Cd320 O330 2.297 . S
Cd320 O331 2.439 . S
O321 Cd320 2.240 . S
O321 C326 1.279 . S
O322 Cd319 2.297 . S
O322 C324 1.247 . S
O323 Cd319 2.439 . S
O323 C324 1.208 . S
C324 O322 1.247 . S
C324 O323 1.208 . S
C325 O330 1.247 . S
C325 O331 1.208 . S
C326 O318 1.315 . S
C326 O321 1.279 . S
C327 O328 1.315 . S
C327 O329 1.279 . S
O328 Cd320 2.223 . S
O328 C327 1.315 . S
O329 Cd319 2.240 . S
O329 C327 1.279 . S
O330 Cd320 2.297 . S
O330 C325 1.247 . S
O331 Cd320 2.439 . S
O331 C325 1.208 . S
O332 Cd333 2.223 1_556 S
O332 C340 1.315 . S
Cd333 O332 2.223 1_554 S
Cd333 O336 2.297 . S
Cd333 O337 2.439 . S
Cd333 O343 2.247 . S
Cd334 O335 2.240 . S
Cd334 O342 2.223 . S
Cd334 O344 2.297 . S
Cd334 O345 2.439 1_556 S
O335 Cd334 2.240 . S
O335 C340 1.279 . S
O336 Cd333 2.297 . S
O336 C338 1.247 . S
O337 Cd333 2.439 . S
O337 C338 1.208 . S
C338 O336 1.247 . S
C338 O337 1.208 . S
C339 O344 1.247 1_554 S
C339 O345 1.208 . S
C340 O332 1.315 . S
C340 O335 1.279 . S
C341 O342 1.315 . S
C341 O343 1.255 1_556 S
O342 Cd334 2.223 . S
O342 C341 1.315 . S
O343 Cd333 2.247 . S
O343 C341 1.255 1_554 S
O344 Cd334 2.297 . S
O344 C339 1.247 1_556 S
O345 Cd334 2.439 1_554 S
O345 C339 1.208 . S
O346 Cd347 2.223 . S
O346 C354 1.315 . S
Cd347 O346 2.223 . S
Cd347 O350 2.297 1_655 S
Cd347 O351 2.439 . S
Cd347 O357 2.240 . S
Cd348 O349 2.240 . S
Cd348 O356 2.223 . S
Cd348 O358 2.297 . S
Cd348 O359 2.439 . S
O349 Cd348 2.240 . S
O349 C354 1.279 . S
O350 Cd347 2.297 1_455 S
O350 C352 1.247 . S
O351 Cd347 2.439 . S
O351 C352 1.208 1_655 S
C352 O350 1.247 . S
C352 O351 1.208 1_455 S
C353 O358 1.247 . S
C353 O359 1.208 . S
C354 O346 1.315 . S
C354 O349 1.279 . S
C355 O356 1.315 . S
C355 O357 1.279 . S
O356 Cd348 2.223 . S
O356 C355 1.315 . S
O357 Cd347 2.240 . S
O357 C355 1.279 . S
O358 Cd348 2.297 . S
O358 C353 1.247 . S
O359 Cd348 2.439 . S
O359 C353 1.208 . S
O360 Cd361 2.223 . S
O360 C368 1.315 . S
Cd361 O360 2.223 . S
Cd361 O364 2.297 . S
Cd361 O365 2.439 . S
Cd361 O371 2.240 . S
Cd362 O363 2.240 . S
Cd362 O370 2.223 . S
Cd362 O372 2.297 . S
Cd362 O373 2.439 . S
O363 Cd362 2.240 . S
O363 C368 1.279 . S
O364 Cd361 2.297 . S
O364 C366 1.247 . S
O365 Cd361 2.439 . S
O365 C366 1.208 . S
C366 O364 1.247 . S
C366 O365 1.208 . S
C367 O372 1.247 . S
C367 O373 1.208 . S
C368 O360 1.315 . S
C368 O363 1.279 . S
C369 O370 1.315 . S
C369 O371 1.279 . S
O370 Cd362 2.223 . S
O370 C369 1.315 . S
O371 Cd361 2.240 . S
O371 C369 1.279 . S
O372 Cd362 2.297 . S
O372 C367 1.247 . S
O373 Cd362 2.439 . S
O373 C367 1.208 . S
O374 Cd375 2.223 . S
O374 C382 1.315 . S
Cd375 O374 2.223 . S
Cd375 O378 2.297 . S
Cd375 O379 2.439 . S
Cd375 O385 2.240 . S
Cd376 O377 2.240 . S
Cd376 O384 2.223 . S
Cd376 O386 2.297 . S
Cd376 O387 2.439 . S
O377 Cd376 2.240 . S
O377 C382 1.279 . S
O378 Cd375 2.297 . S
O378 C380 1.247 . S
O379 Cd375 2.439 . S
O379 C380 1.208 . S
C380 O378 1.247 . S
C380 O379 1.208 . S
C381 O386 1.247 . S
C381 O387 1.208 . S
C382 O374 1.315 . S
C382 O377 1.279 . S
C383 O384 1.315 . S
C383 O385 1.279 . S
O384 Cd376 2.223 . S
O384 C383 1.315 . S
O385 Cd375 2.240 . S
O385 C383 1.279 . S
O386 Cd376 2.297 . S
O386 C381 1.247 . S
O387 Cd376 2.439 . S
O387 C381 1.208 . S
O388 Cd389 2.223 . S
O388 C396 1.315 . S
Cd389 O388 2.223 . S
Cd389 O392 2.297 . S
Cd389 O393 2.439 . S
Cd389 O399 2.240 . S
Cd390 O391 2.240 . S
Cd390 O398 2.223 . S
Cd390 O400 2.297 . S
Cd390 O401 2.439 . S
O391 Cd390 2.240 . S
O391 C396 1.279 . S
O392 Cd389 2.297 . S
O392 C394 1.247 . S
O393 Cd389 2.439 . S
O393 C394 1.208 . S
C394 O392 1.247 . S
C394 O393 1.208 . S
C395 O400 1.247 . S
C395 O401 1.208 . S
C396 O388 1.315 . S
C396 O391 1.279 . S
C397 O398 1.315 . S
C397 O399 1.279 . S
O398 Cd390 2.223 . S
O398 C397 1.315 . S
O399 Cd389 2.240 . S
O399 C397 1.279 . S
O400 Cd390 2.297 . S
O400 C395 1.247 . S
O401 Cd390 2.439 . S
O401 C395 1.208 . S
O402 Cd403 2.223 1_545 S
O402 C410 1.315 . S
Cd403 O402 2.223 1_565 S
Cd403 O406 2.297 . S
Cd403 O407 2.439 . S
Cd403 O413 2.240 1_565 S
Cd404 O405 2.240 . S
Cd404 O412 2.223 . S
Cd404 O414 2.300 . S
Cd404 O415 2.439 1_545 S
O405 Cd404 2.240 . S
O405 C410 1.279 . S
O406 Cd403 2.297 . S
O406 C408 1.247 . S
O407 Cd403 2.439 . S
O407 C408 1.208 . S
C408 O406 1.247 . S
C408 O407 1.208 . S
C409 O414 1.233 1_565 S
C409 O415 1.208 . S
C410 O402 1.315 . S
C410 O405 1.279 . S
C411 O412 1.315 . S
C411 O413 1.279 . S
O412 Cd404 2.223 . S
O412 C411 1.315 . S
O413 Cd403 2.240 1_545 S
O413 C411 1.279 . S
O414 Cd404 2.300 . S
O414 C409 1.233 1_545 S
O415 Cd404 2.439 1_565 S
O415 C409 1.208 . S
O416 Cd417 2.223 . S
O416 C424 1.315 . S
Cd417 O416 2.223 . S
Cd417 O420 2.297 1_655 S
Cd417 O421 2.439 1_655 S
Cd417 O427 2.240 . S
Cd418 O419 2.240 . S
Cd418 O426 2.223 1_455 S
Cd418 O428 2.297 . S
Cd418 O429 2.439 . S
O419 Cd418 2.240 . S
O419 C424 1.279 1_455 S
O420 Cd417 2.297 1_455 S
O420 C422 1.247 . S
O421 Cd417 2.439 1_455 S
O421 C422 1.208 . S
C422 O420 1.247 . S
C422 O421 1.208 . S
C423 O428 1.247 . S
C423 O429 1.208 . S
C424 O416 1.315 . S
C424 O419 1.279 1_655 S
C425 O426 1.315 . S
C425 O427 1.279 . S
O426 Cd418 2.223 1_655 S
O426 C425 1.315 . S
O427 Cd417 2.240 . S
O427 C425 1.279 . S
O428 Cd418 2.297 . S
O428 C423 1.247 . S
O429 Cd418 2.439 . S
O429 C423 1.208 . S
O430 Cd431 2.223 . S
O430 C438 1.315 . S
Cd431 O430 2.223 . S
Cd431 O434 2.297 . S
Cd431 O435 2.439 . S
Cd431 O441 2.240 . S
Cd432 O433 2.240 . S
Cd432 O440 2.223 . S
Cd432 O442 2.297 . S
Cd432 O443 2.439 . S
O433 Cd432 2.240 . S
O433 C438 1.279 . S
O434 Cd431 2.297 . S
O434 C436 1.247 . S
O435 Cd431 2.439 . S
O435 C436 1.208 . S
C436 O434 1.247 . S
C436 O435 1.208 . S
C437 O442 1.247 . S
C437 O443 1.208 . S
C438 O430 1.315 . S
C438 O433 1.279 . S
C439 O440 1.315 . S
C439 O441 1.279 . S
O440 Cd432 2.223 . S
O440 C439 1.315 . S
O441 Cd431 2.240 . S
O441 C439 1.279 . S
O442 Cd432 2.297 . S
O442 C437 1.247 . S
O443 Cd432 2.439 . S
O443 C437 1.208 . S
O444 Cd445 2.223 1_655 S
O444 C452 1.315 . S
Cd445 O444 2.223 1_455 S
Cd445 O448 2.297 . S
Cd445 O449 2.439 . S
Cd445 O455 2.240 . S
Cd446 O447 2.240 . S
Cd446 O454 2.223 1_455 S
Cd446 O456 2.297 . S
Cd446 O457 2.439 . S
O447 Cd446 2.240 . S
O447 C452 1.279 1_455 S
O448 Cd445 2.297 . S
O448 C450 1.247 . S
O449 Cd445 2.439 . S
O449 C450 1.208 . S
C450 O448 1.247 . S
C450 O449 1.208 . S
C451 O456 1.247 . S
C451 O457 1.208 . S
C452 O444 1.315 . S
C452 O447 1.279 1_655 S
C453 O454 1.315 1_455 S
C453 O455 1.279 . S
O454 Cd446 2.223 1_655 S
O454 C453 1.315 1_655 S
O455 Cd445 2.240 . S
O455 C453 1.279 . S
O456 Cd446 2.297 . S
O456 C451 1.247 . S
O457 Cd446 2.439 . S
O457 C451 1.208 . S
O458 Cd459 2.223 . S
O458 C466 1.315 . S
Cd459 O458 2.223 . S
Cd459 O462 2.297 . S
Cd459 O463 2.439 . S
Cd459 O469 2.240 . S
Cd460 O461 2.240 . S
Cd460 O468 2.223 . S
Cd460 O470 2.297 . S
Cd460 O471 2.439 . S
O461 Cd460 2.240 . S
O461 C466 1.279 . S
O462 Cd459 2.297 . S
O462 C464 1.247 . S
O463 Cd459 2.439 . S
O463 C464 1.208 . S
C464 O462 1.247 . S
C464 O463 1.208 . S
C465 O470 1.247 . S
C465 O471 1.208 . S
C466 O458 1.315 . S
C466 O461 1.279 . S
C467 O468 1.315 . S
C467 O469 1.279 . S
O468 Cd460 2.223 . S
O468 C467 1.315 . S
O469 Cd459 2.240 . S
O469 C467 1.279 . S
O470 Cd460 2.297 . S
O470 C465 1.247 . S
O471 Cd460 2.439 . S
O471 C465 1.208 . S
C472 C473 1.349 . S
C472 C474 1.327 . S
C472 H497 0.950 . S
C473 C472 1.349 . S
C473 C489 1.349 . S
C474 C472 1.327 . S
C474 C493 1.429 . S
C474 H498 0.950 . S
C475 C492 1.574 . S
C475 C494 1.368 . S
C475 H499 0.949 . S
H476 C480 0.949 . S
C477 C478 1.349 . S
C477 C479 1.327 . S
C477 H500 0.950 . S
C478 C477 1.349 . S
C478 C490 1.349 . S
C479 C477 1.327 . S
C479 C495 1.429 1_554 S
C479 H501 0.950 . S
C480 H476 0.949 . S
C480 C488 1.574 . S
C480 C496 1.368 . S
H481 C489 0.950 . S
H482 C487 0.950 . S
H483 C488 0.949 . S
H484 C490 0.950 . S
H485 C491 0.950 1_556 S
H486 C492 0.949 . S
C487 H482 0.950 . S
C487 C489 1.327 . S
C487 C493 1.429 . S
C488 C480 1.574 . S
C488 H483 0.949 . S
C488 C494 1.368 . S
C489 C473 1.349 . S
C489 H481 0.950 . S
C489 C487 1.327 . S
C490 C478 1.349 . S
C490 H484 0.950 . S
C490 C491 1.327 . S
C491 H485 0.950 1_554 S
C491 C490 1.327 . S
C491 C495 1.429 1_554 S
C492 C475 1.574 . S
C492 H486 0.949 . S
C492 C496 1.368 . S
C493 C474 1.429 . S
C493 C487 1.429 . S
C493 C494 1.523 . S
C494 C475 1.368 . S
C494 C488 1.368 . S
C494 C493 1.523 . S
C495 C479 1.429 1_556 S
C495 C491 1.429 1_556 S
C495 C496 1.523 . S
C496 C480 1.368 . S
C496 C492 1.368 . S
C496 C495 1.523 . S
H497 C472 0.950 . S
H498 C474 0.950 . S
H499 C475 0.949 . S
H500 C477 0.950 . S
H501 C479 0.950 . S
C502 C503 1.349 . S
C502 C504 1.327 . S
C502 H527 0.950 . S
C503 C502 1.349 . S
C503 C519 1.349 . S
C504 C502 1.327 . S
C504 C523 1.429 . S
C504 H528 0.950 . S
C505 C522 1.574 . S
C505 C524 1.368 . S
C505 H529 0.949 . S
H506 C510 0.949 . S
C507 C508 1.349 . S
C507 C509 1.327 . S
C507 H530 0.950 . S
C508 C507 1.349 . S
C508 C520 1.349 . S
C509 C507 1.327 . S
C509 C525 1.429 . S
C509 H531 0.950 . S
C510 H506 0.949 . S
C510 C518 1.574 . S
C510 C526 1.368 . S
H511 C519 0.950 . S
H512 C517 0.950 . S
H513 C518 0.949 1_655 S
H514 C520 0.950 . S
H515 C521 0.950 . S
H516 C522 0.949 . S
C517 H512 0.950 . S
C517 C519 1.327 . S
C517 C523 1.429 . S
C518 C510 1.574 . S
C518 H513 0.949 1_455 S
C518 C524 1.368 . S
C519 C503 1.349 . S
C519 H511 0.950 . S
C519 C517 1.327 . S
C520 C508 1.349 . S
C520 H514 0.950 . S
C520 C521 1.327 . S
C521 H515 0.950 . S
C521 C520 1.327 . S
C521 C525 1.429 . S
C522 C505 1.574 . S
C522 H516 0.949 . S
C522 C526 1.368 . S
C523 C504 1.429 . S
C523 C517 1.429 . S
C523 C524 1.523 1_655 S
C524 C505 1.368 . S
C524 C518 1.368 . S
C524 C523 1.523 1_455 S
C525 C509 1.429 . S
C525 C521 1.429 . S
C525 C526 1.523 . S
C526 C510 1.368 . S
C526 C522 1.368 . S
C526 C525 1.523 . S
H527 C502 0.950 . S
H528 C504 0.950 . S
H529 C505 0.949 . S
H530 C507 0.950 . S
H531 C509 0.950 . S
C532 C533 1.349 . S
C532 C534 1.327 . S
C532 H557 0.950 . S
C533 C532 1.349 . S
C533 C549 1.349 . S
C534 C532 1.327 . S
C534 C553 1.429 . S
C534 H558 0.950 . S
C535 C552 1.574 . S
C535 C554 1.368 . S
C535 H559 0.949 . S
H536 C540 0.949 . S
C537 C538 1.349 . S
C537 C539 1.327 . S
C537 H560 0.950 . S
C538 C537 1.349 . S
C538 C550 1.349 . S
C539 C537 1.327 . S
C539 C555 1.429 . S
C539 H561 0.950 . S
C540 H536 0.949 . S
C540 C548 1.574 . S
C540 C556 1.368 . S
H541 C549 0.950 . S
H542 C547 0.950 . S
H543 C548 0.949 . S
H544 C550 0.950 . S
H545 C551 0.950 . S
H546 C552 0.949 . S
C547 H542 0.950 . S
C547 C549 1.327 . S
C547 C553 1.429 . S
C548 C540 1.574 . S
C548 H543 0.949 . S
C548 C554 1.368 . S
C549 C533 1.349 . S
C549 H541 0.950 . S
C549 C547 1.327 . S
C550 C538 1.349 . S
C550 H544 0.950 . S
C550 C551 1.327 . S
C551 H545 0.950 . S
C551 C550 1.327 . S
C551 C555 1.429 . S
C552 C535 1.574 . S
C552 H546 0.949 . S
C552 C556 1.368 . S
C553 C534 1.429 . S
C553 C547 1.429 . S
C553 C554 1.523 . S
C554 C535 1.368 . S
C554 C548 1.368 . S
C554 C553 1.523 . S
C555 C539 1.429 . S
C555 C551 1.429 . S
C555 C556 1.523 . S
C556 C540 1.368 . S
C556 C552 1.368 . S
C556 C555 1.523 . S
H557 C532 0.950 . S
H558 C534 0.950 . S
H559 C535 0.949 . S
H560 C537 0.950 . S
H561 C539 0.950 . S
C562 C563 1.349 . S
C562 C564 1.327 . S
C562 H587 0.950 . S
C563 C562 1.349 . S
C563 C579 1.349 . S
C564 C562 1.327 . S
C564 C583 1.429 . S
C564 H588 0.950 . S
C565 C582 1.574 . S
C565 C584 1.368 1_545 S
C565 H589 0.949 . S
H566 C570 0.949 . S
C567 C568 1.349 . S
C567 C569 1.327 . S
C567 H590 0.950 . S
C568 C567 1.349 . S
C568 C580 1.349 . S
C569 C567 1.327 . S
C569 C585 1.429 . S
C569 H591 0.950 . S
C570 H566 0.949 . S
C570 C578 1.574 . S
C570 C586 1.368 1_565 S
H571 C579 0.950 . S
H572 C577 0.950 1_545 S
H573 C578 0.949 . S
H574 C580 0.950 1_655 S
H575 C581 0.950 1_565 S
H576 C582 0.949 . S
C577 H572 0.950 1_565 S
C577 C579 1.327 . S
C577 C583 1.429 . S
C578 C570 1.574 . S
C578 H573 0.949 . S
C578 C584 1.368 . S
C579 C563 1.349 . S
C579 H571 0.950 . S
C579 C577 1.327 . S
C580 C568 1.349 . S
C580 H574 0.950 1_455 S
C580 C581 1.327 . S
C581 H575 0.950 1_545 S
C581 C580 1.327 . S
C581 C585 1.429 . S
C582 C565 1.574 . S
C582 H576 0.949 . S
C582 C586 1.368 . S
C583 C564 1.429 . S
C583 C577 1.429 . S
C583 C584 1.523 . S
C584 C565 1.368 1_565 S
C584 C578 1.368 . S
C584 C583 1.523 . S
C585 C569 1.429 . S
C585 C581 1.429 . S
C585 C586 1.523 . S
C586 C570 1.368 1_545 S
C586 C582 1.368 . S
C586 C585 1.523 . S
H587 C562 0.950 . S
H588 C564 0.950 . S
H589 C565 0.949 . S
H590 C567 0.950 . S
H591 C569 0.950 . S
C592 C593 1.349 . S
C592 C594 1.327 . S
C592 H617 0.950 . S
C593 C592 1.349 . S
C593 C609 1.349 . S
C594 C592 1.327 . S
C594 C613 1.429 . S
C594 H618 0.950 . S
C595 C612 1.574 . S
C595 C614 1.368 . S
C595 H619 0.949 . S
H596 C600 0.949 . S
C597 C598 1.349 . S
C597 C599 1.327 . S
C597 H620 0.950 . S
C598 C597 1.349 . S
C598 C610 1.349 . S
C599 C597 1.327 . S
C599 C615 1.429 . S
C599 H621 0.950 . S
C600 H596 0.949 . S
C600 C608 1.574 . S
C600 C616 1.368 . S
H601 C609 0.950 . S
H602 C607 0.950 . S
H603 C608 0.949 . S
H604 C610 0.950 . S
H605 C611 0.950 . S
H606 C612 0.949 . S
C607 H602 0.950 . S
C607 C609 1.327 . S
C607 C613 1.429 . S
C608 C600 1.574 . S
C608 H603 0.949 . S
C608 C614 1.368 . S
C609 C593 1.349 . S
C609 H601 0.950 . S
C609 C607 1.327 . S
C610 C598 1.349 . S
C610 H604 0.950 . S
C610 C611 1.327 . S
C611 H605 0.950 . S
C611 C610 1.327 . S
C611 C615 1.429 . S
C612 C595 1.574 . S
C612 H606 0.949 . S
C612 C616 1.368 . S
C613 C594 1.429 . S
C613 C607 1.429 . S
C613 C614 1.523 . S
C614 C595 1.368 . S
C614 C608 1.368 . S
C614 C613 1.523 . S
C615 C599 1.429 . S
C615 C611 1.429 . S
C615 C616 1.523 . S
C616 C600 1.368 . S
C616 C612 1.368 . S
C616 C615 1.523 . S
H617 C592 0.950 . S
H618 C594 0.950 . S
H619 C595 0.949 . S
H620 C597 0.950 . S
H621 C599 0.950 . S
C622 C623 1.349 . S
C622 C624 1.327 . S
C622 H647 0.950 . S
C623 C622 1.349 . S
C623 C639 1.349 . S
C624 C622 1.327 . S
C624 C643 1.429 . S
C624 H648 0.950 . S
C625 C642 1.574 . S
C625 C644 1.368 . S
C625 H649 0.949 . S
H626 C630 0.949 . S
C627 C628 1.349 . S
C627 C629 1.327 . S
C627 H650 0.950 . S
C628 C627 1.349 . S
C628 C640 1.349 . S
C629 C627 1.327 . S
C629 C645 1.429 . S
C629 H651 0.950 . S
C630 H626 0.949 . S
C630 C638 1.574 . S
C630 C646 1.368 . S
H631 C639 0.950 . S
H632 C637 0.950 . S
H633 C638 0.949 . S
H634 C640 0.950 . S
H635 C641 0.950 . S
H636 C642 0.949 . S
C637 H632 0.950 . S
C637 C639 1.327 . S
C637 C643 1.429 . S
C638 C630 1.574 . S
C638 H633 0.949 . S
C638 C644 1.368 . S
C639 C623 1.349 . S
C639 H631 0.950 . S
C639 C637 1.327 . S
C640 C628 1.349 . S
C640 H634 0.950 . S
C640 C641 1.327 . S
C641 H635 0.950 . S
C641 C640 1.327 . S
C641 C645 1.429 . S
C642 C625 1.574 . S
C642 H636 0.949 . S
C642 C646 1.368 . S
C643 C624 1.429 . S
C643 C637 1.429 . S
C643 C644 1.523 . S
C644 C625 1.368 . S
C644 C638 1.368 . S
C644 C643 1.523 . S
C645 C629 1.429 . S
C645 C641 1.429 . S
C645 C646 1.523 . S
C646 C630 1.368 . S
C646 C642 1.368 . S
C646 C645 1.523 . S
H647 C622 0.950 . S
H648 C624 0.950 . S
H649 C625 0.949 . S
H650 C627 0.950 . S
H651 C629 0.950 . S
C652 C653 1.349 . S
C652 C654 1.327 . S
C652 H677 0.950 . S
C653 C652 1.349 . S
C653 C669 1.349 . S
C654 C652 1.327 . S
C654 C673 1.429 . S
C654 H678 0.950 . S
C655 C672 1.574 . S
C655 C674 1.368 . S
C655 H679 0.949 . S
H656 C660 0.949 . S
C657 C658 1.349 . S
C657 C659 1.327 . S
C657 H680 0.950 . S
C658 C657 1.349 . S
C658 C670 1.349 . S
C659 C657 1.327 . S
C659 C675 1.429 . S
C659 H681 0.950 . S
C660 H656 0.949 . S
C660 C668 1.574 . S
C660 C676 1.368 . S
H661 C669 0.950 . S
H662 C667 0.950 . S
H663 C668 0.949 . S
H664 C670 0.950 . S
H665 C671 0.950 . S
H666 C672 0.949 . S
C667 H662 0.950 . S
C667 C669 1.327 . S
C667 C673 1.429 . S
C668 C660 1.574 . S
C668 H663 0.949 . S
C668 C674 1.368 . S
C669 C653 1.349 . S
C669 H661 0.950 . S
C669 C667 1.327 . S
C670 C658 1.349 . S
C670 H664 0.950 . S
C670 C671 1.327 . S
C671 H665 0.950 . S
C671 C670 1.327 . S
C671 C675 1.429 . S
C672 C655 1.574 . S
C672 H666 0.949 . S
C672 C676 1.368 . S
C673 C654 1.429 . S
C673 C667 1.429 . S
C673 C674 1.523 . S
C674 C655 1.368 . S
C674 C668 1.368 . S
C674 C673 1.523 . S
C675 C659 1.429 . S
C675 C671 1.429 . S
C675 C676 1.523 . S
C676 C660 1.368 . S
C676 C672 1.368 . S
C676 C675 1.523 . S
H677 C652 0.950 . S
H678 C654 0.950 . S
H679 C655 0.949 . S
H680 C657 0.950 . S
H681 C659 0.950 . S
C682 C683 1.349 . S
C682 C684 1.327 . S
C682 H707 0.950 . S
C683 C682 1.349 . S
C683 C699 1.349 . S
C684 C682 1.327 . S
C684 C703 1.429 . S
C684 H708 0.950 . S
C685 C702 1.574 . S
C685 C704 1.368 . S
C685 H709 0.949 . S
H686 C690 0.949 . S
C687 C688 1.349 . S
C687 C689 1.327 . S
C687 H710 0.950 . S
C688 C687 1.349 . S
C688 C700 1.349 . S
C689 C687 1.327 . S
C689 C705 1.429 . S
C689 H711 0.950 . S
C690 H686 0.949 . S
C690 C698 1.574 . S
C690 C706 1.368 . S
H691 C699 0.950 . S
H692 C697 0.950 . S
H693 C698 0.949 . S
H694 C700 0.950 . S
H695 C701 0.950 . S
H696 C702 0.949 . S
C697 H692 0.950 . S
C697 C699 1.327 . S
C697 C703 1.429 . S
C698 C690 1.574 . S
C698 H693 0.949 . S
C698 C704 1.368 . S
C699 C683 1.349 . S
C699 H691 0.950 . S
C699 C697 1.327 . S
C700 C688 1.349 . S
C700 H694 0.950 . S
C700 C701 1.327 . S
C701 H695 0.950 . S
C701 C700 1.327 . S
C701 C705 1.429 . S
C702 C685 1.574 . S
C702 H696 0.949 . S
C702 C706 1.368 . S
C703 C684 1.429 . S
C703 C697 1.429 . S
C703 C704 1.523 . S
C704 C685 1.368 . S
C704 C698 1.368 . S
C704 C703 1.523 . S
C705 C689 1.429 . S
C705 C701 1.429 . S
C705 C706 1.523 . S
C706 C690 1.368 . S
C706 C702 1.368 . S
C706 C705 1.523 . S
H707 C682 0.950 . S
H708 C684 0.950 . S
H709 C685 0.949 . S
H710 C687 0.950 . S
H711 C689 0.950 . S
C712 C713 1.349 . S
C712 C714 1.327 . S
C712 H737 0.950 . S
C713 C712 1.349 . S
C713 C729 1.349 . S
C714 C712 1.327 . S
C714 C733 1.429 . S
C714 H738 0.950 . S
C715 C732 1.574 . S
C715 C734 1.368 . S
C715 H739 0.949 . S
H716 C720 0.949 . S
C717 C718 1.349 . S
C717 C719 1.327 . S
C717 H740 0.950 . S
C718 C717 1.349 . S
C718 C730 1.349 . S
C719 C717 1.327 . S
C719 C735 1.429 . S
C719 H741 0.950 . S
C720 H716 0.949 . S
C720 C728 1.574 . S
C720 C736 1.368 . S
H721 C729 0.950 . S
H722 C727 0.950 . S
H723 C728 0.949 . S
H724 C730 0.950 . S
H725 C731 0.950 . S
H726 C732 0.949 . S
C727 H722 0.950 . S
C727 C729 1.327 . S
C727 C733 1.429 . S
C728 C720 1.574 . S
C728 H723 0.949 . S
C728 C734 1.368 . S
C729 C713 1.349 . S
C729 H721 0.950 . S
C729 C727 1.327 . S
C730 C718 1.349 . S
C730 H724 0.950 . S
C730 C731 1.327 . S
C731 H725 0.950 . S
C731 C730 1.327 . S
C731 C735 1.429 . S
C732 C715 1.574 . S
C732 H726 0.949 . S
C732 C736 1.368 . S
C733 C714 1.429 . S
C733 C727 1.429 . S
C733 C734 1.523 . S
C734 C715 1.368 . S
C734 C728 1.368 . S
C734 C733 1.523 . S
C735 C719 1.429 . S
C735 C731 1.429 . S
C735 C736 1.523 . S
C736 C720 1.368 . S
C736 C732 1.368 . S
C736 C735 1.523 . S
H737 C712 0.950 . S
H738 C714 0.950 . S
H739 C715 0.949 . S
H740 C717 0.950 . S
H741 C719 0.950 . S
C742 C743 1.349 . S
C742 C744 1.327 . S
C742 H767 0.950 . S
C743 C742 1.349 . S
C743 C759 1.349 . S
C744 C742 1.327 . S
C744 C763 1.429 . S
C744 H768 0.950 . S
C745 C762 1.574 . S
C745 C764 1.368 . S
C745 H769 0.949 . S
H746 C750 0.949 . S
C747 C748 1.349 . S
C747 C749 1.327 . S
C747 H770 0.950 . S
C748 C747 1.349 . S
C748 C760 1.349 . S
C749 C747 1.327 . S
C749 C765 1.429 . S
C749 H771 0.950 . S
C750 H746 0.949 . S
C750 C758 1.574 . S
C750 C766 1.368 . S
H751 C759 0.950 . S
H752 C757 0.950 . S
H753 C758 0.949 . S
H754 C760 0.950 . S
H755 C761 0.950 . S
H756 C762 0.949 . S
C757 H752 0.950 . S
C757 C759 1.327 . S
C757 C763 1.429 . S
C758 C750 1.574 . S
C758 H753 0.949 . S
C758 C764 1.368 . S
C759 C743 1.349 . S
C759 H751 0.950 . S
C759 C757 1.327 . S
C760 C748 1.349 . S
C760 H754 0.950 . S
C760 C761 1.327 . S
C761 H755 0.950 . S
C761 C760 1.327 . S
C761 C765 1.429 . S
C762 C745 1.574 . S
C762 H756 0.949 . S
C762 C766 1.368 . S
C763 C744 1.429 . S
C763 C757 1.429 . S
C763 C764 1.523 . S
C764 C745 1.368 . S
C764 C758 1.368 . S
C764 C763 1.523 . S
C765 C749 1.429 . S
C765 C761 1.429 . S
C765 C766 1.523 . S
C766 C750 1.368 . S
C766 C762 1.368 . S
C766 C765 1.523 . S
H767 C742 0.950 . S
H768 C744 0.950 . S
H769 C745 0.949 . S
H770 C747 0.950 . S
H771 C749 0.950 . S
C772 C773 1.349 . S
C772 C774 1.327 . S
C772 H797 0.950 . S
C773 C772 1.349 . S
C773 C789 1.349 . S
C774 C772 1.327 . S
C774 C793 1.429 . S
C774 H798 0.950 . S
C775 C792 1.574 . S
C775 C794 1.368 . S
C775 H799 0.949 . S
H776 C780 0.949 . S
C777 C778 1.349 . S
C777 C779 1.327 . S
C777 H800 0.950 . S
C778 C777 1.349 . S
C778 C790 1.349 . S
C779 C777 1.327 . S
C779 C795 1.429 . S
C779 H801 0.950 . S
C780 H776 0.949 . S
C780 C788 1.574 . S
C780 C796 1.368 . S
H781 C789 0.950 . S
H782 C787 0.950 . S
H783 C788 0.949 . S
H784 C790 0.950 . S
H785 C791 0.950 . S
H786 C792 0.949 . S
C787 H782 0.950 . S
C787 C789 1.327 . S
C787 C793 1.429 . S
C788 C780 1.574 . S
C788 H783 0.949 . S
C788 C794 1.368 . S
C789 C773 1.349 . S
C789 H781 0.950 . S
C789 C787 1.327 . S
C790 C778 1.349 . S
C790 H784 0.950 . S
C790 C791 1.327 . S
C791 H785 0.950 . S
C791 C790 1.327 . S
C791 C795 1.429 . S
C792 C775 1.574 . S
C792 H786 0.949 . S
C792 C796 1.368 . S
C793 C774 1.429 . S
C793 C787 1.429 . S
C793 C794 1.523 . S
C794 C775 1.368 . S
C794 C788 1.368 . S
C794 C793 1.523 . S
C795 C779 1.429 . S
C795 C791 1.429 . S
C795 C796 1.523 . S
C796 C780 1.368 . S
C796 C792 1.368 . S
C796 C795 1.523 . S
H797 C772 0.950 . S
H798 C774 0.950 . S
H799 C775 0.949 . S
H800 C777 0.950 . S
H801 C779 0.950 . S
C802 C803 1.349 . S
C802 C804 1.327 . S
C802 H827 0.950 . S
C803 C802 1.349 . S
C803 C819 1.349 . S
C804 C802 1.327 . S
C804 C823 1.429 . S
C804 H828 0.950 . S
C805 C822 1.574 . S
C805 C824 1.368 . S
C805 H829 0.949 . S
H806 C810 0.949 . S
C807 C808 1.349 . S
C807 C809 1.327 . S
C807 H830 0.950 . S
C808 C807 1.349 . S
C808 C820 1.349 . S
C809 C807 1.327 . S
C809 C825 1.429 . S
C809 H831 0.950 . S
C810 H806 0.949 . S
C810 C818 1.574 . S
C810 C826 1.368 . S
H811 C819 0.950 . S
H812 C817 0.950 . S
H813 C818 0.949 . S
H814 C820 0.950 . S
H815 C821 0.950 . S
H816 C822 0.949 . S
C817 H812 0.950 . S
C817 C819 1.327 . S
C817 C823 1.429 . S
C818 C810 1.574 . S
C818 H813 0.949 . S
C818 C824 1.368 . S
C819 C803 1.349 . S
C819 H811 0.950 . S
C819 C817 1.327 . S
C820 C808 1.349 . S
C820 H814 0.950 . S
C820 C821 1.327 . S
C821 H815 0.950 . S
C821 C820 1.327 . S
C821 C825 1.429 . S
C822 C805 1.574 . S
C822 H816 0.949 . S
C822 C826 1.368 . S
C823 C804 1.429 . S
C823 C817 1.429 . S
C823 C824 1.523 . S
C824 C805 1.368 . S
C824 C818 1.368 . S
C824 C823 1.523 . S
C825 C809 1.429 . S
C825 C821 1.429 . S
C825 C826 1.523 . S
C826 C810 1.368 . S
C826 C822 1.368 . S
C826 C825 1.523 . S
H827 C802 0.950 . S
H828 C804 0.950 . S
H829 C805 0.949 . S
H830 C807 0.950 . S
H831 C809 0.950 . S
C832 C833 1.349 . S
C832 C834 1.327 . S
C832 H857 0.950 . S
C833 C832 1.349 . S
C833 C849 1.349 . S
C834 C832 1.327 . S
C834 C853 1.429 . S
C834 H858 0.950 . S
C835 C852 1.574 . S
C835 C854 1.368 . S
C835 H859 0.949 . S
H836 C840 0.949 . S
C837 C838 1.349 . S
C837 C839 1.327 . S
C837 H860 0.950 . S
C838 C837 1.349 . S
C838 C850 1.349 . S
C839 C837 1.327 . S
C839 C855 1.429 . S
C839 H861 0.950 . S
C840 H836 0.949 . S
C840 C848 1.574 . S
C840 C856 1.368 . S
H841 C849 0.950 . S
H842 C847 0.950 . S
H843 C848 0.949 . S
H844 C850 0.950 . S
H845 C851 0.950 . S
H846 C852 0.949 . S
C847 H842 0.950 . S
C847 C849 1.327 . S
C847 C853 1.429 . S
C848 C840 1.574 . S
C848 H843 0.949 . S
C848 C854 1.368 . S
C849 C833 1.349 . S
C849 H841 0.950 . S
C849 C847 1.327 . S
C850 C838 1.349 . S
C850 H844 0.950 . S
C850 C851 1.327 . S
C851 H845 0.950 . S
C851 C850 1.327 . S
C851 C855 1.429 . S
C852 C835 1.574 . S
C852 H846 0.949 . S
C852 C856 1.368 . S
C853 C834 1.429 . S
C853 C847 1.429 . S
C853 C854 1.523 . S
C854 C835 1.368 . S
C854 C848 1.368 . S
C854 C853 1.523 . S
C855 C839 1.429 . S
C855 C851 1.429 . S
C855 C856 1.523 . S
C856 C840 1.368 . S
C856 C852 1.368 . S
C856 C855 1.523 . S
H857 C832 0.950 . S
H858 C834 0.950 . S
H859 C835 0.949 . S
H860 C837 0.950 . S
H861 C839 0.950 . S
C862 C863 1.349 . S
C862 C864 1.327 . S
C862 H887 0.950 . S
C863 C862 1.349 . S
C863 C879 1.349 . S
C864 C862 1.327 . S
C864 C883 1.429 . S
C864 H888 0.950 . S
C865 C882 1.574 . S
C865 C884 1.368 . S
C865 H889 0.949 . S
H866 C870 0.949 . S
C867 C868 1.349 . S
C867 C869 1.327 . S
C867 H890 0.950 . S
C868 C867 1.349 . S
C868 C880 1.349 . S
C869 C867 1.327 . S
C869 C885 1.429 . S
C869 H891 0.950 . S
C870 H866 0.949 . S
C870 C878 1.574 . S
C870 C886 1.368 . S
H871 C879 0.950 . S
H872 C877 0.950 . S
H873 C878 0.949 . S
H874 C880 0.950 . S
H875 C881 0.950 . S
H876 C882 0.949 . S
C877 H872 0.950 . S
C877 C879 1.327 . S
C877 C883 1.429 . S
C878 C870 1.574 . S
C878 H873 0.949 . S
C878 C884 1.368 . S
C879 C863 1.349 . S
C879 H871 0.950 . S
C879 C877 1.327 . S
C880 C868 1.349 . S
C880 H874 0.950 . S
C880 C881 1.327 . S
C881 H875 0.950 . S
C881 C880 1.327 . S
C881 C885 1.429 . S
C882 C865 1.574 . S
C882 H876 0.949 . S
C882 C886 1.368 . S
C883 C864 1.429 . S
C883 C877 1.429 . S
C883 C884 1.523 . S
C884 C865 1.368 . S
C884 C878 1.368 . S
C884 C883 1.523 . S
C885 C869 1.429 . S
C885 C881 1.429 . S
C885 C886 1.523 . S
C886 C870 1.368 . S
C886 C882 1.368 . S
C886 C885 1.523 . S
H887 C862 0.950 . S
H888 C864 0.950 . S
H889 C865 0.949 . S
H890 C867 0.950 . S
H891 C869 0.950 . S
C892 C893 1.349 . S
C892 C894 1.327 . S
C892 H917 0.950 . S
C893 C892 1.349 . S
C893 C909 1.349 . S
C894 C892 1.327 . S
C894 C913 1.429 . S
C894 H918 0.950 . S
C895 C912 1.574 . S
C895 C914 1.368 . S
C895 H919 0.949 . S
H896 C900 0.949 . S
C897 C898 1.349 . S
C897 C899 1.327 . S
C897 H920 0.950 . S
C898 C897 1.349 . S
C898 C910 1.349 . S
C899 C897 1.327 . S
C899 C915 1.429 . S
C899 H921 0.950 . S
C900 H896 0.949 . S
C900 C908 1.574 . S
C900 C916 1.368 . S
H901 C909 0.950 . S
H902 C907 0.950 . S
H903 C908 0.949 . S
H904 C910 0.950 . S
H905 C911 0.950 . S
H906 C912 0.949 . S
C907 H902 0.950 . S
C907 C909 1.327 . S
C907 C913 1.429 . S
C908 C900 1.574 . S
C908 H903 0.949 . S
C908 C914 1.368 . S
C909 C893 1.349 . S
C909 H901 0.950 . S
C909 C907 1.327 . S
C910 C898 1.349 . S
C910 H904 0.950 . S
C910 C911 1.327 . S
C911 H905 0.950 . S
C911 C910 1.327 . S
C911 C915 1.429 . S
C912 C895 1.574 . S
C912 H906 0.949 . S
C912 C916 1.368 . S
C913 C894 1.429 . S
C913 C907 1.429 . S
C913 C914 1.523 . S
C914 C895 1.368 . S
C914 C908 1.368 . S
C914 C913 1.523 . S
C915 C899 1.429 . S
C915 C911 1.429 . S
C915 C916 1.523 . S
C916 C900 1.368 . S
C916 C912 1.368 . S
C916 C915 1.523 . S
H917 C892 0.950 . S
H918 C894 0.950 . S
H919 C895 0.949 . S
H920 C897 0.950 . S
H921 C899 0.950 . S
C922 C923 1.349 . S
C922 C924 1.327 . S
C922 H947 0.950 . S
C923 C922 1.349 . S
C923 C939 1.349 . S
C924 C922 1.327 . S
C924 C943 1.429 . S
C924 H948 0.950 . S
C925 C942 1.574 . S
C925 C944 1.368 . S
C925 H949 0.949 . S
H926 C930 0.949 . S
C927 C928 1.349 . S
C927 C929 1.327 . S
C927 H950 0.950 . S
C928 C927 1.349 . S
C928 C940 1.349 . S
C929 C927 1.327 . S
C929 C945 1.429 . S
C929 H951 0.950 . S
C930 H926 0.949 . S
C930 C938 1.574 . S
C930 C946 1.368 . S
H931 C939 0.950 . S
H932 C937 0.950 . S
H933 C938 0.949 . S
H934 C940 0.950 1_455 S
H935 C941 0.950 . S
H936 C942 0.949 . S
C937 H932 0.950 . S
C937 C939 1.327 . S
C937 C943 1.429 . S
C938 C930 1.574 . S
C938 H933 0.949 . S
C938 C944 1.368 . S
C939 C923 1.349 . S
C939 H931 0.950 . S
C939 C937 1.327 . S
C940 C928 1.349 . S
C940 H934 0.950 1_655 S
C940 C941 1.327 . S
C941 H935 0.950 . S
C941 C940 1.327 . S
C941 C945 1.429 . S
C942 C925 1.574 . S
C942 H936 0.949 . S
C942 C946 1.368 . S
C943 C924 1.429 . S
C943 C937 1.429 . S
C943 C944 1.523 . S
C944 C925 1.368 . S
C944 C938 1.368 . S
C944 C943 1.523 . S
C945 C929 1.429 . S
C945 C941 1.429 . S
C945 C946 1.523 . S
C946 C930 1.368 . S
C946 C942 1.368 . S
C946 C945 1.523 . S
H947 C922 0.950 . S
H948 C924 0.950 . S
H949 C925 0.949 . S
H950 C927 0.950 . S
H951 C929 0.950 . S
C952 C953 1.349 . S
C952 C954 1.327 . S
C952 H977 0.950 . S
C953 C952 1.349 . S
C953 C969 1.349 . S
C954 C952 1.327 . S
C954 C973 1.429 . S
C954 H978 0.950 . S
C955 C972 1.574 . S
C955 C974 1.368 . S
C955 H979 0.949 . S
H956 C960 0.949 . S
C957 C958 1.349 1_565 S
C957 C959 1.327 . S
C957 H980 0.950 . S
C958 C957 1.349 1_545 S
C958 C970 1.349 . S
C959 C957 1.327 . S
C959 C975 1.429 . S
C959 H981 0.950 . S
C960 H956 0.949 . S
C960 C968 1.574 . S
C960 C976 1.368 . S
H961 C969 0.950 . S
H962 C967 0.950 . S
H963 C968 0.949 . S
H964 C970 0.950 . S
H965 C971 0.950 . S
H966 C972 0.949 . S
C967 H962 0.950 . S
C967 C969 1.327 . S
C967 C973 1.429 . S
C968 C960 1.574 . S
C968 H963 0.949 . S
C968 C974 1.368 . S
C969 C953 1.349 . S
C969 H961 0.950 . S
C969 C967 1.327 . S
C970 C958 1.349 . S
C970 H964 0.950 . S
C970 C971 1.327 1_545 S
C971 H965 0.950 . S
C971 C970 1.327 1_565 S
C971 C975 1.429 . S
C972 C955 1.574 . S
C972 H966 0.949 . S
C972 C976 1.368 . S
C973 C954 1.429 . S
C973 C967 1.429 . S
C973 C974 1.523 . S
C974 C955 1.368 . S
C974 C968 1.368 . S
C974 C973 1.523 . S
C975 C959 1.429 . S
C975 C971 1.429 . S
C975 C976 1.523 . S
C976 C960 1.368 . S
C976 C972 1.368 . S
C976 C975 1.523 . S
H977 C952 0.950 . S
H978 C954 0.950 . S
H979 C955 0.949 . S
H980 C957 0.950 . S
H981 C959 0.950 . S
C982 C983 1.349 . S
C982 C984 1.327 . S
C982 H1007 0.950 . S
C983 C982 1.349 . S
C983 C999 1.349 . S
C984 C982 1.327 . S
C984 C1003 1.429 . S
C984 H1008 0.950 . S
C985 C1002 1.574 . S
C985 C1004 1.368 . S
C985 H1009 0.949 . S
H986 C990 0.949 . S
C987 C988 1.349 . S
C987 C989 1.327 . S
C987 H1010 0.950 . S
C988 C987 1.349 . S
C988 C1000 1.349 . S
C989 C987 1.327 . S
C989 C1005 1.429 . S
C989 H1011 0.950 . S
C990 H986 0.949 . S
C990 C998 1.574 . S
C990 C1006 1.368 . S
H991 C999 0.950 . S
H992 C997 0.950 . S
H993 C998 0.949 . S
H994 C1000 0.950 . S
H995 C1001 0.950 . S
H996 C1002 0.949 . S
C997 H992 0.950 . S
C997 C999 1.327 . S
C997 C1003 1.429 . S
C998 C990 1.574 . S
C998 H993 0.949 . S
C998 C1004 1.368 . S
C999 C983 1.349 . S
C999 H991 0.950 . S
C999 C997 1.327 . S
C1000 C988 1.349 . S
C1000 H994 0.950 . S
C1000 C1001 1.327 . S
C1001 H995 0.950 . S
C1001 C1000 1.327 . S
C1001 C1005 1.429 . S
C1002 C985 1.574 . S
C1002 H996 0.949 . S
C1002 C1006 1.368 . S
C1003 C984 1.429 . S
C1003 C997 1.429 . S
C1003 C1004 1.523 . S
C1004 C985 1.368 . S
C1004 C998 1.368 . S
C1004 C1003 1.523 . S
C1005 C989 1.429 . S
C1005 C1001 1.429 . S
C1005 C1006 1.523 . S
C1006 C990 1.368 . S
C1006 C1002 1.368 . S
C1006 C1005 1.523 . S
H1007 C982 0.950 . S
H1008 C984 0.950 . S
H1009 C985 0.949 . S
H1010 C987 0.950 . S
H1011 C989 0.950 . S
C1012 C1013 1.349 . S
C1012 C1014 1.327 . S
C1012 H1037 0.950 . S
C1013 C1012 1.349 . S
C1013 C1029 1.349 . S
C1014 C1012 1.327 . S
C1014 C1033 1.429 . S
C1014 H1038 0.950 . S
C1015 C1032 1.574 1_556 S
C1015 C1034 1.368 . S
C1015 H1039 0.949 . S
H1016 C1020 0.949 . S
C1017 C1018 1.349 . S
C1017 C1019 1.327 . S
C1017 H1040 0.950 . S
C1018 C1017 1.349 . S
C1018 C1030 1.349 . S
C1019 C1017 1.327 . S
C1019 C1035 1.429 . S
C1019 H1041 0.950 . S
C1020 H1016 0.949 . S
C1020 C1028 1.603 . S
C1020 C1036 1.368 . S
H1021 C1029 0.950 . S
H1022 C1027 0.950 . S
H1023 C1028 0.939 1_556 S
H1024 C1030 0.950 . S
H1025 C1031 0.950 1_545 S
H1026 C1032 0.949 1_565 S
C1027 H1022 0.950 . S
C1027 C1029 1.327 . S
C1027 C1033 1.429 . S
C1028 C1020 1.603 . S
C1028 H1023 0.939 1_554 S
C1028 C1034 1.352 1_554 S
C1029 C1013 1.349 . S
C1029 H1021 0.950 . S
C1029 C1027 1.327 . S
C1030 C1018 1.349 . S
C1030 H1024 0.950 . S
C1030 C1031 1.327 . S
C1031 H1025 0.950 1_565 S
C1031 C1030 1.327 . S
C1031 C1035 1.429 . S
C1032 C1015 1.574 1_554 S
C1032 H1026 0.949 1_545 S
C1032 C1036 1.368 . S
C1033 C1014 1.429 . S
C1033 C1027 1.429 . S
C1033 C1034 1.523 . S
C1034 C1015 1.368 . S
C1034 C1028 1.352 1_556 S
C1034 C1033 1.523 . S
C1035 C1019 1.429 . S
C1035 C1031 1.429 . S
C1035 C1036 1.523 1_565 S
C1036 C1020 1.368 . S
C1036 C1032 1.368 . S
C1036 C1035 1.523 1_545 S
H1037 C1012 0.950 . S
H1038 C1014 0.950 . S
H1039 C1015 0.949 . S
H1040 C1017 0.950 . S
H1041 C1019 0.950 . S
C1042 C1043 1.349 . S
C1042 C1044 1.327 . S
C1042 H1067 0.950 . S
C1043 C1042 1.349 . S
C1043 C1059 1.349 . S
C1044 C1042 1.327 . S
C1044 C1063 1.429 . S
C1044 H1068 0.950 . S
C1045 C1062 1.574 . S
C1045 C1064 1.368 . S
C1045 H1069 0.949 . S
H1046 C1050 0.949 . S
C1047 C1048 1.349 . S
C1047 C1049 1.327 . S
C1047 H1070 0.950 . S
C1048 C1047 1.349 . S
C1048 C1060 1.349 . S
C1049 C1047 1.327 . S
C1049 C1065 1.429 . S
C1049 H1071 0.950 . S
C1050 H1046 0.949 . S
C1050 C1058 1.574 . S
C1050 C1066 1.368 . S
H1051 C1059 0.950 . S
H1052 C1057 0.950 . S
H1053 C1058 0.949 . S
H1054 C1060 0.950 . S
H1055 C1061 0.950 . S
H1056 C1062 0.949 . S
C1057 H1052 0.950 . S
C1057 C1059 1.327 . S
C1057 C1063 1.429 . S
C1058 C1050 1.574 . S
C1058 H1053 0.949 . S
C1058 C1064 1.368 . S
C1059 C1043 1.349 . S
C1059 H1051 0.950 . S
C1059 C1057 1.327 . S
C1060 C1048 1.349 . S
C1060 H1054 0.950 . S
C1060 C1061 1.327 . S
C1061 H1055 0.950 . S
C1061 C1060 1.327 . S
C1061 C1065 1.429 . S
C1062 C1045 1.574 . S
C1062 H1056 0.949 . S
C1062 C1066 1.368 . S
C1063 C1044 1.429 . S
C1063 C1057 1.429 . S
C1063 C1064 1.523 . S
C1064 C1045 1.368 . S
C1064 C1058 1.368 . S
C1064 C1063 1.523 . S
C1065 C1049 1.429 . S
C1065 C1061 1.429 . S
C1065 C1066 1.523 . S
C1066 C1050 1.368 . S
C1066 C1062 1.368 . S
C1066 C1065 1.523 . S
H1067 C1042 0.950 . S
H1068 C1044 0.950 . S
H1069 C1045 0.949 . S
H1070 C1047 0.950 . S
H1071 C1049 0.950 . S
C1072 C1073 1.349 . S
C1072 C1074 1.327 1_565 S
C1072 H1097 0.950 . S
C1073 C1072 1.349 . S
C1073 C1089 1.349 . S
C1074 C1072 1.327 1_545 S
C1074 C1093 1.429 . S
C1074 H1098 0.950 . S
C1075 C1092 1.574 . S
C1075 C1094 1.368 . S
C1075 H1099 0.949 . S
H1076 C1080 0.949 . S
C1077 C1078 1.349 . S
C1077 C1079 1.327 . S
C1077 H1100 0.950 . S
C1078 C1077 1.349 . S
C1078 C1090 1.349 . S
C1079 C1077 1.327 . S
C1079 C1095 1.429 . S
C1079 H1101 0.950 . S
C1080 H1076 0.949 . S
C1080 C1088 1.574 . S
C1080 C1096 1.368 . S
H1081 C1089 0.950 . S
H1082 C1087 0.943 . S
H1083 C1088 0.949 . S
H1084 C1090 0.950 . S
H1085 C1091 0.950 . S
H1086 C1092 0.949 . S
C1087 H1082 0.943 . S
C1087 C1089 1.327 . S
C1087 C1093 1.429 1_565 S
C1088 C1080 1.574 . S
C1088 H1083 0.949 . S
C1088 C1094 1.368 . S
C1089 C1073 1.349 . S
C1089 H1081 0.950 . S
C1089 C1087 1.327 . S
C1090 C1078 1.349 . S
C1090 H1084 0.950 . S
C1090 C1091 1.327 . S
C1091 H1085 0.950 . S
C1091 C1090 1.327 . S
C1091 C1095 1.429 . S
C1092 C1075 1.574 . S
C1092 H1086 0.949 . S
C1092 C1096 1.368 . S
C1093 C1074 1.429 . S
C1093 C1087 1.429 1_545 S
C1093 C1094 1.523 . S
C1094 C1075 1.368 . S
C1094 C1088 1.368 . S
C1094 C1093 1.523 . S
C1095 C1079 1.429 . S
C1095 C1091 1.429 . S
C1095 C1096 1.523 . S
C1096 C1080 1.368 . S
C1096 C1092 1.368 . S
C1096 C1095 1.523 . S
H1097 C1072 0.950 . S
H1098 C1074 0.950 . S
H1099 C1075 0.949 . S
H1100 C1077 0.950 . S
H1101 C1079 0.950 . S
C1102 C1103 1.349 . S
C1102 C1104 1.327 . S
C1102 H1127 0.950 . S
C1103 C1102 1.349 . S
C1103 C1119 1.349 . S
C1104 C1102 1.327 . S
C1104 C1123 1.429 . S
C1104 H1128 0.950 . S
C1105 C1122 1.574 . S
C1105 C1124 1.368 . S
C1105 H1129 0.949 . S
H1106 C1110 0.949 . S
C1107 C1108 1.349 . S
C1107 C1109 1.327 . S
C1107 H1130 0.950 . S
C1108 C1107 1.349 . S
C1108 C1120 1.349 . S
C1109 C1107 1.327 . S
C1109 C1125 1.429 . S
C1109 H1131 0.950 . S
C1110 H1106 0.949 . S
C1110 C1118 1.574 . S
C1110 C1126 1.368 . S
H1111 C1119 0.950 . S
H1112 C1117 0.950 . S
H1113 C1118 0.949 . S
H1114 C1120 0.950 . S
H1115 C1121 0.950 . S
H1116 C1122 0.949 . S
C1117 H1112 0.950 . S
C1117 C1119 1.327 . S
C1117 C1123 1.429 . S
C1118 C1110 1.574 . S
C1118 H1113 0.949 . S
C1118 C1124 1.368 . S
C1119 C1103 1.349 . S
C1119 H1111 0.950 . S
C1119 C1117 1.327 . S
C1120 C1108 1.349 . S
C1120 H1114 0.950 . S
C1120 C1121 1.327 . S
C1121 H1115 0.950 . S
C1121 C1120 1.327 . S
C1121 C1125 1.429 . S
C1122 C1105 1.574 . S
C1122 H1116 0.949 . S
C1122 C1126 1.368 . S
C1123 C1104 1.429 . S
C1123 C1117 1.429 . S
C1123 C1124 1.523 . S
C1124 C1105 1.368 . S
C1124 C1118 1.368 . S
C1124 C1123 1.523 . S
C1125 C1109 1.429 . S
C1125 C1121 1.429 . S
C1125 C1126 1.523 . S
C1126 C1110 1.368 . S
C1126 C1122 1.368 . S
C1126 C1125 1.523 . S
H1127 C1102 0.950 . S
H1128 C1104 0.950 . S
H1129 C1105 0.949 . S
H1130 C1107 0.950 . S
H1131 C1109 0.950 . S
C1132 C1133 1.349 . S
C1132 C1134 1.327 . S
C1132 H1157 0.950 . S
C1133 C1132 1.349 . S
C1133 C1149 1.349 . S
C1134 C1132 1.327 . S
C1134 C1153 1.429 . S
C1134 H1158 0.950 . S
C1135 C1152 1.574 . S
C1135 C1154 1.368 . S
C1135 H1159 0.949 . S
H1136 C1140 0.949 . S
C1137 C1138 1.349 . S
C1137 C1139 1.327 . S
C1137 H1160 0.950 . S
C1138 C1137 1.349 . S
C1138 C1150 1.349 . S
C1139 C1137 1.327 . S
C1139 C1155 1.429 . S
C1139 H1161 0.950 . S
C1140 H1136 0.949 . S
C1140 C1148 1.574 . S
C1140 C1156 1.368 . S
H1141 C1149 0.950 . S
H1142 C1147 0.950 . S
H1143 C1148 0.949 . S
H1144 C1150 0.950 . S
H1145 C1151 0.950 . S
H1146 C1152 0.949 . S
C1147 H1142 0.950 . S
C1147 C1149 1.327 . S
C1147 C1153 1.429 . S
C1148 C1140 1.574 . S
C1148 H1143 0.949 . S
C1148 C1154 1.368 . S
C1149 C1133 1.349 . S
C1149 H1141 0.950 . S
C1149 C1147 1.327 . S
C1150 C1138 1.349 . S
C1150 H1144 0.950 . S
C1150 C1151 1.327 . S
C1151 H1145 0.950 . S
C1151 C1150 1.327 . S
C1151 C1155 1.429 . S
C1152 C1135 1.574 . S
C1152 H1146 0.949 . S
C1152 C1156 1.368 . S
C1153 C1134 1.429 . S
C1153 C1147 1.429 . S
C1153 C1154 1.523 1_565 S
C1154 C1135 1.368 . S
C1154 C1148 1.368 . S
C1154 C1153 1.523 1_545 S
C1155 C1139 1.429 . S
C1155 C1151 1.429 . S
C1155 C1156 1.523 . S
C1156 C1140 1.368 . S
C1156 C1152 1.368 . S
C1156 C1155 1.523 . S
H1157 C1132 0.950 . S
H1158 C1134 0.950 . S
H1159 C1135 0.949 . S
H1160 C1137 0.950 . S
H1161 C1139 0.950 . S
C1162 C1163 1.349 . S
C1162 C1164 1.327 . S
C1162 H1187 0.950 . S
C1163 C1162 1.349 . S
C1163 C1179 1.349 . S
C1164 C1162 1.327 . S
C1164 C1183 1.429 . S
C1164 H1188 0.950 . S
C1165 C1182 1.574 . S
C1165 C1184 1.368 . S
C1165 H1189 0.949 . S
H1166 C1170 0.949 . S
C1167 C1168 1.349 . S
C1167 C1169 1.327 . S
C1167 H1190 0.950 . S
C1168 C1167 1.349 . S
C1168 C1180 1.349 . S
C1169 C1167 1.327 . S
C1169 C1185 1.429 . S
C1169 H1191 0.950 . S
C1170 H1166 0.949 . S
C1170 C1178 1.574 . S
C1170 C1186 1.368 . S
H1171 C1179 0.950 . S
H1172 C1177 0.950 . S
H1173 C1178 0.949 . S
H1174 C1180 0.950 . S
H1175 C1181 0.950 . S
H1176 C1182 0.949 . S
C1177 H1172 0.950 . S
C1177 C1179 1.327 . S
C1177 C1183 1.429 . S
C1178 C1170 1.574 . S
C1178 H1173 0.949 . S
C1178 C1184 1.368 . S
C1179 C1163 1.349 . S
C1179 H1171 0.950 . S
C1179 C1177 1.327 . S
C1180 C1168 1.349 . S
C1180 H1174 0.950 . S
C1180 C1181 1.327 . S
C1181 H1175 0.950 . S
C1181 C1180 1.327 . S
C1181 C1185 1.429 . S
C1182 C1165 1.574 . S
C1182 H1176 0.949 . S
C1182 C1186 1.368 . S
C1183 C1164 1.429 . S
C1183 C1177 1.429 . S
C1183 C1184 1.523 . S
C1184 C1165 1.368 . S
C1184 C1178 1.368 . S
C1184 C1183 1.523 . S
C1185 C1169 1.429 . S
C1185 C1181 1.429 . S
C1185 C1186 1.523 . S
C1186 C1170 1.368 . S
C1186 C1182 1.368 . S
C1186 C1185 1.523 . S
H1187 C1162 0.950 . S
H1188 C1164 0.950 . S
H1189 C1165 0.949 . S
H1190 C1167 0.950 . S
H1191 C1169 0.950 . S
C1192 C1193 1.349 . S
C1192 C1194 1.327 . S
C1192 H1217 0.950 . S
C1193 C1192 1.349 . S
C1193 C1209 1.349 . S
C1194 C1192 1.327 . S
C1194 C1213 1.429 . S
C1194 H1218 0.950 . S
C1195 C1212 1.574 . S
C1195 C1214 1.368 . S
C1195 H1219 0.949 . S
H1196 C1200 0.949 . S
C1197 C1198 1.349 . S
C1197 C1199 1.327 . S
C1197 H1220 0.950 . S
C1198 C1197 1.349 . S
C1198 C1210 1.349 . S
C1199 C1197 1.327 . S
C1199 C1215 1.429 . S
C1199 H1221 0.950 . S
C1200 H1196 0.949 . S
C1200 C1208 1.574 . S
C1200 C1216 1.368 . S
H1201 C1209 0.950 . S
H1202 C1207 0.950 . S
H1203 C1208 0.949 . S
H1204 C1210 0.950 . S
H1205 C1211 0.950 . S
H1206 C1212 0.949 . S
C1207 H1202 0.950 . S
C1207 C1209 1.327 . S
C1207 C1213 1.429 . S
C1208 C1200 1.574 . S
C1208 H1203 0.949 . S
C1208 C1214 1.368 . S
C1209 C1193 1.349 . S
C1209 H1201 0.950 . S
C1209 C1207 1.327 . S
C1210 C1198 1.349 . S
C1210 H1204 0.950 . S
C1210 C1211 1.327 . S
C1211 H1205 0.950 . S
C1211 C1210 1.327 . S
C1211 C1215 1.429 . S
C1212 C1195 1.574 . S
C1212 H1206 0.949 . S
C1212 C1216 1.368 . S
C1213 C1194 1.429 . S
C1213 C1207 1.429 . S
C1213 C1214 1.523 . S
C1214 C1195 1.368 . S
C1214 C1208 1.368 . S
C1214 C1213 1.523 . S
C1215 C1199 1.429 . S
C1215 C1211 1.429 . S
C1215 C1216 1.523 . S
C1216 C1200 1.368 . S
C1216 C1212 1.368 . S
C1216 C1215 1.523 . S
H1217 C1192 0.950 . S
H1218 C1194 0.950 . S
H1219 C1195 0.949 . S
H1220 C1197 0.950 . S
H1221 C1199 0.950 . S
C1222 C1223 1.349 . S
C1222 C1224 1.327 . S
C1222 H1247 0.950 . S
C1223 C1222 1.349 . S
C1223 C1239 1.349 . S
C1224 C1222 1.327 . S
C1224 C1243 1.429 . S
C1224 H1248 0.950 . S
C1225 C1242 1.574 . S
C1225 C1244 1.368 . S
C1225 H1249 0.949 . S
H1226 C1230 0.949 . S
C1227 C1228 1.349 . S
C1227 C1229 1.327 . S
C1227 H1250 0.953 1_545 S
C1228 C1227 1.349 . S
C1228 C1240 1.349 . S
C1229 C1227 1.327 . S
C1229 C1245 1.429 . S
C1229 H1251 0.950 . S
C1230 H1226 0.949 . S
C1230 C1238 1.574 . S
C1230 C1246 1.368 . S
H1231 C1239 0.950 . S
H1232 C1237 0.950 . S
H1233 C1238 0.949 . S
H1234 C1240 0.950 . S
H1235 C1241 0.950 . S
H1236 C1242 0.949 . S
C1237 H1232 0.950 . S
C1237 C1239 1.327 . S
C1237 C1243 1.429 . S
C1238 C1230 1.574 . S
C1238 H1233 0.949 . S
C1238 C1244 1.368 . S
C1239 C1223 1.349 . S
C1239 H1231 0.950 . S
C1239 C1237 1.327 . S
C1240 C1228 1.349 . S
C1240 H1234 0.950 . S
C1240 C1241 1.327 . S
C1241 H1235 0.950 . S
C1241 C1240 1.327 . S
C1241 C1245 1.429 . S
C1242 C1225 1.574 . S
C1242 H1236 0.949 . S
C1242 C1246 1.368 . S
C1243 C1224 1.429 . S
C1243 C1237 1.429 . S
C1243 C1244 1.523 . S
C1244 C1225 1.368 . S
C1244 C1238 1.368 . S
C1244 C1243 1.523 . S
C1245 C1229 1.429 . S
C1245 C1241 1.429 . S
C1245 C1246 1.523 . S
C1246 C1230 1.368 . S
C1246 C1242 1.368 . S
C1246 C1245 1.523 . S
H1247 C1222 0.950 . S
H1248 C1224 0.950 . S
H1249 C1225 0.949 . S
H1250 C1227 0.953 1_565 S
H1251 C1229 0.950 . S
C1252 C1253 1.349 . S
C1252 C1254 1.327 . S
C1252 H1277 0.950 . S
C1253 C1252 1.349 . S
C1253 C1269 1.349 . S
C1254 C1252 1.327 . S
C1254 C1273 1.429 . S
C1254 H1278 0.950 . S
C1255 C1272 1.574 . S
C1255 C1274 1.368 . S
C1255 H1279 0.949 . S
H1256 C1260 0.949 . S
C1257 C1258 1.349 . S
C1257 C1259 1.327 . S
C1257 H1280 0.950 . S
C1258 C1257 1.349 . S
C1258 C1270 1.349 . S
C1259 C1257 1.327 . S
C1259 C1275 1.429 . S
C1259 H1281 0.950 . S
C1260 H1256 0.949 . S
C1260 C1268 1.574 . S
C1260 C1276 1.368 . S
H1261 C1269 0.950 . S
H1262 C1267 0.950 . S
H1263 C1268 0.949 . S
H1264 C1270 0.950 . S
H1265 C1271 0.950 . S
H1266 C1272 0.949 . S
C1267 H1262 0.950 . S
C1267 C1269 1.327 . S
C1267 C1273 1.429 . S
C1268 C1260 1.574 . S
C1268 H1263 0.949 . S
C1268 C1274 1.368 . S
C1269 C1253 1.349 . S
C1269 H1261 0.950 . S
C1269 C1267 1.327 . S
C1270 C1258 1.349 . S
C1270 H1264 0.950 . S
C1270 C1271 1.327 . S
C1271 H1265 0.950 . S
C1271 C1270 1.327 . S
C1271 C1275 1.429 . S
C1272 C1255 1.574 . S
C1272 H1266 0.949 . S
C1272 C1276 1.368 . S
C1273 C1254 1.429 . S
C1273 C1267 1.429 . S
C1273 C1274 1.523 . S
C1274 C1255 1.368 . S
C1274 C1268 1.368 . S
C1274 C1273 1.523 . S
C1275 C1259 1.429 . S
C1275 C1271 1.429 . S
C1275 C1276 1.523 . S
C1276 C1260 1.368 . S
C1276 C1272 1.368 . S
C1276 C1275 1.523 . S
H1277 C1252 0.950 . S
H1278 C1254 0.950 . S
H1279 C1255 0.949 . S
H1280 C1257 0.950 . S
H1281 C1259 0.950 . S
C1282 C1283 1.349 . S
C1282 C1284 1.327 . S
C1282 H1307 0.950 . S
C1283 C1282 1.349 . S
C1283 C1299 1.349 . S
C1284 C1282 1.327 . S
C1284 C1303 1.429 . S
C1284 H1308 0.950 . S
C1285 C1302 1.574 . S
C1285 C1304 1.368 . S
C1285 H1309 0.949 . S
H1286 C1290 0.949 . S
C1287 C1288 1.349 . S
C1287 C1289 1.327 . S
C1287 H1310 0.950 . S
C1288 C1287 1.349 . S
C1288 C1300 1.349 . S
C1289 C1287 1.327 . S
C1289 C1305 1.429 . S
C1289 H1311 0.950 . S
C1290 H1286 0.949 . S
C1290 C1298 1.574 . S
C1290 C1306 1.368 . S
H1291 C1299 0.950 . S
H1292 C1297 0.950 . S
H1293 C1298 0.949 . S
H1294 C1300 0.950 . S
H1295 C1301 0.950 . S
H1296 C1302 0.949 . S
C1297 H1292 0.950 . S
C1297 C1299 1.327 . S
C1297 C1303 1.429 . S
C1298 C1290 1.574 . S
C1298 H1293 0.949 . S
C1298 C1304 1.368 . S
C1299 C1283 1.349 . S
C1299 H1291 0.950 . S
C1299 C1297 1.327 . S
C1300 C1288 1.349 . S
C1300 H1294 0.950 . S
C1300 C1301 1.327 . S
C1301 H1295 0.950 . S
C1301 C1300 1.327 . S
C1301 C1305 1.429 . S
C1302 C1285 1.574 . S
C1302 H1296 0.949 . S
C1302 C1306 1.368 . S
C1303 C1284 1.429 . S
C1303 C1297 1.429 . S
C1303 C1304 1.523 . S
C1304 C1285 1.368 . S
C1304 C1298 1.368 . S
C1304 C1303 1.523 . S
C1305 C1289 1.429 . S
C1305 C1301 1.429 . S
C1305 C1306 1.523 . S
C1306 C1290 1.368 . S
C1306 C1302 1.368 . S
C1306 C1305 1.523 . S
H1307 C1282 0.950 . S
H1308 C1284 0.950 . S
H1309 C1285 0.949 . S
H1310 C1287 0.950 . S
H1311 C1289 0.950 . S
C1312 C1313 1.349 . S
C1312 C1314 1.327 . S
C1312 H1337 0.950 . S
C1313 C1312 1.349 . S
C1313 C1329 1.349 . S
C1314 C1312 1.327 . S
C1314 C1333 1.429 . S
C1314 H1338 0.950 . S
C1315 C1332 1.574 . S
C1315 C1334 1.368 . S
C1315 H1339 0.949 . S
H1316 C1320 0.949 . S
C1317 C1318 1.349 . S
C1317 C1319 1.327 . S
C1317 H1340 0.950 . S
C1318 C1317 1.349 . S
C1318 C1330 1.349 . S
C1319 C1317 1.327 . S
C1319 C1335 1.429 . S
C1319 H1341 0.950 . S
C1320 H1316 0.949 . S
C1320 C1328 1.574 . S
C1320 C1336 1.368 . S
H1321 C1329 0.950 . S
H1322 C1327 0.950 . S
H1323 C1328 0.949 . S
H1324 C1330 0.950 . S
H1325 C1331 0.950 . S
H1326 C1332 0.949 . S
C1327 H1322 0.950 . S
C1327 C1329 1.327 . S
C1327 C1333 1.429 . S
C1328 C1320 1.574 . S
C1328 H1323 0.949 . S
C1328 C1334 1.368 . S
C1329 C1313 1.349 . S
C1329 H1321 0.950 . S
C1329 C1327 1.327 . S
C1330 C1318 1.349 . S
C1330 H1324 0.950 . S
C1330 C1331 1.327 . S
C1331 H1325 0.950 . S
C1331 C1330 1.327 . S
C1331 C1335 1.429 . S
C1332 C1315 1.574 . S
C1332 H1326 0.949 . S
C1332 C1336 1.368 . S
C1333 C1314 1.429 . S
C1333 C1327 1.429 . S
C1333 C1334 1.523 . S
C1334 C1315 1.368 . S
C1334 C1328 1.368 . S
C1334 C1333 1.523 . S
C1335 C1319 1.429 . S
C1335 C1331 1.429 . S
C1335 C1336 1.523 . S
C1336 C1320 1.368 . S
C1336 C1332 1.368 . S
C1336 C1335 1.523 . S
H1337 C1312 0.950 . S
H1338 C1314 0.950 . S
H1339 C1315 0.949 . S
H1340 C1317 0.950 . S
H1341 C1319 0.950 . S
C1342 C1343 1.349 . S
C1342 C1344 1.327 . S
C1342 H1367 0.950 . S
C1343 C1342 1.349 . S
C1343 C1359 1.349 . S
C1344 C1342 1.327 . S
C1344 C1363 1.429 . S
C1344 H1368 0.950 . S
C1345 C1362 1.574 . S
C1345 C1364 1.368 . S
C1345 H1369 0.949 . S
H1346 C1350 0.949 . S
C1347 C1348 1.349 . S
C1347 C1349 1.327 . S
C1347 H1370 0.950 . S
C1348 C1347 1.349 . S
C1348 C1360 1.349 . S
C1349 C1347 1.327 . S
C1349 C1365 1.429 . S
C1349 H1371 0.950 . S
C1350 H1346 0.949 . S
C1350 C1358 1.574 . S
C1350 C1366 1.368 . S
H1351 C1359 0.950 . S
H1352 C1357 0.950 . S
H1353 C1358 0.949 . S
H1354 C1360 0.950 . S
H1355 C1361 0.950 . S
H1356 C1362 0.949 . S
C1357 H1352 0.950 . S
C1357 C1359 1.327 . S
C1357 C1363 1.429 . S
C1358 C1350 1.574 . S
C1358 H1353 0.949 . S
C1358 C1364 1.368 . S
C1359 C1343 1.349 . S
C1359 H1351 0.950 . S
C1359 C1357 1.327 . S
C1360 C1348 1.349 . S
C1360 H1354 0.950 . S
C1360 C1361 1.327 . S
C1361 H1355 0.950 . S
C1361 C1360 1.327 . S
C1361 C1365 1.429 . S
C1362 C1345 1.574 . S
C1362 H1356 0.949 . S
C1362 C1366 1.368 . S
C1363 C1344 1.429 . S
C1363 C1357 1.429 . S
C1363 C1364 1.523 . S
C1364 C1345 1.368 . S
C1364 C1358 1.368 . S
C1364 C1363 1.523 . S
C1365 C1349 1.429 . S
C1365 C1361 1.429 . S
C1365 C1366 1.523 . S
C1366 C1350 1.368 . S
C1366 C1362 1.368 . S
C1366 C1365 1.523 . S
H1367 C1342 0.950 . S
H1368 C1344 0.950 . S
H1369 C1345 0.949 . S
H1370 C1347 0.950 . S
H1371 C1349 0.950 . S
C1372 C1373 1.349 . S
C1372 C1374 1.327 . S
C1372 H1397 0.950 . S
C1373 C1372 1.349 . S
C1373 C1389 1.349 . S
C1374 C1372 1.327 . S
C1374 C1393 1.429 . S
C1374 H1398 0.950 . S
C1375 C1392 1.574 . S
C1375 C1394 1.368 . S
C1375 H1399 0.949 . S
H1376 C1380 0.949 . S
C1377 C1378 1.349 . S
C1377 C1379 1.327 . S
C1377 H1400 0.950 . S
C1378 C1377 1.349 . S
C1378 C1390 1.349 . S
C1379 C1377 1.327 . S
C1379 C1395 1.429 . S
C1379 H1401 0.950 . S
C1380 H1376 0.949 . S
C1380 C1388 1.574 . S
C1380 C1396 1.368 . S
H1381 C1389 0.950 . S
H1382 C1387 0.950 . S
H1383 C1388 0.949 . S
H1384 C1390 0.950 . S
H1385 C1391 0.950 . S
H1386 C1392 0.949 . S
C1387 H1382 0.950 . S
C1387 C1389 1.327 . S
C1387 C1393 1.429 . S
C1388 C1380 1.574 . S
C1388 H1383 0.949 . S
C1388 C1394 1.368 . S
C1389 C1373 1.349 . S
C1389 H1381 0.950 . S
C1389 C1387 1.327 . S
C1390 C1378 1.349 . S
C1390 H1384 0.950 . S
C1390 C1391 1.327 . S
C1391 H1385 0.950 . S
C1391 C1390 1.327 . S
C1391 C1395 1.429 . S
C1392 C1375 1.574 . S
C1392 H1386 0.949 . S
C1392 C1396 1.368 . S
C1393 C1374 1.429 . S
C1393 C1387 1.429 . S
C1393 C1394 1.523 . S
C1394 C1375 1.368 . S
C1394 C1388 1.368 . S
C1394 C1393 1.523 . S
C1395 C1379 1.429 . S
C1395 C1391 1.429 . S
C1395 C1396 1.523 . S
C1396 C1380 1.368 . S
C1396 C1392 1.368 . S
C1396 C1395 1.523 . S
H1397 C1372 0.950 . S
H1398 C1374 0.950 . S
H1399 C1375 0.949 . S
H1400 C1377 0.950 . S
H1401 C1379 0.950 . S
C1402 C1403 1.349 . S
C1402 C1404 1.327 . S
C1402 H1427 0.950 . S
C1403 C1402 1.349 . S
C1403 C1419 1.349 . S
C1404 C1402 1.327 . S
C1404 C1423 1.429 . S
C1404 H1428 0.950 . S
C1405 C1422 1.574 1_655 S
C1405 C1424 1.368 . S
C1405 H1429 0.949 . S
H1406 C1410 0.949 . S
C1407 C1408 1.349 . S
C1407 C1409 1.327 . S
C1407 H1430 0.950 . S
C1408 C1407 1.349 . S
C1408 C1420 1.349 . S
C1409 C1407 1.327 . S
C1409 C1425 1.429 . S
C1409 H1431 0.950 . S
C1410 H1406 0.949 . S
C1410 C1418 1.574 1_455 S
C1410 C1426 1.368 . S
H1411 C1419 0.950 . S
H1412 C1417 0.950 . S
H1413 C1418 0.949 . S
H1414 C1420 0.950 . S
H1415 C1421 0.950 . S
H1416 C1422 0.949 . S
C1417 H1412 0.950 . S
C1417 C1419 1.327 . S
C1417 C1423 1.429 . S
C1418 C1410 1.574 1_655 S
C1418 H1413 0.949 . S
C1418 C1424 1.368 . S
C1419 C1403 1.349 . S
C1419 H1411 0.950 . S
C1419 C1417 1.327 . S
C1420 C1408 1.349 . S
C1420 H1414 0.950 . S
C1420 C1421 1.327 . S
C1421 H1415 0.950 . S
C1421 C1420 1.327 . S
C1421 C1425 1.429 . S
C1422 C1405 1.574 1_455 S
C1422 H1416 0.949 . S
C1422 C1426 1.368 . S
C1423 C1404 1.429 . S
C1423 C1417 1.429 . S
C1423 C1424 1.523 . S
C1424 C1405 1.368 . S
C1424 C1418 1.368 . S
C1424 C1423 1.523 . S
C1425 C1409 1.429 . S
C1425 C1421 1.429 . S
C1425 C1426 1.523 . S
C1426 C1410 1.368 . S
C1426 C1422 1.368 . S
C1426 C1425 1.523 . S
H1427 C1402 0.950 . S
H1428 C1404 0.950 . S
H1429 C1405 0.949 . S
H1430 C1407 0.950 . S
H1431 C1409 0.950 . S
C1432 C1433 1.349 . S
C1432 C1434 1.327 . S
C1432 H1457 0.950 . S
C1433 C1432 1.349 . S
C1433 C1449 1.349 . S
C1434 C1432 1.327 . S
C1434 C1453 1.429 . S
C1434 H1458 0.950 . S
C1435 C1452 1.574 . S
C1435 C1454 1.368 . S
C1435 H1459 0.949 . S
H1436 C1440 0.949 . S
C1437 C1438 1.349 . S
C1437 C1439 1.327 . S
C1437 H1460 0.950 . S
C1438 C1437 1.349 . S
C1438 C1450 1.349 . S
C1439 C1437 1.327 . S
C1439 C1455 1.429 . S
C1439 H1461 0.950 . S
C1440 H1436 0.949 . S
C1440 C1448 1.574 . S
C1440 C1456 1.368 . S
H1441 C1449 0.950 . S
H1442 C1447 0.950 . S
H1443 C1448 0.949 . S
H1444 C1450 0.950 . S
H1445 C1451 0.950 . S
H1446 C1452 0.949 . S
C1447 H1442 0.950 . S
C1447 C1449 1.327 . S
C1447 C1453 1.429 . S
C1448 C1440 1.574 . S
C1448 H1443 0.949 . S
C1448 C1454 1.368 . S
C1449 C1433 1.349 . S
C1449 H1441 0.950 . S
C1449 C1447 1.327 . S
C1450 C1438 1.349 . S
C1450 H1444 0.950 . S
C1450 C1451 1.327 . S
C1451 H1445 0.950 . S
C1451 C1450 1.327 . S
C1451 C1455 1.429 . S
C1452 C1435 1.574 . S
C1452 H1446 0.949 . S
C1452 C1456 1.368 . S
C1453 C1434 1.429 . S
C1453 C1447 1.429 . S
C1453 C1454 1.523 . S
C1454 C1435 1.368 . S
C1454 C1448 1.368 . S
C1454 C1453 1.523 . S
C1455 C1439 1.429 . S
C1455 C1451 1.429 . S
C1455 C1456 1.523 . S
C1456 C1440 1.368 . S
C1456 C1452 1.368 . S
C1456 C1455 1.523 . S
H1457 C1432 0.950 . S
H1458 C1434 0.950 . S
H1459 C1435 0.949 . S
H1460 C1437 0.950 . S
H1461 C1439 0.950 . S
C1462 C1463 1.349 . S
C1462 C1464 1.315 1_554 S
C1462 H1487 0.962 . S
C1463 C1462 1.349 . S
C1463 C1479 1.349 1_554 S
C1464 C1462 1.315 1_556 S
C1464 C1483 1.429 . S
C1464 H1488 0.950 . S
C1465 C1482 1.574 . S
C1465 C1484 1.368 . S
C1465 H1489 0.949 . S
H1466 C1470 0.949 . S
C1467 C1468 1.349 . S
C1467 C1469 1.327 . S
C1467 H1490 0.950 1_655 S
C1468 C1467 1.349 . S
C1468 C1480 1.349 . S
C1469 C1467 1.327 . S
C1469 C1485 1.429 . S
C1469 H1491 0.950 . S
C1470 H1466 0.949 . S
C1470 C1478 1.574 . S
C1470 C1486 1.368 . S
H1471 C1479 0.950 . S
H1472 C1477 0.950 . S
H1473 C1478 0.949 . S
H1474 C1480 0.950 . S
H1475 C1481 0.950 . S
H1476 C1482 0.949 . S
C1477 H1472 0.950 . S
C1477 C1479 1.327 . S
C1477 C1483 1.429 . S
C1478 C1470 1.574 . S
C1478 H1473 0.949 . S
C1478 C1484 1.368 . S
C1479 C1463 1.349 1_556 S
C1479 H1471 0.950 . S
C1479 C1477 1.327 . S
C1480 C1468 1.349 . S
C1480 H1474 0.950 . S
C1480 C1481 1.327 . S
C1481 H1475 0.950 . S
C1481 C1480 1.327 . S
C1481 C1485 1.429 . S
C1482 C1465 1.574 . S
C1482 H1476 0.949 . S
C1482 C1486 1.368 . S
C1483 C1464 1.429 . S
C1483 C1477 1.429 . S
C1483 C1484 1.523 . S
C1484 C1465 1.368 . S
C1484 C1478 1.368 . S
C1484 C1483 1.523 . S
C1485 C1469 1.429 . S
C1485 C1481 1.429 . S
C1485 C1486 1.523 . S
C1486 C1470 1.368 . S
C1486 C1482 1.368 . S
C1486 C1485 1.523 . S
H1487 C1462 0.962 . S
H1488 C1464 0.950 . S
H1489 C1465 0.949 . S
H1490 C1467 0.950 1_455 S
H1491 C1469 0.950 . S
C1492 C1493 1.349 . S
C1492 C1494 1.327 . S
C1492 H1517 0.950 . S
C1493 C1492 1.349 . S
C1493 C1509 1.349 . S
C1494 C1492 1.327 . S
C1494 C1513 1.429 . S
C1494 H1518 0.950 . S
C1495 C1512 1.574 . S
C1495 C1514 1.368 . S
C1495 H1519 0.949 . S
H1496 C1500 0.949 . S
C1497 C1498 1.349 . S
C1497 C1499 1.327 . S
C1497 H1520 0.950 . S
C1498 C1497 1.349 . S
C1498 C1510 1.349 . S
C1499 C1497 1.327 . S
C1499 C1515 1.429 . S
C1499 H1521 0.950 . S
C1500 H1496 0.949 . S
C1500 C1508 1.574 . S
C1500 C1516 1.368 . S
H1501 C1509 0.950 . S
H1502 C1507 0.950 . S
H1503 C1508 0.949 . S
H1504 C1510 0.950 . S
H1505 C1511 0.950 . S
H1506 C1512 0.949 . S
C1507 H1502 0.950 . S
C1507 C1509 1.327 . S
C1507 C1513 1.429 . S
C1508 C1500 1.574 . S
C1508 H1503 0.949 . S
C1508 C1514 1.368 . S
C1509 C1493 1.349 . S
C1509 H1501 0.950 . S
C1509 C1507 1.327 . S
C1510 C1498 1.349 . S
C1510 H1504 0.950 . S
C1510 C1511 1.327 . S
C1511 H1505 0.950 . S
C1511 C1510 1.327 . S
C1511 C1515 1.429 . S
C1512 C1495 1.574 . S
C1512 H1506 0.949 . S
C1512 C1516 1.368 . S
C1513 C1494 1.429 . S
C1513 C1507 1.429 . S
C1513 C1514 1.523 . S
C1514 C1495 1.368 . S
C1514 C1508 1.368 . S
C1514 C1513 1.523 . S
C1515 C1499 1.429 . S
C1515 C1511 1.429 . S
C1515 C1516 1.523 . S
C1516 C1500 1.368 . S
C1516 C1512 1.368 . S
C1516 C1515 1.523 . S
H1517 C1492 0.950 . S
H1518 C1494 0.950 . S
H1519 C1495 0.949 . S
H1520 C1497 0.950 . S
H1521 C1499 0.950 . S
C1522 C1523 1.349 . S
C1522 C1524 1.327 . S
C1522 H1547 0.950 . S
C1523 C1522 1.349 . S
C1523 C1539 1.349 . S
C1524 C1522 1.327 . S
C1524 C1543 1.429 . S
C1524 H1548 0.950 . S
C1525 C1542 1.591 . S
C1525 C1544 1.368 1_556 S
C1525 H1549 0.934 1_556 S
H1526 C1530 0.949 . S
C1527 C1528 1.349 . S
C1527 C1529 1.327 . S
C1527 H1550 0.950 . S
C1528 C1527 1.349 . S
C1528 C1540 1.349 . S
C1529 C1527 1.327 . S
C1529 C1545 1.429 . S
C1529 H1551 0.950 . S
C1530 H1526 0.949 . S
C1530 C1538 1.574 . S
C1530 C1546 1.368 . S
H1531 C1539 0.950 . S
H1532 C1537 0.950 . S
H1533 C1538 0.949 . S
H1534 C1540 0.950 . S
H1535 C1541 0.950 . S
H1536 C1542 0.949 . S
C1537 H1532 0.950 . S
C1537 C1539 1.327 . S
C1537 C1543 1.429 . S
C1538 C1530 1.574 . S
C1538 H1533 0.949 . S
C1538 C1544 1.368 1_556 S
C1539 C1523 1.349 . S
C1539 H1531 0.950 . S
C1539 C1537 1.327 . S
C1540 C1528 1.349 . S
C1540 H1534 0.950 . S
C1540 C1541 1.327 . S
C1541 H1535 0.950 . S
C1541 C1540 1.327 . S
C1541 C1545 1.429 . S
C1542 C1525 1.591 . S
C1542 H1536 0.949 . S
C1542 C1546 1.368 . S
C1543 C1524 1.429 . S
C1543 C1537 1.429 . S
C1543 C1544 1.523 . S
C1544 C1525 1.368 1_554 S
C1544 C1538 1.368 1_554 S
C1544 C1543 1.523 . S
C1545 C1529 1.429 . S
C1545 C1541 1.429 . S
C1545 C1546 1.523 . S
C1546 C1530 1.368 . S
C1546 C1542 1.368 . S
C1546 C1545 1.523 . S
H1547 C1522 0.950 . S
H1548 C1524 0.950 . S
H1549 C1525 0.934 1_554 S
H1550 C1527 0.950 . S
H1551 C1529 0.950 . S
C1552 C1553 1.349 . S
C1552 C1554 1.327 . S
C1552 H1577 0.950 . S
C1553 C1552 1.349 . S
C1553 C1569 1.349 . S
C1554 C1552 1.327 . S
C1554 C1573 1.429 . S
C1554 H1578 0.950 . S
C1555 C1572 1.574 . S
C1555 C1574 1.368 . S
C1555 H1579 0.949 . S
H1556 C1560 0.949 . S
C1557 C1558 1.349 . S
C1557 C1559 1.327 . S
C1557 H1580 0.950 . S
C1558 C1557 1.349 . S
C1558 C1570 1.349 . S
C1559 C1557 1.327 . S
C1559 C1575 1.429 . S
C1559 H1581 0.950 . S
C1560 H1556 0.949 . S
C1560 C1568 1.574 . S
C1560 C1576 1.368 . S
H1561 C1569 0.950 . S
H1562 C1567 0.950 . S
H1563 C1568 0.949 . S
H1564 C1570 0.950 . S
H1565 C1571 0.950 . S
H1566 C1572 0.949 . S
C1567 H1562 0.950 . S
C1567 C1569 1.327 . S
C1567 C1573 1.429 . S
C1568 C1560 1.574 . S
C1568 H1563 0.949 . S
C1568 C1574 1.368 . S
C1569 C1553 1.349 . S
C1569 H1561 0.950 . S
C1569 C1567 1.327 . S
C1570 C1558 1.349 . S
C1570 H1564 0.950 . S
C1570 C1571 1.327 . S
C1571 H1565 0.950 . S
C1571 C1570 1.327 . S
C1571 C1575 1.429 . S
C1572 C1555 1.574 . S
C1572 H1566 0.949 . S
C1572 C1576 1.368 . S
C1573 C1554 1.429 . S
C1573 C1567 1.429 . S
C1573 C1574 1.523 . S
C1574 C1555 1.368 . S
C1574 C1568 1.368 . S
C1574 C1573 1.523 . S
C1575 C1559 1.429 . S
C1575 C1571 1.429 . S
C1575 C1576 1.523 . S
C1576 C1560 1.368 . S
C1576 C1572 1.368 . S
C1576 C1575 1.523 . S
H1577 C1552 0.950 . S
H1578 C1554 0.950 . S
H1579 C1555 0.949 . S
H1580 C1557 0.950 . S
H1581 C1559 0.950 . S
C1582 C1583 1.349 . S
C1582 C1584 1.327 1_556 S
C1582 H1607 0.950 . S
C1583 C1582 1.349 . S
C1583 C1599 1.349 . S
C1584 C1582 1.327 1_554 S
C1584 C1603 1.429 . S
C1584 H1608 0.950 . S
C1585 C1602 1.574 . S
C1585 C1604 1.368 . S
C1585 H1609 0.949 . S
H1586 C1590 0.949 . S
C1587 C1588 1.349 . S
C1587 C1589 1.327 . S
C1587 H1610 0.950 . S
C1588 C1587 1.349 . S
C1588 C1600 1.349 . S
C1589 C1587 1.327 . S
C1589 C1605 1.429 . S
C1589 H1611 0.950 . S
C1590 H1586 0.949 . S
C1590 C1598 1.574 . S
C1590 C1606 1.368 . S
H1591 C1599 0.950 . S
H1592 C1597 0.950 . S
H1593 C1598 0.949 . S
H1594 C1600 0.950 . S
H1595 C1601 0.950 . S
H1596 C1602 0.949 . S
C1597 H1592 0.950 . S
C1597 C1599 1.327 1_554 S
C1597 C1603 1.429 . S
C1598 C1590 1.574 . S
C1598 H1593 0.949 . S
C1598 C1604 1.368 . S
C1599 C1583 1.349 . S
C1599 H1591 0.950 . S
C1599 C1597 1.327 1_556 S
C1600 C1588 1.349 . S
C1600 H1594 0.950 . S
C1600 C1601 1.327 . S
C1601 H1595 0.950 . S
C1601 C1600 1.327 . S
C1601 C1605 1.429 . S
C1602 C1585 1.574 . S
C1602 H1596 0.949 . S
C1602 C1606 1.368 . S
C1603 C1584 1.429 . S
C1603 C1597 1.429 . S
C1603 C1604 1.523 . S
C1604 C1585 1.368 . S
C1604 C1598 1.368 . S
C1604 C1603 1.523 . S
C1605 C1589 1.429 . S
C1605 C1601 1.429 . S
C1605 C1606 1.523 . S
C1606 C1590 1.368 . S
C1606 C1602 1.368 . S
C1606 C1605 1.523 . S
H1607 C1582 0.950 . S
H1608 C1584 0.950 . S
H1609 C1585 0.949 . S
H1610 C1587 0.950 . S
H1611 C1589 0.950 . S
C1612 C1613 1.349 . S
C1612 C1614 1.327 . S
C1612 H1637 0.950 . S
C1613 C1612 1.349 . S
C1613 C1629 1.349 . S
C1614 C1612 1.327 . S
C1614 C1633 1.429 . S
C1614 H1638 0.950 . S
C1615 C1632 1.574 . S
C1615 C1634 1.368 . S
C1615 H1639 0.949 . S
H1616 C1620 0.949 . S
C1617 C1618 1.349 . S
C1617 C1619 1.327 . S
C1617 H1640 0.950 . S
C1618 C1617 1.349 . S
C1618 C1630 1.349 . S
C1619 C1617 1.327 . S
C1619 C1635 1.429 . S
C1619 H1641 0.950 . S
C1620 H1616 0.949 . S
C1620 C1628 1.574 . S
C1620 C1636 1.368 . S
H1621 C1629 0.950 . S
H1622 C1627 0.950 . S
H1623 C1628 0.949 . S
H1624 C1630 0.950 . S
H1625 C1631 0.950 . S
H1626 C1632 0.949 . S
C1627 H1622 0.950 . S
C1627 C1629 1.327 . S
C1627 C1633 1.429 . S
C1628 C1620 1.574 . S
C1628 H1623 0.949 . S
C1628 C1634 1.368 . S
C1629 C1613 1.349 . S
C1629 H1621 0.950 . S
C1629 C1627 1.327 . S
C1630 C1618 1.349 . S
C1630 H1624 0.950 . S
C1630 C1631 1.327 . S
C1631 H1625 0.950 . S
C1631 C1630 1.327 . S
C1631 C1635 1.429 . S
C1632 C1615 1.574 . S
C1632 H1626 0.949 . S
C1632 C1636 1.368 . S
C1633 C1614 1.429 . S
C1633 C1627 1.429 . S
C1633 C1634 1.523 . S
C1634 C1615 1.368 . S
C1634 C1628 1.368 . S
C1634 C1633 1.523 . S
C1635 C1619 1.429 . S
C1635 C1631 1.429 . S
C1635 C1636 1.523 . S
C1636 C1620 1.368 . S
C1636 C1632 1.368 . S
C1636 C1635 1.523 . S
H1637 C1612 0.950 . S
H1638 C1614 0.950 . S
H1639 C1615 0.949 . S
H1640 C1617 0.950 . S
H1641 C1619 0.950 . S
C1642 C1643 1.349 . S
C1642 C1644 1.327 . S
C1642 H1667 0.950 . S
C1643 C1642 1.349 . S
C1643 C1659 1.349 . S
C1644 C1642 1.327 . S
C1644 C1663 1.429 . S
C1644 H1668 0.950 . S
C1645 C1662 1.574 . S
C1645 C1664 1.368 . S
C1645 H1669 0.949 . S
H1646 C1650 0.949 . S
C1647 C1648 1.349 . S
C1647 C1649 1.327 . S
C1647 H1670 0.950 . S
C1648 C1647 1.349 . S
C1648 C1660 1.349 . S
C1649 C1647 1.327 . S
C1649 C1665 1.429 . S
C1649 H1671 0.950 . S
C1650 H1646 0.949 . S
C1650 C1658 1.574 . S
C1650 C1666 1.368 . S
H1651 C1659 0.950 . S
H1652 C1657 0.950 . S
H1653 C1658 0.949 . S
H1654 C1660 0.950 . S
H1655 C1661 0.950 . S
H1656 C1662 0.949 . S
C1657 H1652 0.950 . S
C1657 C1659 1.327 . S
C1657 C1663 1.429 . S
C1658 C1650 1.574 . S
C1658 H1653 0.949 . S
C1658 C1664 1.368 . S
C1659 C1643 1.349 . S
C1659 H1651 0.950 . S
C1659 C1657 1.327 . S
C1660 C1648 1.349 . S
C1660 H1654 0.950 . S
C1660 C1661 1.327 . S
C1661 H1655 0.950 . S
C1661 C1660 1.327 . S
C1661 C1665 1.429 . S
C1662 C1645 1.574 . S
C1662 H1656 0.949 . S
C1662 C1666 1.368 . S
C1663 C1644 1.429 . S
C1663 C1657 1.429 . S
C1663 C1664 1.523 1_556 S
C1664 C1645 1.368 . S
C1664 C1658 1.368 . S
C1664 C1663 1.523 1_554 S
C1665 C1649 1.429 . S
C1665 C1661 1.429 . S
C1665 C1666 1.523 . S
C1666 C1650 1.368 . S
C1666 C1662 1.368 . S
C1666 C1665 1.523 . S
H1667 C1642 0.950 . S
H1668 C1644 0.950 . S
H1669 C1645 0.949 . S
H1670 C1647 0.950 . S
H1671 C1649 0.950 . S
C1672 C1673 1.349 . S
C1672 C1674 1.327 . S
C1672 H1697 0.950 . S
C1673 C1672 1.349 . S
C1673 C1689 1.349 . S
C1674 C1672 1.327 . S
C1674 C1693 1.429 . S
C1674 H1698 0.950 . S
C1675 C1692 1.574 . S
C1675 C1694 1.368 . S
C1675 H1699 0.949 . S
H1676 C1680 0.949 . S
C1677 C1678 1.349 . S
C1677 C1679 1.327 . S
C1677 H1700 0.950 . S
C1678 C1677 1.349 . S
C1678 C1690 1.349 . S
C1679 C1677 1.327 . S
C1679 C1695 1.429 . S
C1679 H1701 0.950 . S
C1680 H1676 0.949 . S
C1680 C1688 1.574 . S
C1680 C1696 1.368 . S
H1681 C1689 0.950 . S
H1682 C1687 0.950 . S
H1683 C1688 0.949 . S
H1684 C1690 0.950 . S
H1685 C1691 0.950 . S
H1686 C1692 0.949 . S
C1687 H1682 0.950 . S
C1687 C1689 1.327 . S
C1687 C1693 1.429 . S
C1688 C1680 1.574 . S
C1688 H1683 0.949 . S
C1688 C1694 1.368 . S
C1689 C1673 1.349 . S
C1689 H1681 0.950 . S
C1689 C1687 1.327 . S
C1690 C1678 1.349 . S
C1690 H1684 0.950 . S
C1690 C1691 1.327 . S
C1691 H1685 0.950 . S
C1691 C1690 1.327 . S
C1691 C1695 1.429 . S
C1692 C1675 1.574 . S
C1692 H1686 0.949 . S
C1692 C1696 1.368 . S
C1693 C1674 1.429 . S
C1693 C1687 1.429 . S
C1693 C1694 1.523 . S
C1694 C1675 1.368 . S
C1694 C1688 1.368 . S
C1694 C1693 1.523 . S
C1695 C1679 1.429 . S
C1695 C1691 1.429 . S
C1695 C1696 1.523 . S
C1696 C1680 1.368 . S
C1696 C1692 1.368 . S
C1696 C1695 1.523 . S
H1697 C1672 0.950 . S
H1698 C1674 0.950 . S
H1699 C1675 0.949 . S
H1700 C1677 0.950 . S
H1701 C1679 0.950 . S
C1702 C1703 1.349 . S
C1702 C1704 1.327 . S
C1702 H1727 0.950 . S
C1703 C1702 1.349 . S
C1703 C1719 1.349 . S
C1704 C1702 1.327 . S
C1704 C1723 1.429 . S
C1704 H1728 0.950 . S
C1705 C1722 1.574 . S
C1705 C1724 1.368 . S
C1705 H1729 0.949 . S
H1706 C1710 0.949 . S
C1707 C1708 1.349 . S
C1707 C1709 1.327 . S
C1707 H1730 0.950 . S
C1708 C1707 1.349 . S
C1708 C1720 1.349 . S
C1709 C1707 1.327 . S
C1709 C1725 1.429 . S
C1709 H1731 0.950 . S
C1710 H1706 0.949 . S
C1710 C1718 1.574 . S
C1710 C1726 1.368 . S
H1711 C1719 0.950 . S
H1712 C1717 0.950 . S
H1713 C1718 0.949 . S
H1714 C1720 0.950 . S
H1715 C1721 0.950 . S
H1716 C1722 0.949 . S
C1717 H1712 0.950 . S
C1717 C1719 1.327 . S
C1717 C1723 1.429 . S
C1718 C1710 1.574 . S
C1718 H1713 0.949 . S
C1718 C1724 1.368 . S
C1719 C1703 1.349 . S
C1719 H1711 0.950 . S
C1719 C1717 1.327 . S
C1720 C1708 1.349 . S
C1720 H1714 0.950 . S
C1720 C1721 1.327 . S
C1721 H1715 0.950 . S
C1721 C1720 1.327 . S
C1721 C1725 1.429 . S
C1722 C1705 1.574 . S
C1722 H1716 0.949 . S
C1722 C1726 1.368 . S
C1723 C1704 1.429 . S
C1723 C1717 1.429 . S
C1723 C1724 1.523 . S
C1724 C1705 1.368 . S
C1724 C1718 1.368 . S
C1724 C1723 1.523 . S
C1725 C1709 1.429 . S
C1725 C1721 1.429 . S
C1725 C1726 1.523 . S
C1726 C1710 1.368 . S
C1726 C1722 1.368 . S
C1726 C1725 1.523 . S
H1727 C1702 0.950 . S
H1728 C1704 0.950 . S
H1729 C1705 0.949 . S
H1730 C1707 0.950 . S
H1731 C1709 0.950 . S
C1732 C1733 1.349 . S
C1732 C1734 1.327 . S
C1732 H1757 0.950 . S
C1733 C1732 1.349 . S
C1733 C1749 1.349 . S
C1734 C1732 1.327 . S
C1734 C1753 1.429 . S
C1734 H1758 0.950 . S
C1735 C1752 1.574 . S
C1735 C1754 1.368 . S
C1735 H1759 0.949 . S
H1736 C1740 0.949 . S
C1737 C1738 1.349 . S
C1737 C1739 1.327 . S
C1737 H1760 0.950 . S
C1738 C1737 1.349 . S
C1738 C1750 1.349 . S
C1739 C1737 1.327 . S
C1739 C1755 1.429 . S
C1739 H1761 0.950 . S
C1740 H1736 0.949 . S
C1740 C1748 1.574 . S
C1740 C1756 1.368 . S
H1741 C1749 0.950 . S
H1742 C1747 0.950 . S
H1743 C1748 0.949 . S
H1744 C1750 0.950 . S
H1745 C1751 0.950 . S
H1746 C1752 0.949 . S
C1747 H1742 0.950 . S
C1747 C1749 1.327 . S
C1747 C1753 1.429 . S
C1748 C1740 1.574 . S
C1748 H1743 0.949 . S
C1748 C1754 1.368 . S
C1749 C1733 1.349 . S
C1749 H1741 0.950 . S
C1749 C1747 1.327 . S
C1750 C1738 1.349 . S
C1750 H1744 0.950 . S
C1750 C1751 1.327 . S
C1751 H1745 0.950 . S
C1751 C1750 1.327 . S
C1751 C1755 1.429 . S
C1752 C1735 1.574 . S
C1752 H1746 0.949 . S
C1752 C1756 1.368 . S
C1753 C1734 1.429 . S
C1753 C1747 1.429 . S
C1753 C1754 1.523 . S
C1754 C1735 1.368 . S
C1754 C1748 1.368 . S
C1754 C1753 1.523 . S
C1755 C1739 1.429 . S
C1755 C1751 1.429 . S
C1755 C1756 1.523 . S
C1756 C1740 1.368 . S
C1756 C1752 1.368 . S
C1756 C1755 1.523 . S
H1757 C1732 0.950 . S
H1758 C1734 0.950 . S
H1759 C1735 0.949 . S
H1760 C1737 0.950 . S
H1761 C1739 0.950 . S
C1762 C1763 1.349 . S
C1762 C1764 1.327 . S
C1762 H1787 0.950 . S
C1763 C1762 1.349 . S
C1763 C1779 1.349 . S
C1764 C1762 1.327 . S
C1764 C1783 1.429 . S
C1764 H1788 0.950 . S
C1765 C1782 1.574 . S
C1765 C1784 1.368 . S
C1765 H1789 0.949 . S
H1766 C1770 0.949 . S
C1767 C1768 1.349 . S
C1767 C1769 1.327 . S
C1767 H1790 0.950 . S
C1768 C1767 1.349 . S
C1768 C1780 1.349 . S
C1769 C1767 1.327 . S
C1769 C1785 1.429 . S
C1769 H1791 0.950 . S
C1770 H1766 0.949 . S
C1770 C1778 1.574 . S
C1770 C1786 1.368 . S
H1771 C1779 0.950 . S
H1772 C1777 0.950 . S
H1773 C1778 0.949 . S
H1774 C1780 0.950 . S
H1775 C1781 0.950 . S
H1776 C1782 0.949 . S
C1777 H1772 0.950 . S
C1777 C1779 1.327 . S
C1777 C1783 1.429 . S
C1778 C1770 1.574 . S
C1778 H1773 0.949 . S
C1778 C1784 1.368 . S
C1779 C1763 1.349 . S
C1779 H1771 0.950 . S
C1779 C1777 1.327 . S
C1780 C1768 1.349 . S
C1780 H1774 0.950 . S
C1780 C1781 1.327 . S
C1781 H1775 0.950 . S
C1781 C1780 1.327 . S
C1781 C1785 1.429 . S
C1782 C1765 1.574 . S
C1782 H1776 0.949 . S
C1782 C1786 1.368 . S
C1783 C1764 1.429 . S
C1783 C1777 1.429 . S
C1783 C1784 1.523 . S
C1784 C1765 1.368 . S
C1784 C1778 1.368 . S
C1784 C1783 1.523 . S
C1785 C1769 1.429 . S
C1785 C1781 1.429 . S
C1785 C1786 1.523 . S
C1786 C1770 1.368 . S
C1786 C1782 1.368 . S
C1786 C1785 1.523 . S
H1787 C1762 0.950 . S
H1788 C1764 0.950 . S
H1789 C1765 0.949 . S
H1790 C1767 0.950 . S
H1791 C1769 0.950 . S
C1792 C1793 1.349 . S
C1792 C1794 1.327 . S
C1792 H1817 0.950 . S
C1793 C1792 1.349 . S
C1793 C1809 1.349 . S
C1794 C1792 1.327 . S
C1794 C1813 1.429 . S
C1794 H1818 0.950 . S
C1795 C1812 1.574 . S
C1795 C1814 1.368 . S
C1795 H1819 0.949 . S
H1796 C1800 0.949 . S
C1797 C1798 1.349 . S
C1797 C1799 1.327 . S
C1797 H1820 0.950 . S
C1798 C1797 1.349 . S
C1798 C1810 1.349 . S
C1799 C1797 1.327 . S
C1799 C1815 1.429 . S
C1799 H1821 0.950 . S
C1800 H1796 0.949 . S
C1800 C1808 1.574 . S
C1800 C1816 1.368 . S
H1801 C1809 0.950 . S
H1802 C1807 0.950 . S
H1803 C1808 0.949 . S
H1804 C1810 0.950 . S
H1805 C1811 0.950 . S
H1806 C1812 0.949 . S
C1807 H1802 0.950 . S
C1807 C1809 1.327 . S
C1807 C1813 1.429 . S
C1808 C1800 1.574 . S
C1808 H1803 0.949 . S
C1808 C1814 1.368 . S
C1809 C1793 1.349 . S
C1809 H1801 0.950 . S
C1809 C1807 1.327 . S
C1810 C1798 1.349 . S
C1810 H1804 0.950 . S
C1810 C1811 1.327 . S
C1811 H1805 0.950 . S
C1811 C1810 1.327 . S
C1811 C1815 1.429 . S
C1812 C1795 1.574 . S
C1812 H1806 0.949 . S
C1812 C1816 1.368 . S
C1813 C1794 1.429 . S
C1813 C1807 1.429 . S
C1813 C1814 1.523 . S
C1814 C1795 1.368 . S
C1814 C1808 1.368 . S
C1814 C1813 1.523 . S
C1815 C1799 1.429 . S
C1815 C1811 1.429 . S
C1815 C1816 1.523 . S
C1816 C1800 1.368 . S
C1816 C1812 1.368 . S
C1816 C1815 1.523 . S
H1817 C1792 0.950 . S
H1818 C1794 0.950 . S
H1819 C1795 0.949 . S
H1820 C1797 0.950 . S
H1821 C1799 0.950 . S
C1822 C1823 1.349 . S
C1822 C1824 1.327 . S
C1822 H1847 0.950 . S
C1823 C1822 1.349 . S
C1823 C1839 1.349 . S
C1824 C1822 1.327 . S
C1824 C1843 1.429 . S
C1824 H1848 0.950 . S
C1825 C1842 1.574 . S
C1825 C1844 1.368 . S
C1825 H1849 0.949 . S
H1826 C1830 0.949 . S
C1827 C1828 1.349 . S
C1827 C1829 1.327 . S
C1827 H1850 0.950 . S
C1828 C1827 1.349 . S
C1828 C1840 1.349 . S
C1829 C1827 1.327 . S
C1829 C1845 1.429 . S
C1829 H1851 0.950 . S
C1830 H1826 0.949 . S
C1830 C1838 1.574 . S
C1830 C1846 1.368 . S
H1831 C1839 0.950 . S
H1832 C1837 0.950 . S
H1833 C1838 0.949 . S
H1834 C1840 0.950 . S
H1835 C1841 0.950 . S
H1836 C1842 0.949 . S
C1837 H1832 0.950 . S
C1837 C1839 1.327 . S
C1837 C1843 1.429 . S
C1838 C1830 1.574 . S
C1838 H1833 0.949 . S
C1838 C1844 1.368 . S
C1839 C1823 1.349 . S
C1839 H1831 0.950 . S
C1839 C1837 1.327 . S
C1840 C1828 1.349 . S
C1840 H1834 0.950 . S
C1840 C1841 1.327 . S
C1841 H1835 0.950 . S
C1841 C1840 1.327 . S
C1841 C1845 1.429 . S
C1842 C1825 1.574 . S
C1842 H1836 0.949 . S
C1842 C1846 1.368 . S
C1843 C1824 1.429 . S
C1843 C1837 1.429 . S
C1843 C1844 1.523 . S
C1844 C1825 1.368 . S
C1844 C1838 1.368 . S
C1844 C1843 1.523 . S
C1845 C1829 1.429 . S
C1845 C1841 1.429 . S
C1845 C1846 1.523 . S
C1846 C1830 1.368 . S
C1846 C1842 1.368 . S
C1846 C1845 1.523 . S
H1847 C1822 0.950 . S
H1848 C1824 0.950 . S
H1849 C1825 0.949 . S
H1850 C1827 0.950 . S
H1851 C1829 0.950 . S
C1852 C1853 1.349 . S
C1852 C1854 1.327 . S
C1852 H1877 0.950 . S
C1853 C1852 1.349 . S
C1853 C1869 1.349 . S
C1854 C1852 1.327 . S
C1854 C1873 1.429 . S
C1854 H1878 0.950 . S
C1855 C1872 1.574 . S
C1855 C1874 1.368 . S
C1855 H1879 0.949 . S
H1856 C1860 0.949 . S
C1857 C1858 1.349 . S
C1857 C1859 1.327 . S
C1857 H1880 0.950 . S
C1858 C1857 1.349 . S
C1858 C1870 1.349 . S
C1859 C1857 1.327 . S
C1859 C1875 1.429 . S
C1859 H1881 0.950 . S
C1860 H1856 0.949 . S
C1860 C1868 1.574 . S
C1860 C1876 1.368 . S
H1861 C1869 0.950 . S
H1862 C1867 0.950 . S
H1863 C1868 0.949 . S
H1864 C1870 0.950 . S
H1865 C1871 0.950 . S
H1866 C1872 0.949 . S
C1867 H1862 0.950 . S
C1867 C1869 1.327 . S
C1867 C1873 1.429 . S
C1868 C1860 1.574 . S
C1868 H1863 0.949 . S
C1868 C1874 1.368 . S
C1869 C1853 1.349 . S
C1869 H1861 0.950 . S
C1869 C1867 1.327 . S
C1870 C1858 1.349 . S
C1870 H1864 0.950 . S
C1870 C1871 1.327 . S
C1871 H1865 0.950 . S
C1871 C1870 1.327 . S
C1871 C1875 1.429 . S
C1872 C1855 1.574 . S
C1872 H1866 0.949 . S
C1872 C1876 1.368 . S
C1873 C1854 1.429 . S
C1873 C1867 1.429 . S
C1873 C1874 1.523 . S
C1874 C1855 1.368 . S
C1874 C1868 1.368 . S
C1874 C1873 1.523 . S
C1875 C1859 1.429 . S
C1875 C1871 1.429 . S
C1875 C1876 1.523 . S
C1876 C1860 1.368 . S
C1876 C1872 1.368 . S
C1876 C1875 1.523 . S
H1877 C1852 0.950 . S
H1878 C1854 0.950 . S
H1879 C1855 0.949 . S
H1880 C1857 0.950 . S
H1881 C1859 0.950 . S
C1882 C1883 1.349 . S
C1882 C1884 1.327 . S
C1882 H1907 0.950 . S
C1883 C1882 1.349 . S
C1883 C1899 1.349 . S
C1884 C1882 1.327 . S
C1884 C1903 1.429 . S
C1884 H1908 0.950 . S
C1885 C1902 1.574 . S
C1885 C1904 1.368 . S
C1885 H1909 0.949 . S
H1886 C1890 0.949 . S
C1887 C1888 1.349 1_545 S
C1887 C1889 1.327 . S
C1887 H1910 0.950 . S
C1888 C1887 1.349 1_565 S
C1888 C1900 1.349 . S
C1889 C1887 1.327 . S
C1889 C1905 1.429 . S
C1889 H1911 0.950 . S
C1890 H1886 0.949 . S
C1890 C1898 1.574 . S
C1890 C1906 1.368 . S
H1891 C1899 0.950 . S
H1892 C1897 0.950 . S
H1893 C1898 0.949 . S
H1894 C1900 0.950 . S
H1895 C1901 0.950 . S
H1896 C1902 0.949 . S
C1897 H1892 0.950 . S
C1897 C1899 1.327 . S
C1897 C1903 1.429 . S
C1898 C1890 1.574 . S
C1898 H1893 0.949 . S
C1898 C1904 1.368 . S
C1899 C1883 1.349 . S
C1899 H1891 0.950 . S
C1899 C1897 1.327 . S
C1900 C1888 1.349 . S
C1900 H1894 0.950 . S
C1900 C1901 1.327 1_565 S
C1901 H1895 0.950 . S
C1901 C1900 1.327 1_545 S
C1901 C1905 1.429 . S
C1902 C1885 1.574 . S
C1902 H1896 0.949 . S
C1902 C1906 1.368 . S
C1903 C1884 1.429 . S
C1903 C1897 1.429 . S
C1903 C1904 1.523 . S
C1904 C1885 1.368 . S
C1904 C1898 1.368 . S
C1904 C1903 1.523 . S
C1905 C1889 1.429 . S
C1905 C1901 1.429 . S
C1905 C1906 1.523 . S
C1906 C1890 1.368 . S
C1906 C1902 1.368 . S
C1906 C1905 1.523 . S
H1907 C1882 0.950 . S
H1908 C1884 0.950 . S
H1909 C1885 0.949 . S
H1910 C1887 0.950 . S
H1911 C1889 0.950 . S
C478 C312 2.152 . S
C473 C101 2.157 . S
C508 C327 1.431 . S
C503 C125 1.401 . S
C533 C139 2.357 . S
C538 C340 2.320 . S
C568 C354 1.737 1_455 S
C563 C82 1.759 . S
C598 C366 1.840 . S
C593 C196 1.988 . S
C628 C380 1.596 . S
C623 C234 1.646 . S
C653 C220 1.013 . S
C658 C394 1.056 . S
C688 C409 1.471 . S
C683 C173 1.488 . S
C713 C211 1.328 . S
C718 C425 1.276 . S
C748 C438 1.046 . S
C743 C182 0.946 . S
C773 C201 1.520 . S
C778 C423 1.619 . S
C808 C436 1.585 . S
C803 C239 1.561 . S
C833 C135 2.124 . S
C838 C452 2.122 . S
C863 C87 1.937 . S
C868 C451 1.973 . S
C893 C106 1.352 . S
C898 C450 1.478 . S
C923 C116 1.254 . S
C928 C453 1.263 1_655 S
C953 C59 2.192 . S
C958 C355 2.192 . S
C983 C268 2.177 . S
C988 C353 2.159 . S
C1018 C313 1.079 . S
C1013 C291 1.113 . S
C1048 C324 1.747 . S
C1043 C163 1.653 . S
C1073 C78 1.882 . S
C1078 C369 1.886 . S
C1108 C410 1.674 . S
C1103 C215 1.680 . S
C1138 C367 1.868 . S
C1133 C177 1.895 . S
C1168 C395 1.650 . S
C1163 C230 1.686 . S
C1198 C396 2.152 . S
C1193 C272 2.157 . S
C1223 C296 1.400 . S
C1228 C411 1.430 . S
C1253 C158 2.357 . S
C1258 C368 2.320 . S
C1288 C382 1.737 . S
C1283 C253 1.759 . S
C1313 C63 1.988 . S
C1318 C338 1.840 . S
C1348 C352 1.596 . S
C1343 C6 1.646 . S
C1378 C310 1.056 . S
C1373 C30 1.013 . S
C1408 C325 1.471 . S
C1403 C40 1.489 . S
C1433 C21 1.328 . S
C1438 C439 1.276 . S
C1463 C49 0.947 . S
C1468 C424 1.046 . S
C1493 C68 1.520 . S
C1498 C437 1.619 . S
C1523 C11 1.561 . S
C1528 C422 1.585 . S
C1558 C466 2.122 . S
C1553 C154 2.124 . S
C1588 C465 1.973 . S
C1583 C258 1.936 . S
C1618 C464 1.478 . S
C1613 C277 1.352 . S
C1643 C287 1.254 . S
C1648 C467 1.263 . S
C1673 C192 2.192 . S
C1678 C383 2.192 . S
C1708 C381 2.158 . S
C1703 C97 2.177 . S
C1738 C397 1.079 . S
C1733 C120 1.113 . S
C1768 C408 1.747 . S
C1763 C144 1.653 . S
C1793 C249 1.882 . S
C1798 C341 1.886 . S
C1828 C326 1.674 . S
C1823 C25 1.680 . S
C1853 C44 1.895 . S
C1858 C339 1.868 . S
C1888 C311 1.650 . S
C1883 C2 1.686 . S
