# Generated by pormake.
# Topology zzz, (3,6)-cn, num edge types: 1
# Building blocks:
#     Node 0, Type 0, BuildingBlock: PAMTOO_clean_linker_0, # of connection points: 3
#     Node 1, Type 0, BuildingBlock: PAMTOO_clean_linker_0, # of connection points: 3
#     Node 2, Type 0, BuildingBlock: PAMTOO_clean_linker_0, # of connection points: 3
#     Node 3, Type 0, BuildingBlock: PAMTOO_clean_linker_0, # of connection points: 3
#     Node 4, Type 0, BuildingBlock: PAMTOO_clean_linker_0, # of connection points: 3
#     Node 5, Type 0, BuildingBlock: PAMTOO_clean_linker_0, # of connection points: 3
#     Node 6, Type 0, BuildingBlock: PAMTOO_clean_linker_0, # of connection points: 3
#     Node 7, Type 0, BuildingBlock: PAMTOO_clean_linker_0, # of connection points: 3
#     Node 8, Type 1, BuildingBlock: KUMJIN_clean_sbu_1, # of connection points: 6
#     Node 9, Type 1, BuildingBlock: KUMJIN_clean_sbu_1, # of connection points: 6
#     Node 10, Type 1, BuildingBlock: KUMJIN_clean_sbu_1, # of connection points: 6
#     Node 11, Type 1, BuildingBlock: KUMJIN_clean_sbu_1, # of connection points: 6
#     Edge 12, Type (0, 1), BuildingBlock: CIFDUS_clean_linker_0, # of connection points: 2
#     Edge 13, Type (0, 1), BuildingBlock: CIFDUS_clean_linker_0, # of connection points: 2
#     Edge 14, Type (0, 1), BuildingBlock: CIFDUS_clean_linker_0, # of connection points: 2
#     Edge 15, Type (0, 1), BuildingBlock: CIFDUS_clean_linker_0, # of connection points: 2
#     Edge 16, Type (0, 1), BuildingBlock: CIFDUS_clean_linker_0, # of connection points: 2
#     Edge 17, Type (0, 1), BuildingBlock: CIFDUS_clean_linker_0, # of connection points: 2
#     Edge 18, Type (0, 1), BuildingBlock: CIFDUS_clean_linker_0, # of connection points: 2
#     Edge 19, Type (0, 1), BuildingBlock: CIFDUS_clean_linker_0, # of connection points: 2
#     Edge 20, Type (0, 1), BuildingBlock: CIFDUS_clean_linker_0, # of connection points: 2
#     Edge 21, Type (0, 1), BuildingBlock: CIFDUS_clean_linker_0, # of connection points: 2
#     Edge 22, Type (0, 1), BuildingBlock: CIFDUS_clean_linker_0, # of connection points: 2
#     Edge 23, Type (0, 1), BuildingBlock: CIFDUS_clean_linker_0, # of connection points: 2
#     Edge 24, Type (0, 1), BuildingBlock: CIFDUS_clean_linker_0, # of connection points: 2
#     Edge 25, Type (0, 1), BuildingBlock: CIFDUS_clean_linker_0, # of connection points: 2
#     Edge 26, Type (0, 1), BuildingBlock: CIFDUS_clean_linker_0, # of connection points: 2
#     Edge 27, Type (0, 1), BuildingBlock: CIFDUS_clean_linker_0, # of connection points: 2
#     Edge 28, Type (0, 1), BuildingBlock: CIFDUS_clean_linker_0, # of connection points: 2
#     Edge 29, Type (0, 1), BuildingBlock: CIFDUS_clean_linker_0, # of connection points: 2
#     Edge 30, Type (0, 1), BuildingBlock: CIFDUS_clean_linker_0, # of connection points: 2
#     Edge 31, Type (0, 1), BuildingBlock: CIFDUS_clean_linker_0, # of connection points: 2
#     Edge 32, Type (0, 1), BuildingBlock: CIFDUS_clean_linker_0, # of connection points: 2
#     Edge 33, Type (0, 1), BuildingBlock: CIFDUS_clean_linker_0, # of connection points: 2
#     Edge 34, Type (0, 1), BuildingBlock: CIFDUS_clean_linker_0, # of connection points: 2
#     Edge 35, Type (0, 1), BuildingBlock: CIFDUS_clean_linker_0, # of connection points: 2
# Relax obj value: 0.200
# Max RMSD: 0.112
# Mean RMSD: 0.080
data_MOF--net-zzz--node1-KUMJIN_clean_sbu_1--node2-PAMTOO_clean_linker_0--edge1-CIFDUS_clean_linker_0
_symmetry_space_group_name_H-M    P1
_symmetry_Int_Tables_number       1
_symmetry_cell_setting            triclinic
loop_
_symmetry_equiv_pos_as_xyz
'x, y, z'
_cell_length_a     43.633213
_cell_length_b     43.577267
_cell_length_c     13.671345
_cell_angle_alpha  90.147857
_cell_angle_beta   90.141643
_cell_angle_gamma 90.167925
loop_
_atom_site_label
_atom_site_type_symbol
_atom_site_fract_x
_atom_site_fract_y
_atom_site_fract_z
_atom_type_partial_charge
H0 H 0.85052 0.55653 0.23159 0.0
H1 H 0.75786 0.56708 0.13098 0.0
H2 H 0.77536 0.55059 0.43627 0.0
H3 H 0.69472 0.53396 0.33432 0.0
C4 C 0.71097 0.53621 0.27236 0.0
O5 O 0.7315 0.55995 0.29493 0.0
H6 H 0.72342 0.51394 0.26976 0.0
C7 C 0.82624 0.5574 0.24804 0.0
C8 C 0.81639 0.55308 0.34507 0.0
C9 C 0.80529 0.56225 0.17126 0.0
C10 C 0.77396 0.5632 0.19024 0.0
C11 C 0.76267 0.55838 0.2837 0.0
C12 C 0.78394 0.55373 0.36275 0.0
H13 H 0.06505 0.84254 0.30783 0.0
H14 H 0.05231 0.75847 0.15081 0.0
H15 H 0.99257 0.7804 0.39155 0.0
H16 H 0.99925 0.69947 0.32948 0.0
C17 C 1.01552 0.7085 0.27412 0.0
O18 O 1.00617 0.73823 0.24907 0.0
H19 H 0.03835 0.70921 0.31063 0.0
C20 C 0.05342 0.82059 0.30122 0.0
C21 C 0.02843 0.81428 0.36238 0.0
C22 C 0.06213 0.80066 0.22574 0.0
C23 C 0.04619 0.77316 0.21141 0.0
C24 C 0.0218 0.76481 0.27183 0.0
C25 C 1.01234 0.78585 0.3471 0.0
H26 H 0.7028 0.97617 0.36217 0.0
H27 H 0.77775 0.97061 0.16073 0.0
H28 H 0.7834 0.03107 0.41123 0.0
H29 H 0.81544 0.04672 0.18487 0.0
C30 C 0.82324 0.02264 0.17494 0.0
O31 O 0.81565 1.0061 0.25931 0.0
H32 H 0.81011 1.01341 0.11153 0.0
C33 C 0.72638 0.98174 0.34389 0.0
C34 C 0.7413 1.00407 0.39969 0.0
C35 C 0.73826 0.97135 0.25488 0.0
C36 C 0.76849 0.97899 0.22919 0.0
C37 C 0.78583 0.99967 0.28653 0.0
C38 C 0.77139 1.0135 0.37009 0.0
H39 H 0.58322 0.72926 0.33499 0.0
H40 H 0.58293 0.82061 0.21499 0.0
H41 H 0.5221 0.7974 0.45021 0.0
H42 H 0.49868 0.86133 0.29298 0.0
C43 C 0.51795 0.85087 0.25187 0.0
O44 O 0.54019 0.84178 0.32001 0.0
H45 H 0.50788 0.83034 0.21506 0.0
C46 C 0.57478 0.75253 0.33451 0.0
C47 C 0.55217 0.76012 0.40363 0.0
C48 C 0.5849 0.77326 0.26169 0.0
C49 C 0.57456 0.80367 0.26615 0.0
C50 C 0.55121 0.81241 0.32953 0.0
C51 C 0.54008 0.7907 0.40018 0.0
H52 H 0.21725 0.5183 0.19103 0.0
H53 H 0.30916 0.50778 0.29944 0.0
H54 H 0.29314 0.51672 0.9898 0.0
H55 H 0.34367 0.55549 0.18393 0.0
C56 C 0.35681 0.53433 0.16618 0.0
O57 O 0.33652 0.51094 0.13663 0.0
H58 H 0.37143 0.54032 0.10264 0.0
C59 C 0.2415 0.51542 0.17686 0.0
C60 C 0.25159 0.51586 0.07929 0.0
C61 C 0.26211 0.51351 0.25621 0.0
C62 C 0.29334 0.51025 0.23867 0.0
C63 C 0.30516 0.5125 0.14483 0.0
C64 C 0.28423 0.51551 0.0635 0.0
H65 H 0.05565 0.2129 0.20179 0.0
H66 H 0.06615 0.30427 0.31512 0.0
H67 H 0.04296 0.29083 1.0114 0.0
H68 H 1.01506 0.33486 0.25285 0.0
C69 C 0.02733 0.34921 0.19811 0.0
O70 O 0.05221 0.33309 0.15892 0.0
H71 H 1.0107 0.35304 0.13767 0.0
C72 C 0.05608 0.23746 0.1891 0.0
C73 C 0.04962 0.2486 0.09491 0.0
C74 C 0.06167 0.25733 0.26827 0.0
C75 C 0.06204 0.28901 0.25367 0.0
C76 C 0.05446 0.30163 0.16338 0.0
C77 C 0.04859 0.28133 0.08226 0.0
H78 H 0.33481 0.09224 0.11555 0.0
H79 H 0.24994 0.08357 0.27175 0.0
H80 H 0.27445 1.01666 0.05295 0.0
H81 H 0.19238 0.02665 0.11924 0.0
C82 C 0.20215 0.04162 0.17739 0.0
O83 O 0.23272 0.03291 0.19292 0.0
H84 H 0.20123 0.06559 0.14955 0.0
C85 C 0.31274 0.08122 0.12428 0.0
C86 C 0.30712 0.05441 0.06983 0.0
C87 C 0.29268 0.09191 0.1977 0.0
C88 C 0.26521 0.07609 0.21405 0.0
C89 C 0.25799 0.04926 0.16249 0.0
C90 C 0.27922 0.03808 0.09032 0.0
H91 H 0.4966 0.35007 0.20816 0.0
H92 H 0.49229 0.25544 0.29361 0.0
H93 H 0.5258 0.27941 1.00918 0.0
H94 H 0.51033 0.19214 0.08972 0.0
C95 C 0.5038 0.20667 0.15314 0.0
O96 O 0.52088 0.234 0.14838 0.0
H97 H 0.47899 0.21163 0.14277 0.0
C98 C 0.49818 0.32593 0.1896 0.0
C99 C 0.50838 0.31795 0.09522 0.0
C100 C 0.49358 0.30363 0.26283 0.0
C101 C 0.49643 0.27266 0.23866 0.0
C102 C 0.50914 0.2633 0.15077 0.0
C103 C 0.51485 0.28608 0.07689 0.0
Eu104 Eu 0.9888 0.04314 0.64674 0.0
C105 C 0.07805 0.08202 0.95263 0.0
N106 N 0.08501 0.06831 0.86605 0.0
C107 C 0.12398 0.10602 0.83551 0.0
C108 C 0.09321 0.10918 0.98213 0.0
C109 C 0.10822 0.07931 0.8087 0.0
C110 C 0.11624 0.12119 0.92207 0.0
C111 C 0.04819 0.08275 0.10202 0.0
C112 C 0.05548 0.06903 1.01131 0.0
C113 C 0.06235 0.11045 0.12962 0.0
C114 C 0.08484 0.12358 0.06998 0.0
Eu115 Eu 0.05592 0.02421 0.82414 0.0
N116 N 0.04178 0.04234 0.98234 0.0
C117 C 0.02758 0.06776 0.16391 0.0
C118 C 0.02443 0.0261 0.04754 0.0
C119 C 1.01621 0.03898 0.13744 0.0
H120 H 0.11397 0.06775 0.74113 0.0
H121 H 1.0014 0.02652 0.18678 0.0
H122 H 0.92287 0.04421 0.77579 0.0
H123 H 1.01545 0.98291 0.3053 0.0
H124 H 1.01697 1.00299 0.03162 0.0
H125 H 0.02142 0.07752 0.23411 0.0
H126 H 0.02506 1.01811 0.44221 0.0
H127 H 0.14193 0.115 0.78912 0.0
H128 H 0.05664 0.12149 0.19829 0.0
H129 H 0.09588 0.14471 0.09302 0.0
H130 H 0.87292 1.01784 0.77575 0.0
H131 H 0.12831 0.14205 0.94216 0.0
H132 H 0.96598 0.95541 0.29265 0.0
N133 N 0.93949 1.02041 0.65048 0.0
C134 C 0.93267 1.00065 0.57635 0.0
C135 C 0.88958 1.01263 0.71964 0.0
C136 C 0.90397 0.98568 0.57212 0.0
C137 C 0.91818 0.02716 0.7203 0.0
C138 C 0.8825 0.99165 0.64559 0.0
N139 N 0.98186 1.01022 0.51 0.0
C140 C 1.00346 1.00625 0.43894 0.0
C141 C 0.94773 0.97549 0.42528 0.0
C142 C 0.95427 0.9957 0.50351 0.0
C143 C 0.97008 0.97083 0.35361 0.0
C144 C 0.99804 0.9863 0.36053 0.0
H145 H 0.86024 0.98056 0.64498 0.0
H146 H 0.87558 0.95374 0.49026 0.0
H147 H 0.91392 0.94475 0.36195 0.0
O148 O 0.99637 0.08457 0.56101 0.0
O149 O 0.9988 0.9911 0.65203 0.0
O150 O 0.04897 0.98809 0.70417 0.0
O151 O 0.95 0.06966 0.59165 0.0
O152 O 0.03715 0.05034 0.57876 0.0
O153 O 0.07481 0.02573 0.66932 0.0
O154 O 0.07026 0.98397 0.90874 0.0
O155 O 0.04714 0.07449 0.77622 0.0
O156 O 0.9959 0.07418 0.78038 0.0
O157 O 0.10418 1.01514 0.85377 0.0
O158 O 1.00747 1.00425 0.86175 0.0
O159 O 0.9775 0.04334 0.80865 0.0
C160 C 0.02467 0.97575 0.6616 0.0
C161 C 0.9625 0.12161 0.62275 0.0
C162 C 0.98279 0.17198 0.66721 0.0
C163 C 0.96275 0.17323 0.74714 0.0
C164 C 0.94258 0.12307 0.70357 0.0
C165 C 0.9426 0.14887 0.76473 0.0
C166 C 0.98188 0.14643 0.60426 0.0
C167 C 0.06558 0.03983 0.58936 0.0
C168 C 0.96763 0.09267 0.56871 0.0
C169 C 0.89748 0.96547 0.49456 0.0
C170 C 0.91929 0.96039 0.42136 0.0
C171 C 0.0216 0.08911 0.79544 0.0
C172 C 0.1155 0.96244 0.84304 0.0
C173 C 0.12539 0.90759 0.8342 0.0
C174 C 0.14079 0.91151 0.7454 0.0
C175 C 0.13165 0.96629 0.75472 0.0
C176 C 0.11297 0.93305 0.88286 0.0
C177 C 0.14423 0.94094 0.70649 0.0
C178 C 0.98137 1.01969 0.86588 0.0
C179 C 0.09921 0.98822 0.89016 0.0
H180 H 0.96283 0.19283 0.79603 0.0
H181 H 0.92771 0.10398 0.72155 0.0
H182 H 0.92742 0.14969 0.82716 0.0
H183 H 0.99687 0.14542 0.54116 0.0
H184 H 0.15009 0.89194 0.70666 0.0
H185 H 0.13406 0.98872 0.72184 0.0
H186 H 0.10035 0.92977 0.95037 0.0
H187 H 0.15622 0.94407 0.63802 0.0
Eu188 Eu 0.53781 0.06932 0.81479 0.0
C189 C 0.5427 0.94194 0.54427 0.0
N190 N 0.548 0.97237 0.53281 0.0
C191 C 0.58889 0.9612 0.42085 0.0
C192 C 0.56102 0.91979 0.49699 0.0
C193 C 0.56982 0.98222 0.46837 0.0
C194 C 0.58473 0.92982 0.43614 0.0
C195 C 0.51005 0.90168 0.60765 0.0
C196 C 0.51755 0.93304 0.59801 0.0
C197 C 0.52901 0.87941 0.5647 0.0
C198 C 0.55448 0.88847 0.50949 0.0
Eu199 Eu 0.51618 1.00673 0.62218 0.0
N200 N 0.49942 0.95517 0.63641 0.0
C201 C 0.48332 0.89372 0.65805 0.0
C202 C 0.47266 0.94761 0.6821 0.0
C203 C 0.46439 0.91683 0.69458 0.0
H204 H 0.57264 1.00638 0.45333 0.0
H205 H 0.44336 0.91096 0.73206 0.0
H206 H 0.48673 0.12603 0.80776 0.0
H207 H 0.66369 0.0839 0.81333 0.0
H208 H 0.45768 0.96524 0.70978 0.0
H209 H 0.47677 0.8699 0.66723 0.0
H210 H 0.61526 0.0603 0.86425 0.0
H211 H 0.60663 0.9692 0.37188 0.0
H212 H 0.52378 0.85519 0.5718 0.0
H213 H 0.56856 0.87112 0.475 0.0
H214 H 0.4825 0.17861 0.74015 0.0
H215 H 0.5993 0.91357 0.39839 0.0
H216 H 0.66345 0.13108 0.71325 0.0
N217 N 0.53343 0.12112 0.76752 0.0
C218 C 0.55887 0.13472 0.73093 0.0
C219 C 0.50407 0.16647 0.73663 0.0
C220 C 0.55758 0.16453 0.69132 0.0
C221 C 0.50653 0.13686 0.77512 0.0
C222 C 0.52956 0.18014 0.69268 0.0
N223 N 0.58706 0.09208 0.7865 0.0
C224 C 0.61443 0.08052 0.81897 0.0
C225 C 0.61395 0.13436 0.71118 0.0
C226 C 0.58658 0.11964 0.74011 0.0
C227 C 0.64193 0.12056 0.73425 0.0
C228 C 0.64216 0.09399 0.79089 0.0
H229 H 0.52761 0.20306 0.66281 0.0
H230 H 0.58384 0.20087 0.62298 0.0
H231 H 0.63333 0.1745 0.64091 0.0
O232 O 0.54954 0.09677 0.94368 0.0
O233 O 0.51644 0.08441 0.66817 0.0
O234 O 0.54099 0.0506 0.57207 0.0
O235 O 0.51069 0.0663 0.94892 0.0
O236 O 0.57582 0.03423 0.77702 0.0
O237 O 0.56539 0.02448 0.61714 0.0
O238 O 0.4795 0.03576 0.56642 0.0
O239 O 0.52311 0.98253 0.77008 0.0
O240 O 0.53871 1.02051 0.87942 0.0
O241 O 0.49687 0.99746 0.47729 0.0
O242 O 0.48005 1.01516 0.74507 0.0
O243 O 0.48759 0.06617 0.77005 0.0
C244 C 0.52906 0.07806 0.58344 0.0
C245 C 0.54445 0.0651 0.08088 0.0
C246 C 0.5851 0.03041 0.13379 0.0
C247 C 0.56975 0.02646 0.22316 0.0
C248 C 0.52934 0.06098 0.17017 0.0
C249 C 0.54198 0.04156 0.24097 0.0
C250 C 0.57194 0.04948 0.06317 0.0
C251 C 0.58522 0.02686 0.68854 0.0
C252 C 0.53041 0.08211 0.9998 0.0
C253 C 0.58443 0.17818 0.65516 0.0
C254 C 0.61259 0.16312 0.66514 0.0
C255 C 0.53179 0.99155 0.85848 0.0
C256 C 0.45964 0.03136 0.40132 0.0
C257 C 0.43086 0.07246 0.32364 0.0
C258 C 0.4322 0.05637 0.23428 0.0
C259 C 0.46047 1.01547 0.3118 0.0
C260 C 0.44457 0.05974 0.40688 0.0
C261 C 0.44681 0.028 0.22876 0.0
C262 C 0.47006 0.04175 0.77882 0.0
C263 C 0.48019 0.02225 0.48098 0.0
H264 H 0.57948 1.0122 0.27962 0.0
H265 H 0.50767 0.0722 0.18426 0.0
H266 H 0.53031 0.03827 0.30994 0.0
H267 H 0.58278 0.05157 0.99255 0.0
H268 H 0.42104 0.06521 0.16935 0.0
H269 H 0.47276 0.99401 0.30488 0.0
H270 H 0.44417 0.07245 0.47517 0.0
H271 H 0.44773 1.01579 0.15975 0.0
Eu272 Eu 0.55442 0.5205 0.64458 0.0
C273 C 0.44983 0.49595 0.89734 0.0
N274 N 0.45304 0.5201 0.83509 0.0
C275 C 0.40211 0.51135 0.77355 0.0
C276 C 0.4232 0.47744 0.8954 0.0
C277 C 0.42877 0.52913 0.77871 0.0
C278 C 0.39956 0.48502 0.83068 0.0
C279 C 0.46956 0.46593 0.03317 0.0
C280 C 0.47244 0.49058 0.96696 0.0
C281 C 0.4437 0.44677 0.02848 0.0
C282 C 0.42053 0.45258 0.96007 0.0
Eu283 Eu 0.49948 0.54852 0.84955 0.0
N284 N 0.49741 0.50928 0.96959 0.0
C285 C 0.49293 0.46109 0.10168 0.0
C286 C 0.51929 0.50591 0.04076 0.0
C287 C 0.51797 0.48108 0.10506 0.0
H288 H 0.42942 0.55049 0.73906 0.0
H289 H 0.53625 0.47739 0.1573 0.0
H290 H 0.61417 0.56584 0.70259 0.0
H291 H 0.50097 0.49901 0.2919 0.0
H292 H 0.53872 0.52138 0.04323 0.0
H293 H 0.49183 0.44206 0.15242 0.0
H294 H 0.51681 0.48578 0.45975 0.0
H295 H 0.38332 0.51831 0.72688 0.0
H296 H 0.44123 0.42761 0.07823 0.0
H297 H 0.40037 0.438 0.95882 0.0
H298 H 0.64476 0.60734 0.62652 0.0
H299 H 0.37873 0.47144 0.82725 0.0
H300 H 0.5246 0.54373 0.20823 0.0
N301 N 0.5872 0.55791 0.57536 0.0
C302 C 0.58267 0.56451 0.47945 0.0
C303 C 0.62717 0.59564 0.58462 0.0
C304 C 0.59865 0.5887 0.43415 0.0
C305 C 0.60995 0.5721 0.62738 0.0
C306 C 0.62113 0.60435 0.48809 0.0
N307 N 0.5468 0.52402 0.47391 0.0
C308 C 0.52691 0.50548 0.42422 0.0
C309 C 0.55394 0.55521 0.33059 0.0
C310 C 0.56109 0.54762 0.42806 0.0
C311 C 0.5316 0.53787 0.2818 0.0
C312 C 0.51827 0.51266 0.32856 0.0
H313 H 0.63405 0.623 0.45578 0.0
H314 H 0.60264 0.61589 0.30242 0.0
H315 H 0.56298 0.58683 0.21204 0.0
O316 O 0.57929 0.48586 0.56054 0.0
O317 O 0.54656 0.57257 0.64002 0.0
O318 O 0.51139 0.59054 0.753 0.0
O319 O 0.59225 0.49561 0.71051 0.0
O320 O 0.50304 0.51195 0.61328 0.0
O321 O 0.48177 0.55314 0.69112 0.0
O322 O 0.50141 0.57077 0.99172 0.0
O323 O 0.52541 0.5021 0.8516 0.0
O324 O 0.52009 0.48463 0.69893 0.0
O325 O 0.46182 0.57767 0.90041 0.0
O326 O 0.5484 0.56467 0.87806 0.0
O327 O 0.57716 0.529 0.79537 0.0
C328 C 0.53024 0.59503 0.67849 0.0
C329 C 0.5898 0.44426 0.66715 0.0
C330 C 0.55508 0.40035 0.67511 0.0
C331 C 0.57282 0.38821 0.75192 0.0
C332 C 0.60732 0.4318 0.74344 0.0
C333 C 0.59891 0.40379 0.78515 0.0
C334 C 0.56429 0.42809 0.63223 0.0
C335 C 0.48166 0.53326 0.61786 0.0
C336 C 0.59426 0.47638 0.63777 0.0
C337 C 0.59127 0.59675 0.33754 0.0
C338 C 0.56873 0.58021 0.28614 0.0
C339 C 0.5194 0.47898 0.7928 0.0
C340 C 0.48068 0.62014 0.98789 0.0
C341 C 0.51429 0.66472 0.99664 0.0
C342 C 0.48839 0.68353 1.00942 0.0
C343 C 0.45511 0.63904 1.00113 0.0
C344 C 0.51011 0.63321 0.98372 0.0
C345 C 0.459 0.67071 1.01098 0.0
C346 C 0.57404 0.54922 0.86674 0.0
C347 C 0.47686 0.58689 0.97716 0.0
H348 H 0.56642 0.36696 0.78729 0.0
H349 H 0.62675 0.44429 0.77312 0.0
H350 H 0.6122 0.39447 0.84499 0.0
H351 H 0.55132 0.43749 0.57181 0.0
H352 H 0.49089 0.70796 0.02205 0.0
H353 H 0.43225 0.62931 1.00397 0.0
H354 H 0.53001 0.61884 0.97252 0.0
H355 H 0.43926 0.68529 0.02198 0.0
Eu356 Eu 0.03837 0.56072 0.65928 0.0
C357 C 0.04603 0.42967 0.89053 0.0
N358 N 0.02958 0.43948 0.81217 0.0
C359 C 0.03301 0.38941 0.73917 0.0
C360 C 0.05733 0.39937 0.8949 0.0
C361 C 0.02212 0.41954 0.73839 0.0
C362 C 0.05092 0.37934 0.81734 0.0
C363 C 0.06781 0.44021 0.05058 0.0
C364 C 0.0508 0.44968 0.96807 0.0
C365 C 0.0796 0.41029 0.0543 0.0
C366 C 0.07423 0.38987 0.97692 0.0
Eu367 Eu 1.01234 0.49108 0.81694 0.0
N368 N 0.03919 0.47854 0.96243 0.0
C369 C 0.07271 0.46118 0.12661 0.0
C370 C 0.0425 0.49855 0.03894 0.0
C371 C 0.06004 0.49045 0.12066 0.0
H372 H 1.00731 0.42656 0.67919 0.0
H373 H 0.06409 0.50683 0.1787 0.0
H374 H 0.99935 0.61406 0.78468 0.0
H375 H 0.02682 0.52749 0.27257 0.0
H376 H 0.03259 0.52115 0.03554 0.0
H377 H 0.08604 0.45493 0.19047 0.0
H378 H 0.0531 0.53121 0.43118 0.0
H379 H 0.02731 0.37388 0.67989 0.0
H380 H 0.09266 0.40264 0.11715 0.0
H381 H 0.08309 0.36671 0.98145 0.0
H382 H 0.95393 0.64705 0.76306 0.0
H383 H 0.05917 0.35591 0.81804 0.0
H384 H 0.97824 0.55459 0.2446 0.0
N385 N 0.99514 0.59306 0.64503 0.0
C386 C 0.98099 0.59354 0.55617 0.0
C387 C 0.96106 0.63184 0.70477 0.0
C388 C 0.95491 0.61198 0.54057 0.0
C389 C 0.98658 0.61293 0.7173 0.0
C390 C 0.94488 0.63104 0.61654 0.0
N391 N 1.01778 0.55767 0.49813 0.0
C392 C 0.03116 0.54221 0.42249 0.0
C393 C 0.97705 0.5741 0.39025 0.0
C394 C 0.99212 0.57479 0.48178 0.0
C395 C 0.98931 0.55607 0.31547 0.0
C396 C 1.01676 0.54061 0.33112 0.0
H397 H 0.92494 0.64553 0.60735 0.0
H398 H 0.91921 0.62429 0.4376 0.0
H399 H 0.93837 0.59092 0.30643 0.0
O400 O 0.06283 0.58952 0.55506 0.0
O401 O 0.98733 0.54979 0.69265 0.0
O402 O 0.98791 0.49909 0.67189 0.0
O403 O 0.05936 0.60404 0.70507 0.0
O404 O 0.05617 0.51458 0.59481 0.0
O405 O 0.02197 0.47905 0.65733 0.0
O406 O 0.96805 0.50289 0.87952 0.0
O407 O 0.0621 0.50562 0.84936 0.0
O408 O 0.08068 0.53432 0.71988 0.0
O409 O 0.98067 0.45507 0.86394 0.0
O410 O 1.00365 0.53916 0.88498 0.0
O411 O 0.0418 0.56943 0.82251 0.0
C412 C 0.97391 0.52512 0.65725 0.0
C413 C 0.10449 0.61574 0.62242 0.0
C414 C 0.15571 0.59458 0.60575 0.0
C415 C 0.16731 0.62478 0.59734 0.0
C416 C 0.11606 0.64554 0.61369 0.0
C417 C 0.14762 0.65003 0.60371 0.0
C418 C 0.12447 0.59092 0.62517 0.0
C419 C 0.04335 0.48686 0.59433 0.0
C420 C 0.07163 0.60949 0.62048 0.0
C421 C 0.93955 0.61066 0.45037 0.0
C422 C 0.95046 0.59162 0.3757 0.0
C423 C 0.08518 0.51825 0.80114 0.0
C424 C 0.93127 0.47001 0.81047 0.0
C425 C 0.88251 0.49067 0.75401 0.0
C426 C 0.88288 0.47062 0.67371 0.0
C427 C 0.93168 0.45023 0.72889 0.0
C428 C 0.9064 0.48955 0.82301 0.0
C429 C 0.90744 0.45041 0.66151 0.0
C430 C 0.02064 0.56439 0.8884 0.0
C431 C 0.95832 0.47454 0.87394 0.0
H432 H 0.19113 0.62915 0.58068 0.0
H433 H 0.10077 0.66507 0.61251 0.0
H434 H 0.15667 0.67304 0.59579 0.0
H435 H 0.11496 0.56838 0.63531 0.0
H436 H 0.86441 0.47076 0.62062 0.0
H437 H 0.95096 0.43522 0.71569 0.0
H438 H 0.90604 0.50444 0.88674 0.0
H439 H 0.90797 0.43523 0.59875 0.0
H440 H 0.14405 0.06438 0.20006 0.0
H441 H 0.21175 1.01267 0.35909 0.0
H442 H 0.17632 1.00797 0.49754 0.0
H443 H 0.12543 1.01811 0.57429 0.0
H444 H 0.05773 0.06935 0.41267 0.0
H445 H 0.09355 0.07456 0.27662 0.0
C446 C 0.15125 0.05229 0.26542 0.0
C447 C 0.18111 0.03941 0.26851 0.0
C448 C 0.13048 0.04947 0.34512 0.0
C449 C 0.18943 0.02331 0.3538 0.0
C450 C 0.16896 1.02053 0.43338 0.0
C451 C 0.11837 0.03053 0.50963 0.0
C452 C 0.08837 0.04329 0.50563 0.0
C453 C 0.13933 0.03347 0.43013 0.0
C454 C 0.08024 0.05917 0.41968 0.0
C455 C 0.10087 0.0622 0.3411 0.0
H456 H 0.54527 0.15952 0.19521 0.0
H457 H 0.47003 0.20877 0.32432 0.0
H458 H 0.47191 0.17545 0.46761 0.0
H459 H 0.49265 0.12972 0.55442 0.0
H460 H 0.56597 0.07854 0.42141 0.0
H461 H 0.56664 0.11421 0.28351 0.0
C462 C 0.52968 0.16343 0.25554 0.0
C463 C 0.5082 0.18781 0.24878 0.0
C464 C 0.53008 0.1431 0.33749 0.0
C465 C 0.48768 0.19142 0.32759 0.0
C466 C 0.48839 0.17184 0.40958 0.0
C467 C 0.50905 0.1265 0.49596 0.0
C468 C 0.52932 0.1011 0.49992 0.0
C469 C 0.50922 0.14729 0.41527 0.0
C470 C 0.54995 0.09749 0.42151 0.0
C471 C 0.55043 0.11811 0.34214 0.0
H472 H 0.37394 0.57084 0.3218 0.0
H473 H 0.39122 0.4812 0.20182 0.0
H474 H 0.43068 0.47242 0.32781 0.0
H475 H 0.46147 0.49092 0.47342 0.0
H476 H 0.44461 0.58227 0.58337 0.0
H477 H 0.40418 0.58917 0.46292 0.0
C478 C 0.38579 0.54903 0.32414 0.0
C479 C 0.37841 0.52632 0.25319 0.0
C480 C 0.40904 0.54444 0.39592 0.0
C481 C 0.39528 0.49878 0.25651 0.0
C482 C 0.41822 0.49389 0.32851 0.0
C483 C 0.44922 0.51247 0.47072 0.0
C484 C 0.45676 0.53604 0.53938 0.0
C485 C 0.42557 0.51665 0.39876 0.0
C486 C 0.43977 0.56348 0.5336 0.0
C487 C 0.41642 0.56756 0.4639 0.0
H488 H 0.06554 0.3621 0.35981 0.0
H489 H 1.00418 0.40609 0.15677 0.0
H490 H 1.0052 0.45282 0.25514 0.0
H491 H 1.01848 0.4797 0.4097 0.0
H492 H 0.08131 0.43759 0.61107 0.0
H493 H 0.08455 0.39226 0.50473 0.0
C494 C 0.0532 0.38221 0.3353 0.0
C495 C 0.03508 0.38016 0.24901 0.0
C496 C 0.05384 0.40961 0.3933 0.0
C497 C 1.01862 0.40659 0.2213 0.0
C498 C 1.01897 0.4335 0.2784 0.0
C499 C 0.03416 0.46141 0.42806 0.0
C500 C 0.0507 0.46305 0.51721 0.0
C501 C 0.03595 0.43519 0.36574 0.0
C502 C 0.06914 0.43772 0.54188 0.0
C503 C 0.07076 0.41151 0.48112 0.0
H504 H 0.85791 0.97746 0.07864 0.0
H505 H 0.86594 0.06844 0.2004 0.0
H506 H 0.9157 0.07493 0.12136 0.0
H507 H 0.95466 0.05736 1.00172 0.0
H508 H 0.94909 0.96565 0.88574 0.0
H509 H 0.90139 0.95689 0.97724 0.0
C510 C 0.87095 0.99836 0.09037 0.0
C511 C 0.85766 0.02245 0.14634 0.0
C512 C 0.90008 1.00204 0.04385 0.0
C513 C 0.87519 0.04941 0.15892 0.0
C514 C 0.90372 0.05327 0.11263 0.0
C515 C 0.94342 0.03516 0.99824 0.0
C516 C 0.95588 1.01211 0.93686 0.0
C517 C 0.91606 0.03016 0.05256 0.0
C518 C 0.94061 0.98364 0.9332 0.0
C519 C 0.91304 0.97874 0.98518 0.0
H520 H 0.5201 0.91497 0.25788 0.0
H521 H 0.5385 0.83913 0.06459 0.0
H522 H 0.54442 0.87465 0.92703 0.0
H523 H 0.54036 0.92763 0.85673 0.0
H524 H 0.5224 1.0031 0.05236 0.0
H525 H 0.52056 0.96808 0.19084 0.0
C526 C 0.52616 0.90622 0.1862 0.0
C527 C 0.52885 0.87402 0.17289 0.0
C528 C 0.52924 0.92701 0.10614 0.0
C529 C 0.53646 0.86353 0.07832 0.0
C530 C 0.53954 0.88397 0.99886 0.0
C531 C 0.53627 0.9365 0.92967 0.0
C532 C 0.53193 0.96858 0.9426 0.0
C533 C 0.53526 0.9158 1.01091 0.0
C534 C 0.52659 0.97904 0.03884 0.0
C535 C 0.52526 0.95879 0.11883 0.0
H536 H 0.6628 0.57678 0.23223 0.0
H537 H 0.71487 0.50398 0.09947 0.0
H538 H 0.67851 0.50168 0.96315 0.0
H539 H 0.62908 0.51729 0.88652 0.0
H540 H 0.57788 0.59131 1.01663 0.0
H541 H 0.61705 0.59707 0.14299 0.0
C542 C 0.6667 0.56097 0.1722 0.0
C543 C 0.69196 0.54059 0.17736 0.0
C544 C 0.64536 0.55965 0.0928 0.0
C545 C 0.696 0.52007 0.09848 0.0
C546 C 0.67492 0.51855 1.0203 0.0
C547 C 0.62633 0.53473 0.94245 0.0
C548 C 0.59977 0.55353 0.94117 0.0
C549 C 0.64898 0.53766 1.01758 0.0
C550 C 0.59742 0.5761 1.01491 0.0
C551 C 0.61986 0.57928 0.08854 0.0
H552 H 0.9808 0.65584 0.23519 0.0
H553 H 0.05663 0.70792 0.12051 0.0
H554 H 0.0646 0.66917 0.99401 0.0
H555 H 0.05179 0.61903 0.91846 0.0
H556 H 0.97695 0.56565 0.03481 0.0
H557 H 0.96713 0.60586 0.15628 0.0
C558 C 0.99871 0.6591 0.18134 0.0
C559 C 1.01742 0.68584 0.18666 0.0
C560 C 1.0038 0.6359 0.10934 0.0
C561 C 0.04102 0.68869 0.11715 0.0
C562 C 0.04594 0.66605 0.04521 0.0
C563 C 0.03335 0.61594 0.97048 0.0
C564 C 1.0153 0.58875 0.96642 0.0
C565 C 0.02775 0.63934 0.04101 0.0
C566 C 0.99148 0.58585 0.03526 0.0
C567 C 0.98578 0.60902 0.10521 0.0
H568 H 0.02702 0.27766 0.41688 0.0
H569 H 0.09438 0.20921 0.34316 0.0
H570 H 0.08152 0.18049 0.49115 0.0
H571 H 0.04223 0.16877 0.61256 0.0
H572 H 0.96909 0.23306 0.66442 0.0
H573 H 0.99429 0.27061 0.55958 0.0
C574 C 0.03977 0.25711 0.43534 0.0
C575 C 0.06121 0.24515 0.3689 0.0
C576 C 0.031 0.23999 0.51696 0.0
C577 C 0.07745 0.21845 0.39291 0.0
C578 C 0.07005 0.20208 0.47724 0.0
C579 C 0.03234 0.19139 0.60292 0.0
C580 C 1.00331 0.1978 0.6423 0.0
C581 C 0.04546 0.21162 0.53573 0.0
C582 C 0.99118 0.22744 0.63326 0.0
C583 C 1.00536 0.24872 0.57205 0.0
H584 H 0.32725 0.14428 0.17066 0.0
H585 H 0.28574 0.09102 0.39899 0.0
H586 H 0.33314 0.09171 0.49098 0.0
H587 H 0.38749 0.08284 0.45891 0.0
H588 H 0.42974 0.12332 0.20553 0.0
H589 H 0.3828 0.15158 0.17005 0.0
C590 C 0.32835 0.13416 0.24305 0.0
C591 C 0.30469 0.11413 0.27198 0.0
C592 C 0.35707 0.13062 0.2878 0.0
C593 C 0.30468 0.10423 0.36995 0.0
C594 C 0.3322 0.104 0.4222 0.0
C595 C 0.38696 0.09919 0.3992 0.0
C596 C 0.41118 0.0999 0.33179 0.0
C597 C 0.35915 0.11311 0.37466 0.0
C598 C 0.4107 0.12161 0.25599 0.0
C599 C 0.38381 0.13768 0.2356 0.0
H600 H 0.4687 0.35458 0.35178 0.0
H601 H 0.52056 0.27227 0.41454 0.0
H602 H 0.53589 0.29272 0.56935 0.0
H603 H 0.54873 0.3387 0.65824 0.0
H604 H 0.50167 0.42335 0.59412 0.0
H605 H 0.47114 0.39743 0.46969 0.0
C606 C 0.48289 0.34091 0.4 0.0
C607 C 0.49404 0.31233 0.36832 0.0
C608 C 0.49364 0.3536 0.48812 0.0
C609 C 0.5113 0.29439 0.43452 0.0
C610 C 0.52068 0.30625 0.52386 0.0
C611 C 0.53095 0.35139 0.62058 0.0
C612 C 0.52886 0.38325 0.63171 0.0
C613 C 0.51409 0.33664 0.54732 0.0
C614 C 0.50501 0.39897 0.58332 0.0
C615 C 0.48742 0.38418 0.51203 0.0
H616 H 0.20988 0.49344 0.34266 0.0
H617 H 0.29074 0.54828 0.39664 0.0
H618 H 0.26644 0.57188 0.53733 0.0
H619 H 0.21826 0.58691 0.6141 0.0
H620 H 0.135 0.53914 0.52883 0.0
H621 H 0.16411 0.5026 0.43852 0.0
C622 C 0.22234 0.51016 0.38637 0.0
C623 C 0.25149 0.51986 0.35694 0.0
C624 C 0.20749 0.52545 0.46251 0.0
C625 C 0.26801 0.54054 0.41668 0.0
C626 C 0.254 0.5544 0.49684 0.0
C627 C 0.20635 0.56856 0.5761 0.0
C628 C 0.17416 0.56727 0.57628 0.0
C629 C 0.22297 0.54876 0.51537 0.0
C630 C 0.1596 0.54175 0.53147 0.0
C631 C 0.17628 0.52062 0.47747 0.0
H632 H 0.05683 0.80075 0.02847 0.0
H633 H 0.11854 0.82503 0.26336 0.0
H634 H 0.14898 0.8562 0.15134 0.0
H635 H 0.1505 0.88524 0.99798 0.0
H636 H 0.08713 0.86335 0.76615 0.0
H637 H 0.06526 0.82177 0.86422 0.0
C638 C 0.07763 0.81188 0.05415 0.0
C639 C 0.08517 0.81121 0.15413 0.0
C640 C 0.09443 0.83044 0.99 0.0
C641 C 0.11209 0.82577 0.18681 0.0
C642 C 0.1294 0.84363 0.12297 0.0
C643 C 0.13276 0.87043 0.96794 0.0
C644 C 0.12019 0.87708 0.87608 0.0
C645 C 0.11972 0.84749 0.02601 0.0
C646 C 0.09712 0.85824 0.83687 0.0
C647 C 0.08444 0.83479 0.89334 0.0
H648 H 0.72461 1.00345 0.09519 0.0
H649 H 0.69777 0.92266 0.25367 0.0
H650 H 0.6439 0.93269 0.21632 0.0
H651 H 0.60502 0.97254 0.18081 0.0
H652 H 0.634 0.05695 0.04364 0.0
H653 H 0.68587 0.03769 0.03029 0.0
C654 C 0.70711 0.98702 0.11647 0.0
C655 C 0.71494 0.96311 0.18037 0.0
C656 C 0.67621 0.99466 0.10287 0.0
C657 C 0.6922 0.94155 0.20551 0.0
C658 C 0.66127 0.94786 0.18676 0.0
C659 C 0.62268 0.98656 0.14739 0.0
C660 C 0.61562 1.0164 0.11517 0.0
C661 C 0.65303 0.97578 0.14304 0.0
C662 C 0.63858 0.0339 0.06912 0.0
C663 C 0.66843 0.02295 0.06163 0.0
H664 H 0.6194 0.72014 0.22778 0.0
H665 H 0.58549 0.79877 0.07206 0.0
H666 H 0.5658 0.76611 0.94419 0.0
H667 H 0.53766 0.71751 0.92252 0.0
H668 H 0.56102 0.64014 0.10404 0.0
H669 H 0.60328 0.6688 0.17601 0.0
C670 C 0.60783 0.73017 0.16535 0.0
C671 C 0.59884 0.76117 0.16869 0.0
C672 C 0.59287 0.71081 0.09847 0.0
C673 C 0.58929 0.7744 0.07939 0.0
C674 C 0.57751 0.75561 1.00553 0.0
C675 C 0.55269 0.70668 0.97543 0.0
C676 C 0.54549 0.67738 1.01088 0.0
C677 C 0.57553 0.724 0.02184 0.0
C678 C 0.56575 0.66295 0.07657 0.0
C679 C 0.5899 0.67944 0.11847 0.0
H680 H 0.78245 0.52876 0.02252 0.0
H681 H 0.85168 0.5963 0.09196 0.0
H682 H 0.87616 0.58736 0.93364 0.0
H683 H 0.8852 0.55055 0.80284 0.0
H684 H 0.82163 0.47625 0.75465 0.0
H685 H 0.78596 0.49912 0.87097 0.0
C686 C 0.80226 0.5423 1.00138 0.0
C687 C 0.8158 0.56262 0.06893 0.0
C688 C 0.81697 0.53584 0.91311 0.0
C689 C 0.84143 0.58003 0.04143 0.0
C690 C 0.85527 0.57501 0.95101 0.0
C691 C 0.8629 0.54019 0.81485 0.0
C692 C 0.85648 0.51119 0.7744 0.0
C693 C 0.84437 0.55151 0.88966 0.0
C694 C 0.8273 0.49827 0.78696 0.0
C695 C 0.80722 0.51102 0.85509 0.0
H696 H 1.00711 0.20186 0.09225 0.0
H697 H 0.08084 0.23938 0.92114 0.0
H698 H 0.07923 0.19401 0.81356 0.0
H699 H 0.05926 0.14093 0.77513 0.0
H700 H 0.98376 0.10568 0.944 0.0
H701 H 0.9839 0.1521 0.04438 0.0
C702 C 0.02242 0.20056 0.03002 0.0
C703 C 0.04391 0.22466 1.01516 0.0
C704 C 0.02143 0.17415 0.96848 0.0
C705 C 0.06366 0.22189 0.93421 0.0
C706 C 0.06299 0.19556 0.87315 0.0
C707 C 0.04269 0.14352 0.83344 0.0
C708 C 0.02165 0.11921 0.85187 0.0
C709 C 0.0424 0.17111 0.89059 0.0
C710 C 1.00024 0.12354 0.92747 0.0
C711 C 1.00033 0.15028 0.98536 0.0
H712 H 0.34156 0.08932 0.94318 0.0
H713 H 0.33309 0.99621 0.04444 0.0
H714 H 0.3813 0.98306 0.96089 0.0
H715 H 0.42921 0.99944 0.86864 0.0
H716 H 0.43673 0.0942 0.78013 0.0
H717 H 0.38676 0.10494 0.84965 0.0
C718 C 0.34991 0.06593 0.94671 0.0
C719 C 0.33299 0.04392 1.00133 0.0
C720 C 0.37835 0.05883 0.90138 0.0
C721 C 0.34476 1.01378 1.00276 0.0
C722 C 0.37282 1.00634 0.95566 0.0
C723 C 0.4198 0.02237 0.86362 0.0
C724 C 0.43755 0.04594 0.81825 0.0
C725 C 0.39036 0.02883 0.90616 0.0
C726 C 0.42444 0.07547 0.81433 0.0
C727 C 0.3955 0.08173 0.8542 0.0
H728 H 0.47647 0.34512 0.93938 0.0
H729 H 0.55935 0.35354 0.10898 0.0
H730 H 0.5698 0.40353 0.03487 0.0
H731 H 0.5543 0.44704 0.92785 0.0
H732 H 0.47316 0.4381 0.75064 0.0
H733 H 0.46333 0.38711 0.82012 0.0
C734 C 0.49735 0.35738 0.95781 0.0
C735 C 0.5175 0.34461 0.02881 0.0
C736 C 0.50334 0.38671 0.91418 0.0
C737 C 0.5438 0.36192 0.0533 0.0
C738 C 0.5496 0.39093 1.01165 0.0
C739 C 0.53456 0.43386 0.90379 0.0
C740 C 0.51469 0.44671 0.83263 0.0
C741 C 0.52934 0.40393 0.94316 0.0
C742 C 0.48924 0.42893 0.80341 0.0
C743 C 0.48351 0.39963 0.84386 0.0
H744 H 0.20291 0.47693 0.04893 0.0
H745 H 0.24168 0.56046 0.93612 0.0
H746 H 0.19512 0.56875 0.837 0.0
H747 H 0.14014 0.55435 0.79361 0.0
H748 H 0.10482 0.46867 0.90272 0.0
H749 H 0.15202 0.45975 0.99165 0.0
C750 C 0.20164 0.49667 1.00099 0.0
C751 C 0.22655 0.51777 1.00034 0.0
C752 C 0.17451 0.50143 0.94464 0.0
C753 C 0.22364 0.54335 0.93783 0.0
C754 C 0.19659 0.54831 0.88171 0.0
C755 C 0.14284 0.53346 0.83524 0.0
C756 C 0.11751 0.51269 0.84268 0.0
C757 C 0.17135 0.52784 0.88583 0.0
C758 C 0.12251 0.48588 0.89799 0.0
C759 C 0.15005 0.48048 0.94844 0.0
H760 H 0.06562 0.84557 0.49018 0.0
H761 H 0.97196 0.84239 0.39086 0.0
H762 H 0.96181 0.89133 0.47521 0.0
H763 H 0.98097 0.9377 0.56813 0.0
H764 H 0.07581 0.93985 0.65876 0.0
H765 H 0.08378 0.88947 0.58761 0.0
C766 C 0.04272 0.85516 0.48833 0.0
C767 C 0.01959 0.83967 0.43393 0.0
C768 C 0.03733 0.88384 0.53464 0.0
C769 C 0.99019 0.85302 0.43299 0.0
C770 C 0.9845 0.88143 0.48034 0.0
C771 C 1.00341 0.92728 0.57216 0.0
C772 C 0.02782 0.94355 0.61876 0.0
C773 C 1.00811 0.89757 0.52969 0.0
C774 C 0.05648 0.92872 0.62376 0.0
C775 C 0.06114 0.89955 0.58281 0.0
H776 H 0.71888 0.9814 0.57359 0.0
H777 H 0.71367 0.05967 0.38305 0.0
H778 H 0.66492 0.07451 0.45761 0.0
H779 H 0.61973 0.06094 0.56067 0.0
H780 H 0.62602 0.98444 0.75819 0.0
H781 H 0.67787 0.97329 0.69822 0.0
C782 C 0.70794 1.00263 0.5519 0.0
C783 C 0.72083 1.01978 0.47369 0.0
C784 C 0.67934 1.01083 0.59468 0.0
C785 C 0.70528 0.04655 0.44469 0.0
C786 C 0.67686 0.05468 0.48613 0.0
C787 C 0.63273 0.0422 0.59207 0.0
C788 C 0.61874 0.02347 0.66404 0.0
C789 C 0.66304 0.03636 0.55856 0.0
C790 C 0.63607 0.99934 0.70358 0.0
C791 C 0.66579 0.99291 0.66879 0.0
H792 H 0.53708 0.70061 0.3565 0.0
H793 H 0.54437 0.76019 0.60722 0.0
H794 H 0.53692 0.7157 0.71604 0.0
H795 H 0.53237 0.65778 0.74053 0.0
H796 H 0.52638 0.60056 0.4832 0.0
H797 H 0.53007 0.64537 0.37894 0.0
C798 C 0.53686 0.70419 0.43505 0.0
C799 C 0.54153 0.73434 0.47227 0.0
C800 C 0.5334 0.67829 0.4972 0.0
C801 C 0.54062 0.73777 0.57496 0.0
C802 C 0.53669 0.71202 0.63763 0.0
C803 C 0.53161 0.65515 0.66172 0.0
C804 C 0.52984 0.62501 0.62073 0.0
C805 C 0.53366 0.68184 0.59995 0.0
C806 C 0.52874 0.62278 0.51792 0.0
C807 C 0.53052 0.64868 0.45755 0.0
H808 H 0.86517 0.51296 0.344 0.0
H809 H 0.82487 0.58399 0.52091 0.0
H810 H 0.86963 0.5828 0.63067 0.0
H811 H 0.92227 0.56292 0.67322 0.0
H812 H 0.96023 0.49 0.49842 0.0
H813 H 0.91516 0.49087 0.39211 0.0
C814 C 0.86583 0.52795 0.40739 0.0
C815 C 0.84108 0.54852 0.42328 0.0
C816 C 0.8918 0.52706 0.47067 0.0
C817 C 0.84292 0.5676 0.50654 0.0
C818 C 0.86887 0.56712 0.56909 0.0
C819 C 0.9206 0.54713 0.6121 0.0
C820 C 0.94515 0.52645 0.5944 0.0
C821 C 0.89377 0.54722 0.55145 0.0
C822 C 0.94209 0.50614 0.51472 0.0
C823 C 0.91614 0.50664 0.45345 0.0
loop_
_geom_bond_atom_site_label_1
_geom_bond_atom_site_label_2
_geom_bond_distance
_geom_bond_site_symmetry_2
_ccdc_geom_bond_type
H0 C7 0.929 . S
H1 C10 0.930 . S
H2 C12 0.929 . S
H3 C4 0.969 . S
C4 H3 0.969 . S
C4 O5 1.550 . S
C4 H6 0.973 . S
O5 C4 1.550 . S
O5 C11 1.412 . S
H6 C4 0.973 . S
C7 H0 0.929 . S
C7 C8 1.400 . S
C7 C9 1.364 . S
C8 C7 1.400 . S
C8 C12 1.377 . S
C9 C7 1.364 . S
C9 C10 1.374 . S
C10 H1 0.930 . S
C10 C9 1.374 . S
C10 C11 1.383 . S
C11 O5 1.412 . S
C11 C10 1.383 . S
C11 C12 1.394 . S
C12 H2 0.929 . S
C12 C8 1.377 . S
C12 C11 1.394 . S
H13 C20 0.929 . S
H14 C23 0.930 . S
H15 C25 0.929 . S
H16 C17 0.969 1_455 S
C17 H16 0.969 1_655 S
C17 O18 1.550 . S
C17 H19 0.973 . S
O18 C17 1.550 . S
O18 C24 1.412 . S
H19 C17 0.973 . S
C20 H13 0.929 . S
C20 C21 1.400 . S
C20 C22 1.364 . S
C21 C20 1.400 . S
C21 C25 1.377 . S
C22 C20 1.364 . S
C22 C23 1.374 . S
C23 H14 0.930 . S
C23 C22 1.374 . S
C23 C24 1.383 . S
C24 O18 1.412 . S
C24 C23 1.383 . S
C24 C25 1.394 . S
C25 H15 0.929 . S
C25 C21 1.377 . S
C25 C24 1.394 . S
H26 C33 0.929 . S
H27 C36 0.930 . S
H28 C38 0.929 . S
H29 C30 0.969 1_545 S
C30 H29 0.969 1_565 S
C30 O31 1.550 . S
C30 H32 0.973 . S
O31 C30 1.550 . S
O31 C37 1.412 . S
H32 C30 0.973 . S
C33 H26 0.929 . S
C33 C34 1.400 . S
C33 C35 1.364 . S
C34 C33 1.400 . S
C34 C38 1.377 . S
C35 C33 1.364 . S
C35 C36 1.374 . S
C36 H27 0.930 . S
C36 C35 1.374 . S
C36 C37 1.383 . S
C37 O31 1.412 . S
C37 C36 1.383 . S
C37 C38 1.394 . S
C38 H28 0.929 . S
C38 C34 1.377 . S
C38 C37 1.394 . S
H39 C46 0.929 . S
H40 C49 0.930 . S
H41 C51 0.929 . S
H42 C43 0.969 . S
C43 H42 0.969 . S
C43 O44 1.550 . S
C43 H45 0.973 . S
O44 C43 1.550 . S
O44 C50 1.412 . S
H45 C43 0.973 . S
C46 H39 0.929 . S
C46 C47 1.400 . S
C46 C48 1.364 . S
C47 C46 1.400 . S
C47 C51 1.377 . S
C48 C46 1.364 . S
C48 C49 1.374 . S
C49 H40 0.930 . S
C49 C48 1.374 . S
C49 C50 1.383 . S
C50 O44 1.412 . S
C50 C49 1.383 . S
C50 C51 1.394 . S
C51 H41 0.929 . S
C51 C47 1.377 . S
C51 C50 1.394 . S
H52 C59 0.929 . S
H53 C62 0.930 . S
H54 C64 0.929 . S
H55 C56 0.969 . S
C56 H55 0.969 . S
C56 O57 1.550 . S
C56 H58 0.973 . S
O57 C56 1.550 . S
O57 C63 1.412 . S
H58 C56 0.973 . S
C59 H52 0.929 . S
C59 C60 1.400 1_554 S
C59 C61 1.364 . S
C60 C59 1.400 1_556 S
C60 C64 1.377 . S
C61 C59 1.364 . S
C61 C62 1.374 . S
C62 H53 0.930 . S
C62 C61 1.374 . S
C62 C63 1.383 . S
C63 O57 1.412 . S
C63 C62 1.383 . S
C63 C64 1.394 1_554 S
C64 H54 0.929 . S
C64 C60 1.377 . S
C64 C63 1.394 1_556 S
H65 C72 0.929 . S
H66 C75 0.930 . S
H67 C77 0.929 . S
H68 C69 0.969 . S
C69 H68 0.969 . S
C69 O70 1.550 . S
C69 H71 0.973 . S
O70 C69 1.550 . S
O70 C76 1.412 . S
H71 C69 0.973 . S
C72 H65 0.929 . S
C72 C73 1.400 1_554 S
C72 C74 1.364 . S
C73 C72 1.400 1_556 S
C73 C77 1.377 . S
C74 C72 1.364 . S
C74 C75 1.374 . S
C75 H66 0.930 . S
C75 C74 1.374 . S
C75 C76 1.383 . S
C76 O70 1.412 . S
C76 C75 1.383 . S
C76 C77 1.394 1_554 S
C77 H67 0.929 . S
C77 C73 1.377 . S
C77 C76 1.394 1_556 S
H78 C85 0.929 . S
H79 C88 0.930 . S
H80 C90 0.929 . S
H81 C82 0.969 . S
C82 H81 0.969 . S
C82 O83 1.550 . S
C82 H84 0.973 . S
O83 C82 1.550 . S
O83 C89 1.412 . S
H84 C82 0.973 . S
C85 H78 0.929 . S
C85 C86 1.400 1_554 S
C85 C87 1.364 . S
C86 C85 1.400 1_556 S
C86 C90 1.377 . S
C87 C85 1.364 . S
C87 C88 1.374 . S
C88 H79 0.930 . S
C88 C87 1.374 . S
C88 C89 1.383 . S
C89 O83 1.412 . S
C89 C88 1.383 . S
C89 C90 1.394 1_554 S
C90 H80 0.929 . S
C90 C86 1.377 . S
C90 C89 1.394 1_556 S
H91 C98 0.929 . S
H92 C101 0.930 . S
H93 C103 0.929 . S
H94 C95 0.969 . S
C95 H94 0.969 . S
C95 O96 1.550 . S
C95 H97 0.973 . S
O96 C95 1.550 . S
O96 C102 1.412 . S
H97 C95 0.973 . S
C98 H91 0.929 . S
C98 C99 1.400 1_554 S
C98 C100 1.364 . S
C99 C98 1.400 1_556 S
C99 C103 1.377 . S
C100 C98 1.364 . S
C100 C101 1.374 . S
C101 H92 0.930 . S
C101 C100 1.374 . S
C101 C102 1.383 . S
C102 O96 1.412 . S
C102 C101 1.383 . S
C102 C103 1.394 1_554 S
C103 H93 0.929 . S
C103 C99 1.377 . S
C103 C102 1.394 1_556 S
Eu104 N133 2.600 . S
Eu104 N139 2.562 . S
Eu104 O148 2.462 . S
Eu104 O149 2.373 1_545 S
Eu104 O151 2.432 . S
Eu104 O152 2.291 1_655 S
Eu104 O156 2.335 1_655 S
Eu104 O159 2.372 . S
Eu104 C168 2.787 . S
C105 N106 1.365 . S
C105 C108 1.405 . S
C105 C112 1.448 1_556 S
N106 C105 1.365 . S
N106 C109 1.319 . S
N106 Eu115 2.600 1_545 S
C107 C109 1.397 . S
C107 C110 1.367 . S
C107 H127 0.931 . S
C108 C105 1.405 . S
C108 C110 1.403 . S
C108 C114 1.439 1_556 S
C109 N106 1.319 . S
C109 C107 1.397 . S
C109 H120 0.930 1_545 S
C110 C107 1.367 . S
C110 C108 1.403 . S
C110 H131 0.929 . S
C111 C112 1.430 . S
C111 C113 1.387 . S
C111 C117 1.404 . S
C112 C105 1.448 1_554 S
C112 C111 1.430 . S
C112 N116 1.351 1_554 S
C113 C111 1.387 . S
C113 C114 1.374 . S
C113 H128 0.931 . S
C114 C108 1.439 1_554 S
C114 C113 1.374 . S
C114 H129 0.931 . S
Eu115 N106 2.600 1_565 S
Eu115 N116 2.562 1_565 S
Eu115 O150 2.335 . S
Eu115 O153 2.372 . S
Eu115 O154 2.462 . S
Eu115 O155 2.373 1_565 S
Eu115 O157 2.432 . S
Eu115 O158 2.291 1_465 S
Eu115 C179 2.787 . S
N116 C112 1.351 1_556 S
N116 Eu115 2.562 1_545 S
N116 C118 1.325 1_556 S
C117 C111 1.404 . S
C117 C119 1.366 . S
C117 H125 0.930 . S
C118 N116 1.325 1_554 S
C118 C119 1.416 . S
C118 H124 0.929 1_455 S
C119 C117 1.366 . S
C119 C118 1.416 . S
C119 H121 0.926 1_455 S
H120 C109 0.930 1_565 S
H121 C119 0.926 1_655 S
H122 C137 0.930 . S
H123 C144 0.937 . S
H124 C118 0.929 1_655 S
H125 C117 0.930 . S
H126 C140 0.944 . S
H127 C107 0.931 . S
H128 C113 0.931 . S
H129 C114 0.931 . S
H130 C135 0.931 . S
H131 C110 0.929 . S
H132 C143 0.930 . S
N133 Eu104 2.600 . S
N133 C134 1.365 . S
N133 C137 1.319 . S
C134 N133 1.365 . S
C134 C136 1.405 1_545 S
C134 C142 1.448 1_545 S
C135 H130 0.931 . S
C135 C137 1.397 . S
C135 C138 1.367 1_545 S
C136 C134 1.405 1_565 S
C136 C138 1.403 . S
C136 C169 1.439 . S
C137 H122 0.930 . S
C137 N133 1.319 . S
C137 C135 1.397 . S
C138 C135 1.367 1_565 S
C138 C136 1.403 . S
C138 H145 0.929 . S
N139 Eu104 2.562 . S
N139 C140 1.311 1_655 S
N139 C142 1.351 1_545 S
C140 H126 0.944 . S
C140 N139 1.311 1_455 S
C140 C144 1.416 1_545 S
C141 C142 1.430 . S
C141 C143 1.404 . S
C141 C170 1.387 . S
C142 C134 1.448 1_565 S
C142 N139 1.351 1_565 S
C142 C141 1.430 . S
C143 H132 0.930 . S
C143 C141 1.404 . S
C143 C144 1.358 1_655 S
C144 H123 0.937 . S
C144 C140 1.416 1_565 S
C144 C143 1.358 1_455 S
H145 C138 0.929 . S
H146 C169 0.931 . S
H147 C170 0.931 . S
O148 Eu104 2.462 . S
O148 C168 1.252 . S
O149 Eu104 2.373 1_565 S
O149 C160 1.249 . S
O150 Eu115 2.335 . S
O150 C160 1.264 1_455 S
O151 Eu104 2.432 . S
O151 C168 1.268 . S
O152 Eu104 2.291 1_455 S
O152 C167 1.255 . S
O153 Eu115 2.372 . S
O153 C167 1.257 1_565 S
O154 Eu115 2.462 . S
O154 C179 1.252 . S
O155 Eu115 2.373 1_545 S
O155 C171 1.249 . S
O156 Eu104 2.335 1_455 S
O156 C171 1.264 . S
O157 Eu115 2.432 . S
O157 C179 1.268 . S
O158 Eu115 2.291 1_645 S
O158 C178 1.255 . S
O159 Eu104 2.372 . S
O159 C178 1.257 . S
C160 O149 1.249 . S
C160 O150 1.264 1_655 S
C161 C164 1.382 . S
C161 C166 1.390 . S
C161 C168 1.506 . S
C162 C163 1.398 . S
C162 C166 1.392 . S
C163 C162 1.398 . S
C163 C165 1.372 . S
C163 H180 0.931 . S
C164 C161 1.382 . S
C164 C165 1.390 . S
C164 H181 0.931 . S
C165 C163 1.372 . S
C165 C164 1.390 . S
C165 H182 0.929 . S
C166 C161 1.390 . S
C166 C162 1.392 . S
C166 H183 0.930 1_655 S
C167 O152 1.255 . S
C167 O153 1.257 1_545 S
C168 Eu104 2.787 . S
C168 O148 1.252 . S
C168 O151 1.268 . S
C168 C161 1.506 . S
C169 C136 1.439 . S
C169 H146 0.931 . S
C169 C170 1.374 . S
C170 C141 1.387 . S
C170 H147 0.931 . S
C170 C169 1.374 . S
C171 O155 1.249 . S
C171 O156 1.264 . S
C172 C175 1.382 . S
C172 C176 1.390 1_556 S
C172 C179 1.506 . S
C173 C174 1.398 . S
C173 C176 1.392 . S
C174 C173 1.398 . S
C174 C177 1.372 1_554 S
C174 H184 0.931 . S
C175 C172 1.382 . S
C175 C177 1.390 . S
C175 H185 0.931 . S
C176 C172 1.390 1_554 S
C176 C173 1.392 . S
C176 H186 0.930 . S
C177 C174 1.372 1_556 S
C177 C175 1.390 . S
C177 H187 0.929 . S
C178 O158 1.255 . S
C178 O159 1.257 . S
C179 Eu115 2.787 . S
C179 O154 1.252 . S
C179 O157 1.268 . S
C179 C172 1.506 . S
H180 C163 0.931 . S
H181 C164 0.931 . S
H182 C165 0.929 . S
H183 C166 0.930 1_455 S
H184 C174 0.931 . S
H185 C175 0.931 . S
H186 C176 0.930 . S
H187 C177 0.929 . S
Eu188 N217 2.600 . S
Eu188 N223 2.562 . S
Eu188 O232 2.462 . S
Eu188 O233 2.373 . S
Eu188 O235 2.432 . S
Eu188 O236 2.291 . S
Eu188 O240 2.335 1_545 S
Eu188 O243 2.372 . S
Eu188 C252 2.787 . S
C189 N190 1.365 . S
C189 C192 1.405 . S
C189 C196 1.448 . S
N190 C189 1.365 . S
N190 C193 1.319 . S
N190 Eu199 2.600 . S
C191 C193 1.397 . S
C191 C194 1.367 . S
C191 H211 0.931 . S
C192 C189 1.405 . S
C192 C194 1.403 . S
C192 C198 1.439 . S
C193 N190 1.319 . S
C193 C191 1.397 . S
C193 H204 0.930 . S
C194 C191 1.367 . S
C194 C192 1.403 . S
C194 H215 0.929 . S
C195 C196 1.430 . S
C195 C197 1.387 . S
C195 C201 1.404 . S
C196 C189 1.448 . S
C196 C195 1.430 . S
C196 N200 1.351 . S
C197 C195 1.387 . S
C197 C198 1.374 . S
C197 H212 0.931 . S
C198 C192 1.439 . S
C198 C197 1.374 . S
C198 H213 0.931 . S
Eu199 N190 2.600 . S
Eu199 N200 2.562 . S
Eu199 O234 2.335 1_565 S
Eu199 O237 2.372 . S
Eu199 O238 2.462 . S
Eu199 O239 2.373 . S
Eu199 O241 2.432 . S
Eu199 O242 2.291 1_565 S
Eu199 C263 2.787 . S
N200 C196 1.351 . S
N200 Eu199 2.562 . S
N200 C202 1.325 . S
C201 C195 1.404 . S
C201 C203 1.366 . S
C201 H209 0.930 . S
C202 N200 1.325 . S
C202 C203 1.416 . S
C202 H208 0.929 . S
C203 C201 1.366 . S
C203 C202 1.416 . S
C203 H205 0.930 . S
H204 C193 0.930 . S
H205 C203 0.930 . S
H206 C221 0.930 . S
H207 C228 0.930 . S
H208 C202 0.929 . S
H209 C201 0.930 . S
H210 C224 0.929 . S
H211 C191 0.931 . S
H212 C197 0.931 . S
H213 C198 0.931 . S
H214 C219 0.924 1_554 S
H215 C194 0.929 . S
H216 C227 0.930 . S
N217 Eu188 2.600 . S
N217 C218 1.365 . S
N217 C221 1.319 . S
C218 N217 1.365 . S
C218 C220 1.405 . S
C218 C226 1.448 . S
C219 H214 0.924 1_556 S
C219 C221 1.397 . S
C219 C222 1.367 . S
C220 C218 1.405 . S
C220 C222 1.403 . S
C220 C253 1.439 . S
C221 H206 0.930 . S
C221 N217 1.319 . S
C221 C219 1.397 . S
C222 C219 1.367 . S
C222 C220 1.403 . S
C222 H229 0.929 . S
N223 Eu188 2.562 . S
N223 C224 1.325 . S
N223 C226 1.351 . S
C224 H210 0.929 . S
C224 N223 1.325 . S
C224 C228 1.416 . S
C225 C226 1.430 . S
C225 C227 1.404 . S
C225 C254 1.387 . S
C226 C218 1.448 . S
C226 N223 1.351 . S
C226 C225 1.430 . S
C227 H216 0.930 . S
C227 C225 1.404 . S
C227 C228 1.366 . S
C228 H207 0.930 . S
C228 C224 1.416 . S
C228 C227 1.366 . S
H229 C222 0.929 . S
H230 C253 0.931 . S
H231 C254 0.931 . S
O232 Eu188 2.462 . S
O232 C252 1.252 . S
O233 Eu188 2.373 . S
O233 C244 1.249 . S
O234 Eu199 2.335 1_545 S
O234 C244 1.264 . S
O235 Eu188 2.432 . S
O235 C252 1.268 . S
O236 Eu188 2.291 . S
O236 C251 1.255 . S
O237 Eu199 2.372 . S
O237 C251 1.257 1_565 S
O238 Eu199 2.462 . S
O238 C263 1.252 . S
O239 Eu199 2.373 . S
O239 C255 1.249 . S
O240 Eu188 2.335 1_565 S
O240 C255 1.264 . S
O241 Eu199 2.432 . S
O241 C263 1.268 . S
O242 Eu199 2.291 1_545 S
O242 C262 1.255 . S
O243 Eu188 2.372 . S
O243 C262 1.257 . S
C244 O233 1.249 . S
C244 O234 1.264 . S
C245 C248 1.382 . S
C245 C250 1.390 . S
C245 C252 1.506 1_554 S
C246 C247 1.398 . S
C246 C250 1.392 . S
C247 C246 1.398 . S
C247 C249 1.372 . S
C247 H264 0.931 . S
C248 C245 1.382 . S
C248 C249 1.390 . S
C248 H265 0.931 . S
C249 C247 1.372 . S
C249 C248 1.390 . S
C249 H266 0.929 . S
C250 C245 1.390 . S
C250 C246 1.392 . S
C250 H267 0.930 1_554 S
C251 O236 1.255 . S
C251 O237 1.257 1_545 S
C252 Eu188 2.787 . S
C252 O232 1.252 . S
C252 O235 1.268 . S
C252 C245 1.506 1_556 S
C253 C220 1.439 . S
C253 H230 0.931 . S
C253 C254 1.374 . S
C254 C225 1.387 . S
C254 H231 0.931 . S
C254 C253 1.374 . S
C255 O239 1.249 . S
C255 O240 1.264 . S
C256 C259 1.382 . S
C256 C260 1.390 1_565 S
C256 C263 1.506 . S
C257 C258 1.398 1_545 S
C257 C260 1.392 . S
C258 C257 1.398 1_565 S
C258 C261 1.372 . S
C258 H268 0.931 . S
C259 C256 1.382 . S
C259 C261 1.390 . S
C259 H269 0.931 . S
C260 C256 1.390 1_545 S
C260 C257 1.392 . S
C260 H270 0.930 . S
C261 C258 1.372 . S
C261 C259 1.390 . S
C261 H271 0.929 . S
C262 O242 1.255 . S
C262 O243 1.257 . S
C263 Eu199 2.787 . S
C263 O238 1.252 . S
C263 O241 1.268 . S
C263 C256 1.506 . S
H264 C247 0.931 . S
H265 C248 0.931 . S
H266 C249 0.929 . S
H267 C250 0.930 1_556 S
H268 C258 0.931 . S
H269 C259 0.931 . S
H270 C260 0.930 . S
H271 C261 0.929 . S
Eu272 N301 2.600 . S
Eu272 N307 2.562 . S
Eu272 O316 2.462 . S
Eu272 O317 2.373 . S
Eu272 O319 2.432 . S
Eu272 O320 2.291 . S
Eu272 O324 2.335 . S
Eu272 O327 2.372 . S
Eu272 C336 2.787 . S
C273 N274 1.365 . S
C273 C276 1.405 . S
C273 C280 1.448 1_556 S
N274 C273 1.365 . S
N274 C277 1.319 . S
N274 Eu283 2.600 . S
C275 C277 1.397 . S
C275 C278 1.367 . S
C275 H295 0.931 . S
C276 C273 1.405 . S
C276 C278 1.403 . S
C276 C282 1.439 1_556 S
C277 N274 1.319 . S
C277 C275 1.397 . S
C277 H288 0.930 . S
C278 C275 1.367 . S
C278 C276 1.403 . S
C278 H299 0.929 . S
C279 C280 1.430 . S
C279 C281 1.387 . S
C279 C285 1.404 . S
C280 C273 1.448 1_554 S
C280 C279 1.430 . S
C280 N284 1.351 1_554 S
C281 C279 1.387 . S
C281 C282 1.374 . S
C281 H296 0.931 . S
C282 C276 1.439 1_554 S
C282 C281 1.374 . S
C282 H297 0.931 . S
Eu283 N274 2.600 . S
Eu283 N284 2.562 . S
Eu283 O318 2.335 . S
Eu283 O321 2.372 . S
Eu283 O322 2.462 . S
Eu283 O323 2.373 . S
Eu283 O325 2.432 . S
Eu283 O326 2.291 . S
Eu283 C347 2.787 . S
N284 C280 1.351 1_556 S
N284 Eu283 2.562 . S
N284 C286 1.325 1_556 S
C285 C279 1.404 . S
C285 C287 1.366 . S
C285 H293 0.930 . S
C286 N284 1.325 1_554 S
C286 C287 1.416 . S
C286 H292 0.929 . S
C287 C285 1.366 . S
C287 C286 1.416 . S
C287 H289 0.930 . S
H288 C277 0.930 . S
H289 C287 0.930 . S
H290 C305 0.930 . S
H291 C312 0.930 . S
H292 C286 0.929 . S
H293 C285 0.930 . S
H294 C308 0.929 . S
H295 C275 0.931 . S
H296 C281 0.931 . S
H297 C282 0.931 . S
H298 C303 0.931 . S
H299 C278 0.929 . S
H300 C311 0.930 . S
N301 Eu272 2.600 . S
N301 C302 1.365 . S
N301 C305 1.319 . S
C302 N301 1.365 . S
C302 C304 1.405 . S
C302 C310 1.448 . S
C303 H298 0.931 . S
C303 C305 1.397 . S
C303 C306 1.367 . S
C304 C302 1.405 . S
C304 C306 1.403 . S
C304 C337 1.439 . S
C305 H290 0.930 . S
C305 N301 1.319 . S
C305 C303 1.397 . S
C306 C303 1.367 . S
C306 C304 1.403 . S
C306 H313 0.929 . S
N307 Eu272 2.562 . S
N307 C308 1.325 . S
N307 C310 1.351 . S
C308 H294 0.929 . S
C308 N307 1.325 . S
C308 C312 1.416 . S
C309 C310 1.430 . S
C309 C311 1.404 . S
C309 C338 1.387 . S
C310 C302 1.448 . S
C310 N307 1.351 . S
C310 C309 1.430 . S
C311 H300 0.930 . S
C311 C309 1.404 . S
C311 C312 1.366 . S
C312 H291 0.930 . S
C312 C308 1.416 . S
C312 C311 1.366 . S
H313 C306 0.929 . S
H314 C337 0.931 . S
H315 C338 0.931 . S
O316 Eu272 2.462 . S
O316 C336 1.252 . S
O317 Eu272 2.373 . S
O317 C328 1.249 . S
O318 Eu283 2.335 . S
O318 C328 1.264 . S
O319 Eu272 2.432 . S
O319 C336 1.268 . S
O320 Eu272 2.291 . S
O320 C335 1.255 . S
O321 Eu283 2.372 . S
O321 C335 1.257 . S
O322 Eu283 2.462 . S
O322 C347 1.252 . S
O323 Eu283 2.373 . S
O323 C339 1.249 . S
O324 Eu272 2.335 . S
O324 C339 1.264 . S
O325 Eu283 2.432 . S
O325 C347 1.268 . S
O326 Eu283 2.291 . S
O326 C346 1.255 . S
O327 Eu272 2.372 . S
O327 C346 1.257 . S
C328 O317 1.249 . S
C328 O318 1.264 . S
C329 C332 1.382 . S
C329 C334 1.390 . S
C329 C336 1.506 . S
C330 C331 1.398 . S
C330 C334 1.392 . S
C331 C330 1.398 . S
C331 C333 1.372 . S
C331 H348 0.931 . S
C332 C329 1.382 . S
C332 C333 1.390 . S
C332 H349 0.931 . S
C333 C331 1.372 . S
C333 C332 1.390 . S
C333 H350 0.929 . S
C334 C329 1.390 . S
C334 C330 1.392 . S
C334 H351 0.930 . S
C335 O320 1.255 . S
C335 O321 1.257 . S
C336 Eu272 2.787 . S
C336 O316 1.252 . S
C336 O319 1.268 . S
C336 C329 1.506 . S
C337 C304 1.439 . S
C337 H314 0.931 . S
C337 C338 1.374 . S
C338 C309 1.387 . S
C338 H315 0.931 . S
C338 C337 1.374 . S
C339 O323 1.249 . S
C339 O324 1.264 . S
C340 C343 1.382 . S
C340 C344 1.390 1_556 S
C340 C347 1.506 . S
C341 C342 1.398 . S
C341 C344 1.392 . S
C342 C341 1.398 . S
C342 C345 1.372 1_554 S
C342 H352 0.931 . S
C343 C340 1.382 . S
C343 C345 1.390 . S
C343 H353 0.931 . S
C344 C340 1.390 1_554 S
C344 C341 1.392 . S
C344 H354 0.930 . S
C345 C342 1.372 1_556 S
C345 C343 1.390 . S
C345 H355 0.929 . S
C346 O326 1.255 . S
C346 O327 1.257 . S
C347 Eu283 2.787 . S
C347 O322 1.252 . S
C347 O325 1.268 . S
C347 C340 1.506 . S
H348 C331 0.931 . S
H349 C332 0.931 . S
H350 C333 0.929 . S
H351 C334 0.930 . S
H352 C342 0.931 . S
H353 C343 0.931 . S
H354 C344 0.930 . S
H355 C345 0.929 . S
Eu356 N385 2.600 . S
Eu356 N391 2.562 . S
Eu356 O400 2.462 . S
Eu356 O401 2.373 1_455 S
Eu356 O403 2.432 . S
Eu356 O404 2.291 . S
Eu356 O408 2.335 . S
Eu356 O411 2.372 . S
Eu356 C420 2.787 . S
C357 N358 1.365 . S
C357 C360 1.405 . S
C357 C364 1.448 1_556 S
N358 C357 1.365 . S
N358 C361 1.315 1_455 S
N358 Eu367 2.600 1_455 S
C359 C361 1.385 1_455 S
C359 C362 1.367 . S
C359 H379 0.931 . S
C360 C357 1.405 . S
C360 C362 1.403 . S
C360 C366 1.439 1_556 S
C361 N358 1.315 1_655 S
C361 C359 1.385 1_655 S
C361 H372 0.947 . S
C362 C359 1.367 . S
C362 C360 1.403 . S
C362 H383 0.929 . S
C363 C364 1.430 . S
C363 C365 1.387 . S
C363 C369 1.404 . S
C364 C357 1.448 1_554 S
C364 C363 1.430 . S
C364 N368 1.351 1_554 S
C365 C363 1.387 . S
C365 C366 1.374 . S
C365 H380 0.931 . S
C366 C360 1.439 1_554 S
C366 C365 1.374 . S
C366 H381 0.931 . S
Eu367 N358 2.600 1_655 S
Eu367 N368 2.562 1_655 S
Eu367 O402 2.335 . S
Eu367 O405 2.372 . S
Eu367 O406 2.462 . S
Eu367 O407 2.373 1_655 S
Eu367 O409 2.432 . S
Eu367 O410 2.291 1_655 S
Eu367 C431 2.787 . S
N368 C364 1.351 1_556 S
N368 Eu367 2.562 1_455 S
N368 C370 1.325 1_556 S
C369 C363 1.404 . S
C369 C371 1.366 . S
C369 H377 0.930 . S
C370 N368 1.325 1_554 S
C370 C371 1.416 . S
C370 H376 0.929 . S
C371 C369 1.366 . S
C371 C370 1.416 . S
C371 H373 0.930 . S
H372 C361 0.947 . S
H373 C371 0.930 . S
H374 C389 0.930 . S
H375 C396 0.930 . S
H376 C370 0.929 . S
H377 C369 0.930 . S
H378 C392 0.929 . S
H379 C359 0.931 . S
H380 C365 0.931 . S
H381 C366 0.931 . S
H382 C387 0.931 . S
H383 C362 0.929 . S
H384 C395 0.930 . S
N385 Eu356 2.600 . S
N385 C386 1.371 . S
N385 C389 1.319 . S
C386 N385 1.371 . S
C386 C388 1.401 1_455 S
C386 C394 1.446 1_455 S
C387 H382 0.931 . S
C387 C389 1.397 . S
C387 C390 1.367 1_455 S
C388 C386 1.401 1_655 S
C388 C390 1.403 . S
C388 C421 1.439 . S
C389 H374 0.930 . S
C389 N385 1.319 . S
C389 C387 1.397 . S
C390 C387 1.367 1_655 S
C390 C388 1.403 . S
C390 H397 0.929 . S
N391 Eu356 2.562 . S
N391 C392 1.325 . S
N391 C394 1.351 1_455 S
C392 H378 0.929 . S
C392 N391 1.325 . S
C392 C396 1.416 1_455 S
C393 C394 1.430 . S
C393 C395 1.404 . S
C393 C422 1.387 . S
C394 C386 1.446 1_655 S
C394 N391 1.351 1_655 S
C394 C393 1.430 . S
C395 H384 0.930 . S
C395 C393 1.404 . S
C395 C396 1.366 . S
C396 H375 0.930 . S
C396 C392 1.416 1_655 S
C396 C395 1.366 . S
H397 C390 0.929 . S
H398 C421 0.931 . S
H399 C422 0.931 . S
O400 Eu356 2.462 . S
O400 C420 1.252 . S
O401 Eu356 2.373 1_655 S
O401 C412 1.249 . S
O402 Eu367 2.335 . S
O402 C412 1.264 . S
O403 Eu356 2.432 . S
O403 C420 1.268 . S
O404 Eu356 2.291 . S
O404 C419 1.255 . S
O405 Eu367 2.372 . S
O405 C419 1.257 1_655 S
O406 Eu367 2.462 . S
O406 C431 1.252 . S
O407 Eu367 2.373 1_455 S
O407 C423 1.249 . S
O408 Eu356 2.335 . S
O408 C423 1.264 . S
O409 Eu367 2.432 . S
O409 C431 1.268 . S
O410 Eu367 2.291 1_455 S
O410 C430 1.255 . S
O411 Eu356 2.372 . S
O411 C430 1.257 . S
C412 O401 1.249 . S
C412 O402 1.264 . S
C413 C416 1.382 . S
C413 C418 1.390 . S
C413 C420 1.506 . S
C414 C415 1.398 . S
C414 C418 1.392 . S
C415 C414 1.398 . S
C415 C417 1.372 . S
C415 H432 0.931 . S
C416 C413 1.382 . S
C416 C417 1.390 . S
C416 H433 0.931 . S
C417 C415 1.372 . S
C417 C416 1.390 . S
C417 H434 0.929 . S
C418 C413 1.390 . S
C418 C414 1.392 . S
C418 H435 0.930 . S
C419 O404 1.255 . S
C419 O405 1.257 1_455 S
C420 Eu356 2.787 . S
C420 O400 1.252 . S
C420 O403 1.268 . S
C420 C413 1.506 . S
C421 C388 1.439 . S
C421 H398 0.931 . S
C421 C422 1.374 . S
C422 C393 1.387 . S
C422 H399 0.931 . S
C422 C421 1.374 . S
C423 O407 1.249 . S
C423 O408 1.264 . S
C424 C427 1.382 . S
C424 C428 1.390 1_556 S
C424 C431 1.506 . S
C425 C426 1.398 . S
C425 C428 1.392 . S
C426 C425 1.398 . S
C426 C429 1.372 1_554 S
C426 H436 0.931 . S
C427 C424 1.382 . S
C427 C429 1.390 . S
C427 H437 0.931 . S
C428 C424 1.390 1_554 S
C428 C425 1.392 . S
C428 H438 0.930 . S
C429 C426 1.372 1_556 S
C429 C427 1.390 . S
C429 H439 0.929 . S
C430 O410 1.255 . S
C430 O411 1.257 . S
C431 Eu367 2.787 . S
C431 O406 1.252 . S
C431 O409 1.268 . S
C431 C424 1.506 . S
H432 C415 0.931 . S
H433 C416 0.931 . S
H434 C417 0.929 . S
H435 C418 0.930 . S
H436 C426 0.931 . S
H437 C427 0.931 . S
H438 C428 0.930 . S
H439 C429 0.929 . S
H440 C446 0.930 . S
H441 C449 0.930 1_565 S
H442 C450 0.930 . S
H443 C451 0.930 1_565 S
H444 C454 0.930 . S
H445 C455 0.930 . S
C446 H440 0.930 . S
C446 C447 1.355 . S
C446 C448 1.415 . S
C447 C446 1.355 . S
C447 C449 1.419 . S
C448 C446 1.415 . S
C448 C453 1.425 . S
C448 C455 1.409 . S
C449 H441 0.930 1_545 S
C449 C447 1.419 . S
C449 C450 1.362 1_545 S
C450 H442 0.930 . S
C450 C449 1.362 1_565 S
C450 C453 1.409 1_565 S
C451 H443 0.930 1_545 S
C451 C452 1.355 . S
C451 C453 1.415 . S
C452 C451 1.355 . S
C452 C454 1.419 . S
C453 C448 1.425 . S
C453 C450 1.409 1_545 S
C453 C451 1.415 . S
C454 H444 0.930 . S
C454 C452 1.419 . S
C454 C455 1.362 . S
C455 H445 0.930 . S
C455 C448 1.409 . S
C455 C454 1.362 . S
H456 C462 0.930 . S
H457 C465 0.930 . S
H458 C466 0.930 . S
H459 C467 0.930 . S
H460 C470 0.930 . S
H461 C471 0.930 . S
C462 H456 0.930 . S
C462 C463 1.355 . S
C462 C464 1.415 . S
C463 C462 1.355 . S
C463 C465 1.419 . S
C464 C462 1.415 . S
C464 C469 1.425 . S
C464 C471 1.409 . S
C465 H457 0.930 . S
C465 C463 1.419 . S
C465 C466 1.362 . S
C466 H458 0.930 . S
C466 C465 1.362 . S
C466 C469 1.409 . S
C467 H459 0.930 . S
C467 C468 1.355 . S
C467 C469 1.415 . S
C468 C467 1.355 . S
C468 C470 1.419 . S
C469 C464 1.425 . S
C469 C466 1.409 . S
C469 C467 1.415 . S
C470 H460 0.930 . S
C470 C468 1.419 . S
C470 C471 1.362 . S
C471 H461 0.930 . S
C471 C464 1.409 . S
C471 C470 1.362 . S
H472 C478 0.930 . S
H473 C481 0.930 . S
H474 C482 0.930 . S
H475 C483 0.930 . S
H476 C486 0.930 . S
H477 C487 0.930 . S
C478 H472 0.930 . S
C478 C479 1.355 . S
C478 C480 1.415 . S
C479 C478 1.355 . S
C479 C481 1.419 . S
C480 C478 1.415 . S
C480 C485 1.425 . S
C480 C487 1.409 . S
C481 H473 0.930 . S
C481 C479 1.419 . S
C481 C482 1.362 . S
C482 H474 0.930 . S
C482 C481 1.362 . S
C482 C485 1.409 . S
C483 H475 0.930 . S
C483 C484 1.355 . S
C483 C485 1.415 . S
C484 C483 1.355 . S
C484 C486 1.419 . S
C485 C480 1.425 . S
C485 C482 1.409 . S
C485 C483 1.415 . S
C486 H476 0.930 . S
C486 C484 1.419 . S
C486 C487 1.362 . S
C487 H477 0.930 . S
C487 C480 1.409 . S
C487 C486 1.362 . S
H488 C494 0.930 . S
H489 C497 0.957 . S
H490 C498 0.930 . S
H491 C499 0.930 1_655 S
H492 C502 0.930 . S
H493 C503 0.930 . S
C494 H488 0.930 . S
C494 C495 1.355 . S
C494 C496 1.415 . S
C495 C494 1.355 . S
C495 C497 1.382 1_455 S
C496 C494 1.415 . S
C496 C501 1.425 . S
C496 C503 1.409 . S
C497 H489 0.957 . S
C497 C495 1.382 1_655 S
C497 C498 1.374 . S
C498 H490 0.930 . S
C498 C497 1.374 . S
C498 C501 1.409 1_655 S
C499 H491 0.930 1_455 S
C499 C500 1.355 . S
C499 C501 1.415 . S
C500 C499 1.355 . S
C500 C502 1.419 . S
C501 C496 1.425 . S
C501 C498 1.409 1_455 S
C501 C499 1.415 . S
C502 H492 0.930 . S
C502 C500 1.419 . S
C502 C503 1.362 . S
C503 H493 0.930 . S
C503 C496 1.409 . S
C503 C502 1.362 . S
H504 C510 0.930 . S
H505 C513 0.930 . S
H506 C514 0.930 . S
H507 C515 0.930 . S
H508 C518 0.930 . S
H509 C519 0.930 . S
C510 H504 0.930 . S
C510 C511 1.355 . S
C510 C512 1.415 . S
C511 C510 1.355 . S
C511 C513 1.419 1_565 S
C512 C510 1.415 . S
C512 C517 1.425 1_565 S
C512 C519 1.409 1_554 S
C513 H505 0.930 . S
C513 C511 1.419 1_545 S
C513 C514 1.362 . S
C514 H506 0.930 . S
C514 C513 1.362 . S
C514 C517 1.409 . S
C515 H507 0.930 . S
C515 C516 1.355 1_545 S
C515 C517 1.415 1_556 S
C516 C515 1.355 1_565 S
C516 C518 1.419 . S
C517 C512 1.425 1_545 S
C517 C514 1.409 . S
C517 C515 1.415 1_554 S
C518 H508 0.930 . S
C518 C516 1.419 . S
C518 C519 1.362 . S
C519 H509 0.930 . S
C519 C512 1.409 1_556 S
C519 C518 1.362 . S
H520 C526 0.930 . S
H521 C529 0.930 . S
H522 C530 0.930 . S
H523 C531 0.930 . S
H524 C534 0.930 . S
H525 C535 0.930 . S
C526 H520 0.930 . S
C526 C527 1.355 . S
C526 C528 1.415 . S
C527 C526 1.355 . S
C527 C529 1.419 . S
C528 C526 1.415 . S
C528 C533 1.425 . S
C528 C535 1.409 . S
C529 H521 0.930 . S
C529 C527 1.419 . S
C529 C530 1.362 . S
C530 H522 0.930 . S
C530 C529 1.362 . S
C530 C533 1.409 . S
C531 H523 0.930 . S
C531 C532 1.355 . S
C531 C533 1.415 1_556 S
C532 C531 1.355 . S
C532 C534 1.419 . S
C533 C528 1.425 . S
C533 C530 1.409 . S
C533 C531 1.415 1_554 S
C534 H524 0.930 . S
C534 C532 1.419 . S
C534 C535 1.362 1_556 S
C535 H525 0.930 . S
C535 C528 1.409 . S
C535 C534 1.362 1_554 S
H536 C542 0.930 . S
H537 C545 0.930 . S
H538 C546 0.930 . S
H539 C547 0.930 . S
H540 C550 0.930 . S
H541 C551 0.930 . S
C542 H536 0.930 . S
C542 C543 1.355 . S
C542 C544 1.415 . S
C543 C542 1.355 . S
C543 C545 1.419 . S
C544 C542 1.415 . S
C544 C549 1.425 . S
C544 C551 1.409 . S
C545 H537 0.930 . S
C545 C543 1.419 . S
C545 C546 1.362 . S
C546 H538 0.930 . S
C546 C545 1.362 . S
C546 C549 1.409 . S
C547 H539 0.930 . S
C547 C548 1.355 . S
C547 C549 1.415 1_556 S
C548 C547 1.355 . S
C548 C550 1.419 . S
C549 C544 1.425 . S
C549 C546 1.409 . S
C549 C547 1.415 1_554 S
C550 H540 0.930 . S
C550 C548 1.419 . S
C550 C551 1.362 1_556 S
C551 H541 0.930 . S
C551 C544 1.409 . S
C551 C550 1.362 1_554 S
H552 C558 0.930 . S
H553 C561 0.930 . S
H554 C562 0.930 . S
H555 C563 0.930 . S
H556 C566 0.930 . S
H557 C567 0.930 . S
C558 H552 0.930 . S
C558 C559 1.355 . S
C558 C560 1.415 . S
C559 C558 1.355 . S
C559 C561 1.419 1_655 S
C560 C558 1.415 . S
C560 C565 1.425 1_655 S
C560 C567 1.409 1_554 S
C561 H553 0.930 . S
C561 C559 1.419 1_455 S
C561 C562 1.362 . S
C562 H554 0.930 . S
C562 C561 1.362 . S
C562 C565 1.409 . S
C563 H555 0.930 . S
C563 C564 1.355 1_455 S
C563 C565 1.415 1_556 S
C564 C563 1.355 1_655 S
C564 C566 1.419 . S
C565 C560 1.425 1_455 S
C565 C562 1.409 . S
C565 C563 1.415 1_554 S
C566 H556 0.930 . S
C566 C564 1.419 . S
C566 C567 1.362 . S
C567 H557 0.930 . S
C567 C560 1.409 1_556 S
C567 C566 1.362 . S
H568 C574 0.930 1_655 S
H569 C577 0.930 . S
H570 C578 0.930 . S
H571 C579 0.930 . S
H572 C582 0.930 . S
H573 C583 0.930 . S
C574 H568 0.930 1_455 S
C574 C575 1.355 . S
C574 C576 1.415 . S
C575 C574 1.355 . S
C575 C577 1.419 . S
C576 C574 1.415 . S
C576 C581 1.425 . S
C576 C583 1.409 1_455 S
C577 H569 0.930 . S
C577 C575 1.419 . S
C577 C578 1.362 . S
C578 H570 0.930 . S
C578 C577 1.362 . S
C578 C581 1.409 . S
C579 H571 0.930 . S
C579 C580 1.335 1_455 S
C579 C581 1.415 . S
C580 C579 1.335 1_655 S
C580 C582 1.436 . S
C581 C576 1.425 . S
C581 C578 1.409 . S
C581 C579 1.415 . S
C582 H572 0.930 . S
C582 C580 1.436 . S
C582 C583 1.362 . S
C583 H573 0.930 . S
C583 C576 1.409 1_655 S
C583 C582 1.362 . S
H584 C590 0.930 . S
H585 C593 0.930 1_565 S
H586 C594 0.930 . S
H587 C595 0.930 . S
H588 C598 0.930 . S
H589 C599 0.930 . S
C590 H584 0.930 . S
C590 C591 1.355 . S
C590 C592 1.415 . S
C591 C590 1.355 . S
C591 C593 1.419 . S
C592 C590 1.415 . S
C592 C597 1.425 . S
C592 C599 1.409 . S
C593 H585 0.930 1_545 S
C593 C591 1.419 . S
C593 C594 1.362 1_545 S
C594 H586 0.930 . S
C594 C593 1.362 1_565 S
C594 C597 1.409 1_565 S
C595 H587 0.930 . S
C595 C596 1.355 1_565 S
C595 C597 1.415 1_565 S
C596 C595 1.355 1_545 S
C596 C598 1.419 . S
C597 C592 1.425 . S
C597 C594 1.409 1_545 S
C597 C595 1.415 1_545 S
C598 H588 0.930 . S
C598 C596 1.419 . S
C598 C599 1.362 . S
C599 H589 0.930 . S
C599 C592 1.409 . S
C599 C598 1.362 . S
H600 C606 0.930 . S
H601 C609 0.930 . S
H602 C610 0.930 . S
H603 C611 0.930 . S
H604 C614 0.930 . S
H605 C615 0.930 . S
C606 H600 0.930 . S
C606 C607 1.355 . S
C606 C608 1.415 . S
C607 C606 1.355 . S
C607 C609 1.419 . S
C608 C606 1.415 . S
C608 C613 1.425 . S
C608 C615 1.409 . S
C609 H601 0.930 . S
C609 C607 1.419 . S
C609 C610 1.362 . S
C610 H602 0.930 . S
C610 C609 1.362 . S
C610 C613 1.409 . S
C611 H603 0.930 . S
C611 C612 1.355 . S
C611 C613 1.415 . S
C612 C611 1.355 . S
C612 C614 1.419 . S
C613 C608 1.425 . S
C613 C610 1.409 . S
C613 C611 1.415 . S
C614 H604 0.930 . S
C614 C612 1.419 . S
C614 C615 1.362 . S
C615 H605 0.930 . S
C615 C608 1.409 . S
C615 C614 1.362 . S
H616 C622 0.930 . S
H617 C625 0.930 . S
H618 C626 0.930 . S
H619 C627 0.930 . S
H620 C630 0.930 . S
H621 C631 0.930 . S
C622 H616 0.930 . S
C622 C623 1.355 . S
C622 C624 1.415 . S
C623 C622 1.355 . S
C623 C625 1.419 . S
C624 C622 1.415 . S
C624 C629 1.425 . S
C624 C631 1.409 . S
C625 H617 0.930 . S
C625 C623 1.419 . S
C625 C626 1.362 . S
C626 H618 0.930 . S
C626 C625 1.362 . S
C626 C629 1.409 . S
C627 H619 0.930 . S
C627 C628 1.355 . S
C627 C629 1.415 . S
C628 C627 1.355 . S
C628 C630 1.419 . S
C629 C624 1.425 . S
C629 C626 1.409 . S
C629 C627 1.415 . S
C630 H620 0.930 . S
C630 C628 1.419 . S
C630 C631 1.362 . S
C631 H621 0.930 . S
C631 C624 1.409 . S
C631 C630 1.362 . S
H632 C638 0.930 . S
H633 C641 0.930 . S
H634 C642 0.930 . S
H635 C643 0.930 . S
H636 C646 0.930 1_556 S
H637 C647 0.930 . S
C638 H632 0.930 . S
C638 C639 1.355 . S
C638 C640 1.415 . S
C639 C638 1.355 . S
C639 C641 1.419 1_655 S
C640 C638 1.415 . S
C640 C645 1.425 1_655 S
C640 C647 1.409 . S
C641 H633 0.930 . S
C641 C639 1.419 1_455 S
C641 C642 1.362 . S
C642 H634 0.930 . S
C642 C641 1.362 . S
C642 C645 1.409 . S
C643 H635 0.930 . S
C643 C644 1.355 . S
C643 C645 1.415 . S
C644 C643 1.355 . S
C644 C646 1.419 1_455 S
C645 C640 1.425 1_455 S
C645 C642 1.409 . S
C645 C643 1.415 . S
C646 H636 0.930 1_554 S
C646 C644 1.419 1_655 S
C646 C647 1.362 . S
C647 H637 0.930 . S
C647 C640 1.409 . S
C647 C646 1.362 . S
H648 C654 0.930 1_545 S
H649 C657 0.930 . S
H650 C658 0.930 . S
H651 C659 0.930 1_565 S
H652 C662 0.930 . S
H653 C663 0.930 . S
C654 H648 0.930 1_565 S
C654 C655 1.355 . S
C654 C656 1.415 1_565 S
C655 C654 1.355 . S
C655 C657 1.419 . S
C656 C654 1.415 1_545 S
C656 C661 1.425 1_545 S
C656 C663 1.409 . S
C657 H649 0.930 . S
C657 C655 1.419 . S
C657 C658 1.362 . S
C658 H650 0.930 . S
C658 C657 1.362 . S
C658 C661 1.409 . S
C659 H651 0.930 1_545 S
C659 C660 1.355 . S
C659 C661 1.415 1_545 S
C660 C659 1.355 . S
C660 C662 1.419 . S
C661 C656 1.425 1_565 S
C661 C658 1.409 . S
C661 C659 1.415 1_565 S
C662 H652 0.930 . S
C662 C660 1.419 . S
C662 C663 1.362 . S
C663 H653 0.930 . S
C663 C656 1.409 . S
C663 C662 1.362 . S
H664 C670 0.930 . S
H665 C673 0.930 . S
H666 C674 0.930 . S
H667 C675 0.930 . S
H668 C678 0.930 . S
H669 C679 0.930 . S
C670 H664 0.930 . S
C670 C671 1.355 . S
C670 C672 1.415 . S
C671 C670 1.355 . S
C671 C673 1.419 . S
C672 C670 1.415 . S
C672 C677 1.425 . S
C672 C679 1.409 . S
C673 H665 0.930 . S
C673 C671 1.419 . S
C673 C674 1.362 . S
C674 H666 0.930 . S
C674 C673 1.362 . S
C674 C677 1.409 . S
C675 H667 0.930 . S
C675 C676 1.355 . S
C675 C677 1.415 . S
C676 C675 1.355 . S
C676 C678 1.419 . S
C677 C672 1.425 . S
C677 C674 1.409 . S
C677 C675 1.415 . S
C678 H668 0.930 . S
C678 C676 1.419 . S
C678 C679 1.362 . S
C679 H669 0.930 . S
C679 C672 1.409 . S
C679 C678 1.362 . S
H680 C686 0.930 . S
H681 C689 0.930 . S
H682 C690 0.930 . S
H683 C691 0.930 . S
H684 C694 0.930 . S
H685 C695 0.930 . S
C686 H680 0.930 . S
C686 C687 1.355 . S
C686 C688 1.415 . S
C687 C686 1.355 . S
C687 C689 1.419 . S
C688 C686 1.415 . S
C688 C693 1.425 . S
C688 C695 1.409 . S
C689 H681 0.930 . S
C689 C687 1.419 . S
C689 C690 1.362 . S
C690 H682 0.930 . S
C690 C689 1.362 . S
C690 C693 1.409 . S
C691 H683 0.930 . S
C691 C692 1.355 . S
C691 C693 1.415 . S
C692 C691 1.355 . S
C692 C694 1.419 . S
C693 C688 1.425 . S
C693 C690 1.409 . S
C693 C691 1.415 . S
C694 H684 0.930 . S
C694 C692 1.419 . S
C694 C695 1.362 . S
C695 H685 0.930 . S
C695 C688 1.409 . S
C695 C694 1.362 . S
H696 C702 0.930 1_655 S
H697 C705 0.930 . S
H698 C706 0.930 . S
H699 C707 0.930 . S
H700 C710 0.930 . S
H701 C711 0.930 . S
C702 H696 0.930 1_455 S
C702 C703 1.355 . S
C702 C704 1.415 . S
C703 C702 1.355 . S
C703 C705 1.419 . S
C704 C702 1.415 . S
C704 C709 1.425 . S
C704 C711 1.409 1_455 S
C705 H697 0.930 . S
C705 C703 1.419 . S
C705 C706 1.362 . S
C706 H698 0.930 . S
C706 C705 1.362 . S
C706 C709 1.409 . S
C707 H699 0.930 . S
C707 C708 1.355 . S
C707 C709 1.415 . S
C708 C707 1.355 . S
C708 C710 1.419 1_455 S
C709 C704 1.425 . S
C709 C706 1.409 . S
C709 C707 1.415 . S
C710 H700 0.930 . S
C710 C708 1.419 1_655 S
C710 C711 1.362 . S
C711 H701 0.930 . S
C711 C704 1.409 1_655 S
C711 C710 1.362 . S
H712 C718 0.930 . S
H713 C721 0.930 . S
H714 C722 0.930 . S
H715 C723 0.930 . S
H716 C726 0.930 . S
H717 C727 0.930 1_554 S
C718 H712 0.930 . S
C718 C719 1.355 . S
C718 C720 1.415 . S
C719 C718 1.355 . S
C719 C721 1.419 . S
C720 C718 1.415 . S
C720 C725 1.425 . S
C720 C727 1.409 . S
C721 H713 0.930 . S
C721 C719 1.419 . S
C721 C722 1.362 . S
C722 H714 0.930 . S
C722 C721 1.362 . S
C722 C725 1.409 . S
C723 H715 0.930 . S
C723 C724 1.355 . S
C723 C725 1.415 . S
C724 C723 1.355 . S
C724 C726 1.419 . S
C725 C720 1.425 . S
C725 C722 1.409 . S
C725 C723 1.415 . S
C726 H716 0.930 . S
C726 C724 1.419 . S
C726 C727 1.362 . S
C727 H717 0.930 1_556 S
C727 C720 1.409 . S
C727 C726 1.362 . S
H728 C734 0.930 . S
H729 C737 0.930 . S
H730 C738 0.930 . S
H731 C739 0.930 . S
H732 C742 0.930 . S
H733 C743 0.930 1_554 S
C734 H728 0.930 . S
C734 C735 1.355 . S
C734 C736 1.415 . S
C735 C734 1.355 . S
C735 C737 1.419 . S
C736 C734 1.415 . S
C736 C741 1.425 . S
C736 C743 1.409 . S
C737 H729 0.930 . S
C737 C735 1.419 . S
C737 C738 1.362 . S
C738 H730 0.930 . S
C738 C737 1.362 . S
C738 C741 1.409 . S
C739 H731 0.930 . S
C739 C740 1.355 . S
C739 C741 1.415 . S
C740 C739 1.355 . S
C740 C742 1.419 . S
C741 C736 1.425 . S
C741 C738 1.409 . S
C741 C739 1.415 . S
C742 H732 0.930 . S
C742 C740 1.419 . S
C742 C743 1.362 . S
C743 H733 0.930 1_556 S
C743 C736 1.409 . S
C743 C742 1.362 . S
H744 C750 0.930 . S
H745 C753 0.930 . S
H746 C754 0.930 . S
H747 C755 0.930 . S
H748 C758 0.930 . S
H749 C759 0.930 1_554 S
C750 H744 0.930 . S
C750 C751 1.355 . S
C750 C752 1.415 . S
C751 C750 1.355 . S
C751 C753 1.419 . S
C752 C750 1.415 . S
C752 C757 1.425 . S
C752 C759 1.409 . S
C753 H745 0.930 . S
C753 C751 1.419 . S
C753 C754 1.362 . S
C754 H746 0.930 . S
C754 C753 1.362 . S
C754 C757 1.409 . S
C755 H747 0.930 . S
C755 C756 1.355 . S
C755 C757 1.415 . S
C756 C755 1.355 . S
C756 C758 1.419 . S
C757 C752 1.425 . S
C757 C754 1.409 . S
C757 C755 1.415 . S
C758 H748 0.930 . S
C758 C756 1.419 . S
C758 C759 1.362 . S
C759 H749 0.930 1_556 S
C759 C752 1.409 . S
C759 C758 1.362 . S
H760 C766 0.930 . S
H761 C769 0.930 . S
H762 C770 0.930 . S
H763 C771 0.930 . S
H764 C774 0.930 . S
H765 C775 0.930 . S
C766 H760 0.930 . S
C766 C767 1.355 1_455 S
C766 C768 1.415 . S
C767 C766 1.355 1_655 S
C767 C769 1.419 . S
C768 C766 1.415 . S
C768 C773 1.425 1_455 S
C768 C775 1.409 . S
C769 H761 0.930 . S
C769 C767 1.419 . S
C769 C770 1.362 . S
C770 H762 0.930 . S
C770 C769 1.362 . S
C770 C773 1.409 . S
C771 H763 0.930 . S
C771 C772 1.355 . S
C771 C773 1.415 . S
C772 C771 1.355 . S
C772 C774 1.419 1_655 S
C773 C768 1.425 1_655 S
C773 C770 1.409 . S
C773 C771 1.415 . S
C774 H764 0.930 . S
C774 C772 1.419 1_455 S
C774 C775 1.362 . S
C775 H765 0.930 . S
C775 C768 1.409 . S
C775 C774 1.362 . S
H776 C782 0.930 . S
H777 C785 0.930 . S
H778 C786 0.930 . S
H779 C787 0.930 . S
H780 C790 0.930 . S
H781 C791 0.930 . S
C782 H776 0.930 . S
C782 C783 1.355 . S
C782 C784 1.415 . S
C783 C782 1.355 . S
C783 C785 1.419 1_565 S
C784 C782 1.415 . S
C784 C789 1.425 1_565 S
C784 C791 1.409 . S
C785 H777 0.930 . S
C785 C783 1.419 1_545 S
C785 C786 1.362 . S
C786 H778 0.930 . S
C786 C785 1.362 . S
C786 C789 1.409 . S
C787 H779 0.930 . S
C787 C788 1.355 1_545 S
C787 C789 1.415 . S
C788 C787 1.355 1_565 S
C788 C790 1.419 . S
C789 C784 1.425 1_545 S
C789 C786 1.409 . S
C789 C787 1.415 . S
C790 H780 0.930 . S
C790 C788 1.419 . S
C790 C791 1.362 . S
C791 H781 0.930 . S
C791 C784 1.409 . S
C791 C790 1.362 . S
H792 C798 0.930 . S
H793 C801 0.930 . S
H794 C802 0.930 . S
H795 C803 0.930 . S
H796 C806 0.930 . S
H797 C807 0.930 . S
C798 H792 0.930 . S
C798 C799 1.355 . S
C798 C800 1.415 . S
C799 C798 1.355 . S
C799 C801 1.419 . S
C800 C798 1.415 . S
C800 C805 1.425 . S
C800 C807 1.409 . S
C801 H793 0.930 . S
C801 C799 1.419 . S
C801 C802 1.362 . S
C802 H794 0.930 . S
C802 C801 1.362 . S
C802 C805 1.409 . S
C803 H795 0.930 . S
C803 C804 1.355 . S
C803 C805 1.415 . S
C804 C803 1.355 . S
C804 C806 1.419 . S
C805 C800 1.425 . S
C805 C802 1.409 . S
C805 C803 1.415 . S
C806 H796 0.930 . S
C806 C804 1.419 . S
C806 C807 1.362 . S
C807 H797 0.930 . S
C807 C800 1.409 . S
C807 C806 1.362 . S
H808 C814 0.930 . S
H809 C817 0.930 . S
H810 C818 0.930 . S
H811 C819 0.930 . S
H812 C822 0.930 . S
H813 C823 0.930 . S
C814 H808 0.930 . S
C814 C815 1.355 . S
C814 C816 1.415 . S
C815 C814 1.355 . S
C815 C817 1.419 . S
C816 C814 1.415 . S
C816 C821 1.425 . S
C816 C823 1.409 . S
C817 H809 0.930 . S
C817 C815 1.419 . S
C817 C818 1.362 . S
C818 H810 0.930 . S
C818 C817 1.362 . S
C818 C821 1.409 . S
C819 H811 0.930 . S
C819 C820 1.355 . S
C819 C821 1.415 . S
C820 C819 1.355 . S
C820 C822 1.419 . S
C821 C816 1.425 . S
C821 C818 1.409 . S
C821 C819 1.415 . S
C822 H812 0.930 . S
C822 C820 1.419 . S
C822 C823 1.362 . S
C823 H813 0.930 . S
C823 C816 1.409 . S
C823 C822 1.362 . S
C447 C82 1.785 . S
C452 C167 2.076 . S
C468 C244 2.068 . S
C463 C95 1.728 . S
C484 C335 2.060 . S
C479 C56 1.799 . S
C500 C419 2.061 . S
C495 C69 1.764 . S
C516 C178 2.080 1_565 S
C511 C30 1.759 . S
C527 C43 1.718 . S
C532 C255 2.069 . S
C543 C4 1.700 . S
C548 C346 2.070 . S
C559 C17 1.748 . S
C564 C430 2.068 1_655 S
C580 C162 0.635 . S
C575 C74 0.723 . S
C596 C257 0.691 . S
C591 C87 0.588 . S
C612 C330 0.737 . S
C607 C100 0.614 . S
C623 C61 0.639 . S
C628 C414 0.741 . S
C639 C22 0.598 . S
C644 C173 0.722 . S
C660 C246 0.597 . S
C655 C35 0.719 . S
C676 C341 0.749 . S
C671 C48 0.671 . S
C687 C9 0.645 . S
C692 C425 0.572 . S
C703 C73 1.928 . S
C708 C171 2.158 . S
C719 C86 2.010 . S
C724 C262 2.192 . S
C740 C339 2.198 . S
C735 C99 2.014 . S
C756 C423 2.203 . S
C751 C60 2.018 . S
C767 C21 1.988 . S
C772 C160 2.179 . S
C788 C251 2.204 1_565 S
C783 C34 1.926 . S
C804 C328 2.197 . S
C799 C47 2.008 . S
C815 C8 2.017 . S
C820 C412 2.202 . S
