# Generated by pormake.
# Topology pyr, (3,6)-cn, num edge types: 1
# Building blocks:
#     Node 0, Type 0, BuildingBlock: ESEHIV_clean_linker_0, # of connection points: 3
#     Node 1, Type 0, BuildingBlock: ESEHIV_clean_linker_0, # of connection points: 3
#     Node 2, Type 0, BuildingBlock: ESEHIV_clean_linker_0, # of connection points: 3
#     Node 3, Type 0, BuildingBlock: ESEHIV_clean_linker_0, # of connection points: 3
#     Node 4, Type 0, BuildingBlock: ESEHIV_clean_linker_0, # of connection points: 3
#     Node 5, Type 0, BuildingBlock: ESEHIV_clean_linker_0, # of connection points: 3
#     Node 6, Type 0, BuildingBlock: ESEHIV_clean_linker_0, # of connection points: 3
#     Node 7, Type 0, BuildingBlock: ESEHIV_clean_linker_0, # of connection points: 3
#     Node 8, Type 1, BuildingBlock: PAMTOO_clean_sbu_0, # of connection points: 6
#     Node 9, Type 1, BuildingBlock: PAMTOO_clean_sbu_0, # of connection points: 6
#     Node 10, Type 1, BuildingBlock: PAMTOO_clean_sbu_0, # of connection points: 6
#     Node 11, Type 1, BuildingBlock: PAMTOO_clean_sbu_0, # of connection points: 6
#     Edge 12, Type (0, 1), BuildingBlock: UVAHIK_clean_linker_0, # of connection points: 2
#     Edge 13, Type (0, 1), BuildingBlock: UVAHIK_clean_linker_0, # of connection points: 2
#     Edge 14, Type (0, 1), BuildingBlock: UVAHIK_clean_linker_0, # of connection points: 2
#     Edge 15, Type (0, 1), BuildingBlock: UVAHIK_clean_linker_0, # of connection points: 2
#     Edge 16, Type (0, 1), BuildingBlock: UVAHIK_clean_linker_0, # of connection points: 2
#     Edge 17, Type (0, 1), BuildingBlock: UVAHIK_clean_linker_0, # of connection points: 2
#     Edge 18, Type (0, 1), BuildingBlock: UVAHIK_clean_linker_0, # of connection points: 2
#     Edge 19, Type (0, 1), BuildingBlock: UVAHIK_clean_linker_0, # of connection points: 2
#     Edge 20, Type (0, 1), BuildingBlock: UVAHIK_clean_linker_0, # of connection points: 2
#     Edge 21, Type (0, 1), BuildingBlock: UVAHIK_clean_linker_0, # of connection points: 2
#     Edge 22, Type (0, 1), BuildingBlock: UVAHIK_clean_linker_0, # of connection points: 2
#     Edge 23, Type (0, 1), BuildingBlock: UVAHIK_clean_linker_0, # of connection points: 2
#     Edge 24, Type (0, 1), BuildingBlock: UVAHIK_clean_linker_0, # of connection points: 2
#     Edge 25, Type (0, 1), BuildingBlock: UVAHIK_clean_linker_0, # of connection points: 2
#     Edge 26, Type (0, 1), BuildingBlock: UVAHIK_clean_linker_0, # of connection points: 2
#     Edge 27, Type (0, 1), BuildingBlock: UVAHIK_clean_linker_0, # of connection points: 2
#     Edge 28, Type (0, 1), BuildingBlock: UVAHIK_clean_linker_0, # of connection points: 2
#     Edge 29, Type (0, 1), BuildingBlock: UVAHIK_clean_linker_0, # of connection points: 2
#     Edge 30, Type (0, 1), BuildingBlock: UVAHIK_clean_linker_0, # of connection points: 2
#     Edge 31, Type (0, 1), BuildingBlock: UVAHIK_clean_linker_0, # of connection points: 2
#     Edge 32, Type (0, 1), BuildingBlock: UVAHIK_clean_linker_0, # of connection points: 2
#     Edge 33, Type (0, 1), BuildingBlock: UVAHIK_clean_linker_0, # of connection points: 2
#     Edge 34, Type (0, 1), BuildingBlock: UVAHIK_clean_linker_0, # of connection points: 2
#     Edge 35, Type (0, 1), BuildingBlock: UVAHIK_clean_linker_0, # of connection points: 2
# Relax obj value: 0.089
# Max RMSD: 0.158
# Mean RMSD: 0.066
data_MOF--net-pyr--node1-PAMTOO_clean_sbu_0--node2-ESEHIV_clean_linker_0--edge1-UVAHIK_clean_linker_0
_symmetry_space_group_name_H-M    P1
_symmetry_Int_Tables_number       1
_symmetry_cell_setting            triclinic
loop_
_symmetry_equiv_pos_as_xyz
'x, y, z'
_cell_length_a     46.267677
_cell_length_b     48.038628
_cell_length_c     47.203092
_cell_angle_alpha  90.065347
_cell_angle_beta   90.02078
_cell_angle_gamma 102.77079
loop_
_atom_site_label
_atom_site_type_symbol
_atom_site_fract_x
_atom_site_fract_y
_atom_site_fract_z
_atom_type_partial_charge
H0 H 0.28545 0.2892 0.25331 0.0
H1 H 0.35317 0.24101 0.25825 0.0
H2 H 0.33622 0.27888 0.1793 0.0
C3 C 0.30367 0.28184 0.24369 0.0
C4 C 0.31019 0.28759 0.21489 0.0
C5 C 0.3187 0.2647 0.25947 0.0
C6 C 0.34105 0.25389 0.2462 0.0
C7 C 0.34697 0.25819 0.21718 0.0
C8 C 0.33191 0.27561 0.20175 0.0
H9 H 0.14747 0.79793 0.75824 0.0
H10 H 0.21249 0.74683 0.75291 0.0
H11 H 0.1625 0.75933 0.67894 0.0
C12 C 0.15878 0.78445 0.74603 0.0
C13 C 0.15248 0.78019 0.71705 0.0
C14 C 0.18042 0.77255 0.75915 0.0
C15 C 0.19473 0.75492 0.74325 0.0
C16 C 0.18825 0.74971 0.71435 0.0
C17 C 0.16694 0.76238 0.7014 0.0
H18 H 0.671 0.34234 0.89164 0.0
H19 H 0.67957 0.40958 0.8303 0.0
H20 H 0.60325 0.33931 0.82862 0.0
C21 C 0.66232 0.35168 0.87353 0.0
C22 C 0.63504 0.33775 0.86173 0.0
C23 C 0.67859 0.37751 0.86238 0.0
C24 C 0.66721 0.38956 0.83889 0.0
C25 C 0.64006 0.37595 0.82637 0.0
C26 C 0.62414 0.34998 0.838 0.0
H27 H 0.828 0.69469 0.39277 0.0
H28 H 0.89714 0.69766 0.33133 0.0
H29 H 0.82042 0.62774 0.33113 0.0
C30 C 0.83704 0.68537 0.37485 0.0
C31 C 0.82111 0.65945 0.36354 0.0
C32 C 0.86441 0.69943 0.36343 0.0
C33 C 0.87581 0.68722 0.33995 0.0
C34 C 0.8603 0.66109 0.32823 0.0
C35 C 0.83296 0.64741 0.34031 0.0
H36 H 0.63771 0.78918 0.83222 0.0
H37 H 0.70849 0.74496 0.82387 0.0
H38 H 0.66935 0.75144 0.90532 0.0
C39 C 0.65173 0.77622 0.84136 0.0
C40 C 0.65049 0.77086 0.87066 0.0
C41 C 0.67271 0.76713 0.82423 0.0
C42 C 0.69154 0.75131 0.83659 0.0
C43 C 0.69036 0.74544 0.86573 0.0
C44 C 0.66954 0.75495 0.88263 0.0
H45 H 0.78745 0.2922 0.3322 0.0
H46 H 0.86165 0.2523 0.3389 0.0
H47 H 0.82954 0.28867 0.41264 0.0
C48 C 0.80544 0.28713 0.34442 0.0
C49 C 0.80712 0.29334 0.3735 0.0
C50 C 0.82488 0.27219 0.33166 0.0
C51 C 0.84714 0.26463 0.3483 0.0
C52 C 0.84879 0.27016 0.37758 0.0
C53 C 0.82909 0.28514 0.38994 0.0
H54 H 0.33361 0.70138 0.182 0.0
H55 H 0.32412 0.63679 0.24613 0.0
H56 H 0.39572 0.71139 0.2512 0.0
C57 C 0.34158 0.69334 0.20127 0.0
C58 C 0.36658 0.70961 0.21513 0.0
C59 C 0.32612 0.66722 0.21233 0.0
C60 C 0.33598 0.65706 0.23764 0.0
C61 C 0.3612 0.67274 0.25185 0.0
C62 C 0.37611 0.69929 0.24065 0.0
H63 H 0.10476 0.32672 0.75118 0.0
H64 H 0.1674 0.33617 0.6829 0.0
H65 H 0.17368 0.40326 0.74435 0.0
C66 C 0.12384 0.33933 0.74033 0.0
C67 C 0.13826 0.36618 0.75132 0.0
C68 C 0.13385 0.32871 0.71522 0.0
C69 C 0.1589 0.3449 0.70151 0.0
C70 C 0.17358 0.37174 0.71181 0.0
C71 C 0.16303 0.38222 0.73672 0.0
Dy72 Dy 0.02509 0.02161 0.51966 0.0
Dy73 Dy 0.9629 1.00951 0.55632 0.0
C74 C 0.01662 0.06151 0.57221 0.0
O75 O 0.02437 0.98185 0.54399 0.0
O76 O 0.99321 0.98761 0.58029 0.0
O77 O 0.07244 0.02506 0.51799 0.0
O78 O 0.04788 0.02975 0.47972 0.0
O79 O 0.96127 0.96977 0.53129 0.0
O80 O 0.99179 0.98955 0.49495 0.0
O81 O 0.95626 0.03412 0.51768 0.0
O82 O 0.00404 0.05782 0.50948 0.0
O83 O 0.91523 1.00008 0.55614 0.0
O84 O 0.93913 1.00815 0.59597 0.0
C85 C 0.01339 0.97534 0.56936 0.0
O86 O 0.03491 0.04868 0.55874 0.0
O87 O 0.98777 0.05275 0.56977 0.0
C88 C 0.09733 0.05656 0.4831 0.0
C89 C 0.14291 0.10203 0.46462 0.0
C90 C 0.11315 0.10442 0.4639 0.0
C91 C 0.09054 0.08192 0.47315 0.0
C92 C 0.12699 0.05447 0.48474 0.0
C93 C 0.14959 0.07701 0.47571 0.0
C94 C 0.07395 0.03179 0.49119 0.0
C95 C 0.97167 0.96842 0.50557 0.0
C96 C 0.97546 0.0557 0.5068 0.0
C97 C 0.89178 0.9768 0.59699 0.0
C98 C 0.8472 0.93434 0.62199 0.0
C99 C 0.8584 0.93 0.59502 0.0
C100 C 0.88055 0.95103 0.58264 0.0
C101 C 0.88115 0.98089 0.62411 0.0
C102 C 0.8592 0.95986 0.63655 0.0
C103 C 0.91333 1.0003 0.58371 0.0
H104 H 0.10718 0.12326 0.45525 0.0
H105 H 0.06777 0.08413 0.47193 0.0
H106 H 0.13267 0.03518 0.49262 0.0
H107 H 0.1723 0.07466 0.47707 0.0
H108 H 0.84955 0.91068 0.58317 0.0
H109 H 0.88846 0.94731 0.56168 0.0
H110 H 0.8896 1.00058 0.63555 0.0
H111 H 0.85159 0.96364 0.6576 0.0
Dy112 Dy 0.47197 0.01542 1.0177 0.0
Dy113 Dy 0.53417 0.02883 0.05421 0.0
C114 C 0.48168 0.97582 0.06996 0.0
O115 O 0.47165 0.05501 0.0421 0.0
O116 O 0.50313 0.04973 0.0783 0.0
O117 O 0.42438 1.01015 1.01623 0.0
O118 O 0.44912 1.00676 0.9778 0.0
O119 O 0.53465 0.06838 1.02931 0.0
O120 O 0.50435 0.0482 0.99292 0.0
O121 O 0.5418 1.00445 1.01573 0.0
O122 O 0.49426 0.98009 1.00723 0.0
O123 O 0.58183 0.04184 0.05468 0.0
O124 O 0.5578 0.02867 0.09366 0.0
C125 C 0.4827 0.06171 0.06744 0.0
O126 O 0.46298 0.98838 0.0568 0.0
O127 O 0.51044 0.98508 0.06729 0.0
C128 C 0.40135 0.9772 0.98182 0.0
C129 C 0.35973 0.92787 0.96517 0.0
C130 C 0.38923 0.92655 0.97087 0.0
C131 C 0.40986 0.95101 0.97929 0.0
C132 C 0.37184 0.97846 0.97683 0.0
C133 C 0.35115 0.95399 0.96863 0.0
C134 C 0.42298 1.00337 0.98943 0.0
C135 C 0.52422 0.06956 1.00358 0.0
C136 C 0.52294 0.98275 1.0046 0.0
C137 C 0.6024 0.06373 0.09752 0.0
C138 C 0.64043 0.10779 0.12763 0.0
C139 C 0.63426 0.11138 0.09889 0.0
C140 C 0.61528 0.08957 0.08395 0.0
C141 C 0.60853 0.06024 0.12621 0.0
C142 C 0.62725 0.08206 0.14115 0.0
C143 C 0.5834 0.03978 0.08218 0.0
H144 H 0.39637 0.90666 0.96858 0.0
H145 H 0.43252 0.94957 0.98342 0.0
H146 H 0.3649 0.9985 0.97883 0.0
H147 H 0.32868 0.95573 0.96404 0.0
H148 H 0.64403 0.13106 0.08803 0.0
H149 H 0.6109 0.09288 0.06181 0.0
H150 H 0.59906 0.04044 0.13703 0.0
H151 H 0.63197 0.07851 0.16316 0.0
Dy152 Dy 0.49381 0.49318 0.52265 0.0
Dy153 Dy 0.50012 0.5533 0.55777 0.0
C154 C 0.52579 0.50261 0.58359 0.0
O155 O 0.44797 0.49247 0.5382 0.0
O156 O 0.46171 0.5221 0.57618 0.0
O157 O 0.48275 0.44707 0.52105 0.0
O158 O 0.49881 0.47145 0.48352 0.0
O159 O 0.46727 0.55496 0.52327 0.0
O160 O 0.48206 0.52441 0.49203 0.0
O161 O 0.537 0.56098 0.5262 0.0
O162 O 0.54173 0.51492 0.52018 0.0
O163 O 0.5079 0.59931 0.5585 0.0
O164 O 0.4983 0.57539 0.59748 0.0
C165 C 0.44212 0.50245 0.56296 0.0
O166 O 0.50782 0.48505 0.56669 0.0
O167 O 0.53092 0.53042 0.57994 0.0
C168 C 0.5155 0.42962 0.49106 0.0
C169 C 0.56262 0.40289 0.47927 0.0
C170 C 0.5624 0.41855 0.50445 0.0
C171 C 0.53913 0.43192 0.51022 0.0
C172 C 0.51518 0.41346 0.46633 0.0
C173 C 0.53852 0.4002 0.46046 0.0
C174 C 0.49287 0.44635 0.49533 0.0
C175 C 0.46846 0.54509 0.49744 0.0
C176 C 0.55201 0.54249 0.51718 0.0
C177 C 0.47655 0.61478 0.59169 0.0
C178 C 0.42766 0.63797 0.60635 0.0
C179 C 0.43041 0.62783 0.57878 0.0
C180 C 0.45452 0.61618 0.57156 0.0
C181 C 0.47424 0.6255 0.61903 0.0
C182 C 0.44995 0.63694 0.62634 0.0
C183 C 0.50044 0.6 0.5851 0.0
H184 H 0.58037 0.42076 0.51958 0.0
H185 H 0.53993 0.44462 0.52932 0.0
H186 H 0.49732 0.41183 0.45113 0.0
H187 H 0.53817 0.38872 0.44066 0.0
H188 H 0.4134 0.62801 0.56304 0.0
H189 H 0.45551 0.60764 0.55043 0.0
H190 H 0.49087 0.62442 0.6349 0.0
H191 H 0.4485 0.64481 0.64769 0.0
Dy192 Dy 0.00437 0.54646 1.02208 0.0
Dy193 Dy 9e-05 0.48635 0.05689 0.0
C194 C 0.97458 0.53692 0.08381 0.0
O195 O 0.05058 0.5496 1.03773 0.0
O196 O 0.04017 0.51662 0.07369 0.0
O197 O 0.01157 0.59246 1.02034 0.0
O198 O 0.00048 0.56733 0.98224 0.0
O199 O 0.03284 0.48561 1.02222 0.0
O200 O 0.01608 0.51515 0.99138 0.0
O201 O 0.96305 0.47822 1.02535 0.0
O202 O 0.9567 0.52386 1.02066 0.0
O203 O 0.99299 0.4404 0.05703 0.0
O204 O 0.00192 0.46399 0.09636 0.0
C205 C 0.05812 0.538 0.06103 0.0
O206 O 0.99158 0.55469 0.06644 0.0
O207 O 0.96991 0.50913 0.08019 0.0
C208 C 0.97941 0.60694 0.98736 0.0
C209 C 0.93031 0.62897 0.97126 0.0
C210 C 0.93095 0.6161 0.9979 0.0
C211 C 0.95522 0.60497 1.00581 0.0
C212 C 0.97921 0.6205 0.96114 0.0
C213 C 0.95483 0.6314 0.95311 0.0
C214 C 0.00334 0.59235 0.99391 0.0
C215 C 0.03072 0.49518 0.99644 0.0
C216 C 0.94716 0.49626 1.01712 0.0
C217 C 0.02423 0.425 0.09033 0.0
C218 C 0.07309 0.40191 0.1052 0.0
C219 C 0.07105 0.41308 0.07797 0.0
C220 C 0.04695 0.42469 0.07066 0.0
C221 C 0.02587 0.41331 0.11732 0.0
C222 C 0.05015 0.40192 0.12474 0.0
C223 C 0.00019 0.43954 0.0837 0.0
H224 H 0.91222 0.61372 1.01216 0.0
H225 H 0.95472 0.59411 1.02597 0.0
H226 H -0.00244 0.62196 0.94655 0.0
H227 H 0.955 0.64145 0.93256 0.0
H228 H 0.08858 0.41369 0.06261 0.0
H229 H 0.04645 0.43401 0.04983 0.0
H230 H 0.00869 0.41356 0.13285 0.0
H231 H 0.05106 0.39324 0.14581 0.0
C232 C 0.29772 0.27313 0.30734 0.0
C233 C 0.30851 0.25507 0.28849 0.0
C234 C 0.28499 0.26267 0.33321 0.0
C235 C 0.27792 0.20246 0.38348 0.0
H236 H 0.1972 0.21103 0.39381 0.0
C237 C 0.18904 0.11696 0.43567 0.0
C238 C 0.16666 0.12461 0.45208 0.0
C239 C 0.21023 0.13777 0.42207 0.0
C240 C 0.21994 0.20894 0.39173 0.0
H241 H 0.31462 0.21185 0.28254 0.0
H242 H 0.29344 0.19413 0.3276 0.0
H243 H 0.22871 0.23988 0.35841 0.0
H244 H 0.1497 0.16033 0.46787 0.0
H245 H 0.18673 0.19681 0.44368 0.0
H246 H 0.26881 0.17067 0.41591 0.0
C247 C 0.29505 0.21642 0.32257 0.0
C248 C 0.23798 0.22548 0.37145 0.0
C249 C 0.30733 0.22669 0.29667 0.0
C250 C 0.16642 0.1537 0.45508 0.0
C251 C 0.18765 0.17459 0.44133 0.0
C252 C 0.25995 0.18602 0.40379 0.0
C253 C 0.28324 0.23409 0.34087 0.0
C254 C 0.26672 0.22154 0.36636 0.0
C255 C 0.2096 0.16679 0.42443 0.0
C256 C 0.23037 0.18823 0.40731 0.0
H257 H 0.29859 0.29519 0.3019 0.0
H258 H 0.27612 0.27675 0.34701 0.0
H259 H 0.30017 0.19933 0.38027 0.0
H260 H 0.18956 0.09477 0.43237 0.0
H261 H 0.2264 0.13095 0.4087 0.0
C262 C 0.19514 0.81044 0.79601 0.0
C263 C 0.19085 0.78158 0.7882 0.0
C264 C 0.20804 0.81994 0.82193 0.0
C265 C 0.25999 0.80281 0.87376 0.0
H266 H 0.24077 0.86751 0.91263 0.0
C267 C 0.34687 0.88711 0.93114 0.0
C268 C 0.33844 0.90278 0.95359 0.0
C269 C 0.32591 0.86604 0.91743 0.0
C270 C 0.2462 0.84906 0.90257 0.0
H271 H 0.19561 0.73982 0.80209 0.0
H272 H 0.21838 0.75654 0.84762 0.0
H273 H 0.20692 0.84192 0.87726 0.0
H274 H 0.30199 0.90727 0.98074 0.0
H275 H 0.26535 0.87006 0.95711 0.0
H276 H 0.29949 0.81019 0.89885 0.0
C277 C 0.2119 0.77179 0.83345 0.0
C278 C 0.22691 0.8346 0.88199 0.0
C279 C 0.19889 0.76224 0.80741 0.0
C280 C 0.30898 0.8958 0.96318 0.0
C281 C 0.28803 0.87453 0.94962 0.0
C282 C 0.27922 0.81716 0.89452 0.0
C283 C 0.21706 0.80087 0.84076 0.0
C284 C 0.23419 0.8121 0.86651 0.0
C285 C 0.29605 0.86001 0.92601 0.0
C286 C 0.27313 0.84119 0.90835 0.0
H287 H 0.18986 0.82606 0.78151 0.0
H288 H 0.21228 0.84257 0.82654 0.0
H289 H 0.2663 0.78558 0.86222 0.0
H290 H 0.36935 0.89222 0.92309 0.0
H291 H 0.33288 0.85568 0.89908 0.0
C292 C 0.5982 0.38928 0.79896 0.0
C293 C 0.62845 0.38897 0.80122 0.0
C294 C 0.58749 0.40196 0.77561 0.0
C295 C 0.61201 0.45343 0.71672 0.0
H296 H 0.53558 0.41813 0.68463 0.0
C297 C 0.5553 0.50804 0.6291 0.0
C298 C 0.53947 0.49043 0.60787 0.0
C299 C 0.5667 0.49613 0.65261 0.0
C300 C 0.55709 0.4282 0.69314 0.0
H301 H 0.67099 0.40131 0.78013 0.0
H302 H 0.65237 0.42322 0.73947 0.0
H303 H 0.55426 0.39618 0.72515 0.0
H304 H 0.52406 0.44638 0.59451 0.0
H305 H 0.54418 0.42583 0.63501 0.0
H306 H 0.6151 0.4851 0.68425 0.0
C307 C 0.63695 0.41418 0.75602 0.0
C308 C 0.56766 0.41577 0.71669 0.0
C309 C 0.64765 0.40155 0.77938 0.0
C310 C 0.53588 0.46068 0.61051 0.0
C311 C 0.54729 0.44882 0.63392 0.0
C312 C 0.60142 0.46588 0.69314 0.0
C313 C 0.60672 0.41465 0.7538 0.0
C314 C 0.59532 0.42814 0.72881 0.0
C315 C 0.5626 0.46632 0.65549 0.0
C316 C 0.57385 0.45338 0.68092 0.0
H317 H 0.58282 0.38018 0.81553 0.0
H318 H 0.56417 0.40224 0.77491 0.0
H319 H 0.63324 0.46381 0.72563 0.0
H320 H 0.55844 0.53102 0.62785 0.0
H321 H 0.57813 0.51032 0.66888 0.0
C322 C 0.86964 0.61832 0.30157 0.0
C323 C 0.87245 0.64806 0.30336 0.0
C324 C 0.8804 0.60601 0.27802 0.0
C325 C 0.9329 0.62292 0.21781 0.0
H326 H 0.88654 0.55265 0.18599 0.0
C327 C 0.96417 0.57854 0.11112 0.0
C328 C 0.9612 0.54886 0.10844 0.0
C329 C 0.95287 0.59016 0.13475 0.0
C330 C 0.89997 0.57209 0.19478 0.0
H331 H 0.88878 0.68806 0.28137 0.0
H332 H 0.90767 0.66664 0.24045 0.0
H333 H 0.86821 0.57383 0.22741 0.0
H334 H 0.94352 0.50813 0.12863 0.0
H335 H 0.92406 0.52844 0.17005 0.0
H336 H 0.96472 0.62118 0.18534 0.0
C337 C 0.89741 0.65283 0.25746 0.0
C338 C 0.88943 0.58427 0.21857 0.0
C339 C 0.88659 0.66515 0.281 0.0
C340 C 0.94616 0.53107 0.1299 0.0
C341 C 0.93489 0.54274 0.15364 0.0
C342 C 0.94346 0.61072 0.19409 0.0
C343 C 0.89438 0.62307 0.25559 0.0
C344 C 0.90571 0.60991 0.23037 0.0
C345 C 0.93831 0.57249 0.15651 0.0
C346 C 0.92711 0.58519 0.18213 0.0
H347 H 0.85938 0.60448 0.31857 0.0
H348 H 0.87811 0.58308 0.27758 0.0
H349 H 0.94631 0.64239 0.22657 0.0
H350 H 0.97537 0.59296 0.09496 0.0
H351 H 0.95544 0.6131 0.13585 0.0
C352 C 0.38661 0.25398 0.18172 0.0
C353 C 0.3662 0.24163 0.20265 0.0
C354 C 0.40378 0.23757 0.16774 0.0
C355 C 0.42867 0.16927 0.17348 0.0
H356 H 0.43579 0.17492 0.09178 0.0
C357 C 0.48702 0.0955 0.10866 0.0
C358 C 0.47277 0.0844 0.08346 0.0
C359 C 0.47789 0.11742 0.12326 0.0
C360 C 0.43394 0.17304 0.11461 0.0
H361 H 0.34716 0.2022 0.22469 0.0
H362 H 0.37681 0.17383 0.20048 0.0
H363 H 0.41281 0.20833 0.11762 0.0
H364 H 0.43766 0.08759 0.05393 0.0
H365 H 0.4214 0.12517 0.07964 0.0
H366 H 0.44841 0.13314 0.17042 0.0
C367 C 0.3803 0.1963 0.19533 0.0
C368 C 0.42112 0.19244 0.12944 0.0
C369 C 0.36326 0.2126 0.20922 0.0
C370 C 0.44923 0.09568 0.07322 0.0
C371 C 0.44005 0.11746 0.08784 0.0
C372 C 0.44137 0.14983 0.15866 0.0
C373 C 0.40077 0.20851 0.17442 0.0
C374 C 0.41771 0.19035 0.15899 0.0
C375 C 0.45426 0.12863 0.11302 0.0
C376 C 0.44357 0.15109 0.12898 0.0
H377 H 0.3894 0.27631 0.17626 0.0
H378 H 0.41947 0.24762 0.1518 0.0
H379 H 0.42681 0.16738 0.19631 0.0
H380 H 0.5054 0.08745 0.11701 0.0
H381 H 0.48951 0.12572 0.14245 0.0
C382 C 0.1366 0.82602 0.70919 0.0
C383 C 0.13322 0.79688 0.70282 0.0
C384 C 0.11924 0.8423 0.69571 0.0
C385 C 0.07592 0.84522 0.63106 0.0
H386 H 0.05071 0.90565 0.67223 0.0
C387 C 0.04644 0.94096 0.57464 0.0
C388 C 0.0234 0.9527 0.58537 0.0
C389 C 0.05592 0.91941 0.58929 0.0
C390 C 0.05715 0.88864 0.66046 0.0
H391 H 0.10891 0.76197 0.67727 0.0
H392 H 0.07827 0.79055 0.65358 0.0
H393 H 0.07326 0.87187 0.69776 0.0
H394 H 0.99202 0.95072 0.61985 0.0
H395 H 0.00848 0.9128 0.64538 0.0
H396 H 0.05969 0.86193 0.59376 0.0
C397 C 0.09457 0.80076 0.66899 0.0
C398 C 0.07042 0.86946 0.67505 0.0
C399 C 0.11206 0.78439 0.68252 0.0
C400 C 0.00996 0.94227 0.61109 0.0
C401 C 0.01942 0.92057 0.62574 0.0
C402 C 0.06254 0.86434 0.61647 0.0
C403 C 0.098 0.82993 0.67545 0.0
C404 C 0.08063 0.84797 0.66043 0.0
C405 C 0.04255 0.90891 0.615 0.0
C406 C 0.05366 0.8867 0.6309 0.0
H407 H 0.15321 0.83648 0.7242 0.0
H408 H 0.12306 0.86484 0.70067 0.0
H409 H 0.08362 0.82901 0.61912 0.0
H410 H 0.05742 0.94853 0.55496 0.0
H411 H 0.07419 0.91137 0.58068 0.0
C412 C 0.7275 0.37538 0.88447 0.0
C413 C 0.70737 0.39169 0.87564 0.0
C414 C 0.75365 0.38815 0.89855 0.0
C415 C 0.78786 0.45203 0.94071 0.0
H416 H 0.8598 0.42517 0.92746 0.0
C417 C 0.90133 0.50401 0.99239 0.0
C418 C 0.91863 0.48528 1.00214 0.0
C419 C 0.87543 0.49371 0.9767 0.0
C420 C 0.83983 0.43274 0.93162 0.0
H421 H 0.69937 0.43446 0.87433 0.0
H422 H 0.74545 0.45694 0.89842 0.0
H423 H 0.81569 0.40582 0.8995 0.0
H424 H 0.92178 0.44089 1.00346 0.0
H425 H 0.87671 0.42303 0.97637 0.0
H426 H 0.8122 0.47901 0.97287 0.0
C427 C 0.74071 0.43411 0.8948 0.0
C428 C 0.81449 0.42164 0.91557 0.0
C429 C 0.71446 0.42129 0.88068 0.0
C430 C 0.90911 0.45598 0.99626 0.0
C431 C 0.88334 0.44573 0.98051 0.0
C432 C 0.8133 0.46324 0.95673 0.0
C433 C 0.76055 0.41765 0.90412 0.0
C434 C 0.78804 0.43086 0.9201 0.0
C435 C 0.86633 0.46447 0.97027 0.0
C436 C 0.83949 0.45347 0.95261 0.0
H437 H 0.72295 0.35259 0.88064 0.0
H438 H 0.76816 0.37469 0.90564 0.0
H439 H 0.76782 0.45941 0.94506 0.0
H440 H 0.908 0.52673 0.99645 0.0
H441 H 0.86296 0.50876 0.969 0.0
C442 C 0.77182 0.66146 0.38481 0.0
C443 C 0.79213 0.6452 0.37631 0.0
C444 C 0.74553 0.64866 0.39858 0.0
C445 C 0.71115 0.58488 0.44059 0.0
H446 H 0.63938 0.61192 0.42698 0.0
C447 C 0.59737 0.53394 0.49219 0.0
C448 C 0.58051 0.55301 0.50208 0.0
C449 C 0.62326 0.54387 0.47643 0.0
C450 C 0.6593 0.60428 0.43121 0.0
H451 H 0.80027 0.60248 0.37514 0.0
H452 H 0.75393 0.57993 0.39868 0.0
H453 H 0.68355 0.63095 0.39906 0.0
H454 H 0.57813 0.59762 0.50354 0.0
H455 H 0.62314 0.61481 0.47627 0.0
H456 H 0.68667 0.55815 0.47277 0.0
C457 C 0.75865 0.60274 0.39507 0.0
C458 C 0.68467 0.61521 0.41519 0.0
C459 C 0.78505 0.61561 0.38127 0.0
C460 C 0.59045 0.58227 0.49624 0.0
C461 C 0.61619 0.59214 0.48039 0.0
C462 C 0.68566 0.57383 0.45655 0.0
C463 C 0.73866 0.61917 0.40413 0.0
C464 C 0.71108 0.60597 0.41991 0.0
C465 C 0.63276 0.57306 0.47004 0.0
C466 C 0.65955 0.5837 0.4523 0.0
H467 H 0.77635 0.68425 0.381 0.0
H468 H 0.73092 0.6621 0.40548 0.0
H469 H 0.73115 0.57749 0.44506 0.0
H470 H 0.59038 0.51126 0.49624 0.0
H471 H 0.63544 0.5286 0.46864 0.0
C472 C 0.28092 0.29396 0.1714 0.0
C473 C 0.29195 0.30364 0.19826 0.0
C474 C 0.26061 0.30685 0.15747 0.0
C475 C 0.2264 0.37028 0.15909 0.0
H476 H 0.15926 0.31783 0.12546 0.0
C477 C 0.1138 0.39949 0.13945 0.0
C478 C 0.09963 0.39128 0.11347 0.0
C479 C 0.13927 0.39016 0.147 0.0
C480 C 0.17804 0.33279 0.13443 0.0
H481 H 0.29167 0.33553 0.23073 0.0
H482 H 0.25568 0.3574 0.20696 0.0
H483 H 0.2012 0.29984 0.14289 0.0
H484 H 0.10083 0.36671 0.07512 0.0
H485 H 0.14532 0.35016 0.08846 0.0
H486 H 0.20255 0.40303 0.15149 0.0
C487 C 0.26288 0.34009 0.19641 0.0
C488 C 0.20217 0.32253 0.14433 0.0
C489 C 0.28329 0.32733 0.21022 0.0
C490 C 0.11138 0.37345 0.09523 0.0
C491 C 0.13671 0.36388 0.10291 0.0
C492 C 0.20214 0.38049 0.1494 0.0
C493 C 0.25077 0.3296 0.17014 0.0
C494 C 0.22649 0.34107 0.15716 0.0
C495 C 0.15096 0.37222 0.12884 0.0
C496 C 0.17755 0.36178 0.13733 0.0
H497 H 0.28692 0.27562 0.16164 0.0
H498 H 0.25212 0.29853 0.13705 0.0
H499 H 0.24496 0.38525 0.16837 0.0
H500 H 0.10542 0.41347 0.15379 0.0
H501 H 0.1496 0.39667 0.16726 0.0
C502 C 0.61736 0.307 0.90409 0.0
C503 C 0.61845 0.3104 0.87448 0.0
C504 C 0.60425 0.28079 0.91633 0.0
C505 C 0.58261 0.20323 0.90013 0.0
H506 H 0.54418 0.20065 0.97336 0.0
C507 C 0.52694 0.09746 0.95801 0.0
C508 C 0.53394 0.09627 0.98695 0.0
C509 C 0.5355 0.12305 0.94282 0.0
C510 C 0.55497 0.20102 0.95296 0.0
H511 H 0.60556 0.28884 0.83458 0.0
H512 H 0.58177 0.24318 0.85599 0.0
H513 H 0.56051 0.24623 0.94932 0.0
H514 H 0.55553 0.12122 1.02249 0.0
H515 H 0.57008 0.16565 0.99614 0.0
H516 H 0.57669 0.15777 0.9039 0.0
C517 C 0.59172 0.26074 0.86975 0.0
C518 C 0.56444 0.22719 0.93916 0.0
C519 C 0.60503 0.28705 0.85745 0.0
C520 C 0.54977 0.12125 1.00025 0.0
C521 C 0.55795 0.14683 0.98519 0.0
C522 C 0.57282 0.17695 0.91385 0.0
C523 C 0.59148 0.25714 0.89939 0.0
C524 C 0.57894 0.22881 0.91278 0.0
C525 C 0.55083 0.14811 0.95634 0.0
C526 C 0.55938 0.17562 0.94067 0.0
H527 H 0.62702 0.3246 0.91793 0.0
H528 H 0.60492 0.27894 0.93916 0.0
H529 H 0.59395 0.20354 0.88004 0.0
H530 H 0.5148 0.07864 0.94709 0.0
H531 H 0.5296 0.12338 0.92064 0.0
C532 C 0.89422 0.75019 0.35946 0.0
C533 C 0.88066 0.72684 0.37636 0.0
C534 C 0.90709 0.7766 0.37187 0.0
C535 C 0.9327 0.81059 0.4416 0.0
H536 H 0.92032 0.87956 0.40565 0.0
C537 C 0.9457 0.91684 0.50215 0.0
C538 C 0.96178 0.94171 0.48893 0.0
C539 C 0.93771 0.89117 0.48714 0.0
C540 C 0.92421 0.86051 0.4158 0.0
H541 H 0.87143 0.71272 0.41971 0.0
H542 H 0.89276 0.75855 0.44112 0.0
H543 H 0.90396 0.83361 0.38176 0.0
H544 H 0.98151 0.95908 0.44925 0.0
H545 H 0.96705 0.9142 0.42289 0.0
H546 H 0.95208 0.83743 0.47602 0.0
C547 C 0.89387 0.75663 0.41831 0.0
C548 C 0.91495 0.83414 0.40206 0.0
C549 C 0.88121 0.73033 0.40596 0.0
C550 C 0.96915 0.94035 0.4601 0.0
C551 C 0.9608 0.91468 0.44497 0.0
C552 C 0.94164 0.83686 0.45541 0.0
C553 C 0.90673 0.78029 0.40148 0.0
C554 C 0.9187 0.80873 0.41495 0.0
C555 C 0.94529 0.88971 0.45843 0.0
C556 C 0.93717 0.86209 0.44286 0.0
H557 H 0.89412 0.74832 0.33659 0.0
H558 H 0.91715 0.79416 0.35821 0.0
H559 H 0.93668 0.79169 0.45195 0.0
H560 H 0.93965 0.91701 0.5243 0.0
H561 H 0.92544 0.87241 0.49803 0.0
C562 C 0.21788 0.74392 0.67097 0.0
C563 C 0.20632 0.73368 0.69746 0.0
C564 C 0.23843 0.73131 0.65709 0.0
C565 C 0.27288 0.66799 0.65798 0.0
H566 H 0.34079 0.72151 0.62713 0.0
C567 C 0.38607 0.63945 0.63988 0.0
C568 C 0.40099 0.64849 0.61447 0.0
C569 C 0.36041 0.64857 0.64719 0.0
C570 C 0.32181 0.70626 0.63531 0.0
H571 H 0.2058 0.70098 0.7292 0.0
H572 H 0.24218 0.67954 0.70549 0.0
H573 H 0.29824 0.73886 0.644 0.0
H574 H 0.40091 0.67437 0.57689 0.0
H575 H 0.35608 0.69051 0.58978 0.0
H576 H 0.2971 0.63556 0.65015 0.0
C577 C 0.23523 0.69711 0.69521 0.0
C578 C 0.29733 0.71616 0.64489 0.0
C579 C 0.21458 0.70961 0.70899 0.0
C580 C 0.38979 0.66697 0.59656 0.0
C581 C 0.36426 0.67631 0.604 0.0
C582 C 0.29748 0.65814 0.64861 0.0
C583 C 0.248 0.70825 0.66943 0.0
C584 C 0.2727 0.69721 0.65671 0.0
C585 C 0.34924 0.66711 0.62934 0.0
C586 C 0.32236 0.67723 0.63754 0.0
H587 H 0.21218 0.76255 0.66156 0.0
H588 H 0.24741 0.74012 0.63702 0.0
H589 H 0.25411 0.65272 0.66649 0.0
H590 H 0.394 0.62495 0.65395 0.0
H591 H 0.34949 0.64138 0.667 0.0
C592 C 0.67887 0.80664 0.78859 0.0
C593 C 0.6785 0.77792 0.79477 0.0
C594 C 0.68998 0.81857 0.7628 0.0
C595 C 0.74687 0.81158 0.71285 0.0
H596 H 0.71948 0.8709 0.67212 0.0
C597 C 0.82222 0.88331 0.63243 0.0
C598 C 0.82288 0.91262 0.6349 0.0
C599 C 0.80009 0.86313 0.6459 0.0
C600 C 0.72747 0.85442 0.68331 0.0
H601 H 0.68711 0.73863 0.7776 0.0
H602 H 0.70721 0.75978 0.73269 0.0
H603 H 0.68685 0.84144 0.70642 0.0
H604 H 0.79988 0.94354 0.65228 0.0
H605 H 0.76222 0.90863 0.67663 0.0
H606 H 0.78804 0.8255 0.69123 0.0
C607 C 0.69902 0.77299 0.74799 0.0
C608 C 0.70871 0.83747 0.7028 0.0
C609 C 0.6876 0.76094 0.77371 0.0
C610 C 0.80039 0.92118 0.65039 0.0
C611 C 0.77843 0.90107 0.66396 0.0
C612 C 0.76571 0.82867 0.69356 0.0
C613 C 0.7012 0.80215 0.7427 0.0
C614 C 0.71854 0.81643 0.71834 0.0
C615 C 0.7782 0.8718 0.66222 0.0
C616 C 0.75657 0.85087 0.67919 0.0
H617 H 0.67255 0.82054 0.80437 0.0
H618 H 0.6917 0.84118 0.75947 0.0
H619 H 0.75521 0.79578 0.72479 0.0
H620 H 0.83926 0.87598 0.62075 0.0
H621 H 0.80039 0.84074 0.64384 0.0
C622 C 0.80576 0.27464 0.28193 0.0
C623 C 0.8179 0.25977 0.30288 0.0
C624 C 0.79204 0.26036 0.25798 0.0
C625 C 0.7514 0.18824 0.24163 0.0
H626 H 0.74372 0.21773 0.16621 0.0
C627 C 0.65441 0.13704 0.17132 0.0
C628 C 0.66125 0.13023 0.14356 0.0
C629 C 0.67534 0.15542 0.18778 0.0
C630 C 0.74582 0.20921 0.18716 0.0
H631 H 0.82774 0.21879 0.31339 0.0
H632 H 0.80523 0.19454 0.27124 0.0
H633 H 0.78108 0.24449 0.19888 0.0
H634 H 0.69478 0.13844 0.1107 0.0
H635 H 0.7316 0.17067 0.13967 0.0
H636 H 0.71635 0.15315 0.23026 0.0
C637 C 0.80545 0.217 0.27376 0.0
C638 C 0.76707 0.22454 0.20585 0.0
C639 C 0.81881 0.23112 0.2978 0.0
C640 C 0.6889 0.14342 0.13202 0.0
C641 C 0.70995 0.16184 0.14857 0.0
C642 C 0.73025 0.1731 0.22312 0.0
C643 C 0.79048 0.23102 0.25443 0.0
C644 C 0.76996 0.21422 0.23335 0.0
C645 C 0.70363 0.16732 0.17688 0.0
C646 C 0.72693 0.18354 0.19584 0.0
H647 H 0.80523 0.29688 0.28489 0.0
H648 H 0.78083 0.27182 0.24339 0.0
H649 H 0.75259 0.17991 0.26281 0.0
H650 H 0.63305 0.12764 0.18054 0.0
H651 H 0.66962 0.1598 0.20933 0.0
C652 C 0.38082 0.67759 0.30201 0.0
C653 C 0.3724 0.66072 0.27774 0.0
C654 C 0.39088 0.66588 0.32637 0.0
C655 C 0.42486 0.60718 0.34984 0.0
H656 H 0.39423 0.61983 0.42404 0.0
C657 C 0.45092 0.54435 0.44703 0.0
C658 C 0.45527 0.55816 0.47347 0.0
C659 C 0.44024 0.55721 0.42386 0.0
C660 C 0.40341 0.61636 0.40358 0.0
H661 H 0.36859 0.61846 0.25991 0.0
H662 H 0.38632 0.59818 0.30215 0.0
H663 H 0.37772 0.64228 0.38246 0.0
H664 H 0.45142 0.59639 0.49622 0.0
H665 H 0.43354 0.61921 0.45567 0.0
H666 H 0.451 0.58184 0.37066 0.0
C667 C 0.38503 0.62042 0.30246 0.0
C668 C 0.39384 0.62923 0.3797 0.0
C669 C 0.37462 0.63199 0.27831 0.0
C670 C 0.44817 0.58503 0.47623 0.0
C671 C 0.43778 0.5981 0.45291 0.0
C672 C 0.43467 0.5946 0.37367 0.0
C673 C 0.39322 0.63716 0.32684 0.0
C674 C 0.40423 0.62455 0.35249 0.0
C675 C 0.43393 0.5845 0.42625 0.0
C676 C 0.42388 0.5987 0.40093 0.0
H677 H 0.37924 0.69975 0.3023 0.0
H678 H 0.3972 0.67941 0.34473 0.0
H679 H 0.43369 0.6035 0.32926 0.0
H680 H 0.45587 0.52351 0.44415 0.0
H681 H 0.43689 0.54561 0.40402 0.0
C682 C 0.09678 0.37417 0.78301 0.0
C683 C 0.12732 0.37784 0.77768 0.0
C684 C 0.08663 0.38595 0.80724 0.0
C685 C 0.11069 0.4165 0.87846 0.0
H686 H 0.04142 0.44896 0.87168 0.0
C687 C 0.05568 0.45801 0.97593 0.0
C688 C 0.04379 0.48231 0.97222 0.0
C689 C 0.06632 0.44503 0.9527 0.0
C690 C 0.06097 0.44026 0.87397 0.0
H691 H 0.17106 0.3963 0.7944 0.0
H692 H 0.15343 0.41743 0.83605 0.0
H693 H 0.05902 0.42704 0.83058 0.0
H694 H 0.03458 0.51236 0.94104 0.0
H695 H 0.0536 0.49021 0.90088 0.0
H696 H 0.11312 0.43051 0.92168 0.0
C697 C 0.13724 0.40515 0.82169 0.0
C698 C 0.07084 0.42725 0.8504 0.0
C699 C 0.14738 0.39332 0.79751 0.0
C700 C 0.04338 0.49359 0.94476 0.0
C701 C 0.05411 0.4807 0.9216 0.0
C702 C 0.10085 0.42959 0.90204 0.0
C703 C 0.1067 0.4018 0.82685 0.0
C704 C 0.09589 0.41521 0.85225 0.0
C705 C 0.06545 0.45604 0.92514 0.0
C706 C 0.0759 0.44177 0.90012 0.0
H707 H 0.08061 0.36265 0.76817 0.0
H708 H 0.06296 0.38252 0.81062 0.0
H709 H 0.12983 0.4072 0.88089 0.0
H710 H 0.05626 0.44864 0.99672 0.0
H711 H 0.07458 0.42592 0.95631 0.0
C712 C 0.60405 0.78783 0.88147 0.0
C713 C 0.63302 0.78611 0.88897 0.0
C714 C 0.5898 0.8065 0.89582 0.0
C715 C 0.60901 0.87488 0.93129 0.0
H716 H 0.52817 0.85863 0.95904 0.0
C717 C 0.56416 0.95844 0.99409 0.0
C718 C 0.53443 0.95997 0.9904 0.0
C719 C 0.57489 0.93621 0.98203 0.0
C720 C 0.55064 0.86362 0.95101 0.0
H721 H 0.66926 0.80167 0.91812 0.0
H722 H 0.64438 0.83413 0.94312 0.0
H723 H 0.54848 0.82018 0.93858 0.0
H724 H 0.49268 0.93952 0.97087 0.0
H725 H 0.51172 0.90117 0.9489 0.0
H726 H 0.61122 0.91827 0.94266 0.0
C727 C 0.63274 0.82107 0.92616 0.0
C728 C 0.56227 0.84155 0.93948 0.0
C729 C 0.64683 0.80226 0.91204 0.0
C730 C 0.51571 0.9389 0.97412 0.0
C731 C 0.52658 0.91679 0.96172 0.0
C732 C 0.59733 0.89694 0.9424 0.0
C733 C 0.60447 0.82397 0.91765 0.0
C734 C 0.59167 0.84697 0.92983 0.0
C735 C 0.55631 0.91512 0.96561 0.0
C736 C 0.56811 0.8916 0.95272 0.0
H737 H 0.59289 0.77555 0.86381 0.0
H738 H 0.56801 0.80839 0.88885 0.0
H739 H 0.63156 0.87974 0.92342 0.0
H740 H 0.57908 0.97409 1.00683 0.0
H741 H 0.59772 0.93534 0.98605 0.0
C742 C 0.8534 0.2385 0.41839 0.0
C743 C 0.86685 0.25519 0.39554 0.0
C744 C 0.86772 0.21943 0.43172 0.0
C745 C 0.93802 0.19843 0.44365 0.0
H746 H 0.88892 0.1217 0.44421 0.0
C747 C 0.98354 0.09997 0.47692 0.0
C748 C 0.96442 0.07878 0.49267 0.0
C749 C 0.97307 0.12236 0.46462 0.0
C750 C 0.90285 0.14301 0.44466 0.0
H751 H 0.90668 0.26646 0.37007 0.0
H752 H 0.93201 0.23318 0.39381 0.0
H753 H 0.86888 0.16084 0.42608 0.0
H754 H 0.91942 0.06468 0.50818 0.0
H755 H 0.90146 0.10385 0.48758 0.0
H756 H 0.97182 0.18069 0.4629 0.0
C757 C 0.9103 0.23486 0.40118 0.0
C758 C 0.89135 0.16542 0.43418 0.0
C759 C 0.8958 0.25381 0.3876 0.0
C760 C 0.93467 0.08043 0.49587 0.0
C761 C 0.92432 0.1029 0.4839 0.0
C762 C 0.94947 0.17598 0.45456 0.0
C763 C 0.89588 0.21678 0.42265 0.0
C764 C 0.9087 0.19336 0.43377 0.0
C765 C 0.94331 0.12415 0.46806 0.0
C766 C 0.9319 0.148 0.45541 0.0
H767 H 0.83097 0.23876 0.42478 0.0
H768 H 0.85628 0.20589 0.44842 0.0
H769 H 0.95182 0.21981 0.4435 0.0
H770 H 0.0066 0.09927 0.47404 0.0
H771 H 0.98823 0.13811 0.45226 0.0
C772 C 0.30106 0.64552 0.16795 0.0
C773 C 0.29964 0.65082 0.19712 0.0
C774 C 0.27576 0.63187 0.15303 0.0
C775 C 0.19815 0.58957 0.16277 0.0
H776 H 0.18963 0.6135 0.08539 0.0
C777 C 0.09954 0.53327 0.09356 0.0
C778 C 0.08729 0.54984 0.07438 0.0
C779 C 0.12611 0.54478 0.10763 0.0
C780 C 0.19138 0.60672 0.10707 0.0
H781 H 0.27073 0.64584 0.23365 0.0
H782 H 0.22623 0.62285 0.20758 0.0
H783 H 0.2336 0.63519 0.1122 0.0
H784 H 0.09346 0.5915 0.0548 0.0
H785 H 0.13923 0.61197 0.08001 0.0
H786 H 0.15522 0.56222 0.15815 0.0
C787 C 0.247 0.62848 0.1962 0.0
C788 C 0.21698 0.61887 0.12238 0.0
C789 C 0.27248 0.64176 0.21121 0.0
C790 C 0.10245 0.5781 0.06927 0.0
C791 C 0.12883 0.58979 0.08371 0.0
C792 C 0.17236 0.57771 0.14758 0.0
C793 C 0.2482 0.62357 0.1668 0.0
C794 C 0.22083 0.61043 0.15045 0.0
C795 C 0.14095 0.57336 0.10329 0.0
C796 C 0.16859 0.58603 0.11945 0.0
H797 H 0.32183 0.65202 0.15663 0.0
H798 H 0.2779 0.62787 0.13064 0.0
H799 H 0.20029 0.58217 0.18415 0.0
H800 H 0.08858 0.51131 0.09776 0.0
H801 H 0.13498 0.53115 0.12191 0.0
C802 C 0.22478 0.40389 0.71125 0.0
C803 C 0.2 0.38844 0.69642 0.0
C804 C 0.25023 0.4179 0.69669 0.0
C805 C 0.27822 0.4425 0.62446 0.0
H806 H 0.35454 0.44136 0.65779 0.0
C807 C 0.38993 0.47251 0.56296 0.0
C808 C 0.41348 0.49057 0.57729 0.0
C809 C 0.3633 0.46101 0.57708 0.0
C810 C 0.33338 0.44203 0.64829 0.0
H811 H 0.18228 0.37685 0.65439 0.0
H812 H 0.2268 0.40004 0.62924 0.0
H813 H 0.30934 0.42018 0.68335 0.0
H814 H 0.42733 0.51074 0.61777 0.0
H815 H 0.38124 0.49048 0.64225 0.0
H816 H 0.30258 0.46375 0.58903 0.0
C817 C 0.22659 0.40178 0.6521 0.0
C818 C 0.3074 0.43002 0.66303 0.0
C819 C 0.2011 0.38804 0.66662 0.0
C820 C 0.40972 0.49692 0.60599 0.0
C821 C 0.38334 0.48518 0.62013 0.0
C822 C 0.30425 0.45421 0.60958 0.0
C823 C 0.25168 0.41667 0.66691 0.0
C824 C 0.27941 0.43011 0.65137 0.0
C825 C 0.35986 0.46702 0.60591 0.0
C826 C 0.33211 0.45418 0.62138 0.0
H827 H 0.22487 0.40459 0.73418 0.0
H828 H 0.26884 0.42958 0.70886 0.0
H829 H 0.25718 0.44345 0.61493 0.0
H830 H 0.39206 0.46721 0.54086 0.0
H831 H 0.34563 0.44694 0.56561 0.0
C832 C 0.74332 0.74339 0.87208 0.0
C833 C 0.71339 0.73249 0.87874 0.0
C834 C 0.76532 0.73105 0.88337 0.0
C835 C 0.78151 0.68392 0.94028 0.0
H836 H 0.84617 0.67795 0.89004 0.0
C837 C 0.88988 0.65526 0.97981 0.0
C838 C 0.90368 0.6388 0.96187 0.0
C839 C 0.86514 0.66496 0.9705 0.0
C840 C 0.82814 0.67907 0.90431 0.0
H841 H 0.68297 0.70069 0.90305 0.0
H842 H 0.72161 0.67852 0.92256 0.0
H843 H 0.8056 0.69743 0.87233 0.0
H844 H 0.90171 0.61843 0.92072 0.0
H845 H 0.85832 0.63483 0.90464 0.0
H846 H 0.80391 0.66484 0.97209 0.0
C847 C 0.72803 0.69684 0.90877 0.0
C848 C 0.80504 0.69067 0.89425 0.0
C849 C 0.70592 0.70941 0.89757 0.0
C850 C 0.89186 0.63159 0.93477 0.0
C851 C 0.86701 0.64103 0.92557 0.0
C852 C 0.80463 0.67212 0.95034 0.0
C853 C 0.75796 0.70734 0.90148 0.0
C854 C 0.78162 0.69359 0.91216 0.0
C855 C 0.85357 0.65816 0.94316 0.0
C856 C 0.82834 0.66975 0.9325 0.0
H857 H 0.74976 0.76163 0.85817 0.0
H858 H 0.78818 0.74021 0.87793 0.0
H859 H 0.7639 0.686 0.95468 0.0
H860 H 0.89864 0.66119 1.00078 0.0
H861 H 0.85558 0.6784 0.98447 0.0
C862 C 0.39076 0.76207 0.21886 0.0
C863 C 0.38237 0.73719 0.20237 0.0
C864 C 0.40262 0.78848 0.206 0.0
C865 C 0.40404 0.82467 0.13649 0.0
H866 H 0.46771 0.88164 0.16951 0.0
C867 C 0.43956 0.93814 0.08922 0.0
C868 C 0.47016 0.94989 0.08732 0.0
C869 C 0.4289 0.91308 0.10467 0.0
C870 C 0.44999 0.86591 0.15993 0.0
H871 H 0.38171 0.72028 0.15971 0.0
H872 H 0.40246 0.76598 0.13746 0.0
H873 H 0.45038 0.83592 0.19351 0.0
H874 H 0.5135 0.94451 0.10067 0.0
H875 H 0.49495 0.90084 0.12731 0.0
H876 H 0.40397 0.85425 0.10265 0.0
C877 C 0.39915 0.76538 0.16018 0.0
C878 C 0.43986 0.83979 0.17385 0.0
C879 C 0.38734 0.73912 0.17297 0.0
C880 C 0.48978 0.93616 0.10165 0.0
C881 C 0.47912 0.91114 0.11712 0.0
C882 C 0.41409 0.85075 0.12264 0.0
C883 C 0.40637 0.79054 0.1764 0.0
C884 C 0.4169 0.81873 0.16218 0.0
C885 C 0.44855 0.89912 0.11867 0.0
C886 C 0.4373 0.87169 0.13407 0.0
H887 H 0.38708 0.76133 0.24153 0.0
H888 H 0.40783 0.80742 0.21915 0.0
H889 H 0.38601 0.80917 0.12705 0.0
H890 H 0.42376 0.94812 0.07855 0.0
H891 H 0.40519 0.90468 0.1057 0.0
C892 C 0.11016 0.27618 0.71961 0.0
C893 C 0.11854 0.30078 0.70278 0.0
C894 C 0.09842 0.24955 0.7071 0.0
C895 C 0.0969 0.21214 0.63815 0.0
H896 H 0.0326 0.15628 0.67153 0.0
C897 C 0.05941 0.09848 0.59153 0.0
C898 C 0.0287 0.08731 0.58961 0.0
C899 C 0.07057 0.12349 0.60695 0.0
C900 C 0.0505 0.17169 0.66186 0.0
H901 H 0.11943 0.31695 0.65985 0.0
H902 H 0.09887 0.27086 0.63818 0.0
H903 H 0.05046 0.20222 0.69506 0.0
H904 H 0.98569 0.09364 0.60291 0.0
H905 H 0.00511 0.13724 0.62944 0.0
H906 H 0.09658 0.18205 0.60465 0.0
C907 C 0.10208 0.27185 0.66092 0.0
C908 C 0.06093 0.19793 0.67551 0.0
C909 C 0.11379 0.29833 0.67337 0.0
C910 C 0.00948 0.10154 0.60391 0.0
C911 C 0.02064 0.12651 0.61933 0.0
C912 C 0.08654 0.18595 0.62456 0.0
C913 C 0.09477 0.247 0.6775 0.0
C914 C 0.08409 0.21861 0.66368 0.0
C915 C 0.05132 0.13798 0.62087 0.0
C916 C 0.06307 0.16542 0.6361 0.0
H917 H 0.1137 0.27734 0.7423 0.0
H918 H 0.09313 0.23084 0.72051 0.0
H919 H 0.11508 0.22735 0.62861 0.0
H920 H 0.0749 0.08809 0.58089 0.0
H921 H 0.09435 0.13147 0.60797 0.0
C922 C 0.7535 0.29136 0.38151 0.0
C923 C 0.78317 0.30455 0.38708 0.0
C924 C 0.73054 0.30196 0.39334 0.0
C925 C 0.7124 0.34874 0.44994 0.0
H926 H 0.64432 0.34837 0.40182 0.0
C927 C 0.61754 0.40581 0.47763 0.0
C928 C 0.58846 0.39057 0.47194 0.0
C929 C 0.6419 0.39508 0.46909 0.0
C930 C 0.66304 0.34835 0.41561 0.0
H931 H 0.81222 0.33864 0.41002 0.0
H932 H 0.77186 0.35783 0.43041 0.0
H933 H 0.68608 0.33101 0.38327 0.0
H934 H 0.5623 0.35149 0.45387 0.0
H935 H 0.60482 0.33307 0.43855 0.0
H936 H 0.68924 0.36669 0.48212 0.0
C937 C 0.76639 0.33903 0.41708 0.0
C938 C 0.68699 0.33836 0.40502 0.0
C939 C 0.78948 0.32819 0.40537 0.0
C940 C 0.58435 0.36405 0.4581 0.0
C941 C 0.60869 0.35346 0.44939 0.0
C942 C 0.68845 0.35899 0.46049 0.0
C943 C 0.73663 0.32621 0.41089 0.0
C944 C 0.71183 0.33809 0.42212 0.0
C945 C 0.6377 0.36903 0.45448 0.0
C946 C 0.66341 0.3586 0.44349 0.0
H947 H 0.74802 0.27265 0.36803 0.0
H948 H 0.70794 0.29104 0.38875 0.0
H949 H 0.73105 0.3486 0.46377 0.0
H950 H 0.62157 0.4265 0.48786 0.0
H951 H 0.66402 0.40766 0.47306 0.0
loop_
_geom_bond_atom_site_label_1
_geom_bond_atom_site_label_2
_geom_bond_distance
_geom_bond_site_symmetry_2
_ccdc_geom_bond_type
H0 C3 0.931 . S
H1 C6 0.928 . S
H2 C8 0.930 . S
C3 H0 0.931 . S
C3 C4 1.413 . S
C3 C5 1.360 . S
C4 C3 1.413 . S
C4 C8 1.429 . S
C5 C3 1.360 . S
C5 C6 1.372 . S
C6 H1 0.928 . S
C6 C5 1.372 . S
C6 C7 1.404 . S
C7 C6 1.404 . S
C7 C8 1.391 . S
C8 H2 0.930 . S
C8 C4 1.429 . S
C8 C7 1.391 . S
H9 C12 0.931 . S
H10 C15 0.928 . S
H11 C17 0.930 . S
C12 H9 0.931 . S
C12 C13 1.413 . S
C12 C14 1.360 . S
C13 C12 1.413 . S
C13 C17 1.429 . S
C14 C12 1.360 . S
C14 C15 1.372 . S
C15 H10 0.928 . S
C15 C14 1.372 . S
C15 C16 1.404 . S
C16 C15 1.404 . S
C16 C17 1.391 . S
C17 H11 0.930 . S
C17 C13 1.429 . S
C17 C16 1.391 . S
H18 C21 0.931 . S
H19 C24 0.928 . S
H20 C26 0.930 . S
C21 H18 0.931 . S
C21 C22 1.413 . S
C21 C23 1.360 . S
C22 C21 1.413 . S
C22 C26 1.429 . S
C23 C21 1.360 . S
C23 C24 1.372 . S
C24 H19 0.928 . S
C24 C23 1.372 . S
C24 C25 1.404 . S
C25 C24 1.404 . S
C25 C26 1.391 . S
C26 H20 0.930 . S
C26 C22 1.429 . S
C26 C25 1.391 . S
H27 C30 0.931 . S
H28 C33 0.928 . S
H29 C35 0.930 . S
C30 H27 0.931 . S
C30 C31 1.413 . S
C30 C32 1.360 . S
C31 C30 1.413 . S
C31 C35 1.429 . S
C32 C30 1.360 . S
C32 C33 1.372 . S
C33 H28 0.928 . S
C33 C32 1.372 . S
C33 C34 1.404 . S
C34 C33 1.404 . S
C34 C35 1.391 . S
C35 H29 0.930 . S
C35 C31 1.429 . S
C35 C34 1.391 . S
H36 C39 0.931 . S
H37 C42 0.928 . S
H38 C44 0.930 . S
C39 H36 0.931 . S
C39 C40 1.413 . S
C39 C41 1.360 . S
C40 C39 1.413 . S
C40 C44 1.429 . S
C41 C39 1.360 . S
C41 C42 1.372 . S
C42 H37 0.928 . S
C42 C41 1.372 . S
C42 C43 1.404 . S
C43 C42 1.404 . S
C43 C44 1.391 . S
C44 H38 0.930 . S
C44 C40 1.429 . S
C44 C43 1.391 . S
H45 C48 0.931 . S
H46 C51 0.928 . S
H47 C53 0.930 . S
C48 H45 0.931 . S
C48 C49 1.413 . S
C48 C50 1.360 . S
C49 C48 1.413 . S
C49 C53 1.429 . S
C50 C48 1.360 . S
C50 C51 1.372 . S
C51 H46 0.928 . S
C51 C50 1.372 . S
C51 C52 1.404 . S
C52 C51 1.404 . S
C52 C53 1.391 . S
C53 H47 0.930 . S
C53 C49 1.429 . S
C53 C52 1.391 . S
H54 C57 0.931 . S
H55 C60 0.928 . S
H56 C62 0.930 . S
C57 H54 0.931 . S
C57 C58 1.413 . S
C57 C59 1.360 . S
C58 C57 1.413 . S
C58 C62 1.429 . S
C59 C57 1.360 . S
C59 C60 1.372 . S
C60 H55 0.928 . S
C60 C59 1.372 . S
C60 C61 1.404 . S
C61 C60 1.404 . S
C61 C62 1.391 . S
C62 H56 0.930 . S
C62 C58 1.429 . S
C62 C61 1.391 . S
H63 C66 0.931 . S
H64 C69 0.928 . S
H65 C71 0.930 . S
C66 H63 0.931 . S
C66 C67 1.413 . S
C66 C68 1.360 . S
C67 C66 1.413 . S
C67 C71 1.429 . S
C68 C66 1.360 . S
C68 C69 1.372 . S
C69 H64 0.928 . S
C69 C68 1.372 . S
C69 C70 1.404 . S
C70 C69 1.404 . S
C70 C71 1.391 . S
C71 H65 0.930 . S
C71 C67 1.429 . S
C71 C70 1.391 . S
Dy72 O75 2.307 1_545 S
Dy72 O77 2.395 . S
Dy72 O78 2.379 . S
Dy72 O80 2.339 1_545 S
Dy72 O82 2.298 1_455 S
Dy72 O86 2.275 . S
Dy72 C94 2.738 . S
Dy73 O76 2.308 1_655 S
Dy73 O79 2.286 . S
Dy73 O81 2.294 1_565 S
Dy73 O83 2.411 . S
Dy73 O84 2.381 . S
Dy73 O87 2.324 1_565 S
Dy73 C103 2.748 . S
C74 O86 1.254 . S
C74 O87 1.257 1_455 S
O75 Dy72 2.307 1_565 S
O75 C85 1.266 . S
O76 Dy73 2.308 1_455 S
O76 C85 1.236 . S
O77 Dy72 2.395 . S
O77 C94 1.255 . S
O78 Dy72 2.379 . S
O78 C94 1.249 . S
O79 Dy73 2.286 . S
O79 C95 1.254 . S
O80 Dy72 2.339 1_565 S
O80 C95 1.257 1_455 S
O81 Dy73 2.294 1_545 S
O81 C96 1.266 . S
O82 Dy72 2.298 1_655 S
O82 C96 1.236 . S
O83 Dy73 2.411 . S
O83 C103 1.255 . S
O84 Dy73 2.381 . S
O84 C103 1.249 . S
C85 O75 1.266 . S
C85 O76 1.236 . S
O86 Dy72 2.275 . S
O86 C74 1.254 . S
O87 Dy73 2.324 1_545 S
O87 C74 1.257 1_655 S
C88 C91 1.344 . S
C88 C92 1.328 . S
C88 C94 1.516 . S
C89 C90 1.304 . S
C89 C93 1.323 . S
C90 C89 1.304 . S
C90 C91 1.371 . S
C90 H104 0.930 . S
C91 C88 1.344 . S
C91 C90 1.371 . S
C91 H105 0.931 . S
C92 C88 1.328 . S
C92 C93 1.433 . S
C92 H106 0.931 . S
C93 C89 1.323 . S
C93 C92 1.433 . S
C93 H107 0.933 . S
C94 Dy72 2.738 . S
C94 O77 1.255 . S
C94 O78 1.249 . S
C94 C88 1.516 . S
C95 O79 1.254 . S
C95 O80 1.257 1_655 S
C96 O81 1.266 . S
C96 O82 1.236 . S
C97 C100 1.344 . S
C97 C101 1.328 . S
C97 C103 1.516 . S
C98 C99 1.304 . S
C98 C102 1.323 . S
C99 C98 1.304 . S
C99 C100 1.371 . S
C99 H108 0.930 . S
C100 C97 1.344 . S
C100 C99 1.371 . S
C100 H109 0.931 . S
C101 C97 1.328 . S
C101 C102 1.433 . S
C101 H110 0.931 . S
C102 C98 1.323 . S
C102 C101 1.433 . S
C102 H111 0.933 . S
C103 Dy73 2.748 . S
C103 O83 1.255 . S
C103 O84 1.249 . S
C103 C97 1.516 . S
H104 C90 0.930 . S
H105 C91 0.931 . S
H106 C92 0.931 . S
H107 C93 0.933 . S
H108 C99 0.930 . S
H109 C100 0.931 . S
H110 C101 0.931 . S
H111 C102 0.933 . S
Dy112 O115 2.290 1_566 S
Dy112 O117 2.416 . S
Dy112 O118 2.382 . S
Dy112 O120 2.320 1_565 S
Dy112 O122 2.312 . S
Dy112 O126 2.290 1_556 S
Dy112 C134 2.752 . S
Dy113 O116 2.298 . S
Dy113 O119 2.275 1_554 S
Dy113 O121 2.307 1_544 S
Dy113 O123 2.395 . S
Dy113 O124 2.379 . S
Dy113 O127 2.339 1_545 S
Dy113 C143 2.738 . S
C114 O126 1.254 . S
C114 O127 1.257 . S
O115 Dy112 2.290 1_544 S
O115 C125 1.266 . S
O116 Dy113 2.298 . S
O116 C125 1.236 . S
O117 Dy112 2.416 . S
O117 C134 1.255 . S
O118 Dy112 2.382 . S
O118 C134 1.249 . S
O119 Dy113 2.275 1_556 S
O119 C135 1.254 . S
O120 Dy112 2.320 1_545 S
O120 C135 1.257 . S
O121 Dy113 2.307 1_566 S
O121 C136 1.266 . S
O122 Dy112 2.312 . S
O122 C136 1.236 . S
O123 Dy113 2.395 . S
O123 C143 1.255 . S
O124 Dy113 2.379 . S
O124 C143 1.249 . S
C125 O115 1.266 . S
C125 O116 1.236 . S
O126 Dy112 2.290 1_554 S
O126 C114 1.254 . S
O127 Dy113 2.339 1_565 S
O127 C114 1.257 . S
C128 C131 1.344 . S
C128 C132 1.328 . S
C128 C134 1.516 . S
C129 C130 1.304 . S
C129 C133 1.323 . S
C130 C129 1.304 . S
C130 C131 1.371 . S
C130 H144 0.930 . S
C131 C128 1.344 . S
C131 C130 1.371 . S
C131 H145 0.931 . S
C132 C128 1.328 . S
C132 C133 1.433 . S
C132 H146 0.931 . S
C133 C129 1.323 . S
C133 C132 1.433 . S
C133 H147 0.933 . S
C134 Dy112 2.752 . S
C134 O117 1.255 . S
C134 O118 1.249 . S
C134 C128 1.516 . S
C135 O119 1.254 . S
C135 O120 1.257 . S
C136 O121 1.266 . S
C136 O122 1.236 . S
C137 C140 1.344 . S
C137 C141 1.328 . S
C137 C143 1.516 . S
C138 C139 1.304 . S
C138 C142 1.323 . S
C139 C138 1.304 . S
C139 C140 1.371 . S
C139 H148 0.930 . S
C140 C137 1.344 . S
C140 C139 1.371 . S
C140 H149 0.931 . S
C141 C137 1.328 . S
C141 C142 1.433 . S
C141 H150 0.931 . S
C142 C138 1.323 . S
C142 C141 1.433 . S
C142 H151 0.933 . S
C143 Dy113 2.738 . S
C143 O123 1.255 . S
C143 O124 1.249 . S
C143 C137 1.516 . S
H144 C130 0.930 . S
H145 C131 0.931 . S
H146 C132 0.931 . S
H147 C133 0.933 . S
H148 C139 0.930 . S
H149 C140 0.931 . S
H150 C141 0.931 . S
H151 C142 0.933 . S
Dy152 O155 2.307 . S
Dy152 O157 2.395 . S
Dy152 O158 2.379 . S
Dy152 O160 2.339 . S
Dy152 O162 2.298 . S
Dy152 O166 2.275 . S
Dy152 C174 2.738 . S
Dy153 O156 2.298 . S
Dy153 O159 2.275 . S
Dy153 O161 2.307 . S
Dy153 O163 2.395 . S
Dy153 O164 2.379 . S
Dy153 O167 2.339 . S
Dy153 C183 2.738 . S
C154 O166 1.254 . S
C154 O167 1.257 . S
O155 Dy152 2.307 . S
O155 C165 1.266 . S
O156 Dy153 2.298 . S
O156 C165 1.236 . S
O157 Dy152 2.395 . S
O157 C174 1.255 . S
O158 Dy152 2.379 . S
O158 C174 1.249 . S
O159 Dy153 2.275 . S
O159 C175 1.254 . S
O160 Dy152 2.339 . S
O160 C175 1.257 . S
O161 Dy153 2.307 . S
O161 C176 1.266 . S
O162 Dy152 2.298 . S
O162 C176 1.236 . S
O163 Dy153 2.395 . S
O163 C183 1.255 . S
O164 Dy153 2.379 . S
O164 C183 1.249 . S
C165 O155 1.266 . S
C165 O156 1.236 . S
O166 Dy152 2.275 . S
O166 C154 1.254 . S
O167 Dy153 2.339 . S
O167 C154 1.257 . S
C168 C171 1.344 . S
C168 C172 1.328 . S
C168 C174 1.516 . S
C169 C170 1.304 . S
C169 C173 1.323 . S
C170 C169 1.304 . S
C170 C171 1.371 . S
C170 H184 0.930 . S
C171 C168 1.344 . S
C171 C170 1.371 . S
C171 H185 0.931 . S
C172 C168 1.328 . S
C172 C173 1.433 . S
C172 H186 0.931 . S
C173 C169 1.323 . S
C173 C172 1.433 . S
C173 H187 0.933 . S
C174 Dy152 2.738 . S
C174 O157 1.255 . S
C174 O158 1.249 . S
C174 C168 1.516 . S
C175 O159 1.254 . S
C175 O160 1.257 . S
C176 O161 1.266 . S
C176 O162 1.236 . S
C177 C180 1.344 . S
C177 C181 1.328 . S
C177 C183 1.516 . S
C178 C179 1.304 . S
C178 C182 1.323 . S
C179 C178 1.304 . S
C179 C180 1.371 . S
C179 H188 0.930 . S
C180 C177 1.344 . S
C180 C179 1.371 . S
C180 H189 0.931 . S
C181 C177 1.328 . S
C181 C182 1.433 . S
C181 H190 0.931 . S
C182 C178 1.323 . S
C182 C181 1.433 . S
C182 H191 0.933 . S
C183 Dy153 2.738 . S
C183 O163 1.255 . S
C183 O164 1.249 . S
C183 C177 1.516 . S
H184 C170 0.930 . S
H185 C171 0.931 . S
H186 C172 0.931 . S
H187 C173 0.933 . S
H188 C179 0.930 . S
H189 C180 0.931 . S
H190 C181 0.931 . S
H191 C182 0.933 . S
Dy192 O195 2.307 1_656 S
Dy192 O197 2.395 . S
Dy192 O198 2.379 . S
Dy192 O200 2.339 1_655 S
Dy192 O202 2.298 . S
Dy192 O206 2.275 1_556 S
Dy192 C214 2.738 . S
Dy193 O196 2.298 . S
Dy193 O199 2.275 1_554 S
Dy193 O201 2.307 1_455 S
Dy193 O203 2.395 . S
Dy193 O204 2.379 . S
Dy193 O207 2.339 1_455 S
Dy193 C223 2.738 . S
C194 O206 1.254 . S
C194 O207 1.257 . S
O195 Dy192 2.307 1_454 S
O195 C205 1.266 . S
O196 Dy193 2.298 . S
O196 C205 1.236 . S
O197 Dy192 2.395 . S
O197 C214 1.255 . S
O198 Dy192 2.379 . S
O198 C214 1.249 . S
O199 Dy193 2.275 1_556 S
O199 C215 1.254 . S
O200 Dy192 2.339 1_455 S
O200 C215 1.257 . S
O201 Dy193 2.307 1_655 S
O201 C216 1.266 1_554 S
O202 Dy192 2.298 . S
O202 C216 1.236 . S
O203 Dy193 2.395 . S
O203 C223 1.255 . S
O204 Dy193 2.379 . S
O204 C223 1.249 . S
C205 O195 1.266 . S
C205 O196 1.236 . S
O206 Dy192 2.275 1_554 S
O206 C194 1.254 . S
O207 Dy193 2.339 1_655 S
O207 C194 1.257 . S
C208 C211 1.344 . S
C208 C212 1.328 . S
C208 C214 1.516 . S
C209 C210 1.304 . S
C209 C213 1.323 . S
C210 C209 1.304 . S
C210 C211 1.371 . S
C210 H224 0.930 . S
C211 C208 1.344 . S
C211 C210 1.371 . S
C211 H225 0.931 . S
C212 C208 1.328 . S
C212 C213 1.433 . S
C212 H226 0.931 . S
C213 C209 1.323 . S
C213 C212 1.433 . S
C213 H227 0.933 . S
C214 Dy192 2.738 . S
C214 O197 1.255 . S
C214 O198 1.249 . S
C214 C208 1.516 . S
C215 O199 1.254 . S
C215 O200 1.257 . S
C216 O201 1.266 1_556 S
C216 O202 1.236 . S
C217 C220 1.344 . S
C217 C221 1.328 . S
C217 C223 1.516 . S
C218 C219 1.304 . S
C218 C222 1.323 . S
C219 C218 1.304 . S
C219 C220 1.371 . S
C219 H228 0.930 . S
C220 C217 1.344 . S
C220 C219 1.371 . S
C220 H229 0.931 . S
C221 C217 1.328 . S
C221 C222 1.433 . S
C221 H230 0.931 . S
C222 C218 1.323 . S
C222 C221 1.433 . S
C222 H231 0.933 . S
C223 Dy193 2.738 . S
C223 O203 1.255 . S
C223 O204 1.249 . S
C223 C217 1.516 . S
H224 C210 0.930 . S
H225 C211 0.931 . S
H226 C212 0.931 . S
H227 C213 0.933 . S
H228 C219 0.930 . S
H229 C220 0.931 . S
H230 C221 0.931 . S
H231 C222 0.933 . S
C232 C233 1.349 . S
C232 C234 1.327 . S
C232 H257 0.950 . S
C233 C232 1.349 . S
C233 C249 1.349 . S
C234 C232 1.327 . S
C234 C253 1.429 . S
C234 H258 0.950 . S
C235 C252 1.574 . S
C235 C254 1.368 . S
C235 H259 0.949 . S
H236 C240 0.949 . S
C237 C238 1.349 . S
C237 C239 1.327 . S
C237 H260 0.950 . S
C238 C237 1.349 . S
C238 C250 1.349 . S
C239 C237 1.327 . S
C239 C255 1.429 . S
C239 H261 0.950 . S
C240 H236 0.949 . S
C240 C248 1.574 . S
C240 C256 1.368 . S
H241 C249 0.950 . S
H242 C247 0.950 . S
H243 C248 0.949 . S
H244 C250 0.950 . S
H245 C251 0.950 . S
H246 C252 0.949 . S
C247 H242 0.950 . S
C247 C249 1.327 . S
C247 C253 1.429 . S
C248 C240 1.574 . S
C248 H243 0.949 . S
C248 C254 1.368 . S
C249 C233 1.349 . S
C249 H241 0.950 . S
C249 C247 1.327 . S
C250 C238 1.349 . S
C250 H244 0.950 . S
C250 C251 1.327 . S
C251 H245 0.950 . S
C251 C250 1.327 . S
C251 C255 1.429 . S
C252 C235 1.574 . S
C252 H246 0.949 . S
C252 C256 1.368 . S
C253 C234 1.429 . S
C253 C247 1.429 . S
C253 C254 1.523 . S
C254 C235 1.368 . S
C254 C248 1.368 . S
C254 C253 1.523 . S
C255 C239 1.429 . S
C255 C251 1.429 . S
C255 C256 1.523 . S
C256 C240 1.368 . S
C256 C252 1.368 . S
C256 C255 1.523 . S
H257 C232 0.950 . S
H258 C234 0.950 . S
H259 C235 0.949 . S
H260 C237 0.950 . S
H261 C239 0.950 . S
C262 C263 1.349 . S
C262 C264 1.327 . S
C262 H287 0.950 . S
C263 C262 1.349 . S
C263 C279 1.349 . S
C264 C262 1.327 . S
C264 C283 1.429 . S
C264 H288 0.950 . S
C265 C282 1.574 . S
C265 C284 1.368 . S
C265 H289 0.949 . S
H266 C270 0.949 . S
C267 C268 1.349 . S
C267 C269 1.327 . S
C267 H290 0.950 . S
C268 C267 1.349 . S
C268 C280 1.349 . S
C269 C267 1.327 . S
C269 C285 1.429 . S
C269 H291 0.950 . S
C270 H266 0.949 . S
C270 C278 1.574 . S
C270 C286 1.368 . S
H271 C279 0.950 . S
H272 C277 0.950 . S
H273 C278 0.949 . S
H274 C280 0.950 . S
H275 C281 0.950 . S
H276 C282 0.949 . S
C277 H272 0.950 . S
C277 C279 1.327 . S
C277 C283 1.429 . S
C278 C270 1.574 . S
C278 H273 0.949 . S
C278 C284 1.368 . S
C279 C263 1.349 . S
C279 H271 0.950 . S
C279 C277 1.327 . S
C280 C268 1.349 . S
C280 H274 0.950 . S
C280 C281 1.327 . S
C281 H275 0.950 . S
C281 C280 1.327 . S
C281 C285 1.429 . S
C282 C265 1.574 . S
C282 H276 0.949 . S
C282 C286 1.368 . S
C283 C264 1.429 . S
C283 C277 1.429 . S
C283 C284 1.523 . S
C284 C265 1.368 . S
C284 C278 1.368 . S
C284 C283 1.523 . S
C285 C269 1.429 . S
C285 C281 1.429 . S
C285 C286 1.523 . S
C286 C270 1.368 . S
C286 C282 1.368 . S
C286 C285 1.523 . S
H287 C262 0.950 . S
H288 C264 0.950 . S
H289 C265 0.949 . S
H290 C267 0.950 . S
H291 C269 0.950 . S
C292 C293 1.349 . S
C292 C294 1.327 . S
C292 H317 0.950 . S
C293 C292 1.349 . S
C293 C309 1.349 . S
C294 C292 1.327 . S
C294 C313 1.429 . S
C294 H318 0.950 . S
C295 C312 1.574 . S
C295 C314 1.368 . S
C295 H319 0.949 . S
H296 C300 0.949 . S
C297 C298 1.349 . S
C297 C299 1.327 . S
C297 H320 0.950 . S
C298 C297 1.349 . S
C298 C310 1.349 . S
C299 C297 1.327 . S
C299 C315 1.429 . S
C299 H321 0.950 . S
C300 H296 0.949 . S
C300 C308 1.574 . S
C300 C316 1.368 . S
H301 C309 0.950 . S
H302 C307 0.950 . S
H303 C308 0.949 . S
H304 C310 0.950 . S
H305 C311 0.950 . S
H306 C312 0.949 . S
C307 H302 0.950 . S
C307 C309 1.327 . S
C307 C313 1.429 . S
C308 C300 1.574 . S
C308 H303 0.949 . S
C308 C314 1.368 . S
C309 C293 1.349 . S
C309 H301 0.950 . S
C309 C307 1.327 . S
C310 C298 1.349 . S
C310 H304 0.950 . S
C310 C311 1.327 . S
C311 H305 0.950 . S
C311 C310 1.327 . S
C311 C315 1.429 . S
C312 C295 1.574 . S
C312 H306 0.949 . S
C312 C316 1.368 . S
C313 C294 1.429 . S
C313 C307 1.429 . S
C313 C314 1.523 . S
C314 C295 1.368 . S
C314 C308 1.368 . S
C314 C313 1.523 . S
C315 C299 1.429 . S
C315 C311 1.429 . S
C315 C316 1.523 . S
C316 C300 1.368 . S
C316 C312 1.368 . S
C316 C315 1.523 . S
H317 C292 0.950 . S
H318 C294 0.950 . S
H319 C295 0.949 . S
H320 C297 0.950 . S
H321 C299 0.950 . S
C322 C323 1.349 . S
C322 C324 1.327 . S
C322 H347 0.950 . S
C323 C322 1.349 . S
C323 C339 1.349 . S
C324 C322 1.327 . S
C324 C343 1.429 . S
C324 H348 0.950 . S
C325 C342 1.574 . S
C325 C344 1.368 . S
C325 H349 0.949 . S
H326 C330 0.949 . S
C327 C328 1.349 . S
C327 C329 1.327 . S
C327 H350 0.950 . S
C328 C327 1.349 . S
C328 C340 1.349 . S
C329 C327 1.327 . S
C329 C345 1.429 . S
C329 H351 0.950 . S
C330 H326 0.949 . S
C330 C338 1.574 . S
C330 C346 1.368 . S
H331 C339 0.950 . S
H332 C337 0.950 . S
H333 C338 0.949 . S
H334 C340 0.950 . S
H335 C341 0.950 . S
H336 C342 0.949 . S
C337 H332 0.950 . S
C337 C339 1.327 . S
C337 C343 1.429 . S
C338 C330 1.574 . S
C338 H333 0.949 . S
C338 C344 1.368 . S
C339 C323 1.349 . S
C339 H331 0.950 . S
C339 C337 1.327 . S
C340 C328 1.349 . S
C340 H334 0.950 . S
C340 C341 1.327 . S
C341 H335 0.950 . S
C341 C340 1.327 . S
C341 C345 1.429 . S
C342 C325 1.574 . S
C342 H336 0.949 . S
C342 C346 1.368 . S
C343 C324 1.429 . S
C343 C337 1.429 . S
C343 C344 1.523 . S
C344 C325 1.368 . S
C344 C338 1.368 . S
C344 C343 1.523 . S
C345 C329 1.429 . S
C345 C341 1.429 . S
C345 C346 1.523 . S
C346 C330 1.368 . S
C346 C342 1.368 . S
C346 C345 1.523 . S
H347 C322 0.950 . S
H348 C324 0.950 . S
H349 C325 0.949 . S
H350 C327 0.950 . S
H351 C329 0.950 . S
C352 C353 1.349 . S
C352 C354 1.327 . S
C352 H377 0.950 . S
C353 C352 1.349 . S
C353 C369 1.349 . S
C354 C352 1.327 . S
C354 C373 1.429 . S
C354 H378 0.950 . S
C355 C372 1.574 . S
C355 C374 1.368 . S
C355 H379 0.949 . S
H356 C360 0.949 . S
C357 C358 1.349 . S
C357 C359 1.327 . S
C357 H380 0.950 . S
C358 C357 1.349 . S
C358 C370 1.349 . S
C359 C357 1.327 . S
C359 C375 1.429 . S
C359 H381 0.950 . S
C360 H356 0.949 . S
C360 C368 1.574 . S
C360 C376 1.368 . S
H361 C369 0.950 . S
H362 C367 0.950 . S
H363 C368 0.949 . S
H364 C370 0.950 . S
H365 C371 0.950 . S
H366 C372 0.949 . S
C367 H362 0.950 . S
C367 C369 1.327 . S
C367 C373 1.429 . S
C368 C360 1.574 . S
C368 H363 0.949 . S
C368 C374 1.368 . S
C369 C353 1.349 . S
C369 H361 0.950 . S
C369 C367 1.327 . S
C370 C358 1.349 . S
C370 H364 0.950 . S
C370 C371 1.327 . S
C371 H365 0.950 . S
C371 C370 1.327 . S
C371 C375 1.429 . S
C372 C355 1.574 . S
C372 H366 0.949 . S
C372 C376 1.368 . S
C373 C354 1.429 . S
C373 C367 1.429 . S
C373 C374 1.523 . S
C374 C355 1.368 . S
C374 C368 1.368 . S
C374 C373 1.523 . S
C375 C359 1.429 . S
C375 C371 1.429 . S
C375 C376 1.523 . S
C376 C360 1.368 . S
C376 C372 1.368 . S
C376 C375 1.523 . S
H377 C352 0.950 . S
H378 C354 0.950 . S
H379 C355 0.949 . S
H380 C357 0.950 . S
H381 C359 0.950 . S
C382 C383 1.349 . S
C382 C384 1.327 . S
C382 H407 0.950 . S
C383 C382 1.349 . S
C383 C399 1.349 . S
C384 C382 1.327 . S
C384 C403 1.429 . S
C384 H408 0.950 . S
C385 C402 1.574 . S
C385 C404 1.368 . S
C385 H409 0.949 . S
H386 C390 0.949 . S
C387 C388 1.349 . S
C387 C389 1.327 . S
C387 H410 0.950 . S
C388 C387 1.349 . S
C388 C400 1.349 . S
C389 C387 1.327 . S
C389 C405 1.429 . S
C389 H411 0.950 . S
C390 H386 0.949 . S
C390 C398 1.574 . S
C390 C406 1.368 . S
H391 C399 0.950 . S
H392 C397 0.950 . S
H393 C398 0.949 . S
H394 C400 0.950 . S
H395 C401 0.950 . S
H396 C402 0.949 . S
C397 H392 0.950 . S
C397 C399 1.327 . S
C397 C403 1.429 . S
C398 C390 1.574 . S
C398 H393 0.949 . S
C398 C404 1.368 . S
C399 C383 1.349 . S
C399 H391 0.950 . S
C399 C397 1.327 . S
C400 C388 1.349 . S
C400 H394 0.950 . S
C400 C401 1.327 . S
C401 H395 0.950 . S
C401 C400 1.327 . S
C401 C405 1.429 . S
C402 C385 1.574 . S
C402 H396 0.949 . S
C402 C406 1.368 . S
C403 C384 1.429 . S
C403 C397 1.429 . S
C403 C404 1.523 . S
C404 C385 1.368 . S
C404 C398 1.368 . S
C404 C403 1.523 . S
C405 C389 1.429 . S
C405 C401 1.429 . S
C405 C406 1.523 . S
C406 C390 1.368 . S
C406 C402 1.368 . S
C406 C405 1.523 . S
H407 C382 0.950 . S
H408 C384 0.950 . S
H409 C385 0.949 . S
H410 C387 0.950 . S
H411 C389 0.950 . S
C412 C413 1.349 . S
C412 C414 1.327 . S
C412 H437 0.950 . S
C413 C412 1.349 . S
C413 C429 1.349 . S
C414 C412 1.327 . S
C414 C433 1.429 . S
C414 H438 0.950 . S
C415 C432 1.574 . S
C415 C434 1.368 . S
C415 H439 0.949 . S
H416 C420 0.949 . S
C417 C418 1.349 . S
C417 C419 1.327 . S
C417 H440 0.950 . S
C418 C417 1.349 . S
C418 C430 1.349 . S
C419 C417 1.327 . S
C419 C435 1.429 . S
C419 H441 0.950 . S
C420 H416 0.949 . S
C420 C428 1.574 . S
C420 C436 1.368 . S
H421 C429 0.950 . S
H422 C427 0.950 . S
H423 C428 0.949 . S
H424 C430 0.950 . S
H425 C431 0.950 . S
H426 C432 0.949 . S
C427 H422 0.950 . S
C427 C429 1.327 . S
C427 C433 1.429 . S
C428 C420 1.574 . S
C428 H423 0.949 . S
C428 C434 1.368 . S
C429 C413 1.349 . S
C429 H421 0.950 . S
C429 C427 1.327 . S
C430 C418 1.349 . S
C430 H424 0.950 . S
C430 C431 1.327 . S
C431 H425 0.950 . S
C431 C430 1.327 . S
C431 C435 1.429 . S
C432 C415 1.574 . S
C432 H426 0.949 . S
C432 C436 1.368 . S
C433 C414 1.429 . S
C433 C427 1.429 . S
C433 C434 1.523 . S
C434 C415 1.368 . S
C434 C428 1.368 . S
C434 C433 1.523 . S
C435 C419 1.429 . S
C435 C431 1.429 . S
C435 C436 1.523 . S
C436 C420 1.368 . S
C436 C432 1.368 . S
C436 C435 1.523 . S
H437 C412 0.950 . S
H438 C414 0.950 . S
H439 C415 0.949 . S
H440 C417 0.950 . S
H441 C419 0.950 . S
C442 C443 1.349 . S
C442 C444 1.327 . S
C442 H467 0.950 . S
C443 C442 1.349 . S
C443 C459 1.349 . S
C444 C442 1.327 . S
C444 C463 1.429 . S
C444 H468 0.950 . S
C445 C462 1.574 . S
C445 C464 1.368 . S
C445 H469 0.949 . S
H446 C450 0.949 . S
C447 C448 1.349 . S
C447 C449 1.327 . S
C447 H470 0.950 . S
C448 C447 1.349 . S
C448 C460 1.349 . S
C449 C447 1.327 . S
C449 C465 1.429 . S
C449 H471 0.950 . S
C450 H446 0.949 . S
C450 C458 1.574 . S
C450 C466 1.368 . S
H451 C459 0.950 . S
H452 C457 0.950 . S
H453 C458 0.949 . S
H454 C460 0.950 . S
H455 C461 0.950 . S
H456 C462 0.949 . S
C457 H452 0.950 . S
C457 C459 1.327 . S
C457 C463 1.429 . S
C458 C450 1.574 . S
C458 H453 0.949 . S
C458 C464 1.368 . S
C459 C443 1.349 . S
C459 H451 0.950 . S
C459 C457 1.327 . S
C460 C448 1.349 . S
C460 H454 0.950 . S
C460 C461 1.327 . S
C461 H455 0.950 . S
C461 C460 1.327 . S
C461 C465 1.429 . S
C462 C445 1.574 . S
C462 H456 0.949 . S
C462 C466 1.368 . S
C463 C444 1.429 . S
C463 C457 1.429 . S
C463 C464 1.523 . S
C464 C445 1.368 . S
C464 C458 1.368 . S
C464 C463 1.523 . S
C465 C449 1.429 . S
C465 C461 1.429 . S
C465 C466 1.523 . S
C466 C450 1.368 . S
C466 C462 1.368 . S
C466 C465 1.523 . S
H467 C442 0.950 . S
H468 C444 0.950 . S
H469 C445 0.949 . S
H470 C447 0.950 . S
H471 C449 0.950 . S
C472 C473 1.349 . S
C472 C474 1.327 . S
C472 H497 0.950 . S
C473 C472 1.349 . S
C473 C489 1.349 . S
C474 C472 1.327 . S
C474 C493 1.429 . S
C474 H498 0.950 . S
C475 C492 1.574 . S
C475 C494 1.368 . S
C475 H499 0.949 . S
H476 C480 0.949 . S
C477 C478 1.349 . S
C477 C479 1.327 . S
C477 H500 0.950 . S
C478 C477 1.349 . S
C478 C490 1.349 . S
C479 C477 1.327 . S
C479 C495 1.429 . S
C479 H501 0.950 . S
C480 H476 0.949 . S
C480 C488 1.574 . S
C480 C496 1.368 . S
H481 C489 0.950 . S
H482 C487 0.950 . S
H483 C488 0.949 . S
H484 C490 0.950 . S
H485 C491 0.950 . S
H486 C492 0.949 . S
C487 H482 0.950 . S
C487 C489 1.327 . S
C487 C493 1.429 . S
C488 C480 1.574 . S
C488 H483 0.949 . S
C488 C494 1.368 . S
C489 C473 1.349 . S
C489 H481 0.950 . S
C489 C487 1.327 . S
C490 C478 1.349 . S
C490 H484 0.950 . S
C490 C491 1.327 . S
C491 H485 0.950 . S
C491 C490 1.327 . S
C491 C495 1.429 . S
C492 C475 1.574 . S
C492 H486 0.949 . S
C492 C496 1.368 . S
C493 C474 1.429 . S
C493 C487 1.429 . S
C493 C494 1.523 . S
C494 C475 1.368 . S
C494 C488 1.368 . S
C494 C493 1.523 . S
C495 C479 1.429 . S
C495 C491 1.429 . S
C495 C496 1.523 . S
C496 C480 1.368 . S
C496 C492 1.368 . S
C496 C495 1.523 . S
H497 C472 0.950 . S
H498 C474 0.950 . S
H499 C475 0.949 . S
H500 C477 0.950 . S
H501 C479 0.950 . S
C502 C503 1.349 . S
C502 C504 1.327 . S
C502 H527 0.950 . S
C503 C502 1.349 . S
C503 C519 1.349 . S
C504 C502 1.327 . S
C504 C523 1.429 . S
C504 H528 0.950 . S
C505 C522 1.574 . S
C505 C524 1.368 . S
C505 H529 0.949 . S
H506 C510 0.949 . S
C507 C508 1.349 . S
C507 C509 1.327 . S
C507 H530 0.950 . S
C508 C507 1.349 . S
C508 C520 1.349 . S
C509 C507 1.327 . S
C509 C525 1.429 . S
C509 H531 0.950 . S
C510 H506 0.949 . S
C510 C518 1.574 . S
C510 C526 1.368 . S
H511 C519 0.950 . S
H512 C517 0.950 . S
H513 C518 0.949 . S
H514 C520 0.950 . S
H515 C521 0.950 . S
H516 C522 0.949 . S
C517 H512 0.950 . S
C517 C519 1.327 . S
C517 C523 1.429 . S
C518 C510 1.574 . S
C518 H513 0.949 . S
C518 C524 1.368 . S
C519 C503 1.349 . S
C519 H511 0.950 . S
C519 C517 1.327 . S
C520 C508 1.349 . S
C520 H514 0.950 . S
C520 C521 1.327 . S
C521 H515 0.950 . S
C521 C520 1.327 . S
C521 C525 1.429 . S
C522 C505 1.574 . S
C522 H516 0.949 . S
C522 C526 1.368 . S
C523 C504 1.429 . S
C523 C517 1.429 . S
C523 C524 1.523 . S
C524 C505 1.368 . S
C524 C518 1.368 . S
C524 C523 1.523 . S
C525 C509 1.429 . S
C525 C521 1.429 . S
C525 C526 1.523 . S
C526 C510 1.368 . S
C526 C522 1.368 . S
C526 C525 1.523 . S
H527 C502 0.950 . S
H528 C504 0.950 . S
H529 C505 0.949 . S
H530 C507 0.950 . S
H531 C509 0.950 . S
C532 C533 1.349 . S
C532 C534 1.327 . S
C532 H557 0.950 . S
C533 C532 1.349 . S
C533 C549 1.349 . S
C534 C532 1.327 . S
C534 C553 1.429 . S
C534 H558 0.950 . S
C535 C552 1.574 . S
C535 C554 1.368 . S
C535 H559 0.949 . S
H536 C540 0.949 . S
C537 C538 1.349 . S
C537 C539 1.327 . S
C537 H560 0.950 . S
C538 C537 1.349 . S
C538 C550 1.349 . S
C539 C537 1.327 . S
C539 C555 1.429 . S
C539 H561 0.950 . S
C540 H536 0.949 . S
C540 C548 1.574 . S
C540 C556 1.368 . S
H541 C549 0.950 . S
H542 C547 0.950 . S
H543 C548 0.949 . S
H544 C550 0.950 . S
H545 C551 0.950 . S
H546 C552 0.949 . S
C547 H542 0.950 . S
C547 C549 1.327 . S
C547 C553 1.429 . S
C548 C540 1.574 . S
C548 H543 0.949 . S
C548 C554 1.368 . S
C549 C533 1.349 . S
C549 H541 0.950 . S
C549 C547 1.327 . S
C550 C538 1.349 . S
C550 H544 0.950 . S
C550 C551 1.327 . S
C551 H545 0.950 . S
C551 C550 1.327 . S
C551 C555 1.429 . S
C552 C535 1.574 . S
C552 H546 0.949 . S
C552 C556 1.368 . S
C553 C534 1.429 . S
C553 C547 1.429 . S
C553 C554 1.523 . S
C554 C535 1.368 . S
C554 C548 1.368 . S
C554 C553 1.523 . S
C555 C539 1.429 . S
C555 C551 1.429 . S
C555 C556 1.523 . S
C556 C540 1.368 . S
C556 C552 1.368 . S
C556 C555 1.523 . S
H557 C532 0.950 . S
H558 C534 0.950 . S
H559 C535 0.949 . S
H560 C537 0.950 . S
H561 C539 0.950 . S
C562 C563 1.349 . S
C562 C564 1.327 . S
C562 H587 0.950 . S
C563 C562 1.349 . S
C563 C579 1.349 . S
C564 C562 1.327 . S
C564 C583 1.429 . S
C564 H588 0.950 . S
C565 C582 1.574 . S
C565 C584 1.368 . S
C565 H589 0.949 . S
H566 C570 0.949 . S
C567 C568 1.349 . S
C567 C569 1.327 . S
C567 H590 0.950 . S
C568 C567 1.349 . S
C568 C580 1.349 . S
C569 C567 1.327 . S
C569 C585 1.429 . S
C569 H591 0.950 . S
C570 H566 0.949 . S
C570 C578 1.574 . S
C570 C586 1.368 . S
H571 C579 0.950 . S
H572 C577 0.950 . S
H573 C578 0.949 . S
H574 C580 0.950 . S
H575 C581 0.950 . S
H576 C582 0.949 . S
C577 H572 0.950 . S
C577 C579 1.327 . S
C577 C583 1.429 . S
C578 C570 1.574 . S
C578 H573 0.949 . S
C578 C584 1.368 . S
C579 C563 1.349 . S
C579 H571 0.950 . S
C579 C577 1.327 . S
C580 C568 1.349 . S
C580 H574 0.950 . S
C580 C581 1.327 . S
C581 H575 0.950 . S
C581 C580 1.327 . S
C581 C585 1.429 . S
C582 C565 1.574 . S
C582 H576 0.949 . S
C582 C586 1.368 . S
C583 C564 1.429 . S
C583 C577 1.429 . S
C583 C584 1.523 . S
C584 C565 1.368 . S
C584 C578 1.368 . S
C584 C583 1.523 . S
C585 C569 1.429 . S
C585 C581 1.429 . S
C585 C586 1.523 . S
C586 C570 1.368 . S
C586 C582 1.368 . S
C586 C585 1.523 . S
H587 C562 0.950 . S
H588 C564 0.950 . S
H589 C565 0.949 . S
H590 C567 0.950 . S
H591 C569 0.950 . S
C592 C593 1.349 . S
C592 C594 1.327 . S
C592 H617 0.950 . S
C593 C592 1.349 . S
C593 C609 1.349 . S
C594 C592 1.327 . S
C594 C613 1.429 . S
C594 H618 0.950 . S
C595 C612 1.574 . S
C595 C614 1.368 . S
C595 H619 0.949 . S
H596 C600 0.949 . S
C597 C598 1.349 . S
C597 C599 1.327 . S
C597 H620 0.950 . S
C598 C597 1.349 . S
C598 C610 1.349 . S
C599 C597 1.327 . S
C599 C615 1.429 . S
C599 H621 0.950 . S
C600 H596 0.949 . S
C600 C608 1.574 . S
C600 C616 1.368 . S
H601 C609 0.950 . S
H602 C607 0.950 . S
H603 C608 0.949 . S
H604 C610 0.950 . S
H605 C611 0.950 . S
H606 C612 0.949 . S
C607 H602 0.950 . S
C607 C609 1.327 . S
C607 C613 1.429 . S
C608 C600 1.574 . S
C608 H603 0.949 . S
C608 C614 1.368 . S
C609 C593 1.349 . S
C609 H601 0.950 . S
C609 C607 1.327 . S
C610 C598 1.349 . S
C610 H604 0.950 . S
C610 C611 1.327 . S
C611 H605 0.950 . S
C611 C610 1.327 . S
C611 C615 1.429 . S
C612 C595 1.574 . S
C612 H606 0.949 . S
C612 C616 1.368 . S
C613 C594 1.429 . S
C613 C607 1.429 . S
C613 C614 1.523 . S
C614 C595 1.368 . S
C614 C608 1.368 . S
C614 C613 1.523 . S
C615 C599 1.429 . S
C615 C611 1.429 . S
C615 C616 1.523 . S
C616 C600 1.368 . S
C616 C612 1.368 . S
C616 C615 1.523 . S
H617 C592 0.950 . S
H618 C594 0.950 . S
H619 C595 0.949 . S
H620 C597 0.950 . S
H621 C599 0.950 . S
C622 C623 1.349 . S
C622 C624 1.327 . S
C622 H647 0.950 . S
C623 C622 1.349 . S
C623 C639 1.349 . S
C624 C622 1.327 . S
C624 C643 1.429 . S
C624 H648 0.950 . S
C625 C642 1.574 . S
C625 C644 1.368 . S
C625 H649 0.949 . S
H626 C630 0.949 . S
C627 C628 1.349 . S
C627 C629 1.327 . S
C627 H650 0.950 . S
C628 C627 1.349 . S
C628 C640 1.349 . S
C629 C627 1.327 . S
C629 C645 1.429 . S
C629 H651 0.950 . S
C630 H626 0.949 . S
C630 C638 1.574 . S
C630 C646 1.368 . S
H631 C639 0.950 . S
H632 C637 0.950 . S
H633 C638 0.949 . S
H634 C640 0.950 . S
H635 C641 0.950 . S
H636 C642 0.949 . S
C637 H632 0.950 . S
C637 C639 1.327 . S
C637 C643 1.429 . S
C638 C630 1.574 . S
C638 H633 0.949 . S
C638 C644 1.368 . S
C639 C623 1.349 . S
C639 H631 0.950 . S
C639 C637 1.327 . S
C640 C628 1.349 . S
C640 H634 0.950 . S
C640 C641 1.327 . S
C641 H635 0.950 . S
C641 C640 1.327 . S
C641 C645 1.429 . S
C642 C625 1.574 . S
C642 H636 0.949 . S
C642 C646 1.368 . S
C643 C624 1.429 . S
C643 C637 1.429 . S
C643 C644 1.523 . S
C644 C625 1.368 . S
C644 C638 1.368 . S
C644 C643 1.523 . S
C645 C629 1.429 . S
C645 C641 1.429 . S
C645 C646 1.523 . S
C646 C630 1.368 . S
C646 C642 1.368 . S
C646 C645 1.523 . S
H647 C622 0.950 . S
H648 C624 0.950 . S
H649 C625 0.949 . S
H650 C627 0.950 . S
H651 C629 0.950 . S
C652 C653 1.349 . S
C652 C654 1.327 . S
C652 H677 0.950 . S
C653 C652 1.349 . S
C653 C669 1.349 . S
C654 C652 1.327 . S
C654 C673 1.429 . S
C654 H678 0.950 . S
C655 C672 1.574 . S
C655 C674 1.368 . S
C655 H679 0.949 . S
H656 C660 0.949 . S
C657 C658 1.349 . S
C657 C659 1.327 . S
C657 H680 0.950 . S
C658 C657 1.349 . S
C658 C670 1.349 . S
C659 C657 1.327 . S
C659 C675 1.429 . S
C659 H681 0.950 . S
C660 H656 0.949 . S
C660 C668 1.574 . S
C660 C676 1.368 . S
H661 C669 0.950 . S
H662 C667 0.950 . S
H663 C668 0.949 . S
H664 C670 0.950 . S
H665 C671 0.950 . S
H666 C672 0.949 . S
C667 H662 0.950 . S
C667 C669 1.327 . S
C667 C673 1.429 . S
C668 C660 1.574 . S
C668 H663 0.949 . S
C668 C674 1.368 . S
C669 C653 1.349 . S
C669 H661 0.950 . S
C669 C667 1.327 . S
C670 C658 1.349 . S
C670 H664 0.950 . S
C670 C671 1.327 . S
C671 H665 0.950 . S
C671 C670 1.327 . S
C671 C675 1.429 . S
C672 C655 1.574 . S
C672 H666 0.949 . S
C672 C676 1.368 . S
C673 C654 1.429 . S
C673 C667 1.429 . S
C673 C674 1.523 . S
C674 C655 1.368 . S
C674 C668 1.368 . S
C674 C673 1.523 . S
C675 C659 1.429 . S
C675 C671 1.429 . S
C675 C676 1.523 . S
C676 C660 1.368 . S
C676 C672 1.368 . S
C676 C675 1.523 . S
H677 C652 0.950 . S
H678 C654 0.950 . S
H679 C655 0.949 . S
H680 C657 0.950 . S
H681 C659 0.950 . S
C682 C683 1.349 . S
C682 C684 1.327 . S
C682 H707 0.950 . S
C683 C682 1.349 . S
C683 C699 1.349 . S
C684 C682 1.327 . S
C684 C703 1.429 . S
C684 H708 0.950 . S
C685 C702 1.574 . S
C685 C704 1.368 . S
C685 H709 0.949 . S
H686 C690 0.949 . S
C687 C688 1.349 . S
C687 C689 1.327 . S
C687 H710 0.950 . S
C688 C687 1.349 . S
C688 C700 1.349 . S
C689 C687 1.327 . S
C689 C705 1.429 . S
C689 H711 0.950 . S
C690 H686 0.949 . S
C690 C698 1.574 . S
C690 C706 1.368 . S
H691 C699 0.950 . S
H692 C697 0.950 . S
H693 C698 0.949 . S
H694 C700 0.950 . S
H695 C701 0.950 . S
H696 C702 0.949 . S
C697 H692 0.950 . S
C697 C699 1.327 . S
C697 C703 1.429 . S
C698 C690 1.574 . S
C698 H693 0.949 . S
C698 C704 1.368 . S
C699 C683 1.349 . S
C699 H691 0.950 . S
C699 C697 1.327 . S
C700 C688 1.349 . S
C700 H694 0.950 . S
C700 C701 1.327 . S
C701 H695 0.950 . S
C701 C700 1.327 . S
C701 C705 1.429 . S
C702 C685 1.574 . S
C702 H696 0.949 . S
C702 C706 1.368 . S
C703 C684 1.429 . S
C703 C697 1.429 . S
C703 C704 1.523 . S
C704 C685 1.368 . S
C704 C698 1.368 . S
C704 C703 1.523 . S
C705 C689 1.429 . S
C705 C701 1.429 . S
C705 C706 1.523 . S
C706 C690 1.368 . S
C706 C702 1.368 . S
C706 C705 1.523 . S
H707 C682 0.950 . S
H708 C684 0.950 . S
H709 C685 0.949 . S
H710 C687 0.950 . S
H711 C689 0.950 . S
C712 C713 1.349 . S
C712 C714 1.327 . S
C712 H737 0.950 . S
C713 C712 1.349 . S
C713 C729 1.349 . S
C714 C712 1.327 . S
C714 C733 1.429 . S
C714 H738 0.950 . S
C715 C732 1.574 . S
C715 C734 1.368 . S
C715 H739 0.949 . S
H716 C720 0.949 . S
C717 C718 1.349 . S
C717 C719 1.327 . S
C717 H740 0.950 . S
C718 C717 1.349 . S
C718 C730 1.349 . S
C719 C717 1.327 . S
C719 C735 1.429 . S
C719 H741 0.950 . S
C720 H716 0.949 . S
C720 C728 1.574 . S
C720 C736 1.368 . S
H721 C729 0.950 . S
H722 C727 0.950 . S
H723 C728 0.949 . S
H724 C730 0.950 . S
H725 C731 0.950 . S
H726 C732 0.949 . S
C727 H722 0.950 . S
C727 C729 1.327 . S
C727 C733 1.429 . S
C728 C720 1.574 . S
C728 H723 0.949 . S
C728 C734 1.368 . S
C729 C713 1.349 . S
C729 H721 0.950 . S
C729 C727 1.327 . S
C730 C718 1.349 . S
C730 H724 0.950 . S
C730 C731 1.327 . S
C731 H725 0.950 . S
C731 C730 1.327 . S
C731 C735 1.429 . S
C732 C715 1.574 . S
C732 H726 0.949 . S
C732 C736 1.368 . S
C733 C714 1.429 . S
C733 C727 1.429 . S
C733 C734 1.523 . S
C734 C715 1.368 . S
C734 C728 1.368 . S
C734 C733 1.523 . S
C735 C719 1.429 . S
C735 C731 1.429 . S
C735 C736 1.523 . S
C736 C720 1.368 . S
C736 C732 1.368 . S
C736 C735 1.523 . S
H737 C712 0.950 . S
H738 C714 0.950 . S
H739 C715 0.949 . S
H740 C717 0.950 . S
H741 C719 0.950 . S
C742 C743 1.349 . S
C742 C744 1.327 . S
C742 H767 0.950 . S
C743 C742 1.349 . S
C743 C759 1.349 . S
C744 C742 1.327 . S
C744 C763 1.429 . S
C744 H768 0.950 . S
C745 C762 1.574 . S
C745 C764 1.368 . S
C745 H769 0.949 . S
H746 C750 0.949 . S
C747 C748 1.349 . S
C747 C749 1.327 . S
C747 H770 0.950 . S
C748 C747 1.349 . S
C748 C760 1.349 . S
C749 C747 1.327 . S
C749 C765 1.429 . S
C749 H771 0.950 . S
C750 H746 0.949 . S
C750 C758 1.574 . S
C750 C766 1.368 . S
H751 C759 0.950 . S
H752 C757 0.950 . S
H753 C758 0.949 . S
H754 C760 0.950 . S
H755 C761 0.950 . S
H756 C762 0.949 . S
C757 H752 0.950 . S
C757 C759 1.327 . S
C757 C763 1.429 . S
C758 C750 1.574 . S
C758 H753 0.949 . S
C758 C764 1.368 . S
C759 C743 1.349 . S
C759 H751 0.950 . S
C759 C757 1.327 . S
C760 C748 1.349 . S
C760 H754 0.950 . S
C760 C761 1.327 . S
C761 H755 0.950 . S
C761 C760 1.327 . S
C761 C765 1.429 . S
C762 C745 1.574 . S
C762 H756 0.949 . S
C762 C766 1.368 . S
C763 C744 1.429 . S
C763 C757 1.429 . S
C763 C764 1.523 . S
C764 C745 1.368 . S
C764 C758 1.368 . S
C764 C763 1.523 . S
C765 C749 1.429 . S
C765 C761 1.429 . S
C765 C766 1.523 . S
C766 C750 1.368 . S
C766 C762 1.368 . S
C766 C765 1.523 . S
H767 C742 0.950 . S
H768 C744 0.950 . S
H769 C745 0.949 . S
H770 C747 0.950 . S
H771 C749 0.950 . S
C772 C773 1.349 . S
C772 C774 1.327 . S
C772 H797 0.950 . S
C773 C772 1.349 . S
C773 C789 1.349 . S
C774 C772 1.327 . S
C774 C793 1.429 . S
C774 H798 0.950 . S
C775 C792 1.574 . S
C775 C794 1.368 . S
C775 H799 0.949 . S
H776 C780 0.949 . S
C777 C778 1.349 . S
C777 C779 1.327 . S
C777 H800 0.950 . S
C778 C777 1.349 . S
C778 C790 1.349 . S
C779 C777 1.327 . S
C779 C795 1.429 . S
C779 H801 0.950 . S
C780 H776 0.949 . S
C780 C788 1.574 . S
C780 C796 1.368 . S
H781 C789 0.950 . S
H782 C787 0.950 . S
H783 C788 0.949 . S
H784 C790 0.950 . S
H785 C791 0.950 . S
H786 C792 0.949 . S
C787 H782 0.950 . S
C787 C789 1.327 . S
C787 C793 1.429 . S
C788 C780 1.574 . S
C788 H783 0.949 . S
C788 C794 1.368 . S
C789 C773 1.349 . S
C789 H781 0.950 . S
C789 C787 1.327 . S
C790 C778 1.349 . S
C790 H784 0.950 . S
C790 C791 1.327 . S
C791 H785 0.950 . S
C791 C790 1.327 . S
C791 C795 1.429 . S
C792 C775 1.574 . S
C792 H786 0.949 . S
C792 C796 1.368 . S
C793 C774 1.429 . S
C793 C787 1.429 . S
C793 C794 1.523 . S
C794 C775 1.368 . S
C794 C788 1.368 . S
C794 C793 1.523 . S
C795 C779 1.429 . S
C795 C791 1.429 . S
C795 C796 1.523 . S
C796 C780 1.368 . S
C796 C792 1.368 . S
C796 C795 1.523 . S
H797 C772 0.950 . S
H798 C774 0.950 . S
H799 C775 0.949 . S
H800 C777 0.950 . S
H801 C779 0.950 . S
C802 C803 1.349 . S
C802 C804 1.327 . S
C802 H827 0.950 . S
C803 C802 1.349 . S
C803 C819 1.349 . S
C804 C802 1.327 . S
C804 C823 1.429 . S
C804 H828 0.950 . S
C805 C822 1.574 . S
C805 C824 1.368 . S
C805 H829 0.949 . S
H806 C810 0.949 . S
C807 C808 1.349 . S
C807 C809 1.327 . S
C807 H830 0.950 . S
C808 C807 1.349 . S
C808 C820 1.349 . S
C809 C807 1.327 . S
C809 C825 1.429 . S
C809 H831 0.950 . S
C810 H806 0.949 . S
C810 C818 1.574 . S
C810 C826 1.368 . S
H811 C819 0.950 . S
H812 C817 0.950 . S
H813 C818 0.949 . S
H814 C820 0.950 . S
H815 C821 0.950 . S
H816 C822 0.949 . S
C817 H812 0.950 . S
C817 C819 1.327 . S
C817 C823 1.429 . S
C818 C810 1.574 . S
C818 H813 0.949 . S
C818 C824 1.368 . S
C819 C803 1.349 . S
C819 H811 0.950 . S
C819 C817 1.327 . S
C820 C808 1.349 . S
C820 H814 0.950 . S
C820 C821 1.327 . S
C821 H815 0.950 . S
C821 C820 1.327 . S
C821 C825 1.429 . S
C822 C805 1.574 . S
C822 H816 0.949 . S
C822 C826 1.368 . S
C823 C804 1.429 . S
C823 C817 1.429 . S
C823 C824 1.523 . S
C824 C805 1.368 . S
C824 C818 1.368 . S
C824 C823 1.523 . S
C825 C809 1.429 . S
C825 C821 1.429 . S
C825 C826 1.523 . S
C826 C810 1.368 . S
C826 C822 1.368 . S
C826 C825 1.523 . S
H827 C802 0.950 . S
H828 C804 0.950 . S
H829 C805 0.949 . S
H830 C807 0.950 . S
H831 C809 0.950 . S
C832 C833 1.349 . S
C832 C834 1.327 . S
C832 H857 0.950 . S
C833 C832 1.349 . S
C833 C849 1.349 . S
C834 C832 1.327 . S
C834 C853 1.429 . S
C834 H858 0.950 . S
C835 C852 1.574 . S
C835 C854 1.368 . S
C835 H859 0.949 . S
H836 C840 0.949 . S
C837 C838 1.349 . S
C837 C839 1.327 . S
C837 H860 0.950 . S
C838 C837 1.349 . S
C838 C850 1.349 . S
C839 C837 1.327 . S
C839 C855 1.429 . S
C839 H861 0.950 . S
C840 H836 0.949 . S
C840 C848 1.574 . S
C840 C856 1.368 . S
H841 C849 0.950 . S
H842 C847 0.950 . S
H843 C848 0.949 . S
H844 C850 0.950 . S
H845 C851 0.950 . S
H846 C852 0.949 . S
C847 H842 0.950 . S
C847 C849 1.327 . S
C847 C853 1.429 . S
C848 C840 1.574 . S
C848 H843 0.949 . S
C848 C854 1.368 . S
C849 C833 1.349 . S
C849 H841 0.950 . S
C849 C847 1.327 . S
C850 C838 1.349 . S
C850 H844 0.950 . S
C850 C851 1.327 . S
C851 H845 0.950 . S
C851 C850 1.327 . S
C851 C855 1.429 . S
C852 C835 1.574 . S
C852 H846 0.949 . S
C852 C856 1.368 . S
C853 C834 1.429 . S
C853 C847 1.429 . S
C853 C854 1.523 . S
C854 C835 1.368 . S
C854 C848 1.368 . S
C854 C853 1.523 . S
C855 C839 1.429 . S
C855 C851 1.429 . S
C855 C856 1.523 . S
C856 C840 1.368 . S
C856 C852 1.368 . S
C856 C855 1.523 . S
H857 C832 0.950 . S
H858 C834 0.950 . S
H859 C835 0.949 . S
H860 C837 0.950 . S
H861 C839 0.950 . S
C862 C863 1.349 . S
C862 C864 1.327 . S
C862 H887 0.950 . S
C863 C862 1.349 . S
C863 C879 1.349 . S
C864 C862 1.327 . S
C864 C883 1.429 . S
C864 H888 0.950 . S
C865 C882 1.574 . S
C865 C884 1.368 . S
C865 H889 0.949 . S
H866 C870 0.949 . S
C867 C868 1.349 . S
C867 C869 1.327 . S
C867 H890 0.950 . S
C868 C867 1.349 . S
C868 C880 1.349 . S
C869 C867 1.327 . S
C869 C885 1.429 . S
C869 H891 0.950 . S
C870 H866 0.949 . S
C870 C878 1.574 . S
C870 C886 1.368 . S
H871 C879 0.950 . S
H872 C877 0.950 . S
H873 C878 0.949 . S
H874 C880 0.950 . S
H875 C881 0.950 . S
H876 C882 0.949 . S
C877 H872 0.950 . S
C877 C879 1.327 . S
C877 C883 1.429 . S
C878 C870 1.574 . S
C878 H873 0.949 . S
C878 C884 1.368 . S
C879 C863 1.349 . S
C879 H871 0.950 . S
C879 C877 1.327 . S
C880 C868 1.349 . S
C880 H874 0.950 . S
C880 C881 1.327 . S
C881 H875 0.950 . S
C881 C880 1.327 . S
C881 C885 1.429 . S
C882 C865 1.574 . S
C882 H876 0.949 . S
C882 C886 1.368 . S
C883 C864 1.429 . S
C883 C877 1.429 . S
C883 C884 1.523 . S
C884 C865 1.368 . S
C884 C878 1.368 . S
C884 C883 1.523 . S
C885 C869 1.429 . S
C885 C881 1.429 . S
C885 C886 1.523 . S
C886 C870 1.368 . S
C886 C882 1.368 . S
C886 C885 1.523 . S
H887 C862 0.950 . S
H888 C864 0.950 . S
H889 C865 0.949 . S
H890 C867 0.950 . S
H891 C869 0.950 . S
C892 C893 1.349 . S
C892 C894 1.327 . S
C892 H917 0.950 . S
C893 C892 1.349 . S
C893 C909 1.349 . S
C894 C892 1.327 . S
C894 C913 1.429 . S
C894 H918 0.950 . S
C895 C912 1.574 . S
C895 C914 1.368 . S
C895 H919 0.949 . S
H896 C900 0.949 . S
C897 C898 1.349 . S
C897 C899 1.327 . S
C897 H920 0.950 . S
C898 C897 1.349 . S
C898 C910 1.349 . S
C899 C897 1.327 . S
C899 C915 1.429 . S
C899 H921 0.950 . S
C900 H896 0.949 . S
C900 C908 1.574 . S
C900 C916 1.368 . S
H901 C909 0.950 . S
H902 C907 0.950 . S
H903 C908 0.949 . S
H904 C910 0.950 . S
H905 C911 0.950 . S
H906 C912 0.949 . S
C907 H902 0.950 . S
C907 C909 1.327 . S
C907 C913 1.429 . S
C908 C900 1.574 . S
C908 H903 0.949 . S
C908 C914 1.368 . S
C909 C893 1.349 . S
C909 H901 0.950 . S
C909 C907 1.327 . S
C910 C898 1.349 . S
C910 H904 0.950 . S
C910 C911 1.327 . S
C911 H905 0.950 . S
C911 C910 1.327 . S
C911 C915 1.429 . S
C912 C895 1.574 . S
C912 H906 0.949 . S
C912 C916 1.368 . S
C913 C894 1.429 . S
C913 C907 1.429 . S
C913 C914 1.523 . S
C914 C895 1.368 . S
C914 C908 1.368 . S
C914 C913 1.523 . S
C915 C899 1.429 . S
C915 C911 1.429 . S
C915 C916 1.523 . S
C916 C900 1.368 . S
C916 C912 1.368 . S
C916 C915 1.523 . S
H917 C892 0.950 . S
H918 C894 0.950 . S
H919 C895 0.949 . S
H920 C897 0.950 . S
H921 C899 0.950 . S
C922 C923 1.349 . S
C922 C924 1.327 . S
C922 H947 0.950 . S
C923 C922 1.349 . S
C923 C939 1.349 . S
C924 C922 1.327 . S
C924 C943 1.429 . S
C924 H948 0.950 . S
C925 C942 1.574 . S
C925 C944 1.368 . S
C925 H949 0.949 . S
H926 C930 0.949 . S
C927 C928 1.349 . S
C927 C929 1.327 . S
C927 H950 0.950 . S
C928 C927 1.349 . S
C928 C940 1.349 . S
C929 C927 1.327 . S
C929 C945 1.429 . S
C929 H951 0.950 . S
C930 H926 0.949 . S
C930 C938 1.574 . S
C930 C946 1.368 . S
H931 C939 0.950 . S
H932 C937 0.950 . S
H933 C938 0.949 . S
H934 C940 0.950 . S
H935 C941 0.950 . S
H936 C942 0.949 . S
C937 H932 0.950 . S
C937 C939 1.327 . S
C937 C943 1.429 . S
C938 C930 1.574 . S
C938 H933 0.949 . S
C938 C944 1.368 . S
C939 C923 1.349 . S
C939 H931 0.950 . S
C939 C937 1.327 . S
C940 C928 1.349 . S
C940 H934 0.950 . S
C940 C941 1.327 . S
C941 H935 0.950 . S
C941 C940 1.327 . S
C941 C945 1.429 . S
C942 C925 1.574 . S
C942 H936 0.949 . S
C942 C946 1.368 . S
C943 C924 1.429 . S
C943 C937 1.429 . S
C943 C944 1.523 . S
C944 C925 1.368 . S
C944 C938 1.368 . S
C944 C943 1.523 . S
C945 C929 1.429 . S
C945 C941 1.429 . S
C945 C946 1.523 . S
C946 C930 1.368 . S
C946 C942 1.368 . S
C946 C945 1.523 . S
H947 C922 0.950 . S
H948 C924 0.950 . S
H949 C925 0.949 . S
H950 C927 0.950 . S
H951 C929 0.950 . S
C233 C5 1.002 . S
C238 C89 1.012 . S
C263 C14 0.983 . S
C268 C129 0.997 . S
C298 C154 2.372 . S
C293 C25 2.428 . S
C323 C34 2.423 . S
C328 C194 2.368 . S
C358 C125 1.548 . S
C353 C7 1.517 . S
C388 C85 1.573 . S
C383 C13 1.539 . S
C418 C216 1.636 . S
C413 C23 1.658 . S
C448 C176 1.635 . S
C443 C31 1.656 . S
C473 C4 1.130 . S
C478 C218 1.142 . S
C508 C135 2.120 . S
C503 C22 2.154 . S
C533 C32 2.169 . S
C538 C95 2.135 . S
C563 C16 1.116 . S
C568 C178 1.133 . S
C598 C98 0.999 . S
C593 C41 0.989 . S
C623 C50 0.993 . S
C628 C138 1.006 . S
C653 C61 2.420 . S
C658 C175 2.366 . S
C683 C67 2.435 . S
C688 C215 2.380 . S
C713 C40 1.541 . S
C718 C136 1.571 . S
C748 C96 1.548 . S
C743 C52 1.510 . S
C778 C205 1.645 . S
C773 C59 1.666 . S
C808 C165 1.630 . S
C803 C70 1.650 . S
C833 C43 1.124 . S
C838 C209 1.137 . S
C868 C114 2.135 . S
C863 C58 2.169 . S
C898 C74 2.115 . S
C893 C68 2.146 . S
C923 C49 1.126 . S
C928 C169 1.140 . S
