# Generated by pormake.
# Topology pto, (3,4)-cn, num edge types: 1
# Building blocks:
#     Node 0, Type 0, BuildingBlock: VETTIZ_charged_linker_0, # of connection points: 3
#     Node 1, Type 0, BuildingBlock: VETTIZ_charged_linker_0, # of connection points: 3
#     Node 2, Type 0, BuildingBlock: VETTIZ_charged_linker_0, # of connection points: 3
#     Node 3, Type 0, BuildingBlock: VETTIZ_charged_linker_0, # of connection points: 3
#     Node 4, Type 0, BuildingBlock: VETTIZ_charged_linker_0, # of connection points: 3
#     Node 5, Type 0, BuildingBlock: VETTIZ_charged_linker_0, # of connection points: 3
#     Node 6, Type 0, BuildingBlock: VETTIZ_charged_linker_0, # of connection points: 3
#     Node 7, Type 0, BuildingBlock: VETTIZ_charged_linker_0, # of connection points: 3
#     Node 8, Type 1, BuildingBlock: NAWXER_clean_sbu_0, # of connection points: 4
#     Node 9, Type 1, BuildingBlock: NAWXER_clean_sbu_0, # of connection points: 4
#     Node 10, Type 1, BuildingBlock: NAWXER_clean_sbu_0, # of connection points: 4
#     Node 11, Type 1, BuildingBlock: NAWXER_clean_sbu_0, # of connection points: 4
#     Node 12, Type 1, BuildingBlock: NAWXER_clean_sbu_0, # of connection points: 4
#     Node 13, Type 1, BuildingBlock: NAWXER_clean_sbu_0, # of connection points: 4
#     Edge 14, Type (0, 1), BuildingBlock: OJICUG_clean_linker_0, # of connection points: 2
#     Edge 15, Type (0, 1), BuildingBlock: OJICUG_clean_linker_0, # of connection points: 2
#     Edge 16, Type (0, 1), BuildingBlock: OJICUG_clean_linker_0, # of connection points: 2
#     Edge 17, Type (0, 1), BuildingBlock: OJICUG_clean_linker_0, # of connection points: 2
#     Edge 18, Type (0, 1), BuildingBlock: OJICUG_clean_linker_0, # of connection points: 2
#     Edge 19, Type (0, 1), BuildingBlock: OJICUG_clean_linker_0, # of connection points: 2
#     Edge 20, Type (0, 1), BuildingBlock: OJICUG_clean_linker_0, # of connection points: 2
#     Edge 21, Type (0, 1), BuildingBlock: OJICUG_clean_linker_0, # of connection points: 2
#     Edge 22, Type (0, 1), BuildingBlock: OJICUG_clean_linker_0, # of connection points: 2
#     Edge 23, Type (0, 1), BuildingBlock: OJICUG_clean_linker_0, # of connection points: 2
#     Edge 24, Type (0, 1), BuildingBlock: OJICUG_clean_linker_0, # of connection points: 2
#     Edge 25, Type (0, 1), BuildingBlock: OJICUG_clean_linker_0, # of connection points: 2
#     Edge 26, Type (0, 1), BuildingBlock: OJICUG_clean_linker_0, # of connection points: 2
#     Edge 27, Type (0, 1), BuildingBlock: OJICUG_clean_linker_0, # of connection points: 2
#     Edge 28, Type (0, 1), BuildingBlock: OJICUG_clean_linker_0, # of connection points: 2
#     Edge 29, Type (0, 1), BuildingBlock: OJICUG_clean_linker_0, # of connection points: 2
#     Edge 30, Type (0, 1), BuildingBlock: OJICUG_clean_linker_0, # of connection points: 2
#     Edge 31, Type (0, 1), BuildingBlock: OJICUG_clean_linker_0, # of connection points: 2
#     Edge 32, Type (0, 1), BuildingBlock: OJICUG_clean_linker_0, # of connection points: 2
#     Edge 33, Type (0, 1), BuildingBlock: OJICUG_clean_linker_0, # of connection points: 2
#     Edge 34, Type (0, 1), BuildingBlock: OJICUG_clean_linker_0, # of connection points: 2
#     Edge 35, Type (0, 1), BuildingBlock: OJICUG_clean_linker_0, # of connection points: 2
#     Edge 36, Type (0, 1), BuildingBlock: OJICUG_clean_linker_0, # of connection points: 2
#     Edge 37, Type (0, 1), BuildingBlock: OJICUG_clean_linker_0, # of connection points: 2
# Relax obj value: 0.000
# Max RMSD: 0.000
# Mean RMSD: 0.000
data_MOF--net-pto--node1-NAWXER_clean_sbu_0--node2-VETTIZ_charged_linker_0--edge1-OJICUG_clean_linker_0
_symmetry_space_group_name_H-M    P1
_symmetry_Int_Tables_number       1
_symmetry_cell_setting            triclinic
loop_
_symmetry_equiv_pos_as_xyz
'x, y, z'
_cell_length_a     41.1202
_cell_length_b     38.771068
_cell_length_c     36.378467
_cell_angle_alpha  89.970497
_cell_angle_beta   89.918331
_cell_angle_gamma 89.900665
loop_
_atom_site_label
_atom_site_type_symbol
_atom_site_fract_x
_atom_site_fract_y
_atom_site_fract_z
_atom_type_partial_charge
C0 C 0.21537 0.18451 0.34244 0.0
C1 C 0.23579 0.1556 0.33787 0.0
C2 C 0.2608 0.15715 0.31126 0.0
C3 C 0.24708 0.21641 0.29733 0.0
C4 C 0.22139 0.21449 0.32179 0.0
C5 C 0.20227 0.24766 0.32305 0.0
H6 H 0.17819 0.40945 0.25821 0.0
C7 C 0.24779 0.25153 0.28158 0.0
C8 C 0.2214 0.26993 0.29623 0.0
H9 H 0.11819 0.35217 0.33442 0.0
H10 H 0.15701 0.30538 0.33395 0.0
H11 H 0.19327 0.34756 0.20471 0.0
H12 H 0.24858 0.38722 0.29603 0.0
H13 H 0.2758 0.37784 0.26009 0.0
H14 H 0.24482 0.41024 0.25342 0.0
H15 H 0.21342 0.38859 0.20308 0.0
H16 H 0.23443 0.34922 0.19164 0.0
C17 C 0.16743 0.24001 0.30905 0.0
C18 C 0.20376 0.26206 0.36271 0.0
C19 C 0.33917 0.2848 0.1946 0.0
C20 C 0.34622 0.31464 0.174 0.0
C21 C 0.32579 0.3437 0.17812 0.0
C22 C 0.29853 0.34265 0.20154 0.0
C23 C 0.29143 0.31217 0.22104 0.0
C24 C 0.31177 0.28401 0.2174 0.0
C25 C 0.30024 0.25339 0.23914 0.0
C26 C 0.26978 0.26787 0.25698 0.0
C27 C 0.26469 0.30232 0.24641 0.0
C28 C 0.29243 0.22371 0.2119 0.0
C29 C 0.32669 0.24453 0.26794 0.0
C30 C 0.17347 0.38686 0.2749 0.0
C31 C 0.14488 0.3844 0.29611 0.0
C32 C 0.14003 0.35483 0.31798 0.0
C33 C 0.16243 0.32748 0.31731 0.0
C34 C 0.18999 0.32963 0.29447 0.0
C35 C 0.19551 0.3593 0.27437 0.0
C36 C 0.22601 0.35702 0.25154 0.0
C37 C 0.23738 0.32069 0.26036 0.0
C38 C 0.2161 0.30473 0.28545 0.0
C39 C 0.21659 0.361 0.21053 0.0
C40 C 0.25016 0.38459 0.26562 0.0
H41 H 0.2865 0.18686 0.27215 0.0
H42 H 0.19585 0.18429 0.36245 0.0
H43 H 0.22829 0.25786 0.37481 0.0
H44 H 0.19978 0.2902 0.364 0.0
H45 H 0.18574 0.24907 0.38078 0.0
H46 H 0.16776 0.21982 0.28733 0.0
H47 H 0.1516 0.23062 0.33169 0.0
H48 H 0.15582 0.26251 0.29585 0.0
H49 H 0.35449 0.26212 0.19279 0.0
H50 H 0.33032 0.36696 0.16245 0.0
H51 H 0.2837 0.36541 0.20307 0.0
H52 H 0.28634 0.23376 0.18409 0.0
H53 H 0.31345 0.20591 0.20877 0.0
H54 H 0.27073 0.20872 0.22017 0.0
H55 H 0.3363 0.26844 0.28084 0.0
H56 H 0.3175 0.22874 0.29092 0.0
H57 H 0.34746 0.23081 0.25493 0.0
H58 H 0.27633 0.13506 0.30623 0.0
C59 C 0.26665 0.18731 0.29127 0.0
C60 C 0.16991 0.6649 0.80495 0.0
C61 C 0.14118 0.66105 0.78445 0.0
C62 C 0.13224 0.68715 0.75939 0.0
C63 C 0.18165 0.71849 0.77279 0.0
C64 C 0.1898 0.69372 0.79856 0.0
C65 C 0.22218 0.70096 0.8162 0.0
H66 H 0.36003 0.79645 0.82246 0.0
C67 C 0.20841 0.74381 0.77082 0.0
C68 C 0.23217 0.73388 0.79645 0.0
H69 H 0.33499 0.70716 0.88786 0.0
H70 H 0.28246 0.70444 0.85883 0.0
H71 H 0.29061 0.83428 0.83012 0.0
H72 H 0.33099 0.76764 0.74725 0.0
H73 H 0.31057 0.80116 0.72443 0.0
H74 H 0.34439 0.81122 0.75392 0.0
H75 H 0.3202 0.84915 0.7975 0.0
H76 H 0.27717 0.85019 0.78756 0.0
C77 C 0.21648 0.70708 0.85779 0.0
C78 C 0.24532 0.67049 0.80724 0.0
C79 C 0.20698 0.83705 0.67208 0.0
C80 C 0.22988 0.86212 0.66173 0.0
C81 C 0.25781 0.86684 0.68363 0.0
C82 C 0.2637 0.84592 0.71423 0.0
C83 C 0.2416 0.81966 0.72309 0.0
C84 C 0.21341 0.81604 0.70274 0.0
C85 C 0.19289 0.78654 0.71631 0.0
C86 C 0.21371 0.7728 0.74765 0.0
C87 C 0.24235 0.79215 0.75121 0.0
C88 C 0.1601 0.80137 0.73027 0.0
C89 C 0.18972 0.76005 0.68462 0.0
C90 C 0.34309 0.77654 0.83077 0.0
C91 C 0.35188 0.75178 0.85724 0.0
C92 C 0.32912 0.72616 0.86705 0.0
C93 C 0.29851 0.7247 0.85027 0.0
C94 C 0.29041 0.749 0.82314 0.0
C95 C 0.31239 0.77459 0.81408 0.0
C96 C 0.29963 0.79801 0.78441 0.0
C97 C 0.26641 0.78226 0.77722 0.0
C98 C 0.26124 0.75341 0.79984 0.0
C99 C 0.29689 0.83496 0.80037 0.0
C100 C 0.32252 0.79473 0.75068 0.0
H101 H 0.14423 0.73442 0.73369 0.0
H102 H 0.17747 0.6452 0.82428 0.0
H103 H 0.24128 0.66105 0.77872 0.0
H104 H 0.27125 0.67762 0.80813 0.0
H105 H 0.24115 0.64848 0.82622 0.0
H106 H 0.19272 0.72008 0.86272 0.0
H107 H 0.21627 0.68233 0.87318 0.0
H108 H 0.23471 0.72447 0.8701 0.0
H109 H 0.18535 0.83281 0.65574 0.0
H110 H 0.27553 0.8864 0.67652 0.0
H111 H 0.28569 0.85048 0.72926 0.0
H112 H 0.16319 0.82788 0.74142 0.0
H113 H 0.14193 0.80279 0.70776 0.0
H114 H 0.14984 0.78638 0.75339 0.0
H115 H 0.21315 0.75742 0.66952 0.0
H116 H 0.18394 0.73377 0.69416 0.0
H117 H 0.17092 0.76829 0.66453 0.0
H118 H 0.10995 0.68501 0.74371 0.0
C119 C 0.15219 0.71583 0.75358 0.0
C120 C 0.83844 0.69093 0.28204 0.0
C121 C 0.84455 0.66493 0.25589 0.0
C122 C 0.82299 0.6614 0.22594 0.0
C123 C 0.79105 0.70994 0.24746 0.0
C124 C 0.81165 0.71301 0.27729 0.0
C125 C 0.80184 0.74228 0.30216 0.0
H126 H 0.69726 0.87258 0.34156 0.0
C127 C 0.76601 0.73726 0.25012 0.0
C128 C 0.77208 0.75621 0.28227 0.0
H129 H 0.78346 0.84159 0.40142 0.0
H130 H 0.79332 0.7963 0.35781 0.0
H131 H 0.67149 0.79585 0.32165 0.0
H132 H 0.73099 0.86947 0.26432 0.0
H133 H 0.70719 0.84921 0.23076 0.0
H134 H 0.68761 0.87375 0.26672 0.0
H135 H 0.65576 0.83524 0.30268 0.0
H136 H 0.65869 0.79645 0.27556 0.0
C137 C 0.79303 0.72691 0.3402 0.0
C138 C 0.82994 0.76887 0.30293 0.0
C139 C 0.6802 0.74956 0.15018 0.0
C140 C 0.65368 0.77219 0.14543 0.0
C141 C 0.64806 0.79794 0.17207 0.0
C142 C 0.66819 0.8009 0.20295 0.0
C143 C 0.69434 0.77788 0.20744 0.0
C144 C 0.70005 0.75281 0.18126 0.0
C145 C 0.72881 0.73045 0.1908 0.0
C146 C 0.73955 0.74643 0.22692 0.0
C147 C 0.71921 0.77415 0.23648 0.0
C148 C 0.71665 0.69292 0.19594 0.0
C149 C 0.75475 0.73492 0.16027 0.0
C150 C 0.71833 0.85617 0.34533 0.0
C151 C 0.73925 0.86064 0.37553 0.0
C152 C 0.76631 0.83836 0.37914 0.0
C153 C 0.77227 0.81216 0.35349 0.0
C154 C 0.7512 0.80817 0.32349 0.0
C155 C 0.72489 0.8301 0.31968 0.0
C156 C 0.70591 0.82298 0.28525 0.0
C157 C 0.72496 0.79293 0.26929 0.0
C158 C 0.75135 0.78418 0.29192 0.0
C159 C 0.67101 0.81227 0.29655 0.0
C160 C 0.70766 0.85546 0.26038 0.0
H161 H 0.78119 0.67967 0.19808 0.0
H162 H 0.85452 0.69457 0.30526 0.0
H163 H 0.84267 0.76991 0.27594 0.0
H164 H 0.82141 0.79552 0.3077 0.0
H165 H 0.84827 0.76204 0.32414 0.0
H166 H 0.77967 0.70216 0.337 0.0
H167 H 0.81525 0.72159 0.35659 0.0
H168 H 0.77661 0.74358 0.35636 0.0
H169 H 0.68546 0.72967 0.13014 0.0
H170 H 0.62757 0.81536 0.16952 0.0
H171 H 0.66238 0.82083 0.22232 0.0
H172 H 0.69147 0.69249 0.20718 0.0
H173 H 0.71641 0.67881 0.16938 0.0
H174 H 0.73121 0.67821 0.21609 0.0
H175 H 0.75605 0.76229 0.15117 0.0
H176 H 0.77958 0.72851 0.1695 0.0
H177 H 0.7488 0.71898 0.13583 0.0
H178 H 0.82659 0.6412 0.20578 0.0
C179 C 0.79644 0.6837 0.22158 0.0
C180 C 0.66511 0.32057 0.86159 0.0
C181 C 0.63506 0.30348 0.85834 0.0
C182 C 0.62995 0.2815 0.828 0.0
C183 C 0.68528 0.29038 0.80754 0.0
C184 C 0.68984 0.31364 0.83588 0.0
C185 C 0.72372 0.32845 0.83564 0.0
H186 H 0.87536 0.32844 0.76192 0.0
C187 C 0.71624 0.28672 0.78733 0.0
C188 C 0.7389 0.30922 0.80344 0.0
H189 H 0.83798 0.39569 0.84696 0.0
H190 H 0.78603 0.36659 0.84433 0.0
H191 H 0.81715 0.33649 0.71088 0.0
H192 H 0.83949 0.2576 0.78999 0.0
H193 H 0.82543 0.23696 0.75008 0.0
H194 H 0.86151 0.26316 0.74777 0.0
H195 H 0.8455 0.30253 0.70096 0.0
H196 H 0.80252 0.2979 0.69205 0.0
C197 C 0.72112 0.36769 0.82815 0.0
C198 C 0.74033 0.31918 0.8725 0.0
C199 C 0.72737 0.19525 0.68732 0.0
C200 C 0.75367 0.18487 0.66503 0.0
C201 C 0.78324 0.20315 0.66754 0.0
C202 C 0.78702 0.23023 0.69257 0.0
C203 C 0.76094 0.23955 0.71544 0.0
C204 C 0.73156 0.2226 0.7122 0.0
C205 C 0.70643 0.23666 0.73843 0.0
C206 C 0.72583 0.26445 0.7582 0.0
C207 C 0.75778 0.2657 0.7448 0.0
C208 C 0.67809 0.25211 0.7156 0.0
C209 C 0.6963 0.20711 0.7647 0.0
C210 C 0.85607 0.33711 0.78001 0.0
C211 C 0.86094 0.36467 0.80452 0.0
C212 C 0.83514 0.37439 0.82802 0.0
C213 C 0.80482 0.35772 0.82612 0.0
C214 C 0.80011 0.33112 0.80036 0.0
C215 C 0.82564 0.32122 0.77801 0.0
C216 C 0.81621 0.29362 0.75113 0.0
C217 C 0.78065 0.28865 0.76073 0.0
C218 C 0.77132 0.31039 0.78982 0.0
C219 C 0.82071 0.30803 0.71162 0.0
C220 C 0.83674 0.26106 0.75978 0.0
H221 H 0.64951 0.25731 0.78078 0.0
H222 H 0.66978 0.33771 0.88447 0.0
H223 H 0.73502 0.29199 0.8802 0.0
H224 H 0.76707 0.321 0.87131 0.0
H225 H 0.73138 0.33602 0.89506 0.0
H226 H 0.70029 0.37357 0.80966 0.0
H227 H 0.71734 0.38229 0.85407 0.0
H228 H 0.74262 0.37805 0.81367 0.0
H229 H 0.7043 0.18187 0.68617 0.0
H230 H 0.80366 0.19648 0.6501 0.0
H231 H 0.81027 0.24268 0.69326 0.0
H232 H 0.68656 0.26098 0.68812 0.0
H233 H 0.65858 0.2328 0.71107 0.0
H234 H 0.66748 0.27542 0.72847 0.0
H235 H 0.718 0.19219 0.77375 0.0
H236 H 0.68471 0.21629 0.79022 0.0
H237 H 0.67948 0.18891 0.75083 0.0
H238 H 0.6068 0.26867 0.8243 0.0
C239 C 0.65481 0.27488 0.8027 0.0
C240 C 0.79903 0.82558 0.66019 0.0
C241 C 0.77767 0.85383 0.66404 0.0
C242 C 0.75201 0.85147 0.68974 0.0
C243 C 0.76756 0.79295 0.70485 0.0
C244 C 0.79358 0.79555 0.68094 0.0
C245 C 0.81383 0.76311 0.68052 0.0
H246 H 0.84215 0.60316 0.74883 0.0
C247 C 0.76796 0.75813 0.72131 0.0
C248 C 0.79515 0.7405 0.70743 0.0
H249 H 0.9009 0.66059 0.67153 0.0
H250 H 0.86095 0.70639 0.67097 0.0
H251 H 0.8256 0.66565 0.80086 0.0
H252 H 0.77155 0.62233 0.71052 0.0
H253 H 0.74399 0.63157 0.74617 0.0
H254 H 0.77592 0.6004 0.75371 0.0
H255 H 0.80623 0.62427 0.80368 0.0
H256 H 0.78448 0.66349 0.81392 0.0
C257 C 0.84819 0.77226 0.69491 0.0
C258 C 0.81335 0.74809 0.64109 0.0
C259 C 0.67786 0.72372 0.8093 0.0
C260 C 0.67193 0.69423 0.83087 0.0
C261 C 0.69322 0.66581 0.8275 0.0
C262 C 0.72031 0.6672 0.80387 0.0
C263 C 0.72634 0.69739 0.78343 0.0
C264 C 0.70511 0.72488 0.78632 0.0
C265 C 0.71556 0.75532 0.76367 0.0
C266 C 0.74647 0.74154 0.74624 0.0
C267 C 0.75271 0.7076 0.75777 0.0
C268 C 0.72237 0.78596 0.79004 0.0
C269 C 0.68881 0.76239 0.73466 0.0
C270 C 0.84639 0.62558 0.73171 0.0
C271 C 0.87491 0.62839 0.71047 0.0
C272 C 0.87912 0.6577 0.68802 0.0
C273 C 0.85606 0.68445 0.68808 0.0
C274 C 0.82848 0.68196 0.71086 0.0
C275 C 0.8237 0.65253 0.7316 0.0
C276 C 0.7931 0.65428 0.75427 0.0
C277 C 0.78068 0.68997 0.74447 0.0
C278 C 0.80157 0.70616 0.71912 0.0
C279 C 0.80255 0.65157 0.79539 0.0
C280 C 0.76982 0.62559 0.74085 0.0
H281 H 0.72649 0.82115 0.72843 0.0
H282 H 0.81901 0.82638 0.64078 0.0
H283 H 0.78891 0.75136 0.62844 0.0
H284 H 0.81808 0.72006 0.64038 0.0
H285 H 0.83128 0.76136 0.62316 0.0
H286 H 0.84679 0.79207 0.71699 0.0
H287 H 0.86368 0.78282 0.67255 0.0
H288 H 0.86077 0.75017 0.70774 0.0
H289 H 0.66182 0.74587 0.81054 0.0
H290 H 0.68951 0.64284 0.84393 0.0
H291 H 0.73585 0.64495 0.80294 0.0
H292 H 0.72912 0.77683 0.81802 0.0
H293 H 0.70066 0.80283 0.79298 0.0
H294 H 0.74335 0.80176 0.78116 0.0
H295 H 0.67959 0.73776 0.72296 0.0
H296 H 0.69761 0.77733 0.71084 0.0
H297 H 0.66783 0.7762 0.74712 0.0
H298 H 0.73569 0.87303 0.69418 0.0
C299 C 0.74676 0.82128 0.70988 0.0
C300 C 0.81358 0.17017 0.33118 0.0
C301 C 0.79197 0.14325 0.33998 0.0
C302 C 0.76262 0.14055 0.32001 0.0
C303 C 0.77642 0.19114 0.28422 0.0
C304 C 0.80528 0.19376 0.30343 0.0
C305 C 0.82488 0.22458 0.29156 0.0
H306 H 0.83742 0.37037 0.1896 0.0
C307 C 0.77442 0.22049 0.25835 0.0
C308 C 0.80275 0.24025 0.26254 0.0
H309 H 0.90663 0.32812 0.26688 0.0
H310 H 0.87193 0.27912 0.27724 0.0
H311 H 0.77637 0.35668 0.2357 0.0
H312 H 0.81864 0.29401 0.15041 0.0
H313 H 0.77641 0.29692 0.14287 0.0
H314 H 0.80061 0.33555 0.14233 0.0
H315 H 0.77013 0.36624 0.18798 0.0
H316 H 0.74386 0.33699 0.21272 0.0
C317 C 0.82889 0.24865 0.32525 0.0
C318 C 0.85731 0.21143 0.27486 0.0
C319 C 0.6754 0.2341 0.1756 0.0
C320 C 0.66545 0.26012 0.15093 0.0
C321 C 0.68554 0.28945 0.14673 0.0
C322 C 0.71515 0.29226 0.16544 0.0
C323 C 0.7249 0.26582 0.18934 0.0
C324 C 0.70486 0.23767 0.19466 0.0
C325 C 0.71821 0.21331 0.22317 0.0
C326 C 0.74999 0.23098 0.23308 0.0
C327 C 0.75391 0.26156 0.21287 0.0
C328 C 0.69411 0.21239 0.25602 0.0
C329 C 0.72409 0.17789 0.20467 0.0
C330 C 0.84524 0.35023 0.20826 0.0
C331 C 0.8747 0.3532 0.22761 0.0
C332 C 0.88386 0.32663 0.252 0.0
C333 C 0.86367 0.29816 0.258 0.0
C334 C 0.83377 0.2961 0.23956 0.0
C335 C 0.82515 0.32159 0.21478 0.0
C336 C 0.79224 0.31508 0.19807 0.0
C337 C 0.78265 0.28156 0.21693 0.0
C338 C 0.80704 0.27071 0.24133 0.0
C339 C 0.76934 0.34529 0.2088 0.0
C340 C 0.79691 0.3103 0.15615 0.0
H341 H 0.73211 0.16068 0.27833 0.0
H342 H 0.83642 0.17299 0.34565 0.0
H343 H 0.85397 0.18612 0.26098 0.0
H344 H 0.86689 0.22861 0.25316 0.0
H345 H 0.87612 0.20797 0.29643 0.0
H346 H 0.8062 0.24927 0.34195 0.0
H347 H 0.84889 0.23962 0.34336 0.0
H348 H 0.83336 0.27578 0.31764 0.0
H349 H 0.66084 0.21122 0.17987 0.0
H350 H 0.67832 0.31067 0.12921 0.0
H351 H 0.7292 0.31512 0.16074 0.0
H352 H 0.6803 0.23701 0.25842 0.0
H353 H 0.6761 0.19129 0.25287 0.0
H354 H 0.70649 0.20963 0.28282 0.0
H355 H 0.73495 0.18131 0.17687 0.0
H356 H 0.74146 0.16153 0.21988 0.0
H357 H 0.70091 0.16356 0.20137 0.0
H358 H 0.74507 0.12067 0.32651 0.0
C359 C 0.75486 0.16414 0.29221 0.0
C360 C 0.29969 0.15656 0.65809 0.0
C361 C 0.27895 0.1535 0.62762 0.0
C362 C 0.25507 0.17907 0.62162 0.0
C363 C 0.27071 0.20816 0.67768 0.0
C364 C 0.29504 0.18395 0.68276 0.0
C365 C 0.31362 0.18999 0.71773 0.0
H366 H 0.33412 0.28099 0.87449 0.0
C367 C 0.27088 0.23188 0.70947 0.0
C368 C 0.2961 0.22142 0.73297 0.0
H369 H 0.39114 0.19484 0.83464 0.0
H370 H 0.35706 0.19096 0.78102 0.0
H371 H 0.26343 0.24997 0.85101 0.0
H372 H 0.3301 0.31989 0.79839 0.0
H373 H 0.29073 0.33531 0.78948 0.0
H374 H 0.30501 0.33293 0.83633 0.0
H375 H 0.27072 0.29289 0.86751 0.0
H376 H 0.24065 0.28431 0.83274 0.0
C377 C 0.30926 0.15793 0.74274 0.0
C378 C 0.34938 0.19812 0.7074 0.0
C379 C 0.18378 0.325 0.72114 0.0
C380 C 0.17716 0.35 0.74825 0.0
C381 C 0.19856 0.35284 0.77843 0.0
C382 C 0.22531 0.33069 0.78218 0.0
C383 C 0.23105 0.30527 0.75547 0.0
C384 C 0.21075 0.30304 0.72531 0.0
C385 C 0.22096 0.27465 0.69949 0.0
C386 C 0.25046 0.26005 0.71937 0.0
C387 C 0.25608 0.27794 0.75229 0.0
C388 C 0.19284 0.24818 0.69733 0.0
C389 C 0.23028 0.29117 0.66214 0.0
C390 C 0.33937 0.26134 0.85417 0.0
C391 C 0.36543 0.23814 0.859 0.0
C392 C 0.371 0.21271 0.832 0.0
C393 C 0.35134 0.21071 0.80063 0.0
C394 C 0.3257 0.23436 0.79603 0.0
C395 C 0.32002 0.25908 0.8226 0.0
C396 C 0.2919 0.28227 0.8129 0.0
C397 C 0.28175 0.2675 0.776 0.0
C398 C 0.3016 0.2394 0.76636 0.0
C399 C 0.26521 0.27749 0.84255 0.0
C400 C 0.3048 0.31967 0.80928 0.0
H401 H 0.2319 0.22454 0.64055 0.0
H402 H 0.31812 0.13723 0.66355 0.0
H403 H 0.35071 0.21275 0.68112 0.0
H404 H 0.36156 0.21485 0.72771 0.0
H405 H 0.36376 0.17407 0.70387 0.0
H406 H 0.28435 0.14707 0.73991 0.0
H407 H 0.32685 0.13727 0.73537 0.0
H408 H 0.31169 0.16385 0.77228 0.0
H409 H 0.1679 0.32196 0.69765 0.0
H410 H 0.19467 0.37234 0.79929 0.0
H411 H 0.2404 0.33414 0.80592 0.0
H412 H 0.18156 0.24436 0.72486 0.0
H413 H 0.17349 0.25718 0.67832 0.0
H414 H 0.2009 0.22226 0.68872 0.0
H415 H 0.24097 0.31726 0.6661 0.0
H416 H 0.24926 0.27647 0.64735 0.0
H417 H 0.20867 0.29408 0.64411 0.0
H418 H 0.23911 0.17754 0.59801 0.0
C419 C 0.25089 0.20634 0.64637 0.0
C420 C 0.16341 0.6751 0.22513 0.0
C421 C 0.15824 0.64702 0.20131 0.0
C422 C 0.18413 0.63612 0.17853 0.0
C423 C 0.2197 0.67924 0.20546 0.0
C424 C 0.19416 0.69034 0.22715 0.0
C425 C 0.20398 0.71845 0.25331 0.0
H426 H 0.3187 0.82857 0.31607 0.0
C427 C 0.24887 0.69938 0.21588 0.0
C428 C 0.23981 0.72213 0.2442 0.0
H429 H 0.21833 0.81938 0.35048 0.0
H430 H 0.21077 0.77163 0.30935 0.0
H431 H 0.30576 0.81556 0.22866 0.0
H432 H 0.33398 0.74947 0.31798 0.0
H433 H 0.35236 0.73186 0.27864 0.0
H434 H 0.36333 0.77478 0.29349 0.0
H435 H 0.3438 0.81863 0.25263 0.0
H436 H 0.33887 0.79004 0.21423 0.0
C437 C 0.18442 0.75132 0.24327 0.0
C438 C 0.19859 0.70536 0.29316 0.0
C439 C 0.35513 0.68525 0.14512 0.0
C440 C 0.38556 0.70153 0.1485 0.0
C441 C 0.39128 0.72302 0.17909 0.0
C442 C 0.36655 0.73034 0.20428 0.0
C443 C 0.33562 0.71604 0.19906 0.0
C444 C 0.33054 0.69285 0.17077 0.0
C445 C 0.29628 0.67907 0.17092 0.0
C446 C 0.28144 0.69914 0.20274 0.0
C447 C 0.30461 0.72105 0.21877 0.0
C448 C 0.28013 0.68843 0.13382 0.0
C449 C 0.29777 0.63984 0.17894 0.0
C450 C 0.29519 0.81605 0.315 0.0
C451 C 0.26895 0.82837 0.33616 0.0
C452 C 0.23877 0.81116 0.33383 0.0
C453 C 0.23442 0.78322 0.31 0.0
C454 C 0.2605 0.772 0.28812 0.0
C455 C 0.29041 0.78794 0.29126 0.0
C456 C 0.3154 0.7721 0.26611 0.0
C457 C 0.29535 0.74443 0.24703 0.0
C458 C 0.26317 0.74474 0.25983 0.0
C459 C 0.32687 0.8004 0.23897 0.0
C460 C 0.34289 0.75638 0.29004 0.0
H461 H 0.23354 0.64235 0.16278 0.0
H462 H 0.14409 0.68465 0.24266 0.0
H463 H 0.20236 0.67698 0.29503 0.0
H464 H 0.21615 0.71633 0.31292 0.0
H465 H 0.17348 0.71096 0.30278 0.0
H466 H 0.18198 0.7539 0.21293 0.0
H467 H 0.15952 0.75037 0.2551 0.0
H468 H 0.19633 0.77536 0.2522 0.0
H469 H 0.35005 0.66841 0.1221 0.0
H470 H 0.41476 0.73514 0.18288 0.0
H471 H 0.37227 0.74764 0.2263 0.0
H472 H 0.28595 0.71548 0.12601 0.0
H473 H 0.28901 0.67131 0.11146 0.0
H474 H 0.25336 0.68705 0.1347 0.0
H475 H 0.31895 0.63331 0.19665 0.0
H476 H 0.2764 0.63056 0.19449 0.0
H477 H 0.30017 0.62474 0.15313 0.0
H478 H 0.18113 0.61439 0.16018 0.0
C479 C 0.21474 0.65212 0.18043 0.0
C480 C 0.95807 0.47344 0.22083 0.0
C481 C 0.04104 0.56436 0.2122 0.0
O482 O 0.96612 0.48705 0.25157 0.0
Zn483 Zn 0.99668 0.52628 0.27293 0.0
O484 O 0.97046 0.485 0.19119 0.0
Zn485 Zn 0.99809 0.52031 0.21377 0.0
O486 O 0.03172 0.4895 0.24409 0.0
O487 O 0.02616 0.49898 0.30363 0.0
O488 O 0.02839 0.5485 0.1851 0.0
O489 O 0.03069 0.55826 0.2448 0.0
O490 O 0.96567 0.55909 0.29385 0.0
O491 O 0.96373 0.55718 0.23331 0.0
C492 C 0.04047 0.48347 0.27727 0.0
C493 C 0.95342 0.56969 0.26379 0.0
C494 C 0.97804 0.44758 0.79429 0.0
C495 C 0.0607 0.53865 0.78801 0.0
O496 O 0.99074 0.46294 0.82166 0.0
Zn497 Zn 0.02109 0.49144 0.7936 0.0
O498 O 0.98852 0.45405 0.76181 0.0
Zn499 Zn 0.02286 0.48638 0.73453 0.0
O500 O 0.05412 0.45417 0.71319 0.0
O501 O 0.05601 0.45512 0.77375 0.0
O502 O 0.05306 0.5255 0.75691 0.0
O503 O 0.04815 0.52648 0.81728 0.0
O504 O 0.98768 0.52286 0.76341 0.0
O505 O 0.99377 0.51405 0.70383 0.0
C506 C 0.06651 0.44325 0.74305 0.0
C507 C 0.97929 0.52935 0.7302 0.0
C508 C 0.22677 0.94827 0.5324 0.0
C509 C 0.23021 0.03758 0.43601 0.0
O510 O 0.20178 0.96241 0.51813 0.0
Zn511 Zn 0.22535 0.99205 0.48308 0.0
O512 O 0.25513 0.95683 0.52115 0.0
Zn513 Zn 0.2786 0.98977 0.48336 0.0
O514 O 0.3023 0.02106 0.5164 0.0
O515 O 0.24892 0.02644 0.51941 0.0
O516 O 0.25777 0.02577 0.44649 0.0
O517 O 0.20417 0.02513 0.44968 0.0
O518 O 0.24635 0.95598 0.44604 0.0
O519 O 0.29991 0.95663 0.45058 0.0
C520 C 0.27724 0.03569 0.53004 0.0
C521 C 0.27421 0.94454 0.43594 0.0
C522 C 0.56174 0.75441 0.02624 0.0
C523 C 0.47486 0.74863 0.9344 0.0
O524 O 0.55363 0.72356 0.01742 0.0
Zn525 Zn 0.52077 0.69752 0.98093 0.0
O526 O 0.54811 0.77987 0.01033 0.0
Zn527 Zn 0.51978 0.75311 0.97874 0.0
O528 O 0.48879 0.72999 0.01846 0.0
O529 O 0.49286 0.67325 0.01636 0.0
O530 O 0.48863 0.77569 0.94646 0.0
O531 O 0.48507 0.71897 0.94493 0.0
O532 O 0.55056 0.67297 0.94788 0.0
O533 O 0.55392 0.72954 0.94289 0.0
C534 C 0.48038 0.70028 0.03053 0.0
C535 C 0.56379 0.69944 0.93357 0.0
C536 C 0.78584 0.97298 0.56784 0.0
C537 C 0.79714 0.05492 0.46622 0.0
O538 O 0.75891 0.9862 0.55689 0.0
Zn539 Zn 0.74152 0.02325 0.51771 0.0
O540 O 0.81253 0.98354 0.55409 0.0
Zn541 Zn 0.7934 0.01598 0.51939 0.0
O542 O 0.77561 0.05568 0.55447 0.0
O543 O 0.72248 0.05972 0.54779 0.0
O544 O 0.82031 0.04079 0.48379 0.0
O545 O 0.76771 0.05015 0.47637 0.0
O546 O 0.71434 0.99403 0.4871 0.0
O547 O 0.76678 0.9807 0.48546 0.0
C548 C 0.74853 0.07005 0.56296 0.0
C549 C 0.7374 0.97492 0.47556 0.0
C550 C 0.54425 0.25803 0.07011 0.0
C551 C 0.45648 0.25342 0.97947 0.0
O552 O 0.52883 0.23118 0.0603 0.0
Zn553 Zn 0.49828 0.25404 0.02723 0.0
O554 O 0.53508 0.28775 0.05873 0.0
Zn555 Zn 0.49842 0.30969 0.02448 0.0
O556 O 0.46918 0.33462 0.05826 0.0
O557 O 0.46447 0.27819 0.06268 0.0
O558 O 0.46518 0.2841 0.98819 0.0
O559 O 0.46953 0.22771 0.99558 0.0
O560 O 0.5298 0.27648 0.98708 0.0
O561 O 0.52619 0.33333 0.98851 0.0
C562 C 0.45522 0.30842 0.07223 0.0
C563 C 0.5385 0.30602 0.9747 0.0
C564 C 0.10113 0.42278 0.32318 0.0
C565 C 0.11894 0.41094 0.29255 0.0
H566 H 0.06239 0.4554 0.34267 0.0
C567 C 0.1109 0.42355 0.25757 0.0
H568 H 0.10684 0.41358 0.35054 0.0
C569 C 0.08567 0.44713 0.2531 0.0
C570 C 0.06764 0.45895 0.2835 0.0
H571 H 0.12364 0.41453 0.2333 0.0
H572 H 0.08022 0.45594 0.22552 0.0
C573 C 0.07579 0.44677 0.31872 0.0
C574 C 0.11226 0.61443 0.8204 0.0
C575 C 0.12171 0.62892 0.78656 0.0
H576 H 0.08515 0.57447 0.84769 0.0
C577 C 0.11224 0.61263 0.7539 0.0
H578 H 0.11934 0.62651 0.84601 0.0
C579 C 0.09313 0.58306 0.75481 0.0
C580 C 0.08272 0.56893 0.78844 0.0
H581 H 0.11967 0.62278 0.72744 0.0
H582 H 0.08615 0.5716 0.72885 0.0
C583 C 0.0927 0.58475 0.82135 0.0
C584 C 0.89103 0.6328 0.22722 0.0
C585 C 0.87353 0.64194 0.25895 0.0
H586 H 0.92973 0.60331 0.20396 0.0
C587 C 0.88365 0.62844 0.29304 0.0
H588 H 0.88451 0.64332 0.20063 0.0
C589 C 0.91008 0.60553 0.29506 0.0
C590 C 0.92683 0.59565 0.26301 0.0
H591 H 0.87062 0.63484 0.31803 0.0
H592 H 0.91688 0.59497 0.32153 0.0
C593 C 0.91719 0.60995 0.22919 0.0
C594 C 0.90691 0.39085 0.76909 0.0
C595 C 0.89189 0.38466 0.80318 0.0
H596 H 0.94566 0.41463 0.7398 0.0
C597 C 0.9063 0.39841 0.83509 0.0
H598 H 0.89627 0.38153 0.74377 0.0
C599 C 0.93486 0.41816 0.83274 0.0
C600 C 0.94953 0.42446 0.79843 0.0
H601 H 0.89552 0.39394 0.86184 0.0
H602 H 0.94512 0.42888 0.85763 0.0
C603 C 0.93532 0.41019 0.76679 0.0
C604 C 0.20286 0.11158 0.37385 0.0
C605 C 0.2331 0.12484 0.36228 0.0
H606 H 0.17788 0.07324 0.40612 0.0
C607 C 0.26162 0.10881 0.37485 0.0
H608 H 0.18039 0.12328 0.36458 0.0
C609 C 0.26018 0.08028 0.3979 0.0
C610 C 0.23016 0.0669 0.40972 0.0
H611 H 0.28537 0.11871 0.36748 0.0
H612 H 0.28297 0.06909 0.40695 0.0
C613 C 0.20139 0.08281 0.3974 0.0
C614 C 0.39927 0.78272 0.88633 0.0
C615 C 0.38477 0.7519 0.87422 0.0
H616 H 0.43929 0.80604 0.91483 0.0
C617 C 0.40157 0.7207 0.87932 0.0
H618 H 0.3869 0.80719 0.88283 0.0
C619 C 0.43142 0.72004 0.89747 0.0
C620 C 0.44534 0.75058 0.91107 0.0
H621 H 0.39145 0.69661 0.86958 0.0
H622 H 0.4432 0.69533 0.90158 0.0
C623 C 0.42927 0.78207 0.90465 0.0
C624 C 0.74232 0.8846 0.43961 0.0
C625 C 0.73388 0.88909 0.40244 0.0
H626 H 0.7499 0.90868 0.49188 0.0
C627 C 0.72224 0.92161 0.39096 0.0
H628 H 0.75051 0.85982 0.44978 0.0
C629 C 0.72083 0.94932 0.41562 0.0
C630 C 0.73137 0.94501 0.45192 0.0
H631 H 0.71583 0.92624 0.36253 0.0
H632 H 0.71351 0.97454 0.40576 0.0
C633 C 0.74152 0.91239 0.46391 0.0
C634 C 0.60143 0.3369 0.90479 0.0
C635 C 0.61008 0.30551 0.88787 0.0
H636 H 0.57151 0.36205 0.94541 0.0
C637 C 0.59497 0.27506 0.89974 0.0
H638 H 0.6127 0.3608 0.89618 0.0
C639 C 0.57173 0.27575 0.9275 0.0
C640 C 0.56278 0.30694 0.94449 0.0
H641 H 0.6015 0.25035 0.88792 0.0
H642 H 0.56086 0.2515 0.93571 0.0
C643 C 0.57778 0.33764 0.93278 0.0
C644 C 0.19802 0.89931 0.61728 0.0
C645 C 0.22668 0.88151 0.62676 0.0
H646 H 0.17528 0.9348 0.5796 0.0
C647 C 0.25349 0.88312 0.603 0.0
H648 H 0.17692 0.89827 0.6351 0.0
C649 C 0.25251 0.9035 0.57158 0.0
C650 C 0.2247 0.92305 0.56295 0.0
H651 H 0.2756 0.869 0.60909 0.0
H652 H 0.27409 0.90461 0.5545 0.0
C653 C 0.19705 0.92008 0.58556 0.0
C654 C 0.62188 0.73496 0.1022 0.0
C655 C 0.63114 0.76807 0.11377 0.0
H656 H 0.59301 0.70479 0.06575 0.0
C657 C 0.61794 0.79694 0.09559 0.0
H658 H 0.63109 0.71216 0.11591 0.0
C659 C 0.59569 0.79274 0.0668 0.0
C660 C 0.58621 0.75956 0.05562 0.0
H661 H 0.62485 0.82282 0.10354 0.0
H662 H 0.58577 0.81544 0.05354 0.0
C663 C 0.59978 0.73077 0.07351 0.0
C664 C 0.72271 0.14814 0.61945 0.0
C665 C 0.75108 0.15459 0.63996 0.0
H666 H 0.69947 0.1163 0.57892 0.0
C667 C 0.77764 0.13203 0.636 0.0
H668 H 0.70183 0.16508 0.62171 0.0
C669 C 0.77641 0.10454 0.61137 0.0
C670 C 0.74845 0.0985 0.59019 0.0
H671 H 0.79957 0.13554 0.65203 0.0
H672 H 0.79758 0.08802 0.60893 0.0
C673 C 0.72138 0.12029 0.59484 0.0
C674 C 0.3807 0.28422 0.1273 0.0
C675 C 0.37381 0.31441 0.14722 0.0
H676 H 0.41141 0.25882 0.08868 0.0
C677 C 0.39356 0.34363 0.14134 0.0
H678 H 0.36556 0.26154 0.13001 0.0
C679 C 0.41995 0.34225 0.1167 0.0
C680 C 0.42719 0.31155 0.0978 0.0
H681 H 0.38905 0.36731 0.15626 0.0
H682 H 0.43495 0.36491 0.11297 0.0
C683 C 0.40704 0.28274 0.10328 0.0
C684 C 0.91887 0.59002 0.68382 0.0
C685 C 0.90125 0.60233 0.71437 0.0
H686 H 0.95731 0.5569 0.66459 0.0
C687 C 0.90955 0.59033 0.74953 0.0
H688 H 0.91295 0.59877 0.65636 0.0
C689 C 0.93472 0.56669 0.7542 0.0
C690 C 0.95242 0.55423 0.72386 0.0
H691 H 0.89695 0.59974 0.77371 0.0
H692 H 0.9403 0.55829 0.78189 0.0
C693 C 0.94415 0.566 0.68851 0.0
C694 C 0.90363 0.39909 0.19056 0.0
C695 C 0.89498 0.38475 0.22475 0.0
H696 H 0.9308 0.43836 0.16219 0.0
C697 C 0.90617 0.40053 0.257 0.0
H698 H 0.89528 0.38739 0.16526 0.0
C699 C 0.92607 0.42949 0.25531 0.0
C700 C 0.93558 0.44352 0.22128 0.0
H701 H 0.89947 0.39046 0.28374 0.0
H702 H 0.93432 0.4406 0.28096 0.0
C703 C 0.92399 0.42814 0.18882 0.0
C704 C 0.1302 0.38067 0.77794 0.0
C705 C 0.14781 0.3726 0.74593 0.0
H706 H 0.09098 0.40885 0.80204 0.0
C707 C 0.13734 0.38667 0.71223 0.0
H708 H 0.13696 0.36969 0.80423 0.0
C709 C 0.11046 0.40903 0.71088 0.0
C710 C 0.09358 0.41782 0.74321 0.0
H711 H 0.15041 0.38114 0.68705 0.0
H712 H 0.10341 0.42001 0.6847 0.0
C713 C 0.10359 0.40302 0.77662 0.0
C714 C 0.11129 0.62263 0.23663 0.0
C715 C 0.12695 0.6276 0.20268 0.0
H716 H 0.07212 0.59971 0.26597 0.0
C717 C 0.11304 0.6128 0.171 0.0
H718 H 0.12148 0.6328 0.26181 0.0
C719 C 0.0845 0.59303 0.17349 0.0
C720 C 0.06934 0.58775 0.2077 0.0
H721 H 0.12427 0.61634 0.14433 0.0
H722 H 0.07472 0.58139 0.14882 0.0
C723 C 0.08291 0.60326 0.23905 0.0
C724 C 0.7524 0.90116 0.62697 0.0
C725 C 0.78064 0.88501 0.64028 0.0
H726 H 0.73195 0.94139 0.59455 0.0
C727 C 0.81112 0.89865 0.63023 0.0
H728 H 0.72851 0.89102 0.63326 0.0
C729 C 0.81316 0.9277 0.60726 0.0
C730 C 0.78474 0.94368 0.59406 0.0
H731 H 0.83338 0.887 0.64021 0.0
H732 H 0.8369 0.93744 0.59965 0.0
C733 C 0.75441 0.93011 0.60445 0.0
C734 C 0.60694 0.24005 0.14407 0.0
C735 C 0.63446 0.25714 0.12961 0.0
H736 H 0.55667 0.22629 0.1362 0.0
C737 C 0.63198 0.27222 0.0945 0.0
H738 H 0.6076 0.22839 0.17109 0.0
C739 C 0.60263 0.27192 0.07539 0.0
C740 C 0.57522 0.25556 0.09017 0.0
H741 H 0.65267 0.28449 0.08159 0.0
H742 H 0.60136 0.28454 0.04883 0.0
C743 C 0.57767 0.23893 0.12427 0.0
C744 C 0.30919 0.109 0.58977 0.0
C745 C 0.27987 0.12239 0.60391 0.0
H746 H 0.33164 0.07089 0.5549 0.0
C747 C 0.25062 0.10576 0.5954 0.0
H748 H 0.33213 0.1213 0.59612 0.0
C749 C 0.25034 0.07718 0.57238 0.0
C750 C 0.27933 0.06431 0.55696 0.0
H751 H 0.22774 0.11489 0.6066 0.0
H752 H 0.22706 0.06548 0.56633 0.0
C753 C 0.30892 0.0802 0.56629 0.0
C754 C 0.42522 0.73024 0.10701 0.0
C755 C 0.41016 0.69968 0.11861 0.0
H756 H 0.45888 0.7542 0.07086 0.0
C757 C 0.41836 0.66852 0.10097 0.0
H758 H 0.419 0.7548 0.11939 0.0
C759 C 0.44158 0.6681 0.07252 0.0
C760 C 0.45652 0.69892 0.06109 0.0
H761 H 0.40706 0.64456 0.10936 0.0
H762 H 0.44755 0.64387 0.05932 0.0
C763 C 0.44801 0.72988 0.07881 0.0
C764 C 0.81302 0.13058 0.40383 0.0
C765 C 0.79882 0.11892 0.37082 0.0
H766 H 0.82422 0.11886 0.46024 0.0
C767 C 0.78871 0.08433 0.36862 0.0
H768 H 0.82081 0.1571 0.40671 0.0
C769 C 0.7903 0.06283 0.39935 0.0
C770 C 0.80282 0.07509 0.43266 0.0
H771 H 0.77843 0.07413 0.3435 0.0
H772 H 0.7805 0.03695 0.39752 0.0
C773 C 0.81506 0.10876 0.43451 0.0
C774 C 0.40035 0.21228 0.90903 0.0
C775 C 0.38767 0.24153 0.89104 0.0
H776 H 0.43191 0.19291 0.95126 0.0
C777 C 0.39721 0.27437 0.90315 0.0
H778 H 0.39323 0.18659 0.90063 0.0
C779 C 0.41904 0.27796 0.93217 0.0
C780 C 0.43212 0.2488 0.94987 0.0
H781 H 0.38843 0.29746 0.8896 0.0
H782 H 0.42604 0.30377 0.94031 0.0
C783 C 0.42236 0.21588 0.93817 0.0
C784 C 0.24649 0.88338 0.36173 0.0
C785 C 0.27221 0.85957 0.35977 0.0
H786 H 0.22722 0.92871 0.38684 0.0
C787 C 0.30026 0.86561 0.38105 0.0
H788 H 0.22494 0.88024 0.34498 0.0
C789 C 0.3018 0.89404 0.40492 0.0
C790 C 0.27525 0.91675 0.40801 0.0
H791 H 0.32053 0.84776 0.3802 0.0
H792 H 0.32316 0.89747 0.4219 0.0
C793 C 0.24791 0.91141 0.38561 0.0
C794 C 0.63711 0.7247 0.87712 0.0
C795 C 0.64459 0.69427 0.85789 0.0
H796 H 0.60606 0.75005 0.91544 0.0
C797 C 0.62567 0.66464 0.86466 0.0
H798 H 0.65164 0.74775 0.87366 0.0
C799 C 0.59947 0.6658 0.88951 0.0
C800 C 0.59161 0.69669 0.90774 0.0
H801 H 0.63068 0.64078 0.85027 0.0
H802 H 0.58509 0.64279 0.89395 0.0
C803 C 0.61093 0.72596 0.90137 0.0
loop_
_geom_bond_atom_site_label_1
_geom_bond_atom_site_label_2
_geom_bond_distance
_geom_bond_site_symmetry_2
_ccdc_geom_bond_type
C0 C1 1.391 . S
C0 C4 1.391 . S
C0 H42 0.948 . S
C1 C0 1.391 . S
C1 C2 1.391 . S
C2 C1 1.391 . S
C2 H58 0.947 . S
C2 C59 1.392 . S
C3 C4 1.391 . S
C3 C7 1.397 . S
C3 C59 1.419 . S
C4 C0 1.391 . S
C4 C3 1.391 . S
C4 C5 1.399 . S
C5 C4 1.399 . S
C5 C8 1.396 . S
C5 C17 1.453 . S
C5 C18 1.684 . S
H6 C30 0.948 . S
C7 C3 1.397 . S
C7 C8 1.394 . S
C7 C26 1.723 . S
C8 C5 1.396 . S
C8 C7 1.394 . S
C8 C38 1.723 . S
H9 C32 0.947 . S
H10 C33 0.948 . S
H11 C39 0.982 . S
H12 C40 0.979 . S
H13 C40 0.980 . S
H14 C40 0.983 . S
H15 C39 0.979 . S
H16 C39 0.977 . S
C17 C5 1.453 . S
C17 H46 0.982 . S
C17 H47 0.979 . S
C17 H48 0.977 . S
C18 C5 1.684 . S
C18 H43 0.979 . S
C18 H44 0.980 . S
C18 H45 0.983 . S
C19 C20 1.391 . S
C19 C24 1.391 . S
C19 H49 0.948 . S
C20 C19 1.391 . S
C20 C21 1.391 . S
C21 C20 1.391 . S
C21 C22 1.392 . S
C21 H50 0.947 . S
C22 C21 1.392 . S
C22 C23 1.419 . S
C22 H51 0.948 . S
C23 C22 1.419 . S
C23 C24 1.391 . S
C23 C27 1.397 . S
C24 C19 1.391 . S
C24 C23 1.391 . S
C24 C25 1.399 . S
C25 C24 1.399 . S
C25 C26 1.396 . S
C25 C28 1.453 . S
C25 C29 1.684 . S
C26 C7 1.723 . S
C26 C25 1.396 . S
C26 C27 1.394 . S
C27 C23 1.397 . S
C27 C26 1.394 . S
C27 C37 1.723 . S
C28 C25 1.453 . S
C28 H52 0.982 . S
C28 H53 0.979 . S
C28 H54 0.977 . S
C29 C25 1.684 . S
C29 H55 0.979 . S
C29 H56 0.980 . S
C29 H57 0.983 . S
C30 H6 0.948 . S
C30 C31 1.391 . S
C30 C35 1.391 . S
C31 C30 1.391 . S
C31 C32 1.391 . S
C32 H9 0.947 . S
C32 C31 1.391 . S
C32 C33 1.392 . S
C33 H10 0.948 . S
C33 C32 1.392 . S
C33 C34 1.419 . S
C34 C33 1.419 . S
C34 C35 1.391 . S
C34 C38 1.397 . S
C35 C30 1.391 . S
C35 C34 1.391 . S
C35 C36 1.399 . S
C36 C35 1.399 . S
C36 C37 1.396 . S
C36 C39 1.453 . S
C36 C40 1.684 . S
C37 C27 1.723 . S
C37 C36 1.396 . S
C37 C38 1.394 . S
C38 C8 1.723 . S
C38 C34 1.397 . S
C38 C37 1.394 . S
C39 H11 0.982 . S
C39 H15 0.979 . S
C39 H16 0.977 . S
C39 C36 1.453 . S
C40 H12 0.979 . S
C40 H13 0.980 . S
C40 H14 0.983 . S
C40 C36 1.684 . S
H41 C59 0.948 . S
H42 C0 0.948 . S
H43 C18 0.979 . S
H44 C18 0.980 . S
H45 C18 0.983 . S
H46 C17 0.982 . S
H47 C17 0.979 . S
H48 C17 0.977 . S
H49 C19 0.948 . S
H50 C21 0.947 . S
H51 C22 0.948 . S
H52 C28 0.982 . S
H53 C28 0.979 . S
H54 C28 0.977 . S
H55 C29 0.979 . S
H56 C29 0.980 . S
H57 C29 0.983 . S
H58 C2 0.947 . S
C59 C2 1.392 . S
C59 C3 1.419 . S
C59 H41 0.948 . S
C60 C61 1.391 . S
C60 C64 1.391 . S
C60 H102 0.948 . S
C61 C60 1.391 . S
C61 C62 1.391 . S
C62 C61 1.391 . S
C62 H118 0.947 . S
C62 C119 1.392 . S
C63 C64 1.391 . S
C63 C67 1.397 . S
C63 C119 1.419 . S
C64 C60 1.391 . S
C64 C63 1.391 . S
C64 C65 1.399 . S
C65 C64 1.399 . S
C65 C68 1.396 . S
C65 C77 1.453 . S
C65 C78 1.684 . S
H66 C90 0.948 . S
C67 C63 1.397 . S
C67 C68 1.394 . S
C67 C86 1.723 . S
C68 C65 1.396 . S
C68 C67 1.394 . S
C68 C98 1.723 . S
H69 C92 0.947 . S
H70 C93 0.948 . S
H71 C99 0.982 . S
H72 C100 0.979 . S
H73 C100 0.980 . S
H74 C100 0.983 . S
H75 C99 0.979 . S
H76 C99 0.977 . S
C77 C65 1.453 . S
C77 H106 0.982 . S
C77 H107 0.979 . S
C77 H108 0.977 . S
C78 C65 1.684 . S
C78 H103 0.979 . S
C78 H104 0.980 . S
C78 H105 0.983 . S
C79 C80 1.391 . S
C79 C84 1.391 . S
C79 H109 0.948 . S
C80 C79 1.391 . S
C80 C81 1.391 . S
C81 C80 1.391 . S
C81 C82 1.392 . S
C81 H110 0.947 . S
C82 C81 1.392 . S
C82 C83 1.419 . S
C82 H111 0.948 . S
C83 C82 1.419 . S
C83 C84 1.391 . S
C83 C87 1.397 . S
C84 C79 1.391 . S
C84 C83 1.391 . S
C84 C85 1.399 . S
C85 C84 1.399 . S
C85 C86 1.396 . S
C85 C88 1.453 . S
C85 C89 1.684 . S
C86 C67 1.723 . S
C86 C85 1.396 . S
C86 C87 1.394 . S
C87 C83 1.397 . S
C87 C86 1.394 . S
C87 C97 1.723 . S
C88 C85 1.453 . S
C88 H112 0.982 . S
C88 H113 0.979 . S
C88 H114 0.977 . S
C89 C85 1.684 . S
C89 H115 0.979 . S
C89 H116 0.980 . S
C89 H117 0.983 . S
C90 H66 0.948 . S
C90 C91 1.391 . S
C90 C95 1.391 . S
C91 C90 1.391 . S
C91 C92 1.391 . S
C92 H69 0.947 . S
C92 C91 1.391 . S
C92 C93 1.392 . S
C93 H70 0.948 . S
C93 C92 1.392 . S
C93 C94 1.419 . S
C94 C93 1.419 . S
C94 C95 1.391 . S
C94 C98 1.397 . S
C95 C90 1.391 . S
C95 C94 1.391 . S
C95 C96 1.399 . S
C96 C95 1.399 . S
C96 C97 1.396 . S
C96 C99 1.453 . S
C96 C100 1.684 . S
C97 C87 1.723 . S
C97 C96 1.396 . S
C97 C98 1.394 . S
C98 C68 1.723 . S
C98 C94 1.397 . S
C98 C97 1.394 . S
C99 H71 0.982 . S
C99 H75 0.979 . S
C99 H76 0.977 . S
C99 C96 1.453 . S
C100 H72 0.979 . S
C100 H73 0.980 . S
C100 H74 0.983 . S
C100 C96 1.684 . S
H101 C119 0.948 . S
H102 C60 0.948 . S
H103 C78 0.979 . S
H104 C78 0.980 . S
H105 C78 0.983 . S
H106 C77 0.982 . S
H107 C77 0.979 . S
H108 C77 0.977 . S
H109 C79 0.948 . S
H110 C81 0.947 . S
H111 C82 0.948 . S
H112 C88 0.982 . S
H113 C88 0.979 . S
H114 C88 0.977 . S
H115 C89 0.979 . S
H116 C89 0.980 . S
H117 C89 0.983 . S
H118 C62 0.947 . S
C119 C62 1.392 . S
C119 C63 1.419 . S
C119 H101 0.948 . S
C120 C121 1.391 . S
C120 C124 1.391 . S
C120 H162 0.948 . S
C121 C120 1.391 . S
C121 C122 1.391 . S
C122 C121 1.391 . S
C122 H178 0.947 . S
C122 C179 1.392 . S
C123 C124 1.391 . S
C123 C127 1.397 . S
C123 C179 1.419 . S
C124 C120 1.391 . S
C124 C123 1.391 . S
C124 C125 1.399 . S
C125 C124 1.399 . S
C125 C128 1.396 . S
C125 C137 1.453 . S
C125 C138 1.684 . S
H126 C150 0.948 . S
C127 C123 1.397 . S
C127 C128 1.394 . S
C127 C146 1.723 . S
C128 C125 1.396 . S
C128 C127 1.394 . S
C128 C158 1.723 . S
H129 C152 0.947 . S
H130 C153 0.948 . S
H131 C159 0.982 . S
H132 C160 0.979 . S
H133 C160 0.980 . S
H134 C160 0.983 . S
H135 C159 0.979 . S
H136 C159 0.977 . S
C137 C125 1.453 . S
C137 H166 0.982 . S
C137 H167 0.979 . S
C137 H168 0.977 . S
C138 C125 1.684 . S
C138 H163 0.979 . S
C138 H164 0.980 . S
C138 H165 0.983 . S
C139 C140 1.391 . S
C139 C144 1.391 . S
C139 H169 0.948 . S
C140 C139 1.391 . S
C140 C141 1.391 . S
C141 C140 1.391 . S
C141 C142 1.392 . S
C141 H170 0.947 . S
C142 C141 1.392 . S
C142 C143 1.419 . S
C142 H171 0.948 . S
C143 C142 1.419 . S
C143 C144 1.391 . S
C143 C147 1.397 . S
C144 C139 1.391 . S
C144 C143 1.391 . S
C144 C145 1.399 . S
C145 C144 1.399 . S
C145 C146 1.396 . S
C145 C148 1.453 . S
C145 C149 1.684 . S
C146 C127 1.723 . S
C146 C145 1.396 . S
C146 C147 1.394 . S
C147 C143 1.397 . S
C147 C146 1.394 . S
C147 C157 1.723 . S
C148 C145 1.453 . S
C148 H172 0.982 . S
C148 H173 0.979 . S
C148 H174 0.977 . S
C149 C145 1.684 . S
C149 H175 0.979 . S
C149 H176 0.980 . S
C149 H177 0.983 . S
C150 H126 0.948 . S
C150 C151 1.391 . S
C150 C155 1.391 . S
C151 C150 1.391 . S
C151 C152 1.391 . S
C152 H129 0.947 . S
C152 C151 1.391 . S
C152 C153 1.392 . S
C153 H130 0.948 . S
C153 C152 1.392 . S
C153 C154 1.419 . S
C154 C153 1.419 . S
C154 C155 1.391 . S
C154 C158 1.397 . S
C155 C150 1.391 . S
C155 C154 1.391 . S
C155 C156 1.399 . S
C156 C155 1.399 . S
C156 C157 1.396 . S
C156 C159 1.453 . S
C156 C160 1.684 . S
C157 C147 1.723 . S
C157 C156 1.396 . S
C157 C158 1.394 . S
C158 C128 1.723 . S
C158 C154 1.397 . S
C158 C157 1.394 . S
C159 H131 0.982 . S
C159 H135 0.979 . S
C159 H136 0.977 . S
C159 C156 1.453 . S
C160 H132 0.979 . S
C160 H133 0.980 . S
C160 H134 0.983 . S
C160 C156 1.684 . S
H161 C179 0.948 . S
H162 C120 0.948 . S
H163 C138 0.979 . S
H164 C138 0.980 . S
H165 C138 0.983 . S
H166 C137 0.982 . S
H167 C137 0.979 . S
H168 C137 0.977 . S
H169 C139 0.948 . S
H170 C141 0.947 . S
H171 C142 0.948 . S
H172 C148 0.982 . S
H173 C148 0.979 . S
H174 C148 0.977 . S
H175 C149 0.979 . S
H176 C149 0.980 . S
H177 C149 0.983 . S
H178 C122 0.947 . S
C179 C122 1.392 . S
C179 C123 1.419 . S
C179 H161 0.948 . S
C180 C181 1.391 . S
C180 C184 1.391 . S
C180 H222 0.948 . S
C181 C180 1.391 . S
C181 C182 1.391 . S
C182 C181 1.391 . S
C182 H238 0.947 . S
C182 C239 1.392 . S
C183 C184 1.391 . S
C183 C187 1.397 . S
C183 C239 1.419 . S
C184 C180 1.391 . S
C184 C183 1.391 . S
C184 C185 1.399 . S
C185 C184 1.399 . S
C185 C188 1.396 . S
C185 C197 1.453 . S
C185 C198 1.684 . S
H186 C210 0.948 . S
C187 C183 1.397 . S
C187 C188 1.394 . S
C187 C206 1.723 . S
C188 C185 1.396 . S
C188 C187 1.394 . S
C188 C218 1.723 . S
H189 C212 0.947 . S
H190 C213 0.948 . S
H191 C219 0.982 . S
H192 C220 0.979 . S
H193 C220 0.980 . S
H194 C220 0.983 . S
H195 C219 0.979 . S
H196 C219 0.977 . S
C197 C185 1.453 . S
C197 H226 0.982 . S
C197 H227 0.979 . S
C197 H228 0.977 . S
C198 C185 1.684 . S
C198 H223 0.979 . S
C198 H224 0.980 . S
C198 H225 0.983 . S
C199 C200 1.391 . S
C199 C204 1.391 . S
C199 H229 0.948 . S
C200 C199 1.391 . S
C200 C201 1.391 . S
C201 C200 1.391 . S
C201 C202 1.392 . S
C201 H230 0.947 . S
C202 C201 1.392 . S
C202 C203 1.419 . S
C202 H231 0.948 . S
C203 C202 1.419 . S
C203 C204 1.391 . S
C203 C207 1.397 . S
C204 C199 1.391 . S
C204 C203 1.391 . S
C204 C205 1.399 . S
C205 C204 1.399 . S
C205 C206 1.396 . S
C205 C208 1.453 . S
C205 C209 1.684 . S
C206 C187 1.723 . S
C206 C205 1.396 . S
C206 C207 1.394 . S
C207 C203 1.397 . S
C207 C206 1.394 . S
C207 C217 1.723 . S
C208 C205 1.453 . S
C208 H232 0.982 . S
C208 H233 0.979 . S
C208 H234 0.977 . S
C209 C205 1.684 . S
C209 H235 0.979 . S
C209 H236 0.980 . S
C209 H237 0.983 . S
C210 H186 0.948 . S
C210 C211 1.391 . S
C210 C215 1.391 . S
C211 C210 1.391 . S
C211 C212 1.391 . S
C212 H189 0.947 . S
C212 C211 1.391 . S
C212 C213 1.392 . S
C213 H190 0.948 . S
C213 C212 1.392 . S
C213 C214 1.419 . S
C214 C213 1.419 . S
C214 C215 1.391 . S
C214 C218 1.397 . S
C215 C210 1.391 . S
C215 C214 1.391 . S
C215 C216 1.399 . S
C216 C215 1.399 . S
C216 C217 1.396 . S
C216 C219 1.453 . S
C216 C220 1.684 . S
C217 C207 1.723 . S
C217 C216 1.396 . S
C217 C218 1.394 . S
C218 C188 1.723 . S
C218 C214 1.397 . S
C218 C217 1.394 . S
C219 H191 0.982 . S
C219 H195 0.979 . S
C219 H196 0.977 . S
C219 C216 1.453 . S
C220 H192 0.979 . S
C220 H193 0.980 . S
C220 H194 0.983 . S
C220 C216 1.684 . S
H221 C239 0.948 . S
H222 C180 0.948 . S
H223 C198 0.979 . S
H224 C198 0.980 . S
H225 C198 0.983 . S
H226 C197 0.982 . S
H227 C197 0.979 . S
H228 C197 0.977 . S
H229 C199 0.948 . S
H230 C201 0.947 . S
H231 C202 0.948 . S
H232 C208 0.982 . S
H233 C208 0.979 . S
H234 C208 0.977 . S
H235 C209 0.979 . S
H236 C209 0.980 . S
H237 C209 0.983 . S
H238 C182 0.947 . S
C239 C182 1.392 . S
C239 C183 1.419 . S
C239 H221 0.948 . S
C240 C241 1.391 . S
C240 C244 1.391 . S
C240 H282 0.948 . S
C241 C240 1.391 . S
C241 C242 1.391 . S
C242 C241 1.391 . S
C242 H298 0.947 . S
C242 C299 1.392 . S
C243 C244 1.391 . S
C243 C247 1.397 . S
C243 C299 1.419 . S
C244 C240 1.391 . S
C244 C243 1.391 . S
C244 C245 1.399 . S
C245 C244 1.399 . S
C245 C248 1.396 . S
C245 C257 1.453 . S
C245 C258 1.684 . S
H246 C270 0.948 . S
C247 C243 1.397 . S
C247 C248 1.394 . S
C247 C266 1.723 . S
C248 C245 1.396 . S
C248 C247 1.394 . S
C248 C278 1.723 . S
H249 C272 0.947 . S
H250 C273 0.948 . S
H251 C279 0.982 . S
H252 C280 0.979 . S
H253 C280 0.980 . S
H254 C280 0.983 . S
H255 C279 0.979 . S
H256 C279 0.977 . S
C257 C245 1.453 . S
C257 H286 0.982 . S
C257 H287 0.979 . S
C257 H288 0.977 . S
C258 C245 1.684 . S
C258 H283 0.979 . S
C258 H284 0.980 . S
C258 H285 0.983 . S
C259 C260 1.391 . S
C259 C264 1.391 . S
C259 H289 0.948 . S
C260 C259 1.391 . S
C260 C261 1.391 . S
C261 C260 1.391 . S
C261 C262 1.392 . S
C261 H290 0.947 . S
C262 C261 1.392 . S
C262 C263 1.419 . S
C262 H291 0.948 . S
C263 C262 1.419 . S
C263 C264 1.391 . S
C263 C267 1.397 . S
C264 C259 1.391 . S
C264 C263 1.391 . S
C264 C265 1.399 . S
C265 C264 1.399 . S
C265 C266 1.396 . S
C265 C268 1.453 . S
C265 C269 1.684 . S
C266 C247 1.723 . S
C266 C265 1.396 . S
C266 C267 1.394 . S
C267 C263 1.397 . S
C267 C266 1.394 . S
C267 C277 1.723 . S
C268 C265 1.453 . S
C268 H292 0.982 . S
C268 H293 0.979 . S
C268 H294 0.977 . S
C269 C265 1.684 . S
C269 H295 0.979 . S
C269 H296 0.980 . S
C269 H297 0.983 . S
C270 H246 0.948 . S
C270 C271 1.391 . S
C270 C275 1.391 . S
C271 C270 1.391 . S
C271 C272 1.391 . S
C272 H249 0.947 . S
C272 C271 1.391 . S
C272 C273 1.392 . S
C273 H250 0.948 . S
C273 C272 1.392 . S
C273 C274 1.419 . S
C274 C273 1.419 . S
C274 C275 1.391 . S
C274 C278 1.397 . S
C275 C270 1.391 . S
C275 C274 1.391 . S
C275 C276 1.399 . S
C276 C275 1.399 . S
C276 C277 1.396 . S
C276 C279 1.453 . S
C276 C280 1.684 . S
C277 C267 1.723 . S
C277 C276 1.396 . S
C277 C278 1.394 . S
C278 C248 1.723 . S
C278 C274 1.397 . S
C278 C277 1.394 . S
C279 H251 0.982 . S
C279 H255 0.979 . S
C279 H256 0.977 . S
C279 C276 1.453 . S
C280 H252 0.979 . S
C280 H253 0.980 . S
C280 H254 0.983 . S
C280 C276 1.684 . S
H281 C299 0.948 . S
H282 C240 0.948 . S
H283 C258 0.979 . S
H284 C258 0.980 . S
H285 C258 0.983 . S
H286 C257 0.982 . S
H287 C257 0.979 . S
H288 C257 0.977 . S
H289 C259 0.948 . S
H290 C261 0.947 . S
H291 C262 0.948 . S
H292 C268 0.982 . S
H293 C268 0.979 . S
H294 C268 0.977 . S
H295 C269 0.979 . S
H296 C269 0.980 . S
H297 C269 0.983 . S
H298 C242 0.947 . S
C299 C242 1.392 . S
C299 C243 1.419 . S
C299 H281 0.948 . S
C300 C301 1.391 . S
C300 C304 1.391 . S
C300 H342 0.948 . S
C301 C300 1.391 . S
C301 C302 1.391 . S
C302 C301 1.391 . S
C302 H358 0.947 . S
C302 C359 1.392 . S
C303 C304 1.391 . S
C303 C307 1.397 . S
C303 C359 1.419 . S
C304 C300 1.391 . S
C304 C303 1.391 . S
C304 C305 1.399 . S
C305 C304 1.399 . S
C305 C308 1.396 . S
C305 C317 1.453 . S
C305 C318 1.684 . S
H306 C330 0.948 . S
C307 C303 1.397 . S
C307 C308 1.394 . S
C307 C326 1.723 . S
C308 C305 1.396 . S
C308 C307 1.394 . S
C308 C338 1.723 . S
H309 C332 0.947 . S
H310 C333 0.948 . S
H311 C339 0.982 . S
H312 C340 0.979 . S
H313 C340 0.980 . S
H314 C340 0.983 . S
H315 C339 0.979 . S
H316 C339 0.977 . S
C317 C305 1.453 . S
C317 H346 0.982 . S
C317 H347 0.979 . S
C317 H348 0.977 . S
C318 C305 1.684 . S
C318 H343 0.979 . S
C318 H344 0.980 . S
C318 H345 0.983 . S
C319 C320 1.391 . S
C319 C324 1.391 . S
C319 H349 0.948 . S
C320 C319 1.391 . S
C320 C321 1.391 . S
C321 C320 1.391 . S
C321 C322 1.392 . S
C321 H350 0.947 . S
C322 C321 1.392 . S
C322 C323 1.419 . S
C322 H351 0.948 . S
C323 C322 1.419 . S
C323 C324 1.391 . S
C323 C327 1.397 . S
C324 C319 1.391 . S
C324 C323 1.391 . S
C324 C325 1.399 . S
C325 C324 1.399 . S
C325 C326 1.396 . S
C325 C328 1.453 . S
C325 C329 1.684 . S
C326 C307 1.723 . S
C326 C325 1.396 . S
C326 C327 1.394 . S
C327 C323 1.397 . S
C327 C326 1.394 . S
C327 C337 1.723 . S
C328 C325 1.453 . S
C328 H352 0.982 . S
C328 H353 0.979 . S
C328 H354 0.977 . S
C329 C325 1.684 . S
C329 H355 0.979 . S
C329 H356 0.980 . S
C329 H357 0.983 . S
C330 H306 0.948 . S
C330 C331 1.391 . S
C330 C335 1.391 . S
C331 C330 1.391 . S
C331 C332 1.391 . S
C332 H309 0.947 . S
C332 C331 1.391 . S
C332 C333 1.392 . S
C333 H310 0.948 . S
C333 C332 1.392 . S
C333 C334 1.419 . S
C334 C333 1.419 . S
C334 C335 1.391 . S
C334 C338 1.397 . S
C335 C330 1.391 . S
C335 C334 1.391 . S
C335 C336 1.399 . S
C336 C335 1.399 . S
C336 C337 1.396 . S
C336 C339 1.453 . S
C336 C340 1.684 . S
C337 C327 1.723 . S
C337 C336 1.396 . S
C337 C338 1.394 . S
C338 C308 1.723 . S
C338 C334 1.397 . S
C338 C337 1.394 . S
C339 H311 0.982 . S
C339 H315 0.979 . S
C339 H316 0.977 . S
C339 C336 1.453 . S
C340 H312 0.979 . S
C340 H313 0.980 . S
C340 H314 0.983 . S
C340 C336 1.684 . S
H341 C359 0.948 . S
H342 C300 0.948 . S
H343 C318 0.979 . S
H344 C318 0.980 . S
H345 C318 0.983 . S
H346 C317 0.982 . S
H347 C317 0.979 . S
H348 C317 0.977 . S
H349 C319 0.948 . S
H350 C321 0.947 . S
H351 C322 0.948 . S
H352 C328 0.982 . S
H353 C328 0.979 . S
H354 C328 0.977 . S
H355 C329 0.979 . S
H356 C329 0.980 . S
H357 C329 0.983 . S
H358 C302 0.947 . S
C359 C302 1.392 . S
C359 C303 1.419 . S
C359 H341 0.948 . S
C360 C361 1.391 . S
C360 C364 1.391 . S
C360 H402 0.948 . S
C361 C360 1.391 . S
C361 C362 1.391 . S
C362 C361 1.391 . S
C362 H418 0.947 . S
C362 C419 1.392 . S
C363 C364 1.391 . S
C363 C367 1.397 . S
C363 C419 1.419 . S
C364 C360 1.391 . S
C364 C363 1.391 . S
C364 C365 1.399 . S
C365 C364 1.399 . S
C365 C368 1.396 . S
C365 C377 1.453 . S
C365 C378 1.684 . S
H366 C390 0.948 . S
C367 C363 1.397 . S
C367 C368 1.394 . S
C367 C386 1.723 . S
C368 C365 1.396 . S
C368 C367 1.394 . S
C368 C398 1.723 . S
H369 C392 0.947 . S
H370 C393 0.948 . S
H371 C399 0.982 . S
H372 C400 0.979 . S
H373 C400 0.980 . S
H374 C400 0.983 . S
H375 C399 0.979 . S
H376 C399 0.977 . S
C377 C365 1.453 . S
C377 H406 0.982 . S
C377 H407 0.979 . S
C377 H408 0.977 . S
C378 C365 1.684 . S
C378 H403 0.979 . S
C378 H404 0.980 . S
C378 H405 0.983 . S
C379 C380 1.391 . S
C379 C384 1.391 . S
C379 H409 0.948 . S
C380 C379 1.391 . S
C380 C381 1.391 . S
C381 C380 1.391 . S
C381 C382 1.392 . S
C381 H410 0.947 . S
C382 C381 1.392 . S
C382 C383 1.419 . S
C382 H411 0.948 . S
C383 C382 1.419 . S
C383 C384 1.391 . S
C383 C387 1.397 . S
C384 C379 1.391 . S
C384 C383 1.391 . S
C384 C385 1.399 . S
C385 C384 1.399 . S
C385 C386 1.396 . S
C385 C388 1.453 . S
C385 C389 1.684 . S
C386 C367 1.723 . S
C386 C385 1.396 . S
C386 C387 1.394 . S
C387 C383 1.397 . S
C387 C386 1.394 . S
C387 C397 1.723 . S
C388 C385 1.453 . S
C388 H412 0.982 . S
C388 H413 0.979 . S
C388 H414 0.977 . S
C389 C385 1.684 . S
C389 H415 0.979 . S
C389 H416 0.980 . S
C389 H417 0.983 . S
C390 H366 0.948 . S
C390 C391 1.391 . S
C390 C395 1.391 . S
C391 C390 1.391 . S
C391 C392 1.391 . S
C392 H369 0.947 . S
C392 C391 1.391 . S
C392 C393 1.392 . S
C393 H370 0.948 . S
C393 C392 1.392 . S
C393 C394 1.419 . S
C394 C393 1.419 . S
C394 C395 1.391 . S
C394 C398 1.397 . S
C395 C390 1.391 . S
C395 C394 1.391 . S
C395 C396 1.399 . S
C396 C395 1.399 . S
C396 C397 1.396 . S
C396 C399 1.453 . S
C396 C400 1.684 . S
C397 C387 1.723 . S
C397 C396 1.396 . S
C397 C398 1.394 . S
C398 C368 1.723 . S
C398 C394 1.397 . S
C398 C397 1.394 . S
C399 H371 0.982 . S
C399 H375 0.979 . S
C399 H376 0.977 . S
C399 C396 1.453 . S
C400 H372 0.979 . S
C400 H373 0.980 . S
C400 H374 0.983 . S
C400 C396 1.684 . S
H401 C419 0.948 . S
H402 C360 0.948 . S
H403 C378 0.979 . S
H404 C378 0.980 . S
H405 C378 0.983 . S
H406 C377 0.982 . S
H407 C377 0.979 . S
H408 C377 0.977 . S
H409 C379 0.948 . S
H410 C381 0.947 . S
H411 C382 0.948 . S
H412 C388 0.982 . S
H413 C388 0.979 . S
H414 C388 0.977 . S
H415 C389 0.979 . S
H416 C389 0.980 . S
H417 C389 0.983 . S
H418 C362 0.947 . S
C419 C362 1.392 . S
C419 C363 1.419 . S
C419 H401 0.948 . S
C420 C421 1.391 . S
C420 C424 1.391 . S
C420 H462 0.948 . S
C421 C420 1.391 . S
C421 C422 1.391 . S
C422 C421 1.391 . S
C422 H478 0.947 . S
C422 C479 1.392 . S
C423 C424 1.391 . S
C423 C427 1.397 . S
C423 C479 1.419 . S
C424 C420 1.391 . S
C424 C423 1.391 . S
C424 C425 1.399 . S
C425 C424 1.399 . S
C425 C428 1.396 . S
C425 C437 1.453 . S
C425 C438 1.684 . S
H426 C450 0.948 . S
C427 C423 1.397 . S
C427 C428 1.394 . S
C427 C446 1.723 . S
C428 C425 1.396 . S
C428 C427 1.394 . S
C428 C458 1.723 . S
H429 C452 0.947 . S
H430 C453 0.948 . S
H431 C459 0.982 . S
H432 C460 0.979 . S
H433 C460 0.980 . S
H434 C460 0.983 . S
H435 C459 0.979 . S
H436 C459 0.977 . S
C437 C425 1.453 . S
C437 H466 0.982 . S
C437 H467 0.979 . S
C437 H468 0.977 . S
C438 C425 1.684 . S
C438 H463 0.979 . S
C438 H464 0.980 . S
C438 H465 0.983 . S
C439 C440 1.391 . S
C439 C444 1.391 . S
C439 H469 0.948 . S
C440 C439 1.391 . S
C440 C441 1.391 . S
C441 C440 1.391 . S
C441 C442 1.392 . S
C441 H470 0.947 . S
C442 C441 1.392 . S
C442 C443 1.419 . S
C442 H471 0.948 . S
C443 C442 1.419 . S
C443 C444 1.391 . S
C443 C447 1.397 . S
C444 C439 1.391 . S
C444 C443 1.391 . S
C444 C445 1.399 . S
C445 C444 1.399 . S
C445 C446 1.396 . S
C445 C448 1.453 . S
C445 C449 1.684 . S
C446 C427 1.723 . S
C446 C445 1.396 . S
C446 C447 1.394 . S
C447 C443 1.397 . S
C447 C446 1.394 . S
C447 C457 1.723 . S
C448 C445 1.453 . S
C448 H472 0.982 . S
C448 H473 0.979 . S
C448 H474 0.977 . S
C449 C445 1.684 . S
C449 H475 0.979 . S
C449 H476 0.980 . S
C449 H477 0.983 . S
C450 H426 0.948 . S
C450 C451 1.391 . S
C450 C455 1.391 . S
C451 C450 1.391 . S
C451 C452 1.391 . S
C452 H429 0.947 . S
C452 C451 1.391 . S
C452 C453 1.392 . S
C453 H430 0.948 . S
C453 C452 1.392 . S
C453 C454 1.419 . S
C454 C453 1.419 . S
C454 C455 1.391 . S
C454 C458 1.397 . S
C455 C450 1.391 . S
C455 C454 1.391 . S
C455 C456 1.399 . S
C456 C455 1.399 . S
C456 C457 1.396 . S
C456 C459 1.453 . S
C456 C460 1.684 . S
C457 C447 1.723 . S
C457 C456 1.396 . S
C457 C458 1.394 . S
C458 C428 1.723 . S
C458 C454 1.397 . S
C458 C457 1.394 . S
C459 H431 0.982 . S
C459 H435 0.979 . S
C459 H436 0.977 . S
C459 C456 1.453 . S
C460 H432 0.979 . S
C460 H433 0.980 . S
C460 H434 0.983 . S
C460 C456 1.684 . S
H461 C479 0.948 . S
H462 C420 0.948 . S
H463 C438 0.979 . S
H464 C438 0.980 . S
H465 C438 0.983 . S
H466 C437 0.982 . S
H467 C437 0.979 . S
H468 C437 0.977 . S
H469 C439 0.948 . S
H470 C441 0.947 . S
H471 C442 0.948 . S
H472 C448 0.982 . S
H473 C448 0.979 . S
H474 C448 0.977 . S
H475 C449 0.979 . S
H476 C449 0.980 . S
H477 C449 0.983 . S
H478 C422 0.947 . S
C479 C422 1.392 . S
C479 C423 1.419 . S
C479 H461 0.948 . S
C480 O482 1.247 . S
C480 O484 1.258 . S
C481 O488 1.247 . S
C481 O489 1.258 . S
O482 C480 1.247 . S
O482 Zn483 2.027 1_655 S
Zn483 O482 2.027 1_455 S
Zn483 O487 2.036 . S
Zn483 O489 2.036 . S
Zn483 O490 2.027 1_455 S
O484 C480 1.258 . S
O484 Zn485 2.020 1_655 S
Zn485 O484 2.020 1_455 S
Zn485 O486 2.043 . S
Zn485 O488 2.043 . S
Zn485 O491 2.020 1_455 S
O486 Zn485 2.043 . S
O486 C492 1.247 . S
O487 Zn483 2.036 . S
O487 C492 1.258 . S
O488 C481 1.247 . S
O488 Zn485 2.043 . S
O489 C481 1.258 . S
O489 Zn483 2.036 . S
O490 Zn483 2.027 1_655 S
O490 C493 1.247 . S
O491 Zn485 2.020 1_655 S
O491 C493 1.258 . S
C492 O486 1.247 . S
C492 O487 1.258 . S
C493 O490 1.247 . S
C493 O491 1.258 . S
C494 O496 1.247 . S
C494 O498 1.258 . S
C495 O502 1.247 . S
C495 O503 1.258 . S
O496 C494 1.247 . S
O496 Zn497 2.027 1_655 S
Zn497 O496 2.027 1_455 S
Zn497 O501 2.036 . S
Zn497 O503 2.036 . S
Zn497 O504 2.027 1_455 S
O498 C494 1.258 . S
O498 Zn499 2.020 1_655 S
Zn499 O498 2.020 1_455 S
Zn499 O500 2.043 . S
Zn499 O502 2.043 . S
Zn499 O505 2.020 1_455 S
O500 Zn499 2.043 . S
O500 C506 1.247 . S
O501 Zn497 2.036 . S
O501 C506 1.258 . S
O502 C495 1.247 . S
O502 Zn499 2.043 . S
O503 C495 1.258 . S
O503 Zn497 2.036 . S
O504 Zn497 2.027 1_655 S
O504 C507 1.247 . S
O505 Zn499 2.020 1_655 S
O505 C507 1.258 . S
C506 O500 1.247 . S
C506 O501 1.258 . S
C507 O504 1.247 . S
C507 O505 1.258 . S
C508 O510 1.247 . S
C508 O512 1.258 . S
C509 O516 1.247 . S
C509 O517 1.258 . S
O510 C508 1.247 . S
O510 Zn511 2.030 . S
Zn511 O510 2.030 . S
Zn511 O515 2.033 1_565 S
Zn511 O517 2.033 1_565 S
Zn511 O518 2.030 . S
O512 C508 1.258 . S
O512 Zn513 2.028 1_565 S
Zn513 O512 2.028 1_545 S
Zn513 O514 2.035 . S
Zn513 O516 2.035 . S
Zn513 O519 2.028 1_545 S
O514 Zn513 2.035 . S
O514 C520 1.247 . S
O515 Zn511 2.033 1_545 S
O515 C520 1.258 . S
O516 C509 1.247 . S
O516 Zn513 2.035 . S
O517 C509 1.258 . S
O517 Zn511 2.033 1_545 S
O518 Zn511 2.030 . S
O518 C521 1.247 . S
O519 Zn513 2.028 1_565 S
O519 C521 1.258 . S
C520 O514 1.247 . S
C520 O515 1.258 . S
C521 O518 1.247 . S
C521 O519 1.258 . S
C522 O524 1.247 . S
C522 O526 1.258 . S
C523 O530 1.247 . S
C523 O531 1.258 . S
O524 C522 1.247 . S
O524 Zn525 2.028 . S
Zn525 O524 2.028 . S
Zn525 O529 2.035 . S
Zn525 O531 2.035 1_554 S
Zn525 O532 2.028 1_554 S
O526 C522 1.258 . S
O526 Zn527 2.035 . S
Zn527 O526 2.035 . S
Zn527 O528 2.028 . S
Zn527 O530 2.028 1_554 S
Zn527 O533 2.035 1_554 S
O528 Zn527 2.028 . S
O528 C534 1.247 . S
O529 Zn525 2.035 . S
O529 C534 1.258 . S
O530 C523 1.247 . S
O530 Zn527 2.028 1_556 S
O531 C523 1.258 . S
O531 Zn525 2.035 1_556 S
O532 Zn525 2.028 1_556 S
O532 C535 1.247 . S
O533 Zn527 2.035 1_556 S
O533 C535 1.258 . S
C534 O528 1.247 . S
C534 O529 1.258 . S
C535 O532 1.247 . S
C535 O533 1.258 . S
C536 O538 1.247 . S
C536 O540 1.258 . S
C537 O544 1.247 . S
C537 O545 1.258 . S
O538 C536 1.247 . S
O538 Zn539 2.030 . S
Zn539 O538 2.030 . S
Zn539 O543 2.033 1_565 S
Zn539 O545 2.033 1_565 S
Zn539 O546 2.030 . S
O540 C536 1.258 . S
O540 Zn541 2.028 1_565 S
Zn541 O540 2.028 1_545 S
Zn541 O542 2.035 . S
Zn541 O544 2.035 . S
Zn541 O547 2.028 1_545 S
O542 Zn541 2.035 . S
O542 C548 1.247 . S
O543 Zn539 2.033 1_545 S
O543 C548 1.258 . S
O544 C537 1.247 . S
O544 Zn541 2.035 . S
O545 C537 1.258 . S
O545 Zn539 2.033 1_545 S
O546 Zn539 2.030 . S
O546 C549 1.247 . S
O547 Zn541 2.028 1_565 S
O547 C549 1.258 . S
C548 O542 1.247 . S
C548 O543 1.258 . S
C549 O546 1.247 . S
C549 O547 1.258 . S
C550 O552 1.247 . S
C550 O554 1.258 . S
C551 O558 1.247 . S
C551 O559 1.258 . S
O552 C550 1.247 . S
O552 Zn553 2.028 . S
Zn553 O552 2.028 . S
Zn553 O557 2.035 . S
Zn553 O559 2.035 1_554 S
Zn553 O560 2.028 1_554 S
O554 C550 1.258 . S
O554 Zn555 2.035 . S
Zn555 O554 2.035 . S
Zn555 O556 2.028 . S
Zn555 O558 2.028 1_554 S
Zn555 O561 2.035 1_554 S
O556 Zn555 2.028 . S
O556 C562 1.247 . S
O557 Zn553 2.035 . S
O557 C562 1.258 . S
O558 C551 1.247 . S
O558 Zn555 2.028 1_556 S
O559 C551 1.258 . S
O559 Zn553 2.035 1_556 S
O560 Zn553 2.028 1_556 S
O560 C563 1.247 . S
O561 Zn555 2.035 1_556 S
O561 C563 1.258 . S
C562 O556 1.247 . S
C562 O557 1.258 . S
C563 O560 1.247 . S
C563 O561 1.258 . S
C564 C565 1.387 . S
C564 H568 0.950 . S
C564 C573 1.390 . S
C565 C564 1.387 . S
C565 C567 1.387 . S
H566 C573 0.950 . S
C567 C565 1.387 . S
C567 C569 1.390 . S
C567 H571 0.950 . S
H568 C564 0.950 . S
C569 C567 1.390 . S
C569 C570 1.387 . S
C569 H572 0.950 . S
C570 C569 1.387 . S
C570 C573 1.387 . S
H571 C567 0.950 . S
H572 C569 0.950 . S
C573 C564 1.390 . S
C573 H566 0.950 . S
C573 C570 1.387 . S
C574 C575 1.387 . S
C574 H578 0.950 . S
C574 C583 1.390 . S
C575 C574 1.387 . S
C575 C577 1.387 . S
H576 C583 0.950 . S
C577 C575 1.387 . S
C577 C579 1.390 . S
C577 H581 0.950 . S
H578 C574 0.950 . S
C579 C577 1.390 . S
C579 C580 1.387 . S
C579 H582 0.950 . S
C580 C579 1.387 . S
C580 C583 1.387 . S
H581 C577 0.950 . S
H582 C579 0.950 . S
C583 C574 1.390 . S
C583 H576 0.950 . S
C583 C580 1.387 . S
C584 C585 1.387 . S
C584 H588 0.950 . S
C584 C593 1.390 . S
C585 C584 1.387 . S
C585 C587 1.387 . S
H586 C593 0.950 . S
C587 C585 1.387 . S
C587 C589 1.390 . S
C587 H591 0.950 . S
H588 C584 0.950 . S
C589 C587 1.390 . S
C589 C590 1.387 . S
C589 H592 0.950 . S
C590 C589 1.387 . S
C590 C593 1.387 . S
H591 C587 0.950 . S
H592 C589 0.950 . S
C593 C584 1.390 . S
C593 H586 0.950 . S
C593 C590 1.387 . S
C594 C595 1.387 . S
C594 H598 0.950 . S
C594 C603 1.390 . S
C595 C594 1.387 . S
C595 C597 1.387 . S
H596 C603 0.950 . S
C597 C595 1.387 . S
C597 C599 1.390 . S
C597 H601 0.950 . S
H598 C594 0.950 . S
C599 C597 1.390 . S
C599 C600 1.387 . S
C599 H602 0.950 . S
C600 C599 1.387 . S
C600 C603 1.387 . S
H601 C597 0.950 . S
H602 C599 0.950 . S
C603 C594 1.390 . S
C603 H596 0.950 . S
C603 C600 1.387 . S
C604 C605 1.387 . S
C604 H608 0.950 . S
C604 C613 1.390 . S
C605 C604 1.387 . S
C605 C607 1.387 . S
H606 C613 0.950 . S
C607 C605 1.387 . S
C607 C609 1.390 . S
C607 H611 0.950 . S
H608 C604 0.950 . S
C609 C607 1.390 . S
C609 C610 1.387 . S
C609 H612 0.950 . S
C610 C609 1.387 . S
C610 C613 1.387 . S
H611 C607 0.950 . S
H612 C609 0.950 . S
C613 C604 1.390 . S
C613 H606 0.950 . S
C613 C610 1.387 . S
C614 C615 1.387 . S
C614 H618 0.950 . S
C614 C623 1.390 . S
C615 C614 1.387 . S
C615 C617 1.387 . S
H616 C623 0.950 . S
C617 C615 1.387 . S
C617 C619 1.390 . S
C617 H621 0.950 . S
H618 C614 0.950 . S
C619 C617 1.390 . S
C619 C620 1.387 . S
C619 H622 0.950 . S
C620 C619 1.387 . S
C620 C623 1.387 . S
H621 C617 0.950 . S
H622 C619 0.950 . S
C623 C614 1.390 . S
C623 H616 0.950 . S
C623 C620 1.387 . S
C624 C625 1.387 . S
C624 H628 0.950 . S
C624 C633 1.390 . S
C625 C624 1.387 . S
C625 C627 1.387 . S
H626 C633 0.950 . S
C627 C625 1.387 . S
C627 C629 1.390 . S
C627 H631 0.950 . S
H628 C624 0.950 . S
C629 C627 1.390 . S
C629 C630 1.387 . S
C629 H632 0.950 . S
C630 C629 1.387 . S
C630 C633 1.387 . S
H631 C627 0.950 . S
H632 C629 0.950 . S
C633 C624 1.390 . S
C633 H626 0.950 . S
C633 C630 1.387 . S
C634 C635 1.387 . S
C634 H638 0.950 . S
C634 C643 1.390 . S
C635 C634 1.387 . S
C635 C637 1.387 . S
H636 C643 0.950 . S
C637 C635 1.387 . S
C637 C639 1.390 . S
C637 H641 0.950 . S
H638 C634 0.950 . S
C639 C637 1.390 . S
C639 C640 1.387 . S
C639 H642 0.950 . S
C640 C639 1.387 . S
C640 C643 1.387 . S
H641 C637 0.950 . S
H642 C639 0.950 . S
C643 C634 1.390 . S
C643 H636 0.950 . S
C643 C640 1.387 . S
C644 C645 1.387 . S
C644 H648 0.950 . S
C644 C653 1.390 . S
C645 C644 1.387 . S
C645 C647 1.387 . S
H646 C653 0.950 . S
C647 C645 1.387 . S
C647 C649 1.390 . S
C647 H651 0.950 . S
H648 C644 0.950 . S
C649 C647 1.390 . S
C649 C650 1.387 . S
C649 H652 0.950 . S
C650 C649 1.387 . S
C650 C653 1.387 . S
H651 C647 0.950 . S
H652 C649 0.950 . S
C653 C644 1.390 . S
C653 H646 0.950 . S
C653 C650 1.387 . S
C654 C655 1.387 . S
C654 H658 0.950 . S
C654 C663 1.390 . S
C655 C654 1.387 . S
C655 C657 1.387 . S
H656 C663 0.950 . S
C657 C655 1.387 . S
C657 C659 1.390 . S
C657 H661 0.950 . S
H658 C654 0.950 . S
C659 C657 1.390 . S
C659 C660 1.387 . S
C659 H662 0.950 . S
C660 C659 1.387 . S
C660 C663 1.387 . S
H661 C657 0.950 . S
H662 C659 0.950 . S
C663 C654 1.390 . S
C663 H656 0.950 . S
C663 C660 1.387 . S
C664 C665 1.387 . S
C664 H668 0.950 . S
C664 C673 1.390 . S
C665 C664 1.387 . S
C665 C667 1.387 . S
H666 C673 0.950 . S
C667 C665 1.387 . S
C667 C669 1.390 . S
C667 H671 0.950 . S
H668 C664 0.950 . S
C669 C667 1.390 . S
C669 C670 1.387 . S
C669 H672 0.950 . S
C670 C669 1.387 . S
C670 C673 1.387 . S
H671 C667 0.950 . S
H672 C669 0.950 . S
C673 C664 1.390 . S
C673 H666 0.950 . S
C673 C670 1.387 . S
C674 C675 1.387 . S
C674 H678 0.950 . S
C674 C683 1.390 . S
C675 C674 1.387 . S
C675 C677 1.387 . S
H676 C683 0.950 . S
C677 C675 1.387 . S
C677 C679 1.390 . S
C677 H681 0.950 . S
H678 C674 0.950 . S
C679 C677 1.390 . S
C679 C680 1.387 . S
C679 H682 0.950 . S
C680 C679 1.387 . S
C680 C683 1.387 . S
H681 C677 0.950 . S
H682 C679 0.950 . S
C683 C674 1.390 . S
C683 H676 0.950 . S
C683 C680 1.387 . S
C684 C685 1.387 . S
C684 H688 0.950 . S
C684 C693 1.390 . S
C685 C684 1.387 . S
C685 C687 1.387 . S
H686 C693 0.950 . S
C687 C685 1.387 . S
C687 C689 1.390 . S
C687 H691 0.950 . S
H688 C684 0.950 . S
C689 C687 1.390 . S
C689 C690 1.387 . S
C689 H692 0.950 . S
C690 C689 1.387 . S
C690 C693 1.387 . S
H691 C687 0.950 . S
H692 C689 0.950 . S
C693 C684 1.390 . S
C693 H686 0.950 . S
C693 C690 1.387 . S
C694 C695 1.387 . S
C694 H698 0.950 . S
C694 C703 1.390 . S
C695 C694 1.387 . S
C695 C697 1.387 . S
H696 C703 0.950 . S
C697 C695 1.387 . S
C697 C699 1.390 . S
C697 H701 0.950 . S
H698 C694 0.950 . S
C699 C697 1.390 . S
C699 C700 1.387 . S
C699 H702 0.950 . S
C700 C699 1.387 . S
C700 C703 1.387 . S
H701 C697 0.950 . S
H702 C699 0.950 . S
C703 C694 1.390 . S
C703 H696 0.950 . S
C703 C700 1.387 . S
C704 C705 1.387 . S
C704 H708 0.950 . S
C704 C713 1.390 . S
C705 C704 1.387 . S
C705 C707 1.387 . S
H706 C713 0.950 . S
C707 C705 1.387 . S
C707 C709 1.390 . S
C707 H711 0.950 . S
H708 C704 0.950 . S
C709 C707 1.390 . S
C709 C710 1.387 . S
C709 H712 0.950 . S
C710 C709 1.387 . S
C710 C713 1.387 . S
H711 C707 0.950 . S
H712 C709 0.950 . S
C713 C704 1.390 . S
C713 H706 0.950 . S
C713 C710 1.387 . S
C714 C715 1.387 . S
C714 H718 0.950 . S
C714 C723 1.390 . S
C715 C714 1.387 . S
C715 C717 1.387 . S
H716 C723 0.950 . S
C717 C715 1.387 . S
C717 C719 1.390 . S
C717 H721 0.950 . S
H718 C714 0.950 . S
C719 C717 1.390 . S
C719 C720 1.387 . S
C719 H722 0.950 . S
C720 C719 1.387 . S
C720 C723 1.387 . S
H721 C717 0.950 . S
H722 C719 0.950 . S
C723 C714 1.390 . S
C723 H716 0.950 . S
C723 C720 1.387 . S
C724 C725 1.387 . S
C724 H728 0.950 . S
C724 C733 1.390 . S
C725 C724 1.387 . S
C725 C727 1.387 . S
H726 C733 0.950 . S
C727 C725 1.387 . S
C727 C729 1.390 . S
C727 H731 0.950 . S
H728 C724 0.950 . S
C729 C727 1.390 . S
C729 C730 1.387 . S
C729 H732 0.950 . S
C730 C729 1.387 . S
C730 C733 1.387 . S
H731 C727 0.950 . S
H732 C729 0.950 . S
C733 C724 1.390 . S
C733 H726 0.950 . S
C733 C730 1.387 . S
C734 C735 1.387 . S
C734 H738 0.950 . S
C734 C743 1.390 . S
C735 C734 1.387 . S
C735 C737 1.387 . S
H736 C743 0.950 . S
C737 C735 1.387 . S
C737 C739 1.390 . S
C737 H741 0.950 . S
H738 C734 0.950 . S
C739 C737 1.390 . S
C739 C740 1.387 . S
C739 H742 0.950 . S
C740 C739 1.387 . S
C740 C743 1.387 . S
H741 C737 0.950 . S
H742 C739 0.950 . S
C743 C734 1.390 . S
C743 H736 0.950 . S
C743 C740 1.387 . S
C744 C745 1.387 . S
C744 H748 0.950 . S
C744 C753 1.390 . S
C745 C744 1.387 . S
C745 C747 1.387 . S
H746 C753 0.950 . S
C747 C745 1.387 . S
C747 C749 1.390 . S
C747 H751 0.950 . S
H748 C744 0.950 . S
C749 C747 1.390 . S
C749 C750 1.387 . S
C749 H752 0.950 . S
C750 C749 1.387 . S
C750 C753 1.387 . S
H751 C747 0.950 . S
H752 C749 0.950 . S
C753 C744 1.390 . S
C753 H746 0.950 . S
C753 C750 1.387 . S
C754 C755 1.387 . S
C754 H758 0.950 . S
C754 C763 1.390 . S
C755 C754 1.387 . S
C755 C757 1.387 . S
H756 C763 0.950 . S
C757 C755 1.387 . S
C757 C759 1.390 . S
C757 H761 0.950 . S
H758 C754 0.950 . S
C759 C757 1.390 . S
C759 C760 1.387 . S
C759 H762 0.950 . S
C760 C759 1.387 . S
C760 C763 1.387 . S
H761 C757 0.950 . S
H762 C759 0.950 . S
C763 C754 1.390 . S
C763 H756 0.950 . S
C763 C760 1.387 . S
C764 C765 1.387 . S
C764 H768 0.950 . S
C764 C773 1.390 . S
C765 C764 1.387 . S
C765 C767 1.387 . S
H766 C773 0.950 . S
C767 C765 1.387 . S
C767 C769 1.390 . S
C767 H771 0.950 . S
H768 C764 0.950 . S
C769 C767 1.390 . S
C769 C770 1.387 . S
C769 H772 0.950 . S
C770 C769 1.387 . S
C770 C773 1.387 . S
H771 C767 0.950 . S
H772 C769 0.950 . S
C773 C764 1.390 . S
C773 H766 0.950 . S
C773 C770 1.387 . S
C774 C775 1.387 . S
C774 H778 0.950 . S
C774 C783 1.390 . S
C775 C774 1.387 . S
C775 C777 1.387 . S
H776 C783 0.950 . S
C777 C775 1.387 . S
C777 C779 1.390 . S
C777 H781 0.950 . S
H778 C774 0.950 . S
C779 C777 1.390 . S
C779 C780 1.387 . S
C779 H782 0.950 . S
C780 C779 1.387 . S
C780 C783 1.387 . S
H781 C777 0.950 . S
H782 C779 0.950 . S
C783 C774 1.390 . S
C783 H776 0.950 . S
C783 C780 1.387 . S
C784 C785 1.387 . S
C784 H788 0.950 . S
C784 C793 1.390 . S
C785 C784 1.387 . S
C785 C787 1.387 . S
H786 C793 0.950 . S
C787 C785 1.387 . S
C787 C789 1.390 . S
C787 H791 0.950 . S
H788 C784 0.950 . S
C789 C787 1.390 . S
C789 C790 1.387 . S
C789 H792 0.950 . S
C790 C789 1.387 . S
C790 C793 1.387 . S
H791 C787 0.950 . S
H792 C789 0.950 . S
C793 C784 1.390 . S
C793 H786 0.950 . S
C793 C790 1.387 . S
C794 C795 1.387 . S
C794 H798 0.950 . S
C794 C803 1.390 . S
C795 C794 1.387 . S
C795 C797 1.387 . S
H796 C803 0.950 . S
C797 C795 1.387 . S
C797 C799 1.390 . S
C797 H801 0.950 . S
H798 C794 0.950 . S
C799 C797 1.390 . S
C799 C800 1.387 . S
C799 H802 0.950 . S
C800 C799 1.387 . S
C800 C803 1.387 . S
H801 C797 0.950 . S
H802 C799 0.950 . S
C803 C794 1.390 . S
C803 H796 0.950 . S
C803 C800 1.387 . S
C570 C492 1.508 . S
C565 C31 1.493 . S
C580 C495 1.507 . S
C575 C61 1.494 . S
C590 C493 1.507 . S
C585 C121 1.476 . S
C600 C494 1.508 . S
C595 C211 1.476 . S
C610 C509 1.505 . S
C605 C1 1.488 . S
C620 C523 1.505 . S
C615 C91 1.484 . S
C625 C151 1.475 . S
C630 C549 1.507 . S
C640 C563 1.504 . S
C635 C181 1.486 . S
C650 C508 1.505 . S
C645 C80 1.491 . S
C655 C140 1.486 . S
C660 C522 1.504 . S
C670 C548 1.506 . S
C665 C200 1.473 . S
C680 C562 1.506 . S
C675 C20 1.482 . S
C685 C271 1.494 . S
C690 C507 1.507 . S
C700 C480 1.507 . S
C695 C331 1.481 . S
C705 C380 1.488 . S
C710 C506 1.507 . S
C715 C421 1.486 . S
C720 C481 1.507 . S
C730 C536 1.505 . S
C725 C241 1.491 . S
C740 C550 1.505 . S
C735 C320 1.477 . S
C750 C520 1.505 . S
C745 C361 1.482 . S
C755 C440 1.491 . S
C760 C534 1.504 . S
C770 C537 1.505 . S
C765 C301 1.478 . S
C780 C551 1.505 . S
C775 C391 1.492 . S
C790 C521 1.506 . S
C785 C451 1.487 . S
C795 C260 1.482 . S
C800 C535 1.506 . S
