# Generated by pormake.
# Topology apo, (3,6)-cn, num edge types: 1
# Building blocks:
#     Node 0, Type 0, BuildingBlock: BETDAH_clean_linker_0, # of connection points: 3
#     Node 1, Type 0, BuildingBlock: BETDAH_clean_linker_0, # of connection points: 3
#     Node 2, Type 0, BuildingBlock: BETDAH_clean_linker_0, # of connection points: 3
#     Node 3, Type 0, BuildingBlock: BETDAH_clean_linker_0, # of connection points: 3
#     Node 4, Type 0, BuildingBlock: BETDAH_clean_linker_0, # of connection points: 3
#     Node 5, Type 0, BuildingBlock: BETDAH_clean_linker_0, # of connection points: 3
#     Node 6, Type 0, BuildingBlock: BETDAH_clean_linker_0, # of connection points: 3
#     Node 7, Type 0, BuildingBlock: BETDAH_clean_linker_0, # of connection points: 3
#     Node 8, Type 1, BuildingBlock: MIDCAF_clean_sbu_0, # of connection points: 6
#     Node 9, Type 1, BuildingBlock: MIDCAF_clean_sbu_0, # of connection points: 6
#     Node 10, Type 1, BuildingBlock: MIDCAF_clean_sbu_0, # of connection points: 6
#     Node 11, Type 1, BuildingBlock: MIDCAF_clean_sbu_0, # of connection points: 6
#     Edge 12, Type (0, 1), BuildingBlock: XIVTED_clean_linker_0, # of connection points: 2
#     Edge 13, Type (0, 1), BuildingBlock: XIVTED_clean_linker_0, # of connection points: 2
#     Edge 14, Type (0, 1), BuildingBlock: XIVTED_clean_linker_0, # of connection points: 2
#     Edge 15, Type (0, 1), BuildingBlock: XIVTED_clean_linker_0, # of connection points: 2
#     Edge 16, Type (0, 1), BuildingBlock: XIVTED_clean_linker_0, # of connection points: 2
#     Edge 17, Type (0, 1), BuildingBlock: XIVTED_clean_linker_0, # of connection points: 2
#     Edge 18, Type (0, 1), BuildingBlock: XIVTED_clean_linker_0, # of connection points: 2
#     Edge 19, Type (0, 1), BuildingBlock: XIVTED_clean_linker_0, # of connection points: 2
#     Edge 20, Type (0, 1), BuildingBlock: XIVTED_clean_linker_0, # of connection points: 2
#     Edge 21, Type (0, 1), BuildingBlock: XIVTED_clean_linker_0, # of connection points: 2
#     Edge 22, Type (0, 1), BuildingBlock: XIVTED_clean_linker_0, # of connection points: 2
#     Edge 23, Type (0, 1), BuildingBlock: XIVTED_clean_linker_0, # of connection points: 2
#     Edge 24, Type (0, 1), BuildingBlock: XIVTED_clean_linker_0, # of connection points: 2
#     Edge 25, Type (0, 1), BuildingBlock: XIVTED_clean_linker_0, # of connection points: 2
#     Edge 26, Type (0, 1), BuildingBlock: XIVTED_clean_linker_0, # of connection points: 2
#     Edge 27, Type (0, 1), BuildingBlock: XIVTED_clean_linker_0, # of connection points: 2
#     Edge 28, Type (0, 1), BuildingBlock: XIVTED_clean_linker_0, # of connection points: 2
#     Edge 29, Type (0, 1), BuildingBlock: XIVTED_clean_linker_0, # of connection points: 2
#     Edge 30, Type (0, 1), BuildingBlock: XIVTED_clean_linker_0, # of connection points: 2
#     Edge 31, Type (0, 1), BuildingBlock: XIVTED_clean_linker_0, # of connection points: 2
#     Edge 32, Type (0, 1), BuildingBlock: XIVTED_clean_linker_0, # of connection points: 2
#     Edge 33, Type (0, 1), BuildingBlock: XIVTED_clean_linker_0, # of connection points: 2
#     Edge 34, Type (0, 1), BuildingBlock: XIVTED_clean_linker_0, # of connection points: 2
#     Edge 35, Type (0, 1), BuildingBlock: XIVTED_clean_linker_0, # of connection points: 2
# Relax obj value: 0.013
# Max RMSD: 0.063
# Mean RMSD: 0.053
data_MOF--net-apo--node1-MIDCAF_clean_sbu_0--node2-BETDAH_clean_linker_0--edge1-XIVTED_clean_linker_0
_symmetry_space_group_name_H-M    P1
_symmetry_Int_Tables_number       1
_symmetry_cell_setting            triclinic
loop_
_symmetry_equiv_pos_as_xyz
'x, y, z'
_cell_length_a     37.015649
_cell_length_b     41.860735
_cell_length_c     35.125332
_cell_angle_alpha  89.042604
_cell_angle_beta   89.984687
_cell_angle_gamma 90.430687
loop_
_atom_site_label
_atom_site_type_symbol
_atom_site_fract_x
_atom_site_fract_y
_atom_site_fract_z
_atom_type_partial_charge
H0 H 0.41056 0.36908 0.41285 0.0
H1 H 0.3639 0.31996 0.31774 0.0
H2 H 0.35588 0.27905 0.43056 0.0
C3 C 0.39576 0.34886 0.40167 0.0
C4 C 0.38344 0.32466 0.42679 0.0
C5 C 0.38921 0.34737 0.36227 0.0
C6 C 0.36912 0.32147 0.34801 0.0
C7 C 0.35752 0.29663 0.37273 0.0
C8 C 0.36522 0.29818 0.41177 0.0
N9 N 0.33966 0.26894 0.3592 0.0
C10 C 0.3147 0.26866 0.32958 0.0
H11 H 0.1013 0.13135 0.89305 0.0
H12 H 0.16499 0.16729 0.79887 0.0
H13 H 0.16494 0.21676 0.90546 0.0
C14 C 0.11973 0.14917 0.88119 0.0
C15 C 0.13211 0.17403 0.90415 0.0
C16 C 0.13119 0.14652 0.84329 0.0
C17 C 0.15633 0.16887 0.82823 0.0
C18 C 0.16829 0.19446 0.85079 0.0
C19 C 0.15607 0.19678 0.88849 0.0
N20 N 0.18954 0.22012 0.83581 0.0
C21 C 0.21777 0.21781 0.80983 0.0
H22 H 0.87805 0.10831 0.56144 0.0
H23 H 0.8397 0.16058 0.65708 0.0
H24 H 0.83706 0.20391 0.54566 0.0
C25 C 0.86683 0.1301 0.57239 0.0
C26 C 0.85804 0.15564 0.54748 0.0
C27 C 0.86135 0.13204 0.61188 0.0
C28 C 0.84413 0.15893 0.62669 0.0
C29 C 0.83497 0.18464 0.60239 0.0
C30 C 0.84281 0.18316 0.56336 0.0
N31 N 0.82016 0.21331 0.61646 0.0
C32 C 0.79641 0.215 0.64707 0.0
H33 H 0.63626 0.37421 0.07699 0.0
H34 H 0.6665 0.35165 0.19222 0.0
H35 H 0.7032 0.29237 0.1013 0.0
C36 C 0.65067 0.35915 0.0972 0.0
C37 C 0.67013 0.33268 0.08421 0.0
C38 C 0.64935 0.36629 0.13601 0.0
C39 C 0.66767 0.34659 0.16207 0.0
C40 C 0.68742 0.32023 0.14998 0.0
C41 C 0.6886 0.31308 0.11085 0.0
N42 N 0.70401 0.301 0.17866 0.0
C43 C 0.73328 0.28075 0.17418 0.0
H44 H 0.60486 0.61778 0.58758 0.0
H45 H 0.6849 0.64759 0.66919 0.0
H46 H 0.68281 0.69009 0.55686 0.0
C47 C 0.62737 0.63301 0.59541 0.0
C48 C 0.64147 0.65463 0.56812 0.0
C49 C 0.64288 0.6299 0.63192 0.0
C50 C 0.67277 0.64946 0.64119 0.0
C51 C 0.68715 0.67123 0.61401 0.0
C52 C 0.67169 0.67323 0.57759 0.0
N53 N 0.71745 0.69125 0.62151 0.0
C54 C 0.73259 0.69751 0.65695 0.0
H55 H 0.8765 0.87798 0.08847 0.0
H56 H 0.8159 0.79246 0.11536 0.0
H57 H 0.86003 0.84936 0.20532 0.0
C58 C 0.86434 0.86204 0.10957 0.0
C59 C 0.86995 0.86773 0.14839 0.0
C60 C 0.84483 0.83523 0.09722 0.0
C61 C 0.83037 0.81358 0.12448 0.0
C62 C 0.83585 0.81894 0.16364 0.0
C63 C 0.85594 0.84565 0.17518 0.0
N64 N 0.82426 0.79676 0.19222 0.0
C65 C 0.79039 0.78214 0.19382 0.0
H66 H 0.14708 0.88394 0.45731 0.0
H67 H 0.1912 0.84511 0.35451 0.0
H68 H 0.18609 0.78764 0.45715 0.0
C69 C 0.16018 0.86461 0.44261 0.0
C70 C 0.16624 0.8357 0.46225 0.0
C71 C 0.16879 0.86831 0.40374 0.0
C72 C 0.18452 0.8426 0.38444 0.0
C73 C 0.19101 0.81351 0.40397 0.0
C74 C 0.18136 0.81022 0.44248 0.0
N75 N 0.20579 0.78642 0.38596 0.0
C76 C 0.22535 0.78631 0.3521 0.0
H77 H 0.36759 0.61438 0.9276 0.0
H78 H 0.3118 0.70064 0.89539 0.0
H79 H 0.34807 0.63612 0.80949 0.0
C80 C 0.35572 0.62966 0.90582 0.0
C81 C 0.35926 0.62144 0.86746 0.0
C82 C 0.33905 0.65827 0.9163 0.0
C83 C 0.32446 0.6784 0.88772 0.0
C84 C 0.32743 0.67012 0.84908 0.0
C85 C 0.34557 0.64214 0.83927 0.0
N86 N 0.31415 0.68998 0.81913 0.0
C87 C 0.28274 0.70794 0.821 0.0
Zn88 Zn 0.04751 0.14059 0.30971 0.0
Zn89 Zn 0.97919 0.09746 0.14462 0.0
Zn90 Zn 0.02809 0.1224 0.24614 0.0
C91 C 0.04637 0.13864 0.17063 0.0
C92 C 0.01546 0.06323 0.21142 0.0
O93 O 0.97812 0.14047 0.27136 0.0
O94 O -0.00094 0.15134 0.32857 0.0
C95 C 0.08929 0.17663 0.26032 0.0
O96 O 0.06126 0.1463 0.20188 0.0
O97 O 0.02031 0.11899 0.17379 0.0
O98 O 0.0113 0.08676 0.18897 0.0
O99 O 0.03015 0.06999 0.24306 0.0
O100 O 0.07971 0.17638 0.29478 0.0
O101 O 0.0745 0.15699 0.23692 0.0
O102 O 0.04864 0.07827 0.27513 0.0
O103 O 0.07043 0.09958 0.32738 0.0
C104 C 0.06613 0.07539 0.30672 0.0
O105 O 0.96924 0.13569 0.22932 0.0
O106 O 0.94103 0.121 0.17426 0.0
C107 C 0.97296 0.14984 0.30557 0.0
C108 C 0.94133 0.13514 0.20642 0.0
Zn109 Zn 0.55022 0.36911 0.70881 0.0
Zn110 Zn 0.48738 0.34501 0.82344 0.0
Zn111 Zn 0.51826 0.36039 0.76419 0.0
C112 C 0.47654 0.41136 0.81117 0.0
C113 C 0.45098 0.31045 0.77106 0.0
O114 O 0.56999 0.33307 0.76778 0.0
O115 O 0.57592 0.32785 0.70586 0.0
C116 C 0.55677 0.42548 0.74154 0.0
O117 O 0.50114 0.40732 0.78577 0.0
O118 O 0.46441 0.38746 0.82969 0.0
O119 O 0.45671 0.30947 0.80641 0.0
O120 O 0.46926 0.33013 0.74972 0.0
O121 O 0.57801 0.40763 0.72376 0.0
O122 O 0.5277 0.41331 0.75632 0.0
O123 O 0.48437 0.34275 0.71602 0.0
O124 O 0.50886 0.3757 0.67373 0.0
C125 C 0.48391 0.35636 0.68279 0.0
O126 O 0.55854 0.3375 0.80496 0.0
O127 O 0.52672 0.33335 0.85806 0.0
C128 C 0.58498 0.31956 0.73913 0.0
C129 C 0.5564 0.33059 0.84094 0.0
Zn130 Zn 0.01483 0.87896 0.83019 0.0
Zn131 Zn 0.95557 0.86528 0.70761 0.0
Zn132 Zn 0.98771 0.87157 0.7702 0.0
C133 C 0.95069 0.92952 0.72353 0.0
C134 C 0.91699 0.82671 0.75638 0.0
O135 O 0.03932 0.84403 0.77046 0.0
O136 O 0.04179 0.83817 0.83279 0.0
C137 C 0.02799 0.93532 0.79414 0.0
O138 O 0.97406 0.92065 0.74876 0.0
O139 O 0.93577 0.90911 0.70259 0.0
O140 O 0.92108 0.83126 0.72111 0.0
O141 O 0.93754 0.84138 0.78027 0.0
O142 O 0.04391 0.91795 0.8184 0.0
O143 O 0.00073 0.92382 0.7758 0.0
O144 O 0.94998 0.8525 0.81539 0.0
O145 O 0.97046 0.88251 0.8617 0.0
C146 C 0.94664 0.86368 0.84923 0.0
O147 O 0.02734 0.8479 0.73249 0.0
O148 O -0.00166 0.85278 0.67763 0.0
C149 C 0.05324 0.83064 0.80034 0.0
C150 C 0.02623 0.84484 0.69604 0.0
Zn151 Zn 0.52421 0.638 0.1769 0.0
Zn152 Zn 0.44448 0.61819 0.29161 0.0
Zn153 Zn 0.48798 0.62794 0.23657 0.0
C154 C 0.50895 0.6448 0.32186 0.0
C155 C 0.45494 0.55852 0.26362 0.0
O156 O 0.4533 0.6524 0.19235 0.0
O157 O 0.48689 0.65128 0.14036 0.0
C158 C 0.5589 0.6729 0.23132 0.0
O159 O 0.51802 0.64693 0.28644 0.0
O160 O 0.47899 0.63228 0.33117 0.0
O161 O 0.43418 0.57238 0.28636 0.0
O162 O 0.47837 0.57484 0.24399 0.0
O163 O 0.55579 0.67193 0.19566 0.0
O164 O 0.53772 0.65595 0.25295 0.0
O165 O 0.50481 0.58018 0.21654 0.0
O166 O 0.54568 0.59476 0.17366 0.0
C167 C 0.53031 0.57305 0.19321 0.0
O168 O 0.43691 0.65672 0.22775 0.0
O169 O 0.40475 0.64713 0.27985 0.0
C170 C 0.45732 0.65765 0.15623 0.0
C171 C 0.40864 0.66166 0.24844 0.0
H172 H 0.13433 0.87703 0.33482 0.0
H173 H 0.10219 0.06245 0.37275 0.0
H174 H 0.18099 0.92904 0.42791 0.0
H175 H 0.06814 0.01793 0.26858 0.0
H176 H 0.13061 0.01289 0.39265 0.0
H177 H 0.11077 0.92753 0.30842 0.0
C178 C 0.14019 0.89911 0.3493 0.0
C179 C 0.15936 0.89879 0.38383 0.0
C180 C 0.11696 0.01381 0.36539 0.0
C181 C 0.132 0.95639 0.35426 0.0
C182 C 0.10051 0.0422 0.354 0.0
C183 C 0.08236 0.04448 0.31897 0.0
C184 C 0.11531 0.98709 0.34181 0.0
C185 C 0.08137 0.01726 0.29602 0.0
C186 C 0.12649 0.92787 0.3344 0.0
C187 C 0.16586 0.92807 0.40157 0.0
N188 N 0.0975 0.98964 0.3079 0.0
N189 N 0.15199 0.95551 0.3868 0.0
H190 H 0.41094 0.61155 0.81248 0.0
H191 H 0.416 0.42323 0.85214 0.0
H192 H 0.34854 0.56234 0.89935 0.0
H193 H 0.50001 0.47176 0.7883 0.0
H194 H 0.3882 0.4742 0.86456 0.0
H195 H 0.44083 0.56091 0.79775 0.0
C196 C 0.40342 0.59008 0.82828 0.0
C197 C 0.37726 0.59113 0.85724 0.0
C198 C 0.41271 0.47388 0.84774 0.0
C199 C 0.41122 0.53339 0.8406 0.0
C200 C 0.42875 0.44466 0.84059 0.0
C201 C 0.46042 0.44306 0.81865 0.0
C202 C 0.42817 0.50209 0.83284 0.0
C203 C 0.47531 0.47182 0.80449 0.0
C204 C 0.42064 0.5613 0.82005 0.0
C205 C 0.36878 0.56271 0.87708 0.0
N206 N 0.45902 0.50023 0.81172 0.0
N207 N 0.38558 0.53509 0.86831 0.0
H208 H 0.68111 0.58975 0.67957 0.0
H209 H 0.51237 0.47413 0.71859 0.0
H210 H 0.5721 0.61266 0.64593 0.0
H211 H 0.62037 0.45466 0.75765 0.0
H212 H 0.53156 0.52858 0.70056 0.0
H213 H 0.65779 0.54416 0.7166 0.0
C214 C 0.65221 0.58559 0.68048 0.0
C215 C 0.62866 0.60492 0.65903 0.0
C216 C 0.55089 0.51269 0.71395 0.0
C217 C 0.60168 0.55218 0.70099 0.0
C218 C 0.53976 0.48176 0.72472 0.0
C219 C 0.56466 0.46014 0.74031 0.0
C220 C 0.58736 0.52179 0.71816 0.0
C221 C 0.60024 0.47079 0.74616 0.0
C222 C 0.63888 0.55936 0.70148 0.0
C223 C 0.59143 0.59802 0.6612 0.0
N224 N 0.61061 0.50068 0.73476 0.0
N225 N 0.57918 0.57207 0.68133 0.0
H226 H 0.86933 0.92777 0.11612 0.0
H227 H 0.00103 0.01319 0.26161 0.0
H228 H 0.91833 0.87377 0.20812 0.0
H229 H 0.9899 0.04213 0.14374 0.0
H230 H 0.96604 0.96437 0.2481 0.0
H231 H 0.90695 0.97346 0.13217 0.0
C232 C 0.88812 0.92536 0.1396 0.0
C233 C 0.89097 0.89648 0.1603 0.0
C234 C 0.97154 0.98144 0.22529 0.0
C235 C 0.93374 0.94939 0.17945 0.0
C236 C 0.99163 0.00917 0.23289 0.0
C237 C 0.99805 0.032 0.20384 0.0
C238 C 0.95744 0.97694 0.18861 0.0
C239 C 0.98495 0.02566 0.16724 0.0
C240 C 0.90953 0.95159 0.14883 0.0
C241 C 0.91502 0.89547 0.19138 0.0
N242 N 0.96501 -0.00101 0.1608 0.0
N243 N 0.93552 0.92156 0.20003 0.0
H244 H 0.8255 0.09687 0.66705 0.0
H245 H 0.99402 0.98161 0.70851 0.0
H246 H 0.92983 0.10898 0.61399 0.0
H247 H 0.883 0.95308 0.72508 0.0
H248 H 0.97355 0.03525 0.68885 0.0
H249 H 0.84902 0.05065 0.70322 0.0
C250 C 0.85346 0.09005 0.66348 0.0
C251 C 0.87565 0.10637 0.6372 0.0
C252 C 0.95374 0.01739 0.69748 0.0
C253 C 0.90275 0.054 0.67845 0.0
C254 C 0.96545 0.98698 0.709 0.0
C255 C 0.9401 0.96318 0.71855 0.0
C256 C 0.9165 0.02386 0.69575 0.0
C257 C 0.90331 0.97095 0.71793 0.0
C258 C 0.86683 0.0637 0.68396 0.0
C259 C 0.91172 0.09665 0.63359 0.0
N260 N 0.89257 0.00057 0.70658 0.0
N261 N 0.92412 0.07104 0.65382 0.0
H262 H 0.67371 0.41233 0.18382 0.0
H263 H 0.49311 0.51605 0.18583 0.0
H264 H 0.58012 0.38493 0.11858 0.0
H265 H 0.60026 0.5562 0.19512 0.0
H266 H 0.52016 0.463 0.17579 0.0
H267 H 0.64222 0.46061 0.20327 0.0
C268 C 0.64637 0.41634 0.17393 0.0
C269 C 0.62957 0.39476 0.14935 0.0
C270 C 0.53757 0.48348 0.18038 0.0
C271 C 0.59333 0.44981 0.17168 0.0
C272 C 0.52221 0.51355 0.18635 0.0
C273 C 0.5446 0.54035 0.19113 0.0
C274 C 0.5754 0.48042 0.18011 0.0
C275 C 0.58213 0.53608 0.19126 0.0
C276 C 0.62849 0.4439 0.18491 0.0
C277 C 0.59414 0.40122 0.1372 0.0
N278 N 0.59633 0.50673 0.18593 0.0
N279 N 0.57712 0.42821 0.14851 0.0
H280 H 0.45718 0.3735 0.36114 0.0
H281 H 0.39541 0.52567 0.24287 0.0
H282 H 0.35366 0.38033 0.30547 0.0
H283 H 0.50478 0.51261 0.28141 0.0
H284 H 0.38258 0.46938 0.25694 0.0
H285 H 0.47781 0.42085 0.32543 0.0
C286 C 0.43889 0.38484 0.34108 0.0
C287 C 0.40343 0.37326 0.33672 0.0
C288 C 0.40968 0.47845 0.2615 0.0
C289 C 0.42688 0.42762 0.2957 0.0
C290 C 0.41706 0.51054 0.25317 0.0
C291 C 0.4512 0.5236 0.26086 0.0
C292 C 0.4364 0.45945 0.27871 0.0
C293 C 0.4782 0.50326 0.27479 0.0
C294 C 0.45076 0.41178 0.32053 0.0
C295 C 0.38115 0.3885 0.30982 0.0
N296 N 0.47003 0.47228 0.28401 0.0
N297 N 0.39304 0.41518 0.29081 0.0
H298 H 0.06033 0.13484 0.82816 0.0
H299 H 0.09784 0.95286 0.78544 0.0
H300 H 0.16676 0.09745 0.80907 0.0
H301 H 0.99062 0.99195 0.78915 0.0
H302 H 0.12313 0.00687 0.78532 0.0
H303 H 0.03396 0.08505 0.80491 0.0
C304 C 0.07811 0.11634 0.81809 0.0
C305 C 0.11576 0.12014 0.82059 0.0
C306 C 0.09405 0.00384 0.78546 0.0
C307 C 0.08582 0.06272 0.79487 0.0
C308 C 0.0796 0.97298 0.78552 0.0
C309 C 0.04211 0.96803 0.78725 0.0
C310 C 0.07089 0.03012 0.78801 0.0
C311 C 0.01966 0.99483 0.7874 0.0
C312 C 0.06306 0.08788 0.80499 0.0
C313 C 0.13763 0.09549 0.80742 0.0
N314 N 0.03442 0.02477 0.7884 0.0
N315 N 0.12235 0.0676 0.79573 0.0
H316 H 0.17198 0.18589 0.96868 0.0
H317 H 0.00652 0.1409 0.106 0.0
H318 H 0.06325 0.16653 0.9309 0.0
H319 H 0.11227 0.16448 0.14923 0.0
H320 H 0.02662 0.15518 0.04212 0.0
H321 H 0.15073 0.18322 0.03498 0.0
C322 C 0.14358 0.18152 0.97431 0.0
C323 C 0.11942 0.17599 0.94423 0.0
C324 C 0.04554 0.1575 0.06544 0.0
C325 C 0.09504 0.17273 0.01981 0.0
C326 C 0.03404 0.14924 0.10202 0.0
C327 C 0.05791 0.15108 0.13289 0.0
C328 C 0.08143 0.16739 0.0593 0.0
C329 C 0.09308 0.16262 0.1261 0.0
C330 C 0.13152 0.17986 0.01213 0.0
C331 C 0.08297 0.17029 0.95316 0.0
N332 N 0.10398 0.16998 0.08987 0.0
N333 N 0.07202 0.16861 0.99001 0.0
H334 H 0.37545 0.37759 0.47042 0.0
H335 H 0.45797 0.29789 0.66009 0.0
H336 H 0.40462 0.27812 0.47866 0.0
H337 H 0.44905 0.3991 0.63822 0.0
H338 H 0.4254 0.28791 0.6001 0.0
H339 H 0.38997 0.38346 0.53762 0.0
C340 C 0.38494 0.35694 0.48638 0.0
C341 C 0.3895 0.32748 0.46858 0.0
C342 C 0.42993 0.31228 0.60893 0.0
C343 C 0.40594 0.33396 0.54606 0.0
C344 C 0.44811 0.31793 0.64329 0.0
C345 C 0.45628 0.34934 0.65381 0.0
C346 C 0.41972 0.33829 0.58546 0.0
C347 C 0.44341 0.37452 0.63092 0.0
C348 C 0.39302 0.36026 0.52488 0.0
C349 C 0.40085 0.30133 0.49113 0.0
N350 N 0.42609 0.36847 0.59777 0.0
N351 N 0.4091 0.30526 0.52861 0.0
H352 H 0.65077 0.27631 0.05092 0.0
H353 H 0.62045 0.36284 0.8488 0.0
H354 H 0.68481 0.37269 0.02372 0.0
H355 H 0.56216 0.2793 0.8884 0.0
H356 H 0.66077 0.3579 0.90423 0.0
H357 H 0.6349 0.26887 0.98376 0.0
C358 C 0.65589 0.29557 0.03061 0.0
C359 C 0.66869 0.32527 0.04293 0.0
C360 C 0.63985 0.34006 0.90013 0.0
C361 C 0.65031 0.31711 0.96622 0.0
C362 C 0.61719 0.34264 0.86823 0.0
C363 C 0.58801 0.32145 0.86418 0.0
C364 C 0.63324 0.31601 0.92785 0.0
C365 C 0.58442 0.2961 0.8906 0.0
C366 C 0.6466 0.29142 0.99234 0.0
C367 C 0.67455 0.34953 0.01542 0.0
N368 N 0.6064 0.29432 0.92154 0.0
N369 N 0.66491 0.34508 0.9785 0.0
H370 H 0.9105 0.12036 0.51108 0.0
H371 H 0.94023 0.20406 0.32908 0.0
H372 H 0.82464 0.18736 0.48661 0.0
H373 H 0.92734 0.10193 0.32473 0.0
H374 H 0.90038 0.20471 0.38502 0.0
H375 H 0.92294 0.11772 0.44356 0.0
C376 C 0.89361 0.13414 0.49194 0.0
C377 C 0.86595 0.15389 0.50552 0.0
C378 C 0.90493 0.18237 0.37069 0.0
C379 C 0.88189 0.15189 0.42738 0.0
C380 C 0.92725 0.18203 0.33853 0.0
C381 C 0.93678 0.15291 0.3222 0.0
C382 C 0.89339 0.15329 0.38711 0.0
C383 C 0.92025 0.12489 0.33628 0.0
C384 C 0.90107 0.13266 0.45316 0.0
C385 C 0.84665 0.17219 0.47823 0.0
N386 N 0.90051 0.12557 0.36891 0.0
N387 N 0.85546 0.17124 0.44055 0.0
H388 H 0.86932 0.78423 0.05672 0.0
H389 H 0.92134 0.80318 0.86682 0.0
H390 H 0.81802 0.87569 0.04306 0.0
H391 H 0.90603 0.9025 0.89209 0.0
H392 H 0.88412 0.78845 0.9227 0.0
H393 H 0.88342 0.78493 0.98849 0.0
C394 C 0.85963 0.80377 0.03899 0.0
C395 C 0.84266 0.83001 0.05552 0.0
C396 C 0.88851 0.81345 0.91574 0.0
C397 C 0.85902 0.83134 0.97752 0.0
C398 C 0.90927 0.82183 0.88352 0.0
C399 C 0.91693 0.85408 0.8752 0.0
C400 C 0.87529 0.83764 0.93934 0.0
C401 C 0.90095 0.87736 0.89777 0.0
C402 C 0.86778 0.80426 0.99994 0.0
C403 C 0.83131 0.85506 0.03142 0.0
N404 N 0.88115 0.86869 0.92884 0.0
N405 N 0.84038 0.85542 0.99394 0.0
H406 H 0.56985 0.66178 0.55308 0.0
H407 H 0.58369 0.64284 0.32778 0.0
H408 H 0.67303 0.65559 0.49682 0.0
H409 H 0.48761 0.67024 0.38807 0.0
H410 H 0.61873 0.64967 0.387 0.0
H411 H 0.54039 0.66569 0.49124 0.0
C412 C 0.58631 0.6612 0.5276 0.0
C413 C 0.62389 0.65811 0.53014 0.0
C414 C 0.59008 0.65471 0.38694 0.0
C415 C 0.59026 0.66261 0.45866 0.0
C416 C 0.5702 0.65108 0.35311 0.0
C417 C 0.53265 0.65565 0.35318 0.0
C418 C 0.57208 0.66287 0.42076 0.0
C419 C 0.51642 0.66602 0.38685 0.0
C420 C 0.56952 0.66366 0.49217 0.0
C421 C 0.64394 0.65799 0.49608 0.0
N422 N 0.53606 0.66891 0.41917 0.0
N423 N 0.62686 0.65985 0.46168 0.0
H424 H 0.36552 0.71394 0.94523 0.0
H425 H 0.38773 0.63505 0.15271 0.0
H426 H 0.31852 0.62344 0.97947 0.0
H427 H 0.46046 0.70463 0.10243 0.0
H428 H 0.34652 0.6428 0.09834 0.0
H429 H 0.38386 0.72264 0.01137 0.0
C430 C 0.35797 0.69642 0.9669 0.0
C431 C 0.34088 0.66777 0.95685 0.0
C432 C 0.371 0.65705 0.09984 0.0
C433 C 0.36215 0.67731 0.03236 0.0
C434 C 0.39429 0.65285 0.131 0.0
C435 C 0.42756 0.66906 0.13172 0.0
C436 C 0.38104 0.67787 0.0697 0.0
C437 C 0.4351 0.69154 0.10269 0.0
C438 C 0.3687 0.70125 0.00458 0.0
C439 C 0.33206 0.6457 0.98604 0.0
N440 N 0.41227 0.69503 0.07267 0.0
N441 N 0.34325 0.65069 0.02237 0.0
H442 H 0.17666 0.87743 0.52075 0.0
H443 H 0.02946 0.79307 0.65126 0.0
H444 H 0.1296 0.78552 0.49602 0.0
H445 H 0.09176 0.87425 0.68764 0.0
H446 H 0.07185 0.7856 0.59886 0.0
H447 H 0.15135 0.87367 0.58507 0.0
C448 C 0.16126 0.85632 0.52899 0.0
C449 C 0.15487 0.83193 0.50278 0.0
C450 C 0.07697 0.80455 0.6188 0.0
C451 C 0.12575 0.82746 0.57645 0.0
C452 C 0.05295 0.80858 0.64894 0.0
C453 C 0.05746 0.83407 0.67388 0.0
C454 C 0.1051 0.82681 0.61287 0.0
C455 C 0.08775 0.85403 0.66923 0.0
C456 C 0.14701 0.85409 0.56581 0.0
C457 C 0.13524 0.80489 0.51523 0.0
N458 N 0.11007 0.85039 0.63878 0.0
N459 N 0.12094 0.80361 0.55092 0.0
H460 H 0.2547 0.30439 0.32114 0.0
H461 H 0.15048 0.16091 0.22113 0.0
H462 H 0.30662 0.21947 0.28149 0.0
H463 H 0.09921 0.23862 0.2785 0.0
H464 H 0.20855 0.18959 0.22521 0.0
H465 H 0.19906 0.28812 0.28859 0.0
C466 C 0.25455 0.28275 0.30463 0.0
C467 C 0.28497 0.26318 0.30379 0.0
C468 C 0.18439 0.20079 0.23589 0.0
C469 C 0.22148 0.24394 0.26736 0.0
C470 C 0.1512 0.1846 0.23309 0.0
C471 C 0.1202 0.19741 0.24973 0.0
C472 C 0.18629 0.22992 0.2553 0.0
C473 C 0.12263 0.22791 0.26551 0.0
C474 C 0.22281 0.27334 0.28623 0.0
C475 C 0.28353 0.23518 0.28255 0.0
N476 N 0.15514 0.2429 0.26842 0.0
N477 N 0.25211 0.22611 0.26556 0.0
H478 H 0.27882 0.18259 0.81195 0.0
H479 H 0.39426 0.32813 0.72502 0.0
H480 H 0.23164 0.26663 0.76083 0.0
H481 H 0.43853 0.24806 0.78733 0.0
H482 H 0.33597 0.29959 0.7217 0.0
H483 H 0.33812 0.19966 0.78755 0.0
C484 C 0.28089 0.20416 0.79457 0.0
C485 C 0.25056 0.22321 0.78813 0.0
C486 C 0.35875 0.2879 0.73516 0.0
C487 C 0.31824 0.24353 0.76112 0.0
C488 C 0.3921 0.30405 0.73661 0.0
C489 C 0.42104 0.29046 0.7567 0.0
C490 C 0.3546 0.25803 0.75387 0.0
C491 C 0.41673 0.2594 0.77176 0.0
C492 C 0.31473 0.21407 0.78084 0.0
C493 C 0.25456 0.25124 0.76609 0.0
N494 N 0.38406 0.24447 0.77054 0.0
N495 N 0.28789 0.26083 0.7538 0.0
H496 H 0.79824 0.25933 0.70219 0.0
H497 H 0.58502 0.2602 0.71065 0.0
H498 H 0.73041 0.18754 0.65181 0.0
H499 H 0.65084 0.32585 0.77394 0.0
H500 H 0.63802 0.22738 0.69946 0.0
H501 H 0.74602 0.27854 0.73818 0.0
C502 C 0.77247 0.2471 0.69961 0.0
C503 C 0.76834 0.22187 0.67426 0.0
C504 C 0.64096 0.24849 0.71661 0.0
C505 C 0.70851 0.24399 0.71439 0.0
C506 C 0.61059 0.26708 0.72325 0.0
C507 C 0.6137 0.29562 0.74329 0.0
C508 C 0.67501 0.25902 0.7291 0.0
C509 C 0.64741 0.30381 0.7586 0.0
C510 C 0.74267 0.2581 0.72 0.0
C511 C 0.73453 0.20702 0.67129 0.0
N512 N 0.67702 0.28596 0.75046 0.0
N513 N 0.70579 0.21856 0.69073 0.0
H514 H 0.80036 0.2975 0.1967 0.0
H515 H 0.87162 0.1175 0.1954 0.0
H516 H 0.7349 0.21666 0.16536 0.0
H517 H 0.93717 0.19644 0.23286 0.0
H518 H 0.81987 0.15298 0.19002 0.0
H519 H 0.85015 0.26115 0.21271 0.0
C520 C 0.79679 0.27206 0.19267 0.0
C521 C 0.76397 0.25992 0.17906 0.0
C522 C 0.84533 0.16259 0.20002 0.0
C523 C 0.82015 0.2182 0.19819 0.0
C524 C 0.87482 0.14223 0.20349 0.0
C525 C 0.90872 0.15407 0.21455 0.0
C526 C 0.84976 0.19529 0.20709 0.0
C527 C 0.91142 0.18632 0.2245 0.0
C528 C 0.825 0.25132 0.20219 0.0
C529 C 0.76014 0.22688 0.17515 0.0
N530 N 0.88245 0.20598 0.21993 0.0
N531 N 0.78792 0.20715 0.1846 0.0
H532 H 0.71718 0.7494 0.69838 0.0
H533 H 0.92172 0.76253 0.76536 0.0
H534 H 0.79592 0.67529 0.68488 0.0
H535 H 0.84634 0.84019 0.76792 0.0
H536 H 0.87155 0.72536 0.75423 0.0
H537 H 0.75917 0.77769 0.74036 0.0
C538 C 0.74296 0.73866 0.70527 0.0
C539 C 0.75322 0.71004 0.68846 0.0
C540 C 0.86571 0.75035 0.75854 0.0
C541 C 0.80175 0.74247 0.73554 0.0
C542 C 0.89433 0.77148 0.76558 0.0
C543 C 0.88803 0.80436 0.76806 0.0
C544 C 0.83063 0.76234 0.7533 0.0
C545 C 0.85219 0.81491 0.76678 0.0
C546 C 0.76702 0.75486 0.72902 0.0
C547 C 0.78704 0.69727 0.6976 0.0
N548 N 0.82491 0.79409 0.75876 0.0
N549 N 0.81032 0.71377 0.72014 0.0
H550 H 0.78071 0.72163 0.21958 0.0
H551 H 0.5659 0.73712 0.22881 0.0
H552 H 0.72352 0.80804 0.19147 0.0
H553 H 0.62235 0.65123 0.26049 0.0
H554 H 0.62361 0.76574 0.22453 0.0
H555 H 0.72364 0.69676 0.24063 0.0
C556 C 0.75594 0.73519 0.21753 0.0
C557 C 0.75642 0.7666 0.20321 0.0
C558 C 0.62349 0.74086 0.2335 0.0
C559 C 0.6913 0.73878 0.22795 0.0
C560 C 0.59044 0.7247 0.23669 0.0
C561 C 0.58938 0.69195 0.24569 0.0
C562 C 0.65583 0.72396 0.23857 0.0
C563 C 0.62201 0.67665 0.25428 0.0
C564 C 0.72347 0.72115 0.22988 0.0
C565 C 0.72398 0.78353 0.2018 0.0
N566 N 0.65399 0.69262 0.24982 0.0
N567 N 0.69266 0.76936 0.21387 0.0
H568 H 0.2095 0.74496 0.2966 0.0
H569 H 0.41827 0.72604 0.24666 0.0
H570 H 0.29377 0.8068 0.33781 0.0
H571 H 0.33755 0.65254 0.23342 0.0
H572 H 0.3702 0.76462 0.25923 0.0
H573 H 0.25312 0.72025 0.25375 0.0
C574 C 0.237 0.754 0.29564 0.0
C575 C 0.24824 0.77789 0.32049 0.0
C576 C 0.36292 0.74031 0.25222 0.0
C577 C 0.2984 0.74939 0.2724 0.0
C578 C 0.39031 0.71844 0.24443 0.0
C579 C 0.38171 0.68619 0.23883 0.0
C580 C 0.32681 0.72971 0.25433 0.0
C581 C 0.34517 0.67729 0.23736 0.0
C582 C 0.26193 0.73979 0.27141 0.0
C583 C 0.28418 0.7885 0.31879 0.0
N584 N 0.31909 0.69879 0.24565 0.0
N585 N 0.30818 0.77388 0.2955 0.0
H586 H 0.2653 0.74916 0.76426 0.0
H587 H 0.07022 0.78439 0.85198 0.0
H588 H 0.22458 0.70572 0.8678 0.0
H589 H 0.10688 0.82651 0.74583 0.0
H590 H 0.12542 0.75337 0.85581 0.0
H591 H 0.20738 0.77666 0.75545 0.0
C592 C 0.24411 0.74566 0.78524 0.0
C593 C 0.2495 0.72555 0.81697 0.0
C594 C 0.12143 0.76912 0.83143 0.0
C595 C 0.1833 0.75638 0.80695 0.0
C596 C 0.08978 0.78681 0.82914 0.0
C597 C 0.08395 0.80819 0.79857 0.0
C598 C 0.14794 0.77292 0.80313 0.0
C599 C 0.11017 0.81017 0.76974 0.0
C600 C 0.21106 0.76117 0.78011 0.0
C601 C 0.22138 0.72134 0.84316 0.0
N602 N 0.14127 0.79301 0.77293 0.0
N603 N 0.18947 0.73668 0.83761 0.0
loop_
_geom_bond_atom_site_label_1
_geom_bond_atom_site_label_2
_geom_bond_distance
_geom_bond_site_symmetry_2
_ccdc_geom_bond_type
H0 C3 0.929 . S
H1 C6 0.929 . S
H2 C8 0.930 . S
C3 H0 0.929 . S
C3 C4 1.398 . S
C3 C5 1.396 . S
C4 C3 1.398 . S
C4 C8 1.407 . S
C5 C3 1.396 . S
C5 C6 1.394 . S
C6 H1 0.929 . S
C6 C5 1.394 . S
C6 C7 1.382 . S
C7 C6 1.382 . S
C7 C8 1.392 . S
C7 N9 1.420 . S
C8 H2 0.930 . S
C8 C4 1.407 . S
C8 C7 1.392 . S
N9 C7 1.420 . S
N9 C10 1.244 . S
C10 N9 1.244 . S
H11 C14 0.929 . S
H12 C17 0.929 . S
H13 C19 0.930 . S
C14 H11 0.929 . S
C14 C15 1.398 . S
C14 C16 1.396 . S
C15 C14 1.398 . S
C15 C19 1.407 . S
C16 C14 1.396 . S
C16 C17 1.394 . S
C17 H12 0.929 . S
C17 C16 1.394 . S
C17 C18 1.382 . S
C18 C17 1.382 . S
C18 C19 1.392 . S
C18 N20 1.420 . S
C19 H13 0.930 . S
C19 C15 1.407 . S
C19 C18 1.392 . S
N20 C18 1.420 . S
N20 C21 1.244 . S
C21 N20 1.244 . S
H22 C25 0.929 . S
H23 C28 0.929 . S
H24 C30 0.930 . S
C25 H22 0.929 . S
C25 C26 1.398 . S
C25 C27 1.396 . S
C26 C25 1.398 . S
C26 C30 1.407 . S
C27 C25 1.396 . S
C27 C28 1.394 . S
C28 H23 0.929 . S
C28 C27 1.394 . S
C28 C29 1.382 . S
C29 C28 1.382 . S
C29 C30 1.392 . S
C29 N31 1.420 . S
C30 H24 0.930 . S
C30 C26 1.407 . S
C30 C29 1.392 . S
N31 C29 1.420 . S
N31 C32 1.244 . S
C32 N31 1.244 . S
H33 C36 0.929 . S
H34 C39 0.929 . S
H35 C41 0.930 . S
C36 H33 0.929 . S
C36 C37 1.398 . S
C36 C38 1.396 . S
C37 C36 1.398 . S
C37 C41 1.407 . S
C38 C36 1.396 . S
C38 C39 1.394 . S
C39 H34 0.929 . S
C39 C38 1.394 . S
C39 C40 1.382 . S
C40 C39 1.382 . S
C40 C41 1.392 . S
C40 N42 1.420 . S
C41 H35 0.930 . S
C41 C37 1.407 . S
C41 C40 1.392 . S
N42 C40 1.420 . S
N42 C43 1.244 . S
C43 N42 1.244 . S
H44 C47 0.929 . S
H45 C50 0.929 . S
H46 C52 0.930 . S
C47 H44 0.929 . S
C47 C48 1.398 . S
C47 C49 1.396 . S
C48 C47 1.398 . S
C48 C52 1.407 . S
C49 C47 1.396 . S
C49 C50 1.394 . S
C50 H45 0.929 . S
C50 C49 1.394 . S
C50 C51 1.382 . S
C51 C50 1.382 . S
C51 C52 1.392 . S
C51 N53 1.420 . S
C52 H46 0.930 . S
C52 C48 1.407 . S
C52 C51 1.392 . S
N53 C51 1.420 . S
N53 C54 1.244 . S
C54 N53 1.244 . S
H55 C58 0.929 . S
H56 C61 0.929 . S
H57 C63 0.930 . S
C58 H55 0.929 . S
C58 C59 1.398 . S
C58 C60 1.396 . S
C59 C58 1.398 . S
C59 C63 1.407 . S
C60 C58 1.396 . S
C60 C61 1.394 . S
C61 H56 0.929 . S
C61 C60 1.394 . S
C61 C62 1.382 . S
C62 C61 1.382 . S
C62 C63 1.392 . S
C62 N64 1.420 . S
C63 H57 0.930 . S
C63 C59 1.407 . S
C63 C62 1.392 . S
N64 C62 1.420 . S
N64 C65 1.244 . S
C65 N64 1.244 . S
H66 C69 0.929 . S
H67 C72 0.929 . S
H68 C74 0.930 . S
C69 H66 0.929 . S
C69 C70 1.398 . S
C69 C71 1.396 . S
C70 C69 1.398 . S
C70 C74 1.407 . S
C71 C69 1.396 . S
C71 C72 1.394 . S
C72 H67 0.929 . S
C72 C71 1.394 . S
C72 C73 1.382 . S
C73 C72 1.382 . S
C73 C74 1.392 . S
C73 N75 1.420 . S
C74 H68 0.930 . S
C74 C70 1.407 . S
C74 C73 1.392 . S
N75 C73 1.420 . S
N75 C76 1.244 . S
C76 N75 1.244 . S
H77 C80 0.929 . S
H78 C83 0.929 . S
H79 C85 0.930 . S
C80 H77 0.929 . S
C80 C81 1.398 . S
C80 C82 1.396 . S
C81 C80 1.398 . S
C81 C85 1.407 . S
C82 C80 1.396 . S
C82 C83 1.394 . S
C83 H78 0.929 . S
C83 C82 1.394 . S
C83 C84 1.382 . S
C84 C83 1.382 . S
C84 C85 1.392 . S
C84 N86 1.420 . S
C85 H79 0.930 . S
C85 C81 1.407 . S
C85 C84 1.392 . S
N86 C84 1.420 . S
N86 C87 1.244 . S
C87 N86 1.244 . S
Zn88 O94 1.920 . S
Zn88 O100 1.898 . S
Zn88 O103 1.905 . S
Zn89 O97 1.905 1_655 S
Zn89 O98 1.898 . S
Zn89 O106 1.920 . S
Zn90 O93 2.080 1_455 S
Zn90 O96 2.114 . S
Zn90 O99 2.120 1_455 S
Zn90 O101 2.120 . S
Zn90 O102 2.114 . S
Zn90 O105 2.080 1_455 S
C91 O96 1.166 . S
C91 O97 1.182 . S
C92 O98 1.167 . S
C92 O99 1.299 . S
O93 Zn90 2.080 1_655 S
O93 C107 1.305 . S
O94 Zn88 1.920 . S
O94 C107 1.234 1_455 S
C95 O100 1.167 . S
C95 O101 1.299 . S
O96 Zn90 2.114 . S
O96 C91 1.166 . S
O97 Zn89 1.905 1_455 S
O97 C91 1.182 . S
O98 Zn89 1.898 . S
O98 C92 1.167 . S
O99 Zn90 2.120 1_655 S
O99 C92 1.299 . S
O100 Zn88 1.898 . S
O100 C95 1.167 . S
O101 Zn90 2.120 . S
O101 C95 1.299 . S
O102 Zn90 2.114 . S
O102 C104 1.166 . S
O103 Zn88 1.905 . S
O103 C104 1.182 . S
C104 O102 1.166 . S
C104 O103 1.182 . S
O105 Zn90 2.080 1_655 S
O105 C108 1.305 . S
O106 Zn89 1.920 . S
O106 C108 1.234 . S
C107 O93 1.305 . S
C107 O94 1.234 1_655 S
C108 O105 1.305 . S
C108 O106 1.234 . S
Zn109 O115 1.920 . S
Zn109 O121 1.898 . S
Zn109 O124 1.905 . S
Zn110 O118 1.905 . S
Zn110 O119 1.898 . S
Zn110 O127 1.920 . S
Zn111 O114 2.080 . S
Zn111 O117 2.114 . S
Zn111 O120 2.120 . S
Zn111 O122 2.120 . S
Zn111 O123 2.114 . S
Zn111 O126 2.080 . S
C112 O117 1.166 . S
C112 O118 1.182 . S
C113 O119 1.167 . S
C113 O120 1.299 . S
O114 Zn111 2.080 . S
O114 C128 1.305 . S
O115 Zn109 1.920 . S
O115 C128 1.234 . S
C116 O121 1.167 . S
C116 O122 1.299 . S
O117 Zn111 2.114 . S
O117 C112 1.166 . S
O118 Zn110 1.905 . S
O118 C112 1.182 . S
O119 Zn110 1.898 . S
O119 C113 1.167 . S
O120 Zn111 2.120 . S
O120 C113 1.299 . S
O121 Zn109 1.898 . S
O121 C116 1.167 . S
O122 Zn111 2.120 . S
O122 C116 1.299 . S
O123 Zn111 2.114 . S
O123 C125 1.166 . S
O124 Zn109 1.905 . S
O124 C125 1.182 . S
C125 O123 1.166 . S
C125 O124 1.182 . S
O126 Zn111 2.080 . S
O126 C129 1.305 . S
O127 Zn110 1.920 . S
O127 C129 1.234 . S
C128 O114 1.305 . S
C128 O115 1.234 . S
C129 O126 1.305 . S
C129 O127 1.234 . S
Zn130 O136 1.920 . S
Zn130 O142 1.898 . S
Zn130 O145 1.905 1_455 S
Zn131 O139 1.905 . S
Zn131 O140 1.898 . S
Zn131 O148 1.920 1_655 S
Zn132 O135 2.080 . S
Zn132 O138 2.114 1_455 S
Zn132 O141 2.120 1_455 S
Zn132 O143 2.120 . S
Zn132 O144 2.114 1_455 S
Zn132 O147 2.080 . S
C133 O138 1.166 . S
C133 O139 1.182 . S
C134 O140 1.167 . S
C134 O141 1.299 . S
O135 Zn132 2.080 . S
O135 C149 1.305 . S
O136 Zn130 1.920 . S
O136 C149 1.234 . S
C137 O142 1.167 . S
C137 O143 1.299 . S
O138 Zn132 2.114 1_655 S
O138 C133 1.166 . S
O139 Zn131 1.905 . S
O139 C133 1.182 . S
O140 Zn131 1.898 . S
O140 C134 1.167 . S
O141 Zn132 2.120 1_655 S
O141 C134 1.299 . S
O142 Zn130 1.898 . S
O142 C137 1.167 . S
O143 Zn132 2.120 . S
O143 C137 1.299 . S
O144 Zn132 2.114 1_655 S
O144 C146 1.166 . S
O145 Zn130 1.905 1_655 S
O145 C146 1.182 . S
C146 O144 1.166 . S
C146 O145 1.182 . S
O147 Zn132 2.080 . S
O147 C150 1.305 . S
O148 Zn131 1.920 1_455 S
O148 C150 1.234 . S
C149 O135 1.305 . S
C149 O136 1.234 . S
C150 O147 1.305 . S
C150 O148 1.234 . S
Zn151 O157 1.920 . S
Zn151 O163 1.898 . S
Zn151 O166 1.905 . S
Zn152 O160 1.905 . S
Zn152 O161 1.898 . S
Zn152 O169 1.920 . S
Zn153 O156 2.080 . S
Zn153 O159 2.114 . S
Zn153 O162 2.120 . S
Zn153 O164 2.120 . S
Zn153 O165 2.114 . S
Zn153 O168 2.080 . S
C154 O159 1.166 . S
C154 O160 1.182 . S
C155 O161 1.167 . S
C155 O162 1.299 . S
O156 Zn153 2.080 . S
O156 C170 1.305 . S
O157 Zn151 1.920 . S
O157 C170 1.234 . S
C158 O163 1.167 . S
C158 O164 1.299 . S
O159 Zn153 2.114 . S
O159 C154 1.166 . S
O160 Zn152 1.905 . S
O160 C154 1.182 . S
O161 Zn152 1.898 . S
O161 C155 1.167 . S
O162 Zn153 2.120 . S
O162 C155 1.299 . S
O163 Zn151 1.898 . S
O163 C158 1.167 . S
O164 Zn153 2.120 . S
O164 C158 1.299 . S
O165 Zn153 2.114 . S
O165 C167 1.166 . S
O166 Zn151 1.905 . S
O166 C167 1.182 . S
C167 O165 1.166 . S
C167 O166 1.182 . S
O168 Zn153 2.080 . S
O168 C171 1.305 . S
O169 Zn152 1.920 . S
O169 C171 1.234 . S
C170 O156 1.305 . S
C170 O157 1.234 . S
C171 O168 1.305 . S
C171 O169 1.234 . S
H172 C178 0.930 . S
H173 C182 0.930 . S
H174 C187 0.929 . S
H175 C185 0.929 . S
H176 C180 0.929 . S
H177 C186 0.929 . S
C178 H172 0.930 . S
C178 C179 1.367 . S
C178 C186 1.378 . S
C179 C178 1.367 . S
C179 C187 1.433 . S
C180 H176 0.929 . S
C180 C182 1.378 1_565 S
C180 C184 1.350 . S
C181 C184 1.463 . S
C181 C186 1.350 . S
C181 N189 1.427 . S
C182 H173 0.930 . S
C182 C180 1.378 1_545 S
C182 C183 1.367 . S
C183 C182 1.367 . S
C183 C185 1.433 . S
C184 C180 1.350 . S
C184 C181 1.463 . S
C184 N188 1.427 . S
C185 H175 0.929 . S
C185 C183 1.433 . S
C185 N188 1.384 1_545 S
C186 H177 0.929 . S
C186 C178 1.378 . S
C186 C181 1.350 . S
C187 H174 0.929 . S
C187 C179 1.433 . S
C187 N189 1.384 . S
N188 C184 1.427 . S
N188 C185 1.384 1_565 S
N189 C181 1.427 . S
N189 C187 1.384 . S
H190 C196 0.930 . S
H191 C200 0.930 . S
H192 C205 0.929 . S
H193 C203 0.929 . S
H194 C198 0.929 . S
H195 C204 0.929 . S
C196 H190 0.930 . S
C196 C197 1.367 . S
C196 C204 1.378 . S
C197 C196 1.367 . S
C197 C205 1.433 . S
C198 H194 0.929 . S
C198 C200 1.378 . S
C198 C202 1.350 . S
C199 C202 1.463 . S
C199 C204 1.350 . S
C199 N207 1.427 . S
C200 H191 0.930 . S
C200 C198 1.378 . S
C200 C201 1.367 . S
C201 C200 1.367 . S
C201 C203 1.433 . S
C202 C198 1.350 . S
C202 C199 1.463 . S
C202 N206 1.427 . S
C203 H193 0.929 . S
C203 C201 1.433 . S
C203 N206 1.384 . S
C204 H195 0.929 . S
C204 C196 1.378 . S
C204 C199 1.350 . S
C205 H192 0.929 . S
C205 C197 1.433 . S
C205 N207 1.384 . S
N206 C202 1.427 . S
N206 C203 1.384 . S
N207 C199 1.427 . S
N207 C205 1.384 . S
H208 C214 0.930 . S
H209 C218 0.930 . S
H210 C223 0.929 . S
H211 C221 0.929 . S
H212 C216 0.929 . S
H213 C222 0.929 . S
C214 H208 0.930 . S
C214 C215 1.367 . S
C214 C222 1.378 . S
C215 C214 1.367 . S
C215 C223 1.433 . S
C216 H212 0.929 . S
C216 C218 1.378 . S
C216 C220 1.350 . S
C217 C220 1.463 . S
C217 C222 1.350 . S
C217 N225 1.427 . S
C218 H209 0.930 . S
C218 C216 1.378 . S
C218 C219 1.367 . S
C219 C218 1.367 . S
C219 C221 1.433 . S
C220 C216 1.350 . S
C220 C217 1.463 . S
C220 N224 1.427 . S
C221 H211 0.929 . S
C221 C219 1.433 . S
C221 N224 1.384 . S
C222 H213 0.929 . S
C222 C214 1.378 . S
C222 C217 1.350 . S
C223 H210 0.929 . S
C223 C215 1.433 . S
C223 N225 1.384 . S
N224 C220 1.427 . S
N224 C221 1.384 . S
N225 C217 1.427 . S
N225 C223 1.384 . S
H226 C232 0.930 . S
H227 C236 0.930 . S
H228 C241 0.929 . S
H229 C239 0.929 . S
H230 C234 0.929 . S
H231 C240 0.929 . S
C232 H226 0.930 . S
C232 C233 1.367 . S
C232 C240 1.378 . S
C233 C232 1.367 . S
C233 C241 1.433 . S
C234 H230 0.929 . S
C234 C236 1.378 1_565 S
C234 C238 1.350 . S
C235 C238 1.463 . S
C235 C240 1.350 . S
C235 N243 1.427 . S
C236 H227 0.930 . S
C236 C234 1.378 1_545 S
C236 C237 1.367 . S
C237 C236 1.367 . S
C237 C239 1.433 . S
C238 C234 1.350 . S
C238 C235 1.463 . S
C238 N242 1.427 1_565 S
C239 H229 0.929 . S
C239 C237 1.433 . S
C239 N242 1.384 . S
C240 H231 0.929 . S
C240 C232 1.378 . S
C240 C235 1.350 . S
C241 H228 0.929 . S
C241 C233 1.433 . S
C241 N243 1.384 . S
N242 C238 1.427 1_545 S
N242 C239 1.384 . S
N243 C235 1.427 . S
N243 C241 1.384 . S
H244 C250 0.930 . S
H245 C254 0.930 . S
H246 C259 0.929 . S
H247 C257 0.929 . S
H248 C252 0.929 . S
H249 C258 0.929 . S
C250 H244 0.930 . S
C250 C251 1.367 . S
C250 C258 1.378 . S
C251 C250 1.367 . S
C251 C259 1.433 . S
C252 H248 0.929 . S
C252 C254 1.378 1_545 S
C252 C256 1.350 . S
C253 C256 1.463 . S
C253 C258 1.350 . S
C253 N261 1.427 . S
C254 H245 0.930 . S
C254 C252 1.378 1_565 S
C254 C255 1.367 . S
C255 C254 1.367 . S
C255 C257 1.433 . S
C256 C252 1.350 . S
C256 C253 1.463 . S
C256 N260 1.427 . S
C257 H247 0.929 . S
C257 C255 1.433 . S
C257 N260 1.384 1_565 S
C258 H249 0.929 . S
C258 C250 1.378 . S
C258 C253 1.350 . S
C259 H246 0.929 . S
C259 C251 1.433 . S
C259 N261 1.384 . S
N260 C256 1.427 . S
N260 C257 1.384 1_545 S
N261 C253 1.427 . S
N261 C259 1.384 . S
H262 C268 0.930 . S
H263 C272 0.930 . S
H264 C277 0.929 . S
H265 C275 0.929 . S
H266 C270 0.929 . S
H267 C276 0.929 . S
C268 H262 0.930 . S
C268 C269 1.367 . S
C268 C276 1.378 . S
C269 C268 1.367 . S
C269 C277 1.433 . S
C270 H266 0.929 . S
C270 C272 1.378 . S
C270 C274 1.350 . S
C271 C274 1.463 . S
C271 C276 1.350 . S
C271 N279 1.427 . S
C272 H263 0.930 . S
C272 C270 1.378 . S
C272 C273 1.367 . S
C273 C272 1.367 . S
C273 C275 1.433 . S
C274 C270 1.350 . S
C274 C271 1.463 . S
C274 N278 1.427 . S
C275 H265 0.929 . S
C275 C273 1.433 . S
C275 N278 1.384 . S
C276 H267 0.929 . S
C276 C268 1.378 . S
C276 C271 1.350 . S
C277 H264 0.929 . S
C277 C269 1.433 . S
C277 N279 1.384 . S
N278 C274 1.427 . S
N278 C275 1.384 . S
N279 C271 1.427 . S
N279 C277 1.384 . S
H280 C286 0.930 . S
H281 C290 0.930 . S
H282 C295 0.929 . S
H283 C293 0.929 . S
H284 C288 0.929 . S
H285 C294 0.929 . S
C286 H280 0.930 . S
C286 C287 1.367 . S
C286 C294 1.378 . S
C287 C286 1.367 . S
C287 C295 1.433 . S
C288 H284 0.929 . S
C288 C290 1.378 . S
C288 C292 1.350 . S
C289 C292 1.463 . S
C289 C294 1.350 . S
C289 N297 1.427 . S
C290 H281 0.930 . S
C290 C288 1.378 . S
C290 C291 1.367 . S
C291 C290 1.367 . S
C291 C293 1.433 . S
C292 C288 1.350 . S
C292 C289 1.463 . S
C292 N296 1.427 . S
C293 H283 0.929 . S
C293 C291 1.433 . S
C293 N296 1.384 . S
C294 H285 0.929 . S
C294 C286 1.378 . S
C294 C289 1.350 . S
C295 H282 0.929 . S
C295 C287 1.433 . S
C295 N297 1.384 . S
N296 C292 1.427 . S
N296 C293 1.384 . S
N297 C289 1.427 . S
N297 C295 1.384 . S
H298 C304 0.930 . S
H299 C308 0.930 . S
H300 C313 0.929 . S
H301 C311 0.932 . S
H302 C306 0.929 . S
H303 C312 0.929 . S
C304 H298 0.930 . S
C304 C305 1.367 . S
C304 C312 1.378 . S
C305 C304 1.367 . S
C305 C313 1.433 . S
C306 H302 0.929 . S
C306 C308 1.378 1_545 S
C306 C310 1.350 . S
C307 C310 1.463 . S
C307 C312 1.350 . S
C307 N315 1.427 . S
C308 H299 0.930 . S
C308 C306 1.378 1_565 S
C308 C309 1.367 . S
C309 C308 1.367 . S
C309 C311 1.460 . S
C310 C306 1.350 . S
C310 C307 1.463 . S
C310 N314 1.427 . S
C311 H301 0.932 . S
C311 C309 1.460 . S
C311 N314 1.355 1_565 S
C312 H303 0.929 . S
C312 C304 1.378 . S
C312 C307 1.350 . S
C313 H300 0.929 . S
C313 C305 1.433 . S
C313 N315 1.384 . S
N314 C310 1.427 . S
N314 C311 1.355 1_545 S
N315 C307 1.427 . S
N315 C313 1.384 . S
H316 C322 0.932 . S
H317 C326 0.930 . S
H318 C331 0.929 . S
H319 C329 0.929 . S
H320 C324 0.929 . S
H321 C330 0.929 . S
C322 H316 0.932 . S
C322 C323 1.367 1_554 S
C322 C330 1.378 . S
C323 C322 1.367 1_556 S
C323 C331 1.433 . S
C324 H320 0.929 . S
C324 C326 1.378 . S
C324 C328 1.350 . S
C325 C328 1.463 . S
C325 C330 1.350 . S
C325 N333 1.427 . S
C326 H317 0.930 . S
C326 C324 1.378 . S
C326 C327 1.367 . S
C327 C326 1.367 . S
C327 C329 1.433 . S
C328 C324 1.350 . S
C328 C325 1.463 . S
C328 N332 1.427 . S
C329 H319 0.929 . S
C329 C327 1.433 . S
C329 N332 1.384 . S
C330 H321 0.929 . S
C330 C322 1.378 . S
C330 C325 1.350 . S
C331 H318 0.929 . S
C331 C323 1.433 . S
C331 N333 1.384 1_556 S
N332 C328 1.427 . S
N332 C329 1.384 . S
N333 C325 1.427 . S
N333 C331 1.384 1_554 S
H334 C340 0.930 . S
H335 C344 0.930 . S
H336 C349 0.929 . S
H337 C347 0.929 . S
H338 C342 0.929 . S
H339 C348 0.929 . S
C340 H334 0.930 . S
C340 C341 1.367 . S
C340 C348 1.378 . S
C341 C340 1.367 . S
C341 C349 1.433 . S
C342 H338 0.929 . S
C342 C344 1.378 . S
C342 C346 1.350 . S
C343 C346 1.463 . S
C343 C348 1.350 . S
C343 N351 1.427 . S
C344 H335 0.930 . S
C344 C342 1.378 . S
C344 C345 1.367 . S
C345 C344 1.367 . S
C345 C347 1.433 . S
C346 C342 1.350 . S
C346 C343 1.463 . S
C346 N350 1.427 . S
C347 H337 0.929 . S
C347 C345 1.433 . S
C347 N350 1.384 . S
C348 H339 0.929 . S
C348 C340 1.378 . S
C348 C343 1.350 . S
C349 H336 0.929 . S
C349 C341 1.433 . S
C349 N351 1.384 . S
N350 C346 1.427 . S
N350 C347 1.384 . S
N351 C343 1.427 . S
N351 C349 1.384 . S
H352 C358 0.930 . S
H353 C362 0.930 . S
H354 C367 0.931 . S
H355 C365 0.929 . S
H356 C360 0.929 . S
H357 C366 0.929 . S
C358 H352 0.930 . S
C358 C359 1.367 . S
C358 C366 1.378 1_554 S
C359 C358 1.367 . S
C359 C367 1.440 . S
C360 H356 0.929 . S
C360 C362 1.378 . S
C360 C364 1.350 . S
C361 C364 1.463 . S
C361 C366 1.350 . S
C361 N369 1.427 . S
C362 H353 0.930 . S
C362 C360 1.378 . S
C362 C363 1.367 . S
C363 C362 1.367 . S
C363 C365 1.433 . S
C364 C360 1.350 . S
C364 C361 1.463 . S
C364 N368 1.427 . S
C365 H355 0.929 . S
C365 C363 1.433 . S
C365 N368 1.384 . S
C366 H357 0.929 . S
C366 C358 1.378 1_556 S
C366 C361 1.350 . S
C367 H354 0.931 . S
C367 C359 1.440 . S
C367 N369 1.375 1_554 S
N368 C364 1.427 . S
N368 C365 1.384 . S
N369 C361 1.427 . S
N369 C367 1.375 1_556 S
H370 C376 0.930 . S
H371 C380 0.930 . S
H372 C385 0.929 . S
H373 C383 0.929 . S
H374 C378 0.929 . S
H375 C384 0.929 . S
C376 H370 0.930 . S
C376 C377 1.367 . S
C376 C384 1.378 . S
C377 C376 1.367 . S
C377 C385 1.433 . S
C378 H374 0.929 . S
C378 C380 1.378 . S
C378 C382 1.350 . S
C379 C382 1.463 . S
C379 C384 1.350 . S
C379 N387 1.427 . S
C380 H371 0.930 . S
C380 C378 1.378 . S
C380 C381 1.367 . S
C381 C380 1.367 . S
C381 C383 1.433 . S
C382 C378 1.350 . S
C382 C379 1.463 . S
C382 N386 1.427 . S
C383 H373 0.929 . S
C383 C381 1.433 . S
C383 N386 1.384 . S
C384 H375 0.929 . S
C384 C376 1.378 . S
C384 C379 1.350 . S
C385 H372 0.929 . S
C385 C377 1.433 . S
C385 N387 1.384 . S
N386 C382 1.427 . S
N386 C383 1.384 . S
N387 C379 1.427 . S
N387 C385 1.384 . S
H388 C394 0.930 . S
H389 C398 0.930 . S
H390 C403 0.929 1_554 S
H391 C401 0.929 . S
H392 C396 0.929 . S
H393 C402 0.929 . S
C394 H388 0.930 . S
C394 C395 1.367 . S
C394 C402 1.378 1_554 S
C395 C394 1.367 . S
C395 C403 1.433 1_554 S
C396 H392 0.929 . S
C396 C398 1.378 . S
C396 C400 1.350 . S
C397 C400 1.463 . S
C397 C402 1.350 . S
C397 N405 1.427 . S
C398 H389 0.930 . S
C398 C396 1.378 . S
C398 C399 1.367 . S
C399 C398 1.367 . S
C399 C401 1.433 . S
C400 C396 1.350 . S
C400 C397 1.463 . S
C400 N404 1.427 . S
C401 H391 0.929 . S
C401 C399 1.433 . S
C401 N404 1.384 . S
C402 H393 0.929 . S
C402 C394 1.378 1_556 S
C402 C397 1.350 . S
C403 H390 0.929 1_556 S
C403 C395 1.433 1_556 S
C403 N405 1.384 . S
N404 C400 1.427 . S
N404 C401 1.384 . S
N405 C397 1.427 . S
N405 C403 1.384 . S
H406 C412 0.930 . S
H407 C416 0.930 . S
H408 C421 0.929 . S
H409 C419 0.929 . S
H410 C414 0.929 . S
H411 C420 0.929 . S
C412 H406 0.930 . S
C412 C413 1.367 . S
C412 C420 1.378 . S
C413 C412 1.367 . S
C413 C421 1.433 . S
C414 H410 0.929 . S
C414 C416 1.378 . S
C414 C418 1.350 . S
C415 C418 1.463 . S
C415 C420 1.350 . S
C415 N423 1.427 . S
C416 H407 0.930 . S
C416 C414 1.378 . S
C416 C417 1.367 . S
C417 C416 1.367 . S
C417 C419 1.433 . S
C418 C414 1.350 . S
C418 C415 1.463 . S
C418 N422 1.427 . S
C419 H409 0.929 . S
C419 C417 1.433 . S
C419 N422 1.384 . S
C420 H411 0.929 . S
C420 C412 1.378 . S
C420 C415 1.350 . S
C421 H408 0.929 . S
C421 C413 1.433 . S
C421 N423 1.384 . S
N422 C418 1.427 . S
N422 C419 1.384 . S
N423 C415 1.427 . S
N423 C421 1.384 . S
H424 C430 0.930 . S
H425 C434 0.930 . S
H426 C439 0.929 . S
H427 C437 0.929 . S
H428 C432 0.929 . S
H429 C438 0.929 . S
C430 H424 0.930 . S
C430 C431 1.367 . S
C430 C438 1.378 1_556 S
C431 C430 1.367 . S
C431 C439 1.433 . S
C432 H428 0.929 . S
C432 C434 1.378 . S
C432 C436 1.350 . S
C433 C436 1.463 . S
C433 C438 1.350 . S
C433 N441 1.427 . S
C434 H425 0.930 . S
C434 C432 1.378 . S
C434 C435 1.367 . S
C435 C434 1.367 . S
C435 C437 1.433 . S
C436 C432 1.350 . S
C436 C433 1.463 . S
C436 N440 1.427 . S
C437 H427 0.929 . S
C437 C435 1.433 . S
C437 N440 1.384 . S
C438 H429 0.929 . S
C438 C430 1.378 1_554 S
C438 C433 1.350 . S
C439 H426 0.929 . S
C439 C431 1.433 . S
C439 N441 1.384 1_556 S
N440 C436 1.427 . S
N440 C437 1.384 . S
N441 C433 1.427 . S
N441 C439 1.384 1_554 S
H442 C448 0.930 . S
H443 C452 0.930 . S
H444 C457 0.929 . S
H445 C455 0.929 . S
H446 C450 0.929 . S
H447 C456 0.929 . S
C448 H442 0.930 . S
C448 C449 1.367 . S
C448 C456 1.378 . S
C449 C448 1.367 . S
C449 C457 1.433 . S
C450 H446 0.929 . S
C450 C452 1.378 . S
C450 C454 1.350 . S
C451 C454 1.463 . S
C451 C456 1.350 . S
C451 N459 1.427 . S
C452 H443 0.930 . S
C452 C450 1.378 . S
C452 C453 1.367 . S
C453 C452 1.367 . S
C453 C455 1.433 . S
C454 C450 1.350 . S
C454 C451 1.463 . S
C454 N458 1.427 . S
C455 H445 0.929 . S
C455 C453 1.433 . S
C455 N458 1.384 . S
C456 H447 0.929 . S
C456 C448 1.378 . S
C456 C451 1.350 . S
C457 H444 0.929 . S
C457 C449 1.433 . S
C457 N459 1.384 . S
N458 C454 1.427 . S
N458 C455 1.384 . S
N459 C451 1.427 . S
N459 C457 1.384 . S
H460 C466 0.930 . S
H461 C470 0.930 . S
H462 C475 0.929 . S
H463 C473 0.929 . S
H464 C468 0.929 . S
H465 C474 0.929 . S
C466 H460 0.930 . S
C466 C467 1.367 . S
C466 C474 1.378 . S
C467 C466 1.367 . S
C467 C475 1.433 . S
C468 H464 0.929 . S
C468 C470 1.378 . S
C468 C472 1.350 . S
C469 C472 1.463 . S
C469 C474 1.350 . S
C469 N477 1.427 . S
C470 H461 0.930 . S
C470 C468 1.378 . S
C470 C471 1.367 . S
C471 C470 1.367 . S
C471 C473 1.433 . S
C472 C468 1.350 . S
C472 C469 1.463 . S
C472 N476 1.427 . S
C473 H463 0.929 . S
C473 C471 1.433 . S
C473 N476 1.384 . S
C474 H465 0.929 . S
C474 C466 1.378 . S
C474 C469 1.350 . S
C475 H462 0.929 . S
C475 C467 1.433 . S
C475 N477 1.384 . S
N476 C472 1.427 . S
N476 C473 1.384 . S
N477 C469 1.427 . S
N477 C475 1.384 . S
H478 C484 0.930 . S
H479 C488 0.930 . S
H480 C493 0.929 . S
H481 C491 0.929 . S
H482 C486 0.929 . S
H483 C492 0.929 . S
C484 H478 0.930 . S
C484 C485 1.367 . S
C484 C492 1.378 . S
C485 C484 1.367 . S
C485 C493 1.433 . S
C486 H482 0.929 . S
C486 C488 1.378 . S
C486 C490 1.350 . S
C487 C490 1.463 . S
C487 C492 1.350 . S
C487 N495 1.427 . S
C488 H479 0.930 . S
C488 C486 1.378 . S
C488 C489 1.367 . S
C489 C488 1.367 . S
C489 C491 1.433 . S
C490 C486 1.350 . S
C490 C487 1.463 . S
C490 N494 1.427 . S
C491 H481 0.929 . S
C491 C489 1.433 . S
C491 N494 1.384 . S
C492 H483 0.929 . S
C492 C484 1.378 . S
C492 C487 1.350 . S
C493 H480 0.929 . S
C493 C485 1.433 . S
C493 N495 1.384 . S
N494 C490 1.427 . S
N494 C491 1.384 . S
N495 C487 1.427 . S
N495 C493 1.384 . S
H496 C502 0.930 . S
H497 C506 0.930 . S
H498 C511 0.929 . S
H499 C509 0.929 . S
H500 C504 0.929 . S
H501 C510 0.929 . S
C502 H496 0.930 . S
C502 C503 1.367 . S
C502 C510 1.378 . S
C503 C502 1.367 . S
C503 C511 1.433 . S
C504 H500 0.929 . S
C504 C506 1.378 . S
C504 C508 1.350 . S
C505 C508 1.463 . S
C505 C510 1.350 . S
C505 N513 1.427 . S
C506 H497 0.930 . S
C506 C504 1.378 . S
C506 C507 1.367 . S
C507 C506 1.367 . S
C507 C509 1.433 . S
C508 C504 1.350 . S
C508 C505 1.463 . S
C508 N512 1.427 . S
C509 H499 0.929 . S
C509 C507 1.433 . S
C509 N512 1.384 . S
C510 H501 0.929 . S
C510 C502 1.378 . S
C510 C505 1.350 . S
C511 H498 0.929 . S
C511 C503 1.433 . S
C511 N513 1.384 . S
N512 C508 1.427 . S
N512 C509 1.384 . S
N513 C505 1.427 . S
N513 C511 1.384 . S
H514 C520 0.930 . S
H515 C524 0.930 . S
H516 C529 0.929 . S
H517 C527 0.929 . S
H518 C522 0.929 . S
H519 C528 0.929 . S
C520 H514 0.930 . S
C520 C521 1.367 . S
C520 C528 1.378 . S
C521 C520 1.367 . S
C521 C529 1.433 . S
C522 H518 0.929 . S
C522 C524 1.378 . S
C522 C526 1.350 . S
C523 C526 1.463 . S
C523 C528 1.350 . S
C523 N531 1.427 . S
C524 H515 0.930 . S
C524 C522 1.378 . S
C524 C525 1.367 . S
C525 C524 1.367 . S
C525 C527 1.433 . S
C526 C522 1.350 . S
C526 C523 1.463 . S
C526 N530 1.427 . S
C527 H517 0.929 . S
C527 C525 1.433 . S
C527 N530 1.384 . S
C528 H519 0.929 . S
C528 C520 1.378 . S
C528 C523 1.350 . S
C529 H516 0.929 . S
C529 C521 1.433 . S
C529 N531 1.384 . S
N530 C526 1.427 . S
N530 C527 1.384 . S
N531 C523 1.427 . S
N531 C529 1.384 . S
H532 C538 0.930 . S
H533 C542 0.930 . S
H534 C547 0.929 . S
H535 C545 0.929 . S
H536 C540 0.929 . S
H537 C546 0.929 . S
C538 H532 0.930 . S
C538 C539 1.367 . S
C538 C546 1.378 . S
C539 C538 1.367 . S
C539 C547 1.433 . S
C540 H536 0.929 . S
C540 C542 1.378 . S
C540 C544 1.350 . S
C541 C544 1.463 . S
C541 C546 1.350 . S
C541 N549 1.427 . S
C542 H533 0.930 . S
C542 C540 1.378 . S
C542 C543 1.367 . S
C543 C542 1.367 . S
C543 C545 1.433 . S
C544 C540 1.350 . S
C544 C541 1.463 . S
C544 N548 1.427 . S
C545 H535 0.929 . S
C545 C543 1.433 . S
C545 N548 1.384 . S
C546 H537 0.929 . S
C546 C538 1.378 . S
C546 C541 1.350 . S
C547 H534 0.929 . S
C547 C539 1.433 . S
C547 N549 1.384 . S
N548 C544 1.427 . S
N548 C545 1.384 . S
N549 C541 1.427 . S
N549 C547 1.384 . S
H550 C556 0.930 . S
H551 C560 0.930 . S
H552 C565 0.929 . S
H553 C563 0.929 . S
H554 C558 0.929 . S
H555 C564 0.929 . S
C556 H550 0.930 . S
C556 C557 1.367 . S
C556 C564 1.378 . S
C557 C556 1.367 . S
C557 C565 1.433 . S
C558 H554 0.929 . S
C558 C560 1.378 . S
C558 C562 1.350 . S
C559 C562 1.463 . S
C559 C564 1.350 . S
C559 N567 1.427 . S
C560 H551 0.930 . S
C560 C558 1.378 . S
C560 C561 1.367 . S
C561 C560 1.367 . S
C561 C563 1.433 . S
C562 C558 1.350 . S
C562 C559 1.463 . S
C562 N566 1.427 . S
C563 H553 0.929 . S
C563 C561 1.433 . S
C563 N566 1.384 . S
C564 H555 0.929 . S
C564 C556 1.378 . S
C564 C559 1.350 . S
C565 H552 0.929 . S
C565 C557 1.433 . S
C565 N567 1.384 . S
N566 C562 1.427 . S
N566 C563 1.384 . S
N567 C559 1.427 . S
N567 C565 1.384 . S
H568 C574 0.930 . S
H569 C578 0.930 . S
H570 C583 0.929 . S
H571 C581 0.929 . S
H572 C576 0.929 . S
H573 C582 0.929 . S
C574 H568 0.930 . S
C574 C575 1.367 . S
C574 C582 1.378 . S
C575 C574 1.367 . S
C575 C583 1.433 . S
C576 H572 0.929 . S
C576 C578 1.378 . S
C576 C580 1.350 . S
C577 C580 1.463 . S
C577 C582 1.350 . S
C577 N585 1.427 . S
C578 H569 0.930 . S
C578 C576 1.378 . S
C578 C579 1.367 . S
C579 C578 1.367 . S
C579 C581 1.433 . S
C580 C576 1.350 . S
C580 C577 1.463 . S
C580 N584 1.427 . S
C581 H571 0.929 . S
C581 C579 1.433 . S
C581 N584 1.384 . S
C582 H573 0.929 . S
C582 C574 1.378 . S
C582 C577 1.350 . S
C583 H570 0.929 . S
C583 C575 1.433 . S
C583 N585 1.384 . S
N584 C580 1.427 . S
N584 C581 1.384 . S
N585 C577 1.427 . S
N585 C583 1.384 . S
H586 C592 0.930 . S
H587 C596 0.930 . S
H588 C601 0.929 . S
H589 C599 0.929 . S
H590 C594 0.929 . S
H591 C600 0.929 . S
C592 H586 0.930 . S
C592 C593 1.367 . S
C592 C600 1.378 . S
C593 C592 1.367 . S
C593 C601 1.433 . S
C594 H590 0.929 . S
C594 C596 1.378 . S
C594 C598 1.350 . S
C595 C598 1.463 . S
C595 C600 1.350 . S
C595 N603 1.427 . S
C596 H587 0.930 . S
C596 C594 1.378 . S
C596 C597 1.367 . S
C597 C596 1.367 . S
C597 C599 1.433 . S
C598 C594 1.350 . S
C598 C595 1.463 . S
C598 N602 1.427 . S
C599 H589 0.929 . S
C599 C597 1.433 . S
C599 N602 1.384 . S
C600 H591 0.929 . S
C600 C592 1.378 . S
C600 C595 1.350 . S
C601 H588 0.929 . S
C601 C593 1.433 . S
C601 N603 1.384 . S
N602 C598 1.427 . S
N602 C599 1.384 . S
N603 C595 1.427 . S
N603 C601 1.384 . S
C179 C71 1.439 . S
C183 C104 1.372 . S
C201 C112 1.271 . S
C197 C81 1.366 . S
C219 C116 1.372 . S
C215 C49 1.434 . S
C233 C59 1.362 . S
C237 C92 1.284 . S
C255 C133 1.350 . S
C251 C27 1.416 . S
C273 C167 1.386 . S
C269 C38 1.456 . S
C287 C5 1.405 . S
C291 C155 1.348 . S
C305 C16 1.443 . S
C309 C137 1.377 . S
C327 C91 1.284 . S
C323 C15 1.427 . S
C345 C125 1.313 . S
C341 C4 1.451 . S
C363 C129 1.301 . S
C359 C37 1.426 . S
C381 C107 1.326 . S
C377 C26 1.449 . S
C399 C146 1.394 . S
C395 C60 1.490 . S
C413 C48 1.503 . S
C417 C154 1.381 . S
C435 C170 1.377 . S
C431 C82 1.500 . S
C449 C70 1.498 . S
C453 C150 1.371 . S
C471 C95 1.336 . S
C467 C10 1.483 . S
C489 C113 1.388 . S
C485 C21 1.538 . S
C503 C32 1.479 . S
C507 C128 1.320 . S
C525 C108 1.375 . S
C521 C43 1.532 . S
C543 C134 1.405 . S
C539 C54 1.572 . S
C557 C65 1.517 . S
C561 C158 1.357 . S
C575 C76 1.565 . S
C579 C171 1.399 . S
C593 C87 1.511 . S
C597 C149 1.339 . S
