# Generated by pormake.
# Topology ssa, (4,4)-cn, num edge types: 1
# Building blocks:
#     Node 0, Type 0, BuildingBlock: ESEHIV_clean_sbu_0, # of connection points: 4
#     Node 1, Type 0, BuildingBlock: ESEHIV_clean_sbu_0, # of connection points: 4
#     Node 2, Type 0, BuildingBlock: ESEHIV_clean_sbu_0, # of connection points: 4
#     Node 3, Type 0, BuildingBlock: ESEHIV_clean_sbu_0, # of connection points: 4
#     Node 4, Type 0, BuildingBlock: ESEHIV_clean_sbu_0, # of connection points: 4
#     Node 5, Type 0, BuildingBlock: ESEHIV_clean_sbu_0, # of connection points: 4
#     Node 6, Type 1, BuildingBlock: MIFKUJ_clean_linker_1, # of connection points: 4
#     Node 7, Type 1, BuildingBlock: MIFKUJ_clean_linker_1, # of connection points: 4
#     Node 8, Type 1, BuildingBlock: MIFKUJ_clean_linker_1, # of connection points: 4
#     Node 9, Type 1, BuildingBlock: MIFKUJ_clean_linker_1, # of connection points: 4
#     Node 10, Type 1, BuildingBlock: MIFKUJ_clean_linker_1, # of connection points: 4
#     Node 11, Type 1, BuildingBlock: MIFKUJ_clean_linker_1, # of connection points: 4
#     Edge 12, Type (0, 1), BuildingBlock: ZUJKAS_clean_linker_0, # of connection points: 2
#     Edge 13, Type (0, 1), BuildingBlock: ZUJKAS_clean_linker_0, # of connection points: 2
#     Edge 14, Type (0, 1), BuildingBlock: ZUJKAS_clean_linker_0, # of connection points: 2
#     Edge 15, Type (0, 1), BuildingBlock: ZUJKAS_clean_linker_0, # of connection points: 2
#     Edge 16, Type (0, 1), BuildingBlock: ZUJKAS_clean_linker_0, # of connection points: 2
#     Edge 17, Type (0, 1), BuildingBlock: ZUJKAS_clean_linker_0, # of connection points: 2
#     Edge 18, Type (0, 1), BuildingBlock: ZUJKAS_clean_linker_0, # of connection points: 2
#     Edge 19, Type (0, 1), BuildingBlock: ZUJKAS_clean_linker_0, # of connection points: 2
#     Edge 20, Type (0, 1), BuildingBlock: ZUJKAS_clean_linker_0, # of connection points: 2
#     Edge 21, Type (0, 1), BuildingBlock: ZUJKAS_clean_linker_0, # of connection points: 2
#     Edge 22, Type (0, 1), BuildingBlock: ZUJKAS_clean_linker_0, # of connection points: 2
#     Edge 23, Type (0, 1), BuildingBlock: ZUJKAS_clean_linker_0, # of connection points: 2
#     Edge 24, Type (0, 1), BuildingBlock: ZUJKAS_clean_linker_0, # of connection points: 2
#     Edge 25, Type (0, 1), BuildingBlock: ZUJKAS_clean_linker_0, # of connection points: 2
#     Edge 26, Type (0, 1), BuildingBlock: ZUJKAS_clean_linker_0, # of connection points: 2
#     Edge 27, Type (0, 1), BuildingBlock: ZUJKAS_clean_linker_0, # of connection points: 2
#     Edge 28, Type (0, 1), BuildingBlock: ZUJKAS_clean_linker_0, # of connection points: 2
#     Edge 29, Type (0, 1), BuildingBlock: ZUJKAS_clean_linker_0, # of connection points: 2
#     Edge 30, Type (0, 1), BuildingBlock: ZUJKAS_clean_linker_0, # of connection points: 2
#     Edge 31, Type (0, 1), BuildingBlock: ZUJKAS_clean_linker_0, # of connection points: 2
#     Edge 32, Type (0, 1), BuildingBlock: ZUJKAS_clean_linker_0, # of connection points: 2
#     Edge 33, Type (0, 1), BuildingBlock: ZUJKAS_clean_linker_0, # of connection points: 2
#     Edge 34, Type (0, 1), BuildingBlock: ZUJKAS_clean_linker_0, # of connection points: 2
#     Edge 35, Type (0, 1), BuildingBlock: ZUJKAS_clean_linker_0, # of connection points: 2
# Relax obj value: 0.006
# Max RMSD: 0.106
# Mean RMSD: 0.056
data_MOF--net-ssa--node1-ESEHIV_clean_sbu_0--node2-MIFKUJ_clean_linker_1--edge1-ZUJKAS_clean_linker_0
_symmetry_space_group_name_H-M    P1
_symmetry_Int_Tables_number       1
_symmetry_cell_setting            triclinic
loop_
_symmetry_equiv_pos_as_xyz
'x, y, z'
_cell_length_a     75.112225
_cell_length_b     78.787654
_cell_length_c     49.41652
_cell_angle_alpha  88.731915
_cell_angle_beta   90.714327
_cell_angle_gamma 121.55861
loop_
_atom_site_label
_atom_site_type_symbol
_atom_site_fract_x
_atom_site_fract_y
_atom_site_fract_z
_atom_type_partial_charge
Cu0 Cu 1.00238 0.51096 0.0185 0.0
N1 N 0.98278 0.4838 0.02121 0.0
N2 N 0.95862 0.45322 0.00816 0.0
C3 C 0.97199 0.47227 1.00026 0.0
C4 C 0.96107 0.45279 0.03524 0.0
C5 C 0.97608 0.47173 0.04324 0.0
O6 O 0.9956 0.52015 0.98519 0.0
C7 C 0.0347 0.50201 0.01929 0.0
O8 O 0.02004 0.48434 0.01107 0.0
H9 H 0.97368 0.47788 0.97968 0.0
H10 H 0.98167 0.4764 0.06362 0.0
N11 N 0.99952 0.52369 0.04786 0.0
N12 N 0.00889 0.546 0.08037 0.0
C13 C 0.01509 0.54067 0.05834 0.0
C14 C 0.98283 0.51798 0.06379 0.0
C15 C 0.98863 0.53173 0.08405 0.0
C16 C 0.9964 0.53665 0.98253 0.0
O17 O 0.00544 0.55003 1.00144 0.0
H18 H 0.03083 0.54866 0.05033 0.0
H19 H 0.96767 0.50462 0.06111 0.0
O20 O 0.03063 0.51575 0.02103 0.0
H21 H 0.95275 0.43974 0.04828 0.0
H22 H 0.97877 0.53127 0.10019 0.0
Cu23 Cu 0.51972 0.00929 0.494 0.0
N24 N 0.5323 0.00586 0.46393 0.0
N25 N 0.5413 0.99025 0.43477 0.0
C26 C 0.53008 0.98842 0.45702 0.0
C27 C 0.55089 0.00971 0.42741 0.0
C28 C 0.54531 0.01928 0.44542 0.0
O29 O 0.49267 0.98481 0.49807 0.0
C30 C 0.55566 0.02975 0.52389 0.0
O31 O 0.56157 0.03991 0.50093 0.0
H32 H 0.52027 0.97465 0.46816 0.0
H33 H 0.55059 0.03496 0.44521 0.0
N34 N 0.51681 0.03137 0.49015 0.0
N35 N 0.51272 0.05623 0.50278 0.0
C36 C 0.51476 0.04088 0.51105 0.0
C37 C 0.51607 0.04097 0.46773 0.0
C38 C 0.51352 0.05632 0.47546 0.0
C39 C 0.47549 0.98382 0.49303 0.0
O40 O 0.47557 1.00028 0.48783 0.0
H41 H 0.51435 0.03625 0.53192 0.0
H42 H 0.51716 0.03702 0.44726 0.0
O43 O 0.53734 0.01439 0.5255 0.0
H44 H 0.56154 0.01671 0.41058 0.0
H45 H 0.51251 0.06678 0.46196 0.0
Cu46 Cu 0.5133 0.4932 0.03018 0.0
N47 N 0.50916 0.46763 0.02992 0.0
N48 N 0.50459 0.43945 0.01315 0.0
C49 C 0.50713 0.45744 0.00741 0.0
C50 C 0.50502 0.43834 0.04046 0.0
C51 C 0.50789 0.45576 0.05073 0.0
O52 O 0.53258 0.50818 1.00102 0.0
C53 C 0.4701 0.47735 0.03538 0.0
O54 O 0.46992 0.46124 0.04326 0.0
H55 H 0.50732 0.46314 0.98722 0.0
H56 H 0.50895 0.45949 0.07186 0.0
N57 N 0.52498 0.50641 0.06251 0.0
N58 N 0.53418 0.5294 0.0942 0.0
C59 C 0.52325 0.52154 0.07123 0.0
C60 C 0.53738 0.50449 0.08063 0.0
C61 C 0.54315 0.51874 0.10019 0.0
C62 C 0.55048 0.51019 0.00318 0.0
O63 O 0.55449 0.50267 0.02471 0.0
H64 H 0.5147 0.5271 0.06033 0.0
H65 H 0.54225 0.49382 0.07941 0.0
O66 O 0.48705 0.49231 0.02657 0.0
H67 H 0.50367 0.42598 0.05223 0.0
H68 H 0.55323 0.52111 0.11737 0.0
Cu69 Cu 0.01495 0.49865 0.54319 0.0
N70 N 0.038 0.49577 0.54122 0.0
N71 N 0.06388 0.49454 0.52146 0.0
C72 C 0.04705 0.49623 0.51772 0.0
C73 C 0.0655 0.49299 0.54854 0.0
C74 C 0.04946 0.49373 0.5607 0.0
O75 O 0.01788 0.51573 0.51213 0.0
C76 C 0.98785 0.46168 0.56486 0.0
O77 O 1.00386 0.46848 0.58143 0.0
H78 H 0.04164 0.49831 0.49826 0.0
H79 H 0.0465 0.49295 0.58218 0.0
N80 N 0.01469 0.51108 0.57473 0.0
N81 N 1.00176 0.52203 0.60558 0.0
C82 C 0.99829 0.51232 0.58213 0.0
C83 C 0.02921 0.52033 0.59413 0.0
C84 C 0.02127 0.52718 0.6132 0.0
C85 C 0.03177 0.53414 0.51458 0.0
O86 O 0.04157 0.54023 0.53781 0.0
H87 H 0.98421 0.50649 0.5701 0.0
H88 H 0.04452 0.52218 0.59426 0.0
O89 O 0.98925 0.47247 0.5444 0.0
H90 H 0.07734 0.49136 0.55884 0.0
H91 H 0.0292 0.5352 0.6313 0.0
Cu92 Cu 0.48474 0.9818 0.99789 0.0
N93 N 0.47136 0.98404 0.9673 0.0
N94 N 0.46429 0.99938 0.93421 0.0
C95 C 0.47545 1.0016 0.95684 0.0
C96 C 0.45257 0.97955 0.93032 0.0
C97 C 0.45706 0.97009 0.95075 0.0
O98 O 0.51109 0.00742 0.99987 0.0
C99 C 0.44987 0.95779 0.02872 0.0
O100 O 0.4458 0.94725 0.00678 0.0
H101 H 0.48637 0.01575 0.96588 0.0
H102 H 0.45055 0.95424 0.95312 0.0
N103 N 0.48993 0.96128 0.99447 0.0
N104 N 0.49739 0.93838 0.00734 0.0
C105 C 0.49498 0.95333 0.01525 0.0
C106 C 0.48908 0.95108 0.97252 0.0
C107 C 0.49378 0.93694 0.98041 0.0
C108 C 0.52645 0.00997 0.98579 0.0
O109 O 0.52481 0.99468 0.97329 0.0
H110 H 0.49695 0.95858 0.03576 0.0
H111 H 0.4853 0.9537 0.95228 0.0
O112 O 0.46669 0.97484 0.02951 0.0
H113 H 0.44185 0.97242 0.91367 0.0
H114 H 0.49412 0.92623 0.96743 0.0
Cu115 Cu 0.51503 0.50392 0.49335 0.0
N116 N 0.5349 0.51876 0.46695 0.0
N117 N 0.5539 0.54407 0.43831 0.0
C118 C 0.53937 0.53677 0.45798 0.0
C119 C 0.55866 0.53 0.43446 0.0
C120 C 0.54695 0.51436 0.45238 0.0
O121 O 0.49219 0.50847 0.4868 0.0
C122 C 0.54288 0.52899 0.5349 0.0
O123 O 0.54718 0.54394 0.51838 0.0
H124 H 0.53169 0.54418 0.46537 0.0
H125 H 0.54704 0.50071 0.45444 0.0
N126 N 0.50563 0.47707 0.48999 0.0
N127 N 0.49602 0.44613 0.50287 0.0
C128 C 0.50173 0.46451 0.51101 0.0
C129 C 0.50224 0.46633 0.46763 0.0
C130 C 0.49638 0.44716 0.47555 0.0
C131 C 0.47291 0.49492 0.48821 0.0
O132 O 0.46754 0.47735 0.49848 0.0
H133 H 0.50366 0.46899 0.53192 0.0
H134 H 0.5042 0.4721 0.44712 0.0
O135 O 0.52844 0.51146 0.5287 0.0
H136 H 0.56979 0.53097 0.41984 0.0
H137 H 0.4927 0.43499 0.4623 0.0
H138 H 0.21876 0.4784 0.19432 0.0
H139 H 0.19239 0.47935 0.16598 0.0
H140 H 0.2073 0.53464 0.20238 0.0
H141 H 0.23375 0.53369 0.2306 0.0
H142 H 0.25888 0.50188 0.19557 0.0
H143 H 0.20494 0.48105 0.26218 0.0
H144 H 0.17981 0.4805 0.29377 0.0
H145 H 0.22821 0.53695 0.32539 0.0
H146 H 0.25326 0.53728 0.29399 0.0
H147 H 0.30454 0.53439 0.29603 0.0
H148 H 0.33009 0.53338 0.32602 0.0
H149 H 0.31627 0.47817 0.29055 0.0
H150 H 0.29032 0.47896 0.26092 0.0
H151 H 0.26471 0.51048 0.29491 0.0
H152 H 0.31922 0.52938 0.22889 0.0
H153 H 0.34417 0.52625 0.20135 0.0
H154 H 0.29342 0.47163 0.16839 0.0
H155 H 0.26874 0.47445 0.1967 0.0
C156 C 0.22819 0.50587 0.21484 0.0
C157 C 0.21635 0.49073 0.19626 0.0
C158 C 0.20131 0.49133 0.17996 0.0
C159 C 0.19774 0.5071 0.18182 0.0
C160 C 0.20944 0.52214 0.20066 0.0
C161 C 0.22456 0.52159 0.21688 0.0
C162 C 0.24501 0.50571 0.23099 0.0
C163 C 0.25999 0.5035 0.21738 0.0
C164 C 0.24685 0.50832 0.25934 0.0
C165 C 0.23097 0.50921 0.27572 0.0
C166 C 0.21001 0.4935 0.27553 0.0
C167 C 0.19567 0.49321 0.29361 0.0
C168 C 0.20207 0.50859 0.31229 0.0
C169 C 0.22287 0.52469 0.31162 0.0
C170 C 0.23718 0.52496 0.29359 0.0
C171 C 0.29552 0.50684 0.27597 0.0
C172 C 0.30702 0.52207 0.29459 0.0
C173 C 0.3216 0.52146 0.3118 0.0
C174 C 0.32515 0.50566 0.31074 0.0
C175 C 0.31403 0.49065 0.29167 0.0
C176 C 0.29924 0.49114 0.27462 0.0
C177 C 0.2787 0.50681 0.25952 0.0
C178 C 0.26369 0.50897 0.27309 0.0
C179 C 0.27677 0.50401 0.23117 0.0
C180 C 0.29213 0.50203 0.21509 0.0
C181 C 0.31353 0.5166 0.21601 0.0
C182 C 0.32774 0.5149 0.20001 0.0
C183 C 0.3208 0.49868 0.18265 0.0
C184 C 0.29935 0.48416 0.1818 0.0
C185 C 0.28519 0.48583 0.19783 0.0
H186 H 0.70658 0.22595 0.81795 0.0
H187 H 0.67948 0.20075 0.84785 0.0
H188 H 0.69556 0.15814 0.82324 0.0
H189 H 0.72267 0.18342 0.79348 0.0
H190 H 0.74788 0.24204 0.81852 0.0
H191 H 0.69264 0.20414 0.75335 0.0
H192 H 0.66644 0.17344 0.73117 0.0
H193 H 0.7148 0.16233 0.70873 0.0
H194 H 0.7409 0.19296 0.73111 0.0
H195 H 0.79133 0.24941 0.71699 0.0
H196 H 0.81756 0.27544 0.68705 0.0
H197 H 0.80354 0.31764 0.71933 0.0
H198 H 0.77712 0.29153 0.7489 0.0
H199 H 0.75149 0.23222 0.72044 0.0
H200 H 0.8071 0.2701 0.7823 0.0
H201 H 0.83354 0.29716 0.80995 0.0
H202 H 0.78617 0.30673 0.84156 0.0
H203 H 0.75984 0.27971 0.81389 0.0
C204 C 0.71652 0.20655 0.80316 0.0
C205 C 0.70428 0.21118 0.81901 0.0
C206 C 0.68883 0.19677 0.83617 0.0
C207 C 0.6853 0.17739 0.83791 0.0
C208 C 0.69763 0.17281 0.82207 0.0
C209 C 0.71314 0.18726 0.805 0.0
C210 C 0.73321 0.22212 0.78538 0.0
C211 C 0.7485 0.24007 0.79696 0.0
C212 C 0.73453 0.21921 0.75751 0.0
C213 C 0.71867 0.20075 0.74393 0.0
C214 C 0.69756 0.19503 0.74374 0.0
C215 C 0.68265 0.17756 0.731 0.0
C216 C 0.68859 0.16547 0.71832 0.0
C217 C 0.70974 0.17122 0.71863 0.0
C218 C 0.72467 0.18878 0.73117 0.0
C219 C 0.78236 0.26848 0.73556 0.0
C220 C 0.79382 0.26424 0.71758 0.0
C221 C 0.80879 0.27913 0.7004 0.0
C222 C 0.81269 0.29864 0.70084 0.0
C223 C 0.80115 0.30285 0.71876 0.0
C224 C 0.78606 0.28792 0.73577 0.0
C225 C 0.76614 0.25248 0.75348 0.0
C226 C 0.75093 0.23436 0.74195 0.0
C227 C 0.76505 0.25517 0.78155 0.0
C228 C 0.78149 0.27291 0.79596 0.0
C229 C 0.80249 0.27829 0.79477 0.0
C230 C 0.81758 0.29374 0.81061 0.0
C231 C 0.81189 0.30396 0.8281 0.0
C232 C 0.79097 0.29892 0.82862 0.0
C233 C 0.77593 0.28354 0.81274 0.0
H234 H 0.58692 0.81685 0.30068 0.0
H235 H 0.58532 0.84367 0.32227 0.0
H236 H 0.52216 0.81891 0.29285 0.0
H237 H 0.52409 0.79244 0.27094 0.0
H238 H 0.56241 0.77542 0.30713 0.0
H239 H 0.57879 0.82469 0.23536 0.0
H240 H 0.57273 0.8465 0.20569 0.0
H241 H 0.51514 0.79532 0.17797 0.0
H242 H 0.52096 0.77377 0.20822 0.0
H243 H 0.52706 0.72709 0.21259 0.0
H244 H 0.52568 0.69822 0.19286 0.0
H245 H 0.58647 0.71701 0.22661 0.0
H246 H 0.58791 0.74603 0.24592 0.0
H247 H 0.55205 0.76661 0.20782 0.0
H248 H 0.53126 0.71817 0.2786 0.0
H249 H 0.53608 0.69252 0.29977 0.0
H250 H 0.59705 0.73795 0.32807 0.0
H251 H 0.59235 0.76368 0.30624 0.0
C252 C 0.55573 0.80277 0.28395 0.0
C253 C 0.57272 0.81719 0.299 0.0
C254 C 0.57173 0.83248 0.31141 0.0
C255 C 0.55363 0.83357 0.30922 0.0
C256 C 0.5365 0.81883 0.29452 0.0
C257 C 0.53753 0.80361 0.28207 0.0
C258 C 0.55704 0.78696 0.26995 0.0
C259 C 0.56046 0.77372 0.28538 0.0
C260 C 0.55386 0.78425 0.24167 0.0
C261 C 0.55024 0.79764 0.22413 0.0
C262 C 0.56476 0.81824 0.2231 0.0
C263 C 0.56137 0.83064 0.20597 0.0
C264 C 0.54344 0.82262 0.18953 0.0
C265 C 0.52895 0.80199 0.19066 0.0
C266 C 0.53234 0.78963 0.20776 0.0
C267 C 0.55747 0.73863 0.23101 0.0
C268 C 0.54023 0.72516 0.2154 0.0
C269 C 0.53945 0.70865 0.20416 0.0
C270 C 0.5559 0.70524 0.20836 0.0
C271 C 0.57341 0.71904 0.22338 0.0
C272 C 0.57427 0.73566 0.23437 0.0
C273 C 0.55737 0.75516 0.24491 0.0
C274 C 0.55415 0.76846 0.22955 0.0
C275 C 0.56017 0.75762 0.27326 0.0
C276 C 0.56161 0.74276 0.29047 0.0
C277 C 0.54557 0.72264 0.28964 0.0
C278 C 0.54837 0.70801 0.30158 0.0
C279 C 0.56708 0.71329 0.31507 0.0
C280 C 0.58252 0.73354 0.31767 0.0
C281 C 0.57982 0.74822 0.30535 0.0
H282 H 0.73305 0.52036 0.71337 0.0
H283 H 0.70413 0.51875 0.68785 0.0
H284 H 0.71923 0.57514 0.72092 0.0
H285 H 0.74776 0.57632 0.74685 0.0
H286 H 0.77616 0.54863 0.71397 0.0
H287 H 0.71804 0.51963 0.77628 0.0
H288 H 0.68878 0.51862 0.79907 0.0
H289 H 0.73148 0.57556 0.83478 0.0
H290 H 0.76069 0.57662 0.8115 0.0
H291 H 0.81669 0.57432 0.81932 0.0
H292 H 0.84402 0.57299 0.84505 0.0
H293 H 0.83018 0.52023 0.80201 0.0
H294 H 0.80227 0.52107 0.77761 0.0
H295 H 0.77481 0.54949 0.81439 0.0
H296 H 0.83328 0.57824 0.75377 0.0
H297 H 0.86285 0.57796 0.73417 0.0
H298 H 0.82007 0.52231 0.69547 0.0
H299 H 0.79053 0.52252 0.71557 0.0
C300 C 0.74249 0.54838 0.73214 0.0
C301 C 0.73019 0.53242 0.71495 0.0
C302 C 0.71367 0.53157 0.70031 0.0
C303 C 0.70922 0.54678 0.70233 0.0
C304 C 0.72188 0.56295 0.71922 0.0
C305 C 0.73832 0.56373 0.73395 0.0
C306 C 0.75924 0.54865 0.74885 0.0
C307 C 0.77576 0.54866 0.73591 0.0
C308 C 0.75905 0.54917 0.77745 0.0
C309 C 0.74149 0.54826 0.7921 0.0
C310 C 0.72107 0.53191 0.78897 0.0
C311 C 0.7044 0.53132 0.80209 0.0
C312 C 0.70783 0.54705 0.81864 0.0
C313 C 0.72833 0.56335 0.82188 0.0
C314 C 0.74503 0.56389 0.80883 0.0
C315 C 0.80758 0.54796 0.79624 0.0
C316 C 0.81941 0.56235 0.8157 0.0
C317 C 0.83521 0.56169 0.83016 0.0
C318 C 0.83951 0.54659 0.82552 0.0
C319 C 0.82727 0.53197 0.80642 0.0
C320 C 0.8114 0.53255 0.79217 0.0
C321 C 0.79166 0.54929 0.77955 0.0
C322 C 0.77532 0.54964 0.79246 0.0
C323 C 0.7921 0.54929 0.75088 0.0
C324 C 0.80976 0.55031 0.73631 0.0
C325 C 0.83028 0.56609 0.74084 0.0
C326 C 0.84715 0.56595 0.72954 0.0
C327 C 0.84377 0.55003 0.71347 0.0
C328 C 0.82314 0.53463 0.70809 0.0
C329 C 0.80627 0.53483 0.71931 0.0
H330 H 0.25301 0.80932 0.24649 0.0
H331 H 0.28084 0.83694 0.22006 0.0
H332 H 0.32475 0.82127 0.25008 0.0
H333 H 0.29677 0.79347 0.27612 0.0
H334 H 0.23757 0.76963 0.24213 0.0
H335 H 0.27065 0.81874 0.31118 0.0
H336 H 0.29893 0.84304 0.33985 0.0
H337 H 0.30986 0.79722 0.36941 0.0
H338 H 0.28152 0.77297 0.34072 0.0
H339 H 0.22581 0.72038 0.3364 0.0
H340 H 0.19746 0.69035 0.35834 0.0
H341 H 0.15313 0.70563 0.3287 0.0
H342 H 0.18155 0.73553 0.30662 0.0
H343 H 0.24094 0.75999 0.34122 0.0
H344 H 0.20932 0.7112 0.27312 0.0
H345 H 0.17901 0.68526 0.24882 0.0
H346 H 0.16614 0.72931 0.21724 0.0
H347 H 0.19624 0.75524 0.24225 0.0
C348 C 0.2728 0.79937 0.26342 0.0
C349 C 0.26865 0.81188 0.24746 0.0
C350 C 0.28462 0.82776 0.23253 0.0
C351 C 0.30504 0.83134 0.23299 0.0
C352 C 0.30917 0.81884 0.24912 0.0
C353 C 0.29322 0.80303 0.26419 0.0
C354 C 0.2556 0.78207 0.27847 0.0
C355 C 0.23819 0.76771 0.26386 0.0
C356 C 0.25663 0.77918 0.30671 0.0
C357 C 0.27411 0.79408 0.32359 0.0
C358 C 0.27929 0.81398 0.3236 0.0
C359 C 0.29546 0.82785 0.34001 0.0
C360 C 0.30666 0.82206 0.35689 0.0
C361 C 0.30137 0.8021 0.35689 0.0
C362 C 0.28524 0.78825 0.34043 0.0
C363 C 0.20582 0.73015 0.31969 0.0
C364 C 0.21 0.71734 0.33485 0.0
C365 C 0.19375 0.70017 0.34739 0.0
C366 C 0.17295 0.69547 0.34519 0.0
C367 C 0.16888 0.70856 0.33041 0.0
C368 C 0.18514 0.72574 0.3179 0.0
C369 C 0.22296 0.74769 0.30492 0.0
C370 C 0.24034 0.762 0.31951 0.0
C371 C 0.22205 0.75045 0.27663 0.0
C372 C 0.2048 0.7351 0.25993 0.0
C373 C 0.19992 0.71529 0.2611 0.0
C374 C 0.18262 0.70048 0.24724 0.0
C375 C 0.17013 0.70528 0.23144 0.0
C376 C 0.17554 0.72525 0.22929 0.0
C377 C 0.19272 0.74004 0.2435 0.0
H378 H 0.50928 0.27149 0.80491 0.0
H379 H 0.51188 0.29634 0.83597 0.0
H380 H 0.45523 0.28966 0.80224 0.0
H381 H 0.45228 0.26419 0.77191 0.0
H382 H 0.4802 0.23304 0.80142 0.0
H383 H 0.507 0.29055 0.73749 0.0
H384 H 0.50746 0.3165 0.70875 0.0
H385 H 0.44506 0.27391 0.68093 0.0
H386 H 0.44503 0.24804 0.70906 0.0
H387 H 0.45054 0.1984 0.69429 0.0
H388 H 0.45361 0.17595 0.66389 0.0
H389 H 0.51068 0.18902 0.70433 0.0
H390 H 0.50736 0.21119 0.73474 0.0
H391 H 0.47514 0.23724 0.70161 0.0
H392 H 0.44775 0.18006 0.75705 0.0
H393 H 0.44566 0.15073 0.778 0.0
H394 H 0.50284 0.18876 0.82174 0.0
H395 H 0.50479 0.21813 0.80072 0.0
C396 C 0.4807 0.26606 0.78584 0.0
C397 C 0.4974 0.27537 0.80418 0.0
C398 C 0.49897 0.28973 0.82179 0.0
C399 C 0.48383 0.29512 0.82157 0.0
C400 C 0.46709 0.28579 0.80314 0.0
C401 C 0.46551 0.27137 0.78553 0.0
C402 C 0.47895 0.25035 0.76785 0.0
C403 C 0.47937 0.23413 0.77957 0.0
C404 C 0.4767 0.25105 0.73944 0.0
C405 C 0.47599 0.26742 0.72531 0.0
C406 C 0.49332 0.28696 0.72552 0.0
C407 C 0.49352 0.30176 0.70912 0.0
C408 C 0.47638 0.29723 0.69227 0.0
C409 C 0.45869 0.27781 0.69317 0.0
C410 C 0.45857 0.26304 0.70938 0.0
C411 C 0.47859 0.20634 0.71699 0.0
C412 C 0.46368 0.19638 0.69661 0.0
C413 C 0.46551 0.1836 0.67918 0.0
C414 C 0.48238 0.18062 0.68166 0.0
C415 C 0.49728 0.19065 0.70212 0.0
C416 C 0.49542 0.20338 0.71953 0.0
C417 C 0.47705 0.22036 0.7351 0.0
C418 C 0.4759 0.23614 0.72347 0.0
C419 C 0.47801 0.21895 0.76361 0.0
C420 C 0.47656 0.20127 0.77709 0.0
C421 C 0.4599 0.18208 0.77105 0.0
C422 C 0.45875 0.16533 0.78298 0.0
C423 C 0.47417 0.16742 0.80138 0.0
C424 C 0.49064 0.18667 0.80781 0.0
C425 C 0.49179 0.20346 0.79581 0.0
H426 H 0.04683 0.47477 0.0226 0.0
H427 H 0.07614 0.47733 0.04827 0.0
H428 H 0.09607 0.53753 0.06938 0.0
H429 H 0.06676 0.53518 0.04367 0.0
H430 H 0.12954 0.53088 0.05487 0.0
H431 H 0.07545 0.47717 0.13269 0.0
H432 H 0.06953 0.4687 0.09843 0.0
H433 H 0.06757 0.48945 0.10838 0.0
C434 C 0.05758 0.48869 0.03235 0.0
C435 C 0.05429 0.50472 0.03122 0.0
C436 C 0.07428 0.49007 0.04715 0.0
C437 C 0.08805 0.50749 0.06113 0.0
C438 C 0.08554 0.52391 0.05886 0.0
H439 H 0.16934 0.51746 0.1952 0.0
H440 H 0.14362 0.51875 0.16564 0.0
C441 C 0.06878 0.52253 0.0441 0.0
C442 C 0.1044 0.50817 0.07914 0.0
H443 H 0.11107 0.48721 0.13667 0.0
C444 C 0.12554 0.52137 0.07278 0.0
C445 C 0.09913 0.49595 0.10272 0.0
C446 C 0.0767 0.48212 0.1112 0.0
C447 C 0.14154 0.52235 0.08907 0.0
C448 C 0.13625 0.50969 0.1122 0.0
C449 C 0.11512 0.4968 0.11884 0.0
C450 C 0.15236 0.50952 0.12982 0.0
C451 C 0.16399 0.53709 0.08159 0.0
C452 C 0.16572 0.50374 0.11958 0.0
C453 C 0.18043 0.503 0.13641 0.0
C454 C 0.1821 0.50799 0.1639 0.0
C455 C 0.16867 0.51376 0.17409 0.0
C456 C 0.15389 0.51441 0.15725 0.0
H457 H 0.16541 0.54896 0.06757 0.0
H458 H 0.17355 0.54416 0.09992 0.0
H459 H 0.17055 0.52917 0.07133 0.0
H460 H 0.1646 0.49958 0.0986 0.0
H461 H 0.19063 0.49866 0.12782 0.0
H462 H 0.59534 0.06169 0.52557 0.0
H463 H 0.61633 0.0779 0.56529 0.0
H464 H 0.56819 0.03259 0.61678 0.0
H465 H 0.54664 0.01637 0.57678 0.0
H466 H 0.5803 0.06909 0.63369 0.0
H467 H 0.6509 0.06624 0.61574 0.0
H468 H 0.6451 0.0762 0.58634 0.0
H469 H 0.62688 0.05093 0.5974 0.0
C470 C 0.58928 0.05491 0.54527 0.0
C471 C 0.56927 0.03774 0.54799 0.0
C472 C 0.60144 0.06414 0.56801 0.0
C473 C 0.59403 0.05629 0.59403 0.0
C474 C 0.57429 0.0388 0.59686 0.0
H475 H 0.68368 0.1285 0.72068 0.0
H476 H 0.65876 0.09897 0.69522 0.0
C477 C 0.56202 0.02953 0.574 0.0
C478 C 0.60614 0.06769 0.61799 0.0
H479 H 0.6559 0.09403 0.64258 0.0
C480 C 0.59672 0.07419 0.63602 0.0
C481 C 0.62745 0.07404 0.62148 0.0
C482 C 0.63807 0.06627 0.60435 0.0
C483 C 0.60843 0.08802 0.65612 0.0
C484 C 0.63022 0.09595 0.65771 0.0
C485 C 0.63928 0.08829 0.64106 0.0
C486 C 0.64415 0.11322 0.67488 0.0
C487 C 0.59734 0.09422 0.67509 0.0
C488 C 0.6443 0.13106 0.67183 0.0
C489 C 0.6584 0.14785 0.68644 0.0
C490 C 0.6729 0.14726 0.70404 0.0
C491 C 0.67275 0.1294 0.70713 0.0
C492 C 0.65848 0.11252 0.69269 0.0
H493 H 0.58082 0.08204 0.67812 0.0
H494 H 0.60519 0.09845 0.69513 0.0
H495 H 0.59724 0.1072 0.66613 0.0
H496 H 0.63391 0.13221 0.65755 0.0
H497 H 0.6584 0.16151 0.68327 0.0
H498 H 0.50612 0.54103 0.09671 0.0
H499 H 0.51097 0.57093 0.11795 0.0
H500 H 0.57231 0.58615 0.14492 0.0
H501 H 0.56769 0.55635 0.12339 0.0
H502 H 0.52113 0.5831 0.17439 0.0
H503 H 0.58102 0.63612 0.10079 0.0
H504 H 0.56382 0.60999 0.09383 0.0
H505 H 0.58558 0.61786 0.11636 0.0
C506 C 0.52068 0.55076 0.10707 0.0
C507 C 0.53659 0.54638 0.10817 0.0
C508 C 0.52336 0.56777 0.11934 0.0
C509 C 0.54208 0.58085 0.13273 0.0
C510 C 0.55783 0.57634 0.13442 0.0
H511 H 0.56599 0.68026 0.23414 0.0
H512 H 0.56315 0.6501 0.21651 0.0
C513 C 0.5551 0.55922 0.12231 0.0
C514 C 0.54513 0.59933 0.14453 0.0
H515 H 0.57274 0.65001 0.13676 0.0
C516 C 0.53248 0.59775 0.16628 0.0
C517 C 0.55978 0.61837 0.13367 0.0
C518 C 0.57327 0.62083 0.10975 0.0
C519 C 0.53416 0.61475 0.17756 0.0
C520 C 0.54894 0.6338 0.16684 0.0
C521 C 0.56153 0.63538 0.14503 0.0
C522 C 0.55107 0.65224 0.17745 0.0
C523 C 0.51982 0.61223 0.20046 0.0
C524 C 0.54557 0.66361 0.16114 0.0
C525 C 0.5472 0.68084 0.17113 0.0
C526 C 0.55459 0.68716 0.19752 0.0
C527 C 0.5604 0.67588 0.21365 0.0
C528 C 0.55863 0.65857 0.20371 0.0
H529 H 0.50674 0.59654 0.20296 0.0
H530 H 0.52885 0.61681 0.21963 0.0
H531 H 0.51324 0.62186 0.197 0.0
H532 H 0.53981 0.65902 0.14077 0.0
H533 H 0.54283 0.68932 0.15811 0.0
H534 H 0.95954 0.50111 0.602 0.0
H535 H 0.93556 0.50939 0.62187 0.0
H536 H 0.98724 0.5603 0.66009 0.0
H537 H 0.01159 0.55238 0.63969 0.0
H538 H 0.95003 0.5343 0.69418 0.0
H539 H 0.93171 0.55878 0.59708 0.0
H540 H 0.92988 0.53513 0.59608 0.0
H541 H 0.95479 0.55736 0.6018 0.0
C542 C 0.96591 0.5142 0.61437 0.0
C543 C 0.98756 0.52625 0.6189 0.0
C544 C 0.95215 0.51885 0.6258 0.0
C545 C 0.9597 0.53561 0.64203 0.0
C546 C 0.98118 0.54735 0.64743 0.0
H547 H 0.87987 0.5801 0.69039 0.0
H548 H 0.90977 0.57848 0.67464 0.0
C549 C 0.99503 0.54275 0.63588 0.0
C550 C 0.94496 0.5407 0.65322 0.0
H551 H 0.90919 0.55297 0.63427 0.0
C552 C 0.94125 0.53861 0.68118 0.0
C553 C 0.93375 0.54653 0.63618 0.0
C554 C 0.93781 0.54978 0.60612 0.0
C555 C 0.92589 0.54136 0.69244 0.0
C556 C 0.91391 0.54616 0.67518 0.0
C557 C 0.91829 0.54912 0.64738 0.0
C558 C 0.89617 0.54733 0.68538 0.0
C559 C 0.92246 0.53896 0.72264 0.0
C560 C 0.87858 0.53028 0.69625 0.0
C561 C 0.86151 0.53115 0.70516 0.0
C562 C 0.86172 0.54908 0.70331 0.0
C563 C 0.87935 0.56613 0.69228 0.0
C564 C 0.89639 0.56522 0.68323 0.0
H565 H 0.93627 0.54055 0.73355 0.0
H566 H 0.91906 0.55009 0.73042 0.0
H567 H 0.90887 0.52388 0.7273 0.0
H568 H 0.87798 0.51625 0.69764 0.0
H569 H 0.84825 0.51783 0.71382 0.0
H570 H 0.45496 0.97222 0.08056 0.0
H571 H 0.43185 0.95545 0.11964 0.0
H572 H 0.39 0.90627 0.06918 0.0
H573 H 0.4125 0.92288 0.03038 0.0
H574 H 0.36907 0.91744 0.10212 0.0
H575 H 0.42672 0.90741 0.16086 0.0
H576 H 0.43484 0.93259 0.15124 0.0
H577 H 0.43053 0.91499 0.12563 0.0
C578 C 0.44074 0.95791 0.07782 0.0
C579 C 0.43566 0.94887 0.05235 0.0
C580 C 0.42763 0.94827 0.1002 0.0
C581 C 0.40932 0.92944 0.09743 0.0
C582 C 0.40404 0.92074 0.07187 0.0
H583 H 0.33401 0.82977 0.20188 0.0
H584 H 0.35999 0.85564 0.17158 0.0
C585 C 0.41701 0.9303 0.04965 0.0
C586 C 0.39555 0.91831 0.12086 0.0
H587 H 0.39318 0.89348 0.17961 0.0
C588 C 0.37438 0.91239 0.11926 0.0
C589 C 0.40246 0.91155 0.14303 0.0
C590 C 0.42482 0.91678 0.14536 0.0
C591 C 0.35982 0.89941 0.13868 0.0
C592 C 0.36668 0.89249 0.16074 0.0
C593 C 0.38796 0.89887 0.16278 0.0
C594 C 0.35177 0.87744 0.18069 0.0
C595 C 0.33706 0.89245 0.13457 0.0
C596 C 0.33876 0.88118 0.19637 0.0
C597 C 0.32379 0.86635 0.21364 0.0
C598 C 0.32172 0.84755 0.21585 0.0
C599 C 0.33529 0.84412 0.20084 0.0
C600 C 0.35013 0.85889 0.18345 0.0
H601 H 0.33381 0.89539 0.11355 0.0
H602 H 0.32695 0.87624 0.13908 0.0
H603 H 0.33267 0.90052 0.1485 0.0
H604 H 0.34006 0.89553 0.1951 0.0
H605 H 0.31382 0.86959 0.22527 0.0
H606 H 0.50354 0.41683 0.49229 0.0
H607 H 0.49842 0.38989 0.52334 0.0
H608 H 0.47407 0.41108 0.58373 0.0
H609 H 0.47886 0.43778 0.55277 0.0
H610 H 0.51724 0.39617 0.57671 0.0
H611 H 0.43051 0.35021 0.57954 0.0
H612 H 0.44473 0.36805 0.55264 0.0
H613 H 0.44164 0.37638 0.5848 0.0
C614 C 0.49676 0.41551 0.512 0.0
C615 C 0.49165 0.42943 0.52014 0.0
C616 C 0.49396 0.40022 0.52974 0.0
C617 C 0.48574 0.39846 0.5557 0.0
C618 C 0.48022 0.41207 0.56366 0.0
H619 H 0.49295 0.33723 0.69979 0.0
H620 H 0.4955 0.36191 0.66647 0.0
C621 C 0.48314 0.42741 0.54604 0.0
C622 C 0.48391 0.38307 0.57507 0.0
H623 H 0.44868 0.34227 0.61216 0.0
C624 C 0.50227 0.38432 0.58439 0.0
C625 C 0.46433 0.36763 0.5849 0.0
C626 C 0.44413 0.3653 0.57484 0.0
C627 C 0.50158 0.37067 0.60371 0.0
C628 C 0.48203 0.35553 0.61405 0.0
C629 C 0.46364 0.35406 0.60436 0.0
C630 C 0.48032 0.34071 0.6344 0.0
C631 C 0.52172 0.37239 0.61274 0.0
C632 C 0.47065 0.32064 0.62745 0.0
C633 C 0.46927 0.30656 0.64632 0.0
C634 C 0.47736 0.31226 0.67263 0.0
C635 C 0.48681 0.33239 0.67963 0.0
C636 C 0.48825 0.3465 0.66065 0.0
H637 H 0.53488 0.38221 0.59893 0.0
H638 H 0.5258 0.37877 0.63328 0.0
H639 H 0.51996 0.35749 0.61381 0.0
H640 H 0.46447 0.31592 0.60725 0.0
H641 H 0.46224 0.29127 0.64006 0.0
H642 H 0.53245 0.9547 0.45703 0.0
H643 H 0.53485 0.9285 0.43527 0.0
H644 H 0.55656 0.96403 0.3619 0.0
H645 H 0.55379 0.99025 0.38322 0.0
H646 H 0.51428 0.90785 0.38625 0.0
H647 H 0.60092 0.9486 0.37918 0.0
H648 H 0.58744 0.95597 0.40161 0.0
H649 H 0.58886 0.96167 0.36604 0.0
C650 C 0.53756 0.95699 0.4362 0.0
C651 C 0.54291 0.97475 0.42197 0.0
C652 C 0.53903 0.94198 0.42383 0.0
C653 C 0.54608 0.94441 0.39708 0.0
C654 C 0.5514 0.962 0.38273 0.0
H655 H 0.53567 0.8539 0.28906 0.0
H656 H 0.53352 0.88044 0.31052 0.0
C657 C 0.54984 0.97701 0.39502 0.0
C658 C 0.54752 0.92835 0.38413 0.0
H659 H 0.5821 0.91729 0.35797 0.0
C660 C 0.52909 0.90989 0.38005 0.0
C661 C 0.5669 0.93101 0.37633 0.0
C662 C 0.58722 0.95031 0.38115 0.0
C663 C 0.5295 0.89409 0.36804 0.0
C664 C 0.54883 0.89688 0.35976 0.0
C665 C 0.56729 0.91525 0.36417 0.0
C666 C 0.55019 0.88081 0.34671 0.0
C667 C 0.50928 0.87443 0.36466 0.0
C668 C 0.56058 0.87243 0.35975 0.0
C669 C 0.56171 0.85712 0.34765 0.0
C670 C 0.55261 0.85 0.3221 0.0
C671 C 0.54248 0.85869 0.30896 0.0
C672 C 0.54128 0.87393 0.32115 0.0
H673 H 0.49654 0.87336 0.3772 0.0
H674 H 0.50435 0.87283 0.34313 0.0
H675 H 0.51135 0.86183 0.3702 0.0
H676 H 0.56758 0.87756 0.3795 0.0
H677 H 0.56942 0.85066 0.35853 0.0
H678 H 0.59041 0.51853 0.00463 0.0
H679 H 0.61557 0.53066 0.9679 0.0
H680 H 0.57177 0.53495 0.91528 0.0
H681 H 0.54607 0.52236 0.95219 0.0
H682 H 0.58823 0.51511 0.89218 0.0
H683 H 0.65234 0.58521 0.93403 0.0
H684 H 0.64434 0.56513 0.95803 0.0
H685 H 0.62622 0.57254 0.94781 0.0
C686 C 0.58613 0.52228 0.98539 0.0
C687 C 0.5662 0.51945 0.98133 0.0
C688 C 0.60066 0.52942 0.96445 0.0
C689 C 0.59572 0.53408 0.93899 0.0
C690 C 0.57597 0.53163 0.93489 0.0
H691 H 0.69969 0.5769 0.82388 0.0
H692 H 0.6709 0.57553 0.84873 0.0
C693 C 0.56133 0.52447 0.95597 0.0
C694 C 0.61065 0.53964 0.91635 0.0
H695 H 0.66253 0.56902 0.90154 0.0
C696 C 0.60438 0.52719 0.89388 0.0
C697 C 0.63162 0.55564 0.91825 0.0
C698 C 0.63895 0.57051 0.94071 0.0
C699 C 0.61889 0.52934 0.8744 0.0
C700 C 0.64026 0.54403 0.87787 0.0
C701 C 0.64621 0.55749 0.89913 0.0
C702 C 0.65687 0.54462 0.8612 0.0
C703 C 0.61122 0.51554 0.85064 0.0
C704 C 0.65867 0.52778 0.86021 0.0
C705 C 0.67503 0.52852 0.84607 0.0
C706 C 0.69013 0.54621 0.83293 0.0
C707 C 0.68836 0.5631 0.83398 0.0
C708 C 0.67188 0.56231 0.84802 0.0
H709 H 0.59477 0.51062 0.84558 0.0
H710 H 0.62105 0.52278 0.83243 0.0
H711 H 0.61173 0.50204 0.85596 0.0
H712 H 0.6477 0.51417 0.87096 0.0
H713 H 0.67619 0.51538 0.84605 0.0
H714 H 0.03049 0.52629 0.4603 0.0
H715 H 0.04946 0.55088 0.42375 0.0
H716 H 0.06971 0.59847 0.48039 0.0
H717 H 0.05085 0.57422 0.5166 0.0
H718 H 0.05846 0.60667 0.42892 0.0
H719 H 0.11419 0.58037 0.42237 0.0
H720 H 0.08694 0.56221 0.41745 0.0
H721 H 0.09601 0.57314 0.45004 0.0
C722 C 0.03855 0.54202 0.46471 0.0
C723 C 0.03931 0.54834 0.49132 0.0
C724 C 0.04954 0.55603 0.44391 0.0
C725 C 0.06128 0.5765 0.44948 0.0
C726 C 0.06084 0.58278 0.47564 0.0
H727 H 0.1729 0.67945 0.39502 0.0
H728 H 0.14447 0.64934 0.41664 0.0
C729 C 0.05006 0.56887 0.49634 0.0
C730 C 0.07542 0.59155 0.42906 0.0
H731 H 0.12238 0.60931 0.39764 0.0
C732 C 0.07225 0.60709 0.42164 0.0
C733 C 0.09355 0.59218 0.41992 0.0
C734 C 0.09808 0.5762 0.42789 0.0
C735 C 0.08704 0.62355 0.40607 0.0
C736 C 0.10541 0.62442 0.39753 0.0
C737 C 0.10825 0.60857 0.40417 0.0
C738 C 0.12264 0.64235 0.38364 0.0
C739 C 0.08343 0.64038 0.40005 0.0
C740 C 0.11989 0.64832 0.35775 0.0
C741 C 0.13619 0.66552 0.34523 0.0
C742 C 0.1556 0.67705 0.35834 0.0
C743 C 0.1583 0.67084 0.38417 0.0
C744 C 0.14203 0.65366 0.39662 0.0
H745 H 0.07029 0.63898 0.41203 0.0
H746 H 0.09774 0.65496 0.4044 0.0
H747 H 0.07968 0.64036 0.37826 0.0
H748 H 0.10518 0.63964 0.34718 0.0
H749 H 0.13367 0.66965 0.32514 0.0
H750 H 0.49716 0.03711 0.92796 0.0
H751 H 0.49767 0.0645 0.90321 0.0
H752 H 0.43396 0.02485 0.87791 0.0
H753 H 0.43312 0.99738 0.90338 0.0
H754 H 0.49065 0.06856 0.84825 0.0
H755 H 0.43249 0.07066 0.91437 0.0
H756 H 0.44518 0.05727 0.9238 0.0
H757 H 0.42409 0.04692 0.89979 0.0
C758 C 0.48318 0.03421 0.91733 0.0
C759 C 0.46498 0.01512 0.91797 0.0
C760 C 0.48357 0.04985 0.90301 0.0
C761 C 0.46576 0.04675 0.88912 0.0
C762 C 0.44775 0.0276 0.88892 0.0
H763 H 0.46397 0.13274 0.77659 0.0
H764 H 0.46147 0.10304 0.79716 0.0
C765 C 0.44736 0.01189 0.90325 0.0
C766 C 0.4661 0.06376 0.87525 0.0
H767 H 0.44484 0.09286 0.87674 0.0
C768 C 0.48059 0.07384 0.85436 0.0
C769 C 0.45314 0.07073 0.8836 0.0
C770 C 0.43795 0.06098 0.90677 0.0
C771 C 0.48246 0.09077 0.84152 0.0
C772 C 0.4693 0.09758 0.84961 0.0
C773 C 0.45481 0.08749 0.87051 0.0
C774 C 0.47067 0.11547 0.83713 0.0
C775 C 0.49889 0.10154 0.81993 0.0
C776 C 0.47626 0.13211 0.85295 0.0
C777 C 0.4775 0.14903 0.84134 0.0
C778 C 0.47305 0.14953 0.81371 0.0
C779 C 0.46733 0.13275 0.79797 0.0
C780 C 0.4661 0.11585 0.80961 0.0
H781 H 0.51083 0.09726 0.82059 0.0
H782 H 0.49131 0.09772 0.79973 0.0
H783 H 0.50688 0.11794 0.82215 0.0
H784 H 0.47972 0.13202 0.87428 0.0
H785 H 0.48167 0.1616 0.85407 0.0
H786 H 0.47957 0.5253 0.45353 0.0
H787 H 0.45375 0.52754 0.42578 0.0
H788 H 0.40444 0.47342 0.46317 0.0
H789 H 0.4303 0.47071 0.4904 0.0
H790 H 0.40008 0.47168 0.41014 0.0
H791 H 0.41319 0.54424 0.44184 0.0
H792 H 0.4368 0.54639 0.43015 0.0
H793 H 0.4241 0.53169 0.4601 0.0
C794 C 0.4632 0.51405 0.45626 0.0
C795 C 0.45702 0.49783 0.47429 0.0
C796 C 0.4484 0.51541 0.4404 0.0
C797 C 0.42704 0.5008 0.44255 0.0
C798 C 0.4208 0.48491 0.46113 0.0
H799 H 0.32846 0.51196 0.36523 0.0
H800 H 0.35253 0.5101 0.39719 0.0
C801 C 0.43561 0.48342 0.47679 0.0
C802 C 0.41143 0.50134 0.42419 0.0
H803 H 0.39372 0.53108 0.40096 0.0
C804 C 0.39859 0.48463 0.40832 0.0
C805 C 0.40922 0.51811 0.42195 0.0
C806 C 0.42141 0.53603 0.43963 0.0
C807 C 0.38394 0.48433 0.39003 0.0
C808 C 0.38246 0.50146 0.38683 0.0
C809 C 0.39501 0.51804 0.40307 0.0
C810 C 0.36776 0.50241 0.36716 0.0
C811 C 0.36993 0.46547 0.37476 0.0
C812 C 0.36836 0.49891 0.3395 0.0
C813 C 0.35445 0.49978 0.3212 0.0
C814 C 0.33992 0.50458 0.33008 0.0
C815 C 0.33958 0.5084 0.35769 0.0
C816 C 0.35331 0.50729 0.37601 0.0
H817 H 0.3685 0.45223 0.38538 0.0
H818 H 0.35405 0.46298 0.37199 0.0
H819 H 0.37673 0.46666 0.35449 0.0
H820 H 0.37973 0.49568 0.33197 0.0
H821 H 0.3553 0.49705 0.3 0.0
H822 H 0.96394 0.44884 0.95525 0.0
H823 H 0.93894 0.42262 0.92541 0.0
H824 H 0.89633 0.39446 0.99227 0.0
H825 H 0.92113 0.42091 0.02222 0.0
H826 H 0.92031 0.38005 0.93048 0.0
H827 H 0.86199 0.40323 0.9329 0.0
H828 H 0.88876 0.4193 0.94353 0.0
H829 H 0.8705 0.39929 0.96533 0.0
C830 C 0.94921 0.43714 0.9636 0.0
C831 C 0.94442 0.43707 0.99105 0.0
C832 C 0.93501 0.42211 0.94656 0.0
C833 C 0.91571 0.4068 0.95659 0.0
C834 C 0.91106 0.40633 0.98411 0.0
H835 H 0.80679 0.30844 0.8815 0.0
H836 H 0.83239 0.33312 0.91249 0.0
C837 C 0.92531 0.42134 1.00122 0.0
C838 C 0.90039 0.39149 0.93805 0.0
H839 H 0.85249 0.37396 0.90921 0.0
C840 C 0.90548 0.37868 0.92577 0.0
C841 C 0.88111 0.38984 0.93199 0.0
C842 C 0.87523 0.40372 0.94391 0.0
C843 C 0.89159 0.36399 0.90785 0.0
C844 C 0.87233 0.36241 0.90166 0.0
C845 C 0.86727 0.37522 0.91399 0.0
C846 C 0.85705 0.34741 0.88268 0.0
C847 C 0.89746 0.35004 0.89617 0.0
C848 C 0.86236 0.34742 0.85553 0.0
C849 C 0.84773 0.33333 0.83773 0.0
C850 C 0.82747 0.31915 0.84672 0.0
C851 C 0.82217 0.31934 0.87386 0.0
C852 C 0.83681 0.33335 0.89164 0.0
H853 H 0.90986 0.34975 0.90829 0.0
H854 H 0.88368 0.33464 0.89512 0.0
H855 H 0.90351 0.35515 0.87533 0.0
H856 H 0.87775 0.35845 0.84805 0.0
H857 H 0.85217 0.3337 0.81686 0.0
H858 H 0.99476 0.5699 0.97034 0.0
H859 H 0.96981 0.57219 0.94042 0.0
H860 H 0.94392 0.51124 0.9173 0.0
H861 H 0.96885 0.50877 0.94696 0.0
H862 H 0.95855 0.55933 0.87842 0.0
H863 H 0.89626 0.51854 0.95592 0.0
H864 H 0.92366 0.53238 0.96477 0.0
H865 H 0.91278 0.50906 0.94797 0.0
C866 C 0.98404 0.55708 0.95852 0.0
C867 C 0.98376 0.53912 0.9612 0.0
C868 C 0.96979 0.55844 0.94144 0.0
C869 C 0.95495 0.54184 0.92688 0.0
C870 C 0.95524 0.52419 0.92847 0.0
H871 H 0.84016 0.51392 0.84475 0.0
H872 H 0.86873 0.51312 0.86754 0.0
C873 C 0.96956 0.52285 0.94539 0.0
C874 C 0.93821 0.54251 0.91158 0.0
H875 H 0.88667 0.52767 0.91523 0.0
C876 C 0.94282 0.55244 0.88639 0.0
C877 C 0.91774 0.53342 0.92205 0.0
C878 C 0.91216 0.52279 0.94922 0.0
C879 C 0.92733 0.55329 0.87115 0.0
C880 C 0.90685 0.54443 0.88181 0.0
C881 C 0.90233 0.53449 0.90705 0.0
C882 C 0.88978 0.54512 0.86714 0.0
C883 C 0.93295 0.5632 0.84351 0.0
C884 C 0.89192 0.56339 0.85952 0.0
C885 C 0.87566 0.56389 0.84608 0.0
C886 C 0.85676 0.54613 0.84026 0.0
C887 C 0.85457 0.52789 0.84837 0.0
C888 C 0.87088 0.5274 0.86163 0.0
H889 H 0.94694 0.5638 0.83515 0.0
H890 H 0.91981 0.55526 0.82904 0.0
H891 H 0.93661 0.57873 0.8451 0.0
H892 H 0.90612 0.5773 0.86412 0.0
H893 H 0.87804 0.57822 0.83998 0.0
H894 H 0.43687 0.97666 0.47932 0.0
H895 H 0.40709 0.94556 0.46334 0.0
H896 H 0.44059 0.91562 0.4793 0.0
H897 H 0.47074 0.94686 0.4949 0.0
H898 H 0.4262 0.91068 0.42791 0.0
H899 H 0.36205 0.89401 0.49812 0.0
H900 H 0.37468 0.91907 0.485 0.0
H901 H 0.38915 0.91149 0.50604 0.0
C902 C 0.43778 0.96339 0.48003 0.0
C903 C 0.45625 0.96429 0.48822 0.0
C904 C 0.42064 0.94555 0.47105 0.0
C905 C 0.42152 0.92821 0.47036 0.0
C906 C 0.43955 0.92882 0.47979 0.0
H907 H 0.31493 0.81696 0.40959 0.0
H908 H 0.34328 0.84125 0.43839 0.0
C909 C 0.45675 0.94668 0.48875 0.0
C910 C 0.40469 0.91027 0.45677 0.0
H911 H 0.35176 0.87871 0.45433 0.0
C912 C 0.40996 0.90349 0.43396 0.0
C913 C 0.38353 0.90076 0.46479 0.0
C914 C 0.37703 0.90657 0.49 0.0
C915 C 0.39455 0.88808 0.41823 0.0
C916 C 0.3733 0.87948 0.42523 0.0
C917 C 0.36807 0.88555 0.44878 0.0
C918 C 0.35628 0.8647 0.40779 0.0
C919 C 0.40117 0.88128 0.3941 0.0
C920 C 0.35409 0.86993 0.38117 0.0
C921 C 0.33802 0.8561 0.36465 0.0
C922 C 0.32374 0.83677 0.37449 0.0
C923 C 0.32586 0.83163 0.40129 0.0
C924 C 0.34195 0.84551 0.41782 0.0
H925 H 0.4176 0.88505 0.39607 0.0
H926 H 0.3909 0.86495 0.39146 0.0
H927 H 0.40007 0.88889 0.37556 0.0
H928 H 0.36478 0.88479 0.3732 0.0
H929 H 0.3369 0.86048 0.34407 0.0
H930 H 0.51724 0.44565 0.96064 0.0
H931 H 0.51246 0.42063 0.92828 0.0
H932 H 0.48176 0.37462 0.9896 0.0
H933 H 0.48624 0.39953 0.02212 0.0
H934 H 0.51234 0.37234 0.96046 0.0
H935 H 0.45759 0.37936 0.89144 0.0
H936 H 0.48133 0.40251 0.89822 0.0
H937 H 0.46319 0.38913 0.92525 0.0
C938 C 0.50921 0.4302 0.96724 0.0
C939 C 0.502 0.42466 0.99405 0.0
C940 C 0.50651 0.4159 0.94866 0.0
C941 C 0.49646 0.39572 0.95639 0.0
C942 C 0.48949 0.39012 0.98317 0.0
H943 H 0.45217 0.29454 0.84965 0.0
H944 H 0.455 0.31872 0.88238 0.0
C945 C 0.49216 0.40442 1.00179 0.0
C946 C 0.49368 0.38053 0.93669 0.0
H947 H 0.47135 0.36014 0.87591 0.0
C948 C 0.50332 0.36961 0.94203 0.0
C949 C 0.48169 0.37682 0.9128 0.0
C950 C 0.47018 0.38742 0.90661 0.0
C951 C 0.50167 0.3554 0.92382 0.0
C952 C 0.49028 0.35218 0.89949 0.0
C953 C 0.48025 0.36277 0.89444 0.0
C954 C 0.48857 0.33784 0.87907 0.0
C955 C 0.51195 0.34377 0.93094 0.0
C956 C 0.50645 0.34078 0.86592 0.0
C957 C 0.50488 0.32708 0.84706 0.0
C958 C 0.48536 0.31014 0.84086 0.0
C959 C 0.46742 0.30748 0.85369 0.0
C960 C 0.46901 0.32123 0.87253 0.0
H961 H 0.5155 0.34435 0.95291 0.0
H962 H 0.50184 0.32794 0.92516 0.0
H963 H 0.52687 0.35024 0.91968 0.0
H964 H 0.52165 0.35373 0.8702 0.0
H965 H 0.51897 0.32983 0.83719 0.0
H966 H 0.10478 0.50614 0.5265 0.0
H967 H 0.12803 0.50829 0.49049 0.0
H968 H 0.07719 0.48632 0.43333 0.0
H969 H 0.05385 0.48392 0.46911 0.0
H970 H 0.12402 0.47787 0.45633 0.0
H971 H 0.12343 0.53851 0.39756 0.0
H972 H 0.11464 0.53245 0.43222 0.0
H973 H 0.09802 0.51734 0.40522 0.0
C974 C 0.0985 0.50161 0.50634 0.0
C975 C 0.07748 0.49505 0.50068 0.0
C976 C 0.11183 0.50295 0.48576 0.0
C977 C 0.10441 0.49784 0.45918 0.0
C978 C 0.08335 0.49081 0.45359 0.0
H979 H 0.16066 0.49651 0.30687 0.0
H980 H 0.13662 0.49332 0.34255 0.0
C981 C 0.07003 0.48946 0.47409 0.0
C982 C 0.11859 0.4996 0.43729 0.0
H983 H 0.13983 0.52328 0.37697 0.0
C984 C 0.12757 0.48786 0.43903 0.0
C985 C 0.12308 0.51258 0.41471 0.0
C986 C 0.11445 0.52608 0.41232 0.0
C987 C 0.14073 0.48853 0.41856 0.0
C988 C 0.14529 0.50157 0.39604 0.0
C989 C 0.13625 0.51327 0.39425 0.0
C990 C 0.1598 0.50361 0.37443 0.0
C991 C 0.14934 0.47503 0.42098 0.0
C992 C 0.18082 0.51072 0.38051 0.0
C993 C 0.19452 0.51249 0.36027 0.0
C994 C 0.18751 0.5073 0.33346 0.0
C995 C 0.16648 0.50043 0.32736 0.0
C996 C 0.15277 0.4987 0.34766 0.0
H997 H 0.14015 0.46244 0.43542 0.0
H998 H 0.14947 0.46891 0.401 0.0
H999 H 0.16566 0.4837 0.42852 0.0
H1000 H 0.18663 0.5149 0.40096 0.0
H1001 H 0.21054 0.5176 0.36575 0.0
H1002 H 0.52912 0.04605 0.9893 0.0
H1003 H 0.5567 0.07811 0.97006 0.0
H1004 H 0.59141 0.05111 0.94711 0.0
H1005 H 0.56422 0.0193 0.9664 0.0
H1006 H 0.61671 0.08994 0.96741 0.0
H1007 H 0.56214 0.0858 0.88685 0.0
H1008 H 0.55405 0.08481 0.92123 0.0
H1009 H 0.5562 0.06478 0.90859 0.0
C1010 C 0.54288 0.0471 0.98075 0.0
C1011 C 0.54444 0.03012 0.97922 0.0
C1012 C 0.55852 0.06537 0.96953 0.0
C1013 C 0.57592 0.06689 0.95671 0.0
C1014 C 0.57808 0.05026 0.95676 0.0
H1015 H 0.65746 0.13802 0.82771 0.0
H1016 H 0.63105 0.1127 0.85824 0.0
C1017 C 0.56249 0.03207 0.9678 0.0
C1018 C 0.5913 0.08522 0.94157 0.0
H1019 H 0.597 0.11238 0.8839 0.0
C1020 C 0.6124 0.09505 0.94936 0.0
C1021 C 0.58564 0.09163 0.91778 0.0
C1022 C 0.56332 0.08119 0.90787 0.0
C1023 C 0.62803 0.11088 0.93374 0.0
C1024 C 0.62238 0.11715 0.90982 0.0
C1025 C 0.60125 0.10758 0.90231 0.0
C1026 C 0.63829 0.13277 0.89144 0.0
C1027 C 0.65056 0.12022 0.94233 0.0
C1028 C 0.651 0.15251 0.89987 0.0
C1029 C 0.66618 0.16702 0.88249 0.0
C1030 C 0.66893 0.16206 0.8563 0.0
C1031 C 0.65597 0.14229 0.84785 0.0
C1032 C 0.64077 0.12783 0.86521 0.0
H1033 H 0.65261 0.1112 0.95825 0.0
H1034 H 0.66054 0.12211 0.92475 0.0
H1035 H 0.65615 0.1352 0.95055 0.0
H1036 H 0.64919 0.15671 0.91991 0.0
H1037 H 0.67598 0.18206 0.88972 0.0
H1038 H 0.56104 0.57843 0.45892 0.0
H1039 H 0.56923 0.60868 0.43353 0.0
H1040 H 0.57209 0.58208 0.35968 0.0
H1041 H 0.56381 0.55161 0.38511 0.0
H1042 H 0.60469 0.63442 0.39216 0.0
H1043 H 0.52269 0.59467 0.35379 0.0
H1044 H 0.52998 0.58634 0.38392 0.0
H1045 H 0.53752 0.58273 0.3513 0.0
C1046 C 0.56365 0.57913 0.43732 0.0
C1047 C 0.56156 0.56265 0.42388 0.0
C1048 C 0.56846 0.59643 0.42291 0.0
C1049 C 0.57112 0.59748 0.39481 0.0
C1050 C 0.57007 0.58145 0.38142 0.0
H1051 H 0.56194 0.68162 0.28744 0.0
H1052 H 0.56595 0.65443 0.30451 0.0
C1053 C 0.56543 0.56415 0.39592 0.0
C1054 C 0.57293 0.61459 0.3795 0.0
H1055 H 0.54371 0.62869 0.34332 0.0
C1056 C 0.5915 0.63321 0.38116 0.0
C1057 C 0.55563 0.61284 0.36528 0.0
C1058 C 0.53524 0.59313 0.36342 0.0
C1059 C 0.59316 0.65029 0.36909 0.0
C1060 C 0.57557 0.64869 0.35575 0.0
C1061 C 0.55719 0.62991 0.35355 0.0
C1062 C 0.57539 0.66627 0.34479 0.0
C1063 C 0.61375 0.66981 0.37068 0.0
C1064 C 0.57949 0.68204 0.3617 0.0
C1065 C 0.57737 0.69768 0.35189 0.0
C1066 C 0.57069 0.69755 0.32521 0.0
C1067 C 0.56688 0.68192 0.30821 0.0
C1068 C 0.56926 0.66646 0.3179 0.0
H1069 H 0.627 0.6674 0.37316 0.0
H1070 H 0.6165 0.67924 0.35231 0.0
H1071 H 0.61364 0.67803 0.38856 0.0
H1072 H 0.58366 0.68195 0.38273 0.0
H1073 H 0.58023 0.7095 0.36541 0.0
H1074 H 0.52353 0.06435 0.55573 0.0
H1075 H 0.51741 0.08533 0.58487 0.0
H1076 H 0.49042 0.10001 0.51768 0.0
H1077 H 0.49565 0.07831 0.48856 0.0
H1078 H 0.53225 0.12505 0.58135 0.0
H1079 H 0.44565 0.08241 0.57498 0.0
H1080 H 0.46116 0.07265 0.56329 0.0
H1081 H 0.45847 0.09031 0.54273 0.0
C1082 C 0.516 0.07175 0.54713 0.0
C1083 C 0.50986 0.06936 0.51975 0.0
C1084 C 0.51266 0.08391 0.56384 0.0
C1085 C 0.5031 0.09397 0.55363 0.0
C1086 C 0.49738 0.09203 0.52619 0.0
H1087 H 0.47469 0.17674 0.62698 0.0
H1088 H 0.47957 0.15579 0.5958 0.0
C1089 C 0.50064 0.07979 0.50945 0.0
C1090 C 0.49953 0.10675 0.5717 0.0
H1091 H 0.46154 0.1132 0.59772 0.0
C1092 C 0.51678 0.12242 0.58497 0.0
C1093 C 0.47933 0.10331 0.57644 0.0
C1094 C 0.46006 0.08615 0.56383 0.0
C1095 C 0.51441 0.13483 0.60263 0.0
C1096 C 0.49423 0.13135 0.6074 0.0
C1097 C 0.47699 0.11582 0.59398 0.0
C1098 C 0.4907 0.14357 0.62651 0.0
C1099 C 0.53357 0.15174 0.61579 0.0
C1100 C 0.49494 0.14333 0.6542 0.0
C1101 C 0.492 0.15514 0.67212 0.0
C1102 C 0.48472 0.16744 0.66272 0.0
C1103 C 0.4801 0.16732 0.63499 0.0
C1104 C 0.48299 0.15545 0.6171 0.0
H1105 H 0.54814 0.15529 0.60525 0.0
H1106 H 0.53268 0.16537 0.61603 0.0
H1107 H 0.53456 0.14748 0.63706 0.0
H1108 H 0.5005 0.13395 0.66196 0.0
H1109 H 0.49532 0.15453 0.69339 0.0
H1110 H 0.43135 0.44804 0.05211 0.0
H1111 H 0.40445 0.45227 0.07233 0.0
H1112 H 0.44164 0.5155 0.05588 0.0
H1113 H 0.46864 0.51142 0.03538 0.0
H1114 H 0.41418 0.47633 0.11815 0.0
H1115 H 0.38187 0.50096 0.03492 0.0
H1116 H 0.39574 0.48836 0.02878 0.0
H1117 H 0.40989 0.51426 0.03724 0.0
C1118 C 0.43362 0.4628 0.05216 0.0
C1119 C 0.45221 0.47941 0.04228 0.0
C1120 C 0.41822 0.46518 0.06375 0.0
C1121 C 0.42104 0.48417 0.06555 0.0
C1122 C 0.43902 0.50066 0.05432 0.0
H1123 H 0.35424 0.5283 0.15427 0.0
H1124 H 0.37889 0.52517 0.12599 0.0
C1125 C 0.45445 0.4983 0.04264 0.0
C1126 C 0.40643 0.48692 0.08204 0.0
H1127 H 0.37157 0.50233 0.07964 0.0
C1128 C 0.40478 0.48192 0.10971 0.0
C1129 C 0.39443 0.49446 0.07102 0.0
C1130 C 0.39537 0.4997 0.04132 0.0
C1131 C 0.39149 0.4843 0.12673 0.0
C1132 C 0.37917 0.49149 0.11566 0.0
C1133 C 0.38099 0.49675 0.08803 0.0
C1134 C 0.36408 0.49335 0.13246 0.0
C1135 C 0.39106 0.47944 0.15653 0.0
C1136 C 0.3475 0.47647 0.14523 0.0
C1137 C 0.33355 0.47823 0.16162 0.0
C1138 C 0.33579 0.4969 0.16536 0.0
C1139 C 0.35227 0.51376 0.15219 0.0
C1140 C 0.36626 0.51198 0.13582 0.0
H1141 H 0.40537 0.47956 0.16291 0.0
H1142 H 0.38958 0.49018 0.16902 0.0
H1143 H 0.37742 0.46431 0.16077 0.0
H1144 H 0.34534 0.4619 0.14255 0.0
H1145 H 0.32115 0.46496 0.1716 0.0
H1146 H 0.94847 0.44578 0.54239 0.0
H1147 H 0.91588 0.41623 0.55862 0.0
H1148 H 0.95044 0.40606 0.62049 0.0
H1149 H 0.98275 0.43495 0.60422 0.0
H1150 H 0.92126 0.37155 0.59698 0.0
H1151 H 0.88613 0.41523 0.62775 0.0
H1152 H 0.89322 0.41741 0.59269 0.0
H1153 H 0.91322 0.42692 0.61821 0.0
C1154 C 0.9491 0.43707 0.55921 0.0
C1155 C 0.96821 0.44284 0.57211 0.0
C1156 C 0.93045 0.4203 0.56864 0.0
C1157 C 0.93065 0.40911 0.59112 0.0
C1158 C 0.94983 0.41446 0.60321 0.0
H1159 H 0.84198 0.3371 0.71369 0.0
H1160 H 0.86903 0.363 0.68445 0.0
C1161 C 0.96834 0.43108 0.59387 0.0
C1162 C 0.9111 0.39216 0.60299 0.0
H1163 H 0.86699 0.38085 0.63764 0.0
C1164 C 0.90925 0.37351 0.6056 0.0
C1165 C 0.89558 0.3948 0.61456 0.0
C1166 C 0.8971 0.41468 0.61343 0.0
C1167 C 0.89272 0.35764 0.62011 0.0
C1168 C 0.87726 0.3603 0.63183 0.0
C1169 C 0.87878 0.37879 0.62857 0.0
C1170 C 0.86019 0.34458 0.64903 0.0
C1171 C 0.89258 0.3385 0.62384 0.0
C1172 C 0.84597 0.32564 0.63882 0.0
C1173 C 0.83055 0.31074 0.65558 0.0
C1174 C 0.82883 0.31456 0.68281 0.0
C1175 C 0.84276 0.33369 0.69278 0.0
C1176 C 0.85826 0.34852 0.67608 0.0
H1177 H 0.90807 0.34056 0.6194 0.0
H1178 H 0.88807 0.33251 0.64484 0.0
H1179 H 0.88102 0.32722 0.60978 0.0
H1180 H 0.84679 0.32236 0.61787 0.0
H1181 H 0.81984 0.29628 0.64714 0.0
H1182 H 0.51723 0.91943 0.99278 0.0
H1183 H 0.5265 0.89986 0.02242 0.0
H1184 H 0.49855 0.9109 0.09018 0.0
H1185 H 0.48904 0.9302 0.0608 0.0
H1186 H 0.53931 0.91808 0.10018 0.0
H1187 H 0.48576 0.84384 0.05561 0.0
H1188 H 0.5027 0.86338 0.03221 0.0
H1189 H 0.48274 0.86489 0.04958 0.0
C1190 C 0.51285 0.91749 0.01391 0.0
C1191 C 0.50246 0.92644 0.02442 0.0
C1192 C 0.51819 0.90635 0.0308 0.0
C1193 C 0.51309 0.90388 0.05841 0.0
C1194 C 0.50268 0.91272 0.06893 0.0
H1195 H 0.50684 0.82126 0.17971 0.0
H1196 H 0.50068 0.84162 0.14742 0.0
C1197 C 0.49735 0.92383 0.05211 0.0
C1198 C 0.51877 0.89232 0.07663 0.0
H1199 H 0.50813 0.84531 0.09067 0.0
C1200 C 0.5326 0.90219 0.09807 0.0
C1201 C 0.50979 0.87158 0.07387 0.0
C1202 C 0.49429 0.86019 0.05173 0.0
C1203 C 0.53762 0.8918 0.11701 0.0
C1204 C 0.52872 0.87108 0.11417 0.0
C1205 C 0.51499 0.86124 0.09264 0.0
C1206 C 0.53279 0.85917 0.13396 0.0
C1207 C 0.5519 0.90295 0.14032 0.0
C1208 C 0.55289 0.86233 0.13699 0.0
C1209 C 0.55645 0.85067 0.15536 0.0
C1210 C 0.53992 0.83559 0.17087 0.0
C1211 C 0.51983 0.83258 0.16783 0.0
C1212 C 0.5163 0.84423 0.14948 0.0
H1213 H 0.55387 0.91783 0.14273 0.0
H1214 H 0.5458 0.89431 0.15956 0.0
H1215 H 0.56753 0.90517 0.13662 0.0
H1216 H 0.56574 0.87359 0.12485 0.0
H1217 H 0.57203 0.85314 0.15695 0.0
H1218 H 0.54413 0.50031 0.56571 0.0
H1219 H 0.57121 0.50493 0.59774 0.0
H1220 H 0.60145 0.56868 0.58778 0.0
H1221 H 0.5747 0.56416 0.55499 0.0
H1222 H 0.62865 0.55747 0.5818 0.0
H1223 H 0.58362 0.5212 0.67508 0.0
H1224 H 0.57348 0.50481 0.64688 0.0
H1225 H 0.57256 0.52721 0.64653 0.0
C1226 C 0.55627 0.51535 0.57073 0.0
C1227 C 0.55723 0.53188 0.5577 0.0
C1228 C 0.57174 0.51797 0.58923 0.0
C1229 C 0.58831 0.53717 0.5955 0.0
C1230 C 0.58882 0.55371 0.58334 0.0
H1231 H 0.68209 0.558 0.71889 0.0
H1232 H 0.65349 0.55697 0.69327 0.0
C1233 C 0.57346 0.55111 0.56464 0.0
C1234 C 0.60603 0.5399 0.6127 0.0
H1235 H 0.61803 0.52625 0.67311 0.0
C1236 C 0.62632 0.55081 0.60189 0.0
C1237 C 0.60313 0.53144 0.63907 0.0
C1238 C 0.58204 0.5207 0.65268 0.0
C1239 C 0.64362 0.55303 0.61632 0.0
C1240 C 0.64055 0.54361 0.64203 0.0
C1241 C 0.62038 0.53322 0.65323 0.0
C1242 C 0.65804 0.5443 0.65753 0.0
C1243 C 0.66506 0.56565 0.60392 0.0
C1244 C 0.67001 0.5373 0.64617 0.0
C1245 C 0.6866 0.53816 0.6606 0.0
C1246 C 0.69145 0.54579 0.68695 0.0
C1247 C 0.67913 0.55241 0.69848 0.0
C1248 C 0.66262 0.55166 0.68394 0.0
H1249 H 0.66555 0.57658 0.58887 0.0
H1250 H 0.67712 0.57388 0.61962 0.0
H1251 H 0.66911 0.55588 0.59323 0.0
H1252 H 0.6665 0.53111 0.62608 0.0
H1253 H 0.69577 0.53305 0.65092 0.0
H1254 H 0.00708 0.548 0.1348 0.0
H1255 H 0.0316 0.57591 0.16328 0.0
H1256 H 0.06461 0.60986 0.09194 0.0
H1257 H 0.04024 0.58211 0.06349 0.0
H1258 H 0.07823 0.59286 0.15936 0.0
H1259 H 0.05442 0.64808 0.14028 0.0
H1260 H 0.03664 0.62159 0.13638 0.0
H1261 H 0.05622 0.63569 0.11121 0.0
C1262 C 0.01933 0.56157 0.12524 0.0
C1263 C 0.02185 0.5629 0.09699 0.0
C1264 C 0.03333 0.57742 0.14147 0.0
C1265 C 0.04975 0.59492 0.12961 0.0
C1266 C 0.05188 0.59653 0.1014 0.0
H1267 H 0.15853 0.70496 0.17876 0.0
H1268 H 0.1284 0.67783 0.15535 0.0
C1269 C 0.03808 0.58064 0.08522 0.0
C1270 C 0.0658 0.6109 0.14664 0.0
H1271 H 0.08654 0.65952 0.16325 0.0
C1272 C 0.07996 0.60739 0.16054 0.0
C1273 C 0.06805 0.62982 0.1477 0.0
C1274 C 0.05298 0.63411 0.13327 0.0
C1275 C 0.09682 0.62255 0.17492 0.0
C1276 C 0.09913 0.64156 0.17605 0.0
C1277 C 0.08471 0.64495 0.16242 0.0
C1278 C 0.11675 0.65825 0.19062 0.0
C1279 C 0.11243 0.61827 0.18778 0.0
C1280 C 0.11993 0.6564 0.21831 0.0
C1281 C 0.13722 0.67175 0.23158 0.0
C1282 C 0.15142 0.68938 0.21751 0.0
C1283 C 0.14779 0.69153 0.19006 0.0
C1284 C 0.13062 0.67606 0.1767 0.0
H1285 H 0.11169 0.60512 0.17873 0.0
H1286 H 0.12862 0.63126 0.18559 0.0
H1287 H 0.10893 0.615 0.20968 0.0
H1288 H 0.10911 0.64303 0.22963 0.0
H1289 H 0.13946 0.66988 0.2529 0.0
loop_
_geom_bond_atom_site_label_1
_geom_bond_atom_site_label_2
_geom_bond_distance
_geom_bond_site_symmetry_2
_ccdc_geom_bond_type
Cu0 N1 1.999 1_454 S
Cu0 O6 1.974 1_454 S
Cu0 N11 1.985 . S
Cu0 O20 1.959 . S
N1 Cu0 1.999 1_656 S
N1 C3 1.263 . S
N1 C5 1.389 1_556 S
N2 C3 1.358 . S
N2 C4 1.400 . S
C3 N1 1.263 . S
C3 N2 1.358 . S
C3 H9 0.930 . S
C4 N2 1.400 . S
C4 C5 1.351 1_556 S
C4 H21 0.930 . S
C5 N1 1.389 1_554 S
C5 C4 1.351 1_554 S
C5 H10 0.930 . S
O6 Cu0 1.974 1_656 S
O6 C16 1.282 . S
C7 O8 1.261 1_554 S
C7 O20 1.251 . S
O8 C7 1.261 1_556 S
H9 C3 0.930 . S
H10 C5 0.930 . S
N11 Cu0 1.985 . S
N11 C13 1.335 . S
N11 C14 1.390 . S
N12 C13 1.345 . S
N12 C15 1.336 . S
C13 N11 1.335 . S
C13 N12 1.345 . S
C13 H18 0.930 . S
C14 N11 1.390 . S
C14 C15 1.346 . S
C14 H19 0.930 1_554 S
C15 N12 1.336 . S
C15 C14 1.346 . S
C15 H22 0.929 . S
C16 O6 1.282 . S
C16 O17 1.216 1_655 S
O17 C16 1.216 1_455 S
H18 C13 0.930 . S
H19 C14 0.930 1_556 S
O20 Cu0 1.959 . S
O20 C7 1.251 . S
H21 C4 0.930 . S
H22 C15 0.929 . S
Cu23 N24 1.999 . S
Cu23 O29 1.974 . S
Cu23 N34 1.985 1_565 S
Cu23 O43 1.959 1_565 S
N24 Cu23 1.999 . S
N24 C26 1.263 . S
N24 C28 1.389 . S
N25 C26 1.358 . S
N25 C27 1.400 . S
C26 N24 1.263 . S
C26 N25 1.358 . S
C26 H32 0.930 . S
C27 N25 1.400 . S
C27 C28 1.351 . S
C27 H44 0.930 . S
C28 N24 1.389 . S
C28 C27 1.351 . S
C28 H33 0.930 . S
O29 Cu23 1.974 . S
O29 C39 1.282 . S
C30 O31 1.261 . S
C30 O43 1.251 . S
O31 C30 1.261 . S
H32 C26 0.930 . S
H33 C28 0.930 . S
N34 Cu23 1.985 1_545 S
N34 C36 1.335 . S
N34 C37 1.390 . S
N35 C36 1.345 . S
N35 C38 1.336 . S
C36 N34 1.335 . S
C36 N35 1.345 . S
C36 H41 0.930 . S
C37 N34 1.390 . S
C37 C38 1.346 . S
C37 H42 0.930 . S
C38 N35 1.336 . S
C38 C37 1.346 . S
C38 H45 0.929 . S
C39 O29 1.282 . S
C39 O40 1.216 . S
O40 C39 1.216 . S
H41 C36 0.930 . S
H42 C37 0.930 . S
O43 Cu23 1.959 1_545 S
O43 C30 1.251 . S
H44 C27 0.930 . S
H45 C38 0.929 . S
Cu46 N47 1.999 1_554 S
Cu46 O52 1.974 1_554 S
Cu46 N57 1.985 . S
Cu46 O66 1.959 . S
N47 Cu46 1.999 1_556 S
N47 C49 1.263 . S
N47 C51 1.389 . S
N48 C49 1.358 . S
N48 C50 1.400 . S
C49 N47 1.263 . S
C49 N48 1.358 . S
C49 H55 0.930 . S
C50 N48 1.400 . S
C50 C51 1.351 . S
C50 H67 0.930 . S
C51 N47 1.389 . S
C51 C50 1.351 . S
C51 H56 0.930 . S
O52 Cu46 1.974 1_556 S
O52 C62 1.282 . S
C53 O54 1.261 . S
C53 O66 1.251 . S
O54 C53 1.261 . S
H55 C49 0.930 . S
H56 C51 0.930 . S
N57 Cu46 1.985 . S
N57 C59 1.335 . S
N57 C60 1.390 . S
N58 C59 1.345 . S
N58 C61 1.336 . S
C59 N57 1.335 . S
C59 N58 1.345 . S
C59 H64 0.930 . S
C60 N57 1.390 . S
C60 C61 1.346 . S
C60 H65 0.930 . S
C61 N58 1.336 . S
C61 C60 1.346 . S
C61 H68 0.929 . S
C62 O52 1.282 . S
C62 O63 1.216 1_556 S
O63 C62 1.216 1_554 S
H64 C59 0.930 . S
H65 C60 0.930 . S
O66 Cu46 1.959 . S
O66 C53 1.251 . S
H67 C50 0.930 . S
H68 C61 0.929 . S
Cu69 N70 1.999 1_655 S
Cu69 O75 1.974 1_655 S
Cu69 N80 1.985 . S
Cu69 O89 1.959 . S
N70 Cu69 1.999 1_455 S
N70 C72 1.263 . S
N70 C74 1.389 1_455 S
N71 C72 1.358 . S
N71 C73 1.400 . S
C72 N70 1.263 . S
C72 N71 1.358 . S
C72 H78 0.930 . S
C73 N71 1.400 . S
C73 C74 1.351 1_455 S
C73 H90 0.930 . S
C74 N70 1.389 1_655 S
C74 C73 1.351 1_655 S
C74 H79 0.930 . S
O75 Cu69 1.974 1_455 S
O75 C85 1.282 . S
C76 O77 1.261 . S
C76 O89 1.251 . S
O77 C76 1.261 . S
H78 C72 0.930 . S
H79 C74 0.930 . S
N80 Cu69 1.985 . S
N80 C82 1.335 . S
N80 C83 1.390 . S
N81 C82 1.345 . S
N81 C84 1.336 . S
C82 N80 1.335 . S
C82 N81 1.345 . S
C82 H87 0.930 . S
C83 N80 1.390 . S
C83 C84 1.346 . S
C83 H88 0.930 1_655 S
C84 N81 1.336 . S
C84 C83 1.346 . S
C84 H91 0.929 . S
C85 O75 1.282 . S
C85 O86 1.216 . S
O86 C85 1.216 . S
H87 C82 0.930 . S
H88 C83 0.930 1_455 S
O89 Cu69 1.959 . S
O89 C76 1.251 . S
H90 C73 0.930 . S
H91 C84 0.929 . S
Cu92 N93 1.999 . S
Cu92 O98 1.974 . S
Cu92 N103 1.985 1_545 S
Cu92 O112 1.959 1_545 S
N93 Cu92 1.999 . S
N93 C95 1.263 1_554 S
N93 C97 1.389 . S
N94 C95 1.358 . S
N94 C96 1.400 1_556 S
C95 N93 1.263 1_556 S
C95 N94 1.358 . S
C95 H101 0.930 . S
C96 N94 1.400 1_554 S
C96 C97 1.351 . S
C96 H113 0.930 . S
C97 N93 1.389 . S
C97 C96 1.351 . S
C97 H102 0.930 . S
O98 Cu92 1.974 . S
O98 C108 1.282 1_554 S
C99 O100 1.261 . S
C99 O112 1.251 . S
O100 C99 1.261 . S
H101 C95 0.930 . S
H102 C97 0.930 . S
N103 Cu92 1.985 1_565 S
N103 C105 1.335 . S
N103 C106 1.390 . S
N104 C105 1.345 . S
N104 C107 1.336 . S
C105 N103 1.335 . S
C105 N104 1.345 . S
C105 H110 0.930 . S
C106 N103 1.390 . S
C106 C107 1.346 . S
C106 H111 0.930 1_565 S
C107 N104 1.336 . S
C107 C106 1.346 . S
C107 H114 0.929 . S
C108 O98 1.282 1_556 S
C108 O109 1.216 . S
O109 C108 1.216 . S
H110 C105 0.930 . S
H111 C106 0.930 1_545 S
O112 Cu92 1.959 1_565 S
O112 C99 1.251 . S
H113 C96 0.930 . S
H114 C107 0.929 . S
Cu115 N116 1.999 . S
Cu115 O121 1.974 . S
Cu115 N126 1.985 . S
Cu115 O135 1.959 . S
N116 Cu115 1.999 . S
N116 C118 1.263 . S
N116 C120 1.389 . S
N117 C118 1.358 . S
N117 C119 1.400 . S
C118 N116 1.263 . S
C118 N117 1.358 . S
C118 H124 0.930 . S
C119 N117 1.400 . S
C119 C120 1.351 . S
C119 H136 0.930 . S
C120 N116 1.389 . S
C120 C119 1.351 . S
C120 H125 0.930 . S
O121 Cu115 1.974 . S
O121 C131 1.282 . S
C122 O123 1.261 . S
C122 O135 1.251 . S
O123 C122 1.261 . S
H124 C118 0.930 . S
H125 C120 0.930 . S
N126 Cu115 1.985 . S
N126 C128 1.335 . S
N126 C129 1.390 . S
N127 C128 1.345 . S
N127 C130 1.336 . S
C128 N126 1.335 . S
C128 N127 1.345 . S
C128 H133 0.930 . S
C129 N126 1.390 . S
C129 C130 1.346 . S
C129 H134 0.930 . S
C130 N127 1.336 . S
C130 C129 1.346 . S
C130 H137 0.929 . S
C131 O121 1.282 . S
C131 O132 1.216 . S
O132 C131 1.216 . S
H133 C128 0.930 . S
H134 C129 0.930 . S
O135 Cu115 1.959 . S
O135 C122 1.251 . S
H136 C119 0.930 . S
H137 C130 0.929 . S
H138 C157 0.949 . S
H139 C158 0.950 . S
H140 C160 0.950 . S
H141 C161 0.950 . S
H142 C163 0.950 . S
H143 C166 0.950 . S
H144 C167 0.950 . S
H145 C169 0.951 . S
H146 C170 0.949 . S
H147 C172 0.949 . S
H148 C173 0.950 . S
H149 C175 0.950 . S
H150 C176 0.950 . S
H151 C178 0.950 . S
H152 C181 0.950 . S
H153 C182 0.950 . S
H154 C184 0.951 . S
H155 C185 0.949 . S
C156 C157 1.376 . S
C156 C161 1.386 . S
C156 C162 1.483 . S
C157 H138 0.949 . S
C157 C156 1.376 . S
C157 C158 1.397 . S
C158 H139 0.950 . S
C158 C157 1.397 . S
C158 C159 1.391 . S
C159 C158 1.391 . S
C159 C160 1.405 . S
C160 H140 0.950 . S
C160 C159 1.405 . S
C160 C161 1.367 . S
C161 H141 0.950 . S
C161 C156 1.386 . S
C161 C160 1.367 . S
C162 C156 1.483 . S
C162 C163 1.382 . S
C162 C164 1.403 . S
C163 H142 0.950 . S
C163 C162 1.382 . S
C163 C179 1.411 . S
C164 C162 1.403 . S
C164 C165 1.489 . S
C164 C178 1.411 . S
C165 C164 1.489 . S
C165 C166 1.383 . S
C165 C170 1.382 . S
C166 H143 0.950 . S
C166 C165 1.383 . S
C166 C167 1.395 . S
C167 H144 0.950 . S
C167 C166 1.395 . S
C167 C168 1.288 . S
C168 C167 1.288 . S
C168 C169 1.392 . S
C169 H145 0.951 . S
C169 C168 1.392 . S
C169 C170 1.392 . S
C170 H146 0.949 . S
C170 C165 1.382 . S
C170 C169 1.392 . S
C171 C172 1.376 . S
C171 C176 1.386 . S
C171 C177 1.483 . S
C172 H147 0.949 . S
C172 C171 1.376 . S
C172 C173 1.397 . S
C173 H148 0.950 . S
C173 C172 1.397 . S
C173 C174 1.391 . S
C174 C173 1.391 . S
C174 C175 1.405 . S
C175 H149 0.950 . S
C175 C174 1.405 . S
C175 C176 1.367 . S
C176 H150 0.950 . S
C176 C171 1.386 . S
C176 C175 1.367 . S
C177 C171 1.483 . S
C177 C178 1.382 . S
C177 C179 1.403 . S
C178 H151 0.950 . S
C178 C164 1.411 . S
C178 C177 1.382 . S
C179 C163 1.411 . S
C179 C177 1.403 . S
C179 C180 1.489 . S
C180 C179 1.489 . S
C180 C181 1.383 . S
C180 C185 1.382 . S
C181 H152 0.950 . S
C181 C180 1.383 . S
C181 C182 1.395 . S
C182 H153 0.950 . S
C182 C181 1.395 . S
C182 C183 1.288 . S
C183 C182 1.288 . S
C183 C184 1.392 . S
C184 H154 0.951 . S
C184 C183 1.392 . S
C184 C185 1.392 . S
C185 H155 0.949 . S
C185 C180 1.382 . S
C185 C184 1.392 . S
H186 C205 0.949 . S
H187 C206 0.950 . S
H188 C208 0.950 . S
H189 C209 0.950 . S
H190 C211 0.950 . S
H191 C214 0.950 . S
H192 C215 0.950 . S
H193 C217 0.951 . S
H194 C218 0.949 . S
H195 C220 0.949 . S
H196 C221 0.950 . S
H197 C223 0.950 . S
H198 C224 0.950 . S
H199 C226 0.950 . S
H200 C229 0.950 . S
H201 C230 0.950 . S
H202 C232 0.951 . S
H203 C233 0.949 . S
C204 C205 1.376 . S
C204 C209 1.386 . S
C204 C210 1.483 . S
C205 H186 0.949 . S
C205 C204 1.376 . S
C205 C206 1.397 . S
C206 H187 0.950 . S
C206 C205 1.397 . S
C206 C207 1.391 . S
C207 C206 1.391 . S
C207 C208 1.405 . S
C208 H188 0.950 . S
C208 C207 1.405 . S
C208 C209 1.367 . S
C209 H189 0.950 . S
C209 C204 1.386 . S
C209 C208 1.367 . S
C210 C204 1.483 . S
C210 C211 1.382 . S
C210 C212 1.403 . S
C211 H190 0.950 . S
C211 C210 1.382 . S
C211 C227 1.411 . S
C212 C210 1.403 . S
C212 C213 1.489 . S
C212 C226 1.411 . S
C213 C212 1.489 . S
C213 C214 1.383 . S
C213 C218 1.382 . S
C214 H191 0.950 . S
C214 C213 1.383 . S
C214 C215 1.395 . S
C215 H192 0.950 . S
C215 C214 1.395 . S
C215 C216 1.288 . S
C216 C215 1.288 . S
C216 C217 1.392 . S
C217 H193 0.951 . S
C217 C216 1.392 . S
C217 C218 1.392 . S
C218 H194 0.949 . S
C218 C213 1.382 . S
C218 C217 1.392 . S
C219 C220 1.376 . S
C219 C224 1.386 . S
C219 C225 1.483 . S
C220 H195 0.949 . S
C220 C219 1.376 . S
C220 C221 1.397 . S
C221 H196 0.950 . S
C221 C220 1.397 . S
C221 C222 1.391 . S
C222 C221 1.391 . S
C222 C223 1.405 . S
C223 H197 0.950 . S
C223 C222 1.405 . S
C223 C224 1.367 . S
C224 H198 0.950 . S
C224 C219 1.386 . S
C224 C223 1.367 . S
C225 C219 1.483 . S
C225 C226 1.382 . S
C225 C227 1.403 . S
C226 H199 0.950 . S
C226 C212 1.411 . S
C226 C225 1.382 . S
C227 C211 1.411 . S
C227 C225 1.403 . S
C227 C228 1.489 . S
C228 C227 1.489 . S
C228 C229 1.383 . S
C228 C233 1.382 . S
C229 H200 0.950 . S
C229 C228 1.383 . S
C229 C230 1.395 . S
C230 H201 0.950 . S
C230 C229 1.395 . S
C230 C231 1.288 . S
C231 C230 1.288 . S
C231 C232 1.392 . S
C232 H202 0.951 . S
C232 C231 1.392 . S
C232 C233 1.392 . S
C233 H203 0.949 . S
C233 C228 1.382 . S
C233 C232 1.392 . S
H234 C253 0.949 . S
H235 C254 0.950 . S
H236 C256 0.950 . S
H237 C257 0.950 . S
H238 C259 0.950 . S
H239 C262 0.950 . S
H240 C263 0.950 . S
H241 C265 0.951 . S
H242 C266 0.949 . S
H243 C268 0.949 . S
H244 C269 0.950 . S
H245 C271 0.950 . S
H246 C272 0.950 . S
H247 C274 0.950 . S
H248 C277 0.950 . S
H249 C278 0.950 . S
H250 C280 0.951 . S
H251 C281 0.949 . S
C252 C253 1.376 . S
C252 C257 1.386 . S
C252 C258 1.483 . S
C253 H234 0.949 . S
C253 C252 1.376 . S
C253 C254 1.397 . S
C254 H235 0.950 . S
C254 C253 1.397 . S
C254 C255 1.391 . S
C255 C254 1.391 . S
C255 C256 1.405 . S
C256 H236 0.950 . S
C256 C255 1.405 . S
C256 C257 1.367 . S
C257 H237 0.950 . S
C257 C252 1.386 . S
C257 C256 1.367 . S
C258 C252 1.483 . S
C258 C259 1.382 . S
C258 C260 1.403 . S
C259 H238 0.950 . S
C259 C258 1.382 . S
C259 C275 1.411 . S
C260 C258 1.403 . S
C260 C261 1.489 . S
C260 C274 1.411 . S
C261 C260 1.489 . S
C261 C262 1.383 . S
C261 C266 1.382 . S
C262 H239 0.950 . S
C262 C261 1.383 . S
C262 C263 1.395 . S
C263 H240 0.950 . S
C263 C262 1.395 . S
C263 C264 1.288 . S
C264 C263 1.288 . S
C264 C265 1.392 . S
C265 H241 0.951 . S
C265 C264 1.392 . S
C265 C266 1.392 . S
C266 H242 0.949 . S
C266 C261 1.382 . S
C266 C265 1.392 . S
C267 C268 1.376 . S
C267 C272 1.386 . S
C267 C273 1.483 . S
C268 H243 0.949 . S
C268 C267 1.376 . S
C268 C269 1.397 . S
C269 H244 0.950 . S
C269 C268 1.397 . S
C269 C270 1.391 . S
C270 C269 1.391 . S
C270 C271 1.405 . S
C271 H245 0.950 . S
C271 C270 1.405 . S
C271 C272 1.367 . S
C272 H246 0.950 . S
C272 C267 1.386 . S
C272 C271 1.367 . S
C273 C267 1.483 . S
C273 C274 1.382 . S
C273 C275 1.403 . S
C274 H247 0.950 . S
C274 C260 1.411 . S
C274 C273 1.382 . S
C275 C259 1.411 . S
C275 C273 1.403 . S
C275 C276 1.489 . S
C276 C275 1.489 . S
C276 C277 1.383 . S
C276 C281 1.382 . S
C277 H248 0.950 . S
C277 C276 1.383 . S
C277 C278 1.395 . S
C278 H249 0.950 . S
C278 C277 1.395 . S
C278 C279 1.288 . S
C279 C278 1.288 . S
C279 C280 1.392 . S
C280 H250 0.951 . S
C280 C279 1.392 . S
C280 C281 1.392 . S
C281 H251 0.949 . S
C281 C276 1.382 . S
C281 C280 1.392 . S
H282 C301 0.949 . S
H283 C302 0.950 . S
H284 C304 0.950 . S
H285 C305 0.950 . S
H286 C307 0.950 . S
H287 C310 0.950 . S
H288 C311 0.950 . S
H289 C313 0.951 . S
H290 C314 0.949 . S
H291 C316 0.949 . S
H292 C317 0.950 . S
H293 C319 0.950 . S
H294 C320 0.950 . S
H295 C322 0.950 . S
H296 C325 0.950 . S
H297 C326 0.950 . S
H298 C328 0.951 . S
H299 C329 0.949 . S
C300 C301 1.376 . S
C300 C305 1.386 . S
C300 C306 1.483 . S
C301 H282 0.949 . S
C301 C300 1.376 . S
C301 C302 1.397 . S
C302 H283 0.950 . S
C302 C301 1.397 . S
C302 C303 1.391 . S
C303 C302 1.391 . S
C303 C304 1.405 . S
C304 H284 0.950 . S
C304 C303 1.405 . S
C304 C305 1.367 . S
C305 H285 0.950 . S
C305 C300 1.386 . S
C305 C304 1.367 . S
C306 C300 1.483 . S
C306 C307 1.382 . S
C306 C308 1.403 . S
C307 H286 0.950 . S
C307 C306 1.382 . S
C307 C323 1.411 . S
C308 C306 1.403 . S
C308 C309 1.489 . S
C308 C322 1.411 . S
C309 C308 1.489 . S
C309 C310 1.383 . S
C309 C314 1.382 . S
C310 H287 0.950 . S
C310 C309 1.383 . S
C310 C311 1.395 . S
C311 H288 0.950 . S
C311 C310 1.395 . S
C311 C312 1.288 . S
C312 C311 1.288 . S
C312 C313 1.392 . S
C313 H289 0.951 . S
C313 C312 1.392 . S
C313 C314 1.392 . S
C314 H290 0.949 . S
C314 C309 1.382 . S
C314 C313 1.392 . S
C315 C316 1.376 . S
C315 C320 1.386 . S
C315 C321 1.483 . S
C316 H291 0.949 . S
C316 C315 1.376 . S
C316 C317 1.397 . S
C317 H292 0.950 . S
C317 C316 1.397 . S
C317 C318 1.391 . S
C318 C317 1.391 . S
C318 C319 1.405 . S
C319 H293 0.950 . S
C319 C318 1.405 . S
C319 C320 1.367 . S
C320 H294 0.950 . S
C320 C315 1.386 . S
C320 C319 1.367 . S
C321 C315 1.483 . S
C321 C322 1.382 . S
C321 C323 1.403 . S
C322 H295 0.950 . S
C322 C308 1.411 . S
C322 C321 1.382 . S
C323 C307 1.411 . S
C323 C321 1.403 . S
C323 C324 1.489 . S
C324 C323 1.489 . S
C324 C325 1.383 . S
C324 C329 1.382 . S
C325 H296 0.950 . S
C325 C324 1.383 . S
C325 C326 1.395 . S
C326 H297 0.950 . S
C326 C325 1.395 . S
C326 C327 1.288 . S
C327 C326 1.288 . S
C327 C328 1.392 . S
C328 H298 0.951 . S
C328 C327 1.392 . S
C328 C329 1.392 . S
C329 H299 0.949 . S
C329 C324 1.382 . S
C329 C328 1.392 . S
H330 C349 0.949 . S
H331 C350 0.950 . S
H332 C352 0.950 . S
H333 C353 0.950 . S
H334 C355 0.950 . S
H335 C358 0.950 . S
H336 C359 0.950 . S
H337 C361 0.951 . S
H338 C362 0.949 . S
H339 C364 0.949 . S
H340 C365 0.950 . S
H341 C367 0.950 . S
H342 C368 0.950 . S
H343 C370 0.950 . S
H344 C373 0.950 . S
H345 C374 0.950 . S
H346 C376 0.951 . S
H347 C377 0.949 . S
C348 C349 1.376 . S
C348 C353 1.386 . S
C348 C354 1.483 . S
C349 H330 0.949 . S
C349 C348 1.376 . S
C349 C350 1.397 . S
C350 H331 0.950 . S
C350 C349 1.397 . S
C350 C351 1.391 . S
C351 C350 1.391 . S
C351 C352 1.405 . S
C352 H332 0.950 . S
C352 C351 1.405 . S
C352 C353 1.367 . S
C353 H333 0.950 . S
C353 C348 1.386 . S
C353 C352 1.367 . S
C354 C348 1.483 . S
C354 C355 1.382 . S
C354 C356 1.403 . S
C355 H334 0.950 . S
C355 C354 1.382 . S
C355 C371 1.411 . S
C356 C354 1.403 . S
C356 C357 1.489 . S
C356 C370 1.411 . S
C357 C356 1.489 . S
C357 C358 1.383 . S
C357 C362 1.382 . S
C358 H335 0.950 . S
C358 C357 1.383 . S
C358 C359 1.395 . S
C359 H336 0.950 . S
C359 C358 1.395 . S
C359 C360 1.288 . S
C360 C359 1.288 . S
C360 C361 1.392 . S
C361 H337 0.951 . S
C361 C360 1.392 . S
C361 C362 1.392 . S
C362 H338 0.949 . S
C362 C357 1.382 . S
C362 C361 1.392 . S
C363 C364 1.376 . S
C363 C368 1.386 . S
C363 C369 1.483 . S
C364 H339 0.949 . S
C364 C363 1.376 . S
C364 C365 1.397 . S
C365 H340 0.950 . S
C365 C364 1.397 . S
C365 C366 1.391 . S
C366 C365 1.391 . S
C366 C367 1.405 . S
C367 H341 0.950 . S
C367 C366 1.405 . S
C367 C368 1.367 . S
C368 H342 0.950 . S
C368 C363 1.386 . S
C368 C367 1.367 . S
C369 C363 1.483 . S
C369 C370 1.382 . S
C369 C371 1.403 . S
C370 H343 0.950 . S
C370 C356 1.411 . S
C370 C369 1.382 . S
C371 C355 1.411 . S
C371 C369 1.403 . S
C371 C372 1.489 . S
C372 C371 1.489 . S
C372 C373 1.383 . S
C372 C377 1.382 . S
C373 H344 0.950 . S
C373 C372 1.383 . S
C373 C374 1.395 . S
C374 H345 0.950 . S
C374 C373 1.395 . S
C374 C375 1.288 . S
C375 C374 1.288 . S
C375 C376 1.392 . S
C376 H346 0.951 . S
C376 C375 1.392 . S
C376 C377 1.392 . S
C377 H347 0.949 . S
C377 C372 1.382 . S
C377 C376 1.392 . S
H378 C397 0.949 . S
H379 C398 0.950 . S
H380 C400 0.950 . S
H381 C401 0.950 . S
H382 C403 0.950 . S
H383 C406 0.950 . S
H384 C407 0.950 . S
H385 C409 0.951 . S
H386 C410 0.949 . S
H387 C412 0.949 . S
H388 C413 0.950 . S
H389 C415 0.950 . S
H390 C416 0.950 . S
H391 C418 0.950 . S
H392 C421 0.950 . S
H393 C422 0.950 . S
H394 C424 0.951 . S
H395 C425 0.949 . S
C396 C397 1.376 . S
C396 C401 1.386 . S
C396 C402 1.483 . S
C397 H378 0.949 . S
C397 C396 1.376 . S
C397 C398 1.397 . S
C398 H379 0.950 . S
C398 C397 1.397 . S
C398 C399 1.391 . S
C399 C398 1.391 . S
C399 C400 1.405 . S
C400 H380 0.950 . S
C400 C399 1.405 . S
C400 C401 1.367 . S
C401 H381 0.950 . S
C401 C396 1.386 . S
C401 C400 1.367 . S
C402 C396 1.483 . S
C402 C403 1.382 . S
C402 C404 1.403 . S
C403 H382 0.950 . S
C403 C402 1.382 . S
C403 C419 1.411 . S
C404 C402 1.403 . S
C404 C405 1.489 . S
C404 C418 1.411 . S
C405 C404 1.489 . S
C405 C406 1.383 . S
C405 C410 1.382 . S
C406 H383 0.950 . S
C406 C405 1.383 . S
C406 C407 1.395 . S
C407 H384 0.950 . S
C407 C406 1.395 . S
C407 C408 1.288 . S
C408 C407 1.288 . S
C408 C409 1.392 . S
C409 H385 0.951 . S
C409 C408 1.392 . S
C409 C410 1.392 . S
C410 H386 0.949 . S
C410 C405 1.382 . S
C410 C409 1.392 . S
C411 C412 1.376 . S
C411 C416 1.386 . S
C411 C417 1.483 . S
C412 H387 0.949 . S
C412 C411 1.376 . S
C412 C413 1.397 . S
C413 H388 0.950 . S
C413 C412 1.397 . S
C413 C414 1.391 . S
C414 C413 1.391 . S
C414 C415 1.405 . S
C415 H389 0.950 . S
C415 C414 1.405 . S
C415 C416 1.367 . S
C416 H390 0.950 . S
C416 C411 1.386 . S
C416 C415 1.367 . S
C417 C411 1.483 . S
C417 C418 1.382 . S
C417 C419 1.403 . S
C418 H391 0.950 . S
C418 C404 1.411 . S
C418 C417 1.382 . S
C419 C403 1.411 . S
C419 C417 1.403 . S
C419 C420 1.489 . S
C420 C419 1.489 . S
C420 C421 1.383 . S
C420 C425 1.382 . S
C421 H392 0.950 . S
C421 C420 1.383 . S
C421 C422 1.395 . S
C422 H393 0.950 . S
C422 C421 1.395 . S
C422 C423 1.288 . S
C423 C422 1.288 . S
C423 C424 1.392 . S
C424 H394 0.951 . S
C424 C423 1.392 . S
C424 C425 1.392 . S
C425 H395 0.949 . S
C425 C420 1.382 . S
C425 C424 1.392 . S
H426 C434 0.929 . S
H427 C436 0.930 . S
H428 C438 0.930 . S
H429 C441 0.929 . S
H430 C444 0.930 . S
H431 C446 0.960 . S
H432 C446 0.960 . S
H433 C446 0.960 . S
C434 H426 0.929 . S
C434 C435 1.377 . S
C434 C436 1.384 . S
C435 C434 1.377 . S
C435 C441 1.390 . S
C436 H427 0.930 . S
C436 C434 1.384 . S
C436 C437 1.372 . S
C437 C436 1.372 . S
C437 C438 1.400 . S
C437 C442 1.490 . S
C438 H428 0.930 . S
C438 C437 1.400 . S
C438 C441 1.386 . S
H439 C455 0.930 . S
H440 C456 0.931 . S
C441 H429 0.929 . S
C441 C435 1.390 . S
C441 C438 1.386 . S
C442 C437 1.490 . S
C442 C444 1.395 . S
C442 C445 1.403 . S
H443 C449 0.930 . S
C444 H430 0.930 . S
C444 C442 1.395 . S
C444 C447 1.403 . S
C445 C442 1.403 . S
C445 C446 1.524 . S
C445 C449 1.400 . S
C446 H431 0.960 . S
C446 H432 0.960 . S
C446 H433 0.960 . S
C446 C445 1.524 . S
C447 C444 1.403 . S
C447 C448 1.392 . S
C447 C451 1.495 . S
C448 C447 1.392 . S
C448 C449 1.385 . S
C448 C450 1.478 . S
C449 H443 0.930 . S
C449 C445 1.400 . S
C449 C448 1.385 . S
C450 C448 1.478 . S
C450 C452 1.381 . S
C450 C456 1.383 . S
C451 C447 1.495 . S
C451 H457 0.959 . S
C451 H458 0.961 . S
C451 H459 0.960 . S
C452 C450 1.381 . S
C452 C453 1.394 . S
C452 H460 0.930 . S
C453 C452 1.394 . S
C453 C454 1.383 . S
C453 H461 0.929 . S
C454 C453 1.383 . S
C454 C455 1.377 . S
C455 H439 0.930 . S
C455 C454 1.377 . S
C455 C456 1.379 . S
C456 H440 0.931 . S
C456 C450 1.383 . S
C456 C455 1.379 . S
H457 C451 0.959 . S
H458 C451 0.961 . S
H459 C451 0.960 . S
H460 C452 0.930 . S
H461 C453 0.929 . S
H462 C470 0.929 . S
H463 C472 0.930 . S
H464 C474 0.930 . S
H465 C477 0.929 . S
H466 C480 0.930 . S
H467 C482 0.960 . S
H468 C482 0.960 . S
H469 C482 0.960 . S
C470 H462 0.929 . S
C470 C471 1.377 . S
C470 C472 1.384 . S
C471 C470 1.377 . S
C471 C477 1.390 . S
C472 H463 0.930 . S
C472 C470 1.384 . S
C472 C473 1.372 . S
C473 C472 1.372 . S
C473 C474 1.400 . S
C473 C478 1.490 . S
C474 H464 0.930 . S
C474 C473 1.400 . S
C474 C477 1.386 . S
H475 C491 0.930 . S
H476 C492 0.931 . S
C477 H465 0.929 . S
C477 C471 1.390 . S
C477 C474 1.386 . S
C478 C473 1.490 . S
C478 C480 1.395 . S
C478 C481 1.403 . S
H479 C485 0.930 . S
C480 H466 0.930 . S
C480 C478 1.395 . S
C480 C483 1.403 . S
C481 C478 1.403 . S
C481 C482 1.524 . S
C481 C485 1.400 . S
C482 H467 0.960 . S
C482 H468 0.960 . S
C482 H469 0.960 . S
C482 C481 1.524 . S
C483 C480 1.403 . S
C483 C484 1.392 . S
C483 C487 1.495 . S
C484 C483 1.392 . S
C484 C485 1.385 . S
C484 C486 1.478 . S
C485 H479 0.930 . S
C485 C481 1.400 . S
C485 C484 1.385 . S
C486 C484 1.478 . S
C486 C488 1.381 . S
C486 C492 1.383 . S
C487 C483 1.495 . S
C487 H493 0.959 . S
C487 H494 0.961 . S
C487 H495 0.960 . S
C488 C486 1.381 . S
C488 C489 1.394 . S
C488 H496 0.930 . S
C489 C488 1.394 . S
C489 C490 1.383 . S
C489 H497 0.929 . S
C490 C489 1.383 . S
C490 C491 1.377 . S
C491 H475 0.930 . S
C491 C490 1.377 . S
C491 C492 1.379 . S
C492 H476 0.931 . S
C492 C486 1.383 . S
C492 C491 1.379 . S
H493 C487 0.959 . S
H494 C487 0.961 . S
H495 C487 0.960 . S
H496 C488 0.930 . S
H497 C489 0.929 . S
H498 C506 0.929 . S
H499 C508 0.930 . S
H500 C510 0.930 . S
H501 C513 0.929 . S
H502 C516 0.930 . S
H503 C518 0.960 . S
H504 C518 0.960 . S
H505 C518 0.960 . S
C506 H498 0.929 . S
C506 C507 1.377 . S
C506 C508 1.384 . S
C507 C506 1.377 . S
C507 C513 1.390 . S
C508 H499 0.930 . S
C508 C506 1.384 . S
C508 C509 1.372 . S
C509 C508 1.372 . S
C509 C510 1.400 . S
C509 C514 1.490 . S
C510 H500 0.930 . S
C510 C509 1.400 . S
C510 C513 1.386 . S
H511 C527 0.930 . S
H512 C528 0.931 . S
C513 H501 0.929 . S
C513 C507 1.390 . S
C513 C510 1.386 . S
C514 C509 1.490 . S
C514 C516 1.395 . S
C514 C517 1.403 . S
H515 C521 0.930 . S
C516 H502 0.930 . S
C516 C514 1.395 . S
C516 C519 1.403 . S
C517 C514 1.403 . S
C517 C518 1.524 . S
C517 C521 1.400 . S
C518 H503 0.960 . S
C518 H504 0.960 . S
C518 H505 0.960 . S
C518 C517 1.524 . S
C519 C516 1.403 . S
C519 C520 1.392 . S
C519 C523 1.495 . S
C520 C519 1.392 . S
C520 C521 1.385 . S
C520 C522 1.478 . S
C521 H515 0.930 . S
C521 C517 1.400 . S
C521 C520 1.385 . S
C522 C520 1.478 . S
C522 C524 1.381 . S
C522 C528 1.383 . S
C523 C519 1.495 . S
C523 H529 0.959 . S
C523 H530 0.961 . S
C523 H531 0.960 . S
C524 C522 1.381 . S
C524 C525 1.394 . S
C524 H532 0.930 . S
C525 C524 1.394 . S
C525 C526 1.383 . S
C525 H533 0.929 . S
C526 C525 1.383 . S
C526 C527 1.377 . S
C527 H511 0.930 . S
C527 C526 1.377 . S
C527 C528 1.379 . S
C528 H512 0.931 . S
C528 C522 1.383 . S
C528 C527 1.379 . S
H529 C523 0.959 . S
H530 C523 0.961 . S
H531 C523 0.960 . S
H532 C524 0.930 . S
H533 C525 0.929 . S
H534 C542 0.929 . S
H535 C544 0.930 . S
H536 C546 0.930 . S
H537 C549 0.929 . S
H538 C552 0.930 . S
H539 C554 0.960 . S
H540 C554 0.960 . S
H541 C554 0.960 . S
C542 H534 0.929 . S
C542 C543 1.377 . S
C542 C544 1.384 . S
C543 C542 1.377 . S
C543 C549 1.390 . S
C544 H535 0.930 . S
C544 C542 1.384 . S
C544 C545 1.372 . S
C545 C544 1.372 . S
C545 C546 1.400 . S
C545 C550 1.490 . S
C546 H536 0.930 . S
C546 C545 1.400 . S
C546 C549 1.386 . S
H547 C563 0.930 . S
H548 C564 0.931 . S
C549 H537 0.929 . S
C549 C543 1.390 . S
C549 C546 1.386 . S
C550 C545 1.490 . S
C550 C552 1.395 . S
C550 C553 1.403 . S
H551 C557 0.930 . S
C552 H538 0.930 . S
C552 C550 1.395 . S
C552 C555 1.403 . S
C553 C550 1.403 . S
C553 C554 1.524 . S
C553 C557 1.400 . S
C554 H539 0.960 . S
C554 H540 0.960 . S
C554 H541 0.960 . S
C554 C553 1.524 . S
C555 C552 1.403 . S
C555 C556 1.392 . S
C555 C559 1.495 . S
C556 C555 1.392 . S
C556 C557 1.385 . S
C556 C558 1.478 . S
C557 H551 0.930 . S
C557 C553 1.400 . S
C557 C556 1.385 . S
C558 C556 1.478 . S
C558 C560 1.381 . S
C558 C564 1.383 . S
C559 C555 1.495 . S
C559 H565 0.959 . S
C559 H566 0.961 . S
C559 H567 0.960 . S
C560 C558 1.381 . S
C560 C561 1.394 . S
C560 H568 0.930 . S
C561 C560 1.394 . S
C561 C562 1.383 . S
C561 H569 0.929 . S
C562 C561 1.383 . S
C562 C563 1.377 . S
C563 H547 0.930 . S
C563 C562 1.377 . S
C563 C564 1.379 . S
C564 H548 0.931 . S
C564 C558 1.383 . S
C564 C563 1.379 . S
H565 C559 0.959 . S
H566 C559 0.961 . S
H567 C559 0.960 . S
H568 C560 0.930 . S
H569 C561 0.929 . S
H570 C578 0.929 . S
H571 C580 0.930 . S
H572 C582 0.930 . S
H573 C585 0.929 . S
H574 C588 0.930 . S
H575 C590 0.960 . S
H576 C590 0.960 . S
H577 C590 0.960 . S
C578 H570 0.929 . S
C578 C579 1.377 . S
C578 C580 1.384 . S
C579 C578 1.377 . S
C579 C585 1.390 . S
C580 H571 0.930 . S
C580 C578 1.384 . S
C580 C581 1.372 . S
C581 C580 1.372 . S
C581 C582 1.400 . S
C581 C586 1.490 . S
C582 H572 0.930 . S
C582 C581 1.400 . S
C582 C585 1.386 . S
H583 C599 0.930 . S
H584 C600 0.931 . S
C585 H573 0.929 . S
C585 C579 1.390 . S
C585 C582 1.386 . S
C586 C581 1.490 . S
C586 C588 1.395 . S
C586 C589 1.403 . S
H587 C593 0.930 . S
C588 H574 0.930 . S
C588 C586 1.395 . S
C588 C591 1.403 . S
C589 C586 1.403 . S
C589 C590 1.524 . S
C589 C593 1.400 . S
C590 H575 0.960 . S
C590 H576 0.960 . S
C590 H577 0.960 . S
C590 C589 1.524 . S
C591 C588 1.403 . S
C591 C592 1.392 . S
C591 C595 1.495 . S
C592 C591 1.392 . S
C592 C593 1.385 . S
C592 C594 1.478 . S
C593 H587 0.930 . S
C593 C589 1.400 . S
C593 C592 1.385 . S
C594 C592 1.478 . S
C594 C596 1.381 . S
C594 C600 1.383 . S
C595 C591 1.495 . S
C595 H601 0.959 . S
C595 H602 0.961 . S
C595 H603 0.960 . S
C596 C594 1.381 . S
C596 C597 1.394 . S
C596 H604 0.930 . S
C597 C596 1.394 . S
C597 C598 1.383 . S
C597 H605 0.929 . S
C598 C597 1.383 . S
C598 C599 1.377 . S
C599 H583 0.930 . S
C599 C598 1.377 . S
C599 C600 1.379 . S
C600 H584 0.931 . S
C600 C594 1.383 . S
C600 C599 1.379 . S
H601 C595 0.959 . S
H602 C595 0.961 . S
H603 C595 0.960 . S
H604 C596 0.930 . S
H605 C597 0.929 . S
H606 C614 0.929 . S
H607 C616 0.930 . S
H608 C618 0.930 . S
H609 C621 0.929 . S
H610 C624 0.930 . S
H611 C626 0.960 . S
H612 C626 0.960 . S
H613 C626 0.960 . S
C614 H606 0.929 . S
C614 C615 1.377 . S
C614 C616 1.384 . S
C615 C614 1.377 . S
C615 C621 1.390 . S
C616 H607 0.930 . S
C616 C614 1.384 . S
C616 C617 1.372 . S
C617 C616 1.372 . S
C617 C618 1.400 . S
C617 C622 1.490 . S
C618 H608 0.930 . S
C618 C617 1.400 . S
C618 C621 1.386 . S
H619 C635 0.930 . S
H620 C636 0.931 . S
C621 H609 0.929 . S
C621 C615 1.390 . S
C621 C618 1.386 . S
C622 C617 1.490 . S
C622 C624 1.395 . S
C622 C625 1.403 . S
H623 C629 0.930 . S
C624 H610 0.930 . S
C624 C622 1.395 . S
C624 C627 1.403 . S
C625 C622 1.403 . S
C625 C626 1.524 . S
C625 C629 1.400 . S
C626 H611 0.960 . S
C626 H612 0.960 . S
C626 H613 0.960 . S
C626 C625 1.524 . S
C627 C624 1.403 . S
C627 C628 1.392 . S
C627 C631 1.495 . S
C628 C627 1.392 . S
C628 C629 1.385 . S
C628 C630 1.478 . S
C629 H623 0.930 . S
C629 C625 1.400 . S
C629 C628 1.385 . S
C630 C628 1.478 . S
C630 C632 1.381 . S
C630 C636 1.383 . S
C631 C627 1.495 . S
C631 H637 0.959 . S
C631 H638 0.961 . S
C631 H639 0.960 . S
C632 C630 1.381 . S
C632 C633 1.394 . S
C632 H640 0.930 . S
C633 C632 1.394 . S
C633 C634 1.383 . S
C633 H641 0.929 . S
C634 C633 1.383 . S
C634 C635 1.377 . S
C635 H619 0.930 . S
C635 C634 1.377 . S
C635 C636 1.379 . S
C636 H620 0.931 . S
C636 C630 1.383 . S
C636 C635 1.379 . S
H637 C631 0.959 . S
H638 C631 0.961 . S
H639 C631 0.960 . S
H640 C632 0.930 . S
H641 C633 0.929 . S
H642 C650 0.929 . S
H643 C652 0.930 . S
H644 C654 0.930 . S
H645 C657 0.929 . S
H646 C660 0.930 . S
H647 C662 0.960 . S
H648 C662 0.960 . S
H649 C662 0.960 . S
C650 H642 0.929 . S
C650 C651 1.377 . S
C650 C652 1.384 . S
C651 C650 1.377 . S
C651 C657 1.390 . S
C652 H643 0.930 . S
C652 C650 1.384 . S
C652 C653 1.372 . S
C653 C652 1.372 . S
C653 C654 1.400 . S
C653 C658 1.490 . S
C654 H644 0.930 . S
C654 C653 1.400 . S
C654 C657 1.386 . S
H655 C671 0.930 . S
H656 C672 0.931 . S
C657 H645 0.929 . S
C657 C651 1.390 . S
C657 C654 1.386 . S
C658 C653 1.490 . S
C658 C660 1.395 . S
C658 C661 1.403 . S
H659 C665 0.930 . S
C660 H646 0.930 . S
C660 C658 1.395 . S
C660 C663 1.403 . S
C661 C658 1.403 . S
C661 C662 1.524 . S
C661 C665 1.400 . S
C662 H647 0.960 . S
C662 H648 0.960 . S
C662 H649 0.960 . S
C662 C661 1.524 . S
C663 C660 1.403 . S
C663 C664 1.392 . S
C663 C667 1.495 . S
C664 C663 1.392 . S
C664 C665 1.385 . S
C664 C666 1.478 . S
C665 H659 0.930 . S
C665 C661 1.400 . S
C665 C664 1.385 . S
C666 C664 1.478 . S
C666 C668 1.381 . S
C666 C672 1.383 . S
C667 C663 1.495 . S
C667 H673 0.959 . S
C667 H674 0.961 . S
C667 H675 0.960 . S
C668 C666 1.381 . S
C668 C669 1.394 . S
C668 H676 0.930 . S
C669 C668 1.394 . S
C669 C670 1.383 . S
C669 H677 0.929 . S
C670 C669 1.383 . S
C670 C671 1.377 . S
C671 H655 0.930 . S
C671 C670 1.377 . S
C671 C672 1.379 . S
C672 H656 0.931 . S
C672 C666 1.383 . S
C672 C671 1.379 . S
H673 C667 0.959 . S
H674 C667 0.961 . S
H675 C667 0.960 . S
H676 C668 0.930 . S
H677 C669 0.929 . S
H678 C686 0.929 . S
H679 C688 0.930 . S
H680 C690 0.930 . S
H681 C693 0.929 . S
H682 C696 0.930 . S
H683 C698 0.960 . S
H684 C698 0.960 . S
H685 C698 0.960 . S
C686 H678 0.929 . S
C686 C687 1.377 . S
C686 C688 1.384 . S
C687 C686 1.377 . S
C687 C693 1.390 . S
C688 H679 0.930 . S
C688 C686 1.384 . S
C688 C689 1.372 . S
C689 C688 1.372 . S
C689 C690 1.400 . S
C689 C694 1.490 . S
C690 H680 0.930 . S
C690 C689 1.400 . S
C690 C693 1.386 . S
H691 C707 0.930 . S
H692 C708 0.931 . S
C693 H681 0.929 . S
C693 C687 1.390 . S
C693 C690 1.386 . S
C694 C689 1.490 . S
C694 C696 1.395 . S
C694 C697 1.403 . S
H695 C701 0.930 . S
C696 H682 0.930 . S
C696 C694 1.395 . S
C696 C699 1.403 . S
C697 C694 1.403 . S
C697 C698 1.524 . S
C697 C701 1.400 . S
C698 H683 0.960 . S
C698 H684 0.960 . S
C698 H685 0.960 . S
C698 C697 1.524 . S
C699 C696 1.403 . S
C699 C700 1.392 . S
C699 C703 1.495 . S
C700 C699 1.392 . S
C700 C701 1.385 . S
C700 C702 1.478 . S
C701 H695 0.930 . S
C701 C697 1.400 . S
C701 C700 1.385 . S
C702 C700 1.478 . S
C702 C704 1.381 . S
C702 C708 1.383 . S
C703 C699 1.495 . S
C703 H709 0.959 . S
C703 H710 0.961 . S
C703 H711 0.960 . S
C704 C702 1.381 . S
C704 C705 1.394 . S
C704 H712 0.930 . S
C705 C704 1.394 . S
C705 C706 1.383 . S
C705 H713 0.929 . S
C706 C705 1.383 . S
C706 C707 1.377 . S
C707 H691 0.930 . S
C707 C706 1.377 . S
C707 C708 1.379 . S
C708 H692 0.931 . S
C708 C702 1.383 . S
C708 C707 1.379 . S
H709 C703 0.959 . S
H710 C703 0.961 . S
H711 C703 0.960 . S
H712 C704 0.930 . S
H713 C705 0.929 . S
H714 C722 0.929 . S
H715 C724 0.930 . S
H716 C726 0.930 . S
H717 C729 0.929 . S
H718 C732 0.930 . S
H719 C734 0.960 . S
H720 C734 0.960 . S
H721 C734 0.960 . S
C722 H714 0.929 . S
C722 C723 1.377 . S
C722 C724 1.384 . S
C723 C722 1.377 . S
C723 C729 1.390 . S
C724 H715 0.930 . S
C724 C722 1.384 . S
C724 C725 1.372 . S
C725 C724 1.372 . S
C725 C726 1.400 . S
C725 C730 1.490 . S
C726 H716 0.930 . S
C726 C725 1.400 . S
C726 C729 1.386 . S
H727 C743 0.930 . S
H728 C744 0.931 . S
C729 H717 0.929 . S
C729 C723 1.390 . S
C729 C726 1.386 . S
C730 C725 1.490 . S
C730 C732 1.395 . S
C730 C733 1.403 . S
H731 C737 0.930 . S
C732 H718 0.930 . S
C732 C730 1.395 . S
C732 C735 1.403 . S
C733 C730 1.403 . S
C733 C734 1.524 . S
C733 C737 1.400 . S
C734 H719 0.960 . S
C734 H720 0.960 . S
C734 H721 0.960 . S
C734 C733 1.524 . S
C735 C732 1.403 . S
C735 C736 1.392 . S
C735 C739 1.495 . S
C736 C735 1.392 . S
C736 C737 1.385 . S
C736 C738 1.478 . S
C737 H731 0.930 . S
C737 C733 1.400 . S
C737 C736 1.385 . S
C738 C736 1.478 . S
C738 C740 1.381 . S
C738 C744 1.383 . S
C739 C735 1.495 . S
C739 H745 0.959 . S
C739 H746 0.961 . S
C739 H747 0.960 . S
C740 C738 1.381 . S
C740 C741 1.394 . S
C740 H748 0.930 . S
C741 C740 1.394 . S
C741 C742 1.383 . S
C741 H749 0.929 . S
C742 C741 1.383 . S
C742 C743 1.377 . S
C743 H727 0.930 . S
C743 C742 1.377 . S
C743 C744 1.379 . S
C744 H728 0.931 . S
C744 C738 1.383 . S
C744 C743 1.379 . S
H745 C739 0.959 . S
H746 C739 0.961 . S
H747 C739 0.960 . S
H748 C740 0.930 . S
H749 C741 0.929 . S
H750 C758 0.929 . S
H751 C760 0.930 . S
H752 C762 0.930 . S
H753 C765 0.929 . S
H754 C768 0.930 . S
H755 C770 0.960 . S
H756 C770 0.960 . S
H757 C770 0.960 . S
C758 H750 0.929 . S
C758 C759 1.377 . S
C758 C760 1.384 . S
C759 C758 1.377 . S
C759 C765 1.390 . S
C760 H751 0.930 . S
C760 C758 1.384 . S
C760 C761 1.372 . S
C761 C760 1.372 . S
C761 C762 1.400 . S
C761 C766 1.490 . S
C762 H752 0.930 . S
C762 C761 1.400 . S
C762 C765 1.386 . S
H763 C779 0.930 . S
H764 C780 0.931 . S
C765 H753 0.929 . S
C765 C759 1.390 . S
C765 C762 1.386 . S
C766 C761 1.490 . S
C766 C768 1.395 . S
C766 C769 1.403 . S
H767 C773 0.930 . S
C768 H754 0.930 . S
C768 C766 1.395 . S
C768 C771 1.403 . S
C769 C766 1.403 . S
C769 C770 1.524 . S
C769 C773 1.400 . S
C770 H755 0.960 . S
C770 H756 0.960 . S
C770 H757 0.960 . S
C770 C769 1.524 . S
C771 C768 1.403 . S
C771 C772 1.392 . S
C771 C775 1.495 . S
C772 C771 1.392 . S
C772 C773 1.385 . S
C772 C774 1.478 . S
C773 H767 0.930 . S
C773 C769 1.400 . S
C773 C772 1.385 . S
C774 C772 1.478 . S
C774 C776 1.381 . S
C774 C780 1.383 . S
C775 C771 1.495 . S
C775 H781 0.959 . S
C775 H782 0.961 . S
C775 H783 0.960 . S
C776 C774 1.381 . S
C776 C777 1.394 . S
C776 H784 0.930 . S
C777 C776 1.394 . S
C777 C778 1.383 . S
C777 H785 0.929 . S
C778 C777 1.383 . S
C778 C779 1.377 . S
C779 H763 0.930 . S
C779 C778 1.377 . S
C779 C780 1.379 . S
C780 H764 0.931 . S
C780 C774 1.383 . S
C780 C779 1.379 . S
H781 C775 0.959 . S
H782 C775 0.961 . S
H783 C775 0.960 . S
H784 C776 0.930 . S
H785 C777 0.929 . S
H786 C794 0.929 . S
H787 C796 0.930 . S
H788 C798 0.930 . S
H789 C801 0.929 . S
H790 C804 0.930 . S
H791 C806 0.960 . S
H792 C806 0.960 . S
H793 C806 0.960 . S
C794 H786 0.929 . S
C794 C795 1.377 . S
C794 C796 1.384 . S
C795 C794 1.377 . S
C795 C801 1.390 . S
C796 H787 0.930 . S
C796 C794 1.384 . S
C796 C797 1.372 . S
C797 C796 1.372 . S
C797 C798 1.400 . S
C797 C802 1.490 . S
C798 H788 0.930 . S
C798 C797 1.400 . S
C798 C801 1.386 . S
H799 C815 0.930 . S
H800 C816 0.931 . S
C801 H789 0.929 . S
C801 C795 1.390 . S
C801 C798 1.386 . S
C802 C797 1.490 . S
C802 C804 1.395 . S
C802 C805 1.403 . S
H803 C809 0.930 . S
C804 H790 0.930 . S
C804 C802 1.395 . S
C804 C807 1.403 . S
C805 C802 1.403 . S
C805 C806 1.524 . S
C805 C809 1.400 . S
C806 H791 0.960 . S
C806 H792 0.960 . S
C806 H793 0.960 . S
C806 C805 1.524 . S
C807 C804 1.403 . S
C807 C808 1.392 . S
C807 C811 1.495 . S
C808 C807 1.392 . S
C808 C809 1.385 . S
C808 C810 1.478 . S
C809 H803 0.930 . S
C809 C805 1.400 . S
C809 C808 1.385 . S
C810 C808 1.478 . S
C810 C812 1.381 . S
C810 C816 1.383 . S
C811 C807 1.495 . S
C811 H817 0.959 . S
C811 H818 0.961 . S
C811 H819 0.960 . S
C812 C810 1.381 . S
C812 C813 1.394 . S
C812 H820 0.930 . S
C813 C812 1.394 . S
C813 C814 1.383 . S
C813 H821 0.929 . S
C814 C813 1.383 . S
C814 C815 1.377 . S
C815 H799 0.930 . S
C815 C814 1.377 . S
C815 C816 1.379 . S
C816 H800 0.931 . S
C816 C810 1.383 . S
C816 C815 1.379 . S
H817 C811 0.959 . S
H818 C811 0.961 . S
H819 C811 0.960 . S
H820 C812 0.930 . S
H821 C813 0.929 . S
H822 C830 0.929 . S
H823 C832 0.930 . S
H824 C834 0.930 . S
H825 C837 0.929 . S
H826 C840 0.930 . S
H827 C842 0.960 . S
H828 C842 0.960 . S
H829 C842 0.960 . S
C830 H822 0.929 . S
C830 C831 1.377 . S
C830 C832 1.384 . S
C831 C830 1.377 . S
C831 C837 1.390 . S
C832 H823 0.930 . S
C832 C830 1.384 . S
C832 C833 1.372 . S
C833 C832 1.372 . S
C833 C834 1.400 . S
C833 C838 1.490 . S
C834 H824 0.930 . S
C834 C833 1.400 . S
C834 C837 1.386 . S
H835 C851 0.930 . S
H836 C852 0.931 . S
C837 H825 0.929 . S
C837 C831 1.390 . S
C837 C834 1.386 . S
C838 C833 1.490 . S
C838 C840 1.395 . S
C838 C841 1.403 . S
H839 C845 0.930 . S
C840 H826 0.930 . S
C840 C838 1.395 . S
C840 C843 1.403 . S
C841 C838 1.403 . S
C841 C842 1.524 . S
C841 C845 1.400 . S
C842 H827 0.960 . S
C842 H828 0.960 . S
C842 H829 0.960 . S
C842 C841 1.524 . S
C843 C840 1.403 . S
C843 C844 1.392 . S
C843 C847 1.495 . S
C844 C843 1.392 . S
C844 C845 1.385 . S
C844 C846 1.478 . S
C845 H839 0.930 . S
C845 C841 1.400 . S
C845 C844 1.385 . S
C846 C844 1.478 . S
C846 C848 1.381 . S
C846 C852 1.383 . S
C847 C843 1.495 . S
C847 H853 0.959 . S
C847 H854 0.961 . S
C847 H855 0.960 . S
C848 C846 1.381 . S
C848 C849 1.394 . S
C848 H856 0.930 . S
C849 C848 1.394 . S
C849 C850 1.383 . S
C849 H857 0.929 . S
C850 C849 1.383 . S
C850 C851 1.377 . S
C851 H835 0.930 . S
C851 C850 1.377 . S
C851 C852 1.379 . S
C852 H836 0.931 . S
C852 C846 1.383 . S
C852 C851 1.379 . S
H853 C847 0.959 . S
H854 C847 0.961 . S
H855 C847 0.960 . S
H856 C848 0.930 . S
H857 C849 0.929 . S
H858 C866 0.929 . S
H859 C868 0.930 . S
H860 C870 0.930 . S
H861 C873 0.929 . S
H862 C876 0.930 . S
H863 C878 0.960 . S
H864 C878 0.960 . S
H865 C878 0.960 . S
C866 H858 0.929 . S
C866 C867 1.377 . S
C866 C868 1.384 . S
C867 C866 1.377 . S
C867 C873 1.390 . S
C868 H859 0.930 . S
C868 C866 1.384 . S
C868 C869 1.372 . S
C869 C868 1.372 . S
C869 C870 1.400 . S
C869 C874 1.490 . S
C870 H860 0.930 . S
C870 C869 1.400 . S
C870 C873 1.386 . S
H871 C887 0.930 . S
H872 C888 0.931 . S
C873 H861 0.929 . S
C873 C867 1.390 . S
C873 C870 1.386 . S
C874 C869 1.490 . S
C874 C876 1.395 . S
C874 C877 1.403 . S
H875 C881 0.930 . S
C876 H862 0.930 . S
C876 C874 1.395 . S
C876 C879 1.403 . S
C877 C874 1.403 . S
C877 C878 1.524 . S
C877 C881 1.400 . S
C878 H863 0.960 . S
C878 H864 0.960 . S
C878 H865 0.960 . S
C878 C877 1.524 . S
C879 C876 1.403 . S
C879 C880 1.392 . S
C879 C883 1.495 . S
C880 C879 1.392 . S
C880 C881 1.385 . S
C880 C882 1.478 . S
C881 H875 0.930 . S
C881 C877 1.400 . S
C881 C880 1.385 . S
C882 C880 1.478 . S
C882 C884 1.381 . S
C882 C888 1.383 . S
C883 C879 1.495 . S
C883 H889 0.959 . S
C883 H890 0.961 . S
C883 H891 0.960 . S
C884 C882 1.381 . S
C884 C885 1.394 . S
C884 H892 0.930 . S
C885 C884 1.394 . S
C885 C886 1.383 . S
C885 H893 0.929 . S
C886 C885 1.383 . S
C886 C887 1.377 . S
C887 H871 0.930 . S
C887 C886 1.377 . S
C887 C888 1.379 . S
C888 H872 0.931 . S
C888 C882 1.383 . S
C888 C887 1.379 . S
H889 C883 0.959 . S
H890 C883 0.961 . S
H891 C883 0.960 . S
H892 C884 0.930 . S
H893 C885 0.929 . S
H894 C902 0.929 . S
H895 C904 0.930 . S
H896 C906 0.930 . S
H897 C909 0.929 . S
H898 C912 0.930 . S
H899 C914 0.960 . S
H900 C914 0.960 . S
H901 C914 0.960 . S
C902 H894 0.929 . S
C902 C903 1.377 . S
C902 C904 1.384 . S
C903 C902 1.377 . S
C903 C909 1.390 . S
C904 H895 0.930 . S
C904 C902 1.384 . S
C904 C905 1.372 . S
C905 C904 1.372 . S
C905 C906 1.400 . S
C905 C910 1.490 . S
C906 H896 0.930 . S
C906 C905 1.400 . S
C906 C909 1.386 . S
H907 C923 0.930 . S
H908 C924 0.931 . S
C909 H897 0.929 . S
C909 C903 1.390 . S
C909 C906 1.386 . S
C910 C905 1.490 . S
C910 C912 1.395 . S
C910 C913 1.403 . S
H911 C917 0.930 . S
C912 H898 0.930 . S
C912 C910 1.395 . S
C912 C915 1.403 . S
C913 C910 1.403 . S
C913 C914 1.524 . S
C913 C917 1.400 . S
C914 H899 0.960 . S
C914 H900 0.960 . S
C914 H901 0.960 . S
C914 C913 1.524 . S
C915 C912 1.403 . S
C915 C916 1.392 . S
C915 C919 1.495 . S
C916 C915 1.392 . S
C916 C917 1.385 . S
C916 C918 1.478 . S
C917 H911 0.930 . S
C917 C913 1.400 . S
C917 C916 1.385 . S
C918 C916 1.478 . S
C918 C920 1.381 . S
C918 C924 1.383 . S
C919 C915 1.495 . S
C919 H925 0.959 . S
C919 H926 0.961 . S
C919 H927 0.960 . S
C920 C918 1.381 . S
C920 C921 1.394 . S
C920 H928 0.930 . S
C921 C920 1.394 . S
C921 C922 1.383 . S
C921 H929 0.929 . S
C922 C921 1.383 . S
C922 C923 1.377 . S
C923 H907 0.930 . S
C923 C922 1.377 . S
C923 C924 1.379 . S
C924 H908 0.931 . S
C924 C918 1.383 . S
C924 C923 1.379 . S
H925 C919 0.959 . S
H926 C919 0.961 . S
H927 C919 0.960 . S
H928 C920 0.930 . S
H929 C921 0.929 . S
H930 C938 0.929 . S
H931 C940 0.930 . S
H932 C942 0.930 . S
H933 C945 0.929 . S
H934 C948 0.930 . S
H935 C950 0.960 . S
H936 C950 0.960 . S
H937 C950 0.960 . S
C938 H930 0.929 . S
C938 C939 1.377 . S
C938 C940 1.384 . S
C939 C938 1.377 . S
C939 C945 1.390 . S
C940 H931 0.930 . S
C940 C938 1.384 . S
C940 C941 1.372 . S
C941 C940 1.372 . S
C941 C942 1.400 . S
C941 C946 1.490 . S
C942 H932 0.930 . S
C942 C941 1.400 . S
C942 C945 1.386 . S
H943 C959 0.930 . S
H944 C960 0.931 . S
C945 H933 0.929 . S
C945 C939 1.390 . S
C945 C942 1.386 . S
C946 C941 1.490 . S
C946 C948 1.395 . S
C946 C949 1.403 . S
H947 C953 0.930 . S
C948 H934 0.930 . S
C948 C946 1.395 . S
C948 C951 1.403 . S
C949 C946 1.403 . S
C949 C950 1.524 . S
C949 C953 1.400 . S
C950 H935 0.960 . S
C950 H936 0.960 . S
C950 H937 0.960 . S
C950 C949 1.524 . S
C951 C948 1.403 . S
C951 C952 1.392 . S
C951 C955 1.495 . S
C952 C951 1.392 . S
C952 C953 1.385 . S
C952 C954 1.478 . S
C953 H947 0.930 . S
C953 C949 1.400 . S
C953 C952 1.385 . S
C954 C952 1.478 . S
C954 C956 1.381 . S
C954 C960 1.383 . S
C955 C951 1.495 . S
C955 H961 0.959 . S
C955 H962 0.961 . S
C955 H963 0.960 . S
C956 C954 1.381 . S
C956 C957 1.394 . S
C956 H964 0.930 . S
C957 C956 1.394 . S
C957 C958 1.383 . S
C957 H965 0.929 . S
C958 C957 1.383 . S
C958 C959 1.377 . S
C959 H943 0.930 . S
C959 C958 1.377 . S
C959 C960 1.379 . S
C960 H944 0.931 . S
C960 C954 1.383 . S
C960 C959 1.379 . S
H961 C955 0.959 . S
H962 C955 0.961 . S
H963 C955 0.960 . S
H964 C956 0.930 . S
H965 C957 0.929 . S
H966 C974 0.929 . S
H967 C976 0.930 . S
H968 C978 0.930 . S
H969 C981 0.929 . S
H970 C984 0.930 . S
H971 C986 0.960 . S
H972 C986 0.960 . S
H973 C986 0.960 . S
C974 H966 0.929 . S
C974 C975 1.377 . S
C974 C976 1.384 . S
C975 C974 1.377 . S
C975 C981 1.390 . S
C976 H967 0.930 . S
C976 C974 1.384 . S
C976 C977 1.372 . S
C977 C976 1.372 . S
C977 C978 1.400 . S
C977 C982 1.490 . S
C978 H968 0.930 . S
C978 C977 1.400 . S
C978 C981 1.386 . S
H979 C995 0.930 . S
H980 C996 0.931 . S
C981 H969 0.929 . S
C981 C975 1.390 . S
C981 C978 1.386 . S
C982 C977 1.490 . S
C982 C984 1.395 . S
C982 C985 1.403 . S
H983 C989 0.930 . S
C984 H970 0.930 . S
C984 C982 1.395 . S
C984 C987 1.403 . S
C985 C982 1.403 . S
C985 C986 1.524 . S
C985 C989 1.400 . S
C986 H971 0.960 . S
C986 H972 0.960 . S
C986 H973 0.960 . S
C986 C985 1.524 . S
C987 C984 1.403 . S
C987 C988 1.392 . S
C987 C991 1.495 . S
C988 C987 1.392 . S
C988 C989 1.385 . S
C988 C990 1.478 . S
C989 H983 0.930 . S
C989 C985 1.400 . S
C989 C988 1.385 . S
C990 C988 1.478 . S
C990 C992 1.381 . S
C990 C996 1.383 . S
C991 C987 1.495 . S
C991 H997 0.959 . S
C991 H998 0.961 . S
C991 H999 0.960 . S
C992 C990 1.381 . S
C992 C993 1.394 . S
C992 H1000 0.930 . S
C993 C992 1.394 . S
C993 C994 1.383 . S
C993 H1001 0.929 . S
C994 C993 1.383 . S
C994 C995 1.377 . S
C995 H979 0.930 . S
C995 C994 1.377 . S
C995 C996 1.379 . S
C996 H980 0.931 . S
C996 C990 1.383 . S
C996 C995 1.379 . S
H997 C991 0.959 . S
H998 C991 0.961 . S
H999 C991 0.960 . S
H1000 C992 0.930 . S
H1001 C993 0.929 . S
H1002 C1010 0.929 . S
H1003 C1012 0.930 . S
H1004 C1014 0.930 . S
H1005 C1017 0.929 . S
H1006 C1020 0.930 . S
H1007 C1022 0.960 . S
H1008 C1022 0.960 . S
H1009 C1022 0.960 . S
C1010 H1002 0.929 . S
C1010 C1011 1.377 . S
C1010 C1012 1.384 . S
C1011 C1010 1.377 . S
C1011 C1017 1.390 . S
C1012 H1003 0.930 . S
C1012 C1010 1.384 . S
C1012 C1013 1.372 . S
C1013 C1012 1.372 . S
C1013 C1014 1.400 . S
C1013 C1018 1.490 . S
C1014 H1004 0.930 . S
C1014 C1013 1.400 . S
C1014 C1017 1.386 . S
H1015 C1031 0.930 . S
H1016 C1032 0.931 . S
C1017 H1005 0.929 . S
C1017 C1011 1.390 . S
C1017 C1014 1.386 . S
C1018 C1013 1.490 . S
C1018 C1020 1.395 . S
C1018 C1021 1.403 . S
H1019 C1025 0.930 . S
C1020 H1006 0.930 . S
C1020 C1018 1.395 . S
C1020 C1023 1.403 . S
C1021 C1018 1.403 . S
C1021 C1022 1.524 . S
C1021 C1025 1.400 . S
C1022 H1007 0.960 . S
C1022 H1008 0.960 . S
C1022 H1009 0.960 . S
C1022 C1021 1.524 . S
C1023 C1020 1.403 . S
C1023 C1024 1.392 . S
C1023 C1027 1.495 . S
C1024 C1023 1.392 . S
C1024 C1025 1.385 . S
C1024 C1026 1.478 . S
C1025 H1019 0.930 . S
C1025 C1021 1.400 . S
C1025 C1024 1.385 . S
C1026 C1024 1.478 . S
C1026 C1028 1.381 . S
C1026 C1032 1.383 . S
C1027 C1023 1.495 . S
C1027 H1033 0.959 . S
C1027 H1034 0.961 . S
C1027 H1035 0.960 . S
C1028 C1026 1.381 . S
C1028 C1029 1.394 . S
C1028 H1036 0.930 . S
C1029 C1028 1.394 . S
C1029 C1030 1.383 . S
C1029 H1037 0.929 . S
C1030 C1029 1.383 . S
C1030 C1031 1.377 . S
C1031 H1015 0.930 . S
C1031 C1030 1.377 . S
C1031 C1032 1.379 . S
C1032 H1016 0.931 . S
C1032 C1026 1.383 . S
C1032 C1031 1.379 . S
H1033 C1027 0.959 . S
H1034 C1027 0.961 . S
H1035 C1027 0.960 . S
H1036 C1028 0.930 . S
H1037 C1029 0.929 . S
H1038 C1046 0.929 . S
H1039 C1048 0.930 . S
H1040 C1050 0.930 . S
H1041 C1053 0.929 . S
H1042 C1056 0.930 . S
H1043 C1058 0.960 . S
H1044 C1058 0.960 . S
H1045 C1058 0.960 . S
C1046 H1038 0.929 . S
C1046 C1047 1.377 . S
C1046 C1048 1.384 . S
C1047 C1046 1.377 . S
C1047 C1053 1.390 . S
C1048 H1039 0.930 . S
C1048 C1046 1.384 . S
C1048 C1049 1.372 . S
C1049 C1048 1.372 . S
C1049 C1050 1.400 . S
C1049 C1054 1.490 . S
C1050 H1040 0.930 . S
C1050 C1049 1.400 . S
C1050 C1053 1.386 . S
H1051 C1067 0.930 . S
H1052 C1068 0.931 . S
C1053 H1041 0.929 . S
C1053 C1047 1.390 . S
C1053 C1050 1.386 . S
C1054 C1049 1.490 . S
C1054 C1056 1.395 . S
C1054 C1057 1.403 . S
H1055 C1061 0.930 . S
C1056 H1042 0.930 . S
C1056 C1054 1.395 . S
C1056 C1059 1.403 . S
C1057 C1054 1.403 . S
C1057 C1058 1.524 . S
C1057 C1061 1.400 . S
C1058 H1043 0.960 . S
C1058 H1044 0.960 . S
C1058 H1045 0.960 . S
C1058 C1057 1.524 . S
C1059 C1056 1.403 . S
C1059 C1060 1.392 . S
C1059 C1063 1.495 . S
C1060 C1059 1.392 . S
C1060 C1061 1.385 . S
C1060 C1062 1.478 . S
C1061 H1055 0.930 . S
C1061 C1057 1.400 . S
C1061 C1060 1.385 . S
C1062 C1060 1.478 . S
C1062 C1064 1.381 . S
C1062 C1068 1.383 . S
C1063 C1059 1.495 . S
C1063 H1069 0.959 . S
C1063 H1070 0.961 . S
C1063 H1071 0.960 . S
C1064 C1062 1.381 . S
C1064 C1065 1.394 . S
C1064 H1072 0.930 . S
C1065 C1064 1.394 . S
C1065 C1066 1.383 . S
C1065 H1073 0.929 . S
C1066 C1065 1.383 . S
C1066 C1067 1.377 . S
C1067 H1051 0.930 . S
C1067 C1066 1.377 . S
C1067 C1068 1.379 . S
C1068 H1052 0.931 . S
C1068 C1062 1.383 . S
C1068 C1067 1.379 . S
H1069 C1063 0.959 . S
H1070 C1063 0.961 . S
H1071 C1063 0.960 . S
H1072 C1064 0.930 . S
H1073 C1065 0.929 . S
H1074 C1082 0.929 . S
H1075 C1084 0.930 . S
H1076 C1086 0.930 . S
H1077 C1089 0.929 . S
H1078 C1092 0.930 . S
H1079 C1094 0.960 . S
H1080 C1094 0.960 . S
H1081 C1094 0.960 . S
C1082 H1074 0.929 . S
C1082 C1083 1.377 . S
C1082 C1084 1.384 . S
C1083 C1082 1.377 . S
C1083 C1089 1.390 . S
C1084 H1075 0.930 . S
C1084 C1082 1.384 . S
C1084 C1085 1.372 . S
C1085 C1084 1.372 . S
C1085 C1086 1.400 . S
C1085 C1090 1.490 . S
C1086 H1076 0.930 . S
C1086 C1085 1.400 . S
C1086 C1089 1.386 . S
H1087 C1103 0.930 . S
H1088 C1104 0.931 . S
C1089 H1077 0.929 . S
C1089 C1083 1.390 . S
C1089 C1086 1.386 . S
C1090 C1085 1.490 . S
C1090 C1092 1.395 . S
C1090 C1093 1.403 . S
H1091 C1097 0.930 . S
C1092 H1078 0.930 . S
C1092 C1090 1.395 . S
C1092 C1095 1.403 . S
C1093 C1090 1.403 . S
C1093 C1094 1.524 . S
C1093 C1097 1.400 . S
C1094 H1079 0.960 . S
C1094 H1080 0.960 . S
C1094 H1081 0.960 . S
C1094 C1093 1.524 . S
C1095 C1092 1.403 . S
C1095 C1096 1.392 . S
C1095 C1099 1.495 . S
C1096 C1095 1.392 . S
C1096 C1097 1.385 . S
C1096 C1098 1.478 . S
C1097 H1091 0.930 . S
C1097 C1093 1.400 . S
C1097 C1096 1.385 . S
C1098 C1096 1.478 . S
C1098 C1100 1.381 . S
C1098 C1104 1.383 . S
C1099 C1095 1.495 . S
C1099 H1105 0.959 . S
C1099 H1106 0.961 . S
C1099 H1107 0.960 . S
C1100 C1098 1.381 . S
C1100 C1101 1.394 . S
C1100 H1108 0.930 . S
C1101 C1100 1.394 . S
C1101 C1102 1.383 . S
C1101 H1109 0.929 . S
C1102 C1101 1.383 . S
C1102 C1103 1.377 . S
C1103 H1087 0.930 . S
C1103 C1102 1.377 . S
C1103 C1104 1.379 . S
C1104 H1088 0.931 . S
C1104 C1098 1.383 . S
C1104 C1103 1.379 . S
H1105 C1099 0.959 . S
H1106 C1099 0.961 . S
H1107 C1099 0.960 . S
H1108 C1100 0.930 . S
H1109 C1101 0.929 . S
H1110 C1118 0.929 . S
H1111 C1120 0.930 . S
H1112 C1122 0.930 . S
H1113 C1125 0.929 . S
H1114 C1128 0.930 . S
H1115 C1130 0.960 . S
H1116 C1130 0.960 . S
H1117 C1130 0.960 . S
C1118 H1110 0.929 . S
C1118 C1119 1.377 . S
C1118 C1120 1.384 . S
C1119 C1118 1.377 . S
C1119 C1125 1.390 . S
C1120 H1111 0.930 . S
C1120 C1118 1.384 . S
C1120 C1121 1.372 . S
C1121 C1120 1.372 . S
C1121 C1122 1.400 . S
C1121 C1126 1.490 . S
C1122 H1112 0.930 . S
C1122 C1121 1.400 . S
C1122 C1125 1.386 . S
H1123 C1139 0.930 . S
H1124 C1140 0.931 . S
C1125 H1113 0.929 . S
C1125 C1119 1.390 . S
C1125 C1122 1.386 . S
C1126 C1121 1.490 . S
C1126 C1128 1.395 . S
C1126 C1129 1.403 . S
H1127 C1133 0.930 . S
C1128 H1114 0.930 . S
C1128 C1126 1.395 . S
C1128 C1131 1.403 . S
C1129 C1126 1.403 . S
C1129 C1130 1.524 . S
C1129 C1133 1.400 . S
C1130 H1115 0.960 . S
C1130 H1116 0.960 . S
C1130 H1117 0.960 . S
C1130 C1129 1.524 . S
C1131 C1128 1.403 . S
C1131 C1132 1.392 . S
C1131 C1135 1.495 . S
C1132 C1131 1.392 . S
C1132 C1133 1.385 . S
C1132 C1134 1.478 . S
C1133 H1127 0.930 . S
C1133 C1129 1.400 . S
C1133 C1132 1.385 . S
C1134 C1132 1.478 . S
C1134 C1136 1.381 . S
C1134 C1140 1.383 . S
C1135 C1131 1.495 . S
C1135 H1141 0.959 . S
C1135 H1142 0.961 . S
C1135 H1143 0.960 . S
C1136 C1134 1.381 . S
C1136 C1137 1.394 . S
C1136 H1144 0.930 . S
C1137 C1136 1.394 . S
C1137 C1138 1.383 . S
C1137 H1145 0.929 . S
C1138 C1137 1.383 . S
C1138 C1139 1.377 . S
C1139 H1123 0.930 . S
C1139 C1138 1.377 . S
C1139 C1140 1.379 . S
C1140 H1124 0.931 . S
C1140 C1134 1.383 . S
C1140 C1139 1.379 . S
H1141 C1135 0.959 . S
H1142 C1135 0.961 . S
H1143 C1135 0.960 . S
H1144 C1136 0.930 . S
H1145 C1137 0.929 . S
H1146 C1154 0.929 . S
H1147 C1156 0.930 . S
H1148 C1158 0.930 . S
H1149 C1161 0.929 . S
H1150 C1164 0.930 . S
H1151 C1166 0.960 . S
H1152 C1166 0.960 . S
H1153 C1166 0.960 . S
C1154 H1146 0.929 . S
C1154 C1155 1.377 . S
C1154 C1156 1.384 . S
C1155 C1154 1.377 . S
C1155 C1161 1.390 . S
C1156 H1147 0.930 . S
C1156 C1154 1.384 . S
C1156 C1157 1.372 . S
C1157 C1156 1.372 . S
C1157 C1158 1.400 . S
C1157 C1162 1.490 . S
C1158 H1148 0.930 . S
C1158 C1157 1.400 . S
C1158 C1161 1.386 . S
H1159 C1175 0.930 . S
H1160 C1176 0.931 . S
C1161 H1149 0.929 . S
C1161 C1155 1.390 . S
C1161 C1158 1.386 . S
C1162 C1157 1.490 . S
C1162 C1164 1.395 . S
C1162 C1165 1.403 . S
H1163 C1169 0.930 . S
C1164 H1150 0.930 . S
C1164 C1162 1.395 . S
C1164 C1167 1.403 . S
C1165 C1162 1.403 . S
C1165 C1166 1.524 . S
C1165 C1169 1.400 . S
C1166 H1151 0.960 . S
C1166 H1152 0.960 . S
C1166 H1153 0.960 . S
C1166 C1165 1.524 . S
C1167 C1164 1.403 . S
C1167 C1168 1.392 . S
C1167 C1171 1.495 . S
C1168 C1167 1.392 . S
C1168 C1169 1.385 . S
C1168 C1170 1.478 . S
C1169 H1163 0.930 . S
C1169 C1165 1.400 . S
C1169 C1168 1.385 . S
C1170 C1168 1.478 . S
C1170 C1172 1.381 . S
C1170 C1176 1.383 . S
C1171 C1167 1.495 . S
C1171 H1177 0.959 . S
C1171 H1178 0.961 . S
C1171 H1179 0.960 . S
C1172 C1170 1.381 . S
C1172 C1173 1.394 . S
C1172 H1180 0.930 . S
C1173 C1172 1.394 . S
C1173 C1174 1.383 . S
C1173 H1181 0.929 . S
C1174 C1173 1.383 . S
C1174 C1175 1.377 . S
C1175 H1159 0.930 . S
C1175 C1174 1.377 . S
C1175 C1176 1.379 . S
C1176 H1160 0.931 . S
C1176 C1170 1.383 . S
C1176 C1175 1.379 . S
H1177 C1171 0.959 . S
H1178 C1171 0.961 . S
H1179 C1171 0.960 . S
H1180 C1172 0.930 . S
H1181 C1173 0.929 . S
H1182 C1190 0.929 . S
H1183 C1192 0.930 . S
H1184 C1194 0.930 . S
H1185 C1197 0.929 . S
H1186 C1200 0.930 . S
H1187 C1202 0.960 . S
H1188 C1202 0.960 . S
H1189 C1202 0.960 . S
C1190 H1182 0.929 . S
C1190 C1191 1.377 . S
C1190 C1192 1.384 . S
C1191 C1190 1.377 . S
C1191 C1197 1.390 . S
C1192 H1183 0.930 . S
C1192 C1190 1.384 . S
C1192 C1193 1.372 . S
C1193 C1192 1.372 . S
C1193 C1194 1.400 . S
C1193 C1198 1.490 . S
C1194 H1184 0.930 . S
C1194 C1193 1.400 . S
C1194 C1197 1.386 . S
H1195 C1211 0.930 . S
H1196 C1212 0.931 . S
C1197 H1185 0.929 . S
C1197 C1191 1.390 . S
C1197 C1194 1.386 . S
C1198 C1193 1.490 . S
C1198 C1200 1.395 . S
C1198 C1201 1.403 . S
H1199 C1205 0.930 . S
C1200 H1186 0.930 . S
C1200 C1198 1.395 . S
C1200 C1203 1.403 . S
C1201 C1198 1.403 . S
C1201 C1202 1.524 . S
C1201 C1205 1.400 . S
C1202 H1187 0.960 . S
C1202 H1188 0.960 . S
C1202 H1189 0.960 . S
C1202 C1201 1.524 . S
C1203 C1200 1.403 . S
C1203 C1204 1.392 . S
C1203 C1207 1.495 . S
C1204 C1203 1.392 . S
C1204 C1205 1.385 . S
C1204 C1206 1.478 . S
C1205 H1199 0.930 . S
C1205 C1201 1.400 . S
C1205 C1204 1.385 . S
C1206 C1204 1.478 . S
C1206 C1208 1.381 . S
C1206 C1212 1.383 . S
C1207 C1203 1.495 . S
C1207 H1213 0.959 . S
C1207 H1214 0.961 . S
C1207 H1215 0.960 . S
C1208 C1206 1.381 . S
C1208 C1209 1.394 . S
C1208 H1216 0.930 . S
C1209 C1208 1.394 . S
C1209 C1210 1.383 . S
C1209 H1217 0.929 . S
C1210 C1209 1.383 . S
C1210 C1211 1.377 . S
C1211 H1195 0.930 . S
C1211 C1210 1.377 . S
C1211 C1212 1.379 . S
C1212 H1196 0.931 . S
C1212 C1206 1.383 . S
C1212 C1211 1.379 . S
H1213 C1207 0.959 . S
H1214 C1207 0.961 . S
H1215 C1207 0.960 . S
H1216 C1208 0.930 . S
H1217 C1209 0.929 . S
H1218 C1226 0.929 . S
H1219 C1228 0.930 . S
H1220 C1230 0.930 . S
H1221 C1233 0.929 . S
H1222 C1236 0.930 . S
H1223 C1238 0.960 . S
H1224 C1238 0.960 . S
H1225 C1238 0.960 . S
C1226 H1218 0.929 . S
C1226 C1227 1.377 . S
C1226 C1228 1.384 . S
C1227 C1226 1.377 . S
C1227 C1233 1.390 . S
C1228 H1219 0.930 . S
C1228 C1226 1.384 . S
C1228 C1229 1.372 . S
C1229 C1228 1.372 . S
C1229 C1230 1.400 . S
C1229 C1234 1.490 . S
C1230 H1220 0.930 . S
C1230 C1229 1.400 . S
C1230 C1233 1.386 . S
H1231 C1247 0.930 . S
H1232 C1248 0.931 . S
C1233 H1221 0.929 . S
C1233 C1227 1.390 . S
C1233 C1230 1.386 . S
C1234 C1229 1.490 . S
C1234 C1236 1.395 . S
C1234 C1237 1.403 . S
H1235 C1241 0.930 . S
C1236 H1222 0.930 . S
C1236 C1234 1.395 . S
C1236 C1239 1.403 . S
C1237 C1234 1.403 . S
C1237 C1238 1.524 . S
C1237 C1241 1.400 . S
C1238 H1223 0.960 . S
C1238 H1224 0.960 . S
C1238 H1225 0.960 . S
C1238 C1237 1.524 . S
C1239 C1236 1.403 . S
C1239 C1240 1.392 . S
C1239 C1243 1.495 . S
C1240 C1239 1.392 . S
C1240 C1241 1.385 . S
C1240 C1242 1.478 . S
C1241 H1235 0.930 . S
C1241 C1237 1.400 . S
C1241 C1240 1.385 . S
C1242 C1240 1.478 . S
C1242 C1244 1.381 . S
C1242 C1248 1.383 . S
C1243 C1239 1.495 . S
C1243 H1249 0.959 . S
C1243 H1250 0.961 . S
C1243 H1251 0.960 . S
C1244 C1242 1.381 . S
C1244 C1245 1.394 . S
C1244 H1252 0.930 . S
C1245 C1244 1.394 . S
C1245 C1246 1.383 . S
C1245 H1253 0.929 . S
C1246 C1245 1.383 . S
C1246 C1247 1.377 . S
C1247 H1231 0.930 . S
C1247 C1246 1.377 . S
C1247 C1248 1.379 . S
C1248 H1232 0.931 . S
C1248 C1242 1.383 . S
C1248 C1247 1.379 . S
H1249 C1243 0.959 . S
H1250 C1243 0.961 . S
H1251 C1243 0.960 . S
H1252 C1244 0.930 . S
H1253 C1245 0.929 . S
H1254 C1262 0.929 . S
H1255 C1264 0.930 . S
H1256 C1266 0.930 . S
H1257 C1269 0.929 . S
H1258 C1272 0.930 . S
H1259 C1274 0.960 . S
H1260 C1274 0.960 . S
H1261 C1274 0.960 . S
C1262 H1254 0.929 . S
C1262 C1263 1.377 . S
C1262 C1264 1.384 . S
C1263 C1262 1.377 . S
C1263 C1269 1.390 . S
C1264 H1255 0.930 . S
C1264 C1262 1.384 . S
C1264 C1265 1.372 . S
C1265 C1264 1.372 . S
C1265 C1266 1.400 . S
C1265 C1270 1.490 . S
C1266 H1256 0.930 . S
C1266 C1265 1.400 . S
C1266 C1269 1.386 . S
H1267 C1283 0.930 . S
H1268 C1284 0.931 . S
C1269 H1257 0.929 . S
C1269 C1263 1.390 . S
C1269 C1266 1.386 . S
C1270 C1265 1.490 . S
C1270 C1272 1.395 . S
C1270 C1273 1.403 . S
H1271 C1277 0.930 . S
C1272 H1258 0.930 . S
C1272 C1270 1.395 . S
C1272 C1275 1.403 . S
C1273 C1270 1.403 . S
C1273 C1274 1.524 . S
C1273 C1277 1.400 . S
C1274 H1259 0.960 . S
C1274 H1260 0.960 . S
C1274 H1261 0.960 . S
C1274 C1273 1.524 . S
C1275 C1272 1.403 . S
C1275 C1276 1.392 . S
C1275 C1279 1.495 . S
C1276 C1275 1.392 . S
C1276 C1277 1.385 . S
C1276 C1278 1.478 . S
C1277 H1271 0.930 . S
C1277 C1273 1.400 . S
C1277 C1276 1.385 . S
C1278 C1276 1.478 . S
C1278 C1280 1.381 . S
C1278 C1284 1.383 . S
C1279 C1275 1.495 . S
C1279 H1285 0.959 . S
C1279 H1286 0.961 . S
C1279 H1287 0.960 . S
C1280 C1278 1.381 . S
C1280 C1281 1.394 . S
C1280 H1288 0.930 . S
C1281 C1280 1.394 . S
C1281 C1282 1.383 . S
C1281 H1289 0.929 . S
C1282 C1281 1.383 . S
C1282 C1283 1.377 . S
C1283 H1267 0.930 . S
C1283 C1282 1.377 . S
C1283 C1284 1.379 . S
C1284 H1268 0.931 . S
C1284 C1278 1.383 . S
C1284 C1283 1.379 . S
H1285 C1279 0.959 . S
H1286 C1279 0.961 . S
H1287 C1279 0.960 . S
H1288 C1280 0.930 . S
H1289 C1281 0.929 . S
C435 C7 1.856 . S
C454 C159 1.839 . S
C471 C30 1.619 . S
C490 C216 1.611 . S
C526 C270 1.701 . S
C507 N58 1.702 . S
C562 C327 1.438 . S
C543 N81 1.450 . S
C598 C351 1.746 . S
C579 C99 1.753 . S
C634 C408 1.513 . S
C615 N127 1.480 . S
C651 N25 1.700 . S
C670 C255 1.717 . S
C687 C62 1.602 . S
C706 C312 1.598 . S
C742 C366 1.789 . S
C723 C85 1.798 . S
C778 C423 1.463 . S
C759 N94 1.492 . S
C795 C131 1.794 . S
C814 C174 1.775 . S
C850 C231 1.478 . S
C831 N2 1.465 . S
C886 C318 1.787 . S
C867 C16 1.802 . S
C903 C39 1.575 . S
C922 C360 1.523 . S
C958 C399 1.698 . S
C939 N48 1.690 . S
C975 N71 1.455 . S
C994 C168 1.467 . S
C1011 C108 1.764 . S
C1030 C207 1.757 . S
C1047 N117 1.481 . S
C1066 C279 1.529 . S
C1083 N35 1.693 . S
C1102 C414 1.712 . S
C1138 C183 1.621 . S
C1119 C53 1.618 . S
C1155 C76 1.841 . S
C1174 C222 1.837 . S
C1191 N104 1.470 . S
C1210 C264 1.481 . S
C1227 C122 1.750 . S
C1246 C303 1.728 . S
C1263 N12 1.427 . S
C1282 C375 1.461 . S
