# Generated by pormake.
# Topology pyr, (3,6)-cn, num edge types: 1
# Building blocks:
#     Node 0, Type 0, BuildingBlock: PAMTOO_clean_linker_0, # of connection points: 3
#     Node 1, Type 0, BuildingBlock: PAMTOO_clean_linker_0, # of connection points: 3
#     Node 2, Type 0, BuildingBlock: PAMTOO_clean_linker_0, # of connection points: 3
#     Node 3, Type 0, BuildingBlock: PAMTOO_clean_linker_0, # of connection points: 3
#     Node 4, Type 0, BuildingBlock: PAMTOO_clean_linker_0, # of connection points: 3
#     Node 5, Type 0, BuildingBlock: PAMTOO_clean_linker_0, # of connection points: 3
#     Node 6, Type 0, BuildingBlock: PAMTOO_clean_linker_0, # of connection points: 3
#     Node 7, Type 0, BuildingBlock: PAMTOO_clean_linker_0, # of connection points: 3
#     Node 8, Type 1, BuildingBlock: BETDAH_clean_sbu_0, # of connection points: 6
#     Node 9, Type 1, BuildingBlock: BETDAH_clean_sbu_0, # of connection points: 6
#     Node 10, Type 1, BuildingBlock: BETDAH_clean_sbu_0, # of connection points: 6
#     Node 11, Type 1, BuildingBlock: BETDAH_clean_sbu_0, # of connection points: 6
#     Edge 12, Type (0, 1), BuildingBlock: TEMPAE_clean_linker_10, # of connection points: 2
#     Edge 13, Type (0, 1), BuildingBlock: TEMPAE_clean_linker_10, # of connection points: 2
#     Edge 14, Type (0, 1), BuildingBlock: TEMPAE_clean_linker_10, # of connection points: 2
#     Edge 15, Type (0, 1), BuildingBlock: TEMPAE_clean_linker_10, # of connection points: 2
#     Edge 16, Type (0, 1), BuildingBlock: TEMPAE_clean_linker_10, # of connection points: 2
#     Edge 17, Type (0, 1), BuildingBlock: TEMPAE_clean_linker_10, # of connection points: 2
#     Edge 18, Type (0, 1), BuildingBlock: TEMPAE_clean_linker_10, # of connection points: 2
#     Edge 19, Type (0, 1), BuildingBlock: TEMPAE_clean_linker_10, # of connection points: 2
#     Edge 20, Type (0, 1), BuildingBlock: TEMPAE_clean_linker_10, # of connection points: 2
#     Edge 21, Type (0, 1), BuildingBlock: TEMPAE_clean_linker_10, # of connection points: 2
#     Edge 22, Type (0, 1), BuildingBlock: TEMPAE_clean_linker_10, # of connection points: 2
#     Edge 23, Type (0, 1), BuildingBlock: TEMPAE_clean_linker_10, # of connection points: 2
#     Edge 24, Type (0, 1), BuildingBlock: TEMPAE_clean_linker_10, # of connection points: 2
#     Edge 25, Type (0, 1), BuildingBlock: TEMPAE_clean_linker_10, # of connection points: 2
#     Edge 26, Type (0, 1), BuildingBlock: TEMPAE_clean_linker_10, # of connection points: 2
#     Edge 27, Type (0, 1), BuildingBlock: TEMPAE_clean_linker_10, # of connection points: 2
#     Edge 28, Type (0, 1), BuildingBlock: TEMPAE_clean_linker_10, # of connection points: 2
#     Edge 29, Type (0, 1), BuildingBlock: TEMPAE_clean_linker_10, # of connection points: 2
#     Edge 30, Type (0, 1), BuildingBlock: TEMPAE_clean_linker_10, # of connection points: 2
#     Edge 31, Type (0, 1), BuildingBlock: TEMPAE_clean_linker_10, # of connection points: 2
#     Edge 32, Type (0, 1), BuildingBlock: TEMPAE_clean_linker_10, # of connection points: 2
#     Edge 33, Type (0, 1), BuildingBlock: TEMPAE_clean_linker_10, # of connection points: 2
#     Edge 34, Type (0, 1), BuildingBlock: TEMPAE_clean_linker_10, # of connection points: 2
#     Edge 35, Type (0, 1), BuildingBlock: TEMPAE_clean_linker_10, # of connection points: 2
# Relax obj value: 0.175
# Max RMSD: 0.225
# Mean RMSD: 0.150
data_MOF--net-pyr--node1-BETDAH_clean_sbu_0--node2-PAMTOO_clean_linker_0--edge1-TEMPAE_clean_linker_10
_symmetry_space_group_name_H-M    P1
_symmetry_Int_Tables_number       1
_symmetry_cell_setting            triclinic
loop_
_symmetry_equiv_pos_as_xyz
'x, y, z'
_cell_length_a     37.686875
_cell_length_b     41.210355
_cell_length_c     36.098949
_cell_angle_alpha  91.774283
_cell_angle_beta   89.406258
_cell_angle_gamma 106.75502
loop_
_atom_site_label
_atom_site_type_symbol
_atom_site_fract_x
_atom_site_fract_y
_atom_site_fract_z
_atom_type_partial_charge
H0 H 0.32051 0.33372 0.26079 0.0
H1 H 0.38359 0.26268 0.26974 0.0
H2 H 0.40505 0.33156 0.18012 0.0
H3 H 0.46036 0.29139 0.25102 0.0
C4 C 0.45799 0.28758 0.22035 0.0
O5 O 0.42167 0.2807 0.20929 0.0
H6 H 0.4749 0.31122 0.20742 0.0
C7 C 0.34339 0.32457 0.25137 0.0
C8 C 0.36234 0.33679 0.21853 0.0
C9 C 0.35095 0.29806 0.27019 0.0
C10 C 0.37821 0.28392 0.25627 0.0
C11 C 0.39796 0.29647 0.22423 0.0
C12 C 0.39033 0.32297 0.20557 0.0
H13 H 0.27407 0.91372 0.68616 0.0
H14 H 0.23893 0.85863 0.58361 0.0
H15 H 0.30763 0.8244 0.65808 0.0
H16 H 0.31192 0.84707 0.5592 0.0
C17 C 0.29956 0.81951 0.56407 0.0
O18 O 0.27472 0.81412 0.59322 0.0
H19 H 0.28438 0.80849 0.53829 0.0
C20 C 0.2736 0.89247 0.6675 0.0
C21 C 0.29273 0.8692 0.67685 0.0
C22 C 0.25393 0.88877 0.63418 0.0
C23 C 0.25357 0.86159 0.60975 0.0
C24 C 0.27356 0.83896 0.61808 0.0
C25 C 0.29285 0.84251 0.65167 0.0
H26 H 0.7403 0.33997 0.94758 0.0
H27 H 0.6578 0.32271 0.86159 0.0
H28 H 0.74453 0.41689 0.86821 0.0
H29 H 0.67045 0.42246 0.85367 0.0
C30 C 0.66042 0.40079 0.83355 0.0
O31 O 0.68575 0.38221 0.83115 0.0
H32 H 0.63374 0.38434 0.84434 0.0
C33 C 0.72881 0.34861 0.92369 0.0
C34 C 0.74631 0.38109 0.91033 0.0
C35 C 0.69696 0.32701 0.90642 0.0
C36 C 0.68214 0.33885 0.8755 0.0
C37 C 0.69933 0.37128 0.8617 0.0
C38 C 0.73146 0.39203 0.87901 0.0
H39 H 0.87521 0.75072 0.44552 0.0
H40 H 0.87798 0.66691 0.37215 0.0
H41 H 0.96239 0.76192 0.36466 0.0
H42 H 0.94253 0.72822 0.2907 0.0
C43 C 0.9296 0.70182 0.29956 0.0
O44 O 0.9377 0.69956 0.33665 0.0
H45 H 0.8991 0.69635 0.29604 0.0
C46 C 0.88813 0.74013 0.42319 0.0
C47 C 0.92087 0.76072 0.40715 0.0
C48 C 0.87203 0.70614 0.41125 0.0
C49 C 0.88914 0.693 0.38173 0.0
C50 C 0.92141 0.71309 0.36469 0.0
C51 C 0.93737 0.74673 0.37775 0.0
H52 H 0.72586 0.84364 0.86904 0.0
H53 H 0.68857 0.81439 0.9799 0.0
H54 H 0.77949 0.78508 0.93304 0.0
H55 H 0.70644 0.73432 0.97556 0.0
C56 C 0.72632 0.74833 0.99727 0.0
O57 O 0.73711 0.78271 0.99126 0.0
H58 H 0.71179 0.74378 1.02436 0.0
C59 C 0.72713 0.82996 0.89391 0.0
C60 C 0.75498 0.8137 0.89708 0.0
C61 C 0.70316 0.83112 0.92379 0.0
C62 C 0.70557 0.81319 0.95582 0.0
C63 C 0.73258 0.79631 0.95876 0.0
C64 C 0.75755 0.79693 0.92973 0.0
H65 H 0.84515 0.19203 0.44675 0.0
H66 H 0.82825 0.29103 0.45601 0.0
H67 H 0.89453 0.26076 0.53653 0.0
H68 H 0.86804 0.3329 0.5668 0.0
C69 C 0.84931 0.31307 0.54874 0.0
O70 O 0.86816 0.30925 0.51669 0.0
H71 H 0.84194 0.28946 0.56494 0.0
C72 C 0.84982 0.21637 0.46118 0.0
C73 C 0.87122 0.22319 0.49356 0.0
C74 C 0.83461 0.24081 0.44706 0.0
C75 C 0.84006 0.272 0.46632 0.0
C76 C 0.86203 0.27911 0.49835 0.0
C77 C 0.87797 0.255 0.5115 0.0
H78 H 0.37479 0.76187 0.17391 0.0
H79 H 0.37293 0.68274 0.24953 0.0
H80 H 0.45955 0.77693 0.25759 0.0
H81 H 0.48348 0.71538 0.2715 0.0
C82 C 0.45767 0.69916 0.28422 0.0
O83 O 0.43188 0.7172 0.28704 0.0
H84 H 0.44691 0.67653 0.26552 0.0
C85 C 0.38686 0.75288 0.19719 0.0
C86 C 0.41958 0.77378 0.21378 0.0
C87 C 0.37006 0.71995 0.2096 0.0
C88 C 0.38591 0.70789 0.23941 0.0
C89 C 0.41807 0.72844 0.25685 0.0
C90 C 0.43492 0.76117 0.2438 0.0
H91 H 0.13257 0.3451 0.79693 0.0
H92 H 0.22092 0.4389 0.78897 0.0
H93 H 0.21787 0.35689 0.71328 0.0
H94 H 0.29061 0.39564 0.7502 0.0
C95 C 0.28853 0.42134 0.74396 0.0
O96 O 0.25304 0.41897 0.7322 0.0
H97 H 0.29445 0.43705 0.77 0.0
C98 C 0.15762 0.3603 0.78394 0.0
C99 C 0.17354 0.34596 0.75406 0.0
C100 C 0.17403 0.39428 0.79689 0.0
C101 C 0.20684 0.41331 0.7794 0.0
C102 C 0.22238 0.39971 0.74956 0.0
C103 C 0.20569 0.36647 0.73698 0.0
Ho104 Ho 0.05535 0.07154 0.54364 0.0
Ho105 Ho 0.04533 1.03415 0.61755 0.0
C106 C 0.0771 0.11474 0.62209 0.0
C107 C 0.05465 0.11065 0.4893 0.0
C108 C 0.08273 0.13903 0.47301 0.0
C109 C 0.08273 0.14306 0.43467 0.0
C110 C 0.11246 0.16616 0.41764 0.0
C111 C 0.14272 0.1858 0.43874 0.0
C112 C 0.14173 0.18277 0.47749 0.0
C113 C 0.11207 0.15941 0.49447 0.0
C114 C 0.11408 0.05144 0.5645 0.0
C115 C 0.02354 0.99091 0.53921 0.0
C116 C 0.04413 0.99391 0.67131 0.0
C117 C 1.01457 0.96563 0.6857 0.0
C118 C 0.02211 0.94533 0.71323 0.0
C119 C 0.99303 0.92104 0.72997 0.0
C120 C 0.95617 0.91716 0.71953 0.0
C121 C 0.94899 0.93643 0.69065 0.0
C122 C 0.978 0.96036 0.67371 0.0
C123 C 0.98663 0.05394 0.5951 0.0
O124 O 0.06584 0.11436 0.58728 0.0
O125 O 0.078 0.08639 0.63799 0.0
O126 O 0.06149 0.08142 0.48526 0.0
O127 O 0.04299 0.11574 0.52265 0.0
O128 O 0.10629 0.05512 0.53035 0.0
O129 O 0.09316 0.06241 0.58551 0.0
O130 O 0.03491 0.99128 0.57396 0.0
O131 O 0.02267 1.01928 0.52338 0.0
O132 O 0.03833 1.02357 0.6757 0.0
O133 O 0.05627 0.98912 0.63814 0.0
O134 O 0.99446 0.05176 0.62959 0.0
O135 O 1.00797 1.04257 0.57534 0.0
H136 H 0.06052 0.1272 0.41767 0.0
H137 H 0.1125 0.16737 0.38771 0.0
H138 H 0.16431 0.19781 0.49459 0.0
H139 H 0.11272 0.15642 0.52415 0.0
H140 H 0.05025 0.9491 0.72267 0.0
H141 H 0.99916 0.90661 0.75237 0.0
H142 H 0.9208 0.93372 0.68204 0.0
H143 H 0.9718 0.97572 0.65226 0.0
Ho144 Ho 0.5985 0.06042 0.08461 0.0
Ho145 Ho 0.52923 1.04017 1.04043 0.0
C146 C 0.53532 0.09116 0.112 0.0
C147 C 0.66378 0.08387 0.1133 0.0
C148 C 0.67864 0.10492 0.14644 0.0
C149 C 0.66585 0.13257 0.15766 0.0
C150 C 0.67888 0.15093 0.19049 0.0
C151 C 0.70442 0.14155 0.21282 0.0
C152 C 0.71729 0.11405 0.20132 0.0
C153 C 0.70459 0.09598 0.1684 0.0
C154 C 0.54542 1.00668 0.11151 0.0
C155 C 0.59347 1.01056 1.01249 0.0
C156 C 0.46403 1.0151 1.01225 0.0
C157 C 0.45122 0.99482 0.97818 0.0
C158 C 0.41598 0.97127 0.97694 0.0
C159 C 0.40356 0.95216 0.94446 0.0
C160 C 0.42618 0.95655 0.91269 0.0
C161 C 0.4618 0.97963 0.91431 0.0
C162 C 0.47434 0.99842 0.94688 0.0
C163 C 0.58198 0.09387 1.01301 0.0
O164 O 0.5713 0.09571 0.11193 0.0
O165 O 0.51293 0.06804 0.08997 0.0
O166 O 0.6418 0.05375 0.11981 0.0
O167 O 0.65173 0.0986 0.08656 0.0
O168 O 0.56622 1.03109 0.13194 0.0
O169 O 0.55415 1.01191 0.07791 0.0
O170 O 0.55749 1.00614 1.01137 0.0
O171 O 0.61525 1.03306 1.03543 0.0
O172 O 0.48417 0.04633 1.00761 0.0
O173 O 0.47739 1.00001 1.03767 0.0
O174 O 0.56086 0.06939 0.99289 0.0
O175 O 0.57359 0.08877 0.04676 0.0
H176 H 0.64545 0.13971 0.14137 0.0
H177 H 0.66839 0.17191 0.19886 0.0
H178 H 0.73732 0.10656 0.21781 0.0
H179 H 0.71466 0.07467 0.1603 0.0
H180 H 0.39795 0.96793 1.00097 0.0
H181 H 0.37587 0.93471 0.94379 0.0
H182 H 0.47985 0.98325 0.89029 0.0
H183 H 0.50196 1.01602 0.94748 0.0
Ho184 Ho 0.56444 0.52681 0.53233 0.0
Ho185 Ho 0.57253 0.58578 0.58437 0.0
C186 C 0.59844 0.52527 0.61546 0.0
C187 C 0.57544 0.47834 0.49072 0.0
C188 C 0.59727 0.45449 0.49533 0.0
C189 C 0.62603 0.46176 0.52138 0.0
C190 C 0.6466 0.43907 0.52622 0.0
C191 C 0.63912 0.40887 0.50474 0.0
C192 C 0.61047 0.40168 0.47841 0.0
C193 C 0.58947 0.42431 0.47393 0.0
C194 C 0.50196 0.52517 0.57107 0.0
C195 C 0.53601 0.58618 0.50265 0.0
C196 C 0.56256 0.63522 0.62486 0.0
C197 C 0.53731 0.65663 0.6228 0.0
C198 C 0.49866 0.64243 0.62478 0.0
C199 C 0.47511 0.6628 0.6213 0.0
C200 C 0.48965 0.69768 0.61553 0.0
C201 C 0.52826 0.71194 0.61383 0.0
C202 C 0.55188 0.6916 0.61764 0.0
C203 C 0.6351 0.5864 0.54585 0.0
O204 O 0.59607 0.51375 0.58057 0.0
O205 O 0.58766 0.55212 0.62501 0.0
O206 O 0.54693 0.47439 0.51279 0.0
O207 O 0.59467 0.51013 0.48817 0.0
O208 O 0.50231 0.51555 0.53651 0.0
O209 O 0.53466 0.53417 0.58335 0.0
O210 O 0.53749 0.59685 0.53783 0.0
O211 O 0.54879 0.56065 0.49245 0.0
O212 O 0.58787 0.6394 0.599 0.0
O213 O 0.54743 0.60328 0.63202 0.0
O214 O 0.63454 0.59582 0.5804 0.0
O215 O 0.6025 0.57851 0.53337 0.0
H216 H 0.63296 0.48519 0.53768 0.0
H217 H 0.669 0.44557 0.54619 0.0
H218 H 0.60428 0.37857 0.4615 0.0
H219 H 0.56734 0.41836 0.45368 0.0
H220 H 0.48647 0.61552 0.62851 0.0
H221 H 0.44543 0.65109 0.62225 0.0
H222 H 0.54016 0.73882 0.60964 0.0
H223 H 0.58157 0.70313 0.61612 0.0
Ho224 Ho 0.06223 0.51103 0.07938 0.0
Ho225 Ho 0.05867 0.5761 1.03769 0.0
C226 C 0.13236 0.57862 0.08623 0.0
C227 C 0.07429 0.45421 0.09349 0.0
C228 C 0.10693 0.44179 0.09677 0.0
C229 C 0.13613 0.44978 0.07098 0.0
C230 C 0.16803 0.43967 0.07663 0.0
C231 C 0.17126 0.42163 0.10828 0.0
C232 C 0.14171 0.41354 0.13375 0.0
C233 C 0.10986 0.42335 0.12791 0.0
C234 C 0.02608 0.5482 0.12189 0.0
C235 C 0.98818 0.51073 1.03458 0.0
C236 C 0.05216 0.6344 1.02026 0.0
C237 C 0.01916 0.64616 1.01689 0.0
C238 C 0.98439 0.62494 1.02706 0.0
C239 C 0.95274 0.63566 1.02391 0.0
C240 C 0.95526 0.66798 1.01072 0.0
C241 C 0.99023 0.68923 1.0005 0.0
C242 C 0.02197 0.67834 1.00355 0.0
C243 C 0.07901 0.52841 0.99622 0.0
O244 O 0.11805 0.5464 0.09479 0.0
O245 O 0.1154 0.59464 0.06417 0.0
O246 O 0.07147 0.47644 0.11917 0.0
O247 O 0.0657 0.46174 0.06036 0.0
O248 O 0.03163 0.52014 0.132 0.0
O249 O 0.03929 0.55327 0.08975 0.0
O250 O 0.99916 0.54431 1.03604 0.0
O251 O 1.00979 0.49256 0.04563 0.0
O252 O 0.05497 0.61129 0.99565 0.0
O253 O 0.05942 0.6272 0.05387 0.0
O254 O 0.05971 0.54727 0.98396 0.0
O255 O 0.08884 0.53743 1.02937 0.0
H256 H 0.13458 0.46422 0.04684 0.0
H257 H 0.19012 0.44605 0.05633 0.0
H258 H 0.14351 0.40037 0.15885 0.0
H259 H 0.0878 0.41726 0.14831 0.0
H260 H 0.98168 0.60004 1.03751 0.0
H261 H 0.92624 0.61846 1.03149 0.0
H262 H 0.99314 0.71442 0.99064 0.0
H263 H 0.04866 0.69505 0.99566 0.0
C264 C 0.30852 0.24784 0.30015 0.0
C265 C 0.3268 0.28264 0.30137 0.0
C266 C 0.28095 0.23359 0.3261 0.0
C267 C 0.27186 0.25464 0.35416 0.0
C268 C 0.29179 0.28945 0.35682 0.0
C269 C 0.31885 0.30313 0.33011 0.0
C270 C 0.26008 0.1964 0.32213 0.0
C271 C 0.28342 0.31252 0.38682 0.0
C272 C 0.17268 0.22488 0.38822 0.0
C273 C 0.17621 0.20717 0.41987 0.0
C274 C 0.20379 0.24139 0.36725 0.0
C275 C 0.23941 0.24066 0.37855 0.0
C276 C 0.24345 0.22452 0.4116 0.0
C277 C 0.21177 0.20773 0.43173 0.0
C278 C 0.19834 0.2583 0.33208 0.0
C279 C 0.28105 0.2237 0.42481 0.0
H280 H 0.31434 0.23207 0.27765 0.0
H281 H 0.33318 0.33005 0.3311 0.0
H282 H 0.26004 0.18368 0.34876 0.0
H283 H 0.23077 0.19358 0.3149 0.0
H284 H 0.27214 0.18312 0.30034 0.0
H285 H 0.30434 0.33782 0.38777 0.0
H286 H 0.25581 0.31609 0.38184 0.0
H287 H 0.28238 0.30095 0.41431 0.0
H288 H 0.1454 0.22517 0.37929 0.0
H289 H 0.21483 0.19384 0.45591 0.0
H290 H 0.20708 0.24521 0.30786 0.0
H291 H 0.21588 0.28503 0.33248 0.0
H292 H 0.16903 0.25789 0.32806 0.0
H293 H 0.292 0.20725 0.40573 0.0
H294 H 0.27994 0.21382 0.45322 0.0
H295 H 0.30097 0.24946 0.42459 0.0
C296 C 0.34903 0.87078 0.71445 0.0
C297 C 0.31294 0.87378 0.71262 0.0
C298 C 0.36989 0.87961 0.74721 0.0
C299 C 0.35438 0.8921 0.77851 0.0
C300 C 0.31727 0.89333 0.77735 0.0
C301 C 0.29693 0.88382 0.74458 0.0
C302 C 0.40908 0.8772 0.74768 0.0
C303 C 0.29964 0.90657 0.81004 0.0
C304 C 0.39389 0.90393 0.87587 0.0
C305 C 0.41163 0.93888 0.87728 0.0
C306 C 0.37719 0.88772 0.84301 0.0
C307 C 0.37757 0.90714 0.81125 0.0
C308 C 0.39669 0.94221 0.81224 0.0
C309 C 0.41373 0.95759 0.84518 0.0
C310 C 0.35787 0.85014 0.84273 0.0
C311 C 0.39729 0.96395 0.77917 0.0
H312 H 0.36159 0.86302 0.68985 0.0
H313 H 0.2687 0.8853 0.74361 0.0
H314 H 0.42878 0.90302 0.7468 0.0
H315 H 0.41449 0.86567 0.77362 0.0
H316 H 0.41487 0.86201 0.72362 0.0
H317 H 0.26991 0.90418 0.80527 0.0
H318 H 0.30197 0.89271 0.83531 0.0
H319 H 0.31446 0.93373 0.81555 0.0
H320 H 0.39266 0.8894 0.90062 0.0
H321 H 0.42722 0.98467 0.84634 0.0
H322 H 0.36556 0.83754 0.81756 0.0
H323 H 0.32744 0.84582 0.842 0.0
H324 H 0.36471 0.83792 0.8676 0.0
H325 H 0.40702 0.95271 0.75415 0.0
H326 H 0.41547 0.99026 0.78365 0.0
H327 H 0.36878 0.96503 0.77342 0.0
C328 C 0.68345 0.43961 0.7795 0.0
C329 C 0.6546 0.41498 0.79634 0.0
C330 C 0.67706 0.45649 0.74788 0.0
C331 C 0.64086 0.44878 0.73273 0.0
C332 C 0.61199 0.42297 0.74886 0.0
C333 C 0.61918 0.40646 0.78033 0.0
C334 C 0.70877 0.48358 0.73161 0.0
C335 C 0.57299 0.4138 0.73387 0.0
C336 C 0.61126 0.51708 0.68239 0.0
C337 C 0.61167 0.5067 0.64496 0.0
C338 C 0.62133 0.49887 0.71089 0.0
C339 C 0.63237 0.46942 0.70211 0.0
C340 C 0.63372 0.45921 0.66433 0.0
C341 C 0.62326 0.47783 0.63632 0.0
C342 C 0.61933 0.51082 0.75062 0.0
C343 C 0.6455 0.42818 0.6535 0.0
H344 H 0.71078 0.44647 0.7919 0.0
H345 H 0.59667 0.38761 0.79324 0.0
H346 H 0.71038 0.47929 0.70123 0.0
H347 H 0.70397 0.50872 0.73624 0.0
H348 H 0.7358 0.48435 0.74417 0.0
H349 H 0.55425 0.3916 0.74773 0.0
H350 H 0.56162 0.43568 0.73792 0.0
H351 H 0.57296 0.40802 0.70365 0.0
H352 H 0.60238 0.53924 0.68964 0.0
H353 H 0.62374 0.46943 0.60764 0.0
H354 H 0.64652 0.51489 0.76438 0.0
H355 H 0.59871 0.49109 0.76607 0.0
H356 H 0.61142 0.53477 0.75286 0.0
H357 H 0.67264 0.42972 0.6662 0.0
H358 H 0.64778 0.42501 0.62297 0.0
H359 H 0.62507 0.40524 0.66413 0.0
C360 C 0.91938 0.65123 0.25444 0.0
C361 C 0.94406 0.67779 0.27468 0.0
C362 C 0.93223 0.63076 0.22862 0.0
C363 C 0.97083 0.63673 0.22272 0.0
C364 C 0.99589 0.66329 0.24344 0.0
C365 C 0.98225 0.68345 0.26905 0.0
C366 C 0.90438 0.60278 0.20746 0.0
C367 C 0.03721 0.67055 0.23838 0.0
C368 C 1.0046 0.56328 0.18412 0.0
C369 C 1.01136 0.57109 0.14662 0.0
C370 C 0.99163 0.58437 0.20893 0.0
C371 C 0.98491 0.61423 0.19618 0.0
C372 C 0.99133 0.62215 0.15816 0.0
C373 C 1.00447 0.60052 0.13389 0.0
C374 C 0.9852 0.57464 0.24897 0.0
C375 C 0.98427 0.65345 0.14308 0.0
H376 H 0.88983 0.64678 0.25837 0.0
H377 H 1.00144 0.70408 0.28432 0.0
H378 H 0.9083 0.60655 0.17723 0.0
H379 H 0.90878 0.57795 0.21328 0.0
H380 H 0.87534 0.60167 0.21473 0.0
H381 H 0.05307 0.69225 0.25619 0.0
H382 H 0.04583 0.64784 0.24508 0.0
H383 H 0.04474 0.67625 0.209 0.0
H384 H 1.00977 0.54059 0.19431 0.0
H385 H 1.00916 0.60655 0.10498 0.0
H386 H 0.95584 0.57155 0.25659 0.0
H387 H 1.00252 0.59511 0.26726 0.0
H388 H 0.99182 0.55068 0.2546 0.0
H389 H 0.95478 0.65245 0.14731 0.0
H390 H 0.99084 0.65624 0.11305 0.0
H391 H 1.00125 0.67634 0.15838 0.0
C392 C 0.46196 0.22858 0.22958 0.0
C393 C 0.47141 0.2579 0.20861 0.0
C394 C 0.47086 0.19928 0.21715 0.0
C395 C 0.48932 0.19938 0.18279 0.0
C396 C 0.49899 0.22903 0.16157 0.0
C397 C 0.48968 0.2579 0.17466 0.0
C398 C 0.46003 0.16812 0.24042 0.0
C399 C 0.51875 0.2301 0.12481 0.0
C400 C 0.54434 0.13776 0.15976 0.0
C401 C 0.52088 0.11524 0.1344 0.0
C402 C 0.53371 0.16441 0.17701 0.0
C403 C 0.49873 0.16861 0.1688 0.0
C404 C 0.47403 0.14483 0.14493 0.0
C405 C 0.4854 0.11834 0.128 0.0
C406 C 0.56075 0.18909 0.20248 0.0
C407 C 0.43638 0.14842 0.13574 0.0
H408 H 0.44703 0.22849 0.25544 0.0
H409 H 0.49619 0.28039 0.15813 0.0
H410 H 0.44073 0.14686 0.22466 0.0
H411 H 0.48487 0.16007 0.24694 0.0
H412 H 0.44645 0.17246 0.26682 0.0
H413 H 0.52469 0.25527 0.11198 0.0
H414 H 0.54532 0.22405 0.12854 0.0
H415 H 0.50163 0.21064 0.10531 0.0
H416 H 0.57169 0.13536 0.16521 0.0
H417 H 0.46713 0.10103 0.10848 0.0
H418 H 0.5471 0.19259 0.22907 0.0
H419 H 0.5702 0.21421 0.18952 0.0
H420 H 0.58547 0.18059 0.20848 0.0
H421 H 0.42133 0.15184 0.16146 0.0
H422 H 0.41913 0.12608 0.11972 0.0
H423 H 0.43976 0.17132 0.11912 0.0
C424 C 0.19741 0.90306 0.61337 0.0
C425 C 0.23449 0.91382 0.6247 0.0
C426 C 0.17857 0.92666 0.60484 0.0
C427 C 0.19755 0.96173 0.60721 0.0
C428 C 0.23507 0.9727 0.61849 0.0
C429 C 0.25305 0.94857 0.62732 0.0
C430 C 0.1384 0.91409 0.59329 0.0
C431 C 0.25631 1.00988 0.62077 0.0
C432 C 0.1579 1.01805 0.54949 0.0
C433 C 0.13817 1.03123 0.57614 0.0
C434 C 0.17826 0.99612 0.55945 0.0
C435 C 0.17835 0.98686 0.59687 0.0
C436 C 0.15921 1.00083 0.62406 0.0
C437 C 0.13969 1.02328 0.61339 0.0
C438 C 0.19888 0.98218 0.5298 0.0
C439 C 0.15834 0.9912 0.66415 0.0
H440 H 0.18302 0.87617 0.6117 0.0
H441 H 0.28188 0.95682 0.63575 0.0
H442 H 0.12127 0.92552 0.61179 0.0
H443 H 0.13523 0.92205 0.56474 0.0
H444 H 0.12735 0.88604 0.59408 0.0
H445 H 0.28524 1.01418 0.63041 0.0
H446 H 0.257 1.02112 0.59314 0.0
H447 H 0.24217 1.02364 0.64002 0.0
H448 H 0.15689 1.0244 0.52067 0.0
H449 H 0.12474 1.03383 0.63404 0.0
H450 H 0.1867 0.95432 0.52674 0.0
H451 H 0.22831 0.98697 0.53787 0.0
H452 H 0.19788 0.99356 0.50247 0.0
H453 H 0.145 0.96357 0.66644 0.0
H454 H 0.1429 1.00497 0.68197 0.0
H455 H 0.18696 0.99661 0.67497 0.0
C456 C 0.78241 0.40626 0.96776 0.0
C457 C 0.78046 0.40304 0.92893 0.0
C458 C 0.81508 0.42514 0.98584 0.0
C459 C 0.84686 0.44107 0.96469 0.0
C460 C 0.84485 0.43852 0.92546 0.0
C461 C 0.81168 0.4197 0.90808 0.0
C462 C 0.81578 0.42751 1.02766 0.0
C463 C 0.8781 0.45485 0.90182 0.0
C464 C 0.926 0.5107 1.00946 0.0
C465 C 0.95123 0.49282 1.01833 0.0
C466 C 0.89183 0.49422 0.99239 0.0
C467 C 0.88266 0.45901 0.98361 0.0
C468 C 0.90789 0.44081 0.99274 0.0
C469 C 0.94167 0.45784 1.01006 0.0
C470 C 0.86565 0.51455 0.98349 0.0
C471 C 0.89941 0.40332 0.98374 0.0
H472 H 0.75828 0.39387 0.98409 0.0
H473 H 0.81056 0.41712 0.87811 0.0
H474 H 0.83596 0.41507 1.03827 0.0
H475 H 0.82506 0.45445 1.03729 0.0
H476 H 0.78822 0.4153 1.04003 0.0
H477 H 0.87164 0.45174 0.87173 0.0
H478 H 0.88864 0.48232 0.90898 0.0
H479 H 0.90076 0.44346 0.90741 0.0
H480 H 0.93298 0.5377 1.0157 0.0
H481 H 0.96093 0.44373 1.01651 0.0
H482 H 0.83839 0.50339 0.99686 0.0
H483 H 0.86086 0.51359 0.95316 0.0
H484 H 0.87643 0.54152 0.99289 0.0
H485 H 0.87323 0.38932 0.99744 0.0
H486 H 0.92185 0.39279 0.99271 0.0
H487 H 0.89538 0.3986 0.95343 0.0
C488 C 0.83101 0.69011 0.4678 0.0
C489 C 0.83754 0.68481 0.42992 0.0
C490 C 0.79776 0.67246 0.48517 0.0
C491 C 0.77056 0.64755 0.46484 0.0
C492 C 0.77752 0.64076 0.42715 0.0
C493 C 0.81051 0.65974 0.41004 0.0
C494 C 0.79141 0.6811 0.5252 0.0
C495 C 0.74985 0.6137 0.40471 0.0
C496 C 0.69847 0.58643 0.52449 0.0
C497 C 0.66832 0.59971 0.52251 0.0
C498 C 0.73127 0.60063 0.50437 0.0
C499 C 0.73445 0.62963 0.48291 0.0
C500 C 0.70372 0.64285 0.48068 0.0
C501 C 0.67087 0.62741 0.50007 0.0
C502 C 0.76275 0.58497 0.50662 0.0
C503 C 0.70604 0.67422 0.45913 0.0
H504 H 0.85186 0.70831 0.48417 0.0
H505 H 0.81465 0.6553 0.38081 0.0
H506 H 0.76576 0.6891 0.52767 0.0
H507 H 0.78746 0.65842 0.54226 0.0
H508 H 0.81484 0.70175 0.5369 0.0
H509 H 0.76083 0.60916 0.37696 0.0
H510 H 0.74201 0.58953 0.41968 0.0
H511 H 0.72422 0.62129 0.40088 0.0
H512 H 0.69641 0.56496 0.54188 0.0
H513 H 0.64759 0.63787 0.49888 0.0
H514 H 0.78626 0.60248 0.52198 0.0
H515 H 0.77289 0.58081 0.47841 0.0
H516 H 0.75444 0.5604 0.52087 0.0
H517 H 0.72796 0.69599 0.47117 0.0
H518 H 0.67946 0.68081 0.45938 0.0
H519 H 0.71389 0.67057 0.42995 0.0
C520 C 0.3427 0.35289 0.15733 0.0
C521 C 0.34837 0.35977 0.1955 0.0
C522 C 0.32038 0.36801 0.13718 0.0
C523 C 0.30277 0.38983 0.15587 0.0
C524 C 0.31171 0.39971 0.19332 0.0
C525 C 0.33484 0.38487 0.21256 0.0
C526 C 0.31273 0.35796 0.09684 0.0
C527 C 0.29368 0.42303 0.21429 0.0
C528 C 0.24072 0.43466 0.10949 0.0
C529 C 0.20555 0.41204 0.11584 0.0
C530 C 0.27305 0.42712 0.12055 0.0
C531 C 0.26994 0.39667 0.13908 0.0
C532 C 0.23462 0.37314 0.14407 0.0
C533 C 0.20299 0.38093 0.13193 0.0
C534 C 0.31026 0.45239 0.11378 0.0
C535 C 0.22999 0.34031 0.16375 0.0
H536 H 0.3531 0.33365 0.14373 0.0
H537 H 0.34005 0.39105 0.24179 0.0
H538 H 0.28557 0.33831 0.09425 0.0
H539 H 0.31127 0.37998 0.08062 0.0
H540 H 0.33431 0.34738 0.08453 0.0
H541 H 0.3072 0.43174 0.24147 0.0
H542 H 0.29456 0.44554 0.19788 0.0
H543 H 0.26409 0.40941 0.21932 0.0
H544 H 0.24301 0.45883 0.09718 0.0
H545 H 0.17602 0.36289 0.13595 0.0
H546 H 0.33109 0.43936 0.10506 0.0
H547 H 0.32027 0.46698 0.13984 0.0
H548 H 0.30863 0.47063 0.09228 0.0
H549 H 0.24625 0.32512 0.14943 0.0
H550 H 0.20058 0.32469 0.16504 0.0
H551 H 0.24072 0.34581 0.19248 0.0
C552 C 0.70273 0.27216 0.93114 0.0
C553 C 0.68003 0.2921 0.92076 0.0
C554 C 0.68774 0.23995 0.94625 0.0
C555 C 0.64894 0.22705 0.95138 0.0
C556 C 0.62579 0.24687 0.94066 0.0
C557 C 0.64154 0.27899 0.92537 0.0
C558 C 0.71353 0.21971 0.95676 0.0
C559 C 0.58432 0.23428 0.94575 0.0
C560 C 0.6061 0.13131 0.95939 0.0
C561 C 0.60122 0.12766 0.9978 0.0
C562 C 0.62174 0.16333 0.94402 0.0
C563 C 0.63266 0.1927 0.96753 0.0
C564 C 0.62821 0.18909 1.00644 0.0
C565 C 0.61274 0.15667 1.02108 0.0
C566 C 0.62627 0.16575 0.90251 0.0
C567 C 0.6393 0.21958 1.0326 0.0
H568 H 0.73244 0.28171 0.92721 0.0
H569 H 0.62375 0.29422 0.9178 0.0
H570 H 0.71061 0.21419 0.98671 0.0
H571 H 0.70604 0.195 0.94128 0.0
H572 H 0.74302 0.2332 0.95094 0.0
H573 H 0.5701 0.25264 0.93614 0.0
H574 H 0.57305 0.20987 0.93021 0.0
H575 H 0.57762 0.22945 0.97544 0.0
H576 H 0.59732 0.10905 0.94118 0.0
H577 H 0.60896 0.15413 0.05078 0.0
H578 H 0.65574 0.17791 0.89543 0.0
H579 H 0.60997 0.18194 0.89176 0.0
H580 H 0.6171 0.14053 0.88807 0.0
H581 H 0.66915 0.23304 1.02907 0.0
H582 H 0.63418 0.2126 0.06207 0.0
H583 H 0.62357 0.23764 1.02597 0.0
C584 C 0.97619 0.80994 0.4267 0.0
C585 C 0.93766 0.79636 0.42222 0.0
C586 C 0.99171 0.84212 0.44398 0.0
C587 C 0.96827 0.8613 0.45758 0.0
C588 C 0.92951 0.84815 0.45226 0.0
C589 C 0.91483 0.81624 0.43442 0.0
C590 C 0.0332 0.85527 0.44845 0.0
C591 C 0.9033 0.86743 0.4663 0.0
C592 C 1.00191 0.92694 0.53663 0.0
C593 C 1.01012 0.95777 0.51818 0.0
C594 C 0.98864 0.89554 0.51728 0.0
C595 C 0.98394 0.89461 0.47827 0.0
C596 C 0.99287 0.92563 0.4594 0.0
C597 C 1.0055 0.95671 0.47953 0.0
C598 C 0.97901 0.86329 0.53876 0.0
C599 C 0.98893 0.926 0.41786 0.0
H600 H 0.99426 0.79497 0.41775 0.0
H601 H 0.88515 0.80669 0.43039 0.0
H602 H 0.04355 0.8811 0.43727 0.0
H603 H 0.04044 0.85727 0.4783 0.0
H604 H 0.04783 0.83858 0.43415 0.0
H605 H 0.87392 0.85396 0.45969 0.0
H606 H 0.90608 0.87137 0.49681 0.0
H607 H 0.9105 0.89284 0.454 0.0
H608 H 1.00525 0.92731 0.56644 0.0
H609 H 1.01202 0.98026 0.46485 0.0
H610 H 0.99517 0.84637 0.52807 0.0
H611 H 0.94924 0.8495 0.53494 0.0
H612 H 0.98458 0.86819 0.56889 0.0
H613 H 1.00493 0.91022 0.40417 0.0
H614 H 0.99871 0.95204 0.40705 0.0
H615 H 0.95947 0.91481 0.40993 0.0
C616 C 0.32691 0.77071 0.55764 0.0
C617 C 0.32963 0.80337 0.57166 0.0
C618 C 0.35425 0.75495 0.56538 0.0
C619 C 0.38461 0.77214 0.58821 0.0
C620 C 0.38721 0.80502 0.60283 0.0
C621 C 0.35965 0.82031 0.59425 0.0
C622 C 0.35054 0.71986 0.54929 0.0
C623 C 0.41889 0.82391 0.62769 0.0
C624 C 0.43403 0.71587 0.63395 0.0
C625 C 0.46438 0.71878 0.61022 0.0
C626 C 0.40847 0.734 0.62781 0.0
C627 C 0.4133 0.75532 0.59703 0.0
C628 C 0.44442 0.75901 0.57351 0.0
C629 C 0.46969 0.74073 0.58045 0.0
C630 C 0.37577 0.72965 0.65368 0.0
C631 C 0.45036 0.78138 0.54031 0.0
H632 H 0.30335 0.75753 0.54058 0.0
H633 H 0.36138 0.84547 0.60536 0.0
H634 H 0.37541 0.71998 0.53252 0.0
H635 H 0.34881 0.7019 0.57197 0.0
H636 H 0.32561 0.71029 0.5315 0.0
H637 H 0.41658 0.84917 0.63704 0.0
H638 H 0.41973 0.8089 0.65248 0.0
H639 H 0.4456 0.82744 0.61285 0.0
H640 H 0.43015 0.69918 0.65722 0.0
H641 H 0.49295 0.74274 0.56186 0.0
H642 H 0.34972 0.71747 0.63839 0.0
H643 H 0.37412 0.75473 0.66429 0.0
H644 H 0.37735 0.71385 0.67764 0.0
H645 H 0.4274 0.77134 0.52026 0.0
H646 H 0.47699 0.78292 0.52597 0.0
H647 H 0.45002 0.80737 0.54892 0.0
C648 C 0.77594 0.81428 0.83097 0.0
C649 C 0.78462 0.81898 0.86877 0.0
C650 C 0.80366 0.82456 0.80396 0.0
C651 C 0.84061 0.84063 0.81519 0.0
C652 C 0.84977 0.84362 0.85333 0.0
C653 C 0.82166 0.83251 0.87965 0.0
C654 C 0.79302 0.82015 0.76353 0.0
C655 C 0.8887 0.86108 0.86654 0.0
C656 C 0.9225 0.86235 0.74878 0.0
C657 C 0.92514 0.89616 0.74147 0.0
C658 C 0.89403 0.84324 0.77146 0.0
C659 C 0.86848 0.85876 0.78788 0.0
C660 C 0.87089 0.8928 0.7801 0.0
C661 C 0.89899 0.91095 0.75672 0.0
C662 C 0.89169 0.80677 0.77845 0.0
C663 C 0.84466 0.91053 0.79758 0.0
H664 H 0.74729 0.80355 0.82259 0.0
H665 H 0.82836 0.83649 0.9089 0.0
H666 H 0.79315 0.845 0.75248 0.0
H667 H 0.81336 0.81081 0.74718 0.0
H668 H 0.76496 0.8022 0.75926 0.0
H669 H 0.89198 0.85816 0.89669 0.0
H670 H 0.90902 0.85091 0.85125 0.0
H671 H 0.89564 0.88855 0.86098 0.0
H672 H 0.94272 0.85095 0.73679 0.0
H673 H 0.90137 0.93725 0.7514 0.0
H674 H 0.86312 0.79029 0.77319 0.0
H675 H 0.89813 0.80408 0.8079 0.0
H676 H 0.91126 0.79753 0.76074 0.0
H677 H 0.81559 0.89635 0.7908 0.0
H678 H 0.85002 0.93693 0.78817 0.0
H679 H 0.84742 0.91125 0.8282 0.0
C680 C 0.83052 0.22238 0.3807 0.0
C681 C 0.81406 0.23345 0.41166 0.0
C682 C 0.81047 0.21131 0.348 0.0
C683 C 0.77283 0.21093 0.34638 0.0
C684 C 0.75652 0.22361 0.37702 0.0
C685 C 0.77749 0.23495 0.40938 0.0
C686 C 0.82913 0.19849 0.31581 0.0
C687 C 0.71646 0.22349 0.3764 0.0
C688 C 0.73168 0.19552 0.24956 0.0
C689 C 0.71772 0.16007 0.2482 0.0
C690 C 0.74806 0.21283 0.28207 0.0
C691 C 0.75014 0.1942 0.31389 0.0
C692 C 0.73408 0.1586 0.31319 0.0
C693 C 0.71825 0.14197 0.28031 0.0
C694 C 0.765 0.25077 0.28168 0.0
C695 C 0.73525 0.13781 0.34665 0.0
H696 H 0.85899 0.22164 0.38242 0.0
H697 H 0.7648 0.24348 0.43344 0.0
H698 H 0.81649 0.17077 0.31166 0.0
H699 H 0.82498 0.21072 0.2899 0.0
H700 H 0.85935 0.20336 0.32033 0.0
H701 H 0.70942 0.23822 0.40023 0.0
H702 H 0.71003 0.23412 0.35028 0.0
H703 H 0.69839 0.19699 0.37749 0.0
H704 H 0.73133 0.20955 0.22472 0.0
H705 H 0.70687 0.1146 0.27945 0.0
H706 H 0.79565 0.25675 0.28218 0.0
H707 H 0.7566 0.26305 0.3067 0.0
H708 H 0.75692 0.26196 0.25665 0.0
H709 H 0.76429 0.13815 0.35207 0.0
H710 H 0.71824 0.11101 0.34279 0.0
H711 H 0.72518 0.14887 0.3716 0.0
C712 C 0.50195 0.69814 0.33651 0.0
C713 C 0.46599 0.68714 0.32176 0.0
C714 C 0.51152 0.68368 0.36843 0.0
C715 C 0.48453 0.65749 0.3863 0.0
C716 C 0.4477 0.64745 0.37252 0.0
C717 C 0.43892 0.66231 0.34043 0.0
C718 C 0.55109 0.6953 0.38191 0.0
C719 C 0.41791 0.61987 0.39066 0.0
C720 C 0.52052 0.59291 0.43623 0.0
C721 C 0.52086 0.60371 0.47358 0.0
C722 C 0.50828 0.60985 0.40794 0.0
C723 C 0.49579 0.63846 0.41686 0.0
C724 C 0.49535 0.64921 0.45457 0.0
C725 C 0.50792 0.63179 0.48241 0.0
C726 C 0.5094 0.59739 0.36828 0.0
C727 C 0.48214 0.67943 0.46547 0.0
H728 H 0.52307 0.71727 0.32225 0.0
H729 H 0.41115 0.65363 0.32909 0.0
H730 H 0.55195 0.70159 0.41205 0.0
H731 H 0.56406 0.67447 0.37766 0.0
H732 H 0.56796 0.71783 0.36713 0.0
H733 H 0.38998 0.61749 0.37924 0.0
H734 H 0.42399 0.59524 0.38633 0.0
H735 H 0.41746 0.62492 0.421 0.0
H736 H 0.53037 0.57132 0.42883 0.0
H737 H 0.50799 0.64047 0.51107 0.0
H738 H 0.52831 0.61753 0.3518 0.0
H739 H 0.48147 0.59157 0.35567 0.0
H740 H 0.51899 0.57431 0.36595 0.0
H741 H 0.50044 0.70256 0.45293 0.0
H742 H 0.48185 0.68369 0.49601 0.0
H743 H 0.45379 0.6759 0.45464 0.0
C744 C 0.16092 0.44558 0.82817 0.0
C745 C 0.15761 0.41063 0.82823 0.0
C746 C 0.14833 0.46222 0.85798 0.0
C747 C 0.13063 0.4436 0.88871 0.0
C748 C 0.12615 0.40817 0.88873 0.0
C749 C 0.13988 0.39222 0.85879 0.0
C750 C 0.15404 0.49997 0.85647 0.0
C751 C 0.10672 0.38709 0.9204 0.0
C752 C 0.12497 0.49675 0.97688 0.0
C753 C 0.09076 0.5032 0.97222 0.0
C754 C 0.13774 0.47622 0.95087 0.0
C755 C 0.11556 0.46134 0.91967 0.0
C756 C 0.08009 0.46638 0.9162 0.0
C757 C 0.06842 0.48748 0.94211 0.0
C758 C 0.17585 0.47202 0.95573 0.0
C759 C 0.05489 0.45053 0.88423 0.0
H760 H 0.17333 0.46024 0.80454 0.0
H761 H 0.13719 0.36537 0.85969 0.0
H762 H 0.12683 0.50527 0.85577 0.0
H763 H 0.16872 0.51288 0.88174 0.0
H764 H 0.17029 0.51122 0.83179 0.0
H765 H 0.10499 0.35985 0.91627 0.0
H766 H 0.12154 0.39657 0.94673 0.0
H767 H 0.07823 0.38945 0.92352 0.0
H768 H 0.14255 0.5091 0.99982 0.0
H769 H 0.04181 0.49216 0.93844 0.0
H770 H 0.19457 0.48605 0.93395 0.0
H771 H 0.17497 0.44495 0.95241 0.0
H772 H 0.18784 0.48172 0.9833 0.0
H773 H 0.06668 0.46272 0.85811 0.0
H774 H 0.0266 0.45333 0.88791 0.0
H775 H 0.0527 0.42316 0.88102 0.0
C776 C 0.69365 0.88718 0.90866 0.0
C777 C 0.68008 0.85512 0.92435 0.0
C778 C 0.67641 0.91269 0.91564 0.0
C779 C 0.64565 0.90646 0.93989 0.0
C780 C 0.62999 0.8735 0.95339 0.0
C781 C 0.647 0.84806 0.94487 0.0
C782 C 0.6931 0.94717 0.89954 0.0
C783 C 0.59735 0.86584 0.97963 0.0
C784 C 0.6401 0.97889 1.00457 0.0
C785 C 0.60907 0.98688 0.991 0.0
C786 C 0.65242 0.953 0.98781 0.0
C787 C 0.63391 0.93535 0.956 0.0
C788 C 0.60374 0.94452 0.94096 0.0
C789 C 0.59123 0.96986 0.95906 0.0
C790 C 0.68434 0.94365 1.00513 0.0
C791 C 0.58419 0.9271 0.90634 0.0
H792 H 0.71923 0.89335 0.89293 0.0
H793 H 0.63552 0.82313 0.95614 0.0
H794 H 0.67111 0.95818 0.89048 0.0
H795 H 0.70981 0.9646 0.92106 0.0
H796 H 0.71146 0.94598 0.87557 0.0
H797 H 0.58591 0.83824 0.98423 0.0
H798 H 0.60622 0.87891 1.00678 0.0
H799 H 0.57496 0.87549 0.96897 0.0
H800 H 0.65372 0.99174 1.02947 0.0
H801 H 0.56728 0.97612 0.94844 0.0
H802 H 0.70716 0.94629 0.98478 0.0
H803 H 0.67519 0.91674 1.01326 0.0
H804 H 0.69545 0.9597 1.03007 0.0
H805 H 0.60464 0.92597 0.88436 0.0
H806 H 0.56463 0.9402 0.89554 0.0
H807 H 0.56836 0.90064 0.91237 0.0
C808 C 0.86279 0.16398 0.51342 0.0
C809 C 0.88606 0.19694 0.50895 0.0
C810 C 0.87631 0.1389 0.52841 0.0
C811 C 0.91403 0.14702 0.53875 0.0
C812 C 0.93766 0.18027 0.53424 0.0
C813 C 0.9233 0.20493 0.51954 0.0
C814 C 0.8503 0.10376 0.53313 0.0
C815 C 0.9782 0.18968 0.54452 0.0
C816 C 0.94811 0.09344 0.60553 0.0
C817 C 0.96416 0.07469 0.58107 0.0
C818 C 0.93041 0.11632 0.59206 0.0
C819 C 0.92919 0.12057 0.55336 0.0
C820 C 0.9442 0.10071 0.52858 0.0
C821 C 0.9612 0.07773 0.54279 0.0
C822 C 0.91426 0.13682 0.61923 0.0
C823 C 0.94381 0.1048 0.48716 0.0
H824 H 0.83386 0.15796 0.50563 0.0
H825 H 0.94133 0.23037 0.5158 0.0
H826 H 0.86018 0.08505 0.51638 0.0
H827 H 0.84997 0.09657 0.56253 0.0
H828 H 0.82151 0.10186 0.5246 0.0
H829 H 0.99274 0.21672 0.53947 0.0
H830 H 0.98118 0.18484 0.57422 0.0
H831 H 0.99219 0.17364 0.52822 0.0
H832 H 0.95032 0.09096 0.63516 0.0
H833 H 0.97341 0.063 0.52387 0.0
H834 H 0.88521 0.13476 0.6117 0.0
H835 H 0.93022 0.16399 0.61809 0.0
H836 H 0.91479 0.12851 0.64816 0.0
H837 H 0.91519 0.10189 0.4775 0.0
H838 H 0.95493 0.08613 0.47168 0.0
H839 H 0.96083 0.13068 0.48016 0.0
C840 C 0.30274 0.70758 0.19398 0.0
C841 C 0.33569 0.69835 0.19148 0.0
C842 C 0.26997 0.68753 0.1769 0.0
C843 C 0.27037 0.658 0.15581 0.0
C844 C 0.30385 0.64887 0.15285 0.0
C845 C 0.33595 0.66888 0.17116 0.0
C846 C 0.23482 0.69781 0.18169 0.0
C847 C 0.30589 0.61819 0.12995 0.0
C848 C 0.17886 0.58942 0.1378 0.0
C849 C 0.1686 0.5979 0.10293 0.0
C850 C 0.21176 0.60872 0.15529 0.0
C851 C 0.23572 0.63668 0.13708 0.0
C852 C 0.22603 0.64472 0.10135 0.0
C853 C 0.19237 0.62561 0.085 0.0
C854 C 0.22034 0.59973 0.19375 0.0
C855 C 0.25117 0.67363 0.08041 0.0
H856 H 0.30255 0.73034 0.20979 0.0
H857 H 0.36153 0.6619 0.16901 0.0
H858 H 0.22483 0.70302 0.15435 0.0
H859 H 0.21275 0.67674 0.19366 0.0
H860 H 0.23879 0.72074 0.20001 0.0
H861 H 0.33421 0.61508 0.1295 0.0
H862 H 0.28645 0.59495 0.14113 0.0
H863 H 0.29727 0.62034 0.10105 0.0
H864 H 0.1605 0.56829 0.15205 0.0
H865 H 0.18477 0.63223 0.05798 0.0
H866 H 0.22242 0.62157 0.21323 0.0
H867 H 0.2475 0.59432 0.19391 0.0
H868 H 0.19887 0.57733 0.2042 0.0
H869 H 0.25358 0.69797 0.09562 0.0
H870 H 0.24088 0.67528 0.05201 0.0
H871 H 0.27943 0.67054 0.07837 0.0
C872 C 0.32198 0.47141 0.70537 0.0
C873 C 0.31702 0.43768 0.71503 0.0
C874 C 0.35044 0.48779 0.68087 0.0
C875 C 0.3747 0.4701 0.66585 0.0
C876 C 0.36928 0.4358 0.67504 0.0
C877 C 0.34054 0.42004 0.69941 0.0
C878 C 0.35503 0.52425 0.67168 0.0
C879 C 0.39445 0.41594 0.65982 0.0
C880 C 0.43356 0.49927 0.57973 0.0
C881 C 0.46864 0.51455 0.59516 0.0
C882 C 0.40245 0.48581 0.60239 0.0
C883 C 0.40649 0.4875 0.64146 0.0
C884 C 0.44163 0.50407 0.65716 0.0
C885 C 0.47219 0.51748 0.63386 0.0
C886 C 0.36551 0.46874 0.58446 0.0
C887 C 0.44731 0.50647 0.69861 0.0
H888 H 0.30396 0.48513 0.71757 0.0
H889 H 0.33693 0.39401 0.70688 0.0
H890 H 0.38217 0.54044 0.68206 0.0
H891 H 0.35495 0.52692 0.64119 0.0
H892 H 0.33278 0.53391 0.68404 0.0
H893 H 0.38598 0.38926 0.66884 0.0
H894 H 0.39453 0.41591 0.62909 0.0
H895 H 0.42331 0.42819 0.66915 0.0
H896 H 0.43057 0.49707 0.54985 0.0
H897 H 0.49919 0.52933 0.646 0.0
H898 H 0.34375 0.47916 0.59655 0.0
H899 H 0.3573 0.44124 0.58998 0.0
H900 H 0.36623 0.47193 0.55399 0.0
H901 H 0.42705 0.51784 0.71227 0.0
H902 H 0.47573 0.52187 0.70651 0.0
H903 H 0.44243 0.48067 0.70953 0.0
C904 C 0.79229 0.75536 1.01642 0.0
C905 C 0.76008 0.73577 0.99841 0.0
C906 C 0.82415 0.7444 1.01741 0.0
C907 C 0.82341 0.71259 1.00099 0.0
C908 C 0.79067 0.69228 0.98356 0.0
C909 C 0.75935 0.70418 0.98242 0.0
C910 C 0.85862 0.76689 1.03599 0.0
C911 C 0.78871 0.65795 0.96635 0.0
C912 C 0.91574 0.69725 0.97721 0.0
C913 C 0.92143 0.67938 1.00797 0.0
C914 C 0.88374 0.70795 0.97437 0.0
C915 C 0.85676 0.70039 1.00285 0.0
C916 C 0.8622 0.68215 1.0338 0.0
C917 C 0.89455 0.67204 1.03609 0.0
C918 C 0.87893 0.72754 0.94104 0.0
C919 C 0.83401 0.67358 0.06471 0.0
H920 H 0.79267 0.77952 1.02943 0.0
H921 H 0.73424 0.6888 0.96904 0.0
H922 H 0.86635 0.75369 0.05957 0.0
H923 H 0.88215 0.77236 1.01617 0.0
H924 H 0.8549 0.79133 0.0465 0.0
H925 H 0.76118 0.6453 0.95388 0.0
H926 H 0.8102 0.66057 0.94452 0.0
H927 H 0.79451 0.64132 0.98765 0.0
H928 H 0.93614 0.7026 0.95515 0.0
H929 H 0.89901 0.65871 0.06022 0.0
H930 H 0.87668 0.75285 0.95011 0.0
H931 H 0.85285 0.71412 0.9264 0.0
H932 H 0.90234 0.73109 0.92115 0.0
H933 H 0.83118 0.69723 0.07829 0.0
H934 H 0.84171 0.65802 0.0861 0.0
H935 H 0.80644 0.65951 0.05333 0.0
C936 C 0.47613 0.82056 0.19502 0.0
C937 C 0.43751 0.80857 0.19953 0.0
C938 C 0.49313 0.85274 0.18047 0.0
C939 C 0.47117 0.87381 0.17035 0.0
C940 C 0.43222 0.86199 0.17517 0.0
C941 C 0.41593 0.82964 0.18955 0.0
C942 C 0.53468 0.86408 0.1756 0.0
C943 C 0.40769 0.8836 0.16519 0.0
C944 C 0.51889 0.96904 0.16445 0.0
C945 C 0.52445 0.97313 0.12617 0.0
C946 C 0.50123 0.93707 0.17909 0.0
C947 C 0.48894 0.90824 0.15497 0.0
C948 C 0.49405 0.91235 0.1162 0.0
C949 C 0.51155 0.94469 0.10229 0.0
C950 C 0.49612 0.9341 0.22051 0.0
C951 C 0.4816 0.88244 0.0894 0.0
H952 H 0.49308 0.80444 0.20216 0.0
H953 H 0.38616 0.82094 0.19333 0.0
H954 H 0.54171 0.86938 0.14605 0.0
H955 H 0.54678 0.88799 0.19177 0.0
H956 H 0.54788 0.84478 0.18466 0.0
H957 H 0.37794 0.87087 0.17068 0.0
H958 H 0.41602 0.90797 0.1813 0.0
H959 H 0.41107 0.88973 0.13542 0.0
H960 H 0.5287 0.99086 0.18311 0.0
H961 H 0.51579 0.94758 0.07269 0.0
H962 H 0.51139 0.91694 0.23103 0.0
H963 H 0.4664 0.92276 0.2272 0.0
H964 H 0.50613 0.95902 0.23544 0.0
H965 H 0.49619 0.86336 0.09547 0.0
H966 H 0.48705 0.88985 0.06009 0.0
H967 H 0.4515 0.86999 0.0928 0.0
C968 C 0.11874 0.29552 0.73558 0.0
C969 C 0.15719 0.31002 0.73957 0.0
C970 C 0.10392 0.26311 0.71841 0.0
C971 C 0.12799 0.24464 0.7045 0.0
C972 C 0.16668 0.25871 0.7095 0.0
C973 C 0.18064 0.29078 0.72718 0.0
C974 C 0.06248 0.24897 0.71433 0.0
C975 C 0.1936 0.24029 0.69519 0.0
C976 C 0.09418 0.149 0.68202 0.0
C977 C 0.08958 0.14792 0.64335 0.0
C978 C 0.10554 0.18011 0.70234 0.0
C979 C 0.11316 0.21119 0.68368 0.0
C980 C 0.10842 0.21023 0.64467 0.0
C981 C 0.09648 0.17879 0.62513 0.0
C982 C 0.10961 0.17971 0.74385 0.0
C983 C 0.11668 0.24252 0.62336 0.0
H984 H 0.10019 0.30994 0.74475 0.0
H985 H 0.21032 0.30106 0.73082 0.0
H986 H 0.05494 0.247 0.68455 0.0
H987 H 0.053 0.22303 0.72532 0.0
H988 H 0.04736 0.26505 0.72902 0.0
H989 H 0.22284 0.25435 0.70169 0.0
H990 H 0.18719 0.21486 0.70736 0.0
H991 H 0.19076 0.23641 0.66468 0.0
H992 H 0.08863 0.12544 0.69657 0.0
H993 H 0.09307 0.17846 0.59533 0.0
H994 H 0.093 0.19487 0.75769 0.0
H995 H 0.13896 0.19157 0.75176 0.0
H996 H 0.10063 0.1536 0.75455 0.0
H997 H 0.09979 0.2587 0.63435 0.0
H998 H 0.11099 0.2376 0.59326 0.0
H999 H 0.14624 0.25712 0.62701 0.0
C1000 C 0.81768 0.35733 0.5358 0.0
C1001 C 0.81527 0.32311 0.53958 0.0
C1002 C 0.78613 0.36733 0.52797 0.0
C1003 C 0.7515 0.34237 0.52349 0.0
C1004 C 0.74922 0.30761 0.52588 0.0
C1005 C 0.7813 0.29836 0.53382 0.0
C1006 C 0.78974 0.40466 0.52529 0.0
C1007 C 0.71285 0.28034 0.52088 0.0
C1008 C 0.67159 0.37805 0.54439 0.0
C1009 C 0.66276 0.38617 0.50892 0.0
C1010 C 0.69882 0.36158 0.54937 0.0
C1011 C 0.7177 0.3532 0.51807 0.0
C1012 C 0.70705 0.35916 0.482 0.0
C1013 C 0.67956 0.37561 0.47783 0.0
C1014 C 0.70905 0.35524 0.58827 0.0
C1015 C 0.72647 0.35045 0.44797 0.0
H1016 H 0.84423 0.37629 0.53955 0.0
H1017 H 0.77983 0.27182 0.53601 0.0
H1018 H 0.77881 0.40966 0.49831 0.0
H1019 H 0.773 0.41251 0.54741 0.0
H1020 H 0.81891 0.42068 0.52806 0.0
H1021 H 0.71629 0.25446 0.52111 0.0
H1022 H 0.6935 0.28275 0.54347 0.0
H1023 H 0.69973 0.28339 0.49436 0.0
H1024 H 0.6581 0.38574 0.56838 0.0
H1025 H 0.67281 0.38198 0.45039 0.0
H1026 H 0.73698 0.3723 0.59513 0.0
H1027 H 0.7103 0.32879 0.59041 0.0
H1028 H 0.68906 0.3598 0.60919 0.0
H1029 H 0.75471 0.36841 0.4463 0.0
H1030 H 0.71137 0.35197 0.4221 0.0
H1031 H 0.72959 0.32458 0.44957 0.0
loop_
_geom_bond_atom_site_label_1
_geom_bond_atom_site_label_2
_geom_bond_distance
_geom_bond_site_symmetry_2
_ccdc_geom_bond_type
H0 C7 0.929 . S
H1 C10 0.930 . S
H2 C12 0.929 . S
H3 C4 0.969 . S
C4 H3 0.969 . S
C4 O5 1.550 . S
C4 H6 0.973 . S
O5 C4 1.550 . S
O5 C11 1.412 . S
H6 C4 0.973 . S
C7 H0 0.929 . S
C7 C8 1.400 . S
C7 C9 1.364 . S
C8 C7 1.400 . S
C8 C12 1.377 . S
C9 C7 1.364 . S
C9 C10 1.374 . S
C10 H1 0.930 . S
C10 C9 1.374 . S
C10 C11 1.383 . S
C11 O5 1.412 . S
C11 C10 1.383 . S
C11 C12 1.394 . S
C12 H2 0.929 . S
C12 C8 1.377 . S
C12 C11 1.394 . S
H13 C20 0.929 . S
H14 C23 0.930 . S
H15 C25 0.929 . S
H16 C17 0.969 . S
C17 H16 0.969 . S
C17 O18 1.550 . S
C17 H19 0.973 . S
O18 C17 1.550 . S
O18 C24 1.412 . S
H19 C17 0.973 . S
C20 H13 0.929 . S
C20 C21 1.400 . S
C20 C22 1.364 . S
C21 C20 1.400 . S
C21 C25 1.377 . S
C22 C20 1.364 . S
C22 C23 1.374 . S
C23 H14 0.930 . S
C23 C22 1.374 . S
C23 C24 1.383 . S
C24 O18 1.412 . S
C24 C23 1.383 . S
C24 C25 1.394 . S
C25 H15 0.929 . S
C25 C21 1.377 . S
C25 C24 1.394 . S
H26 C33 0.929 . S
H27 C36 0.930 . S
H28 C38 0.929 . S
H29 C30 0.969 . S
C30 H29 0.969 . S
C30 O31 1.550 . S
C30 H32 0.973 . S
O31 C30 1.550 . S
O31 C37 1.412 . S
H32 C30 0.973 . S
C33 H26 0.929 . S
C33 C34 1.400 . S
C33 C35 1.364 . S
C34 C33 1.400 . S
C34 C38 1.377 . S
C35 C33 1.364 . S
C35 C36 1.374 . S
C36 H27 0.930 . S
C36 C35 1.374 . S
C36 C37 1.383 . S
C37 O31 1.412 . S
C37 C36 1.383 . S
C37 C38 1.394 . S
C38 H28 0.929 . S
C38 C34 1.377 . S
C38 C37 1.394 . S
H39 C46 0.929 . S
H40 C49 0.930 . S
H41 C51 0.929 . S
H42 C43 0.969 . S
C43 H42 0.969 . S
C43 O44 1.550 . S
C43 H45 0.973 . S
O44 C43 1.550 . S
O44 C50 1.412 . S
H45 C43 0.973 . S
C46 H39 0.929 . S
C46 C47 1.400 . S
C46 C48 1.364 . S
C47 C46 1.400 . S
C47 C51 1.377 . S
C48 C46 1.364 . S
C48 C49 1.374 . S
C49 H40 0.930 . S
C49 C48 1.374 . S
C49 C50 1.383 . S
C50 O44 1.412 . S
C50 C49 1.383 . S
C50 C51 1.394 . S
C51 H41 0.929 . S
C51 C47 1.377 . S
C51 C50 1.394 . S
H52 C59 0.929 . S
H53 C62 0.930 . S
H54 C64 0.929 . S
H55 C56 0.969 . S
C56 H55 0.969 . S
C56 O57 1.550 . S
C56 H58 0.973 . S
O57 C56 1.550 . S
O57 C63 1.412 . S
H58 C56 0.973 . S
C59 H52 0.929 . S
C59 C60 1.400 . S
C59 C61 1.364 . S
C60 C59 1.400 . S
C60 C64 1.377 . S
C61 C59 1.364 . S
C61 C62 1.374 . S
C62 H53 0.930 . S
C62 C61 1.374 . S
C62 C63 1.383 . S
C63 O57 1.412 . S
C63 C62 1.383 . S
C63 C64 1.394 . S
C64 H54 0.929 . S
C64 C60 1.377 . S
C64 C63 1.394 . S
H65 C72 0.929 . S
H66 C75 0.930 . S
H67 C77 0.929 . S
H68 C69 0.969 . S
C69 H68 0.969 . S
C69 O70 1.550 . S
C69 H71 0.973 . S
O70 C69 1.550 . S
O70 C76 1.412 . S
H71 C69 0.973 . S
C72 H65 0.929 . S
C72 C73 1.400 . S
C72 C74 1.364 . S
C73 C72 1.400 . S
C73 C77 1.377 . S
C74 C72 1.364 . S
C74 C75 1.374 . S
C75 H66 0.930 . S
C75 C74 1.374 . S
C75 C76 1.383 . S
C76 O70 1.412 . S
C76 C75 1.383 . S
C76 C77 1.394 . S
C77 H67 0.929 . S
C77 C73 1.377 . S
C77 C76 1.394 . S
H78 C85 0.929 . S
H79 C88 0.930 . S
H80 C90 0.929 . S
H81 C82 0.969 . S
C82 H81 0.969 . S
C82 O83 1.550 . S
C82 H84 0.973 . S
O83 C82 1.550 . S
O83 C89 1.412 . S
H84 C82 0.973 . S
C85 H78 0.929 . S
C85 C86 1.400 . S
C85 C87 1.364 . S
C86 C85 1.400 . S
C86 C90 1.377 . S
C87 C85 1.364 . S
C87 C88 1.374 . S
C88 H79 0.930 . S
C88 C87 1.374 . S
C88 C89 1.383 . S
C89 O83 1.412 . S
C89 C88 1.383 . S
C89 C90 1.394 . S
C90 H80 0.929 . S
C90 C86 1.377 . S
C90 C89 1.394 . S
H91 C98 0.929 . S
H92 C101 0.930 . S
H93 C103 0.929 . S
H94 C95 0.969 . S
C95 H94 0.969 . S
C95 O96 1.550 . S
C95 H97 0.973 . S
O96 C95 1.550 . S
O96 C102 1.412 . S
H97 C95 0.973 . S
C98 H91 0.929 . S
C98 C99 1.400 . S
C98 C100 1.364 . S
C99 C98 1.400 . S
C99 C103 1.377 . S
C100 C98 1.364 . S
C100 C101 1.374 . S
C101 H92 0.930 . S
C101 C100 1.374 . S
C101 C102 1.383 . S
C102 O96 1.412 . S
C102 C101 1.383 . S
C102 C103 1.394 . S
C103 H93 0.929 . S
C103 C99 1.377 . S
C103 C102 1.394 . S
Ho104 C107 2.811 . S
Ho104 O124 2.322 . S
Ho104 O126 2.378 . S
Ho104 O127 2.524 . S
Ho104 O128 2.381 . S
Ho104 O129 2.660 1_545 S
Ho104 O131 2.346 1_545 S
Ho104 O135 2.305 . S
Ho105 C116 2.811 1_545 S
Ho105 O125 2.346 1_655 S
Ho105 O129 2.296 1_645 S
Ho105 O130 2.322 1_545 S
Ho105 O132 2.378 1_545 S
Ho105 O133 2.524 1_545 S
Ho105 O134 2.381 . S
Ho105 O135 2.669 1_655 S
C106 O124 1.259 . S
C106 O125 1.268 . S
C107 Ho104 2.811 . S
C107 C108 1.488 . S
C107 O126 1.215 . S
C107 O127 1.289 . S
C108 C107 1.488 . S
C108 C109 1.348 . S
C108 C113 1.413 . S
C109 C108 1.348 . S
C109 C110 1.442 . S
C109 H136 0.930 . S
C110 C109 1.442 . S
C110 C111 1.381 . S
C110 H137 0.931 . S
C111 C110 1.381 . S
C111 C112 1.321 . S
C112 C111 1.321 . S
C112 C113 1.403 . S
C112 H138 0.934 . S
C113 C108 1.413 . S
C113 C112 1.403 . S
C113 H139 0.930 . S
C114 O128 1.275 1_565 S
C114 O129 1.264 . S
C115 O130 1.259 . S
C115 O131 1.268 1_655 S
C116 Ho105 2.811 1_565 S
C116 C117 1.488 . S
C116 O132 1.215 . S
C116 O133 1.289 . S
C117 C116 1.488 . S
C117 C118 1.348 . S
C117 C122 1.413 . S
C118 C117 1.348 . S
C118 C119 1.442 . S
C118 H140 0.930 . S
C119 C118 1.442 . S
C119 C120 1.381 . S
C119 H141 0.931 . S
C120 C119 1.381 . S
C120 C121 1.321 . S
C121 C120 1.321 . S
C121 C122 1.403 . S
C121 H142 0.934 . S
C122 C117 1.413 . S
C122 C121 1.403 . S
C122 H143 0.930 . S
C123 O134 1.275 . S
C123 O135 1.256 1_655 S
O124 Ho104 2.322 . S
O124 C106 1.259 . S
O125 Ho105 2.346 1_455 S
O125 C106 1.268 . S
O126 Ho104 2.378 . S
O126 C107 1.215 . S
O127 Ho104 2.524 . S
O127 C107 1.289 . S
O128 Ho104 2.381 . S
O128 C114 1.275 1_545 S
O129 Ho104 2.660 1_565 S
O129 Ho105 2.296 1_465 S
O129 C114 1.264 . S
O130 Ho105 2.322 1_565 S
O130 C115 1.259 . S
O131 Ho104 2.346 1_565 S
O131 C115 1.268 1_455 S
O132 Ho105 2.378 1_565 S
O132 C116 1.215 . S
O133 Ho105 2.524 1_565 S
O133 C116 1.289 . S
O134 Ho105 2.381 . S
O134 C123 1.275 . S
O135 Ho104 2.305 . S
O135 Ho105 2.669 1_455 S
O135 C123 1.256 1_455 S
H136 C109 0.930 . S
H137 C110 0.931 . S
H138 C112 0.934 . S
H139 C113 0.930 . S
H140 C118 0.930 . S
H141 C119 0.931 . S
H142 C121 0.934 . S
H143 C122 0.930 . S
Ho144 C147 2.811 . S
Ho144 O164 2.322 . S
Ho144 O166 2.378 . S
Ho144 O167 2.524 . S
Ho144 O168 2.381 1_545 S
Ho144 O169 2.669 1_545 S
Ho144 O171 2.346 1_544 S
Ho144 O175 2.310 . S
Ho145 C156 2.811 1_545 S
Ho145 O165 2.346 1_556 S
Ho145 O169 2.305 1_546 S
Ho145 O170 2.322 1_545 S
Ho145 O172 2.378 1_545 S
Ho145 O173 2.524 1_545 S
Ho145 O174 2.381 . S
Ho145 O175 2.667 1_556 S
C146 O164 1.259 . S
C146 O165 1.268 . S
C147 Ho144 2.811 . S
C147 C148 1.488 . S
C147 O166 1.215 . S
C147 O167 1.289 . S
C148 C147 1.488 . S
C148 C149 1.348 . S
C148 C153 1.413 . S
C149 C148 1.348 . S
C149 C150 1.442 . S
C149 H176 0.930 . S
C150 C149 1.442 . S
C150 C151 1.381 . S
C150 H177 0.931 . S
C151 C150 1.381 . S
C151 C152 1.321 . S
C152 C151 1.321 . S
C152 C153 1.403 . S
C152 H178 0.934 . S
C153 C148 1.413 . S
C153 C152 1.403 . S
C153 H179 0.930 . S
C154 O168 1.275 . S
C154 O169 1.256 . S
C155 O170 1.259 . S
C155 O171 1.268 . S
C156 Ho145 2.811 1_565 S
C156 C157 1.488 . S
C156 O172 1.215 . S
C156 O173 1.289 . S
C157 C156 1.488 . S
C157 C158 1.348 . S
C157 C162 1.413 . S
C158 C157 1.348 . S
C158 C159 1.442 . S
C158 H180 0.930 . S
C159 C158 1.442 . S
C159 C160 1.381 . S
C159 H181 0.931 . S
C160 C159 1.381 . S
C160 C161 1.321 . S
C161 C160 1.321 . S
C161 C162 1.403 . S
C161 H182 0.934 . S
C162 C157 1.413 . S
C162 C161 1.403 . S
C162 H183 0.930 . S
C163 O174 1.275 . S
C163 O175 1.250 1_556 S
O164 Ho144 2.322 . S
O164 C146 1.259 . S
O165 Ho145 2.346 1_554 S
O165 C146 1.268 . S
O166 Ho144 2.378 . S
O166 C147 1.215 . S
O167 Ho144 2.524 . S
O167 C147 1.289 . S
O168 Ho144 2.381 1_565 S
O168 C154 1.275 . S
O169 Ho144 2.669 1_565 S
O169 Ho145 2.305 1_564 S
O169 C154 1.256 . S
O170 Ho145 2.322 1_565 S
O170 C155 1.259 . S
O171 Ho144 2.346 1_566 S
O171 C155 1.268 . S
O172 Ho145 2.378 1_565 S
O172 C156 1.215 . S
O173 Ho145 2.524 1_565 S
O173 C156 1.289 . S
O174 Ho145 2.381 . S
O174 C163 1.275 . S
O175 Ho144 2.310 . S
O175 Ho145 2.667 1_554 S
O175 C163 1.250 1_554 S
H176 C149 0.930 . S
H177 C150 0.931 . S
H178 C152 0.934 . S
H179 C153 0.930 . S
H180 C158 0.930 . S
H181 C159 0.931 . S
H182 C161 0.934 . S
H183 C162 0.930 . S
Ho184 C187 2.811 . S
Ho184 O204 2.322 . S
Ho184 O206 2.378 . S
Ho184 O207 2.524 . S
Ho184 O208 2.381 . S
Ho184 O209 2.669 . S
Ho184 O211 2.346 . S
Ho184 O215 2.305 . S
Ho185 C196 2.811 . S
Ho185 O205 2.346 . S
Ho185 O209 2.305 . S
Ho185 O210 2.322 . S
Ho185 O212 2.378 . S
Ho185 O213 2.524 . S
Ho185 O214 2.381 . S
Ho185 O215 2.669 . S
C186 O204 1.259 . S
C186 O205 1.268 . S
C187 Ho184 2.811 . S
C187 C188 1.488 . S
C187 O206 1.215 . S
C187 O207 1.289 . S
C188 C187 1.488 . S
C188 C189 1.348 . S
C188 C193 1.413 . S
C189 C188 1.348 . S
C189 C190 1.442 . S
C189 H216 0.930 . S
C190 C189 1.442 . S
C190 C191 1.381 . S
C190 H217 0.931 . S
C191 C190 1.381 . S
C191 C192 1.321 . S
C192 C191 1.321 . S
C192 C193 1.403 . S
C192 H218 0.934 . S
C193 C188 1.413 . S
C193 C192 1.403 . S
C193 H219 0.930 . S
C194 O208 1.275 . S
C194 O209 1.256 . S
C195 O210 1.259 . S
C195 O211 1.268 . S
C196 Ho185 2.811 . S
C196 C197 1.488 . S
C196 O212 1.215 . S
C196 O213 1.289 . S
C197 C196 1.488 . S
C197 C198 1.348 . S
C197 C202 1.413 . S
C198 C197 1.348 . S
C198 C199 1.442 . S
C198 H220 0.930 . S
C199 C198 1.442 . S
C199 C200 1.381 . S
C199 H221 0.931 . S
C200 C199 1.381 . S
C200 C201 1.321 . S
C201 C200 1.321 . S
C201 C202 1.403 . S
C201 H222 0.934 . S
C202 C197 1.413 . S
C202 C201 1.403 . S
C202 H223 0.930 . S
C203 O214 1.275 . S
C203 O215 1.256 . S
O204 Ho184 2.322 . S
O204 C186 1.259 . S
O205 Ho185 2.346 . S
O205 C186 1.268 . S
O206 Ho184 2.378 . S
O206 C187 1.215 . S
O207 Ho184 2.524 . S
O207 C187 1.289 . S
O208 Ho184 2.381 . S
O208 C194 1.275 . S
O209 Ho184 2.669 . S
O209 Ho185 2.305 . S
O209 C194 1.256 . S
O210 Ho185 2.322 . S
O210 C195 1.259 . S
O211 Ho184 2.346 . S
O211 C195 1.268 . S
O212 Ho185 2.378 . S
O212 C196 1.215 . S
O213 Ho185 2.524 . S
O213 C196 1.289 . S
O214 Ho185 2.381 . S
O214 C203 1.275 . S
O215 Ho184 2.305 . S
O215 Ho185 2.669 . S
O215 C203 1.256 . S
H216 C189 0.930 . S
H217 C190 0.931 . S
H218 C192 0.934 . S
H219 C193 0.930 . S
H220 C198 0.930 . S
H221 C199 0.931 . S
H222 C201 0.934 . S
H223 C202 0.930 . S
Ho224 C227 2.811 . S
Ho224 O244 2.322 . S
Ho224 O246 2.378 . S
Ho224 O247 2.524 . S
Ho224 O248 2.381 . S
Ho224 O249 2.669 . S
Ho224 O251 2.346 1_455 S
Ho224 O255 2.305 . S
Ho225 C236 2.811 1_454 S
Ho225 O245 2.346 . S
Ho225 O249 2.305 . S
Ho225 O250 2.322 1_454 S
Ho225 O252 2.378 1_554 S
Ho225 O253 2.524 1_455 S
Ho225 O254 2.381 1_554 S
Ho225 O255 2.669 . S
C226 O244 1.259 . S
C226 O245 1.268 . S
C227 Ho224 2.811 . S
C227 C228 1.488 . S
C227 O246 1.215 . S
C227 O247 1.289 . S
C228 C227 1.488 . S
C228 C229 1.348 . S
C228 C233 1.413 . S
C229 C228 1.348 . S
C229 C230 1.442 . S
C229 H256 0.930 . S
C230 C229 1.442 . S
C230 C231 1.381 . S
C230 H257 0.931 . S
C231 C230 1.381 . S
C231 C232 1.321 . S
C232 C231 1.321 . S
C232 C233 1.403 . S
C232 H258 0.934 . S
C233 C228 1.413 . S
C233 C232 1.403 . S
C233 H259 0.930 . S
C234 O248 1.275 . S
C234 O249 1.256 . S
C235 O250 1.259 1_554 S
C235 O251 1.268 . S
C236 Ho225 2.811 1_656 S
C236 C237 1.488 . S
C236 O252 1.215 1_655 S
C236 O253 1.289 1_556 S
C237 C236 1.488 . S
C237 C238 1.348 . S
C237 C242 1.413 . S
C238 C237 1.348 . S
C238 C239 1.442 . S
C238 H260 0.930 1_556 S
C239 C238 1.442 . S
C239 C240 1.381 . S
C239 H261 0.931 . S
C240 C239 1.381 . S
C240 C241 1.321 . S
C241 C240 1.321 . S
C241 C242 1.403 . S
C241 H262 0.934 . S
C242 C237 1.413 . S
C242 C241 1.403 . S
C242 H263 0.930 . S
C243 O254 1.275 . S
C243 O255 1.256 1_556 S
O244 Ho224 2.322 . S
O244 C226 1.259 . S
O245 Ho225 2.346 . S
O245 C226 1.268 . S
O246 Ho224 2.378 . S
O246 C227 1.215 . S
O247 Ho224 2.524 . S
O247 C227 1.289 . S
O248 Ho224 2.381 . S
O248 C234 1.275 . S
O249 Ho224 2.669 . S
O249 Ho225 2.305 . S
O249 C234 1.256 . S
O250 Ho225 2.322 1_656 S
O250 C235 1.259 1_556 S
O251 Ho224 2.346 1_655 S
O251 C235 1.268 . S
O252 Ho225 2.378 1_556 S
O252 C236 1.215 1_455 S
O253 Ho225 2.524 1_655 S
O253 C236 1.289 1_554 S
O254 Ho225 2.381 1_556 S
O254 C243 1.275 . S
O255 Ho224 2.305 . S
O255 Ho225 2.669 . S
O255 C243 1.256 1_554 S
H256 C229 0.930 . S
H257 C230 0.931 . S
H258 C232 0.934 . S
H259 C233 0.930 . S
H260 C238 0.930 1_554 S
H261 C239 0.931 . S
H262 C241 0.934 . S
H263 C242 0.930 . S
C264 C265 1.391 . S
C264 C266 1.394 . S
C264 H280 0.931 . S
C265 C264 1.391 . S
C265 C269 1.376 . S
C266 C264 1.394 . S
C266 C267 1.369 . S
C266 C270 1.531 . S
C267 C266 1.369 . S
C267 C268 1.410 . S
C267 C275 1.503 . S
C268 C267 1.410 . S
C268 C269 1.392 . S
C268 C271 1.511 . S
C269 C265 1.376 . S
C269 C268 1.392 . S
C269 H281 0.929 . S
C270 C266 1.531 . S
C270 H282 0.960 . S
C270 H283 0.962 . S
C270 H284 0.960 . S
C271 C268 1.511 . S
C271 H285 0.961 . S
C271 H286 0.961 . S
C271 H287 0.961 . S
C272 C273 1.370 . S
C272 C274 1.363 . S
C272 H288 0.931 . S
C273 C272 1.370 . S
C273 C277 1.408 . S
C274 C272 1.363 . S
C274 C275 1.370 . S
C274 C278 1.524 . S
C275 C267 1.503 . S
C275 C274 1.370 . S
C275 C276 1.403 . S
C276 C275 1.403 . S
C276 C277 1.404 . S
C276 C279 1.539 . S
C277 C273 1.408 . S
C277 C276 1.404 . S
C277 H289 0.930 . S
C278 C274 1.524 . S
C278 H290 0.956 . S
C278 H291 0.961 . S
C278 H292 0.961 . S
C279 C276 1.539 . S
C279 H293 0.958 . S
C279 H294 0.961 . S
C279 H295 0.960 . S
H280 C264 0.931 . S
H281 C269 0.929 . S
H282 C270 0.960 . S
H283 C270 0.962 . S
H284 C270 0.960 . S
H285 C271 0.961 . S
H286 C271 0.961 . S
H287 C271 0.961 . S
H288 C272 0.931 . S
H289 C277 0.930 . S
H290 C278 0.956 . S
H291 C278 0.961 . S
H292 C278 0.961 . S
H293 C279 0.958 . S
H294 C279 0.961 . S
H295 C279 0.960 . S
C296 C297 1.391 . S
C296 C298 1.394 . S
C296 H312 0.931 . S
C297 C296 1.391 . S
C297 C301 1.376 . S
C298 C296 1.394 . S
C298 C299 1.369 . S
C298 C302 1.531 . S
C299 C298 1.369 . S
C299 C300 1.410 . S
C299 C307 1.503 . S
C300 C299 1.410 . S
C300 C301 1.392 . S
C300 C303 1.511 . S
C301 C297 1.376 . S
C301 C300 1.392 . S
C301 H313 0.929 . S
C302 C298 1.531 . S
C302 H314 0.960 . S
C302 H315 0.962 . S
C302 H316 0.960 . S
C303 C300 1.511 . S
C303 H317 0.961 . S
C303 H318 0.961 . S
C303 H319 0.961 . S
C304 C305 1.370 . S
C304 C306 1.363 . S
C304 H320 0.931 . S
C305 C304 1.370 . S
C305 C309 1.408 . S
C306 C304 1.363 . S
C306 C307 1.370 . S
C306 C310 1.524 . S
C307 C299 1.503 . S
C307 C306 1.370 . S
C307 C308 1.403 . S
C308 C307 1.403 . S
C308 C309 1.404 . S
C308 C311 1.539 . S
C309 C305 1.408 . S
C309 C308 1.404 . S
C309 H321 0.930 . S
C310 C306 1.524 . S
C310 H322 0.956 . S
C310 H323 0.961 . S
C310 H324 0.961 . S
C311 C308 1.539 . S
C311 H325 0.958 . S
C311 H326 0.961 . S
C311 H327 0.960 . S
H312 C296 0.931 . S
H313 C301 0.929 . S
H314 C302 0.960 . S
H315 C302 0.962 . S
H316 C302 0.960 . S
H317 C303 0.961 . S
H318 C303 0.961 . S
H319 C303 0.961 . S
H320 C304 0.931 . S
H321 C309 0.930 . S
H322 C310 0.956 . S
H323 C310 0.961 . S
H324 C310 0.961 . S
H325 C311 0.958 . S
H326 C311 0.961 . S
H327 C311 0.960 . S
C328 C329 1.391 . S
C328 C330 1.394 . S
C328 H344 0.931 . S
C329 C328 1.391 . S
C329 C333 1.376 . S
C330 C328 1.394 . S
C330 C331 1.369 . S
C330 C334 1.531 . S
C331 C330 1.369 . S
C331 C332 1.410 . S
C331 C339 1.503 . S
C332 C331 1.410 . S
C332 C333 1.392 . S
C332 C335 1.511 . S
C333 C329 1.376 . S
C333 C332 1.392 . S
C333 H345 0.929 . S
C334 C330 1.531 . S
C334 H346 0.960 . S
C334 H347 0.962 . S
C334 H348 0.960 . S
C335 C332 1.511 . S
C335 H349 0.961 . S
C335 H350 0.961 . S
C335 H351 0.961 . S
C336 C337 1.370 . S
C336 C338 1.363 . S
C336 H352 0.931 . S
C337 C336 1.370 . S
C337 C341 1.408 . S
C338 C336 1.363 . S
C338 C339 1.370 . S
C338 C342 1.524 . S
C339 C331 1.503 . S
C339 C338 1.370 . S
C339 C340 1.403 . S
C340 C339 1.403 . S
C340 C341 1.404 . S
C340 C343 1.539 . S
C341 C337 1.408 . S
C341 C340 1.404 . S
C341 H353 0.930 . S
C342 C338 1.524 . S
C342 H354 0.956 . S
C342 H355 0.961 . S
C342 H356 0.961 . S
C343 C340 1.539 . S
C343 H357 0.958 . S
C343 H358 0.961 . S
C343 H359 0.960 . S
H344 C328 0.931 . S
H345 C333 0.929 . S
H346 C334 0.960 . S
H347 C334 0.962 . S
H348 C334 0.960 . S
H349 C335 0.961 . S
H350 C335 0.961 . S
H351 C335 0.961 . S
H352 C336 0.931 . S
H353 C341 0.930 . S
H354 C342 0.956 . S
H355 C342 0.961 . S
H356 C342 0.961 . S
H357 C343 0.958 . S
H358 C343 0.961 . S
H359 C343 0.960 . S
C360 C361 1.391 . S
C360 C362 1.394 . S
C360 H376 0.931 . S
C361 C360 1.391 . S
C361 C365 1.376 . S
C362 C360 1.394 . S
C362 C363 1.369 . S
C362 C366 1.531 . S
C363 C362 1.369 . S
C363 C364 1.410 . S
C363 C371 1.503 . S
C364 C363 1.410 . S
C364 C365 1.392 . S
C364 C367 1.511 . S
C365 C361 1.376 . S
C365 C364 1.392 . S
C365 H377 0.929 . S
C366 C362 1.531 . S
C366 H378 0.960 . S
C366 H379 0.962 . S
C366 H380 0.960 . S
C367 C364 1.511 . S
C367 H381 0.961 . S
C367 H382 0.961 . S
C367 H383 0.961 1_655 S
C368 C369 1.370 . S
C368 C370 1.363 . S
C368 H384 0.931 . S
C369 C368 1.370 . S
C369 C373 1.408 1_655 S
C370 C368 1.363 . S
C370 C371 1.370 . S
C370 C374 1.524 . S
C371 C363 1.503 . S
C371 C370 1.370 . S
C371 C372 1.403 1_655 S
C372 C371 1.403 1_455 S
C372 C373 1.404 . S
C372 C375 1.539 . S
C373 C369 1.408 1_455 S
C373 C372 1.404 . S
C373 H385 0.930 . S
C374 C370 1.524 . S
C374 H386 0.956 . S
C374 H387 0.961 . S
C374 H388 0.961 . S
C375 C372 1.539 . S
C375 H389 0.958 . S
C375 H390 0.961 . S
C375 H391 0.960 . S
H376 C360 0.931 . S
H377 C365 0.929 . S
H378 C366 0.960 . S
H379 C366 0.962 . S
H380 C366 0.960 . S
H381 C367 0.961 . S
H382 C367 0.961 . S
H383 C367 0.961 1_455 S
H384 C368 0.931 . S
H385 C373 0.930 . S
H386 C374 0.956 . S
H387 C374 0.961 . S
H388 C374 0.961 . S
H389 C375 0.958 . S
H390 C375 0.961 . S
H391 C375 0.960 . S
C392 C393 1.391 . S
C392 C394 1.394 . S
C392 H408 0.931 . S
C393 C392 1.391 . S
C393 C397 1.376 . S
C394 C392 1.394 . S
C394 C395 1.369 . S
C394 C398 1.531 . S
C395 C394 1.369 . S
C395 C396 1.410 . S
C395 C403 1.503 . S
C396 C395 1.410 . S
C396 C397 1.392 . S
C396 C399 1.511 . S
C397 C393 1.376 . S
C397 C396 1.392 . S
C397 H409 0.929 . S
C398 C394 1.531 . S
C398 H410 0.960 . S
C398 H411 0.962 . S
C398 H412 0.960 . S
C399 C396 1.511 . S
C399 H413 0.961 . S
C399 H414 0.961 . S
C399 H415 0.961 . S
C400 C401 1.370 . S
C400 C402 1.363 . S
C400 H416 0.931 . S
C401 C400 1.370 . S
C401 C405 1.408 . S
C402 C400 1.363 . S
C402 C403 1.370 . S
C402 C406 1.524 . S
C403 C395 1.503 . S
C403 C402 1.370 . S
C403 C404 1.403 . S
C404 C403 1.403 . S
C404 C405 1.404 . S
C404 C407 1.539 . S
C405 C401 1.408 . S
C405 C404 1.404 . S
C405 H417 0.930 . S
C406 C402 1.524 . S
C406 H418 0.956 . S
C406 H419 0.961 . S
C406 H420 0.961 . S
C407 C404 1.539 . S
C407 H421 0.958 . S
C407 H422 0.961 . S
C407 H423 0.960 . S
H408 C392 0.931 . S
H409 C397 0.929 . S
H410 C398 0.960 . S
H411 C398 0.962 . S
H412 C398 0.960 . S
H413 C399 0.961 . S
H414 C399 0.961 . S
H415 C399 0.961 . S
H416 C400 0.931 . S
H417 C405 0.930 . S
H418 C406 0.956 . S
H419 C406 0.961 . S
H420 C406 0.961 . S
H421 C407 0.958 . S
H422 C407 0.961 . S
H423 C407 0.960 . S
C424 C425 1.391 . S
C424 C426 1.394 . S
C424 H440 0.931 . S
C425 C424 1.391 . S
C425 C429 1.376 . S
C426 C424 1.394 . S
C426 C427 1.369 . S
C426 C430 1.531 . S
C427 C426 1.369 . S
C427 C428 1.410 . S
C427 C435 1.503 . S
C428 C427 1.410 . S
C428 C429 1.392 . S
C428 C431 1.511 . S
C429 C425 1.376 . S
C429 C428 1.392 . S
C429 H441 0.929 . S
C430 C426 1.531 . S
C430 H442 0.960 . S
C430 H443 0.962 . S
C430 H444 0.960 . S
C431 C428 1.511 . S
C431 H445 0.961 . S
C431 H446 0.961 . S
C431 H447 0.961 . S
C432 C433 1.370 . S
C432 C434 1.363 . S
C432 H448 0.931 . S
C433 C432 1.370 . S
C433 C437 1.408 . S
C434 C432 1.363 . S
C434 C435 1.370 . S
C434 C438 1.524 . S
C435 C427 1.503 . S
C435 C434 1.370 . S
C435 C436 1.403 . S
C436 C435 1.403 . S
C436 C437 1.404 . S
C436 C439 1.539 . S
C437 C433 1.408 . S
C437 C436 1.404 . S
C437 H449 0.930 . S
C438 C434 1.524 . S
C438 H450 0.956 . S
C438 H451 0.961 . S
C438 H452 0.961 . S
C439 C436 1.539 . S
C439 H453 0.958 . S
C439 H454 0.961 . S
C439 H455 0.960 . S
H440 C424 0.931 . S
H441 C429 0.929 . S
H442 C430 0.960 . S
H443 C430 0.962 . S
H444 C430 0.960 . S
H445 C431 0.961 . S
H446 C431 0.961 . S
H447 C431 0.961 . S
H448 C432 0.931 . S
H449 C437 0.930 . S
H450 C438 0.956 . S
H451 C438 0.961 . S
H452 C438 0.961 . S
H453 C439 0.958 . S
H454 C439 0.961 . S
H455 C439 0.960 . S
C456 C457 1.391 . S
C456 C458 1.394 . S
C456 H472 0.931 . S
C457 C456 1.391 . S
C457 C461 1.376 . S
C458 C456 1.394 . S
C458 C459 1.369 . S
C458 C462 1.531 . S
C459 C458 1.369 . S
C459 C460 1.410 . S
C459 C467 1.503 . S
C460 C459 1.410 . S
C460 C461 1.392 . S
C460 C463 1.511 . S
C461 C457 1.376 . S
C461 C460 1.392 . S
C461 H473 0.929 . S
C462 C458 1.531 . S
C462 H474 0.960 . S
C462 H475 0.962 . S
C462 H476 0.960 . S
C463 C460 1.511 . S
C463 H477 0.961 . S
C463 H478 0.961 . S
C463 H479 0.961 . S
C464 C465 1.370 . S
C464 C466 1.363 . S
C464 H480 0.931 . S
C465 C464 1.370 . S
C465 C469 1.408 . S
C466 C464 1.363 . S
C466 C467 1.370 . S
C466 C470 1.524 . S
C467 C459 1.503 . S
C467 C466 1.370 . S
C467 C468 1.403 . S
C468 C467 1.403 . S
C468 C469 1.404 . S
C468 C471 1.539 . S
C469 C465 1.408 . S
C469 C468 1.404 . S
C469 H481 0.930 1_556 S
C470 C466 1.524 . S
C470 H482 0.956 . S
C470 H483 0.961 . S
C470 H484 0.961 . S
C471 C468 1.539 . S
C471 H485 0.958 . S
C471 H486 0.961 . S
C471 H487 0.960 . S
H472 C456 0.931 . S
H473 C461 0.929 . S
H474 C462 0.960 . S
H475 C462 0.962 . S
H476 C462 0.960 . S
H477 C463 0.961 . S
H478 C463 0.961 . S
H479 C463 0.961 . S
H480 C464 0.931 . S
H481 C469 0.930 1_554 S
H482 C470 0.956 . S
H483 C470 0.961 . S
H484 C470 0.961 . S
H485 C471 0.958 . S
H486 C471 0.961 . S
H487 C471 0.960 . S
C488 C489 1.391 . S
C488 C490 1.394 . S
C488 H504 0.931 . S
C489 C488 1.391 . S
C489 C493 1.376 . S
C490 C488 1.394 . S
C490 C491 1.369 . S
C490 C494 1.531 . S
C491 C490 1.369 . S
C491 C492 1.410 . S
C491 C499 1.503 . S
C492 C491 1.410 . S
C492 C493 1.392 . S
C492 C495 1.511 . S
C493 C489 1.376 . S
C493 C492 1.392 . S
C493 H505 0.929 . S
C494 C490 1.531 . S
C494 H506 0.960 . S
C494 H507 0.962 . S
C494 H508 0.960 . S
C495 C492 1.511 . S
C495 H509 0.961 . S
C495 H510 0.961 . S
C495 H511 0.961 . S
C496 C497 1.370 . S
C496 C498 1.363 . S
C496 H512 0.931 . S
C497 C496 1.370 . S
C497 C501 1.408 . S
C498 C496 1.363 . S
C498 C499 1.370 . S
C498 C502 1.524 . S
C499 C491 1.503 . S
C499 C498 1.370 . S
C499 C500 1.403 . S
C500 C499 1.403 . S
C500 C501 1.404 . S
C500 C503 1.539 . S
C501 C497 1.408 . S
C501 C500 1.404 . S
C501 H513 0.930 . S
C502 C498 1.524 . S
C502 H514 0.956 . S
C502 H515 0.961 . S
C502 H516 0.961 . S
C503 C500 1.539 . S
C503 H517 0.958 . S
C503 H518 0.961 . S
C503 H519 0.960 . S
H504 C488 0.931 . S
H505 C493 0.929 . S
H506 C494 0.960 . S
H507 C494 0.962 . S
H508 C494 0.960 . S
H509 C495 0.961 . S
H510 C495 0.961 . S
H511 C495 0.961 . S
H512 C496 0.931 . S
H513 C501 0.930 . S
H514 C502 0.956 . S
H515 C502 0.961 . S
H516 C502 0.961 . S
H517 C503 0.958 . S
H518 C503 0.961 . S
H519 C503 0.960 . S
C520 C521 1.391 . S
C520 C522 1.394 . S
C520 H536 0.931 . S
C521 C520 1.391 . S
C521 C525 1.376 . S
C522 C520 1.394 . S
C522 C523 1.369 . S
C522 C526 1.531 . S
C523 C522 1.369 . S
C523 C524 1.410 . S
C523 C531 1.503 . S
C524 C523 1.410 . S
C524 C525 1.392 . S
C524 C527 1.511 . S
C525 C521 1.376 . S
C525 C524 1.392 . S
C525 H537 0.929 . S
C526 C522 1.531 . S
C526 H538 0.960 . S
C526 H539 0.962 . S
C526 H540 0.960 . S
C527 C524 1.511 . S
C527 H541 0.961 . S
C527 H542 0.961 . S
C527 H543 0.961 . S
C528 C529 1.370 . S
C528 C530 1.363 . S
C528 H544 0.931 . S
C529 C528 1.370 . S
C529 C533 1.408 . S
C530 C528 1.363 . S
C530 C531 1.370 . S
C530 C534 1.524 . S
C531 C523 1.503 . S
C531 C530 1.370 . S
C531 C532 1.403 . S
C532 C531 1.403 . S
C532 C533 1.404 . S
C532 C535 1.539 . S
C533 C529 1.408 . S
C533 C532 1.404 . S
C533 H545 0.930 . S
C534 C530 1.524 . S
C534 H546 0.956 . S
C534 H547 0.961 . S
C534 H548 0.961 . S
C535 C532 1.539 . S
C535 H549 0.958 . S
C535 H550 0.961 . S
C535 H551 0.960 . S
H536 C520 0.931 . S
H537 C525 0.929 . S
H538 C526 0.960 . S
H539 C526 0.962 . S
H540 C526 0.960 . S
H541 C527 0.961 . S
H542 C527 0.961 . S
H543 C527 0.961 . S
H544 C528 0.931 . S
H545 C533 0.930 . S
H546 C534 0.956 . S
H547 C534 0.961 . S
H548 C534 0.961 . S
H549 C535 0.958 . S
H550 C535 0.961 . S
H551 C535 0.960 . S
C552 C553 1.391 . S
C552 C554 1.394 . S
C552 H568 0.931 . S
C553 C552 1.391 . S
C553 C557 1.376 . S
C554 C552 1.394 . S
C554 C555 1.369 . S
C554 C558 1.531 . S
C555 C554 1.369 . S
C555 C556 1.410 . S
C555 C563 1.503 . S
C556 C555 1.410 . S
C556 C557 1.392 . S
C556 C559 1.511 . S
C557 C553 1.376 . S
C557 C556 1.392 . S
C557 H569 0.929 . S
C558 C554 1.531 . S
C558 H570 0.960 . S
C558 H571 0.962 . S
C558 H572 0.960 . S
C559 C556 1.511 . S
C559 H573 0.961 . S
C559 H574 0.961 . S
C559 H575 0.961 . S
C560 C561 1.370 . S
C560 C562 1.363 . S
C560 H576 0.931 . S
C561 C560 1.370 . S
C561 C565 1.408 . S
C562 C560 1.363 . S
C562 C563 1.370 . S
C562 C566 1.524 . S
C563 C555 1.503 . S
C563 C562 1.370 . S
C563 C564 1.403 . S
C564 C563 1.403 . S
C564 C565 1.404 . S
C564 C567 1.539 . S
C565 C561 1.408 . S
C565 C564 1.404 . S
C565 H577 0.930 . S
C566 C562 1.524 . S
C566 H578 0.956 . S
C566 H579 0.961 . S
C566 H580 0.961 . S
C567 C564 1.539 . S
C567 H581 0.958 . S
C567 H582 0.961 . S
C567 H583 0.960 . S
H568 C552 0.931 . S
H569 C557 0.929 . S
H570 C558 0.960 . S
H571 C558 0.962 . S
H572 C558 0.960 . S
H573 C559 0.961 . S
H574 C559 0.961 . S
H575 C559 0.961 . S
H576 C560 0.931 . S
H577 C565 0.930 . S
H578 C566 0.956 . S
H579 C566 0.961 . S
H580 C566 0.961 . S
H581 C567 0.958 . S
H582 C567 0.961 . S
H583 C567 0.960 . S
C584 C585 1.391 . S
C584 C586 1.394 . S
C584 H600 0.931 . S
C585 C584 1.391 . S
C585 C589 1.376 . S
C586 C584 1.394 . S
C586 C587 1.369 . S
C586 C590 1.531 . S
C587 C586 1.369 . S
C587 C588 1.410 . S
C587 C595 1.503 . S
C588 C587 1.410 . S
C588 C589 1.392 . S
C588 C591 1.511 . S
C589 C585 1.376 . S
C589 C588 1.392 . S
C589 H601 0.929 . S
C590 C586 1.531 . S
C590 H602 0.960 . S
C590 H603 0.962 1_655 S
C590 H604 0.960 . S
C591 C588 1.511 . S
C591 H605 0.961 . S
C591 H606 0.961 . S
C591 H607 0.961 . S
C592 C593 1.370 . S
C592 C594 1.363 . S
C592 H608 0.931 . S
C593 C592 1.370 . S
C593 C597 1.408 . S
C594 C592 1.363 . S
C594 C595 1.370 . S
C594 C598 1.524 . S
C595 C587 1.503 . S
C595 C594 1.370 . S
C595 C596 1.403 . S
C596 C595 1.403 . S
C596 C597 1.404 . S
C596 C599 1.539 . S
C597 C593 1.408 . S
C597 C596 1.404 . S
C597 H609 0.930 . S
C598 C594 1.524 . S
C598 H610 0.956 . S
C598 H611 0.961 . S
C598 H612 0.961 . S
C599 C596 1.539 . S
C599 H613 0.958 . S
C599 H614 0.961 . S
C599 H615 0.960 . S
H600 C584 0.931 . S
H601 C589 0.929 . S
H602 C590 0.960 . S
H603 C590 0.962 1_455 S
H604 C590 0.960 . S
H605 C591 0.961 . S
H606 C591 0.961 . S
H607 C591 0.961 . S
H608 C592 0.931 . S
H609 C597 0.930 . S
H610 C598 0.956 . S
H611 C598 0.961 . S
H612 C598 0.961 . S
H613 C599 0.958 . S
H614 C599 0.961 . S
H615 C599 0.960 . S
C616 C617 1.391 . S
C616 C618 1.394 . S
C616 H632 0.931 . S
C617 C616 1.391 . S
C617 C621 1.376 . S
C618 C616 1.394 . S
C618 C619 1.369 . S
C618 C622 1.531 . S
C619 C618 1.369 . S
C619 C620 1.410 . S
C619 C627 1.503 . S
C620 C619 1.410 . S
C620 C621 1.392 . S
C620 C623 1.511 . S
C621 C617 1.376 . S
C621 C620 1.392 . S
C621 H633 0.929 . S
C622 C618 1.531 . S
C622 H634 0.960 . S
C622 H635 0.962 . S
C622 H636 0.960 . S
C623 C620 1.511 . S
C623 H637 0.961 . S
C623 H638 0.961 . S
C623 H639 0.961 . S
C624 C625 1.370 . S
C624 C626 1.363 . S
C624 H640 0.931 . S
C625 C624 1.370 . S
C625 C629 1.408 . S
C626 C624 1.363 . S
C626 C627 1.370 . S
C626 C630 1.524 . S
C627 C619 1.503 . S
C627 C626 1.370 . S
C627 C628 1.403 . S
C628 C627 1.403 . S
C628 C629 1.404 . S
C628 C631 1.539 . S
C629 C625 1.408 . S
C629 C628 1.404 . S
C629 H641 0.930 . S
C630 C626 1.524 . S
C630 H642 0.956 . S
C630 H643 0.961 . S
C630 H644 0.961 . S
C631 C628 1.539 . S
C631 H645 0.958 . S
C631 H646 0.961 . S
C631 H647 0.960 . S
H632 C616 0.931 . S
H633 C621 0.929 . S
H634 C622 0.960 . S
H635 C622 0.962 . S
H636 C622 0.960 . S
H637 C623 0.961 . S
H638 C623 0.961 . S
H639 C623 0.961 . S
H640 C624 0.931 . S
H641 C629 0.930 . S
H642 C630 0.956 . S
H643 C630 0.961 . S
H644 C630 0.961 . S
H645 C631 0.958 . S
H646 C631 0.961 . S
H647 C631 0.960 . S
C648 C649 1.391 . S
C648 C650 1.394 . S
C648 H664 0.931 . S
C649 C648 1.391 . S
C649 C653 1.376 . S
C650 C648 1.394 . S
C650 C651 1.369 . S
C650 C654 1.531 . S
C651 C650 1.369 . S
C651 C652 1.410 . S
C651 C659 1.503 . S
C652 C651 1.410 . S
C652 C653 1.392 . S
C652 C655 1.511 . S
C653 C649 1.376 . S
C653 C652 1.392 . S
C653 H665 0.929 . S
C654 C650 1.531 . S
C654 H666 0.960 . S
C654 H667 0.962 . S
C654 H668 0.960 . S
C655 C652 1.511 . S
C655 H669 0.961 . S
C655 H670 0.961 . S
C655 H671 0.961 . S
C656 C657 1.370 . S
C656 C658 1.363 . S
C656 H672 0.931 . S
C657 C656 1.370 . S
C657 C661 1.408 . S
C658 C656 1.363 . S
C658 C659 1.370 . S
C658 C662 1.524 . S
C659 C651 1.503 . S
C659 C658 1.370 . S
C659 C660 1.403 . S
C660 C659 1.403 . S
C660 C661 1.404 . S
C660 C663 1.539 . S
C661 C657 1.408 . S
C661 C660 1.404 . S
C661 H673 0.930 . S
C662 C658 1.524 . S
C662 H674 0.956 . S
C662 H675 0.961 . S
C662 H676 0.961 . S
C663 C660 1.539 . S
C663 H677 0.958 . S
C663 H678 0.961 . S
C663 H679 0.960 . S
H664 C648 0.931 . S
H665 C653 0.929 . S
H666 C654 0.960 . S
H667 C654 0.962 . S
H668 C654 0.960 . S
H669 C655 0.961 . S
H670 C655 0.961 . S
H671 C655 0.961 . S
H672 C656 0.931 . S
H673 C661 0.930 . S
H674 C662 0.956 . S
H675 C662 0.961 . S
H676 C662 0.961 . S
H677 C663 0.958 . S
H678 C663 0.961 . S
H679 C663 0.960 . S
C680 C681 1.391 . S
C680 C682 1.394 . S
C680 H696 0.931 . S
C681 C680 1.391 . S
C681 C685 1.376 . S
C682 C680 1.394 . S
C682 C683 1.369 . S
C682 C686 1.531 . S
C683 C682 1.369 . S
C683 C684 1.410 . S
C683 C691 1.503 . S
C684 C683 1.410 . S
C684 C685 1.392 . S
C684 C687 1.511 . S
C685 C681 1.376 . S
C685 C684 1.392 . S
C685 H697 0.929 . S
C686 C682 1.531 . S
C686 H698 0.960 . S
C686 H699 0.962 . S
C686 H700 0.960 . S
C687 C684 1.511 . S
C687 H701 0.961 . S
C687 H702 0.961 . S
C687 H703 0.961 . S
C688 C689 1.370 . S
C688 C690 1.363 . S
C688 H704 0.931 . S
C689 C688 1.370 . S
C689 C693 1.408 . S
C690 C688 1.363 . S
C690 C691 1.370 . S
C690 C694 1.524 . S
C691 C683 1.503 . S
C691 C690 1.370 . S
C691 C692 1.403 . S
C692 C691 1.403 . S
C692 C693 1.404 . S
C692 C695 1.539 . S
C693 C689 1.408 . S
C693 C692 1.404 . S
C693 H705 0.930 . S
C694 C690 1.524 . S
C694 H706 0.956 . S
C694 H707 0.961 . S
C694 H708 0.961 . S
C695 C692 1.539 . S
C695 H709 0.958 . S
C695 H710 0.961 . S
C695 H711 0.960 . S
H696 C680 0.931 . S
H697 C685 0.929 . S
H698 C686 0.960 . S
H699 C686 0.962 . S
H700 C686 0.960 . S
H701 C687 0.961 . S
H702 C687 0.961 . S
H703 C687 0.961 . S
H704 C688 0.931 . S
H705 C693 0.930 . S
H706 C694 0.956 . S
H707 C694 0.961 . S
H708 C694 0.961 . S
H709 C695 0.958 . S
H710 C695 0.961 . S
H711 C695 0.960 . S
C712 C713 1.391 . S
C712 C714 1.394 . S
C712 H728 0.931 . S
C713 C712 1.391 . S
C713 C717 1.376 . S
C714 C712 1.394 . S
C714 C715 1.369 . S
C714 C718 1.531 . S
C715 C714 1.369 . S
C715 C716 1.410 . S
C715 C723 1.503 . S
C716 C715 1.410 . S
C716 C717 1.392 . S
C716 C719 1.511 . S
C717 C713 1.376 . S
C717 C716 1.392 . S
C717 H729 0.929 . S
C718 C714 1.531 . S
C718 H730 0.960 . S
C718 H731 0.962 . S
C718 H732 0.960 . S
C719 C716 1.511 . S
C719 H733 0.961 . S
C719 H734 0.961 . S
C719 H735 0.961 . S
C720 C721 1.370 . S
C720 C722 1.363 . S
C720 H736 0.931 . S
C721 C720 1.370 . S
C721 C725 1.408 . S
C722 C720 1.363 . S
C722 C723 1.370 . S
C722 C726 1.524 . S
C723 C715 1.503 . S
C723 C722 1.370 . S
C723 C724 1.403 . S
C724 C723 1.403 . S
C724 C725 1.404 . S
C724 C727 1.539 . S
C725 C721 1.408 . S
C725 C724 1.404 . S
C725 H737 0.930 . S
C726 C722 1.524 . S
C726 H738 0.956 . S
C726 H739 0.961 . S
C726 H740 0.961 . S
C727 C724 1.539 . S
C727 H741 0.958 . S
C727 H742 0.961 . S
C727 H743 0.960 . S
H728 C712 0.931 . S
H729 C717 0.929 . S
H730 C718 0.960 . S
H731 C718 0.962 . S
H732 C718 0.960 . S
H733 C719 0.961 . S
H734 C719 0.961 . S
H735 C719 0.961 . S
H736 C720 0.931 . S
H737 C725 0.930 . S
H738 C726 0.956 . S
H739 C726 0.961 . S
H740 C726 0.961 . S
H741 C727 0.958 . S
H742 C727 0.961 . S
H743 C727 0.960 . S
C744 C745 1.391 . S
C744 C746 1.394 . S
C744 H760 0.931 . S
C745 C744 1.391 . S
C745 C749 1.376 . S
C746 C744 1.394 . S
C746 C747 1.369 . S
C746 C750 1.531 . S
C747 C746 1.369 . S
C747 C748 1.410 . S
C747 C755 1.503 . S
C748 C747 1.410 . S
C748 C749 1.392 . S
C748 C751 1.511 . S
C749 C745 1.376 . S
C749 C748 1.392 . S
C749 H761 0.929 . S
C750 C746 1.531 . S
C750 H762 0.960 . S
C750 H763 0.962 . S
C750 H764 0.960 . S
C751 C748 1.511 . S
C751 H765 0.961 . S
C751 H766 0.961 . S
C751 H767 0.961 . S
C752 C753 1.370 . S
C752 C754 1.363 . S
C752 H768 0.931 . S
C753 C752 1.370 . S
C753 C757 1.408 . S
C754 C752 1.363 . S
C754 C755 1.370 . S
C754 C758 1.524 . S
C755 C747 1.503 . S
C755 C754 1.370 . S
C755 C756 1.403 . S
C756 C755 1.403 . S
C756 C757 1.404 . S
C756 C759 1.539 . S
C757 C753 1.408 . S
C757 C756 1.404 . S
C757 H769 0.930 . S
C758 C754 1.524 . S
C758 H770 0.956 . S
C758 H771 0.961 . S
C758 H772 0.961 . S
C759 C756 1.539 . S
C759 H773 0.958 . S
C759 H774 0.961 . S
C759 H775 0.960 . S
H760 C744 0.931 . S
H761 C749 0.929 . S
H762 C750 0.960 . S
H763 C750 0.962 . S
H764 C750 0.960 . S
H765 C751 0.961 . S
H766 C751 0.961 . S
H767 C751 0.961 . S
H768 C752 0.931 . S
H769 C757 0.930 . S
H770 C758 0.956 . S
H771 C758 0.961 . S
H772 C758 0.961 . S
H773 C759 0.958 . S
H774 C759 0.961 . S
H775 C759 0.960 . S
C776 C777 1.391 . S
C776 C778 1.394 . S
C776 H792 0.931 . S
C777 C776 1.391 . S
C777 C781 1.376 . S
C778 C776 1.394 . S
C778 C779 1.369 . S
C778 C782 1.531 . S
C779 C778 1.369 . S
C779 C780 1.410 . S
C779 C787 1.503 . S
C780 C779 1.410 . S
C780 C781 1.392 . S
C780 C783 1.511 . S
C781 C777 1.376 . S
C781 C780 1.392 . S
C781 H793 0.929 . S
C782 C778 1.531 . S
C782 H794 0.960 . S
C782 H795 0.962 . S
C782 H796 0.960 . S
C783 C780 1.511 . S
C783 H797 0.961 . S
C783 H798 0.961 . S
C783 H799 0.961 . S
C784 C785 1.370 . S
C784 C786 1.363 . S
C784 H800 0.931 . S
C785 C784 1.370 . S
C785 C789 1.408 . S
C786 C784 1.363 . S
C786 C787 1.370 . S
C786 C790 1.524 . S
C787 C779 1.503 . S
C787 C786 1.370 . S
C787 C788 1.403 . S
C788 C787 1.403 . S
C788 C789 1.404 . S
C788 C791 1.539 . S
C789 C785 1.408 . S
C789 C788 1.404 . S
C789 H801 0.930 . S
C790 C786 1.524 . S
C790 H802 0.956 . S
C790 H803 0.961 . S
C790 H804 0.961 . S
C791 C788 1.539 . S
C791 H805 0.958 . S
C791 H806 0.961 . S
C791 H807 0.960 . S
H792 C776 0.931 . S
H793 C781 0.929 . S
H794 C782 0.960 . S
H795 C782 0.962 . S
H796 C782 0.960 . S
H797 C783 0.961 . S
H798 C783 0.961 . S
H799 C783 0.961 . S
H800 C784 0.931 . S
H801 C789 0.930 . S
H802 C790 0.956 . S
H803 C790 0.961 . S
H804 C790 0.961 . S
H805 C791 0.958 . S
H806 C791 0.961 . S
H807 C791 0.960 . S
C808 C809 1.391 . S
C808 C810 1.394 . S
C808 H824 0.931 . S
C809 C808 1.391 . S
C809 C813 1.376 . S
C810 C808 1.394 . S
C810 C811 1.369 . S
C810 C814 1.531 . S
C811 C810 1.369 . S
C811 C812 1.410 . S
C811 C819 1.503 . S
C812 C811 1.410 . S
C812 C813 1.392 . S
C812 C815 1.511 . S
C813 C809 1.376 . S
C813 C812 1.392 . S
C813 H825 0.929 . S
C814 C810 1.531 . S
C814 H826 0.960 . S
C814 H827 0.962 . S
C814 H828 0.960 . S
C815 C812 1.511 . S
C815 H829 0.961 . S
C815 H830 0.961 . S
C815 H831 0.961 . S
C816 C817 1.370 . S
C816 C818 1.363 . S
C816 H832 0.931 . S
C817 C816 1.370 . S
C817 C821 1.408 . S
C818 C816 1.363 . S
C818 C819 1.370 . S
C818 C822 1.524 . S
C819 C811 1.503 . S
C819 C818 1.370 . S
C819 C820 1.403 . S
C820 C819 1.403 . S
C820 C821 1.404 . S
C820 C823 1.539 . S
C821 C817 1.408 . S
C821 C820 1.404 . S
C821 H833 0.957 . S
C822 C818 1.524 . S
C822 H834 0.956 . S
C822 H835 0.961 . S
C822 H836 0.961 . S
C823 C820 1.539 . S
C823 H837 0.958 . S
C823 H838 0.961 . S
C823 H839 0.960 . S
H824 C808 0.931 . S
H825 C813 0.929 . S
H826 C814 0.960 . S
H827 C814 0.962 . S
H828 C814 0.960 . S
H829 C815 0.961 . S
H830 C815 0.961 . S
H831 C815 0.961 . S
H832 C816 0.931 . S
H833 C821 0.957 . S
H834 C822 0.956 . S
H835 C822 0.961 . S
H836 C822 0.961 . S
H837 C823 0.958 . S
H838 C823 0.961 . S
H839 C823 0.960 . S
C840 C841 1.391 . S
C840 C842 1.394 . S
C840 H856 0.931 . S
C841 C840 1.391 . S
C841 C845 1.376 . S
C842 C840 1.394 . S
C842 C843 1.369 . S
C842 C846 1.531 . S
C843 C842 1.369 . S
C843 C844 1.410 . S
C843 C851 1.503 . S
C844 C843 1.410 . S
C844 C845 1.392 . S
C844 C847 1.511 . S
C845 C841 1.376 . S
C845 C844 1.392 . S
C845 H857 0.929 . S
C846 C842 1.531 . S
C846 H858 0.960 . S
C846 H859 0.962 . S
C846 H860 0.960 . S
C847 C844 1.511 . S
C847 H861 0.961 . S
C847 H862 0.961 . S
C847 H863 0.961 . S
C848 C849 1.370 . S
C848 C850 1.363 . S
C848 H864 0.931 . S
C849 C848 1.370 . S
C849 C853 1.408 . S
C850 C848 1.363 . S
C850 C851 1.370 . S
C850 C854 1.524 . S
C851 C843 1.503 . S
C851 C850 1.370 . S
C851 C852 1.403 . S
C852 C851 1.403 . S
C852 C853 1.404 . S
C852 C855 1.539 . S
C853 C849 1.408 . S
C853 C852 1.404 . S
C853 H865 0.930 . S
C854 C850 1.524 . S
C854 H866 0.956 . S
C854 H867 0.961 . S
C854 H868 0.961 . S
C855 C852 1.539 . S
C855 H869 0.958 . S
C855 H870 0.961 . S
C855 H871 0.960 . S
H856 C840 0.931 . S
H857 C845 0.929 . S
H858 C846 0.960 . S
H859 C846 0.962 . S
H860 C846 0.960 . S
H861 C847 0.961 . S
H862 C847 0.961 . S
H863 C847 0.961 . S
H864 C848 0.931 . S
H865 C853 0.930 . S
H866 C854 0.956 . S
H867 C854 0.961 . S
H868 C854 0.961 . S
H869 C855 0.958 . S
H870 C855 0.961 . S
H871 C855 0.960 . S
C872 C873 1.391 . S
C872 C874 1.394 . S
C872 H888 0.931 . S
C873 C872 1.391 . S
C873 C877 1.376 . S
C874 C872 1.394 . S
C874 C875 1.369 . S
C874 C878 1.531 . S
C875 C874 1.369 . S
C875 C876 1.410 . S
C875 C883 1.503 . S
C876 C875 1.410 . S
C876 C877 1.392 . S
C876 C879 1.511 . S
C877 C873 1.376 . S
C877 C876 1.392 . S
C877 H889 0.929 . S
C878 C874 1.531 . S
C878 H890 0.960 . S
C878 H891 0.962 . S
C878 H892 0.960 . S
C879 C876 1.511 . S
C879 H893 0.961 . S
C879 H894 0.961 . S
C879 H895 0.961 . S
C880 C881 1.370 . S
C880 C882 1.363 . S
C880 H896 0.931 . S
C881 C880 1.370 . S
C881 C885 1.408 . S
C882 C880 1.363 . S
C882 C883 1.370 . S
C882 C886 1.524 . S
C883 C875 1.503 . S
C883 C882 1.370 . S
C883 C884 1.403 . S
C884 C883 1.403 . S
C884 C885 1.404 . S
C884 C887 1.539 . S
C885 C881 1.408 . S
C885 C884 1.404 . S
C885 H897 0.930 . S
C886 C882 1.524 . S
C886 H898 0.956 . S
C886 H899 0.961 . S
C886 H900 0.961 . S
C887 C884 1.539 . S
C887 H901 0.958 . S
C887 H902 0.961 . S
C887 H903 0.960 . S
H888 C872 0.931 . S
H889 C877 0.929 . S
H890 C878 0.960 . S
H891 C878 0.962 . S
H892 C878 0.960 . S
H893 C879 0.961 . S
H894 C879 0.961 . S
H895 C879 0.961 . S
H896 C880 0.931 . S
H897 C885 0.930 . S
H898 C886 0.956 . S
H899 C886 0.961 . S
H900 C886 0.961 . S
H901 C887 0.958 . S
H902 C887 0.961 . S
H903 C887 0.960 . S
C904 C905 1.391 . S
C904 C906 1.394 . S
C904 H920 0.931 . S
C905 C904 1.391 . S
C905 C909 1.376 . S
C906 C904 1.394 . S
C906 C907 1.369 . S
C906 C910 1.531 . S
C907 C906 1.369 . S
C907 C908 1.410 . S
C907 C915 1.503 . S
C908 C907 1.410 . S
C908 C909 1.392 . S
C908 C911 1.511 . S
C909 C905 1.376 . S
C909 C908 1.392 . S
C909 H921 0.929 . S
C910 C906 1.531 . S
C910 H922 0.960 . S
C910 H923 0.962 . S
C910 H924 0.960 . S
C911 C908 1.511 . S
C911 H925 0.961 . S
C911 H926 0.961 . S
C911 H927 0.961 . S
C912 C913 1.370 . S
C912 C914 1.363 . S
C912 H928 0.931 . S
C913 C912 1.370 . S
C913 C917 1.408 . S
C914 C912 1.363 . S
C914 C915 1.370 . S
C914 C918 1.524 . S
C915 C907 1.503 . S
C915 C914 1.370 . S
C915 C916 1.403 . S
C916 C915 1.403 . S
C916 C917 1.404 . S
C916 C919 1.539 . S
C917 C913 1.408 . S
C917 C916 1.404 . S
C917 H929 0.930 . S
C918 C914 1.524 . S
C918 H930 0.956 . S
C918 H931 0.961 . S
C918 H932 0.961 . S
C919 C916 1.539 . S
C919 H933 0.958 . S
C919 H934 0.961 . S
C919 H935 0.960 . S
H920 C904 0.931 . S
H921 C909 0.929 . S
H922 C910 0.960 . S
H923 C910 0.962 . S
H924 C910 0.960 . S
H925 C911 0.961 . S
H926 C911 0.961 . S
H927 C911 0.961 . S
H928 C912 0.931 . S
H929 C917 0.930 . S
H930 C918 0.956 . S
H931 C918 0.961 . S
H932 C918 0.961 . S
H933 C919 0.958 . S
H934 C919 0.961 . S
H935 C919 0.960 . S
C936 C937 1.391 . S
C936 C938 1.394 . S
C936 H952 0.931 . S
C937 C936 1.391 . S
C937 C941 1.376 . S
C938 C936 1.394 . S
C938 C939 1.369 . S
C938 C942 1.531 . S
C939 C938 1.369 . S
C939 C940 1.410 . S
C939 C947 1.503 . S
C940 C939 1.410 . S
C940 C941 1.392 . S
C940 C943 1.511 . S
C941 C937 1.376 . S
C941 C940 1.392 . S
C941 H953 0.929 . S
C942 C938 1.531 . S
C942 H954 0.960 . S
C942 H955 0.962 . S
C942 H956 0.960 . S
C943 C940 1.511 . S
C943 H957 0.961 . S
C943 H958 0.961 . S
C943 H959 0.961 . S
C944 C945 1.370 . S
C944 C946 1.363 . S
C944 H960 0.931 . S
C945 C944 1.370 . S
C945 C949 1.408 . S
C946 C944 1.363 . S
C946 C947 1.370 . S
C946 C950 1.524 . S
C947 C939 1.503 . S
C947 C946 1.370 . S
C947 C948 1.403 . S
C948 C947 1.403 . S
C948 C949 1.404 . S
C948 C951 1.539 . S
C949 C945 1.408 . S
C949 C948 1.404 . S
C949 H961 0.930 . S
C950 C946 1.524 . S
C950 H962 0.956 . S
C950 H963 0.961 . S
C950 H964 0.961 . S
C951 C948 1.539 . S
C951 H965 0.958 . S
C951 H966 0.961 . S
C951 H967 0.960 . S
H952 C936 0.931 . S
H953 C941 0.929 . S
H954 C942 0.960 . S
H955 C942 0.962 . S
H956 C942 0.960 . S
H957 C943 0.961 . S
H958 C943 0.961 . S
H959 C943 0.961 . S
H960 C944 0.931 . S
H961 C949 0.930 . S
H962 C950 0.956 . S
H963 C950 0.961 . S
H964 C950 0.961 . S
H965 C951 0.958 . S
H966 C951 0.961 . S
H967 C951 0.960 . S
C968 C969 1.391 . S
C968 C970 1.394 . S
C968 H984 0.931 . S
C969 C968 1.391 . S
C969 C973 1.376 . S
C970 C968 1.394 . S
C970 C971 1.369 . S
C970 C974 1.531 . S
C971 C970 1.369 . S
C971 C972 1.410 . S
C971 C979 1.503 . S
C972 C971 1.410 . S
C972 C973 1.392 . S
C972 C975 1.511 . S
C973 C969 1.376 . S
C973 C972 1.392 . S
C973 H985 0.929 . S
C974 C970 1.531 . S
C974 H986 0.960 . S
C974 H987 0.962 . S
C974 H988 0.960 . S
C975 C972 1.511 . S
C975 H989 0.961 . S
C975 H990 0.961 . S
C975 H991 0.961 . S
C976 C977 1.370 . S
C976 C978 1.363 . S
C976 H992 0.931 . S
C977 C976 1.370 . S
C977 C981 1.408 . S
C978 C976 1.363 . S
C978 C979 1.370 . S
C978 C982 1.524 . S
C979 C971 1.503 . S
C979 C978 1.370 . S
C979 C980 1.403 . S
C980 C979 1.403 . S
C980 C981 1.404 . S
C980 C983 1.539 . S
C981 C977 1.408 . S
C981 C980 1.404 . S
C981 H993 0.930 . S
C982 C978 1.524 . S
C982 H994 0.956 . S
C982 H995 0.961 . S
C982 H996 0.961 . S
C983 C980 1.539 . S
C983 H997 0.958 . S
C983 H998 0.961 . S
C983 H999 0.960 . S
H984 C968 0.931 . S
H985 C973 0.929 . S
H986 C974 0.960 . S
H987 C974 0.962 . S
H988 C974 0.960 . S
H989 C975 0.961 . S
H990 C975 0.961 . S
H991 C975 0.961 . S
H992 C976 0.931 . S
H993 C981 0.930 . S
H994 C982 0.956 . S
H995 C982 0.961 . S
H996 C982 0.961 . S
H997 C983 0.958 . S
H998 C983 0.961 . S
H999 C983 0.960 . S
C1000 C1001 1.391 . S
C1000 C1002 1.394 . S
C1000 H1016 0.931 . S
C1001 C1000 1.391 . S
C1001 C1005 1.376 . S
C1002 C1000 1.394 . S
C1002 C1003 1.369 . S
C1002 C1006 1.531 . S
C1003 C1002 1.369 . S
C1003 C1004 1.410 . S
C1003 C1011 1.503 . S
C1004 C1003 1.410 . S
C1004 C1005 1.392 . S
C1004 C1007 1.511 . S
C1005 C1001 1.376 . S
C1005 C1004 1.392 . S
C1005 H1017 0.929 . S
C1006 C1002 1.531 . S
C1006 H1018 0.960 . S
C1006 H1019 0.962 . S
C1006 H1020 0.960 . S
C1007 C1004 1.511 . S
C1007 H1021 0.961 . S
C1007 H1022 0.961 . S
C1007 H1023 0.961 . S
C1008 C1009 1.370 . S
C1008 C1010 1.363 . S
C1008 H1024 0.931 . S
C1009 C1008 1.370 . S
C1009 C1013 1.408 . S
C1010 C1008 1.363 . S
C1010 C1011 1.370 . S
C1010 C1014 1.524 . S
C1011 C1003 1.503 . S
C1011 C1010 1.370 . S
C1011 C1012 1.403 . S
C1012 C1011 1.403 . S
C1012 C1013 1.404 . S
C1012 C1015 1.539 . S
C1013 C1009 1.408 . S
C1013 C1012 1.404 . S
C1013 H1025 0.930 . S
C1014 C1010 1.524 . S
C1014 H1026 0.956 . S
C1014 H1027 0.961 . S
C1014 H1028 0.961 . S
C1015 C1012 1.539 . S
C1015 H1029 0.958 . S
C1015 H1030 0.961 . S
C1015 H1031 0.960 . S
H1016 C1000 0.931 . S
H1017 C1005 0.929 . S
H1018 C1006 0.960 . S
H1019 C1006 0.962 . S
H1020 C1006 0.960 . S
H1021 C1007 0.961 . S
H1022 C1007 0.961 . S
H1023 C1007 0.961 . S
H1024 C1008 0.931 . S
H1025 C1013 0.930 . S
H1026 C1014 0.956 . S
H1027 C1014 0.961 . S
H1028 C1014 0.961 . S
H1029 C1015 0.958 . S
H1030 C1015 0.961 . S
H1031 C1015 0.960 . S
C265 C9 1.435 . S
C273 C111 1.450 . S
C297 C21 1.139 . S
C305 C160 1.092 . S
C337 C186 2.192 . S
C329 C30 2.199 . S
C361 C43 2.193 . S
C369 C234 2.250 1_655 S
C401 C146 2.111 . S
C393 C4 1.811 . S
C433 C114 1.549 . S
C425 C22 1.556 . S
C465 C235 1.570 1_556 S
C457 C34 1.618 . S
C497 C203 1.524 . S
C489 C48 1.534 . S
C521 C8 1.532 . S
C529 C231 1.619 . S
C561 C163 2.277 . S
C553 C35 2.333 . S
C585 C47 2.556 . S
C593 C115 2.560 . S
C617 C17 0.832 . S
C625 C200 0.872 . S
C657 C120 1.027 . S
C649 C60 0.998 . S
C681 C74 1.126 . S
C689 C151 1.101 . S
C713 C82 1.957 . S
C721 C195 1.987 . S
C745 C100 2.744 . S
C753 C243 2.687 . S
C777 C61 2.427 . S
C785 C155 2.539 . S
C817 C123 0.780 . S
C809 C73 0.760 . S
C849 C226 2.137 . S
C841 C87 2.186 . S
C881 C194 1.317 . S
C873 C95 1.291 . S
C905 C56 1.497 . S
C913 C240 1.505 . S
C945 C154 2.479 . S
C937 C86 2.528 . S
C977 C106 2.360 . S
C969 C99 2.361 . S
C1001 C69 0.639 . S
C1009 C191 0.733 . S
