# Generated by pormake.
# Topology anh, (6,3)-cn, num edge types: 1
# Building blocks:
#     Node 0, Type 0, BuildingBlock: CUKXOW_clean_sbu_0, # of connection points: 6
#     Node 1, Type 0, BuildingBlock: CUKXOW_clean_sbu_0, # of connection points: 6
#     Node 2, Type 0, BuildingBlock: CUKXOW_clean_sbu_0, # of connection points: 6
#     Node 3, Type 1, BuildingBlock: PAMTOO_clean_linker_0, # of connection points: 3
#     Node 4, Type 1, BuildingBlock: PAMTOO_clean_linker_0, # of connection points: 3
#     Node 5, Type 1, BuildingBlock: PAMTOO_clean_linker_0, # of connection points: 3
#     Node 6, Type 1, BuildingBlock: PAMTOO_clean_linker_0, # of connection points: 3
#     Node 7, Type 1, BuildingBlock: PAMTOO_clean_linker_0, # of connection points: 3
#     Node 8, Type 1, BuildingBlock: PAMTOO_clean_linker_0, # of connection points: 3
#     Edge 9, Type (0, 1), BuildingBlock: OJICUG_clean_linker_0, # of connection points: 2
#     Edge 10, Type (0, 1), BuildingBlock: OJICUG_clean_linker_0, # of connection points: 2
#     Edge 11, Type (0, 1), BuildingBlock: OJICUG_clean_linker_0, # of connection points: 2
#     Edge 12, Type (0, 1), BuildingBlock: OJICUG_clean_linker_0, # of connection points: 2
#     Edge 13, Type (0, 1), BuildingBlock: OJICUG_clean_linker_0, # of connection points: 2
#     Edge 14, Type (0, 1), BuildingBlock: OJICUG_clean_linker_0, # of connection points: 2
#     Edge 15, Type (0, 1), BuildingBlock: OJICUG_clean_linker_0, # of connection points: 2
#     Edge 16, Type (0, 1), BuildingBlock: OJICUG_clean_linker_0, # of connection points: 2
#     Edge 17, Type (0, 1), BuildingBlock: OJICUG_clean_linker_0, # of connection points: 2
#     Edge 18, Type (0, 1), BuildingBlock: OJICUG_clean_linker_0, # of connection points: 2
#     Edge 19, Type (0, 1), BuildingBlock: OJICUG_clean_linker_0, # of connection points: 2
#     Edge 20, Type (0, 1), BuildingBlock: OJICUG_clean_linker_0, # of connection points: 2
#     Edge 21, Type (0, 1), BuildingBlock: OJICUG_clean_linker_0, # of connection points: 2
#     Edge 22, Type (0, 1), BuildingBlock: OJICUG_clean_linker_0, # of connection points: 2
#     Edge 23, Type (0, 1), BuildingBlock: OJICUG_clean_linker_0, # of connection points: 2
#     Edge 24, Type (0, 1), BuildingBlock: OJICUG_clean_linker_0, # of connection points: 2
#     Edge 25, Type (0, 1), BuildingBlock: OJICUG_clean_linker_0, # of connection points: 2
#     Edge 26, Type (0, 1), BuildingBlock: OJICUG_clean_linker_0, # of connection points: 2
# Relax obj value: 0.112
# Max RMSD: 0.161
# Mean RMSD: 0.123
data_MOF--net-anh--node1-CUKXOW_clean_sbu_0--node2-PAMTOO_clean_linker_0--edge1-OJICUG_clean_linker_0
_symmetry_space_group_name_H-M    P1
_symmetry_Int_Tables_number       1
_symmetry_cell_setting            triclinic
loop_
_symmetry_equiv_pos_as_xyz
'x, y, z'
_cell_length_a     20.163549
_cell_length_b     19.901585
_cell_length_c     34.79172
_cell_angle_alpha  94.567952
_cell_angle_beta   89.096639
_cell_angle_gamma 108.07315
loop_
_atom_site_label
_atom_site_type_symbol
_atom_site_fract_x
_atom_site_fract_y
_atom_site_fract_z
_atom_type_partial_charge
Tb0 Tb 0.15613 0.57668 0.15271 0.0
C1 C 0.10784 0.51668 0.23292 0.0
Tb2 Tb 0.06753 0.41709 0.15563 0.0
O3 O 1.06346 0.60877 0.16857 0.0
O4 O 1.05243 0.5116 0.13838 0.0
O5 O 0.15416 0.56646 0.21475 0.0
C6 C 0.94985 0.31162 0.16122 0.0
O7 O 0.06489 0.45859 0.21506 0.0
C8 C 0.20334 0.43598 0.16526 0.0
C9 C 0.1272 0.47148 0.0762 0.0
O10 O 0.9621 0.37573 0.17671 0.0
O11 O 1.00461 0.306 0.14251 0.0
O12 O 0.15506 0.37479 0.16645 0.0
O13 O 0.17155 0.47993 0.16032 0.0
O14 O 0.07888 0.42279 0.09403 0.0
O15 O 0.1667 0.53246 0.09384 0.0
C16 C 0.26093 0.69605 0.14857 0.0
O17 O 0.20321 0.67933 0.12866 0.0
O18 O 0.2592 0.6458 0.17045 0.0
C19 C 1.01875 0.54917 0.15531 0.0
Tb20 Tb 0.53551 0.995 0.49402 0.0
C21 C 0.60969 0.03403 0.41613 0.0
Tb22 Tb 0.69443 0.08651 0.49434 0.0
O23 O 0.50506 0.0818 0.47247 0.0
O24 O 0.59606 0.10361 0.505 0.0
O25 O 0.5615 0.98447 0.43339 0.0
C26 C 0.81116 0.19409 0.48963 0.0
O27 O 0.6587 0.08574 0.43536 0.0
C28 C 0.67582 0.94783 0.49364 0.0
C29 C 0.62381 0.03938 0.57311 0.0
O30 O 0.79554 0.13451 0.46853 0.0
O31 O 0.76114 0.19311 0.51377 0.0
O32 O 0.73691 0.99564 0.4962 0.0
O33 O 0.63321 0.98146 0.49097 0.0
O34 O 0.67819 0.08245 0.55594 0.0
O35 O 0.56689 0.9976 0.55432 0.0
C36 C 0.41574 0.89187 0.4986 0.0
O37 O 0.43038 0.95403 0.51726 0.0
O38 O 0.4684 0.88802 0.4776 0.0
C39 C 0.56119 0.13109 0.48497 0.0
Tb40 Tb 0.57036 0.5482 0.82846 0.0
C41 C 0.65496 0.58322 0.90687 0.0
Tb42 Tb 0.73031 0.58736 0.82688 0.0
O43 O 0.56654 0.44577 0.79881 0.0
O44 O 0.64609 0.49683 0.83726 0.0
O45 O 0.59712 0.58325 0.88899 0.0
C46 C 0.85068 0.56083 0.81887 0.0
O47 O 0.71122 0.57771 0.88817 0.0
C48 C 0.69554 0.70372 0.82759 0.0
C49 C 0.64421 0.5786 0.74986 0.0
O50 O 0.84017 0.61095 0.84211 0.0
O51 O 0.79359 0.52624 0.8002 0.0
O52 O 0.75977 0.70273 0.82703 0.0
O53 O 0.65571 0.64096 0.82803 0.0
O54 O 0.70131 0.57211 0.76565 0.0
O55 O 0.58892 0.58113 0.77035 0.0
C56 C 0.43315 0.50857 0.83984 0.0
O57 O 0.47849 0.49064 0.85914 0.0
O58 O 0.46599 0.55328 0.81532 0.0
C59 C 0.62348 0.4431 0.81412 0.0
H60 H 0.7288 0.12089 0.25658 0.0
H61 H 0.54069 0.94648 0.23352 0.0
H62 H 0.6669 0.04204 0.13988 0.0
H63 H 0.50446 0.97019 0.11559 0.0
C64 C 0.49519 0.95279 0.14532 0.0
O65 O 0.55519 0.94211 0.15849 0.0
H66 H 0.48141 0.99482 0.16375 0.0
C67 C 0.69161 0.08437 0.23653 0.0
C68 C 0.70397 0.08819 0.19688 0.0
C69 C 0.63271 0.03388 0.25043 0.0
C70 C 0.58698 0.9854 0.22372 0.0
C71 C 0.5996 0.98843 0.18398 0.0
C72 C 0.65811 0.03953 0.17061 0.0
H73 H 0.63282 0.69874 0.58848 0.0
H74 H 0.63743 0.48363 0.57096 0.0
H75 H 0.64187 0.60442 0.47343 0.0
H76 H 0.56538 0.44104 0.45389 0.0
C77 C 0.57763 0.42813 0.48292 0.0
O78 O 0.63869 0.47896 0.49611 0.0
H79 H 0.5332 0.42929 0.50213 0.0
C80 C 0.63331 0.65332 0.56919 0.0
C81 C 0.63647 0.65936 0.5292 0.0
C82 C 0.63492 0.59073 0.58458 0.0
C83 C 0.63727 0.53266 0.55952 0.0
C84 C 0.63841 0.5368 0.51956 0.0
C85 C 0.63939 0.60071 0.50434 0.0
H86 H 0.0685 0.49729 0.91077 0.0
H87 H 0.15686 0.3261 0.90385 0.0
H88 H 1.05659 0.36659 0.80463 0.0
H89 H 0.14945 0.30252 0.77566 0.0
C90 C 0.17155 0.29396 0.80326 0.0
O91 O 0.12113 0.28574 0.83147 0.0
H92 H 0.18492 0.24386 0.79854 0.0
C93 C 0.08229 0.4557 0.8937 0.0
C94 C 1.05933 0.43836 0.8552 0.0
C95 C 0.11738 0.41568 0.91162 0.0
C96 C 0.13048 0.35816 0.89043 0.0
C97 C 0.10827 0.3409 0.85195 0.0
C98 C 0.07301 0.3808 0.83447 0.0
H99 H 1.00689 0.40989 0.39122 0.0
H100 H 0.16774 0.60922 0.41588 0.0
H101 H 0.0682 0.48644 0.50844 0.0
H102 H 0.13476 0.65973 0.53312 0.0
C103 C 0.1554 0.66386 0.50329 0.0
O104 O 0.16523 0.60016 0.49057 0.0
H105 H 0.11708 0.67664 0.48477 0.0
C106 C 1.03898 0.45042 0.41165 0.0
C107 C 1.03125 0.44105 0.45123 0.0
C108 C 0.08739 0.51127 0.39825 0.0
C109 C 0.1299 0.56192 0.42529 0.0
C110 C 0.12252 0.55274 0.46487 0.0
C111 C 0.07279 0.49308 0.47779 0.0
H112 H 0.62358 0.91738 0.73399 0.0
H113 H 0.66489 0.14351 0.75253 0.0
H114 H 0.68136 0.0239 0.84681 0.0
H115 H 0.67005 0.18064 0.87931 0.0
C116 C 0.65124 0.17485 0.84901 0.0
O117 O 0.69578 0.15012 0.82559 0.0
H118 H 0.59749 0.13639 0.84837 0.0
C119 C 0.63497 0.96511 0.75332 0.0
C120 C 0.64974 0.96206 0.79237 0.0
C121 C 0.64107 0.03041 0.73841 0.0
C122 C 0.65975 0.09258 0.76336 0.0
C123 C 0.67387 0.08977 0.80229 0.0
C124 C 0.66888 0.02489 0.81672 0.0
H125 H 0.76866 0.54365 0.06642 0.0
H126 H 0.55829 0.5495 0.08432 0.0
H127 H 0.67399 0.50991 0.17787 0.0
H128 H 0.51203 0.4211 0.17695 0.0
C129 C 0.49796 0.45179 0.15481 0.0
O130 O 0.54981 0.517 0.15496 0.0
H131 H 0.496 0.42115 0.1264 0.0
C132 C 0.72441 0.54027 0.08508 0.0
C133 C 0.72999 0.52751 0.12387 0.0
C134 C 0.66329 0.54909 0.07023 0.0
C135 C 0.60587 0.54257 0.09477 0.0
C136 C 0.60841 0.52662 0.13309 0.0
C137 C 0.67127 0.52066 0.14801 0.0
C138 C 0.32902 0.50467 0.14983 0.0
C139 C 0.28029 0.44755 0.16652 0.0
H140 H 0.43589 0.55134 0.13269 0.0
C141 C 0.30498 0.3965 0.18186 0.0
H142 H 0.31157 0.54411 0.13699 0.0
C143 C 0.37578 0.40118 0.17994 0.0
C144 C 0.42464 0.45696 0.16249 0.0
H145 H 0.26903 0.35155 0.19463 0.0
H146 H 0.39201 0.35928 0.19096 0.0
C147 C 0.40031 0.50886 0.14741 0.0
C148 C 0.92033 0.25012 0.45495 0.0
C149 C 0.87193 0.25578 0.48342 0.0
H150 H 1.00954 0.30444 0.4229 0.0
C151 C 0.87938 0.32169 0.50358 0.0
H152 H 0.91589 0.19972 0.43917 0.0
C153 C 0.93292 0.38182 0.49415 0.0
C154 C 0.97943 0.37672 0.46436 0.0
H155 H 0.8425 0.32722 0.52564 0.0
H156 H 0.93616 0.43269 0.50902 0.0
C157 C 0.97362 0.31004 0.44551 0.0
C158 C 0.61414 0.76639 0.8058 0.0
C159 C 0.67609 0.76823 0.82426 0.0
H160 H 0.55707 0.82738 0.78079 0.0
C161 C 0.72521 0.83377 0.8355 0.0
H162 H 0.5758 0.71624 0.79667 0.0
C163 C 0.71448 0.89666 0.82685 0.0
C164 C 0.65468 0.89534 0.80632 0.0
H165 H 0.77345 0.83638 0.84975 0.0
H166 H 0.75501 0.94618 0.83439 0.0
C167 C 0.60378 0.82972 0.79652 0.0
C168 C 0.9006 0.48258 0.12562 0.0
C169 C 0.9418 0.53669 0.15157 0.0
H170 H 0.80131 0.43687 0.09688 0.0
C171 C 0.90953 0.58192 0.17207 0.0
H172 H 0.92346 0.44669 0.10939 0.0
C173 C 0.83889 0.57536 0.16545 0.0
C174 C 0.79889 0.52392 0.13781 0.0
H175 H 0.93957 0.62401 0.1924 0.0
H176 H 0.81675 0.6132 0.18031 0.0
C177 C 0.8304 0.47672 0.11859 0.0
C178 C 0.29721 0.84011 0.52615 0.0
C179 C 0.3495 0.83444 0.50016 0.0
H180 H 0.1947 0.78983 0.54749 0.0
C181 C 0.33817 0.77318 0.4751 0.0
H182 H 0.30478 0.88721 0.5456 0.0
C183 C 0.27561 0.7182 0.47598 0.0
C184 C 0.22359 0.72272 0.50258 0.0
H185 H 0.37752 0.76784 0.45456 0.0
H186 H 0.26852 0.67202 0.45596 0.0
C187 C 0.23457 0.78458 0.52729 0.0
C188 C 0.6898 0.3736 0.84428 0.0
C189 C 0.63817 0.37597 0.81823 0.0
H190 H 0.7342 0.30762 0.87442 0.0
C191 C 0.59539 0.31245 0.79958 0.0
H192 H 0.72386 0.42187 0.8588 0.0
C193 C 0.60108 0.24735 0.80874 0.0
C194 C 0.64933 0.24489 0.83679 0.0
H195 H 0.55557 0.31286 0.77914 0.0
H196 H 0.56619 0.19882 0.79493 0.0
C197 C 0.69547 0.30846 0.85339 0.0
C198 C 0.59897 0.83169 0.51533 0.0
C199 C 0.6612 0.87128 0.49857 0.0
H200 H 0.5425 0.73311 0.53838 0.0
C201 C 0.7122 0.8383 0.48871 0.0
H202 H 0.55925 0.856 0.52371 0.0
C203 C 0.70197 0.76762 0.49623 0.0
C204 C 0.64122 0.72901 0.51463 0.0
H205 H 0.76071 0.8677 0.4758 0.0
H206 H 0.7431 0.7443 0.48947 0.0
C207 C 0.58946 0.76148 0.52374 0.0
C208 C 0.90543 0.46626 0.80642 0.0
C209 C 0.91147 0.53589 0.82044 0.0
H210 H 0.94652 0.38006 0.80725 0.0
C211 C 0.97179 0.57706 0.84063 0.0
H212 H 0.85913 0.43348 0.79079 0.0
C213 C 1.02321 0.54703 0.84926 0.0
C214 C 1.01402 0.47496 0.8386 0.0
H215 H 0.97762 0.63124 0.85134 0.0
H216 H 0.06837 0.57925 0.86596 0.0
C217 C 0.95593 0.43578 0.81572 0.0
C218 C 0.32114 0.81149 0.12078 0.0
C219 C 0.3198 0.76158 0.14732 0.0
H220 H 0.37843 0.9112 0.09937 0.0
C221 C 0.37573 0.77438 0.17323 0.0
H222 H 0.27827 0.80285 0.10068 0.0
C223 C 0.43232 0.83589 0.17261 0.0
C224 C 0.43488 0.88534 0.1455 0.0
H225 H 0.37569 0.73695 0.19421 0.0
H226 H 0.47419 0.84422 0.19327 0.0
C227 C 0.3783 0.8731 0.11995 0.0
C228 C 0.61755 0.25971 0.50831 0.0
C229 C 0.57306 0.20809 0.48238 0.0
H230 H 0.65394 0.36977 0.52928 0.0
C231 C 0.53517 0.2301 0.45512 0.0
H232 H 0.64675 0.24422 0.52996 0.0
C233 C 0.53995 0.30164 0.45439 0.0
C234 C 0.5828 0.35334 0.48085 0.0
H235 H 0.50038 0.19163 0.4348 0.0
H236 H 0.50823 0.31636 0.43377 0.0
C237 C 0.62175 0.33161 0.50787 0.0
C238 C 0.31826 0.47018 0.80533 0.0
C239 C 0.36043 0.46278 0.83539 0.0
H240 H 0.22509 0.42202 0.77148 0.0
C241 C 0.33801 0.40246 0.85647 0.0
H242 H 0.33463 0.51597 0.78853 0.0
C243 C 0.27717 0.34808 0.84589 0.0
C244 C 0.23691 0.3537 0.81461 0.0
H245 H 0.36957 0.39529 0.87978 0.0
H246 H 0.262 0.30097 0.8617 0.0
C247 C 0.25648 0.41609 0.79519 0.0
C248 C 0.87493 0.18476 0.15093 0.0
C249 C 0.88471 0.2544 0.16663 0.0
H250 H 0.80849 0.07651 0.14803 0.0
C251 C 0.83235 0.2695 0.18946 0.0
H252 H 0.91461 0.1721 0.13309 0.0
C253 C 0.7726 0.21549 0.19801 0.0
C254 C 0.76376 0.14536 0.18369 0.0
H255 H 0.8383 0.32291 0.20163 0.0
H256 H 0.73377 0.22827 0.21654 0.0
C257 C 0.81442 0.13041 0.15929 0.0
C258 C 0.162 0.51282 0.01046 0.0
C259 C 0.13469 0.45722 0.03432 0.0
H260 H 0.17844 0.54302 0.95239 0.0
C261 C 0.10995 0.38725 0.01753 0.0
H262 H 0.18166 0.56721 0.02259 0.0
C263 C 0.10883 0.37343 0.97759 0.0
C264 C 0.13179 0.42934 0.95359 0.0
H265 H 0.08939 0.34312 0.03521 0.0
H266 H 0.08621 0.31934 0.96548 0.0
C267 C 0.1601 0.49901 0.97036 0.0
C268 C 0.58685 0.96908 0.35051 0.0
C269 C 0.60894 0.03315 0.37374 0.0
H270 H 0.5786 0.9186 0.29325 0.0
C271 C 0.63354 0.09716 0.35617 0.0
H272 H 0.56769 0.91897 0.36345 0.0
C273 C 0.6381 0.09721 0.31618 0.0
C274 C 0.61993 0.0331 0.29272 0.0
H275 H 0.64963 0.14742 0.3734 0.0
H276 H 0.65684 0.14779 0.30371 0.0
C277 C 0.59283 0.96898 0.31032 0.0
C278 C 0.68896 0.55954 0.6837 0.0
C279 C 0.64185 0.58206 0.70762 0.0
H280 H 0.72319 0.54415 0.62601 0.0
C281 C 0.59202 0.60706 0.69074 0.0
H282 H 0.72777 0.53972 0.69579 0.0
C283 C 0.58974 0.60995 0.65078 0.0
C284 C 0.63656 0.58695 0.6269 0.0
H285 H 0.55511 0.62496 0.7084 0.0
H286 H 0.55093 0.62953 0.63849 0.0
C287 C 0.68602 0.56153 0.64374 0.0
C288 C 0.6802 0.08843 0.63724 0.0
C289 C 0.62681 0.03784 0.61552 0.0
H290 H 0.72644 0.12563 0.69291 0.0
C291 C 0.57669 0.98583 0.63473 0.0
H292 H 0.71959 0.12937 0.62346 0.0
C293 C 0.58057 0.98393 0.67471 0.0
C294 C 0.63427 0.03429 0.69631 0.0
H295 H 0.53485 0.94602 0.6189 0.0
H296 H 0.54153 0.94305 0.68874 0.0
C297 C 0.68378 0.08676 0.67716 0.0
C298 C 0.59416 0.54609 0.96844 0.0
C299 C 0.65496 0.58223 0.94925 0.0
H300 H 0.54936 0.50463 0.02096 0.0
C301 C 0.71733 0.61133 0.97038 0.0
H302 H 0.54552 0.52229 0.95269 0.0
C303 C 0.71932 0.60314 0.00983 0.0
C304 C 0.6594 0.56366 0.02892 0.0
H305 H 0.76489 0.63988 0.9563 0.0
H306 H 0.76829 0.62717 0.02517 0.0
C307 C 0.59648 0.53619 0.00772 0.0
C308 C 1.03798 0.49783 0.29266 0.0
C309 C 0.10311 0.52435 0.27524 0.0
H310 H 0.98159 0.47613 0.34492 0.0
C311 C 0.163 0.5525 0.29857 0.0
H312 H 0.99084 0.47684 0.27529 0.0
C313 C 0.15809 0.55015 0.33872 0.0
C314 C 0.09301 0.52068 0.35612 0.0
H315 H 0.21386 0.57298 0.28571 0.0
H316 H 0.20557 0.56875 0.35586 0.0
C317 C 1.03286 0.49686 0.33258 0.0
loop_
_geom_bond_atom_site_label_1
_geom_bond_atom_site_label_2
_geom_bond_distance
_geom_bond_site_symmetry_2
_ccdc_geom_bond_type
Tb0 O3 2.453 1_455 S
Tb0 O4 2.596 1_455 S
Tb0 O5 2.374 . S
Tb0 O13 2.343 . S
Tb0 O15 2.353 . S
Tb0 O17 2.427 . S
Tb0 O18 2.513 . S
C1 O5 1.251 1_655 S
C1 O7 1.263 . S
Tb2 O4 2.343 . S
Tb2 O7 2.353 . S
Tb2 O10 2.427 . S
Tb2 O11 2.513 . S
Tb2 O12 2.453 1_655 S
Tb2 O13 2.596 1_655 S
Tb2 O14 2.374 . S
O3 Tb0 2.453 1_655 S
O3 C19 1.245 . S
O4 Tb0 2.596 1_655 S
O4 Tb2 2.343 . S
O4 C19 1.259 . S
O5 Tb0 2.374 . S
O5 C1 1.251 1_455 S
C6 O10 1.275 . S
C6 O11 1.246 . S
O7 C1 1.263 . S
O7 Tb2 2.353 . S
C8 O12 1.245 . S
C8 O13 1.259 . S
C9 O14 1.250 1_455 S
C9 O15 1.263 . S
O10 Tb2 2.427 . S
O10 C6 1.275 . S
O11 Tb2 2.513 . S
O11 C6 1.246 . S
O12 Tb2 2.453 1_455 S
O12 C8 1.245 . S
O13 Tb0 2.343 . S
O13 Tb2 2.596 1_455 S
O13 C8 1.259 . S
O14 Tb2 2.374 . S
O14 C9 1.250 1_655 S
O15 Tb0 2.353 . S
O15 C9 1.263 . S
C16 O17 1.275 . S
C16 O18 1.246 . S
O17 Tb0 2.427 . S
O17 C16 1.275 . S
O18 Tb0 2.513 . S
O18 C16 1.246 . S
C19 O3 1.245 . S
C19 O4 1.259 . S
Tb20 O23 2.453 1_565 S
Tb20 O24 2.596 1_565 S
Tb20 O25 2.374 1_565 S
Tb20 O33 2.343 . S
Tb20 O35 2.353 1_565 S
Tb20 O37 2.427 . S
Tb20 O38 2.513 . S
C21 O25 1.251 . S
C21 O27 1.263 . S
Tb22 O24 2.343 . S
Tb22 O27 2.353 . S
Tb22 O30 2.427 . S
Tb22 O31 2.513 . S
Tb22 O32 2.453 1_545 S
Tb22 O33 2.596 1_545 S
Tb22 O34 2.374 . S
O23 Tb20 2.453 1_545 S
O23 C39 1.245 . S
O24 Tb20 2.596 1_545 S
O24 Tb22 2.343 . S
O24 C39 1.259 . S
O25 Tb20 2.374 1_545 S
O25 C21 1.251 . S
C26 O30 1.275 . S
C26 O31 1.246 . S
O27 C21 1.263 . S
O27 Tb22 2.353 . S
C28 O32 1.245 . S
C28 O33 1.259 . S
C29 O34 1.250 . S
C29 O35 1.263 . S
O30 Tb22 2.427 . S
O30 C26 1.275 . S
O31 Tb22 2.513 . S
O31 C26 1.246 . S
O32 Tb22 2.453 1_565 S
O32 C28 1.245 . S
O33 Tb20 2.343 . S
O33 Tb22 2.596 1_565 S
O33 C28 1.259 . S
O34 Tb22 2.374 . S
O34 C29 1.250 . S
O35 Tb20 2.353 1_545 S
O35 C29 1.263 . S
C36 O37 1.275 . S
C36 O38 1.246 . S
O37 Tb20 2.427 . S
O37 C36 1.275 . S
O38 Tb20 2.513 . S
O38 C36 1.246 . S
C39 O23 1.245 . S
C39 O24 1.259 . S
Tb40 O43 2.453 . S
Tb40 O44 2.596 . S
Tb40 O45 2.374 . S
Tb40 O53 2.343 . S
Tb40 O55 2.353 . S
Tb40 O57 2.427 . S
Tb40 O58 2.513 . S
C41 O45 1.251 . S
C41 O47 1.263 . S
Tb42 O44 2.343 . S
Tb42 O47 2.353 . S
Tb42 O50 2.427 . S
Tb42 O51 2.513 . S
Tb42 O52 2.453 . S
Tb42 O53 2.596 . S
Tb42 O54 2.374 . S
O43 Tb40 2.453 . S
O43 C59 1.245 . S
O44 Tb40 2.596 . S
O44 Tb42 2.343 . S
O44 C59 1.259 . S
O45 Tb40 2.374 . S
O45 C41 1.251 . S
C46 O50 1.275 . S
C46 O51 1.246 . S
O47 C41 1.263 . S
O47 Tb42 2.353 . S
C48 O52 1.245 . S
C48 O53 1.259 . S
C49 O54 1.250 . S
C49 O55 1.263 . S
O50 Tb42 2.427 . S
O50 C46 1.275 . S
O51 Tb42 2.513 . S
O51 C46 1.246 . S
O52 Tb42 2.453 . S
O52 C48 1.245 . S
O53 Tb40 2.343 . S
O53 Tb42 2.596 . S
O53 C48 1.259 . S
O54 Tb42 2.374 . S
O54 C49 1.250 . S
O55 Tb40 2.353 . S
O55 C49 1.263 . S
C56 O57 1.275 . S
C56 O58 1.246 . S
O57 Tb40 2.427 . S
O57 C56 1.275 . S
O58 Tb40 2.513 . S
O58 C56 1.246 . S
C59 O43 1.245 . S
C59 O44 1.259 . S
H60 C67 0.929 . S
H61 C70 0.930 . S
H62 C72 0.929 . S
H63 C64 0.969 . S
C64 H63 0.969 . S
C64 O65 1.550 . S
C64 H66 0.973 . S
O65 C64 1.550 . S
O65 C71 1.412 . S
H66 C64 0.973 . S
C67 H60 0.929 . S
C67 C68 1.400 . S
C67 C69 1.364 . S
C68 C67 1.400 . S
C68 C72 1.377 . S
C69 C67 1.364 . S
C69 C70 1.374 1_545 S
C70 H61 0.930 . S
C70 C69 1.374 1_565 S
C70 C71 1.383 . S
C71 O65 1.412 . S
C71 C70 1.383 . S
C71 C72 1.394 1_565 S
C72 H62 0.929 . S
C72 C68 1.377 . S
C72 C71 1.394 1_545 S
H73 C80 0.929 . S
H74 C83 0.930 . S
H75 C85 0.929 . S
H76 C77 0.969 . S
C77 H76 0.969 . S
C77 O78 1.550 . S
C77 H79 0.973 . S
O78 C77 1.550 . S
O78 C84 1.412 . S
H79 C77 0.973 . S
C80 H73 0.929 . S
C80 C81 1.400 . S
C80 C82 1.364 . S
C81 C80 1.400 . S
C81 C85 1.377 . S
C82 C80 1.364 . S
C82 C83 1.374 . S
C83 H74 0.930 . S
C83 C82 1.374 . S
C83 C84 1.383 . S
C84 O78 1.412 . S
C84 C83 1.383 . S
C84 C85 1.394 . S
C85 H75 0.929 . S
C85 C81 1.377 . S
C85 C84 1.394 . S
H86 C93 0.929 1_655 S
H87 C96 0.930 . S
H88 C98 0.929 . S
H89 C90 0.969 . S
C90 H89 0.969 . S
C90 O91 1.550 . S
C90 H92 0.973 . S
O91 C90 1.550 . S
O91 C97 1.412 . S
H92 C90 0.973 . S
C93 H86 0.929 1_455 S
C93 C94 1.400 1_455 S
C93 C95 1.364 . S
C94 C93 1.400 1_655 S
C94 C98 1.375 1_655 S
C95 C93 1.364 . S
C95 C96 1.374 . S
C96 H87 0.930 . S
C96 C95 1.374 . S
C96 C97 1.383 . S
C97 O91 1.412 . S
C97 C96 1.383 . S
C97 C98 1.394 . S
C98 H88 0.929 . S
C98 C94 1.375 1_455 S
C98 C97 1.394 . S
H99 C106 0.929 . S
H100 C109 0.930 . S
H101 C111 0.929 . S
H102 C103 0.969 . S
C103 H102 0.969 . S
C103 O104 1.550 . S
C103 H105 0.973 . S
O104 C103 1.550 . S
O104 C110 1.412 . S
H105 C103 0.973 . S
C106 H99 0.929 . S
C106 C107 1.400 . S
C106 C108 1.364 1_655 S
C107 C106 1.400 . S
C107 C111 1.371 1_655 S
C108 C106 1.364 1_455 S
C108 C109 1.374 . S
C109 H100 0.930 . S
C109 C108 1.374 . S
C109 C110 1.383 . S
C110 O104 1.412 . S
C110 C109 1.383 . S
C110 C111 1.401 . S
C111 H101 0.929 . S
C111 C107 1.371 1_455 S
C111 C110 1.401 . S
H112 C119 0.929 . S
H113 C122 0.930 . S
H114 C124 0.929 . S
H115 C116 0.969 . S
C116 H115 0.969 . S
C116 O117 1.550 . S
C116 H118 0.973 . S
O117 C116 1.550 . S
O117 C123 1.412 . S
H118 C116 0.973 . S
C119 H112 0.929 . S
C119 C120 1.400 . S
C119 C121 1.364 . S
C120 C119 1.400 . S
C120 C124 1.377 . S
C121 C119 1.364 . S
C121 C122 1.374 1_565 S
C122 H113 0.930 . S
C122 C121 1.374 1_545 S
C122 C123 1.383 . S
C123 O117 1.412 . S
C123 C122 1.383 . S
C123 C124 1.394 1_545 S
C124 H114 0.929 . S
C124 C120 1.377 . S
C124 C123 1.394 1_565 S
H125 C132 0.929 . S
H126 C135 0.930 . S
H127 C137 0.929 . S
H128 C129 0.969 . S
C129 H128 0.969 . S
C129 O130 1.550 . S
C129 H131 0.973 . S
O130 C129 1.550 . S
O130 C136 1.412 . S
H131 C129 0.973 . S
C132 H125 0.929 . S
C132 C133 1.400 . S
C132 C134 1.364 . S
C133 C132 1.400 . S
C133 C137 1.377 . S
C134 C132 1.364 . S
C134 C135 1.374 . S
C135 H126 0.930 . S
C135 C134 1.374 . S
C135 C136 1.383 . S
C136 O130 1.412 . S
C136 C135 1.383 . S
C136 C137 1.394 . S
C137 H127 0.929 . S
C137 C133 1.377 . S
C137 C136 1.394 . S
C138 C139 1.387 . S
C138 H142 0.950 . S
C138 C147 1.390 . S
C139 C138 1.387 . S
C139 C141 1.387 . S
H140 C147 0.950 . S
C141 C139 1.387 . S
C141 C143 1.390 . S
C141 H145 0.950 . S
H142 C138 0.950 . S
C143 C141 1.390 . S
C143 C144 1.387 . S
C143 H146 0.950 . S
C144 C143 1.387 . S
C144 C147 1.387 . S
H145 C141 0.950 . S
H146 C143 0.950 . S
C147 C138 1.390 . S
C147 H140 0.950 . S
C147 C144 1.387 . S
C148 C149 1.387 . S
C148 H152 0.950 . S
C148 C157 1.390 . S
C149 C148 1.387 . S
C149 C151 1.387 . S
H150 C157 0.950 . S
C151 C149 1.387 . S
C151 C153 1.390 . S
C151 H155 0.950 . S
H152 C148 0.950 . S
C153 C151 1.390 . S
C153 C154 1.387 . S
C153 H156 0.950 . S
C154 C153 1.387 . S
C154 C157 1.387 . S
H155 C151 0.950 . S
H156 C153 0.950 . S
C157 C148 1.390 . S
C157 H150 0.950 . S
C157 C154 1.387 . S
C158 C159 1.387 . S
C158 H162 0.950 . S
C158 C167 1.390 . S
C159 C158 1.387 . S
C159 C161 1.387 . S
H160 C167 0.950 . S
C161 C159 1.387 . S
C161 C163 1.390 . S
C161 H165 0.950 . S
H162 C158 0.950 . S
C163 C161 1.390 . S
C163 C164 1.387 . S
C163 H166 0.950 . S
C164 C163 1.387 . S
C164 C167 1.387 . S
H165 C161 0.950 . S
H166 C163 0.950 . S
C167 C158 1.390 . S
C167 H160 0.950 . S
C167 C164 1.387 . S
C168 C169 1.387 . S
C168 H172 0.950 . S
C168 C177 1.390 . S
C169 C168 1.387 . S
C169 C171 1.387 . S
H170 C177 0.950 . S
C171 C169 1.387 . S
C171 C173 1.390 . S
C171 H175 0.950 . S
H172 C168 0.950 . S
C173 C171 1.390 . S
C173 C174 1.387 . S
C173 H176 0.950 . S
C174 C173 1.387 . S
C174 C177 1.387 . S
H175 C171 0.950 . S
H176 C173 0.950 . S
C177 C168 1.390 . S
C177 H170 0.950 . S
C177 C174 1.387 . S
C178 C179 1.387 . S
C178 H182 0.950 . S
C178 C187 1.390 . S
C179 C178 1.387 . S
C179 C181 1.387 . S
H180 C187 0.950 . S
C181 C179 1.387 . S
C181 C183 1.390 . S
C181 H185 0.950 . S
H182 C178 0.950 . S
C183 C181 1.390 . S
C183 C184 1.387 . S
C183 H186 0.950 . S
C184 C183 1.387 . S
C184 C187 1.387 . S
H185 C181 0.950 . S
H186 C183 0.950 . S
C187 C178 1.390 . S
C187 H180 0.950 . S
C187 C184 1.387 . S
C188 C189 1.387 . S
C188 H192 0.950 . S
C188 C197 1.390 . S
C189 C188 1.387 . S
C189 C191 1.387 . S
H190 C197 0.950 . S
C191 C189 1.387 . S
C191 C193 1.390 . S
C191 H195 0.950 . S
H192 C188 0.950 . S
C193 C191 1.390 . S
C193 C194 1.387 . S
C193 H196 0.950 . S
C194 C193 1.387 . S
C194 C197 1.387 . S
H195 C191 0.950 . S
H196 C193 0.950 . S
C197 C188 1.390 . S
C197 H190 0.950 . S
C197 C194 1.387 . S
C198 C199 1.387 . S
C198 H202 0.950 . S
C198 C207 1.390 . S
C199 C198 1.387 . S
C199 C201 1.387 . S
H200 C207 0.950 . S
C201 C199 1.387 . S
C201 C203 1.390 . S
C201 H205 0.950 . S
H202 C198 0.950 . S
C203 C201 1.390 . S
C203 C204 1.387 . S
C203 H206 0.950 . S
C204 C203 1.387 . S
C204 C207 1.387 . S
H205 C201 0.950 . S
H206 C203 0.950 . S
C207 C198 1.390 . S
C207 H200 0.950 . S
C207 C204 1.387 . S
C208 C209 1.387 . S
C208 H212 0.950 . S
C208 C217 1.390 . S
C209 C208 1.387 . S
C209 C211 1.387 . S
H210 C217 0.950 . S
C211 C209 1.387 . S
C211 C213 1.390 . S
C211 H215 0.950 . S
H212 C208 0.950 . S
C213 C211 1.390 . S
C213 C214 1.387 . S
C213 H216 0.950 . S
C214 C213 1.387 . S
C214 C217 1.387 . S
H215 C211 0.950 . S
H216 C213 0.950 . S
C217 C208 1.390 . S
C217 H210 0.950 . S
C217 C214 1.387 . S
C218 C219 1.387 . S
C218 H222 0.950 . S
C218 C227 1.390 . S
C219 C218 1.387 . S
C219 C221 1.387 . S
H220 C227 0.950 . S
C221 C219 1.387 . S
C221 C223 1.390 . S
C221 H225 0.950 . S
H222 C218 0.950 . S
C223 C221 1.390 . S
C223 C224 1.387 . S
C223 H226 0.950 . S
C224 C223 1.387 . S
C224 C227 1.387 . S
H225 C221 0.950 . S
H226 C223 0.950 . S
C227 C218 1.390 . S
C227 H220 0.950 . S
C227 C224 1.387 . S
C228 C229 1.387 . S
C228 H232 0.950 . S
C228 C237 1.390 . S
C229 C228 1.387 . S
C229 C231 1.387 . S
H230 C237 0.950 . S
C231 C229 1.387 . S
C231 C233 1.390 . S
C231 H235 0.950 . S
H232 C228 0.950 . S
C233 C231 1.390 . S
C233 C234 1.387 . S
C233 H236 0.950 . S
C234 C233 1.387 . S
C234 C237 1.387 . S
H235 C231 0.950 . S
H236 C233 0.950 . S
C237 C228 1.390 . S
C237 H230 0.950 . S
C237 C234 1.387 . S
C238 C239 1.387 . S
C238 H242 0.950 . S
C238 C247 1.390 . S
C239 C238 1.387 . S
C239 C241 1.387 . S
H240 C247 0.950 . S
C241 C239 1.387 . S
C241 C243 1.390 . S
C241 H245 0.950 . S
H242 C238 0.950 . S
C243 C241 1.390 . S
C243 C244 1.387 . S
C243 H246 0.950 . S
C244 C243 1.387 . S
C244 C247 1.387 . S
H245 C241 0.950 . S
H246 C243 0.950 . S
C247 C238 1.390 . S
C247 H240 0.950 . S
C247 C244 1.387 . S
C248 C249 1.387 . S
C248 H252 0.950 . S
C248 C257 1.390 . S
C249 C248 1.387 . S
C249 C251 1.387 . S
H250 C257 0.950 . S
C251 C249 1.387 . S
C251 C253 1.390 . S
C251 H255 0.950 . S
H252 C248 0.950 . S
C253 C251 1.390 . S
C253 C254 1.387 . S
C253 H256 0.950 . S
C254 C253 1.387 . S
C254 C257 1.387 . S
H255 C251 0.950 . S
H256 C253 0.950 . S
C257 C248 1.390 . S
C257 H250 0.950 . S
C257 C254 1.387 . S
C258 C259 1.387 . S
C258 H262 0.950 1_455 S
C258 C267 1.390 1_554 S
C259 C258 1.387 . S
C259 C261 1.387 . S
H260 C267 0.950 . S
C261 C259 1.387 . S
C261 C263 1.390 1_554 S
C261 H265 0.950 . S
H262 C258 0.950 1_655 S
C263 C261 1.390 1_556 S
C263 C264 1.387 . S
C263 H266 0.950 . S
C264 C263 1.387 . S
C264 C267 1.387 . S
H265 C261 0.950 . S
H266 C263 0.950 . S
C267 C258 1.390 1_556 S
C267 H260 0.950 . S
C267 C264 1.387 . S
C268 C269 1.387 1_565 S
C268 H272 0.950 . S
C268 C277 1.390 . S
C269 C268 1.387 1_545 S
C269 C271 1.387 . S
H270 C277 0.950 . S
C271 C269 1.387 . S
C271 C273 1.390 . S
C271 H275 0.950 . S
H272 C268 0.950 . S
C273 C271 1.390 . S
C273 C274 1.387 . S
C273 H276 0.950 . S
C274 C273 1.387 . S
C274 C277 1.387 1_545 S
H275 C271 0.950 . S
H276 C273 0.950 . S
C277 C268 1.390 . S
C277 H270 0.950 . S
C277 C274 1.387 1_565 S
C278 C279 1.387 . S
C278 H282 0.950 . S
C278 C287 1.390 . S
C279 C278 1.387 . S
C279 C281 1.387 . S
H280 C287 0.950 . S
C281 C279 1.387 . S
C281 C283 1.390 . S
C281 H285 0.950 . S
H282 C278 0.950 . S
C283 C281 1.390 . S
C283 C284 1.387 . S
C283 H286 0.950 . S
C284 C283 1.387 . S
C284 C287 1.387 . S
H285 C281 0.950 . S
H286 C283 0.950 . S
C287 C278 1.390 . S
C287 H280 0.950 . S
C287 C284 1.387 . S
C288 C289 1.387 1_545 S
C288 H292 0.950 . S
C288 C297 1.390 . S
C289 C288 1.387 1_565 S
C289 C291 1.387 . S
H290 C297 0.950 . S
C291 C289 1.387 . S
C291 C293 1.390 . S
C291 H295 0.950 . S
H292 C288 0.950 . S
C293 C291 1.390 . S
C293 C294 1.387 . S
C293 H296 0.950 . S
C294 C293 1.387 . S
C294 C297 1.387 1_565 S
H295 C291 0.950 . S
H296 C293 0.950 . S
C297 C288 1.390 . S
C297 H290 0.950 . S
C297 C294 1.387 1_545 S
C298 C299 1.387 . S
C298 H302 0.950 . S
C298 C307 1.390 1_556 S
C299 C298 1.387 . S
C299 C301 1.387 . S
H300 C307 0.950 . S
C301 C299 1.387 . S
C301 C303 1.390 1_556 S
C301 H305 0.950 . S
H302 C298 0.950 . S
C303 C301 1.390 1_554 S
C303 C304 1.387 . S
C303 H306 0.950 . S
C304 C303 1.387 . S
C304 C307 1.387 . S
H305 C301 0.950 . S
H306 C303 0.950 . S
C307 C298 1.390 1_554 S
C307 H300 0.950 . S
C307 C304 1.387 . S
C308 C309 1.387 . S
C308 H312 0.950 . S
C308 C317 1.390 . S
C309 C308 1.387 . S
C309 C311 1.387 1_655 S
H310 C317 0.950 . S
C311 C309 1.387 1_455 S
C311 C313 1.390 . S
C311 H315 0.950 . S
H312 C308 0.950 . S
C313 C311 1.390 . S
C313 C314 1.387 1_455 S
C313 H316 0.950 . S
C314 C313 1.387 1_655 S
C314 C317 1.387 . S
H315 C311 0.950 . S
H316 C313 0.950 . S
C317 C308 1.390 . S
C317 H310 0.950 . S
C317 C314 1.387 . S
C139 C8 1.985 . S
C144 C129 1.890 . S
C149 C26 1.338 . S
C154 C107 1.325 . S
C159 C48 1.487 . S
C164 C120 1.529 . S
C169 C19 1.782 . S
C174 C133 1.828 . S
C184 C103 1.477 . S
C179 C36 1.524 . S
C194 C116 1.598 . S
C189 C59 1.649 . S
C199 C28 1.498 . S
C204 C81 1.527 . S
C209 C46 1.095 . S
C214 C94 1.101 . S
C219 C16 1.511 . S
C224 C64 1.422 . S
C234 C77 1.590 . S
C229 C39 1.651 . S
C244 C90 1.118 . S
C239 C56 1.114 . S
C249 C6 1.380 . S
C254 C68 1.368 . S
C264 C95 1.494 . S
C259 C9 1.471 . S
C269 C21 1.528 . S
C274 C69 1.550 . S
C279 C49 1.545 . S
C284 C82 1.586 . S
C294 C121 1.553 . S
C289 C29 1.522 1_565 S
C304 C134 1.614 . S
C299 C41 1.591 . S
C309 C1 1.539 . S
C314 C108 1.573 1_655 S
