# Generated by pormake.
# Topology zzz, (3,6)-cn, num edge types: 1
# Building blocks:
#     Node 0, Type 0, BuildingBlock: ESEHIV_clean_linker_0, # of connection points: 3
#     Node 1, Type 0, BuildingBlock: ESEHIV_clean_linker_0, # of connection points: 3
#     Node 2, Type 0, BuildingBlock: ESEHIV_clean_linker_0, # of connection points: 3
#     Node 3, Type 0, BuildingBlock: ESEHIV_clean_linker_0, # of connection points: 3
#     Node 4, Type 0, BuildingBlock: ESEHIV_clean_linker_0, # of connection points: 3
#     Node 5, Type 0, BuildingBlock: ESEHIV_clean_linker_0, # of connection points: 3
#     Node 6, Type 0, BuildingBlock: ESEHIV_clean_linker_0, # of connection points: 3
#     Node 7, Type 0, BuildingBlock: ESEHIV_clean_linker_0, # of connection points: 3
#     Node 8, Type 1, BuildingBlock: KUMBUR_clean_sbu_0, # of connection points: 6
#     Node 9, Type 1, BuildingBlock: KUMBUR_clean_sbu_0, # of connection points: 6
#     Node 10, Type 1, BuildingBlock: KUMBUR_clean_sbu_0, # of connection points: 6
#     Node 11, Type 1, BuildingBlock: KUMBUR_clean_sbu_0, # of connection points: 6
#     Edge 12, Type (0, 1), BuildingBlock: TEMPAE_clean_linker_10, # of connection points: 2
#     Edge 13, Type (0, 1), BuildingBlock: TEMPAE_clean_linker_10, # of connection points: 2
#     Edge 14, Type (0, 1), BuildingBlock: TEMPAE_clean_linker_10, # of connection points: 2
#     Edge 15, Type (0, 1), BuildingBlock: TEMPAE_clean_linker_10, # of connection points: 2
#     Edge 16, Type (0, 1), BuildingBlock: TEMPAE_clean_linker_10, # of connection points: 2
#     Edge 17, Type (0, 1), BuildingBlock: TEMPAE_clean_linker_10, # of connection points: 2
#     Edge 18, Type (0, 1), BuildingBlock: TEMPAE_clean_linker_10, # of connection points: 2
#     Edge 19, Type (0, 1), BuildingBlock: TEMPAE_clean_linker_10, # of connection points: 2
#     Edge 20, Type (0, 1), BuildingBlock: TEMPAE_clean_linker_10, # of connection points: 2
#     Edge 21, Type (0, 1), BuildingBlock: TEMPAE_clean_linker_10, # of connection points: 2
#     Edge 22, Type (0, 1), BuildingBlock: TEMPAE_clean_linker_10, # of connection points: 2
#     Edge 23, Type (0, 1), BuildingBlock: TEMPAE_clean_linker_10, # of connection points: 2
#     Edge 24, Type (0, 1), BuildingBlock: TEMPAE_clean_linker_10, # of connection points: 2
#     Edge 25, Type (0, 1), BuildingBlock: TEMPAE_clean_linker_10, # of connection points: 2
#     Edge 26, Type (0, 1), BuildingBlock: TEMPAE_clean_linker_10, # of connection points: 2
#     Edge 27, Type (0, 1), BuildingBlock: TEMPAE_clean_linker_10, # of connection points: 2
#     Edge 28, Type (0, 1), BuildingBlock: TEMPAE_clean_linker_10, # of connection points: 2
#     Edge 29, Type (0, 1), BuildingBlock: TEMPAE_clean_linker_10, # of connection points: 2
#     Edge 30, Type (0, 1), BuildingBlock: TEMPAE_clean_linker_10, # of connection points: 2
#     Edge 31, Type (0, 1), BuildingBlock: TEMPAE_clean_linker_10, # of connection points: 2
#     Edge 32, Type (0, 1), BuildingBlock: TEMPAE_clean_linker_10, # of connection points: 2
#     Edge 33, Type (0, 1), BuildingBlock: TEMPAE_clean_linker_10, # of connection points: 2
#     Edge 34, Type (0, 1), BuildingBlock: TEMPAE_clean_linker_10, # of connection points: 2
#     Edge 35, Type (0, 1), BuildingBlock: TEMPAE_clean_linker_10, # of connection points: 2
# Relax obj value: 0.337
# Max RMSD: 0.221
# Mean RMSD: 0.214
data_MOF--net-zzz--node1-KUMBUR_clean_sbu_0--node2-ESEHIV_clean_linker_0--edge1-TEMPAE_clean_linker_10
_symmetry_space_group_name_H-M    P1
_symmetry_Int_Tables_number       1
_symmetry_cell_setting            triclinic
loop_
_symmetry_equiv_pos_as_xyz
'x, y, z'
_cell_length_a     44.03918
_cell_length_b     43.984154
_cell_length_c     15.548477
_cell_angle_alpha  90.929685
_cell_angle_beta   89.527664
_cell_angle_gamma 89.90738
loop_
_atom_site_label
_atom_site_type_symbol
_atom_site_fract_x
_atom_site_fract_y
_atom_site_fract_z
_atom_type_partial_charge
H0 H 0.81106 0.58469 0.24987 0.0
H1 H 0.73806 0.58535 0.06977 0.0
H2 H 0.73097 0.53175 0.2991 0.0
C3 C 0.78783 0.57879 0.23383 0.0
C4 C 0.77244 0.55813 0.28565 0.0
C5 C 0.77615 0.58769 0.15476 0.0
C6 C 0.74671 0.57909 0.1322 0.0
C7 C 0.72953 0.55994 0.18521 0.0
C8 C 0.7429 0.54846 0.26127 0.0
H9 H 0.93011 0.8155 0.19802 0.0
H10 H 0.93671 0.73079 0.06142 0.0
H11 H 1.00055 0.75198 0.26264 0.0
C12 C 0.94002 0.79304 0.19234 0.0
C13 C 0.96481 0.78574 0.24489 0.0
C14 C 0.93034 0.77401 0.12485 0.0
C15 C 0.94411 0.74557 0.11373 0.0
C16 C 0.96972 0.73743 0.16125 0.0
C17 C 0.98045 0.7578 0.2268 0.0
H18 H 0.7237 0.93294 0.2187 0.0
H19 H 0.80862 0.93027 0.08401 0.0
H20 H 0.79649 0.99135 0.30213 0.0
C21 C 0.74732 0.93966 0.21512 0.0
C22 C 0.75797 0.96177 0.27373 0.0
C23 C 0.76498 0.92877 0.14591 0.0
C24 C 0.79505 0.9385 0.13817 0.0
C25 C 0.80686 0.96112 0.19309 0.0
C26 C 0.78796 0.97336 0.26062 0.0
H27 H 0.59137 0.73487 0.24235 0.0
H28 H 0.54384 0.81562 0.32669 0.0
H29 H 0.58985 0.81253 0.08001 0.0
C30 C 0.58553 0.75853 0.23293 0.0
C31 C 0.59286 0.77205 0.15459 0.0
C32 C 0.56754 0.77334 0.29524 0.0
C33 C 0.5582 0.8038 0.28021 0.0
C34 C 0.56769 0.81864 0.20362 0.0
C35 C 0.58453 0.80223 0.14126 0.0
H36 H 0.25056 0.45184 0.03374 0.0
H37 H 0.31909 0.45236 0.22767 0.0
H38 H 0.31005 0.52873 0.05897 0.0
C39 C 0.27047 0.46213 0.06244 0.0
C40 C 0.2791 0.49105 0.03485 0.0
C41 C 0.28318 0.44907 0.13558 0.0
C42 C 0.3089 0.46265 0.17186 0.0
C43 C 0.3194 0.4911 0.14433 0.0
C44 C 0.30375 0.50589 0.0768 0.0
H45 H 0.07565 0.22687 0.20753 0.0
H46 H 0.08508 0.32187 0.2618 0.0
H47 H 0.02392 0.29102 0.0654 0.0
C48 C 0.072 0.25014 0.18918 0.0
C49 C 0.05434 0.25603 0.11546 0.0
C50 C 0.08186 0.27359 0.24518 0.0
C51 C 0.07615 0.3035 0.22212 0.0
C52 C 0.05204 0.30968 0.16742 0.0
C53 C 0.04171 0.28606 0.11059 0.0
H54 H 0.31536 0.06428 0.17743 0.0
H55 H 0.22598 0.05882 0.28298 0.0
H56 H 0.23881 0.05187 1.00787 0.0
C57 C 0.2911 0.06291 0.16666 0.0
C58 C 0.28013 0.05977 0.08232 0.0
C59 C 0.2719 0.0616 0.23843 0.0
C60 C 0.24075 0.06006 0.22685 0.0
C61 C 0.2282 0.05636 0.14513 0.0
C62 C 0.24803 0.05567 0.07145 0.0
H63 H 0.4409 0.30331 0.067 0.0
H64 H 0.49643 0.22591 0.9996 0.0
H65 H 0.43955 0.22478 0.22665 0.0
C66 C 0.44711 0.2798 0.07753 0.0
C67 C 0.43805 0.26579 0.15393 0.0
C68 C 0.46819 0.26604 0.0212 0.0
C69 C 0.479 0.23636 0.0398 0.0
C70 C 0.46734 0.22068 0.11242 0.0
C71 C 0.4465 0.23558 0.16737 0.0
Tb72 Tb 0.05057 1.01143 0.71684 0.0
C73 C 0.92484 0.99155 0.58326 0.0
C74 C 0.93002 0.96607 0.44499 0.0
C75 C 0.88629 0.95559 0.53595 0.0
C76 C 0.94162 0.98577 0.50939 0.0
C77 C 0.89649 0.97734 0.59606 0.0
C78 C 0.90291 0.95017 0.46011 0.0
C79 C 0.88775 1.01126 0.71744 0.0
N80 N 0.93473 1.01372 0.63767 0.0
C81 C 0.91581 0.02495 0.7014 0.0
C82 C 0.87834 0.98686 0.66576 0.0
Tb83 Tb 0.98259 0.03239 0.61049 0.0
N84 N 0.96689 1.00277 0.49548 0.0
C85 C 0.97847 1.00451 0.41374 0.0
C86 C 0.94463 0.96481 0.36489 0.0
C87 C 0.96831 0.98491 0.34832 0.0
H88 H 0.92302 0.04357 0.74244 0.0
H89 H 0.97835 0.98581 0.28464 0.0
H90 H 0.8938 0.9348 0.41165 0.0
H91 H 0.87347 0.01943 0.7699 0.0
H92 H 0.99479 0.02151 0.39682 0.0
H93 H 0.05797 0.07187 0.02134 0.0
H94 H 0.93647 0.95001 0.31374 0.0
H95 H 0.10481 0.99367 0.57457 0.0
H96 H 0.03325 0.04111 0.91016 0.0
H97 H 0.15761 1.00838 0.54338 0.0
H98 H 0.86475 0.94417 0.5451 0.0
H99 H 0.10963 0.09204 0.99668 0.0
H100 H 0.15462 0.09731 0.8987 0.0
H101 H 0.85647 0.97646 0.6779 0.0
H102 H 0.18161 0.0806 0.76691 0.0
N103 N 0.06967 0.04439 0.81924 0.0
C104 C 0.05544 0.05009 0.89649 0.0
C105 C 0.09844 0.07921 0.94611 0.0
C106 C 0.11319 0.07303 0.86797 0.0
C107 C 0.06944 0.06764 0.96047 0.0
C108 C 0.09827 0.05483 0.80587 0.0
H109 H 0.1831 0.04699 0.6347 0.0
N110 N 0.09954 0.02468 0.68069 0.0
C111 C 0.14551 0.01891 0.59695 0.0
C112 C 0.11367 0.04484 0.73344 0.0
C113 C 0.1155 1.01064 0.61502 0.0
C114 C 0.15975 0.04082 0.64832 0.0
C115 C 0.1441 0.05355 0.71881 0.0
O116 O 0.07751 0.97214 0.72193 0.0
O117 O 1.01253 0.99561 0.63969 0.0
O118 O 0.9705 1.00186 0.71627 0.0
O119 O 1.01121 1.00809 0.80804 0.0
O120 O 0.05327 0.97652 0.61284 0.0
O121 O 0.05206 0.98778 0.83308 0.0
O122 O 0.94633 0.06025 0.57277 0.0
O123 O 0.01928 0.04842 0.69274 0.0
O124 O 0.06264 0.04147 0.6099 0.0
O125 O 0.02216 0.03164 0.5189 0.0
O126 O 0.97639 0.06177 0.72553 0.0
O127 O 0.9924 0.07312 0.54675 0.0
C128 C 0.02537 0.97623 0.59057 0.0
C129 C 0.05384 0.93488 0.80342 0.0
C130 C 1.01042 0.9025 0.83087 0.0
C131 C 0.02419 0.93098 0.83539 0.0
C132 C 0.02664 0.87743 0.79741 0.0
C133 C 0.0698 0.9097 0.76932 0.0
C134 C 0.0562 0.88108 0.76649 0.0
C135 C 0.98238 1.00072 0.79395 0.0
C136 C 0.06728 0.96532 0.79782 0.0
C137 C 0.15833 0.07348 0.77724 0.0
C138 C 0.14297 0.08302 0.85215 0.0
C139 C 1.00441 0.06507 0.74582 0.0
C140 C 0.95932 0.11189 0.59585 0.0
C141 C 0.97876 0.13601 0.57713 0.0
C142 C 0.97662 0.16361 0.62303 0.0
C143 C 0.95463 0.16734 0.68785 0.0
C144 C 0.93713 0.11585 0.6609 0.0
C145 C 0.93493 0.14343 0.70666 0.0
C146 C 0.05095 0.03995 0.5315 0.0
C147 C 0.96434 0.08228 0.55185 0.0
H148 H 1.01172 0.94984 0.86387 0.0
H149 H 0.01647 0.85501 0.79598 0.0
H150 H 0.0926 0.91229 0.74378 0.0
H151 H 0.06857 0.86173 0.74023 0.0
H152 H 0.99599 0.13322 0.52729 0.0
H153 H 0.95235 0.1888 0.72239 0.0
H154 H 0.92182 0.09759 0.67746 0.0
H155 H 0.9179 0.14628 0.75674 0.0
Tb156 Tb 0.52997 0.05775 0.72226 0.0
C157 C 0.55205 0.92983 0.60019 0.0
C158 C 0.57973 0.93268 0.46545 0.0
C159 C 0.58783 0.88984 0.55924 0.0
C160 C 0.55925 0.94558 0.52626 0.0
C161 C 0.5655 0.90132 0.61591 0.0
C162 C 0.59472 0.90536 0.48375 0.0
C163 C 0.52976 0.89471 0.73268 0.0
N164 N 0.52935 0.94081 0.65151 0.0
C165 C 0.51685 0.92287 0.71402 0.0
C166 C 0.55466 0.88421 0.68474 0.0
Tb167 Tb 0.51118 0.988 0.6173 0.0
N168 N 0.54321 0.97123 0.50869 0.0
C169 C 0.54372 0.98227 0.4268 0.0
C170 C 0.5829 0.94636 0.38542 0.0
C171 C 0.56411 0.97065 0.3651 0.0
H172 H 0.49771 0.93085 0.75192 0.0
H173 H 0.56497 0.98018 0.30138 0.0
H174 H 0.61061 0.89527 0.43795 0.0
H175 H 0.52053 0.88118 0.78416 0.0
H176 H 0.52821 0.99954 0.40668 0.0
H177 H 0.46419 0.06955 0.01642 0.0
H178 H 0.59842 0.9372 0.33719 0.0
H179 H 0.5479 0.10914 0.5754 0.0
H180 H 0.49774 0.04354 0.91283 0.0
H181 H 0.53212 0.16073 0.53645 0.0
H182 H 0.59864 0.86815 0.57071 0.0
H183 H 0.44336 0.12031 0.98394 0.0
H184 H 0.43956 0.16371 0.8825 0.0
H185 H 0.56445 0.86225 0.6989 0.0
H186 H 0.45752 0.18834 0.75046 0.0
N187 N 0.49569 0.07846 0.81921 0.0
C188 C 0.48875 0.06541 0.89628 0.0
C189 C 0.45774 0.10866 0.9372 0.0
C190 C 0.46532 0.12227 0.85949 0.0
C191 C 0.46961 0.08015 0.95585 0.0
C192 C 0.48499 0.10663 0.8019 0.0
H193 H 0.49224 0.1875 0.62127 0.0
N194 N 0.51648 0.1058 0.68006 0.0
C195 C 0.52154 0.14972 0.59069 0.0
C196 C 0.49555 0.12071 0.72924 0.0
C197 C 0.53048 0.12041 0.6133 0.0
C198 C 0.49896 0.1647 0.63852 0.0
C199 C 0.48613 0.1505 0.70994 0.0
O200 O 0.56886 0.0851 0.731 0.0
O201 O 0.54735 0.01876 0.6485 0.0
O202 O 0.54001 0.97775 0.72767 0.0
O203 O 0.53236 0.02002 0.81589 0.0
O204 O 0.56573 0.05944 0.62137 0.0
O205 O 0.55181 0.06134 0.8416 0.0
O206 O 0.48805 0.95024 0.56498 0.0
O207 O 0.49374 0.0257 0.69561 0.0
O208 O 0.49961 0.06729 0.61482 0.0
O209 O 0.51173 0.02636 0.52492 0.0
O210 O 0.47994 0.98333 0.72824 0.0
O211 O 0.46913 0.99502 0.55722 0.0
C212 C 0.56689 0.0312 0.60048 0.0
C213 C 0.60503 0.06314 0.81992 0.0
C214 C 0.63752 0.02052 0.85496 0.0
C215 C 0.60878 0.03387 0.8534 0.0
C216 C 0.66287 0.03674 0.82556 0.0
C217 C 0.63054 0.07911 0.79033 0.0
C218 C 0.65935 0.06593 0.7933 0.0
C219 C 0.54025 0.99108 0.80438 0.0
C220 C 0.57459 0.07618 0.80857 0.0
C221 C 0.46515 0.16552 0.76433 0.0
C222 C 0.45491 0.15149 0.83939 0.0
C223 C 0.47627 1.01169 0.74695 0.0
C224 C 0.4358 0.95566 0.59711 0.0
C225 C 0.41032 0.97456 0.59828 0.0
C226 C 0.38493 0.96804 0.6499 0.0
C227 C 0.38478 0.94155 0.69895 0.0
C228 C 0.43528 0.92898 0.64596 0.0
C229 C 0.40988 0.92205 0.69653 0.0
C230 C 0.50219 0.05491 0.53682 0.0
C231 C 0.46361 0.96597 0.55249 0.0
H232 H 0.58961 0.02137 0.87827 0.0
H233 H 0.68537 0.0268 0.82794 0.0
H234 H 0.6281 0.1016 0.76376 0.0
H235 H 0.67894 0.07829 0.77026 0.0
H236 H 0.41039 0.99464 0.55869 0.0
H237 H 0.36536 0.93596 0.73882 0.0
H238 H 0.45461 0.91375 0.64647 0.0
H239 H 0.40975 0.90164 0.73446 0.0
Tb240 Tb 0.55089 0.50819 0.60162 0.0
C241 C 0.42847 0.54543 0.68091 0.0
C242 C 0.41809 0.59949 0.6941 0.0
C243 C 0.37954 0.56577 0.63671 0.0
C244 C 0.43785 0.57441 0.70339 0.0
C245 C 0.39864 0.54076 0.65047 0.0
C246 C 0.38937 0.59513 0.65773 0.0
C247 C 0.40718 0.48688 0.65801 0.0
N248 N 0.44746 0.52166 0.6959 0.0
C249 C 0.43652 0.4925 0.68765 0.0
C250 C 0.38824 0.51106 0.63882 0.0
Tb251 Tb 0.49514 0.53464 0.74744 0.0
N252 N 0.46518 0.57766 0.7418 0.0
C253 C 0.47274 0.60508 0.7796 0.0
C254 C 0.42709 0.62798 0.72578 0.0
C255 C 0.45433 0.63066 0.77009 0.0
H256 H 0.44979 0.47282 0.70189 0.0
H257 H 0.46115 0.65239 0.79719 0.0
H258 H 0.37404 0.61413 0.64937 0.0
H259 H 0.39912 0.46375 0.65066 0.0
H260 H 0.49388 0.60761 0.8135 0.0
H261 H 0.60918 0.43757 0.83481 0.0
H262 H 0.41261 0.64775 0.71949 0.0
H263 H 0.57903 0.56541 0.47997 0.0
H264 H 0.56555 0.45561 0.75959 0.0
H265 H 0.6241 0.59691 0.47442 0.0
H266 H 0.35673 0.56257 0.61268 0.0
H267 H 0.65873 0.46257 0.81747 0.0
H268 H 0.68898 0.50537 0.75867 0.0
H269 H 0.36522 0.50655 0.61839 0.0
H270 H 0.69187 0.55079 0.67024 0.0
N271 N 0.58842 0.49194 0.69458 0.0
C272 C 0.58621 0.4676 0.74868 0.0
C273 C 0.63916 0.47136 0.78426 0.0
C274 C 0.64138 0.49701 0.73315 0.0
C275 C 0.61132 0.45703 0.79348 0.0
C276 C 0.61541 0.50687 0.68821 0.0
H277 H 0.66758 0.58584 0.56776 0.0
N278 N 0.59237 0.54051 0.59129 0.0
C279 C 0.62228 0.57937 0.52225 0.0
C280 C 0.61719 0.53229 0.63701 0.0
C281 C 0.5959 0.56201 0.52857 0.0
C282 C 0.64679 0.5729 0.57441 0.0
C283 C 0.64495 0.54838 0.62995 0.0
O284 O 0.55756 0.51153 0.46785 0.0
O285 O 0.50379 0.52324 0.61313 0.0
O286 O 0.4963 0.48442 0.75084 0.0
O287 O 0.53219 0.46558 0.65182 0.0
O288 O 0.51228 0.4845 0.54356 0.0
O289 O 0.5791 0.4761 0.53933 0.0
O290 O 0.50104 0.50967 0.86072 0.0
O291 O 0.54262 0.52137 0.73408 0.0
O292 O 0.53806 0.55539 0.56738 0.0
O293 O 0.51182 0.57595 0.68418 0.0
O294 O 0.53344 0.56165 0.7949 0.0
O295 O 0.47054 0.54727 0.85948 0.0
C296 C 0.49118 0.50332 0.56574 0.0
C297 C 0.57132 0.46641 0.39244 0.0
C298 C 0.54072 0.42823 0.31849 0.0
C299 C 0.54319 0.4527 0.37692 0.0
C300 C 0.56667 0.41938 0.27029 0.0
C301 C 0.59672 0.4576 0.34335 0.0
C302 C 0.59425 0.43446 0.28152 0.0
C303 C 0.51127 0.46156 0.71276 0.0
C304 C 0.57546 0.48799 0.46401 0.0
C305 C 0.67048 0.53878 0.67538 0.0
C306 C 0.66881 0.51292 0.7258 0.0
C307 C 0.55522 0.54335 0.77403 0.0
C308 C 0.49896 0.54005 0.98526 0.0
C309 C 0.51307 0.56847 0.98327 0.0
C310 C 0.53046 0.57905 0.05214 0.0
C311 C 0.53221 0.56165 0.12685 0.0
C312 C 0.50117 0.5225 0.05946 0.0
C313 C 0.51745 0.5335 0.13046 0.0
C314 C 0.52647 0.57905 0.61052 0.0
C315 C 0.48436 0.52784 0.90734 0.0
H316 H 0.52334 0.46052 0.41128 0.0
H317 H 0.56614 0.4002 0.22587 0.0
H318 H 0.61861 0.46815 0.35422 0.0
H319 H 0.61403 0.42743 0.24444 0.0
H320 H 0.51092 0.58249 0.92752 0.0
H321 H 0.54542 0.56948 0.18131 0.0
H322 H 0.49066 0.50028 0.06207 0.0
H323 H 0.51913 0.51991 0.18766 0.0
Tb324 Tb 0.03646 0.55086 0.59065 0.0
C325 C 0.99646 0.43139 0.67654 0.0
C326 C 0.94227 0.42505 0.69847 0.0
C327 C 0.97177 0.38419 0.63227 0.0
C328 C 0.96873 0.44304 0.70363 0.0
C329 C 0.99838 0.40119 0.64452 0.0
C330 C 0.94372 0.39613 0.65913 0.0
C331 C 0.05279 0.40469 0.65437 0.0
N332 N 0.02182 0.44831 0.6908 0.0
C333 C 0.0498 0.43464 0.68499 0.0
C334 C 0.02704 0.38821 0.63152 0.0
Tb335 Tb 0.01329 0.49727 0.74046 0.0
N336 N 0.96827 0.47082 0.74293 0.0
C337 C 0.94263 0.4805 0.78633 0.0
C338 C 0.91551 0.43592 0.73721 0.0
C339 C 0.9159 0.46344 0.78307 0.0
H340 H 0.07032 0.44618 0.703 0.0
H341 H 0.8955 0.47175 0.81494 0.0
H342 H 0.92355 0.38221 0.65319 0.0
H343 H 0.07505 0.39438 0.64811 0.0
H344 H 0.94214 0.50217 0.8195 0.0
H345 H 0.07262 0.64496 0.79793 0.0
H346 H 0.89475 0.42276 0.73474 0.0
H347 H 1.00326 0.55459 0.39701 0.0
H348 H 0.07415 0.59332 0.74252 0.0
H349 H 0.97192 0.59069 0.31879 0.0
H350 H 0.97282 0.3612 0.6063 0.0
H351 H 0.03669 0.68224 0.73876 0.0
H352 H 0.997 0.69449 0.63109 0.0
H353 H 0.02949 0.36499 0.60824 0.0
H354 H 0.96925 0.67966 0.50051 0.0
N355 N 0.03855 0.5993 0.65042 0.0
C356 C 0.05808 0.60846 0.71412 0.0
C357 C 0.03693 0.65911 0.71396 0.0
C358 C 0.01812 0.65036 0.6462 0.0
C359 C 0.05732 0.63821 0.74703 0.0
C360 C 0.01978 0.62011 0.61455 0.0
H361 H 0.96042 0.64131 0.38232 0.0
N362 N 1.00839 0.58341 0.50833 0.0
C363 C 0.98048 0.59683 0.3818 0.0
C364 C 1.00416 0.61188 0.54107 0.0
C365 C 0.99815 0.57623 0.42729 0.0
C366 C 0.97401 0.62534 0.4179 0.0
C367 C 0.98649 0.63348 0.49745 0.0
O368 O 0.06286 0.57557 0.50186 0.0
O369 O 0.03224 0.50174 0.61261 0.0
O370 O 0.0633 0.49665 0.72689 0.0
O371 O 0.07255 0.54579 0.68629 0.0
O372 O 0.01635 0.51866 0.49952 0.0
O373 O 0.07575 0.53076 0.53737 0.0
O374 O 0.03709 0.50778 0.85398 0.0
O375 O 0.02473 0.54508 0.72445 0.0
O376 O 0.98625 0.5505 0.58369 0.0
O377 O 0.97266 0.50775 0.66208 0.0
O378 O 0.98565 0.53578 0.7878 0.0
O379 O 1.00754 0.46985 0.85002 0.0
C380 C 0.01973 0.49416 0.54165 0.0
C381 C 0.08271 0.5425 0.39261 0.0
C382 C 0.10202 0.50548 0.2871 0.0
C383 C 0.09938 0.51609 0.37234 0.0
C384 C 0.08734 0.52143 0.22169 0.0
C385 C 0.06844 0.55836 0.3263 0.0
C386 C 0.07059 0.54766 0.24142 0.0
C387 C 0.08173 0.52035 0.72199 0.0
C388 C 0.0801 0.55241 0.48346 0.0
C389 C 0.98307 0.6629 0.53238 0.0
C390 C 0.99888 0.67134 0.60668 0.0
C391 C 1.00275 0.55782 0.76433 0.0
C392 C 1.01189 0.49675 0.98165 0.0
C393 C 0.98518 0.51385 0.98367 0.0
C394 C 0.97439 0.52755 0.0599 0.0
C395 C 0.99008 0.52222 0.13675 0.0
C396 C 0.02727 0.49149 0.05848 0.0
C397 C 0.01598 0.50374 0.13602 0.0
C398 C 0.96585 0.53033 0.60966 0.0
C399 C 0.02469 0.48659 0.89853 0.0
H400 H 0.11127 0.50437 0.42289 0.0
H401 H 0.08926 0.51388 0.1552 0.0
H402 H 0.05567 0.57896 0.33976 0.0
H403 H 0.05949 0.5599 0.19062 0.0
H404 H 0.97264 0.5164 0.92549 0.0
H405 H 0.98253 0.53235 0.19717 0.0
H406 H 0.048 0.47819 0.0584 0.0
H407 H 0.02752 0.49926 0.19561 0.0
C408 C 0.18531 0.02312 0.18663 0.0
C409 C 0.19467 0.05019 0.14725 0.0
C410 C 0.15875 0.02189 0.23811 0.0
C411 C 0.13978 0.04787 0.24731 0.0
C412 C 0.14678 0.07379 0.19742 0.0
C413 C 0.17433 0.07488 0.14961 0.0
C414 C 0.15301 0.99384 0.29044 0.0
C415 C 0.12634 0.10132 0.19986 0.0
C416 C 0.06501 0.03441 0.37213 0.0
C417 C 0.07192 0.0452 0.45549 0.0
C418 C 0.08593 0.03676 0.30272 0.0
C419 C 0.11531 0.04903 0.31678 0.0
C420 C 0.12215 0.06064 0.40024 0.0
C421 C 0.10029 0.05926 0.46725 0.0
C422 C 0.07674 0.02516 0.21486 0.0
C423 C 0.1532 0.07333 0.42015 0.0
H424 H 0.20105 1.00414 0.18719 0.0
H425 H 0.18131 0.09609 0.12097 0.0
H426 H 0.15674 0.99927 0.35954 0.0
H427 H 0.12914 0.98627 0.28375 0.0
H428 H 0.16824 0.97471 0.27117 0.0
H429 H 0.13264 0.11788 0.14961 0.0
H430 H 0.10235 0.09438 0.19056 0.0
H431 H 0.12781 0.11284 0.26368 0.0
H432 H 0.0436 0.0232 0.361 0.0
H433 H 0.10594 0.06839 0.53024 0.0
H434 H 0.08689 1.00238 0.2028 0.0
H435 H 0.08513 0.04044 0.16378 0.0
H436 H 0.05169 0.02304 0.20943 0.0
H437 H 0.17058 0.05524 0.41071 0.0
H438 H 0.15477 0.08227 0.48719 0.0
H439 H 0.1589 0.09191 0.37551 0.0
C440 C 0.50439 0.19042 0.19722 0.0
C441 C 0.47907 0.19082 0.14302 0.0
C442 C 0.50979 0.16587 0.25269 0.0
C443 C 0.48932 0.14095 0.25466 0.0
C444 C 0.46498 0.14029 0.1954 0.0
C445 C 0.46001 0.16525 0.14106 0.0
C446 C 0.53598 0.16797 0.3144 0.0
C447 C 0.44285 0.11418 0.19375 0.0
C448 C 0.51153 0.06989 0.38169 0.0
C449 C 0.49676 0.07501 0.46117 0.0
C450 C 0.5089 0.09064 0.31345 0.0
C451 C 0.49134 0.11754 0.32466 0.0
C452 C 0.47597 0.1225 0.40429 0.0
C453 C 0.47866 0.10121 0.47075 0.0
C454 C 0.52569 0.08421 0.23014 0.0
C455 C 0.45718 0.15079 0.42037 0.0
H456 H 0.51864 0.21046 0.20133 0.0
H457 H 0.43995 0.16572 0.10115 0.0
H458 H 0.52718 0.1744 0.37924 0.0
H459 H 0.54767 0.14573 0.31967 0.0
H460 H 0.55281 0.18534 0.29456 0.0
H461 H 0.42645 0.116 0.14035 0.0
H462 H 0.4552 0.09226 0.18686 0.0
H463 H 0.42998 0.11368 0.25536 0.0
H464 H 0.5261 0.05023 0.37353 0.0
H465 H 0.46704 0.10551 0.53149 0.0
H466 H 0.54338 0.10178 0.22034 0.0
H467 H 0.50989 0.08542 0.17508 0.0
H468 H 0.53677 0.06149 0.22921 0.0
H469 H 0.47185 0.1712 0.41581 0.0
H470 H 0.44602 0.15099 0.48473 0.0
H471 H 0.43942 0.1527 0.37053 0.0
C472 C 0.37419 0.50587 0.16953 0.0
C473 C 0.34381 0.50564 0.19762 0.0
C474 C 0.39829 0.51049 0.22832 0.0
C475 C 0.39201 0.51445 0.31774 0.0
C476 C 0.36121 0.51594 0.34494 0.0
C477 C 0.33771 0.51181 0.28493 0.0
C478 C 0.43058 0.50873 0.19558 0.0
C479 C 0.35287 0.51847 0.43878 0.0
C480 C 0.45064 0.48135 0.47209 0.0
C481 C 0.46422 0.5073 0.50857 0.0
C482 C 0.4271 0.48337 0.41154 0.0
C483 C 0.41711 0.51228 0.38357 0.0
C484 C 0.4309 0.53872 0.41998 0.0
C485 C 0.4541 0.53594 0.48222 0.0
C486 C 0.4138 0.45397 0.3773 0.0
C487 C 0.42164 0.56999 0.39164 0.0
H488 H 0.37924 0.50042 0.1027 0.0
H489 H 0.31436 0.51092 0.30759 0.0
H490 H 0.44451 0.52705 0.22523 0.0
H491 H 0.44066 0.48664 0.21395 0.0
H492 H 0.43189 0.51057 0.12446 0.0
H493 H 0.32861 0.52463 0.44887 0.0
H494 H 0.35702 0.49615 0.46884 0.0
H495 H 0.36715 0.53566 0.47176 0.0
H496 H 0.45854 0.45912 0.49109 0.0
H497 H 0.46489 0.55615 0.50846 0.0
H498 H 0.43071 0.44261 0.33422 0.0
H499 H 0.39243 0.45692 0.34124 0.0
H500 H 0.40915 0.43838 0.43124 0.0
H501 H 0.4248 0.57177 0.321 0.0
H502 H 0.43496 0.58823 0.424 0.0
H503 H 0.3972 0.57384 0.40584 0.0
C504 C 0.0157 0.33474 0.26843 0.0
C505 C 0.03423 0.33738 0.19468 0.0
C506 C 1.0102 0.35965 0.32502 0.0
C507 C 0.02246 0.38866 0.30649 0.0
C508 C 0.0385 0.39217 0.22744 0.0
C509 C 0.04481 0.3665 0.17385 0.0
C510 C 0.99397 0.35396 0.40905 0.0
C511 C 0.051 0.4227 0.20231 0.0
C512 C 0.99452 0.45823 0.43893 0.0
C513 C 0.01904 0.46425 0.49407 0.0
C514 C 0.99526 0.43406 0.37779 0.0
C515 C 0.02082 0.41444 0.37258 0.0
C516 C 0.04531 0.41995 0.42974 0.0
C517 C 0.04473 0.44549 0.48653 0.0
C518 C 0.96918 0.43037 0.31621 0.0
C519 C 0.07219 0.39872 0.43097 0.0
H520 H 1.00848 0.31223 0.28742 0.0
H521 H 0.05996 0.36881 0.11907 0.0
H522 H 1.01098 0.35306 0.46114 0.0
H523 H 0.97786 0.3726 0.42546 0.0
H524 H 0.98141 0.33208 0.4078 0.0
H525 H 0.05781 0.42307 0.13338 0.0
H526 H 0.03399 0.44089 0.21489 0.0
H527 H 0.07124 0.42801 0.24163 0.0
H528 H 0.97511 0.47346 0.44102 0.0
H529 H 0.06474 0.4512 0.52337 0.0
H530 H 0.95979 0.40704 0.31955 0.0
H531 H 0.9775 0.4336 0.24939 0.0
H532 H 0.9506 0.44693 0.3297 0.0
H533 H 0.06445 0.37556 0.44801 0.0
H534 H 0.0896 0.40619 0.478 0.0
H535 H 0.0827 0.39702 0.36611 0.0
C536 C 0.86291 0.95304 0.17122 0.0
C537 C 0.83777 0.9728 0.16876 0.0
C538 C 0.88941 0.95818 0.12148 0.0
C539 C 0.89096 0.98352 0.06622 0.0
C540 C 0.86649 1.00465 0.06809 0.0
C541 C 0.84031 0.99905 0.119 0.0
C542 C 0.91484 0.9352 0.12324 0.0
C543 C 0.86685 0.032 1.01079 0.0
C544 C 0.9654 1.00601 0.95033 0.0
C545 C 0.96134 0.99338 0.86755 0.0
C546 C 0.94326 1.00244 0.01622 0.0
C547 C 0.91615 0.98596 0.99942 0.0
C548 C 0.91262 0.97221 0.91684 0.0
C549 C 0.9352 0.97583 0.85281 0.0
C550 C 0.94842 0.01736 0.10288 0.0
C551 C 0.88455 0.95409 0.8952 0.0
H552 H 0.86097 0.93229 0.20756 0.0
H553 H 0.82079 0.01397 0.11434 0.0
H554 H 0.91555 0.92244 0.06118 0.0
H555 H 0.93706 0.94676 0.13074 0.0
H556 H 0.91195 0.91874 0.17613 0.0
H557 H 0.84803 0.04806 0.02642 0.0
H558 H 0.88876 0.04425 0.01659 0.0
H559 H 0.86464 0.0244 0.94271 0.0
H560 H 0.98534 0.01971 0.9629 0.0
H561 H 0.93201 0.96539 0.78991 0.0
H562 H 0.94293 1.00145 0.1554 0.0
H563 H 0.93308 0.03728 0.11048 0.0
H564 H 0.97221 0.02526 0.11043 0.0
H565 H 0.88373 0.93344 0.93509 0.0
H566 H 0.88396 0.94707 0.82637 0.0
H567 H 0.86382 0.96762 0.91002 0.0
C568 C 0.53303 0.85449 0.12913 0.0
C569 C 0.55874 0.85021 0.18021 0.0
C570 C 0.52949 0.88086 0.07957 0.0
C571 C 0.55228 0.90367 0.08055 0.0
C572 C 0.57715 0.90049 0.13717 0.0
C573 C 0.58021 0.87375 0.18565 0.0
C574 C 0.50261 0.88304 0.02042 0.0
C575 C 0.60164 0.9244 0.14184 0.0
C576 C 0.56384 0.9446 0.86768 0.0
C577 C 0.54698 0.97146 0.8798 0.0
C578 C 0.56622 0.9229 0.93287 0.0
C579 C 0.55213 0.92831 1.01408 0.0
C580 C 0.53684 0.95639 0.02887 0.0
C581 C 0.5343 0.97752 0.96155 0.0
C582 C 0.58275 0.89347 0.91335 0.0
C583 C 0.52186 0.96357 0.11438 0.0
H584 H 0.51683 0.83606 0.12261 0.0
H585 H 0.60052 0.87032 0.22325 0.0
H586 H 0.49179 0.90576 0.02679 0.0
H587 H 0.51042 0.88025 0.95271 0.0
H588 H 0.48529 0.86536 0.03375 0.0
H589 H 0.61863 0.91955 0.19223 0.0
H590 H 0.61356 0.9257 0.07889 0.0
H591 H 0.59141 0.94706 0.15536 0.0
H592 H 0.57443 0.93999 0.80564 0.0
H593 H 0.52128 0.99817 0.97211 0.0
H594 H 0.56684 0.87406 0.91933 0.0
H595 H 0.60112 0.89014 0.96052 0.0
H596 H 0.59275 0.89281 0.84761 0.0
H597 H 0.50032 0.95064 0.11938 0.0
H598 H 0.51654 0.98818 0.12184 0.0
H599 H 0.53651 0.95662 0.16834 0.0
C600 C 0.69882 0.52498 0.09278 0.0
C601 C 0.69965 0.54967 0.15075 0.0
C602 C 0.67407 0.52051 0.03693 0.0
C603 C 0.64935 0.5413 0.03822 0.0
C604 C 0.64906 0.56488 0.10179 0.0
C605 C 0.67434 0.56906 0.15615 0.0
C606 C 0.67585 0.49498 0.97165 0.0
C607 C 0.62285 0.58685 0.1091 0.0
C608 C 0.60628 0.5591 0.83099 0.0
C609 C 0.58076 0.54019 0.83625 0.0
C610 C 0.62914 0.5587 0.89418 0.0
C611 C 0.62567 0.5404 0.96813 0.0
C612 C 0.59938 0.52192 0.97498 0.0
C613 C 0.57765 0.52162 0.90847 0.0
C614 C 0.65708 0.57799 0.88175 0.0
C615 C 0.59363 0.50324 0.05398 0.0
H616 H 0.71864 0.51041 0.08662 0.0
H617 H 0.67508 0.5886 0.19951 0.0
H618 H 0.6536 0.48351 0.96497 0.0
H619 H 0.68211 0.50462 0.90868 0.0
H620 H 0.69321 0.47777 0.98852 0.0
H621 H 0.62368 0.6008 0.16924 0.0
H622 H 0.6234 0.60234 0.05365 0.0
H623 H 0.60098 0.57441 0.10722 0.0
H624 H 0.60831 0.57436 0.77724 0.0
H625 H 0.5576 0.5076 0.91453 0.0
H626 H 0.67765 0.56338 0.88269 0.0
H627 H 0.65908 0.59479 0.93534 0.0
H628 H 0.65674 0.59039 0.82007 0.0
H629 H 0.61269 0.48721 0.06392 0.0
H630 H 0.57218 0.49006 0.04966 0.0
H631 H 0.59236 0.51842 0.11162 0.0
C632 C 1.00836 0.71113 0.06671 0.0
C633 C 0.98572 0.70908 0.13048 0.0
C634 C 0.01566 0.68613 1.01171 0.0
C635 C 0.9997 0.65819 0.01911 0.0
C636 C 0.97872 0.65537 0.08854 0.0
C637 C 0.97179 0.68075 0.14228 0.0
C638 C 0.03884 0.69073 0.9415 0.0
C639 C 0.96129 0.62643 0.10172 0.0
C640 C 0.98456 0.60955 0.81498 0.0
C641 C 1.00498 0.58527 0.82276 0.0
C642 C 0.98328 0.6336 0.87672 0.0
C643 C 1.00242 0.63335 0.94998 0.0
C644 C 0.02337 0.60892 0.95745 0.0
C645 C 0.02437 0.58533 0.8942 0.0
C646 C 0.96117 0.6593 0.86363 0.0
C647 C 0.04438 0.60737 0.03332 0.0
H648 H 0.01869 0.73306 0.05513 0.0
H649 H 0.95367 0.67904 0.18961 0.0
H650 H 0.05164 0.66952 0.927 0.0
H651 H 0.02694 0.69775 0.88252 0.0
H652 H 0.0552 0.70895 0.95911 0.0
H653 H 0.95095 0.62545 0.16706 0.0
H654 H 0.94281 0.62545 0.05402 0.0
H655 H 0.97603 0.60622 0.09152 0.0
H656 H 0.96924 0.60955 0.76076 0.0
H657 H 0.03986 0.56644 0.9019 0.0
H658 H 0.97391 0.6807 0.85352 0.0
H659 H 0.94672 0.66268 0.92183 0.0
H660 H 0.94629 0.6552 0.80728 0.0
H661 H 0.05743 0.62885 0.03963 0.0
H662 H 0.06059 0.58804 0.02757 0.0
H663 H 0.03091 0.6048 0.09337 0.0
C664 C 0.07523 0.28602 0.40212 0.0
C665 C 0.08815 0.26696 0.33754 0.0
C666 C 0.06512 0.27397 0.47983 0.0
C667 C 0.06808 0.24246 0.49224 0.0
C668 C 0.08818 0.22541 0.4387 0.0
C669 C 0.09833 0.23807 0.36137 0.0
C670 C 0.04572 0.29367 0.53869 0.0
C671 C 0.09404 0.19219 0.45423 0.0
C672 C 0.02068 0.19785 0.65151 0.0
C673 C 0.99683 0.18851 0.59835 0.0
C674 C 0.04361 0.21697 0.61997 0.0
C675 C 0.04248 0.22629 0.53338 0.0
C676 C 0.01705 0.21852 0.48188 0.0
C677 C 0.99462 0.19965 0.51523 0.0
C678 C 0.06957 0.22573 0.67792 0.0
C679 C 0.01407 0.22878 0.38986 0.0
H680 H 0.0684 0.30907 0.38851 0.0
H681 H 0.11052 0.22385 0.31513 0.0
H682 H 0.02204 0.29369 0.51467 0.0
H683 H 0.04544 0.28519 0.60546 0.0
H684 H 0.05396 0.31753 0.53915 0.0
H685 H 0.11522 0.18434 0.42146 0.0
H686 H 0.09571 0.18773 0.52405 0.0
H687 H 0.07484 0.17861 0.42831 0.0
H688 H 0.0222 0.189 0.71587 0.0
H689 H 0.97591 0.19235 0.47491 0.0
H690 H 0.07905 0.24829 0.66192 0.0
H691 H 0.08808 0.20877 0.66999 0.0
H692 H 0.06228 0.2261 0.74651 0.0
H693 H 0.01549 0.25391 0.38682 0.0
H694 H 0.99223 0.22161 0.36065 0.0
H695 H 0.03281 0.21907 0.34995 0.0
C696 C 0.30767 0.03376 0.32994 0.0
C697 C 0.28437 0.05524 0.32419 0.0
C698 C 0.31748 0.02364 0.40922 0.0
C699 C 0.30299 0.03468 0.48534 0.0
C700 C 0.27966 0.05665 0.4807 0.0
C701 C 0.27073 0.06695 0.39977 0.0
C702 C 0.34331 1.00087 0.41057 0.0
C703 C 0.26446 0.06934 0.56085 0.0
C704 C 0.32941 0.97601 0.6295 0.0
C705 C 0.3582 0.9882 0.64537 0.0
C706 C 0.30691 0.99406 0.5927 0.0
C707 C 0.31436 0.02403 0.5685 0.0
C708 C 0.34083 0.03796 0.60106 0.0
C709 C 0.3625 0.01971 0.64023 0.0
C710 C 0.27764 0.97937 0.56484 0.0
C711 C 0.34869 0.07071 0.58296 0.0
H712 H 0.31765 0.02386 0.27199 0.0
H713 H 0.25276 0.0837 0.39548 0.0
H714 H 0.36203 1.00956 0.4513 0.0
H715 H 0.33529 0.97914 0.43783 0.0
H716 H 0.35278 0.99591 0.34538 0.0
H717 H 0.24455 0.08381 0.54588 0.0
H718 H 0.25692 0.0506 0.60291 0.0
H719 H 0.28103 0.08322 0.59778 0.0
H720 H 0.32551 0.95184 0.63637 0.0
H721 H 0.38432 0.02935 0.65656 0.0
H722 H 0.28064 0.96947 0.49918 0.0
H723 H 0.25892 0.99627 0.56302 0.0
H724 H 0.27116 0.96073 0.60869 0.0
H725 H 0.3379 0.07944 0.52417 0.0
H726 H 0.37361 0.07378 0.57609 0.0
H727 H 0.34063 0.0851 0.6378 0.0
C728 C 0.41191 0.31159 0.21765 0.0
C729 C 0.43025 0.28582 0.22863 0.0
C730 C 0.41866 0.33882 0.26182 0.0
C731 C 0.44491 0.34002 0.31349 0.0
C732 C 0.45835 0.31253 0.34024 0.0
C733 C 0.45018 0.28538 0.29859 0.0
C734 C 0.40101 0.36722 0.24227 0.0
C735 C 0.48475 0.31221 0.40168 0.0
C736 C 0.50455 0.39503 0.23708 0.0
C737 C 0.51209 0.41029 0.31351 0.0
C738 C 0.48183 0.37291 0.2356 0.0
C739 C 0.4643 0.36759 0.31113 0.0
C740 C 0.46939 0.38551 0.38593 0.0
C741 C 0.49372 0.40606 0.38697 0.0
C742 C 0.47876 0.35352 0.15485 0.0
C743 C 0.45079 0.38194 0.4671 0.0
H744 H 0.39528 0.31169 0.16662 0.0
H745 H 0.46342 0.26513 0.31072 0.0
H746 H 0.402 0.38379 0.29687 0.0
H747 H 0.4108 0.37815 0.18456 0.0
H748 H 0.37691 0.3617 0.22845 0.0
H749 H 0.50351 0.32671 0.37771 0.0
H750 H 0.47732 0.32139 0.46517 0.0
H751 H 0.49383 0.28893 0.41123 0.0
H752 H 0.51759 0.39909 0.17901 0.0
H753 H 0.49908 0.41752 0.44711 0.0
H754 H 0.45632 0.35736 0.12517 0.0
H755 H 0.48065 0.32908 0.17042 0.0
H756 H 0.49653 0.35857 0.10616 0.0
H757 H 0.42921 0.36958 0.4559 0.0
H758 H 0.44552 0.40457 0.4961 0.0
H759 H 0.46436 0.36968 0.51537 0.0
C760 C 0.24284 0.40922 0.14722 0.0
C761 C 0.26335 0.42905 0.18825 0.0
C762 C 0.21277 0.40721 0.17754 0.0
C763 C 0.20388 0.42536 0.24922 0.0
C764 C 0.22655 0.43766 0.30344 0.0
C765 C 0.25646 0.43905 0.27248 0.0
C766 C 0.18957 0.39048 0.12433 0.0
C767 C 0.21841 0.45487 0.38518 0.0
C768 C 0.14601 0.4861 0.20331 0.0
C769 C 0.12392 0.48086 0.26605 0.0
C770 C 0.17126 0.46708 0.19447 0.0
C771 C 0.17406 0.44127 0.24762 0.0
C772 C 0.1504 0.4343 0.30619 0.0
C773 C 0.12573 0.45451 0.31565 0.0
C774 C 0.19605 0.47638 0.13279 0.0
C775 C 0.15114 0.40619 0.36046 0.0
H776 H 0.2486 0.3996 0.08453 0.0
H777 H 0.27259 0.45292 0.30777 0.0
H778 H 0.17042 0.38262 0.16523 0.0
H779 H 0.18031 0.40595 0.07526 0.0
H780 H 0.2 0.37064 0.0902 0.0
H781 H 0.23861 0.45881 0.42621 0.0
H782 H 0.2086 0.47729 0.36878 0.0
H783 H 0.20115 0.44229 0.42275 0.0
H784 H 0.14483 0.50659 0.16558 0.0
H785 H 0.10836 0.45025 0.36368 0.0
H786 H 0.19927 0.45853 0.08249 0.0
H787 H 0.21771 0.47959 0.16748 0.0
H788 H 0.19067 0.49795 0.10062 0.0
H789 H 0.1359 0.38887 0.33135 0.0
H790 H 0.1426 0.41141 0.42646 0.0
H791 H 0.17407 0.39593 0.36498 0.0
C792 C 0.92673 0.78596 0.97079 0.0
C793 C 0.91342 0.788 0.05289 0.0
C794 C 0.92689 0.81124 0.91747 0.0
C795 C 0.91269 0.83847 0.94719 0.0
C796 C 0.89165 0.83697 0.01612 0.0
C797 C 0.89239 0.81151 0.06955 0.0
C798 C 0.94755 0.81049 0.83935 0.0
C799 C 0.87237 0.86393 0.04235 0.0
C800 C 0.97933 0.88932 0.95575 0.0
C801 C 0.98048 0.8977 0.86997 0.0
C802 C 0.95402 0.87416 0.98812 0.0
C803 C 0.92949 0.8672 0.93207 0.0
C804 C 0.92833 0.88115 0.85078 0.0
C805 C 0.95431 0.89597 0.81967 0.0
C806 C 0.95613 0.86169 0.07774 0.0
C807 C 0.90115 0.87785 0.79316 0.0
H808 H 0.94164 0.76709 0.95434 0.0
H809 H 0.88019 0.8123 0.1304 0.0
H810 H 0.93602 0.82047 0.78351 0.0
H811 H 0.96831 0.824 0.85256 0.0
H812 H 0.95464 0.78697 0.82133 0.0
H813 H 0.84872 0.85636 0.05485 0.0
H814 H 0.88091 0.874 0.10338 0.0
H815 H 0.87214 0.88164 0.99234 0.0
H816 H 0.99951 0.89175 0.99486 0.0
H817 H 0.95481 0.90422 0.75446 0.0
H818 H 0.96152 0.83709 0.07332 0.0
H819 H 0.93444 0.86475 0.11325 0.0
H820 H 0.97427 0.87298 0.11587 0.0
H821 H 0.89732 0.89916 0.75749 0.0
H822 H 0.88031 0.87218 0.83017 0.0
H823 H 0.9054 0.85971 0.74423 0.0
C824 C 0.75175 0.92957 0.99219 0.0
C825 C 0.74903 0.91489 0.07116 0.0
C826 C 0.72648 0.93241 0.939 0.0
C827 C 0.69842 0.91969 0.96576 0.0
C828 C 0.69843 0.89782 0.03141 0.0
C829 C 0.72397 0.89573 0.08446 0.0
C830 C 0.72849 0.95431 0.86526 0.0
C831 C 0.6702 0.88052 0.05519 0.0
C832 C 0.65128 0.98934 0.97813 0.0
C833 C 0.64196 0.99056 0.89295 0.0
C834 C 0.66543 0.96329 1.00881 0.0
C835 C 0.67079 0.93829 0.95144 0.0
C836 C 0.6563 0.9376 0.87056 0.0
C837 C 0.64215 0.96413 0.84157 0.0
C838 C 0.67833 0.96459 0.09849 0.0
C839 C 0.65833 0.91017 0.81143 0.0
H840 H 0.77158 0.94334 0.97894 0.0
H841 H 0.72245 0.88275 0.14304 0.0
H842 H 0.71656 0.94518 0.8081 0.0
H843 H 0.71753 0.97619 0.88429 0.0
H844 H 0.7524 0.95907 0.84662 0.0
H845 H 0.67596 0.85624 0.06506 0.0
H846 H 0.66092 0.88951 0.11709 0.0
H847 H 0.65251 0.88198 1.00514 0.0
H848 H 0.65007 1.00974 0.01821 0.0
H849 H 0.63331 0.96479 0.77692 0.0
H850 H 0.70329 0.96774 0.09456 0.0
H851 H 0.67363 0.94321 0.13274 0.0
H852 H 0.66867 0.98372 0.1375 0.0
H853 H 0.65942 0.88887 0.84857 0.0
H854 H 0.67908 0.91153 0.77093 0.0
H855 H 0.63858 0.90916 0.76745 0.0
C856 C 0.5809 0.74788 1.01512 0.0
C857 C 0.60177 0.75165 0.08208 0.0
C858 C 0.57568 0.71887 0.9796 0.0
C859 C 0.59196 0.69389 1.01228 0.0
C860 C 0.61806 0.69924 0.06259 0.0
C861 C 0.62291 0.72847 0.09682 0.0
C862 C 0.54876 0.7143 0.92148 0.0
C863 C 0.63751 0.67334 0.09275 0.0
C864 C 0.54355 0.63114 0.1051 0.0
C865 C 0.547 0.60805 0.0433 0.0
C866 C 0.5573 0.65949 0.09358 0.0
C867 C 0.57618 0.66428 0.02039 0.0
C868 C 0.57977 0.64093 0.95778 0.0
C869 C 0.56477 0.61322 0.96966 0.0
C870 C 0.5516 0.6842 0.16044 0.0
C871 C 0.59977 0.64466 0.8794 0.0
H872 H 0.56511 0.76607 1.00121 0.0
H873 H 0.63991 0.73179 0.14613 0.0
H874 H 0.55268 0.69524 0.87513 0.0
H875 H 0.52853 0.7087 0.9612 0.0
H876 H 0.54366 0.73525 0.88527 0.0
H877 H 0.65988 0.68148 0.1162 0.0
H878 H 0.62574 0.66171 0.14637 0.0
H879 H 0.64123 0.65645 0.03994 0.0
H880 H 0.52929 0.62733 0.16105 0.0
H881 H 0.56707 0.59542 0.9215 0.0
H882 H 0.54782 0.70656 0.13062 0.0
H883 H 0.57174 0.68609 0.20248 0.0
H884 H 0.53136 0.67938 0.20077 0.0
H885 H 0.59975 0.66837 0.85628 0.0
H886 H 0.59267 0.62927 0.82591 0.0
H887 H 0.62345 0.63879 0.89634 0.0
C888 C 0.80603 0.57325 0.02776 0.0
C889 C 0.7986 0.59602 0.08837 0.0
C890 C 0.83623 0.5688 1.00198 0.0
C891 C 0.85879 0.58862 0.03473 0.0
C892 C 0.85007 0.61566 0.07885 0.0
C893 C 0.81982 0.61891 0.10662 0.0
C894 C 0.84439 0.53998 0.95288 0.0
C895 C 0.87335 0.63869 0.10757 0.0
C896 C 0.92523 0.54548 0.12539 0.0
C897 C 0.94629 0.54636 0.05766 0.0
C898 C 0.89731 0.56056 0.12003 0.0
C899 C 0.89006 0.5767 0.04454 0.0
C900 C 0.91157 0.57865 0.97716 0.0
C901 C 0.93957 0.56378 0.98501 0.0
C902 C 0.87501 0.55789 0.19387 0.0
C903 C 0.90533 0.5968 0.8976 0.0
H904 H 0.78946 0.55579 1.01244 0.0
H905 H 0.81385 0.63693 0.15214 0.0
H906 H 0.86251 0.54413 0.90462 0.0
H907 H 0.85309 0.52294 0.99854 0.0
H908 H 0.82442 0.53008 0.91948 0.0
H909 H 0.86259 0.66026 0.13026 0.0
H910 H 0.88692 0.62937 0.16093 0.0
H911 H 0.88922 0.64366 0.05383 0.0
H912 H 0.92993 0.53191 0.1813 0.0
H913 H 0.95614 0.56569 0.93372 0.0
H914 H 0.85459 0.54524 0.17227 0.0
H915 H 0.86755 0.58074 0.21648 0.0
H916 H 0.88498 0.54604 0.24938 0.0
H917 H 0.88197 0.59292 0.87383 0.0
H918 H 0.92161 0.59125 0.84474 0.0
H919 H 0.90724 0.62135 0.91382 0.0
C920 C 0.02311 0.22888 0.99551 0.0
C921 C 0.04785 0.22956 0.05252 0.0
C922 C 0.01718 0.20319 0.94106 0.0
C923 C 0.03571 0.1765 0.94451 0.0
C924 C 0.06059 0.17727 1.00169 0.0
C925 C 0.06708 0.20376 0.05049 0.0
C926 C 0.99072 0.20537 0.88067 0.0
C927 C 0.08004 0.1496 1.01487 0.0
C928 C 0.99706 0.1018 0.8698 0.0
C929 C 0.01471 0.09212 0.79874 0.0
C930 C 1.00403 0.12846 0.91792 0.0
C931 C 0.02861 0.1474 0.89287 0.0
C932 C 0.0467 0.13748 0.8208 0.0
C933 C 0.03961 0.11013 0.77532 0.0
C934 C 0.98491 0.13612 0.99632 0.0
C935 C 0.07373 0.15523 0.78951 0.0
H936 H 1.00796 0.24824 0.99327 0.0
H937 H 0.08756 0.20369 0.08835 0.0
H938 H 0.98699 0.18436 0.8422 0.0
H939 H 0.96971 0.21072 0.91792 0.0
H940 H 0.99458 0.22447 0.83605 0.0
H941 H 0.09471 0.15192 0.07235 0.0
H942 H 0.06543 0.12934 0.02312 0.0
H943 H 0.09493 0.14582 0.95798 0.0
H944 H 0.97765 0.0882 0.88847 0.0
H945 H 0.05326 0.10325 0.71997 0.0
H946 H 0.96911 0.1549 0.98118 0.0
H947 H 0.9994 0.14377 0.05059 0.0
H948 H 0.97119 0.11639 0.01752 0.0
H949 H 0.07281 0.15734 0.71852 0.0
H950 H 0.09477 0.14235 0.80352 0.0
H951 H 0.07539 0.17822 0.81919 0.0
C952 C 0.30664 0.03369 0.95389 0.0
C953 C 0.30427 0.05833 1.01194 0.0
C954 C 0.33385 0.02779 0.90633 0.0
C955 C 0.36014 0.04654 0.91775 0.0
C956 C 0.35724 0.07182 0.97538 0.0
C957 C 0.32933 0.07811 0.01738 0.0
C958 C 0.33382 1.00053 0.8467 0.0
C959 C 0.38406 0.09118 1.00012 0.0
C960 C 0.43585 1.0056 0.86092 0.0
C961 C 0.44814 0.02295 0.79399 0.0
C962 C 0.40821 1.01354 0.90286 0.0
C963 C 0.39086 0.03885 0.87511 0.0
C964 C 0.40373 0.05702 0.80868 0.0
C965 C 0.43192 0.04884 0.76918 0.0
C966 C 0.39784 0.99455 0.97753 0.0
C967 C 0.38808 0.08525 0.77787 0.0
H968 H 0.28782 0.01792 0.94888 0.0
H969 H 0.328 0.09746 0.06141 0.0
H970 H 0.31733 1.00455 0.7945 0.0
H971 H 0.35632 0.99539 0.81811 0.0
H972 H 0.32584 0.9802 0.88177 0.0
H973 H 0.38149 0.10022 0.06688 0.0
H974 H 0.40554 0.07813 0.99621 0.0
H975 H 0.38543 0.11103 0.95738 0.0
H976 H 0.44811 0.98558 0.88119 0.0
H977 H 0.44089 0.06241 0.71728 0.0
H978 H 0.38126 0.97736 0.95451 0.0
H979 H 0.38666 1.00877 0.02826 0.0
H980 H 0.41711 0.98221 1.00676 0.0
H981 H 0.36305 0.084 0.78563 0.0
H982 H 0.39379 0.08955 0.70957 0.0
H983 H 0.39655 0.10517 0.8149 0.0
C984 C 0.50663 0.3039 0.97039 0.0
C985 C 0.48091 0.2861 0.95262 0.0
C986 C 0.51316 0.33046 0.92347 0.0
C987 C 0.49356 0.33971 0.8566 0.0
C988 C 0.46863 0.3207 0.83494 0.0
C989 C 0.46249 0.29445 0.88348 0.0
C990 C 0.53992 0.34979 0.94957 0.0
C991 C 0.44696 0.32937 0.76477 0.0
C992 C 0.48678 0.42552 0.81782 0.0
C993 C 0.50532 0.42991 0.74492 0.0
C994 C 0.48253 0.39651 0.85353 0.0
C995 C 0.49716 0.37065 0.81614 0.0
C996 C 0.51536 0.37472 0.74132 0.0
C997 C 0.51928 0.40413 0.70693 0.0
C998 C 0.46312 0.39392 0.93358 0.0
C999 C 0.53105 0.348 0.69812 0.0
H1000 H 0.52037 0.29835 0.02555 0.0
H1001 H 0.44202 0.2815 0.87104 0.0
H1002 H 0.55428 0.35478 0.89258 0.0
H1003 H 0.53172 0.37189 0.97636 0.0
H1004 H 0.55415 0.33865 0.99866 0.0
H1005 H 0.43109 0.3106 0.74821 0.0
H1006 H 0.43343 0.34944 0.78631 0.0
H1007 H 0.45962 0.33587 0.70589 0.0
H1008 H 0.47591 0.44499 0.84873 0.0
H1009 H 0.53364 0.40694 0.65069 0.0
H1010 H 0.47809 0.39094 0.98979 0.0
H1011 H 0.44792 0.37388 0.92952 0.0
H1012 H 0.44902 0.41456 0.94542 0.0
H1013 H 0.51418 0.33025 0.68097 0.0
H1014 H 0.54735 0.33768 0.74324 0.0
H1015 H 0.54353 0.35457 0.63889 0.0
C1016 C 0.23639 0.52712 1.00268 0.0
C1017 C 0.25784 0.5057 0.97255 0.0
C1018 C 0.20892 0.53227 0.95813 0.0
C1019 C 0.20268 0.51591 0.8807 0.0
C1020 C 0.2255 0.49626 0.84641 0.0
C1021 C 0.25249 0.49127 0.89273 0.0
C1022 C 0.18542 0.55329 0.99793 0.0
C1023 C 0.22039 0.47851 0.76396 0.0
C1024 C 0.11994 0.49681 0.82197 0.0
C1025 C 0.11286 0.5189 0.76101 0.0
C1026 C 0.14872 0.49577 0.86155 0.0
C1027 C 0.17157 0.51719 0.83959 0.0
C1028 C 0.16463 0.53936 0.77727 0.0
C1029 C 0.13546 0.54014 0.73962 0.0
C1030 C 0.15404 0.47218 0.92925 0.0
C1031 C 0.18817 0.56216 0.74963 0.0
H1032 H 0.23974 0.53772 0.0653 0.0
H1033 H 0.2685 0.47419 0.86964 0.0
H1034 H 0.17834 0.57055 0.95092 0.0
H1035 H 0.16488 0.54008 1.01542 0.0
H1036 H 0.19391 0.56513 0.0566 0.0
H1037 H 0.24147 0.46721 0.74008 0.0
H1038 H 0.20293 0.4608 0.77508 0.0
H1039 H 0.21175 0.49366 0.71326 0.0
H1040 H 0.10269 0.48054 0.84033 0.0
H1041 H 0.13044 0.55732 0.69259 0.0
H1042 H 0.15109 0.48308 0.99358 0.0
H1043 H 0.17735 0.46267 0.92513 0.0
H1044 H 0.13756 0.45315 0.92419 0.0
H1045 H 0.17951 0.57774 0.69989 0.0
H1046 H 0.20848 0.55011 0.7235 0.0
H1047 H 0.19567 0.57595 0.80589 0.0
C1048 C 0.95211 0.82888 0.34913 0.0
C1049 C 0.97437 0.80977 0.31092 0.0
C1050 C 0.95947 0.85604 0.39326 0.0
C1051 C 0.99027 0.86366 0.40872 0.0
C1052 C 1.01302 0.84276 0.37849 0.0
C1053 C 1.00489 0.81674 0.3282 0.0
C1054 C 0.93352 0.87657 0.42051 0.0
C1055 C 0.04621 0.8475 0.39755 0.0
C1056 C 0.01949 0.94502 0.45518 0.0
C1057 C 1.01201 0.94977 0.54227 0.0
C1058 C 1.01153 0.91792 0.41052 0.0
C1059 C 0.99825 0.89328 0.45551 0.0
C1060 C 0.99143 0.89776 0.54465 0.0
C1061 C 0.99772 0.92601 0.58608 0.0
C1062 C 0.01749 0.91604 0.31488 0.0
C1063 C 0.97768 0.87282 0.5978 0.0
H1064 H 0.92829 0.82342 0.34107 0.0
H1065 H 0.02262 0.80237 0.3008 0.0
H1066 H 0.94086 0.90013 0.43453 0.0
H1067 H 0.91604 0.87723 0.36945 0.0
H1068 H 0.92245 0.86726 0.47875 0.0
H1069 H 0.05683 0.82559 0.41548 0.0
H1070 H 0.058 0.85519 0.33847 0.0
H1071 H 0.05014 0.86432 0.45018 0.0
H1072 H 0.0315 0.96277 0.42137 0.0
H1073 H 0.9929 0.92891 0.65418 0.0
H1074 H 0.9996 0.90279 0.28121 0.0
H1075 H 0.03964 0.90472 0.30276 0.0
H1076 H 0.01866 0.93901 0.28635 0.0
H1077 H 0.98068 0.84987 0.5684 0.0
H1078 H 0.95307 0.87736 0.60695 0.0
H1079 H 0.98796 0.87264 0.66241 0.0
C1080 C 0.7154 0.95165 0.37906 0.0
C1081 C 0.73534 0.97282 0.34171 0.0
C1082 C 0.68865 0.96053 0.42306 0.0
C1083 C 0.68198 0.99184 0.43719 0.0
C1084 C 0.7038 1.01345 0.40783 0.0
C1085 C 0.72965 1.00378 0.35894 0.0
C1086 C 0.66746 0.93563 0.45128 0.0
C1087 C 0.7002 0.04704 0.42605 0.0
C1088 C 0.60091 0.02401 0.47103 0.0
C1089 C 0.59449 0.01757 0.5574 0.0
C1090 C 0.62848 0.01486 0.43078 0.0
C1091 C 0.65205 1.00155 0.47983 0.0
C1092 C 0.64607 0.99624 0.56865 0.0
C1093 C 0.61729 1.00357 0.60542 0.0
C1094 C 0.63196 0.01937 0.33519 0.0
C1095 C 0.66989 0.983 0.62636 0.0
H1096 H 0.71977 0.92756 0.36927 0.0
H1097 H 0.74471 0.02062 0.33172 0.0
H1098 H 0.64418 0.94391 0.46449 0.0
H1099 H 0.6663 0.91733 0.40131 0.0
H1100 H 0.67647 0.92527 0.51048 0.0
H1101 H 0.69378 0.05861 0.36596 0.0
H1102 H 0.68295 0.05223 0.47659 0.0
H1103 H 0.72226 0.05686 0.4466 0.0
H1104 H 0.58396 0.03587 0.43402 0.0
H1105 H 0.61317 0.99973 0.67315 0.0
H1106 H 0.64459 1.00022 0.30414 0.0
H1107 H 0.64471 0.04064 0.3237 0.0
H1108 H 0.60956 0.02148 0.30344 0.0
H1109 H 0.66455 0.95873 0.6377 0.0
H1110 H 0.66956 0.99482 0.68977 0.0
H1111 H 0.69321 0.98462 0.59944 0.0
C1112 C 0.5794 0.73928 0.41811 0.0
C1113 C 0.55728 0.75398 0.36885 0.0
C1114 C 0.57279 0.7127 0.4644 0.0
C1115 C 0.54306 0.70035 0.46325 0.0
C1116 C 0.52005 0.71639 0.41895 0.0
C1117 C 0.52744 0.74277 0.37192 0.0
C1118 C 0.59841 0.69628 0.50793 0.0
C1119 C 0.48799 0.70451 0.41617 0.0
C1120 C 0.53544 0.61369 0.48494 0.0
C1121 C 0.5292 0.61021 0.57284 0.0
C1122 C 0.54006 0.64257 0.44905 0.0
C1123 C 0.53704 0.66933 0.50096 0.0
C1124 C 0.52954 0.66604 0.58935 0.0
C1125 C 0.52613 0.63669 0.62425 0.0
C1126 C 0.54776 0.64408 0.35471 0.0
C1127 C 0.52543 0.69355 0.64753 0.0
H1128 H 0.60268 0.74719 0.4144 0.0
H1129 H 0.51035 0.75325 0.33228 0.0
H1130 H 0.59202 0.69072 0.57498 0.0
H1131 H 0.60301 0.67448 0.47322 0.0
H1132 H 0.61965 0.70986 0.50899 0.0
H1133 H 0.48707 0.68438 0.37233 0.0
H1134 H 0.48049 0.69714 0.4809 0.0
H1135 H 0.47182 0.72184 0.39261 0.0
H1136 H 0.53677 0.5937 0.44346 0.0
H1137 H 0.52153 0.63455 0.69236 0.0
H1138 H 0.56442 0.66234 0.34166 0.0
H1139 H 0.52663 0.6489 0.31924 0.0
H1140 H 0.55717 0.62221 0.32941 0.0
H1141 H 0.54744 0.70549 0.65508 0.0
H1142 H 0.51684 0.68743 0.71236 0.0
H1143 H 0.50932 0.70978 0.61844 0.0
C1144 C 0.81283 0.52212 0.3297 0.0
C1145 C 0.7912 0.54417 0.3544 0.0
C1146 C 0.83942 0.51738 0.37789 0.0
C1147 C 0.84443 0.53467 0.45443 0.0
C1148 C 0.82111 0.5547 0.48413 0.0
C1149 C 0.79519 0.55969 0.43304 0.0
C1150 C 0.86271 0.4949 0.34375 0.0
C1151 C 0.82432 0.57237 0.56744 0.0
C1152 C 0.9132 0.50847 0.58559 0.0
C1153 C 0.93422 0.53208 0.57375 0.0
C1154 C 0.88365 0.50955 0.55102 0.0
C1155 C 0.87501 0.53412 0.49819 0.0
C1156 C 0.89642 0.55783 0.48455 0.0
C1157 C 0.92512 0.55687 0.52425 0.0
C1158 C 0.86224 0.48384 0.57114 0.0
C1159 C 0.88982 0.58452 0.4276 0.0
H1160 H 0.81029 0.51051 0.2681 0.0
H1161 H 0.77907 0.57729 0.45181 0.0
H1162 H 0.88624 0.50314 0.35394 0.0
H1163 H 0.86008 0.47319 0.37824 0.0
H1164 H 0.85968 0.49003 0.27401 0.0
H1165 H 0.80203 0.58092 0.59161 0.0
H1166 H 0.83477 0.55807 0.6175 0.0
H1167 H 0.83933 0.59222 0.557 0.0
H1168 H 0.91985 0.48869 0.62107 0.0
H1169 H 0.94061 0.57562 0.51518 0.0
H1170 H 0.86811 0.46387 0.52971 0.0
H1171 H 0.83808 0.48986 0.56101 0.0
H1172 H 0.86498 0.47675 0.63892 0.0
H1173 H 0.90993 0.58952 0.38661 0.0
H1174 H 0.88555 0.60498 0.46865 0.0
H1175 H 0.87004 0.58095 0.38509 0.0
loop_
_geom_bond_atom_site_label_1
_geom_bond_atom_site_label_2
_geom_bond_distance
_geom_bond_site_symmetry_2
_ccdc_geom_bond_type
H0 C3 0.931 . S
H1 C6 0.928 . S
H2 C8 0.930 . S
C3 H0 0.931 . S
C3 C4 1.413 . S
C3 C5 1.360 . S
C4 C3 1.413 . S
C4 C8 1.429 . S
C5 C3 1.360 . S
C5 C6 1.372 . S
C6 H1 0.928 . S
C6 C5 1.372 . S
C6 C7 1.404 . S
C7 C6 1.404 . S
C7 C8 1.391 . S
C8 H2 0.930 . S
C8 C4 1.429 . S
C8 C7 1.391 . S
H9 C12 0.931 . S
H10 C15 0.928 . S
H11 C17 0.930 . S
C12 H9 0.931 . S
C12 C13 1.413 . S
C12 C14 1.360 . S
C13 C12 1.413 . S
C13 C17 1.429 . S
C14 C12 1.360 . S
C14 C15 1.372 . S
C15 H10 0.928 . S
C15 C14 1.372 . S
C15 C16 1.404 . S
C16 C15 1.404 . S
C16 C17 1.391 . S
C17 H11 0.930 . S
C17 C13 1.429 . S
C17 C16 1.391 . S
H18 C21 0.931 . S
H19 C24 0.928 . S
H20 C26 0.930 . S
C21 H18 0.931 . S
C21 C22 1.413 . S
C21 C23 1.360 . S
C22 C21 1.413 . S
C22 C26 1.429 . S
C23 C21 1.360 . S
C23 C24 1.372 . S
C24 H19 0.928 . S
C24 C23 1.372 . S
C24 C25 1.404 . S
C25 C24 1.404 . S
C25 C26 1.391 . S
C26 H20 0.930 . S
C26 C22 1.429 . S
C26 C25 1.391 . S
H27 C30 0.931 . S
H28 C33 0.928 . S
H29 C35 0.930 . S
C30 H27 0.931 . S
C30 C31 1.413 . S
C30 C32 1.360 . S
C31 C30 1.413 . S
C31 C35 1.429 . S
C32 C30 1.360 . S
C32 C33 1.372 . S
C33 H28 0.928 . S
C33 C32 1.372 . S
C33 C34 1.404 . S
C34 C33 1.404 . S
C34 C35 1.391 . S
C35 H29 0.930 . S
C35 C31 1.429 . S
C35 C34 1.391 . S
H36 C39 0.931 1_556 S
H37 C42 0.928 . S
H38 C44 0.930 . S
C39 H36 0.931 1_554 S
C39 C40 1.413 1_554 S
C39 C41 1.360 . S
C40 C39 1.413 1_556 S
C40 C44 1.429 . S
C41 C39 1.360 . S
C41 C42 1.372 . S
C42 H37 0.928 . S
C42 C41 1.372 . S
C42 C43 1.404 . S
C43 C42 1.404 . S
C43 C44 1.391 1_554 S
C44 H38 0.930 . S
C44 C40 1.429 . S
C44 C43 1.391 1_556 S
H45 C48 0.931 1_556 S
H46 C51 0.928 . S
H47 C53 0.930 . S
C48 H45 0.931 1_554 S
C48 C49 1.413 1_554 S
C48 C50 1.360 . S
C49 C48 1.413 1_556 S
C49 C53 1.429 . S
C50 C48 1.360 . S
C50 C51 1.372 . S
C51 H46 0.928 . S
C51 C50 1.372 . S
C51 C52 1.404 . S
C52 C51 1.404 . S
C52 C53 1.391 1_554 S
C53 H47 0.930 . S
C53 C49 1.429 . S
C53 C52 1.391 1_556 S
H54 C57 0.931 1_556 S
H55 C60 0.928 . S
H56 C62 0.930 . S
C57 H54 0.931 1_554 S
C57 C58 1.413 1_554 S
C57 C59 1.360 . S
C58 C57 1.413 1_556 S
C58 C62 1.429 . S
C59 C57 1.360 . S
C59 C60 1.372 . S
C60 H55 0.928 . S
C60 C59 1.372 . S
C60 C61 1.404 . S
C61 C60 1.404 . S
C61 C62 1.391 1_554 S
C62 H56 0.930 . S
C62 C58 1.429 . S
C62 C61 1.391 1_556 S
H63 C66 0.931 1_556 S
H64 C69 0.928 . S
H65 C71 0.930 . S
C66 H63 0.931 1_554 S
C66 C67 1.413 . S
C66 C68 1.360 1_554 S
C67 C66 1.413 . S
C67 C71 1.429 . S
C68 C66 1.360 1_556 S
C68 C69 1.372 . S
C69 H64 0.928 . S
C69 C68 1.372 . S
C69 C70 1.404 1_556 S
C70 C69 1.404 1_554 S
C70 C71 1.391 . S
C71 H65 0.930 . S
C71 C67 1.429 . S
C71 C70 1.391 . S
Tb72 N103 2.660 1_565 S
Tb72 N110 2.600 . S
Tb72 O116 2.546 . S
Tb72 O117 2.610 1_455 S
Tb72 O119 2.320 1_455 S
Tb72 O120 2.552 . S
Tb72 O121 2.413 . S
Tb72 O123 2.362 1_565 S
Tb72 O124 2.421 . S
Tb72 C136 2.833 . S
C73 C76 1.432 1_545 S
C73 C77 1.414 1_545 S
C73 N80 1.359 . S
C74 C76 1.417 . S
C74 C78 1.432 . S
C74 C86 1.410 . S
C75 C77 1.444 . S
C75 C78 1.317 . S
C75 H98 0.929 . S
C76 C73 1.432 1_565 S
C76 C74 1.417 . S
C76 N84 1.360 . S
C77 C73 1.414 1_565 S
C77 C75 1.444 . S
C77 C82 1.385 1_565 S
C78 C74 1.432 . S
C78 C75 1.317 . S
C78 H90 0.930 . S
C79 C81 1.392 . S
C79 C82 1.370 . S
C79 H91 0.931 . S
N80 C73 1.359 . S
N80 C81 1.327 . S
N80 Tb83 2.600 . S
C81 C79 1.392 . S
C81 N80 1.327 . S
C81 H88 0.930 . S
C82 C77 1.385 1_545 S
C82 C79 1.370 . S
C82 H101 0.930 . S
Tb83 N80 2.600 . S
Tb83 N84 2.660 1_545 S
Tb83 O117 2.362 1_545 S
Tb83 O118 2.421 . S
Tb83 O122 2.546 . S
Tb83 O123 2.610 1_655 S
Tb83 O125 2.320 1_655 S
Tb83 O126 2.544 1_655 S
Tb83 O127 2.413 . S
Tb83 C147 2.833 . S
N84 C76 1.360 . S
N84 Tb83 2.660 1_565 S
N84 C85 1.305 . S
C85 N84 1.305 . S
C85 C87 1.407 . S
C85 H92 0.930 1_655 S
C86 C74 1.410 . S
C86 C87 1.345 . S
C86 H94 0.930 . S
C87 C85 1.407 . S
C87 C86 1.345 . S
C87 H89 0.930 1_655 S
H88 C81 0.930 . S
H89 C87 0.930 1_455 S
H90 C78 0.930 . S
H91 C79 0.931 . S
H92 C85 0.930 1_455 S
H93 C107 0.930 1_654 S
H94 C86 0.930 . S
H95 C113 0.930 . S
H96 C104 0.930 1_655 S
H97 C111 0.931 . S
H98 C75 0.929 . S
H99 C105 0.930 . S
H100 C138 0.930 . S
H101 C82 0.930 . S
H102 C137 0.929 . S
N103 Tb72 2.660 1_545 S
N103 C104 1.305 . S
N103 C108 1.360 . S
C104 H96 0.930 1_455 S
C104 N103 1.305 . S
C104 C107 1.407 . S
C105 H99 0.930 . S
C105 C106 1.410 1_554 S
C105 C107 1.345 1_554 S
C106 C105 1.410 1_556 S
C106 C108 1.417 . S
C106 C138 1.432 1_556 S
C107 H93 0.930 1_456 S
C107 C104 1.407 . S
C107 C105 1.345 1_556 S
C108 N103 1.360 . S
C108 C106 1.417 . S
C108 C112 1.432 . S
H109 C114 0.930 . S
N110 Tb72 2.600 . S
N110 C112 1.359 1_565 S
N110 C113 1.327 . S
C111 H97 0.931 . S
C111 C113 1.392 . S
C111 C114 1.370 1_565 S
C112 C108 1.432 . S
C112 N110 1.359 1_545 S
C112 C115 1.414 . S
C113 H95 0.930 . S
C113 N110 1.327 . S
C113 C111 1.392 . S
C114 H109 0.930 . S
C114 C111 1.370 1_545 S
C114 C115 1.385 . S
C115 C112 1.414 . S
C115 C114 1.385 . S
C115 C137 1.444 . S
O116 Tb72 2.546 . S
O116 C136 1.251 . S
O117 Tb72 2.610 1_655 S
O117 Tb83 2.362 1_565 S
O117 C128 1.283 . S
O118 Tb83 2.421 . S
O118 C135 1.262 . S
O119 Tb72 2.320 1_655 S
O119 C135 1.260 1_565 S
O120 Tb72 2.552 . S
O120 C128 1.243 1_455 S
O121 Tb72 2.413 . S
O121 C136 1.256 . S
O122 Tb83 2.546 . S
O122 C147 1.251 . S
O123 Tb72 2.362 1_545 S
O123 Tb83 2.610 1_455 S
O123 C139 1.283 . S
O124 Tb72 2.421 . S
O124 C146 1.262 1_565 S
O125 Tb83 2.320 1_455 S
O125 C146 1.260 . S
O126 Tb83 2.544 1_455 S
O126 C139 1.257 . S
O127 Tb83 2.413 . S
O127 C147 1.256 . S
C128 O117 1.283 . S
C128 O120 1.243 1_655 S
C129 C131 1.382 . S
C129 C133 1.393 . S
C129 C136 1.500 . S
C130 C131 1.400 . S
C130 C132 1.384 . S
C131 C129 1.382 . S
C131 C130 1.400 . S
C131 H148 0.930 . S
C132 C130 1.384 . S
C132 C134 1.392 . S
C132 H149 0.931 1_556 S
C133 C129 1.393 . S
C133 C134 1.401 . S
C133 H150 0.930 . S
C134 C132 1.392 . S
C134 C133 1.401 . S
C134 H151 0.930 . S
C135 O118 1.262 . S
C135 O119 1.260 1_545 S
C136 Tb72 2.833 . S
C136 O116 1.251 . S
C136 O121 1.256 . S
C136 C129 1.500 . S
C137 H102 0.929 . S
C137 C115 1.444 . S
C137 C138 1.317 1_556 S
C138 H100 0.930 . S
C138 C106 1.432 1_554 S
C138 C137 1.317 1_554 S
C139 O123 1.283 . S
C139 O126 1.257 . S
C140 C141 1.382 . S
C140 C144 1.393 . S
C140 C147 1.500 . S
C141 C140 1.382 . S
C141 C142 1.400 . S
C141 H152 0.930 1_655 S
C142 C141 1.400 . S
C142 C143 1.384 . S
C143 C142 1.384 . S
C143 C145 1.392 . S
C143 H153 0.931 . S
C144 C140 1.393 . S
C144 C145 1.401 . S
C144 H154 0.930 . S
C145 C143 1.392 . S
C145 C144 1.401 . S
C145 H155 0.930 . S
C146 O124 1.262 1_545 S
C146 O125 1.260 . S
C147 Tb83 2.833 . S
C147 O122 1.251 . S
C147 O127 1.256 . S
C147 C140 1.500 . S
H148 C131 0.930 . S
H149 C132 0.931 1_554 S
H150 C133 0.930 . S
H151 C134 0.930 . S
H152 C141 0.930 1_455 S
H153 C143 0.931 . S
H154 C144 0.930 . S
H155 C145 0.930 . S
Tb156 N187 2.660 . S
Tb156 N194 2.600 . S
Tb156 O200 2.546 . S
Tb156 O201 2.610 1_545 S
Tb156 O203 2.320 1_545 S
Tb156 O204 2.552 . S
Tb156 O205 2.413 . S
Tb156 O207 2.362 . S
Tb156 O208 2.421 . S
Tb156 C220 2.833 . S
C157 C160 1.432 . S
C157 C161 1.414 . S
C157 N164 1.359 . S
C158 C160 1.417 . S
C158 C162 1.432 . S
C158 C170 1.410 . S
C159 C161 1.444 . S
C159 C162 1.317 . S
C159 H182 0.929 . S
C160 C157 1.432 . S
C160 C158 1.417 . S
C160 N168 1.360 . S
C161 C157 1.414 . S
C161 C159 1.444 . S
C161 C166 1.385 . S
C162 C158 1.432 . S
C162 C159 1.317 . S
C162 H174 0.930 . S
C163 C165 1.392 . S
C163 C166 1.370 . S
C163 H175 0.931 . S
N164 C157 1.359 . S
N164 C165 1.327 . S
N164 Tb167 2.600 . S
C165 C163 1.392 . S
C165 N164 1.327 . S
C165 H172 0.930 . S
C166 C161 1.385 . S
C166 C163 1.370 . S
C166 H185 0.930 . S
Tb167 N164 2.600 . S
Tb167 N168 2.660 . S
Tb167 O201 2.362 . S
Tb167 O202 2.421 . S
Tb167 O206 2.546 . S
Tb167 O207 2.610 1_565 S
Tb167 O209 2.320 1_565 S
Tb167 O210 2.552 1_565 S
Tb167 O211 2.413 . S
Tb167 C231 2.833 . S
N168 C160 1.360 . S
N168 Tb167 2.660 . S
N168 C169 1.281 1_565 S
C169 N168 1.281 1_545 S
C169 C171 1.406 1_545 S
C169 H176 0.957 . S
C170 C158 1.410 . S
C170 C171 1.368 . S
C170 H178 0.930 . S
C171 C169 1.406 1_565 S
C171 C170 1.368 . S
C171 H173 0.908 1_565 S
H172 C165 0.930 . S
H173 C171 0.908 1_545 S
H174 C162 0.930 . S
H175 C163 0.931 . S
H176 C169 0.957 . S
H177 C191 0.930 1_564 S
H178 C170 0.930 . S
H179 C197 0.930 . S
H180 C188 0.930 1_565 S
H181 C195 0.931 . S
H182 C159 0.929 . S
H183 C189 0.930 . S
H184 C222 0.930 . S
H185 C166 0.930 . S
H186 C221 0.929 . S
N187 Tb156 2.660 . S
N187 C188 1.305 . S
N187 C192 1.360 . S
C188 H180 0.930 1_545 S
C188 N187 1.305 . S
C188 C191 1.407 . S
C189 H183 0.930 . S
C189 C190 1.410 1_554 S
C189 C191 1.345 1_554 S
C190 C189 1.410 1_556 S
C190 C192 1.417 . S
C190 C222 1.432 1_556 S
C191 H177 0.930 1_546 S
C191 C188 1.407 . S
C191 C189 1.345 1_556 S
C192 N187 1.360 . S
C192 C190 1.417 . S
C192 C196 1.432 . S
H193 C198 0.930 . S
N194 Tb156 2.600 . S
N194 C196 1.359 . S
N194 C197 1.327 . S
C195 H181 0.931 . S
C195 C197 1.392 . S
C195 C198 1.370 . S
C196 C192 1.432 . S
C196 N194 1.359 . S
C196 C199 1.414 . S
C197 H179 0.930 . S
C197 N194 1.327 . S
C197 C195 1.392 . S
C198 H193 0.930 . S
C198 C195 1.370 . S
C198 C199 1.385 . S
C199 C196 1.414 . S
C199 C198 1.385 . S
C199 C221 1.444 . S
O200 Tb156 2.546 . S
O200 C220 1.251 . S
O201 Tb156 2.610 1_565 S
O201 Tb167 2.362 . S
O201 C212 1.283 . S
O202 Tb167 2.421 . S
O202 C219 1.262 . S
O203 Tb156 2.320 1_565 S
O203 C219 1.260 . S
O204 Tb156 2.552 . S
O204 C212 1.243 1_545 S
O205 Tb156 2.413 . S
O205 C220 1.256 . S
O206 Tb167 2.546 . S
O206 C231 1.251 . S
O207 Tb156 2.362 . S
O207 Tb167 2.610 1_545 S
O207 C223 1.283 . S
O208 Tb156 2.421 . S
O208 C230 1.262 . S
O209 Tb167 2.320 1_545 S
O209 C230 1.260 . S
O210 Tb167 2.552 1_545 S
O210 C223 1.243 . S
O211 Tb167 2.413 . S
O211 C231 1.256 . S
C212 O201 1.283 . S
C212 O204 1.243 1_565 S
C213 C215 1.382 . S
C213 C217 1.393 . S
C213 C220 1.500 . S
C214 C215 1.400 . S
C214 C216 1.384 . S
C215 C213 1.382 . S
C215 C214 1.400 . S
C215 H232 0.930 . S
C216 C214 1.384 . S
C216 C218 1.392 . S
C216 H233 0.931 1_556 S
C217 C213 1.393 . S
C217 C218 1.401 . S
C217 H234 0.930 . S
C218 C216 1.392 . S
C218 C217 1.401 . S
C218 H235 0.930 . S
C219 O202 1.262 . S
C219 O203 1.260 . S
C220 Tb156 2.833 . S
C220 O200 1.251 . S
C220 O205 1.256 . S
C220 C213 1.500 . S
C221 H186 0.929 . S
C221 C199 1.444 . S
C221 C222 1.317 1_556 S
C222 H184 0.930 . S
C222 C190 1.432 1_554 S
C222 C221 1.317 1_554 S
C223 O207 1.283 . S
C223 O210 1.243 . S
C224 C225 1.382 . S
C224 C228 1.393 . S
C224 C231 1.500 . S
C225 C224 1.382 . S
C225 C226 1.400 . S
C225 H236 0.930 1_565 S
C226 C225 1.400 . S
C226 C227 1.384 . S
C227 C226 1.384 . S
C227 C229 1.392 . S
C227 H237 0.931 . S
C228 C224 1.393 . S
C228 C229 1.401 . S
C228 H238 0.930 . S
C229 C227 1.392 . S
C229 C228 1.401 . S
C229 H239 0.930 . S
C230 O208 1.262 . S
C230 O209 1.260 . S
C231 Tb167 2.833 . S
C231 O206 1.251 . S
C231 O211 1.256 . S
C231 C224 1.500 . S
H232 C215 0.930 . S
H233 C216 0.931 1_554 S
H234 C217 0.930 . S
H235 C218 0.930 . S
H236 C225 0.930 1_545 S
H237 C227 0.931 . S
H238 C228 0.930 . S
H239 C229 0.930 . S
Tb240 N271 2.660 . S
Tb240 N278 2.600 . S
Tb240 O284 2.546 . S
Tb240 O285 2.610 . S
Tb240 O287 2.320 . S
Tb240 O288 2.552 . S
Tb240 O289 2.413 . S
Tb240 O291 2.362 . S
Tb240 O292 2.421 . S
Tb240 C304 2.833 . S
C241 C244 1.432 . S
C241 C245 1.414 . S
C241 N248 1.359 . S
C242 C244 1.417 . S
C242 C246 1.432 . S
C242 C254 1.410 . S
C243 C245 1.444 . S
C243 C246 1.317 . S
C243 H266 0.929 . S
C244 C241 1.432 . S
C244 C242 1.417 . S
C244 N252 1.360 . S
C245 C241 1.414 . S
C245 C243 1.444 . S
C245 C250 1.385 . S
C246 C242 1.432 . S
C246 C243 1.317 . S
C246 H258 0.930 . S
C247 C249 1.392 . S
C247 C250 1.370 . S
C247 H259 0.931 . S
N248 C241 1.359 . S
N248 C249 1.327 . S
N248 Tb251 2.600 . S
C249 C247 1.392 . S
C249 N248 1.327 . S
C249 H256 0.930 . S
C250 C245 1.385 . S
C250 C247 1.370 . S
C250 H269 0.930 . S
Tb251 N248 2.600 . S
Tb251 N252 2.660 . S
Tb251 O285 2.362 . S
Tb251 O286 2.421 . S
Tb251 O290 2.546 . S
Tb251 O291 2.610 . S
Tb251 O293 2.320 . S
Tb251 O294 2.552 . S
Tb251 O295 2.413 . S
Tb251 C315 2.833 . S
N252 C244 1.360 . S
N252 Tb251 2.660 . S
N252 C253 1.305 . S
C253 N252 1.305 . S
C253 C255 1.407 . S
C253 H260 0.930 . S
C254 C242 1.410 . S
C254 C255 1.345 . S
C254 H262 0.930 . S
C255 C253 1.407 . S
C255 C254 1.345 . S
C255 H257 0.930 . S
H256 C249 0.930 . S
H257 C255 0.930 . S
H258 C246 0.930 . S
H259 C247 0.931 . S
H260 C253 0.930 . S
H261 C275 0.930 . S
H262 C254 0.930 . S
H263 C281 0.930 . S
H264 C272 0.930 . S
H265 C279 0.931 . S
H266 C243 0.929 . S
H267 C273 0.930 . S
H268 C306 0.930 . S
H269 C250 0.930 . S
H270 C305 0.929 . S
N271 Tb240 2.660 . S
N271 C272 1.305 . S
N271 C276 1.360 . S
C272 H264 0.930 . S
C272 N271 1.305 . S
C272 C275 1.407 . S
C273 H267 0.930 . S
C273 C274 1.410 . S
C273 C275 1.345 . S
C274 C273 1.410 . S
C274 C276 1.417 . S
C274 C306 1.432 . S
C275 H261 0.930 . S
C275 C272 1.407 . S
C275 C273 1.345 . S
C276 N271 1.360 . S
C276 C274 1.417 . S
C276 C280 1.432 . S
H277 C282 0.930 . S
N278 Tb240 2.600 . S
N278 C280 1.359 . S
N278 C281 1.327 . S
C279 H265 0.931 . S
C279 C281 1.392 . S
C279 C282 1.370 . S
C280 C276 1.432 . S
C280 N278 1.359 . S
C280 C283 1.414 . S
C281 H263 0.930 . S
C281 N278 1.327 . S
C281 C279 1.392 . S
C282 H277 0.930 . S
C282 C279 1.370 . S
C282 C283 1.385 . S
C283 C280 1.414 . S
C283 C282 1.385 . S
C283 C305 1.444 . S
O284 Tb240 2.546 . S
O284 C304 1.251 . S
O285 Tb240 2.610 . S
O285 Tb251 2.362 . S
O285 C296 1.283 . S
O286 Tb251 2.421 . S
O286 C303 1.262 . S
O287 Tb240 2.320 . S
O287 C303 1.260 . S
O288 Tb240 2.552 . S
O288 C296 1.243 . S
O289 Tb240 2.413 . S
O289 C304 1.256 . S
O290 Tb251 2.546 . S
O290 C315 1.251 . S
O291 Tb240 2.362 . S
O291 Tb251 2.610 . S
O291 C307 1.283 . S
O292 Tb240 2.421 . S
O292 C314 1.262 . S
O293 Tb251 2.320 . S
O293 C314 1.260 . S
O294 Tb251 2.552 . S
O294 C307 1.243 . S
O295 Tb251 2.413 . S
O295 C315 1.256 . S
C296 O285 1.283 . S
C296 O288 1.243 . S
C297 C299 1.382 . S
C297 C301 1.393 . S
C297 C304 1.500 . S
C298 C299 1.400 . S
C298 C300 1.384 . S
C299 C297 1.382 . S
C299 C298 1.400 . S
C299 H316 0.930 . S
C300 C298 1.384 . S
C300 C302 1.392 . S
C300 H317 0.931 . S
C301 C297 1.393 . S
C301 C302 1.401 . S
C301 H318 0.930 . S
C302 C300 1.392 . S
C302 C301 1.401 . S
C302 H319 0.930 . S
C303 O286 1.262 . S
C303 O287 1.260 . S
C304 Tb240 2.833 . S
C304 O284 1.251 . S
C304 O289 1.256 . S
C304 C297 1.500 . S
C305 H270 0.929 . S
C305 C283 1.444 . S
C305 C306 1.317 . S
C306 H268 0.930 . S
C306 C274 1.432 . S
C306 C305 1.317 . S
C307 O291 1.283 . S
C307 O294 1.243 . S
C308 C309 1.382 . S
C308 C312 1.393 1_556 S
C308 C315 1.500 . S
C309 C308 1.382 . S
C309 C310 1.391 1_556 S
C309 H320 0.930 . S
C310 C309 1.391 1_554 S
C310 C311 1.395 . S
C311 C310 1.395 . S
C311 C313 1.392 . S
C311 H321 0.931 . S
C312 C308 1.393 1_554 S
C312 C313 1.401 . S
C312 H322 0.930 . S
C313 C311 1.392 . S
C313 C312 1.401 . S
C313 H323 0.930 . S
C314 O292 1.262 . S
C314 O293 1.260 . S
C315 Tb251 2.833 . S
C315 O290 1.251 . S
C315 O295 1.256 . S
C315 C308 1.500 . S
H316 C299 0.930 . S
H317 C300 0.931 . S
H318 C301 0.930 . S
H319 C302 0.930 . S
H320 C309 0.930 . S
H321 C311 0.931 . S
H322 C312 0.930 . S
H323 C313 0.930 . S
Tb324 N355 2.660 . S
Tb324 N362 2.600 . S
Tb324 O368 2.546 . S
Tb324 O369 2.610 . S
Tb324 O371 2.320 . S
Tb324 O372 2.552 . S
Tb324 O373 2.413 . S
Tb324 O375 2.349 1_455 S
Tb324 O376 2.421 1_455 S
Tb324 C388 2.833 . S
C325 C328 1.432 . S
C325 C329 1.414 . S
C325 N332 1.359 . S
C326 C328 1.417 . S
C326 C330 1.432 . S
C326 C338 1.410 . S
C327 C329 1.444 . S
C327 C330 1.317 . S
C327 H350 0.929 . S
C328 C325 1.432 . S
C328 C326 1.417 . S
C328 N336 1.360 . S
C329 C325 1.414 . S
C329 C327 1.444 . S
C329 C334 1.385 1_655 S
C330 C326 1.432 . S
C330 C327 1.317 . S
C330 H342 0.930 . S
C331 C333 1.392 . S
C331 C334 1.370 . S
C331 H343 0.931 . S
N332 C325 1.359 . S
N332 C333 1.327 1_655 S
N332 Tb335 2.600 . S
C333 C331 1.392 . S
C333 N332 1.327 1_455 S
C333 H340 0.930 . S
C334 C329 1.385 1_455 S
C334 C331 1.370 . S
C334 H353 0.930 . S
Tb335 N332 2.600 . S
Tb335 N336 2.660 . S
Tb335 O369 2.362 1_655 S
Tb335 O370 2.421 1_655 S
Tb335 O374 2.546 . S
Tb335 O375 2.618 . S
Tb335 O377 2.320 . S
Tb335 O378 2.552 . S
Tb335 O379 2.413 . S
Tb335 C399 2.833 . S
N336 C328 1.360 . S
N336 Tb335 2.660 . S
N336 C337 1.305 . S
C337 N336 1.305 . S
C337 C339 1.407 . S
C337 H344 0.930 . S
C338 C326 1.410 . S
C338 C339 1.345 . S
C338 H346 0.930 . S
C339 C337 1.407 . S
C339 C338 1.345 . S
C339 H341 0.930 . S
H340 C333 0.930 . S
H341 C339 0.930 . S
H342 C330 0.930 . S
H343 C331 0.931 . S
H344 C337 0.930 . S
H345 C359 0.930 . S
H346 C338 0.930 . S
H347 C365 0.930 . S
H348 C356 0.930 . S
H349 C363 0.931 . S
H350 C327 0.929 . S
H351 C357 0.930 . S
H352 C390 0.930 . S
H353 C334 0.930 . S
H354 C389 0.929 . S
N355 Tb324 2.660 . S
N355 C356 1.305 . S
N355 C360 1.360 . S
C356 H348 0.930 . S
C356 N355 1.305 . S
C356 C359 1.407 . S
C357 H351 0.930 . S
C357 C358 1.410 . S
C357 C359 1.345 . S
C358 C357 1.410 . S
C358 C360 1.417 . S
C358 C390 1.432 . S
C359 H345 0.930 . S
C359 C356 1.407 . S
C359 C357 1.345 . S
C360 N355 1.360 . S
C360 C358 1.417 . S
C360 C364 1.432 . S
H361 C366 0.930 . S
N362 Tb324 2.600 . S
N362 C364 1.359 . S
N362 C365 1.327 1_455 S
C363 H349 0.931 . S
C363 C365 1.392 . S
C363 C366 1.370 1_655 S
C364 C360 1.432 . S
C364 N362 1.359 . S
C364 C367 1.414 . S
C365 H347 0.930 . S
C365 N362 1.327 1_655 S
C365 C363 1.392 . S
C366 H361 0.930 . S
C366 C363 1.370 1_455 S
C366 C367 1.385 . S
C367 C364 1.414 . S
C367 C366 1.385 . S
C367 C389 1.444 . S
O368 Tb324 2.546 . S
O368 C388 1.251 . S
O369 Tb324 2.610 . S
O369 Tb335 2.362 1_455 S
O369 C380 1.283 . S
O370 Tb335 2.421 1_455 S
O370 C387 1.262 . S
O371 Tb324 2.320 . S
O371 C387 1.260 . S
O372 Tb324 2.552 . S
O372 C380 1.243 . S
O373 Tb324 2.413 . S
O373 C388 1.256 . S
O374 Tb335 2.546 . S
O374 C399 1.251 . S
O375 Tb324 2.349 1_655 S
O375 Tb335 2.618 . S
O375 C391 1.293 . S
O376 Tb324 2.421 1_655 S
O376 C398 1.262 . S
O377 Tb335 2.320 . S
O377 C398 1.260 . S
O378 Tb335 2.552 . S
O378 C391 1.243 . S
O379 Tb335 2.413 . S
O379 C399 1.256 . S
C380 O369 1.283 . S
C380 O372 1.243 . S
C381 C383 1.382 . S
C381 C385 1.393 . S
C381 C388 1.500 . S
C382 C383 1.400 . S
C382 C384 1.384 . S
C383 C381 1.382 . S
C383 C382 1.400 . S
C383 H400 0.930 . S
C384 C382 1.384 . S
C384 C386 1.392 . S
C384 H401 0.931 . S
C385 C381 1.393 . S
C385 C386 1.401 . S
C385 H402 0.930 . S
C386 C384 1.392 . S
C386 C385 1.401 . S
C386 H403 0.930 . S
C387 O370 1.262 . S
C387 O371 1.260 . S
C388 Tb324 2.833 . S
C388 O368 1.251 . S
C388 O373 1.256 . S
C388 C381 1.500 . S
C389 H354 0.929 . S
C389 C367 1.444 . S
C389 C390 1.317 . S
C390 H352 0.930 . S
C390 C358 1.432 . S
C390 C389 1.317 . S
C391 O375 1.293 . S
C391 O378 1.243 . S
C392 C393 1.382 . S
C392 C396 1.393 1_556 S
C392 C399 1.500 . S
C393 C392 1.382 . S
C393 C394 1.402 . S
C393 H404 0.930 . S
C394 C393 1.402 . S
C394 C395 1.382 1_556 S
C395 C394 1.382 1_554 S
C395 C397 1.392 . S
C395 H405 0.931 . S
C396 C392 1.393 1_554 S
C396 C397 1.401 . S
C396 H406 0.930 . S
C397 C395 1.392 . S
C397 C396 1.401 . S
C397 H407 0.930 . S
C398 O376 1.262 . S
C398 O377 1.260 . S
C399 Tb335 2.833 . S
C399 O374 1.251 . S
C399 O379 1.256 . S
C399 C392 1.500 . S
H400 C383 0.930 . S
H401 C384 0.931 . S
H402 C385 0.930 . S
H403 C386 0.930 . S
H404 C393 0.930 . S
H405 C395 0.931 . S
H406 C396 0.930 . S
H407 C397 0.930 . S
C408 C409 1.391 . S
C408 C410 1.394 . S
C408 H424 0.931 . S
C409 C408 1.391 . S
C409 C413 1.376 . S
C410 C408 1.394 . S
C410 C411 1.369 . S
C410 C414 1.531 . S
C411 C410 1.369 . S
C411 C412 1.410 . S
C411 C419 1.503 . S
C412 C411 1.410 . S
C412 C413 1.392 . S
C412 C415 1.511 . S
C413 C409 1.376 . S
C413 C412 1.392 . S
C413 H425 0.929 . S
C414 C410 1.531 . S
C414 H426 0.960 . S
C414 H427 0.962 . S
C414 H428 0.960 . S
C415 C412 1.511 . S
C415 H429 0.961 . S
C415 H430 0.961 . S
C415 H431 0.961 . S
C416 C417 1.370 . S
C416 C418 1.363 . S
C416 H432 0.931 . S
C417 C416 1.370 . S
C417 C421 1.427 . S
C418 C416 1.363 . S
C418 C419 1.370 . S
C418 C422 1.524 . S
C419 C411 1.503 . S
C419 C418 1.370 . S
C419 C420 1.403 . S
C420 C419 1.403 . S
C420 C421 1.407 . S
C420 C423 1.539 1_545 S
C421 C417 1.427 . S
C421 C420 1.407 . S
C421 H433 0.909 1_545 S
C422 C418 1.524 . S
C422 H434 0.956 . S
C422 H435 0.961 . S
C422 H436 0.961 . S
C423 C420 1.539 1_565 S
C423 H437 0.958 . S
C423 H438 0.961 . S
C423 H439 0.960 . S
H424 C408 0.931 . S
H425 C413 0.929 . S
H426 C414 0.960 . S
H427 C414 0.962 . S
H428 C414 0.960 . S
H429 C415 0.961 . S
H430 C415 0.961 . S
H431 C415 0.961 . S
H432 C416 0.931 . S
H433 C421 0.909 1_565 S
H434 C422 0.956 . S
H435 C422 0.961 . S
H436 C422 0.961 . S
H437 C423 0.958 . S
H438 C423 0.961 . S
H439 C423 0.960 . S
C440 C441 1.391 . S
C440 C442 1.394 . S
C440 H456 0.931 . S
C441 C440 1.391 . S
C441 C445 1.376 . S
C442 C440 1.394 . S
C442 C443 1.369 . S
C442 C446 1.531 . S
C443 C442 1.369 . S
C443 C444 1.410 . S
C443 C451 1.503 . S
C444 C443 1.410 . S
C444 C445 1.392 . S
C444 C447 1.511 . S
C445 C441 1.376 . S
C445 C444 1.392 . S
C445 H457 0.929 . S
C446 C442 1.531 . S
C446 H458 0.960 . S
C446 H459 0.962 . S
C446 H460 0.960 . S
C447 C444 1.511 . S
C447 H461 0.961 . S
C447 H462 0.961 . S
C447 H463 0.961 . S
C448 C449 1.370 . S
C448 C450 1.363 . S
C448 H464 0.931 . S
C449 C448 1.370 . S
C449 C453 1.408 . S
C450 C448 1.363 . S
C450 C451 1.370 . S
C450 C454 1.524 . S
C451 C443 1.503 . S
C451 C450 1.370 . S
C451 C452 1.403 . S
C452 C451 1.403 . S
C452 C453 1.404 . S
C452 C455 1.539 . S
C453 C449 1.408 . S
C453 C452 1.404 . S
C453 H465 0.930 . S
C454 C450 1.524 . S
C454 H466 0.956 . S
C454 H467 0.961 . S
C454 H468 0.961 . S
C455 C452 1.539 . S
C455 H469 0.958 . S
C455 H470 0.961 . S
C455 H471 0.960 . S
H456 C440 0.931 . S
H457 C445 0.929 . S
H458 C446 0.960 . S
H459 C446 0.962 . S
H460 C446 0.960 . S
H461 C447 0.961 . S
H462 C447 0.961 . S
H463 C447 0.961 . S
H464 C448 0.931 . S
H465 C453 0.930 . S
H466 C454 0.956 . S
H467 C454 0.961 . S
H468 C454 0.961 . S
H469 C455 0.958 . S
H470 C455 0.961 . S
H471 C455 0.960 . S
C472 C473 1.391 . S
C472 C474 1.394 . S
C472 H488 0.931 . S
C473 C472 1.391 . S
C473 C477 1.376 . S
C474 C472 1.394 . S
C474 C475 1.369 . S
C474 C478 1.531 . S
C475 C474 1.369 . S
C475 C476 1.410 . S
C475 C483 1.503 . S
C476 C475 1.410 . S
C476 C477 1.392 . S
C476 C479 1.511 . S
C477 C473 1.376 . S
C477 C476 1.392 . S
C477 H489 0.929 . S
C478 C474 1.531 . S
C478 H490 0.960 . S
C478 H491 0.962 . S
C478 H492 0.960 . S
C479 C476 1.511 . S
C479 H493 0.961 . S
C479 H494 0.961 . S
C479 H495 0.961 . S
C480 C481 1.370 . S
C480 C482 1.363 . S
C480 H496 0.931 . S
C481 C480 1.370 . S
C481 C485 1.408 . S
C482 C480 1.363 . S
C482 C483 1.370 . S
C482 C486 1.524 . S
C483 C475 1.503 . S
C483 C482 1.370 . S
C483 C484 1.403 . S
C484 C483 1.403 . S
C484 C485 1.404 . S
C484 C487 1.539 . S
C485 C481 1.408 . S
C485 C484 1.404 . S
C485 H497 0.930 . S
C486 C482 1.524 . S
C486 H498 0.956 . S
C486 H499 0.961 . S
C486 H500 0.961 . S
C487 C484 1.539 . S
C487 H501 0.958 . S
C487 H502 0.961 . S
C487 H503 0.960 . S
H488 C472 0.931 . S
H489 C477 0.929 . S
H490 C478 0.960 . S
H491 C478 0.962 . S
H492 C478 0.960 . S
H493 C479 0.961 . S
H494 C479 0.961 . S
H495 C479 0.961 . S
H496 C480 0.931 . S
H497 C485 0.930 . S
H498 C486 0.956 . S
H499 C486 0.961 . S
H500 C486 0.961 . S
H501 C487 0.958 . S
H502 C487 0.961 . S
H503 C487 0.960 . S
C504 C505 1.391 . S
C504 C506 1.394 . S
C504 H520 0.931 . S
C505 C504 1.391 . S
C505 C509 1.376 . S
C506 C504 1.394 . S
C506 C507 1.369 . S
C506 C510 1.531 1_455 S
C507 C506 1.369 . S
C507 C508 1.410 . S
C507 C515 1.503 . S
C508 C507 1.410 . S
C508 C509 1.392 . S
C508 C511 1.511 . S
C509 C505 1.376 . S
C509 C508 1.392 . S
C509 H521 0.929 . S
C510 C506 1.531 1_655 S
C510 H522 0.960 . S
C510 H523 0.962 . S
C510 H524 0.960 . S
C511 C508 1.511 . S
C511 H525 0.961 . S
C511 H526 0.961 . S
C511 H527 0.961 . S
C512 C513 1.370 . S
C512 C514 1.363 . S
C512 H528 0.931 . S
C513 C512 1.370 . S
C513 C517 1.408 . S
C514 C512 1.363 . S
C514 C515 1.370 . S
C514 C518 1.524 . S
C515 C507 1.503 . S
C515 C514 1.370 . S
C515 C516 1.403 . S
C516 C515 1.403 . S
C516 C517 1.404 . S
C516 C519 1.539 . S
C517 C513 1.408 . S
C517 C516 1.404 . S
C517 H529 0.930 . S
C518 C514 1.524 . S
C518 H530 0.956 . S
C518 H531 0.961 . S
C518 H532 0.961 . S
C519 C516 1.539 . S
C519 H533 0.958 1_455 S
C519 H534 0.961 . S
C519 H535 0.960 . S
H520 C504 0.931 . S
H521 C509 0.929 . S
H522 C510 0.960 . S
H523 C510 0.962 . S
H524 C510 0.960 . S
H525 C511 0.961 . S
H526 C511 0.961 . S
H527 C511 0.961 . S
H528 C512 0.931 . S
H529 C517 0.930 . S
H530 C518 0.956 . S
H531 C518 0.961 . S
H532 C518 0.961 . S
H533 C519 0.958 1_655 S
H534 C519 0.961 . S
H535 C519 0.960 . S
C536 C537 1.391 . S
C536 C538 1.394 . S
C536 H552 0.931 . S
C537 C536 1.391 . S
C537 C541 1.376 . S
C538 C536 1.394 . S
C538 C539 1.369 . S
C538 C542 1.531 . S
C539 C538 1.369 . S
C539 C540 1.410 . S
C539 C547 1.503 1_554 S
C540 C539 1.410 . S
C540 C541 1.392 . S
C540 C543 1.510 . S
C541 C537 1.376 . S
C541 C540 1.392 . S
C541 H553 0.929 . S
C542 C538 1.531 . S
C542 H554 0.960 . S
C542 H555 0.962 . S
C542 H556 0.960 . S
C543 C540 1.510 . S
C543 H557 0.960 1_565 S
C543 H558 0.962 1_564 S
C543 H559 0.961 1_554 S
C544 C545 1.370 1_545 S
C544 C546 1.363 1_545 S
C544 H560 0.931 . S
C545 C544 1.370 1_565 S
C545 C549 1.408 . S
C546 C544 1.363 1_565 S
C546 C547 1.370 . S
C546 C550 1.524 1_566 S
C547 C539 1.503 1_556 S
C547 C546 1.370 . S
C547 C548 1.403 . S
C548 C547 1.403 . S
C548 C549 1.404 . S
C548 C551 1.539 . S
C549 C545 1.408 . S
C549 C548 1.404 . S
C549 H561 0.930 . S
C550 C546 1.524 1_544 S
C550 H562 0.956 . S
C550 H563 0.961 . S
C550 H564 0.961 . S
C551 C548 1.539 . S
C551 H565 0.958 . S
C551 H566 0.961 . S
C551 H567 0.960 . S
H552 C536 0.931 . S
H553 C541 0.929 . S
H554 C542 0.960 . S
H555 C542 0.962 . S
H556 C542 0.960 . S
H557 C543 0.960 1_545 S
H558 C543 0.962 1_546 S
H559 C543 0.961 1_556 S
H560 C544 0.931 . S
H561 C549 0.930 . S
H562 C550 0.956 . S
H563 C550 0.961 . S
H564 C550 0.961 . S
H565 C551 0.958 . S
H566 C551 0.961 . S
H567 C551 0.960 . S
C568 C569 1.391 . S
C568 C570 1.394 . S
C568 H584 0.931 . S
C569 C568 1.391 . S
C569 C573 1.376 . S
C570 C568 1.394 . S
C570 C571 1.369 . S
C570 C574 1.531 . S
C571 C570 1.369 . S
C571 C572 1.410 . S
C571 C579 1.503 1_554 S
C572 C571 1.410 . S
C572 C573 1.392 . S
C572 C575 1.511 . S
C573 C569 1.376 . S
C573 C572 1.392 . S
C573 H585 0.929 . S
C574 C570 1.531 . S
C574 H586 0.960 . S
C574 H587 0.962 . S
C574 H588 0.960 . S
C575 C572 1.511 . S
C575 H589 0.961 . S
C575 H590 0.961 1_554 S
C575 H591 0.961 . S
C576 C577 1.370 . S
C576 C578 1.363 . S
C576 H592 0.931 . S
C577 C576 1.370 . S
C577 C581 1.408 . S
C578 C576 1.363 . S
C578 C579 1.370 . S
C578 C582 1.524 . S
C579 C571 1.503 1_556 S
C579 C578 1.370 . S
C579 C580 1.403 . S
C580 C579 1.403 . S
C580 C581 1.404 . S
C580 C583 1.539 1_556 S
C581 C577 1.408 . S
C581 C580 1.404 . S
C581 H593 0.930 . S
C582 C578 1.524 . S
C582 H594 0.956 . S
C582 H595 0.961 . S
C582 H596 0.961 . S
C583 C580 1.539 1_554 S
C583 H597 0.958 . S
C583 H598 0.961 . S
C583 H599 0.960 . S
H584 C568 0.931 . S
H585 C573 0.929 . S
H586 C574 0.960 . S
H587 C574 0.962 . S
H588 C574 0.960 . S
H589 C575 0.961 . S
H590 C575 0.961 1_556 S
H591 C575 0.961 . S
H592 C576 0.931 . S
H593 C581 0.930 . S
H594 C582 0.956 . S
H595 C582 0.961 . S
H596 C582 0.961 . S
H597 C583 0.958 . S
H598 C583 0.961 . S
H599 C583 0.960 . S
C600 C601 1.391 . S
C600 C602 1.394 . S
C600 H616 0.931 . S
C601 C600 1.391 . S
C601 C605 1.376 . S
C602 C600 1.394 . S
C602 C603 1.369 . S
C602 C606 1.531 . S
C603 C602 1.369 . S
C603 C604 1.410 . S
C603 C611 1.503 1_554 S
C604 C603 1.410 . S
C604 C605 1.392 . S
C604 C607 1.511 . S
C605 C601 1.376 . S
C605 C604 1.392 . S
C605 H617 0.929 . S
C606 C602 1.531 . S
C606 H618 0.960 1_554 S
C606 H619 0.962 1_554 S
C606 H620 0.960 . S
C607 C604 1.511 . S
C607 H621 0.961 . S
C607 H622 0.961 . S
C607 H623 0.961 . S
C608 C609 1.370 . S
C608 C610 1.363 . S
C608 H624 0.931 . S
C609 C608 1.370 . S
C609 C613 1.408 . S
C610 C608 1.363 . S
C610 C611 1.370 . S
C610 C614 1.524 . S
C611 C603 1.503 1_556 S
C611 C610 1.370 . S
C611 C612 1.403 . S
C612 C611 1.403 . S
C612 C613 1.404 . S
C612 C615 1.539 1_556 S
C613 C609 1.408 . S
C613 C612 1.404 . S
C613 H625 0.930 . S
C614 C610 1.524 . S
C614 H626 0.956 . S
C614 H627 0.961 . S
C614 H628 0.961 . S
C615 C612 1.539 1_554 S
C615 H629 0.958 . S
C615 H630 0.961 . S
C615 H631 0.960 . S
H616 C600 0.931 . S
H617 C605 0.929 . S
H618 C606 0.960 1_556 S
H619 C606 0.962 1_556 S
H620 C606 0.960 . S
H621 C607 0.961 . S
H622 C607 0.961 . S
H623 C607 0.961 . S
H624 C608 0.931 . S
H625 C613 0.930 . S
H626 C614 0.956 . S
H627 C614 0.961 . S
H628 C614 0.961 . S
H629 C615 0.958 . S
H630 C615 0.961 . S
H631 C615 0.960 . S
C632 C633 1.391 . S
C632 C634 1.394 . S
C632 H648 0.931 . S
C633 C632 1.391 . S
C633 C637 1.376 . S
C634 C632 1.394 . S
C634 C635 1.369 . S
C634 C638 1.531 1_655 S
C635 C634 1.369 . S
C635 C636 1.410 . S
C635 C643 1.503 1_554 S
C636 C635 1.410 . S
C636 C637 1.392 . S
C636 C639 1.511 . S
C637 C633 1.376 . S
C637 C636 1.392 . S
C637 H649 0.929 . S
C638 C634 1.531 1_455 S
C638 H650 0.960 . S
C638 H651 0.962 . S
C638 H652 0.960 . S
C639 C636 1.511 . S
C639 H653 0.961 . S
C639 H654 0.961 . S
C639 H655 0.961 . S
C640 C641 1.370 . S
C640 C642 1.363 . S
C640 H656 0.931 . S
C641 C640 1.370 . S
C641 C645 1.408 . S
C642 C640 1.363 . S
C642 C643 1.370 . S
C642 C646 1.524 . S
C643 C635 1.503 1_556 S
C643 C642 1.370 . S
C643 C644 1.403 . S
C644 C643 1.403 . S
C644 C645 1.404 . S
C644 C647 1.539 1_556 S
C645 C641 1.408 . S
C645 C644 1.404 . S
C645 H657 0.930 1_655 S
C646 C642 1.524 . S
C646 H658 0.956 . S
C646 H659 0.961 . S
C646 H660 0.961 . S
C647 C644 1.539 1_554 S
C647 H661 0.958 1_655 S
C647 H662 0.961 . S
C647 H663 0.960 . S
H648 C632 0.931 . S
H649 C637 0.929 . S
H650 C638 0.960 . S
H651 C638 0.962 . S
H652 C638 0.960 . S
H653 C639 0.961 . S
H654 C639 0.961 . S
H655 C639 0.961 . S
H656 C640 0.931 . S
H657 C645 0.930 1_455 S
H658 C646 0.956 . S
H659 C646 0.961 . S
H660 C646 0.961 . S
H661 C647 0.958 1_455 S
H662 C647 0.961 . S
H663 C647 0.960 . S
C664 C665 1.391 . S
C664 C666 1.394 . S
C664 H680 0.931 . S
C665 C664 1.391 . S
C665 C669 1.376 . S
C666 C664 1.394 . S
C666 C667 1.369 . S
C666 C670 1.531 1_455 S
C667 C666 1.369 . S
C667 C668 1.410 . S
C667 C675 1.503 . S
C668 C667 1.410 . S
C668 C669 1.392 . S
C668 C671 1.511 . S
C669 C665 1.376 . S
C669 C668 1.392 . S
C669 H681 0.929 . S
C670 C666 1.531 1_655 S
C670 H682 0.960 . S
C670 H683 0.962 . S
C670 H684 0.960 . S
C671 C668 1.511 . S
C671 H685 0.961 . S
C671 H686 0.961 . S
C671 H687 0.961 . S
C672 C673 1.370 . S
C672 C674 1.363 1_655 S
C672 H688 0.931 . S
C673 C672 1.370 . S
C673 C677 1.408 1_655 S
C674 C672 1.363 1_455 S
C674 C675 1.370 . S
C674 C678 1.524 . S
C675 C667 1.503 . S
C675 C674 1.370 . S
C675 C676 1.403 . S
C676 C675 1.403 . S
C676 C677 1.404 . S
C676 C679 1.539 . S
C677 C673 1.408 1_455 S
C677 C676 1.404 . S
C677 H689 0.930 . S
C678 C674 1.524 . S
C678 H690 0.956 . S
C678 H691 0.961 . S
C678 H692 0.961 . S
C679 C676 1.539 . S
C679 H693 0.958 . S
C679 H694 0.961 . S
C679 H695 0.960 . S
H680 C664 0.931 . S
H681 C669 0.929 . S
H682 C670 0.960 . S
H683 C670 0.962 . S
H684 C670 0.960 . S
H685 C671 0.961 . S
H686 C671 0.961 . S
H687 C671 0.961 . S
H688 C672 0.931 . S
H689 C677 0.930 . S
H690 C678 0.956 . S
H691 C678 0.961 . S
H692 C678 0.961 . S
H693 C679 0.958 . S
H694 C679 0.961 . S
H695 C679 0.960 . S
C696 C697 1.391 . S
C696 C698 1.394 . S
C696 H712 0.931 . S
C697 C696 1.391 . S
C697 C701 1.376 . S
C698 C696 1.394 . S
C698 C699 1.369 . S
C698 C702 1.531 1_545 S
C699 C698 1.369 . S
C699 C700 1.410 . S
C699 C707 1.503 . S
C700 C699 1.410 . S
C700 C701 1.392 . S
C700 C703 1.511 . S
C701 C697 1.376 . S
C701 C700 1.392 . S
C701 H713 0.929 . S
C702 C698 1.531 1_565 S
C702 H714 0.960 . S
C702 H715 0.962 . S
C702 H716 0.960 . S
C703 C700 1.511 . S
C703 H717 0.961 . S
C703 H718 0.961 . S
C703 H719 0.961 . S
C704 C705 1.370 . S
C704 C706 1.363 1_565 S
C704 H720 0.931 . S
C705 C704 1.370 . S
C705 C709 1.408 1_565 S
C706 C704 1.363 1_545 S
C706 C707 1.370 . S
C706 C710 1.524 . S
C707 C699 1.503 . S
C707 C706 1.370 . S
C707 C708 1.403 . S
C708 C707 1.403 . S
C708 C709 1.404 . S
C708 C711 1.539 . S
C709 C705 1.408 1_545 S
C709 C708 1.404 . S
C709 H721 0.930 . S
C710 C706 1.524 . S
C710 H722 0.956 . S
C710 H723 0.961 . S
C710 H724 0.961 . S
C711 C708 1.539 . S
C711 H725 0.958 . S
C711 H726 0.961 . S
C711 H727 0.960 . S
H712 C696 0.931 . S
H713 C701 0.929 . S
H714 C702 0.960 . S
H715 C702 0.962 . S
H716 C702 0.960 . S
H717 C703 0.961 . S
H718 C703 0.961 . S
H719 C703 0.961 . S
H720 C704 0.931 . S
H721 C709 0.930 . S
H722 C710 0.956 . S
H723 C710 0.961 . S
H724 C710 0.961 . S
H725 C711 0.958 . S
H726 C711 0.961 . S
H727 C711 0.960 . S
C728 C729 1.391 . S
C728 C730 1.394 . S
C728 H744 0.931 . S
C729 C728 1.391 . S
C729 C733 1.376 . S
C730 C728 1.394 . S
C730 C731 1.369 . S
C730 C734 1.531 . S
C731 C730 1.369 . S
C731 C732 1.410 . S
C731 C739 1.503 . S
C732 C731 1.410 . S
C732 C733 1.392 . S
C732 C735 1.511 . S
C733 C729 1.376 . S
C733 C732 1.392 . S
C733 H745 0.929 . S
C734 C730 1.531 . S
C734 H746 0.960 . S
C734 H747 0.962 . S
C734 H748 0.960 . S
C735 C732 1.511 . S
C735 H749 0.961 . S
C735 H750 0.961 . S
C735 H751 0.961 . S
C736 C737 1.370 . S
C736 C738 1.363 . S
C736 H752 0.931 . S
C737 C736 1.370 . S
C737 C741 1.408 . S
C738 C736 1.363 . S
C738 C739 1.370 . S
C738 C742 1.524 . S
C739 C731 1.503 . S
C739 C738 1.370 . S
C739 C740 1.403 . S
C740 C739 1.403 . S
C740 C741 1.404 . S
C740 C743 1.539 . S
C741 C737 1.408 . S
C741 C740 1.404 . S
C741 H753 0.930 . S
C742 C738 1.524 . S
C742 H754 0.956 . S
C742 H755 0.961 . S
C742 H756 0.961 . S
C743 C740 1.539 . S
C743 H757 0.958 . S
C743 H758 0.961 . S
C743 H759 0.960 . S
H744 C728 0.931 . S
H745 C733 0.929 . S
H746 C734 0.960 . S
H747 C734 0.962 . S
H748 C734 0.960 . S
H749 C735 0.961 . S
H750 C735 0.961 . S
H751 C735 0.961 . S
H752 C736 0.931 . S
H753 C741 0.930 . S
H754 C742 0.956 . S
H755 C742 0.961 . S
H756 C742 0.961 . S
H757 C743 0.958 . S
H758 C743 0.961 . S
H759 C743 0.960 . S
C760 C761 1.391 . S
C760 C762 1.394 . S
C760 H776 0.931 . S
C761 C760 1.391 . S
C761 C765 1.376 . S
C762 C760 1.394 . S
C762 C763 1.369 . S
C762 C766 1.531 . S
C763 C762 1.369 . S
C763 C764 1.410 . S
C763 C771 1.503 . S
C764 C763 1.410 . S
C764 C765 1.392 . S
C764 C767 1.511 . S
C765 C761 1.376 . S
C765 C764 1.392 . S
C765 H777 0.929 . S
C766 C762 1.531 . S
C766 H778 0.960 . S
C766 H779 0.962 . S
C766 H780 0.960 . S
C767 C764 1.511 . S
C767 H781 0.961 . S
C767 H782 0.961 . S
C767 H783 0.961 . S
C768 C769 1.370 . S
C768 C770 1.363 . S
C768 H784 0.931 . S
C769 C768 1.370 . S
C769 C773 1.408 . S
C770 C768 1.363 . S
C770 C771 1.370 . S
C770 C774 1.524 . S
C771 C763 1.503 . S
C771 C770 1.370 . S
C771 C772 1.403 . S
C772 C771 1.403 . S
C772 C773 1.404 . S
C772 C775 1.539 . S
C773 C769 1.408 . S
C773 C772 1.404 . S
C773 H785 0.930 . S
C774 C770 1.524 . S
C774 H786 0.956 . S
C774 H787 0.961 . S
C774 H788 0.961 . S
C775 C772 1.539 . S
C775 H789 0.958 . S
C775 H790 0.961 . S
C775 H791 0.960 . S
H776 C760 0.931 . S
H777 C765 0.929 . S
H778 C766 0.960 . S
H779 C766 0.962 . S
H780 C766 0.960 . S
H781 C767 0.961 . S
H782 C767 0.961 . S
H783 C767 0.961 . S
H784 C768 0.931 . S
H785 C773 0.930 . S
H786 C774 0.956 . S
H787 C774 0.961 . S
H788 C774 0.961 . S
H789 C775 0.958 . S
H790 C775 0.961 . S
H791 C775 0.960 . S
C792 C793 1.391 . S
C792 C794 1.394 . S
C792 H808 0.931 . S
C793 C792 1.391 . S
C793 C797 1.376 . S
C794 C792 1.394 . S
C794 C795 1.369 . S
C794 C798 1.531 . S
C795 C794 1.369 . S
C795 C796 1.410 . S
C795 C803 1.503 . S
C796 C795 1.410 . S
C796 C797 1.392 . S
C796 C799 1.511 . S
C797 C793 1.376 . S
C797 C796 1.392 . S
C797 H809 0.929 . S
C798 C794 1.531 . S
C798 H810 0.960 1_554 S
C798 H811 0.962 1_655 S
C798 H812 0.960 . S
C799 C796 1.511 . S
C799 H813 0.961 . S
C799 H814 0.961 . S
C799 H815 0.961 . S
C800 C801 1.370 1_554 S
C800 C802 1.363 . S
C800 H816 0.931 . S
C801 C800 1.370 1_556 S
C801 C805 1.408 1_455 S
C802 C800 1.363 . S
C802 C803 1.370 1_455 S
C802 C806 1.524 . S
C803 C795 1.503 . S
C803 C802 1.370 1_655 S
C803 C804 1.403 1_554 S
C804 C803 1.403 1_556 S
C804 C805 1.404 . S
C804 C807 1.539 . S
C805 C801 1.408 1_655 S
C805 C804 1.404 . S
C805 H817 0.930 . S
C806 C802 1.524 . S
C806 H818 0.956 . S
C806 H819 0.961 . S
C806 H820 0.961 . S
C807 C804 1.539 . S
C807 H821 0.958 . S
C807 H822 0.961 . S
C807 H823 0.960 . S
H808 C792 0.931 . S
H809 C797 0.929 . S
H810 C798 0.960 1_556 S
H811 C798 0.962 1_455 S
H812 C798 0.960 . S
H813 C799 0.961 . S
H814 C799 0.961 . S
H815 C799 0.961 . S
H816 C800 0.931 . S
H817 C805 0.930 . S
H818 C806 0.956 . S
H819 C806 0.961 . S
H820 C806 0.961 . S
H821 C807 0.958 . S
H822 C807 0.961 . S
H823 C807 0.960 . S
C824 C825 1.391 . S
C824 C826 1.394 . S
C824 H840 0.931 . S
C825 C824 1.391 . S
C825 C829 1.376 . S
C826 C824 1.394 . S
C826 C827 1.369 . S
C826 C830 1.531 1_565 S
C827 C826 1.369 . S
C827 C828 1.410 . S
C827 C835 1.503 . S
C828 C827 1.410 . S
C828 C829 1.392 . S
C828 C831 1.511 . S
C829 C825 1.376 . S
C829 C828 1.392 . S
C829 H841 0.929 . S
C830 C826 1.531 1_545 S
C830 H842 0.960 . S
C830 H843 0.962 . S
C830 H844 0.960 . S
C831 C828 1.511 . S
C831 H845 0.961 . S
C831 H846 0.961 . S
C831 H847 0.961 . S
C832 C833 1.370 1_554 S
C832 C834 1.363 . S
C832 H848 0.931 . S
C833 C832 1.370 1_556 S
C833 C837 1.408 1_545 S
C834 C832 1.363 . S
C834 C835 1.370 1_545 S
C834 C838 1.524 . S
C835 C827 1.503 . S
C835 C834 1.370 1_565 S
C835 C836 1.403 1_554 S
C836 C835 1.403 1_556 S
C836 C837 1.404 . S
C836 C839 1.539 . S
C837 C833 1.408 1_565 S
C837 C836 1.404 . S
C837 H849 0.930 . S
C838 C834 1.524 . S
C838 H850 0.956 . S
C838 H851 0.960 1_545 S
C838 H852 0.961 . S
C839 C836 1.539 . S
C839 H853 0.958 . S
C839 H854 0.961 . S
C839 H855 0.960 . S
H840 C824 0.931 . S
H841 C829 0.929 . S
H842 C830 0.960 . S
H843 C830 0.962 . S
H844 C830 0.960 . S
H845 C831 0.961 . S
H846 C831 0.961 . S
H847 C831 0.961 . S
H848 C832 0.931 . S
H849 C837 0.930 . S
H850 C838 0.956 . S
H851 C838 0.960 1_565 S
H852 C838 0.961 . S
H853 C839 0.958 . S
H854 C839 0.961 . S
H855 C839 0.960 . S
C856 C857 1.391 . S
C856 C858 1.394 . S
C856 H872 0.931 . S
C857 C856 1.391 . S
C857 C861 1.376 . S
C858 C856 1.394 . S
C858 C859 1.369 . S
C858 C862 1.531 . S
C859 C858 1.369 . S
C859 C860 1.410 . S
C859 C867 1.503 . S
C860 C859 1.410 . S
C860 C861 1.392 . S
C860 C863 1.511 . S
C861 C857 1.376 . S
C861 C860 1.392 . S
C861 H873 0.929 . S
C862 C858 1.531 . S
C862 H874 0.960 1_554 S
C862 H875 0.962 . S
C862 H876 0.960 . S
C863 C860 1.511 . S
C863 H877 0.961 . S
C863 H878 0.961 . S
C863 H879 0.961 . S
C864 C865 1.370 1_554 S
C864 C866 1.363 . S
C864 H880 0.931 . S
C865 C864 1.370 1_556 S
C865 C869 1.408 . S
C866 C864 1.363 . S
C866 C867 1.370 . S
C866 C870 1.524 . S
C867 C859 1.503 . S
C867 C866 1.370 . S
C867 C868 1.403 1_554 S
C868 C867 1.403 1_556 S
C868 C869 1.404 . S
C868 C871 1.539 . S
C869 C865 1.408 . S
C869 C868 1.404 . S
C869 H881 0.930 . S
C870 C866 1.524 . S
C870 H882 0.956 . S
C870 H883 0.961 . S
C870 H884 0.961 . S
C871 C868 1.539 . S
C871 H885 0.958 . S
C871 H886 0.961 . S
C871 H887 0.960 . S
H872 C856 0.931 . S
H873 C861 0.929 . S
H874 C862 0.960 1_556 S
H875 C862 0.962 . S
H876 C862 0.960 . S
H877 C863 0.961 . S
H878 C863 0.961 . S
H879 C863 0.961 . S
H880 C864 0.931 . S
H881 C869 0.930 . S
H882 C870 0.956 . S
H883 C870 0.961 . S
H884 C870 0.961 . S
H885 C871 0.958 . S
H886 C871 0.961 . S
H887 C871 0.960 . S
C888 C889 1.391 . S
C888 C890 1.394 . S
C888 H904 0.931 . S
C889 C888 1.391 . S
C889 C893 1.376 . S
C890 C888 1.394 . S
C890 C891 1.369 . S
C890 C894 1.531 1_554 S
C891 C890 1.369 . S
C891 C892 1.410 . S
C891 C899 1.503 . S
C892 C891 1.410 . S
C892 C893 1.392 . S
C892 C895 1.511 . S
C893 C889 1.376 . S
C893 C892 1.392 . S
C893 H905 0.929 . S
C894 C890 1.531 1_556 S
C894 H906 0.960 . S
C894 H907 0.962 . S
C894 H908 0.960 . S
C895 C892 1.511 . S
C895 H909 0.961 . S
C895 H910 0.961 . S
C895 H911 0.961 . S
C896 C897 1.370 1_554 S
C896 C898 1.363 . S
C896 H912 0.930 1_554 S
C897 C896 1.370 1_556 S
C897 C901 1.408 1_556 S
C898 C896 1.363 . S
C898 C899 1.370 . S
C898 C902 1.524 . S
C899 C891 1.503 . S
C899 C898 1.370 . S
C899 C900 1.403 . S
C900 C899 1.403 . S
C900 C901 1.404 . S
C900 C903 1.539 . S
C901 C897 1.408 1_554 S
C901 C900 1.404 . S
C901 H913 0.930 1_554 S
C902 C898 1.524 . S
C902 H914 0.956 . S
C902 H915 0.961 . S
C902 H916 0.961 . S
C903 C900 1.539 . S
C903 H917 0.958 . S
C903 H918 0.961 . S
C903 H919 0.960 . S
H904 C888 0.931 . S
H905 C893 0.929 . S
H906 C894 0.960 . S
H907 C894 0.962 . S
H908 C894 0.960 . S
H909 C895 0.961 . S
H910 C895 0.961 . S
H911 C895 0.961 . S
H912 C896 0.930 1_556 S
H913 C901 0.930 1_556 S
H914 C902 0.956 . S
H915 C902 0.961 . S
H916 C902 0.961 . S
H917 C903 0.958 . S
H918 C903 0.961 . S
H919 C903 0.960 . S
C920 C921 1.391 . S
C920 C922 1.394 . S
C920 H936 0.931 . S
C921 C920 1.391 . S
C921 C925 1.376 . S
C922 C920 1.394 . S
C922 C923 1.369 . S
C922 C926 1.531 . S
C923 C922 1.369 . S
C923 C924 1.410 . S
C923 C931 1.503 . S
C924 C923 1.410 . S
C924 C925 1.392 . S
C924 C927 1.511 . S
C925 C921 1.376 . S
C925 C924 1.392 . S
C925 H937 0.929 . S
C926 C922 1.531 . S
C926 H938 0.960 . S
C926 H939 0.962 1_455 S
C926 H940 0.960 1_455 S
C927 C924 1.511 . S
C927 H941 0.961 . S
C927 H942 0.961 . S
C927 H943 0.961 . S
C928 C929 1.370 . S
C928 C930 1.363 . S
C928 H944 0.931 . S
C929 C928 1.370 . S
C929 C933 1.408 . S
C930 C928 1.363 . S
C930 C931 1.370 . S
C930 C934 1.524 . S
C931 C923 1.503 . S
C931 C930 1.370 . S
C931 C932 1.403 . S
C932 C931 1.403 . S
C932 C933 1.404 . S
C932 C935 1.539 . S
C933 C929 1.408 . S
C933 C932 1.404 . S
C933 H945 0.930 . S
C934 C930 1.524 . S
C934 H946 0.956 . S
C934 H947 0.961 . S
C934 H948 0.961 . S
C935 C932 1.539 . S
C935 H949 0.958 . S
C935 H950 0.961 . S
C935 H951 0.960 . S
H936 C920 0.931 . S
H937 C925 0.929 . S
H938 C926 0.960 . S
H939 C926 0.962 1_655 S
H940 C926 0.960 1_655 S
H941 C927 0.961 . S
H942 C927 0.961 . S
H943 C927 0.961 . S
H944 C928 0.931 . S
H945 C933 0.930 . S
H946 C934 0.956 . S
H947 C934 0.961 . S
H948 C934 0.961 . S
H949 C935 0.958 . S
H950 C935 0.961 . S
H951 C935 0.960 . S
C952 C953 1.391 . S
C952 C954 1.394 . S
C952 H968 0.931 . S
C953 C952 1.391 . S
C953 C957 1.376 . S
C954 C952 1.394 . S
C954 C955 1.369 . S
C954 C958 1.531 . S
C955 C954 1.369 . S
C955 C956 1.410 . S
C955 C963 1.503 . S
C956 C955 1.410 . S
C956 C957 1.392 . S
C956 C959 1.511 . S
C957 C953 1.376 . S
C957 C956 1.392 . S
C957 H969 0.929 . S
C958 C954 1.531 . S
C958 H970 0.960 . S
C958 H971 0.962 . S
C958 H972 0.960 . S
C959 C956 1.511 . S
C959 H973 0.961 1_556 S
C959 H974 0.961 . S
C959 H975 0.961 . S
C960 C961 1.370 . S
C960 C962 1.363 . S
C960 H976 0.931 1_545 S
C961 C960 1.370 . S
C961 C965 1.408 . S
C962 C960 1.363 . S
C962 C963 1.370 . S
C962 C966 1.524 1_545 S
C963 C955 1.503 . S
C963 C962 1.370 . S
C963 C964 1.403 . S
C964 C963 1.403 . S
C964 C965 1.404 . S
C964 C967 1.539 . S
C965 C961 1.408 . S
C965 C964 1.404 . S
C965 H977 0.930 . S
C966 C962 1.524 1_565 S
C966 H978 0.956 . S
C966 H979 0.961 1_565 S
C966 H980 0.961 . S
C967 C964 1.539 . S
C967 H981 0.958 . S
C967 H982 0.961 . S
C967 H983 0.960 . S
H968 C952 0.931 . S
H969 C957 0.929 . S
H970 C958 0.960 . S
H971 C958 0.962 . S
H972 C958 0.960 . S
H973 C959 0.961 1_554 S
H974 C959 0.961 . S
H975 C959 0.961 . S
H976 C960 0.931 1_565 S
H977 C965 0.930 . S
H978 C966 0.956 . S
H979 C966 0.961 1_545 S
H980 C966 0.961 . S
H981 C967 0.958 . S
H982 C967 0.961 . S
H983 C967 0.960 . S
C984 C985 1.391 . S
C984 C986 1.394 . S
C984 H1000 0.931 . S
C985 C984 1.391 . S
C985 C989 1.376 . S
C986 C984 1.394 . S
C986 C987 1.369 . S
C986 C990 1.531 . S
C987 C986 1.369 . S
C987 C988 1.410 . S
C987 C995 1.503 . S
C988 C987 1.410 . S
C988 C989 1.392 . S
C988 C991 1.511 . S
C989 C985 1.376 . S
C989 C988 1.392 . S
C989 H1001 0.929 . S
C990 C986 1.531 . S
C990 H1002 0.960 . S
C990 H1003 0.962 . S
C990 H1004 0.960 . S
C991 C988 1.511 . S
C991 H1005 0.961 1_556 S
C991 H1006 0.961 . S
C991 H1007 0.961 . S
C992 C993 1.370 . S
C992 C994 1.363 . S
C992 H1008 0.931 . S
C993 C992 1.370 . S
C993 C997 1.408 . S
C994 C992 1.363 . S
C994 C995 1.370 . S
C994 C998 1.524 . S
C995 C987 1.503 . S
C995 C994 1.370 . S
C995 C996 1.403 . S
C996 C995 1.403 . S
C996 C997 1.404 . S
C996 C999 1.539 . S
C997 C993 1.408 . S
C997 C996 1.404 . S
C997 H1009 0.930 . S
C998 C994 1.524 . S
C998 H1010 0.956 . S
C998 H1011 0.961 . S
C998 H1012 0.961 . S
C999 C996 1.539 . S
C999 H1013 0.958 . S
C999 H1014 0.961 . S
C999 H1015 0.960 . S
H1000 C984 0.931 . S
H1001 C989 0.929 . S
H1002 C990 0.960 . S
H1003 C990 0.962 . S
H1004 C990 0.960 . S
H1005 C991 0.961 1_554 S
H1006 C991 0.961 . S
H1007 C991 0.961 . S
H1008 C992 0.931 . S
H1009 C997 0.930 . S
H1010 C998 0.956 . S
H1011 C998 0.961 . S
H1012 C998 0.961 . S
H1013 C999 0.958 . S
H1014 C999 0.961 . S
H1015 C999 0.960 . S
C1016 C1017 1.391 . S
C1016 C1018 1.394 . S
C1016 H1032 0.931 . S
C1017 C1016 1.391 . S
C1017 C1021 1.376 . S
C1018 C1016 1.394 . S
C1018 C1019 1.369 . S
C1018 C1022 1.531 . S
C1019 C1018 1.369 . S
C1019 C1020 1.410 . S
C1019 C1027 1.503 . S
C1020 C1019 1.410 . S
C1020 C1021 1.392 . S
C1020 C1023 1.511 . S
C1021 C1017 1.376 . S
C1021 C1020 1.392 . S
C1021 H1033 0.929 . S
C1022 C1018 1.531 . S
C1022 H1034 0.960 . S
C1022 H1035 0.962 . S
C1022 H1036 0.960 . S
C1023 C1020 1.511 . S
C1023 H1037 0.961 1_556 S
C1023 H1038 0.961 . S
C1023 H1039 0.961 . S
C1024 C1025 1.370 . S
C1024 C1026 1.363 . S
C1024 H1040 0.931 . S
C1025 C1024 1.370 . S
C1025 C1029 1.408 . S
C1026 C1024 1.363 . S
C1026 C1027 1.370 . S
C1026 C1030 1.524 . S
C1027 C1019 1.503 . S
C1027 C1026 1.370 . S
C1027 C1028 1.403 . S
C1028 C1027 1.403 . S
C1028 C1029 1.404 . S
C1028 C1031 1.539 . S
C1029 C1025 1.408 . S
C1029 C1028 1.404 . S
C1029 H1041 0.930 . S
C1030 C1026 1.524 . S
C1030 H1042 0.956 . S
C1030 H1043 0.961 . S
C1030 H1044 0.961 . S
C1031 C1028 1.539 . S
C1031 H1045 0.958 . S
C1031 H1046 0.961 . S
C1031 H1047 0.960 . S
H1032 C1016 0.931 . S
H1033 C1021 0.929 . S
H1034 C1022 0.960 . S
H1035 C1022 0.962 . S
H1036 C1022 0.960 . S
H1037 C1023 0.961 1_554 S
H1038 C1023 0.961 . S
H1039 C1023 0.961 . S
H1040 C1024 0.931 . S
H1041 C1029 0.930 . S
H1042 C1030 0.956 . S
H1043 C1030 0.961 . S
H1044 C1030 0.961 . S
H1045 C1031 0.958 . S
H1046 C1031 0.961 . S
H1047 C1031 0.960 . S
C1048 C1049 1.391 . S
C1048 C1050 1.394 . S
C1048 H1064 0.931 . S
C1049 C1048 1.391 . S
C1049 C1053 1.376 . S
C1050 C1048 1.394 . S
C1050 C1051 1.369 . S
C1050 C1054 1.531 . S
C1051 C1050 1.369 . S
C1051 C1052 1.410 . S
C1051 C1059 1.503 . S
C1052 C1051 1.410 . S
C1052 C1053 1.392 . S
C1052 C1055 1.511 . S
C1053 C1049 1.376 . S
C1053 C1052 1.392 . S
C1053 H1065 0.929 . S
C1054 C1050 1.531 . S
C1054 H1066 0.960 . S
C1054 H1067 0.962 . S
C1054 H1068 0.960 . S
C1055 C1052 1.511 . S
C1055 H1069 0.961 . S
C1055 H1070 0.961 . S
C1055 H1071 0.961 . S
C1056 C1057 1.370 . S
C1056 C1058 1.363 . S
C1056 H1072 0.931 1_655 S
C1057 C1056 1.370 . S
C1057 C1061 1.408 . S
C1058 C1056 1.363 . S
C1058 C1059 1.370 . S
C1058 C1062 1.524 1_655 S
C1059 C1051 1.503 . S
C1059 C1058 1.370 . S
C1059 C1060 1.403 . S
C1060 C1059 1.403 . S
C1060 C1061 1.404 . S
C1060 C1063 1.539 . S
C1061 C1057 1.408 . S
C1061 C1060 1.404 . S
C1061 H1073 0.930 . S
C1062 C1058 1.524 1_455 S
C1062 H1074 0.956 1_455 S
C1062 H1075 0.961 . S
C1062 H1076 0.961 . S
C1063 C1060 1.539 . S
C1063 H1077 0.958 . S
C1063 H1078 0.961 . S
C1063 H1079 0.960 . S
H1064 C1048 0.931 . S
H1065 C1053 0.929 . S
H1066 C1054 0.960 . S
H1067 C1054 0.962 . S
H1068 C1054 0.960 . S
H1069 C1055 0.961 . S
H1070 C1055 0.961 . S
H1071 C1055 0.961 . S
H1072 C1056 0.931 1_455 S
H1073 C1061 0.930 . S
H1074 C1062 0.956 1_655 S
H1075 C1062 0.961 . S
H1076 C1062 0.961 . S
H1077 C1063 0.958 . S
H1078 C1063 0.961 . S
H1079 C1063 0.960 . S
C1080 C1081 1.391 . S
C1080 C1082 1.394 . S
C1080 H1096 0.931 . S
C1081 C1080 1.391 . S
C1081 C1085 1.376 . S
C1082 C1080 1.394 . S
C1082 C1083 1.369 . S
C1082 C1086 1.531 . S
C1083 C1082 1.369 . S
C1083 C1084 1.410 . S
C1083 C1091 1.503 . S
C1084 C1083 1.410 . S
C1084 C1085 1.392 . S
C1084 C1087 1.511 . S
C1085 C1081 1.376 . S
C1085 C1084 1.392 . S
C1085 H1097 0.929 . S
C1086 C1082 1.531 . S
C1086 H1098 0.960 . S
C1086 H1099 0.962 . S
C1086 H1100 0.960 . S
C1087 C1084 1.511 . S
C1087 H1101 0.958 1_565 S
C1087 H1102 0.961 . S
C1087 H1103 0.961 . S
C1088 C1089 1.370 . S
C1088 C1090 1.363 . S
C1088 H1104 0.931 1_565 S
C1089 C1088 1.370 . S
C1089 C1093 1.408 . S
C1090 C1088 1.363 . S
C1090 C1091 1.370 . S
C1090 C1094 1.524 1_565 S
C1091 C1083 1.503 . S
C1091 C1090 1.370 . S
C1091 C1092 1.403 . S
C1092 C1091 1.403 . S
C1092 C1093 1.404 . S
C1092 C1095 1.539 . S
C1093 C1089 1.408 . S
C1093 C1092 1.404 . S
C1093 H1105 0.930 . S
C1094 C1090 1.524 1_545 S
C1094 H1106 0.956 . S
C1094 H1107 0.961 . S
C1094 H1108 0.961 . S
C1095 C1092 1.539 . S
C1095 H1109 0.958 . S
C1095 H1110 0.961 . S
C1095 H1111 0.960 . S
H1096 C1080 0.931 . S
H1097 C1085 0.929 . S
H1098 C1086 0.960 . S
H1099 C1086 0.962 . S
H1100 C1086 0.960 . S
H1101 C1087 0.958 1_545 S
H1102 C1087 0.961 . S
H1103 C1087 0.961 . S
H1104 C1088 0.931 1_545 S
H1105 C1093 0.930 . S
H1106 C1094 0.956 . S
H1107 C1094 0.961 . S
H1108 C1094 0.961 . S
H1109 C1095 0.958 . S
H1110 C1095 0.961 . S
H1111 C1095 0.960 . S
C1112 C1113 1.391 . S
C1112 C1114 1.394 . S
C1112 H1128 0.931 . S
C1113 C1112 1.391 . S
C1113 C1117 1.376 . S
C1114 C1112 1.394 . S
C1114 C1115 1.369 . S
C1114 C1118 1.531 . S
C1115 C1114 1.369 . S
C1115 C1116 1.410 . S
C1115 C1123 1.503 . S
C1116 C1115 1.410 . S
C1116 C1117 1.392 . S
C1116 C1119 1.511 . S
C1117 C1113 1.376 . S
C1117 C1116 1.392 . S
C1117 H1129 0.929 . S
C1118 C1114 1.531 . S
C1118 H1130 0.960 . S
C1118 H1131 0.962 . S
C1118 H1132 0.960 . S
C1119 C1116 1.511 . S
C1119 H1133 0.961 . S
C1119 H1134 0.961 . S
C1119 H1135 0.961 . S
C1120 C1121 1.370 . S
C1120 C1122 1.363 . S
C1120 H1136 0.931 . S
C1121 C1120 1.370 . S
C1121 C1125 1.408 . S
C1122 C1120 1.363 . S
C1122 C1123 1.370 . S
C1122 C1126 1.524 . S
C1123 C1115 1.503 . S
C1123 C1122 1.370 . S
C1123 C1124 1.403 . S
C1124 C1123 1.403 . S
C1124 C1125 1.404 . S
C1124 C1127 1.539 . S
C1125 C1121 1.408 . S
C1125 C1124 1.404 . S
C1125 H1137 0.930 . S
C1126 C1122 1.524 . S
C1126 H1138 0.956 . S
C1126 H1139 0.961 . S
C1126 H1140 0.961 . S
C1127 C1124 1.539 . S
C1127 H1141 0.958 . S
C1127 H1142 0.961 . S
C1127 H1143 0.960 . S
H1128 C1112 0.931 . S
H1129 C1117 0.929 . S
H1130 C1118 0.960 . S
H1131 C1118 0.962 . S
H1132 C1118 0.960 . S
H1133 C1119 0.961 . S
H1134 C1119 0.961 . S
H1135 C1119 0.961 . S
H1136 C1120 0.931 . S
H1137 C1125 0.930 . S
H1138 C1126 0.956 . S
H1139 C1126 0.961 . S
H1140 C1126 0.961 . S
H1141 C1127 0.958 . S
H1142 C1127 0.961 . S
H1143 C1127 0.960 . S
C1144 C1145 1.391 . S
C1144 C1146 1.394 . S
C1144 H1160 0.931 . S
C1145 C1144 1.391 . S
C1145 C1149 1.376 . S
C1146 C1144 1.394 . S
C1146 C1147 1.369 . S
C1146 C1150 1.531 . S
C1147 C1146 1.369 . S
C1147 C1148 1.410 . S
C1147 C1155 1.503 . S
C1148 C1147 1.410 . S
C1148 C1149 1.392 . S
C1148 C1151 1.511 . S
C1149 C1145 1.376 . S
C1149 C1148 1.392 . S
C1149 H1161 0.929 . S
C1150 C1146 1.531 . S
C1150 H1162 0.960 . S
C1150 H1163 0.962 . S
C1150 H1164 0.960 . S
C1151 C1148 1.511 . S
C1151 H1165 0.961 . S
C1151 H1166 0.961 . S
C1151 H1167 0.961 . S
C1152 C1153 1.370 . S
C1152 C1154 1.363 . S
C1152 H1168 0.931 . S
C1153 C1152 1.370 . S
C1153 C1157 1.408 . S
C1154 C1152 1.363 . S
C1154 C1155 1.370 . S
C1154 C1158 1.524 . S
C1155 C1147 1.503 . S
C1155 C1154 1.370 . S
C1155 C1156 1.403 . S
C1156 C1155 1.403 . S
C1156 C1157 1.404 . S
C1156 C1159 1.539 . S
C1157 C1153 1.408 . S
C1157 C1156 1.404 . S
C1157 H1169 0.930 . S
C1158 C1154 1.524 . S
C1158 H1170 0.956 . S
C1158 H1171 0.961 . S
C1158 H1172 0.961 . S
C1159 C1156 1.539 . S
C1159 H1173 0.958 . S
C1159 H1174 0.961 . S
C1159 H1175 0.960 . S
H1160 C1144 0.931 . S
H1161 C1149 0.929 . S
H1162 C1150 0.960 . S
H1163 C1150 0.962 . S
H1164 C1150 0.960 . S
H1165 C1151 0.961 . S
H1166 C1151 0.961 . S
H1167 C1151 0.961 . S
H1168 C1152 0.931 . S
H1169 C1157 0.930 . S
H1170 C1158 0.956 . S
H1171 C1158 0.961 . S
H1172 C1158 0.961 . S
H1173 C1159 0.958 . S
H1174 C1159 0.961 . S
H1175 C1159 0.960 . S
C409 C61 1.810 . S
C417 C146 1.895 . S
C449 C230 1.924 . S
C441 C70 1.847 . S
C481 C296 1.865 . S
C473 C43 1.963 . S
C513 C380 1.882 . S
C505 C52 1.891 . S
C545 C135 1.908 1_565 S
C537 C25 1.814 . S
C569 C34 1.889 . S
C577 C219 1.909 . S
C601 C7 1.954 . S
C609 C307 1.867 . S
C633 C16 1.955 . S
C641 C391 1.852 . S
C673 C142 0.602 . S
C665 C50 0.612 . S
C705 C226 0.572 . S
C697 C59 0.573 . S
C737 C298 0.571 . S
C729 C67 0.553 . S
C761 C41 0.642 . S
C769 C382 0.588 . S
C793 C14 0.663 . S
C801 C130 0.618 . S
C833 C214 0.590 . S
C825 C23 0.627 . S
C865 C310 0.567 1_556 S
C857 C31 0.612 . S
C889 C5 0.614 . S
C897 C394 0.565 . S
C921 C49 2.015 . S
C929 C139 2.067 . S
C953 C58 1.965 . S
C961 C223 2.049 . S
C993 C303 2.036 . S
C985 C68 1.864 . S
C1025 C387 2.058 . S
C1017 C40 1.884 . S
C1049 C13 2.006 . S
C1057 C128 2.069 . S
C1089 C212 2.042 . S
C1081 C22 1.977 . S
C1121 C314 2.022 . S
C1113 C32 1.861 . S
C1145 C4 1.848 . S
C1153 C398 2.042 . S
