# Generated by pormake.
# Topology pyr, (3,6)-cn, num edge types: 1
# Building blocks:
#     Node 0, Type 0, BuildingBlock: PAMTOO_clean_linker_0, # of connection points: 3
#     Node 1, Type 0, BuildingBlock: PAMTOO_clean_linker_0, # of connection points: 3
#     Node 2, Type 0, BuildingBlock: PAMTOO_clean_linker_0, # of connection points: 3
#     Node 3, Type 0, BuildingBlock: PAMTOO_clean_linker_0, # of connection points: 3
#     Node 4, Type 0, BuildingBlock: PAMTOO_clean_linker_0, # of connection points: 3
#     Node 5, Type 0, BuildingBlock: PAMTOO_clean_linker_0, # of connection points: 3
#     Node 6, Type 0, BuildingBlock: PAMTOO_clean_linker_0, # of connection points: 3
#     Node 7, Type 0, BuildingBlock: PAMTOO_clean_linker_0, # of connection points: 3
#     Node 8, Type 1, BuildingBlock: FUNLAD_clean_sbu_0, # of connection points: 6
#     Node 9, Type 1, BuildingBlock: FUNLAD_clean_sbu_0, # of connection points: 6
#     Node 10, Type 1, BuildingBlock: FUNLAD_clean_sbu_0, # of connection points: 6
#     Node 11, Type 1, BuildingBlock: FUNLAD_clean_sbu_0, # of connection points: 6
#     Edge 12, Type (0, 1), BuildingBlock: XUDNAN_clean_linker_2, # of connection points: 2
#     Edge 13, Type (0, 1), BuildingBlock: XUDNAN_clean_linker_2, # of connection points: 2
#     Edge 14, Type (0, 1), BuildingBlock: XUDNAN_clean_linker_2, # of connection points: 2
#     Edge 15, Type (0, 1), BuildingBlock: XUDNAN_clean_linker_2, # of connection points: 2
#     Edge 16, Type (0, 1), BuildingBlock: XUDNAN_clean_linker_2, # of connection points: 2
#     Edge 17, Type (0, 1), BuildingBlock: XUDNAN_clean_linker_2, # of connection points: 2
#     Edge 18, Type (0, 1), BuildingBlock: XUDNAN_clean_linker_2, # of connection points: 2
#     Edge 19, Type (0, 1), BuildingBlock: XUDNAN_clean_linker_2, # of connection points: 2
#     Edge 20, Type (0, 1), BuildingBlock: XUDNAN_clean_linker_2, # of connection points: 2
#     Edge 21, Type (0, 1), BuildingBlock: XUDNAN_clean_linker_2, # of connection points: 2
#     Edge 22, Type (0, 1), BuildingBlock: XUDNAN_clean_linker_2, # of connection points: 2
#     Edge 23, Type (0, 1), BuildingBlock: XUDNAN_clean_linker_2, # of connection points: 2
#     Edge 24, Type (0, 1), BuildingBlock: XUDNAN_clean_linker_2, # of connection points: 2
#     Edge 25, Type (0, 1), BuildingBlock: XUDNAN_clean_linker_2, # of connection points: 2
#     Edge 26, Type (0, 1), BuildingBlock: XUDNAN_clean_linker_2, # of connection points: 2
#     Edge 27, Type (0, 1), BuildingBlock: XUDNAN_clean_linker_2, # of connection points: 2
#     Edge 28, Type (0, 1), BuildingBlock: XUDNAN_clean_linker_2, # of connection points: 2
#     Edge 29, Type (0, 1), BuildingBlock: XUDNAN_clean_linker_2, # of connection points: 2
#     Edge 30, Type (0, 1), BuildingBlock: XUDNAN_clean_linker_2, # of connection points: 2
#     Edge 31, Type (0, 1), BuildingBlock: XUDNAN_clean_linker_2, # of connection points: 2
#     Edge 32, Type (0, 1), BuildingBlock: XUDNAN_clean_linker_2, # of connection points: 2
#     Edge 33, Type (0, 1), BuildingBlock: XUDNAN_clean_linker_2, # of connection points: 2
#     Edge 34, Type (0, 1), BuildingBlock: XUDNAN_clean_linker_2, # of connection points: 2
#     Edge 35, Type (0, 1), BuildingBlock: XUDNAN_clean_linker_2, # of connection points: 2
# Relax obj value: 0.186
# Max RMSD: 0.215
# Mean RMSD: 0.136
data_MOF--net-pry--node1-FUNLAD_clean_sbu_0--node2-PAMTOO_clean_linker_0--edge1-XUDNAN_clean_linker_2
_symmetry_space_group_name_H-M    P1
_symmetry_Int_Tables_number       1
_symmetry_cell_setting            triclinic
loop_
_symmetry_equiv_pos_as_xyz
'x, y, z'
_cell_length_a     34.246845
_cell_length_b     37.883952
_cell_length_c     37.892465
_cell_angle_alpha  90.134982
_cell_angle_beta   91.109339
_cell_angle_gamma 88.893796
loop_
_atom_site_label
_atom_site_type_symbol
_atom_site_fract_x
_atom_site_fract_y
_atom_site_fract_z
_atom_type_partial_charge
H0 H 0.15007 0.23336 0.27597 0.0
H1 H 0.23798 0.15235 0.25857 0.0
H2 H 0.23688 0.24587 0.19549 0.0
H3 H 0.26586 0.18666 0.15472 0.0
C4 C 0.27299 0.16744 0.17614 0.0
O5 O 0.27347 0.18536 0.20826 0.0
H6 H 0.24942 0.14761 0.17594 0.0
C7 C 0.17545 0.22378 0.26199 0.0
C8 C 0.19076 0.24439 0.23404 0.0
C9 C 0.19176 0.19009 0.27109 0.0
C10 C 0.22434 0.17757 0.25191 0.0
C11 C 0.24045 0.19739 0.22466 0.0
C12 C 0.2236 0.23057 0.21599 0.0
H13 H 0.37636 0.95157 0.74709 0.0
H14 H 0.36715 0.87088 0.66655 0.0
H15 H 0.45149 0.85887 0.75068 0.0
H16 H 0.47513 0.83517 0.6737 0.0
C17 C 0.44667 0.823 0.6669 0.0
O18 O 0.42077 0.82882 0.69421 0.0
H19 H 0.43471 0.83595 0.64258 0.0
C20 C 0.38651 0.92703 0.73541 0.0
C21 C 0.4166 0.90732 0.75297 0.0
C22 C 0.36792 0.91422 0.70411 0.0
C23 C 0.38057 0.88132 0.69038 0.0
C24 C 0.41089 0.86158 0.70681 0.0
C25 C 0.4287 0.87469 0.73786 0.0
H26 H 0.72244 0.41261 0.02707 0.0
H27 H 0.64862 0.45071 0.94111 0.0
H28 H 0.7311 0.51904 0.98985 0.0
H29 H 0.64418 0.56155 0.95153 0.0
C30 C 0.63852 0.53298 0.94785 0.0
O31 O 0.67368 0.51498 0.94394 0.0
H32 H 0.62272 0.52393 0.97154 0.0
C33 C 0.712 0.43329 1.00945 0.0
C34 C 0.73106 0.46577 1.01016 0.0
C35 C 0.68111 0.42734 0.98506 0.0
C36 C 0.66981 0.45499 0.96203 0.0
C37 C 0.68605 0.48844 0.96535 0.0
C38 C 0.7169 0.49371 0.98911 0.0
H39 H 0.88602 0.66573 0.52267 0.0
H40 H 0.90452 0.55391 0.50927 0.0
H41 H 1.00221 0.62335 0.50839 0.0
H42 H 0.95102 0.52669 0.46596 0.0
C43 C 0.9799 0.53912 0.47015 0.0
O44 O 0.98025 0.55774 0.50161 0.0
H45 H 1.00149 0.51696 0.47268 0.0
C46 C 0.90558 0.64327 0.51866 0.0
C47 C 0.94594 0.64845 0.51695 0.0
C48 C 0.89029 0.60934 0.5154 0.0
C49 C 0.9159 0.58031 0.51167 0.0
C50 C 0.95606 0.58552 0.50806 0.0
C51 C 0.97104 0.6196 0.51044 0.0
H52 H 0.89071 0.94562 0.83903 0.0
H53 H 0.89546 0.87694 0.92998 0.0
H54 H 0.97627 0.86078 0.84598 0.0
H55 H 0.93285 0.79313 0.88649 0.0
C56 C 0.93931 0.80451 0.913 0.0
O57 O 0.95503 0.83802 0.90896 0.0
H58 H 0.91102 0.8073 0.92675 0.0
C59 C 0.90406 0.92377 0.85348 0.0
C60 C 0.93586 0.90527 0.83819 0.0
C61 C 0.88836 0.91366 0.88637 0.0
C62 C 0.90581 0.88444 0.90429 0.0
C63 C 0.93717 0.86492 0.88982 0.0
C64 C 0.9517 0.87537 0.8567 0.0
H65 H 0.77145 0.12164 0.33845 0.0
H66 H 0.67375 0.19345 0.31847 0.0
H67 H 0.74437 0.20579 0.41155 0.0
H68 H 0.65085 0.21111 0.41001 0.0
C69 C 0.65282 0.23461 0.39256 0.0
O70 O 0.68757 0.23343 0.37425 0.0
H71 H 0.62807 0.23334 0.37323 0.0
C72 C 0.75299 0.14362 0.34644 0.0
C73 C 0.76277 0.16219 0.37787 0.0
C74 C 0.72052 0.15415 0.3245 0.0
C75 C 0.69841 0.18441 0.33455 0.0
C76 C 0.70732 0.20296 0.36584 0.0
C77 C 0.73866 0.19131 0.3874 0.0
H78 H 0.42829 0.65556 0.06676 0.0
H79 H 0.43961 0.56807 0.13817 0.0
H80 H 0.54238 0.61693 0.09999 0.0
H81 H 0.55161 0.52785 0.13827 0.0
C82 C 0.52098 0.53498 0.14485 0.0
O83 O 0.51605 0.57114 0.14374 0.0
H84 H 0.50135 0.52154 0.12548 0.0
C85 C 0.44671 0.6362 0.08045 0.0
C86 C 0.48757 0.63902 0.08012 0.0
C87 C 0.42934 0.61006 0.10061 0.0
C88 C 0.45289 0.58686 0.12079 0.0
C89 C 0.49366 0.58902 0.11996 0.0
C90 C 0.5109 0.61445 0.09903 0.0
H91 H 0.14983 0.40002 0.68953 0.0
H92 H 0.15945 0.51314 0.69526 0.0
H93 H 0.17331 0.4593 0.5962 0.0
H94 H 0.20533 0.55145 0.66005 0.0
C95 C 0.20403 0.54139 0.63246 0.0
O96 O 0.17121 0.52111 0.62767 0.0
H97 H 0.20083 0.56508 0.61534 0.0
C98 C 0.15471 0.42529 0.67712 0.0
C99 C 0.16124 0.42623 0.64087 0.0
C100 C 0.15503 0.45622 0.69744 0.0
C101 C 0.15936 0.48875 0.6803 0.0
C102 C 0.16613 0.48983 0.64387 0.0
C103 C 0.16768 0.45846 0.62422 0.0
C104 C 0.09443 0.0618 0.48321 0.0
N105 N 0.08143 0.11285 0.58153 0.0
C106 C 0.11798 0.12181 0.57191 0.0
C107 C 0.13222 0.15503 0.57925 0.0
C108 C 0.1091 0.17975 0.59732 0.0
C109 C 0.0716 0.1698 0.60782 0.0
C110 C 0.05816 0.13593 0.59946 0.0
Zn111 Zn 0.06545 0.0648 0.56194 0.0
C112 C 0.99011 0.06837 0.52154 0.0
N113 N 0.04368 0.96537 0.51482 0.0
C114 C 0.07154 0.94111 0.50553 0.0
C115 C 1.00602 0.9559 0.51945 0.0
C116 C 0.99583 0.92059 0.51794 0.0
C117 C 0.02468 0.8947 0.51187 0.0
C118 C 0.06253 0.90521 0.50379 0.0
Zn119 Zn 0.05767 1.01393 0.5344 0.0
O120 O 0.08993 0.08162 0.51018 0.0
C121 C 0.13425 1.01343 0.57486 0.0
O122 O 0.0846 0.02961 0.48579 0.0
H123 H 0.98445 0.97527 0.52761 0.0
H124 H 0.13603 0.10354 0.55721 0.0
H125 H 0.10139 0.94915 0.5023 0.0
O126 O 0.12059 0.0443 0.58006 0.0
O127 O 0.11414 0.99245 0.5558 0.0
H128 H 0.02903 0.12842 0.60654 0.0
O129 O 0.03122 0.99798 0.58327 0.0
O130 O 0.03996 0.04654 0.61326 0.0
O131 O 1.00167 0.03725 0.51312 0.0
O132 O 1.01064 0.08556 0.54379 0.0
C133 C 0.02832 1.01459 0.61241 0.0
H134 H 0.16074 0.16153 0.56959 0.0
H135 H 0.05279 0.18797 0.62199 0.0
H136 H 0.96628 0.91337 0.52414 0.0
H137 H 0.08551 0.8858 0.49914 0.0
C138 C 0.64859 1.01095 1.00183 0.0
N139 N 0.58554 0.10882 1.0046 0.0
C140 C 0.62238 0.1211 1.00153 0.0
C141 C 0.62848 0.15612 0.99232 0.0
C142 C 0.59647 0.17966 0.98789 0.0
C143 C 0.55867 0.16599 0.99061 0.0
C144 C 0.55388 0.13031 0.99839 0.0
Zn145 Zn 0.57874 0.05846 1.02318 0.0
C146 C 0.5363 1.00963 0.97361 0.0
N147 N 0.56993 0.95498 0.06393 0.0
C148 C 0.60091 0.93279 0.0707 0.0
C149 C 0.53312 0.94255 0.05977 0.0
C150 C 0.52683 0.90644 0.059 0.0
C151 C 0.55866 0.8829 0.06274 0.0
C152 C 0.59582 0.89622 0.07041 0.0
Zn153 Zn 0.57747 1.00533 0.04713 0.0
O154 O 0.63311 0.04167 0.99877 0.0
C155 C 0.61931 0.05113 0.09781 0.0
O156 O 0.63146 0.98862 1.02091 0.0
H157 H 0.50897 0.9605 0.0539 0.0
H158 H 0.64737 0.10408 1.0071 0.0
H159 H 0.62996 0.94324 0.07363 0.0
O160 O 0.61068 0.07332 0.07327 0.0
O161 O 0.60973 0.0191 0.09329 0.0
H162 H 0.52475 0.12022 1.00064 0.0
O163 O 0.52388 0.02304 0.07379 0.0
O164 O 0.5246 0.07453 0.04802 0.0
O165 O 0.54527 0.99125 1.00065 0.0
O166 O 0.54627 0.042 0.97378 0.0
C167 C 0.50846 0.0537 0.06932 0.0
H168 H 0.65824 0.1645 0.98941 0.0
H169 H 0.53279 0.18266 0.98807 0.0
H170 H 0.49766 0.89698 0.05354 0.0
H171 H 0.62098 0.87866 0.07353 0.0
C172 C 0.56875 0.45043 0.52393 0.0
N173 N 0.573 0.49577 0.62576 0.0
C174 C 0.55423 0.47043 0.64387 0.0
C175 C 0.55852 0.46807 0.68046 0.0
C176 C 0.58382 0.49094 0.69872 0.0
C177 C 0.60605 0.51415 0.67859 0.0
C178 C 0.5994 0.51681 0.64228 0.0
Zn179 Zn 0.55475 0.50783 0.57533 0.0
C180 C 0.61595 0.5427 0.53377 0.0
N181 N 0.51272 0.53676 0.47288 0.0
C182 C 0.4908 0.51113 0.45754 0.0
C183 C 0.52509 0.56473 0.45392 0.0
C184 C 0.51691 0.56667 0.41761 0.0
C185 C 0.49563 0.5397 0.40102 0.0
C186 C 0.48168 0.51222 0.42166 0.0
Zn187 Zn 0.53211 0.52625 0.52311 0.0
O188 O 0.57319 0.45727 0.55664 0.0
C189 C 0.46997 0.49305 0.56482 0.0
O190 O 0.55183 0.47361 0.50425 0.0
H191 H 0.5428 0.58463 0.46655 0.0
H192 H 0.53399 0.45327 0.63037 0.0
H193 H 0.48211 0.48857 0.47269 0.0
O194 O 0.49824 0.48901 0.58662 0.0
O195 O 0.47613 0.50741 0.53532 0.0
H196 H 0.61407 0.53696 0.62773 0.0
O197 O 0.51379 0.57858 0.54315 0.0
O198 O 0.53665 0.55886 0.59394 0.0
O199 O 0.58772 0.54609 0.51171 0.0
O200 O 0.61053 0.52725 0.56294 0.0
C201 C 0.52017 0.58362 0.57612 0.0
H202 H 0.54039 0.44966 0.69404 0.0
H203 H 0.62746 0.53125 0.6906 0.0
H204 H 0.52806 0.5884 0.40253 0.0
H205 H 0.46588 0.49053 0.40988 0.0
C206 C 0.05061 0.60108 0.05386 0.0
N207 N 0.05148 0.57283 0.16321 0.0
C208 C 0.06092 0.60616 0.17341 0.0
C209 C 0.05388 0.61754 0.20797 0.0
C210 C 0.0375 0.59408 0.23183 0.0
C211 C 0.0272 0.56035 0.22036 0.0
C212 C 0.03427 0.55027 0.18577 0.0
Zn213 Zn 0.06587 0.55224 0.1153 0.0
C214 C 0.99974 0.51287 0.08346 0.0
N215 N 0.09761 0.50335 1.01925 0.0
C216 C 0.11663 0.52484 0.99688 0.0
C217 C 0.08736 0.47014 1.00954 0.0
C218 C 0.09564 0.45765 0.97571 0.0
C219 C 0.114 0.47988 0.95184 0.0
C220 C 0.12489 0.51367 0.96282 0.0
Zn221 Zn 0.08267 0.52401 0.06666 0.0
O222 O 0.04519 0.60074 0.08713 0.0
C223 C 0.14883 0.5634 0.09906 0.0
O224 O 0.0659 0.57356 0.03991 0.0
H225 H 0.07216 0.45361 0.02779 0.0
H226 H 0.07475 0.62356 0.15504 0.0
H227 H 0.12486 0.551 1.00525 0.0
O228 O 0.12251 0.5732 0.12033 0.0
O229 O 0.14037 0.54208 0.07428 0.0
H230 H 0.02689 0.52395 0.17721 0.0
O231 O 0.09955 0.47466 0.09357 0.0
O232 O 0.08662 0.50315 0.14227 0.0
O233 O 0.02453 0.50609 0.05971 0.0
O234 O 1.00967 0.53127 0.11003 0.0
C235 C 0.09835 0.47476 0.12717 0.0
H236 H 0.06209 0.6438 0.21625 0.0
H237 H 1.0143 0.54177 0.23823 0.0
H238 H 0.08685 0.43139 0.96795 0.0
H239 H 0.1396 0.53129 0.94519 0.0
H240 H 0.16662 0.20691 0.33999 0.0
H241 H 0.17819 0.11934 0.26668 0.0
H242 H 0.15551 0.07864 0.31211 0.0
H243 H 0.19961 0.15886 0.41779 0.0
H244 H 0.16554 0.17973 0.44731 0.0
H245 H 0.18148 0.20301 0.40891 0.0
H246 H 0.10967 0.21259 0.38826 0.0
H247 H 0.09352 0.18951 0.42671 0.0
H248 H 0.07847 0.17504 0.38328 0.0
H249 H 0.13282 0.04615 0.36564 0.0
H250 H 0.11039 0.02461 0.42293 0.0
H251 H 0.11259 0.1315 0.46436 0.0
C252 C 0.16395 0.17924 0.33337 0.0
C253 C 0.17469 0.16664 0.29928 0.0
C254 C 0.17088 0.12998 0.29232 0.0
C255 C 0.1578 0.10648 0.31809 0.0
C256 C 0.14829 0.1195 0.35137 0.0
C257 C 0.15098 0.15504 0.35919 0.0
C258 C 0.13926 0.1616 0.39752 0.0
C259 C 0.17352 0.1767 0.41916 0.0
C260 C 0.10308 0.18615 0.39902 0.0
C261 C 0.12977 0.12429 0.40986 0.0
C262 C 0.13519 0.10054 0.38259 0.0
C263 C 0.12846 0.06461 0.38711 0.0
C264 C 0.11568 0.05253 0.42002 0.0
C265 C 0.10957 0.076 0.44874 0.0
C266 C 0.11698 0.11257 0.44329 0.0
H267 H 0.442 0.97418 0.77624 0.0
H268 H 0.42822 0.86619 0.81126 0.0
H269 H 0.45519 0.8819 0.86966 0.0
H270 H 0.53417 0.98842 0.82328 0.0
H271 H 0.52328 0.03362 0.83507 0.0
H272 H 0.50174 1.01489 0.79567 0.0
H273 H 0.43287 0.03166 0.81778 0.0
H274 H 0.45421 0.05041 0.85728 0.0
H275 H 0.41808 1.01666 0.86053 0.0
H276 H 0.48295 0.90785 0.92421 0.0
H277 H 0.51295 0.94168 0.97201 0.0
H278 H 0.51284 0.03486 0.90516 0.0
C279 C 0.44452 0.95392 0.79629 0.0
C280 C 0.43301 0.91862 0.78861 0.0
C281 C 0.43717 0.8931 0.81582 0.0
C282 C 0.45231 0.90187 0.84936 0.0
C283 C 0.46363 0.93648 0.85593 0.0
C284 C 0.46022 0.96222 0.83029 0.0
C285 C 0.47585 0.99718 0.84481 0.0
C286 C 0.51084 1.00924 0.82343 0.0
C287 C 0.44331 0.02567 0.84511 0.0
C288 C 0.48855 0.98688 0.88248 0.0
C289 C 0.48074 0.95167 0.88798 0.0
C290 C 0.48926 0.93541 0.92014 0.0
C291 C 0.50649 0.95519 0.94736 0.0
C292 C 0.51576 0.99136 0.94301 0.0
C293 C 0.5063 1.00744 0.90979 0.0
H294 H 0.6369 0.572 0.8872 0.0
H295 H 0.58795 0.47916 0.9344 0.0
H296 H 0.56561 0.45882 0.87547 0.0
H297 H 0.55572 0.58274 0.81735 0.0
H298 H 0.58989 0.5989 0.7859 0.0
H299 H 0.5971 0.60782 0.83229 0.0
H300 H 0.66669 0.5801 0.82899 0.0
H301 H 0.65933 0.56999 0.783 0.0
H302 H 0.67272 0.53527 0.81361 0.0
H303 H 0.56314 0.44286 0.81101 0.0
H304 H 0.56579 0.43827 0.74659 0.0
H305 H 0.60512 0.54685 0.74206 0.0
C306 C 0.61991 0.54824 0.88521 0.0
C307 C 0.6144 0.52687 0.91503 0.0
C308 C 0.59273 0.49559 0.91162 0.0
C309 C 0.57993 0.48391 0.87834 0.0
C310 C 0.58778 0.50461 0.84908 0.0
C311 C 0.60575 0.53687 0.85236 0.0
C312 C 0.61165 0.55354 0.81668 0.0
C313 C 0.58711 0.58777 0.81283 0.0
C314 C 0.65518 0.56009 0.81022 0.0
C315 C 0.59619 0.52475 0.79282 0.0
C316 C 0.5829 0.49664 0.81194 0.0
C317 C 0.57178 0.46535 0.79564 0.0
C318 C 0.57328 0.46313 0.75875 0.0
C319 C 0.5849 0.49237 0.73824 0.0
C320 C 0.59636 0.52357 0.75605 0.0
H321 H 0.04523 0.53655 0.42929 0.0
H322 H 0.93289 0.59005 0.43813 0.0
H323 H 0.94394 0.62149 0.38254 0.0
H324 H 0.0978 0.60781 0.37989 0.0
H325 H 0.12152 0.57539 0.35229 0.0
H326 H 0.11012 0.56465 0.39723 0.0
H327 H 0.0716 0.51031 0.37526 0.0
H328 H 0.08297 0.52081 0.33051 0.0
H329 H 0.03274 0.51646 0.34293 0.0
H330 H 0.96138 0.63914 0.32174 0.0
H331 H 0.98089 0.63687 0.25912 0.0
H332 H 0.07941 0.56892 0.28761 0.0
C333 C 0.02372 0.55593 0.42013 0.0
C334 C 0.98888 0.56182 0.43866 0.0
C335 C 0.96049 0.58615 0.42513 0.0
C336 C 0.9665 0.60411 0.39347 0.0
C337 C 1.0008 0.5971 0.37533 0.0
C338 C 0.02889 0.57339 0.38811 0.0
C339 C 0.05966 0.56567 0.36087 0.0
C340 C 0.09964 0.5792 0.37332 0.0
C341 C 0.06182 0.52599 0.35187 0.0
C342 C 0.04343 0.58724 0.3302 0.0
C343 C 1.01017 0.60613 0.33938 0.0
C344 C 0.98791 0.6252 0.31444 0.0
C345 C 0.99917 0.62391 0.27903 0.0
C346 C 0.03195 0.60332 0.26911 0.0
C347 C 0.05489 0.58565 0.29505 0.0
H348 H 0.32798 0.18194 0.12491 0.0
H349 H 0.30456 0.10831 0.20881 0.0
H350 H 0.36186 0.07168 0.19129 0.0
H351 H 0.3565 0.11866 0.0609 0.0
H352 H 0.3947 0.14457 0.04251 0.0
H353 H 0.35364 0.16619 0.06296 0.0
H354 H 0.40037 0.19957 0.10525 0.0
H355 H 0.44162 0.17835 0.08464 0.0
H356 H 0.43571 0.17496 0.13167 0.0
H357 H 0.41941 0.04044 0.1612 0.0
H358 H 0.47482 0.02012 0.12504 0.0
H359 H 0.46251 0.11474 0.06119 0.0
C360 C 0.33541 0.15849 0.14008 0.0
C361 C 0.31176 0.14819 0.16858 0.0
C362 C 0.32232 0.11698 0.18726 0.0
C363 C 0.35475 0.0959 0.17728 0.0
C364 C 0.37683 0.10632 0.14857 0.0
C365 C 0.3679 0.1372 0.13053 0.0
C366 C 0.39598 0.14216 0.10027 0.0
C367 C 0.37388 0.14294 0.06455 0.0
C368 C 0.41983 0.17576 0.1058 0.0
C369 C 0.42182 0.10911 0.10375 0.0
C370 C 0.41017 0.08871 0.13171 0.0
C371 C 0.42886 0.05647 0.13948 0.0
C372 C 0.46035 0.04501 0.11858 0.0
C373 C 0.47346 0.06565 0.09009 0.0
C374 C 0.45358 0.09821 0.08275 0.0
H375 H 0.30091 0.8895 0.6694 0.0
H376 H 0.36078 0.9863 0.69615 0.0
H377 H 0.30894 0.02066 0.66504 0.0
H378 H 0.26867 0.91639 0.58141 0.0
H379 H 0.2221 0.89522 0.58377 0.0
H380 H 0.26358 0.87774 0.60848 0.0
H381 H 0.22451 0.88238 0.66613 0.0
H382 H 0.18287 0.89975 0.64159 0.0
H383 H 0.20266 0.92419 0.67845 0.0
H384 H 0.25099 0.04502 0.63113 0.0
H385 H 0.18989 0.05823 0.59836 0.0
H386 H 0.16621 0.94623 0.59111 0.0
C387 C 0.30343 0.91792 0.66854 0.0
C388 C 0.33543 0.93498 0.6856 0.0
C389 C 0.33668 0.97235 0.68404 0.0
C390 C 0.3074 0.99218 0.66607 0.0
C391 C 0.27666 0.97453 0.6495 0.0
C392 C 0.27433 0.93824 0.65059 0.0
C393 C 0.23775 0.92602 0.63073 0.0
C394 C 0.24869 0.90244 0.59923 0.0
C395 C 0.21033 0.90696 0.65572 0.0
C396 C 0.21987 0.96114 0.61833 0.0
C397 C 0.24304 0.98867 0.62954 0.0
C398 C 0.23273 0.02364 0.6222 0.0
C399 C 0.19776 0.03085 0.60346 0.0
C400 C 0.1729 1.00339 0.59183 0.0
C401 C 0.18456 0.96789 0.59913 0.0
H402 H 0.80068 0.47635 0.98046 0.0
H403 H 0.74607 0.46224 0.08148 0.0
H404 H 0.81043 0.46969 0.11186 0.0
H405 H 0.89112 0.42852 1.00295 0.0
H406 H 0.92069 0.45764 0.97763 0.0
H407 H 0.87067 0.45031 0.9644 0.0
H408 H 0.85636 0.51775 0.9663 0.0
H409 H 0.90629 0.52528 0.97943 0.0
H410 H 0.86709 0.54203 1.00618 0.0
H411 H 0.8798 0.4838 0.13057 0.0
H412 H 0.94932 0.49976 0.13648 0.0
H413 H 0.9586 0.50028 1.02249 0.0
C414 C 0.80244 0.47478 1.00899 0.0
C415 C 0.76881 0.46918 0.02891 0.0
C416 C 0.77181 0.46671 0.06605 0.0
C417 C 0.8081 0.47086 0.08336 0.0
C418 C 0.84083 0.47669 0.0629 0.0
C419 C 0.83833 0.47819 0.02649 0.0
C420 C 0.8776 0.48485 1.01046 0.0
C421 C 0.89079 0.45345 0.98751 0.0
C422 C 0.87677 0.51954 0.98936 0.0
C423 C 0.90261 0.48773 0.04357 0.0
C424 C 0.8809 0.48305 0.07356 0.0
C425 C 0.89719 0.48693 0.10728 0.0
C426 C 0.9366 0.49608 0.11036 0.0
C427 C 0.95925 0.50081 0.07991 0.0
C428 C 0.94212 0.49608 0.04617 0.0
H429 H 0.84689 0.56401 0.55428 0.0
H430 H 0.83779 0.64395 0.47266 0.0
H431 H 0.76647 0.6354 0.46816 0.0
H432 H 0.7747 0.50589 0.51847 0.0
H433 H 0.75538 0.49448 0.56077 0.0
H434 H 0.80572 0.50674 0.55744 0.0
H435 H 0.79514 0.55589 0.60418 0.0
H436 H 0.74478 0.54374 0.60771 0.0
H437 H 0.75682 0.58857 0.59721 0.0
H438 H 0.69692 0.61655 0.47093 0.0
H439 H 0.6326 0.59166 0.48372 0.0
H440 H 0.6864 0.52599 0.56562 0.0
C441 C 0.82976 0.57963 0.53549 0.0
C442 C 0.84758 0.60462 0.51379 0.0
C443 C 0.82443 0.62488 0.48968 0.0
C444 C 0.78404 0.62009 0.48684 0.0
C445 C 0.7673 0.5952 0.50856 0.0
C446 C 0.7893 0.57555 0.53269 0.0
C447 C 0.76389 0.55112 0.55344 0.0
C448 C 0.77563 0.51226 0.54714 0.0
C449 C 0.76524 0.5604 0.59298 0.0
C450 C 0.72425 0.55991 0.537 0.0
C451 C 0.72692 0.58519 0.51098 0.0
C452 C 0.69438 0.59692 0.49141 0.0
C453 C 0.65803 0.58255 0.49878 0.0
C454 C 0.65453 0.55705 0.52575 0.0
C455 C 0.68814 0.54567 0.54505 0.0
H456 H 0.18372 0.27656 0.16734 0.0
H457 H 0.1585 0.29546 0.2777 0.0
H458 H 0.1322 0.35468 0.26238 0.0
H459 H 0.21452 0.36505 0.14761 0.0
H460 H 0.19276 0.36581 0.10391 0.0
H461 H 0.20887 0.32449 0.12322 0.0
H462 H 0.13981 0.29936 0.11336 0.0
H463 H 0.1235 0.34061 0.094 0.0
H464 H 0.09813 0.32272 0.13095 0.0
H465 H 0.1099 0.41372 0.23515 0.0
H466 H 0.09199 0.46565 0.19869 0.0
H467 H 0.13104 0.40983 0.10529 0.0
C468 C 0.17288 0.29307 0.18848 0.0
C469 C 0.17343 0.28052 0.22404 0.0
C470 C 0.15817 0.3035 0.2503 0.0
C471 C 0.14332 0.33758 0.24183 0.0
C472 C 0.1435 0.34899 0.20675 0.0
C473 C 0.15775 0.32732 0.18043 0.0
C474 C 0.15448 0.34607 0.14475 0.0
C475 C 0.19507 0.35062 0.12894 0.0
C476 C 0.12737 0.32599 0.11926 0.0
C477 C 0.13637 0.38171 0.15508 0.0
C478 C 0.13038 0.38279 0.19105 0.0
C479 C 0.11444 0.41294 0.20698 0.0
C480 C 0.10435 0.44254 0.18588 0.0
C481 C 0.10986 0.4424 0.14881 0.0
C482 C 0.12619 0.41118 0.13341 0.0
H483 H 0.71112 0.3607 1.00252 0.0
H484 H 0.60531 0.41391 0.96291 0.0
H485 H 0.57422 0.35657 0.95553 0.0
H486 H 0.70701 0.28258 0.95126 0.0
H487 H 0.72221 0.25375 0.98693 0.0
H488 H 0.73788 0.29885 0.98653 0.0
H489 H 0.70886 0.30918 0.04849 0.0
H490 H 0.69364 0.26398 0.0493 0.0
H491 H 0.65838 0.29923 0.05573 0.0
H492 H 0.55556 0.29267 0.94968 0.0
H493 H 0.54715 0.22861 0.95428 0.0
H494 H 0.6601 0.21947 1.00865 0.0
C495 C 0.68125 0.36083 0.99279 0.0
C496 C 0.6614 0.39245 0.98257 0.0
C497 C 0.62222 0.3904 0.96964 0.0
C498 C 0.60394 0.35782 0.96563 0.0
C499 C 0.62461 0.32741 0.97562 0.0
C500 C 0.662 0.32872 0.98977 0.0
C501 C 0.67674 0.29246 1.00093 0.0
C502 C 0.71311 0.28127 0.98017 0.0
C503 C 0.68487 0.29114 0.04099 0.0
C504 C 0.64187 0.27055 0.99052 0.0
C505 C 0.61242 0.29106 0.97534 0.0
C506 C 0.5781 0.27639 0.96224 0.0
C507 C 0.57348 0.23982 0.96534 0.0
C508 C 0.60258 0.21827 0.98233 0.0
C509 C 0.63724 0.23432 0.99494 0.0
H510 H 0.98834 0.68999 0.47293 0.0
H511 H 0.93701 0.68656 0.57652 0.0
H512 H 0.95751 0.74768 0.58801 0.0
H513 H 0.07192 0.74725 0.49732 0.0
H514 H 0.06875 0.77134 0.45637 0.0
H515 H 0.05448 0.72581 0.45768 0.0
H516 H 0.98654 0.74336 0.43132 0.0
H517 H 1.00049 0.78889 0.43006 0.0
H518 H 0.9573 0.77659 0.45315 0.0
H519 H 0.97763 0.80936 0.58673 0.0
H520 H 0.9961 0.87014 0.57266 0.0
H521 H 0.03425 0.83584 0.46936 0.0
C522 C 0.98233 0.70204 0.49824 0.0
C523 C 0.96144 0.68382 0.52406 0.0
C524 C 0.9531 0.70032 0.55661 0.0
C525 C 0.96474 0.73486 0.56337 0.0
C526 C 0.98461 0.7525 0.53724 0.0
C527 C 0.99346 0.73682 0.50532 0.0
C528 C 1.01234 0.76291 0.48086 0.0
C529 C 0.05438 0.75112 0.47258 0.0
C530 C 0.98768 0.76825 0.44685 0.0
C531 C 1.01176 0.79583 0.50377 0.0
C532 C 0.99599 0.7889 0.5363 0.0
C533 C 0.99034 0.81512 0.56151 0.0
C534 C 1.00067 0.84953 0.5532 0.0
C535 C 1.01632 0.85751 0.51991 0.0
C536 C 0.0226 0.83023 0.49507 0.0
H537 H 0.44851 0.78726 0.60258 0.0
H538 H 0.46436 0.77043 0.71507 0.0
H539 H 0.48292 0.70796 0.70377 0.0
H540 H 0.40877 0.69992 0.5814 0.0
H541 H 0.43374 0.69638 0.54006 0.0
H542 H 0.41976 0.73919 0.557 0.0
H543 H 0.49142 0.75911 0.55341 0.0
H544 H 0.50567 0.71632 0.53667 0.0
H545 H 0.52948 0.73368 0.57566 0.0
H546 H 0.50277 0.64822 0.68026 0.0
H547 H 0.52104 0.59485 0.64714 0.0
H548 H 0.4923 0.64856 0.54859 0.0
C549 C 0.45514 0.7702 0.62487 0.0
C550 C 0.45399 0.78366 0.65994 0.0
C551 C 0.46409 0.76065 0.68819 0.0
C552 C 0.47486 0.72514 0.68193 0.0
C553 C 0.47571 0.71277 0.64716 0.0
C554 C 0.46594 0.73452 0.61904 0.0
C555 C 0.47034 0.71468 0.58418 0.0
C556 C 0.4308 0.71241 0.5645 0.0
C557 C 0.50105 0.73198 0.56112 0.0
C558 C 0.48441 0.67843 0.59703 0.0
C559 C 0.48726 0.67811 0.6335 0.0
C560 C 0.50041 0.64819 0.65174 0.0
C561 C 0.51086 0.61786 0.63247 0.0
C562 C 0.50821 0.61703 0.59499 0.0
C563 C 0.49457 0.64798 0.57712 0.0
H564 H 0.94847 0.97356 0.81122 0.0
H565 H 0.95846 0.86271 0.78302 0.0
H566 H 0.98201 0.87927 0.72437 0.0
H567 H 0.91624 1.00586 0.72486 0.0
H568 H 0.94422 0.04565 0.72687 0.0
H569 H 0.92786 0.02568 0.76697 0.0
H570 H 0.99896 0.02269 0.79105 0.0
H571 H 1.01554 0.04269 0.75106 0.0
H572 H 0.03614 1.00088 0.76543 0.0
H573 H 1.00217 0.90716 0.66753 0.0
H574 H 0.02202 0.94349 0.61792 0.0
H575 H 1.00342 0.03836 0.68053 0.0
C576 C 0.95554 0.95271 0.79271 0.0
C577 C 0.95141 0.91646 0.80244 0.0
C578 C 0.96156 0.89043 0.77705 0.0
C579 C 0.97483 0.89969 0.74332 0.0
C580 C 0.97847 0.93533 0.7347 0.0
C581 C 0.96952 0.96155 0.75872 0.0
C582 C 0.97707 0.99787 0.7425 0.0
C583 C 0.93908 0.02008 0.74017 0.0
C584 C 1.00881 0.01718 0.76378 0.0
C585 C 0.99139 0.98796 0.70559 0.0
C586 C 0.9915 0.95161 0.70189 0.0
C587 C 1.00238 0.93559 0.67036 0.0
C588 C 1.01361 0.95681 0.64201 0.0
C589 C 1.01466 0.99429 0.64453 0.0
C590 C 1.00331 1.00997 0.67725 0.0
H591 H 0.68833 0.17807 0.25972 0.0
H592 H 0.72627 0.08223 0.31419 0.0
H593 H 0.70746 0.04729 0.262 0.0
H594 H 0.60353 0.14061 0.21676 0.0
H595 H 0.60845 0.16492 0.1763 0.0
H596 H 0.62635 0.18311 0.21737 0.0
H597 H 0.6948 0.18947 0.19068 0.0
H598 H 0.67713 0.17121 0.14955 0.0
H599 H 0.71894 0.15133 0.17189 0.0
H600 H 0.68261 0.02173 0.20474 0.0
H601 H 0.65344 1.0073 0.14682 0.0
H602 H 0.6299 0.11866 0.12738 0.0
C603 C 0.69265 0.14972 0.26088 0.0
C604 C 0.7094 0.13328 0.29165 0.0
C605 C 0.71453 0.09599 0.29122 0.0
C606 C 0.70358 0.0757 0.26158 0.0
C607 C 0.68728 0.0927 0.232 0.0
C608 C 0.68177 0.12888 0.23131 0.0
C609 C 0.6629 0.14028 0.19614 0.0
C610 C 0.62293 0.1583 0.202 0.0
C611 C 0.69007 0.16451 0.17587 0.0
C612 C 0.65843 0.10484 0.17732 0.0
C613 C 0.67282 0.07785 0.19867 0.0
C614 C 0.67141 0.04271 0.18783 0.0
C615 C 0.65464 0.03478 0.15466 0.0
C616 C 0.63928 0.06166 0.132 0.0
C617 C 0.64162 0.09736 0.14364 0.0
H618 H 0.56849 0.54112 0.20277 0.0
H619 H 0.45275 0.50868 0.16999 0.0
H620 H 0.43354 0.50556 0.23253 0.0
H621 H 0.57599 0.48825 0.2855 0.0
H622 H 0.60132 0.52291 0.30855 0.0
H623 H 0.60695 0.51746 0.26167 0.0
H624 H 0.58528 0.5828 0.25258 0.0
H625 H 0.57846 0.58819 0.29926 0.0
H626 H 0.53867 0.59784 0.26876 0.0
H627 H 0.42531 0.51198 0.29807 0.0
H628 H 0.43019 0.52238 0.36242 0.0
H629 H 0.55132 0.55158 0.3519 0.0
C630 C 0.53968 0.5319 0.20896 0.0
C631 C 0.51239 0.52409 0.18185 0.0
C632 C 0.4743 0.51376 0.19058 0.0
C633 C 0.4631 0.51222 0.22594 0.0
C634 C 0.49035 0.5213 0.25206 0.0
C635 C 0.52804 0.53046 0.24403 0.0
C636 C 0.55092 0.54131 0.27672 0.0
C637 C 0.58585 0.51596 0.28351 0.0
C638 C 0.56409 0.57982 0.27415 0.0
C639 C 0.52007 0.53734 0.30435 0.0
C640 C 0.48537 0.52572 0.28965 0.0
C641 C 0.45247 0.52069 0.30994 0.0
C642 C 0.45548 0.52676 0.34639 0.0
C643 C 0.4911 0.53783 0.36211 0.0
C644 C 0.52355 0.54362 0.3406 0.0
H645 H 0.11728 0.50179 0.74308 0.0
H646 H 0.18815 0.40544 0.74045 0.0
H647 H 0.18192 0.3992 0.80461 0.0
H648 H 0.16053 0.53439 0.82393 0.0
H649 H 0.11551 0.55387 0.8393 0.0
H650 H 0.12372 0.54978 0.79266 0.0
H651 H 0.05936 0.51535 0.7853 0.0
H652 H 0.05112 0.51909 0.83198 0.0
H653 H 0.05239 0.47622 0.81125 0.0
H654 H 0.16748 0.40268 0.86895 0.0
H655 H 0.15101 0.41935 0.93024 0.0
H656 H 0.09373 0.51514 0.89153 0.0
C657 C 0.13173 0.47951 0.75595 0.0
C658 C 0.15248 0.45374 0.73645 0.0
C659 C 0.17096 0.42498 0.75452 0.0
C660 C 0.16785 0.42126 0.79105 0.0
C661 C 0.14669 0.44679 0.80934 0.0
C662 C 0.12941 0.47562 0.79255 0.0
C663 C 0.10983 0.50009 0.81868 0.0
C664 C 0.12853 0.53669 0.81864 0.0
C665 C 0.06555 0.50283 0.81136 0.0
C666 C 0.11894 0.48051 0.8527 0.0
C667 C 0.1398 0.44959 0.8467 0.0
C668 C 0.15127 0.42689 0.87406 0.0
C669 C 0.14169 0.43641 0.90865 0.0
C670 C 0.12138 0.4685 0.91534 0.0
C671 C 0.1096 0.49059 0.88698 0.0
H672 H 0.82646 0.88915 0.92668 0.0
H673 H 0.87261 0.9853 0.88286 0.0
H674 H 0.81719 0.01917 0.90694 0.0
H675 H 0.72435 0.9107 0.91183 0.0
H676 H 0.70859 0.89201 0.95274 0.0
H677 H 0.75177 0.87467 0.93191 0.0
H678 H 0.79212 0.88575 0.98915 0.0
H679 H 0.74904 0.90307 1.01018 0.0
H680 H 0.79227 0.92934 1.00834 0.0
H681 H 0.75617 0.04335 0.93517 0.0
H682 H 0.6951 0.05614 0.96636 0.0
H683 H 0.68764 0.94553 0.99471 0.0
C684 C 0.82524 0.91738 0.92233 0.0
C685 C 0.85437 0.93415 0.9022 0.0
C686 C 0.85077 0.97125 0.89721 0.0
C687 C 0.81933 0.99094 0.91113 0.0
C688 C 0.79125 0.97359 0.93045 0.0
C689 C 0.79391 0.93765 0.93625 0.0
C690 C 0.7596 0.92569 0.95819 0.0
C691 C 0.7346 0.8992 0.93742 0.0
C692 C 0.77414 0.91004 0.99356 0.0
C693 C 0.7373 0.9605 0.96371 0.0
C694 C 0.75619 0.98771 0.94734 0.0
C695 C 0.74127 0.02221 0.94815 0.0
C696 C 0.70632 0.02922 0.96602 0.0
C697 C 0.68611 1.00203 0.98328 0.0
C698 C 0.70217 0.96709 0.98204 0.0
H699 H 0.79918 0.09581 0.39181 0.0
H700 H 0.81035 0.20784 0.41419 0.0
H701 H 0.86574 0.19481 0.45402 0.0
H702 H 0.82685 0.06325 0.47845 0.0
H703 H 0.85572 0.0263 0.46292 0.0
H704 H 0.81549 0.04338 0.4363 0.0
H705 H 0.8618 0.05238 0.38409 0.0
H706 H 0.90211 0.03508 0.41047 0.0
H707 H 0.90512 0.07809 0.39059 0.0
H708 H 0.91821 0.17093 0.49353 0.0
H709 H 0.9701 0.13805 0.52543 0.0
H710 H 0.93218 0.0407 0.47578 0.0
C711 C 0.81336 0.11768 0.40485 0.0
C712 C 0.79881 0.15299 0.40024 0.0
C713 C 0.81907 0.18048 0.41795 0.0
C714 C 0.85113 0.1734 0.44059 0.0
C715 C 0.86388 0.13859 0.4452 0.0
C716 C 0.84626 0.11111 0.42744 0.0
C717 C 0.86741 0.07626 0.4366 0.0
C718 C 0.83971 0.05079 0.45463 0.0
C719 C 0.88516 0.05946 0.40346 0.0
C720 C 0.89931 0.08863 0.46234 0.0
C721 C 0.89614 0.12473 0.467 0.0
C722 C 0.92117 0.14267 0.48987 0.0
C723 C 0.95063 0.12354 0.50811 0.0
C724 C 0.95573 0.08655 0.50342 0.0
C725 C 0.92934 0.06888 0.48012 0.0
H726 H 0.37995 0.56015 0.07497 0.0
H727 H 0.38321 0.65875 0.13296 0.0
H728 H 0.31134 0.65757 0.13945 0.0
H729 H 0.2901 0.58051 0.02658 0.0
H730 H 0.2732 0.53577 0.02757 0.0
H731 H 0.3248 0.54413 0.02829 0.0
H732 H 0.33316 0.50779 0.08592 0.0
H733 H 0.28158 0.49937 0.0854 0.0
H734 H 0.30423 0.5194 0.12362 0.0
H735 H 0.23977 0.64424 0.14141 0.0
H736 H 0.17253 0.62211 0.13505 0.0
H737 H 0.2157 0.53404 0.07249 0.0
C738 C 0.36532 0.58139 0.08899 0.0
C739 C 0.3866 0.60949 0.10364 0.0
C740 C 0.36696 0.6371 0.12162 0.0
C741 C 0.32635 0.63657 0.12546 0.0
C742 C 0.306 0.60846 0.11073 0.0
C743 C 0.32473 0.58157 0.09251 0.0
C744 C 0.29592 0.55497 0.07838 0.0
C745 C 0.29602 0.5538 0.0378 0.0
C746 C 0.30423 0.51821 0.09429 0.0
C747 C 0.25814 0.5709 0.09179 0.0
C748 C 0.26461 0.60158 0.11063 0.0
C749 C 0.23427 0.62041 0.12647 0.0
C750 C 0.19625 0.6076 0.12281 0.0
C751 C 0.18895 0.57654 0.1031 0.0
C752 C 0.22037 0.55808 0.08739 0.0
H753 H 0.24592 0.54287 0.57128 0.0
H754 H 0.24651 0.49635 0.6756 0.0
H755 H 0.31155 0.46937 0.66499 0.0
H756 H 0.30352 0.47043 0.52624 0.0
H757 H 0.32927 0.50186 0.50018 0.0
H758 H 0.27976 0.51133 0.51312 0.0
H759 H 0.30186 0.57011 0.54166 0.0
H760 H 0.35122 0.56082 0.52884 0.0
H761 H 0.34064 0.56927 0.57453 0.0
H762 H 0.38011 0.45611 0.64716 0.0
H763 H 0.44687 0.45816 0.62392 0.0
H764 H 0.40205 0.51342 0.53102 0.0
C765 C 0.25938 0.52614 0.5914 0.0
C766 C 0.24135 0.52144 0.62415 0.0
C767 C 0.25989 0.49995 0.65023 0.0
C768 C 0.29673 0.48448 0.64438 0.0
C769 C 0.31446 0.49061 0.61221 0.0
C770 C 0.29629 0.51076 0.58604 0.0
C771 C 0.32339 0.51689 0.55564 0.0
C772 C 0.30806 0.49905 0.52179 0.0
C773 C 0.32965 0.55662 0.54987 0.0
C774 C 0.3602 0.49852 0.56953 0.0
C775 C 0.35426 0.48294 0.60189 0.0
C776 C 0.38493 0.4675 0.62148 0.0
C777 C 0.42278 0.46884 0.60809 0.0
C778 C 0.42964 0.48569 0.57553 0.0
C779 C 0.39767 0.49971 0.55563 0.0
H780 H 0.9292 0.77338 0.97942 0.0
H781 H 1.00882 0.77386 0.892 0.0
H782 H 0.04644 0.72411 0.91932 0.0
H783 H 1.0037 0.75036 0.04895 0.0
H784 H 0.97091 0.72277 0.07266 0.0
H785 H 0.95191 0.75985 0.04754 0.0
H786 H 0.90592 0.71829 1.01292 0.0
H787 H 0.925 0.68106 0.03769 0.0
H788 H 0.92627 0.68057 0.99016 0.0
H789 H 0.07161 0.66988 0.95329 0.0
H790 H 0.08612 0.61976 0.99313 0.0
H791 H 0.99285 0.6547 0.06149 0.0
C792 C 0.95518 0.76364 0.96647 0.0
C793 C 0.96626 0.7782 0.93349 0.0
C794 C 0.99999 0.76385 0.91731 0.0
C795 C 0.0214 0.7353 0.93263 0.0
C796 C 1.0092 0.72111 0.96459 0.0
C797 C 0.97718 0.73517 0.98167 0.0
C798 C 0.96986 0.71443 1.01546 0.0
C799 C 0.97436 0.73828 0.04809 0.0
C800 C 0.92935 0.6976 1.01396 0.0
C801 C 1.00235 0.6862 1.01456 0.0
C802 C 0.02449 0.69052 0.98476 0.0
C803 C 0.05474 0.66674 0.97689 0.0
C804 C 0.06273 0.63809 0.9998 0.0
C805 C 0.04113 0.63303 0.03097 0.0
C806 C 1.01054 0.65786 0.03838 0.0
H807 H 0.53952 0.68193 0.11296 0.0
H808 H 0.47246 0.66954 1.01566 0.0
H809 H 0.492 0.729 0.99677 0.0
H810 H 0.5113 0.76595 0.12901 0.0
H811 H 0.55705 0.78113 0.14715 0.0
H812 H 0.54536 0.73521 0.14976 0.0
H813 H 0.60924 0.71803 0.1179 0.0
H814 H 0.62156 0.76402 0.11563 0.0
H815 H 0.61953 0.73776 0.07593 0.0
H816 H 0.50911 0.7922 0.99329 0.0
H817 H 0.52403 0.85476 1.00447 0.0
H818 H 0.5801 0.82635 0.10423 0.0
C819 C 0.53045 0.69108 0.08696 0.0
C820 C 0.50503 0.67105 0.06544 0.0
C821 C 0.49224 0.68448 0.0323 0.0
C822 C 0.50331 0.71809 1.02136 0.0
C823 C 0.52727 0.73772 0.04384 0.0
C824 C 0.54105 0.72458 0.07581 0.0
C825 C 0.56227 0.75248 0.09703 0.0
C826 C 0.54281 0.75907 0.13283 0.0
C827 C 0.60574 0.74247 0.10189 0.0
C828 C 0.55674 0.78385 0.07272 0.0
C829 C 0.537 0.7746 0.04195 0.0
C830 C 0.52526 0.79962 1.0169 0.0
C831 C 0.53355 0.83504 0.02361 0.0
C832 C 0.5532 0.84509 0.05518 0.0
C833 C 0.56564 0.81912 0.07967 0.0
H834 H 0.09975 0.38979 0.61491 0.0
H835 H 0.22546 0.38591 0.62909 0.0
H836 H 0.22598 0.32181 0.61643 0.0
H837 H 0.08066 0.31437 0.65764 0.0
H838 H 0.04193 0.29879 0.6291 0.0
H839 H 0.05128 0.34527 0.63196 0.0
H840 H 0.06055 0.3487 0.5644 0.0
H841 H 0.04978 0.30242 0.56101 0.0
H842 H 0.09453 0.31874 0.54351 0.0
H843 H 0.21133 0.25801 0.61514 0.0
H844 H 0.18445 0.19839 0.61318 0.0
H845 H 0.06796 0.24326 0.59549 0.0
C846 C 0.12745 0.37562 0.61335 0.0
C847 C 0.16272 0.39248 0.62192 0.0
C848 C 0.19844 0.37329 0.62147 0.0
C849 C 0.19889 0.33694 0.61468 0.0
C850 C 0.16336 0.32058 0.60809 0.0
C851 C 0.12838 0.33939 0.60627 0.0
C852 C 0.09412 0.315 0.60126 0.0
C853 C 0.06532 0.31859 0.63181 0.0
C854 C 0.07354 0.3216 0.5654 0.0
C855 C 0.11518 0.27952 0.60202 0.0
C856 C 0.15505 0.28342 0.60611 0.0
C857 C 0.18034 0.25458 0.6106 0.0
C858 C 0.16469 0.22077 0.60943 0.0
C859 C 0.12413 0.21591 0.6032 0.0
C860 C 0.09906 0.24587 0.6001 0.0
H861 H 0.60685 0.29527 0.38059 0.0
H862 H 0.68905 0.24854 0.45613 0.0
H863 H 0.67706 0.29851 0.4971 0.0
H864 H 0.63205 0.38821 0.39898 0.0
H865 H 0.58232 0.40397 0.39347 0.0
H866 H 0.59902 0.36566 0.36939 0.0
H867 H 0.54281 0.32959 0.39504 0.0
H868 H 0.5262 0.36767 0.41947 0.0
H869 H 0.53775 0.32695 0.44223 0.0
H870 H 0.65194 0.35096 0.53194 0.0
H871 H 0.62081 0.40474 0.55608 0.0
H872 H 0.55598 0.41995 0.45755 0.0
C873 C 0.62281 0.29593 0.40552 0.0
C874 C 0.64897 0.26786 0.41521 0.0
C875 C 0.66905 0.26968 0.44815 0.0
C876 C 0.66225 0.29792 0.47162 0.0
C877 C 0.63551 0.3246 0.46175 0.0
C878 C 0.61652 0.32419 0.42925 0.0
C879 C 0.58887 0.35606 0.42542 0.0
C880 C 0.60132 0.37989 0.39501 0.0
C881 C 0.54639 0.34436 0.42023 0.0
C882 C 0.59481 0.37417 0.46101 0.0
C883 C 0.62174 0.35539 0.48156 0.0
C884 C 0.63113 0.36599 0.51589 0.0
C885 C 0.61302 0.39662 0.52948 0.0
C886 C 0.5858 0.41692 0.5089 0.0
C887 C 0.57671 0.4053 0.47406 0.0
loop_
_geom_bond_atom_site_label_1
_geom_bond_atom_site_label_2
_geom_bond_distance
_geom_bond_site_symmetry_2
_ccdc_geom_bond_type
H0 C7 0.929 . S
H1 C10 0.930 . S
H2 C12 0.929 . S
H3 C4 0.969 . S
C4 H3 0.969 . S
C4 O5 1.550 . S
C4 H6 0.973 . S
O5 C4 1.550 . S
O5 C11 1.412 . S
H6 C4 0.973 . S
C7 H0 0.929 . S
C7 C8 1.400 . S
C7 C9 1.364 . S
C8 C7 1.400 . S
C8 C12 1.377 . S
C9 C7 1.364 . S
C9 C10 1.374 . S
C10 H1 0.930 . S
C10 C9 1.374 . S
C10 C11 1.383 . S
C11 O5 1.412 . S
C11 C10 1.383 . S
C11 C12 1.394 . S
C12 H2 0.929 . S
C12 C8 1.377 . S
C12 C11 1.394 . S
H13 C20 0.929 . S
H14 C23 0.930 . S
H15 C25 0.929 . S
H16 C17 0.969 . S
C17 H16 0.969 . S
C17 O18 1.550 . S
C17 H19 0.973 . S
O18 C17 1.550 . S
O18 C24 1.412 . S
H19 C17 0.973 . S
C20 H13 0.929 . S
C20 C21 1.400 . S
C20 C22 1.364 . S
C21 C20 1.400 . S
C21 C25 1.377 . S
C22 C20 1.364 . S
C22 C23 1.374 . S
C23 H14 0.930 . S
C23 C22 1.374 . S
C23 C24 1.383 . S
C24 O18 1.412 . S
C24 C23 1.383 . S
C24 C25 1.394 . S
C25 H15 0.929 . S
C25 C21 1.377 . S
C25 C24 1.394 . S
H26 C33 0.929 . S
H27 C36 0.930 . S
H28 C38 0.929 . S
H29 C30 0.969 . S
C30 H29 0.969 . S
C30 O31 1.550 . S
C30 H32 0.973 . S
O31 C30 1.550 . S
O31 C37 1.412 . S
H32 C30 0.973 . S
C33 H26 0.929 . S
C33 C34 1.400 . S
C33 C35 1.364 . S
C34 C33 1.400 . S
C34 C38 1.377 . S
C35 C33 1.364 . S
C35 C36 1.374 . S
C36 H27 0.930 . S
C36 C35 1.374 . S
C36 C37 1.383 . S
C37 O31 1.412 . S
C37 C36 1.383 . S
C37 C38 1.394 . S
C38 H28 0.929 . S
C38 C34 1.377 . S
C38 C37 1.394 . S
H39 C46 0.929 . S
H40 C49 0.930 . S
H41 C51 0.929 . S
H42 C43 0.969 . S
C43 H42 0.969 . S
C43 O44 1.550 . S
C43 H45 0.973 . S
O44 C43 1.550 . S
O44 C50 1.412 . S
H45 C43 0.973 . S
C46 H39 0.929 . S
C46 C47 1.400 . S
C46 C48 1.364 . S
C47 C46 1.400 . S
C47 C51 1.377 . S
C48 C46 1.364 . S
C48 C49 1.374 . S
C49 H40 0.930 . S
C49 C48 1.374 . S
C49 C50 1.383 . S
C50 O44 1.412 . S
C50 C49 1.383 . S
C50 C51 1.394 . S
C51 H41 0.929 . S
C51 C47 1.377 . S
C51 C50 1.394 . S
H52 C59 0.929 . S
H53 C62 0.930 . S
H54 C64 0.929 . S
H55 C56 0.969 . S
C56 H55 0.969 . S
C56 O57 1.550 . S
C56 H58 0.973 . S
O57 C56 1.550 . S
O57 C63 1.412 . S
H58 C56 0.973 . S
C59 H52 0.929 . S
C59 C60 1.400 . S
C59 C61 1.364 . S
C60 C59 1.400 . S
C60 C64 1.377 . S
C61 C59 1.364 . S
C61 C62 1.374 . S
C62 H53 0.930 . S
C62 C61 1.374 . S
C62 C63 1.383 . S
C63 O57 1.412 . S
C63 C62 1.383 . S
C63 C64 1.394 . S
C64 H54 0.929 . S
C64 C60 1.377 . S
C64 C63 1.394 . S
H65 C72 0.929 . S
H66 C75 0.930 . S
H67 C77 0.929 . S
H68 C69 0.969 . S
C69 H68 0.969 . S
C69 O70 1.550 . S
C69 H71 0.973 . S
O70 C69 1.550 . S
O70 C76 1.412 . S
H71 C69 0.973 . S
C72 H65 0.929 . S
C72 C73 1.400 . S
C72 C74 1.364 . S
C73 C72 1.400 . S
C73 C77 1.377 . S
C74 C72 1.364 . S
C74 C75 1.374 . S
C75 H66 0.930 . S
C75 C74 1.374 . S
C75 C76 1.383 . S
C76 O70 1.412 . S
C76 C75 1.383 . S
C76 C77 1.394 . S
C77 H67 0.929 . S
C77 C73 1.377 . S
C77 C76 1.394 . S
H78 C85 0.929 . S
H79 C88 0.930 . S
H80 C90 0.929 . S
H81 C82 0.969 . S
C82 H81 0.969 . S
C82 O83 1.550 . S
C82 H84 0.973 . S
O83 C82 1.550 . S
O83 C89 1.412 . S
H84 C82 0.973 . S
C85 H78 0.929 . S
C85 C86 1.400 . S
C85 C87 1.364 . S
C86 C85 1.400 . S
C86 C90 1.377 . S
C87 C85 1.364 . S
C87 C88 1.374 . S
C88 H79 0.930 . S
C88 C87 1.374 . S
C88 C89 1.383 . S
C89 O83 1.412 . S
C89 C88 1.383 . S
C89 C90 1.394 . S
C90 H80 0.929 . S
C90 C86 1.377 . S
C90 C89 1.394 . S
H91 C98 0.929 . S
H92 C101 0.930 . S
H93 C103 0.929 . S
H94 C95 0.969 . S
C95 H94 0.969 . S
C95 O96 1.550 . S
C95 H97 0.973 . S
O96 C95 1.550 . S
O96 C102 1.412 . S
H97 C95 0.973 . S
C98 H91 0.929 . S
C98 C99 1.400 . S
C98 C100 1.364 . S
C99 C98 1.400 . S
C99 C103 1.377 . S
C100 C98 1.364 . S
C100 C101 1.374 . S
C101 H92 0.930 . S
C101 C100 1.374 . S
C101 C102 1.383 . S
C102 O96 1.412 . S
C102 C101 1.383 . S
C102 C103 1.394 . S
C103 H93 0.929 . S
C103 C99 1.377 . S
C103 C102 1.394 . S
C104 O120 1.251 . S
C104 O122 1.254 . S
N105 C106 1.333 . S
N105 C110 1.307 . S
N105 Zn111 2.020 . S
C106 N105 1.333 . S
C106 C107 1.379 . S
C106 H124 0.952 . S
C107 C106 1.379 . S
C107 C108 1.390 . S
C107 H134 0.949 . S
C108 C107 1.390 . S
C108 C109 1.357 . S
C109 C108 1.357 . S
C109 C110 1.370 . S
C109 H135 0.950 . S
C110 N105 1.307 . S
C110 C109 1.370 . S
C110 H128 0.948 . S
Zn111 N105 2.020 . S
Zn111 O120 2.039 . S
Zn111 O126 2.034 . S
Zn111 O130 2.025 . S
Zn111 O132 2.024 1_455 S
C112 O131 1.246 . S
C112 O132 1.249 . S
N113 C114 1.305 1_655 S
N113 C115 1.336 . S
N113 Zn119 2.019 1_655 S
C114 N113 1.305 1_455 S
C114 C118 1.370 . S
C114 H125 0.948 . S
C115 N113 1.336 . S
C115 C116 1.379 . S
C115 H123 0.952 . S
C116 C115 1.379 . S
C116 C117 1.390 . S
C116 H136 0.949 . S
C117 C116 1.390 . S
C117 C118 1.357 1_655 S
C118 C114 1.370 . S
C118 C117 1.357 1_455 S
C118 H137 0.950 . S
Zn119 N113 2.019 1_455 S
Zn119 O122 2.025 1_565 S
Zn119 O127 2.024 . S
Zn119 O129 2.039 . S
Zn119 O131 2.034 1_465 S
O120 C104 1.251 . S
O120 Zn111 2.039 . S
C121 O126 1.246 . S
C121 O127 1.249 1_545 S
O122 C104 1.254 . S
O122 Zn119 2.025 1_545 S
H123 C115 0.952 . S
H124 C106 0.952 . S
H125 C114 0.948 . S
O126 Zn111 2.034 . S
O126 C121 1.246 . S
O127 Zn119 2.024 . S
O127 C121 1.249 1_565 S
H128 C110 0.948 . S
O129 Zn119 2.039 . S
O129 C133 1.251 1_565 S
O130 Zn111 2.025 . S
O130 C133 1.254 . S
O131 C112 1.246 . S
O131 Zn119 2.034 1_645 S
O132 Zn111 2.024 1_655 S
O132 C112 1.249 . S
C133 O129 1.251 1_545 S
C133 O130 1.254 . S
H134 C107 0.949 . S
H135 C109 0.950 . S
H136 C116 0.949 . S
H137 C118 0.950 . S
C138 O154 1.254 1_565 S
C138 O156 1.254 . S
N139 C140 1.333 . S
N139 C144 1.307 . S
N139 Zn145 2.020 1_556 S
C140 N139 1.333 . S
C140 C141 1.379 . S
C140 H158 0.952 1_556 S
C141 C140 1.379 . S
C141 C142 1.390 . S
C141 H168 0.949 . S
C142 C141 1.390 . S
C142 C143 1.357 . S
C143 C142 1.357 . S
C143 C144 1.370 . S
C143 H169 0.950 . S
C144 N139 1.307 . S
C144 C143 1.370 . S
C144 H162 0.948 . S
Zn145 N139 2.020 1_554 S
Zn145 O154 2.044 . S
Zn145 O160 2.034 . S
Zn145 O164 2.025 . S
Zn145 O166 2.024 1_554 S
C146 O165 1.226 1_545 S
C146 O166 1.277 . S
N147 C148 1.307 . S
N147 C149 1.333 . S
N147 Zn153 2.020 . S
C148 N147 1.307 . S
C148 C152 1.370 . S
C148 H159 0.948 . S
C149 N147 1.333 . S
C149 C150 1.379 . S
C149 H157 0.952 . S
C150 C149 1.379 . S
C150 C151 1.390 . S
C150 H170 0.949 . S
C151 C150 1.390 . S
C151 C152 1.357 . S
C152 C148 1.370 . S
C152 C151 1.357 . S
C152 H171 0.950 . S
Zn153 N147 2.020 . S
Zn153 O156 2.025 . S
Zn153 O161 2.020 1_565 S
Zn153 O163 2.039 1_565 S
Zn153 O165 2.034 1_554 S
O154 C138 1.254 1_545 S
O154 Zn145 2.044 . S
C155 O160 1.246 . S
C155 O161 1.261 . S
O156 C138 1.254 . S
O156 Zn153 2.025 . S
H157 C149 0.952 . S
H158 C140 0.952 1_554 S
H159 C148 0.948 . S
O160 Zn145 2.034 . S
O160 C155 1.246 . S
O161 Zn153 2.020 1_545 S
O161 C155 1.261 . S
H162 C144 0.948 . S
O163 Zn153 2.039 1_545 S
O163 C167 1.251 . S
O164 Zn145 2.025 . S
O164 C167 1.254 . S
O165 C146 1.226 1_565 S
O165 Zn153 2.034 1_556 S
O166 Zn145 2.024 1_556 S
O166 C146 1.277 . S
C167 O163 1.251 . S
C167 O164 1.254 . S
H168 C141 0.949 . S
H169 C143 0.950 . S
H170 C150 0.949 . S
H171 C152 0.950 . S
C172 O188 1.251 . S
C172 O190 1.254 . S
N173 C174 1.333 . S
N173 C178 1.307 . S
N173 Zn179 2.020 . S
C174 N173 1.333 . S
C174 C175 1.379 . S
C174 H192 0.952 . S
C175 C174 1.379 . S
C175 C176 1.390 . S
C175 H202 0.949 . S
C176 C175 1.390 . S
C176 C177 1.357 . S
C177 C176 1.357 . S
C177 C178 1.370 . S
C177 H203 0.950 . S
C178 N173 1.307 . S
C178 C177 1.370 . S
C178 H196 0.948 . S
Zn179 N173 2.020 . S
Zn179 O188 2.039 . S
Zn179 O194 2.034 . S
Zn179 O198 2.025 . S
Zn179 O200 2.024 . S
C180 O199 1.246 . S
C180 O200 1.249 . S
N181 C182 1.307 . S
N181 C183 1.333 . S
N181 Zn187 2.020 . S
C182 N181 1.307 . S
C182 C186 1.370 . S
C182 H193 0.948 . S
C183 N181 1.333 . S
C183 C184 1.379 . S
C183 H191 0.952 . S
C184 C183 1.379 . S
C184 C185 1.390 . S
C184 H204 0.949 . S
C185 C184 1.390 . S
C185 C186 1.357 . S
C186 C182 1.370 . S
C186 C185 1.357 . S
C186 H205 0.950 . S
Zn187 N181 2.020 . S
Zn187 O190 2.025 . S
Zn187 O195 2.024 . S
Zn187 O197 2.039 . S
Zn187 O199 2.034 . S
O188 C172 1.251 . S
O188 Zn179 2.039 . S
C189 O194 1.246 . S
C189 O195 1.249 . S
O190 C172 1.254 . S
O190 Zn187 2.025 . S
H191 C183 0.952 . S
H192 C174 0.952 . S
H193 C182 0.948 . S
O194 Zn179 2.034 . S
O194 C189 1.246 . S
O195 Zn187 2.024 . S
O195 C189 1.249 . S
H196 C178 0.948 . S
O197 Zn187 2.039 . S
O197 C201 1.251 . S
O198 Zn179 2.025 . S
O198 C201 1.254 . S
O199 C180 1.246 . S
O199 Zn187 2.034 . S
O200 Zn179 2.024 . S
O200 C180 1.249 . S
C201 O197 1.251 . S
C201 O198 1.254 . S
H202 C175 0.949 . S
H203 C177 0.950 . S
H204 C184 0.949 . S
H205 C186 0.950 . S
C206 O222 1.251 . S
C206 O224 1.254 1_554 S
N207 C208 1.333 . S
N207 C212 1.307 . S
N207 Zn213 2.020 . S
C208 N207 1.333 . S
C208 C209 1.379 . S
C208 H226 0.952 . S
C209 C208 1.379 . S
C209 C210 1.390 1_455 S
C209 H236 0.949 . S
C210 C209 1.390 1_655 S
C210 C211 1.357 . S
C211 C210 1.357 . S
C211 C212 1.370 1_655 S
C211 H237 0.950 . S
C212 N207 1.307 . S
C212 C211 1.370 1_455 S
C212 H230 0.948 . S
Zn213 N207 2.020 . S
Zn213 O222 2.039 . S
Zn213 O228 2.034 . S
Zn213 O232 2.025 . S
Zn213 O234 2.024 1_455 S
C214 O233 1.246 1_654 S
C214 O234 1.249 . S
N215 C216 1.307 . S
N215 C217 1.333 . S
N215 Zn221 2.020 . S
C216 N215 1.307 . S
C216 C220 1.370 . S
C216 H227 0.948 . S
C217 N215 1.333 . S
C217 C218 1.379 . S
C217 H225 0.952 . S
C218 C217 1.379 . S
C218 C219 1.390 . S
C218 H238 0.949 . S
C219 C218 1.390 . S
C219 C220 1.357 . S
C220 C216 1.370 . S
C220 C219 1.357 . S
C220 H239 0.950 . S
Zn221 N215 2.020 . S
Zn221 O224 2.025 . S
Zn221 O229 2.024 1_556 S
Zn221 O231 2.039 1_556 S
Zn221 O233 2.034 . S
O222 C206 1.251 . S
O222 Zn213 2.039 . S
C223 O228 1.246 . S
C223 O229 1.249 . S
O224 C206 1.254 1_556 S
O224 Zn221 2.025 . S
H225 C217 0.952 . S
H226 C208 0.952 . S
H227 C216 0.948 . S
O228 Zn213 2.034 . S
O228 C223 1.246 . S
O229 Zn221 2.024 1_554 S
O229 C223 1.249 . S
H230 C212 0.948 . S
O231 Zn221 2.039 1_554 S
O231 C235 1.251 . S
O232 Zn213 2.025 . S
O232 C235 1.254 . S
O233 C214 1.246 1_456 S
O233 Zn221 2.034 . S
O234 Zn213 2.024 1_655 S
O234 C214 1.249 . S
C235 O231 1.251 . S
C235 O232 1.254 . S
H236 C209 0.949 . S
H237 C211 0.950 . S
H238 C218 0.949 . S
H239 C220 0.950 . S
H240 C252 0.930 . S
H241 C254 0.930 . S
H242 C255 0.930 . S
H243 C259 0.959 . S
H244 C259 0.959 . S
H245 C259 0.961 . S
H246 C260 0.960 . S
H247 C260 0.961 . S
H248 C260 0.959 . S
H249 C263 0.929 . S
H250 C264 0.931 . S
H251 C266 0.930 . S
C252 H240 0.930 . S
C252 C253 1.399 . S
C252 C257 1.399 . S
C253 C252 1.399 . S
C253 C254 1.376 . S
C254 H241 0.930 . S
C254 C253 1.376 . S
C254 C255 1.388 . S
C255 H242 0.930 . S
C255 C254 1.388 . S
C255 C256 1.390 . S
C256 C255 1.390 . S
C256 C257 1.394 . S
C256 C262 1.465 . S
C257 C252 1.399 . S
C257 C256 1.394 . S
C257 C258 1.516 . S
C258 C257 1.516 . S
C258 C259 1.502 . S
C258 C260 1.561 . S
C258 C261 1.526 . S
C259 H243 0.959 . S
C259 H244 0.959 . S
C259 H245 0.961 . S
C259 C258 1.502 . S
C260 H246 0.960 . S
C260 H247 0.961 . S
C260 H248 0.959 . S
C260 C258 1.561 . S
C261 C258 1.526 . S
C261 C262 1.396 . S
C261 C266 1.390 . S
C262 C256 1.465 . S
C262 C261 1.396 . S
C262 C263 1.399 . S
C263 H249 0.929 . S
C263 C262 1.399 . S
C263 C264 1.385 . S
C264 H250 0.931 . S
C264 C263 1.385 . S
C264 C265 1.389 . S
C265 C264 1.389 . S
C265 C266 1.387 . S
C266 H251 0.930 . S
C266 C261 1.390 . S
C266 C265 1.387 . S
H267 C279 0.930 . S
H268 C281 0.930 . S
H269 C282 0.930 . S
H270 C286 0.959 . S
H271 C286 0.959 . S
H272 C286 0.961 . S
H273 C287 0.960 . S
H274 C287 0.961 . S
H275 C287 0.959 . S
H276 C290 0.929 . S
H277 C291 0.931 . S
H278 C293 0.930 . S
C279 H267 0.930 . S
C279 C280 1.399 . S
C279 C284 1.399 . S
C280 C279 1.399 . S
C280 C281 1.376 . S
C281 H268 0.930 . S
C281 C280 1.376 . S
C281 C282 1.388 . S
C282 H269 0.930 . S
C282 C281 1.388 . S
C282 C283 1.390 . S
C283 C282 1.390 . S
C283 C284 1.394 . S
C283 C289 1.465 . S
C284 C279 1.399 . S
C284 C283 1.394 . S
C284 C285 1.516 1_565 S
C285 C284 1.516 1_545 S
C285 C286 1.502 . S
C285 C287 1.561 . S
C285 C288 1.526 1_545 S
C286 H270 0.959 . S
C286 H271 0.959 . S
C286 H272 0.961 . S
C286 C285 1.502 . S
C287 H273 0.960 . S
C287 H274 0.961 . S
C287 H275 0.959 . S
C287 C285 1.561 . S
C288 C285 1.526 1_565 S
C288 C289 1.396 . S
C288 C293 1.390 1_565 S
C289 C283 1.465 . S
C289 C288 1.396 . S
C289 C290 1.399 . S
C290 H276 0.929 . S
C290 C289 1.399 . S
C290 C291 1.385 . S
C291 H277 0.931 . S
C291 C290 1.385 . S
C291 C292 1.389 . S
C292 C291 1.389 . S
C292 C293 1.387 1_565 S
C293 H278 0.930 . S
C293 C288 1.390 1_545 S
C293 C292 1.387 1_545 S
H294 C306 0.930 . S
H295 C308 0.930 . S
H296 C309 0.930 . S
H297 C313 0.959 . S
H298 C313 0.959 . S
H299 C313 0.961 . S
H300 C314 0.960 . S
H301 C314 0.961 . S
H302 C314 0.959 . S
H303 C317 0.929 . S
H304 C318 0.931 . S
H305 C320 0.930 . S
C306 H294 0.930 . S
C306 C307 1.399 . S
C306 C311 1.399 . S
C307 C306 1.399 . S
C307 C308 1.376 . S
C308 H295 0.930 . S
C308 C307 1.376 . S
C308 C309 1.388 . S
C309 H296 0.930 . S
C309 C308 1.388 . S
C309 C310 1.390 . S
C310 C309 1.390 . S
C310 C311 1.394 . S
C310 C316 1.465 . S
C311 C306 1.399 . S
C311 C310 1.394 . S
C311 C312 1.516 . S
C312 C311 1.516 . S
C312 C313 1.502 . S
C312 C314 1.561 . S
C312 C315 1.526 . S
C313 H297 0.959 . S
C313 H298 0.959 . S
C313 H299 0.961 . S
C313 C312 1.502 . S
C314 H300 0.960 . S
C314 H301 0.961 . S
C314 H302 0.959 . S
C314 C312 1.561 . S
C315 C312 1.526 . S
C315 C316 1.396 . S
C315 C320 1.390 . S
C316 C310 1.465 . S
C316 C315 1.396 . S
C316 C317 1.399 . S
C317 H303 0.929 . S
C317 C316 1.399 . S
C317 C318 1.385 . S
C318 H304 0.931 . S
C318 C317 1.385 . S
C318 C319 1.389 . S
C319 C318 1.389 . S
C319 C320 1.387 . S
C320 H305 0.930 . S
C320 C315 1.390 . S
C320 C319 1.387 . S
H321 C333 0.930 . S
H322 C335 0.930 . S
H323 C336 0.930 . S
H324 C340 0.959 . S
H325 C340 0.959 . S
H326 C340 0.961 1_655 S
H327 C341 0.960 . S
H328 C341 0.961 . S
H329 C341 0.959 . S
H330 C344 0.929 . S
H331 C345 0.931 . S
H332 C347 0.930 . S
C333 H321 0.930 . S
C333 C334 1.399 . S
C333 C338 1.399 . S
C334 C333 1.399 . S
C334 C335 1.376 . S
C335 H322 0.930 . S
C335 C334 1.376 . S
C335 C336 1.388 . S
C336 H323 0.930 . S
C336 C335 1.388 . S
C336 C337 1.390 . S
C337 C336 1.390 . S
C337 C338 1.394 . S
C337 C343 1.465 . S
C338 C333 1.399 . S
C338 C337 1.394 . S
C338 C339 1.516 . S
C339 C338 1.516 . S
C339 C340 1.502 1_655 S
C339 C341 1.561 . S
C339 C342 1.526 . S
C340 H324 0.959 . S
C340 H325 0.959 . S
C340 H326 0.961 1_455 S
C340 C339 1.502 1_455 S
C341 H327 0.960 . S
C341 H328 0.961 . S
C341 H329 0.959 . S
C341 C339 1.561 . S
C342 C339 1.526 . S
C342 C343 1.396 . S
C342 C347 1.390 . S
C343 C337 1.465 . S
C343 C342 1.396 . S
C343 C344 1.399 . S
C344 H330 0.929 . S
C344 C343 1.399 . S
C344 C345 1.385 . S
C345 H331 0.931 . S
C345 C344 1.385 . S
C345 C346 1.389 . S
C346 C345 1.389 . S
C346 C347 1.387 . S
C347 H332 0.930 . S
C347 C342 1.390 . S
C347 C346 1.387 . S
H348 C360 0.930 . S
H349 C362 0.930 . S
H350 C363 0.930 . S
H351 C367 0.959 . S
H352 C367 0.959 . S
H353 C367 0.961 . S
H354 C368 0.960 . S
H355 C368 0.961 . S
H356 C368 0.959 . S
H357 C371 0.929 . S
H358 C372 0.931 . S
H359 C374 0.930 . S
C360 H348 0.930 . S
C360 C361 1.399 . S
C360 C365 1.399 . S
C361 C360 1.399 . S
C361 C362 1.376 . S
C362 H349 0.930 . S
C362 C361 1.376 . S
C362 C363 1.388 . S
C363 H350 0.930 . S
C363 C362 1.388 . S
C363 C364 1.390 . S
C364 C363 1.390 . S
C364 C365 1.394 . S
C364 C370 1.465 . S
C365 C360 1.399 . S
C365 C364 1.394 . S
C365 C366 1.516 . S
C366 C365 1.516 . S
C366 C367 1.502 . S
C366 C368 1.561 . S
C366 C369 1.526 . S
C367 H351 0.959 . S
C367 H352 0.959 . S
C367 H353 0.961 . S
C367 C366 1.502 . S
C368 H354 0.960 . S
C368 H355 0.961 . S
C368 H356 0.959 . S
C368 C366 1.561 . S
C369 C366 1.526 . S
C369 C370 1.396 . S
C369 C374 1.390 . S
C370 C364 1.465 . S
C370 C369 1.396 . S
C370 C371 1.399 . S
C371 H357 0.929 . S
C371 C370 1.399 . S
C371 C372 1.385 . S
C372 H358 0.931 . S
C372 C371 1.385 . S
C372 C373 1.389 . S
C373 C372 1.389 . S
C373 C374 1.387 . S
C374 H359 0.930 . S
C374 C369 1.390 . S
C374 C373 1.387 . S
H375 C387 0.930 . S
H376 C389 0.930 . S
H377 C390 0.930 . S
H378 C394 0.959 . S
H379 C394 0.959 . S
H380 C394 0.961 . S
H381 C395 0.960 . S
H382 C395 0.961 . S
H383 C395 0.959 . S
H384 C398 0.929 1_545 S
H385 C399 0.931 . S
H386 C401 0.930 . S
C387 H375 0.930 . S
C387 C388 1.399 . S
C387 C392 1.399 . S
C388 C387 1.399 . S
C388 C389 1.376 . S
C389 H376 0.930 . S
C389 C388 1.376 . S
C389 C390 1.388 . S
C390 H377 0.930 . S
C390 C389 1.388 . S
C390 C391 1.390 . S
C391 C390 1.390 . S
C391 C392 1.394 . S
C391 C397 1.465 . S
C392 C387 1.399 . S
C392 C391 1.394 . S
C392 C393 1.516 . S
C393 C392 1.516 . S
C393 C394 1.502 . S
C393 C395 1.561 . S
C393 C396 1.526 . S
C394 H378 0.959 . S
C394 H379 0.959 . S
C394 H380 0.961 . S
C394 C393 1.502 . S
C395 H381 0.960 . S
C395 H382 0.961 . S
C395 H383 0.959 . S
C395 C393 1.561 . S
C396 C393 1.526 . S
C396 C397 1.396 . S
C396 C401 1.390 . S
C397 C391 1.465 . S
C397 C396 1.396 . S
C397 C398 1.399 . S
C398 H384 0.929 1_565 S
C398 C397 1.399 . S
C398 C399 1.385 1_565 S
C399 H385 0.931 . S
C399 C398 1.385 1_545 S
C399 C400 1.389 1_545 S
C400 C399 1.389 1_565 S
C400 C401 1.387 . S
C401 H386 0.930 . S
C401 C396 1.390 . S
C401 C400 1.387 . S
H402 C414 0.930 . S
H403 C416 0.930 1_554 S
H404 C417 0.930 . S
H405 C421 0.959 . S
H406 C421 0.959 . S
H407 C421 0.961 . S
H408 C422 0.960 . S
H409 C422 0.961 . S
H410 C422 0.959 1_554 S
H411 C425 0.929 . S
H412 C426 0.931 . S
H413 C428 0.930 . S
C414 H402 0.930 . S
C414 C415 1.399 . S
C414 C419 1.399 . S
C415 C414 1.399 . S
C415 C416 1.376 . S
C416 H403 0.930 1_556 S
C416 C415 1.376 . S
C416 C417 1.388 1_556 S
C417 H404 0.930 . S
C417 C416 1.388 1_554 S
C417 C418 1.390 1_554 S
C418 C417 1.390 1_556 S
C418 C419 1.394 . S
C418 C424 1.465 1_556 S
C419 C414 1.399 . S
C419 C418 1.394 . S
C419 C420 1.516 . S
C420 C419 1.516 . S
C420 C421 1.502 . S
C420 C422 1.561 . S
C420 C423 1.526 . S
C421 H405 0.959 . S
C421 H406 0.959 . S
C421 H407 0.961 . S
C421 C420 1.502 . S
C422 H408 0.960 . S
C422 H409 0.961 . S
C422 H410 0.959 1_556 S
C422 C420 1.561 . S
C423 C420 1.526 . S
C423 C424 1.396 1_556 S
C423 C428 1.390 . S
C424 C418 1.465 1_554 S
C424 C423 1.396 1_554 S
C424 C425 1.399 . S
C425 H411 0.929 . S
C425 C424 1.399 . S
C425 C426 1.385 . S
C426 H412 0.931 . S
C426 C425 1.385 . S
C426 C427 1.389 . S
C427 C426 1.389 . S
C427 C428 1.387 1_554 S
C428 H413 0.930 . S
C428 C423 1.390 . S
C428 C427 1.387 1_556 S
H429 C441 0.930 . S
H430 C443 0.930 . S
H431 C444 0.930 . S
H432 C448 0.959 . S
H433 C448 0.959 . S
H434 C448 0.961 . S
H435 C449 0.960 . S
H436 C449 0.961 . S
H437 C449 0.959 . S
H438 C452 0.929 . S
H439 C453 0.931 . S
H440 C455 0.930 . S
C441 H429 0.930 . S
C441 C442 1.399 . S
C441 C446 1.399 . S
C442 C441 1.399 . S
C442 C443 1.376 . S
C443 H430 0.930 . S
C443 C442 1.376 . S
C443 C444 1.388 . S
C444 H431 0.930 . S
C444 C443 1.388 . S
C444 C445 1.390 . S
C445 C444 1.390 . S
C445 C446 1.394 . S
C445 C451 1.465 . S
C446 C441 1.399 . S
C446 C445 1.394 . S
C446 C447 1.516 . S
C447 C446 1.516 . S
C447 C448 1.502 . S
C447 C449 1.561 . S
C447 C450 1.526 . S
C448 H432 0.959 . S
C448 H433 0.959 . S
C448 H434 0.961 . S
C448 C447 1.502 . S
C449 H435 0.960 . S
C449 H436 0.961 . S
C449 H437 0.959 . S
C449 C447 1.561 . S
C450 C447 1.526 . S
C450 C451 1.396 . S
C450 C455 1.390 . S
C451 C445 1.465 . S
C451 C450 1.396 . S
C451 C452 1.399 . S
C452 H438 0.929 . S
C452 C451 1.399 . S
C452 C453 1.385 . S
C453 H439 0.931 . S
C453 C452 1.385 . S
C453 C454 1.389 . S
C454 C453 1.389 . S
C454 C455 1.387 . S
C455 H440 0.930 . S
C455 C450 1.390 . S
C455 C454 1.387 . S
H456 C468 0.930 . S
H457 C470 0.930 . S
H458 C471 0.930 . S
H459 C475 0.959 . S
H460 C475 0.959 . S
H461 C475 0.961 . S
H462 C476 0.960 . S
H463 C476 0.961 . S
H464 C476 0.959 . S
H465 C479 0.929 . S
H466 C480 0.931 . S
H467 C482 0.930 . S
C468 H456 0.930 . S
C468 C469 1.399 . S
C468 C473 1.399 . S
C469 C468 1.399 . S
C469 C470 1.376 . S
C470 H457 0.930 . S
C470 C469 1.376 . S
C470 C471 1.388 . S
C471 H458 0.930 . S
C471 C470 1.388 . S
C471 C472 1.390 . S
C472 C471 1.390 . S
C472 C473 1.394 . S
C472 C478 1.465 . S
C473 C468 1.399 . S
C473 C472 1.394 . S
C473 C474 1.516 . S
C474 C473 1.516 . S
C474 C475 1.502 . S
C474 C476 1.561 . S
C474 C477 1.526 . S
C475 H459 0.959 . S
C475 H460 0.959 . S
C475 H461 0.961 . S
C475 C474 1.502 . S
C476 H462 0.960 . S
C476 H463 0.961 . S
C476 H464 0.959 . S
C476 C474 1.561 . S
C477 C474 1.526 . S
C477 C478 1.396 . S
C477 C482 1.390 . S
C478 C472 1.465 . S
C478 C477 1.396 . S
C478 C479 1.399 . S
C479 H465 0.929 . S
C479 C478 1.399 . S
C479 C480 1.385 . S
C480 H466 0.931 . S
C480 C479 1.385 . S
C480 C481 1.389 . S
C481 C480 1.389 . S
C481 C482 1.387 . S
C482 H467 0.930 . S
C482 C477 1.390 . S
C482 C481 1.387 . S
H483 C495 0.930 . S
H484 C497 0.930 . S
H485 C498 0.930 . S
H486 C502 0.958 1_556 S
H487 C502 0.960 . S
H488 C502 0.961 . S
H489 C503 0.960 . S
H490 C503 0.961 . S
H491 C503 0.959 . S
H492 C506 0.929 . S
H493 C507 0.931 . S
H494 C509 0.930 1_554 S
C495 H483 0.930 . S
C495 C496 1.399 . S
C495 C500 1.399 . S
C496 C495 1.399 . S
C496 C497 1.376 . S
C497 H484 0.930 . S
C497 C496 1.376 . S
C497 C498 1.388 . S
C498 H485 0.930 . S
C498 C497 1.388 . S
C498 C499 1.390 . S
C499 C498 1.390 . S
C499 C500 1.394 . S
C499 C505 1.465 . S
C500 C495 1.399 . S
C500 C499 1.394 . S
C500 C501 1.516 . S
C501 C500 1.516 . S
C501 C502 1.502 1_556 S
C501 C503 1.561 1_556 S
C501 C504 1.526 . S
C502 H486 0.958 1_554 S
C502 H487 0.960 . S
C502 H488 0.961 . S
C502 C501 1.502 1_554 S
C503 H489 0.960 . S
C503 H490 0.961 . S
C503 H491 0.959 . S
C503 C501 1.561 1_554 S
C504 C501 1.526 . S
C504 C505 1.396 . S
C504 C509 1.390 . S
C505 C499 1.465 . S
C505 C504 1.396 . S
C505 C506 1.399 . S
C506 H492 0.929 . S
C506 C505 1.399 . S
C506 C507 1.385 . S
C507 H493 0.931 . S
C507 C506 1.385 . S
C507 C508 1.389 . S
C508 C507 1.389 . S
C508 C509 1.387 . S
C509 H494 0.930 1_556 S
C509 C504 1.390 . S
C509 C508 1.387 . S
H510 C522 0.930 . S
H511 C524 0.930 . S
H512 C525 0.930 . S
H513 C529 0.959 1_455 S
H514 C529 0.959 1_455 S
H515 C529 0.961 . S
H516 C530 0.960 . S
H517 C530 0.961 . S
H518 C530 0.959 . S
H519 C533 0.929 . S
H520 C534 0.931 . S
H521 C536 0.930 . S
C522 H510 0.930 . S
C522 C523 1.399 . S
C522 C527 1.399 . S
C523 C522 1.399 . S
C523 C524 1.376 . S
C524 H511 0.930 . S
C524 C523 1.376 . S
C524 C525 1.388 . S
C525 H512 0.930 . S
C525 C524 1.388 . S
C525 C526 1.390 . S
C526 C525 1.390 . S
C526 C527 1.394 . S
C526 C532 1.465 . S
C527 C522 1.399 . S
C527 C526 1.394 . S
C527 C528 1.516 . S
C528 C527 1.516 . S
C528 C529 1.502 . S
C528 C530 1.561 . S
C528 C531 1.526 . S
C529 H513 0.959 1_655 S
C529 H514 0.959 1_655 S
C529 H515 0.961 . S
C529 C528 1.502 . S
C530 H516 0.960 . S
C530 H517 0.961 . S
C530 H518 0.959 . S
C530 C528 1.561 . S
C531 C528 1.526 . S
C531 C532 1.396 . S
C531 C536 1.390 . S
C532 C526 1.465 . S
C532 C531 1.396 . S
C532 C533 1.399 . S
C533 H519 0.929 . S
C533 C532 1.399 . S
C533 C534 1.385 . S
C534 H520 0.931 . S
C534 C533 1.385 . S
C534 C535 1.389 . S
C535 C534 1.389 . S
C535 C536 1.387 . S
C536 H521 0.930 . S
C536 C531 1.390 . S
C536 C535 1.387 . S
H537 C549 0.930 . S
H538 C551 0.930 . S
H539 C552 0.930 . S
H540 C556 0.959 . S
H541 C556 0.959 . S
H542 C556 0.961 . S
H543 C557 0.960 . S
H544 C557 0.961 . S
H545 C557 0.959 . S
H546 C560 0.929 . S
H547 C561 0.931 . S
H548 C563 0.930 . S
C549 H537 0.930 . S
C549 C550 1.399 . S
C549 C554 1.399 . S
C550 C549 1.399 . S
C550 C551 1.376 . S
C551 H538 0.930 . S
C551 C550 1.376 . S
C551 C552 1.388 . S
C552 H539 0.930 . S
C552 C551 1.388 . S
C552 C553 1.390 . S
C553 C552 1.390 . S
C553 C554 1.394 . S
C553 C559 1.465 . S
C554 C549 1.399 . S
C554 C553 1.394 . S
C554 C555 1.516 . S
C555 C554 1.516 . S
C555 C556 1.502 . S
C555 C557 1.561 . S
C555 C558 1.526 . S
C556 H540 0.959 . S
C556 H541 0.959 . S
C556 H542 0.961 . S
C556 C555 1.502 . S
C557 H543 0.960 . S
C557 H544 0.961 . S
C557 H545 0.959 . S
C557 C555 1.561 . S
C558 C555 1.526 . S
C558 C559 1.396 . S
C558 C563 1.390 . S
C559 C553 1.465 . S
C559 C558 1.396 . S
C559 C560 1.399 . S
C560 H546 0.929 . S
C560 C559 1.399 . S
C560 C561 1.385 . S
C561 H547 0.931 . S
C561 C560 1.385 . S
C561 C562 1.389 . S
C562 C561 1.389 . S
C562 C563 1.387 . S
C563 H548 0.930 . S
C563 C558 1.390 . S
C563 C562 1.387 . S
H564 C576 0.930 . S
H565 C578 0.930 . S
H566 C579 0.930 1_455 S
H567 C583 0.959 1_565 S
H568 C583 0.959 . S
H569 C583 0.961 . S
H570 C584 0.960 . S
H571 C584 0.961 . S
H572 C584 0.959 1_455 S
H573 C587 0.929 . S
H574 C588 0.931 . S
H575 C590 0.930 . S
C576 H564 0.930 . S
C576 C577 1.399 . S
C576 C581 1.399 . S
C577 C576 1.399 . S
C577 C578 1.376 . S
C578 H565 0.930 . S
C578 C577 1.376 . S
C578 C579 1.388 . S
C579 H566 0.930 1_655 S
C579 C578 1.388 . S
C579 C580 1.390 . S
C580 C579 1.390 . S
C580 C581 1.394 . S
C580 C586 1.465 . S
C581 C576 1.399 . S
C581 C580 1.394 . S
C581 C582 1.516 . S
C582 C581 1.516 . S
C582 C583 1.502 1_565 S
C582 C584 1.561 1_565 S
C582 C585 1.526 . S
C583 H567 0.959 1_545 S
C583 H568 0.959 . S
C583 H569 0.961 . S
C583 C582 1.502 1_545 S
C584 H570 0.960 . S
C584 H571 0.961 . S
C584 H572 0.959 1_655 S
C584 C582 1.561 1_545 S
C585 C582 1.526 . S
C585 C586 1.396 . S
C585 C590 1.390 1_565 S
C586 C580 1.465 . S
C586 C585 1.396 . S
C586 C587 1.399 1_655 S
C587 H573 0.929 . S
C587 C586 1.399 1_455 S
C587 C588 1.385 . S
C588 H574 0.931 . S
C588 C587 1.385 . S
C588 C589 1.389 1_455 S
C589 C588 1.389 1_655 S
C589 C590 1.387 1_565 S
C590 H575 0.930 . S
C590 C585 1.390 1_545 S
C590 C589 1.387 1_545 S
H591 C603 0.930 . S
H592 C605 0.930 . S
H593 C606 0.930 . S
H594 C610 0.959 . S
H595 C610 0.959 . S
H596 C610 0.961 . S
H597 C611 0.960 . S
H598 C611 0.961 . S
H599 C611 0.959 . S
H600 C614 0.929 . S
H601 C615 0.931 1_565 S
H602 C617 0.930 . S
C603 H591 0.930 . S
C603 C604 1.399 . S
C603 C608 1.399 . S
C604 C603 1.399 . S
C604 C605 1.376 . S
C605 H592 0.930 . S
C605 C604 1.376 . S
C605 C606 1.388 . S
C606 H593 0.930 . S
C606 C605 1.388 . S
C606 C607 1.390 . S
C607 C606 1.390 . S
C607 C608 1.394 . S
C607 C613 1.465 . S
C608 C603 1.399 . S
C608 C607 1.394 . S
C608 C609 1.516 . S
C609 C608 1.516 . S
C609 C610 1.502 . S
C609 C611 1.561 . S
C609 C612 1.526 . S
C610 H594 0.959 . S
C610 H595 0.959 . S
C610 H596 0.961 . S
C610 C609 1.502 . S
C611 H597 0.960 . S
C611 H598 0.961 . S
C611 H599 0.959 . S
C611 C609 1.561 . S
C612 C609 1.526 . S
C612 C613 1.396 . S
C612 C617 1.390 . S
C613 C607 1.465 . S
C613 C612 1.396 . S
C613 C614 1.399 . S
C614 H600 0.929 . S
C614 C613 1.399 . S
C614 C615 1.385 . S
C615 H601 0.931 1_545 S
C615 C614 1.385 . S
C615 C616 1.389 . S
C616 C615 1.389 . S
C616 C617 1.387 . S
C617 H602 0.930 . S
C617 C612 1.390 . S
C617 C616 1.387 . S
H618 C630 0.930 . S
H619 C632 0.930 . S
H620 C633 0.930 . S
H621 C637 0.959 . S
H622 C637 0.959 . S
H623 C637 0.961 . S
H624 C638 0.960 . S
H625 C638 0.961 . S
H626 C638 0.959 . S
H627 C641 0.929 . S
H628 C642 0.931 . S
H629 C644 0.930 . S
C630 H618 0.930 . S
C630 C631 1.399 . S
C630 C635 1.399 . S
C631 C630 1.399 . S
C631 C632 1.376 . S
C632 H619 0.930 . S
C632 C631 1.376 . S
C632 C633 1.388 . S
C633 H620 0.930 . S
C633 C632 1.388 . S
C633 C634 1.390 . S
C634 C633 1.390 . S
C634 C635 1.394 . S
C634 C640 1.465 . S
C635 C630 1.399 . S
C635 C634 1.394 . S
C635 C636 1.516 . S
C636 C635 1.516 . S
C636 C637 1.502 . S
C636 C638 1.561 . S
C636 C639 1.526 . S
C637 H621 0.959 . S
C637 H622 0.959 . S
C637 H623 0.961 . S
C637 C636 1.502 . S
C638 H624 0.960 . S
C638 H625 0.961 . S
C638 H626 0.959 . S
C638 C636 1.561 . S
C639 C636 1.526 . S
C639 C640 1.396 . S
C639 C644 1.390 . S
C640 C634 1.465 . S
C640 C639 1.396 . S
C640 C641 1.399 . S
C641 H627 0.929 . S
C641 C640 1.399 . S
C641 C642 1.385 . S
C642 H628 0.931 . S
C642 C641 1.385 . S
C642 C643 1.389 . S
C643 C642 1.389 . S
C643 C644 1.387 . S
C644 H629 0.930 . S
C644 C639 1.390 . S
C644 C643 1.387 . S
H645 C657 0.930 . S
H646 C659 0.930 . S
H647 C660 0.930 . S
H648 C664 0.959 . S
H649 C664 0.959 . S
H650 C664 0.961 . S
H651 C665 0.960 . S
H652 C665 0.961 . S
H653 C665 0.959 . S
H654 C668 0.929 . S
H655 C669 0.931 . S
H656 C671 0.930 . S
C657 H645 0.930 . S
C657 C658 1.399 . S
C657 C662 1.399 . S
C658 C657 1.399 . S
C658 C659 1.376 . S
C659 H646 0.930 . S
C659 C658 1.376 . S
C659 C660 1.388 . S
C660 H647 0.930 . S
C660 C659 1.388 . S
C660 C661 1.390 . S
C661 C660 1.390 . S
C661 C662 1.394 . S
C661 C667 1.465 . S
C662 C657 1.399 . S
C662 C661 1.394 . S
C662 C663 1.516 . S
C663 C662 1.516 . S
C663 C664 1.502 . S
C663 C665 1.561 . S
C663 C666 1.526 . S
C664 H648 0.959 . S
C664 H649 0.959 . S
C664 H650 0.961 . S
C664 C663 1.502 . S
C665 H651 0.960 . S
C665 H652 0.961 . S
C665 H653 0.959 . S
C665 C663 1.561 . S
C666 C663 1.526 . S
C666 C667 1.396 . S
C666 C671 1.390 . S
C667 C661 1.465 . S
C667 C666 1.396 . S
C667 C668 1.399 . S
C668 H654 0.929 . S
C668 C667 1.399 . S
C668 C669 1.385 . S
C669 H655 0.931 . S
C669 C668 1.385 . S
C669 C670 1.389 . S
C670 C669 1.389 . S
C670 C671 1.387 . S
C671 H656 0.930 . S
C671 C666 1.390 . S
C671 C670 1.387 . S
H672 C684 0.930 . S
H673 C686 0.930 . S
H674 C687 0.930 . S
H675 C691 0.959 1_556 S
H676 C691 0.959 . S
H677 C691 0.961 . S
H678 C692 0.960 . S
H679 C692 0.961 . S
H680 C692 0.959 . S
H681 C695 0.929 . S
H682 C696 0.931 1_545 S
H683 C698 0.930 . S
C684 H672 0.930 . S
C684 C685 1.399 . S
C684 C689 1.399 . S
C685 C684 1.399 . S
C685 C686 1.376 . S
C686 H673 0.930 . S
C686 C685 1.376 . S
C686 C687 1.388 . S
C687 H674 0.930 . S
C687 C686 1.388 . S
C687 C688 1.390 . S
C688 C687 1.390 . S
C688 C689 1.394 . S
C688 C694 1.465 . S
C689 C684 1.399 . S
C689 C688 1.394 . S
C689 C690 1.519 1_556 S
C690 C689 1.519 1_554 S
C690 C691 1.501 . S
C690 C692 1.559 . S
C690 C693 1.527 1_554 S
C691 H675 0.959 1_554 S
C691 H676 0.959 . S
C691 H677 0.961 . S
C691 C690 1.501 . S
C692 H678 0.960 . S
C692 H679 0.961 . S
C692 H680 0.959 . S
C692 C690 1.559 . S
C693 C690 1.527 1_556 S
C693 C694 1.396 . S
C693 C698 1.390 1_556 S
C694 C688 1.465 . S
C694 C693 1.396 . S
C694 C695 1.399 . S
C695 H681 0.929 . S
C695 C694 1.399 . S
C695 C696 1.385 . S
C696 H682 0.931 1_565 S
C696 C695 1.385 . S
C696 C697 1.389 . S
C697 C696 1.389 . S
C697 C698 1.387 1_556 S
C698 H683 0.930 . S
C698 C693 1.390 1_554 S
C698 C697 1.387 1_554 S
H699 C711 0.930 . S
H700 C713 0.930 . S
H701 C714 0.930 . S
H702 C718 0.959 . S
H703 C718 0.959 . S
H704 C718 0.961 . S
H705 C719 0.960 . S
H706 C719 0.961 1_565 S
H707 C719 0.959 . S
H708 C722 0.929 . S
H709 C723 0.931 . S
H710 C725 0.930 . S
C711 H699 0.930 . S
C711 C712 1.399 . S
C711 C716 1.399 . S
C712 C711 1.399 . S
C712 C713 1.376 . S
C713 H700 0.930 . S
C713 C712 1.376 . S
C713 C714 1.388 . S
C714 H701 0.930 . S
C714 C713 1.388 . S
C714 C715 1.390 . S
C715 C714 1.390 . S
C715 C716 1.394 . S
C715 C721 1.465 . S
C716 C711 1.399 . S
C716 C715 1.394 . S
C716 C717 1.516 . S
C717 C716 1.516 . S
C717 C718 1.502 . S
C717 C719 1.561 . S
C717 C720 1.526 . S
C718 H702 0.959 . S
C718 H703 0.959 . S
C718 H704 0.961 . S
C718 C717 1.502 . S
C719 H705 0.960 . S
C719 H706 0.961 1_545 S
C719 H707 0.959 . S
C719 C717 1.561 . S
C720 C717 1.526 . S
C720 C721 1.396 . S
C720 C725 1.390 . S
C721 C715 1.465 . S
C721 C720 1.396 . S
C721 C722 1.399 . S
C722 H708 0.929 . S
C722 C721 1.399 . S
C722 C723 1.385 . S
C723 H709 0.931 . S
C723 C722 1.385 . S
C723 C724 1.389 . S
C724 C723 1.389 . S
C724 C725 1.387 . S
C725 H710 0.930 . S
C725 C720 1.390 . S
C725 C724 1.387 . S
H726 C738 0.930 . S
H727 C740 0.930 . S
H728 C741 0.930 . S
H729 C745 0.959 . S
H730 C745 0.959 1_556 S
H731 C745 0.962 1_556 S
H732 C746 0.960 . S
H733 C746 0.961 . S
H734 C746 0.959 . S
H735 C749 0.929 . S
H736 C750 0.931 . S
H737 C752 0.930 . S
C738 H726 0.930 . S
C738 C739 1.399 . S
C738 C743 1.399 . S
C739 C738 1.399 . S
C739 C740 1.376 . S
C740 H727 0.930 . S
C740 C739 1.376 . S
C740 C741 1.388 . S
C741 H728 0.930 . S
C741 C740 1.388 . S
C741 C742 1.390 . S
C742 C741 1.390 . S
C742 C743 1.394 . S
C742 C748 1.465 . S
C743 C738 1.399 . S
C743 C742 1.394 . S
C743 C744 1.516 . S
C744 C743 1.516 . S
C744 C745 1.502 . S
C744 C746 1.561 . S
C744 C747 1.526 . S
C745 H729 0.959 . S
C745 H730 0.959 1_554 S
C745 H731 0.962 1_554 S
C745 C744 1.502 . S
C746 H732 0.960 . S
C746 H733 0.961 . S
C746 H734 0.959 . S
C746 C744 1.561 . S
C747 C744 1.526 . S
C747 C748 1.396 . S
C747 C752 1.390 . S
C748 C742 1.465 . S
C748 C747 1.396 . S
C748 C749 1.399 . S
C749 H735 0.929 . S
C749 C748 1.399 . S
C749 C750 1.385 . S
C750 H736 0.931 . S
C750 C749 1.385 . S
C750 C751 1.389 . S
C751 C750 1.389 . S
C751 C752 1.387 . S
C752 H737 0.930 . S
C752 C747 1.390 . S
C752 C751 1.387 . S
H753 C765 0.930 . S
H754 C767 0.930 . S
H755 C768 0.930 . S
H756 C772 0.959 . S
H757 C772 0.959 . S
H758 C772 0.961 . S
H759 C773 0.960 . S
H760 C773 0.961 . S
H761 C773 0.959 . S
H762 C776 0.929 . S
H763 C777 0.931 . S
H764 C779 0.930 . S
C765 H753 0.930 . S
C765 C766 1.399 . S
C765 C770 1.399 . S
C766 C765 1.399 . S
C766 C767 1.376 . S
C767 H754 0.930 . S
C767 C766 1.376 . S
C767 C768 1.388 . S
C768 H755 0.930 . S
C768 C767 1.388 . S
C768 C769 1.390 . S
C769 C768 1.390 . S
C769 C770 1.394 . S
C769 C775 1.465 . S
C770 C765 1.399 . S
C770 C769 1.394 . S
C770 C771 1.516 . S
C771 C770 1.516 . S
C771 C772 1.502 . S
C771 C773 1.561 . S
C771 C774 1.526 . S
C772 H756 0.959 . S
C772 H757 0.959 . S
C772 H758 0.961 . S
C772 C771 1.502 . S
C773 H759 0.960 . S
C773 H760 0.961 . S
C773 H761 0.959 . S
C773 C771 1.561 . S
C774 C771 1.526 . S
C774 C775 1.396 . S
C774 C779 1.390 . S
C775 C769 1.465 . S
C775 C774 1.396 . S
C775 C776 1.399 . S
C776 H762 0.929 . S
C776 C775 1.399 . S
C776 C777 1.385 . S
C777 H763 0.931 . S
C777 C776 1.385 . S
C777 C778 1.389 . S
C778 C777 1.389 . S
C778 C779 1.387 . S
C779 H764 0.930 . S
C779 C774 1.390 . S
C779 C778 1.387 . S
H780 C792 0.930 1_554 S
H781 C794 0.930 . S
H782 C795 0.930 1_455 S
H783 C799 0.959 1_455 S
H784 C799 0.959 . S
H785 C799 0.961 . S
H786 C800 0.960 . S
H787 C800 0.961 . S
H788 C800 0.959 . S
H789 C803 0.929 . S
H790 C804 0.931 . S
H791 C806 0.930 1_655 S
C792 H780 0.930 1_556 S
C792 C793 1.399 . S
C792 C797 1.399 . S
C793 C792 1.399 . S
C793 C794 1.376 . S
C794 H781 0.930 . S
C794 C793 1.376 . S
C794 C795 1.388 . S
C795 H782 0.930 1_655 S
C795 C794 1.388 . S
C795 C796 1.390 . S
C796 C795 1.390 . S
C796 C797 1.394 . S
C796 C802 1.465 1_655 S
C797 C792 1.399 . S
C797 C796 1.394 . S
C797 C798 1.516 1_556 S
C798 C797 1.516 1_554 S
C798 C799 1.502 . S
C798 C800 1.561 . S
C798 C801 1.526 1_554 S
C799 H783 0.959 1_655 S
C799 H784 0.959 . S
C799 H785 0.961 . S
C799 C798 1.502 . S
C800 H786 0.960 . S
C800 H787 0.961 . S
C800 H788 0.959 . S
C800 C798 1.561 . S
C801 C798 1.526 1_556 S
C801 C802 1.396 1_655 S
C801 C806 1.390 1_656 S
C802 C796 1.465 1_455 S
C802 C801 1.396 1_455 S
C802 C803 1.399 . S
C803 H789 0.929 . S
C803 C802 1.399 . S
C803 C804 1.385 . S
C804 H790 0.931 . S
C804 C803 1.385 . S
C804 C805 1.389 . S
C805 C804 1.389 . S
C805 C806 1.387 1_556 S
C806 H791 0.930 1_455 S
C806 C801 1.390 1_454 S
C806 C805 1.387 1_554 S
H807 C819 0.930 . S
H808 C821 0.930 . S
H809 C822 0.930 . S
H810 C826 0.959 . S
H811 C826 0.959 . S
H812 C826 0.961 . S
H813 C827 0.960 . S
H814 C827 0.961 . S
H815 C827 0.959 . S
H816 C830 0.929 . S
H817 C831 0.931 . S
H818 C833 0.930 . S
C819 H807 0.930 . S
C819 C820 1.399 . S
C819 C824 1.399 . S
C820 C819 1.399 . S
C820 C821 1.376 . S
C821 H808 0.930 . S
C821 C820 1.376 . S
C821 C822 1.388 . S
C822 H809 0.930 . S
C822 C821 1.388 . S
C822 C823 1.390 . S
C823 C822 1.390 . S
C823 C824 1.394 . S
C823 C829 1.465 . S
C824 C819 1.399 . S
C824 C823 1.394 . S
C824 C825 1.516 . S
C825 C824 1.516 . S
C825 C826 1.502 . S
C825 C827 1.561 . S
C825 C828 1.526 . S
C826 H810 0.959 . S
C826 H811 0.959 . S
C826 H812 0.961 . S
C826 C825 1.502 . S
C827 H813 0.960 . S
C827 H814 0.961 . S
C827 H815 0.959 . S
C827 C825 1.561 . S
C828 C825 1.526 . S
C828 C829 1.396 . S
C828 C833 1.390 . S
C829 C823 1.465 . S
C829 C828 1.396 . S
C829 C830 1.399 . S
C830 H816 0.929 . S
C830 C829 1.399 . S
C830 C831 1.385 . S
C831 H817 0.931 . S
C831 C830 1.385 . S
C831 C832 1.389 . S
C832 C831 1.389 . S
C832 C833 1.387 . S
C833 H818 0.930 . S
C833 C828 1.390 . S
C833 C832 1.387 . S
H834 C846 0.930 . S
H835 C848 0.930 . S
H836 C849 0.930 . S
H837 C853 0.959 . S
H838 C853 0.959 . S
H839 C853 0.961 . S
H840 C854 0.960 . S
H841 C854 0.961 . S
H842 C854 0.959 . S
H843 C857 0.929 . S
H844 C858 0.931 . S
H845 C860 0.930 . S
C846 H834 0.930 . S
C846 C847 1.399 . S
C846 C851 1.399 . S
C847 C846 1.399 . S
C847 C848 1.376 . S
C848 H835 0.930 . S
C848 C847 1.376 . S
C848 C849 1.388 . S
C849 H836 0.930 . S
C849 C848 1.388 . S
C849 C850 1.390 . S
C850 C849 1.390 . S
C850 C851 1.394 . S
C850 C856 1.465 . S
C851 C846 1.399 . S
C851 C850 1.394 . S
C851 C852 1.516 . S
C852 C851 1.516 . S
C852 C853 1.502 . S
C852 C854 1.561 . S
C852 C855 1.526 . S
C853 H837 0.959 . S
C853 H838 0.959 . S
C853 H839 0.961 . S
C853 C852 1.502 . S
C854 H840 0.960 . S
C854 H841 0.961 . S
C854 H842 0.959 . S
C854 C852 1.561 . S
C855 C852 1.526 . S
C855 C856 1.396 . S
C855 C860 1.390 . S
C856 C850 1.465 . S
C856 C855 1.396 . S
C856 C857 1.399 . S
C857 H843 0.929 . S
C857 C856 1.399 . S
C857 C858 1.385 . S
C858 H844 0.931 . S
C858 C857 1.385 . S
C858 C859 1.389 . S
C859 C858 1.389 . S
C859 C860 1.387 . S
C860 H845 0.930 . S
C860 C855 1.390 . S
C860 C859 1.387 . S
H861 C873 0.930 . S
H862 C875 0.930 . S
H863 C876 0.930 . S
H864 C880 0.959 . S
H865 C880 0.959 . S
H866 C880 0.961 . S
H867 C881 0.960 . S
H868 C881 0.961 . S
H869 C881 0.959 . S
H870 C884 0.929 . S
H871 C885 0.931 . S
H872 C887 0.930 . S
C873 H861 0.930 . S
C873 C874 1.399 . S
C873 C878 1.399 . S
C874 C873 1.399 . S
C874 C875 1.376 . S
C875 H862 0.930 . S
C875 C874 1.376 . S
C875 C876 1.388 . S
C876 H863 0.930 . S
C876 C875 1.388 . S
C876 C877 1.390 . S
C877 C876 1.390 . S
C877 C878 1.394 . S
C877 C883 1.465 . S
C878 C873 1.399 . S
C878 C877 1.394 . S
C878 C879 1.516 . S
C879 C878 1.516 . S
C879 C880 1.502 . S
C879 C881 1.561 . S
C879 C882 1.526 . S
C880 H864 0.959 . S
C880 H865 0.959 . S
C880 H866 0.961 . S
C880 C879 1.502 . S
C881 H867 0.960 . S
C881 H868 0.961 . S
C881 H869 0.959 . S
C881 C879 1.561 . S
C882 C879 1.526 . S
C882 C883 1.396 . S
C882 C887 1.390 . S
C883 C877 1.465 . S
C883 C882 1.396 . S
C883 C884 1.399 . S
C884 H870 0.929 . S
C884 C883 1.399 . S
C884 C885 1.385 . S
C885 H871 0.931 . S
C885 C884 1.385 . S
C885 C886 1.389 . S
C886 C885 1.389 . S
C886 C887 1.387 . S
C887 H872 0.930 . S
C887 C882 1.390 . S
C887 C886 1.387 . S
C253 C9 2.751 . S
C265 C104 2.754 . S
C280 C21 2.219 . S
C292 C146 2.230 1_565 S
C319 C176 0.750 . S
C307 C30 0.704 . S
C334 C43 0.738 . S
C346 C210 0.831 . S
C373 C167 1.751 . S
C361 C4 1.737 . S
C400 C121 2.325 1_565 S
C388 C22 2.301 . S
C427 C214 0.946 . S
C415 C34 0.972 . S
C454 C180 1.175 . S
C442 C48 1.136 . S
C469 C8 2.280 . S
C481 C235 2.276 . S
C508 C142 1.178 . S
C496 C35 1.179 . S
C523 C47 1.150 . S
C535 C117 1.159 . S
C550 C17 1.939 . S
C562 C201 1.952 . S
C589 C133 2.324 1_665 S
C577 C60 2.318 . S
C604 C74 2.540 . S
C616 C155 2.558 . S
C631 C82 0.589 . S
C643 C185 0.587 . S
C658 C100 1.227 . S
C670 C219 1.288 . S
C685 C61 2.143 . S
C697 C138 2.167 1_556 S
C724 C112 1.932 . S
C712 C73 1.905 . S
C751 C223 1.446 . S
C739 C87 1.421 . S
C778 C189 0.855 . S
C766 C95 0.781 . S
C793 C56 2.189 . S
C805 C206 2.305 1_556 S
C832 C151 1.176 . S
C820 C86 1.216 . S
C859 C108 1.052 . S
C847 C99 1.020 . S
C874 C69 2.064 . S
C886 C172 2.076 . S
