# Generated by pormake.
# Topology ctn, (3,4)-cn, num edge types: 1
# Building blocks:
#     Node 0, Type 0, BuildingBlock: BETDAH_clean_linker_0, # of connection points: 3
#     Node 1, Type 0, BuildingBlock: BETDAH_clean_linker_0, # of connection points: 3
#     Node 2, Type 0, BuildingBlock: BETDAH_clean_linker_0, # of connection points: 3
#     Node 3, Type 0, BuildingBlock: BETDAH_clean_linker_0, # of connection points: 3
#     Node 4, Type 0, BuildingBlock: BETDAH_clean_linker_0, # of connection points: 3
#     Node 5, Type 0, BuildingBlock: BETDAH_clean_linker_0, # of connection points: 3
#     Node 6, Type 0, BuildingBlock: BETDAH_clean_linker_0, # of connection points: 3
#     Node 7, Type 0, BuildingBlock: BETDAH_clean_linker_0, # of connection points: 3
#     Node 8, Type 0, BuildingBlock: BETDAH_clean_linker_0, # of connection points: 3
#     Node 9, Type 0, BuildingBlock: BETDAH_clean_linker_0, # of connection points: 3
#     Node 10, Type 0, BuildingBlock: BETDAH_clean_linker_0, # of connection points: 3
#     Node 11, Type 0, BuildingBlock: BETDAH_clean_linker_0, # of connection points: 3
#     Node 12, Type 0, BuildingBlock: BETDAH_clean_linker_0, # of connection points: 3
#     Node 13, Type 0, BuildingBlock: BETDAH_clean_linker_0, # of connection points: 3
#     Node 14, Type 0, BuildingBlock: BETDAH_clean_linker_0, # of connection points: 3
#     Node 15, Type 0, BuildingBlock: BETDAH_clean_linker_0, # of connection points: 3
#     Node 16, Type 1, BuildingBlock: NAHDIM_clean_sbu_0, # of connection points: 4
#     Node 17, Type 1, BuildingBlock: NAHDIM_clean_sbu_0, # of connection points: 4
#     Node 18, Type 1, BuildingBlock: NAHDIM_clean_sbu_0, # of connection points: 4
#     Node 19, Type 1, BuildingBlock: NAHDIM_clean_sbu_0, # of connection points: 4
#     Node 20, Type 1, BuildingBlock: NAHDIM_clean_sbu_0, # of connection points: 4
#     Node 21, Type 1, BuildingBlock: NAHDIM_clean_sbu_0, # of connection points: 4
#     Node 22, Type 1, BuildingBlock: NAHDIM_clean_sbu_0, # of connection points: 4
#     Node 23, Type 1, BuildingBlock: NAHDIM_clean_sbu_0, # of connection points: 4
#     Node 24, Type 1, BuildingBlock: NAHDIM_clean_sbu_0, # of connection points: 4
#     Node 25, Type 1, BuildingBlock: NAHDIM_clean_sbu_0, # of connection points: 4
#     Node 26, Type 1, BuildingBlock: NAHDIM_clean_sbu_0, # of connection points: 4
#     Node 27, Type 1, BuildingBlock: NAHDIM_clean_sbu_0, # of connection points: 4
#     Edge 28, Type (0, 1), BuildingBlock: EZIPEK_clean_linker_0, # of connection points: 2
#     Edge 29, Type (0, 1), BuildingBlock: EZIPEK_clean_linker_0, # of connection points: 2
#     Edge 30, Type (0, 1), BuildingBlock: EZIPEK_clean_linker_0, # of connection points: 2
#     Edge 31, Type (0, 1), BuildingBlock: EZIPEK_clean_linker_0, # of connection points: 2
#     Edge 32, Type (0, 1), BuildingBlock: EZIPEK_clean_linker_0, # of connection points: 2
#     Edge 33, Type (0, 1), BuildingBlock: EZIPEK_clean_linker_0, # of connection points: 2
#     Edge 34, Type (0, 1), BuildingBlock: EZIPEK_clean_linker_0, # of connection points: 2
#     Edge 35, Type (0, 1), BuildingBlock: EZIPEK_clean_linker_0, # of connection points: 2
#     Edge 36, Type (0, 1), BuildingBlock: EZIPEK_clean_linker_0, # of connection points: 2
#     Edge 37, Type (0, 1), BuildingBlock: EZIPEK_clean_linker_0, # of connection points: 2
#     Edge 38, Type (0, 1), BuildingBlock: EZIPEK_clean_linker_0, # of connection points: 2
#     Edge 39, Type (0, 1), BuildingBlock: EZIPEK_clean_linker_0, # of connection points: 2
#     Edge 40, Type (0, 1), BuildingBlock: EZIPEK_clean_linker_0, # of connection points: 2
#     Edge 41, Type (0, 1), BuildingBlock: EZIPEK_clean_linker_0, # of connection points: 2
#     Edge 42, Type (0, 1), BuildingBlock: EZIPEK_clean_linker_0, # of connection points: 2
#     Edge 43, Type (0, 1), BuildingBlock: EZIPEK_clean_linker_0, # of connection points: 2
#     Edge 44, Type (0, 1), BuildingBlock: EZIPEK_clean_linker_0, # of connection points: 2
#     Edge 45, Type (0, 1), BuildingBlock: EZIPEK_clean_linker_0, # of connection points: 2
#     Edge 46, Type (0, 1), BuildingBlock: EZIPEK_clean_linker_0, # of connection points: 2
#     Edge 47, Type (0, 1), BuildingBlock: EZIPEK_clean_linker_0, # of connection points: 2
#     Edge 48, Type (0, 1), BuildingBlock: EZIPEK_clean_linker_0, # of connection points: 2
#     Edge 49, Type (0, 1), BuildingBlock: EZIPEK_clean_linker_0, # of connection points: 2
#     Edge 50, Type (0, 1), BuildingBlock: EZIPEK_clean_linker_0, # of connection points: 2
#     Edge 51, Type (0, 1), BuildingBlock: EZIPEK_clean_linker_0, # of connection points: 2
#     Edge 52, Type (0, 1), BuildingBlock: EZIPEK_clean_linker_0, # of connection points: 2
#     Edge 53, Type (0, 1), BuildingBlock: EZIPEK_clean_linker_0, # of connection points: 2
#     Edge 54, Type (0, 1), BuildingBlock: EZIPEK_clean_linker_0, # of connection points: 2
#     Edge 55, Type (0, 1), BuildingBlock: EZIPEK_clean_linker_0, # of connection points: 2
#     Edge 56, Type (0, 1), BuildingBlock: EZIPEK_clean_linker_0, # of connection points: 2
#     Edge 57, Type (0, 1), BuildingBlock: EZIPEK_clean_linker_0, # of connection points: 2
#     Edge 58, Type (0, 1), BuildingBlock: EZIPEK_clean_linker_0, # of connection points: 2
#     Edge 59, Type (0, 1), BuildingBlock: EZIPEK_clean_linker_0, # of connection points: 2
#     Edge 60, Type (0, 1), BuildingBlock: EZIPEK_clean_linker_0, # of connection points: 2
#     Edge 61, Type (0, 1), BuildingBlock: EZIPEK_clean_linker_0, # of connection points: 2
#     Edge 62, Type (0, 1), BuildingBlock: EZIPEK_clean_linker_0, # of connection points: 2
#     Edge 63, Type (0, 1), BuildingBlock: EZIPEK_clean_linker_0, # of connection points: 2
#     Edge 64, Type (0, 1), BuildingBlock: EZIPEK_clean_linker_0, # of connection points: 2
#     Edge 65, Type (0, 1), BuildingBlock: EZIPEK_clean_linker_0, # of connection points: 2
#     Edge 66, Type (0, 1), BuildingBlock: EZIPEK_clean_linker_0, # of connection points: 2
#     Edge 67, Type (0, 1), BuildingBlock: EZIPEK_clean_linker_0, # of connection points: 2
#     Edge 68, Type (0, 1), BuildingBlock: EZIPEK_clean_linker_0, # of connection points: 2
#     Edge 69, Type (0, 1), BuildingBlock: EZIPEK_clean_linker_0, # of connection points: 2
#     Edge 70, Type (0, 1), BuildingBlock: EZIPEK_clean_linker_0, # of connection points: 2
#     Edge 71, Type (0, 1), BuildingBlock: EZIPEK_clean_linker_0, # of connection points: 2
#     Edge 72, Type (0, 1), BuildingBlock: EZIPEK_clean_linker_0, # of connection points: 2
#     Edge 73, Type (0, 1), BuildingBlock: EZIPEK_clean_linker_0, # of connection points: 2
#     Edge 74, Type (0, 1), BuildingBlock: EZIPEK_clean_linker_0, # of connection points: 2
#     Edge 75, Type (0, 1), BuildingBlock: EZIPEK_clean_linker_0, # of connection points: 2
# Relax obj value: 0.050
# Max RMSD: 0.157
# Mean RMSD: 0.098
data_MOF--net-ctn--node1-NAHDIM_clean_sbu_0--node2-BETDAH_clean_linker_0--edge1-EZIPEK_clean_linker_0
_symmetry_space_group_name_H-M    P1
_symmetry_Int_Tables_number       1
_symmetry_cell_setting            triclinic
loop_
_symmetry_equiv_pos_as_xyz
'x, y, z'
_cell_length_a     39.011228
_cell_length_b     39.108097
_cell_length_c     39.336468
_cell_angle_alpha  100.90454
_cell_angle_beta   90.28714
_cell_angle_gamma 97.836436
loop_
_atom_site_label
_atom_site_type_symbol
_atom_site_fract_x
_atom_site_fract_y
_atom_site_fract_z
_atom_type_partial_charge
H0 H 0.07157 0.98733 0.11298 0.0
H1 H 0.07756 0.0213 0.0148 0.0
H2 H 0.98792 0.0335 0.07647 0.0
C3 C 0.06058 0.99952 0.0937 0.0
C4 C 0.02804 0.0109 0.09868 0.0
C5 C 0.07849 1.00311 0.06336 0.0
C6 C 0.06403 0.01886 0.03841 0.0
C7 C 0.03129 0.0298 0.04324 0.0
C8 C 0.01339 0.0254 0.07309 0.0
N9 N 0.01473 0.04318 0.01753 0.0
C10 C 0.0309 0.06962 1.00172 0.0
H11 H 0.32459 0.69393 0.28959 0.0
H12 H 0.36969 0.7924 0.26705 0.0
H13 H 0.28246 0.73481 0.20622 0.0
C14 C 0.3256 0.71258 0.27239 0.0
C15 C 0.30309 0.7064 0.2428 0.0
C16 C 0.35002 0.74284 0.28069 0.0
C17 C 0.35076 0.76894 0.26083 0.0
C18 C 0.32645 0.76581 0.23392 0.0
C19 C 0.30214 0.73506 0.22546 0.0
N20 N 0.32727 0.7945 0.21638 0.0
C21 C 0.30619 0.79573 0.18816 0.0
H22 H 0.07042 0.44029 0.05844 0.0
H23 H 0.01422 0.52707 0.05472 0.0
H24 H 0.01606 0.44534 0.96467 0.0
C25 C 0.0542 0.45358 0.0443 0.0
C26 C 0.0444 0.43917 0.00976 0.0
C27 C 0.04346 0.48533 0.06051 0.0
C28 C 0.02228 0.50246 0.04215 0.0
C29 C 0.01228 0.48787 0.0074 0.0
C30 C 0.02367 0.4565 0.99145 0.0
N31 N 0.99141 0.50404 0.98727 0.0
C32 C 0.97175 0.53031 1.00041 0.0
H33 H 0.78835 0.82378 0.17668 0.0
H34 H 0.71973 0.73441 0.19393 0.0
H35 H 0.73123 0.82786 0.2709 0.0
C36 C 0.76866 0.81302 0.19247 0.0
C37 C 0.75808 0.83375 0.22323 0.0
C38 C 0.7543 0.77774 0.18134 0.0
C39 C 0.73092 0.7617 0.20225 0.0
C40 C 0.72232 0.7802 0.23415 0.0
C41 C 0.7364 0.81572 0.24496 0.0
N42 N 0.70012 0.76188 0.2552 0.0
C43 C 0.67918 0.7779 0.28001 0.0
H44 H 0.0716 0.02664 0.42783 0.0
H45 H 0.0788 0.98647 0.5221 0.0
H46 H 0.9818 0.97009 0.4647 0.0
C47 C 0.05974 0.01229 0.4468 0.0
C48 C 0.02478 0.99794 0.44253 0.0
C49 C 0.07943 0.00852 0.47551 0.0
C50 C 0.06388 0.98927 0.49973 0.0
C51 C 0.0284 0.97573 0.49596 0.0
C52 C 0.00911 0.98045 0.46754 0.0
N53 N 0.0105 0.95973 0.52145 0.0
C54 C 0.02332 0.93646 0.53926 0.0
H55 H 0.2916 0.706 0.87879 0.0
H56 H 0.22409 0.74695 0.81625 0.0
H57 H 0.26097 0.64983 0.77553 0.0
C58 C 0.27599 0.70137 0.85539 0.0
C59 C 0.27514 0.67038 0.82989 0.0
C60 C 0.25722 0.7285 0.8508 0.0
C61 C 0.23845 0.72596 0.81973 0.0
C62 C 0.23991 0.69715 0.79275 0.0
C63 C 0.25902 0.67058 0.79762 0.0
N64 N 0.22327 0.69405 0.75991 0.0
C65 C 0.19572 0.71123 0.75337 0.0
H66 H 0.94038 0.57373 0.54366 0.0
H67 H 0.02281 0.58623 0.47255 0.0
H68 H 0.95015 0.491 0.4567 0.0
C69 C 0.95373 0.56353 0.52063 0.0
C70 C 0.9419 0.52989 0.50144 0.0
C71 C 0.98304 0.58383 0.51041 0.0
C72 C 1.00028 0.57051 0.48042 0.0
C73 C 0.9882 0.53693 0.46088 0.0
C74 C 0.95926 0.51694 0.47168 0.0
N75 N 0.00404 0.52199 0.43023 0.0
C76 C 0.03372 0.53688 0.41613 0.0
H77 H 0.87269 0.74494 0.81817 0.0
H78 H 0.83336 0.83034 0.78266 0.0
H79 H 0.78865 0.79138 0.87 0.0
C80 C 0.85483 0.76416 0.82062 0.0
C81 C 0.83075 0.76563 0.84712 0.0
C82 C 0.85602 0.78762 0.7974 0.0
C83 C 0.83272 0.81252 0.80072 0.0
C84 C 0.80827 0.81372 0.82695 0.0
C85 C 0.80749 0.79026 0.84978 0.0
N86 N 0.78336 0.83734 0.83095 0.0
C87 C 0.78507 0.8677 0.81716 0.0
H88 H 0.34972 0.24086 0.30495 0.0
H89 H 0.30569 0.326 0.27392 0.0
H90 H 0.26213 0.27907 0.35738 0.0
C91 C 0.33056 0.25877 0.30801 0.0
C92 C 0.30571 0.25693 0.3335 0.0
C93 C 0.33071 0.28375 0.28648 0.0
C94 C 0.30569 0.30695 0.29063 0.0
C95 C 0.28095 0.30531 0.31643 0.0
C96 C 0.28121 0.28029 0.33753 0.0
N97 N 0.25531 0.32812 0.3224 0.0
C98 C 0.25077 0.35483 0.30467 0.0
H99 H 0.56257 0.95578 0.59341 0.0
H100 H 0.52898 0.05728 0.62104 0.0
H101 H 0.49064 0.98754 0.5262 0.0
C102 C 0.547 0.9751 0.58777 0.0
C103 C 0.52656 0.96807 0.5572 0.0
C104 C 0.5479 0.0072 0.61078 0.0
C105 C 0.52818 0.03234 0.60325 0.0
C106 C 0.5071 0.02543 0.57313 0.0
C107 C 0.50632 0.9931 0.54993 0.0
N108 N 0.48765 0.05191 0.56698 0.0
C109 C 0.46105 0.04707 0.54218 0.0
H110 H 0.33355 0.31151 0.65819 0.0
H111 H 0.2834 0.2173 0.68826 0.0
H112 H 0.31227 0.31033 0.76551 0.0
C113 C 0.32249 0.298 0.67809 0.0
C114 C 0.32476 0.31539 0.71297 0.0
C115 C 0.30803 0.26251 0.66918 0.0
C116 C 0.29435 0.24481 0.69496 0.0
C117 C 0.29497 0.26233 0.72942 0.0
C118 C 0.31054 0.29739 0.73851 0.0
N119 N 0.28154 0.24382 0.75506 0.0
C120 C 0.25158 0.25155 0.77187 0.0
H121 H 0.8604 0.19274 0.78803 0.0
H122 H 0.91792 0.27372 0.74294 0.0
H123 H 0.81213 0.23498 0.70938 0.0
C124 C 0.86176 0.21064 0.76997 0.0
C125 C 0.83277 0.21123 0.74895 0.0
C126 C 0.89243 0.23325 0.76796 0.0
C127 C 0.89416 0.25621 0.74453 0.0
C128 C 0.86552 0.25721 0.72337 0.0
C129 C 0.83454 0.23462 0.7256 0.0
N130 N 0.86947 0.28123 0.70031 0.0
C131 C 0.8436 0.28874 0.6796 0.0
H132 H 0.58772 0.51825 0.61947 0.0
H133 H 0.5857 0.52217 0.51098 0.0
H134 H 0.50822 0.56544 0.57647 0.0
C135 C 0.57643 0.52657 0.59767 0.0
C136 C 0.54651 0.54311 0.60197 0.0
C137 C 0.59078 0.51922 0.56493 0.0
C138 C 0.57526 0.52867 0.53651 0.0
C139 C 0.54614 0.54619 0.54072 0.0
C140 C 0.53177 0.55349 0.57351 0.0
N141 N 0.52938 0.55247 0.51099 0.0
C142 C 0.52494 0.58591 0.50622 0.0
H143 H 0.58064 0.53301 0.9363 0.0
H144 H 0.58759 0.51319 0.04007 0.0
H145 H 0.4898 0.49049 0.98393 0.0
C146 C 0.56871 0.52291 0.95791 0.0
C147 C 0.53315 0.51063 0.95621 0.0
C148 C 0.58846 0.52416 0.98816 0.0
C149 C 0.57273 0.51133 0.01629 0.0
C150 C 0.53712 0.49873 0.01457 0.0
C151 C 0.51747 0.49902 0.98475 0.0
N152 N 0.51963 0.49074 0.04416 0.0
C153 C 0.52539 0.46314 0.06018 0.0
H154 H 0.78782 0.21674 0.36968 0.0
H155 H 0.70955 0.25815 0.31817 0.0
H156 H 0.74955 0.16479 0.26778 0.0
C157 C 0.77088 0.21523 0.34734 0.0
C158 C 0.77118 0.18778 0.31877 0.0
C159 C 0.74882 0.24077 0.34716 0.0
C160 C 0.72658 0.23848 0.31823 0.0
C161 C 0.72694 0.21097 0.28942 0.0
C162 C 0.74934 0.18599 0.28994 0.0
N163 N 0.70565 0.20735 0.25922 0.0
C164 C 0.67948 0.22718 0.25504 0.0
H165 H 0.43597 0.07438 0.04638 0.0
H166 H 0.52606 0.08985 0.98529 0.0
H167 H 0.45875 0.99096 0.96527 0.0
C168 C 0.45233 0.06447 0.02566 0.0
C169 C 0.44374 0.03015 0.0066 0.0
C170 C 0.48212 0.08596 0.01815 0.0
C171 C 0.50316 0.07316 0.99102 0.0
C172 C 0.49472 0.03871 0.97191 0.0
C173 C 0.46518 0.01751 0.97998 0.0
N174 N 0.51512 0.02414 0.94453 0.0
C175 C 0.54477 0.04151 0.93254 0.0
C176 C 0.20743 0.94634 0.03487 0.0
O177 O 0.23275 0.9652 0.022 0.0
O178 O 0.24694 0.85758 0.98402 0.0
Zn179 Zn 0.25537 0.89442 0.02828 0.0
O180 O 0.2948 0.93252 0.02256 0.0
C181 C 0.2488 0.84474 0.07524 0.0
O182 O 0.21937 0.83233 0.05812 0.0
O183 O 0.21126 0.91585 0.03987 0.0
C184 C 0.32608 0.93035 0.03017 0.0
O185 O 0.33322 0.90303 0.04242 0.0
C186 C 0.27171 0.84408 0.96824 0.0
O187 O 0.30363 0.85476 0.98013 0.0
O188 O 0.26806 0.87075 0.06716 0.0
C189 C 0.2039 0.47839 0.27247 0.0
O190 O 0.21579 0.50805 0.29337 0.0
O191 O 0.12886 0.53221 0.28773 0.0
Zn192 Zn 0.15928 0.52194 0.24643 0.0
O193 O 0.1972 0.56162 0.24316 0.0
C194 C 0.10329 0.52626 0.19861 0.0
O195 O 0.09221 0.54749 0.22491 0.0
O196 O 0.18045 0.47811 0.24978 0.0
C197 C 0.19423 0.59417 0.24992 0.0
O198 O 0.165 0.60421 0.2616 0.0
C199 C 0.13915 0.54992 0.3174 0.0
O200 O 0.17149 0.56482 0.32261 0.0
O201 O 0.13051 0.51255 0.2021 0.0
C202 C 0.86693 0.62075 0.01354 0.0
O203 O 0.87178 0.65475 0.02586 0.0
O204 O 0.80182 0.65572 0.95647 0.0
Zn205 Zn 0.79728 0.63317 0.99923 0.0
O206 O 0.75216 0.59951 0.99831 0.0
C207 C 0.77508 0.68915 0.04949 0.0
O208 O 0.75036 0.68643 0.02598 0.0
O209 O 0.83732 0.60579 1.00112 0.0
C210 C 0.72375 0.60465 0.98544 0.0
O211 O 0.72292 0.63216 0.97099 0.0
C212 C 0.81572 0.68752 0.95875 0.0
O213 O 0.82668 0.70602 0.98921 0.0
O214 O 0.79913 0.67017 0.04317 0.0
C215 C 0.85633 0.07607 0.30923 0.0
O216 O 0.85476 0.0552 0.33189 0.0
O217 O 0.92249 0.0212 0.31774 0.0
Zn218 Zn 0.89774 0.02583 0.27352 0.0
O219 O 0.85943 0.98508 0.25882 0.0
C220 C 0.94114 1.00129 0.21643 0.0
O221 O 0.93052 0.97043 0.22419 0.0
O222 O 0.87428 0.06958 0.28247 0.0
C223 C 0.85635 0.9559 0.26906 0.0
O224 O 0.87943 0.95021 0.29098 0.0
C225 C 0.95165 0.01011 0.318 0.0
O226 O 0.9669 1.00071 0.28876 0.0
O227 O 0.93093 0.02864 0.23401 0.0
C228 C 0.34421 0.07459 0.46978 0.0
O229 O 0.3351 0.06631 0.43674 0.0
O230 O 0.2966 0.14052 0.43734 0.0
Zn231 Zn 0.2867 0.11768 0.4794 0.0
O232 O 0.24274 0.0824 0.47442 0.0
C233 C 0.30977 0.17703 0.53229 0.0
O234 O 0.33824 0.17592 0.51465 0.0
O235 O 0.32727 0.09437 0.49065 0.0
C236 C 0.21355 0.09322 0.47963 0.0
O237 O 0.21225 0.12721 0.48646 0.0
C238 C 0.28207 0.16687 0.43365 0.0
O239 O 0.25972 0.17828 0.45639 0.0
O240 O 0.28301 0.15521 0.52151 0.0
C241 C 0.37091 0.57011 0.81498 0.0
O242 O 0.3762 0.54966 0.8368 0.0
O243 O 0.45089 0.53014 0.81584 0.0
Zn244 Zn 0.41863 0.5302 0.7747 0.0
O245 O 0.38881 0.48308 0.76006 0.0
C246 C 0.47742 0.55232 0.73295 0.0
O247 O 0.49404 0.56586 0.76258 0.0
O248 O 0.38674 0.56729 0.78662 0.0
C249 C 0.40248 0.45498 0.7564 0.0
O250 O 0.43582 0.45723 0.76302 0.0
C251 C 0.44391 0.51032 0.83785 0.0
O252 O 0.41471 0.48871 0.83468 0.0
O253 O 0.44628 0.53754 0.73267 0.0
C254 C 0.70982 0.44592 0.53626 0.0
O255 O 0.73252 0.45794 0.51532 0.0
O256 O 0.74558 0.35869 0.49177 0.0
Zn257 Zn 0.75679 0.39499 0.53632 0.0
O258 O 0.79656 0.43265 0.52986 0.0
C259 C 0.78541 0.34556 0.57229 0.0
O260 O 0.79544 0.33231 0.54136 0.0
O261 O 0.71452 0.41907 0.54865 0.0
C262 C 0.82849 0.4299 0.53302 0.0
O263 O 0.83747 0.40137 0.54147 0.0
C264 C 0.76847 0.34966 0.47023 0.0
O265 O 0.80076 0.36437 0.47626 0.0
O266 O 0.76829 0.37142 0.57603 0.0
C267 C 0.74793 0.99707 0.79083 0.0
O268 O 0.76806 0.02745 0.79524 0.0
O269 O 0.6602 0.04371 0.82274 0.0
Zn270 Zn 0.69157 0.0377 0.78163 0.0
O271 O 0.72669 0.08043 0.77928 0.0
C272 C 0.63253 0.03716 0.73681 0.0
O273 O 0.62094 0.05528 0.76491 0.0
O274 O 0.71574 0.99551 0.78426 0.0
C275 C 0.71843 0.10854 0.77174 0.0
O276 O 0.6857 0.11155 0.76719 0.0
C277 C 0.65639 0.07131 0.84452 0.0
O278 O 0.67517 0.10141 0.84281 0.0
O279 O 0.66189 0.02665 0.7377 0.0
C280 C 0.05321 0.18955 0.9371 0.0
O281 O 0.02936 0.21034 0.94399 0.0
O282 O 0.03292 0.22685 0.86065 0.0
Zn283 Zn 0.07543 0.23791 0.89321 0.0
O284 O 0.07159 0.28077 0.9305 0.0
C285 C 0.12221 0.25781 0.83998 0.0
O286 O 0.09561 0.2699 0.82825 0.0
O287 O 0.07673 0.1963 0.91619 0.0
C288 C 0.07964 0.31204 0.9256 0.0
O289 O 0.09324 0.31728 0.89624 0.0
C290 C 0.01595 0.25051 0.85407 0.0
O291 O 0.02613 0.28358 0.86796 0.0
O292 O 0.11942 0.24415 0.86687 0.0
C293 C 0.502 0.7088 0.45349 0.0
O294 O 0.47 0.71195 0.44556 0.0
O295 O 0.48241 0.75834 0.38563 0.0
Zn296 Zn 0.52235 0.7701 0.42039 0.0
O297 O 0.51615 0.81503 0.45289 0.0
C298 C 0.57076 0.80081 0.37514 0.0
O299 O 0.54891 0.82372 0.37619 0.0
O300 O 0.52687 0.73047 0.44605 0.0
C301 C 0.54157 0.83518 0.46934 0.0
O302 O 0.57283 0.8263 0.46608 0.0
C303 C 0.45141 0.76206 0.39354 0.0
O304 O 0.44403 0.77205 0.42615 0.0
O305 O 0.56541 0.77678 0.39296 0.0
C306 C 0.01597 0.81977 0.60856 0.0
O307 O 0.99238 0.79363 0.59445 0.0
O308 O 0.98848 0.78137 0.69579 0.0
Zn309 Zn 0.02441 0.77497 0.6587 0.0
O310 O 0.00889 0.73018 0.62354 0.0
C311 C 0.07047 0.74604 0.69946 0.0
O312 O 0.04176 0.72594 0.70425 0.0
O313 O 0.03269 0.81764 0.63573 0.0
C314 C 0.02698 0.72 0.59773 0.0
O315 O 0.05622 0.73915 0.59281 0.0
C316 C 0.9563 0.7783 0.68831 0.0
O317 O 0.94573 0.77154 0.65567 0.0
O318 O 0.06949 0.76952 0.68124 0.0
C319 C 0.52348 0.35361 0.14034 0.0
O320 O 0.53713 0.36197 0.17191 0.0
O321 O 0.46833 0.28895 0.19267 0.0
Zn322 Zn 0.50603 0.28388 0.15739 0.0
O323 O 0.49439 0.23659 0.12519 0.0
C324 C 0.55586 0.25971 0.19751 0.0
O325 O 0.52981 0.2346 0.19754 0.0
O326 O 0.50902 0.32233 0.12888 0.0
C327 C 0.5157 0.22501 0.10303 0.0
O328 O 0.54565 0.24404 0.10047 0.0
C329 C 0.43663 0.28574 0.18322 0.0
O330 O 0.42822 0.28042 0.15007 0.0
O331 O 0.55194 0.285 0.18238 0.0
C332 C 0.27921 0.79157 0.8774 0.0
C333 C 0.25764 0.75972 0.8792 0.0
C334 C 0.2447 0.78324 0.93937 0.0
C335 C 0.26487 0.81577 0.93703 0.0
N336 N 0.29501 0.85355 0.90173 0.0
N337 N 0.21407 0.72769 0.90878 0.0
C338 C 0.28026 0.82072 0.90538 0.0
C339 C 0.23849 0.7564 0.90924 0.0
N340 N 0.29974 0.79354 0.84957 0.0
N341 N 0.23317 0.77715 0.97075 0.0
H342 H 0.20895 0.70749 0.88715 0.0
H343 H 0.19677 0.72544 0.92858 0.0
H344 H 0.2377 0.79577 0.99361 0.0
H345 H 0.22176 0.75262 0.97473 0.0
H346 H 0.31898 0.81457 0.84863 0.0
H347 H 0.29935 0.77295 0.82835 0.0
H348 H 0.30356 0.85958 0.87825 0.0
H349 H 0.29569 0.87561 0.92148 0.0
C350 C 0.09225 0.5267 0.39627 0.0
C351 C 0.06389 0.54584 0.39634 0.0
C352 C 0.08714 0.57113 0.34736 0.0
C353 C 0.11509 0.55123 0.34655 0.0
N354 N 0.14786 0.51456 0.37301 0.0
N355 N 0.03756 0.5917 0.37809 0.0
C356 C 0.11893 0.53066 0.37213 0.0
C357 C 0.06243 0.5699 0.37382 0.0
N358 N 0.09278 0.50359 0.41835 0.0
N359 N 0.08383 0.59047 0.32227 0.0
H360 H 0.01934 0.59127 0.39742 0.0
H361 H 0.03653 0.61203 0.36462 0.0
H362 H 0.10238 0.59342 0.30364 0.0
H363 H 0.06212 0.60237 0.3188 0.0
H364 H 0.11019 0.48551 0.41707 0.0
H365 H 0.0746 0.50149 0.43749 0.0
H366 H 0.15415 0.50223 0.39295 0.0
H367 H 0.16698 0.51513 0.35464 0.0
C368 C 0.85644 0.74479 0.89743 0.0
C369 C 0.82916 0.74156 0.87252 0.0
C370 C 0.79272 0.70222 0.90366 0.0
C371 C 0.82073 0.7037 0.92739 0.0
N372 N 0.8822 0.71815 0.94019 0.0
N373 N 0.77515 0.70973 0.84666 0.0
C374 C 0.85353 0.72246 0.92222 0.0
C375 C 0.79855 0.71774 0.87392 0.0
N376 N 0.88437 0.77026 0.89868 0.0
N377 N 0.76006 0.68813 0.91048 0.0
H378 H 0.77895 0.72023 0.82424 0.0
H379 H 0.75396 0.69005 0.84484 0.0
H380 H 0.75413 0.67802 0.93273 0.0
H381 H 0.73824 0.68975 0.89581 0.0
H382 H 0.90302 0.77619 0.91875 0.0
H383 H 0.88742 0.78759 0.88143 0.0
H384 H 0.90722 0.72865 0.93505 0.0
H385 H 0.88144 0.70087 0.95746 0.0
C386 C 0.99768 0.97138 0.3839 0.0
C387 C 0.00458 1.00086 0.41138 0.0
C388 C 0.9773 0.03696 0.37747 0.0
C389 C 0.96826 0.00682 0.35098 0.0
N390 N 0.96328 0.94388 0.33208 0.0
N391 N 0.99589 0.05985 0.43737 0.0
C392 C 0.97659 0.97358 0.35507 0.0
C393 C 0.9928 0.03312 0.4091 0.0
N394 N 0.01221 0.94165 0.3848 0.0
N395 N 0.97274 0.0695 0.37179 0.0
H396 H 0.00745 0.05806 0.46083 0.0
H397 H 0.98446 0.08259 0.43855 0.0
H398 H 0.96192 0.07358 0.34886 0.0
H399 H 0.98236 0.09281 0.38858 0.0
H400 H 0.0114 0.92086 0.36377 0.0
H401 H 0.02762 0.93886 0.40558 0.0
H402 H 0.96539 0.91856 0.33576 0.0
H403 H 0.94718 0.94427 0.31096 0.0
C404 C 0.33526 0.22005 0.62558 0.0
C405 C 0.30974 0.2427 0.63327 0.0
C406 C 0.28727 0.22586 0.57324 0.0
C407 C 0.31022 0.20031 0.56673 0.0
N408 N 0.35179 0.16856 0.58852 0.0
N409 N 0.25894 0.26481 0.61611 0.0
C410 C 0.33324 0.19628 0.59332 0.0
C411 C 0.28505 0.24505 0.60753 0.0
N412 N 0.36178 0.22164 0.64894 0.0
N413 N 0.26847 0.23258 0.54643 0.0
H414 H 0.25695 0.27975 0.6408 0.0
H415 H 0.23792 0.26447 0.59958 0.0
H416 H 0.26976 0.21927 0.52097 0.0
H417 H 0.25398 0.25333 0.54881 0.0
H418 H 0.38321 0.20857 0.64324 0.0
H419 H 0.36401 0.23853 0.67303 0.0
H420 H 0.366 0.16213 0.60831 0.0
H421 H 0.35041 0.14982 0.56568 0.0
C422 C 0.52965 0.57924 0.65795 0.0
C423 C 0.52865 0.54609 0.63551 0.0
C424 C 0.49819 0.51712 0.67896 0.0
C425 C 0.49594 0.5505 0.6999 0.0
N426 N 0.50508 0.61376 0.70731 0.0
N427 N 0.50614 0.48429 0.62163 0.0
C428 C 0.51056 0.58175 0.68892 0.0
C429 C 0.51121 0.51525 0.64515 0.0
N430 N 0.54953 0.60812 0.6501 0.0
N431 N 0.48943 0.48716 0.69196 0.0
H432 H 0.51497 0.48179 0.59641 0.0
H433 H 0.49035 0.46193 0.62603 0.0
H434 H 0.48098 0.48739 0.71709 0.0
H435 H 0.49399 0.46241 0.67918 0.0
H436 H 0.55433 0.63221 0.66715 0.0
H437 H 0.56355 0.60726 0.62751 0.0
H438 H 0.51186 0.63726 0.69865 0.0
H439 H 0.49113 0.61661 0.72998 0.0
C440 C 0.8242 0.33933 0.65995 0.0
C441 C 0.82269 0.30244 0.65604 0.0
C442 C 0.78884 0.29438 0.6018 0.0
C443 C 0.7956 0.33122 0.60272 0.0
N444 N 0.82384 0.38863 0.63112 0.0
N445 N 0.80477 0.24419 0.62326 0.0
C446 C 0.81393 0.35382 0.63163 0.0
C447 C 0.8051 0.2797 0.62708 0.0
N448 N 0.83566 0.36055 0.69074 0.0
N449 N 0.76608 0.27362 0.57741 0.0
H450 H 0.81517 0.23266 0.64208 0.0
H451 H 0.79596 0.22641 0.60075 0.0
H452 H 0.75288 0.28368 0.55924 0.0
H453 H 0.75768 0.24716 0.57727 0.0
H454 H 0.83413 0.38741 0.69636 0.0
H455 H 0.84349 0.35065 0.71194 0.0
H456 H 0.84064 0.40524 0.64969 0.0
H457 H 0.81808 0.40043 0.61059 0.0
C458 C 0.60386 0.0327 0.64321 0.0
C459 C 0.56977 0.01458 0.64295 0.0
C460 C 0.57834 0.00804 0.70302 0.0
C461 C 0.61126 0.0289 0.70428 0.0
N462 N 0.65351 0.06565 0.6776 0.0
N463 N 0.52251 0.98864 0.67318 0.0
C464 C 0.62364 0.04236 0.67486 0.0
C465 C 0.5564 1.00329 0.67306 0.0
N466 N 0.61753 0.04009 0.61304 0.0
N467 N 0.56869 0.99151 0.72987 0.0
H468 H 0.50591 0.98386 0.65141 0.0
H469 H 0.51009 0.98358 0.69543 0.0
H470 H 0.58426 0.99394 0.75208 0.0
H471 H 0.54671 0.97295 0.72897 0.0
H472 H 0.64349 0.04961 0.61069 0.0
H473 H 0.60351 0.03419 0.58951 0.0
H474 H 0.66187 0.07941 0.65826 0.0
H475 H 0.66864 0.07358 0.70036 0.0
C476 C 0.92275 0.24938 0.82645 0.0
C477 C 0.92291 0.23364 0.79088 0.0
C478 C 0.984 0.22637 0.79694 0.0
C479 C 0.98342 0.2411 0.83275 0.0
N480 N 0.9502 0.25729 0.88327 0.0
N481 N 0.95074 0.2001 0.74389 0.0
C482 C 0.95212 0.24976 0.84802 0.0
C483 C 0.95267 0.21987 0.77663 0.0
N484 N 0.89518 0.26528 0.83936 0.0
N485 N 0.01466 0.22015 0.78199 0.0
H486 H 0.92814 0.19479 0.7284 0.0
H487 H 0.97046 0.1864 0.73325 0.0
H488 H 0.03804 0.22411 0.79606 0.0
H489 H 0.01741 0.2134 0.75534 0.0
H490 H 0.89537 0.28064 0.86409 0.0
H491 H 0.87306 0.26558 0.82448 0.0
H492 H 0.92722 0.26062 0.89604 0.0
H493 H 0.97089 0.25631 0.89978 0.0
C494 C 0.50755 0.90338 0.53842 0.0
C495 C 0.52767 0.93458 0.53246 0.0
C496 C 0.55316 0.90104 0.48226 0.0
C497 C 0.53615 0.86939 0.49069 0.0
N498 N 0.50044 0.83971 0.5292 0.0
N499 N 0.57244 0.96337 0.50141 0.0
C500 C 0.51396 0.87033 0.51927 0.0
C501 C 0.55119 0.93352 0.50503 0.0
N502 N 0.4821 0.90547 0.5622 0.0
N503 N 0.57009 0.90022 0.45182 0.0
H504 H 0.57107 0.98791 0.5169 0.0
H505 H 0.59303 0.96344 0.48466 0.0
H506 H 0.57178 0.87701 0.43419 0.0
H507 H 0.57977 0.9227 0.44247 0.0
H508 H 0.46411 0.88411 0.56525 0.0
H509 H 0.47707 0.92929 0.57696 0.0
H510 H 0.4872 0.83883 0.552 0.0
H511 H 0.50493 0.81498 0.51619 0.0
C512 C 0.18767 0.24327 0.76892 0.0
C513 C 0.21894 0.25665 0.78819 0.0
C514 C 0.18629 0.27665 0.83943 0.0
C515 C 0.15524 0.25907 0.8215 0.0
N516 N 0.12671 0.22139 0.77053 0.0
N517 N 0.24914 0.2842 0.84204 0.0
C518 C 0.1559 0.24152 0.78645 0.0
C519 C 0.2186 0.27295 0.82352 0.0
N520 N 0.18831 0.23243 0.7338 0.0
N521 N 0.18477 0.29787 0.87114 0.0
H522 H 0.27325 0.28317 0.8308 0.0
H523 H 0.25065 0.29251 0.86882 0.0
H524 H 0.16152 0.30172 0.88328 0.0
H525 H 0.2061 0.31414 0.88402 0.0
H526 H 0.1661 0.2259 0.71782 0.0
H527 H 0.21122 0.23298 0.72019 0.0
H528 H 0.12658 0.20491 0.7464 0.0
H529 H 0.10305 0.21857 0.78261 0.0
C530 C 0.53915 0.62662 0.46584 0.0
C531 C 0.52127 0.61872 0.49525 0.0
C532 C 0.4947 0.67272 0.50031 0.0
C533 C 0.5093 0.6783 0.46844 0.0
N534 N 0.54047 0.65699 0.4176 0.0
N535 N 0.47974 0.63192 0.53919 0.0
C536 C 0.53043 0.65444 0.4504 0.0
C537 C 0.49841 0.64115 0.5122 0.0
N538 N 0.56472 0.60768 0.45275 0.0
N539 N 0.47844 0.69817 0.51979 0.0
H540 H 0.48275 0.6096 0.5492 0.0
H541 H 0.45976 0.64502 0.55014 0.0
H542 H 0.47576 0.72183 0.51217 0.0
H543 H 0.47032 0.69729 0.54482 0.0
H544 H 0.5812 0.61465 0.43367 0.0
H545 H 0.5716 0.58683 0.46315 0.0
H546 H 0.55264 0.63805 0.4018 0.0
H547 H 0.5337 0.67615 0.40467 0.0
C548 C 0.87745 0.75636 0.74129 0.0
C549 C 0.88152 0.78564 0.7692 0.0
C550 C 0.93267 0.81184 0.74218 0.0
C551 C 0.93065 0.78089 0.71625 0.0
N552 N 0.90503 0.72076 0.69515 0.0
N553 N 0.91627 0.83852 0.79945 0.0
C554 C 0.90405 0.75234 0.71684 0.0
C555 C 0.91007 0.81266 0.77056 0.0
N556 N 0.8477 0.73288 0.73755 0.0
N557 N 0.95517 0.841 0.739 0.0
H558 H 0.90042 0.83996 0.82081 0.0
H559 H 0.93872 0.85671 0.80352 0.0
H560 H 0.97169 0.84172 0.7183 0.0
H561 H 0.95519 0.86545 0.75507 0.0
H562 H 0.84168 0.71318 0.7157 0.0
H563 H 0.8275 0.73502 0.75476 0.0
H564 H 0.88845 0.69798 0.69699 0.0
H565 H 0.92456 0.71632 0.67752 0.0
C566 C 0.03403 0.87538 0.53941 0.0
C567 C 0.02889 0.90892 0.558 0.0
C568 C 0.01813 0.88494 0.6108 0.0
C569 C 0.02333 0.85123 0.59227 0.0
N570 N 0.04496 0.81628 0.54191 0.0
N571 N 0.02476 0.94795 0.61247 0.0
C572 C 0.03395 0.84703 0.5574 0.0
C573 C 0.02396 0.91444 0.59415 0.0
N574 N 0.03792 0.87041 0.50436 0.0
N575 N 0.00552 0.88844 0.64347 0.0
H576 H 0.02887 0.96995 0.60078 0.0
H577 H 0.02464 0.95414 0.6394 0.0
H578 H 1.00036 0.8675 0.65645 0.0
H579 H 0.99753 0.9115 0.65675 0.0
H580 H 0.03744 0.84575 0.48858 0.0
H581 H 0.03985 0.89101 0.49073 0.0
H582 H 0.05597 0.8126 0.51766 0.0
H583 H 0.04622 0.79544 0.55475 0.0
C584 C 0.13767 0.73029 0.76333 0.0
C585 C 0.16577 0.7245 0.74132 0.0
C586 C 0.13153 0.73253 0.6918 0.0
C587 C 0.10391 0.74027 0.7141 0.0
N588 N 0.08343 0.75407 0.7722 0.0
N589 N 0.19267 0.72765 0.6868 0.0
C590 C 0.10777 0.74134 0.75025 0.0
C591 C 0.16375 0.72821 0.70628 0.0
N592 N 0.13915 0.72436 0.79642 0.0
N593 N 0.1264 0.72701 0.65666 0.0
H594 H 0.21664 0.72421 0.69653 0.0
H595 H 0.19367 0.73384 0.66217 0.0
H596 H 0.10289 0.7286 0.64477 0.0
H597 H 0.14438 0.71749 0.63913 0.0
H598 H 0.118 0.72417 0.81245 0.0
H599 H 0.16104 0.71724 0.80711 0.0
H600 H 0.08644 0.75876 0.79907 0.0
H601 H 0.06161 0.76314 0.76364 0.0
C602 C 0.98831 0.64992 0.52121 0.0
C603 C 0.99585 0.61895 0.53182 0.0
C604 C 0.02255 0.6542 0.58624 0.0
C605 C 0.01656 0.68529 0.57484 0.0
N606 N 0.99867 0.71364 0.52974 0.0
N607 N 0.02492 0.59142 0.5713 0.0
C608 C 1.001 0.6834 0.54172 0.0
C609 C 0.01431 0.62105 0.56351 0.0
N610 N 0.96787 0.64724 0.49222 0.0
N611 N 0.0358 0.65638 0.61897 0.0
H612 H 0.01934 0.56672 0.55527 0.0
H613 H 0.04156 0.59156 0.5921 0.0
H614 H 0.0438 0.68023 0.63572 0.0
H615 H 0.03697 0.63464 0.63043 0.0
H616 H 0.95809 0.66845 0.48516 0.0
H617 H 0.95848 0.62323 0.47632 0.0
H618 H 0.99127 0.71411 0.50439 0.0
H619 H 0.00651 0.73859 0.54452 0.0
C620 C 0.77301 0.89194 0.26762 0.0
C621 C 0.77314 0.87252 0.23336 0.0
C622 C 0.82041 0.91552 0.22046 0.0
C623 C 0.82634 0.92866 0.25655 0.0
N624 N 0.80575 0.93167 0.31486 0.0
N625 N 0.77829 0.88482 0.17591 0.0
C626 C 0.80193 0.91752 0.28033 0.0
C627 C 0.79121 0.89004 0.20906 0.0
N628 N 0.74293 0.89146 0.2851 0.0
N629 N 0.84355 0.92561 0.19712 0.0
H630 H 0.7547 0.869 0.16834 0.0
H631 H 0.78856 0.89926 0.15771 0.0
H632 H 0.86584 0.94346 0.2044 0.0
H633 H 0.84203 0.91388 0.17096 0.0
H634 H 0.74047 0.90733 0.30918 0.0
H635 H 0.71935 0.87979 0.27264 0.0
H636 H 0.79061 0.9215 0.33337 0.0
H637 H 0.82495 0.95239 0.32506 0.0
C638 C 0.82975 0.16712 0.31366 0.0
C639 C 0.79372 0.16004 0.31898 0.0
C640 C 0.7985 0.0977 0.31601 0.0
C641 C 0.83496 0.10518 0.31334 0.0
N642 N 0.88614 0.14803 0.31636 0.0
N643 N 0.74503 0.12049 0.33261 0.0
C644 C 0.85087 0.14022 0.31406 0.0
C645 C 0.7785 0.12588 0.32248 0.0
N646 N 0.8436 0.19916 0.30707 0.0
N647 N 0.78264 0.06362 0.31041 0.0
H648 H 0.72959 0.14054 0.33766 0.0
H649 H 0.73369 0.09701 0.33915 0.0
H650 H 0.79605 0.04206 0.30435 0.0
H651 H 0.75586 0.05667 0.30833 0.0
H652 H 0.86885 0.20457 0.29911 0.0
H653 H 0.82907 0.21964 0.30696 0.0
H654 H 0.89915 0.17362 0.32061 0.0
H655 H 0.90243 0.12914 0.31723 0.0
C656 C 0.38486 0.99637 0.98864 0.0
C657 C 0.41211 0.00707 0.01406 0.0
C658 C 0.37919 0.97299 0.0524 0.0
C659 C 0.3546 0.95814 0.02501 0.0
N660 N 0.33773 0.95137 0.96458 0.0
N661 N 0.43775 1.00116 0.06828 0.0
C662 C 0.35825 0.96881 0.99247 0.0
C663 C 0.40995 0.99428 0.04553 0.0
N664 N 0.38405 0.01301 0.96112 0.0
N665 N 0.37263 0.96786 0.0853 0.0
H666 H 0.46096 0.01623 0.06409 0.0
H667 H 0.43886 0.98927 0.08976 0.0
H668 H 0.34979 0.95359 0.09168 0.0
H669 H 0.38806 0.98087 0.1068 0.0
H670 H 0.36302 0.00867 0.94366 0.0
H671 H 0.40281 0.03371 0.95775 0.0
H672 H 0.34186 0.95568 0.93949 0.0
H673 H 0.31878 0.93013 0.96568 0.0
C674 C 0.26414 0.41299 0.2869 0.0
C675 C 0.23979 0.38391 0.29122 0.0
C676 C 0.19197 0.41643 0.28311 0.0
C677 C 0.21616 0.44511 0.27705 0.0
N678 N 0.27479 0.46775 0.26568 0.0
N679 N 0.18111 0.35435 0.28516 0.0
C680 C 0.25218 0.44254 0.27674 0.0
C681 C 0.20389 0.38445 0.28644 0.0
N682 N 0.29856 0.41277 0.29337 0.0
N683 N 0.15795 0.4204 0.28816 0.0
H684 H 0.18899 0.33047 0.2877 0.0
H685 H 0.15499 0.35225 0.27823 0.0
H686 H 0.14817 0.44379 0.28761 0.0
H687 H 0.14004 0.40162 0.29639 0.0
H688 H 0.31723 0.43474 0.29459 0.0
H689 H 0.30818 0.39105 0.29966 0.0
H690 H 0.30086 0.46569 0.26172 0.0
H691 H 0.26686 0.48928 0.25731 0.0
C692 C 0.1252 0.05604 0.50705 0.0
C693 C 0.11592 0.02639 0.48012 0.0
C694 C 0.17142 0.03955 0.45282 0.0
C695 C 0.18138 0.06814 0.48074 0.0
N696 N 0.1719 0.09625 0.53941 0.0
N697 N 0.13362 0.98473 0.43252 0.0
C698 C 0.15954 0.0741 0.50943 0.0
C699 C 0.14027 0.01642 0.45472 0.0
N700 N 0.10088 0.0683 0.52928 0.0
N701 N 0.19037 0.03564 0.42356 0.0
H702 H 0.1112 0.96709 0.43356 0.0
H703 H 0.15176 0.97453 0.41557 0.0
H704 H 0.21271 0.05255 0.42047 0.0
H705 H 0.18218 0.01755 0.40105 0.0
H706 H 0.10548 0.09215 0.54678 0.0
H707 H 0.07522 0.0564 0.52828 0.0
H708 H 0.15809 0.09899 0.56215 0.0
H709 H 0.19739 0.1088 0.54274 0.0
C710 C 0.79566 0.15289 0.73012 0.0
C711 C 0.80077 0.18668 0.75175 0.0
C712 C 0.75137 0.16965 0.78633 0.0
C713 C 0.74579 0.13609 0.76421 0.0
N714 N 0.75734 0.09824 0.71083 0.0
N715 N 0.78059 0.22983 0.79631 0.0
C716 C 0.76642 0.12843 0.73483 0.0
C717 C 0.77759 0.19588 0.77855 0.0
N718 N 0.81943 0.14378 0.70583 0.0
N719 N 0.73263 0.17588 0.81559 0.0
H720 H 0.79982 0.24949 0.7915 0.0
H721 H 0.76256 0.23926 0.81378 0.0
H722 H 0.71296 0.15747 0.82186 0.0
H723 H 0.73801 0.19824 0.8349 0.0
H724 H 0.8196 0.11824 0.69221 0.0
H725 H 0.84047 0.1614 0.70072 0.0
H726 H 0.76902 0.09289 0.68704 0.0
H727 H 0.73599 0.07976 0.71328 0.0
C728 C 0.43697 0.06178 0.48935 0.0
C729 C 0.43167 0.04686 0.5193 0.0
C730 C 0.36889 0.04084 0.50971 0.0
C731 C 0.37423 0.06122 0.48344 0.0
N732 N 0.41333 0.09301 0.4491 0.0
N733 N 0.39335 0.02166 0.55862 0.0
C734 C 0.40826 0.07169 0.47297 0.0
C735 C 0.39781 0.03582 0.52945 0.0
N736 N 0.46949 0.06652 0.47671 0.0
N737 N 0.33617 0.02574 0.51521 0.0
H738 H 0.41399 0.01602 0.57262 0.0
H739 H 0.36952 0.01708 0.56993 0.0
H740 H 0.31458 0.02847 0.50071 0.0
H741 H 0.33074 0.00799 0.53176 0.0
H742 H 0.47471 0.07419 0.45311 0.0
H743 H 0.49093 0.05957 0.48841 0.0
H744 H 0.43762 0.10486 0.44343 0.0
H745 H 0.3931 0.10104 0.43658 0.0
C746 C 0.65507 0.51858 0.5671 0.0
C747 C 0.62123 0.49997 0.55982 0.0
C748 C 0.64534 0.44587 0.53653 0.0
C749 C 0.67917 0.46399 0.54562 0.0
N750 N 0.71607 0.51546 0.57576 0.0
N751 N 0.58351 0.44493 0.54376 0.0
C752 C 0.68401 0.4998 0.56266 0.0
C753 C 0.61618 0.46326 0.54645 0.0
N754 N 0.65961 0.55436 0.57733 0.0
N755 N 0.64107 0.41268 0.51688 0.0
H756 H 0.56151 0.45689 0.55034 0.0
H757 H 0.57843 0.4176 0.53782 0.0
H758 H 0.66171 0.39912 0.50873 0.0
H759 H 0.6173 0.39965 0.50613 0.0
H760 H 0.68368 0.5699 0.57912 0.0
H761 H 0.63901 0.56892 0.58166 0.0
H762 H 0.72061 0.54028 0.59157 0.0
H763 H 0.73777 0.50237 0.57353 0.0
C764 C 0.76671 0.30401 0.37586 0.0
C765 C 0.7496 0.27 0.37762 0.0
C766 C 0.74335 0.28832 0.44022 0.0
C767 C 0.75914 0.32283 0.43821 0.0
N768 N 0.77763 0.36567 0.40289 0.0
N769 N 0.7147 0.23192 0.40938 0.0
C770 C 0.76834 0.33132 0.40561 0.0
C771 C 0.73565 0.26289 0.40918 0.0
N772 N 0.78272 0.30991 0.34625 0.0
N773 N 0.73755 0.27913 0.47176 0.0
H774 H 0.70858 0.21274 0.38708 0.0
H775 H 0.70087 0.22665 0.43082 0.0
H776 H 0.74308 0.29665 0.49519 0.0
H777 H 0.72993 0.25335 0.47485 0.0
H778 H 0.79902 0.33297 0.3448 0.0
H779 H 0.78195 0.29072 0.32379 0.0
H780 H 0.78134 0.37382 0.3793 0.0
H781 H 0.77814 0.38646 0.42395 0.0
C782 C 0.57405 0.08047 0.89547 0.0
C783 C 0.57566 0.05438 0.9157 0.0
C784 C 0.63416 0.04699 0.89589 0.0
C785 C 0.63032 0.06892 0.87161 0.0
N786 N 0.596 0.10529 0.84649 0.0
N787 N 0.60643 0.01221 0.93572 0.0
C788 C 0.60034 0.08585 0.87127 0.0
C789 C 0.60567 0.03773 0.91638 0.0
N790 N 0.54734 0.10004 0.89946 0.0
N791 N 0.66535 0.03567 0.89979 0.0
H792 H 0.58674 0.00605 0.95233 0.0
H793 H 0.6256 0.99594 0.93409 0.0
H794 H 0.6868 0.04238 0.88543 0.0
H795 H 0.67101 0.02236 0.9192 0.0
H796 H 0.54626 0.12178 0.88797 0.0
H797 H 0.52767 0.09638 0.91686 0.0
H798 H 0.57301 0.11482 0.84227 0.0
H799 H 0.6146 0.10996 0.82838 0.0
C800 C 0.28606 0.19701 0.34701 0.0
C801 C 0.30514 0.23113 0.35696 0.0
C802 C 0.31252 0.22134 0.41621 0.0
C803 C 0.293 0.18738 0.40644 0.0
N804 N 0.26686 0.13995 0.36176 0.0
N805 N 0.34283 0.27312 0.39807 0.0
C806 C 0.28179 0.17419 0.37146 0.0
C807 C 0.32041 0.2424 0.3907 0.0
N808 N 0.27076 0.18711 0.31464 0.0
N809 N 0.32283 0.23374 0.45011 0.0
H810 H 0.34897 0.28914 0.37994 0.0
H811 H 0.35757 0.2814 0.421 0.0
H812 H 0.31956 0.21833 0.46909 0.0
H813 H 0.3332 0.25972 0.45992 0.0
H814 H 0.25313 0.16443 0.30687 0.0
H815 H 0.27435 0.20267 0.29578 0.0
H816 H 0.2612 0.12754 0.33615 0.0
H817 H 0.26227 0.12296 0.37924 0.0
C818 C 0.49939 0.54273 0.92094 0.0
C819 C 0.51181 0.51118 0.92495 0.0
C820 C 0.48356 0.48069 0.86955 0.0
C821 C 0.46853 0.51128 0.86706 0.0
N822 N 0.45842 0.57012 0.89218 0.0
N823 N 0.51365 0.44927 0.90524 0.0
C824 C 0.47569 0.5421 0.89309 0.0
C825 C 0.5033 0.47991 0.89983 0.0
N826 N 0.51039 0.57334 0.94374 0.0
N827 N 0.4801 0.45286 0.84229 0.0
H828 H 0.52965 0.44798 0.92616 0.0
H829 H 0.50472 0.4247 0.89029 0.0
H830 H 0.46603 0.45252 0.81964 0.0
H831 H 0.49348 0.43137 0.84074 0.0
H832 H 0.50569 0.59796 0.94001 0.0
H833 H 0.52635 0.57456 0.96541 0.0
H834 H 0.4593 0.59172 0.91237 0.0
H835 H 0.44094 0.57076 0.87227 0.0
C836 C 0.77853 0.72598 0.14684 0.0
C837 C 0.76351 0.75714 0.14753 0.0
C838 C 0.76513 0.74756 0.08424 0.0
C839 C 0.7739 0.71336 0.08341 0.0
N840 N 0.78218 0.66749 0.11516 0.0
N841 N 0.73658 0.79427 0.11586 0.0
C842 C 0.7791 0.70187 0.11503 0.0
C843 C 0.75531 0.7672 0.11595 0.0
N844 N 0.7926 0.71955 0.17648 0.0
N845 N 0.76706 0.76177 0.05502 0.0
H846 H 0.7274 0.80841 0.1383 0.0
H847 H 0.72712 0.80024 0.09317 0.0
H848 H 0.77584 0.74893 0.03168 0.0
H849 H 0.76383 0.78781 0.0551 0.0
H850 H 0.80667 0.69876 0.1767 0.0
H851 H 0.79342 0.7371 0.20012 0.0
H852 H 0.78258 0.65745 0.13786 0.0
H853 H 0.78038 0.64807 0.09286 0.0
C854 C 0.97795 0.98128 0.12658 0.0
C855 C 0.00802 0.00659 0.12998 0.0
C856 C 0.99641 0.0262 0.19132 0.0
C857 C 0.96414 1.00378 0.18671 0.0
N858 N 0.92098 0.9658 0.14761 0.0
N859 N 0.04382 0.05658 0.16407 0.0
C860 C 0.95409 0.98272 0.15373 0.0
C861 C 0.01678 0.02998 0.16198 0.0
N862 N 0.97238 0.9556 0.09749 0.0
N863 N 0.00827 0.04289 0.22379 0.0
H864 H 0.05968 0.05988 0.14333 0.0
H865 H 0.04891 0.07692 0.18551 0.0
H866 H 0.99434 0.0408 0.24599 0.0
H867 H 0.03321 0.05636 0.22908 0.0
H868 H 0.95269 0.93434 0.0951 0.0
H869 H 0.98948 0.95365 0.07712 0.0
H870 H 0.91128 0.95287 0.12315 0.0
H871 H 0.90201 0.96811 0.1661 0.0
C872 C 0.29942 0.79231 0.125 0.0
C873 C 0.28735 0.8026 0.15877 0.0
C874 C 0.24491 0.83423 0.13618 0.0
C875 C 0.26019 0.82793 0.10329 0.0
N876 N 0.30177 0.80136 0.06557 0.0
N877 N 0.24904 0.83289 0.19761 0.0
C878 C 0.28726 0.80684 0.0974 0.0
C879 C 0.25987 0.82306 0.16461 0.0
N880 N 0.32218 0.76828 0.1194 0.0
N881 N 0.2162 0.85099 0.14015 0.0
H882 H 0.25832 0.82372 0.21866 0.0
H883 H 0.23209 0.8512 0.20459 0.0
H884 H 0.20541 0.86073 0.12027 0.0
H885 H 0.20162 0.85332 0.16234 0.0
H886 H 0.32982 0.75709 0.09498 0.0
H887 H 0.33133 0.75721 0.13922 0.0
H888 H 0.32415 0.78978 0.06049 0.0
H889 H 0.2923 0.80996 0.04428 0.0
C890 C 0.08923 0.52134 0.10224 0.0
C891 C 0.05604 0.50089 0.09651 0.0
C892 C 0.05238 0.49939 0.15845 0.0
C893 C 0.08556 0.51988 0.16417 0.0
N894 N 0.13218 0.55705 0.14368 0.0
N895 N 1.003 0.47612 0.11896 0.0
C896 C 0.10297 0.53291 0.13666 0.0
C897 C 0.03657 0.49187 0.12466 0.0
N898 N 0.10806 0.52868 0.07462 0.0
N899 N 0.03684 0.48558 0.18489 0.0
H900 H 0.99099 0.46964 0.09439 0.0
H901 H 0.98618 0.47196 0.13869 0.0
H902 H 0.04747 0.49079 0.21003 0.0
H903 H 0.01458 0.46714 0.18162 0.0
H904 H 0.13405 0.53954 0.07659 0.0
H905 H 0.0982 0.52214 0.04916 0.0
H906 H 0.14418 0.57036 0.12544 0.0
H907 H 0.14287 0.56615 0.16865 0.0
C908 C 0.37468 0.775 0.33911 0.0
C909 C 0.37516 0.7471 0.31032 0.0
C910 C 0.42123 0.72564 0.33943 0.0
C911 C 0.42415 0.75632 0.36574 0.0
N912 N 0.40822 0.81427 0.38601 0.0
N913 N 0.40397 0.69991 0.27997 0.0
C914 C 0.40204 0.78213 0.36447 0.0
C915 C 0.39985 0.72348 0.30958 0.0
N916 N 0.34771 0.7942 0.34274 0.0
N917 N 0.43782 0.69797 0.34342 0.0
H918 H 0.38976 0.69835 0.25708 0.0
H919 H 0.42394 0.6845 0.27712 0.0
H920 H 0.4525 0.69781 0.36561 0.0
H921 H 0.43386 0.67376 0.32644 0.0
H922 H 0.34448 0.81254 0.36502 0.0
H923 H 0.32675 0.78928 0.3251 0.0
H924 H 0.39484 0.83505 0.38361 0.0
H925 H 0.4291 0.82159 0.40372 0.0
C926 C 0.08877 0.4044 0.97931 0.0
C927 C 0.0551 0.40533 0.9925 0.0
C928 C 0.0377 0.34403 0.96411 0.0
C929 C 0.07179 0.34261 0.95162 0.0
N930 N 0.13184 0.3683 0.95514 0.0
N931 N 1.00051 0.37424 0.00517 0.0
C932 C 0.09799 0.3719 0.96162 0.0
C933 C 0.03057 0.37449 0.98743 0.0
N934 N 0.11154 0.43477 0.98259 0.0
N935 N 0.01147 0.31747 0.95215 0.0
H936 H 0.99437 0.39621 0.02232 0.0
H937 H 0.98329 0.35147 0.00546 0.0
H938 H 0.01497 0.29458 0.93506 0.0
H939 H 0.98549 0.31932 0.95696 0.0
H940 H 0.13495 0.43646 0.97 0.0
H941 H 0.10596 0.45896 0.99596 0.0
H942 H 0.15244 0.38769 0.96466 0.0
H943 H 0.13963 0.34453 0.94328 0.0
C944 C 0.62068 0.79346 0.29164 0.0
C945 C 0.65381 0.7903 0.30445 0.0
C946 C 0.63419 0.80315 0.36396 0.0
C947 C 0.59974 0.80058 0.3509 0.0
N948 N 0.55931 0.78926 0.30191 0.0
N949 N 0.69301 0.79147 0.35222 0.0
C950 C 0.59273 0.7952 0.31463 0.0
C951 C 0.66096 0.79527 0.3405 0.0
N952 N 0.61596 0.79473 0.25746 0.0
N953 N 0.64136 0.81399 0.39868 0.0
H954 H 0.71356 0.78735 0.33573 0.0
H955 H 0.69879 0.7906 0.37788 0.0
H956 H 0.62239 0.82058 0.41638 0.0
H957 H 0.66634 0.81953 0.40959 0.0
H958 H 0.59324 0.80053 0.24724 0.0
H959 H 0.636 0.79333 0.23998 0.0
H960 H 0.55263 0.78121 0.27567 0.0
H961 H 0.53787 0.7893 0.3176 0.0
C962 C 0.04736 0.13379 0.00658 0.0
C963 C 0.04278 0.09955 0.98592 0.0
C964 C 0.04759 0.12404 0.93306 0.0
C965 C 0.05241 0.15846 0.95367 0.0
N966 N 0.06514 0.19623 0.00949 0.0
N967 N 0.04666 0.06141 0.93085 0.0
C968 C 0.05479 0.16338 0.99033 0.0
C969 C 0.04569 0.09449 0.94955 0.0
N970 N 0.04357 0.13802 0.04161 0.0
N971 N 0.04268 0.11951 0.89795 0.0
H972 H 0.0451 0.03931 0.94237 0.0
H973 H 0.05213 0.05627 0.90465 0.0
H974 H 0.04339 0.14037 0.88482 0.0
H975 H 0.03519 0.09512 0.88203 0.0
H976 H 0.04228 0.16223 0.05764 0.0
H977 H 0.03984 0.11689 0.05455 0.0
H978 H 0.07065 0.20113 0.03603 0.0
H979 H 0.07131 0.21838 0.99834 0.0
C980 C 0.38471 0.31356 0.26337 0.0
C981 C 0.35712 0.28523 0.25933 0.0
C982 C 0.38323 0.25607 0.20701 0.0
C983 C 0.40913 0.28579 0.20931 0.0
N984 N 0.43077 0.34567 0.23598 0.0
N985 N 0.32634 0.23291 0.22379 0.0
C986 C 0.40886 0.31536 0.2365 0.0
C987 C 0.35526 0.25749 0.23006 0.0
N988 N 0.38858 0.3381 0.2934 0.0
N989 N 0.38621 0.22577 0.184 0.0
H990 H 0.30523 0.23317 0.23997 0.0
H991 H 0.32189 0.21428 0.20094 0.0
H992 H 0.40679 0.22316 0.16733 0.0
H993 H 0.37017 0.20214 0.18377 0.0
H994 H 0.41027 0.3571 0.29943 0.0
H995 H 0.37148 0.33771 0.31367 0.0
H996 H 0.42927 0.36925 0.25303 0.0
H997 H 0.44844 0.34821 0.21649 0.0
C998 C 0.49331 0.42072 0.09219 0.0
C999 C 0.52505 0.43442 0.07907 0.0
C1000 C 0.55595 0.39559 0.10651 0.0
C1001 C 0.52398 0.38091 0.1186 0.0
N1002 N 0.46171 0.37636 0.12019 0.0
N1003 N 0.58556 0.43235 0.06912 0.0
C1004 C 0.49248 0.39245 0.11045 0.0
C1005 C 0.55612 0.42114 0.08494 0.0
N1006 N 0.46412 0.43561 0.08819 0.0
N1007 N 0.58615 0.38521 0.11587 0.0
H1008 H 0.58649 0.45126 0.05354 0.0
H1009 H 0.60839 0.42138 0.0693 0.0
H1010 H 0.58691 0.36501 0.12967 0.0
H1011 H 0.61062 0.39761 0.11154 0.0
H1012 H 0.44111 0.42996 0.10058 0.0
H1013 H 0.46331 0.4555 0.07401 0.0
H1014 H 0.43761 0.38018 0.11134 0.0
H1015 H 0.46001 0.35748 0.13583 0.0
C1016 C 0.65169 0.25362 0.21186 0.0
C1017 C 0.6505 0.24277 0.24421 0.0
C1018 C 0.59003 0.253 0.24954 0.0
C1019 C 0.58949 0.25776 0.2146 0.0
N1020 N 0.61942 0.25929 0.16106 0.0
N1021 N 0.61912 0.23139 0.2943 0.0
C1022 C 0.62035 0.25781 0.19548 0.0
C1023 C 0.61991 0.24256 0.26338 0.0
N1024 N 0.68282 0.25977 0.19674 0.0
N1025 N 0.56233 0.25944 0.26973 0.0
H1026 H 0.64105 0.22517 0.3058 0.0
H1027 H 0.59652 0.22655 0.3076 0.0
H1028 H 0.54051 0.26812 0.26067 0.0
H1029 H 0.5623 0.25953 0.29621 0.0
H1030 H 0.68588 0.27108 0.17481 0.0
H1031 H 0.70617 0.25676 0.20814 0.0
H1032 H 0.64018 0.25517 0.14496 0.0
H1033 H 0.59709 0.26168 0.14765 0.0
C1034 C 0.47446 0.14988 0.03237 0.0
C1035 C 0.49143 0.1219 0.03928 0.0
C1036 C 0.52312 0.16128 0.08898 0.0
C1037 C 0.50738 0.18958 0.08104 0.0
N1038 N 0.47176 0.21272 0.04318 0.0
N1039 N 0.53424 0.10092 0.0715 0.0
C1040 C 0.48395 0.18438 0.05222 0.0
C1041 C 0.51653 0.12764 0.0668 0.0
N1042 N 0.44891 0.14327 0.00709 0.0
N1043 N 0.54337 0.16634 0.11851 0.0
H1044 H 0.5289 0.07546 0.057 0.0
H1045 H 0.55563 0.10424 0.08831 0.0
H1046 H 0.54926 0.19072 0.13501 0.0
H1047 H 0.55254 0.14615 0.12809 0.0
H1048 H 0.43261 0.16129 0.00337 0.0
H1049 H 0.44255 0.11883 0.99079 0.0
H1050 H 0.45765 0.21159 0.02039 0.0
H1051 H 0.47781 0.23825 0.05741 0.0
C1052 C 0.37911 0.35878 0.71425 0.0
C1053 C 0.34396 0.35167 0.72309 0.0
C1054 C 0.34788 0.41163 0.75686 0.0
C1055 C 0.38147 0.41997 0.74412 0.0
N1056 N 0.42378 0.40316 0.70159 0.0
N1057 N 0.29251 0.37458 0.74581 0.0
C1058 C 0.39558 0.39406 0.7201 0.0
C1059 C 0.32755 0.37911 0.74223 0.0
N1060 N 0.39742 0.33196 0.70168 0.0
N1061 N 0.33593 0.43355 0.7841 0.0
H1062 H 0.27656 0.35158 0.73444 0.0
H1063 H 0.27904 0.39497 0.75688 0.0
H1064 H 0.35062 0.45649 0.79733 0.0
H1065 H 0.31291 0.42679 0.79611 0.0
H1066 H 0.42398 0.33606 0.69784 0.0
H1067 H 0.38714 0.30551 0.69891 0.0
H1068 H 0.43307 0.38542 0.68177 0.0
H1069 H 0.43503 0.42914 0.70285 0.0
C1070 C 0.28555 0.60648 0.81085 0.0
C1071 C 0.29323 0.63912 0.83426 0.0
C1072 C 0.34792 0.62184 0.85071 0.0
C1073 C 0.34381 0.59341 0.82199 0.0
N1074 N 0.307 0.55626 0.7761 0.0
N1075 N 0.31594 0.65627 0.89294 0.0
C1076 C 0.31197 0.5848 0.80257 0.0
C1077 C 0.32021 0.64159 0.85925 0.0
N1078 N 0.25204 0.59459 0.79989 0.0
N1079 N 0.37824 0.63032 0.86981 0.0
H1080 H 0.29165 0.66163 0.90168 0.0
H1081 H 0.33394 0.65653 0.9127 0.0
H1082 H 0.39926 0.61649 0.86454 0.0
H1083 H 0.38315 0.65286 0.8891 0.0
H1084 H 0.24386 0.5696 0.78538 0.0
H1085 H 0.23187 0.60849 0.80909 0.0
H1086 H 0.28601 0.55129 0.75854 0.0
H1087 H 0.32479 0.5385 0.77049 0.0
C1088 C 0.88094 0.4992 0.49017 0.0
C1089 C 0.91116 0.50768 0.51198 0.0
C1090 C 0.88344 0.47123 0.55121 0.0
C1091 C 0.85571 0.45834 0.52657 0.0
N1092 N 0.83109 0.45629 0.46948 0.0
N1093 N 0.94326 0.49793 0.5611 0.0
C1094 C 0.85504 0.47151 0.49529 0.0
C1095 C 0.91296 0.49281 0.54205 0.0
N1096 N 0.87677 0.51795 0.4648 0.0
N1097 N 0.8811 0.46389 0.5838 0.0
H1098 H 0.96561 0.51328 0.5552 0.0
H1099 H 0.94708 0.48448 0.58097 0.0
H1100 H 0.85932 0.44936 0.59194 0.0
H1101 H 0.89905 0.47536 0.60379 0.0
H1102 H 0.85377 0.51527 0.45036 0.0
H1103 H 0.89506 0.53871 0.46061 0.0
H1104 H 0.83195 0.46239 0.44481 0.0
H1105 H 0.81233 0.43512 0.47133 0.0
C1106 C 0.76787 0.90281 0.77503 0.0
C1107 C 0.78182 0.9014 0.80796 0.0
C1108 C 0.77557 0.96319 0.82914 0.0
C1109 C 0.76199 0.96497 0.79603 0.0
N1110 N 0.75204 0.93928 0.73549 0.0
N1111 N 0.80701 0.93143 0.86336 0.0
C1112 C 0.76021 0.93556 0.76831 0.0
C1113 C 0.78843 0.93209 0.83398 0.0
N1114 N 0.76105 0.87266 0.75058 0.0
N1115 N 0.77413 0.99025 0.85654 0.0
H1116 H 0.81665 0.90893 0.86765 0.0
H1117 H 0.81565 0.95382 0.88183 0.0
H1118 H 0.76432 0.01328 0.85442 0.0
H1119 H 0.77987 0.98874 0.88205 0.0
H1120 H 0.74716 0.87092 0.72751 0.0
H1121 H 0.76793 0.84869 0.75422 0.0
H1122 H 0.75346 0.91992 0.7136 0.0
H1123 H 0.74663 0.96299 0.72972 0.0
C1124 C 0.65147 0.52641 0.97389 0.0
C1125 C 0.62454 0.54287 0.99135 0.0
C1126 C 0.66536 0.59657 0.01117 0.0
C1127 C 0.69089 0.58196 0.98972 0.0
N1128 N 0.7082 0.53373 0.94887 0.0
N1129 N 0.60448 0.59506 0.02331 0.0
C1130 C 0.6841 0.54689 0.97084 0.0
C1131 C 0.63116 0.57829 0.00932 0.0
N1132 N 0.64585 0.49115 0.96056 0.0
N1133 N 0.67412 0.62752 0.03413 0.0
H1134 H 0.57902 0.58268 0.02287 0.0
H1135 H 0.60707 0.62201 0.03296 0.0
H1136 H 0.6992 0.64104 0.03688 0.0
H1137 H 0.6576 0.63777 0.0529 0.0
H1138 H 0.66526 0.47675 0.95043 0.0
H1139 H 0.62218 0.47562 0.96228 0.0
H1140 H 0.70342 0.5099 0.93143 0.0
H1141 H 0.73249 0.54778 0.94641 0.0
C1142 C 0.24855 0.66663 0.21279 0.0
C1143 C 0.27922 0.67142 0.23358 0.0
C1144 C 0.25713 0.61955 0.25736 0.0
C1145 C 0.22362 0.62031 0.24345 0.0
N1146 N 0.18787 0.64309 0.20481 0.0
N1147 N 0.31851 0.63519 0.25103 0.0
C1148 C 0.21935 0.64353 0.22035 0.0
C1149 C 0.2855 0.64251 0.24849 0.0
N1150 N 0.24965 0.67764 0.1819 0.0
N1151 N 0.26181 0.59858 0.28063 0.0
H1152 H 0.33923 0.64976 0.24114 0.0
H1153 H 0.32443 0.61257 0.25881 0.0
H1154 H 0.24157 0.58253 0.28942 0.0
H1155 H 0.28537 0.59988 0.29376 0.0
H1156 H 0.22879 0.67259 0.16417 0.0
H1157 H 0.27323 0.68587 0.1715 0.0
H1158 H 0.18284 0.6623 0.19107 0.0
H1159 H 0.16643 0.62464 0.20689 0.0
C1160 C 0.95337 0.58697 0.99468 0.0
C1161 C 0.94814 0.55609 0.0089 0.0
C1162 C 0.89305 0.57181 0.03219 0.0
C1163 C 0.89591 0.59986 0.01366 0.0
N1164 N 0.9271 0.63234 0.97428 0.0
N1165 N 0.91322 0.51773 0.04033 0.0
C1166 C 0.92584 0.60731 0.99444 0.0
C1167 C 0.91814 0.54822 0.02767 0.0
N1168 N 0.98474 0.59685 0.98149 0.0
N1169 N 0.86694 0.56842 0.05491 0.0
H1170 H 0.9319 0.50081 0.03895 0.0
H1171 H 0.89007 0.50825 0.05055 0.0
H1172 H 0.84844 0.58556 0.05923 0.0
H1173 H 0.86529 0.55069 0.0717 0.0
H1174 H 0.99143 0.6209 0.97384 0.0
H1175 H 0.00531 0.5823 0.98118 0.0
H1176 H 0.94646 0.63623 0.95672 0.0
H1177 H 0.90727 0.64742 0.97282 0.0
C1178 C 0.11117 0.95487 0.03503 0.0
C1179 C 0.11151 0.98835 0.0567 0.0
C1180 C 0.17409 0.99225 0.06724 0.0
C1181 C 0.17428 0.96041 0.04289 0.0
N1182 N 0.144 0.91436 0.99913 0.0
N1183 N 0.14339 0.04122 0.09008 0.0
C1184 C 0.14305 0.94239 0.02565 0.0
C1185 C 0.14304 0.00772 0.07187 0.0
N1186 N 0.08029 0.93464 0.02399 0.0
N1187 N 0.20323 0.00693 0.08699 0.0
H1188 H 0.12104 0.0531 0.09457 0.0
H1189 H 0.16604 0.0582 0.09846 0.0
H1190 H 0.22629 0.99607 0.0848 0.0
H1191 H 0.20376 0.02802 0.10768 0.0
H1192 H 0.07824 0.90845 0.01146 0.0
H1193 H 0.05638 0.94305 0.02987 0.0
H1194 H 0.12265 0.90262 0.98307 0.0
H1195 H 0.16683 0.90469 0.99101 0.0
loop_
_geom_bond_atom_site_label_1
_geom_bond_atom_site_label_2
_geom_bond_distance
_geom_bond_site_symmetry_2
_ccdc_geom_bond_type
H0 C3 0.929 . S
H1 C6 0.929 . S
H2 C8 0.930 . S
C3 H0 0.929 . S
C3 C4 1.398 . S
C3 C5 1.396 . S
C4 C3 1.398 . S
C4 C8 1.407 . S
C5 C3 1.396 . S
C5 C6 1.394 . S
C6 H1 0.929 . S
C6 C5 1.394 . S
C6 C7 1.382 . S
C7 C6 1.382 . S
C7 C8 1.392 . S
C7 N9 1.420 . S
C8 H2 0.930 . S
C8 C4 1.407 . S
C8 C7 1.392 . S
N9 C7 1.420 . S
N9 C10 1.244 . S
C10 N9 1.244 . S
H11 C14 0.929 . S
H12 C17 0.929 . S
H13 C19 0.930 . S
C14 H11 0.929 . S
C14 C15 1.398 . S
C14 C16 1.396 . S
C15 C14 1.398 . S
C15 C19 1.407 . S
C16 C14 1.396 . S
C16 C17 1.394 . S
C17 H12 0.929 . S
C17 C16 1.394 . S
C17 C18 1.382 . S
C18 C17 1.382 . S
C18 C19 1.392 . S
C18 N20 1.420 . S
C19 H13 0.930 . S
C19 C15 1.407 . S
C19 C18 1.392 . S
N20 C18 1.420 . S
N20 C21 1.244 . S
C21 N20 1.244 . S
H22 C25 0.929 . S
H23 C28 0.929 . S
H24 C30 0.930 1_556 S
C25 H22 0.929 . S
C25 C26 1.398 . S
C25 C27 1.396 . S
C26 C25 1.398 . S
C26 C30 1.407 1_455 S
C27 C25 1.396 . S
C27 C28 1.394 . S
C28 H23 0.929 . S
C28 C27 1.394 . S
C28 C29 1.382 1_455 S
C29 C28 1.382 1_655 S
C29 C30 1.392 . S
C29 N31 1.420 . S
C30 H24 0.930 1_554 S
C30 C26 1.407 1_655 S
C30 C29 1.392 . S
N31 C29 1.420 . S
N31 C32 1.244 . S
C32 N31 1.244 . S
H33 C36 0.929 . S
H34 C39 0.929 . S
H35 C41 0.930 . S
C36 H33 0.929 . S
C36 C37 1.398 . S
C36 C38 1.396 . S
C37 C36 1.398 . S
C37 C41 1.407 . S
C38 C36 1.396 . S
C38 C39 1.394 . S
C39 H34 0.929 . S
C39 C38 1.394 . S
C39 C40 1.382 . S
C40 C39 1.382 . S
C40 C41 1.392 . S
C40 N42 1.420 . S
C41 H35 0.930 . S
C41 C37 1.407 . S
C41 C40 1.392 . S
N42 C40 1.420 . S
N42 C43 1.244 . S
C43 N42 1.244 . S
H44 C47 0.929 . S
H45 C50 0.929 . S
H46 C52 0.930 . S
C47 H44 0.929 . S
C47 C48 1.398 1_545 S
C47 C49 1.396 . S
C48 C47 1.398 1_565 S
C48 C52 1.407 . S
C49 C47 1.396 . S
C49 C50 1.394 1_545 S
C50 H45 0.929 . S
C50 C49 1.394 1_565 S
C50 C51 1.382 . S
C51 C50 1.382 . S
C51 C52 1.392 . S
C51 N53 1.420 . S
C52 H46 0.930 . S
C52 C48 1.407 . S
C52 C51 1.392 . S
N53 C51 1.420 . S
N53 C54 1.244 . S
C54 N53 1.244 . S
H55 C58 0.929 . S
H56 C61 0.929 . S
H57 C63 0.930 . S
C58 H55 0.929 . S
C58 C59 1.398 . S
C58 C60 1.396 . S
C59 C58 1.398 . S
C59 C63 1.407 . S
C60 C58 1.396 . S
C60 C61 1.394 . S
C61 H56 0.929 . S
C61 C60 1.394 . S
C61 C62 1.382 . S
C62 C61 1.382 . S
C62 C63 1.392 . S
C62 N64 1.420 . S
C63 H57 0.930 . S
C63 C59 1.407 . S
C63 C62 1.392 . S
N64 C62 1.420 . S
N64 C65 1.244 . S
C65 N64 1.244 . S
H66 C69 0.929 . S
H67 C72 0.929 . S
H68 C74 0.930 . S
C69 H66 0.929 . S
C69 C70 1.398 . S
C69 C71 1.396 . S
C70 C69 1.398 . S
C70 C74 1.407 . S
C71 C69 1.396 . S
C71 C72 1.394 1_655 S
C72 H67 0.929 . S
C72 C71 1.394 1_455 S
C72 C73 1.382 1_455 S
C73 C72 1.382 1_655 S
C73 C74 1.392 . S
C73 N75 1.420 1_655 S
C74 H68 0.930 . S
C74 C70 1.407 . S
C74 C73 1.392 . S
N75 C73 1.420 1_455 S
N75 C76 1.244 . S
C76 N75 1.244 . S
H77 C80 0.929 . S
H78 C83 0.929 . S
H79 C85 0.930 . S
C80 H77 0.929 . S
C80 C81 1.398 . S
C80 C82 1.396 . S
C81 C80 1.398 . S
C81 C85 1.407 . S
C82 C80 1.396 . S
C82 C83 1.394 . S
C83 H78 0.929 . S
C83 C82 1.394 . S
C83 C84 1.382 . S
C84 C83 1.382 . S
C84 C85 1.392 . S
C84 N86 1.420 . S
C85 H79 0.930 . S
C85 C81 1.407 . S
C85 C84 1.392 . S
N86 C84 1.420 . S
N86 C87 1.244 . S
C87 N86 1.244 . S
H88 C91 0.929 . S
H89 C94 0.929 . S
H90 C96 0.930 . S
C91 H88 0.929 . S
C91 C92 1.398 . S
C91 C93 1.396 . S
C92 C91 1.398 . S
C92 C96 1.407 . S
C93 C91 1.396 . S
C93 C94 1.394 . S
C94 H89 0.929 . S
C94 C93 1.394 . S
C94 C95 1.382 . S
C95 C94 1.382 . S
C95 C96 1.392 . S
C95 N97 1.420 . S
C96 H90 0.930 . S
C96 C92 1.407 . S
C96 C95 1.392 . S
N97 C95 1.420 . S
N97 C98 1.244 . S
C98 N97 1.244 . S
H99 C102 0.929 . S
H100 C105 0.953 . S
H101 C107 0.930 . S
C102 H99 0.929 . S
C102 C103 1.398 . S
C102 C104 1.396 . S
C103 C102 1.398 . S
C103 C107 1.407 . S
C104 C102 1.396 . S
C104 C105 1.371 1_565 S
C105 H100 0.953 . S
C105 C104 1.371 1_545 S
C105 C106 1.381 1_545 S
C106 C105 1.381 1_565 S
C106 C107 1.392 . S
C106 N108 1.420 1_565 S
C107 H101 0.930 . S
C107 C103 1.407 . S
C107 C106 1.392 . S
N108 C106 1.420 1_545 S
N108 C109 1.244 . S
C109 N108 1.244 . S
H110 C113 0.929 . S
H111 C116 0.929 . S
H112 C118 0.930 . S
C113 H110 0.929 . S
C113 C114 1.398 . S
C113 C115 1.396 . S
C114 C113 1.398 . S
C114 C118 1.407 . S
C115 C113 1.396 . S
C115 C116 1.394 . S
C116 H111 0.929 . S
C116 C115 1.394 . S
C116 C117 1.382 . S
C117 C116 1.382 . S
C117 C118 1.392 . S
C117 N119 1.420 . S
C118 H112 0.930 . S
C118 C114 1.407 . S
C118 C117 1.392 . S
N119 C117 1.420 . S
N119 C120 1.244 . S
C120 N119 1.244 . S
H121 C124 0.929 . S
H122 C127 0.929 . S
H123 C129 0.930 . S
C124 H121 0.929 . S
C124 C125 1.398 . S
C124 C126 1.396 . S
C125 C124 1.398 . S
C125 C129 1.407 . S
C126 C124 1.396 . S
C126 C127 1.394 . S
C127 H122 0.929 . S
C127 C126 1.394 . S
C127 C128 1.382 . S
C128 C127 1.382 . S
C128 C129 1.392 . S
C128 N130 1.420 . S
C129 H123 0.930 . S
C129 C125 1.407 . S
C129 C128 1.392 . S
N130 C128 1.420 . S
N130 C131 1.244 . S
C131 N130 1.244 . S
H132 C135 0.929 . S
H133 C138 0.929 . S
H134 C140 0.930 . S
C135 H132 0.929 . S
C135 C136 1.398 . S
C135 C137 1.396 . S
C136 C135 1.398 . S
C136 C140 1.407 . S
C137 C135 1.396 . S
C137 C138 1.394 . S
C138 H133 0.929 . S
C138 C137 1.394 . S
C138 C139 1.382 . S
C139 C138 1.382 . S
C139 C140 1.392 . S
C139 N141 1.420 . S
C140 H134 0.930 . S
C140 C136 1.407 . S
C140 C139 1.392 . S
N141 C139 1.420 . S
N141 C142 1.244 . S
C142 N141 1.244 . S
H143 C146 0.929 . S
H144 C149 0.929 . S
H145 C151 0.930 . S
C146 H143 0.929 . S
C146 C147 1.398 . S
C146 C148 1.396 . S
C147 C146 1.398 . S
C147 C151 1.407 . S
C148 C146 1.396 . S
C148 C149 1.394 1_556 S
C149 H144 0.929 . S
C149 C148 1.394 1_554 S
C149 C150 1.383 . S
C150 C149 1.383 . S
C150 C151 1.384 1_554 S
C150 N152 1.427 . S
C151 H145 0.930 . S
C151 C147 1.407 . S
C151 C150 1.384 1_556 S
N152 C150 1.427 . S
N152 C153 1.244 . S
C153 N152 1.244 . S
H154 C157 0.929 . S
H155 C160 0.929 . S
H156 C162 0.930 . S
C157 H154 0.929 . S
C157 C158 1.398 . S
C157 C159 1.396 . S
C158 C157 1.398 . S
C158 C162 1.407 . S
C159 C157 1.396 . S
C159 C160 1.394 . S
C160 H155 0.929 . S
C160 C159 1.394 . S
C160 C161 1.382 . S
C161 C160 1.382 . S
C161 C162 1.392 . S
C161 N163 1.420 . S
C162 H156 0.930 . S
C162 C158 1.407 . S
C162 C161 1.392 . S
N163 C161 1.420 . S
N163 C164 1.244 . S
C164 N163 1.244 . S
H165 C168 0.929 . S
H166 C171 0.929 . S
H167 C173 0.930 1_565 S
C168 H165 0.929 . S
C168 C169 1.398 1_554 S
C168 C170 1.396 . S
C169 C168 1.398 1_556 S
C169 C173 1.407 . S
C170 C168 1.396 . S
C170 C171 1.394 1_554 S
C171 H166 0.929 . S
C171 C170 1.394 1_556 S
C171 C172 1.382 . S
C172 C171 1.382 . S
C172 C173 1.392 . S
C172 N174 1.420 . S
C173 H167 0.930 1_545 S
C173 C169 1.407 . S
C173 C172 1.392 . S
N174 C172 1.420 . S
N174 C175 1.244 . S
C175 N174 1.244 . S
C176 O177 1.160 . S
C176 O183 1.185 . S
O177 C176 1.160 . S
O178 Zn179 1.899 . S
O178 C186 1.284 1_554 S
Zn179 O178 1.899 . S
Zn179 O180 2.032 . S
Zn179 O183 2.086 . S
Zn179 O188 1.977 . S
O180 Zn179 2.032 . S
O180 C184 1.278 . S
C181 O182 1.203 . S
C181 O188 1.267 . S
O182 C181 1.203 . S
O183 C176 1.185 . S
O183 Zn179 2.086 . S
C184 O180 1.278 . S
C184 O185 1.211 . S
O185 C184 1.211 . S
C186 O178 1.284 1_556 S
C186 O187 1.273 . S
O187 C186 1.273 . S
O188 Zn179 1.977 . S
O188 C181 1.267 . S
C189 O190 1.160 . S
C189 O196 1.185 . S
O190 C189 1.160 . S
O191 Zn192 1.899 . S
O191 C199 1.284 . S
Zn192 O191 1.899 . S
Zn192 O193 2.032 . S
Zn192 O196 2.086 . S
Zn192 O201 1.977 . S
O193 Zn192 2.032 . S
O193 C197 1.278 . S
C194 O195 1.203 . S
C194 O201 1.267 . S
O195 C194 1.203 . S
O196 C189 1.185 . S
O196 Zn192 2.086 . S
C197 O193 1.278 . S
C197 O198 1.211 . S
O198 C197 1.211 . S
C199 O191 1.284 . S
C199 O200 1.273 . S
O200 C199 1.273 . S
O201 Zn192 1.977 . S
O201 C194 1.267 . S
C202 O203 1.183 . S
C202 O209 1.170 1_556 S
O203 C202 1.183 . S
O204 Zn205 1.899 1_556 S
O204 C212 1.284 . S
Zn205 O204 1.899 1_554 S
Zn205 O206 2.032 1_554 S
Zn205 O209 2.086 . S
Zn205 O214 1.977 . S
O206 Zn205 2.032 1_556 S
O206 C210 1.278 . S
C207 O208 1.203 . S
C207 O214 1.267 . S
O208 C207 1.203 . S
O209 C202 1.170 1_554 S
O209 Zn205 2.086 . S
C210 O206 1.278 . S
C210 O211 1.211 1_556 S
O211 C210 1.211 1_554 S
C212 O204 1.284 . S
C212 O213 1.273 . S
O213 C212 1.273 . S
O214 Zn205 1.977 . S
O214 C207 1.267 . S
C215 O216 1.160 . S
C215 O222 1.185 . S
O216 C215 1.160 . S
O217 Zn218 1.899 . S
O217 C225 1.284 . S
Zn218 O217 1.899 . S
Zn218 O219 2.032 . S
Zn218 O222 2.086 . S
Zn218 O227 1.977 . S
O219 Zn218 2.032 . S
O219 C223 1.278 1_545 S
C220 O221 1.203 . S
C220 O227 1.267 . S
O221 C220 1.203 . S
O222 C215 1.185 . S
O222 Zn218 2.086 . S
C223 O219 1.278 1_565 S
C223 O224 1.211 . S
O224 C223 1.211 . S
C225 O217 1.284 . S
C225 O226 1.273 1_545 S
O226 C225 1.273 1_565 S
O227 Zn218 1.977 . S
O227 C220 1.267 . S
C228 O229 1.160 . S
C228 O235 1.185 . S
O229 C228 1.160 . S
O230 Zn231 1.899 . S
O230 C238 1.284 . S
Zn231 O230 1.899 . S
Zn231 O232 2.032 . S
Zn231 O235 2.086 . S
Zn231 O240 1.977 . S
O232 Zn231 2.032 . S
O232 C236 1.278 . S
C233 O234 1.203 . S
C233 O240 1.267 . S
O234 C233 1.203 . S
O235 C228 1.185 . S
O235 Zn231 2.086 . S
C236 O232 1.278 . S
C236 O237 1.211 . S
O237 C236 1.211 . S
C238 O230 1.284 . S
C238 O239 1.273 . S
O239 C238 1.273 . S
O240 Zn231 1.977 . S
O240 C233 1.267 . S
C241 O242 1.160 . S
C241 O248 1.185 . S
O242 C241 1.160 . S
O243 Zn244 1.899 . S
O243 C251 1.284 . S
Zn244 O243 1.899 . S
Zn244 O245 2.032 . S
Zn244 O248 2.086 . S
Zn244 O253 1.977 . S
O245 Zn244 2.032 . S
O245 C249 1.278 . S
C246 O247 1.203 . S
C246 O253 1.267 . S
O247 C246 1.203 . S
O248 C241 1.185 . S
O248 Zn244 2.086 . S
C249 O245 1.278 . S
C249 O250 1.211 . S
O250 C249 1.211 . S
C251 O243 1.284 . S
C251 O252 1.273 . S
O252 C251 1.273 . S
O253 Zn244 1.977 . S
O253 C246 1.267 . S
C254 O255 1.160 . S
C254 O261 1.185 . S
O255 C254 1.160 . S
O256 Zn257 1.899 . S
O256 C264 1.284 . S
Zn257 O256 1.899 . S
Zn257 O258 2.032 . S
Zn257 O261 2.086 . S
Zn257 O266 1.977 . S
O258 Zn257 2.032 . S
O258 C262 1.278 . S
C259 O260 1.203 . S
C259 O266 1.267 . S
O260 C259 1.203 . S
O261 C254 1.185 . S
O261 Zn257 2.086 . S
C262 O258 1.278 . S
C262 O263 1.211 . S
O263 C262 1.211 . S
C264 O256 1.284 . S
C264 O265 1.273 . S
O265 C264 1.273 . S
O266 Zn257 1.977 . S
O266 C259 1.267 . S
C267 O268 1.160 . S
C267 O274 1.185 . S
O268 C267 1.160 . S
O269 Zn270 1.899 . S
O269 C277 1.284 1_565 S
Zn270 O269 1.899 . S
Zn270 O271 2.032 1_565 S
Zn270 O274 2.086 . S
Zn270 O279 1.977 . S
O271 Zn270 2.032 1_545 S
O271 C275 1.278 . S
C272 O273 1.203 1_565 S
C272 O279 1.267 . S
O273 C272 1.203 1_545 S
O274 C267 1.185 . S
O274 Zn270 2.086 . S
C275 O271 1.278 . S
C275 O276 1.211 . S
O276 C275 1.211 . S
C277 O269 1.284 1_545 S
C277 O278 1.273 . S
O278 C277 1.273 . S
O279 Zn270 1.977 . S
O279 C272 1.267 . S
C280 O281 1.160 1_455 S
C280 O287 1.185 . S
O281 C280 1.160 1_655 S
O282 Zn283 1.899 1_655 S
O282 C290 1.284 . S
Zn283 O282 1.899 1_455 S
Zn283 O284 2.032 . S
Zn283 O287 2.086 . S
Zn283 O292 1.977 . S
O284 Zn283 2.032 . S
O284 C288 1.278 . S
C285 O286 1.203 . S
C285 O292 1.267 . S
O286 C285 1.203 . S
O287 C280 1.185 . S
O287 Zn283 2.086 . S
C288 O284 1.278 . S
C288 O289 1.211 . S
O289 C288 1.211 . S
C290 O282 1.284 . S
C290 O291 1.273 . S
O291 C290 1.273 . S
O292 Zn283 1.977 . S
O292 C285 1.267 . S
C293 O294 1.160 . S
C293 O300 1.185 . S
O294 C293 1.160 . S
O295 Zn296 1.899 . S
O295 C303 1.284 . S
Zn296 O295 1.899 . S
Zn296 O297 2.032 . S
Zn296 O300 2.086 . S
Zn296 O305 1.977 . S
O297 Zn296 2.032 . S
O297 C301 1.278 . S
C298 O299 1.203 . S
C298 O305 1.267 . S
O299 C298 1.203 . S
O300 C293 1.185 . S
O300 Zn296 2.086 . S
C301 O297 1.278 . S
C301 O302 1.211 . S
O302 C301 1.211 . S
C303 O295 1.284 . S
C303 O304 1.273 . S
O304 C303 1.273 . S
O305 Zn296 1.977 . S
O305 C298 1.267 . S
C306 O307 1.160 1_455 S
C306 O313 1.185 . S
O307 C306 1.160 1_655 S
O308 Zn309 1.899 1_655 S
O308 C316 1.284 . S
Zn309 O308 1.899 1_455 S
Zn309 O310 2.032 . S
Zn309 O313 2.086 . S
Zn309 O318 1.977 . S
O310 Zn309 2.032 . S
O310 C314 1.278 . S
C311 O312 1.203 . S
C311 O318 1.267 . S
O312 C311 1.203 . S
O313 C306 1.185 . S
O313 Zn309 2.086 . S
C314 O310 1.278 . S
C314 O315 1.211 . S
O315 C314 1.211 . S
C316 O308 1.284 . S
C316 O317 1.273 . S
O317 C316 1.273 . S
O318 Zn309 1.977 . S
O318 C311 1.267 . S
C319 O320 1.160 . S
C319 O326 1.185 . S
O320 C319 1.160 . S
O321 Zn322 1.899 . S
O321 C329 1.284 . S
Zn322 O321 1.899 . S
Zn322 O323 2.032 . S
Zn322 O326 2.086 . S
Zn322 O331 1.977 . S
O323 Zn322 2.032 . S
O323 C327 1.278 . S
C324 O325 1.203 . S
C324 O331 1.267 . S
O325 C324 1.203 . S
O326 C319 1.185 . S
O326 Zn322 2.086 . S
C327 O323 1.278 . S
C327 O328 1.211 . S
O328 C327 1.211 . S
C329 O321 1.284 . S
C329 O330 1.273 . S
O330 C329 1.273 . S
O331 Zn322 1.977 . S
O331 C324 1.267 . S
C332 C333 1.363 . S
C332 C338 1.379 . S
C332 N340 1.356 . S
C333 C332 1.363 . S
C333 C339 1.363 . S
C334 C335 1.363 . S
C334 C339 1.379 . S
C334 N341 1.356 . S
C335 C334 1.363 . S
C335 C338 1.363 . S
N336 C338 1.356 . S
N336 H348 0.984 . S
N336 H349 0.985 . S
N337 C339 1.356 . S
N337 H342 0.984 . S
N337 H343 0.985 . S
C338 C332 1.379 . S
C338 C335 1.363 . S
C338 N336 1.356 . S
C339 C333 1.363 . S
C339 C334 1.379 . S
C339 N337 1.356 . S
N340 C332 1.356 . S
N340 H346 0.984 . S
N340 H347 0.984 . S
N341 C334 1.356 . S
N341 H344 0.984 1_556 S
N341 H345 0.985 . S
H342 N337 0.984 . S
H343 N337 0.985 . S
H344 N341 0.984 1_554 S
H345 N341 0.985 . S
H346 N340 0.984 . S
H347 N340 0.984 . S
H348 N336 0.984 . S
H349 N336 0.985 . S
C350 C351 1.363 . S
C350 C356 1.379 . S
C350 N358 1.356 . S
C351 C350 1.363 . S
C351 C357 1.363 . S
C352 C353 1.363 . S
C352 C357 1.379 . S
C352 N359 1.356 . S
C353 C352 1.363 . S
C353 C356 1.363 . S
N354 C356 1.356 . S
N354 H366 0.984 . S
N354 H367 0.985 . S
N355 C357 1.356 . S
N355 H360 0.984 . S
N355 H361 0.985 . S
C356 C350 1.379 . S
C356 C353 1.363 . S
C356 N354 1.356 . S
C357 C351 1.363 . S
C357 C352 1.379 . S
C357 N355 1.356 . S
N358 C350 1.356 . S
N358 H364 0.984 . S
N358 H365 0.984 . S
N359 C352 1.356 . S
N359 H362 0.984 . S
N359 H363 0.985 . S
H360 N355 0.984 . S
H361 N355 0.985 . S
H362 N359 0.984 . S
H363 N359 0.985 . S
H364 N358 0.984 . S
H365 N358 0.984 . S
H366 N354 0.984 . S
H367 N354 0.985 . S
C368 C369 1.363 . S
C368 C374 1.379 . S
C368 N376 1.356 . S
C369 C368 1.363 . S
C369 C375 1.363 . S
C370 C371 1.363 . S
C370 C375 1.379 . S
C370 N377 1.356 . S
C371 C370 1.363 . S
C371 C374 1.363 . S
N372 C374 1.356 . S
N372 H384 0.984 . S
N372 H385 0.985 . S
N373 C375 1.356 . S
N373 H378 0.984 . S
N373 H379 0.985 . S
C374 C368 1.379 . S
C374 C371 1.363 . S
C374 N372 1.356 . S
C375 C369 1.363 . S
C375 C370 1.379 . S
C375 N373 1.356 . S
N376 C368 1.356 . S
N376 H382 0.984 . S
N376 H383 0.984 . S
N377 C370 1.356 . S
N377 H380 0.984 . S
N377 H381 0.985 . S
H378 N373 0.984 . S
H379 N373 0.985 . S
H380 N377 0.984 . S
H381 N377 0.985 . S
H382 N376 0.984 . S
H383 N376 0.984 . S
H384 N372 0.984 . S
H385 N372 0.985 . S
C386 C387 1.363 1_565 S
C386 C392 1.379 1_455 S
C386 N394 1.356 . S
C387 C386 1.363 1_545 S
C387 C393 1.363 . S
C388 C389 1.363 1_455 S
C388 C393 1.379 . S
C388 N395 1.356 . S
C389 C388 1.363 1_655 S
C389 C392 1.363 1_545 S
N390 C392 1.356 . S
N390 H402 0.984 . S
N390 H403 0.985 . S
N391 C393 1.356 . S
N391 H396 0.984 . S
N391 H397 0.985 . S
C392 C386 1.379 1_655 S
C392 C389 1.363 1_565 S
C392 N390 1.356 . S
C393 C387 1.363 . S
C393 C388 1.379 . S
C393 N391 1.356 . S
N394 C386 1.356 . S
N394 H400 0.984 . S
N394 H401 0.984 . S
N395 C388 1.356 . S
N395 H398 0.984 1_455 S
N395 H399 0.985 . S
H396 N391 0.984 . S
H397 N391 0.985 . S
H398 N395 0.984 1_655 S
H399 N395 0.985 . S
H400 N394 0.984 . S
H401 N394 0.984 . S
H402 N390 0.984 . S
H403 N390 0.985 . S
C404 C405 1.363 . S
C404 C410 1.379 . S
C404 N412 1.356 . S
C405 C404 1.363 . S
C405 C411 1.363 . S
C406 C407 1.363 . S
C406 C411 1.379 . S
C406 N413 1.356 . S
C407 C406 1.363 . S
C407 C410 1.363 . S
N408 C410 1.356 . S
N408 H420 0.984 . S
N408 H421 0.985 . S
N409 C411 1.356 . S
N409 H414 0.984 . S
N409 H415 0.985 . S
C410 C404 1.379 . S
C410 C407 1.363 . S
C410 N408 1.356 . S
C411 C405 1.363 . S
C411 C406 1.379 . S
C411 N409 1.356 . S
N412 C404 1.356 . S
N412 H418 0.984 . S
N412 H419 0.984 . S
N413 C406 1.356 . S
N413 H416 0.984 . S
N413 H417 0.985 . S
H414 N409 0.984 . S
H415 N409 0.985 . S
H416 N413 0.984 . S
H417 N413 0.985 . S
H418 N412 0.984 . S
H419 N412 0.984 . S
H420 N408 0.984 . S
H421 N408 0.985 . S
C422 C423 1.363 . S
C422 C428 1.379 . S
C422 N430 1.356 . S
C423 C422 1.363 . S
C423 C429 1.363 . S
C424 C425 1.363 . S
C424 C429 1.379 . S
C424 N431 1.356 . S
C425 C424 1.363 . S
C425 C428 1.363 . S
N426 C428 1.356 . S
N426 H438 0.984 . S
N426 H439 0.985 . S
N427 C429 1.356 . S
N427 H432 0.984 . S
N427 H433 0.985 . S
C428 C422 1.379 . S
C428 C425 1.363 . S
C428 N426 1.356 . S
C429 C423 1.363 . S
C429 C424 1.379 . S
C429 N427 1.356 . S
N430 C422 1.356 . S
N430 H436 0.984 . S
N430 H437 0.984 . S
N431 C424 1.356 . S
N431 H434 0.984 . S
N431 H435 0.985 . S
H432 N427 0.984 . S
H433 N427 0.985 . S
H434 N431 0.984 . S
H435 N431 0.985 . S
H436 N430 0.984 . S
H437 N430 0.984 . S
H438 N426 0.984 . S
H439 N426 0.985 . S
C440 C441 1.363 . S
C440 C446 1.379 . S
C440 N448 1.356 . S
C441 C440 1.363 . S
C441 C447 1.363 . S
C442 C443 1.363 . S
C442 C447 1.379 . S
C442 N449 1.356 . S
C443 C442 1.363 . S
C443 C446 1.363 . S
N444 C446 1.356 . S
N444 H456 0.984 . S
N444 H457 0.985 . S
N445 C447 1.356 . S
N445 H450 0.984 . S
N445 H451 0.985 . S
C446 C440 1.379 . S
C446 C443 1.363 . S
C446 N444 1.356 . S
C447 C441 1.363 . S
C447 C442 1.379 . S
C447 N445 1.356 . S
N448 C440 1.356 . S
N448 H454 0.984 . S
N448 H455 0.984 . S
N449 C442 1.356 . S
N449 H452 0.984 . S
N449 H453 0.985 . S
H450 N445 0.984 . S
H451 N445 0.985 . S
H452 N449 0.984 . S
H453 N449 0.985 . S
H454 N448 0.984 . S
H455 N448 0.984 . S
H456 N444 0.984 . S
H457 N444 0.985 . S
C458 C459 1.363 1_545 S
C458 C464 1.379 . S
C458 N466 1.356 . S
C459 C458 1.363 1_565 S
C459 C465 1.363 . S
C460 C461 1.363 . S
C460 C465 1.379 . S
C460 N467 1.356 . S
C461 C460 1.363 . S
C461 C464 1.363 1_565 S
N462 C464 1.356 . S
N462 H474 0.984 . S
N462 H475 0.985 . S
N463 C465 1.356 . S
N463 H468 0.984 . S
N463 H469 0.985 . S
C464 C458 1.379 . S
C464 C461 1.363 1_545 S
C464 N462 1.356 . S
C465 C459 1.363 . S
C465 C460 1.379 . S
C465 N463 1.356 . S
N466 C458 1.356 . S
N466 H472 0.984 . S
N466 H473 0.984 . S
N467 C460 1.356 . S
N467 H470 0.984 . S
N467 H471 0.985 . S
H468 N463 0.984 . S
H469 N463 0.985 . S
H470 N467 0.984 . S
H471 N467 0.985 . S
H472 N466 0.984 . S
H473 N466 0.984 . S
H474 N462 0.984 . S
H475 N462 0.985 . S
C476 C477 1.363 . S
C476 C482 1.379 . S
C476 N484 1.356 . S
C477 C476 1.363 . S
C477 C483 1.363 . S
C478 C479 1.363 . S
C478 C483 1.379 . S
C478 N485 1.356 . S
C479 C478 1.363 . S
C479 C482 1.363 . S
N480 C482 1.356 . S
N480 H492 0.984 . S
N480 H493 0.985 . S
N481 C483 1.356 . S
N481 H486 0.984 . S
N481 H487 0.985 . S
C482 C476 1.379 . S
C482 C479 1.363 . S
C482 N480 1.356 . S
C483 C477 1.363 . S
C483 C478 1.379 . S
C483 N481 1.356 . S
N484 C476 1.356 . S
N484 H490 0.984 . S
N484 H491 0.984 . S
N485 C478 1.356 . S
N485 H488 0.984 . S
N485 H489 0.985 . S
H486 N481 0.984 . S
H487 N481 0.985 . S
H488 N485 0.984 . S
H489 N485 0.985 . S
H490 N484 0.984 . S
H491 N484 0.984 . S
H492 N480 0.984 . S
H493 N480 0.985 . S
C494 C495 1.363 . S
C494 C500 1.379 . S
C494 N502 1.356 . S
C495 C494 1.363 . S
C495 C501 1.363 . S
C496 C497 1.363 . S
C496 C501 1.379 . S
C496 N503 1.356 . S
C497 C496 1.363 . S
C497 C500 1.363 . S
N498 C500 1.356 . S
N498 H510 0.984 . S
N498 H511 0.985 . S
N499 C501 1.356 . S
N499 H504 0.984 . S
N499 H505 0.985 . S
C500 C494 1.379 . S
C500 C497 1.363 . S
C500 N498 1.356 . S
C501 C495 1.363 . S
C501 C496 1.379 . S
C501 N499 1.356 . S
N502 C494 1.356 . S
N502 H508 0.984 . S
N502 H509 0.984 . S
N503 C496 1.356 . S
N503 H506 0.984 . S
N503 H507 0.985 . S
H504 N499 0.984 . S
H505 N499 0.985 . S
H506 N503 0.984 . S
H507 N503 0.985 . S
H508 N502 0.984 . S
H509 N502 0.984 . S
H510 N498 0.984 . S
H511 N498 0.985 . S
C512 C513 1.363 . S
C512 C518 1.379 . S
C512 N520 1.356 . S
C513 C512 1.363 . S
C513 C519 1.363 . S
C514 C515 1.363 . S
C514 C519 1.379 . S
C514 N521 1.356 . S
C515 C514 1.363 . S
C515 C518 1.363 . S
N516 C518 1.356 . S
N516 H528 0.984 . S
N516 H529 0.985 . S
N517 C519 1.356 . S
N517 H522 0.984 . S
N517 H523 0.985 . S
C518 C512 1.379 . S
C518 C515 1.363 . S
C518 N516 1.356 . S
C519 C513 1.363 . S
C519 C514 1.379 . S
C519 N517 1.356 . S
N520 C512 1.356 . S
N520 H526 0.984 . S
N520 H527 0.984 . S
N521 C514 1.356 . S
N521 H524 0.984 . S
N521 H525 0.985 . S
H522 N517 0.984 . S
H523 N517 0.985 . S
H524 N521 0.984 . S
H525 N521 0.985 . S
H526 N520 0.984 . S
H527 N520 0.984 . S
H528 N516 0.984 . S
H529 N516 0.985 . S
C530 C531 1.363 . S
C530 C536 1.379 . S
C530 N538 1.356 . S
C531 C530 1.363 . S
C531 C537 1.363 . S
C532 C533 1.363 . S
C532 C537 1.379 . S
C532 N539 1.356 . S
C533 C532 1.363 . S
C533 C536 1.363 . S
N534 C536 1.356 . S
N534 H546 0.984 . S
N534 H547 0.985 . S
N535 C537 1.356 . S
N535 H540 0.984 . S
N535 H541 0.985 . S
C536 C530 1.379 . S
C536 C533 1.363 . S
C536 N534 1.356 . S
C537 C531 1.363 . S
C537 C532 1.379 . S
C537 N535 1.356 . S
N538 C530 1.356 . S
N538 H544 0.984 . S
N538 H545 0.984 . S
N539 C532 1.356 . S
N539 H542 0.984 . S
N539 H543 0.985 . S
H540 N535 0.984 . S
H541 N535 0.985 . S
H542 N539 0.984 . S
H543 N539 0.985 . S
H544 N538 0.984 . S
H545 N538 0.984 . S
H546 N534 0.984 . S
H547 N534 0.985 . S
C548 C549 1.363 . S
C548 C554 1.379 . S
C548 N556 1.356 . S
C549 C548 1.363 . S
C549 C555 1.363 . S
C550 C551 1.363 . S
C550 C555 1.379 . S
C550 N557 1.356 . S
C551 C550 1.363 . S
C551 C554 1.363 . S
N552 C554 1.356 . S
N552 H564 0.984 . S
N552 H565 0.985 . S
N553 C555 1.356 . S
N553 H558 0.984 . S
N553 H559 0.985 . S
C554 C548 1.379 . S
C554 C551 1.363 . S
C554 N552 1.356 . S
C555 C549 1.363 . S
C555 C550 1.379 . S
C555 N553 1.356 . S
N556 C548 1.356 . S
N556 H562 0.984 . S
N556 H563 0.984 . S
N557 C550 1.356 . S
N557 H560 0.984 . S
N557 H561 0.985 . S
H558 N553 0.984 . S
H559 N553 0.985 . S
H560 N557 0.984 . S
H561 N557 0.985 . S
H562 N556 0.984 . S
H563 N556 0.984 . S
H564 N552 0.984 . S
H565 N552 0.985 . S
C566 C567 1.363 . S
C566 C572 1.379 . S
C566 N574 1.356 . S
C567 C566 1.363 . S
C567 C573 1.363 . S
C568 C569 1.363 . S
C568 C573 1.379 . S
C568 N575 1.356 . S
C569 C568 1.363 . S
C569 C572 1.363 . S
N570 C572 1.356 1_655 S
N570 H582 0.984 . S
N570 H583 0.985 . S
N571 C573 1.356 . S
N571 H576 0.984 . S
N571 H577 0.985 . S
C572 C566 1.379 . S
C572 C569 1.363 . S
C572 N570 1.356 1_455 S
C573 C567 1.363 . S
C573 C568 1.379 . S
C573 N571 1.356 . S
N574 C566 1.356 . S
N574 H580 0.984 1_455 S
N574 H581 0.984 . S
N575 C568 1.356 . S
N575 H578 0.984 . S
N575 H579 0.985 . S
H576 N571 0.984 . S
H577 N571 0.985 . S
H578 N575 0.984 . S
H579 N575 0.985 . S
H580 N574 0.984 1_655 S
H581 N574 0.984 . S
H582 N570 0.984 . S
H583 N570 0.985 . S
C584 C585 1.363 . S
C584 C590 1.379 . S
C584 N592 1.356 . S
C585 C584 1.363 . S
C585 C591 1.363 . S
C586 C587 1.363 . S
C586 C591 1.379 . S
C586 N593 1.356 . S
C587 C586 1.363 . S
C587 C590 1.363 . S
N588 C590 1.356 . S
N588 H600 0.984 . S
N588 H601 0.985 . S
N589 C591 1.356 . S
N589 H594 0.984 . S
N589 H595 0.985 . S
C590 C584 1.379 . S
C590 C587 1.363 . S
C590 N588 1.356 . S
C591 C585 1.363 . S
C591 C586 1.379 . S
C591 N589 1.356 . S
N592 C584 1.356 . S
N592 H598 0.984 . S
N592 H599 0.984 . S
N593 C586 1.356 . S
N593 H596 0.984 . S
N593 H597 0.985 . S
H594 N589 0.984 . S
H595 N589 0.985 . S
H596 N593 0.984 . S
H597 N593 0.985 . S
H598 N592 0.984 . S
H599 N592 0.984 . S
H600 N588 0.984 . S
H601 N588 0.985 . S
C602 C603 1.363 1_455 S
C602 C608 1.379 . S
C602 N610 1.356 . S
C603 C602 1.363 1_655 S
C603 C609 1.363 . S
C604 C605 1.367 . S
C604 C609 1.379 . S
C604 N611 1.356 . S
C605 C604 1.367 . S
C605 C608 1.359 1_655 S
N606 C608 1.356 . S
N606 H618 0.984 . S
N606 H619 0.985 . S
N607 C609 1.356 . S
N607 H612 0.984 . S
N607 H613 0.985 . S
C608 C602 1.379 . S
C608 C605 1.359 1_455 S
C608 N606 1.356 . S
C609 C603 1.363 . S
C609 C604 1.379 . S
C609 N607 1.356 . S
N610 C602 1.356 . S
N610 H616 0.984 . S
N610 H617 0.984 . S
N611 C604 1.356 . S
N611 H614 0.984 . S
N611 H615 0.985 . S
H612 N607 0.984 . S
H613 N607 0.985 . S
H614 N611 0.984 . S
H615 N611 0.985 . S
H616 N610 0.984 . S
H617 N610 0.984 . S
H618 N606 0.984 . S
H619 N606 0.985 . S
C620 C621 1.363 . S
C620 C626 1.379 . S
C620 N628 1.356 . S
C621 C620 1.363 . S
C621 C627 1.363 . S
C622 C623 1.363 . S
C622 C627 1.379 . S
C622 N629 1.356 . S
C623 C622 1.363 . S
C623 C626 1.363 . S
N624 C626 1.356 . S
N624 H636 0.984 . S
N624 H637 0.985 . S
N625 C627 1.356 . S
N625 H630 0.984 . S
N625 H631 0.985 . S
C626 C620 1.379 . S
C626 C623 1.363 . S
C626 N624 1.356 . S
C627 C621 1.363 . S
C627 C622 1.379 . S
C627 N625 1.356 . S
N628 C620 1.356 . S
N628 H634 0.984 . S
N628 H635 0.984 . S
N629 C622 1.356 . S
N629 H632 0.984 . S
N629 H633 0.985 . S
H630 N625 0.984 . S
H631 N625 0.985 . S
H632 N629 0.984 . S
H633 N629 0.985 . S
H634 N628 0.984 . S
H635 N628 0.984 . S
H636 N624 0.984 . S
H637 N624 0.985 . S
C638 C639 1.363 . S
C638 C644 1.379 . S
C638 N646 1.356 . S
C639 C638 1.363 . S
C639 C645 1.363 . S
C640 C641 1.363 . S
C640 C645 1.379 . S
C640 N647 1.356 . S
C641 C640 1.363 . S
C641 C644 1.363 . S
N642 C644 1.356 . S
N642 H654 0.984 . S
N642 H655 0.985 . S
N643 C645 1.356 . S
N643 H648 0.984 . S
N643 H649 0.985 . S
C644 C638 1.379 . S
C644 C641 1.363 . S
C644 N642 1.356 . S
C645 C639 1.363 . S
C645 C640 1.379 . S
C645 N643 1.356 . S
N646 C638 1.356 . S
N646 H652 0.984 . S
N646 H653 0.984 . S
N647 C640 1.356 . S
N647 H650 0.984 . S
N647 H651 0.985 . S
H648 N643 0.984 . S
H649 N643 0.985 . S
H650 N647 0.984 . S
H651 N647 0.985 . S
H652 N646 0.984 . S
H653 N646 0.984 . S
H654 N642 0.984 . S
H655 N642 0.985 . S
C656 C657 1.369 1_556 S
C656 C662 1.379 . S
C656 N664 1.356 . S
C657 C656 1.369 1_554 S
C657 C663 1.373 . S
C658 C659 1.363 . S
C658 C663 1.379 . S
C658 N665 1.356 . S
C659 C658 1.363 . S
C659 C662 1.363 1_554 S
N660 C662 1.356 . S
N660 H672 0.984 . S
N660 H673 0.969 1_556 S
N661 C663 1.356 1_545 S
N661 H666 0.984 . S
N661 H667 0.985 . S
C662 C656 1.379 . S
C662 C659 1.363 1_556 S
C662 N660 1.356 . S
C663 C657 1.373 . S
C663 C658 1.379 . S
C663 N661 1.356 1_565 S
N664 C656 1.356 . S
N664 H670 0.984 . S
N664 H671 0.984 1_565 S
N665 C658 1.356 . S
N665 H668 0.984 . S
N665 H669 0.985 . S
H666 N661 0.984 . S
H667 N661 0.985 . S
H668 N665 0.984 . S
H669 N665 0.985 . S
H670 N664 0.984 . S
H671 N664 0.984 1_545 S
H672 N660 0.984 . S
H673 N660 0.969 1_554 S
C674 C675 1.363 . S
C674 C680 1.379 . S
C674 N682 1.356 . S
C675 C674 1.363 . S
C675 C681 1.363 . S
C676 C677 1.363 . S
C676 C681 1.379 . S
C676 N683 1.356 . S
C677 C676 1.363 . S
C677 C680 1.363 . S
N678 C680 1.356 . S
N678 H690 0.984 . S
N678 H691 0.985 . S
N679 C681 1.356 . S
N679 H684 0.984 . S
N679 H685 0.985 . S
C680 C674 1.379 . S
C680 C677 1.363 . S
C680 N678 1.356 . S
C681 C675 1.363 . S
C681 C676 1.379 . S
C681 N679 1.356 . S
N682 C674 1.356 . S
N682 H688 0.984 . S
N682 H689 0.984 . S
N683 C676 1.356 . S
N683 H686 0.984 . S
N683 H687 0.985 . S
H684 N679 0.984 . S
H685 N679 0.985 . S
H686 N683 0.984 . S
H687 N683 0.985 . S
H688 N682 0.984 . S
H689 N682 0.984 . S
H690 N678 0.984 . S
H691 N678 0.985 . S
C692 C693 1.363 . S
C692 C698 1.379 . S
C692 N700 1.356 . S
C693 C692 1.363 . S
C693 C699 1.363 . S
C694 C695 1.363 . S
C694 C699 1.379 . S
C694 N701 1.356 . S
C695 C694 1.363 . S
C695 C698 1.363 . S
N696 C698 1.356 . S
N696 H708 0.984 . S
N696 H709 0.985 . S
N697 C699 1.372 . S
N697 H702 0.977 1_545 S
N697 H703 0.977 1_545 S
C698 C692 1.379 . S
C698 C695 1.363 . S
C698 N696 1.356 . S
C699 C693 1.363 . S
C699 C694 1.379 . S
C699 N697 1.372 . S
N700 C692 1.356 . S
N700 H706 0.984 . S
N700 H707 0.984 . S
N701 C694 1.356 . S
N701 H704 0.984 . S
N701 H705 0.985 . S
H702 N697 0.977 1_565 S
H703 N697 0.977 1_565 S
H704 N701 0.984 . S
H705 N701 0.985 . S
H706 N700 0.984 . S
H707 N700 0.984 . S
H708 N696 0.984 . S
H709 N696 0.985 . S
C710 C711 1.363 . S
C710 C716 1.379 . S
C710 N718 1.356 . S
C711 C710 1.363 . S
C711 C717 1.363 . S
C712 C713 1.363 . S
C712 C717 1.379 . S
C712 N719 1.356 . S
C713 C712 1.363 . S
C713 C716 1.363 . S
N714 C716 1.356 . S
N714 H726 0.984 . S
N714 H727 0.985 . S
N715 C717 1.356 . S
N715 H720 0.984 . S
N715 H721 0.985 . S
C716 C710 1.379 . S
C716 C713 1.363 . S
C716 N714 1.356 . S
C717 C711 1.363 . S
C717 C712 1.379 . S
C717 N715 1.356 . S
N718 C710 1.356 . S
N718 H724 0.984 . S
N718 H725 0.984 . S
N719 C712 1.356 . S
N719 H722 0.984 . S
N719 H723 0.985 . S
H720 N715 0.984 . S
H721 N715 0.985 . S
H722 N719 0.984 . S
H723 N719 0.985 . S
H724 N718 0.984 . S
H725 N718 0.984 . S
H726 N714 0.984 . S
H727 N714 0.985 . S
C728 C729 1.363 . S
C728 C734 1.379 . S
C728 N736 1.356 . S
C729 C728 1.363 . S
C729 C735 1.363 . S
C730 C731 1.363 . S
C730 C735 1.379 . S
C730 N737 1.356 . S
C731 C730 1.363 . S
C731 C734 1.363 . S
N732 C734 1.356 . S
N732 H744 0.984 . S
N732 H745 0.985 . S
N733 C735 1.356 . S
N733 H738 0.984 . S
N733 H739 0.985 . S
C734 C728 1.379 . S
C734 C731 1.363 . S
C734 N732 1.356 . S
C735 C729 1.363 . S
C735 C730 1.379 . S
C735 N733 1.356 . S
N736 C728 1.356 . S
N736 H742 0.984 . S
N736 H743 0.984 . S
N737 C730 1.356 . S
N737 H740 0.984 . S
N737 H741 0.985 . S
H738 N733 0.984 . S
H739 N733 0.985 . S
H740 N737 0.984 . S
H741 N737 0.985 . S
H742 N736 0.984 . S
H743 N736 0.984 . S
H744 N732 0.984 . S
H745 N732 0.985 . S
C746 C747 1.363 . S
C746 C752 1.379 . S
C746 N754 1.356 . S
C747 C746 1.363 . S
C747 C753 1.363 . S
C748 C749 1.363 . S
C748 C753 1.379 . S
C748 N755 1.356 . S
C749 C748 1.363 . S
C749 C752 1.363 . S
N750 C752 1.356 . S
N750 H762 0.984 . S
N750 H763 0.985 . S
N751 C753 1.356 . S
N751 H756 0.984 . S
N751 H757 0.985 . S
C752 C746 1.379 . S
C752 C749 1.363 . S
C752 N750 1.356 . S
C753 C747 1.363 . S
C753 C748 1.379 . S
C753 N751 1.356 . S
N754 C746 1.356 . S
N754 H760 0.984 . S
N754 H761 0.984 . S
N755 C748 1.356 . S
N755 H758 0.984 . S
N755 H759 0.985 . S
H756 N751 0.984 . S
H757 N751 0.985 . S
H758 N755 0.984 . S
H759 N755 0.985 . S
H760 N754 0.984 . S
H761 N754 0.984 . S
H762 N750 0.984 . S
H763 N750 0.985 . S
C764 C765 1.363 . S
C764 C770 1.379 . S
C764 N772 1.356 . S
C765 C764 1.363 . S
C765 C771 1.363 . S
C766 C767 1.363 . S
C766 C771 1.379 . S
C766 N773 1.356 . S
C767 C766 1.363 . S
C767 C770 1.363 . S
N768 C770 1.356 . S
N768 H780 0.984 . S
N768 H781 0.985 . S
N769 C771 1.356 . S
N769 H774 0.984 . S
N769 H775 0.985 . S
C770 C764 1.379 . S
C770 C767 1.363 . S
C770 N768 1.356 . S
C771 C765 1.363 . S
C771 C766 1.379 . S
C771 N769 1.356 . S
N772 C764 1.356 . S
N772 H778 0.984 . S
N772 H779 0.984 . S
N773 C766 1.356 . S
N773 H776 0.984 . S
N773 H777 0.985 . S
H774 N769 0.984 . S
H775 N769 0.985 . S
H776 N773 0.984 . S
H777 N773 0.985 . S
H778 N772 0.984 . S
H779 N772 0.984 . S
H780 N768 0.984 . S
H781 N768 0.985 . S
C782 C783 1.363 . S
C782 C788 1.379 . S
C782 N790 1.356 . S
C783 C782 1.363 . S
C783 C789 1.363 . S
C784 C785 1.363 1_565 S
C784 C789 1.379 1_565 S
C784 N791 1.356 . S
C785 C784 1.363 1_545 S
C785 C788 1.363 . S
N786 C788 1.356 . S
N786 H798 0.984 . S
N786 H799 0.985 . S
N787 C789 1.356 1_565 S
N787 H792 0.984 . S
N787 H793 0.985 . S
C788 C782 1.379 . S
C788 C785 1.363 . S
C788 N786 1.356 . S
C789 C783 1.363 . S
C789 C784 1.379 1_545 S
C789 N787 1.356 1_545 S
N790 C782 1.356 . S
N790 H796 0.984 . S
N790 H797 0.984 . S
N791 C784 1.356 . S
N791 H794 0.984 . S
N791 H795 0.985 . S
H792 N787 0.984 . S
H793 N787 0.985 . S
H794 N791 0.984 . S
H795 N791 0.985 . S
H796 N790 0.984 . S
H797 N790 0.984 . S
H798 N786 0.984 . S
H799 N786 0.985 . S
C800 C801 1.363 . S
C800 C806 1.379 . S
C800 N808 1.356 . S
C801 C800 1.363 . S
C801 C807 1.363 . S
C802 C803 1.363 . S
C802 C807 1.379 . S
C802 N809 1.356 . S
C803 C802 1.363 . S
C803 C806 1.363 . S
N804 C806 1.356 . S
N804 H816 0.984 . S
N804 H817 0.985 . S
N805 C807 1.356 . S
N805 H810 0.984 . S
N805 H811 0.985 . S
C806 C800 1.379 . S
C806 C803 1.363 . S
C806 N804 1.356 . S
C807 C801 1.363 . S
C807 C802 1.379 . S
C807 N805 1.356 . S
N808 C800 1.356 . S
N808 H814 0.984 . S
N808 H815 0.984 . S
N809 C802 1.356 . S
N809 H812 0.984 . S
N809 H813 0.985 . S
H810 N805 0.984 . S
H811 N805 0.985 . S
H812 N809 0.984 . S
H813 N809 0.985 . S
H814 N808 0.984 . S
H815 N808 0.984 . S
H816 N804 0.984 . S
H817 N804 0.985 . S
C818 C819 1.363 . S
C818 C824 1.379 . S
C818 N826 1.356 . S
C819 C818 1.363 . S
C819 C825 1.363 . S
C820 C821 1.363 . S
C820 C825 1.379 . S
C820 N827 1.356 . S
C821 C820 1.363 . S
C821 C824 1.363 . S
N822 C824 1.356 . S
N822 H834 0.984 . S
N822 H835 0.985 . S
N823 C825 1.356 . S
N823 H828 0.984 . S
N823 H829 0.985 . S
C824 C818 1.379 . S
C824 C821 1.363 . S
C824 N822 1.356 . S
C825 C819 1.363 . S
C825 C820 1.379 . S
C825 N823 1.356 . S
N826 C818 1.356 . S
N826 H832 0.984 . S
N826 H833 0.984 . S
N827 C820 1.356 . S
N827 H830 0.984 . S
N827 H831 0.985 . S
H828 N823 0.984 . S
H829 N823 0.985 . S
H830 N827 0.984 . S
H831 N827 0.985 . S
H832 N826 0.984 . S
H833 N826 0.984 . S
H834 N822 0.984 . S
H835 N822 0.985 . S
C836 C837 1.363 . S
C836 C842 1.379 . S
C836 N844 1.356 . S
C837 C836 1.363 . S
C837 C843 1.363 . S
C838 C839 1.363 . S
C838 C843 1.379 . S
C838 N845 1.356 . S
C839 C838 1.363 . S
C839 C842 1.363 . S
N840 C842 1.356 . S
N840 H852 0.984 . S
N840 H853 0.985 . S
N841 C843 1.356 . S
N841 H846 0.984 . S
N841 H847 0.985 . S
C842 C836 1.379 . S
C842 C839 1.363 . S
C842 N840 1.356 . S
C843 C837 1.363 . S
C843 C838 1.379 . S
C843 N841 1.356 . S
N844 C836 1.356 . S
N844 H850 0.984 . S
N844 H851 0.984 . S
N845 C838 1.356 . S
N845 H848 0.984 . S
N845 H849 0.985 . S
H846 N841 0.984 . S
H847 N841 0.985 . S
H848 N845 0.984 . S
H849 N845 0.985 . S
H850 N844 0.984 . S
H851 N844 0.984 . S
H852 N840 0.984 . S
H853 N840 0.985 . S
C854 C855 1.363 1_655 S
C854 C860 1.379 . S
C854 N862 1.356 . S
C855 C854 1.363 1_455 S
C855 C861 1.363 . S
C856 C857 1.363 1_455 S
C856 C861 1.379 . S
C856 N863 1.356 . S
C857 C856 1.363 1_655 S
C857 C860 1.363 . S
N858 C860 1.356 . S
N858 H870 0.984 . S
N858 H871 0.985 . S
N859 C861 1.356 . S
N859 H864 0.984 . S
N859 H865 0.985 . S
C860 C854 1.379 . S
C860 C857 1.363 . S
C860 N858 1.356 . S
C861 C855 1.363 . S
C861 C856 1.379 . S
C861 N859 1.356 . S
N862 C854 1.356 . S
N862 H868 0.984 . S
N862 H869 0.984 1_655 S
N863 C856 1.356 . S
N863 H866 0.984 . S
N863 H867 0.985 . S
H864 N859 0.984 . S
H865 N859 0.985 . S
H866 N863 0.984 . S
H867 N863 0.985 . S
H868 N862 0.984 . S
H869 N862 0.984 1_455 S
H870 N858 0.984 . S
H871 N858 0.985 . S
C872 C873 1.363 . S
C872 C878 1.379 . S
C872 N880 1.356 . S
C873 C872 1.363 . S
C873 C879 1.363 . S
C874 C875 1.363 . S
C874 C879 1.379 . S
C874 N881 1.356 . S
C875 C874 1.363 . S
C875 C878 1.363 . S
N876 C878 1.356 . S
N876 H888 0.984 . S
N876 H889 0.985 . S
N877 C879 1.356 . S
N877 H882 0.984 . S
N877 H883 0.985 . S
C878 C872 1.379 . S
C878 C875 1.363 . S
C878 N876 1.356 . S
C879 C873 1.363 . S
C879 C874 1.379 . S
C879 N877 1.356 . S
N880 C872 1.356 . S
N880 H886 0.984 . S
N880 H887 0.984 . S
N881 C874 1.356 . S
N881 H884 0.984 . S
N881 H885 0.985 . S
H882 N877 0.984 . S
H883 N877 0.985 . S
H884 N881 0.984 . S
H885 N881 0.985 . S
H886 N880 0.984 . S
H887 N880 0.984 . S
H888 N876 0.984 . S
H889 N876 0.985 . S
C890 C891 1.363 . S
C890 C896 1.379 . S
C890 N898 1.356 . S
C891 C890 1.363 . S
C891 C897 1.363 . S
C892 C893 1.363 . S
C892 C897 1.379 . S
C892 N899 1.356 . S
C893 C892 1.363 . S
C893 C896 1.363 . S
N894 C896 1.356 . S
N894 H906 0.984 . S
N894 H907 0.985 . S
N895 C897 1.356 . S
N895 H900 0.984 . S
N895 H901 0.985 . S
C896 C890 1.379 . S
C896 C893 1.363 . S
C896 N894 1.356 . S
C897 C891 1.363 . S
C897 C892 1.379 . S
C897 N895 1.356 . S
N898 C890 1.356 . S
N898 H904 0.984 . S
N898 H905 0.984 . S
N899 C892 1.356 . S
N899 H902 0.984 . S
N899 H903 0.985 . S
H900 N895 0.984 . S
H901 N895 0.985 . S
H902 N899 0.984 . S
H903 N899 0.985 . S
H904 N898 0.984 . S
H905 N898 0.984 . S
H906 N894 0.984 . S
H907 N894 0.985 . S
C908 C909 1.363 . S
C908 C914 1.379 . S
C908 N916 1.356 . S
C909 C908 1.363 . S
C909 C915 1.363 . S
C910 C911 1.363 . S
C910 C915 1.379 . S
C910 N917 1.356 . S
C911 C910 1.363 . S
C911 C914 1.363 . S
N912 C914 1.356 . S
N912 H924 0.984 . S
N912 H925 0.985 . S
N913 C915 1.356 . S
N913 H918 0.984 . S
N913 H919 0.985 . S
C914 C908 1.379 . S
C914 C911 1.363 . S
C914 N912 1.356 . S
C915 C909 1.363 . S
C915 C910 1.379 . S
C915 N913 1.356 . S
N916 C908 1.356 . S
N916 H922 0.984 . S
N916 H923 0.984 . S
N917 C910 1.356 . S
N917 H920 0.984 . S
N917 H921 0.985 . S
H918 N913 0.984 . S
H919 N913 0.985 . S
H920 N917 0.984 . S
H921 N917 0.985 . S
H922 N916 0.984 . S
H923 N916 0.984 . S
H924 N912 0.984 . S
H925 N912 0.985 . S
C926 C927 1.363 1_554 S
C926 C932 1.379 1_554 S
C926 N934 1.356 . S
C927 C926 1.363 1_556 S
C927 C933 1.363 1_455 S
C928 C929 1.363 1_655 S
C928 C933 1.379 . S
C928 N935 1.356 . S
C929 C928 1.363 1_455 S
C929 C932 1.363 . S
N930 C932 1.356 . S
N930 H942 0.984 1_556 S
N930 H943 0.985 . S
N931 C933 1.356 . S
N931 H936 0.984 . S
N931 H937 0.985 . S
C932 C926 1.379 1_556 S
C932 C929 1.363 . S
C932 N930 1.356 . S
C933 C927 1.363 1_655 S
C933 C928 1.379 . S
C933 N931 1.356 . S
N934 C926 1.356 . S
N934 H940 0.984 . S
N934 H941 0.984 . S
N935 C928 1.356 . S
N935 H938 0.984 . S
N935 H939 0.985 . S
H936 N931 0.984 . S
H937 N931 0.985 . S
H938 N935 0.984 . S
H939 N935 0.985 . S
H940 N934 0.984 . S
H941 N934 0.984 . S
H942 N930 0.984 1_554 S
H943 N930 0.985 . S
C944 C945 1.363 . S
C944 C950 1.379 . S
C944 N952 1.356 . S
C945 C944 1.363 . S
C945 C951 1.363 . S
C946 C947 1.363 . S
C946 C951 1.379 . S
C946 N953 1.356 . S
C947 C946 1.363 . S
C947 C950 1.363 . S
N948 C950 1.356 . S
N948 H960 0.984 . S
N948 H961 0.985 . S
N949 C951 1.356 . S
N949 H954 0.984 . S
N949 H955 0.985 . S
C950 C944 1.379 . S
C950 C947 1.363 . S
C950 N948 1.356 . S
C951 C945 1.363 . S
C951 C946 1.379 . S
C951 N949 1.356 . S
N952 C944 1.356 . S
N952 H958 0.984 . S
N952 H959 0.984 . S
N953 C946 1.356 . S
N953 H956 0.984 . S
N953 H957 0.985 . S
H954 N949 0.984 . S
H955 N949 0.985 . S
H956 N953 0.984 . S
H957 N953 0.985 . S
H958 N952 0.984 . S
H959 N952 0.984 . S
H960 N948 0.984 . S
H961 N948 0.985 . S
C962 C963 1.363 1_554 S
C962 C968 1.379 1_554 S
C962 N970 1.356 . S
C963 C962 1.363 1_556 S
C963 C969 1.363 . S
C964 C965 1.363 . S
C964 C969 1.379 . S
C964 N971 1.356 . S
C965 C964 1.363 . S
C965 C968 1.363 . S
N966 C968 1.356 . S
N966 H978 0.970 1_456 S
N966 H979 0.985 . S
N967 C969 1.356 . S
N967 H972 0.984 . S
N967 H973 0.985 . S
C968 C962 1.379 1_556 S
C968 C965 1.363 . S
C968 N966 1.356 . S
C969 C963 1.363 . S
C969 C964 1.379 . S
C969 N967 1.356 . S
N970 C962 1.356 . S
N970 H976 0.984 . S
N970 H977 0.984 . S
N971 C964 1.356 . S
N971 H974 0.984 . S
N971 H975 0.985 . S
H972 N967 0.984 . S
H973 N967 0.985 . S
H974 N971 0.984 . S
H975 N971 0.985 . S
H976 N970 0.984 . S
H977 N970 0.984 . S
H978 N966 0.970 1_654 S
H979 N966 0.985 . S
C980 C981 1.363 . S
C980 C986 1.379 . S
C980 N988 1.356 . S
C981 C980 1.363 . S
C981 C987 1.363 . S
C982 C983 1.363 . S
C982 C987 1.379 . S
C982 N989 1.356 . S
C983 C982 1.363 . S
C983 C986 1.363 . S
N984 C986 1.356 . S
N984 H996 0.984 . S
N984 H997 0.985 . S
N985 C987 1.356 . S
N985 H990 0.984 . S
N985 H991 0.985 . S
C986 C980 1.379 . S
C986 C983 1.363 . S
C986 N984 1.356 . S
C987 C981 1.363 . S
C987 C982 1.379 . S
C987 N985 1.356 . S
N988 C980 1.356 . S
N988 H994 0.984 . S
N988 H995 0.984 . S
N989 C982 1.356 . S
N989 H992 0.984 . S
N989 H993 0.985 . S
H990 N985 0.984 . S
H991 N985 0.985 . S
H992 N989 0.984 . S
H993 N989 0.985 . S
H994 N988 0.984 . S
H995 N988 0.984 . S
H996 N984 0.984 . S
H997 N984 0.985 . S
C998 C999 1.363 . S
C998 C1004 1.379 . S
C998 N1006 1.356 . S
C999 C998 1.363 . S
C999 C1005 1.363 . S
C1000 C1001 1.363 . S
C1000 C1005 1.379 . S
C1000 N1007 1.356 . S
C1001 C1000 1.363 . S
C1001 C1004 1.363 . S
N1002 C1004 1.356 . S
N1002 H1014 0.984 . S
N1002 H1015 0.985 . S
N1003 C1005 1.356 . S
N1003 H1008 0.984 . S
N1003 H1009 0.985 . S
C1004 C998 1.379 . S
C1004 C1001 1.363 . S
C1004 N1002 1.356 . S
C1005 C999 1.363 . S
C1005 C1000 1.379 . S
C1005 N1003 1.356 . S
N1006 C998 1.356 . S
N1006 H1012 0.984 . S
N1006 H1013 0.984 . S
N1007 C1000 1.356 . S
N1007 H1010 0.984 . S
N1007 H1011 0.985 . S
H1008 N1003 0.984 . S
H1009 N1003 0.985 . S
H1010 N1007 0.984 . S
H1011 N1007 0.985 . S
H1012 N1006 0.984 . S
H1013 N1006 0.984 . S
H1014 N1002 0.984 . S
H1015 N1002 0.985 . S
C1016 C1017 1.363 . S
C1016 C1022 1.379 . S
C1016 N1024 1.356 . S
C1017 C1016 1.363 . S
C1017 C1023 1.363 . S
C1018 C1019 1.363 . S
C1018 C1023 1.379 . S
C1018 N1025 1.356 . S
C1019 C1018 1.363 . S
C1019 C1022 1.363 . S
N1020 C1022 1.356 . S
N1020 H1032 0.984 . S
N1020 H1033 0.985 . S
N1021 C1023 1.356 . S
N1021 H1026 0.984 . S
N1021 H1027 0.985 . S
C1022 C1016 1.379 . S
C1022 C1019 1.363 . S
C1022 N1020 1.356 . S
C1023 C1017 1.363 . S
C1023 C1018 1.379 . S
C1023 N1021 1.356 . S
N1024 C1016 1.356 . S
N1024 H1030 0.984 . S
N1024 H1031 0.984 . S
N1025 C1018 1.356 . S
N1025 H1028 0.984 . S
N1025 H1029 0.985 . S
H1026 N1021 0.984 . S
H1027 N1021 0.985 . S
H1028 N1025 0.984 . S
H1029 N1025 0.985 . S
H1030 N1024 0.984 . S
H1031 N1024 0.984 . S
H1032 N1020 0.984 . S
H1033 N1020 0.985 . S
C1034 C1035 1.363 . S
C1034 C1040 1.379 . S
C1034 N1042 1.353 1_554 S
C1035 C1034 1.363 . S
C1035 C1041 1.363 . S
C1036 C1037 1.363 . S
C1036 C1041 1.379 . S
C1036 N1043 1.356 . S
C1037 C1036 1.363 . S
C1037 C1040 1.363 . S
N1038 C1040 1.356 . S
N1038 H1050 0.984 . S
N1038 H1051 0.985 . S
N1039 C1041 1.356 . S
N1039 H1044 0.984 . S
N1039 H1045 0.985 . S
C1040 C1034 1.379 . S
C1040 C1037 1.363 . S
C1040 N1038 1.356 . S
C1041 C1035 1.363 . S
C1041 C1036 1.379 . S
C1041 N1039 1.356 . S
N1042 C1034 1.353 1_556 S
N1042 H1048 0.986 . S
N1042 H1049 0.986 . S
N1043 C1036 1.356 . S
N1043 H1046 0.984 . S
N1043 H1047 0.985 . S
H1044 N1039 0.984 . S
H1045 N1039 0.985 . S
H1046 N1043 0.984 . S
H1047 N1043 0.985 . S
H1048 N1042 0.986 . S
H1049 N1042 0.986 . S
H1050 N1038 0.984 . S
H1051 N1038 0.985 . S
C1052 C1053 1.363 . S
C1052 C1058 1.379 . S
C1052 N1060 1.356 . S
C1053 C1052 1.363 . S
C1053 C1059 1.363 . S
C1054 C1055 1.363 . S
C1054 C1059 1.379 . S
C1054 N1061 1.356 . S
C1055 C1054 1.363 . S
C1055 C1058 1.363 . S
N1056 C1058 1.356 . S
N1056 H1068 0.984 . S
N1056 H1069 0.985 . S
N1057 C1059 1.356 . S
N1057 H1062 0.984 . S
N1057 H1063 0.985 . S
C1058 C1052 1.379 . S
C1058 C1055 1.363 . S
C1058 N1056 1.356 . S
C1059 C1053 1.363 . S
C1059 C1054 1.379 . S
C1059 N1057 1.356 . S
N1060 C1052 1.356 . S
N1060 H1066 0.984 . S
N1060 H1067 0.984 . S
N1061 C1054 1.356 . S
N1061 H1064 0.984 . S
N1061 H1065 0.985 . S
H1062 N1057 0.984 . S
H1063 N1057 0.985 . S
H1064 N1061 0.984 . S
H1065 N1061 0.985 . S
H1066 N1060 0.984 . S
H1067 N1060 0.984 . S
H1068 N1056 0.984 . S
H1069 N1056 0.985 . S
C1070 C1071 1.363 . S
C1070 C1076 1.379 . S
C1070 N1078 1.356 . S
C1071 C1070 1.363 . S
C1071 C1077 1.363 . S
C1072 C1073 1.363 . S
C1072 C1077 1.379 . S
C1072 N1079 1.356 . S
C1073 C1072 1.363 . S
C1073 C1076 1.363 . S
N1074 C1076 1.356 . S
N1074 H1086 0.984 . S
N1074 H1087 0.985 . S
N1075 C1077 1.356 . S
N1075 H1080 0.984 . S
N1075 H1081 0.985 . S
C1076 C1070 1.379 . S
C1076 C1073 1.363 . S
C1076 N1074 1.356 . S
C1077 C1071 1.363 . S
C1077 C1072 1.379 . S
C1077 N1075 1.356 . S
N1078 C1070 1.356 . S
N1078 H1084 0.984 . S
N1078 H1085 0.984 . S
N1079 C1072 1.356 . S
N1079 H1082 0.984 . S
N1079 H1083 0.985 . S
H1080 N1075 0.984 . S
H1081 N1075 0.985 . S
H1082 N1079 0.984 . S
H1083 N1079 0.985 . S
H1084 N1078 0.984 . S
H1085 N1078 0.984 . S
H1086 N1074 0.984 . S
H1087 N1074 0.985 . S
C1088 C1089 1.363 . S
C1088 C1094 1.379 . S
C1088 N1096 1.356 . S
C1089 C1088 1.363 . S
C1089 C1095 1.363 . S
C1090 C1091 1.363 . S
C1090 C1095 1.379 . S
C1090 N1097 1.356 . S
C1091 C1090 1.363 . S
C1091 C1094 1.363 . S
N1092 C1094 1.356 . S
N1092 H1104 0.984 . S
N1092 H1105 0.985 . S
N1093 C1095 1.356 . S
N1093 H1098 0.984 . S
N1093 H1099 0.985 . S
C1094 C1088 1.379 . S
C1094 C1091 1.363 . S
C1094 N1092 1.356 . S
C1095 C1089 1.363 . S
C1095 C1090 1.379 . S
C1095 N1093 1.356 . S
N1096 C1088 1.356 . S
N1096 H1102 0.984 . S
N1096 H1103 0.984 . S
N1097 C1090 1.356 . S
N1097 H1100 0.984 . S
N1097 H1101 0.985 . S
H1098 N1093 0.984 . S
H1099 N1093 0.985 . S
H1100 N1097 0.984 . S
H1101 N1097 0.985 . S
H1102 N1096 0.984 . S
H1103 N1096 0.984 . S
H1104 N1092 0.984 . S
H1105 N1092 0.985 . S
C1106 C1107 1.363 . S
C1106 C1112 1.379 . S
C1106 N1114 1.356 . S
C1107 C1106 1.363 . S
C1107 C1113 1.363 . S
C1108 C1109 1.363 . S
C1108 C1113 1.379 . S
C1108 N1115 1.356 . S
C1109 C1108 1.363 . S
C1109 C1112 1.363 . S
N1110 C1112 1.356 . S
N1110 H1122 0.984 . S
N1110 H1123 0.985 . S
N1111 C1113 1.356 . S
N1111 H1116 0.984 . S
N1111 H1117 0.985 . S
C1112 C1106 1.379 . S
C1112 C1109 1.363 . S
C1112 N1110 1.356 . S
C1113 C1107 1.363 . S
C1113 C1108 1.379 . S
C1113 N1111 1.356 . S
N1114 C1106 1.356 . S
N1114 H1120 0.984 . S
N1114 H1121 0.984 . S
N1115 C1108 1.356 . S
N1115 H1118 0.984 . S
N1115 H1119 0.985 . S
H1116 N1111 0.984 . S
H1117 N1111 0.985 . S
H1118 N1115 0.984 . S
H1119 N1115 0.985 . S
H1120 N1114 0.984 . S
H1121 N1114 0.984 . S
H1122 N1110 0.984 . S
H1123 N1110 0.985 . S
C1124 C1125 1.363 . S
C1124 C1130 1.379 . S
C1124 N1132 1.356 . S
C1125 C1124 1.363 . S
C1125 C1131 1.363 1_556 S
C1126 C1127 1.363 1_554 S
C1126 C1131 1.379 . S
C1126 N1133 1.356 . S
C1127 C1126 1.363 1_556 S
C1127 C1130 1.363 . S
N1128 C1130 1.356 . S
N1128 H1140 0.984 . S
N1128 H1141 0.985 . S
N1129 C1131 1.356 . S
N1129 H1134 0.984 . S
N1129 H1135 0.985 . S
C1130 C1124 1.379 . S
C1130 C1127 1.363 . S
C1130 N1128 1.356 . S
C1131 C1125 1.363 1_554 S
C1131 C1126 1.379 . S
C1131 N1129 1.356 . S
N1132 C1124 1.356 . S
N1132 H1138 0.984 . S
N1132 H1139 0.984 . S
N1133 C1126 1.356 . S
N1133 H1136 0.984 . S
N1133 H1137 0.985 . S
H1134 N1129 0.984 . S
H1135 N1129 0.985 . S
H1136 N1133 0.984 . S
H1137 N1133 0.985 . S
H1138 N1132 0.984 . S
H1139 N1132 0.984 . S
H1140 N1128 0.984 . S
H1141 N1128 0.985 . S
C1142 C1143 1.363 . S
C1142 C1148 1.379 . S
C1142 N1150 1.356 . S
C1143 C1142 1.363 . S
C1143 C1149 1.363 . S
C1144 C1145 1.363 . S
C1144 C1149 1.379 . S
C1144 N1151 1.356 . S
C1145 C1144 1.363 . S
C1145 C1148 1.363 . S
N1146 C1148 1.356 . S
N1146 H1158 0.984 . S
N1146 H1159 0.985 . S
N1147 C1149 1.356 . S
N1147 H1152 0.984 . S
N1147 H1153 0.985 . S
C1148 C1142 1.379 . S
C1148 C1145 1.363 . S
C1148 N1146 1.356 . S
C1149 C1143 1.363 . S
C1149 C1144 1.379 . S
C1149 N1147 1.356 . S
N1150 C1142 1.356 . S
N1150 H1156 0.984 . S
N1150 H1157 0.984 . S
N1151 C1144 1.356 . S
N1151 H1154 0.984 . S
N1151 H1155 0.985 . S
H1152 N1147 0.984 . S
H1153 N1147 0.985 . S
H1154 N1151 0.984 . S
H1155 N1151 0.985 . S
H1156 N1150 0.984 . S
H1157 N1150 0.984 . S
H1158 N1146 0.984 . S
H1159 N1146 0.985 . S
C1160 C1161 1.363 1_556 S
C1160 C1166 1.379 . S
C1160 N1168 1.356 . S
C1161 C1160 1.363 1_554 S
C1161 C1167 1.363 . S
C1162 C1163 1.363 . S
C1162 C1167 1.379 . S
C1162 N1169 1.356 . S
C1163 C1162 1.363 . S
C1163 C1166 1.363 1_554 S
N1164 C1166 1.356 . S
N1164 H1176 0.984 . S
N1164 H1177 0.985 . S
N1165 C1167 1.356 . S
N1165 H1170 0.984 . S
N1165 H1171 0.985 . S
C1166 C1160 1.379 . S
C1166 C1163 1.363 1_556 S
C1166 N1164 1.356 . S
C1167 C1161 1.363 . S
C1167 C1162 1.379 . S
C1167 N1165 1.356 . S
N1168 C1160 1.356 . S
N1168 H1174 0.984 . S
N1168 H1175 0.984 . S
N1169 C1162 1.356 . S
N1169 H1172 0.984 . S
N1169 H1173 0.985 . S
H1170 N1165 0.984 . S
H1171 N1165 0.985 . S
H1172 N1169 0.984 . S
H1173 N1169 0.985 . S
H1174 N1168 0.984 . S
H1175 N1168 0.984 . S
H1176 N1164 0.984 . S
H1177 N1164 0.985 . S
C1178 C1179 1.363 1_565 S
C1178 C1184 1.379 . S
C1178 N1186 1.356 . S
C1179 C1178 1.363 1_545 S
C1179 C1185 1.363 . S
C1180 C1181 1.368 . S
C1180 C1185 1.374 1_565 S
C1180 N1187 1.363 1_565 S
C1181 C1180 1.368 . S
C1181 C1184 1.363 . S
N1182 C1184 1.356 . S
N1182 H1194 0.984 1_554 S
N1182 H1195 0.985 . S
N1183 C1185 1.356 . S
N1183 H1188 0.984 . S
N1183 H1189 0.985 . S
C1184 C1178 1.379 . S
C1184 C1181 1.363 . S
C1184 N1182 1.356 . S
C1185 C1179 1.363 . S
C1185 C1180 1.374 1_545 S
C1185 N1183 1.356 . S
N1186 C1178 1.356 . S
N1186 H1192 0.999 . S
N1186 H1193 0.984 . S
N1187 C1180 1.363 1_545 S
N1187 H1190 0.965 1_545 S
N1187 H1191 0.999 . S
H1188 N1183 0.984 . S
H1189 N1183 0.985 . S
H1190 N1187 0.965 1_565 S
H1191 N1187 0.999 . S
H1192 N1186 0.999 . S
H1193 N1186 0.984 . S
H1194 N1182 0.984 1_556 S
H1195 N1182 0.985 . S
C335 C186 1.518 . S
C333 C60 1.540 . S
C353 C199 1.434 . S
C351 C76 1.437 . S
C369 C81 1.621 . S
C371 C212 1.598 . S
C389 C225 1.552 . S
C387 C48 1.587 1_545 S
C407 C233 1.483 . S
C405 C115 1.495 . S
C425 C246 1.528 . S
C423 C136 1.549 . S
C441 C131 1.435 . S
C443 C259 1.383 . S
C461 C272 1.493 . S
C459 C104 1.512 . S
C477 C126 1.477 . S
C479 C290 1.444 . S
C497 C301 1.426 . S
C495 C103 1.471 . S
C513 C120 1.405 . S
C515 C285 1.373 . S
C533 C293 1.452 . S
C531 C142 1.461 . S
C549 C82 1.509 . S
C551 C316 1.496 . S
C567 C54 1.698 . S
C569 C306 1.673 . S
C585 C65 1.457 . S
C587 C311 1.442 . S
C603 C71 1.373 . S
C605 C314 1.356 1_655 S
C621 C37 1.533 . S
C623 C223 1.512 . S
C639 C158 1.799 . S
C641 C215 1.793 . S
C659 C184 1.467 . S
C657 C169 1.461 1_564 S
C677 C189 1.310 . S
C675 C98 1.339 . S
C693 C49 1.695 . S
C695 C236 1.658 . S
C713 C275 1.474 . S
C711 C125 1.501 . S
C731 C228 1.430 . S
C729 C109 1.436 . S
C749 C254 1.642 . S
C747 C137 1.695 . S
C767 C264 1.518 . S
C765 C159 1.540 . S
C783 C175 1.437 . S
C785 C277 1.434 . S
C801 C92 1.621 . S
C803 C238 1.598 . S
C821 C251 1.552 . S
C819 C147 1.587 . S
C837 C38 1.495 . S
C839 C207 1.483 . S
C857 C220 1.528 . S
C855 C4 1.549 . S
C875 C181 1.383 . S
C873 C21 1.435 . S
C893 C194 1.493 . S
C891 C27 1.512 . S
C909 C16 1.477 . S
C911 C303 1.444 . S
C927 C26 1.471 1_556 S
C929 C288 1.426 . S
C945 C43 1.405 . S
C947 C298 1.373 . S
C963 C10 1.461 1_556 S
C965 C280 1.452 . S
C983 C329 1.496 . S
C981 C93 1.509 . S
C1001 C319 1.673 . S
C999 C153 1.698 . S
C1019 C324 1.442 . S
C1017 C164 1.457 . S
C1035 C170 1.373 . S
C1037 C327 1.358 . S
C1053 C114 1.533 . S
C1055 C249 1.512 . S
C1073 C241 1.793 . S
C1071 C59 1.799 . S
C1091 C262 1.467 . S
C1089 C70 1.476 . S
C1109 C267 1.309 . S
C1107 C87 1.339 . S
C1125 C148 1.695 . S
C1127 C210 1.658 . S
C1145 C197 1.474 . S
C1143 C15 1.501 . S
C1161 C32 1.436 . S
C1163 C202 1.421 1_554 S
C1181 C176 1.642 . S
C1179 C5 1.695 . S
