# Generated by pormake.
# Topology zzz, (3,6)-cn, num edge types: 1
# Building blocks:
#     Node 0, Type 0, BuildingBlock: MIDCAF_clean_linker_0, # of connection points: 3
#     Node 1, Type 0, BuildingBlock: MIDCAF_clean_linker_0, # of connection points: 3
#     Node 2, Type 0, BuildingBlock: MIDCAF_clean_linker_0, # of connection points: 3
#     Node 3, Type 0, BuildingBlock: MIDCAF_clean_linker_0, # of connection points: 3
#     Node 4, Type 0, BuildingBlock: MIDCAF_clean_linker_0, # of connection points: 3
#     Node 5, Type 0, BuildingBlock: MIDCAF_clean_linker_0, # of connection points: 3
#     Node 6, Type 0, BuildingBlock: MIDCAF_clean_linker_0, # of connection points: 3
#     Node 7, Type 0, BuildingBlock: MIDCAF_clean_linker_0, # of connection points: 3
#     Node 8, Type 1, BuildingBlock: KUMBUR_clean_sbu_1, # of connection points: 6
#     Node 9, Type 1, BuildingBlock: KUMBUR_clean_sbu_1, # of connection points: 6
#     Node 10, Type 1, BuildingBlock: KUMBUR_clean_sbu_1, # of connection points: 6
#     Node 11, Type 1, BuildingBlock: KUMBUR_clean_sbu_1, # of connection points: 6
#     Edge 12, Type (0, 1), BuildingBlock: MIFKUJ_clean_linker_0, # of connection points: 2
#     Edge 13, Type (0, 1), BuildingBlock: MIFKUJ_clean_linker_0, # of connection points: 2
#     Edge 14, Type (0, 1), BuildingBlock: MIFKUJ_clean_linker_0, # of connection points: 2
#     Edge 15, Type (0, 1), BuildingBlock: MIFKUJ_clean_linker_0, # of connection points: 2
#     Edge 16, Type (0, 1), BuildingBlock: MIFKUJ_clean_linker_0, # of connection points: 2
#     Edge 17, Type (0, 1), BuildingBlock: MIFKUJ_clean_linker_0, # of connection points: 2
#     Edge 18, Type (0, 1), BuildingBlock: MIFKUJ_clean_linker_0, # of connection points: 2
#     Edge 19, Type (0, 1), BuildingBlock: MIFKUJ_clean_linker_0, # of connection points: 2
#     Edge 20, Type (0, 1), BuildingBlock: MIFKUJ_clean_linker_0, # of connection points: 2
#     Edge 21, Type (0, 1), BuildingBlock: MIFKUJ_clean_linker_0, # of connection points: 2
#     Edge 22, Type (0, 1), BuildingBlock: MIFKUJ_clean_linker_0, # of connection points: 2
#     Edge 23, Type (0, 1), BuildingBlock: MIFKUJ_clean_linker_0, # of connection points: 2
#     Edge 24, Type (0, 1), BuildingBlock: MIFKUJ_clean_linker_0, # of connection points: 2
#     Edge 25, Type (0, 1), BuildingBlock: MIFKUJ_clean_linker_0, # of connection points: 2
#     Edge 26, Type (0, 1), BuildingBlock: MIFKUJ_clean_linker_0, # of connection points: 2
#     Edge 27, Type (0, 1), BuildingBlock: MIFKUJ_clean_linker_0, # of connection points: 2
#     Edge 28, Type (0, 1), BuildingBlock: MIFKUJ_clean_linker_0, # of connection points: 2
#     Edge 29, Type (0, 1), BuildingBlock: MIFKUJ_clean_linker_0, # of connection points: 2
#     Edge 30, Type (0, 1), BuildingBlock: MIFKUJ_clean_linker_0, # of connection points: 2
#     Edge 31, Type (0, 1), BuildingBlock: MIFKUJ_clean_linker_0, # of connection points: 2
#     Edge 32, Type (0, 1), BuildingBlock: MIFKUJ_clean_linker_0, # of connection points: 2
#     Edge 33, Type (0, 1), BuildingBlock: MIFKUJ_clean_linker_0, # of connection points: 2
#     Edge 34, Type (0, 1), BuildingBlock: MIFKUJ_clean_linker_0, # of connection points: 2
#     Edge 35, Type (0, 1), BuildingBlock: MIFKUJ_clean_linker_0, # of connection points: 2
# Relax obj value: 0.290
# Max RMSD: 0.212
# Mean RMSD: 0.181
data_MOF--net-zzz--node1-KUMBUR_clean_sbu_1--node2-MIDCAF_clean_linker_0--edge1-MIFKUJ_clean_linker_0
_symmetry_space_group_name_H-M    P1
_symmetry_Int_Tables_number       1
_symmetry_cell_setting            triclinic
loop_
_symmetry_equiv_pos_as_xyz
'x, y, z'
_cell_length_a     70.687717
_cell_length_b     70.512054
_cell_length_c     26.240932
_cell_angle_alpha  89.949764
_cell_angle_beta   89.800979
_cell_angle_gamma 90.478857
loop_
_atom_site_label
_atom_site_type_symbol
_atom_site_fract_x
_atom_site_fract_y
_atom_site_fract_z
_atom_type_partial_charge
C0 C 0.79464 0.56237 0.29114 0.0
C1 C 0.80132 0.54431 0.30474 0.0
C2 C 0.79185 0.52826 0.28499 0.0
C3 C 0.77725 0.53029 0.24906 0.0
H4 H 0.70278 0.55866 0.16312 0.0
H5 H 0.67188 0.55471 0.12134 0.0
H6 H 0.6978 0.51869 0.00816 0.0
H7 H 0.72809 0.52242 0.05023 0.0
H8 H 0.75652 0.56561 0.99648 0.0
H9 H 0.77794 0.56888 0.92393 0.0
H10 H 0.82572 0.56923 0.02588 0.0
H11 H 0.80447 0.56591 0.09859 0.0
H12 H 0.77656 0.57848 0.24237 0.0
H13 H 0.80124 0.57507 0.30632 0.0
H14 H 0.79662 0.51413 0.29433 0.0
H15 H 0.77139 0.51773 0.2311 0.0
N16 N 0.74419 0.54508 0.17309 0.0
N17 N 0.74824 0.55387 0.08704 0.0
N18 N 0.7732 0.55786 0.14392 0.0
C19 C 0.73706 0.54688 0.12483 0.0
C20 C 0.76625 0.55946 0.09615 0.0
C21 C 0.76243 0.55077 0.18248 0.0
C22 C 0.71776 0.54062 0.11033 0.0
C23 C 0.70158 0.54931 0.13054 0.0
C24 C 0.68398 0.54729 0.10601 0.0
C25 C 0.68225 0.53646 0.06097 0.0
C26 C 0.69834 0.52691 0.04297 0.0
C27 C 0.71579 0.52902 0.06717 0.0
C28 C 0.77879 0.56508 0.05335 0.0
C29 C 0.77156 0.56676 1.00363 0.0
C30 C 0.7838 0.56877 0.96203 0.0
C31 C 0.80344 0.56904 0.96943 0.0
C32 C 0.8106 0.56881 0.01926 0.0
C33 C 0.7984 0.56693 0.06086 0.0
C34 C 0.77183 0.54839 0.23239 0.0
C35 C 0.78023 0.56436 0.25514 0.0
C36 C 0.00695 0.7999 0.25047 0.0
C37 C 0.99363 0.80577 0.28725 0.0
C38 C 0.9757 0.79696 0.28756 0.0
C39 C 0.97074 0.7838 0.24986 0.0
H40 H 0.99384 0.71601 0.13765 0.0
H41 H 1.00102 0.68615 0.09293 0.0
H42 H 0.98042 0.71028 0.9527 0.0
H43 H 0.97329 0.73948 0.9963 0.0
H44 H 0.93561 0.7654 0.00797 0.0
H45 H 0.92145 0.78738 0.94771 0.0
H46 H 0.93568 0.83412 0.04745 0.0
H47 H 0.94902 0.81222 0.10811 0.0
H48 H 0.0121 0.78327 0.18312 0.0
H49 H 0.02094 0.80628 0.24932 0.0
H50 H 0.965 0.80121 0.31479 0.0
H51 H 0.95633 0.77845 0.24876 0.0
N52 N 0.98299 0.75396 0.1428 0.0
N53 N 0.96274 0.75828 0.07279 0.0
N54 N 0.96302 0.78055 0.13832 0.0
C55 C 0.97599 0.74775 0.09699 0.0
C56 C 0.95619 0.77462 0.09292 0.0
C57 C 0.97624 0.77041 0.16366 0.0
C58 C 0.98266 0.73013 0.07102 0.0
C59 C 0.99106 0.71494 0.0972 0.0
C60 C 0.99515 0.69784 0.07156 0.0
C61 C 0.99089 0.69563 0.01936 0.0
C62 C 0.98338 0.71118 0.99311 0.0
C63 C 0.97934 0.72806 0.01838 0.0
C64 C 0.94388 0.7871 0.06228 0.0
C65 C 0.93523 0.78033 0.0176 0.0
C66 C 0.92713 0.79294 0.98299 0.0
C67 C 0.92776 0.8126 0.992 0.0
C68 C 0.93475 0.81911 0.03907 0.0
C69 C 0.94262 0.80649 0.07391 0.0
C70 C 0.98366 0.77878 0.21141 0.0
C71 C 1.00203 0.78648 0.21305 0.0
C72 C 0.72576 0.96769 0.28929 0.0
C73 C 0.71822 0.98605 0.29346 0.0
C74 C 0.72463 1.00003 0.2588 0.0
C75 C 0.73708 0.99535 0.21881 0.0
H76 H 0.79745 0.99915 0.11141 0.0
H77 H 0.82752 1.0059 0.06696 0.0
H78 H 0.82397 0.95142 0.99256 0.0
H79 H 0.7944 0.94475 0.03635 0.0
H80 H 0.74827 0.94222 0.98806 0.0
H81 H 0.72332 0.93053 0.93197 0.0
H82 H 0.68512 0.92692 0.06061 0.0
H83 H 0.70992 0.93817 0.11644 0.0
H84 H 0.74242 0.94844 0.24506 0.0
H85 H 0.72155 0.95663 0.31573 0.0
H86 H 0.71908 0.01428 0.26046 0.0
H87 H 0.74057 1.00599 0.19041 0.0
N88 N 0.76839 0.97468 0.14494 0.0
N89 N 0.76222 0.95648 0.07142 0.0
N90 N 0.73919 0.95879 0.13495 0.0
C91 C 0.77425 0.96758 0.09894 0.0
C92 C 0.74468 0.95208 0.08896 0.0
C93 C 0.75077 0.97001 0.16312 0.0
C94 C 0.79345 0.97145 0.0774 0.0
C95 C 0.8033 0.98855 0.08614 0.0
C96 C 0.82042 0.99246 0.06035 0.0
C97 C 0.82821 0.97919 0.02613 0.0
C98 C 0.81859 0.96189 0.01895 0.0
C99 C 0.8015 0.95813 0.04394 0.0
C100 C 0.73099 0.94158 0.05662 0.0
C101 C 0.73468 0.93848 1.00458 0.0
C102 C 0.72037 0.9318 0.97235 0.0
C103 C 0.70213 0.92801 0.99156 0.0
C104 C 0.69899 0.92954 0.04435 0.0
C105 C 0.71323 0.93624 0.07645 0.0
C106 C 0.74339 0.97665 0.21282 0.0
C107 C 0.73802 0.96304 0.24928 0.0
C108 C 0.60443 0.72152 0.05292 0.0
C109 C 0.60831 0.72734 1.00254 0.0
C110 C 0.60602 0.74666 0.99031 0.0
C111 C 0.59763 0.75907 0.02515 0.0
H112 H 0.54304 0.79268 0.02156 0.0
H113 H 0.53642 0.82175 0.97529 0.0
H114 H 0.54912 0.85444 0.11033 0.0
H115 H 0.55502 0.8249 0.15727 0.0
H116 H 0.52312 0.75926 0.21575 0.0
H117 H 0.51349 0.73547 0.27949 0.0
H118 H 0.57236 0.72325 0.30791 0.0
H119 H 0.58165 0.74721 0.24677 0.0
H120 H 0.59252 0.72845 0.12499 0.0
H121 H 0.60578 0.70688 0.0646 0.0
H122 H 0.60948 0.75195 0.95266 0.0
H123 H 0.59473 0.77346 0.01318 0.0
N124 N 0.57103 0.77994 0.08838 0.0
N125 N 0.55151 0.78164 0.16147 0.0
N126 N 0.5731 0.75672 0.15125 0.0
C127 C 0.55755 0.7891 0.11583 0.0
C128 C 0.55951 0.76529 0.17932 0.0
C129 C 0.57897 0.76381 0.10597 0.0
C130 C 0.54943 0.8065 0.09311 0.0
C131 C 0.54392 0.80606 0.04175 0.0
C132 C 0.54041 0.82281 0.01499 0.0
C133 C 0.5427 0.84064 0.03842 0.0
C134 C 0.54717 0.84104 0.09085 0.0
C135 C 0.55046 0.82412 0.11796 0.0
C136 C 0.55315 0.75522 0.22633 0.0
C137 C 0.53391 0.75198 0.23725 0.0
C138 C 0.52843 0.73805 0.27317 0.0
C139 C 0.54209 0.7271 0.29893 0.0
C140 C 0.5613 0.73136 0.28992 0.0
C141 C 0.56669 0.74518 0.25445 0.0
C142 C 0.5918 0.75252 0.07336 0.0
C143 C 0.59644 0.73397 0.08787 0.0
C144 C 0.20589 0.49566 0.01854 0.0
C145 C 0.20878 0.49361 0.96577 0.0
C146 C 0.22698 0.48849 0.94853 0.0
C147 C 0.24145 0.48425 0.98348 0.0
H148 H 0.31192 0.4532 0.11554 0.0
H149 H 0.34146 0.46058 0.16013 0.0
H150 H 0.31949 0.51538 0.20145 0.0
H151 H 0.2901 0.50811 0.15546 0.0
H152 H 0.26388 0.44872 0.24101 0.0
H153 H 0.24382 0.4366 0.30884 0.0
H154 H 0.20163 0.42008 0.19815 0.0
H155 H 0.22147 0.4331 0.13024 0.0
H156 H 0.21706 0.49198 0.09355 0.0
H157 H 0.19231 0.50007 0.03339 0.0
H158 H 0.22975 0.48671 0.90822 0.0
H159 H 0.25491 0.47918 0.9694 0.0
N160 N 0.26906 0.48185 0.08057 0.0
N161 N 0.2717 0.46019 0.14867 0.0
N162 N 0.24316 0.46263 0.10481 0.0
C163 C 0.27964 0.47362 0.11806 0.0
C164 C 0.25351 0.45457 0.14219 0.0
C165 C 0.25072 0.47607 0.07361 0.0
C166 C 0.29892 0.48026 0.13109 0.0
C167 C 0.31377 0.46714 0.13225 0.0
C168 C 0.33062 0.47132 0.15808 0.0
C169 C 0.33275 0.48851 0.18463 0.0
C170 C 0.31822 0.502 0.18147 0.0
C171 C 0.30152 0.49797 0.15458 0.0
C172 C 0.24402 0.44234 0.18044 0.0
C173 C 0.2506 0.44197 0.23088 0.0
C174 C 0.23908 0.43485 0.26991 0.0
C175 C 0.22088 0.42771 0.25914 0.0
C176 C 0.21536 0.42595 0.20789 0.0
C177 C 0.22674 0.43337 0.16896 0.0
C178 C 0.23792 0.48502 0.03615 0.0
C179 C 0.22017 0.49127 0.05312 0.0
C180 C 0.01746 0.21633 0.99643 0.0
C181 C 0.0271 0.2149 0.94948 0.0
C182 C 0.04079 0.22886 0.93752 0.0
C183 C 0.04578 0.24288 0.97304 0.0
H184 H 0.0173 0.29409 0.13927 0.0
H185 H 0.01079 0.32327 0.18764 0.0
H186 H 0.07078 0.33315 0.20416 0.0
H187 H 0.07721 0.30415 0.15704 0.0
H188 H 0.08735 0.25623 0.21877 0.0
H189 H 0.10344 0.23241 0.26991 0.0
H190 H 0.10259 0.19404 0.14157 0.0
H191 H 0.08712 0.21778 0.09053 0.0
H192 H 0.01598 0.23011 0.06939 0.0
H193 H 0.00698 0.20579 0.00733 0.0
H194 H 0.04831 0.22846 0.90152 0.0
H195 H 0.05742 0.25244 0.96426 0.0
N196 N 0.04212 0.27028 0.08243 0.0
N197 N 0.06669 0.26798 0.1427 0.0
N198 N 0.06156 0.24337 0.08485 0.0
C199 C 0.05223 0.27797 0.12195 0.0
C200 C 0.07142 0.25067 0.12445 0.0
C201 C 0.04706 0.25292 0.06354 0.0
C202 C 0.04776 0.29682 0.14426 0.0
C203 C 0.02904 0.30272 0.15249 0.0
C204 C 0.02533 0.31931 0.18056 0.0
C205 C 0.04028 0.33054 0.19982 0.0
C206 C 0.05895 0.32497 0.1896 0.0
C207 C 0.06262 0.30829 0.16266 0.0
C208 C 0.08539 0.23868 0.15105 0.0
C209 C 0.09117 0.24294 0.201 0.0
C210 C 0.10037 0.22927 0.23039 0.0
C211 C 0.10392 0.21113 0.21033 0.0
C212 C 0.10015 0.2078 0.15851 0.0
C213 C 0.09099 0.22141 0.12924 0.0
C214 C 0.03704 0.24347 0.02111 0.0
C215 C 0.02247 0.2304 0.03193 0.0
C216 C 0.29253 0.06011 0.91389 0.0
C217 C 0.30002 0.04171 0.91213 0.0
C218 C 0.29148 0.02748 0.94231 0.0
C219 C 0.2764 0.03178 0.97531 0.0
H220 H 0.22747 0.02978 0.16111 0.0
H221 H 0.198 0.02325 0.20597 0.0
H222 H 0.16715 0.05231 0.08779 0.0
H223 H 0.19712 0.05909 0.04324 0.0
H224 H 0.25164 0.07156 0.20631 0.0
H225 H 0.27444 0.07621 0.27315 0.0
H226 H 0.31468 0.09851 0.1634 0.0
H227 H 0.29199 0.09265 0.09543 0.0
H228 H 0.27332 0.07909 0.95107 0.0
H229 H 0.29889 0.07142 0.89153 0.0
H230 H 0.29693 0.01316 0.94174 0.0
H231 H 0.27087 0.02081 1.00031 0.0
N232 N 0.2413 0.04855 0.03613 0.0
N233 N 0.24184 0.06444 0.11495 0.0
N234 N 0.26734 0.06781 0.05892 0.0
C235 C 0.23271 0.05309 0.08127 0.0
C236 C 0.25907 0.07194 0.10419 0.0
C237 C 0.25867 0.05625 0.0247 0.0
C238 C 0.21454 0.0446 0.09822 0.0
C239 C 0.21431 0.03414 0.14376 0.0
C240 C 0.19734 0.03046 0.16958 0.0
C241 C 0.18006 0.03731 0.15086 0.0
C242 C 0.18018 0.04698 0.10371 0.0
C243 C 0.19728 0.05058 0.07762 0.0
C244 C 0.27029 0.08097 0.14519 0.0
C245 C 0.26514 0.07795 0.19637 0.0
C246 C 0.27829 0.08082 0.23513 0.0
C247 C 0.29677 0.08708 0.22362 0.0
C248 C 0.30084 0.09291 0.17338 0.0
C249 C 0.2878 0.08965 0.13438 0.0
C250 C 0.26983 0.05046 0.97949 0.0
C251 C 0.27781 0.06448 0.94773 0.0
C252 C 0.44851 0.31744 0.20841 0.0
C253 C 0.44245 0.30892 0.2542 0.0
C254 C 0.44292 0.28906 0.25835 0.0
C255 C 0.45052 0.27809 0.21902 0.0
H256 H 0.45888 0.22104 0.1485 0.0
H257 H 0.46558 0.19119 0.19077 0.0
H258 H 0.52502 0.19848 0.15673 0.0
H259 H 0.51813 0.22875 0.11412 0.0
H260 H 0.51312 0.30352 0.06761 0.0
H261 H 0.5191 0.3277 1.00288 0.0
H262 H 0.48436 0.29634 0.89663 0.0
H263 H 0.47893 0.27181 0.96165 0.0
H264 H 0.46139 0.31371 0.13551 0.0
H265 H 0.44864 0.33271 0.20403 0.0
H266 H 0.43816 0.28205 0.29289 0.0
H267 H 0.4514 0.26289 0.22441 0.0
N268 N 0.47239 0.25713 0.1452 0.0
N269 N 0.49175 0.25608 0.07194 0.0
N270 N 0.47654 0.28436 0.09573 0.0
C271 C 0.48383 0.24719 0.11345 0.0
C272 C 0.48782 0.27478 0.06289 0.0
C273 C 0.4687 0.27568 0.13682 0.0
C274 C 0.48795 0.22722 0.12764 0.0
C275 C 0.47334 0.21605 0.14878 0.0
C276 C 0.4772 0.19886 0.17306 0.0
C277 C 0.49587 0.19236 0.17756 0.0
C278 C 0.51048 0.20312 0.15439 0.0
C279 C 0.50654 0.22032 0.12933 0.0
C280 C 0.49586 0.28561 0.01939 0.0
C281 C 0.50741 0.30143 0.02974 0.0
C282 C 0.51054 0.31546 0.99279 0.0
C283 C 0.5019 0.31428 0.9446 0.0
C284 C 0.49135 0.29776 0.93309 0.0
C285 C 0.48832 0.28359 0.9702 0.0
C286 C 0.45781 0.28677 0.17472 0.0
C287 C 0.45605 0.3065 0.16913 0.0
Tb288 Tb 0.98821 0.02295 0.55413 0.0
C289 C 0.04569 0.03172 0.72668 0.0
N290 N 0.04773 0.02624 0.67745 0.0
C291 C 0.07493 0.04657 0.66843 0.0
C292 C 0.05774 0.04555 0.74825 0.0
C293 C 0.06263 0.03275 0.64884 0.0
C294 C 0.07229 0.05323 0.7181 0.0
C295 C 0.03068 0.02662 0.80859 0.0
C296 C 0.0323 0.02245 0.75624 0.0
C297 C 0.04182 0.04121 0.8297 0.0
C298 C 0.05529 0.0507 0.79952 0.0
Tb299 Tb 0.0272 1.00346 0.64942 0.0
N300 N 0.02232 0.008 0.73482 0.0
C301 C 0.01874 0.01528 0.83866 0.0
C302 C 0.01194 0.99596 0.76492 0.0
C303 C 0.00959 0.99966 0.81684 0.0
H304 H 0.06485 0.0275 0.61065 0.0
H305 H 1.00114 0.99016 0.84011 0.0
H306 H 0.94647 0.02315 0.61674 0.0
H307 H 1.00218 0.99537 0.36671 0.0
H308 H 0.00581 0.98317 0.74932 0.0
H309 H 0.01729 0.01785 0.87916 0.0
H310 H 0.0068 0.01697 0.44017 0.0
H311 H 0.08644 0.05204 0.64527 0.0
H312 H 0.04062 0.04478 0.86973 0.0
H313 H 0.06421 0.0615 0.81666 0.0
H314 H 0.91874 1.00192 0.62401 0.0
H315 H 0.08186 0.06388 0.73324 0.0
H316 H 0.97768 0.97011 0.37062 0.0
N317 N 0.96026 1.00625 0.56067 0.0
C318 C 0.95788 0.99223 0.52574 0.0
C319 C 0.92982 0.9988 0.59679 0.0
C320 C 0.94184 0.98022 0.52676 0.0
C321 C 0.9458 0.01058 0.5933 0.0
C322 C 0.92805 0.98325 0.56419 0.0
N323 N 0.98515 1.00387 0.48463 0.0
C324 C 0.996 1.00603 0.44179 0.0
C325 C 0.96764 0.97842 0.44535 0.0
C326 C 0.97057 0.99126 0.48566 0.0
C327 C 0.97956 0.9796 0.40268 0.0
C328 C 0.99347 0.99381 0.40036 0.0
H329 H 0.91551 0.97433 0.56638 0.0
H330 H 0.92751 0.95678 0.48934 0.0
H331 H 0.95012 0.95524 0.41785 0.0
O332 O 0.9928 0.05048 0.52679 0.0
O333 O 1.0044 0.99695 0.53954 0.0
O334 O 0.0064 0.98359 0.61777 0.0
O335 O 0.96651 0.03627 0.51236 0.0
O336 O 0.01748 0.02997 0.53138 0.0
O337 O 0.03771 0.00879 0.57172 0.0
O338 O 0.04402 0.98635 0.69634 0.0
O339 O 0.0243 0.03416 0.63367 0.0
O340 O 0.99265 0.03926 0.62404 0.0
O341 O 0.04637 0.98469 0.61496 0.0
O342 O 0.99738 0.99581 0.66732 0.0
O343 O 0.97956 0.02035 0.63477 0.0
C344 C 1.00443 0.98179 0.56843 0.0
C345 C 0.9805 0.05395 0.44456 0.0
C346 C 1.0011 0.06662 0.37745 0.0
C347 C 0.99004 0.05725 0.34077 0.0
C348 C 0.96939 0.04493 0.40727 0.0
C349 C 0.97416 0.04664 0.35569 0.0
C350 C 0.99606 0.06506 0.42905 0.0
C351 C 0.03379 0.02108 0.5353 0.0
C352 C 0.9775 0.05036 0.49959 0.0
C353 C 0.9396 0.96633 0.48879 0.0
C354 C 0.95246 0.96547 0.44802 0.0
C355 C 0.00915 0.04435 0.64273 0.0
C356 C 0.04852 0.95621 0.66023 0.0
C357 C 0.03033 0.92825 0.68624 0.0
C358 C 0.04356 0.91676 0.66091 0.0
C359 C 0.06163 0.94455 0.63566 0.0
C360 C 0.03284 0.94802 0.68517 0.0
C361 C 0.05913 0.92489 0.63607 0.0
C362 C 0.98236 1.00682 0.66872 0.0
C363 C 0.05083 0.9769 0.6581 0.0
H364 H 0.99356 0.0583 0.30065 0.0
H365 H 0.95736 0.03616 0.41794 0.0
H366 H 0.96566 0.03949 0.32722 0.0
H367 H 1.00484 0.0719 0.45755 0.0
H368 H 0.04187 0.90149 0.66016 0.0
H369 H 0.07372 0.95067 0.61593 0.0
H370 H 0.0228 0.95705 0.7045 0.0
H371 H 0.06927 0.9159 0.61703 0.0
Tb372 Tb 0.52376 0.04214 0.66132 0.0
C373 C 0.52196 0.95865 0.59949 0.0
N374 N 0.52547 0.97388 0.56904 0.0
C375 C 0.55204 0.95784 0.53215 0.0
C376 C 0.53388 0.94272 0.59908 0.0
C377 C 0.53953 0.9731 0.5332 0.0
C378 C 0.54942 0.94273 0.56595 0.0
C379 C 0.50045 0.94235 0.65722 0.0
C380 C 0.50558 0.95847 0.62847 0.0
C381 C 0.51276 0.92683 0.65909 0.0
C382 C 0.5295 0.92705 0.63027 0.0
Tb383 Tb 0.50479 0.99856 0.57793 0.0
N384 N 0.49419 0.97385 0.62648 0.0
C385 C 0.48283 0.9421 0.68171 0.0
C386 C 0.4766 0.97337 0.64826 0.0
C387 C 0.47075 0.95759 0.67668 0.0
H388 H 0.54106 0.98412 0.50487 0.0
H389 H 0.45688 0.95731 0.69426 0.0
H390 H 0.48374 0.06491 0.67787 0.0
H391 H 0.59069 0.065 0.57868 0.0
H392 H 0.46713 0.98519 0.64368 0.0
H393 H 0.47819 0.92978 0.70317 0.0
H394 H 0.57028 0.04549 0.63406 0.0
H395 H 0.56347 0.95758 0.50461 0.0
H396 H 0.50923 0.91442 0.68167 0.0
H397 H 0.53863 0.91479 0.631 0.0
H398 H 0.46932 0.0949 0.64892 0.0
H399 H 0.55894 0.93078 0.56454 0.0
H400 H 0.57757 0.09296 0.53453 0.0
N401 N 0.50914 0.06921 0.6356 0.0
C402 C 0.51959 0.08138 0.60668 0.0
C403 C 0.48341 0.09118 0.63636 0.0
C404 C 0.51198 0.09858 0.58911 0.0
C405 C 0.49155 0.07418 0.65249 0.0
C406 C 0.49357 0.10332 0.60398 0.0
N407 N 0.54502 0.06028 0.61555 0.0
C408 C 0.56399 0.05679 0.61242 0.0
C409 C 0.54936 0.08867 0.56506 0.0
C410 C 0.53799 0.07647 0.59506 0.0
C411 C 0.56835 0.084 0.55743 0.0
C412 C 0.57579 0.0682 0.58211 0.0
H413 H 0.4872 0.11642 0.59128 0.0
H414 H 0.51732 0.12358 0.54297 0.0
H415 H 0.55006 0.11485 0.52164 0.0
O416 O 0.54122 0.05869 0.7089 0.0
O417 O 0.50538 0.04502 0.59386 0.0
O418 O 0.51553 0.02337 0.53625 0.0
O419 O 0.51428 0.0485 0.73524 0.0
O420 O 0.54568 0.02235 0.63308 0.0
O421 O 0.53283 0.01031 0.55853 0.0
O422 O 0.48126 1.00499 0.53298 0.0
O423 O 0.50732 0.99629 0.66113 0.0
O424 O 0.53302 0.01386 0.68645 0.0
O425 O 0.49695 0.97951 0.51963 0.0
O426 O 0.48289 0.01647 0.61347 0.0
O427 O 0.4964 0.03003 0.68572 0.0
C428 C 0.51055 0.04077 0.54724 0.0
C429 C 0.53758 0.05333 0.79702 0.0
C430 C 0.55575 0.03285 0.853 0.0
C431 C 0.55179 0.0451 0.89391 0.0
C432 C 0.5338 0.06539 0.83813 0.0
C433 C 0.54089 0.06128 0.88638 0.0
C434 C 0.54853 0.03708 0.80443 0.0
C435 C 0.5475 0.01486 0.58715 0.0
C436 C 0.52955 0.05777 0.74713 0.0
C437 C 0.52299 0.11042 0.55752 0.0
C438 C 0.54161 0.10542 0.54526 0.0
C439 C 0.52274 0.99821 0.68826 0.0
C440 C 0.46361 0.97836 0.50906 0.0
C441 C 0.42975 0.97906 0.4927 0.0
C442 C 0.42758 0.96152 0.51734 0.0
C443 C 0.4614 0.96054 0.53252 0.0
C444 C 0.44779 0.98732 0.48855 0.0
C445 C 0.44343 0.95221 0.53667 0.0
C446 C 0.48158 0.02422 0.65923 0.0
C447 C 0.48169 0.98885 0.50919 0.0
H448 H 0.5569 0.04208 0.93189 0.0
H449 H 0.52527 0.07794 0.83292 0.0
H450 H 0.53786 0.07059 0.91809 0.0
H451 H 0.55155 0.02792 0.77233 0.0
H452 H 0.41373 0.95495 0.521 0.0
H453 H 0.47342 0.95324 0.54852 0.0
H454 H 0.44943 1.00113 0.4707 0.0
H455 H 0.44175 0.93861 0.55534 0.0
Tb456 Tb 0.52936 0.50874 0.56872 0.0
C457 C 0.45664 0.5049 0.69539 0.0
N458 N 0.46088 0.51591 0.65426 0.0
C459 C 0.43046 0.50865 0.6182 0.0
C460 C 0.43934 0.49487 0.69876 0.0
C461 C 0.44752 0.51883 0.61747 0.0
C462 C 0.42647 0.49636 0.65861 0.0
C463 C 0.46422 0.4956 0.78197 0.0
C464 C 0.46893 0.50512 0.73638 0.0
C465 C 0.44736 0.48502 0.7848 0.0
C466 C 0.43499 0.48456 0.74316 0.0
Tb467 Tb 0.48974 0.53099 0.65731 0.0
N468 N 0.48495 0.51575 0.73266 0.0
C469 C 0.47621 0.49771 0.82401 0.0
C470 C 0.4961 0.51882 0.77436 0.0
C471 C 0.49205 0.50962 0.8204 0.0
H472 H 0.44974 0.52919 0.58767 0.0
H473 H 0.50107 0.51181 0.85309 0.0
H474 H 0.56767 0.53163 0.60556 0.0
H475 H 0.49972 0.49957 0.37966 0.0
H476 H 0.50811 0.52834 0.77205 0.0
H477 H 0.47304 0.49067 0.8598 0.0
H478 H 0.50644 0.49002 0.46789 0.0
H479 H 0.4202 0.51064 0.58818 0.0
H480 H 0.44346 0.47771 0.81963 0.0
H481 H 0.42173 0.47682 0.74643 0.0
H482 H 0.58905 0.55668 0.57127 0.0
H483 H 0.41306 0.48882 0.65965 0.0
H484 H 0.51512 0.52818 0.34314 0.0
N485 N 0.54993 0.53149 0.54033 0.0
C486 C 0.54732 0.53773 0.49198 0.0
C487 C 0.57726 0.55159 0.54876 0.0
C488 C 0.55897 0.55204 0.47095 0.0
C489 C 0.56518 0.53746 0.56807 0.0
C490 C 0.57395 0.55915 0.50032 0.0
N491 N 0.52354 0.5144 0.48399 0.0
C492 C 0.51252 0.5031 0.45355 0.0
C493 C 0.53056 0.53471 0.41214 0.0
C494 C 0.53333 0.52917 0.46319 0.0
C495 C 0.5177 0.52437 0.3825 0.0
C496 C 0.50897 0.50823 0.40299 0.0
H497 H 0.58326 0.57015 0.48554 0.0
H498 H 0.56411 0.56965 0.4045 0.0
H499 H 0.53922 0.55444 0.35288 0.0
O500 O 0.55021 0.49136 0.60099 0.0
O501 O 0.52731 0.53959 0.58352 0.0
O502 O 0.49572 0.54489 0.5845 0.0
O503 O 0.54519 0.49106 0.5206 0.0
O504 O 0.49978 0.50003 0.55272 0.0
O505 O 0.48276 0.52633 0.57657 0.0
O506 O 0.49596 0.55875 0.68007 0.0
O507 O 0.50285 0.50372 0.67882 0.0
O508 O 0.50858 0.48909 0.6026 0.0
O509 O 0.46785 0.54746 0.68903 0.0
O510 O 0.51899 0.53672 0.68242 0.0
O511 O 0.53806 0.5132 0.64799 0.0
C512 C 0.51282 0.55008 0.57071 0.0
C513 C 0.5528 0.46221 0.55949 0.0
C514 C 0.53454 0.43301 0.5477 0.0
C515 C 0.55073 0.42255 0.5607 0.0
C516 C 0.56872 0.45161 0.57254 0.0
C517 C 0.56762 0.43183 0.57339 0.0
C518 C 0.53574 0.45292 0.54811 0.0
C519 C 0.48489 0.51106 0.54841 0.0
C520 C 0.55387 0.48296 0.55818 0.0
C521 C 0.55554 0.55843 0.42114 0.0
C522 C 0.54132 0.5498 0.39181 0.0
C523 C 0.50434 0.48819 0.65137 0.0
C524 C 0.48016 0.56715 0.75472 0.0
C525 C 0.49692 0.58523 0.8197 0.0
C526 C 0.48673 0.5755 0.85776 0.0
C527 C 0.46974 0.55777 0.79308 0.0
C528 C 0.49331 0.5812 0.76841 0.0
C529 C 0.47301 0.56202 0.84435 0.0
C530 C 0.53447 0.52635 0.68236 0.0
C531 C 0.47947 0.56112 0.70102 0.0
H532 H 0.5506 0.40721 0.55984 0.0
H533 H 0.58195 0.45862 0.58187 0.0
H534 H 0.57999 0.42366 0.58313 0.0
H535 H 0.52344 0.46136 0.53933 0.0
H536 H 0.48936 0.57837 0.89767 0.0
H537 H 0.45956 0.54677 0.78369 0.0
H538 H 0.50156 0.58829 0.739 0.0
H539 H 0.46518 0.55456 0.87379 0.0
Tb540 Tb 0.02596 0.53574 0.55051 0.0
C541 C 1.00091 0.48315 0.75049 0.0
N542 N 0.00689 0.47941 0.70258 0.0
C543 C 0.02444 0.45277 0.73333 0.0
C544 C 0.00689 0.47225 0.79234 0.0
C545 C 0.0179 0.46396 0.69306 0.0
C546 C 0.01913 0.4571 0.78334 0.0
C547 C 0.97987 0.50083 0.80501 0.0
C548 C 0.98769 0.4971 0.75663 0.0
C549 C 0.98641 0.49074 0.8476 0.0
C550 C 0.99992 0.47644 0.84126 0.0
Tb551 Tb 0.99694 0.49932 0.63953 0.0
N552 N 0.98154 0.50607 0.71431 0.0
C553 C 0.9653 0.51409 0.80866 0.0
C554 C 0.96664 0.51828 0.71726 0.0
C555 C 0.95849 0.52267 0.76442 0.0
H556 H 0.02203 0.46057 0.65448 0.0
H557 H 0.94694 0.53262 0.76657 0.0
H558 H 0.03217 0.57468 0.62491 0.0
H559 H 0.99937 0.53364 0.35894 0.0
H560 H 0.96126 0.52497 0.68331 0.0
H561 H 0.95888 0.5174 0.84511 0.0
H562 H 0.01951 0.52363 0.4311 0.0
H563 H 0.03354 0.44083 0.72577 0.0
H564 H 0.98073 0.49349 0.88525 0.0
H565 H 1.00446 0.46837 0.87411 0.0
H566 H 0.0156 0.60476 0.63885 0.0
H567 H 0.0241 0.44836 0.81443 0.0
H568 H 0.97876 0.56169 0.36799 0.0
N569 N 0.01408 0.56574 0.56415 0.0
C570 C 1.00144 0.5718 0.529 0.0
C571 C 0.01121 0.59544 0.60837 0.0
C572 C 0.99223 0.58936 0.53395 0.0
C573 C 0.02028 0.5781 0.60089 0.0
C574 C 0.99674 0.60089 0.57556 0.0
N575 N 0.00988 0.54548 0.48027 0.0
C576 C 0.01058 0.53592 0.43505 0.0
C577 C 0.98784 0.56769 0.4451 0.0
C578 C 0.99941 0.56134 0.48507 0.0
C579 C 0.98751 0.55732 0.39962 0.0
C580 C 0.99918 0.54152 0.39431 0.0
H581 H 0.98998 0.61448 0.58089 0.0
H582 H 0.97244 0.60872 0.499 0.0
H583 H 0.96856 0.58959 0.42094 0.0
O584 O 0.05053 0.52567 0.5148 0.0
O585 O 0.99853 0.52311 0.52928 0.0
O586 O 0.983 0.52368 0.60445 0.0
O587 O 0.04517 0.5555 0.5188 0.0
O588 O 0.02056 0.50742 0.51986 0.0
O589 O 0.01976 0.48821 0.59083 0.0
O590 O 0.97531 0.47887 0.64742 0.0
O591 O 0.02721 0.49973 0.65971 0.0
O592 O 0.04267 0.52394 0.61377 0.0
O593 O 0.98553 0.4869 0.57321 0.0
O594 O 0.99542 0.5299 0.65432 0.0
O595 O 0.02441 0.54213 0.63268 0.0
C596 C 0.98302 0.52631 0.5551 0.0
C597 C 0.07674 0.54537 0.53166 0.0
C598 C 0.10786 0.5325 0.5502 0.0
C599 C 0.11226 0.54864 0.57907 0.0
C600 C 0.08125 0.56145 0.56116 0.0
C601 C 0.09895 0.56305 0.58454 0.0
C602 C 0.09024 0.53104 0.52611 0.0
C603 C 0.02236 0.49074 0.54156 0.0
C604 C 0.05771 0.54258 0.5095 0.0
C605 C 0.97977 0.59534 0.49563 0.0
C606 C 0.97759 0.5845 0.45119 0.0
C607 C 0.04229 0.51025 0.64854 0.0
C608 C 0.95312 0.48052 0.5803 0.0
C609 C 0.9223 0.49551 0.5895 0.0
C610 C 0.91676 0.48769 0.54259 0.0
C611 C 0.94747 0.473 0.53327 0.0
C612 C 0.94047 0.49169 0.60819 0.0
C613 C 0.92932 0.47653 0.51464 0.0
C614 C 0.00997 0.5409 0.66426 0.0
C615 C 0.97257 0.4777 0.59843 0.0
H616 H 0.12588 0.55 0.59759 0.0
H617 H 0.07109 0.57268 0.56671 0.0
H618 H 0.1023 0.57543 0.60723 0.0
H619 H 0.08697 0.51855 0.50357 0.0
H620 H 0.90289 0.49053 0.52712 0.0
H621 H 0.95716 0.46458 0.51086 0.0
H622 H 0.94477 0.49744 0.64459 0.0
H623 H 0.92506 0.47077 0.47818 0.0
H624 H 0.15177 0.06354 0.16467 0.0
H625 H 0.12491 0.06182 0.22358 0.0
H626 H 0.14216 1.00599 0.27074 0.0
H627 H 0.16842 1.00721 0.21027 0.0
H628 H 0.10533 1.0067 0.26467 0.0
H629 H 0.15241 0.04845 0.34194 0.0
H630 H 0.17329 0.07665 0.34405 0.0
H631 H 0.12532 0.11282 0.32441 0.0
H632 H 0.10412 0.08481 0.322 0.0
H633 H 0.06353 0.99817 0.51058 0.0
H634 H 0.08607 1.00181 0.44033 0.0
H635 H 0.05915 0.05378 0.39557 0.0
H636 H 0.03628 0.05016 0.46542 0.0
H637 H 0.09899 0.05641 0.39685 0.0
H638 H 0.051 0.01537 0.32885 0.0
H639 H 0.03002 0.98735 0.32349 0.0
H640 H 0.07826 0.95088 0.31979 0.0
H641 H 0.09953 0.97853 0.32656 0.0
C642 C 0.14965 0.05071 0.18673 0.0
C643 C 0.16247 0.03557 0.18275 0.0
C644 C 0.13438 0.04986 0.22108 0.0
C645 C 0.13165 0.03394 0.25271 0.0
C646 C 0.14396 0.01852 0.24724 0.0
C647 C 0.15912 0.0193 0.21278 0.0
C648 C 0.11632 0.03331 0.29226 0.0
C649 C 0.10399 0.01758 0.29362 0.0
C650 C 0.11407 0.04774 0.32939 0.0
C651 C 0.12673 0.06455 0.33141 0.0
C652 C 0.14633 0.06242 0.33791 0.0
C653 C 0.1582 0.07837 0.33924 0.0
C654 C 0.15062 0.09651 0.33437 0.0
C655 C 0.13113 0.09876 0.32833 0.0
C656 C 0.11918 0.08286 0.32707 0.0
C657 C 0.0624 0.01046 0.48602 0.0
C658 C 0.04804 0.02388 0.49385 0.0
C659 C 0.07527 0.01245 0.44559 0.0
C660 C 0.07423 0.02799 0.41223 0.0
C661 C 0.06018 0.04163 0.42055 0.0
C662 C 0.0471 0.03952 0.46056 0.0
C663 C 0.08786 0.02995 0.36887 0.0
C664 C 0.09995 0.04583 0.36709 0.0
C665 C 0.08974 0.01577 0.33102 0.0
C666 C 0.07688 0.99905 0.32896 0.0
C667 C 0.05713 1.00135 0.32792 0.0
C668 C 0.04517 0.98551 0.32475 0.0
C669 C 0.05275 0.9673 0.32232 0.0
C670 C 0.07235 0.96492 0.32266 0.0
C671 C 0.08438 0.98067 0.32612 0.0
H672 H 0.04346 0.95506 0.31967 0.0
H673 H 0.15983 0.10884 0.33531 0.0
H674 H 0.47593 0.15875 0.18197 0.0
H675 H 0.47991 0.13254 0.24195 0.0
H676 H 0.52888 0.16053 0.30542 0.0
H677 H 0.52468 0.18708 0.24634 0.0
H678 H 0.5063 0.10701 0.26204 0.0
H679 H 0.5297 0.15176 0.43559 0.0
H680 H 0.52666 0.18435 0.46863 0.0
H681 H 0.4749 0.19112 0.38562 0.0
H682 H 0.47749 0.1585 0.35271 0.0
H683 H 0.53454 0.04581 0.46642 0.0
H684 H 0.53357 0.07074 0.40109 0.0
H685 H 0.48301 0.09315 0.47017 0.0
H686 H 0.48402 0.06827 0.53534 0.0
H687 H 0.50669 0.12135 0.44706 0.0
H688 H 0.48139 0.06716 0.35942 0.0
H689 H 0.48137 0.03425 0.3277 0.0
H690 H 0.53158 0.04595 0.24019 0.0
H691 H 0.53203 0.07889 0.27196 0.0
C692 C 0.48761 0.15934 0.20856 0.0
C693 C 0.49988 0.17519 0.20943 0.0
C694 C 0.48994 0.14424 0.24271 0.0
C695 C 0.50453 0.14458 0.27894 0.0
C696 C 0.51733 0.15998 0.27845 0.0
C697 C 0.51503 0.1751 0.24417 0.0
C698 C 0.50579 0.12923 0.31829 0.0
C699 C 0.50652 0.11019 0.30246 0.0
C700 C 0.50575 0.13319 0.37129 0.0
C701 C 0.50395 0.15278 0.39113 0.0
C702 C 0.51766 0.1602 0.42447 0.0
C703 C 0.51601 0.17867 0.44319 0.0
C704 C 0.50064 0.18983 0.42905 0.0
C705 C 0.48685 0.1825 0.39635 0.0
C706 C 0.48841 0.16403 0.3776 0.0
C707 C 0.52313 0.05596 0.46724 0.0
C708 C 0.50941 0.05518 0.5061 0.0
C709 C 0.52259 0.07024 0.42997 0.0
C710 C 0.50816 0.08388 0.43036 0.0
C711 C 0.49434 0.08292 0.46897 0.0
C712 C 0.4949 0.06867 0.5062 0.0
C713 C 0.5074 0.09917 0.39081 0.0
C714 C 0.50672 0.11819 0.40662 0.0
C715 C 0.50717 0.09517 0.33788 0.0
C716 C 0.50685 0.07543 0.31845 0.0
C717 C 0.4925 0.06268 0.33369 0.0
C718 C 0.4924 0.04402 0.31567 0.0
C719 C 0.50649 0.038 0.28205 0.0
C720 C 0.52068 0.05063 0.26628 0.0
C721 C 0.52086 0.0693 0.28425 0.0
H722 H 0.50639 0.02355 0.26814 0.0
H723 H 0.4994 0.20413 0.44355 0.0
H724 H 0.33201 0.49874 0.28474 0.0
H725 H 0.35853 0.50162 0.34369 0.0
H726 H 0.39733 0.48811 0.22189 0.0
H727 H 0.37056 0.48422 0.16343 0.0
H728 H 0.40928 0.47149 0.30031 0.0
H729 H 0.39046 0.53539 0.27235 0.0
H730 H 0.3687 0.56249 0.26754 0.0
H731 H 0.35591 0.55654 0.42686 0.0
H732 H 0.37741 0.52924 0.43248 0.0
H733 H 0.47213 0.53667 0.48026 0.0
H734 H 0.44828 0.53216 0.41424 0.0
H735 H 0.44137 0.47367 0.46046 0.0
H736 H 0.46643 0.47799 0.52408 0.0
H737 H 0.41428 0.5267 0.41643 0.0
H738 H 0.42152 0.44681 0.37258 0.0
H739 H 0.44621 0.42239 0.36706 0.0
H740 H 0.48787 0.46528 0.333 0.0
H741 H 0.46342 0.48998 0.33877 0.0
C742 C 0.34622 0.49658 0.27042 0.0
C743 C 0.34921 0.4915 0.21925 0.0
C744 C 0.36144 0.49827 0.3042 0.0
C745 C 0.38015 0.49549 0.28739 0.0
C746 C 0.38313 0.49037 0.23614 0.0
C747 C 0.36783 0.48826 0.20258 0.0
C748 C 0.3965 0.4978 0.3233 0.0
C749 C 0.41038 0.48363 0.32553 0.0
C750 C 0.39835 0.51374 0.35588 0.0
C751 C 0.38541 0.53016 0.35271 0.0
C752 C 0.38291 0.53978 0.30628 0.0
C753 C 0.37063 0.55519 0.30342 0.0
C754 C 0.36089 0.5612 0.34684 0.0
C755 C 0.36344 0.55185 0.39325 0.0
C756 C 0.37568 0.53642 0.3963 0.0
C757 C 0.46566 0.52279 0.47574 0.0
C758 C 0.4711 0.50766 0.50705 0.0
C759 C 0.45193 0.52021 0.4381 0.0
C760 C 0.44287 0.50253 0.43161 0.0
C761 C 0.44835 0.48735 0.46325 0.0
C762 C 0.46259 0.48981 0.49995 0.0
C763 C 0.42721 0.50045 0.3934 0.0
C764 C 0.41332 0.51461 0.39101 0.0
C765 C 0.42582 0.48491 0.35929 0.0
C766 C 0.44065 0.47021 0.35621 0.0
C767 C 0.43594 0.451 0.36374 0.0
C768 C 0.44989 0.43712 0.36057 0.0
C769 C 0.46857 0.44226 0.34911 0.0
C770 C 0.47338 0.46132 0.34162 0.0
C771 C 0.4595 0.47527 0.34507 0.0
H772 H 0.47932 0.43148 0.34626 0.0
H773 H 0.3514 0.57313 0.34454 0.0
H774 H 0.05658 0.36581 0.19233 0.0
H775 H 0.05301 0.39275 0.25005 0.0
H776 H 0.01313 0.36042 0.34056 0.0
H777 H 0.01622 0.33365 0.28165 0.0
H778 H 1.00151 0.39451 0.33858 0.0
H779 H 0.06162 0.36776 0.37325 0.0
H780 H 0.0939 0.35615 0.35739 0.0
H781 H 0.11132 0.41171 0.30813 0.0
H782 H 0.07903 0.42359 0.32271 0.0
H783 H 0.01316 0.45352 0.56151 0.0
H784 H 0.01548 0.42638 0.50346 0.0
H785 H 0.03965 0.46268 0.38775 0.0
H786 H 0.03718 0.48992 0.44521 0.0
H787 H 0.05905 0.42631 0.40585 0.0
H788 H 0.99704 0.45203 0.37323 0.0
H789 H 0.96515 0.46255 0.39815 0.0
H790 H 0.95209 0.40681 0.45486 0.0
H791 H 0.98406 0.39604 0.43117 0.0
C792 C 0.04696 0.36449 0.22438 0.0
C793 C 0.03675 0.34753 0.23247 0.0
C794 C 0.04501 0.37989 0.25768 0.0
C795 C 0.03315 0.37861 0.30076 0.0
C796 C 0.02245 0.36187 0.30792 0.0
C797 C 0.02418 0.34655 0.2741 0.0
C798 C 0.03203 0.39461 0.33833 0.0
C799 C 0.01416 0.40123 0.35367 0.0
C800 C 0.04844 0.40369 0.35823 0.0
C801 C 0.0678 0.3965 0.3484 0.0
C802 C 0.07226 0.37746 0.35843 0.0
C803 C 0.09058 0.37083 0.34977 0.0
C804 C 0.10463 0.38316 0.33157 0.0
C805 C 0.1004 0.40216 0.32205 0.0
C806 C 0.08209 0.40884 0.33047 0.0
C807 C 0.01915 0.45571 0.52392 0.0
C808 C 0.02501 0.47392 0.50809 0.0
C809 C 0.02034 0.44019 0.49065 0.0
C810 C 0.02764 0.44251 0.44114 0.0
C811 C 0.03391 0.46057 0.42567 0.0
C812 C 0.03248 0.47613 0.45861 0.0
C813 C 0.02868 0.42615 0.40533 0.0
C814 C 0.0465 0.41949 0.39056 0.0
C815 C 0.01228 0.41682 0.38687 0.0
C816 C 0.99302 0.42327 0.40088 0.0
C817 C 0.98744 0.44206 0.39146 0.0
C818 C 0.96933 0.44806 0.40525 0.0
C819 C 0.9566 0.43535 0.42806 0.0
C820 C 0.96197 0.41663 0.43717 0.0
C821 C 0.98008 0.41057 0.42357 0.0
H822 H 0.94258 0.44001 0.43866 0.0
H823 H 0.11881 0.37802 0.32501 0.0
H824 H 0.83816 0.0121 0.97607 0.0
H825 H 0.86535 0.01749 0.91944 0.0
H826 H 0.88498 0.9609 0.95012 0.0
H827 H 0.85804 0.95554 0.00728 0.0
H828 H 0.91437 0.98609 0.94764 0.0
H829 H 0.86105 0.97065 0.84143 0.0
H830 H 0.82868 0.97424 0.8083 0.0
H831 H 0.84194 0.03098 0.75962 0.0
H832 H 0.87434 0.02782 0.79314 0.0
H833 H 0.97414 0.97485 0.72583 0.0
H834 H 0.94969 0.97117 0.79192 0.0
H835 H 0.93268 0.02908 0.76852 0.0
H836 H 0.9575 0.0331 0.70435 0.0
H837 H 0.9022 1.00347 0.76753 0.0
H838 H 0.95316 0.02099 0.87844 0.0
H839 H 0.98487 0.01991 0.91709 0.0
H840 H 0.97616 0.96132 0.95622 0.0
H841 H 0.9442 0.96218 0.91853 0.0
C842 C 0.84843 1.00092 0.97146 0.0
C843 C 0.8458 0.98334 0.99606 0.0
C844 C 0.8639 1.00395 0.93863 0.0
C845 C 0.87713 0.98949 0.92974 0.0
C846 C 0.87497 0.97225 0.95599 0.0
C847 C 0.85947 0.96917 0.98852 0.0
C848 C 0.89287 0.99208 0.89205 0.0
C849 C 0.91165 0.98963 0.90811 0.0
C850 C 0.8895 0.99716 0.8406 0.0
C851 C 0.87005 0.99907 0.82027 0.0
C852 C 0.85702 0.98395 0.82403 0.0
C853 C 0.83867 0.98589 0.80512 0.0
C854 C 0.83324 1.00284 0.782 0.0
C855 C 0.84616 0.01787 0.77762 0.0
C856 C 0.86452 0.016 0.79653 0.0
C857 C 0.96546 0.98691 0.7355 0.0
C858 C 0.96789 1.0043 0.70979 0.0
C859 C 0.95141 0.98477 0.77315 0.0
C860 C 0.93931 0.99987 0.78532 0.0
C861 C 0.94176 0.01721 0.75977 0.0
C862 C 0.95596 0.01945 0.72288 0.0
C863 C 0.92364 0.99745 0.82318 0.0
C864 C 0.90489 0.99988 0.80705 0.0
C865 C 0.92701 0.99249 0.87457 0.0
C866 C 0.94643 0.9916 0.89527 0.0
C867 C 0.95809 0.00784 0.89492 0.0
C868 C 0.97604 1.00731 0.91696 0.0
C869 C 0.98256 0.99054 0.93896 0.0
C870 C 0.97109 0.97429 0.93916 0.0
C871 C 0.95302 0.97482 0.91771 0.0
H872 H 0.99651 0.99014 0.95579 0.0
H873 H 0.81903 1.00432 0.76737 0.0
H874 H 0.55469 0.84636 0.93989 0.0
H875 H 0.55194 0.87461 0.88745 0.0
H876 H 0.52632 0.90436 0.01312 0.0
H877 H 0.52817 0.87561 0.06552 0.0
H878 H 0.50776 0.91188 0.92903 0.0
H879 H 0.57364 0.91285 0.97188 0.0
H880 H 0.6057 0.89967 0.97993 0.0
H881 H 0.60838 0.89131 0.81807 0.0
H882 H 0.57607 0.90374 0.80923 0.0
H883 H 0.50728 0.99729 0.78334 0.0
H884 H 0.51178 0.97331 0.84953 0.0
H885 H 0.54824 0.94211 0.74758 0.0
H886 H 0.54577 0.96758 0.68487 0.0
H887 H 0.56189 0.93693 0.82854 0.0
H888 H 0.49432 0.9307 0.78828 0.0
H889 H 0.46128 0.94174 0.78051 0.0
H890 H 0.46199 0.96023 0.93615 0.0
H891 H 0.49483 0.94908 0.94507 0.0
C892 C 0.54824 0.85878 0.95653 0.0
C893 C 0.54148 0.85847 0.00716 0.0
C894 C 0.54697 0.87513 0.9265 0.0
C895 C 0.53921 0.89188 0.94627 0.0
C896 C 0.53248 0.89172 0.99685 0.0
C897 C 0.53367 0.87526 0.02699 0.0
C898 C 0.5375 0.90918 0.91334 0.0
C899 C 0.51969 0.91758 0.90767 0.0
C900 C 0.5529 0.91656 0.88455 0.0
C901 C 0.57237 0.90912 0.88995 0.0
C902 C 0.58099 0.90805 0.93806 0.0
C903 C 0.59921 0.90069 0.94276 0.0
C904 C 0.60905 0.89463 0.89954 0.0
C905 C 0.60072 0.89595 0.85152 0.0
C906 C 0.58244 0.9031 0.84667 0.0
C907 C 0.51643 0.98537 0.77567 0.0
C908 C 0.52616 0.98421 0.72912 0.0
C909 C 0.51869 0.97134 0.81314 0.0
C910 C 0.52983 0.95518 0.80372 0.0
C911 C 0.53955 0.95421 0.75669 0.0
C912 C 0.53803 0.96872 0.72039 0.0
C913 C 0.53194 0.93957 0.8427 0.0
C914 C 0.54989 0.93147 0.84987 0.0
C915 C 0.51664 0.93243 0.8727 0.0
C916 C 0.49703 0.93929 0.86706 0.0
C917 C 0.48742 0.93724 0.82062 0.0
C918 C 0.46876 0.94348 0.81605 0.0
C919 C 0.45965 0.95184 0.85756 0.0
C920 C 0.46909 0.95382 0.90395 0.0
C921 C 0.48768 0.94747 0.90887 0.0
H922 H 0.44523 0.95668 0.85386 0.0
H923 H 0.62313 0.8889 0.90321 0.0
H924 H 0.66658 0.5066 0.00805 0.0
H925 H 0.64043 0.50734 0.9476 0.0
H926 H 0.63088 0.56615 0.98308 0.0
H927 H 0.65748 0.56573 0.04283 0.0
H928 H 0.59686 0.54422 0.97249 0.0
H929 H 0.65376 0.55741 0.87892 0.0
H930 H 0.68666 0.55186 0.85157 0.0
H931 H 0.67051 0.49765 0.79045 0.0
H932 H 0.63756 0.50275 0.81815 0.0
H933 H 0.53727 0.5557 0.75183 0.0
H934 H 0.56055 0.55958 0.82008 0.0
H935 H 0.58593 0.50637 0.77774 0.0
H936 H 0.56326 0.50278 0.70897 0.0
H937 H 0.61246 0.52933 0.79267 0.0
H938 H 0.55577 0.51513 0.88797 0.0
H939 H 0.52346 0.51902 0.92178 0.0
H940 H 0.53889 0.5733 0.98364 0.0
H941 H 0.57116 0.57 0.94895 0.0
C942 C 0.65897 0.51973 1.0032 0.0
C943 C 0.66442 0.53617 0.03011 0.0
C944 C 0.64393 0.5201 0.96864 0.0
C945 C 0.63383 0.53687 0.96017 0.0
C946 C 0.63848 0.55305 0.98889 0.0
C947 C 0.65366 0.55273 0.02333 0.0
C948 C 0.61909 0.53758 0.91959 0.0
C949 C 0.60024 0.54125 0.93295 0.0
C950 C 0.62347 0.53343 0.86818 0.0
C951 C 0.64323 0.5304 0.85101 0.0
C952 C 0.65726 0.54424 0.85999 0.0
C953 C 0.67591 0.54119 0.84438 0.0
C954 C 0.68069 0.5244 0.81939 0.0
C955 C 0.6668 0.51064 0.80985 0.0
C956 C 0.64813 0.51362 0.82546 0.0
C957 C 0.54783 0.54484 0.75706 0.0
C958 C 0.5484 0.52897 0.72446 0.0
C959 C 0.56111 0.54701 0.79648 0.0
C960 C 0.57509 0.53321 0.80472 0.0
C961 C 0.57548 0.51734 0.77235 0.0
C962 C 0.56242 0.51528 0.73279 0.0
C963 C 0.58983 0.53532 0.84545 0.0
C964 C 0.60887 0.53233 0.83205 0.0
C965 C 0.58552 0.53999 0.89684 0.0
C966 C 0.56583 0.54242 0.91526 0.0
C967 C 0.55219 0.52805 0.908 0.0
C968 C 0.53388 0.53014 0.92735 0.0
C969 C 0.52909 0.54644 0.95455 0.0
C970 C 0.54262 0.56068 0.96255 0.0
C971 C 0.56089 0.55876 0.94278 0.0
H972 H 0.51491 0.54802 0.96955 0.0
H973 H 0.69514 0.52205 0.80733 0.0
H974 H 0.96653 0.67858 0.95279 0.0
H975 H 0.97145 0.65037 0.90118 0.0
H976 H 0.02588 0.64227 0.97123 0.0
H977 H 0.02119 0.67108 0.02253 0.0
H978 H 0.02816 0.63809 0.86867 0.0
H979 H 0.98797 0.61237 0.99954 0.0
H980 H 0.96001 0.611 0.05597 0.0
H981 H 0.92355 0.60817 0.92562 0.0
H982 H 0.95125 0.60956 0.86845 0.0
H983 H 0.03828 0.55231 0.72784 0.0
H984 H 0.03662 0.57556 0.7969 0.0
H985 H 0.97772 0.58499 0.76248 0.0
H986 H 0.97911 0.56066 0.69625 0.0
H987 H 0.98025 0.58654 0.85635 0.0
H988 H 0.01904 0.61743 0.72616 0.0
H989 H 0.04635 0.61939 0.66721 0.0
H990 H 0.08448 0.61351 0.7931 0.0
H991 H 0.05741 0.61147 0.85265 0.0
C992 C 0.97958 0.67084 0.95739 0.0
C993 C 0.99352 0.67725 0.99169 0.0
C994 C 0.9823 0.65453 0.92808 0.0
C995 C 0.99897 0.64396 0.93243 0.0
C996 C 0.01286 0.65011 0.96718 0.0
C997 C 0.01011 0.66651 0.9968 0.0
C998 C 1.00198 0.62702 0.89902 0.0
C999 C 0.01784 0.62664 0.86664 0.0
C1000 C 0.98839 0.61219 0.89533 0.0
C1001 C 0.9717 0.61117 0.92972 0.0
C1002 C 0.97398 0.61153 0.98292 0.0
C1003 C 0.95817 0.6107 0.01505 0.0
C1004 C 0.94001 0.60946 0.99441 0.0
C1005 C 0.93762 0.60903 0.9416 0.0
C1006 C 0.95337 0.60979 0.90931 0.0
C1007 C 0.02497 0.55931 0.73541 0.0
C1008 C 0.00883 0.55469 0.70676 0.0
C1009 C 0.02405 0.5728 0.77458 0.0
C1010 C 0.00715 0.58262 0.78457 0.0
C1011 C 0.99097 0.57776 0.75601 0.0
C1012 C 0.99175 0.56383 0.718 0.0
C1013 C 0.00613 0.59787 0.82452 0.0
C1014 C 0.99066 0.5979 0.85841 0.0
C1015 C 0.01997 0.61249 0.82917 0.0
C1016 C 0.03623 0.61412 0.79365 0.0
C1017 C 0.03326 0.61649 0.74111 0.0
C1018 C 0.04868 0.61763 0.70766 0.0
C1019 C 0.06711 0.61652 0.7264 0.0
C1020 C 0.07019 0.61437 0.77866 0.0
C1021 C 0.05482 0.61327 0.81227 0.0
H1022 H 0.07902 0.61738 0.70042 0.0
H1023 H 0.92778 0.60884 0.01933 0.0
H1024 H 0.12649 0.17996 0.19366 0.0
H1025 H 0.12158 0.14885 0.23324 0.0
H1026 H 0.08373 0.17383 0.34299 0.0
H1027 H 0.08833 0.20462 0.3039 0.0
H1028 H 0.09991 0.14124 0.3805 0.0
H1029 H 0.06701 0.16279 0.22469 0.0
H1030 H 0.06737 0.17377 0.13533 0.0
H1031 H 0.09768 0.12386 0.09087 0.0
H1032 H 0.09764 0.11272 0.18019 0.0
H1033 H 0.01137 0.10149 0.41225 0.0
H1034 H 0.03991 0.11956 0.39216 0.0
H1035 H 0.05809 0.07528 0.29014 0.0
H1036 H 0.02926 0.057 0.3102 0.0
H1037 H 0.06198 0.10888 0.24703 0.0
H1038 H 0.08029 0.08281 0.40182 0.0
H1039 H 0.07832 0.07232 0.49135 0.0
H1040 H 0.07484 0.1303 0.54014 0.0
H1041 H 0.07659 0.14106 0.45087 0.0
C1042 C 0.11768 0.17893 0.22742 0.0
C1043 C 0.10733 0.19469 0.24454 0.0
C1044 C 0.11497 0.16115 0.25013 0.0
C1045 C 0.10183 0.15897 0.29 0.0
C1046 C 0.09383 0.17516 0.312 0.0
C1047 C 0.09653 0.19288 0.28945 0.0
C1048 C 0.09288 0.14033 0.3009 0.0
C1049 C 0.09173 0.13397 0.35148 0.0
C1050 C 0.08269 0.13052 0.26257 0.0
C1051 C 0.08249 0.13704 0.20895 0.0
C1052 C 0.07378 0.15421 0.1958 0.0
C1053 C 0.07393 0.16045 0.14523 0.0
C1054 C 0.08258 0.14954 0.10747 0.0
C1055 C 0.09103 0.13232 0.12019 0.0
C1056 C 0.09095 0.12603 0.17075 0.0
C1057 C 0.02151 0.0955 0.38586 0.0
C1058 C 0.01811 0.07782 0.36291 0.0
C1059 C 0.03789 0.10578 0.37466 0.0
C1060 C 0.05137 0.09857 0.34059 0.0
C1061 C 0.04793 0.08103 0.31685 0.0
C1062 C 0.03142 0.07071 0.32797 0.0
C1063 C 0.06818 0.1103 0.32726 0.0
C1064 C 0.07073 0.11544 0.27611 0.0
C1065 C 0.07956 0.11894 0.36525 0.0
C1066 C 0.07866 0.1127 0.41942 0.0
C1067 C 0.07912 0.09329 0.43164 0.0
C1068 C 0.078 0.0873 0.48236 0.0
C1069 C 0.07647 0.10064 0.52144 0.0
C1070 C 0.07607 0.11998 0.50982 0.0
C1071 C 0.07718 0.12602 0.4591 0.0
H1072 H 0.07557 0.09599 0.5607 0.0
H1073 H 0.08271 0.15441 0.06834 0.0
H1074 H 0.29622 0.08947 0.329 0.0
H1075 H 0.31785 0.07313 0.38656 0.0
H1076 H 0.35435 0.06013 0.25958 0.0
H1077 H 0.3326 0.07523 0.2018 0.0
H1078 H 0.34141 0.02863 0.30728 0.0
H1079 H 0.36851 0.08934 0.35522 0.0
H1080 H 0.36764 0.12193 0.38912 0.0
H1081 H 0.34579 0.10099 0.53151 0.0
H1082 H 0.34629 0.06828 0.49818 0.0
H1083 H 0.42594 0.99168 0.39614 0.0
H1084 H 0.40084 0.01154 0.362 0.0
H1085 H 0.37208 0.00987 0.50728 0.0
H1086 H 0.39739 0.98979 0.54179 0.0
H1087 H 0.37623 0.04718 0.46349 0.0
H1088 H 0.35243 0.98619 0.41829 0.0
H1089 H 0.35385 0.95359 0.38466 0.0
H1090 H 0.36931 0.97514 0.23706 0.0
H1091 H 0.36827 0.00786 0.26997 0.0
C1092 C 0.30902 0.08343 0.31341 0.0
C1093 C 0.31232 0.08332 0.26038 0.0
C1094 C 0.32145 0.07423 0.3465 0.0
C1095 C 0.3375 0.06514 0.32708 0.0
C1096 C 0.3419 0.06689 0.27519 0.0
C1097 C 0.32946 0.07582 0.24215 0.0
C1098 C 0.34829 0.05157 0.35841 0.0
C1099 C 0.34915 0.03275 0.34122 0.0
C1100 C 0.35756 0.05673 0.40405 0.0
C1101 C 0.3572 0.07639 0.42397 0.0
C1102 C 0.36333 0.0917 0.39357 0.0
C1103 C 0.36295 0.11019 0.41273 0.0
C1104 C 0.3566 0.11353 0.46237 0.0
C1105 C 0.35067 0.09838 0.49302 0.0
C1106 C 0.35101 0.07987 0.47403 0.0
C1107 C 0.41414 0.99537 0.42056 0.0
C1108 C 0.41344 0.98919 0.47134 0.0
C1109 C 0.39985 1.00669 0.40113 0.0
C1110 C 0.38463 0.01208 0.43215 0.0
C1111 C 0.38374 1.0058 0.48287 0.0
C1112 C 0.39803 0.99424 0.50229 0.0
C1113 C 0.36999 0.02458 0.41079 0.0
C1114 C 0.36825 0.04307 0.42997 0.0
C1115 C 0.35983 0.01917 0.36686 0.0
C1116 C 0.36036 0.99949 0.34672 0.0
C1117 C 0.35626 0.98398 0.37875 0.0
C1118 C 0.35698 0.96547 0.3598 0.0
C1119 C 0.36169 0.96229 0.30878 0.0
C1120 C 0.36566 0.97762 0.27658 0.0
C1121 C 0.36497 0.99615 0.29534 0.0
H1122 H 0.36224 0.94796 0.29418 0.0
H1123 H 0.35633 0.12786 0.47714 0.0
H1124 H 0.42301 0.34248 0.25849 0.0
H1125 H 0.42671 0.36671 0.32436 0.0
H1126 H 0.4571 0.32709 0.41792 0.0
H1127 H 0.45389 0.30299 0.3522 0.0
H1128 H 0.43738 0.35757 0.47474 0.0
H1129 H 0.48292 0.34657 0.33569 0.0
H1130 H 0.49018 0.34214 0.24445 0.0
H1131 H 0.46603 0.39638 0.21054 0.0
H1132 H 0.4583 0.4009 0.30147 0.0
H1133 H 0.51979 0.39867 0.57983 0.0
H1134 H 0.4936 0.381 0.54225 0.0
H1135 H 0.48174 0.42823 0.44325 0.0
H1136 H 0.50888 0.44523 0.47653 0.0
H1137 H 0.48569 0.39821 0.38953 0.0
H1138 H 0.44929 0.41278 0.53602 0.0
H1139 H 0.44275 0.41643 0.62774 0.0
H1140 H 0.44983 0.35656 0.6499 0.0
H1141 H 0.45651 0.35255 0.55823 0.0
C1142 C 0.42992 0.33872 0.29383 0.0
C1143 C 0.43866 0.32099 0.29943 0.0
C1144 C 0.43181 0.35252 0.33167 0.0
C1145 C 0.44245 0.34873 0.37551 0.0
C1146 C 0.4488 0.33025 0.38437 0.0
C1147 C 0.44698 0.31647 0.3465 0.0
C1148 C 0.45131 0.36452 0.404 0.0
C1149 C 0.44784 0.36663 0.45636 0.0
C1150 C 0.46477 0.37641 0.37963 0.0
C1151 C 0.4699 0.374 0.32521 0.0
C1152 C 0.4791 0.3575 0.30869 0.0
C1153 C 0.48329 0.35497 0.25706 0.0
C1154 C 0.47854 0.36896 0.2217 0.0
C1155 C 0.46967 0.38554 0.23796 0.0
C1156 C 0.46538 0.3881 0.28955 0.0
C1157 C 0.51172 0.40531 0.54982 0.0
C1158 C 0.51684 0.4233 0.53073 0.0
C1159 C 0.49642 0.39532 0.52913 0.0
C1160 C 0.48565 0.4033 0.48981 0.0
C1161 C 0.48991 0.42174 0.47324 0.0
C1162 C 0.50542 0.43155 0.49296 0.0
C1163 C 0.47194 0.39147 0.46095 0.0
C1164 C 0.47472 0.38985 0.40817 0.0
C1165 C 0.45789 0.38017 0.48518 0.0
C1166 C 0.45348 0.38238 0.54021 0.0
C1167 C 0.44953 0.40039 0.56046 0.0
C1168 C 0.44578 0.40253 0.61247 0.0
C1169 C 0.44593 0.38674 0.64469 0.0
C1170 C 0.44971 0.36878 0.62489 0.0
C1171 C 0.45341 0.36655 0.57285 0.0
H1172 H 0.44308 0.38843 0.68498 0.0
H1173 H 0.48177 0.36696 0.18172 0.0
H1174 H 0.18394 0.43839 0.25638 0.0
H1175 H 0.16396 0.44537 0.32873 0.0
H1176 H 0.20529 0.42137 0.43009 0.0
H1177 H 0.22561 0.41408 0.35698 0.0
H1178 H 0.14685 0.43203 0.41262 0.0
H1179 H 0.21225 0.45396 0.52403 0.0
H1180 H 0.24649 0.45944 0.51083 0.0
H1181 H 0.23613 0.47699 0.35672 0.0
H1182 H 0.20185 0.4719 0.36938 0.0
H1183 H 0.1057 0.49639 0.58651 0.0
H1184 H 0.12605 0.46976 0.56277 0.0
H1185 H 0.16008 0.50768 0.47024 0.0
H1186 H 0.14051 0.53432 0.4968 0.0
H1187 H 0.18177 0.48231 0.50643 0.0
H1188 H 0.1187 0.48097 0.42733 0.0
H1189 H 0.08387 0.47859 0.4328 0.0
H1190 H 0.08829 0.42431 0.50583 0.0
H1191 H 0.12314 0.42653 0.50165 0.0
C1192 C 0.18853 0.43371 0.2936 0.0
C1193 C 0.20665 0.42605 0.30084 0.0
C1194 C 0.177 0.43777 0.33522 0.0
C1195 C 0.18334 0.43434 0.38491 0.0
C1196 C 0.20029 0.42444 0.39202 0.0
C1197 C 0.21192 0.42038 0.35022 0.0
C1198 C 0.17414 0.44461 0.42742 0.0
C1199 C 0.15451 0.44274 0.4341 0.0
C1200 C 0.18409 0.45873 0.45506 0.0
C1201 C 0.20459 0.4623 0.44749 0.0
C1202 C 0.21731 0.45904 0.48744 0.0
C1203 C 0.2367 0.46209 0.48005 0.0
C1204 C 0.24348 0.46849 0.43292 0.0
C1205 C 0.23087 0.47199 0.39317 0.0
C1206 C 0.21147 0.46905 0.40045 0.0
C1207 C 0.11792 0.499 0.56242 0.0
C1208 C 0.12168 0.51725 0.54329 0.0
C1209 C 0.12943 0.48381 0.54855 0.0
C1210 C 0.14435 0.48659 0.51372 0.0
C1211 C 0.14868 0.50511 0.49716 0.0
C1212 C 0.1375 0.52034 0.51212 0.0
C1213 C 0.1543 0.47036 0.48988 0.0
C1214 C 0.17412 0.47109 0.48683 0.0
C1215 C 0.14441 0.45562 0.46424 0.0
C1216 C 0.12349 0.45405 0.46493 0.0
C1217 C 0.11223 0.46856 0.44469 0.0
C1218 C 0.0925 0.46726 0.44764 0.0
C1219 C 0.08391 0.45138 0.47004 0.0
C1220 C 0.09499 0.43665 0.48884 0.0
C1221 C 0.11472 0.43793 0.48625 0.0
H1222 H 0.06868 0.45047 0.47291 0.0
H1223 H 0.2585 0.47077 0.42723 0.0
H1224 H 0.93723 0.80827 0.89164 0.0
H1225 H 0.94317 0.83361 0.83127 0.0
H1226 H 0.91891 0.87394 0.93551 0.0
H1227 H 0.9123 0.8484 0.99628 0.0
H1228 H 0.92895 0.86658 0.78121 0.0
H1229 H 0.95421 0.90519 0.95694 0.0
H1230 H 0.96006 0.89936 0.04839 0.0
H1231 H 0.97612 0.84207 0.01506 0.0
H1232 H 0.97062 0.84769 0.92347 0.0
H1233 H 0.99368 0.941 0.69482 0.0
H1234 H 0.96759 0.92638 0.74246 0.0
H1235 H 1.00477 0.88199 0.79266 0.0
H1236 H 0.03088 0.89639 0.74524 0.0
H1237 H 0.98237 0.89812 0.87089 0.0
H1238 H 0.97729 0.87357 0.69769 0.0
H1239 H 0.97372 0.87832 0.6052 0.0
H1240 H 0.92 0.90484 0.62995 0.0
H1241 H 0.92352 0.90068 0.72288 0.0
C1242 C 0.93214 0.82228 0.90099 0.0
C1243 C 0.92482 0.82635 0.94972 0.0
C1244 C 0.93556 0.83683 0.86608 0.0
C1245 C 0.93189 0.85568 0.87946 0.0
C1246 C 0.92203 0.85946 0.92479 0.0
C1247 C 0.91847 0.84486 0.95971 0.0
C1248 C 0.94281 0.87085 0.85339 0.0
C1249 C 0.94033 0.87388 0.80095 0.0
C1250 C 0.95786 0.88013 0.87901 0.0
C1251 C 0.9618 0.8768 0.93366 0.0
C1252 C 0.95907 0.89139 0.96922 0.0
C1253 C 0.96232 0.88812 0.02102 0.0
C1254 C 0.9684 0.87034 0.03754 0.0
C1255 C 0.97139 0.85582 1.00225 0.0
C1256 C 0.96821 0.85904 0.95042 0.0
C1257 C 0.99632 0.92807 0.71568 0.0
C1258 C 0.01432 0.91963 0.71516 0.0
C1259 C 0.98138 0.91979 0.743 0.0
C1260 C 0.9843 0.9031 0.77075 0.0
C1261 C 1.00228 0.89489 0.77131 0.0
C1262 C 0.01713 0.90301 0.74367 0.0
C1263 C 0.96868 0.89368 0.79865 0.0
C1264 C 0.97044 0.89159 0.85147 0.0
C1265 C 0.95319 0.88517 0.77313 0.0
C1266 C 0.95077 0.88701 0.71724 0.0
C1267 C 0.96478 0.88052 0.68344 0.0
C1268 C 0.96276 0.88311 0.63092 0.0
C1269 C 0.94665 0.8919 0.61166 0.0
C1270 C 0.93249 0.89806 0.64492 0.0
C1271 C 0.9345 0.89561 0.69753 0.0
H1272 H 0.94512 0.89393 0.57099 0.0
H1273 H 0.97084 0.86781 0.07766 0.0
H1274 H 0.69568 0.94717 0.90301 0.0
H1275 H 0.66505 0.95234 0.86432 0.0
H1276 H 0.64009 0.91034 0.96399 0.0
H1277 H 0.67092 0.90471 1.00228 0.0
H1278 H 0.63267 0.93754 0.82176 0.0
H1279 H 0.60306 0.93233 0.02291 0.0
H1280 H 0.6138 0.92918 0.11194 0.0
H1281 H 0.66465 0.9602 0.07575 0.0
H1282 H 0.65414 0.96357 0.98665 0.0
H1283 H 0.55033 0.99744 0.81337 0.0
H1284 H 0.56931 0.96917 0.8274 0.0
H1285 H 0.60691 1.00158 0.9235 0.0
H1286 H 0.58777 0.0297 0.91026 0.0
H1287 H 0.59984 0.96888 0.96598 0.0
H1288 H 0.61681 0.98969 0.79015 0.0
H1289 H 0.60613 0.99707 0.70288 0.0
H1290 H 0.58225 0.94113 0.68916 0.0
H1291 H 0.59303 0.93339 0.77607 0.0
C1292 C 0.68394 0.93824 0.91497 0.0
C1293 C 0.68566 0.92592 0.95685 0.0
C1294 C 0.66633 0.94122 0.8926 0.0
C1295 C 0.65015 0.93203 0.91194 0.0
C1296 C 0.65232 0.91768 0.94858 0.0
C1297 C 0.66996 0.91464 0.97091 0.0
C1298 C 0.63151 0.94097 0.90339 0.0
C1299 C 0.62522 0.94407 0.85331 0.0
C1300 C 0.62169 0.94951 0.94447 0.0
C1301 C 0.62801 0.9478 0.99802 0.0
C1302 C 0.61656 0.93838 0.03398 0.0
C1303 C 0.62259 0.93659 0.08444 0.0
C1304 C 0.63996 0.94437 0.09941 0.0
C1305 C 0.65125 0.95409 0.06406 0.0
C1306 C 0.64528 0.95592 0.01359 0.0
C1307 C 0.56257 0.99845 0.83764 0.0
C1308 C 0.56739 0.01572 0.86109 0.0
C1309 C 0.5734 0.98227 0.84571 0.0
C1310 C 0.58949 0.98315 0.87669 0.0
C1311 C 0.59439 1.00044 0.89997 0.0
C1312 C 0.58344 0.01653 0.89237 0.0
C1313 C 0.60182 0.96647 0.88436 0.0
C1314 C 0.60673 0.96175 0.93442 0.0
C1315 C 0.61056 0.95688 0.84326 0.0
C1316 C 0.60557 0.96101 0.78963 0.0
C1317 C 0.6094 0.97894 0.76831 0.0
C1318 C 0.6033 0.9832 0.71898 0.0
C1319 C 0.59339 0.96962 0.69066 0.0
C1320 C 0.58987 0.95165 0.71124 0.0
C1321 C 0.59606 0.94728 0.7604 0.0
H1322 H 0.58852 0.97299 0.65269 0.0
H1323 H 0.64461 0.94295 0.13847 0.0
H1324 H 0.59652 0.72923 0.90259 0.0
H1325 H 0.58631 0.70222 0.85323 0.0
H1326 H 0.61231 0.66447 0.9609 0.0
H1327 H 0.62449 0.69162 0.00834 0.0
H1328 H 0.60453 0.64642 0.8676 0.0
H1329 H 0.57167 0.68242 0.99613 0.0
H1330 H 0.56094 0.71219 0.03575 0.0
H1331 H 0.52962 0.72577 0.90083 0.0
H1332 H 0.5404 0.69618 0.86014 0.0
H1333 H 0.52628 0.58012 0.88449 0.0
H1334 H 0.5521 0.60254 0.9038 0.0
H1335 H 0.52768 0.64309 0.80026 0.0
H1336 H 0.50181 0.62088 0.7821 0.0
H1337 H 0.53594 0.6584 0.89197 0.0
H1338 H 0.56756 0.61883 0.76778 0.0
H1339 H 0.5793 0.58863 0.73296 0.0
H1340 H 0.61236 0.57989 0.86778 0.0
H1341 H 0.60067 0.60998 0.90366 0.0
C1342 C 0.60128 0.71539 0.91457 0.0
C1343 C 0.61029 0.71266 0.96181 0.0
C1344 C 0.59525 0.69982 0.88604 0.0
C1345 C 0.59761 0.68142 0.90518 0.0
C1346 C 0.60982 0.67862 0.94637 0.0
C1347 C 0.61648 0.69423 0.97401 0.0
C1348 C 0.58359 0.66652 0.89194 0.0
C1349 C 0.58954 0.64895 0.87298 0.0
C1350 C 0.56404 0.66974 0.89995 0.0
C1351 C 0.55696 0.68719 0.92496 0.0
C1352 C 0.56253 0.69178 0.9749 0.0
C1353 C 0.55646 0.70863 0.99752 0.0
C1354 C 0.54466 0.72089 0.97077 0.0
C1355 C 0.5388 0.71628 0.92146 0.0
C1356 C 0.54486 0.69947 0.89861 0.0
C1357 C 0.52642 0.59393 0.86667 0.0
C1358 C 0.51203 0.59895 0.83265 0.0
C1359 C 0.54125 0.60657 0.87692 0.0
C1360 C 0.54186 0.62439 0.85303 0.0
C1361 C 0.52748 0.62937 0.81892 0.0
C1362 C 0.51273 0.61673 0.80865 0.0
C1363 C 0.55673 0.63845 0.86578 0.0
C1364 C 0.5509 0.65586 0.88581 0.0
C1365 C 0.57629 0.6348 0.85973 0.0
C1366 C 0.5832 0.61663 0.83845 0.0
C1367 C 0.57724 0.61042 0.79014 0.0
C1368 C 0.58393 0.59335 0.77016 0.0
C1369 C 0.59665 0.58243 0.79801 0.0
C1370 C 0.60258 0.58843 0.84614 0.0
C1371 C 0.59596 0.60551 0.86628 0.0
H1372 H 0.6019 0.56932 0.78222 0.0
H1373 H 0.54002 0.73395 0.98829 0.0
H1374 H 0.83121 0.54329 0.95935 0.0
H1375 H 0.85142 0.53774 0.88588 0.0
H1376 H 0.82513 0.58415 0.80627 0.0
H1377 H 0.8042 0.58935 0.88001 0.0
H1378 H 0.82958 0.55628 0.7432 0.0
H1379 H 0.87055 0.5885 0.85325 0.0
H1380 H 0.88663 0.59753 0.93291 0.0
H1381 H 0.91262 0.54279 0.94011 0.0
H1382 H 0.89637 0.53324 0.86113 0.0
H1383 H 0.93139 0.52827 0.63877 0.0
H1384 H 0.91106 0.54866 0.6882 0.0
H1385 H 0.86439 0.5098 0.66375 0.0
H1386 H 0.88445 0.49047 0.60882 0.0
H1387 H 0.8977 0.54358 0.77028 0.0
H1388 H 0.82219 0.52831 0.68525 0.0
H1389 H 0.80806 0.52382 0.60029 0.0
H1390 H 0.85428 0.55448 0.53171 0.0
H1391 H 0.86854 0.5595 0.61639 0.0
C1392 C 0.82994 0.55253 0.92654 0.0
C1393 C 0.8164 0.56695 0.92558 0.0
C1394 C 0.8415 0.54935 0.88452 0.0
C1395 C 0.84011 0.56081 0.84094 0.0
C1396 C 0.82652 0.57523 0.83964 0.0
C1397 C 0.81466 0.57823 0.88168 0.0
C1398 C 0.85264 0.55704 0.79675 0.0
C1399 C 0.84454 0.55372 0.74871 0.0
C1400 C 0.87231 0.55454 0.80338 0.0
C1401 C 0.88213 0.56013 0.85123 0.0
C1402 C 0.87956 0.57832 0.872 0.0
C1403 C 0.88871 0.58353 0.91708 0.0
C1404 C 0.90062 0.57073 0.94159 0.0
C1405 C 0.90339 0.55269 0.92108 0.0
C1406 C 0.89421 0.54737 0.87612 0.0
C1407 C 0.91667 0.5244 0.6423 0.0
C1408 C 0.90949 0.50798 0.61886 0.0
C1409 C 0.90502 0.53601 0.67117 0.0
C1410 C 0.88604 0.53098 0.67965 0.0
C1411 C 0.87878 0.51444 0.65656 0.0
C1412 C 0.89031 0.50326 0.62556 0.0
C1413 C 0.87457 0.54188 0.7169 0.0
C1414 C 0.88288 0.54656 0.76385 0.0
C1415 C 0.85539 0.54655 0.70818 0.0
C1416 C 0.8465 0.54418 0.65727 0.0
C1417 C 0.82927 0.53426 0.65216 0.0
C1418 C 0.82125 0.53159 0.604 0.0
C1419 C 0.8303 0.53882 0.56063 0.0
C1420 C 0.84733 0.54885 0.56534 0.0
C1421 C 0.85537 0.55161 0.6134 0.0
H1422 H 0.82412 0.53667 0.52337 0.0
H1423 H 0.90772 0.57481 0.97641 0.0
H1424 H 0.05399 0.19486 0.89722 0.0
H1425 H 0.04982 0.1667 0.84456 0.0
H1426 H 0.98969 0.16784 0.87244 0.0
H1427 H 0.99379 0.19616 0.92561 0.0
H1428 H 1.0019 0.13256 0.88008 0.0
H1429 H 0.0094 0.18164 0.75598 0.0
H1430 H 0.02454 0.20919 0.71413 0.0
H1431 H 0.07447 0.1765 0.68601 0.0
H1432 H 0.05973 0.14881 0.72836 0.0
H1433 H 0.98064 0.0626 0.69281 0.0
H1434 H 0.9825 0.09178 0.74266 0.0
H1435 H 0.04248 0.09543 0.71261 0.0
H1436 H 0.04023 0.06712 0.6591 0.0
H1437 H 0.02891 0.12874 0.70575 0.0
H1438 H 0.02084 0.07956 0.83362 0.0
H1439 H 1.00452 0.05235 0.87429 0.0
H1440 H 0.95441 0.08553 0.89298 0.0
H1441 H 0.97033 0.11293 0.85235 0.0
C1442 C 0.03979 0.18939 0.89155 0.0
C1443 C 0.0242 0.19805 0.91537 0.0
C1444 C 0.03743 0.17316 0.8614 0.0
C1445 C 0.01939 0.16516 0.85365 0.0
C1446 C 1.00377 0.17367 0.87762 0.0
C1447 C 0.00614 0.18991 0.90807 0.0
C1448 C 0.01696 0.1478 0.82126 0.0
C1449 C 0.00761 0.13184 0.8417 0.0
C1450 C 0.02462 0.14659 0.77135 0.0
C1451 C 0.03352 0.1632 0.74578 0.0
C1452 C 0.02366 0.18037 0.74123 0.0
C1453 C 0.03216 0.196 0.71736 0.0
C1454 C 0.05047 0.19461 0.69754 0.0
C1455 C 0.0603 0.17757 0.70144 0.0
C1456 C 0.05187 0.16189 0.72534 0.0
C1457 C 0.99423 0.06964 0.69667 0.0
C1458 C 0.01044 0.06216 0.67308 0.0
C1459 C 0.99533 0.08627 0.72583 0.0
C1460 C 0.01275 0.09569 0.73303 0.0
C1461 C 0.02888 0.08842 0.70849 0.0
C1462 C 0.02768 0.072 0.67849 0.0
C1463 C 0.01413 0.11334 0.7648 0.0
C1464 C 0.02325 0.12941 0.74418 0.0
C1465 C 0.00618 0.11466 0.81443 0.0
C1466 C 0.99674 0.09825 0.83957 0.0
C1467 C 0.00632 0.08102 0.8462 0.0
C1468 C 0.99715 0.06557 0.86922 0.0
C1469 C 0.97845 0.06718 0.88591 0.0
C1470 C 0.96889 0.08429 0.87994 0.0
C1471 C 0.97799 0.0998 0.85706 0.0
H1472 H 0.97138 0.05518 0.90362 0.0
H1473 H 0.05703 0.20674 0.67907 0.0
H1474 H 0.30799 0.05032 0.8121 0.0
H1475 H 0.33816 0.04623 0.76647 0.0
H1476 H 0.36259 0.02166 0.90121 0.0
H1477 H 0.33239 0.02523 0.94647 0.0
H1478 H 0.38379 0.05407 0.84985 0.0
H1479 H 0.35442 0.99283 0.81725 0.0
H1480 H 0.32897 0.97181 0.78596 0.0
H1481 H 0.33487 0.99557 0.63596 0.0
H1482 H 0.36016 0.01697 0.66659 0.0
H1483 H 0.47303 0.02512 0.76086 0.0
H1484 H 0.44189 0.02689 0.80089 0.0
H1485 H 0.41578 0.02859 0.65253 0.0
H1486 H 0.44696 0.02572 0.61236 0.0
H1487 H 0.39442 0.00868 0.7085 0.0
H1488 H 0.42243 0.06938 0.73384 0.0
H1489 H 0.44704 0.09242 0.75937 0.0
H1490 H 0.44235 0.07364 0.91465 0.0
H1491 H 0.41792 0.05024 0.88989 0.0
C1492 C 0.31975 0.04385 0.83174 0.0
C1493 C 0.31776 0.03798 0.88279 0.0
C1494 C 0.33696 0.04152 0.80566 0.0
C1495 C 0.35265 0.03365 0.83043 0.0
C1496 C 0.35068 0.02774 0.88131 0.0
C1497 C 0.33338 0.02967 0.90701 0.0
C1498 C 0.37129 0.0321 0.80392 0.0
C1499 C 0.38622 0.044 0.81934 0.0
C1500 C 0.37424 0.01951 0.76274 0.0
C1501 C 0.35901 1.00668 0.74439 0.0
C1502 C 0.35014 0.99374 0.77775 0.0
C1503 C 0.33578 0.98171 0.76009 0.0
C1504 C 0.33025 0.9824 0.70905 0.0
C1505 C 0.33913 0.99508 0.67552 0.0
C1506 C 0.35348 1.00716 0.693 0.0
C1507 C 0.46067 0.02594 0.73671 0.0
C1508 C 0.46254 0.02551 0.68336 0.0
C1509 C 0.44279 0.02705 0.75969 0.0
C1510 C 0.4263 0.0284 0.73 0.0
C1511 C 0.42816 0.02767 0.67659 0.0
C1512 C 0.44604 0.02611 0.65357 0.0
C1513 C 0.40722 0.03055 0.75469 0.0
C1514 C 0.39213 0.01883 0.73889 0.0
C1515 C 0.40396 0.0437 0.79468 0.0
C1516 C 0.41845 0.05794 0.80992 0.0
C1517 C 0.42672 0.07009 0.77339 0.0
C1518 C 0.44064 0.08321 0.78772 0.0
C1519 C 0.44628 0.08447 0.83859 0.0
C1520 C 0.43798 0.07263 0.87525 0.0
C1521 C 0.42408 0.05944 0.8611 0.0
H1522 H 0.45707 0.09463 0.84961 0.0
H1523 H 0.31914 0.97306 0.69545 0.0
H1524 H 0.50499 0.31469 0.83917 0.0
H1525 H 0.50458 0.34235 0.78216 0.0
H1526 H 0.49967 0.3793 0.91223 0.0
H1527 H 0.49955 0.35195 0.96888 0.0
H1528 H 0.47484 0.38882 0.8404 0.0
H1529 H 0.54169 0.37372 0.8436 0.0
H1530 H 0.56935 0.3532 0.83018 0.0
H1531 H 0.55563 0.34819 0.67144 0.0
H1532 H 0.52774 0.36848 0.68407 0.0
H1533 H 0.50468 0.47995 0.75358 0.0
H1534 H 0.50195 0.44901 0.79493 0.0
H1535 H 0.49875 0.42196 0.64804 0.0
H1536 H 0.50022 0.45313 0.60637 0.0
H1537 H 0.52578 0.40521 0.71729 0.0
H1538 H 0.46173 0.42119 0.70857 0.0
H1539 H 0.43136 0.43778 0.71694 0.0
H1540 H 0.43766 0.43899 0.87958 0.0
H1541 H 0.46822 0.42258 0.87212 0.0
C1542 C 0.50382 0.3287 0.85563 0.0
C1543 C 0.50249 0.33097 0.90891 0.0
C1544 C 0.50373 0.34455 0.82294 0.0
C1545 C 0.50226 0.36304 0.84273 0.0
C1546 C 0.50089 0.36527 0.8958 0.0
C1547 C 0.50103 0.34953 0.92833 0.0
C1548 C 0.50153 0.38017 0.80889 0.0
C1549 C 0.48614 0.39252 0.81407 0.0
C1550 C 0.51575 0.38462 0.77243 0.0
C1551 C 0.5325 0.37241 0.76493 0.0
C1552 C 0.54447 0.3681 0.80594 0.0
C1553 C 0.56021 0.35654 0.79845 0.0
C1554 C 0.56421 0.34934 0.75003 0.0
C1555 C 0.5525 0.35374 0.70895 0.0
C1556 C 0.53673 0.36527 0.71625 0.0
C1557 C 0.50296 0.46754 0.72994 0.0
C1558 C 0.50261 0.4692 0.67651 0.0
C1559 C 0.50157 0.44977 0.7537 0.0
C1560 C 0.50019 0.43309 0.72468 0.0
C1561 C 0.49995 0.4346 0.67128 0.0
C1562 C 0.5009 0.45245 0.6475 0.0
C1563 C 0.49947 0.41419 0.75056 0.0
C1564 C 0.5145 0.40151 0.74371 0.0
C1565 C 0.4848 0.40928 0.78511 0.0
C1566 C 0.46734 0.42072 0.78969 0.0
C1567 C 0.4568 0.42524 0.74605 0.0
C1568 C 0.43947 0.43449 0.75067 0.0
C1569 C 0.4325 0.43926 0.79881 0.0
C1570 C 0.44302 0.43514 0.84235 0.0
C1571 C 0.46035 0.42588 0.83792 0.0
H1572 H 0.41901 0.44629 0.80237 0.0
H1573 H 0.57641 0.34041 0.7443 0.0
H1574 H 0.17227 0.48149 0.98053 0.0
H1575 H 0.14533 0.48446 0.92378 0.0
H1576 H 0.18082 0.51196 0.81156 0.0
H1577 H 0.20799 0.50963 0.86939 0.0
H1578 H 0.14684 0.52958 0.81912 0.0
H1579 H 0.16724 0.46572 0.79696 0.0
H1580 H 0.17687 0.43371 0.82384 0.0
H1581 H 0.12255 0.42458 0.89381 0.0
H1582 H 0.11268 0.45664 0.86796 0.0
H1583 H 0.07798 0.52241 0.62513 0.0
H1584 H 0.10687 0.51879 0.67425 0.0
H1585 H 0.07553 0.48865 0.79064 0.0
H1586 H 0.04659 0.49168 0.7403 0.0
H1587 H 0.10863 0.4724 0.77675 0.0
H1588 H 0.08899 0.53723 0.80226 0.0
H1589 H 0.07903 0.56867 0.77139 0.0
H1590 H 0.13187 0.57549 0.69199 0.0
H1591 H 0.14206 0.54402 0.72196 0.0
C1592 C 0.17442 0.48843 0.94412 0.0
C1593 C 0.19241 0.49545 0.92992 0.0
C1594 C 0.15895 0.48991 0.91131 0.0
C1595 C 0.16099 0.49823 0.86296 0.0
C1596 C 0.17886 0.50542 0.84858 0.0
C1597 C 0.19443 0.50395 0.88156 0.0
C1598 C 0.14439 0.49927 0.82785 0.0
C1599 C 0.13867 0.51703 0.80929 0.0
C1600 C 0.13343 0.48298 0.81547 0.0
C1601 C 0.13928 0.46365 0.83089 0.0
C1602 C 0.15739 0.45694 0.8184 0.0
C1603 C 0.16289 0.43878 0.8334 0.0
C1604 C 0.15035 0.42714 0.86062 0.0
C1605 C 0.13226 0.43362 0.87277 0.0
C1606 C 0.1267 0.45178 0.85791 0.0
C1607 C 0.07721 0.51492 0.66096 0.0
C1608 C 0.0599 0.50736 0.67851 0.0
C1609 C 0.09378 0.51296 0.68935 0.0
C1610 C 0.09343 0.50379 0.73689 0.0
C1611 C 0.07624 0.49585 0.75419 0.0
C1612 C 0.05966 0.49758 0.7253 0.0
C1613 C 0.11092 0.50271 0.76871 0.0
C1614 C 0.11682 0.48495 0.78658 0.0
C1615 C 0.12203 0.51898 0.78037 0.0
C1616 C 0.11626 0.53825 0.76422 0.0
C1617 C 0.09849 0.54545 0.77825 0.0
C1618 C 0.09279 0.56326 0.76087 0.0
C1619 C 0.10482 0.57406 0.72977 0.0
C1620 C 0.1226 0.56712 0.71619 0.0
C1621 C 0.12835 0.54932 0.73343 0.0
H1622 H 0.10038 0.5878 0.71615 0.0
H1623 H 0.15463 0.41308 0.8722 0.0
H1624 H 0.98477 0.80957 0.38906 0.0
H1625 H 0.98838 0.83777 0.44267 0.0
H1626 H 0.01418 0.86782 0.31682 0.0
H1627 H 0.01095 0.83959 0.26353 0.0
H1628 H 0.0318 0.87717 0.39938 0.0
H1629 H 0.96576 0.87348 0.3545 0.0
H1630 H 0.9342 0.85844 0.34881 0.0
H1631 H 0.93219 0.85286 0.51175 0.0
H1632 H 0.96389 0.86755 0.51819 0.0
H1633 H 0.01693 0.97276 0.47291 0.0
H1634 H 0.01646 0.94183 0.43118 0.0
H1635 H 0.99384 0.91635 0.56826 0.0
H1636 H 0.99339 0.94767 0.60907 0.0
H1637 H 0.97553 0.90315 0.48747 0.0
H1638 H 0.04058 0.91333 0.52912 0.0
H1639 H 0.07169 0.92944 0.52968 0.0
H1640 H 0.07617 0.92287 0.36779 0.0
H1641 H 0.0446 0.90801 0.36529 0.0
C1642 C 0.99132 0.82216 0.37288 0.0
C1643 C 0.99754 0.82225 0.32182 0.0
C1644 C 0.99329 0.83835 0.40357 0.0
C1645 C 1.00122 0.8552 0.38375 0.0
C1646 C 0.008 0.8551 0.33328 0.0
C1647 C 0.00621 0.83886 0.30277 0.0
C1648 C 1.00217 0.87304 0.41489 0.0
C1649 C 0.01944 0.88298 0.4181 0.0
C1650 C 0.9862 0.88044 0.44076 0.0
C1651 C 0.96722 0.87149 0.43683 0.0
C1652 C 0.95863 0.86892 0.38906 0.0
C1653 C 0.94072 0.86046 0.38569 0.0
C1654 C 0.93121 0.85466 0.42988 0.0
C1655 C 0.93958 0.85733 0.47753 0.0
C1656 C 0.9575 0.86573 0.48108 0.0
C1657 C 0.01167 0.96062 0.49405 0.0
C1658 C 0.00508 0.9627 0.54435 0.0
C1659 C 0.01164 0.94284 0.47031 0.0
C1660 C 0.00535 0.92656 0.49658 0.0
C1661 C 0.99886 0.9286 0.54705 0.0
C1662 C 0.99877 0.94647 0.57066 0.0
C1663 C 0.0051 0.9076 0.47086 0.0
C1664 C 0.98796 0.89737 0.46892 0.0
C1665 C 0.02117 0.90012 0.44549 0.0
C1666 C 0.04 0.90968 0.44698 0.0
C1667 C 0.04797 0.91567 0.49343 0.0
C1668 C 0.06568 0.92467 0.49408 0.0
C1669 C 0.07579 0.92737 0.44881 0.0
C1670 C 0.06819 0.92111 0.40271 0.0
C1671 C 0.05034 0.91248 0.40161 0.0
H1672 H 0.08956 0.93418 0.44949 0.0
H1673 H 0.91734 0.84813 0.42719 0.0
H1674 H 0.68852 0.96275 0.31982 0.0
H1675 H 0.66221 0.96915 0.37718 0.0
H1676 H 0.68537 0.02465 0.40872 0.0
H1677 H 0.71195 0.0183 0.35102 0.0
H1678 H 0.65817 0.97614 0.47476 0.0
H1679 H 0.64866 0.05547 0.42982 0.0
H1680 H 0.65504 0.07829 0.36034 0.0
H1681 H 0.65203 0.03323 0.25062 0.0
H1682 H 0.6454 0.01021 0.31935 0.0
H1683 H 0.58211 0.01004 0.63393 0.0
H1684 H 0.61321 1.00675 0.5925 0.0
H1685 H 0.58683 0.01242 0.44529 0.0
H1686 H 0.5562 0.01621 0.48623 0.0
H1687 H 0.61766 0.03204 0.44424 0.0
H1688 H 0.60127 0.96803 0.49612 0.0
H1689 H 0.59325 0.94216 0.55599 0.0
H1690 H 0.64424 0.95312 0.63962 0.0
H1691 H 0.65261 0.97905 0.58015 0.0
C1692 C 0.68829 0.97623 0.33951 0.0
C1693 C 0.70255 0.98996 0.3307 0.0
C1694 C 0.67311 0.9799 0.37236 0.0
C1695 C 0.67161 0.99743 0.39734 0.0
C1696 C 0.68598 0.01109 0.3895 0.0
C1697 C 0.70121 1.00744 0.35637 0.0
C1698 C 0.65461 1.00144 0.42983 0.0
C1699 C 0.64943 0.98848 0.46833 0.0
C1700 C 0.64295 0.01739 0.42146 0.0
C1701 C 0.64679 0.03111 0.37979 0.0
C1702 C 0.64933 0.05046 0.39084 0.0
C1703 C 0.65298 0.06342 0.3516 0.0
C1704 C 0.65401 0.0572 0.30112 0.0
C1705 C 0.65131 0.03802 0.28975 0.0
C1706 C 0.64763 0.025 0.32884 0.0
C1707 C 0.58304 0.01067 0.59277 0.0
C1708 C 0.56662 0.01321 0.56346 0.0
C1709 C 0.6008 0.00868 0.56903 0.0
C1710 C 0.60248 0.00916 0.51548 0.0
C1711 C 0.58607 0.012 0.48652 0.0
C1712 C 0.56846 0.01401 0.51009 0.0
C1713 C 0.62107 1.00661 0.48878 0.0
C1714 C 0.62658 0.01989 0.45139 0.0
C1715 C 0.63278 0.99072 0.49737 0.0
C1716 C 0.62749 0.97555 0.53397 0.0
C1717 C 0.6107 0.96501 0.52751 0.0
C1718 C 0.60613 0.95029 0.56122 0.0
C1719 C 0.61825 0.94597 0.60145 0.0
C1720 C 0.63491 0.95644 0.60829 0.0
C1721 C 0.6396 0.97112 0.57456 0.0
H1722 H 0.61471 0.93453 0.62741 0.0
H1723 H 0.65686 0.06726 0.27081 0.0
H1724 H 0.56001 0.71386 0.38519 0.0
H1725 H 0.55421 0.68419 0.43074 0.0
H1726 H 0.50591 0.6727 0.33576 0.0
H1727 H 0.51211 0.70195 0.28791 0.0
H1728 H 0.50054 0.66497 0.44537 0.0
H1729 H 0.54287 0.65061 0.30679 0.0
H1730 H 0.5715 0.65499 0.25403 0.0
H1731 H 0.60644 0.64451 0.38442 0.0
H1732 H 0.57799 0.64038 0.43818 0.0
H1733 H 0.48821 0.56755 0.50651 0.0
H1734 H 0.49238 0.59771 0.46154 0.0
H1735 H 0.54762 0.6045 0.52881 0.0
H1736 H 0.54345 0.5742 0.57365 0.0
H1737 H 0.54924 0.61488 0.43246 0.0
H1738 H 0.50842 0.62943 0.57186 0.0
H1739 H 0.48058 0.62572 0.62795 0.0
H1740 H 0.44379 0.63681 0.5017 0.0
H1741 H 0.47143 0.6403 0.44463 0.0
C1742 C 0.54818 0.70507 0.37348 0.0
C1743 C 0.53674 0.71039 0.33194 0.0
C1744 C 0.54483 0.6881 0.39998 0.0
C1745 C 0.52976 0.67607 0.38639 0.0
C1746 C 0.51765 0.68174 0.34695 0.0
C1747 C 0.52117 0.69861 0.31979 0.0
C1748 C 0.52722 0.65727 0.41202 0.0
C1749 C 0.51104 0.65391 0.44199 0.0
C1750 C 0.54117 0.643 0.4089 0.0
C1751 C 0.5583 0.64541 0.37663 0.0
C1752 C 0.55666 0.64943 0.32433 0.0
C1753 C 0.57285 0.65183 0.29422 0.0
C1754 C 0.59078 0.65008 0.31589 0.0
C1755 C 0.59255 0.64589 0.36771 0.0
C1756 C 0.57639 0.64351 0.39801 0.0
C1757 C 0.50124 0.57548 0.51176 0.0
C1758 C 0.51557 0.5684 0.54335 0.0
C1759 C 0.5036 0.59279 0.4861 0.0
C1760 C 0.52023 0.60365 0.49209 0.0
C1761 C 0.53465 0.59647 0.52334 0.0
C1762 C 0.5323 0.5791 0.54887 0.0
C1763 C 0.52251 0.62248 0.46604 0.0
C1764 C 0.53868 0.62588 0.43595 0.0
C1765 C 0.50865 0.63688 0.46962 0.0
C1766 C 0.49199 0.63494 0.50386 0.0
C1767 C 0.49439 0.63094 0.55597 0.0
C1768 C 0.47865 0.62889 0.58795 0.0
C1769 C 0.46043 0.63098 0.56838 0.0
C1770 C 0.45792 0.63517 0.51679 0.0
C1771 C 0.47361 0.6372 0.48461 0.0
H1772 H 0.44826 0.62939 0.5932 0.0
H1773 H 0.60331 0.65194 0.29251 0.0
H1774 H 0.83357 0.56574 0.29592 0.0
H1775 H 0.86327 0.56261 0.34152 0.0
H1776 H 0.84016 0.51545 0.4267 0.0
H1777 H 0.81013 0.51848 0.38061 0.0
H1778 H 0.87295 0.56619 0.43684 0.0
H1779 H 0.87738 0.48522 0.4576 0.0
H1780 H 0.86573 0.45607 0.41579 0.0
H1781 H 0.86177 0.48578 0.27334 0.0
H1782 H 0.87366 0.51502 0.31415 0.0
H1783 H 0.95296 0.54593 0.59079 0.0
H1784 H 0.92164 0.54883 0.55278 0.0
H1785 H 0.94121 0.51895 0.41936 0.0
H1786 H 0.97212 0.51476 0.45962 0.0
H1787 H 0.90908 0.50626 0.43702 0.0
H1788 H 0.92914 0.57327 0.42442 0.0
H1789 H 0.94046 0.60423 0.4569 0.0
H1790 H 0.89739 0.60335 0.57244 0.0
H1791 H 0.88529 0.57285 0.53929 0.0
C1792 C 0.83459 0.55484 0.32485 0.0
C1793 C 0.81926 0.54247 0.33473 0.0
C1794 C 0.85172 0.55301 0.35086 0.0
C1795 C 0.85415 0.53873 0.38752 0.0
C1796 C 0.83883 0.52643 0.39809 0.0
C1797 C 0.82162 0.52819 0.37173 0.0
C1798 C 0.87284 0.5369 0.41381 0.0
C1799 C 0.8808 0.55303 0.43698 0.0
C1800 C 0.88327 0.51982 0.41414 0.0
C1801 C 0.87617 0.50235 0.3891 0.0
C1802 C 0.87406 0.48551 0.41734 0.0
C1803 C 0.86742 0.46898 0.39381 0.0
C1804 C 0.86294 0.46909 0.34199 0.0
C1805 C 0.86517 0.48573 0.31353 0.0
C1806 C 0.87183 0.50229 0.33685 0.0
C1807 C 0.95045 0.53983 0.55354 0.0
C1808 C 0.96482 0.52978 0.52875 0.0
C1809 C 0.9326 0.54183 0.53119 0.0
C1810 C 0.92881 0.53433 0.48258 0.0
C1811 C 0.94351 0.52481 0.45697 0.0
C1812 C 0.96129 0.52256 0.47978 0.0
C1813 C 0.90945 0.53569 0.45933 0.0
C1814 C 0.90126 0.51942 0.43711 0.0
C1815 C 0.89887 0.55271 0.45922 0.0
C1816 C 0.90646 0.57074 0.47979 0.0
C1817 C 0.92217 0.57966 0.4569 0.0
C1818 C 0.92869 0.59713 0.47532 0.0
C1819 C 0.91986 0.60559 0.51713 0.0
C1820 C 0.90428 0.59675 0.54019 0.0
C1821 C 0.89747 0.57948 0.52134 0.0
H1822 H 0.92501 0.61906 0.53142 0.0
H1823 H 0.85779 0.45628 0.32385 0.0
loop_
_geom_bond_atom_site_label_1
_geom_bond_atom_site_label_2
_geom_bond_distance
_geom_bond_site_symmetry_2
_ccdc_geom_bond_type
C0 C1 1.384 . S
C0 H13 0.947 . S
C0 C35 1.382 . S
C1 C0 1.384 . S
C1 C2 1.378 . S
C2 C1 1.378 . S
C2 C3 1.378 . S
C2 H14 0.952 . S
C3 C2 1.378 . S
C3 H15 0.950 . S
C3 C34 1.383 . S
H4 C23 0.947 . S
H5 C24 0.946 . S
H6 C26 0.953 . S
H7 C27 0.945 . S
H8 C29 0.952 . S
H9 C30 0.949 1_556 S
H10 C32 0.950 . S
H11 C33 0.948 . S
H12 C35 0.951 . S
H13 C0 0.947 . S
H14 C2 0.952 . S
H15 C3 0.950 . S
N16 C19 1.382 . S
N16 C21 1.363 . S
N17 C19 1.371 . S
N17 C20 1.372 . S
N18 C20 1.361 . S
N18 C21 1.377 . S
C19 N16 1.382 . S
C19 N17 1.371 . S
C19 C22 1.480 . S
C20 N17 1.372 . S
C20 N18 1.361 . S
C20 C28 1.457 . S
C21 N16 1.363 . S
C21 N18 1.377 . S
C21 C34 1.479 . S
C22 C19 1.480 . S
C22 C23 1.383 . S
C22 C27 1.385 . S
C23 H4 0.947 . S
C23 C22 1.383 . S
C23 C24 1.388 . S
C24 H5 0.946 . S
C24 C23 1.388 . S
C24 C25 1.384 . S
C25 C24 1.384 . S
C25 C26 1.377 . S
C26 H6 0.953 . S
C26 C25 1.377 . S
C26 C27 1.369 . S
C27 H7 0.945 . S
C27 C22 1.385 . S
C27 C26 1.369 . S
C28 C20 1.457 . S
C28 C29 1.372 . S
C28 C33 1.364 . S
C29 H8 0.952 . S
C29 C28 1.372 . S
C29 C30 1.389 . S
C30 H9 0.949 1_554 S
C30 C29 1.389 . S
C30 C31 1.387 . S
C31 C30 1.387 . S
C31 C32 1.372 . S
C32 H10 0.950 . S
C32 C31 1.372 . S
C32 C33 1.379 . S
C33 H11 0.948 . S
C33 C28 1.364 . S
C33 C32 1.379 . S
C34 C3 1.383 . S
C34 C21 1.479 . S
C34 C35 1.398 . S
C35 C0 1.382 . S
C35 H12 0.951 . S
C35 C34 1.398 . S
C36 C37 1.384 . S
C36 H49 0.947 . S
C36 C71 1.382 . S
C37 C36 1.384 . S
C37 C38 1.378 . S
C38 C37 1.378 . S
C38 C39 1.378 . S
C38 H50 0.952 . S
C39 C38 1.378 . S
C39 H51 0.950 . S
C39 C70 1.383 . S
H40 C59 0.947 . S
H41 C60 0.946 . S
H42 C62 0.953 . S
H43 C63 0.945 . S
H44 C65 0.952 . S
H45 C66 0.949 1_556 S
H46 C68 0.950 . S
H47 C69 0.948 . S
H48 C71 0.951 . S
H49 C36 0.947 . S
H50 C38 0.952 . S
H51 C39 0.950 . S
N52 C55 1.382 . S
N52 C57 1.363 . S
N53 C55 1.371 . S
N53 C56 1.372 . S
N54 C56 1.361 . S
N54 C57 1.377 . S
C55 N52 1.382 . S
C55 N53 1.371 . S
C55 C58 1.480 . S
C56 N53 1.372 . S
C56 N54 1.361 . S
C56 C64 1.457 . S
C57 N52 1.363 . S
C57 N54 1.377 . S
C57 C70 1.479 . S
C58 C55 1.480 . S
C58 C59 1.383 . S
C58 C63 1.385 . S
C59 H40 0.947 . S
C59 C58 1.383 . S
C59 C60 1.388 . S
C60 H41 0.946 . S
C60 C59 1.388 . S
C60 C61 1.384 . S
C61 C60 1.384 . S
C61 C62 1.377 . S
C62 H42 0.953 . S
C62 C61 1.377 . S
C62 C63 1.369 . S
C63 H43 0.945 . S
C63 C58 1.385 . S
C63 C62 1.369 . S
C64 C56 1.457 . S
C64 C65 1.372 . S
C64 C69 1.364 . S
C65 H44 0.952 . S
C65 C64 1.372 . S
C65 C66 1.389 . S
C66 H45 0.949 1_554 S
C66 C65 1.389 . S
C66 C67 1.387 . S
C67 C66 1.387 . S
C67 C68 1.372 . S
C68 H46 0.950 . S
C68 C67 1.372 . S
C68 C69 1.379 . S
C69 H47 0.948 . S
C69 C64 1.364 . S
C69 C68 1.379 . S
C70 C39 1.383 . S
C70 C57 1.479 . S
C70 C71 1.398 . S
C71 C36 1.382 . S
C71 H48 0.951 . S
C71 C70 1.398 . S
C72 C73 1.384 . S
C72 H85 0.947 . S
C72 C107 1.382 . S
C73 C72 1.384 . S
C73 C74 1.378 . S
C74 C73 1.378 . S
C74 C75 1.378 . S
C74 H86 0.952 . S
C75 C74 1.378 . S
C75 H87 0.950 . S
C75 C106 1.383 . S
H76 C95 0.947 . S
H77 C96 0.946 . S
H78 C98 0.953 . S
H79 C99 0.945 . S
H80 C101 0.952 . S
H81 C102 0.949 1_556 S
H82 C104 0.950 . S
H83 C105 0.948 . S
H84 C107 0.951 . S
H85 C72 0.947 . S
H86 C74 0.952 . S
H87 C75 0.950 . S
N88 C91 1.382 . S
N88 C93 1.363 . S
N89 C91 1.371 . S
N89 C92 1.372 . S
N90 C92 1.361 . S
N90 C93 1.377 . S
C91 N88 1.382 . S
C91 N89 1.371 . S
C91 C94 1.480 . S
C92 N89 1.372 . S
C92 N90 1.361 . S
C92 C100 1.457 . S
C93 N88 1.363 . S
C93 N90 1.377 . S
C93 C106 1.479 . S
C94 C91 1.480 . S
C94 C95 1.383 . S
C94 C99 1.385 . S
C95 H76 0.947 . S
C95 C94 1.383 . S
C95 C96 1.388 . S
C96 H77 0.946 . S
C96 C95 1.388 . S
C96 C97 1.384 . S
C97 C96 1.384 . S
C97 C98 1.377 . S
C98 H78 0.953 . S
C98 C97 1.377 . S
C98 C99 1.369 . S
C99 H79 0.945 . S
C99 C94 1.385 . S
C99 C98 1.369 . S
C100 C92 1.457 . S
C100 C101 1.372 . S
C100 C105 1.364 . S
C101 H80 0.952 . S
C101 C100 1.372 . S
C101 C102 1.389 . S
C102 H81 0.949 1_554 S
C102 C101 1.389 . S
C102 C103 1.387 . S
C103 C102 1.387 . S
C103 C104 1.372 . S
C104 H82 0.950 . S
C104 C103 1.372 . S
C104 C105 1.379 . S
C105 H83 0.948 . S
C105 C100 1.364 . S
C105 C104 1.379 . S
C106 C75 1.383 . S
C106 C93 1.479 . S
C106 C107 1.398 . S
C107 C72 1.382 . S
C107 H84 0.951 . S
C107 C106 1.398 . S
C108 C109 1.384 . S
C108 H121 0.947 . S
C108 C143 1.382 . S
C109 C108 1.384 . S
C109 C110 1.378 . S
C110 C109 1.378 . S
C110 C111 1.378 . S
C110 H122 0.952 1_554 S
C111 C110 1.378 . S
C111 H123 0.950 . S
C111 C142 1.383 . S
H112 C131 0.947 . S
H113 C132 0.946 . S
H114 C134 0.953 . S
H115 C135 0.945 . S
H116 C137 0.952 . S
H117 C138 0.949 . S
H118 C140 0.950 . S
H119 C141 0.948 . S
H120 C143 0.951 . S
H121 C108 0.947 . S
H122 C110 0.952 1_556 S
H123 C111 0.950 . S
N124 C127 1.382 . S
N124 C129 1.363 . S
N125 C127 1.371 . S
N125 C128 1.372 . S
N126 C128 1.361 . S
N126 C129 1.377 . S
C127 N124 1.382 . S
C127 N125 1.371 . S
C127 C130 1.480 . S
C128 N125 1.372 . S
C128 N126 1.361 . S
C128 C136 1.457 . S
C129 N124 1.363 . S
C129 N126 1.377 . S
C129 C142 1.479 . S
C130 C127 1.480 . S
C130 C131 1.383 . S
C130 C135 1.385 . S
C131 H112 0.947 . S
C131 C130 1.383 . S
C131 C132 1.388 . S
C132 H113 0.946 . S
C132 C131 1.388 . S
C132 C133 1.384 . S
C133 C132 1.384 . S
C133 C134 1.377 . S
C134 H114 0.953 . S
C134 C133 1.377 . S
C134 C135 1.369 . S
C135 H115 0.945 . S
C135 C130 1.385 . S
C135 C134 1.369 . S
C136 C128 1.457 . S
C136 C137 1.372 . S
C136 C141 1.364 . S
C137 H116 0.952 . S
C137 C136 1.372 . S
C137 C138 1.389 . S
C138 H117 0.949 . S
C138 C137 1.389 . S
C138 C139 1.387 . S
C139 C138 1.387 . S
C139 C140 1.372 . S
C140 H118 0.950 . S
C140 C139 1.372 . S
C140 C141 1.379 . S
C141 H119 0.948 . S
C141 C136 1.364 . S
C141 C140 1.379 . S
C142 C111 1.383 . S
C142 C129 1.479 . S
C142 C143 1.398 . S
C143 C108 1.382 . S
C143 H120 0.951 . S
C143 C142 1.398 . S
C144 C145 1.384 . S
C144 H157 0.947 . S
C144 C179 1.382 . S
C145 C144 1.384 . S
C145 C146 1.378 . S
C146 C145 1.378 . S
C146 C147 1.378 . S
C146 H158 0.952 . S
C147 C146 1.378 . S
C147 H159 0.950 . S
C147 C178 1.383 . S
H148 C167 0.947 1_556 S
H149 C168 0.946 . S
H150 C170 0.953 . S
H151 C171 0.945 . S
H152 C173 0.952 . S
H153 C174 0.949 . S
H154 C176 0.950 . S
H155 C177 0.948 . S
H156 C179 0.951 . S
H157 C144 0.947 . S
H158 C146 0.952 . S
H159 C147 0.950 . S
N160 C163 1.382 1_556 S
N160 C165 1.363 . S
N161 C163 1.371 . S
N161 C164 1.372 . S
N162 C164 1.361 . S
N162 C165 1.377 1_554 S
C163 N160 1.382 1_554 S
C163 N161 1.371 . S
C163 C166 1.480 . S
C164 N161 1.372 . S
C164 N162 1.361 . S
C164 C172 1.457 . S
C165 N160 1.363 . S
C165 N162 1.377 1_556 S
C165 C178 1.479 . S
C166 C163 1.480 . S
C166 C167 1.383 . S
C166 C171 1.385 . S
C167 H148 0.947 1_554 S
C167 C166 1.383 . S
C167 C168 1.388 . S
C168 H149 0.946 . S
C168 C167 1.388 . S
C168 C169 1.384 . S
C169 C168 1.384 . S
C169 C170 1.377 . S
C170 H150 0.953 . S
C170 C169 1.377 . S
C170 C171 1.369 . S
C171 H151 0.945 . S
C171 C166 1.385 . S
C171 C170 1.369 . S
C172 C164 1.457 . S
C172 C173 1.372 . S
C172 C177 1.364 . S
C173 H152 0.952 . S
C173 C172 1.372 . S
C173 C174 1.389 . S
C174 H153 0.949 . S
C174 C173 1.389 . S
C174 C175 1.387 . S
C175 C174 1.387 . S
C175 C176 1.372 . S
C176 H154 0.950 . S
C176 C175 1.372 . S
C176 C177 1.379 . S
C177 H155 0.948 . S
C177 C172 1.364 . S
C177 C176 1.379 . S
C178 C147 1.383 . S
C178 C165 1.479 . S
C178 C179 1.398 . S
C179 C144 1.382 . S
C179 H156 0.951 . S
C179 C178 1.398 . S
C180 C181 1.384 . S
C180 H193 0.947 . S
C180 C215 1.382 . S
C181 C180 1.384 . S
C181 C182 1.378 . S
C182 C181 1.378 . S
C182 C183 1.378 . S
C182 H194 0.952 . S
C183 C182 1.378 . S
C183 H195 0.950 . S
C183 C214 1.383 . S
H184 C203 0.947 1_556 S
H185 C204 0.946 . S
H186 C206 0.953 . S
H187 C207 0.945 . S
H188 C209 0.952 . S
H189 C210 0.949 . S
H190 C212 0.950 . S
H191 C213 0.948 . S
H192 C215 0.951 . S
H193 C180 0.947 . S
H194 C182 0.952 . S
H195 C183 0.950 . S
N196 C199 1.382 1_556 S
N196 C201 1.363 . S
N197 C199 1.371 . S
N197 C200 1.372 . S
N198 C200 1.361 . S
N198 C201 1.377 1_554 S
C199 N196 1.382 1_554 S
C199 N197 1.371 . S
C199 C202 1.480 . S
C200 N197 1.372 . S
C200 N198 1.361 . S
C200 C208 1.457 . S
C201 N196 1.363 . S
C201 N198 1.377 1_556 S
C201 C214 1.479 . S
C202 C199 1.480 . S
C202 C203 1.383 . S
C202 C207 1.385 . S
C203 H184 0.947 1_554 S
C203 C202 1.383 . S
C203 C204 1.388 . S
C204 H185 0.946 . S
C204 C203 1.388 . S
C204 C205 1.384 . S
C205 C204 1.384 . S
C205 C206 1.377 . S
C206 H186 0.953 . S
C206 C205 1.377 . S
C206 C207 1.369 . S
C207 H187 0.945 . S
C207 C202 1.385 . S
C207 C206 1.369 . S
C208 C200 1.457 . S
C208 C209 1.372 . S
C208 C213 1.364 . S
C209 H188 0.952 . S
C209 C208 1.372 . S
C209 C210 1.389 . S
C210 H189 0.949 . S
C210 C209 1.389 . S
C210 C211 1.387 . S
C211 C210 1.387 . S
C211 C212 1.372 . S
C212 H190 0.950 . S
C212 C211 1.372 . S
C212 C213 1.379 . S
C213 H191 0.948 . S
C213 C208 1.364 . S
C213 C212 1.379 . S
C214 C183 1.383 . S
C214 C201 1.479 . S
C214 C215 1.398 . S
C215 C180 1.382 . S
C215 H192 0.951 . S
C215 C214 1.398 . S
C216 C217 1.384 . S
C216 H229 0.947 . S
C216 C251 1.382 . S
C217 C216 1.384 . S
C217 C218 1.378 . S
C218 C217 1.378 . S
C218 C219 1.378 . S
C218 H230 0.952 . S
C219 C218 1.378 . S
C219 H231 0.950 . S
C219 C250 1.383 . S
H220 C239 0.947 1_556 S
H221 C240 0.946 . S
H222 C242 0.953 . S
H223 C243 0.945 . S
H224 C245 0.952 . S
H225 C246 0.949 . S
H226 C248 0.950 . S
H227 C249 0.948 . S
H228 C251 0.951 . S
H229 C216 0.947 . S
H230 C218 0.952 . S
H231 C219 0.950 . S
N232 C235 1.374 1_556 S
N232 C237 1.365 . S
N233 C235 1.371 . S
N233 C236 1.372 . S
N234 C236 1.361 . S
N234 C237 1.377 1_554 S
C235 N232 1.374 1_554 S
C235 N233 1.371 . S
C235 C238 1.480 . S
C236 N233 1.372 . S
C236 N234 1.361 . S
C236 C244 1.457 . S
C237 N232 1.365 . S
C237 N234 1.377 1_556 S
C237 C250 1.479 . S
C238 C235 1.480 . S
C238 C239 1.383 . S
C238 C243 1.385 . S
C239 H220 0.947 1_554 S
C239 C238 1.383 . S
C239 C240 1.388 . S
C240 H221 0.946 . S
C240 C239 1.388 . S
C240 C241 1.384 . S
C241 C240 1.384 . S
C241 C242 1.377 . S
C242 H222 0.953 . S
C242 C241 1.377 . S
C242 C243 1.369 . S
C243 H223 0.945 . S
C243 C238 1.385 . S
C243 C242 1.369 . S
C244 C236 1.457 . S
C244 C245 1.372 . S
C244 C249 1.364 . S
C245 H224 0.952 . S
C245 C244 1.372 . S
C245 C246 1.389 . S
C246 H225 0.949 . S
C246 C245 1.389 . S
C246 C247 1.387 . S
C247 C246 1.387 . S
C247 C248 1.372 . S
C248 H226 0.950 . S
C248 C247 1.372 . S
C248 C249 1.379 . S
C249 H227 0.948 . S
C249 C244 1.364 . S
C249 C248 1.379 . S
C250 C219 1.383 . S
C250 C237 1.479 . S
C250 C251 1.398 . S
C251 C216 1.382 . S
C251 H228 0.951 . S
C251 C250 1.398 . S
C252 C253 1.384 . S
C252 H265 0.947 . S
C252 C287 1.382 . S
C253 C252 1.384 . S
C253 C254 1.378 . S
C254 C253 1.378 . S
C254 C255 1.378 . S
C254 H266 0.952 . S
C255 C254 1.378 . S
C255 H267 0.950 . S
C255 C286 1.383 . S
H256 C275 0.947 . S
H257 C276 0.946 . S
H258 C278 0.953 . S
H259 C279 0.945 1_556 S
H260 C281 0.952 . S
H261 C282 0.949 . S
H262 C284 0.950 . S
H263 C285 0.948 . S
H264 C287 0.951 . S
H265 C252 0.947 . S
H266 C254 0.952 . S
H267 C255 0.950 . S
N268 C271 1.382 . S
N268 C273 1.363 . S
N269 C271 1.371 1_556 S
N269 C272 1.372 . S
N270 C272 1.361 1_554 S
N270 C273 1.377 . S
C271 N268 1.382 . S
C271 N269 1.371 1_554 S
C271 C274 1.480 . S
C272 N269 1.372 . S
C272 N270 1.361 1_556 S
C272 C280 1.457 . S
C273 N268 1.363 . S
C273 N270 1.377 . S
C273 C286 1.479 . S
C274 C271 1.480 . S
C274 C275 1.383 . S
C274 C279 1.385 . S
C275 H256 0.947 . S
C275 C274 1.383 . S
C275 C276 1.388 . S
C276 H257 0.946 . S
C276 C275 1.388 . S
C276 C277 1.384 . S
C277 C276 1.384 . S
C277 C278 1.377 . S
C278 H258 0.953 . S
C278 C277 1.377 . S
C278 C279 1.369 . S
C279 H259 0.945 1_554 S
C279 C274 1.385 . S
C279 C278 1.369 . S
C280 C272 1.457 . S
C280 C281 1.372 . S
C280 C285 1.364 . S
C281 H260 0.952 . S
C281 C280 1.372 . S
C281 C282 1.389 . S
C282 H261 0.949 . S
C282 C281 1.389 . S
C282 C283 1.387 . S
C283 C282 1.387 . S
C283 C284 1.372 . S
C284 H262 0.950 . S
C284 C283 1.372 . S
C284 C285 1.379 . S
C285 H263 0.948 . S
C285 C280 1.364 . S
C285 C284 1.379 . S
C286 C255 1.383 . S
C286 C273 1.479 . S
C286 C287 1.398 . S
C287 C252 1.382 . S
C287 H264 0.951 . S
C287 C286 1.398 . S
Tb288 N317 2.617 . S
Tb288 N323 2.572 . S
Tb288 O332 2.453 1_655 S
Tb288 O333 2.387 1_545 S
Tb288 O335 2.428 . S
Tb288 O336 2.308 1_655 S
Tb288 O340 2.349 1_655 S
Tb288 O343 2.393 . S
Tb288 C352 2.802 . S
C289 N290 1.379 1_545 S
C289 C292 1.416 . S
C289 C296 1.424 . S
N290 C289 1.379 1_565 S
N290 C293 1.334 . S
N290 Tb299 2.617 . S
C291 C293 1.390 1_545 S
C291 C294 1.339 . S
C291 H311 0.930 . S
C292 C289 1.416 . S
C292 C294 1.416 . S
C292 C298 1.448 . S
C293 N290 1.334 . S
C293 C291 1.390 1_565 S
C293 H304 0.930 . S
C294 C291 1.339 . S
C294 C292 1.416 . S
C294 H315 0.930 . S
C295 C296 1.413 . S
C295 C297 1.427 . S
C295 C301 1.416 . S
C296 C289 1.424 . S
C296 C295 1.413 . S
C296 N300 1.361 . S
C297 C295 1.427 . S
C297 C298 1.328 . S
C297 H312 0.929 . S
C298 C292 1.448 . S
C298 C297 1.328 . S
C298 H313 0.930 . S
Tb299 N290 2.617 . S
Tb299 N300 2.572 1_565 S
Tb299 O334 2.349 . S
Tb299 O337 2.393 . S
Tb299 O338 2.465 . S
Tb299 O339 2.387 1_565 S
Tb299 O341 2.428 . S
Tb299 O342 2.302 1_465 S
Tb299 C363 2.802 . S
N300 C296 1.361 . S
N300 Tb299 2.572 1_545 S
N300 C302 1.340 . S
C301 C295 1.416 . S
C301 C303 1.332 . S
C301 H309 0.931 . S
C302 N300 1.340 . S
C302 C303 1.407 . S
C302 H308 0.889 1_445 S
C303 C301 1.332 . S
C303 C302 1.407 . S
C303 H305 0.929 . S
H304 C293 0.930 . S
H305 C303 0.929 . S
H306 C321 0.930 . S
H307 C328 0.903 1_455 S
H308 C302 0.889 1_665 S
H309 C301 0.931 . S
H310 C324 0.931 . S
H311 C291 0.930 . S
H312 C297 0.929 . S
H313 C298 0.930 . S
H314 C319 0.930 . S
H315 C294 0.930 . S
H316 C327 0.931 . S
N317 Tb288 2.617 . S
N317 C318 1.379 . S
N317 C321 1.334 . S
C318 N317 1.379 . S
C318 C320 1.416 1_545 S
C318 C326 1.424 . S
C319 H314 0.930 . S
C319 C321 1.390 . S
C319 C322 1.335 1_545 S
C320 C318 1.416 1_565 S
C320 C322 1.417 . S
C320 C353 1.448 . S
C321 H306 0.930 . S
C321 N317 1.334 . S
C321 C319 1.390 . S
C322 C319 1.335 1_565 S
C322 C320 1.417 . S
C322 H329 0.933 . S
N323 Tb288 2.572 . S
N323 C324 1.338 1_655 S
N323 C326 1.361 . S
C324 H310 0.931 . S
C324 N323 1.338 1_455 S
C324 C328 1.384 1_445 S
C325 C326 1.413 1_565 S
C325 C327 1.416 . S
C325 C354 1.427 . S
C326 C318 1.424 . S
C326 N323 1.361 . S
C326 C325 1.413 1_545 S
C327 H316 0.931 . S
C327 C325 1.416 . S
C327 C328 1.386 . S
C328 H307 0.903 1_655 S
C328 C324 1.384 1_665 S
C328 C327 1.386 . S
H329 C322 0.933 . S
H330 C353 0.930 . S
H331 C354 0.929 . S
O332 Tb288 2.453 1_455 S
O332 C352 1.236 1_455 S
O333 Tb288 2.387 1_565 S
O333 C344 1.264 . S
O334 Tb299 2.349 . S
O334 C344 1.243 1_455 S
O335 Tb288 2.428 . S
O335 C352 1.256 . S
O336 Tb288 2.308 1_455 S
O336 C351 1.266 . S
O337 Tb299 2.393 . S
O337 C351 1.248 1_565 S
O338 Tb299 2.465 . S
O338 C363 1.264 . S
O339 Tb299 2.387 1_545 S
O339 C355 1.264 . S
O340 Tb288 2.349 1_455 S
O340 C355 1.243 . S
O341 Tb299 2.428 . S
O341 C363 1.256 . S
O342 Tb299 2.302 1_645 S
O342 C362 1.271 . S
O343 Tb288 2.393 . S
O343 C362 1.248 . S
C344 O333 1.264 . S
C344 O334 1.243 1_655 S
C345 C348 1.399 . S
C345 C350 1.427 . S
C345 C352 1.496 . S
C346 C347 1.399 . S
C346 C350 1.397 . S
C347 C346 1.399 . S
C347 C349 1.380 . S
C347 H364 0.929 . S
C348 C345 1.399 . S
C348 C349 1.392 . S
C348 H365 0.929 . S
C349 C347 1.380 . S
C349 C348 1.392 . S
C349 H366 0.929 . S
C350 C345 1.427 . S
C350 C346 1.397 . S
C350 H367 0.881 1_655 S
C351 O336 1.266 . S
C351 O337 1.248 1_545 S
C352 Tb288 2.802 . S
C352 O332 1.236 1_655 S
C352 O335 1.256 . S
C352 C345 1.496 . S
C353 C320 1.448 . S
C353 H330 0.930 . S
C353 C354 1.328 . S
C354 C325 1.427 . S
C354 H331 0.929 . S
C354 C353 1.328 . S
C355 O339 1.264 . S
C355 O340 1.243 . S
C356 C359 1.399 . S
C356 C360 1.383 . S
C356 C363 1.496 . S
C357 C358 1.399 . S
C357 C360 1.389 . S
C358 C357 1.399 . S
C358 C361 1.380 . S
C358 H368 0.929 . S
C359 C356 1.399 . S
C359 C361 1.392 . S
C359 H369 0.929 . S
C360 C356 1.383 . S
C360 C357 1.389 . S
C360 H370 0.973 . S
C361 C358 1.380 . S
C361 C359 1.392 . S
C361 H371 0.929 . S
C362 O342 1.271 . S
C362 O343 1.248 . S
C363 Tb299 2.802 . S
C363 O338 1.264 . S
C363 O341 1.256 . S
C363 C356 1.496 . S
H364 C347 0.929 . S
H365 C348 0.929 . S
H366 C349 0.929 . S
H367 C350 0.881 1_455 S
H368 C358 0.929 . S
H369 C359 0.929 . S
H370 C360 0.973 . S
H371 C361 0.929 . S
Tb372 N401 2.617 . S
Tb372 N407 2.572 . S
Tb372 O416 2.465 . S
Tb372 O417 2.387 . S
Tb372 O419 2.428 . S
Tb372 O420 2.308 . S
Tb372 O424 2.349 1_545 S
Tb372 O427 2.393 . S
Tb372 C436 2.802 . S
C373 N374 1.379 . S
C373 C376 1.416 . S
C373 C380 1.424 . S
N374 C373 1.379 . S
N374 C377 1.334 . S
N374 Tb383 2.617 . S
C375 C377 1.390 . S
C375 C378 1.339 . S
C375 H395 0.930 . S
C376 C373 1.416 . S
C376 C378 1.416 . S
C376 C382 1.448 . S
C377 N374 1.334 . S
C377 C375 1.390 . S
C377 H388 0.930 . S
C378 C375 1.339 . S
C378 C376 1.416 . S
C378 H399 0.930 . S
C379 C380 1.413 . S
C379 C381 1.427 . S
C379 C385 1.416 . S
C380 C373 1.424 . S
C380 C379 1.413 . S
C380 N384 1.361 . S
C381 C379 1.427 . S
C381 C382 1.328 . S
C381 H396 0.929 . S
C382 C376 1.448 . S
C382 C381 1.328 . S
C382 H397 0.930 . S
Tb383 N374 2.617 . S
Tb383 N384 2.572 . S
Tb383 O418 2.349 1_565 S
Tb383 O421 2.393 . S
Tb383 O422 2.465 . S
Tb383 O423 2.387 . S
Tb383 O425 2.428 . S
Tb383 O426 2.308 1_565 S
Tb383 C447 2.802 . S
N384 C380 1.361 . S
N384 Tb383 2.572 . S
N384 C386 1.340 . S
C385 C379 1.416 . S
C385 C387 1.332 . S
C385 H393 0.931 . S
C386 N384 1.340 . S
C386 C387 1.407 . S
C386 H392 0.930 . S
C387 C385 1.332 . S
C387 C386 1.407 . S
C387 H389 0.929 . S
H388 C377 0.930 . S
H389 C387 0.929 . S
H390 C405 0.930 . S
H391 C412 0.929 . S
H392 C386 0.930 . S
H393 C385 0.931 . S
H394 C408 0.930 . S
H395 C375 0.930 . S
H396 C381 0.929 . S
H397 C382 0.930 . S
H398 C403 0.930 . S
H399 C378 0.930 . S
H400 C411 0.931 . S
N401 Tb372 2.617 . S
N401 C402 1.379 . S
N401 C405 1.334 . S
C402 N401 1.379 . S
C402 C404 1.416 . S
C402 C410 1.424 . S
C403 H398 0.930 . S
C403 C405 1.390 . S
C403 C406 1.339 . S
C404 C402 1.416 . S
C404 C406 1.416 . S
C404 C437 1.448 . S
C405 H390 0.930 . S
C405 N401 1.334 . S
C405 C403 1.390 . S
C406 C403 1.339 . S
C406 C404 1.416 . S
C406 H413 0.930 . S
N407 Tb372 2.572 . S
N407 C408 1.340 . S
N407 C410 1.361 . S
C408 H394 0.930 . S
C408 N407 1.340 . S
C408 C412 1.407 . S
C409 C410 1.413 . S
C409 C411 1.416 . S
C409 C438 1.427 . S
C410 C402 1.424 . S
C410 N407 1.361 . S
C410 C409 1.413 . S
C411 H400 0.931 . S
C411 C409 1.416 . S
C411 C412 1.332 . S
C412 H391 0.929 . S
C412 C408 1.407 . S
C412 C411 1.332 . S
H413 C406 0.930 . S
H414 C437 0.930 . S
H415 C438 0.929 . S
O416 Tb372 2.465 . S
O416 C436 1.264 . S
O417 Tb372 2.387 . S
O417 C428 1.264 . S
O418 Tb383 2.349 1_545 S
O418 C428 1.243 . S
O419 Tb372 2.428 . S
O419 C436 1.256 . S
O420 Tb372 2.308 . S
O420 C435 1.266 1_545 S
O421 Tb383 2.393 . S
O421 C435 1.248 . S
O422 Tb383 2.465 . S
O422 C447 1.264 . S
O423 Tb383 2.387 . S
O423 C439 1.264 . S
O424 Tb372 2.349 1_565 S
O424 C439 1.243 . S
O425 Tb383 2.428 . S
O425 C447 1.256 . S
O426 Tb383 2.308 1_545 S
O426 C446 1.266 . S
O427 Tb372 2.393 . S
O427 C446 1.248 . S
C428 O417 1.264 . S
C428 O418 1.243 . S
C429 C432 1.399 . S
C429 C434 1.383 . S
C429 C436 1.496 . S
C430 C431 1.399 . S
C430 C434 1.389 . S
C431 C430 1.399 . S
C431 C433 1.380 . S
C431 H448 0.929 . S
C432 C429 1.399 . S
C432 C433 1.392 . S
C432 H449 0.929 . S
C433 C431 1.380 . S
C433 C432 1.392 . S
C433 H450 0.929 . S
C434 C429 1.383 . S
C434 C430 1.389 . S
C434 H451 0.931 . S
C435 O420 1.266 1_565 S
C435 O421 1.248 . S
C436 Tb372 2.802 . S
C436 O416 1.264 . S
C436 O419 1.256 . S
C436 C429 1.496 . S
C437 C404 1.448 . S
C437 H414 0.930 . S
C437 C438 1.328 . S
C438 C409 1.427 . S
C438 H415 0.929 . S
C438 C437 1.328 . S
C439 O423 1.264 . S
C439 O424 1.243 . S
C440 C443 1.399 . S
C440 C444 1.383 1_565 S
C440 C447 1.496 . S
C441 C442 1.399 1_545 S
C441 C444 1.389 . S
C442 C441 1.399 1_565 S
C442 C445 1.380 . S
C442 H452 0.929 . S
C443 C440 1.399 . S
C443 C445 1.392 . S
C443 H453 0.929 . S
C444 C440 1.383 1_545 S
C444 C441 1.389 . S
C444 H454 0.931 . S
C445 C442 1.380 . S
C445 C443 1.392 . S
C445 H455 0.929 . S
C446 O426 1.266 . S
C446 O427 1.248 . S
C447 Tb383 2.802 . S
C447 O422 1.264 . S
C447 O425 1.256 . S
C447 C440 1.496 . S
H448 C431 0.929 . S
H449 C432 0.929 . S
H450 C433 0.929 . S
H451 C434 0.931 . S
H452 C442 0.929 . S
H453 C443 0.929 . S
H454 C444 0.931 . S
H455 C445 0.929 . S
Tb456 N485 2.617 . S
Tb456 N491 2.572 . S
Tb456 O500 2.465 . S
Tb456 O501 2.387 . S
Tb456 O503 2.428 . S
Tb456 O504 2.308 . S
Tb456 O508 2.349 . S
Tb456 O511 2.393 . S
Tb456 C520 2.802 . S
C457 N458 1.379 . S
C457 C460 1.416 . S
C457 C464 1.424 . S
N458 C457 1.379 . S
N458 C461 1.334 . S
N458 Tb467 2.617 . S
C459 C461 1.390 . S
C459 C462 1.339 . S
C459 H479 0.930 . S
C460 C457 1.416 . S
C460 C462 1.416 . S
C460 C466 1.448 . S
C461 N458 1.334 . S
C461 C459 1.390 . S
C461 H472 0.930 . S
C462 C459 1.339 . S
C462 C460 1.416 . S
C462 H483 0.930 . S
C463 C464 1.413 . S
C463 C465 1.427 . S
C463 C469 1.416 . S
C464 C457 1.424 . S
C464 C463 1.413 . S
C464 N468 1.361 . S
C465 C463 1.427 . S
C465 C466 1.328 . S
C465 H480 0.929 . S
C466 C460 1.448 . S
C466 C465 1.328 . S
C466 H481 0.930 . S
Tb467 N458 2.617 . S
Tb467 N468 2.572 . S
Tb467 O502 2.349 . S
Tb467 O505 2.393 . S
Tb467 O506 2.465 . S
Tb467 O507 2.387 . S
Tb467 O509 2.428 . S
Tb467 O510 2.308 . S
Tb467 C531 2.802 . S
N468 C464 1.361 . S
N468 Tb467 2.572 . S
N468 C470 1.340 . S
C469 C463 1.416 . S
C469 C471 1.332 . S
C469 H477 0.931 . S
C470 N468 1.340 . S
C470 C471 1.407 . S
C470 H476 0.930 . S
C471 C469 1.332 . S
C471 C470 1.407 . S
C471 H473 0.929 . S
H472 C461 0.930 . S
H473 C471 0.929 . S
H474 C489 0.930 . S
H475 C496 0.929 . S
H476 C470 0.930 . S
H477 C469 0.931 . S
H478 C492 0.930 . S
H479 C459 0.930 . S
H480 C465 0.929 . S
H481 C466 0.930 . S
H482 C487 0.930 . S
H483 C462 0.930 . S
H484 C495 0.931 . S
N485 Tb456 2.617 . S
N485 C486 1.379 . S
N485 C489 1.334 . S
C486 N485 1.379 . S
C486 C488 1.416 . S
C486 C494 1.424 . S
C487 H482 0.930 . S
C487 C489 1.390 . S
C487 C490 1.339 . S
C488 C486 1.416 . S
C488 C490 1.416 . S
C488 C521 1.448 . S
C489 H474 0.930 . S
C489 N485 1.334 . S
C489 C487 1.390 . S
C490 C487 1.339 . S
C490 C488 1.416 . S
C490 H497 0.930 . S
N491 Tb456 2.572 . S
N491 C492 1.340 . S
N491 C494 1.361 . S
C492 H478 0.930 . S
C492 N491 1.340 . S
C492 C496 1.407 . S
C493 C494 1.413 . S
C493 C495 1.416 . S
C493 C522 1.427 . S
C494 C486 1.424 . S
C494 N491 1.361 . S
C494 C493 1.413 . S
C495 H484 0.931 . S
C495 C493 1.416 . S
C495 C496 1.332 . S
C496 H475 0.929 . S
C496 C492 1.407 . S
C496 C495 1.332 . S
H497 C490 0.930 . S
H498 C521 0.930 . S
H499 C522 0.929 . S
O500 Tb456 2.465 . S
O500 C520 1.264 . S
O501 Tb456 2.387 . S
O501 C512 1.264 . S
O502 Tb467 2.349 . S
O502 C512 1.243 . S
O503 Tb456 2.428 . S
O503 C520 1.256 . S
O504 Tb456 2.308 . S
O504 C519 1.266 . S
O505 Tb467 2.393 . S
O505 C519 1.248 . S
O506 Tb467 2.465 . S
O506 C531 1.264 . S
O507 Tb467 2.387 . S
O507 C523 1.264 . S
O508 Tb456 2.349 . S
O508 C523 1.243 . S
O509 Tb467 2.428 . S
O509 C531 1.256 . S
O510 Tb467 2.308 . S
O510 C530 1.266 . S
O511 Tb456 2.393 . S
O511 C530 1.248 . S
C512 O501 1.264 . S
C512 O502 1.243 . S
C513 C516 1.399 . S
C513 C518 1.383 . S
C513 C520 1.496 . S
C514 C515 1.399 . S
C514 C518 1.389 . S
C515 C514 1.399 . S
C515 C517 1.380 . S
C515 H532 0.929 . S
C516 C513 1.399 . S
C516 C517 1.392 . S
C516 H533 0.929 . S
C517 C515 1.380 . S
C517 C516 1.392 . S
C517 H534 0.929 . S
C518 C513 1.383 . S
C518 C514 1.389 . S
C518 H535 0.931 . S
C519 O504 1.266 . S
C519 O505 1.248 . S
C520 Tb456 2.802 . S
C520 O500 1.264 . S
C520 O503 1.256 . S
C520 C513 1.496 . S
C521 C488 1.448 . S
C521 H498 0.930 . S
C521 C522 1.328 . S
C522 C493 1.427 . S
C522 H499 0.929 . S
C522 C521 1.328 . S
C523 O507 1.264 . S
C523 O508 1.243 . S
C524 C527 1.399 . S
C524 C528 1.383 . S
C524 C531 1.496 . S
C525 C526 1.399 . S
C525 C528 1.389 . S
C526 C525 1.399 . S
C526 C529 1.380 . S
C526 H536 0.929 . S
C527 C524 1.399 . S
C527 C529 1.392 . S
C527 H537 0.929 . S
C528 C524 1.383 . S
C528 C525 1.389 . S
C528 H538 0.931 . S
C529 C526 1.380 . S
C529 C527 1.392 . S
C529 H539 0.929 . S
C530 O510 1.266 . S
C530 O511 1.248 . S
C531 Tb467 2.802 . S
C531 O506 1.264 . S
C531 O509 1.256 . S
C531 C524 1.496 . S
H532 C515 0.929 . S
H533 C516 0.929 . S
H534 C517 0.929 . S
H535 C518 0.931 . S
H536 C526 0.929 . S
H537 C527 0.929 . S
H538 C528 0.931 . S
H539 C529 0.929 . S
Tb540 N569 2.617 . S
Tb540 N575 2.572 . S
Tb540 O584 2.465 . S
Tb540 O585 2.387 1_455 S
Tb540 O587 2.428 . S
Tb540 O588 2.308 . S
Tb540 O592 2.349 . S
Tb540 O595 2.393 . S
Tb540 C604 2.802 . S
C541 N542 1.379 1_455 S
C541 C544 1.416 . S
C541 C548 1.424 . S
N542 C541 1.379 1_655 S
N542 C545 1.334 . S
N542 Tb551 2.617 . S
C543 C545 1.390 1_455 S
C543 C546 1.339 . S
C543 H563 0.930 1_455 S
C544 C541 1.416 . S
C544 C546 1.416 . S
C544 C550 1.448 . S
C545 N542 1.334 . S
C545 C543 1.390 1_655 S
C545 H556 0.930 . S
C546 C543 1.339 . S
C546 C544 1.416 . S
C546 H567 0.930 . S
C547 C548 1.413 . S
C547 C549 1.427 . S
C547 C553 1.416 . S
C548 C541 1.424 . S
C548 C547 1.413 . S
C548 N552 1.361 . S
C549 C547 1.427 . S
C549 C550 1.328 . S
C549 H564 0.929 . S
C550 C544 1.448 . S
C550 C549 1.328 . S
C550 H565 0.930 . S
Tb551 N542 2.617 . S
Tb551 N552 2.572 1_655 S
Tb551 O586 2.349 . S
Tb551 O589 2.393 . S
Tb551 O590 2.465 . S
Tb551 O591 2.387 1_655 S
Tb551 O593 2.428 . S
Tb551 O594 2.300 1_655 S
Tb551 C615 2.802 . S
N552 C548 1.361 . S
N552 Tb551 2.572 1_455 S
N552 C554 1.340 . S
C553 C547 1.416 . S
C553 C555 1.332 . S
C553 H561 0.931 . S
C554 N552 1.340 . S
C554 C555 1.407 . S
C554 H560 0.913 1_455 S
C555 C553 1.332 . S
C555 C554 1.407 . S
C555 H557 0.929 . S
H556 C545 0.930 . S
H557 C555 0.929 . S
H558 C573 0.930 . S
H559 C580 0.933 . S
H560 C554 0.913 1_655 S
H561 C553 0.931 . S
H562 C576 0.930 . S
H563 C543 0.930 1_655 S
H564 C549 0.929 . S
H565 C550 0.930 . S
H566 C571 0.930 . S
H567 C546 0.930 . S
H568 C579 0.931 . S
N569 Tb540 2.617 . S
N569 C570 1.379 . S
N569 C573 1.334 . S
C570 N569 1.379 . S
C570 C572 1.409 1_455 S
C570 C578 1.424 . S
C571 H566 0.930 . S
C571 C573 1.390 . S
C571 C574 1.339 . S
C572 C570 1.409 1_655 S
C572 C574 1.415 1_655 S
C572 C605 1.457 . S
C573 H558 0.930 . S
C573 N569 1.334 . S
C573 C571 1.390 . S
C574 C571 1.339 . S
C574 C572 1.415 1_455 S
C574 H581 0.930 1_455 S
N575 Tb540 2.572 . S
N575 C576 1.340 . S
N575 C578 1.361 . S
C576 H562 0.930 . S
C576 N575 1.340 . S
C576 C580 1.394 1_455 S
C577 C578 1.413 1_655 S
C577 C579 1.416 . S
C577 C606 1.427 . S
C578 C570 1.424 . S
C578 N575 1.361 . S
C578 C577 1.413 1_455 S
C579 H568 0.931 . S
C579 C577 1.416 . S
C579 C580 1.344 . S
C580 H559 0.933 . S
C580 C576 1.394 1_655 S
C580 C579 1.344 . S
H581 C574 0.930 1_655 S
H582 C605 0.930 . S
H583 C606 0.929 . S
O584 Tb540 2.465 . S
O584 C604 1.264 . S
O585 Tb540 2.387 1_655 S
O585 C596 1.264 . S
O586 Tb551 2.349 . S
O586 C596 1.243 . S
O587 Tb540 2.428 . S
O587 C604 1.256 . S
O588 Tb540 2.308 . S
O588 C603 1.266 . S
O589 Tb551 2.393 . S
O589 C603 1.248 1_655 S
O590 Tb551 2.465 . S
O590 C615 1.264 . S
O591 Tb551 2.387 1_455 S
O591 C607 1.264 . S
O592 Tb540 2.349 . S
O592 C607 1.243 . S
O593 Tb551 2.428 . S
O593 C615 1.256 . S
O594 Tb551 2.300 1_455 S
O594 C614 1.273 . S
O595 Tb540 2.393 . S
O595 C614 1.248 . S
C596 O585 1.264 . S
C596 O586 1.243 . S
C597 C600 1.399 . S
C597 C602 1.383 . S
C597 C604 1.496 . S
C598 C599 1.399 . S
C598 C602 1.389 . S
C599 C598 1.399 . S
C599 C601 1.380 . S
C599 H616 0.929 . S
C600 C597 1.399 . S
C600 C601 1.392 . S
C600 H617 0.929 . S
C601 C599 1.380 . S
C601 C600 1.392 . S
C601 H618 0.929 . S
C602 C597 1.383 . S
C602 C598 1.389 . S
C602 H619 0.931 . S
C603 O588 1.266 . S
C603 O589 1.248 1_455 S
C604 Tb540 2.802 . S
C604 O584 1.264 . S
C604 O587 1.256 . S
C604 C597 1.496 . S
C605 C572 1.457 . S
C605 H582 0.930 . S
C605 C606 1.328 . S
C606 C577 1.427 . S
C606 H583 0.929 . S
C606 C605 1.328 . S
C607 O591 1.264 . S
C607 O592 1.243 . S
C608 C611 1.399 . S
C608 C612 1.383 . S
C608 C615 1.496 . S
C609 C610 1.399 . S
C609 C612 1.389 . S
C610 C609 1.399 . S
C610 C613 1.380 . S
C610 H620 0.929 . S
C611 C608 1.399 . S
C611 C613 1.392 . S
C611 H621 0.929 . S
C612 C608 1.383 . S
C612 C609 1.389 . S
C612 H622 0.931 . S
C613 C610 1.380 . S
C613 C611 1.392 . S
C613 H623 0.929 . S
C614 O594 1.273 . S
C614 O595 1.248 . S
C615 Tb551 2.802 . S
C615 O590 1.264 . S
C615 O593 1.256 . S
C615 C608 1.496 . S
H616 C599 0.929 . S
H617 C600 0.929 . S
H618 C601 0.929 . S
H619 C602 0.931 . S
H620 C610 0.929 . S
H621 C611 0.929 . S
H622 C612 0.931 . S
H623 C613 0.929 . S
H624 C642 0.951 . S
H625 C644 0.951 . S
H626 C646 0.950 . S
H627 C647 0.950 . S
H628 C649 0.950 . S
H629 C652 0.950 . S
H630 C653 0.950 . S
H631 C655 0.950 . S
H632 C656 0.950 . S
H633 C657 0.951 1_565 S
H634 C659 0.951 1_565 S
H635 C661 0.950 . S
H636 C662 0.950 . S
H637 C664 0.950 . S
H638 C667 0.950 . S
H639 C668 0.950 . S
H640 C670 0.950 . S
H641 C671 0.950 . S
C642 H624 0.951 . S
C642 C643 1.366 . S
C642 C644 1.388 . S
C643 C642 1.366 . S
C643 C647 1.385 . S
C644 H625 0.951 . S
C644 C642 1.388 . S
C644 C645 1.366 . S
C645 C644 1.366 . S
C645 C646 1.414 . S
C645 C648 1.499 . S
C646 H626 0.950 . S
C646 C645 1.414 . S
C646 C647 1.374 . S
C647 H627 0.950 . S
C647 C643 1.385 . S
C647 C646 1.374 . S
C648 C645 1.499 . S
C648 C649 1.373 . S
C648 C650 1.389 . S
C649 H628 0.950 . S
C649 C648 1.373 . S
C649 C665 1.377 . S
C650 C648 1.389 . S
C650 C651 1.524 . S
C650 C664 1.377 . S
C651 C650 1.524 . S
C651 C652 1.397 . S
C651 C656 1.363 . S
C652 H629 0.950 . S
C652 C651 1.397 . S
C652 C653 1.334 . S
C653 H630 0.950 . S
C653 C652 1.334 . S
C653 C654 1.287 . S
C654 C653 1.287 . S
C654 C655 1.524 . S
C654 H673 0.913 . S
C655 H631 0.950 . S
C655 C654 1.524 . S
C655 C656 1.415 . S
C656 H632 0.950 . S
C656 C651 1.363 . S
C656 C655 1.415 . S
C657 H633 0.951 1_545 S
C657 C658 1.366 . S
C657 C659 1.388 . S
C658 C657 1.366 . S
C658 C662 1.385 . S
C659 H634 0.951 1_545 S
C659 C657 1.388 . S
C659 C660 1.366 . S
C660 C659 1.366 . S
C660 C661 1.414 . S
C660 C663 1.499 . S
C661 H635 0.950 . S
C661 C660 1.414 . S
C661 C662 1.374 . S
C662 H636 0.950 . S
C662 C658 1.385 . S
C662 C661 1.374 . S
C663 C660 1.499 . S
C663 C664 1.373 . S
C663 C665 1.389 . S
C664 H637 0.950 . S
C664 C650 1.377 . S
C664 C663 1.373 . S
C665 C649 1.377 . S
C665 C663 1.389 . S
C665 C666 1.524 . S
C666 C665 1.524 . S
C666 C667 1.397 . S
C666 C671 1.363 1_545 S
C667 H638 0.950 . S
C667 C666 1.397 . S
C667 C668 1.334 . S
C668 H639 0.950 . S
C668 C667 1.334 . S
C668 C669 1.287 . S
C669 C668 1.287 . S
C669 C670 1.524 1_545 S
C669 H672 0.999 1_545 S
C670 H640 0.950 . S
C670 C669 1.524 1_565 S
C670 C671 1.415 . S
C671 H641 0.950 . S
C671 C666 1.363 1_565 S
C671 C670 1.415 . S
H672 C669 0.999 1_565 S
H673 C654 0.913 . S
H674 C692 0.951 . S
H675 C694 0.951 . S
H676 C696 0.950 . S
H677 C697 0.950 . S
H678 C699 0.950 . S
H679 C702 0.950 . S
H680 C703 0.950 . S
H681 C705 0.950 . S
H682 C706 0.950 . S
H683 C707 0.951 . S
H684 C709 0.951 . S
H685 C711 0.950 . S
H686 C712 0.950 . S
H687 C714 0.950 . S
H688 C717 0.950 . S
H689 C718 0.950 . S
H690 C720 0.950 . S
H691 C721 0.950 . S
C692 H674 0.951 . S
C692 C693 1.366 . S
C692 C694 1.388 . S
C693 C692 1.366 . S
C693 C697 1.385 . S
C694 H675 0.951 . S
C694 C692 1.388 . S
C694 C695 1.366 . S
C695 C694 1.366 . S
C695 C696 1.414 . S
C695 C698 1.499 . S
C696 H676 0.950 . S
C696 C695 1.414 . S
C696 C697 1.374 . S
C697 H677 0.950 . S
C697 C693 1.385 . S
C697 C696 1.374 . S
C698 C695 1.499 . S
C698 C699 1.373 . S
C698 C700 1.389 . S
C699 H678 0.950 . S
C699 C698 1.373 . S
C699 C715 1.377 . S
C700 C698 1.389 . S
C700 C701 1.524 . S
C700 C714 1.377 . S
C701 C700 1.524 . S
C701 C702 1.397 . S
C701 C706 1.363 . S
C702 H679 0.950 . S
C702 C701 1.397 . S
C702 C703 1.334 . S
C703 H680 0.950 . S
C703 C702 1.334 . S
C703 C704 1.287 . S
C704 C703 1.287 . S
C704 C705 1.524 . S
C704 H723 0.913 . S
C705 H681 0.950 . S
C705 C704 1.524 . S
C705 C706 1.415 . S
C706 H682 0.950 . S
C706 C701 1.363 . S
C706 C705 1.415 . S
C707 H683 0.951 . S
C707 C708 1.366 . S
C707 C709 1.388 . S
C708 C707 1.366 . S
C708 C712 1.385 . S
C709 H684 0.951 . S
C709 C707 1.388 . S
C709 C710 1.366 . S
C710 C709 1.366 . S
C710 C711 1.414 . S
C710 C713 1.499 . S
C711 H685 0.950 . S
C711 C710 1.414 . S
C711 C712 1.374 . S
C712 H686 0.950 . S
C712 C708 1.385 . S
C712 C711 1.374 . S
C713 C710 1.499 . S
C713 C714 1.373 . S
C713 C715 1.389 . S
C714 H687 0.950 . S
C714 C700 1.377 . S
C714 C713 1.373 . S
C715 C699 1.377 . S
C715 C713 1.389 . S
C715 C716 1.524 . S
C716 C715 1.524 . S
C716 C717 1.397 . S
C716 C721 1.363 . S
C717 H688 0.950 . S
C717 C716 1.397 . S
C717 C718 1.334 . S
C718 H689 0.950 . S
C718 C717 1.334 . S
C718 C719 1.287 . S
C719 C718 1.287 . S
C719 C720 1.524 . S
C719 H722 0.999 . S
C720 H690 0.950 . S
C720 C719 1.524 . S
C720 C721 1.415 . S
C721 H691 0.950 . S
C721 C716 1.363 . S
C721 C720 1.415 . S
H722 C719 0.999 . S
H723 C704 0.913 . S
H724 C742 0.951 . S
H725 C744 0.951 . S
H726 C746 0.950 . S
H727 C747 0.950 . S
H728 C749 0.950 . S
H729 C752 0.950 . S
H730 C753 0.950 . S
H731 C755 0.950 . S
H732 C756 0.950 . S
H733 C757 0.951 . S
H734 C759 0.951 . S
H735 C761 0.950 . S
H736 C762 0.950 . S
H737 C764 0.950 . S
H738 C767 0.950 . S
H739 C768 0.950 . S
H740 C770 0.950 . S
H741 C771 0.950 . S
C742 H724 0.951 . S
C742 C743 1.366 . S
C742 C744 1.388 . S
C743 C742 1.366 . S
C743 C747 1.385 . S
C744 H725 0.951 . S
C744 C742 1.388 . S
C744 C745 1.366 . S
C745 C744 1.366 . S
C745 C746 1.414 . S
C745 C748 1.499 . S
C746 H726 0.950 . S
C746 C745 1.414 . S
C746 C747 1.374 . S
C747 H727 0.950 . S
C747 C743 1.385 . S
C747 C746 1.374 . S
C748 C745 1.499 . S
C748 C749 1.373 . S
C748 C750 1.389 . S
C749 H728 0.950 . S
C749 C748 1.373 . S
C749 C765 1.377 . S
C750 C748 1.389 . S
C750 C751 1.524 . S
C750 C764 1.377 . S
C751 C750 1.524 . S
C751 C752 1.397 . S
C751 C756 1.363 . S
C752 H729 0.950 . S
C752 C751 1.397 . S
C752 C753 1.334 . S
C753 H730 0.950 . S
C753 C752 1.334 . S
C753 C754 1.287 . S
C754 C753 1.287 . S
C754 C755 1.524 . S
C754 H773 0.913 . S
C755 H731 0.950 . S
C755 C754 1.524 . S
C755 C756 1.415 . S
C756 H732 0.950 . S
C756 C751 1.363 . S
C756 C755 1.415 . S
C757 H733 0.951 . S
C757 C758 1.366 . S
C757 C759 1.388 . S
C758 C757 1.366 . S
C758 C762 1.385 . S
C759 H734 0.951 . S
C759 C757 1.388 . S
C759 C760 1.366 . S
C760 C759 1.366 . S
C760 C761 1.414 . S
C760 C763 1.499 . S
C761 H735 0.950 . S
C761 C760 1.414 . S
C761 C762 1.374 . S
C762 H736 0.950 . S
C762 C758 1.385 . S
C762 C761 1.374 . S
C763 C760 1.499 . S
C763 C764 1.373 . S
C763 C765 1.389 . S
C764 H737 0.950 . S
C764 C750 1.377 . S
C764 C763 1.373 . S
C765 C749 1.377 . S
C765 C763 1.389 . S
C765 C766 1.524 . S
C766 C765 1.524 . S
C766 C767 1.397 . S
C766 C771 1.363 . S
C767 H738 0.950 . S
C767 C766 1.397 . S
C767 C768 1.334 . S
C768 H739 0.950 . S
C768 C767 1.334 . S
C768 C769 1.287 . S
C769 C768 1.287 . S
C769 C770 1.524 . S
C769 H772 0.999 . S
C770 H740 0.950 . S
C770 C769 1.524 . S
C770 C771 1.415 . S
C771 H741 0.950 . S
C771 C766 1.363 . S
C771 C770 1.415 . S
H772 C769 0.999 . S
H773 C754 0.913 . S
H774 C792 0.951 . S
H775 C794 0.951 . S
H776 C796 0.950 . S
H777 C797 0.950 . S
H778 C799 0.950 . S
H779 C802 0.950 . S
H780 C803 0.950 . S
H781 C805 0.950 . S
H782 C806 0.950 . S
H783 C807 0.951 1_655 S
H784 C809 0.951 1_655 S
H785 C811 0.950 . S
H786 C812 0.950 . S
H787 C814 0.950 . S
H788 C817 0.950 . S
H789 C818 0.950 . S
H790 C820 0.950 . S
H791 C821 0.950 1_655 S
C792 H774 0.951 . S
C792 C793 1.366 . S
C792 C794 1.388 . S
C793 C792 1.366 . S
C793 C797 1.385 . S
C794 H775 0.951 . S
C794 C792 1.388 . S
C794 C795 1.366 . S
C795 C794 1.366 . S
C795 C796 1.414 . S
C795 C798 1.499 . S
C796 H776 0.950 . S
C796 C795 1.414 . S
C796 C797 1.374 . S
C797 H777 0.950 . S
C797 C793 1.385 . S
C797 C796 1.374 . S
C798 C795 1.499 . S
C798 C799 1.373 . S
C798 C800 1.389 . S
C799 H778 0.950 . S
C799 C798 1.373 . S
C799 C815 1.377 . S
C800 C798 1.389 . S
C800 C801 1.524 . S
C800 C814 1.377 . S
C801 C800 1.524 . S
C801 C802 1.397 . S
C801 C806 1.363 . S
C802 H779 0.950 . S
C802 C801 1.397 . S
C802 C803 1.334 . S
C803 H780 0.950 . S
C803 C802 1.334 . S
C803 C804 1.287 . S
C804 C803 1.287 . S
C804 C805 1.524 . S
C804 H823 0.913 . S
C805 H781 0.950 . S
C805 C804 1.524 . S
C805 C806 1.415 . S
C806 H782 0.950 . S
C806 C801 1.363 . S
C806 C805 1.415 . S
C807 H783 0.951 1_455 S
C807 C808 1.366 . S
C807 C809 1.388 . S
C808 C807 1.366 . S
C808 C812 1.385 . S
C809 H784 0.951 1_455 S
C809 C807 1.388 . S
C809 C810 1.366 . S
C810 C809 1.366 . S
C810 C811 1.414 . S
C810 C813 1.499 . S
C811 H785 0.950 . S
C811 C810 1.414 . S
C811 C812 1.374 . S
C812 H786 0.950 . S
C812 C808 1.385 . S
C812 C811 1.374 . S
C813 C810 1.499 . S
C813 C814 1.373 . S
C813 C815 1.389 . S
C814 H787 0.950 . S
C814 C800 1.377 . S
C814 C813 1.373 . S
C815 C799 1.377 . S
C815 C813 1.389 . S
C815 C816 1.524 . S
C816 C815 1.524 . S
C816 C817 1.397 . S
C816 C821 1.363 . S
C817 H788 0.950 . S
C817 C816 1.397 . S
C817 C818 1.334 . S
C818 H789 0.950 . S
C818 C817 1.334 . S
C818 C819 1.287 . S
C819 C818 1.287 . S
C819 C820 1.524 1_455 S
C819 H822 0.999 . S
C820 H790 0.950 . S
C820 C819 1.524 1_655 S
C820 C821 1.415 1_655 S
C821 H791 0.950 1_455 S
C821 C816 1.363 . S
C821 C820 1.415 1_455 S
H822 C819 0.999 . S
H823 C804 0.913 . S
H824 C842 0.951 . S
H825 C844 0.951 . S
H826 C846 0.950 . S
H827 C847 0.950 . S
H828 C849 0.950 . S
H829 C852 0.950 . S
H830 C853 0.950 . S
H831 C855 0.950 . S
H832 C856 0.950 . S
H833 C857 0.951 . S
H834 C859 0.951 . S
H835 C861 0.950 . S
H836 C862 0.949 1_545 S
H837 C864 0.950 . S
H838 C867 0.950 . S
H839 C868 0.950 . S
H840 C870 0.950 . S
H841 C871 0.929 1_565 S
C842 H824 0.951 . S
C842 C843 1.366 . S
C842 C844 1.388 1_554 S
C843 C842 1.366 . S
C843 C847 1.385 . S
C844 H825 0.951 . S
C844 C842 1.388 1_556 S
C844 C845 1.366 . S
C845 C844 1.366 . S
C845 C846 1.414 1_556 S
C845 C848 1.499 . S
C846 H826 0.950 . S
C846 C845 1.414 1_554 S
C846 C847 1.374 . S
C847 H827 0.950 . S
C847 C843 1.385 . S
C847 C846 1.374 . S
C848 C845 1.499 . S
C848 C849 1.373 . S
C848 C850 1.389 . S
C849 H828 0.950 . S
C849 C848 1.373 . S
C849 C865 1.377 . S
C850 C848 1.389 . S
C850 C851 1.524 . S
C850 C864 1.377 . S
C851 C850 1.524 . S
C851 C852 1.397 . S
C851 C856 1.363 . S
C852 H829 0.950 . S
C852 C851 1.397 . S
C852 C853 1.334 . S
C853 H830 0.950 . S
C853 C852 1.334 . S
C853 C854 1.287 . S
C854 C853 1.287 . S
C854 C855 1.524 . S
C854 H873 0.913 . S
C855 H831 0.950 . S
C855 C854 1.524 . S
C855 C856 1.415 . S
C856 H832 0.950 . S
C856 C851 1.363 . S
C856 C855 1.415 . S
C857 H833 0.951 . S
C857 C858 1.366 . S
C857 C859 1.388 . S
C858 C857 1.366 . S
C858 C862 1.385 . S
C859 H834 0.951 . S
C859 C857 1.388 . S
C859 C860 1.366 . S
C860 C859 1.366 . S
C860 C861 1.414 . S
C860 C863 1.499 . S
C861 H835 0.950 . S
C861 C860 1.414 . S
C861 C862 1.374 . S
C862 H836 0.949 1_565 S
C862 C858 1.385 . S
C862 C861 1.374 . S
C863 C860 1.499 . S
C863 C864 1.373 . S
C863 C865 1.389 . S
C864 H837 0.950 . S
C864 C850 1.377 . S
C864 C863 1.373 . S
C865 C849 1.377 . S
C865 C863 1.389 . S
C865 C866 1.524 1_565 S
C866 C865 1.524 1_545 S
C866 C867 1.397 . S
C866 C871 1.368 . S
C867 H838 0.950 . S
C867 C866 1.397 . S
C867 C868 1.334 . S
C868 H839 0.950 . S
C868 C867 1.334 . S
C868 C869 1.287 . S
C869 C868 1.287 . S
C869 C870 1.524 . S
C869 H872 0.999 . S
C870 H840 0.950 . S
C870 C869 1.524 . S
C870 C871 1.431 . S
C871 H841 0.929 1_545 S
C871 C866 1.368 . S
C871 C870 1.431 . S
H872 C869 0.999 . S
H873 C854 0.913 . S
H874 C892 0.951 . S
H875 C894 0.951 . S
H876 C896 0.950 . S
H877 C897 0.950 . S
H878 C899 0.950 . S
H879 C902 0.950 . S
H880 C903 0.950 1_554 S
H881 C905 0.950 . S
H882 C906 0.950 . S
H883 C907 0.951 . S
H884 C909 0.951 . S
H885 C911 0.950 . S
H886 C912 0.950 . S
H887 C914 0.950 . S
H888 C917 0.950 . S
H889 C918 0.950 . S
H890 C920 0.950 . S
H891 C921 0.950 . S
C892 H874 0.951 . S
C892 C893 1.366 . S
C892 C894 1.388 1_554 S
C893 C892 1.366 . S
C893 C897 1.385 . S
C894 H875 0.951 . S
C894 C892 1.388 1_556 S
C894 C895 1.366 . S
C895 C894 1.366 . S
C895 C896 1.414 1_556 S
C895 C898 1.499 . S
C896 H876 0.950 . S
C896 C895 1.414 1_554 S
C896 C897 1.374 . S
C897 H877 0.950 . S
C897 C893 1.385 . S
C897 C896 1.374 . S
C898 C895 1.499 . S
C898 C899 1.373 . S
C898 C900 1.389 . S
C899 H878 0.950 . S
C899 C898 1.373 . S
C899 C915 1.377 . S
C900 C898 1.389 . S
C900 C901 1.524 . S
C900 C914 1.377 . S
C901 C900 1.524 . S
C901 C902 1.397 . S
C901 C906 1.363 . S
C902 H879 0.950 . S
C902 C901 1.397 . S
C902 C903 1.334 . S
C903 H880 0.950 1_556 S
C903 C902 1.334 . S
C903 C904 1.287 . S
C904 C903 1.287 . S
C904 C905 1.524 . S
C904 H923 0.913 . S
C905 H881 0.950 . S
C905 C904 1.524 . S
C905 C906 1.415 . S
C906 H882 0.950 . S
C906 C901 1.363 . S
C906 C905 1.415 . S
C907 H883 0.951 . S
C907 C908 1.366 . S
C907 C909 1.388 . S
C908 C907 1.366 . S
C908 C912 1.385 . S
C909 H884 0.951 . S
C909 C907 1.388 . S
C909 C910 1.366 . S
C910 C909 1.366 . S
C910 C911 1.414 . S
C910 C913 1.499 . S
C911 H885 0.950 . S
C911 C910 1.414 . S
C911 C912 1.374 . S
C912 H886 0.950 . S
C912 C908 1.385 . S
C912 C911 1.374 . S
C913 C910 1.499 . S
C913 C914 1.373 . S
C913 C915 1.389 . S
C914 H887 0.950 . S
C914 C900 1.377 . S
C914 C913 1.373 . S
C915 C899 1.377 . S
C915 C913 1.389 . S
C915 C916 1.524 . S
C916 C915 1.524 . S
C916 C917 1.397 . S
C916 C921 1.363 . S
C917 H888 0.950 . S
C917 C916 1.397 . S
C917 C918 1.334 . S
C918 H889 0.950 . S
C918 C917 1.334 . S
C918 C919 1.287 . S
C919 C918 1.287 . S
C919 C920 1.524 . S
C919 H922 0.999 . S
C920 H890 0.950 . S
C920 C919 1.524 . S
C920 C921 1.415 . S
C921 H891 0.950 . S
C921 C916 1.363 . S
C921 C920 1.415 . S
H922 C919 0.999 . S
H923 C904 0.913 . S
H924 C942 0.951 . S
H925 C944 0.951 . S
H926 C946 0.950 . S
H927 C947 0.950 . S
H928 C949 0.950 . S
H929 C952 0.950 . S
H930 C953 0.950 . S
H931 C955 0.950 . S
H932 C956 0.950 . S
H933 C957 0.951 . S
H934 C959 0.951 . S
H935 C961 0.950 . S
H936 C962 0.950 . S
H937 C964 0.950 . S
H938 C967 0.950 . S
H939 C968 0.950 . S
H940 C970 0.950 . S
H941 C971 0.950 . S
C942 H924 0.951 . S
C942 C943 1.366 . S
C942 C944 1.388 . S
C943 C942 1.366 . S
C943 C947 1.385 . S
C944 H925 0.951 . S
C944 C942 1.388 . S
C944 C945 1.366 1_554 S
C945 C944 1.366 1_556 S
C945 C946 1.414 . S
C945 C948 1.499 . S
C946 H926 0.950 . S
C946 C945 1.414 . S
C946 C947 1.374 1_556 S
C947 H927 0.950 . S
C947 C943 1.385 . S
C947 C946 1.374 1_554 S
C948 C945 1.499 . S
C948 C949 1.373 . S
C948 C950 1.389 . S
C949 H928 0.950 . S
C949 C948 1.373 . S
C949 C965 1.377 . S
C950 C948 1.389 . S
C950 C951 1.524 . S
C950 C964 1.377 . S
C951 C950 1.524 . S
C951 C952 1.397 . S
C951 C956 1.363 . S
C952 H929 0.950 . S
C952 C951 1.397 . S
C952 C953 1.334 . S
C953 H930 0.950 . S
C953 C952 1.334 . S
C953 C954 1.287 . S
C954 C953 1.287 . S
C954 C955 1.524 . S
C954 H973 0.913 . S
C955 H931 0.950 . S
C955 C954 1.524 . S
C955 C956 1.415 . S
C956 H932 0.950 . S
C956 C951 1.363 . S
C956 C955 1.415 . S
C957 H933 0.951 . S
C957 C958 1.366 . S
C957 C959 1.388 . S
C958 C957 1.366 . S
C958 C962 1.385 . S
C959 H934 0.951 . S
C959 C957 1.388 . S
C959 C960 1.366 . S
C960 C959 1.366 . S
C960 C961 1.414 . S
C960 C963 1.499 . S
C961 H935 0.950 . S
C961 C960 1.414 . S
C961 C962 1.374 . S
C962 H936 0.950 . S
C962 C958 1.385 . S
C962 C961 1.374 . S
C963 C960 1.499 . S
C963 C964 1.373 . S
C963 C965 1.389 . S
C964 H937 0.950 . S
C964 C950 1.377 . S
C964 C963 1.373 . S
C965 C949 1.377 . S
C965 C963 1.389 . S
C965 C966 1.524 . S
C966 C965 1.524 . S
C966 C967 1.397 . S
C966 C971 1.363 . S
C967 H938 0.950 . S
C967 C966 1.397 . S
C967 C968 1.334 . S
C968 H939 0.950 . S
C968 C967 1.334 . S
C968 C969 1.287 . S
C969 C968 1.287 . S
C969 C970 1.524 . S
C969 H972 0.999 . S
C970 H940 0.950 . S
C970 C969 1.524 . S
C970 C971 1.415 . S
C971 H941 0.950 . S
C971 C966 1.363 . S
C971 C970 1.415 . S
H972 C969 0.999 . S
H973 C954 0.913 . S
H974 C992 0.951 . S
H975 C994 0.951 . S
H976 C996 0.950 . S
H977 C997 0.950 . S
H978 C999 0.950 1_455 S
H979 C1002 0.950 . S
H980 C1003 0.950 . S
H981 C1005 0.950 . S
H982 C1006 0.950 . S
H983 C1007 0.953 1_455 S
H984 C1009 0.962 . S
H985 C1011 0.950 . S
H986 C1012 0.950 . S
H987 C1014 0.950 . S
H988 C1017 0.950 . S
H989 C1018 0.950 . S
H990 C1020 0.950 . S
H991 C1021 0.950 . S
C992 H974 0.951 . S
C992 C993 1.366 . S
C992 C994 1.388 1_554 S
C993 C992 1.366 . S
C993 C997 1.385 . S
C994 H975 0.951 . S
C994 C992 1.388 1_556 S
C994 C995 1.366 . S
C995 C994 1.366 . S
C995 C996 1.414 1_556 S
C995 C998 1.499 . S
C996 H976 0.950 . S
C996 C995 1.414 1_554 S
C996 C997 1.374 . S
C997 H977 0.950 . S
C997 C993 1.385 . S
C997 C996 1.374 . S
C998 C995 1.499 . S
C998 C999 1.373 . S
C998 C1000 1.389 . S
C999 H978 0.950 1_655 S
C999 C998 1.373 . S
C999 C1015 1.382 . S
C1000 C998 1.389 . S
C1000 C1001 1.524 . S
C1000 C1014 1.377 . S
C1001 C1000 1.524 . S
C1001 C1002 1.397 . S
C1001 C1006 1.363 . S
C1002 H979 0.950 . S
C1002 C1001 1.397 . S
C1002 C1003 1.334 . S
C1003 H980 0.950 . S
C1003 C1002 1.334 . S
C1003 C1004 1.287 . S
C1004 C1003 1.287 . S
C1004 C1005 1.524 . S
C1004 H1023 0.913 . S
C1005 H981 0.950 . S
C1005 C1004 1.524 . S
C1005 C1006 1.415 . S
C1006 H982 0.950 . S
C1006 C1001 1.363 . S
C1006 C1005 1.415 . S
C1007 H983 0.953 1_655 S
C1007 C1008 1.365 . S
C1007 C1009 1.387 . S
C1008 C1007 1.365 . S
C1008 C1012 1.385 . S
C1009 H984 0.962 . S
C1009 C1007 1.387 . S
C1009 C1010 1.366 . S
C1010 C1009 1.366 . S
C1010 C1011 1.414 . S
C1010 C1013 1.499 . S
C1011 H985 0.950 . S
C1011 C1010 1.414 . S
C1011 C1012 1.374 . S
C1012 H986 0.950 . S
C1012 C1008 1.385 . S
C1012 C1011 1.374 . S
C1013 C1010 1.499 . S
C1013 C1014 1.373 . S
C1013 C1015 1.404 . S
C1014 H987 0.950 . S
C1014 C1000 1.377 . S
C1014 C1013 1.373 . S
C1015 C999 1.382 . S
C1015 C1013 1.404 . S
C1015 C1016 1.504 1_655 S
C1016 C1015 1.504 1_455 S
C1016 C1017 1.397 . S
C1016 C1021 1.363 . S
C1017 H988 0.950 . S
C1017 C1016 1.397 . S
C1017 C1018 1.334 . S
C1018 H989 0.950 . S
C1018 C1017 1.334 . S
C1018 C1019 1.287 . S
C1019 C1018 1.287 . S
C1019 C1020 1.524 . S
C1019 H1022 0.999 . S
C1020 H990 0.950 . S
C1020 C1019 1.524 . S
C1020 C1021 1.415 . S
C1021 H991 0.950 . S
C1021 C1016 1.363 . S
C1021 C1020 1.415 . S
H1022 C1019 0.999 . S
H1023 C1004 0.913 . S
H1024 C1042 0.951 . S
H1025 C1044 0.951 . S
H1026 C1046 0.950 . S
H1027 C1047 0.950 . S
H1028 C1049 0.950 . S
H1029 C1052 0.959 . S
H1030 C1053 0.950 . S
H1031 C1055 0.950 . S
H1032 C1056 0.950 . S
H1033 C1057 0.951 . S
H1034 C1059 0.951 . S
H1035 C1061 0.950 . S
H1036 C1062 0.950 . S
H1037 C1064 0.950 . S
H1038 C1067 0.950 . S
H1039 C1068 0.950 . S
H1040 C1070 0.950 . S
H1041 C1071 0.950 . S
C1042 H1024 0.951 . S
C1042 C1043 1.366 . S
C1042 C1044 1.388 . S
C1043 C1042 1.366 . S
C1043 C1047 1.385 . S
C1044 H1025 0.951 . S
C1044 C1042 1.388 . S
C1044 C1045 1.366 . S
C1045 C1044 1.366 . S
C1045 C1046 1.414 . S
C1045 C1048 1.499 . S
C1046 H1026 0.950 . S
C1046 C1045 1.414 . S
C1046 C1047 1.374 . S
C1047 H1027 0.950 . S
C1047 C1043 1.385 . S
C1047 C1046 1.374 . S
C1048 C1045 1.499 . S
C1048 C1049 1.373 . S
C1048 C1050 1.389 . S
C1049 H1028 0.950 . S
C1049 C1048 1.373 . S
C1049 C1065 1.377 . S
C1050 C1048 1.389 . S
C1050 C1051 1.524 . S
C1050 C1064 1.377 . S
C1051 C1050 1.524 . S
C1051 C1052 1.397 . S
C1051 C1056 1.363 . S
C1052 H1029 0.959 . S
C1052 C1051 1.397 . S
C1052 C1053 1.334 1_455 S
C1053 H1030 0.950 . S
C1053 C1052 1.334 1_655 S
C1053 C1054 1.277 1_655 S
C1054 C1053 1.277 1_455 S
C1054 C1055 1.554 . S
C1054 H1073 0.898 1_455 S
C1055 H1031 0.950 . S
C1055 C1054 1.554 . S
C1055 C1056 1.415 . S
C1056 H1032 0.950 . S
C1056 C1051 1.363 . S
C1056 C1055 1.415 . S
C1057 H1033 0.951 . S
C1057 C1058 1.366 1_655 S
C1057 C1059 1.388 1_655 S
C1058 C1057 1.366 1_455 S
C1058 C1062 1.385 . S
C1059 H1034 0.951 . S
C1059 C1057 1.388 1_455 S
C1059 C1060 1.366 . S
C1060 C1059 1.366 . S
C1060 C1061 1.414 . S
C1060 C1063 1.499 . S
C1061 H1035 0.950 . S
C1061 C1060 1.414 . S
C1061 C1062 1.374 . S
C1062 H1036 0.950 . S
C1062 C1058 1.385 . S
C1062 C1061 1.374 . S
C1063 C1060 1.499 . S
C1063 C1064 1.373 . S
C1063 C1065 1.389 . S
C1064 H1037 0.950 . S
C1064 C1050 1.377 . S
C1064 C1063 1.373 . S
C1065 C1049 1.377 . S
C1065 C1063 1.389 . S
C1065 C1066 1.524 . S
C1066 C1065 1.524 . S
C1066 C1067 1.397 . S
C1066 C1071 1.363 . S
C1067 H1038 0.950 . S
C1067 C1066 1.397 . S
C1067 C1068 1.334 . S
C1068 H1039 0.950 . S
C1068 C1067 1.334 . S
C1068 C1069 1.287 . S
C1069 C1068 1.287 . S
C1069 C1070 1.524 . S
C1069 H1072 0.999 . S
C1070 H1040 0.950 . S
C1070 C1069 1.524 . S
C1070 C1071 1.415 . S
C1071 H1041 0.950 . S
C1071 C1066 1.363 . S
C1071 C1070 1.415 . S
H1072 C1069 0.999 . S
H1073 C1054 0.898 1_655 S
H1074 C1092 0.951 . S
H1075 C1094 0.951 . S
H1076 C1096 0.950 . S
H1077 C1097 0.950 . S
H1078 C1099 0.950 . S
H1079 C1102 0.950 . S
H1080 C1103 0.950 . S
H1081 C1105 0.950 . S
H1082 C1106 0.950 . S
H1083 C1107 0.951 . S
H1084 C1109 0.951 . S
H1085 C1111 0.950 . S
H1086 C1112 0.950 . S
H1087 C1114 0.950 . S
H1088 C1117 0.950 . S
H1089 C1118 0.950 . S
H1090 C1120 0.950 . S
H1091 C1121 0.950 1_545 S
C1092 H1074 0.951 . S
C1092 C1093 1.366 . S
C1092 C1094 1.388 . S
C1093 C1092 1.366 . S
C1093 C1097 1.385 . S
C1094 H1075 0.951 . S
C1094 C1092 1.388 . S
C1094 C1095 1.366 . S
C1095 C1094 1.366 . S
C1095 C1096 1.414 . S
C1095 C1098 1.499 . S
C1096 H1076 0.950 . S
C1096 C1095 1.414 . S
C1096 C1097 1.374 . S
C1097 H1077 0.950 . S
C1097 C1093 1.385 . S
C1097 C1096 1.374 . S
C1098 C1095 1.499 . S
C1098 C1099 1.373 . S
C1098 C1100 1.389 . S
C1099 H1078 0.950 . S
C1099 C1098 1.373 . S
C1099 C1115 1.377 . S
C1100 C1098 1.389 . S
C1100 C1101 1.524 . S
C1100 C1114 1.377 . S
C1101 C1100 1.524 . S
C1101 C1102 1.397 . S
C1101 C1106 1.363 . S
C1102 H1079 0.950 . S
C1102 C1101 1.397 . S
C1102 C1103 1.334 . S
C1103 H1080 0.950 . S
C1103 C1102 1.334 . S
C1103 C1104 1.287 . S
C1104 C1103 1.287 . S
C1104 C1105 1.524 . S
C1104 H1123 0.913 . S
C1105 H1081 0.950 . S
C1105 C1104 1.524 . S
C1105 C1106 1.415 . S
C1106 H1082 0.950 . S
C1106 C1101 1.363 . S
C1106 C1105 1.415 . S
C1107 H1083 0.951 . S
C1107 C1108 1.366 . S
C1107 C1109 1.388 . S
C1108 C1107 1.366 . S
C1108 C1112 1.385 . S
C1109 H1084 0.951 . S
C1109 C1107 1.388 . S
C1109 C1110 1.366 . S
C1110 C1109 1.366 . S
C1110 C1111 1.414 . S
C1110 C1113 1.499 . S
C1111 H1085 0.950 . S
C1111 C1110 1.414 . S
C1111 C1112 1.374 . S
C1112 H1086 0.950 . S
C1112 C1108 1.385 . S
C1112 C1111 1.374 . S
C1113 C1110 1.499 . S
C1113 C1114 1.373 . S
C1113 C1115 1.389 . S
C1114 H1087 0.950 . S
C1114 C1100 1.377 . S
C1114 C1113 1.373 . S
C1115 C1099 1.377 . S
C1115 C1113 1.389 . S
C1115 C1116 1.524 1_545 S
C1116 C1115 1.524 1_565 S
C1116 C1117 1.397 . S
C1116 C1121 1.363 . S
C1117 H1088 0.950 . S
C1117 C1116 1.397 . S
C1117 C1118 1.334 . S
C1118 H1089 0.950 . S
C1118 C1117 1.334 . S
C1118 C1119 1.287 . S
C1119 C1118 1.287 . S
C1119 C1120 1.524 . S
C1119 H1122 0.999 . S
C1120 H1090 0.950 . S
C1120 C1119 1.524 . S
C1120 C1121 1.415 . S
C1121 H1091 0.950 1_565 S
C1121 C1116 1.363 . S
C1121 C1120 1.415 . S
H1122 C1119 0.999 . S
H1123 C1104 0.913 . S
H1124 C1142 0.951 . S
H1125 C1144 0.951 . S
H1126 C1146 0.950 . S
H1127 C1147 0.950 . S
H1128 C1149 0.950 . S
H1129 C1152 0.950 . S
H1130 C1153 0.950 . S
H1131 C1155 0.950 . S
H1132 C1156 0.950 . S
H1133 C1157 0.951 . S
H1134 C1159 0.951 . S
H1135 C1161 0.950 . S
H1136 C1162 0.950 . S
H1137 C1164 0.950 . S
H1138 C1167 0.950 . S
H1139 C1168 0.950 . S
H1140 C1170 0.950 . S
H1141 C1171 0.950 . S
C1142 H1124 0.951 . S
C1142 C1143 1.366 . S
C1142 C1144 1.388 . S
C1143 C1142 1.366 . S
C1143 C1147 1.385 . S
C1144 H1125 0.951 . S
C1144 C1142 1.388 . S
C1144 C1145 1.366 . S
C1145 C1144 1.366 . S
C1145 C1146 1.414 . S
C1145 C1148 1.499 . S
C1146 H1126 0.950 . S
C1146 C1145 1.414 . S
C1146 C1147 1.374 . S
C1147 H1127 0.950 . S
C1147 C1143 1.385 . S
C1147 C1146 1.374 . S
C1148 C1145 1.499 . S
C1148 C1149 1.373 . S
C1148 C1150 1.389 . S
C1149 H1128 0.950 . S
C1149 C1148 1.373 . S
C1149 C1165 1.377 . S
C1150 C1148 1.389 . S
C1150 C1151 1.524 . S
C1150 C1164 1.377 . S
C1151 C1150 1.524 . S
C1151 C1152 1.397 . S
C1151 C1156 1.363 . S
C1152 H1129 0.950 . S
C1152 C1151 1.397 . S
C1152 C1153 1.334 . S
C1153 H1130 0.950 . S
C1153 C1152 1.334 . S
C1153 C1154 1.287 . S
C1154 C1153 1.287 . S
C1154 C1155 1.524 . S
C1154 H1173 0.913 . S
C1155 H1131 0.950 . S
C1155 C1154 1.524 . S
C1155 C1156 1.415 . S
C1156 H1132 0.950 . S
C1156 C1151 1.363 . S
C1156 C1155 1.415 . S
C1157 H1133 0.951 . S
C1157 C1158 1.366 . S
C1157 C1159 1.388 . S
C1158 C1157 1.366 . S
C1158 C1162 1.385 . S
C1159 H1134 0.951 . S
C1159 C1157 1.388 . S
C1159 C1160 1.366 . S
C1160 C1159 1.366 . S
C1160 C1161 1.414 . S
C1160 C1163 1.499 . S
C1161 H1135 0.950 . S
C1161 C1160 1.414 . S
C1161 C1162 1.374 . S
C1162 H1136 0.950 . S
C1162 C1158 1.385 . S
C1162 C1161 1.374 . S
C1163 C1160 1.499 . S
C1163 C1164 1.373 . S
C1163 C1165 1.389 . S
C1164 H1137 0.950 . S
C1164 C1150 1.377 . S
C1164 C1163 1.373 . S
C1165 C1149 1.377 . S
C1165 C1163 1.389 . S
C1165 C1166 1.524 . S
C1166 C1165 1.524 . S
C1166 C1167 1.397 . S
C1166 C1171 1.363 . S
C1167 H1138 0.950 . S
C1167 C1166 1.397 . S
C1167 C1168 1.334 . S
C1168 H1139 0.950 . S
C1168 C1167 1.334 . S
C1168 C1169 1.287 . S
C1169 C1168 1.287 . S
C1169 C1170 1.524 . S
C1169 H1172 0.999 . S
C1170 H1140 0.950 . S
C1170 C1169 1.524 . S
C1170 C1171 1.415 . S
C1171 H1141 0.950 . S
C1171 C1166 1.363 . S
C1171 C1170 1.415 . S
H1172 C1169 0.999 . S
H1173 C1154 0.913 . S
H1174 C1192 0.951 . S
H1175 C1194 0.951 . S
H1176 C1196 0.950 . S
H1177 C1197 0.950 . S
H1178 C1199 0.950 . S
H1179 C1202 0.950 . S
H1180 C1203 0.950 . S
H1181 C1205 0.950 . S
H1182 C1206 0.950 . S
H1183 C1207 0.951 . S
H1184 C1209 0.951 . S
H1185 C1211 0.950 . S
H1186 C1212 0.950 . S
H1187 C1214 0.950 . S
H1188 C1217 0.950 . S
H1189 C1218 0.950 . S
H1190 C1220 0.950 . S
H1191 C1221 0.950 . S
C1192 H1174 0.951 . S
C1192 C1193 1.366 . S
C1192 C1194 1.388 . S
C1193 C1192 1.366 . S
C1193 C1197 1.385 . S
C1194 H1175 0.951 . S
C1194 C1192 1.388 . S
C1194 C1195 1.366 . S
C1195 C1194 1.366 . S
C1195 C1196 1.414 . S
C1195 C1198 1.499 . S
C1196 H1176 0.950 . S
C1196 C1195 1.414 . S
C1196 C1197 1.374 . S
C1197 H1177 0.950 . S
C1197 C1193 1.385 . S
C1197 C1196 1.374 . S
C1198 C1195 1.499 . S
C1198 C1199 1.373 . S
C1198 C1200 1.389 . S
C1199 H1178 0.950 . S
C1199 C1198 1.373 . S
C1199 C1215 1.377 . S
C1200 C1198 1.389 . S
C1200 C1201 1.524 . S
C1200 C1214 1.377 . S
C1201 C1200 1.524 . S
C1201 C1202 1.397 . S
C1201 C1206 1.363 . S
C1202 H1179 0.950 . S
C1202 C1201 1.397 . S
C1202 C1203 1.334 . S
C1203 H1180 0.950 . S
C1203 C1202 1.334 . S
C1203 C1204 1.287 . S
C1204 C1203 1.287 . S
C1204 C1205 1.524 . S
C1204 H1223 0.913 . S
C1205 H1181 0.950 . S
C1205 C1204 1.524 . S
C1205 C1206 1.415 . S
C1206 H1182 0.950 . S
C1206 C1201 1.363 . S
C1206 C1205 1.415 . S
C1207 H1183 0.951 . S
C1207 C1208 1.366 . S
C1207 C1209 1.388 . S
C1208 C1207 1.366 . S
C1208 C1212 1.385 . S
C1209 H1184 0.951 . S
C1209 C1207 1.388 . S
C1209 C1210 1.366 . S
C1210 C1209 1.366 . S
C1210 C1211 1.414 . S
C1210 C1213 1.499 . S
C1211 H1185 0.950 . S
C1211 C1210 1.414 . S
C1211 C1212 1.374 . S
C1212 H1186 0.950 . S
C1212 C1208 1.385 . S
C1212 C1211 1.374 . S
C1213 C1210 1.499 . S
C1213 C1214 1.373 . S
C1213 C1215 1.389 . S
C1214 H1187 0.950 . S
C1214 C1200 1.377 . S
C1214 C1213 1.373 . S
C1215 C1199 1.377 . S
C1215 C1213 1.389 . S
C1215 C1216 1.524 . S
C1216 C1215 1.524 . S
C1216 C1217 1.397 . S
C1216 C1221 1.363 . S
C1217 H1188 0.950 . S
C1217 C1216 1.397 . S
C1217 C1218 1.334 . S
C1218 H1189 0.950 . S
C1218 C1217 1.334 . S
C1218 C1219 1.287 . S
C1219 C1218 1.287 . S
C1219 C1220 1.524 . S
C1219 H1222 0.999 . S
C1220 H1190 0.950 . S
C1220 C1219 1.524 . S
C1220 C1221 1.415 . S
C1221 H1191 0.950 . S
C1221 C1216 1.363 . S
C1221 C1220 1.415 . S
H1222 C1219 0.999 . S
H1223 C1204 0.913 . S
H1224 C1242 0.951 . S
H1225 C1244 0.951 1_554 S
H1226 C1246 0.950 . S
H1227 C1247 0.950 . S
H1228 C1249 0.950 . S
H1229 C1252 0.950 . S
H1230 C1253 0.950 . S
H1231 C1255 0.950 . S
H1232 C1256 0.950 . S
H1233 C1257 0.951 . S
H1234 C1259 0.951 . S
H1235 C1261 0.950 . S
H1236 C1262 0.950 . S
H1237 C1264 0.967 . S
H1238 C1267 0.941 1_455 S
H1239 C1268 0.970 . S
H1240 C1270 0.950 . S
H1241 C1271 0.950 . S
C1242 H1224 0.951 . S
C1242 C1243 1.366 . S
C1242 C1244 1.388 1_554 S
C1243 C1242 1.366 . S
C1243 C1247 1.385 1_554 S
C1244 H1225 0.951 1_556 S
C1244 C1242 1.388 1_556 S
C1244 C1245 1.366 . S
C1245 C1244 1.366 . S
C1245 C1246 1.414 . S
C1245 C1248 1.499 . S
C1246 H1226 0.950 . S
C1246 C1245 1.414 . S
C1246 C1247 1.374 . S
C1247 H1227 0.950 . S
C1247 C1243 1.385 1_556 S
C1247 C1246 1.374 . S
C1248 C1245 1.499 . S
C1248 C1249 1.373 . S
C1248 C1250 1.389 . S
C1249 H1228 0.950 . S
C1249 C1248 1.373 . S
C1249 C1265 1.377 . S
C1250 C1248 1.389 . S
C1250 C1251 1.524 1_556 S
C1250 C1264 1.377 . S
C1251 C1250 1.524 1_554 S
C1251 C1252 1.397 . S
C1251 C1256 1.363 1_655 S
C1252 H1229 0.950 . S
C1252 C1251 1.397 . S
C1252 C1253 1.334 . S
C1253 H1230 0.950 . S
C1253 C1252 1.334 . S
C1253 C1254 1.287 . S
C1254 C1253 1.287 . S
C1254 C1255 1.524 1_655 S
C1254 H1273 0.913 . S
C1255 H1231 0.950 . S
C1255 C1254 1.524 1_455 S
C1255 C1256 1.415 . S
C1256 H1232 0.950 . S
C1256 C1251 1.363 1_455 S
C1256 C1255 1.415 . S
C1257 H1233 0.951 . S
C1257 C1258 1.366 1_655 S
C1257 C1259 1.388 . S
C1258 C1257 1.366 1_455 S
C1258 C1262 1.385 . S
C1259 H1234 0.951 . S
C1259 C1257 1.388 . S
C1259 C1260 1.366 . S
C1260 C1259 1.366 . S
C1260 C1261 1.414 1_655 S
C1260 C1263 1.499 . S
C1261 H1235 0.950 . S
C1261 C1260 1.414 1_455 S
C1261 C1262 1.374 . S
C1262 H1236 0.950 . S
C1262 C1258 1.385 . S
C1262 C1261 1.374 . S
C1263 C1260 1.499 . S
C1263 C1264 1.373 . S
C1263 C1265 1.389 . S
C1264 H1237 0.967 . S
C1264 C1250 1.377 . S
C1264 C1263 1.373 . S
C1265 C1249 1.377 . S
C1265 C1263 1.389 . S
C1265 C1266 1.524 . S
C1266 C1265 1.524 . S
C1266 C1267 1.405 . S
C1266 C1271 1.363 . S
C1267 H1238 0.941 1_655 S
C1267 C1266 1.405 . S
C1267 C1268 1.333 1_655 S
C1268 H1239 0.970 . S
C1268 C1267 1.333 1_455 S
C1268 C1269 1.267 1_455 S
C1269 C1268 1.267 1_655 S
C1269 C1270 1.524 . S
C1269 H1272 0.999 . S
C1270 H1240 0.950 . S
C1270 C1269 1.524 . S
C1270 C1271 1.415 . S
C1271 H1241 0.950 . S
C1271 C1266 1.363 . S
C1271 C1270 1.415 . S
H1272 C1269 0.999 . S
H1273 C1254 0.913 . S
H1274 C1292 0.951 . S
H1275 C1294 0.951 . S
H1276 C1296 0.950 . S
H1277 C1297 0.950 . S
H1278 C1299 0.950 . S
H1279 C1302 0.950 . S
H1280 C1303 0.950 1_565 S
H1281 C1305 0.950 . S
H1282 C1306 0.950 . S
H1283 C1307 0.951 . S
H1284 C1309 0.951 . S
H1285 C1311 0.950 . S
H1286 C1312 0.950 . S
H1287 C1314 0.950 . S
H1288 C1317 0.950 . S
H1289 C1318 0.950 . S
H1290 C1320 0.950 . S
H1291 C1321 0.950 . S
C1292 H1274 0.951 . S
C1292 C1293 1.366 . S
C1292 C1294 1.388 1_554 S
C1293 C1292 1.366 . S
C1293 C1297 1.385 . S
C1294 H1275 0.951 . S
C1294 C1292 1.388 1_556 S
C1294 C1295 1.366 . S
C1295 C1294 1.366 . S
C1295 C1296 1.414 . S
C1295 C1298 1.499 . S
C1296 H1276 0.950 . S
C1296 C1295 1.414 . S
C1296 C1297 1.374 1_556 S
C1297 H1277 0.950 . S
C1297 C1293 1.385 . S
C1297 C1296 1.374 1_554 S
C1298 C1295 1.499 . S
C1298 C1299 1.373 . S
C1298 C1300 1.389 . S
C1299 H1278 0.950 . S
C1299 C1298 1.373 . S
C1299 C1315 1.377 . S
C1300 C1298 1.389 . S
C1300 C1301 1.524 1_565 S
C1300 C1314 1.377 1_565 S
C1301 C1300 1.524 1_545 S
C1301 C1302 1.397 1_546 S
C1301 C1306 1.363 . S
C1302 H1279 0.950 . S
C1302 C1301 1.397 1_564 S
C1302 C1303 1.334 1_565 S
C1303 H1280 0.950 1_545 S
C1303 C1302 1.334 1_545 S
C1303 C1304 1.287 . S
C1304 C1303 1.287 . S
C1304 C1305 1.524 . S
C1304 H1323 0.913 . S
C1305 H1281 0.950 . S
C1305 C1304 1.524 . S
C1305 C1306 1.415 1_554 S
C1306 H1282 0.950 . S
C1306 C1301 1.363 . S
C1306 C1305 1.415 1_556 S
C1307 H1283 0.951 . S
C1307 C1308 1.366 1_565 S
C1307 C1309 1.388 . S
C1308 C1307 1.366 1_545 S
C1308 C1312 1.385 . S
C1309 H1284 0.951 . S
C1309 C1307 1.388 . S
C1309 C1310 1.366 . S
C1310 C1309 1.366 . S
C1310 C1311 1.414 1_565 S
C1310 C1313 1.499 . S
C1311 H1285 0.950 . S
C1311 C1310 1.414 1_545 S
C1311 C1312 1.374 . S
C1312 H1286 0.950 . S
C1312 C1308 1.385 . S
C1312 C1311 1.374 . S
C1313 C1310 1.499 . S
C1313 C1314 1.373 1_565 S
C1313 C1315 1.389 . S
C1314 H1287 0.950 . S
C1314 C1300 1.377 1_545 S
C1314 C1313 1.373 1_545 S
C1315 C1299 1.377 . S
C1315 C1313 1.389 . S
C1315 C1316 1.524 . S
C1316 C1315 1.524 . S
C1316 C1317 1.397 . S
C1316 C1321 1.363 . S
C1317 H1288 0.950 . S
C1317 C1316 1.397 . S
C1317 C1318 1.334 . S
C1318 H1289 0.950 . S
C1318 C1317 1.334 . S
C1318 C1319 1.287 . S
C1319 C1318 1.287 . S
C1319 C1320 1.524 . S
C1319 H1322 0.999 . S
C1320 H1290 0.950 . S
C1320 C1319 1.524 . S
C1320 C1321 1.415 . S
C1321 H1291 0.950 . S
C1321 C1316 1.363 . S
C1321 C1320 1.415 . S
H1322 C1319 0.999 . S
H1323 C1304 0.913 . S
H1324 C1342 0.951 . S
H1325 C1344 0.951 . S
H1326 C1346 0.949 1_554 S
H1327 C1347 0.950 . S
H1328 C1349 0.950 . S
H1329 C1352 0.950 . S
H1330 C1353 0.950 . S
H1331 C1355 0.950 . S
H1332 C1356 0.950 . S
H1333 C1357 0.951 . S
H1334 C1359 0.951 . S
H1335 C1361 0.950 . S
H1336 C1362 0.950 . S
H1337 C1364 0.950 . S
H1338 C1367 0.950 . S
H1339 C1368 0.950 . S
H1340 C1370 0.950 . S
H1341 C1371 0.950 . S
C1342 H1324 0.951 . S
C1342 C1343 1.366 1_556 S
C1342 C1344 1.388 . S
C1343 C1342 1.366 1_554 S
C1343 C1347 1.385 . S
C1344 H1325 0.951 . S
C1344 C1342 1.388 . S
C1344 C1345 1.366 . S
C1345 C1344 1.366 . S
C1345 C1346 1.421 . S
C1345 C1348 1.499 . S
C1346 H1326 0.949 1_556 S
C1346 C1345 1.421 . S
C1346 C1347 1.368 1_556 S
C1347 H1327 0.950 . S
C1347 C1343 1.385 . S
C1347 C1346 1.368 1_554 S
C1348 C1345 1.499 . S
C1348 C1349 1.373 . S
C1348 C1350 1.389 . S
C1349 H1328 0.950 . S
C1349 C1348 1.373 . S
C1349 C1365 1.377 . S
C1350 C1348 1.389 . S
C1350 C1351 1.524 . S
C1350 C1364 1.377 . S
C1351 C1350 1.524 . S
C1351 C1352 1.397 1_556 S
C1351 C1356 1.363 . S
C1352 H1329 0.950 . S
C1352 C1351 1.397 1_554 S
C1352 C1353 1.334 . S
C1353 H1330 0.950 . S
C1353 C1352 1.334 . S
C1353 C1354 1.287 . S
C1354 C1353 1.287 . S
C1354 C1355 1.524 1_554 S
C1354 H1373 0.913 . S
C1355 H1331 0.950 . S
C1355 C1354 1.524 1_556 S
C1355 C1356 1.415 . S
C1356 H1332 0.950 . S
C1356 C1351 1.363 . S
C1356 C1355 1.415 . S
C1357 H1333 0.951 . S
C1357 C1358 1.366 . S
C1357 C1359 1.388 . S
C1358 C1357 1.366 . S
C1358 C1362 1.385 . S
C1359 H1334 0.951 . S
C1359 C1357 1.388 . S
C1359 C1360 1.366 . S
C1360 C1359 1.366 . S
C1360 C1361 1.414 . S
C1360 C1363 1.499 . S
C1361 H1335 0.950 . S
C1361 C1360 1.414 . S
C1361 C1362 1.374 . S
C1362 H1336 0.950 . S
C1362 C1358 1.385 . S
C1362 C1361 1.374 . S
C1363 C1360 1.499 . S
C1363 C1364 1.373 . S
C1363 C1365 1.389 . S
C1364 H1337 0.950 . S
C1364 C1350 1.377 . S
C1364 C1363 1.373 . S
C1365 C1349 1.377 . S
C1365 C1363 1.389 . S
C1365 C1366 1.524 . S
C1366 C1365 1.524 . S
C1366 C1367 1.397 . S
C1366 C1371 1.363 . S
C1367 H1338 0.950 . S
C1367 C1366 1.397 . S
C1367 C1368 1.334 . S
C1368 H1339 0.950 . S
C1368 C1367 1.334 . S
C1368 C1369 1.287 . S
C1369 C1368 1.287 . S
C1369 C1370 1.524 . S
C1369 H1372 0.999 . S
C1370 H1340 0.950 . S
C1370 C1369 1.524 . S
C1370 C1371 1.415 . S
C1371 H1341 0.950 . S
C1371 C1366 1.363 . S
C1371 C1370 1.415 . S
H1372 C1369 0.999 . S
H1373 C1354 0.913 . S
H1374 C1392 0.951 . S
H1375 C1394 0.951 . S
H1376 C1396 0.950 . S
H1377 C1397 0.950 . S
H1378 C1399 0.950 . S
H1379 C1402 0.950 . S
H1380 C1403 0.950 . S
H1381 C1405 0.950 . S
H1382 C1406 0.950 . S
H1383 C1407 0.951 . S
H1384 C1409 0.951 . S
H1385 C1411 0.950 . S
H1386 C1412 0.950 . S
H1387 C1414 0.950 . S
H1388 C1417 0.950 . S
H1389 C1418 0.950 . S
H1390 C1420 0.950 . S
H1391 C1421 0.950 . S
C1392 H1374 0.951 . S
C1392 C1393 1.366 . S
C1392 C1394 1.388 . S
C1393 C1392 1.366 . S
C1393 C1397 1.385 1_554 S
C1394 H1375 0.951 . S
C1394 C1392 1.388 . S
C1394 C1395 1.366 1_554 S
C1395 C1394 1.366 1_556 S
C1395 C1396 1.414 . S
C1395 C1398 1.499 . S
C1396 H1376 0.950 . S
C1396 C1395 1.414 . S
C1396 C1397 1.374 . S
C1397 H1377 0.950 . S
C1397 C1393 1.385 1_556 S
C1397 C1396 1.374 . S
C1398 C1395 1.499 . S
C1398 C1399 1.373 . S
C1398 C1400 1.389 . S
C1399 H1378 0.950 . S
C1399 C1398 1.373 . S
C1399 C1415 1.377 . S
C1400 C1398 1.389 . S
C1400 C1401 1.524 . S
C1400 C1414 1.377 . S
C1401 C1400 1.524 . S
C1401 C1402 1.397 . S
C1401 C1406 1.363 1_556 S
C1402 H1379 0.950 . S
C1402 C1401 1.397 . S
C1402 C1403 1.334 1_556 S
C1403 H1380 0.950 . S
C1403 C1402 1.334 1_554 S
C1403 C1404 1.287 . S
C1404 C1403 1.287 . S
C1404 C1405 1.524 . S
C1404 H1423 0.913 . S
C1405 H1381 0.950 . S
C1405 C1404 1.524 . S
C1405 C1406 1.415 . S
C1406 H1382 0.950 . S
C1406 C1401 1.363 1_554 S
C1406 C1405 1.415 . S
C1407 H1383 0.951 . S
C1407 C1408 1.366 . S
C1407 C1409 1.388 . S
C1408 C1407 1.366 . S
C1408 C1412 1.385 . S
C1409 H1384 0.951 . S
C1409 C1407 1.388 . S
C1409 C1410 1.366 . S
C1410 C1409 1.366 . S
C1410 C1411 1.414 . S
C1410 C1413 1.499 . S
C1411 H1385 0.950 . S
C1411 C1410 1.414 . S
C1411 C1412 1.374 . S
C1412 H1386 0.950 . S
C1412 C1408 1.385 . S
C1412 C1411 1.374 . S
C1413 C1410 1.499 . S
C1413 C1414 1.373 . S
C1413 C1415 1.389 . S
C1414 H1387 0.950 . S
C1414 C1400 1.377 . S
C1414 C1413 1.373 . S
C1415 C1399 1.377 . S
C1415 C1413 1.389 . S
C1415 C1416 1.524 . S
C1416 C1415 1.524 . S
C1416 C1417 1.397 . S
C1416 C1421 1.363 . S
C1417 H1388 0.950 . S
C1417 C1416 1.397 . S
C1417 C1418 1.334 . S
C1418 H1389 0.950 . S
C1418 C1417 1.334 . S
C1418 C1419 1.287 . S
C1419 C1418 1.287 . S
C1419 C1420 1.524 . S
C1419 H1422 0.999 . S
C1420 H1390 0.950 . S
C1420 C1419 1.524 . S
C1420 C1421 1.415 . S
C1421 H1391 0.950 . S
C1421 C1416 1.363 . S
C1421 C1420 1.415 . S
H1422 C1419 0.999 . S
H1423 C1404 0.913 . S
H1424 C1442 0.951 . S
H1425 C1444 0.951 . S
H1426 C1446 0.950 . S
H1427 C1447 0.950 . S
H1428 C1449 0.950 . S
H1429 C1452 0.950 . S
H1430 C1453 0.950 . S
H1431 C1455 0.950 . S
H1432 C1456 0.950 . S
H1433 C1457 0.951 1_655 S
H1434 C1459 0.951 1_655 S
H1435 C1461 0.950 . S
H1436 C1462 0.950 . S
H1437 C1464 0.950 . S
H1438 C1467 0.950 . S
H1439 C1468 0.950 . S
H1440 C1470 0.950 . S
H1441 C1471 0.934 1_655 S
C1442 H1424 0.951 . S
C1442 C1443 1.366 . S
C1442 C1444 1.388 . S
C1443 C1442 1.366 . S
C1443 C1447 1.385 . S
C1444 H1425 0.951 . S
C1444 C1442 1.388 . S
C1444 C1445 1.366 . S
C1445 C1444 1.366 . S
C1445 C1446 1.414 . S
C1445 C1448 1.499 . S
C1446 H1426 0.950 . S
C1446 C1445 1.414 . S
C1446 C1447 1.374 . S
C1447 H1427 0.950 . S
C1447 C1443 1.385 . S
C1447 C1446 1.374 . S
C1448 C1445 1.499 . S
C1448 C1449 1.373 . S
C1448 C1450 1.389 . S
C1449 H1428 0.950 . S
C1449 C1448 1.373 . S
C1449 C1465 1.377 . S
C1450 C1448 1.389 . S
C1450 C1451 1.524 . S
C1450 C1464 1.377 . S
C1451 C1450 1.524 . S
C1451 C1452 1.397 . S
C1451 C1456 1.363 . S
C1452 H1429 0.950 . S
C1452 C1451 1.397 . S
C1452 C1453 1.334 . S
C1453 H1430 0.950 . S
C1453 C1452 1.334 . S
C1453 C1454 1.287 . S
C1454 C1453 1.287 . S
C1454 C1455 1.524 . S
C1454 H1473 0.913 . S
C1455 H1431 0.950 . S
C1455 C1454 1.524 . S
C1455 C1456 1.415 . S
C1456 H1432 0.950 . S
C1456 C1451 1.363 . S
C1456 C1455 1.415 . S
C1457 H1433 0.951 1_455 S
C1457 C1458 1.366 . S
C1457 C1459 1.388 . S
C1458 C1457 1.366 . S
C1458 C1462 1.385 . S
C1459 H1434 0.951 1_455 S
C1459 C1457 1.388 . S
C1459 C1460 1.366 . S
C1460 C1459 1.366 . S
C1460 C1461 1.414 . S
C1460 C1463 1.499 . S
C1461 H1435 0.950 . S
C1461 C1460 1.414 . S
C1461 C1462 1.374 . S
C1462 H1436 0.950 . S
C1462 C1458 1.385 . S
C1462 C1461 1.374 . S
C1463 C1460 1.499 . S
C1463 C1464 1.373 . S
C1463 C1465 1.389 . S
C1464 H1437 0.950 . S
C1464 C1450 1.377 . S
C1464 C1463 1.373 . S
C1465 C1449 1.377 . S
C1465 C1463 1.389 . S
C1465 C1466 1.524 . S
C1466 C1465 1.524 . S
C1466 C1467 1.397 . S
C1466 C1471 1.389 . S
C1467 H1438 0.950 . S
C1467 C1466 1.397 . S
C1467 C1468 1.334 . S
C1468 H1439 0.950 . S
C1468 C1467 1.334 . S
C1468 C1469 1.287 . S
C1469 C1468 1.287 . S
C1469 C1470 1.524 1_455 S
C1469 H1472 0.999 . S
C1470 H1440 0.950 . S
C1470 C1469 1.524 1_655 S
C1470 C1471 1.405 1_655 S
C1471 H1441 0.934 1_455 S
C1471 C1466 1.389 . S
C1471 C1470 1.405 1_455 S
H1472 C1469 0.999 . S
H1473 C1454 0.913 . S
H1474 C1492 0.951 . S
H1475 C1494 0.951 . S
H1476 C1496 0.950 . S
H1477 C1497 0.950 . S
H1478 C1499 0.950 . S
H1479 C1502 0.950 . S
H1480 C1503 0.950 . S
H1481 C1505 0.950 . S
H1482 C1506 0.950 . S
H1483 C1507 0.951 . S
H1484 C1509 0.951 . S
H1485 C1511 0.950 . S
H1486 C1512 0.950 . S
H1487 C1514 0.950 . S
H1488 C1517 0.950 . S
H1489 C1518 0.950 . S
H1490 C1520 0.950 . S
H1491 C1521 0.950 . S
C1492 H1474 0.951 . S
C1492 C1493 1.366 . S
C1492 C1494 1.388 . S
C1493 C1492 1.366 . S
C1493 C1497 1.385 . S
C1494 H1475 0.951 . S
C1494 C1492 1.388 . S
C1494 C1495 1.366 . S
C1495 C1494 1.366 . S
C1495 C1496 1.414 . S
C1495 C1498 1.499 . S
C1496 H1476 0.950 . S
C1496 C1495 1.414 . S
C1496 C1497 1.374 . S
C1497 H1477 0.950 . S
C1497 C1493 1.385 . S
C1497 C1496 1.374 . S
C1498 C1495 1.499 . S
C1498 C1499 1.373 . S
C1498 C1500 1.389 . S
C1499 H1478 0.950 . S
C1499 C1498 1.373 . S
C1499 C1515 1.377 . S
C1500 C1498 1.389 . S
C1500 C1501 1.524 . S
C1500 C1514 1.377 . S
C1501 C1500 1.524 . S
C1501 C1502 1.397 1_545 S
C1501 C1506 1.363 . S
C1502 H1479 0.950 . S
C1502 C1501 1.397 1_565 S
C1502 C1503 1.334 . S
C1503 H1480 0.950 . S
C1503 C1502 1.334 . S
C1503 C1504 1.287 . S
C1504 C1503 1.287 . S
C1504 C1505 1.524 . S
C1504 H1523 0.913 . S
C1505 H1481 0.950 . S
C1505 C1504 1.524 . S
C1505 C1506 1.415 1_565 S
C1506 H1482 0.950 . S
C1506 C1501 1.363 . S
C1506 C1505 1.415 1_545 S
C1507 H1483 0.951 . S
C1507 C1508 1.366 . S
C1507 C1509 1.388 . S
C1508 C1507 1.366 . S
C1508 C1512 1.385 . S
C1509 H1484 0.951 . S
C1509 C1507 1.388 . S
C1509 C1510 1.366 . S
C1510 C1509 1.366 . S
C1510 C1511 1.414 . S
C1510 C1513 1.499 . S
C1511 H1485 0.950 . S
C1511 C1510 1.414 . S
C1511 C1512 1.374 . S
C1512 H1486 0.950 . S
C1512 C1508 1.385 . S
C1512 C1511 1.374 . S
C1513 C1510 1.499 . S
C1513 C1514 1.373 . S
C1513 C1515 1.389 . S
C1514 H1487 0.950 . S
C1514 C1500 1.377 . S
C1514 C1513 1.373 . S
C1515 C1499 1.377 . S
C1515 C1513 1.389 . S
C1515 C1516 1.524 . S
C1516 C1515 1.524 . S
C1516 C1517 1.397 . S
C1516 C1521 1.363 . S
C1517 H1488 0.950 . S
C1517 C1516 1.397 . S
C1517 C1518 1.334 . S
C1518 H1489 0.950 . S
C1518 C1517 1.334 . S
C1518 C1519 1.287 . S
C1519 C1518 1.287 . S
C1519 C1520 1.524 . S
C1519 H1522 0.999 . S
C1520 H1490 0.950 . S
C1520 C1519 1.524 . S
C1520 C1521 1.415 . S
C1521 H1491 0.950 . S
C1521 C1516 1.363 . S
C1521 C1520 1.415 . S
H1522 C1519 0.999 . S
H1523 C1504 0.913 . S
H1524 C1542 0.951 . S
H1525 C1544 0.951 . S
H1526 C1546 0.950 . S
H1527 C1547 0.950 . S
H1528 C1549 0.950 . S
H1529 C1552 0.950 . S
H1530 C1553 0.950 . S
H1531 C1555 0.950 . S
H1532 C1556 0.950 . S
H1533 C1557 0.951 . S
H1534 C1559 0.951 . S
H1535 C1561 0.950 . S
H1536 C1562 0.950 . S
H1537 C1564 0.950 . S
H1538 C1567 0.950 . S
H1539 C1568 0.950 . S
H1540 C1570 0.950 . S
H1541 C1571 0.950 . S
C1542 H1524 0.951 . S
C1542 C1543 1.366 . S
C1542 C1544 1.388 . S
C1543 C1542 1.366 . S
C1543 C1547 1.385 . S
C1544 H1525 0.951 . S
C1544 C1542 1.388 . S
C1544 C1545 1.366 . S
C1545 C1544 1.366 . S
C1545 C1546 1.414 . S
C1545 C1548 1.499 . S
C1546 H1526 0.950 . S
C1546 C1545 1.414 . S
C1546 C1547 1.374 . S
C1547 H1527 0.950 . S
C1547 C1543 1.385 . S
C1547 C1546 1.374 . S
C1548 C1545 1.499 . S
C1548 C1549 1.373 . S
C1548 C1550 1.389 . S
C1549 H1528 0.950 . S
C1549 C1548 1.373 . S
C1549 C1565 1.377 . S
C1550 C1548 1.389 . S
C1550 C1551 1.524 . S
C1550 C1564 1.377 . S
C1551 C1550 1.524 . S
C1551 C1552 1.397 . S
C1551 C1556 1.363 . S
C1552 H1529 0.950 . S
C1552 C1551 1.397 . S
C1552 C1553 1.334 . S
C1553 H1530 0.950 . S
C1553 C1552 1.334 . S
C1553 C1554 1.287 . S
C1554 C1553 1.287 . S
C1554 C1555 1.524 . S
C1554 H1573 0.913 . S
C1555 H1531 0.950 . S
C1555 C1554 1.524 . S
C1555 C1556 1.415 . S
C1556 H1532 0.950 . S
C1556 C1551 1.363 . S
C1556 C1555 1.415 . S
C1557 H1533 0.951 . S
C1557 C1558 1.366 . S
C1557 C1559 1.388 . S
C1558 C1557 1.366 . S
C1558 C1562 1.385 . S
C1559 H1534 0.951 . S
C1559 C1557 1.388 . S
C1559 C1560 1.366 . S
C1560 C1559 1.366 . S
C1560 C1561 1.414 . S
C1560 C1563 1.499 . S
C1561 H1535 0.950 . S
C1561 C1560 1.414 . S
C1561 C1562 1.374 . S
C1562 H1536 0.950 . S
C1562 C1558 1.385 . S
C1562 C1561 1.374 . S
C1563 C1560 1.499 . S
C1563 C1564 1.373 . S
C1563 C1565 1.389 . S
C1564 H1537 0.950 . S
C1564 C1550 1.377 . S
C1564 C1563 1.373 . S
C1565 C1549 1.377 . S
C1565 C1563 1.389 . S
C1565 C1566 1.524 . S
C1566 C1565 1.524 . S
C1566 C1567 1.397 . S
C1566 C1571 1.363 . S
C1567 H1538 0.950 . S
C1567 C1566 1.397 . S
C1567 C1568 1.334 . S
C1568 H1539 0.950 . S
C1568 C1567 1.334 . S
C1568 C1569 1.287 . S
C1569 C1568 1.287 . S
C1569 C1570 1.524 . S
C1569 H1572 0.999 . S
C1570 H1540 0.950 . S
C1570 C1569 1.524 . S
C1570 C1571 1.415 . S
C1571 H1541 0.950 . S
C1571 C1566 1.363 . S
C1571 C1570 1.415 . S
H1572 C1569 0.999 . S
H1573 C1554 0.913 . S
H1574 C1592 0.951 . S
H1575 C1594 0.951 . S
H1576 C1596 0.950 . S
H1577 C1597 0.950 . S
H1578 C1599 0.950 . S
H1579 C1602 0.950 . S
H1580 C1603 0.950 . S
H1581 C1605 0.950 . S
H1582 C1606 0.950 . S
H1583 C1607 0.951 . S
H1584 C1609 0.951 . S
H1585 C1611 0.950 . S
H1586 C1612 0.950 . S
H1587 C1614 0.950 . S
H1588 C1617 0.950 . S
H1589 C1618 0.950 . S
H1590 C1620 0.950 . S
H1591 C1621 0.950 . S
C1592 H1574 0.951 . S
C1592 C1593 1.366 . S
C1592 C1594 1.388 . S
C1593 C1592 1.366 . S
C1593 C1597 1.385 . S
C1594 H1575 0.951 . S
C1594 C1592 1.388 . S
C1594 C1595 1.366 . S
C1595 C1594 1.366 . S
C1595 C1596 1.414 . S
C1595 C1598 1.499 . S
C1596 H1576 0.950 . S
C1596 C1595 1.414 . S
C1596 C1597 1.374 . S
C1597 H1577 0.950 . S
C1597 C1593 1.385 . S
C1597 C1596 1.374 . S
C1598 C1595 1.499 . S
C1598 C1599 1.373 . S
C1598 C1600 1.389 . S
C1599 H1578 0.950 . S
C1599 C1598 1.373 . S
C1599 C1615 1.377 . S
C1600 C1598 1.389 . S
C1600 C1601 1.524 . S
C1600 C1614 1.377 . S
C1601 C1600 1.524 . S
C1601 C1602 1.397 . S
C1601 C1606 1.363 . S
C1602 H1579 0.950 . S
C1602 C1601 1.397 . S
C1602 C1603 1.334 . S
C1603 H1580 0.950 . S
C1603 C1602 1.334 . S
C1603 C1604 1.287 . S
C1604 C1603 1.287 . S
C1604 C1605 1.524 . S
C1604 H1623 0.913 . S
C1605 H1581 0.950 . S
C1605 C1604 1.524 . S
C1605 C1606 1.415 . S
C1606 H1582 0.950 . S
C1606 C1601 1.363 . S
C1606 C1605 1.415 . S
C1607 H1583 0.951 . S
C1607 C1608 1.366 . S
C1607 C1609 1.388 . S
C1608 C1607 1.366 . S
C1608 C1612 1.385 . S
C1609 H1584 0.951 . S
C1609 C1607 1.388 . S
C1609 C1610 1.366 . S
C1610 C1609 1.366 . S
C1610 C1611 1.414 . S
C1610 C1613 1.499 . S
C1611 H1585 0.950 . S
C1611 C1610 1.414 . S
C1611 C1612 1.374 . S
C1612 H1586 0.950 . S
C1612 C1608 1.385 . S
C1612 C1611 1.374 . S
C1613 C1610 1.499 . S
C1613 C1614 1.373 . S
C1613 C1615 1.389 . S
C1614 H1587 0.950 . S
C1614 C1600 1.377 . S
C1614 C1613 1.373 . S
C1615 C1599 1.377 . S
C1615 C1613 1.389 . S
C1615 C1616 1.524 . S
C1616 C1615 1.524 . S
C1616 C1617 1.397 . S
C1616 C1621 1.363 . S
C1617 H1588 0.950 . S
C1617 C1616 1.397 . S
C1617 C1618 1.334 . S
C1618 H1589 0.950 . S
C1618 C1617 1.334 . S
C1618 C1619 1.287 . S
C1619 C1618 1.287 . S
C1619 C1620 1.524 . S
C1619 H1622 0.999 . S
C1620 H1590 0.950 . S
C1620 C1619 1.524 . S
C1620 C1621 1.415 . S
C1621 H1591 0.950 . S
C1621 C1616 1.363 . S
C1621 C1620 1.415 . S
H1622 C1619 0.999 . S
H1623 C1604 0.913 . S
H1624 C1642 0.951 . S
H1625 C1644 0.951 . S
H1626 C1646 0.950 . S
H1627 C1647 0.950 . S
H1628 C1649 0.950 . S
H1629 C1652 0.950 . S
H1630 C1653 0.950 . S
H1631 C1655 0.950 . S
H1632 C1656 0.950 . S
H1633 C1657 0.951 . S
H1634 C1659 0.951 . S
H1635 C1661 0.950 1_455 S
H1636 C1662 0.944 1_455 S
H1637 C1664 0.950 . S
H1638 C1667 0.950 . S
H1639 C1668 0.950 . S
H1640 C1670 0.950 . S
H1641 C1671 0.950 . S
C1642 H1624 0.951 . S
C1642 C1643 1.366 . S
C1642 C1644 1.388 . S
C1643 C1642 1.366 . S
C1643 C1647 1.385 . S
C1644 H1625 0.951 . S
C1644 C1642 1.388 . S
C1644 C1645 1.366 . S
C1645 C1644 1.366 . S
C1645 C1646 1.414 . S
C1645 C1648 1.499 . S
C1646 H1626 0.950 . S
C1646 C1645 1.414 . S
C1646 C1647 1.374 . S
C1647 H1627 0.950 . S
C1647 C1643 1.385 . S
C1647 C1646 1.374 . S
C1648 C1645 1.499 . S
C1648 C1649 1.373 . S
C1648 C1650 1.389 . S
C1649 H1628 0.950 . S
C1649 C1648 1.373 . S
C1649 C1665 1.377 . S
C1650 C1648 1.389 . S
C1650 C1651 1.524 . S
C1650 C1664 1.377 . S
C1651 C1650 1.524 . S
C1651 C1652 1.397 . S
C1651 C1656 1.363 . S
C1652 H1629 0.950 . S
C1652 C1651 1.397 . S
C1652 C1653 1.334 . S
C1653 H1630 0.950 . S
C1653 C1652 1.334 . S
C1653 C1654 1.287 . S
C1654 C1653 1.287 . S
C1654 C1655 1.524 . S
C1654 H1673 0.913 . S
C1655 H1631 0.950 . S
C1655 C1654 1.524 . S
C1655 C1656 1.415 . S
C1656 H1632 0.950 . S
C1656 C1651 1.363 . S
C1656 C1655 1.415 . S
C1657 H1633 0.951 . S
C1657 C1658 1.366 . S
C1657 C1659 1.388 . S
C1658 C1657 1.366 . S
C1658 C1662 1.389 . S
C1659 H1634 0.951 . S
C1659 C1657 1.388 . S
C1659 C1660 1.366 . S
C1660 C1659 1.366 . S
C1660 C1661 1.414 . S
C1660 C1663 1.499 . S
C1661 H1635 0.950 1_655 S
C1661 C1660 1.414 . S
C1661 C1662 1.375 . S
C1662 H1636 0.944 1_655 S
C1662 C1658 1.389 . S
C1662 C1661 1.375 . S
C1663 C1660 1.499 . S
C1663 C1664 1.373 . S
C1663 C1665 1.389 . S
C1664 H1637 0.950 . S
C1664 C1650 1.377 . S
C1664 C1663 1.373 . S
C1665 C1649 1.377 . S
C1665 C1663 1.389 . S
C1665 C1666 1.524 . S
C1666 C1665 1.524 . S
C1666 C1667 1.397 1_655 S
C1666 C1671 1.363 . S
C1667 H1638 0.950 . S
C1667 C1666 1.397 1_455 S
C1667 C1668 1.334 . S
C1668 H1639 0.950 . S
C1668 C1667 1.334 . S
C1668 C1669 1.287 . S
C1669 C1668 1.287 . S
C1669 C1670 1.524 1_455 S
C1669 H1672 0.999 . S
C1670 H1640 0.950 . S
C1670 C1669 1.524 1_655 S
C1670 C1671 1.415 . S
C1671 H1641 0.950 . S
C1671 C1666 1.363 . S
C1671 C1670 1.415 . S
H1672 C1669 0.999 . S
H1673 C1654 0.913 . S
H1674 C1692 0.951 . S
H1675 C1694 0.951 . S
H1676 C1696 0.950 . S
H1677 C1697 0.950 . S
H1678 C1699 0.950 . S
H1679 C1702 0.950 . S
H1680 C1703 0.950 . S
H1681 C1705 0.950 . S
H1682 C1706 0.933 1_565 S
H1683 C1707 0.951 . S
H1684 C1709 0.951 . S
H1685 C1711 0.950 . S
H1686 C1712 0.950 . S
H1687 C1714 0.934 1_545 S
H1688 C1717 0.950 . S
H1689 C1718 0.950 . S
H1690 C1720 0.950 . S
H1691 C1721 0.950 . S
C1692 H1674 0.951 . S
C1692 C1693 1.366 . S
C1692 C1694 1.388 . S
C1693 C1692 1.366 . S
C1693 C1697 1.385 . S
C1694 H1675 0.951 . S
C1694 C1692 1.388 . S
C1694 C1695 1.366 . S
C1695 C1694 1.366 . S
C1695 C1696 1.414 . S
C1695 C1698 1.499 . S
C1696 H1676 0.950 . S
C1696 C1695 1.414 . S
C1696 C1697 1.374 . S
C1697 H1677 0.950 . S
C1697 C1693 1.385 . S
C1697 C1696 1.374 . S
C1698 C1695 1.499 . S
C1698 C1699 1.373 . S
C1698 C1700 1.389 . S
C1699 H1678 0.950 . S
C1699 C1698 1.373 . S
C1699 C1715 1.377 . S
C1700 C1698 1.389 . S
C1700 C1701 1.524 1_565 S
C1700 C1714 1.377 . S
C1701 C1700 1.524 1_545 S
C1701 C1702 1.397 . S
C1701 C1706 1.363 . S
C1702 H1679 0.950 . S
C1702 C1701 1.397 . S
C1702 C1703 1.334 . S
C1703 H1680 0.950 . S
C1703 C1702 1.334 . S
C1703 C1704 1.287 . S
C1704 C1703 1.287 . S
C1704 C1705 1.524 . S
C1704 H1723 0.913 . S
C1705 H1681 0.950 . S
C1705 C1704 1.524 . S
C1705 C1706 1.415 . S
C1706 H1682 0.933 1_545 S
C1706 C1701 1.363 . S
C1706 C1705 1.415 . S
C1707 H1683 0.951 . S
C1707 C1708 1.366 . S
C1707 C1709 1.388 . S
C1708 C1707 1.366 . S
C1708 C1712 1.385 . S
C1709 H1684 0.951 . S
C1709 C1707 1.388 . S
C1709 C1710 1.366 . S
C1710 C1709 1.366 . S
C1710 C1711 1.414 . S
C1710 C1713 1.499 . S
C1711 H1685 0.950 . S
C1711 C1710 1.414 . S
C1711 C1712 1.374 . S
C1712 H1686 0.950 . S
C1712 C1708 1.385 . S
C1712 C1711 1.374 . S
C1713 C1710 1.499 . S
C1713 C1714 1.373 . S
C1713 C1715 1.389 . S
C1714 H1687 0.934 1_565 S
C1714 C1700 1.377 . S
C1714 C1713 1.373 . S
C1715 C1699 1.377 . S
C1715 C1713 1.389 . S
C1715 C1716 1.524 . S
C1716 C1715 1.524 . S
C1716 C1717 1.397 . S
C1716 C1721 1.363 . S
C1717 H1688 0.950 . S
C1717 C1716 1.397 . S
C1717 C1718 1.334 . S
C1718 H1689 0.950 . S
C1718 C1717 1.334 . S
C1718 C1719 1.287 . S
C1719 C1718 1.287 . S
C1719 C1720 1.524 . S
C1719 H1722 0.999 . S
C1720 H1690 0.950 . S
C1720 C1719 1.524 . S
C1720 C1721 1.415 . S
C1721 H1691 0.950 . S
C1721 C1716 1.363 . S
C1721 C1720 1.415 . S
H1722 C1719 0.999 . S
H1723 C1704 0.913 . S
H1724 C1742 0.951 . S
H1725 C1744 0.951 . S
H1726 C1746 0.950 . S
H1727 C1747 0.950 . S
H1728 C1749 0.950 . S
H1729 C1752 0.950 . S
H1730 C1753 0.950 . S
H1731 C1755 0.950 . S
H1732 C1756 0.950 . S
H1733 C1757 0.951 . S
H1734 C1759 0.951 . S
H1735 C1761 0.950 . S
H1736 C1762 0.950 . S
H1737 C1764 0.950 . S
H1738 C1767 0.950 . S
H1739 C1768 0.950 . S
H1740 C1770 0.950 . S
H1741 C1771 0.950 . S
C1742 H1724 0.951 . S
C1742 C1743 1.366 . S
C1742 C1744 1.388 . S
C1743 C1742 1.366 . S
C1743 C1747 1.385 . S
C1744 H1725 0.951 . S
C1744 C1742 1.388 . S
C1744 C1745 1.366 . S
C1745 C1744 1.366 . S
C1745 C1746 1.414 . S
C1745 C1748 1.499 . S
C1746 H1726 0.950 . S
C1746 C1745 1.414 . S
C1746 C1747 1.374 . S
C1747 H1727 0.950 . S
C1747 C1743 1.385 . S
C1747 C1746 1.374 . S
C1748 C1745 1.499 . S
C1748 C1749 1.373 . S
C1748 C1750 1.389 . S
C1749 H1728 0.950 . S
C1749 C1748 1.373 . S
C1749 C1765 1.377 . S
C1750 C1748 1.389 . S
C1750 C1751 1.524 . S
C1750 C1764 1.377 . S
C1751 C1750 1.524 . S
C1751 C1752 1.397 . S
C1751 C1756 1.363 . S
C1752 H1729 0.950 . S
C1752 C1751 1.397 . S
C1752 C1753 1.334 . S
C1753 H1730 0.950 . S
C1753 C1752 1.334 . S
C1753 C1754 1.287 . S
C1754 C1753 1.287 . S
C1754 C1755 1.524 . S
C1754 H1773 0.913 . S
C1755 H1731 0.950 . S
C1755 C1754 1.524 . S
C1755 C1756 1.415 . S
C1756 H1732 0.950 . S
C1756 C1751 1.363 . S
C1756 C1755 1.415 . S
C1757 H1733 0.951 . S
C1757 C1758 1.366 . S
C1757 C1759 1.388 . S
C1758 C1757 1.366 . S
C1758 C1762 1.385 . S
C1759 H1734 0.951 . S
C1759 C1757 1.388 . S
C1759 C1760 1.366 . S
C1760 C1759 1.366 . S
C1760 C1761 1.414 . S
C1760 C1763 1.499 . S
C1761 H1735 0.950 . S
C1761 C1760 1.414 . S
C1761 C1762 1.374 . S
C1762 H1736 0.950 . S
C1762 C1758 1.385 . S
C1762 C1761 1.374 . S
C1763 C1760 1.499 . S
C1763 C1764 1.373 . S
C1763 C1765 1.389 . S
C1764 H1737 0.950 . S
C1764 C1750 1.377 . S
C1764 C1763 1.373 . S
C1765 C1749 1.377 . S
C1765 C1763 1.389 . S
C1765 C1766 1.524 . S
C1766 C1765 1.524 . S
C1766 C1767 1.397 . S
C1766 C1771 1.363 . S
C1767 H1738 0.950 . S
C1767 C1766 1.397 . S
C1767 C1768 1.334 . S
C1768 H1739 0.950 . S
C1768 C1767 1.334 . S
C1768 C1769 1.287 . S
C1769 C1768 1.287 . S
C1769 C1770 1.524 . S
C1769 H1772 0.999 . S
C1770 H1740 0.950 . S
C1770 C1769 1.524 . S
C1770 C1771 1.415 . S
C1771 H1741 0.950 . S
C1771 C1766 1.363 . S
C1771 C1770 1.415 . S
H1772 C1769 0.999 . S
H1773 C1754 0.913 . S
H1774 C1792 0.951 . S
H1775 C1794 0.951 . S
H1776 C1796 0.950 . S
H1777 C1797 0.950 . S
H1778 C1799 0.950 . S
H1779 C1802 0.950 . S
H1780 C1803 0.950 . S
H1781 C1805 0.950 . S
H1782 C1806 0.950 . S
H1783 C1807 0.951 . S
H1784 C1809 0.951 . S
H1785 C1811 0.950 . S
H1786 C1812 0.950 . S
H1787 C1814 0.950 . S
H1788 C1817 0.950 . S
H1789 C1818 0.950 . S
H1790 C1820 0.950 . S
H1791 C1821 0.950 . S
C1792 H1774 0.951 . S
C1792 C1793 1.366 . S
C1792 C1794 1.388 . S
C1793 C1792 1.366 . S
C1793 C1797 1.385 . S
C1794 H1775 0.951 . S
C1794 C1792 1.388 . S
C1794 C1795 1.366 . S
C1795 C1794 1.366 . S
C1795 C1796 1.414 . S
C1795 C1798 1.499 . S
C1796 H1776 0.950 . S
C1796 C1795 1.414 . S
C1796 C1797 1.374 . S
C1797 H1777 0.950 . S
C1797 C1793 1.385 . S
C1797 C1796 1.374 . S
C1798 C1795 1.499 . S
C1798 C1799 1.373 . S
C1798 C1800 1.389 . S
C1799 H1778 0.950 . S
C1799 C1798 1.373 . S
C1799 C1815 1.377 . S
C1800 C1798 1.389 . S
C1800 C1801 1.524 . S
C1800 C1814 1.377 . S
C1801 C1800 1.524 . S
C1801 C1802 1.397 . S
C1801 C1806 1.363 . S
C1802 H1779 0.950 . S
C1802 C1801 1.397 . S
C1802 C1803 1.334 . S
C1803 H1780 0.950 . S
C1803 C1802 1.334 . S
C1803 C1804 1.287 . S
C1804 C1803 1.287 . S
C1804 C1805 1.524 . S
C1804 H1823 0.913 . S
C1805 H1781 0.950 . S
C1805 C1804 1.524 . S
C1805 C1806 1.415 . S
C1806 H1782 0.950 . S
C1806 C1801 1.363 . S
C1806 C1805 1.415 . S
C1807 H1783 0.951 . S
C1807 C1808 1.366 . S
C1807 C1809 1.388 . S
C1808 C1807 1.366 . S
C1808 C1812 1.385 . S
C1809 H1784 0.951 . S
C1809 C1807 1.388 . S
C1809 C1810 1.366 . S
C1810 C1809 1.366 . S
C1810 C1811 1.414 . S
C1810 C1813 1.499 . S
C1811 H1785 0.950 . S
C1811 C1810 1.414 . S
C1811 C1812 1.374 . S
C1812 H1786 0.950 . S
C1812 C1808 1.385 . S
C1812 C1811 1.374 . S
C1813 C1810 1.499 . S
C1813 C1814 1.373 . S
C1813 C1815 1.389 . S
C1814 H1787 0.950 . S
C1814 C1800 1.377 . S
C1814 C1813 1.373 . S
C1815 C1799 1.377 . S
C1815 C1813 1.389 . S
C1815 C1816 1.524 . S
C1816 C1815 1.524 . S
C1816 C1817 1.397 . S
C1816 C1821 1.363 . S
C1817 H1788 0.950 . S
C1817 C1816 1.397 . S
C1817 C1818 1.334 . S
C1818 H1789 0.950 . S
C1818 C1817 1.334 . S
C1818 C1819 1.287 . S
C1819 C1818 1.287 . S
C1819 C1820 1.524 . S
C1819 H1822 0.999 . S
C1820 H1790 0.950 . S
C1820 C1819 1.524 . S
C1820 C1821 1.415 . S
C1821 H1791 0.950 . S
C1821 C1816 1.363 . S
C1821 C1820 1.415 . S
H1822 C1819 0.999 . S
H1823 C1804 0.913 . S
C643 C241 2.048 . S
C658 C351 2.179 . S
C708 C428 2.206 . S
C693 C277 2.093 . S
C758 C519 2.170 . S
C743 C169 2.037 . S
C808 C603 2.161 . S
C793 C205 2.030 . S
C858 C362 2.180 1_565 S
C843 C97 2.019 . S
C893 C133 2.121 . S
C908 C439 2.205 . S
C943 C25 2.010 . S
C958 C530 2.170 . S
C993 C61 2.001 . S
C1008 C614 2.160 1_655 S
C1058 C346 0.429 1_455 S
C1043 C211 0.283 . S
C1108 C441 0.526 . S
C1093 C247 0.262 . S
C1158 C514 0.425 . S
C1143 C253 0.349 . S
C1193 C175 0.274 . S
C1208 C598 0.422 . S
C1243 C67 0.377 . S
C1258 C357 0.431 . S
C1308 C430 0.523 . S
C1293 C103 0.375 . S
C1358 C525 0.423 . S
C1343 C109 0.267 . S
C1393 C31 0.373 . S
C1408 C609 0.426 . S
C1443 C181 2.438 . S
C1458 C355 2.642 . S
C1493 C217 2.418 . S
C1508 C446 2.643 . S
C1558 C523 2.668 . S
C1543 C283 2.378 . S
C1608 C607 2.661 . S
C1593 C145 2.456 . S
C1643 C37 2.420 . S
C1658 C344 2.642 . S
C1708 C435 2.643 . S
C1693 C73 2.399 . S
C1758 C512 2.669 . S
C1743 C139 2.405 . S
C1793 C1 2.438 . S
C1808 C596 2.661 . S
