# Generated by pormake.
# Topology nom, (4,4)-cn, num edge types: 1
# Building blocks:
#     Node 0, Type 0, BuildingBlock: GIZVER_clean_linker_0, # of connection points: 4
#     Node 1, Type 0, BuildingBlock: GIZVER_clean_linker_0, # of connection points: 4
#     Node 2, Type 0, BuildingBlock: GIZVER_clean_linker_0, # of connection points: 4
#     Node 3, Type 0, BuildingBlock: GIZVER_clean_linker_0, # of connection points: 4
#     Node 4, Type 0, BuildingBlock: GIZVER_clean_linker_0, # of connection points: 4
#     Node 5, Type 0, BuildingBlock: GIZVER_clean_linker_0, # of connection points: 4
#     Node 6, Type 1, BuildingBlock: GALJAG_clean_sbu_0, # of connection points: 4
#     Node 7, Type 1, BuildingBlock: GALJAG_clean_sbu_0, # of connection points: 4
#     Node 8, Type 1, BuildingBlock: GALJAG_clean_sbu_0, # of connection points: 4
#     Node 9, Type 1, BuildingBlock: GALJAG_clean_sbu_0, # of connection points: 4
#     Node 10, Type 1, BuildingBlock: GALJAG_clean_sbu_0, # of connection points: 4
#     Node 11, Type 1, BuildingBlock: GALJAG_clean_sbu_0, # of connection points: 4
#     Edge 12, Type (0, 1), BuildingBlock: ZUJKAS_clean_linker_0, # of connection points: 2
#     Edge 13, Type (0, 1), BuildingBlock: ZUJKAS_clean_linker_0, # of connection points: 2
#     Edge 14, Type (0, 1), BuildingBlock: ZUJKAS_clean_linker_0, # of connection points: 2
#     Edge 15, Type (0, 1), BuildingBlock: ZUJKAS_clean_linker_0, # of connection points: 2
#     Edge 16, Type (0, 1), BuildingBlock: ZUJKAS_clean_linker_0, # of connection points: 2
#     Edge 17, Type (0, 1), BuildingBlock: ZUJKAS_clean_linker_0, # of connection points: 2
#     Edge 18, Type (0, 1), BuildingBlock: ZUJKAS_clean_linker_0, # of connection points: 2
#     Edge 19, Type (0, 1), BuildingBlock: ZUJKAS_clean_linker_0, # of connection points: 2
#     Edge 20, Type (0, 1), BuildingBlock: ZUJKAS_clean_linker_0, # of connection points: 2
#     Edge 21, Type (0, 1), BuildingBlock: ZUJKAS_clean_linker_0, # of connection points: 2
#     Edge 22, Type (0, 1), BuildingBlock: ZUJKAS_clean_linker_0, # of connection points: 2
#     Edge 23, Type (0, 1), BuildingBlock: ZUJKAS_clean_linker_0, # of connection points: 2
#     Edge 24, Type (0, 1), BuildingBlock: ZUJKAS_clean_linker_0, # of connection points: 2
#     Edge 25, Type (0, 1), BuildingBlock: ZUJKAS_clean_linker_0, # of connection points: 2
#     Edge 26, Type (0, 1), BuildingBlock: ZUJKAS_clean_linker_0, # of connection points: 2
#     Edge 27, Type (0, 1), BuildingBlock: ZUJKAS_clean_linker_0, # of connection points: 2
#     Edge 28, Type (0, 1), BuildingBlock: ZUJKAS_clean_linker_0, # of connection points: 2
#     Edge 29, Type (0, 1), BuildingBlock: ZUJKAS_clean_linker_0, # of connection points: 2
#     Edge 30, Type (0, 1), BuildingBlock: ZUJKAS_clean_linker_0, # of connection points: 2
#     Edge 31, Type (0, 1), BuildingBlock: ZUJKAS_clean_linker_0, # of connection points: 2
#     Edge 32, Type (0, 1), BuildingBlock: ZUJKAS_clean_linker_0, # of connection points: 2
#     Edge 33, Type (0, 1), BuildingBlock: ZUJKAS_clean_linker_0, # of connection points: 2
#     Edge 34, Type (0, 1), BuildingBlock: ZUJKAS_clean_linker_0, # of connection points: 2
#     Edge 35, Type (0, 1), BuildingBlock: ZUJKAS_clean_linker_0, # of connection points: 2
# Relax obj value: 0.013
# Max RMSD: 0.088
# Mean RMSD: 0.072
data_MOF--net-nom--node1-GALJAG_clean_sbu_0--node2-GIZVER_clean_linker_0--edge1-ZUJKAS_clean_linker_0
_symmetry_space_group_name_H-M    P1
_symmetry_Int_Tables_number       1
_symmetry_cell_setting            triclinic
loop_
_symmetry_equiv_pos_as_xyz
'x, y, z'
_cell_length_a     59.480466
_cell_length_b     59.449007
_cell_length_c     61.312888
_cell_angle_alpha  89.984203
_cell_angle_beta   90.050984
_cell_angle_gamma 120.13553
loop_
_atom_site_label
_atom_site_type_symbol
_atom_site_fract_x
_atom_site_fract_y
_atom_site_fract_z
_atom_type_partial_charge
H0 H 0.98002 0.57197 0.34946 0.0
H1 H 1.00896 0.56788 0.286 0.0
H2 H 0.93284 0.50862 0.30654 0.0
H3 H 0.01724 0.60945 0.33519 0.0
H4 H 0.02301 0.61066 0.30666 0.0
H5 H 0.03753 0.59011 0.36033 0.0
H6 H 0.11538 0.61285 0.34041 0.0
H7 H 0.0615 0.61226 0.2936 0.0
C8 C 0.97803 0.56149 0.33446 0.0
C9 C 0.95458 0.53855 0.33005 0.0
C10 C 0.99797 0.57209 0.31869 0.0
C11 C 0.99426 0.5592 0.29859 0.0
C12 C 0.97094 0.53599 0.29425 0.0
C13 C 0.95145 0.52571 0.31021 0.0
C14 C 0.02089 0.59921 0.32166 0.0
C15 C 0.04608 0.5996 0.32616 0.0
C16 C 0.05193 0.59544 0.34756 0.0
C17 C 0.07706 0.60056 0.35286 0.0
C18 C 0.09587 0.60864 0.3364 0.0
C19 C 0.09048 0.61296 0.31511 0.0
C20 C 0.06541 0.60795 0.30987 0.0
H21 H 0.43161 0.9817 0.52149 0.0
H22 H 0.45015 0.99749 0.45329 0.0
H23 H 0.4428 0.92829 0.48245 0.0
H24 H 0.42442 0.01339 0.50235 0.0
H25 H 0.42982 0.01811 0.47375 0.0
H26 H 0.46548 0.03255 0.52768 0.0
H27 H 0.51895 0.11134 0.50885 0.0
H28 H 0.46537 0.05803 0.46169 0.0
C29 C 0.43727 0.97695 0.50614 0.0
C30 C 0.43757 0.95358 0.50419 0.0
C31 C 0.44278 0.99344 0.48795 0.0
C32 C 0.44783 0.98584 0.46762 0.0
C33 C 0.44724 0.96201 0.46539 0.0
C34 C 0.44343 0.94678 0.48402 0.0
C35 C 0.43865 0.01651 0.48926 0.0
C36 C 0.46343 0.04184 0.49383 0.0
C37 C 0.47395 0.04729 0.51509 0.0
C38 C 0.49393 0.0724 0.5205 0.0
C39 C 0.50386 0.09179 0.50452 0.0
C40 C 0.4938 0.08679 0.48334 0.0
C41 C 0.47385 0.06167 0.47787 0.0
H42 H 0.42674 0.46558 0.62922 0.0
H43 H 0.45959 0.4689 0.69274 0.0
H44 H 0.43879 0.52583 0.6743 0.0
H45 H 0.43069 0.42962 0.64124 0.0
H46 H 0.43302 0.4263 0.66989 0.0
H47 H 0.47313 0.45584 0.6194 0.0
H48 H 0.53279 0.44044 0.64102 0.0
H49 H 0.47034 0.42668 0.68427 0.0
C50 C 0.43433 0.47544 0.64464 0.0
C51 C 0.43203 0.49718 0.64989 0.0
C52 C 0.4445 0.46518 0.66 0.0
C53 C 0.45277 0.47727 0.68052 0.0
C54 C 0.45122 0.4995 0.68558 0.0
C55 C 0.44111 0.50938 0.6701 0.0
C56 C 0.44293 0.43937 0.65579 0.0
C57 C 0.46935 0.44201 0.65252 0.0
C58 C 0.48191 0.45025 0.63223 0.0
C59 C 0.50506 0.45009 0.62813 0.0
C60 C 0.51576 0.44197 0.64463 0.0
C61 C 0.50341 0.43332 0.66489 0.0
C62 C 0.4803 0.4337 0.66882 0.0
H63 H 0.98592 0.42784 0.7915 0.0
H64 H 1.00261 0.44871 0.85931 0.0
H65 H 0.9309 0.43588 0.83097 0.0
H66 H 0.02054 0.42498 0.80967 0.0
H67 H 0.02457 0.42927 0.83842 0.0
H68 H 0.04056 0.46398 0.78483 0.0
H69 H 0.11255 0.5271 0.80886 0.0
H70 H 0.05906 0.46903 0.85329 0.0
C71 C 0.98095 0.43326 0.80687 0.0
C72 C 0.95687 0.43199 0.80909 0.0
C73 C 0.99799 0.44014 0.82483 0.0
C74 C 0.99032 0.44511 0.84516 0.0
C75 C 0.96586 0.44307 0.84763 0.0
C76 C 0.94988 0.43765 0.82925 0.0
C77 C 0.02231 0.43821 0.82324 0.0
C78 C 0.0464 0.46438 0.81964 0.0
C79 C 0.05322 0.47454 0.79838 0.0
C80 C 0.07731 0.49696 0.79437 0.0
C81 C 0.09381 0.50999 0.81199 0.0
C82 C 0.08762 0.50007 0.83325 0.0
C83 C 0.06371 0.47728 0.83703 0.0
H84 H 0.61097 0.05679 0.01774 0.0
H85 H 0.58185 0.03309 0.95243 0.0
H86 H 0.59546 0.10642 0.97722 0.0
H87 H 0.61289 0.02125 0.00121 0.0
H88 H 0.60815 0.01641 0.97254 0.0
H89 H 0.57465 0.9995 0.02661 0.0
H90 H 0.51304 0.92601 0.00345 0.0
H91 H 0.56879 0.98059 0.95819 0.0
C92 C 0.60356 0.06014 0.00267 0.0
C93 C 0.60331 0.0835 -0.00018 0.0
C94 C 0.59546 0.04165 0.98573 0.0
C95 C 0.58706 0.04673 0.96582 0.0
C96 C 0.58661 0.06992 0.96282 0.0
C97 C 0.59433 0.08786 0.98 0.0
C98 C 0.59911 0.01835 0.98777 0.0
C99 C 0.57376 0.99345 0.9918 0.0
C100 C 0.56421 0.98649 0.01322 0.0
C101 C 0.54255 0.96194 0.01754 0.0
C102 C 0.52961 0.94507 0.0001 0.0
C103 C 0.53891 0.95144 0.9787 0.0
C104 C 0.56101 0.97578 0.97459 0.0
H105 H 0.61701 0.56929 0.13006 0.0
H106 H 0.58185 0.56714 0.1921 0.0
H107 H 0.60148 0.50874 0.17604 0.0
H108 H 0.6135 0.60579 0.14092 0.0
H109 H 0.60999 0.60935 0.16935 0.0
H110 H 0.57096 0.57805 0.11837 0.0
H111 H 0.51271 0.5974 0.13564 0.0
H112 H 0.57385 0.61268 0.1809 0.0
C113 C 0.60858 0.55955 0.14535 0.0
C114 C 0.61012 0.53754 0.15125 0.0
C115 C 0.59815 0.57026 0.15996 0.0
C116 C 0.58883 0.55838 0.18041 0.0
C117 C 0.58957 0.53588 0.18611 0.0
C118 C 0.5999 0.52549 0.17132 0.0
C119 C 0.60053 0.5963 0.15514 0.0
C120 C 0.57456 0.59423 0.15064 0.0
C121 C 0.56237 0.58496 0.13028 0.0
C122 C 0.53978 0.58571 0.12494 0.0
C123 C 0.52955 0.59586 0.14005 0.0
C124 C 0.54184 0.60594 0.16009 0.0
C125 C 0.56396 0.60442 0.16561 0.0
In126 In 0.64131 0.39907 0.40596 0.0
O127 O 0.68317 0.41976 0.41881 0.0
O128 O 0.67696 0.40603 0.38623 0.0
C129 C 0.6204 0.41218 0.43938 0.0
C130 C 0.62772 0.42057 0.37328 0.0
C131 C 0.62212 0.3471 0.41023 0.0
O132 O 0.6446 0.42236 0.43668 0.0
O133 O 0.60675 0.39521 0.42538 0.0
O134 O 0.62152 0.3575 0.39248 0.0
O135 O 0.63275 0.36292 0.42574 0.0
C136 C 0.69313 0.41773 0.40131 0.0
O137 O 0.61697 0.39634 0.37614 0.0
O138 O 0.64556 0.43399 0.38671 0.0
In139 In 0.26228 0.63945 0.57241 0.0
O140 O 0.27966 0.61524 0.55912 0.0
O141 O 0.29315 0.63373 0.5897 0.0
C142 C 0.22682 0.62896 0.54072 0.0
C143 C 0.22781 0.61458 0.6048 0.0
C144 C 0.29386 0.69178 0.56874 0.0
O145 O 0.24572 0.62509 0.53826 0.0
O146 O 0.22622 0.63861 0.55889 0.0
O147 O 0.28482 0.68073 0.58677 0.0
O148 O 0.28716 0.67651 0.55269 0.0
C149 C 0.29436 0.6193 0.57527 0.0
O150 O 0.24325 0.63886 0.605 0.0
O151 O 0.23017 0.60292 0.58855 0.0
In152 In 0.64211 0.25857 0.74037 0.0
O153 O 0.68325 0.2784 0.72561 0.0
O154 O 0.67945 0.28407 0.75928 0.0
C155 C 0.62382 0.22508 0.70612 0.0
C156 C 0.63026 0.22846 0.77627 0.0
C157 C 0.61828 0.28745 0.73848 0.0
O158 O 0.63561 0.24943 0.70355 0.0
O159 O 0.62171 0.21793 0.72566 0.0
O160 O 0.60597 0.2631 0.74078 0.0
O161 O 0.64259 0.29731 0.73742 0.0
C162 C 0.69455 0.28874 0.74334 0.0
O163 O 0.6217 0.24387 0.77332 0.0
O164 O 0.64511 0.2288 0.76142 0.0
In165 In 0.40089 0.63777 0.90627 0.0
O166 O 0.35913 0.61746 0.91932 0.0
O167 O 0.36514 0.63057 0.88657 0.0
C168 C 0.42259 0.6248 0.93921 0.0
C169 C 0.41344 0.6159 0.87322 0.0
C170 C 0.42007 0.68969 0.91081 0.0
O171 O 0.39834 0.6143 0.93665 0.0
O172 O 0.43592 0.64212 0.92536 0.0
O173 O 0.42234 0.67964 0.89346 0.0
O174 O 0.40795 0.67358 0.92582 0.0
C175 C 0.34908 0.61924 0.90177 0.0
O176 O 0.42314 0.64016 0.87514 0.0
O177 O 0.39716 0.60266 0.88777 0.0
In178 In 0.78255 0.39804 0.07262 0.0
O179 O 0.80083 0.39543 0.10459 0.0
O180 O 0.81289 0.43307 0.09194 0.0
C181 C 0.75101 0.34591 0.06768 0.0
C182 C 0.75094 0.41854 0.0765 0.0
C183 C 0.81706 0.40947 0.0398 0.0
O184 O 0.76293 0.35606 0.08519 0.0
O185 O 0.75473 0.36201 0.05276 0.0
O186 O 0.79723 0.41185 0.03793 0.0
O187 O 0.81929 0.40104 0.05806 0.0
C188 C 0.81529 0.4197 0.10677 0.0
O189 O 0.76857 0.42602 0.0623 0.0
O190 O 0.74909 0.4006 0.08868 0.0
In191 In 0.40194 0.77706 0.2408 0.0
O192 O 0.42814 0.76145 0.2527 0.0
O193 O 0.40669 0.74551 0.22364 0.0
C194 C 0.41041 0.81013 0.27412 0.0
C195 C 0.42728 0.81144 0.20839 0.0
C196 C 0.34959 0.74565 0.24348 0.0
O197 O 0.41516 0.79172 0.27554 0.0
O198 O 0.40091 0.81148 0.25609 0.0
O199 O 0.36054 0.76068 0.22758 0.0
O200 O 0.365 0.74633 0.25795 0.0
C201 C 0.42273 0.74566 0.23717 0.0
O202 O 0.40397 0.79334 0.20658 0.0
O203 O 0.43786 0.81191 0.22634 0.0
H204 H 0.13206 0.66079 0.32009 0.0
H205 H 0.17225 0.68093 0.29905 0.0
H206 H 0.1396 0.61541 0.25506 0.0
H207 H 0.09903 0.59493 0.27652 0.0
H208 H 0.18731 0.62681 0.2708 0.0
H209 H 0.19351 0.71716 0.24072 0.0
H210 H 0.18698 0.71349 0.26943 0.0
H211 H 0.16353 0.6901 0.25069 0.0
C212 C 0.13324 0.65099 0.30561 0.0
C213 C 0.11252 0.62643 0.2998 0.0
C214 C 0.15616 0.66257 0.29351 0.0
C215 C 0.15886 0.64991 0.27525 0.0
C216 C 0.13783 0.62564 0.26897 0.0
H217 H 0.31267 0.73902 0.21345 0.0
H218 H 0.26531 0.71288 0.21727 0.0
C219 C 0.11468 0.61403 0.2811 0.0
C220 C 0.18466 0.66106 0.26451 0.0
H221 H 0.23474 0.71852 0.24575 0.0
C222 C 0.1975 0.64667 0.26485 0.0
C223 C 0.19789 0.68683 0.2564 0.0
C224 C 0.18462 0.70266 0.25406 0.0
C225 C 0.22376 0.65798 0.25879 0.0
C226 C 0.23767 0.68454 0.25269 0.0
C227 C 0.22429 0.69831 0.25082 0.0
C228 C 0.26637 0.69888 0.24963 0.0
C229 C 0.23639 0.64143 0.25936 0.0
C230 C 0.28276 0.69987 0.26658 0.0
C231 C 0.30977 0.71467 0.26439 0.0
C232 C 0.32099 0.72909 0.24532 0.0
C233 C 0.3046 0.72808 0.22833 0.0
C234 C 0.27754 0.71315 0.23049 0.0
H235 H 0.22187 0.62059 0.25664 0.0
H236 H 0.2519 0.64772 0.24686 0.0
H237 H 0.24518 0.6431 0.27568 0.0
H238 H 0.27467 0.68969 0.28176 0.0
H239 H 0.32186 0.7152 0.27784 0.0
H240 H 0.51993 0.09576 0.4445 0.0
H241 H 0.54105 0.13701 0.42393 0.0
H242 H 0.50899 0.16936 0.46884 0.0
H243 H 0.48789 0.12845 0.48907 0.0
H244 H 0.508 0.18342 0.42537 0.0
H245 H 0.60553 0.20068 0.45021 0.0
H246 H 0.58497 0.17122 0.43541 0.0
H247 H 0.57591 0.17547 0.46236 0.0
C248 C 0.51696 0.11154 0.44953 0.0
C249 C 0.50242 0.10911 0.46831 0.0
C250 C 0.52918 0.13511 0.43796 0.0
C251 C 0.52693 0.15639 0.44509 0.0
C252 C 0.51106 0.15327 0.46307 0.0
H253 H 0.61954 0.32052 0.44732 0.0
H254 H 0.59722 0.27337 0.45245 0.0
C255 C 0.49901 0.12991 0.4746 0.0
C256 C 0.54232 0.18262 0.43517 0.0
H257 H 0.60399 0.23481 0.43245 0.0
C258 C 0.52903 0.19455 0.42653 0.0
C259 C 0.56974 0.19719 0.43703 0.0
C260 C 0.585 0.18568 0.44687 0.0
C261 C 0.54229 0.2209 0.42043 0.0
C262 C 0.56965 0.23562 0.42273 0.0
C263 C 0.58304 0.22344 0.43063 0.0
C264 C 0.58442 0.26415 0.41893 0.0
C265 C 0.52675 0.23312 0.4127 0.0
C266 C 0.58508 0.27467 0.39827 0.0
C267 C 0.59778 0.30166 0.39531 0.0
C268 C 0.61016 0.3186 0.41294 0.0
C269 C 0.61014 0.308 0.43343 0.0
C270 C 0.59743 0.28105 0.43638 0.0
H271 H 0.50563 0.22048 0.41594 0.0
H272 H 0.53356 0.25218 0.42079 0.0
H273 H 0.52943 0.23651 0.39486 0.0
H274 H 0.57558 0.262 0.38448 0.0
H275 H 0.59758 0.30925 0.37929 0.0
H276 H 0.44217 0.51531 0.60768 0.0
H277 H 0.42012 0.53445 0.58715 0.0
H278 H 0.36702 0.51733 0.64076 0.0
H279 H 0.3888 0.49836 0.66107 0.0
H280 H 0.34319 0.50613 0.59845 0.0
H281 H 0.42873 0.60613 0.60561 0.0
H282 H 0.4339 0.58138 0.59379 0.0
H283 H 0.42545 0.57947 0.62207 0.0
C284 C 0.42552 0.51532 0.61481 0.0
C285 C 0.41723 0.50559 0.63595 0.0
C286 C 0.41307 0.52637 0.60319 0.0
C287 C 0.39212 0.52758 0.61257 0.0
C288 C 0.38315 0.51667 0.63324 0.0
H289 H 0.32517 0.62352 0.60976 0.0
H290 H 0.34992 0.60131 0.61509 0.0
C291 C 0.39562 0.50589 0.64484 0.0
C292 C 0.38009 0.54132 0.60177 0.0
H293 H 0.3903 0.60223 0.59145 0.0
C294 C 0.35355 0.5271 0.5965 0.0
C295 C 0.39364 0.5687 0.59956 0.0
C296 C 0.42197 0.58498 0.60563 0.0
C297 C 0.33993 0.53958 0.58985 0.0
C298 C 0.35333 0.56705 0.58816 0.0
C299 C 0.3801 0.58119 0.59266 0.0
C300 C 0.33946 0.58157 0.58392 0.0
C301 C 0.31104 0.52338 0.58589 0.0
C302 C 0.3257 0.57827 0.56443 0.0
C303 C 0.31137 0.59088 0.56138 0.0
C304 C 0.31073 0.60717 0.57771 0.0
C305 C 0.32521 0.61107 0.59689 0.0
C306 C 0.33942 0.59842 0.59994 0.0
H307 H 0.30287 0.50316 0.592 0.0
H308 H 0.30062 0.53225 0.59392 0.0
H309 H 0.30717 0.52244 0.56812 0.0
H310 H 0.32583 0.56575 0.55167 0.0
H311 H 0.30054 0.58762 0.54637 0.0
H312 H 0.93737 0.45587 0.78363 0.0
H313 H 0.89571 0.43423 0.76404 0.0
H314 H 0.88704 0.35952 0.77984 0.0
H315 H 0.92928 0.38122 0.79819 0.0
H316 H 0.86485 0.35659 0.74188 0.0
H317 H 0.83244 0.405 0.80123 0.0
H318 H 0.85828 0.42731 0.78386 0.0
H319 H 0.86387 0.4076 0.80296 0.0
C320 C 0.92698 0.43488 0.78205 0.0
C321 C 0.93648 0.42014 0.79219 0.0
C322 C 0.90301 0.42249 0.77121 0.0
C323 C 0.88775 0.39519 0.77112 0.0
C324 C 0.89829 0.38057 0.77977 0.0
H325 H 0.72253 0.30267 0.78092 0.0
H326 H 0.76959 0.32864 0.78519 0.0
C327 C 0.9225 0.39296 0.79016 0.0
C328 C 0.85997 0.38174 0.76421 0.0
H329 H 0.80158 0.37705 0.77581 0.0
C330 C 0.85101 0.36115 0.74919 0.0
C331 C 0.84177 0.38737 0.77405 0.0
C332 C 0.84947 0.40783 0.79157 0.0
C333 C 0.82442 0.3457 0.74412 0.0
C334 C 0.80633 0.35155 0.7538 0.0
C335 C 0.81542 0.37261 0.76831 0.0
C336 C 0.7777 0.33506 0.7506 0.0
C337 C 0.81593 0.32255 0.7293 0.0
C338 C 0.76638 0.32991 0.72971 0.0
C339 C 0.73935 0.31458 0.72722 0.0
C340 C 0.72314 0.30466 0.7456 0.0
C341 C 0.73448 0.31011 0.76644 0.0
C342 C 0.76142 0.325 0.7689 0.0
H343 H 0.83098 0.31678 0.72805 0.0
H344 H 0.7976 0.30557 0.73516 0.0
H345 H 0.81251 0.32761 0.71268 0.0
H346 H 0.77837 0.33798 0.71535 0.0
H347 H 0.73111 0.31085 0.71097 0.0
H348 H 0.4876 0.91981 0.96875 0.0
H349 H 0.46861 0.87779 0.95013 0.0
H350 H 0.5453 0.8933 0.93268 0.0
H351 H 0.56446 0.93518 0.95171 0.0
H352 H 0.47129 0.85748 0.90824 0.0
H353 H 0.51679 0.83054 0.97499 0.0
H354 H 0.51497 0.85991 0.97567 0.0
H355 H 0.53872 0.85813 0.95882 0.0
C356 C 0.50037 0.91459 0.96037 0.0
C357 C 0.52752 0.93062 0.96191 0.0
C358 C 0.4895 0.89059 0.94973 0.0
C359 C 0.50557 0.88219 0.94047 0.0
C360 C 0.53258 0.89928 0.94004 0.0
H361 H 0.44814 0.72818 0.88117 0.0
H362 H 0.46885 0.77528 0.88665 0.0
C363 C 0.54349 0.92334 0.9507 0.0
C364 C 0.49426 0.85452 0.93401 0.0
H365 H 0.49147 0.798 0.94959 0.0
C366 C 0.47586 0.84448 0.9171 0.0
C367 C 0.49988 0.83752 0.94592 0.0
C368 C 0.51849 0.84691 0.96499 0.0
C369 C 0.46287 0.81783 0.91183 0.0
C370 C 0.46863 0.80091 0.92369 0.0
C371 C 0.48718 0.81103 0.94046 0.0
C372 C 0.45498 0.77241 0.91972 0.0
C373 C 0.44249 0.80784 0.89413 0.0
C374 C 0.44054 0.75515 0.93655 0.0
C375 C 0.42883 0.72827 0.93352 0.0
C376 C 0.43145 0.71811 0.91361 0.0
C377 C 0.44569 0.73541 0.89667 0.0
C378 C 0.45741 0.76233 0.89973 0.0
H379 H 0.43634 0.82213 0.88993 0.0
H380 H 0.45056 0.80397 0.87921 0.0
H381 H 0.42511 0.78932 0.89915 0.0
H382 H 0.4385 0.76251 0.95215 0.0
H383 H 0.41802 0.71547 0.94688 0.0
H384 H 0.64958 0.53107 0.16538 0.0
H385 H 0.67264 0.51329 0.14548 0.0
H386 H 0.62811 0.50609 0.08769 0.0
H387 H 0.60465 0.52399 0.10781 0.0
H388 H 0.62984 0.45999 0.09966 0.0
H389 H 0.72821 0.54698 0.09737 0.0
H390 H 0.71397 0.54066 0.12408 0.0
H391 H 0.69926 0.54891 0.10219 0.0
C392 C 0.6448 0.52587 0.14838 0.0
C393 C 0.62524 0.52874 0.13814 0.0
C394 C 0.65813 0.51591 0.13699 0.0
C395 C 0.6523 0.50863 0.11506 0.0
C396 C 0.633 0.51177 0.10459 0.0
H397 H 0.75177 0.45753 0.05221 0.0
H398 H 0.72593 0.47869 0.05774 0.0
C399 C 0.61972 0.52204 0.11601 0.0
C400 C 0.66552 0.49635 0.10386 0.0
H401 H 0.72596 0.5056 0.09348 0.0
C402 C 0.65082 0.47006 0.09788 0.0
C403 C 0.69284 0.50958 0.10133 0.0
C404 C 0.70949 0.53817 0.10638 0.0
C405 C 0.66288 0.45624 0.09069 0.0
C406 C 0.69036 0.46899 0.08978 0.0
C407 C 0.70492 0.4957 0.09445 0.0
C408 C 0.70451 0.4548 0.0853 0.0
C409 C 0.64609 0.42803 0.08446 0.0
C410 C 0.70114 0.43438 0.09899 0.0
C411 C 0.71585 0.42225 0.09587 0.0
C412 C 0.73441 0.43046 0.07909 0.0
C413 C 0.7376 0.45074 0.06527 0.0
C414 C 0.72285 0.46285 0.06839 0.0
H415 H 0.62642 0.42368 0.07923 0.0
H416 H 0.65504 0.4226 0.07109 0.0
H417 H 0.6437 0.41568 0.09884 0.0
H418 H 0.6876 0.42826 0.11249 0.0
H419 H 0.71304 0.40679 0.10686 0.0
H420 H 0.38811 0.92774 0.51896 0.0
H421 H 0.3671 0.88586 0.53767 0.0
H422 H 0.44168 0.89112 0.54604 0.0
H423 H 0.46244 0.93244 0.5261 0.0
H424 H 0.41125 0.84815 0.52815 0.0
H425 H 0.35581 0.85598 0.59664 0.0
H426 H 0.34739 0.86634 0.57209 0.0
H427 H 0.38023 0.88431 0.58238 0.0
C428 C 0.4001 0.92045 0.52564 0.0
C429 C 0.4269 0.9334 0.52138 0.0
C430 C 0.38808 0.89646 0.5364 0.0
C431 C 0.40274 0.88525 0.54358 0.0
C432 C 0.42988 0.89927 0.54073 0.0
H433 H 0.31825 0.72796 0.60102 0.0
H434 H 0.34677 0.77509 0.59674 0.0
C435 C 0.44181 0.923 0.52954 0.0
C436 C 0.38944 0.85754 0.55082 0.0
H437 H 0.33916 0.81243 0.58175 0.0
C438 C 0.39584 0.84053 0.54021 0.0
C439 C 0.36951 0.84734 0.56676 0.0
C440 C 0.36309 0.86457 0.58026 0.0
C441 C 0.3822 0.81368 0.54431 0.0
C442 C 0.36077 0.80322 0.55878 0.0
C443 C 0.35519 0.82029 0.57027 0.0
C444 C 0.34345 0.77464 0.56155 0.0
C445 C 0.39101 0.79688 0.53301 0.0
C446 C 0.3317 0.7587 0.54329 0.0
C447 C 0.31578 0.73182 0.54566 0.0
C448 C 0.31074 0.7203 0.56643 0.0
C449 C 0.32187 0.73629 0.5848 0.0
C450 C 0.33813 0.76321 0.58237 0.0
H451 H 0.41211 0.80813 0.52918 0.0
H452 H 0.38724 0.77986 0.54316 0.0
H453 H 0.38038 0.78974 0.51736 0.0
H454 H 0.33474 0.76707 0.52712 0.0
H455 H 0.3072 0.72007 0.53122 0.0
H456 H 0.55381 0.45048 0.67692 0.0
H457 H 0.5706 0.42544 0.69539 0.0
H458 H 0.49224 0.36303 0.70644 0.0
H459 H 0.4753 0.38761 0.68734 0.0
H460 H 0.56379 0.40135 0.73642 0.0
H461 H 0.52418 0.3291 0.66897 0.0
H462 H 0.52581 0.36019 0.6674 0.0
H463 H 0.50068 0.33421 0.6831 0.0
C464 C 0.54013 0.43156 0.68355 0.0
C465 C 0.51322 0.42089 0.68037 0.0
C466 C 0.54976 0.41732 0.69418 0.0
C467 C 0.53269 0.39213 0.70184 0.0
C468 C 0.50577 0.38224 0.70025 0.0
H469 H 0.56623 0.27034 0.74043 0.0
H470 H 0.5446 0.29565 0.73435 0.0
C471 C 0.49611 0.39646 0.68957 0.0
C472 C 0.54321 0.37559 0.70975 0.0
H473 H 0.54638 0.32131 0.69698 0.0
C474 C 0.55987 0.38375 0.7279 0.0
C475 C 0.53819 0.3527 0.69853 0.0
C476 C 0.52144 0.34356 0.67831 0.0
C477 C 0.57161 0.36961 0.73516 0.0
C478 C 0.56692 0.34698 0.7237 0.0
C479 C 0.54989 0.3386 0.7058 0.0
C480 C 0.58022 0.3322 0.72931 0.0
C481 C 0.58878 0.37896 0.7551 0.0
C482 C 0.60744 0.34429 0.7285 0.0
C483 C 0.61985 0.32988 0.73201 0.0
C484 C 0.60525 0.30302 0.7362 0.0
C485 C 0.57802 0.291 0.73727 0.0
C486 C 0.56563 0.30544 0.7338 0.0
H487 H 0.58415 0.39132 0.7656 0.0
H488 H 0.5868 0.36237 0.76493 0.0
H489 H 0.60936 0.39087 0.7499 0.0
H490 H 0.6191 0.36475 0.72453 0.0
H491 H 0.64085 0.33967 0.73095 0.0
H492 H 0.11866 0.55141 0.84368 0.0
H493 H 0.16065 0.57066 0.86236 0.0
H494 H 0.14607 0.49406 0.8792 0.0
H495 H 0.1043 0.47465 0.86004 0.0
H496 H 0.18127 0.56816 0.90391 0.0
H497 H 0.20876 0.52325 0.83715 0.0
H498 H 0.17915 0.52461 0.83655 0.0
H499 H 0.18134 0.50099 0.85331 0.0
C500 C 0.12408 0.5387 0.85191 0.0
C501 C 0.10836 0.51152 0.85012 0.0
C502 C 0.14807 0.54972 0.86259 0.0
C503 C 0.15673 0.53376 0.8717 0.0
C504 C 0.13991 0.5067 0.87194 0.0
H505 H 0.31054 0.59187 0.93154 0.0
H506 H 0.26348 0.57131 0.92595 0.0
C507 C 0.1159 0.49564 0.8612 0.0
C508 C 0.18442 0.54529 0.87817 0.0
H509 H 0.24107 0.54835 0.86279 0.0
C510 C 0.19435 0.56369 0.89509 0.0
C511 C 0.20153 0.53981 0.8663 0.0
C512 C 0.19232 0.52127 0.84719 0.0
C513 C 0.22098 0.57678 0.90043 0.0
C514 C 0.23799 0.57111 0.88864 0.0
C515 C 0.22798 0.55258 0.87186 0.0
C516 C 0.26646 0.5848 0.89272 0.0
C517 C 0.23082 0.59717 0.91811 0.0
C518 C 0.28379 0.59898 0.87584 0.0
C519 C 0.31062 0.61057 0.87893 0.0
C520 C 0.3207 0.60811 0.89896 0.0
C521 C 0.30336 0.59419 0.91596 0.0
C522 C 0.27647 0.58257 0.91284 0.0
H523 H 0.21654 0.60341 0.92208 0.0
H524 H 0.23443 0.58905 0.93314 0.0
H525 H 0.24943 0.61453 0.91321 0.0
H526 H 0.27649 0.60088 0.86016 0.0
H527 H 0.32346 0.62115 0.86552 0.0
H528 H 0.64998 0.10174 0.02066 0.0
H529 H 0.6748 0.14334 0.03968 0.0
H530 H 0.61057 0.15712 0.03239 0.0
H531 H 0.5854 0.11522 0.0141 0.0
H532 H 0.68925 0.18836 0.01933 0.0
H533 H 0.6342 0.18417 0.09326 0.0
H534 H 0.62818 0.15531 0.07859 0.0
H535 H 0.61396 0.1742 0.06944 0.0
C536 C 0.64074 0.11312 0.02393 0.0
C537 C 0.61574 0.10522 0.0158 0.0
C538 C 0.65505 0.13703 0.03464 0.0
C539 C 0.64457 0.15339 0.03757 0.0
C540 C 0.61897 0.14472 0.03074 0.0
H541 H 0.72358 0.32002 0.03142 0.0
H542 H 0.69833 0.27298 0.02568 0.0
C543 C 0.60465 0.12083 0.0201 0.0
C544 C 0.6614 0.18076 0.04483 0.0
H545 H 0.66423 0.22711 0.07953 0.0
C546 C 0.68395 0.1967 0.03272 0.0
C547 C 0.65466 0.1917 0.06238 0.0
C548 C 0.63157 0.17537 0.0768 0.0
C549 C 0.69934 0.22338 0.0371 0.0
C550 C 0.69172 0.23463 0.05376 0.0
C551 C 0.66983 0.21855 0.06652 0.0
C552 C 0.70598 0.26312 0.05777 0.0
C553 C 0.72359 0.23933 0.02375 0.0
C554 C 0.71793 0.2732 0.07797 0.0
C555 C 0.73227 0.30013 0.08134 0.0
C556 C 0.73477 0.31742 0.06459 0.0
C557 C 0.72218 0.30723 0.04459 0.0
C558 C 0.70785 0.28034 0.04125 0.0
H559 H 0.73062 0.22697 0.01626 0.0
H560 H 0.7192 0.2491 0.01036 0.0
H561 H 0.73943 0.25452 0.03386 0.0
H562 H 0.7166 0.26025 0.09098 0.0
H563 H 0.74168 0.3074 0.09695 0.0
H564 H 0.52967 0.60057 0.20385 0.0
H565 H 0.51163 0.62348 0.22459 0.0
H566 H 0.51647 0.66752 0.1671 0.0
H567 H 0.53448 0.64508 0.1466 0.0
H568 H 0.53434 0.69744 0.20655 0.0
H569 H 0.43598 0.60949 0.21406 0.0
H570 H 0.46353 0.60722 0.22326 0.0
H571 H 0.45969 0.61119 0.19476 0.0
C572 C 0.52708 0.61535 0.19582 0.0
C573 C 0.5331 0.62083 0.17359 0.0
C574 C 0.51667 0.62828 0.20759 0.0
C575 C 0.51243 0.64696 0.19727 0.0
C576 C 0.51947 0.65311 0.17535 0.0
H577 H 0.41439 0.71112 0.20456 0.0
H578 H 0.43658 0.68639 0.19871 0.0
C579 C 0.52963 0.64018 0.16363 0.0
C580 C 0.49985 0.65978 0.20864 0.0
H581 H 0.4405 0.64936 0.22506 0.0
C582 C 0.51395 0.68692 0.21103 0.0
C583 C 0.47317 0.64597 0.21418 0.0
C584 C 0.45702 0.61687 0.21139 0.0
C585 C 0.50185 0.70078 0.21799 0.0
C586 C 0.47498 0.68705 0.22293 0.0
C587 C 0.46111 0.6598 0.22135 0.0
C588 C 0.46049 0.7008 0.22767 0.0
C589 C 0.51759 0.7301 0.21879 0.0
C590 C 0.46622 0.71675 0.24612 0.0
C591 C 0.4536 0.731 0.24948 0.0
C592 C 0.43496 0.72943 0.23447 0.0
C593 C 0.42871 0.71282 0.21638 0.0
C594 C 0.44132 0.69862 0.21304 0.0
H595 H 0.53678 0.73785 0.2107 0.0
H596 H 0.5069 0.73873 0.21082 0.0
H597 H 0.52103 0.73656 0.23606 0.0
H598 H 0.48066 0.7184 0.25779 0.0
H599 H 0.45872 0.74352 0.26364 0.0
H600 H 0.91378 0.54493 0.32159 0.0
H601 H 0.8722 0.52559 0.34081 0.0
H602 H 0.90097 0.49262 0.38833 0.0
H603 H 0.94285 0.51201 0.36881 0.0
H604 H 0.85325 0.45651 0.37056 0.0
H605 H 0.84982 0.54333 0.3979 0.0
H606 H 0.8577 0.54502 0.36949 0.0
H607 H 0.87967 0.54479 0.3896 0.0
C608 C 0.91139 0.53409 0.33646 0.0
C609 C 0.93145 0.53015 0.34395 0.0
C610 C 0.8877 0.52312 0.34747 0.0
C611 C 0.88357 0.50799 0.36622 0.0
C612 C 0.90384 0.50445 0.37402 0.0
H613 H 0.73177 0.44617 0.43072 0.0
H614 H 0.77882 0.46658 0.4252 0.0
C615 C 0.92773 0.51559 0.363 0.0
C616 C 0.85728 0.49413 0.37621 0.0
H617 H 0.80849 0.50367 0.39451 0.0
C618 C 0.84361 0.46681 0.37618 0.0
C619 C 0.84475 0.50753 0.38378 0.0
C620 C 0.85885 0.53679 0.38543 0.0
C621 C 0.81731 0.4526 0.38232 0.0
C622 C 0.80427 0.46607 0.38833 0.0
C623 C 0.81837 0.49333 0.3896 0.0
C624 C 0.77577 0.45239 0.39222 0.0
C625 C 0.80365 0.42329 0.38202 0.0
C626 C 0.75841 0.43773 0.37549 0.0
C627 C 0.73156 0.4261 0.37858 0.0
C628 C 0.72152 0.429 0.39844 0.0
C629 C 0.73891 0.44351 0.41525 0.0
C630 C 0.76579 0.4552 0.41213 0.0
H631 H 0.81765 0.4162 0.38375 0.0
H632 H 0.78904 0.41478 0.3953 0.0
H633 H 0.79344 0.41611 0.36619 0.0
H634 H 0.76565 0.43577 0.35982 0.0
H635 H 0.71869 0.41516 0.36528 0.0
H636 H 0.05343 0.56271 0.38437 0.0
H637 H 0.07027 0.56275 0.42115 0.0
H638 H 0.13629 0.63886 0.40896 0.0
H639 H 0.11936 0.63922 0.37296 0.0
H640 H 0.1163 0.56535 0.43134 0.0
H641 H 0.11484 0.6489 0.46865 0.0
H642 H 0.09692 0.63343 0.44411 0.0
H643 H 0.13083 0.65799 0.44273 0.0
C644 C 0.07124 0.57958 0.38982 0.0
C645 C 0.08521 0.60085 0.37578 0.0
C646 C 0.08089 0.57956 0.41073 0.0
C647 C 0.10437 0.60098 0.41793 0.0
C648 C 0.11787 0.62238 0.40403 0.0
H649 H 0.22816 0.61689 0.49793 0.0
H650 H 0.19499 0.60681 0.47005 0.0
C651 C 0.10832 0.62241 0.38331 0.0
C652 C 0.11625 0.60066 0.43913 0.0
H653 H 0.14738 0.63942 0.48284 0.0
C654 C 0.12262 0.58123 0.44288 0.0
C655 C 0.12408 0.62107 0.45444 0.0
C656 C 0.11603 0.64134 0.45238 0.0
C657 C 0.13816 0.58267 0.46071 0.0
C658 C 0.14816 0.60451 0.47478 0.0
C659 C 0.14023 0.62293 0.47186 0.0
C660 C 0.16779 0.6094 0.49194 0.0
C661 C 0.14385 0.56088 0.46411 0.0
C662 C 0.16404 0.61513 0.5134 0.0
C663 C 0.18328 0.62155 0.5292 0.0
C664 C 0.2066 0.62222 0.52391 0.0
C665 C 0.2103 0.61633 0.5025 0.0
C666 C 0.1912 0.61028 0.48662 0.0
H667 H 0.12789 0.54223 0.45756 0.0
H668 H 0.16186 0.56542 0.45518 0.0
H669 H 0.14658 0.55822 0.48164 0.0
H670 H 0.14626 0.61478 0.5179 0.0
H671 H 0.17984 0.62591 0.5456 0.0
H672 H 0.48875 0.10727 0.54475 0.0
H673 H 0.51029 0.1268 0.57925 0.0
H674 H 0.54142 0.0751 0.58172 0.0
H675 H 0.51984 0.05553 0.54678 0.0
H676 H 0.5091 0.107 0.62113 0.0
H677 H 0.60637 0.14891 0.58188 0.0
H678 H 0.57665 0.13496 0.56625 0.0
H679 H 0.58565 0.11419 0.58036 0.0
C680 C 0.49977 0.09974 0.55291 0.0
C681 C 0.5028 0.08004 0.5432 0.0
C682 C 0.51207 0.11089 0.57257 0.0
C683 C 0.52779 0.1027 0.58284 0.0
C684 C 0.52967 0.08194 0.57384 0.0
H685 H 0.59861 0.17226 0.70881 0.0
H686 H 0.57641 0.14073 0.67961 0.0
C687 C 0.51719 0.07062 0.55408 0.0
C688 C 0.54331 0.11733 0.60211 0.0
H689 H 0.60525 0.16114 0.61812 0.0
C690 C 0.53015 0.11854 0.62065 0.0
C691 C 0.57074 0.13272 0.6012 0.0
C692 C 0.58581 0.1329 0.58134 0.0
C693 C 0.54361 0.13518 0.63812 0.0
C694 C 0.57101 0.15073 0.63713 0.0
C695 C 0.58425 0.1491 0.61882 0.0
C696 C 0.5861 0.16973 0.6545 0.0
C697 C 0.52829 0.13682 0.65705 0.0
C698 C 0.59969 0.1965 0.6499 0.0
C699 C 0.61255 0.21462 0.66655 0.0
C700 C 0.61208 0.20621 0.68805 0.0
C701 C 0.59918 0.17936 0.69243 0.0
C702 C 0.58638 0.16129 0.6758 0.0
H703 H 0.50728 0.12791 0.65314 0.0
H704 H 0.53022 0.1263 0.67123 0.0
H705 H 0.53585 0.15737 0.66195 0.0
H706 H 0.59978 0.20338 0.63352 0.0
H707 H 0.62237 0.23517 0.66269 0.0
H708 H 0.43077 0.47441 0.72399 0.0
H709 H 0.42981 0.49475 0.75853 0.0
H710 H 0.48181 0.57046 0.73151 0.0
H711 H 0.48247 0.55024 0.6969 0.0
H712 H 0.46683 0.53146 0.78925 0.0
H713 H 0.4138 0.57102 0.7432 0.0
H714 H 0.41956 0.54622 0.73221 0.0
H715 H 0.4451 0.57969 0.73221 0.0
C716 C 0.4427 0.49531 0.72572 0.0
C717 C 0.45655 0.51081 0.70779 0.0
C718 C 0.44203 0.50692 0.74539 0.0
C719 C 0.45525 0.53412 0.74736 0.0
C720 C 0.47106 0.54945 0.73015 0.0
H721 H 0.44696 0.64051 0.83955 0.0
H722 H 0.4587 0.62065 0.80999 0.0
C723 C 0.47158 0.53791 0.71047 0.0
C724 C 0.45029 0.54652 0.76629 0.0
H725 H 0.4239 0.58406 0.77994 0.0
C726 C 0.45746 0.54297 0.78727 0.0
C727 C 0.43783 0.56133 0.76363 0.0
C728 C 0.42838 0.56465 0.74165 0.0
C729 C 0.45296 0.55433 0.80564 0.0
C730 C 0.44065 0.56926 0.80291 0.0
C731 C 0.43348 0.57274 0.78195 0.0
C732 C 0.4346 0.58121 0.82155 0.0
C733 C 0.46174 0.55062 0.82775 0.0
C734 C 0.41698 0.56558 0.83773 0.0
C735 C 0.41015 0.57686 0.85458 0.0
C736 C 0.42077 0.60397 0.85548 0.0
C737 C 0.43847 0.61957 0.83929 0.0
C738 C 0.44523 0.60827 0.82243 0.0
H739 H 0.47639 0.5443 0.82643 0.0
H740 H 0.47019 0.56887 0.83742 0.0
H741 H 0.44474 0.5354 0.83681 0.0
H742 H 0.40812 0.54461 0.8371 0.0
H743 H 0.39642 0.56433 0.8668 0.0
H744 H 0.91766 0.4086 0.86264 0.0
H745 H 0.89876 0.40762 0.89798 0.0
H746 H 0.9708 0.47428 0.91858 0.0
H747 H 0.98983 0.47595 0.88253 0.0
H748 H 0.91488 0.40144 0.93864 0.0
H749 H 0.91593 0.4954 0.93217 0.0
H750 H 0.92081 0.47984 0.90883 0.0
H751 H 0.94644 0.49648 0.92836 0.0
C752 C 0.92945 0.4234 0.87449 0.0
C753 C 0.95511 0.44273 0.86959 0.0
C754 C 0.91866 0.42262 0.89479 0.0
C755 C 0.93323 0.44104 0.91082 0.0
C756 C 0.95908 0.46013 0.90629 0.0
H757 H 0.86384 0.41142 0.04192 0.0
H758 H 0.89521 0.42158 0.01242 0.0
C759 C 0.96997 0.46096 0.88579 0.0
C760 C 0.92085 0.43963 0.93214 0.0
H761 H 0.89635 0.46993 0.96332 0.0
C762 C 0.91111 0.41654 0.94423 0.0
C763 C 0.91575 0.45927 0.93921 0.0
C764 C 0.92507 0.48411 0.92647 0.0
C765 C 0.89557 0.41211 0.96274 0.0
C766 C 0.89015 0.4316 0.96966 0.0
C767 C 0.90062 0.45507 0.958 0.0
C768 C 0.87217 0.42722 0.98802 0.0
C769 C 0.88402 0.38605 0.97399 0.0
C770 C 0.84921 0.42789 0.9843 0.0
C771 C 0.83139 0.42237 0.00118 0.0
C772 C 0.8362 0.41603 0.02208 0.0
C773 C 0.85947 0.41594 0.02591 0.0
C774 C 0.87738 0.42167 0.00906 0.0
H775 H 0.88507 0.37125 0.96366 0.0
H776 H 0.89498 0.38817 0.98924 0.0
H777 H 0.86337 0.3787 0.97836 0.0
H778 H 0.84482 0.43217 0.9682 0.0
H779 H 0.81369 0.4227 0.99777 0.0
H780 H 0.53255 0.9152 0.03329 0.0
H781 H 0.51637 0.89668 0.06912 0.0
H782 H 0.52051 0.9681 0.08961 0.0
H783 H 0.53595 0.9866 0.05303 0.0
H784 H 0.53721 0.91122 0.1094 0.0
H785 H 0.4452 0.9139 0.10319 0.0
H786 H 0.46614 0.91982 0.08003 0.0
H787 H 0.47484 0.94454 0.10041 0.0
C788 C 0.52981 0.92696 0.04532 0.0
C789 C 0.53491 0.95215 0.04018 0.0
C790 C 0.52078 0.91641 0.06588 0.0
C791 C 0.51679 0.9308 0.08194 0.0
C792 C 0.52293 0.95644 0.07729 0.0
H793 H 0.47395 0.85646 0.21135 0.0
H794 H 0.4967 0.88867 0.18268 0.0
C795 C 0.53195 0.96707 0.0565 0.0
C796 C 0.50559 0.91817 0.10318 0.0
H797 H 0.45048 0.89363 0.13405 0.0
C798 C 0.51839 0.90764 0.11499 0.0
C799 C 0.48091 0.9133 0.11025 0.0
C800 C 0.46579 0.92327 0.09779 0.0
C801 C 0.50675 0.89147 0.1331 0.0
C802 C 0.4819 0.8863 0.14001 0.0
C803 C 0.46954 0.89767 0.12873 0.0
C804 C 0.46763 0.86769 0.15789 0.0
C805 C 0.52059 0.87894 0.14385 0.0
C806 C 0.44328 0.84564 0.15372 0.0
C807 C 0.43006 0.82742 0.17016 0.0
C808 C 0.44102 0.83085 0.19105 0.0
C809 C 0.46519 0.85314 0.19532 0.0
C810 C 0.47826 0.87151 0.17893 0.0
H811 H 0.53616 0.87976 0.1333 0.0
H812 H 0.52976 0.88941 0.15921 0.0
H813 H 0.50676 0.85828 0.14789 0.0
H814 H 0.43467 0.84232 0.13762 0.0
H815 H 0.41143 0.81049 0.16644 0.0
H816 H 0.55718 0.48545 0.19763 0.0
H817 H 0.55662 0.46542 0.23265 0.0
H818 H 0.60929 0.54118 0.25938 0.0
H819 H 0.60946 0.56126 0.22447 0.0
H820 H 0.60151 0.46954 0.24725 0.0
H821 H 0.56158 0.50585 0.31095 0.0
H822 H 0.55624 0.50792 0.28219 0.0
H823 H 0.58647 0.53122 0.29468 0.0
C824 C 0.5678 0.49786 0.21127 0.0
C825 C 0.58333 0.52487 0.20841 0.0
C826 C 0.56756 0.48642 0.23122 0.0
C827 C 0.58289 0.50177 0.24867 0.0
C828 C 0.59691 0.52896 0.24633 0.0
H829 H 0.64777 0.4722 0.36428 0.0
H830 H 0.63544 0.4914 0.33452 0.0
C831 C 0.59699 0.54044 0.22637 0.0
C832 C 0.58737 0.48918 0.26778 0.0
H833 H 0.58563 0.48592 0.32345 0.0
C834 C 0.59771 0.47287 0.2639 0.0
C835 C 0.58275 0.49382 0.28949 0.0
C836 C 0.57093 0.51047 0.29462 0.0
C837 C 0.60397 0.46144 0.28108 0.0
C838 C 0.59942 0.46611 0.30279 0.0
C839 C 0.58904 0.48236 0.30676 0.0
C840 C 0.60575 0.45448 0.32151 0.0
C841 C 0.61611 0.44505 0.27588 0.0
C842 C 0.59288 0.42739 0.3242 0.0
C843 C 0.59994 0.41637 0.34109 0.0
C844 C 0.61994 0.43228 0.35566 0.0
C845 C 0.6324 0.45944 0.35323 0.0
C846 C 0.6253 0.47045 0.33632 0.0
H847 H 0.62383 0.44834 0.25897 0.0
H848 H 0.63219 0.44928 0.28739 0.0
H849 H 0.6012 0.42419 0.27751 0.0
H850 H 0.57749 0.41475 0.3131 0.0
H851 H 0.58985 0.39539 0.34265 0.0
H852 H 0.41396 0.91266 0.45198 0.0
H853 H 0.41178 0.89302 0.41676 0.0
H854 H 0.47442 0.96607 0.39312 0.0
H855 H 0.47741 0.98591 0.42907 0.0
H856 H 0.40147 0.90667 0.3767 0.0
H857 H 0.49849 0.91388 0.37803 0.0
H858 H 0.48399 0.91857 0.40218 0.0
H859 H 0.49797 0.94362 0.38185 0.0
C860 C 0.42769 0.92454 0.4395 0.0
C861 C 0.4463 0.95074 0.44352 0.0
C862 C 0.4262 0.91331 0.41926 0.0
C863 C 0.44311 0.92796 0.4024 0.0
C864 C 0.46146 0.9543 0.40606 0.0
H865 H 0.40789 0.85469 0.27262 0.0
H866 H 0.41778 0.88626 0.30194 0.0
C867 C 0.46303 0.96564 0.42651 0.0
C868 C 0.44086 0.91512 0.38112 0.0
H869 H 0.47122 0.89221 0.34823 0.0
C870 C 0.41682 0.90377 0.37028 0.0
C871 C 0.46085 0.91117 0.37297 0.0
C872 C 0.48676 0.92225 0.38436 0.0
C873 C 0.41185 0.88776 0.35199 0.0
C874 C 0.43171 0.8835 0.34398 0.0
C875 C 0.45606 0.89557 0.35438 0.0
C876 C 0.42702 0.86524 0.32576 0.0
C877 C 0.38494 0.87451 0.34214 0.0
C878 C 0.42969 0.84333 0.3292 0.0
C879 C 0.42432 0.82541 0.31242 0.0
C880 C 0.41613 0.82905 0.29189 0.0
C881 C 0.41385 0.8512 0.28836 0.0
C882 C 0.41943 0.86922 0.3051 0.0
H883 H 0.37043 0.87487 0.35331 0.0
H884 H 0.38522 0.88473 0.32691 0.0
H885 H 0.37843 0.85395 0.338 0.0
H886 H 0.43556 0.83989 0.34501 0.0
H887 H 0.42637 0.8086 0.31558 0.0
H888 H 0.55604 0.48075 0.61694 0.0
H889 H 0.57625 0.48043 0.58228 0.0
H890 H 0.50057 0.42844 0.55513 0.0
H891 H 0.48028 0.42896 0.58968 0.0
H892 H 0.5719 0.43548 0.56695 0.0
H893 H 0.5363 0.47735 0.50425 0.0
H894 H 0.53426 0.48213 0.53311 0.0
H895 H 0.51081 0.45223 0.52027 0.0
C896 C 0.5437 0.46989 0.60335 0.0
C897 C 0.51661 0.45487 0.60599 0.0
C898 C 0.55525 0.46968 0.58358 0.0
C899 C 0.53994 0.45449 0.56607 0.0
C900 C 0.51276 0.44073 0.56824 0.0
H901 H 0.56892 0.39272 0.44838 0.0
H902 H 0.55004 0.40432 0.47882 0.0
C903 C 0.50116 0.44104 0.588 0.0
C904 C 0.55252 0.45028 0.54682 0.0
H905 H 0.55606 0.45343 0.49119 0.0
C906 C 0.56868 0.43971 0.5504 0.0
C907 C 0.54806 0.45551 0.52524 0.0
C908 C 0.5316 0.46765 0.52044 0.0
C909 C 0.58009 0.43376 0.53301 0.0
C910 C 0.57558 0.4389 0.51142 0.0
C911 C 0.5595 0.44955 0.50778 0.0
C912 C 0.5871 0.43288 0.49246 0.0
C913 C 0.59627 0.42129 0.53787 0.0
C914 C 0.61418 0.44536 0.48988 0.0
C915 C 0.62502 0.43871 0.47258 0.0
C916 C 0.60894 0.41954 0.45747 0.0
C917 C 0.58181 0.40747 0.45982 0.0
C918 C 0.57099 0.41413 0.47714 0.0
H919 H 0.59271 0.413 0.5546 0.0
H920 H 0.59212 0.40557 0.52599 0.0
H921 H 0.61717 0.43618 0.53657 0.0
H922 H 0.62694 0.46017 0.50134 0.0
H923 H 0.64598 0.44849 0.4711 0.0
H924 H 0.05206 0.50261 0.75883 0.0
H925 H 0.07021 0.51804 0.72214 0.0
H926 H 0.14302 0.52572 0.74301 0.0
H927 H 0.12496 0.50961 0.77893 0.0
H928 H 0.1122 0.56504 0.71032 0.0
H929 H 0.13036 0.48604 0.68686 0.0
H930 H 0.10962 0.48305 0.70947 0.0
H931 H 0.14436 0.49884 0.71303 0.0
C932 C 0.0718 0.50727 0.75539 0.0
C933 C 0.08717 0.50517 0.77181 0.0
C934 C 0.08216 0.51615 0.73452 0.0
C935 C 0.10786 0.52266 0.72975 0.0
C936 C 0.123 0.5203 0.74612 0.0
H937 H 0.22462 0.63274 0.64492 0.0
H938 H 0.19211 0.60948 0.67324 0.0
C939 C 0.11273 0.51144 0.76679 0.0
C940 C 0.1198 0.53329 0.7082 0.0
H941 H 0.1576 0.52764 0.66929 0.0
C942 C 0.1217 0.55662 0.70107 0.0
C943 C 0.13176 0.52206 0.69587 0.0
C944 C 0.12866 0.49596 0.7016 0.0
C945 C 0.13668 0.56987 0.68272 0.0
C946 C 0.15068 0.55986 0.67164 0.0
C947 C 0.14734 0.53566 0.67798 0.0
C948 C 0.16971 0.57449 0.65408 0.0
C949 C 0.13741 0.5945 0.67555 0.0
C950 C 0.16856 0.56233 0.63414 0.0
C951 C 0.18753 0.57536 0.61819 0.0
C952 C 0.20793 0.60088 0.62179 0.0
C953 C 0.20901 0.61314 0.64165 0.0
C954 C 0.19025 0.59995 0.65775 0.0
H955 H 0.11924 0.59429 0.68016 0.0
H956 H 0.1538 0.61138 0.68383 0.0
H957 H 0.14012 0.59735 0.65764 0.0
H958 H 0.15305 0.54266 0.63095 0.0
H959 H 0.18614 0.56546 0.60298 0.0
H960 H 0.60825 0.06856 0.92397 0.0
H961 H 0.6094 0.09161 0.8905 0.0
H962 H 0.55672 0.11309 0.91929 0.0
H963 H 0.55562 0.0902 0.95286 0.0
H964 H 0.57187 0.09139 0.86068 0.0
H965 H 0.62414 0.18303 0.90853 0.0
H966 H 0.61897 0.15231 0.91869 0.0
H967 H 0.59293 0.15936 0.91911 0.0
C968 C 0.59624 0.07745 0.9229 0.0
C969 C 0.58202 0.0778 0.94107 0.0
C970 C 0.59704 0.09075 0.90382 0.0
C971 C 0.58363 0.10455 0.90265 0.0
C972 C 0.56763 0.103 0.92006 0.0
H973 H 0.59765 0.22279 0.81001 0.0
H974 H 0.58416 0.19161 0.84024 0.0
C975 C 0.56691 0.08983 0.93915 0.0
C976 C 0.58836 0.12246 0.88418 0.0
H977 H 0.61569 0.18693 0.87162 0.0
C978 C 0.58135 0.11227 0.86304 0.0
C979 C 0.60085 0.14972 0.88735 0.0
C980 C 0.60989 0.16187 0.90959 0.0
C981 C 0.58638 0.12864 0.84495 0.0
C982 C 0.59915 0.15589 0.8481 0.0
C983 C 0.60581 0.16603 0.86928 0.0
C984 C 0.60682 0.17436 0.8296 0.0
C985 C 0.57782 0.11661 0.82263 0.0
C986 C 0.62442 0.17533 0.8139 0.0
C987 C 0.6322 0.19312 0.79673 0.0
C988 C 0.62265 0.21042 0.795 0.0
C989 C 0.60531 0.2097 0.81091 0.0
C990 C 0.59755 0.19187 0.82813 0.0
H991 H 0.56214 0.09592 0.82367 0.0
H992 H 0.57078 0.12743 0.81266 0.0
H993 H 0.59459 0.11729 0.81409 0.0
H994 H 0.63232 0.16245 0.81502 0.0
H995 H 0.64566 0.19326 0.78477 0.0
H996 H 0.4892 0.55352 0.1137 0.0
H997 H 0.46879 0.55338 0.07898 0.0
H998 H 0.54424 0.60608 0.05188 0.0
H999 H 0.5647 0.60586 0.08648 0.0
H1000 H 0.473 0.59859 0.06486 0.0
H1001 H 0.50812 0.55859 0.00023 0.0
H1002 H 0.51045 0.55303 0.0289 0.0
H1003 H 0.53372 0.58331 0.01649 0.0
C1004 C 0.50145 0.56425 0.10003 0.0
C1005 C 0.52849 0.57968 0.10271 0.0
C1006 C 0.4898 0.56425 0.08025 0.0
C1007 C 0.50496 0.57969 0.0628 0.0
C1008 C 0.53216 0.59361 0.06494 0.0
H1009 H 0.47426 0.64456 0.9477 0.0
H1010 H 0.49373 0.6323 0.9773 0.0
C1011 C 0.54386 0.59347 0.08472 0.0
C1012 C 0.49219 0.58435 0.04391 0.0
H1013 H 0.48813 0.58277 0.98829 0.0
C1014 C 0.47606 0.59481 0.04813 0.0
C1015 C 0.49648 0.57976 0.02209 0.0
C1016 C 0.51295 0.56783 0.01661 0.0
C1017 C 0.46446 0.60122 0.03117 0.0
C1018 C 0.46876 0.59668 0.00935 0.0
C1019 C 0.48484 0.58618 0.00505 0.0
C1020 C 0.45693 0.60311 0.99084 0.0
C1021 C 0.44831 0.61351 0.03673 0.0
C1022 C 0.42981 0.59051 0.9885 0.0
C1023 C 0.41865 0.59754 0.9717 0.0
C1024 C 0.43443 0.61721 0.95685 0.0
C1025 C 0.4616 0.62943 0.95896 0.0
C1026 C 0.47275 0.62238 0.97579 0.0
H1027 H 0.45203 0.62135 0.05362 0.0
H1028 H 0.45231 0.62954 0.02524 0.0
H1029 H 0.4274 0.59863 0.03543 0.0
H1030 H 0.41727 0.57531 -0.00024 0.0
H1031 H 0.39766 0.58762 0.97039 0.0
H1032 H 0.97473 0.56054 0.25573 0.0
H1033 H 0.953 0.5398 0.22143 0.0
H1034 H 0.93004 0.46447 0.24879 0.0
H1035 H 0.95141 0.48509 0.2832 0.0
H1036 H 0.95319 0.50337 0.19081 0.0
H1037 H 0.86093 0.46286 0.23759 0.0
H1038 H 0.8916 0.48787 0.24842 0.0
H1039 H 0.88395 0.45453 0.24823 0.0
C1040 C 0.96583 0.53964 0.25415 0.0
C1041 C 0.96454 0.52437 0.27214 0.0
C1042 C 0.9533 0.5278 0.23461 0.0
C1043 C 0.9394 0.50059 0.2328 0.0
C1044 C 0.94022 0.48548 0.25004 0.0
H1045 H 0.82357 0.39475 0.14051 0.0
H1046 H 0.85514 0.41425 0.1702 0.0
C1047 C 0.95255 0.49726 0.2696 0.0
C1048 C 0.9218 0.488 0.21399 0.0
H1049 H 0.85761 0.45038 0.20072 0.0
C1050 C 0.9323 0.49175 0.19293 0.0
C1051 C 0.89452 0.47303 0.21683 0.0
C1052 C 0.88198 0.46947 0.23894 0.0
C1053 C 0.9162 0.48052 0.17462 0.0
C1054 C 0.88895 0.46553 0.17752 0.0
C1055 C 0.87852 0.46177 0.19858 0.0
C1056 C 0.87072 0.45382 0.15894 0.0
C1057 C 0.92849 0.48447 0.1524 0.0
C1058 C 0.86878 0.46965 0.14293 0.0
C1059 C 0.85069 0.45857 0.126 0.0
C1060 C 0.83414 0.43147 0.12485 0.0
C1061 C 0.83605 0.41568 0.14096 0.0
C1062 C 0.85411 0.42678 0.15789 0.0
H1063 H 0.94945 0.49062 0.15355 0.0
H1064 H 0.91844 0.46637 0.14255 0.0
H1065 H 0.92683 0.49991 0.14365 0.0
H1066 H 0.881 0.4906 0.14371 0.0
H1067 H 0.84964 0.47124 0.11385 0.0
loop_
_geom_bond_atom_site_label_1
_geom_bond_atom_site_label_2
_geom_bond_distance
_geom_bond_site_symmetry_2
_ccdc_geom_bond_type
H0 C8 0.930 . S
H1 C11 0.930 . S
H2 C13 0.930 . S
H3 C14 0.970 . S
H4 C14 0.970 . S
H5 C16 0.930 . S
H6 C18 0.930 . S
H7 C20 0.930 . S
C8 H0 0.930 . S
C8 C9 1.382 . S
C8 C10 1.426 . S
C9 C8 1.382 . S
C9 C13 1.389 . S
C10 C8 1.426 . S
C10 C11 1.375 . S
C10 C14 1.532 1_655 S
C11 H1 0.930 . S
C11 C10 1.375 . S
C11 C12 1.416 . S
C12 C11 1.416 . S
C12 C13 1.371 . S
C13 H2 0.930 . S
C13 C9 1.389 . S
C13 C12 1.371 . S
C14 H3 0.970 . S
C14 H4 0.970 . S
C14 C10 1.532 1_455 S
C14 C15 1.499 . S
C15 C14 1.499 . S
C15 C16 1.370 . S
C15 C20 1.415 . S
C16 H5 0.930 . S
C16 C15 1.370 . S
C16 C17 1.407 . S
C17 C16 1.407 . S
C17 C18 1.365 . S
C18 H6 0.930 . S
C18 C17 1.365 . S
C18 C19 1.393 . S
C19 C18 1.393 . S
C19 C20 1.387 . S
C20 H7 0.930 . S
C20 C15 1.415 . S
C20 C19 1.387 . S
H21 C29 0.930 . S
H22 C32 0.930 . S
H23 C34 0.930 . S
H24 C35 0.970 . S
H25 C35 0.970 . S
H26 C37 0.930 . S
H27 C39 0.930 . S
H28 C41 0.930 . S
C29 H21 0.930 . S
C29 C30 1.382 . S
C29 C31 1.426 . S
C30 C29 1.382 . S
C30 C34 1.389 . S
C31 C29 1.426 . S
C31 C32 1.375 . S
C31 C35 1.532 1_565 S
C32 H22 0.930 . S
C32 C31 1.375 . S
C32 C33 1.416 . S
C33 C32 1.416 . S
C33 C34 1.371 . S
C34 H23 0.930 . S
C34 C30 1.389 . S
C34 C33 1.371 . S
C35 H24 0.970 . S
C35 H25 0.970 . S
C35 C31 1.532 1_545 S
C35 C36 1.499 . S
C36 C35 1.499 . S
C36 C37 1.370 . S
C36 C41 1.415 . S
C37 H26 0.930 . S
C37 C36 1.370 . S
C37 C38 1.407 . S
C38 C37 1.407 . S
C38 C39 1.365 . S
C39 H27 0.930 . S
C39 C38 1.365 . S
C39 C40 1.393 . S
C40 C39 1.393 . S
C40 C41 1.387 . S
C41 H28 0.930 . S
C41 C36 1.415 . S
C41 C40 1.387 . S
H42 C50 0.930 . S
H43 C53 0.930 . S
H44 C55 0.930 . S
H45 C56 0.970 . S
H46 C56 0.970 . S
H47 C58 0.930 . S
H48 C60 0.930 . S
H49 C62 0.930 . S
C50 H42 0.930 . S
C50 C51 1.382 . S
C50 C52 1.426 . S
C51 C50 1.382 . S
C51 C55 1.389 . S
C52 C50 1.426 . S
C52 C53 1.375 . S
C52 C56 1.532 . S
C53 H43 0.930 . S
C53 C52 1.375 . S
C53 C54 1.416 . S
C54 C53 1.416 . S
C54 C55 1.371 . S
C55 H44 0.930 . S
C55 C51 1.389 . S
C55 C54 1.371 . S
C56 H45 0.970 . S
C56 H46 0.970 . S
C56 C52 1.532 . S
C56 C57 1.499 . S
C57 C56 1.499 . S
C57 C58 1.370 . S
C57 C62 1.415 . S
C58 H47 0.930 . S
C58 C57 1.370 . S
C58 C59 1.407 . S
C59 C58 1.407 . S
C59 C60 1.365 . S
C60 H48 0.930 . S
C60 C59 1.365 . S
C60 C61 1.393 . S
C61 C60 1.393 . S
C61 C62 1.387 . S
C62 H49 0.930 . S
C62 C57 1.415 . S
C62 C61 1.387 . S
H63 C71 0.930 . S
H64 C74 0.930 . S
H65 C76 0.930 . S
H66 C77 0.970 . S
H67 C77 0.970 . S
H68 C79 0.930 . S
H69 C81 0.930 . S
H70 C83 0.930 . S
C71 H63 0.930 . S
C71 C72 1.382 . S
C71 C73 1.426 . S
C72 C71 1.382 . S
C72 C76 1.389 . S
C73 C71 1.426 . S
C73 C74 1.375 . S
C73 C77 1.532 1_655 S
C74 H64 0.930 . S
C74 C73 1.375 . S
C74 C75 1.416 . S
C75 C74 1.416 . S
C75 C76 1.371 . S
C76 H65 0.930 . S
C76 C72 1.389 . S
C76 C75 1.371 . S
C77 H66 0.970 . S
C77 H67 0.970 . S
C77 C73 1.532 1_455 S
C77 C78 1.499 . S
C78 C77 1.499 . S
C78 C79 1.370 . S
C78 C83 1.415 . S
C79 H68 0.930 . S
C79 C78 1.370 . S
C79 C80 1.407 . S
C80 C79 1.407 . S
C80 C81 1.365 . S
C81 H69 0.930 . S
C81 C80 1.365 . S
C81 C82 1.393 . S
C82 C81 1.393 . S
C82 C83 1.387 . S
C83 H70 0.930 . S
C83 C78 1.415 . S
C83 C82 1.387 . S
H84 C92 0.930 . S
H85 C95 0.930 . S
H86 C97 0.930 . S
H87 C98 0.970 1_554 S
H88 C98 0.970 . S
H89 C100 0.930 . S
H90 C102 0.930 . S
H91 C104 0.930 . S
C92 H84 0.930 . S
C92 C93 1.382 1_554 S
C92 C94 1.426 1_554 S
C93 C92 1.382 1_556 S
C93 C97 1.389 . S
C94 C92 1.426 1_556 S
C94 C95 1.375 . S
C94 C98 1.532 . S
C95 H85 0.930 . S
C95 C94 1.375 . S
C95 C96 1.416 . S
C96 C95 1.416 . S
C96 C97 1.371 . S
C97 H86 0.930 . S
C97 C93 1.389 . S
C97 C96 1.371 . S
C98 H87 0.970 1_556 S
C98 H88 0.970 . S
C98 C94 1.532 . S
C98 C99 1.499 1_545 S
C99 C98 1.499 1_565 S
C99 C100 1.370 1_556 S
C99 C104 1.415 . S
C100 H89 0.930 . S
C100 C99 1.370 1_554 S
C100 C101 1.407 . S
C101 C100 1.407 . S
C101 C102 1.365 . S
C102 H90 0.930 . S
C102 C101 1.365 . S
C102 C103 1.393 1_554 S
C103 C102 1.393 1_556 S
C103 C104 1.387 . S
C104 H91 0.930 . S
C104 C99 1.415 . S
C104 C103 1.387 . S
H105 C113 0.930 . S
H106 C116 0.930 . S
H107 C118 0.930 . S
H108 C119 0.970 . S
H109 C119 0.970 . S
H110 C121 0.930 . S
H111 C123 0.930 . S
H112 C125 0.930 . S
C113 H105 0.930 . S
C113 C114 1.382 . S
C113 C115 1.426 . S
C114 C113 1.382 . S
C114 C118 1.389 . S
C115 C113 1.426 . S
C115 C116 1.375 . S
C115 C119 1.532 . S
C116 H106 0.930 . S
C116 C115 1.375 . S
C116 C117 1.416 . S
C117 C116 1.416 . S
C117 C118 1.371 . S
C118 H107 0.930 . S
C118 C114 1.389 . S
C118 C117 1.371 . S
C119 H108 0.970 . S
C119 H109 0.970 . S
C119 C115 1.532 . S
C119 C120 1.499 . S
C120 C119 1.499 . S
C120 C121 1.370 . S
C120 C125 1.415 . S
C121 H110 0.930 . S
C121 C120 1.370 . S
C121 C122 1.407 . S
C122 C121 1.407 . S
C122 C123 1.365 . S
C123 H111 0.930 . S
C123 C122 1.365 . S
C123 C124 1.393 . S
C124 C123 1.393 . S
C124 C125 1.387 . S
C125 H112 0.930 . S
C125 C120 1.415 . S
C125 C124 1.387 . S
In126 O127 2.294 . S
In126 O128 2.326 . S
In126 O132 2.266 . S
In126 O133 2.326 . S
In126 O134 2.266 . S
In126 O135 2.326 . S
In126 O137 2.294 . S
In126 O138 2.326 . S
O127 In126 2.294 . S
O127 C136 1.240 . S
O128 In126 2.326 . S
O128 C136 1.252 . S
C129 O132 1.252 . S
C129 O133 1.260 . S
C130 O137 1.240 . S
C130 O138 1.252 . S
C131 O134 1.252 . S
C131 O135 1.260 . S
O132 In126 2.266 . S
O132 C129 1.252 . S
O133 In126 2.326 . S
O133 C129 1.260 . S
O134 In126 2.266 . S
O134 C131 1.252 . S
O135 In126 2.326 . S
O135 C131 1.260 . S
C136 O127 1.240 . S
C136 O128 1.252 . S
O137 In126 2.294 . S
O137 C130 1.240 . S
O138 In126 2.326 . S
O138 C130 1.252 . S
In139 O140 2.294 . S
In139 O141 2.326 . S
In139 O145 2.266 . S
In139 O146 2.326 . S
In139 O147 2.266 . S
In139 O148 2.326 . S
In139 O150 2.294 . S
In139 O151 2.326 . S
O140 In139 2.294 . S
O140 C149 1.240 . S
O141 In139 2.326 . S
O141 C149 1.252 . S
C142 O145 1.252 . S
C142 O146 1.260 . S
C143 O150 1.240 . S
C143 O151 1.252 . S
C144 O147 1.252 . S
C144 O148 1.260 . S
O145 In139 2.266 . S
O145 C142 1.252 . S
O146 In139 2.326 . S
O146 C142 1.260 . S
O147 In139 2.266 . S
O147 C144 1.252 . S
O148 In139 2.326 . S
O148 C144 1.260 . S
C149 O140 1.240 . S
C149 O141 1.252 . S
O150 In139 2.294 . S
O150 C143 1.240 . S
O151 In139 2.326 . S
O151 C143 1.252 . S
In152 O153 2.294 . S
In152 O154 2.326 . S
In152 O158 2.266 . S
In152 O159 2.326 . S
In152 O160 2.266 . S
In152 O161 2.326 . S
In152 O163 2.294 . S
In152 O164 2.326 . S
O153 In152 2.294 . S
O153 C162 1.240 . S
O154 In152 2.326 . S
O154 C162 1.252 . S
C155 O158 1.252 . S
C155 O159 1.260 . S
C156 O163 1.240 . S
C156 O164 1.252 . S
C157 O160 1.252 . S
C157 O161 1.260 . S
O158 In152 2.266 . S
O158 C155 1.252 . S
O159 In152 2.326 . S
O159 C155 1.260 . S
O160 In152 2.266 . S
O160 C157 1.252 . S
O161 In152 2.326 . S
O161 C157 1.260 . S
C162 O153 1.240 . S
C162 O154 1.252 . S
O163 In152 2.294 . S
O163 C156 1.240 . S
O164 In152 2.326 . S
O164 C156 1.252 . S
In165 O166 2.294 . S
In165 O167 2.326 . S
In165 O171 2.266 . S
In165 O172 2.326 . S
In165 O173 2.266 . S
In165 O174 2.326 . S
In165 O176 2.294 . S
In165 O177 2.326 . S
O166 In165 2.294 . S
O166 C175 1.240 . S
O167 In165 2.326 . S
O167 C175 1.252 . S
C168 O171 1.252 . S
C168 O172 1.260 . S
C169 O176 1.240 . S
C169 O177 1.252 . S
C170 O173 1.252 . S
C170 O174 1.260 . S
O171 In165 2.266 . S
O171 C168 1.252 . S
O172 In165 2.326 . S
O172 C168 1.260 . S
O173 In165 2.266 . S
O173 C170 1.252 . S
O174 In165 2.326 . S
O174 C170 1.260 . S
C175 O166 1.240 . S
C175 O167 1.252 . S
O176 In165 2.294 . S
O176 C169 1.240 . S
O177 In165 2.326 . S
O177 C169 1.252 . S
In178 O179 2.294 . S
In178 O180 2.326 . S
In178 O184 2.266 . S
In178 O185 2.326 . S
In178 O186 2.266 . S
In178 O187 2.326 . S
In178 O189 2.294 . S
In178 O190 2.326 . S
O179 In178 2.294 . S
O179 C188 1.240 . S
O180 In178 2.326 . S
O180 C188 1.252 . S
C181 O184 1.252 . S
C181 O185 1.260 . S
C182 O189 1.240 . S
C182 O190 1.252 . S
C183 O186 1.252 . S
C183 O187 1.260 . S
O184 In178 2.266 . S
O184 C181 1.252 . S
O185 In178 2.326 . S
O185 C181 1.260 . S
O186 In178 2.266 . S
O186 C183 1.252 . S
O187 In178 2.326 . S
O187 C183 1.260 . S
C188 O179 1.240 . S
C188 O180 1.252 . S
O189 In178 2.294 . S
O189 C182 1.240 . S
O190 In178 2.326 . S
O190 C182 1.252 . S
In191 O192 2.294 . S
In191 O193 2.326 . S
In191 O197 2.266 . S
In191 O198 2.326 . S
In191 O199 2.266 . S
In191 O200 2.326 . S
In191 O202 2.294 . S
In191 O203 2.326 . S
O192 In191 2.294 . S
O192 C201 1.240 . S
O193 In191 2.326 . S
O193 C201 1.252 . S
C194 O197 1.252 . S
C194 O198 1.260 . S
C195 O202 1.240 . S
C195 O203 1.252 . S
C196 O199 1.252 . S
C196 O200 1.260 . S
O197 In191 2.266 . S
O197 C194 1.252 . S
O198 In191 2.326 . S
O198 C194 1.260 . S
O199 In191 2.266 . S
O199 C196 1.252 . S
O200 In191 2.326 . S
O200 C196 1.260 . S
C201 O192 1.240 . S
C201 O193 1.252 . S
O202 In191 2.294 . S
O202 C195 1.240 . S
O203 In191 2.326 . S
O203 C195 1.252 . S
H204 C212 0.929 . S
H205 C214 0.930 . S
H206 C216 0.930 . S
H207 C219 0.929 . S
H208 C222 0.930 . S
H209 C224 0.960 . S
H210 C224 0.960 . S
H211 C224 0.960 . S
C212 H204 0.929 . S
C212 C213 1.377 . S
C212 C214 1.384 . S
C213 C212 1.377 . S
C213 C219 1.390 . S
C214 H205 0.930 . S
C214 C212 1.384 . S
C214 C215 1.372 . S
C215 C214 1.372 . S
C215 C216 1.400 . S
C215 C220 1.490 . S
C216 H206 0.930 . S
C216 C215 1.400 . S
C216 C219 1.386 . S
H217 C233 0.930 . S
H218 C234 0.931 . S
C219 H207 0.929 . S
C219 C213 1.390 . S
C219 C216 1.386 . S
C220 C215 1.490 . S
C220 C222 1.395 . S
C220 C223 1.403 . S
H221 C227 0.930 . S
C222 H208 0.930 . S
C222 C220 1.395 . S
C222 C225 1.403 . S
C223 C220 1.403 . S
C223 C224 1.524 . S
C223 C227 1.400 . S
C224 H209 0.960 . S
C224 H210 0.960 . S
C224 H211 0.960 . S
C224 C223 1.524 . S
C225 C222 1.403 . S
C225 C226 1.392 . S
C225 C229 1.495 . S
C226 C225 1.392 . S
C226 C227 1.385 . S
C226 C228 1.478 . S
C227 H221 0.930 . S
C227 C223 1.400 . S
C227 C226 1.385 . S
C228 C226 1.478 . S
C228 C230 1.381 . S
C228 C234 1.383 . S
C229 C225 1.495 . S
C229 H235 0.959 . S
C229 H236 0.961 . S
C229 H237 0.960 . S
C230 C228 1.381 . S
C230 C231 1.394 . S
C230 H238 0.930 . S
C231 C230 1.394 . S
C231 C232 1.383 . S
C231 H239 0.929 . S
C232 C231 1.383 . S
C232 C233 1.377 . S
C233 H217 0.930 . S
C233 C232 1.377 . S
C233 C234 1.379 . S
C234 H218 0.931 . S
C234 C228 1.383 . S
C234 C233 1.379 . S
H235 C229 0.959 . S
H236 C229 0.961 . S
H237 C229 0.960 . S
H238 C230 0.930 . S
H239 C231 0.929 . S
H240 C248 0.929 . S
H241 C250 0.930 . S
H242 C252 0.930 . S
H243 C255 0.929 . S
H244 C258 0.930 . S
H245 C260 0.960 . S
H246 C260 0.960 . S
H247 C260 0.960 . S
C248 H240 0.929 . S
C248 C249 1.377 . S
C248 C250 1.384 . S
C249 C248 1.377 . S
C249 C255 1.390 . S
C250 H241 0.930 . S
C250 C248 1.384 . S
C250 C251 1.372 . S
C251 C250 1.372 . S
C251 C252 1.400 . S
C251 C256 1.490 . S
C252 H242 0.930 . S
C252 C251 1.400 . S
C252 C255 1.386 . S
H253 C269 0.930 . S
H254 C270 0.931 . S
C255 H243 0.929 . S
C255 C249 1.390 . S
C255 C252 1.386 . S
C256 C251 1.490 . S
C256 C258 1.395 . S
C256 C259 1.403 . S
H257 C263 0.930 . S
C258 H244 0.930 . S
C258 C256 1.395 . S
C258 C261 1.403 . S
C259 C256 1.403 . S
C259 C260 1.524 . S
C259 C263 1.400 . S
C260 H245 0.960 . S
C260 H246 0.960 . S
C260 H247 0.960 . S
C260 C259 1.524 . S
C261 C258 1.403 . S
C261 C262 1.392 . S
C261 C265 1.495 . S
C262 C261 1.392 . S
C262 C263 1.385 . S
C262 C264 1.478 . S
C263 H257 0.930 . S
C263 C259 1.400 . S
C263 C262 1.385 . S
C264 C262 1.478 . S
C264 C266 1.381 . S
C264 C270 1.383 . S
C265 C261 1.495 . S
C265 H271 0.959 . S
C265 H272 0.961 . S
C265 H273 0.960 . S
C266 C264 1.381 . S
C266 C267 1.394 . S
C266 H274 0.930 . S
C267 C266 1.394 . S
C267 C268 1.383 . S
C267 H275 0.929 . S
C268 C267 1.383 . S
C268 C269 1.377 . S
C269 H253 0.930 . S
C269 C268 1.377 . S
C269 C270 1.379 . S
C270 H254 0.931 . S
C270 C264 1.383 . S
C270 C269 1.379 . S
H271 C265 0.959 . S
H272 C265 0.961 . S
H273 C265 0.960 . S
H274 C266 0.930 . S
H275 C267 0.929 . S
H276 C284 0.929 . S
H277 C286 0.930 . S
H278 C288 0.930 . S
H279 C291 0.929 . S
H280 C294 0.930 . S
H281 C296 0.960 . S
H282 C296 0.960 . S
H283 C296 0.960 . S
C284 H276 0.929 . S
C284 C285 1.377 . S
C284 C286 1.384 . S
C285 C284 1.377 . S
C285 C291 1.390 . S
C286 H277 0.930 . S
C286 C284 1.384 . S
C286 C287 1.372 . S
C287 C286 1.372 . S
C287 C288 1.400 . S
C287 C292 1.490 . S
C288 H278 0.930 . S
C288 C287 1.400 . S
C288 C291 1.386 . S
H289 C305 0.930 . S
H290 C306 0.931 . S
C291 H279 0.929 . S
C291 C285 1.390 . S
C291 C288 1.386 . S
C292 C287 1.490 . S
C292 C294 1.395 . S
C292 C295 1.403 . S
H293 C299 0.930 . S
C294 H280 0.930 . S
C294 C292 1.395 . S
C294 C297 1.403 . S
C295 C292 1.403 . S
C295 C296 1.524 . S
C295 C299 1.400 . S
C296 H281 0.960 . S
C296 H282 0.960 . S
C296 H283 0.960 . S
C296 C295 1.524 . S
C297 C294 1.403 . S
C297 C298 1.392 . S
C297 C301 1.495 . S
C298 C297 1.392 . S
C298 C299 1.385 . S
C298 C300 1.478 . S
C299 H293 0.930 . S
C299 C295 1.400 . S
C299 C298 1.385 . S
C300 C298 1.478 . S
C300 C302 1.381 . S
C300 C306 1.383 . S
C301 C297 1.495 . S
C301 H307 0.959 . S
C301 H308 0.961 . S
C301 H309 0.960 . S
C302 C300 1.381 . S
C302 C303 1.394 . S
C302 H310 0.930 . S
C303 C302 1.394 . S
C303 C304 1.383 . S
C303 H311 0.929 . S
C304 C303 1.383 . S
C304 C305 1.377 . S
C305 H289 0.930 . S
C305 C304 1.377 . S
C305 C306 1.379 . S
C306 H290 0.931 . S
C306 C300 1.383 . S
C306 C305 1.379 . S
H307 C301 0.959 . S
H308 C301 0.961 . S
H309 C301 0.960 . S
H310 C302 0.930 . S
H311 C303 0.929 . S
H312 C320 0.929 . S
H313 C322 0.930 . S
H314 C324 0.930 . S
H315 C327 0.929 . S
H316 C330 0.930 . S
H317 C332 0.960 . S
H318 C332 0.960 . S
H319 C332 0.960 . S
C320 H312 0.929 . S
C320 C321 1.377 . S
C320 C322 1.384 . S
C321 C320 1.377 . S
C321 C327 1.390 . S
C322 H313 0.930 . S
C322 C320 1.384 . S
C322 C323 1.372 . S
C323 C322 1.372 . S
C323 C324 1.400 . S
C323 C328 1.490 . S
C324 H314 0.930 . S
C324 C323 1.400 . S
C324 C327 1.386 . S
H325 C341 0.930 . S
H326 C342 0.931 . S
C327 H315 0.929 . S
C327 C321 1.390 . S
C327 C324 1.386 . S
C328 C323 1.490 . S
C328 C330 1.395 . S
C328 C331 1.403 . S
H329 C335 0.930 . S
C330 H316 0.930 . S
C330 C328 1.395 . S
C330 C333 1.403 . S
C331 C328 1.403 . S
C331 C332 1.524 . S
C331 C335 1.400 . S
C332 H317 0.960 . S
C332 H318 0.960 . S
C332 H319 0.960 . S
C332 C331 1.524 . S
C333 C330 1.403 . S
C333 C334 1.392 . S
C333 C337 1.495 . S
C334 C333 1.392 . S
C334 C335 1.385 . S
C334 C336 1.478 . S
C335 H329 0.930 . S
C335 C331 1.400 . S
C335 C334 1.385 . S
C336 C334 1.478 . S
C336 C338 1.381 . S
C336 C342 1.383 . S
C337 C333 1.495 . S
C337 H343 0.959 . S
C337 H344 0.961 . S
C337 H345 0.960 . S
C338 C336 1.381 . S
C338 C339 1.394 . S
C338 H346 0.930 . S
C339 C338 1.394 . S
C339 C340 1.383 . S
C339 H347 0.929 . S
C340 C339 1.383 . S
C340 C341 1.377 . S
C341 H325 0.930 . S
C341 C340 1.377 . S
C341 C342 1.379 . S
C342 H326 0.931 . S
C342 C336 1.383 . S
C342 C341 1.379 . S
H343 C337 0.959 . S
H344 C337 0.961 . S
H345 C337 0.960 . S
H346 C338 0.930 . S
H347 C339 0.929 . S
H348 C356 0.929 . S
H349 C358 0.930 . S
H350 C360 0.930 . S
H351 C363 0.929 . S
H352 C366 0.930 . S
H353 C368 0.960 . S
H354 C368 0.960 . S
H355 C368 0.960 . S
C356 H348 0.929 . S
C356 C357 1.377 . S
C356 C358 1.384 . S
C357 C356 1.377 . S
C357 C363 1.390 . S
C358 H349 0.930 . S
C358 C356 1.384 . S
C358 C359 1.372 . S
C359 C358 1.372 . S
C359 C360 1.400 . S
C359 C364 1.490 . S
C360 H350 0.930 . S
C360 C359 1.400 . S
C360 C363 1.386 . S
H361 C377 0.930 . S
H362 C378 0.931 . S
C363 H351 0.929 . S
C363 C357 1.390 . S
C363 C360 1.386 . S
C364 C359 1.490 . S
C364 C366 1.395 . S
C364 C367 1.403 . S
H365 C371 0.930 . S
C366 H352 0.930 . S
C366 C364 1.395 . S
C366 C369 1.403 . S
C367 C364 1.403 . S
C367 C368 1.524 . S
C367 C371 1.400 . S
C368 H353 0.960 . S
C368 H354 0.960 . S
C368 H355 0.960 . S
C368 C367 1.524 . S
C369 C366 1.403 . S
C369 C370 1.392 . S
C369 C373 1.495 . S
C370 C369 1.392 . S
C370 C371 1.385 . S
C370 C372 1.478 . S
C371 H365 0.930 . S
C371 C367 1.400 . S
C371 C370 1.385 . S
C372 C370 1.478 . S
C372 C374 1.381 . S
C372 C378 1.383 . S
C373 C369 1.495 . S
C373 H379 0.959 . S
C373 H380 0.961 . S
C373 H381 0.960 . S
C374 C372 1.381 . S
C374 C375 1.394 . S
C374 H382 0.930 . S
C375 C374 1.394 . S
C375 C376 1.383 . S
C375 H383 0.929 . S
C376 C375 1.383 . S
C376 C377 1.377 . S
C377 H361 0.930 . S
C377 C376 1.377 . S
C377 C378 1.379 . S
C378 H362 0.931 . S
C378 C372 1.383 . S
C378 C377 1.379 . S
H379 C373 0.959 . S
H380 C373 0.961 . S
H381 C373 0.960 . S
H382 C374 0.930 . S
H383 C375 0.929 . S
H384 C392 0.929 . S
H385 C394 0.930 . S
H386 C396 0.930 . S
H387 C399 0.929 . S
H388 C402 0.930 . S
H389 C404 0.960 . S
H390 C404 0.960 . S
H391 C404 0.960 . S
C392 H384 0.929 . S
C392 C393 1.377 . S
C392 C394 1.384 . S
C393 C392 1.377 . S
C393 C399 1.390 . S
C394 H385 0.930 . S
C394 C392 1.384 . S
C394 C395 1.372 . S
C395 C394 1.372 . S
C395 C396 1.400 . S
C395 C400 1.490 . S
C396 H386 0.930 . S
C396 C395 1.400 . S
C396 C399 1.386 . S
H397 C413 0.930 . S
H398 C414 0.931 . S
C399 H387 0.929 . S
C399 C393 1.390 . S
C399 C396 1.386 . S
C400 C395 1.490 . S
C400 C402 1.395 . S
C400 C403 1.403 . S
H401 C407 0.930 . S
C402 H388 0.930 . S
C402 C400 1.395 . S
C402 C405 1.403 . S
C403 C400 1.403 . S
C403 C404 1.524 . S
C403 C407 1.400 . S
C404 H389 0.960 . S
C404 H390 0.960 . S
C404 H391 0.960 . S
C404 C403 1.524 . S
C405 C402 1.403 . S
C405 C406 1.392 . S
C405 C409 1.495 . S
C406 C405 1.392 . S
C406 C407 1.385 . S
C406 C408 1.478 . S
C407 H401 0.930 . S
C407 C403 1.400 . S
C407 C406 1.385 . S
C408 C406 1.478 . S
C408 C410 1.381 . S
C408 C414 1.383 . S
C409 C405 1.495 . S
C409 H415 0.959 . S
C409 H416 0.961 . S
C409 H417 0.960 . S
C410 C408 1.381 . S
C410 C411 1.394 . S
C410 H418 0.930 . S
C411 C410 1.394 . S
C411 C412 1.383 . S
C411 H419 0.929 . S
C412 C411 1.383 . S
C412 C413 1.377 . S
C413 H397 0.930 . S
C413 C412 1.377 . S
C413 C414 1.379 . S
C414 H398 0.931 . S
C414 C408 1.383 . S
C414 C413 1.379 . S
H415 C409 0.959 . S
H416 C409 0.961 . S
H417 C409 0.960 . S
H418 C410 0.930 . S
H419 C411 0.929 . S
H420 C428 0.929 . S
H421 C430 0.930 . S
H422 C432 0.930 . S
H423 C435 0.929 . S
H424 C438 0.930 . S
H425 C440 0.960 . S
H426 C440 0.960 . S
H427 C440 0.960 . S
C428 H420 0.929 . S
C428 C429 1.377 . S
C428 C430 1.384 . S
C429 C428 1.377 . S
C429 C435 1.390 . S
C430 H421 0.930 . S
C430 C428 1.384 . S
C430 C431 1.372 . S
C431 C430 1.372 . S
C431 C432 1.400 . S
C431 C436 1.490 . S
C432 H422 0.930 . S
C432 C431 1.400 . S
C432 C435 1.386 . S
H433 C449 0.930 . S
H434 C450 0.931 . S
C435 H423 0.929 . S
C435 C429 1.390 . S
C435 C432 1.386 . S
C436 C431 1.490 . S
C436 C438 1.395 . S
C436 C439 1.403 . S
H437 C443 0.930 . S
C438 H424 0.930 . S
C438 C436 1.395 . S
C438 C441 1.403 . S
C439 C436 1.403 . S
C439 C440 1.524 . S
C439 C443 1.400 . S
C440 H425 0.960 . S
C440 H426 0.960 . S
C440 H427 0.960 . S
C440 C439 1.524 . S
C441 C438 1.403 . S
C441 C442 1.392 . S
C441 C445 1.495 . S
C442 C441 1.392 . S
C442 C443 1.385 . S
C442 C444 1.478 . S
C443 H437 0.930 . S
C443 C439 1.400 . S
C443 C442 1.385 . S
C444 C442 1.478 . S
C444 C446 1.381 . S
C444 C450 1.383 . S
C445 C441 1.495 . S
C445 H451 0.959 . S
C445 H452 0.961 . S
C445 H453 0.960 . S
C446 C444 1.381 . S
C446 C447 1.394 . S
C446 H454 0.930 . S
C447 C446 1.394 . S
C447 C448 1.383 . S
C447 H455 0.929 . S
C448 C447 1.383 . S
C448 C449 1.377 . S
C449 H433 0.930 . S
C449 C448 1.377 . S
C449 C450 1.379 . S
C450 H434 0.931 . S
C450 C444 1.383 . S
C450 C449 1.379 . S
H451 C445 0.959 . S
H452 C445 0.961 . S
H453 C445 0.960 . S
H454 C446 0.930 . S
H455 C447 0.929 . S
H456 C464 0.929 . S
H457 C466 0.930 . S
H458 C468 0.930 . S
H459 C471 0.929 . S
H460 C474 0.930 . S
H461 C476 0.960 . S
H462 C476 0.960 . S
H463 C476 0.960 . S
C464 H456 0.929 . S
C464 C465 1.377 . S
C464 C466 1.384 . S
C465 C464 1.377 . S
C465 C471 1.390 . S
C466 H457 0.930 . S
C466 C464 1.384 . S
C466 C467 1.372 . S
C467 C466 1.372 . S
C467 C468 1.400 . S
C467 C472 1.490 . S
C468 H458 0.930 . S
C468 C467 1.400 . S
C468 C471 1.386 . S
H469 C485 0.930 . S
H470 C486 0.931 . S
C471 H459 0.929 . S
C471 C465 1.390 . S
C471 C468 1.386 . S
C472 C467 1.490 . S
C472 C474 1.395 . S
C472 C475 1.403 . S
H473 C479 0.930 . S
C474 H460 0.930 . S
C474 C472 1.395 . S
C474 C477 1.403 . S
C475 C472 1.403 . S
C475 C476 1.524 . S
C475 C479 1.400 . S
C476 H461 0.960 . S
C476 H462 0.960 . S
C476 H463 0.960 . S
C476 C475 1.524 . S
C477 C474 1.403 . S
C477 C478 1.392 . S
C477 C481 1.495 . S
C478 C477 1.392 . S
C478 C479 1.385 . S
C478 C480 1.478 . S
C479 H473 0.930 . S
C479 C475 1.400 . S
C479 C478 1.385 . S
C480 C478 1.478 . S
C480 C482 1.381 . S
C480 C486 1.383 . S
C481 C477 1.495 . S
C481 H487 0.959 . S
C481 H488 0.961 . S
C481 H489 0.960 . S
C482 C480 1.381 . S
C482 C483 1.394 . S
C482 H490 0.930 . S
C483 C482 1.394 . S
C483 C484 1.383 . S
C483 H491 0.929 . S
C484 C483 1.383 . S
C484 C485 1.377 . S
C485 H469 0.930 . S
C485 C484 1.377 . S
C485 C486 1.379 . S
C486 H470 0.931 . S
C486 C480 1.383 . S
C486 C485 1.379 . S
H487 C481 0.959 . S
H488 C481 0.961 . S
H489 C481 0.960 . S
H490 C482 0.930 . S
H491 C483 0.929 . S
H492 C500 0.929 . S
H493 C502 0.930 . S
H494 C504 0.930 . S
H495 C507 0.929 . S
H496 C510 0.930 . S
H497 C512 0.960 . S
H498 C512 0.960 . S
H499 C512 0.960 . S
C500 H492 0.929 . S
C500 C501 1.377 . S
C500 C502 1.384 . S
C501 C500 1.377 . S
C501 C507 1.390 . S
C502 H493 0.930 . S
C502 C500 1.384 . S
C502 C503 1.372 . S
C503 C502 1.372 . S
C503 C504 1.400 . S
C503 C508 1.490 . S
C504 H494 0.930 . S
C504 C503 1.400 . S
C504 C507 1.386 . S
H505 C521 0.930 . S
H506 C522 0.931 . S
C507 H495 0.929 . S
C507 C501 1.390 . S
C507 C504 1.386 . S
C508 C503 1.490 . S
C508 C510 1.395 . S
C508 C511 1.403 . S
H509 C515 0.930 . S
C510 H496 0.930 . S
C510 C508 1.395 . S
C510 C513 1.403 . S
C511 C508 1.403 . S
C511 C512 1.524 . S
C511 C515 1.400 . S
C512 H497 0.960 . S
C512 H498 0.960 . S
C512 H499 0.960 . S
C512 C511 1.524 . S
C513 C510 1.403 . S
C513 C514 1.392 . S
C513 C517 1.495 . S
C514 C513 1.392 . S
C514 C515 1.385 . S
C514 C516 1.478 . S
C515 H509 0.930 . S
C515 C511 1.400 . S
C515 C514 1.385 . S
C516 C514 1.478 . S
C516 C518 1.381 . S
C516 C522 1.383 . S
C517 C513 1.495 . S
C517 H523 0.959 . S
C517 H524 0.961 . S
C517 H525 0.960 . S
C518 C516 1.381 . S
C518 C519 1.394 . S
C518 H526 0.930 . S
C519 C518 1.394 . S
C519 C520 1.383 . S
C519 H527 0.929 . S
C520 C519 1.383 . S
C520 C521 1.377 . S
C521 H505 0.930 . S
C521 C520 1.377 . S
C521 C522 1.379 . S
C522 H506 0.931 . S
C522 C516 1.383 . S
C522 C521 1.379 . S
H523 C517 0.959 . S
H524 C517 0.961 . S
H525 C517 0.960 . S
H526 C518 0.930 . S
H527 C519 0.929 . S
H528 C536 0.929 . S
H529 C538 0.930 . S
H530 C540 0.930 . S
H531 C543 0.929 . S
H532 C546 0.930 1_556 S
H533 C548 0.960 . S
H534 C548 0.960 . S
H535 C548 0.960 . S
C536 H528 0.929 . S
C536 C537 1.377 . S
C536 C538 1.384 . S
C537 C536 1.377 . S
C537 C543 1.390 . S
C538 H529 0.930 . S
C538 C536 1.384 . S
C538 C539 1.372 . S
C539 C538 1.372 . S
C539 C540 1.400 . S
C539 C544 1.490 . S
C540 H530 0.930 . S
C540 C539 1.400 . S
C540 C543 1.386 . S
H541 C557 0.930 . S
H542 C558 0.931 . S
C543 H531 0.929 . S
C543 C537 1.390 . S
C543 C540 1.386 . S
C544 C539 1.490 . S
C544 C546 1.395 . S
C544 C547 1.403 . S
H545 C551 0.930 . S
C546 H532 0.930 1_554 S
C546 C544 1.395 . S
C546 C549 1.403 . S
C547 C544 1.403 . S
C547 C548 1.524 . S
C547 C551 1.400 . S
C548 H533 0.960 . S
C548 H534 0.960 . S
C548 H535 0.960 . S
C548 C547 1.524 . S
C549 C546 1.403 . S
C549 C550 1.392 . S
C549 C553 1.495 1_554 S
C550 C549 1.392 . S
C550 C551 1.385 . S
C550 C552 1.478 . S
C551 H545 0.930 . S
C551 C547 1.400 . S
C551 C550 1.385 . S
C552 C550 1.478 . S
C552 C554 1.381 . S
C552 C558 1.383 . S
C553 C549 1.495 1_556 S
C553 H559 0.959 . S
C553 H560 0.961 . S
C553 H561 0.960 . S
C554 C552 1.381 . S
C554 C555 1.394 . S
C554 H562 0.930 . S
C555 C554 1.394 . S
C555 C556 1.383 . S
C555 H563 0.929 . S
C556 C555 1.383 . S
C556 C557 1.377 . S
C557 H541 0.930 . S
C557 C556 1.377 . S
C557 C558 1.379 . S
C558 H542 0.931 . S
C558 C552 1.383 . S
C558 C557 1.379 . S
H559 C553 0.959 . S
H560 C553 0.961 . S
H561 C553 0.960 . S
H562 C554 0.930 . S
H563 C555 0.929 . S
H564 C572 0.929 . S
H565 C574 0.930 . S
H566 C576 0.930 . S
H567 C579 0.929 . S
H568 C582 0.930 . S
H569 C584 0.960 . S
H570 C584 0.960 . S
H571 C584 0.960 . S
C572 H564 0.929 . S
C572 C573 1.377 . S
C572 C574 1.384 . S
C573 C572 1.377 . S
C573 C579 1.390 . S
C574 H565 0.930 . S
C574 C572 1.384 . S
C574 C575 1.372 . S
C575 C574 1.372 . S
C575 C576 1.400 . S
C575 C580 1.490 . S
C576 H566 0.930 . S
C576 C575 1.400 . S
C576 C579 1.386 . S
H577 C593 0.930 . S
H578 C594 0.931 . S
C579 H567 0.929 . S
C579 C573 1.390 . S
C579 C576 1.386 . S
C580 C575 1.490 . S
C580 C582 1.395 . S
C580 C583 1.403 . S
H581 C587 0.930 . S
C582 H568 0.930 . S
C582 C580 1.395 . S
C582 C585 1.403 . S
C583 C580 1.403 . S
C583 C584 1.524 . S
C583 C587 1.400 . S
C584 H569 0.960 . S
C584 H570 0.960 . S
C584 H571 0.960 . S
C584 C583 1.524 . S
C585 C582 1.403 . S
C585 C586 1.392 . S
C585 C589 1.495 . S
C586 C585 1.392 . S
C586 C587 1.385 . S
C586 C588 1.478 . S
C587 H581 0.930 . S
C587 C583 1.400 . S
C587 C586 1.385 . S
C588 C586 1.478 . S
C588 C590 1.381 . S
C588 C594 1.383 . S
C589 C585 1.495 . S
C589 H595 0.959 . S
C589 H596 0.961 . S
C589 H597 0.960 . S
C590 C588 1.381 . S
C590 C591 1.394 . S
C590 H598 0.930 . S
C591 C590 1.394 . S
C591 C592 1.383 . S
C591 H599 0.929 . S
C592 C591 1.383 . S
C592 C593 1.377 . S
C593 H577 0.930 . S
C593 C592 1.377 . S
C593 C594 1.379 . S
C594 H578 0.931 . S
C594 C588 1.383 . S
C594 C593 1.379 . S
H595 C589 0.959 . S
H596 C589 0.961 . S
H597 C589 0.960 . S
H598 C590 0.930 . S
H599 C591 0.929 . S
H600 C608 0.929 . S
H601 C610 0.930 . S
H602 C612 0.930 . S
H603 C615 0.929 . S
H604 C618 0.930 . S
H605 C620 0.960 . S
H606 C620 0.960 . S
H607 C620 0.960 . S
C608 H600 0.929 . S
C608 C609 1.377 . S
C608 C610 1.384 . S
C609 C608 1.377 . S
C609 C615 1.390 . S
C610 H601 0.930 . S
C610 C608 1.384 . S
C610 C611 1.372 . S
C611 C610 1.372 . S
C611 C612 1.400 . S
C611 C616 1.490 . S
C612 H602 0.930 . S
C612 C611 1.400 . S
C612 C615 1.386 . S
H613 C629 0.930 . S
H614 C630 0.931 . S
C615 H603 0.929 . S
C615 C609 1.390 . S
C615 C612 1.386 . S
C616 C611 1.490 . S
C616 C618 1.395 . S
C616 C619 1.403 . S
H617 C623 0.930 . S
C618 H604 0.930 . S
C618 C616 1.395 . S
C618 C621 1.403 . S
C619 C616 1.403 . S
C619 C620 1.524 . S
C619 C623 1.400 . S
C620 H605 0.960 . S
C620 H606 0.960 . S
C620 H607 0.960 . S
C620 C619 1.524 . S
C621 C618 1.403 . S
C621 C622 1.392 . S
C621 C625 1.495 . S
C622 C621 1.392 . S
C622 C623 1.385 . S
C622 C624 1.478 . S
C623 H617 0.930 . S
C623 C619 1.400 . S
C623 C622 1.385 . S
C624 C622 1.478 . S
C624 C626 1.381 . S
C624 C630 1.383 . S
C625 C621 1.495 . S
C625 H631 0.959 . S
C625 H632 0.961 . S
C625 H633 0.960 . S
C626 C624 1.381 . S
C626 C627 1.394 . S
C626 H634 0.930 . S
C627 C626 1.394 . S
C627 C628 1.383 . S
C627 H635 0.929 . S
C628 C627 1.383 . S
C628 C629 1.377 . S
C629 H613 0.930 . S
C629 C628 1.377 . S
C629 C630 1.379 . S
C630 H614 0.931 . S
C630 C624 1.383 . S
C630 C629 1.379 . S
H631 C625 0.959 . S
H632 C625 0.961 . S
H633 C625 0.960 . S
H634 C626 0.930 . S
H635 C627 0.929 . S
H636 C644 0.929 . S
H637 C646 0.930 . S
H638 C648 0.930 . S
H639 C651 0.929 . S
H640 C654 0.930 . S
H641 C656 0.960 . S
H642 C656 0.960 . S
H643 C656 0.960 . S
C644 H636 0.929 . S
C644 C645 1.377 . S
C644 C646 1.384 . S
C645 C644 1.377 . S
C645 C651 1.390 . S
C646 H637 0.930 . S
C646 C644 1.384 . S
C646 C647 1.372 . S
C647 C646 1.372 . S
C647 C648 1.400 . S
C647 C652 1.490 . S
C648 H638 0.930 . S
C648 C647 1.400 . S
C648 C651 1.386 . S
H649 C665 0.930 . S
H650 C666 0.931 . S
C651 H639 0.929 . S
C651 C645 1.390 . S
C651 C648 1.386 . S
C652 C647 1.490 . S
C652 C654 1.395 . S
C652 C655 1.403 . S
H653 C659 0.930 . S
C654 H640 0.930 . S
C654 C652 1.395 . S
C654 C657 1.403 . S
C655 C652 1.403 . S
C655 C656 1.524 . S
C655 C659 1.400 . S
C656 H641 0.960 . S
C656 H642 0.960 . S
C656 H643 0.960 . S
C656 C655 1.524 . S
C657 C654 1.403 . S
C657 C658 1.392 . S
C657 C661 1.495 . S
C658 C657 1.392 . S
C658 C659 1.385 . S
C658 C660 1.478 . S
C659 H653 0.930 . S
C659 C655 1.400 . S
C659 C658 1.385 . S
C660 C658 1.478 . S
C660 C662 1.381 . S
C660 C666 1.383 . S
C661 C657 1.495 . S
C661 H667 0.959 . S
C661 H668 0.961 . S
C661 H669 0.960 . S
C662 C660 1.381 . S
C662 C663 1.394 . S
C662 H670 0.930 . S
C663 C662 1.394 . S
C663 C664 1.383 . S
C663 H671 0.929 . S
C664 C663 1.383 . S
C664 C665 1.377 . S
C665 H649 0.930 . S
C665 C664 1.377 . S
C665 C666 1.379 . S
C666 H650 0.931 . S
C666 C660 1.383 . S
C666 C665 1.379 . S
H667 C661 0.959 . S
H668 C661 0.961 . S
H669 C661 0.960 . S
H670 C662 0.930 . S
H671 C663 0.929 . S
H672 C680 0.929 . S
H673 C682 0.930 . S
H674 C684 0.930 . S
H675 C687 0.929 . S
H676 C690 0.930 . S
H677 C692 0.960 . S
H678 C692 0.960 . S
H679 C692 0.960 . S
C680 H672 0.929 . S
C680 C681 1.377 . S
C680 C682 1.384 . S
C681 C680 1.377 . S
C681 C687 1.390 . S
C682 H673 0.930 . S
C682 C680 1.384 . S
C682 C683 1.372 . S
C683 C682 1.372 . S
C683 C684 1.400 . S
C683 C688 1.490 . S
C684 H674 0.930 . S
C684 C683 1.400 . S
C684 C687 1.386 . S
H685 C701 0.930 . S
H686 C702 0.931 . S
C687 H675 0.929 . S
C687 C681 1.390 . S
C687 C684 1.386 . S
C688 C683 1.490 . S
C688 C690 1.395 . S
C688 C691 1.403 . S
H689 C695 0.930 . S
C690 H676 0.930 . S
C690 C688 1.395 . S
C690 C693 1.403 . S
C691 C688 1.403 . S
C691 C692 1.524 . S
C691 C695 1.400 . S
C692 H677 0.960 . S
C692 H678 0.960 . S
C692 H679 0.960 . S
C692 C691 1.524 . S
C693 C690 1.403 . S
C693 C694 1.392 . S
C693 C697 1.495 . S
C694 C693 1.392 . S
C694 C695 1.385 . S
C694 C696 1.478 . S
C695 H689 0.930 . S
C695 C691 1.400 . S
C695 C694 1.385 . S
C696 C694 1.478 . S
C696 C698 1.381 . S
C696 C702 1.383 . S
C697 C693 1.495 . S
C697 H703 0.959 . S
C697 H704 0.961 . S
C697 H705 0.960 . S
C698 C696 1.381 . S
C698 C699 1.394 . S
C698 H706 0.930 . S
C699 C698 1.394 . S
C699 C700 1.383 . S
C699 H707 0.929 . S
C700 C699 1.383 . S
C700 C701 1.377 . S
C701 H685 0.930 . S
C701 C700 1.377 . S
C701 C702 1.379 . S
C702 H686 0.931 . S
C702 C696 1.383 . S
C702 C701 1.379 . S
H703 C697 0.959 . S
H704 C697 0.961 . S
H705 C697 0.960 . S
H706 C698 0.930 . S
H707 C699 0.929 . S
H708 C716 0.929 . S
H709 C718 0.930 . S
H710 C720 0.930 . S
H711 C723 0.929 . S
H712 C726 0.930 . S
H713 C728 0.960 . S
H714 C728 0.960 . S
H715 C728 0.960 . S
C716 H708 0.929 . S
C716 C717 1.377 . S
C716 C718 1.384 . S
C717 C716 1.377 . S
C717 C723 1.390 . S
C718 H709 0.930 . S
C718 C716 1.384 . S
C718 C719 1.372 . S
C719 C718 1.372 . S
C719 C720 1.400 . S
C719 C724 1.490 . S
C720 H710 0.930 . S
C720 C719 1.400 . S
C720 C723 1.386 . S
H721 C737 0.930 . S
H722 C738 0.931 . S
C723 H711 0.929 . S
C723 C717 1.390 . S
C723 C720 1.386 . S
C724 C719 1.490 . S
C724 C726 1.395 . S
C724 C727 1.403 . S
H725 C731 0.930 . S
C726 H712 0.930 . S
C726 C724 1.395 . S
C726 C729 1.403 . S
C727 C724 1.403 . S
C727 C728 1.524 . S
C727 C731 1.400 . S
C728 H713 0.960 . S
C728 H714 0.960 . S
C728 H715 0.960 . S
C728 C727 1.524 . S
C729 C726 1.403 . S
C729 C730 1.392 . S
C729 C733 1.495 . S
C730 C729 1.392 . S
C730 C731 1.385 . S
C730 C732 1.478 . S
C731 H725 0.930 . S
C731 C727 1.400 . S
C731 C730 1.385 . S
C732 C730 1.478 . S
C732 C734 1.381 . S
C732 C738 1.383 . S
C733 C729 1.495 . S
C733 H739 0.959 . S
C733 H740 0.961 . S
C733 H741 0.960 . S
C734 C732 1.381 . S
C734 C735 1.394 . S
C734 H742 0.930 . S
C735 C734 1.394 . S
C735 C736 1.383 . S
C735 H743 0.929 . S
C736 C735 1.383 . S
C736 C737 1.377 . S
C737 H721 0.930 . S
C737 C736 1.377 . S
C737 C738 1.379 . S
C738 H722 0.931 . S
C738 C732 1.383 . S
C738 C737 1.379 . S
H739 C733 0.959 . S
H740 C733 0.961 . S
H741 C733 0.960 . S
H742 C734 0.930 . S
H743 C735 0.929 . S
H744 C752 0.929 . S
H745 C754 0.930 . S
H746 C756 0.930 . S
H747 C759 0.929 . S
H748 C762 0.930 . S
H749 C764 0.960 . S
H750 C764 0.960 . S
H751 C764 0.960 . S
C752 H744 0.929 . S
C752 C753 1.377 . S
C752 C754 1.384 . S
C753 C752 1.377 . S
C753 C759 1.390 . S
C754 H745 0.930 . S
C754 C752 1.384 . S
C754 C755 1.372 . S
C755 C754 1.372 . S
C755 C756 1.400 . S
C755 C760 1.490 . S
C756 H746 0.930 . S
C756 C755 1.400 . S
C756 C759 1.386 . S
H757 C773 0.930 . S
H758 C774 0.931 . S
C759 H747 0.929 . S
C759 C753 1.390 . S
C759 C756 1.386 . S
C760 C755 1.490 . S
C760 C762 1.395 . S
C760 C763 1.403 . S
H761 C767 0.930 . S
C762 H748 0.930 . S
C762 C760 1.395 . S
C762 C765 1.403 . S
C763 C760 1.403 . S
C763 C764 1.524 . S
C763 C767 1.400 . S
C764 H749 0.960 . S
C764 H750 0.960 . S
C764 H751 0.960 . S
C764 C763 1.524 . S
C765 C762 1.403 . S
C765 C766 1.392 . S
C765 C769 1.495 . S
C766 C765 1.392 . S
C766 C767 1.385 . S
C766 C768 1.478 . S
C767 H761 0.930 . S
C767 C763 1.400 . S
C767 C766 1.385 . S
C768 C766 1.478 . S
C768 C770 1.381 . S
C768 C774 1.383 1_556 S
C769 C765 1.495 . S
C769 H775 0.959 . S
C769 H776 0.961 . S
C769 H777 0.960 . S
C770 C768 1.381 . S
C770 C771 1.373 1_556 S
C770 H778 0.930 . S
C771 C770 1.373 1_554 S
C771 C772 1.408 . S
C771 H779 0.926 1_554 S
C772 C771 1.408 . S
C772 C773 1.377 . S
C773 H757 0.930 . S
C773 C772 1.377 . S
C773 C774 1.379 . S
C774 H758 0.931 . S
C774 C768 1.383 1_554 S
C774 C773 1.379 . S
H775 C769 0.959 . S
H776 C769 0.961 . S
H777 C769 0.960 . S
H778 C770 0.930 . S
H779 C771 0.926 1_556 S
H780 C788 0.929 . S
H781 C790 0.930 . S
H782 C792 0.930 . S
H783 C795 0.929 . S
H784 C798 0.930 . S
H785 C800 0.960 . S
H786 C800 0.960 . S
H787 C800 0.960 . S
C788 H780 0.929 . S
C788 C789 1.377 . S
C788 C790 1.384 . S
C789 C788 1.377 . S
C789 C795 1.390 . S
C790 H781 0.930 . S
C790 C788 1.384 . S
C790 C791 1.372 . S
C791 C790 1.372 . S
C791 C792 1.400 . S
C791 C796 1.490 . S
C792 H782 0.930 . S
C792 C791 1.400 . S
C792 C795 1.386 . S
H793 C809 0.930 . S
H794 C810 0.931 . S
C795 H783 0.929 . S
C795 C789 1.390 . S
C795 C792 1.386 . S
C796 C791 1.490 . S
C796 C798 1.395 . S
C796 C799 1.403 . S
H797 C803 0.930 . S
C798 H784 0.930 . S
C798 C796 1.395 . S
C798 C801 1.403 . S
C799 C796 1.403 . S
C799 C800 1.524 . S
C799 C803 1.400 . S
C800 H785 0.960 . S
C800 H786 0.960 . S
C800 H787 0.960 . S
C800 C799 1.524 . S
C801 C798 1.403 . S
C801 C802 1.392 . S
C801 C805 1.495 . S
C802 C801 1.392 . S
C802 C803 1.385 . S
C802 C804 1.478 . S
C803 H797 0.930 . S
C803 C799 1.400 . S
C803 C802 1.385 . S
C804 C802 1.478 . S
C804 C806 1.381 . S
C804 C810 1.383 . S
C805 C801 1.495 . S
C805 H811 0.959 . S
C805 H812 0.961 . S
C805 H813 0.960 . S
C806 C804 1.381 . S
C806 C807 1.394 . S
C806 H814 0.930 . S
C807 C806 1.394 . S
C807 C808 1.383 . S
C807 H815 0.929 . S
C808 C807 1.383 . S
C808 C809 1.377 . S
C809 H793 0.930 . S
C809 C808 1.377 . S
C809 C810 1.379 . S
C810 H794 0.931 . S
C810 C804 1.383 . S
C810 C809 1.379 . S
H811 C805 0.959 . S
H812 C805 0.961 . S
H813 C805 0.960 . S
H814 C806 0.930 . S
H815 C807 0.929 . S
H816 C824 0.929 . S
H817 C826 0.930 . S
H818 C828 0.930 . S
H819 C831 0.929 . S
H820 C834 0.930 . S
H821 C836 0.960 . S
H822 C836 0.960 . S
H823 C836 0.960 . S
C824 H816 0.929 . S
C824 C825 1.377 . S
C824 C826 1.384 . S
C825 C824 1.377 . S
C825 C831 1.390 . S
C826 H817 0.930 . S
C826 C824 1.384 . S
C826 C827 1.372 . S
C827 C826 1.372 . S
C827 C828 1.400 . S
C827 C832 1.490 . S
C828 H818 0.930 . S
C828 C827 1.400 . S
C828 C831 1.386 . S
H829 C845 0.930 . S
H830 C846 0.931 . S
C831 H819 0.929 . S
C831 C825 1.390 . S
C831 C828 1.386 . S
C832 C827 1.490 . S
C832 C834 1.395 . S
C832 C835 1.403 . S
H833 C839 0.930 . S
C834 H820 0.930 . S
C834 C832 1.395 . S
C834 C837 1.403 . S
C835 C832 1.403 . S
C835 C836 1.524 . S
C835 C839 1.400 . S
C836 H821 0.960 . S
C836 H822 0.960 . S
C836 H823 0.960 . S
C836 C835 1.524 . S
C837 C834 1.403 . S
C837 C838 1.392 . S
C837 C841 1.495 . S
C838 C837 1.392 . S
C838 C839 1.385 . S
C838 C840 1.478 . S
C839 H833 0.930 . S
C839 C835 1.400 . S
C839 C838 1.385 . S
C840 C838 1.478 . S
C840 C842 1.381 . S
C840 C846 1.383 . S
C841 C837 1.495 . S
C841 H847 0.959 . S
C841 H848 0.961 . S
C841 H849 0.960 . S
C842 C840 1.381 . S
C842 C843 1.394 . S
C842 H850 0.930 . S
C843 C842 1.394 . S
C843 C844 1.383 . S
C843 H851 0.929 . S
C844 C843 1.383 . S
C844 C845 1.377 . S
C845 H829 0.930 . S
C845 C844 1.377 . S
C845 C846 1.379 . S
C846 H830 0.931 . S
C846 C840 1.383 . S
C846 C845 1.379 . S
H847 C841 0.959 . S
H848 C841 0.961 . S
H849 C841 0.960 . S
H850 C842 0.930 . S
H851 C843 0.929 . S
H852 C860 0.929 . S
H853 C862 0.930 . S
H854 C864 0.930 . S
H855 C867 0.929 . S
H856 C870 0.930 . S
H857 C872 0.960 . S
H858 C872 0.960 . S
H859 C872 0.960 . S
C860 H852 0.929 . S
C860 C861 1.377 . S
C860 C862 1.384 . S
C861 C860 1.377 . S
C861 C867 1.390 . S
C862 H853 0.930 . S
C862 C860 1.384 . S
C862 C863 1.372 . S
C863 C862 1.372 . S
C863 C864 1.400 . S
C863 C868 1.490 . S
C864 H854 0.930 . S
C864 C863 1.400 . S
C864 C867 1.386 . S
H865 C881 0.930 . S
H866 C882 0.931 . S
C867 H855 0.929 . S
C867 C861 1.390 . S
C867 C864 1.386 . S
C868 C863 1.490 . S
C868 C870 1.395 . S
C868 C871 1.403 . S
H869 C875 0.930 . S
C870 H856 0.930 . S
C870 C868 1.395 . S
C870 C873 1.403 . S
C871 C868 1.403 . S
C871 C872 1.524 . S
C871 C875 1.400 . S
C872 H857 0.960 . S
C872 H858 0.960 . S
C872 H859 0.960 . S
C872 C871 1.524 . S
C873 C870 1.403 . S
C873 C874 1.392 . S
C873 C877 1.495 . S
C874 C873 1.392 . S
C874 C875 1.385 . S
C874 C876 1.478 . S
C875 H869 0.930 . S
C875 C871 1.400 . S
C875 C874 1.385 . S
C876 C874 1.478 . S
C876 C878 1.381 . S
C876 C882 1.383 . S
C877 C873 1.495 . S
C877 H883 0.959 . S
C877 H884 0.961 . S
C877 H885 0.960 . S
C878 C876 1.381 . S
C878 C879 1.394 . S
C878 H886 0.930 . S
C879 C878 1.394 . S
C879 C880 1.383 . S
C879 H887 0.929 . S
C880 C879 1.383 . S
C880 C881 1.377 . S
C881 H865 0.930 . S
C881 C880 1.377 . S
C881 C882 1.379 . S
C882 H866 0.931 . S
C882 C876 1.383 . S
C882 C881 1.379 . S
H883 C877 0.959 . S
H884 C877 0.961 . S
H885 C877 0.960 . S
H886 C878 0.930 . S
H887 C879 0.929 . S
H888 C896 0.929 . S
H889 C898 0.930 . S
H890 C900 0.930 . S
H891 C903 0.929 . S
H892 C906 0.930 . S
H893 C908 0.960 . S
H894 C908 0.960 . S
H895 C908 0.960 . S
C896 H888 0.929 . S
C896 C897 1.377 . S
C896 C898 1.384 . S
C897 C896 1.377 . S
C897 C903 1.390 . S
C898 H889 0.930 . S
C898 C896 1.384 . S
C898 C899 1.372 . S
C899 C898 1.372 . S
C899 C900 1.400 . S
C899 C904 1.490 . S
C900 H890 0.930 . S
C900 C899 1.400 . S
C900 C903 1.386 . S
H901 C917 0.930 . S
H902 C918 0.931 . S
C903 H891 0.929 . S
C903 C897 1.390 . S
C903 C900 1.386 . S
C904 C899 1.490 . S
C904 C906 1.395 . S
C904 C907 1.403 . S
H905 C911 0.930 . S
C906 H892 0.930 . S
C906 C904 1.395 . S
C906 C909 1.403 . S
C907 C904 1.403 . S
C907 C908 1.524 . S
C907 C911 1.400 . S
C908 H893 0.960 . S
C908 H894 0.960 . S
C908 H895 0.960 . S
C908 C907 1.524 . S
C909 C906 1.403 . S
C909 C910 1.392 . S
C909 C913 1.495 . S
C910 C909 1.392 . S
C910 C911 1.385 . S
C910 C912 1.478 . S
C911 H905 0.930 . S
C911 C907 1.400 . S
C911 C910 1.385 . S
C912 C910 1.478 . S
C912 C914 1.381 . S
C912 C918 1.383 . S
C913 C909 1.495 . S
C913 H919 0.959 . S
C913 H920 0.961 . S
C913 H921 0.960 . S
C914 C912 1.381 . S
C914 C915 1.394 . S
C914 H922 0.930 . S
C915 C914 1.394 . S
C915 C916 1.383 . S
C915 H923 0.929 . S
C916 C915 1.383 . S
C916 C917 1.377 . S
C917 H901 0.930 . S
C917 C916 1.377 . S
C917 C918 1.379 . S
C918 H902 0.931 . S
C918 C912 1.383 . S
C918 C917 1.379 . S
H919 C913 0.959 . S
H920 C913 0.961 . S
H921 C913 0.960 . S
H922 C914 0.930 . S
H923 C915 0.929 . S
H924 C932 0.929 . S
H925 C934 0.930 . S
H926 C936 0.930 . S
H927 C939 0.929 . S
H928 C942 0.930 . S
H929 C944 0.960 . S
H930 C944 0.960 . S
H931 C944 0.960 . S
C932 H924 0.929 . S
C932 C933 1.377 . S
C932 C934 1.384 . S
C933 C932 1.377 . S
C933 C939 1.390 . S
C934 H925 0.930 . S
C934 C932 1.384 . S
C934 C935 1.372 . S
C935 C934 1.372 . S
C935 C936 1.400 . S
C935 C940 1.490 . S
C936 H926 0.930 . S
C936 C935 1.400 . S
C936 C939 1.386 . S
H937 C953 0.930 . S
H938 C954 0.931 . S
C939 H927 0.929 . S
C939 C933 1.390 . S
C939 C936 1.386 . S
C940 C935 1.490 . S
C940 C942 1.395 . S
C940 C943 1.403 . S
H941 C947 0.930 . S
C942 H928 0.930 . S
C942 C940 1.395 . S
C942 C945 1.403 . S
C943 C940 1.403 . S
C943 C944 1.524 . S
C943 C947 1.400 . S
C944 H929 0.960 . S
C944 H930 0.960 . S
C944 H931 0.960 . S
C944 C943 1.524 . S
C945 C942 1.403 . S
C945 C946 1.392 . S
C945 C949 1.495 . S
C946 C945 1.392 . S
C946 C947 1.385 . S
C946 C948 1.478 . S
C947 H941 0.930 . S
C947 C943 1.400 . S
C947 C946 1.385 . S
C948 C946 1.478 . S
C948 C950 1.381 . S
C948 C954 1.383 . S
C949 C945 1.495 . S
C949 H955 0.959 . S
C949 H956 0.961 . S
C949 H957 0.960 . S
C950 C948 1.381 . S
C950 C951 1.394 . S
C950 H958 0.930 . S
C951 C950 1.394 . S
C951 C952 1.383 . S
C951 H959 0.929 . S
C952 C951 1.383 . S
C952 C953 1.377 . S
C953 H937 0.930 . S
C953 C952 1.377 . S
C953 C954 1.379 . S
C954 H938 0.931 . S
C954 C948 1.383 . S
C954 C953 1.379 . S
H955 C949 0.959 . S
H956 C949 0.961 . S
H957 C949 0.960 . S
H958 C950 0.930 . S
H959 C951 0.929 . S
H960 C968 0.929 . S
H961 C970 0.930 . S
H962 C972 0.930 . S
H963 C975 0.929 . S
H964 C978 0.930 . S
H965 C980 0.960 . S
H966 C980 0.960 . S
H967 C980 0.960 . S
C968 H960 0.929 . S
C968 C969 1.377 . S
C968 C970 1.384 . S
C969 C968 1.377 . S
C969 C975 1.390 . S
C970 H961 0.930 . S
C970 C968 1.384 . S
C970 C971 1.372 . S
C971 C970 1.372 . S
C971 C972 1.400 . S
C971 C976 1.490 . S
C972 H962 0.930 . S
C972 C971 1.400 . S
C972 C975 1.386 . S
H973 C989 0.930 . S
H974 C990 0.931 . S
C975 H963 0.929 . S
C975 C969 1.390 . S
C975 C972 1.386 . S
C976 C971 1.490 . S
C976 C978 1.395 . S
C976 C979 1.403 . S
H977 C983 0.930 . S
C978 H964 0.930 . S
C978 C976 1.395 . S
C978 C981 1.403 . S
C979 C976 1.403 . S
C979 C980 1.524 . S
C979 C983 1.400 . S
C980 H965 0.960 . S
C980 H966 0.960 . S
C980 H967 0.960 . S
C980 C979 1.524 . S
C981 C978 1.403 . S
C981 C982 1.392 . S
C981 C985 1.495 . S
C982 C981 1.392 . S
C982 C983 1.385 . S
C982 C984 1.478 . S
C983 H977 0.930 . S
C983 C979 1.400 . S
C983 C982 1.385 . S
C984 C982 1.478 . S
C984 C986 1.381 . S
C984 C990 1.383 . S
C985 C981 1.495 . S
C985 H991 0.959 . S
C985 H992 0.961 . S
C985 H993 0.960 . S
C986 C984 1.381 . S
C986 C987 1.394 . S
C986 H994 0.930 . S
C987 C986 1.394 . S
C987 C988 1.383 . S
C987 H995 0.929 . S
C988 C987 1.383 . S
C988 C989 1.377 . S
C989 H973 0.930 . S
C989 C988 1.377 . S
C989 C990 1.379 . S
C990 H974 0.931 . S
C990 C984 1.383 . S
C990 C989 1.379 . S
H991 C985 0.959 . S
H992 C985 0.961 . S
H993 C985 0.960 . S
H994 C986 0.930 . S
H995 C987 0.929 . S
H996 C1004 0.929 . S
H997 C1006 0.930 . S
H998 C1008 0.930 . S
H999 C1011 0.929 . S
H1000 C1014 0.930 . S
H1001 C1016 0.960 . S
H1002 C1016 0.960 . S
H1003 C1016 0.960 . S
C1004 H996 0.929 . S
C1004 C1005 1.377 . S
C1004 C1006 1.384 . S
C1005 C1004 1.377 . S
C1005 C1011 1.390 . S
C1006 H997 0.930 . S
C1006 C1004 1.384 . S
C1006 C1007 1.372 . S
C1007 C1006 1.372 . S
C1007 C1008 1.400 . S
C1007 C1012 1.490 . S
C1008 H998 0.930 . S
C1008 C1007 1.400 . S
C1008 C1011 1.386 . S
H1009 C1025 0.930 . S
H1010 C1026 0.931 . S
C1011 H999 0.929 . S
C1011 C1005 1.390 . S
C1011 C1008 1.386 . S
C1012 C1007 1.490 . S
C1012 C1014 1.395 . S
C1012 C1015 1.403 . S
H1013 C1019 0.930 1_556 S
C1014 H1000 0.930 . S
C1014 C1012 1.395 . S
C1014 C1017 1.403 . S
C1015 C1012 1.403 . S
C1015 C1016 1.524 . S
C1015 C1019 1.400 . S
C1016 H1001 0.960 . S
C1016 H1002 0.960 . S
C1016 H1003 0.960 . S
C1016 C1015 1.524 . S
C1017 C1014 1.403 . S
C1017 C1018 1.392 . S
C1017 C1021 1.495 . S
C1018 C1017 1.392 . S
C1018 C1019 1.385 . S
C1018 C1020 1.482 . S
C1019 H1013 0.930 1_554 S
C1019 C1015 1.400 . S
C1019 C1018 1.385 . S
C1020 C1018 1.482 . S
C1020 C1022 1.380 1_554 S
C1020 C1026 1.380 1_554 S
C1021 C1017 1.495 . S
C1021 H1027 0.959 . S
C1021 H1028 0.961 . S
C1021 H1029 0.960 . S
C1022 C1020 1.380 1_556 S
C1022 C1023 1.394 . S
C1022 H1030 0.930 1_556 S
C1023 C1022 1.394 . S
C1023 C1024 1.383 . S
C1023 H1031 0.929 . S
C1024 C1023 1.383 . S
C1024 C1025 1.377 . S
C1025 H1009 0.930 . S
C1025 C1024 1.377 . S
C1025 C1026 1.379 . S
C1026 H1010 0.931 . S
C1026 C1020 1.380 1_556 S
C1026 C1025 1.379 . S
H1027 C1021 0.959 . S
H1028 C1021 0.961 . S
H1029 C1021 0.960 . S
H1030 C1022 0.930 1_554 S
H1031 C1023 0.929 . S
H1032 C1040 0.929 . S
H1033 C1042 0.930 . S
H1034 C1044 0.930 . S
H1035 C1047 0.929 . S
H1036 C1050 0.930 . S
H1037 C1052 0.960 . S
H1038 C1052 0.960 . S
H1039 C1052 0.960 . S
C1040 H1032 0.929 . S
C1040 C1041 1.377 . S
C1040 C1042 1.384 . S
C1041 C1040 1.377 . S
C1041 C1047 1.390 . S
C1042 H1033 0.930 . S
C1042 C1040 1.384 . S
C1042 C1043 1.372 . S
C1043 C1042 1.372 . S
C1043 C1044 1.400 . S
C1043 C1048 1.490 . S
C1044 H1034 0.930 . S
C1044 C1043 1.400 . S
C1044 C1047 1.386 . S
H1045 C1061 0.930 . S
H1046 C1062 0.931 . S
C1047 H1035 0.929 . S
C1047 C1041 1.390 . S
C1047 C1044 1.386 . S
C1048 C1043 1.490 . S
C1048 C1050 1.395 . S
C1048 C1051 1.403 . S
H1049 C1055 0.930 . S
C1050 H1036 0.930 . S
C1050 C1048 1.395 . S
C1050 C1053 1.403 . S
C1051 C1048 1.403 . S
C1051 C1052 1.524 . S
C1051 C1055 1.400 . S
C1052 H1037 0.960 . S
C1052 H1038 0.960 . S
C1052 H1039 0.960 . S
C1052 C1051 1.524 . S
C1053 C1050 1.403 . S
C1053 C1054 1.392 . S
C1053 C1057 1.495 . S
C1054 C1053 1.392 . S
C1054 C1055 1.385 . S
C1054 C1056 1.478 . S
C1055 H1049 0.930 . S
C1055 C1051 1.400 . S
C1055 C1054 1.385 . S
C1056 C1054 1.478 . S
C1056 C1058 1.381 . S
C1056 C1062 1.383 . S
C1057 C1053 1.495 . S
C1057 H1063 0.959 . S
C1057 H1064 0.961 . S
C1057 H1065 0.960 . S
C1058 C1056 1.381 . S
C1058 C1059 1.394 . S
C1058 H1066 0.930 . S
C1059 C1058 1.394 . S
C1059 C1060 1.383 . S
C1059 H1067 0.929 . S
C1060 C1059 1.383 . S
C1060 C1061 1.377 . S
C1061 H1045 0.930 . S
C1061 C1060 1.377 . S
C1061 C1062 1.379 . S
C1062 H1046 0.931 . S
C1062 C1056 1.383 . S
C1062 C1061 1.379 . S
H1063 C1057 0.959 . S
H1064 C1057 0.961 . S
H1065 C1057 0.960 . S
H1066 C1058 0.930 . S
H1067 C1059 0.929 . S
C232 C196 1.636 . S
C213 C19 1.560 . S
C249 C40 1.578 . S
C268 C131 1.635 . S
C285 C51 1.570 . S
C304 C149 1.641 . S
C321 C72 1.553 . S
C340 C162 1.621 . S
C376 C170 1.641 . S
C357 C103 1.565 . S
C393 C114 1.550 . S
C412 C182 1.641 . S
C429 C30 1.566 . S
C448 C144 1.654 . S
C465 C61 1.567 . S
C484 C157 1.636 . S
C501 C82 1.560 . S
C520 C175 1.632 . S
C556 C181 1.642 . S
C537 C93 1.563 1_554 S
C592 C201 1.616 . S
C573 C124 1.563 . S
C628 C136 1.641 . S
C609 C9 1.550 . S
C645 C17 1.551 . S
C664 C142 1.618 . S
C681 C38 1.541 . S
C700 C155 1.617 . S
C736 C169 1.610 . S
C717 C54 1.531 . S
C753 C75 1.545 . S
C772 C183 1.624 . S
C808 C195 1.608 . S
C789 C101 1.535 . S
C844 C130 1.610 . S
C825 C117 1.538 . S
C880 C194 1.616 . S
C861 C33 1.540 . S
C897 C59 1.548 . S
C916 C129 1.617 . S
C952 C143 1.616 . S
C933 C80 1.545 . S
C969 C96 1.528 . S
C988 C156 1.606 . S
C1005 C122 1.552 . S
C1024 C168 1.621 . S
C1041 C12 1.536 . S
C1060 C188 1.616 . S
