# Generated by pormake.
# Topology ctn, (3,4)-cn, num edge types: 1
# Building blocks:
#     Node 0, Type 0, BuildingBlock: ESEHIV_clean_linker_0, # of connection points: 3
#     Node 1, Type 0, BuildingBlock: ESEHIV_clean_linker_0, # of connection points: 3
#     Node 2, Type 0, BuildingBlock: ESEHIV_clean_linker_0, # of connection points: 3
#     Node 3, Type 0, BuildingBlock: ESEHIV_clean_linker_0, # of connection points: 3
#     Node 4, Type 0, BuildingBlock: ESEHIV_clean_linker_0, # of connection points: 3
#     Node 5, Type 0, BuildingBlock: ESEHIV_clean_linker_0, # of connection points: 3
#     Node 6, Type 0, BuildingBlock: ESEHIV_clean_linker_0, # of connection points: 3
#     Node 7, Type 0, BuildingBlock: ESEHIV_clean_linker_0, # of connection points: 3
#     Node 8, Type 0, BuildingBlock: ESEHIV_clean_linker_0, # of connection points: 3
#     Node 9, Type 0, BuildingBlock: ESEHIV_clean_linker_0, # of connection points: 3
#     Node 10, Type 0, BuildingBlock: ESEHIV_clean_linker_0, # of connection points: 3
#     Node 11, Type 0, BuildingBlock: ESEHIV_clean_linker_0, # of connection points: 3
#     Node 12, Type 0, BuildingBlock: ESEHIV_clean_linker_0, # of connection points: 3
#     Node 13, Type 0, BuildingBlock: ESEHIV_clean_linker_0, # of connection points: 3
#     Node 14, Type 0, BuildingBlock: ESEHIV_clean_linker_0, # of connection points: 3
#     Node 15, Type 0, BuildingBlock: ESEHIV_clean_linker_0, # of connection points: 3
#     Node 16, Type 1, BuildingBlock: NAHDIM_clean_sbu_0, # of connection points: 4
#     Node 17, Type 1, BuildingBlock: NAHDIM_clean_sbu_0, # of connection points: 4
#     Node 18, Type 1, BuildingBlock: NAHDIM_clean_sbu_0, # of connection points: 4
#     Node 19, Type 1, BuildingBlock: NAHDIM_clean_sbu_0, # of connection points: 4
#     Node 20, Type 1, BuildingBlock: NAHDIM_clean_sbu_0, # of connection points: 4
#     Node 21, Type 1, BuildingBlock: NAHDIM_clean_sbu_0, # of connection points: 4
#     Node 22, Type 1, BuildingBlock: NAHDIM_clean_sbu_0, # of connection points: 4
#     Node 23, Type 1, BuildingBlock: NAHDIM_clean_sbu_0, # of connection points: 4
#     Node 24, Type 1, BuildingBlock: NAHDIM_clean_sbu_0, # of connection points: 4
#     Node 25, Type 1, BuildingBlock: NAHDIM_clean_sbu_0, # of connection points: 4
#     Node 26, Type 1, BuildingBlock: NAHDIM_clean_sbu_0, # of connection points: 4
#     Node 27, Type 1, BuildingBlock: NAHDIM_clean_sbu_0, # of connection points: 4
#     Edge 28, Type (0, 1), BuildingBlock: XIVTED_clean_linker_0, # of connection points: 2
#     Edge 29, Type (0, 1), BuildingBlock: XIVTED_clean_linker_0, # of connection points: 2
#     Edge 30, Type (0, 1), BuildingBlock: XIVTED_clean_linker_0, # of connection points: 2
#     Edge 31, Type (0, 1), BuildingBlock: XIVTED_clean_linker_0, # of connection points: 2
#     Edge 32, Type (0, 1), BuildingBlock: XIVTED_clean_linker_0, # of connection points: 2
#     Edge 33, Type (0, 1), BuildingBlock: XIVTED_clean_linker_0, # of connection points: 2
#     Edge 34, Type (0, 1), BuildingBlock: XIVTED_clean_linker_0, # of connection points: 2
#     Edge 35, Type (0, 1), BuildingBlock: XIVTED_clean_linker_0, # of connection points: 2
#     Edge 36, Type (0, 1), BuildingBlock: XIVTED_clean_linker_0, # of connection points: 2
#     Edge 37, Type (0, 1), BuildingBlock: XIVTED_clean_linker_0, # of connection points: 2
#     Edge 38, Type (0, 1), BuildingBlock: XIVTED_clean_linker_0, # of connection points: 2
#     Edge 39, Type (0, 1), BuildingBlock: XIVTED_clean_linker_0, # of connection points: 2
#     Edge 40, Type (0, 1), BuildingBlock: XIVTED_clean_linker_0, # of connection points: 2
#     Edge 41, Type (0, 1), BuildingBlock: XIVTED_clean_linker_0, # of connection points: 2
#     Edge 42, Type (0, 1), BuildingBlock: XIVTED_clean_linker_0, # of connection points: 2
#     Edge 43, Type (0, 1), BuildingBlock: XIVTED_clean_linker_0, # of connection points: 2
#     Edge 44, Type (0, 1), BuildingBlock: XIVTED_clean_linker_0, # of connection points: 2
#     Edge 45, Type (0, 1), BuildingBlock: XIVTED_clean_linker_0, # of connection points: 2
#     Edge 46, Type (0, 1), BuildingBlock: XIVTED_clean_linker_0, # of connection points: 2
#     Edge 47, Type (0, 1), BuildingBlock: XIVTED_clean_linker_0, # of connection points: 2
#     Edge 48, Type (0, 1), BuildingBlock: XIVTED_clean_linker_0, # of connection points: 2
#     Edge 49, Type (0, 1), BuildingBlock: XIVTED_clean_linker_0, # of connection points: 2
#     Edge 50, Type (0, 1), BuildingBlock: XIVTED_clean_linker_0, # of connection points: 2
#     Edge 51, Type (0, 1), BuildingBlock: XIVTED_clean_linker_0, # of connection points: 2
#     Edge 52, Type (0, 1), BuildingBlock: XIVTED_clean_linker_0, # of connection points: 2
#     Edge 53, Type (0, 1), BuildingBlock: XIVTED_clean_linker_0, # of connection points: 2
#     Edge 54, Type (0, 1), BuildingBlock: XIVTED_clean_linker_0, # of connection points: 2
#     Edge 55, Type (0, 1), BuildingBlock: XIVTED_clean_linker_0, # of connection points: 2
#     Edge 56, Type (0, 1), BuildingBlock: XIVTED_clean_linker_0, # of connection points: 2
#     Edge 57, Type (0, 1), BuildingBlock: XIVTED_clean_linker_0, # of connection points: 2
#     Edge 58, Type (0, 1), BuildingBlock: XIVTED_clean_linker_0, # of connection points: 2
#     Edge 59, Type (0, 1), BuildingBlock: XIVTED_clean_linker_0, # of connection points: 2
#     Edge 60, Type (0, 1), BuildingBlock: XIVTED_clean_linker_0, # of connection points: 2
#     Edge 61, Type (0, 1), BuildingBlock: XIVTED_clean_linker_0, # of connection points: 2
#     Edge 62, Type (0, 1), BuildingBlock: XIVTED_clean_linker_0, # of connection points: 2
#     Edge 63, Type (0, 1), BuildingBlock: XIVTED_clean_linker_0, # of connection points: 2
#     Edge 64, Type (0, 1), BuildingBlock: XIVTED_clean_linker_0, # of connection points: 2
#     Edge 65, Type (0, 1), BuildingBlock: XIVTED_clean_linker_0, # of connection points: 2
#     Edge 66, Type (0, 1), BuildingBlock: XIVTED_clean_linker_0, # of connection points: 2
#     Edge 67, Type (0, 1), BuildingBlock: XIVTED_clean_linker_0, # of connection points: 2
#     Edge 68, Type (0, 1), BuildingBlock: XIVTED_clean_linker_0, # of connection points: 2
#     Edge 69, Type (0, 1), BuildingBlock: XIVTED_clean_linker_0, # of connection points: 2
#     Edge 70, Type (0, 1), BuildingBlock: XIVTED_clean_linker_0, # of connection points: 2
#     Edge 71, Type (0, 1), BuildingBlock: XIVTED_clean_linker_0, # of connection points: 2
#     Edge 72, Type (0, 1), BuildingBlock: XIVTED_clean_linker_0, # of connection points: 2
#     Edge 73, Type (0, 1), BuildingBlock: XIVTED_clean_linker_0, # of connection points: 2
#     Edge 74, Type (0, 1), BuildingBlock: XIVTED_clean_linker_0, # of connection points: 2
#     Edge 75, Type (0, 1), BuildingBlock: XIVTED_clean_linker_0, # of connection points: 2
# Relax obj value: 0.002
# Max RMSD: 0.033
# Mean RMSD: 0.017
data_MOF--net-ctn--node1-NAHDIM_clean_sbu_0--node2-ESEHIV_clean_linker_0--edge1-XIVTED_clean_linker_0
_symmetry_space_group_name_H-M    P1
_symmetry_Int_Tables_number       1
_symmetry_cell_setting            triclinic
loop_
_symmetry_equiv_pos_as_xyz
'x, y, z'
_cell_length_a     52.180558
_cell_length_b     52.408439
_cell_length_c     51.836185
_cell_angle_alpha  91.191928
_cell_angle_beta   90.055529
_cell_angle_gamma 92.535686
loop_
_atom_site_label
_atom_site_type_symbol
_atom_site_fract_x
_atom_site_fract_y
_atom_site_fract_z
_atom_type_partial_charge
H0 H 0.99367 0.06835 0.03274 0.0
H1 H 0.04045 0.00913 0.06019 0.0
H2 H 0.06202 0.04941 0.99159 0.0
C3 C 0.01035 0.0569 0.03065 0.0
C4 C 0.02748 0.06142 0.01017 0.0
C5 C 0.0147 0.03784 0.0486 0.0
C6 C 0.03651 0.02325 0.0459 0.0
C7 C 0.05381 0.02742 0.02553 0.0
C8 C 0.04908 0.04649 0.00771 0.0
H9 H 0.28363 0.68351 0.26169 0.0
H10 H 0.30754 0.75469 0.2277 0.0
H11 H 0.24534 0.70888 0.19384 0.0
C12 C 0.28124 0.69768 0.24704 0.0
C13 C 0.26218 0.6937 0.22802 0.0
C14 C 0.29755 0.71969 0.24706 0.0
C15 C 0.29478 0.73779 0.22783 0.0
C16 C 0.27616 0.73395 0.20841 0.0
C17 C 0.25976 0.71197 0.20877 0.0
H18 H 0.95482 0.49674 0.05857 0.0
H19 H -0.00161 0.43275 0.03459 0.0
H20 H 0.94088 0.46078 0.98423 0.0
C21 C 0.95897 0.48205 0.04434 0.0
C22 C 0.94559 0.48087 0.0208 0.0
C23 C 0.97814 0.46488 0.04939 0.0
C24 C 0.98376 0.44621 0.0307 0.0
C25 C 0.97045 0.44463 0.00711 0.0
C26 C 0.95158 0.46222 0.00218 0.0
H27 H 0.67681 0.76028 0.19426 0.0
H28 H 0.73993 0.80857 0.16826 0.0
H29 H 0.69571 0.83123 0.23435 0.0
C30 C 0.6889 0.77756 0.19642 0.0
C31 C 0.68414 0.79504 0.2165 0.0
C32 C 0.70887 0.78242 0.17886 0.0
C33 C 0.72443 0.80483 0.18176 0.0
C34 C 0.71987 0.82258 0.20176 0.0
C35 C 0.69959 0.81756 0.21902 0.0
H36 H 0.9899 0.94303 0.44942 0.0
H37 H 0.0384 0.00481 0.42131 0.0
H38 H 0.05909 0.96633 0.49023 0.0
C39 C 0.00692 0.95553 0.4514 0.0
C40 C 0.0238 0.95245 0.47212 0.0
C41 C 0.01199 0.9744 0.43301 0.0
C42 C 0.03424 0.99035 0.43554 0.0
C43 C 0.05136 0.98754 0.45611 0.0
C44 C 0.0459 0.96864 0.47437 0.0
H45 H 0.17336 0.75602 0.80691 0.0
H46 H 0.23858 0.71559 0.83196 0.0
H47 H 0.19593 0.6891 0.76488 0.0
C48 C 0.18636 0.74062 0.80425 0.0
C49 C 0.18239 0.72305 0.78365 0.0
C50 C 0.20643 0.73795 0.82194 0.0
C51 C 0.22265 0.71743 0.81879 0.0
C52 C 0.21904 0.69976 0.79823 0.0
C53 C 0.19884 0.70269 0.78077 0.0
H54 H 0.95038 0.54753 0.51245 0.0
H55 H 0.00824 0.57146 0.45797 0.0
H56 H 0.96368 0.50143 0.44459 0.0
C57 C 0.96069 0.54441 0.4946 0.0
C58 C 0.95479 0.52237 0.4795 0.0
C59 C 0.98006 0.56216 0.48707 0.0
C60 C 0.99349 0.55769 0.46408 0.0
C61 C 0.98779 0.5358 0.44868 0.0
C62 C 0.9686 0.51806 0.45668 0.0
H63 H 0.74452 0.78327 0.80956 0.0
H64 H 0.78979 0.80897 0.74505 0.0
H65 H 0.80665 0.73896 0.782 0.0
C66 C 0.75996 0.78042 0.79598 0.0
C67 C 0.7746 0.75865 0.79769 0.0
C68 C 0.76547 0.79879 0.77719 0.0
C69 C 0.78573 0.79508 0.75987 0.0
C70 C 0.80052 0.77342 0.76128 0.0
C71 C 0.79474 0.75526 0.78018 0.0
H72 H 0.25135 0.29776 0.31817 0.0
H73 H 0.29434 0.3181 0.2505 0.0
H74 H 0.31395 0.25244 0.29353 0.0
C75 C 0.26699 0.29424 0.30502 0.0
C76 C 0.28209 0.27305 0.30851 0.0
C77 C 0.27143 0.31069 0.28433 0.0
C78 C 0.29092 0.30552 0.26659 0.0
C79 C 0.30612 0.28431 0.2696 0.0
C80 C 0.30166 0.26826 0.29066 0.0
H81 H 0.46934 0.00857 0.55487 0.0
H82 H 0.51317 0.94417 0.53242 0.0
H83 H 0.45008 0.96588 0.4854 0.0
C84 C 0.47333 0.99332 0.54122 0.0
C85 C 0.45774 0.98948 0.51929 0.0
C86 C 0.49322 0.97691 0.54629 0.0
C87 C 0.49753 0.95659 0.52895 0.0
C88 C 0.48211 0.95249 0.50689 0.0
C89 C 0.46225 0.96904 0.50222 0.0
H90 H 0.19197 0.2548 0.68899 0.0
H91 H 0.25324 0.30793 0.66806 0.0
H92 H 0.20438 0.32532 0.73206 0.0
C93 C 0.20298 0.27255 0.69247 0.0
C94 C 0.19594 0.28899 0.71278 0.0
C95 C 0.22355 0.27923 0.6761 0.0
C96 C 0.23695 0.30281 0.68013 0.0
C97 C 0.23001 0.31961 0.7001 0.0
C98 C 0.20963 0.31249 0.71647 0.0
H99 H 0.78727 0.18351 0.75005 0.0
H100 H 0.81207 0.24256 0.69807 0.0
H101 H 0.7433 0.19704 0.6817 0.0
C102 C 0.78446 0.19411 0.73261 0.0
C103 C 0.76328 0.18773 0.71659 0.0
C104 C 0.80211 0.21397 0.72616 0.0
C105 C 0.79843 0.22737 0.70339 0.0
C106 C 0.77726 0.22141 0.68737 0.0
C107 C 0.75968 0.20165 0.69408 0.0
H108 H 0.49289 0.55744 0.53654 0.0
H109 H 0.54369 0.50281 0.56674 0.0
H110 H 0.56237 0.54127 0.49627 0.0
C111 C 0.51042 0.54715 0.53517 0.0
C112 C 0.52706 0.55156 0.51432 0.0
C113 C 0.51608 0.52933 0.55402 0.0
C114 C 0.53873 0.51589 0.55179 0.0
C115 C 0.55562 0.52013 0.53106 0.0
C116 C 0.54945 0.53782 0.5123 0.0
H117 H 0.49093 0.43779 0.9554 0.0
H118 H 0.53708 0.50304 0.93182 0.0
H119 H 0.55656 0.46367 0.00063 0.0
C120 C 0.50716 0.4511 0.95863 0.0
C121 C 0.52334 0.44811 0.97994 0.0
C122 C 0.51178 0.47108 0.94139 0.0
C123 C 0.53295 0.48812 0.94557 0.0
C124 C 0.54934 0.48553 0.96678 0.0
C125 C 0.54437 0.46546 0.98389 0.0
H126 H 0.68392 0.26467 0.30641 0.0
H127 H 0.7521 0.22219 0.31622 0.0
H128 H 0.69379 0.19557 0.26246 0.0
C129 C 0.69568 0.24883 0.3013 0.0
C130 C 0.68652 0.23084 0.28269 0.0
C131 C 0.71924 0.24584 0.31391 0.0
C132 C 0.73372 0.22467 0.30712 0.0
C133 C 0.72444 0.20623 0.289 0.0
C134 C 0.7008 0.20944 0.2769 0.0
H135 H 0.44281 0.03823 0.01409 0.0
H136 H 0.50976 0.05936 0.9698 0.0
H137 H 0.46218 0.99381 0.94669 0.0
C138 C 0.45534 0.03476 -0.00215 0.0
C139 C 0.44981 0.01395 0.98091 0.0
C140 C 0.47681 0.05132 0.99387 0.0
C141 C 0.49312 0.04668 0.97293 0.0
C142 C 0.48804 0.02587 0.95593 0.0
C143 C 0.46628 0.00971 0.95996 0.0
C144 C 0.21279 0.92666 0.01444 0.0
O145 O 0.23417 0.9365 0.00471 0.0
O146 O 0.23814 0.85753 0.99024 0.0
Zn147 Zn 0.24291 0.88206 0.02031 0.0
O148 O 0.27513 0.90426 0.01572 0.0
C149 C 0.26596 0.85227 0.05946 0.0
O150 O 0.28652 0.85635 0.04529 0.0
O151 O 0.21218 0.90389 0.02245 0.0
C152 C 0.29389 0.89699 0.00223 0.0
O153 O 0.29254 0.87421 0.99111 0.0
C154 C 0.23348 0.86541 0.96778 0.0
O155 O 0.23199 0.89005 0.96423 0.0
O156 O 0.24503 0.86173 0.05273 0.0
C157 C 0.15776 0.45926 0.27101 0.0
O158 O 0.15589 0.47601 0.29005 0.0
O159 O 0.09857 0.49225 0.27983 0.0
Zn160 Zn 0.12109 0.49085 0.2484 0.0
O161 O 0.14266 0.52351 0.24716 0.0
C162 C 0.07617 0.4804 0.21593 0.0
O163 O 0.06435 0.4765 0.23795 0.0
O164 O 0.14433 0.46159 0.25082 0.0
C165 C 0.153 0.53104 0.22632 0.0
O166 O 0.14957 0.51711 0.20513 0.0
C167 C 0.08705 0.51263 0.2848 0.0
O168 O 0.08984 0.53184 0.26901 0.0
O169 O 0.09999 0.48662 0.21597 0.0
C170 C 0.80634 0.60223 0.98776 0.0
O171 O 0.80758 0.6182 0.96857 0.0
O172 O 0.75912 0.64504 0.96681 0.0
Zn173 Zn 0.75587 0.62286 -0.00206 0.0
O174 O 0.72431 0.59928 0.99492 0.0
C175 C 0.73557 0.66246 0.0292 0.0
O176 O 0.72073 0.66398 0.00888 0.0
O177 O 0.78667 0.60144 0.00222 0.0
C178 C 0.70432 0.60521 0.98277 0.0
O179 O 0.70402 0.62737 0.97143 0.0
C180 C 0.75752 0.63654 0.9437 0.0
O181 O 0.75421 0.61183 0.93933 0.0
O182 O 0.75262 0.64589 0.02924 0.0
C183 C 0.82285 0.04856 0.2571 0.0
O184 O 0.81284 0.02591 0.26271 0.0
O185 O 0.88924 0.01584 0.27388 0.0
Zn186 Zn 0.86661 0.01961 0.24291 0.0
O187 O 0.84342 0.98813 0.23821 0.0
C188 C 0.89906 0.00599 0.20033 0.0
O189 O 0.89517 0.98292 0.2094 0.0
O190 O 0.84557 0.05046 0.24835 0.0
C191 C 0.8312 0.98335 0.21734 0.0
O192 O 0.83373 -0.00066 0.19823 0.0
C193 C 0.89589 0.99397 0.28082 0.0
O194 O 0.88776 0.97359 0.2675 0.0
O195 O 0.88869 0.02467 0.21154 0.0
C196 C 0.31155 0.10512 0.49756 0.0
O197 O 0.31549 0.12988 0.49517 0.0
O198 O 0.26428 0.13996 0.46278 0.0
Zn199 Zn 0.25926 0.11883 0.49442 0.0
O200 O 0.22625 0.09789 0.49094 0.0
C201 C 0.26795 0.1638 0.52755 0.0
O202 O 0.28197 0.17213 0.50818 0.0
O203 O 0.28869 0.09574 0.49782 0.0
C204 C 0.21885 0.08875 0.46916 0.0
O205 O 0.23333 0.0927 0.44879 0.0
C206 C 0.24986 0.15835 0.45865 0.0
O207 O 0.23167 0.16335 0.47528 0.0
O208 O 0.25699 0.14167 0.52602 0.0
C209 C 0.33617 0.55395 0.77696 0.0
O210 O 0.33921 0.53769 0.79556 0.0
O211 O 0.39169 0.51611 0.78136 0.0
Zn212 Zn 0.36904 0.52003 0.75038 0.0
O213 O 0.34566 0.48878 0.74601 0.0
C214 C 0.40148 0.50577 0.70806 0.0
O215 O 0.39768 0.48295 0.71774 0.0
O216 O 0.34746 0.55046 0.75555 0.0
C217 C 0.33335 0.48422 0.72516 0.0
O218 O 0.33586 0.50038 0.70619 0.0
C219 C 0.39804 0.49406 0.78806 0.0
O220 O 0.38969 0.47393 0.77451 0.0
O221 O 0.39103 0.52469 0.71881 0.0
C222 C 0.71869 0.42698 0.51198 0.0
O223 O 0.73758 0.43723 0.4984 0.0
O224 O 0.74731 0.36798 0.47843 0.0
Zn225 Zn 0.75204 0.3848 0.51354 0.0
O226 O 0.78339 0.40883 0.51356 0.0
C227 C 0.76488 0.33697 0.53733 0.0
O228 O 0.77544 0.33194 0.51493 0.0
O229 O 0.72077 0.40471 0.52075 0.0
C230 C 0.80589 0.40223 0.51898 0.0
O231 O 0.80947 0.37864 0.52572 0.0
C232 C 0.76584 0.36095 0.46448 0.0
O233 O 0.78949 0.36474 0.47283 0.0
O234 O 0.75427 0.35813 0.54096 0.0
C235 C 0.66741 0.95854 0.76433 0.0
O236 O 0.67932 0.98115 0.76468 0.0
O237 O 0.59907 0.99291 0.78562 0.0
Zn238 Zn 0.62245 0.98777 0.7553 0.0
O239 O 0.64569 0.01904 0.74967 0.0
C240 C 0.59245 0.00055 0.71168 0.0
O241 O 0.59706 0.02371 0.72126 0.0
O242 O 0.64328 0.95686 0.76084 0.0
C243 C 0.64591 0.03924 0.76369 0.0
O244 O 0.63047 0.04043 0.78362 0.0
C245 C 0.60735 0.9919 0.80862 0.0
O246 O 0.63163 0.98751 0.81254 0.0
O247 O 0.60116 0.98165 0.7233 0.0
C248 C 0.99389 0.20631 0.89295 0.0
O249 O 0.97034 0.21315 0.88883 0.0
O250 O 0.97322 0.24141 0.84081 0.0
Zn251 Zn 0.00481 0.24985 0.86215 0.0
O252 O -0.00136 0.27934 0.88651 0.0
C253 C 0.04783 0.24166 0.82854 0.0
O254 O 0.04215 0.21753 0.83325 0.0
O255 O 0.01247 0.21933 0.88324 0.0
C256 C 0.00438 0.30238 0.8809 0.0
O257 O 0.01463 0.30743 0.85833 0.0
C258 C 0.95995 0.25864 0.83126 0.0
O259 O 0.96722 0.28275 0.83501 0.0
O260 O 0.03447 0.25879 0.83884 0.0
C261 C 0.50873 0.69398 0.3905 0.0
O262 O 0.50717 0.68949 0.3655 0.0
O263 O 0.47156 0.73995 0.35548 0.0
Zn264 Zn 0.50425 0.74632 0.37568 0.0
O265 O 0.50281 0.77822 0.39791 0.0
C266 C 0.53175 0.7606 0.32992 0.0
O267 O 0.50917 0.76853 0.32337 0.0
O268 O 0.50833 0.71684 0.39907 0.0
C269 C 0.49959 0.80019 0.38882 0.0
O270 O 0.49679 0.80256 0.36383 0.0
C271 C 0.45046 0.74937 0.3621 0.0
O272 O 0.44962 0.76411 0.38286 0.0
O273 O 0.53432 0.74979 0.35144 0.0
C274 C 0.99195 0.80724 0.59285 0.0
O275 O 0.96835 0.7986 0.5971 0.0
O276 O 0.97179 0.77069 0.64645 0.0
Zn277 Zn 0.00351 0.76567 0.62525 0.0
O278 O -0.00212 0.73449 0.60245 0.0
C279 C 0.03605 0.74032 0.6603 0.0
O280 O 0.01919 0.72134 0.65601 0.0
O281 O 0.01046 0.79615 0.6031 0.0
C282 C 0.01611 0.72335 0.59135 0.0
O283 O 0.03974 0.73265 0.59442 0.0
C284 C 0.95675 0.75178 0.65172 0.0
O285 O 0.96225 0.72884 0.64336 0.0
O286 O 0.03337 0.76135 0.64904 0.0
C287 C 0.49088 0.2982 0.09479 0.0
O288 O 0.46724 0.28934 0.09845 0.0
O289 O 0.4698 0.26251 0.14819 0.0
Zn290 Zn 0.50229 0.25709 0.12812 0.0
O291 O 0.49928 0.22523 0.10544 0.0
C292 C 0.52894 0.24532 0.1751 0.0
O293 O 0.50633 0.23569 0.18187 0.0
O294 O 0.50923 0.28732 0.10556 0.0
C295 C 0.50317 0.20304 0.11369 0.0
O296 O 0.50926 0.20034 0.13804 0.0
C297 C 0.45218 0.24538 0.15151 0.0
O298 O 0.45457 0.22249 0.14125 0.0
O299 O 0.53173 0.25523 0.15305 0.0
H300 H 0.21811 0.72825 0.87224 0.0
H301 H 0.2223 0.87547 0.91744 0.0
H302 H 0.20395 0.79008 0.82114 0.0
H303 H 0.2359 0.81336 0.96844 0.0
H304 H 0.21572 0.84457 0.88184 0.0
H305 H 0.22505 0.75925 0.90765 0.0
C306 C 0.21659 0.74837 0.86844 0.0
C307 C 0.21047 0.75658 0.84367 0.0
C308 C 0.22015 0.83771 0.90082 0.0
C309 C 0.21816 0.79221 0.8842 0.0
C310 C 0.22393 0.85535 0.92116 0.0
C311 C 0.22965 0.847 0.94598 0.0
C312 C 0.22212 0.81152 0.9053 0.0
C313 C 0.23151 0.82068 0.94964 0.0
C314 C 0.22042 0.76606 0.8887 0.0
C315 C 0.20834 0.78287 0.83998 0.0
N316 N 0.22775 0.80389 0.92954 0.0
N317 N 0.21221 0.79974 0.86001 0.0
H318 H -0.00136 0.57118 0.41182 0.0
H319 H 0.07633 0.47638 0.32115 0.0
H320 H 0.00761 0.49185 0.42894 0.0
H321 H 0.06185 0.55427 0.30211 0.0
H322 H 0.05118 0.48136 0.36059 0.0
H323 H 0.02189 0.56513 0.37152 0.0
C324 C 0.00563 0.55249 0.40713 0.0
C325 C 0.00136 0.53203 0.42385 0.0
C326 C 0.05344 0.49732 0.34773 0.0
C327 C 0.02784 0.52487 0.37756 0.0
C328 C 0.06781 0.49451 0.32521 0.0
C329 C 0.07127 0.51497 0.30833 0.0
C330 C 0.04253 0.5208 0.35344 0.0
C331 C 0.05974 0.53798 0.31456 0.0
C332 C 0.01877 0.549 0.38403 0.0
C333 C 0.01039 0.5081 0.41654 0.0
N334 N 0.04598 0.54029 0.33664 0.0
N335 N 0.02332 0.5052 0.39398 0.0
H336 H 0.77328 0.70634 0.79413 0.0
H337 H 0.75979 0.6887 0.94645 0.0
H338 H 0.76555 0.76876 0.84878 0.0
H339 H 0.75859 0.62538 0.89176 0.0
H340 H 0.76234 0.71821 0.91074 0.0
H341 H 0.76819 0.67624 0.82942 0.0
C342 C 0.77045 0.71369 0.81356 0.0
C343 C 0.76987 0.74009 0.81854 0.0
C344 C 0.76146 0.69787 0.9065 0.0
C345 C 0.76404 0.70581 0.85898 0.0
C346 C 0.76008 0.68098 0.92691 0.0
C347 C 0.75904 0.6545 0.92209 0.0
C348 C 0.76194 0.68827 0.88103 0.0
C349 C 0.75937 0.64564 0.89636 0.0
C350 C 0.76746 0.69651 0.83366 0.0
C351 C 0.76586 0.74857 0.84401 0.0
N352 N 0.76088 0.6625 0.87678 0.0
N353 N 0.76324 0.73149 0.86328 0.0
H354 H 0.98906 0.93637 0.40288 0.0
H355 H 0.91697 0.03217 0.31209 0.0
H356 H 0.99494 0.01842 0.41252 0.0
H357 H 0.91308 0.95016 0.30134 0.0
H358 H 0.94489 0.02756 0.34941 0.0
H359 H 0.96033 0.94107 0.36626 0.0
C360 C 0.98416 0.95538 0.3974 0.0
C361 C 0.99438 0.97704 0.41082 0.0
C362 C 0.93792 0.01057 0.33889 0.0
C363 C 0.96171 0.98259 0.36868 0.0
C364 C 0.92197 0.01318 0.31757 0.0
C365 C 0.91268 0.99151 0.30354 0.0
C366 C 0.94464 0.98611 0.34626 0.0
C367 C 0.9198 0.96741 0.31156 0.0
C368 C 0.96788 0.95806 0.37638 0.0
C369 C 0.98771 0.00122 0.40256 0.0
N370 N 0.93535 0.96536 0.33238 0.0
N371 N 0.97178 0.00334 0.38204 0.0
H372 H 0.22465 0.22684 0.67618 0.0
H373 H 0.28045 0.21486 0.53314 0.0
H374 H 0.23952 0.29154 0.62725 0.0
H375 H 0.24508 0.15117 0.57335 0.0
H376 H 0.27071 0.24287 0.56978 0.0
H377 H 0.23659 0.19845 0.64063 0.0
C378 C 0.23028 0.2351 0.65796 0.0
C379 C 0.23099 0.26168 0.65475 0.0
C380 C 0.26513 0.22275 0.57059 0.0
C381 C 0.24518 0.22925 0.61415 0.0
C382 C 0.27078 0.20672 0.54973 0.0
C383 C 0.26346 0.18065 0.55014 0.0
C384 C 0.25228 0.2126 0.5921 0.0
C385 C 0.25095 0.17118 0.57216 0.0
C386 C 0.23724 0.21887 0.63772 0.0
C387 C 0.23901 0.27125 0.6308 0.0
N388 N 0.24575 0.18716 0.59227 0.0
N389 N 0.2458 0.25505 0.61145 0.0
H390 H 0.50124 0.48415 0.57663 0.0
H391 H 0.41398 0.55042 0.68357 0.0
H392 H 0.49142 0.56541 0.58253 0.0
H393 H 0.42625 0.46949 0.68004 0.0
H394 H 0.44141 0.55607 0.64582 0.0
H395 H 0.47313 0.47819 0.61393 0.0
C396 C 0.49325 0.50075 0.58582 0.0
C397 C 0.49871 0.52532 0.57641 0.0
C398 C 0.43811 0.53707 0.65329 0.0
C399 C 0.46633 0.51862 0.61899 0.0
C400 C 0.42242 0.53382 0.67486 0.0
C401 C 0.41783 0.50944 0.68503 0.0
C402 C 0.4493 0.51579 0.64175 0.0
C403 C 0.42928 0.48864 0.67289 0.0
C404 C 0.4771 0.49732 0.60704 0.0
C405 C 0.48749 0.54609 0.58887 0.0
N406 N 0.4445 0.49229 0.6519 0.0
N407 N 0.47188 0.54227 0.60951 0.0
H408 H 0.73464 0.24582 0.67254 0.0
H409 H 0.79587 0.29654 0.54109 0.0
H410 H 0.81176 0.23057 0.64886 0.0
H411 H 0.73572 0.33502 0.58118 0.0
H412 H 0.79764 0.26648 0.57649 0.0
H413 H 0.73033 0.27286 0.63477 0.0
C414 C 0.75052 0.24797 0.6592 0.0
C415 C 0.77362 0.23614 0.66375 0.0
C416 C 0.78404 0.28149 0.57746 0.0
C417 C 0.76884 0.26675 0.62075 0.0
C418 C 0.78296 0.29859 0.55727 0.0
C419 C 0.76572 0.31838 0.55829 0.0
C420 C 0.76749 0.28397 0.59861 0.0
C421 C 0.74944 0.32016 0.57973 0.0
C422 C 0.74812 0.26348 0.63782 0.0
C423 C 0.79373 0.23959 0.64606 0.0
N424 N 0.75066 0.30311 0.59904 0.0
N425 N 0.79087 0.25457 0.62528 0.0
H426 H 0.51243 0.02193 0.56805 0.0
H427 H 0.57806 0.95524 0.68735 0.0
H428 H 0.50971 0.94039 0.57882 0.0
H429 H 0.57392 0.03691 0.68039 0.0
H430 H 0.55464 0.94933 0.64668 0.0
H431 H 0.53666 0.02772 0.60823 0.0
C432 C 0.51687 0.00524 0.5789 0.0
C433 C 0.50894 0.98064 0.57007 0.0
C434 C 0.55883 0.96854 0.65406 0.0
C435 C 0.53689 0.98712 0.61601 0.0
C436 C 0.57221 0.97194 0.67729 0.0
C437 C 0.57794 0.99662 0.68731 0.0
C438 C 0.5512 0.98998 0.6407 0.0
C439 C 0.56988 0.01754 0.67343 0.0
C440 C 0.53079 0.00855 0.60179 0.0
C441 C 0.51566 0.95969 0.58471 0.0
N442 N 0.55695 0.01374 0.65082 0.0
N443 N 0.52919 0.96341 0.60698 0.0
H444 H 0.82109 0.26167 0.74049 0.0
H445 H 0.93932 0.21069 0.82008 0.0
H446 H 0.83419 0.18168 0.75004 0.0
H447 H 0.92686 0.29058 0.80865 0.0
H448 H 0.9003 0.19961 0.7955 0.0
H449 H 0.85917 0.27256 0.7665 0.0
C450 C 0.83203 0.24639 0.74802 0.0
C451 C 0.82453 0.22072 0.74296 0.0
C452 C 0.90609 0.21956 0.79838 0.0
C453 C 0.86809 0.23305 0.77295 0.0
C454 C 0.9284 0.22591 0.8124 0.0
C455 C 0.93642 0.25162 0.81639 0.0
C456 C 0.89168 0.23904 0.78828 0.0
C457 C 0.92145 0.27052 0.80603 0.0
C458 C 0.85372 0.25261 0.76297 0.0
C459 C 0.83916 0.20171 0.75363 0.0
N460 N 0.89982 0.26384 0.79244 0.0
N461 N 0.8603 0.20826 0.76804 0.0
H462 H 0.48132 0.95168 0.45397 0.0
H463 H 0.50425 0.8019 0.44144 0.0
H464 H 0.4923 0.90336 0.51913 0.0
H465 H 0.49209 0.84979 0.37615 0.0
H466 H 0.50135 0.83919 0.47009 0.0
H467 H 0.48651 0.91488 0.42503 0.0
C468 C 0.48478 0.93331 0.46219 0.0
C469 C 0.48629 0.93058 0.48902 0.0
C470 C 0.49936 0.84156 0.4495 0.0
C471 C 0.49243 0.8884 0.45601 0.0
C472 C 0.50101 0.82026 0.43311 0.0
C473 C 0.49834 0.8227 0.40634 0.0
C474 C 0.49498 0.86551 0.43908 0.0
C475 C 0.49421 0.847 0.39666 0.0
C476 C 0.48786 0.91234 0.44565 0.0
C477 C 0.49124 0.90641 0.49858 0.0
N478 N 0.49261 0.86745 0.41303 0.0
N479 N 0.49404 0.88625 0.48209 0.0
H480 H 0.18372 0.24196 0.7328 0.0
H481 H 0.06281 0.28945 0.81244 0.0
H482 H 0.15849 0.31929 0.73193 0.0
H483 H 0.08236 0.21038 0.80578 0.0
H484 H 0.09881 0.30101 0.78433 0.0
H485 H 0.14759 0.23024 0.76071 0.0
C486 C 0.17051 0.25646 0.73836 0.0
C487 C 0.17417 0.28166 0.72996 0.0
C488 C 0.09522 0.28112 0.78899 0.0
C489 C 0.1329 0.26842 0.76221 0.0
C490 C 0.07467 0.2745 0.80507 0.0
C491 C 0.06955 0.24889 0.81148 0.0
C492 C 0.11086 0.26203 0.7793 0.0
C493 C 0.08557 0.23036 0.80134 0.0
C494 C 0.14995 0.24977 0.7544 0.0
C495 C 0.15666 0.29972 0.73819 0.0
N496 N 0.10553 0.2373 0.78578 0.0
N497 N 0.13681 0.29275 0.75384 0.0
H498 H 0.53108 0.54848 0.46161 0.0
H499 H 0.50678 0.69645 0.44317 0.0
H500 H 0.51154 0.59996 0.52386 0.0
H501 H 0.51414 0.64311 0.37927 0.0
H502 H 0.50932 0.66129 0.47296 0.0
H503 H 0.52551 0.58277 0.43101 0.0
C504 C 0.52553 0.56699 0.4688 0.0
C505 C 0.52183 0.57143 0.49531 0.0
C506 C 0.51031 0.65723 0.45243 0.0
C507 C 0.51549 0.61069 0.46049 0.0
C508 C 0.50896 0.67733 0.43538 0.0
C509 C 0.51032 0.67273 0.40866 0.0
C510 C 0.51324 0.63231 0.44276 0.0
C511 C 0.51303 0.64753 0.39971 0.0
C512 C 0.52227 0.5865 0.45134 0.0
C513 C 0.51438 0.59565 0.50358 0.0
N514 N 0.5145 0.62826 0.41674 0.0
N515 N 0.51163 0.61441 0.48625 0.0
H516 H 0.81512 0.72962 0.73662 0.0
H517 H 0.93971 0.79647 0.67241 0.0
H518 H 0.83638 0.80981 0.74605 0.0
H519 H 0.92034 0.71563 0.66595 0.0
H520 H 0.90103 0.80205 0.69802 0.0
H521 H 0.85273 0.7244 0.70929 0.0
C522 C 0.82772 0.74612 0.73296 0.0
C523 C 0.82262 0.77017 0.74369 0.0
C524 C 0.90522 0.78309 0.69098 0.0
C525 C 0.86562 0.76438 0.71229 0.0
C526 C 0.92732 0.77989 0.67636 0.0
C527 C 0.93332 0.75553 0.66708 0.0
C528 C 0.88897 0.76179 0.69636 0.0
C529 C 0.91652 0.73475 0.67275 0.0
C530 C 0.84913 0.74315 0.71728 0.0
C531 C 0.83939 0.79097 0.73796 0.0
N532 N 0.89513 0.73836 0.68705 0.0
N533 N 0.86017 0.78758 0.72272 0.0
H534 H 0.97786 0.93708 0.49391 0.0
H535 H 0.03842 0.82779 0.57733 0.0
H536 H 0.05823 0.92073 0.49313 0.0
H537 H 0.95693 0.83702 0.57001 0.0
H538 H 0.04623 0.86379 0.54881 0.0
H539 H 0.96997 0.90224 0.5239 0.0
C540 C 0.99384 0.92613 0.49998 0.0
C541 C 0.01875 0.93185 0.49094 0.0
C542 C 0.02664 0.85795 0.55345 0.0
C543 C 0.00989 0.89211 0.5255 0.0
C544 C 0.02216 0.83742 0.56977 0.0
C545 C -0.00303 0.82932 0.57601 0.0
C546 C 0.0058 0.87058 0.54334 0.0
C547 C 0.97666 0.84254 0.56565 0.0
C548 C 0.98934 0.90632 0.5172 0.0
C549 C 0.03878 0.91727 0.49983 0.0
N550 N 0.98152 0.86252 0.54982 0.0
N551 N 0.0339 0.89808 0.51658 0.0
H552 H 0.16722 0.76676 0.76121 0.0
H553 H 0.04908 0.69726 0.68533 0.0
H554 H 0.1488 0.68579 0.76424 0.0
H555 H 0.07243 0.77661 0.67609 0.0
H556 H 0.08478 0.69291 0.71521 0.0
H557 H 0.13166 0.77105 0.7311 0.0
C558 C 0.15561 0.7499 0.7556 0.0
C559 C 0.16097 0.72589 0.76524 0.0
C560 C 0.08212 0.71126 0.70661 0.0
C561 C 0.12035 0.7306 0.73066 0.0
C562 C 0.06171 0.71377 0.68956 0.0
C563 C 0.05774 0.73734 0.67819 0.0
C564 C 0.09862 0.7325 0.71244 0.0
C565 C 0.07476 0.75807 0.68439 0.0
C566 C 0.13541 0.75233 0.73831 0.0
C567 C 0.14553 0.70463 0.75706 0.0
N568 N 0.09441 0.75517 0.70113 0.0
N569 N 0.12588 0.70749 0.7403 0.0
H570 H 0.02723 0.58452 0.49911 0.0
H571 H 0.96941 0.69959 0.58105 0.0
H572 H 0.9462 0.59344 0.51089 0.0
H573 H 0.05036 0.69327 0.56637 0.0
H574 H 0.96073 0.6603 0.55596 0.0
H575 H 0.03626 0.6239 0.5242 0.0
C576 C 0.01133 0.59481 0.5069 0.0
C577 C 0.98591 0.58566 0.50286 0.0
C578 C 0.98039 0.66749 0.55818 0.0
C579 C -0.00388 0.63064 0.53179 0.0
C580 C 0.98539 0.68996 0.57251 0.0
C581 C 0.01067 0.69976 0.57581 0.0
C582 C 0.00082 0.65464 0.54706 0.0
C583 C 0.03057 0.68643 0.56431 0.0
C584 C 0.0165 0.61723 0.52132 0.0
C585 C 0.9661 0.59957 0.51377 0.0
N586 N 0.02522 0.66452 0.55046 0.0
N587 N 0.97163 0.62137 0.52769 0.0
H588 H 0.74049 0.84458 0.24589 0.0
H589 H 0.8054 0.96494 0.1743 0.0
H590 H 0.73602 0.85497 0.16367 0.0
H591 H 0.81875 0.94847 0.25435 0.0
H592 H 0.77797 0.92599 0.17043 0.0
H593 H 0.76715 0.88403 0.24982 0.0
C594 C 0.74504 0.85524 0.22868 0.0
C595 C 0.73607 0.84647 0.20441 0.0
C596 C 0.78692 0.93091 0.18883 0.0
C597 C 0.76666 0.89156 0.20872 0.0
C598 C 0.80255 0.95317 0.19107 0.0
C599 C 0.81442 0.95997 0.21467 0.0
C600 C 0.78302 0.9154 0.21038 0.0
C601 C 0.81004 0.94396 0.23575 0.0
C602 C 0.76037 0.87767 0.2309 0.0
C603 C 0.74279 0.86088 0.18271 0.0
N604 N 0.79467 0.92245 0.23311 0.0
N605 N 0.75764 0.88274 0.18538 0.0
H606 H 0.77594 0.20377 0.27956 0.0
H607 H 0.77246 0.05109 0.27115 0.0
H608 H 0.70644 0.15652 0.28539 0.0
H609 H 0.83928 0.09859 0.25231 0.0
H610 H 0.74833 0.0895 0.27817 0.0
H611 H 0.79996 0.1654 0.27129 0.0
C612 C 0.76577 0.1853 0.27913 0.0
C613 C 0.73918 0.18329 0.28317 0.0
C614 C 0.76826 0.09152 0.27243 0.0
C615 C 0.76646 0.13936 0.2737 0.0
C616 C 0.78207 0.06959 0.26848 0.0
C617 C 0.80794 0.07163 0.26115 0.0
C618 C 0.78044 0.11568 0.26921 0.0
C619 C 0.81937 0.09611 0.25792 0.0
C620 C 0.77944 0.16343 0.27429 0.0
C621 C 0.72688 0.15893 0.28212 0.0
N622 N 0.80556 0.11718 0.26206 0.0
N623 N 0.74064 0.1379 0.2776 0.0
H624 H 0.40164 0.02703 -0.00386 0.0
H625 H 0.33971 0.88535 0.98026 0.0
H626 H 0.44522 0.96177 0.97459 0.0
H627 H 0.30092 0.94717 0.01748 0.0
H628 H 0.37781 0.91366 0.97553 0.0
H629 H 0.36386 -0.00143 0.00199 0.0
C630 C 0.40336 0.00671 0.99283 0.0
C631 C 0.42672 -0.00318 0.98486 0.0
C632 C 0.36098 0.92102 0.98478 0.0
C633 C 0.38334 0.96416 0.99109 0.0
C634 C 0.33919 0.90488 0.98743 0.0
C635 C 0.31709 0.9139 -0.0007 0.0
C636 C 0.36062 0.94643 0.99387 0.0
C637 C 0.31755 0.93939 0.00826 0.0
C638 C 0.38172 0.99048 -0.00396 0.0
C639 C 0.42757 0.97033 0.98038 0.0
N640 N 0.33894 0.95478 0.00529 0.0
N641 N 0.40619 0.95496 0.98349 0.0
H642 H 0.24925 0.32802 0.24041 0.0
H643 H 0.18652 0.44654 0.31262 0.0
H644 H 0.25785 0.34484 0.32188 0.0
H645 H 0.16898 0.42354 0.23386 0.0
H646 H 0.21513 0.41107 0.31553 0.0
H647 H 0.22235 0.36489 0.2367 0.0
C648 C 0.2456 0.33958 0.25747 0.0
C649 C 0.25568 0.33333 0.28151 0.0
C650 C 0.20502 0.41378 0.29761 0.0
C651 C 0.22487 0.37537 0.27747 0.0
C652 C 0.1887 0.43406 0.29592 0.0
C653 C 0.17527 0.43798 0.27299 0.0
C654 C 0.20805 0.39736 0.27617 0.0
C655 C 0.17888 0.42119 0.25196 0.0
C656 C 0.23014 0.36051 0.25538 0.0
C657 C 0.25017 0.34879 0.30305 0.0
N658 N 0.19493 0.40162 0.25406 0.0
N659 N 0.23514 0.36909 0.30052 0.0
H660 H 0.07268 0.01074 0.49939 0.0
H661 H 0.19665 0.06735 0.42547 0.0
H662 H 0.08477 0.00104 0.41748 0.0
H663 H 0.18436 0.0771 0.50738 0.0
H664 H 0.15541 0.04358 0.422 0.0
H665 H 0.11325 0.03574 0.50257 0.0
C666 C 0.0839 0.01385 0.48208 0.0
C667 C 0.07535 0.00374 0.45815 0.0
C668 C 0.16173 0.05093 0.44073 0.0
C669 C 0.12176 0.03245 0.4616 0.0
C670 C 0.1853 0.06448 0.44273 0.0
C671 C 0.19401 0.0742 0.46676 0.0
C672 C 0.14674 0.04703 0.46292 0.0
C673 C 0.17844 0.06994 0.48846 0.0
C674 C 0.10701 0.02821 0.48388 0.0
C675 C 0.09048 0.0087 0.43628 0.0
N676 N 0.15559 0.05666 0.48602 0.0
N677 N 0.11298 0.02263 0.43854 0.0
H678 H 0.74427 0.14928 0.68465 0.0
H679 H 0.65616 0.0829 0.79252 0.0
H680 H 0.7414 0.17721 0.76342 0.0
H681 H 0.67449 0.04613 0.71996 0.0
H682 H 0.68426 0.11951 0.78104 0.0
H683 H 0.71528 0.11331 0.696 0.0
C684 C 0.73737 0.14791 0.7043 0.0
C685 C 0.74523 0.16622 0.72314 0.0
C686 C 0.68215 0.1034 0.76767 0.0
C687 C 0.71221 0.12509 0.7363 0.0
C688 C 0.66608 0.08252 0.77418 0.0
C689 C 0.663 0.06141 0.75719 0.0
C690 C 0.69504 0.10326 0.7439 0.0
C691 C 0.67636 0.06195 0.73369 0.0
C692 C 0.72099 0.1273 0.71081 0.0
C693 C 0.73599 0.16337 0.74838 0.0
N694 N 0.69172 0.08258 0.72771 0.0
N695 N 0.7199 0.14322 0.75422 0.0
H696 H 0.40844 0.97568 0.50513 0.0
H697 H 0.36247 0.11927 0.50244 0.0
H698 H 0.45812 0.04165 0.52321 0.0
H699 H 0.31054 0.05284 0.49803 0.0
H700 H 0.39836 0.09123 0.50669 0.0
H701 H 0.37294 0.00383 0.49877 0.0
C702 C 0.41191 0.99612 0.50756 0.0
C703 C 0.43623 0.00637 0.51471 0.0
C704 C 0.3791 0.0828 0.5048 0.0
C705 C 0.3957 0.03867 0.50768 0.0
C706 C 0.3586 0.09879 0.50233 0.0
C707 C 0.33345 0.08838 0.49994 0.0
C708 C 0.37445 0.05621 0.50472 0.0
C709 C 0.3296 0.0617 0.49992 0.0
C710 C 0.39161 0.01216 0.5041 0.0
C711 C 0.43959 0.03296 0.51795 0.0
N712 N 0.34989 0.04654 0.50224 0.0
N713 N 0.41955 0.0482 0.51438 0.0
H714 H 0.60296 0.53999 0.51719 0.0
H715 H 0.67423 0.40947 0.53497 0.0
H716 H 0.56424 0.46998 0.5413 0.0
H717 H 0.70892 0.4759 0.49874 0.0
H718 H 0.63472 0.43226 0.54072 0.0
H719 H 0.6428 0.51762 0.51335 0.0
C720 C 0.60278 0.51985 0.52153 0.0
C721 C 0.58012 0.50679 0.52935 0.0
C722 C 0.65099 0.44185 0.53154 0.0
C723 C 0.62589 0.48114 0.5254 0.0
C724 C 0.67358 0.42888 0.5283 0.0
C725 C 0.69491 0.44078 0.51628 0.0
C726 C 0.64973 0.46695 0.52283 0.0
C727 C 0.69294 0.46594 0.50802 0.0
C728 C 0.6256 0.50713 0.51947 0.0
C729 C 0.58126 0.48086 0.53536 0.0
N730 N 0.67075 0.47818 0.51145 0.0
N731 N 0.60376 0.46887 0.53321 0.0
H732 H 0.74686 0.23584 0.35762 0.0
H733 H 0.72449 0.36374 0.43248 0.0
H734 H 0.71193 0.29769 0.31856 0.0
H735 H 0.79506 0.32498 0.44179 0.0
H736 H 0.71481 0.33716 0.39382 0.0
H737 H 0.7605 0.26568 0.39205 0.0
C738 C 0.7423 0.25568 0.35594 0.0
C739 C 0.72823 0.26411 0.33482 0.0
C740 C 0.73251 0.33472 0.40425 0.0
C741 C 0.74301 0.2981 0.37501 0.0
C742 C 0.73798 0.34973 0.42628 0.0
C743 C 0.76058 0.34647 0.44027 0.0
C744 C 0.74941 0.3159 0.39669 0.0
C745 C 0.77749 0.32814 0.43145 0.0
C746 C 0.74999 0.27265 0.37579 0.0
C747 C 0.72227 0.29005 0.33454 0.0
N748 N 0.77137 0.31322 0.41041 0.0
N749 N 0.72943 0.30606 0.35448 0.0
H750 H 0.47505 0.01402 0.90578 0.0
H751 H 0.61979 -0.00314 0.85988 0.0
H752 H 0.54053 0.02651 0.95608 0.0
H753 H 0.55546 -0.00245 0.80749 0.0
H754 H 0.59084 0.00515 0.89585 0.0
H755 H 0.50404 0.00532 0.86994 0.0
C756 C 0.49554 0.01484 0.90928 0.0
C757 C 0.50542 0.02097 0.93393 0.0
C758 C 0.58307 0.0035 0.87647 0.0
C759 C 0.53871 0.01114 0.89302 0.0
C760 C 0.59958 -0.0013 0.85593 0.0
C761 C 0.59004 0.99653 0.83062 0.0
C762 C 0.55681 0.00599 0.8717 0.0
C763 C 0.56367 -0.00087 0.82667 0.0
C764 C 0.51208 0.01001 0.8888 0.0
C765 C 0.53214 0.02209 0.93732 0.0
N766 N 0.54798 0.00368 0.84699 0.0
N767 N 0.54786 0.01713 0.91711 0.0
H768 H 0.26841 0.28662 0.35793 0.0
H769 H 0.27771 0.14783 0.41535 0.0
H770 H 0.2854 0.22082 0.31037 0.0
H771 H 0.23233 0.2059 0.45065 0.0
H772 H 0.28563 0.17559 0.37853 0.0
H773 H 0.25988 0.25847 0.39408 0.0
C774 C 0.27018 0.26626 0.35496 0.0
C775 C 0.27748 0.25613 0.33089 0.0
C776 C 0.27387 0.18218 0.39431 0.0
C777 C 0.26833 0.22388 0.37254 0.0
C778 C 0.26941 0.16641 0.41534 0.0
C779 C 0.25432 0.1746 0.43605 0.0
C780 C 0.26351 0.20643 0.39422 0.0
C781 C 0.24397 0.19881 0.43503 0.0
C782 C 0.26542 0.25023 0.37569 0.0
C783 C 0.28014 0.2296 0.32857 0.0
N784 N 0.24891 0.21397 0.41452 0.0
N785 N 0.27564 0.2144 0.34916 0.0
H786 H 0.49126 0.43374 0.90869 0.0
H787 H 0.41839 0.53148 0.82072 0.0
H788 H 0.49336 0.51527 0.92278 0.0
H789 H 0.41549 0.44981 0.80732 0.0
H790 H 0.44585 0.52595 0.8582 0.0
H791 H 0.46322 0.43923 0.87164 0.0
C792 C 0.48569 0.45278 0.90408 0.0
C793 C 0.49466 0.47408 0.91887 0.0
C794 C 0.4392 0.50924 0.84707 0.0
C795 C 0.46278 0.48054 0.8763 0.0
C796 C 0.42352 0.51238 0.82565 0.0
C797 C 0.41463 0.49107 0.81084 0.0
C798 C 0.44606 0.48461 0.85374 0.0
C799 C 0.42189 0.46678 0.81816 0.0
C800 C 0.4698 0.45592 0.88284 0.0
C801 C 0.48715 0.49835 0.91174 0.0
N802 N 0.43718 0.46422 0.83908 0.0
N803 N 0.47165 0.50092 0.89098 0.0
H804 H 0.67288 0.76193 0.14544 0.0
H805 H 0.76819 0.67169 0.07023 0.0
H806 H 0.7538 0.76225 0.16258 0.0
H807 H 0.69542 0.69271 0.03926 0.0
H808 H 0.76205 0.70091 0.10703 0.0
H809 H 0.67952 0.73237 0.10919 0.0
C810 C 0.69203 0.75563 0.1416 0.0
C811 C 0.71283 0.76445 0.15698 0.0
C812 C 0.74749 0.69911 0.09212 0.0
C813 C 0.72058 0.73071 0.11561 0.0
C814 C 0.75092 0.6824 0.0712 0.0
C815 C 0.73229 0.6798 0.05166 0.0
C816 C 0.72512 0.713 0.09365 0.0
C817 C 0.71032 0.69418 0.05383 0.0
C818 C 0.69584 0.73891 0.12085 0.0
C819 C 0.73731 0.75598 0.15104 0.0
N820 N 0.70729 0.71007 0.07451 0.0
N821 N 0.74051 0.73943 0.13086 0.0
H822 H 0.99143 0.07354 0.07894 0.0
H823 H 0.92287 0.97026 0.17068 0.0
H824 H -0.00279 0.99209 0.06818 0.0
H825 H 0.91267 0.05142 0.17784 0.0
H826 H 0.95037 0.97786 0.13325 0.0
H827 H 0.96252 0.0658 0.11522 0.0
C828 C 0.98646 0.05401 0.08407 0.0
C829 C -0.00323 0.03343 0.07047 0.0
C830 C 0.94208 0.994 0.14299 0.0
C831 C 0.96393 0.02443 0.11226 0.0
C832 C 0.92639 0.98968 0.16438 0.0
C833 C 0.91548 0.01024 0.17745 0.0
C834 C 0.94698 0.01907 0.13463 0.0
C835 C 0.92068 0.03498 0.16838 0.0
C836 C 0.97006 0.04961 0.10489 0.0
C837 C 0.98999 0.00855 0.07831 0.0
N838 N 0.9361 0.0387 0.14757 0.0
N839 N 0.97403 0.00475 0.09869 0.0
H840 H 0.31585 0.75614 0.18142 0.0
H841 H 0.22626 0.83616 0.09067 0.0
H842 H 0.23325 0.75343 0.18688 0.0
H843 H 0.30804 0.83137 0.08049 0.0
H844 H 0.22848 0.8081 0.12765 0.0
H845 H 0.31338 0.78604 0.14617 0.0
C846 C 0.29718 0.76201 0.17532 0.0
C847 C 0.27472 0.75235 0.18716 0.0
C848 C 0.24593 0.81324 0.11733 0.0
C849 C 0.27172 0.78639 0.14655 0.0
C850 C 0.2447 0.8293 0.09625 0.0
C851 C 0.267 0.83607 0.08241 0.0
C852 C 0.26965 0.80397 0.12468 0.0
C853 C 0.29035 0.8266 0.09052 0.0
C854 C 0.29577 0.77896 0.15507 0.0
C855 C 0.25103 0.76026 0.17814 0.0
N856 N 0.29105 0.81103 0.1111 0.0
N857 N 0.25014 0.77686 0.15838 0.0
H858 H 0.95847 0.47049 0.09798 0.0
H859 H 0.09567 0.48155 0.16696 0.0
H860 H 0.02988 0.46296 0.05722 0.0
H861 H 0.02435 0.47297 0.20872 0.0
H862 H 0.07184 0.4772 0.12644 0.0
H863 H 0.98225 0.47393 0.1387 0.0
C864 C 0.97918 0.46963 0.09763 0.0
C865 C 0.99226 0.46648 0.07423 0.0
C866 C 0.06141 0.4762 0.14446 0.0
C867 C 0.01955 0.47034 0.12067 0.0
C868 C 0.07499 0.47875 0.16762 0.0
C869 C 0.06197 0.47763 0.19128 0.0
C870 C 0.03458 0.47271 0.14493 0.0
C871 C 0.03517 0.47392 0.19093 0.0
C872 C 0.99271 0.47145 0.12086 0.0
C873 C 0.01905 0.46516 0.07487 0.0
N874 N 0.02235 0.47169 0.16811 0.0
N875 N 0.03183 0.46722 0.09771 0.0
H876 H 0.30944 0.76207 0.27704 0.0
H877 H 0.44242 0.71188 0.32517 0.0
H878 H 0.33316 0.68569 0.26039 0.0
H879 H 0.40554 0.77441 0.36326 0.0
H880 H 0.40398 0.70364 0.29877 0.0
H881 H 0.34596 0.76867 0.30659 0.0
C882 C 0.3223 0.74668 0.27975 0.0
C883 C 0.31837 0.72332 0.26633 0.0
C884 C 0.40426 0.71907 0.31301 0.0
C885 C 0.36016 0.73077 0.29973 0.0
C886 C 0.42623 0.72387 0.32799 0.0
C887 C 0.42717 0.7439 0.3464 0.0
C888 C 0.38325 0.73465 0.31618 0.0
C889 C 0.40559 0.75874 0.34932 0.0
C890 C 0.34303 0.7504 0.29663 0.0
C891 C 0.33546 0.70391 0.27055 0.0
N892 N 0.38456 0.75395 0.33421 0.0
N893 N 0.35578 0.70815 0.28671 0.0
H894 H 0.97702 0.44856 0.95485 0.0
H895 H 0.98925 0.29833 0.9312 0.0
H896 H 0.97557 0.39392 0.016 0.0
H897 H 0.00801 0.35399 0.87315 0.0
H898 H 0.98103 0.33303 0.96179 0.0
H899 H 0.98524 0.41401 0.92377 0.0
C900 C 0.97838 0.42928 0.96169 0.0
C901 C 0.9757 0.42407 0.98802 0.0
C902 C 0.98699 0.33767 0.94238 0.0
C903 C 0.98506 0.38455 0.95269 0.0
C904 C 0.99162 0.31785 0.92487 0.0
C905 C -0.00063 0.32326 0.89957 0.0
C906 C 0.9899 0.36311 0.93451 0.0
C907 C 0.00216 0.34895 0.89248 0.0
C908 C 0.9832 0.40962 0.944 0.0
C909 C 0.97783 0.39881 0.99592 0.0
N910 N -0.00265 0.36793 0.90984 0.0
N911 N 0.98229 0.37998 0.97832 0.0
H912 H 0.67339 0.75191 0.24383 0.0
H913 H 0.53639 0.79445 0.29072 0.0
H914 H 0.64565 0.82656 0.22924 0.0
H915 H 0.57808 0.73795 0.3308 0.0
H916 H 0.574 0.80317 0.26366 0.0
H917 H 0.6363 0.74325 0.2719 0.0
C918 C 0.65947 0.76645 0.24662 0.0
C919 C 0.66249 0.78998 0.23433 0.0
C920 C 0.57489 0.78889 0.27841 0.0
C921 C 0.62009 0.78014 0.26597 0.0
C922 C 0.55341 0.78378 0.29375 0.0
C923 C 0.55414 0.76545 0.31304 0.0
C924 C 0.59711 0.77527 0.28209 0.0
C925 C 0.57676 0.7523 0.3162 0.0
C926 C 0.63843 0.76155 0.26265 0.0
C927 C 0.64405 0.80826 0.23857 0.0
N928 N 0.59733 0.75736 0.30076 0.0
N929 N 0.62348 0.80288 0.25388 0.0
H930 H 0.06285 0.09545 0.98956 0.0
H931 H 0.95849 0.17307 0.91438 0.0
H932 H 0.98191 0.07441 0.98856 0.0
H933 H 0.04015 0.18891 0.90833 0.0
H934 H 0.96669 0.13706 0.94187 0.0
H935 H 0.05497 0.1298 0.95986 0.0
C936 C 0.04344 0.0979 0.98293 0.0
C937 C 0.023 0.08201 0.99163 0.0
C938 C 0.98283 0.14836 0.93448 0.0
C939 C 0.01379 0.1216 0.95788 0.0
C940 C 0.97816 0.16896 0.9188 0.0
C941 C -0.00133 0.18409 0.9091 0.0
C942 C 0.00819 0.14288 0.94063 0.0
C943 C 0.02375 0.1778 0.91541 0.0
C944 C 0.03894 0.11763 0.96608 0.0
C945 C -0.0018 0.08641 0.9827 0.0
N946 N 0.0278 0.15772 0.93086 0.0
N947 N 0.99429 0.10582 0.96638 0.0
H948 H 0.3413 0.31847 0.24896 0.0
H949 H 0.41295 0.21237 0.16623 0.0
H950 H 0.31845 0.2383 0.24806 0.0
H951 H 0.44011 0.29123 0.17352 0.0
H952 H 0.37664 0.22194 0.19399 0.0
H953 H 0.37599 0.3093 0.219 0.0
C954 C 0.34347 0.29896 0.2423 0.0
C955 C 0.32698 0.27911 0.25104 0.0
C956 C 0.39052 0.23715 0.18948 0.0
C957 C 0.36678 0.26843 0.21691 0.0
C958 C 0.41124 0.23171 0.17359 0.0
C959 C 0.42966 0.251 0.1676 0.0
C960 C 0.38814 0.26208 0.1994 0.0
C961 C 0.42644 0.27573 0.17769 0.0
C962 C 0.36337 0.29371 0.22532 0.0
C963 C 0.33091 0.25413 0.24205 0.0
N964 N 0.40611 0.28054 0.19311 0.0
N965 N 0.3504 0.2495 0.22548 0.0
H966 H 0.47706 0.43004 -0.00119 0.0
H967 H 0.53752 0.31996 0.08123 0.0
H968 H 0.5582 0.41743 0.00198 0.0
H969 H 0.45609 0.32759 0.07111 0.0
H970 H 0.54559 0.35697 0.05405 0.0
H971 H 0.46913 0.39384 0.02704 0.0
C972 C 0.49322 0.4196 0.00536 0.0
C973 C 0.51834 0.42673 -0.00211 0.0
C974 C 0.52596 0.35055 0.05777 0.0
C975 C 0.5094 0.38539 0.03049 0.0
C976 C 0.52133 0.32942 0.07331 0.0
C977 C 0.49608 0.32062 0.07842 0.0
C978 C 0.5052 0.36305 0.04732 0.0
C979 C 0.47587 0.33365 0.06764 0.0
C980 C 0.48868 0.39899 0.02159 0.0
C981 C 0.53855 0.4128 0.00743 0.0
N982 N 0.48087 0.35421 0.05262 0.0
N983 N 0.53363 0.39277 0.02319 0.0
H984 H 0.67193 0.27327 0.25793 0.0
H985 H 0.53399 0.21442 0.2165 0.0
H986 H 0.64594 0.19652 0.27625 0.0
H987 H 0.5743 0.27341 0.17365 0.0
H988 H 0.57156 0.21184 0.24456 0.0
H989 H 0.6325 0.27795 0.23297 0.0
C990 C 0.65777 0.25753 0.25688 0.0
C991 C 0.66212 0.23445 0.269 0.0
C992 C 0.57209 0.22537 0.22904 0.0
C993 C 0.61719 0.23966 0.24072 0.0
C994 C 0.55068 0.22692 0.21309 0.0
C995 C 0.55112 0.24406 0.19265 0.0
C996 C 0.59388 0.24137 0.22476 0.0
C997 C 0.57325 0.25979 0.18907 0.0
C998 C 0.63542 0.26014 0.24255 0.0
C999 C 0.64332 0.21453 0.26696 0.0
N1000 N 0.59374 0.25813 0.20503 0.0
N1001 N 0.6216 0.21761 0.25311 0.0
H1002 H 0.48912 0.1006 0.98068 0.0
H1003 H 0.50271 0.15261 0.12643 0.0
H1004 H 0.47596 0.05302 0.04671 0.0
H1005 H 0.49691 0.20194 0.06119 0.0
H1006 H 0.49719 0.11548 0.09731 0.0
H1007 H 0.49651 0.13758 0.00977 0.0
C1008 C 0.48797 0.09793 0.00132 0.0
C1009 C 0.4819 0.07374 0.01133 0.0
C1010 C 0.49712 0.13444 0.08938 0.0
C1011 C 0.49021 0.11592 0.04468 0.0
C1012 C 0.50034 0.15565 0.10598 0.0
C1013 C 0.50021 0.18043 0.09624 0.0
C1014 C 0.49399 0.13801 0.06281 0.0
C1015 C 0.49703 0.18319 0.06956 0.0
C1016 C 0.49201 0.11905 0.01789 0.0
C1017 C 0.48034 0.07139 0.03821 0.0
N1018 N 0.4941 0.16223 0.05377 0.0
N1019 N 0.48453 0.09221 0.05396 0.0
H1020 H 0.24446 0.35387 0.66323 0.0
H1021 H 0.32126 0.44868 0.76165 0.0
H1022 H 0.24774 0.3421 0.74529 0.0
H1023 H 0.30832 0.46583 0.6817 0.0
H1024 H 0.29517 0.40913 0.7559 0.0
H1025 H 0.26878 0.39447 0.66942 0.0
C1026 C 0.25037 0.35983 0.68255 0.0
C1027 C 0.24417 0.34457 0.70378 0.0
C1028 C 0.29796 0.42159 0.73963 0.0
C1029 C 0.27189 0.39105 0.71103 0.0
C1030 C 0.31289 0.44416 0.74288 0.0
C1031 C 0.31702 0.46058 0.72209 0.0
C1032 C 0.28719 0.41527 0.71537 0.0
C1033 C 0.30565 0.45376 0.69825 0.0
C1034 C 0.26412 0.38307 0.68609 0.0
C1035 C 0.25196 0.35338 0.72843 0.0
N1036 N 0.29134 0.43157 0.69552 0.0
N1037 N 0.26554 0.37599 0.73136 0.0
H1038 H 0.24099 0.68252 0.75358 0.0
H1039 H 0.31138 0.56868 0.821 0.0
H1040 H 0.23692 0.66843 0.83522 0.0
H1041 H 0.32255 0.58874 0.7413 0.0
H1042 H 0.28302 0.60428 0.82639 0.0
H1043 H 0.26967 0.64716 0.74841 0.0
C1044 C 0.24604 0.67188 0.7704 0.0
C1045 C 0.23653 0.67839 0.79486 0.0
C1046 C 0.29173 0.60092 0.80774 0.0
C1047 C 0.2695 0.63801 0.78915 0.0
C1048 C 0.3079 0.58058 0.80464 0.0
C1049 C 0.31935 0.5757 0.78066 0.0
C1050 C 0.28685 0.61644 0.78668 0.0
C1051 C 0.31416 0.59179 0.76015 0.0
C1052 C 0.26254 0.6518 0.76747 0.0
C1053 C 0.24401 0.66421 0.81606 0.0
N1054 N 0.29824 0.61138 0.76362 0.0
N1055 N 0.25999 0.64464 0.8127 0.0
H1056 H 0.9545 0.47009 0.48037 0.0
H1057 H 0.80522 0.45382 0.51217 0.0
H1058 H 0.90674 0.53377 0.49565 0.0
H1059 H 0.85694 0.39212 0.51792 0.0
H1060 H 0.84187 0.48321 0.50415 0.0
H1061 H 0.91859 0.4408 0.49184 0.0
C1062 C 0.93645 0.47787 0.48614 0.0
C1063 C 0.93355 0.50436 0.48708 0.0
C1064 C 0.84521 0.46327 0.50733 0.0
C1065 C 0.89246 0.47108 0.50015 0.0
C1066 C 0.8243 0.44647 0.51186 0.0
C1067 C 0.82802 0.42046 0.51567 0.0
C1068 C 0.87002 0.45396 0.50626 0.0
C1069 C 0.85318 0.41203 0.51513 0.0
C1070 C 0.91603 0.46119 0.49282 0.0
C1071 C 0.90984 0.51348 0.4949 0.0
N1072 N 0.87322 0.4287 0.51029 0.0
N1073 N 0.89016 0.49687 0.50097 0.0
H1074 H 0.71334 0.80272 0.78055 0.0
H1075 H 0.71943 0.95494 0.76811 0.0
H1076 H 0.78365 0.84805 0.77122 0.0
H1077 H 0.64867 0.90899 0.76726 0.0
H1078 H 0.74324 0.91613 0.77193 0.0
H1079 H 0.68924 0.84165 0.77844 0.0
C1080 C 0.7237 0.82088 0.77817 0.0
C1081 C 0.75052 0.82216 0.77598 0.0
C1082 C 0.7225 0.91453 0.77092 0.0
C1083 C 0.72312 0.86672 0.77345 0.0
C1084 C 0.70888 0.9367 0.76879 0.0
C1085 C 0.68201 0.93522 0.76729 0.0
C1086 C 0.70918 0.89067 0.77167 0.0
C1087 C 0.66938 0.91103 0.76828 0.0
C1088 C 0.70994 0.84307 0.77684 0.0
C1089 C 0.76296 0.84616 0.77265 0.0
N1090 N 0.68308 0.88971 0.77041 0.0
N1091 N 0.74916 0.86748 0.77153 0.0
H1092 H 0.55179 0.53734 0.9601 0.0
H1093 H 0.69979 0.55597 -0.00036 0.0
H1094 H 0.59803 0.47514 0.98252 0.0
H1095 H 0.65695 0.61392 0.96307 0.0
H1096 H 0.66183 0.52693 -0.00293 0.0
H1097 H 0.58932 0.56654 0.96465 0.0
C1098 C 0.56986 0.52979 0.9659 0.0
C1099 C 0.57177 0.50368 0.97074 0.0
C1100 C 0.66076 0.546 0.98961 0.0
C1101 C 0.61479 0.53714 0.97633 0.0
C1102 C 0.6824 0.56261 0.9911 0.0
C1103 C 0.68156 0.5874 0.98149 0.0
C1104 C 0.63807 0.5543 0.9786 0.0
C1105 C 0.65852 0.59495 0.97064 0.0
C1106 C 0.59126 0.54651 0.9686 0.0
C1107 C 0.59557 0.49513 0.9788 0.0
N1108 N 0.63769 0.57848 0.96952 0.0
N1109 N 0.61617 0.51181 0.98128 0.0
H1110 H 0.23838 0.67084 0.26914 0.0
H1111 H 0.17695 0.55356 0.18506 0.0
H1112 H 0.24769 0.66286 0.18669 0.0
H1113 H 0.16489 0.56362 0.26697 0.0
H1114 H 0.20303 0.59347 0.18522 0.0
H1115 H 0.21158 0.63141 0.26872 0.0
C1116 C 0.23483 0.66075 0.25095 0.0
C1117 C 0.24531 0.67015 0.22792 0.0
C1118 C 0.19465 0.58695 0.20315 0.0
C1119 C 0.21451 0.62506 0.22725 0.0
C1120 C 0.17977 0.56415 0.20308 0.0
C1121 C 0.16874 0.5552 0.22604 0.0
C1122 C 0.19858 0.6009 0.22636 0.0
C1123 C 0.17303 0.56976 0.24881 0.0
C1124 C 0.21942 0.6383 0.2507 0.0
C1125 C 0.23977 0.65647 0.20486 0.0
N1126 N 0.18763 0.59185 0.24839 0.0
N1127 N 0.22482 0.63458 0.20513 0.0
H1128 H 0.90758 0.49484 0.05371 0.0
H1129 H 0.84852 0.59437 0.95756 0.0
H1130 H 0.9368 0.50766 0.977 0.0
H1131 H 0.81211 0.5705 0.02839 0.0
H1132 H 0.88267 0.56492 0.96537 0.0
H1133 H 0.87407 0.52481 0.0458 0.0
C1134 C 0.907 0.50408 0.03523 0.0
C1135 C 0.92502 0.49882 0.016 0.0
C1136 C 0.86718 0.56614 0.97917 0.0
C1137 C 0.88663 0.53306 0.00674 0.0
C1138 C 0.84772 0.583 0.97478 0.0
C1139 C 0.8274 0.58489 0.99234 0.0
C1140 C 0.8664 0.55122 0.00138 0.0
C1141 C 0.82735 0.56965 0.01429 0.0
C1142 C 0.88778 0.52107 0.03067 0.0
C1143 C 0.92314 0.51104 0.99227 0.0
N1144 N 0.84656 0.5535 0.01819 0.0
N1145 N 0.90433 0.52767 0.98833 0.0
H1146 H 0.05779 0.97611 0.0331 0.0
H1147 H 0.20791 0.97656 0.0013 0.0
H1148 H 0.10271 0.04382 0.01262 0.0
H1149 H 0.16467 0.91117 0.0304 0.0
H1150 H 0.16917 0.00106 0.00337 0.0
H1151 H 0.09641 0.95155 0.03034 0.0
C1152 C 0.07579 0.98584 0.02812 0.0
C1153 C 0.077 0.0121 0.02316 0.0
C1154 C 0.16817 0.98136 0.00932 0.0
C1155 C 0.12128 0.984 0.01969 0.0
C1156 C 0.19028 0.96735 0.00813 0.0
C1157 C 0.18955 0.94178 0.01572 0.0
C1158 C 0.14512 0.9697 0.01807 0.0
C1159 C 0.16615 0.93084 0.0244 0.0
C1160 C 0.09782 0.97177 0.02643 0.0
C1161 C 0.10079 0.02357 0.01631 0.0
N1162 N 0.14488 0.94486 0.02531 0.0
N1163 N 0.12199 0.00946 0.01481 0.0
loop_
_geom_bond_atom_site_label_1
_geom_bond_atom_site_label_2
_geom_bond_distance
_geom_bond_site_symmetry_2
_ccdc_geom_bond_type
H0 C3 0.931 . S
H1 C6 0.928 . S
H2 C8 0.930 . S
C3 H0 0.931 . S
C3 C4 1.413 . S
C3 C5 1.360 . S
C4 C3 1.413 . S
C4 C8 1.429 . S
C5 C3 1.360 . S
C5 C6 1.372 . S
C6 H1 0.928 . S
C6 C5 1.372 . S
C6 C7 1.404 . S
C7 C6 1.404 . S
C7 C8 1.391 . S
C8 H2 0.930 . S
C8 C4 1.429 . S
C8 C7 1.391 . S
H9 C12 0.931 . S
H10 C15 0.928 . S
H11 C17 0.930 . S
C12 H9 0.931 . S
C12 C13 1.413 . S
C12 C14 1.360 . S
C13 C12 1.413 . S
C13 C17 1.429 . S
C14 C12 1.360 . S
C14 C15 1.372 . S
C15 H10 0.928 . S
C15 C14 1.372 . S
C15 C16 1.404 . S
C16 C15 1.404 . S
C16 C17 1.391 . S
C17 H11 0.930 . S
C17 C13 1.429 . S
C17 C16 1.391 . S
H18 C21 0.931 . S
H19 C24 0.928 1_455 S
H20 C26 0.925 1_556 S
C21 H18 0.931 . S
C21 C22 1.413 . S
C21 C23 1.360 . S
C22 C21 1.413 . S
C22 C26 1.429 . S
C23 C21 1.360 . S
C23 C24 1.372 . S
C24 H19 0.928 1_655 S
C24 C23 1.372 . S
C24 C25 1.404 . S
C25 C24 1.404 . S
C25 C26 1.391 . S
C26 H20 0.925 1_554 S
C26 C22 1.429 . S
C26 C25 1.391 . S
H27 C30 0.931 . S
H28 C33 0.928 . S
H29 C35 0.930 . S
C30 H27 0.931 . S
C30 C31 1.413 . S
C30 C32 1.360 . S
C31 C30 1.413 . S
C31 C35 1.429 . S
C32 C30 1.360 . S
C32 C33 1.372 . S
C33 H28 0.928 . S
C33 C32 1.372 . S
C33 C34 1.404 . S
C34 C33 1.404 . S
C34 C35 1.391 . S
C35 H29 0.930 . S
C35 C31 1.429 . S
C35 C34 1.391 . S
H36 C39 0.931 . S
H37 C42 0.928 1_545 S
H38 C44 0.930 . S
C39 H36 0.931 . S
C39 C40 1.413 . S
C39 C41 1.360 . S
C40 C39 1.413 . S
C40 C44 1.429 . S
C41 C39 1.360 . S
C41 C42 1.372 . S
C42 H37 0.928 1_565 S
C42 C41 1.372 . S
C42 C43 1.404 . S
C43 C42 1.404 . S
C43 C44 1.391 . S
C44 H38 0.930 . S
C44 C40 1.429 . S
C44 C43 1.391 . S
H45 C48 0.931 . S
H46 C51 0.928 . S
H47 C53 0.930 . S
C48 H45 0.931 . S
C48 C49 1.413 . S
C48 C50 1.360 . S
C49 C48 1.413 . S
C49 C53 1.429 . S
C50 C48 1.360 . S
C50 C51 1.372 . S
C51 H46 0.928 . S
C51 C50 1.372 . S
C51 C52 1.404 . S
C52 C51 1.404 . S
C52 C53 1.391 . S
C53 H47 0.930 . S
C53 C49 1.429 . S
C53 C52 1.391 . S
H54 C57 0.931 . S
H55 C60 0.945 . S
H56 C62 0.930 . S
C57 H54 0.931 . S
C57 C58 1.413 . S
C57 C59 1.360 . S
C58 C57 1.413 . S
C58 C62 1.429 . S
C59 C57 1.360 . S
C59 C60 1.372 . S
C60 H55 0.945 . S
C60 C59 1.372 . S
C60 C61 1.404 . S
C61 C60 1.404 . S
C61 C62 1.391 . S
C62 H56 0.930 . S
C62 C58 1.429 . S
C62 C61 1.391 . S
H63 C66 0.931 . S
H64 C69 0.928 . S
H65 C71 0.930 . S
C66 H63 0.931 . S
C66 C67 1.413 . S
C66 C68 1.360 . S
C67 C66 1.413 . S
C67 C71 1.429 . S
C68 C66 1.360 . S
C68 C69 1.372 . S
C69 H64 0.928 . S
C69 C68 1.372 . S
C69 C70 1.404 . S
C70 C69 1.404 . S
C70 C71 1.391 . S
C71 H65 0.930 . S
C71 C67 1.429 . S
C71 C70 1.391 . S
H72 C75 0.931 . S
H73 C78 0.928 . S
H74 C80 0.930 . S
C75 H72 0.931 . S
C75 C76 1.413 . S
C75 C77 1.360 . S
C76 C75 1.413 . S
C76 C80 1.429 . S
C77 C75 1.360 . S
C77 C78 1.372 . S
C78 H73 0.928 . S
C78 C77 1.372 . S
C78 C79 1.404 . S
C79 C78 1.404 . S
C79 C80 1.391 . S
C80 H74 0.930 . S
C80 C76 1.429 . S
C80 C79 1.391 . S
H81 C84 0.896 1_545 S
H82 C87 0.928 . S
H83 C89 0.930 . S
C84 H81 0.896 1_565 S
C84 C85 1.413 . S
C84 C86 1.360 . S
C85 C84 1.413 . S
C85 C89 1.429 . S
C86 C84 1.360 . S
C86 C87 1.372 . S
C87 H82 0.928 . S
C87 C86 1.372 . S
C87 C88 1.404 . S
C88 C87 1.404 . S
C88 C89 1.391 . S
C89 H83 0.930 . S
C89 C85 1.429 . S
C89 C88 1.391 . S
H90 C93 0.931 . S
H91 C96 0.928 . S
H92 C98 0.930 . S
C93 H90 0.931 . S
C93 C94 1.413 . S
C93 C95 1.360 . S
C94 C93 1.413 . S
C94 C98 1.429 . S
C95 C93 1.360 . S
C95 C96 1.372 . S
C96 H91 0.928 . S
C96 C95 1.372 . S
C96 C97 1.404 . S
C97 C96 1.404 . S
C97 C98 1.391 . S
C98 H92 0.930 . S
C98 C94 1.429 . S
C98 C97 1.391 . S
H99 C102 0.931 . S
H100 C105 0.928 . S
H101 C107 0.930 . S
C102 H99 0.931 . S
C102 C103 1.413 . S
C102 C104 1.360 . S
C103 C102 1.413 . S
C103 C107 1.429 . S
C104 C102 1.360 . S
C104 C105 1.372 . S
C105 H100 0.928 . S
C105 C104 1.372 . S
C105 C106 1.404 . S
C106 C105 1.404 . S
C106 C107 1.391 . S
C107 H101 0.930 . S
C107 C103 1.429 . S
C107 C106 1.391 . S
H108 C111 0.931 . S
H109 C114 0.928 . S
H110 C116 0.930 . S
C111 H108 0.931 . S
C111 C112 1.413 . S
C111 C113 1.360 . S
C112 C111 1.413 . S
C112 C116 1.429 . S
C113 C111 1.360 . S
C113 C114 1.372 . S
C114 H109 0.928 . S
C114 C113 1.372 . S
C114 C115 1.404 . S
C115 C114 1.404 . S
C115 C116 1.391 . S
C116 H110 0.930 . S
C116 C112 1.429 . S
C116 C115 1.391 . S
H117 C120 0.931 . S
H118 C123 0.928 . S
H119 C125 0.930 . S
C120 H117 0.931 . S
C120 C121 1.413 . S
C120 C122 1.360 . S
C121 C120 1.413 . S
C121 C125 1.429 . S
C122 C120 1.360 . S
C122 C123 1.372 . S
C123 H118 0.928 . S
C123 C122 1.372 . S
C123 C124 1.404 . S
C124 C123 1.404 . S
C124 C125 1.391 . S
C125 H119 0.930 . S
C125 C121 1.429 . S
C125 C124 1.391 . S
H126 C129 0.931 . S
H127 C132 0.928 . S
H128 C134 0.930 . S
C129 H126 0.931 . S
C129 C130 1.413 . S
C129 C131 1.360 . S
C130 C129 1.413 . S
C130 C134 1.429 . S
C131 C129 1.360 . S
C131 C132 1.372 . S
C132 H127 0.928 . S
C132 C131 1.372 . S
C132 C133 1.404 . S
C133 C132 1.404 . S
C133 C134 1.391 . S
C134 H128 0.930 . S
C134 C130 1.429 . S
C134 C133 1.391 . S
H135 C138 0.911 1_554 S
H136 C141 0.928 . S
H137 C143 0.930 . S
C138 H135 0.911 1_556 S
C138 C139 1.413 . S
C138 C140 1.360 . S
C139 C138 1.413 . S
C139 C143 1.429 . S
C140 C138 1.360 . S
C140 C141 1.372 . S
C141 H136 0.928 . S
C141 C140 1.372 . S
C141 C142 1.404 . S
C142 C141 1.404 . S
C142 C143 1.391 . S
C143 H137 0.930 . S
C143 C139 1.429 . S
C143 C142 1.391 . S
C144 O145 1.160 1_554 S
C144 O151 1.185 . S
O145 C144 1.160 1_556 S
O146 Zn147 1.899 1_556 S
O146 C154 1.284 . S
Zn147 O146 1.899 1_554 S
Zn147 O148 2.032 . S
Zn147 O151 2.086 . S
Zn147 O156 1.977 . S
O148 Zn147 2.032 . S
O148 C152 1.278 . S
C149 O150 1.203 . S
C149 O156 1.267 . S
O150 C149 1.203 . S
O151 C144 1.185 . S
O151 Zn147 2.086 . S
C152 O148 1.278 . S
C152 O153 1.211 . S
O153 C152 1.211 . S
C154 O146 1.284 . S
C154 O155 1.273 . S
O155 C154 1.273 . S
O156 Zn147 1.977 . S
O156 C149 1.267 . S
C157 O158 1.160 . S
C157 O164 1.185 . S
O158 C157 1.160 . S
O159 Zn160 1.899 . S
O159 C167 1.284 . S
Zn160 O159 1.899 . S
Zn160 O161 2.032 . S
Zn160 O164 2.086 . S
Zn160 O169 1.977 . S
O161 Zn160 2.032 . S
O161 C165 1.278 . S
C162 O163 1.203 . S
C162 O169 1.267 . S
O163 C162 1.203 . S
O164 C157 1.185 . S
O164 Zn160 2.086 . S
C165 O161 1.278 . S
C165 O166 1.211 . S
O166 C165 1.211 . S
C167 O159 1.284 . S
C167 O168 1.273 . S
O168 C167 1.273 . S
O169 Zn160 1.977 . S
O169 C162 1.267 . S
C170 O171 1.160 1_554 S
C170 O177 1.185 . S
O171 C170 1.160 1_556 S
O172 Zn173 1.899 1_556 S
O172 C180 1.284 . S
Zn173 O172 1.899 1_554 S
Zn173 O174 2.032 1_554 S
Zn173 O177 2.086 . S
Zn173 O182 1.977 . S
O174 Zn173 2.032 1_556 S
O174 C178 1.278 . S
C175 O176 1.203 . S
C175 O182 1.267 . S
O176 C175 1.203 . S
O177 C170 1.185 . S
O177 Zn173 2.086 . S
C178 O174 1.278 . S
C178 O179 1.211 1_556 S
O179 C178 1.211 1_554 S
C180 O172 1.284 . S
C180 O181 1.273 . S
O181 C180 1.273 . S
O182 Zn173 1.977 . S
O182 C175 1.267 . S
C183 O184 1.160 . S
C183 O190 1.185 . S
O184 C183 1.160 . S
O185 Zn186 1.899 . S
O185 C193 1.284 . S
Zn186 O185 1.899 . S
Zn186 O187 2.032 1_545 S
Zn186 O190 2.086 . S
Zn186 O195 1.977 . S
O187 Zn186 2.032 1_565 S
O187 C191 1.278 . S
C188 O189 1.203 . S
C188 O195 1.267 . S
O189 C188 1.203 . S
O190 C183 1.185 . S
O190 Zn186 2.086 . S
C191 O187 1.278 . S
C191 O192 1.211 . S
O192 C191 1.211 . S
C193 O185 1.284 . S
C193 O194 1.273 1_545 S
O194 C193 1.273 1_565 S
O195 Zn186 1.977 . S
O195 C188 1.267 . S
C196 O197 1.160 . S
C196 O203 1.185 . S
O197 C196 1.160 . S
O198 Zn199 1.899 . S
O198 C206 1.284 . S
Zn199 O198 1.899 . S
Zn199 O200 2.032 . S
Zn199 O203 2.086 . S
Zn199 O208 1.977 . S
O200 Zn199 2.032 . S
O200 C204 1.278 . S
C201 O202 1.203 . S
C201 O208 1.267 . S
O202 C201 1.203 . S
O203 C196 1.185 . S
O203 Zn199 2.086 . S
C204 O200 1.278 . S
C204 O205 1.211 . S
O205 C204 1.211 . S
C206 O198 1.284 . S
C206 O207 1.273 . S
O207 C206 1.273 . S
O208 Zn199 1.977 . S
O208 C201 1.267 . S
C209 O210 1.160 . S
C209 O216 1.185 . S
O210 C209 1.160 . S
O211 Zn212 1.899 . S
O211 C219 1.284 . S
Zn212 O211 1.899 . S
Zn212 O213 2.032 . S
Zn212 O216 2.086 . S
Zn212 O221 1.977 . S
O213 Zn212 2.032 . S
O213 C217 1.278 . S
C214 O215 1.203 . S
C214 O221 1.267 . S
O215 C214 1.203 . S
O216 C209 1.185 . S
O216 Zn212 2.086 . S
C217 O213 1.278 . S
C217 O218 1.211 . S
O218 C217 1.211 . S
C219 O211 1.284 . S
C219 O220 1.273 . S
O220 C219 1.273 . S
O221 Zn212 1.977 . S
O221 C214 1.267 . S
C222 O223 1.160 . S
C222 O229 1.185 . S
O223 C222 1.160 . S
O224 Zn225 1.899 . S
O224 C232 1.284 . S
Zn225 O224 1.899 . S
Zn225 O226 2.032 . S
Zn225 O229 2.086 . S
Zn225 O234 1.977 . S
O226 Zn225 2.032 . S
O226 C230 1.278 . S
C227 O228 1.203 . S
C227 O234 1.267 . S
O228 C227 1.203 . S
O229 C222 1.185 . S
O229 Zn225 2.086 . S
C230 O226 1.278 . S
C230 O231 1.211 . S
O231 C230 1.211 . S
C232 O224 1.284 . S
C232 O233 1.273 . S
O233 C232 1.273 . S
O234 Zn225 1.977 . S
O234 C227 1.267 . S
C235 O236 1.160 . S
C235 O242 1.185 . S
O236 C235 1.160 . S
O237 Zn238 1.899 . S
O237 C245 1.284 1_565 S
Zn238 O237 1.899 . S
Zn238 O239 2.032 1_565 S
Zn238 O242 2.086 . S
Zn238 O247 1.977 . S
O239 Zn238 2.032 1_545 S
O239 C243 1.278 . S
C240 O241 1.203 1_565 S
C240 O247 1.267 . S
O241 C240 1.203 1_545 S
O242 C235 1.185 . S
O242 Zn238 2.086 . S
C243 O239 1.278 . S
C243 O244 1.211 . S
O244 C243 1.211 . S
C245 O237 1.284 1_545 S
C245 O246 1.273 . S
O246 C245 1.273 . S
O247 Zn238 1.977 . S
O247 C240 1.267 . S
C248 O249 1.160 1_455 S
C248 O255 1.185 . S
O249 C248 1.160 1_655 S
O250 Zn251 1.899 1_655 S
O250 C258 1.284 . S
Zn251 O250 1.899 1_455 S
Zn251 O252 2.032 1_455 S
Zn251 O255 2.086 . S
Zn251 O260 1.977 . S
O252 Zn251 2.032 1_655 S
O252 C256 1.276 1_655 S
C253 O254 1.203 . S
C253 O260 1.267 . S
O254 C253 1.203 . S
O255 C248 1.185 . S
O255 Zn251 2.086 . S
C256 O252 1.276 1_455 S
C256 O257 1.219 . S
O257 C256 1.219 . S
C258 O250 1.284 . S
C258 O259 1.273 . S
O259 C258 1.273 . S
O260 Zn251 1.977 . S
O260 C253 1.267 . S
C261 O262 1.160 . S
C261 O268 1.185 . S
O262 C261 1.160 . S
O263 Zn264 1.899 . S
O263 C271 1.284 . S
Zn264 O263 1.899 . S
Zn264 O265 2.032 . S
Zn264 O268 2.086 . S
Zn264 O273 1.977 . S
O265 Zn264 2.032 . S
O265 C269 1.278 . S
C266 O267 1.203 . S
C266 O273 1.267 . S
O267 C266 1.203 . S
O268 C261 1.185 . S
O268 Zn264 2.086 . S
C269 O265 1.278 . S
C269 O270 1.211 . S
O270 C269 1.211 . S
C271 O263 1.284 . S
C271 O272 1.273 . S
O272 C271 1.273 . S
O273 Zn264 1.977 . S
O273 C266 1.267 . S
C274 O275 1.160 1_455 S
C274 O281 1.185 . S
O275 C274 1.160 1_655 S
O276 Zn277 1.899 1_655 S
O276 C284 1.284 . S
Zn277 O276 1.899 1_455 S
Zn277 O278 2.032 1_455 S
Zn277 O281 2.086 . S
Zn277 O286 1.977 . S
O278 Zn277 2.032 1_655 S
O278 C282 1.280 . S
C279 O280 1.203 . S
C279 O286 1.267 . S
O280 C279 1.203 . S
O281 C274 1.185 . S
O281 Zn277 2.086 . S
C282 O278 1.280 . S
C282 O283 1.205 1_655 S
O283 C282 1.205 1_455 S
C284 O276 1.284 . S
C284 O285 1.273 . S
O285 C284 1.273 . S
O286 Zn277 1.977 . S
O286 C279 1.267 . S
C287 O288 1.160 . S
C287 O294 1.185 . S
O288 C287 1.160 . S
O289 Zn290 1.899 . S
O289 C297 1.284 . S
Zn290 O289 1.899 . S
Zn290 O291 2.032 . S
Zn290 O294 2.086 . S
Zn290 O299 1.977 . S
O291 Zn290 2.032 . S
O291 C295 1.278 . S
C292 O293 1.203 . S
C292 O299 1.267 . S
O293 C292 1.203 . S
O294 C287 1.185 . S
O294 Zn290 2.086 . S
C295 O291 1.278 . S
C295 O296 1.211 . S
O296 C295 1.211 . S
C297 O289 1.284 . S
C297 O298 1.273 . S
O298 C297 1.273 . S
O299 Zn290 1.977 . S
O299 C292 1.267 . S
H300 C306 0.930 . S
H301 C310 0.930 . S
H302 C315 0.929 . S
H303 C313 0.929 . S
H304 C308 0.929 . S
H305 C314 0.929 . S
C306 H300 0.930 . S
C306 C307 1.367 . S
C306 C314 1.378 . S
C307 C306 1.367 . S
C307 C315 1.433 . S
C308 H304 0.929 . S
C308 C310 1.378 . S
C308 C312 1.350 . S
C309 C312 1.463 . S
C309 C314 1.350 . S
C309 N317 1.427 . S
C310 H301 0.930 . S
C310 C308 1.378 . S
C310 C311 1.367 . S
C311 C310 1.367 . S
C311 C313 1.433 . S
C312 C308 1.350 . S
C312 C309 1.463 . S
C312 N316 1.427 . S
C313 H303 0.929 . S
C313 C311 1.433 . S
C313 N316 1.384 . S
C314 H305 0.929 . S
C314 C306 1.378 . S
C314 C309 1.350 . S
C315 H302 0.929 . S
C315 C307 1.433 . S
C315 N317 1.384 . S
N316 C312 1.427 . S
N316 C313 1.384 . S
N317 C309 1.427 . S
N317 C315 1.384 . S
H318 C324 0.930 1_655 S
H319 C328 0.930 . S
H320 C333 0.929 . S
H321 C331 0.929 . S
H322 C326 0.929 . S
H323 C332 0.929 . S
C324 H318 0.930 1_455 S
C324 C325 1.367 . S
C324 C332 1.378 . S
C325 C324 1.367 . S
C325 C333 1.433 . S
C326 H322 0.929 . S
C326 C328 1.378 . S
C326 C330 1.350 . S
C327 C330 1.463 . S
C327 C332 1.350 . S
C327 N335 1.427 . S
C328 H319 0.930 . S
C328 C326 1.378 . S
C328 C329 1.367 . S
C329 C328 1.367 . S
C329 C331 1.433 . S
C330 C326 1.350 . S
C330 C327 1.463 . S
C330 N334 1.427 . S
C331 H321 0.929 . S
C331 C329 1.433 . S
C331 N334 1.384 . S
C332 H323 0.929 . S
C332 C324 1.378 . S
C332 C327 1.350 . S
C333 H320 0.929 . S
C333 C325 1.433 . S
C333 N335 1.384 . S
N334 C330 1.427 . S
N334 C331 1.384 . S
N335 C327 1.427 . S
N335 C333 1.384 . S
H336 C342 0.930 . S
H337 C346 0.930 . S
H338 C351 0.929 . S
H339 C349 0.929 . S
H340 C344 0.929 . S
H341 C350 0.929 . S
C342 H336 0.930 . S
C342 C343 1.367 . S
C342 C350 1.378 . S
C343 C342 1.367 . S
C343 C351 1.433 . S
C344 H340 0.929 . S
C344 C346 1.378 . S
C344 C348 1.350 . S
C345 C348 1.463 . S
C345 C350 1.350 . S
C345 N353 1.427 . S
C346 H337 0.930 . S
C346 C344 1.378 . S
C346 C347 1.367 . S
C347 C346 1.367 . S
C347 C349 1.433 . S
C348 C344 1.350 . S
C348 C345 1.463 . S
C348 N352 1.427 . S
C349 H339 0.929 . S
C349 C347 1.433 . S
C349 N352 1.384 . S
C350 H341 0.929 . S
C350 C342 1.378 . S
C350 C345 1.350 . S
C351 H338 0.929 . S
C351 C343 1.433 . S
C351 N353 1.384 . S
N352 C348 1.427 . S
N352 C349 1.384 . S
N353 C345 1.427 . S
N353 C351 1.384 . S
H354 C360 0.930 1_455 S
H355 C364 0.930 . S
H356 C369 0.929 1_455 S
H357 C367 0.929 . S
H358 C362 0.929 . S
H359 C368 0.929 . S
C360 H354 0.930 1_655 S
C360 C361 1.367 1_655 S
C360 C368 1.378 . S
C361 C360 1.367 1_455 S
C361 C369 1.433 1_465 S
C362 H358 0.929 . S
C362 C364 1.378 . S
C362 C366 1.350 1_545 S
C363 C366 1.463 . S
C363 C368 1.350 . S
C363 N371 1.427 1_565 S
C364 H355 0.930 . S
C364 C362 1.378 . S
C364 C365 1.367 . S
C365 C364 1.367 . S
C365 C367 1.433 1_545 S
C366 C362 1.350 1_565 S
C366 C363 1.463 . S
C366 N370 1.427 . S
C367 H357 0.929 . S
C367 C365 1.433 1_565 S
C367 N370 1.384 . S
C368 H359 0.929 . S
C368 C360 1.378 . S
C368 C363 1.350 . S
C369 H356 0.929 1_655 S
C369 C361 1.433 1_645 S
C369 N371 1.384 . S
N370 C366 1.427 . S
N370 C367 1.384 . S
N371 C363 1.427 1_545 S
N371 C369 1.384 . S
H372 C378 0.930 . S
H373 C382 0.930 . S
H374 C387 0.929 . S
H375 C385 0.929 . S
H376 C380 0.929 . S
H377 C386 0.929 . S
C378 H372 0.930 . S
C378 C379 1.367 . S
C378 C386 1.378 . S
C379 C378 1.367 . S
C379 C387 1.433 . S
C380 H376 0.929 . S
C380 C382 1.378 . S
C380 C384 1.350 . S
C381 C384 1.463 . S
C381 C386 1.350 . S
C381 N389 1.427 . S
C382 H373 0.930 . S
C382 C380 1.378 . S
C382 C383 1.367 . S
C383 C382 1.367 . S
C383 C385 1.433 . S
C384 C380 1.350 . S
C384 C381 1.463 . S
C384 N388 1.427 . S
C385 H375 0.929 . S
C385 C383 1.433 . S
C385 N388 1.384 . S
C386 H377 0.929 . S
C386 C378 1.378 . S
C386 C381 1.350 . S
C387 H374 0.929 . S
C387 C379 1.433 . S
C387 N389 1.384 . S
N388 C384 1.427 . S
N388 C385 1.384 . S
N389 C381 1.427 . S
N389 C387 1.384 . S
H390 C396 0.930 . S
H391 C400 0.930 . S
H392 C405 0.929 . S
H393 C403 0.929 . S
H394 C398 0.929 . S
H395 C404 0.929 . S
C396 H390 0.930 . S
C396 C397 1.367 . S
C396 C404 1.378 . S
C397 C396 1.367 . S
C397 C405 1.433 . S
C398 H394 0.929 . S
C398 C400 1.378 . S
C398 C402 1.350 . S
C399 C402 1.463 . S
C399 C404 1.350 . S
C399 N407 1.427 . S
C400 H391 0.930 . S
C400 C398 1.378 . S
C400 C401 1.367 . S
C401 C400 1.367 . S
C401 C403 1.433 . S
C402 C398 1.350 . S
C402 C399 1.463 . S
C402 N406 1.427 . S
C403 H393 0.929 . S
C403 C401 1.433 . S
C403 N406 1.384 . S
C404 H395 0.929 . S
C404 C396 1.378 . S
C404 C399 1.350 . S
C405 H392 0.929 . S
C405 C397 1.433 . S
C405 N407 1.384 . S
N406 C402 1.427 . S
N406 C403 1.384 . S
N407 C399 1.427 . S
N407 C405 1.384 . S
H408 C414 0.930 . S
H409 C418 0.930 . S
H410 C423 0.929 . S
H411 C421 0.929 . S
H412 C416 0.929 . S
H413 C422 0.929 . S
C414 H408 0.930 . S
C414 C415 1.367 . S
C414 C422 1.378 . S
C415 C414 1.367 . S
C415 C423 1.433 . S
C416 H412 0.929 . S
C416 C418 1.378 . S
C416 C420 1.350 . S
C417 C420 1.463 . S
C417 C422 1.350 . S
C417 N425 1.427 . S
C418 H409 0.930 . S
C418 C416 1.378 . S
C418 C419 1.367 . S
C419 C418 1.367 . S
C419 C421 1.433 . S
C420 C416 1.350 . S
C420 C417 1.463 . S
C420 N424 1.427 . S
C421 H411 0.929 . S
C421 C419 1.433 . S
C421 N424 1.384 . S
C422 H413 0.929 . S
C422 C414 1.378 . S
C422 C417 1.350 . S
C423 H410 0.929 . S
C423 C415 1.433 . S
C423 N425 1.384 . S
N424 C420 1.427 . S
N424 C421 1.384 . S
N425 C417 1.427 . S
N425 C423 1.384 . S
H426 C432 0.930 1_545 S
H427 C436 0.930 . S
H428 C441 0.929 . S
H429 C439 0.929 . S
H430 C434 0.929 . S
H431 C440 0.929 . S
C432 H426 0.930 1_565 S
C432 C433 1.367 . S
C432 C440 1.378 1_565 S
C433 C432 1.367 . S
C433 C441 1.433 . S
C434 H430 0.929 . S
C434 C436 1.378 . S
C434 C438 1.350 . S
C435 C438 1.463 . S
C435 C440 1.350 1_565 S
C435 N443 1.427 . S
C436 H427 0.930 . S
C436 C434 1.378 . S
C436 C437 1.367 . S
C437 C436 1.367 . S
C437 C439 1.433 1_565 S
C438 C434 1.350 . S
C438 C435 1.463 . S
C438 N442 1.427 1_565 S
C439 H429 0.929 . S
C439 C437 1.433 1_545 S
C439 N442 1.384 . S
C440 H431 0.929 . S
C440 C432 1.378 1_545 S
C440 C435 1.350 1_545 S
C441 H428 0.929 . S
C441 C433 1.433 . S
C441 N443 1.384 . S
N442 C438 1.427 1_545 S
N442 C439 1.384 . S
N443 C435 1.427 . S
N443 C441 1.384 . S
H444 C450 0.930 . S
H445 C454 0.930 . S
H446 C459 0.929 . S
H447 C457 0.929 . S
H448 C452 0.929 . S
H449 C458 0.929 . S
C450 H444 0.930 . S
C450 C451 1.367 . S
C450 C458 1.378 . S
C451 C450 1.367 . S
C451 C459 1.433 . S
C452 H448 0.929 . S
C452 C454 1.378 . S
C452 C456 1.350 . S
C453 C456 1.463 . S
C453 C458 1.350 . S
C453 N461 1.427 . S
C454 H445 0.930 . S
C454 C452 1.378 . S
C454 C455 1.367 . S
C455 C454 1.367 . S
C455 C457 1.433 . S
C456 C452 1.350 . S
C456 C453 1.463 . S
C456 N460 1.427 . S
C457 H447 0.929 . S
C457 C455 1.433 . S
C457 N460 1.384 . S
C458 H449 0.929 . S
C458 C450 1.378 . S
C458 C453 1.350 . S
C459 H446 0.929 . S
C459 C451 1.433 . S
C459 N461 1.384 . S
N460 C456 1.427 . S
N460 C457 1.384 . S
N461 C453 1.427 . S
N461 C459 1.384 . S
H462 C468 0.930 . S
H463 C472 0.930 . S
H464 C477 0.929 . S
H465 C475 0.929 . S
H466 C470 0.929 . S
H467 C476 0.929 . S
C468 H462 0.930 . S
C468 C469 1.367 . S
C468 C476 1.378 . S
C469 C468 1.367 . S
C469 C477 1.433 . S
C470 H466 0.929 . S
C470 C472 1.378 . S
C470 C474 1.350 . S
C471 C474 1.463 . S
C471 C476 1.350 . S
C471 N479 1.427 . S
C472 H463 0.930 . S
C472 C470 1.378 . S
C472 C473 1.367 . S
C473 C472 1.367 . S
C473 C475 1.433 . S
C474 C470 1.350 . S
C474 C471 1.463 . S
C474 N478 1.427 . S
C475 H465 0.929 . S
C475 C473 1.433 . S
C475 N478 1.384 . S
C476 H467 0.929 . S
C476 C468 1.378 . S
C476 C471 1.350 . S
C477 H464 0.929 . S
C477 C469 1.433 . S
C477 N479 1.384 . S
N478 C474 1.427 . S
N478 C475 1.384 . S
N479 C471 1.427 . S
N479 C477 1.384 . S
H480 C486 0.930 . S
H481 C490 0.930 . S
H482 C495 0.929 . S
H483 C493 0.929 . S
H484 C488 0.929 . S
H485 C494 0.929 . S
C486 H480 0.930 . S
C486 C487 1.367 . S
C486 C494 1.378 . S
C487 C486 1.367 . S
C487 C495 1.433 . S
C488 H484 0.929 . S
C488 C490 1.378 . S
C488 C492 1.350 . S
C489 C492 1.463 . S
C489 C494 1.350 . S
C489 N497 1.427 . S
C490 H481 0.930 . S
C490 C488 1.378 . S
C490 C491 1.367 . S
C491 C490 1.367 . S
C491 C493 1.433 . S
C492 C488 1.350 . S
C492 C489 1.463 . S
C492 N496 1.427 . S
C493 H483 0.929 . S
C493 C491 1.433 . S
C493 N496 1.384 . S
C494 H485 0.929 . S
C494 C486 1.378 . S
C494 C489 1.350 . S
C495 H482 0.929 . S
C495 C487 1.433 . S
C495 N497 1.384 . S
N496 C492 1.427 . S
N496 C493 1.384 . S
N497 C489 1.427 . S
N497 C495 1.384 . S
H498 C504 0.930 . S
H499 C508 0.930 . S
H500 C513 0.929 . S
H501 C511 0.929 . S
H502 C506 0.929 . S
H503 C512 0.929 . S
C504 H498 0.930 . S
C504 C505 1.367 . S
C504 C512 1.378 . S
C505 C504 1.367 . S
C505 C513 1.433 . S
C506 H502 0.929 . S
C506 C508 1.378 . S
C506 C510 1.350 . S
C507 C510 1.463 . S
C507 C512 1.350 . S
C507 N515 1.427 . S
C508 H499 0.930 . S
C508 C506 1.378 . S
C508 C509 1.367 . S
C509 C508 1.367 . S
C509 C511 1.433 . S
C510 C506 1.350 . S
C510 C507 1.463 . S
C510 N514 1.427 . S
C511 H501 0.929 . S
C511 C509 1.433 . S
C511 N514 1.384 . S
C512 H503 0.929 . S
C512 C504 1.378 . S
C512 C507 1.350 . S
C513 H500 0.929 . S
C513 C505 1.433 . S
C513 N515 1.384 . S
N514 C510 1.427 . S
N514 C511 1.384 . S
N515 C507 1.427 . S
N515 C513 1.384 . S
H516 C522 0.930 . S
H517 C526 0.930 . S
H518 C531 0.929 . S
H519 C529 0.929 . S
H520 C524 0.929 . S
H521 C530 0.929 . S
C522 H516 0.930 . S
C522 C523 1.367 . S
C522 C530 1.378 . S
C523 C522 1.367 . S
C523 C531 1.433 . S
C524 H520 0.929 . S
C524 C526 1.378 . S
C524 C528 1.350 . S
C525 C528 1.463 . S
C525 C530 1.350 . S
C525 N533 1.427 . S
C526 H517 0.930 . S
C526 C524 1.378 . S
C526 C527 1.367 . S
C527 C526 1.367 . S
C527 C529 1.433 . S
C528 C524 1.350 . S
C528 C525 1.463 . S
C528 N532 1.427 . S
C529 H519 0.929 . S
C529 C527 1.433 . S
C529 N532 1.384 . S
C530 H521 0.929 . S
C530 C522 1.378 . S
C530 C525 1.350 . S
C531 H518 0.929 . S
C531 C523 1.433 . S
C531 N533 1.384 . S
N532 C528 1.427 . S
N532 C529 1.384 . S
N533 C525 1.427 . S
N533 C531 1.384 . S
H534 C540 0.930 . S
H535 C544 0.930 . S
H536 C549 0.929 . S
H537 C547 0.929 1_655 S
H538 C542 0.929 . S
H539 C548 0.929 . S
C540 H534 0.930 . S
C540 C541 1.367 . S
C540 C548 1.378 . S
C541 C540 1.367 . S
C541 C549 1.433 . S
C542 H538 0.929 . S
C542 C544 1.378 . S
C542 C546 1.350 . S
C543 C546 1.463 . S
C543 C548 1.350 . S
C543 N551 1.427 . S
C544 H535 0.930 . S
C544 C542 1.378 . S
C544 C545 1.367 . S
C545 C544 1.367 . S
C545 C547 1.433 . S
C546 C542 1.350 . S
C546 C543 1.463 . S
C546 N550 1.427 . S
C547 H537 0.929 1_455 S
C547 C545 1.433 . S
C547 N550 1.384 . S
C548 H539 0.929 . S
C548 C540 1.378 . S
C548 C543 1.350 . S
C549 H536 0.929 . S
C549 C541 1.433 . S
C549 N551 1.384 . S
N550 C546 1.427 . S
N550 C547 1.384 . S
N551 C543 1.427 . S
N551 C549 1.384 . S
H552 C558 0.930 . S
H553 C562 0.930 . S
H554 C567 0.929 . S
H555 C565 0.929 . S
H556 C560 0.929 . S
H557 C566 0.929 . S
C558 H552 0.930 . S
C558 C559 1.367 . S
C558 C566 1.378 . S
C559 C558 1.367 . S
C559 C567 1.433 . S
C560 H556 0.929 . S
C560 C562 1.378 . S
C560 C564 1.350 . S
C561 C564 1.463 . S
C561 C566 1.350 . S
C561 N569 1.427 . S
C562 H553 0.930 . S
C562 C560 1.378 . S
C562 C563 1.367 . S
C563 C562 1.367 . S
C563 C565 1.433 . S
C564 C560 1.350 . S
C564 C561 1.463 . S
C564 N568 1.427 . S
C565 H555 0.929 . S
C565 C563 1.433 . S
C565 N568 1.384 . S
C566 H557 0.929 . S
C566 C558 1.378 . S
C566 C561 1.350 . S
C567 H554 0.929 . S
C567 C559 1.433 . S
C567 N569 1.384 . S
N568 C564 1.427 . S
N568 C565 1.384 . S
N569 C561 1.427 . S
N569 C567 1.384 . S
H570 C576 0.913 1_455 S
H571 C580 0.930 . S
H572 C585 0.929 . S
H573 C583 0.929 . S
H574 C578 0.929 . S
H575 C584 0.929 . S
C576 H570 0.913 1_655 S
C576 C577 1.387 . S
C576 C584 1.376 1_655 S
C577 C576 1.387 . S
C577 C585 1.433 . S
C578 H574 0.929 . S
C578 C580 1.378 . S
C578 C582 1.350 . S
C579 C582 1.463 . S
C579 C584 1.350 1_655 S
C579 N587 1.427 . S
C580 H571 0.930 . S
C580 C578 1.378 . S
C580 C581 1.367 . S
C581 C580 1.367 . S
C581 C583 1.433 1_655 S
C582 C578 1.350 . S
C582 C579 1.463 . S
C582 N586 1.427 1_655 S
C583 H573 0.929 . S
C583 C581 1.433 1_455 S
C583 N586 1.384 . S
C584 H575 0.929 . S
C584 C576 1.376 1_455 S
C584 C579 1.350 1_455 S
C585 H572 0.929 . S
C585 C577 1.433 . S
C585 N587 1.384 . S
N586 C582 1.427 1_455 S
N586 C583 1.384 . S
N587 C579 1.427 . S
N587 C585 1.384 . S
H588 C594 0.930 . S
H589 C598 0.930 . S
H590 C603 0.929 . S
H591 C601 0.929 . S
H592 C596 0.929 . S
H593 C602 0.929 . S
C594 H588 0.930 . S
C594 C595 1.367 . S
C594 C602 1.378 . S
C595 C594 1.367 . S
C595 C603 1.433 . S
C596 H592 0.929 . S
C596 C598 1.378 . S
C596 C600 1.350 . S
C597 C600 1.463 . S
C597 C602 1.350 . S
C597 N605 1.427 . S
C598 H589 0.930 . S
C598 C596 1.378 . S
C598 C599 1.367 . S
C599 C598 1.367 . S
C599 C601 1.433 . S
C600 C596 1.350 . S
C600 C597 1.463 . S
C600 N604 1.427 . S
C601 H591 0.929 . S
C601 C599 1.433 . S
C601 N604 1.384 . S
C602 H593 0.929 . S
C602 C594 1.378 . S
C602 C597 1.350 . S
C603 H590 0.929 . S
C603 C595 1.433 . S
C603 N605 1.384 . S
N604 C600 1.427 . S
N604 C601 1.384 . S
N605 C597 1.427 . S
N605 C603 1.384 . S
H606 C612 0.930 . S
H607 C616 0.930 . S
H608 C621 0.929 . S
H609 C619 0.929 . S
H610 C614 0.929 . S
H611 C620 0.929 . S
C612 H606 0.930 . S
C612 C613 1.367 . S
C612 C620 1.378 . S
C613 C612 1.367 . S
C613 C621 1.433 . S
C614 H610 0.929 . S
C614 C616 1.378 . S
C614 C618 1.350 . S
C615 C618 1.463 . S
C615 C620 1.350 . S
C615 N623 1.427 . S
C616 H607 0.930 . S
C616 C614 1.378 . S
C616 C617 1.367 . S
C617 C616 1.367 . S
C617 C619 1.433 . S
C618 C614 1.350 . S
C618 C615 1.463 . S
C618 N622 1.427 . S
C619 H609 0.929 . S
C619 C617 1.433 . S
C619 N622 1.384 . S
C620 H611 0.929 . S
C620 C612 1.378 . S
C620 C615 1.350 . S
C621 H608 0.929 . S
C621 C613 1.433 . S
C621 N623 1.384 . S
N622 C618 1.427 . S
N622 C619 1.384 . S
N623 C615 1.427 . S
N623 C621 1.384 . S
H624 C630 0.930 . S
H625 C634 0.933 . S
H626 C639 0.929 . S
H627 C637 0.929 . S
H628 C632 0.929 . S
H629 C638 0.929 . S
C630 H624 0.930 . S
C630 C631 1.367 . S
C630 C638 1.378 . S
C631 C630 1.367 . S
C631 C639 1.433 1_545 S
C632 H628 0.929 . S
C632 C634 1.378 . S
C632 C636 1.350 . S
C633 C636 1.463 . S
C633 C638 1.350 1_565 S
C633 N641 1.427 . S
C634 H625 0.933 . S
C634 C632 1.378 . S
C634 C635 1.367 . S
C635 C634 1.367 . S
C635 C637 1.433 . S
C636 C632 1.350 . S
C636 C633 1.463 . S
C636 N640 1.427 . S
C637 H627 0.929 . S
C637 C635 1.433 . S
C637 N640 1.384 . S
C638 H629 0.929 . S
C638 C630 1.378 . S
C638 C633 1.350 1_545 S
C639 H626 0.929 . S
C639 C631 1.433 1_565 S
C639 N641 1.384 . S
N640 C636 1.427 . S
N640 C637 1.384 . S
N641 C633 1.427 . S
N641 C639 1.384 . S
H642 C648 0.930 . S
H643 C652 0.930 . S
H644 C657 0.929 . S
H645 C655 0.929 . S
H646 C650 0.929 . S
H647 C656 0.929 . S
C648 H642 0.930 . S
C648 C649 1.367 . S
C648 C656 1.378 . S
C649 C648 1.367 . S
C649 C657 1.433 . S
C650 H646 0.929 . S
C650 C652 1.378 . S
C650 C654 1.350 . S
C651 C654 1.463 . S
C651 C656 1.350 . S
C651 N659 1.427 . S
C652 H643 0.930 . S
C652 C650 1.378 . S
C652 C653 1.367 . S
C653 C652 1.367 . S
C653 C655 1.433 . S
C654 C650 1.350 . S
C654 C651 1.463 . S
C654 N658 1.427 . S
C655 H645 0.929 . S
C655 C653 1.433 . S
C655 N658 1.384 . S
C656 H647 0.929 . S
C656 C648 1.378 . S
C656 C651 1.350 . S
C657 H644 0.929 . S
C657 C649 1.433 . S
C657 N659 1.384 . S
N658 C654 1.427 . S
N658 C655 1.384 . S
N659 C651 1.427 . S
N659 C657 1.384 . S
H660 C666 0.930 1_565 S
H661 C670 0.930 . S
H662 C675 0.929 . S
H663 C673 0.929 . S
H664 C668 0.929 . S
H665 C674 0.929 . S
C666 H660 0.930 1_545 S
C666 C667 1.367 . S
C666 C674 1.378 . S
C667 C666 1.367 . S
C667 C675 1.433 . S
C668 H664 0.929 . S
C668 C670 1.378 . S
C668 C672 1.350 . S
C669 C672 1.463 . S
C669 C674 1.350 . S
C669 N677 1.427 . S
C670 H661 0.930 . S
C670 C668 1.378 . S
C670 C671 1.367 . S
C671 C670 1.367 . S
C671 C673 1.433 . S
C672 C668 1.350 . S
C672 C669 1.463 . S
C672 N676 1.427 . S
C673 H663 0.929 . S
C673 C671 1.433 . S
C673 N676 1.384 . S
C674 H665 0.929 . S
C674 C666 1.378 . S
C674 C669 1.350 . S
C675 H662 0.929 . S
C675 C667 1.433 . S
C675 N677 1.384 . S
N676 C672 1.427 . S
N676 C673 1.384 . S
N677 C669 1.427 . S
N677 C675 1.384 . S
H678 C684 0.930 . S
H679 C688 0.930 . S
H680 C693 0.929 . S
H681 C691 0.929 . S
H682 C686 0.929 . S
H683 C692 0.929 . S
C684 H678 0.930 . S
C684 C685 1.367 . S
C684 C692 1.378 . S
C685 C684 1.367 . S
C685 C693 1.433 . S
C686 H682 0.929 . S
C686 C688 1.378 . S
C686 C690 1.350 . S
C687 C690 1.463 . S
C687 C692 1.350 . S
C687 N695 1.427 . S
C688 H679 0.930 . S
C688 C686 1.378 . S
C688 C689 1.367 . S
C689 C688 1.367 . S
C689 C691 1.433 . S
C690 C686 1.350 . S
C690 C687 1.463 . S
C690 N694 1.427 . S
C691 H681 0.929 . S
C691 C689 1.433 . S
C691 N694 1.384 . S
C692 H683 0.929 . S
C692 C684 1.378 . S
C692 C687 1.350 . S
C693 H680 0.929 . S
C693 C685 1.433 . S
C693 N695 1.384 . S
N694 C690 1.427 . S
N694 C691 1.384 . S
N695 C687 1.427 . S
N695 C693 1.384 . S
H696 C702 0.930 . S
H697 C706 0.930 . S
H698 C711 0.929 . S
H699 C709 0.929 . S
H700 C704 0.929 . S
H701 C710 0.929 . S
C702 H696 0.930 . S
C702 C703 1.363 1_565 S
C702 C710 1.378 1_565 S
C703 C702 1.363 1_545 S
C703 C711 1.444 . S
C704 H700 0.929 . S
C704 C706 1.378 . S
C704 C708 1.350 . S
C705 C708 1.463 . S
C705 C710 1.350 . S
C705 N713 1.427 . S
C706 H697 0.930 . S
C706 C704 1.378 . S
C706 C707 1.367 . S
C707 C706 1.367 . S
C707 C709 1.433 . S
C708 C704 1.350 . S
C708 C705 1.463 . S
C708 N712 1.427 . S
C709 H699 0.929 . S
C709 C707 1.433 . S
C709 N712 1.384 . S
C710 H701 0.929 . S
C710 C702 1.378 1_545 S
C710 C705 1.350 . S
C711 H698 0.929 . S
C711 C703 1.444 . S
C711 N713 1.384 . S
N712 C708 1.427 . S
N712 C709 1.384 . S
N713 C705 1.427 . S
N713 C711 1.384 . S
H714 C720 0.930 . S
H715 C724 0.930 . S
H716 C729 0.929 . S
H717 C727 0.929 . S
H718 C722 0.929 . S
H719 C728 0.929 . S
C720 H714 0.930 . S
C720 C721 1.367 . S
C720 C728 1.378 . S
C721 C720 1.367 . S
C721 C729 1.433 . S
C722 H718 0.929 . S
C722 C724 1.378 . S
C722 C726 1.350 . S
C723 C726 1.463 . S
C723 C728 1.350 . S
C723 N731 1.427 . S
C724 H715 0.930 . S
C724 C722 1.378 . S
C724 C725 1.367 . S
C725 C724 1.367 . S
C725 C727 1.433 . S
C726 C722 1.350 . S
C726 C723 1.463 . S
C726 N730 1.427 . S
C727 H717 0.929 . S
C727 C725 1.433 . S
C727 N730 1.384 . S
C728 H719 0.929 . S
C728 C720 1.378 . S
C728 C723 1.350 . S
C729 H716 0.929 . S
C729 C721 1.433 . S
C729 N731 1.384 . S
N730 C726 1.427 . S
N730 C727 1.384 . S
N731 C723 1.427 . S
N731 C729 1.384 . S
H732 C738 0.930 . S
H733 C742 0.930 . S
H734 C747 0.929 . S
H735 C745 0.929 . S
H736 C740 0.929 . S
H737 C746 0.929 . S
C738 H732 0.930 . S
C738 C739 1.367 . S
C738 C746 1.378 . S
C739 C738 1.367 . S
C739 C747 1.433 . S
C740 H736 0.929 . S
C740 C742 1.378 . S
C740 C744 1.350 . S
C741 C744 1.463 . S
C741 C746 1.350 . S
C741 N749 1.427 . S
C742 H733 0.930 . S
C742 C740 1.378 . S
C742 C743 1.367 . S
C743 C742 1.367 . S
C743 C745 1.433 . S
C744 C740 1.350 . S
C744 C741 1.463 . S
C744 N748 1.427 . S
C745 H735 0.929 . S
C745 C743 1.433 . S
C745 N748 1.384 . S
C746 H737 0.929 . S
C746 C738 1.378 . S
C746 C741 1.350 . S
C747 H734 0.929 . S
C747 C739 1.433 . S
C747 N749 1.384 . S
N748 C744 1.427 . S
N748 C745 1.384 . S
N749 C741 1.427 . S
N749 C747 1.384 . S
H750 C756 0.930 . S
H751 C760 0.930 . S
H752 C765 0.929 . S
H753 C763 0.929 . S
H754 C758 0.929 . S
H755 C764 0.929 1_565 S
C756 H750 0.930 . S
C756 C757 1.367 . S
C756 C764 1.378 . S
C757 C756 1.367 . S
C757 C765 1.433 . S
C758 H754 0.929 . S
C758 C760 1.378 . S
C758 C762 1.350 . S
C759 C762 1.463 . S
C759 C764 1.350 . S
C759 N767 1.427 . S
C760 H751 0.930 . S
C760 C758 1.378 . S
C760 C761 1.367 . S
C761 C760 1.367 . S
C761 C763 1.433 1_545 S
C762 C758 1.350 . S
C762 C759 1.463 . S
C762 N766 1.449 . S
C763 H753 0.929 . S
C763 C761 1.433 1_565 S
C763 N766 1.379 1_565 S
C764 H755 0.929 1_545 S
C764 C756 1.378 . S
C764 C759 1.350 . S
C765 H752 0.929 . S
C765 C757 1.433 . S
C765 N767 1.384 . S
N766 C762 1.449 . S
N766 C763 1.379 1_545 S
N767 C759 1.427 . S
N767 C765 1.384 . S
H768 C774 0.930 . S
H769 C778 0.930 . S
H770 C783 0.929 . S
H771 C781 0.929 . S
H772 C776 0.929 . S
H773 C782 0.929 . S
C774 H768 0.930 . S
C774 C775 1.367 . S
C774 C782 1.378 . S
C775 C774 1.367 . S
C775 C783 1.433 . S
C776 H772 0.929 . S
C776 C778 1.378 . S
C776 C780 1.350 . S
C777 C780 1.463 . S
C777 C782 1.350 . S
C777 N785 1.427 . S
C778 H769 0.930 . S
C778 C776 1.378 . S
C778 C779 1.367 . S
C779 C778 1.367 . S
C779 C781 1.433 . S
C780 C776 1.350 . S
C780 C777 1.463 . S
C780 N784 1.427 . S
C781 H771 0.929 . S
C781 C779 1.433 . S
C781 N784 1.384 . S
C782 H773 0.929 . S
C782 C774 1.378 . S
C782 C777 1.350 . S
C783 H770 0.929 . S
C783 C775 1.433 . S
C783 N785 1.384 . S
N784 C780 1.427 . S
N784 C781 1.384 . S
N785 C777 1.427 . S
N785 C783 1.384 . S
H786 C792 0.930 . S
H787 C796 0.930 . S
H788 C801 0.929 . S
H789 C799 0.929 . S
H790 C794 0.929 . S
H791 C800 0.929 . S
C792 H786 0.930 . S
C792 C793 1.367 . S
C792 C800 1.378 . S
C793 C792 1.367 . S
C793 C801 1.433 . S
C794 H790 0.929 . S
C794 C796 1.378 . S
C794 C798 1.350 . S
C795 C798 1.463 . S
C795 C800 1.350 . S
C795 N803 1.427 . S
C796 H787 0.930 . S
C796 C794 1.378 . S
C796 C797 1.367 . S
C797 C796 1.367 . S
C797 C799 1.433 . S
C798 C794 1.350 . S
C798 C795 1.463 . S
C798 N802 1.427 . S
C799 H789 0.929 . S
C799 C797 1.433 . S
C799 N802 1.384 . S
C800 H791 0.929 . S
C800 C792 1.378 . S
C800 C795 1.350 . S
C801 H788 0.929 . S
C801 C793 1.433 . S
C801 N803 1.384 . S
N802 C798 1.427 . S
N802 C799 1.384 . S
N803 C795 1.427 . S
N803 C801 1.384 . S
H804 C810 0.930 . S
H805 C814 0.930 . S
H806 C819 0.929 . S
H807 C817 0.929 . S
H808 C812 0.929 . S
H809 C818 0.929 . S
C810 H804 0.930 . S
C810 C811 1.367 . S
C810 C818 1.378 . S
C811 C810 1.367 . S
C811 C819 1.433 . S
C812 H808 0.929 . S
C812 C814 1.378 . S
C812 C816 1.350 . S
C813 C816 1.463 . S
C813 C818 1.350 . S
C813 N821 1.427 . S
C814 H805 0.930 . S
C814 C812 1.378 . S
C814 C815 1.367 . S
C815 C814 1.367 . S
C815 C817 1.433 . S
C816 C812 1.350 . S
C816 C813 1.463 . S
C816 N820 1.427 . S
C817 H807 0.929 . S
C817 C815 1.433 . S
C817 N820 1.384 . S
C818 H809 0.929 . S
C818 C810 1.378 . S
C818 C813 1.350 . S
C819 H806 0.929 . S
C819 C811 1.433 . S
C819 N821 1.384 . S
N820 C816 1.427 . S
N820 C817 1.384 . S
N821 C813 1.427 . S
N821 C819 1.384 . S
H822 C828 0.930 . S
H823 C832 0.930 1_565 S
H824 C837 0.929 . S
H825 C835 0.929 . S
H826 C830 0.929 1_565 S
H827 C836 0.929 . S
C828 H822 0.930 . S
C828 C829 1.367 1_655 S
C828 C836 1.378 . S
C829 C828 1.367 1_455 S
C829 C837 1.433 . S
C830 H826 0.929 1_545 S
C830 C832 1.378 . S
C830 C834 1.350 . S
C831 C834 1.463 . S
C831 C836 1.350 . S
C831 N839 1.427 . S
C832 H823 0.930 1_545 S
C832 C830 1.378 . S
C832 C833 1.367 . S
C833 C832 1.367 . S
C833 C835 1.433 . S
C834 C830 1.350 . S
C834 C831 1.463 . S
C834 N838 1.427 . S
C835 H825 0.929 . S
C835 C833 1.433 . S
C835 N838 1.384 . S
C836 H827 0.929 . S
C836 C828 1.378 . S
C836 C831 1.350 . S
C837 H824 0.929 . S
C837 C829 1.433 . S
C837 N839 1.384 1_455 S
N838 C834 1.427 . S
N838 C835 1.384 . S
N839 C831 1.427 . S
N839 C837 1.384 1_655 S
H840 C846 0.930 . S
H841 C850 0.930 . S
H842 C855 0.929 . S
H843 C853 0.929 . S
H844 C848 0.929 . S
H845 C854 0.929 . S
C846 H840 0.930 . S
C846 C847 1.367 . S
C846 C854 1.378 . S
C847 C846 1.367 . S
C847 C855 1.433 . S
C848 H844 0.929 . S
C848 C850 1.378 . S
C848 C852 1.350 . S
C849 C852 1.463 . S
C849 C854 1.350 . S
C849 N857 1.427 . S
C850 H841 0.930 . S
C850 C848 1.378 . S
C850 C851 1.367 . S
C851 C850 1.367 . S
C851 C853 1.433 . S
C852 C848 1.350 . S
C852 C849 1.463 . S
C852 N856 1.427 . S
C853 H843 0.929 . S
C853 C851 1.433 . S
C853 N856 1.384 . S
C854 H845 0.929 . S
C854 C846 1.378 . S
C854 C849 1.350 . S
C855 H842 0.929 . S
C855 C847 1.433 . S
C855 N857 1.384 . S
N856 C852 1.427 . S
N856 C853 1.384 . S
N857 C849 1.427 . S
N857 C855 1.384 . S
H858 C864 0.930 . S
H859 C868 0.930 . S
H860 C873 0.929 . S
H861 C871 0.929 . S
H862 C866 0.929 . S
H863 C872 0.929 . S
C864 H858 0.930 . S
C864 C865 1.362 1_655 S
C864 C872 1.378 1_655 S
C865 C864 1.362 1_455 S
C865 C873 1.450 . S
C866 H862 0.929 . S
C866 C868 1.378 . S
C866 C870 1.350 . S
C867 C870 1.463 . S
C867 C872 1.350 . S
C867 N875 1.427 . S
C868 H859 0.930 . S
C868 C866 1.378 . S
C868 C869 1.367 . S
C869 C868 1.367 . S
C869 C871 1.433 . S
C870 C866 1.350 . S
C870 C867 1.463 . S
C870 N874 1.427 . S
C871 H861 0.929 . S
C871 C869 1.433 . S
C871 N874 1.384 . S
C872 H863 0.929 . S
C872 C864 1.378 1_455 S
C872 C867 1.350 . S
C873 H860 0.929 . S
C873 C865 1.450 . S
C873 N875 1.384 . S
N874 C870 1.427 . S
N874 C871 1.384 . S
N875 C867 1.427 . S
N875 C873 1.384 . S
H876 C882 0.930 . S
H877 C886 0.930 . S
H878 C891 0.929 . S
H879 C889 0.929 . S
H880 C884 0.929 . S
H881 C890 0.929 . S
C882 H876 0.930 . S
C882 C883 1.367 . S
C882 C890 1.378 . S
C883 C882 1.367 . S
C883 C891 1.433 . S
C884 H880 0.929 . S
C884 C886 1.378 . S
C884 C888 1.350 . S
C885 C888 1.463 . S
C885 C890 1.350 . S
C885 N893 1.427 . S
C886 H877 0.930 . S
C886 C884 1.378 . S
C886 C887 1.367 . S
C887 C886 1.367 . S
C887 C889 1.433 . S
C888 C884 1.350 . S
C888 C885 1.463 . S
C888 N892 1.427 . S
C889 H879 0.929 . S
C889 C887 1.433 . S
C889 N892 1.384 . S
C890 H881 0.929 . S
C890 C882 1.378 . S
C890 C885 1.350 . S
C891 H878 0.929 . S
C891 C883 1.433 . S
C891 N893 1.384 . S
N892 C888 1.427 . S
N892 C889 1.384 . S
N893 C885 1.427 . S
N893 C891 1.384 . S
H894 C900 0.930 . S
H895 C904 0.930 . S
H896 C909 0.929 1_455 S
H897 C907 0.929 . S
H898 C902 0.929 . S
H899 C908 0.929 . S
C900 H894 0.930 . S
C900 C901 1.380 . S
C900 C908 1.378 . S
C901 C900 1.380 . S
C901 C909 1.429 1_556 S
C902 H898 0.929 . S
C902 C904 1.378 . S
C902 C906 1.350 1_455 S
C903 C906 1.463 . S
C903 C908 1.350 . S
C903 N911 1.427 . S
C904 H895 0.930 . S
C904 C902 1.378 . S
C904 C905 1.367 1_455 S
C905 C904 1.367 1_655 S
C905 C907 1.433 . S
C906 C902 1.350 1_655 S
C906 C903 1.463 . S
C906 N910 1.427 . S
C907 H897 0.929 . S
C907 C905 1.433 . S
C907 N910 1.384 . S
C908 H899 0.929 . S
C908 C900 1.378 . S
C908 C903 1.350 . S
C909 H896 0.929 1_655 S
C909 C901 1.429 1_554 S
C909 N911 1.384 1_554 S
N910 C906 1.427 . S
N910 C907 1.384 . S
N911 C903 1.427 . S
N911 C909 1.384 1_556 S
H912 C918 0.930 . S
H913 C922 0.930 . S
H914 C927 0.929 . S
H915 C925 0.929 . S
H916 C920 0.929 . S
H917 C926 0.929 . S
C918 H912 0.930 . S
C918 C919 1.367 . S
C918 C926 1.378 . S
C919 C918 1.367 . S
C919 C927 1.433 . S
C920 H916 0.929 . S
C920 C922 1.378 . S
C920 C924 1.350 . S
C921 C924 1.463 . S
C921 C926 1.350 . S
C921 N929 1.427 . S
C922 H913 0.930 . S
C922 C920 1.378 . S
C922 C923 1.367 . S
C923 C922 1.367 . S
C923 C925 1.433 . S
C924 C920 1.350 . S
C924 C921 1.463 . S
C924 N928 1.427 . S
C925 H915 0.929 . S
C925 C923 1.433 . S
C925 N928 1.384 . S
C926 H917 0.929 . S
C926 C918 1.378 . S
C926 C921 1.350 . S
C927 H914 0.929 . S
C927 C919 1.433 . S
C927 N929 1.384 . S
N928 C924 1.427 . S
N928 C925 1.384 . S
N929 C921 1.427 . S
N929 C927 1.384 . S
H930 C936 0.930 . S
H931 C940 0.930 1_655 S
H932 C945 0.929 . S
H933 C943 0.929 . S
H934 C938 0.929 1_655 S
H935 C944 0.929 1_554 S
C936 H930 0.930 . S
C936 C937 1.367 . S
C936 C944 1.378 1_554 S
C937 C936 1.367 . S
C937 C945 1.433 1_554 S
C938 H934 0.929 1_455 S
C938 C940 1.378 . S
C938 C942 1.350 . S
C939 C942 1.463 . S
C939 C944 1.350 . S
C939 N947 1.427 . S
C940 H931 0.930 1_455 S
C940 C938 1.378 . S
C940 C941 1.367 . S
C941 C940 1.367 . S
C941 C943 1.433 . S
C942 C938 1.350 . S
C942 C939 1.463 . S
C942 N946 1.427 . S
C943 H933 0.929 . S
C943 C941 1.433 . S
C943 N946 1.384 . S
C944 H935 0.929 1_556 S
C944 C936 1.378 1_556 S
C944 C939 1.350 . S
C945 H932 0.929 . S
C945 C937 1.433 1_556 S
C945 N947 1.384 . S
N946 C942 1.427 . S
N946 C943 1.384 . S
N947 C939 1.427 . S
N947 C945 1.384 . S
H948 C954 0.930 . S
H949 C958 0.930 . S
H950 C963 0.929 . S
H951 C961 0.929 . S
H952 C956 0.929 . S
H953 C962 0.929 . S
C954 H948 0.930 . S
C954 C955 1.367 . S
C954 C962 1.378 . S
C955 C954 1.367 . S
C955 C963 1.433 . S
C956 H952 0.929 . S
C956 C958 1.378 . S
C956 C960 1.350 . S
C957 C960 1.463 . S
C957 C962 1.350 . S
C957 N965 1.427 . S
C958 H949 0.930 . S
C958 C956 1.378 . S
C958 C959 1.367 . S
C959 C958 1.367 . S
C959 C961 1.433 . S
C960 C956 1.350 . S
C960 C957 1.463 . S
C960 N964 1.427 . S
C961 H951 0.929 . S
C961 C959 1.433 . S
C961 N964 1.384 . S
C962 H953 0.929 . S
C962 C954 1.378 . S
C962 C957 1.350 . S
C963 H950 0.929 . S
C963 C955 1.433 . S
C963 N965 1.384 . S
N964 C960 1.427 . S
N964 C961 1.384 . S
N965 C957 1.427 . S
N965 C963 1.384 . S
H966 C972 0.930 . S
H967 C976 0.930 . S
H968 C981 0.929 . S
H969 C979 0.929 . S
H970 C974 0.929 . S
H971 C980 0.929 . S
C972 H966 0.930 . S
C972 C973 1.367 1_554 S
C972 C980 1.378 . S
C973 C972 1.367 1_556 S
C973 C981 1.433 . S
C974 H970 0.929 . S
C974 C976 1.378 . S
C974 C978 1.350 . S
C975 C978 1.463 . S
C975 C980 1.350 . S
C975 N983 1.427 . S
C976 H967 0.930 . S
C976 C974 1.378 . S
C976 C977 1.367 . S
C977 C976 1.367 . S
C977 C979 1.433 . S
C978 C974 1.350 . S
C978 C975 1.463 . S
C978 N982 1.427 . S
C979 H969 0.929 . S
C979 C977 1.433 . S
C979 N982 1.384 . S
C980 H971 0.929 . S
C980 C972 1.378 . S
C980 C975 1.350 . S
C981 H968 0.929 . S
C981 C973 1.433 . S
C981 N983 1.384 1_556 S
N982 C978 1.427 . S
N982 C979 1.384 . S
N983 C975 1.427 . S
N983 C981 1.384 1_554 S
H984 C990 0.930 . S
H985 C994 0.930 . S
H986 C999 0.929 . S
H987 C997 0.929 . S
H988 C992 0.929 . S
H989 C998 0.929 . S
C990 H984 0.930 . S
C990 C991 1.367 . S
C990 C998 1.378 . S
C991 C990 1.367 . S
C991 C999 1.433 . S
C992 H988 0.929 . S
C992 C994 1.378 . S
C992 C996 1.350 . S
C993 C996 1.463 . S
C993 C998 1.350 . S
C993 N1001 1.427 . S
C994 H985 0.930 . S
C994 C992 1.378 . S
C994 C995 1.367 . S
C995 C994 1.367 . S
C995 C997 1.433 . S
C996 C992 1.350 . S
C996 C993 1.463 . S
C996 N1000 1.427 . S
C997 H987 0.929 . S
C997 C995 1.433 . S
C997 N1000 1.384 . S
C998 H989 0.929 . S
C998 C990 1.378 . S
C998 C993 1.350 . S
C999 H986 0.929 . S
C999 C991 1.433 . S
C999 N1001 1.384 . S
N1000 C996 1.427 . S
N1000 C997 1.384 . S
N1001 C993 1.427 . S
N1001 C999 1.384 . S
H1002 C1008 0.930 . S
H1003 C1012 0.930 . S
H1004 C1017 0.929 . S
H1005 C1015 0.929 . S
H1006 C1010 0.929 . S
H1007 C1016 0.930 1_556 S
C1008 H1002 0.930 . S
C1008 C1009 1.365 . S
C1008 C1016 1.378 1_556 S
C1009 C1008 1.365 . S
C1009 C1017 1.438 1_556 S
C1010 H1006 0.929 . S
C1010 C1012 1.378 . S
C1010 C1014 1.350 . S
C1011 C1014 1.463 . S
C1011 C1016 1.350 . S
C1011 N1019 1.427 . S
C1012 H1003 0.930 . S
C1012 C1010 1.378 . S
C1012 C1013 1.367 . S
C1013 C1012 1.367 . S
C1013 C1015 1.433 . S
C1014 C1010 1.350 . S
C1014 C1011 1.463 . S
C1014 N1018 1.427 . S
C1015 H1005 0.929 . S
C1015 C1013 1.433 . S
C1015 N1018 1.384 . S
C1016 H1007 0.930 1_554 S
C1016 C1008 1.378 1_554 S
C1016 C1011 1.350 . S
C1017 H1004 0.929 . S
C1017 C1009 1.438 1_554 S
C1017 N1019 1.384 . S
N1018 C1014 1.427 . S
N1018 C1015 1.384 . S
N1019 C1011 1.427 . S
N1019 C1017 1.384 . S
H1020 C1026 0.930 . S
H1021 C1030 0.930 . S
H1022 C1035 0.929 . S
H1023 C1033 0.929 . S
H1024 C1028 0.929 . S
H1025 C1034 0.929 . S
C1026 H1020 0.930 . S
C1026 C1027 1.367 . S
C1026 C1034 1.378 . S
C1027 C1026 1.367 . S
C1027 C1035 1.433 . S
C1028 H1024 0.929 . S
C1028 C1030 1.378 . S
C1028 C1032 1.350 . S
C1029 C1032 1.463 . S
C1029 C1034 1.350 . S
C1029 N1037 1.427 . S
C1030 H1021 0.930 . S
C1030 C1028 1.378 . S
C1030 C1031 1.367 . S
C1031 C1030 1.367 . S
C1031 C1033 1.433 . S
C1032 C1028 1.350 . S
C1032 C1029 1.463 . S
C1032 N1036 1.427 . S
C1033 H1023 0.929 . S
C1033 C1031 1.433 . S
C1033 N1036 1.384 . S
C1034 H1025 0.929 . S
C1034 C1026 1.378 . S
C1034 C1029 1.350 . S
C1035 H1022 0.929 . S
C1035 C1027 1.433 . S
C1035 N1037 1.384 . S
N1036 C1032 1.427 . S
N1036 C1033 1.384 . S
N1037 C1029 1.427 . S
N1037 C1035 1.384 . S
H1038 C1044 0.930 . S
H1039 C1048 0.930 . S
H1040 C1053 0.929 . S
H1041 C1051 0.929 . S
H1042 C1046 0.929 . S
H1043 C1052 0.929 . S
C1044 H1038 0.930 . S
C1044 C1045 1.367 . S
C1044 C1052 1.378 . S
C1045 C1044 1.367 . S
C1045 C1053 1.433 . S
C1046 H1042 0.929 . S
C1046 C1048 1.378 . S
C1046 C1050 1.350 . S
C1047 C1050 1.463 . S
C1047 C1052 1.350 . S
C1047 N1055 1.427 . S
C1048 H1039 0.930 . S
C1048 C1046 1.378 . S
C1048 C1049 1.367 . S
C1049 C1048 1.367 . S
C1049 C1051 1.433 . S
C1050 C1046 1.350 . S
C1050 C1047 1.463 . S
C1050 N1054 1.427 . S
C1051 H1041 0.929 . S
C1051 C1049 1.433 . S
C1051 N1054 1.384 . S
C1052 H1043 0.929 . S
C1052 C1044 1.378 . S
C1052 C1047 1.350 . S
C1053 H1040 0.929 . S
C1053 C1045 1.433 . S
C1053 N1055 1.384 . S
N1054 C1050 1.427 . S
N1054 C1051 1.384 . S
N1055 C1047 1.427 . S
N1055 C1053 1.384 . S
H1056 C1062 0.930 . S
H1057 C1066 0.930 . S
H1058 C1071 0.929 . S
H1059 C1069 0.929 . S
H1060 C1064 0.929 . S
H1061 C1070 0.929 . S
C1062 H1056 0.930 . S
C1062 C1063 1.367 . S
C1062 C1070 1.378 . S
C1063 C1062 1.367 . S
C1063 C1071 1.433 . S
C1064 H1060 0.929 . S
C1064 C1066 1.378 . S
C1064 C1068 1.350 . S
C1065 C1068 1.463 . S
C1065 C1070 1.350 . S
C1065 N1073 1.427 . S
C1066 H1057 0.930 . S
C1066 C1064 1.378 . S
C1066 C1067 1.367 . S
C1067 C1066 1.367 . S
C1067 C1069 1.433 . S
C1068 C1064 1.350 . S
C1068 C1065 1.463 . S
C1068 N1072 1.427 . S
C1069 H1059 0.929 . S
C1069 C1067 1.433 . S
C1069 N1072 1.384 . S
C1070 H1061 0.929 . S
C1070 C1062 1.378 . S
C1070 C1065 1.350 . S
C1071 H1058 0.929 . S
C1071 C1063 1.433 . S
C1071 N1073 1.384 . S
N1072 C1068 1.427 . S
N1072 C1069 1.384 . S
N1073 C1065 1.427 . S
N1073 C1071 1.384 . S
H1074 C1080 0.930 . S
H1075 C1084 0.930 . S
H1076 C1089 0.929 . S
H1077 C1087 0.929 . S
H1078 C1082 0.929 . S
H1079 C1088 0.929 . S
C1080 H1074 0.930 . S
C1080 C1081 1.367 . S
C1080 C1088 1.378 . S
C1081 C1080 1.367 . S
C1081 C1089 1.433 . S
C1082 H1078 0.929 . S
C1082 C1084 1.378 . S
C1082 C1086 1.350 . S
C1083 C1086 1.463 . S
C1083 C1088 1.350 . S
C1083 N1091 1.427 . S
C1084 H1075 0.930 . S
C1084 C1082 1.378 . S
C1084 C1085 1.367 . S
C1085 C1084 1.367 . S
C1085 C1087 1.433 . S
C1086 C1082 1.350 . S
C1086 C1083 1.463 . S
C1086 N1090 1.427 . S
C1087 H1077 0.929 . S
C1087 C1085 1.433 . S
C1087 N1090 1.384 . S
C1088 H1079 0.929 . S
C1088 C1080 1.378 . S
C1088 C1083 1.350 . S
C1089 H1076 0.929 . S
C1089 C1081 1.433 . S
C1089 N1091 1.384 . S
N1090 C1086 1.427 . S
N1090 C1087 1.384 . S
N1091 C1083 1.427 . S
N1091 C1089 1.384 . S
H1092 C1098 0.930 . S
H1093 C1102 0.930 . S
H1094 C1107 0.929 . S
H1095 C1105 0.929 . S
H1096 C1100 0.929 . S
H1097 C1106 0.929 . S
C1098 H1092 0.930 . S
C1098 C1099 1.367 . S
C1098 C1106 1.378 . S
C1099 C1098 1.367 . S
C1099 C1107 1.433 . S
C1100 H1096 0.929 . S
C1100 C1102 1.378 . S
C1100 C1104 1.350 . S
C1101 C1104 1.463 . S
C1101 C1106 1.350 . S
C1101 N1109 1.427 . S
C1102 H1093 0.930 . S
C1102 C1100 1.378 . S
C1102 C1103 1.367 . S
C1103 C1102 1.367 . S
C1103 C1105 1.433 . S
C1104 C1100 1.350 . S
C1104 C1101 1.463 . S
C1104 N1108 1.427 . S
C1105 H1095 0.929 . S
C1105 C1103 1.433 . S
C1105 N1108 1.384 . S
C1106 H1097 0.929 . S
C1106 C1098 1.378 . S
C1106 C1101 1.350 . S
C1107 H1094 0.929 . S
C1107 C1099 1.433 . S
C1107 N1109 1.384 . S
N1108 C1104 1.427 . S
N1108 C1105 1.384 . S
N1109 C1101 1.427 . S
N1109 C1107 1.384 . S
H1110 C1116 0.930 . S
H1111 C1120 0.930 . S
H1112 C1125 0.929 . S
H1113 C1123 0.929 . S
H1114 C1118 0.929 . S
H1115 C1124 0.929 . S
C1116 H1110 0.930 . S
C1116 C1117 1.367 . S
C1116 C1124 1.378 . S
C1117 C1116 1.367 . S
C1117 C1125 1.433 . S
C1118 H1114 0.929 . S
C1118 C1120 1.378 . S
C1118 C1122 1.350 . S
C1119 C1122 1.463 . S
C1119 C1124 1.350 . S
C1119 N1127 1.427 . S
C1120 H1111 0.930 . S
C1120 C1118 1.378 . S
C1120 C1121 1.367 . S
C1121 C1120 1.367 . S
C1121 C1123 1.433 . S
C1122 C1118 1.350 . S
C1122 C1119 1.463 . S
C1122 N1126 1.427 . S
C1123 H1113 0.929 . S
C1123 C1121 1.433 . S
C1123 N1126 1.384 . S
C1124 H1115 0.929 . S
C1124 C1116 1.378 . S
C1124 C1119 1.350 . S
C1125 H1112 0.929 . S
C1125 C1117 1.433 . S
C1125 N1127 1.384 . S
N1126 C1122 1.427 . S
N1126 C1123 1.384 . S
N1127 C1119 1.427 . S
N1127 C1125 1.384 . S
H1128 C1134 0.930 . S
H1129 C1138 0.930 . S
H1130 C1143 0.929 1_556 S
H1131 C1141 0.929 . S
H1132 C1136 0.929 . S
H1133 C1142 0.929 . S
C1134 H1128 0.930 . S
C1134 C1135 1.367 . S
C1134 C1142 1.378 . S
C1135 C1134 1.367 . S
C1135 C1143 1.433 . S
C1136 H1132 0.929 . S
C1136 C1138 1.378 . S
C1136 C1140 1.350 1_556 S
C1137 C1140 1.463 . S
C1137 C1142 1.350 . S
C1137 N1145 1.422 1_554 S
C1138 H1129 0.930 . S
C1138 C1136 1.378 . S
C1138 C1139 1.367 1_556 S
C1139 C1138 1.367 1_554 S
C1139 C1141 1.433 . S
C1140 C1136 1.350 1_554 S
C1140 C1137 1.463 . S
C1140 N1144 1.427 . S
C1141 H1131 0.929 . S
C1141 C1139 1.433 . S
C1141 N1144 1.384 . S
C1142 H1133 0.929 . S
C1142 C1134 1.378 . S
C1142 C1137 1.350 . S
C1143 H1130 0.929 1_554 S
C1143 C1135 1.433 . S
C1143 N1145 1.383 1_554 S
N1144 C1140 1.427 . S
N1144 C1141 1.384 . S
N1145 C1137 1.422 1_556 S
N1145 C1143 1.383 1_556 S
H1146 C1152 0.930 . S
H1147 C1156 0.930 . S
H1148 C1161 0.929 . S
H1149 C1159 0.929 . S
H1150 C1154 0.929 . S
H1151 C1160 0.929 . S
C1152 H1146 0.930 . S
C1152 C1153 1.367 1_565 S
C1152 C1160 1.378 . S
C1153 C1152 1.367 1_545 S
C1153 C1161 1.433 . S
C1154 H1150 0.929 . S
C1154 C1156 1.378 . S
C1154 C1158 1.350 . S
C1155 C1158 1.463 . S
C1155 C1160 1.350 . S
C1155 N1163 1.427 1_565 S
C1156 H1147 0.930 . S
C1156 C1154 1.378 . S
C1156 C1157 1.367 . S
C1157 C1156 1.367 . S
C1157 C1159 1.433 . S
C1158 C1154 1.350 . S
C1158 C1155 1.463 . S
C1158 N1162 1.427 . S
C1159 H1149 0.929 . S
C1159 C1157 1.433 . S
C1159 N1162 1.384 . S
C1160 H1151 0.929 . S
C1160 C1152 1.378 . S
C1160 C1155 1.350 . S
C1161 H1148 0.929 . S
C1161 C1153 1.433 . S
C1161 N1163 1.384 . S
N1162 C1158 1.427 . S
N1162 C1159 1.384 . S
N1163 C1155 1.427 1_545 S
N1163 C1161 1.384 . S
C311 C154 1.429 . S
C307 C50 1.439 . S
C329 C167 1.577 . S
C325 C61 1.587 1_455 S
C343 C67 1.472 . S
C347 C180 1.463 . S
C365 C193 1.513 . S
C361 C41 1.522 . S
C383 C201 1.459 . S
C379 C95 1.488 . S
C401 C214 1.430 . S
C397 C113 1.445 . S
C415 C106 1.512 . S
C419 C227 1.484 . S
C437 C240 1.504 . S
C433 C86 1.519 . S
C451 C104 1.447 . S
C455 C258 1.440 . S
C473 C269 1.513 . S
C469 C88 1.536 . S
C487 C94 1.475 . S
C491 C253 1.453 . S
C509 C261 1.459 . S
C505 C112 1.480 . S
C523 C70 1.498 . S
C527 C284 1.491 . S
C541 C40 1.516 . S
C545 C274 1.492 . S
C559 C49 1.513 . S
C563 C279 1.484 . S
C577 C59 1.566 . S
C581 C282 1.541 . S
C595 C34 1.446 . S
C599 C191 1.419 . S
C613 C133 1.432 . S
C617 C183 1.416 . S
C635 C152 1.534 1_556 S
C631 C139 1.564 . S
C653 C157 1.497 . S
C649 C77 1.523 . S
C667 C43 1.525 1_545 S
C671 C204 1.497 . S
C689 C243 1.507 . S
C685 C103 1.533 . S
C707 C196 1.488 . S
C703 C85 1.512 1_545 S
C725 C222 1.438 . S
C721 C115 1.468 . S
C743 C232 1.431 . S
C739 C131 1.439 . S
C757 C142 1.588 . S
C761 C245 1.571 . S
C775 C76 1.473 . S
C779 C206 1.460 . S
C797 C219 1.513 . S
C793 C122 1.522 . S
C811 C32 1.489 . S
C815 C175 1.465 . S
C833 C188 1.422 . S
C829 C5 1.445 . S
C851 C149 1.485 . S
C847 C16 1.511 . S
C869 C162 1.501 . S
C865 C23 1.506 1_455 S
C883 C14 1.447 . S
C887 C271 1.439 . S
C901 C25 1.527 1_556 S
C905 C256 1.503 1_655 S
C919 C31 1.474 . S
C923 C266 1.449 . S
C937 C4 1.478 . S
C941 C248 1.448 . S
C959 C297 1.485 . S
C955 C79 1.498 . S
C977 C287 1.492 . S
C973 C121 1.516 . S
C995 C292 1.485 . S
C991 C130 1.513 . S
C1009 C140 1.562 . S
C1013 C295 1.529 . S
C1027 C97 1.448 . S
C1031 C217 1.426 . S
C1049 C209 1.410 . S
C1045 C52 1.433 . S
C1067 C230 1.542 . S
C1063 C58 1.565 . S
C1085 C235 1.505 . S
C1081 C68 1.524 . S
C1099 C124 1.525 . S
C1103 C178 1.501 . S
C1121 C165 1.500 . S
C1117 C13 1.534 . S
C1135 C22 1.520 . S
C1139 C170 1.488 . S
C1157 C144 1.442 . S
C1153 C7 1.468 . S
