# Generated by pormake.
# Topology ctn, (3,4)-cn, num edge types: 1
# Building blocks:
#     Node 0, Type 0, BuildingBlock: BETDAH_clean_linker_0, # of connection points: 3
#     Node 1, Type 0, BuildingBlock: BETDAH_clean_linker_0, # of connection points: 3
#     Node 2, Type 0, BuildingBlock: BETDAH_clean_linker_0, # of connection points: 3
#     Node 3, Type 0, BuildingBlock: BETDAH_clean_linker_0, # of connection points: 3
#     Node 4, Type 0, BuildingBlock: BETDAH_clean_linker_0, # of connection points: 3
#     Node 5, Type 0, BuildingBlock: BETDAH_clean_linker_0, # of connection points: 3
#     Node 6, Type 0, BuildingBlock: BETDAH_clean_linker_0, # of connection points: 3
#     Node 7, Type 0, BuildingBlock: BETDAH_clean_linker_0, # of connection points: 3
#     Node 8, Type 0, BuildingBlock: BETDAH_clean_linker_0, # of connection points: 3
#     Node 9, Type 0, BuildingBlock: BETDAH_clean_linker_0, # of connection points: 3
#     Node 10, Type 0, BuildingBlock: BETDAH_clean_linker_0, # of connection points: 3
#     Node 11, Type 0, BuildingBlock: BETDAH_clean_linker_0, # of connection points: 3
#     Node 12, Type 0, BuildingBlock: BETDAH_clean_linker_0, # of connection points: 3
#     Node 13, Type 0, BuildingBlock: BETDAH_clean_linker_0, # of connection points: 3
#     Node 14, Type 0, BuildingBlock: BETDAH_clean_linker_0, # of connection points: 3
#     Node 15, Type 0, BuildingBlock: BETDAH_clean_linker_0, # of connection points: 3
#     Node 16, Type 1, BuildingBlock: KUFVIS_clean_sbu_0, # of connection points: 4
#     Node 17, Type 1, BuildingBlock: KUFVIS_clean_sbu_0, # of connection points: 4
#     Node 18, Type 1, BuildingBlock: KUFVIS_clean_sbu_0, # of connection points: 4
#     Node 19, Type 1, BuildingBlock: KUFVIS_clean_sbu_0, # of connection points: 4
#     Node 20, Type 1, BuildingBlock: KUFVIS_clean_sbu_0, # of connection points: 4
#     Node 21, Type 1, BuildingBlock: KUFVIS_clean_sbu_0, # of connection points: 4
#     Node 22, Type 1, BuildingBlock: KUFVIS_clean_sbu_0, # of connection points: 4
#     Node 23, Type 1, BuildingBlock: KUFVIS_clean_sbu_0, # of connection points: 4
#     Node 24, Type 1, BuildingBlock: KUFVIS_clean_sbu_0, # of connection points: 4
#     Node 25, Type 1, BuildingBlock: KUFVIS_clean_sbu_0, # of connection points: 4
#     Node 26, Type 1, BuildingBlock: KUFVIS_clean_sbu_0, # of connection points: 4
#     Node 27, Type 1, BuildingBlock: KUFVIS_clean_sbu_0, # of connection points: 4
#     Edge 28, Type (0, 1), BuildingBlock: UVAHIK_clean_linker_0, # of connection points: 2
#     Edge 29, Type (0, 1), BuildingBlock: UVAHIK_clean_linker_0, # of connection points: 2
#     Edge 30, Type (0, 1), BuildingBlock: UVAHIK_clean_linker_0, # of connection points: 2
#     Edge 31, Type (0, 1), BuildingBlock: UVAHIK_clean_linker_0, # of connection points: 2
#     Edge 32, Type (0, 1), BuildingBlock: UVAHIK_clean_linker_0, # of connection points: 2
#     Edge 33, Type (0, 1), BuildingBlock: UVAHIK_clean_linker_0, # of connection points: 2
#     Edge 34, Type (0, 1), BuildingBlock: UVAHIK_clean_linker_0, # of connection points: 2
#     Edge 35, Type (0, 1), BuildingBlock: UVAHIK_clean_linker_0, # of connection points: 2
#     Edge 36, Type (0, 1), BuildingBlock: UVAHIK_clean_linker_0, # of connection points: 2
#     Edge 37, Type (0, 1), BuildingBlock: UVAHIK_clean_linker_0, # of connection points: 2
#     Edge 38, Type (0, 1), BuildingBlock: UVAHIK_clean_linker_0, # of connection points: 2
#     Edge 39, Type (0, 1), BuildingBlock: UVAHIK_clean_linker_0, # of connection points: 2
#     Edge 40, Type (0, 1), BuildingBlock: UVAHIK_clean_linker_0, # of connection points: 2
#     Edge 41, Type (0, 1), BuildingBlock: UVAHIK_clean_linker_0, # of connection points: 2
#     Edge 42, Type (0, 1), BuildingBlock: UVAHIK_clean_linker_0, # of connection points: 2
#     Edge 43, Type (0, 1), BuildingBlock: UVAHIK_clean_linker_0, # of connection points: 2
#     Edge 44, Type (0, 1), BuildingBlock: UVAHIK_clean_linker_0, # of connection points: 2
#     Edge 45, Type (0, 1), BuildingBlock: UVAHIK_clean_linker_0, # of connection points: 2
#     Edge 46, Type (0, 1), BuildingBlock: UVAHIK_clean_linker_0, # of connection points: 2
#     Edge 47, Type (0, 1), BuildingBlock: UVAHIK_clean_linker_0, # of connection points: 2
#     Edge 48, Type (0, 1), BuildingBlock: UVAHIK_clean_linker_0, # of connection points: 2
#     Edge 49, Type (0, 1), BuildingBlock: UVAHIK_clean_linker_0, # of connection points: 2
#     Edge 50, Type (0, 1), BuildingBlock: UVAHIK_clean_linker_0, # of connection points: 2
#     Edge 51, Type (0, 1), BuildingBlock: UVAHIK_clean_linker_0, # of connection points: 2
#     Edge 52, Type (0, 1), BuildingBlock: UVAHIK_clean_linker_0, # of connection points: 2
#     Edge 53, Type (0, 1), BuildingBlock: UVAHIK_clean_linker_0, # of connection points: 2
#     Edge 54, Type (0, 1), BuildingBlock: UVAHIK_clean_linker_0, # of connection points: 2
#     Edge 55, Type (0, 1), BuildingBlock: UVAHIK_clean_linker_0, # of connection points: 2
#     Edge 56, Type (0, 1), BuildingBlock: UVAHIK_clean_linker_0, # of connection points: 2
#     Edge 57, Type (0, 1), BuildingBlock: UVAHIK_clean_linker_0, # of connection points: 2
#     Edge 58, Type (0, 1), BuildingBlock: UVAHIK_clean_linker_0, # of connection points: 2
#     Edge 59, Type (0, 1), BuildingBlock: UVAHIK_clean_linker_0, # of connection points: 2
#     Edge 60, Type (0, 1), BuildingBlock: UVAHIK_clean_linker_0, # of connection points: 2
#     Edge 61, Type (0, 1), BuildingBlock: UVAHIK_clean_linker_0, # of connection points: 2
#     Edge 62, Type (0, 1), BuildingBlock: UVAHIK_clean_linker_0, # of connection points: 2
#     Edge 63, Type (0, 1), BuildingBlock: UVAHIK_clean_linker_0, # of connection points: 2
#     Edge 64, Type (0, 1), BuildingBlock: UVAHIK_clean_linker_0, # of connection points: 2
#     Edge 65, Type (0, 1), BuildingBlock: UVAHIK_clean_linker_0, # of connection points: 2
#     Edge 66, Type (0, 1), BuildingBlock: UVAHIK_clean_linker_0, # of connection points: 2
#     Edge 67, Type (0, 1), BuildingBlock: UVAHIK_clean_linker_0, # of connection points: 2
#     Edge 68, Type (0, 1), BuildingBlock: UVAHIK_clean_linker_0, # of connection points: 2
#     Edge 69, Type (0, 1), BuildingBlock: UVAHIK_clean_linker_0, # of connection points: 2
#     Edge 70, Type (0, 1), BuildingBlock: UVAHIK_clean_linker_0, # of connection points: 2
#     Edge 71, Type (0, 1), BuildingBlock: UVAHIK_clean_linker_0, # of connection points: 2
#     Edge 72, Type (0, 1), BuildingBlock: UVAHIK_clean_linker_0, # of connection points: 2
#     Edge 73, Type (0, 1), BuildingBlock: UVAHIK_clean_linker_0, # of connection points: 2
#     Edge 74, Type (0, 1), BuildingBlock: UVAHIK_clean_linker_0, # of connection points: 2
#     Edge 75, Type (0, 1), BuildingBlock: UVAHIK_clean_linker_0, # of connection points: 2
# Relax obj value: 0.059
# Max RMSD: 0.160
# Mean RMSD: 0.108
data_MOF--net-ctn--node1-KUFVIS_clean_sbu_0--node2-BETDAH_clean_linker_0--edge1-UVAHIK_clean_linker_0
_symmetry_space_group_name_H-M    P1
_symmetry_Int_Tables_number       1
_symmetry_cell_setting            triclinic
loop_
_symmetry_equiv_pos_as_xyz
'x, y, z'
_cell_length_a     69.544292
_cell_length_b     69.195653
_cell_length_c     70.548096
_cell_angle_alpha  99.456031
_cell_angle_beta   90.773152
_cell_angle_gamma 96.253223
loop_
_atom_site_label
_atom_site_type_symbol
_atom_site_fract_x
_atom_site_fract_y
_atom_site_fract_z
_atom_type_partial_charge
H0 H 0.07854 0.02618 0.09038 0.0
H1 H 0.07499 0.03225 0.03062 0.0
H2 H 0.02976 0.04964 0.06797 0.0
C3 C 0.07107 0.03059 0.07849 0.0
C4 C 0.0532 0.03819 0.08155 0.0
C5 C 0.0792 0.02828 0.06019 0.0
C6 C 0.06952 0.03456 0.04503 0.0
C7 C 0.05202 0.04273 0.04802 0.0
C8 C 0.04386 0.04441 0.06617 0.0
N9 N 0.04112 0.04622 0.0321 0.0
C10 C 0.04272 0.06432 0.02584 0.0
H11 H 0.34384 0.6802 0.22693 0.0
H12 H 0.38019 0.71945 0.19793 0.0
H13 H 0.32153 0.70074 0.1774 0.0
C14 C 0.34585 0.68885 0.21548 0.0
C15 C 0.33047 0.68903 0.20235 0.0
C16 C 0.36373 0.69996 0.2142 0.0
C17 C 0.36636 0.71097 0.19926 0.0
C18 C 0.35128 0.71144 0.18606 0.0
C19 C 0.33325 0.70045 0.18759 0.0
N20 N 0.35512 0.72289 0.17132 0.0
C21 C 0.34134 0.73055 0.16115 0.0
H22 H 0.02389 0.45511 0.05282 0.0
H23 H 0.01358 0.51608 0.05795 0.0
H24 H 0.99752 0.47599 0.00573 0.0
C25 C 0.01851 0.46705 0.04688 0.0
C26 C 0.01066 0.46327 0.02803 0.0
C27 C 0.01961 0.486 0.05802 0.0
C28 C 0.01221 0.50116 0.05005 0.0
C29 C 0.00388 0.49744 0.0314 0.0
C30 C 0.00312 0.47852 0.02045 0.0
N31 N 0.99913 0.51336 0.02264 0.0
C32 C 0.98057 0.51902 0.02252 0.0
H33 H 0.75461 0.82542 0.18572 0.0
H34 H 0.69511 0.80186 0.18972 0.0
H35 H 0.71712 0.85652 0.22493 0.0
C36 C 0.74064 0.82629 0.19223 0.0
C37 C 0.73789 0.84262 0.20625 0.0
C38 C 0.72537 0.81139 0.18615 0.0
C39 C 0.70718 0.81299 0.19438 0.0
C40 C 0.70435 0.82905 0.20855 0.0
C41 C 0.71968 0.84378 0.2145 0.0
N42 N 0.68551 0.83156 0.21505 0.0
C43 C 0.67896 0.82572 0.23196 0.0
H44 H 0.06714 0.00999 0.46819 0.0
H45 H 0.0668 0.98534 0.52042 0.0
H46 H 0.01405 0.98266 0.48728 0.0
C47 C 0.05929 0.00256 0.47858 0.0
C48 C 0.03935 0.99685 0.47557 0.0
C49 C 0.0693 0.99905 0.49494 0.0
C50 C 0.05939 0.98807 0.50768 0.0
C51 C 0.03944 0.98193 0.50466 0.0
C52 C 0.02955 0.98673 0.48892 0.0
N53 N 0.02842 0.97255 0.51803 0.0
C54 C 0.03459 0.95835 0.52784 0.0
H55 H 0.25481 0.69572 0.84232 0.0
H56 H 0.20633 0.71551 0.81514 0.0
H57 H 0.23555 0.66851 0.78514 0.0
C58 C 0.24485 0.69464 0.83014 0.0
C59 C 0.24693 0.6807 0.8137 0.0
C60 C 0.23043 0.70753 0.83076 0.0
C61 C 0.2174 0.70562 0.8149 0.0
C62 C 0.2192 0.69141 0.79846 0.0
C63 C 0.23409 0.67927 0.79792 0.0
N64 N 0.20667 0.68903 0.78198 0.0
C65 C 0.1905 0.69892 0.78043 0.0
H66 H 0.96983 0.55239 0.51727 0.0
H67 H 0.02273 0.55013 0.48608 0.0
H68 H 0.98417 0.49729 0.4864 0.0
C69 C 0.97945 0.54421 0.50791 0.0
C70 C 0.97475 0.52383 0.50222 0.0
C71 C 0.99688 0.55388 0.50246 0.0
C72 C 0.00934 0.5429 0.4905 0.0
C73 C 0.00465 0.52245 0.48468 0.0
C74 C 0.98763 0.51305 0.4909 0.0
N75 N 0.01696 0.51062 0.47317 0.0
C76 C 0.0296 0.51714 0.45986 0.0
H77 H 0.85319 0.78742 0.83026 0.0
H78 H 0.82224 0.82617 0.80229 0.0
H79 H 0.79855 0.80418 0.85139 0.0
C80 C 0.84087 0.79563 0.82948 0.0
C81 C 0.82625 0.7946 0.84301 0.0
C82 C 0.83948 0.80686 0.81464 0.0
C83 C 0.82342 0.81753 0.81365 0.0
C84 C 0.80884 0.81674 0.8272 0.0
C85 C 0.81029 0.80515 0.84151 0.0
N86 N 0.7921 0.82676 0.82678 0.0
C87 C 0.78918 0.84129 0.81589 0.0
H88 H 0.34816 0.28496 0.32735 0.0
H89 H 0.33437 0.33925 0.31055 0.0
H90 H 0.30993 0.32068 0.36098 0.0
C91 C 0.34053 0.29795 0.32971 0.0
C92 C 0.32837 0.30078 0.34545 0.0
C93 C 0.34294 0.31178 0.31702 0.0
C94 C 0.33277 0.32855 0.3202 0.0
C95 C 0.32079 0.33161 0.33606 0.0
C96 C 0.31893 0.3179 0.34862 0.0
N97 N 0.31092 0.34862 0.34049 0.0
C98 C 0.30488 0.35987 0.32739 0.0
H99 H 0.51327 0.95843 0.55437 0.0
H100 H 0.50995 0.02093 0.55974 0.0
H101 H 0.49114 0.98259 0.50717 0.0
C102 C 0.50924 0.97101 0.54853 0.0
C103 C 0.50181 0.96819 0.52955 0.0
C104 C 0.5124 0.98996 0.55966 0.0
C105 C 0.50713 0.00609 0.55173 0.0
C106 C 0.49901 0.00336 0.53305 0.0
C107 C 0.4966 0.98448 0.5219 0.0
N108 N 0.49571 0.02001 0.52472 0.0
C109 C 0.47734 0.02571 0.52274 0.0
H110 H 0.25584 0.32518 0.68513 0.0
H111 H 0.19712 0.3049 0.69736 0.0
H112 H 0.22388 0.36104 0.72608 0.0
C113 C 0.24275 0.32727 0.69301 0.0
C114 C 0.24204 0.34456 0.70641 0.0
C115 C 0.22662 0.31283 0.68951 0.0
C116 C 0.20971 0.31579 0.6999 0.0
C117 C 0.20885 0.3332 0.71314 0.0
C118 C 0.22488 0.3475 0.71612 0.0
N119 N 0.19166 0.3375 0.72269 0.0
C120 C 0.18001 0.32419 0.73148 0.0
H121 H 0.8427 0.17409 0.7211 0.0
H122 H 0.87908 0.21281 0.69154 0.0
H123 H 0.81989 0.19529 0.6722 0.0
C124 C 0.84466 0.18275 0.70964 0.0
C125 C 0.82909 0.18327 0.69686 0.0
C126 C 0.86264 0.19353 0.70804 0.0
C127 C 0.86518 0.20456 0.69311 0.0
C128 C 0.84989 0.2054 0.68027 0.0
C129 C 0.83176 0.19473 0.68212 0.0
N130 N 0.85358 0.21691 0.66555 0.0
C131 C 0.83971 0.2252 0.65611 0.0
H132 H 0.58202 0.52702 0.58882 0.0
H133 H 0.57878 0.53372 0.52923 0.0
H134 H 0.53316 0.55035 0.56641 0.0
C135 C 0.57459 0.53153 0.57696 0.0
C136 C 0.5566 0.53889 0.57997 0.0
C137 C 0.58284 0.52946 0.55872 0.0
C138 C 0.57321 0.53586 0.5436 0.0
C139 C 0.55565 0.54391 0.54657 0.0
C140 C 0.54733 0.54529 0.56466 0.0
N141 N 0.54484 0.5475 0.53063 0.0
C142 C 0.54596 0.56585 0.52492 0.0
H143 H 0.56775 0.5123 0.96999 0.0
H144 H 0.56753 0.48554 0.02096 0.0
H145 H 0.51488 0.48323 0.98771 0.0
C146 C 0.55994 0.50431 0.98001 0.0
C147 C 0.54008 0.49832 0.9767 0.0
C148 C 0.56994 0.5003 0.99615 0.0
C149 C 0.5601 0.48866 0.0084 0.0
C150 C 0.54021 0.48232 0.00512 0.0
C151 C 0.53033 0.48753 0.98958 0.0
N152 N 0.52919 0.47225 0.01802 0.0
C153 C 0.53554 0.45801 0.02767 0.0
H154 H 0.74967 0.19603 0.34411 0.0
H155 H 0.70563 0.21687 0.31178 0.0
H156 H 0.7392 0.17246 0.28406 0.0
C157 C 0.74171 0.19549 0.3307 0.0
C158 C 0.74618 0.18245 0.31431 0.0
C159 C 0.72723 0.20809 0.3299 0.0
C160 C 0.71685 0.20729 0.31248 0.0
C161 C 0.72106 0.1942 0.296 0.0
C162 C 0.73578 0.18209 0.297 0.0
N163 N 0.71111 0.19295 0.27805 0.0
C164 C 0.69434 0.20154 0.27532 0.0
H165 H 0.46816 0.05094 0.01366 0.0
H166 H 0.52207 0.04861 0.98435 0.0
H167 H 0.48426 0.99553 0.98487 0.0
C168 C 0.47819 0.04257 0.00508 0.0
C169 C 0.4736 0.02209 0.99946 0.0
C170 C 0.49578 0.05232 1.00002 0.0
C171 C 0.50858 0.04135 0.98853 0.0
C172 C 0.50421 0.02087 0.98296 0.0
C173 C 0.48705 0.01141 0.9888 0.0
N174 N 0.51707 0.00905 0.97226 0.0
C175 C 0.5295 0.01524 0.95863 0.0
Mn176 Mn 0.26186 0.88002 0.02283 0.0
Mn177 Mn 0.26214 0.89637 0.9803 0.0
C178 C 0.24658 0.86059 0.99582 0.0
C179 C 0.27559 0.86301 0.04464 0.0
C180 C 0.23669 0.91098 0.01296 0.0
O181 O 0.28412 0.90228 0.0267 0.0
O182 O 0.28368 0.91125 0.99731 0.0
C183 C 0.29903 0.88281 0.96598 0.0
N184 N 0.27954 0.88273 0.96367 0.0
C185 C 0.27907 0.86055 0.93352 0.0
C186 C 0.29915 0.8605 0.93552 0.0
C187 C 0.30916 0.87166 0.95183 0.0
C188 C 0.26977 0.87207 0.94802 0.0
H189 H 0.30676 0.89126 0.97855 0.0
C190 C 0.29082 0.91278 0.01443 0.0
O191 O 0.26386 0.87606 0.05021 0.0
O192 O 0.27986 0.86046 0.02664 0.0
N193 N 0.24213 0.88287 0.96252 0.0
C194 C 0.22265 0.88361 0.96332 0.0
C195 C 0.21047 0.87279 0.94835 0.0
C196 C 0.21842 0.86137 0.93271 0.0
C197 C 0.23852 0.86094 0.93214 0.0
C198 C 0.24996 0.8722 0.94737 0.0
H199 H 0.21645 0.89229 0.97535 0.0
O200 O 0.24145 0.85775 0.01285 0.0
O201 O 0.2602 0.87485 0.99524 0.0
O202 O 0.24191 0.90001 0.02454 0.0
O203 O 0.24353 0.9109 0.99623 0.0
C204 C 0.24761 0.84948 0.91725 0.0
C205 C 0.26787 0.84928 0.91794 0.0
H206 H 0.307 0.8518 0.92472 0.0
H207 H 0.32465 0.87161 0.95353 0.0
H208 H 0.19496 0.87315 0.94891 0.0
H209 H 0.20896 0.85285 0.9213 0.0
H210 H 0.23912 0.84054 0.90533 0.0
H211 H 0.27466 0.84019 0.90655 0.0
Mn212 Mn 0.1657 0.51933 0.25928 0.0
Mn213 Mn 0.14962 0.56428 0.2646 0.0
C214 C 0.18238 0.54446 0.246 0.0
C215 C 0.18385 0.49636 0.2699 0.0
C216 C 0.13169 0.52932 0.23587 0.0
O217 O 0.14695 0.51852 0.28131 0.0
O218 O 0.13835 0.54929 0.28427 0.0
C219 C 0.16868 0.5813 0.30233 0.0
N220 N 0.16544 0.58227 0.28345 0.0
C221 C 0.18484 0.61368 0.28655 0.0
C222 C 0.1883 0.61308 0.30606 0.0
C223 C 0.18025 0.59677 0.31396 0.0
C224 C 0.17327 0.59779 0.27566 0.0
H225 H 0.16244 0.56883 0.30847 0.0
C226 C 0.13771 0.5324 0.28956 0.0
O227 O 0.16913 0.49092 0.258 0.0
O228 O 0.18769 0.51514 0.2761 0.0
N229 N 0.15934 0.58066 0.24671 0.0
C230 C 0.15538 0.57852 0.22746 0.0
C231 C 0.16284 0.5933 0.21724 0.0
C232 C 0.17399 0.61027 0.22696 0.0
C233 C 0.17761 0.61228 0.24683 0.0
C234 C 0.16989 0.59702 0.25623 0.0
H235 H 0.14666 0.56559 0.21994 0.0
O236 O 0.18446 0.52617 0.23953 0.0
O237 O 0.17083 0.5476 0.26027 0.0
O238 O 0.14313 0.51717 0.23972 0.0
O239 O 0.13263 0.5471 0.24461 0.0
C240 C 0.18875 0.62873 0.25764 0.0
C241 C 0.19251 0.62936 0.27745 0.0
H242 H 0.19719 0.62499 0.31508 0.0
H243 H 0.18291 0.59616 0.32899 0.0
H244 H 0.15995 0.59165 0.20191 0.0
H245 H 0.17977 0.62162 0.21902 0.0
H246 H 0.19472 0.64087 0.2508 0.0
H247 H 0.20139 0.64193 0.28552 0.0
Mn248 Mn 0.78359 0.63335 0.00384 0.0
Mn249 Mn 0.7418 0.64348 0.98453 0.0
C250 C 0.75521 0.61283 0.0054 0.0
C251 C 0.81258 0.61899 0.00252 0.0
C252 C 0.75787 0.66402 0.02338 0.0
O253 O 0.79335 0.65282 0.98629 0.0
O254 O 0.76445 0.65954 0.97591 0.0
C255 C 0.74929 0.62672 0.94428 0.0
N256 N 0.7377 0.62747 0.95973 0.0
C257 C 0.71315 0.60419 0.9418 0.0
C258 C 0.72478 0.60322 0.92566 0.0
C259 C 0.74298 0.61446 0.92695 0.0
C260 C 0.72032 0.61647 0.95875 0.0
H261 H 0.76323 0.63543 0.94517 0.0
C262 C 0.78296 0.66216 0.97673 0.0
O263 O 0.80998 0.63414 0.01534 0.0
O264 O 0.79854 0.61256 0.98997 0.0
N265 N 0.71831 0.62942 0.99117 0.0
C266 C 0.70886 0.63204 0.00804 0.0
C267 C 0.69047 0.62174 0.00921 0.0
C268 C 0.68178 0.60929 0.99291 0.0
C269 C 0.69157 0.60724 0.97557 0.0
C270 C 0.70992 0.61773 0.97532 0.0
H271 H 0.71533 0.64185 0.02053 0.0
O272 O 0.76953 0.61328 0.01748 0.0
O273 O 0.75788 0.62421 0.99244 0.0
O274 O 0.7734 0.65566 0.02262 0.0
O275 O 0.7447 0.6602 0.0101 0.0
C276 C 0.68383 0.59521 0.95852 0.0
C277 C 0.69469 0.59352 0.9417 0.0
H278 H 0.71989 0.59389 0.91222 0.0
H279 H 0.75206 0.61376 0.91457 0.0
H280 H 0.68297 0.6235 0.02262 0.0
H281 H 0.66759 0.60138 0.99387 0.0
H282 H 0.66957 0.5871 0.9582 0.0
H283 H 0.68868 0.58403 0.92875 0.0
Mn284 Mn 0.91077 0.02717 0.27627 0.0
Mn285 Mn 0.92605 0.98195 0.27086 0.0
C286 C 0.89198 1.00014 0.25906 0.0
C287 C 0.89399 0.05214 0.29221 0.0
C288 C 0.942 0.0135 0.24837 0.0
O289 O 0.93132 0.03032 0.29787 0.0
O290 O 0.94007 0.99942 0.29308 0.0
C291 C 0.91112 0.9699 0.30677 0.0
N292 N 0.9118 0.96658 0.28724 0.0
C293 C 0.89014 0.93664 0.28502 0.0
C294 C 0.8893 0.93968 0.30513 0.0
C295 C 0.89981 0.95641 0.31604 0.0
C296 C 0.90169 0.95057 0.27659 0.0
H297 H 0.91913 0.98276 0.31523 0.0
C298 C 0.94128 0.01712 0.30229 0.0
O299 O 0.90786 0.05582 0.28076 0.0
O300 O 0.89048 0.03407 0.29515 0.0
N301 N 0.91339 0.96354 0.25002 0.0
C302 C 0.91506 0.96323 0.23075 0.0
C303 C 0.90507 0.94768 0.2178 0.0
C304 C 0.89359 0.93255 0.22479 0.0
C305 C 0.89226 0.93309 0.24467 0.0
C306 C 0.90262 0.9489 0.25689 0.0
H307 H 0.92386 0.97481 0.2253 0.0
O308 O 0.88994 0.01777 0.25591 0.0
O309 O 0.9051 0.99887 0.27192 0.0
O310 O 0.93153 0.02655 0.25591 0.0
O311 O 0.94123 0.99638 0.25304 0.0
C312 C 0.88084 0.91869 0.25285 0.0
C313 C 0.87974 0.92049 0.27301 0.0
H314 H 0.88054 0.92935 0.31233 0.0
H315 H 0.89917 0.95891 0.33156 0.0
H316 H 0.90617 0.94737 0.20247 0.0
H317 H 0.88579 0.92066 0.21475 0.0
H318 H 0.87263 0.90632 0.24377 0.0
H319 H 0.87069 0.90948 0.27912 0.0
Mn320 Mn 0.279 0.13742 0.50368 0.0
Mn321 Mn 0.23584 0.14519 0.48536 0.0
C322 C 0.25164 0.11561 0.50598 0.0
C323 C 0.30869 0.12437 0.50136 0.0
C324 C 0.25281 0.16723 0.52354 0.0
O325 O 0.287 0.15729 0.48586 0.0
O326 O 0.25739 0.16099 0.47476 0.0
C327 C 0.24127 0.12677 0.44513 0.0
N328 N 0.2307 0.128 0.46131 0.0
C329 C 0.20579 0.10355 0.44559 0.0
C330 C 0.21636 0.10208 0.42872 0.0
C331 C 0.23423 0.11366 0.42853 0.0
C332 C 0.21367 0.11667 0.46175 0.0
H333 H 0.25493 0.13577 0.44487 0.0
C334 C 0.27583 0.16498 0.47541 0.0
O335 O 0.3059 0.13935 0.5143 0.0
O336 O 0.29444 0.11743 0.48919 0.0
N337 N 0.21339 0.13099 0.49398 0.0
C338 C 0.20505 0.13406 0.51144 0.0
C339 C 0.18717 0.12345 0.5141 0.0
C340 C 0.17782 0.11017 0.49868 0.0
C341 C 0.18645 0.10763 0.48072 0.0
C342 C 0.20437 0.11845 0.47898 0.0
H343 H 0.21202 0.14448 0.52326 0.0
O344 O 0.26643 0.11671 0.51764 0.0
O345 O 0.25328 0.1271 0.49307 0.0
O346 O 0.26841 0.15904 0.52286 0.0
O347 O 0.23962 0.16315 0.51028 0.0
C348 C 0.17795 0.09482 0.46446 0.0
C349 C 0.18771 0.0926 0.44698 0.0
H350 H 0.21091 0.09209 0.41585 0.0
H351 H 0.24249 0.11258 0.41558 0.0
H352 H 0.18056 0.12559 0.52797 0.0
H353 H 0.16403 0.10203 0.50078 0.0
H354 H 0.16397 0.08646 0.46531 0.0
H355 H 0.18115 0.08247 0.43466 0.0
Mn356 Mn 0.41509 0.52798 0.77507 0.0
Mn357 Mn 0.43093 0.48307 0.77118 0.0
C358 C 0.39709 0.50051 0.7577 0.0
C359 C 0.39759 0.55297 0.78976 0.0
C360 C 0.44714 0.51414 0.74829 0.0
O361 O 0.43496 0.53184 0.79737 0.0
O362 O 0.44426 0.50119 0.79337 0.0
C363 C 0.4152 0.4718 0.80712 0.0
N364 N 0.41644 0.46798 0.78764 0.0
C365 C 0.39545 0.43764 0.78567 0.0
C366 C 0.39403 0.44119 0.80572 0.0
C367 C 0.40391 0.45838 0.81648 0.0
C368 C 0.40691 0.45155 0.77714 0.0
H369 H 0.42275 0.485 0.81545 0.0
C370 C 0.44502 0.51896 0.80231 0.0
O371 O 0.41186 0.55651 0.77872 0.0
O372 O 0.39409 0.53503 0.79311 0.0
N373 N 0.41901 0.46399 0.75044 0.0
C374 C 0.42121 0.46317 0.73117 0.0
C375 C 0.41188 0.44711 0.71834 0.0
C376 C 0.40056 0.43197 0.72546 0.0
C377 C 0.3987 0.43303 0.74536 0.0
C378 C 0.40838 0.44937 0.75745 0.0
H379 H 0.42993 0.47474 0.72561 0.0
O380 O 0.395 0.51799 0.75413 0.0
O381 O 0.40975 0.49962 0.77114 0.0
O382 O 0.43649 0.52721 0.75537 0.0
O383 O 0.44635 0.49717 0.75331 0.0
C384 C 0.38744 0.41862 0.75366 0.0
C385 C 0.38574 0.42097 0.77379 0.0
H386 H 0.38531 0.4309 0.81299 0.0
H387 H 0.40283 0.46127 0.83195 0.0
H388 H 0.41339 0.4464 0.703 0.0
H389 H 0.39328 0.41967 0.71552 0.0
H390 H 0.37979 0.40582 0.74467 0.0
H391 H 0.37679 0.40994 0.77998 0.0
Mn392 Mn 0.76324 0.37884 0.52152 0.0
Mn393 Mn 0.76401 0.39514 0.47895 0.0
C394 C 0.7474 0.35981 0.49463 0.0
C395 C 0.77627 0.36135 0.54333 0.0
C396 C 0.73897 0.41052 0.51163 0.0
O397 O 0.78606 0.4005 0.52531 0.0
O398 O 0.78573 0.40958 0.49598 0.0
C399 C 0.80052 0.38055 0.46476 0.0
N400 N 0.78111 0.38099 0.46239 0.0
C401 C 0.78027 0.35871 0.43228 0.0
C402 C 0.80027 0.35812 0.43434 0.0
C403 C 0.81043 0.36908 0.45066 0.0
C404 C 0.7712 0.37051 0.44673 0.0
H405 H 0.80837 0.38884 0.47734 0.0
C406 C 0.7929 0.41093 0.51306 0.0
O407 O 0.76503 0.37487 0.5489 0.0
O408 O 0.78053 0.35865 0.52532 0.0
N409 N 0.74383 0.38212 0.46112 0.0
C410 C 0.72445 0.38349 0.4618 0.0
C411 C 0.71213 0.37301 0.44676 0.0
C412 C 0.71987 0.3613 0.43117 0.0
C413 C 0.73988 0.36025 0.43071 0.0
C414 C 0.75146 0.37119 0.44601 0.0
H415 H 0.71841 0.3924 0.47378 0.0
O416 O 0.74222 0.35717 0.5117 0.0
O417 O 0.76144 0.37363 0.49391 0.0
O418 O 0.74397 0.3995 0.52326 0.0
O419 O 0.74572 0.41017 0.49484 0.0
C420 C 0.74874 0.3485 0.41587 0.0
C421 C 0.76892 0.34771 0.41666 0.0
H422 H 0.80794 0.34918 0.42357 0.0
H423 H 0.82585 0.36861 0.4524 0.0
H424 H 0.69669 0.37387 0.44723 0.0
H425 H 0.71029 0.35306 0.41971 0.0
H426 H 0.74014 0.33979 0.40391 0.0
H427 H 0.77552 0.33841 0.40529 0.0
Mn428 Mn 0.66364 0.0156 0.75654 0.0
Mn429 Mn 0.649 0.06124 0.76296 0.0
C430 C 0.68075 0.04052 0.74331 0.0
C431 C 0.68115 0.99174 0.76639 0.0
C432 C 0.62972 0.02712 0.73408 0.0
O433 O 0.64525 0.01502 0.77888 0.0
O434 O 0.63759 0.04617 0.7825 0.0
C435 C 0.66895 0.07705 0.80053 0.0
N436 N 0.66549 0.0785 0.78179 0.0
C437 C 0.6855 0.10957 0.78519 0.0
C438 C 0.68921 0.10847 0.80455 0.0
C439 C 0.68097 0.09209 0.81222 0.0
C440 C 0.67352 0.09407 0.77421 0.0
H441 H 0.66255 0.06453 0.8065 0.0
C442 C 0.63652 0.02912 0.78749 0.0
O443 O 0.66619 0.98694 0.75471 0.0
O444 O 0.68564 0.01041 0.7728 0.0
N445 N 0.65888 0.07777 0.74527 0.0
C446 C 0.65459 0.07613 0.72612 0.0
C447 C 0.66218 0.09104 0.71612 0.0
C448 C 0.67377 0.10765 0.72596 0.0
C449 C 0.6777 0.10917 0.74573 0.0
C450 C 0.66986 0.09378 0.75491 0.0
H451 H 0.64552 0.0635 0.71853 0.0
O452 O 0.6822 0.02216 0.73654 0.0
O453 O 0.66958 0.04386 0.75787 0.0
O454 O 0.64079 0.01445 0.73749 0.0
O455 O 0.63135 0.04484 0.74305 0.0
C456 C 0.68925 0.12525 0.75665 0.0
C457 C 0.6933 0.12537 0.77632 0.0
H458 H 0.69843 0.12007 0.81363 0.0
H459 H 0.68381 0.09111 0.82713 0.0
H460 H 0.65904 0.08978 0.70087 0.0
H461 H 0.67962 0.11911 0.71819 0.0
H462 H 0.6953 0.1375 0.75001 0.0
H463 H 0.70249 0.13765 0.78448 0.0
Mn464 Mn 0.0257 0.24038 0.88472 0.0
Mn465 Mn 0.98006 0.23449 0.89996 0.0
C466 C 1.00145 0.22094 0.86513 0.0
C467 C 0.04952 0.2571 0.86852 0.0
C468 C 0.01295 0.21479 0.91472 0.0
O469 O 0.02531 0.26359 0.90683 0.0
O470 O 0.99369 0.25958 0.91394 0.0
C471 C 0.96431 0.26777 0.88583 0.0
N472 N 0.9636 0.24807 0.88611 0.0
C473 C 0.93559 0.24116 0.86467 0.0
C474 C 0.93593 0.26138 0.86427 0.0
C475 C 0.9504 0.27473 0.87485 0.0
C476 C 0.94981 0.23508 0.87589 0.0
H477 H 0.97545 0.27808 0.89387 0.0
C478 C 0.01059 0.26931 0.91599 0.0
O479 O 0.05404 0.24643 0.88108 0.0
O480 O 0.03129 0.25874 0.86608 0.0
N481 N 0.96551 0.21084 0.88691 0.0
C482 C 0.96798 0.19174 0.88779 0.0
C483 C 0.95517 0.17648 0.87735 0.0
C484 C 0.93993 0.18102 0.86619 0.0
C485 C 0.93765 0.20079 0.86555 0.0
C486 C 0.95082 0.21537 0.87631 0.0
H487 H 0.97967 0.18815 0.89633 0.0
O488 O 0.01944 0.21819 0.86244 0.0
O489 O 0.99843 0.23448 0.87939 0.0
O490 O 0.02581 0.22097 0.90373 0.0
O491 O 0.99568 0.21951 0.91481 0.0
C492 C 0.92299 0.20659 0.85445 0.0
C493 C 0.92191 0.22676 0.85408 0.0
H494 H 0.92529 0.26681 0.85575 0.0
H495 H 0.95085 0.29036 0.87452 0.0
H496 H 0.95706 0.16126 0.87787 0.0
H497 H 0.93015 0.16921 0.85807 0.0
H498 H 0.9126 0.19565 0.84597 0.0
H499 H 0.91068 0.23103 0.84535 0.0
Mn500 Mn 0.52908 0.74719 0.38975 0.0
Mn501 Mn 0.48348 0.74166 0.4054 0.0
C502 C 0.50443 0.72882 0.36999 0.0
C503 C 0.55352 0.764 0.37434 0.0
C504 C 0.51565 0.72011 0.41848 0.0
O505 O 0.52929 0.7699 0.41231 0.0
O506 O 0.49806 0.76553 0.42074 0.0
C507 C 0.46918 0.77703 0.39406 0.0
N508 N 0.46764 0.75708 0.39299 0.0
C509 C 0.43938 0.75278 0.37202 0.0
C510 C 0.4406 0.77328 0.37299 0.0
C511 C 0.4556 0.78545 0.38401 0.0
C512 C 0.45331 0.74524 0.38236 0.0
H513 H 0.48069 0.78644 0.40251 0.0
C514 C 0.51506 0.77504 0.42253 0.0
O515 O 0.55748 0.75258 0.38639 0.0
O516 O 0.53542 0.76614 0.37174 0.0
N517 N 0.4679 0.71924 0.39131 0.0
C518 C 0.46943 0.69973 0.39099 0.0
C519 C 0.45591 0.68555 0.38006 0.0
C520 C 0.44092 0.69158 0.36966 0.0
C521 C 0.43958 0.71174 0.37029 0.0
C522 C 0.45343 0.7252 0.38149 0.0
H523 H 0.48092 0.69501 0.39895 0.0
O524 O 0.52231 0.72569 0.36706 0.0
O525 O 0.50167 0.74216 0.38456 0.0
O526 O 0.52871 0.72703 0.40812 0.0
O527 O 0.49841 0.72485 0.41871 0.0
C528 C 0.42521 0.71902 0.36005 0.0
C529 C 0.42508 0.73953 0.36096 0.0
H530 H 0.43019 0.77983 0.3652 0.0
H531 H 0.45669 0.80128 0.38476 0.0
H532 H 0.45706 0.67001 0.37961 0.0
H533 H 0.43059 0.6806 0.36114 0.0
H534 H 0.41432 0.70898 0.35124 0.0
H535 H 0.41407 0.74494 0.35286 0.0
Mn536 Mn 0.01619 0.76856 0.64738 0.0
Mn537 Mn 0.99335 0.72494 0.65489 0.0
C538 C 0.01985 0.73992 0.62604 0.0
C539 C 0.01643 0.79767 0.63448 0.0
C540 C 0.02936 0.74564 0.6777 0.0
O541 O 0.99595 0.77659 0.6672 0.0
O542 O 0.97933 0.74678 0.66778 0.0
C543 C 0.95695 0.7249 0.63262 0.0
N544 N 0.97277 0.71595 0.63625 0.0
C545 C 0.96245 0.68791 0.61192 0.0
C546 C 0.94588 0.6967 0.60814 0.0
C547 C 0.94318 0.71532 0.61847 0.0
C548 C 0.97565 0.69816 0.62621 0.0
H549 H 0.95494 0.73928 0.6404 0.0
C550 C 0.98178 0.76559 0.67259 0.0
O551 O 0.02783 0.79648 0.64886 0.0
O552 O 0.00439 0.7822 0.62811 0.0
N553 N 0.00517 0.70241 0.64314 0.0
C554 C 0.02244 0.69647 0.64776 0.0
C555 C 0.02762 0.67835 0.63838 0.0
C556 C 0.01493 0.66643 0.62449 0.0
C557 C 0.99719 0.67278 0.62005 0.0
C558 C 0.99274 0.6909 0.62999 0.0
H559 H 0.03221 0.70548 0.65853 0.0
O560 O 0.03232 0.75541 0.62678 0.0
O561 O 0.00549 0.74175 0.63755 0.0
O562 O 0.03236 0.75975 0.66815 0.0
O563 O 0.0147 0.73255 0.67453 0.0
C564 C 0.98389 0.66198 0.60593 0.0
C565 C 0.96657 0.66958 0.60181 0.0
H566 H 0.93526 0.6894 0.59718 0.0
H567 H 0.93053 0.7223 0.61549 0.0
H568 H 0.04134 0.67356 0.64188 0.0
H569 H 0.01898 0.65248 0.61727 0.0
H570 H 0.987 0.64798 0.59792 0.0
H571 H 0.95662 0.66132 0.59069 0.0
Mn572 Mn 0.51403 0.26662 0.14463 0.0
Mn573 Mn 0.49294 0.22198 0.15154 0.0
C574 C 0.51822 0.23849 0.12274 0.0
C575 C 0.51389 0.29601 0.13226 0.0
C576 C 0.52911 0.24288 0.17364 0.0
O577 O 0.49354 0.27386 0.1645 0.0
O578 O 0.47962 0.24328 0.16627 0.0
C579 C 0.45508 0.22267 0.1321 0.0
N580 N 0.47132 0.21369 0.134 0.0
C581 C 0.45973 0.18649 0.10925 0.0
C582 C 0.44283 0.19539 0.1071 0.0
C583 C 0.44054 0.21359 0.11853 0.0
C584 C 0.47375 0.19627 0.12297 0.0
H585 H 0.45327 0.23664 0.14087 0.0
C586 C 0.48069 0.26207 0.17088 0.0
O587 O 0.5252 0.29471 0.14667 0.0
O588 O 0.50202 0.28049 0.1256 0.0
N589 N 0.50414 0.19979 0.13814 0.0
C590 C 0.52154 0.19347 0.1416 0.0
C591 C 0.52614 0.17548 0.13134 0.0
C592 C 0.51273 0.16409 0.11779 0.0
C593 C 0.49488 0.17082 0.11456 0.0
C594 C 0.49103 0.18877 0.12535 0.0
H595 H 0.53183 0.20205 0.15214 0.0
O596 O 0.53041 0.25424 0.12385 0.0
O597 O 0.50386 0.23965 0.13432 0.0
O598 O 0.53067 0.25789 0.16519 0.0
O599 O 0.51531 0.22891 0.16993 0.0
C600 C 0.48084 0.16055 0.1009 0.0
C601 C 0.46332 0.16843 0.09818 0.0
H602 H 0.43158 0.18844 0.09664 0.0
H603 H 0.42757 0.22058 0.11689 0.0
H604 H 0.53996 0.17038 0.13391 0.0
H605 H 0.51631 0.1502 0.10995 0.0
H606 H 0.48348 0.14671 0.09224 0.0
H607 H 0.45274 0.16052 0.08746 0.0
C608 C 0.212 0.72831 0.85548 0.0
C609 C 0.2297 0.7234 0.84769 0.0
C610 C 0.21169 0.74278 0.87188 0.0
C611 C 0.2423 0.7665 0.91393 0.0
H612 H 0.20954 0.80882 0.91782 0.0
C613 C 0.25783 0.8363 0.96989 0.0
C614 C 0.24235 0.84457 0.97937 0.0
C615 C 0.25444 0.82082 0.9545 0.0
C616 C 0.21853 0.79689 0.91705 0.0
H617 H 0.26088 0.73069 0.85044 0.0
H618 H 0.26032 0.75552 0.87902 0.0
H619 H 0.2068 0.78309 0.88917 0.0
H620 H 0.2112 0.8426 0.98114 0.0
H621 H 0.20508 0.81534 0.95379 0.0
H622 H 0.25419 0.78021 0.94157 0.0
C623 C 0.2467 0.74795 0.87272 0.0
C624 C 0.21699 0.78221 0.90067 0.0
C625 C 0.24701 0.73366 0.85635 0.0
C626 C 0.22332 0.83663 0.97371 0.0
C627 C 0.21987 0.82115 0.9581 0.0
C628 C 0.24378 0.78105 0.93025 0.0
C629 C 0.22908 0.7525 0.88083 0.0
C630 C 0.22918 0.76712 0.89879 0.0
C631 C 0.23544 0.81308 0.94836 0.0
C632 C 0.23223 0.79664 0.93183 0.0
H633 H 0.19841 0.72064 0.84919 0.0
H634 H 0.1979 0.74598 0.87786 0.0
H635 H 0.2516 0.75482 0.91307 0.0
H636 H 0.27265 0.84189 0.97436 0.0
H637 H 0.26676 0.81511 0.9472 0.0
C638 C 0.05547 0.50675 0.43851 0.0
C639 C 0.0422 0.52024 0.4443 0.0
C640 C 0.06625 0.5081 0.4221 0.0
C641 C 0.06525 0.52823 0.37667 0.0
H642 H 0.1185 0.51643 0.37385 0.0
C643 C 0.11345 0.54335 0.31379 0.0
C644 C 0.12598 0.52942 0.30653 0.0
C645 C 0.10309 0.54149 0.33032 0.0
C646 C 0.10356 0.51951 0.37433 0.0
H647 H 0.02978 0.54586 0.438 0.0
H648 H 0.04893 0.54863 0.40943 0.0
H649 H 0.10145 0.5158 0.4038 0.0
H650 H 0.13719 0.50242 0.31102 0.0
H651 H 0.11897 0.49916 0.34003 0.0
H652 H 0.06741 0.5321 0.34726 0.0
C653 C 0.05089 0.53681 0.41734 0.0
C654 C 0.09378 0.5192 0.39152 0.0
C655 C 0.04008 0.53539 0.43378 0.0
C656 C 0.12765 0.51339 0.31616 0.0
C657 C 0.11733 0.5116 0.33286 0.0
C658 C 0.07504 0.52861 0.35953 0.0
C659 C 0.06392 0.52299 0.41113 0.0
C660 C 0.07451 0.52362 0.39294 0.0
C661 C 0.10498 0.5257 0.34016 0.0
C662 C 0.09434 0.52434 0.35816 0.0
H663 H 0.0571 0.49479 0.44637 0.0
H664 H 0.0759 0.49705 0.41765 0.0
H665 H 0.0503 0.53128 0.37707 0.0
H666 H 0.11173 0.5559 0.3068 0.0
H667 H 0.09391 0.55274 0.33564 0.0
C668 C 0.81989 0.7884 0.87664 0.0
C669 C 0.82695 0.78206 0.85831 0.0
C670 C 0.81802 0.77581 0.89025 0.0
C671 C 0.83331 0.73191 0.90591 0.0
H672 H 0.78118 0.7255 0.92445 0.0
C673 C 0.80705 0.67266 0.95307 0.0
C674 C 0.79224 0.677 0.96588 0.0
C675 C 0.81336 0.68579 0.94062 0.0
C676 C 0.79595 0.72734 0.91983 0.0
H677 H 0.83866 0.75772 0.84049 0.0
H678 H 0.83586 0.7359 0.86463 0.0
H679 H 0.78906 0.74798 0.90199 0.0
H680 H 0.77336 0.69886 0.97675 0.0
H681 H 0.78505 0.72218 0.95613 0.0
H682 H 0.84035 0.71161 0.92418 0.0
C683 C 0.83162 0.75063 0.86824 0.0
C684 C 0.8004 0.74017 0.90679 0.0
C685 C 0.83327 0.76318 0.85445 0.0
C686 C 0.78467 0.69509 0.96684 0.0
C687 C 0.79124 0.70835 0.95481 0.0
C688 C 0.82894 0.71925 0.9193 0.0
C689 C 0.82345 0.75666 0.88606 0.0
C690 C 0.81911 0.74269 0.89975 0.0
C691 C 0.80517 0.70363 0.94099 0.0
C692 C 0.81019 0.7169 0.92658 0.0
H693 H 0.81538 0.803 0.88037 0.0
H694 H 0.81197 0.78095 0.90399 0.0
H695 H 0.84787 0.73361 0.90069 0.0
H696 H 0.81298 0.65869 0.95196 0.0
H697 H 0.82403 0.68152 0.93017 0.0
C698 C 0.01366 0.98889 0.44894 0.0
C699 C 0.02885 1.00197 0.45878 0.0
C700 C 0.00423 0.99356 0.43291 0.0
C701 C 0.01196 0.02197 0.39393 0.0
H702 H 0.95603 0.0143 0.38739 0.0
C703 C 0.97042 0.01186 0.32094 0.0
C704 C 0.95377 0.02152 0.31994 0.0
C705 C 0.98048 0.01301 0.33842 0.0
C706 C 0.97165 0.01673 0.38912 0.0
H707 H 0.04539 0.03065 0.45973 0.0
H708 H 0.02938 0.03836 0.43141 0.0
H709 H 0.97123 0.00874 0.41725 0.0
H710 H 0.93492 0.04048 0.33634 0.0
H711 H 0.95239 0.04218 0.36715 0.0
H712 H 0.01241 0.0293 0.36554 0.0
C713 C 0.02489 0.02447 0.43611 0.0
C714 C 0.98034 0.01336 0.40611 0.0
C715 C 0.03413 0.01995 0.45228 0.0
C716 C 0.94783 0.03306 0.33666 0.0
C717 C 0.9577 0.03388 0.35428 0.0
C718 C 0.00329 0.02503 0.37682 0.0
C719 C 0.0099 0.0113 0.42621 0.0
C720 C 1.00059 0.01578 0.40861 0.0
C721 C 0.9739 0.02354 0.35537 0.0
C722 C 0.98306 0.02228 0.37419 0.0
H723 H 0.00932 0.97482 0.45333 0.0
H724 H 0.99283 0.98304 0.42542 0.0
H725 H 0.02761 0.02384 0.39543 0.0
H726 H 0.97529 0.00283 0.30828 0.0
H727 H 0.99284 0.0048 0.33884 0.0
C728 C 0.24406 0.28552 0.6722 0.0
C729 C 0.22734 0.29533 0.67424 0.0
C730 C 0.24564 0.27049 0.65662 0.0
C731 C 0.22669 0.253 0.60705 0.0
H732 H 0.25212 0.20678 0.61177 0.0
C733 C 0.23196 0.19019 0.54284 0.0
C734 C 0.24952 0.1818 0.54084 0.0
C735 C 0.22861 0.20346 0.55934 0.0
C736 C 0.24516 0.21971 0.61017 0.0
H737 H 0.19893 0.2966 0.6618 0.0
H738 H 0.20154 0.2701 0.63477 0.0
H739 H 0.24687 0.23028 0.64051 0.0
H740 H 0.2774 0.18104 0.55476 0.0
H741 H 0.27163 0.20435 0.58338 0.0
H742 H 0.22516 0.24257 0.57672 0.0
C743 C 0.21355 0.27424 0.6451 0.0
C744 C 0.24211 0.23316 0.62666 0.0
C745 C 0.21194 0.28925 0.66072 0.0
C746 C 0.26368 0.18714 0.55577 0.0
C747 C 0.26032 0.20042 0.57228 0.0
C748 C 0.22975 0.23957 0.59057 0.0
C749 C 0.23055 0.2649 0.64268 0.0
C750 C 0.23294 0.25003 0.62529 0.0
C751 C 0.24272 0.20871 0.5743 0.0
C752 C 0.23913 0.22281 0.5919 0.0
H753 H 0.2561 0.28972 0.68248 0.0
H754 H 0.25899 0.26373 0.65517 0.0
H755 H 0.21988 0.26601 0.60542 0.0
H756 H 0.22064 0.18638 0.53172 0.0
H757 H 0.21479 0.20937 0.56051 0.0
C758 C 0.54721 0.52139 0.60748 0.0
C759 C 0.54672 0.53803 0.59847 0.0
C760 C 0.53723 0.51988 0.6243 0.0
C761 C 0.5145 0.5486 0.66514 0.0
H762 H 0.48659 0.49773 0.66873 0.0
C763 C 0.4606 0.53616 0.72541 0.0
C764 C 0.4603 0.51836 0.73268 0.0
C765 C 0.47187 0.53942 0.70969 0.0
C766 C 0.49451 0.51197 0.6681 0.0
H767 H 0.53553 0.56631 0.60037 0.0
H768 H 0.51781 0.56354 0.62973 0.0
H769 H 0.50463 0.50193 0.64012 0.0
H770 H 0.47225 0.49033 0.7294 0.0
H771 H 0.49201 0.49614 0.70229 0.0
H772 H 0.50428 0.55861 0.69319 0.0
C773 C 0.52612 0.55174 0.62379 0.0
C774 C 0.50484 0.51439 0.65167 0.0
C775 C 0.53612 0.55325 0.60688 0.0
C776 C 0.47199 0.50417 0.72417 0.0
C777 C 0.48325 0.50744 0.7085 0.0
C778 C 0.50414 0.54617 0.68164 0.0
C779 C 0.52639 0.53492 0.63257 0.0
C780 C 0.51508 0.53268 0.65001 0.0
C781 C 0.4831 0.52497 0.70086 0.0
C782 C 0.49411 0.52778 0.68337 0.0
H783 H 0.55496 0.50924 0.60129 0.0
H784 H 0.53797 0.50684 0.63081 0.0
H785 H 0.52237 0.56284 0.66439 0.0
H786 H 0.45178 0.54744 0.73155 0.0
H787 H 0.47129 0.55302 0.7041 0.0
C788 C 0.82992 0.23402 0.62539 0.0
C789 C 0.82853 0.23635 0.64538 0.0
C790 C 0.82191 0.24697 0.61508 0.0
C791 C 0.80805 0.29766 0.6217 0.0
H792 H 0.78689 0.28095 0.56975 0.0
C793 C 0.77742 0.35077 0.57573 0.0
C794 C 0.78262 0.34836 0.55636 0.0
C795 C 0.782 0.33728 0.58744 0.0
C796 C 0.79288 0.28587 0.58421 0.0
H797 H 0.81747 0.25346 0.67047 0.0
H798 H 0.80295 0.27596 0.65246 0.0
H799 H 0.7952 0.25633 0.58857 0.0
H800 H 0.79715 0.3302 0.53425 0.0
H801 H 0.80515 0.30683 0.55461 0.0
H802 H 0.80573 0.32725 0.61722 0.0
C803 C 0.81041 0.26432 0.64467 0.0
C804 C 0.79765 0.27175 0.59501 0.0
C805 C 0.81849 0.25135 0.65497 0.0
C806 C 0.79288 0.33248 0.54909 0.0
C807 C 0.79733 0.31897 0.56072 0.0
C808 C 0.80316 0.31179 0.61091 0.0
C809 C 0.81237 0.26255 0.62463 0.0
C810 C 0.8056 0.27746 0.61379 0.0
C811 C 0.79172 0.32104 0.57994 0.0
C812 C 0.79584 0.30607 0.59192 0.0
H813 H 0.83792 0.2227 0.61781 0.0
H814 H 0.82399 0.24529 0.59974 0.0
H815 H 0.81438 0.30265 0.63601 0.0
H816 H 0.76946 0.36282 0.58175 0.0
H817 H 0.77744 0.33924 0.60218 0.0
C818 C 0.53765 0.98196 0.58214 0.0
C819 C 0.52238 0.99296 0.57894 0.0
C820 C 0.54732 0.98489 0.60003 0.0
C821 C 0.55942 0.0219 0.64296 0.0
H822 H 0.57248 0.97748 0.66572 0.0
C823 C 0.60032 0.03366 0.71624 0.0
C824 C 0.61492 0.02151 0.71821 0.0
C825 C 0.58735 0.02941 0.70042 0.0
C826 C 0.56914 0.99006 0.65949 0.0
H827 H 0.50531 0.01562 0.59231 0.0
H828 H 0.52256 0.02102 0.6235 0.0
H829 H 0.55305 0.97167 0.63585 0.0
H830 H 0.62703 0.99508 0.70518 0.0
H831 H 0.60474 0.98791 0.67738 0.0
H832 H 0.57596 0.04032 0.66614 0.0
C833 C 0.52695 0.0101 0.61205 0.0
C834 C 0.55794 0.98672 0.64241 0.0
C835 C 0.51712 0.00704 0.59416 0.0
C836 C 0.6159 0.00469 0.7042 0.0
C837 C 0.60303 1.00054 0.68826 0.0
C838 C 0.57076 0.02525 0.65995 0.0
C839 C 0.54216 0.99904 0.61516 0.0
C840 C 0.55308 0.0026 0.63388 0.0
C841 C 0.58874 0.013 0.68602 0.0
C842 C 0.57589 0.00937 0.66839 0.0
H843 H 0.54248 0.97135 0.57068 0.0
H844 H 0.55921 0.97639 0.60187 0.0
H845 H 0.55613 0.03443 0.6366 0.0
H846 H 0.59901 0.04665 0.72683 0.0
H847 H 0.57629 0.03911 0.69943 0.0
C848 C 0.88258 0.17697 0.7293 0.0
C849 C 0.87832 0.1942 0.72271 0.0
C850 C 0.89625 0.17801 0.74429 0.0
C851 C 0.91728 0.2124 0.78613 0.0
H852 H 0.95824 0.17849 0.78532 0.0
C853 C 0.97957 0.23081 0.84163 0.0
C854 C 0.98732 0.21559 0.84895 0.0
C855 C 0.96624 0.2266 0.82624 0.0
C856 C 0.94669 0.18786 0.78592 0.0
H857 H 0.88529 0.22593 0.72642 0.0
H858 H 0.90913 0.22772 0.75247 0.0
H859 H 0.93519 0.17401 0.75797 0.0
H860 H 0.98817 0.18408 0.84548 0.0
H861 H 0.96404 0.17642 0.8187 0.0
H862 H 0.92849 0.2263 0.81383 0.0
C863 C 0.90186 0.21344 0.74611 0.0
C864 C 0.93356 0.18533 0.77022 0.0
C865 C 0.88836 0.21239 0.73107 0.0
C866 C 0.98208 0.19599 0.84018 0.0
C867 C 0.9684 0.19169 0.82482 0.0
C868 C 0.93025 0.21484 0.80178 0.0
C869 C 0.90572 0.19632 0.75309 0.0
C870 C 0.91898 0.19787 0.77004 0.0
C871 C 0.96017 0.20699 0.81781 0.0
C872 C 0.94539 0.2029 0.80176 0.0
H873 H 0.87517 0.16273 0.72301 0.0
H874 H 0.89894 0.16459 0.74941 0.0
H875 H 0.90592 0.22199 0.78659 0.0
H876 H 0.98389 0.2461 0.84783 0.0
H877 H 0.96077 0.23882 0.82091 0.0
C878 C 0.51056 0.94637 0.49971 0.0
C879 C 0.50131 0.94849 0.5174 0.0
C880 C 0.51239 0.92761 0.48942 0.0
C881 C 0.49196 0.87573 0.48303 0.0
H882 H 0.54305 0.86444 0.46627 0.0
C883 C 0.50549 0.79675 0.45189 0.0
C884 C 0.51733 0.79404 0.43592 0.0
C885 C 0.50483 0.81548 0.46264 0.0
C886 C 0.52864 0.86737 0.47062 0.0
H887 H 0.4861 0.93277 0.53785 0.0
H888 H 0.48891 0.89995 0.51966 0.0
H889 H 0.53821 0.89757 0.4822 0.0
H890 H 0.53835 0.8087 0.4191 0.0
H891 H 0.53685 0.84157 0.43753 0.0
H892 H 0.48214 0.84586 0.4711 0.0
C893 C 0.49486 0.91278 0.51383 0.0
C894 C 0.52588 0.88636 0.47976 0.0
C895 C 0.49329 0.93153 0.52425 0.0
C896 C 0.52924 0.81032 0.43147 0.0
C897 C 0.52834 0.82918 0.44206 0.0
C898 C 0.49463 0.85684 0.47368 0.0
C899 C 0.50475 0.91062 0.49649 0.0
C900 C 0.50754 0.89069 0.48616 0.0
C901 C 0.51571 0.83208 0.45747 0.0
C902 C 0.51304 0.85232 0.46748 0.0
H903 H 0.51706 0.95921 0.49422 0.0
H904 H 0.51993 0.92636 0.47601 0.0
H905 H 0.47761 0.87872 0.4876 0.0
H906 H 0.49627 0.78443 0.45575 0.0
H907 H 0.4954 0.81698 0.47475 0.0
C908 C 0.14723 0.31523 0.74196 0.0
C909 C 0.16711 0.3138 0.74318 0.0
C910 C 0.13492 0.30826 0.75544 0.0
C911 C 0.13071 0.27663 0.79301 0.0
H912 H 0.09382 0.31201 0.81396 0.0
C913 C 0.08365 0.26223 0.85754 0.0
C914 C 0.06413 0.26552 0.85616 0.0
C915 C 0.09695 0.26851 0.84446 0.0
C916 C 0.10388 0.30184 0.80816 0.0
H917 H 0.18993 0.30374 0.75887 0.0
H918 H 0.16838 0.2913 0.78249 0.0
H919 H 0.11505 0.32079 0.78884 0.0
H920 H 0.04337 0.27838 0.84023 0.0
H921 H 0.06637 0.2891 0.81742 0.0
H922 H 0.11936 0.25756 0.81223 0.0
C923 C 0.16221 0.29762 0.77107 0.0
C924 C 0.11605 0.30687 0.79372 0.0
C925 C 0.17453 0.30469 0.75758 0.0
C926 C 0.05832 0.27568 0.84177 0.0
C927 C 0.07156 0.28191 0.82871 0.0
C928 C 0.11844 0.27153 0.80743 0.0
C929 C 0.14232 0.29979 0.77043 0.0
C930 C 0.12951 0.29427 0.78586 0.0
C931 C 0.09101 0.27821 0.82972 0.0
C932 C 0.10477 0.28402 0.81509 0.0
H933 H 0.1413 0.32241 0.73102 0.0
H934 H 0.11964 0.30987 0.75438 0.0
H935 H 0.14085 0.26656 0.78718 0.0
H936 H 0.08859 0.25443 0.86847 0.0
H937 H 0.11187 0.26567 0.84584 0.0
C938 C 0.5609 0.59084 0.50672 0.0
C939 C 0.54542 0.58383 0.51715 0.0
C940 C 0.55947 0.60709 0.49748 0.0
C941 C 0.53054 0.64902 0.49539 0.0
H942 H 0.54894 0.64547 0.44342 0.0
C943 C 0.50668 0.69823 0.44286 0.0
C944 C 0.52054 0.70567 0.43077 0.0
C945 C 0.51107 0.68449 0.45427 0.0
C946 C 0.54396 0.64685 0.45801 0.0
H947 H 0.51646 0.58802 0.52646 0.0
H948 H 0.51376 0.6163 0.51027 0.0
H949 H 0.55439 0.61981 0.46212 0.0
H950 H 0.55003 0.70438 0.42135 0.0
H951 H 0.55767 0.6804 0.44131 0.0
H952 H 0.51979 0.67589 0.49112 0.0
C953 C 0.52717 0.60963 0.50939 0.0
C954 C 0.54711 0.63213 0.46876 0.0
C955 C 0.52865 0.59341 0.51862 0.0
C956 C 0.53897 0.699 0.43045 0.0
C957 C 0.54333 0.68516 0.44183 0.0
C958 C 0.52734 0.66371 0.48462 0.0
C959 C 0.54246 0.61653 0.49847 0.0
C960 C 0.54025 0.6329 0.48752 0.0
C961 C 0.52943 0.67773 0.45387 0.0
C962 C 0.53382 0.66269 0.46571 0.0
H963 H 0.57394 0.58352 0.50537 0.0
H964 H 0.57161 0.61215 0.48942 0.0
H965 H 0.52535 0.6503 0.5099 0.0
H966 H 0.49231 0.70293 0.44349 0.0
H967 H 0.49992 0.67886 0.46315 0.0
C968 C 0.84865 0.80173 0.78009 0.0
C969 C 0.8543 0.80651 0.79964 0.0
C970 C 0.86254 0.79965 0.76595 0.0
C971 C 0.91286 0.81295 0.7546 0.0
H972 H 0.90737 0.76262 0.72045 0.0
C973 C 0.97294 0.78801 0.70214 0.0
C974 C 0.96729 0.77454 0.68536 0.0
C975 C 0.95918 0.79382 0.71569 0.0
C976 C 0.90901 0.77697 0.72948 0.0
H977 H 0.87889 0.81363 0.8197 0.0
H978 H 0.90326 0.81046 0.79485 0.0
H979 H 0.88332 0.76972 0.74444 0.0
H980 H 0.9428 0.75764 0.66892 0.0
H981 H 0.91878 0.76868 0.69159 0.0
H982 H 0.93828 0.8205 0.73935 0.0
C983 C 0.88807 0.80816 0.79054 0.0
C984 C 0.89522 0.78094 0.74338 0.0
C985 C 0.87415 0.80986 0.80473 0.0
C986 C 0.94759 0.7679 0.68183 0.0
C987 C 0.93383 0.77407 0.69503 0.0
C988 C 0.92652 0.80915 0.74039 0.0
C989 C 0.88238 0.80267 0.77104 0.0
C990 C 0.897 0.79892 0.75611 0.0
C991 C 0.93943 0.78656 0.71252 0.0
C992 C 0.92481 0.79106 0.72759 0.0
H993 H 0.83346 0.79892 0.77576 0.0
H994 H 0.85778 0.79546 0.75101 0.0
H995 H 0.91453 0.82697 0.76423 0.0
H996 H 0.9881 0.79318 0.70529 0.0
H997 H 0.96421 0.80331 0.72897 0.0
C998 C 0.04604 0.94471 0.55581 0.0
C999 C 0.03632 0.94199 0.53786 0.0
C1000 C 0.04507 0.92931 0.5666 0.0
C1001 C 0.01292 0.88516 0.57298 0.0
H1002 H 0.05673 0.87093 0.60005 0.0
C1003 C 0.00745 0.81499 0.60768 0.0
C1004 C 0.01799 0.81529 0.62487 0.0
C1005 C 0.00992 0.83096 0.59776 0.0
C1006 C 0.04427 0.8749 0.59283 0.0
H1007 H 0.01839 0.92132 0.51679 0.0
H1008 H 0.01672 0.89442 0.53547 0.0
H1009 H 0.06142 0.89762 0.58118 0.0
H1010 H 0.03914 0.83282 0.64535 0.0
H1011 H 0.04309 0.86094 0.62831 0.0
H1012 H 0.99566 0.86279 0.58472 0.0
C1013 C 0.02501 0.90834 0.54134 0.0
C1014 C 0.047 0.89016 0.58195 0.0
C1015 C 0.0261 0.92364 0.53057 0.0
C1016 C 0.0308 0.83211 0.63212 0.0
C1017 C 0.0332 0.84817 0.62224 0.0
C1018 C 0.01015 0.87006 0.58395 0.0
C1019 C 0.03413 0.9111 0.55966 0.0
C1020 C 0.03138 0.8953 0.57171 0.0
C1021 C 0.0229 0.84775 0.60483 0.0
C1022 C 0.02581 0.86454 0.59387 0.0
H1023 H 0.05382 0.95889 0.56176 0.0
H1024 H 0.05217 0.93193 0.58068 0.0
H1025 H 1.00049 0.88903 0.56559 0.0
H1026 H 0.99758 0.8022 0.6016 0.0
H1027 H 0.00196 0.82988 0.58426 0.0
C1028 C 0.15502 0.69723 0.77854 0.0
C1029 C 0.17317 0.70714 0.77587 0.0
C1030 C 0.13823 0.70324 0.77129 0.0
C1031 C 0.11865 0.74372 0.75102 0.0
H1032 H 0.08353 0.70106 0.7227 0.0
C1033 C 0.06193 0.75571 0.6945 0.0
C1034 C 0.04417 0.74357 0.69242 0.0
C1035 C 0.07654 0.75257 0.70711 0.0
C1036 C 0.09294 0.71318 0.73082 0.0
H1037 H 0.18835 0.73127 0.7642 0.0
H1038 H 0.15903 0.7419 0.75146 0.0
H1039 H 0.11089 0.69355 0.74087 0.0
H1040 H 0.02766 0.71911 0.70271 0.0
H1041 H 0.05295 0.71392 0.7249 0.0
H1042 H 0.10078 0.76337 0.74069 0.0
C1043 C 0.1576 0.72966 0.75933 0.0
C1044 C 0.10868 0.70886 0.74126 0.0
C1045 C 0.17438 0.7236 0.76657 0.0
C1046 C 0.04117 0.72867 0.7038 0.0
C1047 C 0.05575 0.7256 0.71646 0.0
C1048 C 0.10283 0.74806 0.74061 0.0
C1049 C 0.13936 0.71924 0.76118 0.0
C1050 C 0.12185 0.72406 0.75133 0.0
C1051 C 0.07376 0.73727 0.71803 0.0
C1052 C 0.08989 0.73284 0.73019 0.0
H1053 H 0.15386 0.68439 0.7856 0.0
H1054 H 0.1244 0.69506 0.7732 0.0
H1055 H 0.1284 0.75578 0.7588 0.0
H1056 H 0.06481 0.7673 0.68596 0.0
H1057 H 0.09027 0.76172 0.70777 0.0
C1058 C 0.98841 0.58849 0.51187 0.0
C1059 C 0.00237 0.57511 0.5104 0.0
C1060 C 0.9928 0.60779 0.52164 0.0
C1061 C 0.02558 0.63642 0.56003 0.0
H1062 H 0.00379 0.68107 0.54495 0.0
C1063 C 0.03703 0.71324 0.6077 0.0
C1064 C 0.02037 0.72294 0.61052 0.0
C1065 C 0.03709 0.69665 0.59335 0.0
C1066 C 0.0099 0.66874 0.54944 0.0
H1067 H 0.03215 0.57181 0.5174 0.0
H1068 H 0.03993 0.60563 0.53418 0.0
H1069 H 0.99982 0.64933 0.52353 0.0
H1070 H 0.99157 0.72459 0.59943 0.0
H1071 H 0.9914 0.69551 0.57459 0.0
H1072 H 0.03536 0.65564 0.58605 0.0
C1073 C 0.02549 0.60109 0.52799 0.0
C1074 C 0.00764 0.65053 0.53714 0.0
C1075 C 0.0211 0.58177 0.51817 0.0
C1076 C 0.00435 0.71686 0.59787 0.0
C1077 C 0.0044 0.70038 0.58347 0.0
C1078 C 0.02786 0.65461 0.57232 0.0
C1079 C 0.01126 0.61422 0.53021 0.0
C1080 C 0.01519 0.63406 0.54241 0.0
C1081 C 0.0206 0.68975 0.5813 0.0
C1082 C 0.01976 0.67094 0.56735 0.0
H1083 H 0.9739 0.58389 0.50587 0.0
H1084 H 0.98144 0.61742 0.52316 0.0
H1085 H 0.03135 0.624 0.56471 0.0
H1086 H 0.04975 0.71808 0.61701 0.0
H1087 H 0.04997 0.68912 0.59183 0.0
C1088 C 0.76467 0.86633 0.19712 0.0
C1089 C 0.75377 0.85889 0.21151 0.0
C1090 C 0.77959 0.88169 0.20195 0.0
C1091 C 0.81332 0.90559 0.24145 0.0
H1092 H 0.81803 0.94957 0.21347 0.0
C1093 C 0.86692 0.9746 0.26682 0.0
C1094 C 0.87652 0.98398 0.25291 0.0
C1095 C 0.85192 0.95949 0.26146 0.0
C1096 C 0.81715 0.93727 0.22125 0.0
H1097 H 0.74998 0.86169 0.24223 0.0
H1098 H 0.77612 0.88855 0.25071 0.0
H1099 H 0.79201 0.92281 0.20475 0.0
H1100 H 0.87751 0.9859 0.22267 0.0
H1101 H 0.85171 0.95884 0.21298 0.0
H1102 H 0.83843 0.91978 0.25785 0.0
C1103 C 0.77314 0.88243 0.23569 0.0
C1104 C 0.80217 0.92197 0.21628 0.0
C1105 C 0.75809 0.86717 0.23084 0.0
C1106 C 0.87045 0.97858 0.23357 0.0
C1107 C 0.85559 0.96321 0.22811 0.0
C1108 C 0.82836 0.9208 0.24633 0.0
C1109 C 0.78403 0.88986 0.22128 0.0
C1110 C 0.80004 0.90602 0.2264 0.0
C1111 C 0.84619 0.95338 0.242 0.0
C1112 C 0.83044 0.93692 0.23637 0.0
H1113 H 0.76153 0.8604 0.18207 0.0
H1114 H 0.78781 0.88701 0.19055 0.0
H1115 H 0.81223 0.89335 0.24932 0.0
H1116 H 0.87099 0.97902 0.28193 0.0
H1117 H 0.84474 0.95273 0.27265 0.0
C1118 C 0.779 0.17624 0.3261 0.0
C1119 C 0.76181 0.16942 0.31515 0.0
C1120 C 0.79377 0.1641 0.32658 0.0
C1121 C 0.80377 0.1116 0.31502 0.0
H1122 H 0.857 0.13483 0.31443 0.0
C1123 C 0.8665 0.06331 0.3123 0.0
C1124 C 0.88134 0.06735 0.29973 0.0
C1125 C 0.85294 0.07668 0.31727 0.0
C1126 C 0.84222 0.12806 0.3145 0.0
H1127 H 0.74665 0.1442 0.29641 0.0
H1128 H 0.77261 0.12341 0.29656 0.0
H1129 H 0.83103 0.15586 0.31627 0.0
H1130 H 0.89404 0.08894 0.28311 0.0
H1131 H 0.87025 0.11192 0.29131 0.0
H1132 H 0.81484 0.0837 0.31216 0.0
C1133 C 0.77459 0.13802 0.30514 0.0
C1134 C 0.82729 0.14019 0.31583 0.0
C1135 C 0.75977 0.15009 0.30479 0.0
C1136 C 0.88282 0.0854 0.29289 0.0
C1137 C 0.86918 0.09866 0.2977 0.0
C1138 C 0.81868 0.09946 0.31351 0.0
C1139 C 0.79182 0.14485 0.316 0.0
C1140 C 0.80783 0.1321 0.31584 0.0
C1141 C 0.8538 0.09431 0.30963 0.0
C1142 C 0.83811 0.10748 0.31297 0.0
H1143 H 0.78123 0.19111 0.33409 0.0
H1144 H 0.80671 0.16982 0.33529 0.0
H1145 H 0.78901 0.10484 0.31536 0.0
H1146 H 0.86503 0.04958 0.31791 0.0
H1147 H 0.84156 0.073 0.32683 0.0
C1148 C 0.44633 0.01768 0.02234 0.0
C1149 C 0.45488 0.01176 0.00463 0.0
C1150 C 0.42875 0.0079 0.02698 0.0
C1151 C 0.3983 0.96062 0.01647 0.0
H1152 H 0.35489 0.99018 0.03057 0.0
C1153 C 0.32324 0.92237 0.03142 0.0
C1154 C 0.30854 0.9267 0.01945 0.0
C1155 C 0.34122 0.93393 0.03349 0.0
C1156 C 0.36696 0.98178 0.02685 0.0
H1157 H 0.45113 0.99102 0.97781 0.0
H1158 H 0.421 0.97362 0.98626 0.0
H1159 H 0.3867 0.00777 0.02632 0.0
H1160 H 0.30067 0.94718 1.00127 0.0
H1161 H 0.3318 0.96759 0.00528 0.0
H1162 H 0.37856 0.93462 0.01661 0.0
C1163 C 0.428 0.9858 0.99655 0.0
C1164 C 0.38513 0.99182 0.02449 0.0
C1165 C 0.44535 0.99576 0.99176 0.0
C1166 C 0.31175 0.94346 0.01055 0.0
C1167 C 0.32954 0.9552 0.01291 0.0
C1168 C 0.38024 0.9506 0.01914 0.0
C1169 C 0.41951 0.99177 0.01417 0.0
C1170 C 0.40085 0.98131 0.01882 0.0
C1171 C 0.34464 0.95025 0.02396 0.0
C1172 C 0.36428 0.96105 0.02393 0.0
H1173 H 0.45332 0.02971 0.03279 0.0
H1174 H 0.42252 0.01273 0.0407 0.0
H1175 H 0.41023 0.95218 0.01221 0.0
H1176 H 0.32121 0.90947 0.03835 0.0
H1177 H 0.35263 0.92985 0.04214 0.0
C1178 C 0.30051 0.39336 0.32198 0.0
C1179 C 0.29566 0.37295 0.31709 0.0
C1180 C 0.28929 0.40634 0.31485 0.0
C1181 C 0.23952 0.40819 0.29673 0.0
H1182 H 0.26093 0.45862 0.28453 0.0
C1183 C 0.19197 0.46165 0.26817 0.0
C1184 C 0.19629 0.48188 0.27532 0.0
C1185 C 0.20427 0.44809 0.2724 0.0
C1186 C 0.2547 0.44467 0.28807 0.0
H1187 H 0.2758 0.34984 0.30069 0.0
H1188 H 0.25634 0.37245 0.28777 0.0
H1189 H 0.28262 0.43535 0.29217 0.0
H1190 H 0.21683 0.50369 0.29273 0.0
H1191 H 0.23816 0.48003 0.30028 0.0
H1192 H 0.21161 0.41756 0.29276 0.0
C1193 C 0.26864 0.37855 0.29727 0.0
C1194 C 0.26715 0.4313 0.29241 0.0
C1195 C 0.27989 0.36559 0.30444 0.0
C1196 C 0.21307 0.48821 0.28699 0.0
C1197 C 0.2254 0.47466 0.29118 0.0
C1198 C 0.22707 0.42154 0.29235 0.0
C1199 C 0.27291 0.39911 0.30275 0.0
C1200 C 0.25973 0.41292 0.29694 0.0
C1201 C 0.22122 0.45443 0.28385 0.0
C1202 C 0.23449 0.44002 0.2881 0.0
H1203 H 0.31246 0.3993 0.33201 0.0
H1204 H 0.29291 0.42203 0.31958 0.0
H1205 H 0.23324 0.39435 0.30049 0.0
H1206 H 0.1792 0.45627 0.25907 0.0
H1207 H 0.20068 0.43266 0.26636 0.0
C1208 C 0.09478 0.02754 0.49536 0.0
C1209 C 0.08966 0.00825 0.49892 0.0
C1210 C 0.11397 0.03593 0.49708 0.0
C1211 C 0.1611 0.03686 0.51933 0.0
H1212 H 0.17872 0.05797 0.47423 0.0
C1213 C 0.22583 0.09743 0.52262 0.0
C1214 C 0.23557 0.09983 0.50576 0.0
C1215 C 0.21012 0.08285 0.52218 0.0
C1216 C 0.17426 0.05218 0.48698 0.0
H1217 H 0.10068 0.98317 0.50838 0.0
H1218 H 0.13458 0.99825 0.51185 0.0
H1219 H 0.14704 0.03953 0.47349 0.0
H1220 H 0.23835 0.0876 0.47583 0.0
H1221 H 0.2116 0.06159 0.47509 0.0
H1222 H 0.1882 0.04991 0.53301 0.0
C1223 C 0.12352 0.00659 0.50739 0.0
C1224 C 0.15599 0.04157 0.48652 0.0
C1225 C 0.10416 0.99801 0.50544 0.0
C1226 C 0.23051 0.08644 0.48884 0.0
C1227 C 0.21513 0.07156 0.48847 0.0
C1228 C 0.17941 0.04774 0.51989 0.0
C1229 C 0.12859 0.02544 0.50272 0.0
C1230 C 0.14901 0.03424 0.5028 0.0
C1231 C 0.20427 0.06993 0.50498 0.0
C1232 C 0.18603 0.05607 0.50386 0.0
H1233 H 0.08392 0.03613 0.49092 0.0
H1234 H 0.11743 0.05065 0.49381 0.0
H1235 H 0.15606 0.03124 0.53206 0.0
H1236 H 0.22981 0.1074 0.53593 0.0
H1237 H 0.20212 0.08233 0.53517 0.0
C1238 C 0.80018 0.15954 0.68347 0.0
C1239 C 0.81026 0.17165 0.69923 0.0
C1240 C 0.78388 0.14665 0.68631 0.0
C1241 C 0.74843 0.13516 0.72343 0.0
H1242 H 0.74523 0.08191 0.695 0.0
C1243 C 0.70544 0.0698 0.75033 0.0
C1244 C 0.6939 0.05611 0.73685 0.0
C1245 C 0.71826 0.08441 0.74432 0.0
C1246 C 0.74577 0.09677 0.7029 0.0
H1247 H 0.8104 0.18069 0.73016 0.0
H1248 H 0.78259 0.15803 0.73518 0.0
H1249 H 0.7693 0.10727 0.68666 0.0
H1250 H 0.68759 0.04583 0.70654 0.0
H1251 H 0.70998 0.07154 0.69587 0.0
H1252 H 0.72567 0.12443 0.74028 0.0
C1253 C 0.78698 0.15846 0.72058 0.0
C1254 C 0.75952 0.11137 0.69806 0.0
C1255 C 0.80313 0.17133 0.71773 0.0
C1256 C 0.69609 0.05656 0.71718 0.0
C1257 C 0.70894 0.07119 0.71112 0.0
C1258 C 0.73493 0.12054 0.72841 0.0
C1259 C 0.77732 0.14566 0.70497 0.0
C1260 C 0.76126 0.13068 0.70851 0.0
C1261 C 0.72003 0.0854 0.72464 0.0
C1262 C 0.73359 0.10112 0.7184 0.0
H1263 H 0.80536 0.15944 0.66904 0.0
H1264 H 0.77662 0.13723 0.67392 0.0
H1265 H 0.749 0.14994 0.73153 0.0
H1266 H 0.70455 0.06919 0.76554 0.0
H1267 H 0.72692 0.09483 0.75509 0.0
C1268 C 0.44611 0.02596 0.50562 0.0
C1269 C 0.45933 0.03391 0.52079 0.0
C1270 C 0.42934 0.03493 0.50308 0.0
C1271 C 0.39793 0.0704 0.52858 0.0
H1272 H 0.38164 0.07577 0.47709 0.0
C1273 C 0.34123 0.12193 0.51583 0.0
C1274 C 0.32669 0.1147 0.50161 0.0
C1275 C 0.35734 0.11179 0.51744 0.0
C1276 C 0.38588 0.07422 0.49155 0.0
H1277 H 0.46575 0.05717 0.54522 0.0
H1278 H 0.43664 0.073 0.54082 0.0
H1279 H 0.40939 0.05802 0.48164 0.0
H1280 H 0.318 0.09144 0.47754 0.0
H1281 H 0.34621 0.07373 0.48034 0.0
H1282 H 0.37458 0.08673 0.53851 0.0
C1283 C 0.43886 0.05971 0.53101 0.0
C1284 C 0.40177 0.064 0.49417 0.0
C1285 C 0.45557 0.05073 0.53352 0.0
C1286 C 0.32896 0.09743 0.48863 0.0
C1287 C 0.34515 0.0873 0.49021 0.0
C1288 C 0.38212 0.08065 0.52597 0.0
C1289 C 0.42557 0.05202 0.51569 0.0
C1290 C 0.40811 0.06209 0.51274 0.0
C1291 C 0.35937 0.09418 0.50486 0.0
C1292 C 0.37598 0.08285 0.50744 0.0
H1293 H 0.44886 0.013 0.4956 0.0
H1294 H 0.41934 0.02847 0.49127 0.0
H1295 H 0.40212 0.0689 0.54306 0.0
H1296 H 0.33999 0.13522 0.52603 0.0
H1297 H 0.36819 0.11772 0.52865 0.0
C1298 C 0.60329 0.50287 0.56412 0.0
C1299 C 0.60054 0.51914 0.55513 0.0
C1300 C 0.6194 0.4926 0.56025 0.0
C1301 C 0.65434 0.48076 0.52309 0.0
H1302 H 0.68344 0.46459 0.56392 0.0
C1303 C 0.7215 0.43941 0.50718 0.0
C1304 C 0.72434 0.42425 0.51763 0.0
C1305 C 0.70738 0.45203 0.51236 0.0
C1306 C 0.67534 0.46876 0.55231 0.0
H1307 H 0.61296 0.53747 0.53521 0.0
H1308 H 0.64087 0.51918 0.52812 0.0
H1309 H 0.65711 0.48481 0.57187 0.0
H1310 H 0.7145 0.41057 0.54184 0.0
H1311 H 0.6895 0.43221 0.55057 0.0
H1312 H 0.67204 0.46429 0.50346 0.0
C1313 C 0.63046 0.51445 0.53818 0.0
C1314 C 0.6603 0.48043 0.55689 0.0
C1315 C 0.61444 0.52489 0.54221 0.0
C1316 C 0.71279 0.42215 0.53353 0.0
C1317 C 0.6985 0.43466 0.5386 0.0
C1318 C 0.66923 0.46893 0.51848 0.0
C1319 C 0.63306 0.49815 0.54711 0.0
C1320 C 0.6496 0.4865 0.54233 0.0
C1321 C 0.69553 0.44972 0.52802 0.0
C1322 C 0.67991 0.4627 0.53302 0.0
H1323 H 0.59273 0.49765 0.57378 0.0
H1324 H 0.62084 0.47992 0.56712 0.0
H1325 H 0.64616 0.48496 0.51154 0.0
H1326 H 0.73025 0.4416 0.49495 0.0
H1327 H 0.70583 0.46368 0.5041 0.0
C1328 C 0.7231 0.21701 0.36542 0.0
C1329 C 0.72373 0.2226 0.34715 0.0
C1330 C 0.72221 0.23109 0.38192 0.0
C1331 C 0.71331 0.28289 0.3998 0.0
H1332 H 0.74973 0.27829 0.44051 0.0
C1333 C 0.723 0.33705 0.47281 0.0
C1334 C 0.74233 0.344 0.47817 0.0
C1335 C 0.71867 0.32172 0.45721 0.0
C1336 C 0.73948 0.27978 0.42928 0.0
H1337 H 0.72308 0.24721 0.3318 0.0
H1338 H 0.72165 0.27187 0.36063 0.0
H1339 H 0.74513 0.25259 0.41235 0.0
H1340 H 0.77223 0.3397 0.47266 0.0
H1341 H 0.76478 0.31301 0.44555 0.0
H1342 H 0.70824 0.31054 0.41668 0.0
C1343 C 0.72163 0.25656 0.3622 0.0
C1344 C 0.73667 0.26493 0.41322 0.0
C1345 C 0.72247 0.24244 0.34567 0.0
C1346 C 0.75722 0.33487 0.46841 0.0
C1347 C 0.75294 0.31948 0.45305 0.0
C1348 C 0.71608 0.29776 0.41598 0.0
C1349 C 0.72199 0.25112 0.38055 0.0
C1350 C 0.72372 0.26638 0.39818 0.0
C1351 C 0.73364 0.31278 0.4472 0.0
C1352 C 0.72941 0.29645 0.43074 0.0
H1353 H 0.72369 0.20177 0.36699 0.0
H1354 H 0.72209 0.22634 0.3958 0.0
H1355 H 0.70314 0.28438 0.38852 0.0
H1356 H 0.71133 0.34369 0.48047 0.0
H1357 H 0.70367 0.3167 0.45312 0.0
C1358 C 0.55473 0.00413 0.93682 0.0
C1359 C 0.5419 0.01801 0.94285 0.0
C1360 C 0.56536 0.00526 0.92028 0.0
C1361 C 0.56457 0.02569 0.87503 0.0
H1362 H 0.61739 0.01265 0.87162 0.0
C1363 C 0.61272 0.04041 0.81205 0.0
C1364 C 0.62486 0.02621 0.80452 0.0
C1365 C 0.60241 0.03859 0.82861 0.0
C1366 C 0.60256 0.01608 0.87226 0.0
H1367 H 0.5301 0.04408 0.93686 0.0
H1368 H 0.549 0.04644 0.90805 0.0
H1369 H 0.60053 0.01221 0.9017 0.0
H1370 H 0.63544 0.99877 0.80854 0.0
H1371 H 0.61731 0.99558 0.83762 0.0
H1372 H 0.56666 0.02974 0.84566 0.0
C1373 C 0.55073 0.03449 0.91587 0.0
C1374 C 0.59289 0.01587 0.88952 0.0
C1375 C 0.54006 0.0333 0.93243 0.0
C1376 C 0.6262 0.00995 0.8139 0.0
C1377 C 0.61593 0.0082 0.83063 0.0
C1378 C 0.57425 0.02596 0.85782 0.0
C1379 C 0.56332 0.0203 0.90943 0.0
C1380 C 0.57378 0.02076 0.89116 0.0
C1381 C 0.60397 0.02257 0.8382 0.0
C1382 C 0.5934 0.02125 0.85624 0.0
H1383 H 0.55614 0.99207 0.9446 0.0
H1384 H 0.57469 0.99394 0.91566 0.0
H1385 H 0.54973 0.02911 0.87559 0.0
H1386 H 0.61125 0.05315 0.80525 0.0
H1387 H 0.59353 0.05005 0.83415 0.0
C1388 C 0.30658 0.28121 0.36519 0.0
C1389 C 0.32522 0.286 0.35864 0.0
C1390 C 0.30351 0.26834 0.37842 0.0
C1391 C 0.32393 0.22912 0.39934 0.0
H1392 H 0.28815 0.24337 0.43961 0.0
C1393 C 0.30407 0.18238 0.46011 0.0
C1394 C 0.28409 0.17932 0.46325 0.0
C1395 C 0.31127 0.19578 0.44821 0.0
C1396 C 0.29814 0.23912 0.42843 0.0
H1397 H 0.35522 0.28045 0.36057 0.0
H1398 H 0.3498 0.25775 0.38374 0.0
H1399 H 0.29654 0.26562 0.41692 0.0
H1400 H 0.25613 0.18814 0.45627 0.0
H1401 H 0.26858 0.21116 0.43588 0.0
H1402 H 0.32522 0.20239 0.41088 0.0
C1403 C 0.33756 0.26403 0.37853 0.0
C1404 C 0.30291 0.25187 0.41537 0.0
C1405 C 0.34066 0.27701 0.36524 0.0
C1406 C 0.2716 0.19003 0.4543 0.0
C1407 C 0.27876 0.20341 0.44264 0.0
C1408 C 0.31913 0.2163 0.41249 0.0
C1409 C 0.31898 0.2598 0.38552 0.0
C1410 C 0.31549 0.24685 0.40036 0.0
C1411 C 0.29865 0.20654 0.43946 0.0
C1412 C 0.30579 0.22096 0.4269 0.0
H1413 H 0.29428 0.28746 0.36007 0.0
H1414 H 0.28892 0.26502 0.38308 0.0
H1415 H 0.33364 0.22479 0.38794 0.0
H1416 H 0.3141 0.17435 0.46669 0.0
H1417 H 0.32669 0.1979 0.44606 0.0
C1418 C 0.51478 0.49059 0.9497 0.0
C1419 C 0.52961 0.50375 0.96005 0.0
C1420 C 0.5055 0.49549 0.9337 0.0
C1421 C 0.51355 0.52508 0.89567 0.0
H1422 H 0.45781 0.51585 0.88748 0.0
C1423 C 0.47406 0.51478 0.82165 0.0
C1424 C 0.45705 0.52379 0.82024 0.0
C1425 C 0.48369 0.5161 0.83939 0.0
C1426 C 0.47337 0.51874 0.88969 0.0
H1427 H 0.54562 0.53282 0.96195 0.0
H1428 H 0.52988 0.54096 0.93369 0.0
H1429 H 0.47245 0.51014 0.91756 0.0
H1430 H 0.43712 0.54178 0.83616 0.0
H1431 H 0.45385 0.54378 0.86742 0.0
H1432 H 0.51453 0.53299 0.86751 0.0
C1433 C 0.52555 0.52682 0.93797 0.0
C1434 C 0.48175 0.51528 0.9068 0.0
C1435 C 0.53465 0.52206 0.95411 0.0
C1436 C 0.45032 0.53489 0.83682 0.0
C1437 C 0.45977 0.53587 0.85469 0.0
C1438 C 0.5052 0.52823 0.87844 0.0
C1439 C 0.51096 0.51356 0.92753 0.0
C1440 C 0.50193 0.51824 0.90988 0.0
C1441 C 0.47632 0.52613 0.85618 0.0
C1442 C 0.48505 0.52491 0.8752 0.0
H1443 H 0.51065 0.47628 0.95365 0.0
H1444 H 0.49442 0.48489 0.92579 0.0
H1445 H 0.52916 0.52738 0.89761 0.0
H1446 H 0.47953 0.50608 0.80911 0.0
H1447 H 0.49633 0.50835 0.84011 0.0
C1448 C 0.71424 0.78835 0.15569 0.0
C1449 C 0.72828 0.79476 0.17057 0.0
C1450 C 0.71741 0.77342 0.14051 0.0
C1451 C 0.75674 0.74923 0.11515 0.0
H1452 H 0.71503 0.70962 0.09349 0.0
C1453 C 0.76886 0.68378 0.05564 0.0
C1454 C 0.75476 0.67867 0.04064 0.0
C1455 C 0.76575 0.69744 0.07195 0.0
C1456 C 0.72679 0.72069 0.09926 0.0
H1457 H 0.7564 0.79003 0.18146 0.0
H1458 H 0.76192 0.76396 0.15498 0.0
H1459 H 0.70925 0.73407 0.12128 0.0
H1460 H 0.72626 0.68406 0.03117 0.0
H1461 H 0.72099 0.70794 0.05944 0.0
H1462 H 0.77424 0.73594 0.09305 0.0
C1463 C 0.74859 0.77072 0.15489 0.0
C1464 C 0.72347 0.7347 0.1152 0.0
C1465 C 0.74542 0.78564 0.17007 0.0
C1466 C 0.73747 0.68759 0.0424 0.0
C1467 C 0.73436 0.7012 0.0587 0.0
C1468 C 0.76005 0.73522 0.09921 0.0
C1469 C 0.73469 0.76453 0.13984 0.0
C1470 C 0.73837 0.74921 0.12328 0.0
C1471 C 0.74844 0.70628 0.07369 0.0
C1472 C 0.74508 0.72085 0.09099 0.0
H1473 H 0.70101 0.79526 0.15547 0.0
H1474 H 0.70652 0.76922 0.12903 0.0
H1475 H 0.76846 0.76038 0.12083 0.0
H1476 H 0.78233 0.6772 0.05484 0.0
H1477 H 0.77681 0.70087 0.08333 0.0
C1478 C 0.03336 0.05365 0.10844 0.0
C1479 C 0.04357 0.03802 0.10028 0.0
C1480 C 0.02362 0.05288 0.1256 0.0
C1481 C 0.02061 0.02686 0.1678 0.0
H1482 H 0.96898 0.04309 0.17158 0.0
C1483 C 0.9671 0.00424 0.22423 0.0
C1484 C 0.95522 0.01816 0.23293 0.0
C1485 C 0.97888 0.00822 0.20912 0.0
C1486 C 0.98348 0.03875 0.17089 0.0
H1487 H 0.05126 0.0092 0.10371 0.0
H1488 H 0.03439 0.00789 0.13348 0.0
H1489 H 0.98777 0.04741 0.14334 0.0
H1490 H 0.94675 0.0474 0.2326 0.0
H1491 H 0.96737 0.05433 0.2063 0.0
H1492 H 0.01618 0.01787 0.1952 0.0
C1493 C 0.03421 0.02094 0.12689 0.0
C1494 C 0.99428 0.04125 0.15469 0.0
C1495 C 0.04392 0.02171 0.10978 0.0
C1496 C 0.95565 0.03629 0.22626 0.0
C1497 C 0.9674 0.04024 0.21109 0.0
C1498 C 0.0098 0.02432 0.18397 0.0
C1499 C 0.02385 0.03646 0.13499 0.0
C1500 C 0.01289 0.0351 0.15283 0.0
C1501 C 0.97907 0.02621 0.20226 0.0
C1502 C 0.99102 0.03001 0.18561 0.0
H1503 H 0.03294 0.06651 0.10158 0.0
H1504 H 0.01598 0.0652 0.13156 0.0
H1505 H 0.03503 0.0223 0.16703 0.0
H1506 H 0.96714 0.99009 0.2289 0.0
H1507 H 0.9875 0.99698 0.20249 0.0
C1508 C 0.32015 0.75637 0.1583 0.0
C1509 C 0.33055 0.74124 0.14957 0.0
C1510 C 0.31276 0.76915 0.14727 0.0
C1511 C 0.32316 0.78916 0.10298 0.0
H1512 H 0.27282 0.80818 0.1089 0.0
C1513 C 0.29393 0.83535 0.05059 0.0
C1514 C 0.28274 0.8505 0.05775 0.0
C1515 C 0.29954 0.82247 0.06238 0.0
C1516 C 0.28705 0.80324 0.10726 0.0
H1517 H 0.34108 0.727 0.12274 0.0
H1518 H 0.32803 0.7491 0.10336 0.0
H1519 H 0.2819 0.78398 0.12806 0.0
H1520 H 0.26898 0.86424 0.08308 0.0
H1521 H 0.27916 0.84196 0.10387 0.0
H1522 H 0.32853 0.80849 0.08246 0.0
C1523 C 0.32562 0.75128 0.11866 0.0
C1524 C 0.2922 0.7893 0.11819 0.0
C1525 C 0.3329 0.73851 0.12968 0.0
C1526 C 0.2776 0.85271 0.07713 0.0
C1527 C 0.2833 0.83983 0.08899 0.0
C1528 C 0.31809 0.80314 0.09218 0.0
C1529 C 0.31591 0.76707 0.1274 0.0
C1530 C 0.31025 0.78196 0.11601 0.0
C1531 C 0.29423 0.82443 0.08172 0.0
C1532 C 0.29989 0.81024 0.09401 0.0
H1533 H 0.31846 0.75885 0.17373 0.0
H1534 H 0.30545 0.78122 0.15444 0.0
H1535 H 0.33736 0.78416 0.10128 0.0
H1536 H 0.29803 0.83313 0.0357 0.0
H1537 H 0.30767 0.81063 0.05616 0.0
C1538 C 0.04579 0.48073 0.08099 0.0
C1539 C 0.0294 0.49005 0.07745 0.0
C1540 C 0.05498 0.4843 0.09915 0.0
C1541 C 0.06327 0.52097 0.14277 0.0
H1542 H 0.0785 0.47741 0.16559 0.0
C1543 C 0.10217 0.53437 0.21724 0.0
C1544 C 0.11738 0.52306 0.21963 0.0
C1545 C 0.0897 0.52957 0.20104 0.0
C1546 C 0.07456 0.48977 0.15936 0.0
H1547 H 0.00993 0.51054 0.09046 0.0
H1548 H 0.02639 0.51718 0.12209 0.0
H1549 H 0.06025 0.47079 0.13501 0.0
H1550 H 0.13113 0.49755 0.20693 0.0
H1551 H 0.10977 0.48948 0.17847 0.0
H1552 H 0.07811 0.54003 0.16663 0.0
C1553 C 0.03199 0.50702 0.11071 0.0
C1554 C 0.06402 0.48596 0.14186 0.0
C1555 C 0.02262 0.50326 0.09256 0.0
C1556 C 0.11949 0.50651 0.20564 0.0
C1557 C 0.10715 0.50183 0.18932 0.0
C1558 C 0.07399 0.52481 0.16016 0.0
C1559 C 0.04821 0.49749 0.1142 0.0
C1560 C 0.0584 0.50152 0.13331 0.0
C1561 C 0.09224 0.51345 0.18666 0.0
C1562 C 0.07993 0.50927 0.16863 0.0
H1563 H 0.0518 0.47087 0.06965 0.0
H1564 H 0.06767 0.47702 0.10131 0.0
H1565 H 0.05932 0.53326 0.13641 0.0
H1566 H 0.10001 0.54713 0.22781 0.0
H1567 H 0.07815 0.53861 0.19975 0.0
C1568 C 0.38387 0.68377 0.2356 0.0
C1569 C 0.37923 0.70092 0.2291 0.0
C1570 C 0.39762 0.68501 0.25056 0.0
C1571 C 0.41856 0.71945 0.29246 0.0
H1572 H 0.46056 0.6867 0.29051 0.0
C1573 C 0.48165 0.73866 0.34719 0.0
C1574 C 0.48999 0.72351 0.35405 0.0
C1575 C 0.46806 0.73438 0.33202 0.0
C1576 C 0.44873 0.69574 0.29144 0.0
H1577 H 0.38548 0.73273 0.23304 0.0
H1578 H 0.40942 0.73488 0.25909 0.0
H1579 H 0.437 0.68189 0.26357 0.0
H1580 H 0.49164 0.69208 0.34992 0.0
H1581 H 0.46712 0.6843 0.32354 0.0
H1582 H 0.42998 0.73332 0.3201 0.0
C1583 C 0.40242 0.7205 0.25265 0.0
C1584 C 0.4353 0.69302 0.27597 0.0
C1585 C 0.38886 0.71925 0.23761 0.0
C1586 C 0.48509 0.70395 0.345 0.0
C1587 C 0.47118 0.69957 0.32986 0.0
C1588 C 0.43182 0.72206 0.30789 0.0
C1589 C 0.40677 0.70344 0.25944 0.0
C1590 C 0.42033 0.70515 0.2762 0.0
C1591 C 0.46235 0.71477 0.32332 0.0
C1592 C 0.44734 0.71055 0.30747 0.0
H1593 H 0.37676 0.66943 0.2292 0.0
H1594 H 0.40068 0.67164 0.25555 0.0
H1595 H 0.40692 0.72873 0.29322 0.0
H1596 H 0.48571 0.75393 0.35359 0.0
H1597 H 0.46211 0.74655 0.32704 0.0
C1598 C 0.99517 0.43347 0.00562 0.0
C1599 C 0.01157 0.44371 0.01597 0.0
C1600 C 0.99611 0.41483 0.99464 0.0
C1601 C 0.02645 0.37297 0.98802 0.0
H1602 H 0.99499 0.35684 0.94115 0.0
C1603 C 0.0305 0.29996 0.93352 0.0
C1604 C 0.0124 0.28893 0.92856 0.0
C1605 C 0.03163 0.31903 0.9443 0.0
C1606 C 0.00385 0.36117 0.95423 0.0
H1607 H 0.04198 0.44288 0.02246 0.0
H1608 H 0.04386 0.41076 0.00285 0.0
H1609 H 0.9946 0.38997 0.95922 0.0
H1610 H 0.98132 0.28935 0.93139 0.0
H1611 H 0.98342 0.32241 0.94973 0.0
H1612 H 0.03591 0.3441 0.98261 0.0
C1613 C 0.03006 0.41667 0.00366 0.0
C1614 C 0.00352 0.38011 0.96469 0.0
C1615 C 0.02902 0.43515 0.01484 0.0
C1616 C 0.99555 0.2973 0.93488 0.0
C1617 C 0.99669 0.31634 0.94531 0.0
C1618 C 0.02698 0.3541 0.97736 0.0
C1619 C 0.01359 0.40616 0.9935 0.0
C1620 C 0.0146 0.38621 0.9819 0.0
C1621 C 0.01469 0.32748 0.94998 0.0
C1622 C 0.01546 0.34794 0.96053 0.0
H1623 H 0.98151 0.4397 0.00636 0.0
H1624 H 0.98302 0.4071 0.98733 0.0
H1625 H 0.03497 0.37696 1.00131 0.0
H1626 H 0.04375 0.29399 0.92891 0.0
H1627 H 0.0457 0.32735 0.94776 0.0
C1628 C 0.66129 0.80059 0.2481 0.0
C1629 C 0.67012 0.81988 0.24882 0.0
C1630 C 0.65095 0.79537 0.26371 0.0
C1631 C 0.62452 0.8175 0.30524 0.0
H1632 H 0.62396 0.76578 0.31974 0.0
C1633 C 0.56385 0.78473 0.34953 0.0
C1634 C 0.56873 0.773 0.36295 0.0
C1635 C 0.57779 0.79175 0.33748 0.0
C1636 C 0.62411 0.78038 0.31606 0.0
H1637 H 0.67565 0.84883 0.26618 0.0
H1638 H 0.65777 0.83974 0.29371 0.0
H1639 H 0.64616 0.77522 0.29553 0.0
H1640 H 0.59224 0.75994 0.37466 0.0
H1641 H 0.61664 0.77235 0.35372 0.0
H1642 H 0.60248 0.82267 0.32577 0.0
C1643 C 0.6586 0.82864 0.28109 0.0
C1644 C 0.63669 0.78571 0.30201 0.0
C1645 C 0.66894 0.83382 0.26544 0.0
C1646 C 0.588 0.76892 0.36445 0.0
C1647 C 0.60196 0.77591 0.35235 0.0
C1648 C 0.61193 0.81217 0.31927 0.0
C1649 C 0.64922 0.80941 0.28031 0.0
C1650 C 0.63689 0.80424 0.29625 0.0
C1651 C 0.59696 0.78719 0.33854 0.0
C1652 C 0.61138 0.79345 0.32468 0.0
H1653 H 0.66192 0.7897 0.23526 0.0
H1654 H 0.64371 0.78053 0.26249 0.0
H1655 H 0.62414 0.83183 0.30105 0.0
H1656 H 0.54912 0.78811 0.34798 0.0
H1657 H 0.57337 0.80019 0.32687 0.0
C1658 C 0.02602 0.09215 0.01919 0.0
C1659 C 0.04247 0.08207 0.01762 0.0
C1660 C 0.02475 0.10813 0.00958 0.0
C1661 C 0.04435 0.12889 0.96784 0.0
H1662 H 0.0183 0.17381 0.98962 0.0
C1663 C 0.03637 0.19424 0.92739 0.0
C1664 C 0.01804 0.20113 0.92776 0.0
C1665 C 0.04084 0.18091 0.9393 0.0
C1666 C 0.02551 0.16131 0.98329 0.0
H1667 H 0.07066 0.08066 0.00526 0.0
H1668 H 0.0687 0.10888 0.98862 0.0
H1669 H 0.02378 0.14875 0.00908 0.0
H1670 H 0.99013 0.19942 0.94121 0.0
H1671 H 0.99792 0.17624 0.9618 0.0
H1672 H 0.04589 0.14137 0.94198 0.0
C1673 C 0.05664 0.10439 0.99706 0.0
C1674 C 0.02865 0.14692 0.99444 0.0
C1675 C 0.05787 0.08837 0.00669 0.0
C1676 C 0.00441 0.19452 0.94051 0.0
C1677 C 0.00891 0.18128 0.95245 0.0
C1678 C 0.04125 0.14331 0.9567 0.0
C1679 C 0.03993 0.11431 0.99816 0.0
C1680 C 0.03788 0.13039 0.98679 0.0
C1681 C 0.02714 0.17422 0.95193 0.0
C1682 C 0.03156 0.15956 0.9642 0.0
H1683 H 0.0139 0.08732 0.02742 0.0
H1684 H 0.01156 0.11518 0.01055 0.0
H1685 H 0.05125 0.11624 0.96136 0.0
H1686 H 0.04725 0.199 0.91779 0.0
H1687 H 0.05508 0.17591 0.93867 0.0
C1688 C 0.35679 0.28987 0.28984 0.0
C1689 C 0.35635 0.30873 0.30075 0.0
C1690 C 0.37028 0.28657 0.27549 0.0
C1691 C 0.40445 0.31113 0.24445 0.0
H1692 H 0.42799 0.26248 0.2414 0.0
C1693 C 0.4681 0.28971 0.19392 0.0
C1694 C 0.46624 0.26993 0.18464 0.0
C1695 C 0.45497 0.29614 0.20795 0.0
C1696 C 0.42147 0.27608 0.24195 0.0
H1697 H 0.36955 0.33904 0.30474 0.0
H1698 H 0.3932 0.33326 0.27966 0.0
H1699 H 0.40451 0.27037 0.26584 0.0
H1700 H 0.44836 0.24176 0.18223 0.0
H1701 H 0.42582 0.25293 0.20631 0.0
H1702 H 0.42163 0.3167 0.2204 0.0
C1703 C 0.38296 0.32105 0.28213 0.0
C1704 C 0.40793 0.28059 0.25595 0.0
C1705 C 0.36939 0.32436 0.29651 0.0
C1706 C 0.45056 0.25702 0.18923 0.0
C1707 C 0.43759 0.2634 0.20315 0.0
C1708 C 0.41811 0.3066 0.23038 0.0
C1709 C 0.38379 0.30202 0.27166 0.0
C1710 C 0.39896 0.29798 0.25721 0.0
C1711 C 0.4398 0.28289 0.21299 0.0
C1712 C 0.4265 0.28883 0.22876 0.0
H1713 H 0.34671 0.27758 0.29244 0.0
H1714 H 0.37015 0.27183 0.26741 0.0
H1715 H 0.3978 0.32463 0.24497 0.0
H1716 H 0.47994 0.30006 0.19072 0.0
H1717 H 0.45703 0.31128 0.21527 0.0
C1718 C 0.54646 0.44427 0.05576 0.0
C1719 C 0.53748 0.44152 0.03747 0.0
C1720 C 0.5457 0.42862 0.06621 0.0
C1721 C 0.53341 0.37392 0.0613 0.0
H1722 H 0.52424 0.38576 0.11586 0.0
C1723 C 0.50628 0.3133 0.10494 0.0
C1724 C 0.51573 0.31372 0.12277 0.0
C1725 C 0.50957 0.32921 0.09499 0.0
C1726 C 0.52696 0.38223 0.10067 0.0
H1727 H 0.52085 0.42064 0.01555 0.0
H1728 H 0.51924 0.39344 0.03369 0.0
H1729 H 0.52998 0.41262 0.0974 0.0
H1730 H 0.53559 0.33147 0.1444 0.0
H1731 H 0.54112 0.35935 0.12713 0.0
H1732 H 0.52993 0.34351 0.06454 0.0
C1733 C 0.52728 0.40735 0.03997 0.0
C1734 C 0.53036 0.39764 0.09007 0.0
C1735 C 0.52814 0.42294 0.02955 0.0
C1736 C 0.52805 0.33069 0.13071 0.0
C1737 C 0.5312 0.34669 0.12084 0.0
C1738 C 0.52985 0.35854 0.07186 0.0
C1739 C 0.53579 0.41002 0.05859 0.0
C1740 C 0.53347 0.3937 0.07018 0.0
C1741 C 0.52225 0.346 0.10271 0.0
C1742 C 0.52642 0.36248 0.09164 0.0
H1743 H 0.55359 0.4586 0.06217 0.0
H1744 H 0.55266 0.43119 0.08036 0.0
H1745 H 0.53613 0.37027 0.04613 0.0
H1746 H 0.49672 0.30046 0.0984 0.0
H1747 H 0.50223 0.32833 0.08119 0.0
C1748 C 0.67718 0.22538 0.26122 0.0
C1749 C 0.67661 0.20863 0.27004 0.0
C1750 C 0.66016 0.23068 0.25367 0.0
C1751 C 0.61227 0.20792 0.23407 0.0
H1752 H 0.60124 0.26188 0.2357 0.0
C1753 C 0.54276 0.22533 0.19832 0.0
C1754 C 0.54457 0.24094 0.18774 0.0
C1755 C 0.55789 0.22254 0.21048 0.0
C1756 C 0.60419 0.24674 0.23498 0.0
H1757 H 0.6582 0.18451 0.27856 0.0
H1758 H 0.62832 0.19379 0.2656 0.0
H1759 H 0.62946 0.25513 0.2535 0.0
H1760 H 0.56368 0.26619 0.18212 0.0
H1761 H 0.59016 0.26111 0.20305 0.0
H1762 H 0.5874 0.19947 0.21523 0.0
C1763 C 0.64183 0.2028 0.26429 0.0
C1764 C 0.62034 0.24288 0.24522 0.0
C1765 C 0.65885 0.19756 0.27185 0.0
C1766 C 0.56172 0.25403 0.19007 0.0
C1767 C 0.5769 0.25117 0.20217 0.0
C1768 C 0.5962 0.21177 0.2238 0.0
C1769 C 0.64233 0.21917 0.25474 0.0
C1770 C 0.62463 0.22341 0.2448 0.0
C1771 C 0.57529 0.23521 0.21231 0.0
C1772 C 0.59199 0.23123 0.22402 0.0
H1773 H 0.69085 0.23398 0.25955 0.0
H1774 H 0.6611 0.24324 0.24625 0.0
H1775 H 0.61534 0.19278 0.2331 0.0
H1776 H 0.52973 0.21502 0.19704 0.0
H1777 H 0.55597 0.21031 0.21835 0.0
C1778 C 0.51986 0.08058 0.0153 0.0
C1779 C 0.50108 0.07365 0.0078 0.0
C1780 C 0.52423 0.10004 0.02474 0.0
C1781 C 0.50568 0.1493 0.03363 0.0
H1782 H 0.53563 0.15572 0.08141 0.0
C1783 C 0.50269 0.21554 0.09448 0.0
C1784 C 0.51894 0.22195 0.10678 0.0
C1785 C 0.50286 0.19926 0.07986 0.0
C1786 C 0.52746 0.15433 0.068 0.0
H1787 H 0.47248 0.08219 0.00335 0.0
H1788 H 0.47991 0.11587 0.02018 0.0
H1789 H 0.53138 0.12383 0.06061 0.0
H1790 H 0.54878 0.218 0.11233 0.0
H1791 H 0.54921 0.18941 0.08677 0.0
H1792 H 0.50131 0.17971 0.04134 0.0
C1793 C 0.49136 0.10636 0.01868 0.0
C1794 C 0.52507 0.13598 0.05599 0.0
C1795 C 0.48702 0.08693 0.00921 0.0
C1796 C 0.53591 0.21289 0.10331 0.0
C1797 C 0.53608 0.19651 0.08873 0.0
C1798 C 0.508 0.16765 0.0457 0.0
C1799 C 0.50992 0.11307 0.02694 0.0
C1800 C 0.51389 0.13311 0.03878 0.0
C1801 C 0.51938 0.18916 0.07713 0.0
C1802 C 0.51862 0.17032 0.06323 0.0
H1803 H 0.53103 0.07075 0.0146 0.0
H1804 H 0.53876 0.10477 0.03064 0.0
H1805 H 0.49729 0.14776 0.02031 0.0
H1806 H 0.48965 0.22278 0.09654 0.0
H1807 H 0.48969 0.19406 0.07134 0.0
C1808 C 0.26974 0.36595 0.69521 0.0
C1809 C 0.25911 0.35965 0.71032 0.0
C1810 C 0.2855 0.38057 0.69908 0.0
C1811 C 0.32095 0.40428 0.73747 0.0
H1812 H 0.32555 0.44819 0.70942 0.0
C1813 C 0.37219 0.47433 0.76442 0.0
C1814 C 0.38217 0.484 0.75093 0.0
C1815 C 0.35774 0.45883 0.75844 0.0
C1816 C 0.32469 0.43589 0.71719 0.0
H1817 H 0.25689 0.36341 0.7413 0.0
H1818 H 0.28429 0.38892 0.74804 0.0
H1819 H 0.29964 0.42127 0.70062 0.0
H1820 H 0.38433 0.48608 0.72078 0.0
H1821 H 0.35941 0.45837 0.71005 0.0
H1822 H 0.34574 0.41876 0.75415 0.0
C1823 C 0.28051 0.38255 0.73322 0.0
C1824 C 0.30981 0.42048 0.71216 0.0
C1825 C 0.2647 0.36808 0.72935 0.0
C1826 C 0.37697 0.47852 0.73137 0.0
C1827 C 0.36264 0.46278 0.7253 0.0
C1828 C 0.33582 0.4196 0.74245 0.0
C1829 C 0.29105 0.38901 0.71814 0.0
C1830 C 0.30762 0.40466 0.72244 0.0
C1831 C 0.35293 0.45263 0.73878 0.0
C1832 C 0.33775 0.43576 0.73257 0.0
H1833 H 0.26566 0.35981 0.68039 0.0
H1834 H 0.29343 0.38518 0.68717 0.0
H1835 H 0.31984 0.39212 0.74545 0.0
H1836 H 0.37554 0.47881 0.77966 0.0
H1837 H 0.35024 0.45182 0.76931 0.0
C1838 C 0.27561 0.66753 0.79739 0.0
C1839 C 0.26294 0.66812 0.81272 0.0
C1840 C 0.29084 0.65584 0.7964 0.0
C1841 C 0.31918 0.62745 0.82556 0.0
H1842 H 0.33457 0.60396 0.77511 0.0
C1843 C 0.36973 0.56469 0.80907 0.0
C1844 C 0.38448 0.56809 0.79617 0.0
C1845 C 0.35576 0.57784 0.81296 0.0
C1846 C 0.3305 0.61054 0.78929 0.0
H1847 H 0.25612 0.65693 0.83901 0.0
H1848 H 0.28218 0.63574 0.83693 0.0
H1849 H 0.30797 0.6242 0.7778 0.0
H1850 H 0.39658 0.58833 0.77785 0.0
H1851 H 0.37201 0.61096 0.78435 0.0
H1852 H 0.34143 0.61286 0.83687 0.0
C1853 C 0.28082 0.64475 0.82592 0.0
C1854 C 0.31531 0.62227 0.79088 0.0
C1855 C 0.26578 0.65677 0.82708 0.0
C1856 C 0.38542 0.58527 0.78786 0.0
C1857 C 0.37131 0.59819 0.79148 0.0
C1858 C 0.33419 0.61535 0.82394 0.0
C1859 C 0.29358 0.64409 0.81053 0.0
C1860 C 0.30953 0.63111 0.80902 0.0
C1861 C 0.35614 0.5944 0.80375 0.0
C1862 C 0.3401 0.60698 0.80578 0.0
H1863 H 0.2739 0.67639 0.78629 0.0
H1864 H 0.30059 0.65623 0.7846 0.0
H1865 H 0.31541 0.63417 0.83977 0.0
H1866 H 0.36863 0.55158 0.8157 0.0
H1867 H 0.34417 0.57459 0.82245 0.0
C1868 C 0.93871 0.52107 0.50495 0.0
C1869 C 0.95634 0.51374 0.50796 0.0
C1870 C 0.92122 0.51093 0.50924 0.0
C1871 C 0.90014 0.46117 0.51715 0.0
H1872 H 0.85558 0.48875 0.53173 0.0
C1873 C 0.8254 0.42032 0.52996 0.0
C1874 C 0.81064 0.42479 0.51815 0.0
C1875 C 0.84326 0.43211 0.53234 0.0
C1876 C 0.86795 0.48088 0.52776 0.0
H1877 H 0.96964 0.49056 0.51856 0.0
H1878 H 0.93925 0.4732 0.52675 0.0
H1879 H 0.88698 0.50757 0.52934 0.0
H1880 H 0.80254 0.44565 0.5005 0.0
H1881 H 0.83344 0.46646 0.50508 0.0
H1882 H 0.88097 0.43449 0.51571 0.0
C1883 C 0.93875 0.48641 0.52047 0.0
C1884 C 0.88593 0.49163 0.52622 0.0
C1885 C 0.95621 0.49639 0.51588 0.0
C1886 C 0.81369 0.44181 0.50964 0.0
C1887 C 0.83133 0.45378 0.51233 0.0
C1888 C 0.88223 0.45044 0.51901 0.0
C1889 C 0.92096 0.49336 0.51695 0.0
C1890 C 0.90221 0.48194 0.52045 0.0
C1891 C 0.84646 0.4488 0.52331 0.0
C1892 C 0.86587 0.46019 0.52393 0.0
H1893 H 0.9384 0.53432 0.49869 0.0
H1894 H 0.90789 0.51661 0.50595 0.0
H1895 H 0.91216 0.4531 0.51238 0.0
H1896 H 0.82348 0.40721 0.53659 0.0
H1897 H 0.8547 0.42799 0.54092 0.0
C1898 C 0.76706 0.85258 0.79359 0.0
C1899 C 0.78241 0.85691 0.80722 0.0
C1900 C 0.7579 0.86779 0.7878 0.0
C1901 C 0.74895 0.91917 0.80573 0.0
H1902 H 0.72789 0.91682 0.75415 0.0
C1903 C 0.70967 0.98217 0.78351 0.0
C1904 C 0.69309 0.97667 0.77139 0.0
C1905 C 0.72143 0.96802 0.78745 0.0
C1906 C 0.73352 0.91761 0.76868 0.0
H1907 H 0.80071 0.88023 0.82522 0.0
H1908 H 0.78505 0.90697 0.81484 0.0
H1909 H 0.74774 0.89162 0.76091 0.0
H1910 H 0.67575 0.9519 0.7541 0.0
H1911 H 0.6961 0.92724 0.76113 0.0
H1912 H 0.73459 0.94504 0.81356 0.0
C1913 C 0.77987 0.89187 0.80872 0.0
C1914 C 0.74494 0.90317 0.77254 0.0
C1915 C 0.789 0.87663 0.81449 0.0
C1916 C 0.68843 0.95666 0.76347 0.0
C1917 C 0.7002 0.94253 0.76738 0.0
C1918 C 0.73755 0.93362 0.80187 0.0
C1919 C 0.76388 0.88764 0.79565 0.0
C1920 C 0.7527 0.90366 0.79116 0.0
C1921 C 0.71692 0.94803 0.77934 0.0
C1922 C 0.72955 0.93295 0.78332 0.0
H1923 H 0.76156 0.83741 0.78806 0.0
H1924 H 0.74552 0.86393 0.7779 0.0
H1925 H 0.75436 0.91986 0.82032 0.0
H1926 H 0.71372 0.99747 0.78979 0.0
H1927 H 0.73428 0.97283 0.79657 0.0
C1928 C 0.60497 0.49902 0.00585 0.0
C1929 C 0.59022 0.50959 1.00037 0.0
C1930 C 0.6243 0.50767 0.00767 0.0
C1931 C 0.65579 0.54434 0.98777 0.0
H1932 H 0.69031 0.54853 0.03219 0.0
C1933 C 0.73227 0.58504 0.98826 0.0
C1934 C 0.73826 0.59802 0.00522 0.0
C1935 C 0.71613 0.57103 0.98806 0.0
C1936 C 0.68085 0.54748 0.01966 0.0
H1937 H 0.58404 0.53803 0.99417 0.0
H1938 H 0.61749 0.55276 0.99691 0.0
H1939 H 0.65788 0.53046 0.03182 0.0
H1940 H 0.73335 0.60559 0.0356 0.0
H1941 H 0.70458 0.58182 0.03519 0.0
H1942 H 0.67823 0.56133 0.97559 0.0
C1943 C 0.61425 0.53774 0.99945 0.0
C1944 C 0.66237 0.53698 0.01941 0.0
C1945 C 0.59508 0.52925 0.99782 0.0
C1946 C 0.72866 0.59597 0.02225 0.0
C1947 C 0.71233 0.58218 0.02202 0.0
C1948 C 0.67423 0.55456 0.98791 0.0
C1949 C 0.62912 0.52693 0.00392 0.0
C1950 C 0.64951 0.53579 0.00364 0.0
C1951 C 0.70559 0.56977 0.00482 0.0
C1952 C 0.68687 0.55676 0.00403 0.0
H1953 H 0.60167 0.48388 0.00798 0.0
H1954 H 0.63554 0.49907 0.01122 0.0
H1955 H 0.64624 0.54345 0.97531 0.0
H1956 H 0.73996 0.58586 0.97512 0.0
H1957 H 0.71174 0.56142 0.97464 0.0
C1958 C 0.30205 0.66487 0.18845 0.0
C1959 C 0.31173 0.67709 0.20438 0.0
C1960 C 0.28578 0.65179 0.19098 0.0
C1961 C 0.24957 0.63996 0.2273 0.0
H1962 H 0.24736 0.58672 0.19902 0.0
C1963 C 0.20642 0.57423 0.25344 0.0
C1964 C 0.19541 0.56028 0.23975 0.0
C1965 C 0.21918 0.58902 0.24767 0.0
C1966 C 0.24762 0.60158 0.20687 0.0
H1967 H 0.31121 0.68609 0.23528 0.0
H1968 H 0.28344 0.66311 0.23977 0.0
H1969 H 0.27149 0.61229 0.19116 0.0
H1970 H 0.18998 0.54977 0.20935 0.0
H1971 H 0.21227 0.57582 0.1991 0.0
H1972 H 0.22644 0.62904 0.24363 0.0
C1973 C 0.28813 0.6636 0.22527 0.0
C1974 C 0.26141 0.61629 0.20231 0.0
C1975 C 0.30425 0.67665 0.22273 0.0
C1976 C 0.19806 0.5607 0.22014 0.0
C1977 C 0.21085 0.57551 0.21432 0.0
C1978 C 0.23602 0.62523 0.232 0.0
C1979 C 0.27885 0.65072 0.20949 0.0
C1980 C 0.26279 0.6356 0.21272 0.0
C1981 C 0.22144 0.58995 0.22803 0.0
C1982 C 0.23503 0.60581 0.22204 0.0
H1983 H 0.3075 0.66485 0.17413 0.0
H1984 H 0.27883 0.6423 0.17847 0.0
H1985 H 0.24988 0.65473 0.23536 0.0
H1986 H 0.20517 0.57367 0.26864 0.0
H1987 H 0.22745 0.59961 0.2586 0.0
C1988 C 0.94871 0.51896 0.00663 0.0
C1989 C 0.9623 0.52696 0.02145 0.0
C1990 C 0.93186 0.5279 0.00452 0.0
C1991 C 0.90098 0.56372 0.03032 0.0
H1992 H 0.88437 0.56902 0.9789 0.0
C1993 C 0.84463 0.61574 0.01757 0.0
C1994 C 0.8302 0.60878 0.00318 0.0
C1995 C 0.86051 0.60533 0.01934 0.0
C1996 C 0.88868 0.56748 0.99334 0.0
H1997 H 0.96926 0.55027 0.04574 0.0
H1998 H 0.93992 0.56604 0.0421 0.0
H1999 H 0.912 0.55109 0.98329 0.0
H2000 H 0.82139 0.58562 0.97907 0.0
H2001 H 0.84917 0.5674 0.98216 0.0
H2002 H 0.8778 0.58026 0.04039 0.0
C2003 C 0.94196 0.55273 0.03225 0.0
C2004 C 0.90451 0.55715 0.99587 0.0
C2005 C 0.95878 0.54377 0.03433 0.0
C2006 C 0.83228 0.59141 0.99027 0.0
C2007 C 0.84823 0.58099 0.99202 0.0
C2008 C 0.8852 0.57406 0.0278 0.0
C2009 C 0.92836 0.54504 0.01718 0.0
C2010 C 0.91096 0.55526 0.01441 0.0
C2011 C 0.86241 0.58769 0.00676 0.0
C2012 C 0.87894 0.57622 0.00929 0.0
H2013 H 0.95129 0.50602 0.99648 0.0
H2014 H 0.92161 0.52143 0.99291 0.0
H2015 H 0.9053 0.56227 0.04478 0.0
H2016 H 0.84352 0.62911 0.02772 0.0
H2017 H 0.87133 0.61112 0.03062 0.0
C2018 C 0.11072 0.02363 0.04357 0.0
C2019 C 0.09691 0.01797 0.05661 0.0
C2020 C 0.12675 0.0132 0.03953 0.0
C2021 C 0.15683 0.9794 0.05829 0.0
H2022 H 0.16856 0.96337 0.00484 0.0
C2023 C 0.21025 0.92199 0.03483 0.0
C2024 C 0.22175 0.92434 0.01895 0.0
C2025 C 0.19571 0.9342 0.03992 0.0
C2026 C 0.16575 0.96797 0.01987 0.0
H2027 H 0.08929 0.99667 0.07549 0.0
H2028 H 0.11742 0.97894 0.06879 0.0
H2029 H 0.14248 0.98377 0.01296 0.0
H2030 H 0.22727 0.94182 0.9963 0.0
H2031 H 0.20242 0.96335 0.00546 0.0
H2032 H 0.18019 0.96382 0.06528 0.0
C2033 C 0.11589 0.99154 0.06182 0.0
C2034 C 0.15074 0.97965 0.0245 0.0
C2035 C 0.09978 1.00181 0.06572 0.0
C2036 C 0.21858 0.93943 0.00851 0.0
C2037 C 0.2042 0.95174 0.01371 0.0
C2038 C 0.17198 0.96788 0.05368 0.0
C2039 C 0.12946 0.997 0.04856 0.0
C2040 C 0.14602 0.98538 0.04375 0.0
C2041 C 0.19242 0.94919 0.02936 0.0
C2042 C 0.17658 0.96189 0.03439 0.0
H2043 H 0.10918 0.03614 0.03648 0.0
H2044 H 0.13709 0.01788 0.02938 0.0
H2045 H 0.15366 0.98377 0.07328 0.0
H2046 H 0.2122 0.91046 0.04313 0.0
H2047 H 0.18677 0.93158 0.05189 0.0
loop_
_geom_bond_atom_site_label_1
_geom_bond_atom_site_label_2
_geom_bond_distance
_geom_bond_site_symmetry_2
_ccdc_geom_bond_type
H0 C3 0.929 . S
H1 C6 0.929 . S
H2 C8 0.930 . S
C3 H0 0.929 . S
C3 C4 1.398 . S
C3 C5 1.396 . S
C4 C3 1.398 . S
C4 C8 1.407 . S
C5 C3 1.396 . S
C5 C6 1.394 . S
C6 H1 0.929 . S
C6 C5 1.394 . S
C6 C7 1.382 . S
C7 C6 1.382 . S
C7 C8 1.392 . S
C7 N9 1.420 . S
C8 H2 0.930 . S
C8 C4 1.407 . S
C8 C7 1.392 . S
N9 C7 1.420 . S
N9 C10 1.244 . S
C10 N9 1.244 . S
H11 C14 0.929 . S
H12 C17 0.929 . S
H13 C19 0.930 . S
C14 H11 0.929 . S
C14 C15 1.398 . S
C14 C16 1.396 . S
C15 C14 1.398 . S
C15 C19 1.407 . S
C16 C14 1.396 . S
C16 C17 1.394 . S
C17 H12 0.929 . S
C17 C16 1.394 . S
C17 C18 1.382 . S
C18 C17 1.382 . S
C18 C19 1.392 . S
C18 N20 1.420 . S
C19 H13 0.930 . S
C19 C15 1.407 . S
C19 C18 1.392 . S
N20 C18 1.420 . S
N20 C21 1.244 . S
C21 N20 1.244 . S
H22 C25 0.929 . S
H23 C28 0.929 . S
H24 C30 0.930 . S
C25 H22 0.929 . S
C25 C26 1.398 1_455 S
C25 C27 1.396 . S
C26 C25 1.398 1_655 S
C26 C30 1.407 . S
C27 C25 1.396 . S
C27 C28 1.394 1_455 S
C28 H23 0.929 . S
C28 C27 1.394 1_655 S
C28 C29 1.382 . S
C29 C28 1.382 . S
C29 C30 1.392 . S
C29 N31 1.420 . S
C30 H24 0.930 . S
C30 C26 1.407 . S
C30 C29 1.392 . S
N31 C29 1.420 . S
N31 C32 1.244 . S
C32 N31 1.244 . S
H33 C36 0.929 . S
H34 C39 0.929 . S
H35 C41 0.930 . S
C36 H33 0.929 . S
C36 C37 1.398 . S
C36 C38 1.396 . S
C37 C36 1.398 . S
C37 C41 1.407 . S
C38 C36 1.396 . S
C38 C39 1.394 . S
C39 H34 0.929 . S
C39 C38 1.394 . S
C39 C40 1.382 . S
C40 C39 1.382 . S
C40 C41 1.392 . S
C40 N42 1.420 . S
C41 H35 0.930 . S
C41 C37 1.407 . S
C41 C40 1.392 . S
N42 C40 1.420 . S
N42 C43 1.244 . S
C43 N42 1.244 . S
H44 C47 0.956 . S
H45 C50 0.929 . S
H46 C52 0.930 . S
C47 H44 0.956 . S
C47 C48 1.398 . S
C47 C49 1.396 . S
C48 C47 1.398 . S
C48 C52 1.407 . S
C49 C47 1.396 . S
C49 C50 1.394 . S
C50 H45 0.929 . S
C50 C49 1.394 . S
C50 C51 1.382 . S
C51 C50 1.382 . S
C51 C52 1.392 . S
C51 N53 1.420 . S
C52 H46 0.930 . S
C52 C48 1.407 . S
C52 C51 1.392 . S
N53 C51 1.420 . S
N53 C54 1.244 . S
C54 N53 1.244 . S
H55 C58 0.929 . S
H56 C61 0.929 . S
H57 C63 0.930 . S
C58 H55 0.929 . S
C58 C59 1.398 . S
C58 C60 1.396 . S
C59 C58 1.398 . S
C59 C63 1.407 . S
C60 C58 1.396 . S
C60 C61 1.394 . S
C61 H56 0.929 . S
C61 C60 1.394 . S
C61 C62 1.382 . S
C62 C61 1.382 . S
C62 C63 1.392 . S
C62 N64 1.420 . S
C63 H57 0.930 . S
C63 C59 1.407 . S
C63 C62 1.392 . S
N64 C62 1.420 . S
N64 C65 1.244 . S
C65 N64 1.244 . S
H66 C69 0.929 . S
H67 C72 0.929 . S
H68 C74 0.930 . S
C69 H66 0.929 . S
C69 C70 1.398 . S
C69 C71 1.396 . S
C70 C69 1.398 . S
C70 C74 1.407 . S
C71 C69 1.396 . S
C71 C72 1.394 1_655 S
C72 H67 0.929 . S
C72 C71 1.394 1_455 S
C72 C73 1.382 . S
C73 C72 1.382 . S
C73 C74 1.388 1_455 S
C73 N75 1.424 . S
C74 H68 0.930 . S
C74 C70 1.407 . S
C74 C73 1.388 1_655 S
N75 C73 1.424 . S
N75 C76 1.244 . S
C76 N75 1.244 . S
H77 C80 0.929 . S
H78 C83 0.929 . S
H79 C85 0.930 . S
C80 H77 0.929 . S
C80 C81 1.398 . S
C80 C82 1.396 . S
C81 C80 1.398 . S
C81 C85 1.407 . S
C82 C80 1.396 . S
C82 C83 1.394 . S
C83 H78 0.929 . S
C83 C82 1.394 . S
C83 C84 1.382 . S
C84 C83 1.382 . S
C84 C85 1.392 . S
C84 N86 1.420 . S
C85 H79 0.930 . S
C85 C81 1.407 . S
C85 C84 1.392 . S
N86 C84 1.420 . S
N86 C87 1.244 . S
C87 N86 1.244 . S
H88 C91 0.929 . S
H89 C94 0.929 . S
H90 C96 0.930 . S
C91 H88 0.929 . S
C91 C92 1.398 . S
C91 C93 1.396 . S
C92 C91 1.398 . S
C92 C96 1.407 . S
C93 C91 1.396 . S
C93 C94 1.394 . S
C94 H89 0.929 . S
C94 C93 1.394 . S
C94 C95 1.382 . S
C95 C94 1.382 . S
C95 C96 1.392 . S
C95 N97 1.420 . S
C96 H90 0.930 . S
C96 C92 1.407 . S
C96 C95 1.392 . S
N97 C95 1.420 . S
N97 C98 1.244 . S
C98 N97 1.244 . S
H99 C102 0.929 . S
H100 C105 0.929 1_545 S
H101 C107 0.930 . S
C102 H99 0.929 . S
C102 C103 1.398 . S
C102 C104 1.396 . S
C103 C102 1.398 . S
C103 C107 1.407 . S
C104 C102 1.396 . S
C104 C105 1.394 . S
C105 H100 0.929 1_565 S
C105 C104 1.394 . S
C105 C106 1.382 . S
C106 C105 1.382 . S
C106 C107 1.392 . S
C106 N108 1.420 1_565 S
C107 H101 0.930 . S
C107 C103 1.407 . S
C107 C106 1.392 . S
N108 C106 1.420 1_545 S
N108 C109 1.244 . S
C109 N108 1.244 . S
H110 C113 0.929 . S
H111 C116 0.929 . S
H112 C118 0.930 . S
C113 H110 0.929 . S
C113 C114 1.398 . S
C113 C115 1.396 . S
C114 C113 1.398 . S
C114 C118 1.407 . S
C115 C113 1.396 . S
C115 C116 1.394 . S
C116 H111 0.929 . S
C116 C115 1.394 . S
C116 C117 1.382 . S
C117 C116 1.382 . S
C117 C118 1.392 . S
C117 N119 1.420 . S
C118 H112 0.930 . S
C118 C114 1.407 . S
C118 C117 1.392 . S
N119 C117 1.420 . S
N119 C120 1.244 . S
C120 N119 1.244 . S
H121 C124 0.929 . S
H122 C127 0.929 . S
H123 C129 0.930 . S
C124 H121 0.929 . S
C124 C125 1.398 . S
C124 C126 1.396 . S
C125 C124 1.398 . S
C125 C129 1.407 . S
C126 C124 1.396 . S
C126 C127 1.394 . S
C127 H122 0.929 . S
C127 C126 1.394 . S
C127 C128 1.382 . S
C128 C127 1.382 . S
C128 C129 1.392 . S
C128 N130 1.420 . S
C129 H123 0.930 . S
C129 C125 1.407 . S
C129 C128 1.392 . S
N130 C128 1.420 . S
N130 C131 1.244 . S
C131 N130 1.244 . S
H132 C135 0.929 . S
H133 C138 0.929 . S
H134 C140 0.930 . S
C135 H132 0.929 . S
C135 C136 1.398 . S
C135 C137 1.396 . S
C136 C135 1.398 . S
C136 C140 1.407 . S
C137 C135 1.396 . S
C137 C138 1.394 . S
C138 H133 0.929 . S
C138 C137 1.394 . S
C138 C139 1.382 . S
C139 C138 1.382 . S
C139 C140 1.392 . S
C139 N141 1.420 . S
C140 H134 0.930 . S
C140 C136 1.407 . S
C140 C139 1.392 . S
N141 C139 1.420 . S
N141 C142 1.244 . S
C142 N141 1.244 . S
H143 C146 0.929 . S
H144 C149 0.929 . S
H145 C151 0.930 . S
C146 H143 0.929 . S
C146 C147 1.398 . S
C146 C148 1.396 . S
C147 C146 1.398 . S
C147 C151 1.407 . S
C148 C146 1.396 . S
C148 C149 1.394 1_556 S
C149 H144 0.929 . S
C149 C148 1.394 1_554 S
C149 C150 1.382 1_554 S
C150 C149 1.382 1_556 S
C150 C151 1.392 . S
C150 N152 1.420 1_556 S
C151 H145 0.930 . S
C151 C147 1.407 . S
C151 C150 1.392 . S
N152 C150 1.420 1_554 S
N152 C153 1.244 . S
C153 N152 1.244 . S
H154 C157 0.929 . S
H155 C160 0.929 . S
H156 C162 0.930 . S
C157 H154 0.929 . S
C157 C158 1.398 . S
C157 C159 1.396 . S
C158 C157 1.398 . S
C158 C162 1.407 . S
C159 C157 1.396 . S
C159 C160 1.394 . S
C160 H155 0.929 . S
C160 C159 1.394 . S
C160 C161 1.382 . S
C161 C160 1.382 . S
C161 C162 1.392 . S
C161 N163 1.420 . S
C162 H156 0.930 . S
C162 C158 1.407 . S
C162 C161 1.392 . S
N163 C161 1.420 . S
N163 C164 1.244 . S
C164 N163 1.244 . S
H165 C168 0.926 . S
H166 C171 0.929 . S
H167 C173 0.930 . S
C168 H165 0.926 . S
C168 C169 1.398 . S
C168 C170 1.396 . S
C169 C168 1.398 . S
C169 C173 1.407 . S
C170 C168 1.396 . S
C170 C171 1.394 . S
C171 H166 0.929 . S
C171 C170 1.394 . S
C171 C172 1.382 . S
C172 C171 1.382 . S
C172 C173 1.392 . S
C172 N174 1.420 . S
C173 H167 0.930 . S
C173 C169 1.407 . S
C173 C172 1.392 . S
N174 C172 1.420 . S
N174 C175 1.244 . S
C175 N174 1.244 . S
Mn176 O181 2.095 . S
Mn176 O191 2.162 . S
Mn176 O192 2.297 . S
Mn176 O200 2.385 . S
Mn176 O201 2.209 . S
Mn176 O202 2.094 . S
Mn177 O182 2.121 . S
Mn177 N184 2.257 1_554 S
Mn177 N193 2.282 1_554 S
Mn177 O201 2.215 . S
Mn177 O203 2.117 . S
C178 O200 1.234 . S
C178 O201 1.283 . S
C179 O191 1.281 . S
C179 O192 1.236 . S
C180 O202 1.240 . S
C180 O203 1.264 . S
O181 Mn176 2.095 . S
O181 C190 1.250 . S
O182 Mn177 2.121 . S
O182 C190 1.258 . S
C183 N184 1.326 . S
C183 C187 1.460 . S
C183 H189 0.929 . S
N184 Mn177 2.257 1_556 S
N184 C183 1.326 . S
N184 C188 1.362 . S
C185 C186 1.258 . S
C185 C188 1.431 . S
C185 C205 1.449 . S
C186 C185 1.258 . S
C186 C187 1.477 . S
C186 H206 0.931 . S
C187 C183 1.460 . S
C187 C186 1.477 . S
C187 H207 0.930 . S
C188 N184 1.362 . S
C188 C185 1.431 . S
C188 C198 1.476 . S
H189 C183 0.929 . S
C190 O181 1.250 . S
C190 O182 1.258 . S
O191 Mn176 2.162 . S
O191 C179 1.281 . S
O192 Mn176 2.297 . S
O192 C179 1.236 . S
N193 Mn177 2.282 1_556 S
N193 C194 1.328 . S
N193 C198 1.318 . S
C194 N193 1.328 . S
C194 C195 1.457 . S
C194 H199 0.929 1_556 S
C195 C194 1.457 . S
C195 C196 1.291 . S
C195 H208 0.931 . S
C196 C195 1.291 . S
C196 C197 1.373 . S
C196 H209 0.929 . S
C197 C196 1.373 . S
C197 C198 1.396 . S
C197 C204 1.403 . S
C198 C188 1.476 . S
C198 N193 1.318 . S
C198 C197 1.396 . S
H199 C194 0.929 1_554 S
O200 Mn176 2.385 . S
O200 C178 1.234 . S
O201 Mn176 2.209 . S
O201 Mn177 2.215 . S
O201 C178 1.283 . S
O202 Mn176 2.094 . S
O202 C180 1.240 . S
O203 Mn177 2.117 . S
O203 C180 1.264 . S
C204 C197 1.403 . S
C204 C205 1.399 . S
C204 H210 0.929 . S
C205 C185 1.449 . S
C205 C204 1.399 . S
C205 H211 0.930 . S
H206 C186 0.931 . S
H207 C187 0.930 . S
H208 C195 0.931 . S
H209 C196 0.929 . S
H210 C204 0.929 . S
H211 C205 0.930 . S
Mn212 O217 2.095 . S
Mn212 O227 2.162 . S
Mn212 O228 2.297 . S
Mn212 O236 2.385 . S
Mn212 O237 2.209 . S
Mn212 O238 2.094 . S
Mn213 O218 2.121 . S
Mn213 N220 2.257 . S
Mn213 N229 2.282 . S
Mn213 O237 2.215 . S
Mn213 O239 2.117 . S
C214 O236 1.234 . S
C214 O237 1.283 . S
C215 O227 1.281 . S
C215 O228 1.236 . S
C216 O238 1.240 . S
C216 O239 1.264 . S
O217 Mn212 2.095 . S
O217 C226 1.250 . S
O218 Mn213 2.121 . S
O218 C226 1.258 . S
C219 N220 1.326 . S
C219 C223 1.460 . S
C219 H225 0.929 . S
N220 Mn213 2.257 . S
N220 C219 1.326 . S
N220 C224 1.362 . S
C221 C222 1.258 . S
C221 C224 1.431 . S
C221 C241 1.449 . S
C222 C221 1.258 . S
C222 C223 1.477 . S
C222 H242 0.931 . S
C223 C219 1.460 . S
C223 C222 1.477 . S
C223 H243 0.930 . S
C224 N220 1.362 . S
C224 C221 1.431 . S
C224 C234 1.476 . S
H225 C219 0.929 . S
C226 O217 1.250 . S
C226 O218 1.258 . S
O227 Mn212 2.162 . S
O227 C215 1.281 . S
O228 Mn212 2.297 . S
O228 C215 1.236 . S
N229 Mn213 2.282 . S
N229 C230 1.328 . S
N229 C234 1.318 . S
C230 N229 1.328 . S
C230 C231 1.457 . S
C230 H235 0.929 . S
C231 C230 1.457 . S
C231 C232 1.291 . S
C231 H244 0.931 . S
C232 C231 1.291 . S
C232 C233 1.373 . S
C232 H245 0.929 . S
C233 C232 1.373 . S
C233 C234 1.396 . S
C233 C240 1.403 . S
C234 C224 1.476 . S
C234 N229 1.318 . S
C234 C233 1.396 . S
H235 C230 0.929 . S
O236 Mn212 2.385 . S
O236 C214 1.234 . S
O237 Mn212 2.209 . S
O237 Mn213 2.215 . S
O237 C214 1.283 . S
O238 Mn212 2.094 . S
O238 C216 1.240 . S
O239 Mn213 2.117 . S
O239 C216 1.264 . S
C240 C233 1.403 . S
C240 C241 1.399 . S
C240 H246 0.929 . S
C241 C221 1.449 . S
C241 C240 1.399 . S
C241 H247 0.930 . S
H242 C222 0.931 . S
H243 C223 0.930 . S
H244 C231 0.931 . S
H245 C232 0.929 . S
H246 C240 0.929 . S
H247 C241 0.930 . S
Mn248 O253 2.095 1_554 S
Mn248 O263 2.162 . S
Mn248 O264 2.297 1_554 S
Mn248 O272 2.385 . S
Mn248 O273 2.209 1_554 S
Mn248 O274 2.094 . S
Mn249 O254 2.121 . S
Mn249 N256 2.257 . S
Mn249 N265 2.282 1_556 S
Mn249 O273 2.215 . S
Mn249 O275 2.117 1_556 S
C250 O272 1.253 . S
C250 O273 1.267 1_554 S
C251 O263 1.312 . S
C251 O264 1.205 1_554 S
C252 O274 1.240 . S
C252 O275 1.264 . S
O253 Mn248 2.095 1_556 S
O253 C262 1.250 . S
O254 Mn249 2.121 . S
O254 C262 1.258 . S
C255 N256 1.326 . S
C255 C259 1.460 . S
C255 H261 0.929 . S
N256 Mn249 2.257 . S
N256 C255 1.326 . S
N256 C260 1.362 . S
C257 C258 1.258 . S
C257 C260 1.431 . S
C257 C277 1.449 . S
C258 C257 1.258 . S
C258 C259 1.477 . S
C258 H278 0.931 . S
C259 C255 1.460 . S
C259 C258 1.477 . S
C259 H279 0.930 . S
C260 N256 1.362 . S
C260 C257 1.431 . S
C260 C270 1.476 . S
H261 C255 0.929 . S
C262 O253 1.250 . S
C262 O254 1.258 . S
O263 Mn248 2.162 . S
O263 C251 1.312 . S
O264 Mn248 2.297 1_556 S
O264 C251 1.205 1_556 S
N265 Mn249 2.282 1_554 S
N265 C266 1.328 . S
N265 C270 1.318 1_554 S
C266 N265 1.328 . S
C266 C267 1.457 . S
C266 H271 0.929 . S
C267 C266 1.457 . S
C267 C268 1.291 . S
C267 H280 0.931 . S
C268 C267 1.291 . S
C268 C269 1.373 1_554 S
C268 H281 0.929 . S
C269 C268 1.373 1_556 S
C269 C270 1.396 . S
C269 C276 1.403 . S
C270 C260 1.476 . S
C270 N265 1.318 1_556 S
C270 C269 1.396 . S
H271 C266 0.929 . S
O272 Mn248 2.385 . S
O272 C250 1.253 . S
O273 Mn248 2.209 1_556 S
O273 Mn249 2.215 . S
O273 C250 1.267 1_556 S
O274 Mn248 2.094 . S
O274 C252 1.240 . S
O275 Mn249 2.117 1_554 S
O275 C252 1.264 . S
C276 C269 1.403 . S
C276 C277 1.399 . S
C276 H282 0.929 . S
C277 C257 1.449 . S
C277 C276 1.399 . S
C277 H283 0.930 . S
H278 C258 0.931 . S
H279 C259 0.930 . S
H280 C267 0.931 . S
H281 C268 0.929 . S
H282 C276 0.929 . S
H283 C277 0.930 . S
Mn284 O289 2.095 . S
Mn284 O299 2.162 . S
Mn284 O300 2.297 . S
Mn284 O308 2.385 . S
Mn284 O309 2.209 . S
Mn284 O310 2.094 . S
Mn285 O290 2.121 1_565 S
Mn285 N292 2.257 . S
Mn285 N301 2.282 . S
Mn285 O309 2.215 1_565 S
Mn285 O311 2.117 1_565 S
C286 O308 1.234 . S
C286 O309 1.283 . S
C287 O299 1.281 . S
C287 O300 1.236 . S
C288 O310 1.240 . S
C288 O311 1.264 . S
O289 Mn284 2.095 . S
O289 C298 1.250 . S
O290 Mn285 2.121 1_545 S
O290 C298 1.258 . S
C291 N292 1.326 . S
C291 C295 1.460 . S
C291 H297 0.929 . S
N292 Mn285 2.257 . S
N292 C291 1.326 . S
N292 C296 1.362 . S
C293 C294 1.258 . S
C293 C296 1.431 . S
C293 C313 1.449 . S
C294 C293 1.258 . S
C294 C295 1.477 . S
C294 H314 0.931 . S
C295 C291 1.460 . S
C295 C294 1.477 . S
C295 H315 0.930 . S
C296 N292 1.362 . S
C296 C293 1.431 . S
C296 C306 1.476 . S
H297 C291 0.929 . S
C298 O289 1.250 . S
C298 O290 1.258 . S
O299 Mn284 2.162 . S
O299 C287 1.281 . S
O300 Mn284 2.297 . S
O300 C287 1.236 . S
N301 Mn285 2.282 . S
N301 C302 1.328 . S
N301 C306 1.318 . S
C302 N301 1.328 . S
C302 C303 1.457 . S
C302 H307 0.929 . S
C303 C302 1.457 . S
C303 C304 1.291 . S
C303 H316 0.931 . S
C304 C303 1.291 . S
C304 C305 1.373 . S
C304 H317 0.929 . S
C305 C304 1.373 . S
C305 C306 1.396 . S
C305 C312 1.403 . S
C306 C296 1.476 . S
C306 N301 1.318 . S
C306 C305 1.396 . S
H307 C302 0.929 . S
O308 Mn284 2.385 . S
O308 C286 1.234 . S
O309 Mn284 2.209 . S
O309 Mn285 2.215 1_545 S
O309 C286 1.283 . S
O310 Mn284 2.094 . S
O310 C288 1.240 . S
O311 Mn285 2.117 1_545 S
O311 C288 1.264 . S
C312 C305 1.403 . S
C312 C313 1.399 . S
C312 H318 0.929 . S
C313 C293 1.449 . S
C313 C312 1.399 . S
C313 H319 0.930 . S
H314 C294 0.931 . S
H315 C295 0.930 . S
H316 C303 0.931 . S
H317 C304 0.929 . S
H318 C312 0.929 . S
H319 C313 0.930 . S
Mn320 O325 2.095 . S
Mn320 O335 2.162 . S
Mn320 O336 2.297 . S
Mn320 O344 2.385 . S
Mn320 O345 2.209 . S
Mn320 O346 2.094 . S
Mn321 O326 2.121 . S
Mn321 N328 2.257 . S
Mn321 N337 2.282 . S
Mn321 O345 2.215 . S
Mn321 O347 2.117 . S
C322 O344 1.234 . S
C322 O345 1.283 . S
C323 O335 1.281 . S
C323 O336 1.236 . S
C324 O346 1.240 . S
C324 O347 1.264 . S
O325 Mn320 2.095 . S
O325 C334 1.250 . S
O326 Mn321 2.121 . S
O326 C334 1.258 . S
C327 N328 1.326 . S
C327 C331 1.460 . S
C327 H333 0.929 . S
N328 Mn321 2.257 . S
N328 C327 1.326 . S
N328 C332 1.362 . S
C329 C330 1.258 . S
C329 C332 1.431 . S
C329 C349 1.449 . S
C330 C329 1.258 . S
C330 C331 1.477 . S
C330 H350 0.931 . S
C331 C327 1.460 . S
C331 C330 1.477 . S
C331 H351 0.930 . S
C332 N328 1.362 . S
C332 C329 1.431 . S
C332 C342 1.476 . S
H333 C327 0.929 . S
C334 O325 1.250 . S
C334 O326 1.258 . S
O335 Mn320 2.162 . S
O335 C323 1.281 . S
O336 Mn320 2.297 . S
O336 C323 1.236 . S
N337 Mn321 2.282 . S
N337 C338 1.328 . S
N337 C342 1.318 . S
C338 N337 1.328 . S
C338 C339 1.457 . S
C338 H343 0.929 . S
C339 C338 1.457 . S
C339 C340 1.291 . S
C339 H352 0.931 . S
C340 C339 1.291 . S
C340 C341 1.373 . S
C340 H353 0.929 . S
C341 C340 1.373 . S
C341 C342 1.396 . S
C341 C348 1.403 . S
C342 C332 1.476 . S
C342 N337 1.318 . S
C342 C341 1.396 . S
H343 C338 0.929 . S
O344 Mn320 2.385 . S
O344 C322 1.234 . S
O345 Mn320 2.209 . S
O345 Mn321 2.215 . S
O345 C322 1.283 . S
O346 Mn320 2.094 . S
O346 C324 1.240 . S
O347 Mn321 2.117 . S
O347 C324 1.264 . S
C348 C341 1.403 . S
C348 C349 1.399 . S
C348 H354 0.929 . S
C349 C329 1.449 . S
C349 C348 1.399 . S
C349 H355 0.930 . S
H350 C330 0.931 . S
H351 C331 0.930 . S
H352 C339 0.931 . S
H353 C340 0.929 . S
H354 C348 0.929 . S
H355 C349 0.930 . S
Mn356 O361 2.095 . S
Mn356 O371 2.162 . S
Mn356 O372 2.297 . S
Mn356 O380 2.385 . S
Mn356 O381 2.209 . S
Mn356 O382 2.094 . S
Mn357 O362 2.121 . S
Mn357 N364 2.257 . S
Mn357 N373 2.282 . S
Mn357 O381 2.215 . S
Mn357 O383 2.117 . S
C358 O380 1.234 . S
C358 O381 1.283 . S
C359 O371 1.281 . S
C359 O372 1.236 . S
C360 O382 1.240 . S
C360 O383 1.264 . S
O361 Mn356 2.095 . S
O361 C370 1.250 . S
O362 Mn357 2.121 . S
O362 C370 1.258 . S
C363 N364 1.326 . S
C363 C367 1.460 . S
C363 H369 0.929 . S
N364 Mn357 2.257 . S
N364 C363 1.326 . S
N364 C368 1.362 . S
C365 C366 1.258 . S
C365 C368 1.431 . S
C365 C385 1.449 . S
C366 C365 1.258 . S
C366 C367 1.477 . S
C366 H386 0.931 . S
C367 C363 1.460 . S
C367 C366 1.477 . S
C367 H387 0.930 . S
C368 N364 1.362 . S
C368 C365 1.431 . S
C368 C378 1.476 . S
H369 C363 0.929 . S
C370 O361 1.250 . S
C370 O362 1.258 . S
O371 Mn356 2.162 . S
O371 C359 1.281 . S
O372 Mn356 2.297 . S
O372 C359 1.236 . S
N373 Mn357 2.282 . S
N373 C374 1.328 . S
N373 C378 1.318 . S
C374 N373 1.328 . S
C374 C375 1.457 . S
C374 H379 0.929 . S
C375 C374 1.457 . S
C375 C376 1.291 . S
C375 H388 0.931 . S
C376 C375 1.291 . S
C376 C377 1.373 . S
C376 H389 0.929 . S
C377 C376 1.373 . S
C377 C378 1.396 . S
C377 C384 1.403 . S
C378 C368 1.476 . S
C378 N373 1.318 . S
C378 C377 1.396 . S
H379 C374 0.929 . S
O380 Mn356 2.385 . S
O380 C358 1.234 . S
O381 Mn356 2.209 . S
O381 Mn357 2.215 . S
O381 C358 1.283 . S
O382 Mn356 2.094 . S
O382 C360 1.240 . S
O383 Mn357 2.117 . S
O383 C360 1.264 . S
C384 C377 1.403 . S
C384 C385 1.399 . S
C384 H390 0.929 . S
C385 C365 1.449 . S
C385 C384 1.399 . S
C385 H391 0.930 . S
H386 C366 0.931 . S
H387 C367 0.930 . S
H388 C375 0.931 . S
H389 C376 0.929 . S
H390 C384 0.929 . S
H391 C385 0.930 . S
Mn392 O397 2.095 . S
Mn392 O407 2.162 . S
Mn392 O408 2.297 . S
Mn392 O416 2.385 . S
Mn392 O417 2.209 . S
Mn392 O418 2.094 . S
Mn393 O398 2.121 . S
Mn393 N400 2.257 . S
Mn393 N409 2.282 . S
Mn393 O417 2.215 . S
Mn393 O419 2.117 . S
C394 O416 1.234 . S
C394 O417 1.283 . S
C395 O407 1.281 . S
C395 O408 1.236 . S
C396 O418 1.240 . S
C396 O419 1.264 . S
O397 Mn392 2.095 . S
O397 C406 1.250 . S
O398 Mn393 2.121 . S
O398 C406 1.258 . S
C399 N400 1.326 . S
C399 C403 1.460 . S
C399 H405 0.929 . S
N400 Mn393 2.257 . S
N400 C399 1.326 . S
N400 C404 1.362 . S
C401 C402 1.258 . S
C401 C404 1.431 . S
C401 C421 1.449 . S
C402 C401 1.258 . S
C402 C403 1.477 . S
C402 H422 0.931 . S
C403 C399 1.460 . S
C403 C402 1.477 . S
C403 H423 0.930 . S
C404 N400 1.362 . S
C404 C401 1.431 . S
C404 C414 1.476 . S
H405 C399 0.929 . S
C406 O397 1.250 . S
C406 O398 1.258 . S
O407 Mn392 2.162 . S
O407 C395 1.281 . S
O408 Mn392 2.297 . S
O408 C395 1.236 . S
N409 Mn393 2.282 . S
N409 C410 1.328 . S
N409 C414 1.318 . S
C410 N409 1.328 . S
C410 C411 1.457 . S
C410 H415 0.929 . S
C411 C410 1.457 . S
C411 C412 1.291 . S
C411 H424 0.931 . S
C412 C411 1.291 . S
C412 C413 1.373 . S
C412 H425 0.929 . S
C413 C412 1.373 . S
C413 C414 1.396 . S
C413 C420 1.403 . S
C414 C404 1.476 . S
C414 N409 1.318 . S
C414 C413 1.396 . S
H415 C410 0.929 . S
O416 Mn392 2.385 . S
O416 C394 1.234 . S
O417 Mn392 2.209 . S
O417 Mn393 2.215 . S
O417 C394 1.283 . S
O418 Mn392 2.094 . S
O418 C396 1.240 . S
O419 Mn393 2.117 . S
O419 C396 1.264 . S
C420 C413 1.403 . S
C420 C421 1.399 . S
C420 H426 0.929 . S
C421 C401 1.449 . S
C421 C420 1.399 . S
C421 H427 0.930 . S
H422 C402 0.931 . S
H423 C403 0.930 . S
H424 C411 0.931 . S
H425 C412 0.929 . S
H426 C420 0.929 . S
H427 C421 0.930 . S
Mn428 O433 2.095 . S
Mn428 O443 2.162 . S
Mn428 O444 2.297 . S
Mn428 O452 2.385 1_565 S
Mn428 O453 2.209 1_565 S
Mn428 O454 2.094 . S
Mn429 O434 2.121 . S
Mn429 N436 2.257 . S
Mn429 N445 2.282 . S
Mn429 O453 2.215 . S
Mn429 O455 2.117 . S
C430 O452 1.234 . S
C430 O453 1.283 . S
C431 O443 1.281 . S
C431 O444 1.236 . S
C432 O454 1.256 . S
C432 O455 1.247 1_565 S
O433 Mn428 2.095 . S
O433 C442 1.250 1_565 S
O434 Mn429 2.121 . S
O434 C442 1.258 . S
C435 N436 1.326 . S
C435 C439 1.460 . S
C435 H441 0.929 . S
N436 Mn429 2.257 . S
N436 C435 1.326 . S
N436 C440 1.362 . S
C437 C438 1.258 . S
C437 C440 1.431 . S
C437 C457 1.449 . S
C438 C437 1.258 . S
C438 C439 1.477 . S
C438 H458 0.931 . S
C439 C435 1.460 . S
C439 C438 1.477 . S
C439 H459 0.930 . S
C440 N436 1.362 . S
C440 C437 1.431 . S
C440 C450 1.476 . S
H441 C435 0.929 . S
C442 O433 1.250 1_545 S
C442 O434 1.258 . S
O443 Mn428 2.162 . S
O443 C431 1.281 . S
O444 Mn428 2.297 . S
O444 C431 1.236 . S
N445 Mn429 2.282 . S
N445 C446 1.328 . S
N445 C450 1.318 . S
C446 N445 1.328 . S
C446 C447 1.457 . S
C446 H451 0.929 . S
C447 C446 1.457 . S
C447 C448 1.291 . S
C447 H460 0.931 . S
C448 C447 1.291 . S
C448 C449 1.373 . S
C448 H461 0.929 . S
C449 C448 1.373 . S
C449 C450 1.396 . S
C449 C456 1.403 . S
C450 C440 1.476 . S
C450 N445 1.318 . S
C450 C449 1.396 . S
H451 C446 0.929 . S
O452 Mn428 2.385 1_545 S
O452 C430 1.234 . S
O453 Mn428 2.209 1_545 S
O453 Mn429 2.215 . S
O453 C430 1.283 . S
O454 Mn428 2.094 . S
O454 C432 1.256 . S
O455 Mn429 2.117 . S
O455 C432 1.247 1_545 S
C456 C449 1.403 . S
C456 C457 1.399 . S
C456 H462 0.929 . S
C457 C437 1.449 . S
C457 C456 1.399 . S
C457 H463 0.930 . S
H458 C438 0.931 . S
H459 C439 0.930 . S
H460 C447 0.931 . S
H461 C448 0.929 . S
H462 C456 0.929 . S
H463 C457 0.930 . S
Mn464 O469 2.095 . S
Mn464 O479 2.162 . S
Mn464 O480 2.297 . S
Mn464 O488 2.385 . S
Mn464 O489 2.209 1_455 S
Mn464 O490 2.094 . S
Mn465 O470 2.121 . S
Mn465 N472 2.257 . S
Mn465 N481 2.282 . S
Mn465 O489 2.215 . S
Mn465 O491 2.117 1_655 S
C466 O488 1.234 1_655 S
C466 O489 1.283 . S
C467 O479 1.281 . S
C467 O480 1.236 . S
C468 O490 1.240 . S
C468 O491 1.264 . S
O469 Mn464 2.095 . S
O469 C478 1.250 . S
O470 Mn465 2.121 . S
O470 C478 1.258 1_655 S
C471 N472 1.326 . S
C471 C475 1.460 . S
C471 H477 0.929 . S
N472 Mn465 2.257 . S
N472 C471 1.326 . S
N472 C476 1.362 . S
C473 C474 1.258 . S
C473 C476 1.431 . S
C473 C493 1.449 . S
C474 C473 1.258 . S
C474 C475 1.477 . S
C474 H494 0.931 . S
C475 C471 1.460 . S
C475 C474 1.477 . S
C475 H495 0.930 . S
C476 N472 1.362 . S
C476 C473 1.431 . S
C476 C486 1.476 . S
H477 C471 0.929 . S
C478 O469 1.250 . S
C478 O470 1.258 1_455 S
O479 Mn464 2.162 . S
O479 C467 1.281 . S
O480 Mn464 2.297 . S
O480 C467 1.236 . S
N481 Mn465 2.282 . S
N481 C482 1.328 . S
N481 C486 1.318 . S
C482 N481 1.328 . S
C482 C483 1.457 . S
C482 H487 0.929 . S
C483 C482 1.457 . S
C483 C484 1.291 . S
C483 H496 0.931 . S
C484 C483 1.291 . S
C484 C485 1.373 . S
C484 H497 0.929 . S
C485 C484 1.373 . S
C485 C486 1.396 . S
C485 C492 1.403 . S
C486 C476 1.476 . S
C486 N481 1.318 . S
C486 C485 1.396 . S
H487 C482 0.929 . S
O488 Mn464 2.385 . S
O488 C466 1.234 1_455 S
O489 Mn464 2.209 1_655 S
O489 Mn465 2.215 . S
O489 C466 1.283 . S
O490 Mn464 2.094 . S
O490 C468 1.240 . S
O491 Mn465 2.117 1_455 S
O491 C468 1.264 . S
C492 C485 1.403 . S
C492 C493 1.399 . S
C492 H498 0.929 . S
C493 C473 1.449 . S
C493 C492 1.399 . S
C493 H499 0.930 . S
H494 C474 0.931 . S
H495 C475 0.930 . S
H496 C483 0.931 . S
H497 C484 0.929 . S
H498 C492 0.929 . S
H499 C493 0.930 . S
Mn500 O505 2.095 . S
Mn500 O515 2.162 . S
Mn500 O516 2.297 . S
Mn500 O524 2.385 . S
Mn500 O525 2.209 . S
Mn500 O526 2.094 . S
Mn501 O506 2.121 . S
Mn501 N508 2.257 . S
Mn501 N517 2.282 . S
Mn501 O525 2.215 . S
Mn501 O527 2.117 . S
C502 O524 1.234 . S
C502 O525 1.283 . S
C503 O515 1.281 . S
C503 O516 1.236 . S
C504 O526 1.240 . S
C504 O527 1.264 . S
O505 Mn500 2.095 . S
O505 C514 1.250 . S
O506 Mn501 2.121 . S
O506 C514 1.258 . S
C507 N508 1.326 . S
C507 C511 1.460 . S
C507 H513 0.929 . S
N508 Mn501 2.257 . S
N508 C507 1.326 . S
N508 C512 1.362 . S
C509 C510 1.258 . S
C509 C512 1.431 . S
C509 C529 1.449 . S
C510 C509 1.258 . S
C510 C511 1.477 . S
C510 H530 0.931 . S
C511 C507 1.460 . S
C511 C510 1.477 . S
C511 H531 0.930 . S
C512 N508 1.362 . S
C512 C509 1.431 . S
C512 C522 1.476 . S
H513 C507 0.929 . S
C514 O505 1.250 . S
C514 O506 1.258 . S
O515 Mn500 2.162 . S
O515 C503 1.281 . S
O516 Mn500 2.297 . S
O516 C503 1.236 . S
N517 Mn501 2.282 . S
N517 C518 1.328 . S
N517 C522 1.318 . S
C518 N517 1.328 . S
C518 C519 1.457 . S
C518 H523 0.929 . S
C519 C518 1.457 . S
C519 C520 1.291 . S
C519 H532 0.931 . S
C520 C519 1.291 . S
C520 C521 1.373 . S
C520 H533 0.929 . S
C521 C520 1.373 . S
C521 C522 1.396 . S
C521 C528 1.403 . S
C522 C512 1.476 . S
C522 N517 1.318 . S
C522 C521 1.396 . S
H523 C518 0.929 . S
O524 Mn500 2.385 . S
O524 C502 1.234 . S
O525 Mn500 2.209 . S
O525 Mn501 2.215 . S
O525 C502 1.283 . S
O526 Mn500 2.094 . S
O526 C504 1.240 . S
O527 Mn501 2.117 . S
O527 C504 1.264 . S
C528 C521 1.403 . S
C528 C529 1.399 . S
C528 H534 0.929 . S
C529 C509 1.449 . S
C529 C528 1.399 . S
C529 H535 0.930 . S
H530 C510 0.931 . S
H531 C511 0.930 . S
H532 C519 0.931 . S
H533 C520 0.929 . S
H534 C528 0.929 . S
H535 C529 0.930 . S
Mn536 O541 2.094 1_455 S
Mn536 O551 2.162 . S
Mn536 O552 2.297 . S
Mn536 O560 2.385 . S
Mn536 O561 2.212 . S
Mn536 O562 2.094 . S
Mn537 O542 2.121 . S
Mn537 N544 2.257 . S
Mn537 N553 2.282 1_655 S
Mn537 O561 2.214 1_655 S
Mn537 O563 2.117 1_655 S
C538 O560 1.234 . S
C538 O561 1.289 . S
C539 O551 1.281 . S
C539 O552 1.236 . S
C540 O562 1.240 . S
C540 O563 1.264 . S
O541 Mn536 2.094 1_655 S
O541 C550 1.252 . S
O542 Mn537 2.121 . S
O542 C550 1.258 . S
C543 N544 1.326 . S
C543 C547 1.460 . S
C543 H549 0.929 . S
N544 Mn537 2.257 . S
N544 C543 1.326 . S
N544 C548 1.362 . S
C545 C546 1.258 . S
C545 C548 1.431 . S
C545 C565 1.449 . S
C546 C545 1.258 . S
C546 C547 1.477 . S
C546 H566 0.931 . S
C547 C543 1.460 . S
C547 C546 1.477 . S
C547 H567 0.930 . S
C548 N544 1.362 . S
C548 C545 1.431 . S
C548 C558 1.476 . S
H549 C543 0.929 . S
C550 O541 1.252 . S
C550 O542 1.258 . S
O551 Mn536 2.162 . S
O551 C539 1.281 . S
O552 Mn536 2.297 . S
O552 C539 1.236 . S
N553 Mn537 2.282 1_455 S
N553 C554 1.328 . S
N553 C558 1.318 1_455 S
C554 N553 1.328 . S
C554 C555 1.457 . S
C554 H559 0.929 . S
C555 C554 1.457 . S
C555 C556 1.291 . S
C555 H568 0.931 . S
C556 C555 1.291 . S
C556 C557 1.373 1_455 S
C556 H569 0.929 . S
C557 C556 1.373 1_655 S
C557 C558 1.396 . S
C557 C564 1.403 . S
C558 C548 1.476 . S
C558 N553 1.318 1_655 S
C558 C557 1.396 . S
H559 C554 0.929 . S
O560 Mn536 2.385 . S
O560 C538 1.234 . S
O561 Mn536 2.212 . S
O561 Mn537 2.214 1_455 S
O561 C538 1.289 . S
O562 Mn536 2.094 . S
O562 C540 1.240 . S
O563 Mn537 2.117 1_455 S
O563 C540 1.264 . S
C564 C557 1.403 . S
C564 C565 1.399 . S
C564 H570 0.929 . S
C565 C545 1.449 . S
C565 C564 1.399 . S
C565 H571 0.930 . S
H566 C546 0.931 . S
H567 C547 0.930 . S
H568 C555 0.931 . S
H569 C556 0.929 . S
H570 C564 0.929 . S
H571 C565 0.930 . S
Mn572 O577 2.095 . S
Mn572 O587 2.162 . S
Mn572 O588 2.297 . S
Mn572 O596 2.385 . S
Mn572 O597 2.209 . S
Mn572 O598 2.094 . S
Mn573 O578 2.121 . S
Mn573 N580 2.257 . S
Mn573 N589 2.282 . S
Mn573 O597 2.215 . S
Mn573 O599 2.117 . S
C574 O596 1.234 . S
C574 O597 1.283 . S
C575 O587 1.281 . S
C575 O588 1.236 . S
C576 O598 1.240 . S
C576 O599 1.264 . S
O577 Mn572 2.095 . S
O577 C586 1.250 . S
O578 Mn573 2.121 . S
O578 C586 1.258 . S
C579 N580 1.326 . S
C579 C583 1.460 . S
C579 H585 0.929 . S
N580 Mn573 2.257 . S
N580 C579 1.326 . S
N580 C584 1.362 . S
C581 C582 1.258 . S
C581 C584 1.431 . S
C581 C601 1.449 . S
C582 C581 1.258 . S
C582 C583 1.477 . S
C582 H602 0.931 . S
C583 C579 1.460 . S
C583 C582 1.477 . S
C583 H603 0.930 . S
C584 N580 1.362 . S
C584 C581 1.431 . S
C584 C594 1.476 . S
H585 C579 0.929 . S
C586 O577 1.250 . S
C586 O578 1.258 . S
O587 Mn572 2.162 . S
O587 C575 1.281 . S
O588 Mn572 2.297 . S
O588 C575 1.236 . S
N589 Mn573 2.282 . S
N589 C590 1.328 . S
N589 C594 1.318 . S
C590 N589 1.328 . S
C590 C591 1.457 . S
C590 H595 0.929 . S
C591 C590 1.457 . S
C591 C592 1.291 . S
C591 H604 0.931 . S
C592 C591 1.291 . S
C592 C593 1.373 . S
C592 H605 0.929 . S
C593 C592 1.373 . S
C593 C594 1.396 . S
C593 C600 1.403 . S
C594 C584 1.476 . S
C594 N589 1.318 . S
C594 C593 1.396 . S
H595 C590 0.929 . S
O596 Mn572 2.385 . S
O596 C574 1.234 . S
O597 Mn572 2.209 . S
O597 Mn573 2.215 . S
O597 C574 1.283 . S
O598 Mn572 2.094 . S
O598 C576 1.240 . S
O599 Mn573 2.117 . S
O599 C576 1.264 . S
C600 C593 1.403 . S
C600 C601 1.399 . S
C600 H606 0.929 . S
C601 C581 1.449 . S
C601 C600 1.399 . S
C601 H607 0.930 . S
H602 C582 0.931 . S
H603 C583 0.930 . S
H604 C591 0.931 . S
H605 C592 0.929 . S
H606 C600 0.929 . S
H607 C601 0.930 . S
C608 C609 1.349 . S
C608 C610 1.327 . S
C608 H633 0.950 . S
C609 C608 1.349 . S
C609 C625 1.349 . S
C610 C608 1.327 . S
C610 C629 1.429 . S
C610 H634 0.950 . S
C611 C628 1.574 . S
C611 C630 1.368 . S
C611 H635 0.949 . S
H612 C616 0.949 . S
C613 C614 1.349 . S
C613 C615 1.327 . S
C613 H636 0.950 1_556 S
C614 C613 1.349 . S
C614 C626 1.349 . S
C615 C613 1.327 . S
C615 C631 1.429 . S
C615 H637 0.950 . S
C616 H612 0.949 . S
C616 C624 1.574 . S
C616 C632 1.368 . S
H617 C625 0.950 . S
H618 C623 0.950 . S
H619 C624 0.949 . S
H620 C626 0.950 . S
H621 C627 0.950 . S
H622 C628 0.949 . S
C623 H618 0.950 . S
C623 C625 1.327 . S
C623 C629 1.429 . S
C624 C616 1.574 . S
C624 H619 0.949 . S
C624 C630 1.368 . S
C625 C609 1.349 . S
C625 H617 0.950 . S
C625 C623 1.327 . S
C626 C614 1.349 . S
C626 H620 0.950 . S
C626 C627 1.327 . S
C627 H621 0.950 . S
C627 C626 1.327 . S
C627 C631 1.429 . S
C628 C611 1.574 . S
C628 H622 0.949 . S
C628 C632 1.368 . S
C629 C610 1.429 . S
C629 C623 1.429 . S
C629 C630 1.523 . S
C630 C611 1.368 . S
C630 C624 1.368 . S
C630 C629 1.523 . S
C631 C615 1.429 . S
C631 C627 1.429 . S
C631 C632 1.523 . S
C632 C616 1.368 . S
C632 C628 1.368 . S
C632 C631 1.523 . S
H633 C608 0.950 . S
H634 C610 0.950 . S
H635 C611 0.949 . S
H636 C613 0.950 1_554 S
H637 C615 0.950 . S
C638 C639 1.349 . S
C638 C640 1.327 . S
C638 H663 0.950 . S
C639 C638 1.349 . S
C639 C655 1.349 . S
C640 C638 1.327 . S
C640 C659 1.429 . S
C640 H664 0.950 . S
C641 C658 1.574 . S
C641 C660 1.368 . S
C641 H665 0.949 . S
H642 C646 0.949 . S
C643 C644 1.349 . S
C643 C645 1.327 . S
C643 H666 0.950 . S
C644 C643 1.349 . S
C644 C656 1.349 . S
C645 C643 1.327 . S
C645 C661 1.429 . S
C645 H667 0.950 . S
C646 H642 0.949 . S
C646 C654 1.574 . S
C646 C662 1.368 . S
H647 C655 0.950 . S
H648 C653 0.950 . S
H649 C654 0.949 . S
H650 C656 0.950 . S
H651 C657 0.950 . S
H652 C658 0.949 . S
C653 H648 0.950 . S
C653 C655 1.327 . S
C653 C659 1.429 . S
C654 C646 1.574 . S
C654 H649 0.949 . S
C654 C660 1.368 . S
C655 C639 1.349 . S
C655 H647 0.950 . S
C655 C653 1.327 . S
C656 C644 1.349 . S
C656 H650 0.950 . S
C656 C657 1.327 . S
C657 H651 0.950 . S
C657 C656 1.327 . S
C657 C661 1.429 . S
C658 C641 1.574 . S
C658 H652 0.949 . S
C658 C662 1.368 . S
C659 C640 1.429 . S
C659 C653 1.429 . S
C659 C660 1.523 . S
C660 C641 1.368 . S
C660 C654 1.368 . S
C660 C659 1.523 . S
C661 C645 1.429 . S
C661 C657 1.429 . S
C661 C662 1.523 . S
C662 C646 1.368 . S
C662 C658 1.368 . S
C662 C661 1.523 . S
H663 C638 0.950 . S
H664 C640 0.950 . S
H665 C641 0.949 . S
H666 C643 0.950 . S
H667 C645 0.950 . S
C668 C669 1.349 . S
C668 C670 1.327 . S
C668 H693 0.950 . S
C669 C668 1.349 . S
C669 C685 1.349 . S
C670 C668 1.327 . S
C670 C689 1.429 . S
C670 H694 0.950 . S
C671 C688 1.574 . S
C671 C690 1.368 . S
C671 H695 0.949 . S
H672 C676 0.949 . S
C673 C674 1.349 . S
C673 C675 1.327 . S
C673 H696 0.950 . S
C674 C673 1.349 . S
C674 C686 1.349 . S
C675 C673 1.327 . S
C675 C691 1.429 . S
C675 H697 0.950 . S
C676 H672 0.949 . S
C676 C684 1.574 . S
C676 C692 1.368 . S
H677 C685 0.950 . S
H678 C683 0.950 . S
H679 C684 0.949 . S
H680 C686 0.950 . S
H681 C687 0.950 . S
H682 C688 0.949 . S
C683 H678 0.950 . S
C683 C685 1.327 . S
C683 C689 1.429 . S
C684 C676 1.574 . S
C684 H679 0.949 . S
C684 C690 1.368 . S
C685 C669 1.349 . S
C685 H677 0.950 . S
C685 C683 1.327 . S
C686 C674 1.349 . S
C686 H680 0.950 . S
C686 C687 1.327 . S
C687 H681 0.950 . S
C687 C686 1.327 . S
C687 C691 1.429 . S
C688 C671 1.574 . S
C688 H682 0.949 . S
C688 C692 1.368 . S
C689 C670 1.429 . S
C689 C683 1.429 . S
C689 C690 1.523 . S
C690 C671 1.368 . S
C690 C684 1.368 . S
C690 C689 1.523 . S
C691 C675 1.429 . S
C691 C687 1.429 . S
C691 C692 1.523 . S
C692 C676 1.368 . S
C692 C688 1.368 . S
C692 C691 1.523 . S
H693 C668 0.950 . S
H694 C670 0.950 . S
H695 C671 0.949 . S
H696 C673 0.950 . S
H697 C675 0.950 . S
C698 C699 1.349 . S
C698 C700 1.327 . S
C698 H723 0.950 . S
C699 C698 1.349 . S
C699 C715 1.349 . S
C700 C698 1.327 . S
C700 C719 1.429 . S
C700 H724 0.950 1_455 S
C701 C718 1.574 . S
C701 C720 1.338 1_545 S
C701 H725 0.949 . S
H702 C706 0.949 . S
C703 C704 1.349 . S
C703 C705 1.327 . S
C703 H726 0.950 . S
C704 C703 1.349 . S
C704 C716 1.349 . S
C705 C703 1.327 . S
C705 C721 1.429 . S
C705 H727 0.950 . S
C706 H702 0.949 . S
C706 C714 1.574 . S
C706 C722 1.368 1_565 S
H707 C715 0.950 1_545 S
H708 C713 0.950 . S
H709 C714 0.949 . S
H710 C716 0.950 . S
H711 C717 0.950 1_565 S
H712 C718 0.949 . S
C713 H708 0.950 . S
C713 C715 1.327 1_545 S
C713 C719 1.429 1_545 S
C714 C706 1.574 . S
C714 H709 0.949 . S
C714 C720 1.384 1_655 S
C715 C699 1.349 . S
C715 H707 0.950 1_565 S
C715 C713 1.327 1_565 S
C716 C704 1.349 . S
C716 H710 0.950 . S
C716 C717 1.327 . S
C717 H711 0.950 1_545 S
C717 C716 1.327 . S
C717 C721 1.429 . S
C718 C701 1.574 . S
C718 H712 0.949 . S
C718 C722 1.368 1_455 S
C719 C700 1.429 . S
C719 C713 1.429 1_565 S
C719 C720 1.544 . S
C720 C701 1.338 1_565 S
C720 C714 1.384 1_455 S
C720 C719 1.544 . S
C721 C705 1.429 . S
C721 C717 1.429 . S
C721 C722 1.523 . S
C722 C706 1.368 1_545 S
C722 C718 1.368 1_655 S
C722 C721 1.523 . S
H723 C698 0.950 . S
H724 C700 0.950 1_655 S
H725 C701 0.949 . S
H726 C703 0.950 . S
H727 C705 0.950 . S
C728 C729 1.349 . S
C728 C730 1.327 . S
C728 H753 0.950 . S
C729 C728 1.349 . S
C729 C745 1.349 . S
C730 C728 1.327 . S
C730 C749 1.429 . S
C730 H754 0.950 . S
C731 C748 1.574 . S
C731 C750 1.368 . S
C731 H755 0.949 . S
H732 C736 0.949 . S
C733 C734 1.349 . S
C733 C735 1.327 . S
C733 H756 0.950 . S
C734 C733 1.349 . S
C734 C746 1.349 . S
C735 C733 1.327 . S
C735 C751 1.429 . S
C735 H757 0.950 . S
C736 H732 0.949 . S
C736 C744 1.574 . S
C736 C752 1.368 . S
H737 C745 0.950 . S
H738 C743 0.950 . S
H739 C744 0.949 . S
H740 C746 0.950 . S
H741 C747 0.950 . S
H742 C748 0.949 . S
C743 H738 0.950 . S
C743 C745 1.327 . S
C743 C749 1.429 . S
C744 C736 1.574 . S
C744 H739 0.949 . S
C744 C750 1.368 . S
C745 C729 1.349 . S
C745 H737 0.950 . S
C745 C743 1.327 . S
C746 C734 1.349 . S
C746 H740 0.950 . S
C746 C747 1.327 . S
C747 H741 0.950 . S
C747 C746 1.327 . S
C747 C751 1.429 . S
C748 C731 1.574 . S
C748 H742 0.949 . S
C748 C752 1.368 . S
C749 C730 1.429 . S
C749 C743 1.429 . S
C749 C750 1.523 . S
C750 C731 1.368 . S
C750 C744 1.368 . S
C750 C749 1.523 . S
C751 C735 1.429 . S
C751 C747 1.429 . S
C751 C752 1.523 . S
C752 C736 1.368 . S
C752 C748 1.368 . S
C752 C751 1.523 . S
H753 C728 0.950 . S
H754 C730 0.950 . S
H755 C731 0.949 . S
H756 C733 0.950 . S
H757 C735 0.950 . S
C758 C759 1.349 . S
C758 C760 1.327 . S
C758 H783 0.950 . S
C759 C758 1.349 . S
C759 C775 1.349 . S
C760 C758 1.327 . S
C760 C779 1.429 . S
C760 H784 0.950 . S
C761 C778 1.574 . S
C761 C780 1.368 . S
C761 H785 0.949 . S
H762 C766 0.949 . S
C763 C764 1.349 . S
C763 C765 1.327 . S
C763 H786 0.950 . S
C764 C763 1.349 . S
C764 C776 1.349 . S
C765 C763 1.327 . S
C765 C781 1.429 . S
C765 H787 0.950 . S
C766 H762 0.949 . S
C766 C774 1.574 . S
C766 C782 1.368 . S
H767 C775 0.950 . S
H768 C773 0.950 . S
H769 C774 0.949 . S
H770 C776 0.950 . S
H771 C777 0.950 . S
H772 C778 0.949 . S
C773 H768 0.950 . S
C773 C775 1.327 . S
C773 C779 1.429 . S
C774 C766 1.574 . S
C774 H769 0.949 . S
C774 C780 1.368 . S
C775 C759 1.349 . S
C775 H767 0.950 . S
C775 C773 1.327 . S
C776 C764 1.349 . S
C776 H770 0.950 . S
C776 C777 1.327 . S
C777 H771 0.950 . S
C777 C776 1.327 . S
C777 C781 1.429 . S
C778 C761 1.574 . S
C778 H772 0.949 . S
C778 C782 1.368 . S
C779 C760 1.429 . S
C779 C773 1.429 . S
C779 C780 1.523 . S
C780 C761 1.368 . S
C780 C774 1.368 . S
C780 C779 1.523 . S
C781 C765 1.429 . S
C781 C777 1.429 . S
C781 C782 1.523 . S
C782 C766 1.368 . S
C782 C778 1.368 . S
C782 C781 1.523 . S
H783 C758 0.950 . S
H784 C760 0.950 . S
H785 C761 0.949 . S
H786 C763 0.950 . S
H787 C765 0.950 . S
C788 C789 1.349 . S
C788 C790 1.327 . S
C788 H813 0.950 . S
C789 C788 1.349 . S
C789 C805 1.349 . S
C790 C788 1.327 . S
C790 C809 1.429 . S
C790 H814 0.950 . S
C791 C808 1.574 . S
C791 C810 1.368 . S
C791 H815 0.949 . S
H792 C796 0.949 . S
C793 C794 1.349 . S
C793 C795 1.327 . S
C793 H816 0.950 . S
C794 C793 1.349 . S
C794 C806 1.349 . S
C795 C793 1.327 . S
C795 C811 1.429 . S
C795 H817 0.950 . S
C796 H792 0.949 . S
C796 C804 1.574 . S
C796 C812 1.368 . S
H797 C805 0.950 . S
H798 C803 0.950 . S
H799 C804 0.949 . S
H800 C806 0.950 . S
H801 C807 0.950 . S
H802 C808 0.949 . S
C803 H798 0.950 . S
C803 C805 1.327 . S
C803 C809 1.429 . S
C804 C796 1.574 . S
C804 H799 0.949 . S
C804 C810 1.368 . S
C805 C789 1.349 . S
C805 H797 0.950 . S
C805 C803 1.327 . S
C806 C794 1.349 . S
C806 H800 0.950 . S
C806 C807 1.327 . S
C807 H801 0.950 . S
C807 C806 1.327 . S
C807 C811 1.429 . S
C808 C791 1.574 . S
C808 H802 0.949 . S
C808 C812 1.368 . S
C809 C790 1.429 . S
C809 C803 1.429 . S
C809 C810 1.523 . S
C810 C791 1.368 . S
C810 C804 1.368 . S
C810 C809 1.523 . S
C811 C795 1.429 . S
C811 C807 1.429 . S
C811 C812 1.523 . S
C812 C796 1.368 . S
C812 C808 1.368 . S
C812 C811 1.523 . S
H813 C788 0.950 . S
H814 C790 0.950 . S
H815 C791 0.949 . S
H816 C793 0.950 . S
H817 C795 0.950 . S
C818 C819 1.349 . S
C818 C820 1.327 . S
C818 H843 0.950 . S
C819 C818 1.349 . S
C819 C835 1.349 1_565 S
C820 C818 1.327 . S
C820 C839 1.429 . S
C820 H844 0.950 . S
C821 C838 1.574 . S
C821 C840 1.368 1_545 S
C821 H845 0.949 . S
H822 C826 0.949 . S
C823 C824 1.349 1_545 S
C823 C825 1.327 . S
C823 H846 0.950 . S
C824 C823 1.349 1_565 S
C824 C836 1.349 . S
C825 C823 1.327 . S
C825 C841 1.429 1_545 S
C825 H847 0.950 . S
C826 H822 0.949 . S
C826 C834 1.574 . S
C826 C842 1.368 . S
H827 C835 0.950 . S
H828 C833 0.950 . S
H829 C834 0.949 . S
H830 C836 0.950 . S
H831 C837 0.950 . S
H832 C838 0.949 . S
C833 H828 0.950 . S
C833 C835 1.327 . S
C833 C839 1.429 1_545 S
C834 C826 1.574 . S
C834 H829 0.949 . S
C834 C840 1.368 . S
C835 C819 1.349 1_545 S
C835 H827 0.950 . S
C835 C833 1.327 . S
C836 C824 1.349 . S
C836 H830 0.950 . S
C836 C837 1.327 . S
C837 H831 0.950 . S
C837 C836 1.327 . S
C837 C841 1.429 . S
C838 C821 1.574 . S
C838 H832 0.949 . S
C838 C842 1.368 1_545 S
C839 C820 1.429 . S
C839 C833 1.429 1_565 S
C839 C840 1.523 . S
C840 C821 1.368 1_565 S
C840 C834 1.368 . S
C840 C839 1.523 . S
C841 C825 1.429 1_565 S
C841 C837 1.429 . S
C841 C842 1.523 . S
C842 C826 1.368 . S
C842 C838 1.368 1_565 S
C842 C841 1.523 . S
H843 C818 0.950 . S
H844 C820 0.950 . S
H845 C821 0.949 . S
H846 C823 0.950 . S
H847 C825 0.950 . S
C848 C849 1.349 . S
C848 C850 1.327 . S
C848 H873 0.950 . S
C849 C848 1.349 . S
C849 C865 1.349 . S
C850 C848 1.327 . S
C850 C869 1.429 . S
C850 H874 0.950 . S
C851 C868 1.574 . S
C851 C870 1.368 . S
C851 H875 0.949 . S
H852 C856 0.949 . S
C853 C854 1.349 . S
C853 C855 1.327 . S
C853 H876 0.950 . S
C854 C853 1.349 . S
C854 C866 1.349 . S
C855 C853 1.327 . S
C855 C871 1.429 . S
C855 H877 0.950 . S
C856 H852 0.949 . S
C856 C864 1.574 . S
C856 C872 1.368 . S
H857 C865 0.950 . S
H858 C863 0.950 . S
H859 C864 0.949 . S
H860 C866 0.950 . S
H861 C867 0.950 . S
H862 C868 0.949 . S
C863 H858 0.950 . S
C863 C865 1.327 . S
C863 C869 1.429 . S
C864 C856 1.574 . S
C864 H859 0.949 . S
C864 C870 1.368 . S
C865 C849 1.349 . S
C865 H857 0.950 . S
C865 C863 1.327 . S
C866 C854 1.349 . S
C866 H860 0.950 . S
C866 C867 1.327 . S
C867 H861 0.950 . S
C867 C866 1.327 . S
C867 C871 1.429 . S
C868 C851 1.574 . S
C868 H862 0.949 . S
C868 C872 1.368 . S
C869 C850 1.429 . S
C869 C863 1.429 . S
C869 C870 1.523 . S
C870 C851 1.368 . S
C870 C864 1.368 . S
C870 C869 1.523 . S
C871 C855 1.429 . S
C871 C867 1.429 . S
C871 C872 1.523 . S
C872 C856 1.368 . S
C872 C868 1.368 . S
C872 C871 1.523 . S
H873 C848 0.950 . S
H874 C850 0.950 . S
H875 C851 0.949 . S
H876 C853 0.950 . S
H877 C855 0.950 . S
C878 C879 1.349 . S
C878 C880 1.327 . S
C878 H903 0.950 . S
C879 C878 1.349 . S
C879 C895 1.349 . S
C880 C878 1.327 . S
C880 C899 1.429 . S
C880 H904 0.950 . S
C881 C898 1.574 . S
C881 C900 1.368 . S
C881 H905 0.949 . S
H882 C886 0.949 . S
C883 C884 1.349 . S
C883 C885 1.327 . S
C883 H906 0.950 . S
C884 C883 1.349 . S
C884 C896 1.349 . S
C885 C883 1.327 . S
C885 C901 1.429 . S
C885 H907 0.950 . S
C886 H882 0.949 . S
C886 C894 1.574 . S
C886 C902 1.368 . S
H887 C895 0.950 . S
H888 C893 0.950 . S
H889 C894 0.949 . S
H890 C896 0.950 . S
H891 C897 0.950 . S
H892 C898 0.949 . S
C893 H888 0.950 . S
C893 C895 1.327 . S
C893 C899 1.429 . S
C894 C886 1.574 . S
C894 H889 0.949 . S
C894 C900 1.368 . S
C895 C879 1.349 . S
C895 H887 0.950 . S
C895 C893 1.327 . S
C896 C884 1.349 . S
C896 H890 0.950 . S
C896 C897 1.327 . S
C897 H891 0.950 . S
C897 C896 1.327 . S
C897 C901 1.429 . S
C898 C881 1.574 . S
C898 H892 0.949 . S
C898 C902 1.368 . S
C899 C880 1.429 . S
C899 C893 1.429 . S
C899 C900 1.523 . S
C900 C881 1.368 . S
C900 C894 1.368 . S
C900 C899 1.523 . S
C901 C885 1.429 . S
C901 C897 1.429 . S
C901 C902 1.523 . S
C902 C886 1.368 . S
C902 C898 1.368 . S
C902 C901 1.523 . S
H903 C878 0.950 . S
H904 C880 0.950 . S
H905 C881 0.949 . S
H906 C883 0.950 . S
H907 C885 0.950 . S
C908 C909 1.349 . S
C908 C910 1.327 . S
C908 H933 0.950 . S
C909 C908 1.349 . S
C909 C925 1.349 . S
C910 C908 1.327 . S
C910 C929 1.429 . S
C910 H934 0.950 . S
C911 C928 1.574 . S
C911 C930 1.368 . S
C911 H935 0.949 . S
H912 C916 0.949 . S
C913 C914 1.349 . S
C913 C915 1.327 . S
C913 H936 0.950 . S
C914 C913 1.349 . S
C914 C926 1.349 . S
C915 C913 1.327 . S
C915 C931 1.429 . S
C915 H937 0.950 . S
C916 H912 0.949 . S
C916 C924 1.574 . S
C916 C932 1.368 . S
H917 C925 0.950 . S
H918 C923 0.950 . S
H919 C924 0.949 . S
H920 C926 0.950 . S
H921 C927 0.950 . S
H922 C928 0.949 . S
C923 H918 0.950 . S
C923 C925 1.327 . S
C923 C929 1.429 . S
C924 C916 1.574 . S
C924 H919 0.949 . S
C924 C930 1.368 . S
C925 C909 1.349 . S
C925 H917 0.950 . S
C925 C923 1.327 . S
C926 C914 1.349 . S
C926 H920 0.950 . S
C926 C927 1.327 . S
C927 H921 0.950 . S
C927 C926 1.327 . S
C927 C931 1.429 . S
C928 C911 1.574 . S
C928 H922 0.949 . S
C928 C932 1.368 . S
C929 C910 1.429 . S
C929 C923 1.429 . S
C929 C930 1.523 . S
C930 C911 1.368 . S
C930 C924 1.368 . S
C930 C929 1.523 . S
C931 C915 1.429 . S
C931 C927 1.429 . S
C931 C932 1.523 . S
C932 C916 1.368 . S
C932 C928 1.368 . S
C932 C931 1.523 . S
H933 C908 0.950 . S
H934 C910 0.950 . S
H935 C911 0.949 . S
H936 C913 0.950 . S
H937 C915 0.950 . S
C938 C939 1.349 . S
C938 C940 1.327 . S
C938 H963 0.950 . S
C939 C938 1.349 . S
C939 C955 1.349 . S
C940 C938 1.327 . S
C940 C959 1.429 . S
C940 H964 0.950 . S
C941 C958 1.574 . S
C941 C960 1.368 . S
C941 H965 0.949 . S
H942 C946 0.949 . S
C943 C944 1.349 . S
C943 C945 1.327 . S
C943 H966 0.950 . S
C944 C943 1.349 . S
C944 C956 1.349 . S
C945 C943 1.327 . S
C945 C961 1.429 . S
C945 H967 0.950 . S
C946 H942 0.949 . S
C946 C954 1.574 . S
C946 C962 1.368 . S
H947 C955 0.950 . S
H948 C953 0.950 . S
H949 C954 0.949 . S
H950 C956 0.950 . S
H951 C957 0.950 . S
H952 C958 0.949 . S
C953 H948 0.950 . S
C953 C955 1.327 . S
C953 C959 1.429 . S
C954 C946 1.574 . S
C954 H949 0.949 . S
C954 C960 1.368 . S
C955 C939 1.349 . S
C955 H947 0.950 . S
C955 C953 1.327 . S
C956 C944 1.349 . S
C956 H950 0.950 . S
C956 C957 1.327 . S
C957 H951 0.950 . S
C957 C956 1.327 . S
C957 C961 1.429 . S
C958 C941 1.574 . S
C958 H952 0.949 . S
C958 C962 1.368 . S
C959 C940 1.429 . S
C959 C953 1.429 . S
C959 C960 1.523 . S
C960 C941 1.368 . S
C960 C954 1.368 . S
C960 C959 1.523 . S
C961 C945 1.429 . S
C961 C957 1.429 . S
C961 C962 1.523 . S
C962 C946 1.368 . S
C962 C958 1.368 . S
C962 C961 1.523 . S
H963 C938 0.950 . S
H964 C940 0.950 . S
H965 C941 0.949 . S
H966 C943 0.950 . S
H967 C945 0.950 . S
C968 C969 1.349 . S
C968 C970 1.327 . S
C968 H993 0.950 . S
C969 C968 1.349 . S
C969 C985 1.349 . S
C970 C968 1.327 . S
C970 C989 1.429 . S
C970 H994 0.950 . S
C971 C988 1.574 . S
C971 C990 1.368 . S
C971 H995 0.949 . S
H972 C976 0.949 . S
C973 C974 1.349 . S
C973 C975 1.327 . S
C973 H996 0.950 . S
C974 C973 1.349 . S
C974 C986 1.349 . S
C975 C973 1.327 . S
C975 C991 1.429 . S
C975 H997 0.950 . S
C976 H972 0.949 . S
C976 C984 1.574 . S
C976 C992 1.368 . S
H977 C985 0.950 . S
H978 C983 0.950 . S
H979 C984 0.949 . S
H980 C986 0.950 . S
H981 C987 0.950 . S
H982 C988 0.949 . S
C983 H978 0.950 . S
C983 C985 1.327 . S
C983 C989 1.429 . S
C984 C976 1.574 . S
C984 H979 0.949 . S
C984 C990 1.368 . S
C985 C969 1.349 . S
C985 H977 0.950 . S
C985 C983 1.327 . S
C986 C974 1.349 . S
C986 H980 0.950 . S
C986 C987 1.327 . S
C987 H981 0.950 . S
C987 C986 1.327 . S
C987 C991 1.429 . S
C988 C971 1.574 . S
C988 H982 0.949 . S
C988 C992 1.368 . S
C989 C970 1.429 . S
C989 C983 1.429 . S
C989 C990 1.523 . S
C990 C971 1.368 . S
C990 C984 1.368 . S
C990 C989 1.523 . S
C991 C975 1.429 . S
C991 C987 1.429 . S
C991 C992 1.523 . S
C992 C976 1.368 . S
C992 C988 1.368 . S
C992 C991 1.523 . S
H993 C968 0.950 . S
H994 C970 0.950 . S
H995 C971 0.949 . S
H996 C973 0.950 . S
H997 C975 0.950 . S
C998 C999 1.349 . S
C998 C1000 1.327 . S
C998 H1023 0.950 . S
C999 C998 1.349 . S
C999 C1015 1.349 . S
C1000 C998 1.327 . S
C1000 C1019 1.429 . S
C1000 H1024 0.950 . S
C1001 C1018 1.574 . S
C1001 C1020 1.368 . S
C1001 H1025 0.949 . S
H1002 C1006 0.949 . S
C1003 C1004 1.349 . S
C1003 C1005 1.327 . S
C1003 H1026 0.972 . S
C1004 C1003 1.349 . S
C1004 C1016 1.349 . S
C1005 C1003 1.327 . S
C1005 C1021 1.429 . S
C1005 H1027 0.950 . S
C1006 H1002 0.949 . S
C1006 C1014 1.574 . S
C1006 C1022 1.368 . S
H1007 C1015 0.950 . S
H1008 C1013 0.950 . S
H1009 C1014 0.949 . S
H1010 C1016 0.950 . S
H1011 C1017 0.950 . S
H1012 C1018 0.949 . S
C1013 H1008 0.950 . S
C1013 C1015 1.327 . S
C1013 C1019 1.429 . S
C1014 C1006 1.574 . S
C1014 H1009 0.949 . S
C1014 C1020 1.368 . S
C1015 C999 1.349 . S
C1015 H1007 0.950 . S
C1015 C1013 1.327 . S
C1016 C1004 1.349 . S
C1016 H1010 0.950 . S
C1016 C1017 1.327 . S
C1017 H1011 0.950 . S
C1017 C1016 1.327 . S
C1017 C1021 1.429 . S
C1018 C1001 1.574 . S
C1018 H1012 0.949 . S
C1018 C1022 1.368 . S
C1019 C1000 1.429 . S
C1019 C1013 1.429 . S
C1019 C1020 1.523 . S
C1020 C1001 1.368 . S
C1020 C1014 1.368 . S
C1020 C1019 1.523 . S
C1021 C1005 1.429 . S
C1021 C1017 1.429 . S
C1021 C1022 1.523 . S
C1022 C1006 1.368 . S
C1022 C1018 1.368 . S
C1022 C1021 1.523 . S
H1023 C998 0.950 . S
H1024 C1000 0.950 . S
H1025 C1001 0.949 . S
H1026 C1003 0.972 . S
H1027 C1005 0.950 . S
C1028 C1029 1.349 . S
C1028 C1030 1.327 . S
C1028 H1053 0.950 . S
C1029 C1028 1.349 . S
C1029 C1045 1.349 . S
C1030 C1028 1.327 . S
C1030 C1049 1.429 . S
C1030 H1054 0.950 . S
C1031 C1048 1.574 . S
C1031 C1050 1.368 . S
C1031 H1055 0.949 . S
H1032 C1036 0.949 . S
C1033 C1034 1.349 . S
C1033 C1035 1.327 . S
C1033 H1056 0.950 . S
C1034 C1033 1.349 . S
C1034 C1046 1.349 . S
C1035 C1033 1.327 . S
C1035 C1051 1.429 . S
C1035 H1057 0.950 . S
C1036 H1032 0.949 . S
C1036 C1044 1.574 . S
C1036 C1052 1.368 . S
H1037 C1045 0.950 . S
H1038 C1043 0.950 . S
H1039 C1044 0.949 . S
H1040 C1046 0.950 . S
H1041 C1047 0.950 . S
H1042 C1048 0.949 . S
C1043 H1038 0.950 . S
C1043 C1045 1.327 . S
C1043 C1049 1.429 . S
C1044 C1036 1.574 . S
C1044 H1039 0.949 . S
C1044 C1050 1.368 . S
C1045 C1029 1.349 . S
C1045 H1037 0.950 . S
C1045 C1043 1.327 . S
C1046 C1034 1.349 . S
C1046 H1040 0.950 . S
C1046 C1047 1.327 . S
C1047 H1041 0.950 . S
C1047 C1046 1.327 . S
C1047 C1051 1.429 . S
C1048 C1031 1.574 . S
C1048 H1042 0.949 . S
C1048 C1052 1.368 . S
C1049 C1030 1.429 . S
C1049 C1043 1.429 . S
C1049 C1050 1.523 . S
C1050 C1031 1.368 . S
C1050 C1044 1.368 . S
C1050 C1049 1.523 . S
C1051 C1035 1.429 . S
C1051 C1047 1.429 . S
C1051 C1052 1.523 . S
C1052 C1036 1.368 . S
C1052 C1048 1.368 . S
C1052 C1051 1.523 . S
H1053 C1028 0.950 . S
H1054 C1030 0.950 . S
H1055 C1031 0.949 . S
H1056 C1033 0.950 . S
H1057 C1035 0.950 . S
C1058 C1059 1.349 . S
C1058 C1060 1.327 . S
C1058 H1083 0.950 . S
C1059 C1058 1.349 . S
C1059 C1075 1.349 1_655 S
C1060 C1058 1.327 . S
C1060 C1079 1.447 . S
C1060 H1084 0.950 . S
C1061 C1078 1.574 . S
C1061 C1080 1.379 . S
C1061 H1085 0.949 . S
H1062 C1066 0.949 . S
C1063 C1064 1.349 . S
C1063 C1065 1.327 . S
C1063 H1086 0.950 . S
C1064 C1063 1.349 . S
C1064 C1076 1.349 . S
C1065 C1063 1.327 . S
C1065 C1081 1.429 . S
C1065 H1087 0.950 . S
C1066 H1062 0.949 . S
C1066 C1074 1.574 . S
C1066 C1082 1.368 1_655 S
H1067 C1075 0.950 . S
H1068 C1073 0.950 . S
H1069 C1074 0.949 . S
H1070 C1076 0.950 1_655 S
H1071 C1077 0.952 1_655 S
H1072 C1078 0.949 . S
C1073 H1068 0.950 . S
C1073 C1075 1.327 . S
C1073 C1079 1.410 1_455 S
C1074 C1066 1.574 . S
C1074 H1069 0.949 . S
C1074 C1080 1.357 1_655 S
C1075 C1059 1.349 1_455 S
C1075 H1067 0.950 . S
C1075 C1073 1.327 . S
C1076 C1064 1.349 . S
C1076 H1070 0.950 1_455 S
C1076 C1077 1.327 . S
C1077 H1071 0.952 1_455 S
C1077 C1076 1.327 . S
C1077 C1081 1.426 . S
C1078 C1061 1.574 . S
C1078 H1072 0.949 . S
C1078 C1082 1.368 . S
C1079 C1060 1.447 . S
C1079 C1073 1.410 1_655 S
C1079 C1080 1.529 1_655 S
C1080 C1061 1.379 . S
C1080 C1074 1.357 1_455 S
C1080 C1079 1.529 1_455 S
C1081 C1065 1.429 . S
C1081 C1077 1.426 . S
C1081 C1082 1.523 . S
C1082 C1066 1.368 1_455 S
C1082 C1078 1.368 . S
C1082 C1081 1.523 . S
H1083 C1058 0.950 . S
H1084 C1060 0.950 . S
H1085 C1061 0.949 . S
H1086 C1063 0.950 . S
H1087 C1065 0.950 . S
C1088 C1089 1.349 . S
C1088 C1090 1.327 . S
C1088 H1113 0.950 . S
C1089 C1088 1.349 . S
C1089 C1105 1.349 . S
C1090 C1088 1.327 . S
C1090 C1109 1.429 . S
C1090 H1114 0.950 . S
C1091 C1108 1.574 . S
C1091 C1110 1.368 . S
C1091 H1115 0.949 . S
H1092 C1096 0.949 . S
C1093 C1094 1.349 . S
C1093 C1095 1.327 . S
C1093 H1116 0.950 . S
C1094 C1093 1.349 . S
C1094 C1106 1.349 . S
C1095 C1093 1.327 . S
C1095 C1111 1.429 . S
C1095 H1117 0.950 . S
C1096 H1092 0.949 . S
C1096 C1104 1.574 . S
C1096 C1112 1.368 . S
H1097 C1105 0.950 . S
H1098 C1103 0.950 . S
H1099 C1104 0.949 . S
H1100 C1106 0.950 1_545 S
H1101 C1107 0.950 . S
H1102 C1108 0.949 . S
C1103 H1098 0.950 . S
C1103 C1105 1.327 . S
C1103 C1109 1.429 . S
C1104 C1096 1.574 . S
C1104 H1099 0.949 . S
C1104 C1110 1.368 . S
C1105 C1089 1.349 . S
C1105 H1097 0.950 . S
C1105 C1103 1.327 . S
C1106 C1094 1.349 . S
C1106 H1100 0.950 1_565 S
C1106 C1107 1.327 . S
C1107 H1101 0.950 . S
C1107 C1106 1.327 . S
C1107 C1111 1.429 . S
C1108 C1091 1.574 . S
C1108 H1102 0.949 . S
C1108 C1112 1.368 . S
C1109 C1090 1.429 . S
C1109 C1103 1.429 . S
C1109 C1110 1.523 . S
C1110 C1091 1.368 . S
C1110 C1104 1.368 . S
C1110 C1109 1.523 . S
C1111 C1095 1.429 . S
C1111 C1107 1.429 . S
C1111 C1112 1.523 . S
C1112 C1096 1.368 . S
C1112 C1108 1.368 . S
C1112 C1111 1.523 . S
H1113 C1088 0.950 . S
H1114 C1090 0.950 . S
H1115 C1091 0.949 . S
H1116 C1093 0.950 . S
H1117 C1095 0.950 . S
C1118 C1119 1.349 . S
C1118 C1120 1.327 . S
C1118 H1143 0.950 . S
C1119 C1118 1.349 . S
C1119 C1135 1.349 . S
C1120 C1118 1.327 . S
C1120 C1139 1.429 . S
C1120 H1144 0.950 . S
C1121 C1138 1.574 . S
C1121 C1140 1.368 . S
C1121 H1145 0.949 . S
H1122 C1126 0.949 . S
C1123 C1124 1.349 . S
C1123 C1125 1.327 . S
C1123 H1146 0.950 . S
C1124 C1123 1.349 . S
C1124 C1136 1.349 . S
C1125 C1123 1.327 . S
C1125 C1141 1.429 . S
C1125 H1147 0.950 . S
C1126 H1122 0.949 . S
C1126 C1134 1.574 . S
C1126 C1142 1.368 . S
H1127 C1135 0.950 . S
H1128 C1133 0.950 . S
H1129 C1134 0.949 . S
H1130 C1136 0.950 . S
H1131 C1137 0.950 . S
H1132 C1138 0.949 . S
C1133 H1128 0.950 . S
C1133 C1135 1.327 . S
C1133 C1139 1.429 . S
C1134 C1126 1.574 . S
C1134 H1129 0.949 . S
C1134 C1140 1.368 . S
C1135 C1119 1.349 . S
C1135 H1127 0.950 . S
C1135 C1133 1.327 . S
C1136 C1124 1.349 . S
C1136 H1130 0.950 . S
C1136 C1137 1.327 . S
C1137 H1131 0.950 . S
C1137 C1136 1.327 . S
C1137 C1141 1.429 . S
C1138 C1121 1.574 . S
C1138 H1132 0.949 . S
C1138 C1142 1.368 . S
C1139 C1120 1.429 . S
C1139 C1133 1.429 . S
C1139 C1140 1.523 . S
C1140 C1121 1.368 . S
C1140 C1134 1.368 . S
C1140 C1139 1.523 . S
C1141 C1125 1.429 . S
C1141 C1137 1.429 . S
C1141 C1142 1.523 . S
C1142 C1126 1.368 . S
C1142 C1138 1.368 . S
C1142 C1141 1.523 . S
H1143 C1118 0.950 . S
H1144 C1120 0.950 . S
H1145 C1121 0.949 . S
H1146 C1123 0.950 . S
H1147 C1125 0.950 . S
C1148 C1149 1.349 1_554 S
C1148 C1150 1.327 . S
C1148 H1173 0.950 . S
C1149 C1148 1.349 1_556 S
C1149 C1165 1.349 1_545 S
C1150 C1148 1.327 . S
C1150 C1169 1.429 1_544 S
C1150 H1174 0.950 . S
C1151 C1168 1.574 . S
C1151 C1170 1.368 1_556 S
C1151 H1175 0.949 . S
H1152 C1156 0.949 . S
C1153 C1154 1.349 . S
C1153 C1155 1.327 . S
C1153 H1176 0.950 . S
C1154 C1153 1.349 . S
C1154 C1166 1.349 . S
C1155 C1153 1.327 . S
C1155 C1171 1.429 . S
C1155 H1177 0.950 1_554 S
C1156 H1152 0.949 . S
C1156 C1164 1.574 . S
C1156 C1172 1.368 . S
H1157 C1165 0.950 . S
H1158 C1163 0.950 . S
H1159 C1164 0.949 . S
H1160 C1166 0.950 . S
H1161 C1167 0.950 . S
H1162 C1168 0.949 . S
C1163 H1158 0.950 . S
C1163 C1165 1.327 . S
C1163 C1169 1.429 . S
C1164 C1156 1.574 . S
C1164 H1159 0.949 . S
C1164 C1170 1.368 . S
C1165 C1149 1.349 1_565 S
C1165 H1157 0.950 . S
C1165 C1163 1.327 . S
C1166 C1154 1.349 . S
C1166 H1160 0.950 . S
C1166 C1167 1.327 . S
C1167 H1161 0.950 . S
C1167 C1166 1.327 . S
C1167 C1171 1.429 . S
C1168 C1151 1.574 . S
C1168 H1162 0.949 . S
C1168 C1172 1.368 1_556 S
C1169 C1150 1.429 1_566 S
C1169 C1163 1.429 . S
C1169 C1170 1.523 1_556 S
C1170 C1151 1.368 1_554 S
C1170 C1164 1.368 . S
C1170 C1169 1.523 1_554 S
C1171 C1155 1.429 . S
C1171 C1167 1.429 . S
C1171 C1172 1.523 . S
C1172 C1156 1.368 . S
C1172 C1168 1.368 1_554 S
C1172 C1171 1.523 . S
H1173 C1148 0.950 . S
H1174 C1150 0.950 . S
H1175 C1151 0.949 . S
H1176 C1153 0.950 . S
H1177 C1155 0.950 1_556 S
C1178 C1179 1.349 . S
C1178 C1180 1.327 . S
C1178 H1203 0.950 . S
C1179 C1178 1.349 . S
C1179 C1195 1.349 . S
C1180 C1178 1.327 . S
C1180 C1199 1.429 . S
C1180 H1204 0.950 . S
C1181 C1198 1.574 . S
C1181 C1200 1.368 . S
C1181 H1205 0.949 . S
H1182 C1186 0.949 . S
C1183 C1184 1.349 . S
C1183 C1185 1.327 . S
C1183 H1206 0.950 . S
C1184 C1183 1.349 . S
C1184 C1196 1.349 . S
C1185 C1183 1.327 . S
C1185 C1201 1.429 . S
C1185 H1207 0.950 . S
C1186 H1182 0.949 . S
C1186 C1194 1.574 . S
C1186 C1202 1.368 . S
H1187 C1195 0.950 . S
H1188 C1193 0.950 . S
H1189 C1194 0.949 . S
H1190 C1196 0.950 . S
H1191 C1197 0.950 . S
H1192 C1198 0.949 . S
C1193 H1188 0.950 . S
C1193 C1195 1.327 . S
C1193 C1199 1.429 . S
C1194 C1186 1.574 . S
C1194 H1189 0.949 . S
C1194 C1200 1.368 . S
C1195 C1179 1.349 . S
C1195 H1187 0.950 . S
C1195 C1193 1.327 . S
C1196 C1184 1.349 . S
C1196 H1190 0.950 . S
C1196 C1197 1.327 . S
C1197 H1191 0.950 . S
C1197 C1196 1.327 . S
C1197 C1201 1.429 . S
C1198 C1181 1.574 . S
C1198 H1192 0.949 . S
C1198 C1202 1.368 . S
C1199 C1180 1.429 . S
C1199 C1193 1.429 . S
C1199 C1200 1.523 . S
C1200 C1181 1.368 . S
C1200 C1194 1.368 . S
C1200 C1199 1.523 . S
C1201 C1185 1.429 . S
C1201 C1197 1.429 . S
C1201 C1202 1.523 . S
C1202 C1186 1.368 . S
C1202 C1198 1.368 . S
C1202 C1201 1.523 . S
H1203 C1178 0.950 . S
H1204 C1180 0.950 . S
H1205 C1181 0.949 . S
H1206 C1183 0.950 . S
H1207 C1185 0.950 . S
C1208 C1209 1.349 . S
C1208 C1210 1.327 . S
C1208 H1233 0.950 . S
C1209 C1208 1.349 . S
C1209 C1225 1.349 . S
C1210 C1208 1.327 . S
C1210 C1229 1.429 . S
C1210 H1234 0.950 . S
C1211 C1228 1.574 . S
C1211 C1230 1.368 . S
C1211 H1235 0.949 . S
H1212 C1216 0.949 . S
C1213 C1214 1.349 . S
C1213 C1215 1.327 . S
C1213 H1236 0.950 . S
C1214 C1213 1.349 . S
C1214 C1226 1.349 . S
C1215 C1213 1.327 . S
C1215 C1231 1.429 . S
C1215 H1237 0.950 . S
C1216 H1212 0.949 . S
C1216 C1224 1.574 . S
C1216 C1232 1.368 . S
H1217 C1225 0.950 1_565 S
H1218 C1223 0.950 . S
H1219 C1224 0.949 . S
H1220 C1226 0.950 . S
H1221 C1227 0.950 . S
H1222 C1228 0.949 . S
C1223 H1218 0.950 . S
C1223 C1225 1.327 . S
C1223 C1229 1.429 . S
C1224 C1216 1.574 . S
C1224 H1219 0.949 . S
C1224 C1230 1.368 . S
C1225 C1209 1.349 . S
C1225 H1217 0.950 1_545 S
C1225 C1223 1.327 . S
C1226 C1214 1.349 . S
C1226 H1220 0.950 . S
C1226 C1227 1.327 . S
C1227 H1221 0.950 . S
C1227 C1226 1.327 . S
C1227 C1231 1.429 . S
C1228 C1211 1.574 . S
C1228 H1222 0.949 . S
C1228 C1232 1.368 . S
C1229 C1210 1.429 . S
C1229 C1223 1.429 . S
C1229 C1230 1.523 . S
C1230 C1211 1.368 . S
C1230 C1224 1.368 . S
C1230 C1229 1.523 . S
C1231 C1215 1.429 . S
C1231 C1227 1.429 . S
C1231 C1232 1.523 . S
C1232 C1216 1.368 . S
C1232 C1228 1.368 . S
C1232 C1231 1.523 . S
H1233 C1208 0.950 . S
H1234 C1210 0.950 . S
H1235 C1211 0.949 . S
H1236 C1213 0.950 . S
H1237 C1215 0.950 . S
C1238 C1239 1.349 . S
C1238 C1240 1.327 . S
C1238 H1263 0.950 . S
C1239 C1238 1.349 . S
C1239 C1255 1.349 . S
C1240 C1238 1.327 . S
C1240 C1259 1.429 . S
C1240 H1264 0.950 . S
C1241 C1258 1.574 . S
C1241 C1260 1.368 . S
C1241 H1265 0.949 . S
H1242 C1246 0.949 . S
C1243 C1244 1.349 . S
C1243 C1245 1.327 . S
C1243 H1266 0.950 . S
C1244 C1243 1.349 . S
C1244 C1256 1.349 . S
C1245 C1243 1.327 . S
C1245 C1261 1.429 . S
C1245 H1267 0.950 . S
C1246 H1242 0.949 . S
C1246 C1254 1.574 . S
C1246 C1262 1.368 . S
H1247 C1255 0.950 . S
H1248 C1253 0.950 . S
H1249 C1254 0.949 . S
H1250 C1256 0.950 . S
H1251 C1257 0.950 . S
H1252 C1258 0.949 . S
C1253 H1248 0.950 . S
C1253 C1255 1.327 . S
C1253 C1259 1.429 . S
C1254 C1246 1.574 . S
C1254 H1249 0.949 . S
C1254 C1260 1.368 . S
C1255 C1239 1.349 . S
C1255 H1247 0.950 . S
C1255 C1253 1.327 . S
C1256 C1244 1.349 . S
C1256 H1250 0.950 . S
C1256 C1257 1.327 . S
C1257 H1251 0.950 . S
C1257 C1256 1.327 . S
C1257 C1261 1.429 . S
C1258 C1241 1.574 . S
C1258 H1252 0.949 . S
C1258 C1262 1.368 . S
C1259 C1240 1.429 . S
C1259 C1253 1.429 . S
C1259 C1260 1.523 . S
C1260 C1241 1.368 . S
C1260 C1254 1.368 . S
C1260 C1259 1.523 . S
C1261 C1245 1.429 . S
C1261 C1257 1.429 . S
C1261 C1262 1.523 . S
C1262 C1246 1.368 . S
C1262 C1258 1.368 . S
C1262 C1261 1.523 . S
H1263 C1238 0.950 . S
H1264 C1240 0.950 . S
H1265 C1241 0.949 . S
H1266 C1243 0.950 . S
H1267 C1245 0.950 . S
C1268 C1269 1.349 . S
C1268 C1270 1.327 . S
C1268 H1293 0.950 . S
C1269 C1268 1.349 . S
C1269 C1285 1.349 . S
C1270 C1268 1.327 . S
C1270 C1289 1.429 . S
C1270 H1294 0.950 . S
C1271 C1288 1.574 . S
C1271 C1290 1.368 . S
C1271 H1295 0.949 . S
H1272 C1276 0.949 . S
C1273 C1274 1.349 . S
C1273 C1275 1.327 . S
C1273 H1296 0.950 . S
C1274 C1273 1.349 . S
C1274 C1286 1.349 . S
C1275 C1273 1.327 . S
C1275 C1291 1.429 . S
C1275 H1297 0.950 . S
C1276 H1272 0.949 . S
C1276 C1284 1.574 . S
C1276 C1292 1.368 . S
H1277 C1285 0.950 . S
H1278 C1283 0.950 . S
H1279 C1284 0.949 . S
H1280 C1286 0.950 . S
H1281 C1287 0.950 . S
H1282 C1288 0.949 . S
C1283 H1278 0.950 . S
C1283 C1285 1.327 . S
C1283 C1289 1.429 . S
C1284 C1276 1.574 . S
C1284 H1279 0.949 . S
C1284 C1290 1.368 . S
C1285 C1269 1.349 . S
C1285 H1277 0.950 . S
C1285 C1283 1.327 . S
C1286 C1274 1.349 . S
C1286 H1280 0.950 . S
C1286 C1287 1.327 . S
C1287 H1281 0.950 . S
C1287 C1286 1.327 . S
C1287 C1291 1.429 . S
C1288 C1271 1.574 . S
C1288 H1282 0.949 . S
C1288 C1292 1.368 . S
C1289 C1270 1.429 . S
C1289 C1283 1.429 . S
C1289 C1290 1.523 . S
C1290 C1271 1.368 . S
C1290 C1284 1.368 . S
C1290 C1289 1.523 . S
C1291 C1275 1.429 . S
C1291 C1287 1.429 . S
C1291 C1292 1.523 . S
C1292 C1276 1.368 . S
C1292 C1288 1.368 . S
C1292 C1291 1.523 . S
H1293 C1268 0.950 . S
H1294 C1270 0.950 . S
H1295 C1271 0.949 . S
H1296 C1273 0.950 . S
H1297 C1275 0.950 . S
C1298 C1299 1.349 . S
C1298 C1300 1.327 . S
C1298 H1323 0.950 . S
C1299 C1298 1.349 . S
C1299 C1315 1.349 . S
C1300 C1298 1.327 . S
C1300 C1319 1.429 . S
C1300 H1324 0.950 . S
C1301 C1318 1.574 . S
C1301 C1320 1.368 . S
C1301 H1325 0.949 . S
H1302 C1306 0.949 . S
C1303 C1304 1.349 . S
C1303 C1305 1.327 . S
C1303 H1326 0.950 . S
C1304 C1303 1.349 . S
C1304 C1316 1.349 . S
C1305 C1303 1.327 . S
C1305 C1321 1.429 . S
C1305 H1327 0.950 . S
C1306 H1302 0.949 . S
C1306 C1314 1.574 . S
C1306 C1322 1.368 . S
H1307 C1315 0.950 . S
H1308 C1313 0.950 . S
H1309 C1314 0.949 . S
H1310 C1316 0.950 . S
H1311 C1317 0.950 . S
H1312 C1318 0.949 . S
C1313 H1308 0.950 . S
C1313 C1315 1.327 . S
C1313 C1319 1.429 . S
C1314 C1306 1.574 . S
C1314 H1309 0.949 . S
C1314 C1320 1.368 . S
C1315 C1299 1.349 . S
C1315 H1307 0.950 . S
C1315 C1313 1.327 . S
C1316 C1304 1.349 . S
C1316 H1310 0.950 . S
C1316 C1317 1.327 . S
C1317 H1311 0.950 . S
C1317 C1316 1.327 . S
C1317 C1321 1.429 . S
C1318 C1301 1.574 . S
C1318 H1312 0.949 . S
C1318 C1322 1.368 . S
C1319 C1300 1.429 . S
C1319 C1313 1.429 . S
C1319 C1320 1.523 . S
C1320 C1301 1.368 . S
C1320 C1314 1.368 . S
C1320 C1319 1.523 . S
C1321 C1305 1.429 . S
C1321 C1317 1.429 . S
C1321 C1322 1.523 . S
C1322 C1306 1.368 . S
C1322 C1318 1.368 . S
C1322 C1321 1.523 . S
H1323 C1298 0.950 . S
H1324 C1300 0.950 . S
H1325 C1301 0.949 . S
H1326 C1303 0.950 . S
H1327 C1305 0.950 . S
C1328 C1329 1.349 . S
C1328 C1330 1.327 . S
C1328 H1353 0.950 . S
C1329 C1328 1.349 . S
C1329 C1345 1.349 . S
C1330 C1328 1.327 . S
C1330 C1349 1.429 . S
C1330 H1354 0.950 . S
C1331 C1348 1.574 . S
C1331 C1350 1.368 . S
C1331 H1355 0.949 . S
H1332 C1336 0.949 . S
C1333 C1334 1.349 . S
C1333 C1335 1.327 . S
C1333 H1356 0.950 . S
C1334 C1333 1.349 . S
C1334 C1346 1.349 . S
C1335 C1333 1.327 . S
C1335 C1351 1.429 . S
C1335 H1357 0.950 . S
C1336 H1332 0.949 . S
C1336 C1344 1.574 . S
C1336 C1352 1.368 . S
H1337 C1345 0.950 . S
H1338 C1343 0.950 . S
H1339 C1344 0.949 . S
H1340 C1346 0.950 . S
H1341 C1347 0.950 . S
H1342 C1348 0.949 . S
C1343 H1338 0.950 . S
C1343 C1345 1.327 . S
C1343 C1349 1.429 . S
C1344 C1336 1.574 . S
C1344 H1339 0.949 . S
C1344 C1350 1.368 . S
C1345 C1329 1.349 . S
C1345 H1337 0.950 . S
C1345 C1343 1.327 . S
C1346 C1334 1.349 . S
C1346 H1340 0.950 . S
C1346 C1347 1.327 . S
C1347 H1341 0.950 . S
C1347 C1346 1.327 . S
C1347 C1351 1.429 . S
C1348 C1331 1.574 . S
C1348 H1342 0.949 . S
C1348 C1352 1.368 . S
C1349 C1330 1.429 . S
C1349 C1343 1.429 . S
C1349 C1350 1.523 . S
C1350 C1331 1.368 . S
C1350 C1344 1.368 . S
C1350 C1349 1.523 . S
C1351 C1335 1.429 . S
C1351 C1347 1.429 . S
C1351 C1352 1.523 . S
C1352 C1336 1.368 . S
C1352 C1348 1.368 . S
C1352 C1351 1.523 . S
H1353 C1328 0.950 . S
H1354 C1330 0.950 . S
H1355 C1331 0.949 . S
H1356 C1333 0.950 . S
H1357 C1335 0.950 . S
C1358 C1359 1.349 . S
C1358 C1360 1.327 . S
C1358 H1383 0.950 . S
C1359 C1358 1.349 . S
C1359 C1375 1.349 . S
C1360 C1358 1.327 . S
C1360 C1379 1.429 . S
C1360 H1384 0.951 . S
C1361 C1378 1.574 . S
C1361 C1380 1.368 . S
C1361 H1385 0.949 . S
H1362 C1366 0.949 1_565 S
C1363 C1364 1.349 . S
C1363 C1365 1.327 . S
C1363 H1386 0.950 . S
C1364 C1363 1.349 . S
C1364 C1376 1.349 1_545 S
C1365 C1363 1.327 . S
C1365 C1381 1.429 . S
C1365 H1387 0.950 . S
C1366 H1362 0.949 1_545 S
C1366 C1374 1.574 . S
C1366 C1382 1.368 . S
H1367 C1375 0.950 . S
H1368 C1373 0.950 . S
H1369 C1374 0.949 1_565 S
H1370 C1376 0.950 . S
H1371 C1377 0.950 . S
H1372 C1378 0.949 . S
C1373 H1368 0.950 . S
C1373 C1375 1.327 . S
C1373 C1379 1.429 . S
C1374 C1366 1.574 . S
C1374 H1369 0.949 1_545 S
C1374 C1380 1.368 . S
C1375 C1359 1.349 . S
C1375 H1367 0.950 . S
C1375 C1373 1.327 . S
C1376 C1364 1.349 1_565 S
C1376 H1370 0.950 . S
C1376 C1377 1.327 . S
C1377 H1371 0.950 . S
C1377 C1376 1.327 . S
C1377 C1381 1.429 1_565 S
C1378 C1361 1.574 . S
C1378 H1372 0.949 . S
C1378 C1382 1.368 . S
C1379 C1360 1.429 . S
C1379 C1373 1.429 . S
C1379 C1380 1.523 . S
C1380 C1361 1.368 . S
C1380 C1374 1.368 . S
C1380 C1379 1.523 . S
C1381 C1365 1.429 . S
C1381 C1377 1.429 1_545 S
C1381 C1382 1.523 . S
C1382 C1366 1.368 . S
C1382 C1378 1.368 . S
C1382 C1381 1.523 . S
H1383 C1358 0.950 . S
H1384 C1360 0.951 . S
H1385 C1361 0.949 . S
H1386 C1363 0.950 . S
H1387 C1365 0.950 . S
C1388 C1389 1.349 . S
C1388 C1390 1.327 . S
C1388 H1413 0.950 . S
C1389 C1388 1.349 . S
C1389 C1405 1.349 . S
C1390 C1388 1.327 . S
C1390 C1409 1.429 . S
C1390 H1414 0.950 . S
C1391 C1408 1.574 . S
C1391 C1410 1.368 . S
C1391 H1415 0.949 . S
H1392 C1396 0.949 . S
C1393 C1394 1.349 . S
C1393 C1395 1.327 . S
C1393 H1416 0.950 . S
C1394 C1393 1.349 . S
C1394 C1406 1.349 . S
C1395 C1393 1.327 . S
C1395 C1411 1.429 . S
C1395 H1417 0.950 . S
C1396 H1392 0.949 . S
C1396 C1404 1.574 . S
C1396 C1412 1.368 . S
H1397 C1405 0.950 . S
H1398 C1403 0.950 . S
H1399 C1404 0.949 . S
H1400 C1406 0.950 . S
H1401 C1407 0.950 . S
H1402 C1408 0.949 . S
C1403 H1398 0.950 . S
C1403 C1405 1.327 . S
C1403 C1409 1.429 . S
C1404 C1396 1.574 . S
C1404 H1399 0.949 . S
C1404 C1410 1.368 . S
C1405 C1389 1.349 . S
C1405 H1397 0.950 . S
C1405 C1403 1.327 . S
C1406 C1394 1.349 . S
C1406 H1400 0.950 . S
C1406 C1407 1.327 . S
C1407 H1401 0.950 . S
C1407 C1406 1.327 . S
C1407 C1411 1.429 . S
C1408 C1391 1.574 . S
C1408 H1402 0.949 . S
C1408 C1412 1.368 . S
C1409 C1390 1.429 . S
C1409 C1403 1.429 . S
C1409 C1410 1.523 . S
C1410 C1391 1.368 . S
C1410 C1404 1.368 . S
C1410 C1409 1.523 . S
C1411 C1395 1.429 . S
C1411 C1407 1.429 . S
C1411 C1412 1.523 . S
C1412 C1396 1.368 . S
C1412 C1408 1.368 . S
C1412 C1411 1.523 . S
H1413 C1388 0.950 . S
H1414 C1390 0.950 . S
H1415 C1391 0.949 . S
H1416 C1393 0.950 . S
H1417 C1395 0.950 . S
C1418 C1419 1.349 . S
C1418 C1420 1.327 . S
C1418 H1443 0.950 . S
C1419 C1418 1.349 . S
C1419 C1435 1.349 . S
C1420 C1418 1.327 . S
C1420 C1439 1.429 . S
C1420 H1444 0.950 . S
C1421 C1438 1.574 . S
C1421 C1440 1.368 . S
C1421 H1445 0.949 . S
H1422 C1426 0.949 . S
C1423 C1424 1.349 . S
C1423 C1425 1.327 . S
C1423 H1446 0.950 . S
C1424 C1423 1.349 . S
C1424 C1436 1.349 . S
C1425 C1423 1.327 . S
C1425 C1441 1.429 . S
C1425 H1447 0.950 . S
C1426 H1422 0.949 . S
C1426 C1434 1.574 . S
C1426 C1442 1.368 . S
H1427 C1435 0.950 . S
H1428 C1433 0.950 . S
H1429 C1434 0.949 . S
H1430 C1436 0.950 . S
H1431 C1437 0.950 . S
H1432 C1438 0.949 . S
C1433 H1428 0.950 . S
C1433 C1435 1.327 . S
C1433 C1439 1.429 . S
C1434 C1426 1.574 . S
C1434 H1429 0.949 . S
C1434 C1440 1.368 . S
C1435 C1419 1.349 . S
C1435 H1427 0.950 . S
C1435 C1433 1.327 . S
C1436 C1424 1.349 . S
C1436 H1430 0.950 . S
C1436 C1437 1.327 . S
C1437 H1431 0.950 . S
C1437 C1436 1.327 . S
C1437 C1441 1.429 . S
C1438 C1421 1.574 . S
C1438 H1432 0.949 . S
C1438 C1442 1.368 . S
C1439 C1420 1.429 . S
C1439 C1433 1.429 . S
C1439 C1440 1.523 . S
C1440 C1421 1.368 . S
C1440 C1434 1.368 . S
C1440 C1439 1.523 . S
C1441 C1425 1.429 . S
C1441 C1437 1.429 . S
C1441 C1442 1.523 . S
C1442 C1426 1.368 . S
C1442 C1438 1.368 . S
C1442 C1441 1.523 . S
H1443 C1418 0.950 . S
H1444 C1420 0.950 . S
H1445 C1421 0.949 . S
H1446 C1423 0.950 . S
H1447 C1425 0.950 . S
C1448 C1449 1.349 . S
C1448 C1450 1.327 . S
C1448 H1473 0.950 . S
C1449 C1448 1.349 . S
C1449 C1465 1.349 . S
C1450 C1448 1.327 . S
C1450 C1469 1.429 . S
C1450 H1474 0.950 . S
C1451 C1468 1.574 . S
C1451 C1470 1.368 . S
C1451 H1475 0.949 . S
H1452 C1456 0.949 . S
C1453 C1454 1.349 . S
C1453 C1455 1.327 . S
C1453 H1476 0.950 . S
C1454 C1453 1.349 . S
C1454 C1466 1.349 . S
C1455 C1453 1.327 . S
C1455 C1471 1.429 . S
C1455 H1477 0.950 . S
C1456 H1452 0.949 . S
C1456 C1464 1.574 . S
C1456 C1472 1.368 . S
H1457 C1465 0.950 . S
H1458 C1463 0.950 . S
H1459 C1464 0.949 . S
H1460 C1466 0.950 . S
H1461 C1467 0.950 . S
H1462 C1468 0.949 . S
C1463 H1458 0.950 . S
C1463 C1465 1.327 . S
C1463 C1469 1.429 . S
C1464 C1456 1.574 . S
C1464 H1459 0.949 . S
C1464 C1470 1.368 . S
C1465 C1449 1.349 . S
C1465 H1457 0.950 . S
C1465 C1463 1.327 . S
C1466 C1454 1.349 . S
C1466 H1460 0.950 . S
C1466 C1467 1.327 . S
C1467 H1461 0.950 . S
C1467 C1466 1.327 . S
C1467 C1471 1.429 . S
C1468 C1451 1.574 . S
C1468 H1462 0.949 . S
C1468 C1472 1.368 . S
C1469 C1450 1.429 . S
C1469 C1463 1.429 . S
C1469 C1470 1.523 . S
C1470 C1451 1.368 . S
C1470 C1464 1.368 . S
C1470 C1469 1.523 . S
C1471 C1455 1.429 . S
C1471 C1467 1.429 . S
C1471 C1472 1.523 . S
C1472 C1456 1.368 . S
C1472 C1468 1.368 . S
C1472 C1471 1.523 . S
H1473 C1448 0.950 . S
H1474 C1450 0.950 . S
H1475 C1451 0.949 . S
H1476 C1453 0.950 . S
H1477 C1455 0.950 . S
C1478 C1479 1.349 . S
C1478 C1480 1.327 . S
C1478 H1503 0.950 . S
C1479 C1478 1.349 . S
C1479 C1495 1.349 . S
C1480 C1478 1.327 . S
C1480 C1499 1.429 . S
C1480 H1504 0.950 . S
C1481 C1498 1.577 1_455 S
C1481 C1500 1.368 . S
C1481 H1505 0.949 . S
H1482 C1486 0.949 . S
C1483 C1484 1.349 . S
C1483 C1485 1.327 . S
C1483 H1506 0.950 . S
C1484 C1483 1.349 . S
C1484 C1496 1.349 . S
C1485 C1483 1.327 . S
C1485 C1501 1.429 . S
C1485 H1507 0.950 . S
C1486 H1482 0.949 . S
C1486 C1494 1.574 . S
C1486 C1502 1.368 . S
H1487 C1495 0.950 . S
H1488 C1493 0.950 . S
H1489 C1494 0.949 . S
H1490 C1496 0.950 . S
H1491 C1497 0.950 . S
H1492 C1498 0.950 1_455 S
C1493 H1488 0.950 . S
C1493 C1495 1.327 . S
C1493 C1499 1.429 . S
C1494 C1486 1.574 . S
C1494 H1489 0.949 . S
C1494 C1500 1.368 1_655 S
C1495 C1479 1.349 . S
C1495 H1487 0.950 . S
C1495 C1493 1.327 . S
C1496 C1484 1.349 . S
C1496 H1490 0.950 . S
C1496 C1497 1.327 . S
C1497 H1491 0.950 . S
C1497 C1496 1.327 . S
C1497 C1501 1.429 . S
C1498 C1481 1.577 1_655 S
C1498 H1492 0.950 1_655 S
C1498 C1502 1.364 . S
C1499 C1480 1.429 . S
C1499 C1493 1.429 . S
C1499 C1500 1.523 . S
C1500 C1481 1.368 . S
C1500 C1494 1.368 1_455 S
C1500 C1499 1.523 . S
C1501 C1485 1.429 . S
C1501 C1497 1.429 . S
C1501 C1502 1.523 . S
C1502 C1486 1.368 . S
C1502 C1498 1.364 . S
C1502 C1501 1.523 . S
H1503 C1478 0.950 . S
H1504 C1480 0.950 . S
H1505 C1481 0.949 . S
H1506 C1483 0.950 . S
H1507 C1485 0.950 . S
C1508 C1509 1.349 . S
C1508 C1510 1.327 . S
C1508 H1533 0.950 . S
C1509 C1508 1.349 . S
C1509 C1525 1.349 . S
C1510 C1508 1.327 . S
C1510 C1529 1.429 . S
C1510 H1534 0.950 . S
C1511 C1528 1.574 . S
C1511 C1530 1.368 . S
C1511 H1535 0.949 . S
H1512 C1516 0.949 . S
C1513 C1514 1.349 . S
C1513 C1515 1.327 . S
C1513 H1536 0.950 . S
C1514 C1513 1.349 . S
C1514 C1526 1.349 . S
C1515 C1513 1.327 . S
C1515 C1531 1.429 . S
C1515 H1537 0.950 . S
C1516 H1512 0.949 . S
C1516 C1524 1.574 . S
C1516 C1532 1.368 . S
H1517 C1525 0.950 . S
H1518 C1523 0.950 . S
H1519 C1524 0.949 . S
H1520 C1526 0.950 . S
H1521 C1527 0.950 . S
H1522 C1528 0.949 . S
C1523 H1518 0.950 . S
C1523 C1525 1.327 . S
C1523 C1529 1.429 . S
C1524 C1516 1.574 . S
C1524 H1519 0.949 . S
C1524 C1530 1.368 . S
C1525 C1509 1.349 . S
C1525 H1517 0.950 . S
C1525 C1523 1.327 . S
C1526 C1514 1.349 . S
C1526 H1520 0.950 . S
C1526 C1527 1.327 . S
C1527 H1521 0.950 . S
C1527 C1526 1.327 . S
C1527 C1531 1.429 . S
C1528 C1511 1.574 . S
C1528 H1522 0.949 . S
C1528 C1532 1.368 . S
C1529 C1510 1.429 . S
C1529 C1523 1.429 . S
C1529 C1530 1.523 . S
C1530 C1511 1.368 . S
C1530 C1524 1.368 . S
C1530 C1529 1.523 . S
C1531 C1515 1.429 . S
C1531 C1527 1.429 . S
C1531 C1532 1.523 . S
C1532 C1516 1.368 . S
C1532 C1528 1.368 . S
C1532 C1531 1.523 . S
H1533 C1508 0.950 . S
H1534 C1510 0.950 . S
H1535 C1511 0.949 . S
H1536 C1513 0.950 . S
H1537 C1515 0.950 . S
C1538 C1539 1.349 . S
C1538 C1540 1.327 . S
C1538 H1563 0.950 . S
C1539 C1538 1.349 . S
C1539 C1555 1.349 . S
C1540 C1538 1.327 . S
C1540 C1559 1.429 . S
C1540 H1564 0.950 . S
C1541 C1558 1.574 . S
C1541 C1560 1.368 . S
C1541 H1565 0.949 . S
H1542 C1546 0.949 . S
C1543 C1544 1.349 . S
C1543 C1545 1.327 . S
C1543 H1566 0.950 . S
C1544 C1543 1.349 . S
C1544 C1556 1.349 . S
C1545 C1543 1.327 . S
C1545 C1561 1.429 . S
C1545 H1567 0.950 . S
C1546 H1542 0.949 . S
C1546 C1554 1.574 . S
C1546 C1562 1.368 . S
H1547 C1555 0.950 . S
H1548 C1553 0.950 . S
H1549 C1554 0.949 . S
H1550 C1556 0.950 . S
H1551 C1557 0.950 . S
H1552 C1558 0.949 . S
C1553 H1548 0.950 . S
C1553 C1555 1.327 . S
C1553 C1559 1.429 . S
C1554 C1546 1.574 . S
C1554 H1549 0.949 . S
C1554 C1560 1.368 . S
C1555 C1539 1.349 . S
C1555 H1547 0.950 . S
C1555 C1553 1.327 . S
C1556 C1544 1.349 . S
C1556 H1550 0.950 . S
C1556 C1557 1.327 . S
C1557 H1551 0.950 . S
C1557 C1556 1.327 . S
C1557 C1561 1.429 . S
C1558 C1541 1.574 . S
C1558 H1552 0.949 . S
C1558 C1562 1.368 . S
C1559 C1540 1.429 . S
C1559 C1553 1.429 . S
C1559 C1560 1.523 . S
C1560 C1541 1.368 . S
C1560 C1554 1.368 . S
C1560 C1559 1.523 . S
C1561 C1545 1.429 . S
C1561 C1557 1.429 . S
C1561 C1562 1.523 . S
C1562 C1546 1.368 . S
C1562 C1558 1.368 . S
C1562 C1561 1.523 . S
H1563 C1538 0.950 . S
H1564 C1540 0.950 . S
H1565 C1541 0.949 . S
H1566 C1543 0.950 . S
H1567 C1545 0.950 . S
C1568 C1569 1.349 . S
C1568 C1570 1.327 . S
C1568 H1593 0.950 . S
C1569 C1568 1.349 . S
C1569 C1585 1.349 . S
C1570 C1568 1.327 . S
C1570 C1589 1.429 . S
C1570 H1594 0.950 . S
C1571 C1588 1.574 . S
C1571 C1590 1.368 . S
C1571 H1595 0.949 . S
H1572 C1576 0.949 . S
C1573 C1574 1.349 . S
C1573 C1575 1.327 . S
C1573 H1596 0.950 . S
C1574 C1573 1.349 . S
C1574 C1586 1.349 . S
C1575 C1573 1.327 . S
C1575 C1591 1.429 . S
C1575 H1597 0.950 . S
C1576 H1572 0.949 . S
C1576 C1584 1.574 . S
C1576 C1592 1.368 . S
H1577 C1585 0.950 . S
H1578 C1583 0.950 . S
H1579 C1584 0.949 . S
H1580 C1586 0.950 . S
H1581 C1587 0.950 . S
H1582 C1588 0.949 . S
C1583 H1578 0.950 . S
C1583 C1585 1.327 . S
C1583 C1589 1.429 . S
C1584 C1576 1.574 . S
C1584 H1579 0.949 . S
C1584 C1590 1.368 . S
C1585 C1569 1.349 . S
C1585 H1577 0.950 . S
C1585 C1583 1.327 . S
C1586 C1574 1.349 . S
C1586 H1580 0.950 . S
C1586 C1587 1.327 . S
C1587 H1581 0.950 . S
C1587 C1586 1.327 . S
C1587 C1591 1.429 . S
C1588 C1571 1.574 . S
C1588 H1582 0.949 . S
C1588 C1592 1.368 . S
C1589 C1570 1.429 . S
C1589 C1583 1.429 . S
C1589 C1590 1.523 . S
C1590 C1571 1.368 . S
C1590 C1584 1.368 . S
C1590 C1589 1.523 . S
C1591 C1575 1.429 . S
C1591 C1587 1.429 . S
C1591 C1592 1.523 . S
C1592 C1576 1.368 . S
C1592 C1588 1.368 . S
C1592 C1591 1.523 . S
H1593 C1568 0.950 . S
H1594 C1570 0.950 . S
H1595 C1571 0.949 . S
H1596 C1573 0.950 . S
H1597 C1575 0.950 . S
C1598 C1599 1.349 1_556 S
C1598 C1600 1.327 . S
C1598 H1623 0.950 . S
C1599 C1598 1.349 1_554 S
C1599 C1615 1.349 1_655 S
C1600 C1598 1.327 . S
C1600 C1619 1.429 1_655 S
C1600 H1624 0.950 . S
C1601 C1618 1.574 . S
C1601 C1620 1.368 . S
C1601 H1625 0.949 . S
H1602 C1606 0.949 . S
C1603 C1604 1.349 . S
C1603 C1605 1.327 . S
C1603 H1626 0.950 . S
C1604 C1603 1.349 . S
C1604 C1616 1.349 . S
C1605 C1603 1.327 . S
C1605 C1621 1.429 . S
C1605 H1627 0.950 . S
C1606 H1602 0.949 . S
C1606 C1614 1.574 . S
C1606 C1622 1.368 1_655 S
H1607 C1615 0.950 . S
H1608 C1613 0.950 . S
H1609 C1614 0.949 . S
H1610 C1616 0.950 1_655 S
H1611 C1617 0.950 1_655 S
H1612 C1618 0.949 . S
C1613 H1608 0.950 . S
C1613 C1615 1.327 . S
C1613 C1619 1.429 1_554 S
C1614 C1606 1.574 . S
C1614 H1609 0.949 . S
C1614 C1620 1.368 1_655 S
C1615 C1599 1.349 1_455 S
C1615 H1607 0.950 . S
C1615 C1613 1.327 . S
C1616 C1604 1.349 . S
C1616 H1610 0.950 1_455 S
C1616 C1617 1.327 . S
C1617 H1611 0.950 1_455 S
C1617 C1616 1.327 . S
C1617 C1621 1.429 . S
C1618 C1601 1.574 . S
C1618 H1612 0.949 . S
C1618 C1622 1.368 . S
C1619 C1600 1.429 1_455 S
C1619 C1613 1.429 1_556 S
C1619 C1620 1.523 . S
C1620 C1601 1.368 . S
C1620 C1614 1.368 1_455 S
C1620 C1619 1.523 . S
C1621 C1605 1.429 . S
C1621 C1617 1.429 . S
C1621 C1622 1.523 . S
C1622 C1606 1.368 1_455 S
C1622 C1618 1.368 . S
C1622 C1621 1.523 . S
H1623 C1598 0.950 . S
H1624 C1600 0.950 . S
H1625 C1601 0.949 . S
H1626 C1603 0.950 . S
H1627 C1605 0.950 . S
C1628 C1629 1.349 . S
C1628 C1630 1.327 . S
C1628 H1653 0.950 . S
C1629 C1628 1.349 . S
C1629 C1645 1.349 . S
C1630 C1628 1.327 . S
C1630 C1649 1.429 . S
C1630 H1654 0.950 . S
C1631 C1648 1.574 . S
C1631 C1650 1.368 . S
C1631 H1655 0.949 . S
H1632 C1636 0.949 . S
C1633 C1634 1.349 . S
C1633 C1635 1.327 . S
C1633 H1656 0.950 . S
C1634 C1633 1.349 . S
C1634 C1646 1.349 . S
C1635 C1633 1.327 . S
C1635 C1651 1.429 . S
C1635 H1657 0.950 . S
C1636 H1632 0.949 . S
C1636 C1644 1.574 . S
C1636 C1652 1.368 . S
H1637 C1645 0.950 . S
H1638 C1643 0.950 . S
H1639 C1644 0.949 . S
H1640 C1646 0.950 . S
H1641 C1647 0.950 . S
H1642 C1648 0.949 . S
C1643 H1638 0.950 . S
C1643 C1645 1.327 . S
C1643 C1649 1.429 . S
C1644 C1636 1.574 . S
C1644 H1639 0.949 . S
C1644 C1650 1.368 . S
C1645 C1629 1.349 . S
C1645 H1637 0.950 . S
C1645 C1643 1.327 . S
C1646 C1634 1.349 . S
C1646 H1640 0.950 . S
C1646 C1647 1.327 . S
C1647 H1641 0.950 . S
C1647 C1646 1.327 . S
C1647 C1651 1.429 . S
C1648 C1631 1.574 . S
C1648 H1642 0.949 . S
C1648 C1652 1.368 . S
C1649 C1630 1.429 . S
C1649 C1643 1.429 . S
C1649 C1650 1.523 . S
C1650 C1631 1.368 . S
C1650 C1644 1.368 . S
C1650 C1649 1.523 . S
C1651 C1635 1.429 . S
C1651 C1647 1.429 . S
C1651 C1652 1.523 . S
C1652 C1636 1.368 . S
C1652 C1648 1.368 . S
C1652 C1651 1.523 . S
H1653 C1628 0.950 . S
H1654 C1630 0.950 . S
H1655 C1631 0.949 . S
H1656 C1633 0.950 . S
H1657 C1635 0.950 . S
C1658 C1659 1.349 . S
C1658 C1660 1.327 . S
C1658 H1683 0.950 . S
C1659 C1658 1.349 . S
C1659 C1675 1.349 1_554 S
C1660 C1658 1.327 . S
C1660 C1679 1.429 1_554 S
C1660 H1684 0.950 . S
C1661 C1678 1.574 . S
C1661 C1680 1.368 . S
C1661 H1685 0.949 . S
H1662 C1666 0.949 . S
C1663 C1664 1.349 . S
C1663 C1665 1.327 . S
C1663 H1686 0.950 . S
C1664 C1663 1.349 . S
C1664 C1676 1.349 . S
C1665 C1663 1.327 . S
C1665 C1681 1.429 . S
C1665 H1687 0.950 . S
C1666 H1662 0.949 . S
C1666 C1674 1.574 . S
C1666 C1682 1.368 . S
H1667 C1675 0.950 . S
H1668 C1673 0.950 . S
H1669 C1674 0.949 . S
H1670 C1676 0.950 . S
H1671 C1677 0.950 . S
H1672 C1678 0.949 . S
C1673 H1668 0.950 . S
C1673 C1675 1.327 . S
C1673 C1679 1.429 . S
C1674 C1666 1.574 . S
C1674 H1669 0.949 . S
C1674 C1680 1.368 . S
C1675 C1659 1.349 1_556 S
C1675 H1667 0.950 . S
C1675 C1673 1.327 . S
C1676 C1664 1.349 . S
C1676 H1670 0.950 . S
C1676 C1677 1.327 . S
C1677 H1671 0.950 . S
C1677 C1676 1.327 . S
C1677 C1681 1.429 . S
C1678 C1661 1.574 . S
C1678 H1672 0.949 . S
C1678 C1682 1.368 . S
C1679 C1660 1.429 1_556 S
C1679 C1673 1.429 . S
C1679 C1680 1.523 . S
C1680 C1661 1.368 . S
C1680 C1674 1.368 . S
C1680 C1679 1.523 . S
C1681 C1665 1.429 . S
C1681 C1677 1.429 . S
C1681 C1682 1.523 . S
C1682 C1666 1.368 . S
C1682 C1678 1.368 . S
C1682 C1681 1.523 . S
H1683 C1658 0.950 . S
H1684 C1660 0.950 . S
H1685 C1661 0.949 . S
H1686 C1663 0.950 . S
H1687 C1665 0.950 . S
C1688 C1689 1.349 . S
C1688 C1690 1.327 . S
C1688 H1713 0.950 . S
C1689 C1688 1.349 . S
C1689 C1705 1.349 . S
C1690 C1688 1.327 . S
C1690 C1709 1.429 . S
C1690 H1714 0.950 . S
C1691 C1708 1.574 . S
C1691 C1710 1.368 . S
C1691 H1715 0.949 . S
H1692 C1696 0.949 . S
C1693 C1694 1.349 . S
C1693 C1695 1.327 . S
C1693 H1716 0.950 . S
C1694 C1693 1.349 . S
C1694 C1706 1.349 . S
C1695 C1693 1.327 . S
C1695 C1711 1.429 . S
C1695 H1717 0.950 . S
C1696 H1692 0.949 . S
C1696 C1704 1.574 . S
C1696 C1712 1.368 . S
H1697 C1705 0.950 . S
H1698 C1703 0.950 . S
H1699 C1704 0.949 . S
H1700 C1706 0.950 . S
H1701 C1707 0.950 . S
H1702 C1708 0.949 . S
C1703 H1698 0.950 . S
C1703 C1705 1.327 . S
C1703 C1709 1.429 . S
C1704 C1696 1.574 . S
C1704 H1699 0.949 . S
C1704 C1710 1.368 . S
C1705 C1689 1.349 . S
C1705 H1697 0.950 . S
C1705 C1703 1.327 . S
C1706 C1694 1.349 . S
C1706 H1700 0.950 . S
C1706 C1707 1.327 . S
C1707 H1701 0.950 . S
C1707 C1706 1.327 . S
C1707 C1711 1.429 . S
C1708 C1691 1.574 . S
C1708 H1702 0.949 . S
C1708 C1712 1.368 . S
C1709 C1690 1.429 . S
C1709 C1703 1.429 . S
C1709 C1710 1.523 . S
C1710 C1691 1.368 . S
C1710 C1704 1.368 . S
C1710 C1709 1.523 . S
C1711 C1695 1.429 . S
C1711 C1707 1.429 . S
C1711 C1712 1.523 . S
C1712 C1696 1.368 . S
C1712 C1708 1.368 . S
C1712 C1711 1.523 . S
H1713 C1688 0.950 . S
H1714 C1690 0.950 . S
H1715 C1691 0.949 . S
H1716 C1693 0.950 . S
H1717 C1695 0.950 . S
C1718 C1719 1.349 . S
C1718 C1720 1.327 . S
C1718 H1743 0.950 . S
C1719 C1718 1.349 . S
C1719 C1735 1.349 . S
C1720 C1718 1.327 . S
C1720 C1739 1.429 . S
C1720 H1744 0.950 . S
C1721 C1738 1.574 . S
C1721 C1740 1.368 . S
C1721 H1745 0.949 . S
H1722 C1726 0.949 . S
C1723 C1724 1.349 . S
C1723 C1725 1.327 . S
C1723 H1746 0.950 . S
C1724 C1723 1.349 . S
C1724 C1736 1.349 . S
C1725 C1723 1.327 . S
C1725 C1741 1.429 . S
C1725 H1747 0.950 . S
C1726 H1722 0.949 . S
C1726 C1734 1.574 . S
C1726 C1742 1.368 . S
H1727 C1735 0.950 . S
H1728 C1733 0.950 . S
H1729 C1734 0.949 . S
H1730 C1736 0.950 . S
H1731 C1737 0.950 . S
H1732 C1738 0.949 . S
C1733 H1728 0.950 . S
C1733 C1735 1.327 . S
C1733 C1739 1.429 . S
C1734 C1726 1.574 . S
C1734 H1729 0.949 . S
C1734 C1740 1.368 . S
C1735 C1719 1.349 . S
C1735 H1727 0.950 . S
C1735 C1733 1.327 . S
C1736 C1724 1.349 . S
C1736 H1730 0.950 . S
C1736 C1737 1.327 . S
C1737 H1731 0.950 . S
C1737 C1736 1.327 . S
C1737 C1741 1.429 . S
C1738 C1721 1.574 . S
C1738 H1732 0.949 . S
C1738 C1742 1.368 . S
C1739 C1720 1.429 . S
C1739 C1733 1.429 . S
C1739 C1740 1.523 . S
C1740 C1721 1.368 . S
C1740 C1734 1.368 . S
C1740 C1739 1.523 . S
C1741 C1725 1.429 . S
C1741 C1737 1.429 . S
C1741 C1742 1.523 . S
C1742 C1726 1.368 . S
C1742 C1738 1.368 . S
C1742 C1741 1.523 . S
H1743 C1718 0.950 . S
H1744 C1720 0.950 . S
H1745 C1721 0.949 . S
H1746 C1723 0.950 . S
H1747 C1725 0.950 . S
C1748 C1749 1.349 . S
C1748 C1750 1.327 . S
C1748 H1773 0.950 . S
C1749 C1748 1.349 . S
C1749 C1765 1.349 . S
C1750 C1748 1.327 . S
C1750 C1769 1.429 . S
C1750 H1774 0.950 . S
C1751 C1768 1.574 . S
C1751 C1770 1.368 . S
C1751 H1775 0.949 . S
H1752 C1756 0.949 . S
C1753 C1754 1.349 . S
C1753 C1755 1.327 . S
C1753 H1776 0.950 . S
C1754 C1753 1.349 . S
C1754 C1766 1.349 . S
C1755 C1753 1.327 . S
C1755 C1771 1.429 . S
C1755 H1777 0.950 . S
C1756 H1752 0.949 . S
C1756 C1764 1.574 . S
C1756 C1772 1.368 . S
H1757 C1765 0.950 . S
H1758 C1763 0.950 . S
H1759 C1764 0.949 . S
H1760 C1766 0.950 . S
H1761 C1767 0.950 . S
H1762 C1768 0.949 . S
C1763 H1758 0.950 . S
C1763 C1765 1.327 . S
C1763 C1769 1.429 . S
C1764 C1756 1.574 . S
C1764 H1759 0.949 . S
C1764 C1770 1.368 . S
C1765 C1749 1.349 . S
C1765 H1757 0.950 . S
C1765 C1763 1.327 . S
C1766 C1754 1.349 . S
C1766 H1760 0.950 . S
C1766 C1767 1.327 . S
C1767 H1761 0.950 . S
C1767 C1766 1.327 . S
C1767 C1771 1.429 . S
C1768 C1751 1.574 . S
C1768 H1762 0.949 . S
C1768 C1772 1.368 . S
C1769 C1750 1.429 . S
C1769 C1763 1.429 . S
C1769 C1770 1.523 . S
C1770 C1751 1.368 . S
C1770 C1764 1.368 . S
C1770 C1769 1.523 . S
C1771 C1755 1.429 . S
C1771 C1767 1.429 . S
C1771 C1772 1.523 . S
C1772 C1756 1.368 . S
C1772 C1768 1.368 . S
C1772 C1771 1.523 . S
H1773 C1748 0.950 . S
H1774 C1750 0.950 . S
H1775 C1751 0.949 . S
H1776 C1753 0.950 . S
H1777 C1755 0.950 . S
C1778 C1779 1.350 1_554 S
C1778 C1780 1.327 . S
C1778 H1803 0.950 . S
C1779 C1778 1.350 1_556 S
C1779 C1795 1.348 . S
C1780 C1778 1.327 . S
C1780 C1799 1.429 . S
C1780 H1804 0.950 . S
C1781 C1798 1.574 . S
C1781 C1800 1.368 . S
C1781 H1805 0.949 . S
H1782 C1786 0.949 . S
C1783 C1784 1.349 . S
C1783 C1785 1.327 . S
C1783 H1806 0.950 . S
C1784 C1783 1.349 . S
C1784 C1796 1.349 . S
C1785 C1783 1.327 . S
C1785 C1801 1.429 . S
C1785 H1807 0.950 . S
C1786 H1782 0.949 . S
C1786 C1794 1.574 . S
C1786 C1802 1.368 . S
H1787 C1795 0.950 . S
H1788 C1793 0.950 . S
H1789 C1794 0.949 . S
H1790 C1796 0.950 . S
H1791 C1797 0.950 . S
H1792 C1798 0.949 . S
C1793 H1788 0.950 . S
C1793 C1795 1.327 1_554 S
C1793 C1799 1.429 . S
C1794 C1786 1.574 . S
C1794 H1789 0.949 . S
C1794 C1800 1.368 . S
C1795 C1779 1.348 . S
C1795 H1787 0.950 . S
C1795 C1793 1.327 1_556 S
C1796 C1784 1.349 . S
C1796 H1790 0.950 . S
C1796 C1797 1.327 . S
C1797 H1791 0.950 . S
C1797 C1796 1.327 . S
C1797 C1801 1.429 . S
C1798 C1781 1.574 . S
C1798 H1792 0.949 . S
C1798 C1802 1.368 . S
C1799 C1780 1.429 . S
C1799 C1793 1.429 . S
C1799 C1800 1.523 . S
C1800 C1781 1.368 . S
C1800 C1794 1.368 . S
C1800 C1799 1.523 . S
C1801 C1785 1.429 . S
C1801 C1797 1.429 . S
C1801 C1802 1.523 . S
C1802 C1786 1.368 . S
C1802 C1798 1.368 . S
C1802 C1801 1.523 . S
H1803 C1778 0.950 . S
H1804 C1780 0.950 . S
H1805 C1781 0.949 . S
H1806 C1783 0.950 . S
H1807 C1785 0.950 . S
C1808 C1809 1.349 . S
C1808 C1810 1.327 . S
C1808 H1833 0.950 . S
C1809 C1808 1.349 . S
C1809 C1825 1.349 . S
C1810 C1808 1.327 . S
C1810 C1829 1.429 . S
C1810 H1834 0.950 . S
C1811 C1828 1.574 . S
C1811 C1830 1.368 . S
C1811 H1835 0.949 . S
H1812 C1816 0.949 . S
C1813 C1814 1.349 . S
C1813 C1815 1.327 . S
C1813 H1836 0.950 . S
C1814 C1813 1.349 . S
C1814 C1826 1.349 . S
C1815 C1813 1.327 . S
C1815 C1831 1.429 . S
C1815 H1837 0.950 . S
C1816 H1812 0.949 . S
C1816 C1824 1.574 . S
C1816 C1832 1.368 . S
H1817 C1825 0.950 . S
H1818 C1823 0.950 . S
H1819 C1824 0.949 . S
H1820 C1826 0.950 . S
H1821 C1827 0.950 . S
H1822 C1828 0.949 . S
C1823 H1818 0.950 . S
C1823 C1825 1.327 . S
C1823 C1829 1.429 . S
C1824 C1816 1.574 . S
C1824 H1819 0.949 . S
C1824 C1830 1.368 . S
C1825 C1809 1.349 . S
C1825 H1817 0.950 . S
C1825 C1823 1.327 . S
C1826 C1814 1.349 . S
C1826 H1820 0.950 . S
C1826 C1827 1.327 . S
C1827 H1821 0.950 . S
C1827 C1826 1.327 . S
C1827 C1831 1.429 . S
C1828 C1811 1.574 . S
C1828 H1822 0.949 . S
C1828 C1832 1.368 . S
C1829 C1810 1.429 . S
C1829 C1823 1.429 . S
C1829 C1830 1.523 . S
C1830 C1811 1.368 . S
C1830 C1824 1.368 . S
C1830 C1829 1.523 . S
C1831 C1815 1.429 . S
C1831 C1827 1.429 . S
C1831 C1832 1.523 . S
C1832 C1816 1.368 . S
C1832 C1828 1.368 . S
C1832 C1831 1.523 . S
H1833 C1808 0.950 . S
H1834 C1810 0.950 . S
H1835 C1811 0.949 . S
H1836 C1813 0.950 . S
H1837 C1815 0.950 . S
C1838 C1839 1.349 . S
C1838 C1840 1.327 . S
C1838 H1863 0.950 . S
C1839 C1838 1.349 . S
C1839 C1855 1.349 . S
C1840 C1838 1.327 . S
C1840 C1859 1.429 . S
C1840 H1864 0.950 . S
C1841 C1858 1.574 . S
C1841 C1860 1.368 . S
C1841 H1865 0.949 . S
H1842 C1846 0.949 . S
C1843 C1844 1.349 . S
C1843 C1845 1.327 . S
C1843 H1866 0.950 . S
C1844 C1843 1.349 . S
C1844 C1856 1.349 . S
C1845 C1843 1.327 . S
C1845 C1861 1.429 . S
C1845 H1867 0.950 . S
C1846 H1842 0.949 . S
C1846 C1854 1.574 . S
C1846 C1862 1.368 . S
H1847 C1855 0.950 . S
H1848 C1853 0.950 . S
H1849 C1854 0.949 . S
H1850 C1856 0.950 . S
H1851 C1857 0.950 . S
H1852 C1858 0.949 . S
C1853 H1848 0.950 . S
C1853 C1855 1.327 . S
C1853 C1859 1.429 . S
C1854 C1846 1.574 . S
C1854 H1849 0.949 . S
C1854 C1860 1.368 . S
C1855 C1839 1.349 . S
C1855 H1847 0.950 . S
C1855 C1853 1.327 . S
C1856 C1844 1.349 . S
C1856 H1850 0.950 . S
C1856 C1857 1.327 . S
C1857 H1851 0.950 . S
C1857 C1856 1.327 . S
C1857 C1861 1.429 . S
C1858 C1841 1.574 . S
C1858 H1852 0.949 . S
C1858 C1862 1.368 . S
C1859 C1840 1.429 . S
C1859 C1853 1.429 . S
C1859 C1860 1.523 . S
C1860 C1841 1.368 . S
C1860 C1854 1.368 . S
C1860 C1859 1.523 . S
C1861 C1845 1.429 . S
C1861 C1857 1.429 . S
C1861 C1862 1.523 . S
C1862 C1846 1.368 . S
C1862 C1858 1.368 . S
C1862 C1861 1.523 . S
H1863 C1838 0.950 . S
H1864 C1840 0.950 . S
H1865 C1841 0.949 . S
H1866 C1843 0.950 . S
H1867 C1845 0.950 . S
C1868 C1869 1.349 . S
C1868 C1870 1.327 . S
C1868 H1893 0.950 . S
C1869 C1868 1.349 . S
C1869 C1885 1.349 . S
C1870 C1868 1.327 . S
C1870 C1889 1.429 . S
C1870 H1894 0.950 . S
C1871 C1888 1.574 . S
C1871 C1890 1.368 . S
C1871 H1895 0.949 . S
H1872 C1876 0.949 . S
C1873 C1874 1.349 . S
C1873 C1875 1.327 . S
C1873 H1896 0.950 . S
C1874 C1873 1.349 . S
C1874 C1886 1.349 . S
C1875 C1873 1.327 . S
C1875 C1891 1.429 . S
C1875 H1897 0.950 . S
C1876 H1872 0.949 . S
C1876 C1884 1.574 . S
C1876 C1892 1.368 . S
H1877 C1885 0.950 . S
H1878 C1883 0.950 . S
H1879 C1884 0.949 . S
H1880 C1886 0.950 . S
H1881 C1887 0.950 . S
H1882 C1888 0.949 . S
C1883 H1878 0.950 . S
C1883 C1885 1.327 . S
C1883 C1889 1.429 . S
C1884 C1876 1.574 . S
C1884 H1879 0.949 . S
C1884 C1890 1.368 . S
C1885 C1869 1.349 . S
C1885 H1877 0.950 . S
C1885 C1883 1.327 . S
C1886 C1874 1.349 . S
C1886 H1880 0.950 . S
C1886 C1887 1.327 . S
C1887 H1881 0.950 . S
C1887 C1886 1.327 . S
C1887 C1891 1.429 . S
C1888 C1871 1.574 . S
C1888 H1882 0.949 . S
C1888 C1892 1.368 . S
C1889 C1870 1.429 . S
C1889 C1883 1.429 . S
C1889 C1890 1.523 . S
C1890 C1871 1.368 . S
C1890 C1884 1.368 . S
C1890 C1889 1.523 . S
C1891 C1875 1.429 . S
C1891 C1887 1.429 . S
C1891 C1892 1.523 . S
C1892 C1876 1.368 . S
C1892 C1888 1.368 . S
C1892 C1891 1.523 . S
H1893 C1868 0.950 . S
H1894 C1870 0.950 . S
H1895 C1871 0.949 . S
H1896 C1873 0.950 . S
H1897 C1875 0.950 . S
C1898 C1899 1.349 . S
C1898 C1900 1.327 . S
C1898 H1923 0.950 . S
C1899 C1898 1.349 . S
C1899 C1915 1.349 . S
C1900 C1898 1.327 . S
C1900 C1919 1.429 . S
C1900 H1924 0.950 . S
C1901 C1918 1.574 . S
C1901 C1920 1.368 . S
C1901 H1925 0.949 . S
H1902 C1906 0.949 . S
C1903 C1904 1.349 . S
C1903 C1905 1.327 . S
C1903 H1926 0.950 . S
C1904 C1903 1.349 . S
C1904 C1916 1.349 . S
C1905 C1903 1.327 . S
C1905 C1921 1.429 . S
C1905 H1927 0.950 . S
C1906 H1902 0.949 . S
C1906 C1914 1.574 . S
C1906 C1922 1.368 . S
H1907 C1915 0.950 . S
H1908 C1913 0.950 . S
H1909 C1914 0.949 . S
H1910 C1916 0.950 . S
H1911 C1917 0.950 . S
H1912 C1918 0.949 . S
C1913 H1908 0.950 . S
C1913 C1915 1.327 . S
C1913 C1919 1.429 . S
C1914 C1906 1.574 . S
C1914 H1909 0.949 . S
C1914 C1920 1.368 . S
C1915 C1899 1.349 . S
C1915 H1907 0.950 . S
C1915 C1913 1.327 . S
C1916 C1904 1.349 . S
C1916 H1910 0.950 . S
C1916 C1917 1.327 . S
C1917 H1911 0.950 . S
C1917 C1916 1.327 . S
C1917 C1921 1.429 . S
C1918 C1901 1.574 . S
C1918 H1912 0.949 . S
C1918 C1922 1.368 . S
C1919 C1900 1.429 . S
C1919 C1913 1.429 . S
C1919 C1920 1.523 . S
C1920 C1901 1.368 . S
C1920 C1914 1.368 . S
C1920 C1919 1.523 . S
C1921 C1905 1.429 . S
C1921 C1917 1.429 . S
C1921 C1922 1.523 . S
C1922 C1906 1.368 . S
C1922 C1918 1.368 . S
C1922 C1921 1.523 . S
H1923 C1898 0.950 . S
H1924 C1900 0.950 . S
H1925 C1901 0.949 . S
H1926 C1903 0.950 . S
H1927 C1905 0.950 . S
C1928 C1929 1.349 1_554 S
C1928 C1930 1.327 . S
C1928 H1953 0.950 . S
C1929 C1928 1.349 1_556 S
C1929 C1945 1.349 . S
C1930 C1928 1.327 . S
C1930 C1949 1.429 1_554 S
C1930 H1954 0.950 . S
C1931 C1948 1.574 . S
C1931 C1950 1.368 . S
C1931 H1955 0.949 . S
H1932 C1936 0.949 . S
C1933 C1934 1.349 . S
C1933 C1935 1.327 . S
C1933 H1956 0.950 . S
C1934 C1933 1.349 . S
C1934 C1946 1.349 1_556 S
C1935 C1933 1.327 . S
C1935 C1951 1.429 . S
C1935 H1957 0.950 . S
C1936 H1932 0.949 . S
C1936 C1944 1.574 . S
C1936 C1952 1.368 1_554 S
H1937 C1945 0.950 . S
H1938 C1943 0.950 . S
H1939 C1944 0.949 . S
H1940 C1946 0.950 . S
H1941 C1947 0.950 . S
H1942 C1948 0.949 . S
C1943 H1938 0.950 . S
C1943 C1945 1.327 . S
C1943 C1949 1.429 . S
C1944 C1936 1.574 . S
C1944 H1939 0.949 . S
C1944 C1950 1.368 1_554 S
C1945 C1929 1.349 . S
C1945 H1937 0.950 . S
C1945 C1943 1.327 . S
C1946 C1934 1.349 1_554 S
C1946 H1940 0.950 . S
C1946 C1947 1.327 . S
C1947 H1941 0.950 . S
C1947 C1946 1.327 . S
C1947 C1951 1.429 1_554 S
C1948 C1931 1.574 . S
C1948 H1942 0.949 . S
C1948 C1952 1.368 . S
C1949 C1930 1.429 1_556 S
C1949 C1943 1.429 . S
C1949 C1950 1.523 . S
C1950 C1931 1.368 . S
C1950 C1944 1.368 1_556 S
C1950 C1949 1.523 . S
C1951 C1935 1.429 . S
C1951 C1947 1.429 1_556 S
C1951 C1952 1.523 . S
C1952 C1936 1.368 1_556 S
C1952 C1948 1.368 . S
C1952 C1951 1.523 . S
H1953 C1928 0.950 . S
H1954 C1930 0.950 . S
H1955 C1931 0.949 . S
H1956 C1933 0.950 . S
H1957 C1935 0.950 . S
C1958 C1959 1.349 . S
C1958 C1960 1.327 . S
C1958 H1983 0.950 . S
C1959 C1958 1.349 . S
C1959 C1975 1.349 . S
C1960 C1958 1.327 . S
C1960 C1979 1.429 . S
C1960 H1984 0.950 . S
C1961 C1978 1.574 . S
C1961 C1980 1.368 . S
C1961 H1985 0.949 . S
H1962 C1966 0.949 . S
C1963 C1964 1.349 . S
C1963 C1965 1.327 . S
C1963 H1986 0.950 . S
C1964 C1963 1.349 . S
C1964 C1976 1.349 . S
C1965 C1963 1.327 . S
C1965 C1981 1.429 . S
C1965 H1987 0.950 . S
C1966 H1962 0.949 . S
C1966 C1974 1.574 . S
C1966 C1982 1.368 . S
H1967 C1975 0.950 . S
H1968 C1973 0.950 . S
H1969 C1974 0.949 . S
H1970 C1976 0.950 . S
H1971 C1977 0.950 . S
H1972 C1978 0.949 . S
C1973 H1968 0.950 . S
C1973 C1975 1.327 . S
C1973 C1979 1.429 . S
C1974 C1966 1.574 . S
C1974 H1969 0.949 . S
C1974 C1980 1.368 . S
C1975 C1959 1.349 . S
C1975 H1967 0.950 . S
C1975 C1973 1.327 . S
C1976 C1964 1.349 . S
C1976 H1970 0.950 . S
C1976 C1977 1.327 . S
C1977 H1971 0.950 . S
C1977 C1976 1.327 . S
C1977 C1981 1.429 . S
C1978 C1961 1.574 . S
C1978 H1972 0.949 . S
C1978 C1982 1.368 . S
C1979 C1960 1.429 . S
C1979 C1973 1.429 . S
C1979 C1980 1.523 . S
C1980 C1961 1.368 . S
C1980 C1974 1.368 . S
C1980 C1979 1.523 . S
C1981 C1965 1.429 . S
C1981 C1977 1.429 . S
C1981 C1982 1.523 . S
C1982 C1966 1.368 . S
C1982 C1978 1.368 . S
C1982 C1981 1.523 . S
H1983 C1958 0.950 . S
H1984 C1960 0.950 . S
H1985 C1961 0.949 . S
H1986 C1963 0.950 . S
H1987 C1965 0.950 . S
C1988 C1989 1.349 . S
C1988 C1990 1.327 . S
C1988 H2013 0.933 1_554 S
C1989 C1988 1.349 . S
C1989 C2005 1.349 . S
C1990 C1988 1.327 . S
C1990 C2009 1.429 . S
C1990 H2014 0.950 1_554 S
C1991 C2008 1.574 . S
C1991 C2010 1.368 . S
C1991 H2015 0.949 . S
H1992 C1996 0.949 . S
C1993 C1994 1.349 . S
C1993 C1995 1.327 . S
C1993 H2016 0.950 . S
C1994 C1993 1.349 . S
C1994 C2006 1.349 1_554 S
C1995 C1993 1.327 . S
C1995 C2011 1.429 . S
C1995 H2017 0.950 . S
C1996 H1992 0.949 . S
C1996 C2004 1.591 . S
C1996 C2012 1.368 1_556 S
H1997 C2005 0.950 . S
H1998 C2003 0.950 . S
H1999 C2004 0.992 . S
H2000 C2006 0.950 . S
H2001 C2007 0.950 . S
H2002 C2008 0.949 . S
C2003 H1998 0.950 . S
C2003 C2005 1.327 . S
C2003 C2009 1.429 . S
C2004 C1996 1.591 . S
C2004 H1999 0.992 . S
C2004 C2010 1.306 1_556 S
C2005 C1989 1.349 . S
C2005 H1997 0.950 . S
C2005 C2003 1.327 . S
C2006 C1994 1.349 1_556 S
C2006 H2000 0.950 . S
C2006 C2007 1.327 . S
C2007 H2001 0.950 . S
C2007 C2006 1.327 . S
C2007 C2011 1.429 1_556 S
C2008 C1991 1.574 . S
C2008 H2002 0.949 . S
C2008 C2012 1.368 . S
C2009 C1990 1.429 . S
C2009 C2003 1.429 . S
C2009 C2010 1.523 . S
C2010 C1991 1.368 . S
C2010 C2004 1.306 1_554 S
C2010 C2009 1.523 . S
C2011 C1995 1.429 . S
C2011 C2007 1.429 1_554 S
C2011 C2012 1.523 . S
C2012 C1996 1.368 1_554 S
C2012 C2008 1.368 . S
C2012 C2011 1.523 . S
H2013 C1988 0.933 1_556 S
H2014 C1990 0.950 1_556 S
H2015 C1991 0.949 . S
H2016 C1993 0.950 . S
H2017 C1995 0.950 . S
C2018 C2019 1.349 . S
C2018 C2020 1.327 . S
C2018 H2043 0.950 . S
C2019 C2018 1.349 . S
C2019 C2035 1.349 . S
C2020 C2018 1.327 . S
C2020 C2039 1.429 1_545 S
C2020 H2044 0.950 . S
C2021 C2038 1.574 . S
C2021 C2040 1.368 . S
C2021 H2045 0.949 . S
H2022 C2026 0.949 . S
C2023 C2024 1.349 . S
C2023 C2025 1.327 . S
C2023 H2046 0.950 . S
C2024 C2023 1.349 . S
C2024 C2036 1.349 . S
C2025 C2023 1.327 . S
C2025 C2041 1.429 . S
C2025 H2047 0.950 . S
C2026 H2022 0.949 . S
C2026 C2034 1.574 . S
C2026 C2042 1.368 . S
H2027 C2035 0.950 . S
H2028 C2033 0.950 . S
H2029 C2034 0.949 . S
H2030 C2036 0.950 . S
H2031 C2037 0.950 . S
H2032 C2038 0.949 . S
C2033 H2028 0.950 . S
C2033 C2035 1.327 1_565 S
C2033 C2039 1.429 . S
C2034 C2026 1.574 . S
C2034 H2029 0.949 . S
C2034 C2040 1.368 . S
C2035 C2019 1.349 . S
C2035 H2027 0.950 . S
C2035 C2033 1.327 1_545 S
C2036 C2024 1.349 . S
C2036 H2030 0.950 . S
C2036 C2037 1.327 . S
C2037 H2031 0.950 . S
C2037 C2036 1.327 . S
C2037 C2041 1.429 . S
C2038 C2021 1.574 . S
C2038 H2032 0.949 . S
C2038 C2042 1.368 . S
C2039 C2020 1.429 1_565 S
C2039 C2033 1.429 . S
C2039 C2040 1.523 . S
C2040 C2021 1.368 . S
C2040 C2034 1.368 . S
C2040 C2039 1.523 . S
C2041 C2025 1.429 . S
C2041 C2037 1.429 . S
C2041 C2042 1.523 . S
C2042 C2026 1.368 . S
C2042 C2038 1.368 . S
C2042 C2041 1.523 . S
H2043 C2018 0.950 . S
H2044 C2020 0.950 . S
H2045 C2021 0.949 . S
H2046 C2023 0.950 . S
H2047 C2025 0.950 . S
C614 C178 1.503 1_556 S
C609 C60 1.497 . S
C644 C226 1.399 . S
C639 C76 1.435 . S
C669 C81 1.547 . S
C674 C262 1.480 . S
C704 C298 1.677 . S
C699 C48 1.752 . S
C734 C324 1.414 . S
C729 C115 1.407 . S
C764 C360 1.752 . S
C759 C136 1.763 . S
C789 C131 1.339 . S
C794 C395 1.349 . S
C824 C432 1.562 . S
C819 C104 1.561 . S
C849 C126 1.429 . S
C854 C466 1.432 . S
C884 C514 1.486 . S
C879 C103 1.525 . S
C909 C120 1.316 . S
C914 C467 1.324 . S
C944 C504 1.568 . S
C939 C142 1.566 . S
C969 C82 1.337 . S
C974 C550 1.293 . S
C999 C54 1.951 . S
C1004 C539 1.951 . S
C1029 C65 1.439 . S
C1034 C540 1.444 . S
C1059 C71 1.339 . S
C1064 C538 1.340 . S
C1089 C37 1.468 . S
C1094 C286 1.465 1_565 S
C1119 C158 1.968 . S
C1124 C287 1.976 . S
C1154 C190 1.492 . S
C1149 C169 1.567 . S
C1184 C215 1.098 . S
C1179 C98 1.095 . S
C1209 C49 1.859 1_545 S
C1214 C322 1.858 . S
C1244 C430 1.376 . S
C1239 C125 1.384 . S
C1274 C323 1.413 . S
C1269 C109 1.419 . S
C1304 C396 1.934 . S
C1299 C137 1.941 . S
C1334 C394 1.503 . S
C1329 C159 1.497 . S
C1359 C175 1.435 . S
C1364 C442 1.399 . S
C1389 C92 1.547 . S
C1394 C334 1.480 . S
C1424 C370 1.677 . S
C1419 C147 1.751 . S
C1449 C38 1.407 . S
C1454 C252 1.414 . S
C1484 C288 1.752 . S
C1479 C4 1.763 . S
C1514 C179 1.349 . S
C1509 C21 1.339 . S
C1544 C216 1.563 . S
C1539 C27 1.561 . S
C1569 C16 1.429 . S
C1574 C502 1.432 . S
C1599 C26 1.525 . S
C1604 C478 1.486 . S
C1629 C43 1.316 . S
C1634 C503 1.324 . S
C1659 C10 1.566 . S
C1664 C468 1.568 . S
C1694 C586 1.293 . S
C1689 C93 1.337 . S
C1724 C575 1.952 . S
C1719 C153 1.952 . S
C1754 C576 1.444 . S
C1749 C164 1.439 . S
C1779 C170 1.339 . S
C1784 C574 1.340 . S
C1809 C114 1.468 . S
C1814 C358 1.465 . S
C1844 C359 1.976 . S
C1839 C59 1.968 . S
C1874 C406 1.492 . S
C1869 C70 1.567 . S
C1904 C431 1.098 . S
C1899 C87 1.095 . S
C1929 C148 1.859 . S
C1934 C250 1.858 1_556 S
C1964 C214 1.376 . S
C1959 C15 1.384 . S
C1989 C32 1.419 . S
C1994 C251 1.421 . S
C2024 C180 1.934 . S
C2019 C5 1.941 . S
