# Generated by pormake.
# Topology ptr, (4,4)-cn, num edge types: 1
# Building blocks:
#     Node 0, Type 0, BuildingBlock: TATPOV_clean_sbu_0, # of connection points: 4
#     Node 1, Type 0, BuildingBlock: TATPOV_clean_sbu_0, # of connection points: 4
#     Node 2, Type 0, BuildingBlock: TATPOV_clean_sbu_0, # of connection points: 4
#     Node 3, Type 0, BuildingBlock: TATPOV_clean_sbu_0, # of connection points: 4
#     Node 4, Type 0, BuildingBlock: TATPOV_clean_sbu_0, # of connection points: 4
#     Node 5, Type 0, BuildingBlock: TATPOV_clean_sbu_0, # of connection points: 4
#     Node 6, Type 0, BuildingBlock: TATPOV_clean_sbu_0, # of connection points: 4
#     Node 7, Type 0, BuildingBlock: TATPOV_clean_sbu_0, # of connection points: 4
#     Node 8, Type 0, BuildingBlock: TATPOV_clean_sbu_0, # of connection points: 4
#     Node 9, Type 0, BuildingBlock: TATPOV_clean_sbu_0, # of connection points: 4
#     Node 10, Type 0, BuildingBlock: TATPOV_clean_sbu_0, # of connection points: 4
#     Node 11, Type 0, BuildingBlock: TATPOV_clean_sbu_0, # of connection points: 4
#     Node 12, Type 0, BuildingBlock: TATPOV_clean_sbu_0, # of connection points: 4
#     Node 13, Type 0, BuildingBlock: TATPOV_clean_sbu_0, # of connection points: 4
#     Node 14, Type 0, BuildingBlock: TATPOV_clean_sbu_0, # of connection points: 4
#     Node 15, Type 0, BuildingBlock: TATPOV_clean_sbu_0, # of connection points: 4
#     Node 16, Type 0, BuildingBlock: TATPOV_clean_sbu_0, # of connection points: 4
#     Node 17, Type 0, BuildingBlock: TATPOV_clean_sbu_0, # of connection points: 4
#     Node 18, Type 1, BuildingBlock: GIZVER_clean_linker_0, # of connection points: 4
#     Node 19, Type 1, BuildingBlock: GIZVER_clean_linker_0, # of connection points: 4
#     Node 20, Type 1, BuildingBlock: GIZVER_clean_linker_0, # of connection points: 4
#     Node 21, Type 1, BuildingBlock: GIZVER_clean_linker_0, # of connection points: 4
#     Node 22, Type 1, BuildingBlock: GIZVER_clean_linker_0, # of connection points: 4
#     Node 23, Type 1, BuildingBlock: GIZVER_clean_linker_0, # of connection points: 4
#     Node 24, Type 1, BuildingBlock: GIZVER_clean_linker_0, # of connection points: 4
#     Node 25, Type 1, BuildingBlock: GIZVER_clean_linker_0, # of connection points: 4
#     Node 26, Type 1, BuildingBlock: GIZVER_clean_linker_0, # of connection points: 4
#     Node 27, Type 1, BuildingBlock: GIZVER_clean_linker_0, # of connection points: 4
#     Node 28, Type 1, BuildingBlock: GIZVER_clean_linker_0, # of connection points: 4
#     Node 29, Type 1, BuildingBlock: GIZVER_clean_linker_0, # of connection points: 4
#     Node 30, Type 1, BuildingBlock: GIZVER_clean_linker_0, # of connection points: 4
#     Node 31, Type 1, BuildingBlock: GIZVER_clean_linker_0, # of connection points: 4
#     Node 32, Type 1, BuildingBlock: GIZVER_clean_linker_0, # of connection points: 4
#     Node 33, Type 1, BuildingBlock: GIZVER_clean_linker_0, # of connection points: 4
#     Node 34, Type 1, BuildingBlock: GIZVER_clean_linker_0, # of connection points: 4
#     Node 35, Type 1, BuildingBlock: GIZVER_clean_linker_0, # of connection points: 4
#     Edge 36, Type (0, 1), BuildingBlock: XIVTED_clean_linker_0, # of connection points: 2
#     Edge 37, Type (0, 1), BuildingBlock: XIVTED_clean_linker_0, # of connection points: 2
#     Edge 38, Type (0, 1), BuildingBlock: XIVTED_clean_linker_0, # of connection points: 2
#     Edge 39, Type (0, 1), BuildingBlock: XIVTED_clean_linker_0, # of connection points: 2
#     Edge 40, Type (0, 1), BuildingBlock: XIVTED_clean_linker_0, # of connection points: 2
#     Edge 41, Type (0, 1), BuildingBlock: XIVTED_clean_linker_0, # of connection points: 2
#     Edge 42, Type (0, 1), BuildingBlock: XIVTED_clean_linker_0, # of connection points: 2
#     Edge 43, Type (0, 1), BuildingBlock: XIVTED_clean_linker_0, # of connection points: 2
#     Edge 44, Type (0, 1), BuildingBlock: XIVTED_clean_linker_0, # of connection points: 2
#     Edge 45, Type (0, 1), BuildingBlock: XIVTED_clean_linker_0, # of connection points: 2
#     Edge 46, Type (0, 1), BuildingBlock: XIVTED_clean_linker_0, # of connection points: 2
#     Edge 47, Type (0, 1), BuildingBlock: XIVTED_clean_linker_0, # of connection points: 2
#     Edge 48, Type (0, 1), BuildingBlock: XIVTED_clean_linker_0, # of connection points: 2
#     Edge 49, Type (0, 1), BuildingBlock: XIVTED_clean_linker_0, # of connection points: 2
#     Edge 50, Type (0, 1), BuildingBlock: XIVTED_clean_linker_0, # of connection points: 2
#     Edge 51, Type (0, 1), BuildingBlock: XIVTED_clean_linker_0, # of connection points: 2
#     Edge 52, Type (0, 1), BuildingBlock: XIVTED_clean_linker_0, # of connection points: 2
#     Edge 53, Type (0, 1), BuildingBlock: XIVTED_clean_linker_0, # of connection points: 2
#     Edge 54, Type (0, 1), BuildingBlock: XIVTED_clean_linker_0, # of connection points: 2
#     Edge 55, Type (0, 1), BuildingBlock: XIVTED_clean_linker_0, # of connection points: 2
#     Edge 56, Type (0, 1), BuildingBlock: XIVTED_clean_linker_0, # of connection points: 2
#     Edge 57, Type (0, 1), BuildingBlock: XIVTED_clean_linker_0, # of connection points: 2
#     Edge 58, Type (0, 1), BuildingBlock: XIVTED_clean_linker_0, # of connection points: 2
#     Edge 59, Type (0, 1), BuildingBlock: XIVTED_clean_linker_0, # of connection points: 2
#     Edge 60, Type (0, 1), BuildingBlock: XIVTED_clean_linker_0, # of connection points: 2
#     Edge 61, Type (0, 1), BuildingBlock: XIVTED_clean_linker_0, # of connection points: 2
#     Edge 62, Type (0, 1), BuildingBlock: XIVTED_clean_linker_0, # of connection points: 2
#     Edge 63, Type (0, 1), BuildingBlock: XIVTED_clean_linker_0, # of connection points: 2
#     Edge 64, Type (0, 1), BuildingBlock: XIVTED_clean_linker_0, # of connection points: 2
#     Edge 65, Type (0, 1), BuildingBlock: XIVTED_clean_linker_0, # of connection points: 2
#     Edge 66, Type (0, 1), BuildingBlock: XIVTED_clean_linker_0, # of connection points: 2
#     Edge 67, Type (0, 1), BuildingBlock: XIVTED_clean_linker_0, # of connection points: 2
#     Edge 68, Type (0, 1), BuildingBlock: XIVTED_clean_linker_0, # of connection points: 2
#     Edge 69, Type (0, 1), BuildingBlock: XIVTED_clean_linker_0, # of connection points: 2
#     Edge 70, Type (0, 1), BuildingBlock: XIVTED_clean_linker_0, # of connection points: 2
#     Edge 71, Type (0, 1), BuildingBlock: XIVTED_clean_linker_0, # of connection points: 2
#     Edge 72, Type (0, 1), BuildingBlock: XIVTED_clean_linker_0, # of connection points: 2
#     Edge 73, Type (0, 1), BuildingBlock: XIVTED_clean_linker_0, # of connection points: 2
#     Edge 74, Type (0, 1), BuildingBlock: XIVTED_clean_linker_0, # of connection points: 2
#     Edge 75, Type (0, 1), BuildingBlock: XIVTED_clean_linker_0, # of connection points: 2
#     Edge 76, Type (0, 1), BuildingBlock: XIVTED_clean_linker_0, # of connection points: 2
#     Edge 77, Type (0, 1), BuildingBlock: XIVTED_clean_linker_0, # of connection points: 2
#     Edge 78, Type (0, 1), BuildingBlock: XIVTED_clean_linker_0, # of connection points: 2
#     Edge 79, Type (0, 1), BuildingBlock: XIVTED_clean_linker_0, # of connection points: 2
#     Edge 80, Type (0, 1), BuildingBlock: XIVTED_clean_linker_0, # of connection points: 2
#     Edge 81, Type (0, 1), BuildingBlock: XIVTED_clean_linker_0, # of connection points: 2
#     Edge 82, Type (0, 1), BuildingBlock: XIVTED_clean_linker_0, # of connection points: 2
#     Edge 83, Type (0, 1), BuildingBlock: XIVTED_clean_linker_0, # of connection points: 2
#     Edge 84, Type (0, 1), BuildingBlock: XIVTED_clean_linker_0, # of connection points: 2
#     Edge 85, Type (0, 1), BuildingBlock: XIVTED_clean_linker_0, # of connection points: 2
#     Edge 86, Type (0, 1), BuildingBlock: XIVTED_clean_linker_0, # of connection points: 2
#     Edge 87, Type (0, 1), BuildingBlock: XIVTED_clean_linker_0, # of connection points: 2
#     Edge 88, Type (0, 1), BuildingBlock: XIVTED_clean_linker_0, # of connection points: 2
#     Edge 89, Type (0, 1), BuildingBlock: XIVTED_clean_linker_0, # of connection points: 2
#     Edge 90, Type (0, 1), BuildingBlock: XIVTED_clean_linker_0, # of connection points: 2
#     Edge 91, Type (0, 1), BuildingBlock: XIVTED_clean_linker_0, # of connection points: 2
#     Edge 92, Type (0, 1), BuildingBlock: XIVTED_clean_linker_0, # of connection points: 2
#     Edge 93, Type (0, 1), BuildingBlock: XIVTED_clean_linker_0, # of connection points: 2
#     Edge 94, Type (0, 1), BuildingBlock: XIVTED_clean_linker_0, # of connection points: 2
#     Edge 95, Type (0, 1), BuildingBlock: XIVTED_clean_linker_0, # of connection points: 2
#     Edge 96, Type (0, 1), BuildingBlock: XIVTED_clean_linker_0, # of connection points: 2
#     Edge 97, Type (0, 1), BuildingBlock: XIVTED_clean_linker_0, # of connection points: 2
#     Edge 98, Type (0, 1), BuildingBlock: XIVTED_clean_linker_0, # of connection points: 2
#     Edge 99, Type (0, 1), BuildingBlock: XIVTED_clean_linker_0, # of connection points: 2
#     Edge 100, Type (0, 1), BuildingBlock: XIVTED_clean_linker_0, # of connection points: 2
#     Edge 101, Type (0, 1), BuildingBlock: XIVTED_clean_linker_0, # of connection points: 2
#     Edge 102, Type (0, 1), BuildingBlock: XIVTED_clean_linker_0, # of connection points: 2
#     Edge 103, Type (0, 1), BuildingBlock: XIVTED_clean_linker_0, # of connection points: 2
#     Edge 104, Type (0, 1), BuildingBlock: XIVTED_clean_linker_0, # of connection points: 2
#     Edge 105, Type (0, 1), BuildingBlock: XIVTED_clean_linker_0, # of connection points: 2
#     Edge 106, Type (0, 1), BuildingBlock: XIVTED_clean_linker_0, # of connection points: 2
#     Edge 107, Type (0, 1), BuildingBlock: XIVTED_clean_linker_0, # of connection points: 2
# Relax obj value: 0.071
# Max RMSD: 0.189
# Mean RMSD: 0.114
data_MOF--net-ptr--node1-TATPOV_clean_sbu_0--node2-GIZVER_clean_linker_0--edge1-XIVTED_clean_linker_0
_symmetry_space_group_name_H-M    P1
_symmetry_Int_Tables_number       1
_symmetry_cell_setting            triclinic
loop_
_symmetry_equiv_pos_as_xyz
'x, y, z'
_cell_length_a     79.06469
_cell_length_b     79.966249
_cell_length_c     47.663687
_cell_angle_alpha  89.588123
_cell_angle_beta   91.636496
_cell_angle_gamma 121.18713
loop_
_atom_site_label
_atom_site_type_symbol
_atom_site_fract_x
_atom_site_fract_y
_atom_site_fract_z
_atom_type_partial_charge
Zn0 Zn 0.96217 0.39706 0.02241 0.0
Zn1 Zn 0.99514 0.3949 0.02076 0.0
O2 O 0.97244 0.36586 0.02146 0.0
O3 O 0.94554 0.36761 0.02119 0.0
O4 O 0.02037 0.39391 0.02124 0.0
O5 O 0.97095 0.41095 0.05974 0.0
O6 O 0.99866 0.41086 0.05681 0.0
C7 C 0.95362 0.35746 0.02133 0.0
C8 C 0.9855 0.41551 0.97371 0.0
O9 O 0.99619 0.40914 0.98392 0.0
O10 O 0.9704 0.41264 0.9865 0.0
C11 C 0.0221 0.38066 0.00944 0.0
O12 O 1.00684 0.36652 -0.00447 0.0
C13 C 0.98786 0.41567 0.06972 0.0
Zn14 Zn 0.62931 0.58557 0.01317 0.0
Zn15 Zn 0.63395 0.62111 0.01521 0.0
O16 O 0.66287 0.62722 0.0159 0.0
O17 O 0.65886 0.59787 0.01376 0.0
O18 O 0.63685 0.64781 0.01608 0.0
O19 O 0.61527 0.57857 0.04922 0.0
O20 O 0.6181 0.60743 0.05085 0.0
C21 C 0.67018 0.61625 0.01528 0.0
C22 C 0.6111 0.59276 0.966 0.0
O23 O 0.61862 0.60949 0.97774 0.0
O24 O 0.61332 0.57959 0.97716 0.0
C25 C 0.62173 0.64939 0.01825 0.0
O26 O 0.60425 0.63346 0.02039 0.0
C27 C 0.61198 0.59057 0.06136 0.0
Zn28 Zn 0.40316 0.9842 0.99257 0.0
Zn29 Zn 0.40198 0.01588 0.00381 0.0
O30 O 0.37259 0.99387 -0.00263 0.0
O31 O 0.3739 0.96827 0.98424 0.0
O32 O 0.39954 0.03966 0.00973 0.0
O33 O 0.42249 0.99766 0.96231 0.0
O34 O 0.41987 0.02344 0.96915 0.0
C35 C 0.36385 0.97607 0.98919 0.0
C36 C 0.41833 0.99949 0.04799 0.0
O37 O 0.415 0.01293 0.04058 0.0
O38 O 0.41384 0.98539 0.03143 0.0
C39 C 0.4142 0.05706 0.0124 0.0
O40 O 0.43221 0.0601 0.01249 0.0
C41 C 0.42713 0.01487 0.95594 0.0
Zn42 Zn 0.05653 0.62356 0.99043 0.0
Zn43 Zn 0.02329 0.6239 0.00129 0.0
O44 O 0.0444 0.65288 -0.00484 0.0
O45 O 0.07107 0.65271 0.98366 0.0
O46 O 0.99816 0.62432 0.00719 0.0
O47 O 0.04222 0.60415 0.95909 0.0
O48 O 0.01587 0.60607 0.96636 0.0
C49 C 0.06241 0.66203 0.98797 0.0
C50 C 0.04164 0.60937 0.04555 0.0
O51 O 0.02786 0.61235 0.03766 0.0
O52 O 0.0557 0.61343 0.02941 0.0
C53 C 0.99808 0.63874 0.01822 0.0
O54 O 0.01484 0.65379 0.02758 0.0
C55 C 0.02459 0.59921 0.95265 0.0
Zn56 Zn 0.39877 0.43651 0.00542 0.0
Zn57 Zn 0.39513 0.40106 0.00303 0.0
O58 O 0.366 0.39449 0.00535 0.0
O59 O 0.36926 0.4235 0.00868 0.0
O60 O 0.39357 0.37481 0.00147 0.0
O61 O 0.41044 0.44284 0.96718 0.0
O62 O 0.40924 0.41469 0.96628 0.0
C63 C 0.35829 0.40505 0.00766 0.0
C64 C 0.42006 0.43054 0.0503 0.0
O65 O 0.41235 0.4137 0.03882 0.0
O66 O 0.41677 0.44323 0.03985 0.0
C67 C 0.37988 0.35899 0.01191 0.0
O68 O 0.36518 0.35896 0.02412 0.0
C69 C 0.41393 0.431 0.95494 0.0
Zn70 Zn 0.62894 0.04677 0.00873 0.0
Zn71 Zn 0.62826 0.01261 0.00648 0.0
O72 O 0.65779 0.03424 0.00419 0.0
O73 O 0.65857 0.06215 0.00492 0.0
O74 O 0.62947 0.98786 0.0055 0.0
O75 O 0.61763 0.03978 0.04725 0.0
O76 O 0.61537 0.01119 0.04424 0.0
C77 C 0.66755 0.0529 0.00376 0.0
C78 C 0.60467 0.02137 0.96272 0.0
O79 O 0.61065 0.01028 0.97213 0.0
O80 O 0.61033 0.03762 0.97466 0.0
C81 C 0.61432 0.97086 0.00812 0.0
O82 O 0.59698 0.96905 0.01117 0.0
C83 C 0.61255 0.02326 0.05761 0.0
Zn84 Zn 0.63767 0.73558 0.35008 0.0
Zn85 Zn 0.66908 0.73082 0.34704 0.0
O86 O 0.64536 0.70234 0.34823 0.0
O87 O 0.6197 0.70606 0.35039 0.0
O88 O 0.69343 0.72842 0.34682 0.0
O89 O 0.64863 0.75098 0.38617 0.0
O90 O 0.67418 0.74719 0.38307 0.0
C91 C 0.62671 0.69496 0.34945 0.0
C92 C 0.66042 0.75238 0.30036 0.0
O93 O 0.67064 0.74543 0.31035 0.0
O94 O 0.64567 0.75017 0.31341 0.0
C95 C 0.69449 0.71473 0.33519 0.0
O96 O 0.67886 0.70072 0.32171 0.0
C97 C 0.66511 0.7541 0.39581 0.0
Zn98 Zn 0.28866 0.91617 0.34296 0.0
Zn99 Zn 0.29388 0.95181 0.34559 0.0
O100 O 0.32266 0.9573 0.34716 0.0
O101 O 0.31808 0.92772 0.34526 0.0
O102 O 0.29738 0.97879 0.34711 0.0
O103 O 0.27326 0.9084 0.37777 0.0
O104 O 0.27695 0.9376 0.38037 0.0
C105 C 0.32966 0.94606 0.34699 0.0
C106 C 0.27184 0.92443 0.29518 0.0
O107 O 0.27917 0.94099 0.3074 0.0
O108 O 0.27377 0.91105 0.30619 0.0
C109 C 0.2825 0.98069 0.34988 0.0
O110 O 0.26489 0.96494 0.35214 0.0
C111 C 0.26996 0.92036 0.39 0.0
Zn112 Zn 0.06252 0.30718 0.32821 0.0
Zn113 Zn 0.06576 0.34111 0.33762 0.0
O114 O 0.03539 0.32139 0.33185 0.0
O115 O 0.0334 0.29389 0.31992 0.0
O116 O 0.06774 0.3674 0.34208 0.0
O117 O 0.08175 0.31776 0.29741 0.0
O118 O 0.08353 0.3459 0.30327 0.0
C119 C 0.02503 0.30345 0.32434 0.0
C120 C 0.07876 0.32252 0.38322 0.0
O121 O 0.07744 0.33703 0.37487 0.0
O122 O 0.07274 0.30776 0.36736 0.0
C123 C 0.05482 0.36939 0.35449 0.0
O124 O 0.0399 0.35402 0.36596 0.0
C125 C 0.08874 0.33538 0.29044 0.0
Zn126 Zn 0.71252 0.94621 0.33439 0.0
Zn127 Zn 0.67991 0.94873 0.33909 0.0
O128 O 0.7025 0.97734 0.33417 0.0
O129 O 0.7293 0.97567 0.33104 0.0
O130 O 0.65556 0.95086 0.34189 0.0
O131 O 0.70033 0.92927 0.30016 0.0
O132 O 0.67337 0.93055 0.30462 0.0
C133 C 0.72115 0.98575 0.33143 0.0
C134 C 0.69263 0.93086 0.38631 0.0
O135 O 0.68126 0.93657 0.37669 0.0
O136 O 0.70697 0.93312 0.37216 0.0
C137 C 0.65599 0.96507 0.35447 0.0
O138 O 0.67262 0.97863 0.36655 0.0
C139 C 0.68297 0.92425 0.29184 0.0
Zn140 Zn 0.06989 0.76897 0.33894 0.0
Zn141 Zn 0.0659 0.73325 0.33648 0.0
O142 O 0.03704 0.72727 0.33928 0.0
O143 O 0.04041 0.7563 0.34289 0.0
O144 O 0.06364 0.70667 0.33503 0.0
O145 O 0.08115 0.77478 0.30035 0.0
O146 O 0.07965 0.74648 0.29947 0.0
C147 C 0.0294 0.73786 0.34186 0.0
C148 C 0.09171 0.7629 0.38307 0.0
O149 O 0.08374 0.746 0.37171 0.0
O150 O 0.0883 0.77559 0.37292 0.0
C151 C 0.04897 0.69078 0.34369 0.0
O152 O 0.03382 0.69096 0.35393 0.0
C153 C 0.08436 0.76276 0.28804 0.0
Zn154 Zn 0.28617 0.37587 0.33429 0.0
Zn155 Zn 0.2866 0.34236 0.33374 0.0
O156 O 0.31626 0.36412 0.33146 0.0
O157 O 0.31567 0.39135 0.33025 0.0
O158 O 0.28642 0.3168 0.33512 0.0
O159 O 0.27535 0.37024 0.37296 0.0
O160 O 0.27399 0.34203 0.37133 0.0
C161 C 0.32534 0.38275 0.33024 0.0
C162 C 0.26223 0.34969 0.28918 0.0
O163 O 0.26892 0.33924 0.29888 0.0
O164 O 0.26729 0.3659 0.30075 0.0
C165 C 0.29887 0.31365 0.32362 0.0
O166 O 0.31315 0.32764 0.30918 0.0
C167 C 0.27089 0.35412 0.38412 0.0
Zn168 Zn 0.30745 0.06942 0.68021 0.0
Zn169 Zn 0.34042 0.06766 0.67815 0.0
O170 O 0.31791 0.0384 0.67897 0.0
O171 O 0.29093 0.03997 0.67944 0.0
O172 O 0.36577 0.06697 0.67758 0.0
O173 O 0.31638 0.0836 0.71727 0.0
O174 O 0.34423 0.08379 0.71434 0.0
C175 C 0.29908 0.02988 0.67927 0.0
C176 C 0.33026 0.08803 0.63134 0.0
O177 O 0.34115 0.08188 0.64144 0.0
O178 O 0.31509 0.08489 0.6442 0.0
C179 C 0.36746 0.05421 0.66422 0.0
O180 O 0.35213 0.04052 0.64986 0.0
C181 C 0.33337 0.08856 0.72719 0.0
Zn182 Zn 0.96793 0.25661 0.6867 0.0
Zn183 Zn 0.96969 0.29022 0.68043 0.0
O184 O 0.99909 0.29785 0.68553 0.0
O185 O 0.997 0.26999 0.69583 0.0
O186 O 0.97176 0.31657 0.67711 0.0
O187 O 0.94835 0.24842 0.7169 0.0
O188 O 0.95201 0.27765 0.71501 0.0
C189 C 1.0074 0.28828 0.69241 0.0
C190 C 0.953 0.25966 0.63283 0.0
O191 O 0.95626 0.27587 0.64285 0.0
O192 O 0.95766 0.24918 0.64715 0.0
C193 C 0.95662 0.31821 0.67814 0.0
O194 O 0.93912 0.30235 0.6807 0.0
C195 C 0.94427 0.26071 0.72593 0.0
Zn196 Zn 0.73348 0.64573 0.6602 0.0
Zn197 Zn 0.73659 0.67937 0.66941 0.0
O198 O 0.70613 0.65937 0.66413 0.0
O199 O 0.70431 0.63183 0.65301 0.0
O200 O 0.73834 0.70561 0.67394 0.0
O201 O 0.75194 0.6558 0.62862 0.0
O202 O 0.75405 0.68409 0.63451 0.0
C203 C 0.69582 0.64129 0.6572 0.0
C204 C 0.7507 0.66131 0.71451 0.0
O205 O 0.74893 0.67563 0.70647 0.0
O206 O 0.74457 0.64653 0.69866 0.0
C207 C 0.72505 0.7074 0.6856 0.0
O208 O 0.70984 0.69187 0.69626 0.0
C209 C 0.75894 0.67338 0.62146 0.0
Zn210 Zn 0.38909 0.28946 0.65598 0.0
Zn211 Zn 0.35585 0.2906 0.66215 0.0
O212 O 0.37768 0.31958 0.65749 0.0
O213 O 0.40489 0.3189 0.65237 0.0
O214 O 0.33085 0.29151 0.66575 0.0
O215 O 0.37692 0.27215 0.6222 0.0
O216 O 0.34951 0.27243 0.62765 0.0
C217 C 0.39628 0.3285 0.65394 0.0
C218 C 0.37034 0.27386 0.70856 0.0
O219 O 0.35827 0.27884 0.69948 0.0
O220 O 0.38467 0.27667 0.69386 0.0
C221 C 0.33066 0.30529 0.67865 0.0
O222 O 0.34711 0.31929 0.69055 0.0
C223 C 0.3593 0.26649 0.61452 0.0
Zn224 Zn 0.72773 0.09964 0.66723 0.0
Zn225 Zn 0.72536 0.06471 0.66646 0.0
O226 O 0.69603 0.05744 0.66919 0.0
O227 O 0.69825 0.08603 0.67101 0.0
O228 O 0.72439 0.03869 0.66612 0.0
O229 O 0.739 0.10543 0.62878 0.0
O230 O 0.73881 0.07776 0.62911 0.0
C231 C 0.68779 0.06755 0.6709 0.0
C232 C 0.75039 0.09564 0.7121 0.0
O233 O 0.74308 0.0786 0.70142 0.0
O234 O 0.74622 0.10762 0.70125 0.0
C235 C 0.71165 0.02351 0.679 0.0
O236 O 0.69792 0.02417 0.69297 0.0
C237 C 0.74288 0.09369 0.61708 0.0
Zn238 Zn 0.956 0.70363 0.66486 0.0
Zn239 Zn 0.95605 0.66995 0.66405 0.0
O240 O 0.98579 0.69147 0.66123 0.0
O241 O 0.98546 0.71885 0.66038 0.0
O242 O 0.95546 0.64418 0.66501 0.0
O243 O 0.94543 0.69811 0.70365 0.0
O244 O 0.94384 0.6698 0.70195 0.0
C245 C 0.99499 0.71012 0.66 0.0
C246 C 0.93166 0.67765 0.61996 0.0
O247 O 0.93821 0.66706 0.62952 0.0
O248 O 0.93696 0.69391 0.63154 0.0
C249 C 0.96689 0.64054 0.65156 0.0
O250 O 0.98024 0.65411 0.63549 0.0
C251 C 0.94095 0.68199 0.71485 0.0
H252 H 0.17219 0.35741 0.10824 0.0
H253 H 0.14531 0.35701 0.02787 0.0
H254 H 0.13296 0.37912 0.10112 0.0
H255 H 0.15454 0.32811 0.05308 0.0
H256 H 0.16931 0.34696 0.0298 0.0
H257 H 0.1708 0.32869 0.10329 0.0
H258 H 0.23014 0.3412 0.09494 0.0
H259 H 0.2034 0.35751 0.02922 0.0
C260 C 0.16304 0.36073 0.09509 0.0
C261 C 0.15297 0.36871 0.10799 0.0
C262 C 0.1603 0.35616 0.06614 0.0
C263 C 0.14809 0.3609 0.04997 0.0
C264 C 0.13886 0.36994 0.06232 0.0
C265 C 0.14143 0.37374 0.09126 0.0
C266 C 0.16713 0.34348 0.05254 0.0
C267 C 0.18523 0.34393 0.06535 0.0
C268 C 0.18423 0.33505 0.09147 0.0
C269 C 0.20061 0.33459 0.10263 0.0
C270 C 0.21736 0.34135 0.08637 0.0
C271 C 0.21839 0.34931 0.0598 0.0
C272 C 0.20255 0.35117 0.04969 0.0
H273 H 0.67478 0.82867 0.1059 0.0
H274 H 0.64209 0.79674 0.03122 0.0
H275 H 0.65137 0.76697 0.09967 0.0
H276 H 0.6761 0.84511 0.05822 0.0
H277 H 0.65724 0.8314 0.03217 0.0
H278 H 0.65115 0.83492 0.11098 0.0
H279 H 0.62784 0.87224 0.09934 0.0
H280 H 0.64389 0.85209 0.02759 0.0
C281 C 0.66594 0.81501 0.09451 0.0
C282 C 0.66321 0.79773 0.10652 0.0
C283 C 0.65729 0.8147 0.06803 0.0
C284 C 0.64779 0.79709 0.05229 0.0
C285 C 0.64618 0.78005 0.06353 0.0
C286 C 0.65338 0.78038 0.09078 0.0
C287 C 0.66028 0.83352 0.05521 0.0
C288 C 0.64813 0.84143 0.06757 0.0
C289 C 0.64637 0.84226 0.09683 0.0
C290 C 0.63951 0.85364 0.1086 0.0
C291 C 0.63261 0.8629 0.09065 0.0
C292 C 0.63373 0.86205 0.06148 0.0
C293 C 0.64189 0.85168 0.05004 0.0
H294 H 0.1816 0.82349 0.11931 0.0
H295 H 0.17507 0.80982 0.03099 0.0
H296 H 0.12456 0.78263 0.08394 0.0
H297 H 0.20999 0.82736 0.08909 0.0
H298 H 0.20728 0.82707 0.0519 0.0
H299 H 0.20805 0.85359 0.1171 0.0
H300 H 0.24049 0.90974 0.07861 0.0
H301 H 0.21996 0.85748 0.02939 0.0
C302 C 0.17232 0.81643 0.10089 0.0
C303 C 0.15195 0.80381 0.10406 0.0
C304 C 0.18074 0.81924 0.07435 0.0
C305 C 0.16853 0.80849 0.05119 0.0
C306 C 0.14823 0.79498 0.05441 0.0
C307 C 0.14002 0.79337 0.08077 0.0
C308 C 0.20298 0.83114 0.07158 0.0
C309 C 0.21144 0.85301 0.07262 0.0
C310 C 0.21327 0.8623 0.09839 0.0
C311 C 0.22352 0.88279 0.10074 0.0
C312 C 0.23203 0.89398 0.0767 0.0
C313 C 0.23155 0.8851 0.05109 0.0
C314 C 0.22046 0.86455 0.04896 0.0
H315 H 0.39731 0.22323 0.89203 0.0
H316 H 0.39936 0.23365 0.98061 0.0
H317 H 0.36655 0.24958 0.92476 0.0
H318 H 0.42236 0.22241 0.92608 0.0
H319 H 0.41774 0.22011 0.96272 0.0
H320 H 0.39198 0.19394 0.89353 0.0
H321 H 0.37526 0.13772 0.9258 0.0
H322 H 0.40709 0.18836 0.97941 0.0
C323 C 0.39178 0.22706 0.90979 0.0
C324 C 0.38035 0.23568 0.90499 0.0
C325 C 0.39742 0.22477 0.93717 0.0
C326 C 0.39342 0.23345 0.95976 0.0
C327 C 0.38268 0.24285 0.95509 0.0
C328 C 0.37516 0.24268 0.92807 0.0
C329 C 0.41037 0.21597 0.94156 0.0
C330 C 0.39934 0.19383 0.93774 0.0
C331 C 0.391 0.18514 0.91133 0.0
C332 C 0.38186 0.1649 0.90726 0.0
C333 C 0.38149 0.15324 0.92947 0.0
C334 C 0.39087 0.16157 0.95535 0.0
C335 C 0.39959 0.18186 0.95955 0.0
H336 H 0.86953 0.18722 0.89677 0.0
H337 H 0.86686 0.19856 0.98407 0.0
H338 H 0.88167 0.24365 0.92344 0.0
H339 H 0.8719 0.16687 0.93782 0.0
H340 H 0.86208 0.16771 0.97061 0.0
H341 H 0.84938 0.1547 0.89387 0.0
H342 H 0.78896 0.11171 0.90956 0.0
H343 H 0.82661 0.14884 0.977 0.0
C344 C 0.86971 0.19669 0.91297 0.0
C345 C 0.87565 0.21612 0.90642 0.0
C346 C 0.86555 0.18986 0.94072 0.0
C347 C 0.86849 0.20311 0.96235 0.0
C348 C 0.87444 0.22254 0.95602 0.0
C349 C 0.87706 0.2286 0.92804 0.0
C350 C 0.86077 0.16936 0.94759 0.0
C351 C 0.84042 0.15378 0.9367 0.0
C352 C 0.83734 0.14787 0.90827 0.0
C353 C 0.81878 0.13278 0.89838 0.0
C354 C 0.80343 0.12319 0.91721 0.0
C355 C 0.80612 0.1288 0.94549 0.0
C356 C 0.82452 0.1444 0.95513 0.0
H357 H 0.85131 0.64235 0.89021 0.0
H358 H 0.86001 0.63622 0.97844 0.0
H359 H 0.90959 0.66364 0.92405 0.0
H360 H 0.824 0.61639 0.92304 0.0
H361 H 0.82714 0.62147 0.9597 0.0
H362 H 0.82412 0.64239 0.88942 0.0
H363 H 0.78885 0.66376 0.92122 0.0
H364 H 0.81342 0.63916 0.97779 0.0
C365 C 0.86095 0.64554 0.90841 0.0
C366 C 0.88132 0.65465 0.90447 0.0
C367 C 0.85308 0.63978 0.93528 0.0
C368 C 0.86594 0.64195 0.95802 0.0
C369 C 0.88637 0.65055 0.95403 0.0
C370 C 0.89396 0.65754 0.92744 0.0
C371 C 0.83085 0.62852 0.93875 0.0
C372 C 0.82133 0.64075 0.93445 0.0
C373 C 0.81858 0.64611 0.90724 0.0
C374 C 0.80747 0.65507 0.90247 0.0
C375 C 0.79872 0.65835 0.92525 0.0
C376 C 0.80039 0.65232 0.95242 0.0
C377 C 0.81228 0.64411 0.95699 0.0
H378 H 0.84178 0.68996 0.43976 0.0
H379 H 0.81679 0.69056 0.35829 0.0
H380 H 0.80378 0.71305 0.4304 0.0
H381 H 0.82505 0.66099 0.38532 0.0
H382 H 0.83968 0.67937 0.36133 0.0
H383 H 0.84111 0.66139 0.43475 0.0
H384 H 0.90097 0.67516 0.42751 0.0
H385 H 0.87427 0.69142 0.36165 0.0
C386 C 0.83312 0.69367 0.42621 0.0
C387 C 0.82316 0.702 0.43852 0.0
C388 C 0.83089 0.68927 0.39721 0.0
C389 C 0.81924 0.69436 0.38043 0.0
C390 C 0.81011 0.70367 0.3922 0.0
C391 C 0.8122 0.70739 0.42114 0.0
C392 C 0.83761 0.67634 0.3842 0.0
C393 C 0.85579 0.67713 0.39725 0.0
C394 C 0.8547 0.66809 0.42324 0.0
C395 C 0.87112 0.66781 0.4346 0.0
C396 C 0.88814 0.67515 0.41877 0.0
C397 C 0.88932 0.68338 0.39236 0.0
C398 C 0.87334 0.68492 0.38201 0.0
H399 H 0.34354 0.16297 0.4355 0.0
H400 H 0.31023 0.13071 0.36135 0.0
H401 H 0.31768 0.10084 0.43139 0.0
H402 H 0.34596 0.17892 0.38694 0.0
H403 H 0.3269 0.16547 0.36104 0.0
H404 H 0.32153 0.17148 0.43943 0.0
H405 H 0.30123 0.21096 0.42483 0.0
H406 H 0.31522 0.18741 0.35477 0.0
C407 C 0.33418 0.14923 0.4245 0.0
C408 C 0.3307 0.13186 0.43713 0.0
C409 C 0.32583 0.14895 0.39778 0.0
C410 C 0.31571 0.13111 0.38259 0.0
C411 C 0.31319 0.11387 0.39455 0.0
C412 C 0.32021 0.11431 0.42196 0.0
C413 C 0.32993 0.16792 0.38404 0.0
C414 C 0.31873 0.17714 0.39552 0.0
C415 C 0.31719 0.17885 0.42464 0.0
C416 C 0.3112 0.1912 0.43542 0.0
C417 C 0.30514 0.2008 0.41674 0.0
C418 C 0.30619 0.19926 0.38765 0.0
C419 C 0.31331 0.1877 0.37715 0.0
H420 H 0.84111 0.15576 0.44877 0.0
H421 H 0.83543 0.13587 0.36333 0.0
H422 H 0.78472 0.11184 0.4156 0.0
H423 H 0.86918 0.15337 0.4175 0.0
H424 H 0.86727 0.15742 0.38131 0.0
H425 H 0.87252 0.17803 0.45351 0.0
H426 H 0.90891 0.23683 0.42576 0.0
H427 H 0.87966 0.18995 0.36522 0.0
C428 C 0.83214 0.14746 0.43082 0.0
C429 C 0.81184 0.13463 0.43434 0.0
C430 C 0.84082 0.14859 0.40491 0.0
C431 C 0.82877 0.13605 0.3828 0.0
C432 C 0.80849 0.12264 0.38642 0.0
C433 C 0.8001 0.12263 0.41198 0.0
C434 C 0.86315 0.1598 0.4024 0.0
C435 C 0.87346 0.18157 0.40859 0.0
C436 C 0.87771 0.18839 0.43651 0.0
C437 C 0.88989 0.20839 0.44278 0.0
C438 C 0.89821 0.22166 0.42074 0.0
C439 C 0.89503 0.21521 0.39267 0.0
C440 C 0.88201 0.19517 0.38672 0.0
H441 H 0.06499 0.54908 0.23184 0.0
H442 H 0.06099 0.56027 0.31889 0.0
H443 H 0.04055 0.58384 0.25425 0.0
H444 H 0.08488 0.54458 0.27129 0.0
H445 H 0.07773 0.54365 0.30673 0.0
H446 H 0.04864 0.51793 0.23866 0.0
H447 H 0.03113 0.46126 0.26954 0.0
H448 H 0.06838 0.51169 0.32134 0.0
C449 C 0.05974 0.55468 0.24783 0.0
C450 C 0.05099 0.56547 0.23969 0.0
C451 C 0.0621 0.55141 0.27639 0.0
C452 C 0.05775 0.56122 0.2969 0.0
C453 C 0.05011 0.57307 0.28884 0.0
C454 C 0.04606 0.5744 0.26041 0.0
C455 C 0.07192 0.5399 0.28471 0.0
C456 C 0.05873 0.51774 0.28148 0.0
C457 C 0.04844 0.50913 0.25595 0.0
C458 C 0.03834 0.48884 0.25175 0.0
C459 C 0.03828 0.47688 0.27328 0.0
C460 C 0.04919 0.48498 0.29831 0.0
C461 C 0.05942 0.50541 0.30236 0.0
H462 H 0.53152 0.51639 0.23893 0.0
H463 H 0.53147 0.53486 0.32355 0.0
H464 H 0.55581 0.57694 0.25753 0.0
H465 H 0.53249 0.49795 0.28641 0.0
H466 H 0.52108 0.50151 0.31548 0.0
H467 H 0.51264 0.48551 0.23892 0.0
H468 H 0.45102 0.44473 0.24908 0.0
H469 H 0.48572 0.48218 0.31805 0.0
C470 C 0.53401 0.52755 0.25377 0.0
C471 C 0.5435 0.54699 0.24462 0.0
C472 C 0.52897 0.52272 0.28201 0.0
C473 C 0.53406 0.53801 0.30141 0.0
C474 C 0.54343 0.55752 0.29238 0.0
C475 C 0.54769 0.56178 0.264 0.0
C476 C 0.52153 0.50201 0.29216 0.0
C477 C 0.50153 0.48662 0.27961 0.0
C478 C 0.49982 0.47986 0.25176 0.0
C479 C 0.48155 0.46519 0.24039 0.0
C480 C 0.46524 0.45609 0.25767 0.0
C481 C 0.46671 0.46187 0.28569 0.0
C482 C 0.48468 0.47757 0.29643 0.0
H483 H 0.5143 0.97573 0.22537 0.0
H484 H 0.52073 0.96752 0.31358 0.0
H485 H 0.57164 0.9957 0.26173 0.0
H486 H 0.48601 0.94927 0.25665 0.0
H487 H 0.48841 0.95342 0.29351 0.0
H488 H 0.48792 0.97693 0.22448 0.0
H489 H 0.4507 0.99632 0.25524 0.0
H490 H 0.4734 0.96989 0.31165 0.0
C491 C 0.52347 0.9785 0.24399 0.0
C492 C 0.54395 0.98758 0.24101 0.0
C493 C 0.51492 0.97222 0.27042 0.0
C494 C 0.52719 0.97371 0.29357 0.0
C495 C 0.54768 0.98211 0.29049 0.0
C496 C 0.55596 0.98973 0.26445 0.0
C497 C 0.49259 0.961 0.27297 0.0
C498 C 0.48321 0.97339 0.269 0.0
C499 C 0.48151 0.97979 0.24207 0.0
C500 C 0.47026 0.98857 0.23707 0.0
C501 C 0.46058 0.99093 0.25947 0.0
C502 C 0.46135 0.98402 0.28637 0.0
C503 C 0.47311 0.97569 0.29114 0.0
H504 H 0.49679 0.01909 0.78095 0.0
H505 H 0.48533 0.02338 0.6934 0.0
H506 H 0.47716 0.05767 0.75424 0.0
H507 H 0.486 0.99123 0.73864 0.0
H508 H 0.4966 1.00221 0.7063 0.0
H509 H 0.50759 0.99834 0.78252 0.0
H510 H 0.56661 0.01226 0.76706 0.0
H511 H 0.53212 0.01787 0.70053 0.0
C512 C 0.49362 0.02631 0.76426 0.0
C513 C 0.48728 0.03925 0.7711 0.0
C514 C 0.49398 0.02118 0.73615 0.0
C515 C 0.48687 0.02852 0.71483 0.0
C516 C 0.48047 0.04148 0.72133 0.0
C517 C 0.482 0.04765 0.74923 0.0
C518 C 0.49792 1.00497 0.72933 0.0
C519 C 0.51769 0.00839 0.74045 0.0
C520 C 0.51982 1.00372 0.76845 0.0
C521 C 0.53751 1.00531 0.7782 0.0
C522 C 0.55283 0.01082 0.75954 0.0
C523 C 0.55099 0.0152 0.73156 0.0
C524 C 0.5336 0.0145 0.7222 0.0
H525 H 1.00888 0.49357 0.7807 0.0
H526 H 0.98721 0.46871 0.69794 0.0
H527 H 0.98184 0.43198 0.76752 0.0
H528 H 0.02044 0.51376 0.73465 0.0
H529 H 1.00583 0.50352 0.70331 0.0
H530 H 1.00161 0.51599 0.77836 0.0
H531 H 0.9654 0.53946 0.75511 0.0
H532 H 0.98562 0.51659 0.69169 0.0
C533 C 1.00088 0.48106 0.76687 0.0
C534 C 0.995 0.4625 0.77757 0.0
C535 C 0.99746 0.48352 0.73831 0.0
C536 C 0.98904 0.46704 0.7202 0.0
C537 C 0.98353 0.44846 0.73075 0.0
C538 C 0.98618 0.44633 0.75941 0.0
C539 C 1.00505 0.50388 0.72655 0.0
C540 C 0.99291 0.51285 0.73458 0.0
C541 C 0.99281 0.51808 0.7627 0.0
C542 C 0.98292 0.52766 0.77046 0.0
C543 C 0.97303 0.53202 0.7495 0.0
C544 C 0.97456 0.52882 0.72104 0.0
C545 C 0.9842 0.51887 0.71367 0.0
H546 H 0.51366 0.49151 0.78794 0.0
H547 H 0.50745 0.47632 0.7002 0.0
H548 H 0.45687 0.44963 0.75291 0.0
H549 H 0.54209 0.494 0.75734 0.0
H550 H 0.53957 0.49498 0.72033 0.0
H551 H 0.54206 0.51982 0.78798 0.0
H552 H 0.57398 0.57693 0.75231 0.0
H553 H 0.55149 0.52595 0.69948 0.0
C554 C 0.50448 0.48412 0.7696 0.0
C555 C 0.48413 0.4713 0.77285 0.0
C556 C 0.51299 0.48661 0.74319 0.0
C557 C 0.50088 0.47534 0.72024 0.0
C558 C 0.48059 0.46178 0.72354 0.0
C559 C 0.4723 0.46046 0.74972 0.0
C560 C 0.53527 0.49849 0.74048 0.0
C561 C 0.54409 0.52039 0.74308 0.0
C562 C 0.5468 0.52902 0.76968 0.0
C563 C 0.5573 0.54943 0.7732 0.0
C564 C 0.56535 0.56124 0.74954 0.0
C565 C 0.56417 0.55304 0.72302 0.0
C566 C 0.55266 0.53254 0.71977 0.0
H567 H 0.72014 0.87995 0.56735 0.0
H568 H 0.72971 0.89689 0.65421 0.0
H569 H 0.69143 0.90774 0.60183 0.0
H570 H 0.75022 0.88488 0.59989 0.0
H571 H 0.74592 0.88137 0.63645 0.0
H572 H 0.72535 0.85651 0.56543 0.0
H573 H 0.70953 0.80017 0.59648 0.0
H574 H 0.73403 0.84914 0.65342 0.0
C575 C 0.71599 0.88479 0.58547 0.0
C576 C 0.70406 0.89294 0.58143 0.0
C577 C 0.72415 0.88469 0.61211 0.0
C578 C 0.72183 0.89487 0.63436 0.0
C579 C 0.71034 0.90357 0.63042 0.0
C580 C 0.70048 0.90127 0.60457 0.0
C581 C 0.73838 0.87724 0.6154 0.0
C582 C 0.729 0.85531 0.61054 0.0
C583 C 0.72318 0.84728 0.5832 0.0
C584 C 0.71588 0.8274 0.57811 0.0
C585 C 0.71483 0.81549 0.6004 0.0
C586 C 0.72158 0.82322 0.62741 0.0
C587 C 0.72848 0.8431 0.63259 0.0
H588 H 0.19088 0.84905 0.57035 0.0
H589 H 0.20584 0.86944 0.65619 0.0
H590 H 0.22349 0.91032 0.58877 0.0
H591 H 0.20223 0.83315 0.62035 0.0
H592 H 0.18891 0.83515 0.64797 0.0
H593 H 0.18461 0.81911 0.57228 0.0
H594 H 0.12328 0.77521 0.57818 0.0
H595 H 0.15351 0.81403 0.64795 0.0
C596 C 0.1972 0.86061 0.58573 0.0
C597 C 0.20711 0.87997 0.57607 0.0
C598 C 0.19657 0.85639 0.6146 0.0
C599 C 0.2054 0.87216 0.63395 0.0
C600 C 0.21451 0.89154 0.62452 0.0
C601 C 0.21526 0.89528 0.59575 0.0
C602 C 0.19009 0.83583 0.62473 0.0
C603 C 0.17114 0.81926 0.61125 0.0
C604 C 0.17114 0.81245 0.584 0.0
C605 C 0.15375 0.79704 0.5716 0.0
C606 C 0.13683 0.78707 0.58764 0.0
C607 C 0.13672 0.79278 0.61528 0.0
C608 C 0.15368 0.80935 0.62673 0.0
H609 H 0.18062 0.31016 0.56084 0.0
H610 H 0.19097 0.30082 0.64721 0.0
H611 H 0.23938 0.32985 0.5911 0.0
H612 H 0.15416 0.2817 0.59479 0.0
H613 H 0.15783 0.28792 0.63108 0.0
H614 H 0.15044 0.30377 0.55956 0.0
H615 H 0.11998 0.33046 0.59142 0.0
H616 H 0.14696 0.3086 0.64872 0.0
C617 C 0.19055 0.3125 0.57836 0.0
C618 C 0.21079 0.32157 0.57339 0.0
C619 C 0.1832 0.30573 0.60526 0.0
C620 C 0.19649 0.30719 0.6269 0.0
C621 C 0.21681 0.31599 0.62191 0.0
C622 C 0.22386 0.32372 0.59538 0.0
C623 C 0.16108 0.29431 0.60969 0.0
C624 C 0.15125 0.30618 0.60474 0.0
C625 C 0.14661 0.30939 0.57725 0.0
C626 C 0.1361 0.31894 0.57234 0.0
C627 C 0.12948 0.32458 0.59531 0.0
C628 C 0.13284 0.3205 0.62293 0.0
C629 C 0.14437 0.31192 0.62752 0.0
H630 H 0.96564 0.41818 0.11035 0.0
H631 H 0.0572 0.49898 0.20203 0.0
H632 H 0.02611 0.43884 0.08957 0.0
H633 H 1.00114 0.45849 0.23817 0.0
H634 H 0.04481 0.48171 0.15687 0.0
H635 H 0.97744 0.43722 0.15402 0.0
C636 C 0.98141 0.42676 0.11495 0.0
C637 C 0.99493 0.42689 0.09635 0.0
C638 C 0.0352 0.47673 0.17465 0.0
C639 C 1.00846 0.4489 0.14601 0.0
C640 C 0.04215 0.48668 0.20026 0.0
C641 C 0.03009 0.48015 0.22371 0.0
C642 C 0.01597 0.46035 0.17243 0.0
C643 C 1.01084 0.46394 0.22051 0.0
C644 C 0.98809 0.43756 0.13987 0.0
C645 C 0.01519 0.43823 0.10341 0.0
N646 N 1.00433 0.4546 0.19529 0.0
N647 N 0.02136 0.4489 0.12764 0.0
H648 H 0.59795 0.60986 0.092 0.0
H649 H 0.56069 0.53101 0.21442 0.0
H650 H 0.60078 0.55735 0.09074 0.0
H651 H 0.54501 0.57531 0.20956 0.0
H652 H 0.57602 0.5413 0.16923 0.0
H653 H 0.57957 0.59868 0.13569 0.0
C654 C 0.59474 0.59604 0.10086 0.0
C655 C 0.60097 0.58456 0.08771 0.0
C656 C 0.56909 0.5487 0.17786 0.0
C657 C 0.58005 0.57176 0.1374 0.0
C658 C 0.56011 0.54267 0.20364 0.0
C659 C 0.55136 0.55219 0.21585 0.0
C660 C 0.56962 0.56456 0.16414 0.0
C661 C 0.55172 0.56766 0.20108 0.0
C662 C 0.58419 0.58964 0.12568 0.0
C663 C 0.59632 0.56673 0.10005 0.0
N664 N 0.56082 0.57346 0.17606 0.0
N665 N 0.58624 0.56095 0.12416 0.0
H666 H 0.42932 0.02604 0.09184 0.0
H667 H 0.46298 0.96617 0.18999 0.0
H668 H 0.42892 0.97399 0.06697 0.0
H669 H 0.467 0.01944 0.21778 0.0
H670 H 0.45257 0.97065 0.14369 0.0
H671 H 0.44447 0.02536 0.13735 0.0
C672 C 0.43243 0.01453 0.09588 0.0
C673 C 0.4277 0.99999 0.07559 0.0
C674 C 0.45587 0.98151 0.15977 0.0
C675 C 0.44504 0.99918 0.12728 0.0
C676 C 0.46209 0.97907 0.18627 0.0
C677 C 0.466 0.99249 0.20793 0.0
C678 C 0.45328 0.99738 0.15473 0.0
C679 C 0.46395 0.00861 0.20179 0.0
C680 C 0.4411 0.01418 0.12179 0.0
C681 C 0.43214 0.98547 0.08192 0.0
N682 N 0.45759 0.01055 0.1758 0.0
N683 N 0.44047 0.98544 0.10711 0.0
H684 H 0.42823 0.04202 0.91935 0.0
H685 H 0.50684 0.03926 0.82039 0.0
H686 H 0.45634 0.00918 0.93913 0.0
H687 H 0.45717 0.0436 0.78995 0.0
H688 H 0.49601 0.03814 0.86843 0.0
H689 H 0.44717 0.05331 0.87617 0.0
C690 C 0.43868 0.03754 0.91489 0.0
C691 C 0.44051 0.02441 0.93246 0.0
C692 C 0.48783 0.03975 0.85107 0.0
C693 C 0.46222 0.03734 0.88365 0.0
C694 C 0.49389 0.04026 0.82363 0.0
C695 C 0.48296 0.04148 0.80073 0.0
C696 C 0.47095 0.04081 0.85568 0.0
C697 C 0.46649 0.04311 0.80657 0.0
C698 C 0.4494 0.0439 0.8903 0.0
C699 C 0.45426 0.01903 0.9258 0.0
N700 N 0.46099 0.04265 0.83337 0.0
N701 N 0.46452 0.02542 0.90181 0.0
H702 H 0.97098 0.4374 0.95174 0.0
H703 H 0.01188 0.4428 0.79976 0.0
H704 H 1.0106 0.41711 0.9336 0.0
H705 H 0.98493 0.47545 0.82357 0.0
H706 H 0.01266 0.43423 0.84893 0.0
H707 H 0.97671 0.45223 0.9054 0.0
C708 C 0.98098 0.43615 0.93806 0.0
C709 C 0.99018 0.42582 0.9465 0.0
C710 C 1.0068 0.44347 0.84351 0.0
C711 C 0.99672 0.44273 0.89323 0.0
C712 C 1.00631 0.44832 0.81546 0.0
C713 C 0.99813 0.45966 0.80763 0.0
C714 C 0.99879 0.44977 0.86388 0.0
C715 C 0.99133 0.46665 0.82877 0.0
C716 C 0.98431 0.44471 0.91162 0.0
C717 C 1.00314 0.42486 0.92795 0.0
N718 N 0.99155 0.46135 0.85591 0.0
N719 N 1.00584 0.433 0.90206 0.0
H720 H 0.61713 0.61812 0.92322 0.0
H721 H 0.53455 0.53665 0.82037 0.0
H722 H 0.58028 0.55784 0.94737 0.0
H723 H 0.59168 0.58228 0.79227 0.0
H724 H 0.54511 0.54889 0.86854 0.0
H725 H 0.60123 0.60955 0.87616 0.0
C726 C 0.60546 0.60319 0.91875 0.0
C727 C 0.60015 0.58859 0.93894 0.0
C728 C 0.55509 0.55634 0.85158 0.0
C729 C 0.58182 0.57886 0.88579 0.0
C730 C 0.54918 0.54932 0.82412 0.0
C731 C 0.56224 0.55826 0.80197 0.0
C732 C 0.57401 0.57265 0.85687 0.0
C733 C 0.58085 0.57498 0.80826 0.0
C734 C 0.59648 0.59832 0.89199 0.0
C735 C 0.58497 0.56945 0.93218 0.0
N736 N 0.58617 0.58156 0.8351 0.0
N737 N 0.57633 0.56511 0.90611 0.0
H738 H 0.99581 0.59737 0.91722 0.0
H739 H 0.98605 0.51164 0.82063 0.0
H740 H 0.03049 0.57064 0.93364 0.0
H741 H 0.98524 0.5617 0.78729 0.0
H742 H 0.99319 0.52672 0.86743 0.0
H743 H 0.98197 0.57719 0.8745 0.0
C744 C 1.00025 0.58704 0.91207 0.0
C745 C 0.01447 0.5858 0.92868 0.0
C746 C 0.9911 0.53412 0.84975 0.0
C747 C 0.99853 0.56261 0.88048 0.0
C748 C 0.98716 0.52563 0.82301 0.0
C749 C 0.98503 0.53532 0.79965 0.0
C750 C 0.99247 0.55218 0.85329 0.0
C751 C 0.98624 0.55329 0.80441 0.0
C752 C 0.99242 0.57562 0.88775 0.0
C753 C 0.01975 0.5722 0.92111 0.0
N754 N 0.98986 0.56109 0.83063 0.0
N755 N 0.01179 0.56111 0.8975 0.0
H756 H 0.41391 0.45664 0.9171 0.0
H757 H 0.49543 0.45942 0.81987 0.0
H758 H 0.43678 0.41851 0.93107 0.0
H759 H 0.45241 0.47332 0.78895 0.0
H760 H 0.47823 0.44925 0.86457 0.0
H761 H 0.43173 0.46739 0.8733 0.0
C762 C 0.42267 0.45049 0.91091 0.0
C763 C 0.42384 0.43662 0.9277 0.0
C764 C 0.47266 0.45464 0.84803 0.0
C765 C 0.44453 0.44914 0.87785 0.0
C766 C 0.48256 0.46062 0.82273 0.0
C767 C 0.47533 0.46729 0.80089 0.0
C768 C 0.45565 0.45567 0.85158 0.0
C769 C 0.45842 0.46828 0.80537 0.0
C770 C 0.4328 0.45662 0.8859 0.0
C771 C 0.43537 0.42913 0.91862 0.0
N772 N 0.44919 0.46261 0.83027 0.0
N773 N 0.44545 0.43562 0.89438 0.0
H774 H 0.5938 0.99091 0.92583 0.0
H775 H 0.53173 0.02145 0.82457 0.0
H776 H 0.5844 0.0384 0.94293 0.0
H777 H 0.55174 0.98298 0.79951 0.0
H778 H 0.54454 0.02227 0.87233 0.0
H779 H 0.57272 0.98294 0.88336 0.0
C780 C 0.58721 0.99957 0.92079 0.0
C781 C 0.59111 0.01551 0.93778 0.0
C782 C 0.54585 0.01341 0.85648 0.0
C783 C 0.56685 1.00638 0.88941 0.0
C784 C 0.53836 0.01278 0.82933 0.0
C785 C 0.54091 1.00233 0.80808 0.0
C786 C 0.55587 1.00343 0.86235 0.0
C787 C 0.54974 0.99144 0.81528 0.0
C788 C 0.57517 0.99501 0.89656 0.0
C789 C 0.58205 0.02614 0.93028 0.0
N790 N 0.5571 0.99245 0.84172 0.0
N791 N 0.57044 0.02145 0.90663 0.0
H792 H 0.61403 0.04808 0.09778 0.0
H793 H 0.53294 0.96477 0.19374 0.0
H794 H 0.58886 0.98672 0.07962 0.0
H795 H 0.5754 0.02251 0.22517 0.0
H796 H 0.54973 0.97324 0.14876 0.0
H797 H 0.59675 0.03953 0.14203 0.0
C798 C 0.60489 0.03279 0.10314 0.0
C799 C 0.60289 0.01808 0.08501 0.0
C800 C 0.5553 0.98405 0.16549 0.0
C801 C 0.58287 0.00822 0.13546 0.0
C802 C 0.54563 0.97931 0.19098 0.0
C803 C 0.5528 0.99303 0.21303 0.0
C804 C 0.57205 1.00271 0.162 0.0
C805 C 0.56947 0.01155 0.20863 0.0
C806 C 0.59506 0.02794 0.12841 0.0
C807 C 0.59089 0.99851 0.09307 0.0
N808 N 0.5785 0.01589 0.18356 0.0
N809 N 0.58118 0.99413 0.11766 0.0
H810 H 0.01403 0.59804 0.08665 0.0
H811 H 0.07668 0.57397 0.19686 0.0
H812 H 0.06914 0.60193 0.06825 0.0
H813 H 0.01934 0.56518 0.21418 0.0
H814 H 0.07327 0.58275 0.1488 0.0
H815 H 0.01502 0.58505 0.133 0.0
C816 C 0.0263 0.59614 0.0923 0.0
C817 C 0.04156 0.60118 0.07355 0.0
C818 C 0.06135 0.57876 0.16304 0.0
C819 C 0.04278 0.58632 0.12644 0.0
C820 C 0.06323 0.57358 0.19045 0.0
C821 C 0.04832 0.56891 0.20965 0.0
C822 C 0.04449 0.5794 0.15474 0.0
C823 C 0.03135 0.56898 0.2002 0.0
C824 C 0.02684 0.58868 0.11872 0.0
C825 C 0.05706 0.59834 0.08199 0.0
N826 N 0.02995 0.57428 0.17349 0.0
N827 N 0.0573 0.59118 0.10779 0.0
H828 H 0.42491 0.40564 0.08498 0.0
H829 H 0.49356 0.49022 0.19612 0.0
H830 H 0.44427 0.46658 0.07414 0.0
H831 H 0.46242 0.42881 0.21578 0.0
H832 H 0.48215 0.48184 0.1471 0.0
H833 H 0.44445 0.41406 0.12904 0.0
C834 C 0.43339 0.42079 0.09172 0.0
C835 C 0.43274 0.43538 0.07603 0.0
C836 C 0.47807 0.47018 0.16206 0.0
C837 C 0.45523 0.44512 0.12621 0.0
C838 C 0.48476 0.47496 0.18995 0.0
C839 C 0.4787 0.46019 0.21004 0.0
C840 C 0.46533 0.4505 0.15424 0.0
C841 C 0.46715 0.44064 0.20097 0.0
C842 C 0.44453 0.42558 0.11685 0.0
C843 C 0.44411 0.4548 0.08573 0.0
N844 N 0.46065 0.43636 0.17379 0.0
N845 N 0.4548 0.45908 0.11022 0.0
H846 H 0.69762 0.76012 0.42682 0.0
H847 H 0.69208 0.8313 0.53895 0.0
H848 H 0.65274 0.77557 0.42352 0.0
H849 H 0.72695 0.80445 0.55191 0.0
H850 H 0.68077 0.81477 0.49309 0.0
H851 H 0.71157 0.77982 0.46966 0.0
C852 C 0.69072 0.76767 0.43505 0.0
C853 C 0.6739 0.76607 0.42164 0.0
C854 C 0.69095 0.81257 0.50595 0.0
C855 C 0.68988 0.78876 0.47054 0.0
C856 C 0.69748 0.82208 0.53199 0.0
C857 C 0.71024 0.81901 0.54932 0.0
C858 C 0.69743 0.80011 0.49714 0.0
C859 C 0.71682 0.80692 0.53937 0.0
C860 C 0.69868 0.77891 0.45951 0.0
C861 C 0.66562 0.77625 0.43326 0.0
N862 N 0.7103 0.79788 0.51399 0.0
N863 N 0.67369 0.78715 0.45702 0.0
H864 H 0.25179 0.88406 0.41272 0.0
H865 H 0.20945 0.91028 0.54459 0.0
H866 H 0.26023 0.94141 0.425 0.0
H867 H 0.21589 0.85996 0.53854 0.0
H868 H 0.22257 0.91988 0.49739 0.0
H869 H 0.23302 0.87313 0.45518 0.0
C870 C 0.2497 0.89442 0.42433 0.0
C871 C 0.25787 0.91381 0.4154 0.0
C872 C 0.22084 0.90663 0.50639 0.0
C873 C 0.23619 0.90122 0.46441 0.0
C874 C 0.21339 0.90112 0.53332 0.0
C875 C 0.21165 0.88432 0.54583 0.0
C876 C 0.22641 0.89515 0.49177 0.0
C877 C 0.21663 0.87286 0.52989 0.0
C878 C 0.23891 0.88811 0.44865 0.0
C879 C 0.25436 0.9264 0.43126 0.0
N880 N 0.22387 0.87856 0.50387 0.0
N881 N 0.24386 0.91991 0.45518 0.0
H882 H 0.08304 0.29357 0.40602 0.0
H883 H 0.13551 0.35032 0.54959 0.0
H884 H 0.09512 0.35171 0.42379 0.0
H885 H 0.12194 0.29203 0.52941 0.0
H886 H 0.12214 0.35204 0.50334 0.0
H887 H 0.09831 0.29363 0.45085 0.0
C888 C 0.08888 0.3064 0.41937 0.0
C889 C 0.08773 0.32267 0.41103 0.0
C890 C 0.12224 0.33895 0.50899 0.0
C891 C 0.10544 0.32282 0.46284 0.0
C892 C 0.12984 0.33794 0.53537 0.0
C893 C 0.12988 0.32101 0.54342 0.0
C894 C 0.11456 0.32288 0.49054 0.0
C895 C 0.12251 0.30549 0.52406 0.0
C896 C 0.09767 0.30642 0.44507 0.0
C897 C 0.09564 0.33883 0.42937 0.0
N898 N 0.11509 0.30678 0.49865 0.0
N899 N 0.10416 0.33849 0.45447 0.0
H900 H 0.10762 0.3189 0.2667 0.0
H901 H 0.15168 0.39572 0.14225 0.0
H902 H 0.10238 0.36997 0.26168 0.0
H903 H 0.14962 0.34069 0.14468 0.0
H904 H 0.13997 0.39027 0.19035 0.0
H905 H 0.12891 0.33034 0.22656 0.0
C906 C 0.11099 0.33259 0.25719 0.0
C907 C 0.10288 0.34332 0.26732 0.0
C908 C 0.14244 0.37959 0.18048 0.0
C909 C 0.1274 0.35655 0.22102 0.0
C910 C 0.14914 0.38268 0.15303 0.0
C911 C 0.15127 0.36846 0.13907 0.0
C912 C 0.13793 0.3622 0.19412 0.0
C913 C 0.14821 0.3521 0.15438 0.0
C914 C 0.12324 0.33916 0.23427 0.0
C915 C 0.10813 0.36114 0.25439 0.0
N916 N 0.14143 0.3493 0.18087 0.0
N917 N 0.11989 0.3671 0.23165 0.0
H918 H 0.685 0.75329 0.25985 0.0
H919 H 0.65697 0.81353 0.15286 0.0
H920 H 0.6472 0.77553 0.27926 0.0
H921 H 0.68269 0.78003 0.12746 0.0
H922 H 0.66047 0.80627 0.20192 0.0
H923 H 0.69069 0.76891 0.21378 0.0
C924 C 0.67806 0.7616 0.25456 0.0
C925 C 0.66538 0.76287 0.27329 0.0
C926 C 0.66562 0.80074 0.18563 0.0
C927 C 0.67195 0.78087 0.22082 0.0
C928 C 0.6638 0.80505 0.15766 0.0
C929 C 0.66928 0.79712 0.13608 0.0
C930 C 0.67303 0.78848 0.19204 0.0
C931 C 0.67795 0.78612 0.14348 0.0
C932 C 0.6813 0.77049 0.22827 0.0
C933 C 0.65685 0.77391 0.26535 0.0
N934 N 0.67935 0.78194 0.17082 0.0
N935 N 0.66021 0.78238 0.23971 0.0
H936 H 0.24041 0.89006 0.27652 0.0
H937 H 0.2576 0.91599 0.11966 0.0
H938 H 0.27936 0.94985 0.25185 0.0
H939 H 0.1998 0.87127 0.1469 0.0
H940 H 0.26611 0.92882 0.16726 0.0
H941 H 0.22546 0.88243 0.2292 0.0
C942 C 0.24564 0.90163 0.26115 0.0
C943 C 0.26123 0.92056 0.26788 0.0
C944 C 0.25143 0.91643 0.16267 0.0
C945 C 0.24447 0.91187 0.21376 0.0
C946 C 0.24643 0.9091 0.13533 0.0
C947 C 0.22788 0.89235 0.12896 0.0
C948 C 0.23807 0.9067 0.18406 0.0
C949 C 0.21442 0.8839 0.15078 0.0
C950 C 0.23703 0.8973 0.23426 0.0
C951 C 0.26738 0.93507 0.24738 0.0
N952 N 0.21992 0.89092 0.17746 0.0
N953 N 0.25926 0.93033 0.22095 0.0
H954 H 0.64704 0.91162 0.26455 0.0
H955 H 0.67069 0.85965 0.14275 0.0
H956 H 0.69865 0.90627 0.26331 0.0
H957 H 0.61619 0.85991 0.14413 0.0
H958 H 0.67891 0.8734 0.1897 0.0
H959 H 0.6338 0.89046 0.22273 0.0
C960 C 0.65554 0.90595 0.25561 0.0
C961 C 0.67409 0.91093 0.26729 0.0
C962 C 0.66503 0.87027 0.17993 0.0
C963 C 0.65902 0.88669 0.2197 0.0
C964 C 0.66015 0.86213 0.15308 0.0
C965 C 0.64272 0.85868 0.13911 0.0
C966 C 0.65261 0.87536 0.193 0.0
C967 C 0.62999 0.8627 0.15374 0.0
C968 C 0.64795 0.89383 0.23181 0.0
C969 C 0.68439 0.90305 0.25492 0.0
N970 N 0.63531 0.87108 0.17974 0.0
N971 N 0.67677 0.89145 0.2318 0.0
H972 H 0.10576 0.74895 0.26317 0.0
H973 H 0.12115 0.80709 0.12086 0.0
H974 H 0.08516 0.78907 0.25067 0.0
H975 H 0.16228 0.79028 0.1502 0.0
H976 H 0.10455 0.79694 0.16589 0.0
H977 H 0.12319 0.75989 0.21873 0.0
C978 C 0.10478 0.75992 0.25099 0.0
C979 C 0.09404 0.76815 0.26062 0.0
C980 C 0.11731 0.79563 0.16255 0.0
C981 C 0.11376 0.78058 0.20997 0.0
C982 C 0.12676 0.80144 0.13697 0.0
C983 C 0.14316 0.79966 0.13208 0.0
C984 C 0.12403 0.78758 0.1831 0.0
C985 C 0.14982 0.7921 0.15342 0.0
C986 C 0.11483 0.76625 0.22581 0.0
C987 C 0.09335 0.78241 0.2441 0.0
N988 N 0.14009 0.78613 0.17797 0.0
N989 N 0.10298 0.78809 0.21953 0.0
H990 H 0.23889 0.36374 0.27137 0.0
H991 H 0.21306 0.31054 0.1233 0.0
H992 H 0.25406 0.32073 0.25067 0.0
H993 H 0.19156 0.34758 0.14934 0.0
H994 H 0.2239 0.3101 0.17174 0.0
H995 H 0.21809 0.3548 0.22893 0.0
C996 C 0.23779 0.35233 0.25793 0.0
C997 C 0.2485 0.34317 0.2644 0.0
C998 C 0.21643 0.31797 0.16702 0.0
C999 C 0.22462 0.33286 0.21549 0.0
C1000 C 0.21017 0.31816 0.1394 0.0
C1001 C 0.20167 0.32935 0.13227 0.0
C1002 C 0.21439 0.32925 0.18758 0.0
C1003 C 0.19809 0.33881 0.15391 0.0
C1004 C 0.22579 0.34715 0.23372 0.0
C1005 C 0.24621 0.32828 0.24638 0.0
N1006 N 0.20483 0.33887 0.1805 0.0
N1007 N 0.23473 0.32377 0.22252 0.0
H1008 H 0.27269 0.3797 0.42327 0.0
H1009 H 0.19747 0.29817 0.5268 0.0
H1010 H 0.24872 0.31814 0.40838 0.0
H1011 H 0.2412 0.3564 0.55501 0.0
H1012 H 0.21187 0.306 0.48014 0.0
H1013 H 0.25726 0.37202 0.46897 0.0
C1014 C 0.26416 0.36455 0.42961 0.0
C1015 C 0.26199 0.34951 0.41203 0.0
C1016 C 0.21822 0.31706 0.49653 0.0
C1017 C 0.24414 0.34068 0.46411 0.0
C1018 C 0.20993 0.31269 0.52298 0.0
C1019 C 0.21816 0.32673 0.54459 0.0
C1020 C 0.23467 0.33568 0.49164 0.0
C1021 C 0.23447 0.34522 0.53881 0.0
C1022 C 0.25542 0.36021 0.45571 0.0
C1023 C 0.25084 0.33017 0.42137 0.0
N1024 N 0.24217 0.3492 0.51281 0.0
N1025 N 0.24219 0.32627 0.44675 0.0
H1026 H 0.67578 0.93687 0.43153 0.0
H1027 H 0.69355 0.86829 0.53531 0.0
H1028 H 0.70274 0.90478 0.40478 0.0
H1029 H 0.70063 0.92341 0.56097 0.0
H1030 H 0.6871 0.8748 0.48706 0.0
H1031 H 0.67445 0.92466 0.47934 0.0
C1032 C 0.68111 0.92702 0.43563 0.0
C1033 C 0.68962 0.92201 0.41436 0.0
C1034 C 0.68976 0.88522 0.50353 0.0
C1035 C 0.68786 0.90785 0.46854 0.0
C1036 C 0.69357 0.88161 0.53104 0.0
C1037 C 0.69772 0.89529 0.55256 0.0
C1038 C 0.68969 0.90239 0.4976 0.0
C1039 C 0.6971 0.91212 0.54558 0.0
C1040 C 0.68041 0.92013 0.46284 0.0
C1041 C 0.69633 0.9092 0.42074 0.0
N1042 N 0.69319 0.91516 0.51877 0.0
N1043 N 0.69534 0.90256 0.44731 0.0
H1044 H 0.09782 0.73824 0.4165 0.0
H1045 H 0.1656 0.82266 0.52808 0.0
H1046 H 0.11594 0.79896 0.4069 0.0
H1047 H 0.13725 0.76111 0.546 0.0
H1048 H 0.1545 0.81457 0.47895 0.0
H1049 H 0.11828 0.74681 0.45967 0.0
C1050 C 0.1062 0.75338 0.42332 0.0
C1051 C 0.10492 0.76786 0.40826 0.0
C1052 C 0.15102 0.80284 0.49352 0.0
C1053 C 0.12848 0.77777 0.45745 0.0
C1054 C 0.15756 0.80746 0.52149 0.0
C1055 C 0.15208 0.79251 0.54117 0.0
C1056 C 0.13895 0.78315 0.48524 0.0
C1057 C 0.14151 0.77305 0.53152 0.0
C1058 C 0.11789 0.75826 0.44794 0.0
C1059 C 0.11623 0.78726 0.41802 0.0
N1060 N 0.13503 0.76891 0.50431 0.0
N1061 N 0.12743 0.79162 0.44204 0.0
H1062 H 0.31106 0.09143 0.76722 0.0
H1063 H 0.40185 0.1741 0.85831 0.0
H1064 H 0.37165 0.1122 0.74711 0.0
H1065 H 0.345 0.13457 0.89307 0.0
H1066 H 0.39021 0.15593 0.81358 0.0
H1067 H 0.32261 0.11127 0.81008 0.0
C1068 C 0.32682 0.10018 0.77182 0.0
C1069 C 0.34042 0.10011 0.7536 0.0
C1070 C 0.38027 0.15136 0.83096 0.0
C1071 C 0.35372 0.12307 0.80247 0.0
C1072 C 0.38681 0.16181 0.85629 0.0
C1073 C 0.37429 0.15581 0.87923 0.0
C1074 C 0.361 0.13502 0.82853 0.0
C1075 C 0.35505 0.13963 0.8758 0.0
C1076 C 0.33337 0.11146 0.7963 0.0
C1077 C 0.36066 0.11172 0.76068 0.0
N1078 N 0.34896 0.12981 0.8509 0.0
N1079 N 0.36673 0.12286 0.78452 0.0
H1080 H 0.91502 0.22411 0.73935 0.0
H1081 H 0.90657 0.25252 0.89291 0.0
H1082 H 0.94276 0.28433 0.7661 0.0
H1083 H 0.86154 0.1979 0.8548 0.0
H1084 H 0.91982 0.26452 0.84692 0.0
H1085 H 0.8952 0.21411 0.78129 0.0
C1086 C 0.9168 0.23526 0.75398 0.0
C1087 C 0.93071 0.25507 0.74948 0.0
C1088 C 0.90685 0.25003 0.84856 0.0
C1089 C 0.90822 0.24368 0.79765 0.0
C1090 C 0.89911 0.24313 0.87489 0.0
C1091 C 0.88276 0.22408 0.87796 0.0
C1092 C 0.89854 0.23771 0.82506 0.0
C1093 C 0.87432 0.21253 0.85364 0.0
C1094 C 0.9054 0.22953 0.77783 0.0
C1095 C 0.93225 0.26891 0.76889 0.0
N1096 N 0.88247 0.21944 0.82826 0.0
N1097 N 0.92137 0.26292 0.79246 0.0
H1098 H 0.7581 0.63376 0.73465 0.0
H1099 H 0.80533 0.68633 0.8824 0.0
H1100 H 0.76551 0.68954 0.75663 0.0
H1101 H 0.79726 0.63096 0.85661 0.0
H1102 H 0.7927 0.68917 0.83611 0.0
H1103 H 0.77398 0.63381 0.77881 0.0
C1104 C 0.76304 0.64607 0.74879 0.0
C1105 C 0.76034 0.66165 0.74184 0.0
C1106 C 0.79391 0.67652 0.84054 0.0
C1107 C 0.77877 0.66177 0.79299 0.0
C1108 C 0.80111 0.67488 0.86693 0.0
C1109 C 0.80239 0.65838 0.87346 0.0
C1110 C 0.78789 0.66152 0.82056 0.0
C1111 C 0.79685 0.64408 0.85252 0.0
C1112 C 0.77221 0.6461 0.77411 0.0
C1113 C 0.76722 0.67719 0.76114 0.0
N1114 N 0.78975 0.64594 0.82718 0.0
N1115 N 0.77609 0.67684 0.78594 0.0
H1116 H 0.77304 0.70806 0.59259 0.0
H1117 H 0.81971 0.67435 0.47615 0.0
H1118 H 0.77666 0.65604 0.59688 0.0
H1119 H 0.82122 0.72909 0.47186 0.0
H1120 H 0.80865 0.67039 0.52397 0.0
H1121 H 0.79413 0.71842 0.55145 0.0
C1122 C 0.77838 0.69892 0.58507 0.0
C1123 C 0.77278 0.681 0.59793 0.0
C1124 C 0.81163 0.68342 0.51276 0.0
C1125 C 0.79693 0.69276 0.55116 0.0
C1126 C 0.81823 0.68584 0.4854 0.0
C1127 C 0.8211 0.70193 0.46955 0.0
C1128 C 0.80755 0.69702 0.5244 0.0
C1129 C 0.81865 0.71615 0.48294 0.0
C1130 C 0.79044 0.70485 0.56165 0.0
C1131 C 0.78026 0.66981 0.58742 0.0
N1132 N 0.81165 0.71318 0.50938 0.0
N1133 N 0.79178 0.67579 0.56462 0.0
H1134 H 0.35534 0.08998 0.59094 0.0
H1135 H 0.3248 0.14802 0.48335 0.0
H1136 H 0.31566 0.11002 0.61007 0.0
H1137 H 0.35016 0.1142 0.458 0.0
H1138 H 0.32875 0.14116 0.53253 0.0
H1139 H 0.36031 0.10522 0.54467 0.0
C1140 C 0.34785 0.09775 0.58555 0.0
C1141 C 0.33486 0.0985 0.60426 0.0
C1142 C 0.33373 0.13549 0.51621 0.0
C1143 C 0.3406 0.11606 0.55156 0.0
C1144 C 0.33165 0.13956 0.48819 0.0
C1145 C 0.33693 0.13144 0.46664 0.0
C1146 C 0.34126 0.12334 0.52266 0.0
C1147 C 0.34563 0.12047 0.47404 0.0
C1148 C 0.35067 0.10642 0.55915 0.0
C1149 C 0.32559 0.10883 0.59618 0.0
N1150 N 0.34735 0.11658 0.50142 0.0
N1151 N 0.32857 0.11712 0.57043 0.0
H1152 H 0.94445 0.22588 0.60685 0.0
H1153 H 0.89467 0.24132 0.46853 0.0
H1154 H 0.93885 0.27645 0.59539 0.0
H1155 H 0.90099 0.19151 0.48363 0.0
H1156 H 0.90938 0.25412 0.51529 0.0
H1157 H 0.92748 0.21299 0.56203 0.0
C1158 C 0.93969 0.23435 0.59487 0.0
C1159 C 0.94315 0.25235 0.60497 0.0
C1160 C 0.90735 0.2403 0.50842 0.0
C1161 C 0.92348 0.23748 0.5532 0.0
C1162 C 0.89897 0.23299 0.48178 0.0
C1163 C 0.89652 0.21527 0.47215 0.0
C1164 C 0.9134 0.22985 0.52548 0.0
C1165 C 0.90224 0.20504 0.49023 0.0
C1166 C 0.92991 0.22691 0.5692 0.0
C1167 C 0.93655 0.26256 0.58838 0.0
N1168 N 0.91048 0.21252 0.51588 0.0
N1169 N 0.92703 0.25498 0.56323 0.0
H1170 H 0.37473 0.2478 0.58731 0.0
H1171 H 0.28831 0.19866 0.46994 0.0
H1172 H 0.32318 0.25327 0.58744 0.0
H1173 H 0.34239 0.19763 0.46968 0.0
H1174 H 0.29816 0.21459 0.51619 0.0
H1175 H 0.36056 0.22568 0.54737 0.0
C1176 C 0.36039 0.24436 0.57893 0.0
C1177 C 0.35024 0.25264 0.59059 0.0
C1178 C 0.30769 0.21058 0.50613 0.0
C1179 C 0.33383 0.22711 0.54454 0.0
C1180 C 0.30209 0.20149 0.47973 0.0
C1181 C 0.31461 0.19695 0.46565 0.0
C1182 C 0.32592 0.21513 0.51851 0.0
C1183 C 0.33212 0.20066 0.47963 0.0
C1184 C 0.35225 0.23162 0.55611 0.0
C1185 C 0.33158 0.24736 0.57898 0.0
N1186 N 0.33731 0.2097 0.50507 0.0
N1187 N 0.32403 0.23503 0.5564 0.0
H1188 H 0.766 0.08135 0.59381 0.0
H1189 H 0.78015 0.13702 0.44952 0.0
H1190 H 0.74233 0.11869 0.57847 0.0
H1191 H 0.82314 0.12356 0.48201 0.0
H1192 H 0.76321 0.12701 0.49435 0.0
H1193 H 0.78392 0.09269 0.5498 0.0
C1194 C 0.76444 0.09177 0.58107 0.0
C1195 C 0.75271 0.09912 0.58978 0.0
C1196 C 0.77648 0.12646 0.49176 0.0
C1197 C 0.77301 0.11204 0.53966 0.0
C1198 C 0.78614 0.13222 0.46631 0.0
C1199 C 0.80313 0.1313 0.46235 0.0
C1200 C 0.7836 0.11927 0.51307 0.0
C1201 C 0.81022 0.12474 0.48451 0.0
C1202 C 0.77478 0.09835 0.55615 0.0
C1203 C 0.7513 0.11272 0.5726 0.0
N1204 N 0.80029 0.11875 0.50887 0.0
N1205 N 0.76124 0.11866 0.5483 0.0
H1206 H 0.92288 0.64839 0.58172 0.0
H1207 H 0.86055 0.67896 0.48175 0.0
H1208 H 0.90893 0.69236 0.60195 0.0
H1209 H 0.88405 0.64392 0.45427 0.0
H1210 H 0.87058 0.67682 0.53004 0.0
H1211 H 0.90207 0.64036 0.53888 0.0
C1212 C 0.9153 0.65621 0.57732 0.0
C1213 C 0.91793 0.6713 0.59519 0.0
C1214 C 0.87321 0.66928 0.51352 0.0
C1215 C 0.894 0.66208 0.54649 0.0
C1216 C 0.86727 0.67031 0.486 0.0
C1217 C 0.8718 0.66189 0.46397 0.0
C1218 C 0.88373 0.65977 0.51897 0.0
C1219 C 0.88063 0.65093 0.47066 0.0
C1220 C 0.90342 0.65161 0.55291 0.0
C1221 C 0.90763 0.68085 0.58855 0.0
N1222 N 0.88661 0.65045 0.4975 0.0
N1223 N 0.89626 0.67618 0.56469 0.0
H1224 H 0.91932 0.64617 0.73981 0.0
H1225 H 0.91178 0.68927 0.88585 0.0
H1226 H 0.94271 0.70773 0.75365 0.0
H1227 H 0.86945 0.63028 0.85893 0.0
H1228 H 0.92646 0.69591 0.83943 0.0
H1229 H 0.90412 0.63945 0.78592 0.0
C1230 C 0.92134 0.65825 0.75259 0.0
C1231 C 0.93223 0.67752 0.74289 0.0
C1232 C 0.91387 0.68156 0.84364 0.0
C1233 C 0.91507 0.66998 0.79544 0.0
C1234 C 0.90554 0.67779 0.87004 0.0
C1235 C 0.88935 0.65928 0.87599 0.0
C1236 C 0.90618 0.66657 0.82331 0.0
C1237 C 0.88179 0.64482 0.85494 0.0
C1238 C 0.91258 0.65441 0.77875 0.0
C1239 C 0.93433 0.69264 0.76024 0.0
N1240 N 0.89038 0.64872 0.82954 0.0
N1241 N 0.92591 0.68856 0.78572 0.0
H1242 H 0.38211 0.24888 0.72621 0.0
H1243 H 0.37844 0.26721 0.88555 0.0
H1244 H 0.35388 0.27937 0.75467 0.0
H1245 H 0.37203 0.21286 0.8574 0.0
H1246 H 0.37201 0.27358 0.8378 0.0
H1247 H 0.38126 0.23704 0.77398 0.0
C1248 C 0.37561 0.25296 0.7425 0.0
C1249 C 0.36818 0.26522 0.73662 0.0
C1250 C 0.37176 0.26014 0.84219 0.0
C1251 C 0.36746 0.252 0.79113 0.0
C1252 C 0.3753 0.25635 0.86958 0.0
C1253 C 0.37562 0.23929 0.87587 0.0
C1254 C 0.36907 0.24714 0.82063 0.0
C1255 C 0.37221 0.22631 0.85366 0.0
C1256 C 0.37503 0.24611 0.76964 0.0
C1257 C 0.35977 0.26995 0.75838 0.0
N1258 N 0.36933 0.23063 0.82695 0.0
N1259 N 0.35995 0.2636 0.78486 0.0
H1260 H 0.77346 0.13239 0.73437 0.0
H1261 H 0.80115 0.09646 0.87428 0.0
H1262 H 0.7581 0.07265 0.74686 0.0
H1263 H 0.82595 0.15729 0.85419 0.0
H1264 H 0.78756 0.08758 0.8263 0.0
H1265 H 0.79439 0.14195 0.77685 0.0
C1266 C 0.77452 0.12126 0.746 0.0
C1267 C 0.76381 0.10162 0.73718 0.0
C1268 C 0.79627 0.1029 0.83217 0.0
C1269 C 0.78783 0.11254 0.78598 0.0
C1270 C 0.80405 0.10796 0.85952 0.0
C1271 C 0.81451 0.12761 0.86818 0.0
C1272 C 0.7987 0.11759 0.81348 0.0
C1273 C 0.81797 0.14197 0.84829 0.0
C1274 C 0.7866 0.12678 0.7702 0.0
C1275 C 0.76598 0.08793 0.75296 0.0
N1276 N 0.80979 0.13665 0.82197 0.0
N1277 N 0.77758 0.09361 0.77677 0.0
H1278 H 0.05734 0.4089 0.0335 0.0
H1279 H 0.10815 0.3448 0.0268 0.0
H1280 H 0.02977 0.35254 0.99229 0.0
H1281 H 0.13632 0.40272 0.06291 0.0
H1282 H 0.08083 0.34856 0.00933 0.0
H1283 H 0.08749 0.40791 0.04068 0.0
C1284 C 0.05763 0.39634 0.02583 0.0
C1285 C 0.04089 0.38071 0.01246 0.0
C1286 C 0.09313 0.36057 0.0207 0.0
C1287 C 0.07551 0.37945 0.02071 0.0
C1288 C 0.10884 0.35849 0.03043 0.0
C1289 C 0.12447 0.37342 0.0465 0.0
C1290 C 0.09307 0.37767 0.02718 0.0
C1291 C 0.12444 0.39076 0.05088 0.0
C1292 C 0.07491 0.3958 0.02988 0.0
C1293 C 0.04227 0.36489 0.00282 0.0
N1294 N 0.10891 0.39231 0.04159 0.0
N1295 N 0.05919 0.36459 0.00734 0.0
H1296 H 0.65435 0.685 0.00651 0.0
H1297 H 0.61103 0.74605 0.06926 0.0
H1298 H 0.59381 0.65826 0.0318 0.0
H1299 H 0.66471 0.77247 0.02295 0.0
H1300 H 0.60315 0.71377 0.05274 0.0
H1301 H 0.65782 0.71713 0.01033 0.0
C1302 C 0.64175 0.68587 0.01275 0.0
C1303 C 0.62381 0.6689 0.01911 0.0
C1304 C 0.6164 0.72663 0.04554 0.0
C1305 C 0.6277 0.70568 0.02357 0.0
C1306 C 0.62076 0.74503 0.05473 0.0
C1307 C 0.63836 0.76184 0.04705 0.0
C1308 C 0.63004 0.72505 0.02918 0.0
C1309 C 0.65083 0.75981 0.02889 0.0
C1310 C 0.64371 0.70422 0.01476 0.0
C1311 C 0.60795 0.67093 0.02684 0.0
N1312 N 0.64661 0.74171 0.02094 0.0
N1313 N 0.61034 0.68898 0.02917 0.0
H1314 H 0.33669 0.98595 0.00405 0.0
H1315 H 0.25367 0.87559 0.01896 0.0
H1316 H 0.34099 0.93802 0.97175 0.0
H1317 H 0.24319 0.92265 0.03397 0.0
H1318 H 0.28336 0.89812 -0.00561 0.0
H1319 H 0.30109 0.96361 0.00906 0.0
C1320 C 0.33013 0.97083 -0.00244 0.0
C1321 C 0.34195 0.96379 0.988 0.0
C1322 C 0.2744 0.9035 0.00257 0.0
C1323 C 0.30125 0.93813 -0.00616 0.0
C1324 C 0.25719 0.89051 0.01642 0.0
C1325 C 0.246 0.89723 0.02929 0.0
C1326 C 0.28077 0.92348 0.00197 0.0
C1327 C 0.25168 0.9169 0.02527 0.0
C1328 C 0.30977 0.95808 0.00039 0.0
C1329 C 0.33257 0.94407 0.9797 0.0
N1330 N 0.26892 0.92944 0.01261 0.0
N1331 N 0.31288 0.93191 0.98323 0.0
H1332 H 0.44211 0.09632 0.01376 0.0
H1333 H 0.36266 0.12665 0.97681 0.0
H1334 H 0.37897 0.05603 0.01119 0.0
H1335 H 0.42559 0.16735 0.97831 0.0
H1336 H 0.3683 0.10202 -0.00176 0.0
H1337 H 0.4364 0.12349 0.0087 0.0
C1338 C 0.42703 0.09317 0.01245 0.0
C1339 C 0.411 0.0738 0.01252 0.0
C1340 C 0.38089 0.11644 -0.00553 0.0
C1341 C 0.40436 0.10491 0.00668 0.0
C1342 C 0.37765 0.13055 0.98245 0.0
C1343 C 0.39369 0.14901 0.97568 0.0
C1344 C 0.40035 0.12072 -0.00057 0.0
C1345 C 0.41282 0.15332 0.98332 0.0
C1346 C 0.42379 0.10872 0.00958 0.0
C1347 C 0.3918 0.07068 0.01093 0.0
N1348 N 0.41565 0.13915 -0.00569 0.0
N1349 N 0.38904 0.08603 0.00779 0.0
H1350 H 0.96492 0.33013 0.02111 0.0
H1351 H 0.85943 0.24541 0.96859 0.0
H1352 H 0.91323 0.3354 0.01864 0.0
H1353 H 0.90671 0.23549 0.99064 0.0
H1354 H 0.87766 0.27721 0.9924 0.0
H1355 H 0.94338 0.29474 0.01447 0.0
C1356 C 0.94906 0.32386 0.01946 0.0
C1357 C 0.94093 0.33584 0.02003 0.0
C1358 C 0.88387 0.2679 0.99277 0.0
C1359 C 0.9162 0.29536 0.01238 0.0
C1360 C 0.87333 0.24968 0.97944 0.0
C1361 C 0.88156 0.23786 0.97792 0.0
C1362 C 0.90299 0.27454 0.00394 0.0
C1363 C 0.89981 0.24415 0.99171 0.0
C1364 C 0.93676 0.30363 0.01578 0.0
C1365 C 0.92024 0.32684 0.01799 0.0
N1366 N 0.91015 0.26228 0.00365 0.0
N1367 N 0.90865 0.30722 0.01391 0.0
H1368 H 0.6997 0.65424 0.00514 0.0
H1369 H 0.77871 0.62216 0.98824 0.0
H1370 H 0.69008 0.59731 0.02544 0.0
H1371 H 0.78953 0.67906 0.96481 0.0
H1372 H 0.74942 0.616 0.0125 0.0
H1373 H 0.73492 0.66619 -0.00053 0.0
C1374 C 0.70502 0.64434 0.0088 0.0
C1375 C 0.69185 0.62465 0.01523 0.0
C1376 C 0.75837 0.63 0.00251 0.0
C1377 C 0.73204 0.63819 0.00889 0.0
C1378 C 0.77533 0.63365 0.98891 0.0
C1379 C 0.78645 0.65102 0.9739 0.0
C1380 C 0.75229 0.64369 0.00085 0.0
C1381 C 0.7811 0.66525 0.97547 0.0
C1382 C 0.72512 0.65116 0.00557 0.0
C1383 C 0.69959 0.61251 0.01992 0.0
N1384 N 0.76416 0.66111 0.98812 0.0
N1385 N 0.71908 0.61941 0.01638 0.0
H1386 H 0.96005 0.60898 0.00648 0.0
H1387 H 0.92128 0.68046 0.9759 0.0
H1388 H 0.99432 0.67037 0.02798 0.0
H1389 H 0.88234 0.61796 0.97876 0.0
H1390 H 0.94733 0.67717 -0.00055 0.0
H1391 H 0.93074 0.61164 -0.00014 0.0
C1392 C 0.96137 0.62298 0.01012 0.0
C1393 C 0.97974 0.63953 0.01748 0.0
C1394 C 0.93294 0.66419 -0.00437 0.0
C1395 C 0.94625 0.64271 0.00969 0.0
C1396 C 0.91805 0.66611 0.98238 0.0
C1397 C 0.89968 0.64946 0.97548 0.0
C1398 C 0.92957 0.64546 0.00138 0.0
C1399 C 0.89627 0.63116 0.98394 0.0
C1400 C 0.9446 0.62447 0.00645 0.0
C1401 C 0.98051 0.65724 0.02213 0.0
N1402 N 0.91122 0.62959 -0.00408 0.0
N1403 N 0.96409 0.65843 0.01773 0.0
H1404 H 0.34992 0.32136 0.02138 0.0
H1405 H 0.4142 0.27448 0.98013 0.0
H1406 H 0.41113 0.35499 -0.00146 0.0
H1407 H 0.35051 0.2428 0.97515 0.0
H1408 H 0.41404 0.30254 0.0002 0.0
H1409 H 0.35077 0.29134 0.01614 0.0
C1410 C 0.36358 0.32247 0.01548 0.0
C1411 C 0.38042 0.34074 0.01008 0.0
C1412 C 0.40008 0.28927 -0.00461 0.0
C1413 C 0.38155 0.30642 0.00447 0.0
C1414 C 0.40016 0.27314 0.98439 0.0
C1415 C 0.38234 0.25631 0.97603 0.0
C1416 C 0.38204 0.28849 -0.00182 0.0
C1417 C 0.36456 0.25551 0.98141 0.0
C1418 C 0.36405 0.30531 0.01252 0.0
C1419 C 0.39773 0.34123 0.00259 0.0
N1420 N 0.36486 0.27147 0.99181 0.0
N1421 N 0.39783 0.32435 -5e-05 0.0
H1422 H 0.69188 0.03831 -0.00343 0.0
H1423 H 0.78841 0.14402 0.97618 0.0
H1424 H 0.69304 0.09257 0.00592 0.0
H1425 H 0.78452 0.08978 0.95527 0.0
H1426 H 0.75555 0.12542 -0.00334 0.0
H1427 H 0.72759 0.05695 0.98996 0.0
C1428 C 0.69964 0.05413 -0.00259 0.0
C1429 C 0.68937 0.06387 0.00143 0.0
C1430 C 0.76205 0.11759 0.98806 0.0
C1431 C 0.7303 0.08531 -0.00601 0.0
C1432 C 0.78086 0.12821 0.97668 0.0
C1433 C 0.78902 0.11835 0.96396 0.0
C1434 C 0.75146 0.09703 0.98665 0.0
C1435 C 0.7786 0.09786 0.96478 0.0
C1436 C 0.72005 0.06477 -0.00632 0.0
C1437 C 0.70027 0.08441 0.00255 0.0
N1438 N 0.76027 0.08787 0.97561 0.0
N1439 N 0.7201 0.09444 -0.00135 0.0
H1440 H 0.64764 0.96898 0.00062 0.0
H1441 H 0.59846 0.86031 0.05773 0.0
H1442 H 0.58571 0.93294 0.01886 0.0
H1443 H 0.65788 0.89255 0.02771 0.0
H1444 H 0.5926 0.8855 0.03903 0.0
H1445 H 0.65112 0.94048 0.0066 0.0
C1446 C 0.63473 0.95505 0.00568 0.0
C1447 C 0.61638 0.95344 0.00952 0.0
C1448 C 0.60681 0.88694 0.03598 0.0
C1449 C 0.62029 0.9207 0.01646 0.0
C1450 C 0.61009 0.87249 0.04648 0.0
C1451 C 0.62863 0.87436 0.04412 0.0
C1452 C 0.62233 0.90363 0.02349 0.0
C1453 C 0.64331 0.8905 0.02968 0.0
C1454 C 0.63672 0.93876 0.009 0.0
C1455 C 0.60017 0.93496 0.01588 0.0
N1456 N 0.63996 0.9047 0.0203 0.0
N1457 N 0.60255 0.9194 0.01941 0.0
H1458 H 0.04992 0.68743 7e-05 0.0
H1459 H 0.15992 0.77558 0.02034 0.0
H1460 H 0.10117 0.6861 0.97452 0.0
H1461 H 0.10901 0.77958 0.03897 0.0
H1462 H 0.13844 0.74537 -0.00549 0.0
H1463 H 0.07066 0.72286 0.00629 0.0
C1464 C 0.06546 0.6946 -0.00466 0.0
C1465 C 0.07388 0.68369 0.98732 0.0
C1466 C 0.13196 0.75302 0.00377 0.0
C1467 C 0.09774 0.72425 -0.00545 0.0
C1468 C 0.1443 0.77047 0.01832 0.0
C1469 C 0.13625 0.78 0.03242 0.0
C1470 C 0.11137 0.74485 0.0036 0.0
C1471 C 0.11581 0.77245 0.02911 0.0
C1472 C 0.07731 0.71485 -0.00112 0.0
C1473 C 0.09407 0.69383 0.9812 0.0
N1474 N 0.10402 0.7551 0.01558 0.0
N1475 N 0.10534 0.71346 0.98535 0.0
H1476 H 0.33736 0.42359 0.00662 0.0
H1477 H 0.23571 0.32854 0.04738 0.0
H1478 H 0.32959 0.36616 0.01327 0.0
H1479 H 0.24271 0.38534 0.03674 0.0
H1480 H 0.26885 0.34125 0.02963 0.0
H1481 H 0.30204 0.40928 0.01295 0.0
C1482 C 0.32822 0.40792 0.00929 0.0
C1483 C 0.33657 0.39609 0.0097 0.0
C1484 C 0.26309 0.35091 0.03074 0.0
C1485 C 0.29589 0.37957 0.01701 0.0
C1486 C 0.24415 0.34364 0.04078 0.0
C1487 C 0.23656 0.35597 0.04368 0.0
C1488 C 0.27468 0.37074 0.02379 0.0
C1489 C 0.24802 0.37536 0.03475 0.0
C1490 C 0.30799 0.39976 0.01283 0.0
C1491 C 0.32387 0.37587 0.01297 0.0
N1492 N 0.26664 0.38223 0.02557 0.0
N1493 N 0.3042 0.36828 0.01674 0.0
H1494 H 0.70097 0.68573 0.31833 0.0
H1495 H 0.80916 0.73726 0.39071 0.0
H1496 H 0.73016 0.74248 0.35863 0.0
H1497 H 0.77906 0.67852 0.35727 0.0
H1498 H 0.78235 0.74122 0.37205 0.0
H1499 H 0.73101 0.68441 0.32618 0.0
C1500 C 0.71372 0.69798 0.32863 0.0
C1501 C 0.71294 0.71417 0.33807 0.0
C1502 C 0.78168 0.72753 0.3684 0.0
C1503 C 0.74741 0.71275 0.34703 0.0
C1504 C 0.79704 0.72532 0.37893 0.0
C1505 C 0.79626 0.7075 0.37567 0.0
C1506 C 0.76526 0.71176 0.35465 0.0
C1507 C 0.78028 0.69253 0.36013 0.0
C1508 C 0.73088 0.69721 0.3331 0.0
C1509 C 0.72997 0.72962 0.3512 0.0
N1510 N 0.76526 0.69489 0.35052 0.0
N1511 N 0.74642 0.72848 0.3554 0.0
H1512 H 0.25528 0.99008 0.36517 0.0
H1513 H 0.3296 0.10558 0.35155 0.0
H1514 H 0.31522 0.01615 0.33749 0.0
H1515 H 0.27859 0.07985 0.40354 0.0
H1516 H 0.32044 0.07273 0.3355 0.0
H1517 H 0.26005 0.02274 0.3695 0.0
C1518 C 0.2694 1.00265 0.3598 0.0
C1519 C 0.28495 1.00036 0.35124 0.0
C1520 C 0.311 0.0743 0.34991 0.0
C1521 C 0.29041 0.03779 0.35587 0.0
C1522 C 0.31606 0.09302 0.35872 0.0
C1523 C 0.30469 0.09532 0.37862 0.0
C1524 C 0.29442 0.05784 0.36107 0.0
C1525 C 0.28758 0.07861 0.38793 0.0
C1526 C 0.2721 0.02128 0.36228 0.0
C1527 C 0.30289 0.01722 0.34446 0.0
N1528 N 0.28303 0.06055 0.37924 0.0
N1529 N 0.30515 0.03522 0.347 0.0
H1530 H 0.99947 0.26815 0.29972 0.0
H1531 H 0.90826 0.25436 0.38551 0.0
H1532 H 1.00058 0.31429 0.34769 0.0
H1533 H 0.91338 0.20739 0.35123 0.0
H1534 H 0.93772 0.27783 0.36028 0.0
H1535 H 0.96405 0.2477 0.30681 0.0
C1536 C 0.9922 0.27412 0.31139 0.0
C1537 C 1.00311 0.29284 0.32364 0.0
C1538 C 0.9321 0.26235 0.35781 0.0
C1539 C 0.96245 0.26931 0.33209 0.0
C1540 C 0.91526 0.24892 0.37217 0.0
C1541 C 0.90854 0.22883 0.3711 0.0
C1542 C 0.9422 0.25565 0.34209 0.0
C1543 C 0.91794 0.22266 0.35289 0.0
C1544 C 0.97194 0.2624 0.31543 0.0
C1545 C 0.9928 0.29988 0.33812 0.0
N1546 N 0.93447 0.23603 0.33954 0.0
N1547 N 0.97308 0.28797 0.3424 0.0
H1548 H 0.02647 0.37698 0.37074 0.0
H1549 H 0.0836 0.48676 0.31358 0.0
H1550 H 0.08478 0.40502 0.33642 0.0
H1551 H 0.02066 0.45258 0.32468 0.0
H1552 H 0.08658 0.46 0.33372 0.0
H1553 H 0.02651 0.40741 0.36498 0.0
C1554 C 0.03939 0.38958 0.36229 0.0
C1555 C 0.05556 0.38833 0.35373 0.0
C1556 C 0.07218 0.45854 0.33234 0.0
C1557 C 0.0557 0.4233 0.34722 0.0
C1558 C 0.07052 0.4739 0.32122 0.0
C1559 C 0.05186 0.47184 0.31758 0.0
C1560 C 0.05506 0.44109 0.33998 0.0
C1561 C 0.0353 0.45472 0.32723 0.0
C1562 C 0.03938 0.40695 0.35898 0.0
C1563 C 0.07191 0.40523 0.34303 0.0
N1564 N 0.03726 0.43993 0.33775 0.0
N1565 N 0.07151 0.42196 0.33992 0.0
H1566 H 0.58625 0.67483 0.34625 0.0
H1567 H 0.57517 0.57018 0.32812 0.0
H1568 H 0.63567 0.66592 0.35036 0.0
H1569 H 0.5315 0.58359 0.29899 0.0
H1570 H 0.5948 0.60316 0.34873 0.0
H1571 H 0.56382 0.63964 0.34057 0.0
C1572 C 0.59242 0.66549 0.34623 0.0
C1573 C 0.61296 0.67344 0.34844 0.0
C1574 C 0.58068 0.59871 0.33848 0.0
C1575 C 0.5872 0.63299 0.34208 0.0
C1576 C 0.56936 0.57984 0.32711 0.0
C1577 C 0.55165 0.57421 0.31219 0.0
C1578 C 0.57414 0.61194 0.33488 0.0
C1579 C 0.54498 0.58738 0.31067 0.0
C1580 C 0.57955 0.64537 0.34298 0.0
C1581 C 0.61998 0.66049 0.34844 0.0
N1582 N 0.55631 0.6057 0.32165 0.0
N1583 N 0.60713 0.64092 0.34512 0.0
H1584 H 0.34881 0.92658 0.35889 0.0
H1585 H 0.45111 0.01093 0.30025 0.0
H1586 H 0.35981 0.98365 0.33618 0.0
H1587 H 0.43757 0.95243 0.3187 0.0
H1588 H 0.42075 1.00381 0.32305 0.0
H1589 H 0.38374 0.9383 0.35369 0.0
C1590 C 0.35862 0.94167 0.35303 0.0
C1591 C 0.35128 0.95406 0.34746 0.0
C1592 C 0.42465 0.99268 0.32265 0.0
C1593 C 0.39147 0.96758 0.34126 0.0
C1594 C 0.44201 0.99675 0.30972 0.0
C1595 C 0.44674 0.98214 0.3071 0.0
C1596 C 0.41191 0.97386 0.33301 0.0
C1597 C 0.43458 0.96415 0.32015 0.0
C1598 C 0.37862 0.94837 0.35013 0.0
C1599 C 0.36479 0.97354 0.34043 0.0
N1600 N 0.41757 0.96042 0.33207 0.0
N1601 N 0.38421 0.97963 0.33709 0.0
H1602 H 0.65423 0.9975 0.367 0.0
H1603 H 0.54128 0.94847 0.31469 0.0
H1604 H 0.61772 0.93743 0.33959 0.0
H1605 H 0.58317 0.01051 0.31342 0.0
H1606 H 0.56645 0.94366 0.33803 0.0
H1607 H 0.62576 1.00161 0.36051 0.0
C1608 C 0.64018 0.9851 0.35999 0.0
C1609 C 0.63843 0.96716 0.35346 0.0
C1610 C 0.56997 0.95837 0.33327 0.0
C1611 C 0.60578 0.97175 0.34627 0.0
C1612 C 0.55554 0.96114 0.32032 0.0
C1613 C 0.56022 0.97991 0.31209 0.0
C1614 C 0.58914 0.9745 0.33813 0.0
C1615 C 0.57904 0.99581 0.31941 0.0
C1616 C 0.62395 0.98747 0.35627 0.0
C1617 C 0.61981 0.95159 0.34453 0.0
N1618 N 0.59291 0.99273 0.33172 0.0
N1619 N 0.60425 0.95427 0.34105 0.0
H1620 H 0.01742 0.6534 0.34866 0.0
H1621 H 0.08043 0.60327 0.31811 0.0
H1622 H 0.08017 0.68571 0.33467 0.0
H1623 H 0.0176 0.57475 0.30184 0.0
H1624 H 0.08025 0.63157 0.33737 0.0
H1625 H 0.0172 0.62284 0.34329 0.0
C1626 C 0.03119 0.65409 0.34468 0.0
C1627 C 0.04881 0.67217 0.34181 0.0
C1628 C 0.06642 0.61891 0.33023 0.0
C1629 C 0.04868 0.63722 0.33605 0.0
C1630 C 0.06648 0.60266 0.31968 0.0
C1631 C 0.04898 0.58666 0.30858 0.0
C1632 C 0.04871 0.61906 0.3298 0.0
C1633 C 0.03136 0.58678 0.31041 0.0
C1634 C 0.03103 0.63663 0.34163 0.0
C1635 C 0.0662 0.67212 0.33673 0.0
N1636 N 0.03169 0.60281 0.32054 0.0
N1637 N 0.06569 0.65494 0.33397 0.0
H1638 H 0.34894 0.42255 0.33289 0.0
H1639 H 0.4474 0.42344 0.29887 0.0
H1640 H 0.35173 0.37024 0.32566 0.0
H1641 H 0.44503 0.47565 0.30904 0.0
H1642 H 0.4136 0.40393 0.31537 0.0
H1643 H 0.38477 0.44223 0.3297 0.0
C1644 C 0.35708 0.41515 0.33068 0.0
C1645 C 0.34722 0.39465 0.3292 0.0
C1646 C 0.42054 0.41968 0.31458 0.0
C1647 C 0.38847 0.41726 0.32563 0.0
C1648 C 0.43987 0.43081 0.30541 0.0
C1649 C 0.44891 0.45112 0.3027 0.0
C1650 C 0.41005 0.42892 0.32068 0.0
C1651 C 0.43857 0.46002 0.31108 0.0
C1652 C 0.3776 0.42645 0.32899 0.0
C1653 C 0.35865 0.38598 0.32666 0.0
N1654 N 0.41953 0.44882 0.3193 0.0
N1655 N 0.37865 0.39733 0.32472 0.0
H1656 H 0.26996 0.28073 0.34913 0.0
H1657 H 0.33008 0.22546 0.34821 0.0
H1658 H 0.32533 0.30325 0.30748 0.0
H1659 H 0.27379 0.20297 0.38688 0.0
H1660 H 0.32671 0.25183 0.3275 0.0
H1661 H 0.26948 0.25045 0.35839 0.0
C1662 C 0.28199 0.27929 0.34179 0.0
C1663 C 0.29781 0.29469 0.32772 0.0
C1664 C 0.31492 0.24092 0.34009 0.0
C1665 C 0.29738 0.25989 0.33837 0.0
C1666 C 0.31675 0.22574 0.35164 0.0
C1667 C 0.30223 0.21208 0.36938 0.0
C1668 C 0.29848 0.24243 0.34643 0.0
C1669 C 0.28538 0.2133 0.37348 0.0
C1670 C 0.28168 0.26193 0.34703 0.0
C1671 C 0.31288 0.29183 0.31854 0.0
N1672 N 0.28409 0.22832 0.36242 0.0
N1673 N 0.31239 0.27487 0.32424 0.0
H1674 H 0.70963 0.01265 0.33645 0.0
H1675 H 0.82041 0.1006 0.35923 0.0
H1676 H 0.76111 0.00824 0.32449 0.0
H1677 H 0.76954 0.10634 0.36901 0.0
H1678 H 0.79907 0.06865 0.33743 0.0
H1679 H 0.73114 0.04818 0.34054 0.0
C1680 C 0.72542 0.01914 0.33434 0.0
C1681 C 0.73358 1.00738 0.33057 0.0
C1682 C 0.79258 0.07702 0.34385 0.0
C1683 C 0.75831 0.04806 0.33529 0.0
C1684 C 0.80484 0.09544 0.35603 0.0
C1685 C 0.79674 0.1061 0.36642 0.0
C1686 C 0.77202 0.06906 0.34228 0.0
C1687 C 0.77637 0.09845 0.36187 0.0
C1688 C 0.7377 0.03945 0.33665 0.0
C1689 C 0.75415 0.01666 0.32778 0.0
N1690 N 0.76466 0.08025 0.35064 0.0
N1691 N 0.76579 0.03638 0.33051 0.0
H1692 H 1.00073 0.69884 0.34499 0.0
H1693 H 0.9133 0.71969 0.36986 0.0
H1694 H 1.00847 0.7564 0.34356 0.0
H1695 H 0.90738 0.66331 0.38005 0.0
H1696 H 0.94677 0.73256 0.3525 0.0
H1697 H 0.96525 0.68482 0.35105 0.0
C1698 C 0.99499 0.70853 0.34579 0.0
C1699 C 1.00769 0.72886 0.34407 0.0
C1700 C 0.93803 0.7173 0.35816 0.0
C1701 C 0.96704 0.71289 0.3509 0.0
C1702 C 0.91889 0.70994 0.3678 0.0
C1703 C 0.9077 0.69049 0.37658 0.0
C1704 C 0.94593 0.70506 0.35727 0.0
C1705 C 0.91567 0.67847 0.37374 0.0
C1706 C 0.97471 0.70051 0.34923 0.0
C1707 C 0.99933 0.74066 0.34507 0.0
N1708 N 0.93433 0.68598 0.3646 0.0
N1709 N 0.97959 0.73253 0.34857 0.0
H1710 H 0.40347 0.08281 0.68579 0.0
H1711 H 0.44975 0.01548 0.68704 0.0
H1712 H 0.3744 0.02577 0.64644 0.0
H1713 H 0.48267 0.0764 0.71105 0.0
H1714 H 0.42374 0.02002 0.66651 0.0
H1715 H 0.43367 0.08167 0.69125 0.0
C1716 C 0.40346 0.07008 0.67814 0.0
C1717 C 0.38627 0.05427 0.66591 0.0
C1718 C 0.43684 0.03252 0.6757 0.0
C1719 C 0.42089 0.05283 0.67217 0.0
C1720 C 0.45186 0.02999 0.68712 0.0
C1721 C 0.46833 0.04553 0.70113 0.0
C1722 C 0.43822 0.05067 0.67857 0.0
C1723 C 0.47007 0.06394 0.70086 0.0
C1724 C 0.42076 0.06947 0.68114 0.0
C1725 C 0.38724 0.03825 0.65615 0.0
N1726 N 0.45503 0.06591 0.69033 0.0
N1727 N 0.40416 0.03783 0.65981 0.0
H1728 H 0.92815 0.32707 0.688 0.0
H1729 H 1.00431 0.44279 0.69122 0.0
H1730 H 0.99001 0.35406 0.66958 0.0
H1731 H 0.94786 0.41444 0.73072 0.0
H1732 H 0.99641 0.41105 0.67187 0.0
H1733 H 0.93263 0.35953 0.6931 0.0
C1734 C 0.94264 0.3398 0.68473 0.0
C1735 C 0.95879 0.3378 0.67869 0.0
C1736 C 0.98555 0.41185 0.68421 0.0
C1737 C 0.96397 0.37507 0.6844 0.0
C1738 C 0.98995 0.42997 0.6949 0.0
C1739 C 0.97664 0.43115 0.71238 0.0
C1740 C 0.9677 0.39486 0.69105 0.0
C1741 C 0.95843 0.41408 0.71715 0.0
C1742 C 0.94517 0.35835 0.68768 0.0
C1743 C 0.97718 0.35488 0.67456 0.0
N1744 N 0.95456 0.39662 0.70677 0.0
N1745 N 0.9793 0.37279 0.67766 0.0
H1746 H 0.67105 0.6528 0.67774 0.0
H1747 H 0.58446 0.54366 0.68676 0.0
H1748 H 0.67051 0.60493 0.63557 0.0
H1749 H 0.57698 0.59159 0.70963 0.0
H1750 H 0.61373 0.56627 0.66159 0.0
H1751 H 0.63534 0.63176 0.68431 0.0
C1752 C 0.66339 0.63803 0.66934 0.0
C1753 C 0.67389 0.6305 0.65662 0.0
C1754 C 0.60553 0.57186 0.67168 0.0
C1755 C 0.63314 0.60635 0.66424 0.0
C1756 C 0.58853 0.55882 0.68589 0.0
C1757 C 0.57831 0.56566 0.70113 0.0
C1758 C 0.61273 0.59201 0.67308 0.0
C1759 C 0.58473 0.58567 0.69914 0.0
C1760 C 0.64299 0.62601 0.67311 0.0
C1761 C 0.66314 0.61127 0.64604 0.0
N1762 N 0.6018 0.59821 0.68608 0.0
N1763 N 0.64349 0.59981 0.65048 0.0
H1764 H 0.69598 0.71456 0.6996 0.0
H1765 H 0.75524 0.8255 0.64741 0.0
H1766 H 0.75564 0.74347 0.66998 0.0
H1767 H 0.69183 0.79089 0.65217 0.0
H1768 H 0.75742 0.79851 0.66838 0.0
H1769 H 0.69615 0.74507 0.69404 0.0
C1770 C 0.70922 0.72736 0.69224 0.0
C1771 C 0.72575 0.72634 0.68493 0.0
C1772 C 0.74306 0.79701 0.66555 0.0
C1773 C 0.72604 0.76142 0.6787 0.0
C1774 C 0.74185 0.81252 0.65401 0.0
C1775 C 0.72335 0.81043 0.64839 0.0
C1776 C 0.72563 0.77935 0.67151 0.0
C1777 C 0.70637 0.7931 0.65652 0.0
C1778 C 0.70927 0.74478 0.68905 0.0
C1779 C 0.74249 0.74349 0.67559 0.0
N1780 N 0.70789 0.77815 0.66741 0.0
N1781 N 0.74216 0.76028 0.6726 0.0
H1782 H 0.25893 0.00774 0.68333 0.0
H1783 H 0.25177 0.90683 0.64655 0.0
H1784 H 0.31013 1.00253 0.67333 0.0
H1785 H 0.2024 0.91554 0.64315 0.0
H1786 H 0.27275 0.93994 0.66626 0.0
H1787 H 0.23774 0.97246 0.67799 0.0
C1788 C 0.26577 0.99918 0.68018 0.0
C1789 C 0.2864 0.00822 0.6784 0.0
C1790 C 0.25722 0.93445 0.66186 0.0
C1791 C 0.26201 0.96756 0.67223 0.0
C1792 C 0.24523 0.9155 0.65099 0.0
C1793 C 0.22535 0.90849 0.64369 0.0
C1794 C 0.24921 0.94641 0.66525 0.0
C1795 C 0.21762 0.9204 0.64895 0.0
C1796 C 0.25361 0.97897 0.67716 0.0
C1797 C 0.29432 0.99624 0.67462 0.0
N1798 N 0.2296 0.93884 0.6592 0.0
N1799 N 0.2821 0.97653 0.67139 0.0
H1800 H 0.02926 0.27387 0.71531 0.0
H1801 H 0.1247 0.34951 0.63291 0.0
H1802 H 0.03531 0.32423 0.67212 0.0
H1803 H 0.11307 0.29381 0.66401 0.0
H1804 H 0.0969 0.34571 0.65948 0.0
H1805 H 0.06427 0.28633 0.70896 0.0
C1806 C 0.03803 0.28773 0.70485 0.0
C1807 C 0.02922 0.2978 0.69364 0.0
C1808 C 0.10076 0.33456 0.66102 0.0
C1809 C 0.06939 0.31207 0.68607 0.0
C1810 C 0.11665 0.33672 0.64591 0.0
C1811 C 0.12094 0.32171 0.64561 0.0
C1812 C 0.08913 0.3173 0.67601 0.0
C1813 C 0.1103 0.30572 0.66337 0.0
C1814 C 0.05805 0.29484 0.70126 0.0
C1815 C 0.04142 0.31586 0.68078 0.0
N1816 N 0.09466 0.30376 0.67738 0.0
N1817 N 0.06083 0.32225 0.67686 0.0
H1818 H 0.32718 0.33659 0.69218 0.0
H1819 H 0.21289 0.28288 0.6446 0.0
H1820 H 0.29273 0.27643 0.6644 0.0
H1821 H 0.25241 0.34535 0.64295 0.0
H1822 H 0.23962 0.27953 0.66578 0.0
H1823 H 0.29759 0.33898 0.68708 0.0
C1824 C 0.31335 0.3238 0.68536 0.0
C1825 C 0.31249 0.30634 0.67835 0.0
C1826 C 0.24229 0.294 0.66141 0.0
C1827 C 0.27858 0.30897 0.67276 0.0
C1828 C 0.22699 0.29593 0.64968 0.0
C1829 C 0.23052 0.31441 0.64203 0.0
C1830 C 0.26117 0.3107 0.66564 0.0
C1831 C 0.24916 0.33085 0.64855 0.0
C1832 C 0.29649 0.3252 0.68244 0.0
C1833 C 0.29413 0.29024 0.6697 0.0
N1834 N 0.26387 0.3286 0.65971 0.0
N1835 N 0.27793 0.29197 0.66701 0.0
H1836 H 0.68287 0.98668 0.69456 0.0
H1837 H 0.74353 0.93692 0.64836 0.0
H1838 H 0.74158 0.01853 0.66156 0.0
H1839 H 0.68011 0.9052 0.6544 0.0
H1840 H 0.74487 0.96633 0.66594 0.0
H1841 H 0.68344 0.95642 0.69104 0.0
C1842 C 0.69594 0.98736 0.68676 0.0
C1843 C 0.71213 1.00519 0.67806 0.0
C1844 C 0.7307 0.95281 0.66408 0.0
C1845 C 0.71294 0.97059 0.67437 0.0
C1846 C 0.72996 0.93594 0.65451 0.0
C1847 C 0.71168 0.9186 0.64999 0.0
C1848 C 0.71303 0.95229 0.66932 0.0
C1849 C 0.6945 0.91828 0.65769 0.0
C1850 C 0.69624 0.97007 0.68479 0.0
C1851 C 0.72868 1.00512 0.66821 0.0
N1852 N 0.69556 0.93493 0.66666 0.0
N1853 N 0.72864 0.98811 0.66659 0.0
H1854 H 0.02106 0.69733 0.65411 0.0
H1855 H 0.11513 0.80584 0.64124 0.0
H1856 H 0.01885 0.74988 0.66269 0.0
H1857 H 0.11613 0.75356 0.62378 0.0
H1858 H 0.08116 0.78548 0.65741 0.0
H1859 H 0.05703 0.71758 0.65 0.0
C1860 C 0.02811 0.71309 0.65525 0.0
C1861 C 0.01685 0.72189 0.65842 0.0
C1862 C 0.08892 0.77846 0.65046 0.0
C1863 C 0.05801 0.74516 0.65392 0.0
C1864 C 0.10836 0.7901 0.64153 0.0
C1865 C 0.1183 0.78132 0.63101 0.0
C1866 C 0.07947 0.75795 0.64881 0.0
C1867 C 0.10883 0.76085 0.63153 0.0
C1868 C 0.04865 0.72465 0.65296 0.0
C1869 C 0.02685 0.74241 0.65995 0.0
N1870 N 0.08989 0.74985 0.63995 0.0
N1871 N 0.04679 0.75332 0.65755 0.0
H1872 H 0.99218 0.62961 0.63209 0.0
H1873 H 0.93987 0.52861 0.71538 0.0
H1874 H 0.93902 0.60799 0.67908 0.0
H1875 H 0.99776 0.55407 0.6806 0.0
H1876 H 0.9358 0.55383 0.69246 0.0
H1877 H 0.9913 0.59899 0.64119 0.0
C1878 C 0.98022 0.61838 0.6441 0.0
C1879 C 0.96578 0.62151 0.65511 0.0
C1880 C 0.94924 0.55369 0.68932 0.0
C1881 C 0.96463 0.58633 0.66545 0.0
C1882 C 0.95147 0.53917 0.70216 0.0
C1883 C 0.96924 0.53934 0.70008 0.0
C1884 C 0.96492 0.56858 0.67435 0.0
C1885 C 0.98379 0.55335 0.68269 0.0
C1886 C 0.97973 0.60088 0.64927 0.0
C1887 C 0.9506 0.60635 0.67042 0.0
N1888 N 0.98147 0.56763 0.6709 0.0
N1889 N 0.9505 0.58951 0.67526 0.0
H1890 H 0.43554 0.35196 0.64283 0.0
H1891 H 0.44167 0.44669 0.7069 0.0
H1892 H 0.38447 0.35449 0.66582 0.0
H1893 H 0.49222 0.44133 0.69174 0.0
H1894 H 0.42058 0.41587 0.68155 0.0
H1895 H 0.4562 0.38716 0.6504 0.0
C1896 C 0.4286 0.35995 0.64914 0.0
C1897 C 0.40826 0.35016 0.6542 0.0
C1898 C 0.43635 0.42165 0.68328 0.0
C1899 C 0.43196 0.39058 0.66311 0.0
C1900 C 0.44841 0.43926 0.69771 0.0
C1901 C 0.46872 0.44646 0.70192 0.0
C1902 C 0.44465 0.41113 0.67302 0.0
C1903 C 0.47668 0.4364 0.68909 0.0
C1904 C 0.44044 0.38009 0.65345 0.0
C1905 C 0.40011 0.36137 0.66197 0.0
N1906 N 0.46459 0.4191 0.67566 0.0
N1907 N 0.41203 0.38094 0.6666 0.0
H1908 H 0.66025 0.02862 0.67922 0.0
H1909 H 0.57201 0.04862 0.70093 0.0
H1910 H 0.66567 0.08482 0.66813 0.0
H1911 H 0.5686 0.99439 0.72137 0.0
H1912 H 0.60423 0.06022 0.67996 0.0
H1913 H 0.62482 0.01413 0.68675 0.0
C1914 C 0.65399 0.03788 0.67813 0.0
C1915 C 0.66604 0.05802 0.6734 0.0
C1916 C 0.59627 0.04564 0.6886 0.0
C1917 C 0.6255 0.04154 0.68191 0.0
C1918 C 0.57782 0.03898 0.70027 0.0
C1919 C 0.56778 0.02062 0.71302 0.0
C1920 C 0.60467 0.03381 0.68973 0.0
C1921 C 0.57601 0.00873 0.71192 0.0
C1922 C 0.63376 0.02961 0.68243 0.0
C1923 C 0.65705 0.06927 0.67207 0.0
N1924 N 0.59405 0.0156 0.70082 0.0
N1925 N 0.63741 0.06092 0.67648 0.0
loop_
_geom_bond_atom_site_label_1
_geom_bond_atom_site_label_2
_geom_bond_distance
_geom_bond_site_symmetry_2
_ccdc_geom_bond_type
Zn0 O3 2.031 1_554 S
Zn0 O5 2.049 . S
Zn0 O10 2.067 1_554 S
Zn1 O2 1.962 1_455 S
Zn1 O4 1.986 . S
Zn1 O6 1.996 1_455 S
Zn1 O9 1.943 1_554 S
O2 Zn1 1.962 1_655 S
O2 C7 1.254 1_554 S
O3 Zn0 2.031 1_556 S
O3 C7 1.269 . S
O4 Zn1 1.986 . S
O4 C11 1.262 . S
O5 Zn0 2.049 . S
O5 C13 1.260 . S
O6 Zn1 1.996 1_655 S
O6 C13 1.257 . S
C7 O2 1.254 1_556 S
C7 O3 1.269 . S
C8 O9 1.249 . S
C8 O10 1.270 1_455 S
O9 Zn1 1.943 1_556 S
O9 C8 1.249 . S
O10 Zn0 2.067 1_556 S
O10 C8 1.270 1_655 S
C11 O4 1.262 . S
C11 O12 1.232 . S
O12 C11 1.232 . S
C13 O5 1.260 . S
C13 O6 1.257 . S
Zn14 O17 2.031 1_554 S
Zn14 O19 2.049 . S
Zn14 O24 2.067 1_554 S
Zn15 O16 1.962 . S
Zn15 O18 1.986 . S
Zn15 O20 1.996 . S
Zn15 O23 1.943 1_554 S
O16 Zn15 1.962 . S
O16 C21 1.254 1_554 S
O17 Zn14 2.031 1_556 S
O17 C21 1.269 . S
O18 Zn15 1.986 . S
O18 C25 1.262 . S
O19 Zn14 2.049 . S
O19 C27 1.260 . S
O20 Zn15 1.996 . S
O20 C27 1.257 . S
C21 O16 1.254 1_556 S
C21 O17 1.269 . S
C22 O23 1.249 . S
C22 O24 1.270 . S
O23 Zn15 1.943 1_556 S
O23 C22 1.249 . S
O24 Zn14 2.067 1_556 S
O24 C22 1.270 . S
C25 O18 1.262 . S
C25 O26 1.232 . S
O26 C25 1.232 . S
C27 O19 1.260 . S
C27 O20 1.257 . S
Zn28 O31 2.031 . S
Zn28 O33 2.049 1_554 S
Zn28 O38 2.067 . S
Zn29 O30 1.962 1_545 S
Zn29 O32 1.986 1_554 S
Zn29 O34 1.996 1_544 S
Zn29 O37 1.943 . S
O30 Zn29 1.962 1_565 S
O30 C35 1.254 . S
O31 Zn28 2.031 . S
O31 C35 1.269 . S
O32 Zn29 1.986 1_556 S
O32 C39 1.262 . S
O33 Zn28 2.049 1_556 S
O33 C41 1.260 . S
O34 Zn29 1.996 1_566 S
O34 C41 1.257 . S
C35 O30 1.254 . S
C35 O31 1.269 . S
C36 O37 1.249 . S
C36 O38 1.270 1_545 S
O37 Zn29 1.943 . S
O37 C36 1.249 . S
O38 Zn28 2.067 . S
O38 C36 1.270 1_565 S
C39 O32 1.262 . S
C39 O40 1.232 1_556 S
O40 C39 1.232 1_554 S
C41 O33 1.260 . S
C41 O34 1.257 . S
Zn42 O45 2.031 . S
Zn42 O47 2.049 1_554 S
Zn42 O52 2.067 . S
Zn43 O44 1.962 1_655 S
Zn43 O46 1.986 1_554 S
Zn43 O48 1.996 1_654 S
Zn43 O51 1.943 . S
O44 Zn43 1.962 1_455 S
O44 C49 1.254 . S
O45 Zn42 2.031 . S
O45 C49 1.269 . S
O46 Zn43 1.986 1_556 S
O46 C53 1.262 . S
O47 Zn42 2.049 1_556 S
O47 C55 1.260 . S
O48 Zn43 1.996 1_456 S
O48 C55 1.257 . S
C49 O44 1.254 . S
C49 O45 1.269 . S
C50 O51 1.249 . S
C50 O52 1.270 1_655 S
O51 Zn43 1.943 . S
O51 C50 1.249 . S
O52 Zn42 2.067 . S
O52 C50 1.270 1_455 S
C53 O46 1.262 . S
C53 O54 1.232 1_556 S
O54 C53 1.232 1_554 S
C55 O47 1.260 . S
C55 O48 1.257 . S
Zn56 O59 2.031 . S
Zn56 O61 2.049 1_554 S
Zn56 O66 2.067 . S
Zn57 O58 1.962 . S
Zn57 O60 1.986 1_554 S
Zn57 O62 1.996 1_554 S
Zn57 O65 1.943 . S
O58 Zn57 1.962 . S
O58 C63 1.254 . S
O59 Zn56 2.031 . S
O59 C63 1.269 . S
O60 Zn57 1.986 1_556 S
O60 C67 1.262 . S
O61 Zn56 2.049 1_556 S
O61 C69 1.260 . S
O62 Zn57 1.996 1_556 S
O62 C69 1.257 . S
C63 O58 1.254 . S
C63 O59 1.269 . S
C64 O65 1.249 . S
C64 O66 1.270 . S
O65 Zn57 1.943 . S
O65 C64 1.249 . S
O66 Zn56 2.067 . S
O66 C64 1.270 . S
C67 O60 1.262 . S
C67 O68 1.232 1_556 S
O68 C67 1.232 1_554 S
C69 O61 1.260 . S
C69 O62 1.257 . S
Zn70 O73 2.031 1_554 S
Zn70 O75 2.049 . S
Zn70 O80 2.067 1_554 S
Zn71 O72 1.962 1_565 S
Zn71 O74 1.986 . S
Zn71 O76 1.996 1_565 S
Zn71 O79 1.943 1_554 S
O72 Zn71 1.962 1_545 S
O72 C77 1.254 . S
O73 Zn70 2.031 1_556 S
O73 C77 1.269 1_556 S
O74 Zn71 1.986 . S
O74 C81 1.262 . S
O75 Zn70 2.049 . S
O75 C83 1.260 . S
O76 Zn71 1.996 1_545 S
O76 C83 1.257 . S
C77 O72 1.254 . S
C77 O73 1.269 1_554 S
C78 O79 1.249 . S
C78 O80 1.270 1_565 S
O79 Zn71 1.943 1_556 S
O79 C78 1.249 . S
O80 Zn70 2.067 1_556 S
O80 C78 1.270 1_545 S
C81 O74 1.262 . S
C81 O82 1.232 . S
O82 C81 1.232 . S
C83 O75 1.260 . S
C83 O76 1.257 . S
Zn84 O87 2.031 . S
Zn84 O89 2.049 . S
Zn84 O94 2.067 . S
Zn85 O86 1.962 . S
Zn85 O88 1.986 . S
Zn85 O90 1.996 . S
Zn85 O93 1.943 . S
O86 Zn85 1.962 . S
O86 C91 1.254 . S
O87 Zn84 2.031 . S
O87 C91 1.269 . S
O88 Zn85 1.986 . S
O88 C95 1.262 . S
O89 Zn84 2.049 . S
O89 C97 1.260 . S
O90 Zn85 1.996 . S
O90 C97 1.257 . S
C91 O86 1.254 . S
C91 O87 1.269 . S
C92 O93 1.249 . S
C92 O94 1.270 . S
O93 Zn85 1.943 . S
O93 C92 1.249 . S
O94 Zn84 2.067 . S
O94 C92 1.270 . S
C95 O88 1.262 . S
C95 O96 1.232 . S
O96 C95 1.232 . S
C97 O89 1.260 . S
C97 O90 1.257 . S
Zn98 O101 2.031 . S
Zn98 O103 2.049 . S
Zn98 O108 2.067 . S
Zn99 O100 1.962 . S
Zn99 O102 1.986 1_565 S
Zn99 O104 1.996 . S
Zn99 O107 1.943 . S
O100 Zn99 1.962 . S
O100 C105 1.254 . S
O101 Zn98 2.031 . S
O101 C105 1.269 . S
O102 Zn99 1.986 1_545 S
O102 C109 1.262 . S
O103 Zn98 2.049 . S
O103 C111 1.260 . S
O104 Zn99 1.996 . S
O104 C111 1.257 . S
C105 O100 1.254 . S
C105 O101 1.269 . S
C106 O107 1.249 . S
C106 O108 1.270 . S
O107 Zn99 1.943 . S
O107 C106 1.249 . S
O108 Zn98 2.067 . S
O108 C106 1.270 . S
C109 O102 1.262 . S
C109 O110 1.232 . S
O110 C109 1.232 . S
C111 O103 1.260 . S
C111 O104 1.257 . S
Zn112 O115 2.031 . S
Zn112 O117 2.049 . S
Zn112 O122 2.067 . S
Zn113 O114 1.962 1_455 S
Zn113 O116 1.986 . S
Zn113 O118 1.996 . S
Zn113 O121 1.943 . S
O114 Zn113 1.962 1_655 S
O114 C119 1.254 . S
O115 Zn112 2.031 . S
O115 C119 1.269 1_455 S
O116 Zn113 1.986 . S
O116 C123 1.262 . S
O117 Zn112 2.049 . S
O117 C125 1.260 . S
O118 Zn113 1.996 . S
O118 C125 1.257 . S
C119 O114 1.254 . S
C119 O115 1.269 1_655 S
C120 O121 1.249 . S
C120 O122 1.270 . S
O121 Zn113 1.943 . S
O121 C120 1.249 . S
O122 Zn112 2.067 . S
O122 C120 1.270 . S
C123 O116 1.262 . S
C123 O124 1.232 . S
O124 C123 1.232 . S
C125 O117 1.260 . S
C125 O118 1.257 . S
Zn126 O129 2.031 . S
Zn126 O131 2.049 . S
Zn126 O136 2.067 . S
Zn127 O128 1.962 1_565 S
Zn127 O130 1.986 . S
Zn127 O132 1.996 . S
Zn127 O135 1.943 . S
O128 Zn127 1.962 1_545 S
O128 C133 1.254 . S
O129 Zn126 2.031 . S
O129 C133 1.269 1_565 S
O130 Zn127 1.986 . S
O130 C137 1.262 . S
O131 Zn126 2.049 . S
O131 C139 1.260 . S
O132 Zn127 1.996 . S
O132 C139 1.257 . S
C133 O128 1.254 . S
C133 O129 1.269 1_545 S
C134 O135 1.249 . S
C134 O136 1.270 . S
O135 Zn127 1.943 . S
O135 C134 1.249 . S
O136 Zn126 2.067 . S
O136 C134 1.270 . S
C137 O130 1.262 . S
C137 O138 1.232 . S
O138 C137 1.232 . S
C139 O131 1.260 . S
C139 O132 1.257 . S
Zn140 O143 2.031 . S
Zn140 O145 2.049 . S
Zn140 O150 2.067 . S
Zn141 O142 1.962 1_455 S
Zn141 O144 1.986 . S
Zn141 O146 1.996 . S
Zn141 O149 1.943 . S
O142 Zn141 1.962 1_655 S
O142 C147 1.254 . S
O143 Zn140 2.031 . S
O143 C147 1.269 1_455 S
O144 Zn141 1.986 . S
O144 C151 1.262 . S
O145 Zn140 2.049 . S
O145 C153 1.260 . S
O146 Zn141 1.996 . S
O146 C153 1.257 . S
C147 O142 1.254 . S
C147 O143 1.269 1_655 S
C148 O149 1.249 . S
C148 O150 1.270 . S
O149 Zn141 1.943 . S
O149 C148 1.249 . S
O150 Zn140 2.067 . S
O150 C148 1.270 . S
C151 O144 1.262 . S
C151 O152 1.232 . S
O152 C151 1.232 . S
C153 O145 1.260 . S
C153 O146 1.257 . S
Zn154 O157 2.031 . S
Zn154 O159 2.049 . S
Zn154 O164 2.067 . S
Zn155 O156 1.962 . S
Zn155 O158 1.986 . S
Zn155 O160 1.996 . S
Zn155 O163 1.943 . S
O156 Zn155 1.962 . S
O156 C161 1.254 . S
O157 Zn154 2.031 . S
O157 C161 1.269 . S
O158 Zn155 1.986 . S
O158 C165 1.262 . S
O159 Zn154 2.049 . S
O159 C167 1.260 . S
O160 Zn155 1.996 . S
O160 C167 1.257 . S
C161 O156 1.254 . S
C161 O157 1.269 . S
C162 O163 1.249 . S
C162 O164 1.270 . S
O163 Zn155 1.943 . S
O163 C162 1.249 . S
O164 Zn154 2.067 . S
O164 C162 1.270 . S
C165 O158 1.262 . S
C165 O166 1.232 . S
O166 C165 1.232 . S
C167 O159 1.260 . S
C167 O160 1.257 . S
Zn168 O171 2.031 . S
Zn168 O173 2.049 . S
Zn168 O178 2.067 . S
Zn169 O170 1.962 1_545 S
Zn169 O172 1.986 . S
Zn169 O174 1.996 . S
Zn169 O177 1.943 . S
O170 Zn169 1.962 1_565 S
O170 C175 1.254 . S
O171 Zn168 2.031 . S
O171 C175 1.269 1_545 S
O172 Zn169 1.986 . S
O172 C179 1.262 . S
O173 Zn168 2.049 . S
O173 C181 1.260 . S
O174 Zn169 1.996 . S
O174 C181 1.257 . S
C175 O170 1.254 . S
C175 O171 1.269 1_565 S
C176 O177 1.249 . S
C176 O178 1.270 . S
O177 Zn169 1.943 . S
O177 C176 1.249 . S
O178 Zn168 2.067 . S
O178 C176 1.270 . S
C179 O172 1.262 . S
C179 O180 1.232 . S
O180 C179 1.232 . S
C181 O173 1.260 . S
C181 O174 1.257 . S
Zn182 O185 2.037 . S
Zn182 O187 2.049 . S
Zn182 O192 2.067 . S
Zn183 O184 1.962 1_655 S
Zn183 O186 1.986 . S
Zn183 O188 1.996 . S
Zn183 O191 1.943 . S
O184 Zn183 1.962 1_455 S
O184 C189 1.254 . S
O185 Zn182 2.037 . S
O185 C189 1.264 1_655 S
O186 Zn183 1.986 . S
O186 C193 1.262 . S
O187 Zn182 2.049 . S
O187 C195 1.260 . S
O188 Zn183 1.996 . S
O188 C195 1.257 . S
C189 O184 1.254 . S
C189 O185 1.264 1_455 S
C190 O191 1.249 . S
C190 O192 1.270 . S
O191 Zn183 1.943 . S
O191 C190 1.249 . S
O192 Zn182 2.067 . S
O192 C190 1.270 . S
C193 O186 1.262 . S
C193 O194 1.232 . S
O194 C193 1.232 . S
C195 O187 1.260 . S
C195 O188 1.257 . S
Zn196 O199 2.031 . S
Zn196 O201 2.049 . S
Zn196 O206 2.067 . S
Zn197 O198 1.962 . S
Zn197 O200 1.986 . S
Zn197 O202 1.996 . S
Zn197 O205 1.943 . S
O198 Zn197 1.962 . S
O198 C203 1.254 . S
O199 Zn196 2.031 . S
O199 C203 1.269 . S
O200 Zn197 1.986 . S
O200 C207 1.262 . S
O201 Zn196 2.049 . S
O201 C209 1.260 . S
O202 Zn197 1.996 . S
O202 C209 1.257 . S
C203 O198 1.254 . S
C203 O199 1.269 . S
C204 O205 1.249 . S
C204 O206 1.270 . S
O205 Zn197 1.943 . S
O205 C204 1.249 . S
O206 Zn196 2.067 . S
O206 C204 1.270 . S
C207 O200 1.262 . S
C207 O208 1.232 . S
O208 C207 1.232 . S
C209 O201 1.260 . S
C209 O202 1.257 . S
Zn210 O213 2.031 . S
Zn210 O215 2.049 . S
Zn210 O220 2.067 . S
Zn211 O212 1.962 . S
Zn211 O214 1.986 . S
Zn211 O216 1.996 . S
Zn211 O219 1.943 . S
O212 Zn211 1.962 . S
O212 C217 1.254 . S
O213 Zn210 2.031 . S
O213 C217 1.269 . S
O214 Zn211 1.986 . S
O214 C221 1.262 . S
O215 Zn210 2.049 . S
O215 C223 1.260 . S
O216 Zn211 1.996 . S
O216 C223 1.257 . S
C217 O212 1.254 . S
C217 O213 1.269 . S
C218 O219 1.249 . S
C218 O220 1.270 . S
O219 Zn211 1.943 . S
O219 C218 1.249 . S
O220 Zn210 2.067 . S
O220 C218 1.270 . S
C221 O214 1.262 . S
C221 O222 1.232 . S
O222 C221 1.232 . S
C223 O215 1.260 . S
C223 O216 1.257 . S
Zn224 O227 2.031 . S
Zn224 O229 2.049 . S
Zn224 O234 2.067 . S
Zn225 O226 1.962 . S
Zn225 O228 1.986 1_545 S
Zn225 O230 1.996 . S
Zn225 O233 1.943 . S
O226 Zn225 1.962 . S
O226 C231 1.254 . S
O227 Zn224 2.031 . S
O227 C231 1.269 . S
O228 Zn225 1.986 1_565 S
O228 C235 1.262 . S
O229 Zn224 2.049 . S
O229 C237 1.260 . S
O230 Zn225 1.996 . S
O230 C237 1.257 . S
C231 O226 1.254 . S
C231 O227 1.269 . S
C232 O233 1.249 . S
C232 O234 1.270 . S
O233 Zn225 1.943 . S
O233 C232 1.249 . S
O234 Zn224 2.067 . S
O234 C232 1.270 . S
C235 O228 1.262 . S
C235 O236 1.232 . S
O236 C235 1.232 . S
C237 O229 1.260 . S
C237 O230 1.257 . S
Zn238 O241 2.031 . S
Zn238 O243 2.049 . S
Zn238 O248 2.067 . S
Zn239 O240 1.962 1_655 S
Zn239 O242 1.986 . S
Zn239 O244 1.996 . S
Zn239 O247 1.943 . S
O240 Zn239 1.962 1_455 S
O240 C245 1.254 . S
O241 Zn238 2.031 . S
O241 C245 1.269 1_655 S
O242 Zn239 1.986 . S
O242 C249 1.262 . S
O243 Zn238 2.049 . S
O243 C251 1.260 . S
O244 Zn239 1.996 . S
O244 C251 1.257 . S
C245 O240 1.254 . S
C245 O241 1.269 1_455 S
C246 O247 1.249 . S
C246 O248 1.270 . S
O247 Zn239 1.943 . S
O247 C246 1.249 . S
O248 Zn238 2.067 . S
O248 C246 1.270 . S
C249 O242 1.262 . S
C249 O250 1.232 . S
O250 C249 1.232 . S
C251 O243 1.260 . S
C251 O244 1.257 . S
H252 C260 0.930 . S
H253 C263 0.930 . S
H254 C265 0.930 . S
H255 C266 0.970 . S
H256 C266 0.970 . S
H257 C268 0.930 . S
H258 C270 0.930 . S
H259 C272 0.930 . S
C260 H252 0.930 . S
C260 C261 1.382 . S
C260 C262 1.426 . S
C261 C260 1.382 . S
C261 C265 1.389 . S
C262 C260 1.426 . S
C262 C263 1.375 . S
C262 C266 1.532 . S
C263 H253 0.930 . S
C263 C262 1.375 . S
C263 C264 1.416 . S
C264 C263 1.416 . S
C264 C265 1.371 . S
C265 H254 0.930 . S
C265 C261 1.389 . S
C265 C264 1.371 . S
C266 H255 0.970 . S
C266 H256 0.970 . S
C266 C262 1.532 . S
C266 C267 1.499 . S
C267 C266 1.499 . S
C267 C268 1.370 . S
C267 C272 1.415 . S
C268 H257 0.930 . S
C268 C267 1.370 . S
C268 C269 1.407 . S
C269 C268 1.407 . S
C269 C270 1.365 . S
C270 H258 0.930 . S
C270 C269 1.365 . S
C270 C271 1.393 . S
C271 C270 1.393 . S
C271 C272 1.387 . S
C272 H259 0.930 . S
C272 C267 1.415 . S
C272 C271 1.387 . S
H273 C281 0.930 . S
H274 C284 0.930 . S
H275 C286 0.930 . S
H276 C287 0.970 . S
H277 C287 0.970 . S
H278 C289 0.930 . S
H279 C291 0.930 . S
H280 C293 0.930 . S
C281 H273 0.930 . S
C281 C282 1.382 . S
C281 C283 1.426 . S
C282 C281 1.382 . S
C282 C286 1.389 . S
C283 C281 1.426 . S
C283 C284 1.375 . S
C283 C287 1.532 . S
C284 H274 0.930 . S
C284 C283 1.375 . S
C284 C285 1.416 . S
C285 C284 1.416 . S
C285 C286 1.371 . S
C286 H275 0.930 . S
C286 C282 1.389 . S
C286 C285 1.371 . S
C287 H276 0.970 . S
C287 H277 0.970 . S
C287 C283 1.532 . S
C287 C288 1.499 . S
C288 C287 1.499 . S
C288 C289 1.370 . S
C288 C293 1.415 . S
C289 H278 0.930 . S
C289 C288 1.370 . S
C289 C290 1.407 . S
C290 C289 1.407 . S
C290 C291 1.365 . S
C291 H279 0.930 . S
C291 C290 1.365 . S
C291 C292 1.393 . S
C292 C291 1.393 . S
C292 C293 1.387 . S
C293 H280 0.930 . S
C293 C288 1.415 . S
C293 C292 1.387 . S
H294 C302 0.930 . S
H295 C305 0.930 . S
H296 C307 0.930 . S
H297 C308 0.970 . S
H298 C308 0.970 . S
H299 C310 0.930 . S
H300 C312 0.930 . S
H301 C314 0.930 . S
C302 H294 0.930 . S
C302 C303 1.382 . S
C302 C304 1.426 . S
C303 C302 1.382 . S
C303 C307 1.389 . S
C304 C302 1.426 . S
C304 C305 1.375 . S
C304 C308 1.532 . S
C305 H295 0.930 . S
C305 C304 1.375 . S
C305 C306 1.416 . S
C306 C305 1.416 . S
C306 C307 1.371 . S
C307 H296 0.930 . S
C307 C303 1.389 . S
C307 C306 1.371 . S
C308 H297 0.970 . S
C308 H298 0.970 . S
C308 C304 1.532 . S
C308 C309 1.499 . S
C309 C308 1.499 . S
C309 C310 1.370 . S
C309 C314 1.415 . S
C310 H299 0.930 . S
C310 C309 1.370 . S
C310 C311 1.407 . S
C311 C310 1.407 . S
C311 C312 1.365 . S
C312 H300 0.930 . S
C312 C311 1.365 . S
C312 C313 1.393 . S
C313 C312 1.393 . S
C313 C314 1.387 . S
C314 H301 0.930 . S
C314 C309 1.415 . S
C314 C313 1.387 . S
H315 C323 0.930 . S
H316 C326 0.930 . S
H317 C328 0.930 . S
H318 C329 0.970 . S
H319 C329 0.970 . S
H320 C331 0.930 . S
H321 C333 0.930 . S
H322 C335 0.930 . S
C323 H315 0.930 . S
C323 C324 1.382 . S
C323 C325 1.426 . S
C324 C323 1.382 . S
C324 C328 1.389 . S
C325 C323 1.426 . S
C325 C326 1.375 . S
C325 C329 1.532 . S
C326 H316 0.930 . S
C326 C325 1.375 . S
C326 C327 1.416 . S
C327 C326 1.416 . S
C327 C328 1.371 . S
C328 H317 0.930 . S
C328 C324 1.389 . S
C328 C327 1.371 . S
C329 H318 0.970 . S
C329 H319 0.970 . S
C329 C325 1.532 . S
C329 C330 1.499 . S
C330 C329 1.499 . S
C330 C331 1.370 . S
C330 C335 1.415 . S
C331 H320 0.930 . S
C331 C330 1.370 . S
C331 C332 1.407 . S
C332 C331 1.407 . S
C332 C333 1.365 . S
C333 H321 0.930 . S
C333 C332 1.365 . S
C333 C334 1.393 . S
C334 C333 1.393 . S
C334 C335 1.387 . S
C335 H322 0.930 . S
C335 C330 1.415 . S
C335 C334 1.387 . S
H336 C344 0.930 . S
H337 C347 0.930 . S
H338 C349 0.930 . S
H339 C350 0.970 . S
H340 C350 0.970 . S
H341 C352 0.930 . S
H342 C354 0.930 . S
H343 C356 0.930 . S
C344 H336 0.930 . S
C344 C345 1.382 . S
C344 C346 1.426 . S
C345 C344 1.382 . S
C345 C349 1.389 . S
C346 C344 1.426 . S
C346 C347 1.375 . S
C346 C350 1.532 . S
C347 H337 0.930 . S
C347 C346 1.375 . S
C347 C348 1.416 . S
C348 C347 1.416 . S
C348 C349 1.371 . S
C349 H338 0.930 . S
C349 C345 1.389 . S
C349 C348 1.371 . S
C350 H339 0.970 . S
C350 H340 0.970 . S
C350 C346 1.532 . S
C350 C351 1.499 . S
C351 C350 1.499 . S
C351 C352 1.370 . S
C351 C356 1.415 . S
C352 H341 0.930 . S
C352 C351 1.370 . S
C352 C353 1.407 . S
C353 C352 1.407 . S
C353 C354 1.365 . S
C354 H342 0.930 . S
C354 C353 1.365 . S
C354 C355 1.393 . S
C355 C354 1.393 . S
C355 C356 1.387 . S
C356 H343 0.930 . S
C356 C351 1.415 . S
C356 C355 1.387 . S
H357 C365 0.930 . S
H358 C368 0.930 . S
H359 C370 0.930 . S
H360 C371 0.970 . S
H361 C371 0.970 . S
H362 C373 0.930 . S
H363 C375 0.930 . S
H364 C377 0.930 . S
C365 H357 0.930 . S
C365 C366 1.382 . S
C365 C367 1.426 . S
C366 C365 1.382 . S
C366 C370 1.389 . S
C367 C365 1.426 . S
C367 C368 1.375 . S
C367 C371 1.532 . S
C368 H358 0.930 . S
C368 C367 1.375 . S
C368 C369 1.416 . S
C369 C368 1.416 . S
C369 C370 1.371 . S
C370 H359 0.930 . S
C370 C366 1.389 . S
C370 C369 1.371 . S
C371 H360 0.970 . S
C371 H361 0.970 . S
C371 C367 1.532 . S
C371 C372 1.499 . S
C372 C371 1.499 . S
C372 C373 1.370 . S
C372 C377 1.415 . S
C373 H362 0.930 . S
C373 C372 1.370 . S
C373 C374 1.407 . S
C374 C373 1.407 . S
C374 C375 1.365 . S
C375 H363 0.930 . S
C375 C374 1.365 . S
C375 C376 1.393 . S
C376 C375 1.393 . S
C376 C377 1.387 . S
C377 H364 0.930 . S
C377 C372 1.415 . S
C377 C376 1.387 . S
H378 C386 0.930 . S
H379 C389 0.930 . S
H380 C391 0.930 . S
H381 C392 0.970 . S
H382 C392 0.970 . S
H383 C394 0.930 . S
H384 C396 0.930 . S
H385 C398 0.930 . S
C386 H378 0.930 . S
C386 C387 1.382 . S
C386 C388 1.426 . S
C387 C386 1.382 . S
C387 C391 1.389 . S
C388 C386 1.426 . S
C388 C389 1.375 . S
C388 C392 1.532 . S
C389 H379 0.930 . S
C389 C388 1.375 . S
C389 C390 1.416 . S
C390 C389 1.416 . S
C390 C391 1.371 . S
C391 H380 0.930 . S
C391 C387 1.389 . S
C391 C390 1.371 . S
C392 H381 0.970 . S
C392 H382 0.970 . S
C392 C388 1.532 . S
C392 C393 1.499 . S
C393 C392 1.499 . S
C393 C394 1.370 . S
C393 C398 1.415 . S
C394 H383 0.930 . S
C394 C393 1.370 . S
C394 C395 1.407 . S
C395 C394 1.407 . S
C395 C396 1.365 . S
C396 H384 0.930 . S
C396 C395 1.365 . S
C396 C397 1.393 . S
C397 C396 1.393 . S
C397 C398 1.387 . S
C398 H385 0.930 . S
C398 C393 1.415 . S
C398 C397 1.387 . S
H399 C407 0.930 . S
H400 C410 0.930 . S
H401 C412 0.930 . S
H402 C413 0.970 . S
H403 C413 0.970 . S
H404 C415 0.930 . S
H405 C417 0.930 . S
H406 C419 0.930 . S
C407 H399 0.930 . S
C407 C408 1.382 . S
C407 C409 1.426 . S
C408 C407 1.382 . S
C408 C412 1.389 . S
C409 C407 1.426 . S
C409 C410 1.375 . S
C409 C413 1.532 . S
C410 H400 0.930 . S
C410 C409 1.375 . S
C410 C411 1.416 . S
C411 C410 1.416 . S
C411 C412 1.371 . S
C412 H401 0.930 . S
C412 C408 1.389 . S
C412 C411 1.371 . S
C413 H402 0.970 . S
C413 H403 0.970 . S
C413 C409 1.532 . S
C413 C414 1.499 . S
C414 C413 1.499 . S
C414 C415 1.370 . S
C414 C419 1.415 . S
C415 H404 0.930 . S
C415 C414 1.370 . S
C415 C416 1.407 . S
C416 C415 1.407 . S
C416 C417 1.365 . S
C417 H405 0.930 . S
C417 C416 1.365 . S
C417 C418 1.393 . S
C418 C417 1.393 . S
C418 C419 1.387 . S
C419 H406 0.930 . S
C419 C414 1.415 . S
C419 C418 1.387 . S
H420 C428 0.930 . S
H421 C431 0.930 . S
H422 C433 0.930 . S
H423 C434 0.970 . S
H424 C434 0.970 . S
H425 C436 0.930 . S
H426 C438 0.930 . S
H427 C440 0.930 . S
C428 H420 0.930 . S
C428 C429 1.382 . S
C428 C430 1.426 . S
C429 C428 1.382 . S
C429 C433 1.389 . S
C430 C428 1.426 . S
C430 C431 1.375 . S
C430 C434 1.532 . S
C431 H421 0.930 . S
C431 C430 1.375 . S
C431 C432 1.416 . S
C432 C431 1.416 . S
C432 C433 1.371 . S
C433 H422 0.930 . S
C433 C429 1.389 . S
C433 C432 1.371 . S
C434 H423 0.970 . S
C434 H424 0.970 . S
C434 C430 1.532 . S
C434 C435 1.499 . S
C435 C434 1.499 . S
C435 C436 1.370 . S
C435 C440 1.415 . S
C436 H425 0.930 . S
C436 C435 1.370 . S
C436 C437 1.407 . S
C437 C436 1.407 . S
C437 C438 1.365 . S
C438 H426 0.930 . S
C438 C437 1.365 . S
C438 C439 1.393 . S
C439 C438 1.393 . S
C439 C440 1.387 . S
C440 H427 0.930 . S
C440 C435 1.415 . S
C440 C439 1.387 . S
H441 C449 0.930 . S
H442 C452 0.930 . S
H443 C454 0.930 . S
H444 C455 0.970 . S
H445 C455 0.970 . S
H446 C457 0.930 . S
H447 C459 0.930 . S
H448 C461 0.930 . S
C449 H441 0.930 . S
C449 C450 1.382 . S
C449 C451 1.426 . S
C450 C449 1.382 . S
C450 C454 1.389 1_455 S
C451 C449 1.426 . S
C451 C452 1.375 . S
C451 C455 1.532 . S
C452 H442 0.930 . S
C452 C451 1.375 . S
C452 C453 1.416 . S
C453 C452 1.416 . S
C453 C454 1.371 1_455 S
C454 H443 0.930 . S
C454 C450 1.389 1_655 S
C454 C453 1.371 1_655 S
C455 H444 0.970 . S
C455 H445 0.970 . S
C455 C451 1.532 . S
C455 C456 1.499 . S
C456 C455 1.499 . S
C456 C457 1.370 . S
C456 C461 1.415 . S
C457 H446 0.930 . S
C457 C456 1.370 . S
C457 C458 1.410 . S
C458 C457 1.410 . S
C458 C459 1.370 1_455 S
C459 H447 0.930 . S
C459 C458 1.370 1_655 S
C459 C460 1.393 1_655 S
C460 C459 1.393 1_455 S
C460 C461 1.387 . S
C461 H448 0.930 . S
C461 C456 1.415 . S
C461 C460 1.387 . S
H462 C470 0.930 . S
H463 C473 0.930 . S
H464 C475 0.930 . S
H465 C476 0.970 . S
H466 C476 0.970 . S
H467 C478 0.930 . S
H468 C480 0.930 . S
H469 C482 0.930 . S
C470 H462 0.930 . S
C470 C471 1.382 . S
C470 C472 1.426 . S
C471 C470 1.382 . S
C471 C475 1.389 . S
C472 C470 1.426 . S
C472 C473 1.375 . S
C472 C476 1.532 . S
C473 H463 0.930 . S
C473 C472 1.375 . S
C473 C474 1.416 . S
C474 C473 1.416 . S
C474 C475 1.371 . S
C475 H464 0.930 . S
C475 C471 1.389 . S
C475 C474 1.371 . S
C476 H465 0.970 . S
C476 H466 0.970 . S
C476 C472 1.532 . S
C476 C477 1.499 . S
C477 C476 1.499 . S
C477 C478 1.370 . S
C477 C482 1.415 . S
C478 H467 0.930 . S
C478 C477 1.370 . S
C478 C479 1.407 . S
C479 C478 1.407 . S
C479 C480 1.365 . S
C480 H468 0.930 . S
C480 C479 1.365 . S
C480 C481 1.393 . S
C481 C480 1.393 . S
C481 C482 1.387 . S
C482 H469 0.930 . S
C482 C477 1.415 . S
C482 C481 1.387 . S
H483 C491 0.930 . S
H484 C494 0.930 . S
H485 C496 0.930 . S
H486 C497 0.970 . S
H487 C497 0.970 . S
H488 C499 0.930 . S
H489 C501 0.930 . S
H490 C503 0.930 . S
C491 H483 0.930 . S
C491 C492 1.382 . S
C491 C493 1.426 . S
C492 C491 1.382 . S
C492 C496 1.389 1_565 S
C493 C491 1.426 . S
C493 C494 1.375 . S
C493 C497 1.532 . S
C494 H484 0.930 . S
C494 C493 1.375 . S
C494 C495 1.416 . S
C495 C494 1.416 . S
C495 C496 1.371 1_565 S
C496 H485 0.930 . S
C496 C492 1.389 1_545 S
C496 C495 1.371 1_545 S
C497 H486 0.970 . S
C497 H487 0.970 . S
C497 C493 1.532 . S
C497 C498 1.499 . S
C498 C497 1.499 . S
C498 C499 1.370 . S
C498 C503 1.415 . S
C499 H488 0.930 . S
C499 C498 1.370 . S
C499 C500 1.402 . S
C500 C499 1.402 . S
C500 C501 1.367 1_565 S
C501 H489 0.930 . S
C501 C500 1.367 1_545 S
C501 C502 1.393 1_545 S
C502 C501 1.393 1_565 S
C502 C503 1.387 . S
C503 H490 0.930 . S
C503 C498 1.415 . S
C503 C502 1.387 . S
H504 C512 0.930 . S
H505 C515 0.930 . S
H506 C517 0.930 . S
H507 C518 0.970 . S
H508 C518 0.970 . S
H509 C520 0.930 . S
H510 C522 0.930 . S
H511 C524 0.930 . S
C512 H504 0.930 . S
C512 C513 1.382 . S
C512 C514 1.426 . S
C513 C512 1.382 . S
C513 C517 1.389 1_565 S
C514 C512 1.426 . S
C514 C515 1.375 . S
C514 C518 1.532 . S
C515 H505 0.930 . S
C515 C514 1.375 . S
C515 C516 1.458 . S
C516 C515 1.458 . S
C516 C517 1.355 1_565 S
C517 H506 0.930 . S
C517 C513 1.389 1_545 S
C517 C516 1.355 1_545 S
C518 H507 0.970 . S
C518 H508 0.970 . S
C518 C514 1.532 . S
C518 C519 1.499 . S
C519 C518 1.499 . S
C519 C520 1.370 . S
C519 C524 1.415 . S
C520 H509 0.930 . S
C520 C519 1.370 . S
C520 C521 1.407 . S
C521 C520 1.407 . S
C521 C522 1.365 1_565 S
C522 H510 0.930 . S
C522 C521 1.365 1_545 S
C522 C523 1.393 1_545 S
C523 C522 1.393 1_565 S
C523 C524 1.387 . S
C524 H511 0.930 . S
C524 C519 1.415 . S
C524 C523 1.387 . S
H525 C533 0.930 . S
H526 C536 0.930 . S
H527 C538 0.930 . S
H528 C539 0.970 . S
H529 C539 0.970 . S
H530 C541 0.930 . S
H531 C543 0.930 . S
H532 C545 0.930 . S
C533 H525 0.930 . S
C533 C534 1.382 . S
C533 C535 1.426 . S
C534 C533 1.382 . S
C534 C538 1.389 1_455 S
C535 C533 1.426 . S
C535 C536 1.375 . S
C535 C539 1.532 . S
C536 H526 0.930 . S
C536 C535 1.375 . S
C536 C537 1.416 . S
C537 C536 1.416 . S
C537 C538 1.371 1_455 S
C538 H527 0.930 . S
C538 C534 1.389 1_655 S
C538 C537 1.371 1_655 S
C539 H528 0.970 . S
C539 H529 0.970 . S
C539 C535 1.532 . S
C539 C540 1.499 . S
C540 C539 1.499 . S
C540 C541 1.370 . S
C540 C545 1.415 . S
C541 H530 0.930 . S
C541 C540 1.370 . S
C541 C542 1.407 . S
C542 C541 1.407 . S
C542 C543 1.365 1_455 S
C543 H531 0.930 . S
C543 C542 1.365 1_655 S
C543 C544 1.393 1_655 S
C544 C543 1.393 1_455 S
C544 C545 1.387 . S
C545 H532 0.930 . S
C545 C540 1.415 . S
C545 C544 1.387 . S
H546 C554 0.930 . S
H547 C557 0.930 . S
H548 C559 0.930 . S
H549 C560 0.970 . S
H550 C560 0.970 . S
H551 C562 0.930 . S
H552 C564 0.930 . S
H553 C566 0.930 . S
C554 H546 0.930 . S
C554 C555 1.382 . S
C554 C556 1.426 . S
C555 C554 1.382 . S
C555 C559 1.389 . S
C556 C554 1.426 . S
C556 C557 1.375 . S
C556 C560 1.532 . S
C557 H547 0.930 . S
C557 C556 1.375 . S
C557 C558 1.416 . S
C558 C557 1.416 . S
C558 C559 1.371 . S
C559 H548 0.930 . S
C559 C555 1.389 . S
C559 C558 1.371 . S
C560 H549 0.970 . S
C560 H550 0.970 . S
C560 C556 1.532 . S
C560 C561 1.499 . S
C561 C560 1.499 . S
C561 C562 1.370 . S
C561 C566 1.415 . S
C562 H551 0.930 . S
C562 C561 1.370 . S
C562 C563 1.407 . S
C563 C562 1.407 . S
C563 C564 1.365 . S
C564 H552 0.930 . S
C564 C563 1.365 . S
C564 C565 1.393 . S
C565 C564 1.393 . S
C565 C566 1.387 . S
C566 H553 0.930 . S
C566 C561 1.415 . S
C566 C565 1.387 . S
H567 C575 0.930 . S
H568 C578 0.930 . S
H569 C580 0.930 . S
H570 C581 0.970 . S
H571 C581 0.970 . S
H572 C583 0.930 . S
H573 C585 0.930 . S
H574 C587 0.930 . S
C575 H567 0.930 . S
C575 C576 1.382 . S
C575 C577 1.426 . S
C576 C575 1.382 . S
C576 C580 1.389 . S
C577 C575 1.426 . S
C577 C578 1.375 . S
C577 C581 1.532 . S
C578 H568 0.930 . S
C578 C577 1.375 . S
C578 C579 1.416 . S
C579 C578 1.416 . S
C579 C580 1.371 . S
C580 H569 0.930 . S
C580 C576 1.389 . S
C580 C579 1.371 . S
C581 H570 0.970 . S
C581 H571 0.970 . S
C581 C577 1.532 . S
C581 C582 1.499 . S
C582 C581 1.499 . S
C582 C583 1.370 . S
C582 C587 1.415 . S
C583 H572 0.930 . S
C583 C582 1.370 . S
C583 C584 1.407 . S
C584 C583 1.407 . S
C584 C585 1.365 . S
C585 H573 0.930 . S
C585 C584 1.365 . S
C585 C586 1.393 . S
C586 C585 1.393 . S
C586 C587 1.387 . S
C587 H574 0.930 . S
C587 C582 1.415 . S
C587 C586 1.387 . S
H588 C596 0.930 . S
H589 C599 0.930 . S
H590 C601 0.930 . S
H591 C602 0.970 . S
H592 C602 0.970 . S
H593 C604 0.930 . S
H594 C606 0.930 . S
H595 C608 0.930 . S
C596 H588 0.930 . S
C596 C597 1.382 . S
C596 C598 1.426 . S
C597 C596 1.382 . S
C597 C601 1.389 . S
C598 C596 1.426 . S
C598 C599 1.375 . S
C598 C602 1.532 . S
C599 H589 0.930 . S
C599 C598 1.375 . S
C599 C600 1.416 . S
C600 C599 1.416 . S
C600 C601 1.371 . S
C601 H590 0.930 . S
C601 C597 1.389 . S
C601 C600 1.371 . S
C602 H591 0.970 . S
C602 H592 0.970 . S
C602 C598 1.532 . S
C602 C603 1.499 . S
C603 C602 1.499 . S
C603 C604 1.370 . S
C603 C608 1.415 . S
C604 H593 0.930 . S
C604 C603 1.370 . S
C604 C605 1.407 . S
C605 C604 1.407 . S
C605 C606 1.365 . S
C606 H594 0.930 . S
C606 C605 1.365 . S
C606 C607 1.393 . S
C607 C606 1.393 . S
C607 C608 1.387 . S
C608 H595 0.930 . S
C608 C603 1.415 . S
C608 C607 1.387 . S
H609 C617 0.930 . S
H610 C620 0.930 . S
H611 C622 0.930 . S
H612 C623 0.970 . S
H613 C623 0.970 . S
H614 C625 0.930 . S
H615 C627 0.930 . S
H616 C629 0.930 . S
C617 H609 0.930 . S
C617 C618 1.382 . S
C617 C619 1.426 . S
C618 C617 1.382 . S
C618 C622 1.389 . S
C619 C617 1.426 . S
C619 C620 1.375 . S
C619 C623 1.532 . S
C620 H610 0.930 . S
C620 C619 1.375 . S
C620 C621 1.416 . S
C621 C620 1.416 . S
C621 C622 1.371 . S
C622 H611 0.930 . S
C622 C618 1.389 . S
C622 C621 1.371 . S
C623 H612 0.970 . S
C623 H613 0.970 . S
C623 C619 1.532 . S
C623 C624 1.499 . S
C624 C623 1.499 . S
C624 C625 1.370 . S
C624 C629 1.415 . S
C625 H614 0.930 . S
C625 C624 1.370 . S
C625 C626 1.407 . S
C626 C625 1.407 . S
C626 C627 1.365 . S
C627 H615 0.930 . S
C627 C626 1.365 . S
C627 C628 1.393 . S
C628 C627 1.393 . S
C628 C629 1.387 . S
C629 H616 0.930 . S
C629 C624 1.415 . S
C629 C628 1.387 . S
H630 C636 0.930 . S
H631 C640 0.930 . S
H632 C645 0.929 . S
H633 C643 0.929 . S
H634 C638 0.929 . S
H635 C644 0.929 . S
C636 H630 0.930 . S
C636 C637 1.367 . S
C636 C644 1.378 . S
C637 C636 1.367 . S
C637 C645 1.433 1_655 S
C638 H634 0.929 . S
C638 C640 1.378 . S
C638 C642 1.350 1_455 S
C639 C642 1.463 . S
C639 C644 1.350 . S
C639 N647 1.427 1_655 S
C640 H631 0.930 . S
C640 C638 1.378 . S
C640 C641 1.367 1_455 S
C641 C640 1.367 1_655 S
C641 C643 1.433 . S
C642 C638 1.350 1_655 S
C642 C639 1.463 . S
C642 N646 1.427 . S
C643 H633 0.929 . S
C643 C641 1.433 . S
C643 N646 1.384 . S
C644 H635 0.929 . S
C644 C636 1.378 . S
C644 C639 1.350 . S
C645 H632 0.929 . S
C645 C637 1.433 1_455 S
C645 N647 1.384 . S
N646 C642 1.427 . S
N646 C643 1.384 . S
N647 C639 1.427 1_455 S
N647 C645 1.384 . S
H648 C654 0.930 . S
H649 C658 0.930 . S
H650 C663 0.929 . S
H651 C661 0.929 . S
H652 C656 0.929 . S
H653 C662 0.929 . S
C654 H648 0.930 . S
C654 C655 1.367 . S
C654 C662 1.378 . S
C655 C654 1.367 . S
C655 C663 1.433 . S
C656 H652 0.929 . S
C656 C658 1.378 . S
C656 C660 1.350 . S
C657 C660 1.463 . S
C657 C662 1.350 . S
C657 N665 1.427 . S
C658 H649 0.930 . S
C658 C656 1.378 . S
C658 C659 1.367 . S
C659 C658 1.367 . S
C659 C661 1.433 . S
C660 C656 1.350 . S
C660 C657 1.463 . S
C660 N664 1.427 . S
C661 H651 0.929 . S
C661 C659 1.433 . S
C661 N664 1.384 . S
C662 H653 0.929 . S
C662 C654 1.378 . S
C662 C657 1.350 . S
C663 H650 0.929 . S
C663 C655 1.433 . S
C663 N665 1.384 . S
N664 C660 1.427 . S
N664 C661 1.384 . S
N665 C657 1.427 . S
N665 C663 1.384 . S
H666 C672 0.930 . S
H667 C676 0.930 . S
H668 C681 0.928 . S
H669 C679 0.929 . S
H670 C674 0.929 . S
H671 C680 0.929 . S
C672 H666 0.930 . S
C672 C673 1.367 . S
C672 C680 1.378 . S
C673 C672 1.367 . S
C673 C681 1.437 1_545 S
C674 H670 0.929 . S
C674 C676 1.378 . S
C674 C678 1.350 1_565 S
C675 C678 1.463 . S
C675 C680 1.350 . S
C675 N683 1.405 1_545 S
C676 H667 0.930 . S
C676 C674 1.378 . S
C676 C677 1.367 1_565 S
C677 C676 1.367 1_545 S
C677 C679 1.433 . S
C678 C674 1.350 1_545 S
C678 C675 1.463 . S
C678 N682 1.427 . S
C679 H669 0.929 . S
C679 C677 1.433 . S
C679 N682 1.384 . S
C680 H671 0.929 . S
C680 C672 1.378 . S
C680 C675 1.350 . S
C681 H668 0.928 . S
C681 C673 1.437 1_565 S
C681 N683 1.358 . S
N682 C678 1.427 . S
N682 C679 1.384 . S
N683 C675 1.405 1_565 S
N683 C681 1.358 . S
H684 C690 0.937 . S
H685 C694 0.930 . S
H686 C699 0.929 . S
H687 C697 0.930 . S
H688 C692 0.929 . S
H689 C698 0.930 . S
C690 H684 0.937 . S
C690 C691 1.367 . S
C690 C698 1.378 . S
C691 C690 1.367 . S
C691 C699 1.433 . S
C692 H688 0.929 . S
C692 C694 1.378 . S
C692 C696 1.350 . S
C693 C696 1.463 . S
C693 C698 1.350 . S
C693 N701 1.427 . S
C694 H685 0.930 . S
C694 C692 1.378 . S
C694 C695 1.367 . S
C695 C694 1.367 . S
C695 C697 1.433 . S
C696 C692 1.350 . S
C696 C693 1.463 . S
C696 N700 1.427 . S
C697 H687 0.930 . S
C697 C695 1.433 . S
C697 N700 1.384 . S
C698 H689 0.930 . S
C698 C690 1.378 . S
C698 C693 1.350 . S
C699 H686 0.929 . S
C699 C691 1.433 . S
C699 N701 1.384 . S
N700 C696 1.427 . S
N700 C697 1.384 . S
N701 C693 1.427 . S
N701 C699 1.384 . S
H702 C708 0.930 . S
H703 C712 0.930 . S
H704 C717 0.929 . S
H705 C715 0.929 . S
H706 C710 0.929 . S
H707 C716 0.929 . S
C708 H702 0.930 . S
C708 C709 1.367 . S
C708 C716 1.378 . S
C709 C708 1.367 . S
C709 C717 1.433 1_455 S
C710 H706 0.929 . S
C710 C712 1.378 . S
C710 C714 1.350 1_655 S
C711 C714 1.463 . S
C711 C716 1.350 . S
C711 N719 1.427 1_455 S
C712 H703 0.930 . S
C712 C710 1.378 . S
C712 C713 1.367 1_655 S
C713 C712 1.367 1_455 S
C713 C715 1.433 . S
C714 C710 1.350 1_455 S
C714 C711 1.463 . S
C714 N718 1.427 . S
C715 H705 0.929 . S
C715 C713 1.433 . S
C715 N718 1.384 . S
C716 H707 0.929 . S
C716 C708 1.378 . S
C716 C711 1.350 . S
C717 H704 0.929 . S
C717 C709 1.433 1_655 S
C717 N719 1.384 . S
N718 C714 1.427 . S
N718 C715 1.384 . S
N719 C711 1.427 1_655 S
N719 C717 1.384 . S
H720 C726 0.930 . S
H721 C730 0.930 . S
H722 C735 0.929 . S
H723 C733 0.929 . S
H724 C728 0.929 . S
H725 C734 0.929 . S
C726 H720 0.930 . S
C726 C727 1.367 . S
C726 C734 1.378 . S
C727 C726 1.367 . S
C727 C735 1.433 . S
C728 H724 0.929 . S
C728 C730 1.378 . S
C728 C732 1.350 . S
C729 C732 1.463 . S
C729 C734 1.350 . S
C729 N737 1.427 . S
C730 H721 0.930 . S
C730 C728 1.378 . S
C730 C731 1.367 . S
C731 C730 1.367 . S
C731 C733 1.433 . S
C732 C728 1.350 . S
C732 C729 1.463 . S
C732 N736 1.427 . S
C733 H723 0.929 . S
C733 C731 1.433 . S
C733 N736 1.384 . S
C734 H725 0.929 . S
C734 C726 1.378 . S
C734 C729 1.350 . S
C735 H722 0.929 . S
C735 C727 1.433 . S
C735 N737 1.384 . S
N736 C732 1.427 . S
N736 C733 1.384 . S
N737 C729 1.427 . S
N737 C735 1.384 . S
H738 C744 0.930 . S
H739 C748 0.930 . S
H740 C753 0.929 . S
H741 C751 0.929 . S
H742 C746 0.929 . S
H743 C752 0.929 . S
C744 H738 0.930 . S
C744 C745 1.367 . S
C744 C752 1.378 . S
C745 C744 1.367 . S
C745 C753 1.433 . S
C746 H742 0.929 . S
C746 C748 1.378 . S
C746 C750 1.350 . S
C747 C750 1.463 . S
C747 C752 1.350 . S
C747 N755 1.427 . S
C748 H739 0.930 . S
C748 C746 1.378 . S
C748 C749 1.367 . S
C749 C748 1.367 . S
C749 C751 1.433 . S
C750 C746 1.350 . S
C750 C747 1.463 . S
C750 N754 1.427 . S
C751 H741 0.929 . S
C751 C749 1.433 . S
C751 N754 1.384 . S
C752 H743 0.929 . S
C752 C744 1.378 . S
C752 C747 1.350 . S
C753 H740 0.929 . S
C753 C745 1.433 . S
C753 N755 1.384 . S
N754 C750 1.427 . S
N754 C751 1.384 . S
N755 C747 1.427 . S
N755 C753 1.384 . S
H756 C762 0.930 . S
H757 C766 0.930 . S
H758 C771 0.929 . S
H759 C769 0.929 . S
H760 C764 0.929 . S
H761 C770 0.929 . S
C762 H756 0.930 . S
C762 C763 1.367 . S
C762 C770 1.378 . S
C763 C762 1.367 . S
C763 C771 1.433 . S
C764 H760 0.929 . S
C764 C766 1.378 . S
C764 C768 1.350 . S
C765 C768 1.463 . S
C765 C770 1.350 . S
C765 N773 1.427 . S
C766 H757 0.930 . S
C766 C764 1.378 . S
C766 C767 1.367 . S
C767 C766 1.367 . S
C767 C769 1.433 . S
C768 C764 1.350 . S
C768 C765 1.463 . S
C768 N772 1.427 . S
C769 H759 0.929 . S
C769 C767 1.433 . S
C769 N772 1.384 . S
C770 H761 0.929 . S
C770 C762 1.378 . S
C770 C765 1.350 . S
C771 H758 0.929 . S
C771 C763 1.433 . S
C771 N773 1.384 . S
N772 C768 1.427 . S
N772 C769 1.384 . S
N773 C765 1.427 . S
N773 C771 1.384 . S
H774 C780 0.930 . S
H775 C784 0.930 . S
H776 C789 0.929 . S
H777 C787 0.929 . S
H778 C782 0.929 . S
H779 C788 0.929 . S
C780 H774 0.930 . S
C780 C781 1.367 . S
C780 C788 1.378 . S
C781 C780 1.367 . S
C781 C789 1.433 1_565 S
C782 H778 0.929 . S
C782 C784 1.378 . S
C782 C786 1.350 1_545 S
C783 C786 1.463 . S
C783 C788 1.350 . S
C783 N791 1.427 1_565 S
C784 H775 0.930 . S
C784 C782 1.378 . S
C784 C785 1.367 1_545 S
C785 C784 1.367 1_565 S
C785 C787 1.433 . S
C786 C782 1.350 1_565 S
C786 C783 1.463 . S
C786 N790 1.427 . S
C787 H777 0.929 . S
C787 C785 1.433 . S
C787 N790 1.384 . S
C788 H779 0.929 . S
C788 C780 1.378 . S
C788 C783 1.350 . S
C789 H776 0.929 . S
C789 C781 1.433 1_545 S
C789 N791 1.384 . S
N790 C786 1.427 . S
N790 C787 1.384 . S
N791 C783 1.427 1_545 S
N791 C789 1.384 . S
H792 C798 0.930 . S
H793 C802 0.930 . S
H794 C807 0.929 . S
H795 C805 0.929 . S
H796 C800 0.929 . S
H797 C806 0.929 . S
C798 H792 0.930 . S
C798 C799 1.367 . S
C798 C806 1.378 . S
C799 C798 1.367 . S
C799 C807 1.433 1_545 S
C800 H796 0.929 . S
C800 C802 1.378 . S
C800 C804 1.350 1_565 S
C801 C804 1.463 . S
C801 C806 1.350 . S
C801 N809 1.427 1_545 S
C802 H793 0.930 . S
C802 C800 1.378 . S
C802 C803 1.323 1_565 S
C803 C802 1.323 1_545 S
C803 C805 1.463 . S
C804 C800 1.350 1_545 S
C804 C801 1.463 . S
C804 N808 1.427 . S
C805 H795 0.929 . S
C805 C803 1.463 . S
C805 N808 1.384 . S
C806 H797 0.929 . S
C806 C798 1.378 . S
C806 C801 1.350 . S
C807 H794 0.929 . S
C807 C799 1.433 1_565 S
C807 N809 1.384 . S
N808 C804 1.427 . S
N808 C805 1.384 . S
N809 C801 1.427 1_565 S
N809 C807 1.384 . S
H810 C816 0.930 . S
H811 C820 0.930 . S
H812 C825 0.929 . S
H813 C823 0.929 . S
H814 C818 0.929 . S
H815 C824 0.929 . S
C816 H810 0.930 . S
C816 C817 1.367 . S
C816 C824 1.378 . S
C817 C816 1.367 . S
C817 C825 1.433 1_655 S
C818 H814 0.929 . S
C818 C820 1.378 . S
C818 C822 1.350 1_455 S
C819 C822 1.463 . S
C819 C824 1.350 . S
C819 N827 1.427 1_655 S
C820 H811 0.930 . S
C820 C818 1.378 . S
C820 C821 1.367 1_455 S
C821 C820 1.367 1_655 S
C821 C823 1.433 . S
C822 C818 1.350 1_655 S
C822 C819 1.463 . S
C822 N826 1.427 . S
C823 H813 0.929 . S
C823 C821 1.433 . S
C823 N826 1.384 . S
C824 H815 0.929 . S
C824 C816 1.378 . S
C824 C819 1.350 . S
C825 H812 0.929 . S
C825 C817 1.433 1_455 S
C825 N827 1.384 . S
N826 C822 1.427 . S
N826 C823 1.384 . S
N827 C819 1.427 1_455 S
N827 C825 1.384 . S
H828 C834 0.930 . S
H829 C838 0.930 . S
H830 C843 0.929 . S
H831 C841 0.929 . S
H832 C836 0.929 . S
H833 C842 0.929 . S
C834 H828 0.930 . S
C834 C835 1.367 . S
C834 C842 1.378 . S
C835 C834 1.367 . S
C835 C843 1.433 . S
C836 H832 0.929 . S
C836 C838 1.378 . S
C836 C840 1.350 . S
C837 C840 1.463 . S
C837 C842 1.350 . S
C837 N845 1.427 . S
C838 H829 0.930 . S
C838 C836 1.378 . S
C838 C839 1.367 . S
C839 C838 1.367 . S
C839 C841 1.433 . S
C840 C836 1.350 . S
C840 C837 1.463 . S
C840 N844 1.427 . S
C841 H831 0.929 . S
C841 C839 1.433 . S
C841 N844 1.384 . S
C842 H833 0.929 . S
C842 C834 1.378 . S
C842 C837 1.350 . S
C843 H830 0.929 . S
C843 C835 1.433 . S
C843 N845 1.384 . S
N844 C840 1.427 . S
N844 C841 1.384 . S
N845 C837 1.427 . S
N845 C843 1.384 . S
H846 C852 0.930 . S
H847 C856 0.930 . S
H848 C861 0.929 . S
H849 C859 0.929 . S
H850 C854 0.929 . S
H851 C860 0.929 . S
C852 H846 0.930 . S
C852 C853 1.367 . S
C852 C860 1.378 . S
C853 C852 1.367 . S
C853 C861 1.433 . S
C854 H850 0.929 . S
C854 C856 1.378 . S
C854 C858 1.350 . S
C855 C858 1.463 . S
C855 C860 1.350 . S
C855 N863 1.427 . S
C856 H847 0.930 . S
C856 C854 1.378 . S
C856 C857 1.367 . S
C857 C856 1.367 . S
C857 C859 1.433 . S
C858 C854 1.350 . S
C858 C855 1.463 . S
C858 N862 1.427 . S
C859 H849 0.929 . S
C859 C857 1.433 . S
C859 N862 1.384 . S
C860 H851 0.929 . S
C860 C852 1.378 . S
C860 C855 1.350 . S
C861 H848 0.929 . S
C861 C853 1.433 . S
C861 N863 1.384 . S
N862 C858 1.427 . S
N862 C859 1.384 . S
N863 C855 1.427 . S
N863 C861 1.384 . S
H864 C870 0.930 . S
H865 C874 0.930 . S
H866 C879 0.929 . S
H867 C877 0.929 . S
H868 C872 0.929 . S
H869 C878 0.929 . S
C870 H864 0.930 . S
C870 C871 1.367 . S
C870 C878 1.378 . S
C871 C870 1.367 . S
C871 C879 1.433 . S
C872 H868 0.929 . S
C872 C874 1.378 . S
C872 C876 1.350 . S
C873 C876 1.463 . S
C873 C878 1.350 . S
C873 N881 1.427 . S
C874 H865 0.930 . S
C874 C872 1.378 . S
C874 C875 1.367 . S
C875 C874 1.367 . S
C875 C877 1.433 . S
C876 C872 1.350 . S
C876 C873 1.463 . S
C876 N880 1.427 . S
C877 H867 0.929 . S
C877 C875 1.433 . S
C877 N880 1.384 . S
C878 H869 0.929 . S
C878 C870 1.378 . S
C878 C873 1.350 . S
C879 H866 0.929 . S
C879 C871 1.433 . S
C879 N881 1.384 . S
N880 C876 1.427 . S
N880 C877 1.384 . S
N881 C873 1.427 . S
N881 C879 1.384 . S
H882 C888 0.930 . S
H883 C892 0.930 . S
H884 C897 0.929 . S
H885 C895 0.929 . S
H886 C890 0.929 . S
H887 C896 0.929 . S
C888 H882 0.930 . S
C888 C889 1.367 . S
C888 C896 1.378 . S
C889 C888 1.367 . S
C889 C897 1.433 . S
C890 H886 0.929 . S
C890 C892 1.378 . S
C890 C894 1.350 . S
C891 C894 1.463 . S
C891 C896 1.350 . S
C891 N899 1.427 . S
C892 H883 0.930 . S
C892 C890 1.378 . S
C892 C893 1.367 . S
C893 C892 1.367 . S
C893 C895 1.433 . S
C894 C890 1.350 . S
C894 C891 1.463 . S
C894 N898 1.427 . S
C895 H885 0.929 . S
C895 C893 1.433 . S
C895 N898 1.384 . S
C896 H887 0.929 . S
C896 C888 1.378 . S
C896 C891 1.350 . S
C897 H884 0.929 . S
C897 C889 1.433 . S
C897 N899 1.384 . S
N898 C894 1.427 . S
N898 C895 1.384 . S
N899 C891 1.427 . S
N899 C897 1.384 . S
H900 C906 0.930 . S
H901 C910 0.930 . S
H902 C915 0.929 . S
H903 C913 0.929 . S
H904 C908 0.929 . S
H905 C914 0.929 . S
C906 H900 0.930 . S
C906 C907 1.367 . S
C906 C914 1.378 . S
C907 C906 1.367 . S
C907 C915 1.433 . S
C908 H904 0.929 . S
C908 C910 1.378 . S
C908 C912 1.350 . S
C909 C912 1.463 . S
C909 C914 1.350 . S
C909 N917 1.427 . S
C910 H901 0.930 . S
C910 C908 1.378 . S
C910 C911 1.367 . S
C911 C910 1.367 . S
C911 C913 1.433 . S
C912 C908 1.350 . S
C912 C909 1.463 . S
C912 N916 1.427 . S
C913 H903 0.929 . S
C913 C911 1.433 . S
C913 N916 1.384 . S
C914 H905 0.929 . S
C914 C906 1.378 . S
C914 C909 1.350 . S
C915 H902 0.929 . S
C915 C907 1.433 . S
C915 N917 1.384 . S
N916 C912 1.427 . S
N916 C913 1.384 . S
N917 C909 1.427 . S
N917 C915 1.384 . S
H918 C924 0.930 . S
H919 C928 0.930 . S
H920 C933 0.929 . S
H921 C931 0.929 . S
H922 C926 0.929 . S
H923 C932 0.929 . S
C924 H918 0.930 . S
C924 C925 1.367 . S
C924 C932 1.378 . S
C925 C924 1.367 . S
C925 C933 1.433 . S
C926 H922 0.929 . S
C926 C928 1.378 . S
C926 C930 1.350 . S
C927 C930 1.463 . S
C927 C932 1.350 . S
C927 N935 1.427 . S
C928 H919 0.930 . S
C928 C926 1.378 . S
C928 C929 1.367 . S
C929 C928 1.367 . S
C929 C931 1.433 . S
C930 C926 1.350 . S
C930 C927 1.463 . S
C930 N934 1.427 . S
C931 H921 0.929 . S
C931 C929 1.433 . S
C931 N934 1.384 . S
C932 H923 0.929 . S
C932 C924 1.378 . S
C932 C927 1.350 . S
C933 H920 0.929 . S
C933 C925 1.433 . S
C933 N935 1.384 . S
N934 C930 1.427 . S
N934 C931 1.384 . S
N935 C927 1.427 . S
N935 C933 1.384 . S
H936 C942 0.930 . S
H937 C946 0.930 . S
H938 C951 0.929 . S
H939 C949 0.929 . S
H940 C944 0.929 . S
H941 C950 0.929 . S
C942 H936 0.930 . S
C942 C943 1.367 . S
C942 C950 1.378 . S
C943 C942 1.367 . S
C943 C951 1.433 . S
C944 H940 0.929 . S
C944 C946 1.378 . S
C944 C948 1.350 . S
C945 C948 1.463 . S
C945 C950 1.350 . S
C945 N953 1.427 . S
C946 H937 0.930 . S
C946 C944 1.378 . S
C946 C947 1.367 . S
C947 C946 1.367 . S
C947 C949 1.433 . S
C948 C944 1.350 . S
C948 C945 1.463 . S
C948 N952 1.427 . S
C949 H939 0.929 . S
C949 C947 1.433 . S
C949 N952 1.384 . S
C950 H941 0.929 . S
C950 C942 1.378 . S
C950 C945 1.350 . S
C951 H938 0.929 . S
C951 C943 1.433 . S
C951 N953 1.384 . S
N952 C948 1.427 . S
N952 C949 1.384 . S
N953 C945 1.427 . S
N953 C951 1.384 . S
H954 C960 0.930 . S
H955 C964 0.930 . S
H956 C969 0.929 . S
H957 C967 0.929 . S
H958 C962 0.929 . S
H959 C968 0.929 . S
C960 H954 0.930 . S
C960 C961 1.367 . S
C960 C968 1.378 . S
C961 C960 1.367 . S
C961 C969 1.433 . S
C962 H958 0.929 . S
C962 C964 1.378 . S
C962 C966 1.350 . S
C963 C966 1.463 . S
C963 C968 1.350 . S
C963 N971 1.427 . S
C964 H955 0.930 . S
C964 C962 1.378 . S
C964 C965 1.367 . S
C965 C964 1.367 . S
C965 C967 1.433 . S
C966 C962 1.350 . S
C966 C963 1.463 . S
C966 N970 1.427 . S
C967 H957 0.929 . S
C967 C965 1.433 . S
C967 N970 1.384 . S
C968 H959 0.929 . S
C968 C960 1.378 . S
C968 C963 1.350 . S
C969 H956 0.929 . S
C969 C961 1.433 . S
C969 N971 1.384 . S
N970 C966 1.427 . S
N970 C967 1.384 . S
N971 C963 1.427 . S
N971 C969 1.384 . S
H972 C978 0.930 . S
H973 C982 0.930 . S
H974 C987 0.929 . S
H975 C985 0.929 . S
H976 C980 0.929 . S
H977 C986 0.929 . S
C978 H972 0.930 . S
C978 C979 1.367 . S
C978 C986 1.378 . S
C979 C978 1.367 . S
C979 C987 1.433 . S
C980 H976 0.929 . S
C980 C982 1.378 . S
C980 C984 1.350 . S
C981 C984 1.463 . S
C981 C986 1.350 . S
C981 N989 1.427 . S
C982 H973 0.930 . S
C982 C980 1.378 . S
C982 C983 1.367 . S
C983 C982 1.367 . S
C983 C985 1.433 . S
C984 C980 1.350 . S
C984 C981 1.463 . S
C984 N988 1.427 . S
C985 H975 0.929 . S
C985 C983 1.433 . S
C985 N988 1.384 . S
C986 H977 0.929 . S
C986 C978 1.378 . S
C986 C981 1.350 . S
C987 H974 0.929 . S
C987 C979 1.433 . S
C987 N989 1.384 . S
N988 C984 1.427 . S
N988 C985 1.384 . S
N989 C981 1.427 . S
N989 C987 1.384 . S
H990 C996 0.930 . S
H991 C1000 0.930 . S
H992 C1005 0.929 . S
H993 C1003 0.929 . S
H994 C998 0.929 . S
H995 C1004 0.929 . S
C996 H990 0.930 . S
C996 C997 1.367 . S
C996 C1004 1.378 . S
C997 C996 1.367 . S
C997 C1005 1.433 . S
C998 H994 0.929 . S
C998 C1000 1.378 . S
C998 C1002 1.350 . S
C999 C1002 1.463 . S
C999 C1004 1.350 . S
C999 N1007 1.427 . S
C1000 H991 0.930 . S
C1000 C998 1.378 . S
C1000 C1001 1.367 . S
C1001 C1000 1.367 . S
C1001 C1003 1.433 . S
C1002 C998 1.350 . S
C1002 C999 1.463 . S
C1002 N1006 1.427 . S
C1003 H993 0.929 . S
C1003 C1001 1.433 . S
C1003 N1006 1.384 . S
C1004 H995 0.929 . S
C1004 C996 1.378 . S
C1004 C999 1.350 . S
C1005 H992 0.929 . S
C1005 C997 1.433 . S
C1005 N1007 1.384 . S
N1006 C1002 1.427 . S
N1006 C1003 1.384 . S
N1007 C999 1.427 . S
N1007 C1005 1.384 . S
H1008 C1014 0.930 . S
H1009 C1018 0.930 . S
H1010 C1023 0.929 . S
H1011 C1021 0.929 . S
H1012 C1016 0.929 . S
H1013 C1022 0.929 . S
C1014 H1008 0.930 . S
C1014 C1015 1.367 . S
C1014 C1022 1.378 . S
C1015 C1014 1.367 . S
C1015 C1023 1.433 . S
C1016 H1012 0.929 . S
C1016 C1018 1.378 . S
C1016 C1020 1.350 . S
C1017 C1020 1.463 . S
C1017 C1022 1.350 . S
C1017 N1025 1.427 . S
C1018 H1009 0.930 . S
C1018 C1016 1.378 . S
C1018 C1019 1.367 . S
C1019 C1018 1.367 . S
C1019 C1021 1.433 . S
C1020 C1016 1.350 . S
C1020 C1017 1.463 . S
C1020 N1024 1.427 . S
C1021 H1011 0.929 . S
C1021 C1019 1.433 . S
C1021 N1024 1.384 . S
C1022 H1013 0.929 . S
C1022 C1014 1.378 . S
C1022 C1017 1.350 . S
C1023 H1010 0.929 . S
C1023 C1015 1.433 . S
C1023 N1025 1.384 . S
N1024 C1020 1.427 . S
N1024 C1021 1.384 . S
N1025 C1017 1.427 . S
N1025 C1023 1.384 . S
H1026 C1032 0.930 . S
H1027 C1036 0.930 . S
H1028 C1041 0.929 . S
H1029 C1039 0.929 . S
H1030 C1034 0.929 . S
H1031 C1040 0.929 . S
C1032 H1026 0.930 . S
C1032 C1033 1.367 . S
C1032 C1040 1.378 . S
C1033 C1032 1.367 . S
C1033 C1041 1.433 . S
C1034 H1030 0.929 . S
C1034 C1036 1.378 . S
C1034 C1038 1.350 . S
C1035 C1038 1.463 . S
C1035 C1040 1.350 . S
C1035 N1043 1.427 . S
C1036 H1027 0.930 . S
C1036 C1034 1.378 . S
C1036 C1037 1.367 . S
C1037 C1036 1.367 . S
C1037 C1039 1.433 . S
C1038 C1034 1.350 . S
C1038 C1035 1.463 . S
C1038 N1042 1.427 . S
C1039 H1029 0.929 . S
C1039 C1037 1.433 . S
C1039 N1042 1.384 . S
C1040 H1031 0.929 . S
C1040 C1032 1.378 . S
C1040 C1035 1.350 . S
C1041 H1028 0.929 . S
C1041 C1033 1.433 . S
C1041 N1043 1.384 . S
N1042 C1038 1.427 . S
N1042 C1039 1.384 . S
N1043 C1035 1.427 . S
N1043 C1041 1.384 . S
H1044 C1050 0.930 . S
H1045 C1054 0.930 . S
H1046 C1059 0.929 . S
H1047 C1057 0.929 . S
H1048 C1052 0.929 . S
H1049 C1058 0.929 . S
C1050 H1044 0.930 . S
C1050 C1051 1.367 . S
C1050 C1058 1.378 . S
C1051 C1050 1.367 . S
C1051 C1059 1.433 . S
C1052 H1048 0.929 . S
C1052 C1054 1.378 . S
C1052 C1056 1.350 . S
C1053 C1056 1.463 . S
C1053 C1058 1.350 . S
C1053 N1061 1.427 . S
C1054 H1045 0.930 . S
C1054 C1052 1.378 . S
C1054 C1055 1.367 . S
C1055 C1054 1.367 . S
C1055 C1057 1.433 . S
C1056 C1052 1.350 . S
C1056 C1053 1.463 . S
C1056 N1060 1.427 . S
C1057 H1047 0.929 . S
C1057 C1055 1.433 . S
C1057 N1060 1.384 . S
C1058 H1049 0.929 . S
C1058 C1050 1.378 . S
C1058 C1053 1.350 . S
C1059 H1046 0.929 . S
C1059 C1051 1.433 . S
C1059 N1061 1.384 . S
N1060 C1056 1.427 . S
N1060 C1057 1.384 . S
N1061 C1053 1.427 . S
N1061 C1059 1.384 . S
H1062 C1068 0.930 . S
H1063 C1072 0.930 . S
H1064 C1077 0.929 . S
H1065 C1075 0.929 . S
H1066 C1070 0.929 . S
H1067 C1076 0.929 . S
C1068 H1062 0.930 . S
C1068 C1069 1.367 . S
C1068 C1076 1.378 . S
C1069 C1068 1.367 . S
C1069 C1077 1.433 . S
C1070 H1066 0.929 . S
C1070 C1072 1.378 . S
C1070 C1074 1.350 . S
C1071 C1074 1.463 . S
C1071 C1076 1.350 . S
C1071 N1079 1.427 . S
C1072 H1063 0.930 . S
C1072 C1070 1.378 . S
C1072 C1073 1.367 . S
C1073 C1072 1.367 . S
C1073 C1075 1.433 . S
C1074 C1070 1.350 . S
C1074 C1071 1.463 . S
C1074 N1078 1.427 . S
C1075 H1065 0.929 . S
C1075 C1073 1.433 . S
C1075 N1078 1.384 . S
C1076 H1067 0.929 . S
C1076 C1068 1.378 . S
C1076 C1071 1.350 . S
C1077 H1064 0.929 . S
C1077 C1069 1.433 . S
C1077 N1079 1.384 . S
N1078 C1074 1.427 . S
N1078 C1075 1.384 . S
N1079 C1071 1.427 . S
N1079 C1077 1.384 . S
H1080 C1086 0.930 . S
H1081 C1090 0.930 . S
H1082 C1095 0.929 . S
H1083 C1093 0.929 . S
H1084 C1088 0.929 . S
H1085 C1094 0.929 . S
C1086 H1080 0.930 . S
C1086 C1087 1.367 . S
C1086 C1094 1.378 . S
C1087 C1086 1.367 . S
C1087 C1095 1.433 . S
C1088 H1084 0.929 . S
C1088 C1090 1.378 . S
C1088 C1092 1.350 . S
C1089 C1092 1.463 . S
C1089 C1094 1.350 . S
C1089 N1097 1.427 . S
C1090 H1081 0.930 . S
C1090 C1088 1.378 . S
C1090 C1091 1.367 . S
C1091 C1090 1.367 . S
C1091 C1093 1.433 . S
C1092 C1088 1.350 . S
C1092 C1089 1.463 . S
C1092 N1096 1.427 . S
C1093 H1083 0.929 . S
C1093 C1091 1.433 . S
C1093 N1096 1.384 . S
C1094 H1085 0.929 . S
C1094 C1086 1.378 . S
C1094 C1089 1.350 . S
C1095 H1082 0.929 . S
C1095 C1087 1.433 . S
C1095 N1097 1.384 . S
N1096 C1092 1.427 . S
N1096 C1093 1.384 . S
N1097 C1089 1.427 . S
N1097 C1095 1.384 . S
H1098 C1104 0.930 . S
H1099 C1108 0.930 . S
H1100 C1113 0.929 . S
H1101 C1111 0.929 . S
H1102 C1106 0.929 . S
H1103 C1112 0.929 . S
C1104 H1098 0.930 . S
C1104 C1105 1.367 . S
C1104 C1112 1.378 . S
C1105 C1104 1.367 . S
C1105 C1113 1.433 . S
C1106 H1102 0.929 . S
C1106 C1108 1.378 . S
C1106 C1110 1.350 . S
C1107 C1110 1.463 . S
C1107 C1112 1.350 . S
C1107 N1115 1.427 . S
C1108 H1099 0.930 . S
C1108 C1106 1.378 . S
C1108 C1109 1.367 . S
C1109 C1108 1.367 . S
C1109 C1111 1.433 . S
C1110 C1106 1.350 . S
C1110 C1107 1.463 . S
C1110 N1114 1.427 . S
C1111 H1101 0.929 . S
C1111 C1109 1.433 . S
C1111 N1114 1.384 . S
C1112 H1103 0.929 . S
C1112 C1104 1.378 . S
C1112 C1107 1.350 . S
C1113 H1100 0.929 . S
C1113 C1105 1.433 . S
C1113 N1115 1.384 . S
N1114 C1110 1.427 . S
N1114 C1111 1.384 . S
N1115 C1107 1.427 . S
N1115 C1113 1.384 . S
H1116 C1122 0.930 . S
H1117 C1126 0.930 . S
H1118 C1131 0.929 . S
H1119 C1129 0.929 . S
H1120 C1124 0.929 . S
H1121 C1130 0.929 . S
C1122 H1116 0.930 . S
C1122 C1123 1.367 . S
C1122 C1130 1.378 . S
C1123 C1122 1.367 . S
C1123 C1131 1.433 . S
C1124 H1120 0.929 . S
C1124 C1126 1.378 . S
C1124 C1128 1.350 . S
C1125 C1128 1.463 . S
C1125 C1130 1.350 . S
C1125 N1133 1.427 . S
C1126 H1117 0.930 . S
C1126 C1124 1.378 . S
C1126 C1127 1.367 . S
C1127 C1126 1.367 . S
C1127 C1129 1.433 . S
C1128 C1124 1.350 . S
C1128 C1125 1.463 . S
C1128 N1132 1.427 . S
C1129 H1119 0.929 . S
C1129 C1127 1.433 . S
C1129 N1132 1.384 . S
C1130 H1121 0.929 . S
C1130 C1122 1.378 . S
C1130 C1125 1.350 . S
C1131 H1118 0.929 . S
C1131 C1123 1.433 . S
C1131 N1133 1.384 . S
N1132 C1128 1.427 . S
N1132 C1129 1.384 . S
N1133 C1125 1.427 . S
N1133 C1131 1.384 . S
H1134 C1140 0.930 . S
H1135 C1144 0.930 . S
H1136 C1149 0.929 . S
H1137 C1147 0.929 . S
H1138 C1142 0.929 . S
H1139 C1148 0.929 . S
C1140 H1134 0.930 . S
C1140 C1141 1.367 . S
C1140 C1148 1.378 . S
C1141 C1140 1.367 . S
C1141 C1149 1.433 . S
C1142 H1138 0.929 . S
C1142 C1144 1.378 . S
C1142 C1146 1.350 . S
C1143 C1146 1.463 . S
C1143 C1148 1.350 . S
C1143 N1151 1.427 . S
C1144 H1135 0.930 . S
C1144 C1142 1.378 . S
C1144 C1145 1.367 . S
C1145 C1144 1.367 . S
C1145 C1147 1.433 . S
C1146 C1142 1.350 . S
C1146 C1143 1.463 . S
C1146 N1150 1.427 . S
C1147 H1137 0.929 . S
C1147 C1145 1.433 . S
C1147 N1150 1.384 . S
C1148 H1139 0.929 . S
C1148 C1140 1.378 . S
C1148 C1143 1.350 . S
C1149 H1136 0.929 . S
C1149 C1141 1.433 . S
C1149 N1151 1.384 . S
N1150 C1146 1.427 . S
N1150 C1147 1.384 . S
N1151 C1143 1.427 . S
N1151 C1149 1.384 . S
H1152 C1158 0.930 . S
H1153 C1162 0.930 . S
H1154 C1167 0.929 . S
H1155 C1165 0.929 . S
H1156 C1160 0.929 . S
H1157 C1166 0.929 . S
C1158 H1152 0.930 . S
C1158 C1159 1.367 . S
C1158 C1166 1.378 . S
C1159 C1158 1.367 . S
C1159 C1167 1.433 . S
C1160 H1156 0.929 . S
C1160 C1162 1.378 . S
C1160 C1164 1.350 . S
C1161 C1164 1.463 . S
C1161 C1166 1.350 . S
C1161 N1169 1.427 . S
C1162 H1153 0.930 . S
C1162 C1160 1.378 . S
C1162 C1163 1.367 . S
C1163 C1162 1.367 . S
C1163 C1165 1.433 . S
C1164 C1160 1.350 . S
C1164 C1161 1.463 . S
C1164 N1168 1.427 . S
C1165 H1155 0.929 . S
C1165 C1163 1.433 . S
C1165 N1168 1.384 . S
C1166 H1157 0.929 . S
C1166 C1158 1.378 . S
C1166 C1161 1.350 . S
C1167 H1154 0.929 . S
C1167 C1159 1.433 . S
C1167 N1169 1.384 . S
N1168 C1164 1.427 . S
N1168 C1165 1.384 . S
N1169 C1161 1.427 . S
N1169 C1167 1.384 . S
H1170 C1176 0.930 . S
H1171 C1180 0.930 . S
H1172 C1185 0.929 . S
H1173 C1183 0.929 . S
H1174 C1178 0.929 . S
H1175 C1184 0.929 . S
C1176 H1170 0.930 . S
C1176 C1177 1.367 . S
C1176 C1184 1.378 . S
C1177 C1176 1.367 . S
C1177 C1185 1.433 . S
C1178 H1174 0.929 . S
C1178 C1180 1.378 . S
C1178 C1182 1.350 . S
C1179 C1182 1.463 . S
C1179 C1184 1.350 . S
C1179 N1187 1.427 . S
C1180 H1171 0.930 . S
C1180 C1178 1.378 . S
C1180 C1181 1.367 . S
C1181 C1180 1.367 . S
C1181 C1183 1.433 . S
C1182 C1178 1.350 . S
C1182 C1179 1.463 . S
C1182 N1186 1.427 . S
C1183 H1173 0.929 . S
C1183 C1181 1.433 . S
C1183 N1186 1.384 . S
C1184 H1175 0.929 . S
C1184 C1176 1.378 . S
C1184 C1179 1.350 . S
C1185 H1172 0.929 . S
C1185 C1177 1.433 . S
C1185 N1187 1.384 . S
N1186 C1182 1.427 . S
N1186 C1183 1.384 . S
N1187 C1179 1.427 . S
N1187 C1185 1.384 . S
H1188 C1194 0.930 . S
H1189 C1198 0.930 . S
H1190 C1203 0.929 . S
H1191 C1201 0.929 . S
H1192 C1196 0.929 . S
H1193 C1202 0.929 . S
C1194 H1188 0.930 . S
C1194 C1195 1.367 . S
C1194 C1202 1.378 . S
C1195 C1194 1.367 . S
C1195 C1203 1.433 . S
C1196 H1192 0.929 . S
C1196 C1198 1.378 . S
C1196 C1200 1.350 . S
C1197 C1200 1.463 . S
C1197 C1202 1.350 . S
C1197 N1205 1.427 . S
C1198 H1189 0.930 . S
C1198 C1196 1.378 . S
C1198 C1199 1.367 . S
C1199 C1198 1.367 . S
C1199 C1201 1.433 . S
C1200 C1196 1.350 . S
C1200 C1197 1.463 . S
C1200 N1204 1.427 . S
C1201 H1191 0.929 . S
C1201 C1199 1.433 . S
C1201 N1204 1.384 . S
C1202 H1193 0.929 . S
C1202 C1194 1.378 . S
C1202 C1197 1.350 . S
C1203 H1190 0.929 . S
C1203 C1195 1.433 . S
C1203 N1205 1.384 . S
N1204 C1200 1.427 . S
N1204 C1201 1.384 . S
N1205 C1197 1.427 . S
N1205 C1203 1.384 . S
H1206 C1212 0.930 . S
H1207 C1216 0.930 . S
H1208 C1221 0.929 . S
H1209 C1219 0.929 . S
H1210 C1214 0.929 . S
H1211 C1220 0.929 . S
C1212 H1206 0.930 . S
C1212 C1213 1.367 . S
C1212 C1220 1.378 . S
C1213 C1212 1.367 . S
C1213 C1221 1.433 . S
C1214 H1210 0.929 . S
C1214 C1216 1.378 . S
C1214 C1218 1.350 . S
C1215 C1218 1.463 . S
C1215 C1220 1.350 . S
C1215 N1223 1.427 . S
C1216 H1207 0.930 . S
C1216 C1214 1.378 . S
C1216 C1217 1.367 . S
C1217 C1216 1.367 . S
C1217 C1219 1.433 . S
C1218 C1214 1.350 . S
C1218 C1215 1.463 . S
C1218 N1222 1.427 . S
C1219 H1209 0.929 . S
C1219 C1217 1.433 . S
C1219 N1222 1.384 . S
C1220 H1211 0.929 . S
C1220 C1212 1.378 . S
C1220 C1215 1.350 . S
C1221 H1208 0.929 . S
C1221 C1213 1.433 . S
C1221 N1223 1.384 . S
N1222 C1218 1.427 . S
N1222 C1219 1.384 . S
N1223 C1215 1.427 . S
N1223 C1221 1.384 . S
H1224 C1230 0.930 . S
H1225 C1234 0.930 . S
H1226 C1239 0.929 . S
H1227 C1237 0.929 . S
H1228 C1232 0.929 . S
H1229 C1238 0.929 . S
C1230 H1224 0.930 . S
C1230 C1231 1.367 . S
C1230 C1238 1.378 . S
C1231 C1230 1.367 . S
C1231 C1239 1.433 . S
C1232 H1228 0.929 . S
C1232 C1234 1.378 . S
C1232 C1236 1.350 . S
C1233 C1236 1.463 . S
C1233 C1238 1.350 . S
C1233 N1241 1.427 . S
C1234 H1225 0.930 . S
C1234 C1232 1.378 . S
C1234 C1235 1.367 . S
C1235 C1234 1.367 . S
C1235 C1237 1.433 . S
C1236 C1232 1.350 . S
C1236 C1233 1.463 . S
C1236 N1240 1.427 . S
C1237 H1227 0.929 . S
C1237 C1235 1.433 . S
C1237 N1240 1.384 . S
C1238 H1229 0.929 . S
C1238 C1230 1.378 . S
C1238 C1233 1.350 . S
C1239 H1226 0.929 . S
C1239 C1231 1.433 . S
C1239 N1241 1.384 . S
N1240 C1236 1.427 . S
N1240 C1237 1.384 . S
N1241 C1233 1.427 . S
N1241 C1239 1.384 . S
H1242 C1248 0.930 . S
H1243 C1252 0.930 . S
H1244 C1257 0.929 . S
H1245 C1255 0.929 . S
H1246 C1250 0.929 . S
H1247 C1256 0.929 . S
C1248 H1242 0.930 . S
C1248 C1249 1.367 . S
C1248 C1256 1.378 . S
C1249 C1248 1.367 . S
C1249 C1257 1.433 . S
C1250 H1246 0.929 . S
C1250 C1252 1.378 . S
C1250 C1254 1.350 . S
C1251 C1254 1.463 . S
C1251 C1256 1.350 . S
C1251 N1259 1.427 . S
C1252 H1243 0.930 . S
C1252 C1250 1.378 . S
C1252 C1253 1.367 . S
C1253 C1252 1.367 . S
C1253 C1255 1.433 . S
C1254 C1250 1.350 . S
C1254 C1251 1.463 . S
C1254 N1258 1.427 . S
C1255 H1245 0.929 . S
C1255 C1253 1.433 . S
C1255 N1258 1.384 . S
C1256 H1247 0.929 . S
C1256 C1248 1.378 . S
C1256 C1251 1.350 . S
C1257 H1244 0.929 . S
C1257 C1249 1.433 . S
C1257 N1259 1.384 . S
N1258 C1254 1.427 . S
N1258 C1255 1.384 . S
N1259 C1251 1.427 . S
N1259 C1257 1.384 . S
H1260 C1266 0.930 . S
H1261 C1270 0.930 . S
H1262 C1275 0.929 . S
H1263 C1273 0.929 . S
H1264 C1268 0.929 . S
H1265 C1274 0.929 . S
C1266 H1260 0.930 . S
C1266 C1267 1.367 . S
C1266 C1274 1.378 . S
C1267 C1266 1.367 . S
C1267 C1275 1.433 . S
C1268 H1264 0.929 . S
C1268 C1270 1.378 . S
C1268 C1272 1.350 . S
C1269 C1272 1.463 . S
C1269 C1274 1.350 . S
C1269 N1277 1.427 . S
C1270 H1261 0.930 . S
C1270 C1268 1.378 . S
C1270 C1271 1.367 . S
C1271 C1270 1.367 . S
C1271 C1273 1.433 . S
C1272 C1268 1.350 . S
C1272 C1269 1.463 . S
C1272 N1276 1.427 . S
C1273 H1263 0.929 . S
C1273 C1271 1.433 . S
C1273 N1276 1.384 . S
C1274 H1265 0.929 . S
C1274 C1266 1.378 . S
C1274 C1269 1.350 . S
C1275 H1262 0.929 . S
C1275 C1267 1.433 . S
C1275 N1277 1.384 . S
N1276 C1272 1.427 . S
N1276 C1273 1.384 . S
N1277 C1269 1.427 . S
N1277 C1275 1.384 . S
H1278 C1284 0.930 . S
H1279 C1288 0.930 . S
H1280 C1293 0.929 . S
H1281 C1291 0.929 . S
H1282 C1286 0.929 . S
H1283 C1292 0.929 . S
C1284 H1278 0.930 . S
C1284 C1285 1.367 . S
C1284 C1292 1.378 . S
C1285 C1284 1.367 . S
C1285 C1293 1.433 . S
C1286 H1282 0.929 . S
C1286 C1288 1.378 . S
C1286 C1290 1.350 . S
C1287 C1290 1.463 . S
C1287 C1292 1.350 . S
C1287 N1295 1.427 . S
C1288 H1279 0.930 . S
C1288 C1286 1.378 . S
C1288 C1289 1.367 . S
C1289 C1288 1.367 . S
C1289 C1291 1.433 . S
C1290 C1286 1.350 . S
C1290 C1287 1.463 . S
C1290 N1294 1.427 . S
C1291 H1281 0.929 . S
C1291 C1289 1.433 . S
C1291 N1294 1.384 . S
C1292 H1283 0.929 . S
C1292 C1284 1.378 . S
C1292 C1287 1.350 . S
C1293 H1280 0.929 . S
C1293 C1285 1.433 . S
C1293 N1295 1.384 . S
N1294 C1290 1.427 . S
N1294 C1291 1.384 . S
N1295 C1287 1.427 . S
N1295 C1293 1.384 . S
H1296 C1302 0.930 . S
H1297 C1306 0.930 . S
H1298 C1311 0.929 . S
H1299 C1309 0.929 . S
H1300 C1304 0.929 . S
H1301 C1310 0.929 . S
C1302 H1296 0.930 . S
C1302 C1303 1.367 . S
C1302 C1310 1.378 . S
C1303 C1302 1.367 . S
C1303 C1311 1.433 . S
C1304 H1300 0.929 . S
C1304 C1306 1.378 . S
C1304 C1308 1.350 . S
C1305 C1308 1.463 . S
C1305 C1310 1.350 . S
C1305 N1313 1.427 . S
C1306 H1297 0.930 . S
C1306 C1304 1.378 . S
C1306 C1307 1.367 . S
C1307 C1306 1.367 . S
C1307 C1309 1.433 . S
C1308 C1304 1.350 . S
C1308 C1305 1.463 . S
C1308 N1312 1.427 . S
C1309 H1299 0.929 . S
C1309 C1307 1.433 . S
C1309 N1312 1.384 . S
C1310 H1301 0.929 . S
C1310 C1302 1.378 . S
C1310 C1305 1.350 . S
C1311 H1298 0.929 . S
C1311 C1303 1.433 . S
C1311 N1313 1.384 . S
N1312 C1308 1.427 . S
N1312 C1309 1.384 . S
N1313 C1305 1.427 . S
N1313 C1311 1.384 . S
H1314 C1320 0.930 . S
H1315 C1324 0.930 . S
H1316 C1329 0.929 . S
H1317 C1327 0.929 . S
H1318 C1322 0.929 . S
H1319 C1328 0.929 . S
C1320 H1314 0.930 . S
C1320 C1321 1.367 . S
C1320 C1328 1.378 . S
C1321 C1320 1.367 . S
C1321 C1329 1.433 . S
C1322 H1318 0.929 . S
C1322 C1324 1.378 . S
C1322 C1326 1.350 . S
C1323 C1326 1.463 . S
C1323 C1328 1.350 . S
C1323 N1331 1.427 . S
C1324 H1315 0.930 . S
C1324 C1322 1.378 . S
C1324 C1325 1.367 . S
C1325 C1324 1.367 . S
C1325 C1327 1.433 . S
C1326 C1322 1.350 . S
C1326 C1323 1.463 . S
C1326 N1330 1.427 . S
C1327 H1317 0.929 . S
C1327 C1325 1.433 . S
C1327 N1330 1.384 . S
C1328 H1319 0.929 . S
C1328 C1320 1.378 . S
C1328 C1323 1.350 . S
C1329 H1316 0.929 . S
C1329 C1321 1.433 . S
C1329 N1331 1.384 . S
N1330 C1326 1.427 . S
N1330 C1327 1.384 . S
N1331 C1323 1.427 . S
N1331 C1329 1.384 . S
H1332 C1338 0.925 1_554 S
H1333 C1342 0.930 . S
H1334 C1347 0.929 . S
H1335 C1345 0.929 . S
H1336 C1340 0.929 . S
H1337 C1346 0.929 . S
C1338 H1332 0.925 1_556 S
C1338 C1339 1.370 . S
C1338 C1346 1.380 . S
C1339 C1338 1.370 . S
C1339 C1347 1.433 . S
C1340 H1336 0.929 . S
C1340 C1342 1.378 . S
C1340 C1344 1.350 . S
C1341 C1344 1.463 . S
C1341 C1346 1.350 . S
C1341 N1349 1.427 . S
C1342 H1333 0.930 . S
C1342 C1340 1.378 . S
C1342 C1343 1.367 . S
C1343 C1342 1.367 . S
C1343 C1345 1.433 . S
C1344 C1340 1.350 . S
C1344 C1341 1.463 . S
C1344 N1348 1.427 . S
C1345 H1335 0.929 . S
C1345 C1343 1.433 . S
C1345 N1348 1.384 . S
C1346 H1337 0.929 . S
C1346 C1338 1.380 . S
C1346 C1341 1.350 . S
C1347 H1334 0.929 . S
C1347 C1339 1.433 . S
C1347 N1349 1.384 . S
N1348 C1344 1.427 . S
N1348 C1345 1.384 . S
N1349 C1341 1.427 . S
N1349 C1347 1.384 . S
H1350 C1356 0.930 . S
H1351 C1360 0.930 . S
H1352 C1365 0.929 1_554 S
H1353 C1363 0.929 . S
H1354 C1358 0.929 . S
H1355 C1364 0.929 . S
C1356 H1350 0.930 . S
C1356 C1357 1.367 . S
C1356 C1364 1.378 . S
C1357 C1356 1.367 . S
C1357 C1365 1.433 . S
C1358 H1354 0.929 . S
C1358 C1360 1.378 . S
C1358 C1362 1.350 . S
C1359 C1362 1.463 . S
C1359 C1364 1.350 . S
C1359 N1367 1.427 . S
C1360 H1351 0.930 . S
C1360 C1358 1.378 . S
C1360 C1361 1.367 . S
C1361 C1360 1.367 . S
C1361 C1363 1.433 . S
C1362 C1358 1.350 . S
C1362 C1359 1.463 . S
C1362 N1366 1.427 . S
C1363 H1353 0.929 . S
C1363 C1361 1.433 . S
C1363 N1366 1.384 . S
C1364 H1355 0.929 . S
C1364 C1356 1.378 . S
C1364 C1359 1.350 . S
C1365 H1352 0.929 1_556 S
C1365 C1357 1.433 . S
C1365 N1367 1.384 . S
N1366 C1362 1.427 . S
N1366 C1363 1.384 . S
N1367 C1359 1.427 . S
N1367 C1365 1.384 . S
H1368 C1374 0.930 . S
H1369 C1378 0.930 . S
H1370 C1383 0.929 . S
H1371 C1381 0.929 . S
H1372 C1376 0.929 . S
H1373 C1382 0.929 . S
C1374 H1368 0.930 . S
C1374 C1375 1.367 . S
C1374 C1382 1.378 . S
C1375 C1374 1.367 . S
C1375 C1383 1.433 . S
C1376 H1372 0.929 . S
C1376 C1378 1.378 . S
C1376 C1380 1.350 . S
C1377 C1380 1.463 . S
C1377 C1382 1.350 . S
C1377 N1385 1.427 . S
C1378 H1369 0.930 . S
C1378 C1376 1.378 . S
C1378 C1379 1.367 . S
C1379 C1378 1.367 . S
C1379 C1381 1.433 . S
C1380 C1376 1.350 . S
C1380 C1377 1.463 . S
C1380 N1384 1.427 . S
C1381 H1371 0.929 . S
C1381 C1379 1.433 . S
C1381 N1384 1.384 . S
C1382 H1373 0.929 . S
C1382 C1374 1.378 . S
C1382 C1377 1.350 . S
C1383 H1370 0.929 . S
C1383 C1375 1.433 . S
C1383 N1385 1.384 . S
N1384 C1380 1.427 . S
N1384 C1381 1.384 . S
N1385 C1377 1.427 . S
N1385 C1383 1.384 . S
H1386 C1392 0.930 . S
H1387 C1396 0.930 . S
H1388 C1401 0.929 . S
H1389 C1399 0.929 . S
H1390 C1394 0.929 . S
H1391 C1400 0.929 . S
C1392 H1386 0.930 . S
C1392 C1393 1.367 . S
C1392 C1400 1.378 . S
C1393 C1392 1.367 . S
C1393 C1401 1.433 . S
C1394 H1390 0.929 . S
C1394 C1396 1.378 . S
C1394 C1398 1.350 . S
C1395 C1398 1.463 . S
C1395 C1400 1.350 . S
C1395 N1403 1.427 . S
C1396 H1387 0.930 . S
C1396 C1394 1.378 . S
C1396 C1397 1.367 . S
C1397 C1396 1.367 . S
C1397 C1399 1.433 . S
C1398 C1394 1.350 . S
C1398 C1395 1.463 . S
C1398 N1402 1.427 . S
C1399 H1389 0.929 . S
C1399 C1397 1.433 . S
C1399 N1402 1.384 . S
C1400 H1391 0.929 . S
C1400 C1392 1.378 . S
C1400 C1395 1.350 . S
C1401 H1388 0.929 . S
C1401 C1393 1.433 . S
C1401 N1403 1.384 . S
N1402 C1398 1.427 . S
N1402 C1399 1.384 . S
N1403 C1395 1.427 . S
N1403 C1401 1.384 . S
H1404 C1410 0.930 . S
H1405 C1414 0.930 . S
H1406 C1419 0.929 . S
H1407 C1417 0.929 . S
H1408 C1412 0.929 . S
H1409 C1418 0.929 . S
C1410 H1404 0.930 . S
C1410 C1411 1.367 . S
C1410 C1418 1.378 . S
C1411 C1410 1.367 . S
C1411 C1419 1.433 . S
C1412 H1408 0.929 . S
C1412 C1414 1.378 . S
C1412 C1416 1.350 . S
C1413 C1416 1.463 . S
C1413 C1418 1.350 . S
C1413 N1421 1.427 . S
C1414 H1405 0.930 . S
C1414 C1412 1.378 . S
C1414 C1415 1.367 . S
C1415 C1414 1.367 . S
C1415 C1417 1.433 . S
C1416 C1412 1.350 . S
C1416 C1413 1.463 . S
C1416 N1420 1.427 . S
C1417 H1407 0.929 . S
C1417 C1415 1.433 . S
C1417 N1420 1.384 . S
C1418 H1409 0.929 . S
C1418 C1410 1.378 . S
C1418 C1413 1.350 . S
C1419 H1406 0.929 . S
C1419 C1411 1.433 . S
C1419 N1421 1.384 . S
N1420 C1416 1.427 . S
N1420 C1417 1.384 . S
N1421 C1413 1.427 . S
N1421 C1419 1.384 . S
H1422 C1428 0.942 . S
H1423 C1432 0.930 . S
H1424 C1437 0.929 . S
H1425 C1435 0.929 . S
H1426 C1430 0.929 . S
H1427 C1436 0.929 . S
C1428 H1422 0.942 . S
C1428 C1429 1.367 . S
C1428 C1436 1.378 . S
C1429 C1428 1.367 . S
C1429 C1437 1.433 . S
C1430 H1426 0.929 . S
C1430 C1432 1.378 . S
C1430 C1434 1.350 . S
C1431 C1434 1.463 . S
C1431 C1436 1.350 . S
C1431 N1439 1.427 . S
C1432 H1423 0.930 . S
C1432 C1430 1.378 . S
C1432 C1433 1.367 . S
C1433 C1432 1.367 . S
C1433 C1435 1.433 . S
C1434 C1430 1.350 . S
C1434 C1431 1.463 . S
C1434 N1438 1.427 . S
C1435 H1425 0.929 . S
C1435 C1433 1.433 . S
C1435 N1438 1.384 . S
C1436 H1427 0.929 . S
C1436 C1428 1.378 . S
C1436 C1431 1.350 . S
C1437 H1424 0.929 . S
C1437 C1429 1.433 . S
C1437 N1439 1.384 . S
N1438 C1434 1.427 . S
N1438 C1435 1.384 . S
N1439 C1431 1.427 . S
N1439 C1437 1.384 . S
H1440 C1446 0.930 . S
H1441 C1450 0.930 . S
H1442 C1455 0.929 . S
H1443 C1453 0.929 . S
H1444 C1448 0.929 . S
H1445 C1454 0.929 . S
C1446 H1440 0.930 . S
C1446 C1447 1.367 . S
C1446 C1454 1.378 . S
C1447 C1446 1.367 . S
C1447 C1455 1.433 . S
C1448 H1444 0.929 . S
C1448 C1450 1.378 . S
C1448 C1452 1.350 . S
C1449 C1452 1.463 . S
C1449 C1454 1.350 . S
C1449 N1457 1.427 . S
C1450 H1441 0.930 . S
C1450 C1448 1.378 . S
C1450 C1451 1.367 . S
C1451 C1450 1.367 . S
C1451 C1453 1.433 . S
C1452 C1448 1.350 . S
C1452 C1449 1.463 . S
C1452 N1456 1.427 . S
C1453 H1443 0.929 . S
C1453 C1451 1.433 . S
C1453 N1456 1.384 . S
C1454 H1445 0.929 . S
C1454 C1446 1.378 . S
C1454 C1449 1.350 . S
C1455 H1442 0.929 . S
C1455 C1447 1.433 . S
C1455 N1457 1.384 . S
N1456 C1452 1.427 . S
N1456 C1453 1.384 . S
N1457 C1449 1.427 . S
N1457 C1455 1.384 . S
H1458 C1464 0.930 . S
H1459 C1468 0.930 . S
H1460 C1473 0.929 . S
H1461 C1471 0.929 . S
H1462 C1466 0.929 . S
H1463 C1472 0.929 . S
C1464 H1458 0.930 . S
C1464 C1465 1.367 . S
C1464 C1472 1.378 . S
C1465 C1464 1.367 . S
C1465 C1473 1.433 . S
C1466 H1462 0.929 . S
C1466 C1468 1.378 . S
C1466 C1470 1.350 . S
C1467 C1470 1.463 . S
C1467 C1472 1.350 . S
C1467 N1475 1.427 . S
C1468 H1459 0.930 . S
C1468 C1466 1.378 . S
C1468 C1469 1.367 . S
C1469 C1468 1.367 . S
C1469 C1471 1.433 . S
C1470 C1466 1.350 . S
C1470 C1467 1.463 . S
C1470 N1474 1.427 . S
C1471 H1461 0.929 . S
C1471 C1469 1.433 . S
C1471 N1474 1.384 . S
C1472 H1463 0.929 . S
C1472 C1464 1.378 . S
C1472 C1467 1.350 . S
C1473 H1460 0.929 . S
C1473 C1465 1.433 . S
C1473 N1475 1.384 . S
N1474 C1470 1.427 . S
N1474 C1471 1.384 . S
N1475 C1467 1.427 . S
N1475 C1473 1.384 . S
H1476 C1482 0.930 . S
H1477 C1486 0.930 . S
H1478 C1491 0.929 . S
H1479 C1489 0.929 . S
H1480 C1484 0.929 . S
H1481 C1490 0.929 . S
C1482 H1476 0.930 . S
C1482 C1483 1.367 . S
C1482 C1490 1.378 . S
C1483 C1482 1.367 . S
C1483 C1491 1.433 . S
C1484 H1480 0.929 . S
C1484 C1486 1.378 . S
C1484 C1488 1.350 . S
C1485 C1488 1.463 . S
C1485 C1490 1.350 . S
C1485 N1493 1.427 . S
C1486 H1477 0.930 . S
C1486 C1484 1.378 . S
C1486 C1487 1.367 . S
C1487 C1486 1.367 . S
C1487 C1489 1.433 . S
C1488 C1484 1.350 . S
C1488 C1485 1.463 . S
C1488 N1492 1.427 . S
C1489 H1479 0.929 . S
C1489 C1487 1.433 . S
C1489 N1492 1.384 . S
C1490 H1481 0.929 . S
C1490 C1482 1.378 . S
C1490 C1485 1.350 . S
C1491 H1478 0.929 . S
C1491 C1483 1.433 . S
C1491 N1493 1.384 . S
N1492 C1488 1.427 . S
N1492 C1489 1.384 . S
N1493 C1485 1.427 . S
N1493 C1491 1.384 . S
H1494 C1500 0.930 . S
H1495 C1504 0.930 . S
H1496 C1509 0.929 . S
H1497 C1507 0.929 . S
H1498 C1502 0.929 . S
H1499 C1508 0.929 . S
C1500 H1494 0.930 . S
C1500 C1501 1.367 . S
C1500 C1508 1.378 . S
C1501 C1500 1.367 . S
C1501 C1509 1.433 . S
C1502 H1498 0.929 . S
C1502 C1504 1.378 . S
C1502 C1506 1.350 . S
C1503 C1506 1.463 . S
C1503 C1508 1.350 . S
C1503 N1511 1.427 . S
C1504 H1495 0.930 . S
C1504 C1502 1.378 . S
C1504 C1505 1.367 . S
C1505 C1504 1.367 . S
C1505 C1507 1.433 . S
C1506 C1502 1.350 . S
C1506 C1503 1.463 . S
C1506 N1510 1.427 . S
C1507 H1497 0.929 . S
C1507 C1505 1.433 . S
C1507 N1510 1.384 . S
C1508 H1499 0.929 . S
C1508 C1500 1.378 . S
C1508 C1503 1.350 . S
C1509 H1496 0.929 . S
C1509 C1501 1.433 . S
C1509 N1511 1.384 . S
N1510 C1506 1.427 . S
N1510 C1507 1.384 . S
N1511 C1503 1.427 . S
N1511 C1509 1.384 . S
H1512 C1518 0.930 . S
H1513 C1522 0.930 . S
H1514 C1527 0.929 . S
H1515 C1525 0.929 . S
H1516 C1520 0.929 . S
H1517 C1526 0.929 . S
C1518 H1512 0.930 . S
C1518 C1519 1.367 . S
C1518 C1526 1.378 . S
C1519 C1518 1.367 . S
C1519 C1527 1.433 . S
C1520 H1516 0.929 . S
C1520 C1522 1.378 . S
C1520 C1524 1.350 . S
C1521 C1524 1.463 . S
C1521 C1526 1.350 . S
C1521 N1529 1.427 . S
C1522 H1513 0.930 . S
C1522 C1520 1.378 . S
C1522 C1523 1.367 . S
C1523 C1522 1.367 . S
C1523 C1525 1.433 . S
C1524 C1520 1.350 . S
C1524 C1521 1.463 . S
C1524 N1528 1.427 . S
C1525 H1515 0.929 . S
C1525 C1523 1.433 . S
C1525 N1528 1.384 . S
C1526 H1517 0.929 . S
C1526 C1518 1.378 . S
C1526 C1521 1.350 . S
C1527 H1514 0.929 . S
C1527 C1519 1.433 . S
C1527 N1529 1.384 . S
N1528 C1524 1.427 . S
N1528 C1525 1.384 . S
N1529 C1521 1.427 . S
N1529 C1527 1.384 . S
H1530 C1536 0.930 . S
H1531 C1540 0.930 . S
H1532 C1545 0.929 . S
H1533 C1543 0.929 . S
H1534 C1538 0.929 . S
H1535 C1544 0.929 . S
C1536 H1530 0.930 . S
C1536 C1537 1.367 . S
C1536 C1544 1.378 . S
C1537 C1536 1.367 . S
C1537 C1545 1.433 . S
C1538 H1534 0.929 . S
C1538 C1540 1.378 . S
C1538 C1542 1.350 . S
C1539 C1542 1.463 . S
C1539 C1544 1.350 . S
C1539 N1547 1.427 . S
C1540 H1531 0.930 . S
C1540 C1538 1.378 . S
C1540 C1541 1.367 . S
C1541 C1540 1.367 . S
C1541 C1543 1.433 . S
C1542 C1538 1.350 . S
C1542 C1539 1.463 . S
C1542 N1546 1.427 . S
C1543 H1533 0.929 . S
C1543 C1541 1.433 . S
C1543 N1546 1.384 . S
C1544 H1535 0.929 . S
C1544 C1536 1.378 . S
C1544 C1539 1.350 . S
C1545 H1532 0.929 . S
C1545 C1537 1.433 . S
C1545 N1547 1.384 . S
N1546 C1542 1.427 . S
N1546 C1543 1.384 . S
N1547 C1539 1.427 . S
N1547 C1545 1.384 . S
H1548 C1554 0.930 . S
H1549 C1558 0.930 . S
H1550 C1563 0.929 . S
H1551 C1561 0.929 . S
H1552 C1556 0.929 . S
H1553 C1562 0.929 . S
C1554 H1548 0.930 . S
C1554 C1555 1.367 1_655 S
C1554 C1562 1.378 . S
C1555 C1554 1.367 1_455 S
C1555 C1563 1.433 . S
C1556 H1552 0.929 . S
C1556 C1558 1.378 . S
C1556 C1560 1.350 . S
C1557 C1560 1.463 . S
C1557 C1562 1.350 1_455 S
C1557 N1565 1.427 . S
C1558 H1549 0.930 . S
C1558 C1556 1.378 . S
C1558 C1559 1.367 . S
C1559 C1558 1.367 . S
C1559 C1561 1.433 1_455 S
C1560 C1556 1.350 . S
C1560 C1557 1.463 . S
C1560 N1564 1.427 1_455 S
C1561 H1551 0.929 . S
C1561 C1559 1.433 1_655 S
C1561 N1564 1.384 . S
C1562 H1553 0.929 . S
C1562 C1554 1.378 . S
C1562 C1557 1.350 1_655 S
C1563 H1550 0.929 . S
C1563 C1555 1.433 . S
C1563 N1565 1.384 . S
N1564 C1560 1.427 1_655 S
N1564 C1561 1.384 . S
N1565 C1557 1.427 . S
N1565 C1563 1.384 . S
H1566 C1572 0.930 . S
H1567 C1576 0.930 . S
H1568 C1581 0.929 . S
H1569 C1579 0.929 . S
H1570 C1574 0.929 . S
H1571 C1580 0.929 . S
C1572 H1566 0.930 . S
C1572 C1573 1.367 . S
C1572 C1580 1.378 . S
C1573 C1572 1.367 . S
C1573 C1581 1.433 . S
C1574 H1570 0.929 . S
C1574 C1576 1.378 . S
C1574 C1578 1.350 . S
C1575 C1578 1.463 . S
C1575 C1580 1.350 . S
C1575 N1583 1.427 . S
C1576 H1567 0.930 . S
C1576 C1574 1.378 . S
C1576 C1577 1.367 . S
C1577 C1576 1.367 . S
C1577 C1579 1.433 . S
C1578 C1574 1.350 . S
C1578 C1575 1.463 . S
C1578 N1582 1.427 . S
C1579 H1569 0.929 . S
C1579 C1577 1.433 . S
C1579 N1582 1.384 . S
C1580 H1571 0.929 . S
C1580 C1572 1.378 . S
C1580 C1575 1.350 . S
C1581 H1568 0.929 . S
C1581 C1573 1.433 . S
C1581 N1583 1.384 . S
N1582 C1578 1.427 . S
N1582 C1579 1.384 . S
N1583 C1575 1.427 . S
N1583 C1581 1.384 . S
H1584 C1590 0.930 . S
H1585 C1594 0.930 . S
H1586 C1599 0.929 . S
H1587 C1597 0.929 . S
H1588 C1592 0.929 . S
H1589 C1598 0.929 . S
C1590 H1584 0.930 . S
C1590 C1591 1.367 . S
C1590 C1598 1.378 . S
C1591 C1590 1.367 . S
C1591 C1599 1.433 1_565 S
C1592 H1588 0.929 . S
C1592 C1594 1.378 . S
C1592 C1596 1.350 1_545 S
C1593 C1596 1.463 . S
C1593 C1598 1.350 . S
C1593 N1601 1.427 1_565 S
C1594 H1585 0.930 . S
C1594 C1592 1.378 . S
C1594 C1595 1.367 1_545 S
C1595 C1594 1.367 1_565 S
C1595 C1597 1.433 . S
C1596 C1592 1.350 1_565 S
C1596 C1593 1.463 . S
C1596 N1600 1.427 . S
C1597 H1587 0.929 . S
C1597 C1595 1.433 . S
C1597 N1600 1.384 . S
C1598 H1589 0.929 . S
C1598 C1590 1.378 . S
C1598 C1593 1.350 . S
C1599 H1586 0.929 . S
C1599 C1591 1.433 1_545 S
C1599 N1601 1.384 . S
N1600 C1596 1.427 . S
N1600 C1597 1.384 . S
N1601 C1593 1.427 1_545 S
N1601 C1599 1.384 . S
H1602 C1608 0.930 . S
H1603 C1612 0.930 . S
H1604 C1617 0.929 . S
H1605 C1615 0.929 . S
H1606 C1610 0.929 . S
H1607 C1616 0.929 . S
C1608 H1602 0.930 . S
C1608 C1609 1.367 1_545 S
C1608 C1616 1.378 . S
C1609 C1608 1.367 1_565 S
C1609 C1617 1.433 . S
C1610 H1606 0.929 . S
C1610 C1612 1.378 . S
C1610 C1614 1.350 . S
C1611 C1614 1.463 . S
C1611 C1616 1.350 1_565 S
C1611 N1619 1.427 . S
C1612 H1603 0.930 . S
C1612 C1610 1.378 . S
C1612 C1613 1.367 . S
C1613 C1612 1.367 . S
C1613 C1615 1.433 1_565 S
C1614 C1610 1.350 . S
C1614 C1611 1.463 . S
C1614 N1618 1.427 1_565 S
C1615 H1605 0.929 . S
C1615 C1613 1.433 1_545 S
C1615 N1618 1.384 . S
C1616 H1607 0.929 . S
C1616 C1608 1.378 . S
C1616 C1611 1.350 1_545 S
C1617 H1604 0.929 . S
C1617 C1609 1.433 . S
C1617 N1619 1.384 . S
N1618 C1614 1.427 1_545 S
N1618 C1615 1.384 . S
N1619 C1611 1.427 . S
N1619 C1617 1.384 . S
H1620 C1626 0.930 . S
H1621 C1630 0.930 . S
H1622 C1635 0.929 . S
H1623 C1633 0.943 1_655 S
H1624 C1628 0.929 . S
H1625 C1634 0.929 . S
C1626 H1620 0.930 . S
C1626 C1627 1.367 . S
C1626 C1634 1.378 . S
C1627 C1626 1.367 . S
C1627 C1635 1.433 . S
C1628 H1624 0.929 . S
C1628 C1630 1.378 . S
C1628 C1632 1.350 . S
C1629 C1632 1.463 . S
C1629 C1634 1.350 . S
C1629 N1637 1.427 . S
C1630 H1621 0.930 . S
C1630 C1628 1.378 . S
C1630 C1631 1.367 . S
C1631 C1630 1.367 . S
C1631 C1633 1.433 . S
C1632 C1628 1.350 . S
C1632 C1629 1.463 . S
C1632 N1636 1.427 . S
C1633 H1623 0.943 1_455 S
C1633 C1631 1.433 . S
C1633 N1636 1.384 . S
C1634 H1625 0.929 . S
C1634 C1626 1.378 . S
C1634 C1629 1.350 . S
C1635 H1622 0.929 . S
C1635 C1627 1.433 . S
C1635 N1637 1.384 . S
N1636 C1632 1.427 . S
N1636 C1633 1.384 . S
N1637 C1629 1.427 . S
N1637 C1635 1.384 . S
H1638 C1644 0.930 . S
H1639 C1648 0.930 . S
H1640 C1653 0.929 . S
H1641 C1651 0.929 . S
H1642 C1646 0.929 . S
H1643 C1652 0.929 . S
C1644 H1638 0.930 . S
C1644 C1645 1.367 . S
C1644 C1652 1.378 . S
C1645 C1644 1.367 . S
C1645 C1653 1.433 . S
C1646 H1642 0.929 . S
C1646 C1648 1.378 . S
C1646 C1650 1.350 . S
C1647 C1650 1.463 . S
C1647 C1652 1.350 . S
C1647 N1655 1.427 . S
C1648 H1639 0.930 . S
C1648 C1646 1.378 . S
C1648 C1649 1.367 . S
C1649 C1648 1.367 . S
C1649 C1651 1.433 . S
C1650 C1646 1.350 . S
C1650 C1647 1.463 . S
C1650 N1654 1.427 . S
C1651 H1641 0.929 . S
C1651 C1649 1.433 . S
C1651 N1654 1.384 . S
C1652 H1643 0.929 . S
C1652 C1644 1.378 . S
C1652 C1647 1.350 . S
C1653 H1640 0.929 . S
C1653 C1645 1.433 . S
C1653 N1655 1.384 . S
N1654 C1650 1.427 . S
N1654 C1651 1.384 . S
N1655 C1647 1.427 . S
N1655 C1653 1.384 . S
H1656 C1662 0.930 . S
H1657 C1666 0.930 . S
H1658 C1671 0.929 . S
H1659 C1669 0.929 . S
H1660 C1664 0.929 . S
H1661 C1670 0.929 . S
C1662 H1656 0.930 . S
C1662 C1663 1.367 . S
C1662 C1670 1.378 . S
C1663 C1662 1.367 . S
C1663 C1671 1.433 . S
C1664 H1660 0.929 . S
C1664 C1666 1.378 . S
C1664 C1668 1.350 . S
C1665 C1668 1.463 . S
C1665 C1670 1.350 . S
C1665 N1673 1.427 . S
C1666 H1657 0.930 . S
C1666 C1664 1.378 . S
C1666 C1667 1.367 . S
C1667 C1666 1.367 . S
C1667 C1669 1.433 . S
C1668 C1664 1.350 . S
C1668 C1665 1.463 . S
C1668 N1672 1.427 . S
C1669 H1659 0.929 . S
C1669 C1667 1.433 . S
C1669 N1672 1.384 . S
C1670 H1661 0.929 . S
C1670 C1662 1.378 . S
C1670 C1665 1.350 . S
C1671 H1658 0.929 . S
C1671 C1663 1.433 . S
C1671 N1673 1.384 . S
N1672 C1668 1.427 . S
N1672 C1669 1.384 . S
N1673 C1665 1.427 . S
N1673 C1671 1.384 . S
H1674 C1680 0.930 . S
H1675 C1684 0.930 . S
H1676 C1689 0.929 . S
H1677 C1687 0.929 . S
H1678 C1682 0.929 . S
H1679 C1688 0.929 . S
C1680 H1674 0.930 . S
C1680 C1681 1.367 . S
C1680 C1688 1.378 . S
C1681 C1680 1.367 . S
C1681 C1689 1.433 . S
C1682 H1678 0.929 . S
C1682 C1684 1.378 . S
C1682 C1686 1.350 . S
C1683 C1686 1.463 . S
C1683 C1688 1.350 . S
C1683 N1691 1.427 . S
C1684 H1675 0.930 . S
C1684 C1682 1.378 . S
C1684 C1685 1.367 . S
C1685 C1684 1.367 . S
C1685 C1687 1.433 . S
C1686 C1682 1.350 . S
C1686 C1683 1.463 . S
C1686 N1690 1.427 . S
C1687 H1677 0.929 . S
C1687 C1685 1.433 . S
C1687 N1690 1.384 . S
C1688 H1679 0.929 . S
C1688 C1680 1.378 . S
C1688 C1683 1.350 . S
C1689 H1676 0.929 . S
C1689 C1681 1.433 . S
C1689 N1691 1.384 . S
N1690 C1686 1.427 . S
N1690 C1687 1.384 . S
N1691 C1683 1.427 . S
N1691 C1689 1.384 . S
H1692 C1698 0.930 . S
H1693 C1702 0.930 . S
H1694 C1707 0.929 . S
H1695 C1705 0.929 . S
H1696 C1700 0.929 . S
H1697 C1706 0.929 . S
C1698 H1692 0.930 . S
C1698 C1699 1.367 . S
C1698 C1706 1.378 . S
C1699 C1698 1.367 . S
C1699 C1707 1.433 . S
C1700 H1696 0.929 . S
C1700 C1702 1.378 . S
C1700 C1704 1.350 . S
C1701 C1704 1.463 . S
C1701 C1706 1.350 . S
C1701 N1709 1.427 . S
C1702 H1693 0.930 . S
C1702 C1700 1.378 . S
C1702 C1703 1.367 . S
C1703 C1702 1.367 . S
C1703 C1705 1.433 . S
C1704 C1700 1.350 . S
C1704 C1701 1.463 . S
C1704 N1708 1.427 . S
C1705 H1695 0.929 . S
C1705 C1703 1.433 . S
C1705 N1708 1.384 . S
C1706 H1697 0.929 . S
C1706 C1698 1.378 . S
C1706 C1701 1.350 . S
C1707 H1694 0.929 . S
C1707 C1699 1.433 . S
C1707 N1709 1.384 . S
N1708 C1704 1.427 . S
N1708 C1705 1.384 . S
N1709 C1701 1.427 . S
N1709 C1707 1.384 . S
H1710 C1716 0.930 . S
H1711 C1720 0.930 . S
H1712 C1725 0.921 1_565 S
H1713 C1723 0.929 . S
H1714 C1718 0.929 . S
H1715 C1724 0.929 . S
C1716 H1710 0.930 . S
C1716 C1717 1.367 . S
C1716 C1724 1.378 . S
C1717 C1716 1.367 . S
C1717 C1725 1.433 . S
C1718 H1714 0.929 . S
C1718 C1720 1.378 . S
C1718 C1722 1.350 1_565 S
C1719 C1722 1.463 . S
C1719 C1724 1.350 . S
C1719 N1727 1.427 . S
C1720 H1711 0.930 . S
C1720 C1718 1.378 . S
C1720 C1721 1.367 1_565 S
C1721 C1720 1.367 1_545 S
C1721 C1723 1.433 . S
C1722 C1718 1.350 1_545 S
C1722 C1719 1.463 . S
C1722 N1726 1.427 . S
C1723 H1713 0.929 . S
C1723 C1721 1.433 . S
C1723 N1726 1.384 . S
C1724 H1715 0.929 . S
C1724 C1716 1.378 . S
C1724 C1719 1.350 . S
C1725 H1712 0.921 1_545 S
C1725 C1717 1.433 . S
C1725 N1727 1.384 . S
N1726 C1722 1.427 . S
N1726 C1723 1.384 . S
N1727 C1719 1.427 . S
N1727 C1725 1.384 . S
H1728 C1734 0.930 . S
H1729 C1738 0.930 . S
H1730 C1743 0.929 . S
H1731 C1741 0.929 . S
H1732 C1736 0.929 . S
H1733 C1742 0.929 . S
C1734 H1728 0.930 . S
C1734 C1735 1.367 . S
C1734 C1742 1.378 . S
C1735 C1734 1.367 . S
C1735 C1743 1.433 . S
C1736 H1732 0.929 . S
C1736 C1738 1.378 . S
C1736 C1740 1.350 . S
C1737 C1740 1.463 . S
C1737 C1742 1.350 . S
C1737 N1745 1.427 . S
C1738 H1729 0.930 . S
C1738 C1736 1.378 . S
C1738 C1739 1.367 . S
C1739 C1738 1.367 . S
C1739 C1741 1.433 . S
C1740 C1736 1.350 . S
C1740 C1737 1.463 . S
C1740 N1744 1.427 . S
C1741 H1731 0.929 . S
C1741 C1739 1.433 . S
C1741 N1744 1.384 . S
C1742 H1733 0.929 . S
C1742 C1734 1.378 . S
C1742 C1737 1.350 . S
C1743 H1730 0.929 . S
C1743 C1735 1.433 . S
C1743 N1745 1.384 . S
N1744 C1740 1.427 . S
N1744 C1741 1.384 . S
N1745 C1737 1.427 . S
N1745 C1743 1.384 . S
H1746 C1752 0.930 . S
H1747 C1756 0.930 . S
H1748 C1761 0.929 . S
H1749 C1759 0.929 . S
H1750 C1754 0.929 . S
H1751 C1760 0.929 . S
C1752 H1746 0.930 . S
C1752 C1753 1.367 . S
C1752 C1760 1.378 . S
C1753 C1752 1.367 . S
C1753 C1761 1.433 . S
C1754 H1750 0.929 . S
C1754 C1756 1.378 . S
C1754 C1758 1.350 . S
C1755 C1758 1.463 . S
C1755 C1760 1.350 . S
C1755 N1763 1.427 . S
C1756 H1747 0.930 . S
C1756 C1754 1.378 . S
C1756 C1757 1.367 . S
C1757 C1756 1.367 . S
C1757 C1759 1.433 . S
C1758 C1754 1.350 . S
C1758 C1755 1.463 . S
C1758 N1762 1.427 . S
C1759 H1749 0.929 . S
C1759 C1757 1.433 . S
C1759 N1762 1.384 . S
C1760 H1751 0.929 . S
C1760 C1752 1.378 . S
C1760 C1755 1.350 . S
C1761 H1748 0.929 . S
C1761 C1753 1.433 . S
C1761 N1763 1.384 . S
N1762 C1758 1.427 . S
N1762 C1759 1.384 . S
N1763 C1755 1.427 . S
N1763 C1761 1.384 . S
H1764 C1770 0.930 . S
H1765 C1774 0.930 . S
H1766 C1779 0.929 . S
H1767 C1777 0.929 . S
H1768 C1772 0.929 . S
H1769 C1778 0.929 . S
C1770 H1764 0.930 . S
C1770 C1771 1.367 . S
C1770 C1778 1.378 . S
C1771 C1770 1.367 . S
C1771 C1779 1.433 . S
C1772 H1768 0.929 . S
C1772 C1774 1.378 . S
C1772 C1776 1.350 . S
C1773 C1776 1.463 . S
C1773 C1778 1.350 . S
C1773 N1781 1.427 . S
C1774 H1765 0.930 . S
C1774 C1772 1.378 . S
C1774 C1775 1.367 . S
C1775 C1774 1.367 . S
C1775 C1777 1.433 . S
C1776 C1772 1.350 . S
C1776 C1773 1.463 . S
C1776 N1780 1.427 . S
C1777 H1767 0.929 . S
C1777 C1775 1.433 . S
C1777 N1780 1.384 . S
C1778 H1769 0.929 . S
C1778 C1770 1.378 . S
C1778 C1773 1.350 . S
C1779 H1766 0.929 . S
C1779 C1771 1.433 . S
C1779 N1781 1.384 . S
N1780 C1776 1.427 . S
N1780 C1777 1.384 . S
N1781 C1773 1.427 . S
N1781 C1779 1.384 . S
H1782 C1788 0.930 . S
H1783 C1792 0.930 . S
H1784 C1797 0.929 . S
H1785 C1795 0.929 . S
H1786 C1790 0.929 . S
H1787 C1796 0.929 . S
C1788 H1782 0.930 . S
C1788 C1789 1.367 . S
C1788 C1796 1.378 . S
C1789 C1788 1.367 . S
C1789 C1797 1.433 . S
C1790 H1786 0.929 . S
C1790 C1792 1.378 . S
C1790 C1794 1.350 . S
C1791 C1794 1.463 . S
C1791 C1796 1.350 . S
C1791 N1799 1.427 . S
C1792 H1783 0.930 . S
C1792 C1790 1.378 . S
C1792 C1793 1.367 . S
C1793 C1792 1.367 . S
C1793 C1795 1.433 . S
C1794 C1790 1.350 . S
C1794 C1791 1.463 . S
C1794 N1798 1.427 . S
C1795 H1785 0.929 . S
C1795 C1793 1.433 . S
C1795 N1798 1.384 . S
C1796 H1787 0.929 . S
C1796 C1788 1.378 . S
C1796 C1791 1.350 . S
C1797 H1784 0.929 . S
C1797 C1789 1.433 . S
C1797 N1799 1.384 . S
N1798 C1794 1.427 . S
N1798 C1795 1.384 . S
N1799 C1791 1.427 . S
N1799 C1797 1.384 . S
H1800 C1806 0.930 . S
H1801 C1810 0.930 . S
H1802 C1815 0.929 . S
H1803 C1813 0.929 . S
H1804 C1808 0.929 . S
H1805 C1814 0.929 . S
C1806 H1800 0.930 . S
C1806 C1807 1.367 . S
C1806 C1814 1.378 . S
C1807 C1806 1.367 . S
C1807 C1815 1.433 . S
C1808 H1804 0.929 . S
C1808 C1810 1.378 . S
C1808 C1812 1.350 . S
C1809 C1812 1.463 . S
C1809 C1814 1.350 . S
C1809 N1817 1.427 . S
C1810 H1801 0.930 . S
C1810 C1808 1.378 . S
C1810 C1811 1.367 . S
C1811 C1810 1.367 . S
C1811 C1813 1.433 . S
C1812 C1808 1.350 . S
C1812 C1809 1.463 . S
C1812 N1816 1.427 . S
C1813 H1803 0.929 . S
C1813 C1811 1.433 . S
C1813 N1816 1.384 . S
C1814 H1805 0.929 . S
C1814 C1806 1.378 . S
C1814 C1809 1.350 . S
C1815 H1802 0.929 . S
C1815 C1807 1.433 . S
C1815 N1817 1.384 . S
N1816 C1812 1.427 . S
N1816 C1813 1.384 . S
N1817 C1809 1.427 . S
N1817 C1815 1.384 . S
H1818 C1824 0.930 . S
H1819 C1828 0.930 . S
H1820 C1833 0.929 . S
H1821 C1831 0.929 . S
H1822 C1826 0.929 . S
H1823 C1832 0.929 . S
C1824 H1818 0.930 . S
C1824 C1825 1.367 . S
C1824 C1832 1.378 . S
C1825 C1824 1.367 . S
C1825 C1833 1.433 . S
C1826 H1822 0.929 . S
C1826 C1828 1.378 . S
C1826 C1830 1.350 . S
C1827 C1830 1.463 . S
C1827 C1832 1.350 . S
C1827 N1835 1.427 . S
C1828 H1819 0.930 . S
C1828 C1826 1.378 . S
C1828 C1829 1.367 . S
C1829 C1828 1.367 . S
C1829 C1831 1.433 . S
C1830 C1826 1.350 . S
C1830 C1827 1.463 . S
C1830 N1834 1.427 . S
C1831 H1821 0.929 . S
C1831 C1829 1.433 . S
C1831 N1834 1.384 . S
C1832 H1823 0.929 . S
C1832 C1824 1.378 . S
C1832 C1827 1.350 . S
C1833 H1820 0.929 . S
C1833 C1825 1.433 . S
C1833 N1835 1.384 . S
N1834 C1830 1.427 . S
N1834 C1831 1.384 . S
N1835 C1827 1.427 . S
N1835 C1833 1.384 . S
H1836 C1842 0.930 . S
H1837 C1846 0.930 . S
H1838 C1851 0.929 . S
H1839 C1849 0.929 . S
H1840 C1844 0.929 . S
H1841 C1850 0.929 . S
C1842 H1836 0.930 . S
C1842 C1843 1.367 . S
C1842 C1850 1.378 . S
C1843 C1842 1.367 . S
C1843 C1851 1.433 . S
C1844 H1840 0.929 . S
C1844 C1846 1.378 . S
C1844 C1848 1.350 . S
C1845 C1848 1.463 . S
C1845 C1850 1.350 . S
C1845 N1853 1.427 . S
C1846 H1837 0.930 . S
C1846 C1844 1.378 . S
C1846 C1847 1.367 . S
C1847 C1846 1.367 . S
C1847 C1849 1.433 . S
C1848 C1844 1.350 . S
C1848 C1845 1.463 . S
C1848 N1852 1.427 . S
C1849 H1839 0.929 . S
C1849 C1847 1.433 . S
C1849 N1852 1.384 . S
C1850 H1841 0.929 . S
C1850 C1842 1.378 . S
C1850 C1845 1.350 . S
C1851 H1838 0.929 . S
C1851 C1843 1.433 . S
C1851 N1853 1.384 . S
N1852 C1848 1.427 . S
N1852 C1849 1.384 . S
N1853 C1845 1.427 . S
N1853 C1851 1.384 . S
H1854 C1860 0.930 . S
H1855 C1864 0.930 . S
H1856 C1869 0.929 . S
H1857 C1867 0.929 . S
H1858 C1862 0.929 . S
H1859 C1868 0.929 . S
C1860 H1854 0.930 . S
C1860 C1861 1.367 . S
C1860 C1868 1.378 . S
C1861 C1860 1.367 . S
C1861 C1869 1.433 . S
C1862 H1858 0.929 . S
C1862 C1864 1.378 . S
C1862 C1866 1.350 . S
C1863 C1866 1.463 . S
C1863 C1868 1.350 . S
C1863 N1871 1.427 . S
C1864 H1855 0.930 . S
C1864 C1862 1.378 . S
C1864 C1865 1.367 . S
C1865 C1864 1.367 . S
C1865 C1867 1.433 . S
C1866 C1862 1.350 . S
C1866 C1863 1.463 . S
C1866 N1870 1.427 . S
C1867 H1857 0.929 . S
C1867 C1865 1.433 . S
C1867 N1870 1.384 . S
C1868 H1859 0.929 . S
C1868 C1860 1.378 . S
C1868 C1863 1.350 . S
C1869 H1856 0.929 . S
C1869 C1861 1.433 . S
C1869 N1871 1.384 . S
N1870 C1866 1.427 . S
N1870 C1867 1.384 . S
N1871 C1863 1.427 . S
N1871 C1869 1.384 . S
H1872 C1878 0.930 . S
H1873 C1882 0.930 . S
H1874 C1887 0.929 . S
H1875 C1885 0.929 . S
H1876 C1880 0.929 . S
H1877 C1886 0.929 . S
C1878 H1872 0.930 . S
C1878 C1879 1.367 1_455 S
C1878 C1886 1.378 . S
C1879 C1878 1.367 1_655 S
C1879 C1887 1.433 . S
C1880 H1876 0.929 . S
C1880 C1882 1.378 . S
C1880 C1884 1.350 . S
C1881 C1884 1.463 . S
C1881 C1886 1.350 1_655 S
C1881 N1889 1.427 . S
C1882 H1873 0.930 . S
C1882 C1880 1.378 . S
C1882 C1883 1.367 . S
C1883 C1882 1.367 . S
C1883 C1885 1.433 1_655 S
C1884 C1880 1.350 . S
C1884 C1881 1.463 . S
C1884 N1888 1.427 1_655 S
C1885 H1875 0.929 . S
C1885 C1883 1.433 1_455 S
C1885 N1888 1.384 . S
C1886 H1877 0.929 . S
C1886 C1878 1.378 . S
C1886 C1881 1.350 1_455 S
C1887 H1874 0.929 . S
C1887 C1879 1.433 . S
C1887 N1889 1.384 . S
N1888 C1884 1.427 1_455 S
N1888 C1885 1.384 . S
N1889 C1881 1.427 . S
N1889 C1887 1.384 . S
H1890 C1896 0.930 . S
H1891 C1900 0.930 . S
H1892 C1905 0.929 . S
H1893 C1903 0.929 . S
H1894 C1898 0.929 . S
H1895 C1904 0.929 . S
C1896 H1890 0.930 . S
C1896 C1897 1.367 . S
C1896 C1904 1.378 . S
C1897 C1896 1.367 . S
C1897 C1905 1.433 . S
C1898 H1894 0.929 . S
C1898 C1900 1.378 . S
C1898 C1902 1.350 . S
C1899 C1902 1.463 . S
C1899 C1904 1.350 . S
C1899 N1907 1.427 . S
C1900 H1891 0.930 . S
C1900 C1898 1.378 . S
C1900 C1901 1.367 . S
C1901 C1900 1.367 . S
C1901 C1903 1.433 . S
C1902 C1898 1.350 . S
C1902 C1899 1.463 . S
C1902 N1906 1.427 . S
C1903 H1893 0.929 . S
C1903 C1901 1.433 . S
C1903 N1906 1.384 . S
C1904 H1895 0.929 . S
C1904 C1896 1.378 . S
C1904 C1899 1.350 . S
C1905 H1892 0.929 . S
C1905 C1897 1.433 . S
C1905 N1907 1.384 . S
N1906 C1902 1.427 . S
N1906 C1903 1.384 . S
N1907 C1899 1.427 . S
N1907 C1905 1.384 . S
H1908 C1914 0.907 1_565 S
H1909 C1918 0.930 . S
H1910 C1923 0.929 . S
H1911 C1921 0.929 . S
H1912 C1916 0.929 . S
H1913 C1922 0.929 . S
C1914 H1908 0.907 1_545 S
C1914 C1915 1.377 . S
C1914 C1922 1.392 1_545 S
C1915 C1914 1.377 . S
C1915 C1923 1.433 . S
C1916 H1912 0.929 . S
C1916 C1918 1.378 . S
C1916 C1920 1.350 . S
C1917 C1920 1.463 . S
C1917 C1922 1.350 1_545 S
C1917 N1925 1.427 . S
C1918 H1909 0.930 . S
C1918 C1916 1.378 . S
C1918 C1919 1.367 . S
C1919 C1918 1.367 . S
C1919 C1921 1.433 1_545 S
C1920 C1916 1.350 . S
C1920 C1917 1.463 . S
C1920 N1924 1.427 1_545 S
C1921 H1911 0.929 . S
C1921 C1919 1.433 1_565 S
C1921 N1924 1.384 . S
C1922 H1913 0.929 . S
C1922 C1914 1.392 1_565 S
C1922 C1917 1.350 1_565 S
C1923 H1910 0.929 . S
C1923 C1915 1.433 . S
C1923 N1925 1.384 . S
N1924 C1920 1.427 1_565 S
N1924 C1921 1.384 . S
N1925 C1917 1.427 . S
N1925 C1923 1.384 . S
C637 C13 1.495 . S
C641 C458 1.534 1_655 S
C655 C27 1.403 . S
C659 C471 1.438 . S
C677 C500 1.514 1_545 S
C673 C36 1.478 . S
C691 C41 1.466 . S
C695 C513 1.511 . S
C709 C8 1.561 . S
C713 C534 1.621 . S
C727 C22 1.473 . S
C731 C563 1.501 . S
C745 C55 1.508 . S
C749 C542 1.528 . S
C767 C555 1.428 . S
C763 C69 1.394 . S
C785 C521 1.526 . S
C781 C78 1.479 . S
C799 C83 1.452 . S
C803 C492 1.498 1_545 S
C821 C450 1.609 1_655 S
C817 C50 1.562 . S
C835 C64 1.460 . S
C839 C479 1.506 . S
C853 C97 1.531 . S
C857 C584 1.555 . S
C871 C111 1.414 . S
C875 C597 1.469 . S
C893 C626 1.527 . S
C889 C120 1.504 . S
C907 C125 1.471 . S
C911 C261 1.542 . S
C925 C92 1.629 . S
C929 C282 1.682 . S
C943 C106 1.480 . S
C947 C311 1.503 . S
C961 C139 1.500 . S
C965 C290 1.546 . S
C979 C153 1.419 . S
C983 C303 1.447 . S
C1001 C269 1.543 . S
C997 C162 1.492 . S
C1019 C618 1.515 . S
C1015 C167 1.473 . S
C1037 C576 1.623 . S
C1033 C134 1.612 . S
C1055 C605 1.531 . S
C1051 C148 1.489 . S
C1069 C181 1.504 . S
C1073 C332 1.527 . S
C1087 C195 1.401 . S
C1091 C345 1.447 . S
C1105 C204 1.506 . S
C1109 C374 1.533 . S
C1123 C209 1.490 . S
C1127 C387 1.550 . S
C1145 C408 1.683 . S
C1141 C176 1.631 . S
C1163 C437 1.513 . S
C1159 C190 1.484 . S
C1181 C416 1.583 . S
C1177 C223 1.523 . S
C1199 C429 1.446 . S
C1195 C237 1.410 . S
C1213 C246 1.500 . S
C1217 C395 1.543 . S
C1235 C366 1.507 . S
C1231 C251 1.474 . S
C1249 C218 1.597 . S
C1253 C324 1.624 . S
C1271 C353 1.520 . S
C1267 C232 1.471 . S
C1289 C264 1.297 . S
C1285 C11 1.403 . S
C1303 C25 1.277 . S
C1307 C285 1.214 . S
C1325 C313 1.261 . S
C1321 C35 1.373 . S
C1343 C334 1.257 . S
C1339 C39 1.370 . S
C1361 C348 1.363 . S
C1357 C7 1.469 . S
C1379 C376 1.247 . S
C1375 C21 1.361 . S
C1393 C53 1.425 . S
C1397 C369 1.281 . S
C1411 C67 1.292 . S
C1415 C327 1.154 . S
C1429 C77 1.373 1_556 S
C1433 C355 1.297 . S
C1447 C81 1.400 . S
C1451 C292 1.344 . S
C1469 C306 1.304 . S
C1465 C49 1.476 . S
C1483 C63 1.378 . S
C1487 C271 1.291 . S
C1505 C390 1.279 . S
C1501 C95 1.389 . S
C1519 C109 1.318 . S
C1523 C411 1.222 . S
C1537 C119 1.414 . S
C1541 C439 1.311 . S
C1559 C460 1.217 . S
C1555 C123 1.310 . S
C1573 C91 1.458 . S
C1577 C474 1.336 . S
C1591 C105 1.319 . S
C1595 C502 1.244 . S
C1609 C137 1.365 . S
C1613 C495 1.220 . S
C1627 C151 1.245 . S
C1631 C453 1.123 . S
C1649 C481 1.299 . S
C1645 C161 1.387 . S
C1663 C165 1.394 . S
C1667 C418 1.324 . S
C1681 C133 1.501 . S
C1685 C432 1.344 . S
C1703 C397 1.350 . S
C1699 C147 1.420 . S
C1721 C516 1.235 1_545 S
C1717 C179 1.368 . S
C1735 C193 1.236 . S
C1739 C537 1.129 1_655 S
C1753 C203 1.372 . S
C1757 C565 1.282 . S
C1775 C586 1.243 . S
C1771 C207 1.363 . S
C1793 C600 1.359 . S
C1789 C175 1.488 . S
C1807 C189 1.403 . S
C1811 C628 1.304 . S
C1825 C221 1.409 . S
C1829 C621 1.246 . S
C1843 C235 1.333 . S
C1847 C579 1.181 . S
C1865 C607 1.351 . S
C1861 C245 1.423 . S
C1883 C544 1.234 1_655 S
C1879 C249 1.308 . S
C1901 C558 1.330 . S
C1897 C217 1.475 . S
C1915 C231 1.344 . S
C1919 C523 1.263 1_545 S
