# Generated by pormake.
# Topology llk, (3,12)-cn, num edge types: 1
# Building blocks:
#     Node 0, Type 0, BuildingBlock: VETTIZ_charged_linker_0, # of connection points: 3
#     Node 1, Type 0, BuildingBlock: VETTIZ_charged_linker_0, # of connection points: 3
#     Node 2, Type 0, BuildingBlock: VETTIZ_charged_linker_0, # of connection points: 3
#     Node 3, Type 0, BuildingBlock: VETTIZ_charged_linker_0, # of connection points: 3
#     Node 4, Type 0, BuildingBlock: VETTIZ_charged_linker_0, # of connection points: 3
#     Node 5, Type 0, BuildingBlock: VETTIZ_charged_linker_0, # of connection points: 3
#     Node 6, Type 0, BuildingBlock: VETTIZ_charged_linker_0, # of connection points: 3
#     Node 7, Type 0, BuildingBlock: VETTIZ_charged_linker_0, # of connection points: 3
#     Node 8, Type 0, BuildingBlock: VETTIZ_charged_linker_0, # of connection points: 3
#     Node 9, Type 0, BuildingBlock: VETTIZ_charged_linker_0, # of connection points: 3
#     Node 10, Type 0, BuildingBlock: VETTIZ_charged_linker_0, # of connection points: 3
#     Node 11, Type 0, BuildingBlock: VETTIZ_charged_linker_0, # of connection points: 3
#     Node 12, Type 0, BuildingBlock: VETTIZ_charged_linker_0, # of connection points: 3
#     Node 13, Type 0, BuildingBlock: VETTIZ_charged_linker_0, # of connection points: 3
#     Node 14, Type 0, BuildingBlock: VETTIZ_charged_linker_0, # of connection points: 3
#     Node 15, Type 0, BuildingBlock: VETTIZ_charged_linker_0, # of connection points: 3
#     Node 16, Type 0, BuildingBlock: VETTIZ_charged_linker_0, # of connection points: 3
#     Node 17, Type 0, BuildingBlock: VETTIZ_charged_linker_0, # of connection points: 3
#     Node 18, Type 0, BuildingBlock: VETTIZ_charged_linker_0, # of connection points: 3
#     Node 19, Type 0, BuildingBlock: VETTIZ_charged_linker_0, # of connection points: 3
#     Node 20, Type 0, BuildingBlock: VETTIZ_charged_linker_0, # of connection points: 3
#     Node 21, Type 0, BuildingBlock: VETTIZ_charged_linker_0, # of connection points: 3
#     Node 22, Type 0, BuildingBlock: VETTIZ_charged_linker_0, # of connection points: 3
#     Node 23, Type 0, BuildingBlock: VETTIZ_charged_linker_0, # of connection points: 3
#     Node 24, Type 1, BuildingBlock: EZIPEK_clean_sbu_0, # of connection points: 12
#     Node 25, Type 1, BuildingBlock: EZIPEK_clean_sbu_0, # of connection points: 12
#     Node 26, Type 1, BuildingBlock: EZIPEK_clean_sbu_0, # of connection points: 12
#     Node 27, Type 1, BuildingBlock: EZIPEK_clean_sbu_0, # of connection points: 12
#     Node 28, Type 1, BuildingBlock: EZIPEK_clean_sbu_0, # of connection points: 12
#     Node 29, Type 1, BuildingBlock: EZIPEK_clean_sbu_0, # of connection points: 12
#     Edge 30, Type (0, 1), BuildingBlock: CIFDUS_clean_linker_0, # of connection points: 2
#     Edge 31, Type (0, 1), BuildingBlock: CIFDUS_clean_linker_0, # of connection points: 2
#     Edge 32, Type (0, 1), BuildingBlock: CIFDUS_clean_linker_0, # of connection points: 2
#     Edge 33, Type (0, 1), BuildingBlock: CIFDUS_clean_linker_0, # of connection points: 2
#     Edge 34, Type (0, 1), BuildingBlock: CIFDUS_clean_linker_0, # of connection points: 2
#     Edge 35, Type (0, 1), BuildingBlock: CIFDUS_clean_linker_0, # of connection points: 2
#     Edge 36, Type (0, 1), BuildingBlock: CIFDUS_clean_linker_0, # of connection points: 2
#     Edge 37, Type (0, 1), BuildingBlock: CIFDUS_clean_linker_0, # of connection points: 2
#     Edge 38, Type (0, 1), BuildingBlock: CIFDUS_clean_linker_0, # of connection points: 2
#     Edge 39, Type (0, 1), BuildingBlock: CIFDUS_clean_linker_0, # of connection points: 2
#     Edge 40, Type (0, 1), BuildingBlock: CIFDUS_clean_linker_0, # of connection points: 2
#     Edge 41, Type (0, 1), BuildingBlock: CIFDUS_clean_linker_0, # of connection points: 2
#     Edge 42, Type (0, 1), BuildingBlock: CIFDUS_clean_linker_0, # of connection points: 2
#     Edge 43, Type (0, 1), BuildingBlock: CIFDUS_clean_linker_0, # of connection points: 2
#     Edge 44, Type (0, 1), BuildingBlock: CIFDUS_clean_linker_0, # of connection points: 2
#     Edge 45, Type (0, 1), BuildingBlock: CIFDUS_clean_linker_0, # of connection points: 2
#     Edge 46, Type (0, 1), BuildingBlock: CIFDUS_clean_linker_0, # of connection points: 2
#     Edge 47, Type (0, 1), BuildingBlock: CIFDUS_clean_linker_0, # of connection points: 2
#     Edge 48, Type (0, 1), BuildingBlock: CIFDUS_clean_linker_0, # of connection points: 2
#     Edge 49, Type (0, 1), BuildingBlock: CIFDUS_clean_linker_0, # of connection points: 2
#     Edge 50, Type (0, 1), BuildingBlock: CIFDUS_clean_linker_0, # of connection points: 2
#     Edge 51, Type (0, 1), BuildingBlock: CIFDUS_clean_linker_0, # of connection points: 2
#     Edge 52, Type (0, 1), BuildingBlock: CIFDUS_clean_linker_0, # of connection points: 2
#     Edge 53, Type (0, 1), BuildingBlock: CIFDUS_clean_linker_0, # of connection points: 2
#     Edge 54, Type (0, 1), BuildingBlock: CIFDUS_clean_linker_0, # of connection points: 2
#     Edge 55, Type (0, 1), BuildingBlock: CIFDUS_clean_linker_0, # of connection points: 2
#     Edge 56, Type (0, 1), BuildingBlock: CIFDUS_clean_linker_0, # of connection points: 2
#     Edge 57, Type (0, 1), BuildingBlock: CIFDUS_clean_linker_0, # of connection points: 2
#     Edge 58, Type (0, 1), BuildingBlock: CIFDUS_clean_linker_0, # of connection points: 2
#     Edge 59, Type (0, 1), BuildingBlock: CIFDUS_clean_linker_0, # of connection points: 2
#     Edge 60, Type (0, 1), BuildingBlock: CIFDUS_clean_linker_0, # of connection points: 2
#     Edge 61, Type (0, 1), BuildingBlock: CIFDUS_clean_linker_0, # of connection points: 2
#     Edge 62, Type (0, 1), BuildingBlock: CIFDUS_clean_linker_0, # of connection points: 2
#     Edge 63, Type (0, 1), BuildingBlock: CIFDUS_clean_linker_0, # of connection points: 2
#     Edge 64, Type (0, 1), BuildingBlock: CIFDUS_clean_linker_0, # of connection points: 2
#     Edge 65, Type (0, 1), BuildingBlock: CIFDUS_clean_linker_0, # of connection points: 2
#     Edge 66, Type (0, 1), BuildingBlock: CIFDUS_clean_linker_0, # of connection points: 2
#     Edge 67, Type (0, 1), BuildingBlock: CIFDUS_clean_linker_0, # of connection points: 2
#     Edge 68, Type (0, 1), BuildingBlock: CIFDUS_clean_linker_0, # of connection points: 2
#     Edge 69, Type (0, 1), BuildingBlock: CIFDUS_clean_linker_0, # of connection points: 2
#     Edge 70, Type (0, 1), BuildingBlock: CIFDUS_clean_linker_0, # of connection points: 2
#     Edge 71, Type (0, 1), BuildingBlock: CIFDUS_clean_linker_0, # of connection points: 2
#     Edge 72, Type (0, 1), BuildingBlock: CIFDUS_clean_linker_0, # of connection points: 2
#     Edge 73, Type (0, 1), BuildingBlock: CIFDUS_clean_linker_0, # of connection points: 2
#     Edge 74, Type (0, 1), BuildingBlock: CIFDUS_clean_linker_0, # of connection points: 2
#     Edge 75, Type (0, 1), BuildingBlock: CIFDUS_clean_linker_0, # of connection points: 2
#     Edge 76, Type (0, 1), BuildingBlock: CIFDUS_clean_linker_0, # of connection points: 2
#     Edge 77, Type (0, 1), BuildingBlock: CIFDUS_clean_linker_0, # of connection points: 2
#     Edge 78, Type (0, 1), BuildingBlock: CIFDUS_clean_linker_0, # of connection points: 2
#     Edge 79, Type (0, 1), BuildingBlock: CIFDUS_clean_linker_0, # of connection points: 2
#     Edge 80, Type (0, 1), BuildingBlock: CIFDUS_clean_linker_0, # of connection points: 2
#     Edge 81, Type (0, 1), BuildingBlock: CIFDUS_clean_linker_0, # of connection points: 2
#     Edge 82, Type (0, 1), BuildingBlock: CIFDUS_clean_linker_0, # of connection points: 2
#     Edge 83, Type (0, 1), BuildingBlock: CIFDUS_clean_linker_0, # of connection points: 2
#     Edge 84, Type (0, 1), BuildingBlock: CIFDUS_clean_linker_0, # of connection points: 2
#     Edge 85, Type (0, 1), BuildingBlock: CIFDUS_clean_linker_0, # of connection points: 2
#     Edge 86, Type (0, 1), BuildingBlock: CIFDUS_clean_linker_0, # of connection points: 2
#     Edge 87, Type (0, 1), BuildingBlock: CIFDUS_clean_linker_0, # of connection points: 2
#     Edge 88, Type (0, 1), BuildingBlock: CIFDUS_clean_linker_0, # of connection points: 2
#     Edge 89, Type (0, 1), BuildingBlock: CIFDUS_clean_linker_0, # of connection points: 2
#     Edge 90, Type (0, 1), BuildingBlock: CIFDUS_clean_linker_0, # of connection points: 2
#     Edge 91, Type (0, 1), BuildingBlock: CIFDUS_clean_linker_0, # of connection points: 2
#     Edge 92, Type (0, 1), BuildingBlock: CIFDUS_clean_linker_0, # of connection points: 2
#     Edge 93, Type (0, 1), BuildingBlock: CIFDUS_clean_linker_0, # of connection points: 2
#     Edge 94, Type (0, 1), BuildingBlock: CIFDUS_clean_linker_0, # of connection points: 2
#     Edge 95, Type (0, 1), BuildingBlock: CIFDUS_clean_linker_0, # of connection points: 2
#     Edge 96, Type (0, 1), BuildingBlock: CIFDUS_clean_linker_0, # of connection points: 2
#     Edge 97, Type (0, 1), BuildingBlock: CIFDUS_clean_linker_0, # of connection points: 2
#     Edge 98, Type (0, 1), BuildingBlock: CIFDUS_clean_linker_0, # of connection points: 2
#     Edge 99, Type (0, 1), BuildingBlock: CIFDUS_clean_linker_0, # of connection points: 2
#     Edge 100, Type (0, 1), BuildingBlock: CIFDUS_clean_linker_0, # of connection points: 2
#     Edge 101, Type (0, 1), BuildingBlock: CIFDUS_clean_linker_0, # of connection points: 2
# Relax obj value: 0.110
# Max RMSD: 0.165
# Mean RMSD: 0.138
data_MOF--net-llk--node1-EZIPEK_clean_sbu_0--node2-VETTIZ_charged_linker_0--edge1-CIFDUS_clean_linker_0
_symmetry_space_group_name_H-M    P1
_symmetry_Int_Tables_number       1
_symmetry_cell_setting            triclinic
loop_
_symmetry_equiv_pos_as_xyz
'x, y, z'
_cell_length_a     50.218522
_cell_length_b     50.246039
_cell_length_c     50.214725
_cell_angle_alpha  89.975
_cell_angle_beta   89.936521
_cell_angle_gamma 90.007386
loop_
_atom_site_label
_atom_site_type_symbol
_atom_site_fract_x
_atom_site_fract_y
_atom_site_fract_z
_atom_type_partial_charge
C0 C 1.00882 0.30907 0.19249 0.0
C1 C 0.99493 0.33021 0.17925 0.0
C2 C 0.96805 0.33466 0.18597 0.0
C3 C 0.97162 0.30435 0.22271 0.0
C4 C 0.99615 0.29579 0.21428 0.0
C5 C 1.00449 0.2715 0.23107 0.0
H6 H 0.9743 0.19944 0.34633 0.0
C7 C 0.96429 0.29097 0.24723 0.0
C8 C 0.98201 0.26993 0.25217 0.0
H9 H 0.03702 0.17932 0.29124 0.0
H10 H 0.02409 0.21716 0.26268 0.0
H11 H 0.98238 0.2498 0.35444 0.0
H12 H 0.92902 0.21298 0.3037 0.0
H13 H 0.91272 0.2414 0.31641 0.0
H14 H 0.92783 0.21804 0.33912 0.0
H15 H 0.94838 0.25664 0.35989 0.0
H16 H 0.96918 0.27951 0.34133 0.0
C17 C 0.03176 0.27662 0.24395 0.0
C18 C 1.00469 0.24681 0.21297 0.0
C19 C 0.92785 0.349 0.31951 0.0
C20 C 0.92199 0.34303 0.34621 0.0
C21 C 0.91509 0.31674 0.35313 0.0
C22 C 0.91824 0.29614 0.33466 0.0
C23 C 0.9293 0.302 0.3097 0.0
C24 C 0.9314 0.32806 0.30148 0.0
C25 C 0.94103 0.33014 0.27322 0.0
C26 C 0.94745 0.30081 0.26743 0.0
C27 C 0.94253 0.28506 0.2898 0.0
C28 C 0.96622 0.34786 0.27199 0.0
C29 C 0.91815 0.34177 0.25622 0.0
C30 C 0.98555 0.20296 0.32824 0.0
C31 C 1.00691 0.1864 0.32149 0.0
C32 C 0.02042 0.19172 0.29717 0.0
C33 C 0.01292 0.21358 0.28059 0.0
C34 C 0.9915 0.23014 0.28818 0.0
C35 C 0.97847 0.22437 0.31185 0.0
C36 C 0.95684 0.24366 0.31829 0.0
C37 C 0.95778 0.26161 0.29403 0.0
C38 C 0.9782 0.25411 0.27597 0.0
C39 C 0.96437 0.25821 0.34471 0.0
C40 C 0.93012 0.22831 0.31966 0.0
H41 H 0.93519 0.32343 0.21057 0.0
H42 H 0.02883 0.30369 0.18654 0.0
H43 H 0.98526 0.24469 0.20258 0.0
H44 H 1.00805 0.22833 0.22433 0.0
H45 H 0.02057 0.24855 0.19763 0.0
H46 H 0.03121 0.29519 0.25598 0.0
H47 H 0.04742 0.2788 0.22845 0.0
H48 H 0.03752 0.26008 0.2573 0.0
H49 H 0.93236 0.3692 0.31352 0.0
H50 H 0.90937 0.31187 0.37336 0.0
H51 H 0.91346 0.27629 0.34083 0.0
H52 H 0.98207 0.33984 0.2852 0.0
H53 H 0.9617 0.36857 0.27819 0.0
H54 H 0.97431 0.3491 0.25151 0.0
H55 H 0.90494 0.32576 0.24858 0.0
H56 H 0.9258 0.3539 0.23944 0.0
H57 H 0.90556 0.35575 0.26791 0.0
H58 H 0.95621 0.3489 0.17489 0.0
C59 C 0.95619 0.32119 0.2071 0.0
C60 C 0.8288 1.00944 0.30723 0.0
C61 C 0.8392 0.99951 0.33182 0.0
C62 C 0.82614 0.97796 0.34395 0.0
C63 C 0.79115 0.97907 0.31095 0.0
C64 C 0.80452 0.9986 0.29697 0.0
C65 C 0.78935 1.00513 0.27122 0.0
H66 H 0.67325 0.98099 0.19915 0.0
C67 C 0.76589 0.97281 0.29748 0.0
C68 C 0.76452 0.98713 0.2733 0.0
H69 H 0.73584 0.03402 0.17388 0.0
H70 H 0.76177 0.02244 0.21403 0.0
H71 H 0.70922 0.93362 0.21961 0.0
H72 H 0.66901 1.00064 0.25156 0.0
H73 H 0.67177 0.98068 0.2799 0.0
H74 H 0.65336 0.96878 0.25139 0.0
H75 H 0.6739 0.93639 0.22434 0.0
H76 H 0.69521 0.92241 0.2497 0.0
C77 C 0.8068 0.99752 0.2472 0.0
C78 C 0.78177 0.03479 0.27115 0.0
C79 C 0.69182 0.93268 0.35256 0.0
C80 C 0.66452 0.92992 0.34695 0.0
C81 C 0.65634 0.92837 0.32019 0.0
C82 C 0.67442 0.9334 0.29962 0.0
C83 C 0.70065 0.94087 0.30592 0.0
C84 C 0.70946 0.93867 0.33178 0.0
C85 C 0.73819 0.94666 0.33456 0.0
C86 C 0.74387 0.95761 0.30669 0.0
C87 C 0.72171 0.95425 0.29029 0.0
C88 C 0.7545 0.92111 0.34082 0.0
C89 C 0.74007 0.96847 0.35634 0.0
C90 C 0.69248 0.9904 0.20194 0.0
C91 C 0.70201 1.00878 0.18337 0.0
C92 C 0.72768 0.01984 0.18793 0.0
C93 C 0.74269 0.01317 0.2112 0.0
C94 C 0.73207 0.99508 0.23 0.0
C95 C 0.70727 0.98419 0.22464 0.0
C96 C 0.6973 0.96659 0.24622 0.0
C97 C 0.72038 0.96738 0.26541 0.0
C98 C 0.74127 0.98409 0.25649 0.0
C99 C 0.69346 0.93826 0.2345 0.0
C100 C 0.67154 0.97955 0.25788 0.0
H101 H 0.79397 0.95139 0.34405 0.0
H102 H 0.83886 0.02539 0.2968 0.0
H103 H 0.77066 0.03995 0.28961 0.0
H104 H 0.7689 0.03983 0.25404 0.0
H105 H 0.79988 0.04747 0.27015 0.0
H106 H 0.81354 0.97651 0.24892 0.0
H107 H 0.82472 0.01046 0.24617 0.0
H108 H 0.79585 0.99936 0.22824 0.0
H109 H 0.69878 0.93266 0.37295 0.0
H110 H 0.63555 0.92576 0.31512 0.0
H111 H 0.66669 0.93313 0.27978 0.0
H112 H 0.7424 0.90262 0.33928 0.0
H113 H 0.76265 0.92156 0.36138 0.0
H114 H 0.77115 0.91834 0.32651 0.0
H115 H 0.72501 0.98431 0.35275 0.0
H116 H 0.75951 0.97851 0.35708 0.0
H117 H 0.73642 0.95995 0.37642 0.0
H118 H 0.83401 0.96917 0.36202 0.0
C119 C 0.8027 0.96761 0.33354 0.0
C120 C 0.0111 0.83921 0.29986 0.0
C121 C 1.00026 0.84443 0.32575 0.0
C122 C 0.98362 0.82491 0.33723 0.0
C123 C 0.99638 0.79352 0.30353 0.0
C124 C 1.00789 0.8133 0.28856 0.0
C125 C 0.01773 0.80138 0.26216 0.0
H126 H 0.04684 0.68207 0.19878 0.0
C127 C 1.00321 0.76763 0.29226 0.0
C128 C 0.01168 0.77141 0.26581 0.0
H129 H 0.99409 0.73923 0.16233 0.0
H130 H 0.99595 0.76678 0.20323 0.0
H131 H 0.08495 0.7199 0.2343 0.0
H132 H 0.01078 0.67969 0.2494 0.0
H133 H 0.03383 0.67209 0.27477 0.0
H134 H 0.04167 0.66341 0.24142 0.0
H135 H 0.08418 0.68598 0.24536 0.0
H136 H 0.08436 0.71335 0.26874 0.0
C137 C 0.04781 0.80628 0.25886 0.0
C138 C 1.00216 0.81339 0.23877 0.0
C139 C 0.03141 0.69976 0.36163 0.0
C140 C 0.04838 0.67765 0.36034 0.0
C141 C 0.06309 0.67281 0.33697 0.0
C142 C 0.0595 0.68887 0.3145 0.0
C143 C 0.04038 0.70923 0.31528 0.0
C144 C 0.02785 0.7154 0.33893 0.0
C145 C 1.00933 0.73874 0.33637 0.0
C146 C 0.01298 0.74554 0.30694 0.0
C147 C 0.0303 0.72742 0.29473 0.0
C148 C 0.01875 0.76094 0.35571 0.0
C149 C 0.98068 0.72907 0.34217 0.0
C150 C 0.0361 0.70074 0.19898 0.0
C151 C 0.02038 0.70818 0.17709 0.0
C152 C 1.00682 0.733 0.17857 0.0
C153 C 1.00815 0.74915 0.20187 0.0
C154 C 0.02353 0.7407 0.2237 0.0
C155 C 0.03642 0.71633 0.22215 0.0
C156 C 0.04546 0.7066 0.24896 0.0
C157 C 0.03412 0.72812 0.26687 0.0
C158 C 0.02367 0.7494 0.25211 0.0
C159 C 0.07631 0.70623 0.24947 0.0
C160 C 0.03242 0.67901 0.25408 0.0
H161 H 0.96929 0.78507 0.33594 0.0
H162 H 0.02273 0.85418 0.2896 0.0
H163 H 0.9808 0.80767 0.23983 0.0
H164 H 0.01052 0.80654 0.21951 0.0
H165 H 1.0035 0.83547 0.23913 0.0
H166 H 0.05896 0.79799 0.27609 0.0
H167 H 0.05212 0.82793 0.25747 0.0
H168 H 0.05529 0.79657 0.24043 0.0
H169 H 0.0198 0.70376 0.37938 0.0
H170 H 0.07643 0.6559 0.33577 0.0
H171 H 0.07065 0.68401 0.29694 0.0
H172 H 0.03239 0.77516 0.34562 0.0
H173 H 0.02971 0.75279 0.37312 0.0
H174 H 1.00184 0.77194 0.36457 0.0
H175 H 0.97682 0.70959 0.33235 0.0
H176 H 0.96547 0.74287 0.33436 0.0
H177 H 0.97744 0.72655 0.36392 0.0
H178 H 0.97326 0.82877 0.35577 0.0
C179 C 0.98151 0.7996 0.32612 0.0
C180 C 0.30787 0.02543 0.19344 0.0
C181 C 0.33058 0.0382 0.18177 0.0
C182 C 0.33825 0.06328 0.19169 0.0
C183 C 0.30739 0.05899 0.22798 0.0
C184 C 0.29606 0.03685 0.2167 0.0
C185 C 0.27081 0.02938 0.23247 0.0
H186 H 0.19936 0.05614 0.34878 0.0
C187 C 0.29441 0.0651 0.25307 0.0
C188 C 0.27139 0.04945 0.25584 0.0
H189 H 0.17543 0.99951 0.28895 0.0
H190 H 0.21467 0.01161 0.26185 0.0
H191 H 0.24827 0.04108 0.35668 0.0
H192 H 0.219 0.10341 0.3111 0.0
H193 H 0.2487 0.11505 0.32586 0.0
H194 H 0.22309 0.10062 0.34655 0.0
H195 H 0.25786 0.07348 0.36616 0.0
H196 H 0.27952 0.05277 0.34608 0.0
C197 C 0.27296 1.0005 0.24234 0.0
C198 C 0.24641 0.03372 0.21449 0.0
C199 C 0.35363 0.0882 0.32967 0.0
C200 C 0.34741 0.09106 0.35686 0.0
C201 C 0.32172 0.09986 0.36402 0.0
C202 C 0.3016 0.10132 0.34483 0.0
C203 C 0.30706 0.09263 0.31887 0.0
C204 C 0.33301 0.08878 0.31095 0.0
C205 C 0.33495 0.08199 0.28185 0.0
C206 C 0.30531 0.07891 0.27496 0.0
C207 C 0.28949 0.08326 0.29741 0.0
C208 C 0.35038 0.05557 0.27828 0.0
C209 C 0.34899 0.10536 0.2675 0.0
C210 C 0.20225 0.04611 0.32989 0.0
C211 C 0.1843 0.02661 0.32144 0.0
C212 C 0.18894 0.01464 0.29621 0.0
C213 C 0.21163 0.02164 0.2805 0.0
C214 C 0.22977 0.04091 0.29 0.0
C215 C 0.22458 0.05248 0.31452 0.0
C216 C 0.24593 0.071 0.32347 0.0
C217 C 0.26445 0.07032 0.29965 0.0
C218 C 0.25538 0.05263 0.2796 0.0
C219 C 0.25863 0.05922 0.34932 0.0
C220 C 0.23363 0.09904 0.32715 0.0
H221 H 0.33092 0.09398 0.22012 0.0
H222 H 0.30016 1.00709 0.18519 0.0
H223 H 0.24646 0.05426 0.20622 0.0
H224 H 0.22755 0.03114 0.22549 0.0
H225 H 0.24662 0.01948 0.19757 0.0
H226 H 0.29145 0.99778 0.2542 0.0
H227 H 0.27353 0.98646 0.22526 0.0
H228 H 0.25587 0.99509 0.25517 0.0
H229 H 0.37366 0.08316 0.3235 0.0
H230 H 0.31646 0.10326 0.38465 0.0
H231 H 0.28216 0.10745 0.35113 0.0
H232 H 0.34065 0.03925 0.28966 0.0
H233 H 0.37127 0.05752 0.28524 0.0
H234 H 0.35137 0.04957 0.25708 0.0
H235 H 0.36354 0.11552 0.28072 0.0
H236 H 0.33438 0.12055 0.26078 0.0
H237 H 0.36103 0.09839 0.25035 0.0
H238 H 0.3539 0.07458 0.18201 0.0
C239 C 0.32617 0.07401 0.21422 0.0
C240 C 1.00629 0.72165 0.8257 0.0
C241 C 0.99325 0.69956 0.83823 0.0
C242 C 0.96745 0.6928 0.82957 0.0
C243 C 0.97146 0.72265 0.79237 0.0
C244 C 0.99438 0.73344 0.80266 0.0
C245 C 1.00181 0.75836 0.7864 0.0
H246 H 0.98353 0.82 0.66371 0.0
C247 C 0.96552 0.73469 0.76666 0.0
C248 C 0.98199 0.75709 0.76286 0.0
H249 H 0.02612 0.8558 0.72932 0.0
H250 H 0.01642 0.81632 0.75664 0.0
H251 H 1.00107 0.76806 0.66606 0.0
H252 H 0.93329 0.80588 0.69817 0.0
H253 H 0.92178 0.77461 0.68757 0.0
H254 H 0.93804 0.79644 0.66404 0.0
H255 H 0.96986 0.76521 0.6495 0.0
H256 H 0.98129 0.74007 0.67251 0.0
C257 C 0.03084 0.75673 0.77686 0.0
C258 C 0.99682 0.78293 0.80399 0.0
C259 C 0.93216 0.671 0.69667 0.0
C260 C 0.93055 0.67372 0.66885 0.0
C261 C 0.92911 0.69943 0.6578 0.0
C262 C 0.93277 0.72185 0.67382 0.0
C263 C 0.93872 0.71847 0.70094 0.0
C264 C 0.93662 0.69362 0.71232 0.0
C265 C 0.94272 0.69402 0.74164 0.0
C266 C 0.95148 0.7231 0.74514 0.0
C267 C 0.95007 0.7367 0.72095 0.0
C268 C 0.96568 0.67424 0.74732 0.0
C269 C 0.91685 0.6868 0.75694 0.0
C270 C 0.99021 0.82059 0.68415 0.0
C271 C 1.00493 0.84218 0.694 0.0
C272 C 0.01446 0.83991 0.72067 0.0
C273 C 1.00856 0.81715 0.73677 0.0
C274 C 0.99247 0.79654 0.7265 0.0
C275 C 0.98363 0.79907 0.70052 0.0
C276 C 0.96591 0.77692 0.69204 0.0
C277 C 0.96432 0.76078 0.71736 0.0
C278 C 0.98038 0.77146 0.73791 0.0
C279 C 0.98 0.76177 0.66884 0.0
C280 C 0.93831 0.78891 0.68484 0.0
H281 H 0.93613 0.70027 0.80215 0.0
H282 H 0.02518 0.72887 0.83311 0.0
H283 H 0.97612 0.78278 0.81188 0.0
H284 H 0.99942 0.80167 0.79289 0.0
H285 H 0.01073 0.78309 0.82119 0.0
H286 H 0.03401 0.73839 0.76488 0.0
H287 H 0.04469 0.75628 0.7941 0.0
H288 H 0.03601 0.77412 0.7643 0.0
H289 H 0.93204 0.65145 0.70574 0.0
H290 H 0.92747 0.70227 0.63648 0.0
H291 H 0.93258 0.74078 0.66406 0.0
H292 H 0.98355 0.67935 0.73525 0.0
H293 H 0.95971 0.65352 0.74252 0.0
H294 H 0.9716 0.67416 0.76848 0.0
H295 H 0.90177 0.67705 0.74399 0.0
H296 H 0.90723 0.70482 0.76544 0.0
H297 H 0.92071 0.67221 0.77308 0.0
H298 H 0.95599 0.67772 0.83995 0.0
C299 C 0.95629 0.70483 0.80725 0.0
C300 C 0.30856 1.00946 0.82865 0.0
C301 C 0.32911 0.99534 0.84262 0.0
C302 C 0.33254 0.96808 0.837 0.0
C303 C 0.3022 0.97115 0.80011 0.0
C304 C 0.29477 0.99641 0.80737 0.0
C305 C 0.27088 1.00509 0.79013 0.0
H306 H 0.19662 0.97211 0.67694 0.0
C307 C 0.28827 0.96319 0.77602 0.0
C308 C 0.2681 0.98172 0.77019 0.0
H309 H 0.18008 0.03925 0.72771 0.0
H310 H 0.21724 0.02606 0.75716 0.0
H311 H 0.24807 0.97906 0.66905 0.0
H312 H 0.20804 0.92885 0.72132 0.0
H313 H 0.23591 0.9107 0.71003 0.0
H314 H 0.21354 0.92548 0.68611 0.0
H315 H 0.25166 0.94449 0.66395 0.0
H316 H 0.27659 0.96341 0.68184 0.0
C317 C 0.27735 0.03135 0.77582 0.0
C318 C 0.24619 1.0075 0.80811 0.0
C319 C 0.34328 0.91889 0.70599 0.0
C320 C 0.33705 0.91454 0.67903 0.0
C321 C 0.31044 0.90902 0.6721 0.0
C322 C 0.29008 0.91298 0.69072 0.0
C323 C 0.2965 0.92383 0.71563 0.0
C324 C 0.32261 0.92414 0.72395 0.0
C325 C 0.32536 0.93485 0.75177 0.0
C326 C 0.29674 0.94441 0.75688 0.0
C327 C 0.28064 0.9394 0.73478 0.0
C328 C 0.34553 0.95817 0.75198 0.0
C329 C 0.33443 0.9117 0.76997 0.0
C330 C 0.20071 0.98428 0.69426 0.0
C331 C 0.18539 1.00693 0.69947 0.0
C332 C 0.19151 0.02163 0.7229 0.0
C333 C 0.21299 0.014 0.74 0.0
C334 C 0.22838 0.99127 0.73385 0.0
C335 C 0.22177 0.97715 0.71107 0.0
C336 C 0.24012 0.95452 0.70565 0.0
C337 C 0.25817 0.95581 0.72977 0.0
C338 C 0.25186 0.97751 0.7467 0.0
C339 C 0.2549 0.96043 0.67888 0.0
C340 C 0.22364 0.92843 0.70556 0.0
H341 H 0.31995 0.93469 0.81403 0.0
H342 H 0.30394 0.02987 0.83371 0.0
H343 H 0.24294 0.98872 0.81938 0.0
H344 H 0.22797 0.01141 0.79648 0.0
H345 H 0.24878 0.02393 0.82269 0.0
H346 H 0.29584 0.02925 0.76381 0.0
H347 H 0.28036 0.04764 0.79046 0.0
H348 H 0.26106 0.03724 0.76221 0.0
H349 H 0.36379 0.92145 0.71207 0.0
H350 H 0.30502 0.90451 0.65173 0.0
H351 H 0.27 0.90952 0.68444 0.0
H352 H 0.33935 0.97399 0.73777 0.0
H353 H 0.36579 0.95129 0.74646 0.0
H354 H 0.34732 0.96723 0.77198 0.0
H355 H 0.34618 0.89659 0.75883 0.0
H356 H 0.31708 0.9013 0.77898 0.0
H357 H 0.34805 0.91867 0.78587 0.0
H358 H 0.34628 0.95617 0.8486 0.0
C359 C 0.31852 0.95584 0.81644 0.0
C360 C 0.01682 0.19401 0.72194 0.0
C361 C 0.02118 0.19227 0.69366 0.0
C362 C 0.02547 0.21636 0.67972 0.0
C363 C 1.00843 0.24084 0.71671 0.0
C364 C 0.01189 0.21964 0.73339 0.0
C365 C 1.00885 0.22954 0.76233 0.0
H366 H 0.97381 0.34195 0.83687 0.0
C367 C 0.99705 0.26291 0.7311 0.0
C368 C 1.00194 0.25945 0.7583 0.0
H369 H 0.04542 0.29754 0.85311 0.0
H370 H 0.03691 0.26957 0.81345 0.0
H371 H 0.9914 0.35256 0.78567 0.0
H372 H 0.93374 0.29345 0.80837 0.0
H373 H 0.92116 0.31187 0.78118 0.0
H374 H 0.9293 0.32878 0.81171 0.0
H375 H 0.95684 0.36081 0.78897 0.0
H376 H 0.97089 0.34929 0.75789 0.0
C377 C 0.03504 0.22539 0.77752 0.0
C378 C 0.98577 0.21483 0.77607 0.0
C379 C 0.92427 0.31147 0.6816 0.0
C380 C 0.91782 0.33844 0.68534 0.0
C381 C 0.91661 0.34824 0.71157 0.0
C382 C 0.92787 0.33361 0.73243 0.0
C383 C 0.94154 0.3099 0.72647 0.0
C384 C 0.93917 0.29872 0.70139 0.0
C385 C 0.95887 0.27639 0.6971 0.0
C386 C 0.97532 0.27865 0.72262 0.0
C387 C 0.96327 0.29609 0.74053 0.0
C388 C 0.97515 0.28075 0.67125 0.0
C389 C 0.94373 0.24973 0.69615 0.0
C390 C 0.9872 0.32551 0.83291 0.0
C391 C 1.01004 0.32195 0.84849 0.0
C392 C 0.02729 0.30052 0.84185 0.0
C393 C 0.02219 0.284 0.81933 0.0
C394 C 0.99933 0.28847 0.80371 0.0
C395 C 0.98286 0.30965 0.81041 0.0
C396 C 0.96452 0.31731 0.78823 0.0
C397 C 0.97256 0.29755 0.76707 0.0
C398 C 0.99183 0.27934 0.77635 0.0
C399 C 0.97094 0.34648 0.77975 0.0
C400 C 0.93556 0.31281 0.79775 0.0
H401 H 0.02307 0.25899 0.68064 0.0
H402 H 0.01619 0.17631 0.7342 0.0
H403 H 0.96703 0.21727 0.76455 0.0
H404 H 0.98247 0.2229 0.79641 0.0
H405 H 0.99021 0.19322 0.77773 0.0
H406 H 0.05064 0.2393 0.77025 0.0
H407 H 0.04235 0.20469 0.77481 0.0
H408 H 0.03205 0.22834 0.79919 0.0
H409 H 0.92304 0.30298 0.66185 0.0
H410 H 0.91053 0.36853 0.71552 0.0
H411 H 0.92803 0.34279 0.75168 0.0
H412 H 0.96285 0.28777 0.65446 0.0
H413 H 0.98305 0.26178 0.66347 0.0
H414 H 0.99144 0.29538 0.67439 0.0
H415 H 0.93189 0.24668 0.71464 0.0
H416 H 0.95776 0.23277 0.69411 0.0
H417 H 0.92991 0.24934 0.67888 0.0
H418 H 0.03234 0.21635 0.65926 0.0
C419 C 0.0194 0.24072 0.69136 0.0
C420 C 0.83755 0.01685 0.7208 0.0
C421 C 0.8419 1.00899 0.69369 0.0
C422 C 0.82057 0.99695 0.67998 0.0
C423 C 0.79033 1.00901 0.71505 0.0
C424 C 0.81114 0.01568 0.73149 0.0
C425 C 0.80006 0.02309 0.75907 0.0
H426 H 0.68416 0.05641 0.82697 0.0
C427 C 0.76523 0.01702 0.72738 0.0
C428 C 0.76961 0.02139 0.75467 0.0
H429 H 0.73572 0.99402 0.85574 0.0
H430 H 0.76324 0.99822 0.81505 0.0
H431 H 0.72649 0.09446 0.79261 0.0
H432 H 0.67757 0.0261 0.77597 0.0
H433 H 0.67294 0.04894 0.75008 0.0
H434 H 0.66425 0.05849 0.7832 0.0
H435 H 0.69131 0.09736 0.78711 0.0
H436 H 0.71483 0.09833 0.75982 0.0
C437 C 0.8085 0.05157 0.76652 0.0
C438 C 0.80976 1.00304 0.77999 0.0
C439 C 0.69805 0.05632 0.66333 0.0
C440 C 0.6754 0.07208 0.66737 0.0
C441 C 0.67138 0.08446 0.69217 0.0
C442 C 0.68859 0.07913 0.71344 0.0
C443 C 0.70907 0.06036 0.70998 0.0
C444 C 0.71451 0.05052 0.68491 0.0
C445 C 0.73675 0.03056 0.68488 0.0
C446 C 0.74392 0.0302 0.71437 0.0
C447 C 0.72698 0.04692 0.7289 0.0
C448 C 0.75936 0.04106 0.66655 0.0
C449 C 0.72537 1.00336 0.67588 0.0
C450 C 0.70178 0.04409 0.8253 0.0
C451 C 0.70752 0.02501 0.84492 0.0
C452 C 0.73086 1.00934 0.84139 0.0
C453 C 0.74708 0.012 0.81821 0.0
C454 C 0.74027 0.03079 0.79857 0.0
C455 C 0.71726 0.0457 0.80208 0.0
C456 C 0.70783 0.05802 0.77652 0.0
C457 C 0.72807 0.04698 0.75702 0.0
C458 C 0.74858 0.03318 0.77009 0.0
C459 C 0.70998 0.08866 0.77903 0.0
C460 C 0.67916 0.04763 0.77099 0.0
H461 H 0.77927 0.98801 0.6791 0.0
H462 H 0.85372 0.02476 0.73262 0.0
H463 H 0.80116 0.98301 0.77625 0.0
H464 H 0.80416 1.00962 0.80031 0.0
H465 H 0.83183 1.00138 0.7794 0.0
H466 H 0.80193 0.06594 0.75101 0.0
H467 H 0.8305 0.05295 0.76847 0.0
H468 H 0.79942 0.05753 0.78581 0.0
H469 H 0.70125 0.04626 0.64451 0.0
H470 H 0.65389 0.09661 0.69556 0.0
H471 H 0.68402 0.08809 0.73228 0.0
H472 H 0.77445 0.05242 0.67807 0.0
H473 H 0.7517 0.05461 0.65082 0.0
H474 H 0.76933 0.02486 0.65546 0.0
H475 H 0.72412 1.00223 0.65382 0.0
H476 H 0.70502 1.00016 0.68408 0.0
H477 H 0.73729 0.98641 0.68322 0.0
H478 H 0.82343 0.98874 0.66023 0.0
C479 C 0.79496 0.99682 0.69059 0.0
C480 C 0.30596 0.1964 1.00535 0.0
C481 C 0.32698 0.18309 0.99119 0.0
C482 C 0.33075 0.18939 0.96409 0.0
C483 C 0.29979 0.22561 0.96759 0.0
C484 C 0.292 0.21772 0.99254 0.0
C485 C 0.26792 0.23481 1.00123 0.0
H486 H 0.19441 0.34882 0.96864 0.0
C487 C 0.28599 0.24976 0.96 0.0
C488 C 0.26541 0.25515 0.97812 0.0
H489 H 0.17719 0.2975 0.03524 0.0
H490 H 0.21417 0.26785 0.02184 0.0
H491 H 0.24355 0.35829 0.97334 0.0
H492 H 0.20666 0.30394 0.9247 0.0
H493 H 0.23438 0.31663 0.90706 0.0
H494 H 0.21107 0.33939 0.92214 0.0
H495 H 0.25191 0.36053 0.93944 0.0
H496 H 0.27363 0.34357 0.96273 0.0
C497 C 0.27406 0.24867 0.02779 0.0
C498 C 0.24322 0.21682 1.00311 0.0
C499 C 0.34211 0.32352 0.92521 0.0
C500 C 0.33532 0.35002 0.9187 0.0
C501 C 0.30946 0.35498 0.90881 0.0
C502 C 0.28967 0.33541 0.91084 0.0
C503 C 0.29588 0.31129 0.92336 0.0
C504 C 0.32204 0.30442 0.92727 0.0
C505 C 0.32483 0.2765 0.9376 0.0
C506 C 0.29547 0.26958 0.9426 0.0
C507 C 0.27916 0.29129 0.9367 0.0
C508 C 0.34125 0.27641 0.9637 0.0
C509 C 0.33837 0.2596 0.91575 0.0
C510 C 0.19839 0.33136 0.98066 0.0
C511 C 0.18295 0.32603 1.00323 0.0
C512 C 0.18878 0.3024 0.01772 0.0
C513 C 0.21015 0.28522 1.00999 0.0
C514 C 0.22575 0.29156 0.98744 0.0
C515 C 0.21945 0.31455 0.9735 0.0
C516 C 0.23795 0.32002 0.95093 0.0
C517 C 0.256 0.29586 0.95233 0.0
C518 C 0.24928 0.27871 0.97382 0.0
C519 C 0.2526 0.34682 0.95672 0.0
C520 C 0.22173 0.32018 0.92474 0.0
H521 H 0.31859 0.21333 0.93103 0.0
H522 H 0.30118 0.19088 0.02563 0.0
H523 H 0.2401 0.20601 0.98404 0.0
H524 H 0.22499 0.2284 1.00721 0.0
H525 H 0.24572 0.20186 0.01922 0.0
H526 H 0.29255 0.26073 0.02607 0.0
H527 H 0.27693 0.23376 0.04389 0.0
H528 H 0.25767 0.26215 0.03374 0.0
H529 H 0.36191 0.31818 0.93158 0.0
H530 H 0.30397 0.3745 0.90154 0.0
H531 H 0.26991 0.34013 0.9042 0.0
H532 H 0.33197 0.28967 0.97883 0.0
H533 H 0.362 0.28315 0.96014 0.0
H534 H 0.34273 0.25616 0.97228 0.0
H535 H 0.35343 0.27139 0.90456 0.0
H536 H 0.32355 0.25207 0.90115 0.0
H537 H 0.34972 0.24275 0.92434 0.0
H538 H 0.34493 0.17834 0.95213 0.0
C539 C 0.31667 0.21004 0.95213 0.0
C540 C 0.30999 0.83143 0.01938 0.0
C541 C 0.33273 0.84299 0.03218 0.0
C542 C 0.34058 0.8326 0.05704 0.0
C543 C 0.3096 0.79642 0.05258 0.0
C544 C 0.29825 0.80797 0.03055 0.0
C545 C 0.27291 0.79239 0.023 0.0
H546 H 0.19801 0.67892 0.0529 0.0
C547 C 0.29599 0.77173 0.05902 0.0
C548 C 0.27291 0.7693 0.04342 0.0
H549 H 0.17785 0.73575 0.99185 0.0
H550 H 0.21703 0.76283 1.00419 0.0
H551 H 0.24633 0.66835 0.04046 0.0
H552 H 0.21731 0.71897 0.09862 0.0
H553 H 0.24617 0.70406 0.112 0.0
H554 H 0.22031 0.68332 0.09817 0.0
H555 H 0.25552 0.66106 0.07351 0.0
H556 H 0.27778 0.67898 0.05146 0.0
C557 C 0.27548 0.78206 0.9943 0.0
C558 C 0.24857 0.8106 0.02663 0.0
C559 C 0.35153 0.6936 0.0867 0.0
C560 C 0.3441 0.66714 0.09231 0.0
C561 C 0.31801 0.66202 0.10137 0.0
C562 C 0.29879 0.68215 0.10083 0.0
C563 C 0.30553 0.70696 0.09 0.0
C564 C 0.33182 0.71327 0.08562 0.0
C565 C 0.33517 0.74181 0.0772 0.0
C566 C 0.30589 0.75006 0.0739 0.0
C567 C 0.28903 0.72866 0.07934 0.0
C568 C 0.35049 0.74323 0.05052 0.0
C569 C 0.35016 0.75662 0.09963 0.0
C570 C 0.20173 0.69711 0.0419 0.0
C571 C 0.18487 0.70469 0.02112 0.0
C572 C 0.19053 0.72912 1.00797 0.0
C573 C 0.21321 0.74479 0.01506 0.0
C574 C 0.23041 0.736 0.03552 0.0
C575 C 0.2242 0.71227 0.0482 0.0
C576 C 0.24471 0.70373 0.06781 0.0
C577 C 0.26408 0.72678 0.0662 0.0
C578 C 0.25604 0.74624 0.04736 0.0
C579 C 0.25679 0.67677 0.05804 0.0
C580 C 0.23152 0.70223 0.09568 0.0
H581 H 0.33321 0.80401 0.08755 0.0
H582 H 0.30213 0.83997 1.00124 0.0
H583 H 0.24821 0.81903 0.0471 0.0
H584 H 0.22971 0.79969 0.02369 0.0
H585 H 0.24923 0.82739 0.01223 0.0
H586 H 0.29394 0.77005 0.99205 0.0
H587 H 0.27639 0.79891 0.97999 0.0
H588 H 0.25843 0.76926 0.98883 0.0
H589 H 0.37185 0.69838 0.08132 0.0
H590 H 0.31184 0.64208 0.10676 0.0
H591 H 0.27904 0.67738 0.10739 0.0
H592 H 0.34011 0.73147 0.03491 0.0
H593 H 0.37104 0.73538 0.05272 0.0
H594 H 0.35229 0.76404 0.04343 0.0
H595 H 0.36456 0.74335 0.10996 0.0
H596 H 0.3361 0.76433 0.1149 0.0
H597 H 0.36253 0.77307 0.09167 0.0
H598 H 0.35619 0.84216 0.06845 0.0
C599 C 0.32853 0.80996 0.06757 0.0
C600 C 0.83681 0.30643 1.00769 0.0
C601 C 0.84 0.33416 1.00171 0.0
C602 C 0.81729 0.34839 0.99325 0.0
C603 C 0.78898 0.31203 1.00595 0.0
C604 C 0.81054 0.29544 1.00863 0.0
C605 C 0.80059 0.26717 0.01478 0.0
H606 H 0.68771 0.19565 0.05198 0.0
C607 C 0.76511 0.29866 0.01578 0.0
C608 C 0.7701 0.27117 0.01684 0.0
H609 H 0.73293 0.17401 0.98222 0.0
H610 H 0.76125 0.21394 0.98826 0.0
H611 H 0.73356 0.22272 0.08966 0.0
H612 H 0.67991 0.25245 0.02977 0.0
H613 H 0.67732 0.27232 0.05848 0.0
H614 H 0.66946 0.23797 0.06082 0.0
H615 H 0.69975 0.2311 0.09751 0.0
H616 H 0.72602 0.25569 0.09871 0.0
C617 C 0.81221 0.25742 0.0414 0.0
C618 C 0.80818 0.24824 0.99202 0.0
C619 C 0.70349 0.35727 0.07001 0.0
C620 C 0.68304 0.35113 0.08801 0.0
C621 C 0.68144 0.32532 0.0988 0.0
C622 C 0.69826 0.30517 0.08939 0.0
C623 C 0.71569 0.31083 0.06822 0.0
C624 C 0.71942 0.3368 0.06013 0.0
C625 C 0.73866 0.33916 0.03732 0.0
C626 C 0.74592 0.30999 0.03315 0.0
C627 C 0.73154 0.29364 0.05058 0.0
C628 C 0.76237 0.35683 0.04627 0.0
C629 C 0.72359 0.35048 0.01294 0.0
C630 C 0.70413 0.19877 0.03834 0.0
C631 C 0.7079 0.18146 0.01674 0.0
C632 C 0.72968 0.18664 0.99938 0.0
C633 C 0.74633 0.20932 1.00302 0.0
C634 C 0.74157 0.22665 0.02452 0.0
C635 C 0.72012 0.22149 0.04119 0.0
C636 C 0.71282 0.24518 0.05791 0.0
C637 C 0.73233 0.26572 0.04738 0.0
C638 C 0.75084 0.2544 0.02971 0.0
C639 C 0.71809 0.23843 0.08754 0.0
C640 C 0.68339 0.2525 0.05165 0.0
H641 H 0.77518 0.34933 0.98943 0.0
H642 H 0.85386 0.29426 0.01268 0.0
H643 H 0.7975 0.25366 0.97341 0.0
H644 H 0.80333 0.22737 0.99732 0.0
H645 H 0.82995 0.2492 0.98809 0.0
H646 H 0.80712 0.27148 0.05773 0.0
H647 H 0.83424 0.25577 0.04016 0.0
H648 H 0.80404 0.23753 0.04661 0.0
H649 H 0.70487 0.37693 0.06121 0.0
H650 H 0.66572 0.3203 0.11272 0.0
H651 H 0.69544 0.28551 0.09721 0.0
H652 H 0.77868 0.34464 0.05491 0.0
H653 H 0.75633 0.37153 0.06167 0.0
H654 H 0.77034 0.36906 0.02977 0.0
H655 H 0.70317 0.34198 0.01162 0.0
H656 H 0.73334 0.34534 0.99391 0.0
H657 H 0.72177 0.37248 0.01429 0.0
H658 H 0.819 0.36872 0.98626 0.0
C659 C 0.79192 0.33745 0.99532 0.0
C660 C 0.83449 0.72394 1.00821 0.0
C661 C 0.83926 0.69684 0.01579 0.0
C662 C 0.8181 0.68253 0.02746 0.0
C663 C 0.78733 0.71696 0.01523 0.0
C664 C 0.80785 0.73399 1.00913 0.0
C665 C 0.79635 0.76166 1.00271 0.0
H666 H 0.67996 0.83015 0.97351 0.0
C667 C 0.76204 0.72921 1.00797 0.0
C668 C 0.76596 0.75665 1.00442 0.0
H669 H 0.7362 0.86014 0.03099 0.0
H670 H 0.76214 0.81851 0.02706 0.0
H671 H 0.7191 0.78943 0.93463 0.0
H672 H 0.67217 0.78632 1.00612 0.0
H673 H 0.66982 0.75441 0.99297 0.0
H674 H 0.65732 0.78219 0.97395 0.0
H675 H 0.68343 0.79165 0.93547 0.0
H676 H 0.70017 0.75991 0.9337 0.0
C677 C 0.80444 0.77011 0.97439 0.0
C678 C 0.80611 0.78195 0.02337 0.0
C679 C 0.69241 0.66576 0.97238 0.0
C680 C 0.66642 0.67002 0.96302 0.0
C681 C 0.65912 0.69574 0.95456 0.0
C682 C 0.67646 0.71725 0.95827 0.0
C683 C 0.70072 0.71311 0.97162 0.0
C684 C 0.70868 0.68758 0.97772 0.0
C685 C 0.73403 0.68678 0.9935 0.0
C686 C 0.73976 0.71643 0.99631 0.0
C687 C 0.72042 0.73153 0.98321 0.0
C688 C 0.75511 0.67213 0.97645 0.0
C689 C 0.72865 0.67317 0.02084 0.0
C690 C 0.69847 0.82867 0.98447 0.0
C691 C 0.70593 0.84878 1.00229 0.0
C692 C 0.7301 0.84532 0.01658 0.0
C693 C 0.74546 0.82159 0.01396 0.0
C694 C 0.73691 0.80135 0.99654 0.0
C695 C 0.71301 0.80493 0.98313 0.0
C696 C 0.70144 0.77921 0.9735 0.0
C697 C 0.72186 0.75961 0.98361 0.0
C698 C 0.74392 0.77244 0.99516 0.0
C699 C 0.70075 0.77997 0.9427 0.0
C700 C 0.67372 0.77521 0.98702 0.0
H701 H 0.77685 0.6806 0.03592 0.0
H702 H 0.85055 0.73626 1.0008 0.0
H703 H 0.79665 0.77833 0.04306 0.0
H704 H 0.80174 0.80254 0.01681 0.0
H705 H 0.82806 0.78055 0.02581 0.0
H706 H 0.79805 0.75493 0.95961 0.0
H707 H 0.82639 0.77252 0.9729 0.0
H708 H 0.79495 0.78937 0.96907 0.0
H709 H 0.69902 0.64606 0.97815 0.0
H710 H 0.63934 0.6997 0.94698 0.0
H711 H 0.66943 0.7365 0.95232 0.0
H712 H 0.75925 0.68334 0.95779 0.0
H713 H 0.74797 0.65195 0.97091 0.0
H714 H 0.77413 0.66922 0.98694 0.0
H715 H 0.70741 0.66766 0.02379 0.0
H716 H 0.73333 0.68664 0.03773 0.0
H717 H 0.74036 0.65454 0.02304 0.0
H718 H 0.82129 0.66278 0.03553 0.0
C719 C 0.79231 0.69255 0.02739 0.0
C720 C 0.49841 0.78515 0.69464 0.0
C721 C 0.48893 0.81178 0.69068 0.0
C722 C 0.47582 0.82444 0.71214 0.0
C723 C 0.49133 0.79054 0.74178 0.0
C724 C 0.49813 0.77433 0.72095 0.0
C725 C 0.50714 0.74731 0.7322 0.0
H726 H 0.54125 0.68329 0.85043 0.0
C727 C 0.5015 0.77937 0.76637 0.0
C728 C 0.50571 0.75205 0.76267 0.0
H729 H 0.47994 0.65199 0.79896 0.0
H730 H 0.48368 0.69199 0.77044 0.0
H731 H 0.57938 0.71567 0.80464 0.0
H732 H 0.51286 0.735 0.85539 0.0
H733 H 0.53552 0.76142 0.85722 0.0
H734 H 0.54573 0.72901 0.8681 0.0
H735 H 0.58302 0.72033 0.83988 0.0
H736 H 0.58465 0.74801 0.81694 0.0
C737 C 0.53585 0.74125 0.72333 0.0
C738 C 0.48806 0.72526 0.7231 0.0
C739 C 0.55187 0.84696 0.82142 0.0
C740 C 0.56762 0.84445 0.84424 0.0
C741 C 0.57657 0.8191 0.85214 0.0
C742 C 0.56795 0.79628 0.83865 0.0
C743 C 0.54936 0.79897 0.8179 0.0
C744 C 0.54227 0.82403 0.80907 0.0
C745 C 0.52226 0.82327 0.7869 0.0
C746 C 0.51737 0.79337 0.78498 0.0
C747 C 0.53377 0.77939 0.80264 0.0
C748 C 0.53596 0.83468 0.76175 0.0
C749 C 0.49681 0.83898 0.7949 0.0
C750 C 0.52905 0.68428 0.83269 0.0
C751 C 0.51045 0.66412 0.82716 0.0
C752 C 0.49489 0.66678 0.80364 0.0
C753 C 0.49727 0.68953 0.78689 0.0
C754 C 0.51577 0.70952 0.79327 0.0
C755 C 0.53069 0.7069 0.81636 0.0
C756 C 0.54385 0.73258 0.82423 0.0
C757 C 0.53289 0.75126 0.80324 0.0
C758 C 0.51849 0.73746 0.78363 0.0
C759 C 0.57436 0.7291 0.82153 0.0
C760 C 0.53428 0.74002 0.85273 0.0
H761 H 0.4676 0.82426 0.75394 0.0
H762 H 0.50701 0.77398 0.67835 0.0
H763 H 0.46794 0.72818 0.73188 0.0
H764 H 0.49571 0.70542 0.72901 0.0
H765 H 0.48615 0.72536 0.70105 0.0
H766 H 0.5495 0.75756 0.72947 0.0
H767 H 0.53697 0.7391 0.70133 0.0
H768 H 0.54297 0.72243 0.73252 0.0
H769 H 0.5446 0.8663 0.81521 0.0
H770 H 0.58857 0.81689 0.86993 0.0
H771 H 0.57457 0.7774 0.84608 0.0
H772 H 0.55333 0.82222 0.75594 0.0
H773 H 0.54318 0.85525 0.76548 0.0
H774 H 0.52246 0.83589 0.74451 0.0
H775 H 0.49931 0.85074 0.81344 0.0
H776 H 0.47974 0.82541 0.79869 0.0
H777 H 0.49102 0.85348 0.77924 0.0
H778 H 0.46624 0.84357 0.70946 0.0
C779 C 0.47694 0.81383 0.73774 0.0
C780 C 0.32165 0.50268 0.80882 0.0
C781 C 0.33601 0.51706 0.82885 0.0
C782 C 0.33086 0.54446 0.83176 0.0
C783 C 0.29337 0.5411 0.8023 0.0
C784 C 0.30035 0.5157 0.79512 0.0
C785 C 0.28272 0.50681 0.77165 0.0
H786 H 0.16681 0.53745 0.70107 0.0
C787 C 0.26875 0.54872 0.78918 0.0
C788 C 0.26248 0.52996 0.76938 0.0
H789 H 0.21984 0.47286 0.68153 0.0
H790 H 0.24945 0.48606 0.71845 0.0
H791 H 0.16141 0.52861 0.75366 0.0
H792 H 0.20974 0.58218 0.71228 0.0
H793 H 0.19832 0.59929 0.74078 0.0
H794 H 0.17456 0.58385 0.71872 0.0
H795 H 0.1542 0.56292 0.7567 0.0
H796 H 0.17385 0.54567 0.7815 0.0
C797 C 0.2689 0.48035 0.77833 0.0
C798 C 0.3003 0.50473 0.74663 0.0
C799 C 0.20106 0.59253 0.84764 0.0
C800 C 0.17362 0.5959 0.84325 0.0
C801 C 0.16461 0.59993 0.81699 0.0
C802 C 0.18184 0.59573 0.79548 0.0
C803 C 0.20758 0.58614 0.80046 0.0
C804 C 0.21766 0.58695 0.82594 0.0
C805 C 0.24586 0.57702 0.82721 0.0
C806 C 0.24948 0.56695 0.79854 0.0
C807 C 0.22634 0.57102 0.78369 0.0
C808 C 0.24779 0.55417 0.84784 0.0
C809 C 0.26403 0.60079 0.83461 0.0
C810 C 0.18469 0.52587 0.70445 0.0
C811 C 0.19052 0.50393 0.68832 0.0
C812 C 0.21459 0.48995 0.69356 0.0
C813 C 0.23182 0.49763 0.71486 0.0
C814 C 0.22518 0.51972 0.73092 0.0
C815 C 0.20174 0.53315 0.72525 0.0
C816 C 0.19609 0.55523 0.74421 0.0
C817 C 0.22087 0.55457 0.76137 0.0
C818 C 0.23828 0.53355 0.75415 0.0
C819 C 0.17017 0.54798 0.75984 0.0
C820 C 0.19438 0.5816 0.72827 0.0
H821 H 0.30781 0.57782 0.81909 0.0
H822 H 0.32639 0.48211 0.80458 0.0
H823 H 0.31137 0.52363 0.74333 0.0
H824 H 0.28846 0.5009 0.72856 0.0
H825 H 0.31507 0.48841 0.74887 0.0
H826 H 0.25722 0.48224 0.79706 0.0
H827 H 0.28381 0.46424 0.78102 0.0
H828 H 0.25507 0.47433 0.76227 0.0
H829 H 0.20873 0.59115 0.86773 0.0
H830 H 0.14378 0.60358 0.81283 0.0
H831 H 0.17395 0.59813 0.77583 0.0
H832 H 0.23371 0.53785 0.84278 0.0
H833 H 0.24315 0.56136 0.86822 0.0
H834 H 0.26806 0.54565 0.84884 0.0
H835 H 0.25314 0.61621 0.84619 0.0
H836 H 0.27216 0.61063 0.81651 0.0
H837 H 0.28059 0.59459 0.84781 0.0
H838 H 0.34277 0.55647 0.84515 0.0
C839 C 0.31016 0.55663 0.81791 0.0
C840 C 0.50712 0.30676 0.81673 0.0
C841 C 0.52221 0.32153 0.83599 0.0
C842 C 0.54995 0.31712 0.83723 0.0
C843 C 0.54625 0.28069 0.80658 0.0
C844 C 0.5202 0.28674 0.80125 0.0
C845 C 0.51093 0.26995 0.77724 0.0
H846 H 0.54496 0.16076 0.69767 0.0
C847 C 0.55432 0.2574 0.79164 0.0
C848 C 0.53506 0.25132 0.77238 0.0
H849 H 0.47554 0.20977 0.68579 0.0
H850 H 0.48921 0.23821 0.72351 0.0
H851 H 0.58757 0.20685 0.70951 0.0
H852 H 0.54237 0.14982 0.7477 0.0
H853 H 0.55546 0.16361 0.7772 0.0
H854 H 0.57698 0.14795 0.75284 0.0
H855 H 0.59167 0.17141 0.71248 0.0
H856 H 0.60705 0.1939 0.73582 0.0
C857 C 0.50627 0.28873 0.7535 0.0
C858 C 0.48577 0.25418 0.78462 0.0
C859 C 0.59828 0.18595 0.84418 0.0
C860 C 0.60487 0.1596 0.83698 0.0
C861 C 0.61203 0.15462 0.81022 0.0
C862 C 0.60716 0.17383 0.79056 0.0
C863 C 0.59464 0.19766 0.79786 0.0
C864 C 0.59324 0.20468 0.82427 0.0
C865 C 0.58188 0.23208 0.82805 0.0
C866 C 0.57346 0.23845 0.79938 0.0
C867 C 0.57897 0.21707 0.7825 0.0
C868 C 0.60418 0.25022 0.83901 0.0
C869 C 0.55773 0.23096 0.84724 0.0
C870 C 0.53244 0.17752 0.70294 0.0
C871 C 0.50903 0.18258 0.68874 0.0
C872 C 0.49378 0.2052 0.69631 0.0
C873 C 0.5017 0.22171 0.71808 0.0
C874 C 0.52523 0.21578 0.73225 0.0
C875 C 0.53987 0.19375 0.72433 0.0
C876 C 0.56356 0.18867 0.74148 0.0
C877 C 0.56209 0.21218 0.76034 0.0
C878 C 0.53949 0.22843 0.75541 0.0
C879 C 0.5889 0.1901 0.72396 0.0
C880 C 0.55958 0.16126 0.7556 0.0
H881 H 0.58336 0.29549 0.82208 0.0
H882 H 0.48616 0.31082 0.81381 0.0
H883 H 0.48951 0.24157 0.80242 0.0
H884 H 0.47955 0.24098 0.7681 0.0
H885 H 0.46903 0.26789 0.78921 0.0
H886 H 0.52431 0.301 0.74967 0.0
H887 H 0.48936 0.30239 0.75765 0.0
H888 H 0.50185 0.2777 0.73504 0.0
H889 H 0.59398 0.19132 0.86452 0.0
H890 H 0.61927 0.13526 0.80415 0.0
H891 H 0.61181 0.16904 0.77027 0.0
H892 H 0.61781 0.23908 0.85244 0.0
H893 H 0.59605 0.26647 0.85151 0.0
H894 H 0.61639 0.25871 0.8226 0.0
H895 H 0.54236 0.21694 0.83969 0.0
H896 H 0.54836 0.25074 0.84973 0.0
H897 H 0.56381 0.22453 0.86748 0.0
H898 H 0.56241 0.32869 0.85049 0.0
C899 C 0.56201 0.2973 0.82209 0.0
C900 C 0.79253 0.50251 0.6987 0.0
C901 C 0.81348 0.51607 0.68486 0.0
C902 C 0.81877 0.54277 0.69159 0.0
C903 C 0.79022 0.53916 0.72975 0.0
C904 C 0.78049 0.51516 0.72117 0.0
C905 C 0.75655 0.50735 0.7387 0.0
H906 H 0.69272 0.53469 0.8593 0.0
C907 C 0.779 0.54568 0.75558 0.0
C908 C 0.75751 0.52857 0.76102 0.0
H909 H 0.66332 0.48017 0.79982 0.0
H910 H 0.70178 0.49068 0.77124 0.0
H911 H 0.74548 0.51651 0.86059 0.0
H912 H 0.71091 0.58207 0.82129 0.0
H913 H 0.74158 0.59295 0.83465 0.0
H914 H 0.71709 0.57809 0.85632 0.0
H915 H 0.75096 0.54903 0.8733 0.0
H916 H 0.77452 0.53345 0.85097 0.0
C917 C 0.76025 0.47908 0.74977 0.0
C918 C 0.73117 0.50994 0.72174 0.0
C919 C 0.84586 0.57834 0.82226 0.0
C920 C 0.84401 0.58082 0.84999 0.0
C921 C 0.81878 0.58391 0.86186 0.0
C922 C 0.79563 0.58108 0.84664 0.0
C923 C 0.79788 0.57416 0.81966 0.0
C924 C 0.82251 0.57477 0.80745 0.0
C925 C 0.82096 0.56774 0.77843 0.0
C926 C 0.79139 0.56031 0.77613 0.0
C927 C 0.77854 0.56283 0.80068 0.0
C928 C 0.83943 0.54368 0.77281 0.0
C929 C 0.82904 0.59261 0.76205 0.0
C930 C 0.69422 0.52478 0.84021 0.0
C931 C 0.67471 0.50648 0.83221 0.0
C932 C 0.6778 0.49457 0.8067 0.0
C933 C 0.69998 0.50075 0.79002 0.0
C934 C 0.71918 0.51934 0.79862 0.0
C935 C 0.71585 0.53072 0.82356 0.0
C936 C 0.7381 0.54901 0.83092 0.0
C937 C 0.75447 0.54877 0.80556 0.0
C938 C 0.74387 0.53115 0.78627 0.0
C939 C 0.75307 0.5366 0.85514 0.0
C940 C 0.72643 0.57705 0.83628 0.0
H941 H 0.80971 0.57533 0.71734 0.0
H942 H 0.78645 0.48273 0.69275 0.0
H943 H 0.73003 0.53004 0.71253 0.0
H944 H 0.71293 0.50723 0.73363 0.0
H945 H 0.73117 0.49493 0.70548 0.0
H946 H 0.77928 0.47763 0.76098 0.0
H947 H 0.7607 0.46428 0.73334 0.0
H948 H 0.74382 0.4737 0.76348 0.0
H949 H 0.86513 0.57647 0.81277 0.0
H950 H 0.81701 0.58654 0.8832 0.0
H951 H 0.77691 0.58285 0.85672 0.0
H952 H 0.83384 0.52643 0.78553 0.0
H953 H 0.86057 0.54874 0.77674 0.0
H954 H 0.83854 0.53724 0.7518 0.0
H955 H 0.84201 0.60635 0.77358 0.0
H956 H 0.81127 0.60417 0.75573 0.0
H957 H 0.84108 0.58717 0.74434 0.0
H958 H 0.83294 0.55436 0.68014 0.0
C959 C 0.80657 0.55456 0.71351 0.0
C960 C 0.50785 0.20408 0.33597 0.0
C961 C 0.5219 0.18316 0.34944 0.0
C962 C 0.54888 0.179 0.3429 0.0
C963 C 0.54517 0.209 0.3059 0.0
C964 C 0.52053 0.21738 0.31414 0.0
C965 C 0.51208 0.24149 0.29707 0.0
H966 H 0.5432 0.31309 0.18153 0.0
C967 C 0.5525 0.22221 0.2813 0.0
C968 C 0.53467 0.24309 0.27606 0.0
H969 H 0.47966 0.33329 0.23566 0.0
H970 H 0.49237 0.29565 0.26463 0.0
H971 H 0.58802 0.29972 0.2245 0.0
H972 H 0.53485 0.26256 0.17372 0.0
H973 H 0.54815 0.23298 0.18699 0.0
H974 H 0.5689 0.25587 0.1684 0.0
H975 H 0.58946 0.29444 0.18912 0.0
H976 H 0.60437 0.2712 0.21208 0.0
C977 C 0.51155 0.26634 0.31493 0.0
C978 C 0.48494 0.23607 0.28406 0.0
C979 C 0.58935 0.16367 0.20967 0.0
C980 C 0.59523 0.16944 0.18292 0.0
C981 C 0.60209 0.19568 0.17579 0.0
C982 C 0.59889 0.21642 0.19409 0.0
C983 C 0.58779 0.21076 0.21907 0.0
C984 C 0.58572 0.18476 0.22751 0.0
C985 C 0.57599 0.1829 0.25575 0.0
C986 C 0.56947 0.21226 0.26126 0.0
C987 C 0.57443 0.22783 0.23878 0.0
C988 C 0.59885 0.17148 0.27293 0.0
C989 C 0.55085 0.16511 0.25705 0.0
C990 C 0.53171 0.30966 0.19948 0.0
C991 C 0.5102 0.3262 0.20581 0.0
C992 C 0.4964 0.32094 0.23001 0.0
C993 C 0.50376 0.2992 0.24684 0.0
C994 C 0.52533 0.28266 0.23964 0.0
C995 C 0.53862 0.28834 0.21608 0.0
C996 C 0.56026 0.26899 0.20992 0.0
C997 C 0.55913 0.25119 0.23428 0.0
C998 C 0.53856 0.25876 0.25214 0.0
C999 C 0.58702 0.2843 0.20864 0.0
C1000 C 0.55288 0.25428 0.18354 0.0
H1001 H 0.58174 0.1904 0.31837 0.0
H1002 H 0.48775 0.20927 0.34174 0.0
H1003 H 0.48571 0.21744 0.27214 0.0
H1004 H 0.47914 0.25251 0.27058 0.0
H1005 H 0.4692 0.23384 0.29947 0.0
H1006 H 0.53096 0.26882 0.32528 0.0
H1007 H 0.4957 0.26452 0.33029 0.0
H1008 H 0.50791 0.28465 0.30336 0.0
H1009 H 0.58487 0.14352 0.21582 0.0
H1010 H 0.60781 0.20038 0.15552 0.0
H1011 H 0.60366 0.23622 0.18776 0.0
H1012 H 0.61205 0.18759 0.28039 0.0
H1013 H 0.61144 0.15736 0.26143 0.0
H1014 H 0.59117 0.15957 0.28986 0.0
H1015 H 0.53503 0.17297 0.24372 0.0
H1016 H 0.5427 0.16403 0.27752 0.0
H1017 H 0.55546 0.14436 0.25105 0.0
H1018 H 0.56083 0.16498 0.35414 0.0
C1019 C 0.5607 0.19245 0.32174 0.0
C1020 C 0.79537 0.50002 0.33552 0.0
C1021 C 0.81748 0.51307 0.34803 0.0
C1022 C 0.8243 0.53883 0.33935 0.0
C1023 C 0.79458 0.53474 0.30216 0.0
C1024 C 0.78363 0.51194 0.31245 0.0
C1025 C 0.75875 0.50464 0.296 0.0
H1026 H 0.69205 0.5314 0.17661 0.0
C1027 C 0.78266 0.54083 0.27654 0.0
C1028 C 0.76002 0.5248 0.27268 0.0
H1029 H 0.66247 0.47912 0.23803 0.0
H1030 H 0.70206 0.48901 0.2654 0.0
H1031 H 0.71239 0.57864 0.21358 0.0
H1032 H 0.74343 0.51206 0.17339 0.0
H1033 H 0.77346 0.52778 0.18183 0.0
H1034 H 0.74977 0.54432 0.16039 0.0
H1035 H 0.71763 0.57453 0.17841 0.0
H1036 H 0.743 0.5887 0.19949 0.0
C1037 C 0.734 0.50917 0.3135 0.0
C1038 C 0.76072 0.47579 0.28609 0.0
C1039 C 0.8473 0.56982 0.20567 0.0
C1040 C 0.84401 0.57353 0.17818 0.0
C1041 C 0.81824 0.5777 0.16795 0.0
C1042 C 0.79591 0.57506 0.18441 0.0
C1043 C 0.79944 0.56746 0.21107 0.0
C1044 C 0.82471 0.56683 0.22177 0.0
C1045 C 0.82443 0.56031 0.25096 0.0
C1046 C 0.79469 0.55445 0.25508 0.0
C1047 C 0.78069 0.55727 0.23126 0.0
C1048 C 0.83472 0.58499 0.26632 0.0
C1049 C 0.84188 0.53543 0.25603 0.0
C1050 C 0.69373 0.52182 0.19586 0.0
C1051 C 0.67392 0.50428 0.20472 0.0
C1052 C 0.67725 0.49286 0.23045 0.0
C1053 C 0.7001 0.49866 0.2464 0.0
C1054 C 0.71972 0.51638 0.23681 0.0
C1055 C 0.71599 0.52736 0.21174 0.0
C1056 C 0.73846 0.54484 0.20325 0.0
C1057 C 0.75582 0.54427 0.22788 0.0
C1058 C 0.74532 0.52746 0.248 0.0
C1059 C 0.72741 0.5732 0.1982 0.0
C1060 C 0.75202 0.53182 0.17849 0.0
H1061 H 0.81638 0.57033 0.31206 0.0
H1062 H 0.7881 0.48116 0.34298 0.0
H1063 H 0.77929 0.47293 0.27435 0.0
H1064 H 0.74362 0.47068 0.27316 0.0
H1065 H 0.76098 0.46169 0.30314 0.0
H1066 H 0.73393 0.52975 0.32164 0.0
H1067 H 0.73382 0.49502 0.33052 0.0
H1068 H 0.71536 0.50657 0.30221 0.0
H1069 H 0.86696 0.56719 0.21407 0.0
H1070 H 0.81533 0.5815 0.14691 0.0
H1071 H 0.77674 0.57785 0.17553 0.0
H1072 H 0.84792 0.5977 0.25387 0.0
H1073 H 0.84727 0.57921 0.28354 0.0
H1074 H 0.81797 0.59773 0.27317 0.0
H1075 H 0.83468 0.51827 0.24405 0.0
H1076 H 0.84175 0.52949 0.27724 0.0
H1077 H 0.863 0.5393 0.25073 0.0
H1078 H 0.8393 0.5503 0.34978 0.0
C1079 C 0.81228 0.54998 0.31703 0.0
C1080 C 0.5106 0.68218 0.22211 0.0
C1081 C 0.52253 0.67115 0.19864 0.0
C1082 C 0.54609 0.68293 0.18897 0.0
C1083 C 0.54161 0.71913 0.21998 0.0
C1084 C 0.52108 0.70638 0.23286 0.0
C1085 C 0.51427 0.72162 0.25859 0.0
H1086 H 0.5417 0.83685 0.33136 0.0
C1087 C 0.54745 0.7443 0.23307 0.0
C1088 C 0.53313 0.74593 0.25711 0.0
H1089 H 0.48588 0.77627 0.35556 0.0
H1090 H 0.49722 0.75003 0.31553 0.0
H1091 H 0.58841 0.79963 0.309 0.0
H1092 H 0.52451 0.84565 0.28312 0.0
H1093 H 0.53635 0.83705 0.25139 0.0
H1094 H 0.55682 0.85621 0.27402 0.0
H1095 H 0.5857 0.83517 0.306 0.0
H1096 H 0.59901 0.81513 0.27929 0.0
C1097 C 0.52068 0.70383 0.28267 0.0
C1098 C 0.48486 0.73011 0.25797 0.0
C1099 C 0.57156 0.82253 0.17525 0.0
C1100 C 0.57668 0.84932 0.18175 0.0
C1101 C 0.58451 0.85562 0.20795 0.0
C1102 C 0.58398 0.83619 0.22788 0.0
C1103 C 0.57446 0.81069 0.22176 0.0
C1104 C 0.57058 0.8035 0.19562 0.0
C1105 C 0.5638 0.77445 0.19295 0.0
C1106 C 0.56074 0.76671 0.22241 0.0
C1107 C 0.56535 0.78865 0.23879 0.0
C1108 C 0.58723 0.76058 0.17846 0.0
C1109 C 0.53736 0.77129 0.17755 0.0
C1110 C 0.53165 0.81799 0.32838 0.0
C1111 C 0.51258 0.80912 0.34665 0.0
C1112 C 0.50066 0.7839 0.34182 0.0
C1113 C 0.50719 0.7687 0.31865 0.0
C1114 C 0.52586 0.77874 0.30011 0.0
C1115 C 0.53741 0.80322 0.30551 0.0
C1116 C 0.55503 0.81294 0.28373 0.0
C1117 C 0.55355 0.78985 0.26444 0.0
C1118 C 0.5366 0.76925 0.27368 0.0
C1119 C 0.58358 0.81611 0.295 0.0
C1120 C 0.5428 0.83922 0.2724 0.0
H1121 H 0.57522 0.71322 0.19396 0.0
H1122 H 0.49359 0.67265 0.23129 0.0
H1123 H 0.48061 0.74176 0.23962 0.0
H1124 H 0.47973 0.74272 0.27526 0.0
H1125 H 0.47162 0.71239 0.25817 0.0
H1126 H 0.54158 0.69662 0.28157 0.0
H1127 H 0.50729 0.68622 0.28312 0.0
H1128 H 0.51844 0.71466 0.30166 0.0
H1129 H 0.56709 0.81682 0.15495 0.0
H1130 H 0.58931 0.87587 0.21353 0.0
H1131 H 0.58983 0.84197 0.24754 0.0
H1132 H 0.59803 0.77442 0.16495 0.0
H1133 H 0.58019 0.74439 0.16522 0.0
H1134 H 0.602 0.75267 0.1929 0.0
H1135 H 0.53928 0.7789 0.15687 0.0
H1136 H 0.52105 0.78234 0.18765 0.0
H1137 H 0.53143 0.7501 0.17611 0.0
H1138 H 0.55696 0.67389 0.17265 0.0
C1139 C 0.55603 0.70627 0.2001 0.0
C1140 C 0.32148 0.49899 0.22672 0.0
C1141 C 0.33627 0.51381 0.20729 0.0
C1142 C 0.33193 0.54147 0.20553 0.0
C1143 C 0.29416 0.53771 0.23456 0.0
C1144 C 0.30053 0.512 0.24095 0.0
C1145 C 0.28176 0.50235 0.26325 0.0
H1146 H 0.15866 0.52057 0.32094 0.0
C1147 C 0.26874 0.54477 0.24629 0.0
C1148 C 0.2622 0.52613 0.26614 0.0
H1149 H 0.22478 0.48651 0.36429 0.0
H1150 H 0.25449 0.49811 0.32715 0.0
H1151 H 0.18468 0.569 0.31596 0.0
H1152 H 0.17824 0.50899 0.25497 0.0
H1153 H 0.16482 0.54002 0.24486 0.0
H1154 H 0.15119 0.52386 0.27314 0.0
H1155 H 0.1579 0.56963 0.29246 0.0
H1156 H 0.18939 0.58593 0.28583 0.0
C1157 C 0.29819 0.49734 0.28861 0.0
C1158 C 0.26702 0.47704 0.25442 0.0
C1159 C 0.20404 0.58156 0.17923 0.0
C1160 C 0.17647 0.58569 0.18103 0.0
C1161 C 0.16483 0.58955 0.20625 0.0
C1162 C 0.17952 0.58468 0.22934 0.0
C1163 C 0.20573 0.57536 0.22695 0.0
C1164 C 0.2184 0.57651 0.2026 0.0
C1165 C 0.24709 0.56828 0.20448 0.0
C1166 C 0.24867 0.56017 0.23398 0.0
C1167 C 0.22364 0.56213 0.24602 0.0
C1168 C 0.26464 0.59252 0.19707 0.0
C1169 C 0.25198 0.54438 0.1856 0.0
C1170 C 0.17931 0.51499 0.32307 0.0
C1171 C 0.18862 0.50233 0.34625 0.0
C1172 C 0.21621 0.49557 0.34674 0.0
C1173 C 0.23353 0.50181 0.32504 0.0
C1174 C 0.22344 0.51486 0.30238 0.0
C1175 C 0.19691 0.52226 0.30262 0.0
C1176 C 0.19034 0.54189 0.28122 0.0
C1177 C 0.21741 0.54584 0.26831 0.0
C1178 C 0.23666 0.52842 0.2792 0.0
C1179 C 0.17987 0.56792 0.29436 0.0
C1180 C 0.17009 0.52817 0.26245 0.0
H1181 H 0.309 0.57483 0.219 0.0
H1182 H 0.32546 0.47807 0.22991 0.0
H1183 H 0.256 0.48065 0.23557 0.0
H1184 H 0.25247 0.47078 0.26989 0.0
H1185 H 0.28129 0.46046 0.25114 0.0
H1186 H 0.30385 0.51641 0.29826 0.0
H1187 H 0.31673 0.48625 0.28379 0.0
H1188 H 0.28717 0.48483 0.30298 0.0
H1189 H 0.21353 0.57943 0.15998 0.0
H1190 H 0.14372 0.59368 0.20802 0.0
H1191 H 0.16924 0.58619 0.24795 0.0
H1192 H 0.25432 0.60623 0.18309 0.0
H1193 H 0.28294 0.58639 0.18635 0.0
H1194 H 0.27005 0.60424 0.21503 0.0
H1195 H 0.23873 0.52744 0.19089 0.0
H1196 H 0.27279 0.53728 0.18638 0.0
H1197 H 0.24823 0.54993 0.16454 0.0
H1198 H 0.34412 0.55367 0.19254 0.0
C1199 C 0.31135 0.55356 0.2197 0.0
C1200 C 0.79331 0.67544 0.52155 0.0
C1201 C 0.81981 0.6705 0.531 0.0
C1202 C 0.83241 0.69082 0.54574 0.0
C1203 C 0.79813 0.72186 0.53353 0.0
C1204 C 0.78238 0.70163 0.52405 0.0
C1205 C 0.75536 0.71326 0.51552 0.0
H1206 H 0.69003 0.83149 0.48538 0.0
C1207 C 0.78637 0.7475 0.52649 0.0
C1208 C 0.75943 0.74348 0.51991 0.0
H1209 H 0.65614 0.77573 0.54131 0.0
H1210 H 0.69718 0.74845 0.53868 0.0
H1211 H 0.74092 0.83549 0.51911 0.0
H1212 H 0.72468 0.79224 0.44703 0.0
H1213 H 0.75877 0.80022 0.44585 0.0
H1214 H 0.73428 0.8266 0.44628 0.0
H1215 H 0.73316 0.85072 0.48766 0.0
H1216 H 0.76645 0.84199 0.496 0.0
C1217 C 0.73307 0.70204 0.5332 0.0
C1218 C 0.75006 0.70705 0.48599 0.0
C1219 C 0.85361 0.81493 0.49264 0.0
C1220 C 0.8512 0.83691 0.47563 0.0
C1221 C 0.82689 0.84173 0.4626 0.0
C1222 C 0.80471 0.82569 0.46783 0.0
C1223 C 0.80678 0.80537 0.48693 0.0
C1224 C 0.83122 0.79932 0.49789 0.0
C1225 C 0.82988 0.77635 0.51699 0.0
C1226 C 0.80031 0.76947 0.51543 0.0
C1227 C 0.78697 0.78727 0.49865 0.0
C1228 C 0.83747 0.78662 0.54501 0.0
C1229 C 0.84861 0.75396 0.50675 0.0
C1230 C 0.69077 0.81313 0.49664 0.0
C1231 C 0.66956 0.80606 0.51347 0.0
C1232 C 0.67181 0.78167 0.52773 0.0
C1233 C 0.6952 0.76564 0.52595 0.0
C1234 C 0.71635 0.7737 0.50938 0.0
C1235 C 0.71403 0.79766 0.49582 0.0
C1236 C 0.74035 0.80735 0.48541 0.0
C1237 C 0.75893 0.78634 0.49655 0.0
C1238 C 0.74488 0.76523 0.50832 0.0
C1239 C 0.74566 0.83535 0.49746 0.0
C1240 C 0.73958 0.8068 0.45455 0.0
H1241 H 0.83225 0.73131 0.558 0.0
H1242 H 0.78221 0.65996 0.51151 0.0
H1243 H 0.76652 0.71475 0.47332 0.0
H1244 H 0.73119 0.71652 0.47937 0.0
H1245 H 0.74836 0.68524 0.48278 0.0
H1246 H 0.73543 0.70887 0.55412 0.0
H1247 H 0.73348 0.67992 0.53301 0.0
H1248 H 0.71328 0.70836 0.52576 0.0
H1249 H 0.8721 0.81101 0.50304 0.0
H1250 H 0.8248 0.85858 0.44929 0.0
H1251 H 0.78645 0.8306 0.45794 0.0
H1252 H 0.82828 0.8064 0.54892 0.0
H1253 H 0.85941 0.78876 0.54691 0.0
H1254 H 0.83021 0.77343 0.56103 0.0
H1255 H 0.83767 0.73945 0.49414 0.0
H1256 H 0.85857 0.7433 0.52325 0.0
H1257 H 0.86523 0.76189 0.49447 0.0
H1258 H 0.85149 0.68734 0.55518 0.0
C1259 C 0.82161 0.71631 0.54716 0.0
C1260 C 0.79198 0.3153 0.51415 0.0
C1261 C 0.81275 0.32892 0.50002 0.0
C1262 C 0.81682 0.32255 0.473 0.0
C1263 C 0.78766 0.28494 0.47709 0.0
C1264 C 0.77899 0.29329 0.50159 0.0
C1265 C 0.75498 0.27608 0.50997 0.0
H1266 H 0.68955 0.15609 0.48341 0.0
C1267 C 0.77584 0.25937 0.47063 0.0
C1268 C 0.75486 0.25401 0.48843 0.0
H1269 H 0.66068 0.21566 0.5381 0.0
H1270 H 0.69929 0.2441 0.52728 0.0
H1271 H 0.70633 0.19351 0.43603 0.0
H1272 H 0.74304 0.15537 0.50128 0.0
H1273 H 0.77137 0.16409 0.4828 0.0
H1274 H 0.74684 0.14177 0.46883 0.0
H1275 H 0.71333 0.15863 0.43969 0.0
H1276 H 0.73694 0.18086 0.42427 0.0
C1277 C 0.72984 0.29351 0.50842 0.0
C1278 C 0.75926 0.26456 0.53798 0.0
C1279 C 0.84082 0.19257 0.43457 0.0
C1280 C 0.83904 0.16472 0.4332 0.0
C1281 C 0.81367 0.15288 0.43132 0.0
C1282 C 0.79067 0.16822 0.43468 0.0
C1283 C 0.79318 0.1953 0.44108 0.0
C1284 C 0.81772 0.20746 0.43915 0.0
C1285 C 0.81662 0.23645 0.44634 0.0
C1286 C 0.78749 0.23883 0.45533 0.0
C1287 C 0.77447 0.21437 0.45329 0.0
C1288 C 0.82344 0.25291 0.42113 0.0
C1289 C 0.83636 0.24181 0.46944 0.0
C1290 C 0.69118 0.17517 0.4933 0.0
C1291 C 0.67186 0.18322 0.51175 0.0
C1292 C 0.67509 0.20873 0.52363 0.0
C1293 C 0.69732 0.22532 0.51726 0.0
C1294 C 0.71634 0.21665 0.49845 0.0
C1295 C 0.71273 0.19176 0.48709 0.0
C1296 C 0.73456 0.18431 0.46838 0.0
C1297 C 0.7509 0.20961 0.46817 0.0
C1298 C 0.74088 0.22891 0.48613 0.0
C1299 C 0.72228 0.17883 0.44059 0.0
C1300 C 0.74975 0.16018 0.48071 0.0
H1301 H 0.80605 0.29756 0.44039 0.0
H1302 H 0.78674 0.32104 0.53424 0.0
H1303 H 0.77803 0.25284 0.53869 0.0
H1304 H 0.74261 0.25124 0.54367 0.0
H1305 H 0.76057 0.28076 0.55297 0.0
H1306 H 0.72802 0.30271 0.48836 0.0
H1307 H 0.73076 0.30977 0.5234 0.0
H1308 H 0.71153 0.28196 0.512 0.0
H1309 H 0.86008 0.20225 0.43459 0.0
H1310 H 0.81151 0.13151 0.42961 0.0
H1311 H 0.77193 0.15809 0.43392 0.0
H1312 H 0.83519 0.24125 0.40641 0.0
H1313 H 0.83619 0.27027 0.42593 0.0
H1314 H 0.8051 0.25977 0.41084 0.0
H1315 H 0.83158 0.22907 0.48692 0.0
H1316 H 0.83603 0.26277 0.47604 0.0
H1317 H 0.85719 0.23771 0.46327 0.0
H1318 H 0.83074 0.3339 0.46101 0.0
C1319 C 0.80371 0.30112 0.46132 0.0
C1320 C 0.31908 0.78752 0.51135 0.0
C1321 C 0.3314 0.80935 0.49764 0.0
C1322 C 0.32269 0.81526 0.47164 0.0
C1323 C 0.28574 0.78536 0.47668 0.0
C1324 C 0.29614 0.77519 0.49979 0.0
C1325 C 0.27988 0.75045 0.50793 0.0
H1326 H 0.16074 0.68251 0.48385 0.0
C1327 C 0.26011 0.77315 0.47112 0.0
C1328 C 0.25646 0.75101 0.4879 0.0
H1329 H 0.22247 0.65447 0.5365 0.0
H1330 H 0.24972 0.69389 0.52536 0.0
H1331 H 0.15839 0.73448 0.50352 0.0
H1332 H 0.19615 0.70222 0.43581 0.0
H1333 H 0.18202 0.73274 0.42568 0.0
H1334 H 0.16113 0.70771 0.44076 0.0
H1335 H 0.14388 0.73945 0.47166 0.0
H1336 H 0.16567 0.76401 0.48641 0.0
C1337 C 0.2701 0.75317 0.5368 0.0
C1338 C 0.29749 0.72571 0.50399 0.0
C1339 C 0.18887 0.83662 0.44128 0.0
C1340 C 0.16109 0.83346 0.44005 0.0
C1341 C 0.15053 0.80764 0.43712 0.0
C1342 C 0.16711 0.78536 0.43902 0.0
C1343 C 0.19418 0.78895 0.44502 0.0
C1344 C 0.20502 0.81413 0.44423 0.0
C1345 C 0.23436 0.81404 0.45006 0.0
C1346 C 0.23848 0.78463 0.4573 0.0
C1347 C 0.21458 0.77059 0.45544 0.0
C1348 C 0.23999 0.83271 0.47394 0.0
C1349 C 0.24928 0.82296 0.42454 0.0
C1350 C 0.18006 0.68446 0.49322 0.0
C1351 C 0.18903 0.66519 0.51125 0.0
C1352 C 0.21481 0.66886 0.5224 0.0
C1353 C 0.23068 0.69159 0.51588 0.0
C1354 C 0.22091 0.71072 0.49774 0.0
C1355 C 0.19579 0.70661 0.48706 0.0
C1356 C 0.18684 0.72878 0.46954 0.0
C1357 C 0.21143 0.74615 0.46924 0.0
C1358 C 0.23181 0.73615 0.48598 0.0
C1359 C 0.16248 0.74242 0.48323 0.0
C1360 C 0.18101 0.71739 0.44144 0.0
H1361 H 0.2953 0.80639 0.4405 0.0
H1362 H 0.32654 0.78093 0.53045 0.0
H1363 H 0.3055 0.7251 0.48335 0.0
H1364 H 0.28632 0.70709 0.50723 0.0
H1365 H 0.31459 0.72606 0.51801 0.0
H1366 H 0.25828 0.77172 0.53923 0.0
H1367 H 0.28722 0.75392 0.55078 0.0
H1368 H 0.2573 0.73612 0.54248 0.0
H1369 H 0.1976 0.8563 0.44203 0.0
H1370 H 0.12927 0.80447 0.43549 0.0
H1371 H 0.15797 0.76619 0.43732 0.0
H1372 H 0.22832 0.82643 0.4917 0.0
H1373 H 0.23469 0.85361 0.46913 0.0
H1374 H 0.26128 0.83288 0.47948 0.0
H1375 H 0.23645 0.83502 0.41113 0.0
H1376 H 0.25633 0.80555 0.41285 0.0
H1377 H 0.26635 0.83615 0.42925 0.0
H1378 H 0.33297 0.83004 0.45971 0.0
C1379 C 0.30045 0.80275 0.46088 0.0
C1380 C 0.32122 0.20501 0.51067 0.0
C1381 C 0.33562 0.18493 0.49642 0.0
C1382 C 0.3311 0.18233 0.46886 0.0
C1383 C 0.29402 0.21237 0.47165 0.0
C1384 C 0.30045 0.21913 0.49731 0.0
C1385 C 0.28288 0.24263 0.50616 0.0
H1386 H 0.16829 0.31461 0.47478 0.0
C1387 C 0.26976 0.22589 0.46364 0.0
C1388 C 0.26327 0.24546 0.48258 0.0
H1389 H 0.22018 0.3322 0.54081 0.0
H1390 H 0.24986 0.29549 0.52721 0.0
H1391 H 0.21198 0.30411 0.43048 0.0
H1392 H 0.16207 0.26237 0.48195 0.0
H1393 H 0.17514 0.23448 0.46539 0.0
H1394 H 0.15604 0.25924 0.44745 0.0
H1395 H 0.17681 0.29796 0.42806 0.0
H1396 H 0.20074 0.2761 0.41253 0.0
C1397 C 0.30069 0.26738 0.50904 0.0
C1398 C 0.26837 0.23565 0.53221 0.0
C1399 C 0.20181 0.16884 0.41904 0.0
C1400 C 0.1744 0.17383 0.41624 0.0
C1401 C 0.166 0.20016 0.41143 0.0
C1402 C 0.18376 0.22131 0.41499 0.0
C1403 C 0.20932 0.2159 0.42481 0.0
C1404 C 0.21891 0.19022 0.42423 0.0
C1405 C 0.24692 0.18844 0.43465 0.0
C1406 C 0.25081 0.21702 0.44487 0.0
C1407 C 0.22798 0.23226 0.44043 0.0
C1408 C 0.26538 0.18079 0.41116 0.0
C1409 C 0.24815 0.16772 0.45749 0.0
C1410 C 0.18595 0.31083 0.48658 0.0
C1411 C 0.19145 0.32633 0.50904 0.0
C1412 C 0.21521 0.32064 0.52332 0.0
C1413 C 0.23246 0.29945 0.51542 0.0
C1414 C 0.22614 0.28397 0.49282 0.0
C1415 C 0.20301 0.29011 0.47909 0.0
C1416 C 0.19767 0.2717 0.45647 0.0
C1417 C 0.22234 0.25435 0.45719 0.0
C1418 C 0.23932 0.26097 0.47872 0.0
C1419 C 0.19653 0.28823 0.43043 0.0
C1420 C 0.17151 0.25612 0.4629 0.0
H1421 H 0.30901 0.19565 0.43508 0.0
H1422 H 0.32551 0.20895 0.53141 0.0
H1423 H 0.25662 0.21706 0.52975 0.0
H1424 H 0.25449 0.25168 0.53818 0.0
H1425 H 0.28286 0.2326 0.54863 0.0
H1426 H 0.31238 0.27073 0.49051 0.0
H1427 H 0.31491 0.26479 0.52578 0.0
H1428 H 0.28896 0.28557 0.51268 0.0
H1429 H 0.20896 0.1486 0.4209 0.0
H1430 H 0.14522 0.20474 0.40799 0.0
H1431 H 0.17637 0.2411 0.41221 0.0
H1432 H 0.2546 0.16926 0.39563 0.0
H1433 H 0.28173 0.16745 0.41763 0.0
H1434 H 0.27383 0.19875 0.40138 0.0
H1435 H 0.23377 0.17288 0.47354 0.0
H1436 H 0.2682 0.16644 0.46643 0.0
H1437 H 0.24348 0.14742 0.45014 0.0
H1438 H 0.34309 0.16885 0.45701 0.0
C1439 C 0.31092 0.19663 0.45633 0.0
C1440 C 0.01317 0.9526 0.57593 0.0
C1441 C 0.01419 0.95195 0.4448 0.0
C1442 C 0.01759 0.0826 0.57565 0.0
C1443 C 0.01785 0.08252 0.44445 0.0
C1444 C 0.95459 0.0833 0.50263 0.0
C1445 C 0.94938 0.95598 0.50689 0.0
C1446 C 0.08227 0.0784 0.50155 0.0
C1447 C 0.07751 0.95092 0.50462 0.0
C1448 C 0.08069 0.01474 0.44426 0.0
C1449 C 0.94989 0.0193 0.4456 0.0
C1450 C 0.08217 0.01643 0.57543 0.0
C1451 C 0.95185 0.0205 0.57649 0.0
Eu1452 Eu 0.01415 0.96726 0.51033 0.0
O1453 O 0.99157 0.99472 0.48633 0.0
O1454 O 0.03924 0.99263 0.53448 0.0
Eu1455 Eu 0.96621 0.01922 0.51075 0.0
Eu1456 Eu 0.06627 0.0154 0.51 0.0
O1457 O 0.99216 0.99491 0.53468 0.0
O1458 O 0.03813 0.99339 0.48625 0.0
Eu1459 Eu 0.0169 0.01758 0.56186 0.0
Eu1460 Eu 0.01549 0.01718 0.45835 0.0
O1461 O 0.99372 0.04199 0.53462 0.0
O1462 O 0.99363 0.04137 0.48643 0.0
O1463 O 0.03967 0.03933 0.48628 0.0
O1464 O 0.04108 0.04055 0.53422 0.0
Eu1465 Eu 0.0179 0.06763 0.50999 0.0
O1466 O 0.01169 0.94496 0.55032 0.0
O1467 O 0.01388 0.94472 0.47057 0.0
O1468 O 0.01783 0.09008 0.54991 0.0
O1469 O 0.01812 0.08993 0.47014 0.0
O1470 O 0.9456 0.0585 0.50497 0.0
O1471 O 0.94228 0.98139 0.50933 0.0
O1472 O 0.08985 0.05326 0.50512 0.0
O1473 O 0.087 0.97558 0.50697 0.0
O1474 O 0.05535 0.01586 0.43593 0.0
O1475 O 0.97506 0.01851 0.4366 0.0
O1476 O 0.0569 0.0173 0.58404 0.0
O1477 O 0.97718 0.0185 0.58474 0.0
O1478 O 0.05754 0.08781 0.50352 0.0
O1479 O 0.97975 0.09121 0.50549 0.0
O1480 O 0.05205 0.94368 0.5062 0.0
O1481 O 0.97428 0.94678 0.5071 0.0
O1482 O 0.01453 0.9772 0.43617 0.0
O1483 O 0.01701 0.05719 0.43602 0.0
O1484 O 0.01594 0.97778 0.58428 0.0
O1485 O 0.01765 0.05734 0.58419 0.0
O1486 O 0.9443 0.02153 0.55084 0.0
O1487 O 0.94308 0.01937 0.47146 0.0
O1488 O 0.08933 0.01551 0.54962 0.0
O1489 O 0.08823 0.01427 0.46992 0.0
C1490 C 0.51893 0.95281 0.07718 0.0
C1491 C 0.52262 0.08098 0.07461 0.0
C1492 C 0.52014 0.94999 0.94998 0.0
C1493 C 0.52829 0.07804 0.94758 0.0
C1494 C 0.582 0.01545 0.94696 0.0
C1495 C 0.58113 0.01809 0.07752 0.0
C1496 C 0.45091 0.01533 0.94574 0.0
C1497 C 0.45019 0.0171 0.07699 0.0
C1498 C 0.45025 0.08159 1.01006 0.0
C1499 C 0.58143 0.08102 0.01116 0.0
C1500 C 0.4503 0.95078 0.01246 0.0
C1501 C 0.58134 0.95085 0.01312 0.0
Eu1502 Eu 0.51578 0.01683 0.06212 0.0
O1503 O 0.53957 0.03953 0.0347 0.0
O1504 O 0.49146 0.99318 0.0358 0.0
Eu1505 Eu 0.56758 0.01584 0.01223 0.0
Eu1506 Eu 0.46409 0.01625 0.01148 0.0
O1507 O 0.54003 0.99285 0.03614 0.0
O1508 O 0.49152 0.04008 0.03509 0.0
Eu1509 Eu 0.51577 0.96611 0.01316 0.0
Eu1510 Eu 0.51581 0.06612 0.011 0.0
O1511 O 0.54004 0.99207 0.98913 0.0
O1512 O 0.53949 0.03824 0.98879 0.0
O1513 O 0.49174 0.0394 0.98719 0.0
O1514 O 0.49193 0.99217 0.98871 0.0
Eu1515 Eu 0.51638 0.01483 0.96151 0.0
O1516 O 0.51931 0.97814 0.08505 0.0
O1517 O 0.52085 0.05601 0.08336 0.0
O1518 O 0.52014 0.97489 0.94066 0.0
O1519 O 0.52448 0.05313 0.93925 0.0
O1520 O 0.59016 0.01583 0.97238 0.0
O1521 O 0.58972 0.01736 0.05224 0.0
O1522 O 0.44218 0.01579 0.97106 0.0
O1523 O 0.4417 0.01658 0.05162 0.0
O1524 O 0.47603 0.08884 1.00938 0.0
O1525 O 0.55575 0.08856 0.01158 0.0
O1526 O 0.47608 0.94371 0.01305 0.0
O1527 O 0.5556 0.94348 0.01344 0.0
O1528 O 0.47675 0.01517 0.9386 0.0
O1529 O 0.55639 0.01467 0.93929 0.0
O1530 O 0.47591 0.01744 0.08435 0.0
O1531 O 0.55539 0.01782 0.08479 0.0
O1532 O 0.51945 0.08899 0.04952 0.0
O1533 O 0.52359 0.08703 0.9721 0.0
O1534 O 0.51644 0.94425 0.05225 0.0
O1535 O 0.51748 0.94284 0.97531 0.0
O1536 O 0.58981 0.9761 0.01273 0.0
O1537 O 0.58977 0.05569 0.01103 0.0
O1538 O 0.44161 0.97608 0.0118 0.0
O1539 O 0.44173 0.05629 0.01119 0.0
C1540 C 0.01437 0.45203 0.07686 0.0
C1541 C 0.01777 0.44985 0.94638 0.0
C1542 C 0.01421 0.58312 0.0746 0.0
C1543 C 0.01544 0.58078 0.94381 0.0
C1544 C 0.95026 0.5813 1.00697 0.0
C1545 C 0.95123 0.45023 0.01129 0.0
C1546 C 0.08067 0.58218 1.01004 0.0
C1547 C 0.08139 0.45116 0.01302 0.0
C1548 C 0.08086 0.52292 0.94808 0.0
C1549 C 0.95227 0.51819 0.94553 0.0
C1550 C 0.07772 0.52199 0.07622 0.0
C1551 C 0.94951 0.52103 0.07281 0.0
Eu1552 Eu 0.01619 0.46487 0.01136 0.0
O1553 O 0.99281 0.49158 0.98668 0.0
O1554 O 0.03879 0.49293 0.03517 0.0
Eu1555 Eu 0.96572 0.51584 1.00949 0.0
Eu1556 Eu 0.06582 0.51667 0.01167 0.0
O1557 O 0.99176 0.49234 0.03407 0.0
O1558 O 0.04001 0.49209 0.98756 0.0
Eu1559 Eu 0.01417 0.51733 0.06072 0.0
Eu1560 Eu 0.01654 0.51566 0.96012 0.0
O1561 O 0.99156 0.5408 0.03289 0.0
O1562 O 0.99278 0.53978 0.98636 0.0
O1563 O 0.03911 0.53991 0.9874 0.0
O1564 O 0.03813 0.54088 0.0339 0.0
Eu1565 Eu 0.01541 0.56819 1.00953 0.0
O1566 O 0.0157 0.44319 0.05168 0.0
O1567 O 0.01748 0.44196 0.97188 0.0
O1568 O 0.01468 0.59114 0.04912 0.0
O1569 O 0.01559 0.58975 0.96899 0.0
O1570 O 0.94311 0.55552 1.00691 0.0
O1571 O 0.94367 0.47587 0.01105 0.0
O1572 O 0.08807 0.55652 0.011 0.0
O1573 O 0.0887 0.47693 0.01271 0.0
O1574 O 0.0559 0.52156 0.93921 0.0
O1575 O 0.97757 0.51886 0.93739 0.0
O1576 O 0.05243 0.51943 0.08375 0.0
O1577 O 0.97446 0.521 0.08191 0.0
O1578 O 0.05533 0.5906 1.00935 0.0
O1579 O 0.9754 0.5901 1.00837 0.0
O1580 O 0.05609 0.44267 0.01275 0.0
O1581 O 0.9766 0.4419 0.01093 0.0
O1582 O 0.01756 0.47539 0.93832 0.0
O1583 O 0.01564 0.55495 0.93697 0.0
O1584 O 0.01333 0.47785 0.08382 0.0
O1585 O 0.01407 0.55755 0.08245 0.0
O1586 O 0.94222 0.51845 0.04748 0.0
O1587 O 0.94398 0.51552 0.97054 0.0
O1588 O 0.08682 0.52146 0.05126 0.0
O1589 O 0.08883 0.51974 0.97318 0.0
C1590 C 0.49902 0.43029 0.08267 0.0
C1591 C 0.50205 0.56146 0.08324 0.0
C1592 C 0.50544 0.43229 0.95125 0.0
C1593 C 0.50219 0.56196 0.95246 0.0
C1594 C 0.5679 0.49536 0.9534 0.0
C1595 C 0.5664 0.49585 0.08407 0.0
C1596 C 0.43692 0.49857 0.95211 0.0
C1597 C 0.43555 0.49432 0.08279 0.0
C1598 C 0.43813 0.56052 0.02366 0.0
C1599 C 0.56594 0.5597 0.01413 0.0
C1600 C 0.43875 0.43298 1.00369 0.0
C1601 C 0.5647 0.43222 0.02828 0.0
Eu1602 Eu 0.50099 0.49582 0.06959 0.0
O1603 O 0.52494 0.51966 0.04246 0.0
O1604 O 0.47743 0.47195 0.0418 0.0
Eu1605 Eu 0.55168 0.49595 0.01858 0.0
Eu1606 Eu 0.45134 0.49626 0.01755 0.0
O1607 O 0.52407 0.47285 0.04153 0.0
O1608 O 0.4784 0.51925 0.04144 0.0
Eu1609 Eu 0.50155 0.44578 0.01718 0.0
Eu1610 Eu 0.50183 0.54634 0.01783 0.0
O1611 O 0.52569 0.47253 0.99356 0.0
O1612 O 0.52551 0.51968 0.99431 0.0
O1613 O 0.47805 0.5202 0.99355 0.0
O1614 O 0.47906 0.47371 0.99399 0.0
Eu1615 Eu 0.50231 0.49693 0.96639 0.0
O1616 O 0.50062 0.4555 0.09136 0.0
O1617 O 0.50096 0.53615 0.09193 0.0
O1618 O 0.50366 0.4578 0.94391 0.0
O1619 O 0.5028 0.53668 0.94402 0.0
O1620 O 0.57482 0.49386 0.9792 0.0
O1621 O 0.57381 0.49718 0.05841 0.0
O1622 O 0.42941 0.50025 0.97774 0.0
O1623 O 0.42834 0.493 0.05704 0.0
O1624 O 0.4631 0.56868 0.02017 0.0
O1625 O 0.54083 0.56815 0.01396 0.0
O1626 O 0.46324 0.42435 1.00901 0.0
O1627 O 0.53991 0.42366 0.02442 0.0
O1628 O 0.46228 0.49636 0.94385 0.0
O1629 O 0.54272 0.49716 0.94462 0.0
O1630 O 0.46077 0.49586 0.09141 0.0
O1631 O 0.54097 0.49491 0.09239 0.0
O1632 O 0.50309 0.56857 0.05749 0.0
O1633 O 0.50125 0.56927 0.97818 0.0
O1634 O 0.49798 0.42315 0.05687 0.0
O1635 O 0.50568 0.42358 0.97665 0.0
O1636 O 0.57317 0.45721 0.02551 0.0
O1637 O 0.57418 0.53467 0.0168 0.0
O1638 O 0.42994 0.4578 1.00734 0.0
O1639 O 0.42963 0.53536 0.02371 0.0
C1640 C 0.99293 0.43099 0.58274 0.0
C1641 C 0.99484 0.43005 0.45551 0.0
C1642 C 0.99453 0.55849 0.58245 0.0
C1643 C 1.0091 0.55752 0.45446 0.0
C1644 C 0.93672 0.56021 0.5167 0.0
C1645 C 0.93604 0.42956 0.5189 0.0
C1646 C 0.06755 0.55911 0.52157 0.0
C1647 C 0.06712 0.42851 0.52006 0.0
C1648 C 0.06828 0.49459 0.45493 0.0
C1649 C 0.93723 0.49458 0.4527 0.0
C1650 C 0.06653 0.49327 0.58545 0.0
C1651 C 0.93557 0.49523 0.58354 0.0
Eu1652 Eu 1.00174 0.44422 0.51924 0.0
O1653 O 0.97819 0.47126 0.4958 0.0
O1654 O 0.02573 0.47035 0.54359 0.0
Eu1655 Eu 0.95002 0.49484 0.51824 0.0
Eu1656 Eu 0.05348 0.4937 0.52005 0.0
O1657 O 0.97778 0.47177 0.54172 0.0
O1658 O 0.02659 0.47013 0.49555 0.0
Eu1659 Eu 1.0012 0.49464 0.56929 0.0
Eu1660 Eu 1.0025 0.49389 0.46888 0.0
O1661 O 0.97778 0.51778 0.5418 0.0
O1662 O 0.97786 0.51819 0.49457 0.0
O1663 O 0.02585 0.51673 0.49645 0.0
O1664 O 0.02584 0.51799 0.54292 0.0
Eu1665 Eu 1.00202 0.54439 0.51865 0.0
O1666 O 0.99735 0.42238 0.55808 0.0
O1667 O 0.99763 0.42176 0.48056 0.0
O1668 O 0.99543 0.56646 0.55716 0.0
O1669 O 1.00776 0.56603 0.47959 0.0
O1670 O 0.92797 0.53503 0.51831 0.0
O1671 O 0.92763 0.4549 0.51873 0.0
O1672 O 0.07596 0.53375 0.5205 0.0
O1673 O 0.07568 0.45378 0.52046 0.0
O1674 O 0.04274 0.49405 0.44695 0.0
O1675 O 0.96308 0.49547 0.44577 0.0
O1676 O 0.04069 0.49357 0.59255 0.0
O1677 O 0.96119 0.49559 0.59116 0.0
O1678 O 0.04184 0.56653 0.52189 0.0
O1679 O 0.96254 0.56719 0.51555 0.0
O1680 O 0.04135 0.42127 0.51947 0.0
O1681 O 0.96173 0.42207 0.51905 0.0
O1682 O 0.99712 0.45508 0.44703 0.0
O1683 O 1.00633 0.53242 0.44646 0.0
O1684 O 0.99392 0.45611 0.59107 0.0
O1685 O 0.99817 0.53374 0.59123 0.0
O1686 O 0.92734 0.49478 0.55813 0.0
O1687 O 0.92835 0.49397 0.4779 0.0
O1688 O 0.07528 0.49328 0.56022 0.0
O1689 O 0.07638 0.49426 0.48037 0.0
C1690 C 0.50119 0.93031 0.58257 0.0
C1691 C 0.49992 0.93033 0.45223 0.0
C1692 C 0.49825 0.06112 0.5831 0.0
C1693 C 0.50306 0.06116 0.45216 0.0
C1694 C 0.43506 0.06123 0.51783 0.0
C1695 C 0.43491 0.93058 0.51529 0.0
C1696 C 0.56594 0.06129 0.51871 0.0
C1697 C 0.56562 0.93025 0.51989 0.0
C1698 C 0.56618 0.98915 0.45539 0.0
C1699 C 0.43856 1.00462 0.45236 0.0
C1700 C 0.56246 1.00533 0.58266 0.0
C1701 C 0.43551 0.98843 0.58029 0.0
Eu1702 Eu 0.50031 0.94418 0.51751 0.0
O1703 O 0.47709 0.97155 0.49324 0.0
O1704 O 0.5237 0.97146 0.54183 0.0
Eu1705 Eu 0.45026 0.99589 0.51658 0.0
Eu1706 Eu 0.55059 0.99585 0.51869 0.0
O1707 O 0.47682 0.97213 0.54022 0.0
O1708 O 0.5242 0.97194 0.49493 0.0
Eu1709 Eu 0.49941 0.99584 0.56766 0.0
Eu1710 Eu 0.50172 0.99567 0.46742 0.0
O1711 O 0.47617 0.02023 0.54088 0.0
O1712 O 0.47815 0.01943 0.49416 0.0
O1713 O 0.52471 0.02019 0.49435 0.0
O1714 O 0.52294 0.0196 0.54104 0.0
Eu1715 Eu 0.50046 0.04766 0.51763 0.0
O1716 O 0.49973 0.92182 0.55733 0.0
O1717 O 0.50076 0.92181 0.47754 0.0
O1718 O 0.49969 0.06978 0.55784 0.0
O1719 O 0.50085 0.06975 0.47739 0.0
O1720 O 0.42766 0.03554 0.51888 0.0
O1721 O 0.42778 0.95628 0.51323 0.0
O1722 O 0.57319 0.03557 0.51758 0.0
O1723 O 0.57298 0.95596 0.5213 0.0
O1724 O 0.54119 0.98966 0.44648 0.0
O1725 O 0.46355 1.00066 0.44439 0.0
O1726 O 0.53738 1.00207 0.59063 0.0
O1727 O 0.46025 0.99189 0.5891 0.0
O1728 O 0.54061 0.06984 0.51916 0.0
O1729 O 0.46037 0.06973 0.51691 0.0
O1730 O 0.54031 0.92187 0.51797 0.0
O1731 O 0.46013 0.92205 0.51763 0.0
O1732 O 0.49935 0.95605 0.44493 0.0
O1733 O 0.50468 0.03542 0.44501 0.0
O1734 O 0.5021 0.95602 0.58994 0.0
O1735 O 0.49717 0.03539 0.59026 0.0
O1736 O 0.42757 0.98929 0.55498 0.0
O1737 O 0.42956 1.00328 0.47731 0.0
O1738 O 0.57146 1.00241 0.55785 0.0
O1739 O 0.5739 0.99259 0.4805 0.0
H1740 H 0.18085 0.14074 0.45809 0.0
H1741 H 0.12364 0.16341 0.39798 0.0
H1742 H 0.08933 0.13737 0.4209 0.0
H1743 H 0.07557 0.10957 0.45887 0.0
H1744 H 0.13373 0.08499 0.517 0.0
H1745 H 0.1681 0.11082 0.49385 0.0
C1746 C 0.16116 0.13941 0.44934 0.0
C1747 C 0.15493 0.15392 0.42614 0.0
C1748 C 0.14168 0.12468 0.46264 0.0
C1749 C 0.12897 0.15249 0.41579 0.0
C1750 C 0.10935 0.13775 0.42896 0.0
C1751 C 0.0957 0.11033 0.46667 0.0
C1752 C 0.10218 0.09621 0.48995 0.0
C1753 C 0.1154 0.12427 0.4527 0.0
C1754 C 0.1284 0.09629 0.49941 0.0
C1755 C 0.14797 0.11078 0.48606 0.0
H1756 H 0.87763 0.17562 0.46922 0.0
H1757 H 0.85296 0.11613 0.4122 0.0
H1758 H 0.88671 0.08561 0.42939 0.0
H1759 H 0.92088 0.07504 0.46251 0.0
H1760 H 0.94713 0.13502 0.51793 0.0
H1761 H 0.91494 0.16666 0.49912 0.0
C1762 C 0.88008 0.15632 0.45989 0.0
C1763 C 0.86266 0.14816 0.43944 0.0
C1764 C 0.89938 0.13894 0.4699 0.0
C1765 C 0.86587 0.12279 0.42812 0.0
C1766 C 0.8851 0.10534 0.43798 0.0
C1767 C 0.91934 0.095 0.47059 0.0
C1768 C 0.93558 0.10266 0.49201 0.0
C1769 C 0.9014 0.113 0.45931 0.0
C1770 C 0.93436 0.12875 0.50173 0.0
C1771 C 0.91611 0.14675 0.49092 0.0
H1772 H 0.8458 0.88851 0.48739 0.0
H1773 H 0.90402 0.82953 0.46515 0.0
H1774 H 0.93999 0.86159 0.47298 0.0
H1775 H 0.95453 0.90535 0.48871 0.0
H1776 H 0.89586 0.9636 0.51271 0.0
H1777 H 0.86024 0.93261 0.5018 0.0
C1778 C 0.86635 0.88295 0.48364 0.0
C1779 C 0.87245 0.857 0.47544 0.0
C1780 C 0.88673 0.90108 0.48903 0.0
C1781 C 0.89907 0.8496 0.47127 0.0
C1782 C 0.91953 0.8678 0.47595 0.0
C1783 C 0.93398 0.91124 0.49178 0.0
C1784 C 0.92791 0.93668 0.50177 0.0
C1785 C 0.91357 0.89339 0.48542 0.0
C1786 C 0.90113 0.9441 0.50518 0.0
C1787 C 0.88072 0.92645 0.49885 0.0
H1788 H 0.16995 0.87186 0.47675 0.0
H1789 H 0.1119 0.84536 0.4191 0.0
H1790 H 0.08039 0.87869 0.43542 0.0
H1791 H 0.06914 0.91434 0.46685 0.0
H1792 H 0.1282 0.94274 0.52225 0.0
H1793 H 0.15995 0.90951 0.50575 0.0
C1794 C 0.15071 0.87376 0.46716 0.0
C1795 C 0.14335 0.85611 0.44665 0.0
C1796 C 0.13286 0.89295 0.47651 0.0
C1797 C 0.118 0.85851 0.43505 0.0
C1798 C 0.09999 0.87753 0.44438 0.0
C1799 C 0.08888 0.91296 0.47551 0.0
C1800 C 0.0963 0.93032 0.49612 0.0
C1801 C 0.10709 0.89449 0.46538 0.0
C1802 C 0.12211 0.92919 0.50662 0.0
C1803 C 0.1402 0.91035 0.49711 0.0
H1804 H 0.56469 0.17871 0.14007 0.0
H1805 H 0.60758 0.11631 0.1806 0.0
H1806 H 0.5873 0.08308 0.15125 0.0
H1807 H 0.55597 0.07196 0.11558 0.0
H1808 H 0.51353 0.13454 0.07478 0.0
H1809 H 0.5349 0.1678 0.10321 0.0
C1810 C 0.57019 0.15792 0.14201 0.0
C1811 C 0.58782 0.14993 0.16223 0.0
C1812 C 0.55802 0.13904 0.12559 0.0
C1813 C 0.59418 0.12286 0.16503 0.0
C1814 C 0.58242 0.10391 0.14845 0.0
C1815 C 0.55103 0.09284 0.11322 0.0
C1816 C 0.53278 0.10083 0.09355 0.0
C1817 C 0.56388 0.11177 0.12909 0.0
C1818 C 0.52724 0.12797 0.09008 0.0
C1819 C 0.5396 0.14695 0.10614 0.0
H1820 H 0.8435 0.54164 0.13538 0.0
H1821 H 0.89524 0.5924 0.18133 0.0
H1822 H 0.93329 0.57892 0.15379 0.0
H1823 H 0.95151 0.55255 0.11654 0.0
H1824 H 0.89892 0.50239 0.07072 0.0
H1825 H 0.86139 0.5156 0.09862 0.0
C1826 C 0.863 0.55019 0.13903 0.0
C1827 C 0.86656 0.56829 0.16001 0.0
C1828 C 0.88461 0.54209 0.12349 0.0
C1829 C 0.89207 0.57857 0.1651 0.0
C1830 C 0.91378 0.57076 0.14949 0.0
C1831 C 0.9319 0.54421 0.11301 0.0
C1832 C 0.92792 0.52641 0.09181 0.0
C1833 C 0.91029 0.55235 0.12876 0.0
C1834 C 0.90238 0.5161 0.08701 0.0
C1835 C 0.88093 0.52374 0.10283 0.0
H1836 H 0.53519 0.85118 0.14748 0.0
H1837 H 0.60361 0.89631 0.17344 0.0
H1838 H 0.58989 0.93358 0.14533 0.0
H1839 H 0.55859 0.95309 0.11302 0.0
H1840 H 0.49262 0.90629 0.08442 0.0
H1841 H 0.50521 0.86971 0.1141 0.0
C1842 C 0.54751 0.86889 0.14661 0.0
C1843 C 0.57049 0.87085 0.16249 0.0
C1844 C 0.53968 0.89004 0.13027 0.0
C1845 C 0.58573 0.89432 0.16158 0.0
C1846 C 0.5779 0.91564 0.14553 0.0
C1847 C 0.54678 0.93501 0.11373 0.0
C1848 C 0.52446 0.93235 0.09716 0.0
C1849 C 0.55479 0.91377 0.12997 0.0
C1850 C 0.50967 0.90869 0.09741 0.0
C1851 C 0.51697 0.8878 0.11417 0.0
H1852 H 0.13679 0.55048 0.18174 0.0
H1853 H 0.17962 0.60316 0.12913 0.0
H1854 H 0.15417 0.58601 0.09101 0.0
H1855 H 0.11933 0.55612 0.07324 0.0
H1856 H 0.07704 0.50393 0.12695 0.0
H1857 H 0.10319 0.52056 0.1643 0.0
C1858 C 0.14015 0.55868 0.16201 0.0
C1859 C 0.15945 0.57852 0.15822 0.0
C1860 C 0.12602 0.54839 0.14047 0.0
C1861 C 0.16445 0.58819 0.13246 0.0
C1862 C 0.1501 0.57824 0.11075 0.0
C1863 C 0.11631 0.54803 0.09306 0.0
C1864 C 0.09653 0.52871 0.09746 0.0
C1865 C 0.13095 0.55819 0.11454 0.0
C1866 C 0.09228 0.51874 0.12321 0.0
C1867 C 0.10705 0.52836 0.14454 0.0
H1868 H 0.54445 0.84288 0.89147 0.0
H1869 H 0.58646 0.89535 0.83818 0.0
H1870 H 0.57435 0.93372 0.86607 0.0
H1871 H 0.54939 0.95209 0.90439 0.0
H1872 H 0.50479 0.89864 0.95502 0.0
H1873 H 0.51975 0.86078 0.92888 0.0
C1874 C 0.55165 0.86265 0.88648 0.0
C1875 C 0.56687 0.86643 0.86342 0.0
C1876 C 0.54338 0.8844 0.90158 0.0
C1877 C 0.57525 0.89213 0.85635 0.0
C1878 C 0.56797 0.91398 0.872 0.0
C1879 C 0.54261 0.93219 0.90935 0.0
C1880 C 0.52593 0.92813 0.93148 0.0
C1881 C 0.55145 0.91038 0.89431 0.0
C1882 C 0.51763 0.90224 0.93804 0.0
C1883 C 0.52632 0.88056 0.92326 0.0
H1884 H 0.17922 0.55634 0.87925 0.0
H1885 H 0.12419 0.61738 0.85385 0.0
H1886 H 0.08989 0.59857 0.88296 0.0
H1887 H 0.07535 0.56379 0.91429 0.0
H1888 H 0.13148 0.50484 0.94152 0.0
H1889 H 0.16595 0.52399 0.91271 0.0
C1890 C 0.16005 0.56619 0.88058 0.0
C1891 C 0.15439 0.58841 0.86442 0.0
C1892 C 0.14057 0.55528 0.89719 0.0
C1893 C 0.12906 0.60023 0.86597 0.0
C1894 C 0.10944 0.58942 0.88251 0.0
C1895 C 0.09506 0.55496 0.91354 0.0
C1896 C 0.10092 0.53259 0.92928 0.0
C1897 C 0.11486 0.56664 0.89775 0.0
C1898 C 0.12662 0.52179 0.92909 0.0
C1899 C 0.14626 0.53284 0.91284 0.0
H1900 H 0.60514 0.15928 0.89176 0.0
H1901 H 0.58759 0.10913 0.82402 0.0
H1902 H 0.56276 0.07912 0.85252 0.0
H1903 H 0.5402 0.07056 0.89505 0.0
H1904 H 0.55212 0.12503 0.96064 0.0
H1905 H 0.58275 0.15105 0.93384 0.0
C1906 C 0.59566 0.14204 0.88295 0.0
C1907 C 0.59768 0.13737 0.85538 0.0
C1908 C 0.57911 0.12619 0.89882 0.0
C1909 C 0.58665 0.11369 0.84505 0.0
C1910 C 0.57178 0.09666 0.86125 0.0
C1911 C 0.54917 0.08833 0.9034 0.0
C1912 C 0.54333 0.09598 0.92971 0.0
C1913 C 0.56675 0.10347 0.88782 0.0
C1914 C 0.55559 0.11887 0.94026 0.0
C1915 C 0.57353 0.13362 0.92509 0.0
H1916 H 0.84561 0.54256 0.88675 0.0
H1917 H 0.89458 0.60169 0.84838 0.0
H1918 H 0.93378 0.5853 0.87266 0.0
H1919 H 0.95349 0.55446 0.90566 0.0
H1920 H 0.90352 0.4956 0.94342 0.0
H1921 H 0.86523 0.51115 0.91792 0.0
C1922 C 0.86479 0.55218 0.8841 0.0
C1923 C 0.86723 0.57369 0.86645 0.0
C1924 C 0.88703 0.54227 0.89748 0.0
C1925 C 0.89229 0.58539 0.86232 0.0
C1926 C 0.91464 0.57588 0.87598 0.0
C1927 C 0.93435 0.54465 0.9077 0.0
C1928 C 0.93123 0.52378 0.9261 0.0
C1929 C 0.91224 0.55422 0.89353 0.0
C1930 C 0.90628 0.51158 0.92918 0.0
C1931 C 0.88439 0.52061 0.91484 0.0
H1932 H 0.66338 0.63582 1.0044 0.0
H1933 H 0.62267 0.65815 0.93195 0.0
H1934 H 0.58674 0.62698 0.94266 0.0
H1935 H 0.5671 0.5936 0.97297 0.0
H1936 H 0.61067 0.56867 0.04259 0.0
H1937 H 0.64602 0.60065 0.03229 0.0
C1938 C 0.6472 0.63341 0.99033 0.0
C1939 C 0.64597 0.64916 0.96718 0.0
C1940 C 0.62712 0.61524 0.99629 0.0
C1941 C 0.6241 0.64638 0.94995 0.0
C1942 C 0.60359 0.62856 0.95604 0.0
C1943 C 0.58431 0.59546 0.98589 0.0
C1944 C 0.5864 0.57947 1.0087 0.0
C1945 C 0.60484 0.6131 0.97929 0.0
C1946 C 0.60883 0.5812 0.02511 0.0
C1947 C 0.62894 0.59931 0.01917 0.0
H1948 H 0.3742 0.6644 0.0479 0.0
H1949 H 0.35227 0.6192 0.11772 0.0
H1950 H 0.3771 0.58084 0.10076 0.0
H1951 H 0.40565 0.56057 0.06623 0.0
H1952 H 0.42992 0.60737 0.99846 0.0
H1953 H 0.40329 0.64492 0.01443 0.0
C1954 C 0.37531 0.64642 0.05981 0.0
C1955 C 0.36163 0.64481 0.08422 0.0
C1956 C 0.38961 0.62466 0.05003 0.0
C1957 C 0.36262 0.62098 0.09888 0.0
C1958 C 0.37674 0.59904 0.08916 0.0
C1959 C 0.40456 0.57886 0.05477 0.0
C1960 C 0.41909 0.58127 0.03099 0.0
C1961 C 0.39015 0.60063 0.06467 0.0
C1962 C 0.41844 0.60517 0.01661 0.0
C1963 C 0.40346 0.62661 0.02585 0.0
H1964 H 0.38974 0.35061 0.92394 0.0
H1965 H 0.3202 0.40005 0.93564 0.0
H1966 H 0.34617 0.4304 0.96273 0.0
H1967 H 0.387 0.43995 0.98806 0.0
H1968 H 0.45327 0.3852 0.98255 0.0
H1969 H 0.42931 0.35884 0.95015 0.0
C1970 C 0.37993 0.36772 0.93265 0.0
C1971 C 0.35266 0.37222 0.92815 0.0
C1972 C 0.39411 0.3837 0.95049 0.0
C1973 C 0.34111 0.39571 0.93839 0.0
C1974 C 0.35582 0.41292 0.95454 0.0
C1975 C 0.39605 0.42202 0.98014 0.0
C1976 C 0.42188 0.41463 0.98805 0.0
C1977 C 0.38197 0.40645 0.96169 0.0
C1978 C 0.43331 0.3914 0.97725 0.0
C1979 C 0.41977 0.37638 0.95836 0.0
H1980 H 0.63454 0.33805 0.07131 0.0
H1981 H 0.6805 0.40362 0.10203 0.0
H1982 H 0.64668 0.43506 0.08624 0.0
H1983 H 0.60762 0.44369 0.05848 0.0
H1984 H 0.56319 0.37796 0.02537 0.0
H1985 H 0.59337 0.3465 0.04692 0.0
C1986 C 0.63657 0.35915 0.07549 0.0
C1987 C 0.65966 0.36866 0.088 0.0
C1988 C 0.61801 0.37697 0.06496 0.0
C1989 C 0.66258 0.39602 0.09274 0.0
C1990 C 0.64355 0.41391 0.0833 0.0
C1991 C 0.60468 0.42249 0.05572 0.0
C1992 C 0.58367 0.41312 0.03975 0.0
C1993 C 0.62189 0.40462 0.06831 0.0
C1994 C 0.57954 0.38561 0.03716 0.0
C1995 C 0.59662 0.36765 0.04964 0.0
H1996 H 0.9663 0.63444 0.67732 0.0
H1997 H 0.90779 0.6618 0.62055 0.0
H1998 H 0.92353 0.62888 0.58831 0.0
H1999 H 0.95554 0.59423 0.57564 0.0
H2000 H 0.01233 0.5654 0.63321 0.0
H2001 H 0.99546 0.59725 0.66613 0.0
C2002 C 0.95636 0.63276 0.65822 0.0
C2003 C 0.93589 0.65061 0.65134 0.0
C2004 C 0.96556 0.61397 0.63986 0.0
C2005 C 0.92374 0.64845 0.62624 0.0
C2006 C 0.93277 0.62973 0.60779 0.0
C2007 C 0.96437 0.59517 0.59534 0.0
C2008 C 0.98554 0.57816 0.60199 0.0
C2009 C 0.9541 0.61288 0.61421 0.0
C2010 C 0.99628 0.57872 0.62772 0.0
C2011 C 0.98656 0.59676 0.64648 0.0
H2012 H 0.36933 0.9572 0.68079 0.0
H2013 H 0.34635 0.89196 0.62978 0.0
H2014 H 0.37296 0.91096 0.59347 0.0
H2015 H 0.4026 0.94641 0.57651 0.0
H2016 H 0.42702 1.00975 0.629 0.0
H2017 H 0.39957 0.9912 0.66475 0.0
C2018 C 0.37065 0.94659 0.66203 0.0
C2019 C 0.35619 0.9229 0.65816 0.0
C2020 C 0.38571 0.95763 0.64144 0.0
C2021 C 0.35742 0.91011 0.6333 0.0
C2022 C 0.37248 0.92104 0.61254 0.0
C2023 C 0.40139 0.95634 0.59566 0.0
C2024 C 0.41617 0.97964 0.6002 0.0
C2025 C 0.38644 0.94497 0.61634 0.0
C2026 C 0.41536 0.99201 0.62518 0.0
C2027 C 0.39993 0.98129 0.64558 0.0
H2028 H 0.95671 0.33301 0.64873 0.0
H2029 H 0.89525 0.38757 0.67412 0.0
H2030 H 0.91461 0.42212 0.64544 0.0
H2031 H 0.95074 0.43696 0.61523 0.0
H2032 H 0.01065 0.38075 0.59003 0.0
H2033 H 0.98994 0.34614 0.61725 0.0
C2034 C 0.94663 0.35196 0.6475 0.0
C2035 C 0.92421 0.35739 0.6635 0.0
C2036 C 0.9581 0.37154 0.63166 0.0
C2037 C 0.91242 0.38274 0.66199 0.0
C2038 C 0.92364 0.40253 0.64582 0.0
C2039 C 0.95941 0.41719 0.61615 0.0
C2040 C 0.98249 0.41131 0.60137 0.0
C2041 C 0.94692 0.39728 0.63116 0.0
C2042 C 0.99317 0.3856 0.60174 0.0
C2043 C 0.98121 0.36587 0.61702 0.0
H2044 H 0.62792 0.05133 0.67859 0.0
H2045 H 0.67486 0.08321 0.61415 0.0
H2046 H 0.64341 0.06473 0.58172 0.0
H2047 H 0.60553 0.03567 0.57215 0.0
H2048 H 0.5598 1.00204 0.63685 0.0
H2049 H 0.58837 0.02465 0.66904 0.0
C2050 C 0.63068 0.05501 0.65746 0.0
C2051 C 0.65328 0.06883 0.64858 0.0
C2052 C 0.61343 0.04318 0.63915 0.0
C2053 C 0.65725 0.07293 0.62123 0.0
C2054 C 0.63958 0.06201 0.6028 0.0
C2055 C 0.60203 0.03295 0.5933 0.0
C2056 C 0.58103 0.01668 0.60218 0.0
C2057 C 0.61823 0.04625 0.61158 0.0
C2058 C 0.57616 0.0141 0.6296 0.0
C2059 C 0.5923 0.0272 0.64796 0.0
H2060 H 0.95244 0.33325 0.389 0.0
H2061 H 0.90991 0.39621 0.34897 0.0
H2062 H 0.93029 0.42909 0.37868 0.0
H2063 H 0.96161 0.43974 0.41457 0.0
H2064 H 1.00367 0.37651 0.45478 0.0
H2065 H 0.98219 0.34365 0.42599 0.0
C2066 C 0.94703 0.35408 0.38724 0.0
C2067 C 0.92948 0.36233 0.36707 0.0
C2068 C 0.95927 0.37274 0.40386 0.0
C2069 C 0.92326 0.38946 0.3645 0.0
C2070 C 0.93507 0.40821 0.38128 0.0
C2071 C 0.96645 0.4188 0.4167 0.0
C2072 C 0.98462 0.41051 0.43632 0.0
C2073 C 0.95355 0.40008 0.40061 0.0
C2074 C 0.99003 0.3833 0.43952 0.0
C2075 C 0.97761 0.36455 0.42325 0.0
H2076 H 0.66762 0.96594 0.38663 0.0
H2077 H 0.61582 0.90567 0.35389 0.0
H2078 H 0.58004 0.92005 0.38373 0.0
H2079 H 0.56319 0.951 0.41788 0.0
H2080 H 0.61609 1.00948 0.4518 0.0
H2081 H 0.65202 0.99449 0.42248 0.0
C2082 C 0.64881 0.95533 0.38647 0.0
C2083 C 0.64447 0.93464 0.3681 0.0
C2084 C 0.62844 0.96377 0.40346 0.0
C2085 C 0.61964 0.92171 0.36776 0.0
C2086 C 0.59917 0.93 0.38472 0.0
C2087 C 0.58253 0.96063 0.41853 0.0
C2088 C 0.58703 0.98164 0.43641 0.0
C2089 C 0.60322 0.95136 0.40224 0.0
C2090 C 0.61226 0.99349 0.43784 0.0
C2091 C 0.63276 0.98483 0.42126 0.0
H2092 H 0.03705 0.62617 0.35362 0.0
H2093 H 0.05446 0.68457 0.41397 0.0
H2094 H 0.04372 0.65215 0.4489 0.0
H2095 H 0.02684 0.60817 0.46173 0.0
H2096 H 1.00763 0.5507 0.40058 0.0
H2097 H 0.02148 0.58203 0.36637 0.0
C2098 C 0.03912 0.63154 0.37445 0.0
C2099 C 0.0468 0.65742 0.38141 0.0
C2100 C 0.03206 0.61323 0.39415 0.0
C2101 C 0.04876 0.66455 0.40836 0.0
C2102 C 0.04243 0.64615 0.42821 0.0
C2103 C 0.02545 0.60253 0.44093 0.0
C2104 C 0.01594 0.57719 0.43378 0.0
C2105 C 0.03347 0.62062 0.42128 0.0
C2106 C 0.01471 0.57012 0.40671 0.0
C2107 C 0.02274 0.58796 0.38708 0.0
H2108 H 0.37639 0.04599 0.35276 0.0
H2109 H 0.35766 0.10967 0.40746 0.0
H2110 H 0.38212 0.08664 0.44273 0.0
H2111 H 0.40874 0.04836 0.45776 0.0
H2112 H 0.43009 0.98676 0.40198 0.0
H2113 H 0.40443 1.00914 0.36703 0.0
C2114 C 0.37818 0.05531 0.37215 0.0
C2115 C 0.36538 0.0797 0.37735 0.0
C2116 C 0.39225 0.04207 0.39216 0.0
C2117 C 0.36727 0.09091 0.40292 0.0
C2118 C 0.38117 0.07773 0.42309 0.0
C2119 C 0.40722 0.03963 0.43807 0.0
C2120 C 0.4205 0.01568 0.4324 0.0
C2121 C 0.39344 0.05316 0.41797 0.0
C2122 C 0.41948 1.00494 0.40669 0.0
C2123 C 0.40507 0.01783 0.38677 0.0
H2124 H 0.01151 0.18874 0.37562 0.0
H2125 H 0.01787 0.1335 0.31034 0.0
H2126 H 0.02245 0.09651 0.3421 0.0
H2127 H 0.0215 0.07941 0.389 0.0
H2128 H 0.01474 0.1361 0.45337 0.0
H2129 H 0.01319 0.17242 0.42155 0.0
C2130 C 0.01405 0.16862 0.36822 0.0
C2131 C 0.0141 0.1641 0.3404 0.0
C2132 C 0.01627 0.14744 0.38661 0.0
C2133 C 0.01789 0.13781 0.33147 0.0
C2134 C 0.02025 0.11655 0.34973 0.0
C2135 C 0.01976 0.09969 0.39613 0.0
C2136 C 0.01801 0.10457 0.42394 0.0
C2137 C 0.01894 0.12101 0.37744 0.0
C2138 C 0.01602 0.13126 0.4324 0.0
C2139 C 0.01514 0.15227 0.4141 0.0
H2140 H 0.84045 0.01875 0.38204 0.0
H2141 H 0.89187 1.00222 0.3155 0.0
H2142 H 0.93113 1.00803 0.3443 0.0
H2143 H 0.95066 0.01315 0.39012 0.0
H2144 H 0.89722 0.02771 0.45607 0.0
H2145 H 0.85949 0.02715 0.42606 0.0
C2146 C 0.86029 0.01713 0.37361 0.0
C2147 C 0.86306 0.01035 0.34644 0.0
C2148 C 0.88262 0.01952 0.39052 0.0
C2149 C 0.889 1.00796 0.33609 0.0
C2150 C 0.91148 0.01087 0.35276 0.0
C2151 C 0.93081 0.01639 0.39794 0.0
C2152 C 0.92722 0.02016 0.42577 0.0
C2153 C 0.90857 0.01587 0.38029 0.0
C2154 C 0.90107 0.0244 0.43511 0.0
C2155 C 0.87923 0.0242 0.41784 0.0
H2156 H 0.01455 0.84481 0.37771 0.0
H2157 H 0.99993 0.89835 0.31233 0.0
H2158 H 1.0038 0.93655 0.34291 0.0
H2159 H 1.00822 0.95447 0.38948 0.0
H2160 H 0.0209 0.89883 0.45393 0.0
H2161 H 0.02049 0.86211 0.42264 0.0
C2162 C 0.01225 0.86484 0.36998 0.0
C2163 C 1.00662 0.8685 0.34262 0.0
C2164 C 0.0138 0.8865 0.38776 0.0
C2165 C 1.00433 0.89475 0.33313 0.0
C2166 C 1.0063 0.91662 0.35076 0.0
C2167 C 0.01098 0.93434 0.39671 0.0
C2168 C 0.0144 0.92981 0.42445 0.0
C2169 C 0.01049 0.91274 0.37832 0.0
C2170 C 0.01798 0.90335 0.43305 0.0
C2171 C 0.01783 0.88213 0.41505 0.0
H2172 H 0.18662 0.01781 0.37492 0.0
H2173 H 0.1307 0.01984 0.30995 0.0
H2174 H 0.09363 0.01557 0.34176 0.0
H2175 H 0.07696 0.01462 0.38881 0.0
H2176 H 0.13443 0.0139 0.45285 0.0
H2177 H 0.17057 0.0148 0.42078 0.0
C2178 C 0.16632 0.01721 0.36757 0.0
C2179 C 0.16163 0.01943 0.33989 0.0
C2180 C 0.14516 0.01539 0.38601 0.0
C2181 C 0.1351 0.01805 0.33098 0.0
C2182 C 0.11384 0.01589 0.34928 0.0
C2183 C 0.09737 0.01455 0.39581 0.0
C2184 C 0.10256 0.01434 0.42361 0.0
C2185 C 0.11856 0.01511 0.37697 0.0
C2186 C 0.12937 0.01414 0.4319 0.0
C2187 C 0.15027 0.01462 0.41345 0.0
H2188 H 0.97407 0.86027 0.65197 0.0
H2189 H 0.04608 0.87983 0.69474 0.0
H2190 H 0.05429 0.91641 0.6635 0.0
H2191 H 0.04211 0.9418 0.62196 0.0
H2192 H 0.97386 0.91607 0.57672 0.0
H2193 H 0.96401 0.88225 0.6102 0.0
C2194 C 0.99219 0.87166 0.65439 0.0
C2195 C 1.00969 0.86617 0.67592 0.0
C2196 C 0.99767 0.89169 0.63543 0.0
C2197 C 0.03198 0.88305 0.67879 0.0
C2198 C 0.03689 0.90399 0.66062 0.0
C2199 C 0.02515 0.92869 0.61946 0.0
C2200 C 1.00871 0.93156 0.59668 0.0
C2201 C 0.02006 0.90834 0.63857 0.0
C2202 C 0.98694 0.91427 0.59378 0.0
C2203 C 0.98122 0.89495 0.61305 0.0
H2204 H 0.18784 1.00675 0.645 0.0
H2205 H 0.13335 0.0227 0.70939 0.0
H2206 H 0.09674 0.02749 0.67724 0.0
H2207 H 0.07959 0.02427 0.63046 0.0
H2208 H 0.13533 1.00773 0.56695 0.0
H2209 H 0.1715 1.00568 0.59903 0.0
C2210 C 0.16796 0.01137 0.65215 0.0
C2211 C 0.16356 0.01411 0.67989 0.0
C2212 C 0.14695 0.01366 0.63354 0.0
C2213 C 0.13762 0.02062 0.68836 0.0
C2214 C 0.11656 0.02309 0.66988 0.0
C2215 C 0.0996 0.02026 0.62357 0.0
C2216 C 0.10427 0.01603 0.59594 0.0
C2217 C 0.12084 0.01916 0.64236 0.0
C2218 C 0.13067 0.01109 0.58781 0.0
C2219 C 0.1516 1.00989 0.60621 0.0
H2220 H 0.99943 0.18641 0.64462 0.0
H2221 H 0.03992 0.14084 0.70504 0.0
H2222 H 0.04153 0.10239 0.67453 0.0
H2223 H 0.03368 0.08269 0.62892 0.0
H2224 H 0.99663 0.13185 0.56884 0.0
H2225 H 0.99234 0.16797 0.60067 0.0
C2226 C 1.00904 0.16826 0.65127 0.0
C2227 C 0.02014 0.16705 0.67717 0.0
C2228 C 0.01082 0.14681 0.63334 0.0
C2229 C 0.0313 0.14269 0.68537 0.0
C2230 C 0.03241 0.12071 0.66774 0.0
C2231 C 0.02467 0.10132 0.62282 0.0
C2232 C 0.01568 0.10437 0.59615 0.0
C2233 C 0.02264 0.12267 0.6414 0.0
C2234 C 1.00409 0.12878 0.58885 0.0
C2235 C 1.00145 0.14953 0.60717 0.0
H2236 H 0.84546 0.03001 0.64422 0.0
H2237 H 0.895 0.99874 0.7068 0.0
H2238 H 0.93386 1.00053 0.67674 0.0
H2239 H 0.95297 1.00785 0.63084 0.0
H2240 H 0.9008 0.03702 0.56895 0.0
H2241 H 0.86406 0.03862 0.60029 0.0
C2242 C 0.86478 0.02364 0.65148 0.0
C2243 C 0.86704 0.01398 0.67785 0.0
C2244 C 0.88667 0.02395 0.63388 0.0
C2245 C 0.89248 1.00637 0.68679 0.0
C2246 C 0.91469 1.00714 0.66941 0.0
C2247 C 0.93361 0.01471 0.62423 0.0
C2248 C 0.92998 0.02209 0.59712 0.0
C2249 C 0.91195 0.01538 0.64262 0.0
C2250 C 0.90453 0.03088 0.58929 0.0
C2251 C 0.88333 0.03194 0.60733 0.0
H2252 H 0.38317 0.02789 0.18394 0.0
H2253 H 0.31684 0.02515 0.12986 0.0
H2254 H 0.34765 0.01751 0.09238 0.0
H2255 H 0.39444 0.01579 0.07452 0.0
H2256 H 0.45975 0.01978 0.13043 0.0
H2257 H 0.42858 0.02291 0.1671 0.0
C2258 C 0.37535 0.02497 0.16401 0.0
C2259 C 0.34761 0.02683 0.15987 0.0
C2260 C 0.39323 0.02136 0.1426 0.0
C2261 C 0.33796 0.02333 0.13382 0.0
C2262 C 0.3557 0.01934 0.11231 0.0
C2263 C 0.4019 0.01719 0.09471 0.0
C2264 C 0.42984 0.01776 0.09922 0.0
C2265 C 0.38354 0.01902 0.11632 0.0
C2266 C 0.4387 0.01943 0.12581 0.0
C2267 C 0.42077 0.02119 0.14706 0.0
H2268 H 0.99885 0.38366 0.18242 0.0
H2269 H 0.01525 0.31854 0.12927 0.0
H2270 H 0.02345 0.35029 0.09276 0.0
H2271 H 0.02188 0.39696 0.07502 0.0
H2272 H 1.00458 0.46117 0.12962 0.0
H2273 H 1.0007 0.42958 0.166 0.0
C2274 C 1.0049 0.3764 0.16299 0.0
C2275 C 1.00672 0.34865 0.15878 0.0
C2276 C 1.00888 0.39475 0.14204 0.0
C2277 C 0.0142 0.33968 0.13333 0.0
C2278 C 0.0185 0.35792 0.11232 0.0
C2279 C 0.01738 0.40411 0.09488 0.0
C2280 C 0.01334 0.43179 0.09913 0.0
C2281 C 0.01522 0.38556 0.11623 0.0
C2282 C 1.00776 0.4403 0.12529 0.0
C2283 C 1.00553 0.42213 0.14633 0.0
H2284 H 0.64893 0.02 0.18438 0.0
H2285 H 0.71454 0.01205 0.12962 0.0
H2286 H 0.68342 0.01506 0.09191 0.0
H2287 H 0.63664 0.01639 0.07456 0.0
H2288 H 0.57188 0.0228 0.13098 0.0
H2289 H 0.60342 0.02351 0.16752 0.0
C2290 C 0.65658 0.01908 0.16419 0.0
C2291 C 0.68424 0.01555 0.16005 0.0
C2292 C 0.6385 0.02011 0.1427 0.0
C2293 C 0.69354 0.01491 0.13361 0.0
C2294 C 0.67562 0.01634 0.11199 0.0
C2295 C 0.62937 0.01803 0.09482 0.0
C2296 C 0.60151 0.01929 0.09961 0.0
C2297 C 0.6479 0.01833 0.11626 0.0
C2298 C 0.59288 0.02155 0.12623 0.0
C2299 C 0.61102 0.02204 0.14736 0.0
H2300 H 0.01477 0.65396 0.17968 0.0
H2301 H 0.01804 0.71811 0.12273 0.0
H2302 H 0.01594 0.68571 0.08614 0.0
H2303 H 0.01509 0.63851 0.07017 0.0
H2304 H 0.01251 0.57529 0.12852 0.0
H2305 H 0.01292 0.60785 0.16422 0.0
C2306 C 0.0153 0.66105 0.15929 0.0
C2307 C 0.01703 0.68874 0.15425 0.0
C2308 C 0.01439 0.64227 0.13835 0.0
C2309 C 0.01673 0.69713 0.12748 0.0
C2310 C 0.01569 0.67849 0.10647 0.0
C2311 C 0.01459 0.63178 0.09067 0.0
C2312 C 0.01394 0.60406 0.09624 0.0
C2313 C 0.01483 0.6509 0.11161 0.0
C2314 C 0.01316 0.59616 0.12317 0.0
C2315 C 0.01336 0.61489 0.14382 0.0
H2316 H 0.3829 0.99755 0.84011 0.0
H2317 H 0.31759 0.01734 0.89195 0.0
H2318 H 0.34912 0.02579 0.92855 0.0
H2319 H 0.39569 0.02379 0.94692 0.0
H2320 H 0.46007 1.00366 0.89342 0.0
H2321 H 0.42874 0.99907 0.85696 0.0
C2322 C 0.37555 1.0044 0.85925 0.0
C2323 C 0.34777 1.00713 0.863 0.0
C2324 C 0.3938 1.00867 0.88028 0.0
C2325 C 0.33875 0.0156 0.88815 0.0
C2326 C 0.35686 0.02006 0.90925 0.0
C2327 C 0.40293 0.01853 0.92727 0.0
C2328 C 0.43063 0.01397 0.92341 0.0
C2329 C 0.3845 0.01603 0.90578 0.0
C2330 C 0.43922 1.00737 0.89749 0.0
C2331 C 0.42118 1.0047 0.87639 0.0
H2332 H 1.00804 0.37599 0.84391 0.0
H2333 H 0.02555 0.31429 0.90086 0.0
H2334 H 0.02992 0.34802 0.9361 0.0
H2335 H 0.02627 0.39531 0.95123 0.0
H2336 H 1.00891 0.4562 0.89299 0.0
H2337 H 1.00674 0.42264 0.85819 0.0
C2338 C 0.01287 0.36981 0.86403 0.0
C2339 C 0.01615 0.3424 0.86964 0.0
C2340 C 0.01515 0.38931 0.88417 0.0
C2341 C 0.02296 0.33508 0.8958 0.0
C2342 C 0.02525 0.35444 0.91604 0.0
C2343 C 0.02207 0.40132 0.93093 0.0
C2344 C 0.01763 0.42862 0.9251 0.0
C2345 C 0.02097 0.38166 0.91058 0.0
C2346 C 0.01245 0.43565 0.89844 0.0
C2347 C 0.01116 0.41635 0.87835 0.0
H2348 H 0.6529 0.02576 0.84229 0.0
H2349 H 0.71688 0.01371 0.89822 0.0
H2350 H 0.68429 1.00932 0.93447 0.0
H2351 H 0.63717 0.01052 0.95072 0.0
H2352 H 0.57414 0.02339 0.89363 0.0
H2353 H 0.60673 0.02641 0.85796 0.0
C2354 C 0.65995 0.02248 0.86243 0.0
C2355 C 0.68769 0.02053 0.86728 0.0
C2356 C 0.64107 0.02024 0.88323 0.0
C2357 C 0.69589 0.01531 0.89359 0.0
C2358 C 0.67715 0.01296 0.91445 0.0
C2359 C 0.6305 0.01393 0.93049 0.0
C2360 C 0.60284 0.01663 0.92525 0.0
C2361 C 0.64962 0.01564 0.9096 0.0
C2362 C 0.59497 0.02101 0.89866 0.0
C2363 C 0.61372 0.02281 0.87805 0.0
H2364 H 1.00033 0.64637 0.83655 0.0
H2365 H 0.01048 0.71335 0.88892 0.0
H2366 H 0.01906 0.68281 0.92638 0.0
H2367 H 0.01965 0.63635 0.94502 0.0
H2368 H 1.00833 0.57039 0.89094 0.0
H2369 H 1.00406 0.60104 0.85393 0.0
C2370 C 1.00503 0.65436 0.85606 0.0
C2371 C 1.00497 0.68225 0.85974 0.0
C2372 C 1.00922 0.63668 0.87751 0.0
C2373 C 0.01084 0.69211 0.88528 0.0
C2374 C 0.01538 0.67454 0.90681 0.0
C2375 C 0.01641 0.62863 0.92514 0.0
C2376 C 0.0142 0.60069 0.92125 0.0
C2377 C 0.01395 0.64668 0.90335 0.0
C2378 C 1.01014 0.59146 0.89505 0.0
C2379 C 1.00767 0.60909 0.87362 0.0
H2380 H 0.18631 0.38034 1.00451 0.0
H2381 H 0.13053 0.31654 0.01781 0.0
H2382 H 0.09432 0.34916 0.02256 0.0
H2383 H 0.0779 0.39616 0.01991 0.0
H2384 H 0.13491 0.45912 1.0062 0.0
H2385 H 0.17073 0.42662 1.00433 0.0
C2386 C 0.16625 0.37344 1.0086 0.0
C2387 C 0.16134 0.34574 0.01057 0.0
C2388 C 0.14548 0.39233 0.01091 0.0
C2389 C 0.13516 0.33754 0.01634 0.0
C2390 C 0.11433 0.35628 0.01879 0.0
C2391 C 0.09815 0.40286 0.01659 0.0
C2392 C 0.10329 0.43046 0.01306 0.0
C2393 C 0.11912 0.38379 0.01561 0.0
C2394 C 0.12992 0.43834 1.00899 0.0
C2395 C 0.15061 0.41964 1.0079 0.0
H2396 H 0.18693 0.65073 0.01591 0.0
H2397 H 0.13183 0.7162 0.01039 0.0
H2398 H 0.09471 0.68454 1.00576 0.0
H2399 H 0.07754 0.63763 1.00651 0.0
H2400 H 0.13422 0.57325 0.01358 0.0
H2401 H 0.17056 0.60499 0.01491 0.0
C2402 C 0.16681 0.65824 0.01364 0.0
C2403 C 0.16237 0.68605 0.01382 0.0
C2404 C 0.14559 0.63992 0.01165 0.0
C2405 C 0.13608 0.69508 1.01022 0.0
C2406 C 0.11476 0.67687 1.00785 0.0
C2407 C 0.09783 0.63048 1.00826 0.0
C2408 C 0.1027 0.60268 1.01006 0.0
C2409 C 0.11917 0.64915 1.00908 0.0
C2410 C 0.12938 0.59421 0.01219 0.0
C2411 C 0.15041 0.61246 0.01294 0.0
H2412 H 0.3807 0.1864 0.99347 0.0
H2413 H 0.3162 0.13341 0.01279 0.0
H2414 H 0.34832 0.09722 0.02085 0.0
H2415 H 0.39514 0.07961 0.01858 0.0
H2416 H 0.45869 0.13412 0.9987 0.0
H2417 H 0.42679 0.17019 0.99459 0.0
C2418 C 0.37366 0.16709 1.00011 0.0
C2419 C 0.34593 0.16288 1.00282 0.0
C2420 C 0.39223 0.14629 1.00409 0.0
C2421 C 0.3373 0.13754 0.01106 0.0
C2422 C 0.35575 0.11669 0.01529 0.0
C2423 C 0.40208 0.09938 0.01346 0.0
C2424 C 0.42971 0.10367 1.0088 0.0
C2425 C 0.38333 0.12061 0.01122 0.0
C2426 C 0.4379 0.12974 1.00241 0.0
C2427 C 0.41955 0.15061 1.00004 0.0
H2428 H 0.84512 0.38304 0.02389 0.0
H2429 H 0.89239 0.32137 0.98755 0.0
H2430 H 0.93151 0.35107 0.98835 0.0
H2431 H 0.95142 0.39647 0.99656 0.0
H2432 H 0.90117 0.45764 0.03026 0.0
H2433 H 0.86428 0.42654 0.03264 0.0
C2434 C 0.86392 0.37592 0.01598 0.0
C2435 C 0.86544 0.34993 1.00524 0.0
C2436 C 0.8859 0.39335 0.01569 0.0
C2437 C 0.89038 0.34112 0.99594 0.0
C2438 C 0.91275 0.35829 0.99618 0.0
C2439 C 0.93243 0.40295 1.00453 0.0
C2440 C 0.92932 0.42977 0.01299 0.0
C2441 C 0.91065 0.38474 1.00554 0.0
C2442 C 0.90438 0.43752 0.02322 0.0
C2443 C 0.88314 0.41961 0.02474 0.0
H2444 H 0.65186 0.84585 1.00791 0.0
H2445 H 0.71614 0.90271 1.0083 0.0
H2446 H 0.68373 0.93919 0.01228 0.0
H2447 H 0.63659 0.95508 0.01339 0.0
H2448 H 0.57314 0.89696 0.01209 0.0
H2449 H 0.6057 0.86121 1.01024 0.0
C2450 C 0.65895 0.86622 1.00866 0.0
C2451 C 0.68666 0.87135 1.00732 0.0
C2452 C 0.64018 0.88706 0.01059 0.0
C2453 C 0.69513 0.89797 1.00925 0.0
C2454 C 0.6765 0.9189 0.01135 0.0
C2455 C 0.6298 0.93461 0.01277 0.0
C2456 C 0.60205 0.92908 0.01279 0.0
C2457 C 0.64888 0.91373 0.01167 0.0
C2458 C 0.59405 0.90222 0.01207 0.0
C2459 C 0.61277 0.88158 0.01101 0.0
H2460 H 0.84396 0.64809 0.99365 0.0
H2461 H 0.89176 0.71051 0.02778 0.0
H2462 H 0.93089 0.68084 0.02698 0.0
H2463 H 0.95047 0.63527 0.02001 0.0
H2464 H 0.90004 0.57322 0.98836 0.0
H2465 H 0.86316 0.60435 0.98533 0.0
C2466 C 0.86299 0.6554 1.0008 0.0
C2467 C 0.86469 0.68159 0.01099 0.0
C2468 C 0.88495 0.63796 1.00118 0.0
C2469 C 0.88972 0.69064 0.01969 0.0
C2470 C 0.91205 0.67348 0.0195 0.0
C2471 C 0.93146 0.62859 0.01232 0.0
C2472 C 0.92825 0.60155 1.0047 0.0
C2473 C 0.90978 0.6468 0.01088 0.0
C2474 C 0.9033 0.59354 0.99479 0.0
C2475 C 0.88208 0.61146 0.99288 0.0
H2476 H 0.38562 0.84236 0.0228 0.0
H2477 H 0.31793 0.89468 0.01906 0.0
H2478 H 0.34788 0.93292 0.01185 0.0
H2479 H 0.39432 0.95201 0.01062 0.0
H2480 H 0.46088 0.89762 0.01551 0.0
H2481 H 0.43061 0.86031 0.01844 0.0
C2482 C 0.37731 0.86207 0.0198 0.0
C2483 C 0.34942 0.86545 0.02126 0.0
C2484 C 0.39468 0.88393 0.0164 0.0
C2485 C 0.33917 0.89126 0.01758 0.0
C2486 C 0.35642 0.91323 0.01383 0.0
C2487 C 0.40224 0.93202 0.01218 0.0
C2488 C 0.4303 0.92818 0.01303 0.0
C2489 C 0.38437 0.90995 0.01387 0.0
C2490 C 0.43974 0.90179 0.01492 0.0
C2491 C 0.42232 0.88014 0.01657 0.0
H2492 H 0.65358 0.18486 0.02015 0.0
H2493 H 0.71614 0.12888 1.00236 0.0
H2494 H 0.683 0.09307 0.99868 0.0
H2495 H 0.63602 0.07717 1.00258 0.0
H2496 H 0.57415 0.13428 0.02016 0.0
H2497 H 0.60715 0.16969 0.02211 0.0
C2498 C 0.66012 0.16482 0.01555 0.0
C2499 C 0.68763 0.15971 0.01192 0.0
C2500 C 0.64093 0.14431 0.01359 0.0
C2501 C 0.6953 0.1336 1.00526 0.0
C2502 C 0.67627 0.11303 1.00332 0.0
C2503 C 0.62968 0.09735 1.00682 0.0
C2504 C 0.60228 0.10268 0.01138 0.0
C2505 C 0.64899 0.11803 1.0078 0.0
C2506 C 0.5948 0.12921 0.01656 0.0
C2507 C 0.61378 0.14964 0.01772 0.0
H2508 H 0.51092 0.66691 0.88183 0.0
H2509 H 0.50078 0.61064 0.8178 0.0
H2510 H 0.49699 0.57438 0.85034 0.0
H2511 H 0.49802 0.55825 0.89735 0.0
H2512 H 0.50874 0.61546 0.96063 0.0
H2513 H 0.5113 0.65126 0.92808 0.0
C2514 C 0.50815 0.64671 0.87478 0.0
C2515 C 0.50652 0.64176 0.84705 0.0
C2516 C 0.5062 0.62588 0.89365 0.0
C2517 C 0.50206 0.61534 0.8388 0.0
C2518 C 0.50006 0.59448 0.8575 0.0
C2519 C 0.50088 0.57853 0.9041 0.0
C2520 C 0.50314 0.58379 0.93179 0.0
C2521 C 0.50232 0.59943 0.88504 0.0
C2522 C 0.50677 0.61044 0.93976 0.0
C2523 C 0.5083 0.63109 0.92104 0.0
H2524 H 0.33231 0.51452 0.8824 0.0
H2525 H 0.38564 0.49556 0.81806 0.0
H2526 H 0.42177 0.48756 0.85025 0.0
H2527 H 0.43921 0.48995 0.89707 0.0
H2528 H 0.3843 0.5096 0.96043 0.0
H2529 H 0.34831 0.51336 0.9285 0.0
C2530 C 0.35167 0.50791 0.87543 0.0
C2531 C 0.35603 0.50526 0.84776 0.0
C2532 C 0.37241 0.50401 0.89403 0.0
C2533 C 0.38144 0.49718 0.83916 0.0
C2534 C 0.40223 0.493 0.85764 0.0
C2535 C 0.41937 0.49497 0.90395 0.0
C2536 C 0.41497 0.49973 0.93151 0.0
C2537 C 0.39818 0.49703 0.88518 0.0
C2538 C 0.38881 0.50592 0.93967 0.0
C2539 C 0.36797 0.50807 0.9213 0.0
H2540 H 0.53906 0.37212 0.84542 0.0
H2541 H 0.48107 0.31493 0.87209 0.0
H2542 H 0.47093 0.34311 0.91093 0.0
H2543 H 0.48124 0.38326 0.93939 0.0
H2544 H 0.54001 0.43921 0.9111 0.0
H2545 H 0.54759 0.41214 0.87169 0.0
C2546 C 0.52383 0.36596 0.85946 0.0
C2547 C 0.5108 0.34134 0.85554 0.0
C2548 C 0.51876 0.38186 0.88211 0.0
C2549 C 0.49114 0.33388 0.87414 0.0
C2550 C 0.48568 0.34985 0.89668 0.0
C2551 C 0.49584 0.38934 0.92471 0.0
C2552 C 0.51027 0.41329 0.9286 0.0
C2553 C 0.49987 0.37366 0.90133 0.0
C2554 C 0.5287 0.42097 0.9089 0.0
C2555 C 0.53299 0.40551 0.88617 0.0
H2556 H 0.67565 0.5006 0.88657 0.0
H2557 H 0.62127 0.49943 0.82022 0.0
H2558 H 0.5836 0.49527 0.85118 0.0
H2559 H 0.56571 0.4945 0.89777 0.0
H2560 H 0.62144 0.49662 0.96326 0.0
H2561 H 0.65839 0.49833 0.93212 0.0
C2562 C 0.65559 0.49954 0.8787 0.0
C2563 C 0.6516 0.50067 0.8508 0.0
C2564 C 0.63396 0.49757 0.89667 0.0
C2565 C 0.62527 0.4985 0.84138 0.0
C2566 C 0.60359 0.49635 0.8592 0.0
C2567 C 0.58591 0.49528 0.9053 0.0
C2568 C 0.59033 0.49553 0.93324 0.0
C2569 C 0.6076 0.49628 0.887 0.0
C2570 C 0.61694 0.4964 0.94218 0.0
C2571 C 0.63831 0.4974 0.92426 0.0
H2572 H 0.50763 0.32405 0.1514 0.0
H2573 H 0.49743 0.3788 0.21664 0.0
H2574 H 0.49251 0.41571 0.18485 0.0
H2575 H 0.49394 0.43298 0.13802 0.0
H2576 H 0.5047 0.37691 0.07367 0.0
H2577 H 0.50693 0.34053 0.10546 0.0
C2578 C 0.50426 0.34404 0.15882 0.0
C2579 C 0.50317 0.34843 0.18666 0.0
C2580 C 0.50184 0.36521 0.1404 0.0
C2581 C 0.49823 0.37456 0.19551 0.0
C2582 C 0.49567 0.39578 0.17724 0.0
C2583 C 0.49667 0.41281 0.13088 0.0
C2584 C 0.49918 0.40811 0.10308 0.0
C2585 C 0.4979 0.39148 0.14955 0.0
C2586 C 0.50258 0.38158 0.09462 0.0
C2587 C 0.50392 0.36055 0.11291 0.0
H2588 H 0.67424 0.49609 0.15077 0.0
H2589 H 0.62017 0.50035 0.21731 0.0
H2590 H 0.58216 0.49749 0.1866 0.0
H2591 H 0.56405 0.4966 0.13993 0.0
H2592 H 0.61989 0.49338 0.07443 0.0
H2593 H 0.65679 0.4934 0.10543 0.0
C2594 C 0.65417 0.49643 0.15874 0.0
C2595 C 0.65039 0.49877 0.18659 0.0
C2596 C 0.63241 0.49527 0.1409 0.0
C2597 C 0.624 0.49846 0.19617 0.0
C2598 C 0.60215 0.49707 0.17848 0.0
C2599 C 0.58426 0.49586 0.13239 0.0
C2600 C 0.58868 0.49526 0.10442 0.0
C2601 C 0.60603 0.49595 0.15066 0.0
C2602 C 0.61532 0.49413 0.09549 0.0
C2603 C 0.63671 0.49407 0.11334 0.0
H2604 H 0.50896 0.67075 0.14672 0.0
H2605 H 0.51434 0.6188 0.21461 0.0
H2606 H 0.5076 0.57991 0.18544 0.0
H2607 H 0.50424 0.56042 0.13926 0.0
H2608 H 0.5 0.61459 0.07243 0.0
H2609 H 0.50241 0.6522 0.10229 0.0
C2610 C 0.50803 0.65094 0.15529 0.0
C2611 C 0.5119 0.64787 0.18297 0.0
C2612 C 0.5049 0.62876 0.13831 0.0
C2613 C 0.51094 0.62194 0.19355 0.0
C2614 C 0.50745 0.59963 0.17671 0.0
C2615 C 0.50367 0.58043 0.13121 0.0
C2616 C 0.50225 0.58413 0.10316 0.0
C2617 C 0.50509 0.60269 0.14884 0.0
C2618 C 0.5014 0.61052 0.09355 0.0
C2619 C 0.50268 0.63235 0.11074 0.0
H2620 H 0.33231 0.514 0.15363 0.0
H2621 H 0.38475 0.48948 0.21675 0.0
H2622 H 0.42017 0.4806 0.18396 0.0
H2623 H 0.43742 0.48357 0.13719 0.0
H2624 H 0.38364 0.50817 0.0748 0.0
H2625 H 0.34798 0.51332 0.10723 0.0
C2626 C 0.3513 0.50604 0.16017 0.0
C2627 C 0.35567 0.50208 0.18769 0.0
C2628 C 0.37163 0.50145 0.14122 0.0
C2629 C 0.38057 0.49219 0.19577 0.0
C2630 C 0.40096 0.48747 0.17697 0.0
C2631 C 0.41785 0.48987 0.13063 0.0
C2632 C 0.41354 0.4955 0.10325 0.0
C2633 C 0.39696 0.49263 0.14962 0.0
C2634 C 0.38783 0.50349 0.09543 0.0
C2635 C 0.36727 0.50653 0.11407 0.0
H2636 H 0.8663 0.50793 0.68882 0.0
H2637 H 0.8013 0.49955 0.63374 0.0
H2638 H 0.83314 0.49145 0.59726 0.0
H2639 H 0.88016 0.49114 0.58035 0.0
H2640 H 0.94425 0.50066 0.63696 0.0
H2641 H 0.9123 0.50399 0.67302 0.0
C2642 C 0.85905 0.50354 0.66895 0.0
C2643 C 0.83135 0.50392 0.66419 0.0
C2644 C 0.8775 0.49969 0.64806 0.0
C2645 C 0.82238 0.49878 0.63817 0.0
C2646 C 0.84069 0.49455 0.61722 0.0
C2647 C 0.88719 0.49379 0.60057 0.0
C2648 C 0.91497 0.49588 0.60548 0.0
C2649 C 0.86841 0.4957 0.62176 0.0
C2650 C 0.92331 0.4991 0.63209 0.0
C2651 C 0.90494 0.50099 0.65296 0.0
H2652 H 0.50692 0.86244 0.68893 0.0
H2653 H 0.48198 0.79895 0.63701 0.0
H2654 H 0.48451 0.82951 0.59862 0.0
H2655 H 0.49087 0.87574 0.58044 0.0
H2656 H 0.51386 0.93842 0.63471 0.0
H2657 H 0.51444 0.90691 0.6713 0.0
C2658 C 0.50198 0.85512 0.66922 0.0
C2659 C 0.49386 0.82835 0.66609 0.0
C2660 C 0.50278 0.87292 0.64756 0.0
C2661 C 0.48828 0.81931 0.64018 0.0
C2662 C 0.48951 0.83693 0.61824 0.0
C2663 C 0.49613 0.8825 0.60024 0.0
C2664 C 0.50213 0.90982 0.6045 0.0
C2665 C 0.49625 0.86402 0.62174 0.0
C2666 C 0.50888 0.91788 0.63049 0.0
C2667 C 0.50933 0.89975 0.6516 0.0
H2668 H 0.13609 0.50216 0.69112 0.0
H2669 H 0.20068 0.49002 0.63588 0.0
H2670 H 0.16852 0.48509 0.59934 0.0
H2671 H 0.12167 0.48716 0.58249 0.0
H2672 H 0.05789 0.49989 0.6389 0.0
H2673 H 0.08999 0.50201 0.67504 0.0
C2674 C 0.14327 0.49835 0.6711 0.0
C2675 C 0.17106 0.49673 0.66646 0.0
C2676 C 0.12464 0.49596 0.65013 0.0
C2677 C 0.17961 0.49123 0.64032 0.0
C2678 C 0.16113 0.48867 0.6193 0.0
C2679 C 0.1147 0.49033 0.60268 0.0
C2680 C 0.087 0.49349 0.60755 0.0
C2681 C 0.13353 0.49149 0.62384 0.0
C2682 C 0.07877 0.49738 0.63411 0.0
C2683 C 0.09723 0.49862 0.65499 0.0
H2684 H 0.50973 0.12831 0.68983 0.0
H2685 H 0.49204 0.19381 0.63739 0.0
H2686 H 0.48675 0.16254 0.60006 0.0
H2687 H 0.48999 0.11617 0.58161 0.0
H2688 H 0.50813 0.05172 0.63564 0.0
H2689 H 0.51075 0.08285 0.67245 0.0
C2690 C 0.50458 0.13586 0.67027 0.0
C2691 C 0.50151 0.16361 0.6666 0.0
C2692 C 0.50195 0.11779 0.64887 0.0
C2693 C 0.49438 0.17269 0.64105 0.0
C2694 C 0.49162 0.15474 0.61958 0.0
C2695 C 0.49443 0.1089 0.60144 0.0
C2696 C 0.49884 0.08126 0.60544 0.0
C2697 C 0.49583 0.12719 0.62309 0.0
C2698 C 0.50444 0.07256 0.63154 0.0
C2699 C 0.50602 0.09046 0.65282 0.0
H2700 H 0.87019 0.5029 0.34549 0.0
H2701 H 0.80401 0.49992 0.39989 0.0
H2702 H 0.83496 0.49307 0.4373 0.0
H2703 H 0.88164 0.49237 0.45502 0.0
H2704 H 0.94705 0.49633 0.39912 0.0
H2705 H 0.91583 0.49841 0.36233 0.0
C2706 C 0.86245 0.49997 0.36547 0.0
C2707 C 0.83466 0.50153 0.3697 0.0
C2708 C 0.88044 0.49682 0.38687 0.0
C2709 C 0.82513 0.49821 0.39584 0.0
C2710 C 0.84296 0.49471 0.41732 0.0
C2711 C 0.88914 0.49356 0.43481 0.0
C2712 C 0.91708 0.49455 0.43031 0.0
C2713 C 0.87078 0.49473 0.41321 0.0
C2714 C 0.92598 0.49582 0.4037 0.0
C2715 C 0.90802 0.49694 0.3824 0.0
H2716 H 0.50434 0.86274 0.34532 0.0
H2717 H 0.50559 0.79678 0.40016 0.0
H2718 H 0.50107 0.82794 0.43772 0.0
H2719 H 0.49984 0.87474 0.45516 0.0
H2720 H 0.50022 0.93967 0.39863 0.0
H2721 H 0.50163 0.90824 0.36206 0.0
C2722 C 0.50362 0.85501 0.36548 0.0
C2723 C 0.50563 0.82723 0.36969 0.0
C2724 C 0.50168 0.87307 0.38692 0.0
C2725 C 0.50398 0.81788 0.39608 0.0
C2726 C 0.50167 0.83582 0.41764 0.0
C2727 C 0.50012 0.88207 0.43487 0.0
C2728 C 0.49998 0.90995 0.43009 0.0
C2729 C 0.50101 0.86359 0.41337 0.0
C2730 C 0.50032 0.91865 0.4034 0.0
C2731 C 0.50111 0.90058 0.38223 0.0
H2732 H 0.14235 0.52998 0.35933 0.0
H2733 H 0.1913 0.46513 0.38767 0.0
H2734 H 0.15991 0.45788 0.42426 0.0
H2735 H 0.11697 0.46891 0.44774 0.0
H2736 H 0.06633 0.52956 0.41417 0.0
H2737 H 0.09936 0.5385 0.37965 0.0
C2738 C 0.14621 0.51353 0.37267 0.0
C2739 C 0.1696 0.49787 0.36966 0.0
C2740 C 0.12734 0.50852 0.39298 0.0
C2741 C 0.17397 0.47785 0.38893 0.0
C2742 C 0.15574 0.47346 0.40994 0.0
C2743 C 0.11319 0.484 0.43278 0.0
C2744 C 0.08899 0.49854 0.43367 0.0
C2745 C 0.13215 0.48853 0.41211 0.0
C2746 C 0.0845 0.51791 0.41397 0.0
C2747 C 0.10351 0.52313 0.39422 0.0
H2748 H 0.51896 0.1296 0.34659 0.0
H2749 H 0.50084 0.19467 0.39924 0.0
H2750 H 0.49279 0.16294 0.43582 0.0
H2751 H 0.49486 0.11628 0.45382 0.0
H2752 H 0.51395 0.05225 0.3996 0.0
H2753 H 0.51777 0.08377 0.36321 0.0
C2754 C 0.51258 0.13686 0.36593 0.0
C2755 C 0.51022 0.1646 0.36994 0.0
C2756 C 0.5087 0.11853 0.38693 0.0
C2757 C 0.50231 0.17354 0.3953 0.0
C2758 C 0.49809 0.15531 0.41635 0.0
C2759 C 0.49976 0.10916 0.43405 0.0
C2760 C 0.50431 0.08152 0.42995 0.0
C2761 C 0.5019 0.1277 0.41263 0.0
C2762 C 0.5104 0.07307 0.40387 0.0
C2763 C 0.51258 0.0912 0.3828 0.0
H2764 H 0.67163 0.86056 0.51706 0.0
H2765 H 0.61544 0.79571 0.5183 0.0
H2766 H 0.57855 0.82774 0.52081 0.0
H2767 H 0.56198 0.87477 0.52085 0.0
H2768 H 0.61948 0.93873 0.51912 0.0
H2769 H 0.6556 0.90659 0.51814 0.0
C2770 C 0.65134 0.85323 0.51763 0.0
C2771 C 0.64662 0.82542 0.51706 0.0
C2772 C 0.63019 0.87181 0.51884 0.0
C2773 C 0.61998 0.81677 0.51872 0.0
C2774 C 0.59877 0.8352 0.51999 0.0
C2775 C 0.58239 0.88176 0.52032 0.0
C2776 C 0.58757 0.90957 0.52002 0.0
C2777 C 0.60357 0.86287 0.51978 0.0
C2778 C 0.61442 0.91779 0.51941 0.0
C2779 C 0.6353 0.89929 0.51882 0.0
H2780 H 0.67316 0.12912 0.51881 0.0
H2781 H 0.61817 0.19493 0.51715 0.0
H2782 H 0.58062 0.16365 0.51979 0.0
H2783 H 0.56316 0.1169 0.51952 0.0
H2784 H 0.6196 0.05197 0.52033 0.0
H2785 H 0.65625 0.08343 0.52067 0.0
C2786 C 0.65298 0.13679 0.51904 0.0
C2787 C 0.64877 0.16462 0.51747 0.0
C2788 C 0.63146 0.11863 0.52006 0.0
C2789 C 0.62229 0.17382 0.51847 0.0
C2790 C 0.60071 0.15581 0.51971 0.0
C2791 C 0.58345 0.10956 0.51981 0.0
C2792 C 0.58816 0.08167 0.51957 0.0
C2793 C 0.60498 0.12806 0.52 0.0
C2794 C 0.61486 0.07299 0.5202 0.0
C2795 C 0.63608 0.09109 0.52047 0.0
H2796 H 0.87124 0.66841 0.51468 0.0
H2797 H 0.80565 0.61679 0.53447 0.0
H2798 H 0.83542 0.5779 0.53097 0.0
H2799 H 0.88152 0.55887 0.52517 0.0
H2800 H 0.94618 0.61282 0.50718 0.0
H2801 H 0.91557 0.65008 0.5077 0.0
C2802 C 0.86327 0.64866 0.51825 0.0
C2803 C 0.83608 0.6458 0.52518 0.0
C2804 C 0.88062 0.62661 0.51688 0.0
C2805 C 0.8263 0.61982 0.52905 0.0
C2806 C 0.84349 0.59755 0.52728 0.0
C2807 C 0.88893 0.57874 0.5212 0.0
C2808 C 0.91657 0.5826 0.51623 0.0
C2809 C 0.87092 0.6007 0.52168 0.0
C2810 C 0.92538 0.60876 0.51122 0.0
C2811 C 0.90777 0.63031 0.51145 0.0
H2812 H 0.32863 0.86255 0.50407 0.0
H2813 H 0.38266 0.79688 0.51411 0.0
H2814 H 0.41965 0.82834 0.52124 0.0
H2815 H 0.4373 0.87514 0.52045 0.0
H2816 H 0.38163 0.9398 0.50922 0.0
H2817 H 0.34514 0.90833 0.50659 0.0
C2818 C 0.34841 0.85507 0.50848 0.0
C2819 C 0.35268 0.82726 0.50882 0.0
C2820 C 0.36958 0.87327 0.51177 0.0
C2821 C 0.37856 0.81804 0.51422 0.0
C2822 C 0.39982 0.83613 0.51791 0.0
C2823 C 0.4172 0.88241 0.51752 0.0
C2824 C 0.41271 0.91022 0.51473 0.0
C2825 C 0.39574 0.86389 0.51602 0.0
C2826 C 0.38622 0.91884 0.51122 0.0
C2827 C 0.36509 0.90074 0.50977 0.0
H2828 H 0.13712 0.32331 0.51047 0.0
H2829 H 0.20139 0.37851 0.52385 0.0
H2830 H 0.16905 0.41489 0.52901 0.0
H2831 H 0.12216 0.43163 0.52668 0.0
H2832 H 0.05875 0.3752 0.51273 0.0
H2833 H 0.09098 0.33921 0.51048 0.0
C2834 C 0.14418 0.34328 0.51462 0.0
C2835 C 0.17191 0.34799 0.51651 0.0
C2836 C 0.12547 0.36415 0.51713 0.0
C2837 C 0.18034 0.37405 0.52243 0.0
C2838 C 0.16177 0.39497 0.52511 0.0
C2839 C 0.11531 0.41147 0.52322 0.0
C2840 C 0.08768 0.40654 0.51973 0.0
C2841 C 0.13422 0.39039 0.522 0.0
C2842 C 0.07958 0.38002 0.51547 0.0
C2843 C 0.09812 0.35923 0.51417 0.0
H2844 H 0.3316 0.13138 0.49792 0.0
H2845 H 0.38433 0.19516 0.51995 0.0
H2846 H 0.4199 0.1627 0.52918 0.0
H2847 H 0.43714 0.11591 0.52711 0.0
H2848 H 0.38295 0.05294 0.50493 0.0
H2849 H 0.34728 0.08514 0.49951 0.0
C2850 C 0.35068 0.13815 0.50544 0.0
C2851 C 0.35509 0.16574 0.50858 0.0
C2852 C 0.37109 0.1194 0.51018 0.0
C2853 C 0.38012 0.17412 0.51789 0.0
C2854 C 0.40059 0.1555 0.52279 0.0
C2855 C 0.41749 0.10917 0.52128 0.0
C2856 C 0.41311 0.08169 0.51637 0.0
C2857 C 0.39655 0.12805 0.51838 0.0
C2858 C 0.38726 0.07366 0.509 0.0
C2859 C 0.36667 0.09217 0.50583 0.0
H2860 H 0.86617 0.32504 0.50376 0.0
H2861 H 0.80177 0.37903 0.52033 0.0
H2862 H 0.83403 0.41509 0.52838 0.0
H2863 H 0.88098 0.4322 0.52662 0.0
H2864 H 0.94443 0.37676 0.50913 0.0
H2865 H 0.91234 0.34083 0.50542 0.0
C2866 C 0.85918 0.34455 0.50983 0.0
C2867 C 0.83148 0.34912 0.51176 0.0
C2868 C 0.87783 0.36524 0.51373 0.0
C2869 C 0.82286 0.37469 0.51922 0.0
C2870 C 0.8414 0.39543 0.52344 0.0
C2871 C 0.88785 0.41225 0.52213 0.0
C2872 C 0.91547 0.40761 0.51804 0.0
C2873 C 0.86899 0.39115 0.52006 0.0
C2874 C 0.92362 0.38135 0.51244 0.0
C2875 C 0.90516 0.36058 0.51028 0.0
H2876 H 0.13524 0.66621 0.51994 0.0
H2877 H 0.20122 0.6115 0.51641 0.0
H2878 H 0.1701 0.57385 0.52005 0.0
H2879 H 0.12328 0.55627 0.52116 0.0
H2880 H 0.05831 0.61269 0.52316 0.0
H2881 H 0.08973 0.6493 0.5226 0.0
C2882 C 0.143 0.64607 0.51993 0.0
C2883 C 0.1708 0.64197 0.51756 0.0
C2884 C 0.12494 0.62454 0.5214 0.0
C2885 C 0.18012 0.61554 0.51832 0.0
C2886 C 0.1622 0.59391 0.52013 0.0
C2887 C 0.11593 0.57655 0.52159 0.0
C2888 C 0.08802 0.58125 0.52211 0.0
C2889 C 0.13442 0.5981 0.52118 0.0
C2890 C 0.07933 0.60794 0.52271 0.0
C2891 C 0.09741 0.62914 0.52241 0.0
loop_
_geom_bond_atom_site_label_1
_geom_bond_atom_site_label_2
_geom_bond_distance
_geom_bond_site_symmetry_2
_ccdc_geom_bond_type
C0 C1 1.391 . S
C0 C4 1.391 . S
C0 H42 0.948 . S
C1 C0 1.391 . S
C1 C2 1.391 . S
C2 C1 1.391 . S
C2 H58 0.947 . S
C2 C59 1.392 . S
C3 C4 1.391 . S
C3 C7 1.396 1_655 S
C3 C59 1.419 . S
C4 C0 1.391 . S
C4 C3 1.391 . S
C4 C5 1.399 . S
C5 C4 1.399 . S
C5 C8 1.396 1_655 S
C5 C17 1.453 1_655 S
C5 C18 1.684 . S
H6 C30 0.948 . S
C7 C3 1.396 1_455 S
C7 C8 1.395 . S
C7 C26 1.723 . S
C8 C5 1.396 1_455 S
C8 C7 1.395 . S
C8 C38 1.723 . S
H9 C32 0.947 . S
H10 C33 0.948 . S
H11 C39 0.982 . S
H12 C40 0.979 . S
H13 C40 0.980 . S
H14 C40 0.983 . S
H15 C39 0.979 . S
H16 C39 0.977 . S
C17 C5 1.453 1_455 S
C17 H46 0.982 . S
C17 H47 0.979 . S
C17 H48 0.977 . S
C18 C5 1.684 . S
C18 H43 0.979 . S
C18 H44 0.980 . S
C18 H45 0.983 . S
C19 C20 1.391 . S
C19 C24 1.391 . S
C19 H49 0.948 . S
C20 C19 1.391 . S
C20 C21 1.391 . S
C21 C20 1.391 . S
C21 C22 1.392 . S
C21 H50 0.947 . S
C22 C21 1.392 . S
C22 C23 1.419 . S
C22 H51 0.948 . S
C23 C22 1.419 . S
C23 C24 1.391 . S
C23 C27 1.396 1_655 S
C24 C19 1.391 . S
C24 C23 1.391 . S
C24 C25 1.399 . S
C25 C24 1.399 . S
C25 C26 1.396 1_655 S
C25 C28 1.453 1_655 S
C25 C29 1.684 . S
C26 C7 1.723 . S
C26 C25 1.396 1_455 S
C26 C27 1.395 . S
C27 C23 1.396 1_455 S
C27 C26 1.395 . S
C27 C37 1.723 . S
C28 C25 1.453 1_455 S
C28 H52 0.982 . S
C28 H53 0.979 . S
C28 H54 0.977 . S
C29 C25 1.684 . S
C29 H55 0.979 . S
C29 H56 0.980 . S
C29 H57 0.983 . S
C30 H6 0.948 . S
C30 C31 1.391 . S
C30 C35 1.391 . S
C31 C30 1.391 . S
C31 C32 1.391 . S
C32 H9 0.947 . S
C32 C31 1.391 . S
C32 C33 1.392 . S
C33 H10 0.948 . S
C33 C32 1.392 . S
C33 C34 1.419 . S
C34 C33 1.419 . S
C34 C35 1.391 . S
C34 C38 1.396 1_655 S
C35 C30 1.391 . S
C35 C34 1.391 . S
C35 C36 1.399 . S
C36 C35 1.399 . S
C36 C37 1.396 1_655 S
C36 C39 1.453 1_655 S
C36 C40 1.684 . S
C37 C27 1.723 . S
C37 C36 1.396 1_455 S
C37 C38 1.395 . S
C38 C8 1.723 . S
C38 C34 1.396 1_455 S
C38 C37 1.395 . S
C39 H11 0.982 . S
C39 H15 0.979 . S
C39 H16 0.977 . S
C39 C36 1.453 1_455 S
C40 H12 0.979 . S
C40 H13 0.980 . S
C40 H14 0.983 . S
C40 C36 1.684 . S
H41 C59 0.948 . S
H42 C0 0.948 . S
H43 C18 0.979 . S
H44 C18 0.980 . S
H45 C18 0.983 . S
H46 C17 0.982 . S
H47 C17 0.979 . S
H48 C17 0.977 . S
H49 C19 0.948 . S
H50 C21 0.947 . S
H51 C22 0.948 . S
H52 C28 0.982 . S
H53 C28 0.979 . S
H54 C28 0.977 . S
H55 C29 0.979 . S
H56 C29 0.980 . S
H57 C29 0.983 . S
H58 C2 0.947 . S
C59 C2 1.392 . S
C59 C3 1.419 . S
C59 H41 0.948 . S
C60 C61 1.391 . S
C60 C64 1.391 . S
C60 H102 0.948 . S
C61 C60 1.391 . S
C61 C62 1.391 . S
C62 C61 1.391 . S
C62 H118 0.947 . S
C62 C119 1.392 . S
C63 C64 1.391 . S
C63 C67 1.397 1_545 S
C63 C119 1.419 . S
C64 C60 1.391 . S
C64 C63 1.391 . S
C64 C65 1.399 . S
C65 C64 1.399 . S
C65 C68 1.396 1_545 S
C65 C77 1.453 1_545 S
C65 C78 1.684 . S
H66 C90 0.948 . S
C67 C63 1.397 1_565 S
C67 C68 1.394 . S
C67 C86 1.723 . S
C68 C65 1.396 1_565 S
C68 C67 1.394 . S
C68 C98 1.723 . S
H69 C92 0.947 . S
H70 C93 0.948 . S
H71 C99 0.982 . S
H72 C100 0.979 . S
H73 C100 0.980 . S
H74 C100 0.983 . S
H75 C99 0.979 . S
H76 C99 0.977 . S
C77 C65 1.453 1_565 S
C77 H106 0.982 . S
C77 H107 0.979 . S
C77 H108 0.977 . S
C78 C65 1.684 . S
C78 H103 0.979 . S
C78 H104 0.980 . S
C78 H105 0.983 . S
C79 C80 1.391 . S
C79 C84 1.391 . S
C79 H109 0.948 . S
C80 C79 1.391 . S
C80 C81 1.391 . S
C81 C80 1.391 . S
C81 C82 1.392 . S
C81 H110 0.947 . S
C82 C81 1.392 . S
C82 C83 1.419 . S
C82 H111 0.948 . S
C83 C82 1.419 . S
C83 C84 1.391 . S
C83 C87 1.397 1_545 S
C84 C79 1.391 . S
C84 C83 1.391 . S
C84 C85 1.399 . S
C85 C84 1.399 . S
C85 C86 1.396 1_545 S
C85 C88 1.453 1_545 S
C85 C89 1.684 . S
C86 C67 1.723 . S
C86 C85 1.396 1_565 S
C86 C87 1.394 . S
C87 C83 1.397 1_565 S
C87 C86 1.394 . S
C87 C97 1.723 . S
C88 C85 1.453 1_565 S
C88 H112 0.982 . S
C88 H113 0.979 . S
C88 H114 0.977 . S
C89 C85 1.684 . S
C89 H115 0.979 . S
C89 H116 0.980 . S
C89 H117 0.983 . S
C90 H66 0.948 . S
C90 C91 1.391 . S
C90 C95 1.391 . S
C91 C90 1.391 . S
C91 C92 1.391 . S
C92 H69 0.947 . S
C92 C91 1.391 . S
C92 C93 1.392 . S
C93 H70 0.948 . S
C93 C92 1.392 . S
C93 C94 1.419 . S
C94 C93 1.419 . S
C94 C95 1.391 . S
C94 C98 1.397 1_545 S
C95 C90 1.391 . S
C95 C94 1.391 . S
C95 C96 1.399 . S
C96 C95 1.399 . S
C96 C97 1.396 1_545 S
C96 C99 1.453 1_545 S
C96 C100 1.684 . S
C97 C87 1.723 . S
C97 C96 1.396 1_565 S
C97 C98 1.394 . S
C98 C68 1.723 . S
C98 C94 1.397 1_565 S
C98 C97 1.394 . S
C99 H71 0.982 . S
C99 H75 0.979 . S
C99 H76 0.977 . S
C99 C96 1.453 1_565 S
C100 H72 0.979 . S
C100 H73 0.980 . S
C100 H74 0.983 . S
C100 C96 1.684 . S
H101 C119 0.948 . S
H102 C60 0.948 . S
H103 C78 0.979 . S
H104 C78 0.980 . S
H105 C78 0.983 . S
H106 C77 0.982 . S
H107 C77 0.979 . S
H108 C77 0.977 . S
H109 C79 0.948 . S
H110 C81 0.947 . S
H111 C82 0.948 . S
H112 C88 0.982 . S
H113 C88 0.979 . S
H114 C88 0.977 . S
H115 C89 0.979 . S
H116 C89 0.980 . S
H117 C89 0.983 . S
H118 C62 0.947 . S
C119 C62 1.392 . S
C119 C63 1.419 . S
C119 H101 0.948 . S
C120 C121 1.391 . S
C120 C124 1.391 . S
C120 H162 0.948 . S
C121 C120 1.391 . S
C121 C122 1.391 . S
C122 C121 1.391 . S
C122 H178 0.947 . S
C122 C179 1.392 . S
C123 C124 1.391 . S
C123 C127 1.396 1_655 S
C123 C179 1.419 . S
C124 C120 1.391 . S
C124 C123 1.391 . S
C124 C125 1.399 . S
C125 C124 1.399 . S
C125 C128 1.396 1_655 S
C125 C137 1.453 1_655 S
C125 C138 1.684 . S
H126 C150 0.948 . S
C127 C123 1.396 1_455 S
C127 C128 1.395 . S
C127 C146 1.723 . S
C128 C125 1.396 1_455 S
C128 C127 1.395 . S
C128 C158 1.723 . S
H129 C152 0.947 . S
H130 C153 0.948 . S
H131 C159 0.982 . S
H132 C160 0.979 . S
H133 C160 0.980 . S
H134 C160 0.983 . S
H135 C159 0.979 . S
H136 C159 0.977 . S
C137 C125 1.453 1_455 S
C137 H166 0.982 . S
C137 H167 0.979 . S
C137 H168 0.977 . S
C138 C125 1.684 . S
C138 H163 0.979 . S
C138 H164 0.980 . S
C138 H165 0.983 . S
C139 C140 1.391 . S
C139 C144 1.391 . S
C139 H169 0.948 . S
C140 C139 1.391 . S
C140 C141 1.391 . S
C141 C140 1.391 . S
C141 C142 1.392 . S
C141 H170 0.947 . S
C142 C141 1.392 . S
C142 C143 1.419 . S
C142 H171 0.948 . S
C143 C142 1.419 . S
C143 C144 1.391 . S
C143 C147 1.396 1_655 S
C144 C139 1.391 . S
C144 C143 1.391 . S
C144 C145 1.399 . S
C145 C144 1.399 . S
C145 C146 1.396 1_655 S
C145 C148 1.453 1_655 S
C145 C149 1.684 . S
C146 C127 1.723 . S
C146 C145 1.396 1_455 S
C146 C147 1.395 . S
C147 C143 1.396 1_455 S
C147 C146 1.395 . S
C147 C157 1.723 . S
C148 C145 1.453 1_455 S
C148 H172 0.982 . S
C148 H173 0.979 . S
C148 H174 0.977 . S
C149 C145 1.684 . S
C149 H175 0.979 . S
C149 H176 0.980 . S
C149 H177 0.983 . S
C150 H126 0.948 . S
C150 C151 1.391 . S
C150 C155 1.391 . S
C151 C150 1.391 . S
C151 C152 1.391 . S
C152 H129 0.947 . S
C152 C151 1.391 . S
C152 C153 1.392 . S
C153 H130 0.948 . S
C153 C152 1.392 . S
C153 C154 1.419 . S
C154 C153 1.419 . S
C154 C155 1.391 . S
C154 C158 1.396 1_655 S
C155 C150 1.391 . S
C155 C154 1.391 . S
C155 C156 1.399 . S
C156 C155 1.399 . S
C156 C157 1.396 1_655 S
C156 C159 1.453 1_655 S
C156 C160 1.684 . S
C157 C147 1.723 . S
C157 C156 1.396 1_455 S
C157 C158 1.395 . S
C158 C128 1.723 . S
C158 C154 1.396 1_455 S
C158 C157 1.395 . S
C159 H131 0.982 . S
C159 H135 0.979 . S
C159 H136 0.977 . S
C159 C156 1.453 1_455 S
C160 H132 0.979 . S
C160 H133 0.980 . S
C160 H134 0.983 . S
C160 C156 1.684 . S
H161 C179 0.948 . S
H162 C120 0.948 . S
H163 C138 0.979 . S
H164 C138 0.980 . S
H165 C138 0.983 . S
H166 C137 0.982 . S
H167 C137 0.979 . S
H168 C137 0.977 . S
H169 C139 0.948 . S
H170 C141 0.947 . S
H171 C142 0.948 . S
H172 C148 0.982 . S
H173 C148 0.979 . S
H174 C148 0.977 . S
H175 C149 0.979 . S
H176 C149 0.980 . S
H177 C149 0.983 . S
H178 C122 0.947 . S
C179 C122 1.392 . S
C179 C123 1.419 . S
C179 H161 0.948 . S
C180 C181 1.391 . S
C180 C184 1.391 . S
C180 H222 0.948 . S
C181 C180 1.391 . S
C181 C182 1.391 . S
C182 C181 1.391 . S
C182 H238 0.947 . S
C182 C239 1.392 . S
C183 C184 1.391 . S
C183 C187 1.397 1_545 S
C183 C239 1.419 . S
C184 C180 1.391 . S
C184 C183 1.391 . S
C184 C185 1.399 . S
C185 C184 1.399 . S
C185 C188 1.396 1_545 S
C185 C197 1.453 1_545 S
C185 C198 1.684 . S
H186 C210 0.948 . S
C187 C183 1.397 1_565 S
C187 C188 1.394 . S
C187 C206 1.723 . S
C188 C185 1.396 1_565 S
C188 C187 1.394 . S
C188 C218 1.723 . S
H189 C212 0.947 . S
H190 C213 0.948 . S
H191 C219 0.982 . S
H192 C220 0.979 . S
H193 C220 0.980 . S
H194 C220 0.983 . S
H195 C219 0.979 . S
H196 C219 0.977 . S
C197 C185 1.453 1_565 S
C197 H226 0.982 . S
C197 H227 0.979 . S
C197 H228 0.977 . S
C198 C185 1.684 . S
C198 H223 0.979 . S
C198 H224 0.980 . S
C198 H225 0.983 . S
C199 C200 1.391 . S
C199 C204 1.391 . S
C199 H229 0.948 . S
C200 C199 1.391 . S
C200 C201 1.391 . S
C201 C200 1.391 . S
C201 C202 1.392 . S
C201 H230 0.947 . S
C202 C201 1.392 . S
C202 C203 1.419 . S
C202 H231 0.948 . S
C203 C202 1.419 . S
C203 C204 1.391 . S
C203 C207 1.397 1_545 S
C204 C199 1.391 . S
C204 C203 1.391 . S
C204 C205 1.399 . S
C205 C204 1.399 . S
C205 C206 1.396 1_545 S
C205 C208 1.453 1_545 S
C205 C209 1.684 . S
C206 C187 1.723 . S
C206 C205 1.396 1_565 S
C206 C207 1.394 . S
C207 C203 1.397 1_565 S
C207 C206 1.394 . S
C207 C217 1.723 . S
C208 C205 1.453 1_565 S
C208 H232 0.982 . S
C208 H233 0.979 . S
C208 H234 0.977 . S
C209 C205 1.684 . S
C209 H235 0.979 . S
C209 H236 0.980 . S
C209 H237 0.983 . S
C210 H186 0.948 . S
C210 C211 1.391 . S
C210 C215 1.391 . S
C211 C210 1.391 . S
C211 C212 1.391 . S
C212 H189 0.947 . S
C212 C211 1.391 . S
C212 C213 1.392 . S
C213 H190 0.948 . S
C213 C212 1.392 . S
C213 C214 1.419 . S
C214 C213 1.419 . S
C214 C215 1.391 . S
C214 C218 1.397 1_545 S
C215 C210 1.391 . S
C215 C214 1.391 . S
C215 C216 1.399 . S
C216 C215 1.399 . S
C216 C217 1.396 1_545 S
C216 C219 1.453 1_545 S
C216 C220 1.684 . S
C217 C207 1.723 . S
C217 C216 1.396 1_565 S
C217 C218 1.394 . S
C218 C188 1.723 . S
C218 C214 1.397 1_565 S
C218 C217 1.394 . S
C219 H191 0.982 . S
C219 H195 0.979 . S
C219 H196 0.977 . S
C219 C216 1.453 1_565 S
C220 H192 0.979 . S
C220 H193 0.980 . S
C220 H194 0.983 . S
C220 C216 1.684 . S
H221 C239 0.948 . S
H222 C180 0.948 . S
H223 C198 0.979 . S
H224 C198 0.980 . S
H225 C198 0.983 . S
H226 C197 0.982 . S
H227 C197 0.979 . S
H228 C197 0.977 . S
H229 C199 0.948 . S
H230 C201 0.947 . S
H231 C202 0.948 . S
H232 C208 0.982 . S
H233 C208 0.979 . S
H234 C208 0.977 . S
H235 C209 0.979 . S
H236 C209 0.980 . S
H237 C209 0.983 . S
H238 C182 0.947 . S
C239 C182 1.392 . S
C239 C183 1.419 . S
C239 H221 0.948 . S
C240 C241 1.391 . S
C240 C244 1.391 . S
C240 H282 0.948 . S
C241 C240 1.391 . S
C241 C242 1.391 . S
C242 C241 1.391 . S
C242 H298 0.947 . S
C242 C299 1.392 . S
C243 C244 1.391 . S
C243 C247 1.396 1_655 S
C243 C299 1.419 . S
C244 C240 1.391 . S
C244 C243 1.391 . S
C244 C245 1.399 . S
C245 C244 1.399 . S
C245 C248 1.396 1_655 S
C245 C257 1.453 1_655 S
C245 C258 1.684 . S
H246 C270 0.948 . S
C247 C243 1.396 1_455 S
C247 C248 1.395 . S
C247 C266 1.723 . S
C248 C245 1.396 1_455 S
C248 C247 1.395 . S
C248 C278 1.723 . S
H249 C272 0.947 . S
H250 C273 0.948 . S
H251 C279 0.982 . S
H252 C280 0.979 . S
H253 C280 0.980 . S
H254 C280 0.983 . S
H255 C279 0.979 . S
H256 C279 0.977 . S
C257 C245 1.453 1_455 S
C257 H286 0.982 . S
C257 H287 0.979 . S
C257 H288 0.977 . S
C258 C245 1.684 . S
C258 H283 0.979 . S
C258 H284 0.980 . S
C258 H285 0.983 . S
C259 C260 1.391 . S
C259 C264 1.391 . S
C259 H289 0.948 . S
C260 C259 1.391 . S
C260 C261 1.391 . S
C261 C260 1.391 . S
C261 C262 1.392 . S
C261 H290 0.947 . S
C262 C261 1.392 . S
C262 C263 1.419 . S
C262 H291 0.948 . S
C263 C262 1.419 . S
C263 C264 1.391 . S
C263 C267 1.396 1_655 S
C264 C259 1.391 . S
C264 C263 1.391 . S
C264 C265 1.399 . S
C265 C264 1.399 . S
C265 C266 1.396 1_655 S
C265 C268 1.453 1_655 S
C265 C269 1.684 . S
C266 C247 1.723 . S
C266 C265 1.396 1_455 S
C266 C267 1.395 . S
C267 C263 1.396 1_455 S
C267 C266 1.395 . S
C267 C277 1.723 . S
C268 C265 1.453 1_455 S
C268 H292 0.982 . S
C268 H293 0.979 . S
C268 H294 0.977 . S
C269 C265 1.684 . S
C269 H295 0.979 . S
C269 H296 0.980 . S
C269 H297 0.983 . S
C270 H246 0.948 . S
C270 C271 1.391 . S
C270 C275 1.391 . S
C271 C270 1.391 . S
C271 C272 1.391 . S
C272 H249 0.947 . S
C272 C271 1.391 . S
C272 C273 1.392 . S
C273 H250 0.948 . S
C273 C272 1.392 . S
C273 C274 1.419 . S
C274 C273 1.419 . S
C274 C275 1.391 . S
C274 C278 1.396 1_655 S
C275 C270 1.391 . S
C275 C274 1.391 . S
C275 C276 1.399 . S
C276 C275 1.399 . S
C276 C277 1.396 1_655 S
C276 C279 1.453 1_655 S
C276 C280 1.684 . S
C277 C267 1.723 . S
C277 C276 1.396 1_455 S
C277 C278 1.395 . S
C278 C248 1.723 . S
C278 C274 1.396 1_455 S
C278 C277 1.395 . S
C279 H251 0.982 . S
C279 H255 0.979 . S
C279 H256 0.977 . S
C279 C276 1.453 1_455 S
C280 H252 0.979 . S
C280 H253 0.980 . S
C280 H254 0.983 . S
C280 C276 1.684 . S
H281 C299 0.948 . S
H282 C240 0.948 . S
H283 C258 0.979 . S
H284 C258 0.980 . S
H285 C258 0.983 . S
H286 C257 0.982 . S
H287 C257 0.979 . S
H288 C257 0.977 . S
H289 C259 0.948 . S
H290 C261 0.947 . S
H291 C262 0.948 . S
H292 C268 0.982 . S
H293 C268 0.979 . S
H294 C268 0.977 . S
H295 C269 0.979 . S
H296 C269 0.980 . S
H297 C269 0.983 . S
H298 C242 0.947 . S
C299 C242 1.392 . S
C299 C243 1.419 . S
C299 H281 0.948 . S
C300 C301 1.391 . S
C300 C304 1.391 . S
C300 H342 0.948 . S
C301 C300 1.391 . S
C301 C302 1.391 . S
C302 C301 1.391 . S
C302 H358 0.947 . S
C302 C359 1.392 . S
C303 C304 1.391 . S
C303 C307 1.396 1_565 S
C303 C359 1.419 . S
C304 C300 1.391 . S
C304 C303 1.391 . S
C304 C305 1.399 . S
C305 C304 1.399 . S
C305 C308 1.396 1_565 S
C305 C317 1.453 1_565 S
C305 C318 1.684 . S
H306 C330 0.948 . S
C307 C303 1.396 1_545 S
C307 C308 1.395 . S
C307 C326 1.723 . S
C308 C305 1.396 1_545 S
C308 C307 1.395 . S
C308 C338 1.723 . S
H309 C332 0.947 . S
H310 C333 0.948 . S
H311 C339 0.982 . S
H312 C340 0.979 . S
H313 C340 0.980 . S
H314 C340 0.983 . S
H315 C339 0.979 . S
H316 C339 0.977 . S
C317 C305 1.453 1_545 S
C317 H346 0.982 . S
C317 H347 0.979 . S
C317 H348 0.977 . S
C318 C305 1.684 . S
C318 H343 0.979 . S
C318 H344 0.980 . S
C318 H345 0.983 . S
C319 C320 1.391 . S
C319 C324 1.391 . S
C319 H349 0.948 . S
C320 C319 1.391 . S
C320 C321 1.391 . S
C321 C320 1.391 . S
C321 C322 1.392 . S
C321 H350 0.947 . S
C322 C321 1.392 . S
C322 C323 1.419 . S
C322 H351 0.948 . S
C323 C322 1.419 . S
C323 C324 1.391 . S
C323 C327 1.396 1_565 S
C324 C319 1.391 . S
C324 C323 1.391 . S
C324 C325 1.399 . S
C325 C324 1.399 . S
C325 C326 1.396 1_565 S
C325 C328 1.453 1_565 S
C325 C329 1.684 . S
C326 C307 1.723 . S
C326 C325 1.396 1_545 S
C326 C327 1.395 . S
C327 C323 1.396 1_545 S
C327 C326 1.395 . S
C327 C337 1.723 . S
C328 C325 1.453 1_545 S
C328 H352 0.982 . S
C328 H353 0.979 . S
C328 H354 0.977 . S
C329 C325 1.684 . S
C329 H355 0.979 . S
C329 H356 0.980 . S
C329 H357 0.983 . S
C330 H306 0.948 . S
C330 C331 1.391 . S
C330 C335 1.391 . S
C331 C330 1.391 . S
C331 C332 1.391 . S
C332 H309 0.947 . S
C332 C331 1.391 . S
C332 C333 1.392 . S
C333 H310 0.948 . S
C333 C332 1.392 . S
C333 C334 1.419 . S
C334 C333 1.419 . S
C334 C335 1.391 . S
C334 C338 1.396 1_565 S
C335 C330 1.391 . S
C335 C334 1.391 . S
C335 C336 1.399 . S
C336 C335 1.399 . S
C336 C337 1.396 1_565 S
C336 C339 1.453 1_565 S
C336 C340 1.684 . S
C337 C327 1.723 . S
C337 C336 1.396 1_545 S
C337 C338 1.395 . S
C338 C308 1.723 . S
C338 C334 1.396 1_545 S
C338 C337 1.395 . S
C339 H311 0.982 . S
C339 H315 0.979 . S
C339 H316 0.977 . S
C339 C336 1.453 1_545 S
C340 H312 0.979 . S
C340 H313 0.980 . S
C340 H314 0.983 . S
C340 C336 1.684 . S
H341 C359 0.948 . S
H342 C300 0.948 . S
H343 C318 0.979 . S
H344 C318 0.980 . S
H345 C318 0.983 . S
H346 C317 0.982 . S
H347 C317 0.979 . S
H348 C317 0.977 . S
H349 C319 0.948 . S
H350 C321 0.947 . S
H351 C322 0.948 . S
H352 C328 0.982 . S
H353 C328 0.979 . S
H354 C328 0.977 . S
H355 C329 0.979 . S
H356 C329 0.980 . S
H357 C329 0.983 . S
H358 C302 0.947 . S
C359 C302 1.392 . S
C359 C303 1.419 . S
C359 H341 0.948 . S
C360 C361 1.391 . S
C360 C364 1.391 . S
C360 H402 0.948 . S
C361 C360 1.391 . S
C361 C362 1.391 . S
C362 C361 1.391 . S
C362 H418 0.947 . S
C362 C419 1.392 . S
C363 C364 1.391 . S
C363 C367 1.396 1_655 S
C363 C419 1.419 . S
C364 C360 1.391 . S
C364 C363 1.391 . S
C364 C365 1.399 . S
C365 C364 1.399 . S
C365 C368 1.396 1_655 S
C365 C377 1.453 1_655 S
C365 C378 1.684 . S
H366 C390 0.948 . S
C367 C363 1.396 1_455 S
C367 C368 1.395 . S
C367 C386 1.723 . S
C368 C365 1.396 1_455 S
C368 C367 1.395 . S
C368 C398 1.723 . S
H369 C392 0.947 . S
H370 C393 0.948 . S
H371 C399 0.982 . S
H372 C400 0.979 . S
H373 C400 0.980 . S
H374 C400 0.983 . S
H375 C399 0.979 . S
H376 C399 0.977 . S
C377 C365 1.453 1_455 S
C377 H406 0.982 . S
C377 H407 0.979 . S
C377 H408 0.977 . S
C378 C365 1.684 . S
C378 H403 0.979 . S
C378 H404 0.980 . S
C378 H405 0.983 . S
C379 C380 1.391 . S
C379 C384 1.391 . S
C379 H409 0.948 . S
C380 C379 1.391 . S
C380 C381 1.391 . S
C381 C380 1.391 . S
C381 C382 1.392 . S
C381 H410 0.947 . S
C382 C381 1.392 . S
C382 C383 1.419 . S
C382 H411 0.948 . S
C383 C382 1.419 . S
C383 C384 1.391 . S
C383 C387 1.396 1_655 S
C384 C379 1.391 . S
C384 C383 1.391 . S
C384 C385 1.399 . S
C385 C384 1.399 . S
C385 C386 1.396 1_655 S
C385 C388 1.453 1_655 S
C385 C389 1.684 . S
C386 C367 1.723 . S
C386 C385 1.396 1_455 S
C386 C387 1.395 . S
C387 C383 1.396 1_455 S
C387 C386 1.395 . S
C387 C397 1.723 . S
C388 C385 1.453 1_455 S
C388 H412 0.982 . S
C388 H413 0.979 . S
C388 H414 0.977 . S
C389 C385 1.684 . S
C389 H415 0.979 . S
C389 H416 0.980 . S
C389 H417 0.983 . S
C390 H366 0.948 . S
C390 C391 1.391 . S
C390 C395 1.391 . S
C391 C390 1.391 . S
C391 C392 1.391 . S
C392 H369 0.947 . S
C392 C391 1.391 . S
C392 C393 1.392 . S
C393 H370 0.948 . S
C393 C392 1.392 . S
C393 C394 1.419 . S
C394 C393 1.419 . S
C394 C395 1.391 . S
C394 C398 1.396 1_655 S
C395 C390 1.391 . S
C395 C394 1.391 . S
C395 C396 1.399 . S
C396 C395 1.399 . S
C396 C397 1.396 1_655 S
C396 C399 1.453 1_655 S
C396 C400 1.684 . S
C397 C387 1.723 . S
C397 C396 1.396 1_455 S
C397 C398 1.395 . S
C398 C368 1.723 . S
C398 C394 1.396 1_455 S
C398 C397 1.395 . S
C399 H371 0.982 . S
C399 H375 0.979 . S
C399 H376 0.977 . S
C399 C396 1.453 1_455 S
C400 H372 0.979 . S
C400 H373 0.980 . S
C400 H374 0.983 . S
C400 C396 1.684 . S
H401 C419 0.948 . S
H402 C360 0.948 . S
H403 C378 0.979 . S
H404 C378 0.980 . S
H405 C378 0.983 . S
H406 C377 0.982 . S
H407 C377 0.979 . S
H408 C377 0.977 . S
H409 C379 0.948 . S
H410 C381 0.947 . S
H411 C382 0.948 . S
H412 C388 0.982 . S
H413 C388 0.979 . S
H414 C388 0.977 . S
H415 C389 0.979 . S
H416 C389 0.980 . S
H417 C389 0.983 . S
H418 C362 0.947 . S
C419 C362 1.392 . S
C419 C363 1.419 . S
C419 H401 0.948 . S
C420 C421 1.391 . S
C420 C424 1.391 . S
C420 H462 0.948 . S
C421 C420 1.391 . S
C421 C422 1.391 . S
C422 C421 1.391 . S
C422 H478 0.947 . S
C422 C479 1.392 . S
C423 C424 1.391 . S
C423 C427 1.396 1_565 S
C423 C479 1.419 . S
C424 C420 1.391 . S
C424 C423 1.391 . S
C424 C425 1.399 . S
C425 C424 1.399 . S
C425 C428 1.396 1_565 S
C425 C437 1.453 1_565 S
C425 C438 1.684 . S
H426 C450 0.948 . S
C427 C423 1.396 1_545 S
C427 C428 1.395 . S
C427 C446 1.723 . S
C428 C425 1.396 1_545 S
C428 C427 1.395 . S
C428 C458 1.723 . S
H429 C452 0.947 . S
H430 C453 0.948 . S
H431 C459 0.982 . S
H432 C460 0.979 . S
H433 C460 0.980 . S
H434 C460 0.983 . S
H435 C459 0.979 . S
H436 C459 0.977 . S
C437 C425 1.453 1_545 S
C437 H466 0.982 . S
C437 H467 0.979 . S
C437 H468 0.977 . S
C438 C425 1.684 . S
C438 H463 0.979 . S
C438 H464 0.980 . S
C438 H465 0.983 . S
C439 C440 1.391 . S
C439 C444 1.391 . S
C439 H469 0.948 . S
C440 C439 1.391 . S
C440 C441 1.391 . S
C441 C440 1.391 . S
C441 C442 1.392 . S
C441 H470 0.947 . S
C442 C441 1.392 . S
C442 C443 1.419 . S
C442 H471 0.948 . S
C443 C442 1.419 . S
C443 C444 1.391 . S
C443 C447 1.396 1_565 S
C444 C439 1.391 . S
C444 C443 1.391 . S
C444 C445 1.399 . S
C445 C444 1.399 . S
C445 C446 1.396 1_565 S
C445 C448 1.453 1_565 S
C445 C449 1.684 . S
C446 C427 1.723 . S
C446 C445 1.396 1_545 S
C446 C447 1.395 . S
C447 C443 1.396 1_545 S
C447 C446 1.395 . S
C447 C457 1.723 . S
C448 C445 1.453 1_545 S
C448 H472 0.982 . S
C448 H473 0.979 . S
C448 H474 0.977 . S
C449 C445 1.684 . S
C449 H475 0.979 . S
C449 H476 0.980 . S
C449 H477 0.983 . S
C450 H426 0.948 . S
C450 C451 1.391 . S
C450 C455 1.391 . S
C451 C450 1.391 . S
C451 C452 1.391 . S
C452 H429 0.947 . S
C452 C451 1.391 . S
C452 C453 1.392 . S
C453 H430 0.948 . S
C453 C452 1.392 . S
C453 C454 1.419 . S
C454 C453 1.419 . S
C454 C455 1.391 . S
C454 C458 1.396 1_565 S
C455 C450 1.391 . S
C455 C454 1.391 . S
C455 C456 1.399 . S
C456 C455 1.399 . S
C456 C457 1.396 1_565 S
C456 C459 1.453 1_565 S
C456 C460 1.684 . S
C457 C447 1.723 . S
C457 C456 1.396 1_545 S
C457 C458 1.395 . S
C458 C428 1.723 . S
C458 C454 1.396 1_545 S
C458 C457 1.395 . S
C459 H431 0.982 . S
C459 H435 0.979 . S
C459 H436 0.977 . S
C459 C456 1.453 1_545 S
C460 H432 0.979 . S
C460 H433 0.980 . S
C460 H434 0.983 . S
C460 C456 1.684 . S
H461 C479 0.948 . S
H462 C420 0.948 . S
H463 C438 0.979 . S
H464 C438 0.980 . S
H465 C438 0.983 . S
H466 C437 0.982 . S
H467 C437 0.979 . S
H468 C437 0.977 . S
H469 C439 0.948 . S
H470 C441 0.947 . S
H471 C442 0.948 . S
H472 C448 0.982 . S
H473 C448 0.979 . S
H474 C448 0.977 . S
H475 C449 0.979 . S
H476 C449 0.980 . S
H477 C449 0.983 . S
H478 C422 0.947 . S
C479 C422 1.392 . S
C479 C423 1.419 . S
C479 H461 0.948 . S
C480 C481 1.391 . S
C480 C484 1.391 . S
C480 H522 0.948 . S
C481 C480 1.391 . S
C481 C482 1.391 . S
C482 C481 1.391 . S
C482 H538 0.947 . S
C482 C539 1.392 . S
C483 C484 1.391 . S
C483 C487 1.396 1_556 S
C483 C539 1.419 . S
C484 C480 1.391 . S
C484 C483 1.391 . S
C484 C485 1.399 . S
C485 C484 1.399 . S
C485 C488 1.396 1_556 S
C485 C497 1.453 1_556 S
C485 C498 1.684 . S
H486 C510 0.948 . S
C487 C483 1.396 1_554 S
C487 C488 1.395 . S
C487 C506 1.723 . S
C488 C485 1.396 1_554 S
C488 C487 1.395 . S
C488 C518 1.723 . S
H489 C512 0.947 . S
H490 C513 0.948 . S
H491 C519 0.982 . S
H492 C520 0.979 . S
H493 C520 0.980 . S
H494 C520 0.983 . S
H495 C519 0.979 . S
H496 C519 0.977 . S
C497 C485 1.453 1_554 S
C497 H526 0.982 . S
C497 H527 0.979 . S
C497 H528 0.977 . S
C498 C485 1.684 . S
C498 H523 0.979 . S
C498 H524 0.980 . S
C498 H525 0.983 . S
C499 C500 1.391 . S
C499 C504 1.391 . S
C499 H529 0.948 . S
C500 C499 1.391 . S
C500 C501 1.391 . S
C501 C500 1.391 . S
C501 C502 1.392 . S
C501 H530 0.947 . S
C502 C501 1.392 . S
C502 C503 1.419 . S
C502 H531 0.948 . S
C503 C502 1.419 . S
C503 C504 1.391 . S
C503 C507 1.396 1_556 S
C504 C499 1.391 . S
C504 C503 1.391 . S
C504 C505 1.399 . S
C505 C504 1.399 . S
C505 C506 1.396 1_556 S
C505 C508 1.453 1_556 S
C505 C509 1.684 . S
C506 C487 1.723 . S
C506 C505 1.396 1_554 S
C506 C507 1.395 . S
C507 C503 1.396 1_554 S
C507 C506 1.395 . S
C507 C517 1.723 . S
C508 C505 1.453 1_554 S
C508 H532 0.982 . S
C508 H533 0.979 . S
C508 H534 0.977 . S
C509 C505 1.684 . S
C509 H535 0.979 . S
C509 H536 0.980 . S
C509 H537 0.983 . S
C510 H486 0.948 . S
C510 C511 1.391 . S
C510 C515 1.391 . S
C511 C510 1.391 . S
C511 C512 1.391 . S
C512 H489 0.947 . S
C512 C511 1.391 . S
C512 C513 1.392 . S
C513 H490 0.948 . S
C513 C512 1.392 . S
C513 C514 1.419 . S
C514 C513 1.419 . S
C514 C515 1.391 . S
C514 C518 1.396 1_556 S
C515 C510 1.391 . S
C515 C514 1.391 . S
C515 C516 1.399 . S
C516 C515 1.399 . S
C516 C517 1.396 1_556 S
C516 C519 1.453 1_556 S
C516 C520 1.684 . S
C517 C507 1.723 . S
C517 C516 1.396 1_554 S
C517 C518 1.395 . S
C518 C488 1.723 . S
C518 C514 1.396 1_554 S
C518 C517 1.395 . S
C519 H491 0.982 . S
C519 H495 0.979 . S
C519 H496 0.977 . S
C519 C516 1.453 1_554 S
C520 H492 0.979 . S
C520 H493 0.980 . S
C520 H494 0.983 . S
C520 C516 1.684 . S
H521 C539 0.948 . S
H522 C480 0.948 . S
H523 C498 0.979 . S
H524 C498 0.980 . S
H525 C498 0.983 . S
H526 C497 0.982 . S
H527 C497 0.979 . S
H528 C497 0.977 . S
H529 C499 0.948 . S
H530 C501 0.947 . S
H531 C502 0.948 . S
H532 C508 0.982 . S
H533 C508 0.979 . S
H534 C508 0.977 . S
H535 C509 0.979 . S
H536 C509 0.980 . S
H537 C509 0.983 . S
H538 C482 0.947 . S
C539 C482 1.392 . S
C539 C483 1.419 . S
C539 H521 0.948 . S
C540 C541 1.391 . S
C540 C544 1.391 . S
C540 H582 0.948 . S
C541 C540 1.391 . S
C541 C542 1.391 . S
C542 C541 1.391 . S
C542 H598 0.947 . S
C542 C599 1.392 . S
C543 C544 1.391 . S
C543 C547 1.397 1_554 S
C543 C599 1.419 . S
C544 C540 1.391 . S
C544 C543 1.391 . S
C544 C545 1.399 . S
C545 C544 1.399 . S
C545 C548 1.396 1_554 S
C545 C557 1.453 1_554 S
C545 C558 1.684 . S
H546 C570 0.948 . S
C547 C543 1.397 1_556 S
C547 C548 1.394 . S
C547 C566 1.723 . S
C548 C545 1.396 1_556 S
C548 C547 1.394 . S
C548 C578 1.723 . S
H549 C572 0.947 . S
H550 C573 0.948 . S
H551 C579 0.982 . S
H552 C580 0.979 . S
H553 C580 0.980 . S
H554 C580 0.983 . S
H555 C579 0.979 . S
H556 C579 0.977 . S
C557 C545 1.453 1_556 S
C557 H586 0.982 . S
C557 H587 0.979 . S
C557 H588 0.977 . S
C558 C545 1.684 . S
C558 H583 0.979 . S
C558 H584 0.980 . S
C558 H585 0.983 . S
C559 C560 1.391 . S
C559 C564 1.391 . S
C559 H589 0.948 . S
C560 C559 1.391 . S
C560 C561 1.391 . S
C561 C560 1.391 . S
C561 C562 1.392 . S
C561 H590 0.947 . S
C562 C561 1.392 . S
C562 C563 1.419 . S
C562 H591 0.948 . S
C563 C562 1.419 . S
C563 C564 1.391 . S
C563 C567 1.397 1_554 S
C564 C559 1.391 . S
C564 C563 1.391 . S
C564 C565 1.399 . S
C565 C564 1.399 . S
C565 C566 1.396 1_554 S
C565 C568 1.453 1_554 S
C565 C569 1.684 . S
C566 C547 1.723 . S
C566 C565 1.396 1_556 S
C566 C567 1.394 . S
C567 C563 1.397 1_556 S
C567 C566 1.394 . S
C567 C577 1.723 . S
C568 C565 1.453 1_556 S
C568 H592 0.982 . S
C568 H593 0.979 . S
C568 H594 0.977 . S
C569 C565 1.684 . S
C569 H595 0.979 . S
C569 H596 0.980 . S
C569 H597 0.983 . S
C570 H546 0.948 . S
C570 C571 1.391 . S
C570 C575 1.391 . S
C571 C570 1.391 . S
C571 C572 1.391 . S
C572 H549 0.947 . S
C572 C571 1.391 . S
C572 C573 1.392 . S
C573 H550 0.948 . S
C573 C572 1.392 . S
C573 C574 1.419 . S
C574 C573 1.419 . S
C574 C575 1.391 . S
C574 C578 1.397 1_554 S
C575 C570 1.391 . S
C575 C574 1.391 . S
C575 C576 1.399 . S
C576 C575 1.399 . S
C576 C577 1.396 1_554 S
C576 C579 1.453 1_554 S
C576 C580 1.684 . S
C577 C567 1.723 . S
C577 C576 1.396 1_556 S
C577 C578 1.394 . S
C578 C548 1.723 . S
C578 C574 1.397 1_556 S
C578 C577 1.394 . S
C579 H551 0.982 . S
C579 H555 0.979 . S
C579 H556 0.977 . S
C579 C576 1.453 1_556 S
C580 H552 0.979 . S
C580 H553 0.980 . S
C580 H554 0.983 . S
C580 C576 1.684 . S
H581 C599 0.948 . S
H582 C540 0.948 . S
H583 C558 0.979 . S
H584 C558 0.980 . S
H585 C558 0.983 . S
H586 C557 0.982 . S
H587 C557 0.979 . S
H588 C557 0.977 . S
H589 C559 0.948 . S
H590 C561 0.947 . S
H591 C562 0.948 . S
H592 C568 0.982 . S
H593 C568 0.979 . S
H594 C568 0.977 . S
H595 C569 0.979 . S
H596 C569 0.980 . S
H597 C569 0.983 . S
H598 C542 0.947 . S
C599 C542 1.392 . S
C599 C543 1.419 . S
C599 H581 0.948 . S
C600 C601 1.391 . S
C600 C604 1.391 . S
C600 H642 0.948 . S
C601 C600 1.391 . S
C601 C602 1.391 . S
C602 C601 1.391 . S
C602 H658 0.947 . S
C602 C659 1.392 . S
C603 C604 1.391 . S
C603 C607 1.396 1_556 S
C603 C659 1.419 . S
C604 C600 1.391 . S
C604 C603 1.391 . S
C604 C605 1.399 . S
C605 C604 1.399 . S
C605 C608 1.396 1_556 S
C605 C617 1.453 1_556 S
C605 C618 1.684 . S
H606 C630 0.948 . S
C607 C603 1.396 1_554 S
C607 C608 1.395 . S
C607 C626 1.723 . S
C608 C605 1.396 1_554 S
C608 C607 1.395 . S
C608 C638 1.723 . S
H609 C632 0.947 . S
H610 C633 0.948 . S
H611 C639 0.982 . S
H612 C640 0.979 . S
H613 C640 0.980 . S
H614 C640 0.983 . S
H615 C639 0.979 . S
H616 C639 0.977 . S
C617 C605 1.453 1_554 S
C617 H646 0.982 . S
C617 H647 0.979 . S
C617 H648 0.977 . S
C618 C605 1.684 . S
C618 H643 0.979 . S
C618 H644 0.980 . S
C618 H645 0.983 . S
C619 C620 1.391 . S
C619 C624 1.391 . S
C619 H649 0.948 . S
C620 C619 1.391 . S
C620 C621 1.391 . S
C621 C620 1.391 . S
C621 C622 1.392 . S
C621 H650 0.947 . S
C622 C621 1.392 . S
C622 C623 1.419 . S
C622 H651 0.948 . S
C623 C622 1.419 . S
C623 C624 1.391 . S
C623 C627 1.396 1_556 S
C624 C619 1.391 . S
C624 C623 1.391 . S
C624 C625 1.399 . S
C625 C624 1.399 . S
C625 C626 1.396 1_556 S
C625 C628 1.453 1_556 S
C625 C629 1.684 . S
C626 C607 1.723 . S
C626 C625 1.396 1_554 S
C626 C627 1.395 . S
C627 C623 1.396 1_554 S
C627 C626 1.395 . S
C627 C637 1.723 . S
C628 C625 1.453 1_554 S
C628 H652 0.982 . S
C628 H653 0.979 . S
C628 H654 0.977 . S
C629 C625 1.684 . S
C629 H655 0.979 . S
C629 H656 0.980 . S
C629 H657 0.983 . S
C630 H606 0.948 . S
C630 C631 1.391 . S
C630 C635 1.391 . S
C631 C630 1.391 . S
C631 C632 1.391 . S
C632 H609 0.947 . S
C632 C631 1.391 . S
C632 C633 1.392 . S
C633 H610 0.948 . S
C633 C632 1.392 . S
C633 C634 1.419 . S
C634 C633 1.419 . S
C634 C635 1.391 . S
C634 C638 1.396 1_556 S
C635 C630 1.391 . S
C635 C634 1.391 . S
C635 C636 1.399 . S
C636 C635 1.399 . S
C636 C637 1.396 1_556 S
C636 C639 1.453 1_556 S
C636 C640 1.684 . S
C637 C627 1.723 . S
C637 C636 1.396 1_554 S
C637 C638 1.395 . S
C638 C608 1.723 . S
C638 C634 1.396 1_554 S
C638 C637 1.395 . S
C639 H611 0.982 . S
C639 H615 0.979 . S
C639 H616 0.977 . S
C639 C636 1.453 1_554 S
C640 H612 0.979 . S
C640 H613 0.980 . S
C640 H614 0.983 . S
C640 C636 1.684 . S
H641 C659 0.948 . S
H642 C600 0.948 . S
H643 C618 0.979 . S
H644 C618 0.980 . S
H645 C618 0.983 . S
H646 C617 0.982 . S
H647 C617 0.979 . S
H648 C617 0.977 . S
H649 C619 0.948 . S
H650 C621 0.947 . S
H651 C622 0.948 . S
H652 C628 0.982 . S
H653 C628 0.979 . S
H654 C628 0.977 . S
H655 C629 0.979 . S
H656 C629 0.980 . S
H657 C629 0.983 . S
H658 C602 0.947 . S
C659 C602 1.392 . S
C659 C603 1.419 . S
C659 H641 0.948 . S
C660 C661 1.391 . S
C660 C664 1.391 . S
C660 H702 0.948 . S
C661 C660 1.391 . S
C661 C662 1.391 . S
C662 C661 1.391 . S
C662 H718 0.947 . S
C662 C719 1.392 . S
C663 C664 1.391 . S
C663 C667 1.397 1_554 S
C663 C719 1.419 . S
C664 C660 1.391 . S
C664 C663 1.391 . S
C664 C665 1.399 . S
C665 C664 1.399 . S
C665 C668 1.396 1_554 S
C665 C677 1.453 1_554 S
C665 C678 1.684 . S
H666 C690 0.948 . S
C667 C663 1.397 1_556 S
C667 C668 1.394 . S
C667 C686 1.723 . S
C668 C665 1.396 1_556 S
C668 C667 1.394 . S
C668 C698 1.723 . S
H669 C692 0.947 . S
H670 C693 0.948 . S
H671 C699 0.982 . S
H672 C700 0.979 . S
H673 C700 0.980 . S
H674 C700 0.983 . S
H675 C699 0.979 . S
H676 C699 0.977 . S
C677 C665 1.453 1_556 S
C677 H706 0.982 . S
C677 H707 0.979 . S
C677 H708 0.977 . S
C678 C665 1.684 . S
C678 H703 0.979 . S
C678 H704 0.980 . S
C678 H705 0.983 . S
C679 C680 1.391 . S
C679 C684 1.391 . S
C679 H709 0.948 . S
C680 C679 1.391 . S
C680 C681 1.391 . S
C681 C680 1.391 . S
C681 C682 1.392 . S
C681 H710 0.947 . S
C682 C681 1.392 . S
C682 C683 1.419 . S
C682 H711 0.948 . S
C683 C682 1.419 . S
C683 C684 1.391 . S
C683 C687 1.397 1_554 S
C684 C679 1.391 . S
C684 C683 1.391 . S
C684 C685 1.399 . S
C685 C684 1.399 . S
C685 C686 1.396 1_554 S
C685 C688 1.453 1_554 S
C685 C689 1.684 . S
C686 C667 1.723 . S
C686 C685 1.396 1_556 S
C686 C687 1.394 . S
C687 C683 1.397 1_556 S
C687 C686 1.394 . S
C687 C697 1.723 . S
C688 C685 1.453 1_556 S
C688 H712 0.982 . S
C688 H713 0.979 . S
C688 H714 0.977 . S
C689 C685 1.684 . S
C689 H715 0.979 . S
C689 H716 0.980 . S
C689 H717 0.983 . S
C690 H666 0.948 . S
C690 C691 1.391 . S
C690 C695 1.391 . S
C691 C690 1.391 . S
C691 C692 1.391 . S
C692 H669 0.947 . S
C692 C691 1.391 . S
C692 C693 1.392 . S
C693 H670 0.948 . S
C693 C692 1.392 . S
C693 C694 1.419 . S
C694 C693 1.419 . S
C694 C695 1.391 . S
C694 C698 1.397 1_554 S
C695 C690 1.391 . S
C695 C694 1.391 . S
C695 C696 1.399 . S
C696 C695 1.399 . S
C696 C697 1.396 1_554 S
C696 C699 1.453 1_554 S
C696 C700 1.684 . S
C697 C687 1.723 . S
C697 C696 1.396 1_556 S
C697 C698 1.394 . S
C698 C668 1.723 . S
C698 C694 1.397 1_556 S
C698 C697 1.394 . S
C699 H671 0.982 . S
C699 H675 0.979 . S
C699 H676 0.977 . S
C699 C696 1.453 1_556 S
C700 H672 0.979 . S
C700 H673 0.980 . S
C700 H674 0.983 . S
C700 C696 1.684 . S
H701 C719 0.948 . S
H702 C660 0.948 . S
H703 C678 0.979 . S
H704 C678 0.980 . S
H705 C678 0.983 . S
H706 C677 0.982 . S
H707 C677 0.979 . S
H708 C677 0.977 . S
H709 C679 0.948 . S
H710 C681 0.947 . S
H711 C682 0.948 . S
H712 C688 0.982 . S
H713 C688 0.979 . S
H714 C688 0.977 . S
H715 C689 0.979 . S
H716 C689 0.980 . S
H717 C689 0.983 . S
H718 C662 0.947 . S
C719 C662 1.392 . S
C719 C663 1.419 . S
C719 H701 0.948 . S
C720 C721 1.391 . S
C720 C724 1.391 . S
C720 H762 0.948 . S
C721 C720 1.391 . S
C721 C722 1.391 . S
C722 C721 1.391 . S
C722 H778 0.947 . S
C722 C779 1.392 . S
C723 C724 1.391 . S
C723 C727 1.397 . S
C723 C779 1.419 . S
C724 C720 1.391 . S
C724 C723 1.391 . S
C724 C725 1.399 . S
C725 C724 1.399 . S
C725 C728 1.396 . S
C725 C737 1.453 . S
C725 C738 1.684 . S
H726 C750 0.948 . S
C727 C723 1.397 . S
C727 C728 1.394 . S
C727 C746 1.723 . S
C728 C725 1.396 . S
C728 C727 1.394 . S
C728 C758 1.723 . S
H729 C752 0.947 . S
H730 C753 0.948 . S
H731 C759 0.982 . S
H732 C760 0.979 . S
H733 C760 0.980 . S
H734 C760 0.983 . S
H735 C759 0.979 . S
H736 C759 0.977 . S
C737 C725 1.453 . S
C737 H766 0.982 . S
C737 H767 0.979 . S
C737 H768 0.977 . S
C738 C725 1.684 . S
C738 H763 0.979 . S
C738 H764 0.980 . S
C738 H765 0.983 . S
C739 C740 1.391 . S
C739 C744 1.391 . S
C739 H769 0.948 . S
C740 C739 1.391 . S
C740 C741 1.391 . S
C741 C740 1.391 . S
C741 C742 1.392 . S
C741 H770 0.947 . S
C742 C741 1.392 . S
C742 C743 1.419 . S
C742 H771 0.948 . S
C743 C742 1.419 . S
C743 C744 1.391 . S
C743 C747 1.397 . S
C744 C739 1.391 . S
C744 C743 1.391 . S
C744 C745 1.399 . S
C745 C744 1.399 . S
C745 C746 1.396 . S
C745 C748 1.453 . S
C745 C749 1.684 . S
C746 C727 1.723 . S
C746 C745 1.396 . S
C746 C747 1.394 . S
C747 C743 1.397 . S
C747 C746 1.394 . S
C747 C757 1.723 . S
C748 C745 1.453 . S
C748 H772 0.982 . S
C748 H773 0.979 . S
C748 H774 0.977 . S
C749 C745 1.684 . S
C749 H775 0.979 . S
C749 H776 0.980 . S
C749 H777 0.983 . S
C750 H726 0.948 . S
C750 C751 1.391 . S
C750 C755 1.391 . S
C751 C750 1.391 . S
C751 C752 1.391 . S
C752 H729 0.947 . S
C752 C751 1.391 . S
C752 C753 1.392 . S
C753 H730 0.948 . S
C753 C752 1.392 . S
C753 C754 1.419 . S
C754 C753 1.419 . S
C754 C755 1.391 . S
C754 C758 1.397 . S
C755 C750 1.391 . S
C755 C754 1.391 . S
C755 C756 1.399 . S
C756 C755 1.399 . S
C756 C757 1.396 . S
C756 C759 1.453 . S
C756 C760 1.684 . S
C757 C747 1.723 . S
C757 C756 1.396 . S
C757 C758 1.394 . S
C758 C728 1.723 . S
C758 C754 1.397 . S
C758 C757 1.394 . S
C759 H731 0.982 . S
C759 H735 0.979 . S
C759 H736 0.977 . S
C759 C756 1.453 . S
C760 H732 0.979 . S
C760 H733 0.980 . S
C760 H734 0.983 . S
C760 C756 1.684 . S
H761 C779 0.948 . S
H762 C720 0.948 . S
H763 C738 0.979 . S
H764 C738 0.980 . S
H765 C738 0.983 . S
H766 C737 0.982 . S
H767 C737 0.979 . S
H768 C737 0.977 . S
H769 C739 0.948 . S
H770 C741 0.947 . S
H771 C742 0.948 . S
H772 C748 0.982 . S
H773 C748 0.979 . S
H774 C748 0.977 . S
H775 C749 0.979 . S
H776 C749 0.980 . S
H777 C749 0.983 . S
H778 C722 0.947 . S
C779 C722 1.392 . S
C779 C723 1.419 . S
C779 H761 0.948 . S
C780 C781 1.391 . S
C780 C784 1.391 . S
C780 H822 0.948 . S
C781 C780 1.391 . S
C781 C782 1.391 . S
C782 C781 1.391 . S
C782 H838 0.947 . S
C782 C839 1.392 . S
C783 C784 1.391 . S
C783 C787 1.397 . S
C783 C839 1.419 . S
C784 C780 1.391 . S
C784 C783 1.391 . S
C784 C785 1.399 . S
C785 C784 1.399 . S
C785 C788 1.396 . S
C785 C797 1.453 . S
C785 C798 1.684 . S
H786 C810 0.948 . S
C787 C783 1.397 . S
C787 C788 1.394 . S
C787 C806 1.723 . S
C788 C785 1.396 . S
C788 C787 1.394 . S
C788 C818 1.723 . S
H789 C812 0.947 . S
H790 C813 0.948 . S
H791 C819 0.982 . S
H792 C820 0.979 . S
H793 C820 0.980 . S
H794 C820 0.983 . S
H795 C819 0.979 . S
H796 C819 0.977 . S
C797 C785 1.453 . S
C797 H826 0.982 . S
C797 H827 0.979 . S
C797 H828 0.977 . S
C798 C785 1.684 . S
C798 H823 0.979 . S
C798 H824 0.980 . S
C798 H825 0.983 . S
C799 C800 1.391 . S
C799 C804 1.391 . S
C799 H829 0.948 . S
C800 C799 1.391 . S
C800 C801 1.391 . S
C801 C800 1.391 . S
C801 C802 1.392 . S
C801 H830 0.947 . S
C802 C801 1.392 . S
C802 C803 1.419 . S
C802 H831 0.948 . S
C803 C802 1.419 . S
C803 C804 1.391 . S
C803 C807 1.397 . S
C804 C799 1.391 . S
C804 C803 1.391 . S
C804 C805 1.399 . S
C805 C804 1.399 . S
C805 C806 1.396 . S
C805 C808 1.453 . S
C805 C809 1.684 . S
C806 C787 1.723 . S
C806 C805 1.396 . S
C806 C807 1.394 . S
C807 C803 1.397 . S
C807 C806 1.394 . S
C807 C817 1.723 . S
C808 C805 1.453 . S
C808 H832 0.982 . S
C808 H833 0.979 . S
C808 H834 0.977 . S
C809 C805 1.684 . S
C809 H835 0.979 . S
C809 H836 0.980 . S
C809 H837 0.983 . S
C810 H786 0.948 . S
C810 C811 1.391 . S
C810 C815 1.391 . S
C811 C810 1.391 . S
C811 C812 1.391 . S
C812 H789 0.947 . S
C812 C811 1.391 . S
C812 C813 1.392 . S
C813 H790 0.948 . S
C813 C812 1.392 . S
C813 C814 1.419 . S
C814 C813 1.419 . S
C814 C815 1.391 . S
C814 C818 1.397 . S
C815 C810 1.391 . S
C815 C814 1.391 . S
C815 C816 1.399 . S
C816 C815 1.399 . S
C816 C817 1.396 . S
C816 C819 1.453 . S
C816 C820 1.684 . S
C817 C807 1.723 . S
C817 C816 1.396 . S
C817 C818 1.394 . S
C818 C788 1.723 . S
C818 C814 1.397 . S
C818 C817 1.394 . S
C819 H791 0.982 . S
C819 H795 0.979 . S
C819 H796 0.977 . S
C819 C816 1.453 . S
C820 H792 0.979 . S
C820 H793 0.980 . S
C820 H794 0.983 . S
C820 C816 1.684 . S
H821 C839 0.948 . S
H822 C780 0.948 . S
H823 C798 0.979 . S
H824 C798 0.980 . S
H825 C798 0.983 . S
H826 C797 0.982 . S
H827 C797 0.979 . S
H828 C797 0.977 . S
H829 C799 0.948 . S
H830 C801 0.947 . S
H831 C802 0.948 . S
H832 C808 0.982 . S
H833 C808 0.979 . S
H834 C808 0.977 . S
H835 C809 0.979 . S
H836 C809 0.980 . S
H837 C809 0.983 . S
H838 C782 0.947 . S
C839 C782 1.392 . S
C839 C783 1.419 . S
C839 H821 0.948 . S
C840 C841 1.391 . S
C840 C844 1.391 . S
C840 H882 0.948 . S
C841 C840 1.391 . S
C841 C842 1.391 . S
C842 C841 1.391 . S
C842 H898 0.947 . S
C842 C899 1.392 . S
C843 C844 1.391 . S
C843 C847 1.397 . S
C843 C899 1.419 . S
C844 C840 1.391 . S
C844 C843 1.391 . S
C844 C845 1.399 . S
C845 C844 1.399 . S
C845 C848 1.396 . S
C845 C857 1.453 . S
C845 C858 1.684 . S
H846 C870 0.948 . S
C847 C843 1.397 . S
C847 C848 1.394 . S
C847 C866 1.723 . S
C848 C845 1.396 . S
C848 C847 1.394 . S
C848 C878 1.723 . S
H849 C872 0.947 . S
H850 C873 0.948 . S
H851 C879 0.982 . S
H852 C880 0.979 . S
H853 C880 0.980 . S
H854 C880 0.983 . S
H855 C879 0.979 . S
H856 C879 0.977 . S
C857 C845 1.453 . S
C857 H886 0.982 . S
C857 H887 0.979 . S
C857 H888 0.977 . S
C858 C845 1.684 . S
C858 H883 0.979 . S
C858 H884 0.980 . S
C858 H885 0.983 . S
C859 C860 1.391 . S
C859 C864 1.391 . S
C859 H889 0.948 . S
C860 C859 1.391 . S
C860 C861 1.391 . S
C861 C860 1.391 . S
C861 C862 1.392 . S
C861 H890 0.947 . S
C862 C861 1.392 . S
C862 C863 1.419 . S
C862 H891 0.948 . S
C863 C862 1.419 . S
C863 C864 1.391 . S
C863 C867 1.397 . S
C864 C859 1.391 . S
C864 C863 1.391 . S
C864 C865 1.399 . S
C865 C864 1.399 . S
C865 C866 1.396 . S
C865 C868 1.453 . S
C865 C869 1.684 . S
C866 C847 1.723 . S
C866 C865 1.396 . S
C866 C867 1.394 . S
C867 C863 1.397 . S
C867 C866 1.394 . S
C867 C877 1.723 . S
C868 C865 1.453 . S
C868 H892 0.982 . S
C868 H893 0.979 . S
C868 H894 0.977 . S
C869 C865 1.684 . S
C869 H895 0.979 . S
C869 H896 0.980 . S
C869 H897 0.983 . S
C870 H846 0.948 . S
C870 C871 1.391 . S
C870 C875 1.391 . S
C871 C870 1.391 . S
C871 C872 1.391 . S
C872 H849 0.947 . S
C872 C871 1.391 . S
C872 C873 1.392 . S
C873 H850 0.948 . S
C873 C872 1.392 . S
C873 C874 1.419 . S
C874 C873 1.419 . S
C874 C875 1.391 . S
C874 C878 1.397 . S
C875 C870 1.391 . S
C875 C874 1.391 . S
C875 C876 1.399 . S
C876 C875 1.399 . S
C876 C877 1.396 . S
C876 C879 1.453 . S
C876 C880 1.684 . S
C877 C867 1.723 . S
C877 C876 1.396 . S
C877 C878 1.394 . S
C878 C848 1.723 . S
C878 C874 1.397 . S
C878 C877 1.394 . S
C879 H851 0.982 . S
C879 H855 0.979 . S
C879 H856 0.977 . S
C879 C876 1.453 . S
C880 H852 0.979 . S
C880 H853 0.980 . S
C880 H854 0.983 . S
C880 C876 1.684 . S
H881 C899 0.948 . S
H882 C840 0.948 . S
H883 C858 0.979 . S
H884 C858 0.980 . S
H885 C858 0.983 . S
H886 C857 0.982 . S
H887 C857 0.979 . S
H888 C857 0.977 . S
H889 C859 0.948 . S
H890 C861 0.947 . S
H891 C862 0.948 . S
H892 C868 0.982 . S
H893 C868 0.979 . S
H894 C868 0.977 . S
H895 C869 0.979 . S
H896 C869 0.980 . S
H897 C869 0.983 . S
H898 C842 0.947 . S
C899 C842 1.392 . S
C899 C843 1.419 . S
C899 H881 0.948 . S
C900 C901 1.391 . S
C900 C904 1.391 . S
C900 H942 0.948 . S
C901 C900 1.391 . S
C901 C902 1.391 . S
C902 C901 1.391 . S
C902 H958 0.947 . S
C902 C959 1.392 . S
C903 C904 1.391 . S
C903 C907 1.397 . S
C903 C959 1.419 . S
C904 C900 1.391 . S
C904 C903 1.391 . S
C904 C905 1.399 . S
C905 C904 1.399 . S
C905 C908 1.396 . S
C905 C917 1.453 . S
C905 C918 1.684 . S
H906 C930 0.948 . S
C907 C903 1.397 . S
C907 C908 1.394 . S
C907 C926 1.723 . S
C908 C905 1.396 . S
C908 C907 1.394 . S
C908 C938 1.723 . S
H909 C932 0.947 . S
H910 C933 0.948 . S
H911 C939 0.982 . S
H912 C940 0.979 . S
H913 C940 0.980 . S
H914 C940 0.983 . S
H915 C939 0.979 . S
H916 C939 0.977 . S
C917 C905 1.453 . S
C917 H946 0.982 . S
C917 H947 0.979 . S
C917 H948 0.977 . S
C918 C905 1.684 . S
C918 H943 0.979 . S
C918 H944 0.980 . S
C918 H945 0.983 . S
C919 C920 1.391 . S
C919 C924 1.391 . S
C919 H949 0.948 . S
C920 C919 1.391 . S
C920 C921 1.391 . S
C921 C920 1.391 . S
C921 C922 1.392 . S
C921 H950 0.947 . S
C922 C921 1.392 . S
C922 C923 1.419 . S
C922 H951 0.948 . S
C923 C922 1.419 . S
C923 C924 1.391 . S
C923 C927 1.397 . S
C924 C919 1.391 . S
C924 C923 1.391 . S
C924 C925 1.399 . S
C925 C924 1.399 . S
C925 C926 1.396 . S
C925 C928 1.453 . S
C925 C929 1.684 . S
C926 C907 1.723 . S
C926 C925 1.396 . S
C926 C927 1.394 . S
C927 C923 1.397 . S
C927 C926 1.394 . S
C927 C937 1.723 . S
C928 C925 1.453 . S
C928 H952 0.982 . S
C928 H953 0.979 . S
C928 H954 0.977 . S
C929 C925 1.684 . S
C929 H955 0.979 . S
C929 H956 0.980 . S
C929 H957 0.983 . S
C930 H906 0.948 . S
C930 C931 1.391 . S
C930 C935 1.391 . S
C931 C930 1.391 . S
C931 C932 1.391 . S
C932 H909 0.947 . S
C932 C931 1.391 . S
C932 C933 1.392 . S
C933 H910 0.948 . S
C933 C932 1.392 . S
C933 C934 1.419 . S
C934 C933 1.419 . S
C934 C935 1.391 . S
C934 C938 1.397 . S
C935 C930 1.391 . S
C935 C934 1.391 . S
C935 C936 1.399 . S
C936 C935 1.399 . S
C936 C937 1.396 . S
C936 C939 1.453 . S
C936 C940 1.684 . S
C937 C927 1.723 . S
C937 C936 1.396 . S
C937 C938 1.394 . S
C938 C908 1.723 . S
C938 C934 1.397 . S
C938 C937 1.394 . S
C939 H911 0.982 . S
C939 H915 0.979 . S
C939 H916 0.977 . S
C939 C936 1.453 . S
C940 H912 0.979 . S
C940 H913 0.980 . S
C940 H914 0.983 . S
C940 C936 1.684 . S
H941 C959 0.948 . S
H942 C900 0.948 . S
H943 C918 0.979 . S
H944 C918 0.980 . S
H945 C918 0.983 . S
H946 C917 0.982 . S
H947 C917 0.979 . S
H948 C917 0.977 . S
H949 C919 0.948 . S
H950 C921 0.947 . S
H951 C922 0.948 . S
H952 C928 0.982 . S
H953 C928 0.979 . S
H954 C928 0.977 . S
H955 C929 0.979 . S
H956 C929 0.980 . S
H957 C929 0.983 . S
H958 C902 0.947 . S
C959 C902 1.392 . S
C959 C903 1.419 . S
C959 H941 0.948 . S
C960 C961 1.391 . S
C960 C964 1.391 . S
C960 H1002 0.948 . S
C961 C960 1.391 . S
C961 C962 1.391 . S
C962 C961 1.391 . S
C962 H1018 0.947 . S
C962 C1019 1.392 . S
C963 C964 1.391 . S
C963 C967 1.397 . S
C963 C1019 1.419 . S
C964 C960 1.391 . S
C964 C963 1.391 . S
C964 C965 1.399 . S
C965 C964 1.399 . S
C965 C968 1.396 . S
C965 C977 1.453 . S
C965 C978 1.684 . S
H966 C990 0.948 . S
C967 C963 1.397 . S
C967 C968 1.394 . S
C967 C986 1.723 . S
C968 C965 1.396 . S
C968 C967 1.394 . S
C968 C998 1.723 . S
H969 C992 0.947 . S
H970 C993 0.948 . S
H971 C999 0.982 . S
H972 C1000 0.979 . S
H973 C1000 0.980 . S
H974 C1000 0.983 . S
H975 C999 0.979 . S
H976 C999 0.977 . S
C977 C965 1.453 . S
C977 H1006 0.982 . S
C977 H1007 0.979 . S
C977 H1008 0.977 . S
C978 C965 1.684 . S
C978 H1003 0.979 . S
C978 H1004 0.980 . S
C978 H1005 0.983 . S
C979 C980 1.391 . S
C979 C984 1.391 . S
C979 H1009 0.948 . S
C980 C979 1.391 . S
C980 C981 1.391 . S
C981 C980 1.391 . S
C981 C982 1.392 . S
C981 H1010 0.947 . S
C982 C981 1.392 . S
C982 C983 1.419 . S
C982 H1011 0.948 . S
C983 C982 1.419 . S
C983 C984 1.391 . S
C983 C987 1.397 . S
C984 C979 1.391 . S
C984 C983 1.391 . S
C984 C985 1.399 . S
C985 C984 1.399 . S
C985 C986 1.396 . S
C985 C988 1.453 . S
C985 C989 1.684 . S
C986 C967 1.723 . S
C986 C985 1.396 . S
C986 C987 1.394 . S
C987 C983 1.397 . S
C987 C986 1.394 . S
C987 C997 1.723 . S
C988 C985 1.453 . S
C988 H1012 0.982 . S
C988 H1013 0.979 . S
C988 H1014 0.977 . S
C989 C985 1.684 . S
C989 H1015 0.979 . S
C989 H1016 0.980 . S
C989 H1017 0.983 . S
C990 H966 0.948 . S
C990 C991 1.391 . S
C990 C995 1.391 . S
C991 C990 1.391 . S
C991 C992 1.391 . S
C992 H969 0.947 . S
C992 C991 1.391 . S
C992 C993 1.392 . S
C993 H970 0.948 . S
C993 C992 1.392 . S
C993 C994 1.419 . S
C994 C993 1.419 . S
C994 C995 1.391 . S
C994 C998 1.397 . S
C995 C990 1.391 . S
C995 C994 1.391 . S
C995 C996 1.399 . S
C996 C995 1.399 . S
C996 C997 1.396 . S
C996 C999 1.453 . S
C996 C1000 1.684 . S
C997 C987 1.723 . S
C997 C996 1.396 . S
C997 C998 1.394 . S
C998 C968 1.723 . S
C998 C994 1.397 . S
C998 C997 1.394 . S
C999 H971 0.982 . S
C999 H975 0.979 . S
C999 H976 0.977 . S
C999 C996 1.453 . S
C1000 H972 0.979 . S
C1000 H973 0.980 . S
C1000 H974 0.983 . S
C1000 C996 1.684 . S
H1001 C1019 0.948 . S
H1002 C960 0.948 . S
H1003 C978 0.979 . S
H1004 C978 0.980 . S
H1005 C978 0.983 . S
H1006 C977 0.982 . S
H1007 C977 0.979 . S
H1008 C977 0.977 . S
H1009 C979 0.948 . S
H1010 C981 0.947 . S
H1011 C982 0.948 . S
H1012 C988 0.982 . S
H1013 C988 0.979 . S
H1014 C988 0.977 . S
H1015 C989 0.979 . S
H1016 C989 0.980 . S
H1017 C989 0.983 . S
H1018 C962 0.947 . S
C1019 C962 1.392 . S
C1019 C963 1.419 . S
C1019 H1001 0.948 . S
C1020 C1021 1.391 . S
C1020 C1024 1.391 . S
C1020 H1062 0.948 . S
C1021 C1020 1.391 . S
C1021 C1022 1.391 . S
C1022 C1021 1.391 . S
C1022 H1078 0.947 . S
C1022 C1079 1.392 . S
C1023 C1024 1.391 . S
C1023 C1027 1.397 . S
C1023 C1079 1.419 . S
C1024 C1020 1.391 . S
C1024 C1023 1.391 . S
C1024 C1025 1.399 . S
C1025 C1024 1.399 . S
C1025 C1028 1.396 . S
C1025 C1037 1.453 . S
C1025 C1038 1.684 . S
H1026 C1050 0.948 . S
C1027 C1023 1.397 . S
C1027 C1028 1.394 . S
C1027 C1046 1.723 . S
C1028 C1025 1.396 . S
C1028 C1027 1.394 . S
C1028 C1058 1.723 . S
H1029 C1052 0.947 . S
H1030 C1053 0.948 . S
H1031 C1059 0.982 . S
H1032 C1060 0.979 . S
H1033 C1060 0.980 . S
H1034 C1060 0.983 . S
H1035 C1059 0.979 . S
H1036 C1059 0.977 . S
C1037 C1025 1.453 . S
C1037 H1066 0.982 . S
C1037 H1067 0.979 . S
C1037 H1068 0.977 . S
C1038 C1025 1.684 . S
C1038 H1063 0.979 . S
C1038 H1064 0.980 . S
C1038 H1065 0.983 . S
C1039 C1040 1.391 . S
C1039 C1044 1.391 . S
C1039 H1069 0.948 . S
C1040 C1039 1.391 . S
C1040 C1041 1.391 . S
C1041 C1040 1.391 . S
C1041 C1042 1.392 . S
C1041 H1070 0.947 . S
C1042 C1041 1.392 . S
C1042 C1043 1.419 . S
C1042 H1071 0.948 . S
C1043 C1042 1.419 . S
C1043 C1044 1.391 . S
C1043 C1047 1.397 . S
C1044 C1039 1.391 . S
C1044 C1043 1.391 . S
C1044 C1045 1.399 . S
C1045 C1044 1.399 . S
C1045 C1046 1.396 . S
C1045 C1048 1.453 . S
C1045 C1049 1.684 . S
C1046 C1027 1.723 . S
C1046 C1045 1.396 . S
C1046 C1047 1.394 . S
C1047 C1043 1.397 . S
C1047 C1046 1.394 . S
C1047 C1057 1.723 . S
C1048 C1045 1.453 . S
C1048 H1072 0.982 . S
C1048 H1073 0.979 . S
C1048 H1074 0.977 . S
C1049 C1045 1.684 . S
C1049 H1075 0.979 . S
C1049 H1076 0.980 . S
C1049 H1077 0.983 . S
C1050 H1026 0.948 . S
C1050 C1051 1.391 . S
C1050 C1055 1.391 . S
C1051 C1050 1.391 . S
C1051 C1052 1.391 . S
C1052 H1029 0.947 . S
C1052 C1051 1.391 . S
C1052 C1053 1.392 . S
C1053 H1030 0.948 . S
C1053 C1052 1.392 . S
C1053 C1054 1.419 . S
C1054 C1053 1.419 . S
C1054 C1055 1.391 . S
C1054 C1058 1.397 . S
C1055 C1050 1.391 . S
C1055 C1054 1.391 . S
C1055 C1056 1.399 . S
C1056 C1055 1.399 . S
C1056 C1057 1.396 . S
C1056 C1059 1.453 . S
C1056 C1060 1.684 . S
C1057 C1047 1.723 . S
C1057 C1056 1.396 . S
C1057 C1058 1.394 . S
C1058 C1028 1.723 . S
C1058 C1054 1.397 . S
C1058 C1057 1.394 . S
C1059 H1031 0.982 . S
C1059 H1035 0.979 . S
C1059 H1036 0.977 . S
C1059 C1056 1.453 . S
C1060 H1032 0.979 . S
C1060 H1033 0.980 . S
C1060 H1034 0.983 . S
C1060 C1056 1.684 . S
H1061 C1079 0.948 . S
H1062 C1020 0.948 . S
H1063 C1038 0.979 . S
H1064 C1038 0.980 . S
H1065 C1038 0.983 . S
H1066 C1037 0.982 . S
H1067 C1037 0.979 . S
H1068 C1037 0.977 . S
H1069 C1039 0.948 . S
H1070 C1041 0.947 . S
H1071 C1042 0.948 . S
H1072 C1048 0.982 . S
H1073 C1048 0.979 . S
H1074 C1048 0.977 . S
H1075 C1049 0.979 . S
H1076 C1049 0.980 . S
H1077 C1049 0.983 . S
H1078 C1022 0.947 . S
C1079 C1022 1.392 . S
C1079 C1023 1.419 . S
C1079 H1061 0.948 . S
C1080 C1081 1.391 . S
C1080 C1084 1.391 . S
C1080 H1122 0.948 . S
C1081 C1080 1.391 . S
C1081 C1082 1.391 . S
C1082 C1081 1.391 . S
C1082 H1138 0.947 . S
C1082 C1139 1.392 . S
C1083 C1084 1.391 . S
C1083 C1087 1.397 . S
C1083 C1139 1.419 . S
C1084 C1080 1.391 . S
C1084 C1083 1.391 . S
C1084 C1085 1.399 . S
C1085 C1084 1.399 . S
C1085 C1088 1.396 . S
C1085 C1097 1.453 . S
C1085 C1098 1.684 . S
H1086 C1110 0.948 . S
C1087 C1083 1.397 . S
C1087 C1088 1.394 . S
C1087 C1106 1.723 . S
C1088 C1085 1.396 . S
C1088 C1087 1.394 . S
C1088 C1118 1.723 . S
H1089 C1112 0.947 . S
H1090 C1113 0.948 . S
H1091 C1119 0.982 . S
H1092 C1120 0.979 . S
H1093 C1120 0.980 . S
H1094 C1120 0.983 . S
H1095 C1119 0.979 . S
H1096 C1119 0.977 . S
C1097 C1085 1.453 . S
C1097 H1126 0.982 . S
C1097 H1127 0.979 . S
C1097 H1128 0.977 . S
C1098 C1085 1.684 . S
C1098 H1123 0.979 . S
C1098 H1124 0.980 . S
C1098 H1125 0.983 . S
C1099 C1100 1.391 . S
C1099 C1104 1.391 . S
C1099 H1129 0.948 . S
C1100 C1099 1.391 . S
C1100 C1101 1.391 . S
C1101 C1100 1.391 . S
C1101 C1102 1.392 . S
C1101 H1130 0.947 . S
C1102 C1101 1.392 . S
C1102 C1103 1.419 . S
C1102 H1131 0.948 . S
C1103 C1102 1.419 . S
C1103 C1104 1.391 . S
C1103 C1107 1.397 . S
C1104 C1099 1.391 . S
C1104 C1103 1.391 . S
C1104 C1105 1.399 . S
C1105 C1104 1.399 . S
C1105 C1106 1.396 . S
C1105 C1108 1.453 . S
C1105 C1109 1.684 . S
C1106 C1087 1.723 . S
C1106 C1105 1.396 . S
C1106 C1107 1.394 . S
C1107 C1103 1.397 . S
C1107 C1106 1.394 . S
C1107 C1117 1.723 . S
C1108 C1105 1.453 . S
C1108 H1132 0.982 . S
C1108 H1133 0.979 . S
C1108 H1134 0.977 . S
C1109 C1105 1.684 . S
C1109 H1135 0.979 . S
C1109 H1136 0.980 . S
C1109 H1137 0.983 . S
C1110 H1086 0.948 . S
C1110 C1111 1.391 . S
C1110 C1115 1.391 . S
C1111 C1110 1.391 . S
C1111 C1112 1.391 . S
C1112 H1089 0.947 . S
C1112 C1111 1.391 . S
C1112 C1113 1.392 . S
C1113 H1090 0.948 . S
C1113 C1112 1.392 . S
C1113 C1114 1.419 . S
C1114 C1113 1.419 . S
C1114 C1115 1.391 . S
C1114 C1118 1.397 . S
C1115 C1110 1.391 . S
C1115 C1114 1.391 . S
C1115 C1116 1.399 . S
C1116 C1115 1.399 . S
C1116 C1117 1.396 . S
C1116 C1119 1.453 . S
C1116 C1120 1.684 . S
C1117 C1107 1.723 . S
C1117 C1116 1.396 . S
C1117 C1118 1.394 . S
C1118 C1088 1.723 . S
C1118 C1114 1.397 . S
C1118 C1117 1.394 . S
C1119 H1091 0.982 . S
C1119 H1095 0.979 . S
C1119 H1096 0.977 . S
C1119 C1116 1.453 . S
C1120 H1092 0.979 . S
C1120 H1093 0.980 . S
C1120 H1094 0.983 . S
C1120 C1116 1.684 . S
H1121 C1139 0.948 . S
H1122 C1080 0.948 . S
H1123 C1098 0.979 . S
H1124 C1098 0.980 . S
H1125 C1098 0.983 . S
H1126 C1097 0.982 . S
H1127 C1097 0.979 . S
H1128 C1097 0.977 . S
H1129 C1099 0.948 . S
H1130 C1101 0.947 . S
H1131 C1102 0.948 . S
H1132 C1108 0.982 . S
H1133 C1108 0.979 . S
H1134 C1108 0.977 . S
H1135 C1109 0.979 . S
H1136 C1109 0.980 . S
H1137 C1109 0.983 . S
H1138 C1082 0.947 . S
C1139 C1082 1.392 . S
C1139 C1083 1.419 . S
C1139 H1121 0.948 . S
C1140 C1141 1.391 . S
C1140 C1144 1.391 . S
C1140 H1182 0.948 . S
C1141 C1140 1.391 . S
C1141 C1142 1.391 . S
C1142 C1141 1.391 . S
C1142 H1198 0.947 . S
C1142 C1199 1.392 . S
C1143 C1144 1.391 . S
C1143 C1147 1.397 . S
C1143 C1199 1.419 . S
C1144 C1140 1.391 . S
C1144 C1143 1.391 . S
C1144 C1145 1.399 . S
C1145 C1144 1.399 . S
C1145 C1148 1.396 . S
C1145 C1157 1.453 . S
C1145 C1158 1.684 . S
H1146 C1170 0.948 . S
C1147 C1143 1.397 . S
C1147 C1148 1.394 . S
C1147 C1166 1.723 . S
C1148 C1145 1.396 . S
C1148 C1147 1.394 . S
C1148 C1178 1.723 . S
H1149 C1172 0.947 . S
H1150 C1173 0.948 . S
H1151 C1179 0.982 . S
H1152 C1180 0.979 . S
H1153 C1180 0.980 . S
H1154 C1180 0.983 . S
H1155 C1179 0.979 . S
H1156 C1179 0.977 . S
C1157 C1145 1.453 . S
C1157 H1186 0.982 . S
C1157 H1187 0.979 . S
C1157 H1188 0.977 . S
C1158 C1145 1.684 . S
C1158 H1183 0.979 . S
C1158 H1184 0.980 . S
C1158 H1185 0.983 . S
C1159 C1160 1.391 . S
C1159 C1164 1.391 . S
C1159 H1189 0.948 . S
C1160 C1159 1.391 . S
C1160 C1161 1.391 . S
C1161 C1160 1.391 . S
C1161 C1162 1.392 . S
C1161 H1190 0.947 . S
C1162 C1161 1.392 . S
C1162 C1163 1.419 . S
C1162 H1191 0.948 . S
C1163 C1162 1.419 . S
C1163 C1164 1.391 . S
C1163 C1167 1.397 . S
C1164 C1159 1.391 . S
C1164 C1163 1.391 . S
C1164 C1165 1.399 . S
C1165 C1164 1.399 . S
C1165 C1166 1.396 . S
C1165 C1168 1.453 . S
C1165 C1169 1.684 . S
C1166 C1147 1.723 . S
C1166 C1165 1.396 . S
C1166 C1167 1.394 . S
C1167 C1163 1.397 . S
C1167 C1166 1.394 . S
C1167 C1177 1.723 . S
C1168 C1165 1.453 . S
C1168 H1192 0.982 . S
C1168 H1193 0.979 . S
C1168 H1194 0.977 . S
C1169 C1165 1.684 . S
C1169 H1195 0.979 . S
C1169 H1196 0.980 . S
C1169 H1197 0.983 . S
C1170 H1146 0.948 . S
C1170 C1171 1.391 . S
C1170 C1175 1.391 . S
C1171 C1170 1.391 . S
C1171 C1172 1.391 . S
C1172 H1149 0.947 . S
C1172 C1171 1.391 . S
C1172 C1173 1.392 . S
C1173 H1150 0.948 . S
C1173 C1172 1.392 . S
C1173 C1174 1.419 . S
C1174 C1173 1.419 . S
C1174 C1175 1.391 . S
C1174 C1178 1.397 . S
C1175 C1170 1.391 . S
C1175 C1174 1.391 . S
C1175 C1176 1.399 . S
C1176 C1175 1.399 . S
C1176 C1177 1.396 . S
C1176 C1179 1.453 . S
C1176 C1180 1.684 . S
C1177 C1167 1.723 . S
C1177 C1176 1.396 . S
C1177 C1178 1.394 . S
C1178 C1148 1.723 . S
C1178 C1174 1.397 . S
C1178 C1177 1.394 . S
C1179 H1151 0.982 . S
C1179 H1155 0.979 . S
C1179 H1156 0.977 . S
C1179 C1176 1.453 . S
C1180 H1152 0.979 . S
C1180 H1153 0.980 . S
C1180 H1154 0.983 . S
C1180 C1176 1.684 . S
H1181 C1199 0.948 . S
H1182 C1140 0.948 . S
H1183 C1158 0.979 . S
H1184 C1158 0.980 . S
H1185 C1158 0.983 . S
H1186 C1157 0.982 . S
H1187 C1157 0.979 . S
H1188 C1157 0.977 . S
H1189 C1159 0.948 . S
H1190 C1161 0.947 . S
H1191 C1162 0.948 . S
H1192 C1168 0.982 . S
H1193 C1168 0.979 . S
H1194 C1168 0.977 . S
H1195 C1169 0.979 . S
H1196 C1169 0.980 . S
H1197 C1169 0.983 . S
H1198 C1142 0.947 . S
C1199 C1142 1.392 . S
C1199 C1143 1.419 . S
C1199 H1181 0.948 . S
C1200 C1201 1.391 . S
C1200 C1204 1.391 . S
C1200 H1242 0.948 . S
C1201 C1200 1.391 . S
C1201 C1202 1.391 . S
C1202 C1201 1.391 . S
C1202 H1258 0.947 . S
C1202 C1259 1.392 . S
C1203 C1204 1.391 . S
C1203 C1207 1.397 . S
C1203 C1259 1.419 . S
C1204 C1200 1.391 . S
C1204 C1203 1.391 . S
C1204 C1205 1.399 . S
C1205 C1204 1.399 . S
C1205 C1208 1.396 . S
C1205 C1217 1.453 . S
C1205 C1218 1.684 . S
H1206 C1230 0.948 . S
C1207 C1203 1.397 . S
C1207 C1208 1.394 . S
C1207 C1226 1.723 . S
C1208 C1205 1.396 . S
C1208 C1207 1.394 . S
C1208 C1238 1.723 . S
H1209 C1232 0.947 . S
H1210 C1233 0.948 . S
H1211 C1239 0.982 . S
H1212 C1240 0.979 . S
H1213 C1240 0.980 . S
H1214 C1240 0.983 . S
H1215 C1239 0.979 . S
H1216 C1239 0.977 . S
C1217 C1205 1.453 . S
C1217 H1246 0.982 . S
C1217 H1247 0.979 . S
C1217 H1248 0.977 . S
C1218 C1205 1.684 . S
C1218 H1243 0.979 . S
C1218 H1244 0.980 . S
C1218 H1245 0.983 . S
C1219 C1220 1.391 . S
C1219 C1224 1.391 . S
C1219 H1249 0.948 . S
C1220 C1219 1.391 . S
C1220 C1221 1.391 . S
C1221 C1220 1.391 . S
C1221 C1222 1.392 . S
C1221 H1250 0.947 . S
C1222 C1221 1.392 . S
C1222 C1223 1.419 . S
C1222 H1251 0.948 . S
C1223 C1222 1.419 . S
C1223 C1224 1.391 . S
C1223 C1227 1.397 . S
C1224 C1219 1.391 . S
C1224 C1223 1.391 . S
C1224 C1225 1.399 . S
C1225 C1224 1.399 . S
C1225 C1226 1.396 . S
C1225 C1228 1.453 . S
C1225 C1229 1.684 . S
C1226 C1207 1.723 . S
C1226 C1225 1.396 . S
C1226 C1227 1.394 . S
C1227 C1223 1.397 . S
C1227 C1226 1.394 . S
C1227 C1237 1.723 . S
C1228 C1225 1.453 . S
C1228 H1252 0.982 . S
C1228 H1253 0.979 . S
C1228 H1254 0.977 . S
C1229 C1225 1.684 . S
C1229 H1255 0.979 . S
C1229 H1256 0.980 . S
C1229 H1257 0.983 . S
C1230 H1206 0.948 . S
C1230 C1231 1.391 . S
C1230 C1235 1.391 . S
C1231 C1230 1.391 . S
C1231 C1232 1.391 . S
C1232 H1209 0.947 . S
C1232 C1231 1.391 . S
C1232 C1233 1.392 . S
C1233 H1210 0.948 . S
C1233 C1232 1.392 . S
C1233 C1234 1.419 . S
C1234 C1233 1.419 . S
C1234 C1235 1.391 . S
C1234 C1238 1.397 . S
C1235 C1230 1.391 . S
C1235 C1234 1.391 . S
C1235 C1236 1.399 . S
C1236 C1235 1.399 . S
C1236 C1237 1.396 . S
C1236 C1239 1.453 . S
C1236 C1240 1.684 . S
C1237 C1227 1.723 . S
C1237 C1236 1.396 . S
C1237 C1238 1.394 . S
C1238 C1208 1.723 . S
C1238 C1234 1.397 . S
C1238 C1237 1.394 . S
C1239 H1211 0.982 . S
C1239 H1215 0.979 . S
C1239 H1216 0.977 . S
C1239 C1236 1.453 . S
C1240 H1212 0.979 . S
C1240 H1213 0.980 . S
C1240 H1214 0.983 . S
C1240 C1236 1.684 . S
H1241 C1259 0.948 . S
H1242 C1200 0.948 . S
H1243 C1218 0.979 . S
H1244 C1218 0.980 . S
H1245 C1218 0.983 . S
H1246 C1217 0.982 . S
H1247 C1217 0.979 . S
H1248 C1217 0.977 . S
H1249 C1219 0.948 . S
H1250 C1221 0.947 . S
H1251 C1222 0.948 . S
H1252 C1228 0.982 . S
H1253 C1228 0.979 . S
H1254 C1228 0.977 . S
H1255 C1229 0.979 . S
H1256 C1229 0.980 . S
H1257 C1229 0.983 . S
H1258 C1202 0.947 . S
C1259 C1202 1.392 . S
C1259 C1203 1.419 . S
C1259 H1241 0.948 . S
C1260 C1261 1.391 . S
C1260 C1264 1.391 . S
C1260 H1302 0.948 . S
C1261 C1260 1.391 . S
C1261 C1262 1.391 . S
C1262 C1261 1.391 . S
C1262 H1318 0.947 . S
C1262 C1319 1.392 . S
C1263 C1264 1.391 . S
C1263 C1267 1.397 . S
C1263 C1319 1.419 . S
C1264 C1260 1.391 . S
C1264 C1263 1.391 . S
C1264 C1265 1.399 . S
C1265 C1264 1.399 . S
C1265 C1268 1.396 . S
C1265 C1277 1.453 . S
C1265 C1278 1.684 . S
H1266 C1290 0.948 . S
C1267 C1263 1.397 . S
C1267 C1268 1.394 . S
C1267 C1286 1.723 . S
C1268 C1265 1.396 . S
C1268 C1267 1.394 . S
C1268 C1298 1.723 . S
H1269 C1292 0.947 . S
H1270 C1293 0.948 . S
H1271 C1299 0.982 . S
H1272 C1300 0.979 . S
H1273 C1300 0.980 . S
H1274 C1300 0.983 . S
H1275 C1299 0.979 . S
H1276 C1299 0.977 . S
C1277 C1265 1.453 . S
C1277 H1306 0.982 . S
C1277 H1307 0.979 . S
C1277 H1308 0.977 . S
C1278 C1265 1.684 . S
C1278 H1303 0.979 . S
C1278 H1304 0.980 . S
C1278 H1305 0.983 . S
C1279 C1280 1.391 . S
C1279 C1284 1.391 . S
C1279 H1309 0.948 . S
C1280 C1279 1.391 . S
C1280 C1281 1.391 . S
C1281 C1280 1.391 . S
C1281 C1282 1.392 . S
C1281 H1310 0.947 . S
C1282 C1281 1.392 . S
C1282 C1283 1.419 . S
C1282 H1311 0.948 . S
C1283 C1282 1.419 . S
C1283 C1284 1.391 . S
C1283 C1287 1.397 . S
C1284 C1279 1.391 . S
C1284 C1283 1.391 . S
C1284 C1285 1.399 . S
C1285 C1284 1.399 . S
C1285 C1286 1.396 . S
C1285 C1288 1.453 . S
C1285 C1289 1.684 . S
C1286 C1267 1.723 . S
C1286 C1285 1.396 . S
C1286 C1287 1.394 . S
C1287 C1283 1.397 . S
C1287 C1286 1.394 . S
C1287 C1297 1.723 . S
C1288 C1285 1.453 . S
C1288 H1312 0.982 . S
C1288 H1313 0.979 . S
C1288 H1314 0.977 . S
C1289 C1285 1.684 . S
C1289 H1315 0.979 . S
C1289 H1316 0.980 . S
C1289 H1317 0.983 . S
C1290 H1266 0.948 . S
C1290 C1291 1.391 . S
C1290 C1295 1.391 . S
C1291 C1290 1.391 . S
C1291 C1292 1.391 . S
C1292 H1269 0.947 . S
C1292 C1291 1.391 . S
C1292 C1293 1.392 . S
C1293 H1270 0.948 . S
C1293 C1292 1.392 . S
C1293 C1294 1.419 . S
C1294 C1293 1.419 . S
C1294 C1295 1.391 . S
C1294 C1298 1.397 . S
C1295 C1290 1.391 . S
C1295 C1294 1.391 . S
C1295 C1296 1.399 . S
C1296 C1295 1.399 . S
C1296 C1297 1.396 . S
C1296 C1299 1.453 . S
C1296 C1300 1.684 . S
C1297 C1287 1.723 . S
C1297 C1296 1.396 . S
C1297 C1298 1.394 . S
C1298 C1268 1.723 . S
C1298 C1294 1.397 . S
C1298 C1297 1.394 . S
C1299 H1271 0.982 . S
C1299 H1275 0.979 . S
C1299 H1276 0.977 . S
C1299 C1296 1.453 . S
C1300 H1272 0.979 . S
C1300 H1273 0.980 . S
C1300 H1274 0.983 . S
C1300 C1296 1.684 . S
H1301 C1319 0.948 . S
H1302 C1260 0.948 . S
H1303 C1278 0.979 . S
H1304 C1278 0.980 . S
H1305 C1278 0.983 . S
H1306 C1277 0.982 . S
H1307 C1277 0.979 . S
H1308 C1277 0.977 . S
H1309 C1279 0.948 . S
H1310 C1281 0.947 . S
H1311 C1282 0.948 . S
H1312 C1288 0.982 . S
H1313 C1288 0.979 . S
H1314 C1288 0.977 . S
H1315 C1289 0.979 . S
H1316 C1289 0.980 . S
H1317 C1289 0.983 . S
H1318 C1262 0.947 . S
C1319 C1262 1.392 . S
C1319 C1263 1.419 . S
C1319 H1301 0.948 . S
C1320 C1321 1.391 . S
C1320 C1324 1.391 . S
C1320 H1362 0.948 . S
C1321 C1320 1.391 . S
C1321 C1322 1.391 . S
C1322 C1321 1.391 . S
C1322 H1378 0.947 . S
C1322 C1379 1.392 . S
C1323 C1324 1.391 . S
C1323 C1327 1.397 . S
C1323 C1379 1.419 . S
C1324 C1320 1.391 . S
C1324 C1323 1.391 . S
C1324 C1325 1.399 . S
C1325 C1324 1.399 . S
C1325 C1328 1.396 . S
C1325 C1337 1.453 . S
C1325 C1338 1.684 . S
H1326 C1350 0.948 . S
C1327 C1323 1.397 . S
C1327 C1328 1.394 . S
C1327 C1346 1.723 . S
C1328 C1325 1.396 . S
C1328 C1327 1.394 . S
C1328 C1358 1.723 . S
H1329 C1352 0.947 . S
H1330 C1353 0.948 . S
H1331 C1359 0.982 . S
H1332 C1360 0.979 . S
H1333 C1360 0.980 . S
H1334 C1360 0.983 . S
H1335 C1359 0.979 . S
H1336 C1359 0.977 . S
C1337 C1325 1.453 . S
C1337 H1366 0.982 . S
C1337 H1367 0.979 . S
C1337 H1368 0.977 . S
C1338 C1325 1.684 . S
C1338 H1363 0.979 . S
C1338 H1364 0.980 . S
C1338 H1365 0.983 . S
C1339 C1340 1.391 . S
C1339 C1344 1.391 . S
C1339 H1369 0.948 . S
C1340 C1339 1.391 . S
C1340 C1341 1.391 . S
C1341 C1340 1.391 . S
C1341 C1342 1.392 . S
C1341 H1370 0.947 . S
C1342 C1341 1.392 . S
C1342 C1343 1.419 . S
C1342 H1371 0.948 . S
C1343 C1342 1.419 . S
C1343 C1344 1.391 . S
C1343 C1347 1.397 . S
C1344 C1339 1.391 . S
C1344 C1343 1.391 . S
C1344 C1345 1.399 . S
C1345 C1344 1.399 . S
C1345 C1346 1.396 . S
C1345 C1348 1.453 . S
C1345 C1349 1.684 . S
C1346 C1327 1.723 . S
C1346 C1345 1.396 . S
C1346 C1347 1.394 . S
C1347 C1343 1.397 . S
C1347 C1346 1.394 . S
C1347 C1357 1.723 . S
C1348 C1345 1.453 . S
C1348 H1372 0.982 . S
C1348 H1373 0.979 . S
C1348 H1374 0.977 . S
C1349 C1345 1.684 . S
C1349 H1375 0.979 . S
C1349 H1376 0.980 . S
C1349 H1377 0.983 . S
C1350 H1326 0.948 . S
C1350 C1351 1.391 . S
C1350 C1355 1.391 . S
C1351 C1350 1.391 . S
C1351 C1352 1.391 . S
C1352 H1329 0.947 . S
C1352 C1351 1.391 . S
C1352 C1353 1.392 . S
C1353 H1330 0.948 . S
C1353 C1352 1.392 . S
C1353 C1354 1.419 . S
C1354 C1353 1.419 . S
C1354 C1355 1.391 . S
C1354 C1358 1.397 . S
C1355 C1350 1.391 . S
C1355 C1354 1.391 . S
C1355 C1356 1.399 . S
C1356 C1355 1.399 . S
C1356 C1357 1.396 . S
C1356 C1359 1.453 . S
C1356 C1360 1.684 . S
C1357 C1347 1.723 . S
C1357 C1356 1.396 . S
C1357 C1358 1.394 . S
C1358 C1328 1.723 . S
C1358 C1354 1.397 . S
C1358 C1357 1.394 . S
C1359 H1331 0.982 . S
C1359 H1335 0.979 . S
C1359 H1336 0.977 . S
C1359 C1356 1.453 . S
C1360 H1332 0.979 . S
C1360 H1333 0.980 . S
C1360 H1334 0.983 . S
C1360 C1356 1.684 . S
H1361 C1379 0.948 . S
H1362 C1320 0.948 . S
H1363 C1338 0.979 . S
H1364 C1338 0.980 . S
H1365 C1338 0.983 . S
H1366 C1337 0.982 . S
H1367 C1337 0.979 . S
H1368 C1337 0.977 . S
H1369 C1339 0.948 . S
H1370 C1341 0.947 . S
H1371 C1342 0.948 . S
H1372 C1348 0.982 . S
H1373 C1348 0.979 . S
H1374 C1348 0.977 . S
H1375 C1349 0.979 . S
H1376 C1349 0.980 . S
H1377 C1349 0.983 . S
H1378 C1322 0.947 . S
C1379 C1322 1.392 . S
C1379 C1323 1.419 . S
C1379 H1361 0.948 . S
C1380 C1381 1.391 . S
C1380 C1384 1.391 . S
C1380 H1422 0.948 . S
C1381 C1380 1.391 . S
C1381 C1382 1.391 . S
C1382 C1381 1.391 . S
C1382 H1438 0.947 . S
C1382 C1439 1.392 . S
C1383 C1384 1.391 . S
C1383 C1387 1.397 . S
C1383 C1439 1.419 . S
C1384 C1380 1.391 . S
C1384 C1383 1.391 . S
C1384 C1385 1.399 . S
C1385 C1384 1.399 . S
C1385 C1388 1.396 . S
C1385 C1397 1.453 . S
C1385 C1398 1.684 . S
H1386 C1410 0.948 . S
C1387 C1383 1.397 . S
C1387 C1388 1.394 . S
C1387 C1406 1.723 . S
C1388 C1385 1.396 . S
C1388 C1387 1.394 . S
C1388 C1418 1.723 . S
H1389 C1412 0.947 . S
H1390 C1413 0.948 . S
H1391 C1419 0.982 . S
H1392 C1420 0.979 . S
H1393 C1420 0.980 . S
H1394 C1420 0.983 . S
H1395 C1419 0.979 . S
H1396 C1419 0.977 . S
C1397 C1385 1.453 . S
C1397 H1426 0.982 . S
C1397 H1427 0.979 . S
C1397 H1428 0.977 . S
C1398 C1385 1.684 . S
C1398 H1423 0.979 . S
C1398 H1424 0.980 . S
C1398 H1425 0.983 . S
C1399 C1400 1.391 . S
C1399 C1404 1.391 . S
C1399 H1429 0.948 . S
C1400 C1399 1.391 . S
C1400 C1401 1.391 . S
C1401 C1400 1.391 . S
C1401 C1402 1.392 . S
C1401 H1430 0.947 . S
C1402 C1401 1.392 . S
C1402 C1403 1.419 . S
C1402 H1431 0.948 . S
C1403 C1402 1.419 . S
C1403 C1404 1.391 . S
C1403 C1407 1.397 . S
C1404 C1399 1.391 . S
C1404 C1403 1.391 . S
C1404 C1405 1.399 . S
C1405 C1404 1.399 . S
C1405 C1406 1.396 . S
C1405 C1408 1.453 . S
C1405 C1409 1.684 . S
C1406 C1387 1.723 . S
C1406 C1405 1.396 . S
C1406 C1407 1.394 . S
C1407 C1403 1.397 . S
C1407 C1406 1.394 . S
C1407 C1417 1.723 . S
C1408 C1405 1.453 . S
C1408 H1432 0.982 . S
C1408 H1433 0.979 . S
C1408 H1434 0.977 . S
C1409 C1405 1.684 . S
C1409 H1435 0.979 . S
C1409 H1436 0.980 . S
C1409 H1437 0.983 . S
C1410 H1386 0.948 . S
C1410 C1411 1.391 . S
C1410 C1415 1.391 . S
C1411 C1410 1.391 . S
C1411 C1412 1.391 . S
C1412 H1389 0.947 . S
C1412 C1411 1.391 . S
C1412 C1413 1.392 . S
C1413 H1390 0.948 . S
C1413 C1412 1.392 . S
C1413 C1414 1.419 . S
C1414 C1413 1.419 . S
C1414 C1415 1.391 . S
C1414 C1418 1.397 . S
C1415 C1410 1.391 . S
C1415 C1414 1.391 . S
C1415 C1416 1.399 . S
C1416 C1415 1.399 . S
C1416 C1417 1.396 . S
C1416 C1419 1.453 . S
C1416 C1420 1.684 . S
C1417 C1407 1.723 . S
C1417 C1416 1.396 . S
C1417 C1418 1.394 . S
C1418 C1388 1.723 . S
C1418 C1414 1.397 . S
C1418 C1417 1.394 . S
C1419 H1391 0.982 . S
C1419 H1395 0.979 . S
C1419 H1396 0.977 . S
C1419 C1416 1.453 . S
C1420 H1392 0.979 . S
C1420 H1393 0.980 . S
C1420 H1394 0.983 . S
C1420 C1416 1.684 . S
H1421 C1439 0.948 . S
H1422 C1380 0.948 . S
H1423 C1398 0.979 . S
H1424 C1398 0.980 . S
H1425 C1398 0.983 . S
H1426 C1397 0.982 . S
H1427 C1397 0.979 . S
H1428 C1397 0.977 . S
H1429 C1399 0.948 . S
H1430 C1401 0.947 . S
H1431 C1402 0.948 . S
H1432 C1408 0.982 . S
H1433 C1408 0.979 . S
H1434 C1408 0.977 . S
H1435 C1409 0.979 . S
H1436 C1409 0.980 . S
H1437 C1409 0.983 . S
H1438 C1382 0.947 . S
C1439 C1382 1.392 . S
C1439 C1383 1.419 . S
C1439 H1421 0.948 . S
C1440 O1466 1.283 . S
C1440 O1484 1.283 . S
C1441 O1467 1.283 . S
C1441 O1482 1.283 . S
C1442 O1468 1.283 . S
C1442 O1485 1.283 . S
C1443 O1469 1.283 . S
C1443 O1483 1.283 . S
C1444 O1470 1.283 . S
C1444 O1479 1.283 . S
C1445 O1471 1.283 . S
C1445 O1481 1.283 . S
C1446 O1472 1.283 . S
C1446 O1478 1.283 . S
C1447 O1473 1.283 . S
C1447 O1480 1.283 . S
C1448 O1474 1.283 . S
C1448 O1489 1.283 . S
C1449 O1475 1.283 . S
C1449 O1487 1.283 . S
C1450 O1476 1.283 . S
C1450 O1488 1.283 . S
C1451 O1477 1.283 . S
C1451 O1486 1.283 . S
Eu1452 O1453 2.370 1_455 S
Eu1452 O1454 2.370 . S
Eu1452 O1457 2.370 1_455 S
Eu1452 O1458 2.370 . S
Eu1452 O1466 2.363 . S
Eu1452 O1467 2.363 . S
Eu1452 O1480 2.363 . S
Eu1452 O1481 2.363 1_455 S
O1453 Eu1452 2.370 1_655 S
O1453 Eu1455 2.370 1_565 S
O1453 Eu1460 2.370 1_665 S
O1454 Eu1452 2.370 . S
O1454 Eu1456 2.370 1_565 S
O1454 Eu1459 2.370 1_565 S
Eu1455 O1453 2.370 1_545 S
Eu1455 O1457 2.370 1_545 S
Eu1455 O1461 2.370 . S
Eu1455 O1462 2.370 . S
Eu1455 O1470 2.363 . S
Eu1455 O1471 2.363 1_545 S
Eu1455 O1486 2.363 . S
Eu1455 O1487 2.363 . S
Eu1456 O1454 2.370 1_545 S
Eu1456 O1458 2.370 1_545 S
Eu1456 O1463 2.370 . S
Eu1456 O1464 2.370 . S
Eu1456 O1472 2.363 . S
Eu1456 O1473 2.363 1_545 S
Eu1456 O1488 2.363 . S
Eu1456 O1489 2.363 . S
O1457 Eu1452 2.370 1_655 S
O1457 Eu1455 2.370 1_565 S
O1457 Eu1459 2.370 1_665 S
O1458 Eu1452 2.370 . S
O1458 Eu1456 2.370 1_565 S
O1458 Eu1460 2.370 1_565 S
Eu1459 O1454 2.370 1_545 S
Eu1459 O1457 2.370 1_445 S
Eu1459 O1461 2.370 1_455 S
Eu1459 O1464 2.370 . S
Eu1459 O1476 2.363 . S
Eu1459 O1477 2.363 1_455 S
Eu1459 O1484 2.363 1_545 S
Eu1459 O1485 2.363 . S
Eu1460 O1453 2.370 1_445 S
Eu1460 O1458 2.370 1_545 S
Eu1460 O1462 2.370 1_455 S
Eu1460 O1463 2.370 . S
Eu1460 O1474 2.363 . S
Eu1460 O1475 2.363 1_455 S
Eu1460 O1482 2.363 1_545 S
Eu1460 O1483 2.363 . S
O1461 Eu1455 2.370 . S
O1461 Eu1459 2.370 1_655 S
O1461 Eu1465 2.370 1_655 S
O1462 Eu1455 2.370 . S
O1462 Eu1460 2.370 1_655 S
O1462 Eu1465 2.370 1_655 S
O1463 Eu1456 2.370 . S
O1463 Eu1460 2.370 . S
O1463 Eu1465 2.370 . S
O1464 Eu1456 2.370 . S
O1464 Eu1459 2.370 . S
O1464 Eu1465 2.370 . S
Eu1465 O1461 2.370 1_455 S
Eu1465 O1462 2.370 1_455 S
Eu1465 O1463 2.370 . S
Eu1465 O1464 2.370 . S
Eu1465 O1468 2.363 . S
Eu1465 O1469 2.363 . S
Eu1465 O1478 2.363 . S
Eu1465 O1479 2.363 1_455 S
O1466 C1440 1.283 . S
O1466 Eu1452 2.363 . S
O1467 C1441 1.283 . S
O1467 Eu1452 2.363 . S
O1468 C1442 1.283 . S
O1468 Eu1465 2.363 . S
O1469 C1443 1.283 . S
O1469 Eu1465 2.363 . S
O1470 C1444 1.283 . S
O1470 Eu1455 2.363 . S
O1471 C1445 1.283 . S
O1471 Eu1455 2.363 1_565 S
O1472 C1446 1.283 . S
O1472 Eu1456 2.363 . S
O1473 C1447 1.283 . S
O1473 Eu1456 2.363 1_565 S
O1474 C1448 1.283 . S
O1474 Eu1460 2.363 . S
O1475 C1449 1.283 . S
O1475 Eu1460 2.363 1_655 S
O1476 C1450 1.283 . S
O1476 Eu1459 2.363 . S
O1477 C1451 1.283 . S
O1477 Eu1459 2.363 1_655 S
O1478 C1446 1.283 . S
O1478 Eu1465 2.363 . S
O1479 C1444 1.283 . S
O1479 Eu1465 2.363 1_655 S
O1480 C1447 1.283 . S
O1480 Eu1452 2.363 . S
O1481 C1445 1.283 . S
O1481 Eu1452 2.363 1_655 S
O1482 C1441 1.283 . S
O1482 Eu1460 2.363 1_565 S
O1483 C1443 1.283 . S
O1483 Eu1460 2.363 . S
O1484 C1440 1.283 . S
O1484 Eu1459 2.363 1_565 S
O1485 C1442 1.283 . S
O1485 Eu1459 2.363 . S
O1486 C1451 1.283 . S
O1486 Eu1455 2.363 . S
O1487 C1449 1.283 . S
O1487 Eu1455 2.363 . S
O1488 C1450 1.283 . S
O1488 Eu1456 2.363 . S
O1489 C1448 1.283 . S
O1489 Eu1456 2.363 . S
C1490 O1516 1.283 . S
C1490 O1534 1.283 . S
C1491 O1517 1.283 . S
C1491 O1532 1.283 . S
C1492 O1518 1.283 . S
C1492 O1535 1.283 . S
C1493 O1519 1.283 . S
C1493 O1533 1.283 . S
C1494 O1520 1.283 . S
C1494 O1529 1.283 . S
C1495 O1521 1.283 . S
C1495 O1531 1.283 . S
C1496 O1522 1.283 . S
C1496 O1528 1.283 . S
C1497 O1523 1.283 . S
C1497 O1530 1.283 . S
C1498 O1524 1.283 . S
C1498 O1539 1.283 . S
C1499 O1525 1.283 . S
C1499 O1537 1.283 . S
C1500 O1526 1.283 . S
C1500 O1538 1.283 . S
C1501 O1527 1.283 . S
C1501 O1536 1.283 . S
Eu1502 O1503 2.370 . S
Eu1502 O1504 2.370 1_545 S
Eu1502 O1507 2.370 1_545 S
Eu1502 O1508 2.370 . S
Eu1502 O1516 2.363 1_545 S
Eu1502 O1517 2.363 . S
Eu1502 O1530 2.363 . S
Eu1502 O1531 2.363 . S
O1503 Eu1502 2.370 . S
O1503 Eu1505 2.370 . S
O1503 Eu1510 2.370 . S
O1504 Eu1502 2.370 1_565 S
O1504 Eu1506 2.370 1_565 S
O1504 Eu1509 2.370 . S
Eu1505 O1503 2.370 . S
Eu1505 O1507 2.370 1_545 S
Eu1505 O1511 2.370 1_544 S
Eu1505 O1512 2.370 1_554 S
Eu1505 O1520 2.363 1_554 S
Eu1505 O1521 2.363 . S
Eu1505 O1536 2.363 1_545 S
Eu1505 O1537 2.363 . S
Eu1506 O1504 2.370 1_545 S
Eu1506 O1508 2.370 . S
Eu1506 O1513 2.370 1_554 S
Eu1506 O1514 2.370 1_544 S
Eu1506 O1522 2.363 1_554 S
Eu1506 O1523 2.363 . S
Eu1506 O1538 2.363 1_545 S
Eu1506 O1539 2.363 . S
O1507 Eu1502 2.370 1_565 S
O1507 Eu1505 2.370 1_565 S
O1507 Eu1509 2.370 . S
O1508 Eu1502 2.370 . S
O1508 Eu1506 2.370 . S
O1508 Eu1510 2.370 . S
Eu1509 O1504 2.370 . S
Eu1509 O1507 2.370 . S
Eu1509 O1511 2.370 1_554 S
Eu1509 O1514 2.370 1_554 S
Eu1509 O1526 2.363 . S
Eu1509 O1527 2.363 . S
Eu1509 O1534 2.363 . S
Eu1509 O1535 2.363 1_554 S
Eu1510 O1503 2.370 . S
Eu1510 O1508 2.370 . S
Eu1510 O1512 2.370 1_554 S
Eu1510 O1513 2.370 1_554 S
Eu1510 O1524 2.363 . S
Eu1510 O1525 2.363 . S
Eu1510 O1532 2.363 . S
Eu1510 O1533 2.363 1_554 S
O1511 Eu1505 2.370 1_566 S
O1511 Eu1509 2.370 1_556 S
O1511 Eu1515 2.370 1_565 S
O1512 Eu1505 2.370 1_556 S
O1512 Eu1510 2.370 1_556 S
O1512 Eu1515 2.370 . S
O1513 Eu1506 2.370 1_556 S
O1513 Eu1510 2.370 1_556 S
O1513 Eu1515 2.370 . S
O1514 Eu1506 2.370 1_566 S
O1514 Eu1509 2.370 1_556 S
O1514 Eu1515 2.370 1_565 S
Eu1515 O1511 2.370 1_545 S
Eu1515 O1512 2.370 . S
Eu1515 O1513 2.370 . S
Eu1515 O1514 2.370 1_545 S
Eu1515 O1518 2.363 1_545 S
Eu1515 O1519 2.363 . S
Eu1515 O1528 2.363 . S
Eu1515 O1529 2.363 . S
O1516 C1490 1.283 . S
O1516 Eu1502 2.363 1_565 S
O1517 C1491 1.283 . S
O1517 Eu1502 2.363 . S
O1518 C1492 1.283 . S
O1518 Eu1515 2.363 1_565 S
O1519 C1493 1.283 . S
O1519 Eu1515 2.363 . S
O1520 C1494 1.283 . S
O1520 Eu1505 2.363 1_556 S
O1521 C1495 1.283 . S
O1521 Eu1505 2.363 . S
O1522 C1496 1.283 . S
O1522 Eu1506 2.363 1_556 S
O1523 C1497 1.283 . S
O1523 Eu1506 2.363 . S
O1524 C1498 1.283 . S
O1524 Eu1510 2.363 . S
O1525 C1499 1.283 . S
O1525 Eu1510 2.363 . S
O1526 C1500 1.283 . S
O1526 Eu1509 2.363 . S
O1527 C1501 1.283 . S
O1527 Eu1509 2.363 . S
O1528 C1496 1.283 . S
O1528 Eu1515 2.363 . S
O1529 C1494 1.283 . S
O1529 Eu1515 2.363 . S
O1530 C1497 1.283 . S
O1530 Eu1502 2.363 . S
O1531 C1495 1.283 . S
O1531 Eu1502 2.363 . S
O1532 C1491 1.283 . S
O1532 Eu1510 2.363 . S
O1533 C1493 1.283 . S
O1533 Eu1510 2.363 1_556 S
O1534 C1490 1.283 . S
O1534 Eu1509 2.363 . S
O1535 C1492 1.283 . S
O1535 Eu1509 2.363 1_556 S
O1536 C1501 1.283 . S
O1536 Eu1505 2.363 1_565 S
O1537 C1499 1.283 . S
O1537 Eu1505 2.363 . S
O1538 C1500 1.283 . S
O1538 Eu1506 2.363 1_565 S
O1539 C1498 1.283 . S
O1539 Eu1506 2.363 . S
C1540 O1566 1.283 . S
C1540 O1584 1.283 . S
C1541 O1567 1.283 . S
C1541 O1582 1.283 . S
C1542 O1568 1.283 . S
C1542 O1585 1.283 . S
C1543 O1569 1.283 . S
C1543 O1583 1.283 . S
C1544 O1570 1.283 . S
C1544 O1579 1.283 . S
C1545 O1571 1.283 . S
C1545 O1581 1.283 . S
C1546 O1572 1.283 . S
C1546 O1578 1.283 . S
C1547 O1573 1.283 . S
C1547 O1580 1.283 . S
C1548 O1574 1.283 . S
C1548 O1589 1.283 . S
C1549 O1575 1.283 . S
C1549 O1587 1.283 . S
C1550 O1576 1.283 . S
C1550 O1588 1.283 . S
C1551 O1577 1.283 . S
C1551 O1586 1.283 . S
Eu1552 O1553 2.370 1_454 S
Eu1552 O1554 2.370 . S
Eu1552 O1557 2.370 1_455 S
Eu1552 O1558 2.370 1_554 S
Eu1552 O1566 2.363 . S
Eu1552 O1567 2.363 1_554 S
Eu1552 O1580 2.363 . S
Eu1552 O1581 2.363 1_455 S
O1553 Eu1552 2.370 1_656 S
O1553 Eu1555 2.370 1_556 S
O1553 Eu1560 2.370 1_655 S
O1554 Eu1552 2.370 . S
O1554 Eu1556 2.370 . S
O1554 Eu1559 2.370 . S
Eu1555 O1553 2.370 1_554 S
Eu1555 O1557 2.370 . S
Eu1555 O1561 2.370 . S
Eu1555 O1562 2.370 1_554 S
Eu1555 O1570 2.363 . S
Eu1555 O1571 2.363 . S
Eu1555 O1586 2.363 . S
Eu1555 O1587 2.363 1_554 S
Eu1556 O1554 2.370 . S
Eu1556 O1558 2.370 1_554 S
Eu1556 O1563 2.370 1_554 S
Eu1556 O1564 2.370 . S
Eu1556 O1572 2.363 . S
Eu1556 O1573 2.363 . S
Eu1556 O1588 2.363 . S
Eu1556 O1589 2.363 1_554 S
O1557 Eu1552 2.370 1_655 S
O1557 Eu1555 2.370 . S
O1557 Eu1559 2.370 1_655 S
O1558 Eu1552 2.370 1_556 S
O1558 Eu1556 2.370 1_556 S
O1558 Eu1560 2.370 . S
Eu1559 O1554 2.370 . S
Eu1559 O1557 2.370 1_455 S
Eu1559 O1561 2.370 1_455 S
Eu1559 O1564 2.370 . S
Eu1559 O1576 2.363 . S
Eu1559 O1577 2.363 1_455 S
Eu1559 O1584 2.363 . S
Eu1559 O1585 2.363 . S
Eu1560 O1553 2.370 1_455 S
Eu1560 O1558 2.370 . S
Eu1560 O1562 2.370 1_455 S
Eu1560 O1563 2.370 . S
Eu1560 O1574 2.363 . S
Eu1560 O1575 2.363 1_455 S
Eu1560 O1582 2.363 . S
Eu1560 O1583 2.363 . S
O1561 Eu1555 2.370 . S
O1561 Eu1559 2.370 1_655 S
O1561 Eu1565 2.370 1_655 S
O1562 Eu1555 2.370 1_556 S
O1562 Eu1560 2.370 1_655 S
O1562 Eu1565 2.370 1_656 S
O1563 Eu1556 2.370 1_556 S
O1563 Eu1560 2.370 . S
O1563 Eu1565 2.370 1_556 S
O1564 Eu1556 2.370 . S
O1564 Eu1559 2.370 . S
O1564 Eu1565 2.370 . S
Eu1565 O1561 2.370 1_455 S
Eu1565 O1562 2.370 1_454 S
Eu1565 O1563 2.370 1_554 S
Eu1565 O1564 2.370 . S
Eu1565 O1568 2.363 . S
Eu1565 O1569 2.363 1_554 S
Eu1565 O1578 2.363 . S
Eu1565 O1579 2.363 1_455 S
O1566 C1540 1.283 . S
O1566 Eu1552 2.363 . S
O1567 C1541 1.283 . S
O1567 Eu1552 2.363 1_556 S
O1568 C1542 1.283 . S
O1568 Eu1565 2.363 . S
O1569 C1543 1.283 . S
O1569 Eu1565 2.363 1_556 S
O1570 C1544 1.283 . S
O1570 Eu1555 2.363 . S
O1571 C1545 1.283 . S
O1571 Eu1555 2.363 . S
O1572 C1546 1.283 . S
O1572 Eu1556 2.363 . S
O1573 C1547 1.283 . S
O1573 Eu1556 2.363 . S
O1574 C1548 1.283 . S
O1574 Eu1560 2.363 . S
O1575 C1549 1.283 . S
O1575 Eu1560 2.363 1_655 S
O1576 C1550 1.283 . S
O1576 Eu1559 2.363 . S
O1577 C1551 1.283 . S
O1577 Eu1559 2.363 1_655 S
O1578 C1546 1.283 . S
O1578 Eu1565 2.363 . S
O1579 C1544 1.283 . S
O1579 Eu1565 2.363 1_655 S
O1580 C1547 1.283 . S
O1580 Eu1552 2.363 . S
O1581 C1545 1.283 . S
O1581 Eu1552 2.363 1_655 S
O1582 C1541 1.283 . S
O1582 Eu1560 2.363 . S
O1583 C1543 1.283 . S
O1583 Eu1560 2.363 . S
O1584 C1540 1.283 . S
O1584 Eu1559 2.363 . S
O1585 C1542 1.283 . S
O1585 Eu1559 2.363 . S
O1586 C1551 1.283 . S
O1586 Eu1555 2.363 . S
O1587 C1549 1.283 . S
O1587 Eu1555 2.363 1_556 S
O1588 C1550 1.283 . S
O1588 Eu1556 2.363 . S
O1589 C1548 1.283 . S
O1589 Eu1556 2.363 1_556 S
C1590 O1616 1.283 . S
C1590 O1634 1.283 . S
C1591 O1617 1.283 . S
C1591 O1632 1.283 . S
C1592 O1618 1.283 . S
C1592 O1635 1.283 . S
C1593 O1619 1.283 . S
C1593 O1633 1.283 . S
C1594 O1620 1.283 . S
C1594 O1629 1.283 . S
C1595 O1621 1.283 . S
C1595 O1631 1.283 . S
C1596 O1622 1.283 . S
C1596 O1628 1.283 . S
C1597 O1623 1.283 . S
C1597 O1630 1.283 . S
C1598 O1624 1.283 . S
C1598 O1639 1.283 . S
C1599 O1625 1.283 . S
C1599 O1637 1.283 . S
C1600 O1626 1.283 . S
C1600 O1638 1.283 . S
C1601 O1627 1.283 . S
C1601 O1636 1.283 . S
Eu1602 O1603 2.370 . S
Eu1602 O1604 2.370 . S
Eu1602 O1607 2.370 . S
Eu1602 O1608 2.370 . S
Eu1602 O1616 2.363 . S
Eu1602 O1617 2.363 . S
Eu1602 O1630 2.363 . S
Eu1602 O1631 2.363 . S
O1603 Eu1602 2.370 . S
O1603 Eu1605 2.370 . S
O1603 Eu1610 2.370 . S
O1604 Eu1602 2.370 . S
O1604 Eu1606 2.370 . S
O1604 Eu1609 2.370 . S
Eu1605 O1603 2.370 . S
Eu1605 O1607 2.370 . S
Eu1605 O1611 2.370 1_554 S
Eu1605 O1612 2.370 1_554 S
Eu1605 O1620 2.363 1_554 S
Eu1605 O1621 2.363 . S
Eu1605 O1636 2.363 . S
Eu1605 O1637 2.363 . S
Eu1606 O1604 2.370 . S
Eu1606 O1608 2.370 . S
Eu1606 O1613 2.370 1_554 S
Eu1606 O1614 2.370 1_554 S
Eu1606 O1622 2.363 1_554 S
Eu1606 O1623 2.363 . S
Eu1606 O1638 2.363 . S
Eu1606 O1639 2.363 . S
O1607 Eu1602 2.370 . S
O1607 Eu1605 2.370 . S
O1607 Eu1609 2.370 . S
O1608 Eu1602 2.370 . S
O1608 Eu1606 2.370 . S
O1608 Eu1610 2.370 . S
Eu1609 O1604 2.370 . S
Eu1609 O1607 2.370 . S
Eu1609 O1611 2.370 1_554 S
Eu1609 O1614 2.370 1_554 S
Eu1609 O1626 2.363 . S
Eu1609 O1627 2.363 . S
Eu1609 O1634 2.363 . S
Eu1609 O1635 2.363 1_554 S
Eu1610 O1603 2.370 . S
Eu1610 O1608 2.370 . S
Eu1610 O1612 2.370 1_554 S
Eu1610 O1613 2.370 1_554 S
Eu1610 O1624 2.363 . S
Eu1610 O1625 2.363 . S
Eu1610 O1632 2.363 . S
Eu1610 O1633 2.363 1_554 S
O1611 Eu1605 2.370 1_556 S
O1611 Eu1609 2.370 1_556 S
O1611 Eu1615 2.370 . S
O1612 Eu1605 2.370 1_556 S
O1612 Eu1610 2.370 1_556 S
O1612 Eu1615 2.370 . S
O1613 Eu1606 2.370 1_556 S
O1613 Eu1610 2.370 1_556 S
O1613 Eu1615 2.370 . S
O1614 Eu1606 2.370 1_556 S
O1614 Eu1609 2.370 1_556 S
O1614 Eu1615 2.370 . S
Eu1615 O1611 2.370 . S
Eu1615 O1612 2.370 . S
Eu1615 O1613 2.370 . S
Eu1615 O1614 2.370 . S
Eu1615 O1618 2.363 . S
Eu1615 O1619 2.363 . S
Eu1615 O1628 2.363 . S
Eu1615 O1629 2.363 . S
O1616 C1590 1.283 . S
O1616 Eu1602 2.363 . S
O1617 C1591 1.283 . S
O1617 Eu1602 2.363 . S
O1618 C1592 1.283 . S
O1618 Eu1615 2.363 . S
O1619 C1593 1.283 . S
O1619 Eu1615 2.363 . S
O1620 C1594 1.283 . S
O1620 Eu1605 2.363 1_556 S
O1621 C1595 1.283 . S
O1621 Eu1605 2.363 . S
O1622 C1596 1.283 . S
O1622 Eu1606 2.363 1_556 S
O1623 C1597 1.283 . S
O1623 Eu1606 2.363 . S
O1624 C1598 1.283 . S
O1624 Eu1610 2.363 . S
O1625 C1599 1.283 . S
O1625 Eu1610 2.363 . S
O1626 C1600 1.283 . S
O1626 Eu1609 2.363 . S
O1627 C1601 1.283 . S
O1627 Eu1609 2.363 . S
O1628 C1596 1.283 . S
O1628 Eu1615 2.363 . S
O1629 C1594 1.283 . S
O1629 Eu1615 2.363 . S
O1630 C1597 1.283 . S
O1630 Eu1602 2.363 . S
O1631 C1595 1.283 . S
O1631 Eu1602 2.363 . S
O1632 C1591 1.283 . S
O1632 Eu1610 2.363 . S
O1633 C1593 1.283 . S
O1633 Eu1610 2.363 1_556 S
O1634 C1590 1.283 . S
O1634 Eu1609 2.363 . S
O1635 C1592 1.283 . S
O1635 Eu1609 2.363 1_556 S
O1636 C1601 1.283 . S
O1636 Eu1605 2.363 . S
O1637 C1599 1.283 . S
O1637 Eu1605 2.363 . S
O1638 C1600 1.283 . S
O1638 Eu1606 2.363 . S
O1639 C1598 1.283 . S
O1639 Eu1606 2.363 . S
C1640 O1666 1.283 . S
C1640 O1684 1.283 . S
C1641 O1667 1.283 . S
C1641 O1682 1.283 . S
C1642 O1668 1.283 . S
C1642 O1685 1.283 . S
C1643 O1669 1.283 . S
C1643 O1683 1.283 . S
C1644 O1670 1.283 . S
C1644 O1679 1.283 . S
C1645 O1671 1.283 . S
C1645 O1681 1.283 . S
C1646 O1672 1.283 . S
C1646 O1678 1.283 . S
C1647 O1673 1.283 . S
C1647 O1680 1.283 . S
C1648 O1674 1.283 . S
C1648 O1689 1.283 . S
C1649 O1675 1.283 . S
C1649 O1687 1.283 . S
C1650 O1676 1.283 . S
C1650 O1688 1.283 . S
C1651 O1677 1.283 . S
C1651 O1686 1.283 . S
Eu1652 O1653 2.370 1_455 S
Eu1652 O1654 2.370 . S
Eu1652 O1657 2.370 1_455 S
Eu1652 O1658 2.370 . S
Eu1652 O1666 2.363 . S
Eu1652 O1667 2.363 . S
Eu1652 O1680 2.363 . S
Eu1652 O1681 2.363 1_455 S
O1653 Eu1652 2.370 1_655 S
O1653 Eu1655 2.370 . S
O1653 Eu1660 2.370 1_655 S
O1654 Eu1652 2.370 . S
O1654 Eu1656 2.370 . S
O1654 Eu1659 2.370 . S
Eu1655 O1653 2.370 . S
Eu1655 O1657 2.370 . S
Eu1655 O1661 2.370 . S
Eu1655 O1662 2.370 . S
Eu1655 O1670 2.363 . S
Eu1655 O1671 2.363 . S
Eu1655 O1686 2.363 . S
Eu1655 O1687 2.363 . S
Eu1656 O1654 2.370 . S
Eu1656 O1658 2.370 . S
Eu1656 O1663 2.370 . S
Eu1656 O1664 2.370 . S
Eu1656 O1672 2.363 . S
Eu1656 O1673 2.363 . S
Eu1656 O1688 2.363 . S
Eu1656 O1689 2.363 . S
O1657 Eu1652 2.370 1_655 S
O1657 Eu1655 2.370 . S
O1657 Eu1659 2.370 1_655 S
O1658 Eu1652 2.370 . S
O1658 Eu1656 2.370 . S
O1658 Eu1660 2.370 . S
Eu1659 O1654 2.370 . S
Eu1659 O1657 2.370 1_455 S
Eu1659 O1661 2.370 1_455 S
Eu1659 O1664 2.370 . S
Eu1659 O1676 2.363 . S
Eu1659 O1677 2.363 1_455 S
Eu1659 O1684 2.363 . S
Eu1659 O1685 2.363 . S
Eu1660 O1653 2.370 1_455 S
Eu1660 O1658 2.370 . S
Eu1660 O1662 2.370 1_455 S
Eu1660 O1663 2.370 . S
Eu1660 O1674 2.363 . S
Eu1660 O1675 2.363 1_455 S
Eu1660 O1682 2.363 . S
Eu1660 O1683 2.363 . S
O1661 Eu1655 2.370 . S
O1661 Eu1659 2.370 1_655 S
O1661 Eu1665 2.370 1_655 S
O1662 Eu1655 2.370 . S
O1662 Eu1660 2.370 1_655 S
O1662 Eu1665 2.370 1_655 S
O1663 Eu1656 2.370 . S
O1663 Eu1660 2.370 . S
O1663 Eu1665 2.370 . S
O1664 Eu1656 2.370 . S
O1664 Eu1659 2.370 . S
O1664 Eu1665 2.370 . S
Eu1665 O1661 2.370 1_455 S
Eu1665 O1662 2.370 1_455 S
Eu1665 O1663 2.370 . S
Eu1665 O1664 2.370 . S
Eu1665 O1668 2.363 . S
Eu1665 O1669 2.363 . S
Eu1665 O1678 2.363 . S
Eu1665 O1679 2.363 1_455 S
O1666 C1640 1.283 . S
O1666 Eu1652 2.363 . S
O1667 C1641 1.283 . S
O1667 Eu1652 2.363 . S
O1668 C1642 1.283 . S
O1668 Eu1665 2.363 . S
O1669 C1643 1.283 . S
O1669 Eu1665 2.363 . S
O1670 C1644 1.283 . S
O1670 Eu1655 2.363 . S
O1671 C1645 1.283 . S
O1671 Eu1655 2.363 . S
O1672 C1646 1.283 . S
O1672 Eu1656 2.363 . S
O1673 C1647 1.283 . S
O1673 Eu1656 2.363 . S
O1674 C1648 1.283 . S
O1674 Eu1660 2.363 . S
O1675 C1649 1.283 . S
O1675 Eu1660 2.363 1_655 S
O1676 C1650 1.283 . S
O1676 Eu1659 2.363 . S
O1677 C1651 1.283 . S
O1677 Eu1659 2.363 1_655 S
O1678 C1646 1.283 . S
O1678 Eu1665 2.363 . S
O1679 C1644 1.283 . S
O1679 Eu1665 2.363 1_655 S
O1680 C1647 1.283 . S
O1680 Eu1652 2.363 . S
O1681 C1645 1.283 . S
O1681 Eu1652 2.363 1_655 S
O1682 C1641 1.283 . S
O1682 Eu1660 2.363 . S
O1683 C1643 1.283 . S
O1683 Eu1660 2.363 . S
O1684 C1640 1.283 . S
O1684 Eu1659 2.363 . S
O1685 C1642 1.283 . S
O1685 Eu1659 2.363 . S
O1686 C1651 1.283 . S
O1686 Eu1655 2.363 . S
O1687 C1649 1.283 . S
O1687 Eu1655 2.363 . S
O1688 C1650 1.283 . S
O1688 Eu1656 2.363 . S
O1689 C1648 1.283 . S
O1689 Eu1656 2.363 . S
C1690 O1716 1.283 . S
C1690 O1734 1.283 . S
C1691 O1717 1.283 . S
C1691 O1732 1.283 . S
C1692 O1718 1.283 . S
C1692 O1735 1.283 . S
C1693 O1719 1.283 . S
C1693 O1733 1.283 . S
C1694 O1720 1.283 . S
C1694 O1729 1.283 . S
C1695 O1721 1.283 . S
C1695 O1731 1.283 . S
C1696 O1722 1.283 . S
C1696 O1728 1.283 . S
C1697 O1723 1.283 . S
C1697 O1730 1.283 . S
C1698 O1724 1.283 . S
C1698 O1739 1.283 . S
C1699 O1725 1.283 . S
C1699 O1737 1.283 . S
C1700 O1726 1.283 . S
C1700 O1738 1.283 . S
C1701 O1727 1.283 . S
C1701 O1736 1.283 . S
Eu1702 O1703 2.370 . S
Eu1702 O1704 2.370 . S
Eu1702 O1707 2.370 . S
Eu1702 O1708 2.370 . S
Eu1702 O1716 2.363 . S
Eu1702 O1717 2.363 . S
Eu1702 O1730 2.363 . S
Eu1702 O1731 2.363 . S
O1703 Eu1702 2.370 . S
O1703 Eu1705 2.370 1_565 S
O1703 Eu1710 2.370 1_565 S
O1704 Eu1702 2.370 . S
O1704 Eu1706 2.370 1_565 S
O1704 Eu1709 2.370 1_565 S
Eu1705 O1703 2.370 1_545 S
Eu1705 O1707 2.370 1_545 S
Eu1705 O1711 2.370 . S
Eu1705 O1712 2.370 . S
Eu1705 O1720 2.363 . S
Eu1705 O1721 2.363 1_545 S
Eu1705 O1736 2.363 . S
Eu1705 O1737 2.363 . S
Eu1706 O1704 2.370 1_545 S
Eu1706 O1708 2.370 1_545 S
Eu1706 O1713 2.370 . S
Eu1706 O1714 2.370 . S
Eu1706 O1722 2.363 . S
Eu1706 O1723 2.363 1_545 S
Eu1706 O1738 2.363 . S
Eu1706 O1739 2.363 . S
O1707 Eu1702 2.370 . S
O1707 Eu1705 2.370 1_565 S
O1707 Eu1709 2.370 1_565 S
O1708 Eu1702 2.370 . S
O1708 Eu1706 2.370 1_565 S
O1708 Eu1710 2.370 1_565 S
Eu1709 O1704 2.370 1_545 S
Eu1709 O1707 2.370 1_545 S
Eu1709 O1711 2.370 . S
Eu1709 O1714 2.370 . S
Eu1709 O1726 2.363 . S
Eu1709 O1727 2.363 . S
Eu1709 O1734 2.363 1_545 S
Eu1709 O1735 2.363 . S
Eu1710 O1703 2.370 1_545 S
Eu1710 O1708 2.370 1_545 S
Eu1710 O1712 2.370 . S
Eu1710 O1713 2.370 . S
Eu1710 O1724 2.363 . S
Eu1710 O1725 2.363 . S
Eu1710 O1732 2.363 1_545 S
Eu1710 O1733 2.363 . S
O1711 Eu1705 2.370 . S
O1711 Eu1709 2.370 . S
O1711 Eu1715 2.370 . S
O1712 Eu1705 2.370 . S
O1712 Eu1710 2.370 . S
O1712 Eu1715 2.370 . S
O1713 Eu1706 2.370 . S
O1713 Eu1710 2.370 . S
O1713 Eu1715 2.370 . S
O1714 Eu1706 2.370 . S
O1714 Eu1709 2.370 . S
O1714 Eu1715 2.370 . S
Eu1715 O1711 2.370 . S
Eu1715 O1712 2.370 . S
Eu1715 O1713 2.370 . S
Eu1715 O1714 2.370 . S
Eu1715 O1718 2.363 . S
Eu1715 O1719 2.363 . S
Eu1715 O1728 2.363 . S
Eu1715 O1729 2.363 . S
O1716 C1690 1.283 . S
O1716 Eu1702 2.363 . S
O1717 C1691 1.283 . S
O1717 Eu1702 2.363 . S
O1718 C1692 1.283 . S
O1718 Eu1715 2.363 . S
O1719 C1693 1.283 . S
O1719 Eu1715 2.363 . S
O1720 C1694 1.283 . S
O1720 Eu1705 2.363 . S
O1721 C1695 1.283 . S
O1721 Eu1705 2.363 1_565 S
O1722 C1696 1.283 . S
O1722 Eu1706 2.363 . S
O1723 C1697 1.283 . S
O1723 Eu1706 2.363 1_565 S
O1724 C1698 1.283 . S
O1724 Eu1710 2.363 . S
O1725 C1699 1.283 . S
O1725 Eu1710 2.363 . S
O1726 C1700 1.283 . S
O1726 Eu1709 2.363 . S
O1727 C1701 1.283 . S
O1727 Eu1709 2.363 . S
O1728 C1696 1.283 . S
O1728 Eu1715 2.363 . S
O1729 C1694 1.283 . S
O1729 Eu1715 2.363 . S
O1730 C1697 1.283 . S
O1730 Eu1702 2.363 . S
O1731 C1695 1.283 . S
O1731 Eu1702 2.363 . S
O1732 C1691 1.283 . S
O1732 Eu1710 2.363 1_565 S
O1733 C1693 1.283 . S
O1733 Eu1710 2.363 . S
O1734 C1690 1.283 . S
O1734 Eu1709 2.363 1_565 S
O1735 C1692 1.283 . S
O1735 Eu1709 2.363 . S
O1736 C1701 1.283 . S
O1736 Eu1705 2.363 . S
O1737 C1699 1.283 . S
O1737 Eu1705 2.363 . S
O1738 C1700 1.283 . S
O1738 Eu1706 2.363 . S
O1739 C1698 1.283 . S
O1739 Eu1706 2.363 . S
H1740 C1746 0.930 . S
H1741 C1749 0.930 . S
H1742 C1750 0.930 . S
H1743 C1751 0.930 . S
H1744 C1754 0.930 . S
H1745 C1755 0.930 . S
C1746 H1740 0.930 . S
C1746 C1747 1.355 . S
C1746 C1748 1.415 . S
C1747 C1746 1.355 . S
C1747 C1749 1.419 . S
C1748 C1746 1.415 . S
C1748 C1753 1.425 . S
C1748 C1755 1.409 . S
C1749 H1741 0.930 . S
C1749 C1747 1.419 . S
C1749 C1750 1.362 . S
C1750 H1742 0.930 . S
C1750 C1749 1.362 . S
C1750 C1753 1.409 . S
C1751 H1743 0.930 . S
C1751 C1752 1.355 . S
C1751 C1753 1.415 . S
C1752 C1751 1.355 . S
C1752 C1754 1.419 . S
C1753 C1748 1.425 . S
C1753 C1750 1.409 . S
C1753 C1751 1.415 . S
C1754 H1744 0.930 . S
C1754 C1752 1.419 . S
C1754 C1755 1.362 . S
C1755 H1745 0.930 . S
C1755 C1748 1.409 . S
C1755 C1754 1.362 . S
H1756 C1762 0.930 . S
H1757 C1765 0.930 . S
H1758 C1766 0.930 . S
H1759 C1767 0.930 . S
H1760 C1770 0.930 . S
H1761 C1771 0.930 . S
C1762 H1756 0.930 . S
C1762 C1763 1.355 . S
C1762 C1764 1.415 . S
C1763 C1762 1.355 . S
C1763 C1765 1.419 . S
C1764 C1762 1.415 . S
C1764 C1769 1.425 . S
C1764 C1771 1.409 . S
C1765 H1757 0.930 . S
C1765 C1763 1.419 . S
C1765 C1766 1.362 . S
C1766 H1758 0.930 . S
C1766 C1765 1.362 . S
C1766 C1769 1.409 . S
C1767 H1759 0.930 . S
C1767 C1768 1.355 . S
C1767 C1769 1.415 . S
C1768 C1767 1.355 . S
C1768 C1770 1.419 . S
C1769 C1764 1.425 . S
C1769 C1766 1.409 . S
C1769 C1767 1.415 . S
C1770 H1760 0.930 . S
C1770 C1768 1.419 . S
C1770 C1771 1.362 . S
C1771 H1761 0.930 . S
C1771 C1764 1.409 . S
C1771 C1770 1.362 . S
H1772 C1778 0.930 . S
H1773 C1781 0.930 . S
H1774 C1782 0.930 . S
H1775 C1783 0.930 . S
H1776 C1786 0.930 . S
H1777 C1787 0.930 . S
C1778 H1772 0.930 . S
C1778 C1779 1.355 . S
C1778 C1780 1.415 . S
C1779 C1778 1.355 . S
C1779 C1781 1.419 . S
C1780 C1778 1.415 . S
C1780 C1785 1.425 . S
C1780 C1787 1.409 . S
C1781 H1773 0.930 . S
C1781 C1779 1.419 . S
C1781 C1782 1.362 . S
C1782 H1774 0.930 . S
C1782 C1781 1.362 . S
C1782 C1785 1.409 . S
C1783 H1775 0.930 . S
C1783 C1784 1.355 . S
C1783 C1785 1.415 . S
C1784 C1783 1.355 . S
C1784 C1786 1.419 . S
C1785 C1780 1.425 . S
C1785 C1782 1.409 . S
C1785 C1783 1.415 . S
C1786 H1776 0.930 . S
C1786 C1784 1.419 . S
C1786 C1787 1.362 . S
C1787 H1777 0.930 . S
C1787 C1780 1.409 . S
C1787 C1786 1.362 . S
H1788 C1794 0.930 . S
H1789 C1797 0.930 . S
H1790 C1798 0.930 . S
H1791 C1799 0.930 . S
H1792 C1802 0.930 . S
H1793 C1803 0.930 . S
C1794 H1788 0.930 . S
C1794 C1795 1.355 . S
C1794 C1796 1.415 . S
C1795 C1794 1.355 . S
C1795 C1797 1.419 . S
C1796 C1794 1.415 . S
C1796 C1801 1.425 . S
C1796 C1803 1.409 . S
C1797 H1789 0.930 . S
C1797 C1795 1.419 . S
C1797 C1798 1.362 . S
C1798 H1790 0.930 . S
C1798 C1797 1.362 . S
C1798 C1801 1.409 . S
C1799 H1791 0.930 . S
C1799 C1800 1.355 . S
C1799 C1801 1.415 . S
C1800 C1799 1.355 . S
C1800 C1802 1.419 . S
C1801 C1796 1.425 . S
C1801 C1798 1.409 . S
C1801 C1799 1.415 . S
C1802 H1792 0.930 . S
C1802 C1800 1.419 . S
C1802 C1803 1.362 . S
C1803 H1793 0.930 . S
C1803 C1796 1.409 . S
C1803 C1802 1.362 . S
H1804 C1810 0.930 . S
H1805 C1813 0.930 . S
H1806 C1814 0.930 . S
H1807 C1815 0.930 . S
H1808 C1818 0.930 . S
H1809 C1819 0.930 . S
C1810 H1804 0.930 . S
C1810 C1811 1.355 . S
C1810 C1812 1.415 . S
C1811 C1810 1.355 . S
C1811 C1813 1.419 . S
C1812 C1810 1.415 . S
C1812 C1817 1.425 . S
C1812 C1819 1.409 . S
C1813 H1805 0.930 . S
C1813 C1811 1.419 . S
C1813 C1814 1.362 . S
C1814 H1806 0.930 . S
C1814 C1813 1.362 . S
C1814 C1817 1.409 . S
C1815 H1807 0.930 . S
C1815 C1816 1.355 . S
C1815 C1817 1.415 . S
C1816 C1815 1.355 . S
C1816 C1818 1.419 . S
C1817 C1812 1.425 . S
C1817 C1814 1.409 . S
C1817 C1815 1.415 . S
C1818 H1808 0.930 . S
C1818 C1816 1.419 . S
C1818 C1819 1.362 . S
C1819 H1809 0.930 . S
C1819 C1812 1.409 . S
C1819 C1818 1.362 . S
H1820 C1826 0.930 . S
H1821 C1829 0.930 . S
H1822 C1830 0.930 . S
H1823 C1831 0.930 . S
H1824 C1834 0.930 . S
H1825 C1835 0.930 . S
C1826 H1820 0.930 . S
C1826 C1827 1.355 . S
C1826 C1828 1.415 . S
C1827 C1826 1.355 . S
C1827 C1829 1.419 . S
C1828 C1826 1.415 . S
C1828 C1833 1.425 . S
C1828 C1835 1.409 . S
C1829 H1821 0.930 . S
C1829 C1827 1.419 . S
C1829 C1830 1.362 . S
C1830 H1822 0.930 . S
C1830 C1829 1.362 . S
C1830 C1833 1.409 . S
C1831 H1823 0.930 . S
C1831 C1832 1.355 . S
C1831 C1833 1.415 . S
C1832 C1831 1.355 . S
C1832 C1834 1.419 . S
C1833 C1828 1.425 . S
C1833 C1830 1.409 . S
C1833 C1831 1.415 . S
C1834 H1824 0.930 . S
C1834 C1832 1.419 . S
C1834 C1835 1.362 . S
C1835 H1825 0.930 . S
C1835 C1828 1.409 . S
C1835 C1834 1.362 . S
H1836 C1842 0.930 . S
H1837 C1845 0.930 . S
H1838 C1846 0.930 . S
H1839 C1847 0.930 . S
H1840 C1850 0.930 . S
H1841 C1851 0.930 . S
C1842 H1836 0.930 . S
C1842 C1843 1.355 . S
C1842 C1844 1.415 . S
C1843 C1842 1.355 . S
C1843 C1845 1.419 . S
C1844 C1842 1.415 . S
C1844 C1849 1.425 . S
C1844 C1851 1.409 . S
C1845 H1837 0.930 . S
C1845 C1843 1.419 . S
C1845 C1846 1.362 . S
C1846 H1838 0.930 . S
C1846 C1845 1.362 . S
C1846 C1849 1.409 . S
C1847 H1839 0.930 . S
C1847 C1848 1.355 . S
C1847 C1849 1.415 . S
C1848 C1847 1.355 . S
C1848 C1850 1.419 . S
C1849 C1844 1.425 . S
C1849 C1846 1.409 . S
C1849 C1847 1.415 . S
C1850 H1840 0.930 . S
C1850 C1848 1.419 . S
C1850 C1851 1.362 . S
C1851 H1841 0.930 . S
C1851 C1844 1.409 . S
C1851 C1850 1.362 . S
H1852 C1858 0.930 . S
H1853 C1861 0.930 . S
H1854 C1862 0.930 . S
H1855 C1863 0.930 . S
H1856 C1866 0.930 . S
H1857 C1867 0.930 . S
C1858 H1852 0.930 . S
C1858 C1859 1.355 . S
C1858 C1860 1.415 . S
C1859 C1858 1.355 . S
C1859 C1861 1.419 . S
C1860 C1858 1.415 . S
C1860 C1865 1.425 . S
C1860 C1867 1.409 . S
C1861 H1853 0.930 . S
C1861 C1859 1.419 . S
C1861 C1862 1.362 . S
C1862 H1854 0.930 . S
C1862 C1861 1.362 . S
C1862 C1865 1.409 . S
C1863 H1855 0.930 . S
C1863 C1864 1.355 . S
C1863 C1865 1.415 . S
C1864 C1863 1.355 . S
C1864 C1866 1.419 . S
C1865 C1860 1.425 . S
C1865 C1862 1.409 . S
C1865 C1863 1.415 . S
C1866 H1856 0.930 . S
C1866 C1864 1.419 . S
C1866 C1867 1.362 . S
C1867 H1857 0.930 . S
C1867 C1860 1.409 . S
C1867 C1866 1.362 . S
H1868 C1874 0.930 . S
H1869 C1877 0.930 . S
H1870 C1878 0.930 . S
H1871 C1879 0.930 . S
H1872 C1882 0.930 . S
H1873 C1883 0.930 . S
C1874 H1868 0.930 . S
C1874 C1875 1.355 . S
C1874 C1876 1.415 . S
C1875 C1874 1.355 . S
C1875 C1877 1.419 . S
C1876 C1874 1.415 . S
C1876 C1881 1.425 . S
C1876 C1883 1.409 . S
C1877 H1869 0.930 . S
C1877 C1875 1.419 . S
C1877 C1878 1.362 . S
C1878 H1870 0.930 . S
C1878 C1877 1.362 . S
C1878 C1881 1.409 . S
C1879 H1871 0.930 . S
C1879 C1880 1.355 . S
C1879 C1881 1.415 . S
C1880 C1879 1.355 . S
C1880 C1882 1.419 . S
C1881 C1876 1.425 . S
C1881 C1878 1.409 . S
C1881 C1879 1.415 . S
C1882 H1872 0.930 . S
C1882 C1880 1.419 . S
C1882 C1883 1.362 . S
C1883 H1873 0.930 . S
C1883 C1876 1.409 . S
C1883 C1882 1.362 . S
H1884 C1890 0.930 . S
H1885 C1893 0.930 . S
H1886 C1894 0.930 . S
H1887 C1895 0.930 . S
H1888 C1898 0.930 . S
H1889 C1899 0.930 . S
C1890 H1884 0.930 . S
C1890 C1891 1.355 . S
C1890 C1892 1.415 . S
C1891 C1890 1.355 . S
C1891 C1893 1.419 . S
C1892 C1890 1.415 . S
C1892 C1897 1.425 . S
C1892 C1899 1.409 . S
C1893 H1885 0.930 . S
C1893 C1891 1.419 . S
C1893 C1894 1.362 . S
C1894 H1886 0.930 . S
C1894 C1893 1.362 . S
C1894 C1897 1.409 . S
C1895 H1887 0.930 . S
C1895 C1896 1.355 . S
C1895 C1897 1.415 . S
C1896 C1895 1.355 . S
C1896 C1898 1.419 . S
C1897 C1892 1.425 . S
C1897 C1894 1.409 . S
C1897 C1895 1.415 . S
C1898 H1888 0.930 . S
C1898 C1896 1.419 . S
C1898 C1899 1.362 . S
C1899 H1889 0.930 . S
C1899 C1892 1.409 . S
C1899 C1898 1.362 . S
H1900 C1906 0.930 . S
H1901 C1909 0.930 . S
H1902 C1910 0.930 . S
H1903 C1911 0.930 . S
H1904 C1914 0.930 . S
H1905 C1915 0.930 . S
C1906 H1900 0.930 . S
C1906 C1907 1.355 . S
C1906 C1908 1.415 . S
C1907 C1906 1.355 . S
C1907 C1909 1.419 . S
C1908 C1906 1.415 . S
C1908 C1913 1.425 . S
C1908 C1915 1.409 . S
C1909 H1901 0.930 . S
C1909 C1907 1.419 . S
C1909 C1910 1.362 . S
C1910 H1902 0.930 . S
C1910 C1909 1.362 . S
C1910 C1913 1.409 . S
C1911 H1903 0.930 . S
C1911 C1912 1.355 . S
C1911 C1913 1.415 . S
C1912 C1911 1.355 . S
C1912 C1914 1.419 . S
C1913 C1908 1.425 . S
C1913 C1910 1.409 . S
C1913 C1911 1.415 . S
C1914 H1904 0.930 . S
C1914 C1912 1.419 . S
C1914 C1915 1.362 . S
C1915 H1905 0.930 . S
C1915 C1908 1.409 . S
C1915 C1914 1.362 . S
H1916 C1922 0.930 . S
H1917 C1925 0.930 . S
H1918 C1926 0.930 . S
H1919 C1927 0.930 . S
H1920 C1930 0.930 . S
H1921 C1931 0.930 . S
C1922 H1916 0.930 . S
C1922 C1923 1.355 . S
C1922 C1924 1.415 . S
C1923 C1922 1.355 . S
C1923 C1925 1.419 . S
C1924 C1922 1.415 . S
C1924 C1929 1.425 . S
C1924 C1931 1.409 . S
C1925 H1917 0.930 . S
C1925 C1923 1.419 . S
C1925 C1926 1.362 . S
C1926 H1918 0.930 . S
C1926 C1925 1.362 . S
C1926 C1929 1.409 . S
C1927 H1919 0.930 . S
C1927 C1928 1.355 . S
C1927 C1929 1.415 . S
C1928 C1927 1.355 . S
C1928 C1930 1.419 . S
C1929 C1924 1.425 . S
C1929 C1926 1.409 . S
C1929 C1927 1.415 . S
C1930 H1920 0.930 . S
C1930 C1928 1.419 . S
C1930 C1931 1.362 . S
C1931 H1921 0.930 . S
C1931 C1924 1.409 . S
C1931 C1930 1.362 . S
H1932 C1938 0.930 . S
H1933 C1941 0.930 . S
H1934 C1942 0.930 . S
H1935 C1943 0.930 . S
H1936 C1946 0.930 . S
H1937 C1947 0.930 . S
C1938 H1932 0.930 . S
C1938 C1939 1.355 1_554 S
C1938 C1940 1.415 . S
C1939 C1938 1.355 1_556 S
C1939 C1941 1.419 . S
C1940 C1938 1.415 . S
C1940 C1945 1.425 1_554 S
C1940 C1947 1.409 . S
C1941 H1933 0.930 . S
C1941 C1939 1.419 . S
C1941 C1942 1.362 . S
C1942 H1934 0.930 . S
C1942 C1941 1.362 . S
C1942 C1945 1.409 . S
C1943 H1935 0.930 . S
C1943 C1944 1.355 1_556 S
C1943 C1945 1.415 . S
C1944 C1943 1.355 1_554 S
C1944 C1946 1.419 . S
C1945 C1940 1.425 1_556 S
C1945 C1942 1.409 . S
C1945 C1943 1.415 . S
C1946 H1936 0.930 . S
C1946 C1944 1.419 . S
C1946 C1947 1.362 . S
C1947 H1937 0.930 . S
C1947 C1940 1.409 . S
C1947 C1946 1.362 . S
H1948 C1954 0.930 . S
H1949 C1957 0.930 . S
H1950 C1958 0.930 . S
H1951 C1959 0.930 . S
H1952 C1962 0.930 . S
H1953 C1963 0.930 . S
C1954 H1948 0.930 . S
C1954 C1955 1.335 1_556 S
C1954 C1956 1.415 . S
C1955 C1954 1.335 1_554 S
C1955 C1957 1.445 . S
C1956 C1954 1.415 . S
C1956 C1961 1.425 1_556 S
C1956 C1963 1.409 . S
C1957 H1949 0.930 . S
C1957 C1955 1.445 . S
C1957 C1958 1.362 . S
C1958 H1950 0.930 . S
C1958 C1957 1.362 . S
C1958 C1961 1.409 . S
C1959 H1951 0.930 . S
C1959 C1960 1.340 1_554 S
C1959 C1961 1.415 . S
C1960 C1959 1.340 1_556 S
C1960 C1962 1.439 . S
C1961 C1956 1.425 1_554 S
C1961 C1958 1.409 . S
C1961 C1959 1.415 . S
C1962 H1952 0.930 . S
C1962 C1960 1.439 . S
C1962 C1963 1.362 . S
C1963 H1953 0.930 . S
C1963 C1956 1.409 . S
C1963 C1962 1.362 . S
H1964 C1970 0.930 . S
H1965 C1973 0.930 . S
H1966 C1974 0.930 . S
H1967 C1975 0.930 . S
H1968 C1978 0.930 . S
H1969 C1979 0.930 . S
C1970 H1964 0.930 . S
C1970 C1971 1.355 1_556 S
C1970 C1972 1.415 . S
C1971 C1970 1.355 1_554 S
C1971 C1973 1.419 . S
C1972 C1970 1.415 . S
C1972 C1977 1.425 1_556 S
C1972 C1979 1.409 . S
C1973 H1965 0.930 . S
C1973 C1971 1.419 . S
C1973 C1974 1.362 . S
C1974 H1966 0.930 . S
C1974 C1973 1.362 . S
C1974 C1977 1.409 . S
C1975 H1967 0.930 . S
C1975 C1976 1.355 1_554 S
C1975 C1977 1.415 . S
C1976 C1975 1.355 1_556 S
C1976 C1978 1.419 . S
C1977 C1972 1.425 1_554 S
C1977 C1974 1.409 . S
C1977 C1975 1.415 . S
C1978 H1968 0.930 . S
C1978 C1976 1.419 . S
C1978 C1979 1.362 . S
C1979 H1969 0.930 . S
C1979 C1972 1.409 . S
C1979 C1978 1.362 . S
H1980 C1986 0.930 . S
H1981 C1989 0.930 . S
H1982 C1990 0.930 . S
H1983 C1991 0.930 . S
H1984 C1994 0.930 . S
H1985 C1995 0.930 . S
C1986 H1980 0.930 . S
C1986 C1987 1.355 1_556 S
C1986 C1988 1.415 . S
C1987 C1986 1.355 1_554 S
C1987 C1989 1.419 . S
C1988 C1986 1.415 . S
C1988 C1993 1.425 1_556 S
C1988 C1995 1.409 . S
C1989 H1981 0.930 . S
C1989 C1987 1.419 . S
C1989 C1990 1.362 . S
C1990 H1982 0.930 . S
C1990 C1989 1.362 . S
C1990 C1993 1.409 . S
C1991 H1983 0.930 . S
C1991 C1992 1.355 1_554 S
C1991 C1993 1.415 . S
C1992 C1991 1.355 1_556 S
C1992 C1994 1.419 . S
C1993 C1988 1.425 1_554 S
C1993 C1990 1.409 . S
C1993 C1991 1.415 . S
C1994 H1984 0.930 . S
C1994 C1992 1.419 . S
C1994 C1995 1.362 . S
C1995 H1985 0.930 . S
C1995 C1988 1.409 . S
C1995 C1994 1.362 . S
H1996 C2002 0.930 . S
H1997 C2005 0.930 . S
H1998 C2006 0.930 . S
H1999 C2007 0.930 . S
H2000 C2010 0.930 . S
H2001 C2011 0.930 . S
C2002 H1996 0.930 . S
C2002 C2003 1.354 1_455 S
C2002 C2004 1.415 . S
C2003 C2002 1.354 1_655 S
C2003 C2005 1.420 . S
C2004 C2002 1.415 . S
C2004 C2009 1.425 1_455 S
C2004 C2011 1.409 . S
C2005 H1997 0.930 . S
C2005 C2003 1.420 . S
C2005 C2006 1.362 . S
C2006 H1998 0.930 . S
C2006 C2005 1.362 . S
C2006 C2009 1.409 . S
C2007 H1999 0.930 . S
C2007 C2008 1.350 1_655 S
C2007 C2009 1.415 . S
C2008 C2007 1.350 1_455 S
C2008 C2010 1.424 . S
C2009 C2004 1.425 1_655 S
C2009 C2006 1.409 . S
C2009 C2007 1.415 . S
C2010 H2000 0.930 . S
C2010 C2008 1.424 . S
C2010 C2011 1.362 . S
C2011 H2001 0.930 . S
C2011 C2004 1.409 . S
C2011 C2010 1.362 . S
H2012 C2018 0.930 . S
H2013 C2021 0.930 . S
H2014 C2022 0.930 . S
H2015 C2023 0.930 . S
H2016 C2026 0.930 . S
H2017 C2027 0.930 . S
C2018 H2012 0.930 . S
C2018 C2019 1.358 . S
C2018 C2020 1.415 . S
C2019 C2018 1.358 . S
C2019 C2021 1.416 1_545 S
C2020 C2018 1.415 . S
C2020 C2025 1.425 1_545 S
C2020 C2027 1.409 . S
C2021 H2013 0.930 . S
C2021 C2019 1.416 1_565 S
C2021 C2022 1.362 . S
C2022 H2014 0.930 . S
C2022 C2021 1.362 . S
C2022 C2025 1.409 . S
C2023 H2015 0.930 . S
C2023 C2024 1.356 . S
C2023 C2025 1.415 . S
C2024 C2023 1.356 . S
C2024 C2026 1.417 1_565 S
C2025 C2020 1.425 1_565 S
C2025 C2022 1.409 . S
C2025 C2023 1.415 . S
C2026 H2016 0.930 . S
C2026 C2024 1.417 1_545 S
C2026 C2027 1.362 . S
C2027 H2017 0.930 . S
C2027 C2020 1.409 . S
C2027 C2026 1.362 . S
H2028 C2034 0.930 . S
H2029 C2037 0.930 . S
H2030 C2038 0.930 . S
H2031 C2039 0.930 . S
H2032 C2042 0.930 . S
H2033 C2043 0.930 . S
C2034 H2028 0.930 . S
C2034 C2035 1.355 1_455 S
C2034 C2036 1.415 . S
C2035 C2034 1.355 1_655 S
C2035 C2037 1.419 . S
C2036 C2034 1.415 . S
C2036 C2041 1.425 1_455 S
C2036 C2043 1.409 . S
C2037 H2029 0.930 . S
C2037 C2035 1.419 . S
C2037 C2038 1.362 . S
C2038 H2030 0.930 . S
C2038 C2037 1.362 . S
C2038 C2041 1.409 . S
C2039 H2031 0.930 . S
C2039 C2040 1.355 1_655 S
C2039 C2041 1.415 . S
C2040 C2039 1.355 1_455 S
C2040 C2042 1.419 . S
C2041 C2036 1.425 1_655 S
C2041 C2038 1.409 . S
C2041 C2039 1.415 . S
C2042 H2032 0.930 . S
C2042 C2040 1.419 . S
C2042 C2043 1.362 . S
C2043 H2033 0.930 . S
C2043 C2036 1.409 . S
C2043 C2042 1.362 . S
H2044 C2050 0.930 . S
H2045 C2053 0.930 . S
H2046 C2054 0.930 . S
H2047 C2055 0.930 . S
H2048 C2058 0.930 . S
H2049 C2059 0.930 . S
C2050 H2044 0.930 . S
C2050 C2051 1.355 1_565 S
C2050 C2052 1.415 . S
C2051 C2050 1.355 1_545 S
C2051 C2053 1.419 . S
C2052 C2050 1.415 . S
C2052 C2057 1.425 1_565 S
C2052 C2059 1.409 . S
C2053 H2045 0.930 . S
C2053 C2051 1.419 . S
C2053 C2054 1.362 . S
C2054 H2046 0.930 . S
C2054 C2053 1.362 . S
C2054 C2057 1.409 . S
C2055 H2047 0.930 . S
C2055 C2056 1.355 1_545 S
C2055 C2057 1.415 . S
C2056 C2055 1.355 1_565 S
C2056 C2058 1.419 . S
C2057 C2052 1.425 1_545 S
C2057 C2054 1.409 . S
C2057 C2055 1.415 . S
C2058 H2048 0.930 . S
C2058 C2056 1.419 . S
C2058 C2059 1.362 . S
C2059 H2049 0.930 . S
C2059 C2052 1.409 . S
C2059 C2058 1.362 . S
H2060 C2066 0.930 . S
H2061 C2069 0.930 . S
H2062 C2070 0.930 . S
H2063 C2071 0.930 . S
H2064 C2074 0.930 . S
H2065 C2075 0.930 . S
C2066 H2060 0.930 . S
C2066 C2067 1.355 1_455 S
C2066 C2068 1.415 . S
C2067 C2066 1.355 1_655 S
C2067 C2069 1.419 . S
C2068 C2066 1.415 . S
C2068 C2073 1.425 1_455 S
C2068 C2075 1.409 . S
C2069 H2061 0.930 . S
C2069 C2067 1.419 . S
C2069 C2070 1.362 . S
C2070 H2062 0.930 . S
C2070 C2069 1.362 . S
C2070 C2073 1.409 . S
C2071 H2063 0.930 . S
C2071 C2072 1.355 1_655 S
C2071 C2073 1.415 . S
C2072 C2071 1.355 1_455 S
C2072 C2074 1.419 . S
C2073 C2068 1.425 1_655 S
C2073 C2070 1.409 . S
C2073 C2071 1.415 . S
C2074 H2064 0.930 . S
C2074 C2072 1.419 . S
C2074 C2075 1.362 . S
C2075 H2065 0.930 . S
C2075 C2068 1.409 . S
C2075 C2074 1.362 . S
H2076 C2082 0.930 . S
H2077 C2085 0.930 . S
H2078 C2086 0.930 . S
H2079 C2087 0.930 . S
H2080 C2090 0.930 . S
H2081 C2091 0.930 . S
C2082 H2076 0.930 . S
C2082 C2083 1.355 1_545 S
C2082 C2084 1.415 . S
C2083 C2082 1.355 1_565 S
C2083 C2085 1.419 . S
C2084 C2082 1.415 . S
C2084 C2089 1.425 1_545 S
C2084 C2091 1.409 . S
C2085 H2077 0.930 . S
C2085 C2083 1.419 . S
C2085 C2086 1.362 . S
C2086 H2078 0.930 . S
C2086 C2085 1.362 . S
C2086 C2089 1.409 . S
C2087 H2079 0.930 . S
C2087 C2088 1.355 1_565 S
C2087 C2089 1.415 . S
C2088 C2087 1.355 1_545 S
C2088 C2090 1.419 . S
C2089 C2084 1.425 1_565 S
C2089 C2086 1.409 . S
C2089 C2087 1.415 . S
C2090 H2080 0.930 . S
C2090 C2088 1.419 . S
C2090 C2091 1.362 . S
C2091 H2081 0.930 . S
C2091 C2084 1.409 . S
C2091 C2090 1.362 . S
H2092 C2098 0.930 . S
H2093 C2101 0.930 . S
H2094 C2102 0.930 . S
H2095 C2103 0.930 . S
H2096 C2106 0.930 . S
H2097 C2107 0.930 . S
C2098 H2092 0.930 . S
C2098 C2099 1.355 1_655 S
C2098 C2100 1.415 . S
C2099 C2098 1.355 1_455 S
C2099 C2101 1.419 . S
C2100 C2098 1.415 . S
C2100 C2105 1.425 1_655 S
C2100 C2107 1.409 . S
C2101 H2093 0.930 . S
C2101 C2099 1.419 . S
C2101 C2102 1.362 . S
C2102 H2094 0.930 . S
C2102 C2101 1.362 . S
C2102 C2105 1.409 . S
C2103 H2095 0.930 . S
C2103 C2104 1.355 1_455 S
C2103 C2105 1.415 . S
C2104 C2103 1.355 1_655 S
C2104 C2106 1.419 . S
C2105 C2100 1.425 1_455 S
C2105 C2102 1.409 . S
C2105 C2103 1.415 . S
C2106 H2096 0.930 . S
C2106 C2104 1.419 . S
C2106 C2107 1.362 . S
C2107 H2097 0.930 . S
C2107 C2100 1.409 . S
C2107 C2106 1.362 . S
H2108 C2114 0.930 . S
H2109 C2117 0.930 . S
H2110 C2118 0.930 . S
H2111 C2119 0.930 . S
H2112 C2122 0.930 . S
H2113 C2123 0.930 . S
C2114 H2108 0.930 . S
C2114 C2115 1.355 1_565 S
C2114 C2116 1.415 . S
C2115 C2114 1.355 1_545 S
C2115 C2117 1.419 . S
C2116 C2114 1.415 . S
C2116 C2121 1.425 1_565 S
C2116 C2123 1.409 . S
C2117 H2109 0.930 . S
C2117 C2115 1.419 . S
C2117 C2118 1.362 . S
C2118 H2110 0.930 . S
C2118 C2117 1.362 . S
C2118 C2121 1.409 . S
C2119 H2111 0.930 . S
C2119 C2120 1.355 1_545 S
C2119 C2121 1.415 . S
C2120 C2119 1.355 1_565 S
C2120 C2122 1.419 . S
C2121 C2116 1.425 1_545 S
C2121 C2118 1.409 . S
C2121 C2119 1.415 . S
C2122 H2112 0.930 . S
C2122 C2120 1.419 . S
C2122 C2123 1.362 . S
C2123 H2113 0.930 . S
C2123 C2116 1.409 . S
C2123 C2122 1.362 . S
H2124 C2130 0.930 . S
H2125 C2133 0.930 . S
H2126 C2134 0.930 . S
H2127 C2135 0.930 . S
H2128 C2138 0.930 . S
H2129 C2139 0.930 . S
C2130 H2124 0.930 . S
C2130 C2131 1.355 1_455 S
C2130 C2132 1.415 . S
C2131 C2130 1.355 1_655 S
C2131 C2133 1.419 . S
C2132 C2130 1.415 . S
C2132 C2137 1.425 1_455 S
C2132 C2139 1.409 . S
C2133 H2125 0.930 . S
C2133 C2131 1.419 . S
C2133 C2134 1.362 . S
C2134 H2126 0.930 . S
C2134 C2133 1.362 . S
C2134 C2137 1.409 . S
C2135 H2127 0.930 . S
C2135 C2136 1.355 1_655 S
C2135 C2137 1.415 . S
C2136 C2135 1.355 1_455 S
C2136 C2138 1.419 . S
C2137 C2132 1.425 1_655 S
C2137 C2134 1.409 . S
C2137 C2135 1.415 . S
C2138 H2128 0.930 . S
C2138 C2136 1.419 . S
C2138 C2139 1.362 . S
C2139 H2129 0.930 . S
C2139 C2132 1.409 . S
C2139 C2138 1.362 . S
H2140 C2146 0.930 . S
H2141 C2149 0.930 . S
H2142 C2150 0.930 . S
H2143 C2151 0.930 . S
H2144 C2154 0.930 . S
H2145 C2155 0.930 . S
C2146 H2140 0.930 . S
C2146 C2147 1.355 1_545 S
C2146 C2148 1.415 . S
C2147 C2146 1.355 1_565 S
C2147 C2149 1.419 . S
C2148 C2146 1.415 . S
C2148 C2153 1.425 1_545 S
C2148 C2155 1.409 . S
C2149 H2141 0.930 . S
C2149 C2147 1.419 . S
C2149 C2150 1.362 . S
C2150 H2142 0.930 . S
C2150 C2149 1.362 . S
C2150 C2153 1.409 . S
C2151 H2143 0.930 . S
C2151 C2152 1.355 1_565 S
C2151 C2153 1.415 . S
C2152 C2151 1.355 1_545 S
C2152 C2154 1.419 . S
C2153 C2148 1.425 1_565 S
C2153 C2150 1.409 . S
C2153 C2151 1.415 . S
C2154 H2144 0.930 . S
C2154 C2152 1.419 . S
C2154 C2155 1.362 . S
C2155 H2145 0.930 . S
C2155 C2148 1.409 . S
C2155 C2154 1.362 . S
H2156 C2162 0.930 . S
H2157 C2165 0.930 . S
H2158 C2166 0.930 . S
H2159 C2167 0.930 . S
H2160 C2170 0.930 . S
H2161 C2171 0.930 . S
C2162 H2156 0.930 . S
C2162 C2163 1.355 1_455 S
C2162 C2164 1.415 . S
C2163 C2162 1.355 1_655 S
C2163 C2165 1.419 . S
C2164 C2162 1.415 . S
C2164 C2169 1.425 1_455 S
C2164 C2171 1.409 . S
C2165 H2157 0.930 . S
C2165 C2163 1.419 . S
C2165 C2166 1.362 . S
C2166 H2158 0.930 . S
C2166 C2165 1.362 . S
C2166 C2169 1.409 . S
C2167 H2159 0.930 . S
C2167 C2168 1.355 1_655 S
C2167 C2169 1.415 . S
C2168 C2167 1.355 1_455 S
C2168 C2170 1.419 . S
C2169 C2164 1.425 1_655 S
C2169 C2166 1.409 . S
C2169 C2167 1.415 . S
C2170 H2160 0.930 . S
C2170 C2168 1.419 . S
C2170 C2171 1.362 . S
C2171 H2161 0.930 . S
C2171 C2164 1.409 . S
C2171 C2170 1.362 . S
H2172 C2178 0.930 . S
H2173 C2181 0.930 . S
H2174 C2182 0.930 . S
H2175 C2183 0.930 . S
H2176 C2186 0.930 . S
H2177 C2187 0.930 . S
C2178 H2172 0.930 . S
C2178 C2179 1.354 . S
C2178 C2180 1.415 . S
C2179 C2178 1.354 . S
C2179 C2181 1.420 1_565 S
C2180 C2178 1.415 . S
C2180 C2185 1.425 1_565 S
C2180 C2187 1.409 . S
C2181 H2173 0.930 . S
C2181 C2179 1.420 1_545 S
C2181 C2182 1.362 . S
C2182 H2174 0.930 . S
C2182 C2181 1.362 . S
C2182 C2185 1.409 . S
C2183 H2175 0.930 . S
C2183 C2184 1.356 . S
C2183 C2185 1.415 . S
C2184 C2183 1.356 . S
C2184 C2186 1.418 1_545 S
C2185 C2180 1.425 1_545 S
C2185 C2182 1.409 . S
C2185 C2183 1.415 . S
C2186 H2176 0.930 . S
C2186 C2184 1.418 1_565 S
C2186 C2187 1.362 . S
C2187 H2177 0.930 . S
C2187 C2180 1.409 . S
C2187 C2186 1.362 . S
H2188 C2194 0.930 . S
H2189 C2197 0.930 . S
H2190 C2198 0.930 . S
H2191 C2199 0.930 . S
H2192 C2202 0.930 . S
H2193 C2203 0.930 . S
C2194 H2188 0.930 . S
C2194 C2195 1.355 . S
C2194 C2196 1.415 . S
C2195 C2194 1.355 . S
C2195 C2197 1.419 . S
C2196 C2194 1.415 . S
C2196 C2201 1.425 1_655 S
C2196 C2203 1.409 1_655 S
C2197 H2189 0.930 . S
C2197 C2195 1.419 . S
C2197 C2198 1.362 . S
C2198 H2190 0.930 . S
C2198 C2197 1.362 . S
C2198 C2201 1.409 1_655 S
C2199 H2191 0.930 . S
C2199 C2200 1.356 . S
C2199 C2201 1.415 . S
C2200 C2199 1.356 . S
C2200 C2202 1.419 . S
C2201 C2196 1.425 1_455 S
C2201 C2198 1.409 1_455 S
C2201 C2199 1.415 . S
C2202 H2192 0.930 . S
C2202 C2200 1.419 . S
C2202 C2203 1.362 . S
C2203 H2193 0.930 . S
C2203 C2196 1.409 1_455 S
C2203 C2202 1.362 . S
H2204 C2210 0.930 . S
H2205 C2213 0.930 . S
H2206 C2214 0.930 . S
H2207 C2215 0.930 . S
H2208 C2218 0.930 . S
H2209 C2219 0.930 . S
C2210 H2204 0.930 . S
C2210 C2211 1.356 . S
C2210 C2212 1.415 . S
C2211 C2210 1.356 . S
C2211 C2213 1.418 1_545 S
C2212 C2210 1.415 . S
C2212 C2217 1.425 1_545 S
C2212 C2219 1.409 . S
C2213 H2205 0.930 . S
C2213 C2211 1.418 1_565 S
C2213 C2214 1.362 . S
C2214 H2206 0.930 . S
C2214 C2213 1.362 . S
C2214 C2217 1.409 . S
C2215 H2207 0.930 . S
C2215 C2216 1.356 1_565 S
C2215 C2217 1.415 . S
C2216 C2215 1.356 1_545 S
C2216 C2218 1.418 . S
C2217 C2212 1.425 1_565 S
C2217 C2214 1.409 . S
C2217 C2215 1.415 . S
C2218 H2208 0.930 . S
C2218 C2216 1.418 . S
C2218 C2219 1.362 . S
C2219 H2209 0.930 . S
C2219 C2212 1.409 . S
C2219 C2218 1.362 . S
H2220 C2226 0.930 . S
H2221 C2229 0.930 . S
H2222 C2230 0.930 . S
H2223 C2231 0.930 . S
H2224 C2234 0.930 . S
H2225 C2235 0.930 . S
C2226 H2220 0.930 . S
C2226 C2227 1.343 1_655 S
C2226 C2228 1.415 . S
C2227 C2226 1.343 1_455 S
C2227 C2229 1.434 . S
C2228 C2226 1.415 . S
C2228 C2233 1.425 1_655 S
C2228 C2235 1.409 . S
C2229 H2221 0.930 . S
C2229 C2227 1.434 . S
C2229 C2230 1.362 . S
C2230 H2222 0.930 . S
C2230 C2229 1.362 . S
C2230 C2233 1.409 . S
C2231 H2223 0.930 . S
C2231 C2232 1.347 1_455 S
C2231 C2233 1.415 . S
C2232 C2231 1.347 1_655 S
C2232 C2234 1.429 . S
C2233 C2228 1.425 1_455 S
C2233 C2230 1.409 . S
C2233 C2231 1.415 . S
C2234 H2224 0.930 . S
C2234 C2232 1.429 . S
C2234 C2235 1.362 . S
C2235 H2225 0.930 . S
C2235 C2228 1.409 . S
C2235 C2234 1.362 . S
H2236 C2242 0.930 . S
H2237 C2245 0.930 . S
H2238 C2246 0.930 . S
H2239 C2247 0.930 . S
H2240 C2250 0.930 . S
H2241 C2251 0.930 . S
C2242 H2236 0.930 . S
C2242 C2243 1.355 1_565 S
C2242 C2244 1.415 . S
C2243 C2242 1.355 1_545 S
C2243 C2245 1.419 . S
C2244 C2242 1.415 . S
C2244 C2249 1.425 1_565 S
C2244 C2251 1.409 . S
C2245 H2237 0.930 . S
C2245 C2243 1.419 . S
C2245 C2246 1.362 . S
C2246 H2238 0.930 . S
C2246 C2245 1.362 . S
C2246 C2249 1.409 . S
C2247 H2239 0.930 . S
C2247 C2248 1.355 1_545 S
C2247 C2249 1.415 . S
C2248 C2247 1.355 1_565 S
C2248 C2250 1.419 . S
C2249 C2244 1.425 1_545 S
C2249 C2246 1.409 . S
C2249 C2247 1.415 . S
C2250 H2240 0.930 . S
C2250 C2248 1.419 . S
C2250 C2251 1.362 . S
C2251 H2241 0.930 . S
C2251 C2244 1.409 . S
C2251 C2250 1.362 . S
H2252 C2258 0.930 . S
H2253 C2261 0.930 . S
H2254 C2262 0.930 . S
H2255 C2263 0.930 . S
H2256 C2266 0.930 . S
H2257 C2267 0.930 . S
C2258 H2252 0.930 . S
C2258 C2259 1.355 1_565 S
C2258 C2260 1.415 . S
C2259 C2258 1.355 1_545 S
C2259 C2261 1.419 . S
C2260 C2258 1.415 . S
C2260 C2265 1.425 1_565 S
C2260 C2267 1.409 . S
C2261 H2253 0.930 . S
C2261 C2259 1.419 . S
C2261 C2262 1.362 . S
C2262 H2254 0.930 . S
C2262 C2261 1.362 . S
C2262 C2265 1.409 . S
C2263 H2255 0.930 . S
C2263 C2264 1.355 1_545 S
C2263 C2265 1.415 . S
C2264 C2263 1.355 1_565 S
C2264 C2266 1.419 . S
C2265 C2260 1.425 1_545 S
C2265 C2262 1.409 . S
C2265 C2263 1.415 . S
C2266 H2256 0.930 . S
C2266 C2264 1.419 . S
C2266 C2267 1.362 . S
C2267 H2257 0.930 . S
C2267 C2260 1.409 . S
C2267 C2266 1.362 . S
H2268 C2274 0.930 . S
H2269 C2277 0.930 . S
H2270 C2278 0.930 . S
H2271 C2279 0.930 . S
H2272 C2282 0.930 . S
H2273 C2283 0.930 . S
C2274 H2268 0.930 . S
C2274 C2275 1.338 1_455 S
C2274 C2276 1.415 . S
C2275 C2274 1.338 1_655 S
C2275 C2277 1.441 . S
C2276 C2274 1.415 . S
C2276 C2281 1.425 1_455 S
C2276 C2283 1.409 . S
C2277 H2269 0.930 . S
C2277 C2275 1.441 . S
C2277 C2278 1.362 . S
C2278 H2270 0.930 . S
C2278 C2277 1.362 . S
C2278 C2281 1.409 . S
C2279 H2271 0.930 . S
C2279 C2280 1.355 1_655 S
C2279 C2281 1.415 . S
C2280 C2279 1.355 1_455 S
C2280 C2282 1.419 . S
C2281 C2276 1.425 1_655 S
C2281 C2278 1.409 . S
C2281 C2279 1.415 . S
C2282 H2272 0.930 . S
C2282 C2280 1.419 . S
C2282 C2283 1.362 . S
C2283 H2273 0.930 . S
C2283 C2276 1.409 . S
C2283 C2282 1.362 . S
H2284 C2290 0.930 . S
H2285 C2293 0.930 . S
H2286 C2294 0.930 . S
H2287 C2295 0.930 . S
H2288 C2298 0.930 . S
H2289 C2299 0.930 . S
C2290 H2284 0.930 . S
C2290 C2291 1.355 1_565 S
C2290 C2292 1.415 . S
C2291 C2290 1.355 1_545 S
C2291 C2293 1.419 . S
C2292 C2290 1.415 . S
C2292 C2297 1.425 1_565 S
C2292 C2299 1.409 . S
C2293 H2285 0.930 . S
C2293 C2291 1.419 . S
C2293 C2294 1.362 . S
C2294 H2286 0.930 . S
C2294 C2293 1.362 . S
C2294 C2297 1.409 . S
C2295 H2287 0.930 . S
C2295 C2296 1.355 1_545 S
C2295 C2297 1.415 . S
C2296 C2295 1.355 1_565 S
C2296 C2298 1.419 . S
C2297 C2292 1.425 1_545 S
C2297 C2294 1.409 . S
C2297 C2295 1.415 . S
C2298 H2288 0.930 . S
C2298 C2296 1.419 . S
C2298 C2299 1.362 . S
C2299 H2289 0.930 . S
C2299 C2292 1.409 . S
C2299 C2298 1.362 . S
H2300 C2306 0.930 . S
H2301 C2309 0.930 . S
H2302 C2310 0.930 . S
H2303 C2311 0.930 . S
H2304 C2314 0.930 . S
H2305 C2315 0.930 . S
C2306 H2300 0.930 . S
C2306 C2307 1.355 1_655 S
C2306 C2308 1.415 . S
C2307 C2306 1.355 1_455 S
C2307 C2309 1.419 . S
C2308 C2306 1.415 . S
C2308 C2313 1.425 1_655 S
C2308 C2315 1.409 . S
C2309 H2301 0.930 . S
C2309 C2307 1.419 . S
C2309 C2310 1.362 . S
C2310 H2302 0.930 . S
C2310 C2309 1.362 . S
C2310 C2313 1.409 . S
C2311 H2303 0.930 . S
C2311 C2312 1.337 1_455 S
C2311 C2313 1.415 . S
C2312 C2311 1.337 1_655 S
C2312 C2314 1.442 . S
C2313 C2308 1.425 1_455 S
C2313 C2310 1.409 . S
C2313 C2311 1.415 . S
C2314 H2304 0.930 . S
C2314 C2312 1.442 . S
C2314 C2315 1.362 . S
C2315 H2305 0.930 . S
C2315 C2308 1.409 . S
C2315 C2314 1.362 . S
H2316 C2322 0.930 . S
H2317 C2325 0.930 . S
H2318 C2326 0.930 . S
H2319 C2327 0.930 . S
H2320 C2330 0.930 . S
H2321 C2331 0.930 . S
C2322 H2316 0.930 . S
C2322 C2323 1.355 1_545 S
C2322 C2324 1.415 . S
C2323 C2322 1.355 1_565 S
C2323 C2325 1.419 . S
C2324 C2322 1.415 . S
C2324 C2329 1.425 1_545 S
C2324 C2331 1.409 . S
C2325 H2317 0.930 . S
C2325 C2323 1.419 . S
C2325 C2326 1.362 . S
C2326 H2318 0.930 . S
C2326 C2325 1.362 . S
C2326 C2329 1.409 . S
C2327 H2319 0.930 . S
C2327 C2328 1.355 1_565 S
C2327 C2329 1.415 . S
C2328 C2327 1.355 1_545 S
C2328 C2330 1.419 . S
C2329 C2324 1.425 1_565 S
C2329 C2326 1.409 . S
C2329 C2327 1.415 . S
C2330 H2320 0.930 . S
C2330 C2328 1.419 . S
C2330 C2331 1.362 . S
C2331 H2321 0.930 . S
C2331 C2324 1.409 . S
C2331 C2330 1.362 . S
H2332 C2338 0.930 . S
H2333 C2341 0.930 . S
H2334 C2342 0.930 . S
H2335 C2343 0.930 . S
H2336 C2346 0.930 . S
H2337 C2347 0.930 . S
C2338 H2332 0.930 . S
C2338 C2339 1.355 1_655 S
C2338 C2340 1.415 . S
C2339 C2338 1.355 1_455 S
C2339 C2341 1.419 . S
C2340 C2338 1.415 . S
C2340 C2345 1.425 1_655 S
C2340 C2347 1.409 . S
C2341 H2333 0.930 . S
C2341 C2339 1.419 . S
C2341 C2342 1.362 . S
C2342 H2334 0.930 . S
C2342 C2341 1.362 . S
C2342 C2345 1.409 . S
C2343 H2335 0.930 . S
C2343 C2344 1.355 1_455 S
C2343 C2345 1.415 . S
C2344 C2343 1.355 1_655 S
C2344 C2346 1.419 . S
C2345 C2340 1.425 1_455 S
C2345 C2342 1.409 . S
C2345 C2343 1.415 . S
C2346 H2336 0.930 . S
C2346 C2344 1.419 . S
C2346 C2347 1.362 . S
C2347 H2337 0.930 . S
C2347 C2340 1.409 . S
C2347 C2346 1.362 . S
H2348 C2354 0.929 . S
H2349 C2357 0.930 . S
H2350 C2358 0.930 . S
H2351 C2359 0.929 . S
H2352 C2362 0.930 . S
H2353 C2363 0.930 . S
C2354 H2348 0.929 . S
C2354 C2355 1.355 . S
C2354 C2356 1.414 1_545 S
C2355 C2354 1.355 . S
C2355 C2357 1.419 . S
C2356 C2354 1.414 1_565 S
C2356 C2361 1.425 1_565 S
C2356 C2363 1.409 . S
C2357 H2349 0.930 . S
C2357 C2355 1.419 . S
C2357 C2358 1.362 . S
C2358 H2350 0.930 . S
C2358 C2357 1.362 . S
C2358 C2361 1.410 . S
C2359 H2351 0.929 . S
C2359 C2360 1.355 . S
C2359 C2361 1.414 1_565 S
C2360 C2359 1.355 . S
C2360 C2362 1.420 . S
C2361 C2356 1.425 1_545 S
C2361 C2358 1.410 . S
C2361 C2359 1.414 1_545 S
C2362 H2352 0.930 . S
C2362 C2360 1.420 . S
C2362 C2363 1.362 . S
C2363 H2353 0.930 . S
C2363 C2356 1.409 . S
C2363 C2362 1.362 . S
H2364 C2370 0.930 . S
H2365 C2373 0.930 . S
H2366 C2374 0.930 . S
H2367 C2375 0.930 . S
H2368 C2378 0.930 . S
H2369 C2379 0.930 . S
C2370 H2364 0.930 . S
C2370 C2371 1.355 1_455 S
C2370 C2372 1.415 . S
C2371 C2370 1.355 1_655 S
C2371 C2373 1.419 . S
C2372 C2370 1.415 . S
C2372 C2377 1.425 1_455 S
C2372 C2379 1.409 . S
C2373 H2365 0.930 . S
C2373 C2371 1.419 . S
C2373 C2374 1.362 . S
C2374 H2366 0.930 . S
C2374 C2373 1.362 . S
C2374 C2377 1.409 . S
C2375 H2367 0.930 . S
C2375 C2376 1.355 1_655 S
C2375 C2377 1.415 . S
C2376 C2375 1.355 1_455 S
C2376 C2378 1.419 . S
C2377 C2372 1.425 1_655 S
C2377 C2374 1.409 . S
C2377 C2375 1.415 . S
C2378 H2368 0.930 . S
C2378 C2376 1.419 . S
C2378 C2379 1.362 . S
C2379 H2369 0.930 . S
C2379 C2372 1.409 . S
C2379 C2378 1.362 . S
H2380 C2386 0.930 . S
H2381 C2389 0.930 . S
H2382 C2390 0.930 . S
H2383 C2391 0.930 . S
H2384 C2394 0.930 . S
H2385 C2395 0.930 . S
C2386 H2380 0.930 . S
C2386 C2387 1.346 1_554 S
C2386 C2388 1.415 . S
C2387 C2386 1.346 1_556 S
C2387 C2389 1.430 . S
C2388 C2386 1.415 . S
C2388 C2393 1.425 1_554 S
C2388 C2395 1.409 . S
C2389 H2381 0.930 . S
C2389 C2387 1.430 . S
C2389 C2390 1.362 . S
C2390 H2382 0.930 . S
C2390 C2389 1.362 . S
C2390 C2393 1.409 . S
C2391 H2383 0.930 . S
C2391 C2392 1.342 1_556 S
C2391 C2393 1.415 . S
C2392 C2391 1.342 1_554 S
C2392 C2394 1.435 . S
C2393 C2388 1.425 1_556 S
C2393 C2390 1.409 . S
C2393 C2391 1.415 . S
C2394 H2384 0.930 . S
C2394 C2392 1.435 . S
C2394 C2395 1.362 . S
C2395 H2385 0.930 . S
C2395 C2388 1.409 . S
C2395 C2394 1.362 . S
H2396 C2402 0.930 . S
H2397 C2405 0.930 . S
H2398 C2406 0.930 . S
H2399 C2407 0.930 . S
H2400 C2410 0.930 . S
H2401 C2411 0.930 . S
C2402 H2396 0.930 . S
C2402 C2403 1.355 1_556 S
C2402 C2404 1.415 . S
C2403 C2402 1.355 1_554 S
C2403 C2405 1.419 . S
C2404 C2402 1.415 . S
C2404 C2409 1.425 1_556 S
C2404 C2411 1.409 . S
C2405 H2397 0.930 . S
C2405 C2403 1.419 . S
C2405 C2406 1.362 . S
C2406 H2398 0.930 . S
C2406 C2405 1.362 . S
C2406 C2409 1.409 . S
C2407 H2399 0.930 . S
C2407 C2408 1.355 1_554 S
C2407 C2409 1.415 . S
C2408 C2407 1.355 1_556 S
C2408 C2410 1.419 . S
C2409 C2404 1.425 1_554 S
C2409 C2406 1.409 . S
C2409 C2407 1.415 . S
C2410 H2400 0.930 . S
C2410 C2408 1.419 . S
C2410 C2411 1.362 . S
C2411 H2401 0.930 . S
C2411 C2404 1.409 . S
C2411 C2410 1.362 . S
H2412 C2418 0.933 . S
H2413 C2421 0.930 . S
H2414 C2422 0.930 . S
H2415 C2423 0.932 . S
H2416 C2426 0.930 . S
H2417 C2427 0.930 . S
C2418 H2412 0.933 . S
C2418 C2419 1.352 1_554 S
C2418 C2420 1.416 . S
C2419 C2418 1.352 1_556 S
C2419 C2421 1.419 . S
C2420 C2418 1.416 . S
C2420 C2425 1.425 1_554 S
C2420 C2427 1.409 . S
C2421 H2413 0.930 . S
C2421 C2419 1.419 . S
C2421 C2422 1.362 . S
C2422 H2414 0.930 . S
C2422 C2421 1.362 . S
C2422 C2425 1.409 . S
C2423 H2415 0.932 . S
C2423 C2424 1.353 1_556 S
C2423 C2425 1.416 . S
C2424 C2423 1.353 1_554 S
C2424 C2426 1.419 . S
C2425 C2420 1.425 1_556 S
C2425 C2422 1.409 . S
C2425 C2423 1.416 . S
C2426 H2416 0.930 . S
C2426 C2424 1.419 . S
C2426 C2427 1.362 . S
C2427 H2417 0.930 . S
C2427 C2420 1.409 . S
C2427 C2426 1.362 . S
H2428 C2434 0.930 . S
H2429 C2437 0.930 . S
H2430 C2438 0.930 . S
H2431 C2439 0.930 . S
H2432 C2442 0.930 . S
H2433 C2443 0.930 . S
C2434 H2428 0.930 . S
C2434 C2435 1.355 1_554 S
C2434 C2436 1.415 . S
C2435 C2434 1.355 1_556 S
C2435 C2437 1.419 . S
C2436 C2434 1.415 . S
C2436 C2441 1.425 1_554 S
C2436 C2443 1.409 . S
C2437 H2429 0.930 . S
C2437 C2435 1.419 . S
C2437 C2438 1.362 . S
C2438 H2430 0.930 . S
C2438 C2437 1.362 . S
C2438 C2441 1.409 . S
C2439 H2431 0.930 . S
C2439 C2440 1.355 1_556 S
C2439 C2441 1.415 . S
C2440 C2439 1.355 1_554 S
C2440 C2442 1.419 . S
C2441 C2436 1.425 1_556 S
C2441 C2438 1.409 . S
C2441 C2439 1.415 . S
C2442 H2432 0.930 . S
C2442 C2440 1.419 . S
C2442 C2443 1.362 . S
C2443 H2433 0.930 . S
C2443 C2436 1.409 . S
C2443 C2442 1.362 . S
H2444 C2450 0.930 . S
H2445 C2453 0.930 . S
H2446 C2454 0.930 . S
H2447 C2455 0.930 . S
H2448 C2458 0.930 . S
H2449 C2459 0.930 . S
C2450 H2444 0.930 . S
C2450 C2451 1.355 1_556 S
C2450 C2452 1.415 . S
C2451 C2450 1.355 1_554 S
C2451 C2453 1.419 . S
C2452 C2450 1.415 . S
C2452 C2457 1.425 1_556 S
C2452 C2459 1.409 . S
C2453 H2445 0.930 . S
C2453 C2451 1.419 . S
C2453 C2454 1.362 . S
C2454 H2446 0.930 . S
C2454 C2453 1.362 . S
C2454 C2457 1.409 . S
C2455 H2447 0.930 . S
C2455 C2456 1.355 1_554 S
C2455 C2457 1.415 . S
C2456 C2455 1.355 1_556 S
C2456 C2458 1.419 . S
C2457 C2452 1.425 1_554 S
C2457 C2454 1.409 . S
C2457 C2455 1.415 . S
C2458 H2448 0.930 . S
C2458 C2456 1.419 . S
C2458 C2459 1.362 . S
C2459 H2449 0.930 . S
C2459 C2452 1.409 . S
C2459 C2458 1.362 . S
H2460 C2466 0.930 . S
H2461 C2469 0.930 . S
H2462 C2470 0.930 . S
H2463 C2471 0.930 . S
H2464 C2474 0.930 . S
H2465 C2475 0.930 . S
C2466 H2460 0.930 . S
C2466 C2467 1.355 1_556 S
C2466 C2468 1.415 . S
C2467 C2466 1.355 1_554 S
C2467 C2469 1.419 . S
C2468 C2466 1.415 . S
C2468 C2473 1.425 1_556 S
C2468 C2475 1.409 . S
C2469 H2461 0.930 . S
C2469 C2467 1.419 . S
C2469 C2470 1.362 . S
C2470 H2462 0.930 . S
C2470 C2469 1.362 . S
C2470 C2473 1.409 . S
C2471 H2463 0.930 . S
C2471 C2472 1.355 1_554 S
C2471 C2473 1.415 . S
C2472 C2471 1.355 1_556 S
C2472 C2474 1.419 . S
C2473 C2468 1.425 1_554 S
C2473 C2470 1.409 . S
C2473 C2471 1.415 . S
C2474 H2464 0.930 . S
C2474 C2472 1.419 . S
C2474 C2475 1.362 . S
C2475 H2465 0.930 . S
C2475 C2468 1.409 . S
C2475 C2474 1.362 . S
H2476 C2482 0.930 . S
H2477 C2485 0.930 . S
H2478 C2486 0.930 . S
H2479 C2487 0.930 . S
H2480 C2490 0.930 . S
H2481 C2491 0.930 . S
C2482 H2476 0.930 . S
C2482 C2483 1.355 1_556 S
C2482 C2484 1.415 . S
C2483 C2482 1.355 1_554 S
C2483 C2485 1.419 . S
C2484 C2482 1.415 . S
C2484 C2489 1.425 1_556 S
C2484 C2491 1.409 . S
C2485 H2477 0.930 . S
C2485 C2483 1.419 . S
C2485 C2486 1.362 . S
C2486 H2478 0.930 . S
C2486 C2485 1.362 . S
C2486 C2489 1.409 . S
C2487 H2479 0.930 . S
C2487 C2488 1.355 1_554 S
C2487 C2489 1.415 . S
C2488 C2487 1.355 1_556 S
C2488 C2490 1.419 . S
C2489 C2484 1.425 1_554 S
C2489 C2486 1.409 . S
C2489 C2487 1.415 . S
C2490 H2480 0.930 . S
C2490 C2488 1.419 . S
C2490 C2491 1.362 . S
C2491 H2481 0.930 . S
C2491 C2484 1.409 . S
C2491 C2490 1.362 . S
H2492 C2498 0.930 . S
H2493 C2501 0.930 . S
H2494 C2502 0.930 . S
H2495 C2503 0.930 . S
H2496 C2506 0.930 . S
H2497 C2507 0.930 . S
C2498 H2492 0.930 . S
C2498 C2499 1.355 1_554 S
C2498 C2500 1.415 . S
C2499 C2498 1.355 1_556 S
C2499 C2501 1.419 . S
C2500 C2498 1.415 . S
C2500 C2505 1.425 1_554 S
C2500 C2507 1.409 . S
C2501 H2493 0.930 . S
C2501 C2499 1.419 . S
C2501 C2502 1.362 . S
C2502 H2494 0.930 . S
C2502 C2501 1.362 . S
C2502 C2505 1.409 . S
C2503 H2495 0.930 . S
C2503 C2504 1.355 1_556 S
C2503 C2505 1.415 . S
C2504 C2503 1.355 1_554 S
C2504 C2506 1.419 . S
C2505 C2500 1.425 1_556 S
C2505 C2502 1.409 . S
C2505 C2503 1.415 . S
C2506 H2496 0.930 . S
C2506 C2504 1.419 . S
C2506 C2507 1.362 . S
C2507 H2497 0.930 . S
C2507 C2500 1.409 . S
C2507 C2506 1.362 . S
H2508 C2514 0.930 . S
H2509 C2517 0.930 . S
H2510 C2518 0.930 . S
H2511 C2519 0.930 . S
H2512 C2522 0.930 . S
H2513 C2523 0.930 . S
C2514 H2508 0.930 . S
C2514 C2515 1.355 . S
C2514 C2516 1.415 . S
C2515 C2514 1.355 . S
C2515 C2517 1.419 . S
C2516 C2514 1.415 . S
C2516 C2521 1.425 . S
C2516 C2523 1.409 . S
C2517 H2509 0.930 . S
C2517 C2515 1.419 . S
C2517 C2518 1.362 . S
C2518 H2510 0.930 . S
C2518 C2517 1.362 . S
C2518 C2521 1.409 . S
C2519 H2511 0.930 . S
C2519 C2520 1.355 . S
C2519 C2521 1.415 . S
C2520 C2519 1.355 . S
C2520 C2522 1.419 . S
C2521 C2516 1.425 . S
C2521 C2518 1.409 . S
C2521 C2519 1.415 . S
C2522 H2512 0.930 . S
C2522 C2520 1.419 . S
C2522 C2523 1.362 . S
C2523 H2513 0.930 . S
C2523 C2516 1.409 . S
C2523 C2522 1.362 . S
H2524 C2530 0.930 . S
H2525 C2533 0.930 . S
H2526 C2534 0.930 . S
H2527 C2535 0.930 . S
H2528 C2538 0.930 . S
H2529 C2539 0.930 . S
C2530 H2524 0.930 . S
C2530 C2531 1.355 . S
C2530 C2532 1.415 . S
C2531 C2530 1.355 . S
C2531 C2533 1.419 . S
C2532 C2530 1.415 . S
C2532 C2537 1.425 . S
C2532 C2539 1.409 . S
C2533 H2525 0.930 . S
C2533 C2531 1.419 . S
C2533 C2534 1.362 . S
C2534 H2526 0.930 . S
C2534 C2533 1.362 . S
C2534 C2537 1.409 . S
C2535 H2527 0.930 . S
C2535 C2536 1.355 . S
C2535 C2537 1.415 . S
C2536 C2535 1.355 . S
C2536 C2538 1.419 . S
C2537 C2532 1.425 . S
C2537 C2534 1.409 . S
C2537 C2535 1.415 . S
C2538 H2528 0.930 . S
C2538 C2536 1.419 . S
C2538 C2539 1.362 . S
C2539 H2529 0.930 . S
C2539 C2532 1.409 . S
C2539 C2538 1.362 . S
H2540 C2546 0.930 . S
H2541 C2549 0.930 . S
H2542 C2550 0.930 . S
H2543 C2551 0.930 . S
H2544 C2554 0.930 . S
H2545 C2555 0.930 . S
C2546 H2540 0.930 . S
C2546 C2547 1.355 . S
C2546 C2548 1.415 . S
C2547 C2546 1.355 . S
C2547 C2549 1.419 . S
C2548 C2546 1.415 . S
C2548 C2553 1.425 . S
C2548 C2555 1.409 . S
C2549 H2541 0.930 . S
C2549 C2547 1.419 . S
C2549 C2550 1.362 . S
C2550 H2542 0.930 . S
C2550 C2549 1.362 . S
C2550 C2553 1.409 . S
C2551 H2543 0.930 . S
C2551 C2552 1.355 . S
C2551 C2553 1.415 . S
C2552 C2551 1.355 . S
C2552 C2554 1.419 . S
C2553 C2548 1.425 . S
C2553 C2550 1.409 . S
C2553 C2551 1.415 . S
C2554 H2544 0.930 . S
C2554 C2552 1.419 . S
C2554 C2555 1.362 . S
C2555 H2545 0.930 . S
C2555 C2548 1.409 . S
C2555 C2554 1.362 . S
H2556 C2562 0.930 . S
H2557 C2565 0.930 . S
H2558 C2566 0.930 . S
H2559 C2567 0.930 . S
H2560 C2570 0.930 . S
H2561 C2571 0.930 . S
C2562 H2556 0.930 . S
C2562 C2563 1.355 . S
C2562 C2564 1.415 . S
C2563 C2562 1.355 . S
C2563 C2565 1.419 . S
C2564 C2562 1.415 . S
C2564 C2569 1.425 . S
C2564 C2571 1.409 . S
C2565 H2557 0.930 . S
C2565 C2563 1.419 . S
C2565 C2566 1.362 . S
C2566 H2558 0.930 . S
C2566 C2565 1.362 . S
C2566 C2569 1.409 . S
C2567 H2559 0.930 . S
C2567 C2568 1.355 . S
C2567 C2569 1.415 . S
C2568 C2567 1.355 . S
C2568 C2570 1.419 . S
C2569 C2564 1.425 . S
C2569 C2566 1.409 . S
C2569 C2567 1.415 . S
C2570 H2560 0.930 . S
C2570 C2568 1.419 . S
C2570 C2571 1.362 . S
C2571 H2561 0.930 . S
C2571 C2564 1.409 . S
C2571 C2570 1.362 . S
H2572 C2578 0.930 . S
H2573 C2581 0.930 . S
H2574 C2582 0.930 . S
H2575 C2583 0.930 . S
H2576 C2586 0.930 . S
H2577 C2587 0.930 . S
C2578 H2572 0.930 . S
C2578 C2579 1.355 . S
C2578 C2580 1.415 . S
C2579 C2578 1.355 . S
C2579 C2581 1.419 . S
C2580 C2578 1.415 . S
C2580 C2585 1.425 . S
C2580 C2587 1.409 . S
C2581 H2573 0.930 . S
C2581 C2579 1.419 . S
C2581 C2582 1.362 . S
C2582 H2574 0.930 . S
C2582 C2581 1.362 . S
C2582 C2585 1.409 . S
C2583 H2575 0.930 . S
C2583 C2584 1.355 . S
C2583 C2585 1.415 . S
C2584 C2583 1.355 . S
C2584 C2586 1.419 . S
C2585 C2580 1.425 . S
C2585 C2582 1.409 . S
C2585 C2583 1.415 . S
C2586 H2576 0.930 . S
C2586 C2584 1.419 . S
C2586 C2587 1.362 . S
C2587 H2577 0.930 . S
C2587 C2580 1.409 . S
C2587 C2586 1.362 . S
H2588 C2594 0.930 . S
H2589 C2597 0.930 . S
H2590 C2598 0.930 . S
H2591 C2599 0.930 . S
H2592 C2602 0.930 . S
H2593 C2603 0.930 . S
C2594 H2588 0.930 . S
C2594 C2595 1.355 . S
C2594 C2596 1.415 . S
C2595 C2594 1.355 . S
C2595 C2597 1.419 . S
C2596 C2594 1.415 . S
C2596 C2601 1.425 . S
C2596 C2603 1.409 . S
C2597 H2589 0.930 . S
C2597 C2595 1.419 . S
C2597 C2598 1.362 . S
C2598 H2590 0.930 . S
C2598 C2597 1.362 . S
C2598 C2601 1.409 . S
C2599 H2591 0.930 . S
C2599 C2600 1.355 . S
C2599 C2601 1.415 . S
C2600 C2599 1.355 . S
C2600 C2602 1.419 . S
C2601 C2596 1.425 . S
C2601 C2598 1.409 . S
C2601 C2599 1.415 . S
C2602 H2592 0.930 . S
C2602 C2600 1.419 . S
C2602 C2603 1.362 . S
C2603 H2593 0.930 . S
C2603 C2596 1.409 . S
C2603 C2602 1.362 . S
H2604 C2610 0.930 . S
H2605 C2613 0.930 . S
H2606 C2614 0.930 . S
H2607 C2615 0.930 . S
H2608 C2618 0.930 . S
H2609 C2619 0.930 . S
C2610 H2604 0.930 . S
C2610 C2611 1.355 . S
C2610 C2612 1.415 . S
C2611 C2610 1.355 . S
C2611 C2613 1.419 . S
C2612 C2610 1.415 . S
C2612 C2617 1.425 . S
C2612 C2619 1.409 . S
C2613 H2605 0.930 . S
C2613 C2611 1.419 . S
C2613 C2614 1.362 . S
C2614 H2606 0.930 . S
C2614 C2613 1.362 . S
C2614 C2617 1.409 . S
C2615 H2607 0.930 . S
C2615 C2616 1.355 . S
C2615 C2617 1.415 . S
C2616 C2615 1.355 . S
C2616 C2618 1.419 . S
C2617 C2612 1.425 . S
C2617 C2614 1.409 . S
C2617 C2615 1.415 . S
C2618 H2608 0.930 . S
C2618 C2616 1.419 . S
C2618 C2619 1.362 . S
C2619 H2609 0.930 . S
C2619 C2612 1.409 . S
C2619 C2618 1.362 . S
H2620 C2626 0.930 . S
H2621 C2629 0.930 . S
H2622 C2630 0.930 . S
H2623 C2631 0.930 . S
H2624 C2634 0.930 . S
H2625 C2635 0.930 . S
C2626 H2620 0.930 . S
C2626 C2627 1.355 . S
C2626 C2628 1.415 . S
C2627 C2626 1.355 . S
C2627 C2629 1.419 . S
C2628 C2626 1.415 . S
C2628 C2633 1.425 . S
C2628 C2635 1.409 . S
C2629 H2621 0.930 . S
C2629 C2627 1.419 . S
C2629 C2630 1.362 . S
C2630 H2622 0.930 . S
C2630 C2629 1.362 . S
C2630 C2633 1.409 . S
C2631 H2623 0.930 . S
C2631 C2632 1.355 . S
C2631 C2633 1.415 . S
C2632 C2631 1.355 . S
C2632 C2634 1.419 . S
C2633 C2628 1.425 . S
C2633 C2630 1.409 . S
C2633 C2631 1.415 . S
C2634 H2624 0.930 . S
C2634 C2632 1.419 . S
C2634 C2635 1.362 . S
C2635 H2625 0.930 . S
C2635 C2628 1.409 . S
C2635 C2634 1.362 . S
H2636 C2642 0.930 . S
H2637 C2645 0.930 . S
H2638 C2646 0.930 . S
H2639 C2647 0.930 . S
H2640 C2650 0.930 . S
H2641 C2651 0.930 . S
C2642 H2636 0.930 . S
C2642 C2643 1.355 . S
C2642 C2644 1.415 . S
C2643 C2642 1.355 . S
C2643 C2645 1.419 . S
C2644 C2642 1.415 . S
C2644 C2649 1.425 . S
C2644 C2651 1.409 . S
C2645 H2637 0.930 . S
C2645 C2643 1.419 . S
C2645 C2646 1.362 . S
C2646 H2638 0.930 . S
C2646 C2645 1.362 . S
C2646 C2649 1.409 . S
C2647 H2639 0.930 . S
C2647 C2648 1.355 . S
C2647 C2649 1.415 . S
C2648 C2647 1.355 . S
C2648 C2650 1.419 . S
C2649 C2644 1.425 . S
C2649 C2646 1.409 . S
C2649 C2647 1.415 . S
C2650 H2640 0.930 . S
C2650 C2648 1.419 . S
C2650 C2651 1.362 . S
C2651 H2641 0.930 . S
C2651 C2644 1.409 . S
C2651 C2650 1.362 . S
H2652 C2658 0.930 . S
H2653 C2661 0.930 . S
H2654 C2662 0.930 . S
H2655 C2663 0.930 . S
H2656 C2666 0.930 . S
H2657 C2667 0.930 . S
C2658 H2652 0.930 . S
C2658 C2659 1.355 . S
C2658 C2660 1.415 . S
C2659 C2658 1.355 . S
C2659 C2661 1.419 . S
C2660 C2658 1.415 . S
C2660 C2665 1.425 . S
C2660 C2667 1.409 . S
C2661 H2653 0.930 . S
C2661 C2659 1.419 . S
C2661 C2662 1.362 . S
C2662 H2654 0.930 . S
C2662 C2661 1.362 . S
C2662 C2665 1.409 . S
C2663 H2655 0.930 . S
C2663 C2664 1.355 . S
C2663 C2665 1.415 . S
C2664 C2663 1.355 . S
C2664 C2666 1.419 . S
C2665 C2660 1.425 . S
C2665 C2662 1.409 . S
C2665 C2663 1.415 . S
C2666 H2656 0.930 . S
C2666 C2664 1.419 . S
C2666 C2667 1.362 . S
C2667 H2657 0.930 . S
C2667 C2660 1.409 . S
C2667 C2666 1.362 . S
H2668 C2674 0.930 . S
H2669 C2677 0.930 . S
H2670 C2678 0.930 . S
H2671 C2679 0.930 . S
H2672 C2682 0.930 . S
H2673 C2683 0.930 . S
C2674 H2668 0.930 . S
C2674 C2675 1.355 . S
C2674 C2676 1.415 . S
C2675 C2674 1.355 . S
C2675 C2677 1.419 . S
C2676 C2674 1.415 . S
C2676 C2681 1.425 . S
C2676 C2683 1.409 . S
C2677 H2669 0.930 . S
C2677 C2675 1.419 . S
C2677 C2678 1.362 . S
C2678 H2670 0.930 . S
C2678 C2677 1.362 . S
C2678 C2681 1.409 . S
C2679 H2671 0.930 . S
C2679 C2680 1.355 . S
C2679 C2681 1.415 . S
C2680 C2679 1.355 . S
C2680 C2682 1.419 . S
C2681 C2676 1.425 . S
C2681 C2678 1.409 . S
C2681 C2679 1.415 . S
C2682 H2672 0.930 . S
C2682 C2680 1.419 . S
C2682 C2683 1.362 . S
C2683 H2673 0.930 . S
C2683 C2676 1.409 . S
C2683 C2682 1.362 . S
H2684 C2690 0.930 . S
H2685 C2693 0.930 . S
H2686 C2694 0.930 . S
H2687 C2695 0.930 . S
H2688 C2698 0.930 . S
H2689 C2699 0.930 . S
C2690 H2684 0.930 . S
C2690 C2691 1.355 . S
C2690 C2692 1.415 . S
C2691 C2690 1.355 . S
C2691 C2693 1.419 . S
C2692 C2690 1.415 . S
C2692 C2697 1.425 . S
C2692 C2699 1.409 . S
C2693 H2685 0.930 . S
C2693 C2691 1.419 . S
C2693 C2694 1.362 . S
C2694 H2686 0.930 . S
C2694 C2693 1.362 . S
C2694 C2697 1.409 . S
C2695 H2687 0.930 . S
C2695 C2696 1.355 . S
C2695 C2697 1.415 . S
C2696 C2695 1.355 . S
C2696 C2698 1.419 . S
C2697 C2692 1.425 . S
C2697 C2694 1.409 . S
C2697 C2695 1.415 . S
C2698 H2688 0.930 . S
C2698 C2696 1.419 . S
C2698 C2699 1.362 . S
C2699 H2689 0.930 . S
C2699 C2692 1.409 . S
C2699 C2698 1.362 . S
H2700 C2706 0.930 . S
H2701 C2709 0.930 . S
H2702 C2710 0.930 . S
H2703 C2711 0.930 . S
H2704 C2714 0.930 . S
H2705 C2715 0.930 . S
C2706 H2700 0.930 . S
C2706 C2707 1.355 . S
C2706 C2708 1.415 . S
C2707 C2706 1.355 . S
C2707 C2709 1.419 . S
C2708 C2706 1.415 . S
C2708 C2713 1.425 . S
C2708 C2715 1.409 . S
C2709 H2701 0.930 . S
C2709 C2707 1.419 . S
C2709 C2710 1.362 . S
C2710 H2702 0.930 . S
C2710 C2709 1.362 . S
C2710 C2713 1.409 . S
C2711 H2703 0.930 . S
C2711 C2712 1.355 . S
C2711 C2713 1.415 . S
C2712 C2711 1.355 . S
C2712 C2714 1.419 . S
C2713 C2708 1.425 . S
C2713 C2710 1.409 . S
C2713 C2711 1.415 . S
C2714 H2704 0.930 . S
C2714 C2712 1.419 . S
C2714 C2715 1.362 . S
C2715 H2705 0.930 . S
C2715 C2708 1.409 . S
C2715 C2714 1.362 . S
H2716 C2722 0.930 . S
H2717 C2725 0.930 . S
H2718 C2726 0.930 . S
H2719 C2727 0.930 . S
H2720 C2730 0.930 . S
H2721 C2731 0.930 . S
C2722 H2716 0.930 . S
C2722 C2723 1.355 . S
C2722 C2724 1.415 . S
C2723 C2722 1.355 . S
C2723 C2725 1.419 . S
C2724 C2722 1.415 . S
C2724 C2729 1.425 . S
C2724 C2731 1.409 . S
C2725 H2717 0.930 . S
C2725 C2723 1.419 . S
C2725 C2726 1.362 . S
C2726 H2718 0.930 . S
C2726 C2725 1.362 . S
C2726 C2729 1.409 . S
C2727 H2719 0.930 . S
C2727 C2728 1.355 . S
C2727 C2729 1.415 . S
C2728 C2727 1.355 . S
C2728 C2730 1.419 . S
C2729 C2724 1.425 . S
C2729 C2726 1.409 . S
C2729 C2727 1.415 . S
C2730 H2720 0.930 . S
C2730 C2728 1.419 . S
C2730 C2731 1.362 . S
C2731 H2721 0.930 . S
C2731 C2724 1.409 . S
C2731 C2730 1.362 . S
H2732 C2738 0.930 . S
H2733 C2741 0.930 . S
H2734 C2742 0.930 . S
H2735 C2743 0.930 . S
H2736 C2746 0.930 . S
H2737 C2747 0.930 . S
C2738 H2732 0.930 . S
C2738 C2739 1.355 . S
C2738 C2740 1.415 . S
C2739 C2738 1.355 . S
C2739 C2741 1.419 . S
C2740 C2738 1.415 . S
C2740 C2745 1.425 . S
C2740 C2747 1.409 . S
C2741 H2733 0.930 . S
C2741 C2739 1.419 . S
C2741 C2742 1.362 . S
C2742 H2734 0.930 . S
C2742 C2741 1.362 . S
C2742 C2745 1.409 . S
C2743 H2735 0.930 . S
C2743 C2744 1.355 . S
C2743 C2745 1.415 . S
C2744 C2743 1.355 . S
C2744 C2746 1.419 . S
C2745 C2740 1.425 . S
C2745 C2742 1.409 . S
C2745 C2743 1.415 . S
C2746 H2736 0.930 . S
C2746 C2744 1.419 . S
C2746 C2747 1.362 . S
C2747 H2737 0.930 . S
C2747 C2740 1.409 . S
C2747 C2746 1.362 . S
H2748 C2754 0.930 . S
H2749 C2757 0.930 . S
H2750 C2758 0.930 . S
H2751 C2759 0.930 . S
H2752 C2762 0.930 . S
H2753 C2763 0.930 . S
C2754 H2748 0.930 . S
C2754 C2755 1.355 . S
C2754 C2756 1.415 . S
C2755 C2754 1.355 . S
C2755 C2757 1.419 . S
C2756 C2754 1.415 . S
C2756 C2761 1.425 . S
C2756 C2763 1.409 . S
C2757 H2749 0.930 . S
C2757 C2755 1.419 . S
C2757 C2758 1.362 . S
C2758 H2750 0.930 . S
C2758 C2757 1.362 . S
C2758 C2761 1.409 . S
C2759 H2751 0.930 . S
C2759 C2760 1.355 . S
C2759 C2761 1.415 . S
C2760 C2759 1.355 . S
C2760 C2762 1.419 . S
C2761 C2756 1.425 . S
C2761 C2758 1.409 . S
C2761 C2759 1.415 . S
C2762 H2752 0.930 . S
C2762 C2760 1.419 . S
C2762 C2763 1.362 . S
C2763 H2753 0.930 . S
C2763 C2756 1.409 . S
C2763 C2762 1.362 . S
H2764 C2770 0.930 . S
H2765 C2773 0.930 . S
H2766 C2774 0.930 . S
H2767 C2775 0.930 . S
H2768 C2778 0.930 . S
H2769 C2779 0.930 . S
C2770 H2764 0.930 . S
C2770 C2771 1.355 . S
C2770 C2772 1.415 . S
C2771 C2770 1.355 . S
C2771 C2773 1.419 . S
C2772 C2770 1.415 . S
C2772 C2777 1.425 . S
C2772 C2779 1.409 . S
C2773 H2765 0.930 . S
C2773 C2771 1.419 . S
C2773 C2774 1.362 . S
C2774 H2766 0.930 . S
C2774 C2773 1.362 . S
C2774 C2777 1.409 . S
C2775 H2767 0.930 . S
C2775 C2776 1.355 . S
C2775 C2777 1.415 . S
C2776 C2775 1.355 . S
C2776 C2778 1.419 . S
C2777 C2772 1.425 . S
C2777 C2774 1.409 . S
C2777 C2775 1.415 . S
C2778 H2768 0.930 . S
C2778 C2776 1.419 . S
C2778 C2779 1.362 . S
C2779 H2769 0.930 . S
C2779 C2772 1.409 . S
C2779 C2778 1.362 . S
H2780 C2786 0.930 . S
H2781 C2789 0.930 . S
H2782 C2790 0.930 . S
H2783 C2791 0.930 . S
H2784 C2794 0.930 . S
H2785 C2795 0.930 . S
C2786 H2780 0.930 . S
C2786 C2787 1.355 . S
C2786 C2788 1.415 . S
C2787 C2786 1.355 . S
C2787 C2789 1.419 . S
C2788 C2786 1.415 . S
C2788 C2793 1.425 . S
C2788 C2795 1.409 . S
C2789 H2781 0.930 . S
C2789 C2787 1.419 . S
C2789 C2790 1.362 . S
C2790 H2782 0.930 . S
C2790 C2789 1.362 . S
C2790 C2793 1.409 . S
C2791 H2783 0.930 . S
C2791 C2792 1.355 . S
C2791 C2793 1.415 . S
C2792 C2791 1.355 . S
C2792 C2794 1.419 . S
C2793 C2788 1.425 . S
C2793 C2790 1.409 . S
C2793 C2791 1.415 . S
C2794 H2784 0.930 . S
C2794 C2792 1.419 . S
C2794 C2795 1.362 . S
C2795 H2785 0.930 . S
C2795 C2788 1.409 . S
C2795 C2794 1.362 . S
H2796 C2802 0.930 . S
H2797 C2805 0.930 . S
H2798 C2806 0.930 . S
H2799 C2807 0.930 . S
H2800 C2810 0.930 . S
H2801 C2811 0.930 . S
C2802 H2796 0.930 . S
C2802 C2803 1.355 . S
C2802 C2804 1.415 . S
C2803 C2802 1.355 . S
C2803 C2805 1.419 . S
C2804 C2802 1.415 . S
C2804 C2809 1.425 . S
C2804 C2811 1.409 . S
C2805 H2797 0.930 . S
C2805 C2803 1.419 . S
C2805 C2806 1.362 . S
C2806 H2798 0.930 . S
C2806 C2805 1.362 . S
C2806 C2809 1.409 . S
C2807 H2799 0.930 . S
C2807 C2808 1.355 . S
C2807 C2809 1.415 . S
C2808 C2807 1.355 . S
C2808 C2810 1.419 . S
C2809 C2804 1.425 . S
C2809 C2806 1.409 . S
C2809 C2807 1.415 . S
C2810 H2800 0.930 . S
C2810 C2808 1.419 . S
C2810 C2811 1.362 . S
C2811 H2801 0.930 . S
C2811 C2804 1.409 . S
C2811 C2810 1.362 . S
H2812 C2818 0.930 . S
H2813 C2821 0.930 . S
H2814 C2822 0.930 . S
H2815 C2823 0.930 . S
H2816 C2826 0.930 . S
H2817 C2827 0.930 . S
C2818 H2812 0.930 . S
C2818 C2819 1.355 . S
C2818 C2820 1.415 . S
C2819 C2818 1.355 . S
C2819 C2821 1.419 . S
C2820 C2818 1.415 . S
C2820 C2825 1.425 . S
C2820 C2827 1.409 . S
C2821 H2813 0.930 . S
C2821 C2819 1.419 . S
C2821 C2822 1.362 . S
C2822 H2814 0.930 . S
C2822 C2821 1.362 . S
C2822 C2825 1.409 . S
C2823 H2815 0.930 . S
C2823 C2824 1.355 . S
C2823 C2825 1.415 . S
C2824 C2823 1.355 . S
C2824 C2826 1.419 . S
C2825 C2820 1.425 . S
C2825 C2822 1.409 . S
C2825 C2823 1.415 . S
C2826 H2816 0.930 . S
C2826 C2824 1.419 . S
C2826 C2827 1.362 . S
C2827 H2817 0.930 . S
C2827 C2820 1.409 . S
C2827 C2826 1.362 . S
H2828 C2834 0.930 . S
H2829 C2837 0.930 . S
H2830 C2838 0.930 . S
H2831 C2839 0.930 . S
H2832 C2842 0.930 . S
H2833 C2843 0.930 . S
C2834 H2828 0.930 . S
C2834 C2835 1.355 . S
C2834 C2836 1.415 . S
C2835 C2834 1.355 . S
C2835 C2837 1.419 . S
C2836 C2834 1.415 . S
C2836 C2841 1.425 . S
C2836 C2843 1.409 . S
C2837 H2829 0.930 . S
C2837 C2835 1.419 . S
C2837 C2838 1.362 . S
C2838 H2830 0.930 . S
C2838 C2837 1.362 . S
C2838 C2841 1.409 . S
C2839 H2831 0.930 . S
C2839 C2840 1.355 . S
C2839 C2841 1.415 . S
C2840 C2839 1.355 . S
C2840 C2842 1.419 . S
C2841 C2836 1.425 . S
C2841 C2838 1.409 . S
C2841 C2839 1.415 . S
C2842 H2832 0.930 . S
C2842 C2840 1.419 . S
C2842 C2843 1.362 . S
C2843 H2833 0.930 . S
C2843 C2836 1.409 . S
C2843 C2842 1.362 . S
H2844 C2850 0.930 . S
H2845 C2853 0.930 . S
H2846 C2854 0.930 . S
H2847 C2855 0.930 . S
H2848 C2858 0.930 . S
H2849 C2859 0.930 . S
C2850 H2844 0.930 . S
C2850 C2851 1.355 . S
C2850 C2852 1.415 . S
C2851 C2850 1.355 . S
C2851 C2853 1.419 . S
C2852 C2850 1.415 . S
C2852 C2857 1.425 . S
C2852 C2859 1.409 . S
C2853 H2845 0.930 . S
C2853 C2851 1.419 . S
C2853 C2854 1.362 . S
C2854 H2846 0.930 . S
C2854 C2853 1.362 . S
C2854 C2857 1.409 . S
C2855 H2847 0.930 . S
C2855 C2856 1.355 . S
C2855 C2857 1.415 . S
C2856 C2855 1.355 . S
C2856 C2858 1.419 . S
C2857 C2852 1.425 . S
C2857 C2854 1.409 . S
C2857 C2855 1.415 . S
C2858 H2848 0.930 . S
C2858 C2856 1.419 . S
C2858 C2859 1.362 . S
C2859 H2849 0.930 . S
C2859 C2852 1.409 . S
C2859 C2858 1.362 . S
H2860 C2866 0.930 . S
H2861 C2869 0.930 . S
H2862 C2870 0.930 . S
H2863 C2871 0.930 . S
H2864 C2874 0.930 . S
H2865 C2875 0.930 . S
C2866 H2860 0.930 . S
C2866 C2867 1.355 . S
C2866 C2868 1.415 . S
C2867 C2866 1.355 . S
C2867 C2869 1.419 . S
C2868 C2866 1.415 . S
C2868 C2873 1.425 . S
C2868 C2875 1.409 . S
C2869 H2861 0.930 . S
C2869 C2867 1.419 . S
C2869 C2870 1.362 . S
C2870 H2862 0.930 . S
C2870 C2869 1.362 . S
C2870 C2873 1.409 . S
C2871 H2863 0.930 . S
C2871 C2872 1.355 . S
C2871 C2873 1.415 . S
C2872 C2871 1.355 . S
C2872 C2874 1.419 . S
C2873 C2868 1.425 . S
C2873 C2870 1.409 . S
C2873 C2871 1.415 . S
C2874 H2864 0.930 . S
C2874 C2872 1.419 . S
C2874 C2875 1.362 . S
C2875 H2865 0.930 . S
C2875 C2868 1.409 . S
C2875 C2874 1.362 . S
H2876 C2882 0.930 . S
H2877 C2885 0.930 . S
H2878 C2886 0.930 . S
H2879 C2887 0.930 . S
H2880 C2890 0.930 . S
H2881 C2891 0.930 . S
C2882 H2876 0.930 . S
C2882 C2883 1.355 . S
C2882 C2884 1.415 . S
C2883 C2882 1.355 . S
C2883 C2885 1.419 . S
C2884 C2882 1.415 . S
C2884 C2889 1.425 . S
C2884 C2891 1.409 . S
C2885 H2877 0.930 . S
C2885 C2883 1.419 . S
C2885 C2886 1.362 . S
C2886 H2878 0.930 . S
C2886 C2885 1.362 . S
C2886 C2889 1.409 . S
C2887 H2879 0.930 . S
C2887 C2888 1.355 . S
C2887 C2889 1.415 . S
C2888 C2887 1.355 . S
C2888 C2890 1.419 . S
C2889 C2884 1.425 . S
C2889 C2886 1.409 . S
C2889 C2887 1.415 . S
C2890 H2880 0.930 . S
C2890 C2888 1.419 . S
C2890 C2891 1.362 . S
C2891 H2881 0.930 . S
C2891 C2884 1.409 . S
C2891 C2890 1.362 . S
C1752 C1446 1.065 . S
C1747 C1400 1.030 . S
C1763 C1280 1.044 . S
C1768 C1444 1.064 . S
C1784 C1445 1.065 . S
C1779 C1220 1.040 . S
C1795 C1340 1.027 . S
C1800 C1447 1.064 . S
C1816 C1491 1.065 . S
C1811 C980 1.074 . S
C1832 C1551 1.065 . S
C1827 C1040 1.082 . S
C1843 C1100 1.068 . S
C1848 C1490 1.065 . S
C1864 C1550 1.065 . S
C1859 C1160 1.072 . S
C1875 C740 1.081 . S
C1880 C1492 1.072 . S
C1896 C1548 1.065 . S
C1891 C800 1.020 . S
C1907 C860 1.026 . S
C1912 C1493 1.064 . S
C1923 C920 1.066 . S
C1928 C1549 1.072 . S
C1944 C1599 1.065 . S
C1939 C680 1.051 1_556 S
C1955 C560 1.022 . S
C1960 C1598 1.064 1_556 S
C1971 C500 1.036 1_554 S
C1976 C1600 1.065 1_556 S
C1992 C1601 1.065 1_556 S
C1987 C620 1.081 1_554 S
C2003 C260 1.020 . S
C2008 C1642 1.065 . S
C2019 C320 1.022 1_545 S
C2024 C1701 1.065 1_565 S
C2035 C380 1.019 . S
C2040 C1640 1.065 . S
C2051 C440 1.084 1_545 S
C2056 C1700 1.065 1_565 S
C2072 C1641 1.065 . S
C2067 C20 1.055 . S
C2088 C1698 1.065 . S
C2083 C80 1.050 1_565 S
C2099 C140 1.078 1_455 S
C2104 C1643 1.065 1_655 S
C2120 C1699 1.065 1_565 S
C2115 C200 1.022 . S
C2136 C1443 1.986 . S
C2131 C31 1.918 . S
C2147 C61 1.756 1_565 S
C2152 C1449 2.013 . S
C2163 C121 1.740 . S
C2168 C1441 2.012 . S
C2179 C211 1.973 1_565 S
C2184 C1448 2.011 . S
C2195 C271 1.919 . S
C2200 C1440 1.983 . S
C2216 C1450 2.014 . S
C2211 C331 1.969 1_545 S
C2227 C361 1.761 1_455 S
C2232 C1442 2.010 1_655 S
C2248 C1451 1.989 1_565 S
C2243 C421 1.698 1_545 S
C2264 C1497 2.011 1_565 S
C2259 C181 1.742 . S
C2275 C1 1.656 . S
C2280 C1540 1.979 . S
C2296 C1495 1.989 1_565 S
C2291 C91 1.922 . S
C2312 C1542 1.981 1_655 S
C2307 C151 1.921 1_455 S
C2323 C301 1.749 . S
C2328 C1496 2.014 . S
C2344 C1541 2.002 1_655 S
C2339 C391 1.966 1_455 S
C2360 C1494 2.012 1_565 S
C2355 C451 1.978 1_545 S
C2376 C1543 2.008 . S
C2371 C241 1.741 . S
C2392 C1547 2.013 . S
C2387 C511 1.968 . S
C2403 C571 1.921 . S
C2408 C1546 1.984 1_556 S
C2424 C1498 2.012 . S
C2419 C481 1.749 . S
C2440 C1545 2.009 . S
C2435 C601 1.745 . S
C2451 C691 1.921 . S
C2456 C1501 1.989 1_556 S
C2467 C661 1.727 . S
C2472 C1544 2.008 1_556 S
C2488 C1500 1.982 1_556 S
C2483 C541 1.660 . S
C2504 C1499 1.990 . S
C2499 C631 1.923 . S
C2520 C1593 2.006 . S
C2515 C751 1.972 . S
C2536 C1596 1.981 . S
C2531 C781 1.657 . S
C2547 C841 1.654 . S
C2552 C1592 1.985 . S
C2568 C1594 2.014 . S
C2563 C931 1.977 . S
C2584 C1590 2.008 . S
C2579 C991 1.966 . S
C2595 C1051 1.967 . S
C2600 C1595 2.001 . S
C2611 C1081 1.758 . S
C2616 C1591 2.006 . S
C2632 C1597 1.982 . S
C2627 C1141 1.652 . S
C2648 C1651 2.013 . S
C2643 C901 1.758 . S
C2659 C721 1.669 . S
C2664 C1690 1.987 . S
C2680 C1650 1.980 . S
C2675 C811 1.913 . S
C2696 C1692 2.007 . S
C2691 C871 1.965 . S
C2712 C1649 2.013 . S
C2707 C1021 1.766 . S
C2723 C1111 1.950 . S
C2728 C1691 1.998 . S
C2744 C1648 2.012 . S
C2739 C1171 1.970 . S
C2760 C1693 1.990 . S
C2755 C961 1.692 . S
C2776 C1697 2.007 . S
C2771 C1231 1.958 . S
C2787 C1291 1.930 . S
C2792 C1696 1.988 . S
C2808 C1644 2.014 . S
C2803 C1201 1.765 . S
C2819 C1321 1.675 . S
C2824 C1695 1.994 . S
C2840 C1647 1.998 . S
C2835 C1411 1.934 . S
C2856 C1694 2.008 . S
C2851 C1381 1.749 . S
C2872 C1645 1.982 . S
C2867 C1261 1.669 . S
C2883 C1351 1.941 . S
C2888 C1646 1.995 . S
