# Generated by pormake.
# Topology nom, (4,4)-cn, num edge types: 1
# Building blocks:
#     Node 0, Type 0, BuildingBlock: NAHDIM_clean_linker_0, # of connection points: 4
#     Node 1, Type 0, BuildingBlock: NAHDIM_clean_linker_0, # of connection points: 4
#     Node 2, Type 0, BuildingBlock: NAHDIM_clean_linker_0, # of connection points: 4
#     Node 3, Type 0, BuildingBlock: NAHDIM_clean_linker_0, # of connection points: 4
#     Node 4, Type 0, BuildingBlock: NAHDIM_clean_linker_0, # of connection points: 4
#     Node 5, Type 0, BuildingBlock: NAHDIM_clean_linker_0, # of connection points: 4
#     Node 6, Type 1, BuildingBlock: QUQFOY_clean_sbu_3, # of connection points: 4
#     Node 7, Type 1, BuildingBlock: QUQFOY_clean_sbu_3, # of connection points: 4
#     Node 8, Type 1, BuildingBlock: QUQFOY_clean_sbu_3, # of connection points: 4
#     Node 9, Type 1, BuildingBlock: QUQFOY_clean_sbu_3, # of connection points: 4
#     Node 10, Type 1, BuildingBlock: QUQFOY_clean_sbu_3, # of connection points: 4
#     Node 11, Type 1, BuildingBlock: QUQFOY_clean_sbu_3, # of connection points: 4
#     Edge 12, Type (0, 1), BuildingBlock: OJICUG_clean_linker_0, # of connection points: 2
#     Edge 13, Type (0, 1), BuildingBlock: OJICUG_clean_linker_0, # of connection points: 2
#     Edge 14, Type (0, 1), BuildingBlock: OJICUG_clean_linker_0, # of connection points: 2
#     Edge 15, Type (0, 1), BuildingBlock: OJICUG_clean_linker_0, # of connection points: 2
#     Edge 16, Type (0, 1), BuildingBlock: OJICUG_clean_linker_0, # of connection points: 2
#     Edge 17, Type (0, 1), BuildingBlock: OJICUG_clean_linker_0, # of connection points: 2
#     Edge 18, Type (0, 1), BuildingBlock: OJICUG_clean_linker_0, # of connection points: 2
#     Edge 19, Type (0, 1), BuildingBlock: OJICUG_clean_linker_0, # of connection points: 2
#     Edge 20, Type (0, 1), BuildingBlock: OJICUG_clean_linker_0, # of connection points: 2
#     Edge 21, Type (0, 1), BuildingBlock: OJICUG_clean_linker_0, # of connection points: 2
#     Edge 22, Type (0, 1), BuildingBlock: OJICUG_clean_linker_0, # of connection points: 2
#     Edge 23, Type (0, 1), BuildingBlock: OJICUG_clean_linker_0, # of connection points: 2
#     Edge 24, Type (0, 1), BuildingBlock: OJICUG_clean_linker_0, # of connection points: 2
#     Edge 25, Type (0, 1), BuildingBlock: OJICUG_clean_linker_0, # of connection points: 2
#     Edge 26, Type (0, 1), BuildingBlock: OJICUG_clean_linker_0, # of connection points: 2
#     Edge 27, Type (0, 1), BuildingBlock: OJICUG_clean_linker_0, # of connection points: 2
#     Edge 28, Type (0, 1), BuildingBlock: OJICUG_clean_linker_0, # of connection points: 2
#     Edge 29, Type (0, 1), BuildingBlock: OJICUG_clean_linker_0, # of connection points: 2
#     Edge 30, Type (0, 1), BuildingBlock: OJICUG_clean_linker_0, # of connection points: 2
#     Edge 31, Type (0, 1), BuildingBlock: OJICUG_clean_linker_0, # of connection points: 2
#     Edge 32, Type (0, 1), BuildingBlock: OJICUG_clean_linker_0, # of connection points: 2
#     Edge 33, Type (0, 1), BuildingBlock: OJICUG_clean_linker_0, # of connection points: 2
#     Edge 34, Type (0, 1), BuildingBlock: OJICUG_clean_linker_0, # of connection points: 2
#     Edge 35, Type (0, 1), BuildingBlock: OJICUG_clean_linker_0, # of connection points: 2
# Relax obj value: 0.048
# Max RMSD: 0.131
# Mean RMSD: 0.100
data_MOF--net-nom--node1-QUQFOY_clean_sbu_3--node2-NAHDIM_clean_linker_0--edge1-OJICUG_clean_linker_0
_symmetry_space_group_name_H-M    P1
_symmetry_Int_Tables_number       1
_symmetry_cell_setting            triclinic
loop_
_symmetry_equiv_pos_as_xyz
'x, y, z'
_cell_length_a     46.706814
_cell_length_b     47.919885
_cell_length_c     56.732498
_cell_angle_alpha  90.148924
_cell_angle_beta   90.221943
_cell_angle_gamma 120.06652
loop_
_atom_site_label
_atom_site_type_symbol
_atom_site_fract_x
_atom_site_fract_y
_atom_site_fract_z
_atom_type_partial_charge
C0 C 0.19291 0.60483 0.21491 0.0
C1 C 0.20161 0.62177 0.23901 0.0
C2 C 0.14657 0.60073 0.25665 0.0
C3 C 0.14111 0.56969 0.26171 0.0
C4 C 0.11057 0.5457 0.27046 0.0
C5 C 0.08492 0.55275 0.274 0.0
C6 C 0.09047 0.58405 0.26928 0.0
C7 C 0.12138 0.6077 0.26086 0.0
C8 C 0.10557 0.51269 0.27572 0.0
C9 C 0.06357 0.59236 0.27274 0.0
C10 C 0.94752 0.38749 0.15972 0.0
C11 C 0.93697 0.41015 0.17065 0.0
C12 C 0.94171 0.41999 0.21262 0.0
C13 C 0.94687 0.45139 0.21377 0.0
C14 C 0.96407 0.47175 0.23284 0.0
C15 C 0.97692 0.46056 0.25081 0.0
C16 C 0.97124 0.42861 0.24977 0.0
C17 C 0.95298 0.40848 0.23089 0.0
C18 C 0.96896 0.50535 0.23354 0.0
C19 C 0.9853 0.41599 0.26815 0.0
C20 C 0.84904 0.41209 0.37198 0.0
C21 C 0.86246 0.44538 0.36871 0.0
C22 C 0.89672 0.466 0.3675 0.0
C23 C 0.91794 0.45308 0.36989 0.0
C24 C 0.90464 0.42003 0.3751 0.0
C25 C 0.87019 0.39991 0.37618 0.0
C26 C 0.91018 0.50132 0.36248 0.0
C27 C 0.92672 0.40571 0.37816 0.0
C28 C 0.15889 0.64028 0.43566 0.0
C29 C 0.13731 0.60443 0.44125 0.0
C30 C 0.07993 0.57504 0.42799 0.0
C31 C 0.05648 0.58243 0.4194 0.0
C32 C 0.03235 0.56215 0.40303 0.0
C33 C 0.03131 0.53341 0.39567 0.0
C34 C 0.05347 0.52465 0.40569 0.0
C35 C 0.07771 0.54567 0.42172 0.0
C36 C 0.00869 0.57193 0.39306 0.0
C37 C 0.05214 0.49354 0.39896 0.0
C38 C 0.0518 0.52708 0.28164 0.0
C39 C 0.0302 0.50622 0.2644 0.0
C40 C -0.00218 0.48276 0.26994 0.0
C41 C 0.98636 0.48041 0.29328 0.0
C42 C 0.95335 0.45864 0.2992 0.0
C43 C 0.94244 0.4563 0.32226 0.0
C44 C 0.96423 0.47544 0.34036 0.0
C45 C 0.95334 0.47329 0.36386 0.0
C46 C 0.9757 0.49202 0.38156 0.0
C47 C 0.00876 0.51378 0.37626 0.0
C48 C 0.01985 0.5172 0.35269 0.0
C49 C 0.05258 0.53991 0.34657 0.0
C50 C 0.06313 0.54322 0.32332 0.0
C51 C 0.04145 0.5238 0.30533 0.0
C52 C 0.00849 0.50056 0.31112 0.0
C53 C -0.00244 0.49762 0.33476 0.0
C54 C 0.7693 0.36464 0.34492 0.0
C55 C 0.79356 0.39591 0.35772 0.0
O56 O 0.17533 0.62451 0.24746 0.0
O57 O 0.10452 0.59683 0.4421 0.0
O58 O 0.81604 0.39102 0.37044 0.0
O59 O 0.92691 0.4008 0.19363 0.0
H60 H 0.20762 0.6077 0.25163 0.0
H61 H 0.17157 0.57998 0.21643 0.0
H62 H 0.18633 0.61827 0.20211 0.0
H63 H 0.21423 0.60317 0.20799 0.0
H64 H 0.16029 0.56376 0.25877 0.0
H65 H 0.12584 0.6317 0.25704 0.0
H66 H 0.08708 0.49483 0.26322 0.0
H67 H 0.12885 0.51189 0.2742 0.0
H68 H 0.09565 0.50527 0.2938 0.0
H69 H 0.07136 0.61736 0.26716 0.0
H70 H 0.04116 0.57533 0.26254 0.0
H71 H 0.0566 0.58978 0.29162 0.0
H72 H 0.95936 0.43472 0.17033 0.0
H73 H 0.95535 0.39441 0.14117 0.0
H74 H 0.96877 0.38916 0.16979 0.0
H75 H 0.92697 0.36207 0.16013 0.0
H76 H 0.93756 0.45994 0.19967 0.0
H77 H 0.94872 0.3841 0.22974 0.0
H78 H 0.99513 0.52305 0.22942 0.0
H79 H 0.95288 0.50842 0.22057 0.0
H80 H 0.96372 0.51105 0.25144 0.0
H81 H 0.98281 0.39252 0.2629 0.0
H82 H 0.01188 0.43359 0.27134 0.0
H83 H 0.97207 0.4126 0.28503 0.0
H84 H 0.80633 0.41396 0.34353 0.0
H85 H 0.84628 0.45528 0.36652 0.0
H86 H 0.85959 0.37428 0.37917 0.0
H87 H 0.92229 0.50729 0.34497 0.0
H88 H 0.89055 0.50796 0.36256 0.0
H89 H 0.92924 0.51624 0.37583 0.0
H90 H 0.91289 0.38043 0.38452 0.0
H91 H 0.93829 0.40608 0.36102 0.0
H92 H 0.94697 0.42043 0.39084 0.0
H93 H 0.14125 0.59102 0.42673 0.0
H94 H 0.18535 0.64701 0.43475 0.0
H95 H 0.15151 0.6455 0.41832 0.0
H96 H 0.15599 0.65532 0.44933 0.0
H97 H 0.05806 0.60487 0.42481 0.0
H98 H 0.09502 0.5393 0.42921 0.0
H99 H 0.0101 0.5727 0.37352 0.0
H100 H 0.983 0.5537 0.3979 0.0
H101 H 0.0139 0.59586 0.3997 0.0
H102 H 0.06797 0.48819 0.41059 0.0
H103 H 0.02628 0.47314 0.39979 0.0
H104 H 0.06069 0.49517 0.38052 0.0
H105 H 0.0387 0.50837 0.24636 0.0
H106 H 0.93552 0.44328 0.28602 0.0
H107 H 0.91672 0.43911 0.3257 0.0
H108 H 0.96713 0.4901 0.39955 0.0
H109 H 0.0704 0.55556 0.35964 0.0
H110 H 0.08857 0.56112 0.31962 0.0
H111 H 0.75053 0.36783 0.33509 0.0
H112 H 0.78294 0.35812 0.33209 0.0
H113 H 0.75651 0.34439 0.3575 0.0
C114 C 0.34067 0.83685 0.57526 0.0
C115 C 0.3609 0.81997 0.57166 0.0
C116 C 0.4044 0.85983 0.54708 0.0
C117 C 0.43688 0.86647 0.55031 0.0
C118 C 0.46372 0.89693 0.54473 0.0
C119 C 0.45758 0.92106 0.53589 0.0
C120 C 0.42454 0.91428 0.53281 0.0
C121 C 0.39837 0.88341 0.53792 0.0
C122 C 0.49852 0.90317 0.54793 0.0
C123 C 0.41662 0.93935 0.52391 0.0
C124 C 0.55989 0.12256 0.65543 0.0
C125 C 0.54257 0.09925 0.63597 0.0
C126 C 0.55234 0.07016 0.60476 0.0
C127 C 0.52271 0.06174 0.59268 0.0
C128 C 0.51341 0.04211 0.57257 0.0
C129 C 0.53396 0.03033 0.56441 0.0
C130 C 0.56394 0.03894 0.57629 0.0
C131 C 0.57285 0.05896 0.59631 0.0
C132 C 0.4812 0.03343 0.56032 0.0
C133 C 0.58627 0.02666 0.56797 0.0
C134 C 0.59506 0.15448 0.43489 0.0
C135 C 0.56384 0.1405 0.44536 0.0
C136 C 0.54597 0.10731 0.44989 0.0
C137 C 0.56025 0.08803 0.44443 0.0
C138 C 0.59156 0.10213 0.43341 0.0
C139 C 0.60835 0.13522 0.42841 0.0
C140 C 0.51195 0.09299 0.46057 0.0
C141 C 0.6075 0.08239 0.42727 0.0
C142 C 0.39706 0.85045 0.38003 0.0
C143 C 0.42718 0.87463 0.36595 0.0
C144 C 0.44993 0.92866 0.38273 0.0
C145 C 0.43734 0.94631 0.3937 0.0
C146 C 0.45605 0.97001 0.41057 0.0
C147 C 0.48836 0.97647 0.41616 0.0
C148 C 0.50204 0.96016 0.40397 0.0
C149 C 0.48265 0.93638 0.38729 0.0
C150 C 0.44092 0.98735 0.42303 0.0
C151 C 0.5368 0.96729 0.40907 0.0
C152 C 0.48541 0.95352 0.52994 0.0
C153 C 0.50099 0.97538 0.54839 0.0
C154 C 0.52303 0.00796 0.54399 0.0
C155 C 0.53012 0.01917 0.52053 0.0
C156 C 0.55135 0.05196 0.51549 0.0
C157 C 0.55616 0.06307 0.49238 0.0
C158 C 0.53968 0.04184 0.47348 0.0
C159 C 0.54229 0.05315 0.45012 0.0
C160 C 0.52593 0.03127 0.43175 0.0
C161 C 0.50665 -0.00173 0.43609 0.0
C162 C 0.50323 0.98655 0.45934 0.0
C163 C 0.48333 0.95351 0.46432 0.0
C164 C 0.47831 0.94248 0.4874 0.0
C165 C 0.49291 0.96405 0.50636 0.0
C166 C 0.51467 0.99714 0.50166 0.0
C167 C 0.51955 0.00847 0.47812 0.0
C168 C 0.65839 0.22763 0.45235 0.0
C169 C 0.62089 0.20959 0.44862 0.0
O170 O 0.37884 0.82983 0.55094 0.0
O171 O 0.43004 0.9048 0.36756 0.0
O172 O 0.61287 0.18662 0.43109 0.0
O173 O 0.5617 0.08877 0.62457 0.0
H174 H 0.37837 0.82601 0.58677 0.0
H175 H 0.3574 0.86312 0.57806 0.0
H176 H 0.3246 0.83304 0.55968 0.0
H177 H 0.3249 0.82737 0.59116 0.0
H178 H 0.44111 0.84763 0.55692 0.0
H179 H 0.37307 0.87759 0.53478 0.0
H180 H 0.51113 0.92145 0.56206 0.0
H181 H 0.49907 0.88099 0.55276 0.0
H182 H 0.51278 0.91311 0.53145 0.0
H183 H 0.39062 0.93264 0.52766 0.0
H184 H 0.43331 0.96327 0.532 0.0
H185 H 0.42014 0.94171 0.50454 0.0
H186 H 0.51738 0.07907 0.64042 0.0
H187 H 0.54626 0.10973 0.67187 0.0
H188 H 0.58264 0.12103 0.65976 0.0
H189 H 0.56211 0.16511 0.64351 0.0
H190 H 0.50654 0.07025 0.59886 0.0
H191 H 0.59569 0.06562 0.60565 0.0
H192 H 0.48527 0.03838 0.54115 0.0
H193 H 0.46361 0.00726 0.56244 0.0
H194 H 0.4696 0.04696 0.56755 0.0
H195 H 0.60895 0.0358 0.57901 0.0
H196 H 0.57265 -0.00011 0.56834 0.0
H197 H 0.59363 0.0341 0.54944 0.0
H198 H 0.60938 0.1979 0.46568 0.0
H199 H 0.55347 0.15561 0.44983 0.0
H200 H 0.63243 0.14642 0.42013 0.0
H201 H 0.51317 0.08746 0.47941 0.0
H202 H 0.50209 0.10978 0.45958 0.0
H203 H 0.49435 0.0701 0.45152 0.0
H204 H 0.6334 0.09762 0.4212 0.0
H205 H 0.60738 0.06828 0.44281 0.0
H206 H 0.59304 0.065 0.41303 0.0
H207 H 0.44923 0.87479 0.37358 0.0
H208 H 0.39427 0.82605 0.37895 0.0
H209 H 0.4003 0.85792 0.39886 0.0
H210 H 0.37414 0.84929 0.37322 0.0
H211 H 0.41229 0.94062 0.38958 0.0
H212 H 0.49315 0.92399 0.37785 0.0
H213 H 0.43883 0.9818 0.44215 0.0
H214 H 0.4572 0.01381 0.42115 0.0
H215 H 0.41596 0.98039 0.41602 0.0
H216 H 0.54471 0.9543 0.39686 0.0
H217 H 0.55434 0.9936 0.40766 0.0
H218 H 0.53828 0.96008 0.42742 0.0
H219 H 0.49432 0.96735 0.56645 0.0
H220 H 0.5641 0.06947 0.52939 0.0
H221 H 0.5725 0.08861 0.48955 0.0
H222 H 0.52761 0.04009 0.41392 0.0
H223 H 0.47089 0.93583 0.45048 0.0
H224 H 0.46236 0.91687 0.49023 0.0
H225 H 0.67131 0.24009 0.43592 0.0
H226 H 0.66558 0.24573 0.46675 0.0
H227 H 0.6666 0.21032 0.45736 0.0
C228 C 0.56539 0.39321 0.76151 0.0
C229 C 0.57954 0.38996 0.73797 0.0
C230 C 0.55464 0.41034 0.70976 0.0
C231 C 0.58082 0.44231 0.70798 0.0
C232 C 0.5754 0.46654 0.69903 0.0
C233 C 0.54318 0.45869 0.69187 0.0
C234 C 0.51712 0.42623 0.69258 0.0
C235 C 0.52341 0.40241 0.70118 0.0
C236 C 0.60396 0.5007 0.69774 0.0
C237 C 0.48238 0.41677 0.685 0.0
C238 C 0.44923 0.55074 0.8204 0.0
C239 C 0.45431 0.53673 0.7985 0.0
C240 C 0.49114 0.55 0.76505 0.0
C241 C 0.46847 0.52342 0.75142 0.0
C242 C 0.47802 0.51555 0.73024 0.0
C243 C 0.51107 0.53437 0.72255 0.0
C244 C 0.53384 0.56158 0.73585 0.0
C245 C 0.52345 0.56924 0.75689 0.0
C246 C 0.45293 0.48639 0.71647 0.0
C247 C 0.56924 0.58201 0.72806 0.0
C248 C 0.45374 0.6102 0.60114 0.0
C249 C 0.43381 0.57818 0.60855 0.0
C250 C 0.44669 0.55742 0.61032 0.0
C251 C 0.4803 0.56904 0.60475 0.0
C252 C 0.50001 0.60077 0.59621 0.0
C253 C 0.4863 0.62089 0.5943 0.0
C254 C 0.42457 0.52336 0.6188 0.0
C255 C 0.53578 0.6137 0.58983 0.0
C256 C 0.49958 0.36754 0.539 0.0
C257 C 0.52036 0.40321 0.53261 0.0
C258 C 0.50131 0.44034 0.54211 0.0
C259 C 0.47251 0.43651 0.55238 0.0
C260 C 0.47385 0.45931 0.56853 0.0
C261 C 0.50474 0.48701 0.57379 0.0
C262 C 0.53347 0.49242 0.56165 0.0
C263 C 0.53152 0.46873 0.54609 0.0
C264 C 0.44254 0.45305 0.58075 0.0
C265 C 0.56644 0.52239 0.56601 0.0
C266 C 0.53608 0.48481 0.68616 0.0
C267 C 0.53166 0.50089 0.7051 0.0
C268 C 0.52189 0.52372 0.70156 0.0
C269 C 0.51755 0.53179 0.67842 0.0
C270 C 0.50822 0.55504 0.67427 0.0
C271 C 0.50189 0.5613 0.6515 0.0
C272 C 0.50404 0.54411 0.63209 0.0
C273 C 0.49507 0.54841 0.60911 0.0
C274 C 0.49705 0.53067 0.59025 0.0
C275 C 0.50735 0.50818 0.59376 0.0
C276 C 0.5166 0.50361 0.61659 0.0
C277 C 0.52689 0.48099 0.62078 0.0
C278 C 0.53441 0.47559 0.64345 0.0
C279 C 0.53105 0.49191 0.66288 0.0
C280 C 0.52159 0.51541 0.65902 0.0
C281 C 0.51458 0.52141 0.63583 0.0
C282 C 0.42598 0.66379 0.62195 0.0
C283 C 0.41728 0.62971 0.61445 0.0
O284 O 0.55832 0.38651 0.71963 0.0
O285 O 0.49959 0.41572 0.52925 0.0
O286 O 0.44259 0.63148 0.60072 0.0
O287 O 0.48277 0.55729 0.7862 0.0
H288 H 0.60392 0.41215 0.73589 0.0
H289 H 0.56532 0.41635 0.76195 0.0
H290 H 0.53954 0.37332 0.76388 0.0
H291 H 0.58087 0.3932 0.77643 0.0
H292 H 0.60557 0.44871 0.7134 0.0
H293 H 0.50356 0.37756 0.70218 0.0
H294 H 0.60104 0.51553 0.71156 0.0
H295 H 0.6282 0.50207 0.70045 0.0
H296 H 0.60407 0.51142 0.68038 0.0
H297 H 0.46435 0.39115 0.68898 0.0
H298 H 0.47427 0.43225 0.6939 0.0
H299 H 0.48183 0.42037 0.66573 0.0
H300 H 0.4509 0.51206 0.80049 0.0
H301 H 0.45105 0.536 0.83514 0.0
H302 H 0.47363 0.57297 0.82463 0.0
H303 H 0.40582 0.55218 0.81326 0.0
H304 H 0.44327 0.5084 0.75727 0.0
H305 H 0.54077 0.58978 0.76741 0.0
H306 H 0.45229 0.4929 0.69779 0.0
H307 H 0.46023 0.46764 0.71674 0.0
H308 H 0.42761 0.47586 0.72382 0.0
H309 H 0.58355 0.60326 0.73974 0.0
H310 H 0.58145 0.56721 0.72799 0.0
H311 H 0.56993 0.59048 0.70976 0.0
H312 H 0.41526 0.61662 0.63113 0.0
H313 H 0.40824 0.56929 0.61313 0.0
H314 H 0.50132 0.64549 0.58825 0.0
H315 H 0.43179 0.52106 0.63704 0.0
H316 H 0.39808 0.51659 0.61884 0.0
H317 H 0.42748 0.50599 0.60752 0.0
H318 H 0.54797 0.63915 0.58386 0.0
H319 H 0.54952 0.61213 0.60531 0.0
H320 H 0.53746 0.59871 0.57554 0.0
H321 H 0.53748 0.41532 0.5478 0.0
H322 H 0.51575 0.35693 0.54166 0.0
H323 H 0.48606 0.365 0.55565 0.0
H324 H 0.48119 0.35383 0.52491 0.0
H325 H 0.44927 0.41467 0.54875 0.0
H326 H 0.55361 0.47196 0.53742 0.0
H327 H 0.44583 0.45337 0.60016 0.0
H328 H 0.43712 0.47248 0.5763 0.0
H329 H 0.42089 0.42952 0.57554 0.0
H330 H 0.58489 0.52562 0.5524 0.0
H331 H 0.56357 0.54404 0.56626 0.0
H332 H 0.57617 0.52069 0.5835 0.0
H333 H 0.53418 0.4943 0.72297 0.0
H334 H 0.5055 0.56846 0.68862 0.0
H335 H 0.49464 0.57936 0.64937 0.0
H336 H 0.48919 0.53342 0.57281 0.0
H337 H 0.529 0.46695 0.60663 0.0
H338 H 0.54213 0.45788 0.64563 0.0
H339 H 0.43025 0.67937 0.60636 0.0
H340 H 0.40571 0.66297 0.63268 0.0
H341 H 0.44893 0.67485 0.63281 0.0
C342 C 0.18941 0.56656 0.92862 0.0
C343 C 0.20389 0.56953 0.90392 0.0
C344 C 0.1535 0.53819 0.88016 0.0
C345 C 0.14388 0.5617 0.87951 0.0
C346 C 0.11284 0.55427 0.87059 0.0
C347 C 0.09078 0.52263 0.86253 0.0
C348 C 0.10077 0.49919 0.86244 0.0
C349 C 0.13229 0.50753 0.87096 0.0
C350 C 0.10317 0.57998 0.87055 0.0
C351 C 0.07786 0.46504 0.85417 0.0
C352 C 0.89482 0.41536 0.98778 0.0
C353 C 0.91943 0.42292 0.96882 0.0
C354 C 0.94541 0.46131 0.93682 0.0
C355 C 0.95366 0.44131 0.92388 0.0
C356 C 0.97054 0.45156 0.90251 0.0
C357 C 0.98011 0.48277 0.89411 0.0
C358 C 0.97181 0.50301 0.90698 0.0
C359 C 0.95425 0.49184 0.92814 0.0
C360 C 0.97905 0.42928 0.8893 0.0
C361 C 0.98209 0.53655 0.89858 0.0
C362 C 0.84346 0.43152 0.77396 0.0
C363 C 0.85597 0.41122 0.78 0.0
C364 C 0.89013 0.42309 0.78093 0.0
C365 C 0.91217 0.45604 0.77613 0.0
C366 C 0.89964 0.47611 0.76887 0.0
C367 C 0.86532 0.4634 0.76763 0.0
C368 C 0.90263 0.40067 0.78788 0.0
C369 C 0.9225 0.51122 0.7633 0.0
C370 C 0.14361 0.49932 0.71234 0.0
C371 C 0.1255 0.51374 0.69911 0.0
C372 C 0.06834 0.48915 0.71134 0.0
C373 C 0.04694 0.45992 0.72216 0.0
C374 C 0.02408 0.45795 0.73895 0.0
C375 C 0.02226 0.48585 0.74448 0.0
C376 C 0.04207 0.51486 0.73214 0.0
C377 C 0.0651 0.51625 0.7157 0.0
C378 C 0.00293 0.42649 0.75154 0.0
C379 C 0.03986 0.54467 0.73706 0.0
C380 C 0.05602 0.51307 0.85711 0.0
C381 C 0.03499 0.5066 0.87624 0.0
C382 C 0.00126 0.4948 0.87297 0.0
C383 C 0.98805 0.49034 0.84995 0.0
C384 C 0.95429 0.47911 0.84606 0.0
C385 C 0.9413 0.47341 0.82331 0.0
C386 C 0.96142 0.47783 0.80364 0.0
C387 C 0.94806 0.46999 0.78056 0.0
C388 C 0.96854 0.47378 0.7615 0.0
C389 C 0.00232 0.48543 0.76485 0.0
C390 C 0.01633 0.49415 0.78771 0.0
C391 C 0.05037 0.50643 0.79163 0.0
C392 C 0.06366 0.51364 0.81429 0.0
C393 C 0.04328 0.50805 0.83391 0.0
C394 C 0.00909 0.49651 0.83034 0.0
C395 C 0.99567 0.48984 0.80719 0.0
C396 C 0.76031 0.40367 0.795 0.0
C397 C 0.78724 0.39613 0.78777 0.0
O398 O 0.18248 0.54364 0.88992 0.0
O399 O 0.09227 0.49074 0.69707 0.0
O400 O 0.81063 0.42138 0.77443 0.0
O401 O 0.92904 0.45199 0.95765 0.0
H402 H 0.2082 0.59242 0.89584 0.0
H403 H 0.16628 0.5677 0.92765 0.0
H404 H 0.18361 0.5433 0.93684 0.0
H405 H 0.20726 0.58671 0.94007 0.0
H406 H 0.16003 0.58574 0.88625 0.0
H407 H 0.14007 0.48969 0.87132 0.0
H408 H 0.0851 0.57503 0.88485 0.0
H409 H 0.12481 0.60447 0.87341 0.0
H410 H 0.09105 0.57965 0.85358 0.0
H411 H 0.08803 0.44892 0.85785 0.0
H412 H 0.05342 0.45501 0.86284 0.0
H413 H 0.07376 0.4649 0.83489 0.0
H414 H 0.94077 0.41965 0.97355 0.0
H415 H 0.9079 0.41524 0.00448 0.0
H416 H 0.89534 0.43857 0.99218 0.0
H417 H 0.85215 0.37412 0.97503 0.0
H418 H 0.9473 0.4177 0.93038 0.0
H419 H 0.94778 0.50711 0.93822 0.0
H420 H 0.97273 0.42832 0.87032 0.0
H421 H 0.00607 0.43869 0.8907 0.0
H422 H 0.96595 0.40438 0.89641 0.0
H423 H 0.97316 0.5491 0.91037 0.0
H424 H 0.0095 0.55102 0.89764 0.0
H425 H 0.97228 0.5354 0.88053 0.0
H426 H 0.79877 0.39409 0.80444 0.0
H427 H 0.83922 0.3862 0.78422 0.0
H428 H 0.85536 0.47869 0.76262 0.0
H429 H 0.91243 0.40627 0.80618 0.0
H430 H 0.88278 0.37496 0.78709 0.0
H431 H 0.92315 0.40411 0.77619 0.0
H432 H 0.9088 0.52368 0.75812 0.0
H433 H 0.93818 0.5237 0.77893 0.0
H434 H 0.93925 0.51337 0.74871 0.0
H435 H 0.12891 0.53491 0.70956 0.0
H436 H 0.17038 0.51737 0.71397 0.0
H437 H 0.13328 0.49219 0.73035 0.0
H438 H 0.1407 0.4776 0.70304 0.0
H439 H 0.04933 0.43903 0.71824 0.0
H440 H 0.08089 0.53855 0.70651 0.0
H441 H 0.00849 0.42977 0.77073 0.0
H442 H 0.97639 0.41889 0.74921 0.0
H443 H 0.00702 0.40692 0.74495 0.0
H444 H 0.05388 0.56402 0.72404 0.0
H445 H 0.01359 0.53865 0.73686 0.0
H446 H 0.04998 0.55401 0.75492 0.0
H447 H 0.04477 0.50932 0.89402 0.0
H448 H 0.93756 0.47459 0.86058 0.0
H449 H 0.91512 0.46487 0.82141 0.0
H450 H 0.95793 0.46682 0.74394 0.0
H451 H 0.06717 0.51048 0.77726 0.0
H452 H 0.08999 0.52301 0.81629 0.0
H453 H 0.74817 0.40702 0.77923 0.0
H454 H 0.74129 0.38379 0.80585 0.0
H455 H 0.7714 0.42621 0.80565 0.0
C456 C 0.42147 0.82546 0.87794 0.0
C457 C 0.42313 0.81573 0.90342 0.0
C458 C 0.45633 0.86755 0.92416 0.0
C459 C 0.43157 0.87609 0.92507 0.0
C460 C 0.43835 0.90593 0.93443 0.0
C461 C 0.47063 0.92797 0.94261 0.0
C462 C 0.49548 0.91927 0.94202 0.0
C463 C 0.48777 0.88896 0.93309 0.0
C464 C 0.41114 0.91421 0.935 0.0
C465 C 0.53038 0.94207 0.95033 0.0
C466 C 0.58276 0.11854 0.82158 0.0
C467 C 0.57444 0.09777 0.84276 0.0
C468 C 0.53382 0.07412 0.87401 0.0
C469 C 0.55444 0.06812 0.88871 0.0
C470 C 0.54237 0.05025 0.90939 0.0
C471 C 0.50878 0.0376 0.91546 0.0
C472 C 0.48804 0.04414 0.9011 0.0
C473 C 0.50097 0.06264 0.8806 0.0
C474 C 0.56536 0.04383 0.92425 0.0
C475 C 0.45214 0.0309 0.90715 0.0
C476 C 0.55464 0.16073 0.04672 0.0
C477 C 0.57543 0.15195 0.03513 0.0
C478 C 0.56459 0.11952 0.02989 0.0
C479 C 0.53181 0.09561 0.0356 0.0
C480 C 0.51098 0.10448 0.04755 0.0
C481 C 0.52297 0.13696 0.05336 0.0
C482 C 0.58823 0.11098 0.01823 0.0
C483 C 0.47595 0.07974 0.05394 0.0
C484 C 0.52881 0.88068 0.09848 0.0
C485 C 0.50716 0.89533 0.10441 0.0
C486 C 0.52253 0.94964 0.09309 0.0
C487 C 0.5498 0.97435 0.08169 0.0
C488 C 0.54589 0.99446 0.06571 0.0
C489 C 0.51397 0.99024 0.06178 0.0
C490 C 0.48671 0.96691 0.07479 0.0
C491 C 0.49121 0.94648 0.09014 0.0
C492 C 0.5757 0.01945 0.05245 0.0
C493 C 0.45272 0.96288 0.07189 0.0
C494 C 0.47913 0.96121 0.94936 0.0
C495 C 0.4847 0.98276 0.93106 0.0
C496 C 0.49525 0.01513 0.9356 0.0
C497 C 0.49865 0.02619 0.95909 0.0
C498 C 0.5076 0.05824 0.96426 0.0
C499 C 0.51304 0.06946 0.98743 0.0
C500 C 0.51107 0.04939 0.00616 0.0
C501 C 0.51953 0.06129 0.02952 0.0
C502 C 0.51851 0.04095 0.04751 0.0
C503 C 0.50914 0.00884 0.04289 0.0
C504 C 0.49936 0.99613 0.01985 0.0
C505 C 0.4889 0.96364 0.01469 0.0
C506 C 0.4808 0.95176 0.99177 0.0
C507 C 0.48431 0.97224 0.97298 0.0
C508 C 0.4941 0.00488 0.97783 0.0
C509 C 0.50102 0.01668 0.00135 0.0
C510 C 0.56863 0.2405 0.03774 0.0
C511 C 0.58213 0.21734 0.03636 0.0
O512 O 0.45137 0.8394 0.91458 0.0
O513 O 0.52691 0.92849 0.10622 0.0
O514 O 0.56445 0.19196 0.05163 0.0
O515 O 0.54472 0.09034 0.85332 0.0
H516 H 0.40075 0.81217 0.91288 0.0
H517 H 0.41934 0.84751 0.8777 0.0
H518 H 0.44409 0.83054 0.86811 0.0
H519 H 0.39946 0.80588 0.86877 0.0
H520 H 0.40703 0.86 0.91827 0.0
H521 H 0.50663 0.88211 0.93245 0.0
H522 H 0.41577 0.93237 0.92121 0.0
H523 H 0.38637 0.89278 0.93174 0.0
H524 H 0.41091 0.92497 0.95232 0.0
H525 H 0.54784 0.93392 0.94485 0.0
H526 H 0.53935 0.96667 0.94338 0.0
H527 H 0.53085 0.94361 0.96985 0.0
H528 H 0.57745 0.07621 0.84063 0.0
H529 H 0.58248 0.10303 0.80653 0.0
H530 H 0.55926 0.11789 0.81593 0.0
H531 H 0.62563 0.16124 0.83191 0.0
H532 H 0.57998 0.07693 0.88407 0.0
H533 H 0.48523 0.06747 0.86927 0.0
H534 H 0.56453 0.05025 0.94295 0.0
H535 H 0.55717 0.01776 0.92349 0.0
H536 H 0.5914 0.05759 0.91816 0.0
H537 H 0.43972 0.03974 0.89502 0.0
H538 H 0.43896 0.00415 0.90626 0.0
H539 H 0.45001 0.03777 0.9255 0.0
H540 H 0.57814 0.20815 0.01785 0.0
H541 H 0.60027 0.17035 0.03046 0.0
H542 H 0.50727 0.1441 0.06247 0.0
H543 H 0.58172 0.10576 -0.00072 0.0
H544 H 0.61427 0.13099 0.01952 0.0
H545 H 0.58649 0.0891 0.0263 0.0
H546 H 0.46181 0.09102 0.06071 0.0
H547 H 0.46279 0.06464 0.03832 0.0
H548 H 0.47633 0.06354 0.06773 0.0
H549 H 0.48923 0.8887 0.08948 0.0
H550 H 0.51347 0.85399 0.09727 0.0
H551 H 0.54097 0.88993 0.0812 0.0
H552 H 0.54839 0.88719 0.11207 0.0
H553 H 0.57392 0.97677 0.08446 0.0
H554 H 0.47031 0.92782 0.09962 0.0
H555 H 0.5709 0.0162 0.03317 0.0
H556 H 0.58043 0.0439 0.05719 0.0
H557 H 0.59833 0.0182 0.05646 0.0
H558 H 0.4354 0.94719 0.08572 0.0
H559 H 0.45422 0.98675 0.07251 0.0
H560 H 0.44242 0.95191 0.05441 0.0
H561 H 0.48263 0.9746 0.91293 0.0
H562 H 0.51049 0.07495 0.9504 0.0
H563 H 0.51976 0.09434 0.99038 0.0
H564 H 0.52635 0.05057 0.06518 0.0
H565 H 0.48691 0.94699 0.0283 0.0
H566 H 0.47273 0.92653 0.98886 0.0
H567 H 0.57133 0.25031 0.0559 0.0
H568 H 0.58202 0.26083 0.0253 0.0
H569 H 0.54197 0.22759 0.03286 0.0
C570 C 0.62398 0.43365 0.04943 0.0
C571 C 0.63296 0.43133 0.07511 0.0
C572 C 0.61219 0.46239 0.09626 0.0
C573 C 0.57837 0.43904 0.09467 0.0
C574 C 0.55413 0.44585 0.10263 0.0
C575 C 0.56382 0.47669 0.11203 0.0
C576 C 0.59784 0.50007 0.11397 0.0
C577 C 0.62154 0.49236 0.10631 0.0
C578 C 0.5181 0.42028 0.10055 0.0
C579 C 0.60929 0.53344 0.12365 0.0
C580 C 0.48337 0.58815 0.98793 0.0
C581 C 0.49948 0.58002 0.0072 0.0
C582 C 0.48391 0.54286 0.04035 0.0
C583 C 0.51328 0.56183 0.05314 0.0
C584 C 0.51921 0.55095 0.07446 0.0
C585 C 0.4957 0.52011 0.0829 0.0
C586 C 0.46591 0.50107 0.07028 0.0
C587 C 0.46025 0.51291 0.04922 0.0
C588 C 0.55127 0.57203 0.0875 0.0
C589 C 0.44061 0.46792 0.07869 0.0
C590 C 0.42456 0.57641 0.21207 0.0
C591 C 0.45648 0.59395 0.20282 0.0
C592 C 0.47528 0.57904 0.19869 0.0
C593 C 0.4612 0.5456 0.20314 0.0
C594 C 0.42916 0.52809 0.21299 0.0
C595 C 0.41144 0.54397 0.21773 0.0
C596 C 0.51 0.59902 0.18936 0.0
C597 C 0.41336 0.49252 0.21809 0.0
C598 C 0.61691 0.45961 0.26132 0.0
C599 C 0.58912 0.45404 0.27824 0.0
C600 C 0.56699 0.48763 0.26439 0.0
C601 C 0.58042 0.51857 0.25507 0.0
C602 C 0.5627 0.52584 0.2386 0.0
C603 C 0.53052 0.50158 0.23181 0.0
C604 C 0.51588 0.4709 0.24253 0.0
C605 C 0.53433 0.4642 0.25876 0.0
C606 C 0.57885 0.55893 0.22769 0.0
C607 C 0.48122 0.4449 0.23615 0.0
C608 C 0.53849 0.48549 0.11797 0.0
C609 C 0.52486 0.49402 0.09938 0.0
C610 C 0.50426 0.50679 0.1035 0.0
C611 C 0.49624 0.51055 0.12683 0.0
C612 C 0.47572 0.52351 0.13162 0.0
C613 C 0.46945 0.52865 0.15473 0.0
C614 C 0.48408 0.5217 0.17388 0.0
C615 C 0.47987 0.52896 0.19739 0.0
C616 C 0.49476 0.52164 0.21594 0.0
C617 C 0.51383 0.5072 0.21168 0.0
C618 C 0.51846 0.49989 0.18837 0.0
C619 C 0.53786 0.48565 0.18354 0.0
C620 C 0.54372 0.48009 0.1605 0.0
C621 C 0.53066 0.48881 0.14142 0.0
C622 C 0.50984 0.50184 0.14588 0.0
C623 C 0.50384 0.50752 0.1694 0.0
C624 C 0.36067 0.58774 0.19411 0.0
C625 C 0.39824 0.60524 0.19739 0.0
O626 O 0.63659 0.45744 0.08804 0.0
O627 O 0.58606 0.48135 0.27899 0.0
O628 O 0.40581 0.59031 0.21525 0.0
O629 O 0.47763 0.5525 0.01943 0.0
H630 H 0.61309 0.40856 0.08287 0.0
H631 H 0.59976 0.43269 0.04847 0.0
H632 H 0.643 0.45664 0.04141 0.0
H633 H 0.62203 0.41315 0.03893 0.0
H634 H 0.57049 0.41558 0.08705 0.0
H635 H 0.64764 0.51012 0.10757 0.0
H636 H 0.50623 0.42708 0.08644 0.0
H637 H 0.51477 0.39621 0.09618 0.0
H638 H 0.50504 0.41851 0.11728 0.0
H639 H 0.6361 0.55009 0.12068 0.0
H640 H 0.5952 0.54391 0.11543 0.0
H641 H 0.60474 0.53198 0.1429 0.0
H642 H 0.52282 0.58043 0.00237 0.0
H643 H 0.49493 0.58559 0.97127 0.0
H644 H 0.45864 0.56593 0.98447 0.0
H645 H 0.48818 0.63233 -0.00115 0.0
H646 H 0.53192 0.58503 0.04653 0.0
H647 H 0.43763 0.49848 0.03927 0.0
H648 H 0.54672 0.57254 0.10665 0.0
H649 H 0.56789 0.5619 0.08526 0.0
H650 H 0.56423 0.59716 0.08082 0.0
H651 H 0.4183 0.45644 0.06717 0.0
H652 H 0.45181 0.45224 0.07917 0.0
H653 H 0.43294 0.46947 0.09692 0.0
H654 H 0.40898 0.60328 0.18034 0.0
H655 H 0.46661 0.6193 0.19893 0.0
H656 H 0.38678 0.53086 0.22506 0.0
H657 H 0.51016 0.59402 0.17027 0.0
H658 H 0.51953 0.62527 0.19162 0.0
H659 H 0.52712 0.59272 0.19841 0.0
H660 H 0.38698 0.48174 0.22319 0.0
H661 H 0.41495 0.47949 0.20238 0.0
H662 H 0.42694 0.48881 0.23272 0.0
H663 H 0.56593 0.43279 0.27175 0.0
H664 H 0.61992 0.43804 0.2607 0.0
H665 H 0.6108 0.46403 0.24327 0.0
H666 H 0.6407 0.48088 0.26694 0.0
H667 H 0.60542 0.53666 0.26001 0.0
H668 H 0.52319 0.44072 0.26696 0.0
H669 H 0.58212 0.55694 0.20849 0.0
H670 H 0.56266 0.56957 0.22979 0.0
H671 H 0.6034 0.57556 0.23569 0.0
H672 H 0.47217 0.42349 0.24774 0.0
H673 H 0.46401 0.45451 0.23738 0.0
H674 H 0.48071 0.43713 0.21763 0.0
H675 H 0.53181 0.4923 0.08142 0.0
H676 H 0.46447 0.52999 0.11754 0.0
H677 H 0.45347 0.5387 0.15738 0.0
H678 H 0.49194 0.52774 0.23389 0.0
H679 H 0.54912 0.47899 0.19749 0.0
H680 H 0.55907 0.46934 0.1578 0.0
H681 H 0.34846 0.589 0.21054 0.0
H682 H 0.35383 0.59867 0.17946 0.0
H683 H 0.35135 0.56199 0.1897 0.0
C684 C 0.70778 0.42656 0.4098 0.0
O685 O 0.71146 0.45384 0.41525 0.0
Cd686 Cd 0.66165 0.45567 0.42426 0.0
O687 O 0.67923 0.40172 0.40958 0.0
Cd688 Cd 0.62105 0.38186 0.41645 0.0
C689 C 0.6204 0.42752 0.37177 0.0
O690 O 0.62375 0.41374 0.45079 0.0
O691 O 0.57674 0.38787 0.43208 0.0
O692 O 0.61878 0.34013 0.44105 0.0
C693 C 0.59292 0.40422 0.45 0.0
O694 O 0.63662 0.45112 0.38582 0.0
C695 C 0.6034 0.31706 0.42661 0.0
O696 O 0.61213 0.39887 0.37783 0.0
O697 O 0.59446 0.32356 0.40715 0.0
C698 C 0.28961 0.58064 0.57124 0.0
O699 O 0.26741 0.55227 0.56562 0.0
Cd700 Cd 0.2129 0.5432 0.55511 0.0
O701 O 0.28297 0.6032 0.57244 0.0
Cd702 Cd 0.23666 0.61261 0.56813 0.0
C703 C 0.18776 0.55597 0.60769 0.0
O704 O 0.2153 0.58568 0.53008 0.0
O705 O 0.18641 0.60278 0.54856 0.0
O706 O 0.27462 0.66515 0.55211 0.0
C707 C 0.19167 0.59169 0.52975 0.0
O708 O 0.18331 0.53517 0.59198 0.0
C709 C 0.27314 0.68127 0.56934 0.0
O710 O 0.20748 0.58581 0.60406 0.0
O711 O 0.25385 0.6655 0.58608 0.0
C712 C 0.70825 0.27454 0.7421 0.0
O713 O 0.71305 0.25268 0.7337 0.0
Cd714 Cd 0.66379 0.20241 0.72299 0.0
O715 O 0.67926 0.27017 0.74391 0.0
Cd716 Cd 0.62095 0.23347 0.73649 0.0
C717 C 0.62376 0.18313 0.77623 0.0
O718 O 0.62688 0.21229 0.69858 0.0
O719 O 0.57795 0.18987 0.7142 0.0
O720 O 0.62728 0.28422 0.7245 0.0
C721 C 0.59608 0.19226 0.69689 0.0
O722 O 0.6402 0.17779 0.76085 0.0
C723 C 0.60269 0.28174 0.73568 0.0
O724 O 0.61423 0.20339 0.7726 0.0
O725 O 0.58527 0.25581 0.74707 0.0
C726 C 0.33061 0.57552 0.91286 0.0
O727 O 0.33292 0.55246 0.92178 0.0
Cd728 Cd 0.38724 0.55942 0.92641 0.0
O729 O 0.35649 0.60177 0.90751 0.0
Cd730 Cd 0.41701 0.63249 0.90779 0.0
C731 C 0.4153 0.57849 0.869 0.0
O732 O 0.41882 0.61103 0.94572 0.0
O733 O 0.46635 0.64098 0.92921 0.0
O734 O 0.40154 0.67157 0.91853 0.0
C735 C 0.45004 0.62489 0.94693 0.0
O736 O 0.40382 0.55828 0.88576 0.0
C737 C 0.42292 0.6945 0.9062 0.0
O738 O 0.42214 0.60753 0.87178 0.0
O739 O 0.44285 0.68907 0.89452 0.0
C740 C 0.75342 0.42477 0.07077 0.0
O741 O 0.78088 0.44894 0.06502 0.0
Cd742 Cd 0.82623 0.44013 0.05585 0.0
O743 O 0.75033 0.39692 0.07156 0.0
Cd744 Cd 0.77807 0.36605 0.06505 0.0
C745 C 0.83945 0.40556 0.10494 0.0
O746 O 0.80624 0.39454 0.02953 0.0
O747 O 0.81946 0.36028 0.04366 0.0
O748 O 0.73302 0.32714 0.04128 0.0
C749 C 0.82198 0.37944 0.02734 0.0
O750 O 0.84868 0.42967 0.09137 0.0
C751 C 0.71938 0.30552 0.05677 0.0
O752 O 0.81308 0.37896 0.10052 0.0
O753 O 0.73397 0.31102 0.07666 0.0
C754 C 0.31955 0.7466 0.22552 0.0
O755 O 0.31828 0.77121 0.21885 0.0
Cd756 Cd 0.37018 0.82109 0.21475 0.0
O757 O 0.34736 0.74823 0.22818 0.0
Cd758 Cd 0.40703 0.78314 0.22412 0.0
C759 C 0.40659 0.82881 0.26905 0.0
O760 O 0.40656 0.81242 0.18939 0.0
O761 O 0.4537 0.83081 0.20748 0.0
O762 O 0.40764 0.74153 0.20078 0.0
C763 C 0.43763 0.83173 0.18966 0.0
O764 O 0.39163 0.83769 0.25476 0.0
C765 C 0.42168 0.73293 0.2159 0.0
O766 O 0.41476 0.80824 0.26279 0.0
O767 O 0.43065 0.74875 0.23516 0.0
C768 C 0.26315 0.65937 0.24199 0.0
C769 C 0.23176 0.65492 0.23675 0.0
H770 H 0.31524 0.69169 0.24279 0.0
C771 C 0.22925 0.68104 0.22791 0.0
H772 H 0.26584 0.63955 0.24846 0.0
C773 C 0.25764 0.71111 0.22461 0.0
C774 C 0.28907 0.71545 0.22979 0.0
H775 H 0.20534 0.67808 0.22331 0.0
H776 H 0.25501 0.73074 0.21766 0.0
C777 C 0.29143 0.68926 0.23864 0.0
C778 C 0.60802 0.24138 0.41859 0.0
C779 C 0.60948 0.23311 0.44219 0.0
H780 H 0.60363 0.27407 0.39508 0.0
C781 C 0.60444 0.25021 0.46028 0.0
H782 H 0.61232 0.22897 0.40426 0.0
C783 C 0.6 0.2762 0.45502 0.0
C784 C 0.60016 0.28545 0.43155 0.0
H785 H 0.60576 0.24455 0.47858 0.0
H786 H 0.59802 0.29005 0.46941 0.0
C787 C 0.60294 0.2671 0.41331 0.0
C788 C 0.35692 0.58657 0.6107 0.0
C789 C 0.38486 0.61322 0.60096 0.0
H790 H 0.3045 0.55438 0.60814 0.0
C791 C 0.38167 0.62563 0.57932 0.0
H792 H 0.35872 0.57651 0.62734 0.0
C793 C 0.35065 0.61334 0.56863 0.0
C794 C 0.32258 0.58775 0.57899 0.0
H795 H 0.40287 0.64591 0.57131 0.0
H796 H 0.34833 0.6247 0.55281 0.0
C797 C 0.32603 0.57371 0.59965 0.0
C798 C 0.76665 0.33632 0.78494 0.0
C799 C 0.77228 0.36489 0.77395 0.0
H800 H 0.74253 0.28471 0.78276 0.0
C801 C 0.7609 0.36342 0.75076 0.0
H802 H 0.77495 0.33682 0.80287 0.0
C803 C 0.7424 0.33373 0.73938 0.0
C804 C 0.7355 0.30515 0.75083 0.0
H805 H 0.76475 0.38507 0.74198 0.0
H806 H 0.73183 0.33289 0.72217 0.0
C807 C 0.7485 0.30663 0.77339 0.0
C808 C 0.39656 0.75667 0.91349 0.0
C809 C 0.42346 0.78435 0.90397 0.0
H810 H 0.37549 0.70679 0.92174 0.0
C811 C 0.45046 0.78235 0.89506 0.0
H812 H 0.37539 0.75745 0.92043 0.0
C813 C 0.45042 0.75313 0.89558 0.0
C814 C 0.42355 0.72557 0.9053 0.0
H815 H 0.47158 0.80341 0.88771 0.0
H816 H 0.47147 0.75218 0.8886 0.0
C817 C 0.39668 0.72768 0.91426 0.0
C818 C 0.66418 0.40144 0.08001 0.0
C819 C 0.66492 0.43066 0.07605 0.0
H820 H 0.69152 0.37686 0.08196 0.0
C821 C 0.69545 0.45863 0.07169 0.0
H822 H 0.64099 0.3795 0.08324 0.0
C823 C 0.72462 0.45719 0.07085 0.0
C824 C 0.72369 0.42772 0.07428 0.0
H825 H 0.6966 0.48143 0.06842 0.0
H826 H 0.74765 0.47891 0.06687 0.0
C827 C 0.69321 0.40001 0.07927 0.0
C828 C 0.32583 0.76659 0.59206 0.0
C829 C 0.33785 0.78381 0.57095 0.0
H830 H 0.29539 0.72051 0.60812 0.0
C831 C 0.32676 0.76716 0.54936 0.0
H832 H 0.33349 0.77895 0.6089 0.0
C833 C 0.30553 0.73387 0.54893 0.0
C834 C 0.294 0.71664 0.57002 0.0
H835 H 0.3347 0.77974 0.53273 0.0
H836 H 0.29802 0.72159 0.53205 0.0
C837 C 0.3039 0.7333 0.59161 0.0
C838 C 0.61563 0.36569 0.73043 0.0
C839 C 0.58501 0.36142 0.73774 0.0
H840 H 0.64506 0.34389 0.72404 0.0
C841 C 0.55955 0.33022 0.7436 0.0
H842 H 0.63549 0.38927 0.72536 0.0
C843 C 0.56516 0.30415 0.74311 0.0
C844 C 0.59598 0.3087 0.73607 0.0
H845 H 0.53534 0.32595 0.74858 0.0
H846 H 0.54534 0.28045 0.74798 0.0
C847 C 0.62102 0.33964 0.72955 0.0
C848 C 0.2661 0.59944 0.90158 0.0
C849 C 0.23658 0.57045 0.90552 0.0
H850 H 0.31875 0.62365 0.90056 0.0
C851 C 0.23803 0.54272 0.91156 0.0
H852 H 0.26572 0.62121 0.89708 0.0
C853 C 0.26853 0.54408 0.91372 0.0
C854 C 0.29806 0.57318 0.9098 0.0
H855 H 0.21554 0.52009 0.91478 0.0
H856 H 0.26896 0.52244 0.91856 0.0
C857 C 0.29647 0.60076 0.90357 0.0
C858 C 0.64172 0.24817 0.02393 0.0
C859 C 0.61869 0.23502 0.04226 0.0
H860 H 0.69192 0.28022 0.01427 0.0
C861 C 0.63001 0.24194 0.06575 0.0
H862 H 0.63364 0.24338 0.0057 0.0
C863 C 0.66358 0.26291 0.07071 0.0
C864 C 0.68614 0.27765 0.05225 0.0
H865 H 0.61268 0.23238 0.0802 0.0
H866 H 0.6714 0.26927 0.08888 0.0
C867 C 0.67506 0.26923 0.02886 0.0
C868 C 0.41298 0.65141 0.22627 0.0
C869 C 0.41117 0.64047 0.20296 0.0
H870 H 0.41901 0.69013 0.24872 0.0
C871 C 0.41732 0.66192 0.18431 0.0
H872 H 0.40786 0.63528 0.241 0.0
C873 C 0.4232 0.69299 0.18872 0.0
C874 C 0.42334 0.70339 0.2119 0.0
H875 H 0.41578 0.65401 0.1662 0.0
H876 H 0.42605 0.70839 0.1739 0.0
C877 C 0.41947 0.68282 0.23071 0.0
C878 C 0.77576 0.43591 0.36978 0.0
C879 C 0.77553 0.40689 0.37401 0.0
H880 H 0.75502 0.46565 0.37866 0.0
C881 C 0.75687 0.38735 0.39283 0.0
H882 H 0.79017 0.45154 0.35549 0.0
C883 C 0.73653 0.39519 0.40578 0.0
C884 C 0.73525 0.42318 0.40061 0.0
H885 H 0.75672 0.36517 0.39674 0.0
H886 H 0.72061 0.37859 0.41914 0.0
C887 C 0.75598 0.44417 0.38316 0.0
C888 C 0.13836 0.60469 0.4859 0.0
C889 C 0.14778 0.5969 0.4645 0.0
H890 H 0.14438 0.60857 0.52335 0.0
C891 C 0.1699 0.58508 0.46491 0.0
H892 H 0.1217 0.61426 0.48606 0.0
C893 C 0.18304 0.58194 0.48624 0.0
C894 C 0.1745 0.5908 0.50757 0.0
H895 H 0.17781 0.57923 0.44863 0.0
H896 H 0.20078 0.57366 0.48593 0.0
C897 C 0.15144 0.6015 0.50723 0.0
C898 C 0.58949 0.15471 0.62403 0.0
C899 C 0.544 0.12626 0.62523 0.0
H900 H 0.63397 0.19037 0.65299 0.0
C901 C 0.51643 0.13106 0.64631 0.0
H902 H 0.60472 0.15349 0.6102 0.0
C903 C 0.53668 0.15334 0.67257 0.0
C904 C 0.58121 0.17449 0.67512 0.0
H905 H 0.4898 0.116 0.64545 0.0
H906 H 0.52193 0.15391 0.687 0.0
C907 C 0.60736 0.1763 0.65111 0.0
C908 C 0.44137 0.5822 0.79317 0.0
C909 C 0.42653 0.5382 0.79081 0.0
H910 H 0.45069 0.62136 0.82601 0.0
C911 C 0.39681 0.50812 0.81187 0.0
H912 H 0.456 0.59899 0.77953 0.0
C913 C 0.39628 0.52413 0.8404 0.0
C914 C 0.4181 0.5671 0.84567 0.0
H915 H 0.38621 0.48245 0.80909 0.0
H916 H 0.38256 0.50775 0.85449 0.0
C917 C 0.43929 0.5958 0.82242 0.0
C918 C 0.88799 0.36515 0.979 0.0
C919 C 0.89253 0.39654 0.95774 0.0
H920 H 0.86345 0.34705 0.01921 0.0
C921 C 0.86234 0.41103 0.9555 0.0
H922 H 0.90414 0.35503 0.9787 0.0
C923 C 0.83923 0.40614 0.98194 0.0
C924 C 0.84115 0.3829 0.00624 0.0
H925 H 0.86351 0.42695 0.94158 0.0
H926 H 0.82413 0.41732 0.98325 0.0
C927 C 0.86398 0.36176 0.00461 0.0
C928 C 0.50589 0.88795 0.14869 0.0
C929 C 0.48873 0.88172 0.12714 0.0
H930 H 0.50312 0.87702 0.18547 0.0
C931 C 0.4543 0.86112 0.12678 0.0
H932 H 0.53242 0.90396 0.14944 0.0
C933 C 0.43748 0.846 0.14737 0.0
C934 C 0.45484 0.85094 0.16869 0.0
H935 H 0.44047 0.85604 0.11043 0.0
H936 H 0.41105 0.82954 0.14637 0.0
C937 C 0.48911 0.87257 0.16926 0.0
C938 C 0.61823 0.47235 0.31768 0.0
C939 C 0.59672 0.44703 0.30268 0.0
H940 H 0.64214 0.48605 0.35126 0.0
C941 C 0.58349 0.41506 0.31035 0.0
H942 H 0.62939 0.49719 0.31203 0.0
C943 C 0.59104 0.40856 0.33282 0.0
C944 C 0.61202 0.43395 0.348 0.0
H945 H 0.56733 0.39512 0.29892 0.0
H946 H 0.5804 0.3837 0.33829 0.0
C947 C 0.62556 0.4659 0.34014 0.0
C948 C 0.43693 0.84561 0.3324 0.0
C949 C 0.42337 0.86425 0.34043 0.0
H950 H 0.44254 0.81996 0.3035 0.0
C951 C 0.4045 0.8713 0.32477 0.0
H952 H 0.45111 0.83939 0.34424 0.0
C953 C 0.39972 0.86038 0.30149 0.0
C954 C 0.41319 0.84165 0.29343 0.0
H955 H 0.39315 0.88504 0.33061 0.0
H956 H 0.3849 0.86615 0.28995 0.0
C957 C 0.43194 0.83444 0.30912 0.0
C958 C 0.57415 0.41846 0.51214 0.0
C959 C 0.54007 0.4073 0.51059 0.0
H960 H 0.61783 0.42676 0.49403 0.0
C961 C 0.52416 0.39769 0.48857 0.0
H962 H 0.58695 0.42594 0.52893 0.0
C963 C 0.54173 0.398 0.46864 0.0
C964 C 0.57555 0.40796 0.47036 0.0
H965 H 0.49789 0.38897 0.48695 0.0
H966 H 0.52856 0.38953 0.45204 0.0
C967 C 0.59179 0.41896 0.49217 0.0
C968 C 0.16158 0.55767 0.67054 0.0
C969 C 0.14013 0.52478 0.67492 0.0
H970 H 0.19322 0.59338 0.64585 0.0
C971 C 0.13394 0.50224 0.6569 0.0
H972 H 0.16702 0.57549 0.68421 0.0
C973 C 0.14897 0.5124 0.63494 0.0
C974 C 0.17066 0.54532 0.63059 0.0
H975 H 0.11776 0.4767 0.65993 0.0
H976 H 0.14389 0.49439 0.6215 0.0
C977 C 0.1766 0.56786 0.64858 0.0
C978 C 0.58795 0.15575 0.84982 0.0
C979 C 0.60155 0.12535 0.85244 0.0
H980 H 0.58365 0.18896 0.81718 0.0
C981 C 0.63348 0.12519 0.83314 0.0
H982 H 0.57184 0.15756 0.86262 0.0
C983 C 0.63806 0.14418 0.80508 0.0
C984 C 0.61776 0.16705 0.79902 0.0
H985 H 0.64316 0.10918 0.8362 0.0
H986 H 0.65328 0.14192 0.79177 0.0
C987 C 0.59409 0.17381 0.82111 0.0
C988 C 0.53142 0.63688 0.99435 0.0
C989 C 0.50329 0.6086 0.01706 0.0
H990 H 0.52502 0.65287 0.95335 0.0
C991 C 0.45938 0.59818 0.02009 0.0
H992 H 0.55755 0.64479 0.99409 0.0
C993 C 0.44112 0.60286 0.99356 0.0
C994 C 0.46631 0.62249 0.96816 0.0
H995 H 0.44426 0.58419 0.03472 0.0
H996 H 0.41472 0.59356 0.99283 0.0
C997 C 0.5107 0.64032 0.96868 0.0
C998 C 0.91584 0.43748 0.14344 0.0
C999 C 0.9095 0.41004 0.15634 0.0
H1000 H 0.89852 0.4578 0.11754 0.0
C1001 C 0.87831 0.38201 0.1542 0.0
H1002 H 0.93955 0.45948 0.14486 0.0
C1003 C 0.85469 0.38087 0.13833 0.0
C1004 C 0.86179 0.40784 0.12445 0.0
H1005 H 0.87273 0.3606 0.16411 0.0
H1006 H 0.83145 0.3585 0.13631 0.0
C1007 C 0.89224 0.43645 0.12777 0.0
loop_
_geom_bond_atom_site_label_1
_geom_bond_atom_site_label_2
_geom_bond_distance
_geom_bond_site_symmetry_2
_ccdc_geom_bond_type
C0 C1 1.560 . S
C0 H61 0.959 . S
C0 H62 0.959 . S
C0 H63 0.960 . S
C1 C0 1.560 . S
C1 O56 1.426 . S
C1 H60 0.980 . S
C2 C3 1.407 . S
C2 C7 1.418 . S
C2 O56 1.334 . S
C3 C2 1.407 . S
C3 C4 1.360 . S
C3 H64 0.929 . S
C4 C3 1.360 . S
C4 C5 1.401 . S
C4 C8 1.527 . S
C5 C4 1.401 . S
C5 C6 1.405 . S
C5 C38 1.587 . S
C6 C5 1.405 . S
C6 C7 1.332 . S
C6 C9 1.496 . S
C7 C2 1.418 . S
C7 C6 1.332 . S
C7 H65 0.929 . S
C8 C4 1.527 . S
C8 H66 0.959 . S
C8 H67 0.961 . S
C8 H68 0.961 . S
C9 C6 1.496 . S
C9 H69 0.960 . S
C9 H70 0.960 . S
C9 H71 0.961 . S
C10 C11 1.517 . S
C10 H73 0.961 . S
C10 H74 0.960 . S
C10 H75 0.959 . S
C11 C10 1.517 . S
C11 O59 1.468 . S
C11 H72 0.980 . S
C12 C13 1.349 . S
C12 C17 1.367 . S
C12 O59 1.408 . S
C13 C12 1.349 . S
C13 C14 1.407 . S
C13 H76 0.930 . S
C14 C13 1.407 . S
C14 C15 1.449 . S
C14 C18 1.535 . S
C15 C14 1.449 . S
C15 C16 1.384 . S
C15 C40 1.553 1_655 S
C16 C15 1.384 . S
C16 C17 1.364 . S
C16 C19 1.450 . S
C17 C12 1.367 . S
C17 C16 1.364 . S
C17 H77 0.931 . S
C18 C14 1.535 . S
C18 H78 0.959 1_655 S
C18 H79 0.961 1_655 S
C18 H80 0.959 . S
C19 C16 1.450 . S
C19 H81 0.960 . S
C19 H82 0.960 1_655 S
C19 H83 0.960 . S
C20 C21 1.309 . S
C20 C25 1.304 . S
C20 O58 1.435 . S
C21 C20 1.309 . S
C21 C22 1.476 . S
C21 H85 0.930 . S
C22 C21 1.476 . S
C22 C23 1.400 . S
C22 C26 1.567 . S
C23 C22 1.400 . S
C23 C24 1.373 . S
C23 C45 1.432 . S
C24 C23 1.373 . S
C24 C25 1.339 . S
C24 C27 1.530 . S
C25 C20 1.304 . S
C25 C24 1.339 . S
C25 H86 0.930 . S
C26 C22 1.567 . S
C26 H87 0.961 . S
C26 H88 0.960 . S
C26 H89 0.958 . S
C27 C24 1.530 . S
C27 H90 0.961 . S
C27 H91 0.960 . S
C27 H92 0.960 . S
C28 C29 1.530 . S
C28 H94 0.961 . S
C28 H95 0.961 . S
C28 H96 0.959 . S
C29 C28 1.530 . S
C29 O57 1.412 . S
C29 H93 0.980 . S
C30 C31 1.288 . S
C30 C35 1.377 . S
C30 O57 1.393 . S
C31 C30 1.288 . S
C31 C32 1.369 . S
C31 H97 0.932 . S
C32 C31 1.369 . S
C32 C33 1.398 . S
C32 C36 1.527 . S
C33 C32 1.398 . S
C33 C34 1.380 . S
C33 C47 1.497 . S
C34 C33 1.380 . S
C34 C35 1.383 . S
C34 C37 1.603 . S
C35 C30 1.377 . S
C35 C34 1.383 . S
C35 H98 0.929 . S
C36 C32 1.527 . S
C36 H99 0.961 . S
C36 H100 0.959 1_455 S
C36 H101 0.959 . S
C37 C34 1.603 . S
C37 H102 0.960 . S
C37 H103 0.962 . S
C37 H104 0.961 . S
C38 C5 1.587 . S
C38 C39 1.360 . S
C38 C51 1.412 . S
C39 C38 1.360 . S
C39 C40 1.365 . S
C39 H105 0.929 . S
C40 C15 1.553 1_455 S
C40 C39 1.365 . S
C40 C41 1.404 . S
C41 C40 1.404 . S
C41 C42 1.395 1_455 S
C41 C52 1.451 . S
C42 C41 1.395 1_655 S
C42 C43 1.322 . S
C42 H106 0.930 . S
C43 C42 1.322 . S
C43 C44 1.459 . S
C43 H107 0.929 . S
C44 C43 1.459 . S
C44 C45 1.445 . S
C44 C53 1.395 1_655 S
C45 C23 1.432 . S
C45 C44 1.445 . S
C45 C46 1.370 . S
C46 C45 1.370 . S
C46 C47 1.438 1_655 S
C46 H108 0.930 . S
C47 C33 1.497 . S
C47 C46 1.438 1_455 S
C47 C48 1.360 . S
C48 C47 1.360 . S
C48 C49 1.401 . S
C48 C53 1.446 . S
C49 C48 1.401 . S
C49 C50 1.347 . S
C49 H109 0.929 . S
C50 C49 1.347 . S
C50 C51 1.455 . S
C50 H110 0.930 . S
C51 C38 1.412 . S
C51 C50 1.455 . S
C51 C52 1.331 . S
C52 C41 1.451 . S
C52 C51 1.331 . S
C52 C53 1.497 . S
C53 C44 1.395 1_455 S
C53 C48 1.446 . S
C53 C52 1.497 . S
C54 C55 1.582 . S
C54 H111 0.962 . S
C54 H112 0.959 . S
C54 H113 0.958 . S
C55 C54 1.582 . S
C55 O58 1.458 . S
C55 H84 0.980 . S
O56 C1 1.426 . S
O56 C2 1.334 . S
O57 C29 1.412 . S
O57 C30 1.393 . S
O58 C20 1.435 . S
O58 C55 1.458 . S
O59 C11 1.468 . S
O59 C12 1.408 . S
H60 C1 0.980 . S
H61 C0 0.959 . S
H62 C0 0.959 . S
H63 C0 0.960 . S
H64 C3 0.929 . S
H65 C7 0.929 . S
H66 C8 0.959 . S
H67 C8 0.961 . S
H68 C8 0.961 . S
H69 C9 0.960 . S
H70 C9 0.960 . S
H71 C9 0.961 . S
H72 C11 0.980 . S
H73 C10 0.961 . S
H74 C10 0.960 . S
H75 C10 0.959 . S
H76 C13 0.930 . S
H77 C17 0.931 . S
H78 C18 0.959 1_455 S
H79 C18 0.961 1_455 S
H80 C18 0.959 . S
H81 C19 0.960 . S
H82 C19 0.960 1_455 S
H83 C19 0.960 . S
H84 C55 0.980 . S
H85 C21 0.930 . S
H86 C25 0.930 . S
H87 C26 0.961 . S
H88 C26 0.960 . S
H89 C26 0.958 . S
H90 C27 0.961 . S
H91 C27 0.960 . S
H92 C27 0.960 . S
H93 C29 0.980 . S
H94 C28 0.961 . S
H95 C28 0.961 . S
H96 C28 0.959 . S
H97 C31 0.932 . S
H98 C35 0.929 . S
H99 C36 0.961 . S
H100 C36 0.959 1_655 S
H101 C36 0.959 . S
H102 C37 0.960 . S
H103 C37 0.962 . S
H104 C37 0.961 . S
H105 C39 0.929 . S
H106 C42 0.930 . S
H107 C43 0.929 . S
H108 C46 0.930 . S
H109 C49 0.929 . S
H110 C50 0.930 . S
H111 C54 0.962 . S
H112 C54 0.959 . S
H113 C54 0.958 . S
C114 C115 1.560 . S
C114 H175 0.959 . S
C114 H176 0.959 . S
C114 H177 0.960 . S
C115 C114 1.560 . S
C115 O170 1.426 . S
C115 H174 0.980 . S
C116 C117 1.407 . S
C116 C121 1.418 . S
C116 O170 1.334 . S
C117 C116 1.407 . S
C117 C118 1.360 . S
C117 H178 0.929 . S
C118 C117 1.360 . S
C118 C119 1.401 . S
C118 C122 1.527 . S
C119 C118 1.401 . S
C119 C120 1.405 . S
C119 C152 1.587 . S
C120 C119 1.405 . S
C120 C121 1.332 . S
C120 C123 1.496 . S
C121 C116 1.418 . S
C121 C120 1.332 . S
C121 H179 0.929 . S
C122 C118 1.527 . S
C122 H180 0.959 . S
C122 H181 0.961 . S
C122 H182 0.961 . S
C123 C120 1.496 . S
C123 H183 0.960 . S
C123 H184 0.960 . S
C123 H185 0.961 . S
C124 C125 1.517 . S
C124 H187 0.961 . S
C124 H188 0.960 . S
C124 H189 0.959 . S
C125 C124 1.517 . S
C125 O173 1.468 . S
C125 H186 0.980 . S
C126 C127 1.349 . S
C126 C131 1.367 . S
C126 O173 1.408 . S
C127 C126 1.349 . S
C127 C128 1.407 . S
C127 H190 0.930 . S
C128 C127 1.407 . S
C128 C129 1.449 . S
C128 C132 1.535 . S
C129 C128 1.449 . S
C129 C130 1.384 . S
C129 C154 1.553 . S
C130 C129 1.384 . S
C130 C131 1.364 . S
C130 C133 1.450 . S
C131 C126 1.367 . S
C131 C130 1.364 . S
C131 H191 0.931 . S
C132 C128 1.535 . S
C132 H192 0.959 . S
C132 H193 0.961 . S
C132 H194 0.959 . S
C133 C130 1.450 . S
C133 H195 0.960 . S
C133 H196 0.960 . S
C133 H197 0.960 . S
C134 C135 1.309 . S
C134 C139 1.304 . S
C134 O172 1.435 . S
C135 C134 1.309 . S
C135 C136 1.476 . S
C135 H199 0.930 . S
C136 C135 1.476 . S
C136 C137 1.400 . S
C136 C140 1.567 . S
C137 C136 1.400 . S
C137 C138 1.373 . S
C137 C159 1.432 . S
C138 C137 1.373 . S
C138 C139 1.339 . S
C138 C141 1.530 . S
C139 C134 1.304 . S
C139 C138 1.339 . S
C139 H200 0.930 . S
C140 C136 1.567 . S
C140 H201 0.961 . S
C140 H202 0.960 . S
C140 H203 0.958 . S
C141 C138 1.530 . S
C141 H204 0.961 . S
C141 H205 0.960 . S
C141 H206 0.960 . S
C142 C143 1.530 . S
C142 H208 0.961 . S
C142 H209 0.961 . S
C142 H210 0.959 . S
C143 C142 1.530 . S
C143 O171 1.412 . S
C143 H207 0.980 . S
C144 C145 1.288 . S
C144 C149 1.377 . S
C144 O171 1.393 . S
C145 C144 1.288 . S
C145 C146 1.369 . S
C145 H211 0.932 . S
C146 C145 1.369 . S
C146 C147 1.398 . S
C146 C150 1.527 . S
C147 C146 1.398 . S
C147 C148 1.380 . S
C147 C161 1.497 1_565 S
C148 C147 1.380 . S
C148 C149 1.383 . S
C148 C151 1.603 . S
C149 C144 1.377 . S
C149 C148 1.383 . S
C149 H212 0.929 . S
C150 C146 1.527 . S
C150 H213 0.961 . S
C150 H214 0.959 1_565 S
C150 H215 0.959 . S
C151 C148 1.603 . S
C151 H216 0.960 . S
C151 H217 0.962 . S
C151 H218 0.961 . S
C152 C119 1.587 . S
C152 C153 1.360 . S
C152 C165 1.412 . S
C153 C152 1.360 . S
C153 C154 1.365 1_565 S
C153 H219 0.929 . S
C154 C129 1.553 . S
C154 C153 1.365 1_545 S
C154 C155 1.404 . S
C155 C154 1.404 . S
C155 C156 1.395 . S
C155 C166 1.451 1_545 S
C156 C155 1.395 . S
C156 C157 1.322 . S
C156 H220 0.930 . S
C157 C156 1.322 . S
C157 C158 1.459 . S
C157 H221 0.929 . S
C158 C157 1.459 . S
C158 C159 1.445 . S
C158 C167 1.395 . S
C159 C137 1.432 . S
C159 C158 1.445 . S
C159 C160 1.370 . S
C160 C159 1.370 . S
C160 C161 1.438 . S
C160 H222 0.930 . S
C161 C147 1.497 1_545 S
C161 C160 1.438 . S
C161 C162 1.360 1_545 S
C162 C161 1.360 1_565 S
C162 C163 1.401 . S
C162 C167 1.446 1_565 S
C163 C162 1.401 . S
C163 C164 1.347 . S
C163 H223 0.929 . S
C164 C163 1.347 . S
C164 C165 1.455 . S
C164 H224 0.930 . S
C165 C152 1.412 . S
C165 C164 1.455 . S
C165 C166 1.331 . S
C166 C155 1.451 1_565 S
C166 C165 1.331 . S
C166 C167 1.497 1_565 S
C167 C158 1.395 . S
C167 C162 1.446 1_545 S
C167 C166 1.497 1_545 S
C168 C169 1.582 . S
C168 H225 0.962 . S
C168 H226 0.959 . S
C168 H227 0.958 . S
C169 C168 1.582 . S
C169 O172 1.458 . S
C169 H198 0.980 . S
O170 C115 1.426 . S
O170 C116 1.334 . S
O171 C143 1.412 . S
O171 C144 1.393 . S
O172 C134 1.435 . S
O172 C169 1.458 . S
O173 C125 1.468 . S
O173 C126 1.408 . S
H174 C115 0.980 . S
H175 C114 0.959 . S
H176 C114 0.959 . S
H177 C114 0.960 . S
H178 C117 0.929 . S
H179 C121 0.929 . S
H180 C122 0.959 . S
H181 C122 0.961 . S
H182 C122 0.961 . S
H183 C123 0.960 . S
H184 C123 0.960 . S
H185 C123 0.961 . S
H186 C125 0.980 . S
H187 C124 0.961 . S
H188 C124 0.960 . S
H189 C124 0.959 . S
H190 C127 0.930 . S
H191 C131 0.931 . S
H192 C132 0.959 . S
H193 C132 0.961 . S
H194 C132 0.959 . S
H195 C133 0.960 . S
H196 C133 0.960 . S
H197 C133 0.960 . S
H198 C169 0.980 . S
H199 C135 0.930 . S
H200 C139 0.930 . S
H201 C140 0.961 . S
H202 C140 0.960 . S
H203 C140 0.958 . S
H204 C141 0.961 . S
H205 C141 0.960 . S
H206 C141 0.960 . S
H207 C143 0.980 . S
H208 C142 0.961 . S
H209 C142 0.961 . S
H210 C142 0.959 . S
H211 C145 0.932 . S
H212 C149 0.929 . S
H213 C150 0.961 . S
H214 C150 0.959 1_545 S
H215 C150 0.959 . S
H216 C151 0.960 . S
H217 C151 0.962 . S
H218 C151 0.961 . S
H219 C153 0.929 . S
H220 C156 0.930 . S
H221 C157 0.929 . S
H222 C160 0.930 . S
H223 C163 0.929 . S
H224 C164 0.930 . S
H225 C168 0.962 . S
H226 C168 0.959 . S
H227 C168 0.958 . S
C228 C229 1.560 . S
C228 H289 0.959 . S
C228 H290 0.959 . S
C228 H291 0.960 . S
C229 C228 1.560 . S
C229 O284 1.426 . S
C229 H288 0.980 . S
C230 C231 1.407 . S
C230 C235 1.418 . S
C230 O284 1.334 . S
C231 C230 1.407 . S
C231 C232 1.360 . S
C231 H292 0.929 . S
C232 C231 1.360 . S
C232 C233 1.401 . S
C232 C236 1.527 . S
C233 C232 1.401 . S
C233 C234 1.405 . S
C233 C266 1.587 . S
C234 C233 1.405 . S
C234 C235 1.332 . S
C234 C237 1.496 . S
C235 C230 1.418 . S
C235 C234 1.332 . S
C235 H293 0.929 . S
C236 C232 1.527 . S
C236 H294 0.959 . S
C236 H295 0.961 . S
C236 H296 0.961 . S
C237 C234 1.496 . S
C237 H297 0.960 . S
C237 H298 0.960 . S
C237 H299 0.961 . S
C238 C239 1.517 . S
C238 H301 0.961 . S
C238 H302 0.960 . S
C238 H303 0.959 . S
C239 C238 1.517 . S
C239 O287 1.468 . S
C239 H300 0.980 . S
C240 C241 1.349 . S
C240 C245 1.367 . S
C240 O287 1.408 . S
C241 C240 1.349 . S
C241 C242 1.407 . S
C241 H304 0.930 . S
C242 C241 1.407 . S
C242 C243 1.449 . S
C242 C246 1.535 . S
C243 C242 1.449 . S
C243 C244 1.384 . S
C243 C268 1.553 . S
C244 C243 1.384 . S
C244 C245 1.364 . S
C244 C247 1.450 . S
C245 C240 1.367 . S
C245 C244 1.364 . S
C245 H305 0.931 . S
C246 C242 1.535 . S
C246 H306 0.959 . S
C246 H307 0.961 . S
C246 H308 0.959 . S
C247 C244 1.450 . S
C247 H309 0.960 . S
C247 H310 0.960 . S
C247 H311 0.960 . S
C248 C249 1.309 . S
C248 C253 1.304 . S
C248 O286 1.435 . S
C249 C248 1.309 . S
C249 C250 1.476 . S
C249 H313 0.930 . S
C250 C249 1.476 . S
C250 C251 1.400 . S
C250 C254 1.567 . S
C251 C250 1.400 . S
C251 C252 1.373 . S
C251 C273 1.432 . S
C252 C251 1.373 . S
C252 C253 1.339 . S
C252 C255 1.530 . S
C253 C248 1.304 . S
C253 C252 1.339 . S
C253 H314 0.930 . S
C254 C250 1.567 . S
C254 H315 0.961 . S
C254 H316 0.960 . S
C254 H317 0.958 . S
C255 C252 1.530 . S
C255 H318 0.961 . S
C255 H319 0.960 . S
C255 H320 0.960 . S
C256 C257 1.530 . S
C256 H322 0.961 . S
C256 H323 0.961 . S
C256 H324 0.959 . S
C257 C256 1.530 . S
C257 O285 1.412 . S
C257 H321 0.980 . S
C258 C259 1.288 . S
C258 C263 1.377 . S
C258 O285 1.393 . S
C259 C258 1.288 . S
C259 C260 1.369 . S
C259 H325 0.932 . S
C260 C259 1.369 . S
C260 C261 1.398 . S
C260 C264 1.527 . S
C261 C260 1.398 . S
C261 C262 1.380 . S
C261 C275 1.497 . S
C262 C261 1.380 . S
C262 C263 1.383 . S
C262 C265 1.603 . S
C263 C258 1.377 . S
C263 C262 1.383 . S
C263 H326 0.929 . S
C264 C260 1.527 . S
C264 H327 0.961 . S
C264 H328 0.959 . S
C264 H329 0.959 . S
C265 C262 1.603 . S
C265 H330 0.960 . S
C265 H331 0.962 . S
C265 H332 0.961 . S
C266 C233 1.587 . S
C266 C267 1.360 . S
C266 C279 1.412 . S
C267 C266 1.360 . S
C267 C268 1.365 . S
C267 H333 0.929 . S
C268 C243 1.553 . S
C268 C267 1.365 . S
C268 C269 1.404 . S
C269 C268 1.404 . S
C269 C270 1.395 . S
C269 C280 1.451 . S
C270 C269 1.395 . S
C270 C271 1.322 . S
C270 H334 0.930 . S
C271 C270 1.322 . S
C271 C272 1.459 . S
C271 H335 0.929 . S
C272 C271 1.459 . S
C272 C273 1.445 . S
C272 C281 1.395 . S
C273 C251 1.432 . S
C273 C272 1.445 . S
C273 C274 1.370 . S
C274 C273 1.370 . S
C274 C275 1.438 . S
C274 H336 0.930 . S
C275 C261 1.497 . S
C275 C274 1.438 . S
C275 C276 1.360 . S
C276 C275 1.360 . S
C276 C277 1.401 . S
C276 C281 1.446 . S
C277 C276 1.401 . S
C277 C278 1.347 . S
C277 H337 0.929 . S
C278 C277 1.347 . S
C278 C279 1.455 . S
C278 H338 0.930 . S
C279 C266 1.412 . S
C279 C278 1.455 . S
C279 C280 1.331 . S
C280 C269 1.451 . S
C280 C279 1.331 . S
C280 C281 1.497 . S
C281 C272 1.395 . S
C281 C276 1.446 . S
C281 C280 1.497 . S
C282 C283 1.582 . S
C282 H339 0.962 . S
C282 H340 0.959 . S
C282 H341 0.958 . S
C283 C282 1.582 . S
C283 O286 1.458 . S
C283 H312 0.980 . S
O284 C229 1.426 . S
O284 C230 1.334 . S
O285 C257 1.412 . S
O285 C258 1.393 . S
O286 C248 1.435 . S
O286 C283 1.458 . S
O287 C239 1.468 . S
O287 C240 1.408 . S
H288 C229 0.980 . S
H289 C228 0.959 . S
H290 C228 0.959 . S
H291 C228 0.960 . S
H292 C231 0.929 . S
H293 C235 0.929 . S
H294 C236 0.959 . S
H295 C236 0.961 . S
H296 C236 0.961 . S
H297 C237 0.960 . S
H298 C237 0.960 . S
H299 C237 0.961 . S
H300 C239 0.980 . S
H301 C238 0.961 . S
H302 C238 0.960 . S
H303 C238 0.959 . S
H304 C241 0.930 . S
H305 C245 0.931 . S
H306 C246 0.959 . S
H307 C246 0.961 . S
H308 C246 0.959 . S
H309 C247 0.960 . S
H310 C247 0.960 . S
H311 C247 0.960 . S
H312 C283 0.980 . S
H313 C249 0.930 . S
H314 C253 0.930 . S
H315 C254 0.961 . S
H316 C254 0.960 . S
H317 C254 0.958 . S
H318 C255 0.961 . S
H319 C255 0.960 . S
H320 C255 0.960 . S
H321 C257 0.980 . S
H322 C256 0.961 . S
H323 C256 0.961 . S
H324 C256 0.959 . S
H325 C259 0.932 . S
H326 C263 0.929 . S
H327 C264 0.961 . S
H328 C264 0.959 . S
H329 C264 0.959 . S
H330 C265 0.960 . S
H331 C265 0.962 . S
H332 C265 0.961 . S
H333 C267 0.929 . S
H334 C270 0.930 . S
H335 C271 0.929 . S
H336 C274 0.930 . S
H337 C277 0.929 . S
H338 C278 0.930 . S
H339 C282 0.962 . S
H340 C282 0.959 . S
H341 C282 0.958 . S
C342 C343 1.560 . S
C342 H403 0.959 . S
C342 H404 0.959 . S
C342 H405 0.960 . S
C343 C342 1.560 . S
C343 O398 1.426 . S
C343 H402 0.980 . S
C344 C345 1.407 . S
C344 C349 1.418 . S
C344 O398 1.334 . S
C345 C344 1.407 . S
C345 C346 1.360 . S
C345 H406 0.929 . S
C346 C345 1.360 . S
C346 C347 1.401 . S
C346 C350 1.527 . S
C347 C346 1.401 . S
C347 C348 1.405 . S
C347 C380 1.587 . S
C348 C347 1.405 . S
C348 C349 1.332 . S
C348 C351 1.496 . S
C349 C344 1.418 . S
C349 C348 1.332 . S
C349 H407 0.929 . S
C350 C346 1.527 . S
C350 H408 0.959 . S
C350 H409 0.961 . S
C350 H410 0.961 . S
C351 C348 1.496 . S
C351 H411 0.960 . S
C351 H412 0.960 . S
C351 H413 0.961 . S
C352 C353 1.517 . S
C352 H415 0.961 1_556 S
C352 H416 0.955 1_556 S
C352 H417 0.959 . S
C353 C352 1.517 . S
C353 O401 1.468 . S
C353 H414 0.980 . S
C354 C355 1.349 . S
C354 C359 1.367 . S
C354 O401 1.408 . S
C355 C354 1.349 . S
C355 C356 1.407 . S
C355 H418 0.930 . S
C356 C355 1.407 . S
C356 C357 1.449 . S
C356 C360 1.535 . S
C357 C356 1.449 . S
C357 C358 1.384 . S
C357 C382 1.553 1_655 S
C358 C357 1.384 . S
C358 C359 1.364 . S
C358 C361 1.450 . S
C359 C354 1.367 . S
C359 C358 1.364 . S
C359 H419 0.931 . S
C360 C356 1.535 . S
C360 H420 0.959 1_655 S
C360 H421 0.945 1_655 S
C360 H422 0.959 . S
C361 C358 1.450 . S
C361 H423 0.960 . S
C361 H424 0.960 1_655 S
C361 H425 0.960 . S
C362 C363 1.309 . S
C362 C367 1.304 . S
C362 O400 1.435 . S
C363 C362 1.309 . S
C363 C364 1.476 . S
C363 H427 0.930 . S
C364 C363 1.476 . S
C364 C365 1.400 . S
C364 C368 1.567 . S
C365 C364 1.400 . S
C365 C366 1.373 . S
C365 C387 1.432 . S
C366 C365 1.373 . S
C366 C367 1.339 . S
C366 C369 1.530 . S
C367 C362 1.304 . S
C367 C366 1.339 . S
C367 H428 0.930 . S
C368 C364 1.567 . S
C368 H429 0.961 . S
C368 H430 0.960 . S
C368 H431 0.958 . S
C369 C366 1.530 . S
C369 H432 0.961 . S
C369 H433 0.960 . S
C369 H434 0.960 . S
C370 C371 1.530 . S
C370 H436 0.961 . S
C370 H437 0.961 . S
C370 H438 0.959 . S
C371 C370 1.530 . S
C371 O399 1.412 . S
C371 H435 0.980 . S
C372 C373 1.288 . S
C372 C377 1.377 . S
C372 O399 1.393 . S
C373 C372 1.288 . S
C373 C374 1.369 . S
C373 H439 0.932 . S
C374 C373 1.369 . S
C374 C375 1.398 . S
C374 C378 1.527 . S
C375 C374 1.398 . S
C375 C376 1.380 . S
C375 C389 1.497 . S
C376 C375 1.380 . S
C376 C377 1.383 . S
C376 C379 1.603 . S
C377 C372 1.377 . S
C377 C376 1.383 . S
C377 H440 0.929 . S
C378 C374 1.527 . S
C378 H441 0.961 . S
C378 H442 0.959 1_455 S
C378 H443 0.959 . S
C379 C376 1.603 . S
C379 H444 0.960 . S
C379 H445 0.962 . S
C379 H446 0.961 . S
C380 C347 1.587 . S
C380 C381 1.360 . S
C380 C393 1.412 . S
C381 C380 1.360 . S
C381 C382 1.365 . S
C381 H447 0.929 . S
C382 C357 1.553 1_455 S
C382 C381 1.365 . S
C382 C383 1.404 1_455 S
C383 C382 1.404 1_655 S
C383 C384 1.395 . S
C383 C394 1.451 1_655 S
C384 C383 1.395 . S
C384 C385 1.322 . S
C384 H448 0.930 . S
C385 C384 1.322 . S
C385 C386 1.459 . S
C385 H449 0.929 . S
C386 C385 1.459 . S
C386 C387 1.445 . S
C386 C395 1.395 1_655 S
C387 C365 1.432 . S
C387 C386 1.445 . S
C387 C388 1.370 . S
C388 C387 1.370 . S
C388 C389 1.438 1_655 S
C388 H450 0.930 . S
C389 C375 1.497 . S
C389 C388 1.438 1_455 S
C389 C390 1.360 . S
C390 C389 1.360 . S
C390 C391 1.401 . S
C390 C395 1.446 . S
C391 C390 1.401 . S
C391 C392 1.347 . S
C391 H451 0.929 . S
C392 C391 1.347 . S
C392 C393 1.455 . S
C392 H452 0.930 . S
C393 C380 1.412 . S
C393 C392 1.455 . S
C393 C394 1.331 . S
C394 C383 1.451 1_455 S
C394 C393 1.331 . S
C394 C395 1.497 . S
C395 C386 1.395 1_455 S
C395 C390 1.446 . S
C395 C394 1.497 . S
C396 C397 1.582 . S
C396 H453 0.962 . S
C396 H454 0.959 . S
C396 H455 0.958 . S
C397 C396 1.582 . S
C397 O400 1.458 . S
C397 H426 0.980 . S
O398 C343 1.426 . S
O398 C344 1.334 . S
O399 C371 1.412 . S
O399 C372 1.393 . S
O400 C362 1.435 . S
O400 C397 1.458 . S
O401 C353 1.468 . S
O401 C354 1.408 . S
H402 C343 0.980 . S
H403 C342 0.959 . S
H404 C342 0.959 . S
H405 C342 0.960 . S
H406 C345 0.929 . S
H407 C349 0.929 . S
H408 C350 0.959 . S
H409 C350 0.961 . S
H410 C350 0.961 . S
H411 C351 0.960 . S
H412 C351 0.960 . S
H413 C351 0.961 . S
H414 C353 0.980 . S
H415 C352 0.961 1_554 S
H416 C352 0.955 1_554 S
H417 C352 0.959 . S
H418 C355 0.930 . S
H419 C359 0.931 . S
H420 C360 0.959 1_455 S
H421 C360 0.945 1_455 S
H422 C360 0.959 . S
H423 C361 0.960 . S
H424 C361 0.960 1_455 S
H425 C361 0.960 . S
H426 C397 0.980 . S
H427 C363 0.930 . S
H428 C367 0.930 . S
H429 C368 0.961 . S
H430 C368 0.960 . S
H431 C368 0.958 . S
H432 C369 0.961 . S
H433 C369 0.960 . S
H434 C369 0.960 . S
H435 C371 0.980 . S
H436 C370 0.961 . S
H437 C370 0.961 . S
H438 C370 0.959 . S
H439 C373 0.932 . S
H440 C377 0.929 . S
H441 C378 0.961 . S
H442 C378 0.959 1_655 S
H443 C378 0.959 . S
H444 C379 0.960 . S
H445 C379 0.962 . S
H446 C379 0.961 . S
H447 C381 0.929 . S
H448 C384 0.930 . S
H449 C385 0.929 . S
H450 C388 0.930 . S
H451 C391 0.929 . S
H452 C392 0.930 . S
H453 C396 0.962 . S
H454 C396 0.959 . S
H455 C396 0.958 . S
C456 C457 1.560 . S
C456 H517 0.959 . S
C456 H518 0.959 . S
C456 H519 0.960 . S
C457 C456 1.560 . S
C457 O512 1.426 . S
C457 H516 0.980 . S
C458 C459 1.407 . S
C458 C463 1.418 . S
C458 O512 1.334 . S
C459 C458 1.407 . S
C459 C460 1.360 . S
C459 H520 0.929 . S
C460 C459 1.360 . S
C460 C461 1.401 . S
C460 C464 1.527 . S
C461 C460 1.401 . S
C461 C462 1.405 . S
C461 C494 1.587 . S
C462 C461 1.405 . S
C462 C463 1.332 . S
C462 C465 1.496 . S
C463 C458 1.418 . S
C463 C462 1.332 . S
C463 H521 0.929 . S
C464 C460 1.527 . S
C464 H522 0.959 . S
C464 H523 0.961 . S
C464 H524 0.961 . S
C465 C462 1.496 . S
C465 H525 0.960 . S
C465 H526 0.960 . S
C465 H527 0.961 . S
C466 C467 1.517 . S
C466 H529 0.961 . S
C466 H530 0.960 . S
C466 H531 0.959 . S
C467 C466 1.517 . S
C467 O515 1.468 . S
C467 H528 0.980 . S
C468 C469 1.349 . S
C468 C473 1.367 . S
C468 O515 1.408 . S
C469 C468 1.349 . S
C469 C470 1.407 . S
C469 H532 0.930 . S
C470 C469 1.407 . S
C470 C471 1.449 . S
C470 C474 1.535 . S
C471 C470 1.449 . S
C471 C472 1.384 . S
C471 C496 1.567 . S
C472 C471 1.384 . S
C472 C473 1.364 . S
C472 C475 1.450 . S
C473 C468 1.367 . S
C473 C472 1.364 . S
C473 H533 0.931 . S
C474 C470 1.535 . S
C474 H534 0.959 . S
C474 H535 0.961 . S
C474 H536 0.959 . S
C475 C472 1.450 . S
C475 H537 0.960 . S
C475 H538 0.960 1_545 S
C475 H539 0.960 . S
C476 C477 1.309 . S
C476 C481 1.304 . S
C476 O514 1.435 . S
C477 C476 1.309 . S
C477 C478 1.476 . S
C477 H541 0.930 . S
C478 C477 1.476 . S
C478 C479 1.400 . S
C478 C482 1.567 . S
C479 C478 1.400 . S
C479 C480 1.373 . S
C479 C501 1.432 . S
C480 C479 1.373 . S
C480 C481 1.339 . S
C480 C483 1.530 . S
C481 C476 1.304 . S
C481 C480 1.339 . S
C481 H542 0.930 . S
C482 C478 1.567 . S
C482 H543 0.961 . S
C482 H544 0.960 . S
C482 H545 0.958 . S
C483 C480 1.530 . S
C483 H546 0.961 . S
C483 H547 0.960 . S
C483 H548 0.960 . S
C484 C485 1.530 . S
C484 H550 0.961 . S
C484 H551 0.961 . S
C484 H552 0.959 . S
C485 C484 1.530 . S
C485 O513 1.412 . S
C485 H549 0.980 . S
C486 C487 1.288 . S
C486 C491 1.377 . S
C486 O513 1.393 . S
C487 C486 1.288 . S
C487 C488 1.369 . S
C487 H553 0.932 . S
C488 C487 1.369 . S
C488 C489 1.398 . S
C488 C492 1.527 . S
C489 C488 1.398 . S
C489 C490 1.380 . S
C489 C503 1.519 . S
C490 C489 1.380 . S
C490 C491 1.383 . S
C490 C493 1.603 . S
C491 C486 1.377 . S
C491 C490 1.383 . S
C491 H554 0.929 . S
C492 C488 1.527 . S
C492 H555 0.961 . S
C492 H556 0.959 1_565 S
C492 H557 0.959 . S
C493 C490 1.603 . S
C493 H558 0.960 . S
C493 H559 0.962 . S
C493 H560 0.961 . S
C494 C461 1.587 . S
C494 C495 1.360 . S
C494 C507 1.412 . S
C495 C494 1.360 . S
C495 C496 1.345 1_565 S
C495 H561 0.929 . S
C496 C471 1.567 . S
C496 C495 1.345 1_545 S
C496 C497 1.413 . S
C497 C496 1.413 . S
C497 C498 1.395 . S
C497 C508 1.451 1_545 S
C498 C497 1.395 . S
C498 C499 1.322 . S
C498 H562 0.930 . S
C499 C498 1.322 . S
C499 C500 1.459 1_556 S
C499 H563 0.929 . S
C500 C499 1.459 1_554 S
C500 C501 1.445 . S
C500 C509 1.391 1_554 S
C501 C479 1.432 . S
C501 C500 1.445 . S
C501 C502 1.370 . S
C502 C501 1.370 . S
C502 C503 1.404 1_545 S
C502 H564 0.930 . S
C503 C489 1.519 . S
C503 C502 1.404 1_565 S
C503 C504 1.370 . S
C504 C503 1.370 . S
C504 C505 1.401 . S
C504 C509 1.413 1_564 S
C505 C504 1.401 . S
C505 C506 1.347 1_554 S
C505 H565 0.929 . S
C506 C505 1.347 1_556 S
C506 C507 1.455 . S
C506 H566 0.930 . S
C507 C494 1.412 . S
C507 C506 1.455 . S
C507 C508 1.331 . S
C508 C497 1.451 1_565 S
C508 C507 1.331 . S
C508 C509 1.536 1_565 S
C509 C500 1.391 1_556 S
C509 C504 1.413 1_546 S
C509 C508 1.536 1_545 S
C510 C511 1.582 . S
C510 H567 0.962 . S
C510 H568 0.959 . S
C510 H569 0.958 . S
C511 C510 1.582 . S
C511 O514 1.458 . S
C511 H540 0.980 . S
O512 C457 1.426 . S
O512 C458 1.334 . S
O513 C485 1.412 . S
O513 C486 1.393 . S
O514 C476 1.435 . S
O514 C511 1.458 . S
O515 C467 1.468 . S
O515 C468 1.408 . S
H516 C457 0.980 . S
H517 C456 0.959 . S
H518 C456 0.959 . S
H519 C456 0.960 . S
H520 C459 0.929 . S
H521 C463 0.929 . S
H522 C464 0.959 . S
H523 C464 0.961 . S
H524 C464 0.961 . S
H525 C465 0.960 . S
H526 C465 0.960 . S
H527 C465 0.961 . S
H528 C467 0.980 . S
H529 C466 0.961 . S
H530 C466 0.960 . S
H531 C466 0.959 . S
H532 C469 0.930 . S
H533 C473 0.931 . S
H534 C474 0.959 . S
H535 C474 0.961 . S
H536 C474 0.959 . S
H537 C475 0.960 . S
H538 C475 0.960 1_565 S
H539 C475 0.960 . S
H540 C511 0.980 . S
H541 C477 0.930 . S
H542 C481 0.930 . S
H543 C482 0.961 . S
H544 C482 0.960 . S
H545 C482 0.958 . S
H546 C483 0.961 . S
H547 C483 0.960 . S
H548 C483 0.960 . S
H549 C485 0.980 . S
H550 C484 0.961 . S
H551 C484 0.961 . S
H552 C484 0.959 . S
H553 C487 0.932 . S
H554 C491 0.929 . S
H555 C492 0.961 . S
H556 C492 0.959 1_545 S
H557 C492 0.959 . S
H558 C493 0.960 . S
H559 C493 0.962 . S
H560 C493 0.961 . S
H561 C495 0.929 . S
H562 C498 0.930 . S
H563 C499 0.929 . S
H564 C502 0.930 . S
H565 C505 0.929 . S
H566 C506 0.930 . S
H567 C510 0.962 . S
H568 C510 0.959 . S
H569 C510 0.958 . S
C570 C571 1.560 . S
C570 H631 0.959 . S
C570 H632 0.959 . S
C570 H633 0.960 . S
C571 C570 1.560 . S
C571 O626 1.426 . S
C571 H630 0.980 . S
C572 C573 1.407 . S
C572 C577 1.418 . S
C572 O626 1.334 . S
C573 C572 1.407 . S
C573 C574 1.360 . S
C573 H634 0.929 . S
C574 C573 1.360 . S
C574 C575 1.401 . S
C574 C578 1.527 . S
C575 C574 1.401 . S
C575 C576 1.405 . S
C575 C608 1.587 . S
C576 C575 1.405 . S
C576 C577 1.332 . S
C576 C579 1.496 . S
C577 C572 1.418 . S
C577 C576 1.332 . S
C577 H635 0.929 . S
C578 C574 1.527 . S
C578 H636 0.959 . S
C578 H637 0.961 . S
C578 H638 0.961 . S
C579 C576 1.496 . S
C579 H639 0.960 . S
C579 H640 0.960 . S
C579 H641 0.961 . S
C580 C581 1.517 1_556 S
C580 H643 0.961 . S
C580 H644 0.960 . S
C580 H645 0.959 . S
C581 C580 1.517 1_554 S
C581 O629 1.468 . S
C581 H642 0.980 . S
C582 C583 1.349 . S
C582 C587 1.367 . S
C582 O629 1.408 . S
C583 C582 1.349 . S
C583 C584 1.407 . S
C583 H646 0.930 . S
C584 C583 1.407 . S
C584 C585 1.449 . S
C584 C588 1.535 . S
C585 C584 1.449 . S
C585 C586 1.384 . S
C585 C610 1.553 . S
C586 C585 1.384 . S
C586 C587 1.364 . S
C586 C589 1.450 . S
C587 C582 1.367 . S
C587 C586 1.364 . S
C587 H647 0.931 . S
C588 C584 1.535 . S
C588 H648 0.959 . S
C588 H649 0.961 . S
C588 H650 0.959 . S
C589 C586 1.450 . S
C589 H651 0.960 . S
C589 H652 0.960 . S
C589 H653 0.960 . S
C590 C591 1.309 . S
C590 C595 1.304 . S
C590 O628 1.435 . S
C591 C590 1.309 . S
C591 C592 1.476 . S
C591 H655 0.930 . S
C592 C591 1.476 . S
C592 C593 1.400 . S
C592 C596 1.567 . S
C593 C592 1.400 . S
C593 C594 1.373 . S
C593 C615 1.432 . S
C594 C593 1.373 . S
C594 C595 1.339 . S
C594 C597 1.530 . S
C595 C590 1.304 . S
C595 C594 1.339 . S
C595 H656 0.930 . S
C596 C592 1.567 . S
C596 H657 0.961 . S
C596 H658 0.960 . S
C596 H659 0.958 . S
C597 C594 1.530 . S
C597 H660 0.961 . S
C597 H661 0.960 . S
C597 H662 0.960 . S
C598 C599 1.530 . S
C598 H664 0.961 . S
C598 H665 0.961 . S
C598 H666 0.959 . S
C599 C598 1.530 . S
C599 O627 1.412 . S
C599 H663 0.980 . S
C600 C601 1.288 . S
C600 C605 1.377 . S
C600 O627 1.393 . S
C601 C600 1.288 . S
C601 C602 1.369 . S
C601 H667 0.932 . S
C602 C601 1.369 . S
C602 C603 1.398 . S
C602 C606 1.527 . S
C603 C602 1.398 . S
C603 C604 1.380 . S
C603 C617 1.497 . S
C604 C603 1.380 . S
C604 C605 1.383 . S
C604 C607 1.603 . S
C605 C600 1.377 . S
C605 C604 1.383 . S
C605 H668 0.929 . S
C606 C602 1.527 . S
C606 H669 0.961 . S
C606 H670 0.959 . S
C606 H671 0.959 . S
C607 C604 1.603 . S
C607 H672 0.960 . S
C607 H673 0.962 . S
C607 H674 0.961 . S
C608 C575 1.587 . S
C608 C609 1.360 . S
C608 C621 1.412 . S
C609 C608 1.360 . S
C609 C610 1.365 . S
C609 H675 0.929 . S
C610 C585 1.553 . S
C610 C609 1.365 . S
C610 C611 1.404 . S
C611 C610 1.404 . S
C611 C612 1.395 . S
C611 C622 1.451 . S
C612 C611 1.395 . S
C612 C613 1.322 . S
C612 H676 0.930 . S
C613 C612 1.322 . S
C613 C614 1.459 . S
C613 H677 0.929 . S
C614 C613 1.459 . S
C614 C615 1.445 . S
C614 C623 1.395 . S
C615 C593 1.432 . S
C615 C614 1.445 . S
C615 C616 1.370 . S
C616 C615 1.370 . S
C616 C617 1.438 . S
C616 H678 0.930 . S
C617 C603 1.497 . S
C617 C616 1.438 . S
C617 C618 1.360 . S
C618 C617 1.360 . S
C618 C619 1.401 . S
C618 C623 1.446 . S
C619 C618 1.401 . S
C619 C620 1.347 . S
C619 H679 0.929 . S
C620 C619 1.347 . S
C620 C621 1.455 . S
C620 H680 0.930 . S
C621 C608 1.412 . S
C621 C620 1.455 . S
C621 C622 1.331 . S
C622 C611 1.451 . S
C622 C621 1.331 . S
C622 C623 1.497 . S
C623 C614 1.395 . S
C623 C618 1.446 . S
C623 C622 1.497 . S
C624 C625 1.582 . S
C624 H681 0.962 . S
C624 H682 0.959 . S
C624 H683 0.958 . S
C625 C624 1.582 . S
C625 O628 1.458 . S
C625 H654 0.980 . S
O626 C571 1.426 . S
O626 C572 1.334 . S
O627 C599 1.412 . S
O627 C600 1.393 . S
O628 C590 1.435 . S
O628 C625 1.458 . S
O629 C581 1.468 . S
O629 C582 1.408 . S
H630 C571 0.980 . S
H631 C570 0.959 . S
H632 C570 0.959 . S
H633 C570 0.960 . S
H634 C573 0.929 . S
H635 C577 0.929 . S
H636 C578 0.959 . S
H637 C578 0.961 . S
H638 C578 0.961 . S
H639 C579 0.960 . S
H640 C579 0.960 . S
H641 C579 0.961 . S
H642 C581 0.980 . S
H643 C580 0.961 . S
H644 C580 0.960 . S
H645 C580 0.959 . S
H646 C583 0.930 . S
H647 C587 0.931 . S
H648 C588 0.959 . S
H649 C588 0.961 . S
H650 C588 0.959 . S
H651 C589 0.960 . S
H652 C589 0.960 . S
H653 C589 0.960 . S
H654 C625 0.980 . S
H655 C591 0.930 . S
H656 C595 0.930 . S
H657 C596 0.961 . S
H658 C596 0.960 . S
H659 C596 0.958 . S
H660 C597 0.961 . S
H661 C597 0.960 . S
H662 C597 0.960 . S
H663 C599 0.980 . S
H664 C598 0.961 . S
H665 C598 0.961 . S
H666 C598 0.959 . S
H667 C601 0.932 . S
H668 C605 0.929 . S
H669 C606 0.961 . S
H670 C606 0.959 . S
H671 C606 0.959 . S
H672 C607 0.960 . S
H673 C607 0.962 . S
H674 C607 0.961 . S
H675 C609 0.929 . S
H676 C612 0.930 . S
H677 C613 0.929 . S
H678 C616 0.930 . S
H679 C619 0.929 . S
H680 C620 0.930 . S
H681 C624 0.962 . S
H682 C624 0.959 . S
H683 C624 0.958 . S
C684 O685 1.306 . S
C684 O687 1.160 . S
O685 C684 1.306 . S
O685 Cd686 2.228 . S
Cd686 O685 2.228 . S
Cd686 O690 2.273 . S
Cd686 O694 2.277 . S
O687 C684 1.160 . S
O687 Cd688 2.203 . S
Cd688 O687 2.203 . S
Cd688 O690 2.411 . S
Cd688 O691 2.333 . S
Cd688 O692 2.352 . S
Cd688 O696 2.277 . S
Cd688 O697 2.356 . S
C689 O694 1.209 . S
C689 O696 1.226 . S
O690 Cd686 2.273 . S
O690 Cd688 2.411 . S
O690 C693 1.320 . S
O691 Cd688 2.333 . S
O691 C693 1.214 . S
O692 Cd688 2.352 . S
O692 C695 1.258 . S
C693 O690 1.320 . S
C693 O691 1.214 . S
O694 Cd686 2.277 . S
O694 C689 1.209 . S
C695 O692 1.258 . S
C695 O697 1.282 . S
O696 Cd688 2.277 . S
O696 C689 1.226 . S
O697 Cd688 2.356 . S
O697 C695 1.282 . S
C698 O699 1.306 . S
C698 O701 1.160 . S
O699 C698 1.306 . S
O699 Cd700 2.228 . S
Cd700 O699 2.228 . S
Cd700 O704 2.273 . S
Cd700 O708 2.277 . S
O701 C698 1.160 . S
O701 Cd702 2.203 . S
Cd702 O701 2.203 . S
Cd702 O704 2.411 . S
Cd702 O705 2.333 . S
Cd702 O706 2.352 . S
Cd702 O710 2.277 . S
Cd702 O711 2.356 . S
C703 O708 1.209 . S
C703 O710 1.226 . S
O704 Cd700 2.273 . S
O704 Cd702 2.411 . S
O704 C707 1.320 . S
O705 Cd702 2.333 . S
O705 C707 1.214 . S
O706 Cd702 2.352 . S
O706 C709 1.258 . S
C707 O704 1.320 . S
C707 O705 1.214 . S
O708 Cd700 2.277 . S
O708 C703 1.209 . S
C709 O706 1.258 . S
C709 O711 1.282 . S
O710 Cd702 2.277 . S
O710 C703 1.226 . S
O711 Cd702 2.356 . S
O711 C709 1.282 . S
C712 O713 1.306 . S
C712 O715 1.160 . S
O713 C712 1.306 . S
O713 Cd714 2.228 . S
Cd714 O713 2.228 . S
Cd714 O718 2.273 . S
Cd714 O722 2.277 . S
O715 C712 1.160 . S
O715 Cd716 2.203 . S
Cd716 O715 2.203 . S
Cd716 O718 2.411 . S
Cd716 O719 2.333 . S
Cd716 O720 2.352 . S
Cd716 O724 2.277 . S
Cd716 O725 2.356 . S
C717 O722 1.209 . S
C717 O724 1.226 . S
O718 Cd714 2.273 . S
O718 Cd716 2.411 . S
O718 C721 1.320 . S
O719 Cd716 2.333 . S
O719 C721 1.214 . S
O720 Cd716 2.352 . S
O720 C723 1.258 . S
C721 O718 1.320 . S
C721 O719 1.214 . S
O722 Cd714 2.277 . S
O722 C717 1.209 . S
C723 O720 1.258 . S
C723 O725 1.282 . S
O724 Cd716 2.277 . S
O724 C717 1.226 . S
O725 Cd716 2.356 . S
O725 C723 1.282 . S
C726 O727 1.306 . S
C726 O729 1.160 . S
O727 C726 1.306 . S
O727 Cd728 2.228 . S
Cd728 O727 2.228 . S
Cd728 O732 2.273 . S
Cd728 O736 2.277 . S
O729 C726 1.160 . S
O729 Cd730 2.203 . S
Cd730 O729 2.203 . S
Cd730 O732 2.411 . S
Cd730 O733 2.333 . S
Cd730 O734 2.352 . S
Cd730 O738 2.277 . S
Cd730 O739 2.356 . S
C731 O736 1.209 . S
C731 O738 1.226 . S
O732 Cd728 2.273 . S
O732 Cd730 2.411 . S
O732 C735 1.320 . S
O733 Cd730 2.333 . S
O733 C735 1.214 . S
O734 Cd730 2.352 . S
O734 C737 1.258 . S
C735 O732 1.320 . S
C735 O733 1.214 . S
O736 Cd728 2.277 . S
O736 C731 1.209 . S
C737 O734 1.258 . S
C737 O739 1.282 . S
O738 Cd730 2.277 . S
O738 C731 1.226 . S
O739 Cd730 2.356 . S
O739 C737 1.282 . S
C740 O741 1.306 . S
C740 O743 1.160 . S
O741 C740 1.306 . S
O741 Cd742 2.228 . S
Cd742 O741 2.228 . S
Cd742 O746 2.273 . S
Cd742 O750 2.277 . S
O743 C740 1.160 . S
O743 Cd744 2.203 . S
Cd744 O743 2.203 . S
Cd744 O746 2.411 . S
Cd744 O747 2.333 . S
Cd744 O748 2.352 . S
Cd744 O752 2.277 . S
Cd744 O753 2.356 . S
C745 O750 1.209 . S
C745 O752 1.226 . S
O746 Cd742 2.273 . S
O746 Cd744 2.411 . S
O746 C749 1.320 . S
O747 Cd744 2.333 . S
O747 C749 1.214 . S
O748 Cd744 2.352 . S
O748 C751 1.258 . S
C749 O746 1.320 . S
C749 O747 1.214 . S
O750 Cd742 2.277 . S
O750 C745 1.209 . S
C751 O748 1.258 . S
C751 O753 1.282 . S
O752 Cd744 2.277 . S
O752 C745 1.226 . S
O753 Cd744 2.356 . S
O753 C751 1.282 . S
C754 O755 1.306 . S
C754 O757 1.160 . S
O755 C754 1.306 . S
O755 Cd756 2.228 . S
Cd756 O755 2.228 . S
Cd756 O760 2.273 . S
Cd756 O764 2.277 . S
O757 C754 1.160 . S
O757 Cd758 2.203 . S
Cd758 O757 2.203 . S
Cd758 O760 2.411 . S
Cd758 O761 2.333 . S
Cd758 O762 2.352 . S
Cd758 O766 2.277 . S
Cd758 O767 2.356 . S
C759 O764 1.209 . S
C759 O766 1.226 . S
O760 Cd756 2.273 . S
O760 Cd758 2.411 . S
O760 C763 1.320 . S
O761 Cd758 2.333 . S
O761 C763 1.214 . S
O762 Cd758 2.352 . S
O762 C765 1.258 . S
C763 O760 1.320 . S
C763 O761 1.214 . S
O764 Cd756 2.277 . S
O764 C759 1.209 . S
C765 O762 1.258 . S
C765 O767 1.282 . S
O766 Cd758 2.277 . S
O766 C759 1.226 . S
O767 Cd758 2.356 . S
O767 C765 1.282 . S
C768 C769 1.387 . S
C768 H772 0.950 . S
C768 C777 1.390 . S
C769 C768 1.387 . S
C769 C771 1.387 . S
H770 C777 0.950 . S
C771 C769 1.387 . S
C771 C773 1.390 . S
C771 H775 0.950 . S
H772 C768 0.950 . S
C773 C771 1.390 . S
C773 C774 1.387 . S
C773 H776 0.950 . S
C774 C773 1.387 . S
C774 C777 1.387 . S
H775 C771 0.950 . S
H776 C773 0.950 . S
C777 C768 1.390 . S
C777 H770 0.950 . S
C777 C774 1.387 . S
C778 C779 1.387 . S
C778 H782 0.950 . S
C778 C787 1.390 . S
C779 C778 1.387 . S
C779 C781 1.387 . S
H780 C787 0.950 . S
C781 C779 1.387 . S
C781 C783 1.390 . S
C781 H785 0.950 . S
H782 C778 0.950 . S
C783 C781 1.390 . S
C783 C784 1.387 . S
C783 H786 0.950 . S
C784 C783 1.387 . S
C784 C787 1.387 . S
H785 C781 0.950 . S
H786 C783 0.950 . S
C787 C778 1.390 . S
C787 H780 0.950 . S
C787 C784 1.387 . S
C788 C789 1.387 . S
C788 H792 0.950 . S
C788 C797 1.390 . S
C789 C788 1.387 . S
C789 C791 1.387 . S
H790 C797 0.950 . S
C791 C789 1.387 . S
C791 C793 1.390 . S
C791 H795 0.950 . S
H792 C788 0.950 . S
C793 C791 1.390 . S
C793 C794 1.387 . S
C793 H796 0.950 . S
C794 C793 1.387 . S
C794 C797 1.387 . S
H795 C791 0.950 . S
H796 C793 0.950 . S
C797 C788 1.390 . S
C797 H790 0.950 . S
C797 C794 1.387 . S
C798 C799 1.387 . S
C798 H802 0.950 . S
C798 C807 1.390 . S
C799 C798 1.387 . S
C799 C801 1.387 . S
H800 C807 0.950 . S
C801 C799 1.387 . S
C801 C803 1.390 . S
C801 H805 0.950 . S
H802 C798 0.950 . S
C803 C801 1.390 . S
C803 C804 1.387 . S
C803 H806 0.950 . S
C804 C803 1.387 . S
C804 C807 1.387 . S
H805 C801 0.950 . S
H806 C803 0.950 . S
C807 C798 1.390 . S
C807 H800 0.950 . S
C807 C804 1.387 . S
C808 C809 1.387 . S
C808 H812 0.950 . S
C808 C817 1.390 . S
C809 C808 1.387 . S
C809 C811 1.387 . S
H810 C817 0.950 . S
C811 C809 1.387 . S
C811 C813 1.390 . S
C811 H815 0.950 . S
H812 C808 0.950 . S
C813 C811 1.390 . S
C813 C814 1.387 . S
C813 H816 0.950 . S
C814 C813 1.387 . S
C814 C817 1.387 . S
H815 C811 0.950 . S
H816 C813 0.950 . S
C817 C808 1.390 . S
C817 H810 0.950 . S
C817 C814 1.387 . S
C818 C819 1.387 . S
C818 H822 0.950 . S
C818 C827 1.390 . S
C819 C818 1.387 . S
C819 C821 1.387 . S
H820 C827 0.950 . S
C821 C819 1.387 . S
C821 C823 1.390 . S
C821 H825 0.950 . S
H822 C818 0.950 . S
C823 C821 1.390 . S
C823 C824 1.387 . S
C823 H826 0.950 . S
C824 C823 1.387 . S
C824 C827 1.387 . S
H825 C821 0.950 . S
H826 C823 0.950 . S
C827 C818 1.390 . S
C827 H820 0.950 . S
C827 C824 1.387 . S
C828 C829 1.387 . S
C828 H832 0.950 . S
C828 C837 1.390 . S
C829 C828 1.387 . S
C829 C831 1.387 . S
H830 C837 0.950 . S
C831 C829 1.387 . S
C831 C833 1.390 . S
C831 H835 0.950 . S
H832 C828 0.950 . S
C833 C831 1.390 . S
C833 C834 1.387 . S
C833 H836 0.950 . S
C834 C833 1.387 . S
C834 C837 1.387 . S
H835 C831 0.950 . S
H836 C833 0.950 . S
C837 C828 1.390 . S
C837 H830 0.950 . S
C837 C834 1.387 . S
C838 C839 1.387 . S
C838 H842 0.950 . S
C838 C847 1.390 . S
C839 C838 1.387 . S
C839 C841 1.387 . S
H840 C847 0.950 . S
C841 C839 1.387 . S
C841 C843 1.390 . S
C841 H845 0.950 . S
H842 C838 0.950 . S
C843 C841 1.390 . S
C843 C844 1.387 . S
C843 H846 0.950 . S
C844 C843 1.387 . S
C844 C847 1.387 . S
H845 C841 0.950 . S
H846 C843 0.950 . S
C847 C838 1.390 . S
C847 H840 0.950 . S
C847 C844 1.387 . S
C848 C849 1.387 . S
C848 H852 0.950 . S
C848 C857 1.390 . S
C849 C848 1.387 . S
C849 C851 1.387 . S
H850 C857 0.950 . S
C851 C849 1.387 . S
C851 C853 1.390 . S
C851 H855 0.950 . S
H852 C848 0.950 . S
C853 C851 1.390 . S
C853 C854 1.387 . S
C853 H856 0.950 . S
C854 C853 1.387 . S
C854 C857 1.387 . S
H855 C851 0.950 . S
H856 C853 0.950 . S
C857 C848 1.390 . S
C857 H850 0.950 . S
C857 C854 1.387 . S
C858 C859 1.387 . S
C858 H862 0.950 . S
C858 C867 1.390 . S
C859 C858 1.387 . S
C859 C861 1.387 . S
H860 C867 0.950 . S
C861 C859 1.387 . S
C861 C863 1.390 . S
C861 H865 0.950 . S
H862 C858 0.950 . S
C863 C861 1.390 . S
C863 C864 1.387 . S
C863 H866 0.950 . S
C864 C863 1.387 . S
C864 C867 1.387 . S
H865 C861 0.950 . S
H866 C863 0.950 . S
C867 C858 1.390 . S
C867 H860 0.950 . S
C867 C864 1.387 . S
C868 C869 1.387 . S
C868 H872 0.950 . S
C868 C877 1.390 . S
C869 C868 1.387 . S
C869 C871 1.387 . S
H870 C877 0.950 . S
C871 C869 1.387 . S
C871 C873 1.390 . S
C871 H875 0.950 . S
H872 C868 0.950 . S
C873 C871 1.390 . S
C873 C874 1.387 . S
C873 H876 0.950 . S
C874 C873 1.387 . S
C874 C877 1.387 . S
H875 C871 0.950 . S
H876 C873 0.950 . S
C877 C868 1.390 . S
C877 H870 0.950 . S
C877 C874 1.387 . S
C878 C879 1.387 . S
C878 H882 0.950 . S
C878 C887 1.390 . S
C879 C878 1.387 . S
C879 C881 1.387 . S
H880 C887 0.950 . S
C881 C879 1.387 . S
C881 C883 1.390 . S
C881 H885 0.950 . S
H882 C878 0.950 . S
C883 C881 1.390 . S
C883 C884 1.387 . S
C883 H886 0.950 . S
C884 C883 1.387 . S
C884 C887 1.387 . S
H885 C881 0.950 . S
H886 C883 0.950 . S
C887 C878 1.390 . S
C887 H880 0.950 . S
C887 C884 1.387 . S
C888 C889 1.387 . S
C888 H892 0.950 . S
C888 C897 1.390 . S
C889 C888 1.387 . S
C889 C891 1.387 . S
H890 C897 0.950 . S
C891 C889 1.387 . S
C891 C893 1.390 . S
C891 H895 0.950 . S
H892 C888 0.950 . S
C893 C891 1.390 . S
C893 C894 1.387 . S
C893 H896 0.950 . S
C894 C893 1.387 . S
C894 C897 1.387 . S
H895 C891 0.950 . S
H896 C893 0.950 . S
C897 C888 1.390 . S
C897 H890 0.950 . S
C897 C894 1.387 . S
C898 C899 1.387 . S
C898 H902 0.950 . S
C898 C907 1.390 . S
C899 C898 1.387 . S
C899 C901 1.387 . S
H900 C907 0.950 . S
C901 C899 1.387 . S
C901 C903 1.390 . S
C901 H905 0.950 . S
H902 C898 0.950 . S
C903 C901 1.390 . S
C903 C904 1.387 . S
C903 H906 0.950 . S
C904 C903 1.387 . S
C904 C907 1.387 . S
H905 C901 0.950 . S
H906 C903 0.950 . S
C907 C898 1.390 . S
C907 H900 0.950 . S
C907 C904 1.387 . S
C908 C909 1.387 . S
C908 H912 0.950 . S
C908 C917 1.390 . S
C909 C908 1.387 . S
C909 C911 1.387 . S
H910 C917 0.950 . S
C911 C909 1.387 . S
C911 C913 1.390 . S
C911 H915 0.950 . S
H912 C908 0.950 . S
C913 C911 1.390 . S
C913 C914 1.387 . S
C913 H916 0.950 . S
C914 C913 1.387 . S
C914 C917 1.387 . S
H915 C911 0.950 . S
H916 C913 0.950 . S
C917 C908 1.390 . S
C917 H910 0.950 . S
C917 C914 1.387 . S
C918 C919 1.387 . S
C918 H922 0.950 . S
C918 C927 1.390 1_556 S
C919 C918 1.387 . S
C919 C921 1.387 . S
H920 C927 0.950 . S
C921 C919 1.387 . S
C921 C923 1.390 1_556 S
C921 H925 0.950 . S
H922 C918 0.950 . S
C923 C921 1.390 1_554 S
C923 C924 1.387 . S
C923 H926 0.950 . S
C924 C923 1.387 . S
C924 C927 1.387 . S
H925 C921 0.950 . S
H926 C923 0.950 . S
C927 C918 1.390 1_554 S
C927 H920 0.950 . S
C927 C924 1.387 . S
C928 C929 1.387 . S
C928 H932 0.950 . S
C928 C937 1.390 . S
C929 C928 1.387 . S
C929 C931 1.387 . S
H930 C937 0.950 . S
C931 C929 1.387 . S
C931 C933 1.390 . S
C931 H935 0.950 . S
H932 C928 0.950 . S
C933 C931 1.390 . S
C933 C934 1.387 . S
C933 H936 0.950 . S
C934 C933 1.387 . S
C934 C937 1.387 . S
H935 C931 0.950 . S
H936 C933 0.950 . S
C937 C928 1.390 . S
C937 H930 0.950 . S
C937 C934 1.387 . S
C938 C939 1.387 . S
C938 H942 0.950 . S
C938 C947 1.390 . S
C939 C938 1.387 . S
C939 C941 1.387 . S
H940 C947 0.950 . S
C941 C939 1.387 . S
C941 C943 1.390 . S
C941 H945 0.950 . S
H942 C938 0.950 . S
C943 C941 1.390 . S
C943 C944 1.387 . S
C943 H946 0.950 . S
C944 C943 1.387 . S
C944 C947 1.387 . S
H945 C941 0.950 . S
H946 C943 0.950 . S
C947 C938 1.390 . S
C947 H940 0.950 . S
C947 C944 1.387 . S
C948 C949 1.387 . S
C948 H952 0.950 . S
C948 C957 1.390 . S
C949 C948 1.387 . S
C949 C951 1.387 . S
H950 C957 0.950 . S
C951 C949 1.387 . S
C951 C953 1.390 . S
C951 H955 0.950 . S
H952 C948 0.950 . S
C953 C951 1.390 . S
C953 C954 1.387 . S
C953 H956 0.950 . S
C954 C953 1.387 . S
C954 C957 1.387 . S
H955 C951 0.950 . S
H956 C953 0.950 . S
C957 C948 1.390 . S
C957 H950 0.950 . S
C957 C954 1.387 . S
C958 C959 1.387 . S
C958 H962 0.950 . S
C958 C967 1.390 . S
C959 C958 1.387 . S
C959 C961 1.387 . S
H960 C967 0.950 . S
C961 C959 1.387 . S
C961 C963 1.390 . S
C961 H965 0.950 . S
H962 C958 0.950 . S
C963 C961 1.390 . S
C963 C964 1.387 . S
C963 H966 0.950 . S
C964 C963 1.387 . S
C964 C967 1.387 . S
H965 C961 0.950 . S
H966 C963 0.950 . S
C967 C958 1.390 . S
C967 H960 0.950 . S
C967 C964 1.387 . S
C968 C969 1.387 . S
C968 H972 0.950 . S
C968 C977 1.390 . S
C969 C968 1.387 . S
C969 C971 1.387 . S
H970 C977 0.950 . S
C971 C969 1.387 . S
C971 C973 1.390 . S
C971 H975 0.950 . S
H972 C968 0.950 . S
C973 C971 1.390 . S
C973 C974 1.387 . S
C973 H976 0.950 . S
C974 C973 1.387 . S
C974 C977 1.387 . S
H975 C971 0.950 . S
H976 C973 0.950 . S
C977 C968 1.390 . S
C977 H970 0.950 . S
C977 C974 1.387 . S
C978 C979 1.387 . S
C978 H982 0.950 . S
C978 C987 1.390 . S
C979 C978 1.387 . S
C979 C981 1.387 . S
H980 C987 0.950 . S
C981 C979 1.387 . S
C981 C983 1.390 . S
C981 H985 0.950 . S
H982 C978 0.950 . S
C983 C981 1.390 . S
C983 C984 1.387 . S
C983 H986 0.950 . S
C984 C983 1.387 . S
C984 C987 1.387 . S
H985 C981 0.950 . S
H986 C983 0.950 . S
C987 C978 1.390 . S
C987 H980 0.950 . S
C987 C984 1.387 . S
C988 C989 1.387 1_556 S
C988 H992 0.950 1_556 S
C988 C997 1.390 . S
C989 C988 1.387 1_554 S
C989 C991 1.387 1_554 S
H990 C997 0.950 . S
C991 C989 1.387 1_556 S
C991 C993 1.390 . S
C991 H995 0.950 . S
H992 C988 0.950 1_554 S
C993 C991 1.390 . S
C993 C994 1.387 . S
C993 H996 0.950 . S
C994 C993 1.387 . S
C994 C997 1.387 . S
H995 C991 0.950 . S
H996 C993 0.950 . S
C997 C988 1.390 . S
C997 H990 0.950 . S
C997 C994 1.387 . S
C998 C999 1.387 . S
C998 H1002 0.950 . S
C998 C1007 1.390 . S
C999 C998 1.387 . S
C999 C1001 1.387 . S
H1000 C1007 0.950 . S
C1001 C999 1.387 . S
C1001 C1003 1.390 . S
C1001 H1005 0.950 . S
H1002 C998 0.950 . S
C1003 C1001 1.390 . S
C1003 C1004 1.387 . S
C1003 H1006 0.950 . S
C1004 C1003 1.387 . S
C1004 C1007 1.387 . S
H1005 C1001 0.950 . S
H1006 C1003 0.950 . S
C1007 C998 1.390 . S
C1007 H1000 0.950 . S
C1007 C1004 1.387 . S
C774 C754 1.826 . S
C769 C1 1.369 . S
C779 C169 1.601 . S
C784 C695 1.862 . S
C789 C283 1.639 . S
C794 C698 1.911 . S
C799 C397 1.400 . S
C804 C712 1.685 . S
C814 C737 1.730 . S
C809 C457 1.301 . S
C819 C571 1.239 . S
C824 C740 1.631 . S
C829 C115 1.306 . S
C834 C709 1.724 . S
C839 C229 1.255 . S
C844 C723 1.692 . S
C849 C343 1.208 . S
C854 C726 1.564 . S
C864 C751 1.780 . S
C859 C511 1.546 . S
C874 C765 1.790 . S
C869 C625 1.519 . S
C884 C684 1.882 . S
C879 C55 1.612 . S
C889 C29 1.159 . S
C894 C707 1.447 . S
C899 C125 0.924 . S
C904 C721 1.521 . S
C914 C731 1.477 . S
C909 C239 0.893 . S
C919 C353 0.866 . S
C924 C749 1.451 . S
C934 C763 1.435 . S
C929 C485 1.084 . S
C944 C689 1.483 . S
C939 C599 1.174 . S
C954 C759 1.508 . S
C949 C143 1.185 . S
C959 C257 1.145 . S
C964 C693 1.493 . S
C974 C703 1.442 . S
C969 C371 1.152 . S
C979 C467 0.969 . S
C984 C717 1.504 . S
C989 C581 0.896 . S
C994 C735 1.474 . S
C999 C11 0.930 . S
C1004 C745 1.537 . S
