# Generated by pormake.
# Topology tsx, (6,3)-cn, num edge types: 1
# Building blocks:
#     Node 0, Type 0, BuildingBlock: CIFDUS_clean_sbu_1, # of connection points: 6
#     Node 1, Type 0, BuildingBlock: CIFDUS_clean_sbu_1, # of connection points: 6
#     Node 2, Type 1, BuildingBlock: PAMTOO_clean_linker_0, # of connection points: 3
#     Node 3, Type 1, BuildingBlock: PAMTOO_clean_linker_0, # of connection points: 3
#     Node 4, Type 1, BuildingBlock: PAMTOO_clean_linker_0, # of connection points: 3
#     Node 5, Type 1, BuildingBlock: PAMTOO_clean_linker_0, # of connection points: 3
#     Edge 6, Type (0, 1), BuildingBlock: XUDNAN_clean_linker_2, # of connection points: 2
#     Edge 7, Type (0, 1), BuildingBlock: XUDNAN_clean_linker_2, # of connection points: 2
#     Edge 8, Type (0, 1), BuildingBlock: XUDNAN_clean_linker_2, # of connection points: 2
#     Edge 9, Type (0, 1), BuildingBlock: XUDNAN_clean_linker_2, # of connection points: 2
#     Edge 10, Type (0, 1), BuildingBlock: XUDNAN_clean_linker_2, # of connection points: 2
#     Edge 11, Type (0, 1), BuildingBlock: XUDNAN_clean_linker_2, # of connection points: 2
#     Edge 12, Type (0, 1), BuildingBlock: XUDNAN_clean_linker_2, # of connection points: 2
#     Edge 13, Type (0, 1), BuildingBlock: XUDNAN_clean_linker_2, # of connection points: 2
#     Edge 14, Type (0, 1), BuildingBlock: XUDNAN_clean_linker_2, # of connection points: 2
#     Edge 15, Type (0, 1), BuildingBlock: XUDNAN_clean_linker_2, # of connection points: 2
#     Edge 16, Type (0, 1), BuildingBlock: XUDNAN_clean_linker_2, # of connection points: 2
#     Edge 17, Type (0, 1), BuildingBlock: XUDNAN_clean_linker_2, # of connection points: 2
# Relax obj value: 0.125
# Max RMSD: 0.144
# Mean RMSD: 0.136
data_MOF--net-tsx--node1-CIFDUS_clean_sbu_1--node2-PAMTOO_clean_linker_0--edge1-XUDNAN_clean_linker_2
_symmetry_space_group_name_H-M    P1
_symmetry_Int_Tables_number       1
_symmetry_cell_setting            triclinic
loop_
_symmetry_equiv_pos_as_xyz
'x, y, z'
_cell_length_a     18.438595
_cell_length_b     22.644636
_cell_length_c     34.227694
_cell_angle_alpha  88.888917
_cell_angle_beta   91.305315
_cell_angle_gamma 90.992575
loop_
_atom_site_label
_atom_site_type_symbol
_atom_site_fract_x
_atom_site_fract_y
_atom_site_fract_z
_atom_type_partial_charge
O0 O 0.02494 0.12336 -0.00167 0.0
Mn1 Mn 0.0771 0.04 -0.0022 0.0
O2 O 0.90988 0.0991 -0.00137 0.0
Mn3 Mn 0.93129 0.04266 0.96299 0.0
O4 O 0.13282 0.96021 -0.00486 0.0
O5 O 0.17148 0.08543 0.00834 0.0
Mn6 Mn 0.22148 0.04454 0.04427 0.0
O7 O 0.06063 0.02717 0.05753 0.0
O8 O 0.24177 0.9713 0.02505 0.0
O9 O 0.09124 0.05289 0.93793 0.0
O10 O 0.97598 0.06448 0.91688 0.0
O11 O 0.27857 0.1089 0.03324 0.0
O12 O 0.16731 0.04395 0.0889 0.0
C13 C 0.9247 0.95671 0.98167 0.0
C14 C 0.95868 0.13815 0.00236 0.0
C15 C 0.19555 0.94069 0.00576 0.0
C16 C 0.22466 0.12375 0.01042 0.0
C17 C 0.09949 0.03275 0.08886 0.0
C18 C 0.04379 0.06415 0.91092 0.0
O19 O 0.98376 0.98895 0.98793 0.0
O20 O 0.87189 0.98003 0.96138 0.0
O21 O 0.52826 0.6257 0.4998 0.0
Mn22 Mn 0.57656 0.54099 0.49822 0.0
O23 O 0.40993 0.61086 0.49326 0.0
Mn24 Mn 0.42936 0.54734 0.46351 0.0
O25 O 0.62877 0.45859 0.49482 0.0
O26 O 0.67275 0.58505 0.50538 0.0
Mn27 Mn 0.73025 0.54265 0.53646 0.0
O28 O 0.56738 0.53286 0.55885 0.0
O29 O 0.74589 0.47228 0.51268 0.0
O30 O 0.58691 0.5494 0.43822 0.0
O31 O 0.47294 0.56258 0.41583 0.0
O32 O 0.78193 0.61058 0.52415 0.0
O33 O 0.68209 0.53685 0.58347 0.0
C34 C 0.41881 0.4626 0.48641 0.0
C35 C 0.46297 0.6444 0.50143 0.0
C36 C 0.6945 0.44034 0.49892 0.0
C37 C 0.72279 0.62614 0.50598 0.0
C38 C 0.61354 0.53243 0.58759 0.0
C39 C 0.54087 0.55955 0.41047 0.0
O40 O 0.47962 0.49342 0.49082 0.0
O41 O 0.36581 0.48725 0.46706 0.0
H42 H 0.14143 0.90598 0.37119 0.0
H43 H 1.00061 0.05436 0.37233 0.0
H44 H 0.11385 1.00136 0.4779 0.0
H45 H 0.93396 0.04483 0.47966 0.0
C46 C 0.9408 0.06756 0.4516 0.0
O47 O 1.0143 0.07388 0.44529 0.0
H48 H 0.91408 0.03801 0.42969 0.0
C49 C 0.11522 0.93998 0.38742 0.0
C50 C 0.13558 0.94946 0.42676 0.0
C51 C 0.06774 0.97821 0.36764 0.0
C52 C 0.03701 0.02413 0.38758 0.0
C53 C 0.05043 0.03098 0.42736 0.0
C54 C 0.1001 0.99369 0.44746 0.0
H55 H 0.10541 0.18682 0.62359 0.0
H56 H 0.98358 0.02565 0.62466 0.0
H57 H 0.05918 0.09556 0.51574 0.0
H58 H 0.87245 0.05545 0.53029 0.0
C59 C 0.89371 0.02216 0.55144 0.0
O60 O 0.96889 0.01816 0.54965 0.0
H61 H 0.87881 0.03895 0.58049 0.0
C62 C 0.08397 0.15012 0.60725 0.0
C63 C 0.09554 0.14566 0.56682 0.0
C64 C 0.04624 0.10637 0.62828 0.0
C65 C 1.0139 0.0592 0.6086 0.0
C66 C 1.01335 0.05819 0.56786 0.0
C67 C 0.05632 0.09995 0.54692 0.0
H68 H 0.67289 0.44134 0.86856 0.0
H69 H 0.54629 0.59529 0.88256 0.0
H70 H 0.57999 0.47664 0.98052 0.0
H71 H 0.40323 0.54128 0.95629 0.0
C72 C 0.4366 0.57288 0.93971 0.0
O73 O 0.50869 0.5722 0.95265 0.0
H74 H 0.43126 0.55747 0.90903 0.0
C75 C 0.64105 0.46839 0.88727 0.0
C76 C 0.63237 0.4526 0.92706 0.0
C77 C 0.60908 0.51867 0.87085 0.0
C78 C 0.57211 0.55634 0.89494 0.0
C79 C 0.55851 0.54049 0.93374 0.0
C80 C 0.59002 0.48898 0.95038 0.0
H81 H 0.59735 0.67889 0.13379 0.0
H82 H 0.49121 0.51307 0.11311 0.0
H83 H 0.58052 0.61107 0.01671 0.0
H84 H 0.39175 0.55096 0.01737 0.0
C85 C 0.41574 0.51636 0.03642 0.0
O86 O 0.49084 0.52199 0.03768 0.0
H87 H 0.39331 0.52471 0.06569 0.0
C88 C 0.57935 0.64564 0.11327 0.0
C89 C 0.60077 0.64915 0.07406 0.0
C90 C 0.54491 0.5949 0.12787 0.0
C91 C 0.51839 0.55256 0.102 0.0
C92 C 0.52473 0.56122 0.06172 0.0
C93 C 0.56854 0.60851 0.04748 0.0
H94 H 0.19083 0.21461 0.05364 0.0
H95 H 0.26561 0.16901 0.93954 0.0
H96 H 0.31973 0.26942 0.93153 0.0
H97 H 0.16212 0.37735 0.03816 0.0
H98 H 0.20008 0.39189 0.0861 0.0
H99 H 0.15166 0.32351 0.07725 0.0
H100 H 0.26418 0.2669 0.10374 0.0
H101 H 0.31436 0.33485 0.11068 0.0
H102 H 0.35016 0.27844 0.08051 0.0
H103 H 0.39154 0.36468 0.94415 0.0
H104 H 0.45085 0.45485 0.96951 0.0
H105 H 0.32653 0.43814 0.07508 0.0
C106 C 0.21391 0.22737 0.02582 0.0
C107 C 0.2218 0.18521 -0.00344 0.0
C108 C 0.2567 0.20166 0.96156 0.0
C109 C 0.28873 0.25821 0.95718 0.0
C110 C 0.28558 0.29711 0.98828 0.0
C111 C 0.24745 0.28277 0.02158 0.0
C112 C 0.26046 0.32799 0.05308 0.0
C113 C 0.18932 0.35692 0.06427 0.0
C114 C 0.29956 0.30037 0.08911 0.0
C115 C 0.31009 0.37099 0.03208 0.0
C116 C 0.3256 0.35193 -0.00487 0.0
C117 C 0.37709 0.38123 0.97233 0.0
C118 C 0.41045 0.43278 0.98696 0.0
C119 C 0.39063 0.45564 0.0234 0.0
C120 C 0.34121 0.42305 0.04653 0.0
H121 H 0.28654 0.86174 0.04347 0.0
H122 H 0.15737 0.88963 0.93726 0.0
H123 H 0.20925 0.80066 0.90935 0.0
H124 H 0.44514 0.81054 0.00281 0.0
H125 H 0.46287 0.75235 0.03828 0.0
H126 H 0.41315 0.8162 0.05198 0.0
H127 H 0.30656 0.74948 0.07467 0.0
H128 H 0.35663 0.6853 0.0618 0.0
H129 H 0.26668 0.69647 0.0416 0.0
H130 H 0.28257 0.71787 0.88991 0.0
H131 H 0.35757 0.63017 0.88345 0.0
H132 H 0.43671 0.64908 0.00308 0.0
C133 C 0.26853 0.84837 0.01458 0.0
C134 C 0.21829 0.8826 -0.00775 0.0
C135 C 0.19537 0.86383 0.95479 0.0
C136 C 0.22493 0.81365 0.93863 0.0
C137 C 0.27601 0.78205 0.9607 0.0
C138 C 0.29615 0.79723 -0.00168 0.0
C139 C 0.35076 0.7538 0.01576 0.0
C140 C 0.42222 0.78513 0.02789 0.0
C141 C 0.3182 0.71921 0.05051 0.0
C142 C 0.36073 0.71399 0.98106 0.0
C143 C 0.3169 0.73153 0.94982 0.0
C144 C 0.31653 0.70305 0.91423 0.0
C145 C 0.3599 0.65363 0.91074 0.0
C146 C 0.40325 0.63291 0.9426 0.0
C147 C 0.40451 0.66412 0.97813 0.0
H148 H 0.85029 0.86879 0.94673 0.0
H149 H 0.96047 0.91523 0.05504 0.0
H150 H 0.89724 0.83204 0.08883 0.0
H151 H 0.68651 0.85045 0.984 0.0
H152 H 0.65489 0.78935 0.9548 0.0
H153 H 0.72331 0.83933 0.9364 0.0
H154 H 0.81119 0.75324 0.92664 0.0
H155 H 0.74184 0.70229 0.94345 0.0
H156 H 0.83053 0.70278 0.96673 0.0
H157 H 0.81212 0.75284 0.1113 0.0
H158 H 0.71259 0.68443 0.12354 0.0
H159 H 0.63976 0.7012 0.00188 0.0
C160 C 0.8639 0.85937 0.97715 0.0
C161 C 0.91152 0.89726 -0.00168 0.0
C162 C 0.92645 0.88524 0.03824 0.0
C163 C 0.88993 0.83857 0.05759 0.0
C164 C 0.83931 0.80461 0.03629 0.0
C165 C 0.82688 0.81399 -0.00319 0.0
C166 C 0.76269 0.77727 0.9818 0.0
C167 C 0.70336 0.81647 0.96319 0.0
C168 C 0.78806 0.73114 0.95294 0.0
C169 C 0.73801 0.74802 0.01951 0.0
C170 C 0.78466 0.76313 0.05011 0.0
C171 C 0.7748 0.74138 0.08767 0.0
C172 C 0.71603 0.70327 0.09438 0.0
C173 C 0.66422 0.68903 0.06424 0.0
C174 C 0.6767 0.71132 0.02593 0.0
H175 H 0.91765 0.2395 0.04269 0.0
H176 H 0.93953 0.16602 0.92755 0.0
H177 H 0.84359 0.22952 0.90178 0.0
H178 H 0.73788 0.27117 0.0441 0.0
H179 H 0.74201 0.34574 0.06166 0.0
H180 H 0.81462 0.29574 0.07345 0.0
H181 H 0.90911 0.36781 0.04336 0.0
H182 H 0.83745 0.41948 0.03329 0.0
H183 H 0.8942 0.39644 -0.00561 0.0
H184 H 0.72179 0.2723 0.89609 0.0
H185 H 0.62902 0.34808 0.89008 0.0
H186 H 0.71038 0.42723 -0.00247 0.0
C187 C 0.90501 0.23929 0.01166 0.0
C188 C 0.93476 0.19625 0.98728 0.0
C189 C 0.91708 0.19766 0.94683 0.0
C190 C 0.86153 0.2329 0.932 0.0
C191 C 0.82842 0.27048 0.95733 0.0
C192 C 0.85384 0.27885 -0.00496 0.0
C193 C 0.81387 0.32986 0.01312 0.0
C194 C 0.77476 0.30937 0.05029 0.0
C195 C 0.8668 0.38148 0.02153 0.0
C196 C 0.75981 0.34566 0.98009 0.0
C197 C 0.76737 0.30762 0.94953 0.0
C198 C 0.71849 0.30562 0.9182 0.0
C199 C 0.66578 0.34875 0.91523 0.0
C200 C 0.66626 0.39647 0.94144 0.0
C201 C 0.71057 0.3928 0.97603 0.0
H202 H 0.79871 0.70459 0.45996 0.0
H203 H 0.6276 0.69062 0.54432 0.0
H204 H 0.6484 0.79468 0.56128 0.0
H205 H 0.91959 0.78219 0.50633 0.0
H206 H 0.94863 0.83496 0.4695 0.0
H207 H 0.90915 0.76537 0.45518 0.0
H208 H 0.81064 0.81765 0.41319 0.0
H209 H 0.85184 0.88775 0.42586 0.0
H210 H 0.75697 0.8739 0.43448 0.0
H211 H 0.70928 0.88636 0.5822 0.0
H212 H 0.78442 0.97497 0.59433 0.0
H213 H 0.9126 0.93784 0.49314 0.0
C214 C 0.76226 0.72492 0.47988 0.0
C215 C 0.71025 0.68991 0.50021 0.0
C216 C 0.66558 0.717 0.52738 0.0
C217 C 0.67796 0.776 0.53766 0.0
C218 C 0.73329 0.80804 0.51933 0.0
C219 C 0.7722 0.78482 0.4894 0.0
C220 C 0.8308 0.82871 0.47598 0.0
C221 C 0.9065 0.80111 0.47686 0.0
C222 C 0.81143 0.85347 0.43495 0.0
C223 C 0.82461 0.8764 0.50645 0.0
C224 C 0.76697 0.86369 0.53056 0.0
C225 C 0.75286 0.89796 0.56271 0.0
C226 C 0.79659 0.94789 0.56966 0.0
C227 C 0.8546 0.9635 0.54489 0.0
C228 C 0.86877 0.92709 0.51269 0.0
H229 H 0.78033 0.36286 0.53916 0.0
H230 H 0.65673 0.38525 0.43081 0.0
H231 H 0.71071 0.29416 0.40571 0.0
H232 H 0.9412 0.31128 0.50054 0.0
H233 H 0.95916 0.25696 0.53858 0.0
H234 H 0.90838 0.32175 0.5491 0.0
H235 H 0.80188 0.25658 0.57415 0.0
H236 H 0.85304 0.19156 0.56456 0.0
H237 H 0.76337 0.19993 0.54331 0.0
H238 H 0.78769 0.20633 0.39045 0.0
H239 H 0.86387 0.11738 0.39027 0.0
H240 H 0.9327 0.15002 0.5099 0.0
C241 C 0.76354 0.34775 0.51044 0.0
C242 C 0.7142 0.38064 0.48682 0.0
C243 C 0.69358 0.36003 0.44943 0.0
C244 C 0.7246 0.30882 0.43487 0.0
C245 C 0.77502 0.27844 0.45843 0.0
C246 C 0.79283 0.29626 0.49586 0.0
C247 C 0.8473 0.2552 0.51557 0.0
C248 C 0.9182 0.2883 0.52657 0.0
C249 C 0.81441 0.22396 0.55152 0.0
C250 C 0.85869 0.21217 0.48303 0.0
C251 C 0.81702 0.22666 0.45022 0.0
C252 C 0.81948 0.194 0.4162 0.0
C253 C 0.86314 0.1438 0.41629 0.0
C254 C 0.90307 0.12631 0.4503 0.0
C255 C 0.90229 0.16201 0.48366 0.0
H256 H 0.39425 0.40837 0.55793 0.0
H257 H 0.41007 0.37709 0.4341 0.0
H258 H 0.32849 0.29036 0.44035 0.0
H259 H 0.38461 0.23968 0.58475 0.0
H260 H 0.32599 0.25413 0.62475 0.0
H261 H 0.39523 0.30739 0.61131 0.0
H262 H 0.29637 0.38673 0.60464 0.0
H263 H 0.22626 0.33337 0.61592 0.0
H264 H 0.22094 0.37585 0.5709 0.0
H265 H 0.21865 0.22584 0.45716 0.0
H266 H 0.1227 0.16459 0.48671 0.0
H267 H 0.19801 0.22456 0.60145 0.0
C268 C 0.38478 0.38073 0.53279 0.0
C269 C 0.40914 0.39911 0.49554 0.0
C270 C 0.39312 0.36305 0.463 0.0
C271 C 0.34564 0.31427 0.46612 0.0
C272 C 0.31726 0.30018 0.50248 0.0
C273 C 0.33974 0.32994 0.53575 0.0
C274 C 0.30093 0.30515 0.57125 0.0
C275 C 0.35491 0.27478 0.59969 0.0
C276 C 0.25863 0.35316 0.59184 0.0
C277 C 0.25003 0.26019 0.55214 0.0
C278 C 0.25935 0.25846 0.51249 0.0
C279 C 0.21315 0.22467 0.48858 0.0
C280 C 0.15822 0.18959 0.50595 0.0
C281 C 0.15026 0.18714 0.54724 0.0
C282 C 0.19813 0.22379 0.57006 0.0
H283 H 0.36084 0.70181 0.54164 0.0
H284 H 0.52101 0.72583 0.45195 0.0
H285 H 0.46052 0.81683 0.42898 0.0
H286 H 0.21431 0.73588 0.49037 0.0
H287 H 0.16719 0.7781 0.52572 0.0
H288 H 0.23216 0.72424 0.54195 0.0
H289 H 0.30515 0.80321 0.58059 0.0
H290 H 0.23885 0.85731 0.56561 0.0
H291 H 0.33356 0.87064 0.5562 0.0
H292 H 0.37201 0.89194 0.40817 0.0
H293 H 0.26473 0.95097 0.39206 0.0
H294 H 0.15725 0.88006 0.49465 0.0
C295 C 0.38564 0.72854 0.51884 0.0
C296 C 0.44698 0.70797 0.49938 0.0
C297 C 0.47616 0.74217 0.46833 0.0
C298 C 0.44149 0.79359 0.45481 0.0
C299 C 0.37895 0.81111 0.47339 0.0
C300 C 0.35224 0.7806 0.50544 0.0
C301 C 0.28042 0.80588 0.51772 0.0
C302 C 0.21998 0.75817 0.51895 0.0
C303 C 0.29003 0.83605 0.55739 0.0
C304 C 0.26722 0.85136 0.48517 0.0
C305 C 0.32619 0.85467 0.46081 0.0
C306 C 0.32633 0.89064 0.42747 0.0
C307 C 0.26479 0.92376 0.41845 0.0
C308 C 0.20252 0.92009 0.44198 0.0
C309 C 0.20435 0.88435 0.47642 0.0
H310 H 0.10205 0.10276 0.15203 0.0
H311 H 0.03325 0.93054 0.11123 0.0
H312 H 1.00613 0.89891 0.17895 0.0
H313 H 0.19427 0.05643 0.23311 0.0
H314 H 0.1686 0.11467 0.2649 0.0
H315 H 0.16983 0.12774 0.21298 0.0
H316 H 0.03515 0.15897 0.2128 0.0
H317 H 0.03399 0.14707 0.26501 0.0
H318 H 0.96801 0.11003 0.23404 0.0
H319 H 1.00777 0.88116 0.25177 0.0
H320 H 0.02445 0.88295 0.32399 0.0
H321 H 0.08917 0.06761 0.31592 0.0
C322 C 0.07828 0.05934 0.15737 0.0
C323 C 0.06751 0.0194 0.12672 0.0
C324 C 0.03887 0.96221 0.1344 0.0
C325 C 0.02415 0.94378 0.17276 0.0
C326 C 0.03745 0.98361 0.2027 0.0
C327 C 0.0623 0.04072 0.19533 0.0
C328 C 0.07737 0.07349 0.23273 0.0
C329 C 0.15725 0.09424 0.23609 0.0
C330 C 0.02552 0.12546 0.23634 0.0
C331 C 0.06056 0.02508 0.26218 0.0
C332 C 0.03723 0.9736 0.24451 0.0
C333 C 0.02421 0.92163 0.26602 0.0
C334 C 0.03435 0.9228 0.30677 0.0
C335 C 0.05693 0.97561 0.32508 0.0
C336 C 0.07013 0.0271 0.30248 0.0
H337 H 0.08336 0.9947 0.85064 0.0
H338 H 0.04375 0.17519 0.88287 0.0
H339 H 0.03844 0.20538 0.81326 0.0
H340 H 0.19641 0.03483 0.76264 0.0
H341 H 0.15962 0.97342 0.73547 0.0
H342 H 0.16947 0.96764 0.7879 0.0
H343 H 0.03282 0.93963 0.7917 0.0
H344 H 0.02226 0.94739 0.73946 0.0
H345 H 0.9663 0.98929 0.77091 0.0
H346 H 0.01945 0.2133 0.7417 0.0
H347 H 1.01185 0.20292 0.67011 0.0
H348 H 0.07031 0.01858 0.68298 0.0
C349 C 0.07727 0.04098 0.84287 0.0
C350 C 0.06564 0.08316 0.87179 0.0
C351 C 0.05442 0.14284 0.8609 0.0
C352 C 0.05059 0.1602 0.82153 0.0
C353 C 0.05892 0.11729 0.79354 0.0
C354 C 0.07423 0.05924 0.8035 0.0
C355 C 0.07872 0.02196 0.76729 0.0
C356 C 0.15564 0.99807 0.76308 0.0
C357 C 0.0216 0.97161 0.76738 0.0
C358 C 0.0616 0.06786 0.73581 0.0
C359 C 0.04985 0.12237 0.75169 0.0
C360 C 0.03045 0.17126 0.72876 0.0
C361 C 0.02622 0.16495 0.68823 0.0
C362 C 0.0419 0.11031 0.67116 0.0
C363 C 0.05819 0.06087 0.69534 0.0
H364 H 0.57633 0.44653 0.64242 0.0
H365 H 0.60143 0.6353 0.62247 0.0
H366 H 0.59626 0.6515 0.69321 0.0
H367 H 0.45042 0.46415 0.73144 0.0
H368 H 0.48795 0.39968 0.75542 0.0
H369 H 0.4798 0.40339 0.70283 0.0
H370 H 0.61659 0.38214 0.69883 0.0
H371 H 0.62571 0.38037 0.75126 0.0
H372 H 0.6817 0.43033 0.72288 0.0
H373 H 0.61642 0.64672 0.76332 0.0
H374 H 0.63248 0.62386 0.83344 0.0
H375 H 0.58386 0.43882 0.81167 0.0
C376 C 0.57708 0.49124 0.6531 0.0
C377 C 0.58816 0.54002 0.62736 0.0
C378 C 0.59151 0.59785 0.64195 0.0
C379 C 0.58906 0.60739 0.68201 0.0
C380 C 0.58178 0.5586 0.70697 0.0
C381 C 0.57286 0.50174 0.69336 0.0
C382 C 0.56866 0.45754 0.72737 0.0
C383 C 0.49217 0.42955 0.72938 0.0
C384 C 0.62668 0.40983 0.72491 0.0
C385 C 0.58349 0.49825 0.7616 0.0
C386 C 0.59001 0.55628 0.74887 0.0
C387 C 0.6088 0.60184 0.77403 0.0
C388 C 0.61821 0.58842 0.81375 0.0
C389 C 0.60837 0.52997 0.82808 0.0
C390 C 0.59178 0.48403 0.80152 0.0
H391 H 0.5149 0.64638 0.35632 0.0
H392 H 0.61828 0.47729 0.37409 0.0
H393 H 0.6361 0.47088 0.30288 0.0
H394 H 0.41738 0.61801 0.27486 0.0
H395 H 0.43186 0.68713 0.24893 0.0
H396 H 0.43818 0.68444 0.30142 0.0
H397 H 0.56861 0.72882 0.30024 0.0
H398 H 0.56161 0.73365 0.24765 0.0
H399 H 0.63585 0.6949 0.27099 0.0
H400 H 0.62207 0.47423 0.23093 0.0
H401 H 0.59731 0.49482 0.16104 0.0
H402 H 0.50873 0.66475 0.18917 0.0
C403 C 0.54352 0.60915 0.34512 0.0
C404 C 0.56556 0.56236 0.37016 0.0
C405 C 0.60209 0.51377 0.35507 0.0
C406 C 0.61213 0.50973 0.3148 0.0
C407 C 0.58711 0.5555 0.29056 0.0
C408 C 0.5559 0.60533 0.30514 0.0
C409 C 0.53134 0.64704 0.27248 0.0
C410 C 0.44984 0.65984 0.27457 0.0
C411 C 0.57708 0.7045 0.27287 0.0
C412 C 0.54804 0.61049 0.23737 0.0
C413 C 0.58097 0.55822 0.24854 0.0
C414 C 0.59769 0.51548 0.22171 0.0
C415 C 0.5823 0.52712 0.18222 0.0
C416 C 0.5506 0.58103 0.17 0.0
C417 C 0.53302 0.6232 0.19793 0.0
loop_
_geom_bond_atom_site_label_1
_geom_bond_atom_site_label_2
_geom_bond_distance
_geom_bond_site_symmetry_2
_ccdc_geom_bond_type
O0 Mn1 2.163 . S
O0 C14 1.244 1_454 S
Mn1 O0 2.163 . S
Mn1 O4 2.160 1_544 S
Mn1 O5 2.221 . S
Mn1 O7 2.163 . S
Mn1 O9 2.160 1_554 S
Mn1 O19 2.221 1_444 S
O2 Mn3 2.087 . S
O2 C14 1.256 . S
Mn3 O2 2.087 . S
Mn3 O10 2.089 . S
Mn3 O19 2.290 1_545 S
Mn3 O20 2.271 1_545 S
O4 Mn1 2.160 1_566 S
O4 C15 1.239 1_556 S
O5 Mn1 2.221 . S
O5 Mn6 2.290 . S
O5 C16 1.278 . S
Mn6 O5 2.290 . S
Mn6 O8 2.089 1_545 S
Mn6 O11 2.251 . S
Mn6 O12 2.087 . S
O7 Mn1 2.163 . S
O7 C17 1.244 . S
O8 Mn6 2.089 1_565 S
O8 C15 1.256 . S
O9 Mn1 2.160 1_556 S
O9 C18 1.239 . S
O10 Mn3 2.089 . S
O10 C18 1.256 1_655 S
O11 Mn6 2.251 . S
O11 C16 1.241 . S
O12 Mn6 2.087 . S
O12 C17 1.256 . S
C13 O19 1.278 1_554 S
C13 O20 1.236 1_554 S
C14 O0 1.244 1_656 S
C14 O2 1.256 . S
C15 O4 1.239 1_554 S
C15 O8 1.256 . S
C16 O5 1.278 . S
C16 O11 1.241 . S
C17 O7 1.244 . S
C17 O12 1.256 . S
C18 O9 1.239 . S
C18 O10 1.256 1_455 S
O19 Mn1 2.221 1_666 S
O19 Mn3 2.290 1_565 S
O19 C13 1.278 1_556 S
O20 Mn3 2.271 1_565 S
O20 C13 1.236 1_556 S
O21 Mn22 2.163 . S
O21 C35 1.244 . S
Mn22 O21 2.163 . S
Mn22 O25 2.160 . S
Mn22 O26 2.221 . S
Mn22 O28 2.163 . S
Mn22 O30 2.160 . S
Mn22 O40 2.221 . S
O23 Mn24 2.087 . S
O23 C35 1.256 . S
Mn24 O23 2.087 . S
Mn24 O31 2.089 . S
Mn24 O40 2.290 . S
Mn24 O41 2.251 . S
O25 Mn22 2.160 . S
O25 C36 1.239 . S
O26 Mn22 2.221 . S
O26 Mn27 2.290 . S
O26 C37 1.278 . S
Mn27 O26 2.290 . S
Mn27 O29 2.089 . S
Mn27 O32 2.251 . S
Mn27 O33 2.087 . S
O28 Mn22 2.163 . S
O28 C38 1.244 . S
O29 Mn27 2.089 . S
O29 C36 1.256 . S
O30 Mn22 2.160 . S
O30 C39 1.239 . S
O31 Mn24 2.089 . S
O31 C39 1.256 . S
O32 Mn27 2.251 . S
O32 C37 1.241 . S
O33 Mn27 2.087 . S
O33 C38 1.256 . S
C34 O40 1.278 . S
C34 O41 1.241 . S
C35 O21 1.244 . S
C35 O23 1.256 . S
C36 O25 1.239 . S
C36 O29 1.256 . S
C37 O26 1.278 . S
C37 O32 1.241 . S
C38 O28 1.244 . S
C38 O33 1.256 . S
C39 O30 1.239 . S
C39 O31 1.256 . S
O40 Mn22 2.221 . S
O40 Mn24 2.290 . S
O40 C34 1.278 . S
O41 Mn24 2.251 . S
O41 C34 1.241 . S
H42 C49 0.929 . S
H43 C52 0.930 1_655 S
H44 C54 0.929 . S
H45 C46 0.969 . S
C46 H45 0.969 . S
C46 O47 1.550 1_655 S
C46 H48 0.973 . S
O47 C46 1.550 1_455 S
O47 C53 1.412 . S
H48 C46 0.973 . S
C49 H42 0.929 . S
C49 C50 1.400 . S
C49 C51 1.364 . S
C50 C49 1.400 . S
C50 C54 1.377 . S
C51 C49 1.364 . S
C51 C52 1.374 1_565 S
C52 H43 0.930 1_455 S
C52 C51 1.374 1_545 S
C52 C53 1.383 . S
C53 O47 1.412 . S
C53 C52 1.383 . S
C53 C54 1.394 1_545 S
C54 H44 0.929 . S
C54 C50 1.377 . S
C54 C53 1.394 1_565 S
H55 C62 0.929 . S
H56 C65 0.930 . S
H57 C67 0.929 . S
H58 C59 0.969 . S
C59 H58 0.969 . S
C59 O60 1.550 . S
C59 H61 0.973 1_545 S
O60 C59 1.550 . S
O60 C66 1.412 . S
H61 C59 0.973 1_565 S
C62 H55 0.929 . S
C62 C63 1.400 . S
C62 C64 1.364 . S
C63 C62 1.400 . S
C63 C67 1.377 . S
C64 C62 1.364 . S
C64 C65 1.374 1_455 S
C65 H56 0.930 . S
C65 C64 1.374 1_655 S
C65 C66 1.383 . S
C66 O60 1.412 . S
C66 C65 1.383 . S
C66 C67 1.394 1_655 S
C67 H57 0.929 . S
C67 C63 1.377 . S
C67 C66 1.394 1_455 S
H68 C75 0.929 . S
H69 C78 0.930 . S
H70 C80 0.929 1_554 S
H71 C72 0.969 . S
C72 H71 0.969 . S
C72 O73 1.550 . S
C72 H74 0.973 . S
O73 C72 1.550 . S
O73 C79 1.412 . S
H74 C72 0.973 . S
C75 H68 0.929 . S
C75 C76 1.400 . S
C75 C77 1.364 . S
C76 C75 1.400 . S
C76 C80 1.377 . S
C77 C75 1.364 . S
C77 C78 1.374 . S
C78 H69 0.930 . S
C78 C77 1.374 . S
C78 C79 1.383 . S
C79 O73 1.412 . S
C79 C78 1.383 . S
C79 C80 1.394 . S
C80 H70 0.929 1_556 S
C80 C76 1.377 . S
C80 C79 1.394 . S
H81 C88 0.929 . S
H82 C91 0.930 . S
H83 C93 0.929 . S
H84 C85 0.969 . S
C85 H84 0.969 . S
C85 O86 1.550 . S
C85 H87 0.973 . S
O86 C85 1.550 . S
O86 C92 1.412 . S
H87 C85 0.973 . S
C88 H81 0.929 . S
C88 C89 1.400 . S
C88 C90 1.364 . S
C89 C88 1.400 . S
C89 C93 1.377 . S
C90 C88 1.364 . S
C90 C91 1.374 . S
C91 H82 0.930 . S
C91 C90 1.374 . S
C91 C92 1.383 . S
C92 O86 1.412 . S
C92 C91 1.383 . S
C92 C93 1.394 . S
C93 H83 0.929 . S
C93 C89 1.377 . S
C93 C92 1.394 . S
H94 C106 0.930 . S
H95 C108 0.930 . S
H96 C109 0.930 . S
H97 C113 0.959 . S
H98 C113 0.959 . S
H99 C113 0.961 . S
H100 C114 0.960 . S
H101 C114 0.961 . S
H102 C114 0.959 . S
H103 C117 0.929 . S
H104 C118 0.931 . S
H105 C120 0.930 . S
C106 H94 0.930 . S
C106 C107 1.399 . S
C106 C111 1.399 . S
C107 C106 1.399 . S
C107 C108 1.376 1_554 S
C108 H95 0.930 . S
C108 C107 1.376 1_556 S
C108 C109 1.388 . S
C109 H96 0.930 . S
C109 C108 1.388 . S
C109 C110 1.390 . S
C110 C109 1.390 . S
C110 C111 1.394 1_556 S
C110 C116 1.463 1_556 S
C111 C106 1.399 . S
C111 C110 1.394 1_554 S
C111 C112 1.516 . S
C112 C111 1.516 . S
C112 C113 1.502 . S
C112 C114 1.561 . S
C112 C115 1.526 . S
C113 H97 0.959 . S
C113 H98 0.959 . S
C113 H99 0.961 . S
C113 C112 1.502 . S
C114 H100 0.960 . S
C114 H101 0.961 . S
C114 H102 0.959 . S
C114 C112 1.561 . S
C115 C112 1.526 . S
C115 C116 1.417 . S
C115 C120 1.390 . S
C116 C110 1.463 1_554 S
C116 C115 1.417 . S
C116 C117 1.384 1_554 S
C117 H103 0.929 . S
C117 C116 1.384 1_556 S
C117 C118 1.385 . S
C118 H104 0.931 . S
C118 C117 1.385 . S
C118 C119 1.389 1_556 S
C119 C118 1.389 1_554 S
C119 C120 1.387 . S
C120 H105 0.930 . S
C120 C115 1.390 . S
C120 C119 1.387 . S
H121 C133 0.930 . S
H122 C135 0.930 . S
H123 C136 0.930 . S
H124 C140 0.959 . S
H125 C140 0.959 . S
H126 C140 0.961 . S
H127 C141 0.960 . S
H128 C141 0.961 . S
H129 C141 0.959 . S
H130 C144 0.929 . S
H131 C145 0.931 . S
H132 C147 0.930 . S
C133 H121 0.930 . S
C133 C134 1.399 . S
C133 C138 1.399 . S
C134 C133 1.399 . S
C134 C135 1.376 1_554 S
C135 H122 0.930 . S
C135 C134 1.376 1_556 S
C135 C136 1.388 . S
C136 H123 0.930 . S
C136 C135 1.388 . S
C136 C137 1.390 . S
C137 C136 1.390 . S
C137 C138 1.394 1_556 S
C137 C143 1.465 . S
C138 C133 1.399 . S
C138 C137 1.394 1_554 S
C138 C139 1.516 . S
C139 C138 1.516 . S
C139 C140 1.502 . S
C139 C141 1.561 . S
C139 C142 1.526 . S
C140 H124 0.959 . S
C140 H125 0.959 . S
C140 H126 0.961 . S
C140 C139 1.502 . S
C141 H127 0.960 . S
C141 H128 0.961 . S
C141 H129 0.959 . S
C141 C139 1.561 . S
C142 C139 1.526 . S
C142 C143 1.396 1_554 S
C142 C147 1.390 . S
C143 C137 1.465 . S
C143 C142 1.396 1_556 S
C143 C144 1.399 . S
C144 H130 0.929 . S
C144 C143 1.399 . S
C144 C145 1.385 . S
C145 H131 0.931 . S
C145 C144 1.385 . S
C145 C146 1.389 . S
C146 C145 1.389 . S
C146 C147 1.387 1_556 S
C147 H132 0.930 . S
C147 C142 1.390 . S
C147 C146 1.387 1_554 S
H148 C160 0.920 1_556 S
H149 C162 0.930 . S
H150 C163 0.930 . S
H151 C167 0.959 . S
H152 C167 0.959 . S
H153 C167 0.961 . S
H154 C168 0.960 . S
H155 C168 0.961 . S
H156 C168 0.959 . S
H157 C171 0.929 . S
H158 C172 0.931 . S
H159 C174 0.930 1_556 S
C160 H148 0.920 1_554 S
C160 C161 1.406 . S
C160 C165 1.402 . S
C161 C160 1.406 . S
C161 C162 1.376 . S
C162 H149 0.930 . S
C162 C161 1.376 . S
C162 C163 1.388 . S
C163 H150 0.930 . S
C163 C162 1.388 . S
C163 C164 1.390 . S
C164 C163 1.390 . S
C164 C165 1.394 . S
C164 C170 1.465 . S
C165 C160 1.402 . S
C165 C164 1.394 . S
C165 C166 1.516 1_554 S
C166 C165 1.516 1_556 S
C166 C167 1.502 . S
C166 C168 1.561 . S
C166 C169 1.526 1_556 S
C167 H151 0.959 . S
C167 H152 0.959 . S
C167 H153 0.961 . S
C167 C166 1.502 . S
C168 H154 0.960 . S
C168 H155 0.961 . S
C168 H156 0.959 . S
C168 C166 1.561 . S
C169 C166 1.526 1_554 S
C169 C170 1.396 . S
C169 C174 1.390 . S
C170 C164 1.465 . S
C170 C169 1.396 . S
C170 C171 1.399 . S
C171 H157 0.929 . S
C171 C170 1.399 . S
C171 C172 1.385 . S
C172 H158 0.931 . S
C172 C171 1.385 . S
C172 C173 1.389 . S
C173 C172 1.389 . S
C173 C174 1.387 . S
C174 H159 0.930 1_554 S
C174 C169 1.390 . S
C174 C173 1.387 . S
H175 C187 0.930 . S
H176 C189 0.930 . S
H177 C190 0.930 . S
H178 C194 0.959 . S
H179 C194 0.959 . S
H180 C194 0.961 . S
H181 C195 0.960 . S
H182 C195 0.961 . S
H183 C195 0.959 . S
H184 C198 0.929 . S
H185 C199 0.931 . S
H186 C201 0.930 1_554 S
C187 H175 0.930 . S
C187 C188 1.399 1_554 S
C187 C192 1.395 1_554 S
C188 C187 1.399 1_556 S
C188 C189 1.376 . S
C189 H176 0.930 . S
C189 C188 1.376 . S
C189 C190 1.388 . S
C190 H177 0.930 . S
C190 C189 1.388 . S
C190 C191 1.390 . S
C191 C190 1.390 . S
C191 C192 1.406 . S
C191 C197 1.465 . S
C192 C187 1.395 1_556 S
C192 C191 1.406 . S
C192 C193 1.510 1_556 S
C193 C192 1.510 1_554 S
C193 C194 1.502 . S
C193 C195 1.561 . S
C193 C196 1.526 1_554 S
C194 H178 0.959 . S
C194 H179 0.959 . S
C194 H180 0.961 . S
C194 C193 1.502 . S
C195 H181 0.960 . S
C195 H182 0.961 . S
C195 H183 0.959 . S
C195 C193 1.561 . S
C196 C193 1.526 1_556 S
C196 C197 1.396 . S
C196 C201 1.390 . S
C197 C191 1.465 . S
C197 C196 1.396 . S
C197 C198 1.399 . S
C198 H184 0.929 . S
C198 C197 1.399 . S
C198 C199 1.385 . S
C199 H185 0.931 . S
C199 C198 1.385 . S
C199 C200 1.389 . S
C200 C199 1.389 . S
C200 C201 1.387 . S
C201 H186 0.930 1_556 S
C201 C196 1.390 . S
C201 C200 1.387 . S
H202 C214 0.930 . S
H203 C216 0.930 . S
H204 C217 0.930 . S
H205 C221 0.959 . S
H206 C221 0.959 . S
H207 C221 0.961 . S
H208 C222 0.960 . S
H209 C222 0.961 . S
H210 C222 0.959 . S
H211 C225 0.929 . S
H212 C226 0.931 . S
H213 C228 0.930 . S
C214 H202 0.930 . S
C214 C215 1.399 . S
C214 C219 1.399 . S
C215 C214 1.399 . S
C215 C216 1.376 . S
C216 H203 0.930 . S
C216 C215 1.376 . S
C216 C217 1.388 . S
C217 H204 0.930 . S
C217 C216 1.388 . S
C217 C218 1.390 . S
C218 C217 1.390 . S
C218 C219 1.394 . S
C218 C224 1.465 . S
C219 C214 1.399 . S
C219 C218 1.394 . S
C219 C220 1.516 . S
C220 C219 1.516 . S
C220 C221 1.502 . S
C220 C222 1.561 . S
C220 C223 1.526 . S
C221 H205 0.959 . S
C221 H206 0.959 . S
C221 H207 0.961 . S
C221 C220 1.502 . S
C222 H208 0.960 . S
C222 H209 0.961 . S
C222 H210 0.959 . S
C222 C220 1.561 . S
C223 C220 1.526 . S
C223 C224 1.396 . S
C223 C228 1.390 . S
C224 C218 1.465 . S
C224 C223 1.396 . S
C224 C225 1.399 . S
C225 H211 0.929 . S
C225 C224 1.399 . S
C225 C226 1.385 . S
C226 H212 0.931 . S
C226 C225 1.385 . S
C226 C227 1.389 . S
C227 C226 1.389 . S
C227 C228 1.387 . S
C228 H213 0.930 . S
C228 C223 1.390 . S
C228 C227 1.387 . S
H229 C241 0.930 . S
H230 C243 0.930 . S
H231 C244 0.930 . S
H232 C248 0.959 . S
H233 C248 0.959 . S
H234 C248 0.961 . S
H235 C249 0.960 . S
H236 C249 0.961 . S
H237 C249 0.959 . S
H238 C252 0.929 . S
H239 C253 0.931 . S
H240 C255 0.930 . S
C241 H229 0.930 . S
C241 C242 1.399 . S
C241 C246 1.399 . S
C242 C241 1.399 . S
C242 C243 1.376 . S
C243 H230 0.930 . S
C243 C242 1.376 . S
C243 C244 1.388 . S
C244 H231 0.930 . S
C244 C243 1.388 . S
C244 C245 1.390 . S
C245 C244 1.390 . S
C245 C246 1.394 . S
C245 C251 1.465 . S
C246 C241 1.399 . S
C246 C245 1.394 . S
C246 C247 1.516 . S
C247 C246 1.516 . S
C247 C248 1.502 . S
C247 C249 1.561 . S
C247 C250 1.526 . S
C248 H232 0.959 . S
C248 H233 0.959 . S
C248 H234 0.961 . S
C248 C247 1.502 . S
C249 H235 0.960 . S
C249 H236 0.961 . S
C249 H237 0.959 . S
C249 C247 1.561 . S
C250 C247 1.526 . S
C250 C251 1.396 . S
C250 C255 1.390 . S
C251 C245 1.465 . S
C251 C250 1.396 . S
C251 C252 1.399 . S
C252 H238 0.929 . S
C252 C251 1.399 . S
C252 C253 1.385 . S
C253 H239 0.931 . S
C253 C252 1.385 . S
C253 C254 1.389 . S
C254 C253 1.389 . S
C254 C255 1.387 . S
C255 H240 0.930 . S
C255 C250 1.390 . S
C255 C254 1.387 . S
H256 C268 0.930 . S
H257 C270 0.930 . S
H258 C271 0.930 . S
H259 C275 0.959 . S
H260 C275 0.959 . S
H261 C275 0.961 . S
H262 C276 0.960 . S
H263 C276 0.961 . S
H264 C276 0.959 . S
H265 C279 0.929 . S
H266 C280 0.931 . S
H267 C282 0.930 . S
C268 H256 0.930 . S
C268 C269 1.399 . S
C268 C273 1.399 . S
C269 C268 1.399 . S
C269 C270 1.376 . S
C270 H257 0.930 . S
C270 C269 1.376 . S
C270 C271 1.388 . S
C271 H258 0.930 . S
C271 C270 1.388 . S
C271 C272 1.390 . S
C272 C271 1.390 . S
C272 C273 1.394 . S
C272 C278 1.465 . S
C273 C268 1.399 . S
C273 C272 1.394 . S
C273 C274 1.516 . S
C274 C273 1.516 . S
C274 C275 1.502 . S
C274 C276 1.561 . S
C274 C277 1.526 . S
C275 H259 0.959 . S
C275 H260 0.959 . S
C275 H261 0.961 . S
C275 C274 1.502 . S
C276 H262 0.960 . S
C276 H263 0.961 . S
C276 H264 0.959 . S
C276 C274 1.561 . S
C277 C274 1.526 . S
C277 C278 1.396 . S
C277 C282 1.390 . S
C278 C272 1.465 . S
C278 C277 1.396 . S
C278 C279 1.399 . S
C279 H265 0.929 . S
C279 C278 1.399 . S
C279 C280 1.385 . S
C280 H266 0.931 . S
C280 C279 1.385 . S
C280 C281 1.389 . S
C281 C280 1.389 . S
C281 C282 1.387 . S
C282 H267 0.930 . S
C282 C277 1.390 . S
C282 C281 1.387 . S
H283 C295 0.930 . S
H284 C297 0.930 . S
H285 C298 0.930 . S
H286 C302 0.959 . S
H287 C302 0.959 . S
H288 C302 0.961 . S
H289 C303 0.960 . S
H290 C303 0.961 . S
H291 C303 0.959 . S
H292 C306 0.929 . S
H293 C307 0.931 . S
H294 C309 0.930 . S
C295 H283 0.930 . S
C295 C296 1.399 . S
C295 C300 1.399 . S
C296 C295 1.399 . S
C296 C297 1.376 . S
C297 H284 0.930 . S
C297 C296 1.376 . S
C297 C298 1.388 . S
C298 H285 0.930 . S
C298 C297 1.388 . S
C298 C299 1.390 . S
C299 C298 1.390 . S
C299 C300 1.394 . S
C299 C305 1.465 . S
C300 C295 1.399 . S
C300 C299 1.394 . S
C300 C301 1.516 . S
C301 C300 1.516 . S
C301 C302 1.502 . S
C301 C303 1.561 . S
C301 C304 1.526 . S
C302 H286 0.959 . S
C302 H287 0.959 . S
C302 H288 0.961 . S
C302 C301 1.502 . S
C303 H289 0.960 . S
C303 H290 0.961 . S
C303 H291 0.959 . S
C303 C301 1.561 . S
C304 C301 1.526 . S
C304 C305 1.396 . S
C304 C309 1.390 . S
C305 C299 1.465 . S
C305 C304 1.396 . S
C305 C306 1.399 . S
C306 H292 0.929 . S
C306 C305 1.399 . S
C306 C307 1.385 . S
C307 H293 0.931 . S
C307 C306 1.385 . S
C307 C308 1.389 . S
C308 C307 1.389 . S
C308 C309 1.387 . S
C309 H294 0.930 . S
C309 C304 1.390 . S
C309 C308 1.387 . S
H310 C322 0.930 . S
H311 C324 0.930 . S
H312 C325 0.930 . S
H313 C329 0.959 . S
H314 C329 0.959 . S
H315 C329 0.961 . S
H316 C330 0.960 . S
H317 C330 0.961 . S
H318 C330 0.959 1_655 S
H319 C333 0.929 . S
H320 C334 0.931 . S
H321 C336 0.930 . S
C322 H310 0.930 . S
C322 C323 1.399 . S
C322 C327 1.399 . S
C323 C322 1.399 . S
C323 C324 1.376 1_545 S
C324 H311 0.930 . S
C324 C323 1.376 1_565 S
C324 C325 1.388 . S
C325 H312 0.930 . S
C325 C324 1.388 . S
C325 C326 1.390 . S
C326 C325 1.390 . S
C326 C327 1.394 1_565 S
C326 C332 1.465 . S
C327 C322 1.399 . S
C327 C326 1.394 1_545 S
C327 C328 1.516 . S
C328 C327 1.516 . S
C328 C329 1.502 . S
C328 C330 1.561 . S
C328 C331 1.526 . S
C329 H313 0.959 . S
C329 H314 0.959 . S
C329 H315 0.961 . S
C329 C328 1.502 . S
C330 H316 0.960 . S
C330 H317 0.961 . S
C330 H318 0.959 1_455 S
C330 C328 1.561 . S
C331 C328 1.526 . S
C331 C332 1.396 1_545 S
C331 C336 1.390 . S
C332 C326 1.465 . S
C332 C331 1.396 1_565 S
C332 C333 1.399 . S
C333 H319 0.929 . S
C333 C332 1.399 . S
C333 C334 1.385 . S
C334 H320 0.931 . S
C334 C333 1.385 . S
C334 C335 1.389 . S
C335 C334 1.389 . S
C335 C336 1.387 1_565 S
C336 H321 0.930 . S
C336 C331 1.390 . S
C336 C335 1.387 1_545 S
H337 C349 0.930 1_565 S
H338 C351 0.930 . S
H339 C352 0.930 1_655 S
H340 C356 0.959 1_545 S
H341 C356 0.959 . S
H342 C356 0.961 . S
H343 C357 0.960 . S
H344 C357 0.961 . S
H345 C357 0.959 1_655 S
H346 C360 0.929 . S
H347 C361 0.931 . S
H348 C363 0.930 . S
C349 H337 0.930 1_545 S
C349 C350 1.399 . S
C349 C354 1.399 . S
C350 C349 1.399 . S
C350 C351 1.376 . S
C351 H338 0.930 . S
C351 C350 1.376 . S
C351 C352 1.388 . S
C352 H339 0.930 1_455 S
C352 C351 1.388 . S
C352 C353 1.390 . S
C353 C352 1.390 . S
C353 C354 1.394 . S
C353 C359 1.465 . S
C354 C349 1.399 . S
C354 C353 1.394 . S
C354 C355 1.516 . S
C355 C354 1.516 . S
C355 C356 1.502 1_545 S
C355 C357 1.561 1_545 S
C355 C358 1.526 . S
C356 H340 0.959 1_565 S
C356 H341 0.959 . S
C356 H342 0.961 . S
C356 C355 1.502 1_565 S
C357 H343 0.960 . S
C357 H344 0.961 . S
C357 H345 0.959 1_455 S
C357 C355 1.561 1_565 S
C358 C355 1.526 . S
C358 C359 1.396 . S
C358 C363 1.390 . S
C359 C353 1.465 . S
C359 C358 1.396 . S
C359 C360 1.399 1_455 S
C360 H346 0.929 . S
C360 C359 1.399 1_655 S
C360 C361 1.385 . S
C361 H347 0.931 . S
C361 C360 1.385 . S
C361 C362 1.389 1_655 S
C362 C361 1.389 1_455 S
C362 C363 1.387 . S
C363 H348 0.930 . S
C363 C358 1.390 . S
C363 C362 1.387 . S
H364 C376 0.930 . S
H365 C378 0.930 . S
H366 C379 0.930 . S
H367 C383 0.959 . S
H368 C383 0.959 . S
H369 C383 0.961 . S
H370 C384 0.960 . S
H371 C384 0.961 . S
H372 C384 0.959 . S
H373 C387 0.929 . S
H374 C388 0.931 . S
H375 C390 0.930 . S
C376 H364 0.930 . S
C376 C377 1.399 . S
C376 C381 1.399 . S
C377 C376 1.399 . S
C377 C378 1.376 . S
C378 H365 0.930 . S
C378 C377 1.376 . S
C378 C379 1.388 . S
C379 H366 0.930 . S
C379 C378 1.388 . S
C379 C380 1.390 . S
C380 C379 1.390 . S
C380 C381 1.394 . S
C380 C386 1.465 . S
C381 C376 1.399 . S
C381 C380 1.394 . S
C381 C382 1.516 . S
C382 C381 1.516 . S
C382 C383 1.502 . S
C382 C384 1.561 . S
C382 C385 1.526 . S
C383 H367 0.959 . S
C383 H368 0.959 . S
C383 H369 0.961 . S
C383 C382 1.502 . S
C384 H370 0.960 . S
C384 H371 0.961 . S
C384 H372 0.959 . S
C384 C382 1.561 . S
C385 C382 1.526 . S
C385 C386 1.396 . S
C385 C390 1.390 . S
C386 C380 1.465 . S
C386 C385 1.396 . S
C386 C387 1.399 . S
C387 H373 0.929 . S
C387 C386 1.399 . S
C387 C388 1.385 . S
C388 H374 0.931 . S
C388 C387 1.385 . S
C388 C389 1.389 . S
C389 C388 1.389 . S
C389 C390 1.387 . S
C390 H375 0.930 . S
C390 C385 1.390 . S
C390 C389 1.387 . S
H391 C403 0.930 . S
H392 C405 0.930 . S
H393 C406 0.930 . S
H394 C410 0.959 . S
H395 C410 0.959 . S
H396 C410 0.961 . S
H397 C411 0.960 . S
H398 C411 0.961 . S
H399 C411 0.959 . S
H400 C414 0.929 . S
H401 C415 0.931 . S
H402 C417 0.930 . S
C403 H391 0.930 . S
C403 C404 1.399 . S
C403 C408 1.399 . S
C404 C403 1.399 . S
C404 C405 1.376 . S
C405 H392 0.930 . S
C405 C404 1.376 . S
C405 C406 1.388 . S
C406 H393 0.930 . S
C406 C405 1.388 . S
C406 C407 1.390 . S
C407 C406 1.390 . S
C407 C408 1.394 . S
C407 C413 1.465 . S
C408 C403 1.399 . S
C408 C407 1.394 . S
C408 C409 1.516 . S
C409 C408 1.516 . S
C409 C410 1.502 . S
C409 C411 1.561 . S
C409 C412 1.526 . S
C410 H394 0.959 . S
C410 H395 0.959 . S
C410 H396 0.961 . S
C410 C409 1.502 . S
C411 H397 0.960 . S
C411 H398 0.961 . S
C411 H399 0.959 . S
C411 C409 1.561 . S
C412 C409 1.526 . S
C412 C413 1.396 . S
C412 C417 1.390 . S
C413 C407 1.465 . S
C413 C412 1.396 . S
C413 C414 1.399 . S
C414 H400 0.929 . S
C414 C413 1.399 . S
C414 C415 1.385 . S
C415 H401 0.931 . S
C415 C414 1.385 . S
C415 C416 1.389 . S
C416 C415 1.389 . S
C416 C417 1.387 . S
C417 H402 0.930 . S
C417 C412 1.390 . S
C417 C416 1.387 . S
C119 C85 1.368 . S
C107 C16 1.256 . S
C134 C15 1.478 . S
C146 C72 1.290 . S
C161 C13 1.392 . S
C173 C89 1.508 . S
C188 C14 1.401 . S
C200 C76 1.443 . S
C215 C37 1.250 . S
C227 C59 1.251 1_565 S
C242 C36 1.478 . S
C254 C46 1.290 . S
C281 C63 1.553 . S
C269 C34 1.250 . S
C308 C50 1.442 . S
C296 C35 1.428 . S
C323 C17 1.587 . S
C335 C51 1.606 . S
C350 C18 1.386 . S
C362 C64 1.471 . S
C389 C77 1.606 . S
C377 C38 1.515 . S
C404 C39 1.433 . S
C416 C90 1.458 . S
