# Generated by pormake.
# Topology zzz, (3,6)-cn, num edge types: 1
# Building blocks:
#     Node 0, Type 0, BuildingBlock: BETDIP_clean_linker_0, # of connection points: 3
#     Node 1, Type 0, BuildingBlock: BETDIP_clean_linker_0, # of connection points: 3
#     Node 2, Type 0, BuildingBlock: BETDIP_clean_linker_0, # of connection points: 3
#     Node 3, Type 0, BuildingBlock: BETDIP_clean_linker_0, # of connection points: 3
#     Node 4, Type 0, BuildingBlock: BETDIP_clean_linker_0, # of connection points: 3
#     Node 5, Type 0, BuildingBlock: BETDIP_clean_linker_0, # of connection points: 3
#     Node 6, Type 0, BuildingBlock: BETDIP_clean_linker_0, # of connection points: 3
#     Node 7, Type 0, BuildingBlock: BETDIP_clean_linker_0, # of connection points: 3
#     Node 8, Type 1, BuildingBlock: CUWYAW_clean_sbu_0, # of connection points: 6
#     Node 9, Type 1, BuildingBlock: CUWYAW_clean_sbu_0, # of connection points: 6
#     Node 10, Type 1, BuildingBlock: CUWYAW_clean_sbu_0, # of connection points: 6
#     Node 11, Type 1, BuildingBlock: CUWYAW_clean_sbu_0, # of connection points: 6
#     Edge 12, Type (0, 1), BuildingBlock: KIFKEQ_clean_linker_1, # of connection points: 2
#     Edge 13, Type (0, 1), BuildingBlock: KIFKEQ_clean_linker_1, # of connection points: 2
#     Edge 14, Type (0, 1), BuildingBlock: KIFKEQ_clean_linker_1, # of connection points: 2
#     Edge 15, Type (0, 1), BuildingBlock: KIFKEQ_clean_linker_1, # of connection points: 2
#     Edge 16, Type (0, 1), BuildingBlock: KIFKEQ_clean_linker_1, # of connection points: 2
#     Edge 17, Type (0, 1), BuildingBlock: KIFKEQ_clean_linker_1, # of connection points: 2
#     Edge 18, Type (0, 1), BuildingBlock: KIFKEQ_clean_linker_1, # of connection points: 2
#     Edge 19, Type (0, 1), BuildingBlock: KIFKEQ_clean_linker_1, # of connection points: 2
#     Edge 20, Type (0, 1), BuildingBlock: KIFKEQ_clean_linker_1, # of connection points: 2
#     Edge 21, Type (0, 1), BuildingBlock: KIFKEQ_clean_linker_1, # of connection points: 2
#     Edge 22, Type (0, 1), BuildingBlock: KIFKEQ_clean_linker_1, # of connection points: 2
#     Edge 23, Type (0, 1), BuildingBlock: KIFKEQ_clean_linker_1, # of connection points: 2
#     Edge 24, Type (0, 1), BuildingBlock: KIFKEQ_clean_linker_1, # of connection points: 2
#     Edge 25, Type (0, 1), BuildingBlock: KIFKEQ_clean_linker_1, # of connection points: 2
#     Edge 26, Type (0, 1), BuildingBlock: KIFKEQ_clean_linker_1, # of connection points: 2
#     Edge 27, Type (0, 1), BuildingBlock: KIFKEQ_clean_linker_1, # of connection points: 2
#     Edge 28, Type (0, 1), BuildingBlock: KIFKEQ_clean_linker_1, # of connection points: 2
#     Edge 29, Type (0, 1), BuildingBlock: KIFKEQ_clean_linker_1, # of connection points: 2
#     Edge 30, Type (0, 1), BuildingBlock: KIFKEQ_clean_linker_1, # of connection points: 2
#     Edge 31, Type (0, 1), BuildingBlock: KIFKEQ_clean_linker_1, # of connection points: 2
#     Edge 32, Type (0, 1), BuildingBlock: KIFKEQ_clean_linker_1, # of connection points: 2
#     Edge 33, Type (0, 1), BuildingBlock: KIFKEQ_clean_linker_1, # of connection points: 2
#     Edge 34, Type (0, 1), BuildingBlock: KIFKEQ_clean_linker_1, # of connection points: 2
#     Edge 35, Type (0, 1), BuildingBlock: KIFKEQ_clean_linker_1, # of connection points: 2
# Relax obj value: 0.258
# Max RMSD: 0.162
# Mean RMSD: 0.135
data_MOF--net-zzz--node1-CUWYAW_clean_sbu_0--node2-BETDIP_clean_linker_0--edge1-KIFKEQ_clean_linker_1
_symmetry_space_group_name_H-M    P1
_symmetry_Int_Tables_number       1
_symmetry_cell_setting            triclinic
loop_
_symmetry_equiv_pos_as_xyz
'x, y, z'
_cell_length_a     52.300815
_cell_length_b     52.32112
_cell_length_c     14.231899
_cell_angle_alpha  89.789544
_cell_angle_beta   89.896924
_cell_angle_gamma 89.722771
loop_
_atom_site_label
_atom_site_type_symbol
_atom_site_fract_x
_atom_site_fract_y
_atom_site_fract_z
_atom_type_partial_charge
H0 H 0.76831 0.54335 0.42021 0.0
H1 H 0.74859 0.48561 0.21721 0.0
H2 H 0.81462 0.4756 0.39161 0.0
H3 H 0.7462 0.53525 0.14392 0.0
C4 C 0.72946 0.53498 0.18939 0.0
C5 C 0.77174 0.52481 0.38891 0.0
C6 C 0.79335 0.51014 0.41642 0.0
C7 C 0.7551 0.51569 0.31792 0.0
C8 C 0.76056 0.49223 0.27419 0.0
C9 C 0.78166 0.47754 0.30195 0.0
C10 C 0.79748 0.48637 0.37399 0.0
N11 N 0.73346 0.53025 0.28716 0.0
H12 H 0.03058 0.76783 0.4246 0.0
H13 H 0.96454 0.7538 0.25057 0.0
H14 H 0.96999 0.82331 0.40772 0.0
H15 H 0.97304 0.71116 0.32174 0.0
C16 C 0.99239 0.71107 0.29368 0.0
C17 C 1.01187 0.77346 0.39919 0.0
C18 C 1.0013 0.79732 0.42577 0.0
C19 C 0.99796 0.75684 0.33968 0.0
C20 C 0.97437 0.76524 0.30238 0.0
C21 C 0.96416 0.78911 0.32713 0.0
C22 C 0.97735 0.80442 0.39108 0.0
N23 N 1.00835 0.73259 0.31239 0.0
H24 H 0.7758 1.00063 0.43147 0.0
H25 H 0.79654 0.05336 0.21029 0.0
H26 H 0.72776 0.06548 0.36877 0.0
H27 H 0.80405 0.99879 0.16213 0.0
C28 C 0.81925 1.00412 0.21013 0.0
C29 C 0.77206 1.01795 0.3918 0.0
C30 C 0.74961 0.03238 0.40954 0.0
C31 C 0.78937 0.02577 0.32052 0.0
C32 C 0.78382 0.04768 0.26677 0.0
C33 C 0.76202 0.06235 0.28594 0.0
C34 C 0.74534 0.05477 0.35769 0.0
N35 N 0.81244 1.01197 0.30278 0.0
H36 H 0.51497 0.77784 0.42613 0.0
H37 H 0.57931 0.79425 0.24524 0.0
H38 H 0.57647 0.7237 0.39904 0.0
H39 H 0.5704 0.83635 0.32247 0.0
C40 C 0.55102 0.83611 0.29496 0.0
C41 C 0.53358 0.77274 0.39822 0.0
C42 C 0.54484 0.74897 0.42236 0.0
C43 C 0.54669 0.78997 0.33807 0.0
C44 C 0.57013 0.7823 0.29755 0.0
C45 C 0.58099 0.75849 0.31965 0.0
C46 C 0.56863 0.74255 0.38438 0.0
N47 N 0.53561 0.81413 0.31329 0.0
H48 H 0.27181 0.5076 0.11631 0.0
H49 H 0.29364 0.57117 0.29077 0.0
H50 H 0.22487 0.57525 0.12792 0.0
H51 H 0.33565 0.5552 0.19541 0.0
C52 C 0.3329 0.53827 0.23876 0.0
C53 C 0.26847 0.52684 0.14142 0.0
C54 C 0.24652 0.5406 0.11152 0.0
C55 C 0.28639 0.53844 0.20258 0.0
C56 C 0.28112 0.56294 0.23851 0.0
C57 C 0.259 0.57621 0.21171 0.0
C58 C 0.24244 0.56528 0.14619 0.0
N59 N 0.309 0.52525 0.23225 0.0
H60 H 0.04 0.27704 0.09469 0.0
H61 H 0.9768 0.29672 0.27675 0.0
H62 H 0.97628 0.226 0.12571 0.0
H63 H 0.98829 0.33874 0.17741 0.0
C64 C 1.00623 0.33741 0.21568 0.0
C65 C 1.02135 0.27276 0.12378 0.0
C66 C 1.00904 0.24958 0.10021 0.0
C67 C 1.00906 0.29062 0.18397 0.0
C68 C 0.98545 0.28417 0.22518 0.0
C69 C 0.97364 0.26095 0.20409 0.0
C70 C 0.98513 0.24432 0.13969 0.0
N71 N 1.02087 0.31435 0.20765 0.0
H72 H 0.27196 0.0369 0.11939 0.0
H73 H 0.2505 0.97063 0.28255 0.0
H74 H 0.3179 0.96862 0.1107 0.0
H75 H 0.20818 0.98851 0.20153 0.0
C76 C 0.21158 1.00518 0.2451 0.0
C77 C 0.27518 1.0172 0.1399 0.0
C78 C 0.2966 1.00369 0.1043 0.0
C79 C 0.25762 1.00482 0.2008 0.0
C80 C 0.26276 0.97961 0.2307 0.0
C81 C 0.28444 0.9665 0.19839 0.0
C82 C 0.30061 0.97841 0.13326 0.0
N83 N 0.23558 1.0179 0.23609 0.0
H84 H 0.50122 0.26689 0.0902 0.0
H85 H 0.57101 0.24336 0.22813 0.0
H86 H 0.56489 0.318 0.10333 0.0
H87 H 0.55577 0.20285 0.15003 0.0
C88 C 0.53819 0.20454 0.19048 0.0
C89 C 0.52089 0.27055 0.10935 0.0
C90 C 0.53202 0.29444 0.08798 0.0
C91 C 0.53528 0.25152 0.15727 0.0
C92 C 0.56042 0.25712 0.18632 0.0
C93 C 0.57132 0.28105 0.16726 0.0
C94 C 0.55713 0.29909 0.11586 0.0
N95 N 0.5238 0.22778 0.18359 0.0
C96 C 0.99411 0.04374 0.51503 0.0
Eu97 Eu 1.01162 0.0316 0.67965 0.0
C98 C 0.9759 0.06348 0.4839 0.0
C99 C 0.95588 0.07151 0.54302 0.0
C100 C 0.94072 0.09255 0.51848 0.0
C101 C 0.94545 0.10606 0.43477 0.0
C102 C 0.96485 0.09719 0.37396 0.0
C103 C 0.97989 0.07608 0.39836 0.0
C104 C 0.97931 0.02689 0.829 0.0
C105 C 0.0303 0.07409 0.82803 0.0
C106 C 0.033 0.99481 0.03618 0.0
Eu107 Eu 0.03565 1.01235 0.8673 0.0
C108 C 1.01516 0.97492 0.06942 0.0
C109 C 1.01321 0.95177 0.02026 0.0
C110 C 0.99356 0.93474 0.04003 0.0
C111 C 0.97531 0.94033 0.10956 0.0
C112 C 0.97754 0.96317 0.16067 0.0
C113 C 0.99724 0.98041 0.14031 0.0
C114 C 0.07406 0.02247 0.74154 0.0
C115 C 0.02556 0.97094 0.70406 0.0
O116 O 1.0159 0.05231 0.54745 0.0
O117 O 0.98459 0.02524 0.5664 0.0
O118 O 0.97839 0.04557 0.76924 0.0
O119 O 0.99679 1.01145 0.806 0.0
O120 O 0.02521 0.06937 0.7385 0.0
O121 O 0.03278 0.05541 0.89089 0.0
O122 O 0.02198 1.01635 0.01118 0.0
O123 O 0.0508 0.98739 0.97673 0.0
O124 O 0.07816 1.01477 0.82741 0.0
O125 O 0.05031 0.02504 0.73039 0.0
O126 O 0.02779 0.97467 0.79554 0.0
O127 O 0.02239 0.99034 0.64483 0.0
H128 H 0.95248 0.06207 0.60969 0.0
H129 H 0.92583 0.0987 0.56641 0.0
H130 H 0.96943 0.10737 0.30977 0.0
H131 H 0.99536 0.07027 0.35226 0.0
H132 H 0.0265 0.94698 0.9646 0.0
H133 H 0.99283 0.91699 1.00119 0.0
H134 H 0.96379 0.96791 0.21495 0.0
H135 H 0.99803 0.99835 0.17794 0.0
C136 C 0.49511 0.99351 0.49519 0.0
Eu137 Eu 0.51263 1.00672 0.65756 0.0
C138 C 0.47476 0.97549 0.47019 0.0
C139 C 0.47685 0.96043 0.38931 0.0
C140 C 0.45743 0.94324 0.36619 0.0
C141 C 0.43553 0.94097 0.42348 0.0
C142 C 0.43409 0.95556 0.50622 0.0
C143 C 0.45355 0.97247 0.52961 0.0
C144 C 0.51741 0.97374 0.80809 0.0
C145 C 0.47029 0.02422 0.81492 0.0
C146 C 0.54837 0.04984 0.00902 0.0
Eu147 Eu 0.53086 0.0366 0.84643 0.0
C148 C 0.56766 0.06876 0.03521 0.0
C149 C 0.57476 0.08798 0.97128 0.0
C150 C 0.59586 0.10343 0.9893 0.0
C151 C 0.61035 0.09976 0.07126 0.0
C152 C 0.60222 0.08141 0.13761 0.0
C153 C 0.58105 0.06603 0.11957 0.0
C154 C 0.52495 0.06955 0.69609 0.0
C155 C 0.5735 1.01852 0.69104 0.0
O156 O 0.48767 1.01438 0.53878 0.0
O157 O 0.5156 0.98308 0.53233 0.0
O158 O 0.51038 0.9669 0.72465 0.0
O159 O 0.52137 0.99744 0.80517 0.0
O160 O 0.47478 1.01821 0.72563 0.0
O161 O 0.48893 0.02883 0.87571 0.0
O162 O 0.55728 0.03016 0.96203 0.0
O163 O 0.52706 0.0591 0.9739 0.0
O164 O 0.53121 0.07668 0.77996 0.0
O165 O 0.522 0.04574 0.69913 0.0
O166 O 0.56875 0.02545 0.77911 0.0
O167 O 0.55504 1.01313 0.63019 0.0
H168 H 0.49337 0.96211 0.34369 0.0
H169 H 0.45936 0.93208 0.30262 0.0
H170 H 0.41742 0.95482 0.55133 0.0
H171 H 0.45176 0.98353 0.59351 0.0
H172 H 0.5647 0.09033 0.90547 0.0
H173 H 0.60147 0.11749 0.93727 0.0
H174 H 0.61315 0.07772 0.20079 0.0
H175 H 0.57594 0.05117 0.16932 0.0
C176 C 0.54063 0.49178 0.49665 0.0
Eu177 Eu 0.53239 0.51259 0.65807 0.0
C178 C 0.55854 0.47077 0.47697 0.0
C179 C 0.56426 0.46335 0.38483 0.0
C180 C 0.58013 0.44214 0.36879 0.0
C181 C 0.59024 0.4281 0.44485 0.0
C182 C 0.58532 0.43636 0.5368 0.0
C183 C 0.56972 0.45757 0.55265 0.0
C184 C 0.57062 0.52055 0.7879 0.0
C185 C 0.51528 0.47119 0.82418 0.0
C186 C 0.51254 0.55214 0.026 0.0
Eu187 Eu 0.50971 0.53257 0.86026 0.0
C188 C 0.52993 0.57253 0.05761 0.0
C189 C 0.53148 0.59552 1.00666 0.0
C190 C 0.55062 0.61313 0.02569 0.0
C191 C 0.56875 0.60829 0.09631 0.0
C192 C 0.5668 0.58564 0.14946 0.0
C193 C 0.54758 0.56786 0.13002 0.0
C194 C 0.47178 0.52437 0.73062 0.0
C195 C 0.52199 0.5731 0.68994 0.0
O196 O 0.5212 0.48549 0.55049 0.0
O197 O 0.55137 0.51331 0.52175 0.0
O198 O 0.57443 0.51216 0.70353 0.0
O199 O 0.5469 0.52411 0.79602 0.0
O200 O 0.52383 0.47552 0.73736 0.0
O201 O 0.50909 0.48973 0.88381 0.0
O202 O 0.52379 0.53048 1.0042 0.0
O203 O 0.49489 0.55893 0.96511 0.0
O204 O 0.46723 0.53108 0.81733 0.0
O205 O 0.4956 0.52191 0.72199 0.0
O206 O 0.52134 0.56882 0.7821 0.0
O207 O 0.52275 0.55421 0.62771 0.0
H208 H 0.55592 0.47346 0.3257 0.0
H209 H 0.58339 0.43593 0.29723 0.0
H210 H 0.59288 0.42589 0.5965 0.0
H211 H 0.56575 0.46322 0.62438 0.0
H212 H 0.51822 0.59975 0.95041 0.0
H213 H 0.55102 0.63073 0.9854 0.0
H214 H 0.58043 0.58143 0.20465 0.0
H215 H 0.54702 0.55011 0.16938 0.0
C216 C 0.0466 0.54994 0.50204 0.0
Eu217 Eu 0.02961 0.53767 0.6671 0.0
C218 C 0.06528 0.56901 0.47051 0.0
C219 C 0.07084 0.59032 0.52652 0.0
C220 C 0.09081 0.60671 0.50223 0.0
C221 C 0.10567 0.60197 0.42177 0.0
C222 C 0.09927 0.58115 0.36385 0.0
C223 C 0.07925 0.56483 0.38811 0.0
C224 C 0.02407 0.57137 0.81447 0.0
C225 C 0.072 0.52111 0.82528 0.0
C226 C 0.99427 0.4956 0.02191 0.0
Eu227 Eu 1.0114 0.50839 0.85756 0.0
C228 C 0.9757 0.47626 0.05184 0.0
C229 C 0.96963 0.45578 0.99251 0.0
C230 C 0.94931 0.43958 0.01436 0.0
C231 C 0.93459 0.44373 0.0956 0.0
C232 C 0.9417 0.46348 0.15733 0.0
C233 C 0.96208 0.4796 0.1355 0.0
C234 C 1.01787 0.47476 0.7102 0.0
C235 C 0.96879 0.52536 0.70066 0.0
O236 O 0.05611 0.53095 0.5516 0.0
O237 O 0.0252 0.55906 0.5369 0.0
O238 O 0.03107 0.57786 0.73038 0.0
O239 O 1.0204 0.5476 0.81383 0.0
O240 O 0.06753 0.52681 0.73563 0.0
O241 O 0.0533 0.51656 0.88631 0.0
O242 O 0.98466 0.51458 0.97261 0.0
O243 O 1.01584 0.48679 0.98735 0.0
O244 O 1.01137 0.46802 0.79453 0.0
O245 O 1.0207 0.49861 0.7111 0.0
O246 O 0.9734 0.51902 0.78958 0.0
O247 O 0.98738 0.53039 0.63965 0.0
H248 H 0.0603 0.59385 0.59068 0.0
H249 H 0.0951 0.62263 0.5479 0.0
H250 H 0.11059 0.57657 0.30235 0.0
H251 H 0.07534 0.54838 0.34449 0.0
H252 H 0.97991 0.45291 0.92736 0.0
H253 H 0.9445 0.42446 0.96583 0.0
H254 H 0.93055 0.46758 0.2197 0.0
H255 H 0.9664 0.49541 0.18174 0.0
H256 H 0.16281 0.98884 0.24696 0.0
H257 H 0.21442 0.03757 0.39894 0.0
H258 H 0.12957 0.99658 0.3638 0.0
H259 H 0.18097 0.04539 0.51723 0.0
H260 H 0.12582 1.02051 0.76365 0.0
H261 H 0.15881 1.02022 0.64171 0.0
H262 H 0.10056 0.02905 0.42933 0.0
H263 H 0.06756 0.02927 0.55177 0.0
C264 C 0.16692 1.00154 0.30492 0.0
C265 C 0.19122 1.01264 0.3134 0.0
C266 C 0.14779 1.00608 0.37185 0.0
C267 C 0.15245 1.02165 0.45026 0.0
C268 C 0.17671 0.03317 0.45809 0.0
C269 C 0.19584 0.02886 0.39002 0.0
C270 C 0.12009 0.02272 0.69097 0.0
C271 C 0.09405 0.02485 0.66742 0.0
C272 C 0.13904 0.02269 0.62097 0.0
C273 C 0.13245 0.02451 0.52532 0.0
C274 C 0.10638 0.02734 0.50208 0.0
C275 C 0.08743 0.02762 0.57226 0.0
H276 H 0.55998 0.15752 0.19741 0.0
H277 H 0.50143 0.20312 0.33061 0.0
H278 H 0.55299 0.12334 0.31185 0.0
H279 H 0.4943 0.16884 0.44547 0.0
H280 H 0.51985 0.12078 0.70465 0.0
H281 H 0.51922 0.15173 0.57698 0.0
H282 H 0.52345 0.09033 0.37552 0.0
H283 H 0.52401 0.05901 0.50528 0.0
C284 C 0.5453 0.16007 0.25046 0.0
C285 C 0.53133 0.18309 0.25504 0.0
C286 C 0.54119 0.14037 0.31584 0.0
C287 C 0.52315 0.14326 0.3885 0.0
C288 C 0.50855 0.16602 0.39112 0.0
C289 C 0.51251 0.18565 0.32498 0.0
C290 C 0.52028 0.11377 0.6331 0.0
C291 C 0.52196 0.0874 0.61517 0.0
C292 C 0.51976 0.1316 0.55963 0.0
C293 C 0.52121 0.12367 0.46552 0.0
C294 C 0.5224 0.09716 0.44716 0.0
C295 C 0.52256 0.07918 0.52128 0.0
H296 H 0.33175 0.50516 0.39194 0.0
H297 H 0.38114 0.55613 0.23797 0.0
H298 H 0.36583 0.49809 0.50807 0.0
H299 H 0.41498 0.54921 0.35284 0.0
H300 H 0.4201 0.52369 0.75298 0.0
H301 H 0.38711 0.52311 0.63179 0.0
H302 H 0.4456 0.51849 0.41791 0.0
H303 H 0.47865 0.51924 0.5399 0.0
C304 C 0.34998 0.51454 0.3821 0.0
C305 C 0.35376 0.53117 0.30556 0.0
C306 C 0.36948 0.51065 0.44897 0.0
C307 C 0.3933 0.52307 0.44018 0.0
C308 C 0.39716 0.53902 0.36171 0.0
C309 C 0.37766 0.5431 0.29589 0.0
C310 C 0.42592 0.52222 0.6801 0.0
C311 C 0.45202 0.52151 0.65613 0.0
C312 C 0.40696 0.52174 0.61048 0.0
C313 C 0.41355 0.52081 0.51462 0.0
C314 C 0.43974 0.51945 0.49083 0.0
C315 C 0.45873 0.5197 0.56073 0.0
H316 H 0.98453 0.38442 0.2185 0.0
H317 H 0.04282 0.33944 0.35625 0.0
H318 H 0.99118 0.41906 0.33022 0.0
H319 H 0.04957 0.37419 0.46875 0.0
H320 H 0.02309 0.42356 0.72343 0.0
H321 H 0.02429 0.39199 0.59859 0.0
H322 H 1.02048 0.4524 0.39151 0.0
H323 H 1.01939 0.48434 0.51834 0.0
C324 C 0.99909 0.38211 0.27196 0.0
C325 C 1.0131 0.35913 0.27849 0.0
C326 C 1.00301 0.40207 0.33583 0.0
C327 C 1.02086 0.39952 0.40912 0.0
C328 C 0.03549 0.37678 0.41382 0.0
C329 C 0.03175 0.35688 0.34902 0.0
C330 C 0.02286 0.43022 0.65125 0.0
C331 C 1.02114 0.4565 0.63092 0.0
C332 C 0.02371 0.41203 0.57941 0.0
C333 C 0.02254 0.41948 0.48452 0.0
C334 C 1.02131 0.44591 0.46379 0.0
C335 C 1.02083 0.46425 0.53626 0.0
H336 H 0.85996 0.03364 0.26739 0.0
H337 H 0.83842 0.97599 0.0672 0.0
H338 H 0.90162 0.03799 0.18843 0.0
H339 H 0.88015 0.97971 0.99041 0.0
H340 H 0.96606 0.98159 0.91455 0.0
H341 H 0.92979 0.97406 0.02111 0.0
H342 H 0.91203 0.05466 0.01686 0.0
H343 H 0.94763 0.06204 0.90849 0.0
C344 C 0.86437 1.02143 0.20818 0.0
C345 C 0.84596 1.0044 0.17359 0.0
C346 C 0.88815 0.02401 0.16267 0.0
C347 C 0.89421 1.00915 0.08319 0.0
C348 C 0.87621 0.99124 0.05187 0.0
C349 C 0.85229 0.98916 0.09572 0.0
C350 C 0.95456 0.9977 0.93728 0.0
C351 C 0.95954 0.02239 0.90246 0.0
C352 C 0.93379 0.99339 0.99813 0.0
C353 C 0.91802 1.01378 0.02747 0.0
C354 C 0.92389 0.0386 0.99628 0.0
C355 C 0.94421 0.0428 0.9338 0.0
H356 H 0.50637 0.84241 0.19216 0.0
H357 H 0.57725 0.87955 0.26163 0.0
H358 H 0.49582 0.87758 0.08452 0.0
H359 H 0.56706 0.9144 0.15359 0.0
H360 H 0.53497 0.98268 0.989 0.0
H361 H 0.54022 0.95107 0.11601 0.0
H362 H 0.5106 0.89237 0.93399 0.0
H363 H 0.5052 0.9237 0.80939 0.0
C364 C 0.51958 0.85818 0.18516 0.0
C365 C 0.54271 0.85812 0.23519 0.0
C366 C 0.51364 0.87832 0.123 0.0
C367 C 0.53065 0.89893 0.1095 0.0
C368 C 0.55332 0.89916 0.16247 0.0
C369 C 0.55925 0.87904 0.2241 0.0
C370 C 0.52948 0.96306 0.97678 0.0
C371 C 0.51982 0.95572 0.88891 0.0
C372 C 0.53253 0.94487 0.04933 0.0
C373 C 0.5258 0.919 0.03575 0.0
C374 C 0.51562 0.91203 0.94823 0.0
C375 C 0.51273 0.93006 0.87616 0.0
H376 H 0.68075 0.52555 0.26304 0.0
H377 H 0.72037 0.54787 0.00992 0.0
H378 H 0.64031 0.52359 0.17411 0.0
H379 H 0.68054 0.5462 0.92246 0.0
H380 H 0.61884 0.50323 0.77105 0.0
H381 H 0.65483 0.50864 0.87585 0.0
H382 H 0.60681 0.54989 0.07059 0.0
H383 H 0.5702 0.54458 0.96277 0.0
C384 C 0.68077 0.53047 0.18908 0.0
C385 C 0.70385 0.53667 0.14327 0.0
C386 C 0.65761 0.5294 0.13817 0.0
C387 C 0.6572 0.53435 0.04065 0.0
C388 C 0.68014 0.54177 0.99687 0.0
C389 C 0.70302 0.54285 0.04723 0.0
C390 C 0.61573 0.51342 0.83624 0.0
C391 C 0.59147 0.52339 0.85857 0.0
C392 C 0.63651 0.51661 0.89644 0.0
C393 C 0.6339 0.52993 0.98151 0.0
C394 C 0.60947 0.53942 1.00582 0.0
C395 C 0.58847 0.53632 0.94445 0.0
H396 H 0.03672 0.70392 0.18905 0.0
H397 H 0.96538 0.66803 0.2629 0.0
H398 H 0.04653 0.6684 0.08275 0.0
H399 H 0.97486 0.63281 0.15637 0.0
H400 H 1.0062 0.5634 0.99625 0.0
H401 H 1.00119 0.5956 0.12066 0.0
H402 H 0.03139 0.65325 0.93354 0.0
H403 H 0.03651 0.62136 0.81146 0.0
C404 C 0.02325 0.68836 0.1833 0.0
C405 C 1.00023 0.68886 0.23427 0.0
C406 C 0.02876 0.66801 0.12189 0.0
C407 C 1.01144 0.64761 0.11014 0.0
C408 C 0.98884 0.64786 0.16389 0.0
C409 C 0.98332 0.6682 0.22468 0.0
C410 C 1.01186 0.58292 0.98233 0.0
C411 C 1.02162 0.58979 0.89376 0.0
C412 C 1.00895 0.60145 0.05339 0.0
C413 C 1.01594 0.6272 0.03769 0.0
C414 C 0.02616 0.6337 0.94943 0.0
C415 C 0.0289 0.61535 0.8788 0.0
H416 H 0.92679 0.24465 0.14508 0.0
H417 H 0.9739 0.25274 0.39113 0.0
H418 H 0.90339 0.2101 0.22144 0.0
H419 H 0.95192 0.21761 0.46561 0.0
H420 H 0.92909 0.12504 0.26564 0.0
H421 H 0.92121 0.16943 0.2283 0.0
H422 H 0.923 0.18809 0.52414 0.0
H423 H 0.93287 0.14374 0.56065 0.0
C424 C 0.93125 0.23985 0.21735 0.0
C425 C 0.95247 0.25081 0.26165 0.0
C426 C 0.91813 0.2198 0.26076 0.0
C427 C 0.92661 0.21005 0.3477 0.0
C428 C 0.94489 0.22417 0.3982 0.0
C429 C 0.95761 0.24452 0.3555 0.0
C430 C 0.92741 0.13854 0.32288 0.0
C431 C 0.93267 0.13098 0.4156 0.0
C432 C 0.92239 0.16412 0.30172 0.0
C433 C 0.92221 0.18273 0.37308 0.0
C434 C 0.92379 0.17447 0.4671 0.0
C435 C 0.92922 0.14889 0.48814 0.0
H436 H 0.29098 0.95905 0.38528 0.0
H437 H 0.30103 0.92196 0.11758 0.0
H438 H 0.32648 0.93482 0.44879 0.0
H439 H 0.33668 0.89726 0.18148 0.0
H440 H 0.41745 0.93587 0.2446 0.0
H441 H 0.37486 0.92376 0.19962 0.0
H442 H 0.35823 0.90146 0.48579 0.0
H443 H 0.40168 0.91302 0.53102 0.0
C444 C 0.29967 0.94443 0.34175 0.0
C445 C 0.29401 0.94309 0.24557 0.0
C446 C 0.3202 0.93045 0.3782 0.0
C447 C 0.33518 0.91501 0.31864 0.0
C448 C 0.32596 0.90965 0.22812 0.0
C449 C 0.30545 0.92369 0.19163 0.0
C450 C 0.40531 0.92723 0.29748 0.0
C451 C 0.4128 0.92626 0.39215 0.0
C452 C 0.38068 0.92013 0.27145 0.0
C453 C 0.36287 0.91212 0.33961 0.0
C454 C 0.37138 0.90799 0.43202 0.0
C455 C 0.39619 0.91487 0.45797 0.0
H456 H 0.58577 0.27266 0.35041 0.0
H457 H 0.61032 0.31011 0.09565 0.0
H458 H 0.60818 0.30426 0.44255 0.0
H459 H 0.62964 0.34351 0.18617 0.0
H460 H 0.63014 0.41615 0.3268 0.0
H461 H 0.6442 0.37342 0.28132 0.0
H462 H 0.58974 0.34117 0.4785 0.0
H463 H 0.5777 0.38335 0.52708 0.0
C464 C 0.59667 0.28715 0.3137 0.0
C465 C 0.59476 0.29002 0.21584 0.0
C466 C 0.60903 0.30581 0.36678 0.0
C467 C 0.61839 0.32812 0.32276 0.0
C468 C 0.62161 0.32756 0.22439 0.0
C469 C 0.61033 0.30827 0.17152 0.0
C470 C 0.62186 0.39971 0.36166 0.0
C471 C 0.6025 0.40294 0.42893 0.0
C472 C 0.62974 0.37512 0.33535 0.0
C473 C 0.61758 0.35329 0.37292 0.0
C474 C 0.59994 0.35694 0.44695 0.0
C475 C 0.59267 0.38139 0.4748 0.0
H476 H 0.24383 0.62298 0.14458 0.0
H477 H 0.25116 0.57861 0.39891 0.0
H478 H 0.209 0.64746 0.21512 0.0
H479 H 0.21591 0.60177 0.46785 0.0
H480 H 0.14089 0.61855 0.55027 0.0
H481 H 0.18484 0.63062 0.51774 0.0
H482 H 0.16889 0.6283 0.21968 0.0
H483 H 0.12482 0.61807 0.25274 0.0
C484 C 0.23886 0.6194 0.21736 0.0
C485 C 0.24948 0.59842 0.26541 0.0
C486 C 0.21868 0.63317 0.25752 0.0
C487 C 0.20856 0.6256 0.34499 0.0
C488 C 0.22267 0.608 0.39962 0.0
C489 C 0.2431 0.59458 0.36007 0.0
C490 C 0.14647 0.62178 0.47792 0.0
C491 C 0.1296 0.6164 0.40376 0.0
C492 C 0.17182 0.62852 0.45922 0.0
C493 C 0.18087 0.62949 0.36612 0.0
C494 C 0.16297 0.6276 0.29254 0.0
C495 C 0.13761 0.62124 0.31129 0.0
H496 H 0.96235 0.79551 0.13862 0.0
H497 H 0.92062 0.81234 0.39256 0.0
H498 H 0.94748 0.83509 0.06957 0.0
H499 H 0.90525 0.85218 0.32301 0.0
H500 H 0.9603 0.92408 0.28305 0.0
H501 H 0.93845 0.88457 0.31891 0.0
H502 H 0.92374 0.87294 0.02335 0.0
H503 H 0.94581 0.91288 0.98759 0.0
C504 C 0.94847 0.80679 0.17728 0.0
C505 C 0.94353 0.80152 0.27226 0.0
C506 C 0.93994 0.82974 0.13773 0.0
C507 C 0.92629 0.84747 0.19293 0.0
C508 C 0.91654 0.8393 0.28009 0.0
C509 C 0.92512 0.81634 0.31964 0.0
C510 C 0.95144 0.91372 0.22603 0.0
C511 C 0.95548 0.92111 0.1324 0.0
C512 C 0.93869 0.891 0.24651 0.0
C513 C 0.92978 0.8752 0.17364 0.0
C514 C 0.93082 0.88441 0.08085 0.0
C515 C 0.94359 0.90718 0.0604 0.0
H516 H 0.75143 0.05863 0.10109 0.0
H517 H 0.75199 0.11204 0.33077 0.0
H518 H 0.71851 0.08345 0.02381 0.0
H519 H 0.71968 0.13802 0.25141 0.0
H520 H 0.632 0.11878 0.23115 0.0
H521 H 0.67725 0.12413 0.25803 0.0
H522 H 0.69181 0.11511 0.96064 0.0
H523 H 0.64649 0.10805 0.935 0.0
C524 C 0.74566 0.07666 0.13199 0.0
C525 C 0.75355 0.0831 0.22279 0.0
C526 C 0.72665 0.09107 0.08765 0.0
C527 C 0.71546 0.11218 0.13364 0.0
C528 C 0.72713 0.12128 0.21594 0.0
C529 C 0.74584 0.1066 0.26103 0.0
C530 C 0.6448 0.11852 0.1712 0.0
C531 C 0.63577 0.11193 0.08181 0.0
C532 C 0.67088 0.12202 0.18618 0.0
C533 C 0.68847 0.11919 0.11174 0.0
C534 C 0.67891 0.11663 0.01999 0.0
C535 C 0.65281 0.11279 1.0052 0.0
H536 H 0.58126 0.75355 0.13053 0.0
H537 H 0.6254 0.73539 0.3776 0.0
H538 H 0.5956 0.71444 0.05741 0.0
H539 H 0.64015 0.69599 0.30398 0.0
H540 H 0.58408 0.62465 0.26889 0.0
H541 H 0.60606 0.66406 0.30339 0.0
H542 H 0.61922 0.67661 1.00689 0.0
H543 H 0.59719 0.63668 0.97237 0.0
C544 C 0.59554 0.74212 0.16664 0.0
C545 C 0.60129 0.74679 0.26122 0.0
C546 C 0.60376 0.71943 0.12474 0.0
C547 C 0.6179 0.70142 0.17721 0.0
C548 C 0.62849 0.70911 0.26326 0.0
C549 C 0.62024 0.73182 0.30513 0.0
C550 C 0.5926 0.63517 0.21122 0.0
C551 C 0.5882 0.62797 0.11784 0.0
C552 C 0.60544 0.65784 0.23094 0.0
C553 C 0.61405 0.67382 0.1576 0.0
C554 C 0.61245 0.66495 0.06477 0.0
C555 C 0.59965 0.6422 0.04507 0.0
H556 H 0.79188 0.47782 0.11589 0.0
H557 H 0.79386 0.42918 0.3609 0.0
H558 H 0.8258 0.45307 0.04519 0.0
H559 H 0.82734 0.40325 0.28841 0.0
H560 H 0.91394 0.42624 0.26046 0.0
H561 H 0.86906 0.41898 0.28966 0.0
H562 H 0.85419 0.42196 0.99087 0.0
H563 H 0.89905 0.43104 0.96249 0.0
C564 C 0.79847 0.46075 0.15204 0.0
C565 C 0.79098 0.45587 0.24492 0.0
C566 C 0.81809 0.44639 0.11144 0.0
C567 C 0.83032 0.42684 0.16323 0.0
C568 C 0.81911 0.41887 0.24834 0.0
C569 C 0.79974 0.43352 0.28958 0.0
C570 C 0.90119 0.4248 0.20083 0.0
C571 C 0.90989 0.43034 0.10974 0.0
C572 C 0.87533 0.42017 0.21727 0.0
C573 C 0.85764 0.42079 0.14266 0.0
C574 C 0.86711 0.4222 0.05024 0.0
C575 C 0.89297 0.4272 0.03391 0.0
H576 H 0.04966 0.21819 0.14086 0.0
H577 H 0.99219 0.23289 0.93106 0.0
H578 H 0.05891 0.17665 0.06871 0.0
H579 H 1.0008 0.19146 0.85985 0.0
H580 H 0.02663 0.11822 0.72235 0.0
H581 H 0.02723 0.16241 0.77634 0.0
H582 H 0.03809 0.13612 0.06153 0.0
H583 H 0.03812 0.09203 1.00726 0.0
C584 C 0.03974 0.21298 0.07704 0.0
C585 C 1.02057 0.22908 0.04057 0.0
C586 C 0.04462 0.1889 0.03661 0.0
C587 C 0.0304 0.18027 0.9587 0.0
C588 C 1.01242 0.19726 0.91884 0.0
C589 C 1.00754 0.22121 0.95935 0.0
C590 C 0.0294 0.12181 0.79652 0.0
C591 C 0.03223 0.10131 0.86018 0.0
C592 C 0.02961 0.14728 0.82774 0.0
C593 C 0.03263 0.15316 0.92373 0.0
C594 C 0.03611 0.13263 0.98697 0.0
C595 C 0.03592 0.10716 0.95575 0.0
H596 H 0.32863 0.04362 0.14361 0.0
H597 H 0.31166 0.98775 0.93148 0.0
H598 H 0.36956 0.05261 0.06636 0.0
H599 H 0.35257 0.99587 0.85589 0.0
H600 H 0.42566 1.01986 0.71324 0.0
H601 H 0.38174 1.02096 0.77116 0.0
H602 H 0.40956 0.0316 0.05391 0.0
H603 H 0.45325 0.03135 0.99567 0.0
C604 C 0.33323 0.03396 0.0785 0.0
C605 C 0.31676 1.01519 0.04312 0.0
C606 C 0.35697 0.03868 0.03507 0.0
C607 C 0.36486 0.02466 0.95533 0.0
C608 C 0.34738 1.00728 0.91634 0.0
C609 C 0.32375 1.00264 0.95956 0.0
C610 C 0.42243 0.0226 0.78772 0.0
C611 C 0.44322 0.02541 0.84951 0.0
C612 C 0.39712 0.02315 0.82122 0.0
C613 C 0.39176 0.02638 0.91769 0.0
C614 C 0.41261 0.02957 0.97905 0.0
C615 C 0.43787 0.02916 0.94554 0.0
H616 H 0.5231 0.30404 0.90158 0.0
H617 H 0.51298 0.33577 0.17774 0.0
H618 H 0.51459 0.34605 0.83161 0.0
H619 H 0.50581 0.37784 0.10996 0.0
H620 H 0.48704 0.45259 0.9721 0.0
H621 H 0.48386 0.40873 0.02815 0.0
H622 H 0.53575 0.38441 0.8088 0.0
H623 H 0.53776 0.42811 0.7502 0.0
C624 C 0.51803 0.31983 0.9471 0.0
C625 C 0.51807 0.31645 0.04504 0.0
C626 C 0.51378 0.34415 0.9073 0.0
C627 C 0.50992 0.36586 0.96457 0.0
C628 C 0.50832 0.36191 0.06252 0.0
C629 C 0.51227 0.33761 0.10191 0.0
C630 C 0.49765 0.43786 0.93541 0.0
C631 C 0.51277 0.44407 0.85677 0.0
C632 C 0.49594 0.41254 0.96796 0.0
C633 C 0.50966 0.39258 0.92401 0.0
C634 C 0.52445 0.39885 0.84418 0.0
C635 C 0.52583 0.42412 0.81075 0.0
H636 H 0.23047 0.55875 0.94257 0.0
H637 H 0.21457 0.50027 0.14791 0.0
H638 H 0.18933 0.55123 0.86821 0.0
H639 H 0.17336 0.49202 0.07217 0.0
H640 H 0.1166 0.52688 0.7237 0.0
H641 H 0.16054 0.52612 0.78104 0.0
H642 H 0.13294 0.51304 0.06328 0.0
H643 H 0.08918 0.51309 1.00563 0.0
C644 C 0.21856 0.54347 0.96936 0.0
C645 C 0.22598 0.52989 0.05047 0.0
C646 C 0.19479 0.53918 0.9269 0.0
C647 C 0.17756 0.52121 0.96441 0.0
C648 C 0.18578 0.50638 0.04198 0.0
C649 C 0.20967 0.51069 0.08448 0.0
C650 C 0.11986 0.5237 0.79796 0.0
C651 C 0.0991 0.52016 0.85974 0.0
C652 C 0.14519 0.52334 0.83112 0.0
C653 C 0.15062 0.51951 0.92725 0.0
C654 C 0.12982 0.51559 0.98865 0.0
C655 C 0.10453 0.51587 0.95549 0.0
H656 H 0.99254 0.81049 0.60747 0.0
H657 H 0.03749 0.83082 0.36511 0.0
H658 H 1.00154 0.85193 0.678 0.0
H659 H 0.04695 0.87235 0.43559 0.0
H660 H 0.02274 0.95468 0.52038 0.0
H661 H 0.02251 0.91094 0.46157 0.0
H662 H 0.0304 0.88235 0.74506 0.0
H663 H 0.03018 0.92603 0.80397 0.0
C664 C 1.00548 0.82336 0.5715 0.0
C665 C 1.01487 0.81706 0.48185 0.0
C666 C 1.01046 0.84733 0.61143 0.0
C667 C 0.02473 0.86587 0.56225 0.0
C668 C 0.03555 0.85884 0.47515 0.0
C669 C 0.03065 0.83477 0.43549 0.0
C670 C 0.02454 0.93911 0.57033 0.0
C671 C 0.02635 0.94412 0.66724 0.0
C672 C 0.02464 0.9139 0.5364 0.0
C673 C 0.02651 0.89285 0.59824 0.0
C674 C 0.02867 0.89791 0.69506 0.0
C675 C 0.02863 0.9231 0.72895 0.0
H676 H 0.7196 0.98976 0.39755 0.0
H677 H 0.73081 0.05788 0.56109 0.0
H678 H 0.67789 0.98342 0.473 0.0
H679 H 0.68923 0.05198 0.63554 0.0
H680 H 0.61713 0.02945 0.79097 0.0
H681 H 0.66141 0.02838 0.73715 0.0
H682 H 0.63637 1.00387 0.46312 0.0
H683 H 0.59212 1.00449 0.51734 0.0
C684 C 0.71357 1.00283 0.45223 0.0
C685 C 0.7287 0.0241 0.47438 0.0
C686 C 0.68942 0.99952 0.4943 0.0
C687 C 0.67982 1.01736 0.55985 0.0
C688 C 0.69584 0.03766 0.58629 0.0
C689 C 0.71983 0.04102 0.54392 0.0
C690 C 0.62099 0.02367 0.71932 0.0
C691 C 0.60079 1.01716 0.65866 0.0
C692 C 0.64651 0.02314 0.68823 0.0
C693 C 0.65273 1.01603 0.59549 0.0
C694 C 0.63255 1.00907 0.53538 0.0
C695 C 0.60702 1.00965 0.5664 0.0
H696 H 0.55663 0.73385 0.59968 0.0
H697 H 0.50733 0.71637 0.367 0.0
H698 H 0.54841 0.69186 0.66796 0.0
H699 H 0.49856 0.67428 0.43557 0.0
H700 H 0.52218 0.59087 0.50725 0.0
H701 H 0.52241 0.63506 0.45211 0.0
H702 H 0.5207 0.66136 0.73931 0.0
H703 H 0.52107 0.61727 0.79428 0.0
C704 C 0.54296 0.72146 0.56565 0.0
C705 C 0.53212 0.72871 0.47919 0.0
C706 C 0.5384 0.69718 0.60426 0.0
C707 C 0.52305 0.67929 0.55695 0.0
C708 C 0.51083 0.68726 0.47346 0.0
C709 C 0.51534 0.71165 0.43506 0.0
C710 C 0.52181 0.60603 0.55883 0.0
C711 C 0.52174 0.60024 0.65556 0.0
C712 C 0.52168 0.63151 0.52707 0.0
C713 C 0.52147 0.65206 0.59098 0.0
C714 C 0.52113 0.64622 0.68766 0.0
C715 C 0.52125 0.62077 0.71936 0.0
H716 H 0.82456 0.55162 0.39291 0.0
H717 H 0.81038 0.48794 0.57806 0.0
H718 H 0.86605 0.55843 0.46858 0.0
H719 H 0.85178 0.49418 0.65247 0.0
H720 H 0.92459 0.51679 0.80183 0.0
H721 H 0.88047 0.51801 0.74662 0.0
H722 H 0.90687 0.53741 0.46781 0.0
H723 H 0.95088 0.53677 0.52342 0.0
C724 C 0.82988 0.5397 0.45219 0.0
C725 C 0.81396 0.51948 0.4803 0.0
C726 C 0.85394 0.54322 0.49449 0.0
C727 C 0.86271 0.52662 0.56615 0.0
C728 C 0.84588 0.50755 0.59838 0.0
C729 C 0.82195 0.50401 0.55597 0.0
C730 C 0.92105 0.52146 0.72879 0.0
C731 C 0.94157 0.52658 0.66734 0.0
C732 C 0.89561 0.52207 0.69686 0.0
C733 C 0.88978 0.52783 0.60236 0.0
C734 C 0.91032 0.53332 0.54134 0.0
C735 C 0.93574 0.53271 0.57324 0.0
loop_
_geom_bond_atom_site_label_1
_geom_bond_atom_site_label_2
_geom_bond_distance
_geom_bond_site_symmetry_2
_ccdc_geom_bond_type
H0 C5 0.930 . S
H1 C8 0.930 . S
H2 C10 0.930 . S
H3 C4 1.016 . S
C4 H3 1.016 . S
C4 N11 1.286 . S
C5 H0 0.930 . S
C5 C6 1.397 . S
C5 C7 1.361 . S
C6 C5 1.397 . S
C6 C10 1.390 . S
C7 C5 1.361 . S
C7 C8 1.393 . S
C7 N11 1.413 . S
C8 H1 0.930 . S
C8 C7 1.393 . S
C8 C9 1.399 . S
C9 C8 1.399 . S
C9 C10 1.381 . S
C10 H2 0.930 . S
C10 C6 1.390 . S
C10 C9 1.381 . S
N11 C4 1.286 . S
N11 C7 1.413 . S
H12 C17 0.930 . S
H13 C20 0.930 . S
H14 C22 0.930 . S
H15 C16 1.029 . S
C16 H15 1.029 . S
C16 N23 1.268 1_655 S
C17 H12 0.930 . S
C17 C18 1.397 . S
C17 C19 1.361 . S
C18 C17 1.397 . S
C18 C22 1.390 1_455 S
C19 C17 1.361 . S
C19 C20 1.393 . S
C19 N23 1.413 . S
C20 H13 0.930 . S
C20 C19 1.393 . S
C20 C21 1.402 . S
C21 C20 1.402 . S
C21 C22 1.379 1_455 S
C22 H14 0.930 . S
C22 C18 1.390 1_655 S
C22 C21 1.379 1_655 S
N23 C16 1.268 1_455 S
N23 C19 1.413 . S
H24 C29 0.930 . S
H25 C32 0.930 . S
H26 C34 0.930 . S
H27 C28 1.030 . S
C28 H27 1.030 . S
C28 N35 1.268 1_565 S
C29 H24 0.930 . S
C29 C30 1.397 . S
C29 C31 1.361 . S
C30 C29 1.397 . S
C30 C34 1.390 1_545 S
C31 C29 1.361 . S
C31 C32 1.393 . S
C31 N35 1.413 . S
C32 H25 0.930 . S
C32 C31 1.393 . S
C32 C33 1.402 . S
C33 C32 1.402 . S
C33 C34 1.379 1_545 S
C34 H26 0.930 . S
C34 C30 1.390 1_565 S
C34 C33 1.379 1_565 S
N35 C28 1.268 1_545 S
N35 C31 1.413 . S
H36 C41 0.930 . S
H37 C44 0.930 . S
H38 C46 0.930 . S
H39 C40 1.016 . S
C40 H39 1.016 . S
C40 N47 1.286 . S
C41 H36 0.930 . S
C41 C42 1.397 . S
C41 C43 1.361 . S
C42 C41 1.397 . S
C42 C46 1.390 . S
C43 C41 1.361 . S
C43 C44 1.393 . S
C43 N47 1.413 . S
C44 H37 0.930 . S
C44 C43 1.393 . S
C44 C45 1.399 . S
C45 C44 1.399 . S
C45 C46 1.381 . S
C46 H38 0.930 . S
C46 C42 1.390 . S
C46 C45 1.381 . S
N47 C40 1.286 . S
N47 C43 1.413 . S
H48 C53 0.930 . S
H49 C56 0.930 . S
H50 C58 0.930 . S
H51 C52 1.016 . S
C52 H51 1.016 . S
C52 N59 1.286 . S
C53 H48 0.930 . S
C53 C54 1.397 . S
C53 C55 1.361 1_556 S
C54 C53 1.397 . S
C54 C58 1.390 1_556 S
C55 C53 1.361 1_554 S
C55 C56 1.393 . S
C55 N59 1.413 . S
C56 H49 0.930 . S
C56 C55 1.393 . S
C56 C57 1.399 . S
C57 C56 1.399 . S
C57 C58 1.381 . S
C58 H50 0.930 . S
C58 C54 1.390 1_554 S
C58 C57 1.381 . S
N59 C52 1.286 . S
N59 C55 1.413 . S
H60 C65 0.930 . S
H61 C68 0.930 . S
H62 C70 0.930 . S
H63 C64 1.026 . S
C64 H63 1.026 . S
C64 N71 1.273 1_655 S
C65 H60 0.930 . S
C65 C66 1.397 . S
C65 C67 1.361 1_556 S
C66 C65 1.397 . S
C66 C70 1.390 1_456 S
C67 C65 1.361 1_554 S
C67 C68 1.393 . S
C67 N71 1.413 . S
C68 H61 0.930 . S
C68 C67 1.393 . S
C68 C69 1.404 . S
C69 C68 1.404 . S
C69 C70 1.378 1_455 S
C70 H62 0.930 . S
C70 C66 1.390 1_654 S
C70 C69 1.378 1_655 S
N71 C64 1.273 1_455 S
N71 C67 1.413 . S
H72 C77 0.930 . S
H73 C80 0.930 . S
H74 C82 0.930 . S
H75 C76 1.026 . S
C76 H75 1.026 . S
C76 N83 1.273 1_565 S
C77 H72 0.930 . S
C77 C78 1.397 . S
C77 C79 1.361 1_556 S
C78 C77 1.397 . S
C78 C82 1.390 1_546 S
C79 C77 1.361 1_554 S
C79 C80 1.393 . S
C79 N83 1.413 . S
C80 H73 0.930 . S
C80 C79 1.393 . S
C80 C81 1.404 . S
C81 C80 1.404 . S
C81 C82 1.378 1_545 S
C82 H74 0.930 . S
C82 C78 1.390 1_564 S
C82 C81 1.378 1_565 S
N83 C76 1.273 1_545 S
N83 C79 1.413 . S
H84 C89 0.930 . S
H85 C92 0.930 . S
H86 C94 0.930 . S
H87 C88 1.016 . S
C88 H87 1.016 . S
C88 N95 1.286 . S
C89 H84 0.930 . S
C89 C90 1.397 . S
C89 C91 1.361 1_556 S
C90 C89 1.397 . S
C90 C94 1.390 1_556 S
C91 C89 1.361 1_554 S
C91 C92 1.393 . S
C91 N95 1.413 . S
C92 H85 0.930 . S
C92 C91 1.393 . S
C92 C93 1.399 . S
C93 C92 1.399 . S
C93 C94 1.381 . S
C94 H86 0.930 . S
C94 C90 1.390 1_554 S
C94 C93 1.381 . S
N95 C88 1.286 . S
N95 C91 1.413 . S
C96 Eu97 2.835 . S
C96 C98 1.500 . S
C96 O116 1.257 . S
C96 O117 1.260 . S
Eu97 C96 2.835 . S
Eu97 O116 2.473 . S
Eu97 O117 2.480 . S
Eu97 O118 2.430 . S
Eu97 O119 2.670 1_545 S
Eu97 O120 2.394 . S
Eu97 O125 2.355 1_655 S
Eu97 O127 2.374 1_545 S
C98 C96 1.500 . S
C98 C99 1.377 . S
C98 C103 1.377 . S
C99 C98 1.377 . S
C99 C100 1.395 . S
C99 H128 0.931 . S
C100 C99 1.395 . S
C100 C101 1.383 . S
C100 H129 0.931 . S
C101 C100 1.383 . S
C101 C102 1.394 . S
C102 C101 1.394 . S
C102 C103 1.378 . S
C102 H130 0.931 1_655 S
C103 C98 1.377 . S
C103 C102 1.378 . S
C103 H131 0.931 1_655 S
C104 O118 1.259 . S
C104 O119 1.270 1_545 S
C105 O120 1.251 1_455 S
C105 O121 1.251 . S
C106 Eu107 2.835 . S
C106 C108 1.500 . S
C106 O122 1.257 . S
C106 O123 1.260 . S
Eu107 C106 2.835 . S
Eu107 O119 2.355 1_455 S
Eu107 O121 2.374 1_565 S
Eu107 O122 2.473 . S
Eu107 O123 2.480 . S
Eu107 O124 2.430 . S
Eu107 O125 2.670 1_565 S
Eu107 O126 2.394 . S
C108 C106 1.500 . S
C108 C109 1.377 . S
C108 C113 1.377 1_556 S
C109 C108 1.377 . S
C109 C110 1.395 1_556 S
C109 H132 0.931 . S
C110 C109 1.395 1_554 S
C110 C111 1.383 . S
C110 H133 0.931 . S
C111 C110 1.383 . S
C111 C112 1.394 . S
C112 C111 1.394 . S
C112 C113 1.378 . S
C112 H134 0.931 1_455 S
C113 C108 1.377 1_554 S
C113 C112 1.378 . S
C113 H135 0.931 1_455 S
C114 O124 1.282 . S
C114 O125 1.253 1_565 S
C115 O126 1.251 1_655 S
C115 O127 1.251 . S
O116 C96 1.257 . S
O116 Eu97 2.473 . S
O117 C96 1.260 . S
O117 Eu97 2.480 . S
O118 Eu97 2.430 . S
O118 C104 1.259 . S
O119 Eu97 2.670 1_565 S
O119 C104 1.270 1_565 S
O119 Eu107 2.355 1_655 S
O120 Eu97 2.394 . S
O120 C105 1.251 1_655 S
O121 C105 1.251 . S
O121 Eu107 2.374 1_545 S
O122 C106 1.257 . S
O122 Eu107 2.473 . S
O123 C106 1.260 . S
O123 Eu107 2.480 . S
O124 Eu107 2.430 . S
O124 C114 1.282 . S
O125 Eu97 2.355 1_455 S
O125 Eu107 2.670 1_545 S
O125 C114 1.253 1_545 S
O126 Eu107 2.394 . S
O126 C115 1.251 1_455 S
O127 Eu97 2.374 1_565 S
O127 C115 1.251 . S
H128 C99 0.931 . S
H129 C100 0.931 . S
H130 C102 0.931 1_455 S
H131 C103 0.931 1_455 S
H132 C109 0.931 . S
H133 C110 0.931 . S
H134 C112 0.931 1_655 S
H135 C113 0.931 1_655 S
C136 Eu137 2.835 . S
C136 C138 1.500 . S
C136 O156 1.257 . S
C136 O157 1.260 . S
Eu137 C136 2.835 . S
Eu137 O156 2.473 . S
Eu137 O157 2.480 . S
Eu137 O158 2.430 . S
Eu137 O159 2.670 . S
Eu137 O160 2.394 . S
Eu137 O165 2.355 1_565 S
Eu137 O167 2.374 . S
C138 C136 1.500 . S
C138 C139 1.377 . S
C138 C143 1.377 . S
C139 C138 1.377 . S
C139 C140 1.395 . S
C139 H168 0.931 . S
C140 C139 1.395 . S
C140 C141 1.383 . S
C140 H169 0.931 . S
C141 C140 1.383 . S
C141 C142 1.394 . S
C142 C141 1.394 . S
C142 C143 1.378 . S
C142 H170 0.931 1_565 S
C143 C138 1.377 . S
C143 C142 1.378 . S
C143 H171 0.931 1_565 S
C144 O158 1.259 . S
C144 O159 1.270 . S
C145 O160 1.251 1_545 S
C145 O161 1.251 . S
C146 Eu147 2.835 . S
C146 C148 1.500 . S
C146 O162 1.257 . S
C146 O163 1.260 . S
Eu147 C146 2.835 . S
Eu147 O159 2.355 1_545 S
Eu147 O161 2.374 . S
Eu147 O162 2.473 . S
Eu147 O163 2.480 . S
Eu147 O164 2.430 . S
Eu147 O165 2.670 . S
Eu147 O166 2.394 . S
C148 C146 1.500 . S
C148 C149 1.377 . S
C148 C153 1.377 1_556 S
C149 C148 1.377 . S
C149 C150 1.395 1_556 S
C149 H172 0.931 . S
C150 C149 1.395 1_554 S
C150 C151 1.383 . S
C150 H173 0.931 . S
C151 C150 1.383 . S
C151 C152 1.394 . S
C152 C151 1.394 . S
C152 C153 1.378 . S
C152 H174 0.931 1_545 S
C153 C148 1.377 1_554 S
C153 C152 1.378 . S
C153 H175 0.931 1_545 S
C154 O164 1.259 . S
C154 O165 1.270 . S
C155 O166 1.251 1_565 S
C155 O167 1.251 . S
O156 C136 1.257 . S
O156 Eu137 2.473 . S
O157 C136 1.260 . S
O157 Eu137 2.480 . S
O158 Eu137 2.430 . S
O158 C144 1.259 . S
O159 Eu137 2.670 . S
O159 C144 1.270 . S
O159 Eu147 2.355 1_565 S
O160 Eu137 2.394 . S
O160 C145 1.251 1_565 S
O161 C145 1.251 . S
O161 Eu147 2.374 . S
O162 C146 1.257 . S
O162 Eu147 2.473 . S
O163 C146 1.260 . S
O163 Eu147 2.480 . S
O164 Eu147 2.430 . S
O164 C154 1.259 . S
O165 Eu137 2.355 1_545 S
O165 Eu147 2.670 . S
O165 C154 1.270 . S
O166 Eu147 2.394 . S
O166 C155 1.251 1_545 S
O167 Eu137 2.374 . S
O167 C155 1.251 . S
H168 C139 0.931 . S
H169 C140 0.931 . S
H170 C142 0.931 1_545 S
H171 C143 0.931 1_545 S
H172 C149 0.931 . S
H173 C150 0.931 . S
H174 C152 0.931 1_565 S
H175 C153 0.931 1_565 S
C176 Eu177 2.835 . S
C176 C178 1.500 . S
C176 O196 1.257 . S
C176 O197 1.260 . S
Eu177 C176 2.835 . S
Eu177 O196 2.473 . S
Eu177 O197 2.480 . S
Eu177 O198 2.430 . S
Eu177 O199 2.670 . S
Eu177 O200 2.394 . S
Eu177 O205 2.355 . S
Eu177 O207 2.374 . S
C178 C176 1.500 . S
C178 C179 1.377 . S
C178 C183 1.377 . S
C179 C178 1.377 . S
C179 C180 1.395 . S
C179 H208 0.931 . S
C180 C179 1.395 . S
C180 C181 1.383 . S
C180 H209 0.931 . S
C181 C180 1.383 . S
C181 C182 1.394 . S
C182 C181 1.394 . S
C182 C183 1.378 . S
C182 H210 0.931 . S
C183 C178 1.377 . S
C183 C182 1.378 . S
C183 H211 0.931 . S
C184 O198 1.259 . S
C184 O199 1.270 . S
C185 O200 1.251 . S
C185 O201 1.251 . S
C186 Eu187 2.835 . S
C186 C188 1.500 . S
C186 O202 1.257 . S
C186 O203 1.260 . S
Eu187 C186 2.835 . S
Eu187 O199 2.355 . S
Eu187 O201 2.374 . S
Eu187 O202 2.473 . S
Eu187 O203 2.480 . S
Eu187 O204 2.430 . S
Eu187 O205 2.670 . S
Eu187 O206 2.394 . S
C188 C186 1.500 . S
C188 C189 1.377 . S
C188 C193 1.377 1_556 S
C189 C188 1.377 . S
C189 C190 1.392 1_556 S
C189 H212 0.933 . S
C190 C189 1.392 1_554 S
C190 C191 1.383 . S
C190 H213 0.931 . S
C191 C190 1.383 . S
C191 C192 1.394 . S
C192 C191 1.394 . S
C192 C193 1.378 . S
C192 H214 0.931 . S
C193 C188 1.377 1_554 S
C193 C192 1.378 . S
C193 H215 0.931 . S
C194 O204 1.259 . S
C194 O205 1.270 . S
C195 O206 1.251 . S
C195 O207 1.251 . S
O196 C176 1.257 . S
O196 Eu177 2.473 . S
O197 C176 1.260 . S
O197 Eu177 2.480 . S
O198 Eu177 2.430 . S
O198 C184 1.259 . S
O199 Eu177 2.670 . S
O199 C184 1.270 . S
O199 Eu187 2.355 . S
O200 Eu177 2.394 . S
O200 C185 1.251 . S
O201 C185 1.251 . S
O201 Eu187 2.374 . S
O202 C186 1.257 . S
O202 Eu187 2.473 . S
O203 C186 1.260 . S
O203 Eu187 2.480 . S
O204 Eu187 2.430 . S
O204 C194 1.259 . S
O205 Eu177 2.355 . S
O205 Eu187 2.670 . S
O205 C194 1.270 . S
O206 Eu187 2.394 . S
O206 C195 1.251 . S
O207 Eu177 2.374 . S
O207 C195 1.251 . S
H208 C179 0.931 . S
H209 C180 0.931 . S
H210 C182 0.931 . S
H211 C183 0.931 . S
H212 C189 0.933 . S
H213 C190 0.931 . S
H214 C192 0.931 . S
H215 C193 0.931 . S
C216 Eu217 2.835 . S
C216 C218 1.500 . S
C216 O236 1.257 . S
C216 O237 1.260 . S
Eu217 C216 2.835 . S
Eu217 O236 2.473 . S
Eu217 O237 2.480 . S
Eu217 O238 2.430 . S
Eu217 O239 2.670 1_455 S
Eu217 O240 2.394 . S
Eu217 O245 2.355 . S
Eu217 O247 2.374 1_455 S
C218 C216 1.500 . S
C218 C219 1.377 . S
C218 C223 1.377 . S
C219 C218 1.377 . S
C219 C220 1.395 . S
C219 H248 0.931 . S
C220 C219 1.395 . S
C220 C221 1.383 . S
C220 H249 0.931 . S
C221 C220 1.383 . S
C221 C222 1.394 . S
C222 C221 1.394 . S
C222 C223 1.378 . S
C222 H250 0.931 . S
C223 C218 1.377 . S
C223 C222 1.378 . S
C223 H251 0.931 . S
C224 O238 1.270 . S
C224 O239 1.262 1_455 S
C225 O240 1.251 . S
C225 O241 1.251 . S
C226 Eu227 2.835 . S
C226 C228 1.500 . S
C226 O242 1.257 . S
C226 O243 1.260 . S
Eu227 C226 2.835 . S
Eu227 O239 2.355 . S
Eu227 O241 2.374 1_655 S
Eu227 O242 2.473 . S
Eu227 O243 2.480 . S
Eu227 O244 2.430 . S
Eu227 O245 2.670 1_655 S
Eu227 O246 2.394 . S
C228 C226 1.500 . S
C228 C229 1.378 . S
C228 C233 1.377 1_556 S
C229 C228 1.378 . S
C229 C230 1.389 1_556 S
C229 H252 0.936 . S
C230 C229 1.389 1_554 S
C230 C231 1.383 . S
C230 H253 0.931 . S
C231 C230 1.383 . S
C231 C232 1.394 . S
C232 C231 1.394 . S
C232 C233 1.378 . S
C232 H254 0.931 . S
C233 C228 1.377 1_554 S
C233 C232 1.378 . S
C233 H255 0.931 . S
C234 O244 1.265 . S
C234 O245 1.266 1_655 S
C235 O246 1.251 . S
C235 O247 1.251 . S
O236 C216 1.257 . S
O236 Eu217 2.473 . S
O237 C216 1.260 . S
O237 Eu217 2.480 . S
O238 Eu217 2.430 . S
O238 C224 1.270 . S
O239 Eu217 2.670 1_655 S
O239 C224 1.262 1_655 S
O239 Eu227 2.355 . S
O240 Eu217 2.394 . S
O240 C225 1.251 . S
O241 C225 1.251 . S
O241 Eu227 2.374 1_455 S
O242 C226 1.257 . S
O242 Eu227 2.473 . S
O243 C226 1.260 . S
O243 Eu227 2.480 . S
O244 Eu227 2.430 . S
O244 C234 1.265 . S
O245 Eu217 2.355 . S
O245 Eu227 2.670 1_455 S
O245 C234 1.266 1_455 S
O246 Eu227 2.394 . S
O246 C235 1.251 . S
O247 Eu217 2.374 1_655 S
O247 C235 1.251 . S
H248 C219 0.931 . S
H249 C220 0.931 . S
H250 C222 0.931 . S
H251 C223 0.931 . S
H252 C229 0.936 . S
H253 C230 0.931 . S
H254 C232 0.931 . S
H255 C233 0.931 . S
H256 C264 0.950 . S
H257 C269 0.950 . S
H258 C266 0.950 . S
H259 C268 0.950 . S
H260 C270 0.950 . S
H261 C272 0.950 . S
H262 C274 0.950 . S
H263 C275 0.950 . S
C264 H256 0.950 . S
C264 C265 1.388 . S
C264 C266 1.391 . S
C265 C264 1.388 . S
C265 C269 1.390 1_565 S
C266 H258 0.950 . S
C266 C264 1.391 . S
C266 C267 1.403 1_565 S
C267 C266 1.403 1_545 S
C267 C268 1.395 . S
C267 C273 1.490 . S
C268 H259 0.950 . S
C268 C267 1.395 . S
C268 C269 1.391 . S
C269 H257 0.950 . S
C269 C265 1.390 1_545 S
C269 C268 1.391 . S
C270 H260 0.950 . S
C270 C271 1.406 . S
C270 C272 1.391 . S
C271 C270 1.406 . S
C271 C275 1.372 1_545 S
C272 H261 0.950 . S
C272 C270 1.391 . S
C272 C273 1.413 . S
C273 C267 1.490 . S
C273 C272 1.413 . S
C273 C274 1.386 1_545 S
C274 H262 0.950 . S
C274 C273 1.386 1_565 S
C274 C275 1.391 . S
C275 H263 0.950 . S
C275 C271 1.372 1_565 S
C275 C274 1.391 . S
H276 C284 0.950 . S
H277 C289 0.950 . S
H278 C286 0.950 . S
H279 C288 0.950 . S
H280 C290 0.950 . S
H281 C292 0.950 . S
H282 C294 0.950 . S
H283 C295 0.950 . S
C284 H276 0.950 . S
C284 C285 1.386 . S
C284 C286 1.391 . S
C285 C284 1.386 . S
C285 C289 1.393 . S
C286 H278 0.950 . S
C286 C284 1.391 . S
C286 C287 1.400 . S
C287 C286 1.400 . S
C287 C288 1.398 . S
C287 C293 1.491 . S
C288 H279 0.950 . S
C288 C287 1.398 . S
C288 C289 1.391 . S
C289 H277 0.950 . S
C289 C285 1.393 . S
C289 C288 1.391 . S
C290 H280 0.950 . S
C290 C291 1.386 . S
C290 C292 1.391 . S
C291 C290 1.386 . S
C291 C295 1.393 . S
C292 H281 0.950 . S
C292 C290 1.391 . S
C292 C293 1.400 . S
C293 C287 1.491 . S
C293 C292 1.400 . S
C293 C294 1.398 . S
C294 H282 0.950 . S
C294 C293 1.398 . S
C294 C295 1.391 . S
C295 H283 0.950 . S
C295 C291 1.393 . S
C295 C294 1.391 . S
H296 C304 0.950 . S
H297 C309 0.950 . S
H298 C306 0.950 . S
H299 C308 0.950 . S
H300 C310 0.950 . S
H301 C312 0.950 . S
H302 C314 0.950 . S
H303 C315 0.950 . S
C304 H296 0.950 . S
C304 C305 1.386 . S
C304 C306 1.391 . S
C305 C304 1.386 . S
C305 C309 1.393 . S
C306 H298 0.950 . S
C306 C304 1.391 . S
C306 C307 1.400 . S
C307 C306 1.400 . S
C307 C308 1.398 . S
C307 C313 1.491 . S
C308 H299 0.950 . S
C308 C307 1.398 . S
C308 C309 1.391 . S
C309 H297 0.950 . S
C309 C305 1.393 . S
C309 C308 1.391 . S
C310 H300 0.950 . S
C310 C311 1.386 . S
C310 C312 1.391 . S
C311 C310 1.386 . S
C311 C315 1.393 . S
C312 H301 0.950 . S
C312 C310 1.391 . S
C312 C313 1.400 . S
C313 C307 1.491 . S
C313 C312 1.400 . S
C313 C314 1.398 . S
C314 H302 0.950 . S
C314 C313 1.398 . S
C314 C315 1.391 . S
C315 H303 0.950 . S
C315 C311 1.393 . S
C315 C314 1.391 . S
H316 C324 0.950 . S
H317 C329 0.950 . S
H318 C326 0.950 . S
H319 C328 0.950 . S
H320 C330 0.950 . S
H321 C332 0.950 . S
H322 C334 0.950 . S
H323 C335 0.950 . S
C324 H316 0.950 . S
C324 C325 1.389 1_655 S
C324 C326 1.391 . S
C325 C324 1.389 1_455 S
C325 C329 1.390 . S
C326 H318 0.950 . S
C326 C324 1.391 . S
C326 C327 1.388 1_655 S
C327 C326 1.388 1_455 S
C327 C328 1.410 . S
C327 C333 1.490 . S
C328 H319 0.950 . S
C328 C327 1.410 . S
C328 C329 1.391 . S
C329 H317 0.950 . S
C329 C325 1.390 . S
C329 C328 1.391 . S
C330 H320 0.950 . S
C330 C331 1.386 . S
C330 C332 1.391 . S
C331 C330 1.386 . S
C331 C335 1.393 1_455 S
C332 H321 0.950 . S
C332 C330 1.391 . S
C332 C333 1.429 . S
C333 C327 1.490 . S
C333 C332 1.429 . S
C333 C334 1.371 1_455 S
C334 H322 0.950 . S
C334 C333 1.371 1_655 S
C334 C335 1.391 . S
C335 H323 0.950 . S
C335 C331 1.393 1_655 S
C335 C334 1.391 . S
H336 C344 0.950 . S
H337 C349 0.950 . S
H338 C346 0.950 . S
H339 C348 0.950 . S
H340 C350 0.950 . S
H341 C352 0.950 . S
H342 C354 0.950 . S
H343 C355 0.950 . S
C344 H336 0.950 . S
C344 C345 1.396 . S
C344 C346 1.391 . S
C345 C344 1.396 . S
C345 C349 1.384 1_545 S
C346 H338 0.950 . S
C346 C344 1.391 . S
C346 C347 1.405 . S
C347 C346 1.405 . S
C347 C348 1.395 1_545 S
C347 C353 1.490 1_545 S
C348 H339 0.950 . S
C348 C347 1.395 1_565 S
C348 C349 1.391 . S
C349 H337 0.950 . S
C349 C345 1.384 1_565 S
C349 C348 1.391 . S
C350 H340 0.950 . S
C350 C351 1.396 1_554 S
C350 C352 1.391 . S
C351 C350 1.396 1_556 S
C351 C355 1.384 1_565 S
C352 H341 0.950 . S
C352 C350 1.391 . S
C352 C353 1.405 . S
C353 C347 1.490 1_565 S
C353 C352 1.405 . S
C353 C354 1.395 1_564 S
C354 H342 0.950 . S
C354 C353 1.395 1_546 S
C354 C355 1.391 . S
C355 H343 0.950 . S
C355 C351 1.384 1_545 S
C355 C354 1.391 . S
H356 C364 0.950 . S
H357 C369 0.950 . S
H358 C366 0.950 . S
H359 C368 0.950 . S
H360 C370 0.950 . S
H361 C372 0.950 . S
H362 C374 0.950 . S
H363 C375 0.950 . S
C364 H356 0.950 . S
C364 C365 1.386 . S
C364 C366 1.391 . S
C365 C364 1.386 . S
C365 C369 1.393 . S
C366 H358 0.950 . S
C366 C364 1.391 . S
C366 C367 1.400 . S
C367 C366 1.400 . S
C367 C368 1.398 . S
C367 C373 1.491 . S
C368 H359 0.950 . S
C368 C367 1.398 . S
C368 C369 1.391 . S
C369 H357 0.950 . S
C369 C365 1.393 . S
C369 C368 1.391 . S
C370 H360 0.950 . S
C370 C371 1.386 1_554 S
C370 C372 1.391 . S
C371 C370 1.386 1_556 S
C371 C375 1.393 . S
C372 H361 0.950 . S
C372 C370 1.391 . S
C372 C373 1.400 . S
C373 C367 1.491 . S
C373 C372 1.400 . S
C373 C374 1.395 1_554 S
C374 H362 0.950 . S
C374 C373 1.395 1_556 S
C374 C375 1.394 . S
C375 H363 0.950 . S
C375 C371 1.393 . S
C375 C374 1.394 . S
H376 C384 0.950 . S
H377 C389 0.950 . S
H378 C386 0.950 . S
H379 C388 0.950 . S
H380 C390 0.950 . S
H381 C392 0.950 . S
H382 C394 0.950 . S
H383 C395 0.950 . S
C384 H376 0.950 . S
C384 C385 1.386 . S
C384 C386 1.391 . S
C385 C384 1.386 . S
C385 C389 1.393 . S
C386 H378 0.950 . S
C386 C384 1.391 . S
C386 C387 1.400 . S
C387 C386 1.400 . S
C387 C388 1.398 . S
C387 C393 1.491 . S
C388 H379 0.950 . S
C388 C387 1.398 . S
C388 C389 1.391 . S
C389 H377 0.950 . S
C389 C385 1.393 . S
C389 C388 1.391 . S
C390 H380 0.950 . S
C390 C391 1.386 . S
C390 C392 1.391 . S
C391 C390 1.386 . S
C391 C395 1.393 1_556 S
C392 H381 0.950 . S
C392 C390 1.391 . S
C392 C393 1.400 1_556 S
C393 C387 1.491 . S
C393 C392 1.400 1_554 S
C393 C394 1.398 . S
C394 H382 0.950 . S
C394 C393 1.398 . S
C394 C395 1.391 . S
C395 H383 0.950 . S
C395 C391 1.393 1_554 S
C395 C394 1.391 . S
H396 C404 0.950 . S
H397 C409 0.950 . S
H398 C406 0.950 . S
H399 C408 0.950 . S
H400 C410 0.950 . S
H401 C412 0.950 . S
H402 C414 0.950 . S
H403 C415 0.950 . S
C404 H396 0.950 . S
C404 C405 1.390 . S
C404 C406 1.391 . S
C405 C404 1.390 . S
C405 C409 1.389 1_455 S
C406 H398 0.950 . S
C406 C404 1.391 . S
C406 C407 1.394 1_455 S
C407 C406 1.394 1_655 S
C407 C408 1.404 . S
C407 C413 1.490 . S
C408 H399 0.950 . S
C408 C407 1.404 . S
C408 C409 1.391 . S
C409 H397 0.950 . S
C409 C405 1.389 1_655 S
C409 C408 1.391 . S
C410 H400 0.950 . S
C410 C411 1.386 . S
C410 C412 1.391 1_556 S
C411 C410 1.386 . S
C411 C415 1.393 1_655 S
C412 H401 0.950 . S
C412 C410 1.391 1_554 S
C412 C413 1.430 . S
C413 C407 1.490 . S
C413 C412 1.430 . S
C413 C414 1.371 1_655 S
C414 H402 0.950 . S
C414 C413 1.371 1_455 S
C414 C415 1.391 1_554 S
C415 H403 0.950 . S
C415 C411 1.393 1_455 S
C415 C414 1.391 1_556 S
H416 C424 0.950 . S
H417 C429 0.950 . S
H418 C426 0.950 . S
H419 C428 0.944 1_455 S
H420 C430 0.950 . S
H421 C432 0.950 . S
H422 C434 0.950 . S
H423 C435 0.950 . S
C424 H416 0.950 . S
C424 C425 1.365 1_655 S
C424 C426 1.391 . S
C425 C424 1.365 1_455 S
C425 C429 1.402 . S
C426 H418 0.950 . S
C426 C424 1.391 . S
C426 C427 1.400 . S
C427 C426 1.400 . S
C427 C428 1.418 . S
C427 C433 1.491 . S
C428 H419 0.944 1_655 S
C428 C427 1.418 . S
C428 C429 1.379 1_655 S
C429 H417 0.950 . S
C429 C425 1.402 . S
C429 C428 1.379 1_455 S
C430 H420 0.950 . S
C430 C431 1.386 . S
C430 C432 1.391 . S
C431 C430 1.386 . S
C431 C435 1.393 . S
C432 H421 0.950 . S
C432 C430 1.391 . S
C432 C433 1.400 . S
C433 C427 1.491 . S
C433 C432 1.400 . S
C433 C434 1.398 . S
C434 H422 0.950 . S
C434 C433 1.398 . S
C434 C435 1.391 . S
C435 H423 0.950 . S
C435 C431 1.393 . S
C435 C434 1.391 . S
H436 C444 0.950 . S
H437 C449 0.950 . S
H438 C446 0.946 1_545 S
H439 C448 0.950 . S
H440 C450 0.950 . S
H441 C452 0.950 . S
H442 C454 0.950 . S
H443 C455 0.950 . S
C444 H436 0.950 . S
C444 C445 1.391 . S
C444 C446 1.391 1_545 S
C445 C444 1.391 . S
C445 C449 1.380 1_545 S
C446 H438 0.946 1_565 S
C446 C444 1.391 1_565 S
C446 C447 1.400 . S
C447 C446 1.400 . S
C447 C448 1.398 . S
C447 C453 1.491 . S
C448 H439 0.950 . S
C448 C447 1.398 . S
C448 C449 1.391 . S
C449 H437 0.950 . S
C449 C445 1.380 1_565 S
C449 C448 1.391 . S
C450 H440 0.950 . S
C450 C451 1.386 . S
C450 C452 1.391 . S
C451 C450 1.386 . S
C451 C455 1.393 . S
C452 H441 0.950 . S
C452 C450 1.391 . S
C452 C453 1.400 . S
C453 C447 1.491 . S
C453 C452 1.400 . S
C453 C454 1.398 . S
C454 H442 0.950 . S
C454 C453 1.398 . S
C454 C455 1.391 . S
C455 H443 0.950 . S
C455 C451 1.393 . S
C455 C454 1.391 . S
H456 C464 0.950 . S
H457 C469 0.950 . S
H458 C466 0.950 . S
H459 C468 0.950 . S
H460 C470 0.950 . S
H461 C472 0.950 . S
H462 C474 0.950 . S
H463 C475 0.950 . S
C464 H456 0.950 . S
C464 C465 1.386 . S
C464 C466 1.391 . S
C465 C464 1.386 . S
C465 C469 1.393 . S
C466 H458 0.950 . S
C466 C464 1.391 . S
C466 C467 1.400 . S
C467 C466 1.400 . S
C467 C468 1.398 . S
C467 C473 1.491 . S
C468 H459 0.950 . S
C468 C467 1.398 . S
C468 C469 1.391 . S
C469 H457 0.950 . S
C469 C465 1.393 . S
C469 C468 1.391 . S
C470 H460 0.950 . S
C470 C471 1.386 . S
C470 C472 1.391 . S
C471 C470 1.386 . S
C471 C475 1.393 . S
C472 H461 0.950 . S
C472 C470 1.391 . S
C472 C473 1.400 . S
C473 C467 1.491 . S
C473 C472 1.400 . S
C473 C474 1.398 . S
C474 H462 0.950 . S
C474 C473 1.398 . S
C474 C475 1.391 . S
C475 H463 0.950 . S
C475 C471 1.393 . S
C475 C474 1.391 . S
H476 C484 0.950 . S
H477 C489 0.950 . S
H478 C486 0.950 . S
H479 C488 0.950 . S
H480 C490 0.950 . S
H481 C492 0.950 . S
H482 C494 0.950 . S
H483 C495 0.950 . S
C484 H476 0.950 . S
C484 C485 1.386 . S
C484 C486 1.391 . S
C485 C484 1.386 . S
C485 C489 1.393 . S
C486 H478 0.950 . S
C486 C484 1.391 . S
C486 C487 1.400 . S
C487 C486 1.400 . S
C487 C488 1.398 . S
C487 C493 1.491 . S
C488 H479 0.950 . S
C488 C487 1.398 . S
C488 C489 1.391 . S
C489 H477 0.950 . S
C489 C485 1.393 . S
C489 C488 1.391 . S
C490 H480 0.950 . S
C490 C491 1.386 . S
C490 C492 1.391 . S
C491 C490 1.386 . S
C491 C495 1.393 . S
C492 H481 0.950 . S
C492 C490 1.391 . S
C492 C493 1.400 . S
C493 C487 1.491 . S
C493 C492 1.400 . S
C493 C494 1.398 . S
C494 H482 0.950 . S
C494 C493 1.398 . S
C494 C495 1.391 . S
C495 H483 0.950 . S
C495 C491 1.393 . S
C495 C494 1.391 . S
H496 C504 0.950 . S
H497 C509 0.950 . S
H498 C506 0.950 . S
H499 C508 0.950 . S
H500 C510 0.950 1_655 S
H501 C512 0.950 1_655 S
H502 C514 0.950 . S
H503 C515 0.950 . S
C504 H496 0.950 . S
C504 C505 1.386 1_455 S
C504 C506 1.391 . S
C505 C504 1.386 1_655 S
C505 C509 1.393 . S
C506 H498 0.950 . S
C506 C504 1.391 . S
C506 C507 1.400 . S
C507 C506 1.400 . S
C507 C508 1.398 1_455 S
C507 C513 1.491 . S
C508 H499 0.950 . S
C508 C507 1.398 1_655 S
C508 C509 1.391 . S
C509 H497 0.950 . S
C509 C505 1.393 . S
C509 C508 1.391 . S
C510 H500 0.950 1_455 S
C510 C511 1.386 . S
C510 C512 1.391 . S
C511 C510 1.386 . S
C511 C515 1.393 . S
C512 H501 0.950 1_455 S
C512 C510 1.391 . S
C512 C513 1.400 . S
C513 C507 1.491 . S
C513 C512 1.400 . S
C513 C514 1.398 . S
C514 H502 0.950 . S
C514 C513 1.398 . S
C514 C515 1.391 . S
C515 H503 0.950 . S
C515 C511 1.393 . S
C515 C514 1.391 . S
H516 C524 0.950 . S
H517 C529 0.950 . S
H518 C526 0.950 . S
H519 C528 0.950 . S
H520 C530 0.950 . S
H521 C532 0.950 . S
H522 C534 0.950 1_565 S
H523 C535 0.950 . S
C524 H516 0.950 . S
C524 C525 1.386 . S
C524 C526 1.391 . S
C525 C524 1.386 . S
C525 C529 1.393 1_565 S
C526 H518 0.950 . S
C526 C524 1.391 . S
C526 C527 1.400 1_565 S
C527 C526 1.400 1_545 S
C527 C528 1.398 . S
C527 C533 1.491 . S
C528 H519 0.950 . S
C528 C527 1.398 . S
C528 C529 1.391 . S
C529 H517 0.950 . S
C529 C525 1.393 1_545 S
C529 C528 1.391 . S
C530 H520 0.950 . S
C530 C531 1.386 . S
C530 C532 1.391 . S
C531 C530 1.386 . S
C531 C535 1.393 . S
C532 H521 0.950 . S
C532 C530 1.391 . S
C532 C533 1.400 . S
C533 C527 1.491 . S
C533 C532 1.400 . S
C533 C534 1.398 . S
C534 H522 0.950 1_545 S
C534 C533 1.398 . S
C534 C535 1.391 . S
C535 H523 0.950 . S
C535 C531 1.393 . S
C535 C534 1.391 . S
H536 C544 0.950 . S
H537 C549 0.950 . S
H538 C546 0.950 . S
H539 C548 0.950 . S
H540 C550 0.950 . S
H541 C552 0.950 . S
H542 C554 0.950 . S
H543 C555 0.950 . S
C544 H536 0.950 . S
C544 C545 1.386 . S
C544 C546 1.391 . S
C545 C544 1.386 . S
C545 C549 1.393 . S
C546 H538 0.950 . S
C546 C544 1.391 . S
C546 C547 1.400 . S
C547 C546 1.400 . S
C547 C548 1.398 . S
C547 C553 1.491 . S
C548 H539 0.950 . S
C548 C547 1.398 . S
C548 C549 1.391 . S
C549 H537 0.950 . S
C549 C545 1.393 . S
C549 C548 1.391 . S
C550 H540 0.950 . S
C550 C551 1.386 . S
C550 C552 1.391 . S
C551 C550 1.386 . S
C551 C555 1.393 . S
C552 H541 0.950 . S
C552 C550 1.391 . S
C552 C553 1.400 . S
C553 C547 1.491 . S
C553 C552 1.400 . S
C553 C554 1.398 . S
C554 H542 0.950 . S
C554 C553 1.398 . S
C554 C555 1.391 . S
C555 H543 0.950 . S
C555 C551 1.393 . S
C555 C554 1.391 . S
H556 C564 0.950 . S
H557 C569 0.950 . S
H558 C566 0.950 . S
H559 C568 0.950 . S
H560 C570 0.950 . S
H561 C572 0.950 . S
H562 C574 0.950 . S
H563 C575 0.950 . S
C564 H556 0.950 . S
C564 C565 1.386 . S
C564 C566 1.391 . S
C565 C564 1.386 . S
C565 C569 1.393 . S
C566 H558 0.950 . S
C566 C564 1.391 . S
C566 C567 1.400 . S
C567 C566 1.400 . S
C567 C568 1.398 . S
C567 C573 1.491 . S
C568 H559 0.950 . S
C568 C567 1.398 . S
C568 C569 1.391 . S
C569 H557 0.950 . S
C569 C565 1.393 . S
C569 C568 1.391 . S
C570 H560 0.950 . S
C570 C571 1.386 . S
C570 C572 1.391 . S
C571 C570 1.386 . S
C571 C575 1.393 . S
C572 H561 0.950 . S
C572 C570 1.391 . S
C572 C573 1.400 . S
C573 C567 1.491 . S
C573 C572 1.400 . S
C573 C574 1.398 . S
C574 H562 0.950 . S
C574 C573 1.398 . S
C574 C575 1.391 . S
C575 H563 0.950 . S
C575 C571 1.393 . S
C575 C574 1.391 . S
H576 C584 0.950 . S
H577 C589 0.950 . S
H578 C586 0.950 . S
H579 C588 0.950 . S
H580 C590 0.950 . S
H581 C592 0.950 . S
H582 C594 0.950 . S
H583 C595 0.950 . S
C584 H576 0.950 . S
C584 C585 1.386 . S
C584 C586 1.391 . S
C585 C584 1.386 . S
C585 C589 1.393 1_455 S
C586 H578 0.950 . S
C586 C584 1.391 . S
C586 C587 1.400 . S
C587 C586 1.400 . S
C587 C588 1.398 1_455 S
C587 C593 1.491 . S
C588 H579 0.950 . S
C588 C587 1.398 1_655 S
C588 C589 1.391 . S
C589 H577 0.950 . S
C589 C585 1.393 1_655 S
C589 C588 1.391 . S
C590 H580 0.950 . S
C590 C591 1.386 1_655 S
C590 C592 1.391 . S
C591 C590 1.386 1_455 S
C591 C595 1.393 . S
C592 H581 0.950 . S
C592 C590 1.391 . S
C592 C593 1.400 1_655 S
C593 C587 1.491 . S
C593 C592 1.400 1_455 S
C593 C594 1.398 . S
C594 H582 0.950 . S
C594 C593 1.398 . S
C594 C595 1.391 . S
C595 H583 0.950 . S
C595 C591 1.393 . S
C595 C594 1.391 . S
H596 C604 0.950 . S
H597 C609 0.950 . S
H598 C606 0.950 . S
H599 C608 0.950 . S
H600 C610 0.950 . S
H601 C612 0.950 . S
H602 C614 0.950 . S
H603 C615 0.950 . S
C604 H596 0.950 . S
C604 C605 1.386 . S
C604 C606 1.391 . S
C605 C604 1.386 . S
C605 C609 1.393 1_545 S
C606 H598 0.950 . S
C606 C604 1.391 . S
C606 C607 1.400 . S
C607 C606 1.400 . S
C607 C608 1.398 1_545 S
C607 C613 1.491 . S
C608 H599 0.950 . S
C608 C607 1.398 1_565 S
C608 C609 1.391 . S
C609 H597 0.950 . S
C609 C605 1.393 1_565 S
C609 C608 1.391 . S
C610 H600 0.950 . S
C610 C611 1.386 1_565 S
C610 C612 1.391 . S
C611 C610 1.386 1_545 S
C611 C615 1.393 . S
C612 H601 0.950 . S
C612 C610 1.391 . S
C612 C613 1.400 1_565 S
C613 C607 1.491 . S
C613 C612 1.400 1_545 S
C613 C614 1.398 . S
C614 H602 0.950 . S
C614 C613 1.398 . S
C614 C615 1.391 . S
C615 H603 0.950 . S
C615 C611 1.393 . S
C615 C614 1.391 . S
H616 C624 0.950 . S
H617 C629 0.950 . S
H618 C626 0.950 . S
H619 C628 0.950 . S
H620 C630 0.950 . S
H621 C632 0.950 . S
H622 C634 0.950 . S
H623 C635 0.950 . S
C624 H616 0.950 . S
C624 C625 1.386 . S
C624 C626 1.391 . S
C625 C624 1.386 . S
C625 C629 1.393 . S
C626 H618 0.950 . S
C626 C624 1.391 . S
C626 C627 1.400 . S
C627 C626 1.400 . S
C627 C628 1.398 . S
C627 C633 1.491 . S
C628 H619 0.950 . S
C628 C627 1.398 . S
C628 C629 1.391 . S
C629 H617 0.950 . S
C629 C625 1.393 . S
C629 C628 1.391 . S
C630 H620 0.950 . S
C630 C631 1.386 . S
C630 C632 1.391 . S
C631 C630 1.386 . S
C631 C635 1.393 . S
C632 H621 0.950 . S
C632 C630 1.391 . S
C632 C633 1.400 . S
C633 C627 1.491 . S
C633 C632 1.400 . S
C633 C634 1.398 . S
C634 H622 0.950 . S
C634 C633 1.398 . S
C634 C635 1.391 . S
C635 H623 0.950 . S
C635 C631 1.393 . S
C635 C634 1.391 . S
H636 C644 0.950 . S
H637 C649 0.950 . S
H638 C646 0.950 . S
H639 C648 0.950 . S
H640 C650 0.950 . S
H641 C652 0.950 . S
H642 C654 0.950 . S
H643 C655 0.950 . S
C644 H636 0.950 . S
C644 C645 1.386 . S
C644 C646 1.391 . S
C645 C644 1.386 . S
C645 C649 1.393 . S
C646 H638 0.950 . S
C646 C644 1.391 . S
C646 C647 1.400 . S
C647 C646 1.400 . S
C647 C648 1.398 . S
C647 C653 1.491 . S
C648 H639 0.950 . S
C648 C647 1.398 . S
C648 C649 1.391 . S
C649 H637 0.950 . S
C649 C645 1.393 . S
C649 C648 1.391 . S
C650 H640 0.950 . S
C650 C651 1.386 . S
C650 C652 1.391 . S
C651 C650 1.386 . S
C651 C655 1.393 . S
C652 H641 0.950 . S
C652 C650 1.391 . S
C652 C653 1.400 . S
C653 C647 1.491 . S
C653 C652 1.400 . S
C653 C654 1.398 . S
C654 H642 0.950 . S
C654 C653 1.398 . S
C654 C655 1.391 . S
C655 H643 0.950 . S
C655 C651 1.393 . S
C655 C654 1.391 . S
H656 C664 0.950 . S
H657 C669 0.950 . S
H658 C666 0.950 . S
H659 C668 0.950 . S
H660 C670 0.950 . S
H661 C672 0.950 . S
H662 C674 0.950 . S
H663 C675 0.950 . S
C664 H656 0.950 . S
C664 C665 1.408 . S
C664 C666 1.391 . S
C665 C664 1.408 . S
C665 C669 1.373 1_655 S
C666 H658 0.950 . S
C666 C664 1.391 . S
C666 C667 1.400 . S
C667 C666 1.400 . S
C667 C668 1.398 1_655 S
C667 C673 1.491 . S
C668 H659 0.950 . S
C668 C667 1.398 1_455 S
C668 C669 1.391 . S
C669 H657 0.950 . S
C669 C665 1.373 1_455 S
C669 C668 1.391 . S
C670 H660 0.950 . S
C670 C671 1.386 1_455 S
C670 C672 1.391 . S
C671 C670 1.386 1_655 S
C671 C675 1.393 . S
C672 H661 0.950 . S
C672 C670 1.391 . S
C672 C673 1.400 1_455 S
C673 C667 1.491 . S
C673 C672 1.400 1_655 S
C673 C674 1.398 . S
C674 H662 0.950 . S
C674 C673 1.398 . S
C674 C675 1.391 . S
C675 H663 0.950 . S
C675 C671 1.393 . S
C675 C674 1.391 . S
H676 C684 0.950 . S
H677 C689 0.950 . S
H678 C686 0.950 . S
H679 C688 0.950 . S
H680 C690 0.950 . S
H681 C692 0.950 . S
H682 C694 0.950 . S
H683 C695 0.950 . S
C684 H676 0.950 . S
C684 C685 1.386 . S
C684 C686 1.391 . S
C685 C684 1.386 . S
C685 C689 1.393 1_565 S
C686 H678 0.950 . S
C686 C684 1.391 . S
C686 C687 1.400 . S
C687 C686 1.400 . S
C687 C688 1.398 1_565 S
C687 C693 1.491 . S
C688 H679 0.950 . S
C688 C687 1.398 1_545 S
C688 C689 1.391 . S
C689 H677 0.950 . S
C689 C685 1.393 1_545 S
C689 C688 1.391 . S
C690 H680 0.950 . S
C690 C691 1.386 1_545 S
C690 C692 1.391 . S
C691 C690 1.386 1_565 S
C691 C695 1.393 . S
C692 H681 0.950 . S
C692 C690 1.391 . S
C692 C693 1.400 1_545 S
C693 C687 1.491 . S
C693 C692 1.400 1_565 S
C693 C694 1.398 . S
C694 H682 0.950 . S
C694 C693 1.398 . S
C694 C695 1.391 . S
C695 H683 0.950 . S
C695 C691 1.393 . S
C695 C694 1.391 . S
H696 C704 0.950 . S
H697 C709 0.950 . S
H698 C706 0.950 . S
H699 C708 0.950 . S
H700 C710 0.950 . S
H701 C712 0.950 . S
H702 C714 0.950 . S
H703 C715 0.950 . S
C704 H696 0.950 . S
C704 C705 1.386 . S
C704 C706 1.391 . S
C705 C704 1.386 . S
C705 C709 1.393 . S
C706 H698 0.950 . S
C706 C704 1.391 . S
C706 C707 1.400 . S
C707 C706 1.400 . S
C707 C708 1.398 . S
C707 C713 1.491 . S
C708 H699 0.950 . S
C708 C707 1.398 . S
C708 C709 1.391 . S
C709 H697 0.950 . S
C709 C705 1.393 . S
C709 C708 1.391 . S
C710 H700 0.950 . S
C710 C711 1.386 . S
C710 C712 1.391 . S
C711 C710 1.386 . S
C711 C715 1.393 . S
C712 H701 0.950 . S
C712 C710 1.391 . S
C712 C713 1.400 . S
C713 C707 1.491 . S
C713 C712 1.400 . S
C713 C714 1.398 . S
C714 H702 0.950 . S
C714 C713 1.398 . S
C714 C715 1.391 . S
C715 H703 0.950 . S
C715 C711 1.393 . S
C715 C714 1.391 . S
H716 C724 0.950 . S
H717 C729 0.950 . S
H718 C726 0.950 . S
H719 C728 0.950 . S
H720 C730 0.950 . S
H721 C732 0.950 . S
H722 C734 0.950 . S
H723 C735 0.950 . S
C724 H716 0.950 . S
C724 C725 1.386 . S
C724 C726 1.391 . S
C725 C724 1.386 . S
C725 C729 1.393 . S
C726 H718 0.950 . S
C726 C724 1.391 . S
C726 C727 1.400 . S
C727 C726 1.400 . S
C727 C728 1.398 . S
C727 C733 1.491 . S
C728 H719 0.950 . S
C728 C727 1.398 . S
C728 C729 1.391 . S
C729 H717 0.950 . S
C729 C725 1.393 . S
C729 C728 1.391 . S
C730 H720 0.950 . S
C730 C731 1.386 . S
C730 C732 1.391 . S
C731 C730 1.386 . S
C731 C735 1.393 . S
C732 H721 0.950 . S
C732 C730 1.391 . S
C732 C733 1.400 . S
C733 C727 1.491 . S
C733 C732 1.400 . S
C733 C734 1.398 . S
C734 H722 0.950 . S
C734 C733 1.398 . S
C734 C735 1.391 . S
C735 H723 0.950 . S
C735 C731 1.393 . S
C735 C734 1.391 . S
C265 C76 1.814 . S
C271 C114 1.988 1_545 S
C291 C154 2.003 . S
C285 C88 1.835 . S
C311 C194 2.008 . S
C305 C52 1.854 . S
C331 C234 1.999 1_455 S
C325 C64 1.822 1_455 S
C351 C104 1.988 1_565 S
C345 C28 1.839 1_545 S
C365 C40 1.851 . S
C371 C144 2.002 . S
C385 C4 1.852 . S
C391 C184 2.004 . S
C405 C16 1.850 1_455 S
C411 C224 1.994 1_655 S
C431 C101 0.422 . S
C425 C69 0.435 . S
C451 C141 0.435 . S
C445 C81 0.469 . S
C471 C181 0.490 . S
C465 C93 0.513 . S
C485 C57 0.452 . S
C491 C221 0.463 . S
C505 C21 0.508 1_655 S
C511 C111 0.468 . S
C531 C151 0.477 . S
C525 C33 0.473 1_565 S
C551 C191 0.492 . S
C545 C45 0.525 . S
C565 C9 0.473 . S
C571 C231 0.476 . S
C585 C66 2.047 . S
C591 C105 2.282 . S
C605 C78 2.016 . S
C611 C145 2.255 . S
C631 C185 2.242 . S
C625 C90 2.031 . S
C651 C225 2.274 . S
C645 C54 2.052 . S
C665 C18 2.071 1_655 S
C671 C115 2.297 . S
C691 C155 2.250 . S
C685 C30 2.045 1_565 S
C711 C195 2.246 . S
C705 C42 2.025 . S
C725 C6 2.064 . S
C731 C235 2.279 . S
