# Generated by pormake.
# Topology anh, (6,3)-cn, num edge types: 1
# Building blocks:
#     Node 0, Type 0, BuildingBlock: HISSIN_clean_sbu_0, # of connection points: 6
#     Node 1, Type 0, BuildingBlock: HISSIN_clean_sbu_0, # of connection points: 6
#     Node 2, Type 0, BuildingBlock: HISSIN_clean_sbu_0, # of connection points: 6
#     Node 3, Type 1, BuildingBlock: BETDAH_clean_linker_0, # of connection points: 3
#     Node 4, Type 1, BuildingBlock: BETDAH_clean_linker_0, # of connection points: 3
#     Node 5, Type 1, BuildingBlock: BETDAH_clean_linker_0, # of connection points: 3
#     Node 6, Type 1, BuildingBlock: BETDAH_clean_linker_0, # of connection points: 3
#     Node 7, Type 1, BuildingBlock: BETDAH_clean_linker_0, # of connection points: 3
#     Node 8, Type 1, BuildingBlock: BETDAH_clean_linker_0, # of connection points: 3
#     Edge 9, Type (0, 1), BuildingBlock: MIFKUJ_clean_linker_0, # of connection points: 2
#     Edge 10, Type (0, 1), BuildingBlock: MIFKUJ_clean_linker_0, # of connection points: 2
#     Edge 11, Type (0, 1), BuildingBlock: MIFKUJ_clean_linker_0, # of connection points: 2
#     Edge 12, Type (0, 1), BuildingBlock: MIFKUJ_clean_linker_0, # of connection points: 2
#     Edge 13, Type (0, 1), BuildingBlock: MIFKUJ_clean_linker_0, # of connection points: 2
#     Edge 14, Type (0, 1), BuildingBlock: MIFKUJ_clean_linker_0, # of connection points: 2
#     Edge 15, Type (0, 1), BuildingBlock: MIFKUJ_clean_linker_0, # of connection points: 2
#     Edge 16, Type (0, 1), BuildingBlock: MIFKUJ_clean_linker_0, # of connection points: 2
#     Edge 17, Type (0, 1), BuildingBlock: MIFKUJ_clean_linker_0, # of connection points: 2
#     Edge 18, Type (0, 1), BuildingBlock: MIFKUJ_clean_linker_0, # of connection points: 2
#     Edge 19, Type (0, 1), BuildingBlock: MIFKUJ_clean_linker_0, # of connection points: 2
#     Edge 20, Type (0, 1), BuildingBlock: MIFKUJ_clean_linker_0, # of connection points: 2
#     Edge 21, Type (0, 1), BuildingBlock: MIFKUJ_clean_linker_0, # of connection points: 2
#     Edge 22, Type (0, 1), BuildingBlock: MIFKUJ_clean_linker_0, # of connection points: 2
#     Edge 23, Type (0, 1), BuildingBlock: MIFKUJ_clean_linker_0, # of connection points: 2
#     Edge 24, Type (0, 1), BuildingBlock: MIFKUJ_clean_linker_0, # of connection points: 2
#     Edge 25, Type (0, 1), BuildingBlock: MIFKUJ_clean_linker_0, # of connection points: 2
#     Edge 26, Type (0, 1), BuildingBlock: MIFKUJ_clean_linker_0, # of connection points: 2
# Relax obj value: 0.173
# Max RMSD: 0.139
# Mean RMSD: 0.102
data_MOF--net-anh--node1-HISSIN_clean_sbu_0--node2-BETDAH_clean_linker_0--edge1-MIFKUJ_clean_linker_0
_symmetry_space_group_name_H-M    P1
_symmetry_Int_Tables_number       1
_symmetry_cell_setting            triclinic
loop_
_symmetry_equiv_pos_as_xyz
'x, y, z'
_cell_length_a     39.789202
_cell_length_b     39.939718
_cell_length_c     64.905586
_cell_angle_alpha  96.88652
_cell_angle_beta   90.709409
_cell_angle_gamma 120.0787
loop_
_atom_site_label
_atom_site_type_symbol
_atom_site_fract_x
_atom_site_fract_y
_atom_site_fract_z
_atom_type_partial_charge
Eu0 Eu 1.05858 0.55236 0.15892 0.0
Eu1 Eu 0.10432 0.64721 0.16358 0.0
C2 C 1.07603 0.60221 0.20406 0.0
C3 C 0.98713 0.44322 0.16065 0.0
C4 C 0.96015 0.44869 0.17211 0.0
C5 C 0.94885 0.37362 0.16133 0.0
C6 C 0.92751 0.41649 0.17824 0.0
C7 C 0.98124 0.40565 0.15523 0.0
C8 C 0.9216 0.3786 0.17291 0.0
C9 C 1.02227 0.47619 0.15466 0.0
O10 O 0.15086 0.63153 0.15496 0.0
O11 O 0.12282 0.57131 0.16556 0.0
C12 C 0.15342 0.60158 0.15961 0.0
O13 O 1.08433 0.56668 0.12861 0.0
O14 O 0.15161 0.70397 0.17837 0.0
O15 O 0.11097 0.70116 0.15478 0.0
O16 O 0.08907 0.62612 0.129 0.0
C17 C 0.08779 0.59495 0.11891 0.0
O18 O 1.01135 0.56709 0.15141 0.0
O19 O 1.04116 0.63053 0.16759 0.0
O20 O 0.10281 0.63306 0.19656 0.0
O21 O 1.01726 0.49558 0.14131 0.0
O22 O 1.0489 0.49894 0.16972 0.0
O23 O 1.0508 0.57051 0.19172 0.0
C24 C 0.17731 0.75052 0.1555 0.0
C25 C 0.18017 0.74206 0.13416 0.0
C26 C 0.24307 0.80616 0.15838 0.0
C27 C 0.21453 0.76523 0.12507 0.0
C28 C 0.2086 0.78329 0.16737 0.0
C29 C 0.24687 0.79689 0.13722 0.0
C30 C 0.144 0.72329 0.16607 0.0
C31 C 1.00965 0.59855 0.15863 0.0
H32 H 0.96454 0.47775 0.17643 0.0
H33 H 0.94573 0.34502 0.1574 0.0
H34 H 0.90698 0.42118 0.1871 0.0
H35 H 1.00204 0.40112 0.14652 0.0
H36 H 0.15645 0.71672 0.12466 0.0
H37 H 0.26746 0.8297 0.16841 0.0
H38 H 0.21622 0.75746 0.10871 0.0
H39 H 0.20709 0.79008 0.18389 0.0
Eu40 Eu 0.61806 0.0635 0.49302 0.0
Eu41 Eu 0.5665 0.10633 0.4943 0.0
C42 C 0.59347 0.08698 0.5369 0.0
C43 C 0.6617 0.99634 0.49692 0.0
C44 C 0.64654 0.98094 0.51519 0.0
C45 C 0.68887 0.95393 0.49166 0.0
C46 C 0.6532 0.95255 0.52187 0.0
C47 C 0.6822 0.98215 0.48504 0.0
C48 C 0.67502 0.93922 0.51033 0.0
C49 C 0.65919 1.02904 0.49056 0.0
O50 O 0.62685 0.15434 0.48794 0.0
O51 O 0.66383 0.12895 0.49806 0.0
C52 C 0.66119 0.1584 0.49251 0.0
O53 O 0.62295 0.08492 0.46239 0.0
O54 O 0.5542 0.15058 0.50899 0.0
O55 O 0.51963 0.11268 0.48099 0.0
O56 O 0.56566 0.08467 0.46032 0.0
C57 C 0.59491 0.08433 0.45141 0.0
O58 O 0.55439 1.01364 0.48544 0.0
O59 O 0.52203 1.04421 0.49891 0.0
O60 O 0.58496 0.11017 0.52814 0.0
O61 O 0.63094 1.02057 0.47676 0.0
O62 O 0.66559 0.05748 0.5052 0.0
O63 O 0.60099 0.0622 0.52584 0.0
C64 C 0.5393 0.17969 0.48415 0.0
C65 C 0.55845 0.18612 0.46574 0.0
C66 C 0.5541 0.24694 0.48925 0.0
C67 C 0.5762 0.22305 0.45943 0.0
C68 C 0.53605 0.20992 0.49543 0.0
C69 C 0.57565 0.25433 0.4716 0.0
C70 C 0.52951 0.14468 0.49367 0.0
C71 C 0.522 1.01202 0.49147 0.0
H72 H 0.63051 0.99158 0.52453 0.0
H73 H 0.70645 0.94498 0.4826 0.0
H74 H 0.64193 0.94157 0.53623 0.0
H75 H 0.69425 0.99391 0.47095 0.0
H76 H 0.56173 0.16328 0.45688 0.0
H77 H 0.5535 0.27036 0.49923 0.0
H78 H 0.59202 0.22754 0.44561 0.0
H79 H 0.52188 0.20566 0.50982 0.0
Eu80 Eu 0.58827 0.60787 0.82541 0.0
Eu81 Eu 0.68273 0.65857 0.83656 0.0
C82 C 0.62546 0.63385 0.87325 0.0
C83 C 0.48203 0.56779 0.80331 0.0
C84 C 0.47687 0.60032 0.80601 0.0
C85 C 0.42144 0.53114 0.78122 0.0
C86 C 0.44338 0.5977 0.79697 0.0
C87 C 0.45475 0.53372 0.79032 0.0
C88 C 0.41472 0.56262 0.78504 0.0
C89 C 0.51336 0.56713 0.81519 0.0
O90 O 0.66979 0.5957 0.83618 0.0
O91 O 0.60442 0.56038 0.82498 0.0
C92 C 0.63737 0.56194 0.8303 0.0
O93 O 0.61604 0.62812 0.79571 0.0
O94 O 0.73616 0.67661 0.85562 0.0
O95 O 0.73894 0.70262 0.82776 0.0
O96 O 0.67121 0.62752 0.80402 0.0
C97 C 0.64711 0.6272 0.79008 0.0
O98 O 0.60061 0.67076 0.82964 0.0
O99 O 0.66705 0.70366 0.82832 0.0
O100 O 0.65769 0.66167 0.8672 0.0
O101 O 0.53871 0.56254 0.80452 0.0
O102 O 0.52917 0.59199 0.8323 0.0
O103 O 0.5977 0.60645 0.85968 0.0
C104 C 0.78809 0.68884 0.83492 0.0
C105 C 0.82697 0.71851 0.83484 0.0
C106 C 0.80467 0.64099 0.81983 0.0
C107 C 0.85475 0.70942 0.8274 0.0
C108 C 0.77703 0.65014 0.82712 0.0
C109 C 0.84394 0.67046 0.81993 0.0
C110 C 0.7586 0.69809 0.84231 0.0
C111 C 0.63363 0.70324 0.82814 0.0
H112 H 0.49778 0.62713 0.81581 0.0
H113 H 0.39969 0.5035 0.77241 0.0
H114 H 0.43903 0.62246 0.80007 0.0
H115 H 0.45823 0.50833 0.78805 0.0
H116 H 0.83582 0.74864 0.84054 0.0
H117 H 0.79533 0.61059 0.81462 0.0
H118 H 0.88463 0.73285 0.82751 0.0
H119 H 0.74701 0.62688 0.82684 0.0
H120 H 0.56917 0.94879 0.22663 0.0
H121 H 0.68259 0.981 0.25357 0.0
H122 H 0.64984 0.93262 0.18919 0.0
C123 C 0.59722 0.95082 0.22526 0.0
C124 C 0.60622 0.93909 0.20581 0.0
C125 C 0.6243 0.96576 0.24277 0.0
C126 C 0.66025 0.96758 0.24068 0.0
C127 C 0.66906 0.95484 0.22154 0.0
C128 C 0.64188 0.94019 0.2042 0.0
N129 N 0.70779 0.96426 0.21874 0.0
C130 C 0.73534 1.00358 0.22 0.0
H131 H 0.76702 0.60391 0.57959 0.0
H132 H 0.85898 0.71987 0.60414 0.0
H133 H 0.8634 0.66753 0.54336 0.0
C134 C 0.79448 0.62984 0.57788 0.0
C135 C 0.81336 0.63146 0.55953 0.0
C136 C 0.81097 0.66132 0.59418 0.0
C137 C 0.84675 0.69465 0.59207 0.0
C138 C 0.86575 0.69666 0.57383 0.0
C139 C 0.8493 0.66495 0.55774 0.0
N140 N 0.89692 0.73294 0.57001 0.0
C141 C 0.88723 0.75968 0.56455 0.0
H142 H 1.0466 0.53363 0.88888 0.0
H143 H 1.05635 0.43593 0.90259 0.0
H144 H 1.04066 0.44892 0.83919 0.0
C145 C 1.04845 0.50788 0.88361 0.0
C146 C 1.04391 0.49441 0.86215 0.0
C147 C 1.0537 0.48765 0.89844 0.0
C148 C 1.05229 0.45216 0.89156 0.0
C149 C 1.04746 0.4381 0.87029 0.0
C150 C 1.04399 0.45964 0.85563 0.0
N151 N 1.0468 0.40252 0.86392 0.0
C152 C 1.06251 0.39721 0.84572 0.0
H153 H 0.15332 0.65782 0.42537 0.0
H154 H 1.04338 0.55617 0.43292 0.0
H155 H 0.12683 0.62346 0.48602 0.0
C156 C 0.1334 0.63815 0.43536 0.0
C157 C 0.14493 0.64488 0.45666 0.0
C158 C 0.09681 0.6069 0.42667 0.0
C159 C 1.07142 0.58042 0.43955 0.0
C160 C 1.08187 0.58597 0.46107 0.0
C161 C 0.11857 0.61879 0.46951 0.0
N162 N 1.05663 0.55987 0.47475 0.0
C163 C 1.02022 0.5249 0.46986 0.0
H164 H 0.62936 0.19318 0.75928 0.0
H165 H 0.62384 0.08644 0.76946 0.0
H166 H 0.63056 0.16774 0.82183 0.0
C167 C 0.62752 0.17378 0.77007 0.0
C168 C 0.62843 0.18511 0.79157 0.0
C169 C 0.62465 0.13807 0.76189 0.0
C170 C 0.62586 0.11386 0.77565 0.0
C171 C 0.62872 0.12456 0.79737 0.0
C172 C 0.62958 0.16009 0.80517 0.0
N173 N 0.62998 0.10024 0.81174 0.0
C174 C 0.62956 0.06441 0.80729 0.0
H175 H 0.66338 0.60888 0.09124 0.0
H176 H 0.55785 0.61159 0.10114 0.0
H177 H 0.62159 0.60196 0.15226 0.0
C178 C 0.64207 0.60835 0.10166 0.0
C179 C 0.64677 0.6049 0.12265 0.0
C180 C 0.61055 0.6112 0.09382 0.0
C181 C 0.58222 0.60964 0.10718 0.0
C182 C 0.58584 0.60644 0.12838 0.0
C183 C 0.61857 0.60452 0.13601 0.0
N184 N 0.55755 0.60499 0.14245 0.0
C185 C 0.52341 0.60663 0.13836 0.0
H186 H 0.17571 0.55198 0.17365 0.0
H187 H 0.2369 0.5518 0.16948 0.0
H188 H 0.2772 0.64833 0.13461 0.0
H189 H 0.21718 0.64994 0.13962 0.0
H190 H 0.33499 0.662 0.16103 0.0
H191 H 0.28124 0.49749 0.15389 0.0
H192 H 0.22189 0.43409 0.14176 0.0
H193 H 0.1863 0.48824 0.09992 0.0
H194 H 0.24566 0.5518 0.11159 0.0
H195 H 0.50254 0.64207 0.16966 0.0
H196 H 0.44078 0.64122 0.17257 0.0
H197 H 0.39885 0.57296 0.11153 0.0
H198 H 0.46069 0.57319 0.10892 0.0
H199 H 0.34117 0.54451 0.13313 0.0
H200 H 0.42663 0.67554 0.12399 0.0
H201 H 0.48195 0.74331 0.12879 0.0
H202 H 0.4518 0.76299 0.19053 0.0
H203 H 0.39663 0.69513 0.18625 0.0
C204 C 0.19768 0.57342 0.16521 0.0
C205 C 0.19113 0.60123 0.15718 0.0
C206 C 0.23284 0.57314 0.1627 0.0
C207 C 0.26254 0.60025 0.15177 0.0
C208 C 0.25565 0.62756 0.14351 0.0
C209 C 0.22089 0.6283 0.1463 0.0
C210 C 0.30091 0.60095 0.14918 0.0
C211 C 0.33624 0.6364 0.15465 0.0
C212 C 0.30326 0.56758 0.14105 0.0
C213 C 0.26767 0.52946 0.1338 0.0
C214 C 0.2608 0.49582 0.14206 0.0
C215 C 0.22715 0.45986 0.13527 0.0
C216 C 0.20028 0.45717 0.12013 0.0
C217 C 0.20706 0.49039 0.1117 0.0
C218 C 0.24067 0.5264 0.11842 0.0
C219 C 0.48032 0.62723 0.15674 0.0
C220 C 0.48694 0.60807 0.13896 0.0
C221 C 0.44476 0.62686 0.15836 0.0
C222 C 0.41442 0.60747 0.14219 0.0
C223 C 0.42119 0.58826 0.12436 0.0
C224 C 0.45685 0.58859 0.12276 0.0
C225 C 0.37563 0.60632 0.14421 0.0
C226 C 0.34017 0.57053 0.13904 0.0
C227 C 0.37308 0.63995 0.15167 0.0
C228 C 0.40784 0.67993 0.15491 0.0
C229 C 0.43219 0.69406 0.13874 0.0
C230 C 0.46342 0.73258 0.14133 0.0
C231 C 0.47049 0.75739 0.15999 0.0
C232 C 0.44639 0.74369 0.17612 0.0
C233 C 0.41516 0.70518 0.17363 0.0
H234 H 0.49455 0.78726 0.16192 0.0
H235 H 0.17424 0.42931 0.11491 0.0
H236 H 0.73805 0.17605 0.49502 0.0
H237 H 0.79681 0.23693 0.49034 0.0
H238 H 0.72725 0.2896 0.48064 0.0
H239 H 0.6683 0.2283 0.48467 0.0
H240 H 0.77879 0.31693 0.45662 0.0
H241 H 0.79285 0.31036 0.5287 0.0
H242 H 0.79539 0.28167 0.55985 0.0
H243 H 0.89229 0.2721 0.53836 0.0
H244 H 0.88995 0.30029 0.50693 0.0
H245 H 0.94628 0.51348 0.46954 0.0
H246 H 0.88522 0.45291 0.47296 0.0
H247 H 0.94843 0.39144 0.47396 0.0
H248 H 1.0094 0.45215 0.47084 0.0
H249 H 0.89954 0.37041 0.50308 0.0
H250 H 0.88384 0.38114 0.43054 0.0
H251 H 0.87959 0.4133 0.40127 0.0
H252 H 0.7835 0.41981 0.42664 0.0
H253 H 0.78746 0.38808 0.45618 0.0
C254 C 0.73512 0.20063 0.49209 0.0
C255 C 0.69789 0.19676 0.4905 0.0
C256 C 0.76915 0.23597 0.48954 0.0
C257 C 0.76759 0.2693 0.48569 0.0
C258 C 0.73024 0.26519 0.48382 0.0
C259 C 0.69615 0.22975 0.48621 0.0
C260 C 0.80441 0.30779 0.48325 0.0
C261 C 0.80488 0.32864 0.46705 0.0
C262 C 0.83938 0.32401 0.49651 0.0
C263 C 0.84091 0.30703 0.51536 0.0
C264 C 0.81448 0.30186 0.53054 0.0
C265 C 0.81592 0.28573 0.54826 0.0
C266 C 0.84391 0.27495 0.55105 0.0
C267 C 0.87058 0.28039 0.53616 0.0
C268 C 0.86923 0.29647 0.51839 0.0
C269 C 0.94704 0.48688 0.47013 0.0
C270 C 0.98283 0.48771 0.46954 0.0
C271 C 0.91191 0.45199 0.47209 0.0
C272 C 0.91135 0.41666 0.47352 0.0
C273 C 0.94734 0.41773 0.47287 0.0
C274 C 0.98239 0.45257 0.47089 0.0
C275 C 0.87396 0.3791 0.47633 0.0
C276 C 0.87339 0.35854 0.49265 0.0
C277 C 0.83869 0.36368 0.46348 0.0
C278 C 0.83629 0.38268 0.44571 0.0
C279 C 0.86202 0.38972 0.42997 0.0
C280 C 0.85961 0.40781 0.41331 0.0
C281 C 0.83139 0.41872 0.41213 0.0
C282 C 0.80542 0.41144 0.42759 0.0
C283 C 0.80772 0.39339 0.44429 0.0
H284 H 0.82957 0.43271 0.39922 0.0
H285 H 0.84499 0.26247 0.56479 0.0
H286 H 0.69545 0.77656 0.82396 0.0
H287 H 0.69465 0.83615 0.8195 0.0
H288 H 0.57009 0.77511 0.82235 0.0
H289 H 0.57065 0.71513 0.82645 0.0
H290 H 0.58643 0.82027 0.79343 0.0
H291 H 0.63894 0.84518 0.86413 0.0
H292 H 0.68408 0.85081 0.89251 0.0
H293 H 0.78078 0.93905 0.86521 0.0
H294 H 0.73625 0.93358 0.83651 0.0
H295 H 0.56724 0.99126 0.80815 0.0
H296 H 0.56762 0.93064 0.81092 0.0
H297 H 0.69249 0.99241 0.80908 0.0
H298 H 0.69198 1.05318 0.80668 0.0
H299 H 0.6761 0.94675 0.83723 0.0
H300 H 0.62397 0.92252 0.76671 0.0
H301 H 0.57919 0.91686 0.73812 0.0
H302 H 0.48226 0.82748 0.76471 0.0
H303 H 0.52641 0.83298 0.79363 0.0
C304 C 0.66777 0.77562 0.82374 0.0
C305 C 0.63315 0.74046 0.82576 0.0
C306 C 0.66736 0.81014 0.82126 0.0
C307 C 0.63236 0.81113 0.82086 0.0
C308 C 0.59769 0.77588 0.82262 0.0
C309 C 0.59807 0.74131 0.82508 0.0
C310 C 0.63186 0.84851 0.8185 0.0
C311 C 0.60575 0.84772 0.80327 0.0
C312 C 0.6575 0.88521 0.8308 0.0
C313 C 0.6843 0.88869 0.84807 0.0
C314 C 0.66986 0.86559 0.8641 0.0
C315 C 0.69533 0.86878 0.88026 0.0
C316 C 0.73528 0.8952 0.88063 0.0
C317 C 0.74983 0.91856 0.86488 0.0
C318 C 0.72449 0.91545 0.84868 0.0
C319 C 0.59473 0.9918 0.80801 0.0
C320 C 0.6295 1.02716 0.80685 0.0
C321 C 0.59499 0.95688 0.80958 0.0
C322 C 0.63007 0.95597 0.80997 0.0
C323 C 0.66485 0.99155 0.80879 0.0
C324 C 0.66456 1.02647 0.80724 0.0
C325 C 0.63066 0.91856 0.81215 0.0
C326 C 0.65678 0.91934 0.82736 0.0
C327 C 0.60507 0.88187 0.79981 0.0
C328 C 0.57846 0.87846 0.78245 0.0
C329 C 0.59307 0.90187 0.76655 0.0
C330 C 0.56781 0.89866 0.75027 0.0
C331 C 0.5279 0.87191 0.74963 0.0
C332 C 0.51318 0.84824 0.76525 0.0
C333 C 0.53831 0.85137 0.78157 0.0
H334 H 0.50839 0.86946 0.73702 0.0
H335 H 0.75495 0.89762 0.89315 0.0
H336 H 0.9401 0.54227 0.13637 0.0
H337 H 0.87919 0.54293 0.13175 0.0
H338 H 0.93082 0.65484 0.17071 0.0
H339 H 0.99186 0.65439 0.17535 0.0
H340 H 0.85658 0.60894 0.18017 0.0
H341 H 0.91766 0.64468 0.11661 0.0
H342 H 0.94696 0.63727 0.08436 0.0
H343 H 0.84146 0.52972 0.06222 0.0
H344 H 0.81174 0.53614 0.09447 0.0
H345 H 0.70555 0.65095 0.15423 0.0
H346 H 0.76602 0.65048 0.16163 0.0
H347 H 0.7268 0.55022 0.1142 0.0
H348 H 0.66767 0.55214 0.10621 0.0
H349 H 0.79635 0.59183 0.10957 0.0
H350 H 0.73508 0.55247 0.17242 0.0
H351 H 0.7039 0.55729 0.20437 0.0
H352 H 0.80656 0.66654 0.22789 0.0
H353 H 0.8382 0.66259 0.19596 0.0
C354 C 0.93866 0.56709 0.14403 0.0
C355 C 0.97151 0.59832 0.15623 0.0
C356 C 0.90358 0.56753 0.14127 0.0
C357 C 0.89985 0.59916 0.15066 0.0
C358 C 0.93237 0.63 0.16319 0.0
C359 C 0.96758 0.62974 0.1658 0.0
C360 C 0.86242 0.6002 0.14736 0.0
C361 C 0.84372 0.60562 0.16469 0.0
C362 C 0.84443 0.59496 0.12726 0.0
C363 C 0.8626 0.59072 0.10805 0.0
C364 C 0.90086 0.61924 0.10496 0.0
C365 C 0.91751 0.61526 0.08666 0.0
C366 C 0.89607 0.58304 0.07126 0.0
C367 C 0.85802 0.55465 0.07416 0.0
C368 C 0.84127 0.55845 0.09245 0.0
C369 C 0.70953 0.62838 0.14566 0.0
C370 C 0.68124 0.60139 0.12971 0.0
C371 C 0.74437 0.628 0.14992 0.0
C372 C 0.75177 0.59998 0.13872 0.0
C373 C 0.72281 0.57246 0.12316 0.0
C374 C 0.6885 0.57333 0.11867 0.0
C375 C 0.78981 0.59992 0.14239 0.0
C376 C 0.80886 0.5949 0.1251 0.0
C377 C 0.80777 0.60494 0.16253 0.0
C378 C 0.78883 0.60743 0.18171 0.0
C379 C 0.75089 0.57766 0.18434 0.0
C380 C 0.73316 0.58021 0.20246 0.0
C381 C 0.75319 0.61226 0.21812 0.0
C382 C 0.79105 0.64177 0.21573 0.0
C383 C 0.80891 0.63938 0.19763 0.0
H384 H 0.73942 0.61418 0.23214 0.0
H385 H 0.90883 0.58011 0.05703 0.0
H386 H 0.5057 0.93905 0.47199 0.0
H387 H 0.44358 0.87683 0.46793 0.0
H388 H 0.38942 0.93377 0.50209 0.0
H389 H 0.45132 0.99594 0.50621 0.0
H390 H 0.36419 0.86342 0.5142 0.0
H391 H 0.37558 0.90892 0.44792 0.0
H392 H 0.4056 0.93099 0.41556 0.0
H393 H 0.40436 0.823 0.39888 0.0
H394 H 0.37497 0.80057 0.43138 0.0
H395 H 0.16436 0.7093 0.48627 0.0
H396 H 0.22768 0.77017 0.49381 0.0
H397 H 0.27926 0.7201 0.45176 0.0
H398 H 0.21579 0.66032 0.44362 0.0
H399 H 0.30633 0.78779 0.4442 0.0
H400 H 0.29695 0.74152 0.5098 0.0
H401 H 0.26723 0.71771 0.54201 0.0
H402 H 0.26606 0.82408 0.56013 0.0
H403 H 0.29534 0.84834 0.52789 0.0
C404 C 0.48068 0.93847 0.47872 0.0
C405 C 0.48407 0.97311 0.48941 0.0
C406 C 0.44482 0.90263 0.47628 0.0
C407 C 0.41099 0.90001 0.48448 0.0
C408 C 0.41459 0.93441 0.49552 0.0
C409 C 0.4503 0.97027 0.49782 0.0
C410 C 0.372 0.86184 0.48143 0.0
C411 C 0.35143 0.84716 0.49883 0.0
C412 C 0.35508 0.83946 0.46153 0.0
C413 C 0.37344 0.85324 0.44219 0.0
C414 C 0.3821 0.89005 0.43747 0.0
C415 C 0.39893 0.90259 0.41906 0.0
C416 C 0.40688 0.8784 0.40515 0.0
C417 C 0.3982 0.8417 0.40967 0.0
C418 C 0.38147 0.82908 0.42808 0.0
C419 C 0.18942 0.71098 0.47902 0.0
C420 C 0.18477 0.67944 0.46451 0.0
C421 C 0.22596 0.74605 0.48333 0.0
C422 C 0.25933 0.75052 0.47358 0.0
C423 C 0.25464 0.71834 0.45956 0.0
C424 C 0.21815 0.6837 0.45503 0.0
C425 C 0.29845 0.78879 0.47701 0.0
C426 C 0.31904 0.80371 0.45964 0.0
C427 C 0.31559 0.81106 0.49696 0.0
C428 C 0.29795 0.79656 0.51633 0.0
C429 C 0.29008 0.75971 0.52058 0.0
C430 C 0.27337 0.74616 0.53885 0.0
C431 C 0.26466 0.76932 0.55308 0.0
C432 C 0.27276 0.80614 0.54908 0.0
C433 C 0.28944 0.81983 0.53082 0.0
H434 H 0.25172 0.75878 0.56721 0.0
H435 H 0.41962 0.88795 0.39082 0.0
H436 H 0.57894 0.48996 0.83783 0.0
H437 H 0.57827 0.42809 0.83498 0.0
H438 H 0.69493 0.48456 0.81528 0.0
H439 H 0.69664 0.54732 0.81993 0.0
H440 H 0.69301 0.43389 0.83362 0.0
H441 H 0.52494 0.333 0.81916 0.0
H442 H 0.46829 0.3335 0.80363 0.0
H443 H 0.54278 0.41859 0.76582 0.0
H444 H 0.59978 0.41825 0.78095 0.0
H445 H 0.65981 0.23817 0.82889 0.0
H446 H 0.66046 0.29986 0.83839 0.0
H447 H 0.59824 0.28094 0.77932 0.0
H448 H 0.59334 0.21819 0.77106 0.0
H449 H 0.57383 0.3135 0.80113 0.0
H450 H 0.70833 0.35159 0.79635 0.0
H451 H 0.76866 0.3512 0.80507 0.0
H452 H 0.76932 0.39476 0.86894 0.0
H453 H 0.70873 0.39502 0.86064 0.0
C454 C 0.6046 0.48933 0.83299 0.0
C455 C 0.63775 0.524 0.82903 0.0
C456 C 0.60408 0.45346 0.83108 0.0
C457 C 0.63602 0.45021 0.82413 0.0
C458 C 0.66954 0.48522 0.82057 0.0
C459 C 0.67053 0.52145 0.82318 0.0
C460 C 0.63428 0.41069 0.82037 0.0
C461 C 0.66683 0.40772 0.82644 0.0
C462 C 0.60078 0.3757 0.81063 0.0
C463 C 0.56665 0.37592 0.80137 0.0
C464 C 0.52918 0.35173 0.80749 0.0
C465 C 0.49703 0.352 0.79877 0.0
C466 C 0.50196 0.37617 0.78381 0.0
C467 C 0.53903 0.4 0.77747 0.0
C468 C 0.57127 0.3998 0.78612 0.0
C469 C 0.6457 0.24675 0.81803 0.0
C470 C 0.62757 0.22268 0.79878 0.0
C471 C 0.64673 0.28287 0.82334 0.0
C472 C 0.63055 0.2969 0.80942 0.0
C473 C 0.61143 0.27212 0.79059 0.0
C474 C 0.60937 0.23584 0.7856 0.0
C475 C 0.63275 0.33659 0.81403 0.0
C476 C 0.60014 0.3396 0.80823 0.0
C477 C 0.66684 0.37185 0.82299 0.0
C478 C 0.70378 0.37284 0.82793 0.0
C479 C 0.7213 0.36097 0.81226 0.0
C480 C 0.7555 0.36075 0.81713 0.0
C481 C 0.77261 0.37266 0.83757 0.0
C482 C 0.75589 0.38535 0.85314 0.0
C483 C 0.72165 0.38558 0.84836 0.0
H484 H 0.79882 0.37203 0.84134 0.0
H485 H 0.47703 0.37636 0.77709 0.0
H486 H 0.69889 0.94133 0.55045 0.0
H487 H 0.73037 0.90693 0.56216 0.0
H488 H 0.71082 0.84487 0.50008 0.0
H489 H 0.67823 0.87813 0.48834 0.0
H490 H 0.71115 0.82381 0.55887 0.0
H491 H 0.80253 0.86315 0.48879 0.0
H492 H 0.82326 0.91074 0.46393 0.0
H493 H 0.81929 0.99449 0.51042 0.0
H494 H 0.79923 0.94767 0.53563 0.0
H495 H 0.81567 0.72402 0.54588 0.0
H496 H 0.77681 0.75388 0.53865 0.0
H497 H 0.87343 0.86758 0.56385 0.0
H498 H 0.91253 0.83745 0.57103 0.0
H499 H 0.83648 0.86703 0.52674 0.0
H500 H 0.80158 0.82259 0.5931 0.0
H501 H 0.78067 0.77323 0.6169 0.0
H502 H 0.67289 0.70049 0.57895 0.0
H503 H 0.69343 0.74911 0.55471 0.0
C504 C 0.69999 0.91934 0.53945 0.0
C505 C 0.68663 0.91291 0.51837 0.0
C506 C 0.71807 0.8998 0.54617 0.0
C507 C 0.7233 0.87389 0.53189 0.0
C508 C 0.7073 0.8651 0.51125 0.0
C509 C 0.68897 0.88433 0.50456 0.0
C510 C 0.74971 0.86004 0.53773 0.0
C511 C 0.73856 0.83321 0.55192 0.0
C512 C 0.78566 0.87287 0.5288 0.0
C513 C 0.79903 0.90177 0.51401 0.0
C514 C 0.80633 0.89182 0.49373 0.0
C515 C 0.81793 0.91864 0.47958 0.0
C516 C 0.82247 0.95557 0.48557 0.0
C517 C 0.81564 0.96584 0.50577 0.0
C518 C 0.80413 0.93916 0.51999 0.0
C519 C 0.82864 0.75546 0.54961 0.0
C520 C 0.86683 0.77874 0.55882 0.0
C521 C 0.80644 0.77238 0.54563 0.0
C522 C 0.82214 0.8128 0.55098 0.0
C523 C 0.86087 0.8363 0.55968 0.0
C524 C 0.88312 0.81924 0.56373 0.0
C525 C 0.79773 0.83022 0.54765 0.0
C526 C 0.80923 0.85775 0.53386 0.0
C527 C 0.76221 0.81806 0.55703 0.0
C528 C 0.74917 0.78943 0.57201 0.0
C529 C 0.77348 0.79601 0.58978 0.0
C530 C 0.7617 0.76814 0.60334 0.0
C531 C 0.72551 0.73371 0.59942 0.0
C532 C 0.70093 0.72717 0.58197 0.0
C533 C 0.7126 0.7549 0.56833 0.0
H534 H 0.7165 0.71213 0.60991 0.0
H535 H 0.83136 0.97626 0.47458 0.0
H536 H 0.91795 0.70084 0.83796 0.0
H537 H 0.96133 0.67475 0.83184 0.0
H538 H 0.87988 0.58856 0.78233 0.0
H539 H 0.83681 0.61539 0.78778 0.0
H540 H 0.89433 0.55816 0.81577 0.0
H541 H 0.96689 0.64886 0.76997 0.0
H542 H 1.00334 0.71347 0.75834 0.0
H543 H 0.08937 0.75356 0.80995 0.0
H544 H 1.05314 0.68938 0.82209 0.0
H545 H 0.99545 0.46281 0.82593 0.0
H546 H 0.97253 0.49571 0.80545 0.0
H547 H 1.04922 0.60558 0.84408 0.0
H548 H 1.07496 0.57361 0.86348 0.0
H549 H 1.03589 0.61948 0.80709 0.0
H550 H 0.95684 0.54187 0.85813 0.0
H551 H 0.92149 0.48131 0.87384 0.0
H552 H 0.84838 0.42202 0.81692 0.0
H553 H 0.88359 0.48221 0.80084 0.0
C554 C 0.90986 0.67734 0.82522 0.0
C555 C 0.87352 0.65976 0.81361 0.0
C556 C 0.93477 0.66246 0.82174 0.0
C557 C 0.92375 0.62973 0.80665 0.0
C558 C 0.88886 0.61387 0.79404 0.0
C559 C 0.86413 0.62899 0.79735 0.0
C560 C 0.94487 0.60806 0.80686 0.0
C561 C 0.92501 0.57105 0.81321 0.0
C562 C 0.98515 0.62558 0.80424 0.0
C563 C 1.00713 0.66429 0.797 0.0
C564 C 0.99341 0.67153 0.77895 0.0
C565 C 1.01407 0.70808 0.77224 0.0
C566 C 1.04862 0.73762 0.78341 0.0
C567 C 1.0626 0.73065 0.8013 0.0
C568 C 1.04204 0.69416 0.80808 0.0
C569 C 1.00878 0.49424 0.82958 0.0
C570 C 1.03612 0.5153 0.84691 0.0
C571 C 0.99535 0.513 0.8179 0.0
C572 C 1.00804 0.55279 0.82376 0.0
C573 C 1.03848 0.5747 0.83948 0.0
C574 C 1.05265 0.55617 0.85083 0.0
C575 C 0.98539 0.56993 0.81631 0.0
C576 C 1.00491 0.60608 0.80888 0.0
C577 C 0.94485 0.55227 0.81848 0.0
C578 C 0.9231 0.5163 0.82822 0.0
C579 C 0.93329 0.51585 0.84897 0.0
C580 C 0.91329 0.48163 0.85794 0.0
C581 C 0.88278 0.44781 0.84638 0.0
C582 C 0.87204 0.44821 0.82586 0.0
C583 C 0.89199 0.48237 0.8168 0.0
H584 H 0.86748 0.42133 0.85336 0.0
H585 H 1.06458 0.76589 0.77819 0.0
H586 H 0.27868 0.76466 0.10996 0.0
H587 H 0.34732 0.79252 0.10428 0.0
H588 H 0.37312 0.90116 0.1411 0.0
H589 H 0.304 0.87447 0.14574 0.0
H590 H 0.42925 0.91217 0.11283 0.0
H591 H 0.3673 0.83053 0.16775 0.0
H592 H 0.31588 0.76987 0.17913 0.0
H593 H 0.3461 0.70194 0.13504 0.0
H594 H 0.39807 0.7621 0.12394 0.0
H595 H 0.56964 0.97723 0.19501 0.0
H596 H 0.51853 0.95555 0.16726 0.0
H597 H 0.53222 0.85684 0.14569 0.0
H598 H 0.58273 0.87783 0.1742 0.0
H599 H 0.46155 0.83347 0.15395 0.0
H600 H 0.54528 0.92637 0.11309 0.0
H601 H 0.59678 0.99009 0.10499 0.0
H602 H 0.52766 1.04157 0.12378 0.0
H603 H 0.47596 0.97836 0.13232 0.0
C604 C 0.29846 0.79512 0.116 0.0
C605 C 0.28586 0.81693 0.1289 0.0
C606 C 0.33788 0.81098 0.11277 0.0
C607 C 0.36541 0.84847 0.12278 0.0
C608 C 0.3524 0.87201 0.13339 0.0
C609 C 0.31289 0.85643 0.13633 0.0
C610 C 0.4067 0.8594 0.12662 0.0
C611 C 0.43665 0.895 0.12164 0.0
C612 C 0.41632 0.83654 0.13771 0.0
C613 C 0.38618 0.80052 0.14496 0.0
C614 C 0.36297 0.80254 0.16064 0.0
C615 C 0.33385 0.7683 0.1671 0.0
C616 C 0.32783 0.73202 0.15798 0.0
C617 C 0.35095 0.72993 0.14238 0.0
C618 C 0.38036 0.76408 0.13603 0.0
C619 C 0.56204 0.95109 0.18424 0.0
C620 C 0.57939 0.92862 0.18707 0.0
C621 C 0.53336 0.93917 0.16806 0.0
C622 C 0.52172 0.90475 0.15419 0.0
C623 C 0.54094 0.88367 0.15612 0.0
C624 C 0.56966 0.89557 0.17243 0.0
C625 C 0.48471 0.8872 0.14086 0.0
C626 C 0.45508 0.85019 0.14425 0.0
C627 C 0.47578 0.90926 0.12859 0.0
C628 C 0.50667 0.94747 0.12337 0.0
C629 C 0.54111 0.9513 0.11561 0.0
C630 C 0.57035 0.98736 0.11093 0.0
C631 C 0.5655 1.01985 0.11387 0.0
C632 C 0.53135 1.01635 0.12147 0.0
C633 C 0.50201 0.98036 0.12619 0.0
H634 H 0.58819 1.04775 0.11025 0.0
H635 H 0.30525 0.70565 0.16307 0.0
H636 H 0.6496 0.28666 0.45882 0.0
H637 H 0.69733 0.35598 0.46088 0.0
H638 H 0.61003 0.38454 0.4798 0.0
H639 H 0.56136 0.31518 0.47633 0.0
H640 H 0.6619 0.43986 0.45996 0.0
H641 H 0.66558 0.36813 0.51463 0.0
H642 H 0.67328 0.31787 0.52919 0.0
H643 H 0.78863 0.36578 0.50876 0.0
H644 H 0.78119 0.41571 0.49358 0.0
H645 H 0.73674 0.59014 0.54464 0.0
H646 H 0.70492 0.53229 0.51829 0.0
H647 H 0.816 0.54159 0.50782 0.0
H648 H 0.84795 0.59889 0.53485 0.0
H649 H 0.76481 0.47122 0.5152 0.0
H650 H 0.76439 0.55465 0.46919 0.0
H651 H 0.75496 0.60628 0.45778 0.0
H652 H 0.63244 0.53878 0.46495 0.0
H653 H 0.64117 0.48698 0.4767 0.0
C654 C 0.63996 0.30751 0.4625 0.0
C655 C 0.60172 0.29529 0.46789 0.0
C656 C 0.66752 0.34726 0.46387 0.0
C657 C 0.65755 0.37542 0.47115 0.0
C658 C 0.61852 0.36333 0.47438 0.0
C659 C 0.59079 0.32361 0.47266 0.0
C660 C 0.6881 0.41648 0.47858 0.0
C661 C 0.68456 0.44686 0.47197 0.0
C662 C 0.71834 0.42566 0.49388 0.0
C663 C 0.72257 0.39521 0.50267 0.0
C664 C 0.6924 0.36765 0.51303 0.0
C665 C 0.69672 0.33924 0.5214 0.0
C666 C 0.73136 0.33856 0.51985 0.0
C667 C 0.76174 0.36622 0.50986 0.0
C668 C 0.75744 0.39449 0.50131 0.0
C669 C 0.75445 0.57997 0.53669 0.0
C670 C 0.79477 0.5987 0.54205 0.0
C671 C 0.7363 0.54727 0.52135 0.0
C672 C 0.75814 0.53288 0.51087 0.0
C673 C 0.79865 0.55241 0.51561 0.0
C674 C 0.81686 0.58514 0.53102 0.0
C675 C 0.73779 0.49464 0.49716 0.0
C676 C 0.74319 0.46466 0.50265 0.0
C677 C 0.70902 0.48592 0.48109 0.0
C678 C 0.7035 0.51692 0.4739 0.0
C679 C 0.73547 0.55089 0.46846 0.0
C680 C 0.73023 0.58019 0.46191 0.0
C681 C 0.69313 0.57582 0.46065 0.0
C682 C 0.66116 0.54211 0.46591 0.0
C683 C 0.66623 0.51272 0.47248 0.0
H684 H 0.68915 0.59855 0.45559 0.0
H685 H 0.73461 0.31657 0.52639 0.0
H686 H 0.3717 0.58315 0.80994 0.0
H687 H 0.30156 0.55499 0.80589 0.0
H688 H 0.2974 0.49798 0.7443 0.0
H689 H 0.36816 0.52582 0.74844 0.0
H690 H 0.24061 0.54464 0.7828 0.0
H691 H 0.22586 0.40367 0.74129 0.0
H692 H 0.26584 0.37309 0.73335 0.0
H693 H 0.33818 0.43549 0.7902 0.0
H694 H 0.29828 0.46594 0.79855 0.0
H695 H 1.05189 0.4127 0.80758 0.0
H696 H 0.10125 0.43516 0.78221 0.0
H697 H 0.17511 0.41311 0.82088 0.0
H698 H 0.12563 0.39008 0.8458 0.0
H699 H 0.18681 0.40202 0.78091 0.0
H700 H 0.17565 0.50038 0.82888 0.0
H701 H 0.13789 0.5305 0.84271 0.0
H702 H 0.12324 0.55571 0.78185 0.0
H703 H 0.16032 0.52505 0.76761 0.0
C704 C 0.35624 0.56603 0.79516 0.0
C705 C 0.37533 0.55602 0.77968 0.0
C706 C 0.31596 0.5499 0.79284 0.0
C707 C 0.2941 0.52358 0.775 0.0
C708 C 0.31368 0.51766 0.75836 0.0
C709 C 0.35404 0.53349 0.76076 0.0
C710 C 0.25172 0.49707 0.77602 0.0
C711 C 0.22845 0.51331 0.78182 0.0
C712 C 0.23588 0.45618 0.77499 0.0
C713 C 0.25945 0.43738 0.77037 0.0
C714 C 0.25024 0.41071 0.75209 0.0
C715 C 0.27286 0.39342 0.74753 0.0
C716 C 0.30461 0.40245 0.76123 0.0
C717 C 0.31364 0.42858 0.77958 0.0
C718 C 0.29102 0.44582 0.78424 0.0
C719 C 1.07807 0.41126 0.8101 0.0
C720 C 1.08541 0.39986 0.82844 0.0
C721 C 0.10622 0.42416 0.7957 0.0
C722 C 0.14209 0.42639 0.79983 0.0
C723 C 0.14764 0.41155 0.81732 0.0
C724 C 0.11947 0.39847 0.83158 0.0
C725 C 0.17631 0.44979 0.78842 0.0
C726 C 0.19809 0.43298 0.78073 0.0
C727 C 0.19124 0.49033 0.78843 0.0
C728 C 0.17037 0.51012 0.79715 0.0
C729 C 0.16431 0.51232 0.81846 0.0
C730 C 0.14298 0.5294 0.82636 0.0
C731 C 0.12811 0.54493 0.81316 0.0
C732 C 0.1347 0.54358 0.79205 0.0
C733 C 0.15583 0.52633 0.78404 0.0
H734 H 0.11155 0.55809 0.81928 0.0
H735 H 0.32216 0.38913 0.75764 0.0
H736 H 0.87634 0.30604 0.1508 0.0
H737 H 0.83212 0.24651 0.16432 0.0
H738 H 0.84536 0.31329 0.22443 0.0
H739 H 0.89226 0.37316 0.2112 0.0
H740 H 0.85622 0.25834 0.23035 0.0
H741 H 0.75375 0.25707 0.19385 0.0
H742 H 0.71682 0.26392 0.16551 0.0
H743 H 0.71692 0.16941 0.12633 0.0
H744 H 0.75439 0.16233 0.15427 0.0
H745 H 0.73881 0.05664 0.25092 0.0
H746 H 0.75961 0.12518 0.24838 0.0
H747 H 0.79284 0.1108 0.18632 0.0
H748 H 0.77194 1.04243 0.18888 0.0
H749 H 0.74299 0.14251 0.18954 0.0
H750 H 0.86241 0.16138 0.22688 0.0
H751 H 0.89511 0.15457 0.25734 0.0
H752 H 0.85345 0.21638 0.29797 0.0
H753 H 0.82036 0.22333 0.26773 0.0
C754 C 0.86957 0.30818 0.16685 0.0
C755 C 0.88839 0.34418 0.18004 0.0
C756 C 0.84362 0.27408 0.17451 0.0
C757 C 0.83495 0.27525 0.19541 0.0
C758 C 0.85155 0.31161 0.20825 0.0
C759 C 0.87812 0.34585 0.20063 0.0
C760 C 0.81329 0.23805 0.20416 0.0
C761 C 0.83072 0.23334 0.22172 0.0
C762 C 0.77968 0.20526 0.1932 0.0
C763 C 0.75699 0.20921 0.17623 0.0
C764 C 0.74612 0.23787 0.17916 0.0
C765 C 0.72505 0.24178 0.16315 0.0
C766 C 0.71454 0.21712 0.14414 0.0
C767 C 0.72503 0.18846 0.14109 0.0
C768 C 0.74612 0.18442 0.15703 0.0
C769 C 0.75165 0.06868 0.23703 0.0
C770 C 0.75475 1.04507 0.22022 0.0
C771 C 0.76313 0.10754 0.23552 0.0
C772 C 0.77755 0.12285 0.21712 0.0
C773 C 0.7816 0.09935 0.20059 0.0
C774 C 0.77022 0.06063 0.20213 0.0
C775 C 0.78772 0.16302 0.21457 0.0
C776 C 0.76776 0.16802 0.19836 0.0
C777 C 0.81817 0.19614 0.22709 0.0
C778 C 0.83876 0.19263 0.24511 0.0
C779 C 0.86017 0.1734 0.24232 0.0
C780 C 0.87878 0.16955 0.25954 0.0
C781 C 0.8763 0.18498 0.27958 0.0
C782 C 0.85535 0.20445 0.28244 0.0
C783 C 0.83674 0.20842 0.26528 0.0
H784 H 0.89066 0.1819 0.29289 0.0
H785 H 0.69824 0.22021 0.13177 0.0
H786 H 0.10545 0.65008 0.09281 0.0
H787 H 0.10733 0.64097 0.05483 0.0
H788 H 1.07571 0.52085 0.0558 0.0
H789 H 1.07476 0.52986 0.09336 0.0
H790 H 0.13006 0.55155 0.03054 0.0
H791 H 1.00923 0.54859 0.04307 0.0
H792 H 0.96961 0.57578 0.05767 0.0
H793 H 1.02578 0.67141 0.02252 0.0
H794 H 1.06647 0.6452 0.00808 0.0
H795 H 1.02895 0.44767 0.93203 0.0
H796 H 1.0426 0.47488 0.96894 0.0
H797 H 0.10633 0.59154 0.95312 0.0
H798 H 0.0951 0.56481 0.9162 0.0
H799 H 1.04435 0.57329 0.98457 0.0
H800 H 0.16075 0.5696 0.96952 0.0
H801 H 0.19737 0.53868 0.95515 0.0
H802 H 0.14459 0.4506 -0.00487 0.0
H803 H 0.10715 0.48065 0.0095 0.0
C804 C 0.09904 0.62182 0.08488 0.0
C805 C 0.08982 0.59068 0.09609 0.0
C806 C 0.10008 0.61663 0.06321 0.0
C807 C 0.09138 0.58011 0.05246 0.0
C808 C 1.08274 0.54933 0.06373 0.0
C809 C 1.08205 0.55454 0.08527 0.0
C810 C 0.08997 0.5729 0.02942 0.0
C811 C 0.11126 0.5563 0.02053 0.0
C812 C 1.06603 0.57975 0.01628 0.0
C813 C 1.04123 0.59522 0.02471 0.0
C814 C 1.01334 0.57558 0.03857 0.0
C815 C 0.99067 0.5908 0.04681 0.0
C816 C 0.99519 0.62535 0.04105 0.0
C817 C 1.02237 0.64469 0.027 0.0
C818 C 1.04528 0.6297 0.01881 0.0
C819 C 1.04639 0.47908 0.9363 0.0
C820 C 1.06091 0.50393 0.921 0.0
C821 C 1.05382 0.49456 0.95741 0.0
C822 C 1.07537 0.53513 0.96362 0.0
C823 C 0.08941 0.56014 0.94853 0.0
C824 C 1.08267 0.5447 0.92743 0.0
C825 C 1.08361 0.55114 0.98597 0.0
C826 C 1.06364 0.56931 -0.00536 0.0
C827 C 0.1083 0.54524 -0.00102 0.0
C828 C 0.13086 0.52717 0.99043 0.0
C829 C 0.15665 0.54341 0.9751 0.0
C830 C 0.17763 0.52609 0.96698 0.0
C831 C 0.17324 0.49264 0.97418 0.0
C832 C 0.14793 0.47649 0.98955 0.0
C833 C 0.12685 0.49368 -0.00231 0.0
H834 H 0.18951 0.47928 0.96789 0.0
H835 H 0.97761 0.6371 0.04743 0.0
H836 H 0.54846 0.09142 0.42237 0.0
H837 H 0.55042 0.08357 0.38434 0.0
H838 H 0.64598 0.06242 0.39117 0.0
H839 H 0.64507 0.07137 0.42866 0.0
H840 H 0.65861 0.10506 0.36179 0.0
H841 H 0.54623 0.9883 0.38141 0.0
H842 H 0.48289 0.95375 0.39626 0.0
H843 H 0.43215 0.99163 0.35233 0.0
H844 H 0.49554 1.02724 0.33756 0.0
H845 H 0.646 0.96296 0.28249 0.0
H846 H 0.63776 0.99446 0.31506 0.0
H847 H 0.57522 1.03576 0.28129 0.0
H848 H 0.58519 1.00635 0.2484 0.0
H849 H 0.54124 0.99595 0.31994 0.0
H850 H 0.65234 0.10131 0.29592 0.0
H851 H 0.71553 0.13181 0.28058 0.0
H852 H 0.76867 0.11249 0.33233 0.0
H853 H 0.70559 0.08112 0.34779 0.0
C854 C 0.57004 0.08543 0.4157 0.0
C855 C 0.59637 0.08172 0.42854 0.0
C856 C 0.57114 0.08094 0.39399 0.0
C857 C 0.59813 0.07202 0.38486 0.0
C858 C 0.62503 0.06949 0.39778 0.0
C859 C 0.62427 0.07441 0.4193 0.0
C860 C 0.59753 0.06264 0.36197 0.0
C861 C 0.63285 0.08136 0.35264 0.0
C862 C 0.56371 1.03246 0.34977 0.0
C863 C 0.52568 1.01084 0.35859 0.0
C864 C 0.52162 0.98949 0.37503 0.0
C865 C 0.48571 0.96971 0.38343 0.0
C866 C 0.4535 0.97052 0.37525 0.0
C867 C 0.45715 0.99112 0.35868 0.0
C868 C 0.49307 1.01117 0.35032 0.0
C869 C 0.63081 0.97901 0.28187 0.0
C870 C 0.61646 0.98217 0.26272 0.0
C871 C 0.62591 0.99675 0.30052 0.0
C872 C 0.60608 1.01748 0.30045 0.0
C873 C 0.59053 1.01974 0.28155 0.0
C874 C 0.59603 1.0026 0.26281 0.0
C875 C 0.60255 1.03722 0.32031 0.0
C876 C 0.5666 1.02046 0.32897 0.0
C877 C 0.63581 0.06898 0.33194 0.0
C878 C 0.67409 0.08858 0.32295 0.0
C879 C 0.67741 0.10327 0.30396 0.0
C880 C 0.71323 0.12075 0.29525 0.0
C881 C 0.74608 0.12402 0.30545 0.0
C882 C 0.74319 0.10992 0.32444 0.0
C883 C 0.7074 0.09231 0.33319 0.0
H884 H 0.77377 0.13754 0.29867 0.0
H885 H 0.42567 0.95512 0.38169 0.0
H886 H 0.71299 0.63284 0.77514 0.0
H887 H 0.7328 0.6398 0.73992 0.0
H888 H 0.62481 0.63142 0.71987 0.0
H889 H 0.60446 0.62465 0.75552 0.0
H890 H 0.65165 0.58564 0.69222 0.0
H891 H 0.69559 0.71614 0.72571 0.0
H892 H 0.7269 0.77084 0.75463 0.0
H893 H 0.83518 0.77264 0.74893 0.0
H894 H 0.80435 0.71752 0.72018 0.0
H895 H 0.7351 0.64235 0.59644 0.0
H896 H 0.70057 0.63861 0.62787 0.0
H897 H 0.80553 0.67242 0.66587 0.0
H898 H 0.84029 0.6773 0.63452 0.0
H899 H 0.77168 0.70885 0.68277 0.0
H900 H 0.72833 0.57496 0.6538 0.0
H901 H 0.6987 0.51721 0.62655 0.0
H902 H 0.59168 0.51898 0.62493 0.0
H903 H 0.62088 0.57709 0.652 0.0
C904 C 0.69313 0.63218 0.76331 0.0
C905 C 0.65717 0.62844 0.7682 0.0
C906 C 0.70462 0.63623 0.74317 0.0
C907 C 0.68044 0.63652 0.72742 0.0
C908 C 0.64386 0.63136 0.73192 0.0
C909 C 0.63237 0.6276 0.75225 0.0
C910 C 0.69469 0.6436 0.70655 0.0
C911 C 0.67733 0.61286 0.68992 0.0
C912 C 0.72869 0.67884 0.70384 0.0
C913 C 0.74758 0.71255 0.72085 0.0
C914 C 0.72602 0.72805 0.7307 0.0
C915 C 0.74369 0.75915 0.74706 0.0
C916 C 0.78299 0.77517 0.75363 0.0
C917 C 0.80474 0.7602 0.74382 0.0
C918 C 0.78719 0.72907 0.72747 0.0
C919 C 0.75066 0.64889 0.61154 0.0
C920 C 0.79022 0.65978 0.61313 0.0
C921 C 0.73094 0.64671 0.62946 0.0
C922 C 0.75026 0.65464 0.64924 0.0
C923 C 0.78999 0.6662 0.65079 0.0
C924 C 0.80983 0.66892 0.63291 0.0
C925 C 0.72933 0.65047 0.66842 0.0
C926 C 0.7455 0.68184 0.6848 0.0
C927 C 0.69452 0.6156 0.67095 0.0
C928 C 0.67693 0.58064 0.65473 0.0
C929 C 0.69858 0.56321 0.64751 0.0
C930 C 0.68185 0.53039 0.63212 0.0
C931 C 0.64338 0.51452 0.62396 0.0
C932 C 0.62151 0.53136 0.63123 0.0
C933 C 0.63812 0.56423 0.6466 0.0
H934 H 0.63047 0.4891 0.61205 0.0
H935 H 0.79662 0.79923 0.76631 0.0
H936 H 0.56608 0.12234 0.56526 0.0
H937 H 0.57109 0.12709 0.60319 0.0
H938 H 0.63226 0.06309 0.59888 0.0
H939 H 0.62598 0.05693 0.56094 0.0
H940 H 0.58559 1.03942 0.62777 0.0
H941 H 0.67986 0.16575 0.61316 0.0
H942 H 0.70513 0.2266 0.59772 0.0
H943 H 0.62704 0.25391 0.63073 0.0
H944 H 0.60091 0.19293 0.64616 0.0
H945 H 0.65885 0.10391 0.73724 0.0
H946 H 0.65354 0.09102 0.69896 0.0
H947 H 0.57369 0.13392 0.69614 0.0
H948 H 0.57797 0.14584 0.73403 0.0
H949 H 0.63475 0.16846 0.67115 0.0
H950 H 0.54084 1.03858 0.68526 0.0
H951 H 0.52035 0.97893 0.70124 0.0
H952 H 0.60512 0.9604 0.66966 0.0
H953 H 0.62649 1.02028 0.65371 0.0
C954 C 0.58054 0.10922 0.57237 0.0
C955 C 0.59579 0.08944 0.55999 0.0
C956 C 0.58359 0.11212 0.59413 0.0
C957 C 0.60277 0.09612 0.60408 0.0
C958 C 0.61739 0.07577 0.5917 0.0
C959 C 0.61385 0.07237 0.56994 0.0
C960 C 0.60783 0.10091 0.62734 0.0
C961 C 0.59687 0.06778 0.6372 0.0
C962 C 0.62246 0.1378 0.63985 0.0
C963 C 0.63818 0.17458 0.63066 0.0
C964 C 0.66789 0.1846 0.61701 0.0
C965 C 0.68239 0.21913 0.60828 0.0
C966 C 0.66763 0.24405 0.6132 0.0
C967 C 0.63841 0.23455 0.62691 0.0
C968 C 0.62376 0.20002 0.63567 0.0
C969 C 0.63968 0.10996 0.72845 0.0
C970 C 0.61932 0.12649 0.73877 0.0
C971 C 0.63678 0.10273 0.70658 0.0
C972 C 0.61344 0.11182 0.69466 0.0
C973 C 0.59222 0.1271 0.70496 0.0
C974 C 0.59486 0.13403 0.72667 0.0
C975 C 0.61185 0.10697 0.67147 0.0
C976 C 0.62364 0.14017 0.66165 0.0
C977 C 0.59869 0.07034 0.65907 0.0
C978 C 0.58555 1.03414 0.66848 0.0
C979 C 0.55532 1.02196 0.68186 0.0
C980 C 0.54351 0.98808 0.69088 0.0
C981 C 0.5615 0.96596 0.68652 0.0
C982 C 0.59125 0.9776 0.67305 0.0
C983 C 0.6032 1.01148 0.664 0.0
H984 H 0.55234 0.93975 0.69354 0.0
H985 H 0.6789 0.27077 0.60642 0.0
H986 H 0.56164 0.58353 0.89227 0.0
H987 H 0.55577 0.57996 0.92955 0.0
H988 H 0.67323 0.67725 0.94307 0.0
H989 H 0.67945 0.68094 0.90589 0.0
H990 H 0.66071 0.61824 0.96436 0.0
H991 H 0.59477 0.68839 0.95209 0.0
H992 H 0.54585 0.69861 0.93472 0.0
H993 H 0.45374 0.59372 0.95361 0.0
H994 H 0.50217 0.58258 0.97086 0.0
H995 H 0.66801 0.66292 0.07256 0.0
H996 H 0.66675 0.66689 0.03533 0.0
H997 H 0.54665 0.57369 0.02707 0.0
H998 H 0.54761 0.57024 0.06462 0.0
H999 H 0.55761 0.62697 0.00269 0.0
H1000 H 0.62174 0.55657 0.01534 0.0
H1001 H 0.66953 0.54471 0.03264 0.0
H1002 H 0.76343 0.64684 0.01247 0.0
H1003 H 0.71619 0.65968 -0.00469 0.0
C1004 C 0.58619 0.60435 0.90316 0.0
C1005 C 0.62102 0.63258 0.89598 0.0
C1006 C 0.58272 0.60233 0.92452 0.0
C1007 C 0.61397 0.62849 0.93921 0.0
C1008 C 0.6487 0.65673 0.93209 0.0
C1009 C 0.65214 0.65888 0.91077 0.0
C1010 C 0.61104 0.6259 0.96195 0.0
C1011 C 0.63845 0.62066 0.97277 0.0
C1012 C 0.58123 0.6277 0.97287 0.0
C1013 C 0.5521 0.63444 0.96258 0.0
C1014 C 0.56409 0.66733 0.95239 0.0
C1015 C 0.53645 0.67332 0.9426 0.0
C1016 C 0.49671 0.64677 0.94301 0.0
C1017 C 0.48454 0.61423 0.95328 0.0
C1018 C 0.51207 0.60807 0.96308 0.0
C1019 C 0.64124 0.64339 0.06283 0.0
C1020 C 0.60803 0.61594 0.0715 0.0
C1021 C 0.64058 0.64559 0.04151 0.0
C1022 C 0.6069 0.61993 0.0282 0.0
C1023 C 0.57308 0.59365 0.03694 0.0
C1024 C 0.57362 0.59172 0.05841 0.0
C1025 C 0.60767 0.61992 0.00517 0.0
C1026 C 0.57982 0.62448 -0.00573 0.0
C1027 C 0.63689 0.61714 -0.00591 0.0
C1028 C 0.66541 0.60927 0.00419 0.0
C1029 C 0.65259 0.57665 0.0147 0.0
C1030 C 0.67958 0.56974 0.02448 0.0
C1031 C 0.71949 0.59505 0.0237 0.0
C1032 C 0.7325 0.62728 0.01308 0.0
C1033 C 0.70563 0.63437 0.00332 0.0
H1034 H 0.74034 0.58966 0.03128 0.0
H1035 H 0.47536 0.65147 0.93542 0.0
H1036 H 1.03988 0.539 0.22472 0.0
H1037 H 1.03976 0.53798 0.26217 0.0
H1038 H 0.10859 0.66403 0.27303 0.0
H1039 H 0.11028 0.66507 0.23537 0.0
H1040 H 0.13562 0.63797 0.29871 0.0
H1041 H 1.00586 0.60837 0.27988 0.0
H1042 H 0.94133 0.57301 0.26011 0.0
H1043 H 0.91876 0.46628 0.28118 0.0
H1044 H 0.98339 0.50091 0.30087 0.0
H1045 H 0.10661 0.66474 0.4046 0.0
H1046 H 0.0987 0.6612 0.36693 0.0
H1047 H 1.05449 0.53703 0.35936 0.0
H1048 H 1.06302 0.54047 0.39732 0.0
H1049 H 1.01413 0.56039 0.33242 0.0
H1050 H 0.14537 0.59308 0.35199 0.0
H1051 H 0.20894 0.63112 0.37265 0.0
H1052 H 0.22743 0.73577 0.3506 0.0
H1053 H 0.16363 0.69845 0.33007 0.0
C1054 C 1.05483 0.5666 0.23504 0.0
C1055 C 1.07493 0.60218 0.22698 0.0
C1056 C 1.05454 0.56597 0.25655 0.0
C1057 C 1.07349 0.60095 0.27063 0.0
C1058 C 0.09362 0.63657 0.2626 0.0
C1059 C 0.09449 0.63717 0.24103 0.0
C1060 C 1.07326 0.60029 0.29366 0.0
C1061 C 0.10888 0.62142 0.30602 0.0
C1062 C 1.0386 0.57802 0.30339 0.0
C1063 C 0.99961 0.55717 0.29169 0.0
C1064 C 0.98724 0.57731 0.28019 0.0
C1065 C 0.95063 0.5574 0.26901 0.0
C1066 C 0.92601 0.5174 0.26935 0.0
C1067 C 0.93789 0.49725 0.28091 0.0
C1068 C 0.97448 0.51701 0.29211 0.0
C1069 C 0.09506 0.63657 0.39497 0.0
C1070 C 1.08612 0.60298 0.40399 0.0
C1071 C 0.09046 0.63461 0.37341 0.0
C1072 C 1.07666 0.599 0.36027 0.0
C1073 C 1.06537 0.56488 0.36921 0.0
C1074 C 1.07014 0.56685 0.3909 0.0
C1075 C 1.0763 0.59825 0.33725 0.0
C1076 C 1.0407 0.57686 0.32497 0.0
C1077 C 0.11086 0.62064 0.32759 0.0
C1078 C 0.14956 0.64301 0.33963 0.0
C1079 C 0.16287 0.62425 0.35166 0.0
C1080 C 0.19895 0.64568 0.36333 0.0
C1081 C 0.22217 0.68585 0.36298 0.0
C1082 C 0.2094 0.70465 0.35088 0.0
C1083 C 0.17328 0.68337 0.33921 0.0
H1084 H 0.25009 0.7024 0.37204 0.0
H1085 H 0.89768 0.50204 0.26068 0.0
loop_
_geom_bond_atom_site_label_1
_geom_bond_atom_site_label_2
_geom_bond_distance
_geom_bond_site_symmetry_2
_ccdc_geom_bond_type
Eu0 C9 2.828 . S
Eu0 O11 2.392 1_655 S
Eu0 O13 2.418 . S
Eu0 O18 2.373 . S
Eu0 O21 2.488 . S
Eu0 O22 2.471 . S
Eu0 O23 2.349 1_655 S
Eu1 O10 2.373 . S
Eu1 O14 2.488 . S
Eu1 O15 2.471 . S
Eu1 O16 2.349 . S
Eu1 O19 2.392 1_455 S
Eu1 O20 2.418 . S
Eu1 C30 2.828 . S
C2 O20 1.244 . S
C2 O23 1.265 . S
C3 C4 1.379 . S
C3 C7 1.373 . S
C3 C9 1.505 . S
C4 C3 1.379 . S
C4 C6 1.369 . S
C4 H32 0.930 . S
C5 C7 1.383 . S
C5 C8 1.382 . S
C5 H33 0.930 . S
C6 C4 1.369 . S
C6 C8 1.392 . S
C6 H34 0.930 . S
C7 C3 1.373 . S
C7 C5 1.383 . S
C7 H35 0.931 . S
C8 C5 1.382 . S
C8 C6 1.392 . S
C9 Eu0 2.828 . S
C9 C3 1.505 . S
C9 O21 1.249 . S
C9 O22 1.244 . S
O10 Eu1 2.373 . S
O10 C12 1.258 . S
O11 Eu0 2.392 1_455 S
O11 C12 1.242 . S
C12 O10 1.258 . S
C12 O11 1.242 . S
O13 Eu0 2.418 . S
O13 C17 1.244 1_655 S
O14 Eu1 2.488 . S
O14 C30 1.249 . S
O15 Eu1 2.471 . S
O15 C30 1.244 . S
O16 Eu1 2.349 . S
O16 C17 1.265 . S
C17 O13 1.244 1_455 S
C17 O16 1.265 . S
O18 Eu0 2.373 . S
O18 C31 1.258 . S
O19 Eu1 2.392 1_655 S
O19 C31 1.242 . S
O20 Eu1 2.418 . S
O20 C2 1.244 . S
O21 Eu0 2.488 . S
O21 C9 1.249 . S
O22 Eu0 2.471 . S
O22 C9 1.244 . S
O23 Eu0 2.349 1_455 S
O23 C2 1.265 . S
C24 C25 1.379 . S
C24 C28 1.373 . S
C24 C30 1.505 . S
C25 C24 1.379 . S
C25 C27 1.369 . S
C25 H36 0.930 . S
C26 C28 1.383 . S
C26 C29 1.382 . S
C26 H37 0.930 . S
C27 C25 1.369 . S
C27 C29 1.392 . S
C27 H38 0.930 . S
C28 C24 1.373 . S
C28 C26 1.383 . S
C28 H39 0.931 . S
C29 C26 1.382 . S
C29 C27 1.392 . S
C30 Eu1 2.828 . S
C30 O14 1.249 . S
C30 O15 1.244 . S
C30 C24 1.505 . S
C31 O18 1.258 . S
C31 O19 1.242 . S
H32 C4 0.930 . S
H33 C5 0.930 . S
H34 C6 0.930 . S
H35 C7 0.931 . S
H36 C25 0.930 . S
H37 C26 0.930 . S
H38 C27 0.930 . S
H39 C28 0.931 . S
Eu40 C49 2.828 1_545 S
Eu40 O51 2.392 . S
Eu40 O53 2.414 . S
Eu40 O58 2.373 1_545 S
Eu40 O61 2.488 1_545 S
Eu40 O62 2.471 1_545 S
Eu40 O63 2.349 . S
Eu41 O50 2.373 . S
Eu41 O54 2.488 . S
Eu41 O55 2.471 . S
Eu41 O56 2.349 . S
Eu41 O59 2.392 1_545 S
Eu41 O60 2.418 . S
Eu41 C70 2.828 . S
C42 O60 1.244 . S
C42 O63 1.265 . S
C43 C44 1.379 . S
C43 C47 1.373 . S
C43 C49 1.505 . S
C44 C43 1.379 . S
C44 C46 1.369 . S
C44 H72 0.930 . S
C45 C47 1.383 . S
C45 C48 1.382 . S
C45 H73 0.930 . S
C46 C44 1.369 . S
C46 C48 1.392 . S
C46 H74 0.930 . S
C47 C43 1.373 . S
C47 C45 1.383 . S
C47 H75 0.931 . S
C48 C45 1.382 . S
C48 C46 1.392 . S
C49 Eu40 2.828 1_565 S
C49 C43 1.505 . S
C49 O61 1.249 . S
C49 O62 1.244 . S
O50 Eu41 2.373 . S
O50 C52 1.258 . S
O51 Eu40 2.392 . S
O51 C52 1.242 . S
C52 O50 1.258 . S
C52 O51 1.242 . S
O53 Eu40 2.414 . S
O53 C57 1.258 . S
O54 Eu41 2.488 . S
O54 C70 1.249 . S
O55 Eu41 2.471 . S
O55 C70 1.244 . S
O56 Eu41 2.349 . S
O56 C57 1.265 . S
C57 O53 1.258 . S
C57 O56 1.265 . S
O58 Eu40 2.373 1_565 S
O58 C71 1.258 . S
O59 Eu41 2.392 1_565 S
O59 C71 1.242 . S
O60 Eu41 2.418 . S
O60 C42 1.244 . S
O61 Eu40 2.488 1_565 S
O61 C49 1.249 . S
O62 Eu40 2.471 1_565 S
O62 C49 1.244 . S
O63 Eu40 2.349 . S
O63 C42 1.265 . S
C64 C65 1.379 . S
C64 C68 1.373 . S
C64 C70 1.505 . S
C65 C64 1.379 . S
C65 C67 1.369 . S
C65 H76 0.930 . S
C66 C68 1.383 . S
C66 C69 1.382 . S
C66 H77 0.930 . S
C67 C65 1.369 . S
C67 C69 1.392 . S
C67 H78 0.930 . S
C68 C64 1.373 . S
C68 C66 1.383 . S
C68 H79 0.931 . S
C69 C66 1.382 . S
C69 C67 1.392 . S
C70 Eu41 2.828 . S
C70 O54 1.249 . S
C70 O55 1.244 . S
C70 C64 1.505 . S
C71 O58 1.258 . S
C71 O59 1.242 . S
H72 C44 0.930 . S
H73 C45 0.930 . S
H74 C46 0.930 . S
H75 C47 0.931 . S
H76 C65 0.930 . S
H77 C66 0.930 . S
H78 C67 0.930 . S
H79 C68 0.931 . S
Eu80 C89 2.828 . S
Eu80 O91 2.392 . S
Eu80 O93 2.418 . S
Eu80 O98 2.373 . S
Eu80 O101 2.488 . S
Eu80 O102 2.471 . S
Eu80 O103 2.349 . S
Eu81 O90 2.373 . S
Eu81 O94 2.488 . S
Eu81 O95 2.471 . S
Eu81 O96 2.349 . S
Eu81 O99 2.392 . S
Eu81 O100 2.418 . S
Eu81 C110 2.828 . S
C82 O100 1.244 . S
C82 O103 1.265 . S
C83 C84 1.379 . S
C83 C87 1.373 . S
C83 C89 1.505 . S
C84 C83 1.379 . S
C84 C86 1.369 . S
C84 H112 0.930 . S
C85 C87 1.383 . S
C85 C88 1.382 . S
C85 H113 0.930 . S
C86 C84 1.369 . S
C86 C88 1.392 . S
C86 H114 0.930 . S
C87 C83 1.373 . S
C87 C85 1.383 . S
C87 H115 0.931 . S
C88 C85 1.382 . S
C88 C86 1.392 . S
C89 Eu80 2.828 . S
C89 C83 1.505 . S
C89 O101 1.249 . S
C89 O102 1.244 . S
O90 Eu81 2.373 . S
O90 C92 1.258 . S
O91 Eu80 2.392 . S
O91 C92 1.242 . S
C92 O90 1.258 . S
C92 O91 1.242 . S
O93 Eu80 2.418 . S
O93 C97 1.244 . S
O94 Eu81 2.488 . S
O94 C110 1.249 . S
O95 Eu81 2.471 . S
O95 C110 1.244 . S
O96 Eu81 2.349 . S
O96 C97 1.265 . S
C97 O93 1.244 . S
C97 O96 1.265 . S
O98 Eu80 2.373 . S
O98 C111 1.258 . S
O99 Eu81 2.392 . S
O99 C111 1.242 . S
O100 Eu81 2.418 . S
O100 C82 1.244 . S
O101 Eu80 2.488 . S
O101 C89 1.249 . S
O102 Eu80 2.471 . S
O102 C89 1.244 . S
O103 Eu80 2.349 . S
O103 C82 1.265 . S
C104 C105 1.379 . S
C104 C108 1.373 . S
C104 C110 1.505 . S
C105 C104 1.379 . S
C105 C107 1.369 . S
C105 H116 0.930 . S
C106 C108 1.383 . S
C106 C109 1.382 . S
C106 H117 0.930 . S
C107 C105 1.369 . S
C107 C109 1.392 . S
C107 H118 0.930 . S
C108 C104 1.373 . S
C108 C106 1.383 . S
C108 H119 0.931 . S
C109 C106 1.382 . S
C109 C107 1.392 . S
C110 Eu81 2.828 . S
C110 O94 1.249 . S
C110 O95 1.244 . S
C110 C104 1.505 . S
C111 O98 1.258 . S
C111 O99 1.242 . S
H112 C84 0.930 . S
H113 C85 0.930 . S
H114 C86 0.930 . S
H115 C87 0.931 . S
H116 C105 0.930 . S
H117 C106 0.930 . S
H118 C107 0.930 . S
H119 C108 0.931 . S
H120 C123 0.929 1_565 S
H121 C126 0.929 . S
H122 C128 0.930 . S
C123 H120 0.929 1_545 S
C123 C124 1.398 . S
C123 C125 1.396 . S
C124 C123 1.398 . S
C124 C128 1.407 . S
C125 C123 1.396 . S
C125 C126 1.394 . S
C126 H121 0.929 . S
C126 C125 1.394 . S
C126 C127 1.382 . S
C127 C126 1.382 . S
C127 C128 1.392 . S
C127 N129 1.420 . S
C128 H122 0.930 . S
C128 C124 1.407 . S
C128 C127 1.392 . S
N129 C127 1.420 . S
N129 C130 1.244 . S
C130 N129 1.244 . S
H131 C134 0.929 . S
H132 C137 0.929 . S
H133 C139 0.930 . S
C134 H131 0.929 . S
C134 C135 1.398 . S
C134 C136 1.396 . S
C135 C134 1.398 . S
C135 C139 1.407 . S
C136 C134 1.396 . S
C136 C137 1.394 . S
C137 H132 0.929 . S
C137 C136 1.394 . S
C137 C138 1.382 . S
C138 C137 1.382 . S
C138 C139 1.392 . S
C138 N140 1.420 . S
C139 H133 0.930 . S
C139 C135 1.407 . S
C139 C138 1.392 . S
N140 C138 1.420 . S
N140 C141 1.244 . S
C141 N140 1.244 . S
H142 C145 0.929 . S
H143 C148 0.929 . S
H144 C150 0.930 . S
C145 H142 0.929 . S
C145 C146 1.398 . S
C145 C147 1.396 . S
C146 C145 1.398 . S
C146 C150 1.407 . S
C147 C145 1.396 . S
C147 C148 1.394 . S
C148 H143 0.929 . S
C148 C147 1.394 . S
C148 C149 1.382 . S
C149 C148 1.382 . S
C149 C150 1.392 . S
C149 N151 1.420 . S
C150 H144 0.930 . S
C150 C146 1.407 . S
C150 C149 1.392 . S
N151 C149 1.420 . S
N151 C152 1.244 . S
C152 N151 1.244 . S
H153 C156 0.929 . S
H154 C159 0.929 1_655 S
H155 C161 0.930 . S
C156 H153 0.929 . S
C156 C157 1.398 . S
C156 C158 1.396 . S
C157 C156 1.398 . S
C157 C161 1.407 . S
C158 C156 1.396 . S
C158 C159 1.394 . S
C159 H154 0.929 1_455 S
C159 C158 1.394 . S
C159 C160 1.382 . S
C160 C159 1.382 . S
C160 C161 1.392 . S
C160 N162 1.420 1_455 S
C161 H155 0.930 . S
C161 C157 1.407 . S
C161 C160 1.392 . S
N162 C160 1.420 1_655 S
N162 C163 1.244 . S
C163 N162 1.244 . S
H164 C167 0.929 . S
H165 C170 0.929 1_565 S
H166 C172 0.930 . S
C167 H164 0.929 . S
C167 C168 1.398 . S
C167 C169 1.396 . S
C168 C167 1.398 . S
C168 C172 1.407 . S
C169 C167 1.396 . S
C169 C170 1.394 . S
C170 H165 0.929 1_545 S
C170 C169 1.394 . S
C170 C171 1.382 . S
C171 C170 1.382 . S
C171 C172 1.392 . S
C171 N173 1.446 . S
C172 H166 0.930 . S
C172 C168 1.407 . S
C172 C171 1.392 . S
N173 C171 1.446 . S
N173 C174 1.218 1_545 S
C174 N173 1.218 1_565 S
H175 C178 0.929 . S
H176 C181 0.929 . S
H177 C183 0.930 . S
C178 H175 0.929 . S
C178 C179 1.398 . S
C178 C180 1.396 . S
C179 C178 1.398 . S
C179 C183 1.407 . S
C180 C178 1.396 . S
C180 C181 1.394 . S
C181 H176 0.929 . S
C181 C180 1.394 . S
C181 C182 1.382 . S
C182 C181 1.382 . S
C182 C183 1.392 . S
C182 N184 1.420 . S
C183 H177 0.930 . S
C183 C179 1.407 . S
C183 C182 1.392 . S
N184 C182 1.420 . S
N184 C185 1.244 . S
C185 N184 1.244 . S
H186 C204 0.951 . S
H187 C206 0.951 . S
H188 C208 0.950 . S
H189 C209 0.950 . S
H190 C211 0.950 . S
H191 C214 0.950 . S
H192 C215 0.950 . S
H193 C217 0.950 . S
H194 C218 0.950 . S
H195 C219 0.951 . S
H196 C221 0.951 . S
H197 C223 0.950 . S
H198 C224 0.950 . S
H199 C226 0.950 . S
H200 C229 0.950 . S
H201 C230 0.950 . S
H202 C232 0.950 . S
H203 C233 0.950 . S
C204 H186 0.951 . S
C204 C205 1.366 . S
C204 C206 1.388 . S
C205 C204 1.366 . S
C205 C209 1.385 . S
C206 H187 0.951 . S
C206 C204 1.388 . S
C206 C207 1.366 . S
C207 C206 1.366 . S
C207 C208 1.414 . S
C207 C210 1.499 . S
C208 H188 0.950 . S
C208 C207 1.414 . S
C208 C209 1.374 . S
C209 H189 0.950 . S
C209 C205 1.385 . S
C209 C208 1.374 . S
C210 C207 1.499 . S
C210 C211 1.373 . S
C210 C212 1.389 . S
C211 H190 0.950 . S
C211 C210 1.373 . S
C211 C227 1.377 . S
C212 C210 1.389 . S
C212 C213 1.524 . S
C212 C226 1.377 . S
C213 C212 1.524 . S
C213 C214 1.397 . S
C213 C218 1.363 . S
C214 H191 0.950 . S
C214 C213 1.397 . S
C214 C215 1.334 . S
C215 H192 0.950 . S
C215 C214 1.334 . S
C215 C216 1.287 . S
C216 C215 1.287 . S
C216 C217 1.524 . S
C216 H235 0.913 . S
C217 H193 0.950 . S
C217 C216 1.524 . S
C217 C218 1.415 . S
C218 H194 0.950 . S
C218 C213 1.363 . S
C218 C217 1.415 . S
C219 H195 0.951 . S
C219 C220 1.366 . S
C219 C221 1.388 . S
C220 C219 1.366 . S
C220 C224 1.385 . S
C221 H196 0.951 . S
C221 C219 1.388 . S
C221 C222 1.366 . S
C222 C221 1.366 . S
C222 C223 1.414 . S
C222 C225 1.499 . S
C223 H197 0.950 . S
C223 C222 1.414 . S
C223 C224 1.374 . S
C224 H198 0.950 . S
C224 C220 1.385 . S
C224 C223 1.374 . S
C225 C222 1.499 . S
C225 C226 1.373 . S
C225 C227 1.389 . S
C226 H199 0.950 . S
C226 C212 1.377 . S
C226 C225 1.373 . S
C227 C211 1.377 . S
C227 C225 1.389 . S
C227 C228 1.524 . S
C228 C227 1.524 . S
C228 C229 1.397 . S
C228 C233 1.363 . S
C229 H200 0.950 . S
C229 C228 1.397 . S
C229 C230 1.334 . S
C230 H201 0.950 . S
C230 C229 1.334 . S
C230 C231 1.287 . S
C231 C230 1.287 . S
C231 C232 1.524 . S
C231 H234 0.999 . S
C232 H202 0.950 . S
C232 C231 1.524 . S
C232 C233 1.415 . S
C233 H203 0.950 . S
C233 C228 1.363 . S
C233 C232 1.415 . S
H234 C231 0.999 . S
H235 C216 0.913 . S
H236 C254 0.951 . S
H237 C256 0.951 . S
H238 C258 0.950 . S
H239 C259 0.950 . S
H240 C261 0.950 . S
H241 C264 0.950 . S
H242 C265 0.950 . S
H243 C267 0.950 . S
H244 C268 0.950 . S
H245 C269 0.951 . S
H246 C271 0.951 . S
H247 C273 0.950 . S
H248 C274 0.950 . S
H249 C276 0.950 . S
H250 C279 0.950 . S
H251 C280 0.950 . S
H252 C282 0.950 . S
H253 C283 0.950 . S
C254 H236 0.951 . S
C254 C255 1.366 . S
C254 C256 1.388 . S
C255 C254 1.366 . S
C255 C259 1.385 . S
C256 H237 0.951 . S
C256 C254 1.388 . S
C256 C257 1.366 . S
C257 C256 1.366 . S
C257 C258 1.414 . S
C257 C260 1.499 . S
C258 H238 0.950 . S
C258 C257 1.414 . S
C258 C259 1.374 . S
C259 H239 0.950 . S
C259 C255 1.385 . S
C259 C258 1.374 . S
C260 C257 1.499 . S
C260 C261 1.373 . S
C260 C262 1.389 . S
C261 H240 0.950 . S
C261 C260 1.373 . S
C261 C277 1.377 . S
C262 C260 1.389 . S
C262 C263 1.524 . S
C262 C276 1.377 . S
C263 C262 1.524 . S
C263 C264 1.397 . S
C263 C268 1.363 . S
C264 H241 0.950 . S
C264 C263 1.397 . S
C264 C265 1.334 . S
C265 H242 0.950 . S
C265 C264 1.334 . S
C265 C266 1.287 . S
C266 C265 1.287 . S
C266 C267 1.524 . S
C266 H285 0.913 . S
C267 H243 0.950 . S
C267 C266 1.524 . S
C267 C268 1.415 . S
C268 H244 0.950 . S
C268 C263 1.363 . S
C268 C267 1.415 . S
C269 H245 0.951 . S
C269 C270 1.366 . S
C269 C271 1.388 . S
C270 C269 1.366 . S
C270 C274 1.385 . S
C271 H246 0.951 . S
C271 C269 1.388 . S
C271 C272 1.366 . S
C272 C271 1.366 . S
C272 C273 1.414 . S
C272 C275 1.499 . S
C273 H247 0.950 . S
C273 C272 1.414 . S
C273 C274 1.374 . S
C274 H248 0.950 . S
C274 C270 1.385 . S
C274 C273 1.374 . S
C275 C272 1.499 . S
C275 C276 1.373 . S
C275 C277 1.389 . S
C276 H249 0.950 . S
C276 C262 1.377 . S
C276 C275 1.373 . S
C277 C261 1.377 . S
C277 C275 1.389 . S
C277 C278 1.524 . S
C278 C277 1.524 . S
C278 C279 1.397 . S
C278 C283 1.363 . S
C279 H250 0.950 . S
C279 C278 1.397 . S
C279 C280 1.334 . S
C280 H251 0.950 . S
C280 C279 1.334 . S
C280 C281 1.287 . S
C281 C280 1.287 . S
C281 C282 1.524 . S
C281 H284 0.999 . S
C282 H252 0.950 . S
C282 C281 1.524 . S
C282 C283 1.415 . S
C283 H253 0.950 . S
C283 C278 1.363 . S
C283 C282 1.415 . S
H284 C281 0.999 . S
H285 C266 0.913 . S
H286 C304 0.951 . S
H287 C306 0.951 . S
H288 C308 0.950 . S
H289 C309 0.950 . S
H290 C311 0.950 . S
H291 C314 0.950 . S
H292 C315 0.950 . S
H293 C317 0.950 . S
H294 C318 0.950 . S
H295 C319 0.951 . S
H296 C321 0.951 . S
H297 C323 0.950 . S
H298 C324 0.950 . S
H299 C326 0.950 . S
H300 C329 0.950 . S
H301 C330 0.950 . S
H302 C332 0.950 . S
H303 C333 0.950 . S
C304 H286 0.951 . S
C304 C305 1.366 . S
C304 C306 1.388 . S
C305 C304 1.366 . S
C305 C309 1.385 . S
C306 H287 0.951 . S
C306 C304 1.388 . S
C306 C307 1.366 . S
C307 C306 1.366 . S
C307 C308 1.414 . S
C307 C310 1.499 . S
C308 H288 0.950 . S
C308 C307 1.414 . S
C308 C309 1.374 . S
C309 H289 0.950 . S
C309 C305 1.385 . S
C309 C308 1.374 . S
C310 C307 1.499 . S
C310 C311 1.373 . S
C310 C312 1.389 . S
C311 H290 0.950 . S
C311 C310 1.373 . S
C311 C327 1.377 . S
C312 C310 1.389 . S
C312 C313 1.524 . S
C312 C326 1.377 . S
C313 C312 1.524 . S
C313 C314 1.397 . S
C313 C318 1.363 . S
C314 H291 0.950 . S
C314 C313 1.397 . S
C314 C315 1.334 . S
C315 H292 0.950 . S
C315 C314 1.334 . S
C315 C316 1.287 . S
C316 C315 1.287 . S
C316 C317 1.524 . S
C316 H335 0.913 . S
C317 H293 0.950 . S
C317 C316 1.524 . S
C317 C318 1.415 . S
C318 H294 0.950 . S
C318 C313 1.363 . S
C318 C317 1.415 . S
C319 H295 0.951 . S
C319 C320 1.366 . S
C319 C321 1.388 . S
C320 C319 1.366 . S
C320 C324 1.385 . S
C321 H296 0.951 . S
C321 C319 1.388 . S
C321 C322 1.366 . S
C322 C321 1.366 . S
C322 C323 1.414 . S
C322 C325 1.499 . S
C323 H297 0.950 . S
C323 C322 1.414 . S
C323 C324 1.374 . S
C324 H298 0.950 . S
C324 C320 1.385 . S
C324 C323 1.374 . S
C325 C322 1.499 . S
C325 C326 1.373 . S
C325 C327 1.389 . S
C326 H299 0.950 . S
C326 C312 1.377 . S
C326 C325 1.373 . S
C327 C311 1.377 . S
C327 C325 1.389 . S
C327 C328 1.524 . S
C328 C327 1.524 . S
C328 C329 1.397 . S
C328 C333 1.363 . S
C329 H300 0.950 . S
C329 C328 1.397 . S
C329 C330 1.334 . S
C330 H301 0.950 . S
C330 C329 1.334 . S
C330 C331 1.287 . S
C331 C330 1.287 . S
C331 C332 1.524 . S
C331 H334 0.999 . S
C332 H302 0.950 . S
C332 C331 1.524 . S
C332 C333 1.415 . S
C333 H303 0.950 . S
C333 C328 1.363 . S
C333 C332 1.415 . S
H334 C331 0.999 . S
H335 C316 0.913 . S
H336 C354 0.951 . S
H337 C356 0.951 . S
H338 C358 0.950 . S
H339 C359 0.950 . S
H340 C361 0.950 . S
H341 C364 0.950 . S
H342 C365 0.950 . S
H343 C367 0.950 . S
H344 C368 0.950 . S
H345 C369 0.951 . S
H346 C371 0.951 . S
H347 C373 0.950 . S
H348 C374 0.950 . S
H349 C376 0.950 . S
H350 C379 0.950 . S
H351 C380 0.950 . S
H352 C382 0.950 . S
H353 C383 0.950 . S
C354 H336 0.951 . S
C354 C355 1.366 . S
C354 C356 1.388 . S
C355 C354 1.366 . S
C355 C359 1.385 . S
C356 H337 0.951 . S
C356 C354 1.388 . S
C356 C357 1.366 . S
C357 C356 1.366 . S
C357 C358 1.414 . S
C357 C360 1.499 . S
C358 H338 0.950 . S
C358 C357 1.414 . S
C358 C359 1.374 . S
C359 H339 0.950 . S
C359 C355 1.385 . S
C359 C358 1.374 . S
C360 C357 1.499 . S
C360 C361 1.373 . S
C360 C362 1.389 . S
C361 H340 0.950 . S
C361 C360 1.373 . S
C361 C377 1.377 . S
C362 C360 1.389 . S
C362 C363 1.524 . S
C362 C376 1.377 . S
C363 C362 1.524 . S
C363 C364 1.397 . S
C363 C368 1.363 . S
C364 H341 0.950 . S
C364 C363 1.397 . S
C364 C365 1.334 . S
C365 H342 0.950 . S
C365 C364 1.334 . S
C365 C366 1.287 . S
C366 C365 1.287 . S
C366 C367 1.524 . S
C366 H385 0.913 . S
C367 H343 0.950 . S
C367 C366 1.524 . S
C367 C368 1.415 . S
C368 H344 0.950 . S
C368 C363 1.363 . S
C368 C367 1.415 . S
C369 H345 0.951 . S
C369 C370 1.366 . S
C369 C371 1.388 . S
C370 C369 1.366 . S
C370 C374 1.385 . S
C371 H346 0.951 . S
C371 C369 1.388 . S
C371 C372 1.366 . S
C372 C371 1.366 . S
C372 C373 1.414 . S
C372 C375 1.499 . S
C373 H347 0.950 . S
C373 C372 1.414 . S
C373 C374 1.374 . S
C374 H348 0.950 . S
C374 C370 1.385 . S
C374 C373 1.374 . S
C375 C372 1.499 . S
C375 C376 1.373 . S
C375 C377 1.389 . S
C376 H349 0.950 . S
C376 C362 1.377 . S
C376 C375 1.373 . S
C377 C361 1.377 . S
C377 C375 1.389 . S
C377 C378 1.524 . S
C378 C377 1.524 . S
C378 C379 1.397 . S
C378 C383 1.363 . S
C379 H350 0.950 . S
C379 C378 1.397 . S
C379 C380 1.334 . S
C380 H351 0.950 . S
C380 C379 1.334 . S
C380 C381 1.287 . S
C381 C380 1.287 . S
C381 C382 1.524 . S
C381 H384 0.999 . S
C382 H352 0.950 . S
C382 C381 1.524 . S
C382 C383 1.415 . S
C383 H353 0.950 . S
C383 C378 1.363 . S
C383 C382 1.415 . S
H384 C381 0.999 . S
H385 C366 0.913 . S
H386 C404 0.951 . S
H387 C406 0.951 . S
H388 C408 0.950 . S
H389 C409 0.950 . S
H390 C411 0.950 . S
H391 C414 0.950 . S
H392 C415 0.950 . S
H393 C417 0.950 . S
H394 C418 0.950 . S
H395 C419 0.951 . S
H396 C421 0.951 . S
H397 C423 0.950 . S
H398 C424 0.950 . S
H399 C426 0.950 . S
H400 C429 0.950 . S
H401 C430 0.950 . S
H402 C432 0.950 . S
H403 C433 0.950 . S
C404 H386 0.951 . S
C404 C405 1.366 . S
C404 C406 1.388 . S
C405 C404 1.366 . S
C405 C409 1.385 . S
C406 H387 0.951 . S
C406 C404 1.388 . S
C406 C407 1.366 . S
C407 C406 1.366 . S
C407 C408 1.414 . S
C407 C410 1.499 . S
C408 H388 0.950 . S
C408 C407 1.414 . S
C408 C409 1.374 . S
C409 H389 0.950 . S
C409 C405 1.385 . S
C409 C408 1.374 . S
C410 C407 1.499 . S
C410 C411 1.373 . S
C410 C412 1.389 . S
C411 H390 0.950 . S
C411 C410 1.373 . S
C411 C427 1.377 . S
C412 C410 1.389 . S
C412 C413 1.524 . S
C412 C426 1.377 . S
C413 C412 1.524 . S
C413 C414 1.397 . S
C413 C418 1.363 . S
C414 H391 0.950 . S
C414 C413 1.397 . S
C414 C415 1.334 . S
C415 H392 0.950 . S
C415 C414 1.334 . S
C415 C416 1.287 . S
C416 C415 1.287 . S
C416 C417 1.524 . S
C416 H435 0.913 . S
C417 H393 0.950 . S
C417 C416 1.524 . S
C417 C418 1.415 . S
C418 H394 0.950 . S
C418 C413 1.363 . S
C418 C417 1.415 . S
C419 H395 0.951 . S
C419 C420 1.366 . S
C419 C421 1.388 . S
C420 C419 1.366 . S
C420 C424 1.385 . S
C421 H396 0.951 . S
C421 C419 1.388 . S
C421 C422 1.366 . S
C422 C421 1.366 . S
C422 C423 1.414 . S
C422 C425 1.499 . S
C423 H397 0.950 . S
C423 C422 1.414 . S
C423 C424 1.374 . S
C424 H398 0.950 . S
C424 C420 1.385 . S
C424 C423 1.374 . S
C425 C422 1.499 . S
C425 C426 1.373 . S
C425 C427 1.389 . S
C426 H399 0.950 . S
C426 C412 1.377 . S
C426 C425 1.373 . S
C427 C411 1.377 . S
C427 C425 1.389 . S
C427 C428 1.524 . S
C428 C427 1.524 . S
C428 C429 1.397 . S
C428 C433 1.363 . S
C429 H400 0.950 . S
C429 C428 1.397 . S
C429 C430 1.334 . S
C430 H401 0.950 . S
C430 C429 1.334 . S
C430 C431 1.287 . S
C431 C430 1.287 . S
C431 C432 1.524 . S
C431 H434 0.999 . S
C432 H402 0.950 . S
C432 C431 1.524 . S
C432 C433 1.415 . S
C433 H403 0.950 . S
C433 C428 1.363 . S
C433 C432 1.415 . S
H434 C431 0.999 . S
H435 C416 0.913 . S
H436 C454 0.951 . S
H437 C456 0.951 . S
H438 C458 0.950 . S
H439 C459 0.950 . S
H440 C461 0.950 . S
H441 C464 0.950 . S
H442 C465 0.950 . S
H443 C467 0.950 . S
H444 C468 0.950 . S
H445 C469 0.951 . S
H446 C471 0.951 . S
H447 C473 0.950 . S
H448 C474 0.950 . S
H449 C476 0.950 . S
H450 C479 0.950 . S
H451 C480 0.950 . S
H452 C482 0.950 . S
H453 C483 0.950 . S
C454 H436 0.951 . S
C454 C455 1.366 . S
C454 C456 1.388 . S
C455 C454 1.366 . S
C455 C459 1.385 . S
C456 H437 0.951 . S
C456 C454 1.388 . S
C456 C457 1.366 . S
C457 C456 1.366 . S
C457 C458 1.414 . S
C457 C460 1.499 . S
C458 H438 0.950 . S
C458 C457 1.414 . S
C458 C459 1.374 . S
C459 H439 0.950 . S
C459 C455 1.385 . S
C459 C458 1.374 . S
C460 C457 1.499 . S
C460 C461 1.373 . S
C460 C462 1.389 . S
C461 H440 0.950 . S
C461 C460 1.373 . S
C461 C477 1.377 . S
C462 C460 1.389 . S
C462 C463 1.524 . S
C462 C476 1.377 . S
C463 C462 1.524 . S
C463 C464 1.397 . S
C463 C468 1.363 . S
C464 H441 0.950 . S
C464 C463 1.397 . S
C464 C465 1.334 . S
C465 H442 0.950 . S
C465 C464 1.334 . S
C465 C466 1.287 . S
C466 C465 1.287 . S
C466 C467 1.524 . S
C466 H485 0.913 . S
C467 H443 0.950 . S
C467 C466 1.524 . S
C467 C468 1.415 . S
C468 H444 0.950 . S
C468 C463 1.363 . S
C468 C467 1.415 . S
C469 H445 0.951 . S
C469 C470 1.366 . S
C469 C471 1.388 . S
C470 C469 1.366 . S
C470 C474 1.385 . S
C471 H446 0.951 . S
C471 C469 1.388 . S
C471 C472 1.366 . S
C472 C471 1.366 . S
C472 C473 1.414 . S
C472 C475 1.499 . S
C473 H447 0.950 . S
C473 C472 1.414 . S
C473 C474 1.374 . S
C474 H448 0.950 . S
C474 C470 1.385 . S
C474 C473 1.374 . S
C475 C472 1.499 . S
C475 C476 1.373 . S
C475 C477 1.389 . S
C476 H449 0.950 . S
C476 C462 1.377 . S
C476 C475 1.373 . S
C477 C461 1.377 . S
C477 C475 1.389 . S
C477 C478 1.524 . S
C478 C477 1.524 . S
C478 C479 1.397 . S
C478 C483 1.363 . S
C479 H450 0.950 . S
C479 C478 1.397 . S
C479 C480 1.334 . S
C480 H451 0.950 . S
C480 C479 1.334 . S
C480 C481 1.287 . S
C481 C480 1.287 . S
C481 C482 1.524 . S
C481 H484 0.999 . S
C482 H452 0.950 . S
C482 C481 1.524 . S
C482 C483 1.415 . S
C483 H453 0.950 . S
C483 C478 1.363 . S
C483 C482 1.415 . S
H484 C481 0.999 . S
H485 C466 0.913 . S
H486 C504 0.951 . S
H487 C506 0.951 . S
H488 C508 0.950 . S
H489 C509 0.950 . S
H490 C511 0.950 . S
H491 C514 0.950 . S
H492 C515 0.950 . S
H493 C517 0.950 . S
H494 C518 0.950 . S
H495 C519 0.951 . S
H496 C521 0.951 . S
H497 C523 0.950 . S
H498 C524 0.950 . S
H499 C526 0.950 . S
H500 C529 0.950 . S
H501 C530 0.950 . S
H502 C532 0.950 . S
H503 C533 0.950 . S
C504 H486 0.951 . S
C504 C505 1.366 . S
C504 C506 1.388 . S
C505 C504 1.366 . S
C505 C509 1.385 . S
C506 H487 0.951 . S
C506 C504 1.388 . S
C506 C507 1.366 . S
C507 C506 1.366 . S
C507 C508 1.414 . S
C507 C510 1.499 . S
C508 H488 0.950 . S
C508 C507 1.414 . S
C508 C509 1.374 . S
C509 H489 0.950 . S
C509 C505 1.385 . S
C509 C508 1.374 . S
C510 C507 1.499 . S
C510 C511 1.373 . S
C510 C512 1.389 . S
C511 H490 0.950 . S
C511 C510 1.373 . S
C511 C527 1.377 . S
C512 C510 1.389 . S
C512 C513 1.524 . S
C512 C526 1.377 . S
C513 C512 1.524 . S
C513 C514 1.397 . S
C513 C518 1.363 . S
C514 H491 0.950 . S
C514 C513 1.397 . S
C514 C515 1.334 . S
C515 H492 0.950 . S
C515 C514 1.334 . S
C515 C516 1.287 . S
C516 C515 1.287 . S
C516 C517 1.524 . S
C516 H535 0.913 . S
C517 H493 0.950 . S
C517 C516 1.524 . S
C517 C518 1.415 . S
C518 H494 0.950 . S
C518 C513 1.363 . S
C518 C517 1.415 . S
C519 H495 0.951 . S
C519 C520 1.366 . S
C519 C521 1.388 . S
C520 C519 1.366 . S
C520 C524 1.385 . S
C521 H496 0.951 . S
C521 C519 1.388 . S
C521 C522 1.366 . S
C522 C521 1.366 . S
C522 C523 1.414 . S
C522 C525 1.499 . S
C523 H497 0.950 . S
C523 C522 1.414 . S
C523 C524 1.374 . S
C524 H498 0.950 . S
C524 C520 1.385 . S
C524 C523 1.374 . S
C525 C522 1.499 . S
C525 C526 1.373 . S
C525 C527 1.389 . S
C526 H499 0.950 . S
C526 C512 1.377 . S
C526 C525 1.373 . S
C527 C511 1.377 . S
C527 C525 1.389 . S
C527 C528 1.524 . S
C528 C527 1.524 . S
C528 C529 1.397 . S
C528 C533 1.363 . S
C529 H500 0.950 . S
C529 C528 1.397 . S
C529 C530 1.334 . S
C530 H501 0.950 . S
C530 C529 1.334 . S
C530 C531 1.287 . S
C531 C530 1.287 . S
C531 C532 1.524 . S
C531 H534 0.999 . S
C532 H502 0.950 . S
C532 C531 1.524 . S
C532 C533 1.415 . S
C533 H503 0.950 . S
C533 C528 1.363 . S
C533 C532 1.415 . S
H534 C531 0.999 . S
H535 C516 0.913 . S
H536 C554 0.951 . S
H537 C556 0.951 . S
H538 C558 0.950 . S
H539 C559 0.950 . S
H540 C561 0.950 . S
H541 C564 0.950 . S
H542 C565 0.950 . S
H543 C567 0.950 . S
H544 C568 0.950 . S
H545 C569 0.951 . S
H546 C571 0.951 . S
H547 C573 0.950 . S
H548 C574 0.950 . S
H549 C576 0.950 . S
H550 C579 0.950 . S
H551 C580 0.950 . S
H552 C582 0.950 . S
H553 C583 0.950 . S
C554 H536 0.951 . S
C554 C555 1.366 . S
C554 C556 1.388 . S
C555 C554 1.366 . S
C555 C559 1.385 . S
C556 H537 0.951 . S
C556 C554 1.388 . S
C556 C557 1.366 . S
C557 C556 1.366 . S
C557 C558 1.414 . S
C557 C560 1.499 . S
C558 H538 0.950 . S
C558 C557 1.414 . S
C558 C559 1.374 . S
C559 H539 0.950 . S
C559 C555 1.385 . S
C559 C558 1.374 . S
C560 C557 1.499 . S
C560 C561 1.373 . S
C560 C562 1.389 . S
C561 H540 0.950 . S
C561 C560 1.373 . S
C561 C577 1.377 . S
C562 C560 1.389 . S
C562 C563 1.524 . S
C562 C576 1.377 . S
C563 C562 1.524 . S
C563 C564 1.397 . S
C563 C568 1.363 . S
C564 H541 0.950 . S
C564 C563 1.397 . S
C564 C565 1.334 . S
C565 H542 0.950 . S
C565 C564 1.334 . S
C565 C566 1.287 . S
C566 C565 1.287 . S
C566 C567 1.524 . S
C566 H585 0.913 . S
C567 H543 0.950 . S
C567 C566 1.524 . S
C567 C568 1.415 . S
C568 H544 0.950 . S
C568 C563 1.363 . S
C568 C567 1.415 . S
C569 H545 0.951 . S
C569 C570 1.366 1_655 S
C569 C571 1.388 . S
C570 C569 1.366 1_455 S
C570 C574 1.385 . S
C571 H546 0.951 . S
C571 C569 1.388 . S
C571 C572 1.366 . S
C572 C571 1.366 . S
C572 C573 1.414 . S
C572 C575 1.499 . S
C573 H547 0.950 . S
C573 C572 1.414 . S
C573 C574 1.374 1_655 S
C574 H548 0.950 . S
C574 C570 1.385 . S
C574 C573 1.374 1_455 S
C575 C572 1.499 . S
C575 C576 1.373 . S
C575 C577 1.389 . S
C576 H549 0.950 . S
C576 C562 1.377 . S
C576 C575 1.373 . S
C577 C561 1.377 . S
C577 C575 1.389 . S
C577 C578 1.524 . S
C578 C577 1.524 . S
C578 C579 1.397 . S
C578 C583 1.363 . S
C579 H550 0.950 . S
C579 C578 1.397 . S
C579 C580 1.334 . S
C580 H551 0.950 . S
C580 C579 1.334 . S
C580 C581 1.287 . S
C581 C580 1.287 . S
C581 C582 1.524 . S
C581 H584 0.999 . S
C582 H552 0.950 . S
C582 C581 1.524 . S
C582 C583 1.415 . S
C583 H553 0.950 . S
C583 C578 1.363 . S
C583 C582 1.415 . S
H584 C581 0.999 . S
H585 C566 0.913 . S
H586 C604 0.951 . S
H587 C606 0.951 . S
H588 C608 0.950 . S
H589 C609 0.950 . S
H590 C611 0.950 . S
H591 C614 0.950 . S
H592 C615 0.950 . S
H593 C617 0.950 . S
H594 C618 0.950 . S
H595 C619 0.951 . S
H596 C621 0.951 . S
H597 C623 0.950 . S
H598 C624 0.950 . S
H599 C626 0.950 . S
H600 C629 0.950 . S
H601 C630 0.950 . S
H602 C632 0.950 . S
H603 C633 0.950 . S
C604 H586 0.951 . S
C604 C605 1.366 . S
C604 C606 1.388 . S
C605 C604 1.366 . S
C605 C609 1.385 . S
C606 H587 0.951 . S
C606 C604 1.388 . S
C606 C607 1.366 . S
C607 C606 1.366 . S
C607 C608 1.414 . S
C607 C610 1.499 . S
C608 H588 0.950 . S
C608 C607 1.414 . S
C608 C609 1.374 . S
C609 H589 0.950 . S
C609 C605 1.385 . S
C609 C608 1.374 . S
C610 C607 1.499 . S
C610 C611 1.373 . S
C610 C612 1.389 . S
C611 H590 0.950 . S
C611 C610 1.373 . S
C611 C627 1.377 . S
C612 C610 1.389 . S
C612 C613 1.524 . S
C612 C626 1.377 . S
C613 C612 1.524 . S
C613 C614 1.397 . S
C613 C618 1.363 . S
C614 H591 0.950 . S
C614 C613 1.397 . S
C614 C615 1.334 . S
C615 H592 0.950 . S
C615 C614 1.334 . S
C615 C616 1.287 . S
C616 C615 1.287 . S
C616 C617 1.524 . S
C616 H635 0.913 . S
C617 H593 0.950 . S
C617 C616 1.524 . S
C617 C618 1.415 . S
C618 H594 0.950 . S
C618 C613 1.363 . S
C618 C617 1.415 . S
C619 H595 0.951 . S
C619 C620 1.366 . S
C619 C621 1.388 1_545 S
C620 C619 1.366 . S
C620 C624 1.385 1_545 S
C621 H596 0.951 . S
C621 C619 1.388 1_565 S
C621 C622 1.366 . S
C622 C621 1.366 . S
C622 C623 1.414 . S
C622 C625 1.499 . S
C623 H597 0.950 . S
C623 C622 1.414 . S
C623 C624 1.374 . S
C624 H598 0.950 . S
C624 C620 1.385 1_565 S
C624 C623 1.374 . S
C625 C622 1.499 . S
C625 C626 1.373 . S
C625 C627 1.389 . S
C626 H599 0.950 . S
C626 C612 1.377 . S
C626 C625 1.373 . S
C627 C611 1.377 . S
C627 C625 1.389 . S
C627 C628 1.524 . S
C628 C627 1.524 . S
C628 C629 1.397 . S
C628 C633 1.363 . S
C629 H600 0.950 . S
C629 C628 1.397 . S
C629 C630 1.334 . S
C630 H601 0.950 . S
C630 C629 1.334 . S
C630 C631 1.287 . S
C631 C630 1.287 . S
C631 C632 1.524 . S
C631 H634 0.999 1_565 S
C632 H602 0.950 . S
C632 C631 1.524 . S
C632 C633 1.415 . S
C633 H603 0.950 . S
C633 C628 1.363 . S
C633 C632 1.415 . S
H634 C631 0.999 1_545 S
H635 C616 0.913 . S
H636 C654 0.951 . S
H637 C656 0.951 . S
H638 C658 0.950 . S
H639 C659 0.950 . S
H640 C661 0.950 . S
H641 C664 0.950 . S
H642 C665 0.950 . S
H643 C667 0.950 . S
H644 C668 0.950 . S
H645 C669 0.951 . S
H646 C671 0.951 . S
H647 C673 0.950 . S
H648 C674 0.950 . S
H649 C676 0.950 . S
H650 C679 0.950 . S
H651 C680 0.950 . S
H652 C682 0.950 . S
H653 C683 0.950 . S
C654 H636 0.951 . S
C654 C655 1.366 . S
C654 C656 1.388 . S
C655 C654 1.366 . S
C655 C659 1.385 . S
C656 H637 0.951 . S
C656 C654 1.388 . S
C656 C657 1.366 . S
C657 C656 1.366 . S
C657 C658 1.414 . S
C657 C660 1.499 . S
C658 H638 0.950 . S
C658 C657 1.414 . S
C658 C659 1.374 . S
C659 H639 0.950 . S
C659 C655 1.385 . S
C659 C658 1.374 . S
C660 C657 1.499 . S
C660 C661 1.373 . S
C660 C662 1.389 . S
C661 H640 0.950 . S
C661 C660 1.373 . S
C661 C677 1.377 . S
C662 C660 1.389 . S
C662 C663 1.524 . S
C662 C676 1.377 . S
C663 C662 1.524 . S
C663 C664 1.397 . S
C663 C668 1.363 . S
C664 H641 0.950 . S
C664 C663 1.397 . S
C664 C665 1.334 . S
C665 H642 0.950 . S
C665 C664 1.334 . S
C665 C666 1.287 . S
C666 C665 1.287 . S
C666 C667 1.524 . S
C666 H685 0.913 . S
C667 H643 0.950 . S
C667 C666 1.524 . S
C667 C668 1.415 . S
C668 H644 0.950 . S
C668 C663 1.363 . S
C668 C667 1.415 . S
C669 H645 0.951 . S
C669 C670 1.366 . S
C669 C671 1.388 . S
C670 C669 1.366 . S
C670 C674 1.385 . S
C671 H646 0.951 . S
C671 C669 1.388 . S
C671 C672 1.366 . S
C672 C671 1.366 . S
C672 C673 1.414 . S
C672 C675 1.499 . S
C673 H647 0.950 . S
C673 C672 1.414 . S
C673 C674 1.374 . S
C674 H648 0.950 . S
C674 C670 1.385 . S
C674 C673 1.374 . S
C675 C672 1.499 . S
C675 C676 1.373 . S
C675 C677 1.389 . S
C676 H649 0.950 . S
C676 C662 1.377 . S
C676 C675 1.373 . S
C677 C661 1.377 . S
C677 C675 1.389 . S
C677 C678 1.524 . S
C678 C677 1.524 . S
C678 C679 1.397 . S
C678 C683 1.363 . S
C679 H650 0.950 . S
C679 C678 1.397 . S
C679 C680 1.334 . S
C680 H651 0.950 . S
C680 C679 1.334 . S
C680 C681 1.287 . S
C681 C680 1.287 . S
C681 C682 1.524 . S
C681 H684 0.999 . S
C682 H652 0.950 . S
C682 C681 1.524 . S
C682 C683 1.415 . S
C683 H653 0.950 . S
C683 C678 1.363 . S
C683 C682 1.415 . S
H684 C681 0.999 . S
H685 C666 0.913 . S
H686 C704 0.951 . S
H687 C706 0.951 . S
H688 C708 0.950 . S
H689 C709 0.950 . S
H690 C711 0.950 . S
H691 C714 0.950 . S
H692 C715 0.950 . S
H693 C717 0.950 . S
H694 C718 0.950 . S
H695 C719 0.951 . S
H696 C721 0.951 . S
H697 C723 0.950 . S
H698 C724 0.950 . S
H699 C726 0.950 . S
H700 C729 0.950 . S
H701 C730 0.950 . S
H702 C732 0.950 . S
H703 C733 0.950 . S
C704 H686 0.951 . S
C704 C705 1.366 . S
C704 C706 1.388 . S
C705 C704 1.366 . S
C705 C709 1.385 . S
C706 H687 0.951 . S
C706 C704 1.388 . S
C706 C707 1.366 . S
C707 C706 1.366 . S
C707 C708 1.414 . S
C707 C710 1.499 . S
C708 H688 0.950 . S
C708 C707 1.414 . S
C708 C709 1.374 . S
C709 H689 0.950 . S
C709 C705 1.385 . S
C709 C708 1.374 . S
C710 C707 1.499 . S
C710 C711 1.373 . S
C710 C712 1.389 . S
C711 H690 0.950 . S
C711 C710 1.373 . S
C711 C727 1.377 . S
C712 C710 1.389 . S
C712 C713 1.524 . S
C712 C726 1.377 . S
C713 C712 1.524 . S
C713 C714 1.397 . S
C713 C718 1.363 . S
C714 H691 0.950 . S
C714 C713 1.397 . S
C714 C715 1.334 . S
C715 H692 0.950 . S
C715 C714 1.334 . S
C715 C716 1.287 . S
C716 C715 1.287 . S
C716 C717 1.524 . S
C716 H735 0.913 . S
C717 H693 0.950 . S
C717 C716 1.524 . S
C717 C718 1.415 . S
C718 H694 0.950 . S
C718 C713 1.363 . S
C718 C717 1.415 . S
C719 H695 0.951 . S
C719 C720 1.366 . S
C719 C721 1.388 . S
C720 C719 1.366 . S
C720 C724 1.385 . S
C721 H696 0.951 . S
C721 C719 1.388 . S
C721 C722 1.366 . S
C722 C721 1.366 . S
C722 C723 1.414 . S
C722 C725 1.499 . S
C723 H697 0.950 . S
C723 C722 1.414 . S
C723 C724 1.374 . S
C724 H698 0.950 . S
C724 C720 1.385 . S
C724 C723 1.374 . S
C725 C722 1.499 . S
C725 C726 1.373 . S
C725 C727 1.389 . S
C726 H699 0.950 . S
C726 C712 1.377 . S
C726 C725 1.373 . S
C727 C711 1.377 . S
C727 C725 1.389 . S
C727 C728 1.524 . S
C728 C727 1.524 . S
C728 C729 1.397 . S
C728 C733 1.363 . S
C729 H700 0.950 . S
C729 C728 1.397 . S
C729 C730 1.334 . S
C730 H701 0.950 . S
C730 C729 1.334 . S
C730 C731 1.287 . S
C731 C730 1.287 . S
C731 C732 1.524 . S
C731 H734 0.999 . S
C732 H702 0.950 . S
C732 C731 1.524 . S
C732 C733 1.415 . S
C733 H703 0.950 . S
C733 C728 1.363 . S
C733 C732 1.415 . S
H734 C731 0.999 . S
H735 C716 0.913 . S
H736 C754 0.951 . S
H737 C756 0.951 . S
H738 C758 0.950 . S
H739 C759 0.950 . S
H740 C761 0.950 . S
H741 C764 0.950 . S
H742 C765 0.950 . S
H743 C767 0.950 . S
H744 C768 0.950 . S
H745 C769 0.951 . S
H746 C771 0.951 . S
H747 C773 0.950 . S
H748 C774 0.950 . S
H749 C776 0.950 . S
H750 C779 0.950 . S
H751 C780 0.950 . S
H752 C782 0.950 . S
H753 C783 0.950 . S
C754 H736 0.951 . S
C754 C755 1.366 . S
C754 C756 1.388 . S
C755 C754 1.366 . S
C755 C759 1.385 . S
C756 H737 0.951 . S
C756 C754 1.388 . S
C756 C757 1.366 . S
C757 C756 1.366 . S
C757 C758 1.414 . S
C757 C760 1.499 . S
C758 H738 0.950 . S
C758 C757 1.414 . S
C758 C759 1.374 . S
C759 H739 0.950 . S
C759 C755 1.385 . S
C759 C758 1.374 . S
C760 C757 1.499 . S
C760 C761 1.373 . S
C760 C762 1.389 . S
C761 H740 0.950 . S
C761 C760 1.373 . S
C761 C777 1.377 . S
C762 C760 1.389 . S
C762 C763 1.524 . S
C762 C776 1.377 . S
C763 C762 1.524 . S
C763 C764 1.397 . S
C763 C768 1.363 . S
C764 H741 0.950 . S
C764 C763 1.397 . S
C764 C765 1.334 . S
C765 H742 0.950 . S
C765 C764 1.334 . S
C765 C766 1.287 . S
C766 C765 1.287 . S
C766 C767 1.524 . S
C766 H785 0.913 . S
C767 H743 0.950 . S
C767 C766 1.524 . S
C767 C768 1.415 . S
C768 H744 0.950 . S
C768 C763 1.363 . S
C768 C767 1.415 . S
C769 H745 0.951 . S
C769 C770 1.366 . S
C769 C771 1.388 . S
C770 C769 1.366 . S
C770 C774 1.385 . S
C771 H746 0.951 . S
C771 C769 1.388 . S
C771 C772 1.366 . S
C772 C771 1.366 . S
C772 C773 1.414 . S
C772 C775 1.499 . S
C773 H747 0.950 . S
C773 C772 1.414 . S
C773 C774 1.374 . S
C774 H748 0.950 . S
C774 C770 1.385 . S
C774 C773 1.374 . S
C775 C772 1.499 . S
C775 C776 1.373 . S
C775 C777 1.389 . S
C776 H749 0.950 . S
C776 C762 1.377 . S
C776 C775 1.373 . S
C777 C761 1.377 . S
C777 C775 1.389 . S
C777 C778 1.524 . S
C778 C777 1.524 . S
C778 C779 1.397 . S
C778 C783 1.363 . S
C779 H750 0.950 . S
C779 C778 1.397 . S
C779 C780 1.334 . S
C780 H751 0.950 . S
C780 C779 1.334 . S
C780 C781 1.287 . S
C781 C780 1.287 . S
C781 C782 1.524 . S
C781 H784 0.999 . S
C782 H752 0.950 . S
C782 C781 1.524 . S
C782 C783 1.415 . S
C783 H753 0.950 . S
C783 C778 1.363 . S
C783 C782 1.415 . S
H784 C781 0.999 . S
H785 C766 0.913 . S
H786 C804 0.978 . S
H787 C806 0.951 . S
H788 C808 0.950 . S
H789 C809 0.950 . S
H790 C811 0.950 . S
H791 C814 0.950 . S
H792 C815 0.950 . S
H793 C817 0.950 . S
H794 C818 0.950 . S
H795 C819 0.951 . S
H796 C821 0.951 . S
H797 C823 0.950 . S
H798 C824 0.950 . S
H799 C826 0.950 1_656 S
H800 C829 0.950 . S
H801 C830 0.950 . S
H802 C832 0.950 . S
H803 C833 0.950 . S
C804 H786 0.978 . S
C804 C805 1.366 . S
C804 C806 1.388 . S
C805 C804 1.366 . S
C805 C809 1.385 . S
C806 H787 0.951 . S
C806 C804 1.388 . S
C806 C807 1.366 . S
C807 C806 1.366 . S
C807 C808 1.414 . S
C807 C810 1.499 . S
C808 H788 0.950 . S
C808 C807 1.414 . S
C808 C809 1.374 . S
C809 H789 0.950 . S
C809 C805 1.385 . S
C809 C808 1.374 . S
C810 C807 1.499 . S
C810 C811 1.373 . S
C810 C812 1.416 . S
C811 H790 0.950 . S
C811 C810 1.373 . S
C811 C827 1.377 . S
C812 C810 1.416 . S
C812 C813 1.490 1_455 S
C812 C826 1.385 . S
C813 C812 1.490 1_655 S
C813 C814 1.397 . S
C813 C818 1.363 . S
C814 H791 0.950 . S
C814 C813 1.397 . S
C814 C815 1.334 . S
C815 H792 0.950 . S
C815 C814 1.334 . S
C815 C816 1.287 . S
C816 C815 1.287 . S
C816 C817 1.524 . S
C816 H835 0.913 . S
C817 H793 0.950 . S
C817 C816 1.524 . S
C817 C818 1.415 . S
C818 H794 0.950 . S
C818 C813 1.363 . S
C818 C817 1.415 . S
C819 H795 0.951 . S
C819 C820 1.366 . S
C819 C821 1.388 . S
C820 C819 1.366 . S
C820 C824 1.385 . S
C821 H796 0.951 . S
C821 C819 1.388 . S
C821 C822 1.366 . S
C822 C821 1.366 . S
C822 C823 1.414 . S
C822 C825 1.499 . S
C823 H797 0.950 . S
C823 C822 1.414 . S
C823 C824 1.374 . S
C824 H798 0.950 . S
C824 C820 1.385 . S
C824 C823 1.374 . S
C825 C822 1.499 . S
C825 C826 1.373 1_556 S
C825 C827 1.389 1_556 S
C826 H799 0.950 1_454 S
C826 C812 1.385 . S
C826 C825 1.373 1_554 S
C827 C811 1.377 . S
C827 C825 1.389 1_554 S
C827 C828 1.524 . S
C828 C827 1.524 . S
C828 C829 1.397 1_554 S
C828 C833 1.363 . S
C829 H800 0.950 . S
C829 C828 1.397 1_556 S
C829 C830 1.334 . S
C830 H801 0.950 . S
C830 C829 1.334 . S
C830 C831 1.287 . S
C831 C830 1.287 . S
C831 C832 1.524 1_556 S
C831 H834 0.999 . S
C832 H802 0.950 . S
C832 C831 1.524 1_554 S
C832 C833 1.415 . S
C833 H803 0.950 . S
C833 C828 1.363 . S
C833 C832 1.415 . S
H834 C831 0.999 . S
H835 C816 0.913 . S
H836 C854 0.951 . S
H837 C856 0.951 . S
H838 C858 0.950 . S
H839 C859 0.950 . S
H840 C861 0.950 . S
H841 C864 0.950 . S
H842 C865 0.950 . S
H843 C867 0.950 . S
H844 C868 0.950 . S
H845 C869 0.951 . S
H846 C871 0.951 . S
H847 C873 0.950 . S
H848 C874 0.950 . S
H849 C876 0.950 1_565 S
H850 C879 0.950 . S
H851 C880 0.950 . S
H852 C882 0.950 . S
H853 C883 0.950 . S
C854 H836 0.951 . S
C854 C855 1.366 . S
C854 C856 1.388 . S
C855 C854 1.366 . S
C855 C859 1.385 . S
C856 H837 0.951 . S
C856 C854 1.388 . S
C856 C857 1.366 . S
C857 C856 1.366 . S
C857 C858 1.414 . S
C857 C860 1.499 . S
C858 H838 0.950 . S
C858 C857 1.414 . S
C858 C859 1.374 . S
C859 H839 0.950 . S
C859 C855 1.385 . S
C859 C858 1.374 . S
C860 C857 1.499 . S
C860 C861 1.373 . S
C860 C862 1.389 . S
C861 H840 0.950 . S
C861 C860 1.373 . S
C861 C877 1.377 . S
C862 C860 1.389 . S
C862 C863 1.524 1_545 S
C862 C876 1.377 . S
C863 C862 1.524 1_565 S
C863 C864 1.397 . S
C863 C868 1.363 . S
C864 H841 0.950 . S
C864 C863 1.397 . S
C864 C865 1.334 . S
C865 H842 0.950 . S
C865 C864 1.334 . S
C865 C866 1.287 . S
C866 C865 1.287 . S
C866 C867 1.524 . S
C866 H885 0.913 . S
C867 H843 0.950 . S
C867 C866 1.524 . S
C867 C868 1.415 . S
C868 H844 0.950 . S
C868 C863 1.363 . S
C868 C867 1.415 . S
C869 H845 0.951 . S
C869 C870 1.366 . S
C869 C871 1.388 . S
C870 C869 1.366 . S
C870 C874 1.385 . S
C871 H846 0.951 . S
C871 C869 1.388 . S
C871 C872 1.366 . S
C872 C871 1.366 . S
C872 C873 1.414 . S
C872 C875 1.499 . S
C873 H847 0.950 . S
C873 C872 1.414 . S
C873 C874 1.374 . S
C874 H848 0.950 . S
C874 C870 1.385 . S
C874 C873 1.374 . S
C875 C872 1.499 . S
C875 C876 1.373 . S
C875 C877 1.389 . S
C876 H849 0.950 1_545 S
C876 C862 1.377 . S
C876 C875 1.373 . S
C877 C861 1.377 . S
C877 C875 1.389 . S
C877 C878 1.524 . S
C878 C877 1.524 . S
C878 C879 1.397 . S
C878 C883 1.363 . S
C879 H850 0.950 . S
C879 C878 1.397 . S
C879 C880 1.334 . S
C880 H851 0.950 . S
C880 C879 1.334 . S
C880 C881 1.287 . S
C881 C880 1.287 . S
C881 C882 1.524 . S
C881 H884 0.999 . S
C882 H852 0.950 . S
C882 C881 1.524 . S
C882 C883 1.415 . S
C883 H853 0.950 . S
C883 C878 1.363 . S
C883 C882 1.415 . S
H884 C881 0.999 . S
H885 C866 0.913 . S
H886 C904 0.951 . S
H887 C906 0.951 . S
H888 C908 0.950 . S
H889 C909 0.950 . S
H890 C911 0.950 . S
H891 C914 0.950 . S
H892 C915 0.950 . S
H893 C917 0.950 . S
H894 C918 0.950 . S
H895 C919 0.951 . S
H896 C921 0.951 . S
H897 C923 0.950 . S
H898 C924 0.950 . S
H899 C926 0.950 . S
H900 C929 0.950 . S
H901 C930 0.950 . S
H902 C932 0.950 . S
H903 C933 0.950 . S
C904 H886 0.951 . S
C904 C905 1.366 . S
C904 C906 1.388 . S
C905 C904 1.366 . S
C905 C909 1.385 . S
C906 H887 0.951 . S
C906 C904 1.388 . S
C906 C907 1.366 . S
C907 C906 1.366 . S
C907 C908 1.414 . S
C907 C910 1.499 . S
C908 H888 0.950 . S
C908 C907 1.414 . S
C908 C909 1.374 . S
C909 H889 0.950 . S
C909 C905 1.385 . S
C909 C908 1.374 . S
C910 C907 1.499 . S
C910 C911 1.373 . S
C910 C912 1.389 . S
C911 H890 0.950 . S
C911 C910 1.373 . S
C911 C927 1.377 . S
C912 C910 1.389 . S
C912 C913 1.524 . S
C912 C926 1.377 . S
C913 C912 1.524 . S
C913 C914 1.397 . S
C913 C918 1.363 . S
C914 H891 0.950 . S
C914 C913 1.397 . S
C914 C915 1.334 . S
C915 H892 0.950 . S
C915 C914 1.334 . S
C915 C916 1.287 . S
C916 C915 1.287 . S
C916 C917 1.524 . S
C916 H935 0.913 . S
C917 H893 0.950 . S
C917 C916 1.524 . S
C917 C918 1.415 . S
C918 H894 0.950 . S
C918 C913 1.363 . S
C918 C917 1.415 . S
C919 H895 0.951 . S
C919 C920 1.366 . S
C919 C921 1.388 . S
C920 C919 1.366 . S
C920 C924 1.385 . S
C921 H896 0.951 . S
C921 C919 1.388 . S
C921 C922 1.366 . S
C922 C921 1.366 . S
C922 C923 1.414 . S
C922 C925 1.499 . S
C923 H897 0.950 . S
C923 C922 1.414 . S
C923 C924 1.374 . S
C924 H898 0.950 . S
C924 C920 1.385 . S
C924 C923 1.374 . S
C925 C922 1.499 . S
C925 C926 1.373 . S
C925 C927 1.389 . S
C926 H899 0.950 . S
C926 C912 1.377 . S
C926 C925 1.373 . S
C927 C911 1.377 . S
C927 C925 1.389 . S
C927 C928 1.524 . S
C928 C927 1.524 . S
C928 C929 1.397 . S
C928 C933 1.363 . S
C929 H900 0.950 . S
C929 C928 1.397 . S
C929 C930 1.334 . S
C930 H901 0.950 . S
C930 C929 1.334 . S
C930 C931 1.287 . S
C931 C930 1.287 . S
C931 C932 1.524 . S
C931 H934 0.999 . S
C932 H902 0.950 . S
C932 C931 1.524 . S
C932 C933 1.415 . S
C933 H903 0.950 . S
C933 C928 1.363 . S
C933 C932 1.415 . S
H934 C931 0.999 . S
H935 C916 0.913 . S
H936 C954 0.951 . S
H937 C956 0.951 . S
H938 C958 0.950 . S
H939 C959 0.950 . S
H940 C961 0.950 . S
H941 C964 0.950 . S
H942 C965 0.950 . S
H943 C967 0.950 . S
H944 C968 0.950 . S
H945 C969 0.951 . S
H946 C971 0.951 . S
H947 C973 0.950 . S
H948 C974 0.950 . S
H949 C976 0.950 . S
H950 C979 0.950 . S
H951 C980 0.950 . S
H952 C982 0.950 1_545 S
H953 C983 0.950 . S
C954 H936 0.951 . S
C954 C955 1.366 . S
C954 C956 1.388 . S
C955 C954 1.366 . S
C955 C959 1.385 . S
C956 H937 0.951 . S
C956 C954 1.388 . S
C956 C957 1.366 . S
C957 C956 1.366 . S
C957 C958 1.414 . S
C957 C960 1.499 . S
C958 H938 0.950 . S
C958 C957 1.414 . S
C958 C959 1.374 . S
C959 H939 0.950 . S
C959 C955 1.385 . S
C959 C958 1.374 . S
C960 C957 1.499 . S
C960 C961 1.373 . S
C960 C962 1.389 . S
C961 H940 0.950 . S
C961 C960 1.373 . S
C961 C977 1.377 . S
C962 C960 1.389 . S
C962 C963 1.524 . S
C962 C976 1.377 . S
C963 C962 1.524 . S
C963 C964 1.397 . S
C963 C968 1.363 . S
C964 H941 0.950 . S
C964 C963 1.397 . S
C964 C965 1.334 . S
C965 H942 0.950 . S
C965 C964 1.334 . S
C965 C966 1.287 . S
C966 C965 1.287 . S
C966 C967 1.524 . S
C966 H985 0.913 . S
C967 H943 0.950 . S
C967 C966 1.524 . S
C967 C968 1.415 . S
C968 H944 0.950 . S
C968 C963 1.363 . S
C968 C967 1.415 . S
C969 H945 0.951 . S
C969 C970 1.366 . S
C969 C971 1.388 . S
C970 C969 1.366 . S
C970 C974 1.385 . S
C971 H946 0.951 . S
C971 C969 1.388 . S
C971 C972 1.366 . S
C972 C971 1.366 . S
C972 C973 1.414 . S
C972 C975 1.499 . S
C973 H947 0.950 . S
C973 C972 1.414 . S
C973 C974 1.374 . S
C974 H948 0.950 . S
C974 C970 1.385 . S
C974 C973 1.374 . S
C975 C972 1.499 . S
C975 C976 1.373 . S
C975 C977 1.389 . S
C976 H949 0.950 . S
C976 C962 1.377 . S
C976 C975 1.373 . S
C977 C961 1.377 . S
C977 C975 1.389 . S
C977 C978 1.524 . S
C978 C977 1.524 . S
C978 C979 1.397 1_545 S
C978 C983 1.363 . S
C979 H950 0.950 . S
C979 C978 1.397 1_565 S
C979 C980 1.334 . S
C980 H951 0.950 . S
C980 C979 1.334 . S
C980 C981 1.287 . S
C981 C980 1.287 . S
C981 C982 1.524 . S
C981 H984 0.999 . S
C982 H952 0.950 1_565 S
C982 C981 1.524 . S
C982 C983 1.415 1_565 S
C983 H953 0.950 . S
C983 C978 1.363 . S
C983 C982 1.415 1_545 S
H984 C981 0.999 . S
H985 C966 0.913 . S
H986 C1004 0.951 . S
H987 C1006 0.951 . S
H988 C1008 0.950 . S
H989 C1009 0.950 . S
H990 C1011 0.950 . S
H991 C1014 0.950 . S
H992 C1015 0.950 . S
H993 C1017 0.950 . S
H994 C1018 0.950 . S
H995 C1019 0.951 . S
H996 C1021 0.951 . S
H997 C1023 0.950 . S
H998 C1024 0.950 . S
H999 C1026 0.950 . S
H1000 C1029 0.950 . S
H1001 C1030 0.950 . S
H1002 C1032 0.950 . S
H1003 C1033 0.950 1_556 S
C1004 H986 0.951 . S
C1004 C1005 1.366 . S
C1004 C1006 1.388 . S
C1005 C1004 1.366 . S
C1005 C1009 1.385 . S
C1006 H987 0.951 . S
C1006 C1004 1.388 . S
C1006 C1007 1.366 . S
C1007 C1006 1.366 . S
C1007 C1008 1.414 . S
C1007 C1010 1.499 . S
C1008 H988 0.950 . S
C1008 C1007 1.414 . S
C1008 C1009 1.374 . S
C1009 H989 0.950 . S
C1009 C1005 1.385 . S
C1009 C1008 1.374 . S
C1010 C1007 1.499 . S
C1010 C1011 1.373 . S
C1010 C1012 1.389 . S
C1011 H990 0.950 . S
C1011 C1010 1.373 . S
C1011 C1027 1.377 . S
C1012 C1010 1.389 . S
C1012 C1013 1.524 . S
C1012 C1026 1.377 . S
C1013 C1012 1.524 . S
C1013 C1014 1.397 . S
C1013 C1018 1.363 . S
C1014 H991 0.950 . S
C1014 C1013 1.397 . S
C1014 C1015 1.334 . S
C1015 H992 0.950 . S
C1015 C1014 1.334 . S
C1015 C1016 1.287 . S
C1016 C1015 1.287 . S
C1016 C1017 1.524 . S
C1016 H1035 0.913 . S
C1017 H993 0.950 . S
C1017 C1016 1.524 . S
C1017 C1018 1.415 . S
C1018 H994 0.950 . S
C1018 C1013 1.363 . S
C1018 C1017 1.415 . S
C1019 H995 0.951 . S
C1019 C1020 1.366 . S
C1019 C1021 1.388 . S
C1020 C1019 1.366 . S
C1020 C1024 1.385 . S
C1021 H996 0.951 . S
C1021 C1019 1.388 . S
C1021 C1022 1.366 . S
C1022 C1021 1.366 . S
C1022 C1023 1.414 . S
C1022 C1025 1.499 . S
C1023 H997 0.950 . S
C1023 C1022 1.414 . S
C1023 C1024 1.374 . S
C1024 H998 0.950 . S
C1024 C1020 1.385 . S
C1024 C1023 1.374 . S
C1025 C1022 1.499 . S
C1025 C1026 1.373 1_554 S
C1025 C1027 1.389 1_554 S
C1026 H999 0.950 . S
C1026 C1012 1.377 . S
C1026 C1025 1.373 1_556 S
C1027 C1011 1.377 . S
C1027 C1025 1.389 1_556 S
C1027 C1028 1.524 1_556 S
C1028 C1027 1.524 1_554 S
C1028 C1029 1.397 . S
C1028 C1033 1.363 . S
C1029 H1000 0.950 . S
C1029 C1028 1.397 . S
C1029 C1030 1.334 . S
C1030 H1001 0.950 . S
C1030 C1029 1.334 . S
C1030 C1031 1.287 . S
C1031 C1030 1.287 . S
C1031 C1032 1.524 . S
C1031 H1034 0.999 . S
C1032 H1002 0.950 . S
C1032 C1031 1.524 . S
C1032 C1033 1.415 . S
C1033 H1003 0.950 1_554 S
C1033 C1028 1.363 . S
C1033 C1032 1.415 . S
H1034 C1031 0.999 . S
H1035 C1016 0.913 . S
H1036 C1054 0.951 . S
H1037 C1056 0.951 . S
H1038 C1058 0.950 . S
H1039 C1059 0.950 . S
H1040 C1061 0.950 . S
H1041 C1064 0.950 . S
H1042 C1065 0.950 . S
H1043 C1067 0.950 . S
H1044 C1068 0.950 . S
H1045 C1069 0.951 . S
H1046 C1071 0.951 . S
H1047 C1073 0.950 . S
H1048 C1074 0.950 . S
H1049 C1076 0.950 . S
H1050 C1079 0.950 . S
H1051 C1080 0.950 . S
H1052 C1082 0.950 1_655 S
H1053 C1083 0.961 . S
C1054 H1036 0.951 . S
C1054 C1055 1.366 . S
C1054 C1056 1.388 . S
C1055 C1054 1.366 . S
C1055 C1059 1.385 1_455 S
C1056 H1037 0.951 . S
C1056 C1054 1.388 . S
C1056 C1057 1.366 . S
C1057 C1056 1.366 . S
C1057 C1058 1.414 1_455 S
C1057 C1060 1.499 . S
C1058 H1038 0.950 . S
C1058 C1057 1.414 1_655 S
C1058 C1059 1.374 . S
C1059 H1039 0.950 . S
C1059 C1055 1.385 1_655 S
C1059 C1058 1.374 . S
C1060 C1057 1.499 . S
C1060 C1061 1.373 . S
C1060 C1062 1.389 . S
C1061 H1040 0.950 . S
C1061 C1060 1.373 . S
C1061 C1077 1.377 . S
C1062 C1060 1.389 . S
C1062 C1063 1.524 . S
C1062 C1076 1.377 . S
C1063 C1062 1.524 . S
C1063 C1064 1.397 1_455 S
C1063 C1068 1.363 . S
C1064 H1041 0.950 . S
C1064 C1063 1.397 1_655 S
C1064 C1065 1.334 . S
C1065 H1042 0.950 . S
C1065 C1064 1.334 . S
C1065 C1066 1.285 . S
C1066 C1065 1.285 . S
C1066 C1067 1.525 1_655 S
C1066 H1085 0.914 . S
C1067 H1043 0.950 . S
C1067 C1066 1.525 1_455 S
C1067 C1068 1.415 . S
C1068 H1044 0.950 . S
C1068 C1063 1.363 . S
C1068 C1067 1.415 . S
C1069 H1045 0.951 . S
C1069 C1070 1.366 1_655 S
C1069 C1071 1.388 . S
C1070 C1069 1.366 1_455 S
C1070 C1074 1.385 . S
C1071 H1046 0.951 . S
C1071 C1069 1.388 . S
C1071 C1072 1.366 1_655 S
C1072 C1071 1.366 1_455 S
C1072 C1073 1.414 . S
C1072 C1075 1.499 . S
C1073 H1047 0.950 . S
C1073 C1072 1.414 . S
C1073 C1074 1.374 . S
C1074 H1048 0.950 . S
C1074 C1070 1.385 . S
C1074 C1073 1.374 . S
C1075 C1072 1.499 . S
C1075 C1076 1.373 . S
C1075 C1077 1.389 . S
C1076 H1049 0.950 . S
C1076 C1062 1.377 . S
C1076 C1075 1.373 . S
C1077 C1061 1.377 . S
C1077 C1075 1.389 . S
C1077 C1078 1.524 . S
C1078 C1077 1.524 . S
C1078 C1079 1.397 . S
C1078 C1083 1.346 1_455 S
C1079 H1050 0.950 . S
C1079 C1078 1.397 . S
C1079 C1080 1.334 . S
C1080 H1051 0.950 . S
C1080 C1079 1.334 . S
C1080 C1081 1.287 . S
C1081 C1080 1.287 . S
C1081 C1082 1.524 . S
C1081 H1084 0.999 . S
C1082 H1052 0.950 1_455 S
C1082 C1081 1.524 . S
C1082 C1083 1.422 1_455 S
C1083 H1053 0.961 . S
C1083 C1078 1.346 1_655 S
C1083 C1082 1.422 1_655 S
H1084 C1081 0.999 . S
H1085 C1066 0.914 . S
C205 C12 2.994 . S
C220 C185 2.937 . S
C255 C52 2.987 . S
C270 C163 2.935 . S
C305 C111 3.020 . S
C320 C174 2.958 . S
C355 C31 2.984 . S
C370 C179 2.935 . S
C420 C157 2.939 . S
C405 C71 2.991 . S
C470 C168 2.896 . S
C455 C92 2.943 . S
C505 C48 0.519 . S
C520 C141 0.514 . S
C555 C109 0.327 . S
C570 C146 0.230 . S
C605 C29 0.276 . S
C620 C124 0.210 . S
C670 C135 0.207 . S
C655 C69 0.260 . S
C720 C152 0.329 . S
C705 C88 0.288 . S
C755 C8 0.349 . S
C770 C130 0.354 . S
C820 C147 1.268 . S
C805 C17 1.236 . S
C855 C57 1.218 . S
C870 C125 1.245 . S
C905 C97 1.246 . S
C920 C136 1.272 . S
C970 C169 1.715 . S
C955 C42 1.688 . S
C1020 C180 1.735 . S
C1005 C82 1.708 . S
C1055 C2 1.721 . S
C1070 C158 1.739 . S
