# Generated by pormake.
# Topology rtl, (3,6)-cn, num edge types: 1
# Building blocks:
#     Node 0, Type 0, BuildingBlock: MIDCAF_clean_linker_0, # of connection points: 3
#     Node 1, Type 0, BuildingBlock: MIDCAF_clean_linker_0, # of connection points: 3
#     Node 2, Type 0, BuildingBlock: MIDCAF_clean_linker_0, # of connection points: 3
#     Node 3, Type 0, BuildingBlock: MIDCAF_clean_linker_0, # of connection points: 3
#     Node 4, Type 1, BuildingBlock: LEVNOQ01_clean_sbu_1, # of connection points: 6
#     Node 5, Type 1, BuildingBlock: LEVNOQ01_clean_sbu_1, # of connection points: 6
#     Edge 6, Type (0, 1), BuildingBlock: KIFKEQ_clean_linker_1, # of connection points: 2
#     Edge 7, Type (0, 1), BuildingBlock: KIFKEQ_clean_linker_1, # of connection points: 2
#     Edge 8, Type (0, 1), BuildingBlock: KIFKEQ_clean_linker_1, # of connection points: 2
#     Edge 9, Type (0, 1), BuildingBlock: KIFKEQ_clean_linker_1, # of connection points: 2
#     Edge 10, Type (0, 1), BuildingBlock: KIFKEQ_clean_linker_1, # of connection points: 2
#     Edge 11, Type (0, 1), BuildingBlock: KIFKEQ_clean_linker_1, # of connection points: 2
#     Edge 12, Type (0, 1), BuildingBlock: KIFKEQ_clean_linker_1, # of connection points: 2
#     Edge 13, Type (0, 1), BuildingBlock: KIFKEQ_clean_linker_1, # of connection points: 2
#     Edge 14, Type (0, 1), BuildingBlock: KIFKEQ_clean_linker_1, # of connection points: 2
#     Edge 15, Type (0, 1), BuildingBlock: KIFKEQ_clean_linker_1, # of connection points: 2
#     Edge 16, Type (0, 1), BuildingBlock: KIFKEQ_clean_linker_1, # of connection points: 2
#     Edge 17, Type (0, 1), BuildingBlock: KIFKEQ_clean_linker_1, # of connection points: 2
# Relax obj value: 0.027
# Max RMSD: 0.061
# Mean RMSD: 0.047
data_MOF--net-rtl--node1-LEVNOQ01_clean_sbu_1--node2-MIDCAF_clean_linker_0--edge1-KIFKEQ_clean_linker_1
_symmetry_space_group_name_H-M    P1
_symmetry_Int_Tables_number       1
_symmetry_cell_setting            triclinic
loop_
_symmetry_equiv_pos_as_xyz
'x, y, z'
_cell_length_a     38.185569
_cell_length_b     43.338538
_cell_length_c     29.960014
_cell_angle_alpha  90.213962
_cell_angle_beta   97.990328
_cell_angle_gamma 90.372222
loop_
_atom_site_label
_atom_site_type_symbol
_atom_site_fract_x
_atom_site_fract_y
_atom_site_fract_z
_atom_type_partial_charge
C0 C 0.14189 0.90702 0.16261 0.0
C1 C 0.14613 0.89567 0.20696 0.0
C2 C 0.16643 0.86898 0.21689 0.0
C3 C 0.18117 0.85349 0.18308 0.0
H4 H 0.24364 0.77958 0.16134 0.0
H5 H 0.28779 0.73947 0.18073 0.0
H6 H 0.30934 0.73793 0.04308 0.0
H7 H 0.2653 0.77785 0.02345 0.0
H8 H 0.19368 0.79956 0.94977 0.0
H9 H 0.16724 0.8087 0.87207 0.0
H10 H 0.1221 0.89354 0.91355 0.0
H11 H 0.14743 0.88399 0.99098 0.0
H12 H 0.15198 0.90047 0.09477 0.0
H13 H 0.12704 0.92786 0.1539 0.0
H14 H 0.16989 0.8593 0.25047 0.0
H15 H 0.19589 0.83259 0.1918 0.0
N16 N 0.21284 0.82352 0.11213 0.0
N17 N 0.21168 0.81243 0.03521 0.0
N18 N 0.17648 0.85204 0.0581 0.0
C19 C 0.22451 0.80657 0.07903 0.0
C20 C 0.18755 0.83512 0.02449 0.0
C21 C 0.18897 0.84638 0.10197 0.0
C22 C 0.25094 0.78198 0.09079 0.0
C23 C 0.25782 0.77074 0.13518 0.0
C24 C 0.28297 0.74769 0.14634 0.0
C25 C 0.30212 0.73579 0.11352 0.0
C26 C 0.29527 0.747 0.06921 0.0
C27 C 0.26984 0.76972 0.0579 0.0
C28 C 0.17262 0.84096 0.97681 0.0
C29 C 0.17809 0.82016 0.9423 0.0
C30 C 0.16298 0.82544 0.89766 0.0
C31 C 0.14219 0.85172 0.88643 0.0
C32 C 0.13715 0.87264 0.92095 0.0
C33 C 0.152 0.86728 0.96548 0.0
C34 C 0.17567 0.86415 0.1384 0.0
C35 C 0.15632 0.89136 0.12869 0.0
C36 C 0.65844 0.60533 0.45723 0.0
C37 C 0.67269 0.61411 0.41835 0.0
C38 C 0.70395 0.63185 0.42322 0.0
C39 C 0.72062 0.64057 0.46606 0.0
H40 H 0.79469 0.70199 0.53189 0.0
H41 H 0.83357 0.74693 0.54087 0.0
H42 H 0.836 0.74286 0.68525 0.0
H43 H 0.79673 0.69801 0.67645 0.0
H44 H 0.76694 0.63355 0.71594 0.0
H45 H 0.74802 0.6106 0.78276 0.0
H46 H 0.65291 0.57654 0.70193 0.0
H47 H 0.67251 0.59836 0.63502 0.0
H48 H 0.66366 0.60629 0.52922 0.0
H49 H 0.63462 0.59135 0.45462 0.0
H50 H 0.71545 0.63908 0.39385 0.0
H51 H 0.74472 0.65416 0.46859 0.0
N52 N 0.75 0.66235 0.55591 0.0
N53 N 0.75692 0.65584 0.63434 0.0
N54 N 0.71563 0.62561 0.58777 0.0
C55 C 0.76618 0.67055 0.59767 0.0
C56 C 0.73178 0.63327 0.6297 0.0
C57 C 0.72468 0.6399 0.55066 0.0
C58 C 0.79225 0.69639 0.60338 0.0
C59 C 0.80368 0.71043 0.56564 0.0
C60 C 0.82626 0.73611 0.5708 0.0
C61 C 0.83789 0.74852 0.6138 0.0
C62 C 0.82725 0.73403 0.65165 0.0
C63 C 0.80483 0.70821 0.64653 0.0
C64 C 0.72116 0.618 0.67007 0.0
C65 C 0.74211 0.62095 0.71237 0.0
C66 C 0.73117 0.60786 0.75079 0.0
C67 C 0.69879 0.59177 0.74803 0.0
C68 C 0.67828 0.58825 0.70546 0.0
C69 C 0.68941 0.60103 0.66698 0.0
C70 C 0.70667 0.63136 0.50505 0.0
C71 C 0.6753 0.6137 0.50004 0.0
C72 C 0.87824 0.12875 0.92518 0.0
C73 C 0.86093 0.13134 0.88073 0.0
C74 C 0.83179 0.15121 0.8723 0.0
C75 C 0.82078 0.16854 0.90721 0.0
H76 H 0.76687 0.24739 0.92887 0.0
H77 H 0.72624 0.29007 0.9109 0.0
H78 H 0.7322 0.31156 0.05266 0.0
H79 H 0.77324 0.26931 0.07077 0.0
H80 H 0.8307 0.23075 0.14296 0.0
H81 H 0.84853 0.21455 0.2212 0.0
H82 H 0.8717 0.12362 0.1746 0.0
H83 H 0.85448 0.13955 0.09694 0.0
H84 H 0.88131 0.14346 0.99378 0.0
H85 H 0.9012 0.11419 0.93296 0.0
H86 H 0.81743 0.15344 0.83868 0.0
H87 H 0.79841 0.18378 0.89944 0.0
N88 N 0.80649 0.21005 0.97887 0.0
N89 N 0.80852 0.22047 0.05614 0.0
N90 N 0.83881 0.17798 0.03203 0.0
C91 C 0.79691 0.22791 0.01248 0.0
C92 C 0.82943 0.19544 0.06615 0.0
C93 C 0.82753 0.18514 0.98835 0.0
C94 C 0.77332 0.25473 1.00139 0.0
C95 C 0.75978 0.26132 0.95629 0.0
C96 C 0.73636 0.28576 0.94589 0.0
C97 C 0.72601 0.30427 0.98027 0.0
C98 C 0.74007 0.29807 0.02526 0.0
C99 C 0.76342 0.27362 0.03569 0.0
C100 C 0.84104 0.18644 0.11362 0.0
C101 C 0.83973 0.20734 0.14943 0.0
C102 C 0.8501 0.19819 0.19415 0.0
C103 C 0.8613 0.16783 0.20381 0.0
C104 C 0.86291 0.1471 0.16806 0.0
C105 C 0.85315 0.15632 0.12353 0.0
C106 C 0.8384 0.16614 0.95149 0.0
C107 C 0.86698 0.14576 0.96014 0.0
C108 C 0.32208 0.41568 0.61879 0.0
C109 C 0.31275 0.40279 0.65853 0.0
C110 C 0.2865 0.37966 0.65495 0.0
C111 C 0.26938 0.37023 0.61261 0.0
H112 H 0.19119 0.31151 0.54898 0.0
H113 H 0.15349 0.26577 0.54141 0.0
H114 H 0.15024 0.2684 0.39685 0.0
H115 H 0.18823 0.3141 0.40421 0.0
H116 H 0.21391 0.38021 0.36309 0.0
H117 H 0.23132 0.40336 0.29546 0.0
H118 H 0.32614 0.43975 0.3743 0.0
H119 H 0.308 0.41781 0.44189 0.0
H120 H 0.31287 0.41707 0.54693 0.0
H121 H 0.34264 0.43314 0.62023 0.0
H122 H 0.2785 0.36942 0.6849 0.0
H123 H 0.24891 0.35269 0.61113 0.0
N124 N 0.2351 0.35139 0.52343 0.0
N125 N 0.22607 0.35803 0.44495 0.0
N126 N 0.26696 0.38934 0.49024 0.0
C127 C 0.2183 0.34292 0.48208 0.0
C128 C 0.2503 0.38133 0.44875 0.0
C129 C 0.25949 0.37461 0.52781 0.0
C130 C 0.19306 0.31647 0.47726 0.0
C131 C 0.18227 0.30257 0.51549 0.0
C132 C 0.16036 0.27644 0.51114 0.0
C133 C 0.14886 0.26344 0.4685 0.0
C134 C 0.15889 0.27774 0.43018 0.0
C135 C 0.18059 0.30402 0.43447 0.0
C136 C 0.25966 0.39692 0.40794 0.0
C137 C 0.23831 0.39341 0.36603 0.0
C138 C 0.24838 0.40662 0.32715 0.0
C139 C 0.28029 0.42336 0.32911 0.0
C140 C 0.30109 0.42754 0.37134 0.0
C141 C 0.29081 0.41467 0.41024 0.0
C142 C 0.27817 0.38371 0.57289 0.0
C143 C 0.30501 0.40634 0.57661 0.0
O144 O 0.02326 0.03952 0.6538 0.0
Mg145 Mg 0.05916 0.02785 0.60819 0.0
O146 O 0.97562 0.02711 0.60593 0.0
Mg147 Mg -0.00358 0.00539 0.54379 0.0
O148 O 0.04133 0.04231 0.54439 0.0
O149 O 0.08967 0.06165 0.58647 0.0
O150 O 0.01732 0.9839 0.48138 0.0
O151 O 0.9647 0.04362 0.49838 0.0
Mg152 Mg 0.93397 0.98176 0.47907 0.0
O153 O 0.95124 0.96852 0.54355 0.0
O154 O 0.97019 0.96809 0.4352 0.0
O155 O 0.9118 0.02565 0.47198 0.0
O156 O 0.90286 0.94891 0.50179 0.0
C157 C 0.05977 0.96239 0.60853 0.0
C158 C 0.98986 0.03771 0.64402 0.0
C159 C 0.06787 0.06161 0.54947 0.0
C160 C 0.00348 0.97145 0.44434 0.0
C161 C 0.9335 0.04787 0.47777 0.0
C162 C 0.92464 0.94926 0.5388 0.0
O163 O 0.08197 0.98425 0.61261 0.0
O164 O 0.0282 0.9671 0.58938 0.0
O165 O 0.54754 0.47944 0.14748 0.0
Mg166 Mg 0.51525 0.44961 0.10324 0.0
O167 O 0.52937 0.52073 0.10773 0.0
Mg168 Mg 0.49285 0.50443 0.04192 0.0
O169 O 0.52156 0.45741 0.03759 0.0
O170 O 0.53853 0.41407 0.07492 0.0
O171 O 0.45586 0.48798 0.97594 0.0
O172 O 0.53694 0.52294 1.0001 0.0
Mg173 Mg 0.46664 0.56004 0.98043 0.0
O174 O 0.46525 0.55143 0.04684 0.0
O175 O 0.43322 0.52939 0.9398 0.0
O176 O 0.5183 0.56639 0.96629 0.0
O177 O 0.44436 0.59465 0.01261 0.0
C178 C 0.44059 0.46292 0.10509 0.0
C179 C 0.54762 0.50844 0.14204 0.0
C180 C 0.53682 0.4306 0.03895 0.0
C181 C 0.43517 0.50032 0.94373 0.0
C182 C 0.54219 0.54646 0.9761 0.0
C183 C 0.44985 0.57795 0.04841 0.0
O184 O 0.46323 0.44195 0.1143 0.0
O185 O 0.44782 0.48671 0.08287 0.0
H186 H 0.09334 0.2467 0.51229 0.0
H187 H 0.15899 0.21318 0.41649 0.0
H188 H 0.06698 0.19545 0.51542 0.0
H189 H 0.13211 0.16205 0.41896 0.0
H190 H 0.12801 0.07656 0.51706 0.0
H191 H 0.14099 0.12534 0.48274 0.0
H192 H 0.03141 0.15153 0.47625 0.0
H193 H 0.01854 0.10214 0.51073 0.0
C194 C 0.10163 0.22852 0.49125 0.0
C195 C 0.12861 0.23389 0.46466 0.0
C196 C 0.08619 0.19925 0.49257 0.0
C197 C 0.09757 0.17465 0.46756 0.0
C198 C 0.12293 0.18052 0.43878 0.0
C199 C 0.13821 0.20985 0.43723 0.0
C200 C 0.10644 0.09221 0.5065 0.0
C201 C 0.07231 0.08567 0.51623 0.0
C202 C 0.11382 0.12018 0.4868 0.0
C203 C 0.08729 0.14246 0.47719 0.0
C204 C 0.05242 0.13487 0.4836 0.0
C205 C 0.04493 0.10651 0.50276 0.0
H206 H 0.29583 0.68222 0.16017 0.0
H207 H 0.3689 0.73455 0.09208 0.0
H208 H 0.3374 0.63907 0.16881 0.0
H209 H 0.4099 0.69174 0.09984 0.0
H210 H 0.48198 0.61936 0.10823 0.0
H211 H 0.44937 0.65737 0.14612 0.0
H212 H 0.35378 0.60347 0.11153 0.0
H213 H 0.38685 0.56526 0.07512 0.0
C214 C 0.3211 0.68472 0.14798 0.0
C215 C 0.32899 0.71148 0.12482 0.0
C216 C 0.34483 0.66004 0.15283 0.0
C217 C 0.37699 0.66187 0.13504 0.0
C218 C 0.3857 0.68957 0.11464 0.0
C219 C 0.36196 0.71401 0.10951 0.0
C220 C 0.45452 0.61473 0.11147 0.0
C221 C 0.43677 0.58959 0.08885 0.0
C222 C 0.43569 0.6367 0.13253 0.0
C223 C 0.39875 0.63399 0.13043 0.0
C224 C 0.38216 0.60639 0.1137 0.0
C225 C 0.40113 0.58431 0.09299 0.0
H226 H 0.82957 0.79826 0.66778 0.0
H227 H 0.89366 0.76483 0.57014 0.0
H228 H 0.85816 0.84877 0.66723 0.0
H229 H 0.92158 0.81551 0.56873 0.0
H230 H 0.97289 0.90706 0.57477 0.0
H231 H 0.95869 0.85762 0.60796 0.0
H232 H 0.85075 0.8873 0.60674 0.0
H233 H 0.86513 0.93623 0.57396 0.0
C234 C 0.85034 0.80146 0.64698 0.0
C235 C 0.85902 0.77763 0.61855 0.0
C236 C 0.86659 0.83046 0.64651 0.0
C237 C 0.89199 0.83626 0.61774 0.0
C238 C 0.90237 0.8118 0.59161 0.0
C239 C 0.88601 0.78285 0.59193 0.0
C240 C 0.94668 0.90346 0.58384 0.0
C241 C 0.92013 0.92539 0.5723 0.0
C242 C 0.93838 0.87504 0.60216 0.0
C243 C 0.90347 0.86837 0.60948 0.0
C244 C 0.87793 0.89168 0.60195 0.0
C245 C 0.88612 0.91978 0.58319 0.0
H246 H 0.66515 0.3019 0.91991 0.0
H247 H 0.72577 0.36207 0.01728 0.0
H248 H 0.61664 0.33869 0.91202 0.0
H249 H 0.67689 0.39817 0.0108 0.0
H250 H 0.5891 0.46022 0.00318 0.0
H251 H 0.63597 0.43428 0.9696 0.0
H252 H 0.57648 0.34886 0.96569 0.0
H253 H 0.52996 0.37501 0.99823 0.0
C254 C 0.66849 0.3233 0.93885 0.0
C255 C 0.69908 0.3288 0.96989 0.0
C256 C 0.64058 0.34432 0.93448 0.0
C257 C 0.64265 0.37125 0.96109 0.0
C258 C 0.67439 0.37784 0.98944 0.0
C259 C 0.70226 0.35687 0.99376 0.0
C260 C 0.58525 0.43641 0.99244 0.0
C261 C 0.55605 0.41955 1.00297 0.0
C262 C 0.6123 0.42138 0.97397 0.0
C263 C 0.61036 0.38932 0.96588 0.0
C264 C 0.57893 0.37353 0.97125 0.0
C265 C 0.55215 0.38849 0.9899 0.0
H266 H 0.17003 0.90388 0.29722 0.0
H267 H 0.07984 0.92043 0.19618 0.0
H268 H 0.13674 0.92288 0.35541 0.0
H269 H 0.04755 0.94104 0.25369 0.0
H270 H 0.98395 0.9361 0.36962 0.0
H271 H 0.01997 0.91983 0.31338 0.0
H272 H 0.11023 0.96758 0.38594 0.0
H273 H 0.07417 0.98325 0.44338 0.0
C274 C 0.14325 0.91181 0.28732 0.0
C275 C 0.12756 0.91034 0.24198 0.0
C276 C 0.12432 0.92305 0.32064 0.0
C277 C 0.08932 0.93317 0.30931 0.0
C278 C 0.07421 0.93286 0.26376 0.0
C279 C 0.09298 0.92145 0.23059 0.0
C280 C 0.01147 0.94317 0.37372 0.0
C281 C 0.02612 0.96109 0.41095 0.0
C282 C 0.03211 0.93401 0.34121 0.0
C283 C 0.06791 0.94272 0.34477 0.0
C284 C 0.08279 0.96032 0.38232 0.0
C285 C 0.06211 0.96937 0.41515 0.0
H286 H 0.70593 0.6193 0.83147 0.0
H287 H 0.66062 0.53886 0.75894 0.0
H288 H 0.67785 0.60458 0.89615 0.0
H289 H 0.63057 0.52529 0.82273 0.0
H290 H 0.58458 0.50149 0.94773 0.0
H291 H 0.63117 0.50893 0.90003 0.0
H292 H 0.61804 0.60771 0.90842 0.0
H293 H 0.57285 0.60017 0.95662 0.0
C294 C 0.69048 0.59818 0.82943 0.0
C295 C 0.68521 0.58056 0.78949 0.0
C296 C 0.67399 0.58992 0.8665 0.0
C297 C 0.65141 0.56403 0.8645 0.0
C298 C 0.64786 0.54532 0.82566 0.0
C299 C 0.66465 0.55342 0.78869 0.0
C300 C 0.59271 0.52471 0.94064 0.0
C301 C 0.5751 0.55023 0.95582 0.0
C302 C 0.61902 0.52902 0.91282 0.0
C303 C 0.62824 0.55893 0.89999 0.0
C304 C 0.61212 0.58436 0.91787 0.0
C305 C 0.58593 0.58005 0.94535 0.0
H306 H 0.90777 0.19358 0.27221 0.0
H307 H 0.83489 0.11751 0.24114 0.0
H308 H 0.92533 0.17251 0.34816 0.0
H309 H 0.8521 0.09664 0.3162 0.0
H310 H 0.97695 0.08718 0.43916 0.0
H311 H 0.95803 0.12351 0.37834 0.0
H312 H 0.84916 0.10847 0.39711 0.0
H313 H 0.86799 0.07215 0.45741 0.0
C314 C 0.8952 0.17265 0.28191 0.0
C315 C 0.87012 0.15704 0.25089 0.0
C316 C 0.90532 0.16056 0.32515 0.0
C317 C 0.88992 0.13306 0.33825 0.0
C318 C 0.86406 0.11813 0.30748 0.0
C319 C 0.85441 0.1299 0.26433 0.0
C320 C 0.94914 0.09269 0.43161 0.0
C321 C 0.9239 0.07657 0.45262 0.0
C322 C 0.93827 0.1134 0.39662 0.0
C323 C 0.90205 0.11824 0.3823 0.0
C324 C 0.8772 0.10468 0.40678 0.0
C325 C 0.88801 0.08402 0.44149 0.0
H326 H 0.33562 0.3698 0.73551 0.0
H327 H 0.32749 0.46256 0.68302 0.0
H328 H 0.36276 0.39011 0.80887 0.0
H329 H 0.35547 0.48252 0.75501 0.0
H330 H 0.37259 0.51567 0.89547 0.0
H331 H 0.3411 0.48935 0.83013 0.0
H332 H 0.41792 0.41607 0.84595 0.0
H333 H 0.4492 0.44232 0.91284 0.0
C334 C 0.33956 0.39447 0.73962 0.0
C335 C 0.32944 0.41455 0.70332 0.0
C336 C 0.35538 0.40605 0.78148 0.0
C337 C 0.36105 0.43795 0.78796 0.0
C338 C 0.35098 0.45787 0.75155 0.0
C339 C 0.33533 0.44637 0.70995 0.0
C340 C 0.38257 0.49372 0.88545 0.0
C341 C 0.41367 0.48128 0.90888 0.0
C342 C 0.3646 0.47871 0.8478 0.0
C343 C 0.37746 0.45099 0.83209 0.0
C344 C 0.40735 0.43742 0.85716 0.0
C345 C 0.42527 0.45243 0.89541 0.0
H346 H 0.70447 0.58915 0.35049 0.0
H347 H 0.60235 0.61515 0.38425 0.0
H348 H 0.676 0.56755 0.27894 0.0
H349 H 0.57386 0.59335 0.31274 0.0
H350 H 0.53732 0.56917 0.1633 0.0
H351 H 0.56894 0.59882 0.22662 0.0
H352 H 0.63644 0.52074 0.26291 0.0
H353 H 0.60495 0.49122 0.20044 0.0
C354 C 0.676 0.5907 0.3423 0.0
C355 C 0.65562 0.60366 0.37312 0.0
C356 C 0.6597 0.57818 0.30147 0.0
C357 C 0.6227 0.57866 0.29033 0.0
C358 C 0.60243 0.59284 0.32025 0.0
C359 C 0.6187 0.60504 0.36135 0.0
C360 C 0.55923 0.55856 0.1845 0.0
C361 C 0.56855 0.52782 0.17704 0.0
C362 C 0.57716 0.57545 0.22082 0.0
C363 C 0.60516 0.56208 0.24968 0.0
C364 C 0.61523 0.53178 0.24104 0.0
C365 C 0.59701 0.5148 0.20539 0.0
H366 H 0.86391 0.15127 0.79442 0.0
H367 H 0.88856 0.07294 0.88198 0.0
H368 H 0.8908 0.12534 0.73545 0.0
H369 H 0.91667 0.04775 0.82339 0.0
H370 H 0.00872 0.04364 0.7346 0.0
H371 H 0.97313 0.06323 0.78987 0.0
H372 H 0.88498 0.07573 0.68474 0.0
H373 H 0.92054 0.05566 0.62908 0.0
C374 C 0.87444 0.12834 0.80094 0.0
C375 C 0.87433 0.11438 0.84328 0.0
C376 C 0.88993 0.11356 0.76711 0.0
C377 C 0.90599 0.08469 0.77507 0.0
C378 C 0.90482 0.0702 0.81666 0.0
C379 C 0.88892 0.08476 0.85026 0.0
C380 C 0.98168 0.05037 0.72324 0.0
C381 C 0.96746 0.04825 0.67747 0.0
C382 C 0.96126 0.06136 0.75495 0.0
C383 C 0.92634 0.07091 0.74152 0.0
C384 C 0.9119 0.06856 0.69586 0.0
C385 C 0.93218 0.05701 0.66413 0.0
H386 H 0.27295 0.39496 0.24627 0.0
H387 H 0.31759 0.47652 0.31647 0.0
H388 H 0.30151 0.4086 0.18156 0.0
H389 H 0.34821 0.48896 0.25274 0.0
H390 H 0.39754 0.50922 0.12874 0.0
H391 H 0.3495 0.50351 0.17478 0.0
H392 H 0.36181 0.40445 0.17206 0.0
H393 H 0.40856 0.41016 0.12592 0.0
C394 C 0.28828 0.41613 0.24776 0.0
C395 C 0.29339 0.4343 0.28717 0.0
C396 C 0.30506 0.42377 0.21068 0.0
C397 C 0.3278 0.44953 0.21219 0.0
C398 C 0.33088 0.46897 0.25025 0.0
C399 C 0.31375 0.46151 0.2872 0.0
C400 C 0.38911 0.48626 0.13696 0.0
C401 C 0.40701 0.46015 0.12417 0.0
C402 C 0.36187 0.48298 0.16366 0.0
C403 C 0.35192 0.45352 0.17752 0.0
C404 C 0.36829 0.42747 0.16177 0.0
C405 C 0.39542 0.43076 0.13551 0.0
H406 H 0.17132 0.84131 0.8088 0.0
H407 H 0.07726 0.8762 0.85614 0.0
H408 H 0.1482 0.85689 0.73242 0.0
H409 H 0.05529 0.89358 0.78066 0.0
H410 H 0.01562 0.92149 0.64331 0.0
H411 H 0.03285 0.88477 0.70391 0.0
H412 H 0.14293 0.90498 0.69645 0.0
H413 H 0.12567 0.94024 0.635 0.0
C414 C 0.1455 0.85192 0.80292 0.0
C415 C 0.12649 0.85799 0.83894 0.0
C416 C 0.13237 0.86115 0.75908 0.0
C417 C 0.10004 0.87693 0.7502 0.0
C418 C 0.08011 0.88131 0.78582 0.0
C419 C 0.09308 0.87183 0.82949 0.0
C420 C 0.04345 0.917 0.6533 0.0
C421 C 0.06927 0.93402 0.63471 0.0
C422 C 0.05339 0.89631 0.68859 0.0
C423 C 0.08932 0.89239 0.70601 0.0
C424 C 0.11503 0.90716 0.68412 0.0
C425 C 0.10512 0.92763 0.64887 0.0
loop_
_geom_bond_atom_site_label_1
_geom_bond_atom_site_label_2
_geom_bond_distance
_geom_bond_site_symmetry_2
_ccdc_geom_bond_type
C0 C1 1.384 . S
C0 H13 0.947 . S
C0 C35 1.382 . S
C1 C0 1.384 . S
C1 C2 1.378 . S
C2 C1 1.378 . S
C2 C3 1.378 . S
C2 H14 0.952 . S
C3 C2 1.378 . S
C3 H15 0.950 . S
C3 C34 1.383 . S
H4 C23 0.947 . S
H5 C24 0.946 . S
H6 C26 0.953 . S
H7 C27 0.945 . S
H8 C29 0.952 . S
H9 C30 0.949 . S
H10 C32 0.950 . S
H11 C33 0.948 . S
H12 C35 0.951 . S
H13 C0 0.947 . S
H14 C2 0.952 . S
H15 C3 0.950 . S
N16 C19 1.382 . S
N16 C21 1.363 . S
N17 C19 1.371 . S
N17 C20 1.372 . S
N18 C20 1.361 . S
N18 C21 1.377 . S
C19 N16 1.382 . S
C19 N17 1.371 . S
C19 C22 1.480 . S
C20 N17 1.372 . S
C20 N18 1.361 . S
C20 C28 1.457 . S
C21 N16 1.363 . S
C21 N18 1.377 . S
C21 C34 1.479 . S
C22 C19 1.480 . S
C22 C23 1.383 . S
C22 C27 1.385 . S
C23 H4 0.947 . S
C23 C22 1.383 . S
C23 C24 1.388 . S
C24 H5 0.946 . S
C24 C23 1.388 . S
C24 C25 1.384 . S
C25 C24 1.384 . S
C25 C26 1.377 . S
C26 H6 0.953 . S
C26 C25 1.377 . S
C26 C27 1.369 . S
C27 H7 0.945 . S
C27 C22 1.385 . S
C27 C26 1.369 . S
C28 C20 1.457 . S
C28 C29 1.372 1_554 S
C28 C33 1.364 . S
C29 H8 0.952 . S
C29 C28 1.372 1_556 S
C29 C30 1.389 . S
C30 H9 0.949 . S
C30 C29 1.389 . S
C30 C31 1.387 . S
C31 C30 1.387 . S
C31 C32 1.372 . S
C32 H10 0.950 . S
C32 C31 1.372 . S
C32 C33 1.379 1_556 S
C33 H11 0.948 . S
C33 C28 1.364 . S
C33 C32 1.379 1_554 S
C34 C3 1.383 . S
C34 C21 1.479 . S
C34 C35 1.398 . S
C35 C0 1.382 . S
C35 H12 0.951 . S
C35 C34 1.398 . S
C36 C37 1.384 . S
C36 H49 0.947 . S
C36 C71 1.382 . S
C37 C36 1.384 . S
C37 C38 1.378 . S
C38 C37 1.378 . S
C38 C39 1.378 . S
C38 H50 0.952 . S
C39 C38 1.378 . S
C39 H51 0.950 . S
C39 C70 1.383 . S
H40 C59 0.947 . S
H41 C60 0.946 . S
H42 C62 0.953 . S
H43 C63 0.945 . S
H44 C65 0.952 . S
H45 C66 0.949 . S
H46 C68 0.950 . S
H47 C69 0.948 . S
H48 C71 0.951 . S
H49 C36 0.947 . S
H50 C38 0.952 . S
H51 C39 0.950 . S
N52 C55 1.382 . S
N52 C57 1.363 . S
N53 C55 1.371 . S
N53 C56 1.372 . S
N54 C56 1.361 . S
N54 C57 1.377 . S
C55 N52 1.382 . S
C55 N53 1.371 . S
C55 C58 1.480 . S
C56 N53 1.372 . S
C56 N54 1.361 . S
C56 C64 1.457 . S
C57 N52 1.363 . S
C57 N54 1.377 . S
C57 C70 1.479 . S
C58 C55 1.480 . S
C58 C59 1.383 . S
C58 C63 1.385 . S
C59 H40 0.947 . S
C59 C58 1.383 . S
C59 C60 1.388 . S
C60 H41 0.946 . S
C60 C59 1.388 . S
C60 C61 1.384 . S
C61 C60 1.384 . S
C61 C62 1.377 . S
C62 H42 0.953 . S
C62 C61 1.377 . S
C62 C63 1.369 . S
C63 H43 0.945 . S
C63 C58 1.385 . S
C63 C62 1.369 . S
C64 C56 1.457 . S
C64 C65 1.372 . S
C64 C69 1.364 . S
C65 H44 0.952 . S
C65 C64 1.372 . S
C65 C66 1.389 . S
C66 H45 0.949 . S
C66 C65 1.389 . S
C66 C67 1.387 . S
C67 C66 1.387 . S
C67 C68 1.372 . S
C68 H46 0.950 . S
C68 C67 1.372 . S
C68 C69 1.379 . S
C69 H47 0.948 . S
C69 C64 1.364 . S
C69 C68 1.379 . S
C70 C39 1.383 . S
C70 C57 1.479 . S
C70 C71 1.398 . S
C71 C36 1.382 . S
C71 H48 0.951 . S
C71 C70 1.398 . S
C72 C73 1.384 . S
C72 H85 0.947 . S
C72 C107 1.382 . S
C73 C72 1.384 . S
C73 C74 1.378 . S
C74 C73 1.378 . S
C74 C75 1.378 . S
C74 H86 0.952 . S
C75 C74 1.378 . S
C75 H87 0.950 . S
C75 C106 1.383 . S
H76 C95 0.947 . S
H77 C96 0.946 . S
H78 C98 0.953 . S
H79 C99 0.945 . S
H80 C101 0.952 . S
H81 C102 0.949 . S
H82 C104 0.950 . S
H83 C105 0.948 . S
H84 C107 0.951 . S
H85 C72 0.947 . S
H86 C74 0.952 . S
H87 C75 0.950 . S
N88 C91 1.362 1_556 S
N88 C93 1.363 . S
N89 C91 1.391 . S
N89 C92 1.372 . S
N90 C92 1.361 . S
N90 C93 1.377 1_554 S
C91 N88 1.362 1_554 S
C91 N89 1.391 . S
C91 C94 1.482 1_554 S
C92 N89 1.372 . S
C92 N90 1.361 . S
C92 C100 1.457 . S
C93 N88 1.363 . S
C93 N90 1.377 1_556 S
C93 C106 1.479 . S
C94 C91 1.482 1_556 S
C94 C95 1.389 . S
C94 C99 1.379 1_556 S
C95 H76 0.947 . S
C95 C94 1.389 . S
C95 C96 1.388 . S
C96 H77 0.946 . S
C96 C95 1.388 . S
C96 C97 1.384 . S
C97 C96 1.384 . S
C97 C98 1.377 1_556 S
C98 H78 0.953 . S
C98 C97 1.377 1_554 S
C98 C99 1.369 . S
C99 H79 0.945 . S
C99 C94 1.379 1_554 S
C99 C98 1.369 . S
C100 C92 1.457 . S
C100 C101 1.372 . S
C100 C105 1.364 . S
C101 H80 0.952 . S
C101 C100 1.372 . S
C101 C102 1.389 . S
C102 H81 0.949 . S
C102 C101 1.389 . S
C102 C103 1.387 . S
C103 C102 1.387 . S
C103 C104 1.372 . S
C104 H82 0.950 . S
C104 C103 1.372 . S
C104 C105 1.379 . S
C105 H83 0.948 . S
C105 C100 1.364 . S
C105 C104 1.379 . S
C106 C75 1.383 . S
C106 C93 1.479 . S
C106 C107 1.398 . S
C107 C72 1.382 . S
C107 H84 0.951 . S
C107 C106 1.398 . S
C108 C109 1.384 . S
C108 H121 0.947 . S
C108 C143 1.382 . S
C109 C108 1.384 . S
C109 C110 1.378 . S
C110 C109 1.378 . S
C110 C111 1.378 . S
C110 H122 0.952 . S
C111 C110 1.378 . S
C111 H123 0.950 . S
C111 C142 1.383 . S
H112 C131 0.947 . S
H113 C132 0.946 . S
H114 C134 0.953 . S
H115 C135 0.945 . S
H116 C137 0.952 . S
H117 C138 0.949 . S
H118 C140 0.950 . S
H119 C141 0.948 . S
H120 C143 0.951 . S
H121 C108 0.947 . S
H122 C110 0.952 . S
H123 C111 0.950 . S
N124 C127 1.382 . S
N124 C129 1.363 . S
N125 C127 1.371 . S
N125 C128 1.372 . S
N126 C128 1.361 . S
N126 C129 1.377 . S
C127 N124 1.382 . S
C127 N125 1.371 . S
C127 C130 1.480 . S
C128 N125 1.372 . S
C128 N126 1.361 . S
C128 C136 1.457 . S
C129 N124 1.363 . S
C129 N126 1.377 . S
C129 C142 1.479 . S
C130 C127 1.480 . S
C130 C131 1.383 . S
C130 C135 1.385 . S
C131 H112 0.947 . S
C131 C130 1.383 . S
C131 C132 1.388 . S
C132 H113 0.946 . S
C132 C131 1.388 . S
C132 C133 1.384 . S
C133 C132 1.384 . S
C133 C134 1.377 . S
C134 H114 0.953 . S
C134 C133 1.377 . S
C134 C135 1.369 . S
C135 H115 0.945 . S
C135 C130 1.385 . S
C135 C134 1.369 . S
C136 C128 1.457 . S
C136 C137 1.372 . S
C136 C141 1.364 . S
C137 H116 0.952 . S
C137 C136 1.372 . S
C137 C138 1.389 . S
C138 H117 0.949 . S
C138 C137 1.389 . S
C138 C139 1.387 . S
C139 C138 1.387 . S
C139 C140 1.372 . S
C140 H118 0.950 . S
C140 C139 1.372 . S
C140 C141 1.379 . S
C141 H119 0.948 . S
C141 C136 1.364 . S
C141 C140 1.379 . S
C142 C111 1.383 . S
C142 C129 1.479 . S
C142 C143 1.398 . S
C143 C108 1.382 . S
C143 H120 0.951 . S
C143 C142 1.398 . S
O144 Mg145 1.990 1_655 S
O144 C158 1.253 . S
Mg145 O144 1.990 1_455 S
Mg145 O148 2.180 . S
Mg145 O149 2.117 . S
Mg145 O163 2.030 . S
O146 Mg147 2.072 1_655 S
O146 C158 1.260 . S
Mg147 O146 2.072 1_455 S
Mg147 O148 2.099 . S
Mg147 O150 2.079 1_545 S
Mg147 O151 2.072 1_455 S
Mg147 O153 2.099 1_445 S
Mg147 O164 2.079 1_545 S
O148 Mg145 2.180 . S
O148 Mg147 2.099 . S
O148 C159 1.279 . S
O149 Mg145 2.117 . S
O149 C159 1.250 . S
O150 Mg147 2.079 1_565 S
O150 C160 1.264 . S
O151 Mg147 2.072 1_655 S
O151 C161 1.260 . S
Mg152 O153 2.180 . S
Mg152 O154 2.030 1_655 S
Mg152 O155 1.990 1_565 S
Mg152 O156 2.117 . S
O153 Mg147 2.099 1_665 S
O153 Mg152 2.180 . S
O153 C162 1.279 . S
O154 Mg152 2.030 1_455 S
O154 C160 1.248 . S
O155 Mg152 1.990 1_545 S
O155 C161 1.253 . S
O156 Mg152 2.117 . S
O156 C162 1.250 . S
C157 O163 1.248 1_565 S
C157 O164 1.264 . S
C158 O144 1.253 . S
C158 O146 1.260 . S
C159 O148 1.279 . S
C159 O149 1.250 . S
C160 O150 1.264 . S
C160 O154 1.248 . S
C161 O151 1.260 . S
C161 O155 1.253 . S
C162 O153 1.279 . S
C162 O156 1.250 . S
O163 Mg145 2.030 . S
O163 C157 1.248 1_545 S
O164 Mg147 2.079 1_565 S
O164 C157 1.264 . S
O165 Mg166 1.990 . S
O165 C179 1.253 . S
Mg166 O165 1.990 . S
Mg166 O169 2.180 . S
Mg166 O170 2.117 . S
Mg166 O184 2.030 . S
O167 Mg168 2.072 . S
O167 C179 1.260 . S
Mg168 O167 2.072 . S
Mg168 O169 2.099 . S
Mg168 O171 2.079 1_554 S
Mg168 O172 2.072 1_554 S
Mg168 O174 2.099 . S
Mg168 O185 2.079 . S
O169 Mg166 2.180 . S
O169 Mg168 2.099 . S
O169 C180 1.279 . S
O170 Mg166 2.117 . S
O170 C180 1.250 . S
O171 Mg168 2.079 1_556 S
O171 C181 1.264 . S
O172 Mg168 2.072 1_556 S
O172 C182 1.260 . S
Mg173 O174 2.180 1_556 S
Mg173 O175 2.030 . S
Mg173 O176 1.990 . S
Mg173 O177 2.117 . S
O174 Mg168 2.099 . S
O174 Mg173 2.180 1_554 S
O174 C183 1.279 . S
O175 Mg173 2.030 . S
O175 C181 1.248 . S
O176 Mg173 1.990 . S
O176 C182 1.253 . S
O177 Mg173 2.117 . S
O177 C183 1.250 1_556 S
C178 O184 1.248 . S
C178 O185 1.264 . S
C179 O165 1.253 . S
C179 O167 1.260 . S
C180 O169 1.279 . S
C180 O170 1.250 . S
C181 O171 1.264 . S
C181 O175 1.248 . S
C182 O172 1.260 . S
C182 O176 1.253 . S
C183 O174 1.279 . S
C183 O177 1.250 1_554 S
O184 Mg166 2.030 . S
O184 C178 1.248 . S
O185 Mg168 2.079 . S
O185 C178 1.264 . S
H186 C194 0.950 . S
H187 C199 0.950 . S
H188 C196 0.950 . S
H189 C198 0.950 . S
H190 C200 0.950 . S
H191 C202 0.950 . S
H192 C204 0.950 . S
H193 C205 0.950 . S
C194 H186 0.950 . S
C194 C195 1.386 . S
C194 C196 1.391 . S
C195 C194 1.386 . S
C195 C199 1.393 . S
C196 H188 0.950 . S
C196 C194 1.391 . S
C196 C197 1.400 . S
C197 C196 1.400 . S
C197 C198 1.398 . S
C197 C203 1.491 . S
C198 H189 0.950 . S
C198 C197 1.398 . S
C198 C199 1.391 . S
C199 H187 0.950 . S
C199 C195 1.393 . S
C199 C198 1.391 . S
C200 H190 0.950 . S
C200 C201 1.386 . S
C200 C202 1.391 . S
C201 C200 1.386 . S
C201 C205 1.393 . S
C202 H191 0.950 . S
C202 C200 1.391 . S
C202 C203 1.400 . S
C203 C197 1.491 . S
C203 C202 1.400 . S
C203 C204 1.398 . S
C204 H192 0.950 . S
C204 C203 1.398 . S
C204 C205 1.391 . S
C205 H193 0.950 . S
C205 C201 1.393 . S
C205 C204 1.391 . S
H206 C214 0.950 . S
H207 C219 0.950 . S
H208 C216 0.950 . S
H209 C218 0.950 . S
H210 C220 0.950 . S
H211 C222 0.950 . S
H212 C224 0.950 . S
H213 C225 0.950 . S
C214 H206 0.950 . S
C214 C215 1.386 . S
C214 C216 1.391 . S
C215 C214 1.386 . S
C215 C219 1.393 . S
C216 H208 0.950 . S
C216 C214 1.391 . S
C216 C217 1.400 . S
C217 C216 1.400 . S
C217 C218 1.398 . S
C217 C223 1.491 . S
C218 H209 0.950 . S
C218 C217 1.398 . S
C218 C219 1.391 . S
C219 H207 0.950 . S
C219 C215 1.393 . S
C219 C218 1.391 . S
C220 H210 0.950 . S
C220 C221 1.386 . S
C220 C222 1.391 . S
C221 C220 1.386 . S
C221 C225 1.393 . S
C222 H211 0.950 . S
C222 C220 1.391 . S
C222 C223 1.400 . S
C223 C217 1.491 . S
C223 C222 1.400 . S
C223 C224 1.398 . S
C224 H212 0.950 . S
C224 C223 1.398 . S
C224 C225 1.391 . S
C225 H213 0.950 . S
C225 C221 1.393 . S
C225 C224 1.391 . S
H226 C234 0.950 . S
H227 C239 0.950 . S
H228 C236 0.950 . S
H229 C238 0.950 . S
H230 C240 0.950 . S
H231 C242 0.950 . S
H232 C244 0.950 . S
H233 C245 0.950 . S
C234 H226 0.950 . S
C234 C235 1.386 . S
C234 C236 1.391 . S
C235 C234 1.386 . S
C235 C239 1.393 . S
C236 H228 0.950 . S
C236 C234 1.391 . S
C236 C237 1.400 . S
C237 C236 1.400 . S
C237 C238 1.398 . S
C237 C243 1.491 . S
C238 H229 0.950 . S
C238 C237 1.398 . S
C238 C239 1.391 . S
C239 H227 0.950 . S
C239 C235 1.393 . S
C239 C238 1.391 . S
C240 H230 0.950 . S
C240 C241 1.386 . S
C240 C242 1.391 . S
C241 C240 1.386 . S
C241 C245 1.393 . S
C242 H231 0.950 . S
C242 C240 1.391 . S
C242 C243 1.400 . S
C243 C237 1.491 . S
C243 C242 1.400 . S
C243 C244 1.398 . S
C244 H232 0.950 . S
C244 C243 1.398 . S
C244 C245 1.391 . S
C245 H233 0.950 . S
C245 C241 1.393 . S
C245 C244 1.391 . S
H246 C254 0.950 . S
H247 C259 0.950 . S
H248 C256 0.950 . S
H249 C258 0.950 . S
H250 C260 0.950 . S
H251 C262 0.950 . S
H252 C264 0.950 . S
H253 C265 0.950 . S
C254 H246 0.950 . S
C254 C255 1.386 . S
C254 C256 1.391 . S
C255 C254 1.386 . S
C255 C259 1.393 1_556 S
C256 H248 0.950 . S
C256 C254 1.391 . S
C256 C257 1.400 1_556 S
C257 C256 1.400 1_554 S
C257 C258 1.398 . S
C257 C263 1.491 . S
C258 H249 0.950 . S
C258 C257 1.398 . S
C258 C259 1.391 . S
C259 H247 0.950 . S
C259 C255 1.393 1_554 S
C259 C258 1.391 . S
C260 H250 0.950 . S
C260 C261 1.386 . S
C260 C262 1.391 . S
C261 C260 1.386 . S
C261 C265 1.393 1_554 S
C262 H251 0.950 . S
C262 C260 1.391 . S
C262 C263 1.400 . S
C263 C257 1.491 . S
C263 C262 1.400 . S
C263 C264 1.398 1_554 S
C264 H252 0.950 . S
C264 C263 1.398 1_556 S
C264 C265 1.391 . S
C265 H253 0.950 . S
C265 C261 1.393 1_556 S
C265 C264 1.391 . S
H266 C274 0.950 . S
H267 C279 0.950 . S
H268 C276 0.950 . S
H269 C278 0.950 . S
H270 C280 0.950 . S
H271 C282 0.950 . S
H272 C284 0.950 . S
H273 C285 0.950 1_545 S
C274 H266 0.950 . S
C274 C275 1.386 . S
C274 C276 1.391 . S
C275 C274 1.386 . S
C275 C279 1.393 . S
C276 H268 0.950 . S
C276 C274 1.391 . S
C276 C277 1.400 . S
C277 C276 1.400 . S
C277 C278 1.398 . S
C277 C283 1.491 . S
C278 H269 0.950 . S
C278 C277 1.398 . S
C278 C279 1.391 . S
C279 H267 0.950 . S
C279 C275 1.393 . S
C279 C278 1.391 . S
C280 H270 0.950 . S
C280 C281 1.386 . S
C280 C282 1.391 . S
C281 C280 1.386 . S
C281 C285 1.393 . S
C282 H271 0.950 . S
C282 C280 1.391 . S
C282 C283 1.400 . S
C283 C277 1.491 . S
C283 C282 1.400 . S
C283 C284 1.398 . S
C284 H272 0.950 . S
C284 C283 1.398 . S
C284 C285 1.391 . S
C285 H273 0.950 1_565 S
C285 C281 1.393 . S
C285 C284 1.391 . S
H286 C294 0.950 . S
H287 C299 0.950 . S
H288 C296 0.950 . S
H289 C298 0.950 . S
H290 C300 0.950 . S
H291 C302 0.950 . S
H292 C304 0.950 . S
H293 C305 0.950 . S
C294 H286 0.950 . S
C294 C295 1.386 . S
C294 C296 1.391 . S
C295 C294 1.386 . S
C295 C299 1.393 . S
C296 H288 0.950 . S
C296 C294 1.391 . S
C296 C297 1.400 . S
C297 C296 1.400 . S
C297 C298 1.398 . S
C297 C303 1.491 . S
C298 H289 0.950 . S
C298 C297 1.398 . S
C298 C299 1.391 . S
C299 H287 0.950 . S
C299 C295 1.393 . S
C299 C298 1.391 . S
C300 H290 0.950 . S
C300 C301 1.386 . S
C300 C302 1.391 . S
C301 C300 1.386 . S
C301 C305 1.393 . S
C302 H291 0.950 . S
C302 C300 1.391 . S
C302 C303 1.400 . S
C303 C297 1.491 . S
C303 C302 1.400 . S
C303 C304 1.398 . S
C304 H292 0.950 . S
C304 C303 1.398 . S
C304 C305 1.391 . S
C305 H293 0.950 . S
C305 C301 1.393 . S
C305 C304 1.391 . S
H306 C314 0.950 . S
H307 C319 0.950 . S
H308 C316 0.950 . S
H309 C318 0.950 . S
H310 C320 0.950 . S
H311 C322 0.950 . S
H312 C324 0.950 . S
H313 C325 0.950 . S
C314 H306 0.950 . S
C314 C315 1.386 . S
C314 C316 1.391 . S
C315 C314 1.386 . S
C315 C319 1.393 . S
C316 H308 0.950 . S
C316 C314 1.391 . S
C316 C317 1.400 . S
C317 C316 1.400 . S
C317 C318 1.398 . S
C317 C323 1.491 . S
C318 H309 0.950 . S
C318 C317 1.398 . S
C318 C319 1.391 . S
C319 H307 0.950 . S
C319 C315 1.393 . S
C319 C318 1.391 . S
C320 H310 0.950 . S
C320 C321 1.386 . S
C320 C322 1.391 . S
C321 C320 1.386 . S
C321 C325 1.393 . S
C322 H311 0.950 . S
C322 C320 1.391 . S
C322 C323 1.400 . S
C323 C317 1.491 . S
C323 C322 1.400 . S
C323 C324 1.398 . S
C324 H312 0.950 . S
C324 C323 1.398 . S
C324 C325 1.391 . S
C325 H313 0.950 . S
C325 C321 1.393 . S
C325 C324 1.391 . S
H326 C334 0.950 . S
H327 C339 0.950 . S
H328 C336 0.950 . S
H329 C338 0.950 . S
H330 C340 0.950 . S
H331 C342 0.950 . S
H332 C344 0.950 . S
H333 C345 0.950 . S
C334 H326 0.950 . S
C334 C335 1.386 . S
C334 C336 1.391 . S
C335 C334 1.386 . S
C335 C339 1.393 . S
C336 H328 0.950 . S
C336 C334 1.391 . S
C336 C337 1.400 . S
C337 C336 1.400 . S
C337 C338 1.398 . S
C337 C343 1.491 . S
C338 H329 0.950 . S
C338 C337 1.398 . S
C338 C339 1.391 . S
C339 H327 0.950 . S
C339 C335 1.393 . S
C339 C338 1.391 . S
C340 H330 0.950 . S
C340 C341 1.386 . S
C340 C342 1.391 . S
C341 C340 1.386 . S
C341 C345 1.393 . S
C342 H331 0.950 . S
C342 C340 1.391 . S
C342 C343 1.400 . S
C343 C337 1.491 . S
C343 C342 1.400 . S
C343 C344 1.398 . S
C344 H332 0.950 . S
C344 C343 1.398 . S
C344 C345 1.391 . S
C345 H333 0.950 . S
C345 C341 1.393 . S
C345 C344 1.391 . S
H346 C354 0.950 . S
H347 C359 0.950 . S
H348 C356 0.950 . S
H349 C358 0.950 . S
H350 C360 0.950 . S
H351 C362 0.950 . S
H352 C364 0.950 . S
H353 C365 0.950 . S
C354 H346 0.950 . S
C354 C355 1.386 . S
C354 C356 1.391 . S
C355 C354 1.386 . S
C355 C359 1.393 . S
C356 H348 0.950 . S
C356 C354 1.391 . S
C356 C357 1.400 . S
C357 C356 1.400 . S
C357 C358 1.398 . S
C357 C363 1.491 . S
C358 H349 0.950 . S
C358 C357 1.398 . S
C358 C359 1.391 . S
C359 H347 0.950 . S
C359 C355 1.393 . S
C359 C358 1.391 . S
C360 H350 0.950 . S
C360 C361 1.386 . S
C360 C362 1.391 . S
C361 C360 1.386 . S
C361 C365 1.393 . S
C362 H351 0.950 . S
C362 C360 1.391 . S
C362 C363 1.400 . S
C363 C357 1.491 . S
C363 C362 1.400 . S
C363 C364 1.398 . S
C364 H352 0.950 . S
C364 C363 1.398 . S
C364 C365 1.391 . S
C365 H353 0.950 . S
C365 C361 1.393 . S
C365 C364 1.391 . S
H366 C374 0.950 . S
H367 C379 0.950 . S
H368 C376 0.950 . S
H369 C378 0.950 . S
H370 C380 0.950 . S
H371 C382 0.950 . S
H372 C384 0.950 . S
H373 C385 0.950 . S
C374 H366 0.950 . S
C374 C375 1.386 . S
C374 C376 1.391 . S
C375 C374 1.386 . S
C375 C379 1.393 . S
C376 H368 0.950 . S
C376 C374 1.391 . S
C376 C377 1.400 . S
C377 C376 1.400 . S
C377 C378 1.398 . S
C377 C383 1.491 . S
C378 H369 0.950 . S
C378 C377 1.398 . S
C378 C379 1.391 . S
C379 H367 0.950 . S
C379 C375 1.393 . S
C379 C378 1.391 . S
C380 H370 0.950 . S
C380 C381 1.386 . S
C380 C382 1.391 . S
C381 C380 1.386 . S
C381 C385 1.393 . S
C382 H371 0.950 . S
C382 C380 1.391 . S
C382 C383 1.400 . S
C383 C377 1.491 . S
C383 C382 1.400 . S
C383 C384 1.398 . S
C384 H372 0.950 . S
C384 C383 1.398 . S
C384 C385 1.391 . S
C385 H373 0.950 . S
C385 C381 1.393 . S
C385 C384 1.391 . S
H386 C394 0.950 . S
H387 C399 0.950 . S
H388 C396 0.950 . S
H389 C398 0.950 . S
H390 C400 0.950 . S
H391 C402 0.950 . S
H392 C404 0.950 . S
H393 C405 0.950 . S
C394 H386 0.950 . S
C394 C395 1.386 . S
C394 C396 1.391 . S
C395 C394 1.386 . S
C395 C399 1.393 . S
C396 H388 0.950 . S
C396 C394 1.391 . S
C396 C397 1.400 . S
C397 C396 1.400 . S
C397 C398 1.398 . S
C397 C403 1.491 . S
C398 H389 0.950 . S
C398 C397 1.398 . S
C398 C399 1.391 . S
C399 H387 0.950 . S
C399 C395 1.393 . S
C399 C398 1.391 . S
C400 H390 0.950 . S
C400 C401 1.386 . S
C400 C402 1.391 . S
C401 C400 1.386 . S
C401 C405 1.393 . S
C402 H391 0.950 . S
C402 C400 1.391 . S
C402 C403 1.400 . S
C403 C397 1.491 . S
C403 C402 1.400 . S
C403 C404 1.398 . S
C404 H392 0.950 . S
C404 C403 1.398 . S
C404 C405 1.391 . S
C405 H393 0.950 . S
C405 C401 1.393 . S
C405 C404 1.391 . S
H406 C414 0.950 . S
H407 C419 0.950 . S
H408 C416 0.950 . S
H409 C418 0.950 . S
H410 C420 0.950 . S
H411 C422 0.950 . S
H412 C424 0.950 . S
H413 C425 0.950 . S
C414 H406 0.950 . S
C414 C415 1.386 . S
C414 C416 1.391 . S
C415 C414 1.386 . S
C415 C419 1.393 . S
C416 H408 0.950 . S
C416 C414 1.391 . S
C416 C417 1.400 . S
C417 C416 1.400 . S
C417 C418 1.398 . S
C417 C423 1.491 . S
C418 H409 0.950 . S
C418 C417 1.398 . S
C418 C419 1.391 . S
C419 H407 0.950 . S
C419 C415 1.393 . S
C419 C418 1.391 . S
C420 H410 0.950 . S
C420 C421 1.386 . S
C420 C422 1.391 . S
C421 C420 1.386 . S
C421 C425 1.393 . S
C422 H411 0.950 . S
C422 C420 1.391 . S
C422 C423 1.400 . S
C423 C417 1.491 . S
C423 C422 1.400 . S
C423 C424 1.398 . S
C424 H412 0.950 . S
C424 C423 1.398 . S
C424 C425 1.391 . S
C425 H413 0.950 . S
C425 C421 1.393 . S
C425 C424 1.391 . S
C201 C159 1.338 . S
C195 C133 1.512 . S
C215 C25 1.530 . S
C221 C183 1.376 . S
C235 C61 1.685 . S
C241 C162 1.453 . S
C255 C97 1.642 . S
C261 C180 1.479 . S
C281 C160 1.616 . S
C275 C1 1.624 . S
C301 C182 1.576 . S
C295 C67 1.610 . S
C315 C103 1.575 . S
C321 C161 1.532 . S
C335 C109 1.572 . S
C341 C181 1.536 . S
C361 C179 1.532 . S
C355 C37 1.602 . S
C381 C158 1.589 . S
C375 C73 1.590 . S
C401 C178 1.614 . S
C395 C139 1.583 . S
C415 C31 1.607 . S
C421 C157 1.517 . S
