# Generated by pormake.
# Topology tsx, (6,3)-cn, num edge types: 1
# Building blocks:
#     Node 0, Type 0, BuildingBlock: JUFBIX_clean_sbu_0, # of connection points: 6
#     Node 1, Type 0, BuildingBlock: JUFBIX_clean_sbu_0, # of connection points: 6
#     Node 2, Type 1, BuildingBlock: ESEHIV_clean_linker_0, # of connection points: 3
#     Node 3, Type 1, BuildingBlock: ESEHIV_clean_linker_0, # of connection points: 3
#     Node 4, Type 1, BuildingBlock: ESEHIV_clean_linker_0, # of connection points: 3
#     Node 5, Type 1, BuildingBlock: ESEHIV_clean_linker_0, # of connection points: 3
#     Edge 6, Type (0, 1), BuildingBlock: UVAHIK_clean_linker_0, # of connection points: 2
#     Edge 7, Type (0, 1), BuildingBlock: UVAHIK_clean_linker_0, # of connection points: 2
#     Edge 8, Type (0, 1), BuildingBlock: UVAHIK_clean_linker_0, # of connection points: 2
#     Edge 9, Type (0, 1), BuildingBlock: UVAHIK_clean_linker_0, # of connection points: 2
#     Edge 10, Type (0, 1), BuildingBlock: UVAHIK_clean_linker_0, # of connection points: 2
#     Edge 11, Type (0, 1), BuildingBlock: UVAHIK_clean_linker_0, # of connection points: 2
#     Edge 12, Type (0, 1), BuildingBlock: UVAHIK_clean_linker_0, # of connection points: 2
#     Edge 13, Type (0, 1), BuildingBlock: UVAHIK_clean_linker_0, # of connection points: 2
#     Edge 14, Type (0, 1), BuildingBlock: UVAHIK_clean_linker_0, # of connection points: 2
#     Edge 15, Type (0, 1), BuildingBlock: UVAHIK_clean_linker_0, # of connection points: 2
#     Edge 16, Type (0, 1), BuildingBlock: UVAHIK_clean_linker_0, # of connection points: 2
#     Edge 17, Type (0, 1), BuildingBlock: UVAHIK_clean_linker_0, # of connection points: 2
# Relax obj value: 0.159
# Max RMSD: 0.167
# Mean RMSD: 0.134
data_MOF--net-tsx--node1-JUFBIX_clean_sbu_0--node2-ESEHIV_clean_linker_0--edge1-UVAHIK_clean_linker_0
_symmetry_space_group_name_H-M    P1
_symmetry_Int_Tables_number       1
_symmetry_cell_setting            triclinic
loop_
_symmetry_equiv_pos_as_xyz
'x, y, z'
_cell_length_a     24.080234
_cell_length_b     28.866558
_cell_length_c     43.675437
_cell_angle_alpha  92.890507
_cell_angle_beta   88.683079
_cell_angle_gamma 97.607644
loop_
_atom_site_label
_atom_site_type_symbol
_atom_site_fract_x
_atom_site_fract_y
_atom_site_fract_z
_atom_type_partial_charge
Co0 Co 0.04883 0.98726 0.01426 0.0
C1 C 1.00097 0.01663 0.96154 0.0
Co2 Co 0.98851 0.03813 0.02272 0.0
C3 C 0.11051 0.9071 0.01603 0.0
C4 C 0.14759 0.95915 0.98576 0.0
N5 N 0.10315 0.94861 0.00474 0.0
N6 N 0.15826 0.89211 0.00515 0.0
C7 C 0.18173 0.92469 0.98618 0.0
H8 H 0.08249 0.88904 0.03258 0.0
H9 H 0.15528 0.99045 0.97287 0.0
C10 C 0.036 0.00876 0.07546 0.0
N11 N 0.93465 0.0768 0.03333 0.0
C12 C 0.91947 0.11392 0.01947 0.0
C13 C 0.90181 0.0727 0.05879 0.0
N14 N 0.8792 0.13331 0.03569 0.0
C15 C 0.86809 0.10747 0.06039 0.0
C16 C 0.94248 0.94333 0.02118 0.0
O17 O 0.06067 0.98244 0.05703 0.0
O18 O 0.00449 0.03574 0.06483 0.0
O19 O 0.93291 0.98542 0.02561 0.0
O20 O 0.99221 0.93506 0.01513 0.0
O21 O 0.97365 0.04033 0.98042 0.0
H22 H 0.90211 0.04588 0.07519 0.0
H23 H 0.93787 0.12671 0.99815 0.0
O24 O 0.03604 0.99196 0.97161 0.0
O25 O 0.10505 0.04048 0.01352 0.0
O26 O 0.04408 0.09041 0.01966 0.0
C27 C 0.09446 0.08252 0.01567 0.0
H28 H 0.22085 0.92355 0.97361 0.0
H29 H 0.83679 0.11273 0.07797 0.0
Co30 Co 0.56036 0.49196 0.51334 0.0
C31 C 0.51028 0.51738 0.46032 0.0
Co32 Co 0.49616 0.53958 0.52153 0.0
C33 C 0.62443 0.41337 0.51505 0.0
C34 C 0.6627 0.46738 0.48657 0.0
N35 N 0.6171 0.45534 0.50445 0.0
N36 N 0.6732 0.39946 0.50485 0.0
C37 C 0.69742 0.43331 0.487 0.0
H38 H 0.59539 0.39399 0.53054 0.0
H39 H 0.67056 0.49921 0.47423 0.0
C40 C 0.54603 0.514 0.57455 0.0
N41 N 0.43972 0.57604 0.53147 0.0
C42 C 0.42323 0.61247 0.51739 0.0
C43 C 0.40653 0.5712 0.55677 0.0
N44 N 0.38184 0.63076 0.53333 0.0
C45 C 0.37131 0.60491 0.55807 0.0
C46 C 0.45589 0.4438 0.52095 0.0
O47 O 0.57286 0.48917 0.5562 0.0
O48 O 0.51208 0.53882 0.56383 0.0
O49 O 0.44343 0.48514 0.52478 0.0
O50 O 0.50644 0.43782 0.515 0.0
O51 O 0.48139 0.54013 0.47898 0.0
H52 H 0.40786 0.54478 0.57334 0.0
H53 H 0.44172 0.62575 0.49622 0.0
O54 O 0.54703 0.49462 0.47067 0.0
O55 O 0.61369 0.54718 0.51175 0.0
O56 O 0.54887 0.5936 0.5182 0.0
C57 C 0.60002 0.5883 0.51383 0.0
H58 H 0.73722 0.43315 0.47497 0.0
H59 H 0.33965 0.60959 0.57555 0.0
H60 H 0.91801 0.02609 0.4093 0.0
H61 H 0.03566 0.92638 0.40404 0.0
H62 H 0.97242 0.97178 0.49188 0.0
C63 C 0.94261 0.00315 0.42042 0.0
C64 C 0.94145 0.00226 0.45261 0.0
C65 C 0.97632 0.97569 0.40261 0.0
C66 C 0.00788 0.94635 0.41747 0.0
C67 C 0.00612 0.94387 0.44955 0.0
C68 C 0.97352 0.9727 0.46711 0.0
H69 H 0.93142 0.96259 0.62327 0.0
H70 H 0.04266 0.09124 0.63549 0.0
H71 H 0.01494 0.02689 0.54504 0.0
C72 C 0.95977 0.99081 0.61376 0.0
C73 C 0.96986 0.991 0.58199 0.0
C74 C 0.98604 0.02681 0.63328 0.0
C75 C 0.02166 0.06356 0.62054 0.0
C76 C 0.03256 0.06375 0.58878 0.0
C77 C 0.00703 0.02697 0.56958 0.0
H78 H 0.42439 0.53198 0.90745 0.0
H79 H 0.54339 0.43339 0.90394 0.0
H80 H 0.47241 0.47518 0.99062 0.0
C81 C 0.44845 0.50897 0.91887 0.0
C82 C 0.44492 0.50713 0.95102 0.0
C83 C 0.48354 0.48209 0.90156 0.0
C84 C 0.51436 0.4527 0.91691 0.0
C85 C 0.50991 0.44903 0.94888 0.0
C86 C 0.47578 0.47713 0.96593 0.0
H87 H 0.45008 0.45075 0.12329 0.0
H88 H 0.53547 0.59133 0.13124 0.0
H89 H 0.50675 0.52244 0.04215 0.0
C90 C 0.47104 0.48172 0.11277 0.0
C91 C 0.47581 0.48239 0.0807 0.0
C92 C 0.49161 0.52121 0.13122 0.0
C93 C 0.51776 0.56123 0.11714 0.0
C94 C 0.52413 0.56172 0.08507 0.0
C95 C 0.50247 0.52228 0.06691 0.0
C96 C 0.12916 0.16777 0.01162 0.0
C97 C 0.14056 0.12158 0.01397 0.0
C98 C 0.1729 0.20476 0.01114 0.0
C99 C 0.31292 0.23754 0.04008 0.0
H100 H 0.31935 0.34128 0.98649 0.0
C101 C 0.4725 0.39889 0.0628 0.0
C102 C 0.45105 0.44156 0.06184 0.0
C103 C 0.44355 0.35831 0.0491 0.0
C104 C 0.31806 0.3127 1.00172 0.0
H105 H 0.2068 0.07783 0.01684 0.0
H106 H 0.28298 0.14262 0.0166 0.0
H107 H 0.24909 0.27275 0.97808 0.0
H108 H 0.38533 0.47676 0.04444 0.0
H109 H 0.33302 0.40574 0.02169 0.0
H110 H 0.37904 0.27788 0.06498 0.0
C111 C 0.24023 0.15007 0.01504 0.0
C112 C 0.27793 0.27346 0.99682 0.0
C113 C 0.1966 0.11305 0.01516 0.0
C114 C 0.40229 0.44392 0.04544 0.0
C115 C 0.37269 0.40322 0.03223 0.0
C116 C 0.35241 0.2769 0.04526 0.0
C117 C 0.22877 0.19631 0.01334 0.0
C118 C 0.27447 0.23588 0.01629 0.0
C119 C 0.39184 0.35957 0.03492 0.0
C120 C 0.35492 0.31541 0.02651 0.0
H121 H 0.08644 0.17542 0.01049 0.0
H122 H 0.1629 0.24015 0.01013 0.0
H123 H 0.31073 0.20931 0.05568 0.0
H124 H 0.51059 0.39671 0.07508 0.0
H125 H 0.46051 0.32564 0.05079 0.0
C126 C 0.15182 0.80639 0.00566 0.0
C127 C 0.18132 0.85075 0.01235 0.0
C128 C 0.17821 0.76626 0.00779 0.0
C129 C 0.32251 0.73305 0.00696 0.0
H130 H 0.24275 0.60898 0.01745 0.0
C131 C 0.43484 0.56962 0.99184 0.0
C132 C 0.41054 0.53826 0.96876 0.0
C133 C 0.40511 0.60426 0.00506 0.0
C134 C 0.26557 0.64352 0.01473 0.0
H135 H 0.2593 0.88854 0.02853 0.0
H136 H 0.30457 0.81877 0.0343 0.0
H137 H 0.1939 0.67745 0.02708 0.0
H138 H 0.33519 0.51607 0.94295 0.0
H139 H 0.28287 0.57617 0.96633 0.0
H140 H 0.39402 0.69898 0.9946 0.0
C141 C 0.26211 0.81445 0.02599 0.0
C142 C 0.23755 0.68279 0.01998 0.0
C143 C 0.23616 0.85445 0.02307 0.0
C144 C 0.35484 0.54008 0.9606 0.0
C145 C 0.32485 0.5742 0.97412 0.0
C146 C 0.35063 0.69394 1.00229 0.0
C147 C 0.23434 0.76983 0.01725 0.0
C148 C 0.26527 0.72812 0.01543 0.0
C149 C 0.35031 0.60758 0.99573 0.0
C150 C 0.32218 0.64874 0.00542 0.0
H151 H 0.10958 0.80307 0.99708 0.0
H152 H 0.15542 0.73284 1.00049 0.0
H153 H 0.34533 0.76696 1.00247 0.0
H154 H 0.47785 0.56905 0.99839 0.0
H155 H 0.4256 0.62947 0.02177 0.0
C156 C 0.84307 0.91444 0.03456 0.0
C157 C 0.89585 0.90484 0.02351 0.0
C158 C 0.79901 0.87837 0.0376 0.0
C159 C 0.74637 0.75837 0.01143 0.0
H160 H 0.667 0.75466 0.0897 0.0
C161 C 0.60191 0.59562 0.05088 0.0
C162 C 0.55703 0.60229 0.07098 0.0
C163 C 0.63853 0.63396 0.04126 0.0
C164 C 0.68776 0.75558 0.06744 0.0
H165 H 0.94349 0.84997 0.00638 0.0
H166 H 0.86592 0.7867 0.01162 0.0
H167 H 0.74088 0.81849 0.08044 0.0
H168 H 0.51224 0.6539 0.09483 0.0
H169 H 0.57497 0.7211 0.07724 0.0
H170 H 0.69304 0.69547 0.99835 0.0
C171 C 0.85893 0.8223 0.01783 0.0
C172 C 0.73039 0.79208 0.06224 0.0
C173 C 0.90334 0.85842 0.01503 0.0
C174 C 0.54714 0.64795 0.07969 0.0
C175 C 0.58327 0.68631 0.06975 0.0
C176 C 0.70321 0.72199 0.0165 0.0
C177 C 0.80655 0.83195 0.02945 0.0
C178 C 0.76038 0.79367 0.0343 0.0
C179 C 0.63055 0.67973 0.0513 0.0
C180 C 0.67366 0.71997 0.04469 0.0
H181 H 0.83585 0.94983 0.04124 0.0
H182 H 0.75891 0.88681 0.04636 0.0
H183 H 0.76854 0.7591 0.98956 0.0
H184 H 0.61054 0.56066 0.04399 0.0
H185 H 0.67467 0.62746 0.02729 0.0
C186 C 0.83355 0.17576 0.99794 0.0
C187 C 0.85072 0.17173 0.02801 0.0
C188 C 0.79936 0.20946 0.99142 0.0
C189 C 0.70141 0.28415 0.03025 0.0
H190 H 0.70498 0.33751 0.95045 0.0
C191 C 0.57115 0.42926 0.99124 0.0
C192 C 0.5424 0.41629 0.96378 0.0
C193 C 0.60835 0.40078 1.00228 0.0
C194 C 0.7037 0.32287 0.97286 0.0
H195 H 0.84895 0.2012 0.07449 0.0
H196 H 0.79149 0.26146 0.06306 0.0
H197 H 0.77556 0.28843 0.96264 0.0
H198 H 0.52568 0.36104 0.9283 0.0
H199 H 0.59181 0.31261 0.94697 0.0
H200 H 0.62976 0.31981 0.04035 0.0
C201 C 0.80225 0.2376 0.04462 0.0
C202 C 0.74383 0.29446 0.9798 0.0
C203 C 0.83554 0.20338 0.05118 0.0
C204 C 0.5486 0.37286 0.94891 0.0
C205 C 0.58621 0.34499 0.95961 0.0
C206 C 0.6618 0.31332 0.02344 0.0
C207 C 0.78251 0.2404 0.0148 0.0
C208 C 0.74261 0.2739 0.00837 0.0
C209 C 0.61758 0.35933 0.98582 0.0
C210 C 0.66203 0.33207 0.99447 0.0
H211 H 0.84426 0.15135 0.97981 0.0
H212 H 0.78444 0.20993 0.96826 0.0
H213 H 0.69845 0.26847 0.05232 0.0
H214 H 0.56715 0.46239 0.00332 0.0
H215 H 0.63194 0.41224 0.02272 0.0
C216 C 0.69967 0.62369 0.50548 0.0
C217 C 0.64325 0.62944 0.51128 0.0
C218 C 0.74072 0.66261 0.50399 0.0
C219 C 0.76057 0.79178 0.49719 0.0
H220 H 0.89375 0.78722 0.54458 0.0
C221 C 0.88227 0.95161 0.55848 0.0
C222 C 0.94021 0.95376 0.56197 0.0
C223 C 0.85228 0.91317 0.54301 0.0
C224 C 0.85755 0.78886 0.5306 0.0
H225 H 0.58551 0.6806 0.51933 0.0
H226 H 0.65707 0.74832 0.51735 0.0
H227 H 0.82837 0.71638 0.53552 0.0
H228 H 0.01324 0.91941 0.55119 0.0
H229 H 0.9607 0.85156 0.52391 0.0
H230 H 0.78867 0.86492 0.49361 0.0
C231 C 0.66961 0.71381 0.51343 0.0
C232 C 0.81993 0.7482 0.52545 0.0
C233 C 0.62859 0.67494 0.51487 0.0
C234 C 0.96844 0.91819 0.54857 0.0
C235 C 0.93838 0.87947 0.53318 0.0
C236 C 0.79815 0.83248 0.50242 0.0
C237 C 0.72624 0.70813 0.50828 0.0
C238 C 0.7701 0.74952 0.50954 0.0
C239 C 0.87973 0.87599 0.53103 0.0
C240 C 0.84609 0.83174 0.52005 0.0
H241 H 0.7123 0.58908 0.50236 0.0
H242 H 0.78386 0.65705 0.49967 0.0
H243 H 0.72318 0.79371 0.48425 0.0
H244 H 0.85995 0.97888 0.56873 0.0
H245 H 0.80713 0.91135 0.54208 0.0
C246 C 0.75173 0.35985 0.51999 0.0
C247 C 0.69578 0.35744 0.51122 0.0
C248 C 0.7762 0.31906 0.52274 0.0
C249 C 0.7453 0.18761 0.52069 0.0
H250 H 0.89959 0.19694 0.49166 0.0
C251 C 0.85283 0.03696 0.46349 0.0
C252 C 0.90888 0.03447 0.47069 0.0
C253 C 0.82487 0.07269 0.47661 0.0
C254 C 0.85683 0.19385 0.50037 0.0
H255 H 0.62076 0.3111 0.49923 0.0
H256 H 0.66389 0.23944 0.50229 0.0
H257 H 0.85461 0.26709 0.49835 0.0
H258 H 0.97873 0.06556 0.49846 0.0
H259 H 0.93003 0.12874 0.5211 0.0
H260 H 0.74725 0.11339 0.52037 0.0
C261 C 0.68879 0.27258 0.50819 0.0
C262 C 0.83084 0.23422 0.50436 0.0
C263 C 0.66394 0.31354 0.50625 0.0
C264 C 0.93544 0.06664 0.49264 0.0
C265 C 0.90774 0.10286 0.50543 0.0
C266 C 0.77113 0.14702 0.5161 0.0
C267 C 0.74575 0.27479 0.51581 0.0
C268 C 0.77443 0.23178 0.51423 0.0
C269 C 0.85273 0.10698 0.49683 0.0
C270 C 0.82697 0.14976 0.50557 0.0
H271 H 0.77672 0.39351 0.52426 0.0
H272 H 0.81948 0.32246 0.52966 0.0
H273 H 0.70227 0.18417 0.52889 0.0
H274 H 0.83143 0.01236 0.44673 0.0
H275 H 0.78264 0.07517 0.46944 0.0
C276 C 0.42243 0.35753 0.51688 0.0
C277 C 0.4118 0.40355 0.52429 0.0
C278 C 0.38052 0.31976 0.521 0.0
C279 C 0.25511 0.28672 0.56745 0.0
H280 H 0.21689 0.18777 0.50516 0.0
C281 C 0.06541 0.14878 0.58448 0.0
C282 C 0.07159 0.10218 0.57613 0.0
C283 C 0.10529 0.18513 0.57528 0.0
C284 C 0.22749 0.21486 0.52291 0.0
H285 H 0.34875 0.44604 0.54142 0.0
H286 H 0.27628 0.38028 0.54883 0.0
H287 H 0.29172 0.25147 0.49496 0.0
H288 H 0.12284 0.0568 0.55071 0.0
H289 H 0.19373 0.12034 0.5352 0.0
H290 H 0.19239 0.25018 0.59575 0.0
C291 C 0.3169 0.3734 0.53992 0.0
C292 C 0.27024 0.25128 0.51703 0.0
C293 C 0.3584 0.41105 0.53554 0.0
C294 C 0.11717 0.09257 0.55734 0.0
C295 C 0.1576 0.12897 0.54843 0.0
C296 C 0.21293 0.25025 0.57343 0.0
C297 C 0.32764 0.32741 0.53294 0.0
C298 C 0.28399 0.28774 0.53917 0.0
C299 C 0.15274 0.17562 0.55789 0.0
C300 C 0.19812 0.21409 0.55116 0.0
H301 H 0.46314 0.35069 0.50811 0.0
H302 H 0.38987 0.28455 0.5156 0.0
H303 H 0.26557 0.31398 0.58512 0.0
H304 H 0.03005 0.15704 0.59855 0.0
H305 H 0.09935 0.2207 0.58224 0.0
C306 C 0.33405 0.67176 0.4957 0.0
C307 C 0.35254 0.66867 0.52562 0.0
C308 C 0.29925 0.70506 0.48923 0.0
C309 C 0.20314 0.78128 0.52862 0.0
H310 H 0.20151 0.83114 0.44795 0.0
C311 C 0.07285 0.92655 0.48984 0.0
C312 C 0.04017 0.91185 0.46397 0.0
C313 C 0.11089 0.89835 0.50031 0.0
C314 C 0.20173 0.81748 0.4706 0.0
H315 H 0.35242 0.69927 0.57183 0.0
H316 H 0.29422 0.75901 0.56043 0.0
H317 H 0.27261 0.78219 0.45957 0.0
H318 H 0.0184 0.85453 0.43049 0.0
H319 H 0.08604 0.80645 0.44811 0.0
H320 H 0.13265 0.81799 0.53954 0.0
C321 C 0.30425 0.73468 0.5421 0.0
C322 C 0.24213 0.78912 0.47723 0.0
C323 C 0.33801 0.70079 0.54864 0.0
C324 C 0.044 0.8674 0.44997 0.0
C325 C 0.0825 0.83979 0.46005 0.0
C326 C 0.16338 0.81048 0.52211 0.0
C327 C 0.28317 0.73658 0.51248 0.0
C328 C 0.24282 0.76984 0.50616 0.0
C329 C 0.11719 0.8555 0.48478 0.0
C330 C 0.1618 0.82803 0.49288 0.0
H331 H 0.34428 0.64695 0.4777 0.0
H332 H 0.28333 0.70476 0.46624 0.0
H333 H 0.20151 0.76659 0.55099 0.0
H334 H 0.0709 0.96061 0.50109 0.0
H335 H 0.13719 0.91094 0.51957 0.0
C336 C 0.02814 0.04516 0.12797 0.0
C337 C 0.04042 0.00694 0.10904 0.0
C338 C 0.02513 0.04222 0.15974 0.0
C339 C 0.05755 0.97085 0.22418 0.0
H340 H 0.93913 0.0306 0.26512 0.0
C341 C 0.98596 0.93856 0.34967 0.0
C342 C 0.98079 0.97873 0.36865 0.0
C343 C 0.99416 0.9418 0.31804 0.0
C344 C 0.97263 0.01405 0.25405 0.0
H345 H 0.06101 0.93612 0.1085 0.0
H346 H 0.05413 0.93027 0.16418 0.0
H347 H 0.95378 0.03641 0.21009 0.0
H348 H 0.9797 0.05381 0.36889 0.0
H349 H 0.99228 0.05911 0.31352 0.0
H350 H 0.07506 0.9475 0.26837 0.0
C351 C 0.04788 0.96296 0.15451 0.0
C352 C 0.98133 0.01754 0.22249 0.0
C353 C 0.05177 0.96621 0.1226 0.0
C354 C 0.98257 0.02204 0.35501 0.0
C355 C 0.99011 0.02516 0.3233 0.0
C356 C 0.04836 0.96691 0.25576 0.0
C357 C 0.03329 0.00064 0.17344 0.0
C358 C 0.02418 -0.00368 0.20712 0.0
C359 C 0.9966 0.98515 0.30455 0.0
C360 C 0.00599 0.9887 0.27101 0.0
H361 H 0.01983 0.07725 0.11817 0.0
H362 H 0.01552 0.07246 0.17353 0.0
H363 H 0.09132 0.95452 0.21327 0.0
H364 H 0.98371 0.90447 0.35926 0.0
H365 H 0.99813 0.91029 0.30406 0.0
C366 C 0.01091 0.98288 0.90812 0.0
C367 C 0.99245 0.01756 0.92814 0.0
C368 C 0.00368 0.98382 0.87653 0.0
C369 C 0.99184 0.06294 0.81565 0.0
H370 H 0.93166 0.951 0.76834 0.0
C371 C 0.96635 0.06488 0.68459 0.0
C372 C 0.97826 0.02522 0.667 0.0
C373 C 0.96204 0.06399 0.71656 0.0
C374 C 0.94923 0.98247 0.78108 0.0
H375 H 0.95198 0.08048 0.93073 0.0
H376 H 0.94054 0.08265 0.87524 0.0
H377 H 0.93639 0.94933 0.82398 0.0
H378 H 0.99509 0.95359 0.66894 0.0
H379 H 0.98948 0.9523 0.72462 0.0
H380 H 0.00709 0.09573 0.77294 0.0
C381 C 0.96018 0.0546 0.88417 0.0
C382 C 0.9516 0.9815 0.81299 0.0
C383 C 0.96655 0.05323 0.91588 0.0
C384 C 0.98515 0.98448 0.68194 0.0
C385 C 0.98168 0.98377 0.71391 0.0
C386 C 0.99028 0.06376 0.78369 0.0
C387 C 0.97865 0.01986 0.86422 0.0
C388 C 0.97327 0.02162 0.83056 0.0
C389 C 0.97042 0.02361 0.73172 0.0
C390 C 0.96935 0.02342 0.76591 0.0
H391 H 0.03089 0.95487 0.91686 0.0
H392 H 0.01874 0.95685 0.86163 0.0
H393 H 0.00931 0.09423 0.82864 0.0
H394 H 0.96031 0.09661 0.67359 0.0
H395 H 0.95217 0.09505 0.72935 0.0
C396 C 0.56706 0.47325 0.62154 0.0
C397 C 0.55094 0.51255 0.60815 0.0
C398 C 0.5646 0.46988 0.65344 0.0
C399 C 0.56097 0.53817 0.72662 0.0
H400 H 0.47333 0.42699 0.75703 0.0
C401 C 0.49097 0.52825 0.85375 0.0
C402 C 0.48962 0.48519 0.86762 0.0
C403 C 0.49989 0.53129 0.82209 0.0
C404 C 0.49877 0.45797 0.74909 0.0
H405 H 0.52223 0.58004 0.6176 0.0
H406 H 0.51938 0.57462 0.67317 0.0
H407 H 0.49176 0.43262 0.70217 0.0
H408 H 0.49475 0.4112 0.8586 0.0
H409 H 0.51291 0.41687 0.804 0.0
H410 H 0.56901 0.56341 0.77338 0.0
C411 C 0.53338 0.54629 0.65908 0.0
C412 C 0.50923 0.46114 0.71759 0.0
C413 C 0.53483 0.54927 0.62727 0.0
C414 C 0.49648 0.44516 0.84889 0.0
C415 C 0.5061 0.44829 0.81736 0.0
C416 C 0.55126 0.53476 0.75817 0.0
C417 C 0.5471 0.50618 0.67247 0.0
C418 C 0.53996 0.50144 0.70603 0.0
C419 C 0.50825 0.49144 0.80349 0.0
C420 C 0.51952 0.49479 0.76985 0.0
H421 H 0.57937 0.44434 0.60734 0.0
H422 H 0.57569 0.43869 0.66325 0.0
H423 H 0.58512 0.56953 0.71829 0.0
H424 H 0.48639 0.55993 0.8674 0.0
H425 H 0.50018 0.565 0.81225 0.0
C426 C 0.47229 0.5505 0.41422 0.0
C427 C 0.50188 0.51737 0.42683 0.0
C428 C 0.46622 0.55111 0.38243 0.0
C429 C 0.46795 0.47752 0.31135 0.0
H430 H 0.5077 0.59428 0.27114 0.0
C431 C 0.50189 0.48216 0.18041 0.0
C432 C 0.48715 0.52034 0.16517 0.0
C433 C 0.49953 0.48193 0.21241 0.0
C434 C 0.49542 0.56147 0.28195 0.0
H435 H 0.54736 0.4584 0.41603 0.0
H436 H 0.536 0.45911 0.36074 0.0
H437 H 0.50951 0.59363 0.32692 0.0
H438 H 0.45698 0.58767 0.17142 0.0
H439 H 0.45134 0.58685 0.22725 0.0
H440 H 0.45316 0.44524 0.26665 0.0
C441 C 0.51765 0.48464 0.37539 0.0
C442 C 0.49665 0.56115 0.31395 0.0
C443 C 0.52441 0.48444 0.40706 0.0
C444 C 0.4692 0.558 0.18259 0.0
C445 C 0.46621 0.55756 0.21461 0.0
C446 C 0.46605 0.47789 0.2794 0.0
C447 C 0.48884 0.51815 0.36271 0.0
C448 C 0.4837 0.51907 0.32894 0.0
C449 C 0.48173 0.51965 0.23 0.0
C450 C 0.48056 0.51975 0.26419 0.0
H451 H 0.45452 0.57638 0.42886 0.0
H452 H 0.44357 0.57718 0.37326 0.0
H453 H 0.45702 0.44466 0.32235 0.0
H454 H 0.5166 0.45292 0.16759 0.0
H455 H 0.51293 0.45254 0.22334 0.0
loop_
_geom_bond_atom_site_label_1
_geom_bond_atom_site_label_2
_geom_bond_distance
_geom_bond_site_symmetry_2
_ccdc_geom_bond_type
Co0 N5 2.057 . S
Co0 O17 2.021 . S
Co0 O20 2.062 1_455 S
Co0 O24 2.117 1_554 S
Co0 O25 2.020 1_565 S
C1 O21 1.259 1_455 S
C1 O24 1.258 1_545 S
Co2 N11 2.057 . S
Co2 O18 2.117 . S
Co2 O19 2.020 1_545 S
Co2 O21 2.021 1_554 S
Co2 O26 2.062 1_655 S
C3 N5 1.316 . S
C3 N6 1.347 . S
C3 H8 0.931 . S
C4 N5 1.375 1_556 S
C4 C7 1.350 . S
C4 H9 0.930 . S
N5 Co0 2.057 . S
N5 C3 1.316 . S
N5 C4 1.375 1_554 S
N6 C3 1.347 . S
N6 C7 1.373 1_554 S
C7 C4 1.350 . S
C7 N6 1.373 1_556 S
C7 H28 0.931 . S
H8 C3 0.931 . S
H9 C4 0.930 . S
C10 O17 1.259 1_545 S
C10 O18 1.258 1_455 S
N11 Co2 2.057 . S
N11 C12 1.316 . S
N11 C13 1.375 . S
C12 N11 1.316 . S
C12 N14 1.347 . S
C12 H23 0.931 1_554 S
C13 N11 1.375 . S
C13 C15 1.350 . S
C13 H22 0.930 . S
N14 C12 1.347 . S
N14 C15 1.373 . S
C15 C13 1.350 . S
C15 N14 1.373 . S
C15 H29 0.931 . S
C16 O19 1.256 . S
C16 O20 1.255 . S
O17 Co0 2.021 . S
O17 C10 1.259 1_565 S
O18 Co2 2.117 . S
O18 C10 1.258 1_655 S
O19 Co2 2.020 1_565 S
O19 C16 1.256 . S
O20 Co0 2.062 1_655 S
O20 C16 1.255 . S
O21 C1 1.259 1_655 S
O21 Co2 2.021 1_556 S
H22 C13 0.930 . S
H23 C12 0.931 1_556 S
O24 Co0 2.117 1_556 S
O24 C1 1.258 1_565 S
O25 Co0 2.020 1_545 S
O25 C27 1.256 . S
O26 Co2 2.062 1_455 S
O26 C27 1.255 . S
C27 O25 1.256 . S
C27 O26 1.255 . S
H28 C7 0.931 . S
H29 C15 0.931 . S
Co30 N35 2.057 . S
Co30 O47 2.021 . S
Co30 O50 2.062 . S
Co30 O54 2.117 . S
Co30 O55 2.020 . S
C31 O51 1.259 . S
C31 O54 1.258 . S
Co32 N41 2.057 . S
Co32 O48 2.117 . S
Co32 O49 2.020 . S
Co32 O51 2.021 . S
Co32 O56 2.062 . S
C33 N35 1.316 . S
C33 N36 1.347 . S
C33 H38 0.931 . S
C34 N35 1.375 . S
C34 C37 1.350 . S
C34 H39 0.930 . S
N35 Co30 2.057 . S
N35 C33 1.316 . S
N35 C34 1.375 . S
N36 C33 1.347 . S
N36 C37 1.373 . S
C37 C34 1.350 . S
C37 N36 1.373 . S
C37 H58 0.931 . S
H38 C33 0.931 . S
H39 C34 0.930 . S
C40 O47 1.259 . S
C40 O48 1.258 . S
N41 Co32 2.057 . S
N41 C42 1.316 . S
N41 C43 1.375 . S
C42 N41 1.316 . S
C42 N44 1.347 . S
C42 H53 0.931 . S
C43 N41 1.375 . S
C43 C45 1.350 . S
C43 H52 0.930 . S
N44 C42 1.347 . S
N44 C45 1.373 . S
C45 C43 1.350 . S
C45 N44 1.373 . S
C45 H59 0.931 . S
C46 O49 1.256 . S
C46 O50 1.255 . S
O47 Co30 2.021 . S
O47 C40 1.259 . S
O48 Co32 2.117 . S
O48 C40 1.258 . S
O49 Co32 2.020 . S
O49 C46 1.256 . S
O50 Co30 2.062 . S
O50 C46 1.255 . S
O51 C31 1.259 . S
O51 Co32 2.021 . S
H52 C43 0.930 . S
H53 C42 0.931 . S
O54 Co30 2.117 . S
O54 C31 1.258 . S
O55 Co30 2.020 . S
O55 C57 1.256 . S
O56 Co32 2.062 . S
O56 C57 1.255 . S
C57 O55 1.256 . S
C57 O56 1.255 . S
H58 C37 0.931 . S
H59 C45 0.931 . S
H60 C63 0.931 . S
H61 C66 0.928 . S
H62 C68 0.931 . S
C63 H60 0.931 . S
C63 C64 1.413 . S
C63 C65 1.358 1_655 S
C64 C63 1.413 . S
C64 C68 1.418 1_655 S
C65 C63 1.358 1_455 S
C65 C66 1.373 1_545 S
C66 H61 0.928 . S
C66 C65 1.373 1_565 S
C66 C67 1.404 . S
C67 C66 1.404 . S
C67 C68 1.402 1_565 S
C68 H62 0.931 . S
C68 C64 1.418 1_455 S
C68 C67 1.402 1_545 S
H69 C72 0.931 . S
H70 C75 0.928 . S
H71 C77 0.930 . S
C72 H69 0.931 . S
C72 C73 1.413 . S
C72 C74 1.360 1_665 S
C73 C72 1.413 . S
C73 C77 1.429 1_665 S
C74 C72 1.360 1_445 S
C74 C75 1.372 . S
C75 H70 0.928 . S
C75 C74 1.372 . S
C75 C76 1.404 . S
C76 C75 1.404 . S
C76 C77 1.391 . S
C77 H71 0.930 . S
C77 C73 1.429 1_445 S
C77 C76 1.391 . S
H78 C81 0.931 . S
H79 C84 0.928 . S
H80 C86 0.930 . S
C81 H78 0.931 . S
C81 C82 1.413 . S
C81 C83 1.360 . S
C82 C81 1.413 . S
C82 C86 1.429 . S
C83 C81 1.360 . S
C83 C84 1.372 . S
C84 H79 0.928 . S
C84 C83 1.372 . S
C84 C85 1.404 . S
C85 C84 1.404 . S
C85 C86 1.391 . S
C86 H80 0.930 . S
C86 C82 1.429 . S
C86 C85 1.391 . S
H87 C90 0.931 . S
H88 C93 0.928 . S
H89 C95 0.930 . S
C90 H87 0.931 . S
C90 C91 1.413 . S
C90 C92 1.360 . S
C91 C90 1.413 . S
C91 C95 1.429 . S
C92 C90 1.360 . S
C92 C93 1.372 . S
C93 H88 0.928 . S
C93 C92 1.372 . S
C93 C94 1.404 . S
C94 C93 1.404 . S
C94 C95 1.391 . S
C95 H89 0.930 . S
C95 C91 1.429 . S
C95 C94 1.391 . S
C96 C97 1.349 . S
C96 C98 1.327 . S
C96 H121 0.950 1_554 S
C97 C96 1.349 . S
C97 C113 1.349 . S
C98 C96 1.327 . S
C98 C117 1.429 . S
C98 H122 0.950 1_554 S
C99 C116 1.574 . S
C99 C118 1.368 . S
C99 H123 0.949 . S
H100 C104 0.949 . S
C101 C102 1.349 . S
C101 C103 1.327 . S
C101 H124 0.950 . S
C102 C101 1.349 . S
C102 C114 1.349 . S
C103 C101 1.327 . S
C103 C119 1.429 . S
C103 H125 0.950 . S
C104 H100 0.949 . S
C104 C112 1.574 . S
C104 C120 1.368 . S
H105 C113 0.950 . S
H106 C111 0.950 . S
H107 C112 0.949 . S
H108 C114 0.950 . S
H109 C115 0.950 . S
H110 C116 0.949 . S
C111 H106 0.950 . S
C111 C113 1.327 . S
C111 C117 1.429 . S
C112 C104 1.574 . S
C112 H107 0.949 . S
C112 C118 1.368 . S
C113 C97 1.349 . S
C113 H105 0.950 . S
C113 C111 1.327 . S
C114 C102 1.349 . S
C114 H108 0.950 . S
C114 C115 1.327 . S
C115 H109 0.950 . S
C115 C114 1.327 . S
C115 C119 1.429 . S
C116 C99 1.574 . S
C116 H110 0.949 . S
C116 C120 1.368 . S
C117 C98 1.429 . S
C117 C111 1.429 . S
C117 C118 1.523 . S
C118 C99 1.368 . S
C118 C112 1.368 . S
C118 C117 1.523 . S
C119 C103 1.429 . S
C119 C115 1.429 . S
C119 C120 1.523 . S
C120 C104 1.368 . S
C120 C116 1.368 . S
C120 C119 1.523 . S
H121 C96 0.950 1_556 S
H122 C98 0.950 1_556 S
H123 C99 0.949 . S
H124 C101 0.950 . S
H125 C103 0.950 . S
C126 C127 1.349 . S
C126 C128 1.327 . S
C126 H151 0.950 . S
C127 C126 1.349 . S
C127 C143 1.349 1_554 S
C128 C126 1.327 . S
C128 C147 1.429 1_554 S
C128 H152 0.950 . S
C129 C146 1.574 . S
C129 C148 1.368 . S
C129 H153 0.949 . S
H130 C134 0.949 . S
C131 C132 1.349 . S
C131 C133 1.327 . S
C131 H154 0.950 . S
C132 C131 1.349 . S
C132 C144 1.349 . S
C133 C131 1.327 . S
C133 C149 1.429 . S
C133 H155 0.950 . S
C134 H130 0.949 . S
C134 C142 1.574 . S
C134 C150 1.368 1_554 S
H135 C143 0.950 . S
H136 C141 0.950 . S
H137 C142 0.949 . S
H138 C144 0.950 . S
H139 C145 0.950 1_554 S
H140 C146 0.949 . S
C141 H136 0.950 . S
C141 C143 1.327 . S
C141 C147 1.429 . S
C142 C134 1.574 . S
C142 H137 0.949 . S
C142 C148 1.368 1_554 S
C143 C127 1.349 1_556 S
C143 H135 0.950 . S
C143 C141 1.327 . S
C144 C132 1.349 . S
C144 H138 0.950 . S
C144 C145 1.327 . S
C145 H139 0.950 1_556 S
C145 C144 1.327 . S
C145 C149 1.429 . S
C146 C129 1.574 . S
C146 H140 0.949 . S
C146 C150 1.368 . S
C147 C128 1.429 1_556 S
C147 C141 1.429 . S
C147 C148 1.523 . S
C148 C129 1.368 . S
C148 C142 1.368 1_556 S
C148 C147 1.523 . S
C149 C133 1.429 . S
C149 C145 1.429 . S
C149 C150 1.523 . S
C150 C134 1.368 1_556 S
C150 C146 1.368 . S
C150 C149 1.523 . S
H151 C126 0.950 . S
H152 C128 0.950 . S
H153 C129 0.949 . S
H154 C131 0.950 . S
H155 C133 0.950 . S
C156 C157 1.349 . S
C156 C158 1.327 . S
C156 H181 0.950 . S
C157 C156 1.349 . S
C157 C173 1.349 . S
C158 C156 1.327 . S
C158 C177 1.429 . S
C158 H182 0.950 . S
C159 C176 1.574 . S
C159 C178 1.368 . S
C159 H183 0.949 . S
H160 C164 0.949 . S
C161 C162 1.349 . S
C161 C163 1.327 . S
C161 H184 0.950 . S
C162 C161 1.349 . S
C162 C174 1.349 . S
C163 C161 1.327 . S
C163 C179 1.429 . S
C163 H185 0.950 . S
C164 H160 0.949 . S
C164 C172 1.574 . S
C164 C180 1.368 . S
H165 C173 0.950 . S
H166 C171 0.950 . S
H167 C172 0.949 . S
H168 C174 0.950 . S
H169 C175 0.950 . S
H170 C176 0.949 . S
C171 H166 0.950 . S
C171 C173 1.327 . S
C171 C177 1.429 . S
C172 C164 1.574 . S
C172 H167 0.949 . S
C172 C178 1.368 . S
C173 C157 1.349 . S
C173 H165 0.950 . S
C173 C171 1.327 . S
C174 C162 1.349 . S
C174 H168 0.950 . S
C174 C175 1.327 . S
C175 H169 0.950 . S
C175 C174 1.327 . S
C175 C179 1.429 . S
C176 C159 1.574 . S
C176 H170 0.949 . S
C176 C180 1.368 . S
C177 C158 1.429 . S
C177 C171 1.429 . S
C177 C178 1.523 . S
C178 C159 1.368 . S
C178 C172 1.368 . S
C178 C177 1.523 . S
C179 C163 1.429 . S
C179 C175 1.429 . S
C179 C180 1.523 . S
C180 C164 1.368 . S
C180 C176 1.368 . S
C180 C179 1.523 . S
H181 C156 0.950 . S
H182 C158 0.950 . S
H183 C159 0.949 . S
H184 C161 0.950 . S
H185 C163 0.950 . S
C186 C187 1.349 1_556 S
C186 C188 1.327 . S
C186 H211 0.950 . S
C187 C186 1.349 1_554 S
C187 C203 1.349 . S
C188 C186 1.327 . S
C188 C207 1.429 . S
C188 H212 0.950 . S
C189 C206 1.564 1_554 S
C189 C208 1.368 1_554 S
C189 H213 0.949 . S
H190 C194 0.949 . S
C191 C192 1.349 . S
C191 C193 1.327 . S
C191 H214 0.950 . S
C192 C191 1.349 . S
C192 C204 1.349 . S
C193 C191 1.327 . S
C193 C209 1.429 . S
C193 H215 0.950 . S
C194 H190 0.949 . S
C194 C202 1.574 . S
C194 C210 1.368 . S
H195 C203 0.950 . S
H196 C201 0.950 . S
H197 C202 0.949 . S
H198 C204 0.950 . S
H199 C205 0.950 . S
H200 C206 0.933 1_554 S
C201 H196 0.950 . S
C201 C203 1.327 . S
C201 C207 1.429 1_554 S
C202 C194 1.574 . S
C202 H197 0.949 . S
C202 C208 1.368 . S
C203 C187 1.349 . S
C203 H195 0.950 . S
C203 C201 1.327 . S
C204 C192 1.349 . S
C204 H198 0.950 . S
C204 C205 1.327 . S
C205 H199 0.950 . S
C205 C204 1.327 . S
C205 C209 1.429 . S
C206 C189 1.564 1_556 S
C206 H200 0.933 1_556 S
C206 C210 1.397 . S
C207 C188 1.429 . S
C207 C201 1.429 1_556 S
C207 C208 1.523 . S
C208 C189 1.368 1_556 S
C208 C202 1.368 . S
C208 C207 1.523 . S
C209 C193 1.429 . S
C209 C205 1.429 . S
C209 C210 1.523 . S
C210 C194 1.368 . S
C210 C206 1.397 . S
C210 C209 1.523 . S
H211 C186 0.950 . S
H212 C188 0.950 . S
H213 C189 0.949 . S
H214 C191 0.950 . S
H215 C193 0.950 . S
C216 C217 1.349 . S
C216 C218 1.327 . S
C216 H241 0.950 . S
C217 C216 1.349 . S
C217 C233 1.349 . S
C218 C216 1.327 . S
C218 C237 1.429 . S
C218 H242 0.950 . S
C219 C236 1.574 . S
C219 C238 1.368 . S
C219 H243 0.949 . S
H220 C224 0.949 . S
C221 C222 1.349 . S
C221 C223 1.327 . S
C221 H244 0.950 . S
C222 C221 1.349 . S
C222 C234 1.349 . S
C223 C221 1.327 . S
C223 C239 1.429 . S
C223 H245 0.950 . S
C224 H220 0.949 . S
C224 C232 1.574 . S
C224 C240 1.368 . S
H225 C233 0.950 . S
H226 C231 0.950 . S
H227 C232 0.949 . S
H228 C234 0.950 . S
H229 C235 0.950 . S
H230 C236 0.949 . S
C231 H226 0.950 . S
C231 C233 1.327 . S
C231 C237 1.429 . S
C232 C224 1.574 . S
C232 H227 0.949 . S
C232 C238 1.368 . S
C233 C217 1.349 . S
C233 H225 0.950 . S
C233 C231 1.327 . S
C234 C222 1.349 . S
C234 H228 0.950 . S
C234 C235 1.327 . S
C235 H229 0.950 . S
C235 C234 1.327 . S
C235 C239 1.429 . S
C236 C219 1.574 . S
C236 H230 0.949 . S
C236 C240 1.368 . S
C237 C218 1.429 . S
C237 C231 1.429 . S
C237 C238 1.523 . S
C238 C219 1.368 . S
C238 C232 1.368 . S
C238 C237 1.523 . S
C239 C223 1.429 . S
C239 C235 1.429 . S
C239 C240 1.523 . S
C240 C224 1.368 . S
C240 C236 1.368 . S
C240 C239 1.523 . S
H241 C216 0.950 . S
H242 C218 0.950 . S
H243 C219 0.949 . S
H244 C221 0.950 . S
H245 C223 0.950 . S
C246 C247 1.349 . S
C246 C248 1.327 . S
C246 H271 0.950 . S
C247 C246 1.349 . S
C247 C263 1.349 . S
C248 C246 1.327 . S
C248 C267 1.429 . S
C248 H272 0.950 . S
C249 C266 1.574 . S
C249 C268 1.368 . S
C249 H273 0.949 . S
H250 C254 0.949 . S
C251 C252 1.349 . S
C251 C253 1.327 . S
C251 H274 0.950 . S
C252 C251 1.349 . S
C252 C264 1.349 . S
C253 C251 1.327 . S
C253 C269 1.429 . S
C253 H275 0.950 . S
C254 H250 0.949 . S
C254 C262 1.574 . S
C254 C270 1.368 . S
H255 C263 0.950 . S
H256 C261 0.950 . S
H257 C262 0.949 . S
H258 C264 0.950 . S
H259 C265 0.950 . S
H260 C266 0.949 . S
C261 H256 0.950 . S
C261 C263 1.327 . S
C261 C267 1.429 . S
C262 C254 1.574 . S
C262 H257 0.949 . S
C262 C268 1.368 . S
C263 C247 1.349 . S
C263 H255 0.950 . S
C263 C261 1.327 . S
C264 C252 1.349 . S
C264 H258 0.950 . S
C264 C265 1.327 . S
C265 H259 0.950 . S
C265 C264 1.327 . S
C265 C269 1.429 . S
C266 C249 1.574 . S
C266 H260 0.949 . S
C266 C270 1.368 . S
C267 C248 1.429 . S
C267 C261 1.429 . S
C267 C268 1.523 . S
C268 C249 1.368 . S
C268 C262 1.368 . S
C268 C267 1.523 . S
C269 C253 1.429 . S
C269 C265 1.429 . S
C269 C270 1.523 . S
C270 C254 1.368 . S
C270 C266 1.368 . S
C270 C269 1.523 . S
H271 C246 0.950 . S
H272 C248 0.950 . S
H273 C249 0.949 . S
H274 C251 0.950 . S
H275 C253 0.950 . S
C276 C277 1.349 . S
C276 C278 1.327 . S
C276 H301 0.950 . S
C277 C276 1.349 . S
C277 C293 1.349 . S
C278 C276 1.327 . S
C278 C297 1.429 . S
C278 H302 0.950 . S
C279 C296 1.574 . S
C279 C298 1.368 . S
C279 H303 0.949 . S
H280 C284 0.949 . S
C281 C282 1.349 . S
C281 C283 1.327 . S
C281 H304 0.950 . S
C282 C281 1.349 . S
C282 C294 1.349 . S
C283 C281 1.327 . S
C283 C299 1.429 . S
C283 H305 0.950 . S
C284 H280 0.949 . S
C284 C292 1.574 . S
C284 C300 1.368 . S
H285 C293 0.950 . S
H286 C291 0.950 . S
H287 C292 0.949 . S
H288 C294 0.950 . S
H289 C295 0.950 . S
H290 C296 0.949 . S
C291 H286 0.950 . S
C291 C293 1.327 . S
C291 C297 1.429 . S
C292 C284 1.574 . S
C292 H287 0.949 . S
C292 C298 1.368 . S
C293 C277 1.349 . S
C293 H285 0.950 . S
C293 C291 1.327 . S
C294 C282 1.349 . S
C294 H288 0.950 . S
C294 C295 1.327 . S
C295 H289 0.950 . S
C295 C294 1.327 . S
C295 C299 1.429 . S
C296 C279 1.574 . S
C296 H290 0.949 . S
C296 C300 1.368 . S
C297 C278 1.429 . S
C297 C291 1.429 . S
C297 C298 1.523 . S
C298 C279 1.368 . S
C298 C292 1.368 . S
C298 C297 1.523 . S
C299 C283 1.429 . S
C299 C295 1.429 . S
C299 C300 1.523 . S
C300 C284 1.368 . S
C300 C296 1.368 . S
C300 C299 1.523 . S
H301 C276 0.950 . S
H302 C278 0.950 . S
H303 C279 0.949 . S
H304 C281 0.950 . S
H305 C283 0.950 . S
C306 C307 1.349 . S
C306 C308 1.327 . S
C306 H331 0.950 . S
C307 C306 1.349 . S
C307 C323 1.349 . S
C308 C306 1.327 . S
C308 C327 1.429 . S
C308 H332 0.950 . S
C309 C326 1.574 . S
C309 C328 1.368 . S
C309 H333 0.949 . S
H310 C314 0.949 . S
C311 C312 1.349 . S
C311 C313 1.327 . S
C311 H334 0.950 . S
C312 C311 1.349 . S
C312 C324 1.349 . S
C313 C311 1.327 . S
C313 C329 1.429 . S
C313 H335 0.950 . S
C314 H310 0.949 . S
C314 C322 1.574 . S
C314 C330 1.368 . S
H315 C323 0.950 . S
H316 C321 0.950 . S
H317 C322 0.949 . S
H318 C324 0.950 . S
H319 C325 0.950 . S
H320 C326 0.949 . S
C321 H316 0.950 . S
C321 C323 1.327 . S
C321 C327 1.429 . S
C322 C314 1.574 . S
C322 H317 0.949 . S
C322 C328 1.368 . S
C323 C307 1.349 . S
C323 H315 0.950 . S
C323 C321 1.327 . S
C324 C312 1.349 . S
C324 H318 0.950 . S
C324 C325 1.327 . S
C325 H319 0.950 . S
C325 C324 1.327 . S
C325 C329 1.429 . S
C326 C309 1.574 . S
C326 H320 0.949 . S
C326 C330 1.368 . S
C327 C308 1.429 . S
C327 C321 1.429 . S
C327 C328 1.523 . S
C328 C309 1.368 . S
C328 C322 1.368 . S
C328 C327 1.523 . S
C329 C313 1.429 . S
C329 C325 1.429 . S
C329 C330 1.523 . S
C330 C314 1.368 . S
C330 C326 1.368 . S
C330 C329 1.523 . S
H331 C306 0.950 . S
H332 C308 0.950 . S
H333 C309 0.949 . S
H334 C311 0.950 . S
H335 C313 0.950 . S
C336 C337 1.349 1_655 S
C336 C338 1.327 . S
C336 H361 0.950 . S
C337 C336 1.349 1_455 S
C337 C353 1.349 1_545 S
C338 C336 1.327 . S
C338 C357 1.429 1_655 S
C338 H362 0.950 . S
C339 C356 1.574 . S
C339 C358 1.368 1_565 S
C339 H363 0.949 . S
H340 C344 0.949 . S
C341 C342 1.349 1_565 S
C341 C343 1.327 . S
C341 H364 0.950 . S
C342 C341 1.349 1_545 S
C342 C354 1.349 1_455 S
C343 C341 1.327 . S
C343 C359 1.429 1_565 S
C343 H365 0.950 . S
C344 H340 0.949 . S
C344 C352 1.574 . S
C344 C360 1.368 1_655 S
H345 C353 0.950 . S
H346 C351 0.950 . S
H347 C352 0.949 . S
H348 C354 0.950 . S
H349 C355 0.950 . S
H350 C356 0.949 . S
C351 H346 0.950 . S
C351 C353 1.327 . S
C351 C357 1.429 1_565 S
C352 C344 1.574 . S
C352 H347 0.949 . S
C352 C358 1.368 1_655 S
C353 C337 1.349 1_565 S
C353 H345 0.950 . S
C353 C351 1.327 . S
C354 C342 1.349 1_655 S
C354 H348 0.950 . S
C354 C355 1.327 . S
C355 H349 0.950 . S
C355 C354 1.327 . S
C355 C359 1.429 1_655 S
C356 C339 1.574 . S
C356 H350 0.949 . S
C356 C360 1.368 1_565 S
C357 C338 1.429 1_455 S
C357 C351 1.429 1_545 S
C357 C358 1.523 . S
C358 C339 1.368 1_545 S
C358 C352 1.368 1_455 S
C358 C357 1.523 . S
C359 C343 1.429 1_545 S
C359 C355 1.429 1_455 S
C359 C360 1.523 . S
C360 C344 1.368 1_455 S
C360 C356 1.368 1_545 S
C360 C359 1.523 . S
H361 C336 0.950 . S
H362 C338 0.950 . S
H363 C339 0.949 . S
H364 C341 0.950 . S
H365 C343 0.950 . S
C366 C367 1.349 1_665 S
C366 C368 1.327 . S
C366 H391 0.950 . S
C367 C366 1.349 1_445 S
C367 C383 1.349 . S
C368 C366 1.327 . S
C368 C387 1.429 1_665 S
C368 H392 0.950 . S
C369 C386 1.574 . S
C369 C388 1.368 . S
C369 H393 0.949 . S
H370 C374 0.949 . S
C371 C372 1.349 . S
C371 C373 1.327 . S
C371 H394 0.950 . S
C372 C371 1.349 . S
C372 C384 1.349 1_445 S
C373 C371 1.327 . S
C373 C389 1.429 . S
C373 H395 0.950 . S
C374 H370 0.949 . S
C374 C382 1.574 . S
C374 C390 1.368 1_665 S
H375 C383 0.950 . S
H376 C381 0.950 . S
H377 C382 0.949 . S
H378 C384 0.950 . S
H379 C385 0.950 . S
H380 C386 0.949 . S
C381 H376 0.950 . S
C381 C383 1.327 . S
C381 C387 1.429 . S
C382 C374 1.574 . S
C382 H377 0.949 . S
C382 C388 1.368 1_665 S
C383 C367 1.349 . S
C383 H375 0.950 . S
C383 C381 1.327 . S
C384 C372 1.349 1_665 S
C384 H378 0.950 . S
C384 C385 1.327 . S
C385 H379 0.950 . S
C385 C384 1.327 . S
C385 C389 1.429 1_665 S
C386 C369 1.574 . S
C386 H380 0.949 . S
C386 C390 1.368 . S
C387 C368 1.429 1_445 S
C387 C381 1.429 . S
C387 C388 1.523 . S
C388 C369 1.368 . S
C388 C382 1.368 1_445 S
C388 C387 1.523 . S
C389 C373 1.429 . S
C389 C385 1.429 1_445 S
C389 C390 1.523 . S
C390 C374 1.368 1_445 S
C390 C386 1.368 . S
C390 C389 1.523 . S
H391 C366 0.950 . S
H392 C368 0.950 . S
H393 C369 0.949 . S
H394 C371 0.950 . S
H395 C373 0.950 . S
C396 C397 1.349 . S
C396 C398 1.327 . S
C396 H421 0.950 . S
C397 C396 1.349 . S
C397 C413 1.349 . S
C398 C396 1.327 . S
C398 C417 1.429 . S
C398 H422 0.950 . S
C399 C416 1.574 . S
C399 C418 1.368 . S
C399 H423 0.949 . S
H400 C404 0.949 . S
C401 C402 1.349 . S
C401 C403 1.327 . S
C401 H424 0.950 . S
C402 C401 1.349 . S
C402 C414 1.349 . S
C403 C401 1.327 . S
C403 C419 1.429 . S
C403 H425 0.950 . S
C404 H400 0.949 . S
C404 C412 1.574 . S
C404 C420 1.368 . S
H405 C413 0.950 . S
H406 C411 0.950 . S
H407 C412 0.949 . S
H408 C414 0.950 . S
H409 C415 0.950 . S
H410 C416 0.949 . S
C411 H406 0.950 . S
C411 C413 1.327 . S
C411 C417 1.429 . S
C412 C404 1.574 . S
C412 H407 0.949 . S
C412 C418 1.368 . S
C413 C397 1.349 . S
C413 H405 0.950 . S
C413 C411 1.327 . S
C414 C402 1.349 . S
C414 H408 0.950 . S
C414 C415 1.327 . S
C415 H409 0.950 . S
C415 C414 1.327 . S
C415 C419 1.429 . S
C416 C399 1.574 . S
C416 H410 0.949 . S
C416 C420 1.368 . S
C417 C398 1.429 . S
C417 C411 1.429 . S
C417 C418 1.523 . S
C418 C399 1.368 . S
C418 C412 1.368 . S
C418 C417 1.523 . S
C419 C403 1.429 . S
C419 C415 1.429 . S
C419 C420 1.523 . S
C420 C404 1.368 . S
C420 C416 1.368 . S
C420 C419 1.523 . S
H421 C396 0.950 . S
H422 C398 0.950 . S
H423 C399 0.949 . S
H424 C401 0.950 . S
H425 C403 0.950 . S
C426 C427 1.349 . S
C426 C428 1.327 . S
C426 H451 0.950 . S
C427 C426 1.349 . S
C427 C443 1.349 . S
C428 C426 1.327 . S
C428 C447 1.429 . S
C428 H452 0.950 . S
C429 C446 1.574 . S
C429 C448 1.368 . S
C429 H453 0.949 . S
H430 C434 0.949 . S
C431 C432 1.349 . S
C431 C433 1.327 . S
C431 H454 0.950 . S
C432 C431 1.349 . S
C432 C444 1.349 . S
C433 C431 1.327 . S
C433 C449 1.429 . S
C433 H455 0.950 . S
C434 H430 0.949 . S
C434 C442 1.574 . S
C434 C450 1.368 . S
H435 C443 0.950 . S
H436 C441 0.950 . S
H437 C442 0.949 . S
H438 C444 0.950 . S
H439 C445 0.950 . S
H440 C446 0.949 . S
C441 H436 0.950 . S
C441 C443 1.327 . S
C441 C447 1.429 . S
C442 C434 1.574 . S
C442 H437 0.949 . S
C442 C448 1.368 . S
C443 C427 1.349 . S
C443 H435 0.950 . S
C443 C441 1.327 . S
C444 C432 1.349 . S
C444 H438 0.950 . S
C444 C445 1.327 . S
C445 H439 0.950 . S
C445 C444 1.327 . S
C445 C449 1.429 . S
C446 C429 1.574 . S
C446 H440 0.949 . S
C446 C450 1.368 . S
C447 C428 1.429 . S
C447 C441 1.429 . S
C447 C448 1.523 . S
C448 C429 1.368 . S
C448 C442 1.368 . S
C448 C447 1.523 . S
C449 C433 1.429 . S
C449 C445 1.429 . S
C449 C450 1.523 . S
C450 C434 1.368 . S
C450 C446 1.368 . S
C450 C449 1.523 . S
H451 C426 0.950 . S
H452 C428 0.950 . S
H453 C429 0.949 . S
H454 C431 0.950 . S
H455 C433 0.950 . S
C102 C91 1.322 . S
C97 C27 1.331 . S
C127 N6 1.244 . S
C132 C82 1.298 . S
C157 C16 1.328 . S
C162 C94 1.321 . S
C187 N14 1.299 . S
C192 C85 1.297 . S
C217 C57 1.331 . S
C222 C73 1.323 . S
C247 N36 1.244 . S
C252 C64 1.298 . S
C282 C76 1.321 . S
C277 C46 1.328 . S
C312 C67 1.297 . S
C307 N44 1.299 . S
C337 C10 1.389 . S
C342 C65 1.393 . S
C367 C1 1.530 . S
C372 C74 1.534 . S
C402 C83 1.393 . S
C397 C40 1.389 . S
C427 C31 1.530 . S
C432 C92 1.534 . S
