# Generated by pormake.
# Topology anh, (6,3)-cn, num edge types: 1
# Building blocks:
#     Node 0, Type 0, BuildingBlock: BETFAJ_clean_sbu_0, # of connection points: 6
#     Node 1, Type 0, BuildingBlock: BETFAJ_clean_sbu_0, # of connection points: 6
#     Node 2, Type 0, BuildingBlock: BETFAJ_clean_sbu_0, # of connection points: 6
#     Node 3, Type 1, BuildingBlock: PAMTOO_clean_linker_0, # of connection points: 3
#     Node 4, Type 1, BuildingBlock: PAMTOO_clean_linker_0, # of connection points: 3
#     Node 5, Type 1, BuildingBlock: PAMTOO_clean_linker_0, # of connection points: 3
#     Node 6, Type 1, BuildingBlock: PAMTOO_clean_linker_0, # of connection points: 3
#     Node 7, Type 1, BuildingBlock: PAMTOO_clean_linker_0, # of connection points: 3
#     Node 8, Type 1, BuildingBlock: PAMTOO_clean_linker_0, # of connection points: 3
#     Edge 9, Type (0, 1), BuildingBlock: UVAHIK_clean_linker_0, # of connection points: 2
#     Edge 10, Type (0, 1), BuildingBlock: UVAHIK_clean_linker_0, # of connection points: 2
#     Edge 11, Type (0, 1), BuildingBlock: UVAHIK_clean_linker_0, # of connection points: 2
#     Edge 12, Type (0, 1), BuildingBlock: UVAHIK_clean_linker_0, # of connection points: 2
#     Edge 13, Type (0, 1), BuildingBlock: UVAHIK_clean_linker_0, # of connection points: 2
#     Edge 14, Type (0, 1), BuildingBlock: UVAHIK_clean_linker_0, # of connection points: 2
#     Edge 15, Type (0, 1), BuildingBlock: UVAHIK_clean_linker_0, # of connection points: 2
#     Edge 16, Type (0, 1), BuildingBlock: UVAHIK_clean_linker_0, # of connection points: 2
#     Edge 17, Type (0, 1), BuildingBlock: UVAHIK_clean_linker_0, # of connection points: 2
#     Edge 18, Type (0, 1), BuildingBlock: UVAHIK_clean_linker_0, # of connection points: 2
#     Edge 19, Type (0, 1), BuildingBlock: UVAHIK_clean_linker_0, # of connection points: 2
#     Edge 20, Type (0, 1), BuildingBlock: UVAHIK_clean_linker_0, # of connection points: 2
#     Edge 21, Type (0, 1), BuildingBlock: UVAHIK_clean_linker_0, # of connection points: 2
#     Edge 22, Type (0, 1), BuildingBlock: UVAHIK_clean_linker_0, # of connection points: 2
#     Edge 23, Type (0, 1), BuildingBlock: UVAHIK_clean_linker_0, # of connection points: 2
#     Edge 24, Type (0, 1), BuildingBlock: UVAHIK_clean_linker_0, # of connection points: 2
#     Edge 25, Type (0, 1), BuildingBlock: UVAHIK_clean_linker_0, # of connection points: 2
#     Edge 26, Type (0, 1), BuildingBlock: UVAHIK_clean_linker_0, # of connection points: 2
# Relax obj value: 0.135
# Max RMSD: 0.169
# Mean RMSD: 0.121
data_MOF--net-anh--node1-BETFAJ_clean_sbu_0--node2-PAMTOO_clean_linker_0--edge1-UVAHIK_clean_linker_0
_symmetry_space_group_name_H-M    P1
_symmetry_Int_Tables_number       1
_symmetry_cell_setting            triclinic
loop_
_symmetry_equiv_pos_as_xyz
'x, y, z'
_cell_length_a     40.649056
_cell_length_b     47.014854
_cell_length_c     63.65918
_cell_angle_alpha  87.677548
_cell_angle_beta   92.354953
_cell_angle_gamma 128.04451
loop_
_atom_site_label
_atom_site_type_symbol
_atom_site_fract_x
_atom_site_fract_y
_atom_site_fract_z
_atom_type_partial_charge
Sm0 Sm 0.13825 0.5404 0.14793 0.0
Sm1 Sm 0.09295 0.56626 0.16568 0.0
C2 C 0.18347 0.53023 0.1257 0.0
C3 C 0.22494 0.53968 0.1285 0.0
C4 C 0.23752 0.52555 0.11494 0.0
C5 C 0.27311 0.52829 0.1198 0.0
C6 C 0.29647 0.54508 0.13838 0.0
C7 C 0.28522 0.56137 0.1512 0.0
C8 C 0.2496 0.55867 0.14628 0.0
C9 C 0.13748 0.53907 0.19105 0.0
C10 C 0.1904 0.6283 0.15712 0.0
C11 C 1.04518 0.57179 0.18904 0.0
C12 C 1.00087 0.54474 0.19391 0.0
C13 C 0.9868 0.5416 0.21425 0.0
C14 C 0.9454 0.5133 0.21939 0.0
C15 C 0.91767 0.4877 0.20425 0.0
C16 C 0.93215 0.49119 0.1839 0.0
C17 C 0.97331 0.51921 0.17884 0.0
C18 C 0.09465 0.56682 0.1224 0.0
C19 C 1.04038 0.4792 0.15636 0.0
O20 O 0.18205 0.55703 0.12196 0.0
O21 O 0.15637 0.50673 0.13952 0.0
O22 O 0.14294 0.56363 0.17918 0.0
O23 O 0.13578 0.51531 0.18035 0.0
O24 O 0.1884 0.60342 0.14663 0.0
O25 O 0.15852 0.61992 0.16805 0.0
O26 O 0.06919 0.56416 0.19689 0.0
O27 O 0.05367 0.5836 0.16949 0.0
O28 O 0.08821 0.54243 0.13472 0.0
O29 O 0.09803 0.5919 0.13268 0.0
O30 O 1.04418 0.50359 0.16821 0.0
O31 O 0.07073 0.48847 0.14378 0.0
H32 H 0.21853 0.5106 0.10125 0.0
H33 H 0.2805 0.51494 0.10975 0.0
H34 H 0.30278 0.57467 0.16551 0.0
H35 H 0.24002 0.56964 0.15693 0.0
H36 H 1.00798 0.56066 0.2262 0.0
H37 H 0.93521 0.5113 0.23521 0.0
H38 H 0.91152 0.47258 0.17166 0.0
H39 H 0.98369 0.52063 0.16315 0.0
Sm40 Sm 0.63992 0.02929 0.48274 0.0
Sm41 Sm 0.58728 0.05134 0.47012 0.0
C42 C 0.67163 0.99903 0.50081 0.0
C43 C 0.66267 0.96344 0.50192 0.0
C44 C 0.65907 0.94752 0.52167 0.0
C45 C 0.6511 0.91407 0.52323 0.0
C46 C 0.64685 0.89595 0.50505 0.0
C47 C 0.65038 0.91188 0.48525 0.0
C48 C 0.65802 0.94525 0.48368 0.0
C49 C 0.63641 0.03879 0.44005 0.0
C50 C 0.53874 0.96615 0.47269 0.0
C51 C 0.55592 0.08331 0.45455 0.0
C52 C 0.56303 0.11711 0.45934 0.0
C53 C 0.55927 0.1364 0.44338 0.0
C54 C 0.56657 0.16881 0.4478 0.0
C55 C 0.57766 0.18245 0.46833 0.0
C56 C 0.58163 0.163 0.48424 0.0
C57 C 0.57465 0.13081 0.47976 0.0
C58 C 0.59265 0.04295 0.51288 0.0
C59 C 0.68933 0.11455 0.47773 0.0
O60 O 0.64537 1.00144 0.51014 0.0
O61 O 0.68443 0.01688 0.48288 0.0
O62 O 0.60568 0.02324 0.45205 0.0
O63 O 0.67003 0.04842 0.45023 0.0
O64 O 0.57208 0.97489 0.48368 0.0
O65 O 0.53917 0.99133 0.46242 0.0
O66 O 0.58709 0.08694 0.44605 0.0
O67 O 0.53777 0.05796 0.46913 0.0
O68 O 0.62269 0.05859 0.50049 0.0
O69 O 0.55831 0.03195 0.503 0.0
O70 O 0.65482 0.10522 0.46783 0.0
O71 O 0.69021 0.09007 0.48798 0.0
H72 H 0.66267 0.9611 0.53593 0.0
H73 H 0.64906 0.90269 0.53871 0.0
H74 H 0.64688 0.89838 0.47098 0.0
H75 H 0.66037 0.95679 0.46822 0.0
H76 H 0.55083 0.12646 0.42747 0.0
H77 H 0.56392 0.18332 0.43507 0.0
H78 H 0.58952 0.17231 0.50027 0.0
H79 H 0.57817 0.11652 0.4923 0.0
Sm80 Sm 0.63507 0.56854 0.84492 0.0
Sm81 Sm 0.57676 0.48887 0.84874 0.0
C82 C 0.67425 0.63696 0.83328 0.0
C83 C 0.66591 0.66348 0.83087 0.0
C84 C 0.65886 0.67226 0.81071 0.0
C85 C 0.65167 0.69765 0.80803 0.0
C86 C 0.65169 0.71512 0.82544 0.0
C87 C 0.65908 0.70659 0.84563 0.0
C88 C 0.66609 0.68101 0.84833 0.0
C89 C 0.6201 0.54221 0.88557 0.0
C90 C 0.53133 0.52755 0.84799 0.0
C91 C 0.53937 0.42037 0.85909 0.0
C92 C 0.54653 0.39408 0.85448 0.0
C93 C 0.5464 0.37315 0.87085 0.0
C94 C 0.55401 0.34866 0.86679 0.0
C95 C 0.56169 0.34447 0.8462 0.0
C96 C 0.56186 0.36561 0.82985 0.0
C97 C 0.55461 0.39028 0.83395 0.0
C98 C 0.59023 0.51368 0.80791 0.0
C99 C 0.68129 0.53063 0.84688 0.0
O100 O 0.65482 0.61032 0.82005 0.0
O101 O 0.67674 0.6269 0.85237 0.0
O102 O 0.59311 0.53122 0.87108 0.0
O103 O 0.65705 0.56905 0.87916 0.0
O104 O 0.56885 0.5567 0.8419 0.0
O105 O 0.52702 0.49803 0.85409 0.0
O106 O 0.56738 0.44704 0.87124 0.0
O107 O 0.52696 0.4306 0.84332 0.0
O108 O 0.61835 0.52583 0.82204 0.0
O109 O 0.55398 0.48698 0.81498 0.0
O110 O 0.64303 0.50073 0.85132 0.0
O111 O 0.68642 0.56084 0.84195 0.0
H112 H 0.65917 0.65964 0.79693 0.0
H113 H 0.64683 0.70409 0.79224 0.0
H114 H 0.65907 0.71946 0.85936 0.0
H115 H 0.67172 0.67508 0.86408 0.0
H116 H 0.54066 0.37593 0.88684 0.0
H117 H 0.55431 0.33332 0.87984 0.0
H118 H 0.56705 0.36281 0.81377 0.0
H119 H 0.55529 0.40632 0.82102 0.0
H120 H 0.68634 0.12546 0.21653 0.0
H121 H 0.58666 0.01267 0.20666 0.0
H122 H 0.64957 0.08445 0.15364 0.0
H123 H 0.55672 0.01519 0.14054 0.0
C124 C 0.55245 0.0068 0.1574 0.0
O125 O 0.59016 0.0169 0.1658 0.0
H126 H 0.54243 0.02108 0.16518 0.0
C127 C 0.66637 0.10321 0.20591 0.0
C128 C 0.67163 0.10963 0.18411 0.0
C129 C 0.6361 0.06845 0.21427 0.0
C130 C 0.61006 0.03971 0.20051 0.0
C131 C 0.61484 0.04539 0.17872 0.0
C132 C 0.64592 0.08027 0.1705 0.0
H133 H 0.6241 0.59581 0.58535 0.0
H134 H 0.63225 0.51016 0.57651 0.0
H135 H 0.62748 0.56595 0.52281 0.0
H136 H 0.57829 0.48901 0.51595 0.0
C137 C 0.59198 0.48187 0.52856 0.0
O138 O 0.62942 0.51321 0.53537 0.0
H139 H 0.56955 0.46821 0.54169 0.0
C140 C 0.62574 0.57908 0.5749 0.0
C141 C 0.62573 0.58446 0.55303 0.0
C142 C 0.6284 0.55263 0.58352 0.0
C143 C 0.63113 0.53127 0.57009 0.0
C144 C 0.63036 0.5359 0.54823 0.0
C145 C 0.6284 0.56284 0.53973 0.0
H146 H 1.03231 0.53332 0.8955 0.0
H147 H 0.14272 0.54024 0.89389 0.0
H148 H 0.07846 0.53206 0.83595 0.0
H149 H 0.13587 0.49732 0.83735 0.0
C150 C 0.15139 0.5119 0.85221 0.0
O151 O 0.14685 0.53925 0.85359 0.0
H152 H 0.13362 0.49148 0.86503 0.0
C153 C 0.0545 0.53346 0.8865 0.0
C154 C 0.04998 0.53184 0.86453 0.0
C155 C 0.0874 0.53638 0.89717 0.0
C156 C 0.11723 0.53779 0.88567 0.0
C157 C 0.11467 0.53567 0.86368 0.0
C158 C 0.08067 0.53293 0.85294 0.0
H159 H 1.04265 0.46644 0.41434 0.0
H160 H 0.1592 0.57237 0.42372 0.0
H161 H 0.08651 0.50689 0.47699 0.0
H162 H 0.14509 0.59222 0.48747 0.0
C163 C 0.15454 0.59727 0.47078 0.0
O164 O 0.15559 0.56997 0.46451 0.0
H165 H 0.1305 0.59708 0.46153 0.0
C166 C 0.06592 0.48774 0.4248 0.0
C167 C 0.05988 0.48262 0.44661 0.0
C168 C 0.10164 0.51979 0.41631 0.0
C169 C 0.13134 0.54748 0.42993 0.0
C170 C 0.12594 0.543 0.45173 0.0
C171 C 0.09046 0.51035 0.46012 0.0
H172 H 0.61543 0.98155 0.73709 0.0
H173 H 0.62008 0.07431 0.74537 0.0
H174 H 0.62118 0.0172 0.79942 0.0
H175 H 0.57108 0.04091 0.8063 0.0
C176 C 0.58267 0.06116 0.79321 0.0
O177 O 0.61999 0.07019 0.7865 0.0
H178 H 0.55879 0.04886 0.78023 0.0
C179 C 0.61673 1.00002 0.74743 0.0
C180 C 0.61844 0.99584 0.76934 0.0
C181 C 0.61768 0.02835 0.73864 0.0
C182 C 0.6201 0.05268 0.75193 0.0
C183 C 0.62085 0.04831 0.7738 0.0
C184 C 0.62075 0.02036 0.78248 0.0
H185 H 0.56668 0.3635 0.08879 0.0
H186 H 0.46889 0.37263 0.09735 0.0
H187 H 0.50776 0.33782 0.14868 0.0
H188 H 0.41238 0.31191 0.15269 0.0
C189 C 0.41922 0.33129 0.13971 0.0
O190 O 0.46174 0.35619 0.1374 0.0
H191 H 0.40362 0.31581 0.12504 0.0
C192 C 0.54261 0.35945 0.09836 0.0
C193 C 0.53965 0.34848 0.11956 0.0
C194 C 0.51725 0.36829 0.09002 0.0
C195 C 0.48794 0.36497 0.10309 0.0
C196 C 0.48419 0.35318 0.12401 0.0
C197 C 0.50926 0.34432 0.13205 0.0
C198 C 0.32691 0.52836 0.16643 0.0
C199 C 0.32791 0.54035 0.1457 0.0
C200 C 0.34788 0.51419 0.17189 0.0
C201 C 0.41747 0.49566 0.15082 0.0
H202 H 0.33683 0.40087 0.17624 0.0
C203 C 0.40213 0.37226 0.12823 0.0
C204 C 0.40401 0.35226 0.1445 0.0
C205 C 0.39789 0.39854 0.13281 0.0
C206 C 0.35996 0.42747 0.16947 0.0
H207 H 0.35582 0.55128 0.11524 0.0
H208 H 0.39126 0.52568 0.12446 0.0
H209 H 0.32617 0.44638 0.17765 0.0
H210 H 0.40235 0.34342 0.17824 0.0
H211 H 0.39292 0.38868 0.18624 0.0
H212 H 0.44936 0.47544 0.14128 0.0
C213 C 0.37461 0.52722 0.13663 0.0
C214 C 0.35414 0.45372 0.17039 0.0
C215 C 0.35389 0.54158 0.13122 0.0
C216 C 0.39995 0.35798 0.16542 0.0
C217 C 0.39502 0.38398 0.17 0.0
C218 C 0.42291 0.46925 0.14966 0.0
C219 C 0.36998 0.51158 0.1567 0.0
C220 C 0.38193 0.48762 0.16031 0.0
C221 C 0.39523 0.40515 0.15374 0.0
C222 C 0.39333 0.43458 0.15827 0.0
H223 H 0.30716 0.52705 0.17798 0.0
H224 H 0.34449 0.50308 0.18761 0.0
H225 H 0.43991 0.52174 0.14332 0.0
H226 H 0.40609 0.36878 0.11205 0.0
H227 H 0.39753 0.41428 0.12001 0.0
C228 C 0.765 0.16437 0.48723 0.0
C229 C 0.72739 0.15312 0.47709 0.0
C230 C 0.80101 0.20057 0.48589 0.0
C231 C 0.84791 0.28288 0.45235 0.0
H232 H 0.92327 0.33333 0.49989 0.0
C233 C 0.98224 0.4349 0.44591 0.0
C234 C 1.02143 0.44787 0.45461 0.0
C235 C 0.94651 0.39993 0.45061 0.0
C236 C 0.90281 0.31957 0.48639 0.0
H237 H 0.69824 0.17165 0.45799 0.0
H238 H 0.76055 0.23432 0.45575 0.0
H239 H 0.86118 0.27032 0.50414 0.0
H240 H 0.05359 0.43479 0.47577 0.0
H241 H 0.99109 0.37322 0.48386 0.0
H242 H 0.88937 0.33152 0.43447 0.0
C243 C 0.76252 0.21516 0.4645 0.0
C244 C 0.86715 0.28339 0.48883 0.0
C245 C 0.7266 0.17912 0.46589 0.0
C246 C 1.02373 0.4256 0.46896 0.0
C247 C 0.98786 0.39029 0.47355 0.0
C248 C 0.88347 0.31884 0.44989 0.0
C249 C 0.80037 0.22639 0.4743 0.0
C250 C 0.83901 0.26466 0.47186 0.0
C251 C 0.94891 0.37663 0.46397 0.0
C252 C 0.9113 0.33793 0.46689 0.0
H253 H 0.76682 0.14515 0.49601 0.0
H254 H 0.82962 0.20814 0.49351 0.0
H255 H 0.82759 0.26918 0.43879 0.0
H256 H 0.97943 0.45159 0.43497 0.0
H257 H 0.91702 0.39093 0.44339 0.0
C258 C 0.66962 0.77534 0.8331 0.0
C259 C 0.64465 0.7425 0.82237 0.0
C260 C 0.66459 0.80197 0.82913 0.0
C261 C 0.6249 0.8317 0.78791 0.0
H262 H 0.63198 0.8904 0.83168 0.0
C263 C 0.58985 0.93103 0.76973 0.0
C264 C 0.61756 0.96568 0.7782 0.0
C265 C 0.59118 0.90323 0.77668 0.0
C266 C 0.63028 0.87441 0.81928 0.0
H267 H 0.59345 0.71115 0.79987 0.0
H268 H 0.58454 0.75741 0.79302 0.0
H269 H 0.63788 0.84268 0.841 0.0
H270 H 0.66748 0.99806 0.80114 0.0
H271 H 0.67004 0.94938 0.81327 0.0
H272 H 0.61767 0.86339 0.76617 0.0
C273 C 0.60865 0.76297 0.80415 0.0
C274 C 0.63366 0.8471 0.82461 0.0
C275 C 0.61373 0.73644 0.80808 0.0
C276 C 0.6456 0.97156 0.7944 0.0
C277 C 0.64702 0.94369 0.80134 0.0
C278 C 0.62153 0.8589 0.7826 0.0
C279 C 0.63444 0.79627 0.81437 0.0
C280 C 0.63082 0.82533 0.80897 0.0
C281 C 0.62035 0.90939 0.79225 0.0
C282 C 0.62398 0.8805 0.7982 0.0
H283 H 0.69397 0.78094 0.84406 0.0
H284 H 0.68522 0.82745 0.83711 0.0
H285 H 0.62353 0.816 0.77542 0.0
H286 H 0.56729 0.92547 0.75754 0.0
H287 H 0.56953 0.87691 0.7697 0.0
C288 C 0.85095 0.42531 0.19916 0.0
C289 C 0.87284 0.45913 0.20868 0.0
C290 C 0.80746 0.40275 0.19763 0.0
C291 C 0.73271 0.42052 0.19137 0.0
H292 H 0.65832 0.32012 0.17504 0.0
C293 C 0.61511 0.37764 0.12574 0.0
C294 C 0.57321 0.34881 0.12997 0.0
C295 C 0.64702 0.38373 0.13885 0.0
C296 C 0.67859 0.34806 0.17979 0.0
H297 H 0.86616 0.49292 0.22727 0.0
H298 H 0.79025 0.45271 0.22553 0.0
H299 H 0.72029 0.34195 0.19714 0.0
H300 H 0.53227 0.30176 0.15007 0.0
H301 H 0.58864 0.31277 0.17322 0.0
H302 H 0.69192 0.42696 0.17368 0.0
C303 C 0.80673 0.4444 0.21833 0.0
C304 C 0.71403 0.3606 0.19237 0.0
C305 C 0.85031 0.46733 0.21952 0.0
C306 C 0.56427 0.32444 0.14658 0.0
C307 C 0.59641 0.33062 0.15978 0.0
C308 C 0.69755 0.40804 0.17889 0.0
C309 C 0.78508 0.41338 0.20591 0.0
C310 C 0.74237 0.39735 0.1976 0.0
C311 C 0.6378 0.36127 0.15652 0.0
C312 C 0.67119 0.37217 0.17224 0.0
H313 H 0.86751 0.41762 0.19134 0.0
H314 H 0.792 0.37892 0.18813 0.0
H315 H 0.75382 0.44905 0.19476 0.0
H316 H 0.62324 0.3972 0.11327 0.0
H317 H 0.67889 0.40715 0.13577 0.0
C318 C 0.49772 0.90061 0.48391 0.0
C319 C 0.50073 0.92762 0.47156 0.0
C320 C 0.4615 0.86451 0.48313 0.0
C321 C 0.34866 0.80802 0.46693 0.0
H322 H 0.3553 0.72922 0.47203 0.0
C323 C 0.20307 0.65993 0.45415 0.0
C324 C 0.19702 0.63392 0.46875 0.0
C325 C 0.24103 0.69501 0.45371 0.0
C326 C 0.35284 0.7509 0.47074 0.0
H327 H 0.46795 0.93741 0.44839 0.0
H328 H 0.40551 0.87475 0.4467 0.0
H329 H 0.4193 0.79157 0.47282 0.0
H330 H 0.22646 0.62385 0.49378 0.0
H331 H 0.29302 0.68514 0.49299 0.0
H332 H 0.28228 0.76739 0.46473 0.0
C333 C 0.43067 0.88141 0.45739 0.0
C334 C 0.38962 0.78676 0.47125 0.0
C335 C 0.46674 0.91747 0.45825 0.0
C336 C 0.23034 0.64338 0.48236 0.0
C337 C 0.26845 0.67846 0.48185 0.0
C338 C 0.31199 0.77224 0.4663 0.0
C339 C 0.42729 0.85434 0.46992 0.0
C340 C 0.38812 0.81592 0.46935 0.0
C341 C 0.27406 0.70498 0.46777 0.0
C342 C 0.3135 0.74313 0.46819 0.0
H343 H 0.52318 0.90737 0.4944 0.0
H344 H 0.46007 0.84471 0.49323 0.0
H345 H 0.3459 0.82952 0.46587 0.0
H346 H 0.17806 0.65337 0.44337 0.0
H347 H 0.2444 0.71445 0.4424 0.0
C348 C 0.59786 0.32567 0.82653 0.0
C349 C 0.569 0.3179 0.84173 0.0
C350 C 0.60363 0.30022 0.82185 0.0
C351 C 0.58935 0.21926 0.84296 0.0
H352 H 0.58757 0.19839 0.78443 0.0
C353 C 0.56726 0.09193 0.81795 0.0
C354 C 0.58822 0.09412 0.80023 0.0
C355 C 0.56897 0.12127 0.8235 0.0
C356 C 0.58891 0.20428 0.80085 0.0
H357 H 0.5236 0.27699 0.86389 0.0
H358 H 0.53435 0.23301 0.85599 0.0
H359 H 0.5835 0.24608 0.79331 0.0
H360 H 0.62654 0.1283 0.7741 0.0
H361 H 0.63073 0.18013 0.78411 0.0
H362 H 0.59489 0.17763 0.85057 0.0
C363 C 0.55266 0.25894 0.84781 0.0
C364 C 0.58645 0.23157 0.80593 0.0
C365 C 0.5466 0.28423 0.85236 0.0
C366 C 0.61081 0.1262 0.78809 0.0
C367 C 0.61276 0.15569 0.79371 0.0
C368 C 0.59218 0.19218 0.8379 0.0
C369 C 0.58101 0.26655 0.8324 0.0
C370 C 0.5861 0.23903 0.82703 0.0
C371 C 0.59154 0.15349 0.81139 0.0
C372 C 0.59142 0.18398 0.81678 0.0
H373 H 0.61627 0.35155 0.81831 0.0
H374 H 0.62606 0.30701 0.81007 0.0
H375 H 0.58978 0.22479 0.85936 0.0
H376 H 0.5488 0.0672 0.82728 0.0
H377 H 0.55148 0.11823 0.83694 0.0
C378 C 0.61067 0.83423 0.52132 0.0
C379 C 0.63952 0.86088 0.5069 0.0
C380 C 0.60573 0.8022 0.52416 0.0
C381 C 0.62838 0.74483 0.5009 0.0
H382 H 0.61958 0.712 0.55874 0.0
C383 C 0.64848 0.63655 0.52838 0.0
C384 C 0.62221 0.61233 0.54441 0.0
C385 C 0.64777 0.66501 0.5219 0.0
C386 C 0.62144 0.72048 0.54247 0.0
H387 H 0.68514 0.87451 0.48378 0.0
H388 H 0.67692 0.81869 0.48893 0.0
H389 H 0.62344 0.76497 0.551 0.0
H390 H 0.57253 0.59731 0.56513 0.0
H391 H 0.57122 0.64671 0.55385 0.0
H392 H 0.6271 0.70039 0.49253 0.0
C393 C 0.65766 0.82232 0.49783 0.0
C394 C 0.6236 0.75087 0.53801 0.0
C395 C 0.66243 0.85433 0.4949 0.0
C396 C 0.59384 0.61605 0.55309 0.0
C397 C 0.5931 0.64436 0.54663 0.0
C398 C 0.62635 0.71437 0.50538 0.0
C399 C 0.62972 0.79612 0.51275 0.0
C400 C 0.62694 0.76339 0.51719 0.0
C401 C 0.62072 0.66967 0.53134 0.0
C402 C 0.62268 0.7018 0.52623 0.0
H403 H 0.59202 0.83823 0.53051 0.0
H404 H 0.58324 0.78226 0.53544 0.0
H405 H 0.63059 0.75358 0.48467 0.0
H406 H 0.67075 0.6344 0.52146 0.0
H407 H 0.66956 0.68418 0.51014 0.0
C408 C 0.75971 0.56132 0.84202 0.0
C409 C 0.71905 0.53023 0.84723 0.0
C410 C 0.79471 0.56119 0.84237 0.0
C411 C 0.82543 0.49791 0.8458 0.0
H412 H 0.93689 0.58684 0.8549 0.0
C413 C 0.9712 0.49825 0.86008 0.0
C414 C 1.01239 0.52917 0.85556 0.0
C415 C 0.93615 0.49812 0.85759 0.0
C416 C 0.90629 0.56156 0.85203 0.0
H417 H 0.68519 0.47422 0.85703 0.0
H418 H 0.74519 0.47395 0.85794 0.0
H419 H 0.87714 0.58709 0.85402 0.0
H420 H 1.0474 0.58491 0.8452 0.0
H421 H 0.98697 0.58463 0.84015 0.0
H422 H 0.85459 0.47235 0.84392 0.0
C423 C 0.75041 0.49877 0.85318 0.0
C424 C 0.87125 0.56168 0.85152 0.0
C425 C 0.71539 0.49892 0.85281 0.0
C426 C 1.01652 0.55999 0.84815 0.0
C427 C 0.98138 0.55997 0.8457 0.0
C428 C 0.86046 0.49778 0.84634 0.0
C429 C 0.79129 0.52992 0.84799 0.0
C430 C 0.8296 0.52984 0.84843 0.0
C431 C 0.94013 0.52918 0.85072 0.0
C432 C 0.90205 0.52957 0.84954 0.0
H433 H 0.7647 0.58616 0.83753 0.0
H434 H 0.82459 0.5859 0.83786 0.0
H435 H 0.79487 0.47259 0.84295 0.0
H436 H 0.96624 0.47429 0.86665 0.0
H437 H 0.90597 0.47376 0.8621 0.0
C438 C 0.23319 0.69167 0.17033 0.0
C439 C 0.22953 0.66637 0.15728 0.0
C440 C 0.26948 0.72756 0.17061 0.0
C441 C 0.38182 0.7883 0.15608 0.0
H442 H 0.36886 0.86267 0.16193 0.0
C443 C 0.51779 0.94286 0.14573 0.0
C444 C 0.51877 0.96628 0.15926 0.0
C445 C 0.48433 0.90571 0.14605 0.0
C446 C 0.37318 0.84228 0.16054 0.0
H447 H 0.26186 0.65929 0.13437 0.0
H448 H 0.32506 0.72226 0.13454 0.0
H449 H 0.30735 0.79968 0.16066 0.0
H450 H 0.48678 0.96893 0.18454 0.0
H451 H 0.42849 0.90426 0.18518 0.0
H452 H 0.44791 0.83138 0.15564 0.0
C453 C 0.29991 0.71412 0.14482 0.0
C454 C 0.33777 0.80599 0.15983 0.0
C455 C 0.2635 0.67799 0.14461 0.0
C456 C 0.48659 0.95158 0.17376 0.0
C457 C 0.45308 0.91455 0.17401 0.0
C458 C 0.41736 0.82476 0.15667 0.0
C459 C 0.3033 0.73951 0.15774 0.0
C460 C 0.34147 0.77836 0.15778 0.0
C461 C 0.45104 0.89118 0.15989 0.0
C462 C 0.4135 0.85223 0.15909 0.0
H463 H 0.20798 0.68379 0.1805 0.0
H464 H 0.27107 0.74591 0.18115 0.0
H465 H 0.38609 0.76789 0.15471 0.0
H466 H 0.54232 0.95351 0.13447 0.0
H467 H 0.4838 0.8886 0.13492 0.0
C468 C 0.55917 0.22457 0.46369 0.0
C469 C 0.58442 0.21647 0.47325 0.0
C470 C 0.56461 0.25588 0.4688 0.0
C471 C 0.60314 0.32065 0.51106 0.0
H472 H 0.60068 0.37995 0.46789 0.0
C473 C 0.62386 0.44953 0.53165 0.0
C474 C 0.59819 0.45578 0.52056 0.0
C475 C 0.62646 0.42288 0.52519 0.0
C476 C 0.60103 0.36351 0.48017 0.0
H477 H 0.63612 0.23582 0.49529 0.0
H478 H 0.64487 0.29002 0.5045 0.0
H479 H 0.59677 0.32839 0.45785 0.0
H480 H 0.554 0.43828 0.49458 0.0
H481 H 0.55783 0.39142 0.48348 0.0
H482 H 0.60611 0.35492 0.53344 0.0
C483 C 0.6207 0.2719 0.49315 0.0
C484 C 0.59889 0.33403 0.47439 0.0
C485 C 0.61554 0.24075 0.4879 0.0
C486 C 0.57484 0.43462 0.50307 0.0
C487 C 0.57719 0.40785 0.49669 0.0
C488 C 0.60491 0.34995 0.51686 0.0
C489 C 0.59518 0.27972 0.48371 0.0
C490 C 0.59957 0.3121 0.48977 0.0
C491 C 0.60285 0.40146 0.50772 0.0
C492 C 0.6035 0.37158 0.5015 0.0
H493 H 0.53444 0.20627 0.45262 0.0
H494 H 0.54409 0.26094 0.46147 0.0
H495 H 0.60324 0.304 0.52328 0.0
H496 H 0.6415 0.46496 0.54547 0.0
H497 H 0.64681 0.41895 0.53397 0.0
C498 C 0.454 0.49797 0.85542 0.0
C499 C 0.49377 0.52819 0.84844 0.0
C500 C 0.41927 0.4984 0.85596 0.0
C501 C 0.37955 0.55145 0.8364 0.0
H502 H 0.29249 0.4901 0.87664 0.0
C503 C 0.22056 0.53384 0.83438 0.0
C504 C 0.19717 0.52393 0.85285 0.0
C505 C 0.25757 0.53661 0.83402 0.0
C506 C 0.31636 0.50786 0.8653 0.0
H507 H 0.52632 0.58299 0.83648 0.0
H508 H 0.46683 0.58393 0.83749 0.0
H509 H 0.35256 0.4905 0.87588 0.0
H510 H 0.19688 0.51 0.88567 0.0
H511 H 0.26078 0.51556 0.8853 0.0
H512 H 0.34345 0.56912 0.82602 0.0
C513 C 0.46197 0.55933 0.84243 0.0
C514 C 0.35128 0.5077 0.86465 0.0
C515 C 0.49677 0.5589 0.84196 0.0
C516 C 0.21364 0.51817 0.8711 0.0
C517 C 0.25046 0.52076 0.87075 0.0
C518 C 0.34447 0.55147 0.83698 0.0
C519 C 0.42207 0.5291 0.8495 0.0
C520 C 0.38406 0.52948 0.85019 0.0
C521 C 0.27318 0.52933 0.8521 0.0
C522 C 0.31173 0.5297 0.85148 0.0
H523 H 0.44947 0.47354 0.86053 0.0
H524 H 0.38981 0.47406 0.86124 0.0
H525 H 0.403 0.56857 0.82476 0.0
H526 H 0.20909 0.53782 0.81979 0.0
H527 H 0.27293 0.54305 0.81914 0.0
C528 C 0.96736 0.4313 0.16919 0.0
C529 C 1.001 0.44123 0.15681 0.0
C530 C 0.93047 0.39556 0.16975 0.0
C531 C 0.88899 0.30133 0.15964 0.0
H532 H 0.78141 0.28142 0.16203 0.0
C533 C 0.73416 0.15425 0.16161 0.0
C534 C 0.70478 0.14714 0.17621 0.0
C535 C 0.76875 0.18998 0.15673 0.0
C536 C 0.81117 0.28642 0.16152 0.0
H537 H 1.02179 0.421 0.1352 0.0
H538 H 0.95759 0.35884 0.13615 0.0
H539 H 0.84474 0.3437 0.15896 0.0
H540 H 0.68747 0.17208 0.19618 0.0
H541 H 0.74738 0.23387 0.18787 0.0
H542 H 0.85551 0.2441 0.16255 0.0
C543 C 0.95983 0.37863 0.14559 0.0
C544 C 0.8476 0.32225 0.15978 0.0
C545 C 0.99666 0.41442 0.14496 0.0
C546 C 0.70971 0.17658 0.18499 0.0
C547 C 0.74401 0.21213 0.18008 0.0
C548 C 0.85255 0.26548 0.16142 0.0
C549 C 0.92619 0.36864 0.15802 0.0
C550 C 0.88712 0.33028 0.15902 0.0
C551 C 0.77456 0.21943 0.16621 0.0
C552 C 0.81311 0.25748 0.16262 0.0
H553 H 0.96951 0.45109 0.1786 0.0
H554 H 0.90557 0.38891 0.17973 0.0
H555 H 0.9188 0.30637 0.15937 0.0
H556 H 0.7314 0.1322 0.15465 0.0
H557 H 0.79125 0.19449 0.14574 0.0
C558 C 0.09548 0.53793 0.09072 0.0
C559 C 0.0967 0.5656 0.09935 0.0
C560 C 0.09653 0.53563 0.06902 0.0
C561 C 0.07237 0.52285 0.023 0.0
H562 H 0.14168 0.60806 0.98732 0.0
C563 C 0.05448 0.51638 0.93267 0.0
C564 C 0.09056 0.53855 0.92054 0.0
C565 C 0.05662 0.51984 0.95447 0.0
C566 C 0.12246 0.58396 -0.00292 0.0
H567 H 0.10061 0.61293 0.09203 0.0
H568 H 0.10169 0.60868 0.05384 0.0
H569 H 0.14349 0.61456 0.0253 0.0
H570 H 0.15744 0.58139 0.92198 0.0
H571 H 0.1614 0.5868 0.96019 0.0
H572 H 0.05201 0.49215 0.99496 0.0
C573 C 0.10044 0.58894 0.06395 0.0
C574 C 0.12306 0.58772 0.01884 0.0
C575 C 0.09958 0.59134 0.0858 0.0
C576 C 0.12909 0.56371 0.93086 0.0
C577 C 0.13126 0.56714 0.95274 0.0
C578 C 0.07186 0.51909 0.0013 0.0
C579 C 0.09857 0.56085 0.05529 0.0
C580 C 0.098 0.5572 0.03208 0.0
C581 C 0.09497 0.54543 0.9648 0.0
C582 C 0.09674 0.54957 0.98802 0.0
H583 H 0.0937 0.51784 0.1008 0.0
H584 H 0.09596 0.51412 0.063 0.0
H585 H 0.05223 0.49875 0.03263 0.0
H586 H 1.02437 0.4964 0.92528 0.0
H587 H 1.02795 0.5029 0.96317 0.0
C588 C 0.66976 0.05969 0.40501 0.0
C589 C 0.63355 0.04161 0.41699 0.0
C590 C 0.66738 0.06221 0.38316 0.0
C591 C 0.59566 0.01893 0.33768 0.0
H592 H 0.67991 0.10959 0.30938 0.0
C593 C 0.59384 0.04206 0.2472 0.0
C594 C 0.63281 0.06253 0.23742 0.0
C595 C 0.59149 0.03863 0.26916 0.0
C596 C 0.65637 0.08396 0.31701 0.0
H597 H 0.56645 0.01213 0.41564 0.0
H598 H 0.56225 0.01647 0.37728 0.0
H599 H 0.68028 0.10581 0.34762 0.0
H600 H 0.69961 0.09378 0.24289 0.0
H601 H 0.69556 0.08754 0.281 0.0
H602 H 0.57214 0.99697 0.30696 0.0
C603 C 0.59242 0.02849 0.38481 0.0
C604 C 0.65656 0.08183 0.33893 0.0
C605 C 0.59485 0.02615 0.40674 0.0
C606 C 0.66919 0.07849 0.24999 0.0
C607 C 0.66685 0.07499 0.27184 0.0
C608 C 0.59555 0.02102 0.31567 0.0
C609 C 0.62871 0.04661 0.3728 0.0
C610 C 0.62659 0.0492 0.34952 0.0
C611 C 0.62808 0.05552 0.28173 0.0
C612 C 0.62632 0.05345 0.30509 0.0
H613 H 0.69999 0.07184 0.41252 0.0
H614 H 0.69583 0.07595 0.37433 0.0
H615 H 0.57233 0.99334 0.3454 0.0
H616 H 0.5653 0.0296 0.2379 0.0
H617 H 0.56114 0.02359 0.27629 0.0
C618 C 0.56484 0.51053 0.77131 0.0
C619 C 0.59818 0.52156 0.78524 0.0
C620 C 0.57069 0.51465 0.74964 0.0
C621 C 0.65167 0.56017 0.70842 0.0
H622 H 0.55921 0.48412 0.67419 0.0
C623 C 0.65821 0.5489 0.61788 0.0
C624 C 0.62625 0.54653 0.60655 0.0
C625 C 0.65698 0.54535 0.63985 0.0
C626 C 0.58527 0.50552 0.68357 0.0
H627 H 0.66412 0.54649 0.78763 0.0
H628 H 0.67426 0.5527 0.74961 0.0
H629 H 0.55371 0.47983 0.71228 0.0
H630 H 0.56758 0.53771 0.60897 0.0
H631 H 0.56479 0.53048 0.64725 0.0
H632 H 0.68332 0.5853 0.67938 0.0
C633 C 0.64368 0.54146 0.75539 0.0
C634 C 0.58206 0.5033 0.7054 0.0
C635 C 0.63791 0.53783 0.77717 0.0
C636 C 0.59261 0.5397 0.61741 0.0
C637 C 0.59096 0.53546 0.63924 0.0
C638 C 0.65509 0.56209 0.68651 0.0
C639 C 0.6099 0.5293 0.74133 0.0
C640 C 0.61483 0.53095 0.71813 0.0
C641 C 0.62328 0.53857 0.65069 0.0
C642 C 0.62158 0.53508 0.67391 0.0
H643 H 0.534 0.49831 0.77716 0.0
H644 H 0.54423 0.50603 0.73941 0.0
H645 H 0.67742 0.5821 0.71764 0.0
H646 H 0.68454 0.55434 0.60978 0.0
H647 H 0.68216 0.5477 0.64837 0.0
C648 C 0.63617 0.0646 0.54597 0.0
C649 C 0.59688 0.04159 0.53591 0.0
C650 C 0.63975 0.06407 0.56791 0.0
C651 C 0.59185 0.00677 0.61414 0.0
H652 H 0.64059 0.09446 0.64494 0.0
C653 C 0.58181 1.00243 0.70409 0.0
C654 C 0.61519 0.03168 0.71556 0.0
C655 C 0.58019 1.00458 0.68219 0.0
C656 C 0.62757 0.06982 0.63665 0.0
H657 H 0.53079 0.99943 0.54067 0.0
H658 H 0.53729 0.99767 0.57904 0.0
H659 H 0.63822 0.09619 0.60656 0.0
H660 H 0.67303 0.08609 0.71338 0.0
H661 H 0.67142 0.08954 0.67499 0.0
H662 H 0.58239 0.9804 0.64388 0.0
C663 C 0.56511 0.01642 0.56996 0.0
C664 C 0.62606 0.07086 0.61466 0.0
C665 C 0.5614 0.01752 0.54808 0.0
C666 C 0.64681 0.06331 0.7048 0.0
C667 C 0.64568 0.06524 0.68282 0.0
C668 C 0.5941 0.00582 0.63608 0.0
C669 C 0.60424 0.03991 0.58006 0.0
C670 C 0.60775 0.03926 0.60326 0.0
C671 C 0.61245 0.03577 0.67117 0.0
C672 C 0.61147 0.03723 0.6477 0.0
H673 H 0.664 0.08342 0.53691 0.0
H674 H 0.67027 0.08228 0.57539 0.0
H675 H 0.578 0.98213 0.60563 0.0
H676 H 0.55686 0.97788 0.71212 0.0
H677 H 0.55347 0.98169 0.67394 0.0
C678 C 0.56844 0.49826 0.91212 0.0
C679 C 0.6102 0.52586 0.90689 0.0
C680 C 0.5585 0.48194 0.93207 0.0
C681 C 0.5451 0.4673 0.97904 0.0
H682 H 0.6093 0.43831 0.00387 0.0
C683 C 0.5249 0.41454 0.06484 0.0
C684 C 0.52481 0.38478 0.06856 0.0
C685 C 0.53469 0.43161 0.04507 0.0
C686 C 0.59094 0.44606 -0.00292 0.0
H687 H 0.67436 0.55808 0.91832 0.0
H688 H 0.65697 0.52942 0.95339 0.0
H689 H 0.62842 0.46921 0.96958 0.0
H690 H 0.53402 0.34918 0.05418 0.0
H691 H 0.55142 0.37922 0.01967 0.0
H692 H 0.50734 0.44385 0.00641 0.0
C693 C 0.63197 0.52036 0.94198 0.0
C694 C 0.60218 0.46412 0.97757 0.0
C695 C 0.64191 0.53689 0.92199 0.0
C696 C 0.53427 0.37227 0.05192 0.0
C697 C 0.5443 0.3895 0.03217 0.0
C698 C 0.53403 0.44947 -0.0014 0.0
C699 C 0.59012 0.49272 0.94722 0.0
C700 C 0.57923 0.47476 0.96829 0.0
C701 C 0.54489 0.41951 0.02858 0.0
C702 C 0.55669 0.43849 0.00779 0.0
H703 H 0.54334 0.48908 0.90074 0.0
H704 H 0.52605 0.4604 0.93552 0.0
H705 H 0.52702 0.47543 0.97237 0.0
H706 H 0.51867 0.42543 0.07737 0.0
H707 H 0.5354 0.45495 0.04287 0.0
C708 C 0.14279 0.56772 0.22457 0.0
C709 C 0.13556 0.53851 0.21416 0.0
C710 C 0.14051 0.56696 0.24647 0.0
C711 C 0.14389 0.52132 0.29442 0.0
H712 H 0.09242 0.55801 0.32034 0.0
C713 C 0.0999 0.49504 0.3818 0.0
C714 C 0.10796 0.52375 0.39325 0.0
C715 C 0.10485 0.49817 0.36005 0.0
C716 C 0.10733 0.54806 0.31335 0.0
H717 H 0.11996 0.48552 0.21834 0.0
H718 H 0.11539 0.48389 0.25652 0.0
H719 H 0.09744 0.56055 0.28215 0.0
H720 H 0.12765 0.57834 0.39084 0.0
H721 H 0.13659 0.58395 0.35273 0.0
H722 H 0.15328 0.50842 0.32561 0.0
C723 C 0.12356 0.50769 0.24788 0.0
C724 C 0.11024 0.54952 0.29146 0.0
C725 C 0.12597 0.50852 0.226 0.0
C726 C 0.12144 0.55584 0.38246 0.0
C727 C 0.12617 0.55891 0.36063 0.0
C728 C 0.14083 0.51973 0.31628 0.0
C729 C 0.13087 0.53692 0.2584 0.0
C730 C 0.12839 0.53601 0.28171 0.0
C731 C 0.11787 0.53007 0.34919 0.0
C732 C 0.12234 0.53292 0.32599 0.0
H733 H 0.1504 0.59125 0.21581 0.0
H734 H 0.14685 0.59013 0.25406 0.0
H735 H 0.15878 0.5113 0.28749 0.0
H736 H 0.08992 0.47011 0.38969 0.0
H737 H 0.09782 0.47534 0.35168 0.0
loop_
_geom_bond_atom_site_label_1
_geom_bond_atom_site_label_2
_geom_bond_distance
_geom_bond_site_symmetry_2
_ccdc_geom_bond_type
Sm0 C2 2.846 . S
Sm0 O20 2.543 . S
Sm0 O21 2.450 . S
Sm0 O22 2.681 1_455 S
Sm0 O23 2.464 . S
Sm0 O24 2.396 . S
Sm0 O28 2.386 . S
Sm0 O31 2.408 1_455 S
Sm1 C11 2.846 . S
Sm1 O22 2.386 . S
Sm1 O25 2.408 1_655 S
Sm1 O26 2.543 . S
Sm1 O27 2.450 . S
Sm1 O28 2.681 1_655 S
Sm1 O29 2.464 . S
Sm1 O30 2.396 . S
C2 Sm0 2.846 . S
C2 C3 1.506 . S
C2 O20 1.261 . S
C2 O21 1.242 . S
C3 C2 1.506 . S
C3 C4 1.358 . S
C3 C8 1.382 . S
C4 C3 1.358 . S
C4 C5 1.385 . S
C4 H32 0.930 . S
C5 C4 1.385 . S
C5 C6 1.395 . S
C5 H33 0.929 . S
C6 C5 1.395 . S
C6 C7 1.335 . S
C7 C6 1.335 . S
C7 C8 1.398 . S
C7 H34 0.930 . S
C8 C3 1.382 . S
C8 C7 1.398 . S
C8 H35 0.929 . S
C9 O22 1.271 1_455 S
C9 O23 1.251 . S
C10 O24 1.252 . S
C10 O25 1.272 . S
C11 Sm1 2.846 . S
C11 C12 1.506 . S
C11 O26 1.261 . S
C11 O27 1.242 . S
C12 C11 1.506 . S
C12 C13 1.358 . S
C12 C17 1.382 . S
C13 C12 1.358 . S
C13 C14 1.385 . S
C13 H36 0.930 . S
C14 C13 1.385 . S
C14 C15 1.395 . S
C14 H37 0.929 . S
C15 C14 1.395 . S
C15 C16 1.335 . S
C16 C15 1.335 . S
C16 C17 1.398 . S
C16 H38 0.930 . S
C17 C12 1.382 . S
C17 C16 1.398 . S
C17 H39 0.929 . S
C18 O28 1.271 . S
C18 O29 1.251 1_455 S
C19 O30 1.252 . S
C19 O31 1.272 . S
O20 Sm0 2.543 . S
O20 C2 1.261 . S
O21 Sm0 2.450 . S
O21 C2 1.242 . S
O22 Sm0 2.681 1_655 S
O22 Sm1 2.386 . S
O22 C9 1.271 1_655 S
O23 Sm0 2.464 . S
O23 C9 1.251 . S
O24 Sm0 2.396 . S
O24 C10 1.252 . S
O25 Sm1 2.408 1_455 S
O25 C10 1.272 . S
O26 Sm1 2.543 . S
O26 C11 1.261 . S
O27 Sm1 2.450 . S
O27 C11 1.242 . S
O28 Sm0 2.386 . S
O28 Sm1 2.681 1_455 S
O28 C18 1.271 . S
O29 Sm1 2.464 . S
O29 C18 1.251 1_655 S
O30 Sm1 2.396 . S
O30 C19 1.252 . S
O31 Sm0 2.408 1_655 S
O31 C19 1.272 . S
H32 C4 0.930 . S
H33 C5 0.929 . S
H34 C7 0.930 . S
H35 C8 0.929 . S
H36 C13 0.930 . S
H37 C14 0.929 . S
H38 C16 0.930 . S
H39 C17 0.929 . S
Sm40 C42 2.846 1_545 S
Sm40 O60 2.543 1_545 S
Sm40 O61 2.450 1_545 S
Sm40 O62 2.681 . S
Sm40 O63 2.464 . S
Sm40 O64 2.396 1_545 S
Sm40 O68 2.386 . S
Sm40 O71 2.408 . S
Sm41 C51 2.846 . S
Sm41 O62 2.386 . S
Sm41 O65 2.408 1_545 S
Sm41 O66 2.543 . S
Sm41 O67 2.450 . S
Sm41 O68 2.681 . S
Sm41 O69 2.464 . S
Sm41 O70 2.396 . S
C42 Sm40 2.846 1_565 S
C42 C43 1.506 . S
C42 O60 1.261 . S
C42 O61 1.242 . S
C43 C42 1.506 . S
C43 C44 1.358 . S
C43 C48 1.382 . S
C44 C43 1.358 . S
C44 C45 1.385 . S
C44 H72 0.930 . S
C45 C44 1.385 . S
C45 C46 1.395 . S
C45 H73 0.929 . S
C46 C45 1.395 . S
C46 C47 1.335 . S
C47 C46 1.335 . S
C47 C48 1.398 . S
C47 H74 0.930 . S
C48 C43 1.382 . S
C48 C47 1.398 . S
C48 H75 0.929 . S
C49 O62 1.271 . S
C49 O63 1.251 . S
C50 O64 1.252 . S
C50 O65 1.272 . S
C51 Sm41 2.846 . S
C51 C52 1.506 . S
C51 O66 1.261 . S
C51 O67 1.242 . S
C52 C51 1.506 . S
C52 C53 1.358 . S
C52 C57 1.382 . S
C53 C52 1.358 . S
C53 C54 1.385 . S
C53 H76 0.930 . S
C54 C53 1.385 . S
C54 C55 1.395 . S
C54 H77 0.929 . S
C55 C54 1.395 . S
C55 C56 1.335 . S
C56 C55 1.335 . S
C56 C57 1.398 . S
C56 H78 0.930 . S
C57 C52 1.382 . S
C57 C56 1.398 . S
C57 H79 0.929 . S
C58 O68 1.271 . S
C58 O69 1.251 . S
C59 O70 1.252 . S
C59 O71 1.272 . S
O60 Sm40 2.543 1_565 S
O60 C42 1.261 . S
O61 Sm40 2.450 1_565 S
O61 C42 1.242 . S
O62 Sm40 2.681 . S
O62 Sm41 2.386 . S
O62 C49 1.271 . S
O63 Sm40 2.464 . S
O63 C49 1.251 . S
O64 Sm40 2.396 1_565 S
O64 C50 1.252 . S
O65 Sm41 2.408 1_565 S
O65 C50 1.272 . S
O66 Sm41 2.543 . S
O66 C51 1.261 . S
O67 Sm41 2.450 . S
O67 C51 1.242 . S
O68 Sm40 2.386 . S
O68 Sm41 2.681 . S
O68 C58 1.271 . S
O69 Sm41 2.464 . S
O69 C58 1.251 . S
O70 Sm41 2.396 . S
O70 C59 1.252 . S
O71 Sm40 2.408 . S
O71 C59 1.272 . S
H72 C44 0.930 . S
H73 C45 0.929 . S
H74 C47 0.930 . S
H75 C48 0.929 . S
H76 C53 0.930 . S
H77 C54 0.929 . S
H78 C56 0.930 . S
H79 C57 0.929 . S
Sm80 C82 2.846 . S
Sm80 O100 2.543 . S
Sm80 O101 2.450 . S
Sm80 O102 2.681 . S
Sm80 O103 2.464 . S
Sm80 O104 2.396 . S
Sm80 O108 2.386 . S
Sm80 O111 2.408 . S
Sm81 C91 2.846 . S
Sm81 O102 2.386 . S
Sm81 O105 2.408 . S
Sm81 O106 2.543 . S
Sm81 O107 2.450 . S
Sm81 O108 2.681 . S
Sm81 O109 2.464 . S
Sm81 O110 2.396 . S
C82 Sm80 2.846 . S
C82 C83 1.506 . S
C82 O100 1.261 . S
C82 O101 1.242 . S
C83 C82 1.506 . S
C83 C84 1.358 . S
C83 C88 1.382 . S
C84 C83 1.358 . S
C84 C85 1.385 . S
C84 H112 0.930 . S
C85 C84 1.385 . S
C85 C86 1.395 . S
C85 H113 0.929 . S
C86 C85 1.395 . S
C86 C87 1.335 . S
C87 C86 1.335 . S
C87 C88 1.398 . S
C87 H114 0.930 . S
C88 C83 1.382 . S
C88 C87 1.398 . S
C88 H115 0.929 . S
C89 O102 1.271 . S
C89 O103 1.251 . S
C90 O104 1.252 . S
C90 O105 1.272 . S
C91 Sm81 2.846 . S
C91 C92 1.506 . S
C91 O106 1.261 . S
C91 O107 1.242 . S
C92 C91 1.506 . S
C92 C93 1.358 . S
C92 C97 1.382 . S
C93 C92 1.358 . S
C93 C94 1.385 . S
C93 H116 0.930 . S
C94 C93 1.385 . S
C94 C95 1.395 . S
C94 H117 0.929 . S
C95 C94 1.395 . S
C95 C96 1.335 . S
C96 C95 1.335 . S
C96 C97 1.398 . S
C96 H118 0.930 . S
C97 C92 1.382 . S
C97 C96 1.398 . S
C97 H119 0.929 . S
C98 O108 1.271 . S
C98 O109 1.251 . S
C99 O110 1.252 . S
C99 O111 1.272 . S
O100 Sm80 2.543 . S
O100 C82 1.261 . S
O101 Sm80 2.450 . S
O101 C82 1.242 . S
O102 Sm80 2.681 . S
O102 Sm81 2.386 . S
O102 C89 1.271 . S
O103 Sm80 2.464 . S
O103 C89 1.251 . S
O104 Sm80 2.396 . S
O104 C90 1.252 . S
O105 Sm81 2.408 . S
O105 C90 1.272 . S
O106 Sm81 2.543 . S
O106 C91 1.261 . S
O107 Sm81 2.450 . S
O107 C91 1.242 . S
O108 Sm80 2.386 . S
O108 Sm81 2.681 . S
O108 C98 1.271 . S
O109 Sm81 2.464 . S
O109 C98 1.251 . S
O110 Sm81 2.396 . S
O110 C99 1.252 . S
O111 Sm80 2.408 . S
O111 C99 1.272 . S
H112 C84 0.930 . S
H113 C85 0.929 . S
H114 C87 0.930 . S
H115 C88 0.929 . S
H116 C93 0.930 . S
H117 C94 0.929 . S
H118 C96 0.930 . S
H119 C97 0.929 . S
H120 C127 0.929 . S
H121 C130 0.930 . S
H122 C132 0.929 . S
H123 C124 0.969 . S
C124 H123 0.969 . S
C124 O125 1.550 . S
C124 H126 0.973 . S
O125 C124 1.550 . S
O125 C131 1.412 . S
H126 C124 0.973 . S
C127 H120 0.929 . S
C127 C128 1.400 . S
C127 C129 1.364 . S
C128 C127 1.400 . S
C128 C132 1.377 . S
C129 C127 1.364 . S
C129 C130 1.374 1_545 S
C130 H121 0.930 . S
C130 C129 1.374 1_565 S
C130 C131 1.383 . S
C131 O125 1.412 . S
C131 C130 1.383 . S
C131 C132 1.394 1_565 S
C132 H122 0.929 . S
C132 C128 1.377 . S
C132 C131 1.394 1_545 S
H133 C140 0.929 . S
H134 C143 0.930 . S
H135 C145 0.929 . S
H136 C137 0.969 . S
C137 H136 0.969 . S
C137 O138 1.550 . S
C137 H139 0.973 . S
O138 C137 1.550 . S
O138 C144 1.412 . S
H139 C137 0.973 . S
C140 H133 0.929 . S
C140 C141 1.400 . S
C140 C142 1.364 . S
C141 C140 1.400 . S
C141 C145 1.377 . S
C142 C140 1.364 . S
C142 C143 1.374 . S
C143 H134 0.930 . S
C143 C142 1.374 . S
C143 C144 1.383 . S
C144 O138 1.412 . S
C144 C143 1.383 . S
C144 C145 1.394 . S
C145 H135 0.929 . S
C145 C141 1.377 . S
C145 C144 1.394 . S
H146 C153 0.929 . S
H147 C156 0.930 . S
H148 C158 0.929 . S
H149 C150 0.969 . S
C150 H149 0.969 . S
C150 O151 1.550 . S
C150 H152 0.973 . S
O151 C150 1.550 . S
O151 C157 1.412 . S
H152 C150 0.973 . S
C153 H146 0.929 . S
C153 C154 1.400 . S
C153 C155 1.364 . S
C154 C153 1.400 . S
C154 C158 1.377 . S
C155 C153 1.364 . S
C155 C156 1.374 . S
C156 H147 0.930 . S
C156 C155 1.374 . S
C156 C157 1.383 . S
C157 O151 1.412 . S
C157 C156 1.383 . S
C157 C158 1.394 . S
C158 H148 0.929 . S
C158 C154 1.377 . S
C158 C157 1.394 . S
H159 C166 0.929 1_655 S
H160 C169 0.930 . S
H161 C171 0.929 . S
H162 C163 0.969 . S
C163 H162 0.969 . S
C163 O164 1.550 . S
C163 H165 0.973 . S
O164 C163 1.550 . S
O164 C170 1.412 . S
H165 C163 0.973 . S
C166 H159 0.929 1_455 S
C166 C167 1.400 1_455 S
C166 C168 1.364 . S
C167 C166 1.400 1_655 S
C167 C171 1.378 1_655 S
C168 C166 1.364 . S
C168 C169 1.374 . S
C169 H160 0.930 . S
C169 C168 1.374 . S
C169 C170 1.383 . S
C170 O164 1.412 . S
C170 C169 1.383 . S
C170 C171 1.394 . S
C171 H161 0.929 . S
C171 C167 1.378 1_455 S
C171 C170 1.394 . S
H172 C179 0.929 . S
H173 C182 0.930 . S
H174 C184 0.929 . S
H175 C176 0.969 . S
C176 H175 0.969 . S
C176 O177 1.550 . S
C176 H178 0.973 . S
O177 C176 1.550 . S
O177 C183 1.412 . S
H178 C176 0.973 . S
C179 H172 0.929 . S
C179 C180 1.400 . S
C179 C181 1.364 1_565 S
C180 C179 1.400 . S
C180 C184 1.377 1_565 S
C181 C179 1.364 1_545 S
C181 C182 1.374 . S
C182 H173 0.930 . S
C182 C181 1.374 . S
C182 C183 1.383 . S
C183 O177 1.412 . S
C183 C182 1.383 . S
C183 C184 1.394 . S
C184 H174 0.929 . S
C184 C180 1.377 1_545 S
C184 C183 1.394 . S
H185 C192 0.929 . S
H186 C195 0.930 . S
H187 C197 0.929 . S
H188 C189 0.969 . S
C189 H188 0.969 . S
C189 O190 1.550 . S
C189 H191 0.973 . S
O190 C189 1.550 . S
O190 C196 1.412 . S
H191 C189 0.973 . S
C192 H185 0.929 . S
C192 C193 1.400 . S
C192 C194 1.364 . S
C193 C192 1.400 . S
C193 C197 1.377 . S
C194 C192 1.364 . S
C194 C195 1.374 . S
C195 H186 0.930 . S
C195 C194 1.374 . S
C195 C196 1.383 . S
C196 O190 1.412 . S
C196 C195 1.383 . S
C196 C197 1.394 . S
C197 H187 0.929 . S
C197 C193 1.377 . S
C197 C196 1.394 . S
C198 C199 1.349 . S
C198 C200 1.327 . S
C198 H223 0.950 . S
C199 C198 1.349 . S
C199 C215 1.349 . S
C200 C198 1.327 . S
C200 C219 1.429 . S
C200 H224 0.950 . S
C201 C218 1.574 . S
C201 C220 1.368 . S
C201 H225 0.949 . S
H202 C206 0.949 . S
C203 C204 1.349 . S
C203 C205 1.327 . S
C203 H226 0.950 . S
C204 C203 1.349 . S
C204 C216 1.349 . S
C205 C203 1.327 . S
C205 C221 1.429 . S
C205 H227 0.950 . S
C206 H202 0.949 . S
C206 C214 1.574 . S
C206 C222 1.368 . S
H207 C215 0.950 . S
H208 C213 0.950 . S
H209 C214 0.949 . S
H210 C216 0.950 . S
H211 C217 0.950 . S
H212 C218 0.949 . S
C213 H208 0.950 . S
C213 C215 1.327 . S
C213 C219 1.429 . S
C214 C206 1.574 . S
C214 H209 0.949 . S
C214 C220 1.368 . S
C215 C199 1.349 . S
C215 H207 0.950 . S
C215 C213 1.327 . S
C216 C204 1.349 . S
C216 H210 0.950 . S
C216 C217 1.327 . S
C217 H211 0.950 . S
C217 C216 1.327 . S
C217 C221 1.429 . S
C218 C201 1.574 . S
C218 H212 0.949 . S
C218 C222 1.368 . S
C219 C200 1.429 . S
C219 C213 1.429 . S
C219 C220 1.523 . S
C220 C201 1.368 . S
C220 C214 1.368 . S
C220 C219 1.523 . S
C221 C205 1.429 . S
C221 C217 1.429 . S
C221 C222 1.523 . S
C222 C206 1.368 . S
C222 C218 1.368 . S
C222 C221 1.523 . S
H223 C198 0.950 . S
H224 C200 0.950 . S
H225 C201 0.949 . S
H226 C203 0.950 . S
H227 C205 0.950 . S
C228 C229 1.349 . S
C228 C230 1.327 . S
C228 H253 0.950 . S
C229 C228 1.349 . S
C229 C245 1.349 . S
C230 C228 1.327 . S
C230 C249 1.429 . S
C230 H254 0.950 . S
C231 C248 1.574 . S
C231 C250 1.368 . S
C231 H255 0.949 . S
H232 C236 0.949 . S
C233 C234 1.349 . S
C233 C235 1.327 . S
C233 H256 0.950 . S
C234 C233 1.349 . S
C234 C246 1.349 . S
C235 C233 1.327 . S
C235 C251 1.429 . S
C235 H257 0.950 . S
C236 H232 0.949 . S
C236 C244 1.574 . S
C236 C252 1.368 . S
H237 C245 0.950 . S
H238 C243 0.950 . S
H239 C244 0.949 . S
H240 C246 0.950 . S
H241 C247 0.950 . S
H242 C248 0.949 . S
C243 H238 0.950 . S
C243 C245 1.327 . S
C243 C249 1.429 . S
C244 C236 1.574 . S
C244 H239 0.949 . S
C244 C250 1.368 . S
C245 C229 1.349 . S
C245 H237 0.950 . S
C245 C243 1.327 . S
C246 C234 1.349 . S
C246 H240 0.950 . S
C246 C247 1.327 . S
C247 H241 0.950 . S
C247 C246 1.327 . S
C247 C251 1.429 . S
C248 C231 1.574 . S
C248 H242 0.949 . S
C248 C252 1.368 . S
C249 C230 1.429 . S
C249 C243 1.429 . S
C249 C250 1.523 . S
C250 C231 1.368 . S
C250 C244 1.368 . S
C250 C249 1.523 . S
C251 C235 1.429 . S
C251 C247 1.429 . S
C251 C252 1.523 . S
C252 C236 1.368 . S
C252 C248 1.368 . S
C252 C251 1.523 . S
H253 C228 0.950 . S
H254 C230 0.950 . S
H255 C231 0.949 . S
H256 C233 0.950 . S
H257 C235 0.950 . S
C258 C259 1.349 . S
C258 C260 1.327 . S
C258 H283 0.950 . S
C259 C258 1.349 . S
C259 C275 1.349 . S
C260 C258 1.327 . S
C260 C279 1.429 . S
C260 H284 0.950 . S
C261 C278 1.574 . S
C261 C280 1.368 . S
C261 H285 0.949 . S
H262 C266 0.949 . S
C263 C264 1.349 . S
C263 C265 1.327 . S
C263 H286 0.950 . S
C264 C263 1.349 . S
C264 C276 1.349 . S
C265 C263 1.327 . S
C265 C281 1.429 . S
C265 H287 0.950 . S
C266 H262 0.949 . S
C266 C274 1.574 . S
C266 C282 1.368 . S
H267 C275 0.950 . S
H268 C273 0.950 . S
H269 C274 0.949 . S
H270 C276 0.950 . S
H271 C277 0.950 . S
H272 C278 0.949 . S
C273 H268 0.950 . S
C273 C275 1.327 . S
C273 C279 1.429 . S
C274 C266 1.574 . S
C274 H269 0.949 . S
C274 C280 1.368 . S
C275 C259 1.349 . S
C275 H267 0.950 . S
C275 C273 1.327 . S
C276 C264 1.349 . S
C276 H270 0.950 . S
C276 C277 1.327 . S
C277 H271 0.950 . S
C277 C276 1.327 . S
C277 C281 1.429 . S
C278 C261 1.574 . S
C278 H272 0.949 . S
C278 C282 1.368 . S
C279 C260 1.429 . S
C279 C273 1.429 . S
C279 C280 1.523 . S
C280 C261 1.368 . S
C280 C274 1.368 . S
C280 C279 1.523 . S
C281 C265 1.429 . S
C281 C277 1.429 . S
C281 C282 1.523 . S
C282 C266 1.368 . S
C282 C278 1.368 . S
C282 C281 1.523 . S
H283 C258 0.950 . S
H284 C260 0.950 . S
H285 C261 0.949 . S
H286 C263 0.950 . S
H287 C265 0.950 . S
C288 C289 1.349 . S
C288 C290 1.327 . S
C288 H313 0.950 . S
C289 C288 1.349 . S
C289 C305 1.349 . S
C290 C288 1.327 . S
C290 C309 1.429 . S
C290 H314 0.950 . S
C291 C308 1.574 . S
C291 C310 1.368 . S
C291 H315 0.949 . S
H292 C296 0.949 . S
C293 C294 1.349 . S
C293 C295 1.327 . S
C293 H316 0.950 . S
C294 C293 1.349 . S
C294 C306 1.349 . S
C295 C293 1.327 . S
C295 C311 1.429 . S
C295 H317 0.950 . S
C296 H292 0.949 . S
C296 C304 1.574 . S
C296 C312 1.368 . S
H297 C305 0.950 . S
H298 C303 0.950 . S
H299 C304 0.949 . S
H300 C306 0.950 . S
H301 C307 0.950 . S
H302 C308 0.949 . S
C303 H298 0.950 . S
C303 C305 1.327 . S
C303 C309 1.429 . S
C304 C296 1.574 . S
C304 H299 0.949 . S
C304 C310 1.368 . S
C305 C289 1.349 . S
C305 H297 0.950 . S
C305 C303 1.327 . S
C306 C294 1.349 . S
C306 H300 0.950 . S
C306 C307 1.327 . S
C307 H301 0.950 . S
C307 C306 1.327 . S
C307 C311 1.429 . S
C308 C291 1.574 . S
C308 H302 0.949 . S
C308 C312 1.368 . S
C309 C290 1.429 . S
C309 C303 1.429 . S
C309 C310 1.523 . S
C310 C291 1.368 . S
C310 C304 1.368 . S
C310 C309 1.523 . S
C311 C295 1.429 . S
C311 C307 1.429 . S
C311 C312 1.523 . S
C312 C296 1.368 . S
C312 C308 1.368 . S
C312 C311 1.523 . S
H313 C288 0.950 . S
H314 C290 0.950 . S
H315 C291 0.949 . S
H316 C293 0.950 . S
H317 C295 0.950 . S
C318 C319 1.349 . S
C318 C320 1.327 . S
C318 H343 0.950 . S
C319 C318 1.349 . S
C319 C335 1.349 . S
C320 C318 1.327 . S
C320 C339 1.429 . S
C320 H344 0.950 . S
C321 C338 1.574 . S
C321 C340 1.368 . S
C321 H345 0.949 . S
H322 C326 0.949 . S
C323 C324 1.349 . S
C323 C325 1.327 . S
C323 H346 0.950 . S
C324 C323 1.349 . S
C324 C336 1.349 . S
C325 C323 1.327 . S
C325 C341 1.429 . S
C325 H347 0.950 . S
C326 H322 0.949 . S
C326 C334 1.574 . S
C326 C342 1.368 . S
H327 C335 0.950 . S
H328 C333 0.950 . S
H329 C334 0.949 . S
H330 C336 0.950 . S
H331 C337 0.950 . S
H332 C338 0.949 . S
C333 H328 0.950 . S
C333 C335 1.327 . S
C333 C339 1.429 . S
C334 C326 1.574 . S
C334 H329 0.949 . S
C334 C340 1.368 . S
C335 C319 1.349 . S
C335 H327 0.950 . S
C335 C333 1.327 . S
C336 C324 1.349 . S
C336 H330 0.950 . S
C336 C337 1.327 . S
C337 H331 0.950 . S
C337 C336 1.327 . S
C337 C341 1.429 . S
C338 C321 1.574 . S
C338 H332 0.949 . S
C338 C342 1.368 . S
C339 C320 1.429 . S
C339 C333 1.429 . S
C339 C340 1.523 . S
C340 C321 1.368 . S
C340 C334 1.368 . S
C340 C339 1.523 . S
C341 C325 1.429 . S
C341 C337 1.429 . S
C341 C342 1.523 . S
C342 C326 1.368 . S
C342 C338 1.368 . S
C342 C341 1.523 . S
H343 C318 0.950 . S
H344 C320 0.950 . S
H345 C321 0.949 . S
H346 C323 0.950 . S
H347 C325 0.950 . S
C348 C349 1.349 . S
C348 C350 1.327 . S
C348 H373 0.950 . S
C349 C348 1.349 . S
C349 C365 1.349 . S
C350 C348 1.327 . S
C350 C369 1.429 . S
C350 H374 0.950 . S
C351 C368 1.574 . S
C351 C370 1.368 . S
C351 H375 0.949 . S
H352 C356 0.949 . S
C353 C354 1.349 . S
C353 C355 1.327 . S
C353 H376 0.950 . S
C354 C353 1.349 . S
C354 C366 1.349 . S
C355 C353 1.327 . S
C355 C371 1.429 . S
C355 H377 0.950 . S
C356 H352 0.949 . S
C356 C364 1.574 . S
C356 C372 1.368 . S
H357 C365 0.950 . S
H358 C363 0.950 . S
H359 C364 0.949 . S
H360 C366 0.950 . S
H361 C367 0.950 . S
H362 C368 0.949 . S
C363 H358 0.950 . S
C363 C365 1.327 . S
C363 C369 1.429 . S
C364 C356 1.574 . S
C364 H359 0.949 . S
C364 C370 1.368 . S
C365 C349 1.349 . S
C365 H357 0.950 . S
C365 C363 1.327 . S
C366 C354 1.349 . S
C366 H360 0.950 . S
C366 C367 1.327 . S
C367 H361 0.950 . S
C367 C366 1.327 . S
C367 C371 1.429 . S
C368 C351 1.574 . S
C368 H362 0.949 . S
C368 C372 1.368 . S
C369 C350 1.429 . S
C369 C363 1.429 . S
C369 C370 1.523 . S
C370 C351 1.368 . S
C370 C364 1.368 . S
C370 C369 1.523 . S
C371 C355 1.429 . S
C371 C367 1.429 . S
C371 C372 1.523 . S
C372 C356 1.368 . S
C372 C368 1.368 . S
C372 C371 1.523 . S
H373 C348 0.950 . S
H374 C350 0.950 . S
H375 C351 0.949 . S
H376 C353 0.950 . S
H377 C355 0.950 . S
C378 C379 1.349 . S
C378 C380 1.327 . S
C378 H403 0.950 . S
C379 C378 1.349 . S
C379 C395 1.349 . S
C380 C378 1.327 . S
C380 C399 1.429 . S
C380 H404 0.950 . S
C381 C398 1.574 . S
C381 C400 1.368 . S
C381 H405 0.949 . S
H382 C386 0.949 . S
C383 C384 1.349 . S
C383 C385 1.327 . S
C383 H406 0.950 . S
C384 C383 1.349 . S
C384 C396 1.349 . S
C385 C383 1.327 . S
C385 C401 1.429 . S
C385 H407 0.950 . S
C386 H382 0.949 . S
C386 C394 1.574 . S
C386 C402 1.368 . S
H387 C395 0.950 . S
H388 C393 0.950 . S
H389 C394 0.949 . S
H390 C396 0.950 . S
H391 C397 0.950 . S
H392 C398 0.949 . S
C393 H388 0.950 . S
C393 C395 1.327 . S
C393 C399 1.429 . S
C394 C386 1.574 . S
C394 H389 0.949 . S
C394 C400 1.368 . S
C395 C379 1.349 . S
C395 H387 0.950 . S
C395 C393 1.327 . S
C396 C384 1.349 . S
C396 H390 0.950 . S
C396 C397 1.327 . S
C397 H391 0.950 . S
C397 C396 1.327 . S
C397 C401 1.429 . S
C398 C381 1.574 . S
C398 H392 0.949 . S
C398 C402 1.368 . S
C399 C380 1.429 . S
C399 C393 1.429 . S
C399 C400 1.523 . S
C400 C381 1.368 . S
C400 C394 1.368 . S
C400 C399 1.523 . S
C401 C385 1.429 . S
C401 C397 1.429 . S
C401 C402 1.523 . S
C402 C386 1.368 . S
C402 C398 1.368 . S
C402 C401 1.523 . S
H403 C378 0.950 . S
H404 C380 0.950 . S
H405 C381 0.949 . S
H406 C383 0.950 . S
H407 C385 0.950 . S
C408 C409 1.349 . S
C408 C410 1.327 . S
C408 H433 0.950 . S
C409 C408 1.349 . S
C409 C425 1.349 . S
C410 C408 1.327 . S
C410 C429 1.429 . S
C410 H434 0.950 . S
C411 C428 1.574 . S
C411 C430 1.368 . S
C411 H435 0.949 . S
H412 C416 0.949 . S
C413 C414 1.349 . S
C413 C415 1.327 . S
C413 H436 0.950 . S
C414 C413 1.349 . S
C414 C426 1.349 . S
C415 C413 1.327 . S
C415 C431 1.429 . S
C415 H437 0.950 . S
C416 H412 0.949 . S
C416 C424 1.574 . S
C416 C432 1.368 . S
H417 C425 0.950 . S
H418 C423 0.950 . S
H419 C424 0.949 . S
H420 C426 0.950 1_455 S
H421 C427 0.950 . S
H422 C428 0.949 . S
C423 H418 0.950 . S
C423 C425 1.327 . S
C423 C429 1.429 . S
C424 C416 1.574 . S
C424 H419 0.949 . S
C424 C430 1.368 . S
C425 C409 1.349 . S
C425 H417 0.950 . S
C425 C423 1.327 . S
C426 C414 1.349 . S
C426 H420 0.950 1_655 S
C426 C427 1.327 . S
C427 H421 0.950 . S
C427 C426 1.327 . S
C427 C431 1.429 . S
C428 C411 1.574 . S
C428 H422 0.949 . S
C428 C432 1.368 . S
C429 C410 1.429 . S
C429 C423 1.429 . S
C429 C430 1.523 . S
C430 C411 1.368 . S
C430 C424 1.368 . S
C430 C429 1.523 . S
C431 C415 1.429 . S
C431 C427 1.429 . S
C431 C432 1.523 . S
C432 C416 1.368 . S
C432 C428 1.368 . S
C432 C431 1.523 . S
H433 C408 0.950 . S
H434 C410 0.950 . S
H435 C411 0.949 . S
H436 C413 0.950 . S
H437 C415 0.950 . S
C438 C439 1.349 . S
C438 C440 1.327 . S
C438 H463 0.950 . S
C439 C438 1.349 . S
C439 C455 1.349 . S
C440 C438 1.327 . S
C440 C459 1.429 . S
C440 H464 0.950 . S
C441 C458 1.574 . S
C441 C460 1.368 . S
C441 H465 0.949 . S
H442 C446 0.949 . S
C443 C444 1.349 . S
C443 C445 1.327 . S
C443 H466 0.950 . S
C444 C443 1.349 . S
C444 C456 1.349 . S
C445 C443 1.327 . S
C445 C461 1.429 . S
C445 H467 0.950 . S
C446 H442 0.949 . S
C446 C454 1.574 . S
C446 C462 1.368 . S
H447 C455 0.950 . S
H448 C453 0.950 . S
H449 C454 0.949 . S
H450 C456 0.950 . S
H451 C457 0.950 . S
H452 C458 0.949 . S
C453 H448 0.950 . S
C453 C455 1.327 . S
C453 C459 1.429 . S
C454 C446 1.574 . S
C454 H449 0.949 . S
C454 C460 1.368 . S
C455 C439 1.349 . S
C455 H447 0.950 . S
C455 C453 1.327 . S
C456 C444 1.349 . S
C456 H450 0.950 . S
C456 C457 1.327 . S
C457 H451 0.950 . S
C457 C456 1.327 . S
C457 C461 1.429 . S
C458 C441 1.574 . S
C458 H452 0.949 . S
C458 C462 1.368 . S
C459 C440 1.429 . S
C459 C453 1.429 . S
C459 C460 1.523 . S
C460 C441 1.368 . S
C460 C454 1.368 . S
C460 C459 1.523 . S
C461 C445 1.429 . S
C461 C457 1.429 . S
C461 C462 1.523 . S
C462 C446 1.368 . S
C462 C458 1.368 . S
C462 C461 1.523 . S
H463 C438 0.950 . S
H464 C440 0.950 . S
H465 C441 0.949 . S
H466 C443 0.950 . S
H467 C445 0.950 . S
C468 C469 1.349 . S
C468 C470 1.327 . S
C468 H493 0.950 . S
C469 C468 1.349 . S
C469 C485 1.349 . S
C470 C468 1.327 . S
C470 C489 1.429 . S
C470 H494 0.950 . S
C471 C488 1.574 . S
C471 C490 1.368 . S
C471 H495 0.949 . S
H472 C476 0.949 . S
C473 C474 1.349 . S
C473 C475 1.327 . S
C473 H496 0.950 . S
C474 C473 1.349 . S
C474 C486 1.349 . S
C475 C473 1.327 . S
C475 C491 1.429 . S
C475 H497 0.950 . S
C476 H472 0.949 . S
C476 C484 1.574 . S
C476 C492 1.368 . S
H477 C485 0.950 . S
H478 C483 0.950 . S
H479 C484 0.949 . S
H480 C486 0.950 . S
H481 C487 0.950 . S
H482 C488 0.949 . S
C483 H478 0.950 . S
C483 C485 1.327 . S
C483 C489 1.429 . S
C484 C476 1.574 . S
C484 H479 0.949 . S
C484 C490 1.368 . S
C485 C469 1.349 . S
C485 H477 0.950 . S
C485 C483 1.327 . S
C486 C474 1.349 . S
C486 H480 0.950 . S
C486 C487 1.327 . S
C487 H481 0.950 . S
C487 C486 1.327 . S
C487 C491 1.429 . S
C488 C471 1.574 . S
C488 H482 0.949 . S
C488 C492 1.368 . S
C489 C470 1.429 . S
C489 C483 1.429 . S
C489 C490 1.523 . S
C490 C471 1.368 . S
C490 C484 1.368 . S
C490 C489 1.523 . S
C491 C475 1.429 . S
C491 C487 1.429 . S
C491 C492 1.523 . S
C492 C476 1.368 . S
C492 C488 1.368 . S
C492 C491 1.523 . S
H493 C468 0.950 . S
H494 C470 0.950 . S
H495 C471 0.949 . S
H496 C473 0.950 . S
H497 C475 0.950 . S
C498 C499 1.349 . S
C498 C500 1.327 . S
C498 H523 0.950 . S
C499 C498 1.349 . S
C499 C515 1.349 . S
C500 C498 1.327 . S
C500 C519 1.429 . S
C500 H524 0.950 . S
C501 C518 1.574 . S
C501 C520 1.368 . S
C501 H525 0.949 . S
H502 C506 0.949 . S
C503 C504 1.349 . S
C503 C505 1.327 . S
C503 H526 0.950 . S
C504 C503 1.349 . S
C504 C516 1.349 . S
C505 C503 1.327 . S
C505 C521 1.429 . S
C505 H527 0.950 . S
C506 H502 0.949 . S
C506 C514 1.574 . S
C506 C522 1.368 . S
H507 C515 0.950 . S
H508 C513 0.950 . S
H509 C514 0.949 . S
H510 C516 0.950 . S
H511 C517 0.950 . S
H512 C518 0.949 . S
C513 H508 0.950 . S
C513 C515 1.327 . S
C513 C519 1.429 . S
C514 C506 1.574 . S
C514 H509 0.949 . S
C514 C520 1.368 . S
C515 C499 1.349 . S
C515 H507 0.950 . S
C515 C513 1.327 . S
C516 C504 1.349 . S
C516 H510 0.950 . S
C516 C517 1.327 . S
C517 H511 0.950 . S
C517 C516 1.327 . S
C517 C521 1.429 . S
C518 C501 1.574 . S
C518 H512 0.949 . S
C518 C522 1.368 . S
C519 C500 1.429 . S
C519 C513 1.429 . S
C519 C520 1.523 . S
C520 C501 1.368 . S
C520 C514 1.368 . S
C520 C519 1.523 . S
C521 C505 1.429 . S
C521 C517 1.429 . S
C521 C522 1.523 . S
C522 C506 1.368 . S
C522 C518 1.368 . S
C522 C521 1.523 . S
H523 C498 0.950 . S
H524 C500 0.950 . S
H525 C501 0.949 . S
H526 C503 0.950 . S
H527 C505 0.950 . S
C528 C529 1.349 . S
C528 C530 1.327 . S
C528 H553 0.950 . S
C529 C528 1.349 . S
C529 C545 1.349 . S
C530 C528 1.327 . S
C530 C549 1.429 . S
C530 H554 0.950 . S
C531 C548 1.574 . S
C531 C550 1.368 . S
C531 H555 0.949 . S
H532 C536 0.949 . S
C533 C534 1.349 . S
C533 C535 1.327 . S
C533 H556 0.950 . S
C534 C533 1.349 . S
C534 C546 1.349 . S
C535 C533 1.327 . S
C535 C551 1.429 . S
C535 H557 0.950 . S
C536 H532 0.949 . S
C536 C544 1.574 . S
C536 C552 1.368 . S
H537 C545 0.950 . S
H538 C543 0.950 . S
H539 C544 0.949 . S
H540 C546 0.950 . S
H541 C547 0.950 . S
H542 C548 0.949 . S
C543 H538 0.950 . S
C543 C545 1.327 . S
C543 C549 1.429 . S
C544 C536 1.574 . S
C544 H539 0.949 . S
C544 C550 1.368 . S
C545 C529 1.349 . S
C545 H537 0.950 . S
C545 C543 1.327 . S
C546 C534 1.349 . S
C546 H540 0.950 . S
C546 C547 1.327 . S
C547 H541 0.950 . S
C547 C546 1.327 . S
C547 C551 1.429 . S
C548 C531 1.574 . S
C548 H542 0.949 . S
C548 C552 1.368 . S
C549 C530 1.429 . S
C549 C543 1.429 . S
C549 C550 1.523 . S
C550 C531 1.368 . S
C550 C544 1.368 . S
C550 C549 1.523 . S
C551 C535 1.429 . S
C551 C547 1.429 . S
C551 C552 1.523 . S
C552 C536 1.368 . S
C552 C548 1.368 . S
C552 C551 1.523 . S
H553 C528 0.950 . S
H554 C530 0.950 . S
H555 C531 0.949 . S
H556 C533 0.950 . S
H557 C535 0.950 . S
C558 C559 1.349 . S
C558 C560 1.327 . S
C558 H583 0.950 . S
C559 C558 1.349 . S
C559 C575 1.349 1_455 S
C560 C558 1.327 . S
C560 C579 1.429 . S
C560 H584 0.950 . S
C561 C578 1.572 1_654 S
C561 C580 1.365 1_655 S
C561 H585 0.953 . S
H562 C566 0.944 1_556 S
C563 C564 1.349 . S
C563 C565 1.327 . S
C563 H586 0.950 . S
C564 C563 1.349 . S
C564 C576 1.349 . S
C565 C563 1.327 . S
C565 C581 1.429 . S
C565 H587 0.950 1_455 S
C566 H562 0.944 1_554 S
C566 C574 1.574 . S
C566 C582 1.368 1_554 S
H567 C575 0.950 . S
H568 C573 0.950 . S
H569 C574 0.949 . S
H570 C576 0.950 . S
H571 C577 0.950 . S
H572 C578 0.949 1_655 S
C573 H568 0.950 . S
C573 C575 1.327 . S
C573 C579 1.429 1_655 S
C574 C566 1.574 . S
C574 H569 0.949 . S
C574 C580 1.368 . S
C575 C559 1.349 1_655 S
C575 H567 0.950 . S
C575 C573 1.327 . S
C576 C564 1.349 . S
C576 H570 0.950 . S
C576 C577 1.327 . S
C577 H571 0.950 . S
C577 C576 1.327 . S
C577 C581 1.429 . S
C578 C561 1.572 1_456 S
C578 H572 0.949 1_455 S
C578 C582 1.368 . S
C579 C560 1.429 . S
C579 C573 1.429 1_455 S
C579 C580 1.523 . S
C580 C561 1.365 1_455 S
C580 C574 1.368 . S
C580 C579 1.523 . S
C581 C565 1.429 . S
C581 C577 1.429 . S
C581 C582 1.523 . S
C582 C566 1.368 1_556 S
C582 C578 1.368 . S
C582 C581 1.523 . S
H583 C558 0.950 . S
H584 C560 0.950 . S
H585 C561 0.953 . S
H586 C563 0.950 . S
H587 C565 0.950 1_655 S
C588 C589 1.349 . S
C588 C590 1.327 . S
C588 H613 0.950 . S
C589 C588 1.349 . S
C589 C605 1.349 1_545 S
C590 C588 1.327 . S
C590 C609 1.429 . S
C590 H614 0.950 . S
C591 C608 1.574 . S
C591 C610 1.368 1_565 S
C591 H615 0.949 . S
H592 C596 0.949 . S
C593 C594 1.349 1_565 S
C593 C595 1.327 . S
C593 H616 0.950 . S
C594 C593 1.349 1_545 S
C594 C606 1.349 . S
C595 C593 1.327 . S
C595 C611 1.429 1_565 S
C595 H617 0.950 . S
C596 H592 0.949 . S
C596 C604 1.574 . S
C596 C612 1.368 . S
H597 C605 0.950 . S
H598 C603 0.950 . S
H599 C604 0.949 . S
H600 C606 0.950 . S
H601 C607 0.950 . S
H602 C608 0.949 . S
C603 H598 0.950 . S
C603 C605 1.327 . S
C603 C609 1.429 1_565 S
C604 C596 1.574 . S
C604 H599 0.949 . S
C604 C610 1.368 . S
C605 C589 1.349 1_565 S
C605 H597 0.950 . S
C605 C603 1.327 . S
C606 C594 1.349 . S
C606 H600 0.950 . S
C606 C607 1.327 . S
C607 H601 0.950 . S
C607 C606 1.327 . S
C607 C611 1.429 . S
C608 C591 1.574 . S
C608 H602 0.949 . S
C608 C612 1.368 1_565 S
C609 C590 1.429 . S
C609 C603 1.429 1_545 S
C609 C610 1.523 . S
C610 C591 1.368 1_545 S
C610 C604 1.368 . S
C610 C609 1.523 . S
C611 C595 1.429 1_545 S
C611 C607 1.429 . S
C611 C612 1.523 . S
C612 C596 1.368 . S
C612 C608 1.368 1_545 S
C612 C611 1.523 . S
H613 C588 0.950 . S
H614 C590 0.950 . S
H615 C591 0.949 . S
H616 C593 0.950 . S
H617 C595 0.950 . S
C618 C619 1.349 . S
C618 C620 1.327 . S
C618 H643 0.950 . S
C619 C618 1.349 . S
C619 C635 1.349 . S
C620 C618 1.327 . S
C620 C639 1.429 . S
C620 H644 0.950 . S
C621 C638 1.574 . S
C621 C640 1.368 . S
C621 H645 0.949 . S
H622 C626 0.949 . S
C623 C624 1.349 . S
C623 C625 1.327 . S
C623 H646 0.950 . S
C624 C623 1.349 . S
C624 C636 1.349 . S
C625 C623 1.327 . S
C625 C641 1.429 . S
C625 H647 0.950 . S
C626 H622 0.949 . S
C626 C634 1.574 . S
C626 C642 1.368 . S
H627 C635 0.950 . S
H628 C633 0.950 . S
H629 C634 0.949 . S
H630 C636 0.950 . S
H631 C637 0.950 . S
H632 C638 0.949 . S
C633 H628 0.950 . S
C633 C635 1.327 . S
C633 C639 1.429 . S
C634 C626 1.574 . S
C634 H629 0.949 . S
C634 C640 1.368 . S
C635 C619 1.349 . S
C635 H627 0.950 . S
C635 C633 1.327 . S
C636 C624 1.349 . S
C636 H630 0.950 . S
C636 C637 1.327 . S
C637 H631 0.950 . S
C637 C636 1.327 . S
C637 C641 1.429 . S
C638 C621 1.574 . S
C638 H632 0.949 . S
C638 C642 1.368 . S
C639 C620 1.429 . S
C639 C633 1.429 . S
C639 C640 1.523 . S
C640 C621 1.368 . S
C640 C634 1.368 . S
C640 C639 1.523 . S
C641 C625 1.429 . S
C641 C637 1.429 . S
C641 C642 1.523 . S
C642 C626 1.368 . S
C642 C638 1.368 . S
C642 C641 1.523 . S
H643 C618 0.950 . S
H644 C620 0.950 . S
H645 C621 0.949 . S
H646 C623 0.950 . S
H647 C625 0.950 . S
C648 C649 1.349 . S
C648 C650 1.327 . S
C648 H673 0.950 . S
C649 C648 1.349 . S
C649 C665 1.349 1_545 S
C650 C648 1.327 . S
C650 C669 1.429 . S
C650 H674 0.950 . S
C651 C668 1.574 . S
C651 C670 1.368 1_565 S
C651 H675 0.949 . S
H652 C656 0.949 . S
C653 C654 1.349 1_565 S
C653 C655 1.327 . S
C653 H676 0.950 . S
C654 C653 1.349 1_545 S
C654 C666 1.349 . S
C655 C653 1.327 . S
C655 C671 1.429 1_565 S
C655 H677 0.950 . S
C656 H652 0.949 . S
C656 C664 1.574 . S
C656 C672 1.368 . S
H657 C665 0.950 . S
H658 C663 0.950 . S
H659 C664 0.949 . S
H660 C666 0.950 . S
H661 C667 0.950 . S
H662 C668 0.949 . S
C663 H658 0.950 . S
C663 C665 1.327 . S
C663 C669 1.429 1_565 S
C664 C656 1.574 . S
C664 H659 0.949 . S
C664 C670 1.368 . S
C665 C649 1.349 1_565 S
C665 H657 0.950 . S
C665 C663 1.327 . S
C666 C654 1.349 . S
C666 H660 0.950 . S
C666 C667 1.327 . S
C667 H661 0.950 . S
C667 C666 1.327 . S
C667 C671 1.429 . S
C668 C651 1.574 . S
C668 H662 0.949 . S
C668 C672 1.368 1_565 S
C669 C650 1.429 . S
C669 C663 1.429 1_545 S
C669 C670 1.523 . S
C670 C651 1.368 1_545 S
C670 C664 1.368 . S
C670 C669 1.523 . S
C671 C655 1.429 1_545 S
C671 C667 1.429 . S
C671 C672 1.523 . S
C672 C656 1.368 . S
C672 C668 1.368 1_545 S
C672 C671 1.523 . S
H673 C648 0.950 . S
H674 C650 0.950 . S
H675 C651 0.949 . S
H676 C653 0.950 . S
H677 C655 0.950 . S
C678 C679 1.349 . S
C678 C680 1.327 . S
C678 H703 0.950 . S
C679 C678 1.349 . S
C679 C695 1.349 . S
C680 C678 1.327 . S
C680 C699 1.429 . S
C680 H704 0.950 . S
C681 C698 1.574 . S
C681 C700 1.368 . S
C681 H705 0.949 . S
H682 C686 0.949 1_554 S
C683 C684 1.349 . S
C683 C685 1.327 . S
C683 H706 0.950 . S
C684 C683 1.349 . S
C684 C696 1.349 . S
C685 C683 1.327 . S
C685 C701 1.429 . S
C685 H707 0.950 . S
C686 H682 0.949 1_556 S
C686 C694 1.574 . S
C686 C702 1.368 1_556 S
H687 C695 0.950 . S
H688 C693 0.950 . S
H689 C694 0.949 . S
H690 C696 0.950 . S
H691 C697 0.950 . S
H692 C698 0.949 1_554 S
C693 H688 0.950 . S
C693 C695 1.327 . S
C693 C699 1.429 . S
C694 C686 1.574 . S
C694 H689 0.949 . S
C694 C700 1.368 . S
C695 C679 1.349 . S
C695 H687 0.950 . S
C695 C693 1.327 . S
C696 C684 1.349 . S
C696 H690 0.950 . S
C696 C697 1.327 . S
C697 H691 0.950 . S
C697 C696 1.327 . S
C697 C701 1.429 . S
C698 C681 1.574 . S
C698 H692 0.949 1_556 S
C698 C702 1.368 1_556 S
C699 C680 1.429 . S
C699 C693 1.429 . S
C699 C700 1.523 . S
C700 C681 1.368 . S
C700 C694 1.368 . S
C700 C699 1.523 . S
C701 C685 1.429 . S
C701 C697 1.429 . S
C701 C702 1.523 . S
C702 C686 1.368 1_554 S
C702 C698 1.368 1_554 S
C702 C701 1.523 . S
H703 C678 0.950 . S
H704 C680 0.950 . S
H705 C681 0.949 . S
H706 C683 0.950 . S
H707 C685 0.950 . S
C708 C709 1.376 . S
C708 C710 1.327 . S
C708 H733 0.950 . S
C709 C708 1.376 . S
C709 C725 1.322 1_655 S
C710 C708 1.327 . S
C710 C729 1.429 1_655 S
C710 H734 0.950 . S
C711 C728 1.574 . S
C711 C730 1.368 . S
C711 H735 0.949 . S
H712 C716 0.949 1_655 S
C713 C714 1.349 . S
C713 C715 1.327 . S
C713 H736 0.950 . S
C714 C713 1.349 . S
C714 C726 1.349 . S
C715 C713 1.327 . S
C715 C731 1.429 . S
C715 H737 0.950 . S
C716 H712 0.949 1_455 S
C716 C724 1.574 1_455 S
C716 C732 1.368 . S
H717 C725 0.950 . S
H718 C723 0.950 . S
H719 C724 0.949 . S
H720 C726 0.950 . S
H721 C727 0.927 1_655 S
H722 C728 0.949 . S
C723 H718 0.950 . S
C723 C725 1.327 . S
C723 C729 1.429 . S
C724 C716 1.574 1_655 S
C724 H719 0.949 . S
C724 C730 1.368 1_655 S
C725 C709 1.322 1_455 S
C725 H717 0.950 . S
C725 C723 1.327 . S
C726 C714 1.349 . S
C726 H720 0.950 . S
C726 C727 1.327 . S
C727 H721 0.927 1_455 S
C727 C726 1.327 . S
C727 C731 1.429 . S
C728 C711 1.574 . S
C728 H722 0.949 . S
C728 C732 1.368 . S
C729 C710 1.429 1_455 S
C729 C723 1.429 . S
C729 C730 1.523 . S
C730 C711 1.368 . S
C730 C724 1.368 1_455 S
C730 C729 1.523 . S
C731 C715 1.429 . S
C731 C727 1.429 . S
C731 C732 1.523 . S
C732 C716 1.368 . S
C732 C728 1.368 . S
C732 C731 1.523 . S
H733 C708 0.950 . S
H734 C710 0.950 . S
H735 C711 0.949 . S
H736 C713 0.950 . S
H737 C715 0.950 . S
C199 C6 0.479 . S
C204 C189 0.550 . S
C229 C59 1.792 . S
C234 C167 1.767 . S
C259 C86 1.103 . S
C264 C180 1.097 . S
C289 C15 0.297 . S
C294 C193 0.189 . S
C324 C163 1.868 . S
C319 C50 2.004 . S
C354 C176 1.240 . S
C349 C95 1.311 . S
C379 C46 1.052 . S
C384 C141 1.045 . S
C409 C99 2.987 . S
C414 C154 2.952 1_655 S
C439 C10 2.002 . S
C444 C124 1.869 . S
C474 C137 1.263 . S
C469 C55 1.324 . S
C504 C150 2.870 . S
C499 C90 3.030 . S
C529 C19 1.798 . S
C534 C128 1.782 . S
C564 C155 1.735 . S
C559 C18 1.689 . S
C589 C49 1.464 . S
C594 C129 1.500 . S
C619 C98 1.513 . S
C624 C142 1.603 . S
C654 C181 1.548 . S
C649 C58 1.473 . S
C684 C194 1.347 . S
C679 C89 1.329 . S
C709 C9 1.430 1_655 S
C714 C168 1.491 . S
