# Generated by pormake.
# Topology cml, (3,6)-cn, num edge types: 1
# Building blocks:
#     Node 0, Type 0, BuildingBlock: QEWDON_clean_linker_0, # of connection points: 3
#     Node 1, Type 0, BuildingBlock: QEWDON_clean_linker_0, # of connection points: 3
#     Node 2, Type 0, BuildingBlock: QEWDON_clean_linker_0, # of connection points: 3
#     Node 3, Type 0, BuildingBlock: QEWDON_clean_linker_0, # of connection points: 3
#     Node 4, Type 0, BuildingBlock: QEWDON_clean_linker_0, # of connection points: 3
#     Node 5, Type 0, BuildingBlock: QEWDON_clean_linker_0, # of connection points: 3
#     Node 6, Type 0, BuildingBlock: QEWDON_clean_linker_0, # of connection points: 3
#     Node 7, Type 0, BuildingBlock: QEWDON_clean_linker_0, # of connection points: 3
#     Node 8, Type 1, BuildingBlock: IZENUY_clean_sbu_0, # of connection points: 6
#     Node 9, Type 1, BuildingBlock: IZENUY_clean_sbu_0, # of connection points: 6
#     Node 10, Type 1, BuildingBlock: IZENUY_clean_sbu_0, # of connection points: 6
#     Node 11, Type 1, BuildingBlock: IZENUY_clean_sbu_0, # of connection points: 6
#     Edge 12, Type (0, 1), BuildingBlock: EZIPEK_clean_linker_0, # of connection points: 2
#     Edge 13, Type (0, 1), BuildingBlock: EZIPEK_clean_linker_0, # of connection points: 2
#     Edge 14, Type (0, 1), BuildingBlock: EZIPEK_clean_linker_0, # of connection points: 2
#     Edge 15, Type (0, 1), BuildingBlock: EZIPEK_clean_linker_0, # of connection points: 2
#     Edge 16, Type (0, 1), BuildingBlock: EZIPEK_clean_linker_0, # of connection points: 2
#     Edge 17, Type (0, 1), BuildingBlock: EZIPEK_clean_linker_0, # of connection points: 2
#     Edge 18, Type (0, 1), BuildingBlock: EZIPEK_clean_linker_0, # of connection points: 2
#     Edge 19, Type (0, 1), BuildingBlock: EZIPEK_clean_linker_0, # of connection points: 2
#     Edge 20, Type (0, 1), BuildingBlock: EZIPEK_clean_linker_0, # of connection points: 2
#     Edge 21, Type (0, 1), BuildingBlock: EZIPEK_clean_linker_0, # of connection points: 2
#     Edge 22, Type (0, 1), BuildingBlock: EZIPEK_clean_linker_0, # of connection points: 2
#     Edge 23, Type (0, 1), BuildingBlock: EZIPEK_clean_linker_0, # of connection points: 2
#     Edge 24, Type (0, 1), BuildingBlock: EZIPEK_clean_linker_0, # of connection points: 2
#     Edge 25, Type (0, 1), BuildingBlock: EZIPEK_clean_linker_0, # of connection points: 2
#     Edge 26, Type (0, 1), BuildingBlock: EZIPEK_clean_linker_0, # of connection points: 2
#     Edge 27, Type (0, 1), BuildingBlock: EZIPEK_clean_linker_0, # of connection points: 2
#     Edge 28, Type (0, 1), BuildingBlock: EZIPEK_clean_linker_0, # of connection points: 2
#     Edge 29, Type (0, 1), BuildingBlock: EZIPEK_clean_linker_0, # of connection points: 2
#     Edge 30, Type (0, 1), BuildingBlock: EZIPEK_clean_linker_0, # of connection points: 2
#     Edge 31, Type (0, 1), BuildingBlock: EZIPEK_clean_linker_0, # of connection points: 2
#     Edge 32, Type (0, 1), BuildingBlock: EZIPEK_clean_linker_0, # of connection points: 2
#     Edge 33, Type (0, 1), BuildingBlock: EZIPEK_clean_linker_0, # of connection points: 2
#     Edge 34, Type (0, 1), BuildingBlock: EZIPEK_clean_linker_0, # of connection points: 2
#     Edge 35, Type (0, 1), BuildingBlock: EZIPEK_clean_linker_0, # of connection points: 2
# Relax obj value: 0.012
# Max RMSD: 0.123
# Mean RMSD: 0.091
data_MOF--net-cml--node1-IZENUY_clean_sbu_0--node2-QEWDON_clean_linker_0--edge1-EZIPEK_clean_linker_0
_symmetry_space_group_name_H-M    P1
_symmetry_Int_Tables_number       1
_symmetry_cell_setting            triclinic
loop_
_symmetry_equiv_pos_as_xyz
'x, y, z'
_cell_length_a     29.289618
_cell_length_b     31.190777
_cell_length_c     27.085753
_cell_angle_alpha  90.032324
_cell_angle_beta   90.317141
_cell_angle_gamma 90.070429
loop_
_atom_site_label
_atom_site_type_symbol
_atom_site_fract_x
_atom_site_fract_y
_atom_site_fract_z
_atom_type_partial_charge
H0 H 0.30138 0.43681 0.94419 0.0
C1 C 0.31273 0.42785 0.98094 0.0
C2 C 0.355 0.44266 0.99816 0.0
C3 C 0.28395 0.4036 0.01161 0.0
H4 H 0.4021 0.44393 0.05912 0.0
C5 C 0.36951 0.43189 0.04582 0.0
C6 C 0.34094 0.40871 0.07784 0.0
C7 C 0.29798 0.39442 0.06038 0.0
C8 C 0.23692 0.39417 0.99403 0.0
H9 H 0.27489 0.37806 0.0852 0.0
C10 C 0.22054 0.35185 0.98767 0.0
C11 C 0.17726 0.34475 0.96564 0.0
C12 C 0.20915 0.42881 0.97989 0.0
H13 H 0.22098 0.46151 0.98456 0.0
C14 C 0.16626 0.42179 0.95903 0.0
H15 H 0.2416 0.32484 0.99839 0.0
C16 C 0.15054 0.38015 0.9516 0.0
H17 H 0.1172 0.37545 0.9349 0.0
H18 H 0.14528 0.44875 0.94814 0.0
H19 H 0.73807 0.59328 0.44699 0.0
C20 C 0.71982 0.60139 0.48042 0.0
C21 C 0.67566 0.58488 0.48812 0.0
C22 C 0.7414 0.62613 0.5173 0.0
H23 H 0.61886 0.58156 0.53816 0.0
C24 C 0.65273 0.59457 0.5321 0.0
C25 C 0.67443 0.618 0.56991 0.0
C26 C 0.71886 0.63352 0.56219 0.0
C27 C 0.79003 0.63843 0.51291 0.0
H28 H 0.73644 0.65037 0.59175 0.0
C29 C 0.80403 0.67455 0.48543 0.0
C30 C 0.85057 0.68649 0.48475 0.0
C31 C 0.8227 0.61451 0.53906 0.0
H32 H 0.81249 0.58687 0.5606 0.0
C33 C 0.86866 0.62608 0.53793 0.0
H34 H 0.77904 0.69343 0.46538 0.0
C35 C 0.88255 0.66184 0.51102 0.0
H36 H 0.91842 0.6704 0.5107 0.0
H37 H 0.8936 0.60739 0.55819 0.0
H38 H 0.71769 0.40629 0.94586 0.0
C39 C 0.70365 0.40491 0.98277 0.0
C40 C 0.67616 0.43887 1.00003 0.0
C41 C 0.70852 0.36719 0.01088 0.0
H42 H 0.63429 0.46103 0.06019 0.0
C43 C 0.65652 0.43573 0.04706 0.0
C44 C 0.66286 0.39909 0.07611 0.0
C45 C 0.68873 0.3649 0.05791 0.0
C46 C 0.72374 0.32694 0.98724 0.0
H47 H 0.69069 0.33533 0.07887 0.0
C48 C 0.77013 0.31778 0.97854 0.0
C49 C 0.78248 0.27821 0.95709 0.0
C50 C 0.6903 0.29657 0.97425 0.0
H51 H 0.65449 0.30308 0.98071 0.0
C52 C 0.70261 0.25767 0.95284 0.0
H53 H 0.79624 0.34091 0.9885 0.0
C54 C 0.74841 0.24849 0.9443 0.0
H55 H 0.7574 0.21808 0.92761 0.0
H56 H 0.67655 0.23455 0.94289 0.0
H57 H 0.30726 0.61483 0.44973 0.0
C58 C 0.31395 0.61432 0.48913 0.0
C59 C 0.33977 0.58058 0.50956 0.0
C60 C 0.3025 0.65016 0.51819 0.0
H61 H 0.37544 0.55795 0.57421 0.0
C62 C 0.35273 0.5823 0.55944 0.0
C63 C 0.34246 0.61818 0.58828 0.0
C64 C 0.31608 0.65139 0.56804 0.0
C65 C 0.28944 0.69093 0.49413 0.0
H66 H 0.31071 0.68034 0.58943 0.0
C67 C 0.24407 0.70036 0.48034 0.0
C68 C 0.23358 0.74063 0.45936 0.0
C69 C 0.3238 0.72162 0.48634 0.0
H70 H 0.35886 0.71491 0.49674 0.0
C71 C 0.31338 0.76118 0.46533 0.0
H72 H 0.21728 0.67696 0.48622 0.0
C73 C 0.26856 0.7707 0.45195 0.0
H74 H 0.26104 0.80166 0.4357 0.0
H75 H 0.34013 0.78459 0.45951 0.0
H76 H 0.77443 0.93525 0.96107 0.0
C77 C 0.79267 0.92994 0.99545 0.0
C78 C 0.83687 0.94677 1.00178 0.0
C79 C 0.77117 0.90841 0.0346 0.0
H80 H 0.89446 0.953 0.05107 0.0
C81 C 0.86028 0.94014 0.04644 0.0
C82 C 0.83891 0.91953 0.08621 0.0
C83 C 0.79413 0.90426 0.08013 0.0
C84 C 0.72354 0.89279 0.02987 0.0
H85 H 0.77716 0.88896 0.11095 0.0
C86 C 0.71087 0.86276 0.9933 0.0
C87 C 0.66617 0.84588 0.99228 0.0
C88 C 0.69082 0.90664 0.06409 0.0
H89 H 0.69977 0.92981 0.09236 0.0
C90 C 0.64634 0.89075 0.06225 0.0
H91 H 0.73587 0.85155 0.96692 0.0
C92 C 0.63409 0.86041 0.02677 0.0
H93 H 0.59953 0.84797 0.02635 0.0
H94 H 0.62139 0.90166 0.08876 0.0
H95 H 0.24595 0.09255 0.4645 0.0
C96 C 0.2275 0.09936 0.49818 0.0
C97 C 0.1833 0.08266 0.5047 0.0
C98 C 0.24878 0.12263 0.53645 0.0
H99 H 0.12568 0.07824 0.55343 0.0
C100 C 0.15979 0.09111 0.54861 0.0
C101 C 0.1811 0.11313 0.58775 0.0
C102 C 0.22583 0.1284 0.58147 0.0
C103 C 0.29695 0.13657 0.53226 0.0
H104 H 0.24303 0.14438 0.61191 0.0
C105 C 0.31014 0.16977 0.49992 0.0
C106 C 0.35601 0.18366 0.49893 0.0
C107 C 0.32992 0.11727 0.56278 0.0
H108 H 0.3204 0.09182 0.58794 0.0
C109 C 0.37536 0.13055 0.56112 0.0
H110 H 0.28491 0.18521 0.47656 0.0
C111 C 0.38837 0.16356 0.52948 0.0
H112 H 0.42376 0.17372 0.52902 0.0
H113 H 0.40054 0.11538 0.5847 0.0
H114 H 0.21541 0.90116 0.95043 0.0
C115 C 0.20848 0.90384 0.98957 0.0
C116 C 0.18137 0.938 1.00698 0.0
C117 C 0.22129 0.87031 0.02177 0.0
H118 H 0.14438 0.96314 0.0691 0.0
C119 C 0.16807 0.93875 0.05661 0.0
C120 C 0.17975 0.90527 0.08847 0.0
C121 C 0.2079 0.87213 0.07158 0.0
C122 C 0.23608 0.82816 1.00203 0.0
H123 H 0.21458 0.84504 0.09564 0.0
C124 C 0.28021 0.8207 0.98302 0.0
C125 C 0.29297 0.77875 0.96862 0.0
C126 C 0.20497 0.79389 1.00492 0.0
H127 H 0.17086 0.79889 0.01908 0.0
C128 C 0.21743 0.75282 0.99022 0.0
H129 H 0.30451 0.8468 0.98041 0.0
C130 C 0.26115 0.7452 0.97251 0.0
H131 H 0.27022 0.71291 0.96152 0.0
H132 H 0.19317 0.72673 0.99285 0.0
H133 H 0.81394 0.12003 0.44784 0.0
C134 C 0.81968 0.12065 0.4874 0.0
C135 C 0.84433 0.08716 0.50997 0.0
C136 C 0.80748 0.15728 0.51479 0.0
H137 H 0.8772 0.06569 0.5768 0.0
C138 C 0.85559 0.09006 0.56024 0.0
C139 C 0.84528 0.12695 0.5873 0.0
C140 C 0.82024 0.16005 0.56487 0.0
C141 C 0.79345 0.19697 0.48887 0.0
H142 H 0.81457 0.18961 0.58501 0.0
C143 C 0.74783 0.20498 0.47456 0.0
C144 C 0.73631 0.2443 0.45172 0.0
C145 C 0.82705 0.22806 0.47965 0.0
H146 H 0.86224 0.22247 0.49044 0.0
C147 C 0.8157 0.26658 0.45667 0.0
H148 H 0.72158 0.1813 0.48162 0.0
C149 C 0.77066 0.27472 0.44284 0.0
H150 H 0.76247 0.30496 0.42523 0.0
H151 H 0.8419 0.2903 0.44974 0.0
Fe152 Fe 1.00647 0.84802 0.31819 0.0
Fe153 Fe 0.01394 0.89286 0.41897 0.0
O154 O 1.00998 0.89583 0.35366 0.0
Fe155 Fe 1.00936 0.9465 0.32366 0.0
O156 O 0.95382 0.93571 0.29604 0.0
O157 O 0.97051 0.87137 0.26929 0.0
O158 O 0.95438 0.83148 0.34881 0.0
C159 C 0.95141 0.82521 0.39465 0.0
C160 C 0.06437 0.89522 0.26084 0.0
O161 O 0.9786 0.8438 0.42446 0.0
C162 C 0.07355 0.96252 0.39469 0.0
O163 O 0.0425 0.81565 0.36031 0.0
O164 O 0.06634 0.86193 0.41583 0.0
O165 O 0.03995 0.92805 0.26825 0.0
O166 O 0.05802 0.86115 0.28474 0.0
C167 C 0.95546 0.96106 0.40921 0.0
O168 O 0.05027 0.94092 0.42531 0.0
O169 O 0.06465 0.96123 0.34914 0.0
C170 C 0.07113 0.82693 0.3931 0.0
O171 O 0.9619 0.92415 0.42712 0.0
O172 O 0.9791 0.97447 0.37342 0.0
C173 C 0.94659 0.90507 0.2667 0.0
Fe174 Fe 1.00875 0.12952 0.92121 0.0
Fe175 Fe 0.01319 0.08156 0.82227 0.0
O176 O 0.01237 0.13034 0.85601 0.0
Fe177 Fe 0.01466 0.18014 0.82422 0.0
O178 O 0.0669 0.19592 0.85583 0.0
O179 O 0.04398 0.17804 0.93034 0.0
O180 O 0.06112 0.09832 0.92743 0.0
C181 C 0.06797 0.06261 0.9067 0.0
C182 C 0.95045 0.19631 0.89972 0.0
O183 O 0.04421 0.05103 0.86981 0.0
C184 C 0.95661 0.13566 0.7637 0.0
O185 O 0.97291 0.08111 0.92388 0.0
O186 O 0.95826 0.06478 0.84632 0.0
O187 O 0.97956 0.20992 0.8691 0.0
O188 O 0.95579 0.16007 0.91963 0.0
C189 C 0.07448 0.12657 0.76825 0.0
O190 O 0.98187 0.10293 0.76828 0.0
O191 O 0.96239 0.16805 0.79075 0.0
C192 C 0.94925 0.06158 0.8916 0.0
O193 O 0.06834 0.09475 0.79603 0.0
O194 O 0.04987 0.15974 0.7729 0.0
C195 C 0.07061 0.19885 0.90224 0.0
Fe196 Fe 0.50065 0.342 0.31449 0.0
Fe197 Fe 0.51049 0.38925 0.41392 0.0
O198 O 0.50342 0.39058 0.34882 0.0
Fe199 Fe 0.4986 0.44052 0.31776 0.0
O200 O 0.44206 0.42642 0.29459 0.0
O201 O 0.46107 0.36292 0.26711 0.0
O202 O 0.45113 0.32347 0.3485 0.0
C203 C 0.45008 0.31881 0.39473 0.0
C204 C 0.55224 0.39066 0.25223 0.0
O205 O 0.47739 0.33935 0.42261 0.0
C206 C 0.56594 0.46041 0.38417 0.0
O207 O 0.54045 0.31204 0.35513 0.0
O208 O 0.56381 0.36002 0.40908 0.0
O209 O 0.52654 0.42238 0.26071 0.0
O210 O 0.54964 0.35697 0.27767 0.0
C211 C 0.44894 0.4552 0.40591 0.0
O212 O 0.54525 0.43853 0.41666 0.0
O213 O 0.55459 0.45813 0.33919 0.0
C214 C 0.56938 0.32488 0.3869 0.0
O215 O 0.45768 0.41892 0.42428 0.0
O216 O 0.47023 0.46857 0.36853 0.0
C217 C 0.43519 0.39548 0.26552 0.0
Fe218 Fe 0.52383 0.63879 0.91452 0.0
Fe219 Fe 0.52357 0.58682 0.8183 0.0
O220 O 0.52084 0.63694 0.84902 0.0
Fe221 Fe 0.51583 0.68494 0.81405 0.0
O222 O 0.56828 0.70685 0.83974 0.0
O223 O 0.55418 0.69048 0.91723 0.0
O224 O 0.5795 0.61257 0.91555 0.0
C225 C 0.5881 0.57664 0.89637 0.0
C226 C 0.45717 0.69887 0.89614 0.0
O227 O 0.5607 0.5615 0.86453 0.0
C228 C 0.45888 0.63354 0.76064 0.0
O229 O 0.49355 0.58749 0.92372 0.0
O230 O 0.4727 0.56733 0.84891 0.0
O231 O 0.4801 0.71284 0.85992 0.0
O232 O 0.46862 0.66505 0.91856 0.0
C233 C 0.57641 0.6335 0.7561 0.0
O234 O 0.48655 0.6027 0.76599 0.0
O235 O 0.46317 0.66729 0.78559 0.0
C236 C 0.46846 0.56529 0.89515 0.0
O237 O 0.57498 0.60261 0.78597 0.0
O238 O 0.54971 0.66516 0.76126 0.0
C239 C 0.5757 0.71203 0.88523 0.0
C240 C 0.1729 0.27426 0.9187 0.0
C241 C 0.15751 0.30105 0.95761 0.0
C242 C 0.0859 0.26082 0.9609 0.0
C243 C 0.10185 0.23218 0.92379 0.0
N244 N 0.16603 0.20544 0.87743 0.0
N245 N 0.10645 0.31064 0.02591 0.0
C246 C 0.14718 0.2369 0.90586 0.0
C247 C 0.1166 0.29074 0.98242 0.0
N248 N 0.21069 0.28545 0.89235 0.0
N249 N 0.04062 0.26274 0.97247 0.0
H250 H 0.12855 0.33273 0.04249 0.0
H251 H 0.07882 0.30173 0.04775 0.0
H252 H 0.01563 0.24557 0.95361 0.0
H253 H 0.02709 0.28574 0.99616 0.0
H254 H 0.22033 0.2699 0.85999 0.0
H255 H 0.2307 0.31211 0.90099 0.0
H256 H 0.2002 0.20547 0.86696 0.0
H257 H 0.14882 0.17713 0.86864 0.0
C258 C 0.86656 0.76588 0.47711 0.0
C259 C 0.86754 0.72417 0.45622 0.0
C260 C 0.92188 0.74868 0.3937 0.0
C261 C 0.92 0.79105 0.41343 0.0
N262 N 0.88181 0.84176 0.46623 0.0
N263 N 0.886 0.67871 0.38753 0.0
C264 C 0.88961 0.80019 0.45284 0.0
C265 C 0.89172 0.71669 0.41197 0.0
N266 N 0.84513 0.77239 0.52115 0.0
N267 N 0.95464 0.73779 0.3602 0.0
H268 H 0.86426 0.65462 0.40022 0.0
H269 H 0.89902 0.67291 0.35244 0.0
H270 H 0.97889 0.75913 0.34683 0.0
H271 H 0.96078 0.70633 0.34919 0.0
H272 H 0.84791 0.80071 0.54134 0.0
H273 H 0.82668 0.74842 0.53905 0.0
H274 H 0.85678 0.85083 0.4913 0.0
H275 H 0.89732 0.8676 0.44863 0.0
C276 C 0.84775 0.27362 0.89851 0.0
C277 C 0.83075 0.26675 0.94653 0.0
C278 C 0.89943 0.22539 0.96708 0.0
C279 C 0.91188 0.22465 0.91624 0.0
N280 N 0.89395 0.24685 0.83218 0.0
N281 N 0.8389 0.23474 0.02688 0.0
C282 C 0.88551 0.24909 0.88164 0.0
C283 C 0.85636 0.24252 0.98107 0.0
N284 N 0.82739 0.30344 0.86872 0.0
N285 N 0.92942 0.21136 1.00237 0.0
H286 H 0.80855 0.24849 0.03915 0.0
H287 H 0.85311 0.21272 0.05144 0.0
H288 H 0.96225 0.20077 0.99432 0.0
H289 H 0.92376 0.21487 0.04009 0.0
H290 H 0.84112 0.31343 0.83524 0.0
H291 H 0.79923 0.3214 0.87987 0.0
H292 H 0.87178 0.25901 0.80545 0.0
H293 H 0.9209 0.23021 0.81688 0.0
C294 C 0.17606 0.75306 0.3926 0.0
C295 C 0.18649 0.75248 0.44363 0.0
C296 C 0.11383 0.78835 0.46076 0.0
C297 C 0.10799 0.79676 0.40949 0.0
N298 N 0.13591 0.78814 0.32602 0.0
N299 N 0.16647 0.77077 0.52714 0.0
C300 C 0.13926 0.77871 0.37509 0.0
C301 C 0.15544 0.77003 0.47807 0.0
N302 N 0.20167 0.72911 0.36084 0.0
N303 N 0.07899 0.79656 0.49274 0.0
H304 H 0.19588 0.75638 0.54129 0.0
H305 H 0.1479 0.78786 0.55327 0.0
H306 H 0.04726 0.80795 0.48104 0.0
H307 H 0.0797 0.7876 0.52977 0.0
H308 H 0.19317 0.72462 0.32381 0.0
H309 H 0.22893 0.71017 0.3728 0.0
H310 H 0.16117 0.78074 0.30048 0.0
H311 H 0.10955 0.80607 0.31102 0.0
C312 C 0.61887 0.8238 0.91931 0.0
C313 C 0.65165 0.81269 0.9558 0.0
C314 C 0.64509 0.73727 0.9311 0.0
C315 C 0.606 0.74739 0.90243 0.0
N316 N 0.55442 0.80082 0.86959 0.0
N317 N 0.69501 0.7582 0.9985 0.0
C318 C 0.59296 0.7909 0.89584 0.0
C319 C 0.6651 0.76927 0.9618 0.0
N320 N 0.6127 0.86592 0.90715 0.0
N321 N 0.66355 0.6972 0.92803 0.0
H322 H 0.71071 0.78063 0.02157 0.0
H323 H 0.70185 0.72654 0.00825 0.0
H324 H 0.65037 0.67388 0.90422 0.0
H325 H 0.69435 0.68872 0.94475 0.0
H326 H 0.59246 0.876 0.87765 0.0
H327 H 0.6315 0.89057 0.92364 0.0
H328 H 0.54001 0.83132 0.86902 0.0
H329 H 0.53508 0.7781 0.85062 0.0
C330 C 0.39591 0.2096 0.42309 0.0
C331 C 0.37155 0.21945 0.46662 0.0
C332 C 0.38981 0.29573 0.4555 0.0
C333 C 0.42022 0.28496 0.41668 0.0
N334 N 0.45658 0.22983 0.36766 0.0
N335 N 0.34692 0.2714 0.52663 0.0
C336 C 0.42399 0.24147 0.40102 0.0
C337 C 0.36856 0.26248 0.48325 0.0
N338 N 0.39225 0.16955 0.40295 0.0
N339 N 0.3803 0.33778 0.46499 0.0
H340 H 0.32961 0.24817 0.54698 0.0
H341 H 0.34843 0.30118 0.54397 0.0
H342 H 0.39463 0.36277 0.44484 0.0
H343 H 0.35508 0.34775 0.48937 0.0
H344 H 0.40534 0.16153 0.36848 0.0
H345 H 0.37215 0.14551 0.41855 0.0
H346 H 0.46438 0.19805 0.35949 0.0
H347 H 0.47896 0.2514 0.35129 0.0
C348 C 0.37752 0.76365 0.97924 0.0
C349 C 0.33874 0.76812 0.9479 0.0
C350 C 0.37706 0.72623 0.88394 0.0
C351 C 0.41697 0.72377 0.91373 0.0
N352 N 0.45856 0.74791 0.98564 0.0
N353 N 0.30691 0.76428 0.86594 0.0
C354 C 0.4183 0.74503 0.96014 0.0
C355 C 0.34061 0.75321 0.89857 0.0
N356 N 0.37474 0.77514 0.0278 0.0
N357 N 0.37222 0.70014 0.84379 0.0
H358 H 0.27986 0.78427 0.87574 0.0
H359 H 0.30847 0.75737 0.82834 0.0
H360 H 0.39596 0.67658 0.83523 0.0
H361 H 0.3422 0.69797 0.82312 0.0
H362 H 0.39993 0.76793 0.05378 0.0
H363 H 0.34587 0.78951 0.04285 0.0
H364 H 0.46269 0.76658 0.01724 0.0
H365 H 0.4889 0.73458 0.97278 0.0
C366 C 0.65693 0.27089 0.47084 0.0
C367 C 0.68874 0.25501 0.43608 0.0
C368 C 0.64022 0.28062 0.36807 0.0
C369 C 0.608 0.29645 0.40278 0.0
N370 N 0.57936 0.29414 0.48612 0.0
N371 N 0.70493 0.23397 0.35265 0.0
C372 C 0.61442 0.28766 0.4539 0.0
C373 C 0.67825 0.25621 0.385 0.0
N374 N 0.66807 0.27176 0.51988 0.0
N375 N 0.63644 0.2911 0.31931 0.0
H376 H 0.73297 0.21584 0.36416 0.0
H377 H 0.69669 0.23 0.31547 0.0
H378 H 0.60942 0.3087 0.30505 0.0
H379 H 0.66194 0.28521 0.29354 0.0
H380 H 0.64874 0.28781 0.54622 0.0
H381 H 0.69829 0.25878 0.53384 0.0
H382 H 0.58056 0.28466 0.52297 0.0
H383 H 0.5472 0.30464 0.47477 0.0
C384 C 0.41963 0.45863 0.94022 0.0
C385 C 0.38214 0.47347 0.96829 0.0
C386 C 0.39653 0.5471 0.94017 0.0
C387 C 0.43709 0.53306 0.91693 0.0
N388 N 0.48975 0.47606 0.89755 0.0
N389 N 0.33703 0.53208 0.99961 0.0
C390 C 0.44918 0.4889 0.91735 0.0
C391 C 0.37103 0.5178 0.96939 0.0
N392 N 0.42643 0.41553 0.93476 0.0
N393 N 0.38166 0.58818 0.93298 0.0
H394 H 0.31684 0.51162 0.02074 0.0
H395 H 0.33089 0.56439 1.00656 0.0
H396 H 0.39906 0.6101 0.9109 0.0
H397 H 0.35008 0.59935 0.94482 0.0
H398 H 0.45005 0.4024 0.9105 0.0
H399 H 0.40584 0.39258 0.95169 0.0
H400 H 0.50336 0.4455 0.90225 0.0
H401 H 0.51144 0.49674 0.87874 0.0
C402 C 0.62161 0.56794 0.41823 0.0
C403 C 0.6544 0.55358 0.4531 0.0
C404 C 0.63822 0.47894 0.4295 0.0
C405 C 0.60019 0.4929 0.40113 0.0
N406 N 0.55415 0.55134 0.36971 0.0
N407 N 0.69345 0.49539 0.49385 0.0
C408 C 0.59193 0.53764 0.39497 0.0
C409 C 0.66296 0.50904 0.45886 0.0
N410 N 0.6189 0.61067 0.40748 0.0
N411 N 0.65123 0.43692 0.42736 0.0
H412 H 0.71343 0.51638 0.51481 0.0
H413 H 0.69703 0.46343 0.50422 0.0
H414 H 0.63463 0.41458 0.40486 0.0
H415 H 0.681 0.42519 0.44359 0.0
H416 H 0.59908 0.62303 0.37884 0.0
H417 H 0.63981 0.63351 0.42446 0.0
H418 H 0.54306 0.58304 0.36958 0.0
H419 H 0.53162 0.53076 0.35165 0.0
C420 C 0.64245 0.47061 0.92155 0.0
C421 C 0.66382 0.47645 0.9682 0.0
C422 C 0.64716 0.5538 0.96337 0.0
C423 C 0.6246 0.54715 0.91701 0.0
N424 N 0.62733 0.50394 0.84295 0.0
N425 N 0.70044 0.52565 0.02441 0.0
C426 C 0.63109 0.50709 0.89306 0.0
C427 C 0.67056 0.51879 0.98627 0.0
N428 N 0.62985 0.43082 0.90538 0.0
N429 N 0.6466 0.59284 0.98606 0.0
H430 H 0.71914 0.50088 0.04066 0.0
H431 H 0.71026 0.55605 0.03637 0.0
H432 H 0.6387 0.62121 0.96802 0.0
H433 H 0.65505 0.59706 0.02317 0.0
H434 H 0.61067 0.42628 0.87323 0.0
H435 H 0.63376 0.4031 0.92639 0.0
H436 H 0.63439 0.47565 0.82391 0.0
H437 H 0.62359 0.53092 0.82052 0.0
C438 C 0.34482 0.50975 0.46387 0.0
C439 C 0.36438 0.54975 0.47732 0.0
C440 C 0.43925 0.5248 0.45071 0.0
C441 C 0.41951 0.48615 0.43291 0.0
N442 N 0.35182 0.44491 0.4146 0.0
N443 N 0.42743 0.59925 0.47109 0.0
C444 C 0.3717 0.47937 0.43727 0.0
C445 C 0.41067 0.55852 0.46648 0.0
N446 N 0.30101 0.50058 0.47722 0.0
N447 N 0.48548 0.52849 0.45549 0.0
H448 H 0.40724 0.62514 0.48164 0.0
H449 H 0.45988 0.6081 0.45919 0.0
H450 H 0.50747 0.5033 0.44794 0.0
H451 H 0.50148 0.55443 0.47264 0.0
H452 H 0.28635 0.47033 0.47323 0.0
H453 H 0.28021 0.52284 0.49502 0.0
H454 H 0.31664 0.44035 0.41256 0.0
H455 H 0.37047 0.42263 0.39426 0.0
C456 C 0.88776 0.95843 0.92858 0.0
C457 C 0.85766 0.97555 0.96427 0.0
C458 C 0.87693 0.04843 0.93747 0.0
C459 C 0.91302 0.03166 0.90875 0.0
N460 N 0.95259 0.97044 0.87492 0.0
N461 N 0.82279 0.03665 1.00346 0.0
C462 C 0.9178 0.98652 0.90279 0.0
C463 C 0.85155 0.02055 0.96846 0.0
N464 N 0.88763 0.91528 0.91972 0.0
N465 N 0.86639 0.091 0.93404 0.0
H466 H 0.80208 0.01728 0.02535 0.0
H467 H 0.82122 0.06902 0.0127 0.0
H468 H 0.88326 0.11156 0.90983 0.0
H469 H 0.83814 0.1049 0.95081 0.0
H470 H 0.90546 0.90086 0.89105 0.0
H471 H 0.86642 0.89411 0.9387 0.0
H472 H 0.96151 0.93817 0.87409 0.0
H473 H 0.97471 0.98964 0.85464 0.0
C474 C 0.16917 1.00752 0.47437 0.0
C475 C 0.16251 0.05232 0.46841 0.0
C476 C 0.10174 0.03871 0.40762 0.0
C477 C 0.10795 0.99371 0.41409 0.0
N478 N 0.15561 0.93586 0.44238 0.0
N479 N 0.13103 0.11074 0.42163 0.0
C480 C 0.14427 0.97833 0.44403 0.0
C481 C 0.13168 0.06791 0.43224 0.0
N482 N 0.1981 0.99283 0.51034 0.0
N483 N 0.06555 0.05379 0.38069 0.0
H484 H 0.15211 0.13281 0.43968 0.0
H485 H 0.11283 0.12387 0.39219 0.0
H486 H 0.04287 0.03407 0.36162 0.0
H487 H 0.05578 0.08585 0.38011 0.0
H488 H 0.20008 0.96079 0.52086 0.0
H489 H 0.21845 1.01312 0.53179 0.0
H490 H 0.18427 0.92306 0.45982 0.0
H491 H 0.1389 0.9141 0.41924 0.0
C492 C 0.11095 0.95725 0.96037 0.0
C493 C 0.15674 0.96744 0.97267 0.0
C494 C 0.14645 0.03901 0.93607 0.0
C495 C 0.09899 0.03056 0.93027 0.0
N496 N 0.03486 0.98469 0.94874 0.0
N497 N 0.21799 0.0188 0.97582 0.0
C498 C 0.08095 0.99034 0.94522 0.0
C499 C 0.17461 1.00856 0.96131 0.0
N500 N 0.09588 0.91588 0.96391 0.0
N501 N 0.16476 0.07548 0.91644 0.0
H502 H 0.23981 0.99654 0.99237 0.0
H503 H 0.2314 0.04968 0.97382 0.0
H504 H 0.14516 0.09826 0.89778 0.0
H505 H 0.1997 0.08155 0.91524 0.0
H506 H 0.06402 0.90594 0.95091 0.0
H507 H 0.11691 0.89069 0.97508 0.0
H508 H 0.01986 0.95752 0.9641 0.0
H509 H 0.01172 1.00925 0.94203 0.0
C510 C 0.84998 0.01622 0.46377 0.0
C511 C 0.86982 0.05533 0.47978 0.0
C512 C 0.94535 0.03005 0.45554 0.0
C513 C 0.92554 0.99226 0.43531 0.0
N514 N 0.858 0.952 0.41355 0.0
N515 N 0.93235 0.10373 0.48167 0.0
C516 C 0.87746 0.98596 0.43763 0.0
C517 C 0.91656 0.0634 0.47228 0.0
N518 N 0.80537 1.00778 0.47442 0.0
N519 N 0.99147 0.03274 0.46225 0.0
H520 H 0.96541 0.1142 0.47413 0.0
H521 H 0.96541 0.1142 0.47413 0.0
H522 H 0.0133 1.00766 0.45378 0.0
H523 H 1.00753 0.05735 0.48173 0.0
H524 H 0.79 0.9781 0.46841 0.0
H525 H 0.78448 0.03 0.49215 0.0
H526 H 0.82288 0.94779 0.40993 0.0
H527 H 0.87709 0.92961 0.39386 0.0
C528 C 0.3669 0.44267 0.15691 0.0
C529 C 0.35506 0.4048 0.13094 0.0
C530 C 0.38079 0.36323 0.20275 0.0
C531 C 0.40288 0.40021 0.22258 0.0
N532 N 0.42461 0.47474 0.20807 0.0
N533 N 0.3552 0.32739 0.12819 0.0
C534 C 0.3976 0.44013 0.19741 0.0
C535 C 0.36275 0.36448 0.15374 0.0
N536 N 0.34969 0.48129 0.14218 0.0
N537 N 0.3763 0.32716 0.23085 0.0
H538 H 0.34292 0.32683 0.09202 0.0
H539 H 0.36485 0.29741 0.14162 0.0
H540 H 0.38665 0.32594 0.26774 0.0
H541 H 0.35749 0.30054 0.21937 0.0
H542 H 0.35479 0.50942 0.16232 0.0
H543 H 0.3262 0.48405 0.11322 0.0
H544 H 0.42373 0.50281 0.18719 0.0
H545 H 0.45207 0.47412 0.23247 0.0
C546 C 0.64398 0.66338 0.6405 0.0
C547 C 0.6521 0.62245 0.61924 0.0
C548 C 0.60729 0.58933 0.68495 0.0
C549 C 0.60407 0.62945 0.70996 0.0
N550 N 0.63074 0.70271 0.71611 0.0
N551 N 0.65361 0.5457 0.6314 0.0
C552 C 0.62581 0.66598 0.68911 0.0
C553 C 0.63771 0.58518 0.64476 0.0
N554 N 0.65183 0.69978 0.61388 0.0
N555 N 0.57926 0.55581 0.69662 0.0
H556 H 0.67772 0.54134 0.60366 0.0
H557 H 0.64682 0.5181 0.65182 0.0
H558 H 0.55266 0.55799 0.72178 0.0
H559 H 0.57845 0.52746 0.6762 0.0
H560 H 0.64228 0.73014 0.62615 0.0
H561 H 0.66356 0.6993 0.57761 0.0
H562 H 0.64976 0.72887 0.70391 0.0
H563 H 0.62057 0.70516 0.75281 0.0
C564 C 0.58852 0.38478 0.11756 0.0
C565 C 0.63576 0.3939 0.12188 0.0
C566 C 0.62933 0.39516 0.21224 0.0
C567 C 0.58122 0.39088 0.20748 0.0
N568 N 0.51412 0.38648 0.15527 0.0
N569 N 0.70132 0.41136 0.17201 0.0
C570 C 0.56057 0.3871 0.16004 0.0
C571 C 0.65636 0.3998 0.16893 0.0
N572 N 0.57058 0.37254 0.07294 0.0
N573 N 0.64909 0.39481 0.25811 0.0
H574 H 0.72215 0.41427 0.14106 0.0
H575 H 0.71732 0.42077 0.20467 0.0
H576 H 0.63023 0.39342 0.29064 0.0
H577 H 0.68418 0.39307 0.26403 0.0
H578 H 0.53755 0.36074 0.06849 0.0
H579 H 0.58995 0.37032 0.04083 0.0
H580 H 0.49708 0.38964 0.12162 0.0
H581 H 0.49229 0.38584 0.18526 0.0
C582 C 0.35725 0.60336 0.67846 0.0
C583 C 0.36902 0.62537 0.63453 0.0
C584 C 0.43437 0.65869 0.67662 0.0
C585 C 0.4259 0.63287 0.71882 0.0
N586 N 0.38014 0.58005 0.7606 0.0
N587 N 0.42277 0.66876 0.58906 0.0
C588 C 0.38749 0.60501 0.71994 0.0
C589 C 0.40845 0.65186 0.63297 0.0
N590 N 0.31675 0.58164 0.6806 0.0
N591 N 0.46698 0.69009 0.678 0.0
H592 H 0.40475 0.66545 0.55605 0.0
H593 H 0.45457 0.6831 0.58431 0.0
H594 H 0.48804 0.69584 0.70826 0.0
H595 H 0.47049 0.71324 0.65059 0.0
H596 H 0.30378 0.56806 0.71268 0.0
H597 H 0.29423 0.57984 0.65067 0.0
H598 H 0.35608 0.55551 0.76196 0.0
H599 H 0.39962 0.58274 0.79279 0.0
C600 C 0.88043 0.95379 0.15787 0.0
C601 C 0.86281 0.91627 0.13503 0.0
C602 C 0.88932 0.87457 0.20628 0.0
C603 C 0.91475 0.91042 0.22377 0.0
N604 N 0.94281 0.9822 0.20578 0.0
N605 N 0.85897 0.83879 0.13406 0.0
C606 C 0.91248 0.94972 0.19702 0.0
C607 C 0.86945 0.87595 0.15831 0.0
N608 N 0.86624 0.9934 0.1428 0.0
N609 N 0.88295 0.8396 0.23578 0.0
H610 H 0.84656 0.83809 0.09793 0.0
H611 H 0.86727 0.80863 0.14804 0.0
H612 H 0.89433 0.83847 0.27229 0.0
H613 H 0.86163 0.81417 0.22593 0.0
H614 H 0.87553 0.02146 0.16127 0.0
H615 H 0.84121 0.99776 0.11572 0.0
H616 H 0.94424 1.00961 0.1838 0.0
H617 H 0.97024 0.97988 0.23017 0.0
C618 C 0.14038 0.07924 0.65944 0.0
C619 C 0.15753 0.11675 0.6365 0.0
C620 C 0.1299 0.1587 0.70696 0.0
C621 C 0.10508 0.12254 0.72438 0.0
N622 N 0.07749 0.05067 0.70543 0.0
N623 N 0.16051 0.19424 0.63499 0.0
C624 C 0.10785 0.08324 0.69764 0.0
C625 C 0.15019 0.15717 0.65932 0.0
N626 N 0.15542 0.03967 0.64537 0.0
N627 N 0.13549 0.19401 0.73621 0.0
H628 H 0.17344 0.19473 0.59922 0.0
H629 H 0.15173 0.22442 0.64846 0.0
H630 H 0.12375 0.19543 0.77243 0.0
H631 H 0.15648 0.21964 0.72651 0.0
H632 H 0.14627 1.0117 0.66397 0.0
H633 H 0.181 0.03538 0.61918 0.0
H634 H 0.07671 0.02314 0.68357 0.0
H635 H 0.04929 0.05321 0.72842 0.0
C636 C 0.16643 0.9201 0.17887 0.0
C637 C 0.15281 0.89963 0.13439 0.0
C638 C 0.08183 0.87528 0.17318 0.0
C639 C 0.09597 0.89466 0.2182 0.0
N640 N 0.1545 0.92882 0.26709 0.0
N641 N 0.10101 0.8527 0.09035 0.0
C642 C 0.13915 0.91517 0.22198 0.0
C643 C 0.11162 0.87558 0.13202 0.0
N644 N 0.20485 0.94501 0.17943 0.0
N645 N 0.03901 0.85816 0.16897 0.0
H646 H 0.12 0.85409 0.058 0.0
H647 H 0.07502 0.82996 0.08859 0.0
H648 H 0.01709 0.8548 0.19869 0.0
H649 H 0.02394 0.84948 0.13554 0.0
H650 H 0.21414 0.96472 0.20884 0.0
H651 H 0.22633 0.94788 0.149 0.0
H652 H 0.18732 0.94042 0.27353 0.0
H653 H 0.13547 0.92529 0.29928 0.0
C654 C 0.85396 0.11573 0.67896 0.0
C655 C 0.8701 0.1344 0.63465 0.0
C656 C 0.93787 0.1616 0.6783 0.0
C657 C 0.9247 0.13837 0.72098 0.0
N658 N 0.87047 0.09364 0.7633 0.0
N659 N 0.92963 0.17118 0.59003 0.0
C660 C 0.88263 0.11563 0.72175 0.0
C661 C 0.91245 0.15665 0.63385 0.0
N662 N 0.81095 0.09869 0.68005 0.0
N663 N 0.97452 0.18877 0.6802 0.0
H664 H 0.91189 0.16936 0.55663 0.0
H665 H 0.96294 0.18224 0.58588 0.0
H666 H 0.99462 0.19296 0.7116 0.0
H667 H 0.98261 0.2102 0.65211 0.0
H668 H 0.79514 0.08781 0.71198 0.0
H669 H 0.78951 0.09827 0.64915 0.0
H670 H 0.84318 0.07232 0.76491 0.0
H671 H 0.88892 0.09563 0.79625 0.0
loop_
_geom_bond_atom_site_label_1
_geom_bond_atom_site_label_2
_geom_bond_distance
_geom_bond_site_symmetry_2
_ccdc_geom_bond_type
H0 C1 0.949 . S
C1 H0 0.949 . S
C1 C2 1.395 . S
C1 C3 1.391 1_556 S
C2 C1 1.395 . S
C2 C5 1.390 1_556 S
C3 C1 1.391 1_554 S
C3 C7 1.387 . S
C3 C8 1.491 . S
H4 C5 0.950 . S
C5 C2 1.390 1_554 S
C5 H4 0.950 . S
C5 C6 1.378 . S
C6 C5 1.378 . S
C6 C7 1.409 . S
C7 C3 1.387 . S
C7 C6 1.409 . S
C7 H9 0.951 . S
C8 C3 1.491 . S
C8 C10 1.382 1_554 S
C8 C12 1.404 . S
H9 C7 0.951 . S
C10 C8 1.382 1_556 S
C10 C11 1.390 . S
C10 H15 0.949 . S
C11 C10 1.390 . S
C11 C16 1.399 1_556 S
C12 C8 1.404 . S
C12 H13 0.950 . S
C12 C14 1.375 . S
H13 C12 0.950 . S
C14 C12 1.375 . S
C14 C16 1.382 . S
C14 H18 0.950 . S
H15 C10 0.949 . S
C16 C11 1.399 1_554 S
C16 C14 1.382 . S
C16 H17 0.952 . S
H17 C16 0.952 . S
H18 C14 0.950 . S
H19 C20 0.949 . S
C20 H19 0.949 . S
C20 C21 1.395 . S
C20 C22 1.391 . S
C21 C20 1.395 . S
C21 C24 1.390 . S
C22 C20 1.391 . S
C22 C26 1.387 . S
C22 C27 1.491 . S
H23 C24 0.950 . S
C24 C21 1.390 . S
C24 H23 0.950 . S
C24 C25 1.378 . S
C25 C24 1.378 . S
C25 C26 1.409 . S
C26 C22 1.387 . S
C26 C25 1.409 . S
C26 H28 0.951 . S
C27 C22 1.491 . S
C27 C29 1.382 . S
C27 C31 1.404 . S
H28 C26 0.951 . S
C29 C27 1.382 . S
C29 C30 1.390 . S
C29 H34 0.949 . S
C30 C29 1.390 . S
C30 C35 1.399 . S
C31 C27 1.404 . S
C31 H32 0.950 . S
C31 C33 1.375 . S
H32 C31 0.950 . S
C33 C31 1.375 . S
C33 C35 1.382 . S
C33 H37 0.950 . S
H34 C29 0.949 . S
C35 C30 1.399 . S
C35 C33 1.382 . S
C35 H36 0.952 . S
H36 C35 0.952 . S
H37 C33 0.950 . S
H38 C39 0.949 . S
C39 H38 0.949 . S
C39 C40 1.395 . S
C39 C41 1.391 1_556 S
C40 C39 1.395 . S
C40 C43 1.390 1_556 S
C41 C39 1.391 1_554 S
C41 C45 1.387 . S
C41 C46 1.491 . S
H42 C43 0.950 . S
C43 C40 1.390 1_554 S
C43 H42 0.950 . S
C43 C44 1.378 . S
C44 C43 1.378 . S
C44 C45 1.409 . S
C45 C41 1.387 . S
C45 C44 1.409 . S
C45 H47 0.951 . S
C46 C41 1.491 . S
C46 C48 1.382 1_554 S
C46 C50 1.404 . S
H47 C45 0.951 . S
C48 C46 1.382 1_556 S
C48 C49 1.390 . S
C48 H53 0.949 . S
C49 C48 1.390 . S
C49 C54 1.399 . S
C50 C46 1.404 . S
C50 H51 0.950 . S
C50 C52 1.375 . S
H51 C50 0.950 . S
C52 C50 1.375 . S
C52 C54 1.382 1_554 S
C52 H56 0.950 . S
H53 C48 0.949 . S
C54 C49 1.399 . S
C54 C52 1.382 1_556 S
C54 H55 0.952 . S
H55 C54 0.952 . S
H56 C52 0.950 . S
H57 C58 0.949 . S
C58 H57 0.949 . S
C58 C59 1.395 . S
C58 C60 1.391 . S
C59 C58 1.395 . S
C59 C62 1.390 . S
C60 C58 1.391 . S
C60 C64 1.387 . S
C60 C65 1.491 . S
H61 C62 0.950 . S
C62 C59 1.390 . S
C62 H61 0.950 . S
C62 C63 1.378 . S
C63 C62 1.378 . S
C63 C64 1.409 . S
C64 C60 1.387 . S
C64 C63 1.409 . S
C64 H66 0.951 . S
C65 C60 1.491 . S
C65 C67 1.382 . S
C65 C69 1.404 . S
H66 C64 0.951 . S
C67 C65 1.382 . S
C67 C68 1.390 . S
C67 H72 0.949 . S
C68 C67 1.390 . S
C68 C73 1.399 . S
C69 C65 1.404 . S
C69 H70 0.950 . S
C69 C71 1.375 . S
H70 C69 0.950 . S
C71 C69 1.375 . S
C71 C73 1.382 . S
C71 H75 0.950 . S
H72 C67 0.949 . S
C73 C68 1.399 . S
C73 C71 1.382 . S
C73 H74 0.952 . S
H74 C73 0.952 . S
H75 C71 0.950 . S
H76 C77 0.949 . S
C77 H76 0.949 . S
C77 C78 1.395 . S
C77 C79 1.391 1_556 S
C78 C77 1.395 . S
C78 C81 1.390 1_556 S
C79 C77 1.391 1_554 S
C79 C83 1.387 . S
C79 C84 1.491 . S
H80 C81 0.950 . S
C81 C78 1.390 1_554 S
C81 H80 0.950 . S
C81 C82 1.378 . S
C82 C81 1.378 . S
C82 C83 1.409 . S
C83 C79 1.387 . S
C83 C82 1.409 . S
C83 H85 0.951 . S
C84 C79 1.491 . S
C84 C86 1.382 1_554 S
C84 C88 1.404 . S
H85 C83 0.951 . S
C86 C84 1.382 1_556 S
C86 C87 1.390 . S
C86 H91 0.949 . S
C87 C86 1.390 . S
C87 C92 1.399 1_556 S
C88 C84 1.404 . S
C88 H89 0.950 . S
C88 C90 1.375 . S
H89 C88 0.950 . S
C90 C88 1.375 . S
C90 C92 1.382 . S
C90 H94 0.950 . S
H91 C86 0.949 . S
C92 C87 1.399 1_554 S
C92 C90 1.382 . S
C92 H93 0.952 . S
H93 C92 0.952 . S
H94 C90 0.950 . S
H95 C96 0.949 . S
C96 H95 0.949 . S
C96 C97 1.395 . S
C96 C98 1.391 . S
C97 C96 1.395 . S
C97 C100 1.390 . S
C98 C96 1.391 . S
C98 C102 1.387 . S
C98 C103 1.491 . S
H99 C100 0.950 . S
C100 C97 1.390 . S
C100 H99 0.950 . S
C100 C101 1.378 . S
C101 C100 1.378 . S
C101 C102 1.409 . S
C102 C98 1.387 . S
C102 C101 1.409 . S
C102 H104 0.951 . S
C103 C98 1.491 . S
C103 C105 1.382 . S
C103 C107 1.404 . S
H104 C102 0.951 . S
C105 C103 1.382 . S
C105 C106 1.390 . S
C105 H110 0.949 . S
C106 C105 1.390 . S
C106 C111 1.399 . S
C107 C103 1.404 . S
C107 H108 0.950 . S
C107 C109 1.375 . S
H108 C107 0.950 . S
C109 C107 1.375 . S
C109 C111 1.382 . S
C109 H113 0.950 . S
H110 C105 0.949 . S
C111 C106 1.399 . S
C111 C109 1.382 . S
C111 H112 0.952 . S
H112 C111 0.952 . S
H113 C109 0.950 . S
H114 C115 0.949 . S
C115 H114 0.949 . S
C115 C116 1.395 . S
C115 C117 1.391 1_556 S
C116 C115 1.395 . S
C116 C119 1.390 1_556 S
C117 C115 1.391 1_554 S
C117 C121 1.387 . S
C117 C122 1.491 . S
H118 C119 0.950 . S
C119 C116 1.390 1_554 S
C119 H118 0.950 . S
C119 C120 1.378 . S
C120 C119 1.378 . S
C120 C121 1.409 . S
C121 C117 1.387 . S
C121 C120 1.409 . S
C121 H123 0.951 . S
C122 C117 1.491 . S
C122 C124 1.382 1_554 S
C122 C126 1.404 . S
H123 C121 0.951 . S
C124 C122 1.382 1_556 S
C124 C125 1.390 . S
C124 H129 0.949 . S
C125 C124 1.390 . S
C125 C130 1.399 . S
C126 C122 1.404 . S
C126 H127 0.950 . S
C126 C128 1.375 . S
H127 C126 0.950 . S
C128 C126 1.375 . S
C128 C130 1.382 1_554 S
C128 H132 0.950 . S
H129 C124 0.949 . S
C130 C125 1.399 . S
C130 C128 1.382 1_556 S
C130 H131 0.952 . S
H131 C130 0.952 . S
H132 C128 0.950 . S
H133 C134 0.949 . S
C134 H133 0.949 . S
C134 C135 1.395 . S
C134 C136 1.391 . S
C135 C134 1.395 . S
C135 C138 1.390 . S
C136 C134 1.391 . S
C136 C140 1.387 . S
C136 C141 1.491 . S
H137 C138 0.950 . S
C138 C135 1.390 . S
C138 H137 0.950 . S
C138 C139 1.378 . S
C139 C138 1.378 . S
C139 C140 1.409 . S
C140 C136 1.387 . S
C140 C139 1.409 . S
C140 H142 0.951 . S
C141 C136 1.491 . S
C141 C143 1.382 . S
C141 C145 1.404 . S
H142 C140 0.951 . S
C143 C141 1.382 . S
C143 C144 1.390 . S
C143 H148 0.949 . S
C144 C143 1.390 . S
C144 C149 1.399 . S
C145 C141 1.404 . S
C145 H146 0.950 . S
C145 C147 1.375 . S
H146 C145 0.950 . S
C147 C145 1.375 . S
C147 C149 1.382 . S
C147 H151 0.950 . S
H148 C143 0.949 . S
C149 C144 1.399 . S
C149 C147 1.382 . S
C149 H150 0.952 . S
H150 C149 0.952 . S
H151 C147 0.950 . S
Fe152 O154 1.918 . S
Fe152 O157 1.997 1_455 S
Fe152 O158 2.002 1_455 S
Fe152 O163 1.976 . S
Fe152 O166 1.996 . S
Fe153 O154 1.918 . S
Fe153 O161 1.997 1_455 S
Fe153 O164 1.996 . S
Fe153 O168 1.976 . S
Fe153 O171 2.002 1_455 S
O154 Fe152 1.918 . S
O154 Fe153 1.918 . S
O154 Fe155 1.918 . S
Fe155 O154 1.918 . S
Fe155 O156 2.002 1_455 S
Fe155 O165 1.976 . S
Fe155 O169 1.996 . S
Fe155 O172 1.997 1_455 S
O156 Fe155 2.002 1_655 S
O156 C173 1.295 . S
O157 Fe152 1.997 1_655 S
O157 C173 1.235 . S
O158 Fe152 2.002 1_655 S
O158 C159 1.295 . S
C159 O158 1.295 . S
C159 O161 1.235 . S
C160 O165 1.287 . S
C160 O166 1.255 . S
O161 Fe153 1.997 1_655 S
O161 C159 1.235 . S
C162 O168 1.287 . S
C162 O169 1.255 . S
O163 Fe152 1.976 . S
O163 C170 1.287 . S
O164 Fe153 1.996 . S
O164 C170 1.255 . S
O165 Fe155 1.976 . S
O165 C160 1.287 . S
O166 Fe152 1.996 . S
O166 C160 1.255 . S
C167 O171 1.295 . S
C167 O172 1.235 . S
O168 Fe153 1.976 . S
O168 C162 1.287 . S
O169 Fe155 1.996 . S
O169 C162 1.255 . S
C170 O163 1.287 . S
C170 O164 1.255 . S
O171 Fe153 2.002 1_655 S
O171 C167 1.295 . S
O172 Fe155 1.997 1_655 S
O172 C167 1.235 . S
C173 O156 1.295 . S
C173 O157 1.235 . S
Fe174 O176 1.918 . S
Fe174 O179 1.997 1_655 S
Fe174 O180 2.002 1_655 S
Fe174 O185 1.976 . S
Fe174 O188 1.996 . S
Fe175 O176 1.918 . S
Fe175 O183 1.997 1_655 S
Fe175 O186 1.996 . S
Fe175 O190 1.976 . S
Fe175 O193 2.002 1_655 S
O176 Fe174 1.918 . S
O176 Fe175 1.918 . S
O176 Fe177 1.918 . S
Fe177 O176 1.918 . S
Fe177 O178 2.002 1_655 S
Fe177 O187 1.976 . S
Fe177 O191 1.996 . S
Fe177 O194 1.997 1_655 S
O178 Fe177 2.002 1_455 S
O178 C195 1.295 . S
O179 Fe174 1.997 1_455 S
O179 C195 1.235 . S
O180 Fe174 2.002 1_455 S
O180 C181 1.295 . S
C181 O180 1.295 . S
C181 O183 1.235 . S
C182 O187 1.287 . S
C182 O188 1.255 . S
O183 Fe175 1.997 1_455 S
O183 C181 1.235 . S
C184 O190 1.287 . S
C184 O191 1.255 . S
O185 Fe174 1.976 . S
O185 C192 1.287 . S
O186 Fe175 1.996 . S
O186 C192 1.255 . S
O187 Fe177 1.976 . S
O187 C182 1.287 . S
O188 Fe174 1.996 . S
O188 C182 1.255 . S
C189 O193 1.295 . S
C189 O194 1.235 . S
O190 Fe175 1.976 . S
O190 C184 1.287 . S
O191 Fe177 1.996 . S
O191 C184 1.255 . S
C192 O185 1.287 . S
C192 O186 1.255 . S
O193 Fe175 2.002 1_455 S
O193 C189 1.295 . S
O194 Fe177 1.997 1_455 S
O194 C189 1.235 . S
C195 O178 1.295 . S
C195 O179 1.235 . S
Fe196 O198 1.918 . S
Fe196 O201 1.997 . S
Fe196 O202 2.002 . S
Fe196 O207 1.976 . S
Fe196 O210 1.996 . S
Fe197 O198 1.918 . S
Fe197 O205 1.997 . S
Fe197 O208 1.996 . S
Fe197 O212 1.976 . S
Fe197 O215 2.002 . S
O198 Fe196 1.918 . S
O198 Fe197 1.918 . S
O198 Fe199 1.918 . S
Fe199 O198 1.918 . S
Fe199 O200 2.002 . S
Fe199 O209 1.976 . S
Fe199 O213 1.996 . S
Fe199 O216 1.997 . S
O200 Fe199 2.002 . S
O200 C217 1.295 . S
O201 Fe196 1.997 . S
O201 C217 1.235 . S
O202 Fe196 2.002 . S
O202 C203 1.295 . S
C203 O202 1.295 . S
C203 O205 1.235 . S
C204 O209 1.287 . S
C204 O210 1.255 . S
O205 Fe197 1.997 . S
O205 C203 1.235 . S
C206 O212 1.287 . S
C206 O213 1.255 . S
O207 Fe196 1.976 . S
O207 C214 1.287 . S
O208 Fe197 1.996 . S
O208 C214 1.255 . S
O209 Fe199 1.976 . S
O209 C204 1.287 . S
O210 Fe196 1.996 . S
O210 C204 1.255 . S
C211 O215 1.295 . S
C211 O216 1.235 . S
O212 Fe197 1.976 . S
O212 C206 1.287 . S
O213 Fe199 1.996 . S
O213 C206 1.255 . S
C214 O207 1.287 . S
C214 O208 1.255 . S
O215 Fe197 2.002 . S
O215 C211 1.295 . S
O216 Fe199 1.997 . S
O216 C211 1.235 . S
C217 O200 1.295 . S
C217 O201 1.235 . S
Fe218 O220 1.918 . S
Fe218 O223 1.997 . S
Fe218 O224 2.002 . S
Fe218 O229 1.976 . S
Fe218 O232 1.996 . S
Fe219 O220 1.918 . S
Fe219 O227 1.997 . S
Fe219 O230 1.996 . S
Fe219 O234 1.976 . S
Fe219 O237 2.002 . S
O220 Fe218 1.918 . S
O220 Fe219 1.918 . S
O220 Fe221 1.918 . S
Fe221 O220 1.918 . S
Fe221 O222 2.002 . S
Fe221 O231 1.976 . S
Fe221 O235 1.996 . S
Fe221 O238 1.997 . S
O222 Fe221 2.002 . S
O222 C239 1.295 . S
O223 Fe218 1.997 . S
O223 C239 1.235 . S
O224 Fe218 2.002 . S
O224 C225 1.295 . S
C225 O224 1.295 . S
C225 O227 1.235 . S
C226 O231 1.287 . S
C226 O232 1.255 . S
O227 Fe219 1.997 . S
O227 C225 1.235 . S
C228 O234 1.287 . S
C228 O235 1.255 . S
O229 Fe218 1.976 . S
O229 C236 1.287 . S
O230 Fe219 1.996 . S
O230 C236 1.255 . S
O231 Fe221 1.976 . S
O231 C226 1.287 . S
O232 Fe218 1.996 . S
O232 C226 1.255 . S
C233 O237 1.295 . S
C233 O238 1.235 . S
O234 Fe219 1.976 . S
O234 C228 1.287 . S
O235 Fe221 1.996 . S
O235 C228 1.255 . S
C236 O229 1.287 . S
C236 O230 1.255 . S
O237 Fe219 2.002 . S
O237 C233 1.295 . S
O238 Fe221 1.997 . S
O238 C233 1.235 . S
C239 O222 1.295 . S
C239 O223 1.235 . S
C240 C241 1.363 . S
C240 C246 1.379 . S
C240 N248 1.356 . S
C241 C240 1.363 . S
C241 C247 1.363 . S
C242 C243 1.363 . S
C242 C247 1.379 . S
C242 N249 1.356 . S
C243 C242 1.363 . S
C243 C246 1.363 . S
N244 C246 1.356 . S
N244 H256 0.984 . S
N244 H257 0.985 . S
N245 C247 1.356 1_554 S
N245 H250 0.984 . S
N245 H251 0.985 . S
C246 C240 1.379 . S
C246 C243 1.363 . S
C246 N244 1.356 . S
C247 C241 1.363 . S
C247 C242 1.379 . S
C247 N245 1.356 1_556 S
N248 C240 1.356 . S
N248 H254 0.984 . S
N248 H255 0.984 . S
N249 C242 1.356 . S
N249 H252 0.984 . S
N249 H253 0.985 . S
H250 N245 0.984 . S
H251 N245 0.985 . S
H252 N249 0.984 . S
H253 N249 0.985 . S
H254 N248 0.984 . S
H255 N248 0.984 . S
H256 N244 0.984 . S
H257 N244 0.985 . S
C258 C259 1.363 . S
C258 C264 1.379 . S
C258 N266 1.356 . S
C259 C258 1.363 . S
C259 C265 1.363 . S
C260 C261 1.363 . S
C260 C265 1.379 . S
C260 N267 1.356 . S
C261 C260 1.363 . S
C261 C264 1.363 . S
N262 C264 1.356 . S
N262 H274 0.984 . S
N262 H275 0.985 . S
N263 C265 1.356 . S
N263 H268 0.984 . S
N263 H269 0.985 . S
C264 C258 1.379 . S
C264 C261 1.363 . S
C264 N262 1.356 . S
C265 C259 1.363 . S
C265 C260 1.379 . S
C265 N263 1.356 . S
N266 C258 1.356 . S
N266 H272 0.984 . S
N266 H273 0.984 . S
N267 C260 1.356 . S
N267 H270 0.984 . S
N267 H271 0.985 . S
H268 N263 0.984 . S
H269 N263 0.985 . S
H270 N267 0.984 . S
H271 N267 0.985 . S
H272 N266 0.984 . S
H273 N266 0.984 . S
H274 N262 0.984 . S
H275 N262 0.985 . S
C276 C277 1.363 . S
C276 C282 1.379 . S
C276 N284 1.356 . S
C277 C276 1.363 . S
C277 C283 1.363 . S
C278 C279 1.363 . S
C278 C283 1.379 . S
C278 N285 1.356 . S
C279 C278 1.363 . S
C279 C282 1.363 . S
N280 C282 1.356 . S
N280 H292 0.984 . S
N280 H293 0.985 . S
N281 C283 1.356 1_554 S
N281 H286 0.984 . S
N281 H287 0.985 . S
C282 C276 1.379 . S
C282 C279 1.363 . S
C282 N280 1.356 . S
C283 C277 1.363 . S
C283 C278 1.379 . S
C283 N281 1.356 1_556 S
N284 C276 1.356 . S
N284 H290 0.984 . S
N284 H291 0.984 . S
N285 C278 1.356 . S
N285 H288 0.984 . S
N285 H289 0.985 1_556 S
H286 N281 0.984 . S
H287 N281 0.985 . S
H288 N285 0.984 . S
H289 N285 0.985 1_554 S
H290 N284 0.984 . S
H291 N284 0.984 . S
H292 N280 0.984 . S
H293 N280 0.985 . S
C294 C295 1.363 . S
C294 C300 1.379 . S
C294 N302 1.356 . S
C295 C294 1.363 . S
C295 C301 1.363 . S
C296 C297 1.363 . S
C296 C301 1.379 . S
C296 N303 1.356 . S
C297 C296 1.363 . S
C297 C300 1.363 . S
N298 C300 1.356 . S
N298 H310 0.984 . S
N298 H311 0.985 . S
N299 C301 1.356 . S
N299 H304 0.984 . S
N299 H305 0.985 . S
C300 C294 1.379 . S
C300 C297 1.363 . S
C300 N298 1.356 . S
C301 C295 1.363 . S
C301 C296 1.379 . S
C301 N299 1.356 . S
N302 C294 1.356 . S
N302 H308 0.984 . S
N302 H309 0.984 . S
N303 C296 1.356 . S
N303 H306 0.984 . S
N303 H307 0.985 . S
H304 N299 0.984 . S
H305 N299 0.985 . S
H306 N303 0.984 . S
H307 N303 0.985 . S
H308 N302 0.984 . S
H309 N302 0.984 . S
H310 N298 0.984 . S
H311 N298 0.985 . S
C312 C313 1.363 . S
C312 C318 1.379 . S
C312 N320 1.356 . S
C313 C312 1.363 . S
C313 C319 1.363 . S
C314 C315 1.363 . S
C314 C319 1.379 . S
C314 N321 1.356 . S
C315 C314 1.363 . S
C315 C318 1.363 . S
N316 C318 1.356 . S
N316 H328 0.984 . S
N316 H329 0.985 . S
N317 C319 1.356 1_554 S
N317 H322 0.984 . S
N317 H323 0.985 . S
C318 C312 1.379 . S
C318 C315 1.363 . S
C318 N316 1.356 . S
C319 C313 1.363 . S
C319 C314 1.379 . S
C319 N317 1.356 1_556 S
N320 C312 1.356 . S
N320 H326 0.984 . S
N320 H327 0.984 . S
N321 C314 1.356 . S
N321 H324 0.984 . S
N321 H325 0.985 . S
H322 N317 0.984 . S
H323 N317 0.985 . S
H324 N321 0.984 . S
H325 N321 0.985 . S
H326 N320 0.984 . S
H327 N320 0.984 . S
H328 N316 0.984 . S
H329 N316 0.985 . S
C330 C331 1.363 . S
C330 C336 1.379 . S
C330 N338 1.356 . S
C331 C330 1.363 . S
C331 C337 1.363 . S
C332 C333 1.363 . S
C332 C337 1.379 . S
C332 N339 1.356 . S
C333 C332 1.363 . S
C333 C336 1.363 . S
N334 C336 1.356 . S
N334 H346 0.984 . S
N334 H347 0.985 . S
N335 C337 1.356 . S
N335 H340 0.984 . S
N335 H341 0.985 . S
C336 C330 1.379 . S
C336 C333 1.363 . S
C336 N334 1.356 . S
C337 C331 1.363 . S
C337 C332 1.379 . S
C337 N335 1.356 . S
N338 C330 1.356 . S
N338 H344 0.984 . S
N338 H345 0.984 . S
N339 C332 1.356 . S
N339 H342 0.984 . S
N339 H343 0.985 . S
H340 N335 0.984 . S
H341 N335 0.985 . S
H342 N339 0.984 . S
H343 N339 0.985 . S
H344 N338 0.984 . S
H345 N338 0.984 . S
H346 N334 0.984 . S
H347 N334 0.985 . S
C348 C349 1.363 . S
C348 C354 1.379 . S
C348 N356 1.356 . S
C349 C348 1.363 . S
C349 C355 1.363 . S
C350 C351 1.363 . S
C350 C355 1.379 . S
C350 N357 1.356 . S
C351 C350 1.363 . S
C351 C354 1.363 . S
N352 C354 1.356 . S
N352 H364 0.984 . S
N352 H365 0.985 . S
N353 C355 1.356 . S
N353 H358 0.984 . S
N353 H359 0.985 . S
C354 C348 1.379 . S
C354 C351 1.363 . S
C354 N352 1.356 . S
C355 C349 1.363 . S
C355 C350 1.379 . S
C355 N353 1.356 . S
N356 C348 1.356 . S
N356 H362 0.984 . S
N356 H363 0.984 . S
N357 C350 1.356 . S
N357 H360 0.984 . S
N357 H361 0.985 . S
H358 N353 0.984 . S
H359 N353 0.985 . S
H360 N357 0.984 . S
H361 N357 0.985 . S
H362 N356 0.984 . S
H363 N356 0.984 . S
H364 N352 0.984 . S
H365 N352 0.985 . S
C366 C367 1.363 . S
C366 C372 1.379 . S
C366 N374 1.356 . S
C367 C366 1.363 . S
C367 C373 1.363 . S
C368 C369 1.363 . S
C368 C373 1.379 . S
C368 N375 1.356 . S
C369 C368 1.363 . S
C369 C372 1.363 . S
N370 C372 1.356 . S
N370 H382 0.984 . S
N370 H383 0.985 . S
N371 C373 1.356 . S
N371 H376 0.984 . S
N371 H377 0.985 . S
C372 C366 1.379 . S
C372 C369 1.363 . S
C372 N370 1.356 . S
C373 C367 1.363 . S
C373 C368 1.379 . S
C373 N371 1.356 . S
N374 C366 1.356 . S
N374 H380 0.984 . S
N374 H381 0.984 . S
N375 C368 1.356 . S
N375 H378 0.984 . S
N375 H379 0.985 . S
H376 N371 0.984 . S
H377 N371 0.985 . S
H378 N375 0.984 . S
H379 N375 0.985 . S
H380 N374 0.984 . S
H381 N374 0.984 . S
H382 N370 0.984 . S
H383 N370 0.985 . S
C384 C385 1.363 . S
C384 C390 1.379 . S
C384 N392 1.356 . S
C385 C384 1.363 . S
C385 C391 1.363 . S
C386 C387 1.363 . S
C386 C391 1.379 . S
C386 N393 1.356 . S
C387 C386 1.363 . S
C387 C390 1.363 . S
N388 C390 1.356 . S
N388 H400 0.984 . S
N388 H401 0.985 . S
N389 C391 1.356 . S
N389 H394 0.984 1_556 S
N389 H395 0.985 . S
C390 C384 1.379 . S
C390 C387 1.363 . S
C390 N388 1.356 . S
C391 C385 1.363 . S
C391 C386 1.379 . S
C391 N389 1.356 . S
N392 C384 1.356 . S
N392 H398 0.984 . S
N392 H399 0.984 . S
N393 C386 1.356 . S
N393 H396 0.984 . S
N393 H397 0.985 . S
H394 N389 0.984 1_554 S
H395 N389 0.985 . S
H396 N393 0.984 . S
H397 N393 0.985 . S
H398 N392 0.984 . S
H399 N392 0.984 . S
H400 N388 0.984 . S
H401 N388 0.985 . S
C402 C403 1.363 . S
C402 C408 1.379 . S
C402 N410 1.356 . S
C403 C402 1.363 . S
C403 C409 1.363 . S
C404 C405 1.363 . S
C404 C409 1.379 . S
C404 N411 1.356 . S
C405 C404 1.363 . S
C405 C408 1.363 . S
N406 C408 1.356 . S
N406 H418 0.984 . S
N406 H419 0.985 . S
N407 C409 1.356 . S
N407 H412 0.984 . S
N407 H413 0.985 . S
C408 C402 1.379 . S
C408 C405 1.363 . S
C408 N406 1.356 . S
C409 C403 1.363 . S
C409 C404 1.379 . S
C409 N407 1.356 . S
N410 C402 1.356 . S
N410 H416 0.984 . S
N410 H417 0.984 . S
N411 C404 1.356 . S
N411 H414 0.984 . S
N411 H415 0.985 . S
H412 N407 0.984 . S
H413 N407 0.985 . S
H414 N411 0.984 . S
H415 N411 0.985 . S
H416 N410 0.984 . S
H417 N410 0.984 . S
H418 N406 0.984 . S
H419 N406 0.985 . S
C420 C421 1.363 . S
C420 C426 1.379 . S
C420 N428 1.356 . S
C421 C420 1.363 . S
C421 C427 1.363 . S
C422 C423 1.363 . S
C422 C427 1.379 . S
C422 N429 1.356 . S
C423 C422 1.363 . S
C423 C426 1.363 . S
N424 C426 1.356 . S
N424 H436 0.984 . S
N424 H437 0.985 . S
N425 C427 1.356 1_554 S
N425 H430 0.984 . S
N425 H431 0.985 . S
C426 C420 1.379 . S
C426 C423 1.363 . S
C426 N424 1.356 . S
C427 C421 1.363 . S
C427 C422 1.379 . S
C427 N425 1.356 1_556 S
N428 C420 1.356 . S
N428 H434 0.984 . S
N428 H435 0.984 . S
N429 C422 1.356 . S
N429 H432 0.984 . S
N429 H433 0.985 . S
H430 N425 0.984 . S
H431 N425 0.985 . S
H432 N429 0.984 . S
H433 N429 0.985 . S
H434 N428 0.984 . S
H435 N428 0.984 . S
H436 N424 0.984 . S
H437 N424 0.985 . S
C438 C439 1.363 . S
C438 C444 1.379 . S
C438 N446 1.356 . S
C439 C438 1.363 . S
C439 C445 1.363 . S
C440 C441 1.363 . S
C440 C445 1.379 . S
C440 N447 1.356 . S
C441 C440 1.363 . S
C441 C444 1.363 . S
N442 C444 1.356 . S
N442 H454 0.984 . S
N442 H455 0.985 . S
N443 C445 1.356 . S
N443 H448 0.984 . S
N443 H449 0.985 . S
C444 C438 1.379 . S
C444 C441 1.363 . S
C444 N442 1.356 . S
C445 C439 1.363 . S
C445 C440 1.379 . S
C445 N443 1.356 . S
N446 C438 1.356 . S
N446 H452 0.984 . S
N446 H453 0.984 . S
N447 C440 1.356 . S
N447 H450 0.984 . S
N447 H451 0.985 . S
H448 N443 0.984 . S
H449 N443 0.985 . S
H450 N447 0.984 . S
H451 N447 0.985 . S
H452 N446 0.984 . S
H453 N446 0.984 . S
H454 N442 0.984 . S
H455 N442 0.985 . S
C456 C457 1.363 . S
C456 C462 1.379 . S
C456 N464 1.356 . S
C457 C456 1.363 . S
C457 C463 1.363 . S
C458 C459 1.374 . S
C458 C463 1.379 1_545 S
C458 N465 1.356 . S
C459 C458 1.374 . S
C459 C462 1.337 1_545 S
N460 C462 1.356 . S
N460 H472 0.984 . S
N460 H473 0.985 . S
N461 C463 1.354 1_545 S
N461 H466 0.974 1_545 S
N461 H467 0.998 . S
C462 C456 1.379 . S
C462 C459 1.337 1_565 S
C462 N460 1.356 . S
C463 C457 1.363 . S
C463 C458 1.379 1_565 S
C463 N461 1.354 1_565 S
N464 C456 1.356 . S
N464 H470 0.984 . S
N464 H471 0.984 . S
N465 C458 1.356 . S
N465 H468 0.984 . S
N465 H469 0.985 . S
H466 N461 0.974 1_565 S
H467 N461 0.998 . S
H468 N465 0.984 . S
H469 N465 0.985 . S
H470 N464 0.984 . S
H471 N464 0.984 . S
H472 N460 0.984 . S
H473 N460 0.985 . S
C474 C475 1.363 . S
C474 C480 1.379 1_545 S
C474 N482 1.356 . S
C475 C474 1.363 . S
C475 C481 1.363 . S
C476 C477 1.344 1_545 S
C476 C481 1.379 . S
C476 N483 1.356 . S
C477 C476 1.344 1_565 S
C477 C480 1.367 . S
N478 C480 1.356 . S
N478 H490 0.984 . S
N478 H491 0.985 . S
N479 C481 1.356 . S
N479 H484 0.984 . S
N479 H485 0.985 . S
C480 C474 1.379 1_565 S
C480 C477 1.367 . S
C480 N478 1.356 . S
C481 C475 1.363 . S
C481 C476 1.379 . S
C481 N479 1.356 . S
N482 C474 1.356 . S
N482 H488 0.986 1_545 S
N482 H489 0.984 . S
N483 C476 1.356 . S
N483 H486 0.984 . S
N483 H487 0.985 . S
H484 N479 0.984 . S
H485 N479 0.985 . S
H486 N483 0.984 . S
H487 N483 0.985 . S
H488 N482 0.986 1_565 S
H489 N482 0.984 . S
H490 N478 0.984 . S
H491 N478 0.985 . S
C492 C493 1.363 . S
C492 C498 1.379 . S
C492 N500 1.356 1_556 S
C493 C492 1.363 . S
C493 C499 1.363 . S
C494 C495 1.363 1_565 S
C494 C499 1.379 . S
C494 N501 1.356 1_565 S
C495 C494 1.363 1_545 S
C495 C498 1.363 1_545 S
N496 C498 1.356 1_545 S
N496 H508 0.984 1_556 S
N496 H509 0.985 . S
N497 C499 1.356 . S
N497 H502 0.984 . S
N497 H503 0.985 . S
C498 C492 1.379 . S
C498 C495 1.363 1_565 S
C498 N496 1.356 1_565 S
C499 C493 1.363 . S
C499 C494 1.379 . S
C499 N497 1.356 . S
N500 C492 1.356 1_554 S
N500 H506 0.984 . S
N500 H507 0.984 . S
N501 C494 1.356 1_545 S
N501 H504 0.984 . S
N501 H505 0.985 . S
H502 N497 0.984 . S
H503 N497 0.985 . S
H504 N501 0.984 . S
H505 N501 0.985 . S
H506 N500 0.984 . S
H507 N500 0.984 . S
H508 N496 0.984 1_554 S
H509 N496 0.985 . S
C510 C511 1.363 . S
C510 C516 1.379 . S
C510 N518 1.356 . S
C511 C510 1.363 . S
C511 C517 1.363 . S
C512 C513 1.363 1_545 S
C512 C517 1.379 . S
C512 N519 1.356 1_545 S
C513 C512 1.363 1_565 S
C513 C516 1.363 1_565 S
N514 C516 1.356 1_565 S
N514 H526 0.984 1_565 S
N514 H527 0.985 . S
N515 C517 1.356 . S
N515 H520 0.984 . S
N515 H521 0.985 . S
C516 C510 1.379 . S
C516 C513 1.363 1_545 S
C516 N514 1.356 1_545 S
C517 C511 1.363 . S
C517 C512 1.379 . S
C517 N515 1.356 . S
N518 C510 1.356 . S
N518 H524 0.984 . S
N518 H525 0.984 . S
N519 C512 1.356 1_565 S
N519 H522 0.984 . S
N519 H523 0.985 . S
H520 N515 0.984 . S
H521 N515 0.985 . S
H522 N519 0.984 . S
H523 N519 0.985 . S
H524 N518 0.984 . S
H525 N518 0.984 . S
H526 N514 0.984 1_545 S
H527 N514 0.985 . S
C528 C529 1.363 . S
C528 C534 1.379 . S
C528 N536 1.356 . S
C529 C528 1.363 . S
C529 C535 1.363 . S
C530 C531 1.363 . S
C530 C535 1.379 . S
C530 N537 1.356 . S
C531 C530 1.363 . S
C531 C534 1.363 . S
N532 C534 1.356 . S
N532 H544 0.984 . S
N532 H545 0.985 . S
N533 C535 1.356 . S
N533 H538 0.984 . S
N533 H539 0.985 . S
C534 C528 1.379 . S
C534 C531 1.363 . S
C534 N532 1.356 . S
C535 C529 1.363 . S
C535 C530 1.379 . S
C535 N533 1.356 . S
N536 C528 1.356 . S
N536 H542 0.984 . S
N536 H543 0.984 . S
N537 C530 1.356 . S
N537 H540 0.984 . S
N537 H541 0.985 . S
H538 N533 0.984 . S
H539 N533 0.985 . S
H540 N537 0.984 . S
H541 N537 0.985 . S
H542 N536 0.984 . S
H543 N536 0.984 . S
H544 N532 0.984 . S
H545 N532 0.985 . S
C546 C547 1.363 . S
C546 C552 1.379 . S
C546 N554 1.356 . S
C547 C546 1.363 . S
C547 C553 1.363 . S
C548 C549 1.363 . S
C548 C553 1.379 . S
C548 N555 1.356 . S
C549 C548 1.363 . S
C549 C552 1.363 . S
N550 C552 1.356 . S
N550 H562 0.984 . S
N550 H563 0.985 . S
N551 C553 1.356 . S
N551 H556 0.984 . S
N551 H557 0.985 . S
C552 C546 1.379 . S
C552 C549 1.363 . S
C552 N550 1.356 . S
C553 C547 1.363 . S
C553 C548 1.379 . S
C553 N551 1.356 . S
N554 C546 1.356 . S
N554 H560 0.984 . S
N554 H561 0.984 . S
N555 C548 1.356 . S
N555 H558 0.984 . S
N555 H559 0.985 . S
H556 N551 0.984 . S
H557 N551 0.985 . S
H558 N555 0.984 . S
H559 N555 0.985 . S
H560 N554 0.984 . S
H561 N554 0.984 . S
H562 N550 0.984 . S
H563 N550 0.985 . S
C564 C565 1.363 . S
C564 C570 1.379 . S
C564 N572 1.356 . S
C565 C564 1.363 . S
C565 C571 1.363 . S
C566 C567 1.363 . S
C566 C571 1.379 . S
C566 N573 1.356 . S
C567 C566 1.363 . S
C567 C570 1.363 . S
N568 C570 1.356 . S
N568 H580 0.984 . S
N568 H581 0.985 . S
N569 C571 1.356 . S
N569 H574 0.984 . S
N569 H575 0.985 . S
C570 C564 1.379 . S
C570 C567 1.363 . S
C570 N568 1.356 . S
C571 C565 1.363 . S
C571 C566 1.379 . S
C571 N569 1.356 . S
N572 C564 1.356 . S
N572 H578 0.984 . S
N572 H579 0.984 . S
N573 C566 1.356 . S
N573 H576 0.984 . S
N573 H577 0.985 . S
H574 N569 0.984 . S
H575 N569 0.985 . S
H576 N573 0.984 . S
H577 N573 0.985 . S
H578 N572 0.984 . S
H579 N572 0.984 . S
H580 N568 0.984 . S
H581 N568 0.985 . S
C582 C583 1.363 . S
C582 C588 1.379 . S
C582 N590 1.356 . S
C583 C582 1.363 . S
C583 C589 1.363 . S
C584 C585 1.363 . S
C584 C589 1.379 . S
C584 N591 1.356 . S
C585 C584 1.363 . S
C585 C588 1.363 . S
N586 C588 1.356 . S
N586 H598 0.984 . S
N586 H599 0.985 . S
N587 C589 1.356 . S
N587 H592 0.984 . S
N587 H593 0.985 . S
C588 C582 1.379 . S
C588 C585 1.363 . S
C588 N586 1.356 . S
C589 C583 1.363 . S
C589 C584 1.379 . S
C589 N587 1.356 . S
N590 C582 1.356 . S
N590 H596 0.984 . S
N590 H597 0.984 . S
N591 C584 1.356 . S
N591 H594 0.984 . S
N591 H595 0.985 . S
H592 N587 0.984 . S
H593 N587 0.985 . S
H594 N591 0.984 . S
H595 N591 0.985 . S
H596 N590 0.984 . S
H597 N590 0.984 . S
H598 N586 0.984 . S
H599 N586 0.985 . S
C600 C601 1.363 . S
C600 C606 1.379 . S
C600 N608 1.356 . S
C601 C600 1.363 . S
C601 C607 1.363 . S
C602 C603 1.363 . S
C602 C607 1.379 . S
C602 N609 1.356 . S
C603 C602 1.363 . S
C603 C606 1.363 . S
N604 C606 1.356 . S
N604 H616 0.984 . S
N604 H617 0.985 . S
N605 C607 1.356 . S
N605 H610 0.984 . S
N605 H611 0.985 . S
C606 C600 1.379 . S
C606 C603 1.363 . S
C606 N604 1.356 . S
C607 C601 1.363 . S
C607 C602 1.379 . S
C607 N605 1.356 . S
N608 C600 1.356 . S
N608 H614 0.984 . S
N608 H615 0.984 . S
N609 C602 1.356 . S
N609 H612 0.984 . S
N609 H613 0.985 . S
H610 N605 0.984 . S
H611 N605 0.985 . S
H612 N609 0.984 . S
H613 N609 0.985 . S
H614 N608 0.984 . S
H615 N608 0.984 . S
H616 N604 0.984 . S
H617 N604 0.985 . S
C618 C619 1.363 . S
C618 C624 1.379 . S
C618 N626 1.356 . S
C619 C618 1.363 . S
C619 C625 1.363 . S
C620 C621 1.363 . S
C620 C625 1.379 . S
C620 N627 1.356 . S
C621 C620 1.363 . S
C621 C624 1.363 . S
N622 C624 1.356 . S
N622 H634 0.984 . S
N622 H635 0.985 . S
N623 C625 1.356 . S
N623 H628 0.984 . S
N623 H629 0.985 . S
C624 C618 1.379 . S
C624 C621 1.363 . S
C624 N622 1.356 . S
C625 C619 1.363 . S
C625 C620 1.379 . S
C625 N623 1.356 . S
N626 C618 1.356 . S
N626 H632 0.984 . S
N626 H633 0.984 . S
N627 C620 1.356 . S
N627 H630 0.984 . S
N627 H631 0.985 . S
H628 N623 0.984 . S
H629 N623 0.985 . S
H630 N627 0.984 . S
H631 N627 0.985 . S
H632 N626 0.984 . S
H633 N626 0.984 . S
H634 N622 0.984 . S
H635 N622 0.985 . S
C636 C637 1.363 . S
C636 C642 1.379 . S
C636 N644 1.356 . S
C637 C636 1.363 . S
C637 C643 1.363 . S
C638 C639 1.363 . S
C638 C643 1.379 . S
C638 N645 1.356 . S
C639 C638 1.363 . S
C639 C642 1.363 . S
N640 C642 1.356 . S
N640 H652 0.984 . S
N640 H653 0.985 . S
N641 C643 1.356 . S
N641 H646 0.984 . S
N641 H647 0.985 . S
C642 C636 1.379 . S
C642 C639 1.363 . S
C642 N640 1.356 . S
C643 C637 1.363 . S
C643 C638 1.379 . S
C643 N641 1.356 . S
N644 C636 1.356 . S
N644 H650 0.984 . S
N644 H651 0.984 . S
N645 C638 1.356 . S
N645 H648 0.984 . S
N645 H649 0.985 . S
H646 N641 0.984 . S
H647 N641 0.985 . S
H648 N645 0.984 . S
H649 N645 0.985 . S
H650 N644 0.984 . S
H651 N644 0.984 . S
H652 N640 0.984 . S
H653 N640 0.985 . S
C654 C655 1.363 . S
C654 C660 1.379 . S
C654 N662 1.356 . S
C655 C654 1.363 . S
C655 C661 1.363 . S
C656 C657 1.363 . S
C656 C661 1.379 . S
C656 N663 1.356 . S
C657 C656 1.363 . S
C657 C660 1.363 . S
N658 C660 1.356 . S
N658 H670 0.984 . S
N658 H671 0.985 . S
N659 C661 1.356 . S
N659 H664 0.984 . S
N659 H665 0.985 . S
C660 C654 1.379 . S
C660 C657 1.363 . S
C660 N658 1.356 . S
C661 C655 1.363 . S
C661 C656 1.379 . S
C661 N659 1.356 . S
N662 C654 1.356 . S
N662 H668 0.984 . S
N662 H669 0.984 . S
N663 C656 1.356 . S
N663 H666 0.984 . S
N663 H667 0.985 . S
H664 N659 0.984 . S
H665 N659 0.985 . S
H666 N663 0.984 . S
H667 N663 0.985 . S
H668 N662 0.984 . S
H669 N662 0.984 . S
H670 N658 0.984 . S
H671 N658 0.985 . S
C241 C11 1.480 . S
C243 C195 1.551 . S
C261 C159 1.551 . S
C259 C30 1.480 . S
C279 C182 1.567 . S
C277 C49 1.363 . S
C297 C170 1.567 . S
C295 C68 1.363 . S
C315 C239 1.551 . S
C313 C87 1.480 . S
C333 C203 1.551 . S
C331 C106 1.480 . S
C349 C125 1.363 . S
C351 C226 1.567 . S
C369 C214 1.567 . S
C367 C144 1.363 . S
C385 C2 1.553 . S
C387 C236 1.603 . S
C405 C206 1.603 . S
C403 C21 1.553 . S
C421 C40 1.570 . S
C423 C225 1.617 . S
C439 C59 1.570 . S
C441 C211 1.617 . S
C459 C192 1.618 . S
C457 C78 1.553 . S
C475 C97 1.553 . S
C477 C162 1.618 . S
C495 C181 1.617 . S
C493 C116 1.570 . S
C513 C167 1.617 . S
C511 C135 1.570 . S
C531 C217 1.562 . S
C529 C6 1.563 . S
C549 C233 1.562 . S
C547 C25 1.563 . S
C565 C44 1.529 . S
C567 C204 1.544 . S
C585 C228 1.544 . S
C583 C63 1.529 . S
C603 C173 1.562 . S
C601 C82 1.563 . S
C619 C101 1.563 . S
C621 C189 1.562 . S
C637 C120 1.529 . S
C639 C160 1.544 . S
C655 C139 1.529 . S
C657 C184 1.544 . S
