# Generated by pormake.
# Topology rtl, (3,6)-cn, num edge types: 1
# Building blocks:
#     Node 0, Type 0, BuildingBlock: KAKCAD_clean_linker_0, # of connection points: 3
#     Node 1, Type 0, BuildingBlock: KAKCAD_clean_linker_0, # of connection points: 3
#     Node 2, Type 0, BuildingBlock: KAKCAD_clean_linker_0, # of connection points: 3
#     Node 3, Type 0, BuildingBlock: KAKCAD_clean_linker_0, # of connection points: 3
#     Node 4, Type 1, BuildingBlock: LEVNOQ01_clean_sbu_1, # of connection points: 6
#     Node 5, Type 1, BuildingBlock: LEVNOQ01_clean_sbu_1, # of connection points: 6
#     Edge 6, Type (0, 1), BuildingBlock: FUNLAD_clean_linker_1, # of connection points: 2
#     Edge 7, Type (0, 1), BuildingBlock: FUNLAD_clean_linker_1, # of connection points: 2
#     Edge 8, Type (0, 1), BuildingBlock: FUNLAD_clean_linker_1, # of connection points: 2
#     Edge 9, Type (0, 1), BuildingBlock: FUNLAD_clean_linker_1, # of connection points: 2
#     Edge 10, Type (0, 1), BuildingBlock: FUNLAD_clean_linker_1, # of connection points: 2
#     Edge 11, Type (0, 1), BuildingBlock: FUNLAD_clean_linker_1, # of connection points: 2
#     Edge 12, Type (0, 1), BuildingBlock: FUNLAD_clean_linker_1, # of connection points: 2
#     Edge 13, Type (0, 1), BuildingBlock: FUNLAD_clean_linker_1, # of connection points: 2
#     Edge 14, Type (0, 1), BuildingBlock: FUNLAD_clean_linker_1, # of connection points: 2
#     Edge 15, Type (0, 1), BuildingBlock: FUNLAD_clean_linker_1, # of connection points: 2
#     Edge 16, Type (0, 1), BuildingBlock: FUNLAD_clean_linker_1, # of connection points: 2
#     Edge 17, Type (0, 1), BuildingBlock: FUNLAD_clean_linker_1, # of connection points: 2
# Relax obj value: 0.026
# Max RMSD: 0.060
# Mean RMSD: 0.046
data_MOF--net-rtl--node1-LEVNOQ01_clean_sbu_1--node2-KAKCAD_clean_linker_0--edge1-FUNLAD_clean_linker_1
_symmetry_space_group_name_H-M    P1
_symmetry_Int_Tables_number       1
_symmetry_cell_setting            triclinic
loop_
_symmetry_equiv_pos_as_xyz
'x, y, z'
_cell_length_a     39.142044
_cell_length_b     44.317822
_cell_length_c     30.656537
_cell_angle_alpha  89.683221
_cell_angle_beta   97.579212
_cell_angle_gamma 90.708198
loop_
_atom_site_label
_atom_site_type_symbol
_atom_site_fract_x
_atom_site_fract_y
_atom_site_fract_z
_atom_type_partial_charge
C0 C 0.20461 0.88702 0.93541 0.0
C1 C 0.20188 0.91828 0.92762 0.0
C2 C 0.21847 0.87606 0.97677 0.0
C3 C 0.23006 0.89602 0.01126 0.0
C4 C 0.22802 0.92722 1.00316 0.0
C5 C 0.21427 0.93819 0.96176 0.0
C6 C 0.24332 0.8842 0.05576 0.0
C7 C 0.26467 0.85878 0.06034 0.0
C8 C 0.27509 0.84588 0.10192 0.0
C9 C 0.26436 0.85911 0.13926 0.0
C10 C 0.2432 0.88462 0.13547 0.0
C11 C 0.23307 0.89721 0.09366 0.0
C12 C 0.22951 0.89652 0.17483 0.0
C13 C 0.21589 0.87651 0.20394 0.0
C14 C 0.22908 0.92768 0.18309 0.0
C15 C 0.21535 0.93857 0.21986 0.0
C16 C 0.20158 0.9184 0.24883 0.0
C17 C 0.29532 0.81753 0.10614 0.0
C18 C 0.28766 0.79424 0.07536 0.0
C19 C 0.32157 0.81305 0.14156 0.0
C20 C 0.3395 0.78581 0.14626 0.0
C21 C 0.33148 0.76246 0.11555 0.0
C22 C 0.30564 0.76717 0.07992 0.0
C23 C 0.20194 0.88735 0.2403 0.0
H24 H 0.19627 0.87087 0.90978 0.0
H25 H 0.21946 0.85188 0.98195 0.0
H26 H 0.23712 0.9432 0.02883 0.0
H27 H 0.21279 0.96237 0.95661 0.0
H28 H 0.27317 0.84899 0.03136 0.0
H29 H 0.21569 0.91618 0.09044 0.0
H30 H 0.27167 0.84903 0.17137 0.0
H31 H 0.21529 0.85241 0.19806 0.0
H32 H 0.23936 0.94361 0.16111 0.0
H33 H 0.21479 0.9627 0.22474 0.0
H34 H 0.26727 0.79665 0.04808 0.0
H35 H 0.3285 0.83071 0.16548 0.0
H36 H 0.19121 0.87134 0.2618 0.0
H37 H 0.299 0.74966 0.05563 0.0
H38 H 0.35986 0.78346 0.1735 0.0
C39 C 0.69712 0.61891 0.73503 0.0
C40 C 0.69252 0.58735 0.73361 0.0
C41 C 0.70816 0.63447 0.69953 0.0
C42 C 0.71496 0.61889 0.66187 0.0
C43 C 0.71098 0.5873 0.66083 0.0
C44 C 0.70011 0.57172 0.69644 0.0
C45 C 0.72632 0.63545 0.62387 0.0
C46 C 0.75111 0.65877 0.63073 0.0
C47 C 0.76258 0.67391 0.59494 0.0
C48 C 0.74897 0.66556 0.55193 0.0
C49 C 0.72349 0.64283 0.54418 0.0
C50 C 0.71239 0.62793 0.58058 0.0
C51 C 0.70857 0.6348 0.4982 0.0
C52 C 0.70456 0.65692 0.46473 0.0
C53 C 0.69859 0.60487 0.48713 0.0
C54 C 0.68492 0.59735 0.44404 0.0
C55 C 0.68139 0.61949 0.41081 0.0
C56 C 0.78855 0.69874 0.60208 0.0
C57 C 0.7851 0.72192 0.63228 0.0
C58 C 0.81613 0.70015 0.57711 0.0
C59 C 0.83896 0.72472 0.58097 0.0
C60 C 0.83465 0.74866 0.60952 0.0
C61 C 0.80787 0.74669 0.63596 0.0
C62 C 0.69165 0.64922 0.42145 0.0
H63 H 0.69257 0.63171 0.76362 0.0
H64 H 0.71096 0.6588 0.70136 0.0
H65 H 0.71657 0.57458 0.6326 0.0
H66 H 0.69713 0.5474 0.69466 0.0
H67 H 0.76221 0.66463 0.66392 0.0
H68 H 0.69221 0.61088 0.57544 0.0
H69 H 0.75825 0.67702 0.52442 0.0
H70 H 0.71117 0.68032 0.47184 0.0
H71 H 0.70197 0.587 0.51147 0.0
H72 H 0.67807 0.57403 0.43653 0.0
H73 H 0.76409 0.72139 0.65202 0.0
H74 H 0.8198 0.68238 0.5541 0.0
H75 H 0.68924 0.66664 0.39632 0.0
H76 H 0.80408 0.76425 0.65912 0.0
H77 H 0.85947 0.72544 0.56043 0.0
C78 C 0.79136 0.12248 0.15754 0.0
C79 C 0.82696 0.1166 0.16291 0.0
C80 C 0.77419 0.13095 0.11639 0.0
C81 C 0.7921 0.13361 0.07964 0.0
C82 C 0.82767 0.12791 0.08518 0.0
C83 C 0.84479 0.11939 0.12622 0.0
C84 C 0.77374 0.14188 0.03554 0.0
C85 C 0.74829 0.1642 0.0313 0.0
C86 C 0.73117 0.17239 0.98973 0.0
C87 C 0.73981 0.15792 0.95203 0.0
C88 C 0.76519 0.13554 0.95554 0.0
C89 C 0.78185 0.12761 0.99742 0.0
C90 C 0.77489 0.12082 0.91549 0.0
C91 C 0.74964 0.11176 0.88097 0.0
C92 C 0.80974 0.11612 0.91129 0.0
C93 C 0.81918 0.10282 0.8735 0.0
C94 C 0.7939 0.09354 0.83896 0.0
C95 C 0.70479 0.1965 0.98586 0.0
C96 C 0.68048 0.19763 0.01564 0.0
C97 C 0.7042 0.21897 0.95318 0.0
C98 C 0.68052 0.24255 0.9512 0.0
C99 C 0.65688 0.24415 0.98198 0.0
C100 C 0.6568 0.22108 0.0136 0.0
C101 C 0.75907 0.09833 0.84315 0.0
H102 H 0.77635 0.11978 0.18452 0.0
H103 H 0.74668 0.13467 0.11315 0.0
H104 H 0.8424 0.13015 0.05779 0.0
H105 H 0.87216 0.11491 0.12927 0.0
H106 H 0.74252 0.1759 0.06035 0.0
H107 H 0.80081 0.10985 1.00037 0.0
H108 H 0.72692 0.16425 0.91988 0.0
H109 H 0.72254 0.11489 0.8833 0.0
H110 H 0.82987 0.12343 0.93685 0.0
H111 H 0.84637 0.10072 0.87129 0.0
H112 H 0.67985 0.18041 0.04074 0.0
H113 H 0.72266 0.21879 0.92979 0.0
H114 H 0.73904 0.09173 0.81701 0.0
H115 H 0.63882 0.22152 0.0376 0.0
H116 H 0.68119 0.25942 0.92574 0.0
C117 C 0.24952 0.42999 0.33307 0.0
C118 C 0.28384 0.43675 0.32758 0.0
C119 C 0.24142 0.41751 0.37255 0.0
C120 C 0.26757 0.41129 0.40738 0.0
C121 C 0.30189 0.41826 0.40198 0.0
C122 C 0.30997 0.43071 0.36262 0.0
C123 C 0.2595 0.39639 0.44852 0.0
C124 C 0.23568 0.37221 0.44658 0.0
C125 C 0.22983 0.35657 0.48496 0.0
C126 C 0.24736 0.36592 0.52571 0.0
C127 C 0.27138 0.38978 0.52831 0.0
C128 C 0.27721 0.40499 0.48963 0.0
C129 C 0.29193 0.39733 0.57115 0.0
C130 C 0.27591 0.4004 0.60928 0.0
C131 C 0.32801 0.39973 0.57462 0.0
C132 C 0.34771 0.40456 0.6155 0.0
C133 C 0.33176 0.40769 0.6536 0.0
C134 C 0.20733 0.32918 0.48253 0.0
C135 C 0.17523 0.32835 0.45577 0.0
C136 C 0.21799 0.30355 0.5076 0.0
C137 C 0.19676 0.27805 0.507 0.0
C138 C 0.16442 0.27728 0.48109 0.0
C139 C 0.15387 0.30265 0.45511 0.0
C140 C 0.29559 0.40565 0.6501 0.0
H141 H 0.22889 0.4341 0.30657 0.0
H142 H 0.21468 0.41259 0.37573 0.0
H143 H 0.32277 0.4131 0.42767 0.0
H144 H 0.33688 0.43441 0.35948 0.0
H145 H 0.22304 0.36452 0.41495 0.0
H146 H 0.2956 0.42358 0.49164 0.0
H147 H 0.2431 0.35394 0.55549 0.0
H148 H 0.24814 0.39856 0.60754 0.0
H149 H 0.34108 0.39701 0.54589 0.0
H150 H 0.37553 0.40588 0.61736 0.0
H151 H 0.16624 0.34783 0.43627 0.0
H152 H 0.24286 0.30316 0.52783 0.0
H153 H 0.28247 0.40728 0.67893 0.0
H154 H 0.12888 0.30319 0.43531 0.0
H155 H 0.20561 0.25887 0.52731 0.0
O156 O 0.99115 0.06049 0.64737 0.0
Mg157 Mg 0.03793 0.05857 0.62104 0.0
O158 O 0.96274 0.02936 0.59845 0.0
Mg159 Mg 0.00305 0.01593 0.55111 0.0
O160 O 0.03015 0.06324 0.55435 0.0
O161 O 0.05753 0.09765 0.59988 0.0
O162 O 0.04586 0.00457 0.50619 0.0
O163 O 0.966 0.03787 0.49278 0.0
Mg164 Mg 0.9815 0.97041 0.48114 0.0
O165 O 0.97479 0.96866 0.54667 0.0
O166 O 0.03113 0.9648 0.465 0.0
O167 O 0.95042 0.00206 0.44398 0.0
O168 O 0.95821 0.93202 0.4978 0.0
C169 C 0.06493 -0.00104 0.63832 0.0
C170 C 0.96387 0.04634 0.63229 0.0
C171 C 0.04589 0.08921 0.5604 0.0
C172 C 0.05296 0.98499 0.47848 0.0
C173 C 0.94921 0.02921 0.45631 0.0
C174 C 0.9602 0.94246 0.53731 0.0
O175 O 0.07355 0.02618 0.64582 0.0
O176 O 0.03958 0.99235 0.60911 0.0
O177 O 0.56464 0.50119 0.12412 0.0
Mg178 Mg 0.52427 0.47311 0.09693 0.0
O179 O 0.52712 0.53458 0.09589 0.0
Mg180 Mg 0.49138 0.51278 0.03517 0.0
O181 O 0.51935 0.46539 0.03029 0.0
O182 O 0.5411 0.43248 0.08274 0.0
O183 O 0.45425 0.4936 0.97423 0.0
O184 O 0.53158 0.53056 0.98984 0.0
Mg185 Mg 0.46022 0.56386 0.97154 0.0
O186 O 0.46399 0.55869 0.03796 0.0
O187 O 0.4264 0.53174 0.93904 0.0
O188 O 0.50916 0.56987 0.95152 0.0
O189 O 0.43982 0.59861 1.00218 0.0
C190 C 0.45283 0.47979 0.11492 0.0
C191 C 0.55415 0.52799 0.12201 0.0
C192 C 0.53397 0.43969 0.04176 0.0
C193 C 0.43138 0.50373 0.94421 0.0
C194 C 0.53391 0.55209 0.96237 0.0
C195 C 0.44862 0.58445 0.03879 0.0
O196 O 0.48119 0.46831 0.13051 0.0
O197 O 0.45051 0.49562 0.0798 0.0
H198 H 0.14952 0.23537 0.51281 0.0
C199 C 0.14207 0.25033 0.48496 0.0
H200 H 0.10552 0.2559 0.4277 0.0
H201 H 0.0802 0.11254 0.44898 0.0
H202 H 0.10075 0.11476 0.37751 0.0
H203 H 0.11754 0.16343 0.34649 0.0
H204 H 0.11403 0.21024 0.38689 0.0
C205 C 0.1135 0.24303 0.45741 0.0
C206 C 0.093 0.21598 0.46773 0.0
C207 C 0.094 0.18916 0.44303 0.0
C208 C 0.08402 0.16111 0.46077 0.0
C209 C 0.08711 0.13439 0.43673 0.0
C210 C 0.09889 0.13539 0.39576 0.0
C211 C 0.10836 0.16281 0.37828 0.0
C212 C 0.10628 0.18946 0.4017 0.0
H213 H 0.03017 0.10969 0.49445 0.0
C214 C 0.04922 0.11025 0.52361 0.0
H215 H 0.09215 0.13211 0.55877 0.0
H216 H 0.07861 0.26445 0.51651 0.0
H217 H 0.05365 0.26289 0.58513 0.0
H218 H 0.03641 0.21436 0.61612 0.0
H219 H 0.0439 0.16717 0.57864 0.0
C220 C 0.07357 0.13208 0.52907 0.0
C221 C 0.07266 0.16034 0.50275 0.0
C222 C 0.06704 0.18772 0.52424 0.0
C223 C 0.0771 0.2156 0.50662 0.0
C224 C 0.0719 0.24261 0.52914 0.0
C225 C 0.05744 0.24203 0.56831 0.0
C226 C 0.04773 0.21471 0.58574 0.0
C227 C 0.05235 0.1878 0.56407 0.0
H228 H 0.34728 0.71976 0.08825 0.0
C229 C 0.34993 0.73327 0.11809 0.0
H230 H 0.37249 0.73436 0.18509 0.0
H231 H 0.37459 0.59667 0.09229 0.0
H232 H 0.31324 0.59507 0.09815 0.0
H233 H 0.28528 0.63774 0.13025 0.0
H234 H 0.31857 0.68251 0.15613 0.0
C235 C 0.36888 0.72205 0.15433 0.0
C236 C 0.38682 0.6928 0.15142 0.0
C237 C 0.36748 0.66628 0.13885 0.0
C238 C 0.3837 0.6415 0.12117 0.0
C239 C 0.36346 0.61606 0.10606 0.0
C240 C 0.3283 0.61485 0.1094 0.0
C241 C 0.31256 0.63887 0.1275 0.0
C242 C 0.33181 0.66441 0.14203 0.0
H243 H 0.44187 0.58459 0.10998 0.0
C244 C 0.44113 0.59818 0.08028 0.0
H245 H 0.43271 0.64094 0.05053 0.0
H246 H 0.43265 0.73657 0.1849 0.0
H247 H 0.49499 0.7356 0.18635 0.0
H248 H 0.52312 0.692 0.1568 0.0
H249 H 0.48886 0.64907 0.12529 0.0
C250 C 0.43192 0.62733 0.08001 0.0
C251 C 0.41922 0.6433 0.1169 0.0
C252 C 0.43939 0.66744 0.13678 0.0
C253 C 0.42318 0.69238 0.1541 0.0
C254 C 0.44379 0.71701 0.17151 0.0
C255 C 0.47952 0.71669 0.17256 0.0
C256 C 0.49537 0.69215 0.15587 0.0
C257 C 0.47559 0.66779 0.13783 0.0
H258 H 0.87993 0.77339 0.59108 0.0
C259 C 0.85761 0.77561 0.60852 0.0
H260 H 0.82805 0.80739 0.63891 0.0
H261 H 0.95778 0.89968 0.65196 0.0
H262 H 0.95797 0.88729 0.72927 0.0
H263 H 0.91796 0.84875 0.75248 0.0
H264 H 0.87754 0.8222 0.69841 0.0
C265 C 0.85023 0.80337 0.62209 0.0
C266 C 0.87037 0.83002 0.60936 0.0
C267 C 0.89316 0.84583 0.64132 0.0
C268 C 0.91596 0.86837 0.62794 0.0
C269 C 0.93952 0.88282 0.66037 0.0
C270 C 0.93996 0.87583 0.70483 0.0
C271 C 0.91744 0.8541 0.71791 0.0
C272 C 0.8944 0.83905 0.68662 0.0
H273 H 0.9299 0.93617 0.5931 0.0
C274 C 0.94408 0.92464 0.57012 0.0
H275 H 0.95712 0.88368 0.54288 0.0
H276 H 0.82446 0.80873 0.54082 0.0
H277 H 0.82201 0.82283 0.46402 0.0
H278 H 0.86174 0.86147 0.44054 0.0
H279 H 0.90394 0.88628 0.49373 0.0
C280 C 0.94258 0.89439 0.56634 0.0
C281 C 0.9154 0.87525 0.58264 0.0
C282 C 0.89054 0.86115 0.55108 0.0
C283 C 0.86788 0.83869 0.56448 0.0
C284 C 0.84301 0.82531 0.53231 0.0
C285 C 0.8411 0.83337 0.48811 0.0
C286 C 0.86344 0.85512 0.47491 0.0
C287 C 0.88775 0.86904 0.50585 0.0
H288 H 0.61383 0.26758 0.0067 0.0
C289 C 0.63294 0.26984 0.98406 0.0
H290 H 0.65429 0.30078 0.94138 0.0
H291 H 0.52224 0.38573 0.93487 0.0
H292 H 0.51474 0.36682 0.85995 0.0
H293 H 0.5532 0.32782 0.83729 0.0
H294 H 0.59935 0.30733 0.88949 0.0
C295 C 0.63574 0.29678 0.96412 0.0
C296 C 0.61516 0.32291 0.9759 0.0
C297 C 0.58886 0.33515 0.94481 0.0
C298 C 0.56688 0.35792 0.95777 0.0
C299 C 0.53997 0.36883 0.92655 0.0
C300 C 0.53533 0.35809 0.88351 0.0
C301 C 0.55698 0.3361 0.87075 0.0
C302 C 0.58336 0.32455 0.90097 0.0
H303 H 0.55635 0.42803 0.9813 0.0
C304 C 0.5449 0.41882 0.00898 0.0
H305 H 0.53474 0.38073 0.04639 0.0
H306 H 0.66763 0.30888 0.04109 0.0
H307 H 0.67639 0.32883 0.11511 0.0
H308 H 0.63777 0.36752 0.13812 0.0
H309 H 0.59042 0.38657 0.08717 0.0
C310 C 0.54647 0.3891 0.01835 0.0
C311 C 0.57162 0.36861 1.00166 0.0
C312 C 0.59937 0.35769 0.03195 0.0
C313 C 0.62134 0.33509 0.01895 0.0
C314 C 0.64937 0.32525 0.04959 0.0
C315 C 0.65494 0.33674 0.09214 0.0
C316 C 0.63323 0.35852 0.10507 0.0
C317 C 0.60593 0.36911 0.07545 0.0
H318 H 0.16645 0.91304 0.29895 0.0
C319 C 0.1848 0.92859 0.28679 0.0
H320 H 0.20961 0.97125 0.29713 0.0
H321 H 0.08079 0.01845 0.38408 0.0
H322 H 0.08242 0.05323 0.32302 0.0
H323 H 0.12505 0.04737 0.27123 0.0
H324 H 0.16636 0.00667 0.28025 0.0
C325 C 0.19131 0.95509 0.30769 0.0
C326 C 0.1718 0.96324 0.34453 0.0
C327 C 0.14864 0.98772 0.33955 0.0
C328 C 0.12411 0.99115 0.36952 0.0
C329 C 0.10015 0.01492 0.36259 0.0
C330 C 0.10077 0.03504 0.32761 0.0
C331 C 0.12478 0.03174 0.29845 0.0
C332 C 0.14835 0.00829 0.30401 0.0
H333 H 0.10408 0.00497 0.47017 0.0
C334 C 0.08583 0.98695 0.45964 0.0
H335 H 0.07426 0.94959 0.41752 0.0
H336 H 0.21915 0.91968 0.37052 0.0
H337 H 0.21969 0.88655 0.43409 0.0
H338 H 0.17601 0.89144 0.48473 0.0
H339 H 0.13178 0.92976 0.47239 0.0
C340 C 0.09219 0.96793 0.4277 0.0
C341 C 0.12312 0.97019 0.40447 0.0
C342 C 0.14873 0.94783 0.41215 0.0
C343 C 0.17343 0.94461 0.3825 0.0
C344 C 0.19913 0.9224 0.39134 0.0
C345 C 0.19988 0.90343 0.42785 0.0
C346 C 0.1753 0.90621 0.45639 0.0
C347 C 0.14999 0.92815 0.44883 0.0
H348 H 0.68665 0.5464 0.77417 0.0
C349 C 0.68001 0.57011 0.77027 0.0
H350 H 0.65122 0.60546 0.79294 0.0
H351 H 0.56501 0.49586 0.87316 0.0
H352 H 0.54987 0.47871 0.79794 0.0
H353 H 0.57763 0.50127 0.7376 0.0
H354 H 0.621 0.54065 0.75208 0.0
C355 C 0.65888 0.58204 0.79663 0.0
C356 C 0.64574 0.56466 0.83279 0.0
C357 C 0.62041 0.54153 0.82345 0.0
C358 C 0.6037 0.52902 0.85805 0.0
C359 C 0.57821 0.50628 0.848 0.0
C360 C 0.56928 0.49624 0.80499 0.0
C361 C 0.58499 0.50889 0.77105 0.0
C362 C 0.61008 0.5314 0.77991 0.0
H363 H 0.5676 0.57854 0.92494 0.0
C364 C 0.56493 0.55672 0.94069 0.0
H365 H 0.58324 0.51199 0.94603 0.0
H366 H 0.69673 0.60506 0.86288 0.0
H367 H 0.71278 0.62082 0.93869 0.0
H368 H 0.68302 0.5995 0.99821 0.0
H369 H 0.63695 0.56219 0.98219 0.0
C370 C 0.58675 0.53468 0.93367 0.0
C371 C 0.61143 0.54039 0.90137 0.0
C372 C 0.63872 0.56153 0.91124 0.0
C373 C 0.65586 0.57373 0.87693 0.0
C374 C 0.68264 0.59526 0.88768 0.0
C375 C 0.69218 0.6044 0.93104 0.0
C376 C 0.67542 0.59241 0.96456 0.0
C377 C 0.64896 0.5712 0.95495 0.0
H378 H 0.87045 0.09458 0.20388 0.0
C379 C 0.8461 0.10589 0.20527 0.0
H380 H 0.8114 0.12058 0.24819 0.0
H381 H 0.85686 0.01767 0.38775 0.0
H382 H 0.7983 0.00203 0.36072 0.0
H383 H 0.76483 0.02879 0.29879 0.0
H384 H 0.78958 0.07146 0.2637 0.0
C385 C 0.83533 0.10928 0.24489 0.0
C386 C 0.85454 0.09523 0.28502 0.0
C387 C 0.83954 0.07054 0.30545 0.0
C388 C 0.85905 0.05479 0.34065 0.0
C389 C 0.84343 0.03011 0.36035 0.0
C390 C 0.80978 0.02097 0.3453 0.0
C391 C 0.79092 0.03606 0.31048 0.0
C392 C 0.80547 0.06055 0.29065 0.0
H393 H 0.92494 0.07359 0.43933 0.0
C394 C 0.92866 0.05101 0.42729 0.0
H395 H 0.91869 0.02054 0.37432 0.0
H396 H 0.88858 0.14494 0.25866 0.0
H397 H 0.94745 0.16029 0.28483 0.0
H398 H 0.98276 0.13099 0.34239 0.0
H399 H 0.95935 0.08661 0.37466 0.0
C400 C 0.91538 0.0433 0.38599 0.0
C401 C 0.89364 0.06356 0.35521 0.0
C402 C 0.90817 0.08912 0.33608 0.0
C403 C 0.88831 0.10531 0.30153 0.0
C404 C 0.90295 0.13128 0.2839 0.0
C405 C 0.93663 0.14042 0.29878 0.0
C406 C 0.95648 0.12397 0.33128 0.0
C407 C 0.94261 0.09856 0.34972 0.0
H408 H 0.37956 0.40312 0.70045 0.0
C409 C 0.35362 0.41216 0.69652 0.0
H410 H 0.31814 0.43829 0.72589 0.0
H411 H 0.37736 0.42449 0.92401 0.0
H412 H 0.32295 0.39702 0.92109 0.0
H413 H 0.28833 0.38533 0.84985 0.0
H414 H 0.30766 0.40114 0.78118 0.0
C415 C 0.3437 0.4286 0.7293 0.0
C416 C 0.36641 0.43348 0.77181 0.0
C417 C 0.35503 0.42353 0.81163 0.0
C418 C 0.37502 0.4301 0.85275 0.0
C419 C 0.36288 0.42028 0.892 0.0
C420 C 0.33184 0.40439 0.89075 0.0
C421 C 0.31236 0.3978 0.85064 0.0
C422 C 0.32371 0.40712 0.81145 0.0
H423 H 0.38668 0.49229 0.89632 0.0
C424 C 0.41102 0.48361 0.91254 0.0
H425 H 0.44954 0.45107 0.9093 0.0
H426 H 0.39477 0.45893 0.70244 0.0
H427 H 0.44975 0.48482 0.70599 0.0
H428 H 0.48615 0.49278 0.77705 0.0
H429 H 0.46747 0.47501 0.84513 0.0
C430 C 0.42388 0.45873 0.89647 0.0
C431 C 0.40649 0.44634 0.85407 0.0
C432 C 0.4188 0.45496 0.81431 0.0
C433 C 0.39835 0.44933 0.77316 0.0
C434 C 0.40989 0.46097 0.73441 0.0
C435 C 0.44132 0.47627 0.736 0.0
C436 C 0.46179 0.48081 0.77601 0.0
C437 C 0.45071 0.47051 0.81483 0.0
H438 H 0.68089 0.62253 0.3386 0.0
C439 C 0.66866 0.61168 0.36452 0.0
H440 H 0.62981 0.5816 0.37966 0.0
H441 H 0.59723 0.60482 0.1612 0.0
H442 H 0.59069 0.65771 0.17778 0.0
H443 H 0.60125 0.67596 0.2543 0.0
H444 H 0.61938 0.64162 0.31448 0.0
C445 C 0.64245 0.59208 0.35383 0.0
C446 C 0.63249 0.58125 0.30785 0.0
C447 C 0.61996 0.6014 0.27338 0.0
C448 C 0.61147 0.59051 0.22959 0.0
C449 C 0.60193 0.61153 0.19533 0.0
C450 C 0.59842 0.64202 0.20435 0.0
C451 C 0.60453 0.65232 0.2474 0.0
C452 C 0.6152 0.63237 0.28163 0.0
H453 H 0.55171 0.56555 0.16817 0.0
C454 C 0.56901 0.54961 0.1559 0.0
H455 H 0.61822 0.53058 0.16301 0.0
H456 H 0.65752 0.53675 0.36552 0.0
H457 H 0.65959 0.48339 0.35017 0.0
H458 H 0.6389 0.46365 0.27624 0.0
H459 H 0.61678 0.49713 0.21716 0.0
C460 C 0.60143 0.54658 0.17615 0.0
C461 C 0.61283 0.55912 0.22094 0.0
C462 C 0.62456 0.53889 0.25573 0.0
C463 C 0.63509 0.55006 0.29888 0.0
C464 C 0.64817 0.52949 0.33242 0.0
C465 C 0.64964 0.49873 0.32408 0.0
C466 C 0.63811 0.48764 0.28245 0.0
C467 C 0.62564 0.5073 0.24864 0.0
H468 H 0.78347 0.08088 0.76842 0.0
C469 C 0.80295 0.0806 0.7972 0.0
H470 H 0.85338 0.0666 0.82152 0.0
H471 H 0.89321 0.9821 0.67862 0.0
H472 H 0.88246 0.94548 0.73472 0.0
H473 H 0.85319 0.96042 0.79769 0.0
H474 H 0.83474 0.0121 0.80519 0.0
C475 C 0.8342 0.0695 0.79294 0.0
C476 C 0.84396 0.05929 0.75001 0.0
C477 C 0.85351 0.02881 0.74529 0.0
C478 C 0.87 0.02007 0.70871 0.0
C479 C 0.88052 0.98981 0.70574 0.0
C480 C 0.87442 0.96859 0.73762 0.0
C481 C 0.85796 0.97701 0.77309 0.0
C482 C 0.84761 0.00674 0.77709 0.0
H483 H 0.93719 0.06698 0.68242 0.0
C484 C 0.93381 0.05069 0.65569 0.0
H485 H 0.89953 0.01833 0.62275 0.0
H486 H 0.82786 0.11979 0.7469 0.0
H487 H 0.83429 0.15458 0.68749 0.0
H488 H 0.85855 0.13791 0.62146 0.0
H489 H 0.87727 0.08613 0.61521 0.0
C490 C 0.90359 0.03578 0.64771 0.0
C491 C 0.87681 0.04181 0.67693 0.0
C492 C 0.86349 0.07131 0.6788 0.0
C493 C 0.84797 0.08043 0.71596 0.0
C494 C 0.83831 0.111 0.71876 0.0
C495 C 0.84211 0.13139 0.6849 0.0
C496 C 0.85587 0.12204 0.64779 0.0
C497 C 0.86663 0.09239 0.64469 0.0
H498 H 0.27298 0.44324 0.25523 0.0
C499 C 0.29185 0.4476 0.28391 0.0
H500 H 0.34019 0.46784 0.30607 0.0
H501 H 0.37302 0.43086 0.10943 0.0
H502 H 0.36066 0.37885 0.12844 0.0
H503 H 0.33637 0.36684 0.19686 0.0
H504 H 0.3235 0.40643 0.24584 0.0
C505 C 0.32195 0.46099 0.27803 0.0
C506 C 0.33189 0.46767 0.23367 0.0
C507 C 0.33985 0.44387 0.20597 0.0
C508 C 0.35557 0.45057 0.16774 0.0
C509 C 0.36231 0.42669 0.13973 0.0
C510 C 0.35517 0.39685 0.15012 0.0
C511 C 0.34138 0.39011 0.18855 0.0
C512 C 0.33388 0.4132 0.21633 0.0
H513 H 0.42811 0.46038 0.16856 0.0
C514 C 0.42332 0.47449 0.13927 0.0
H515 H 0.38655 0.50161 0.10093 0.0
H516 H 0.31436 0.51853 0.27498 0.0
H517 H 0.32663 0.57037 0.25509 0.0
H518 H 0.35687 0.58162 0.19114 0.0
H519 H 0.37439 0.54121 0.14593 0.0
C520 C 0.3919 0.48642 0.12885 0.0
C521 C 0.36536 0.48066 0.15883 0.0
C522 C 0.35461 0.50456 0.18407 0.0
C523 C 0.33774 0.49804 0.22148 0.0
C524 C 0.32772 0.52229 0.24665 0.0
C525 C 0.3345 0.55209 0.2355 0.0
C526 C 0.35145 0.55843 0.19938 0.0
C527 C 0.36149 0.53504 0.17385 0.0
H528 H 0.1919 0.95463 0.878 0.0
C529 C 0.18629 0.93107 0.88469 0.0
H530 H 0.15668 0.89272 0.86081 0.0
H531 H 0.07831 0.00987 0.75479 0.0
H532 H 0.06446 0.0247 0.8263 0.0
H533 H 0.08677 0.99619 0.89313 0.0
H534 H 0.12331 0.95288 0.88885 0.0
C535 C 0.16361 0.91608 0.85541 0.0
C536 C 0.14682 0.9312 0.81469 0.0
C537 C 0.12452 0.9559 0.81767 0.0
C538 C 0.11108 0.97194 0.77904 0.0
C539 C 0.08942 -0.00309 0.78306 0.0
C540 C 0.08108 0.0056 0.8239 0.0
C541 C 0.09367 0.98958 0.86152 0.0
C542 C 0.11494 0.9649 0.85861 0.0
H543 H 0.06997 0.95293 0.66725 0.0
C544 C 0.08169 0.97531 0.66771 0.0
H545 H 0.11949 0.00495 0.69957 0.0
H546 H 0.18575 0.88302 0.79696 0.0
H547 H 0.19755 0.86691 0.72492 0.0
H548 H 0.17375 0.89455 0.65788 0.0
H549 H 0.13794 0.93849 0.66242 0.0
C550 C 0.10844 0.9823 0.69844 0.0
C551 C 0.11913 0.9628 0.73735 0.0
C552 C 0.13962 0.93701 0.73402 0.0
C553 C 0.15344 0.92113 0.77278 0.0
C554 C 0.17446 0.89582 0.76863 0.0
C555 C 0.18148 0.88636 0.72749 0.0
C556 C 0.16808 0.90193 0.68973 0.0
C557 C 0.14751 0.92706 0.69277 0.0
loop_
_geom_bond_atom_site_label_1
_geom_bond_atom_site_label_2
_geom_bond_distance
_geom_bond_site_symmetry_2
_ccdc_geom_bond_type
C0 C1 1.386 . S
C0 C2 1.397 . S
C0 H24 0.931 . S
C1 C0 1.386 . S
C1 C5 1.397 . S
C2 C0 1.397 . S
C2 C3 1.384 1_556 S
C2 H25 0.930 . S
C3 C2 1.384 1_554 S
C3 C4 1.377 1_554 S
C3 C6 1.481 . S
C4 C3 1.377 1_556 S
C4 C5 1.389 . S
C4 H26 0.929 1_556 S
C5 C1 1.397 . S
C5 C4 1.389 . S
C5 H27 0.931 . S
C6 C3 1.481 . S
C6 C7 1.387 . S
C6 C11 1.390 . S
C7 C6 1.387 . S
C7 C8 1.401 . S
C7 H28 0.930 . S
C8 C7 1.401 . S
C8 C9 1.376 . S
C8 C17 1.511 . S
C9 C8 1.376 . S
C9 C10 1.392 . S
C9 H30 0.931 . S
C10 C9 1.392 . S
C10 C11 1.361 . S
C10 C12 1.500 . S
C11 C6 1.390 . S
C11 C10 1.361 . S
C11 H29 0.931 . S
C12 C10 1.500 . S
C12 C13 1.371 . S
C12 C14 1.365 . S
C13 C12 1.371 . S
C13 C23 1.386 . S
C13 H31 0.931 . S
C14 C12 1.365 . S
C14 C15 1.409 . S
C14 H32 0.929 . S
C15 C14 1.409 . S
C15 C16 1.380 . S
C15 H33 0.930 . S
C16 C15 1.380 . S
C16 C23 1.357 . S
C17 C8 1.511 . S
C17 C18 1.341 . S
C17 C19 1.371 . S
C18 C17 1.341 . S
C18 C22 1.394 . S
C18 H34 0.930 . S
C19 C17 1.371 . S
C19 C20 1.392 . S
C19 H35 0.931 . S
C20 C19 1.392 . S
C20 C21 1.331 . S
C20 H38 0.932 . S
C21 C20 1.331 . S
C21 C22 1.336 . S
C22 C18 1.394 . S
C22 C21 1.336 . S
C22 H37 0.929 . S
C23 C13 1.386 . S
C23 C16 1.357 . S
C23 H36 0.928 . S
H24 C0 0.931 . S
H25 C2 0.930 . S
H26 C4 0.929 1_554 S
H27 C5 0.931 . S
H28 C7 0.930 . S
H29 C11 0.931 . S
H30 C9 0.931 . S
H31 C13 0.931 . S
H32 C14 0.929 . S
H33 C15 0.930 . S
H34 C18 0.930 . S
H35 C19 0.931 . S
H36 C23 0.928 . S
H37 C22 0.929 . S
H38 C20 0.932 . S
C39 C40 1.386 . S
C39 C41 1.397 . S
C39 H63 0.931 . S
C40 C39 1.386 . S
C40 C44 1.397 . S
C41 C39 1.397 . S
C41 C42 1.384 . S
C41 H64 0.930 . S
C42 C41 1.384 . S
C42 C43 1.377 . S
C42 C45 1.481 . S
C43 C42 1.377 . S
C43 C44 1.389 . S
C43 H65 0.929 . S
C44 C40 1.397 . S
C44 C43 1.389 . S
C44 H66 0.931 . S
C45 C42 1.481 . S
C45 C46 1.387 . S
C45 C50 1.390 . S
C46 C45 1.387 . S
C46 C47 1.401 . S
C46 H67 0.930 . S
C47 C46 1.401 . S
C47 C48 1.376 . S
C47 C56 1.511 . S
C48 C47 1.376 . S
C48 C49 1.392 . S
C48 H69 0.931 . S
C49 C48 1.392 . S
C49 C50 1.361 . S
C49 C51 1.500 . S
C50 C45 1.390 . S
C50 C49 1.361 . S
C50 H68 0.931 . S
C51 C49 1.500 . S
C51 C52 1.371 . S
C51 C53 1.365 . S
C52 C51 1.371 . S
C52 C62 1.386 . S
C52 H70 0.931 . S
C53 C51 1.365 . S
C53 C54 1.409 . S
C53 H71 0.929 . S
C54 C53 1.409 . S
C54 C55 1.380 . S
C54 H72 0.930 . S
C55 C54 1.380 . S
C55 C62 1.357 . S
C56 C47 1.511 . S
C56 C57 1.341 . S
C56 C58 1.371 . S
C57 C56 1.341 . S
C57 C61 1.394 . S
C57 H73 0.930 . S
C58 C56 1.371 . S
C58 C59 1.392 . S
C58 H74 0.931 . S
C59 C58 1.392 . S
C59 C60 1.331 . S
C59 H77 0.932 . S
C60 C59 1.331 . S
C60 C61 1.336 . S
C61 C57 1.394 . S
C61 C60 1.336 . S
C61 H76 0.929 . S
C62 C52 1.386 . S
C62 C55 1.357 . S
C62 H75 0.928 . S
H63 C39 0.931 . S
H64 C41 0.930 . S
H65 C43 0.929 . S
H66 C44 0.931 . S
H67 C46 0.930 . S
H68 C50 0.931 . S
H69 C48 0.931 . S
H70 C52 0.931 . S
H71 C53 0.929 . S
H72 C54 0.930 . S
H73 C57 0.930 . S
H74 C58 0.931 . S
H75 C62 0.928 . S
H76 C61 0.929 . S
H77 C59 0.932 . S
C78 C79 1.386 . S
C78 C80 1.397 . S
C78 H102 0.931 . S
C79 C78 1.386 . S
C79 C83 1.397 . S
C80 C78 1.397 . S
C80 C81 1.384 . S
C80 H103 0.930 . S
C81 C80 1.384 . S
C81 C82 1.377 . S
C81 C84 1.481 . S
C82 C81 1.377 . S
C82 C83 1.389 . S
C82 H104 0.929 . S
C83 C79 1.397 . S
C83 C82 1.389 . S
C83 H105 0.931 . S
C84 C81 1.481 . S
C84 C85 1.387 . S
C84 C89 1.390 . S
C85 C84 1.387 . S
C85 C86 1.401 1_554 S
C85 H106 0.930 . S
C86 C85 1.401 1_556 S
C86 C87 1.376 . S
C86 C95 1.511 . S
C87 C86 1.376 . S
C87 C88 1.392 . S
C87 H108 0.931 . S
C88 C87 1.392 . S
C88 C89 1.361 1_556 S
C88 C90 1.500 . S
C89 C84 1.390 . S
C89 C88 1.361 1_554 S
C89 H107 0.931 . S
C90 C88 1.500 . S
C90 C91 1.371 . S
C90 C92 1.365 . S
C91 C90 1.371 . S
C91 C101 1.386 . S
C91 H109 0.931 . S
C92 C90 1.365 . S
C92 C93 1.409 . S
C92 H110 0.929 . S
C93 C92 1.409 . S
C93 C94 1.380 . S
C93 H111 0.930 . S
C94 C93 1.380 . S
C94 C101 1.357 . S
C95 C86 1.511 . S
C95 C96 1.341 1_556 S
C95 C97 1.371 . S
C96 C95 1.341 1_554 S
C96 C100 1.394 . S
C96 H112 0.930 . S
C97 C95 1.371 . S
C97 C98 1.392 . S
C97 H113 0.931 . S
C98 C97 1.392 . S
C98 C99 1.331 . S
C98 H116 0.932 . S
C99 C98 1.331 . S
C99 C100 1.336 1_556 S
C100 C96 1.394 . S
C100 C99 1.336 1_554 S
C100 H115 0.929 . S
C101 C91 1.386 . S
C101 C94 1.357 . S
C101 H114 0.928 . S
H102 C78 0.931 . S
H103 C80 0.930 . S
H104 C82 0.929 . S
H105 C83 0.931 . S
H106 C85 0.930 . S
H107 C89 0.931 . S
H108 C87 0.931 . S
H109 C91 0.931 . S
H110 C92 0.929 . S
H111 C93 0.930 . S
H112 C96 0.930 . S
H113 C97 0.931 . S
H114 C101 0.928 . S
H115 C100 0.929 . S
H116 C98 0.932 . S
C117 C118 1.386 . S
C117 C119 1.397 . S
C117 H141 0.931 . S
C118 C117 1.386 . S
C118 C122 1.397 . S
C119 C117 1.397 . S
C119 C120 1.384 . S
C119 H142 0.930 . S
C120 C119 1.384 . S
C120 C121 1.377 . S
C120 C123 1.481 . S
C121 C120 1.377 . S
C121 C122 1.389 . S
C121 H143 0.929 . S
C122 C118 1.397 . S
C122 C121 1.389 . S
C122 H144 0.931 . S
C123 C120 1.481 . S
C123 C124 1.387 . S
C123 C128 1.390 . S
C124 C123 1.387 . S
C124 C125 1.401 . S
C124 H145 0.930 . S
C125 C124 1.401 . S
C125 C126 1.376 . S
C125 C134 1.511 . S
C126 C125 1.376 . S
C126 C127 1.392 . S
C126 H147 0.931 . S
C127 C126 1.392 . S
C127 C128 1.361 . S
C127 C129 1.500 . S
C128 C123 1.390 . S
C128 C127 1.361 . S
C128 H146 0.931 . S
C129 C127 1.500 . S
C129 C130 1.371 . S
C129 C131 1.365 . S
C130 C129 1.371 . S
C130 C140 1.386 . S
C130 H148 0.931 . S
C131 C129 1.365 . S
C131 C132 1.409 . S
C131 H149 0.929 . S
C132 C131 1.409 . S
C132 C133 1.380 . S
C132 H150 0.930 . S
C133 C132 1.380 . S
C133 C140 1.357 . S
C134 C125 1.511 . S
C134 C135 1.341 . S
C134 C136 1.371 . S
C135 C134 1.341 . S
C135 C139 1.394 . S
C135 H151 0.930 . S
C136 C134 1.371 . S
C136 C137 1.392 . S
C136 H152 0.931 . S
C137 C136 1.392 . S
C137 C138 1.331 . S
C137 H155 0.932 . S
C138 C137 1.331 . S
C138 C139 1.336 . S
C139 C135 1.394 . S
C139 C138 1.336 . S
C139 H154 0.929 . S
C140 C130 1.386 . S
C140 C133 1.357 . S
C140 H153 0.928 . S
H141 C117 0.931 . S
H142 C119 0.930 . S
H143 C121 0.929 . S
H144 C122 0.931 . S
H145 C124 0.930 . S
H146 C128 0.931 . S
H147 C126 0.931 . S
H148 C130 0.931 . S
H149 C131 0.929 . S
H150 C132 0.930 . S
H151 C135 0.930 . S
H152 C136 0.931 . S
H153 C140 0.928 . S
H154 C139 0.929 . S
H155 C137 0.932 . S
O156 Mg157 1.990 1_655 S
O156 C170 1.253 . S
Mg157 O156 1.990 1_455 S
Mg157 O160 2.180 . S
Mg157 O161 2.117 . S
Mg157 O175 2.030 . S
O158 Mg159 2.072 1_655 S
O158 C170 1.260 . S
Mg159 O158 2.072 1_455 S
Mg159 O160 2.099 . S
Mg159 O162 2.079 1_545 S
Mg159 O163 2.072 1_455 S
Mg159 O165 2.099 1_445 S
Mg159 O176 2.079 1_545 S
O160 Mg157 2.180 . S
O160 Mg159 2.099 . S
O160 C171 1.279 . S
O161 Mg157 2.117 . S
O161 C171 1.250 . S
O162 Mg159 2.079 1_565 S
O162 C172 1.264 . S
O163 Mg159 2.072 1_655 S
O163 C173 1.260 . S
Mg164 O165 2.180 . S
Mg164 O166 2.030 1_655 S
Mg164 O167 1.990 1_565 S
Mg164 O168 2.117 . S
O165 Mg159 2.099 1_665 S
O165 Mg164 2.180 . S
O165 C174 1.279 . S
O166 Mg164 2.030 1_455 S
O166 C172 1.248 . S
O167 Mg164 1.990 1_545 S
O167 C173 1.253 . S
O168 Mg164 2.117 . S
O168 C174 1.250 . S
C169 O175 1.248 1_565 S
C169 O176 1.264 . S
C170 O156 1.253 . S
C170 O158 1.260 . S
C171 O160 1.279 . S
C171 O161 1.250 . S
C172 O162 1.264 . S
C172 O166 1.248 . S
C173 O163 1.260 . S
C173 O167 1.253 . S
C174 O165 1.279 . S
C174 O168 1.250 . S
O175 Mg157 2.030 . S
O175 C169 1.248 1_545 S
O176 Mg159 2.079 1_565 S
O176 C169 1.264 . S
O177 Mg178 1.990 . S
O177 C191 1.253 . S
Mg178 O177 1.990 . S
Mg178 O181 2.180 . S
Mg178 O182 2.117 . S
Mg178 O196 2.030 . S
O179 Mg180 2.072 . S
O179 C191 1.260 . S
Mg180 O179 2.072 . S
Mg180 O181 2.099 . S
Mg180 O183 2.079 1_554 S
Mg180 O184 2.072 1_554 S
Mg180 O186 2.099 . S
Mg180 O197 2.079 . S
O181 Mg178 2.180 . S
O181 Mg180 2.099 . S
O181 C192 1.279 . S
O182 Mg178 2.117 . S
O182 C192 1.250 . S
O183 Mg180 2.079 1_556 S
O183 C193 1.264 . S
O184 Mg180 2.072 1_556 S
O184 C194 1.260 . S
Mg185 O186 2.180 1_556 S
Mg185 O187 2.030 . S
Mg185 O188 1.990 . S
Mg185 O189 2.125 . S
O186 Mg180 2.099 . S
O186 Mg185 2.180 1_554 S
O186 C195 1.279 . S
O187 Mg185 2.030 . S
O187 C193 1.248 . S
O188 Mg185 1.990 . S
O188 C194 1.253 . S
O189 Mg185 2.125 . S
O189 C195 1.242 1_556 S
C190 O196 1.248 . S
C190 O197 1.264 . S
C191 O177 1.253 . S
C191 O179 1.260 . S
C192 O181 1.279 . S
C192 O182 1.250 . S
C193 O183 1.264 . S
C193 O187 1.248 . S
C194 O184 1.260 . S
C194 O188 1.253 . S
C195 O186 1.279 . S
C195 O189 1.242 1_554 S
O196 Mg178 2.030 . S
O196 C190 1.248 . S
O197 Mg180 2.079 . S
O197 C190 1.264 . S
H198 C199 0.951 . S
C199 H198 0.951 . S
C199 C205 1.265 . S
H200 C205 0.950 . S
H201 C209 0.949 . S
H202 C210 0.950 . S
H203 C211 0.951 . S
H204 C212 0.951 . S
C205 C199 1.265 . S
C205 H200 0.950 . S
C205 C206 1.478 . S
C206 C205 1.478 . S
C206 C207 1.397 . S
C206 C223 1.394 . S
C207 C206 1.397 . S
C207 C208 1.438 . S
C207 C212 1.429 . S
C208 C207 1.438 . S
C208 C209 1.428 . S
C208 C221 1.394 . S
C209 H201 0.949 . S
C209 C208 1.428 . S
C209 C210 1.345 . S
C210 H202 0.950 . S
C210 C209 1.345 . S
C210 C211 1.424 . S
C211 H203 0.951 . S
C211 C210 1.424 . S
C211 C212 1.347 . S
C212 H204 0.951 . S
C212 C207 1.429 . S
C212 C211 1.347 . S
H213 C214 0.951 . S
C214 H213 0.951 . S
C214 C220 1.265 . S
H215 C220 0.950 . S
H216 C224 0.949 . S
H217 C225 0.950 . S
H218 C226 0.951 . S
H219 C227 0.951 . S
C220 C214 1.265 . S
C220 H215 0.950 . S
C220 C221 1.478 . S
C221 C208 1.394 . S
C221 C220 1.478 . S
C221 C222 1.397 . S
C222 C221 1.397 . S
C222 C223 1.438 . S
C222 C227 1.429 . S
C223 C206 1.394 . S
C223 C222 1.438 . S
C223 C224 1.428 . S
C224 H216 0.949 . S
C224 C223 1.428 . S
C224 C225 1.345 . S
C225 H217 0.950 . S
C225 C224 1.345 . S
C225 C226 1.424 . S
C226 H218 0.951 . S
C226 C225 1.424 . S
C226 C227 1.347 . S
C227 H219 0.951 . S
C227 C222 1.429 . S
C227 C226 1.347 . S
H228 C229 0.951 . S
C229 H228 0.951 . S
C229 C235 1.265 . S
H230 C235 0.950 . S
H231 C239 0.949 . S
H232 C240 0.950 . S
H233 C241 0.946 1_556 S
H234 C242 0.951 . S
C235 C229 1.265 . S
C235 H230 0.950 . S
C235 C236 1.478 . S
C236 C235 1.478 . S
C236 C237 1.397 . S
C236 C253 1.394 . S
C237 C236 1.397 . S
C237 C238 1.438 . S
C237 C242 1.429 . S
C238 C237 1.438 . S
C238 C239 1.428 . S
C238 C251 1.394 . S
C239 H231 0.949 . S
C239 C238 1.428 . S
C239 C240 1.345 1_554 S
C240 H232 0.950 . S
C240 C239 1.345 1_556 S
C240 C241 1.420 1_556 S
C241 H233 0.946 1_554 S
C241 C240 1.420 1_554 S
C241 C242 1.357 . S
C242 H234 0.951 . S
C242 C237 1.429 . S
C242 C241 1.357 . S
H243 C244 0.951 . S
C244 H243 0.951 . S
C244 C250 1.265 . S
H245 C250 0.950 . S
H246 C254 0.949 . S
H247 C255 0.950 . S
H248 C256 0.951 . S
H249 C257 0.951 . S
C250 C244 1.265 . S
C250 H245 0.950 . S
C250 C251 1.478 . S
C251 C238 1.394 . S
C251 C250 1.478 . S
C251 C252 1.397 . S
C252 C251 1.397 . S
C252 C253 1.438 . S
C252 C257 1.429 . S
C253 C236 1.394 . S
C253 C252 1.438 . S
C253 C254 1.428 . S
C254 H246 0.949 . S
C254 C253 1.428 . S
C254 C255 1.345 . S
C255 H247 0.950 . S
C255 C254 1.345 . S
C255 C256 1.424 . S
C256 H248 0.951 . S
C256 C255 1.424 . S
C256 C257 1.347 . S
C257 H249 0.951 . S
C257 C252 1.429 . S
C257 C256 1.347 . S
H258 C259 0.951 . S
C259 H258 0.951 . S
C259 C265 1.265 . S
H260 C265 0.950 . S
H261 C269 0.949 . S
H262 C270 0.950 . S
H263 C271 0.951 . S
H264 C272 0.951 . S
C265 C259 1.265 . S
C265 H260 0.950 . S
C265 C266 1.478 . S
C266 C265 1.478 . S
C266 C267 1.397 . S
C266 C283 1.394 . S
C267 C266 1.397 . S
C267 C268 1.438 . S
C267 C272 1.429 . S
C268 C267 1.438 . S
C268 C269 1.428 . S
C268 C281 1.394 . S
C269 H261 0.949 . S
C269 C268 1.428 . S
C269 C270 1.345 . S
C270 H262 0.950 . S
C270 C269 1.345 . S
C270 C271 1.424 . S
C271 H263 0.951 . S
C271 C270 1.424 . S
C271 C272 1.347 . S
C272 H264 0.951 . S
C272 C267 1.429 . S
C272 C271 1.347 . S
H273 C274 0.951 . S
C274 H273 0.951 . S
C274 C280 1.265 . S
H275 C280 0.950 . S
H276 C284 0.949 . S
H277 C285 0.950 . S
H278 C286 0.951 . S
H279 C287 0.951 . S
C280 C274 1.265 . S
C280 H275 0.950 . S
C280 C281 1.478 . S
C281 C268 1.394 . S
C281 C280 1.478 . S
C281 C282 1.397 . S
C282 C281 1.397 . S
C282 C283 1.438 . S
C282 C287 1.429 . S
C283 C266 1.394 . S
C283 C282 1.438 . S
C283 C284 1.428 . S
C284 H276 0.949 . S
C284 C283 1.428 . S
C284 C285 1.345 . S
C285 H277 0.950 . S
C285 C284 1.345 . S
C285 C286 1.424 . S
C286 H278 0.951 . S
C286 C285 1.424 . S
C286 C287 1.347 . S
C287 H279 0.951 . S
C287 C282 1.429 . S
C287 C286 1.347 . S
H288 C289 0.951 . S
C289 H288 0.951 . S
C289 C295 1.265 . S
H290 C295 0.950 . S
H291 C299 0.949 . S
H292 C300 0.950 . S
H293 C301 0.951 . S
H294 C302 0.951 . S
C295 C289 1.265 . S
C295 H290 0.950 . S
C295 C296 1.478 1_556 S
C296 C295 1.478 1_554 S
C296 C297 1.397 1_554 S
C296 C313 1.394 . S
C297 C296 1.397 1_556 S
C297 C298 1.438 . S
C297 C302 1.429 . S
C298 C297 1.438 . S
C298 C299 1.428 . S
C298 C311 1.394 1_556 S
C299 H291 0.949 . S
C299 C298 1.428 . S
C299 C300 1.345 . S
C300 H292 0.950 . S
C300 C299 1.345 . S
C300 C301 1.424 . S
C301 H293 0.951 . S
C301 C300 1.424 . S
C301 C302 1.347 . S
C302 H294 0.951 . S
C302 C297 1.429 . S
C302 C301 1.347 . S
H303 C304 0.951 . S
C304 H303 0.951 . S
C304 C310 1.265 . S
H305 C310 0.950 . S
H306 C314 0.949 . S
H307 C315 0.950 . S
H308 C316 0.951 . S
H309 C317 0.951 . S
C310 C304 1.265 . S
C310 H305 0.950 . S
C310 C311 1.478 . S
C311 C298 1.394 1_554 S
C311 C310 1.478 . S
C311 C312 1.397 . S
C312 C311 1.397 . S
C312 C313 1.438 . S
C312 C317 1.429 . S
C313 C296 1.394 . S
C313 C312 1.438 . S
C313 C314 1.428 . S
C314 H306 0.949 . S
C314 C313 1.428 . S
C314 C315 1.345 . S
C315 H307 0.950 . S
C315 C314 1.345 . S
C315 C316 1.424 . S
C316 H308 0.951 . S
C316 C315 1.424 . S
C316 C317 1.347 . S
C317 H309 0.951 . S
C317 C312 1.429 . S
C317 C316 1.347 . S
H318 C319 0.951 . S
C319 H318 0.951 . S
C319 C325 1.265 . S
H320 C325 0.950 . S
H321 C329 0.949 . S
H322 C330 0.950 . S
H323 C331 0.951 . S
H324 C332 0.951 . S
C325 C319 1.265 . S
C325 H320 0.950 . S
C325 C326 1.478 . S
C326 C325 1.478 . S
C326 C327 1.397 . S
C326 C343 1.394 . S
C327 C326 1.397 . S
C327 C328 1.438 . S
C327 C332 1.429 1_565 S
C328 C327 1.438 . S
C328 C329 1.428 1_565 S
C328 C341 1.394 . S
C329 H321 0.949 . S
C329 C328 1.428 1_545 S
C329 C330 1.345 . S
C330 H322 0.950 . S
C330 C329 1.345 . S
C330 C331 1.424 . S
C331 H323 0.951 . S
C331 C330 1.424 . S
C331 C332 1.347 . S
C332 H324 0.951 . S
C332 C327 1.429 1_545 S
C332 C331 1.347 . S
H333 C334 0.951 . S
C334 H333 0.951 . S
C334 C340 1.265 . S
H335 C340 0.950 . S
H336 C344 0.949 . S
H337 C345 0.950 . S
H338 C346 0.951 . S
H339 C347 0.951 . S
C340 C334 1.265 . S
C340 H335 0.950 . S
C340 C341 1.478 . S
C341 C328 1.394 . S
C341 C340 1.478 . S
C341 C342 1.397 . S
C342 C341 1.397 . S
C342 C343 1.438 . S
C342 C347 1.429 . S
C343 C326 1.394 . S
C343 C342 1.438 . S
C343 C344 1.428 . S
C344 H336 0.949 . S
C344 C343 1.428 . S
C344 C345 1.345 . S
C345 H337 0.950 . S
C345 C344 1.345 . S
C345 C346 1.424 . S
C346 H338 0.951 . S
C346 C345 1.424 . S
C346 C347 1.347 . S
C347 H339 0.951 . S
C347 C342 1.429 . S
C347 C346 1.347 . S
H348 C349 0.951 . S
C349 H348 0.951 . S
C349 C355 1.265 . S
H350 C355 0.950 . S
H351 C359 0.949 . S
H352 C360 0.950 . S
H353 C361 0.951 . S
H354 C362 0.951 . S
C355 C349 1.265 . S
C355 H350 0.950 . S
C355 C356 1.478 . S
C356 C355 1.478 . S
C356 C357 1.397 . S
C356 C373 1.394 . S
C357 C356 1.397 . S
C357 C358 1.438 . S
C357 C362 1.429 . S
C358 C357 1.438 . S
C358 C359 1.428 . S
C358 C371 1.394 . S
C359 H351 0.949 . S
C359 C358 1.428 . S
C359 C360 1.345 . S
C360 H352 0.950 . S
C360 C359 1.345 . S
C360 C361 1.424 . S
C361 H353 0.951 . S
C361 C360 1.424 . S
C361 C362 1.347 . S
C362 H354 0.951 . S
C362 C357 1.429 . S
C362 C361 1.347 . S
H363 C364 0.951 . S
C364 H363 0.951 . S
C364 C370 1.265 . S
H365 C370 0.950 . S
H366 C374 0.949 . S
H367 C375 0.950 . S
H368 C376 0.951 . S
H369 C377 0.951 . S
C370 C364 1.265 . S
C370 H365 0.950 . S
C370 C371 1.478 . S
C371 C358 1.394 . S
C371 C370 1.478 . S
C371 C372 1.397 . S
C372 C371 1.397 . S
C372 C373 1.438 . S
C372 C377 1.429 . S
C373 C356 1.394 . S
C373 C372 1.438 . S
C373 C374 1.428 . S
C374 H366 0.949 . S
C374 C373 1.428 . S
C374 C375 1.345 . S
C375 H367 0.950 . S
C375 C374 1.345 . S
C375 C376 1.424 . S
C376 H368 0.951 . S
C376 C375 1.424 . S
C376 C377 1.347 . S
C377 H369 0.951 . S
C377 C372 1.429 . S
C377 C376 1.347 . S
H378 C379 0.951 . S
C379 H378 0.951 . S
C379 C385 1.265 . S
H380 C385 0.950 . S
H381 C389 0.958 . S
H382 C390 0.950 . S
H383 C391 0.951 . S
H384 C392 0.951 . S
C385 C379 1.265 . S
C385 H380 0.950 . S
C385 C386 1.478 . S
C386 C385 1.478 . S
C386 C387 1.397 . S
C386 C403 1.394 . S
C387 C386 1.397 . S
C387 C388 1.438 . S
C387 C392 1.429 . S
C388 C387 1.438 . S
C388 C389 1.428 . S
C388 C401 1.394 . S
C389 H381 0.958 . S
C389 C388 1.428 . S
C389 C390 1.345 1_545 S
C390 H382 0.950 . S
C390 C389 1.345 1_565 S
C390 C391 1.424 . S
C391 H383 0.951 . S
C391 C390 1.424 . S
C391 C392 1.347 1_565 S
C392 H384 0.951 . S
C392 C387 1.429 . S
C392 C391 1.347 1_545 S
H393 C394 0.951 . S
C394 H393 0.951 . S
C394 C400 1.265 . S
H395 C400 0.950 . S
H396 C404 0.949 . S
H397 C405 0.950 . S
H398 C406 0.951 . S
H399 C407 0.951 . S
C400 C394 1.265 . S
C400 H395 0.950 . S
C400 C401 1.478 . S
C401 C388 1.394 . S
C401 C400 1.478 . S
C401 C402 1.397 . S
C402 C401 1.397 . S
C402 C403 1.438 . S
C402 C407 1.429 . S
C403 C386 1.394 . S
C403 C402 1.438 . S
C403 C404 1.428 . S
C404 H396 0.949 . S
C404 C403 1.428 . S
C404 C405 1.345 . S
C405 H397 0.950 . S
C405 C404 1.345 . S
C405 C406 1.424 . S
C406 H398 0.951 . S
C406 C405 1.424 . S
C406 C407 1.347 . S
C407 H399 0.951 . S
C407 C402 1.429 . S
C407 C406 1.347 . S
H408 C409 0.951 . S
C409 H408 0.951 . S
C409 C415 1.265 . S
H410 C415 0.950 . S
H411 C419 0.949 . S
H412 C420 0.950 . S
H413 C421 0.951 . S
H414 C422 0.951 . S
C415 C409 1.265 . S
C415 H410 0.950 . S
C415 C416 1.478 . S
C416 C415 1.478 . S
C416 C417 1.397 . S
C416 C433 1.394 . S
C417 C416 1.397 . S
C417 C418 1.438 . S
C417 C422 1.429 . S
C418 C417 1.438 . S
C418 C419 1.428 . S
C418 C431 1.394 . S
C419 H411 0.949 . S
C419 C418 1.428 . S
C419 C420 1.345 . S
C420 H412 0.950 . S
C420 C419 1.345 . S
C420 C421 1.424 . S
C421 H413 0.951 . S
C421 C420 1.424 . S
C421 C422 1.347 . S
C422 H414 0.951 . S
C422 C417 1.429 . S
C422 C421 1.347 . S
H423 C424 0.951 . S
C424 H423 0.951 . S
C424 C430 1.265 . S
H425 C430 0.950 . S
H426 C434 0.949 . S
H427 C435 0.950 . S
H428 C436 0.951 . S
H429 C437 0.951 . S
C430 C424 1.265 . S
C430 H425 0.950 . S
C430 C431 1.478 . S
C431 C418 1.394 . S
C431 C430 1.478 . S
C431 C432 1.397 . S
C432 C431 1.397 . S
C432 C433 1.438 . S
C432 C437 1.429 . S
C433 C416 1.394 . S
C433 C432 1.438 . S
C433 C434 1.428 . S
C434 H426 0.949 . S
C434 C433 1.428 . S
C434 C435 1.345 . S
C435 H427 0.950 . S
C435 C434 1.345 . S
C435 C436 1.424 . S
C436 H428 0.951 . S
C436 C435 1.424 . S
C436 C437 1.347 . S
C437 H429 0.951 . S
C437 C432 1.429 . S
C437 C436 1.347 . S
H438 C439 0.951 . S
C439 H438 0.951 . S
C439 C445 1.265 . S
H440 C445 0.950 . S
H441 C449 0.949 . S
H442 C450 0.950 . S
H443 C451 0.951 . S
H444 C452 0.951 . S
C445 C439 1.265 . S
C445 H440 0.950 . S
C445 C446 1.478 . S
C446 C445 1.478 . S
C446 C447 1.397 . S
C446 C463 1.394 . S
C447 C446 1.397 . S
C447 C448 1.438 . S
C447 C452 1.429 . S
C448 C447 1.438 . S
C448 C449 1.428 . S
C448 C461 1.394 . S
C449 H441 0.949 . S
C449 C448 1.428 . S
C449 C450 1.345 . S
C450 H442 0.950 . S
C450 C449 1.345 . S
C450 C451 1.424 . S
C451 H443 0.951 . S
C451 C450 1.424 . S
C451 C452 1.347 . S
C452 H444 0.951 . S
C452 C447 1.429 . S
C452 C451 1.347 . S
H453 C454 0.951 . S
C454 H453 0.951 . S
C454 C460 1.265 . S
H455 C460 0.950 . S
H456 C464 0.949 . S
H457 C465 0.950 . S
H458 C466 0.951 . S
H459 C467 0.951 . S
C460 C454 1.265 . S
C460 H455 0.950 . S
C460 C461 1.478 . S
C461 C448 1.394 . S
C461 C460 1.478 . S
C461 C462 1.397 . S
C462 C461 1.397 . S
C462 C463 1.438 . S
C462 C467 1.429 . S
C463 C446 1.394 . S
C463 C462 1.438 . S
C463 C464 1.428 . S
C464 H456 0.949 . S
C464 C463 1.428 . S
C464 C465 1.345 . S
C465 H457 0.950 . S
C465 C464 1.345 . S
C465 C466 1.424 . S
C466 H458 0.951 . S
C466 C465 1.424 . S
C466 C467 1.347 . S
C467 H459 0.951 . S
C467 C462 1.429 . S
C467 C466 1.347 . S
H468 C469 0.951 . S
C469 H468 0.951 . S
C469 C475 1.265 . S
H470 C475 0.950 . S
H471 C479 0.948 . S
H472 C480 0.950 . S
H473 C481 0.951 . S
H474 C482 0.951 . S
C475 C469 1.265 . S
C475 H470 0.950 . S
C475 C476 1.478 . S
C476 C475 1.478 . S
C476 C477 1.397 . S
C476 C493 1.394 . S
C477 C476 1.397 . S
C477 C478 1.438 . S
C477 C482 1.429 . S
C478 C477 1.438 . S
C478 C479 1.428 . S
C478 C491 1.394 . S
C479 H471 0.948 . S
C479 C478 1.428 . S
C479 C480 1.345 1_545 S
C480 H472 0.950 . S
C480 C479 1.345 1_565 S
C480 C481 1.424 . S
C481 H473 0.951 . S
C481 C480 1.424 . S
C481 C482 1.347 1_565 S
C482 H474 0.951 . S
C482 C477 1.429 . S
C482 C481 1.347 1_545 S
H483 C484 0.951 . S
C484 H483 0.951 . S
C484 C490 1.265 . S
H485 C490 0.950 . S
H486 C494 0.949 . S
H487 C495 0.950 . S
H488 C496 0.951 . S
H489 C497 0.951 . S
C490 C484 1.265 . S
C490 H485 0.950 . S
C490 C491 1.478 . S
C491 C478 1.394 . S
C491 C490 1.478 . S
C491 C492 1.397 . S
C492 C491 1.397 . S
C492 C493 1.438 . S
C492 C497 1.429 . S
C493 C476 1.394 . S
C493 C492 1.438 . S
C493 C494 1.428 . S
C494 H486 0.949 . S
C494 C493 1.428 . S
C494 C495 1.345 . S
C495 H487 0.950 . S
C495 C494 1.345 . S
C495 C496 1.424 . S
C496 H488 0.951 . S
C496 C495 1.424 . S
C496 C497 1.347 . S
C497 H489 0.951 . S
C497 C492 1.429 . S
C497 C496 1.347 . S
H498 C499 0.951 . S
C499 H498 0.951 . S
C499 C505 1.265 . S
H500 C505 0.950 . S
H501 C509 0.949 . S
H502 C510 0.950 . S
H503 C511 0.951 . S
H504 C512 0.951 . S
C505 C499 1.265 . S
C505 H500 0.950 . S
C505 C506 1.478 . S
C506 C505 1.478 . S
C506 C507 1.397 . S
C506 C523 1.394 . S
C507 C506 1.397 . S
C507 C508 1.438 . S
C507 C512 1.429 . S
C508 C507 1.438 . S
C508 C509 1.428 . S
C508 C521 1.394 . S
C509 H501 0.949 . S
C509 C508 1.428 . S
C509 C510 1.345 . S
C510 H502 0.950 . S
C510 C509 1.345 . S
C510 C511 1.424 . S
C511 H503 0.951 . S
C511 C510 1.424 . S
C511 C512 1.347 . S
C512 H504 0.951 . S
C512 C507 1.429 . S
C512 C511 1.347 . S
H513 C514 0.951 . S
C514 H513 0.951 . S
C514 C520 1.265 . S
H515 C520 0.950 . S
H516 C524 0.949 . S
H517 C525 0.950 . S
H518 C526 0.951 . S
H519 C527 0.951 . S
C520 C514 1.265 . S
C520 H515 0.950 . S
C520 C521 1.478 . S
C521 C508 1.394 . S
C521 C520 1.478 . S
C521 C522 1.397 . S
C522 C521 1.397 . S
C522 C523 1.438 . S
C522 C527 1.429 . S
C523 C506 1.394 . S
C523 C522 1.438 . S
C523 C524 1.428 . S
C524 H516 0.949 . S
C524 C523 1.428 . S
C524 C525 1.345 . S
C525 H517 0.950 . S
C525 C524 1.345 . S
C525 C526 1.424 . S
C526 H518 0.951 . S
C526 C525 1.424 . S
C526 C527 1.347 . S
C527 H519 0.951 . S
C527 C522 1.429 . S
C527 C526 1.347 . S
H528 C529 0.951 . S
C529 H528 0.951 . S
C529 C535 1.265 . S
H530 C535 0.950 . S
H531 C539 0.949 . S
H532 C540 0.950 . S
H533 C541 0.951 . S
H534 C542 0.951 . S
C535 C529 1.265 . S
C535 H530 0.950 . S
C535 C536 1.478 . S
C536 C535 1.478 . S
C536 C537 1.397 . S
C536 C553 1.394 . S
C537 C536 1.397 . S
C537 C538 1.438 . S
C537 C542 1.429 1_565 S
C538 C537 1.438 . S
C538 C539 1.428 1_565 S
C538 C551 1.394 . S
C539 H531 0.949 . S
C539 C538 1.428 1_545 S
C539 C540 1.345 . S
C540 H532 0.950 . S
C540 C539 1.345 . S
C540 C541 1.424 . S
C541 H533 0.951 . S
C541 C540 1.424 . S
C541 C542 1.347 . S
C542 H534 0.951 . S
C542 C537 1.429 1_545 S
C542 C541 1.347 . S
H543 C544 0.951 . S
C544 H543 0.951 . S
C544 C550 1.265 . S
H545 C550 0.950 . S
H546 C554 0.949 . S
H547 C555 0.950 . S
H548 C556 0.951 . S
H549 C557 0.951 . S
C550 C544 1.265 . S
C550 H545 0.950 . S
C550 C551 1.478 . S
C551 C538 1.394 . S
C551 C550 1.478 . S
C551 C552 1.397 . S
C552 C551 1.397 . S
C552 C553 1.438 . S
C552 C557 1.429 . S
C553 C536 1.394 . S
C553 C552 1.438 . S
C553 C554 1.428 . S
C554 H546 0.949 . S
C554 C553 1.428 . S
C554 C555 1.345 . S
C555 H547 0.950 . S
C555 C554 1.345 . S
C555 C556 1.424 . S
C556 H548 0.951 . S
C556 C555 1.424 . S
C556 C557 1.347 . S
C557 H549 0.951 . S
C557 C552 1.429 . S
C557 C556 1.347 . S
C214 C171 1.342 . S
C199 C138 1.486 . S
C229 C21 1.531 . S
C244 C195 1.395 . S
C259 C60 1.672 . S
C274 C174 1.478 . S
C289 C99 1.679 . S
C304 C192 1.474 . S
C334 C172 1.630 . S
C319 C16 1.568 . S
C364 C194 1.529 . S
C349 C40 1.622 . S
C379 C79 1.562 . S
C394 C173 1.493 . S
C409 C133 1.550 . S
C424 C193 1.474 . S
C454 C191 1.518 . S
C439 C55 1.593 . S
C484 C170 1.543 . S
C469 C94 1.621 . S
C514 C190 1.572 . S
C499 C118 1.630 . S
C529 C1 1.602 . S
C544 C169 1.521 . S
