# Generated by pormake.
# Topology pts, (4,4)-cn, num edge types: 1
# Building blocks:
#     Node 0, Type 0, BuildingBlock: GIZVER_clean_linker_0, # of connection points: 4
#     Node 1, Type 0, BuildingBlock: GIZVER_clean_linker_0, # of connection points: 4
#     Node 2, Type 1, BuildingBlock: UXUYUI_clean_sbu_0, # of connection points: 4
#     Node 3, Type 1, BuildingBlock: UXUYUI_clean_sbu_0, # of connection points: 4
#     Edge 4, Type (0, 1), BuildingBlock: AJUNOK_clean_linker_0, # of connection points: 2
#     Edge 5, Type (0, 1), BuildingBlock: AJUNOK_clean_linker_0, # of connection points: 2
#     Edge 6, Type (0, 1), BuildingBlock: AJUNOK_clean_linker_0, # of connection points: 2
#     Edge 7, Type (0, 1), BuildingBlock: AJUNOK_clean_linker_0, # of connection points: 2
#     Edge 8, Type (0, 1), BuildingBlock: AJUNOK_clean_linker_0, # of connection points: 2
#     Edge 9, Type (0, 1), BuildingBlock: AJUNOK_clean_linker_0, # of connection points: 2
#     Edge 10, Type (0, 1), BuildingBlock: AJUNOK_clean_linker_0, # of connection points: 2
#     Edge 11, Type (0, 1), BuildingBlock: AJUNOK_clean_linker_0, # of connection points: 2
# Relax obj value: 0.010
# Max RMSD: 0.058
# Mean RMSD: 0.057
data_MOF--net-pts--node1-UXUYUI_clean_sbu_0--node2-GIZVER_clean_linker_0--edge1-AJUNOK_clean_linker_0
_symmetry_space_group_name_H-M    P1
_symmetry_Int_Tables_number       1
_symmetry_cell_setting            triclinic
loop_
_symmetry_equiv_pos_as_xyz
'x, y, z'
_cell_length_a     24.793276
_cell_length_b     24.818677
_cell_length_c     34.406861
_cell_angle_alpha  90.159639
_cell_angle_beta   89.634162
_cell_angle_gamma 89.641186
loop_
_atom_site_label
_atom_site_type_symbol
_atom_site_fract_x
_atom_site_fract_y
_atom_site_fract_z
_atom_type_partial_charge
H0 H 0.60189 0.09988 0.03986 0.0
H1 H 0.59941 0.09858 0.91459 0.0
H2 H 0.73115 1.02509 0.97555 0.0
H3 H 0.54309 0.1616 0.00408 0.0
H4 H 0.54286 0.1621 0.95229 0.0
H5 H 0.48477 0.10017 0.04074 0.0
H6 H 0.35271 0.03135 -0.02184 0.0
H7 H 0.48649 0.09879 0.91541 0.0
C8 C 0.61898 0.08669 0.01233 0.0
C9 C 0.66849 0.05895 0.01174 0.0
C10 C 0.59298 0.09997 -0.02266 0.0
C11 C 0.61755 0.0859 0.94168 0.0
C12 C 0.66702 0.05807 0.94099 0.0
C13 C 0.69145 0.04377 -0.02393 0.0
C14 C 0.543 0.13498 -0.022 0.0
C15 C 0.49216 0.1018 -0.02195 0.0
C16 C 0.46666 0.08846 0.01343 0.0
C17 C 0.41653 0.06242 0.01349 0.0
C18 C 0.39272 0.04884 -0.02194 0.0
C19 C 0.41716 0.0621 0.94256 0.0
C20 C 0.4675 0.0878 0.94269 0.0
H21 H 0.08987 0.59467 0.41442 0.0
H22 H 0.10475 0.59993 0.53918 0.0
H23 H 1.02489 0.72857 0.47934 0.0
H24 H 0.15964 0.54083 0.44895 0.0
H25 H 0.1616 0.53952 0.50072 0.0
H26 H 0.0976 0.48346 0.41295 0.0
H27 H 0.02981 0.35043 0.47577 0.0
H28 H 0.09792 0.48312 0.53827 0.0
C29 C 0.08066 0.61383 0.44204 0.0
C30 C 0.05305 0.66346 0.44277 0.0
C31 C 0.09879 0.59018 0.47681 0.0
C32 C 0.08908 0.61669 0.51243 0.0
C33 C 0.06128 0.66605 0.51335 0.0
C34 C 0.04314 0.68873 0.47861 0.0
C35 C 0.13374 0.54024 0.47548 0.0
C36 C 0.10038 0.48959 0.47557 0.0
C37 C 0.08652 0.46465 0.44022 0.0
C38 C 0.06092 0.41429 0.44008 0.0
C39 C 0.04712 0.39047 0.47561 0.0
C40 C 0.05962 0.41508 0.51105 0.0
C41 C 0.08642 0.46474 0.51096 0.0
Li42 Li 0.04209 0.08385 0.25451 0.0
Li43 Li 0.03505 0.98509 0.25289 0.0
Li44 Li 0.08952 0.03527 0.20167 0.0
Li45 Li 0.98878 0.03807 0.20508 0.0
C46 C 0.14569 0.03825 0.28034 0.0
N47 N 0.23651 0.05559 0.32477 0.0
C48 C 0.14864 1.01787 0.3181 0.0
C49 C 0.18908 0.06737 0.26516 0.0
C50 C 0.19484 1.02711 0.34011 0.0
C51 C 0.23459 0.07571 0.28808 0.0
C52 C 0.94913 1.02262 0.2938 0.0
C53 C 0.89058 0.9588 0.32549 0.0
N54 N 0.89453 0.98733 0.35915 0.0
C55 C 0.95259 0.05131 0.32872 0.0
C56 C 0.9178 0.97601 0.29213 0.0
C57 C 0.92467 0.03283 0.36141 0.0
C58 C 1.00164 0.18249 0.28344 0.0
N59 N 0.04489 0.14858 0.28536 0.0
C60 C 0.09066 0.21013 0.32707 0.0
C61 C 0.08879 0.16143 0.30687 0.0
C62 C 0.04732 0.24666 0.32474 0.0
C63 C 1.0021 0.2321 0.30279 0.0
H64 H 0.96692 0.17116 0.26646 0.0
H65 H 0.1225 0.13419 0.30866 0.0
C66 C 0.04076 0.87203 0.26426 0.0
N67 N 0.03453 0.9202 0.28284 0.0
C68 C 0.04017 0.82389 0.28534 0.0
C69 C 1.02656 0.87591 0.34412 0.0
C70 C 0.02846 0.92289 0.3221 0.0
C71 C 0.03226 0.82573 0.32569 0.0
H72 H 0.04641 0.871 0.23308 0.0
H73 H 1.02487 0.96154 0.33639 0.0
C74 C 0.04639 0.1522 0.19448 0.0
N75 N 0.05757 0.26284 0.19201 0.0
C76 C 1.0018 0.18505 0.18662 0.0
C77 C 0.0967 0.17561 0.20089 0.0
C78 C 1.00829 0.24091 0.1855 0.0
C79 C 0.1015 0.23162 0.19961 0.0
C80 C 1.01064 0.95271 0.16484 0.0
C81 C 1.02388 0.96853 0.12705 0.0
C82 C 0.96814 0.91696 0.17105 0.0
C83 C 0.99397 0.9485 0.09596 0.0
C84 C 0.93919 0.89789 0.13919 0.0
N85 N 0.95256 0.91396 0.10263 0.0
C86 C 0.19342 0.99936 0.17753 0.0
C87 C 0.15729 0.07281 0.14202 0.0
C88 C 0.24186 1.00216 0.15655 0.0
N89 N 0.15272 0.03485 0.17019 0.0
C90 C 0.20496 0.07723 0.12058 0.0
C91 C 0.24826 0.04212 0.12813 0.0
H92 H 0.18862 0.96967 0.20023 0.0
H93 H 0.12406 0.10009 0.13652 0.0
C94 C 0.87953 1.01702 0.18607 0.0
N95 N 0.92513 0.04254 0.17421 0.0
C96 C 0.83315 1.01856 0.16329 0.0
C97 C 0.88093 0.07411 0.11705 0.0
C98 C 0.92668 0.07074 0.14041 0.0
C99 C 0.83367 0.04743 0.12837 0.0
H100 H 0.87931 0.99486 0.21295 0.0
H101 H 0.96362 0.09024 0.13149 0.0
O102 O 0.1008 0.02938 0.25833 0.0
O103 O 0.976 0.04031 0.26143 0.0
O104 O 0.04064 0.09748 0.19656 0.0
O105 O 0.03802 0.97358 0.19571 0.0
H106 H 0.11557 0.99539 0.3304 0.0
H107 H 0.18759 0.0838 0.23616 0.0
H108 H 0.19755 1.01166 0.36941 0.0
H109 H 0.26836 0.09827 0.27671 0.0
H110 H 0.86664 0.92253 0.3247 0.0
H111 H 0.97672 0.08733 0.33067 0.0
H112 H 0.91571 0.95247 0.26571 0.0
H113 H 0.92706 0.0546 0.38862 0.0
H114 H 0.12542 0.21855 0.34493 0.0
H115 H 0.96755 0.25879 0.30054 0.0
H116 H 0.04537 0.78575 0.27037 0.0
H117 H 1.02153 0.87873 0.37537 0.0
H118 H 0.96245 0.16767 0.18197 0.0
H119 H 0.13153 0.15083 0.20721 0.0
H120 H 0.97408 0.26684 0.17965 0.0
H121 H 0.14013 0.25026 0.20475 0.0
H122 H 0.05645 0.9965 0.12185 0.0
H123 H 0.95709 0.90479 0.20021 0.0
H124 H 1.00352 0.96062 0.06655 0.0
H125 H 0.90589 0.87055 0.14355 0.0
H126 H 0.27422 0.97407 0.16288 0.0
H127 H 0.20781 0.10756 0.09808 0.0
H128 H 0.79727 0.99758 0.17283 0.0
H129 H 0.88273 0.09635 0.09003 0.0
Li130 Li 0.99476 0.04388 0.75309 0.0
Li131 Li 0.09493 0.04129 0.75234 0.0
Li132 Li 0.04311 0.09248 0.70121 0.0
Li133 Li 0.04755 0.99271 0.70158 0.0
C134 C 0.02858 0.14514 0.78211 0.0
N135 N 0.99218 0.2265 0.83075 0.0
C136 C 0.05241 0.15283 0.81839 0.0
C137 C 0.98671 0.17921 0.77036 0.0
C138 C 0.03331 0.19409 0.84262 0.0
C139 C 0.96875 0.22 0.79542 0.0
C140 C 0.06265 0.94771 0.78722 0.0
C141 C 0.12634 0.88127 0.80991 0.0
N142 N 0.10212 0.8824 0.84549 0.0
C143 C 0.03808 0.94792 0.82389 0.0
C144 C 0.10684 0.91384 0.78001 0.0
C145 C 0.05874 0.9147 0.85301 0.0
C146 C 0.88567 1.01996 0.76862 0.0
N147 N 0.93023 0.04385 0.78366 0.0
C148 C 0.88113 0.06941 0.84082 0.0
C149 C 0.92901 0.06746 0.81936 0.0
C150 C 0.83452 0.04565 0.8258 0.0
C151 C 0.83704 1.02013 0.78946 0.0
H152 H 0.88791 1.00086 0.74035 0.0
H153 H 0.96517 0.08454 0.83136 0.0
C154 C 0.20647 0.05438 0.76496 0.0
N155 N 0.15893 0.04231 0.78283 0.0
C156 C 0.25434 0.05564 0.78618 0.0
C157 C 0.20343 0.032 0.84374 0.0
C158 C 0.15652 0.03196 0.82157 0.0
C159 C 0.25302 0.04408 0.82602 0.0
H160 H 0.2072 0.06344 0.73427 0.0
H161 H 0.11814 1.02423 0.83538 0.0
C162 C 0.94356 0.05755 0.67166 0.0
N163 N 0.86395 0.0936 0.62212 0.0
C164 C 0.93898 0.03541 0.63444 0.0
C165 C 0.90717 0.09742 0.68391 0.0
C166 C 0.89859 0.05435 0.60976 0.0
C167 C 0.86734 0.11527 0.65837 0.0
C168 C 0.142 1.02534 0.66767 0.0
C169 C 0.14404 0.04906 0.63091 0.0
C170 C 0.17539 0.98133 0.67592 0.0
C171 C 0.17904 0.02776 0.60274 0.0
C172 C 0.20979 0.96118 0.64696 0.0
N173 N 0.21086 0.98459 0.61127 0.0
C174 C 0.06182 0.20274 0.68672 0.0
C175 C 1.02393 0.15552 0.63364 0.0
C176 C 0.0617 0.25073 0.66553 0.0
N177 N 0.04255 0.15657 0.67069 0.0
C178 C 1.0227 0.20254 0.61154 0.0
C179 C 0.04138 0.25101 0.62759 0.0
H180 H 0.07756 0.20228 0.71594 0.0
H181 H 1.01079 0.11806 0.62097 0.0
C182 C 0.03752 0.88089 0.68874 0.0
N183 N 0.04854 0.92851 0.67092 0.0
C184 C 0.0388 0.83271 0.6676 0.0
C185 C 0.06257 0.88351 0.6102 0.0
C186 C 0.06005 0.93072 0.63227 0.0
C187 C 0.05195 0.83396 0.62799 0.0
H188 H 1.02759 0.88031 0.71936 0.0
H189 H 0.06713 0.96911 0.61852 0.0
O190 O 0.04654 0.10465 0.7582 0.0
O191 O 0.04307 0.98008 0.75842 0.0
O192 O 0.98307 0.03967 0.69609 0.0
O193 O 0.10782 0.0455 0.69553 0.0
H194 H 0.08506 0.12699 0.82783 0.0
H195 H 0.96846 0.17439 0.74214 0.0
H196 H 0.05116 0.20032 0.87087 0.0
H197 H 0.93625 0.24656 0.78675 0.0
H198 H 0.16069 0.85504 0.80481 0.0
H199 H 1.00364 0.9737 0.82985 0.0
H200 H 0.12588 0.91276 0.75166 0.0
H201 H 0.04033 0.91464 0.8816 0.0
H202 H 0.88064 0.08857 0.86916 0.0
H203 H 0.80177 1.00109 0.77725 0.0
H204 H 0.29193 0.06536 0.77167 0.0
H205 H 0.20087 1.02383 0.87461 0.0
H206 H 0.96658 1.00424 0.62462 0.0
H207 H 0.90944 0.11417 0.71286 0.0
H208 H 0.8948 0.03785 0.58078 0.0
H209 H 0.83902 0.14626 0.66741 0.0
H210 H 0.11867 0.08335 0.62414 0.0
H211 H 0.17468 0.96291 0.70436 0.0
H212 H 0.18088 0.04553 0.57409 0.0
H213 H 0.23568 0.92696 0.65288 0.0
H214 H 0.07713 0.2872 0.67863 0.0
H215 H 1.00839 0.20079 0.58189 0.0
H216 H 0.02989 0.79498 0.68195 0.0
H217 H 0.07208 0.88566 0.57947 0.0
C218 C 0.36017 1.0053 0.05728 0.0
C219 C 0.38407 0.05546 0.04945 0.0
C220 C 0.31841 1.00056 0.08472 0.0
C221 C 0.29872 0.04597 0.10492 0.0
H222 H 0.3718 0.97008 0.04045 0.0
H223 H 0.2992 0.9618 0.08832 0.0
S224 S 0.35185 0.18502 0.09847 0.0
N225 N 0.38825 0.15037 0.06661 0.0
N226 N 0.31005 0.14139 0.11843 0.0
C227 C 0.32478 0.09555 0.09934 0.0
C228 C 0.3675 0.1003 0.07159 0.0
C229 C 0.09524 0.36965 0.57038 0.0
C230 C 0.05087 0.38395 0.54722 0.0
C231 C 0.09104 0.32865 0.59825 0.0
C232 C 0.04241 0.3006 0.60367 0.0
H233 H 0.13436 0.38744 0.56499 0.0
H234 H 0.12694 0.3165 0.61381 0.0
S235 S 0.91231 0.32969 0.55533 0.0
N236 N 0.95523 0.37211 0.53522 0.0
N237 N 0.94735 0.29505 0.58751 0.0
C238 C 0.99678 0.31763 0.58295 0.0
C239 C 1.001 0.35938 0.55478 0.0
C240 C 0.72049 0.10071 0.06548 0.0
C241 C 0.70181 0.0538 0.04706 0.0
C242 C 0.76213 0.0982 0.09282 0.0
C243 C 0.78574 0.04864 0.10305 0.0
H244 H 0.70516 0.13987 0.05693 0.0
H245 H 0.77708 0.13537 0.1052 0.0
S246 S 0.74865 0.9141 0.06512 0.0
N247 N 0.70813 0.95634 0.04222 0.0
N248 N 0.78571 0.95149 0.09429 0.0
C249 C 0.76547 1.00125 0.0864 0.0
C250 C 0.72364 1.00387 0.0582 0.0
C251 C 0.10522 0.72011 0.56516 0.0
C252 C 0.05774 0.69911 0.54909 0.0
C253 C 0.10304 0.76236 0.59231 0.0
C254 C 0.05333 0.78416 0.60457 0.0
H255 H 0.14427 0.70635 0.55471 0.0
H256 H 0.14041 0.77962 0.60255 0.0
S257 S 0.91774 0.7403 0.57373 0.0
N258 N 0.95979 0.70102 0.54904 0.0
N259 N 0.95578 0.77974 0.60077 0.0
C260 C 1.00564 0.76141 0.59053 0.0
C261 C 1.00783 0.71895 0.56258 0.0
C262 C 0.3581 1.00591 0.90034 0.0
C263 C 0.38548 0.05473 0.90646 0.0
C264 C 0.31707 1.00194 0.87272 0.0
C265 C 0.30243 0.0464 0.84985 0.0
H266 H 0.36638 0.97141 0.91864 0.0
H267 H 0.29514 0.96446 0.87032 0.0
S268 S 0.36404 0.18199 0.85221 0.0
N269 N 0.39685 0.14761 0.88572 0.0
N270 N 0.32048 0.13956 0.83309 0.0
C271 C 0.33184 0.09428 0.85367 0.0
C272 C 0.37333 0.09856 0.8821 0.0
C273 C 1.00599 0.35319 0.39835 0.0
C274 C 0.05407 0.38204 0.40398 0.0
C275 C 1.003 0.31161 0.37086 0.0
C276 C 0.04791 0.29749 0.34773 0.0
H277 H 0.97139 0.36061 0.41706 0.0
H278 H 0.96633 0.28819 0.36956 0.0
S279 S 0.18009 0.36679 0.3461 0.0
N280 N 0.14566 0.3975 0.38101 0.0
N281 N 0.13915 0.32101 0.32805 0.0
C282 C 0.09453 0.32933 0.35049 0.0
C283 C 0.09779 0.37134 0.37881 0.0
C284 C 0.71807 0.09911 0.88631 0.0
C285 C 0.69915 0.0524 0.90483 0.0
C286 C 0.76027 0.09632 0.85905 0.0
C287 C 0.78417 0.04667 0.84899 0.0
H288 H 0.70292 0.13839 0.89504 0.0
H289 H 0.77595 0.13342 0.84703 0.0
S290 S 0.74574 0.91246 0.88646 0.0
N291 N 0.7049 0.95492 0.90939 0.0
N292 N 0.7835 0.94958 0.85736 0.0
C293 C 0.76318 0.99941 0.86528 0.0
C294 C 0.72078 1.00231 0.89344 0.0
C295 C 0.08402 0.70395 0.38004 0.0
C296 C 0.04184 0.69408 0.40665 0.0
C297 C 0.07924 0.74429 0.35172 0.0
C298 C 0.0323 0.77611 0.34935 0.0
H299 H 0.1224 0.6833 0.38296 0.0
H300 H 0.11377 0.75312 0.33342 0.0
S301 S 0.90705 0.75977 0.40724 0.0
N302 N 0.94888 0.71402 0.42484 0.0
N303 N 0.94055 0.79064 0.37222 0.0
C304 C 0.98839 0.76369 0.37354 0.0
C305 C 0.99296 0.72236 0.402 0.0
loop_
_geom_bond_atom_site_label_1
_geom_bond_atom_site_label_2
_geom_bond_distance
_geom_bond_site_symmetry_2
_ccdc_geom_bond_type
H0 C8 0.930 . S
H1 C11 0.930 . S
H2 C13 0.930 1_565 S
H3 C14 0.970 . S
H4 C14 0.970 1_556 S
H5 C16 0.930 . S
H6 C18 0.930 1_565 S
H7 C20 0.930 . S
C8 H0 0.930 . S
C8 C9 1.382 . S
C8 C10 1.426 . S
C9 C8 1.382 . S
C9 C13 1.389 . S
C10 C8 1.426 . S
C10 C11 1.375 1_554 S
C10 C14 1.532 . S
C11 H1 0.930 . S
C11 C10 1.375 1_556 S
C11 C12 1.416 . S
C12 C11 1.416 . S
C12 C13 1.371 1_556 S
C13 H2 0.930 1_545 S
C13 C9 1.389 . S
C13 C12 1.371 1_554 S
C14 H3 0.970 . S
C14 H4 0.970 1_554 S
C14 C10 1.532 . S
C14 C15 1.499 . S
C15 C14 1.499 . S
C15 C16 1.370 . S
C15 C20 1.415 1_554 S
C16 H5 0.930 . S
C16 C15 1.370 . S
C16 C17 1.407 . S
C17 C16 1.407 . S
C17 C18 1.365 . S
C18 H6 0.930 1_545 S
C18 C17 1.365 . S
C18 C19 1.393 1_554 S
C19 C18 1.393 1_556 S
C19 C20 1.387 . S
C20 H7 0.930 . S
C20 C15 1.415 1_556 S
C20 C19 1.387 . S
H21 C29 0.930 . S
H22 C32 0.930 . S
H23 C34 0.930 1_655 S
H24 C35 0.970 . S
H25 C35 0.970 . S
H26 C37 0.930 . S
H27 C39 0.930 1_655 S
H28 C41 0.930 . S
C29 H21 0.930 . S
C29 C30 1.382 . S
C29 C31 1.426 . S
C30 C29 1.382 . S
C30 C34 1.389 . S
C31 C29 1.426 . S
C31 C32 1.375 . S
C31 C35 1.532 . S
C32 H22 0.930 . S
C32 C31 1.375 . S
C32 C33 1.416 . S
C33 C32 1.416 . S
C33 C34 1.371 . S
C34 H23 0.930 1_455 S
C34 C30 1.389 . S
C34 C33 1.371 . S
C35 H24 0.970 . S
C35 H25 0.970 . S
C35 C31 1.532 . S
C35 C36 1.499 . S
C36 C35 1.499 . S
C36 C37 1.370 . S
C36 C41 1.415 . S
C37 H26 0.930 . S
C37 C36 1.370 . S
C37 C38 1.407 . S
C38 C37 1.407 . S
C38 C39 1.365 . S
C39 H27 0.930 1_455 S
C39 C38 1.365 . S
C39 C40 1.393 . S
C40 C39 1.393 . S
C40 C41 1.387 . S
C41 H28 0.930 . S
C41 C36 1.415 . S
C41 C40 1.387 . S
Li42 N59 1.990 . S
Li42 O102 1.956 . S
Li42 O103 1.970 1_455 S
Li42 O104 1.961 . S
Li43 N67 1.990 . S
Li43 O102 1.970 1_565 S
Li43 O103 1.956 1_465 S
Li43 O105 1.961 . S
Li44 N89 1.990 . S
Li44 O102 1.961 . S
Li44 O104 1.956 . S
Li44 O105 1.970 1_545 S
Li45 N95 1.990 . S
Li45 O103 1.961 . S
Li45 O104 1.970 1_655 S
Li45 O105 1.956 1_645 S
C46 C48 1.348 1_545 S
C46 C49 1.356 . S
C46 O102 1.325 . S
N47 C50 1.314 1_545 S
N47 C51 1.279 . S
C48 C46 1.348 1_565 S
C48 C50 1.353 . S
C48 H106 0.929 . S
C49 C46 1.356 . S
C49 C51 1.358 . S
C49 H107 0.930 . S
C50 N47 1.314 1_565 S
C50 C48 1.353 . S
C50 H108 0.930 . S
C51 N47 1.279 . S
C51 C49 1.358 . S
C51 H109 0.930 . S
C52 C55 1.348 . S
C52 C56 1.356 1_545 S
C52 O103 1.325 . S
C53 N54 1.279 1_565 S
C53 C56 1.358 . S
C53 H110 0.930 . S
N54 C53 1.279 1_545 S
N54 C57 1.314 . S
C55 C52 1.348 . S
C55 C57 1.353 . S
C55 H111 0.929 . S
C56 C52 1.356 1_565 S
C56 C53 1.358 . S
C56 H112 0.930 . S
C57 N54 1.314 . S
C57 C55 1.353 . S
C57 H113 0.930 . S
C58 N59 1.314 1_655 S
C58 C63 1.353 . S
C58 H64 0.930 . S
N59 Li42 1.990 . S
N59 C58 1.314 1_455 S
N59 C61 1.279 . S
C60 C61 1.358 . S
C60 C62 1.356 . S
C60 H114 0.930 . S
C61 N59 1.279 . S
C61 C60 1.358 . S
C61 H65 0.930 . S
C62 C60 1.356 . S
C62 C63 1.348 1_455 S
C63 C58 1.353 . S
C63 C62 1.348 1_655 S
C63 H115 0.929 . S
H64 C58 0.930 . S
H65 C61 0.930 . S
C66 N67 1.314 . S
C66 C68 1.353 . S
C66 H72 0.930 . S
N67 Li43 1.990 . S
N67 C66 1.314 . S
N67 C70 1.279 1_455 S
C68 C66 1.353 . S
C68 C71 1.348 . S
C68 H116 0.929 . S
C69 C70 1.358 . S
C69 C71 1.356 1_655 S
C69 H117 0.930 . S
C70 N67 1.279 1_655 S
C70 C69 1.358 . S
C70 H73 0.930 . S
C71 C68 1.348 . S
C71 C69 1.356 1_455 S
H72 C66 0.930 . S
H73 C70 0.930 . S
C74 C76 1.348 1_455 S
C74 C77 1.356 . S
C74 O104 1.325 . S
N75 C78 1.314 1_455 S
N75 C79 1.279 . S
C76 C74 1.348 1_655 S
C76 C78 1.353 . S
C76 H118 0.929 . S
C77 C74 1.356 . S
C77 C79 1.358 . S
C77 H119 0.930 . S
C78 N75 1.314 1_655 S
C78 C76 1.353 . S
C78 H120 0.930 . S
C79 N75 1.279 . S
C79 C77 1.358 . S
C79 H121 0.930 . S
C80 C81 1.348 . S
C80 C82 1.356 1_455 S
C80 O105 1.325 . S
C81 C80 1.348 . S
C81 C83 1.353 . S
C81 H122 0.929 . S
C82 C80 1.356 1_655 S
C82 C84 1.358 . S
C82 H123 0.930 . S
C83 C81 1.353 . S
C83 N85 1.314 . S
C83 H124 0.930 . S
C84 C82 1.358 . S
C84 N85 1.279 1_655 S
C84 H125 0.930 . S
N85 C83 1.314 . S
N85 C84 1.279 1_455 S
C86 C88 1.353 . S
C86 N89 1.314 1_565 S
C86 H92 0.930 . S
C87 N89 1.279 . S
C87 C90 1.358 . S
C87 H93 0.930 . S
C88 C86 1.353 . S
C88 C91 1.348 1_565 S
C88 H126 0.929 . S
N89 Li44 1.990 . S
N89 C86 1.314 1_545 S
N89 C87 1.279 . S
C90 C87 1.358 . S
C90 C91 1.356 . S
C90 H127 0.930 . S
C91 C88 1.348 1_545 S
C91 C90 1.356 . S
H92 C86 0.930 . S
H93 C87 0.930 . S
C94 N95 1.314 . S
C94 C96 1.353 . S
C94 H100 0.930 . S
N95 Li45 1.990 . S
N95 C94 1.314 . S
N95 C98 1.279 1_545 S
C96 C94 1.353 . S
C96 C99 1.348 . S
C96 H128 0.929 . S
C97 C98 1.358 . S
C97 C99 1.356 1_565 S
C97 H129 0.930 . S
C98 N95 1.279 1_565 S
C98 C97 1.358 . S
C98 H101 0.930 . S
C99 C96 1.348 . S
C99 C97 1.356 1_545 S
H100 C94 0.930 . S
H101 C98 0.930 . S
O102 Li42 1.956 . S
O102 Li43 1.970 1_545 S
O102 Li44 1.961 . S
O102 C46 1.325 . S
O103 Li42 1.970 1_655 S
O103 Li43 1.956 1_645 S
O103 Li45 1.961 . S
O103 C52 1.325 . S
O104 Li42 1.961 . S
O104 Li44 1.956 . S
O104 Li45 1.970 1_455 S
O104 C74 1.325 . S
O105 Li43 1.961 . S
O105 Li44 1.970 1_565 S
O105 Li45 1.956 1_465 S
O105 C80 1.325 . S
H106 C48 0.929 . S
H107 C49 0.930 . S
H108 C50 0.930 . S
H109 C51 0.930 . S
H110 C53 0.930 . S
H111 C55 0.929 . S
H112 C56 0.930 . S
H113 C57 0.930 . S
H114 C60 0.930 . S
H115 C63 0.929 . S
H116 C68 0.929 . S
H117 C69 0.930 . S
H118 C76 0.929 . S
H119 C77 0.930 . S
H120 C78 0.930 . S
H121 C79 0.930 . S
H122 C81 0.929 . S
H123 C82 0.930 . S
H124 C83 0.930 . S
H125 C84 0.930 . S
H126 C88 0.929 . S
H127 C90 0.930 . S
H128 C96 0.929 . S
H129 C97 0.930 . S
Li130 N147 1.990 . S
Li130 O190 1.956 1_655 S
Li130 O191 1.970 1_645 S
Li130 O192 1.961 . S
Li131 N155 1.990 . S
Li131 O190 1.970 . S
Li131 O191 1.956 1_545 S
Li131 O193 1.961 . S
Li132 N177 1.990 . S
Li132 O190 1.961 . S
Li132 O192 1.956 1_455 S
Li132 O193 1.970 . S
Li133 N183 1.990 . S
Li133 O191 1.961 . S
Li133 O192 1.970 1_465 S
Li133 O193 1.956 1_565 S
C134 C136 1.348 . S
C134 C137 1.356 1_455 S
C134 O190 1.325 . S
N135 C138 1.314 . S
N135 C139 1.279 1_455 S
C136 C134 1.348 . S
C136 C138 1.353 . S
C136 H194 0.929 . S
C137 C134 1.356 1_655 S
C137 C139 1.358 . S
C137 H195 0.930 . S
C138 N135 1.314 . S
C138 C136 1.353 . S
C138 H196 0.930 . S
C139 N135 1.279 1_655 S
C139 C137 1.358 . S
C139 H197 0.930 . S
C140 C143 1.348 1_455 S
C140 C144 1.356 . S
C140 O191 1.325 . S
C141 N142 1.279 . S
C141 C144 1.358 . S
C141 H198 0.930 . S
N142 C141 1.279 . S
N142 C145 1.314 1_455 S
C143 C140 1.348 1_655 S
C143 C145 1.353 . S
C143 H199 0.929 . S
C144 C140 1.356 . S
C144 C141 1.358 . S
C144 H200 0.930 . S
C145 N142 1.314 1_655 S
C145 C143 1.353 . S
C145 H201 0.930 . S
C146 N147 1.314 1_565 S
C146 C151 1.353 . S
C146 H152 0.930 . S
N147 Li130 1.990 . S
N147 C146 1.314 1_545 S
N147 C149 1.279 . S
C148 C149 1.358 . S
C148 C150 1.356 . S
C148 H202 0.930 . S
C149 N147 1.279 . S
C149 C148 1.358 . S
C149 H153 0.930 . S
C150 C148 1.356 . S
C150 C151 1.348 1_545 S
C151 C146 1.353 . S
C151 C150 1.348 1_565 S
C151 H203 0.929 . S
H152 C146 0.930 . S
H153 C149 0.930 . S
C154 N155 1.314 . S
C154 C156 1.353 . S
C154 H160 0.930 . S
N155 Li131 1.990 . S
N155 C154 1.314 . S
N155 C158 1.279 1_545 S
C156 C154 1.353 . S
C156 C159 1.348 . S
C156 H204 0.929 . S
C157 C158 1.358 . S
C157 C159 1.356 1_565 S
C157 H205 0.930 . S
C158 N155 1.279 1_565 S
C158 C157 1.358 . S
C158 H161 0.930 . S
C159 C156 1.348 . S
C159 C157 1.356 1_545 S
H160 C154 0.930 . S
H161 C158 0.930 . S
C162 C164 1.348 1_545 S
C162 C165 1.356 . S
C162 O192 1.325 . S
N163 C166 1.314 1_545 S
N163 C167 1.279 . S
C164 C162 1.348 1_565 S
C164 C166 1.353 . S
C164 H206 0.929 . S
C165 C162 1.356 . S
C165 C167 1.358 . S
C165 H207 0.930 . S
C166 N163 1.314 1_565 S
C166 C164 1.353 . S
C166 H208 0.930 . S
C167 N163 1.279 . S
C167 C165 1.358 . S
C167 H209 0.930 . S
C168 C169 1.348 . S
C168 C170 1.356 1_545 S
C168 O193 1.325 . S
C169 C168 1.348 . S
C169 C171 1.353 . S
C169 H210 0.929 . S
C170 C168 1.356 1_565 S
C170 C172 1.358 . S
C170 H211 0.930 . S
C171 C169 1.353 . S
C171 N173 1.314 . S
C171 H212 0.930 . S
C172 C170 1.358 . S
C172 N173 1.279 1_565 S
C172 H213 0.930 . S
N173 C171 1.314 . S
N173 C172 1.279 1_545 S
C174 C176 1.353 . S
C174 N177 1.314 . S
C174 H180 0.930 . S
C175 N177 1.279 1_655 S
C175 C178 1.358 . S
C175 H181 0.930 . S
C176 C174 1.353 . S
C176 C179 1.348 . S
C176 H214 0.929 . S
N177 Li132 1.990 . S
N177 C174 1.314 . S
N177 C175 1.279 1_455 S
C178 C175 1.358 . S
C178 C179 1.356 1_655 S
C178 H215 0.930 . S
C179 C176 1.348 . S
C179 C178 1.356 1_455 S
H180 C174 0.930 . S
H181 C175 0.930 . S
C182 N183 1.314 1_655 S
C182 C184 1.353 . S
C182 H188 0.930 . S
N183 Li133 1.990 . S
N183 C182 1.314 1_455 S
N183 C186 1.279 . S
C184 C182 1.353 . S
C184 C187 1.348 1_655 S
C184 H216 0.929 . S
C185 C186 1.358 . S
C185 C187 1.356 . S
C185 H217 0.930 . S
C186 N183 1.279 . S
C186 C185 1.358 . S
C186 H189 0.930 . S
C187 C184 1.348 1_455 S
C187 C185 1.356 . S
H188 C182 0.930 . S
H189 C186 0.930 . S
O190 Li130 1.956 1_455 S
O190 Li131 1.970 . S
O190 Li132 1.961 . S
O190 C134 1.325 . S
O191 Li130 1.970 1_465 S
O191 Li131 1.956 1_565 S
O191 Li133 1.961 . S
O191 C140 1.325 . S
O192 Li130 1.961 . S
O192 Li132 1.956 1_655 S
O192 Li133 1.970 1_645 S
O192 C162 1.325 . S
O193 Li131 1.961 . S
O193 Li132 1.970 . S
O193 Li133 1.956 1_545 S
O193 C168 1.325 . S
H194 C136 0.929 . S
H195 C137 0.930 . S
H196 C138 0.930 . S
H197 C139 0.930 . S
H198 C141 0.930 . S
H199 C143 0.929 . S
H200 C144 0.930 . S
H201 C145 0.930 . S
H202 C148 0.930 . S
H203 C151 0.929 . S
H204 C156 0.929 . S
H205 C157 0.930 . S
H206 C164 0.929 . S
H207 C165 0.930 . S
H208 C166 0.930 . S
H209 C167 0.930 . S
H210 C169 0.929 . S
H211 C170 0.930 . S
H212 C171 0.930 . S
H213 C172 0.930 . S
H214 C176 0.929 . S
H215 C178 0.930 . S
H216 C184 0.929 . S
H217 C185 0.930 . S
C218 C219 1.369 1_565 S
C218 C220 1.419 . S
C218 H222 0.930 . S
C219 C218 1.369 1_545 S
C219 C228 1.429 . S
C220 C218 1.419 . S
C220 C221 1.363 1_565 S
C220 H223 0.929 . S
C221 C220 1.363 1_545 S
C221 C227 1.428 . S
H222 C218 0.930 . S
H223 C220 0.929 . S
S224 N225 1.613 . S
S224 N226 1.610 . S
N225 S224 1.613 . S
N225 C228 1.350 . S
N226 S224 1.610 . S
N226 C227 1.351 . S
C227 C221 1.428 . S
C227 N226 1.351 . S
C227 C228 1.434 . S
C228 C219 1.429 . S
C228 N225 1.350 . S
C228 C227 1.434 . S
C229 C230 1.369 . S
C229 C231 1.419 . S
C229 H233 0.930 . S
C230 C229 1.369 . S
C230 C239 1.429 1_455 S
C231 C229 1.419 . S
C231 C232 1.363 . S
C231 H234 0.929 . S
C232 C231 1.363 . S
C232 C238 1.428 1_455 S
H233 C229 0.930 . S
H234 C231 0.929 . S
S235 N236 1.613 . S
S235 N237 1.610 . S
N236 S235 1.613 . S
N236 C239 1.350 . S
N237 S235 1.610 . S
N237 C238 1.351 . S
C238 C232 1.428 1_655 S
C238 N237 1.351 . S
C238 C239 1.434 . S
C239 C230 1.429 1_655 S
C239 N236 1.350 . S
C239 C238 1.434 . S
C240 C241 1.369 . S
C240 C242 1.419 . S
C240 H244 0.930 . S
C241 C240 1.369 . S
C241 C250 1.429 . S
C242 C240 1.419 . S
C242 C243 1.363 . S
C242 H245 0.929 . S
C243 C242 1.363 . S
C243 C249 1.428 . S
H244 C240 0.930 . S
H245 C242 0.929 . S
S246 N247 1.613 . S
S246 N248 1.610 . S
N247 S246 1.613 . S
N247 C250 1.350 . S
N248 S246 1.610 . S
N248 C249 1.351 . S
C249 C243 1.428 . S
C249 N248 1.351 . S
C249 C250 1.434 . S
C250 C241 1.429 . S
C250 N247 1.350 . S
C250 C249 1.434 . S
C251 C252 1.369 . S
C251 C253 1.419 . S
C251 H255 0.930 . S
C252 C251 1.369 . S
C252 C261 1.429 1_455 S
C253 C251 1.419 . S
C253 C254 1.363 . S
C253 H256 0.929 . S
C254 C253 1.363 . S
C254 C260 1.428 1_455 S
H255 C251 0.930 . S
H256 C253 0.929 . S
S257 N258 1.613 . S
S257 N259 1.610 . S
N258 S257 1.613 . S
N258 C261 1.350 . S
N259 S257 1.610 . S
N259 C260 1.351 . S
C260 C254 1.428 1_655 S
C260 N259 1.351 . S
C260 C261 1.434 . S
C261 C252 1.429 1_655 S
C261 N258 1.350 . S
C261 C260 1.434 . S
C262 C263 1.369 1_565 S
C262 C264 1.419 . S
C262 H266 0.930 . S
C263 C262 1.369 1_545 S
C263 C272 1.429 . S
C264 C262 1.419 . S
C264 C265 1.363 1_565 S
C264 H267 0.929 . S
C265 C264 1.363 1_545 S
C265 C271 1.428 . S
H266 C262 0.930 . S
H267 C264 0.929 . S
S268 N269 1.613 . S
S268 N270 1.610 . S
N269 S268 1.613 . S
N269 C272 1.350 . S
N270 S268 1.610 . S
N270 C271 1.351 . S
C271 C265 1.428 . S
C271 N270 1.351 . S
C271 C272 1.434 . S
C272 C263 1.429 . S
C272 N269 1.350 . S
C272 C271 1.434 . S
C273 C274 1.369 1_655 S
C273 C275 1.419 . S
C273 H277 0.930 . S
C274 C273 1.369 1_455 S
C274 C283 1.429 . S
C275 C273 1.419 . S
C275 C276 1.363 1_655 S
C275 H278 0.929 . S
C276 C275 1.363 1_455 S
C276 C282 1.428 . S
H277 C273 0.930 . S
H278 C275 0.929 . S
S279 N280 1.613 . S
S279 N281 1.610 . S
N280 S279 1.613 . S
N280 C283 1.350 . S
N281 S279 1.610 . S
N281 C282 1.351 . S
C282 C276 1.428 . S
C282 N281 1.351 . S
C282 C283 1.434 . S
C283 C274 1.429 . S
C283 N280 1.350 . S
C283 C282 1.434 . S
C284 C285 1.369 . S
C284 C286 1.419 . S
C284 H288 0.930 . S
C285 C284 1.369 . S
C285 C294 1.429 1_545 S
C286 C284 1.419 . S
C286 C287 1.363 . S
C286 H289 0.929 . S
C287 C286 1.363 . S
C287 C293 1.428 1_545 S
H288 C284 0.930 . S
H289 C286 0.929 . S
S290 N291 1.613 . S
S290 N292 1.610 . S
N291 S290 1.613 . S
N291 C294 1.350 . S
N292 S290 1.610 . S
N292 C293 1.351 . S
C293 C287 1.428 1_565 S
C293 N292 1.351 . S
C293 C294 1.434 . S
C294 C285 1.429 1_565 S
C294 N291 1.350 . S
C294 C293 1.434 . S
C295 C296 1.369 . S
C295 C297 1.419 . S
C295 H299 0.930 . S
C296 C295 1.369 . S
C296 C305 1.429 1_455 S
C297 C295 1.419 . S
C297 C298 1.363 . S
C297 H300 0.929 . S
C298 C297 1.363 . S
C298 C304 1.428 1_455 S
H299 C295 0.930 . S
H300 C297 0.929 . S
S301 N302 1.613 . S
S301 N303 1.610 . S
N302 S301 1.613 . S
N302 C305 1.350 . S
N303 S301 1.610 . S
N303 C304 1.351 . S
C304 C298 1.428 1_655 S
C304 N303 1.351 . S
C304 C305 1.434 . S
C305 C296 1.429 1_655 S
C305 N302 1.350 . S
C305 C304 1.434 . S
C221 C91 1.551 . S
C219 C17 1.444 . S
C232 C179 1.540 . S
C230 C40 1.470 . S
C243 C99 1.552 . S
C241 C9 1.470 . S
C254 C187 1.545 . S
C252 C33 1.430 . S
C265 C159 1.541 . S
C263 C19 1.463 . S
C276 C62 1.551 . S
C274 C38 1.445 . S
C287 C150 1.545 . S
C285 C12 1.431 . S
C296 C30 1.470 . S
C298 C71 1.552 . S
