# Generated by pormake.
# Topology llj, (12,3)-cn, num edge types: 1
# Building blocks:
#     Node 0, Type 0, BuildingBlock: QEWDON_clean_sbu_0, # of connection points: 12
#     Node 1, Type 0, BuildingBlock: QEWDON_clean_sbu_0, # of connection points: 12
#     Node 2, Type 1, BuildingBlock: QEWDON_clean_linker_0, # of connection points: 3
#     Node 3, Type 1, BuildingBlock: QEWDON_clean_linker_0, # of connection points: 3
#     Node 4, Type 1, BuildingBlock: QEWDON_clean_linker_0, # of connection points: 3
#     Node 5, Type 1, BuildingBlock: QEWDON_clean_linker_0, # of connection points: 3
#     Node 6, Type 1, BuildingBlock: QEWDON_clean_linker_0, # of connection points: 3
#     Node 7, Type 1, BuildingBlock: QEWDON_clean_linker_0, # of connection points: 3
#     Node 8, Type 1, BuildingBlock: QEWDON_clean_linker_0, # of connection points: 3
#     Node 9, Type 1, BuildingBlock: QEWDON_clean_linker_0, # of connection points: 3
#     Edge 10, Type (0, 1), BuildingBlock: AJUNOK_clean_linker_0, # of connection points: 2
#     Edge 11, Type (0, 1), BuildingBlock: AJUNOK_clean_linker_0, # of connection points: 2
#     Edge 12, Type (0, 1), BuildingBlock: AJUNOK_clean_linker_0, # of connection points: 2
#     Edge 13, Type (0, 1), BuildingBlock: AJUNOK_clean_linker_0, # of connection points: 2
#     Edge 14, Type (0, 1), BuildingBlock: AJUNOK_clean_linker_0, # of connection points: 2
#     Edge 15, Type (0, 1), BuildingBlock: AJUNOK_clean_linker_0, # of connection points: 2
#     Edge 16, Type (0, 1), BuildingBlock: AJUNOK_clean_linker_0, # of connection points: 2
#     Edge 17, Type (0, 1), BuildingBlock: AJUNOK_clean_linker_0, # of connection points: 2
#     Edge 18, Type (0, 1), BuildingBlock: AJUNOK_clean_linker_0, # of connection points: 2
#     Edge 19, Type (0, 1), BuildingBlock: AJUNOK_clean_linker_0, # of connection points: 2
#     Edge 20, Type (0, 1), BuildingBlock: AJUNOK_clean_linker_0, # of connection points: 2
#     Edge 21, Type (0, 1), BuildingBlock: AJUNOK_clean_linker_0, # of connection points: 2
#     Edge 22, Type (0, 1), BuildingBlock: AJUNOK_clean_linker_0, # of connection points: 2
#     Edge 23, Type (0, 1), BuildingBlock: AJUNOK_clean_linker_0, # of connection points: 2
#     Edge 24, Type (0, 1), BuildingBlock: AJUNOK_clean_linker_0, # of connection points: 2
#     Edge 25, Type (0, 1), BuildingBlock: AJUNOK_clean_linker_0, # of connection points: 2
#     Edge 26, Type (0, 1), BuildingBlock: AJUNOK_clean_linker_0, # of connection points: 2
#     Edge 27, Type (0, 1), BuildingBlock: AJUNOK_clean_linker_0, # of connection points: 2
#     Edge 28, Type (0, 1), BuildingBlock: AJUNOK_clean_linker_0, # of connection points: 2
#     Edge 29, Type (0, 1), BuildingBlock: AJUNOK_clean_linker_0, # of connection points: 2
#     Edge 30, Type (0, 1), BuildingBlock: AJUNOK_clean_linker_0, # of connection points: 2
#     Edge 31, Type (0, 1), BuildingBlock: AJUNOK_clean_linker_0, # of connection points: 2
#     Edge 32, Type (0, 1), BuildingBlock: AJUNOK_clean_linker_0, # of connection points: 2
#     Edge 33, Type (0, 1), BuildingBlock: AJUNOK_clean_linker_0, # of connection points: 2
# Relax obj value: 0.027
# Max RMSD: 0.162
# Mean RMSD: 0.140
data_MOF--net-llj--node1-QEWDON_clean_sbu_0--node2-QEWDON_clean_linker_0--edge1-AJUNOK_clean_linker_0
_symmetry_space_group_name_H-M    P1
_symmetry_Int_Tables_number       1
_symmetry_cell_setting            triclinic
loop_
_symmetry_equiv_pos_as_xyz
'x, y, z'
_cell_length_a     32.462053
_cell_length_b     32.461682
_cell_length_c     18.502986
_cell_angle_alpha  91.531319
_cell_angle_beta   91.460308
_cell_angle_gamma 90.135836
loop_
_atom_site_label
_atom_site_type_symbol
_atom_site_fract_x
_atom_site_fract_y
_atom_site_fract_z
_atom_type_partial_charge
Zn0 Zn 0.94286 0.0989 0.93828 0.0
Zn1 Zn 0.94672 0.08847 0.11142 0.0
O2 O 0.9772 0.07558 0.02062 0.0
H3 H 0.99584 0.05268 0.01421 0.0
C4 C 0.86242 0.02179 0.83009 0.0
O5 O 0.87528 0.04241 0.88843 0.0
Zn6 Zn 0.05457 0.92533 0.10422 0.0
Zn7 Zn 0.05642 0.91651 0.93518 0.0
O8 O 0.02167 0.93775 0.01624 0.0
H9 H 0.00102 0.95902 0.01222 0.0
Zn10 Zn 0.87777 0.95103 0.92319 0.0
O11 O 0.90756 0.98174 0.00617 0.0
Zn12 Zn 0.90143 0.94734 0.09318 0.0
H13 H 0.92863 0.00235 0.00014 0.0
Zn14 Zn 0.09412 0.06464 0.92584 0.0
O15 O 0.08287 0.02816 0.00966 0.0
H16 H 0.06315 0.00589 0.00623 0.0
Zn17 Zn 0.09427 0.06418 0.09645 0.0
C18 C 0.10176 0.99612 0.8231 0.0
O19 O 0.10221 0.97618 0.88388 0.0
O20 O 0.90016 0.14085 0.97424 0.0
O21 O 0.90488 0.13469 0.09382 0.0
O22 O 0.10013 0.87396 0.96616 0.0
O23 O 0.0955 0.87903 0.08569 0.0
O24 O 0.84329 0.90085 0.95217 0.0
O25 O 0.85896 0.90129 0.07017 0.0
C26 C 0.02609 0.09962 0.18483 0.0
O27 O 0.1375 0.10913 0.95325 0.0
O28 O 0.13526 0.10897 0.07329 0.0
O29 O 0.02102 0.90134 0.8455 0.0
C30 C 0.88948 0.15177 0.03775 0.0
O31 O 0.97187 0.11046 0.84151 0.0
C32 C 0.97634 0.91195 0.17556 0.0
O33 O 0.86078 0.98268 0.83131 0.0
C34 C 0.11089 0.86245 0.02913 0.0
O35 O 0.09828 0.03507 0.82572 0.0
C36 C 0.89386 0.02119 0.1811 0.0
O37 O 0.98772 0.10588 0.19153 0.0
O38 O 0.03882 0.08488 0.12539 0.0
C39 C 0.83922 0.88618 0.01477 0.0
O40 O 0.01526 0.90799 0.17894 0.0
O41 O 0.95926 0.92685 0.11925 0.0
C42 C 0.11009 0.9927 0.17802 0.0
O43 O 0.88136 0.98408 0.17461 0.0
O44 O 0.91895 0.03446 0.13527 0.0
C45 C 0.15015 0.12256 0.01529 0.0
O46 O 0.11994 0.03044 0.17486 0.0
O47 O 0.08306 0.97869 0.13288 0.0
C48 C 0.99614 0.92686 0.81754 0.0
O49 O 0.99442 0.96464 0.84452 0.0
C50 C 0.0102 0.1186 0.8436 0.0
O51 O 0.02999 0.11906 0.90645 0.0
Zn52 Zn 0.441 0.60273 0.44351 0.0
Zn53 Zn 0.44859 0.5961 0.61426 0.0
O54 O 0.47774 0.58147 0.52377 0.0
H55 H 0.49535 0.55777 0.5173 0.0
C56 C 0.35545 0.46763 0.29131 0.0
O57 O 0.32482 0.44991 0.32374 0.0
Zn58 Zn 0.54837 0.43097 0.59933 0.0
Zn59 Zn 0.55089 0.43011 0.42893 0.0
O60 O 0.51428 0.44554 0.51237 0.0
H61 H 0.49418 0.46742 0.51063 0.0
Zn62 Zn 0.39541 0.44653 0.42658 0.0
O63 O 0.40488 0.48964 0.50538 0.0
Zn64 Zn 0.39992 0.45837 0.59561 0.0
H65 H 0.419 0.51553 0.49961 0.0
Zn66 Zn 0.59645 0.56988 0.4209 0.0
O67 O 0.58336 0.53292 0.50382 0.0
H68 H 0.56448 0.50994 0.49924 0.0
Zn69 Zn 0.59565 0.56693 0.59339 0.0
C70 C 0.60948 0.50225 0.31698 0.0
O71 O 0.60603 0.48096 0.37585 0.0
O72 O 0.40109 0.64777 0.47886 0.0
O73 O 0.40944 0.64427 0.59818 0.0
O74 O 0.5937 0.38588 0.45518 0.0
O75 O 0.5878 0.3843 0.57458 0.0
O76 O 0.35936 0.39775 0.45846 0.0
O77 O 0.36432 0.40666 0.57816 0.0
C78 C 0.52905 0.604 0.68482 0.0
O79 O 0.63865 0.61461 0.45227 0.0
O80 O 0.63711 0.61195 0.57225 0.0
O81 O 0.52142 0.42185 0.32918 0.0
C82 C 0.39311 0.66087 0.54253 0.0
O83 O 0.47216 0.61421 0.35049 0.0
C84 C 0.47264 0.42128 0.67588 0.0
O85 O 0.39043 0.46929 0.32336 0.0
C86 C 0.60343 0.37065 0.516 0.0
O87 O 0.6057 0.54119 0.3211 0.0
C88 C 0.38811 0.53365 0.67442 0.0
O89 O 0.49093 0.61104 0.69345 0.0
O90 O 0.54057 0.58805 0.62537 0.0
C91 C 0.35057 0.38674 0.52196 0.0
O92 O 0.51075 0.41258 0.67689 0.0
O93 O 0.4579 0.44265 0.62493 0.0
C94 C 0.60752 0.49429 0.67309 0.0
O95 O 0.37469 0.49683 0.66873 0.0
O96 O 0.41751 0.54411 0.63474 0.0
C97 C 0.65143 0.62699 0.51484 0.0
O98 O 0.62069 0.53101 0.66996 0.0
O99 O 0.57933 0.48274 0.6281 0.0
C100 C 0.48538 0.40652 0.32879 0.0
O101 O 0.46893 0.39825 0.39091 0.0
C102 C 0.48711 0.58537 0.31162 0.0
O103 O 0.48088 0.54693 0.32909 0.0
H104 H 0.39089 0.29196 0.10416 0.0
C105 C 0.39202 0.3093 0.05496 0.0
C106 C 0.40961 0.34885 0.05619 0.0
C107 C 0.37792 0.29073 0.98993 0.0
H108 H 0.43001 0.39837 0.99108 0.0
C109 C 0.41408 0.36903 0.99066 0.0
C110 C 0.40027 0.35056 0.92461 0.0
C111 C 0.38144 0.31151 0.92511 0.0
C112 C 0.36426 0.24758 0.98939 0.0
H113 H 0.37122 0.29639 0.87483 0.0
C114 C 0.3226 0.23769 0.99779 0.0
C115 C 0.31065 0.19635 0.0033 0.0
C116 C 0.39371 0.21611 0.98515 0.0
H117 H 0.426 0.22347 0.97908 0.0
C118 C 0.38173 0.175 0.98986 0.0
H119 H 0.29982 0.26197 0.00159 0.0
C120 C 0.34041 0.1651 -0.00069 0.0
H121 H 0.33155 0.13304 0.00314 0.0
H122 H 0.40455 0.15079 0.98676 0.0
H123 H 0.71004 0.38838 0.11953 0.0
C124 C 0.69706 0.39257 0.06561 0.0
C125 C 0.66104 0.41569 0.05673 0.0
C126 C 0.71896 0.37891 0.00532 0.0
H127 H 0.61913 0.44333 0.98055 0.0
C128 C 0.64594 0.42375 0.98696 0.0
C129 C 0.66736 0.41009 0.92583 0.0
C130 C 0.70387 0.38729 0.93542 0.0
C131 C 0.76162 0.36473 0.01676 0.0
H132 H 0.7217 0.37808 0.88899 0.0
C133 C 0.7711 0.32275 0.02362 0.0
C134 C 0.81167 0.31085 0.04175 0.0
C135 C 0.79285 0.39448 0.02668 0.0
H136 H 0.78588 0.42695 0.02207 0.0
C137 C 0.83306 0.38266 0.04394 0.0
H138 H 0.74705 0.29968 0.01629 0.0
C139 C 0.84246 0.34112 0.05176 0.0
H140 H 0.87397 0.3325 0.06468 0.0
H141 H 0.85698 0.40577 0.05162 0.0
H142 H 0.67198 0.66455 0.93434 0.0
C143 C 0.65105 0.65537 0.97574 0.0
C144 C 0.6139 0.63508 0.95591 0.0
C145 C 0.66173 0.66225 0.04935 0.0
H146 H 0.55807 0.6081 0.9943 0.0
C147 C 0.58723 0.62263 0.00973 0.0
C148 C 0.59709 0.62997 0.08291 0.0
C149 C 0.63421 0.65 0.10226 0.0
C150 C 0.70218 0.68015 0.07285 0.0
H151 H 0.64208 0.65545 0.15904 0.0
C152 C 0.7164 0.7178 0.04623 0.0
C153 C 0.75288 0.73592 0.07545 0.0
C154 C 0.72569 0.66036 0.12658 0.0
H155 H 0.71565 0.63131 0.14767 0.0
C156 C 0.76213 0.67796 0.15437 0.0
H157 H 0.69843 0.73371 0.00551 0.0
C158 C 0.7755 0.71568 0.12948 0.0
H159 H 0.80363 0.72918 0.15245 0.0
H160 H 0.77978 0.66255 0.19602 0.0
H161 H 0.26645 0.59555 0.11571 0.0
C162 C 0.28268 0.59831 0.06551 0.0
C163 C 0.31791 0.57455 0.05376 0.0
C164 C 0.26649 0.6234 0.01145 0.0
H165 H 0.36406 0.557 0.97764 0.0
C166 C 0.33808 0.57707 0.98803 0.0
C167 C 0.32203 0.60186 0.93279 0.0
C168 C 0.28662 0.62574 0.94545 0.0
C169 C 0.22488 0.64072 0.02033 0.0
H170 H 0.27304 0.64357 0.90226 0.0
C171 C 0.21789 0.68346 0.02149 0.0
C172 C 0.17824 0.69885 0.03534 0.0
C173 C 0.19194 0.61359 0.0312 0.0
H174 H 0.19677 0.58056 0.03027 0.0
C175 C 0.15262 0.62876 0.04365 0.0
H176 H 0.24332 0.70451 0.01409 0.0
C177 C 0.14577 0.67109 0.04608 0.0
H178 H 0.11491 0.68222 0.05586 0.0
H179 H 0.12741 0.60764 0.05187 0.0
H180 H 0.87193 0.81145 0.62332 0.0
C181 C 0.88013 0.82455 0.57231 0.0
C182 C 0.89919 0.86343 0.57128 0.0
C183 C 0.87588 0.80035 0.50899 0.0
H184 H 0.9222 0.91006 0.50256 0.0
C185 C 0.90838 0.8799 0.5041 0.0
C186 C 0.90365 0.85632 0.43936 0.0
C187 C 0.88875 0.81567 0.44332 0.0
C188 C 0.86405 0.75681 0.51379 0.0
H189 H 0.88884 0.79486 0.39671 0.0
C190 C 0.82242 0.74533 0.5156 0.0
C191 C 0.81167 0.70383 0.52367 0.0
C192 C 0.89484 0.72674 0.51933 0.0
H193 H 0.9271 0.7353 0.51816 0.0
C194 C 0.88417 0.68549 0.52748 0.0
H195 H 0.79859 0.76856 0.51141 0.0
C196 C 0.84278 0.67404 0.53002 0.0
H197 H 0.83498 0.64186 0.53604 0.0
H198 H 0.90801 0.66238 0.532 0.0
H199 H 0.21036 0.89522 0.63049 0.0
C200 C 0.19905 0.89892 0.57536 0.0
C201 C 0.16088 0.91778 0.56249 0.0
C202 C 0.22438 0.88794 0.51793 0.0
H203 H 0.11893 0.94096 0.48148 0.0
C204 C 0.14771 0.92486 0.49131 0.0
C205 C 0.17279 0.914 0.43313 0.0
C206 C 0.21116 0.89525 0.44664 0.0
C207 C 0.26701 0.87529 0.53448 0.0
H208 H 0.23141 0.8882 0.40232 0.0
C209 C 0.27816 0.83351 0.53409 0.0
C210 C 0.31785 0.82202 0.55819 0.0
C211 C 0.29584 0.90547 0.5574 0.0
H212 H 0.28748 0.93778 0.5586 0.0
C213 C 0.3354 0.89415 0.58013 0.0
H214 H 0.25581 0.8101 0.51717 0.0
C215 C 0.34635 0.85265 0.5809 0.0
H216 H 0.37726 0.84443 0.5986 0.0
H217 H 0.35751 0.91757 0.59776 0.0
H218 H 0.17313 0.15718 0.41478 0.0
C219 C 0.15374 0.1547 0.46133 0.0
C220 C 0.11422 0.13724 0.45311 0.0
C221 C 0.16897 0.16718 0.53009 0.0
H222 H 0.0604 0.11735 0.50783 0.0
C223 C 0.09011 0.13235 0.5144 0.0
C224 C 0.10424 0.1462 0.58343 0.0
C225 C 0.14391 0.16382 0.59028 0.0
C226 C 0.21288 0.17802 0.54127 0.0
H227 H 0.15602 0.17417 0.6428 0.0
C228 C 0.22707 0.21882 0.53619 0.0
C229 C 0.26905 0.22829 0.55014 0.0
C230 C 0.24063 0.14684 0.56022 0.0
H231 H 0.23008 0.11533 0.56475 0.0
C232 C 0.28208 0.15606 0.57399 0.0
H233 H 0.20547 0.24301 0.52274 0.0
C234 C 0.29625 0.19645 0.56914 0.0
H235 H 0.32868 0.20277 0.57952 0.0
H236 H 0.30332 0.13182 0.58856 0.0
H237 H 0.7638 0.13107 0.60551 0.0
C238 C 0.78117 0.12465 0.55719 0.0
C239 C 0.81689 0.10068 0.56154 0.0
C240 C 0.76559 0.13686 0.48987 0.0
H241 H 0.86383 0.06922 0.50184 0.0
C242 C 0.83763 0.08979 0.49827 0.0
C243 C 0.8231 0.10298 0.43042 0.0
C244 C 0.78686 0.12663 0.4269 0.0
C245 C 0.72331 0.15284 0.48432 0.0
H246 H 0.77406 0.13549 0.37491 0.0
C247 C 0.71474 0.19475 0.49711 0.0
C248 C 0.67369 0.20847 0.49535 0.0
C249 C 0.69092 0.12498 0.46911 0.0
H250 H 0.69718 0.09255 0.45943 0.0
C251 C 0.65024 0.13863 0.46749 0.0
H252 H 0.73967 0.21637 0.50893 0.0
C253 C 0.64158 0.18014 0.48087 0.0
H254 H 0.6098 0.19029 0.47912 0.0
H255 H 0.62536 0.11697 0.45606 0.0
C256 C 0.19973 0.16982 0.95743 0.0
C257 C 0.18729 0.14928 0.01946 0.0
C258 C 0.239 0.18763 0.95424 0.0
C259 C 0.26717 0.18511 0.01267 0.0
H260 H 0.17975 0.17043 0.90965 0.0
H261 H 0.24822 0.20131 0.90435 0.0
S262 S 0.24887 0.13942 0.19023 0.0
N263 N 0.20547 0.13136 0.14343 0.0
N264 N 0.27945 0.16428 0.13618 0.0
C265 C 0.25446 0.16718 0.07647 0.0
C266 C 0.21436 0.14951 0.08029 0.0
C267 C 0.84004 0.20239 0.98447 0.0
C268 C 0.86221 0.18825 0.04551 0.0
C269 C 0.82078 0.24101 0.9854 0.0
C270 C 0.82325 0.26698 0.04718 0.0
H271 H 0.83915 0.18437 0.93433 0.0
H272 H 0.80618 0.25168 0.93605 0.0
S273 S 0.87182 0.24267 0.22431 0.0
N274 N 0.88101 0.20176 0.17229 0.0
N275 N 0.8452 0.27455 0.1732 0.0
C276 C 0.84253 0.25218 0.11011 0.0
C277 C 0.86181 0.21268 0.10956 0.0
C278 C 0.79087 0.84593 0.08874 0.0
C279 C 0.81178 0.85019 0.02372 0.0
C280 C 0.76961 0.80957 0.1033 0.0
C281 C 0.76768 0.77656 0.05263 0.0
H282 H 0.79236 0.87025 0.13 0.0
H283 H 0.75597 0.80659 0.15576 0.0
S284 S 0.81287 0.7738 0.87088 0.0
N285 N 0.8262 0.81947 0.90563 0.0
N286 N 0.78542 0.7514 0.93284 0.0
C287 C 0.7858 0.78144 0.98539 0.0
C288 C 0.8079 0.81833 0.97077 0.0
C289 C 0.13227 0.8003 0.09689 0.0
C290 C 0.13656 0.82495 0.0361 0.0
C291 C 0.14827 0.76032 0.09803 0.0
C292 C 0.16958 0.74364 0.03889 0.0
H293 H 0.11409 0.81079 0.14206 0.0
H294 H 0.14222 0.74156 0.14418 0.0
S295 S 0.19588 0.79799 0.8726 0.0
N296 N 0.16875 0.83181 0.91961 0.0
N297 N 0.19861 0.75636 0.92187 0.0
C298 C 0.17732 0.76911 0.98062 0.0
C299 C 0.16081 0.80984 0.97918 0.0
C300 C 0.71369 0.65339 0.58338 0.0
C301 C 0.68829 0.65407 0.52052 0.0
C302 C 0.75307 0.67114 0.585 0.0
C303 C 0.76809 0.69092 0.52445 0.0
H304 H 0.70425 0.63688 0.63032 0.0
H305 H 0.77249 0.66816 0.63307 0.0
S306 S 0.71263 0.70552 0.34963 0.0
N307 N 0.68004 0.67937 0.39812 0.0
N308 N 0.75401 0.71314 0.40213 0.0
C309 C 0.74222 0.69435 0.46307 0.0
C310 C 0.70228 0.67586 0.4609 0.0
C311 C 0.3493 0.71638 0.48914 0.0
C312 C 0.36777 0.69875 0.55086 0.0
C313 C 0.33093 0.75538 0.49277 0.0
C314 C 0.33055 0.7783 0.55808 0.0
H315 H 0.3504 0.70073 0.43679 0.0
H316 H 0.31886 0.76857 0.44341 0.0
S317 S 0.36865 0.74435 0.7373 0.0
N318 N 0.37993 0.70584 0.68121 0.0
N319 N 0.34575 0.77934 0.68721 0.0
C320 C 0.34635 0.7602 0.62101 0.0
C321 C 0.36477 0.72033 0.61765 0.0
C322 C 0.33076 0.32586 0.594 0.0
C323 C 0.32584 0.34868 0.53076 0.0
C324 C 0.3111 0.28768 0.60074 0.0
C325 C 0.28538 0.27095 0.54489 0.0
H326 H 0.35115 0.3368 0.63772 0.0
H327 H 0.31673 0.2707 0.64963 0.0
S328 S 0.25898 0.32017 0.37124 0.0
N329 N 0.29062 0.35321 0.41356 0.0
N330 N 0.25423 0.28119 0.42598 0.0
C331 C 0.27867 0.29426 0.48279 0.0
C332 C 0.29882 0.33311 0.47574 0.0
C333 C 0.62293 0.30403 0.57164 0.0
C334 C 0.62873 0.33273 0.51703 0.0
C335 C 0.63963 0.26435 0.56628 0.0
C336 C 0.66345 0.25234 0.50708 0.0
H337 H 0.60319 0.31125 0.61655 0.0
H338 H 0.63244 0.24231 0.60712 0.0
S339 S 0.69228 0.31713 0.35455 0.0
N340 N 0.66319 0.34735 0.40511 0.0
N341 N 0.69509 0.27279 0.39617 0.0
C342 C 0.67202 0.28146 0.45489 0.0
C343 C 0.65454 0.3217 0.45961 0.0
C344 C 0.07284 0.14493 0.26034 0.0
C345 C 0.05417 0.10629 0.24759 0.0
C346 C 0.09433 0.15399 0.3257 0.0
C347 C 0.09731 0.12479 0.38048 0.0
H348 H 0.06942 0.16878 0.22079 0.0
H349 H 0.10688 0.18469 0.33488 0.0
S350 S 0.05708 0.0177 0.36959 0.0
N351 N 0.04252 0.03764 0.29179 0.0
N352 N 0.08283 0.0545 0.41472 0.0
C353 C 0.08044 0.08533 0.36654 0.0
C354 C 0.05883 0.07612 0.29998 0.0
C355 C 0.83452 0.05064 0.2461 0.0
C356 C 0.87739 0.04766 0.23938 0.0
C357 C 0.81732 0.07025 0.30649 0.0
C358 C 0.8424 0.08733 0.36293 0.0
H359 H 0.81407 0.03656 0.20528 0.0
H360 H 0.78409 0.07025 0.31043 0.0
S361 S 0.95672 0.08752 0.3709 0.0
N362 N 0.94463 0.06265 0.29415 0.0
N363 N 0.91254 0.10127 0.40651 0.0
C364 C 0.88546 0.08553 0.35574 0.0
C365 C 0.90291 0.06529 0.29423 0.0
C366 C 0.96995 0.91379 0.30797 0.0
C367 C 0.95331 0.90177 0.24 0.0
C368 C 0.9536 0.8992 0.3714 0.0
C369 C 0.91892 0.87279 0.37002 0.0
H370 H 0.99704 0.93342 0.31213 0.0
H371 H 0.96975 0.90762 0.42148 0.0
S372 S 0.86651 0.82965 0.20398 0.0
N373 N 0.90357 0.8589 0.17362 0.0
N374 N 0.86882 0.83527 0.29278 0.0
C375 C 0.90151 0.86125 0.30167 0.0
C376 C 0.91948 0.87497 0.23678 0.0
C377 C 0.10625 0.93701 0.26845 0.0
C378 C 0.12932 0.96722 0.23454 0.0
C379 C 0.12152 0.91784 0.33057 0.0
C380 C 0.1607 0.92787 0.36016 0.0
H381 H 0.07516 0.93029 0.25024 0.0
H382 H 0.10182 0.89644 0.35758 0.0
S383 S 0.2347 0.00272 0.28856 0.0
N384 N 0.19442 0.00442 0.23244 0.0
N385 N 0.22313 0.96836 0.3491 0.0
C386 C 0.18503 0.95636 0.32453 0.0
C387 C 0.16932 0.97611 0.26178 0.0
C388 C 0.11692 0.99727 0.69136 0.0
C389 C 0.1103 0.97438 0.75367 0.0
C390 C 0.13079 0.97822 0.62775 0.0
C391 C 0.13832 0.93561 0.62412 0.0
H392 H 0.11322 0.03044 0.69248 0.0
H393 H 0.13781 0.99731 0.58248 0.0
S394 S 0.11874 0.86067 0.76658 0.0
N395 N 0.10764 0.90586 0.80413 0.0
N396 N 0.13314 0.8703 0.68381 0.0
C397 C 0.12895 0.91194 0.68379 0.0
C398 C 0.11501 0.93126 0.74874 0.0
C399 C 0.076 0.12376 0.77726 0.0
C400 C 0.0328 0.12646 0.77649 0.0
C401 C 0.09844 0.12959 0.71477 0.0
C402 C 0.07892 0.14022 0.64898 0.0
H403 H 0.09283 0.1164 0.82639 0.0
H404 H 0.13147 0.12516 0.7183 0.0
S405 S 0.96619 0.15581 0.62027 0.0
N406 N 0.9711 0.1419 0.70519 0.0
N407 N 0.01337 0.15648 0.58907 0.0
C408 C 0.03561 0.14456 0.6481 0.0
C409 C 0.0126 0.13702 0.71143 0.0
C410 C 0.83291 0.02064 0.70394 0.0
C411 C 0.85023 0.0434 0.76316 0.0
C412 C 0.82282 0.03946 0.6387 0.0
C413 C 0.82887 0.08187 0.63062 0.0
H414 H 0.8277 0.98778 0.70733 0.0
H415 H 0.80994 0.02074 0.59427 0.0
S416 S 0.87087 0.15614 0.76894 0.0
N417 N 0.87185 0.11136 0.80928 0.0
N418 N 0.85162 0.14663 0.68666 0.0
C419 C 0.84503 0.10536 0.68937 0.0
C420 C 0.85594 0.08616 0.75572 0.0
C421 C 0.96144 0.87034 0.74663 0.0
C422 C 0.96811 0.91278 0.75782 0.0
C423 C 0.93715 0.85523 0.68866 0.0
C424 C 0.91791 0.88184 0.63928 0.0
H425 H 0.97592 0.84826 0.78202 0.0
H426 H 0.93543 0.8221 0.68081 0.0
S427 S 0.92522 0.99623 0.64586 0.0
N428 N 0.95368 0.98163 0.71573 0.0
N429 N 0.90587 0.95349 0.60821 0.0
C430 C 0.92298 0.92471 0.65163 0.0
C431 C 0.94848 0.9401 0.71055 0.0
C432 C 0.56934 0.579 0.79042 0.0
C433 C 0.55829 0.61154 0.74554 0.0
C434 C 0.59053 0.5866 0.85637 0.0
C435 C 0.60122 0.62702 0.87946 0.0
H436 H 0.55948 0.54782 0.77646 0.0
H437 H 0.59664 0.56098 0.89142 0.0
S438 S 0.5811 0.72231 0.77881 0.0
N439 N 0.56108 0.6851 0.72618 0.0
N440 N 0.60106 0.69954 0.8504 0.0
C441 C 0.59226 0.6595 0.83306 0.0
C442 C 0.57052 0.65172 0.76607 0.0
C443 C 0.39599 0.58206 0.78079 0.0
C444 C 0.3703 0.56186 0.72876 0.0
C445 C 0.37976 0.59822 0.84525 0.0
C446 C 0.33733 0.59544 0.85856 0.0
H447 H 0.42908 0.58189 0.7749 0.0
H448 H 0.40078 0.61058 0.88683 0.0
S449 S 0.25686 0.55059 0.73395 0.0
N450 N 0.30034 0.54378 0.69087 0.0
N451 N 0.2697 0.57464 0.81101 0.0
C452 C 0.31108 0.57866 0.80377 0.0
C453 C 0.32764 0.56174 0.73901 0.0
C454 C 0.44581 0.36145 0.73974 0.0
C455 C 0.44667 0.40425 0.73156 0.0
C456 C 0.42828 0.34421 0.80025 0.0
C457 C 0.41102 0.36924 0.85497 0.0
H458 H 0.46054 0.34125 0.70068 0.0
H459 H 0.43065 0.31119 0.80611 0.0
S460 S 0.40409 0.48333 0.85654 0.0
N461 N 0.42888 0.4714 0.78199 0.0
N462 N 0.39294 0.43907 0.89344 0.0
C463 C 0.40968 0.4121 0.84508 0.0
C464 C 0.42828 0.42963 0.78393 0.0
C465 C 0.59803 0.44304 0.7697 0.0
C466 C 0.6245 0.46705 0.72911 0.0
C467 C 0.61263 0.4225 0.83098 0.0
C468 C 0.65428 0.42528 0.8538 0.0
H469 H 0.5654 0.44246 0.7572 0.0
H470 H 0.59081 0.40581 0.86261 0.0
S471 S 0.73635 0.48349 0.76449 0.0
N472 N 0.69451 0.49135 0.71419 0.0
N473 N 0.72195 0.45334 0.82978 0.0
C474 C 0.68136 0.44801 0.812 0.0
C475 C 0.66644 0.4689 0.74976 0.0
C476 C 0.61506 0.43811 0.23975 0.0
C477 C 0.62013 0.48115 0.24802 0.0
C478 C 0.62716 0.41695 0.17672 0.0
C479 C 0.64437 0.43821 0.11973 0.0
H480 H 0.60226 0.42046 0.28271 0.0
H481 H 0.62361 0.38377 0.1729 0.0
S482 S 0.66725 0.54982 0.11553 0.0
N483 N 0.6456 0.54371 0.19434 0.0
N484 N 0.66761 0.50375 0.07578 0.0
C485 C 0.64948 0.48104 0.12687 0.0
C486 C 0.63752 0.50259 0.19104 0.0
C487 C 0.53094 0.63551 0.24851 0.0
C488 C 0.51408 0.5956 0.25126 0.0
C489 C 0.55771 0.64615 0.194 0.0
C490 C 0.56836 0.6175 0.13947 0.0
H491 H 0.52393 0.65875 0.28944 0.0
H492 H 0.56995 0.67724 0.19426 0.0
S493 S 0.53223 0.50902 0.12088 0.0
N494 N 0.50979 0.52724 0.19415 0.0
N495 N 0.55983 0.54749 0.09086 0.0
C496 C 0.55138 0.57757 0.14077 0.0
C497 C 0.52442 0.56654 0.19697 0.0
C498 C 0.37723 0.51917 0.20099 0.0
C499 C 0.34805 0.49022 0.22366 0.0
C500 C 0.36822 0.54532 0.14348 0.0
C501 C 0.32981 0.54331 0.107 0.0
H502 H 0.40654 0.52297 0.22973 0.0
H503 H 0.39064 0.56841 0.12964 0.0
S504 S 0.24583 0.46849 0.13616 0.0
N505 N 0.28132 0.45784 0.19834 0.0
N506 N 0.2646 0.50707 0.09074 0.0
C507 C 0.30163 0.51273 0.12563 0.0
C508 C 0.31072 0.48613 0.18384 0.0
C509 C 0.48434 0.39896 0.19374 0.0
C510 C 0.46388 0.39502 0.25943 0.0
C511 C 0.46616 0.38512 0.128 0.0
C512 C 0.42657 0.36725 0.12517 0.0
H513 H 0.51521 0.41168 0.1931 0.0
H514 H 0.48394 0.38712 0.07947 0.0
S515 S 0.35821 0.35356 0.28023 0.0
N516 N 0.40086 0.37365 0.31668 0.0
N517 N 0.36599 0.34984 0.1926 0.0
C518 C 0.40497 0.36501 0.18982 0.0
C519 C 0.42375 0.37835 0.25698 0.0
loop_
_geom_bond_atom_site_label_1
_geom_bond_atom_site_label_2
_geom_bond_distance
_geom_bond_site_symmetry_2
_ccdc_geom_bond_type
Zn0 O2 1.933 1_556 S
Zn0 O20 1.985 . S
Zn0 O31 1.955 . S
Zn1 O2 1.911 . S
Zn1 O21 1.970 . S
Zn1 O37 1.945 . S
Zn1 O44 1.981 . S
O2 Zn0 1.933 1_554 S
O2 Zn1 1.911 . S
O2 H3 0.841 1_655 S
H3 O2 0.841 1_455 S
C4 O5 1.246 . S
C4 O33 1.276 1_545 S
O5 C4 1.246 . S
Zn6 O8 1.911 . S
Zn6 O23 1.970 . S
Zn6 O40 1.945 . S
Zn6 O47 1.981 . S
Zn7 O8 1.933 1_556 S
Zn7 O22 1.985 . S
Zn7 O29 1.955 . S
O8 Zn6 1.911 . S
O8 Zn7 1.933 1_554 S
O8 H9 0.841 1_455 S
H9 O8 0.841 1_655 S
Zn10 O11 1.933 1_556 S
Zn10 O24 1.985 . S
Zn10 O33 1.955 . S
O11 Zn10 1.933 1_554 S
O11 Zn12 1.911 . S
O11 H13 0.841 1_565 S
Zn12 O11 1.911 . S
Zn12 O25 1.970 . S
Zn12 O41 1.981 . S
Zn12 O43 1.945 . S
H13 O11 0.841 1_545 S
Zn14 O15 1.933 1_556 S
Zn14 O27 1.985 . S
Zn14 O35 1.955 . S
O15 Zn14 1.933 1_554 S
O15 H16 0.841 1_545 S
O15 Zn17 1.911 . S
H16 O15 0.841 1_565 S
Zn17 O15 1.911 . S
Zn17 O28 1.970 . S
Zn17 O38 1.981 . S
Zn17 O46 1.945 . S
C18 O19 1.246 . S
C18 O35 1.276 1_565 S
O19 C18 1.246 . S
O20 Zn0 1.985 . S
O20 C30 1.245 1_556 S
O21 Zn1 1.970 . S
O21 C30 1.263 . S
O22 Zn7 1.985 . S
O22 C34 1.245 1_556 S
O23 Zn6 1.970 . S
O23 C34 1.263 . S
O24 Zn10 1.985 . S
O24 C39 1.245 1_556 S
O25 Zn12 1.970 . S
O25 C39 1.263 . S
C26 O37 1.262 1_455 S
C26 O38 1.245 . S
O27 Zn14 1.985 . S
O27 C45 1.245 1_556 S
O28 Zn17 1.970 . S
O28 C45 1.263 . S
O29 Zn7 1.955 . S
O29 C48 1.276 1_455 S
C30 O20 1.245 1_554 S
C30 O21 1.263 . S
O31 Zn0 1.955 . S
O31 C50 1.276 1_655 S
C32 O40 1.262 1_655 S
C32 O41 1.245 . S
O33 C4 1.276 1_565 S
O33 Zn10 1.955 . S
C34 O22 1.245 1_554 S
C34 O23 1.263 . S
O35 Zn14 1.955 . S
O35 C18 1.276 1_545 S
C36 O43 1.262 1_545 S
C36 O44 1.245 . S
O37 Zn1 1.945 . S
O37 C26 1.262 1_655 S
O38 Zn17 1.981 . S
O38 C26 1.245 . S
C39 O24 1.245 1_554 S
C39 O25 1.263 . S
O40 Zn6 1.945 . S
O40 C32 1.262 1_455 S
O41 Zn12 1.981 . S
O41 C32 1.245 . S
C42 O46 1.262 1_565 S
C42 O47 1.245 . S
O43 Zn12 1.945 . S
O43 C36 1.262 1_565 S
O44 Zn1 1.981 . S
O44 C36 1.245 . S
C45 O27 1.245 1_554 S
C45 O28 1.263 . S
O46 Zn17 1.945 . S
O46 C42 1.262 1_545 S
O47 Zn6 1.981 . S
O47 C42 1.245 . S
C48 O29 1.276 1_655 S
C48 O49 1.246 . S
O49 C48 1.246 . S
C50 O31 1.276 1_455 S
C50 O51 1.246 . S
O51 C50 1.246 . S
Zn52 O54 1.933 . S
Zn52 O72 1.985 . S
Zn52 O83 1.955 . S
Zn53 O54 1.911 . S
Zn53 O73 1.970 . S
Zn53 O89 1.945 . S
Zn53 O96 1.981 . S
O54 Zn52 1.933 . S
O54 Zn53 1.911 . S
O54 H55 0.841 . S
H55 O54 0.841 . S
C56 O57 1.246 . S
C56 O85 1.276 . S
O57 C56 1.246 . S
Zn58 O60 1.911 . S
Zn58 O75 1.970 . S
Zn58 O92 1.945 . S
Zn58 O99 1.981 . S
Zn59 O60 1.933 . S
Zn59 O74 1.985 . S
Zn59 O81 1.955 . S
O60 Zn58 1.911 . S
O60 Zn59 1.933 . S
O60 H61 0.841 . S
H61 O60 0.841 . S
Zn62 O63 1.933 . S
Zn62 O76 1.985 . S
Zn62 O85 1.955 . S
O63 Zn62 1.933 . S
O63 Zn64 1.911 . S
O63 H65 0.841 . S
Zn64 O63 1.911 . S
Zn64 O77 1.970 . S
Zn64 O93 1.981 . S
Zn64 O95 1.945 . S
H65 O63 0.841 . S
Zn66 O67 1.933 . S
Zn66 O79 1.985 . S
Zn66 O87 1.955 . S
O67 Zn66 1.933 . S
O67 H68 0.841 . S
O67 Zn69 1.911 . S
H68 O67 0.841 . S
Zn69 O67 1.911 . S
Zn69 O80 1.970 . S
Zn69 O90 1.981 . S
Zn69 O98 1.945 . S
C70 O71 1.246 . S
C70 O87 1.276 . S
O71 C70 1.246 . S
O72 Zn52 1.985 . S
O72 C82 1.245 . S
O73 Zn53 1.970 . S
O73 C82 1.263 . S
O74 Zn59 1.985 . S
O74 C86 1.245 . S
O75 Zn58 1.970 . S
O75 C86 1.263 . S
O76 Zn62 1.985 . S
O76 C91 1.245 . S
O77 Zn64 1.970 . S
O77 C91 1.263 . S
C78 O89 1.262 . S
C78 O90 1.245 . S
O79 Zn66 1.985 . S
O79 C97 1.245 . S
O80 Zn69 1.970 . S
O80 C97 1.263 . S
O81 Zn59 1.955 . S
O81 C100 1.276 . S
C82 O72 1.245 . S
C82 O73 1.263 . S
O83 Zn52 1.955 . S
O83 C102 1.276 . S
C84 O92 1.262 . S
C84 O93 1.245 . S
O85 C56 1.276 . S
O85 Zn62 1.955 . S
C86 O74 1.245 . S
C86 O75 1.263 . S
O87 Zn66 1.955 . S
O87 C70 1.276 . S
C88 O95 1.262 . S
C88 O96 1.245 . S
O89 Zn53 1.945 . S
O89 C78 1.262 . S
O90 Zn69 1.981 . S
O90 C78 1.245 . S
C91 O76 1.245 . S
C91 O77 1.263 . S
O92 Zn58 1.945 . S
O92 C84 1.262 . S
O93 Zn64 1.981 . S
O93 C84 1.245 . S
C94 O98 1.262 . S
C94 O99 1.245 . S
O95 Zn64 1.945 . S
O95 C88 1.262 . S
O96 Zn53 1.981 . S
O96 C88 1.245 . S
C97 O79 1.245 . S
C97 O80 1.263 . S
O98 Zn69 1.945 . S
O98 C94 1.262 . S
O99 Zn58 1.981 . S
O99 C94 1.245 . S
C100 O81 1.276 . S
C100 O101 1.246 . S
O101 C100 1.246 . S
C102 O83 1.276 . S
C102 O103 1.246 . S
O103 C102 1.246 . S
H104 C105 0.949 . S
C105 H104 0.949 . S
C105 C106 1.395 . S
C105 C107 1.391 1_554 S
C106 C105 1.395 . S
C106 C109 1.390 . S
C107 C105 1.391 1_556 S
C107 C111 1.387 . S
C107 C112 1.491 . S
H108 C109 0.950 . S
C109 C106 1.390 . S
C109 H108 0.950 . S
C109 C110 1.378 1_554 S
C110 C109 1.378 1_556 S
C110 C111 1.409 . S
C111 C107 1.387 . S
C111 C110 1.409 . S
C111 H113 0.951 . S
C112 C107 1.491 . S
C112 C114 1.382 1_556 S
C112 C116 1.404 . S
H113 C111 0.951 . S
C114 C112 1.382 1_554 S
C114 C115 1.390 . S
C114 H119 0.949 . S
C115 C114 1.390 . S
C115 C120 1.399 1_554 S
C116 C112 1.404 . S
C116 H117 0.950 . S
C116 C118 1.375 . S
H117 C116 0.950 . S
C118 C116 1.375 . S
C118 C120 1.382 . S
C118 H122 0.950 . S
H119 C114 0.949 . S
C120 C115 1.399 1_556 S
C120 C118 1.382 . S
C120 H121 0.952 . S
H121 C120 0.952 . S
H122 C118 0.950 . S
H123 C124 0.949 . S
C124 H123 0.949 . S
C124 C125 1.395 . S
C124 C126 1.391 . S
C125 C124 1.395 . S
C125 C128 1.390 . S
C126 C124 1.391 . S
C126 C130 1.387 1_554 S
C126 C131 1.491 1_554 S
H127 C128 0.950 . S
C128 C125 1.390 . S
C128 H127 0.950 . S
C128 C129 1.378 1_554 S
C129 C128 1.378 1_556 S
C129 C130 1.409 . S
C130 C126 1.387 1_556 S
C130 C129 1.409 . S
C130 H132 0.951 . S
C131 C126 1.491 1_556 S
C131 C133 1.382 1_556 S
C131 C135 1.404 . S
H132 C130 0.951 . S
C133 C131 1.382 1_554 S
C133 C134 1.390 . S
C133 H138 0.949 . S
C134 C133 1.390 . S
C134 C139 1.399 1_554 S
C135 C131 1.404 . S
C135 H136 0.950 . S
C135 C137 1.375 . S
H136 C135 0.950 . S
C137 C135 1.375 . S
C137 C139 1.382 . S
C137 H141 0.950 . S
H138 C133 0.949 . S
C139 C134 1.399 1_556 S
C139 C137 1.382 . S
C139 H140 0.952 . S
H140 C139 0.952 . S
H141 C137 0.950 . S
H142 C143 0.949 . S
C143 H142 0.949 . S
C143 C144 1.395 . S
C143 C145 1.391 1_556 S
C144 C143 1.395 . S
C144 C147 1.390 1_556 S
C145 C143 1.391 1_554 S
C145 C149 1.387 . S
C145 C150 1.491 . S
H146 C147 0.950 . S
C147 C144 1.390 1_554 S
C147 H146 0.950 . S
C147 C148 1.378 . S
C148 C147 1.378 . S
C148 C149 1.409 . S
C149 C145 1.387 . S
C149 C148 1.409 . S
C149 H151 0.951 . S
C150 C145 1.491 . S
C150 C152 1.382 . S
C150 C154 1.404 . S
H151 C149 0.951 . S
C152 C150 1.382 . S
C152 C153 1.390 . S
C152 H157 0.949 1_554 S
C153 C152 1.390 . S
C153 C158 1.399 . S
C154 C150 1.404 . S
C154 H155 0.950 . S
C154 C156 1.375 . S
H155 C154 0.950 . S
C156 C154 1.375 . S
C156 C158 1.382 . S
C156 H160 0.950 . S
H157 C152 0.949 1_556 S
C158 C153 1.399 . S
C158 C156 1.382 . S
C158 H159 0.952 . S
H159 C158 0.952 . S
H160 C156 0.950 . S
H161 C162 0.949 . S
C162 H161 0.949 . S
C162 C163 1.395 . S
C162 C164 1.391 1_554 S
C163 C162 1.395 . S
C163 C166 1.390 . S
C164 C162 1.391 1_556 S
C164 C168 1.387 . S
C164 C169 1.491 . S
H165 C166 0.950 . S
C166 C163 1.390 . S
C166 H165 0.950 . S
C166 C167 1.378 1_554 S
C167 C166 1.378 1_556 S
C167 C168 1.409 . S
C168 C164 1.387 . S
C168 C167 1.409 . S
C168 H170 0.951 . S
C169 C164 1.491 . S
C169 C171 1.382 1_556 S
C169 C173 1.404 . S
H170 C168 0.951 . S
C171 C169 1.382 1_554 S
C171 C172 1.390 . S
C171 H176 0.949 . S
C172 C171 1.390 . S
C172 C177 1.399 1_554 S
C173 C169 1.404 . S
C173 H174 0.950 . S
C173 C175 1.375 . S
H174 C173 0.950 . S
C175 C173 1.375 . S
C175 C177 1.382 . S
C175 H179 0.950 . S
H176 C171 0.949 . S
C177 C172 1.399 1_556 S
C177 C175 1.382 . S
C177 H178 0.952 . S
H178 C177 0.952 . S
H179 C175 0.950 . S
H180 C181 0.949 . S
C181 H180 0.949 . S
C181 C182 1.395 . S
C181 C183 1.391 . S
C182 C181 1.395 . S
C182 C185 1.390 . S
C183 C181 1.391 . S
C183 C187 1.387 . S
C183 C188 1.491 . S
H184 C185 0.950 . S
C185 C182 1.390 . S
C185 H184 0.950 . S
C185 C186 1.378 . S
C186 C185 1.378 . S
C186 C187 1.409 . S
C187 C183 1.387 . S
C187 C186 1.409 . S
C187 H189 0.951 . S
C188 C183 1.491 . S
C188 C190 1.382 . S
C188 C192 1.404 . S
H189 C187 0.951 . S
C190 C188 1.382 . S
C190 C191 1.390 . S
C190 H195 0.949 . S
C191 C190 1.390 . S
C191 C196 1.399 . S
C192 C188 1.404 . S
C192 H193 0.950 . S
C192 C194 1.375 . S
H193 C192 0.950 . S
C194 C192 1.375 . S
C194 C196 1.382 . S
C194 H198 0.950 . S
H195 C190 0.949 . S
C196 C191 1.399 . S
C196 C194 1.382 . S
C196 H197 0.952 . S
H197 C196 0.952 . S
H198 C194 0.950 . S
H199 C200 0.949 . S
C200 H199 0.949 . S
C200 C201 1.395 . S
C200 C202 1.391 . S
C201 C200 1.395 . S
C201 C204 1.390 . S
C202 C200 1.391 . S
C202 C206 1.387 . S
C202 C207 1.491 . S
H203 C204 0.950 . S
C204 C201 1.390 . S
C204 H203 0.950 . S
C204 C205 1.378 . S
C205 C204 1.378 . S
C205 C206 1.409 . S
C206 C202 1.387 . S
C206 C205 1.409 . S
C206 H208 0.951 . S
C207 C202 1.491 . S
C207 C209 1.382 . S
C207 C211 1.404 . S
H208 C206 0.951 . S
C209 C207 1.382 . S
C209 C210 1.390 . S
C209 H214 0.949 . S
C210 C209 1.390 . S
C210 C215 1.399 . S
C211 C207 1.404 . S
C211 H212 0.950 . S
C211 C213 1.375 . S
H212 C211 0.950 . S
C213 C211 1.375 . S
C213 C215 1.382 . S
C213 H217 0.950 . S
H214 C209 0.949 . S
C215 C210 1.399 . S
C215 C213 1.382 . S
C215 H216 0.952 . S
H216 C215 0.952 . S
H217 C213 0.950 . S
H218 C219 0.949 . S
C219 H218 0.949 . S
C219 C220 1.395 . S
C219 C221 1.391 . S
C220 C219 1.395 . S
C220 C223 1.390 . S
C221 C219 1.391 . S
C221 C225 1.387 . S
C221 C226 1.491 . S
H222 C223 0.950 . S
C223 C220 1.390 . S
C223 H222 0.950 . S
C223 C224 1.378 . S
C224 C223 1.378 . S
C224 C225 1.409 . S
C225 C221 1.387 . S
C225 C224 1.409 . S
C225 H227 0.951 . S
C226 C221 1.491 . S
C226 C228 1.382 . S
C226 C230 1.404 . S
H227 C225 0.951 . S
C228 C226 1.382 . S
C228 C229 1.390 . S
C228 H233 0.949 . S
C229 C228 1.390 . S
C229 C234 1.399 . S
C230 C226 1.404 . S
C230 H231 0.950 . S
C230 C232 1.375 . S
H231 C230 0.950 . S
C232 C230 1.375 . S
C232 C234 1.382 . S
C232 H236 0.950 . S
H233 C228 0.949 . S
C234 C229 1.399 . S
C234 C232 1.382 . S
C234 H235 0.952 . S
H235 C234 0.952 . S
H236 C232 0.950 . S
H237 C238 0.949 . S
C238 H237 0.949 . S
C238 C239 1.395 . S
C238 C240 1.391 . S
C239 C238 1.395 . S
C239 C242 1.390 . S
C240 C238 1.391 . S
C240 C244 1.387 . S
C240 C245 1.491 . S
H241 C242 0.950 . S
C242 C239 1.390 . S
C242 H241 0.950 . S
C242 C243 1.378 . S
C243 C242 1.378 . S
C243 C244 1.409 . S
C244 C240 1.387 . S
C244 C243 1.409 . S
C244 H246 0.951 . S
C245 C240 1.491 . S
C245 C247 1.382 . S
C245 C249 1.404 . S
H246 C244 0.951 . S
C247 C245 1.382 . S
C247 C248 1.390 . S
C247 H252 0.949 . S
C248 C247 1.390 . S
C248 C253 1.399 . S
C249 C245 1.404 . S
C249 H250 0.950 . S
C249 C251 1.375 . S
H250 C249 0.950 . S
C251 C249 1.375 . S
C251 C253 1.382 . S
C251 H255 0.950 . S
H252 C247 0.949 . S
C253 C248 1.399 . S
C253 C251 1.382 . S
C253 H254 0.952 . S
H254 C253 0.952 . S
H255 C251 0.950 . S
C256 C257 1.369 . S
C256 C258 1.419 . S
C256 H260 0.930 . S
C257 C256 1.369 . S
C257 C266 1.429 . S
C258 C256 1.419 . S
C258 C259 1.363 . S
C258 H261 0.929 . S
C259 C258 1.363 . S
C259 C265 1.428 . S
H260 C256 0.930 . S
H261 C258 0.929 . S
S262 N263 1.613 . S
S262 N264 1.610 . S
N263 S262 1.613 . S
N263 C266 1.350 . S
N264 S262 1.610 . S
N264 C265 1.351 . S
C265 C259 1.428 . S
C265 N264 1.351 . S
C265 C266 1.434 . S
C266 C257 1.429 . S
C266 N263 1.350 . S
C266 C265 1.434 . S
C267 C268 1.369 1_556 S
C267 C269 1.419 . S
C267 H271 0.930 . S
C268 C267 1.369 1_554 S
C268 C277 1.429 . S
C269 C267 1.419 . S
C269 C270 1.363 1_556 S
C269 H272 0.929 . S
C270 C269 1.363 1_554 S
C270 C276 1.428 . S
H271 C267 0.930 . S
H272 C269 0.929 . S
S273 N274 1.613 . S
S273 N275 1.610 . S
N274 S273 1.613 . S
N274 C277 1.350 . S
N275 S273 1.610 . S
N275 C276 1.351 . S
C276 C270 1.428 . S
C276 N275 1.351 . S
C276 C277 1.434 . S
C277 C268 1.429 . S
C277 N274 1.350 . S
C277 C276 1.434 . S
C278 C279 1.369 . S
C278 C280 1.419 . S
C278 H282 0.930 . S
C279 C278 1.369 . S
C279 C288 1.429 1_554 S
C280 C278 1.419 . S
C280 C281 1.363 . S
C280 H283 0.929 . S
C281 C280 1.363 . S
C281 C287 1.428 1_554 S
H282 C278 0.930 . S
H283 C280 0.929 . S
S284 N285 1.613 . S
S284 N286 1.610 . S
N285 S284 1.613 . S
N285 C288 1.350 . S
N286 S284 1.610 . S
N286 C287 1.351 . S
C287 C281 1.428 1_556 S
C287 N286 1.351 . S
C287 C288 1.434 . S
C288 C279 1.429 1_556 S
C288 N285 1.350 . S
C288 C287 1.434 . S
C289 C290 1.369 . S
C289 C291 1.419 . S
C289 H293 0.930 . S
C290 C289 1.369 . S
C290 C299 1.429 . S
C291 C289 1.419 . S
C291 C292 1.363 . S
C291 H294 0.929 . S
C292 C291 1.363 . S
C292 C298 1.428 . S
H293 C289 0.930 . S
H294 C291 0.929 . S
S295 N296 1.613 . S
S295 N297 1.610 . S
N296 S295 1.613 . S
N296 C299 1.350 . S
N297 S295 1.610 . S
N297 C298 1.351 . S
C298 C292 1.428 . S
C298 N297 1.351 . S
C298 C299 1.434 . S
C299 C290 1.429 . S
C299 N296 1.350 . S
C299 C298 1.434 . S
C300 C301 1.369 . S
C300 C302 1.419 . S
C300 H304 0.930 . S
C301 C300 1.369 . S
C301 C310 1.429 . S
C302 C300 1.419 . S
C302 C303 1.363 . S
C302 H305 0.929 . S
C303 C302 1.363 . S
C303 C309 1.428 . S
H304 C300 0.930 . S
H305 C302 0.929 . S
S306 N307 1.613 . S
S306 N308 1.610 . S
N307 S306 1.613 . S
N307 C310 1.350 . S
N308 S306 1.610 . S
N308 C309 1.351 . S
C309 C303 1.428 . S
C309 N308 1.351 . S
C309 C310 1.434 . S
C310 C301 1.429 . S
C310 N307 1.350 . S
C310 C309 1.434 . S
C311 C312 1.369 . S
C311 C313 1.419 . S
C311 H315 0.930 . S
C312 C311 1.369 . S
C312 C321 1.429 . S
C313 C311 1.419 . S
C313 C314 1.363 . S
C313 H316 0.929 . S
C314 C313 1.363 . S
C314 C320 1.428 . S
H315 C311 0.930 . S
H316 C313 0.929 . S
S317 N318 1.613 . S
S317 N319 1.610 . S
N318 S317 1.613 . S
N318 C321 1.350 . S
N319 S317 1.610 . S
N319 C320 1.351 . S
C320 C314 1.428 . S
C320 N319 1.351 . S
C320 C321 1.434 . S
C321 C312 1.429 . S
C321 N318 1.350 . S
C321 C320 1.434 . S
C322 C323 1.369 . S
C322 C324 1.419 . S
C322 H326 0.930 . S
C323 C322 1.369 . S
C323 C332 1.429 . S
C324 C322 1.419 . S
C324 C325 1.363 . S
C324 H327 0.929 . S
C325 C324 1.363 . S
C325 C331 1.428 . S
H326 C322 0.930 . S
H327 C324 0.929 . S
S328 N329 1.613 . S
S328 N330 1.610 . S
N329 S328 1.613 . S
N329 C332 1.350 . S
N330 S328 1.610 . S
N330 C331 1.351 . S
C331 C325 1.428 . S
C331 N330 1.351 . S
C331 C332 1.434 . S
C332 C323 1.429 . S
C332 N329 1.350 . S
C332 C331 1.434 . S
C333 C334 1.369 . S
C333 C335 1.419 . S
C333 H337 0.930 . S
C334 C333 1.369 . S
C334 C343 1.429 . S
C335 C333 1.419 . S
C335 C336 1.363 . S
C335 H338 0.929 . S
C336 C335 1.363 . S
C336 C342 1.428 . S
H337 C333 0.930 . S
H338 C335 0.929 . S
S339 N340 1.613 . S
S339 N341 1.610 . S
N340 S339 1.613 . S
N340 C343 1.350 . S
N341 S339 1.610 . S
N341 C342 1.351 . S
C342 C336 1.428 . S
C342 N341 1.351 . S
C342 C343 1.434 . S
C343 C334 1.429 . S
C343 N340 1.350 . S
C343 C342 1.434 . S
C344 C345 1.369 . S
C344 C346 1.419 . S
C344 H348 0.930 . S
C345 C344 1.369 . S
C345 C354 1.429 . S
C346 C344 1.419 . S
C346 C347 1.363 . S
C346 H349 0.929 . S
C347 C346 1.363 . S
C347 C353 1.428 . S
H348 C344 0.930 . S
H349 C346 0.929 . S
S350 N351 1.613 . S
S350 N352 1.610 . S
N351 S350 1.613 . S
N351 C354 1.350 . S
N352 S350 1.610 . S
N352 C353 1.351 . S
C353 C347 1.428 . S
C353 N352 1.351 . S
C353 C354 1.434 . S
C354 C345 1.429 . S
C354 N351 1.350 . S
C354 C353 1.434 . S
C355 C356 1.369 . S
C355 C357 1.419 . S
C355 H359 0.930 . S
C356 C355 1.369 . S
C356 C365 1.429 . S
C357 C355 1.419 . S
C357 C358 1.363 . S
C357 H360 0.929 . S
C358 C357 1.363 . S
C358 C364 1.428 . S
H359 C355 0.930 . S
H360 C357 0.929 . S
S361 N362 1.613 . S
S361 N363 1.610 . S
N362 S361 1.613 . S
N362 C365 1.350 . S
N363 S361 1.610 . S
N363 C364 1.351 . S
C364 C358 1.428 . S
C364 N363 1.351 . S
C364 C365 1.434 . S
C365 C356 1.429 . S
C365 N362 1.350 . S
C365 C364 1.434 . S
C366 C367 1.369 . S
C366 C368 1.419 . S
C366 H370 0.930 1_655 S
C367 C366 1.369 . S
C367 C376 1.429 . S
C368 C366 1.419 . S
C368 C369 1.363 . S
C368 H371 0.929 . S
C369 C368 1.363 . S
C369 C375 1.428 . S
H370 C366 0.930 1_455 S
H371 C368 0.929 . S
S372 N373 1.613 . S
S372 N374 1.610 . S
N373 S372 1.613 . S
N373 C376 1.350 . S
N374 S372 1.610 . S
N374 C375 1.351 . S
C375 C369 1.428 . S
C375 N374 1.351 . S
C375 C376 1.434 . S
C376 C367 1.429 . S
C376 N373 1.350 . S
C376 C375 1.434 . S
C377 C378 1.369 . S
C377 C379 1.419 . S
C377 H381 0.930 . S
C378 C377 1.369 . S
C378 C387 1.429 . S
C379 C377 1.419 . S
C379 C380 1.363 . S
C379 H382 0.929 . S
C380 C379 1.363 . S
C380 C386 1.428 . S
H381 C377 0.930 . S
H382 C379 0.929 . S
S383 N384 1.613 . S
S383 N385 1.610 . S
N384 S383 1.613 . S
N384 C387 1.350 1_545 S
N385 S383 1.610 . S
N385 C386 1.351 1_545 S
C386 C380 1.428 . S
C386 N385 1.351 1_565 S
C386 C387 1.434 . S
C387 C378 1.429 . S
C387 N384 1.350 1_565 S
C387 C386 1.434 . S
C388 C389 1.369 . S
C388 C390 1.419 . S
C388 H392 0.930 . S
C389 C388 1.369 . S
C389 C398 1.429 . S
C390 C388 1.419 . S
C390 C391 1.363 . S
C390 H393 0.929 . S
C391 C390 1.363 . S
C391 C397 1.428 . S
H392 C388 0.930 . S
H393 C390 0.929 . S
S394 N395 1.613 . S
S394 N396 1.610 . S
N395 S394 1.613 . S
N395 C398 1.350 . S
N396 S394 1.610 . S
N396 C397 1.351 . S
C397 C391 1.428 . S
C397 N396 1.351 . S
C397 C398 1.434 . S
C398 C389 1.429 . S
C398 N395 1.350 . S
C398 C397 1.434 . S
C399 C400 1.369 . S
C399 C401 1.419 . S
C399 H403 0.930 . S
C400 C399 1.369 . S
C400 C409 1.429 . S
C401 C399 1.419 . S
C401 C402 1.363 . S
C401 H404 0.929 . S
C402 C401 1.363 . S
C402 C408 1.428 . S
H403 C399 0.930 . S
H404 C401 0.929 . S
S405 N406 1.613 . S
S405 N407 1.610 . S
N406 S405 1.613 . S
N406 C409 1.350 1_655 S
N407 S405 1.610 . S
N407 C408 1.351 1_655 S
C408 C402 1.428 . S
C408 N407 1.351 1_455 S
C408 C409 1.434 . S
C409 C400 1.429 . S
C409 N406 1.350 1_455 S
C409 C408 1.434 . S
C410 C411 1.369 . S
C410 C412 1.419 . S
C410 H414 0.930 . S
C411 C410 1.369 . S
C411 C420 1.429 . S
C412 C410 1.419 . S
C412 C413 1.363 . S
C412 H415 0.929 . S
C413 C412 1.363 . S
C413 C419 1.428 . S
H414 C410 0.930 . S
H415 C412 0.929 . S
S416 N417 1.613 . S
S416 N418 1.610 . S
N417 S416 1.613 . S
N417 C420 1.350 . S
N418 S416 1.610 . S
N418 C419 1.351 . S
C419 C413 1.428 . S
C419 N418 1.351 . S
C419 C420 1.434 . S
C420 C411 1.429 . S
C420 N417 1.350 . S
C420 C419 1.434 . S
C421 C422 1.369 . S
C421 C423 1.419 . S
C421 H425 0.930 . S
C422 C421 1.369 . S
C422 C431 1.429 . S
C423 C421 1.419 . S
C423 C424 1.363 . S
C423 H426 0.929 . S
C424 C423 1.363 . S
C424 C430 1.428 . S
H425 C421 0.930 . S
H426 C423 0.929 . S
S427 N428 1.613 . S
S427 N429 1.610 . S
N428 S427 1.613 . S
N428 C431 1.350 . S
N429 S427 1.610 . S
N429 C430 1.351 . S
C430 C424 1.428 . S
C430 N429 1.351 . S
C430 C431 1.434 . S
C431 C422 1.429 . S
C431 N428 1.350 . S
C431 C430 1.434 . S
C432 C433 1.369 . S
C432 C434 1.419 . S
C432 H436 0.930 . S
C433 C432 1.369 . S
C433 C442 1.429 . S
C434 C432 1.419 . S
C434 C435 1.363 . S
C434 H437 0.929 . S
C435 C434 1.363 . S
C435 C441 1.428 . S
H436 C432 0.930 . S
H437 C434 0.929 . S
S438 N439 1.613 . S
S438 N440 1.610 . S
N439 S438 1.613 . S
N439 C442 1.350 . S
N440 S438 1.610 . S
N440 C441 1.351 . S
C441 C435 1.428 . S
C441 N440 1.351 . S
C441 C442 1.434 . S
C442 C433 1.429 . S
C442 N439 1.350 . S
C442 C441 1.434 . S
C443 C444 1.369 . S
C443 C445 1.419 . S
C443 H447 0.930 . S
C444 C443 1.369 . S
C444 C453 1.429 . S
C445 C443 1.419 . S
C445 C446 1.363 . S
C445 H448 0.929 . S
C446 C445 1.363 . S
C446 C452 1.428 . S
H447 C443 0.930 . S
H448 C445 0.929 . S
S449 N450 1.613 . S
S449 N451 1.610 . S
N450 S449 1.613 . S
N450 C453 1.350 . S
N451 S449 1.610 . S
N451 C452 1.351 . S
C452 C446 1.428 . S
C452 N451 1.351 . S
C452 C453 1.434 . S
C453 C444 1.429 . S
C453 N450 1.350 . S
C453 C452 1.434 . S
C454 C455 1.369 . S
C454 C456 1.419 . S
C454 H458 0.930 . S
C455 C454 1.369 . S
C455 C464 1.429 . S
C456 C454 1.419 . S
C456 C457 1.363 . S
C456 H459 0.929 . S
C457 C456 1.363 . S
C457 C463 1.428 . S
H458 C454 0.930 . S
H459 C456 0.929 . S
S460 N461 1.613 . S
S460 N462 1.610 . S
N461 S460 1.613 . S
N461 C464 1.350 . S
N462 S460 1.610 . S
N462 C463 1.351 . S
C463 C457 1.428 . S
C463 N462 1.351 . S
C463 C464 1.434 . S
C464 C455 1.429 . S
C464 N461 1.350 . S
C464 C463 1.434 . S
C465 C466 1.369 . S
C465 C467 1.419 . S
C465 H469 0.930 . S
C466 C465 1.369 . S
C466 C475 1.429 . S
C467 C465 1.419 . S
C467 C468 1.363 . S
C467 H470 0.929 . S
C468 C467 1.363 . S
C468 C474 1.428 . S
H469 C465 0.930 . S
H470 C467 0.929 . S
S471 N472 1.613 . S
S471 N473 1.610 . S
N472 S471 1.613 . S
N472 C475 1.350 . S
N473 S471 1.610 . S
N473 C474 1.351 . S
C474 C468 1.428 . S
C474 N473 1.351 . S
C474 C475 1.434 . S
C475 C466 1.429 . S
C475 N472 1.350 . S
C475 C474 1.434 . S
C476 C477 1.369 . S
C476 C478 1.419 . S
C476 H480 0.930 . S
C477 C476 1.369 . S
C477 C486 1.429 . S
C478 C476 1.419 . S
C478 C479 1.363 . S
C478 H481 0.929 . S
C479 C478 1.363 . S
C479 C485 1.428 . S
H480 C476 0.930 . S
H481 C478 0.929 . S
S482 N483 1.613 . S
S482 N484 1.610 . S
N483 S482 1.613 . S
N483 C486 1.350 . S
N484 S482 1.610 . S
N484 C485 1.351 . S
C485 C479 1.428 . S
C485 N484 1.351 . S
C485 C486 1.434 . S
C486 C477 1.429 . S
C486 N483 1.350 . S
C486 C485 1.434 . S
C487 C488 1.369 . S
C487 C489 1.419 . S
C487 H491 0.930 . S
C488 C487 1.369 . S
C488 C497 1.429 . S
C489 C487 1.419 . S
C489 C490 1.363 . S
C489 H492 0.929 . S
C490 C489 1.363 . S
C490 C496 1.428 . S
H491 C487 0.930 . S
H492 C489 0.929 . S
S493 N494 1.613 . S
S493 N495 1.610 . S
N494 S493 1.613 . S
N494 C497 1.350 . S
N495 S493 1.610 . S
N495 C496 1.351 . S
C496 C490 1.428 . S
C496 N495 1.351 . S
C496 C497 1.434 . S
C497 C488 1.429 . S
C497 N494 1.350 . S
C497 C496 1.434 . S
C498 C499 1.369 . S
C498 C500 1.419 . S
C498 H502 0.930 . S
C499 C498 1.369 . S
C499 C508 1.429 . S
C500 C498 1.419 . S
C500 C501 1.363 . S
C500 H503 0.929 . S
C501 C500 1.363 . S
C501 C507 1.428 . S
H502 C498 0.930 . S
H503 C500 0.929 . S
S504 N505 1.613 . S
S504 N506 1.610 . S
N505 S504 1.613 . S
N505 C508 1.350 . S
N506 S504 1.610 . S
N506 C507 1.351 . S
C507 C501 1.428 . S
C507 N506 1.351 . S
C507 C508 1.434 . S
C508 C499 1.429 . S
C508 N505 1.350 . S
C508 C507 1.434 . S
C509 C510 1.369 . S
C509 C511 1.419 . S
C509 H513 0.930 . S
C510 C509 1.369 . S
C510 C519 1.429 . S
C511 C509 1.419 . S
C511 C512 1.363 . S
C511 H514 0.929 . S
C512 C511 1.363 . S
C512 C518 1.428 . S
H513 C509 0.930 . S
H514 C511 0.929 . S
S515 N516 1.613 . S
S515 N517 1.610 . S
N516 S515 1.613 . S
N516 C519 1.350 . S
N517 S515 1.610 . S
N517 C518 1.351 . S
C518 C512 1.428 . S
C518 N517 1.351 . S
C518 C519 1.434 . S
C519 C510 1.429 . S
C519 N516 1.350 . S
C519 C518 1.434 . S
C257 C45 1.556 . S
C259 C115 1.504 . S
C268 C30 1.568 . S
C270 C134 1.501 . S
C279 C39 1.560 . S
C281 C153 1.377 . S
C292 C172 1.495 . S
C290 C34 1.570 . S
C301 C97 1.557 . S
C303 C191 1.500 . S
C314 C210 1.500 . S
C312 C82 1.569 . S
C325 C229 1.379 . S
C323 C91 1.559 . S
C336 C248 1.497 . S
C334 C86 1.570 . S
C347 C220 1.574 . S
C345 C26 1.548 . S
C358 C243 1.523 . S
C356 C36 1.471 . S
C369 C186 1.593 . S
C367 C32 1.543 . S
C380 C205 1.521 . S
C378 C42 1.468 . S
C389 C18 1.668 . S
C391 C201 1.733 . S
C402 C224 1.656 . S
C400 C50 1.587 . S
C411 C4 1.679 . S
C413 C239 1.720 . S
C422 C48 1.601 . S
C424 C182 1.646 . S
C435 C144 1.579 . S
C433 C78 1.541 . S
C444 C88 1.469 . S
C446 C167 1.522 . S
C457 C110 1.594 . S
C455 C84 1.544 . S
C468 C129 1.520 . S
C466 C94 1.469 . S
C479 C125 1.728 . S
C477 C70 1.674 . S
C490 C148 1.653 . S
C488 C102 1.592 . S
C499 C56 1.670 . S
C501 C163 1.724 . S
C510 C100 1.597 . S
C512 C106 1.649 . S
