# Generated by pormake.
# Topology zzz, (3,6)-cn, num edge types: 1
# Building blocks:
#     Node 0, Type 0, BuildingBlock: MIDCAF_clean_linker_0, # of connection points: 3
#     Node 1, Type 0, BuildingBlock: MIDCAF_clean_linker_0, # of connection points: 3
#     Node 2, Type 0, BuildingBlock: MIDCAF_clean_linker_0, # of connection points: 3
#     Node 3, Type 0, BuildingBlock: MIDCAF_clean_linker_0, # of connection points: 3
#     Node 4, Type 0, BuildingBlock: MIDCAF_clean_linker_0, # of connection points: 3
#     Node 5, Type 0, BuildingBlock: MIDCAF_clean_linker_0, # of connection points: 3
#     Node 6, Type 0, BuildingBlock: MIDCAF_clean_linker_0, # of connection points: 3
#     Node 7, Type 0, BuildingBlock: MIDCAF_clean_linker_0, # of connection points: 3
#     Node 8, Type 1, BuildingBlock: GEDQOX_clean_sbu_0, # of connection points: 6
#     Node 9, Type 1, BuildingBlock: GEDQOX_clean_sbu_0, # of connection points: 6
#     Node 10, Type 1, BuildingBlock: GEDQOX_clean_sbu_0, # of connection points: 6
#     Node 11, Type 1, BuildingBlock: GEDQOX_clean_sbu_0, # of connection points: 6
#     Edge 12, Type (0, 1), BuildingBlock: KIFKEQ_clean_linker_1, # of connection points: 2
#     Edge 13, Type (0, 1), BuildingBlock: KIFKEQ_clean_linker_1, # of connection points: 2
#     Edge 14, Type (0, 1), BuildingBlock: KIFKEQ_clean_linker_1, # of connection points: 2
#     Edge 15, Type (0, 1), BuildingBlock: KIFKEQ_clean_linker_1, # of connection points: 2
#     Edge 16, Type (0, 1), BuildingBlock: KIFKEQ_clean_linker_1, # of connection points: 2
#     Edge 17, Type (0, 1), BuildingBlock: KIFKEQ_clean_linker_1, # of connection points: 2
#     Edge 18, Type (0, 1), BuildingBlock: KIFKEQ_clean_linker_1, # of connection points: 2
#     Edge 19, Type (0, 1), BuildingBlock: KIFKEQ_clean_linker_1, # of connection points: 2
#     Edge 20, Type (0, 1), BuildingBlock: KIFKEQ_clean_linker_1, # of connection points: 2
#     Edge 21, Type (0, 1), BuildingBlock: KIFKEQ_clean_linker_1, # of connection points: 2
#     Edge 22, Type (0, 1), BuildingBlock: KIFKEQ_clean_linker_1, # of connection points: 2
#     Edge 23, Type (0, 1), BuildingBlock: KIFKEQ_clean_linker_1, # of connection points: 2
#     Edge 24, Type (0, 1), BuildingBlock: KIFKEQ_clean_linker_1, # of connection points: 2
#     Edge 25, Type (0, 1), BuildingBlock: KIFKEQ_clean_linker_1, # of connection points: 2
#     Edge 26, Type (0, 1), BuildingBlock: KIFKEQ_clean_linker_1, # of connection points: 2
#     Edge 27, Type (0, 1), BuildingBlock: KIFKEQ_clean_linker_1, # of connection points: 2
#     Edge 28, Type (0, 1), BuildingBlock: KIFKEQ_clean_linker_1, # of connection points: 2
#     Edge 29, Type (0, 1), BuildingBlock: KIFKEQ_clean_linker_1, # of connection points: 2
#     Edge 30, Type (0, 1), BuildingBlock: KIFKEQ_clean_linker_1, # of connection points: 2
#     Edge 31, Type (0, 1), BuildingBlock: KIFKEQ_clean_linker_1, # of connection points: 2
#     Edge 32, Type (0, 1), BuildingBlock: KIFKEQ_clean_linker_1, # of connection points: 2
#     Edge 33, Type (0, 1), BuildingBlock: KIFKEQ_clean_linker_1, # of connection points: 2
#     Edge 34, Type (0, 1), BuildingBlock: KIFKEQ_clean_linker_1, # of connection points: 2
#     Edge 35, Type (0, 1), BuildingBlock: KIFKEQ_clean_linker_1, # of connection points: 2
# Relax obj value: 0.310
# Max RMSD: 0.265
# Mean RMSD: 0.199
data_MOF--net-zzz--node1-GEDQOX_clean_sbu_0--node2-MIDCAF_clean_linker_0--edge1-KIFKEQ_clean_linker_1
_symmetry_space_group_name_H-M    P1
_symmetry_Int_Tables_number       1
_symmetry_cell_setting            triclinic
loop_
_symmetry_equiv_pos_as_xyz
'x, y, z'
_cell_length_a     63.174158
_cell_length_b     59.017183
_cell_length_c     22.208144
_cell_angle_alpha  81.961005
_cell_angle_beta   91.061586
_cell_angle_gamma 102.074
loop_
_atom_site_label
_atom_site_type_symbol
_atom_site_fract_x
_atom_site_fract_y
_atom_site_fract_z
_atom_type_partial_charge
C0 C 0.8149 0.45455 0.32292 0.0
C1 C 0.80756 0.47108 0.35239 0.0
C2 C 0.78905 0.4791 0.33013 0.0
C3 C 0.77845 0.47114 0.27865 0.0
H4 H 0.7281 0.47875 0.15569 0.0
H5 H 0.69434 0.48871 0.11819 0.0
H6 H 0.69041 0.44028 0.98721 0.0
H7 H 0.72464 0.43106 0.02308 0.0
H8 H 0.77902 0.43456 0.97542 0.0
H9 H 0.80704 0.42803 0.90938 0.0
H10 H 0.84196 0.40509 0.06748 0.0
H11 H 0.81402 0.41124 0.13312 0.0
H12 H 0.8109 0.4343 0.2497 0.0
H13 H 0.82927 0.44824 0.33814 0.0
H14 H 0.78289 0.4917 0.35215 0.0
H15 H 0.76453 0.47802 0.26182 0.0
N16 N 0.7577 0.4536 0.16978 0.0
N17 N 0.76143 0.43792 0.07975 0.0
N18 N 0.78796 0.43787 0.1547 0.0
C19 C 0.74982 0.4482 0.11484 0.0
C20 C 0.78052 0.43264 0.09961 0.0
C21 C 0.77676 0.44831 0.19012 0.0
C22 C 0.7291 0.45408 0.0925 0.0
C23 C 0.72004 0.47021 0.11889 0.0
C24 C 0.70058 0.47585 0.0975 0.0
C25 C 0.6895 0.46526 0.0497 0.0
C26 C 0.6986 0.44911 0.02335 0.0
C27 C 0.7182 0.44369 0.04425 0.0
C28 C 0.79453 0.42388 0.05954 0.0
C29 C 0.79236 0.42747 0.996 0.0
C30 C 0.80845 0.42384 0.95816 0.0
C31 C 0.82686 0.41636 0.9832 0.0
C32 C 0.82796 0.41074 0.04661 0.0
C33 C 0.812 0.41451 0.08434 0.0
C34 C 0.78629 0.45515 0.24817 0.0
C35 C 0.80441 0.44669 0.27165 0.0
C36 C 0.94391 0.76289 0.39784 0.0
C37 C 0.95826 0.76329 0.44704 0.0
C38 C 0.97248 0.7476 0.45278 0.0
C39 C 0.9735 0.7333 0.40775 0.0
H40 H 0.95204 0.65638 0.2635 0.0
H41 H 0.95795 0.62229 0.2195 0.0
H42 H 0.02293 0.65916 0.16709 0.0
H43 H 0.01666 0.69315 0.20938 0.0
H44 H 0.00136 0.73981 0.09777 0.0
H45 H 0.01006 0.77237 0.01494 0.0
H46 H 0.96346 0.80584 0.08736 0.0
H47 H 0.95478 0.77354 0.1698 0.0
H48 H 0.93479 0.75022 0.31354 0.0
H49 H 0.93287 0.77477 0.39119 0.0
H50 H 0.98354 0.74716 0.49056 0.0
H51 H 0.9857 0.72275 0.41092 0.0
N52 N 0.97151 0.70518 0.29902 0.0
N53 N 0.98003 0.71568 0.19453 0.0
N54 N 0.96738 0.74164 0.24765 0.0
C55 C 0.97834 0.69983 0.24564 0.0
C56 C 0.97443 0.73652 0.1951 0.0
C57 C 0.96598 0.72634 0.29972 0.0
C58 C 0.98397 0.67723 0.24019 0.0
C59 C 0.96783 0.65671 0.24483 0.0
C60 C 0.9712 0.6373 0.21911 0.0
C61 C 0.99075 0.63821 0.18841 0.0
C62 C 0.00749 0.65807 0.18891 0.0
C63 C 0.00406 0.67741 0.21405 0.0
C64 C 0.97755 0.75428 0.14058 0.0
C65 C 0.99269 0.75391 0.09526 0.0
C66 C 0.99774 0.77253 0.04807 0.0
C67 C 0.98746 0.79157 0.04496 0.0
C68 C 0.97147 0.79126 0.08834 0.0
C69 C 0.96664 0.77286 0.13583 0.0
C70 C 0.96041 0.7346 0.35613 0.0
C71 C 0.94501 0.74878 0.35305 0.0
C72 C 0.6995 0.98323 0.27268 0.0
C73 C 0.70874 0.97853 0.3298 0.0
C74 C 0.73141 0.9845 0.33526 0.0
C75 C 0.74449 0.99529 0.28443 0.0
H76 H 0.80388 0.99493 0.17499 0.0
H77 H 0.83941 0.98936 0.14563 0.0
H78 H 0.8385 0.03829 0.98211 0.0
H79 H 0.80369 0.04429 0.01152 0.0
H80 H 0.75488 0.04799 0.95933 0.0
H81 H 0.73021 0.06203 0.88374 0.0
H82 H 0.69124 0.07507 0.02767 0.0
H83 H 0.71564 0.06094 0.10296 0.0
H84 H 0.70459 0.99801 0.17962 0.0
H85 H 0.6821 0.97918 0.26703 0.0
H86 H 0.73894 0.98105 0.37882 0.0
H87 H 0.76186 1.00013 0.28979 0.0
N88 N 0.76833 0.01177 0.16338 0.0
N89 N 0.76888 0.03702 0.0712 0.0
N90 N 0.73828 0.02822 0.1343 0.0
C91 C 0.77896 0.02327 0.11133 0.0
C92 C 0.74867 0.03978 0.08273 0.0
C93 C 0.74785 0.0142 0.17476 0.0
C94 C 0.80084 0.02009 0.09582 0.0
C95 C 0.81135 0.00462 0.13302 0.0
C96 C 0.83165 1.0013 0.11602 0.0
C97 C 0.84185 0.01346 0.06164 0.0
C98 C 0.83134 0.02895 0.02482 0.0
C99 C 0.8112 0.03227 0.04168 0.0
C100 C 0.73693 0.05299 0.03704 0.0
C101 C 0.74141 0.05452 0.97467 0.0
C102 C 0.72731 0.06252 0.93142 0.0
C103 C 0.70877 0.06949 0.94991 0.0
C104 C 0.70548 0.07 0.01203 0.0
C105 C 0.71935 0.06167 0.0552 0.0
C106 C 0.735 1.00073 0.22796 0.0
C107 C 0.71242 0.99426 0.22262 0.0
C108 C 0.61461 0.73586 0.20113 0.0
C109 C 0.61072 0.74704 0.14304 0.0
C110 C 0.6103 0.77097 0.13581 0.0
C111 C 0.61064 0.78255 0.18664 0.0
H112 H 0.60225 0.85075 0.32435 0.0
H113 H 0.58784 0.88277 0.26718 0.0
H114 H 0.52799 0.83443 0.24158 0.0
H115 H 0.54227 0.8026 0.30012 0.0
H116 H 0.55028 0.75523 0.45905 0.0
H117 H 0.54095 0.72068 0.53679 0.0
H118 H 0.60746 0.71316 0.53905 0.0
H119 H 0.61663 0.74719 0.46072 0.0
H120 H 0.61604 0.7376 0.29648 0.0
H121 H 0.61511 0.71745 0.20843 0.0
H122 H 0.60788 0.78021 0.09137 0.0
H123 H 0.60838 0.80042 0.17979 0.0
N124 N 0.59538 0.79889 0.28945 0.0
N125 N 0.57997 0.79023 0.38774 0.0
N126 N 0.6006 0.76562 0.3532 0.0
C127 C 0.58381 0.80461 0.33371 0.0
C128 C 0.58898 0.77096 0.39813 0.0
C129 C 0.60374 0.77936 0.2985 0.0
C130 C 0.57313 0.82444 0.31764 0.0
C131 C 0.58566 0.84729 0.30894 0.0
C132 C 0.57748 0.86552 0.27591 0.0
C133 C 0.55688 0.86099 0.24964 0.0
C134 C 0.54393 0.83834 0.26125 0.0
C135 C 0.55196 0.82023 0.29532 0.0
C136 C 0.58417 0.75386 0.45402 0.0
C137 C 0.56298 0.74657 0.47752 0.0
C138 C 0.55762 0.72672 0.52151 0.0
C139 C 0.57348 0.71421 0.54369 0.0
C140 C 0.59495 0.72253 0.52312 0.0
C141 C 0.60018 0.74198 0.47828 0.0
C142 C 0.61134 0.77034 0.24557 0.0
C143 C 0.615 0.74744 0.25193 0.0
C144 C 0.21387 0.54462 0.35601 0.0
C145 C 0.22019 0.52688 0.32928 0.0
C146 C 0.24004 0.52071 0.34555 0.0
C147 C 0.2526 0.53102 0.39127 0.0
H148 H 0.3188 0.55435 0.48414 0.0
H149 H 0.35275 0.54456 0.52105 0.0
H150 H 0.32686 0.52985 0.7048 0.0
H151 H 0.29368 0.54132 0.66791 0.0
H152 H 0.2545 0.56862 0.69226 0.0
H153 H 0.22694 0.57581 0.75878 0.0
H154 H 0.19266 0.60055 0.60137 0.0
H155 H 0.22016 0.59373 0.53526 0.0
H156 H 0.22052 0.56806 0.42186 0.0
H157 H 0.19881 0.54996 0.34339 0.0
H158 H 0.24525 0.50711 0.32526 0.0
H159 H 0.26725 0.52506 0.40535 0.0
N160 N 0.27525 0.55025 0.49601 0.0
N161 N 0.27187 0.56535 0.58727 0.0
N162 N 0.24525 0.56615 0.51289 0.0
C163 C 0.28327 0.55525 0.55112 0.0
C164 C 0.25294 0.57114 0.56791 0.0
C165 C 0.25612 0.55565 0.4767 0.0
C166 C 0.30368 0.54871 0.57317 0.0
C167 C 0.32048 0.54907 0.53241 0.0
C168 C 0.33991 0.54325 0.55372 0.0
C169 C 0.34277 0.53632 0.61621 0.0
C170 C 0.32566 0.53563 0.65666 0.0
C171 C 0.30649 0.54204 0.63549 0.0
C172 C 0.23927 0.58014 0.60845 0.0
C173 C 0.24142 0.57623 0.67195 0.0
C174 C 0.22559 0.58025 0.71006 0.0
C175 C 0.20747 0.58845 0.68532 0.0
C176 C 0.20644 0.59435 0.622 0.0
C177 C 0.22213 0.5902 0.58401 0.0
C178 C 0.24549 0.54772 0.42092 0.0
C179 C 0.22639 0.55499 0.40098 0.0
C180 C 0.09679 0.24796 0.25224 0.0
C181 C 0.08112 0.24741 0.20634 0.0
C182 C 0.06678 0.26289 0.20449 0.0
C183 C 0.06705 0.27718 0.25021 0.0
H184 H 0.0418 0.33821 0.38283 0.0
H185 H 0.03687 0.37266 0.42698 0.0
H186 H 0.09802 0.37487 0.51881 0.0
H187 H 0.10248 0.34028 0.47586 0.0
H188 H 0.04459 0.27198 0.5598 0.0
H189 H 0.0335 0.23875 0.64019 0.0
H190 H 0.07551 0.20118 0.56241 0.0
H191 H 0.08635 0.23402 0.48213 0.0
H192 H 0.10815 0.2607 0.33501 0.0
H193 H 0.10794 0.23619 0.25592 0.0
H194 H 0.05468 0.26314 0.16937 0.0
H195 H 0.05481 0.28758 0.25037 0.0
N196 N 0.07627 0.30674 0.36063 0.0
N197 N 0.0696 0.29614 0.46609 0.0
N198 N 0.0749 0.26808 0.40692 0.0
C199 C 0.07256 0.31269 0.41624 0.0
C200 C 0.07066 0.2738 0.46161 0.0
C201 C 0.07762 0.28421 0.35639 0.0
C202 C 0.07262 0.33689 0.42552 0.0
C203 C 0.0545 0.34671 0.41053 0.0
C204 C 0.05167 0.36633 0.43616 0.0
C205 C 0.06688 0.37627 0.47738 0.0
C206 C 0.08578 0.36737 0.48833 0.0
C207 C 0.08852 0.3478 0.46306 0.0
C208 C 0.0662 0.25545 0.51464 0.0
C209 C 0.05172 0.25677 0.56068 0.0
C210 C 0.0453 0.23779 0.60636 0.0
C211 C 0.05367 0.21751 0.60727 0.0
C212 C 0.06898 0.21672 0.563 0.0
C213 C 0.07507 0.23544 0.51688 0.0
C214 C 0.08159 0.2761 0.29853 0.0
C215 C 0.09695 0.26205 0.29777 0.0
C216 C 0.31443 0.98267 0.33151 0.0
C217 C 0.31087 1.00223 0.29191 0.0
C218 C 0.29444 0.01345 0.30651 0.0
C219 C 0.28245 0.00581 0.36078 0.0
H220 H 0.21528 0.98601 0.46625 0.0
H221 H 0.18102 0.99449 0.49769 0.0
H222 H 0.20815 0.00704 0.67266 0.0
H223 H 0.24209 0.99801 0.64217 0.0
H224 H 0.27824 0.96715 0.68952 0.0
H225 H 0.30417 0.95675 0.76591 0.0
H226 H 0.33807 0.9319 0.62991 0.0
H227 H 0.31221 0.94201 0.55391 0.0
H228 H 0.30637 0.96049 0.41579 0.0
H229 H 0.3271 0.97375 0.32225 0.0
H230 H 0.29116 0.02844 0.27663 0.0
H231 H 0.27046 0.01532 0.37187 0.0
N232 N 0.25871 0.98796 0.47735 0.0
N233 N 0.26226 0.97322 0.58029 0.0
N234 N 0.28764 0.96999 0.50842 0.0
C235 C 0.2512 0.98394 0.53584 0.0
C236 C 0.2804 0.96598 0.56676 0.0
C237 C 0.27705 0.98101 0.4635 0.0
C238 C 0.23127 0.99123 0.5519 0.0
C239 C 0.21397 0.99084 0.51112 0.0
C240 C 0.19441 0.99559 0.52909 0.0
C241 C 0.19207 1.00141 0.58748 0.0
C242 C 0.20964 1.00273 0.62728 0.0
C243 C 0.22898 0.99744 0.60991 0.0
C244 C 0.29342 0.95585 0.61534 0.0
C245 C 0.2909 0.95893 0.67625 0.0
C246 C 0.30576 0.95302 0.72 0.0
C247 C 0.32326 0.94372 0.70376 0.0
C248 C 0.32469 0.93888 0.64401 0.0
C249 C 0.30998 0.94493 0.60024 0.0
C250 C 0.28687 0.98697 0.40168 0.0
C251 C 0.30261 0.97516 0.38559 0.0
C252 C 0.42696 0.27744 0.5068 0.0
C253 C 0.43328 0.26537 0.56105 0.0
C254 C 0.43417 0.2417 0.56288 0.0
C255 C 0.43143 0.23122 0.50982 0.0
H256 H 0.42751 0.165 0.3474 0.0
H257 H 0.44213 0.1318 0.39705 0.0
H258 H 0.50356 0.17827 0.41728 0.0
H259 H 0.48905 0.21125 0.36639 0.0
H260 H 0.46473 0.25013 0.18709 0.0
H261 H 0.47064 0.28287 0.10407 0.0
H262 H 0.42467 0.31398 0.18804 0.0
H263 H 0.41831 0.2813 0.26885 0.0
H264 H 0.42096 0.27745 0.41196 0.0
H265 H 0.42611 0.29571 0.50352 0.0
H266 H 0.43847 0.23175 0.60436 0.0
H267 H 0.43385 0.2135 0.51195 0.0
N268 N 0.43921 0.21621 0.39654 0.0
N269 N 0.44763 0.22558 0.29204 0.0
N270 N 0.43189 0.25048 0.34265 0.0
C271 C 0.44691 0.21069 0.34517 0.0
C272 C 0.43959 0.24543 0.29047 0.0
C273 C 0.43168 0.23607 0.39588 0.0
C274 C 0.45735 0.19048 0.35193 0.0
C275 C 0.44447 0.16779 0.35943 0.0
C276 C 0.45277 0.14889 0.3883 0.0
C277 C 0.47389 0.15257 0.41143 0.0
C278 C 0.48722 0.17501 0.39995 0.0
C279 C 0.47903 0.19379 0.37015 0.0
C280 C 0.44121 0.26313 0.2351 0.0
C281 C 0.45557 0.26372 0.18701 0.0
C282 C 0.45911 0.28263 0.13973 0.0
C283 C 0.44828 0.30126 0.13942 0.0
C284 C 0.43316 0.29995 0.18603 0.0
C285 C 0.42965 0.28118 0.23297 0.0
C286 C 0.42778 0.24428 0.45396 0.0
C287 C 0.42416 0.26697 0.45386 0.0
Nd288 Nd 0.00389 0.99994 0.77395 0.0
Nd289 Nd 0.03023 0.00984 0.88324 0.0
C290 C 0.9764 0.9788 0.69792 0.0
C291 C 0.97465 0.95619 0.67489 0.0
C292 C 0.95456 0.94389 0.65728 0.0
C293 C 0.95277 0.92198 0.63775 0.0
C294 C 0.97109 0.912 0.63529 0.0
C295 C 0.99118 0.92441 0.65324 0.0
C296 C 0.99292 0.9462 0.67307 0.0
C297 C 0.04768 0.01158 0.75084 0.0
C298 C 0.02021 0.95695 0.86229 0.0
C299 C 0.05793 0.03092 0.95882 0.0
C300 C 0.0599 0.05356 0.98186 0.0
C301 C 0.08029 0.06639 0.99545 0.0
C302 C 0.08232 0.08842 0.01443 0.0
C303 C 0.06394 0.09797 0.02037 0.0
C304 C 0.04353 0.08502 0.00659 0.0
C305 C 0.04154 0.06312 0.98721 0.0
C306 C 0.98642 0.99814 0.9066 0.0
C307 C 0.01407 0.05287 0.79456 0.0
O308 O 0.97219 0.97746 0.7559 0.0
O309 O 0.99344 0.99502 0.67994 0.0
O310 O 0.03345 0.01907 0.71491 0.0
O311 O 0.03865 0.99809 0.79638 0.0
O312 O 0.00552 0.96357 0.82478 0.0
O313 O 0.03467 0.97237 0.88694 0.0
O314 O 0.062 0.03225 0.90078 0.0
O315 O 0.04088 0.01475 0.9771 0.0
O316 O 0.00074 0.99091 0.9427 0.0
O317 O 0.99542 0.0116 0.86093 0.0
O318 O 0.02865 0.04618 0.83234 0.0
O319 O 0.99959 0.0375 0.76978 0.0
H320 H 0.94024 0.95118 0.65887 0.0
H321 H 0.9371 0.91297 0.62383 0.0
H322 H 0.00553 0.9171 0.65284 0.0
H323 H 0.00854 0.95518 0.68753 0.0
H324 H 0.09467 0.05944 0.99102 0.0
H325 H 0.09824 0.09787 0.02511 0.0
H326 H 0.0291 0.09201 0.00982 0.0
H327 H 0.02566 0.05375 0.97579 0.0
Nd328 Nd 0.52348 0.98857 0.79376 0.0
Nd329 Nd 0.50923 0.02424 0.86122 0.0
C330 C 0.53571 0.95369 0.7509 0.0
C331 C 0.55334 0.95236 0.70956 0.0
C332 C 0.56728 0.93701 0.72722 0.0
C333 C 0.58477 0.93653 0.6899 0.0
C334 C 0.58851 0.95128 0.634 0.0
C335 C 0.57443 0.96652 0.61631 0.0
C336 C 0.55711 0.96715 0.65377 0.0
C337 C 0.51571 0.02709 0.71901 0.0
C338 C 0.56005 0.03322 0.81804 0.0
C339 C 0.49606 0.05843 0.90468 0.0
C340 C 0.47576 0.05932 0.93583 0.0
C341 C 0.456 0.05729 0.90462 0.0
C342 C 0.43657 0.05522 0.93607 0.0
C343 C 0.43638 0.05502 0.99949 0.0
C344 C 0.45626 0.05806 0.03016 0.0
C345 C 0.47571 0.06029 0.99865 0.0
C346 C 0.51638 0.98521 0.93527 0.0
C347 C 0.47268 0.98011 0.83636 0.0
O348 O 0.54172 0.95994 0.80388 0.0
O349 O 0.52019 0.96353 0.72693 0.0
O350 O 0.53109 0.01645 0.7098 0.0
O351 O 0.50434 0.0167 0.76482 0.0
O352 O 0.55652 0.01168 0.80487 0.0
O353 O 0.54437 0.04263 0.83549 0.0
O354 O 0.49474 0.05567 0.84716 0.0
O355 O 0.50849 0.04579 0.93507 0.0
O356 O 0.50083 0.99574 0.94359 0.0
O357 O 0.52813 0.99586 0.8904 0.0
O358 O 0.47622 1.00213 0.84551 0.0
O359 O 0.48852 0.97008 0.82301 0.0
H360 H 0.56476 0.92556 0.77021 0.0
H361 H 0.59529 0.92453 0.70455 0.0
H362 H 0.57708 0.97835 0.57395 0.0
H363 H 0.54686 0.97945 0.6393 0.0
H364 H 0.45542 0.05664 0.85611 0.0
H365 H 0.42164 0.05339 0.91075 0.0
H366 H 0.45679 0.05775 0.07903 0.0
H367 H 0.49067 0.06189 0.02388 0.0
Nd368 Nd 0.50676 0.51603 0.8907 0.0
Nd369 Nd 0.52825 0.49507 0.78743 0.0
C370 C 0.49036 0.54381 0.95015 0.0
C371 C 0.50184 0.56686 0.96358 0.0
C372 C 0.49133 0.5857 0.95956 0.0
C373 C 0.50317 0.60822 0.96474 0.0
C374 C 0.52572 0.61218 0.97373 0.0
C375 C 0.53604 0.59312 0.97835 0.0
C376 C 0.52428 0.57079 0.97288 0.0
C377 C 0.54538 0.50331 0.91847 0.0
C378 C 0.53691 0.55158 0.77831 0.0
C379 C 0.55067 0.46962 0.73864 0.0
C380 C 0.54194 0.44612 0.72268 0.0
C381 C 0.55292 0.42785 0.73912 0.0
C382 C 0.54239 0.40461 0.73638 0.0
C383 C 0.52066 0.39948 0.71828 0.0
C384 C 0.51009 0.41787 0.69961 0.0
C385 C 0.5206 0.44092 0.70168 0.0
C386 C 0.48593 0.49779 0.75861 0.0
C387 C 0.49495 0.46056 0.89214 0.0
O388 O 0.48669 0.54261 0.89238 0.0
O389 O 0.49763 0.52588 0.97775 0.0
O390 O 0.52995 0.50109 0.958 0.0
O391 O 0.54071 0.51334 0.8675 0.0
O392 O 0.52454 0.54873 0.82752 0.0
O393 O 0.54187 0.53385 0.75506 0.0
O394 O 0.55067 0.47061 0.79726 0.0
O395 O 0.54361 0.48694 0.70641 0.0
O396 O 0.49822 0.49008 0.72365 0.0
O397 O 0.49643 0.50311 0.80468 0.0
O398 O 0.5122 0.46358 0.85657 0.0
O399 O 0.48693 0.47841 0.90482 0.0
H400 H 0.47411 0.58309 0.95096 0.0
H401 H 0.49477 0.62257 0.96047 0.0
H402 H 0.55327 0.5954 0.98645 0.0
H403 H 0.53289 0.55664 0.97476 0.0
H404 H 0.56923 0.43145 0.75657 0.0
H405 H 0.55088 0.39065 0.75069 0.0
H406 H 0.49349 0.4144 0.68425 0.0
H407 H 0.51161 0.45456 0.68934 0.0
Nd408 Nd 0.00842 0.52158 0.78456 0.0
Nd409 Nd 0.02805 0.48347 0.87223 0.0
C410 C 0.98286 0.54848 0.7316 0.0
C411 C 0.96224 0.54286 0.69973 0.0
C412 C 0.95075 0.56028 0.6789 0.0
C413 C 0.93117 0.55459 0.64824 0.0
C414 C 0.92273 0.53133 0.6389 0.0
C415 C 0.93432 0.51398 0.66018 0.0
C416 C 0.95396 0.51974 0.6898 0.0
C417 C 0.02762 0.49237 0.72822 0.0
C418 C 0.9771 0.46999 0.84057 0.0
C419 C 0.053 0.45434 0.91304 0.0
C420 C 0.07173 0.45893 0.95308 0.0
C421 C 0.08292 0.44144 0.97587 0.0
C422 C 0.10022 0.44637 0.01589 0.0
C423 C 0.1064 0.46881 0.03362 0.0
C424 C 0.0954 0.48632 0.00918 0.0
C425 C 0.07822 0.48139 0.96968 0.0
C426 C 0.01731 0.51581 0.93895 0.0
C427 C 0.05775 0.53607 0.82397 0.0
O428 O 0.9822 0.54105 0.79004 0.0
O429 O 0.99968 0.54454 0.70449 0.0
O430 O 0.02838 0.51418 0.70691 0.0
O431 O 0.016 0.4864 0.77577 0.0
O432 O 0.97911 0.49113 0.80896 0.0
O433 O 0.99358 0.46218 0.86732 0.0
O434 O 0.05553 0.46673 0.85881 0.0
O435 O 0.03427 0.45388 0.93832 0.0
O436 O 0.02496 0.49792 0.96309 0.0
O437 O 0.01542 0.51524 0.88276 0.0
O438 O 0.05689 0.5135 0.84109 0.0
O439 O 0.04049 0.54461 0.80719 0.0
H440 H 0.95696 0.57825 0.68605 0.0
H441 H 0.92255 0.56829 0.63221 0.0
H442 H 0.92845 0.496 0.65262 0.0
H443 H 0.96285 0.50618 0.70441 0.0
H444 H 0.0781 0.424 0.96347 0.0
H445 H 0.10834 0.43251 0.03421 0.0
H446 H 0.09998 0.50388 0.02094 0.0
H447 H 0.06977 0.49512 0.95257 0.0
H448 H 0.15342 0.97079 0.58975 0.0
H449 H 0.18349 0.03899 0.63417 0.0
H450 H 0.11897 0.97454 0.63222 0.0
H451 H 0.14878 0.043 0.67522 0.0
H452 H 0.07176 0.04319 0.66422 0.0
H453 H 0.10751 0.04216 0.62439 0.0
H454 H 0.10883 0.97977 0.75018 0.0
H455 H 0.07349 0.98113 0.7913 0.0
C456 C 0.15252 0.9867 0.60781 0.0
C457 C 0.17098 0.00464 0.60863 0.0
C458 C 0.13293 0.98876 0.63239 0.0
C459 C 0.13138 0.00901 0.65702 0.0
C460 C 0.14966 0.02726 0.65635 0.0
C461 C 0.16942 0.02496 0.63302 0.0
C462 C 0.07987 0.02947 0.68383 0.0
C463 C 0.06992 0.01223 0.73067 0.0
C464 C 0.10024 0.02891 0.66115 0.0
C465 C 0.11071 0.0108 0.68408 0.0
C466 C 0.10095 0.99382 0.73165 0.0
C467 C 0.08083 0.99468 0.75528 0.0
H468 H 0.48853 0.15582 0.52607 0.0
H469 H 0.47434 0.10749 0.39462 0.0
H470 H 0.49813 0.12503 0.60055 0.0
H471 H 0.48452 0.0767 0.46902 0.0
H472 H 0.5321 0.04219 0.60452 0.0
H473 H 0.52174 0.07201 0.52847 0.0
H474 H 0.47535 0.08346 0.65504 0.0
H475 H 0.48513 0.05298 0.73059 0.0
C476 C 0.48776 0.13866 0.51293 0.0
C477 C 0.48089 0.13404 0.45448 0.0
C478 C 0.49306 0.12104 0.55566 0.0
C479 C 0.49202 0.09855 0.54046 0.0
C480 C 0.4855 0.09396 0.48169 0.0
C481 C 0.4797 0.1115 0.43927 0.0
C482 C 0.51965 0.05102 0.61611 0.0
C483 C 0.50952 0.04538 0.6737 0.0
C484 C 0.51368 0.06798 0.57247 0.0
C485 C 0.49779 0.08 0.58601 0.0
C486 C 0.48774 0.0745 0.64369 0.0
C487 C 0.49337 0.05713 0.68689 0.0
H488 H 0.36249 0.54249 0.72624 0.0
H489 H 0.3703 0.51546 0.55856 0.0
H490 H 0.39533 0.53103 0.76447 0.0
H491 H 0.40441 0.5065 0.59403 0.0
H492 H 0.45656 0.47403 0.68734 0.0
H493 H 0.42126 0.48182 0.65665 0.0
H494 H 0.43229 0.54038 0.75923 0.0
H495 H 0.4668 0.53125 0.79288 0.0
C496 C 0.37114 0.53413 0.69728 0.0
C497 C 0.36345 0.52989 0.63912 0.0
C498 C 0.39036 0.52794 0.71892 0.0
C499 C 0.40282 0.51784 0.68254 0.0
C500 C 0.39522 0.5138 0.62417 0.0
C501 C 0.37573 0.51946 0.60312 0.0
C502 C 0.45119 0.48836 0.70377 0.0
C503 C 0.46421 0.50195 0.74279 0.0
C504 C 0.43105 0.49305 0.6857 0.0
C505 C 0.42376 0.51192 0.70482 0.0
C506 C 0.43694 0.5254 0.74436 0.0
C507 C 0.45682 0.52027 0.76365 0.0
H508 H 0.07367 0.37827 0.59847 0.0
H509 H 0.04905 0.41449 0.4386 0.0
H510 H 0.06539 0.40665 0.6591 0.0
H511 H 0.04013 0.44264 0.49999 0.0
H512 H 0.04752 0.50202 0.61713 0.0
H513 H 0.05763 0.47448 0.55621 0.0
H514 H 0.03373 0.41757 0.69877 0.0
H515 H 0.02384 0.44523 0.75996 0.0
C516 C 0.06666 0.39243 0.57605 0.0
C517 C 0.06221 0.3942 0.51341 0.0
C518 C 0.06165 0.40854 0.6111 0.0
C519 C 0.05205 0.4269 0.58454 0.0
C520 C 0.04771 0.42882 0.5218 0.0
C521 C 0.05265 0.4126 0.48668 0.0
C522 C 0.04454 0.48363 0.63557 0.0
C523 C 0.03486 0.47575 0.69325 0.0
C524 C 0.05018 0.46783 0.60046 0.0
C525 C 0.04639 0.44379 0.62238 0.0
C526 C 0.03706 0.43599 0.68069 0.0
C527 C 0.03132 0.4518 0.7157 0.0
H528 H 0.8758 0.04678 0.01043 0.0
H529 H 0.85636 0.97239 0.06873 0.0
H530 H 0.90974 0.04114 0.97114 0.0
H531 H 0.89064 0.96681 0.02992 0.0
H532 H 0.96578 0.97414 0.01034 0.0
H533 H 0.93045 0.97662 0.04898 0.0
H534 H 0.92151 0.02315 0.88668 0.0
H535 H 0.95685 0.02081 0.84835 0.0
C536 C 0.87873 0.02918 0.01466 0.0
C537 C 0.86324 0.01001 0.04222 0.0
C538 C 0.89818 0.02596 0.99204 0.0
C539 C 0.90274 1.00349 0.99668 0.0
C540 C 0.88759 0.98434 0.02584 0.0
C541 C 0.86801 0.98756 0.04828 0.0
C542 C 0.95614 0.98468 0.9827 0.0
C543 C 0.96412 0.99746 0.92664 0.0
C544 C 0.93589 0.98604 0.00473 0.0
C545 C 0.92333 1.0003 0.97121 0.0
C546 C 0.931 0.01234 0.91404 0.0
C547 C 0.95116 0.01088 0.8919 0.0
H548 H 0.55546 0.90603 0.26364 0.0
H549 H 0.54341 0.85684 0.13405 0.0
H550 H 0.54556 0.93621 0.18702 0.0
H551 H 0.534 0.88707 0.05729 0.0
H552 H 0.54667 0.9588 0.92498 0.0
H553 H 0.55606 0.92838 1.00162 0.0
H554 H 0.50925 0.94049 0.12594 0.0
H555 H 0.49938 0.97027 0.04899 0.0
C556 C 0.55064 0.9017 0.21888 0.0
C557 C 0.54998 0.87909 0.20486 0.0
C558 C 0.54497 0.9189 0.17518 0.0
C559 C 0.5391 0.91393 0.11629 0.0
C560 C 0.53858 0.89136 0.10224 0.0
C561 C 0.54377 0.87405 0.14626 0.0
C562 C 0.53829 0.95481 0.96846 0.0
C563 C 0.52222 0.96679 0.98085 0.0
C564 C 0.54366 0.93746 0.01225 0.0
C565 C 0.53339 0.93218 0.06965 0.0
C566 C 0.51749 0.94434 0.08219 0.0
C567 C 0.5118 0.96129 0.03803 0.0
H568 H 0.67409 0.46939 0.93277 0.0
H569 H 0.65693 0.47356 0.11784 0.0
H570 H 0.63908 0.47709 0.89877 0.0
H571 H 0.62275 0.4829 0.08336 0.0
H572 H 0.55443 0.47548 0.01883 0.0
H573 H 0.58894 0.4654 0.04782 0.0
H574 H 0.61821 0.50654 0.88226 0.0
H575 H 0.58316 0.51571 0.85214 0.0
C576 C 0.6629 0.47197 0.96627 0.0
C577 C 0.6684 0.47076 0.02819 0.0
C578 C 0.64291 0.47672 0.94657 0.0
C579 C 0.62797 0.48055 0.98824 0.0
C580 C 0.63362 0.47963 0.04999 0.0
C581 C 0.65346 0.47465 0.06972 0.0
C582 C 0.56823 0.48226 0.9885 0.0
C583 C 0.56621 0.49651 0.93353 0.0
C584 C 0.58809 0.47664 0.0053 0.0
C585 C 0.60654 0.48544 0.96793 0.0
C586 C 0.60435 0.4993 0.91203 0.0
C587 C 0.58433 0.50467 0.89484 0.0
H588 H 0.9775 0.5904 0.21644 0.0
H589 H 0.00902 0.64413 0.07527 0.0
H590 H 0.98164 0.56047 0.15428 0.0
H591 H 0.01382 0.61435 0.01442 0.0
H592 H 0.00303 0.55589 0.8958 0.0
H593 H 0.99461 0.58492 0.95543 0.0
H594 H 0.01066 0.54401 0.12027 0.0
H595 H 0.0186 0.51505 0.061 0.0
C596 C 0.98531 0.59583 0.17224 0.0
C597 C 0.99317 0.61967 0.15132 0.0
C598 C 0.98782 0.57869 0.13674 0.0
C599 C 0.99814 0.58498 0.07932 0.0
C600 C 0.00563 0.60884 0.05805 0.0
C601 C 0.00317 0.62593 0.0935 0.0
C602 C 0.00454 0.55309 0.94479 0.0
C603 C 0.01143 0.53323 0.97376 0.0
C604 C 0.99986 0.56974 0.97897 0.0
C605 C 0.00193 0.5668 0.04278 0.0
C606 C 0.00855 0.5467 0.07147 0.0
C607 C 0.01326 0.53017 0.03738 0.0
H608 H 0.07707 0.19073 0.67858 0.0
H609 H 0.01155 0.19622 0.63158 0.0
H610 H 0.06376 0.15197 0.73475 0.0
H611 H 0.99807 0.15734 0.68854 0.0
H612 H 0.03553 0.08748 0.85533 0.0
H613 H 0.04195 0.12942 0.82268 0.0
H614 H 0.00143 0.11766 0.66651 0.0
H615 H 0.9947 0.07548 0.69969 0.0
C616 C 0.05977 0.1838 0.68157 0.0
C617 C 0.04533 0.19631 0.65066 0.0
C618 C 0.05211 0.16169 0.71397 0.0
C619 C 0.02987 0.15161 0.71572 0.0
C620 C 0.0153 0.16466 0.68749 0.0
C621 C 0.02298 0.18693 0.65547 0.0
C622 C 0.0277 0.09381 0.81446 0.0
C623 C 0.01494 0.07818 0.7793 0.0
C624 C 0.03139 0.11784 0.79588 0.0
C625 C 0.02245 0.12676 0.74168 0.0
C626 C 0.00844 0.11126 0.70873 0.0
C627 C 0.00467 0.08712 0.72748 0.0
H628 H 0.34274 0.97677 0.77177 0.0
H629 H 0.3461 0.90867 0.72739 0.0
H630 H 0.37757 0.97975 0.82011 0.0
H631 H 0.38106 0.91123 0.77794 0.0
H632 H 0.4397 0.98468 0.90711 0.0
H633 H 0.40123 0.96925 0.89496 0.0
H634 H 0.41626 0.93241 0.75126 0.0
H635 H 0.45474 0.94677 0.76645 0.0
C636 C 0.35056 0.96198 0.77451 0.0
C637 C 0.34176 0.94258 0.74531 0.0
C638 C 0.37065 0.96365 0.80247 0.0
C639 C 0.38238 0.94582 0.8025 0.0
C640 C 0.37272 0.92552 0.7776 0.0
C641 C 0.35266 0.92397 0.74896 0.0
C642 C 0.43471 0.97276 0.87408 0.0
C643 C 0.45008 0.96715 0.83704 0.0
C644 C 0.41267 0.96403 0.86679 0.0
C645 C 0.40551 0.95005 0.82103 0.0
C646 C 0.42106 0.94299 0.78725 0.0
C647 C 0.44317 0.95131 0.79562 0.0
H648 H 0.41911 0.30073 0.60585 0.0
H649 H 0.46945 0.26073 0.62683 0.0
H650 H 0.44055 0.32956 0.66287 0.0
H651 H 0.49034 0.2889 0.68654 0.0
H652 H 0.53309 0.36487 0.6673 0.0
H653 H 0.51039 0.3276 0.65009 0.0
H654 H 0.45838 0.34196 0.7528 0.0
H655 H 0.48109 0.37951 0.76872 0.0
C656 C 0.43443 0.2977 0.62428 0.0
C657 C 0.44273 0.2787 0.61059 0.0
C658 C 0.44667 0.31413 0.65756 0.0
C659 C 0.4674 0.31177 0.6782 0.0
C660 C 0.47465 0.29146 0.67011 0.0
C661 C 0.46247 0.27512 0.63653 0.0
C662 C 0.51702 0.35973 0.68746 0.0
C663 C 0.50866 0.37514 0.7183 0.0
C664 C 0.50399 0.33833 0.67792 0.0
C665 C 0.48243 0.33191 0.6995 0.0
C666 C 0.47474 0.34659 0.73459 0.0
C667 C 0.48772 0.36804 0.74374 0.0
H668 H 0.18115 0.62033 0.68211 0.0
H669 H 0.1895 0.5532 0.77299 0.0
H670 H 0.14534 0.61376 0.72936 0.0
H671 H 0.15394 0.54635 0.81864 0.0
H672 H 0.07336 0.57152 0.73349 0.0
H673 H 0.11136 0.58969 0.7128 0.0
H674 H 0.12872 0.55389 0.88419 0.0
H675 H 0.09089 0.53481 0.90259 0.0
C676 C 0.1755 0.60438 0.71306 0.0
C677 C 0.18811 0.58723 0.72355 0.0
C678 C 0.15494 0.60055 0.7399 0.0
C679 C 0.14653 0.57941 0.77738 0.0
C680 C 0.15985 0.56304 0.79097 0.0
C681 C 0.18038 0.56695 0.76462 0.0
C682 C 0.0853 0.5681 0.76731 0.0
C683 C 0.07936 0.55153 0.81904 0.0
C684 C 0.10711 0.57856 0.75569 0.0
C685 C 0.12327 0.57289 0.79621 0.0
C686 C 0.11685 0.55812 0.85103 0.0
C687 C 0.09517 0.5473 0.86187 0.0
H688 H 0.02888 0.815 0.01874 0.0
H689 H 0.96235 0.81644 0.97367 0.0
H690 H 0.04042 0.85413 0.96179 0.0
H691 H 0.97372 0.85561 0.91808 0.0
H692 H 0.04077 0.93462 0.95471 0.0
H693 H 0.03561 0.89245 0.98562 0.0
H694 H 0.99394 0.88031 0.83179 0.0
H695 H 0.99869 0.92227 0.8017 0.0
C696 C 0.01681 0.82344 0.99527 0.0
C697 C 0.99472 0.81286 1.00086 0.0
C698 C 0.02339 0.84589 0.96327 0.0
C699 C 0.00797 0.858 0.93606 0.0
C700 C 0.98602 0.84667 0.93815 0.0
C701 C 0.97946 0.82433 0.97033 0.0
C702 C 0.03082 0.92292 0.92702 0.0
C703 C 0.0198 0.93173 0.8766 0.0
C704 C 0.02797 0.89878 0.94441 0.0
C705 C 0.01417 0.88311 0.91141 0.0
C706 C 0.00436 0.89197 0.85865 0.0
C707 C 0.0071 0.91603 0.84151 0.0
H708 H 0.69141 0.03977 0.87123 0.0
H709 H 0.68524 0.10401 0.93438 0.0
H710 H 0.6566 0.03713 0.82294 0.0
H711 H 0.6505 0.10217 0.88308 0.0
H712 H 0.593 0.03104 0.74342 0.0
H713 H 0.63138 0.04742 0.75443 0.0
H714 H 0.61616 0.07981 0.90687 0.0
H715 H 0.57786 0.06475 0.89263 0.0
C716 C 0.68299 0.05393 0.87242 0.0
C717 C 0.69091 0.07196 0.90707 0.0
C718 C 0.66291 0.05248 0.84447 0.0
C719 C 0.65036 0.06923 0.84979 0.0
C720 C 0.65936 0.08857 0.87944 0.0
C721 C 0.67935 0.08979 0.90837 0.0
C722 C 0.59794 0.04217 0.77823 0.0
C723 C 0.58259 0.04638 0.8178 0.0
C724 C 0.61994 0.05145 0.78489 0.0
C725 C 0.62708 0.06451 0.83255 0.0
C726 C 0.61145 0.07007 0.86925 0.0
C727 C 0.58941 0.06128 0.86149 0.0
H728 H 0.57649 0.75089 0.06892 0.0
H729 H 0.62564 0.71003 0.10929 0.0
H730 H 0.55684 0.72149 0.0105 0.0
H731 H 0.60555 0.68025 0.05177 0.0
H732 H 0.56637 0.63272 0.92848 0.0
H733 H 0.58932 0.66911 0.952 0.0
H734 H 0.5369 0.68165 0.05609 0.0
H735 H 0.5142 0.64512 0.03423 0.0
C736 C 0.58356 0.73607 0.06354 0.0
C737 C 0.60255 0.73267 0.0944 0.0
C738 C 0.57212 0.71909 0.0306 0.0
C739 C 0.57945 0.69842 0.02762 0.0
C740 C 0.59951 0.69604 0.05334 0.0
C741 C 0.61095 0.71301 0.08657 0.0
C742 C 0.55973 0.64329 0.95626 0.0
C743 C 0.53854 0.63583 0.98031 0.0
C744 C 0.57284 0.66416 0.96934 0.0
C745 C 0.56491 0.67816 0.0059 0.0
C746 C 0.54336 0.67138 0.02702 0.0
C747 C 0.53033 0.65042 0.0145 0.0
H748 H 0.8441 0.45151 0.89422 0.0
H749 H 0.85415 0.38545 0.98793 0.0
H750 H 0.87981 0.45913 0.8487 0.0
H751 H 0.89011 0.39288 0.94115 0.0
H752 H 0.94325 0.47012 0.76286 0.0
H753 H 0.90551 0.4513 0.78355 0.0
H754 H 0.92341 0.41859 0.9582 0.0
H755 H 0.96126 0.43674 0.93607 0.0
C756 C 0.85363 0.43817 0.90332 0.0
C757 C 0.84634 0.41797 0.94513 0.0
C758 C 0.87423 0.44254 0.8771 0.0
C759 C 0.88804 0.42674 0.89172 0.0
C760 C 0.88009 0.40565 0.92989 0.0
C761 C 0.85946 0.40134 0.95647 0.0
C762 C 0.93914 0.45856 0.80516 0.0
C763 C 0.95512 0.45523 0.84835 0.0
C764 C 0.91749 0.44781 0.81713 0.0
C765 C 0.91128 0.43379 0.8731 0.0
C766 C 0.92754 0.42911 0.9144 0.0
C767 C 0.94927 0.43961 0.90193 0.0
H768 H 0.04324 0.22146 0.16848 0.0
H769 H 0.11269 0.23051 0.15391 0.0
H770 H 0.03862 0.18716 0.11634 0.0
H771 H 0.1081 0.19542 0.10511 0.0
H772 H 0.09378 0.13834 0.98415 0.0
H773 H 0.09731 0.17631 0.01941 0.0
H774 H 0.04245 0.1479 0.14033 0.0
H775 H 0.0387 0.11025 0.10388 0.0
C776 C 0.05756 0.21641 0.15329 0.0
C777 C 0.07836 0.22877 0.16594 0.0
C778 C 0.0549 0.19642 0.12425 0.0
C779 C 0.07296 0.18813 0.10732 0.0
C780 C 0.09376 0.2012 0.11713 0.0
C781 C 0.09641 0.22127 0.14579 0.0
C782 C 0.08251 0.14025 0.01832 0.0
C783 C 0.06598 0.12125 0.04126 0.0
C784 C 0.08453 0.16203 0.03863 0.0
C785 C 0.07017 0.16534 0.08281 0.0
C786 C 0.05356 0.14629 0.10538 0.0
C787 C 0.05145 0.1246 0.0847 0.0
H788 H 0.32881 0.04808 0.25037 0.0
H789 H 0.32641 0.97769 0.21307 0.0
H790 H 0.35666 0.06302 0.17181 0.0
H791 H 0.35492 0.99241 0.13699 0.0
H792 H 0.39868 0.02447 0.97923 0.0
H793 H 0.36565 0.01412 0.04034 0.0
H794 H 0.39428 0.06293 0.16195 0.0
H795 H 0.42684 0.07432 0.09872 0.0
C796 C 0.33396 0.03582 0.22475 0.0
C797 C 0.32549 0.01165 0.23839 0.0
C798 C 0.35016 0.04436 0.18026 0.0
C799 C 0.35828 0.02893 0.14844 0.0
C800 C 0.34901 0.00488 0.16008 0.0
C801 C 0.33279 0.99638 0.2043 0.0
C802 C 0.39777 0.03347 0.01808 0.0
C803 C 0.41555 0.05018 0.0341 0.0
C804 C 0.37888 0.02728 0.05368 0.0
C805 C 0.37731 0.03749 0.10653 0.0
C806 C 0.39478 0.05482 0.12132 0.0
C807 C 0.41362 0.06112 0.08548 0.0
H808 H 0.42078 0.32828 0.08453 0.0
H809 H 0.48815 0.32356 0.09158 0.0
H810 H 0.4304 0.36607 0.02026 0.0
H811 H 0.49762 0.36102 0.02637 0.0
H812 H 0.5058 0.42006 0.86968 0.0
H813 H 0.4932 0.38072 0.92261 0.0
H814 H 0.45034 0.40631 0.03322 0.0
H815 H 0.46288 0.44594 0.97987 0.0
C816 C 0.43763 0.3352 0.07223 0.0
C817 C 0.45369 0.32283 0.09378 0.0
C818 C 0.44312 0.35688 0.03535 0.0
C819 C 0.46478 0.36665 0.01847 0.0
C820 C 0.48073 0.3539 0.03798 0.0
C821 C 0.47528 0.33231 0.07525 0.0
C822 C 0.49359 0.41741 0.90506 0.0
C823 C 0.48553 0.43633 0.92095 0.0
C824 C 0.48643 0.39478 0.93554 0.0
C825 C 0.47095 0.39039 0.98259 0.0
C826 C 0.46221 0.40909 0.99693 0.0
C827 C 0.46945 0.43183 0.9665 0.0
H828 H 0.22747 0.5195 0.21272 0.0
H829 H 0.17869 0.50502 0.3542 0.0
H830 H 0.20031 0.50241 0.1421 0.0
H831 H 0.15186 0.48742 0.28511 0.0
H832 H 0.1053 0.49292 0.12871 0.0
H833 H 0.13375 0.50415 0.20001 0.0
H834 H 0.17481 0.46728 0.11549 0.0
H835 H 0.14626 0.45666 0.04182 0.0
C836 C 0.21105 0.51223 0.22887 0.0
C837 C 0.205 0.5139 0.28834 0.0
C838 C 0.19553 0.50239 0.18869 0.0
C839 C 0.17382 0.49393 0.2077 0.0
C840 C 0.16827 0.49433 0.26848 0.0
C841 C 0.18363 0.50432 0.30815 0.0
C842 C 0.12041 0.48726 0.12499 0.0
C843 C 0.12358 0.47407 0.07924 0.0
C844 C 0.13667 0.49346 0.16646 0.0
C845 C 0.15655 0.4865 0.16378 0.0
C846 C 0.15972 0.47302 0.11852 0.0
C847 C 0.14332 0.46675 0.07677 0.0
H848 H 0.99493 0.78857 0.49319 0.0
H849 H 0.92541 0.78086 0.49079 0.0
H850 H 0.99816 0.82268 0.54549 0.0
H851 H 0.92872 0.8158 0.53972 0.0
H852 H 0.93984 0.87207 0.66384 0.0
H853 H 0.93697 0.83435 0.62759 0.0
H854 H 0.99536 0.86221 0.52027 0.0
H855 H 0.9984 0.89959 0.55762 0.0
C856 C 0.98027 0.79388 0.50462 0.0
C857 C 0.9599 0.78193 0.48721 0.0
C858 C 0.98216 0.81377 0.53376 0.0
C859 C 0.96375 0.82239 0.54604 0.0
C860 C 0.94329 0.80975 0.53137 0.0
C861 C 0.9414 0.78977 0.5026 0.0
C862 C 0.95203 0.87011 0.63241 0.0
C863 C 0.96935 0.88887 0.61364 0.0
C864 C 0.95039 0.84846 0.61154 0.0
C865 C 0.96595 0.84506 0.57095 0.0
C866 C 0.9833 0.86388 0.55245 0.0
C867 C 0.98502 0.88543 0.57368 0.0
H868 H 0.67381 0.94209 0.33882 0.0
H869 H 0.71054 0.99385 0.44092 0.0
H870 H 0.64572 0.93181 0.41763 0.0
H871 H 0.68236 0.98363 0.51989 0.0
H872 H 0.63061 0.95139 0.66656 0.0
H873 H 0.66155 0.95373 0.5993 0.0
H874 H 0.61917 0.95377 0.44439 0.0
H875 H 0.5884 0.95101 0.51139 0.0
C876 C 0.67602 0.951 0.37866 0.0
C877 C 0.69423 0.96899 0.38334 0.0
C878 C 0.65991 0.94518 0.42367 0.0
C879 C 0.66161 0.9572 0.47446 0.0
C880 C 0.68059 0.97398 0.48142 0.0
C881 C 0.69677 0.97981 0.43625 0.0
C882 C 0.62792 0.95153 0.61821 0.0
C883 C 0.6071 0.95111 0.59418 0.0
C884 C 0.64564 0.95305 0.57971 0.0
C885 C 0.64282 0.95389 0.51653 0.0
C886 C 0.62188 0.95283 0.49289 0.0
C887 C 0.60427 0.95151 0.5312 0.0
H888 H 0.59218 0.69951 0.65035 0.0
H889 H 0.54174 0.67701 0.52482 0.0
H890 H 0.58433 0.66028 0.70969 0.0
H891 H 0.53418 0.63781 0.58337 0.0
H892 H 0.54867 0.56531 0.65883 0.0
H893 H 0.55737 0.60524 0.60483 0.0
H894 H 0.551 0.63248 0.77253 0.0
H895 H 0.54187 0.59256 0.82659 0.0
C896 C 0.57932 0.68622 0.63583 0.0
C897 C 0.56748 0.69131 0.58322 0.0
C898 C 0.57483 0.66384 0.66971 0.0
C899 C 0.55878 0.646 0.65076 0.0
C900 C 0.54677 0.6512 0.59865 0.0
C901 C 0.55095 0.67366 0.56555 0.0
C902 C 0.54937 0.5798 0.68435 0.0
C903 C 0.54456 0.57575 0.74695 0.0
C904 C 0.55418 0.60263 0.65334 0.0
C905 C 0.5547 0.6219 0.68446 0.0
C906 C 0.55073 0.61794 0.74747 0.0
C907 C 0.54548 0.59508 0.7783 0.0
H908 H 0.82616 0.44724 0.4461 0.0
H909 H 0.81763 0.51664 0.37472 0.0
H910 H 0.85142 0.46344 0.52039 0.0
H911 H 0.84212 0.53285 0.45152 0.0
H912 H 0.91123 0.55323 0.5305 0.0
H913 H 0.88025 0.53971 0.46806 0.0
H914 H 0.85717 0.4818 0.60901 0.0
H915 H 0.88856 0.49502 0.67037 0.0
C916 C 0.82943 0.46596 0.44689 0.0
C917 C 0.8201 0.48066 0.40386 0.0
C918 C 0.84374 0.47526 0.49012 0.0
C919 C 0.84898 0.49953 0.49186 0.0
C920 C 0.83874 0.51413 0.45089 0.0
C921 C 0.82447 0.5048 0.40735 0.0
C922 C 0.8993 0.53786 0.54847 0.0
C923 C 0.9024 0.52503 0.60493 0.0
C924 C 0.88147 0.53012 0.51281 0.0
C925 C 0.86626 0.50949 0.53314 0.0
C926 C 0.86879 0.49744 0.59125 0.0
C927 C 0.88672 0.50505 0.62655 0.0
loop_
_geom_bond_atom_site_label_1
_geom_bond_atom_site_label_2
_geom_bond_distance
_geom_bond_site_symmetry_2
_ccdc_geom_bond_type
C0 C1 1.384 . S
C0 H13 0.947 . S
C0 C35 1.382 . S
C1 C0 1.384 . S
C1 C2 1.378 . S
C2 C1 1.378 . S
C2 C3 1.378 . S
C2 H14 0.952 . S
C3 C2 1.378 . S
C3 H15 0.950 . S
C3 C34 1.383 . S
H4 C23 0.947 . S
H5 C24 0.946 . S
H6 C26 0.953 . S
H7 C27 0.945 . S
H8 C29 0.952 . S
H9 C30 0.949 . S
H10 C32 0.950 . S
H11 C33 0.948 1_554 S
H12 C35 0.951 . S
H13 C0 0.947 . S
H14 C2 0.952 . S
H15 C3 0.950 . S
N16 C19 1.382 . S
N16 C21 1.363 . S
N17 C19 1.371 . S
N17 C20 1.372 . S
N18 C20 1.361 . S
N18 C21 1.377 . S
C19 N16 1.382 . S
C19 N17 1.371 . S
C19 C22 1.480 . S
C20 N17 1.372 . S
C20 N18 1.361 . S
C20 C28 1.457 1_554 S
C21 N16 1.363 . S
C21 N18 1.377 . S
C21 C34 1.479 . S
C22 C19 1.480 . S
C22 C23 1.383 . S
C22 C27 1.385 1_554 S
C23 H4 0.947 . S
C23 C22 1.383 . S
C23 C24 1.388 . S
C24 H5 0.946 . S
C24 C23 1.388 . S
C24 C25 1.384 . S
C25 C24 1.384 . S
C25 C26 1.377 1_554 S
C26 H6 0.953 . S
C26 C25 1.377 1_556 S
C26 C27 1.369 . S
C27 H7 0.945 . S
C27 C22 1.385 1_556 S
C27 C26 1.369 . S
C28 C20 1.457 1_556 S
C28 C29 1.372 . S
C28 C33 1.364 . S
C29 H8 0.952 . S
C29 C28 1.372 . S
C29 C30 1.389 . S
C30 H9 0.949 . S
C30 C29 1.389 . S
C30 C31 1.387 . S
C31 C30 1.387 . S
C31 C32 1.372 . S
C32 H10 0.950 . S
C32 C31 1.372 . S
C32 C33 1.379 . S
C33 H11 0.948 1_556 S
C33 C28 1.364 . S
C33 C32 1.379 . S
C34 C3 1.383 . S
C34 C21 1.479 . S
C34 C35 1.398 . S
C35 C0 1.382 . S
C35 H12 0.951 . S
C35 C34 1.398 . S
C36 C37 1.384 . S
C36 H49 0.947 . S
C36 C71 1.382 . S
C37 C36 1.384 . S
C37 C38 1.378 . S
C38 C37 1.378 . S
C38 C39 1.378 . S
C38 H50 0.952 . S
C39 C38 1.378 . S
C39 H51 0.950 . S
C39 C70 1.383 . S
H40 C59 0.947 . S
H41 C60 0.946 . S
H42 C62 0.953 . S
H43 C63 0.945 . S
H44 C65 0.952 . S
H45 C66 0.949 . S
H46 C68 0.950 . S
H47 C69 0.948 1_554 S
H48 C71 0.951 . S
H49 C36 0.947 . S
H50 C38 0.952 . S
H51 C39 0.950 . S
N52 C55 1.382 . S
N52 C57 1.363 . S
N53 C55 1.371 . S
N53 C56 1.372 . S
N54 C56 1.361 . S
N54 C57 1.377 . S
C55 N52 1.382 . S
C55 N53 1.371 . S
C55 C58 1.480 . S
C56 N53 1.372 . S
C56 N54 1.361 . S
C56 C64 1.457 1_554 S
C57 N52 1.363 . S
C57 N54 1.377 . S
C57 C70 1.479 . S
C58 C55 1.480 . S
C58 C59 1.383 . S
C58 C63 1.385 1_554 S
C59 H40 0.947 . S
C59 C58 1.383 . S
C59 C60 1.388 . S
C60 H41 0.946 . S
C60 C59 1.388 . S
C60 C61 1.384 . S
C61 C60 1.384 . S
C61 C62 1.377 1_554 S
C62 H42 0.953 . S
C62 C61 1.377 1_556 S
C62 C63 1.369 . S
C63 H43 0.945 . S
C63 C58 1.385 1_556 S
C63 C62 1.369 . S
C64 C56 1.457 1_556 S
C64 C65 1.372 . S
C64 C69 1.364 . S
C65 H44 0.952 . S
C65 C64 1.372 . S
C65 C66 1.389 . S
C66 H45 0.949 . S
C66 C65 1.389 . S
C66 C67 1.387 . S
C67 C66 1.387 . S
C67 C68 1.372 . S
C68 H46 0.950 . S
C68 C67 1.372 . S
C68 C69 1.379 . S
C69 H47 0.948 1_556 S
C69 C64 1.364 . S
C69 C68 1.379 . S
C70 C39 1.383 . S
C70 C57 1.479 . S
C70 C71 1.398 . S
C71 C36 1.382 . S
C71 H48 0.951 . S
C71 C70 1.398 . S
C72 C73 1.384 1_565 S
C72 H85 0.946 . S
C72 C107 1.383 1_565 S
C73 C72 1.384 1_545 S
C73 C74 1.378 . S
C74 C73 1.378 . S
C74 C75 1.378 . S
C74 H86 0.952 . S
C75 C74 1.378 . S
C75 H87 0.950 . S
C75 C106 1.383 . S
H76 C95 0.947 . S
H77 C96 0.958 . S
H78 C98 0.953 . S
H79 C99 0.945 . S
H80 C101 0.944 1_565 S
H81 C102 0.965 . S
H82 C104 0.950 . S
H83 C105 0.948 . S
H84 C107 0.951 1_565 S
H85 C72 0.946 . S
H86 C74 0.952 . S
H87 C75 0.950 . S
N88 C91 1.382 1_554 S
N88 C93 1.363 . S
N89 C91 1.371 . S
N89 C92 1.372 . S
N90 C92 1.361 1_554 S
N90 C93 1.377 . S
C91 N88 1.382 1_556 S
C91 N89 1.371 . S
C91 C94 1.480 . S
C92 N89 1.372 . S
C92 N90 1.361 1_556 S
C92 C100 1.457 . S
C93 N88 1.363 . S
C93 N90 1.377 . S
C93 C106 1.479 . S
C94 C91 1.480 . S
C94 C95 1.383 1_556 S
C94 C99 1.385 . S
C95 H76 0.947 . S
C95 C94 1.383 1_554 S
C95 C96 1.381 1_545 S
C96 H77 0.958 . S
C96 C95 1.381 1_565 S
C96 C97 1.380 1_564 S
C97 C96 1.380 1_546 S
C97 C98 1.377 . S
C98 H78 0.953 . S
C98 C97 1.377 . S
C98 C99 1.369 . S
C99 H79 0.945 . S
C99 C94 1.385 . S
C99 C98 1.369 . S
C100 C92 1.457 . S
C100 C101 1.381 . S
C100 C105 1.364 . S
C101 H80 0.944 1_545 S
C101 C100 1.381 . S
C101 C102 1.389 1_545 S
C102 H81 0.965 . S
C102 C101 1.389 1_565 S
C102 C103 1.372 1_565 S
C103 C102 1.372 1_545 S
C103 C104 1.372 . S
C104 H82 0.950 . S
C104 C103 1.372 . S
C104 C105 1.379 . S
C105 H83 0.948 . S
C105 C100 1.364 . S
C105 C104 1.379 . S
C106 C75 1.383 . S
C106 C93 1.479 . S
C106 C107 1.398 . S
C107 C72 1.383 1_545 S
C107 H84 0.951 1_545 S
C107 C106 1.398 . S
C108 C109 1.384 . S
C108 H121 0.947 . S
C108 C143 1.382 . S
C109 C108 1.384 . S
C109 C110 1.378 . S
C110 C109 1.378 . S
C110 C111 1.378 . S
C110 H122 0.952 . S
C111 C110 1.378 . S
C111 H123 0.950 . S
C111 C142 1.383 . S
H112 C131 0.947 . S
H113 C132 0.946 . S
H114 C134 0.953 . S
H115 C135 0.945 . S
H116 C137 0.952 . S
H117 C138 0.949 . S
H118 C140 0.950 . S
H119 C141 0.948 . S
H120 C143 0.951 . S
H121 C108 0.947 . S
H122 C110 0.952 . S
H123 C111 0.950 . S
N124 C127 1.382 . S
N124 C129 1.363 . S
N125 C127 1.371 . S
N125 C128 1.372 . S
N126 C128 1.361 . S
N126 C129 1.377 . S
C127 N124 1.382 . S
C127 N125 1.371 . S
C127 C130 1.480 . S
C128 N125 1.372 . S
C128 N126 1.361 . S
C128 C136 1.457 . S
C129 N124 1.363 . S
C129 N126 1.377 . S
C129 C142 1.479 . S
C130 C127 1.480 . S
C130 C131 1.383 . S
C130 C135 1.385 . S
C131 H112 0.947 . S
C131 C130 1.383 . S
C131 C132 1.388 . S
C132 H113 0.946 . S
C132 C131 1.388 . S
C132 C133 1.384 . S
C133 C132 1.384 . S
C133 C134 1.377 . S
C134 H114 0.953 . S
C134 C133 1.377 . S
C134 C135 1.369 . S
C135 H115 0.945 . S
C135 C130 1.385 . S
C135 C134 1.369 . S
C136 C128 1.457 . S
C136 C137 1.372 . S
C136 C141 1.364 . S
C137 H116 0.952 . S
C137 C136 1.372 . S
C137 C138 1.389 . S
C138 H117 0.949 . S
C138 C137 1.389 . S
C138 C139 1.387 . S
C139 C138 1.387 . S
C139 C140 1.372 . S
C140 H118 0.950 . S
C140 C139 1.372 . S
C140 C141 1.379 . S
C141 H119 0.948 . S
C141 C136 1.364 . S
C141 C140 1.379 . S
C142 C111 1.383 . S
C142 C129 1.479 . S
C142 C143 1.398 . S
C143 C108 1.382 . S
C143 H120 0.951 . S
C143 C142 1.398 . S
C144 C145 1.384 . S
C144 H157 0.947 . S
C144 C179 1.382 . S
C145 C144 1.384 . S
C145 C146 1.378 . S
C146 C145 1.378 . S
C146 C147 1.378 . S
C146 H158 0.952 . S
C147 C146 1.378 . S
C147 H159 0.950 . S
C147 C178 1.383 . S
H148 C167 0.947 . S
H149 C168 0.946 . S
H150 C170 0.953 . S
H151 C171 0.945 . S
H152 C173 0.952 . S
H153 C174 0.949 . S
H154 C176 0.950 . S
H155 C177 0.948 . S
H156 C179 0.951 . S
H157 C144 0.947 . S
H158 C146 0.952 . S
H159 C147 0.950 . S
N160 C163 1.382 . S
N160 C165 1.363 . S
N161 C163 1.371 . S
N161 C164 1.372 . S
N162 C164 1.361 . S
N162 C165 1.377 . S
C163 N160 1.382 . S
C163 N161 1.371 . S
C163 C166 1.480 . S
C164 N161 1.372 . S
C164 N162 1.361 . S
C164 C172 1.457 . S
C165 N160 1.363 . S
C165 N162 1.377 . S
C165 C178 1.479 . S
C166 C163 1.480 . S
C166 C167 1.383 . S
C166 C171 1.385 . S
C167 H148 0.947 . S
C167 C166 1.383 . S
C167 C168 1.388 . S
C168 H149 0.946 . S
C168 C167 1.388 . S
C168 C169 1.384 . S
C169 C168 1.384 . S
C169 C170 1.377 . S
C170 H150 0.953 . S
C170 C169 1.377 . S
C170 C171 1.369 . S
C171 H151 0.945 . S
C171 C166 1.385 . S
C171 C170 1.369 . S
C172 C164 1.457 . S
C172 C173 1.372 . S
C172 C177 1.364 . S
C173 H152 0.952 . S
C173 C172 1.372 . S
C173 C174 1.389 . S
C174 H153 0.949 . S
C174 C173 1.389 . S
C174 C175 1.387 . S
C175 C174 1.387 . S
C175 C176 1.372 . S
C176 H154 0.950 . S
C176 C175 1.372 . S
C176 C177 1.379 . S
C177 H155 0.948 . S
C177 C172 1.364 . S
C177 C176 1.379 . S
C178 C147 1.383 . S
C178 C165 1.479 . S
C178 C179 1.398 . S
C179 C144 1.382 . S
C179 H156 0.951 . S
C179 C178 1.398 . S
C180 C181 1.384 . S
C180 H193 0.947 . S
C180 C215 1.382 . S
C181 C180 1.384 . S
C181 C182 1.378 . S
C182 C181 1.378 . S
C182 C183 1.378 . S
C182 H194 0.952 . S
C183 C182 1.378 . S
C183 H195 0.950 . S
C183 C214 1.383 . S
H184 C203 0.947 . S
H185 C204 0.946 . S
H186 C206 0.953 . S
H187 C207 0.945 . S
H188 C209 0.952 . S
H189 C210 0.949 . S
H190 C212 0.950 . S
H191 C213 0.948 . S
H192 C215 0.951 . S
H193 C180 0.947 . S
H194 C182 0.952 . S
H195 C183 0.950 . S
N196 C199 1.382 . S
N196 C201 1.363 . S
N197 C199 1.371 . S
N197 C200 1.372 . S
N198 C200 1.361 . S
N198 C201 1.377 . S
C199 N196 1.382 . S
C199 N197 1.371 . S
C199 C202 1.480 . S
C200 N197 1.372 . S
C200 N198 1.361 . S
C200 C208 1.457 . S
C201 N196 1.363 . S
C201 N198 1.377 . S
C201 C214 1.479 . S
C202 C199 1.480 . S
C202 C203 1.383 . S
C202 C207 1.385 . S
C203 H184 0.947 . S
C203 C202 1.383 . S
C203 C204 1.388 . S
C204 H185 0.946 . S
C204 C203 1.388 . S
C204 C205 1.384 . S
C205 C204 1.384 . S
C205 C206 1.377 . S
C206 H186 0.953 . S
C206 C205 1.377 . S
C206 C207 1.369 . S
C207 H187 0.945 . S
C207 C202 1.385 . S
C207 C206 1.369 . S
C208 C200 1.457 . S
C208 C209 1.372 . S
C208 C213 1.364 . S
C209 H188 0.952 . S
C209 C208 1.372 . S
C209 C210 1.389 . S
C210 H189 0.949 . S
C210 C209 1.389 . S
C210 C211 1.387 . S
C211 C210 1.387 . S
C211 C212 1.372 . S
C212 H190 0.950 . S
C212 C211 1.372 . S
C212 C213 1.379 . S
C213 H191 0.948 . S
C213 C208 1.364 . S
C213 C212 1.379 . S
C214 C183 1.383 . S
C214 C201 1.479 . S
C214 C215 1.398 . S
C215 C180 1.382 . S
C215 H192 0.951 . S
C215 C214 1.398 . S
C216 C217 1.383 . S
C216 H229 0.949 1_545 S
C216 C251 1.378 . S
C217 C216 1.383 . S
C217 C218 1.378 . S
C218 C217 1.378 . S
C218 C219 1.378 . S
C218 H230 0.952 . S
C219 C218 1.378 . S
C219 H231 0.950 . S
C219 C250 1.383 . S
H220 C239 0.947 . S
H221 C240 0.949 . S
H222 C242 0.953 . S
H223 C243 0.945 . S
H224 C245 0.955 1_565 S
H225 C246 0.948 . S
H226 C248 0.950 . S
H227 C249 0.948 . S
H228 C251 0.950 1_565 S
H229 C216 0.949 1_565 S
H230 C218 0.952 . S
H231 C219 0.950 . S
N232 C235 1.382 . S
N232 C237 1.363 . S
N233 C235 1.371 . S
N233 C236 1.372 . S
N234 C236 1.361 . S
N234 C237 1.377 . S
C235 N232 1.382 . S
C235 N233 1.371 . S
C235 C238 1.480 . S
C236 N233 1.372 . S
C236 N234 1.361 . S
C236 C244 1.457 . S
C237 N232 1.363 . S
C237 N234 1.377 . S
C237 C250 1.479 . S
C238 C235 1.480 . S
C238 C239 1.383 . S
C238 C243 1.385 . S
C239 H220 0.947 . S
C239 C238 1.383 . S
C239 C240 1.391 1_545 S
C240 H221 0.949 . S
C240 C239 1.391 1_565 S
C240 C241 1.379 1_565 S
C241 C240 1.379 1_545 S
C241 C242 1.377 . S
C242 H222 0.953 . S
C242 C241 1.377 . S
C242 C243 1.369 . S
C243 H223 0.945 . S
C243 C238 1.385 . S
C243 C242 1.369 . S
C244 C236 1.457 . S
C244 C245 1.372 . S
C244 C249 1.364 . S
C245 H224 0.955 1_545 S
C245 C244 1.372 . S
C245 C246 1.384 1_545 S
C246 H225 0.948 . S
C246 C245 1.384 1_565 S
C246 C247 1.391 1_565 S
C247 C246 1.391 1_545 S
C247 C248 1.372 . S
C248 H226 0.950 . S
C248 C247 1.372 . S
C248 C249 1.379 . S
C249 H227 0.948 . S
C249 C244 1.364 . S
C249 C248 1.379 . S
C250 C219 1.383 . S
C250 C237 1.479 . S
C250 C251 1.402 . S
C251 C216 1.378 . S
C251 H228 0.950 1_545 S
C251 C250 1.402 . S
C252 C253 1.384 . S
C252 H265 0.947 . S
C252 C287 1.382 . S
C253 C252 1.384 . S
C253 C254 1.378 . S
C254 C253 1.378 . S
C254 C255 1.378 . S
C254 H266 0.952 . S
C255 C254 1.378 . S
C255 H267 0.950 . S
C255 C286 1.383 . S
H256 C275 0.947 . S
H257 C276 0.946 . S
H258 C278 0.953 . S
H259 C279 0.945 . S
H260 C281 0.952 . S
H261 C282 0.949 . S
H262 C284 0.950 . S
H263 C285 0.948 . S
H264 C287 0.951 . S
H265 C252 0.947 . S
H266 C254 0.952 . S
H267 C255 0.950 . S
N268 C271 1.382 . S
N268 C273 1.363 . S
N269 C271 1.371 . S
N269 C272 1.372 . S
N270 C272 1.361 . S
N270 C273 1.377 . S
C271 N268 1.382 . S
C271 N269 1.371 . S
C271 C274 1.480 . S
C272 N269 1.372 . S
C272 N270 1.361 . S
C272 C280 1.457 . S
C273 N268 1.363 . S
C273 N270 1.377 . S
C273 C286 1.479 . S
C274 C271 1.480 . S
C274 C275 1.383 . S
C274 C279 1.385 . S
C275 H256 0.947 . S
C275 C274 1.383 . S
C275 C276 1.388 . S
C276 H257 0.946 . S
C276 C275 1.388 . S
C276 C277 1.384 . S
C277 C276 1.384 . S
C277 C278 1.377 . S
C278 H258 0.953 . S
C278 C277 1.377 . S
C278 C279 1.369 . S
C279 H259 0.945 . S
C279 C274 1.385 . S
C279 C278 1.369 . S
C280 C272 1.457 . S
C280 C281 1.372 . S
C280 C285 1.364 . S
C281 H260 0.952 . S
C281 C280 1.372 . S
C281 C282 1.389 . S
C282 H261 0.949 . S
C282 C281 1.389 . S
C282 C283 1.387 . S
C283 C282 1.387 . S
C283 C284 1.372 . S
C284 H262 0.950 . S
C284 C283 1.372 . S
C284 C285 1.379 . S
C285 H263 0.948 . S
C285 C280 1.364 . S
C285 C284 1.379 . S
C286 C255 1.383 . S
C286 C273 1.479 . S
C286 C287 1.398 . S
C287 C252 1.382 . S
C287 H264 0.951 . S
C287 C286 1.398 . S
Nd288 C290 2.836 1_455 S
Nd288 O308 2.500 1_455 S
Nd288 O309 2.492 . S
Nd288 O310 2.487 . S
Nd288 O311 2.682 1_565 S
Nd288 O312 2.410 . S
Nd288 O317 2.431 1_455 S
Nd288 O319 2.424 1_565 S
Nd289 C299 2.836 . S
Nd289 O311 2.414 . S
Nd289 O313 2.424 1_545 S
Nd289 O314 2.500 . S
Nd289 O315 2.492 . S
Nd289 O316 2.487 1_455 S
Nd289 O317 2.678 1_445 S
Nd289 O318 2.410 . S
C290 Nd288 2.836 1_655 S
C290 C291 1.498 . S
C290 O308 1.258 . S
C290 O309 1.239 1_655 S
C291 C290 1.498 . S
C291 C292 1.366 . S
C291 C296 1.407 . S
C292 C291 1.366 . S
C292 C293 1.392 . S
C292 H320 0.930 . S
C293 C292 1.392 . S
C293 C294 1.398 . S
C293 H321 0.929 . S
C294 C293 1.398 . S
C294 C295 1.352 . S
C295 C294 1.352 . S
C295 C296 1.384 . S
C295 H322 0.930 . S
C296 C291 1.407 . S
C296 C295 1.384 . S
C296 H323 0.929 1_655 S
C297 O310 1.241 . S
C297 O311 1.273 1_565 S
C298 O312 1.251 . S
C298 O313 1.268 . S
C299 Nd289 2.836 . S
C299 C300 1.498 1_556 S
C299 O314 1.258 . S
C299 O315 1.239 . S
C300 C299 1.498 1_554 S
C300 C301 1.366 1_554 S
C300 C305 1.407 . S
C301 C300 1.366 1_556 S
C301 C302 1.392 1_556 S
C301 H324 0.930 . S
C302 C301 1.392 1_554 S
C302 C303 1.398 . S
C302 H325 0.929 . S
C303 C302 1.398 . S
C303 C304 1.352 . S
C304 C303 1.352 . S
C304 C305 1.384 . S
C304 H326 0.930 . S
C305 C300 1.407 . S
C305 C304 1.384 . S
C305 H327 0.929 . S
C306 O316 1.241 . S
C306 O317 1.249 1_545 S
C307 O318 1.251 . S
C307 O319 1.268 . S
O308 Nd288 2.500 1_655 S
O308 C290 1.258 . S
O309 Nd288 2.492 . S
O309 C290 1.239 1_455 S
O310 Nd288 2.487 . S
O310 C297 1.241 . S
O311 Nd288 2.682 1_545 S
O311 Nd289 2.414 . S
O311 C297 1.273 1_545 S
O312 Nd288 2.410 . S
O312 C298 1.251 . S
O313 Nd289 2.424 1_565 S
O313 C298 1.268 . S
O314 Nd289 2.500 . S
O314 C299 1.258 . S
O315 Nd289 2.492 . S
O315 C299 1.239 . S
O316 Nd289 2.487 1_655 S
O316 C306 1.241 . S
O317 Nd288 2.431 1_655 S
O317 Nd289 2.678 1_665 S
O317 C306 1.249 1_565 S
O318 Nd289 2.410 . S
O318 C307 1.251 . S
O319 Nd288 2.424 1_545 S
O319 C307 1.268 . S
H320 C292 0.930 . S
H321 C293 0.929 . S
H322 C295 0.930 . S
H323 C296 0.929 1_455 S
H324 C301 0.930 . S
H325 C302 0.929 . S
H326 C304 0.930 . S
H327 C305 0.929 . S
Nd328 C330 2.836 . S
Nd328 O348 2.500 . S
Nd328 O349 2.492 . S
Nd328 O350 2.487 1_565 S
Nd328 O351 2.682 1_565 S
Nd328 O352 2.410 1_565 S
Nd328 O357 2.414 . S
Nd328 O359 2.424 . S
Nd329 C339 2.836 . S
Nd329 O351 2.414 . S
Nd329 O353 2.424 . S
Nd329 O354 2.500 . S
Nd329 O355 2.506 . S
Nd329 O356 2.487 1_545 S
Nd329 O357 2.682 1_545 S
Nd329 O358 2.410 1_545 S
C330 Nd328 2.836 . S
C330 C331 1.498 . S
C330 O348 1.258 . S
C330 O349 1.239 . S
C331 C330 1.498 . S
C331 C332 1.366 . S
C331 C336 1.407 . S
C332 C331 1.366 . S
C332 C333 1.392 . S
C332 H360 0.930 . S
C333 C332 1.392 . S
C333 C334 1.398 . S
C333 H361 0.929 . S
C334 C333 1.398 . S
C334 C335 1.352 . S
C335 C334 1.352 . S
C335 C336 1.384 . S
C335 H362 0.930 . S
C336 C331 1.407 . S
C336 C335 1.384 . S
C336 H363 0.929 1_565 S
C337 O350 1.241 . S
C337 O351 1.273 . S
C338 O352 1.251 . S
C338 O353 1.268 . S
C339 Nd329 2.836 . S
C339 C340 1.498 1_556 S
C339 O354 1.258 . S
C339 O355 1.244 . S
C340 C339 1.498 1_554 S
C340 C341 1.366 1_554 S
C340 C345 1.407 . S
C341 C340 1.366 1_556 S
C341 C342 1.392 1_556 S
C341 H364 0.930 . S
C342 C341 1.392 1_554 S
C342 C343 1.398 . S
C342 H365 0.929 . S
C343 C342 1.398 . S
C343 C344 1.352 . S
C344 C343 1.352 . S
C344 C345 1.384 . S
C344 H366 0.930 . S
C345 C340 1.407 . S
C345 C344 1.384 . S
C345 H367 0.929 1_545 S
C346 O356 1.241 . S
C346 O357 1.273 . S
C347 O358 1.251 . S
C347 O359 1.268 . S
O348 Nd328 2.500 . S
O348 C330 1.258 . S
O349 Nd328 2.492 . S
O349 C330 1.239 . S
O350 Nd328 2.487 1_545 S
O350 C337 1.241 . S
O351 Nd328 2.682 1_545 S
O351 Nd329 2.414 . S
O351 C337 1.273 . S
O352 Nd328 2.410 1_545 S
O352 C338 1.251 . S
O353 Nd329 2.424 . S
O353 C338 1.268 . S
O354 Nd329 2.500 . S
O354 C339 1.258 . S
O355 Nd329 2.506 . S
O355 C339 1.244 . S
O356 Nd329 2.487 1_565 S
O356 C346 1.241 . S
O357 Nd328 2.414 . S
O357 Nd329 2.682 1_565 S
O357 C346 1.273 . S
O358 Nd329 2.410 1_565 S
O358 C347 1.251 . S
O359 Nd328 2.424 . S
O359 C347 1.268 . S
H360 C332 0.930 . S
H361 C333 0.929 . S
H362 C335 0.930 . S
H363 C336 0.929 1_545 S
H364 C341 0.930 . S
H365 C342 0.929 . S
H366 C344 0.930 . S
H367 C345 0.929 1_565 S
Nd368 C370 2.836 . S
Nd368 O388 2.500 . S
Nd368 O389 2.492 . S
Nd368 O390 2.487 . S
Nd368 O391 2.682 . S
Nd368 O392 2.410 . S
Nd368 O397 2.414 . S
Nd368 O399 2.424 . S
Nd369 C379 2.836 . S
Nd369 O391 2.414 . S
Nd369 O393 2.424 . S
Nd369 O394 2.500 . S
Nd369 O395 2.492 . S
Nd369 O396 2.487 . S
Nd369 O397 2.682 . S
Nd369 O398 2.410 . S
C370 Nd368 2.836 . S
C370 C371 1.498 . S
C370 O388 1.258 . S
C370 O389 1.239 . S
C371 C370 1.498 . S
C371 C372 1.366 . S
C371 C376 1.407 . S
C372 C371 1.366 . S
C372 C373 1.392 . S
C372 H400 0.930 . S
C373 C372 1.392 . S
C373 C374 1.398 . S
C373 H401 0.929 . S
C374 C373 1.398 . S
C374 C375 1.352 1_556 S
C375 C374 1.352 1_554 S
C375 C376 1.384 1_554 S
C375 H402 0.930 . S
C376 C371 1.407 . S
C376 C375 1.384 1_556 S
C376 H403 0.929 1_556 S
C377 O390 1.241 . S
C377 O391 1.273 . S
C378 O392 1.251 . S
C378 O393 1.268 . S
C379 Nd369 2.836 . S
C379 C380 1.498 . S
C379 O394 1.258 . S
C379 O395 1.239 . S
C380 C379 1.498 . S
C380 C381 1.366 . S
C380 C385 1.407 . S
C381 C380 1.366 . S
C381 C382 1.392 . S
C381 H404 0.930 . S
C382 C381 1.392 . S
C382 C383 1.398 . S
C382 H405 0.929 . S
C383 C382 1.398 . S
C383 C384 1.352 . S
C384 C383 1.352 . S
C384 C385 1.384 . S
C384 H406 0.930 . S
C385 C380 1.407 . S
C385 C384 1.384 . S
C385 H407 0.929 . S
C386 O396 1.241 . S
C386 O397 1.273 . S
C387 O398 1.251 . S
C387 O399 1.268 . S
O388 Nd368 2.500 . S
O388 C370 1.258 . S
O389 Nd368 2.492 . S
O389 C370 1.239 . S
O390 Nd368 2.487 . S
O390 C377 1.241 . S
O391 Nd368 2.682 . S
O391 Nd369 2.414 . S
O391 C377 1.273 . S
O392 Nd368 2.410 . S
O392 C378 1.251 . S
O393 Nd369 2.424 . S
O393 C378 1.268 . S
O394 Nd369 2.500 . S
O394 C379 1.258 . S
O395 Nd369 2.492 . S
O395 C379 1.239 . S
O396 Nd369 2.487 . S
O396 C386 1.241 . S
O397 Nd368 2.414 . S
O397 Nd369 2.682 . S
O397 C386 1.273 . S
O398 Nd369 2.410 . S
O398 C387 1.251 . S
O399 Nd368 2.424 . S
O399 C387 1.268 . S
H400 C372 0.930 . S
H401 C373 0.929 . S
H402 C375 0.930 . S
H403 C376 0.929 1_554 S
H404 C381 0.930 . S
H405 C382 0.929 . S
H406 C384 0.930 . S
H407 C385 0.929 . S
Nd408 C410 2.836 1_455 S
Nd408 O428 2.500 1_455 S
Nd408 O429 2.492 1_455 S
Nd408 O430 2.487 . S
Nd408 O431 2.682 . S
Nd408 O432 2.410 1_455 S
Nd408 O437 2.414 . S
Nd408 O439 2.424 . S
Nd409 C419 2.836 . S
Nd409 O431 2.414 . S
Nd409 O433 2.424 1_455 S
Nd409 O434 2.500 . S
Nd409 O435 2.492 . S
Nd409 O436 2.487 . S
Nd409 O437 2.682 . S
Nd409 O438 2.410 . S
C410 Nd408 2.836 1_655 S
C410 C411 1.498 . S
C410 O428 1.258 . S
C410 O429 1.239 . S
C411 C410 1.498 . S
C411 C412 1.366 . S
C411 C416 1.407 . S
C412 C411 1.366 . S
C412 C413 1.392 . S
C412 H440 0.930 . S
C413 C412 1.392 . S
C413 C414 1.398 . S
C413 H441 0.929 . S
C414 C413 1.398 . S
C414 C415 1.352 . S
C415 C414 1.352 . S
C415 C416 1.384 . S
C415 H442 0.930 . S
C416 C411 1.407 . S
C416 C415 1.384 . S
C416 H443 0.929 . S
C417 O430 1.241 . S
C417 O431 1.273 . S
C418 O432 1.251 . S
C418 O433 1.268 . S
C419 Nd409 2.836 . S
C419 C420 1.498 1_556 S
C419 O434 1.258 . S
C419 O435 1.239 . S
C420 C419 1.498 1_554 S
C420 C421 1.366 . S
C420 C425 1.407 . S
C421 C420 1.366 . S
C421 C422 1.392 . S
C421 H444 0.930 1_554 S
C422 C421 1.392 . S
C422 C423 1.398 . S
C422 H445 0.929 . S
C423 C422 1.398 . S
C423 C424 1.352 . S
C424 C423 1.352 . S
C424 C425 1.384 . S
C424 H446 0.930 . S
C425 C420 1.407 . S
C425 C424 1.384 . S
C425 H447 0.929 . S
C426 O436 1.241 . S
C426 O437 1.273 . S
C427 O438 1.251 . S
C427 O439 1.268 . S
O428 Nd408 2.500 1_655 S
O428 C410 1.258 . S
O429 Nd408 2.492 1_655 S
O429 C410 1.239 . S
O430 Nd408 2.487 . S
O430 C417 1.241 . S
O431 Nd408 2.682 . S
O431 Nd409 2.414 . S
O431 C417 1.273 . S
O432 Nd408 2.410 1_655 S
O432 C418 1.251 . S
O433 Nd409 2.424 1_655 S
O433 C418 1.268 . S
O434 Nd409 2.500 . S
O434 C419 1.258 . S
O435 Nd409 2.492 . S
O435 C419 1.239 . S
O436 Nd409 2.487 . S
O436 C426 1.241 . S
O437 Nd408 2.414 . S
O437 Nd409 2.682 . S
O437 C426 1.273 . S
O438 Nd409 2.410 . S
O438 C427 1.251 . S
O439 Nd408 2.424 . S
O439 C427 1.268 . S
H440 C412 0.930 . S
H441 C413 0.929 . S
H442 C415 0.930 . S
H443 C416 0.929 . S
H444 C421 0.930 1_556 S
H445 C422 0.929 . S
H446 C424 0.930 . S
H447 C425 0.929 . S
H448 C456 0.950 . S
H449 C461 0.950 . S
H450 C458 0.950 . S
H451 C460 0.950 . S
H452 C462 0.950 . S
H453 C464 0.950 . S
H454 C466 0.950 . S
H455 C467 0.950 . S
C456 H448 0.950 . S
C456 C457 1.391 . S
C456 C458 1.391 . S
C457 C456 1.391 . S
C457 C461 1.386 1_565 S
C458 H450 0.950 . S
C458 C456 1.391 . S
C458 C459 1.400 . S
C459 C458 1.400 . S
C459 C460 1.398 1_565 S
C459 C465 1.491 . S
C460 H451 0.950 . S
C460 C459 1.398 1_545 S
C460 C461 1.391 . S
C461 H449 0.950 . S
C461 C457 1.386 1_545 S
C461 C460 1.391 . S
C462 H452 0.950 . S
C462 C463 1.386 1_545 S
C462 C464 1.391 . S
C463 C462 1.386 1_565 S
C463 C467 1.393 . S
C464 H453 0.950 . S
C464 C462 1.391 . S
C464 C465 1.400 1_545 S
C465 C459 1.491 . S
C465 C464 1.400 1_565 S
C465 C466 1.398 . S
C466 H454 0.950 . S
C466 C465 1.398 . S
C466 C467 1.391 . S
C467 H455 0.950 . S
C467 C463 1.393 . S
C467 C466 1.391 . S
H468 C476 0.950 . S
H469 C481 0.950 . S
H470 C478 0.950 . S
H471 C480 0.950 . S
H472 C482 0.950 . S
H473 C484 0.950 . S
H474 C486 0.950 . S
H475 C487 0.950 . S
C476 H468 0.950 . S
C476 C477 1.386 . S
C476 C478 1.391 . S
C477 C476 1.386 . S
C477 C481 1.393 . S
C478 H470 0.950 . S
C478 C476 1.391 . S
C478 C479 1.400 . S
C479 C478 1.400 . S
C479 C480 1.398 . S
C479 C485 1.491 . S
C480 H471 0.950 . S
C480 C479 1.398 . S
C480 C481 1.391 . S
C481 H469 0.950 . S
C481 C477 1.393 . S
C481 C480 1.391 . S
C482 H472 0.950 . S
C482 C483 1.386 . S
C482 C484 1.391 . S
C483 C482 1.386 . S
C483 C487 1.393 . S
C484 H473 0.950 . S
C484 C482 1.391 . S
C484 C485 1.400 . S
C485 C479 1.491 . S
C485 C484 1.400 . S
C485 C486 1.398 . S
C486 H474 0.950 . S
C486 C485 1.398 . S
C486 C487 1.391 . S
C487 H475 0.950 . S
C487 C483 1.393 . S
C487 C486 1.391 . S
H488 C496 0.950 . S
H489 C501 0.950 . S
H490 C498 0.950 . S
H491 C500 0.950 . S
H492 C502 0.950 . S
H493 C504 0.950 . S
H494 C506 0.950 . S
H495 C507 0.950 . S
C496 H488 0.950 . S
C496 C497 1.386 . S
C496 C498 1.391 . S
C497 C496 1.386 . S
C497 C501 1.393 . S
C498 H490 0.950 . S
C498 C496 1.391 . S
C498 C499 1.400 . S
C499 C498 1.400 . S
C499 C500 1.398 . S
C499 C505 1.491 . S
C500 H491 0.950 . S
C500 C499 1.398 . S
C500 C501 1.391 . S
C501 H489 0.950 . S
C501 C497 1.393 . S
C501 C500 1.391 . S
C502 H492 0.950 . S
C502 C503 1.386 . S
C502 C504 1.391 . S
C503 C502 1.386 . S
C503 C507 1.393 . S
C504 H493 0.950 . S
C504 C502 1.391 . S
C504 C505 1.400 . S
C505 C499 1.491 . S
C505 C504 1.400 . S
C505 C506 1.398 . S
C506 H494 0.950 . S
C506 C505 1.398 . S
C506 C507 1.391 . S
C507 H495 0.950 . S
C507 C503 1.393 . S
C507 C506 1.391 . S
H508 C516 0.950 . S
H509 C521 0.950 . S
H510 C518 0.950 . S
H511 C520 0.950 . S
H512 C522 0.950 . S
H513 C524 0.950 . S
H514 C526 0.950 . S
H515 C527 0.950 . S
C516 H508 0.950 . S
C516 C517 1.386 . S
C516 C518 1.391 . S
C517 C516 1.386 . S
C517 C521 1.393 . S
C518 H510 0.950 . S
C518 C516 1.391 . S
C518 C519 1.400 . S
C519 C518 1.400 . S
C519 C520 1.398 . S
C519 C525 1.491 . S
C520 H511 0.950 . S
C520 C519 1.398 . S
C520 C521 1.391 . S
C521 H509 0.950 . S
C521 C517 1.393 . S
C521 C520 1.391 . S
C522 H512 0.950 . S
C522 C523 1.386 . S
C522 C524 1.391 . S
C523 C522 1.386 . S
C523 C527 1.393 . S
C524 H513 0.950 . S
C524 C522 1.391 . S
C524 C525 1.400 . S
C525 C519 1.491 . S
C525 C524 1.400 . S
C525 C526 1.398 . S
C526 H514 0.950 . S
C526 C525 1.398 . S
C526 C527 1.391 . S
C527 H515 0.950 . S
C527 C523 1.393 . S
C527 C526 1.391 . S
H528 C536 0.950 1_554 S
H529 C541 0.950 . S
H530 C538 0.950 . S
H531 C540 0.950 . S
H532 C542 0.950 . S
H533 C544 0.950 . S
H534 C546 0.950 . S
H535 C547 0.950 . S
C536 H528 0.950 1_556 S
C536 C537 1.378 1_545 S
C536 C538 1.391 . S
C537 C536 1.378 1_565 S
C537 C541 1.409 . S
C538 H530 0.950 . S
C538 C536 1.391 . S
C538 C539 1.400 . S
C539 C538 1.400 . S
C539 C540 1.398 1_545 S
C539 C545 1.491 . S
C540 H531 0.950 . S
C540 C539 1.398 1_565 S
C540 C541 1.391 . S
C541 H529 0.950 . S
C541 C537 1.409 . S
C541 C540 1.391 . S
C542 H532 0.950 . S
C542 C543 1.386 1_565 S
C542 C544 1.391 . S
C543 C542 1.386 1_545 S
C543 C547 1.393 . S
C544 H533 0.950 . S
C544 C542 1.391 . S
C544 C545 1.400 1_565 S
C545 C539 1.491 . S
C545 C544 1.400 1_545 S
C545 C546 1.398 . S
C546 H534 0.950 . S
C546 C545 1.398 . S
C546 C547 1.391 . S
C547 H535 0.950 . S
C547 C543 1.393 . S
C547 C546 1.391 . S
H548 C556 0.950 . S
H549 C561 0.950 . S
H550 C558 0.950 . S
H551 C560 0.950 . S
H552 C562 0.950 . S
H553 C564 0.950 . S
H554 C566 0.950 . S
H555 C567 0.950 . S
C556 H548 0.950 . S
C556 C557 1.386 . S
C556 C558 1.391 . S
C557 C556 1.386 . S
C557 C561 1.393 . S
C558 H550 0.950 . S
C558 C556 1.391 . S
C558 C559 1.400 . S
C559 C558 1.400 . S
C559 C560 1.398 . S
C559 C565 1.491 . S
C560 H551 0.950 . S
C560 C559 1.398 . S
C560 C561 1.391 . S
C561 H549 0.950 . S
C561 C557 1.393 . S
C561 C560 1.391 . S
C562 H552 0.950 . S
C562 C563 1.386 . S
C562 C564 1.391 1_556 S
C563 C562 1.386 . S
C563 C567 1.393 . S
C564 H553 0.950 . S
C564 C562 1.391 1_554 S
C564 C565 1.400 . S
C565 C559 1.491 . S
C565 C564 1.400 . S
C565 C566 1.398 . S
C566 H554 0.950 . S
C566 C565 1.398 . S
C566 C567 1.391 1_554 S
C567 H555 0.950 . S
C567 C563 1.393 . S
C567 C566 1.391 1_556 S
H568 C576 0.950 . S
H569 C581 0.950 . S
H570 C578 0.950 . S
H571 C580 0.950 1_554 S
H572 C582 0.950 . S
H573 C584 0.950 . S
H574 C586 0.950 . S
H575 C587 0.950 . S
C576 H568 0.950 . S
C576 C577 1.386 . S
C576 C578 1.391 . S
C577 C576 1.386 . S
C577 C581 1.393 1_556 S
C578 H570 0.950 . S
C578 C576 1.391 . S
C578 C579 1.400 . S
C579 C578 1.400 . S
C579 C580 1.398 . S
C579 C585 1.491 . S
C580 H571 0.950 1_556 S
C580 C579 1.398 . S
C580 C581 1.391 1_556 S
C581 H569 0.950 . S
C581 C577 1.393 1_554 S
C581 C580 1.391 1_554 S
C582 H572 0.950 . S
C582 C583 1.386 . S
C582 C584 1.391 . S
C583 C582 1.386 . S
C583 C587 1.393 . S
C584 H573 0.950 . S
C584 C582 1.391 . S
C584 C585 1.400 . S
C585 C579 1.491 . S
C585 C584 1.400 . S
C585 C586 1.398 . S
C586 H574 0.950 . S
C586 C585 1.398 . S
C586 C587 1.391 . S
C587 H575 0.950 . S
C587 C583 1.393 . S
C587 C586 1.391 . S
H588 C596 0.950 . S
H589 C601 0.950 . S
H590 C598 0.950 . S
H591 C600 0.950 . S
H592 C602 0.950 . S
H593 C604 0.950 . S
H594 C606 0.931 1_554 S
H595 C607 0.950 . S
C596 H588 0.950 . S
C596 C597 1.386 1_554 S
C596 C598 1.391 . S
C597 C596 1.386 1_556 S
C597 C601 1.393 . S
C598 H590 0.950 . S
C598 C596 1.391 . S
C598 C599 1.400 1_554 S
C599 C598 1.400 1_556 S
C599 C600 1.398 . S
C599 C605 1.491 . S
C600 H591 0.950 . S
C600 C599 1.398 . S
C600 C601 1.391 . S
C601 H589 0.950 . S
C601 C597 1.393 . S
C601 C600 1.391 . S
C602 H592 0.950 . S
C602 C603 1.386 . S
C602 C604 1.391 . S
C603 C602 1.386 . S
C603 C607 1.393 . S
C604 H593 0.950 . S
C604 C602 1.391 . S
C604 C605 1.400 . S
C605 C599 1.491 . S
C605 C604 1.400 . S
C605 C606 1.398 . S
C606 H594 0.931 1_556 S
C606 C605 1.398 . S
C606 C607 1.391 . S
C607 H595 0.950 . S
C607 C603 1.393 . S
C607 C606 1.391 . S
H608 C616 0.950 . S
H609 C621 0.950 . S
H610 C618 0.950 . S
H611 C620 0.950 . S
H612 C622 0.950 . S
H613 C624 0.950 . S
H614 C626 0.950 . S
H615 C627 0.950 . S
C616 H608 0.950 . S
C616 C617 1.386 . S
C616 C618 1.391 . S
C617 C616 1.386 . S
C617 C621 1.393 . S
C618 H610 0.950 . S
C618 C616 1.391 . S
C618 C619 1.400 . S
C619 C618 1.400 . S
C619 C620 1.398 . S
C619 C625 1.491 . S
C620 H611 0.950 . S
C620 C619 1.398 . S
C620 C621 1.391 . S
C621 H609 0.950 . S
C621 C617 1.393 . S
C621 C620 1.391 . S
C622 H612 0.950 . S
C622 C623 1.386 . S
C622 C624 1.391 . S
C623 C622 1.386 . S
C623 C627 1.393 . S
C624 H613 0.950 . S
C624 C622 1.391 . S
C624 C625 1.400 . S
C625 C619 1.491 . S
C625 C624 1.400 . S
C625 C626 1.398 . S
C626 H614 0.950 . S
C626 C625 1.398 . S
C626 C627 1.391 . S
C627 H615 0.950 . S
C627 C623 1.393 . S
C627 C626 1.391 . S
H628 C636 0.950 . S
H629 C641 0.950 . S
H630 C638 0.950 . S
H631 C640 0.950 . S
H632 C642 0.950 . S
H633 C644 0.950 . S
H634 C646 0.976 . S
H635 C647 0.950 1_545 S
C636 H628 0.950 . S
C636 C637 1.389 . S
C636 C638 1.391 . S
C637 C636 1.389 . S
C637 C641 1.386 1_545 S
C638 H630 0.950 . S
C638 C636 1.391 . S
C638 C639 1.400 1_545 S
C639 C638 1.400 1_565 S
C639 C640 1.398 . S
C639 C645 1.491 . S
C640 H631 0.950 . S
C640 C639 1.398 . S
C640 C641 1.391 . S
C641 H629 0.950 . S
C641 C637 1.386 1_565 S
C641 C640 1.391 . S
C642 H632 0.950 . S
C642 C643 1.386 . S
C642 C644 1.391 . S
C643 C642 1.386 . S
C643 C647 1.393 . S
C644 H633 0.950 . S
C644 C642 1.391 . S
C644 C645 1.400 . S
C645 C639 1.491 . S
C645 C644 1.400 . S
C645 C646 1.389 1_565 S
C646 H634 0.976 . S
C646 C645 1.389 1_545 S
C646 C647 1.377 1_545 S
C647 H635 0.950 1_565 S
C647 C643 1.393 . S
C647 C646 1.377 1_565 S
H648 C656 0.950 . S
H649 C661 0.950 . S
H650 C658 0.950 . S
H651 C660 0.950 . S
H652 C662 0.950 . S
H653 C664 0.950 . S
H654 C666 0.950 . S
H655 C667 0.950 . S
C656 H648 0.950 . S
C656 C657 1.386 . S
C656 C658 1.391 . S
C657 C656 1.386 . S
C657 C661 1.393 . S
C658 H650 0.950 . S
C658 C656 1.391 . S
C658 C659 1.400 . S
C659 C658 1.400 . S
C659 C660 1.398 . S
C659 C665 1.491 . S
C660 H651 0.950 . S
C660 C659 1.398 . S
C660 C661 1.391 . S
C661 H649 0.950 . S
C661 C657 1.393 . S
C661 C660 1.391 . S
C662 H652 0.950 . S
C662 C663 1.386 . S
C662 C664 1.391 . S
C663 C662 1.386 . S
C663 C667 1.393 . S
C664 H653 0.950 . S
C664 C662 1.391 . S
C664 C665 1.400 . S
C665 C659 1.491 . S
C665 C664 1.400 . S
C665 C666 1.398 . S
C666 H654 0.950 . S
C666 C665 1.398 . S
C666 C667 1.391 . S
C667 H655 0.950 . S
C667 C663 1.393 . S
C667 C666 1.391 . S
H668 C676 0.950 . S
H669 C681 0.950 . S
H670 C678 0.950 . S
H671 C680 0.950 . S
H672 C682 0.950 . S
H673 C684 0.950 . S
H674 C686 0.950 . S
H675 C687 0.950 . S
C676 H668 0.950 . S
C676 C677 1.386 . S
C676 C678 1.391 . S
C677 C676 1.386 . S
C677 C681 1.393 . S
C678 H670 0.950 . S
C678 C676 1.391 . S
C678 C679 1.400 . S
C679 C678 1.400 . S
C679 C680 1.398 . S
C679 C685 1.491 . S
C680 H671 0.950 . S
C680 C679 1.398 . S
C680 C681 1.391 . S
C681 H669 0.950 . S
C681 C677 1.393 . S
C681 C680 1.391 . S
C682 H672 0.950 . S
C682 C683 1.386 . S
C682 C684 1.391 . S
C683 C682 1.386 . S
C683 C687 1.393 . S
C684 H673 0.950 . S
C684 C682 1.391 . S
C684 C685 1.400 . S
C685 C679 1.491 . S
C685 C684 1.400 . S
C685 C686 1.398 . S
C686 H674 0.950 . S
C686 C685 1.398 . S
C686 C687 1.391 . S
C687 H675 0.950 . S
C687 C683 1.393 . S
C687 C686 1.391 . S
H688 C696 0.950 . S
H689 C701 0.950 . S
H690 C698 0.950 . S
H691 C700 0.950 . S
H692 C702 0.950 . S
H693 C704 0.950 . S
H694 C706 0.950 . S
H695 C707 0.950 1_455 S
C696 H688 0.950 . S
C696 C697 1.386 . S
C696 C698 1.391 . S
C697 C696 1.386 . S
C697 C701 1.393 . S
C698 H690 0.950 . S
C698 C696 1.391 . S
C698 C699 1.400 . S
C699 C698 1.400 . S
C699 C700 1.398 . S
C699 C705 1.491 . S
C700 H691 0.950 . S
C700 C699 1.398 . S
C700 C701 1.391 . S
C701 H689 0.950 . S
C701 C697 1.393 . S
C701 C700 1.391 . S
C702 H692 0.950 . S
C702 C703 1.386 . S
C702 C704 1.391 . S
C703 C702 1.386 . S
C703 C707 1.393 . S
C704 H693 0.950 . S
C704 C702 1.391 . S
C704 C705 1.400 . S
C705 C699 1.491 . S
C705 C704 1.400 . S
C705 C706 1.398 . S
C706 H694 0.950 . S
C706 C705 1.398 . S
C706 C707 1.391 . S
C707 H695 0.950 1_655 S
C707 C703 1.393 . S
C707 C706 1.391 . S
H708 C716 0.950 . S
H709 C721 0.950 . S
H710 C718 0.950 . S
H711 C720 0.950 . S
H712 C722 0.950 . S
H713 C724 0.950 . S
H714 C726 0.950 . S
H715 C727 0.950 . S
C716 H708 0.950 . S
C716 C717 1.374 1_565 S
C716 C718 1.391 . S
C717 C716 1.374 1_545 S
C717 C721 1.411 . S
C718 H710 0.950 . S
C718 C716 1.391 . S
C718 C719 1.400 1_565 S
C719 C718 1.400 1_545 S
C719 C720 1.398 . S
C719 C725 1.491 . S
C720 H711 0.950 . S
C720 C719 1.398 . S
C720 C721 1.391 . S
C721 H709 0.950 . S
C721 C717 1.411 . S
C721 C720 1.391 . S
C722 H712 0.950 . S
C722 C723 1.386 . S
C722 C724 1.391 . S
C723 C722 1.386 . S
C723 C727 1.393 1_545 S
C724 H713 0.950 . S
C724 C722 1.391 . S
C724 C725 1.400 . S
C725 C719 1.491 . S
C725 C724 1.400 . S
C725 C726 1.398 1_545 S
C726 H714 0.950 . S
C726 C725 1.398 1_565 S
C726 C727 1.391 . S
C727 H715 0.950 . S
C727 C723 1.393 1_565 S
C727 C726 1.391 . S
H728 C736 0.950 . S
H729 C741 0.950 . S
H730 C738 0.950 . S
H731 C740 0.950 . S
H732 C742 0.950 1_556 S
H733 C744 0.950 . S
H734 C746 0.950 . S
H735 C747 0.950 . S
C736 H728 0.950 . S
C736 C737 1.386 . S
C736 C738 1.391 . S
C737 C736 1.386 . S
C737 C741 1.393 . S
C738 H730 0.950 . S
C738 C736 1.391 . S
C738 C739 1.400 . S
C739 C738 1.400 . S
C739 C740 1.398 . S
C739 C745 1.491 . S
C740 H731 0.950 . S
C740 C739 1.398 . S
C740 C741 1.391 . S
C741 H729 0.950 . S
C741 C737 1.393 . S
C741 C740 1.391 . S
C742 H732 0.950 1_554 S
C742 C743 1.386 . S
C742 C744 1.391 . S
C743 C742 1.386 . S
C743 C747 1.393 . S
C744 H733 0.950 . S
C744 C742 1.391 . S
C744 C745 1.400 . S
C745 C739 1.491 . S
C745 C744 1.400 . S
C745 C746 1.398 . S
C746 H734 0.950 . S
C746 C745 1.398 . S
C746 C747 1.391 . S
C747 H735 0.950 . S
C747 C743 1.393 . S
C747 C746 1.391 . S
H748 C756 0.950 . S
H749 C761 0.950 . S
H750 C758 0.950 . S
H751 C760 0.950 . S
H752 C762 0.950 . S
H753 C764 0.950 . S
H754 C766 0.950 . S
H755 C767 0.950 . S
C756 H748 0.950 . S
C756 C757 1.386 . S
C756 C758 1.391 . S
C757 C756 1.386 . S
C757 C761 1.393 . S
C758 H750 0.950 . S
C758 C756 1.391 . S
C758 C759 1.400 . S
C759 C758 1.400 . S
C759 C760 1.398 . S
C759 C765 1.491 . S
C760 H751 0.950 . S
C760 C759 1.398 . S
C760 C761 1.391 . S
C761 H749 0.950 . S
C761 C757 1.393 . S
C761 C760 1.391 . S
C762 H752 0.950 . S
C762 C763 1.386 . S
C762 C764 1.391 . S
C763 C762 1.386 . S
C763 C767 1.393 . S
C764 H753 0.950 . S
C764 C762 1.391 . S
C764 C765 1.400 . S
C765 C759 1.491 . S
C765 C764 1.400 . S
C765 C766 1.398 . S
C766 H754 0.950 . S
C766 C765 1.398 . S
C766 C767 1.391 . S
C767 H755 0.950 . S
C767 C763 1.393 . S
C767 C766 1.391 . S
H768 C776 0.950 . S
H769 C781 0.950 . S
H770 C778 0.950 . S
H771 C780 0.950 . S
H772 C782 0.950 . S
H773 C784 0.950 . S
H774 C786 0.950 . S
H775 C787 0.950 . S
C776 H768 0.950 . S
C776 C777 1.386 . S
C776 C778 1.391 . S
C777 C776 1.386 . S
C777 C781 1.393 . S
C778 H770 0.950 . S
C778 C776 1.391 . S
C778 C779 1.400 . S
C779 C778 1.400 . S
C779 C780 1.398 . S
C779 C785 1.491 . S
C780 H771 0.950 . S
C780 C779 1.398 . S
C780 C781 1.391 . S
C781 H769 0.950 . S
C781 C777 1.393 . S
C781 C780 1.391 . S
C782 H772 0.950 . S
C782 C783 1.386 . S
C782 C784 1.391 . S
C783 C782 1.386 . S
C783 C787 1.393 . S
C784 H773 0.950 . S
C784 C782 1.391 . S
C784 C785 1.400 . S
C785 C779 1.491 . S
C785 C784 1.400 . S
C785 C786 1.398 . S
C786 H774 0.950 . S
C786 C785 1.398 . S
C786 C787 1.391 . S
C787 H775 0.950 . S
C787 C783 1.393 . S
C787 C786 1.391 . S
H788 C796 0.950 . S
H789 C801 0.950 . S
H790 C798 0.950 . S
H791 C800 0.950 . S
H792 C802 0.950 . S
H793 C804 0.950 1_565 S
H794 C806 0.950 . S
H795 C807 0.950 . S
C796 H788 0.950 . S
C796 C797 1.386 . S
C796 C798 1.391 . S
C797 C796 1.386 . S
C797 C801 1.393 1_545 S
C798 H790 0.950 . S
C798 C796 1.391 . S
C798 C799 1.400 . S
C799 C798 1.400 . S
C799 C800 1.398 1_545 S
C799 C805 1.491 . S
C800 H791 0.950 . S
C800 C799 1.398 1_565 S
C800 C801 1.391 . S
C801 H789 0.950 . S
C801 C797 1.393 1_565 S
C801 C800 1.391 . S
C802 H792 0.950 . S
C802 C803 1.386 . S
C802 C804 1.391 . S
C803 C802 1.386 . S
C803 C807 1.393 . S
C804 H793 0.950 1_545 S
C804 C802 1.391 . S
C804 C805 1.400 . S
C805 C799 1.491 . S
C805 C804 1.400 . S
C805 C806 1.398 . S
C806 H794 0.950 . S
C806 C805 1.398 . S
C806 C807 1.391 . S
C807 H795 0.950 . S
C807 C803 1.393 . S
C807 C806 1.391 . S
H808 C816 0.950 . S
H809 C821 0.950 . S
H810 C818 0.950 . S
H811 C820 0.950 . S
H812 C822 0.950 . S
H813 C824 0.950 . S
H814 C826 0.950 . S
H815 C827 0.950 . S
C816 H808 0.950 . S
C816 C817 1.386 . S
C816 C818 1.391 1_554 S
C817 C816 1.386 . S
C817 C821 1.393 . S
C818 H810 0.950 . S
C818 C816 1.391 1_556 S
C818 C819 1.400 . S
C819 C818 1.400 . S
C819 C820 1.398 . S
C819 C825 1.491 . S
C820 H811 0.950 . S
C820 C819 1.398 . S
C820 C821 1.391 1_556 S
C821 H809 0.950 . S
C821 C817 1.393 . S
C821 C820 1.391 1_554 S
C822 H812 0.950 . S
C822 C823 1.386 . S
C822 C824 1.391 . S
C823 C822 1.386 . S
C823 C827 1.393 . S
C824 H813 0.950 . S
C824 C822 1.391 . S
C824 C825 1.400 . S
C825 C819 1.491 . S
C825 C824 1.400 . S
C825 C826 1.398 . S
C826 H814 0.950 . S
C826 C825 1.398 . S
C826 C827 1.391 . S
C827 H815 0.950 . S
C827 C823 1.393 . S
C827 C826 1.391 . S
H828 C836 0.950 . S
H829 C841 0.950 . S
H830 C838 0.950 . S
H831 C840 0.950 . S
H832 C842 0.950 . S
H833 C844 0.950 . S
H834 C846 0.950 . S
H835 C847 0.950 . S
C836 H828 0.950 . S
C836 C837 1.386 . S
C836 C838 1.391 . S
C837 C836 1.386 . S
C837 C841 1.393 . S
C838 H830 0.950 . S
C838 C836 1.391 . S
C838 C839 1.400 . S
C839 C838 1.400 . S
C839 C840 1.398 . S
C839 C845 1.491 . S
C840 H831 0.950 . S
C840 C839 1.398 . S
C840 C841 1.391 . S
C841 H829 0.950 . S
C841 C837 1.393 . S
C841 C840 1.391 . S
C842 H832 0.950 . S
C842 C843 1.386 . S
C842 C844 1.391 . S
C843 C842 1.386 . S
C843 C847 1.393 . S
C844 H833 0.950 . S
C844 C842 1.391 . S
C844 C845 1.400 . S
C845 C839 1.491 . S
C845 C844 1.400 . S
C845 C846 1.398 . S
C846 H834 0.950 . S
C846 C845 1.398 . S
C846 C847 1.391 . S
C847 H835 0.950 . S
C847 C843 1.393 . S
C847 C846 1.391 . S
H848 C856 0.950 . S
H849 C861 0.950 . S
H850 C858 0.950 . S
H851 C860 0.950 . S
H852 C862 0.950 . S
H853 C864 0.950 . S
H854 C866 0.950 . S
H855 C867 0.950 . S
C856 H848 0.950 . S
C856 C857 1.386 . S
C856 C858 1.391 . S
C857 C856 1.386 . S
C857 C861 1.393 . S
C858 H850 0.950 . S
C858 C856 1.391 . S
C858 C859 1.400 . S
C859 C858 1.400 . S
C859 C860 1.398 . S
C859 C865 1.491 . S
C860 H851 0.950 . S
C860 C859 1.398 . S
C860 C861 1.391 . S
C861 H849 0.950 . S
C861 C857 1.393 . S
C861 C860 1.391 . S
C862 H852 0.950 . S
C862 C863 1.386 . S
C862 C864 1.391 . S
C863 C862 1.386 . S
C863 C867 1.393 . S
C864 H853 0.950 . S
C864 C862 1.391 . S
C864 C865 1.400 . S
C865 C859 1.491 . S
C865 C864 1.400 . S
C865 C866 1.398 . S
C866 H854 0.950 . S
C866 C865 1.398 . S
C866 C867 1.391 . S
C867 H855 0.950 . S
C867 C863 1.393 . S
C867 C866 1.391 . S
H868 C876 0.950 . S
H869 C881 0.950 . S
H870 C878 0.950 . S
H871 C880 0.950 . S
H872 C882 0.960 . S
H873 C884 0.950 1_545 S
H874 C886 0.950 . S
H875 C887 0.950 . S
C876 H868 0.950 . S
C876 C877 1.386 . S
C876 C878 1.391 . S
C877 C876 1.386 . S
C877 C881 1.393 1_565 S
C878 H870 0.950 . S
C878 C876 1.391 . S
C878 C879 1.400 . S
C879 C878 1.400 . S
C879 C880 1.398 1_565 S
C879 C885 1.491 . S
C880 H871 0.950 . S
C880 C879 1.398 1_545 S
C880 C881 1.391 . S
C881 H869 0.950 . S
C881 C877 1.393 1_545 S
C881 C880 1.391 . S
C882 H872 0.960 . S
C882 C883 1.386 . S
C882 C884 1.391 . S
C883 C882 1.386 . S
C883 C887 1.393 . S
C884 H873 0.950 1_565 S
C884 C882 1.391 . S
C884 C885 1.400 . S
C885 C879 1.491 . S
C885 C884 1.400 . S
C885 C886 1.398 . S
C886 H874 0.950 . S
C886 C885 1.398 . S
C886 C887 1.391 . S
C887 H875 0.950 . S
C887 C883 1.393 . S
C887 C886 1.391 . S
H888 C896 0.950 . S
H889 C901 0.950 . S
H890 C898 0.950 . S
H891 C900 0.950 . S
H892 C902 0.950 . S
H893 C904 0.950 . S
H894 C906 0.950 . S
H895 C907 0.950 . S
C896 H888 0.950 . S
C896 C897 1.386 . S
C896 C898 1.391 . S
C897 C896 1.386 . S
C897 C901 1.393 . S
C898 H890 0.950 . S
C898 C896 1.391 . S
C898 C899 1.400 . S
C899 C898 1.400 . S
C899 C900 1.398 . S
C899 C905 1.491 . S
C900 H891 0.950 . S
C900 C899 1.398 . S
C900 C901 1.391 . S
C901 H889 0.950 . S
C901 C897 1.393 . S
C901 C900 1.391 . S
C902 H892 0.950 . S
C902 C903 1.386 . S
C902 C904 1.391 . S
C903 C902 1.386 . S
C903 C907 1.393 . S
C904 H893 0.950 . S
C904 C902 1.391 . S
C904 C905 1.400 . S
C905 C899 1.491 . S
C905 C904 1.400 . S
C905 C906 1.398 . S
C906 H894 0.950 . S
C906 C905 1.398 . S
C906 C907 1.391 . S
C907 H895 0.950 . S
C907 C903 1.393 . S
C907 C906 1.391 . S
H908 C916 0.950 . S
H909 C921 0.950 . S
H910 C918 0.950 . S
H911 C920 0.950 . S
H912 C922 0.950 . S
H913 C924 0.950 . S
H914 C926 0.950 . S
H915 C927 0.950 . S
C916 H908 0.950 . S
C916 C917 1.386 . S
C916 C918 1.391 . S
C917 C916 1.386 . S
C917 C921 1.393 . S
C918 H910 0.950 . S
C918 C916 1.391 . S
C918 C919 1.400 . S
C919 C918 1.400 . S
C919 C920 1.398 . S
C919 C925 1.491 . S
C920 H911 0.950 . S
C920 C919 1.398 . S
C920 C921 1.391 . S
C921 H909 0.950 . S
C921 C917 1.393 . S
C921 C920 1.391 . S
C922 H912 0.950 . S
C922 C923 1.386 . S
C922 C924 1.391 . S
C923 C922 1.386 . S
C923 C927 1.393 . S
C924 H913 0.950 . S
C924 C922 1.391 . S
C924 C925 1.400 . S
C925 C919 1.491 . S
C925 C924 1.400 . S
C925 C926 1.398 . S
C926 H914 0.950 . S
C926 C925 1.398 . S
C926 C927 1.391 . S
C927 H915 0.950 . S
C927 C923 1.393 . S
C927 C926 1.391 . S
C457 C241 0.932 1_565 S
C463 C297 0.887 . S
C483 C337 1.944 . S
C477 C277 1.959 . S
C503 C386 1.665 . S
C497 C169 1.625 . S
C523 C417 2.176 . S
C517 C205 2.223 . S
C543 C306 0.913 . S
C537 C97 0.924 1_565 S
C557 C133 2.036 . S
C563 C346 1.945 . S
C577 C25 1.705 1_556 S
C583 C377 1.672 . S
C597 C61 2.140 1_556 S
C603 C426 2.185 1_655 S
C623 C307 1.468 . S
C617 C211 1.292 . S
C643 C347 0.922 . S
C637 C247 0.877 . S
C663 C383 0.605 . S
C657 C253 0.653 . S
C677 C175 1.308 . S
C683 C427 1.539 . S
C697 C67 1.217 . S
C703 C298 1.472 1_655 S
C723 C338 0.902 . S
C717 C103 0.810 . S
C743 C374 0.603 1_554 S
C737 C109 0.628 . S
C757 C31 1.367 . S
C763 C418 1.541 . S
C777 C181 2.121 . S
C783 C303 2.203 . S
C797 C217 1.697 . S
C803 C343 1.734 . S
C823 C387 2.913 . S
C817 C283 2.530 . S
C843 C423 1.794 . S
C837 C145 1.698 . S
C857 C37 2.073 . S
C863 C294 2.209 . S
C883 C334 1.721 . S
C877 C73 1.715 1_565 S
C903 C378 2.913 . S
C897 C139 2.609 . S
C917 C1 1.747 . S
C923 C414 1.803 . S
