# Generated by pormake.
# Topology anh, (6,3)-cn, num edge types: 1
# Building blocks:
#     Node 0, Type 0, BuildingBlock: BETDAH_clean_sbu_0, # of connection points: 6
#     Node 1, Type 0, BuildingBlock: BETDAH_clean_sbu_0, # of connection points: 6
#     Node 2, Type 0, BuildingBlock: BETDAH_clean_sbu_0, # of connection points: 6
#     Node 3, Type 1, BuildingBlock: QEWDON_clean_linker_0, # of connection points: 3
#     Node 4, Type 1, BuildingBlock: QEWDON_clean_linker_0, # of connection points: 3
#     Node 5, Type 1, BuildingBlock: QEWDON_clean_linker_0, # of connection points: 3
#     Node 6, Type 1, BuildingBlock: QEWDON_clean_linker_0, # of connection points: 3
#     Node 7, Type 1, BuildingBlock: QEWDON_clean_linker_0, # of connection points: 3
#     Node 8, Type 1, BuildingBlock: QEWDON_clean_linker_0, # of connection points: 3
#     Edge 9, Type (0, 1), BuildingBlock: OJICUG_clean_linker_0, # of connection points: 2
#     Edge 10, Type (0, 1), BuildingBlock: OJICUG_clean_linker_0, # of connection points: 2
#     Edge 11, Type (0, 1), BuildingBlock: OJICUG_clean_linker_0, # of connection points: 2
#     Edge 12, Type (0, 1), BuildingBlock: OJICUG_clean_linker_0, # of connection points: 2
#     Edge 13, Type (0, 1), BuildingBlock: OJICUG_clean_linker_0, # of connection points: 2
#     Edge 14, Type (0, 1), BuildingBlock: OJICUG_clean_linker_0, # of connection points: 2
#     Edge 15, Type (0, 1), BuildingBlock: OJICUG_clean_linker_0, # of connection points: 2
#     Edge 16, Type (0, 1), BuildingBlock: OJICUG_clean_linker_0, # of connection points: 2
#     Edge 17, Type (0, 1), BuildingBlock: OJICUG_clean_linker_0, # of connection points: 2
#     Edge 18, Type (0, 1), BuildingBlock: OJICUG_clean_linker_0, # of connection points: 2
#     Edge 19, Type (0, 1), BuildingBlock: OJICUG_clean_linker_0, # of connection points: 2
#     Edge 20, Type (0, 1), BuildingBlock: OJICUG_clean_linker_0, # of connection points: 2
#     Edge 21, Type (0, 1), BuildingBlock: OJICUG_clean_linker_0, # of connection points: 2
#     Edge 22, Type (0, 1), BuildingBlock: OJICUG_clean_linker_0, # of connection points: 2
#     Edge 23, Type (0, 1), BuildingBlock: OJICUG_clean_linker_0, # of connection points: 2
#     Edge 24, Type (0, 1), BuildingBlock: OJICUG_clean_linker_0, # of connection points: 2
#     Edge 25, Type (0, 1), BuildingBlock: OJICUG_clean_linker_0, # of connection points: 2
#     Edge 26, Type (0, 1), BuildingBlock: OJICUG_clean_linker_0, # of connection points: 2
# Relax obj value: 0.190
# Max RMSD: 0.204
# Mean RMSD: 0.129
data_MOF--net-anh--node1-BETDAH_clean_sbu_0--node2-QEWDON_clean_linker_0--edge1-OJICUG_clean_linker_0
_symmetry_space_group_name_H-M    P1
_symmetry_Int_Tables_number       1
_symmetry_cell_setting            triclinic
loop_
_symmetry_equiv_pos_as_xyz
'x, y, z'
_cell_length_a     23.311471
_cell_length_b     31.043029
_cell_length_c     35.145144
_cell_angle_alpha  95.470382
_cell_angle_beta   90.216131
_cell_angle_gamma 132.97281
loop_
_atom_site_label
_atom_site_type_symbol
_atom_site_fract_x
_atom_site_fract_y
_atom_site_fract_z
_atom_type_partial_charge
Ho0 Ho 0.24513 0.55653 0.14173 0.0
Ho1 Ho 1.12536 0.56186 0.1701 0.0
C2 C 0.30067 0.68633 0.16362 0.0
C3 C 0.36382 0.58073 0.1124 0.0
C4 C 0.44686 0.6366 0.12001 0.0
C5 C 0.5022 0.65002 0.09506 0.0
C6 C 0.58211 0.70058 0.10465 0.0
C7 C 0.60773 0.7388 0.13925 0.0
C8 C 0.55102 0.72726 0.16262 0.0
C9 C 0.47161 0.67621 0.15341 0.0
C10 C 0.22849 0.55617 0.21804 0.0
C11 C 1.07368 0.4358 0.14766 0.0
C12 C 1.03571 0.56269 0.21176 0.0
C13 C 0.95011 0.52087 0.21209 0.0
C14 C 0.9019 0.46302 0.19244 0.0
C15 C 0.82114 0.42828 0.18492 0.0
C16 C 0.78829 0.45176 0.19607 0.0
C17 C 0.83559 0.50655 0.22033 0.0
C18 C 0.91604 0.54098 0.228 0.0
C19 C 1.11086 0.53328 0.09271 0.0
O20 O 0.31866 0.65552 0.15107 0.0
O21 O 0.22967 0.66035 0.17372 0.0
O22 O 0.33283 0.55132 0.14175 0.0
O23 O 0.3178 0.58371 0.09425 0.0
O24 O 0.24015 0.52526 0.19897 0.0
O25 O 0.22968 0.58609 0.19612 0.0
O26 O 1.06902 0.46776 0.17273 0.0
O27 O 1.13251 0.46144 0.1256 0.0
O28 O 1.06323 0.58988 0.18109 0.0
O29 O 1.06773 0.54313 0.22209 0.0
O30 O 1.05304 0.51627 0.11251 0.0
O31 O 0.17353 0.56932 0.11468 0.0
H32 H 0.48413 0.62008 0.06912 0.0
H33 H 0.624 0.70721 0.08621 0.0
H34 H 0.5684 0.75579 0.18923 0.0
H35 H 0.43007 0.6664 0.17342 0.0
H36 H 0.92745 0.4465 0.1804 0.0
H37 H 0.78626 0.38591 0.16685 0.0
H38 H 0.81313 0.52656 0.22964 0.0
H39 H 0.95251 0.58529 0.24363 0.0
Ho40 Ho 0.76681 0.07459 0.48335 0.0
Ho41 Ho 0.64938 0.0836 0.46651 0.0
C42 C 0.58096 0.95428 0.46474 0.0
C43 C 0.83926 0.04578 0.50912 0.0
C44 C 0.8155 0.98833 0.51156 0.0
C45 C 0.74648 0.94299 0.528 0.0
C46 C 0.72134 0.88719 0.52715 0.0
C47 C 0.76431 0.87549 0.50959 0.0
C48 C 0.83421 0.92124 0.49393 0.0
C49 C 0.85971 0.97722 0.49506 0.0
C50 C 0.74184 0.07761 0.40866 0.0
C51 C 0.83772 0.20394 0.4824 0.0
C52 C 0.57407 0.11101 0.44266 0.0
C53 C 0.58517 0.16374 0.4516 0.0
C54 C 0.66051 0.22147 0.4548 0.0
C55 C 0.67105 0.27064 0.46776 0.0
C56 C 0.60661 0.26286 0.47811 0.0
C57 C 0.53101 0.20522 0.4737 0.0
C58 C 0.52044 0.15614 0.4605 0.0
C59 C 0.66891 0.07724 0.54076 0.0
O60 O 0.64863 0.9803 0.48411 0.0
O61 O 0.57152 0.98605 0.44853 0.0
O62 O 0.84368 0.05912 0.47443 0.0
O63 O 0.80603 0.05847 0.53106 0.0
O64 O 0.81038 0.10348 0.42499 0.0
O65 O 0.69087 0.04949 0.43191 0.0
O66 O 0.76734 0.17803 0.46662 0.0
O67 O 0.85066 0.17311 0.49657 0.0
O68 O 0.55378 0.08004 0.471 0.0
O69 O 0.62749 0.11778 0.42374 0.0
O70 O 0.60197 0.05153 0.52275 0.0
O71 O 0.72345 0.1079 0.51919 0.0
H72 H 0.71075 0.95005 0.54068 0.0
H73 H 0.66672 0.85254 0.539 0.0
H74 H 0.86871 0.9135 0.48046 0.0
H75 H 0.91304 1.01149 0.48221 0.0
H76 H 0.71161 0.22859 0.44837 0.0
H77 H 0.73001 0.3145 0.47112 0.0
H78 H 0.48016 0.19802 0.481 0.0
H79 H 0.46193 0.11202 0.45832 0.0
Ho80 Ho 0.75098 0.62524 0.82542 0.0
Ho81 Ho 0.62428 0.49709 0.83665 0.0
C82 C 0.56981 0.56667 0.83919 0.0
C83 C 0.82546 0.72572 0.80031 0.0
C84 C 0.80764 0.76269 0.79648 0.0
C85 C 0.7365 0.7389 0.77724 0.0
C86 C 0.71819 0.77337 0.77646 0.0
C87 C 0.77016 0.83201 0.79523 0.0
C88 C 0.84184 0.85606 0.81385 0.0
C89 C 0.86055 0.82181 0.81428 0.0
C90 C 0.74369 0.60541 0.89843 0.0
C91 C 0.80873 0.55846 0.83236 0.0
C92 C 0.55188 0.3926 0.85356 0.0
C93 C 0.56845 0.35545 0.84143 0.0
C94 C 0.55325 0.31476 0.86445 0.0
C95 C 0.57266 0.28173 0.85329 0.0
C96 C 0.60757 0.28878 0.81884 0.0
C97 C 0.6231 0.3301 0.7961 0.0
C98 C 0.60427 0.36326 0.80739 0.0
C99 C 0.63731 0.51926 0.76327 0.0
O100 O 0.63847 0.60819 0.82527 0.0
O101 O 0.5528 0.52004 0.85097 0.0
O102 O 0.8376 0.72136 0.83549 0.0
O103 O 0.78234 0.67495 0.77781 0.0
O104 O 0.80888 0.64608 0.88375 0.0
O105 O 0.68491 0.57999 0.87462 0.0
O106 O 0.73678 0.51505 0.84218 0.0
O107 O 0.82786 0.60545 0.81986 0.0
O108 O 0.52506 0.40202 0.82604 0.0
O109 O 0.60707 0.44108 0.87689 0.0
O110 O 0.57083 0.48023 0.77729 0.0
O111 O 0.69333 0.54243 0.78818 0.0
H112 H 0.69405 0.69325 0.76356 0.0
H113 H 0.66204 0.75343 0.76237 0.0
H114 H 0.88308 0.90122 0.82842 0.0
H115 H 0.91566 0.84109 0.82931 0.0
H116 H 0.52701 0.30889 0.89116 0.0
H117 H 0.56104 0.25115 0.87191 0.0
H118 H 0.64875 0.33632 0.76918 0.0
H119 H 0.6178 0.39518 0.78942 0.0
H120 H 0.73258 0.11167 0.22809 0.0
C121 C 0.6867 0.06453 0.21843 0.0
C122 C 0.65003 0.02545 0.24628 0.0
C123 C 0.66186 0.04298 0.17887 0.0
H124 H 0.55792 0.93418 0.25604 0.0
C125 C 0.58659 0.96451 0.23469 0.0
C126 C 0.56105 0.94171 0.19585 0.0
C127 C 0.60043 0.98068 0.16812 0.0
C128 C 0.6967 0.0849 0.14901 0.0
H129 H 0.58153 0.96184 0.13821 0.0
C130 C 0.77293 0.14319 0.15538 0.0
C131 C 0.80312 0.18215 0.12736 0.0
C132 C 0.65201 0.06736 0.11387 0.0
H133 H 0.59211 0.02486 0.10793 0.0
C134 C 0.68275 0.10509 0.08579 0.0
H135 H 0.80952 0.1587 0.18178 0.0
C136 C 0.75761 0.16193 0.09235 0.0
H137 H 0.77877 0.19096 0.0705 0.0
H138 H 0.64743 0.09061 0.05905 0.0
H139 H 0.62747 0.57024 0.5883 0.0
C140 C 0.63429 0.54078 0.5759 0.0
C141 C 0.64991 0.5158 0.6002 0.0
C142 C 0.62482 0.52614 0.53578 0.0
H143 H 0.66508 0.45505 0.60316 0.0
C144 C 0.65534 0.47565 0.58431 0.0
C145 C 0.64417 0.45947 0.54446 0.0
C146 C 0.63075 0.48589 0.52038 0.0
C147 C 0.60456 0.55007 0.50986 0.0
H148 H 0.62216 0.47346 0.48958 0.0
C149 C 0.64262 0.61023 0.51592 0.0
C150 C 0.62504 0.63295 0.49041 0.0
C151 C 0.54726 0.51267 0.47845 0.0
H152 H 0.51566 0.46592 0.47346 0.0
C153 C 0.5294 0.535 0.45328 0.0
H154 H 0.68751 0.63974 0.53973 0.0
C155 C 0.56822 0.59479 0.45904 0.0
H156 H 0.55306 0.61108 0.43924 0.0
H157 H 0.48519 0.5058 0.42923 0.0
H158 H 0.2179 0.57342 0.92117 0.0
C159 C 0.16911 0.56505 0.90725 0.0
C160 C 1.10838 0.55052 0.92917 0.0
C161 C 0.16983 0.5723 0.86811 0.0
H162 H 0.99963 0.53082 0.92712 0.0
C163 C 1.04733 0.54292 0.91108 0.0
C164 C 1.04733 0.55228 0.8728 0.0
C165 C 1.10788 0.56579 0.85137 0.0
C166 C 0.23791 0.59122 0.84555 0.0
H167 H 1.10549 0.57047 0.82146 0.0
C168 C 0.28444 0.57778 0.8536 0.0
C169 C 0.34955 0.59892 0.8322 0.0
C170 C 0.25883 0.62584 0.81583 0.0
H171 H 0.22898 0.6401 0.80946 0.0
C172 C 0.32012 0.64438 0.79402 0.0
H173 H 0.27114 0.55196 0.87647 0.0
C174 C 0.36448 0.63093 0.80186 0.0
H175 H 0.41156 0.64628 0.78402 0.0
H176 H 0.33413 0.67025 0.77104 0.0
H177 H 0.16141 0.52866 0.39953 0.0
C178 C 0.21219 0.57495 0.40941 0.0
C179 C 0.2577 0.61284 0.38181 0.0
C180 C 0.22952 0.59759 0.44889 0.0
H181 H 0.35428 0.70325 0.3721 0.0
C182 C 0.32003 0.6738 0.39347 0.0
C183 C 0.33848 0.69757 0.43217 0.0
C184 C 0.2953 0.6592 0.45982 0.0
C185 C 0.17677 0.55839 0.47831 0.0
H186 H 0.31208 0.67833 0.48969 0.0
C187 C 1.12847 0.49599 0.47219 0.0
C188 C 1.07826 0.46014 0.49979 0.0
C189 C 0.17209 0.58315 0.51265 0.0
H190 H 0.20401 0.62985 0.51824 0.0
C191 C 1.12406 0.54777 0.54036 0.0
H192 H 1.12978 0.47478 0.4464 0.0
C193 C 1.07766 0.48672 0.53411 0.0
H194 H 1.03929 0.45989 0.55561 0.0
H195 H 1.12166 0.56772 0.56653 0.0
H196 H 0.66386 1.02119 0.71382 0.0
C197 C 0.66729 0.05577 0.72751 0.0
C198 C 0.68113 0.09713 0.70548 0.0
C199 C 0.65438 0.0573 0.7665 0.0
H200 H 0.68819 0.17006 0.70515 0.0
C201 C 0.68163 0.1402 0.72262 0.0
C202 C 0.6667 0.14139 0.76122 0.0
C203 C 0.65539 0.10095 0.78308 0.0
C204 C 0.6347 1.01131 0.78944 0.0
H205 H 0.64614 0.1031 0.81313 0.0
C206 C 0.67157 0.98951 0.78508 0.0
C207 C 0.65364 0.94729 0.80781 0.0
C208 C 0.57811 0.98876 0.81614 0.0
H209 H 0.54664 1.00287 0.81947 0.0
C210 C 0.5604 0.94702 0.83861 0.0
H211 H 0.7155 1.00631 0.76486 0.0
C212 C 0.59815 0.92662 0.8347 0.0
H213 H 0.58293 0.89378 0.85225 0.0
H214 H 0.51689 0.93018 0.85904 0.0
H215 H 0.81522 0.67984 0.0732 0.0
C216 C 0.78303 0.63815 0.08463 0.0
C217 C 0.73515 0.58466 0.05958 0.0
C218 C 0.79121 0.63867 0.12416 0.0
H219 H 0.65776 0.48951 0.05502 0.0
C220 C 0.69294 0.53074 0.07446 0.0
C221 C 0.70125 0.53046 0.11407 0.0
C222 C 0.75031 0.58486 0.13871 0.0
C223 C 0.83987 0.69552 0.15014 0.0
H224 H 0.75901 0.58578 0.16919 0.0
C225 C 0.82701 0.73289 0.14687 0.0
C226 C 0.86545 0.78437 0.17309 0.0
C227 C 0.89498 0.71135 0.17928 0.0
H228 H 0.90615 0.68316 0.18235 0.0
C229 C 0.93553 0.76371 0.2049 0.0
H230 H 0.78167 0.71912 0.12554 0.0
C231 C 0.91985 0.79968 0.20233 0.0
H232 H 0.94814 0.83815 0.22361 0.0
H233 H 0.97736 0.77542 0.22754 0.0
C234 C 0.75127 0.80949 0.12899 0.0
C235 C 0.69206 0.78152 0.15434 0.0
H236 H 0.86105 0.83696 0.11657 0.0
C237 C 0.71172 0.78186 0.19239 0.0
H238 H 0.73906 0.81212 0.09996 0.0
C239 C 0.7825 0.79754 0.20211 0.0
C240 C 0.83285 0.81165 0.17364 0.0
H241 H 0.6684 0.76175 0.2131 0.0
H242 H 0.79028 0.78789 0.22947 0.0
C243 C 0.82194 0.82491 0.13874 0.0
C244 C 0.90183 0.30079 0.45918 0.0
C245 C 0.90276 0.26931 0.48503 0.0
H246 H 0.95854 0.3862 0.44303 0.0
C247 C 0.96553 0.30104 0.51393 0.0
H248 H 0.8546 0.27751 0.43641 0.0
C249 C 1.02428 0.36313 0.51793 0.0
C250 C 1.02248 0.39453 0.49249 0.0
H251 H 0.96779 0.27805 0.53431 0.0
H252 H 1.07039 0.3868 0.54134 0.0
C253 C 0.9616 0.36282 0.46267 0.0
C254 C 0.75349 0.89474 0.83313 0.0
C255 C 0.74719 0.86647 0.79749 0.0
H256 H 0.72877 0.94257 0.86419 0.0
C257 C 0.71498 0.86871 0.76469 0.0
H258 H 0.77746 0.89332 0.85892 0.0
C259 C 0.68792 0.89754 0.76767 0.0
C260 C 0.69133 0.92361 0.80359 0.0
H261 H 0.70984 0.84753 0.73685 0.0
H262 H 0.66148 0.89739 0.74218 0.0
C263 C 0.72534 0.92265 0.83618 0.0
C264 C 0.71697 0.42464 0.13296 0.0
C265 C 0.71826 0.43179 0.17322 0.0
H266 H 0.70959 0.45184 0.08133 0.0
C267 C 0.67527 0.44459 0.18909 0.0
H268 H 0.74617 0.41221 0.11915 0.0
C269 C 0.65412 0.46782 0.16704 0.0
C270 C 0.67469 0.47686 0.12911 0.0
H271 H 0.67116 0.44717 0.21978 0.0
H272 H 0.6338 0.48727 0.18128 0.0
C273 C 0.69586 0.44774 0.11093 0.0
C274 C 0.52094 0.85304 0.47837 0.0
C275 C 0.51726 0.88849 0.45841 0.0
H276 H 0.46661 0.76449 0.48605 0.0
C277 C 0.45284 0.8604 0.43123 0.0
H278 H 0.56963 0.87329 0.49961 0.0
C279 C 0.39471 0.79857 0.42337 0.0
C280 C 0.39896 0.76311 0.44272 0.0
H281 H 0.44791 0.88614 0.41534 0.0
H282 H 0.3463 0.77832 0.40189 0.0
C283 C 0.46193 0.79083 0.47078 0.0
C284 C 0.57485 0.19241 0.81208 0.0
C285 C 0.62579 0.25225 0.80597 0.0
H286 H 0.54774 0.11085 0.80267 0.0
C287 C 0.69246 0.27603 0.78612 0.0
H288 H 0.52222 0.17207 0.82654 0.0
C289 C 0.70652 0.24049 0.77194 0.0
C290 C 0.65491 0.18058 0.77773 0.0
H291 H 0.73393 0.3222 0.78147 0.0
H292 H 0.75785 0.25989 0.75651 0.0
C293 C 0.58938 0.15715 0.79828 0.0
C294 C 0.70425 0.78196 0.53685 0.0
C295 C 0.73368 0.81478 0.50565 0.0
H296 H 0.64743 0.69862 0.55653 0.0
C297 C 0.73032 0.78823 0.46996 0.0
H298 H 0.70652 0.80152 0.56472 0.0
C299 C 0.69626 0.72952 0.46525 0.0
C300 C 0.66557 0.69633 0.49623 0.0
H301 H 0.75191 0.81229 0.44534 0.0
H302 H 0.69335 0.70985 0.43726 0.0
C303 C 0.671 0.72336 0.53224 0.0
C304 C 0.94834 0.60005 0.83046 0.0
C305 C 0.86919 0.55449 0.83799 0.0
H306 H 1.06613 0.63475 0.83477 0.0
C307 C 0.84863 0.50563 0.85342 0.0
H308 H 0.96683 0.63837 0.81857 0.0
C309 C 0.9055 0.50373 0.86279 0.0
C310 C 0.98517 0.55028 0.85678 0.0
H311 H 0.78857 0.46923 0.85946 0.0
H312 H 0.8873 0.46619 0.87572 0.0
C313 C 1.00539 0.59782 0.83954 0.0
C314 C 0.35836 0.78678 0.1941 0.0
C315 C 0.36465 0.75222 0.16921 0.0
H316 H 0.41584 0.87373 0.22208 0.0
C317 C 0.43478 0.78107 0.15137 0.0
H318 H 0.30545 0.76609 0.20842 0.0
C319 C 0.49766 0.84286 0.15887 0.0
C320 C 0.49225 0.87697 0.18486 0.0
H321 H 0.44156 0.75583 0.13193 0.0
H322 H 0.55147 0.86371 0.14538 0.0
C323 C 0.42168 0.84837 0.20207 0.0
C324 C 0.58176 0.30983 0.52829 0.0
C325 C 0.61842 0.31417 0.49531 0.0
H326 H 0.56147 0.35237 0.5696 0.0
C327 C 0.66634 0.36764 0.47926 0.0
H328 H 0.54539 0.26947 0.54159 0.0
C329 C 0.67588 0.41538 0.49545 0.0
C330 C 0.63851 0.41069 0.52825 0.0
H331 H 0.6952 0.37212 0.4538 0.0
H332 H 0.71235 0.4559 0.48233 0.0
C333 C 0.59183 0.35757 0.54462 0.0
C334 C 0.5391 0.63033 0.8387 0.0
C335 C 0.51275 0.57452 0.84187 0.0
H336 H 0.51013 0.68207 0.83518 0.0
C337 C 0.432 0.52727 0.84628 0.0
H338 H 0.60065 0.66822 0.83592 0.0
C339 C 0.37882 0.53517 0.84541 0.0
C340 C 0.40517 0.59063 0.84035 0.0
H341 H 0.40931 0.48363 0.849 0.0
H342 H 0.31674 0.49729 0.84693 0.0
C343 C 0.4867 0.6383 0.83831 0.0
C344 C 0.99818 0.33378 0.11177 0.0
C345 C 1.01012 0.36998 0.14432 0.0
H346 H 0.92354 0.24572 0.08102 0.0
C347 C 0.95774 0.34282 0.17298 0.0
H348 H 1.03736 0.35318 0.0892 0.0
C349 C 0.89325 0.28127 0.16853 0.0
C350 C 0.87894 0.24547 0.13508 0.0
H351 H 0.96539 0.36928 0.19856 0.0
H352 H 0.85233 0.26211 0.1904 0.0
C353 C 0.93297 0.27225 0.10709 0.0
C354 C 1.07486 0.55454 0.03541 0.0
C355 C 1.10898 0.53579 0.05099 0.0
H356 H 1.05252 0.57781 -0.01372 0.0
C357 C 1.14428 0.52255 0.02679 0.0
H358 H 1.04888 0.56635 0.05368 0.0
C359 C 1.14356 0.52655 -0.01269 0.0
C360 C 1.10962 0.54572 0.97138 0.0
H361 H 0.17139 0.50828 0.03832 0.0
H362 H 0.16899 0.51403 0.96935 0.0
C363 C 1.07643 0.56051 -0.00358 0.0
C364 C 0.64342 0.03861 0.35381 0.0
C365 C 0.72195 0.07146 0.36731 0.0
H366 H 0.55964 0.99946 0.30502 0.0
C367 C 0.77876 0.09488 0.34083 0.0
H368 H 0.5984 1.02054 0.37352 0.0
C369 C 0.75636 0.08284 0.3013 0.0
C370 C 0.67684 0.04702 0.28782 0.0
H371 H 0.83979 0.12063 0.35053 0.0
H372 H 0.80043 0.09902 0.28126 0.0
C373 C 0.62113 0.02651 0.31456 0.0
C374 C 0.58131 0.5074 0.69845 0.0
C375 C 0.64509 0.52598 0.72222 0.0
H376 H 0.53407 0.49126 0.64085 0.0
C377 C 0.71394 0.54727 0.70598 0.0
H378 H 0.52778 0.49111 0.71041 0.0
C379 C 0.71699 0.54644 0.6662 0.0
C380 C 0.65207 0.52584 0.64231 0.0
H381 H 0.76389 0.56188 0.72379 0.0
H382 H 0.76909 0.56024 0.65395 0.0
C383 C 0.58506 0.50787 0.65881 0.0
C384 C 0.61776 0.03246 0.60088 0.0
C385 C 0.67908 0.08076 0.58267 0.0
H386 H 0.57155 0.99963 0.65415 0.0
C387 C 0.74492 0.13335 0.60511 0.0
H388 H 0.56639 0.99148 0.58411 0.0
C389 C 0.74699 0.13851 0.6453 0.0
C390 C 0.68439 0.09054 0.66344 0.0
H391 H 0.79262 0.17132 0.59163 0.0
H392 H 0.79656 0.18023 0.66221 0.0
C393 C 0.62079 0.03704 0.64087 0.0
C394 C 0.80992 0.63163 0.9631 0.0
C395 C 0.73978 0.59681 0.93902 0.0
H396 H 0.863 0.65435 0.02003 0.0
C397 C 0.66728 0.55532 0.95429 0.0
H398 H 0.86662 0.66348 0.95197 0.0
C399 C 0.6652 0.55002 -0.00651 0.0
C400 C 0.73559 0.5865 0.01775 0.0
H401 H 0.61241 0.52772 0.93611 0.0
H402 H 0.60883 0.51872 0.00501 0.0
C403 C 0.80785 0.62657 0.00206 0.0
C404 C 0.23173 0.53354 0.28468 0.0
C405 C 0.22687 0.56419 0.25999 0.0
H406 H 0.24427 0.52449 0.3434 0.0
C407 C 0.22428 0.6061 0.27576 0.0
H408 H 0.23358 0.50091 0.27319 0.0
C409 C 0.22994 0.61917 0.31532 0.0
C410 C 0.23857 0.59083 0.34021 0.0
H411 H 0.22043 0.63044 0.25752 0.0
H412 H 0.2302 0.65306 0.32658 0.0
C413 C 0.2373 0.54669 0.32467 0.0
loop_
_geom_bond_atom_site_label_1
_geom_bond_atom_site_label_2
_geom_bond_distance
_geom_bond_site_symmetry_2
_ccdc_geom_bond_type
Ho0 C3 2.811 . S
Ho0 O20 2.322 . S
Ho0 O22 2.378 . S
Ho0 O23 2.524 . S
Ho0 O24 2.381 . S
Ho0 O25 2.669 . S
Ho0 O27 2.346 1_455 S
Ho0 O31 2.305 . S
Ho1 C12 2.811 1_455 S
Ho1 O21 2.346 . S
Ho1 O25 2.305 . S
Ho1 O26 2.322 1_455 S
Ho1 O28 2.378 1_455 S
Ho1 O29 2.524 1_455 S
Ho1 O30 2.381 . S
Ho1 O31 2.669 . S
C2 O20 1.259 . S
C2 O21 1.268 . S
C3 Ho0 2.811 . S
C3 C4 1.488 . S
C3 O22 1.215 . S
C3 O23 1.289 . S
C4 C3 1.488 . S
C4 C5 1.348 . S
C4 C9 1.413 . S
C5 C4 1.348 . S
C5 C6 1.442 . S
C5 H32 0.930 . S
C6 C5 1.442 . S
C6 C7 1.381 . S
C6 H33 0.931 . S
C7 C6 1.381 . S
C7 C8 1.321 . S
C8 C7 1.321 . S
C8 C9 1.403 . S
C8 H34 0.934 . S
C9 C4 1.413 . S
C9 C8 1.403 . S
C9 H35 0.930 . S
C10 O24 1.275 . S
C10 O25 1.256 . S
C11 O26 1.259 . S
C11 O27 1.268 . S
C12 Ho1 2.811 1_655 S
C12 C13 1.488 . S
C12 O28 1.215 . S
C12 O29 1.289 . S
C13 C12 1.488 . S
C13 C14 1.348 . S
C13 C18 1.413 . S
C14 C13 1.348 . S
C14 C15 1.442 . S
C14 H36 0.930 . S
C15 C14 1.442 . S
C15 C16 1.381 . S
C15 H37 0.931 . S
C16 C15 1.381 . S
C16 C17 1.321 . S
C17 C16 1.321 . S
C17 C18 1.403 . S
C17 H38 0.934 . S
C18 C13 1.413 . S
C18 C17 1.403 . S
C18 H39 0.930 . S
C19 O30 1.275 . S
C19 O31 1.256 . S
O20 Ho0 2.322 . S
O20 C2 1.259 . S
O21 Ho1 2.346 . S
O21 C2 1.268 . S
O22 Ho0 2.378 . S
O22 C3 1.215 . S
O23 Ho0 2.524 . S
O23 C3 1.289 . S
O24 Ho0 2.381 . S
O24 C10 1.275 . S
O25 Ho0 2.669 . S
O25 Ho1 2.305 . S
O25 C10 1.256 . S
O26 Ho1 2.322 1_655 S
O26 C11 1.259 . S
O27 Ho0 2.346 1_655 S
O27 C11 1.268 . S
O28 Ho1 2.378 1_655 S
O28 C12 1.215 . S
O29 Ho1 2.524 1_655 S
O29 C12 1.289 . S
O30 Ho1 2.381 . S
O30 C19 1.275 . S
O31 Ho0 2.305 . S
O31 Ho1 2.669 . S
O31 C19 1.256 . S
H32 C5 0.930 . S
H33 C6 0.931 . S
H34 C8 0.934 . S
H35 C9 0.930 . S
H36 C14 0.930 . S
H37 C15 0.931 . S
H38 C17 0.934 . S
H39 C18 0.930 . S
Ho40 C43 2.811 1_545 S
Ho40 O60 2.322 1_545 S
Ho40 O62 2.378 1_545 S
Ho40 O63 2.524 1_545 S
Ho40 O64 2.381 . S
Ho40 O65 2.669 . S
Ho40 O67 2.346 . S
Ho40 O71 2.305 . S
Ho41 C52 2.811 . S
Ho41 O61 2.346 1_545 S
Ho41 O65 2.305 . S
Ho41 O66 2.322 . S
Ho41 O68 2.378 . S
Ho41 O69 2.524 . S
Ho41 O70 2.381 . S
Ho41 O71 2.669 . S
C42 O60 1.259 . S
C42 O61 1.268 . S
C43 Ho40 2.811 1_565 S
C43 C44 1.488 . S
C43 O62 1.215 . S
C43 O63 1.289 . S
C44 C43 1.488 . S
C44 C45 1.348 . S
C44 C49 1.413 . S
C45 C44 1.348 . S
C45 C46 1.442 . S
C45 H72 0.930 . S
C46 C45 1.442 . S
C46 C47 1.381 . S
C46 H73 0.931 . S
C47 C46 1.381 . S
C47 C48 1.321 . S
C48 C47 1.321 . S
C48 C49 1.403 . S
C48 H74 0.934 . S
C49 C44 1.413 . S
C49 C48 1.403 . S
C49 H75 0.930 . S
C50 O64 1.275 . S
C50 O65 1.256 . S
C51 O66 1.259 . S
C51 O67 1.268 . S
C52 Ho41 2.811 . S
C52 C53 1.488 . S
C52 O68 1.215 . S
C52 O69 1.289 . S
C53 C52 1.488 . S
C53 C54 1.348 . S
C53 C58 1.413 . S
C54 C53 1.348 . S
C54 C55 1.442 . S
C54 H76 0.930 . S
C55 C54 1.442 . S
C55 C56 1.381 . S
C55 H77 0.931 . S
C56 C55 1.381 . S
C56 C57 1.321 . S
C57 C56 1.321 . S
C57 C58 1.403 . S
C57 H78 0.934 . S
C58 C53 1.413 . S
C58 C57 1.403 . S
C58 H79 0.930 . S
C59 O70 1.275 . S
C59 O71 1.256 . S
O60 Ho40 2.322 1_565 S
O60 C42 1.259 . S
O61 Ho41 2.346 1_565 S
O61 C42 1.268 . S
O62 Ho40 2.378 1_565 S
O62 C43 1.215 . S
O63 Ho40 2.524 1_565 S
O63 C43 1.289 . S
O64 Ho40 2.381 . S
O64 C50 1.275 . S
O65 Ho40 2.669 . S
O65 Ho41 2.305 . S
O65 C50 1.256 . S
O66 Ho41 2.322 . S
O66 C51 1.259 . S
O67 Ho40 2.346 . S
O67 C51 1.268 . S
O68 Ho41 2.378 . S
O68 C52 1.215 . S
O69 Ho41 2.524 . S
O69 C52 1.289 . S
O70 Ho41 2.381 . S
O70 C59 1.275 . S
O71 Ho40 2.305 . S
O71 Ho41 2.669 . S
O71 C59 1.256 . S
H72 C45 0.930 . S
H73 C46 0.931 . S
H74 C48 0.934 . S
H75 C49 0.930 . S
H76 C54 0.930 . S
H77 C55 0.931 . S
H78 C57 0.934 . S
H79 C58 0.930 . S
Ho80 C83 2.811 . S
Ho80 O100 2.322 . S
Ho80 O102 2.378 . S
Ho80 O103 2.524 . S
Ho80 O104 2.381 . S
Ho80 O105 2.669 . S
Ho80 O107 2.346 . S
Ho80 O111 2.305 . S
Ho81 C92 2.811 . S
Ho81 O101 2.346 . S
Ho81 O105 2.305 . S
Ho81 O106 2.322 . S
Ho81 O108 2.378 . S
Ho81 O109 2.524 . S
Ho81 O110 2.381 . S
Ho81 O111 2.669 . S
C82 O100 1.259 . S
C82 O101 1.268 . S
C83 Ho80 2.811 . S
C83 C84 1.488 . S
C83 O102 1.215 . S
C83 O103 1.289 . S
C84 C83 1.488 . S
C84 C85 1.348 . S
C84 C89 1.413 . S
C85 C84 1.348 . S
C85 C86 1.442 . S
C85 H112 0.930 . S
C86 C85 1.442 . S
C86 C87 1.381 . S
C86 H113 0.931 . S
C87 C86 1.381 . S
C87 C88 1.321 . S
C88 C87 1.321 . S
C88 C89 1.403 . S
C88 H114 0.934 . S
C89 C84 1.413 . S
C89 C88 1.403 . S
C89 H115 0.930 . S
C90 O104 1.275 . S
C90 O105 1.256 . S
C91 O106 1.259 . S
C91 O107 1.268 . S
C92 Ho81 2.811 . S
C92 C93 1.488 . S
C92 O108 1.215 . S
C92 O109 1.289 . S
C93 C92 1.488 . S
C93 C94 1.348 . S
C93 C98 1.413 . S
C94 C93 1.348 . S
C94 C95 1.442 . S
C94 H116 0.930 . S
C95 C94 1.442 . S
C95 C96 1.381 . S
C95 H117 0.931 . S
C96 C95 1.381 . S
C96 C97 1.321 . S
C97 C96 1.321 . S
C97 C98 1.403 . S
C97 H118 0.934 . S
C98 C93 1.413 . S
C98 C97 1.403 . S
C98 H119 0.930 . S
C99 O110 1.275 . S
C99 O111 1.256 . S
O100 Ho80 2.322 . S
O100 C82 1.259 . S
O101 Ho81 2.346 . S
O101 C82 1.268 . S
O102 Ho80 2.378 . S
O102 C83 1.215 . S
O103 Ho80 2.524 . S
O103 C83 1.289 . S
O104 Ho80 2.381 . S
O104 C90 1.275 . S
O105 Ho80 2.669 . S
O105 Ho81 2.305 . S
O105 C90 1.256 . S
O106 Ho81 2.322 . S
O106 C91 1.259 . S
O107 Ho80 2.346 . S
O107 C91 1.268 . S
O108 Ho81 2.378 . S
O108 C92 1.215 . S
O109 Ho81 2.524 . S
O109 C92 1.289 . S
O110 Ho81 2.381 . S
O110 C99 1.275 . S
O111 Ho80 2.305 . S
O111 Ho81 2.669 . S
O111 C99 1.256 . S
H112 C85 0.930 . S
H113 C86 0.931 . S
H114 C88 0.934 . S
H115 C89 0.930 . S
H116 C94 0.930 . S
H117 C95 0.931 . S
H118 C97 0.934 . S
H119 C98 0.930 . S
H120 C121 0.949 . S
C121 H120 0.949 . S
C121 C122 1.395 . S
C121 C123 1.391 . S
C122 C121 1.395 . S
C122 C125 1.390 1_545 S
C123 C121 1.391 . S
C123 C127 1.387 . S
C123 C128 1.491 . S
H124 C125 0.950 . S
C125 C122 1.390 1_565 S
C125 H124 0.950 . S
C125 C126 1.378 . S
C126 C125 1.378 . S
C126 C127 1.409 1_565 S
C127 C123 1.387 . S
C127 C126 1.409 1_545 S
C127 H129 0.951 1_545 S
C128 C123 1.491 . S
C128 C130 1.382 . S
C128 C132 1.404 . S
H129 C127 0.951 1_565 S
C130 C128 1.382 . S
C130 C131 1.390 . S
C130 H135 0.949 . S
C131 C130 1.390 . S
C131 C136 1.399 . S
C132 C128 1.404 . S
C132 H133 0.950 . S
C132 C134 1.375 . S
H133 C132 0.950 . S
C134 C132 1.375 . S
C134 C136 1.382 . S
C134 H138 0.950 . S
H135 C130 0.949 . S
C136 C131 1.399 . S
C136 C134 1.382 . S
C136 H137 0.952 . S
H137 C136 0.952 . S
H138 C134 0.950 . S
H139 C140 0.949 . S
C140 H139 0.949 . S
C140 C141 1.395 . S
C140 C142 1.391 . S
C141 C140 1.395 . S
C141 C144 1.390 . S
C142 C140 1.391 . S
C142 C146 1.387 . S
C142 C147 1.491 . S
H143 C144 0.950 . S
C144 C141 1.390 . S
C144 H143 0.950 . S
C144 C145 1.378 . S
C145 C144 1.378 . S
C145 C146 1.409 . S
C146 C142 1.387 . S
C146 C145 1.409 . S
C146 H148 0.951 . S
C147 C142 1.491 . S
C147 C149 1.382 . S
C147 C151 1.404 . S
H148 C146 0.951 . S
C149 C147 1.382 . S
C149 C150 1.390 . S
C149 H154 0.949 . S
C150 C149 1.390 . S
C150 C155 1.399 . S
C151 C147 1.404 . S
C151 H152 0.950 . S
C151 C153 1.375 . S
H152 C151 0.950 . S
C153 C151 1.375 . S
C153 C155 1.382 . S
C153 H157 0.950 . S
H154 C149 0.949 . S
C155 C150 1.399 . S
C155 C153 1.382 . S
C155 H156 0.952 . S
H156 C155 0.952 . S
H157 C153 0.950 . S
H158 C159 0.949 . S
C159 H158 0.949 . S
C159 C160 1.395 . S
C159 C161 1.391 . S
C160 C159 1.395 . S
C160 C163 1.390 . S
C161 C159 1.391 . S
C161 C165 1.387 . S
C161 C166 1.491 . S
H162 C163 0.950 1_655 S
C163 C160 1.390 . S
C163 H162 0.950 1_455 S
C163 C164 1.378 1_455 S
C164 C163 1.378 1_655 S
C164 C165 1.409 1_655 S
C165 C161 1.387 . S
C165 C164 1.409 1_455 S
C165 H167 0.951 . S
C166 C161 1.491 . S
C166 C168 1.382 . S
C166 C170 1.404 . S
H167 C165 0.951 . S
C168 C166 1.382 . S
C168 C169 1.390 . S
C168 H173 0.949 . S
C169 C168 1.390 . S
C169 C174 1.399 . S
C170 C166 1.404 . S
C170 H171 0.950 . S
C170 C172 1.375 . S
H171 C170 0.950 . S
C172 C170 1.375 . S
C172 C174 1.382 . S
C172 H176 0.950 . S
H173 C168 0.949 . S
C174 C169 1.399 . S
C174 C172 1.382 . S
C174 H175 0.952 . S
H175 C174 0.952 . S
H176 C172 0.950 . S
H177 C178 0.949 1_655 S
C178 H177 0.949 1_455 S
C178 C179 1.395 . S
C178 C180 1.391 . S
C179 C178 1.395 . S
C179 C182 1.390 . S
C180 C178 1.391 . S
C180 C184 1.387 . S
C180 C185 1.491 1_455 S
H181 C182 0.950 . S
C182 C179 1.390 . S
C182 H181 0.950 . S
C182 C183 1.378 . S
C183 C182 1.378 . S
C183 C184 1.409 . S
C184 C180 1.387 . S
C184 C183 1.409 . S
C184 H186 0.951 . S
C185 C180 1.491 1_655 S
C185 C187 1.382 . S
C185 C189 1.404 . S
H186 C184 0.951 . S
C187 C185 1.382 . S
C187 C188 1.390 . S
C187 H192 0.949 . S
C188 C187 1.390 . S
C188 C193 1.399 . S
C189 C185 1.404 . S
C189 H190 0.950 . S
C189 C191 1.375 . S
H190 C189 0.950 . S
C191 C189 1.375 . S
C191 C193 1.382 . S
C191 H195 0.950 . S
H192 C187 0.949 . S
C193 C188 1.399 . S
C193 C191 1.382 . S
C193 H194 0.952 . S
H194 C193 0.952 . S
H195 C191 0.950 . S
H196 C197 0.939 1_565 S
C197 H196 0.939 1_545 S
C197 C198 1.395 . S
C197 C199 1.391 . S
C198 C197 1.395 . S
C198 C201 1.390 . S
C199 C197 1.391 . S
C199 C203 1.387 . S
C199 C204 1.482 1_545 S
H200 C201 0.950 . S
C201 C198 1.390 . S
C201 H200 0.950 . S
C201 C202 1.378 . S
C202 C201 1.378 . S
C202 C203 1.409 . S
C203 C199 1.387 . S
C203 C202 1.409 . S
C203 H205 0.951 . S
C204 C199 1.482 1_565 S
C204 C206 1.392 . S
C204 C208 1.404 . S
H205 C203 0.951 . S
C206 C204 1.392 . S
C206 C207 1.390 . S
C206 H211 0.949 . S
C207 C206 1.390 . S
C207 C212 1.399 . S
C208 C204 1.404 . S
C208 H209 0.950 . S
C208 C210 1.375 . S
H209 C208 0.950 . S
C210 C208 1.375 . S
C210 C212 1.382 . S
C210 H214 0.950 . S
H211 C206 0.949 . S
C212 C207 1.399 . S
C212 C210 1.382 . S
C212 H213 0.952 . S
H213 C212 0.952 . S
H214 C210 0.950 . S
H215 C216 0.949 . S
C216 H215 0.949 . S
C216 C217 1.395 . S
C216 C218 1.391 . S
C217 C216 1.395 . S
C217 C220 1.390 . S
C218 C216 1.391 . S
C218 C222 1.387 . S
C218 C223 1.491 . S
H219 C220 0.950 . S
C220 C217 1.390 . S
C220 H219 0.950 . S
C220 C221 1.378 . S
C221 C220 1.378 . S
C221 C222 1.409 . S
C222 C218 1.387 . S
C222 C221 1.409 . S
C222 H224 0.951 . S
C223 C218 1.491 . S
C223 C225 1.382 . S
C223 C227 1.404 . S
H224 C222 0.951 . S
C225 C223 1.382 . S
C225 C226 1.390 . S
C225 H230 0.949 . S
C226 C225 1.390 . S
C226 C231 1.399 . S
C227 C223 1.404 . S
C227 H228 0.950 . S
C227 C229 1.375 . S
H228 C227 0.950 . S
C229 C227 1.375 . S
C229 C231 1.382 . S
C229 H233 0.950 . S
H230 C225 0.949 . S
C231 C226 1.399 . S
C231 C229 1.382 . S
C231 H232 0.952 . S
H232 C231 0.952 . S
H233 C229 0.950 . S
C234 C235 1.387 . S
C234 H238 0.950 . S
C234 C243 1.390 . S
C235 C234 1.387 . S
C235 C237 1.387 . S
H236 C243 0.950 . S
C237 C235 1.387 . S
C237 C239 1.390 . S
C237 H241 0.950 . S
H238 C234 0.950 . S
C239 C237 1.390 . S
C239 C240 1.387 . S
C239 H242 0.950 . S
C240 C239 1.387 . S
C240 C243 1.387 . S
H241 C237 0.950 . S
H242 C239 0.950 . S
C243 C234 1.390 . S
C243 H236 0.950 . S
C243 C240 1.387 . S
C244 C245 1.387 . S
C244 H248 0.950 . S
C244 C253 1.390 . S
C245 C244 1.387 . S
C245 C247 1.387 . S
H246 C253 0.950 . S
C247 C245 1.387 . S
C247 C249 1.390 . S
C247 H251 0.950 . S
H248 C244 0.950 . S
C249 C247 1.390 . S
C249 C250 1.387 . S
C249 H252 0.950 . S
C250 C249 1.387 . S
C250 C253 1.387 . S
H251 C247 0.950 . S
H252 C249 0.950 . S
C253 C244 1.390 . S
C253 H246 0.950 . S
C253 C250 1.387 . S
C254 C255 1.387 . S
C254 H258 0.950 . S
C254 C263 1.390 . S
C255 C254 1.387 . S
C255 C257 1.387 . S
H256 C263 0.950 . S
C257 C255 1.387 . S
C257 C259 1.390 . S
C257 H261 0.950 . S
H258 C254 0.950 . S
C259 C257 1.390 . S
C259 C260 1.387 . S
C259 H262 0.950 . S
C260 C259 1.387 . S
C260 C263 1.387 . S
H261 C257 0.950 . S
H262 C259 0.950 . S
C263 C254 1.390 . S
C263 H256 0.950 . S
C263 C260 1.387 . S
C264 C265 1.387 . S
C264 H268 0.950 . S
C264 C273 1.390 . S
C265 C264 1.387 . S
C265 C267 1.387 . S
H266 C273 0.950 . S
C267 C265 1.387 . S
C267 C269 1.390 . S
C267 H271 0.950 . S
H268 C264 0.950 . S
C269 C267 1.390 . S
C269 C270 1.387 . S
C269 H272 0.950 . S
C270 C269 1.387 . S
C270 C273 1.387 . S
H271 C267 0.950 . S
H272 C269 0.950 . S
C273 C264 1.390 . S
C273 H266 0.950 . S
C273 C270 1.387 . S
C274 C275 1.387 . S
C274 H278 0.950 . S
C274 C283 1.390 . S
C275 C274 1.387 . S
C275 C277 1.387 . S
H276 C283 0.950 . S
C277 C275 1.387 . S
C277 C279 1.390 . S
C277 H281 0.950 . S
H278 C274 0.950 . S
C279 C277 1.390 . S
C279 C280 1.387 . S
C279 H282 0.950 . S
C280 C279 1.387 . S
C280 C283 1.387 . S
H281 C277 0.950 . S
H282 C279 0.950 . S
C283 C274 1.390 . S
C283 H276 0.950 . S
C283 C280 1.387 . S
C284 C285 1.387 . S
C284 H288 0.950 . S
C284 C293 1.390 . S
C285 C284 1.387 . S
C285 C287 1.387 . S
H286 C293 0.950 . S
C287 C285 1.387 . S
C287 C289 1.390 . S
C287 H291 0.950 . S
H288 C284 0.950 . S
C289 C287 1.390 . S
C289 C290 1.387 . S
C289 H292 0.950 . S
C290 C289 1.387 . S
C290 C293 1.387 . S
H291 C287 0.950 . S
H292 C289 0.950 . S
C293 C284 1.390 . S
C293 H286 0.950 . S
C293 C290 1.387 . S
C294 C295 1.387 . S
C294 H298 0.950 . S
C294 C303 1.390 . S
C295 C294 1.387 . S
C295 C297 1.387 . S
H296 C303 0.950 . S
C297 C295 1.387 . S
C297 C299 1.390 . S
C297 H301 0.950 . S
H298 C294 0.950 . S
C299 C297 1.390 . S
C299 C300 1.387 . S
C299 H302 0.950 . S
C300 C299 1.387 . S
C300 C303 1.387 . S
H301 C297 0.950 . S
H302 C299 0.950 . S
C303 C294 1.390 . S
C303 H296 0.950 . S
C303 C300 1.387 . S
C304 C305 1.387 . S
C304 H308 0.950 . S
C304 C313 1.390 . S
C305 C304 1.387 . S
C305 C307 1.387 . S
H306 C313 0.950 . S
C307 C305 1.387 . S
C307 C309 1.390 . S
C307 H311 0.950 . S
H308 C304 0.950 . S
C309 C307 1.390 . S
C309 C310 1.387 . S
C309 H312 0.950 . S
C310 C309 1.387 . S
C310 C313 1.387 . S
H311 C307 0.950 . S
H312 C309 0.950 . S
C313 C304 1.390 . S
C313 H306 0.950 . S
C313 C310 1.387 . S
C314 C315 1.387 . S
C314 H318 0.950 . S
C314 C323 1.390 . S
C315 C314 1.387 . S
C315 C317 1.387 . S
H316 C323 0.950 . S
C317 C315 1.387 . S
C317 C319 1.390 . S
C317 H321 0.950 . S
H318 C314 0.950 . S
C319 C317 1.390 . S
C319 C320 1.387 . S
C319 H322 0.950 . S
C320 C319 1.387 . S
C320 C323 1.387 . S
H321 C317 0.950 . S
H322 C319 0.950 . S
C323 C314 1.390 . S
C323 H316 0.950 . S
C323 C320 1.387 . S
C324 C325 1.387 . S
C324 H328 0.950 . S
C324 C333 1.390 . S
C325 C324 1.387 . S
C325 C327 1.387 . S
H326 C333 0.950 . S
C327 C325 1.387 . S
C327 C329 1.390 . S
C327 H331 0.950 . S
H328 C324 0.950 . S
C329 C327 1.390 . S
C329 C330 1.387 . S
C329 H332 0.950 . S
C330 C329 1.387 . S
C330 C333 1.387 . S
H331 C327 0.950 . S
H332 C329 0.950 . S
C333 C324 1.390 . S
C333 H326 0.950 . S
C333 C330 1.387 . S
C334 C335 1.387 . S
C334 H338 0.950 . S
C334 C343 1.390 . S
C335 C334 1.387 . S
C335 C337 1.387 . S
H336 C343 0.950 . S
C337 C335 1.387 . S
C337 C339 1.390 . S
C337 H341 0.950 . S
H338 C334 0.950 . S
C339 C337 1.390 . S
C339 C340 1.387 . S
C339 H342 0.950 . S
C340 C339 1.387 . S
C340 C343 1.387 . S
H341 C337 0.950 . S
H342 C339 0.950 . S
C343 C334 1.390 . S
C343 H336 0.950 . S
C343 C340 1.387 . S
C344 C345 1.387 . S
C344 H348 0.950 . S
C344 C353 1.390 . S
C345 C344 1.387 . S
C345 C347 1.387 . S
H346 C353 0.950 . S
C347 C345 1.387 . S
C347 C349 1.390 . S
C347 H351 0.950 . S
H348 C344 0.950 . S
C349 C347 1.390 . S
C349 C350 1.387 . S
C349 H352 0.950 . S
C350 C349 1.387 . S
C350 C353 1.387 . S
H351 C347 0.950 . S
H352 C349 0.950 . S
C353 C344 1.390 . S
C353 H346 0.950 . S
C353 C350 1.387 . S
C354 C355 1.387 . S
C354 H358 0.950 . S
C354 C363 1.390 1_554 S
C355 C354 1.387 . S
C355 C357 1.387 . S
H356 C363 0.950 . S
C357 C355 1.387 . S
C357 C359 1.390 . S
C357 H361 0.950 . S
H358 C354 0.950 . S
C359 C357 1.390 . S
C359 C360 1.387 1_554 S
C359 H362 0.950 1_554 S
C360 C359 1.387 1_556 S
C360 C363 1.387 . S
H361 C357 0.950 . S
H362 C359 0.950 1_556 S
C363 C354 1.390 1_556 S
C363 H356 0.950 . S
C363 C360 1.387 . S
C364 C365 1.387 . S
C364 H368 0.950 . S
C364 C373 1.390 . S
C365 C364 1.387 . S
C365 C367 1.387 1_545 S
H366 C373 0.950 . S
C367 C365 1.387 1_565 S
C367 C369 1.390 . S
C367 H371 0.950 . S
H368 C364 0.950 . S
C369 C367 1.390 . S
C369 C370 1.387 1_565 S
C369 H372 0.950 . S
C370 C369 1.387 1_545 S
C370 C373 1.387 . S
H371 C367 0.950 . S
H372 C369 0.950 . S
C373 C364 1.390 . S
C373 H366 0.950 . S
C373 C370 1.387 . S
C374 C375 1.387 . S
C374 H378 0.950 . S
C374 C383 1.390 . S
C375 C374 1.387 . S
C375 C377 1.387 . S
H376 C383 0.950 . S
C377 C375 1.387 . S
C377 C379 1.390 . S
C377 H381 0.950 . S
H378 C374 0.950 . S
C379 C377 1.390 . S
C379 C380 1.387 . S
C379 H382 0.950 . S
C380 C379 1.387 . S
C380 C383 1.387 . S
H381 C377 0.950 . S
H382 C379 0.950 . S
C383 C374 1.390 . S
C383 H376 0.950 . S
C383 C380 1.387 . S
C384 C385 1.387 . S
C384 H388 0.950 1_545 S
C384 C393 1.390 . S
C385 C384 1.387 . S
C385 C387 1.387 . S
H386 C393 0.950 1_565 S
C387 C385 1.387 . S
C387 C389 1.390 . S
C387 H391 0.950 . S
H388 C384 0.950 1_565 S
C389 C387 1.390 . S
C389 C390 1.387 . S
C389 H392 0.950 . S
C390 C389 1.387 . S
C390 C393 1.387 . S
H391 C387 0.950 . S
H392 C389 0.950 . S
C393 C384 1.390 . S
C393 H386 0.950 1_545 S
C393 C390 1.387 . S
C394 C395 1.387 . S
C394 H398 0.950 . S
C394 C403 1.390 1_556 S
C395 C394 1.387 . S
C395 C397 1.387 . S
H396 C403 0.950 . S
C397 C395 1.387 . S
C397 C399 1.390 1_556 S
C397 H401 0.950 . S
H398 C394 0.950 . S
C399 C397 1.390 1_554 S
C399 C400 1.387 . S
C399 H402 0.950 . S
C400 C399 1.387 . S
C400 C403 1.387 . S
H401 C397 0.950 . S
H402 C399 0.950 . S
C403 C394 1.390 1_554 S
C403 H396 0.950 . S
C403 C400 1.387 . S
C404 C405 1.387 . S
C404 H408 0.950 1_455 S
C404 C413 1.390 1_455 S
C405 C404 1.387 . S
C405 C407 1.387 . S
H406 C413 0.950 . S
C407 C405 1.387 . S
C407 C409 1.390 . S
C407 H411 0.950 . S
H408 C404 0.950 1_655 S
C409 C407 1.390 . S
C409 C410 1.387 . S
C409 H412 0.950 . S
C410 C409 1.387 . S
C410 C413 1.387 1_455 S
H411 C407 0.950 . S
H412 C409 0.950 . S
C413 C404 1.390 1_655 S
C413 H406 0.950 . S
C413 C410 1.387 1_655 S
C235 C7 1.125 . S
C240 C226 0.994 . S
C245 C51 2.008 . S
C250 C188 1.955 . S
C255 C87 1.362 . S
C260 C207 1.310 . S
C265 C16 0.590 . S
C270 C221 0.442 . S
C280 C183 1.896 . S
C275 C42 1.943 . S
C290 C202 1.187 . S
C285 C96 1.192 . S
C295 C47 1.382 . S
C300 C150 1.272 . S
C305 C91 3.114 . S
C310 C164 3.076 . S
C315 C2 1.967 . S
C320 C126 1.949 . S
C330 C145 1.171 . S
C325 C56 1.164 . S
C340 C169 3.081 . S
C335 C82 3.136 . S
C345 C11 2.026 . S
C350 C131 1.984 . S
C360 C160 1.746 . S
C355 C19 1.728 . S
C365 C50 1.448 . S
C370 C122 1.512 . S
C375 C99 1.545 . S
C380 C141 1.557 . S
C390 C198 1.537 . S
C385 C59 1.551 . S
C400 C217 1.301 . S
C395 C90 1.307 . S
C405 C10 1.423 . S
C410 C179 1.460 . S
