# Generated by pormake.
# Topology zzz, (3,6)-cn, num edge types: 1
# Building blocks:
#     Node 0, Type 0, BuildingBlock: VETTIZ_charged_linker_0, # of connection points: 3
#     Node 1, Type 0, BuildingBlock: VETTIZ_charged_linker_0, # of connection points: 3
#     Node 2, Type 0, BuildingBlock: VETTIZ_charged_linker_0, # of connection points: 3
#     Node 3, Type 0, BuildingBlock: VETTIZ_charged_linker_0, # of connection points: 3
#     Node 4, Type 0, BuildingBlock: VETTIZ_charged_linker_0, # of connection points: 3
#     Node 5, Type 0, BuildingBlock: VETTIZ_charged_linker_0, # of connection points: 3
#     Node 6, Type 0, BuildingBlock: VETTIZ_charged_linker_0, # of connection points: 3
#     Node 7, Type 0, BuildingBlock: VETTIZ_charged_linker_0, # of connection points: 3
#     Node 8, Type 1, BuildingBlock: CUKXOW_clean_sbu_0, # of connection points: 6
#     Node 9, Type 1, BuildingBlock: CUKXOW_clean_sbu_0, # of connection points: 6
#     Node 10, Type 1, BuildingBlock: CUKXOW_clean_sbu_0, # of connection points: 6
#     Node 11, Type 1, BuildingBlock: CUKXOW_clean_sbu_0, # of connection points: 6
#     Edge 12, Type (0, 1), BuildingBlock: OJICUG_clean_linker_0, # of connection points: 2
#     Edge 13, Type (0, 1), BuildingBlock: OJICUG_clean_linker_0, # of connection points: 2
#     Edge 14, Type (0, 1), BuildingBlock: OJICUG_clean_linker_0, # of connection points: 2
#     Edge 15, Type (0, 1), BuildingBlock: OJICUG_clean_linker_0, # of connection points: 2
#     Edge 16, Type (0, 1), BuildingBlock: OJICUG_clean_linker_0, # of connection points: 2
#     Edge 17, Type (0, 1), BuildingBlock: OJICUG_clean_linker_0, # of connection points: 2
#     Edge 18, Type (0, 1), BuildingBlock: OJICUG_clean_linker_0, # of connection points: 2
#     Edge 19, Type (0, 1), BuildingBlock: OJICUG_clean_linker_0, # of connection points: 2
#     Edge 20, Type (0, 1), BuildingBlock: OJICUG_clean_linker_0, # of connection points: 2
#     Edge 21, Type (0, 1), BuildingBlock: OJICUG_clean_linker_0, # of connection points: 2
#     Edge 22, Type (0, 1), BuildingBlock: OJICUG_clean_linker_0, # of connection points: 2
#     Edge 23, Type (0, 1), BuildingBlock: OJICUG_clean_linker_0, # of connection points: 2
#     Edge 24, Type (0, 1), BuildingBlock: OJICUG_clean_linker_0, # of connection points: 2
#     Edge 25, Type (0, 1), BuildingBlock: OJICUG_clean_linker_0, # of connection points: 2
#     Edge 26, Type (0, 1), BuildingBlock: OJICUG_clean_linker_0, # of connection points: 2
#     Edge 27, Type (0, 1), BuildingBlock: OJICUG_clean_linker_0, # of connection points: 2
#     Edge 28, Type (0, 1), BuildingBlock: OJICUG_clean_linker_0, # of connection points: 2
#     Edge 29, Type (0, 1), BuildingBlock: OJICUG_clean_linker_0, # of connection points: 2
#     Edge 30, Type (0, 1), BuildingBlock: OJICUG_clean_linker_0, # of connection points: 2
#     Edge 31, Type (0, 1), BuildingBlock: OJICUG_clean_linker_0, # of connection points: 2
#     Edge 32, Type (0, 1), BuildingBlock: OJICUG_clean_linker_0, # of connection points: 2
#     Edge 33, Type (0, 1), BuildingBlock: OJICUG_clean_linker_0, # of connection points: 2
#     Edge 34, Type (0, 1), BuildingBlock: OJICUG_clean_linker_0, # of connection points: 2
#     Edge 35, Type (0, 1), BuildingBlock: OJICUG_clean_linker_0, # of connection points: 2
# Relax obj value: 0.216
# Max RMSD: 0.232
# Mean RMSD: 0.188
data_MOF--net-zzz--node1-CUKXOW_clean_sbu_0--node2-VETTIZ_charged_linker_0--edge1-OJICUG_clean_linker_0
_symmetry_space_group_name_H-M    P1
_symmetry_Int_Tables_number       1
_symmetry_cell_setting            triclinic
loop_
_symmetry_equiv_pos_as_xyz
'x, y, z'
_cell_length_a     44.398732
_cell_length_b     44.370111
_cell_length_c     16.05913
_cell_angle_alpha  93.073085
_cell_angle_beta   87.637122
_cell_angle_gamma 95.507066
loop_
_atom_site_label
_atom_site_type_symbol
_atom_site_fract_x
_atom_site_fract_y
_atom_site_fract_z
_atom_type_partial_charge
C0 C 0.80328 0.48383 0.35547 0.0
C1 C 0.82166 0.46528 0.39714 0.0
C2 C 0.82054 0.43406 0.37298 0.0
C3 C 0.79257 0.4429 0.25349 0.0
C4 C 0.78752 0.47135 0.28508 0.0
C5 C 0.76643 0.48551 0.22931 0.0
H6 H 0.69999 0.47728 0.85179 0.0
C7 C 0.78221 0.43901 0.16865 0.0
C8 C 0.76175 0.46062 0.15904 0.0
H9 H 0.64982 0.4893 0.08561 0.0
H10 H 0.69406 0.47816 0.16127 0.0
H11 H 0.76646 0.5088 0.90529 0.0
H12 H 0.7241 0.41768 0.90284 0.0
H13 H 0.76129 0.41735 0.85917 0.0
H14 H 0.7347 0.43843 0.81137 0.0
H15 H 0.76867 0.4838 0.81438 0.0
H16 H 0.79637 0.48553 0.89422 0.0
C17 C 0.78231 0.51497 0.19515 0.0
C18 C 0.73711 0.49172 0.27879 0.0
C19 C 0.86636 0.41149 0.96702 0.0
C20 C 0.87394 0.42153 0.88687 0.0
C21 C 0.85095 0.43056 0.83845 0.0
C22 C 0.82173 0.43292 0.87346 0.0
C23 C 0.81582 0.42695 0.95805 0.0
C24 C 0.8378 0.41577 0.00308 0.0
C25 C 0.83015 0.41609 0.0953 0.0
C26 C 0.79907 0.42834 0.09775 0.0
C27 C 0.79137 0.4353 0.01738 0.0
C28 C 0.85425 0.43829 0.13989 0.0
C29 C 0.82922 0.38352 0.12592 0.0
C30 C 0.69893 0.47947 0.91932 0.0
C31 C 0.67171 0.48536 0.96246 0.0
C32 C 0.67072 0.48583 0.05081 0.0
C33 C 0.69637 0.48054 0.09491 0.0
C34 C 0.72343 0.47561 0.05057 0.0
C35 C 0.72405 0.47373 0.96419 0.0
C36 C 0.75216 0.46054 0.92834 0.0
C37 C 0.76636 0.45225 0.0075 0.0
C38 C 0.75094 0.46368 0.07826 0.0
C39 C 0.77198 0.48575 0.88271 0.0
C40 C 0.74277 0.43204 0.87197 0.0
H41 H 0.80533 0.39902 0.2823 0.0
H42 H 0.8023 0.50745 0.3751 0.0
H43 H 0.72297 0.47021 0.29055 0.0
H44 H 0.72394 0.50692 0.2452 0.0
H45 H 0.74236 0.50354 0.34001 0.0
H46 H 0.80406 0.51059 0.16195 0.0
H47 H 0.78714 0.53229 0.24662 0.0
H48 H 0.76773 0.5245 0.15051 0.0
H49 H 0.8836 0.40388 0.00457 0.0
H50 H 0.85613 0.43825 0.77613 0.0
H51 H 0.80546 0.44124 0.8351 0.0
H52 H 0.85409 0.46156 0.11747 0.0
H53 H 0.87735 0.43102 0.12844 0.0
H54 H 0.85087 0.43959 0.20817 0.0
H55 H 0.8438 0.36925 0.0858 0.0
H56 H 0.80585 0.37203 0.12594 0.0
H57 H 0.8381 0.38339 0.18932 0.0
H58 H 0.83326 0.41892 0.40524 0.0
C59 C 0.80556 0.42267 0.30138 0.0
C60 C 0.95736 0.83235 0.86122 0.0
C61 C 0.94971 0.8624 0.87491 0.0
C62 C 0.92185 0.86742 0.91677 0.0
C63 C 0.91714 0.81608 0.95861 0.0
C64 C 0.93996 0.80919 0.90237 0.0
C65 C 0.94501 0.77614 0.90253 0.0
H66 H 0.95736 0.65425 0.10154 0.0
C67 C 0.91097 0.79117 0.01464 0.0
C68 C 0.92363 0.76615 0.97562 0.0
H69 H 0.93205 0.65437 0.84381 0.0
H70 H 0.91655 0.70559 0.86901 0.0
H71 H 0.98735 0.72879 0.1251 0.0
H72 H 0.89555 0.68812 0.1674 0.0
H73 H 0.9076 0.7127 0.25254 0.0
H74 H 0.92622 0.67888 0.22818 0.0
H75 H 0.97808 0.7022 0.20497 0.0
H76 H 0.97193 0.74157 0.22214 0.0
C77 C 0.97836 0.77246 0.92021 0.0
C78 C 0.9362 0.76086 0.8174 0.0
C79 C 0.91091 0.82943 0.31638 0.0
C80 C 0.92407 0.81955 0.38665 0.0
C81 C 0.93249 0.78959 0.3843 0.0
C82 C 0.92927 0.77059 0.31136 0.0
C83 C 0.91858 0.78203 0.23918 0.0
C84 C 0.9096 0.81109 0.24289 0.0
C85 C 0.90219 0.82136 0.15923 0.0
C86 C 0.90842 0.79359 0.10351 0.0
C87 C 0.91749 0.7703 0.151 0.0
C88 C 0.92343 0.85033 0.13898 0.0
C89 C 0.86833 0.82671 0.16133 0.0
C90 C 0.94986 0.66576 0.04948 0.0
C91 C 0.94723 0.65084 0.96966 0.0
C92 C 0.93543 0.66577 0.90453 0.0
C93 C 0.92791 0.69553 0.91698 0.0
C94 C 0.93349 0.71076 0.99364 0.0
C95 C 0.94179 0.69571 0.06056 0.0
C96 C 0.93868 0.71497 0.14104 0.0
C97 C 0.92624 0.74312 0.10929 0.0
C98 C 0.92598 0.74066 0.02233 0.0
C99 C 0.97059 0.72226 0.17596 0.0
C100 C 0.91592 0.69784 0.20112 0.0
H101 H 0.88496 0.84866 0.99362 0.0
H102 H 0.97767 0.82736 0.82572 0.0
H103 H 0.94461 0.77545 0.76558 0.0
H104 H 0.9112 0.75652 0.81358 0.0
H105 H 0.94684 0.73939 0.80523 0.0
H106 H 0.98498 0.78472 0.97986 0.0
H107 H 0.99377 0.7814 0.8692 0.0
H108 H 0.9819 0.74818 0.92483 0.0
H109 H 0.90449 0.85235 0.31552 0.0
H110 H 0.94245 0.78122 0.43795 0.0
H111 H 0.93635 0.74819 0.31282 0.0
H112 H 0.93281 0.86286 0.19515 0.0
H113 H 0.91125 0.86718 0.10871 0.0
H114 H 0.94341 0.8447 0.0993 0.0
H115 H 0.85425 0.80736 0.18885 0.0
H116 H 0.86003 0.82874 0.09817 0.0
H117 H 0.86424 0.84766 0.19952 0.0
H118 H 0.91411 0.88989 0.92271 0.0
C119 C 0.90528 0.84404 0.95845 0.0
C120 C 0.84569 0.99177 0.09732 0.0
C121 C 0.85752 0.00419 0.02185 0.0
C122 C 0.83843 0.0187 0.97247 0.0
C123 C 0.79576 0.00452 0.06442 0.0
C124 C 0.81455 0.99303 0.11882 0.0
C125 C 0.79643 0.981 0.19472 0.0
H126 H 0.6532 0.94575 0.36236 0.0
C127 C 0.76428 0.99718 0.0927 0.0
C128 C 0.76403 0.98606 0.17271 0.0
H129 H 0.71709 0.01177 0.48084 0.0
H130 H 0.75268 0.00708 0.36003 0.0
H131 H 0.64182 0.96986 0.2489 0.0
H132 H 0.70046 0.90432 0.2147 0.0
H133 H 0.67764 0.90726 0.12739 0.0
H134 H 0.66014 0.90538 0.23029 0.0
H135 H 0.63914 0.94975 0.15315 0.0
H136 H 0.66031 0.98677 0.1615 0.0
C137 C 0.80694 0.99919 0.27408 0.0
C138 C 0.79988 0.94702 0.20158 0.0
C139 C 0.67632 0.00495 0.90961 0.0
C140 C 0.64673 0.99029 0.91182 0.0
C141 C 0.64104 0.96291 0.95332 0.0
C142 C 0.66316 0.95305 0.00217 0.0
C143 C 0.69027 0.97137 0.0114 0.0
C144 C 0.69796 0.99462 0.95896 0.0
C145 C 0.73043 0.00725 0.96713 0.0
C146 C 0.73849 0.99121 0.04354 0.0
C147 C 0.71415 0.97127 0.07113 0.0
C148 C 0.73195 0.04197 0.98468 0.0
C149 C 0.74859 0.9977 0.8867 0.0
C150 C 0.67565 0.95771 0.3646 0.0
C151 C 0.68298 0.9779 0.4322 0.0
C152 C 0.71157 0.99492 0.43114 0.0
C153 C 0.73231 0.99182 0.36258 0.0
C154 C 0.72401 0.97216 0.29399 0.0
C155 C 0.69498 0.95746 0.29343 0.0
C156 C 0.68473 0.94949 0.20594 0.0
C157 C 0.71222 0.96278 0.15518 0.0
C158 C 0.73627 0.97244 0.20713 0.0
C159 C 0.65522 0.96472 0.19111 0.0
C160 C 0.6804 0.91467 0.19367 0.0
H161 H 0.79404 0.03011 0.95348 0.0
H162 H 0.86012 0.98101 0.13713 0.0
H163 H 0.79315 0.93403 0.14305 0.0
H164 H 0.78529 0.93775 0.25388 0.0
H165 H 0.82371 0.94333 0.21333 0.0
H166 H 0.80064 0.02285 0.27422 0.0
H167 H 0.83193 2e-05 0.27821 0.0
H168 H 0.79694 0.98827 0.33064 0.0
H169 H 0.682 0.02512 0.8751 0.0
H170 H 0.61916 0.94988 0.95081 0.0
H171 H 0.65845 0.93221 0.03334 0.0
H172 H 0.7152 0.04775 0.03503 0.0
H173 H 0.72694 0.05357 0.92794 0.0
H174 H 0.75445 0.05153 0.00574 0.0
H175 H 0.7342 0.98395 0.84085 0.0
H176 H 0.76681 0.98343 0.90052 0.0
H177 H 0.75886 0.01772 0.85351 0.0
H178 H 0.8472 0.02892 0.91551 0.0
C179 C 0.80766 0.0189 0.99337 0.0
C180 C 0.59591 0.70259 0.39977 0.0
C181 C 0.61305 0.67904 0.42308 0.0
C182 C 0.6433 0.67883 0.39109 0.0
C183 C 0.63237 0.71284 0.2886 0.0
C184 C 0.60726 0.72064 0.3338 0.0
C185 C 0.59337 0.74554 0.2915 0.0
H186 H 0.57519 0.81375 0.936 0.0
C187 C 0.63163 0.72379 0.20563 0.0
C188 C 0.61366 0.74819 0.21154 0.0
H189 H 0.58738 0.86464 0.17144 0.0
H190 H 0.60345 0.81911 0.23259 0.0
H191 H 0.63799 0.78633 0.94479 0.0
H192 H 0.54605 0.75671 0.97661 0.0
H193 H 0.56105 0.72162 0.98566 0.0
H194 H 0.56658 0.74134 0.88991 0.0
H195 H 0.61 0.77752 0.86719 0.0
H196 H 0.63264 0.74902 0.90002 0.0
C197 C 0.59548 0.77455 0.34856 0.0
C198 C 0.56021 0.73539 0.2708 0.0
C199 C 0.60746 0.63573 0.00133 0.0
C200 C 0.59185 0.63442 0.92681 0.0
C201 C 0.59191 0.66088 0.88207 0.0
C202 C 0.60408 0.6888 0.91644 0.0
C203 C 0.61529 0.69032 0.99704 0.0
C204 C 0.61863 0.66401 0.03636 0.0
C205 C 0.63042 0.67029 0.12272 0.0
C206 C 0.63125 0.70505 0.13074 0.0
C207 C 0.62101 0.71608 0.05753 0.0
C208 C 0.66209 0.65894 0.12413 0.0
C209 C 0.60787 0.65413 0.18605 0.0
C210 C 0.58027 0.81523 0.00159 0.0
C211 C 0.57948 0.84268 0.04913 0.0
C212 C 0.58675 0.8435 0.13427 0.0
C213 C 0.59513 0.81729 0.17031 0.0
C214 C 0.59494 0.79008 0.12151 0.0
C215 C 0.58889 0.78974 0.03791 0.0
C216 C 0.59616 0.76089 0.99139 0.0
C217 C 0.60946 0.74481 0.0604 0.0
C218 C 0.60677 0.76118 0.1369 0.0
C219 C 0.62037 0.76869 0.92163 0.0
C220 C 0.5661 0.7442 0.95905 0.0
H221 H 0.67492 0.69324 0.29213 0.0
H222 H 0.5734 0.705 0.42601 0.0
H223 H 0.55867 0.71372 0.23239 0.0
H224 H 0.55064 0.75278 0.23515 0.0
H225 H 0.546 0.7321 0.32875 0.0
H226 H 0.61912 0.78537 0.34957 0.0
H227 H 0.588 0.7693 0.41354 0.0
H228 H 0.58027 0.79093 0.32832 0.0
H229 H 0.60896 0.61527 0.03408 0.0
H230 H 0.58071 0.66042 0.8233 0.0
H231 H 0.60288 0.70838 0.88105 0.0
H232 H 0.66144 0.63486 0.10074 0.0
H233 H 0.6706 0.65984 0.18781 0.0
H234 H 0.67858 0.67262 0.08405 0.0
H235 H 0.58626 0.66496 0.1911 0.0
H236 H 0.61715 0.65408 0.24845 0.0
H237 H 0.60259 0.62978 0.16819 0.0
H238 H 0.65828 0.66339 0.41327 0.0
C239 C 0.65291 0.69542 0.32174 0.0
C240 C 0.33226 0.52105 0.40042 0.0
C241 C 0.34088 0.52525 0.48455 0.0
C242 C 0.32123 0.53855 0.54361 0.0
C243 C 0.28601 0.54476 0.4365 0.0
C244 C 0.3044 0.53076 0.37787 0.0
C245 C 0.28985 0.52729 0.29333 0.0
H246 H 0.17585 0.56872 0.05825 0.0
C247 C 0.26052 0.55519 0.39396 0.0
C248 C 0.26285 0.5461 0.30885 0.0
H249 H 0.23309 0.49743 0.99269 0.0
H250 H 0.26205 0.51088 0.11834 0.0
H251 H 0.1653 0.54438 0.25204 0.0
H252 H 0.21462 0.6183 0.1304 0.0
H253 H 0.21423 0.63053 0.23688 0.0
H254 H 0.17908 0.62316 0.18331 0.0
H255 H 0.15066 0.57125 0.18804 0.0
H256 H 0.15593 0.58006 0.29477 0.0
C257 C 0.27957 0.4933 0.27652 0.0
C258 C 0.31219 0.54043 0.22564 0.0
C259 C 0.16953 0.59366 0.54663 0.0
C260 C 0.14478 0.60634 0.51436 0.0
C261 C 0.14944 0.62292 0.44171 0.0
C262 C 0.17584 0.62086 0.39219 0.0
C263 C 0.19683 0.60161 0.41572 0.0
C264 C 0.19591 0.59208 0.49596 0.0
C265 C 0.22404 0.57717 0.51292 0.0
C266 C 0.23767 0.57354 0.42433 0.0
C267 C 0.22036 0.58654 0.36761 0.0
C268 C 0.2151 0.54615 0.5511 0.0
C269 C 0.24419 0.59951 0.56978 0.0
C270 C 0.19497 0.5563 0.0701 0.0
C271 C 0.20238 0.53235 0.01545 0.0
C272 C 0.22693 0.51609 0.0341 0.0
C273 C 0.24329 0.52355 0.10753 0.0
C274 C 0.23393 0.54636 0.16478 0.0
C275 C 0.20993 0.56208 0.14496 0.0
C276 C 0.19899 0.58172 0.21632 0.0
C277 C 0.22116 0.57637 0.28234 0.0
C278 C 0.24177 0.55561 0.25266 0.0
C279 C 0.16607 0.56887 0.23952 0.0
C280 C 0.20172 0.61514 0.19067 0.0
H281 H 0.28018 0.55832 0.56787 0.0
H282 H 0.3467 0.51035 0.35407 0.0
H283 H 0.3209 0.56406 0.24425 0.0
H284 H 0.30138 0.54104 0.16509 0.0
H285 H 0.33181 0.5267 0.21615 0.0
H286 H 0.27079 0.48267 0.33499 0.0
H287 H 0.29872 0.48079 0.2512 0.0
H288 H 0.26071 0.4895 0.2335 0.0
H289 H 0.16706 0.58213 0.60456 0.0
H290 H 0.13122 0.63424 0.41808 0.0
H291 H 0.17761 0.63158 0.33372 0.0
H292 H 0.19777 0.53257 0.51315 0.0
H293 H 0.20561 0.54917 0.61576 0.0
H294 H 0.23455 0.53248 0.55351 0.0
H295 H 0.23505 0.62195 0.58047 0.0
H296 H 0.26727 0.60445 0.54155 0.0
H297 H 0.24615 0.59053 0.6324 0.0
H298 H 0.32727 0.54198 0.60836 0.0
C299 C 0.29408 0.54843 0.52 0.0
C300 C 0.06689 0.16998 0.55535 0.0
C301 C 0.07644 0.14055 0.54377 0.0
C302 C 0.10558 0.13718 0.50744 0.0
C303 C 0.10868 0.18851 0.46587 0.0
C304 C 0.08408 0.19399 0.51732 0.0
C305 C 0.07709 0.22644 0.51478 0.0
H306 H 0.06775 0.34828 0.30729 0.0
C307 C 0.11471 0.21345 0.40986 0.0
C308 C 0.09958 0.23751 0.44546 0.0
H309 H 0.09042 0.3501 0.56759 0.0
H310 H 0.10394 0.29796 0.54865 0.0
H311 H 0.12819 0.3098 0.24026 0.0
H312 H 0.03523 0.27415 0.2946 0.0
H313 H 0.05 0.25738 0.20184 0.0
H314 H 0.04482 0.29724 0.207 0.0
H315 H 0.09689 0.32231 0.18789 0.0
H316 H 0.11144 0.28699 0.15647 0.0
C317 C 0.08299 0.24253 0.60073 0.0
C318 C 0.04397 0.22801 0.49064 0.0
C319 C 0.12562 0.17481 0.11001 0.0
C320 C 0.10699 0.17855 0.04341 0.0
C321 C 0.09282 0.20582 0.04327 0.0
C322 C 0.09483 0.22698 0.11207 0.0
C323 C 0.10951 0.21999 0.18355 0.0
C324 C 0.1239 0.19367 0.1821 0.0
C325 C 0.13047 0.18457 0.26787 0.0
C326 C 0.11906 0.21082 0.32133 0.0
C327 C 0.10798 0.23222 0.27106 0.0
C328 C 0.16492 0.18382 0.27439 0.0
C329 C 0.11245 0.15335 0.28422 0.0
C330 C 0.07444 0.33711 0.36097 0.0
C331 C 0.07696 0.35285 0.43974 0.0
C332 C 0.08732 0.33816 0.50746 0.0
C333 C 0.09375 0.30799 0.49841 0.0
C334 C 0.08864 0.29219 0.42229 0.0
C335 C 0.08151 0.30677 0.35316 0.0
C336 C 0.08414 0.28627 0.27467 0.0
C337 C 0.09671 0.25876 0.30965 0.0
C338 C 0.0961 0.26205 0.39638 0.0
C339 C 0.10633 0.30213 0.21093 0.0
C340 C 0.05196 0.27835 0.24198 0.0
H341 H 0.14366 0.1583 0.43866 0.0
H342 H 0.04545 0.17379 0.58666 0.0
H343 H 0.03941 0.21515 0.4304 0.0
H344 H 0.03925 0.25187 0.48389 0.0
H345 H 0.02786 0.21847 0.53935 0.0
H346 H 0.07308 0.22822 0.65161 0.0
H347 H 0.07192 0.26391 0.60801 0.0
H348 H 0.10767 0.24729 0.6104 0.0
H349 H 0.13819 0.15513 0.11145 0.0
H350 H 0.07857 0.21005 0.99296 0.0
H351 H 0.08314 0.24694 0.10953 0.0
H352 H 0.17725 0.20516 0.25272 0.0
H353 H 0.17298 0.16453 0.23545 0.0
H354 H 0.1712 0.18153 0.33955 0.0
H355 H 0.10608 0.13985 0.22647 0.0
H356 H 0.09076 0.15616 0.31948 0.0
H357 H 0.126 0.13835 0.31714 0.0
H358 H 0.11468 0.11533 0.50365 0.0
C359 C 0.12204 0.16146 0.46908 0.0
C360 C 0.32132 0.01142 0.98482 0.0
C361 C 0.34877 0.02867 0.96077 0.0
C362 C 0.35762 0.05594 0.00649 0.0
C363 C 0.31906 0.0431 0.11027 0.0
C364 C 0.30561 0.02053 0.05918 0.0
C365 C 0.2765 0.00691 0.10249 0.0
H366 H 0.19632 0.9974 0.47711 0.0
C367 C 0.30611 0.04051 0.19371 0.0
C368 C 0.27743 0.02458 0.1882 0.0
H369 H 0.15406 0.01323 0.24836 0.0
H370 H 0.2045 0.02018 0.1773 0.0
H371 H 0.25878 0.95885 0.38356 0.0
H372 H 0.23901 0.04897 0.47192 0.0
H373 H 0.27695 0.04526 0.4921 0.0
H374 H 0.24737 0.02132 0.54318 0.0
H375 H 0.24573 0.96838 0.48824 0.0
H376 H 0.2849 0.97453 0.45785 0.0
C377 C 0.27799 0.97277 0.11247 0.0
C378 C 0.24912 0.01254 0.05193 0.0
C379 C 0.38427 0.01358 0.38842 0.0
C380 C 0.38251 0.00316 0.46993 0.0
C381 C 0.35512 0.00521 0.51724 0.0
C382 C 0.32948 0.01428 0.48115 0.0
C383 C 0.33123 0.02186 0.39732 0.0
C384 C 0.35877 0.02353 0.35437 0.0
C385 C 0.35698 0.03431 0.2678 0.0
C386 C 0.32301 0.03776 0.26538 0.0
C387 C 0.30807 0.02808 0.33919 0.0
C388 C 0.36722 0.00938 0.2044 0.0
C389 C 0.3771 0.06457 0.26041 0.0
C390 C 0.19759 0.00074 0.41063 0.0
C391 C 0.17128 0.00395 0.36789 0.0
C392 C 0.17397 0.00957 0.28184 0.0
C393 C 0.2028 0.01286 0.24027 0.0
C394 C 0.22878 0.00929 0.28451 0.0
C395 C 0.22586 0.00417 0.36889 0.0
C396 C 0.25577 0.00763 0.41042 0.0
C397 C 0.27669 0.01852 0.33902 0.0
C398 C 0.26128 0.01711 0.264 0.0
C399 C 0.26183 0.9758 0.43688 0.0
C400 C 0.25487 0.03185 0.48368 0.0
H401 H 0.35032 0.08334 0.11908 0.0
H402 H 0.31335 0.99102 0.94919 0.0
H403 H 0.24463 0.03679 0.05799 0.0
H404 H 0.22865 0.99817 0.07243 0.0
H405 H 0.25328 0.00636 0.98472 0.0
H406 H 0.29844 0.96875 0.14643 0.0
H407 H 0.27883 0.96038 0.05054 0.0
H408 H 0.25771 0.96315 0.14839 0.0
H409 H 0.40462 0.01306 0.3496 0.0
H410 H 0.35314 0.99946 0.58196 0.0
H411 H 0.30911 0.0146 0.51943 0.0
H412 H 0.3907 0.00429 0.21506 0.0
H413 H 0.3675 0.01623 0.13933 0.0
H414 H 0.35202 0.98808 0.20943 0.0
H415 H 0.36466 0.08414 0.28328 0.0
H416 H 0.38557 0.06795 0.19552 0.0
H417 H 0.39779 0.06504 0.29731 0.0
H418 H 0.37778 0.07008 0.98791 0.0
C419 C 0.34268 0.06325 0.08193 0.0
C420 C 0.41968 0.29479 0.99508 0.0
C421 C 0.40338 0.31933 0.97427 0.0
C422 C 0.37371 0.32089 0.00951 0.0
C423 C 0.38478 0.28663 0.11083 0.0
C424 C 0.4086 0.27737 0.06267 0.0
C425 C 0.42098 0.25099 0.10254 0.0
H426 H 0.43926 0.18866 0.47571 0.0
C427 C 0.38696 0.27674 0.19431 0.0
C428 C 0.40569 0.25299 0.19 0.0
H429 H 0.46266 0.14955 0.232 0.0
H430 H 0.4423 0.19134 0.16706 0.0
H431 H 0.46565 0.2457 0.45491 0.0
H432 H 0.37461 0.21307 0.44415 0.0
H433 H 0.37786 0.2494 0.49711 0.0
H434 H 0.39907 0.22003 0.53114 0.0
H435 H 0.44013 0.26194 0.5272 0.0
H436 H 0.45164 0.27999 0.43092 0.0
C437 C 0.45577 0.2558 0.10518 0.0
C438 C 0.40952 0.22163 0.05277 0.0
C439 C 0.40958 0.36451 0.39731 0.0
C440 C 0.4233 0.36546 0.47465 0.0
C441 C 0.41955 0.33948 0.52237 0.0
C442 C 0.40617 0.31199 0.48786 0.0
C443 C 0.39813 0.31034 0.40421 0.0
C444 C 0.39748 0.33659 0.36237 0.0
C445 C 0.38811 0.33034 0.27385 0.0
C446 C 0.3858 0.29551 0.26825 0.0
C447 C 0.39379 0.28437 0.34362 0.0
C448 C 0.41334 0.34483 0.21471 0.0
C449 C 0.35757 0.34345 0.26384 0.0
C450 C 0.44001 0.18877 0.40825 0.0
C451 C 0.45259 0.16563 0.35927 0.0
C452 C 0.45271 0.16681 0.27143 0.0
C453 C 0.44075 0.19087 0.23376 0.0
C454 C 0.42851 0.21384 0.28441 0.0
C455 C 0.42868 0.21262 0.37014 0.0
C456 C 0.41754 0.24013 0.41515 0.0
C457 C 0.40675 0.25627 0.34247 0.0
C458 C 0.41367 0.24108 0.26578 0.0
C459 C 0.4449 0.25798 0.45933 0.0
C460 C 0.39087 0.23021 0.47559 0.0
H461 H 0.34326 0.30822 0.11272 0.0
H462 H 0.44149 0.29121 0.96572 0.0
H463 H 0.38621 0.22297 0.03112 0.0
H464 H 0.40775 0.2015 0.09063 0.0
H465 H 0.42441 0.21765 0.99674 0.0
H466 H 0.46293 0.27804 0.13712 0.0
H467 H 0.4662 0.2554 0.04111 0.0
H468 H 0.46506 0.23797 0.13919 0.0
H469 H 0.41048 0.38474 0.36221 0.0
H470 H 0.42876 0.33977 0.58382 0.0
H471 H 0.40384 0.29262 0.52548 0.0
H472 H 0.43493 0.33452 0.22128 0.0
H473 H 0.41746 0.36964 0.2278 0.0
H474 H 0.40736 0.34233 0.14871 0.0
H475 H 0.35693 0.36578 0.29846 0.0
H476 H 0.33839 0.32798 0.28799 0.0
H477 H 0.35386 0.34789 0.19817 0.0
H478 H 0.35914 0.33706 0.98911 0.0
C479 C 0.36456 0.30492 0.08016 0.0
Tb480 Tb 0.99822 0.97554 0.64921 0.0
C481 C 0.0646 0.00056 0.59102 0.0
Tb482 Tb 0.03413 0.02398 0.76461 0.0
O483 O 0.99505 0.00875 0.55461 0.0
O484 O 0.99889 0.02236 0.67961 0.0
O485 O 0.04204 0.97877 0.58059 0.0
C486 C 0.06358 0.07355 0.83621 0.0
O487 O 0.06505 0.02106 0.65488 0.0
C488 C 0.03184 0.96729 0.80734 0.0
C489 C 0.96791 0.00038 0.82154 0.0
O490 O 0.06809 0.04575 0.84924 0.0
O491 O 0.04243 0.07344 0.78307 0.0
O492 O 0.03525 0.99062 0.85971 0.0
O493 O 0.03304 0.97697 0.73492 0.0
O494 O 0.98928 0.02358 0.82588 0.0
O495 O 0.9688 0.97777 0.76338 0.0
C496 C 0.9712 0.92337 0.58517 0.0
O497 O 0.95825 0.94831 0.59944 0.0
O498 O 0.99926 0.92816 0.60522 0.0
C499 C 0.99911 0.03199 0.60729 0.0
Tb500 Tb 0.5112 0.02899 0.64426 0.0
C501 C 0.57057 0.99592 0.61508 0.0
Tb502 Tb 0.519 0.97354 0.75105 0.0
O503 O 0.54919 0.05492 0.70535 0.0
O504 O 0.52308 0.02129 0.76677 0.0
O505 O 0.55189 0.01328 0.58144 0.0
C506 C 0.53981 0.93582 0.85484 0.0
O507 O 0.56326 0.98124 0.68446 0.0
C508 C 0.48474 0.96196 0.62243 0.0
C509 C 0.45825 0.00517 0.77432 0.0
O510 O 0.54156 0.9333 0.77399 0.0
O511 O 0.52567 0.95934 0.8779 0.0
O512 O 0.48281 0.94549 0.68742 0.0
O513 O 0.50753 0.98105 0.62898 0.0
O514 O 0.47666 0.98761 0.80841 0.0
O515 O 0.46638 0.02098 0.70734 0.0
C516 C 0.49496 0.07128 0.54668 0.0
O517 O 0.50032 0.07515 0.62552 0.0
O518 O 0.49865 0.04348 0.52241 0.0
C519 C 0.54673 0.03924 0.77163 0.0
Tb520 Tb 0.52624 0.52097 0.63513 0.0
C521 C 0.45486 0.5078 0.63103 0.0
Tb522 Tb 0.49244 0.47664 0.76495 0.0
O523 O 0.51639 0.48886 0.52832 0.0
O524 O 0.51606 0.4741 0.64847 0.0
O525 O 0.47914 0.52603 0.60915 0.0
C526 C 0.46579 0.42715 0.83518 0.0
O527 O 0.45536 0.48667 0.68683 0.0
C528 C 0.50984 0.5314 0.8255 0.0
C529 C 0.56356 0.49064 0.77139 0.0
O530 O 0.45526 0.45361 0.83835 0.0
O531 O 0.49151 0.42864 0.79345 0.0
O532 O 0.50245 0.50852 0.87199 0.0
O533 O 0.50264 0.52344 0.75184 0.0
O534 O 0.53946 0.47185 0.79111 0.0
O535 O 0.56312 0.51192 0.71588 0.0
C536 C 0.55271 0.57046 0.56406 0.0
O537 O 0.56375 0.54426 0.56306 0.0
O538 O 0.52664 0.56864 0.60401 0.0
C539 C 0.50886 0.46605 0.57495 0.0
Tb540 Tb 0.98498 0.50355 0.64567 0.0
C541 C 0.03619 0.46332 0.57964 0.0
Tb542 Tb 0.04262 0.50315 0.75131 0.0
O543 O 0.01153 0.52987 0.55221 0.0
O544 O 0.0233 0.53363 0.677 0.0
O545 O 1.00671 0.46669 0.57978 0.0
C546 C 0.09885 0.50765 0.8114 0.0
O547 O 0.05466 0.47848 0.63408 0.0
C548 C 0.99576 0.4661 0.79369 0.0
C549 C 0.99103 0.54328 0.81837 0.0
O550 O 0.07799 0.48551 0.82241 0.0
O551 O 0.08795 0.5273 0.76669 0.0
O552 O 0.01553 0.47814 0.84621 0.0
O553 O 1.0041 0.47337 0.72116 0.0
O554 O 0.02025 0.53885 0.82141 0.0
O555 O 0.97302 0.5297 0.76029 0.0
C556 C 0.92884 0.49821 0.58481 0.0
O557 O 0.95173 0.51602 0.55845 0.0
O558 O 0.9376 0.4834 0.64557 0.0
C559 C 0.03132 0.54158 0.60496 0.0
C560 C 0.14069 0.02556 0.4866 0.0
C561 C 0.14219 0.00492 0.41738 0.0
H562 H 0.11543 0.04057 0.59442 0.0
C563 C 0.1172 0.98367 0.40249 0.0
H564 H 0.15958 0.04227 0.49949 0.0
C565 C 0.09174 0.98234 0.45801 0.0
C566 C 0.09074 0.00239 0.52913 0.0
H567 H 0.11784 0.96738 0.34991 0.0
H568 H 0.07313 0.96525 0.44596 0.0
C569 C 0.11534 0.02444 0.54135 0.0
C570 C 0.48151 0.14827 0.47584 0.0
C571 C 0.46597 0.14119 0.40154 0.0
H572 H 0.50225 0.13172 0.57996 0.0
C573 C 0.46188 0.11067 0.37208 0.0
H574 H 0.48596 0.17155 0.49931 0.0
C575 C 0.47204 0.08776 0.41786 0.0
C576 C 0.48608 0.09501 0.4942 0.0
H577 H 0.44993 0.10438 0.31537 0.0
H578 H 0.46807 0.06438 0.39495 0.0
C579 C 0.49105 0.12547 0.52203 0.0
C580 C 0.39784 0.53058 0.4798 0.0
C581 C 0.37039 0.51711 0.51326 0.0
H582 H 0.44594 0.53873 0.49135 0.0
C583 C 0.37111 0.49941 0.58313 0.0
H584 H 0.39793 0.54467 0.42673 0.0
C585 C 0.39849 0.49597 0.6203 0.0
C586 C 0.42588 0.51058 0.58942 0.0
H587 H 0.35026 0.48887 0.6105 0.0
H588 H 0.39801 0.48251 0.67473 0.0
C589 C 0.42527 0.5275 0.51772 0.0
C590 C 0.08882 0.40611 0.49471 0.0
C591 C 0.06861 0.38426 0.45466 0.0
H592 H 0.09462 0.44853 0.56414 0.0
C593 C 0.03882 0.39095 0.44373 0.0
H594 H 0.11198 0.40151 0.50346 0.0
C595 C 0.02866 0.41788 0.47927 0.0
C596 C 0.0482 0.43854 0.52607 0.0
H597 H 0.02279 0.37437 0.41347 0.0
H598 H 1.00502 0.4215 0.47455 0.0
C599 C 0.07878 0.43301 0.52974 0.0
C600 C 0.90947 0.02704 0.98239 0.0
C601 C 0.88885 0.00112 0.98852 0.0
H602 H 0.95061 0.04712 0.9259 0.0
C603 C 0.89559 0.97422 0.94452 0.0
H604 H 0.90442 0.04825 0.01403 0.0
C605 C 0.92168 0.97368 0.8921 0.0
C606 C 0.9417 2e-05 0.88293 0.0
H607 H 0.8797 0.95413 0.94651 0.0
H608 H 0.92562 0.95285 0.85677 0.0
C609 C 0.93575 0.02642 0.931 0.0
C610 C 0.58485 0.8749 0.92544 0.0
C611 C 0.57266 0.87009 0.00647 0.0
H612 H 0.58361 0.89909 0.81428 0.0
C613 C 0.55187 0.88969 0.04124 0.0
H614 H 0.60162 0.86086 0.89764 0.0
C615 C 0.54193 0.91219 0.99339 0.0
C616 C 0.55243 0.91507 0.91012 0.0
H617 H 0.54218 0.88663 0.10355 0.0
H618 H 0.52503 0.9263 0.02007 0.0
C619 C 0.57458 0.89683 0.87759 0.0
C620 C 0.61638 0.47133 0.93772 0.0
C621 C 0.64386 0.48772 0.91479 0.0
H622 H 0.56998 0.45892 0.91029 0.0
C623 C 0.64487 0.5049 0.84329 0.0
H624 H 0.61486 0.4575 0.99156 0.0
C625 C 0.619 0.50578 0.79626 0.0
C626 C 0.59158 0.48907 0.81875 0.0
H627 H 0.66568 0.51784 0.82395 0.0
H628 H 0.62055 0.51949 0.74218 0.0
C629 C 0.59068 0.47188 0.89024 0.0
C630 C 0.93699 0.5979 0.9107 0.0
C631 C 0.95678 0.62003 0.95112 0.0
H632 H 0.93212 0.556 0.83857 0.0
C633 C 0.98706 0.61436 0.9593 0.0
H634 H 0.91347 0.60169 0.90407 0.0
C635 C 0.99796 0.58819 0.92097 0.0
C636 C 0.97869 0.56732 0.87404 0.0
H637 H 1.00278 0.63119 0.98976 0.0
H638 H 0.02186 0.58538 0.92367 0.0
C639 C 0.94778 0.57179 0.87284 0.0
C640 C 0.03339 0.11297 0.62528 0.0
C641 C 0.05507 0.11334 0.55887 0.0
H642 H 0.99759 0.08684 0.69076 0.0
C643 C 0.05515 0.08785 0.50268 0.0
H644 H 0.03233 0.13227 0.6691 0.0
C645 C 0.03539 0.06204 0.51537 0.0
C646 C 0.01521 0.06107 0.58473 0.0
H647 H 0.07059 0.08771 0.44868 0.0
H648 H 0.03693 0.04237 0.47298 0.0
C649 C 0.01347 0.08705 0.63766 0.0
C650 C 0.43846 0.99669 0.47171 0.0
C651 C 0.40874 0.98975 0.50427 0.0
H652 H 0.4854 0.99005 0.47816 0.0
C653 C 0.40438 0.96926 0.5689 0.0
H654 H 0.44354 0.01229 0.42267 0.0
C655 C 0.42911 0.95832 0.60431 0.0
C656 C 0.45856 0.96693 0.57418 0.0
H657 H 0.38203 0.9619 0.59361 0.0
H658 H 0.42522 0.9443 0.65762 0.0
C659 C 0.46285 0.9845 0.50457 0.0
C660 C 0.44593 0.4022 0.58383 0.0
C661 C 0.44442 0.39196 0.50008 0.0
H662 H 0.46667 0.43402 0.67123 0.0
C663 C 0.4646 0.40615 0.44081 0.0
H664 H 0.43043 0.39223 0.63085 0.0
C665 C 0.48582 0.43 0.46529 0.0
C666 C 0.48752 0.43986 0.54947 0.0
H667 H 0.46443 0.39844 0.37567 0.0
H668 H 0.501 0.44058 0.41854 0.0
C669 C 0.46719 0.42587 0.60771 0.0
C670 C 0.10445 0.59238 0.62416 0.0
C671 C 0.11361 0.59477 0.53989 0.0
H672 H 0.06998 0.57481 0.711 0.0
C673 C 0.09425 0.58162 0.47791 0.0
H674 H 0.11893 0.6023 0.67302 0.0
C675 C 0.0671 0.56509 0.49952 0.0
C676 C 0.0586 0.56149 0.5835 0.0
H677 H 0.10091 0.5825 0.41234 0.0
H678 H 0.05333 0.55419 0.45034 0.0
C679 C 0.0768 0.57626 0.64575 0.0
C680 C 0.97485 0.91347 0.9158 0.0
C681 C 0.97217 0.88853 0.85771 0.0
H682 H 0.9962 0.95764 0.94605 0.0
C683 C 0.99236 0.88824 0.78787 0.0
H684 H 0.96068 0.914 0.9723 0.0
C685 C 0.01362 0.91307 0.77463 0.0
C686 C 0.01451 0.93874 0.82962 0.0
H687 H 0.99138 0.86918 0.74271 0.0
H688 H 0.02897 0.91253 0.72057 0.0
C689 C 0.99575 0.93827 0.9019 0.0
C690 C 0.5932 0.00345 0.92086 0.0
C691 C 0.62153 0.00475 0.87785 0.0
H692 H 0.54734 0.01474 0.92196 0.0
C693 C 0.62585 0.02131 0.80546 0.0
H694 H 0.58941 0.99189 0.97861 0.0
C695 C 0.602 0.03521 0.77505 0.0
C696 C 0.57324 0.03193 0.815 0.0
H697 H 0.64732 0.02278 0.77072 0.0
H698 H 0.60558 0.0467 0.71711 0.0
C699 C 0.56925 0.01688 0.88947 0.0
C700 C 0.55351 0.59126 0.96107 0.0
C701 C 0.57236 0.60681 0.90151 0.0
H702 H 0.51859 0.55536 0.98313 0.0
C703 C 0.5706 0.59717 0.81733 0.0
H704 H 0.55404 0.59844 0.02658 0.0
C705 C 0.55009 0.5729 0.79317 0.0
C706 C 0.53074 0.5578 0.85159 0.0
H707 H 0.58516 0.60829 0.77015 0.0
H708 H 0.55029 0.56528 0.72919 0.0
C709 C 0.53295 0.56688 0.93627 0.0
C710 C 0.91752 0.42446 0.78072 0.0
C711 C 0.90628 0.4291 0.863 0.0
H712 H 0.95553 0.43176 0.69458 0.0
C713 C 0.92559 0.44404 0.92268 0.0
H714 H 0.9032 0.41298 0.73358 0.0
C715 C 0.95504 0.45495 0.90032 0.0
C716 C 0.96584 0.45143 0.81768 0.0
H717 H 0.91753 0.44867 0.98624 0.0
H718 H 0.96891 0.46728 0.94717 0.0
C719 C 0.94729 0.43529 0.75846 0.0
C720 C 0.08779 0.15532 0.90441 0.0
C721 C 0.09848 0.1519 0.98455 0.0
H722 H 0.06805 0.13311 0.79439 0.0
C723 C 0.0986 0.12213 0.01191 0.0
H724 H 0.08742 0.17756 0.88021 0.0
C725 C 0.08865 0.09694 0.96162 0.0
C726 C 0.0771 0.10051 0.88358 0.0
H727 H 0.10511 0.11783 0.07395 0.0
H728 H 0.08865 0.0746 0.98584 0.0
C729 C 0.07685 0.12985 0.85483 0.0
C730 C 0.382 0.03507 0.83174 0.0
C731 C 0.37138 0.01733 0.8987 0.0
H732 H 0.4173 0.045 0.73957 0.0
C733 C 0.38808 0.99356 0.9191 0.0
H734 H 0.36995 0.05395 0.81582 0.0
C735 C 0.41577 0.9889 0.87707 0.0
C736 C 0.42733 0.00779 0.81317 0.0
H737 H 0.38087 0.98004 0.97181 0.0
H738 H 0.42866 0.97122 0.89695 0.0
C739 C 0.40942 0.03015 0.78889 0.0
C740 C 0.41046 0.37557 0.95798 0.0
C741 C 0.41856 0.34636 0.93228 0.0
H742 H 0.41875 0.4235 0.94714 0.0
C743 C 0.44276 0.34418 0.87345 0.0
H744 H 0.39296 0.37876 0.00565 0.0
C745 C 0.45835 0.37046 0.8419 0.0
C746 C 0.44986 0.39932 0.86804 0.0
H747 H 0.44977 0.32231 0.852 0.0
H748 H 0.47692 0.36819 0.7968 0.0
C749 C 0.42561 0.40155 0.92553 0.0
C750 C 0.16389 0.49468 0.94816 0.0
C751 C 0.18127 0.52287 0.94701 0.0
H752 H 0.12395 0.46782 0.90656 0.0
C753 C 0.17327 0.54449 0.89287 0.0
H754 H 0.16914 0.47783 0.99036 0.0
C755 C 0.1474 0.53883 0.84513 0.0
C756 C 0.12872 0.51156 0.8512 0.0
H757 H 0.18604 0.56653 0.89138 0.0
H758 H 0.14114 0.55649 0.80697 0.0
C759 C 0.1378 0.48912 0.90094 0.0
C760 C 0.91507 0.86581 0.47874 0.0
C761 C 0.93344 0.84244 0.45428 0.0
H762 H 0.9127 0.90997 0.53877 0.0
C763 C 0.96309 0.84442 0.48301 0.0
H764 H 0.89198 0.86481 0.4587 0.0
C765 C 0.97483 0.87022 0.52913 0.0
C766 C 0.95723 0.8946 0.54719 0.0
H767 H 0.97799 0.82708 0.46486 0.0
H768 H 0.99821 0.87171 0.54699 0.0
C769 C 0.92691 0.89171 0.5244 0.0
C770 C 0.64192 0.01054 0.47717 0.0
C771 C 0.65782 0.98549 0.49129 0.0
H772 H 0.60185 0.03331 0.50398 0.0
C773 C 0.64561 0.96472 0.54948 0.0
H774 H 0.65046 0.02646 0.43101 0.0
C775 C 0.61781 0.96866 0.59172 0.0
C776 C 0.60112 0.99297 0.57469 0.0
H777 H 0.65704 0.94483 0.55995 0.0
H778 H 0.60881 0.95194 0.63518 0.0
C779 C 0.61384 0.01417 0.51801 0.0
C780 C 0.57356 0.65349 0.52222 0.0
C781 C 0.59852 0.65183 0.46571 0.0
H782 H 0.53933 0.62895 0.5973 0.0
C783 C 0.60806 0.62291 0.44311 0.0
H784 H 0.56549 0.67513 0.54154 0.0
C785 C 0.59342 0.59672 0.476 0.0
C786 C 0.56833 0.59844 0.5309 0.0
H787 H 0.62633 0.62011 0.39747 0.0
H788 H 0.60134 0.57498 0.4567 0.0
C789 C 0.55854 0.62703 0.55418 0.0
C790 C 0.85077 0.46251 0.52777 0.0
C791 C 0.84513 0.47811 0.45668 0.0
H792 H 0.88152 0.45676 0.62426 0.0
C793 C 0.86573 0.5027 0.43436 0.0
H794 H 0.83534 0.44351 0.54686 0.0
C795 C 0.89235 0.51008 0.47827 0.0
C796 C 0.89885 0.4932 0.54588 0.0
H797 H 0.86235 0.51492 0.37939 0.0
H798 H 0.90848 0.52818 0.45695 0.0
C799 C 0.87728 0.47003 0.57199 0.0
loop_
_geom_bond_atom_site_label_1
_geom_bond_atom_site_label_2
_geom_bond_distance
_geom_bond_site_symmetry_2
_ccdc_geom_bond_type
C0 C1 1.391 . S
C0 C4 1.391 . S
C0 H42 0.948 . S
C1 C0 1.391 . S
C1 C2 1.391 . S
C2 C1 1.391 . S
C2 H58 0.947 . S
C2 C59 1.392 . S
C3 C4 1.391 . S
C3 C7 1.397 . S
C3 C59 1.419 . S
C4 C0 1.391 . S
C4 C3 1.391 . S
C4 C5 1.399 . S
C5 C4 1.399 . S
C5 C8 1.396 . S
C5 C17 1.453 . S
C5 C18 1.684 . S
H6 C30 0.948 . S
C7 C3 1.397 . S
C7 C8 1.394 . S
C7 C26 1.723 . S
C8 C5 1.396 . S
C8 C7 1.394 . S
C8 C38 1.723 . S
H9 C32 0.947 . S
H10 C33 0.948 . S
H11 C39 0.982 . S
H12 C40 0.979 . S
H13 C40 0.980 . S
H14 C40 0.983 . S
H15 C39 0.979 . S
H16 C39 0.977 . S
C17 C5 1.453 . S
C17 H46 0.982 . S
C17 H47 0.979 . S
C17 H48 0.977 . S
C18 C5 1.684 . S
C18 H43 0.979 . S
C18 H44 0.980 . S
C18 H45 0.983 . S
C19 C20 1.391 . S
C19 C24 1.391 . S
C19 H49 0.948 . S
C20 C19 1.391 . S
C20 C21 1.391 . S
C21 C20 1.391 . S
C21 C22 1.392 . S
C21 H50 0.947 . S
C22 C21 1.392 . S
C22 C23 1.419 . S
C22 H51 0.948 . S
C23 C22 1.419 . S
C23 C24 1.391 . S
C23 C27 1.397 . S
C24 C19 1.391 . S
C24 C23 1.391 . S
C24 C25 1.399 1_556 S
C25 C24 1.399 1_554 S
C25 C26 1.396 . S
C25 C28 1.453 . S
C25 C29 1.684 . S
C26 C7 1.723 . S
C26 C25 1.396 . S
C26 C27 1.394 1_554 S
C27 C23 1.397 . S
C27 C26 1.394 1_556 S
C27 C37 1.723 . S
C28 C25 1.453 . S
C28 H52 0.982 . S
C28 H53 0.979 . S
C28 H54 0.977 . S
C29 C25 1.684 . S
C29 H55 0.979 . S
C29 H56 0.980 . S
C29 H57 0.983 . S
C30 H6 0.948 . S
C30 C31 1.391 . S
C30 C35 1.391 . S
C31 C30 1.391 . S
C31 C32 1.391 1_556 S
C32 H9 0.947 . S
C32 C31 1.391 1_554 S
C32 C33 1.392 . S
C33 H10 0.948 . S
C33 C32 1.392 . S
C33 C34 1.419 . S
C34 C33 1.419 . S
C34 C35 1.391 1_554 S
C34 C38 1.397 . S
C35 C30 1.391 . S
C35 C34 1.391 1_556 S
C35 C36 1.399 . S
C36 C35 1.399 . S
C36 C37 1.396 . S
C36 C39 1.453 . S
C36 C40 1.684 . S
C37 C27 1.723 . S
C37 C36 1.396 . S
C37 C38 1.394 1_556 S
C38 C8 1.723 . S
C38 C34 1.397 . S
C38 C37 1.394 1_554 S
C39 H11 0.982 . S
C39 H15 0.979 . S
C39 H16 0.977 . S
C39 C36 1.453 . S
C40 H12 0.979 . S
C40 H13 0.980 . S
C40 H14 0.983 . S
C40 C36 1.684 . S
H41 C59 0.948 . S
H42 C0 0.948 . S
H43 C18 0.979 . S
H44 C18 0.980 . S
H45 C18 0.983 . S
H46 C17 0.982 . S
H47 C17 0.979 . S
H48 C17 0.977 . S
H49 C19 0.948 . S
H50 C21 0.947 . S
H51 C22 0.948 . S
H52 C28 0.982 . S
H53 C28 0.979 . S
H54 C28 0.977 . S
H55 C29 0.979 . S
H56 C29 0.980 . S
H57 C29 0.983 . S
H58 C2 0.947 . S
C59 C2 1.392 . S
C59 C3 1.419 . S
C59 H41 0.948 . S
C60 C61 1.391 . S
C60 C64 1.391 . S
C60 H102 0.948 . S
C61 C60 1.391 . S
C61 C62 1.391 . S
C62 C61 1.391 . S
C62 H118 0.947 . S
C62 C119 1.392 . S
C63 C64 1.391 . S
C63 C67 1.397 . S
C63 C119 1.419 . S
C64 C60 1.391 . S
C64 C63 1.391 . S
C64 C65 1.399 . S
C65 C64 1.399 . S
C65 C68 1.396 . S
C65 C77 1.453 . S
C65 C78 1.684 . S
H66 C90 0.948 . S
C67 C63 1.397 . S
C67 C68 1.394 . S
C67 C86 1.723 1_556 S
C68 C65 1.396 . S
C68 C67 1.394 . S
C68 C98 1.723 . S
H69 C92 0.947 . S
H70 C93 0.948 . S
H71 C99 0.982 . S
H72 C100 0.979 . S
H73 C100 0.980 . S
H74 C100 0.983 . S
H75 C99 0.979 . S
H76 C99 0.977 . S
C77 C65 1.453 . S
C77 H106 0.982 . S
C77 H107 0.979 . S
C77 H108 0.977 . S
C78 C65 1.684 . S
C78 H103 0.979 . S
C78 H104 0.980 . S
C78 H105 0.983 . S
C79 C80 1.391 . S
C79 C84 1.391 . S
C79 H109 0.948 . S
C80 C79 1.391 . S
C80 C81 1.391 . S
C81 C80 1.391 . S
C81 C82 1.392 . S
C81 H110 0.947 . S
C82 C81 1.392 . S
C82 C83 1.419 . S
C82 H111 0.948 . S
C83 C82 1.419 . S
C83 C84 1.391 . S
C83 C87 1.397 . S
C84 C79 1.391 . S
C84 C83 1.391 . S
C84 C85 1.399 . S
C85 C84 1.399 . S
C85 C86 1.396 . S
C85 C88 1.453 . S
C85 C89 1.684 . S
C86 C67 1.723 1_554 S
C86 C85 1.396 . S
C86 C87 1.394 . S
C87 C83 1.397 . S
C87 C86 1.394 . S
C87 C97 1.723 . S
C88 C85 1.453 . S
C88 H112 0.982 . S
C88 H113 0.979 . S
C88 H114 0.977 . S
C89 C85 1.684 . S
C89 H115 0.979 . S
C89 H116 0.980 . S
C89 H117 0.983 . S
C90 H66 0.948 . S
C90 C91 1.391 1_554 S
C90 C95 1.391 . S
C91 C90 1.391 1_556 S
C91 C92 1.391 . S
C92 H69 0.947 . S
C92 C91 1.391 . S
C92 C93 1.392 . S
C93 H70 0.948 . S
C93 C92 1.392 . S
C93 C94 1.419 . S
C94 C93 1.419 . S
C94 C95 1.391 1_556 S
C94 C98 1.397 . S
C95 C90 1.391 . S
C95 C94 1.391 1_554 S
C95 C96 1.399 . S
C96 C95 1.399 . S
C96 C97 1.396 . S
C96 C99 1.453 . S
C96 C100 1.684 . S
C97 C87 1.723 . S
C97 C96 1.396 . S
C97 C98 1.394 1_554 S
C98 C68 1.723 . S
C98 C94 1.397 . S
C98 C97 1.394 1_556 S
C99 H71 0.982 . S
C99 H75 0.979 . S
C99 H76 0.977 . S
C99 C96 1.453 . S
C100 H72 0.979 . S
C100 H73 0.980 . S
C100 H74 0.983 . S
C100 C96 1.684 . S
H101 C119 0.948 . S
H102 C60 0.948 . S
H103 C78 0.979 . S
H104 C78 0.980 . S
H105 C78 0.983 . S
H106 C77 0.982 . S
H107 C77 0.979 . S
H108 C77 0.977 . S
H109 C79 0.948 . S
H110 C81 0.947 . S
H111 C82 0.948 . S
H112 C88 0.982 . S
H113 C88 0.979 . S
H114 C88 0.977 . S
H115 C89 0.979 . S
H116 C89 0.980 . S
H117 C89 0.983 . S
H118 C62 0.947 . S
C119 C62 1.392 . S
C119 C63 1.419 . S
C119 H101 0.948 . S
C120 C121 1.391 . S
C120 C124 1.391 . S
C120 H162 0.948 . S
C121 C120 1.391 . S
C121 C122 1.391 1_554 S
C122 C121 1.391 1_556 S
C122 H178 0.947 . S
C122 C179 1.392 . S
C123 C124 1.391 . S
C123 C127 1.397 1_565 S
C123 C179 1.419 1_554 S
C124 C120 1.391 . S
C124 C123 1.391 . S
C124 C125 1.399 . S
C125 C124 1.399 . S
C125 C128 1.396 1_565 S
C125 C137 1.453 1_565 S
C125 C138 1.684 . S
H126 C150 0.948 . S
C127 C123 1.397 1_545 S
C127 C128 1.394 . S
C127 C146 1.723 . S
C128 C125 1.396 1_545 S
C128 C127 1.394 . S
C128 C158 1.723 . S
H129 C152 0.947 . S
H130 C153 0.948 . S
H131 C159 0.982 . S
H132 C160 0.979 . S
H133 C160 0.980 . S
H134 C160 0.983 . S
H135 C159 0.979 . S
H136 C159 0.977 . S
C137 C125 1.453 1_545 S
C137 H166 0.982 . S
C137 H167 0.979 . S
C137 H168 0.977 . S
C138 C125 1.684 . S
C138 H163 0.979 . S
C138 H164 0.980 . S
C138 H165 0.983 . S
C139 C140 1.391 . S
C139 C144 1.391 . S
C139 H169 0.948 . S
C140 C139 1.391 . S
C140 C141 1.391 . S
C141 C140 1.391 . S
C141 C142 1.392 1_556 S
C141 H170 0.947 . S
C142 C141 1.392 1_554 S
C142 C143 1.417 1_554 S
C142 H171 0.948 . S
C143 C142 1.417 1_556 S
C143 C144 1.404 . S
C143 C147 1.388 1_566 S
C144 C139 1.391 . S
C144 C143 1.404 . S
C144 C145 1.399 . S
C145 C144 1.399 . S
C145 C146 1.396 1_566 S
C145 C148 1.453 1_565 S
C145 C149 1.684 . S
C146 C127 1.723 . S
C146 C145 1.396 1_544 S
C146 C147 1.394 . S
C147 C143 1.388 1_544 S
C147 C146 1.394 . S
C147 C157 1.723 . S
C148 C145 1.453 1_545 S
C148 H172 0.982 . S
C148 H173 0.979 . S
C148 H174 0.977 . S
C149 C145 1.684 . S
C149 H175 0.979 . S
C149 H176 0.980 . S
C149 H177 0.983 . S
C150 H126 0.948 . S
C150 C151 1.391 . S
C150 C155 1.391 . S
C151 C150 1.391 . S
C151 C152 1.391 . S
C152 H129 0.947 . S
C152 C151 1.391 . S
C152 C153 1.392 . S
C153 H130 0.948 . S
C153 C152 1.392 . S
C153 C154 1.419 . S
C154 C153 1.419 . S
C154 C155 1.391 . S
C154 C158 1.397 1_565 S
C155 C150 1.391 . S
C155 C154 1.391 . S
C155 C156 1.399 . S
C156 C155 1.399 . S
C156 C157 1.396 1_565 S
C156 C159 1.453 1_565 S
C156 C160 1.684 . S
C157 C147 1.723 . S
C157 C156 1.396 1_545 S
C157 C158 1.394 . S
C158 C128 1.723 . S
C158 C154 1.397 1_545 S
C158 C157 1.394 . S
C159 H131 0.982 . S
C159 H135 0.979 . S
C159 H136 0.977 . S
C159 C156 1.453 1_545 S
C160 H132 0.979 . S
C160 H133 0.980 . S
C160 H134 0.983 . S
C160 C156 1.684 . S
H161 C179 0.948 . S
H162 C120 0.948 . S
H163 C138 0.979 . S
H164 C138 0.980 . S
H165 C138 0.983 . S
H166 C137 0.982 . S
H167 C137 0.979 . S
H168 C137 0.977 . S
H169 C139 0.948 . S
H170 C141 0.947 . S
H171 C142 0.948 . S
H172 C148 0.982 . S
H173 C148 0.979 . S
H174 C148 0.977 . S
H175 C149 0.979 . S
H176 C149 0.980 . S
H177 C149 0.983 . S
H178 C122 0.947 . S
C179 C122 1.392 . S
C179 C123 1.419 1_556 S
C179 H161 0.948 . S
C180 C181 1.391 . S
C180 C184 1.391 . S
C180 H222 0.948 . S
C181 C180 1.391 . S
C181 C182 1.391 . S
C182 C181 1.391 . S
C182 H238 0.947 . S
C182 C239 1.392 . S
C183 C184 1.391 . S
C183 C187 1.397 . S
C183 C239 1.419 . S
C184 C180 1.391 . S
C184 C183 1.391 . S
C184 C185 1.399 . S
C185 C184 1.399 . S
C185 C188 1.396 . S
C185 C197 1.453 . S
C185 C198 1.684 . S
H186 C210 0.948 . S
C187 C183 1.397 . S
C187 C188 1.394 . S
C187 C206 1.723 . S
C188 C185 1.396 . S
C188 C187 1.394 . S
C188 C218 1.723 . S
H189 C212 0.947 . S
H190 C213 0.948 . S
H191 C219 0.982 . S
H192 C220 0.979 . S
H193 C220 0.980 . S
H194 C220 0.983 . S
H195 C219 0.979 . S
H196 C219 0.977 . S
C197 C185 1.453 . S
C197 H226 0.982 . S
C197 H227 0.979 . S
C197 H228 0.977 . S
C198 C185 1.684 . S
C198 H223 0.979 . S
C198 H224 0.980 . S
C198 H225 0.983 . S
C199 C200 1.391 . S
C199 C204 1.391 . S
C199 H229 0.948 . S
C200 C199 1.391 . S
C200 C201 1.391 . S
C201 C200 1.391 . S
C201 C202 1.392 . S
C201 H230 0.947 . S
C202 C201 1.392 . S
C202 C203 1.419 . S
C202 H231 0.948 . S
C203 C202 1.419 . S
C203 C204 1.391 . S
C203 C207 1.397 1_556 S
C204 C199 1.391 . S
C204 C203 1.391 . S
C204 C205 1.399 1_556 S
C205 C204 1.399 1_554 S
C205 C206 1.396 . S
C205 C208 1.453 . S
C205 C209 1.684 . S
C206 C187 1.723 . S
C206 C205 1.396 . S
C206 C207 1.394 . S
C207 C203 1.397 1_554 S
C207 C206 1.394 . S
C207 C217 1.723 1_554 S
C208 C205 1.453 . S
C208 H232 0.982 . S
C208 H233 0.979 . S
C208 H234 0.977 . S
C209 C205 1.684 . S
C209 H235 0.979 . S
C209 H236 0.980 . S
C209 H237 0.983 . S
C210 H186 0.948 . S
C210 C211 1.391 1_556 S
C210 C215 1.391 . S
C211 C210 1.391 1_554 S
C211 C212 1.391 . S
C212 H189 0.947 . S
C212 C211 1.391 . S
C212 C213 1.392 . S
C213 H190 0.948 . S
C213 C212 1.392 . S
C213 C214 1.419 . S
C214 C213 1.419 . S
C214 C215 1.391 1_554 S
C214 C218 1.397 . S
C215 C210 1.391 . S
C215 C214 1.391 1_556 S
C215 C216 1.399 . S
C216 C215 1.399 . S
C216 C217 1.396 . S
C216 C219 1.453 . S
C216 C220 1.684 . S
C217 C207 1.723 1_556 S
C217 C216 1.396 . S
C217 C218 1.394 1_556 S
C218 C188 1.723 . S
C218 C214 1.397 . S
C218 C217 1.394 1_554 S
C219 H191 0.982 . S
C219 H195 0.979 . S
C219 H196 0.977 . S
C219 C216 1.453 . S
C220 H192 0.979 . S
C220 H193 0.980 . S
C220 H194 0.983 . S
C220 C216 1.684 . S
H221 C239 0.948 . S
H222 C180 0.948 . S
H223 C198 0.979 . S
H224 C198 0.980 . S
H225 C198 0.983 . S
H226 C197 0.982 . S
H227 C197 0.979 . S
H228 C197 0.977 . S
H229 C199 0.948 . S
H230 C201 0.947 . S
H231 C202 0.948 . S
H232 C208 0.982 . S
H233 C208 0.979 . S
H234 C208 0.977 . S
H235 C209 0.979 . S
H236 C209 0.980 . S
H237 C209 0.983 . S
H238 C182 0.947 . S
C239 C182 1.392 . S
C239 C183 1.419 . S
C239 H221 0.948 . S
C240 C241 1.391 . S
C240 C244 1.391 . S
C240 H282 0.948 . S
C241 C240 1.391 . S
C241 C242 1.391 . S
C242 C241 1.391 . S
C242 H298 0.947 . S
C242 C299 1.392 . S
C243 C244 1.391 . S
C243 C247 1.397 . S
C243 C299 1.419 . S
C244 C240 1.391 . S
C244 C243 1.391 . S
C244 C245 1.399 . S
C245 C244 1.399 . S
C245 C248 1.396 . S
C245 C257 1.453 . S
C245 C258 1.684 . S
H246 C270 0.948 . S
C247 C243 1.397 . S
C247 C248 1.394 . S
C247 C266 1.723 . S
C248 C245 1.396 . S
C248 C247 1.394 . S
C248 C278 1.723 . S
H249 C272 0.947 1_556 S
H250 C273 0.948 . S
H251 C279 0.982 . S
H252 C280 0.979 . S
H253 C280 0.980 . S
H254 C280 0.983 . S
H255 C279 0.979 . S
H256 C279 0.977 . S
C257 C245 1.453 . S
C257 H286 0.982 . S
C257 H287 0.979 . S
C257 H288 0.977 . S
C258 C245 1.684 . S
C258 H283 0.979 . S
C258 H284 0.980 . S
C258 H285 0.983 . S
C259 C260 1.391 . S
C259 C264 1.391 . S
C259 H289 0.948 . S
C260 C259 1.391 . S
C260 C261 1.391 . S
C261 C260 1.391 . S
C261 C262 1.392 . S
C261 H290 0.947 . S
C262 C261 1.392 . S
C262 C263 1.419 . S
C262 H291 0.948 . S
C263 C262 1.419 . S
C263 C264 1.391 . S
C263 C267 1.397 . S
C264 C259 1.391 . S
C264 C263 1.391 . S
C264 C265 1.399 . S
C265 C264 1.399 . S
C265 C266 1.396 . S
C265 C268 1.453 . S
C265 C269 1.684 . S
C266 C247 1.723 . S
C266 C265 1.396 . S
C266 C267 1.394 . S
C267 C263 1.397 . S
C267 C266 1.394 . S
C267 C277 1.723 . S
C268 C265 1.453 . S
C268 H292 0.982 . S
C268 H293 0.979 . S
C268 H294 0.977 . S
C269 C265 1.684 . S
C269 H295 0.979 . S
C269 H296 0.980 . S
C269 H297 0.983 . S
C270 H246 0.948 . S
C270 C271 1.391 . S
C270 C275 1.391 . S
C271 C270 1.391 . S
C271 C272 1.391 . S
C272 H249 0.947 1_554 S
C272 C271 1.391 . S
C272 C273 1.392 . S
C273 H250 0.948 . S
C273 C272 1.392 . S
C273 C274 1.419 . S
C274 C273 1.419 . S
C274 C275 1.391 . S
C274 C278 1.397 . S
C275 C270 1.391 . S
C275 C274 1.391 . S
C275 C276 1.399 . S
C276 C275 1.399 . S
C276 C277 1.396 . S
C276 C279 1.453 . S
C276 C280 1.684 . S
C277 C267 1.723 . S
C277 C276 1.396 . S
C277 C278 1.394 . S
C278 C248 1.723 . S
C278 C274 1.397 . S
C278 C277 1.394 . S
C279 H251 0.982 . S
C279 H255 0.979 . S
C279 H256 0.977 . S
C279 C276 1.453 . S
C280 H252 0.979 . S
C280 H253 0.980 . S
C280 H254 0.983 . S
C280 C276 1.684 . S
H281 C299 0.948 . S
H282 C240 0.948 . S
H283 C258 0.979 . S
H284 C258 0.980 . S
H285 C258 0.983 . S
H286 C257 0.982 . S
H287 C257 0.979 . S
H288 C257 0.977 . S
H289 C259 0.948 . S
H290 C261 0.947 . S
H291 C262 0.948 . S
H292 C268 0.982 . S
H293 C268 0.979 . S
H294 C268 0.977 . S
H295 C269 0.979 . S
H296 C269 0.980 . S
H297 C269 0.983 . S
H298 C242 0.947 . S
C299 C242 1.392 . S
C299 C243 1.419 . S
C299 H281 0.948 . S
C300 C301 1.391 . S
C300 C304 1.391 . S
C300 H342 0.948 . S
C301 C300 1.391 . S
C301 C302 1.391 . S
C302 C301 1.391 . S
C302 H358 0.947 . S
C302 C359 1.392 . S
C303 C304 1.391 . S
C303 C307 1.397 . S
C303 C359 1.419 . S
C304 C300 1.391 . S
C304 C303 1.391 . S
C304 C305 1.399 . S
C305 C304 1.399 . S
C305 C308 1.396 . S
C305 C317 1.453 . S
C305 C318 1.684 . S
H306 C330 0.948 . S
C307 C303 1.397 . S
C307 C308 1.394 . S
C307 C326 1.723 . S
C308 C305 1.396 . S
C308 C307 1.394 . S
C308 C338 1.723 . S
H309 C332 0.947 . S
H310 C333 0.948 . S
H311 C339 0.982 . S
H312 C340 0.979 . S
H313 C340 0.980 . S
H314 C340 0.983 . S
H315 C339 0.979 . S
H316 C339 0.977 . S
C317 C305 1.453 . S
C317 H346 0.982 . S
C317 H347 0.979 . S
C317 H348 0.977 . S
C318 C305 1.684 . S
C318 H343 0.979 . S
C318 H344 0.980 . S
C318 H345 0.983 . S
C319 C320 1.391 . S
C319 C324 1.391 . S
C319 H349 0.948 . S
C320 C319 1.391 . S
C320 C321 1.391 . S
C321 C320 1.391 . S
C321 C322 1.392 . S
C321 H350 0.947 . S
C322 C321 1.392 . S
C322 C323 1.419 . S
C322 H351 0.948 . S
C323 C322 1.419 . S
C323 C324 1.391 . S
C323 C327 1.397 . S
C324 C319 1.391 . S
C324 C323 1.391 . S
C324 C325 1.399 . S
C325 C324 1.399 . S
C325 C326 1.396 . S
C325 C328 1.453 . S
C325 C329 1.684 . S
C326 C307 1.723 . S
C326 C325 1.396 . S
C326 C327 1.394 . S
C327 C323 1.397 . S
C327 C326 1.394 . S
C327 C337 1.723 . S
C328 C325 1.453 . S
C328 H352 0.982 . S
C328 H353 0.979 . S
C328 H354 0.977 . S
C329 C325 1.684 . S
C329 H355 0.979 . S
C329 H356 0.980 . S
C329 H357 0.983 . S
C330 H306 0.948 . S
C330 C331 1.391 . S
C330 C335 1.391 . S
C331 C330 1.391 . S
C331 C332 1.391 . S
C332 H309 0.947 . S
C332 C331 1.391 . S
C332 C333 1.392 . S
C333 H310 0.948 . S
C333 C332 1.392 . S
C333 C334 1.419 . S
C334 C333 1.419 . S
C334 C335 1.391 . S
C334 C338 1.397 . S
C335 C330 1.391 . S
C335 C334 1.391 . S
C335 C336 1.399 . S
C336 C335 1.399 . S
C336 C337 1.396 . S
C336 C339 1.453 . S
C336 C340 1.684 . S
C337 C327 1.723 . S
C337 C336 1.396 . S
C337 C338 1.394 . S
C338 C308 1.723 . S
C338 C334 1.397 . S
C338 C337 1.394 . S
C339 H311 0.982 . S
C339 H315 0.979 . S
C339 H316 0.977 . S
C339 C336 1.453 . S
C340 H312 0.979 . S
C340 H313 0.980 . S
C340 H314 0.983 . S
C340 C336 1.684 . S
H341 C359 0.948 . S
H342 C300 0.948 . S
H343 C318 0.979 . S
H344 C318 0.980 . S
H345 C318 0.983 . S
H346 C317 0.982 . S
H347 C317 0.979 . S
H348 C317 0.977 . S
H349 C319 0.948 . S
H350 C321 0.947 . S
H351 C322 0.948 . S
H352 C328 0.982 . S
H353 C328 0.979 . S
H354 C328 0.977 . S
H355 C329 0.979 . S
H356 C329 0.980 . S
H357 C329 0.983 . S
H358 C302 0.947 . S
C359 C302 1.392 . S
C359 C303 1.419 . S
C359 H341 0.948 . S
C360 C361 1.391 . S
C360 C364 1.391 1_556 S
C360 H402 0.948 . S
C361 C360 1.391 . S
C361 C362 1.391 1_556 S
C362 C361 1.391 1_554 S
C362 H418 0.947 . S
C362 C419 1.392 . S
C363 C364 1.391 . S
C363 C367 1.397 . S
C363 C419 1.419 . S
C364 C360 1.391 1_554 S
C364 C363 1.391 . S
C364 C365 1.399 . S
C365 C364 1.399 . S
C365 C368 1.396 . S
C365 C377 1.453 1_545 S
C365 C378 1.684 . S
H366 C390 0.948 . S
C367 C363 1.397 . S
C367 C368 1.394 . S
C367 C386 1.723 . S
C368 C365 1.396 . S
C368 C367 1.394 . S
C368 C398 1.723 . S
H369 C392 0.947 . S
H370 C393 0.948 . S
H371 C399 0.982 . S
H372 C400 0.979 . S
H373 C400 0.980 . S
H374 C400 0.983 . S
H375 C399 0.979 . S
H376 C399 0.977 . S
C377 C365 1.453 1_565 S
C377 H406 0.982 . S
C377 H407 0.979 . S
C377 H408 0.977 . S
C378 C365 1.684 . S
C378 H403 0.979 . S
C378 H404 0.980 . S
C378 H405 0.983 . S
C379 C380 1.391 . S
C379 C384 1.391 . S
C379 H409 0.948 . S
C380 C379 1.391 . S
C380 C381 1.391 . S
C381 C380 1.391 . S
C381 C382 1.392 . S
C381 H410 0.947 . S
C382 C381 1.392 . S
C382 C383 1.419 . S
C382 H411 0.948 . S
C383 C382 1.419 . S
C383 C384 1.391 . S
C383 C387 1.397 . S
C384 C379 1.391 . S
C384 C383 1.391 . S
C384 C385 1.399 . S
C385 C384 1.399 . S
C385 C386 1.396 . S
C385 C388 1.453 1_545 S
C385 C389 1.684 . S
C386 C367 1.723 . S
C386 C385 1.396 . S
C386 C387 1.394 . S
C387 C383 1.397 . S
C387 C386 1.394 . S
C387 C397 1.723 . S
C388 C385 1.453 1_565 S
C388 H412 0.982 . S
C388 H413 0.979 . S
C388 H414 0.977 . S
C389 C385 1.684 . S
C389 H415 0.979 . S
C389 H416 0.980 . S
C389 H417 0.983 . S
C390 H366 0.948 . S
C390 C391 1.391 . S
C390 C395 1.391 . S
C391 C390 1.391 . S
C391 C392 1.391 . S
C392 H369 0.947 . S
C392 C391 1.391 . S
C392 C393 1.392 . S
C393 H370 0.948 . S
C393 C392 1.392 . S
C393 C394 1.419 . S
C394 C393 1.419 . S
C394 C395 1.391 . S
C394 C398 1.397 . S
C395 C390 1.391 . S
C395 C394 1.391 . S
C395 C396 1.399 . S
C396 C395 1.399 . S
C396 C397 1.396 . S
C396 C399 1.453 1_545 S
C396 C400 1.684 . S
C397 C387 1.723 . S
C397 C396 1.396 . S
C397 C398 1.394 . S
C398 C368 1.723 . S
C398 C394 1.397 . S
C398 C397 1.394 . S
C399 H371 0.982 . S
C399 H375 0.979 . S
C399 H376 0.977 . S
C399 C396 1.453 1_565 S
C400 H372 0.979 . S
C400 H373 0.980 . S
C400 H374 0.983 . S
C400 C396 1.684 . S
H401 C419 0.948 . S
H402 C360 0.948 . S
H403 C378 0.979 . S
H404 C378 0.980 . S
H405 C378 0.983 . S
H406 C377 0.982 . S
H407 C377 0.979 . S
H408 C377 0.977 . S
H409 C379 0.948 . S
H410 C381 0.947 . S
H411 C382 0.948 . S
H412 C388 0.982 . S
H413 C388 0.979 . S
H414 C388 0.977 . S
H415 C389 0.979 . S
H416 C389 0.980 . S
H417 C389 0.983 . S
H418 C362 0.947 . S
C419 C362 1.392 . S
C419 C363 1.419 . S
C419 H401 0.948 . S
C420 C421 1.391 1_554 S
C420 C424 1.391 . S
C420 H462 0.948 1_554 S
C421 C420 1.391 1_556 S
C421 C422 1.391 1_556 S
C422 C421 1.391 1_554 S
C422 H478 0.947 . S
C422 C479 1.392 . S
C423 C424 1.391 . S
C423 C427 1.397 . S
C423 C479 1.419 . S
C424 C420 1.391 . S
C424 C423 1.391 . S
C424 C425 1.399 . S
C425 C424 1.399 . S
C425 C428 1.396 . S
C425 C437 1.453 . S
C425 C438 1.684 . S
H426 C450 0.948 . S
C427 C423 1.397 . S
C427 C428 1.394 . S
C427 C446 1.723 . S
C428 C425 1.396 . S
C428 C427 1.394 . S
C428 C458 1.723 . S
H429 C452 0.947 . S
H430 C453 0.948 . S
H431 C459 0.982 . S
H432 C460 0.979 . S
H433 C460 0.980 . S
H434 C460 0.983 . S
H435 C459 0.979 . S
H436 C459 0.977 . S
C437 C425 1.453 . S
C437 H466 0.982 . S
C437 H467 0.979 . S
C437 H468 0.977 . S
C438 C425 1.684 . S
C438 H463 0.979 . S
C438 H464 0.980 . S
C438 H465 0.983 . S
C439 C440 1.391 . S
C439 C444 1.391 . S
C439 H469 0.948 . S
C440 C439 1.391 . S
C440 C441 1.391 . S
C441 C440 1.391 . S
C441 C442 1.392 . S
C441 H470 0.947 . S
C442 C441 1.392 . S
C442 C443 1.419 . S
C442 H471 0.948 . S
C443 C442 1.419 . S
C443 C444 1.391 . S
C443 C447 1.397 . S
C444 C439 1.391 . S
C444 C443 1.391 . S
C444 C445 1.399 . S
C445 C444 1.399 . S
C445 C446 1.396 . S
C445 C448 1.453 . S
C445 C449 1.684 . S
C446 C427 1.723 . S
C446 C445 1.396 . S
C446 C447 1.394 . S
C447 C443 1.397 . S
C447 C446 1.394 . S
C447 C457 1.723 . S
C448 C445 1.453 . S
C448 H472 0.982 . S
C448 H473 0.979 . S
C448 H474 0.977 . S
C449 C445 1.684 . S
C449 H475 0.979 . S
C449 H476 0.980 . S
C449 H477 0.983 . S
C450 H426 0.948 . S
C450 C451 1.391 . S
C450 C455 1.391 . S
C451 C450 1.391 . S
C451 C452 1.391 . S
C452 H429 0.947 . S
C452 C451 1.391 . S
C452 C453 1.392 . S
C453 H430 0.948 . S
C453 C452 1.392 . S
C453 C454 1.419 . S
C454 C453 1.419 . S
C454 C455 1.391 . S
C454 C458 1.397 . S
C455 C450 1.391 . S
C455 C454 1.391 . S
C455 C456 1.399 . S
C456 C455 1.399 . S
C456 C457 1.396 . S
C456 C459 1.453 . S
C456 C460 1.684 . S
C457 C447 1.723 . S
C457 C456 1.396 . S
C457 C458 1.394 . S
C458 C428 1.723 . S
C458 C454 1.397 . S
C458 C457 1.394 . S
C459 H431 0.982 . S
C459 H435 0.979 . S
C459 H436 0.977 . S
C459 C456 1.453 . S
C460 H432 0.979 . S
C460 H433 0.980 . S
C460 H434 0.983 . S
C460 C456 1.684 . S
H461 C479 0.948 . S
H462 C420 0.948 1_556 S
H463 C438 0.979 . S
H464 C438 0.980 . S
H465 C438 0.983 . S
H466 C437 0.982 . S
H467 C437 0.979 . S
H468 C437 0.977 . S
H469 C439 0.948 . S
H470 C441 0.947 . S
H471 C442 0.948 . S
H472 C448 0.982 . S
H473 C448 0.979 . S
H474 C448 0.977 . S
H475 C449 0.979 . S
H476 C449 0.980 . S
H477 C449 0.983 . S
H478 C422 0.947 . S
C479 C422 1.392 . S
C479 C423 1.419 . S
C479 H461 0.948 . S
Tb480 O483 2.453 1_665 S
Tb480 O484 2.596 1_665 S
Tb480 O485 2.374 1_655 S
Tb480 O493 2.343 . S
Tb480 O495 2.353 1_565 S
Tb480 O497 2.427 . S
Tb480 O498 2.513 . S
C481 O485 1.251 . S
C481 O487 1.263 . S
Tb482 O484 2.343 . S
Tb482 O487 2.353 1_545 S
Tb482 O490 2.427 . S
Tb482 O491 2.513 . S
Tb482 O492 2.453 1_545 S
Tb482 O493 2.596 1_445 S
Tb482 O494 2.374 1_455 S
O483 Tb480 2.453 1_445 S
O483 C499 1.245 . S
O484 Tb480 2.596 1_445 S
O484 Tb482 2.343 . S
O484 C499 1.259 . S
O485 Tb480 2.374 1_455 S
O485 C481 1.251 . S
C486 O490 1.275 . S
C486 O491 1.246 . S
O487 C481 1.263 . S
O487 Tb482 2.353 1_565 S
C488 O492 1.245 1_655 S
C488 O493 1.259 . S
C489 O494 1.250 . S
C489 O495 1.263 . S
O490 Tb482 2.427 . S
O490 C486 1.275 . S
O491 Tb482 2.513 . S
O491 C486 1.246 . S
O492 Tb482 2.453 1_565 S
O492 C488 1.245 1_455 S
O493 Tb480 2.343 . S
O493 Tb482 2.596 1_665 S
O493 C488 1.259 . S
O494 Tb482 2.374 1_655 S
O494 C489 1.250 . S
O495 Tb480 2.353 1_545 S
O495 C489 1.263 . S
C496 O497 1.275 . S
C496 O498 1.246 . S
O497 Tb480 2.427 . S
O497 C496 1.275 . S
O498 Tb480 2.513 . S
O498 C496 1.246 . S
C499 O483 1.245 . S
C499 O484 1.259 . S
Tb500 O503 2.453 . S
Tb500 O504 2.596 1_545 S
Tb500 O505 2.374 . S
Tb500 O513 2.343 . S
Tb500 O515 2.353 . S
Tb500 O517 2.427 . S
Tb500 O518 2.513 . S
C501 O505 1.251 . S
C501 O507 1.263 1_545 S
Tb502 O504 2.343 . S
Tb502 O507 2.353 . S
Tb502 O510 2.427 . S
Tb502 O511 2.513 . S
Tb502 O512 2.453 . S
Tb502 O513 2.596 1_565 S
Tb502 O514 2.374 . S
O503 Tb500 2.453 . S
O503 C519 1.245 . S
O504 Tb500 2.596 1_565 S
O504 Tb502 2.343 . S
O504 C519 1.259 1_565 S
O505 Tb500 2.374 . S
O505 C501 1.251 . S
C506 O510 1.275 . S
C506 O511 1.246 . S
O507 C501 1.263 1_565 S
O507 Tb502 2.353 . S
C508 O512 1.245 . S
C508 O513 1.259 1_565 S
C509 O514 1.250 1_545 S
C509 O515 1.263 . S
O510 Tb502 2.427 . S
O510 C506 1.275 . S
O511 Tb502 2.513 . S
O511 C506 1.246 . S
O512 Tb502 2.453 . S
O512 C508 1.245 . S
O513 Tb500 2.343 . S
O513 Tb502 2.596 1_545 S
O513 C508 1.259 1_545 S
O514 Tb502 2.374 . S
O514 C509 1.250 1_565 S
O515 Tb500 2.353 . S
O515 C509 1.263 . S
C516 O517 1.275 . S
C516 O518 1.246 . S
O517 Tb500 2.427 . S
O517 C516 1.275 . S
O518 Tb500 2.513 . S
O518 C516 1.246 . S
C519 O503 1.245 . S
C519 O504 1.259 1_545 S
Tb520 O523 2.453 . S
Tb520 O524 2.596 . S
Tb520 O525 2.374 . S
Tb520 O533 2.343 . S
Tb520 O535 2.353 . S
Tb520 O537 2.427 . S
Tb520 O538 2.513 . S
C521 O525 1.251 . S
C521 O527 1.263 . S
Tb522 O524 2.343 . S
Tb522 O527 2.353 . S
Tb522 O530 2.427 . S
Tb522 O531 2.513 . S
Tb522 O532 2.453 . S
Tb522 O533 2.596 . S
Tb522 O534 2.374 . S
O523 Tb520 2.453 . S
O523 C539 1.245 . S
O524 Tb520 2.596 . S
O524 Tb522 2.343 . S
O524 C539 1.259 . S
O525 Tb520 2.374 . S
O525 C521 1.251 . S
C526 O530 1.275 . S
C526 O531 1.246 . S
O527 C521 1.263 . S
O527 Tb522 2.353 . S
C528 O532 1.245 . S
C528 O533 1.259 . S
C529 O534 1.250 . S
C529 O535 1.263 . S
O530 Tb522 2.427 . S
O530 C526 1.275 . S
O531 Tb522 2.513 . S
O531 C526 1.246 . S
O532 Tb522 2.453 . S
O532 C528 1.245 . S
O533 Tb520 2.343 . S
O533 Tb522 2.596 . S
O533 C528 1.259 . S
O534 Tb522 2.374 . S
O534 C529 1.250 . S
O535 Tb520 2.353 . S
O535 C529 1.263 . S
C536 O537 1.275 . S
C536 O538 1.246 . S
O537 Tb520 2.427 . S
O537 C536 1.275 . S
O538 Tb520 2.513 . S
O538 C536 1.246 . S
C539 O523 1.245 . S
C539 O524 1.259 . S
Tb540 O543 2.453 1_655 S
Tb540 O544 2.596 1_655 S
Tb540 O545 2.374 1_655 S
Tb540 O553 2.343 . S
Tb540 O555 2.353 . S
Tb540 O557 2.427 . S
Tb540 O558 2.513 . S
C541 O545 1.251 . S
C541 O547 1.263 . S
Tb542 O544 2.343 . S
Tb542 O547 2.353 . S
Tb542 O550 2.427 . S
Tb542 O551 2.513 . S
Tb542 O552 2.453 1_455 S
Tb542 O553 2.596 1_455 S
Tb542 O554 2.377 . S
O543 Tb540 2.453 1_455 S
O543 C559 1.245 . S
O544 Tb540 2.596 1_455 S
O544 Tb542 2.343 . S
O544 C559 1.259 . S
O545 Tb540 2.374 1_455 S
O545 C541 1.251 . S
C546 O550 1.275 . S
C546 O551 1.246 . S
O547 C541 1.263 . S
O547 Tb542 2.353 . S
C548 O552 1.245 . S
C548 O553 1.259 . S
C549 O554 1.247 1_655 S
C549 O555 1.263 . S
O550 Tb542 2.427 . S
O550 C546 1.275 . S
O551 Tb542 2.513 . S
O551 C546 1.246 . S
O552 Tb542 2.453 1_655 S
O552 C548 1.245 . S
O553 Tb540 2.343 . S
O553 Tb542 2.596 1_655 S
O553 C548 1.259 . S
O554 Tb542 2.377 . S
O554 C549 1.247 1_455 S
O555 Tb540 2.353 . S
O555 C549 1.263 . S
C556 O557 1.275 . S
C556 O558 1.246 . S
O557 Tb540 2.427 . S
O557 C556 1.275 . S
O558 Tb540 2.513 . S
O558 C556 1.246 . S
C559 O543 1.245 . S
C559 O544 1.259 . S
C560 C561 1.387 . S
C560 H564 0.950 . S
C560 C569 1.390 . S
C561 C560 1.387 . S
C561 C563 1.387 1_545 S
H562 C569 0.950 . S
C563 C561 1.387 1_565 S
C563 C565 1.390 . S
C563 H567 0.950 . S
H564 C560 0.950 . S
C565 C563 1.390 . S
C565 C566 1.387 . S
C565 H568 0.950 . S
C566 C565 1.387 . S
C566 C569 1.387 1_565 S
H567 C563 0.950 . S
H568 C565 0.950 . S
C569 C560 1.390 . S
C569 H562 0.950 . S
C569 C566 1.387 1_545 S
C570 C571 1.387 . S
C570 H574 0.950 . S
C570 C579 1.390 . S
C571 C570 1.387 . S
C571 C573 1.387 . S
H572 C579 0.950 . S
C573 C571 1.387 . S
C573 C575 1.390 . S
C573 H577 0.950 . S
H574 C570 0.950 . S
C575 C573 1.390 . S
C575 C576 1.387 . S
C575 H578 0.950 . S
C576 C575 1.387 . S
C576 C579 1.387 . S
H577 C573 0.950 . S
H578 C575 0.950 . S
C579 C570 1.390 . S
C579 H572 0.950 . S
C579 C576 1.387 . S
C580 C581 1.387 . S
C580 H584 0.950 . S
C580 C589 1.390 . S
C581 C580 1.387 . S
C581 C583 1.387 . S
H582 C589 0.950 . S
C583 C581 1.387 . S
C583 C585 1.390 . S
C583 H587 0.950 . S
H584 C580 0.950 . S
C585 C583 1.390 . S
C585 C586 1.387 . S
C585 H588 0.950 . S
C586 C585 1.387 . S
C586 C589 1.387 . S
H587 C583 0.950 . S
H588 C585 0.950 . S
C589 C580 1.390 . S
C589 H582 0.950 . S
C589 C586 1.387 . S
C590 C591 1.387 . S
C590 H594 0.950 . S
C590 C599 1.390 . S
C591 C590 1.387 . S
C591 C593 1.387 . S
H592 C599 0.950 . S
C593 C591 1.387 . S
C593 C595 1.390 . S
C593 H597 0.950 . S
H594 C590 0.950 . S
C595 C593 1.390 . S
C595 C596 1.387 . S
C595 H598 0.950 . S
C596 C595 1.387 . S
C596 C599 1.387 . S
H597 C593 0.950 . S
H598 C595 0.950 . S
C599 C590 1.390 . S
C599 H592 0.950 . S
C599 C596 1.387 . S
C600 C601 1.387 . S
C600 H604 0.950 . S
C600 C609 1.390 . S
C601 C600 1.387 . S
C601 C603 1.387 1_545 S
H602 C609 0.950 . S
C603 C601 1.387 1_565 S
C603 C605 1.390 . S
C603 H607 0.950 . S
H604 C600 0.950 . S
C605 C603 1.390 . S
C605 C606 1.387 1_565 S
C605 H608 0.950 . S
C606 C605 1.387 1_545 S
C606 C609 1.387 . S
H607 C603 0.950 . S
H608 C605 0.950 . S
C609 C600 1.390 . S
C609 H602 0.950 . S
C609 C606 1.387 . S
C610 C611 1.387 . S
C610 H614 0.950 . S
C610 C619 1.390 . S
C611 C610 1.387 . S
C611 C613 1.387 . S
H612 C619 0.950 . S
C613 C611 1.387 . S
C613 C615 1.390 . S
C613 H617 0.950 1_556 S
H614 C610 0.950 . S
C615 C613 1.390 . S
C615 C616 1.387 . S
C615 H618 0.950 . S
C616 C615 1.387 . S
C616 C619 1.387 . S
H617 C613 0.950 1_554 S
H618 C615 0.950 . S
C619 C610 1.390 . S
C619 H612 0.950 . S
C619 C616 1.387 . S
C620 C621 1.387 . S
C620 H624 0.950 . S
C620 C629 1.390 . S
C621 C620 1.387 . S
C621 C623 1.387 . S
H622 C629 0.950 . S
C623 C621 1.387 . S
C623 C625 1.390 . S
C623 H627 0.950 . S
H624 C620 0.950 . S
C625 C623 1.390 . S
C625 C626 1.387 . S
C625 H628 0.950 . S
C626 C625 1.387 . S
C626 C629 1.387 . S
H627 C623 0.950 . S
H628 C625 0.950 . S
C629 C620 1.390 . S
C629 H622 0.950 . S
C629 C626 1.387 . S
C630 C631 1.387 . S
C630 H634 0.950 . S
C630 C639 1.390 . S
C631 C630 1.387 . S
C631 C633 1.387 . S
H632 C639 0.950 . S
C633 C631 1.387 . S
C633 C635 1.390 . S
C633 H637 0.950 . S
H634 C630 0.950 . S
C635 C633 1.390 . S
C635 C636 1.387 . S
C635 H638 0.950 . S
C636 C635 1.387 . S
C636 C639 1.387 . S
H637 C633 0.950 . S
H638 C635 0.950 . S
C639 C630 1.390 . S
C639 H632 0.950 . S
C639 C636 1.387 . S
C640 C641 1.387 . S
C640 H644 0.950 . S
C640 C649 1.390 . S
C641 C640 1.387 . S
C641 C643 1.387 . S
H642 C649 0.950 . S
C643 C641 1.387 . S
C643 C645 1.390 . S
C643 H647 0.950 . S
H644 C640 0.950 . S
C645 C643 1.390 . S
C645 C646 1.387 . S
C645 H648 0.950 . S
C646 C645 1.387 . S
C646 C649 1.387 . S
H647 C643 0.950 . S
H648 C645 0.950 . S
C649 C640 1.390 . S
C649 H642 0.950 . S
C649 C646 1.387 . S
C650 C651 1.387 . S
C650 H654 0.950 . S
C650 C659 1.390 . S
C651 C650 1.387 . S
C651 C653 1.387 1_545 S
H652 C659 0.950 . S
C653 C651 1.387 1_565 S
C653 C655 1.390 . S
C653 H657 0.950 . S
H654 C650 0.950 . S
C655 C653 1.390 . S
C655 C656 1.394 . S
C655 H658 0.950 . S
C656 C655 1.394 . S
C656 C659 1.379 1_565 S
H657 C653 0.950 . S
H658 C655 0.950 . S
C659 C650 1.390 . S
C659 H652 0.950 . S
C659 C656 1.379 1_545 S
C660 C661 1.387 . S
C660 H664 0.950 . S
C660 C669 1.390 . S
C661 C660 1.387 . S
C661 C663 1.387 . S
H662 C669 0.950 . S
C663 C661 1.387 . S
C663 C665 1.390 . S
C663 H667 0.950 . S
H664 C660 0.950 . S
C665 C663 1.390 . S
C665 C666 1.387 . S
C665 H668 0.950 . S
C666 C665 1.387 . S
C666 C669 1.387 . S
H667 C663 0.950 . S
H668 C665 0.950 . S
C669 C660 1.390 . S
C669 H662 0.950 . S
C669 C666 1.387 . S
C670 C671 1.387 . S
C670 H674 0.950 . S
C670 C679 1.390 . S
C671 C670 1.387 . S
C671 C673 1.387 . S
H672 C679 0.950 . S
C673 C671 1.387 . S
C673 C675 1.390 . S
C673 H677 0.950 . S
H674 C670 0.950 . S
C675 C673 1.390 . S
C675 C676 1.387 . S
C675 H678 0.950 . S
C676 C675 1.387 . S
C676 C679 1.387 . S
H677 C673 0.950 . S
H678 C675 0.950 . S
C679 C670 1.390 . S
C679 H672 0.950 . S
C679 C676 1.387 . S
C680 C681 1.387 . S
C680 H684 0.950 . S
C680 C689 1.390 . S
C681 C680 1.387 . S
C681 C683 1.387 . S
H682 C689 0.950 . S
C683 C681 1.387 . S
C683 C685 1.390 . S
C683 H687 0.950 . S
H684 C680 0.950 . S
C685 C683 1.390 . S
C685 C686 1.387 . S
C685 H688 0.950 . S
C686 C685 1.387 . S
C686 C689 1.387 . S
H687 C683 0.950 . S
H688 C685 0.950 . S
C689 C680 1.390 . S
C689 H682 0.950 . S
C689 C686 1.387 . S
C690 C691 1.382 1_565 S
C690 H694 0.950 . S
C690 C699 1.390 . S
C691 C690 1.382 1_545 S
C691 C693 1.396 . S
H692 C699 0.950 . S
C693 C691 1.396 . S
C693 C695 1.390 . S
C693 H697 0.950 . S
H694 C690 0.950 . S
C695 C693 1.390 . S
C695 C696 1.387 . S
C695 H698 0.950 . S
C696 C695 1.387 . S
C696 C699 1.387 1_545 S
H697 C693 0.950 . S
H698 C695 0.950 . S
C699 C690 1.390 . S
C699 H692 0.950 . S
C699 C696 1.387 1_565 S
C700 C701 1.387 . S
C700 H704 0.950 . S
C700 C709 1.390 . S
C701 C700 1.387 . S
C701 C703 1.387 . S
H702 C709 0.950 . S
C703 C701 1.387 . S
C703 C705 1.390 . S
C703 H707 0.950 . S
H704 C700 0.950 . S
C705 C703 1.390 . S
C705 C706 1.387 . S
C705 H708 0.950 . S
C706 C705 1.387 . S
C706 C709 1.387 . S
H707 C703 0.950 . S
H708 C705 0.950 . S
C709 C700 1.390 . S
C709 H702 0.950 . S
C709 C706 1.387 . S
C710 C711 1.387 . S
C710 H714 0.950 . S
C710 C719 1.390 . S
C711 C710 1.387 . S
C711 C713 1.387 . S
H712 C719 0.950 . S
C713 C711 1.387 . S
C713 C715 1.390 . S
C713 H717 0.950 . S
H714 C710 0.950 . S
C715 C713 1.390 . S
C715 C716 1.387 . S
C715 H718 0.950 . S
C716 C715 1.387 . S
C716 C719 1.387 . S
H717 C713 0.950 . S
H718 C715 0.950 . S
C719 C710 1.390 . S
C719 H712 0.950 . S
C719 C716 1.387 . S
C720 C721 1.387 . S
C720 H724 0.950 . S
C720 C729 1.390 . S
C721 C720 1.387 . S
C721 C723 1.387 1_556 S
H722 C729 0.950 . S
C723 C721 1.387 1_554 S
C723 C725 1.390 1_554 S
C723 H727 0.950 . S
H724 C720 0.950 . S
C725 C723 1.390 1_556 S
C725 C726 1.387 . S
C725 H728 0.950 1_556 S
C726 C725 1.387 . S
C726 C729 1.387 . S
H727 C723 0.950 . S
H728 C725 0.950 1_554 S
C729 C720 1.390 . S
C729 H722 0.950 . S
C729 C726 1.387 . S
C730 C731 1.387 . S
C730 H734 0.950 . S
C730 C739 1.390 . S
C731 C730 1.387 . S
C731 C733 1.387 1_545 S
H732 C739 0.950 . S
C733 C731 1.387 1_565 S
C733 C735 1.390 . S
C733 H737 0.950 . S
H734 C730 0.950 . S
C735 C733 1.390 . S
C735 C736 1.387 1_565 S
C735 H738 0.950 . S
C736 C735 1.387 1_545 S
C736 C739 1.387 . S
H737 C733 0.950 . S
H738 C735 0.950 . S
C739 C730 1.390 . S
C739 H732 0.950 . S
C739 C736 1.387 . S
C740 C741 1.387 . S
C740 H744 0.950 1_556 S
C740 C749 1.390 . S
C741 C740 1.387 . S
C741 C743 1.387 . S
H742 C749 0.950 1_554 S
C743 C741 1.387 . S
C743 C745 1.390 . S
C743 H747 0.950 . S
H744 C740 0.950 1_554 S
C745 C743 1.390 . S
C745 C746 1.387 . S
C745 H748 0.950 . S
C746 C745 1.387 . S
C746 C749 1.387 . S
H747 C743 0.950 . S
H748 C745 0.950 . S
C749 C740 1.390 . S
C749 H742 0.950 1_556 S
C749 C746 1.387 . S
C750 C751 1.387 . S
C750 H754 0.950 1_556 S
C750 C759 1.390 . S
C751 C750 1.387 . S
C751 C753 1.387 . S
H752 C759 0.950 . S
C753 C751 1.387 . S
C753 C755 1.390 . S
C753 H757 0.950 . S
H754 C750 0.950 1_554 S
C755 C753 1.390 . S
C755 C756 1.387 . S
C755 H758 0.950 . S
C756 C755 1.387 . S
C756 C759 1.387 . S
H757 C753 0.950 . S
H758 C755 0.950 . S
C759 C750 1.390 . S
C759 H752 0.950 . S
C759 C756 1.387 . S
C760 C761 1.387 . S
C760 H764 0.950 . S
C760 C769 1.390 . S
C761 C760 1.387 . S
C761 C763 1.387 . S
H762 C769 0.950 . S
C763 C761 1.387 . S
C763 C765 1.390 . S
C763 H767 0.950 . S
H764 C760 0.950 . S
C765 C763 1.390 . S
C765 C766 1.387 . S
C765 H768 0.950 . S
C766 C765 1.387 . S
C766 C769 1.387 . S
H767 C763 0.950 . S
H768 C765 0.950 . S
C769 C760 1.390 . S
C769 H762 0.950 . S
C769 C766 1.387 . S
C770 C771 1.387 . S
C770 H774 0.950 . S
C770 C779 1.390 . S
C771 C770 1.387 . S
C771 C773 1.388 1_545 S
H772 C779 0.950 . S
C773 C771 1.388 1_565 S
C773 C775 1.390 . S
C773 H777 0.950 . S
H774 C770 0.950 . S
C775 C773 1.390 . S
C775 C776 1.386 1_565 S
C775 H778 0.950 . S
C776 C775 1.386 1_545 S
C776 C779 1.389 . S
H777 C773 0.950 . S
H778 C775 0.950 . S
C779 C770 1.390 . S
C779 H772 0.950 . S
C779 C776 1.389 . S
C780 C781 1.387 . S
C780 H784 0.950 . S
C780 C789 1.390 . S
C781 C780 1.387 . S
C781 C783 1.387 . S
H782 C789 0.950 . S
C783 C781 1.387 . S
C783 C785 1.390 . S
C783 H787 0.950 . S
H784 C780 0.950 . S
C785 C783 1.390 . S
C785 C786 1.387 . S
C785 H788 0.950 . S
C786 C785 1.387 . S
C786 C789 1.387 . S
H787 C783 0.950 . S
H788 C785 0.950 . S
C789 C780 1.390 . S
C789 H782 0.950 . S
C789 C786 1.387 . S
C790 C791 1.387 . S
C790 H794 0.950 . S
C790 C799 1.390 . S
C791 C790 1.387 . S
C791 C793 1.387 . S
H792 C799 0.950 . S
C793 C791 1.387 . S
C793 C795 1.390 . S
C793 H797 0.950 . S
H794 C790 0.950 . S
C795 C793 1.390 . S
C795 C796 1.387 . S
C795 H798 0.950 . S
C796 C795 1.387 . S
C796 C799 1.387 . S
H797 C793 0.950 . S
H798 C795 0.950 . S
C799 C790 1.390 . S
C799 H792 0.950 . S
C799 C796 1.387 . S
C561 C391 1.669 . S
C566 C481 1.644 . S
C576 C516 2.355 . S
C571 C451 2.240 . S
C586 C521 1.543 . S
C581 C241 1.453 . S
C596 C541 2.102 . S
C591 C331 1.772 . S
C606 C489 1.644 . S
C601 C121 1.504 1_546 S
C611 C211 2.094 1_556 S
C616 C506 2.356 . S
C621 C31 1.605 . S
C626 C529 1.540 . S
C631 C91 1.925 . S
C636 C549 2.102 . S
C646 C499 1.992 . S
C641 C301 1.491 . S
C656 C508 0.986 . S
C651 C380 0.983 . S
C666 C539 2.078 . S
C661 C440 1.887 . S
C671 C260 1.077 . S
C676 C559 1.228 . S
C681 C61 1.670 . S
C686 C488 1.992 . S
C696 C519 0.983 . S
C691 C140 0.906 1_545 S
C706 C528 2.078 . S
C701 C200 1.705 . S
C711 C20 1.213 . S
C716 C548 1.230 . S
C721 C320 2.090 1_556 S
C726 C486 2.306 . S
C731 C361 1.709 . S
C736 C509 2.138 . S
C746 C526 2.503 . S
C741 C421 2.105 . S
C756 C546 2.232 . S
C751 C271 2.128 1_556 S
C761 C80 2.200 . S
C766 C496 2.306 . S
C776 C501 2.139 . S
C771 C151 2.011 1_545 S
C786 C536 2.503 . S
C781 C181 1.970 . S
C791 C1 1.864 . S
C796 C556 2.231 . S
