# Generated by pormake.
# Topology anh, (6,3)-cn, num edge types: 1
# Building blocks:
#     Node 0, Type 0, BuildingBlock: GEDQOX_clean_sbu_0, # of connection points: 6
#     Node 1, Type 0, BuildingBlock: GEDQOX_clean_sbu_0, # of connection points: 6
#     Node 2, Type 0, BuildingBlock: GEDQOX_clean_sbu_0, # of connection points: 6
#     Node 3, Type 1, BuildingBlock: VETTIZ_charged_linker_0, # of connection points: 3
#     Node 4, Type 1, BuildingBlock: VETTIZ_charged_linker_0, # of connection points: 3
#     Node 5, Type 1, BuildingBlock: VETTIZ_charged_linker_0, # of connection points: 3
#     Node 6, Type 1, BuildingBlock: VETTIZ_charged_linker_0, # of connection points: 3
#     Node 7, Type 1, BuildingBlock: VETTIZ_charged_linker_0, # of connection points: 3
#     Node 8, Type 1, BuildingBlock: VETTIZ_charged_linker_0, # of connection points: 3
#     Edge 9, Type (0, 1), BuildingBlock: MIFKUJ_clean_linker_0, # of connection points: 2
#     Edge 10, Type (0, 1), BuildingBlock: MIFKUJ_clean_linker_0, # of connection points: 2
#     Edge 11, Type (0, 1), BuildingBlock: MIFKUJ_clean_linker_0, # of connection points: 2
#     Edge 12, Type (0, 1), BuildingBlock: MIFKUJ_clean_linker_0, # of connection points: 2
#     Edge 13, Type (0, 1), BuildingBlock: MIFKUJ_clean_linker_0, # of connection points: 2
#     Edge 14, Type (0, 1), BuildingBlock: MIFKUJ_clean_linker_0, # of connection points: 2
#     Edge 15, Type (0, 1), BuildingBlock: MIFKUJ_clean_linker_0, # of connection points: 2
#     Edge 16, Type (0, 1), BuildingBlock: MIFKUJ_clean_linker_0, # of connection points: 2
#     Edge 17, Type (0, 1), BuildingBlock: MIFKUJ_clean_linker_0, # of connection points: 2
#     Edge 18, Type (0, 1), BuildingBlock: MIFKUJ_clean_linker_0, # of connection points: 2
#     Edge 19, Type (0, 1), BuildingBlock: MIFKUJ_clean_linker_0, # of connection points: 2
#     Edge 20, Type (0, 1), BuildingBlock: MIFKUJ_clean_linker_0, # of connection points: 2
#     Edge 21, Type (0, 1), BuildingBlock: MIFKUJ_clean_linker_0, # of connection points: 2
#     Edge 22, Type (0, 1), BuildingBlock: MIFKUJ_clean_linker_0, # of connection points: 2
#     Edge 23, Type (0, 1), BuildingBlock: MIFKUJ_clean_linker_0, # of connection points: 2
#     Edge 24, Type (0, 1), BuildingBlock: MIFKUJ_clean_linker_0, # of connection points: 2
#     Edge 25, Type (0, 1), BuildingBlock: MIFKUJ_clean_linker_0, # of connection points: 2
#     Edge 26, Type (0, 1), BuildingBlock: MIFKUJ_clean_linker_0, # of connection points: 2
# Relax obj value: 0.165
# Max RMSD: 0.202
# Mean RMSD: 0.154
data_MOF--net-anh--node1-GEDQOX_clean_sbu_0--node2-VETTIZ_charged_linker_0--edge1-MIFKUJ_clean_linker_0
_symmetry_space_group_name_H-M    P1
_symmetry_Int_Tables_number       1
_symmetry_cell_setting            triclinic
loop_
_symmetry_equiv_pos_as_xyz
'x, y, z'
_cell_length_a     44.975806
_cell_length_b     43.632538
_cell_length_c     82.99175
_cell_angle_alpha  93.130568
_cell_angle_beta   90.983399
_cell_angle_gamma 108.00288
loop_
_atom_site_label
_atom_site_type_symbol
_atom_site_fract_x
_atom_site_fract_y
_atom_site_fract_z
_atom_type_partial_charge
Nd0 Nd 0.08055 0.54335 0.14686 0.0
Nd1 Nd 0.05906 0.47252 0.15411 0.0
C2 C 0.10807 0.60013 0.13525 0.0
C3 C 0.13965 0.62394 0.13629 0.0
C4 C 0.16657 0.61418 0.13537 0.0
C5 C 0.19633 0.63697 0.13708 0.0
C6 C 0.19985 0.67004 0.13995 0.0
C7 C 0.17274 0.67969 0.14066 0.0
C8 C 0.14299 0.65687 0.13881 0.0
C9 C 0.07448 0.53269 0.17901 0.0
C10 C 0.13406 0.50501 0.15224 0.0
C11 C 1.03103 0.41507 0.16496 0.0
C12 C 0.99878 0.39308 0.16569 0.0
C13 C 0.97322 0.40494 0.16731 0.0
C14 C 0.94276 0.38363 0.16783 0.0
C15 C 0.9373 0.35002 0.16666 0.0
C16 C 0.96305 0.33833 0.165 0.0
C17 C 0.99344 0.35965 0.16451 0.0
C18 C 0.06641 0.48477 0.12212 0.0
C19 C 1.00573 0.51067 0.14933 0.0
O20 O 0.1048 0.57256 0.12718 0.0
O21 O 0.09263 0.59677 0.14858 0.0
O22 O 0.0676 0.55604 0.17242 0.0
O23 O 0.08595 0.51719 0.16897 0.0
O24 O 0.12692 0.52933 0.14593 0.0
O25 O 0.11203 0.48123 0.15838 0.0
O26 O 1.0382 0.44201 0.17404 0.0
O27 O 1.04257 0.41902 0.15059 0.0
O28 O 0.0749 0.46226 0.12862 0.0
O29 O 0.0537 0.49877 0.13222 0.0
O30 O 1.01331 0.48712 0.15611 0.0
O31 O 1.02736 0.53371 0.14248 0.0
H32 H 0.16462 0.58892 0.13337 0.0
H33 H 0.21657 0.62859 0.13619 0.0
H34 H 0.17439 0.7048 0.14311 0.0
H35 H 0.12253 0.66491 0.13963 0.0
H36 H 0.97679 0.43066 0.16817 0.0
H37 H 0.9235 0.39348 0.169 0.0
H38 H 0.95981 0.31264 0.16435 0.0
H39 H 1.01284 0.35001 0.16326 0.0
Nd40 Nd 0.51971 1.00119 0.50925 0.0
Nd41 Nd 0.58783 0.01961 0.50093 0.0
C42 C 0.46374 0.97655 0.5212 0.0
C43 C 0.43876 0.94526 0.51991 0.0
C44 C 0.4458 0.91604 0.51908 0.0
C45 C 0.42188 0.88662 0.51676 0.0
C46 C 0.39044 0.88586 0.51521 0.0
C47 C 0.38349 0.9152 0.51639 0.0
C48 C 0.40745 0.9446 0.5187 0.0
C49 C 0.53043 0.007 0.47696 0.0
C50 C 0.55318 0.94378 0.50293 0.0
C51 C 0.64365 0.0434 0.48869 0.0
C52 C 0.66812 0.07459 0.48756 0.0
C53 C 0.66073 0.10323 0.4857 0.0
C54 C 0.68457 0.13249 0.48452 0.0
C55 C 0.71618 0.13357 0.48519 0.0
C56 C 0.72335 0.10482 0.48731 0.0
C57 C 0.69955 0.07566 0.48846 0.0
C58 C 0.57709 0.01286 0.53314 0.0
C59 C 0.55476 0.07691 0.50796 0.0
O60 O 0.48981 0.97762 0.52883 0.0
O61 O 0.46843 0.99251 0.50811 0.0
O62 O 0.50927 0.01653 0.48425 0.0
O63 O 0.544 0.99364 0.48643 0.0
O64 O 0.53006 0.95235 0.50945 0.0
O65 O 0.57698 0.96504 0.49661 0.0
O66 O 0.61739 0.03878 0.48043 0.0
O67 O 0.63949 0.03224 0.50304 0.0
O68 O 0.59816 1.00347 0.52569 0.0
O69 O 0.56362 0.02672 0.52386 0.0
O70 O 0.57685 0.0682 0.5004 0.0
O71 O 0.53204 0.05553 0.51495 0.0
H72 H 0.4698 0.91595 0.52003 0.0
H73 H 0.42802 0.86447 0.51612 0.0
H74 H 0.3596 0.91553 0.51503 0.0
H75 H 0.40156 0.9669 0.51923 0.0
H76 H 0.63659 0.10294 0.48503 0.0
H77 H 0.67824 0.15412 0.48276 0.0
H78 H 0.74742 0.10486 0.48817 0.0
H79 H 0.7057 0.05384 0.49003 0.0
Nd80 Nd 0.51606 0.49986 0.82753 0.0
Nd81 Nd 0.58144 0.52421 0.84373 0.0
C82 C 0.46749 0.49379 0.80792 0.0
C83 C 0.4551 0.51819 0.80138 0.0
C84 C 0.42274 0.51193 0.79939 0.0
C85 C 0.41063 0.53697 0.79621 0.0
C86 C 0.43076 0.56867 0.79524 0.0
C87 C 0.46321 0.5744 0.79625 0.0
C88 C 0.47529 0.5493 0.79912 0.0
C89 C 0.51766 0.49818 0.86045 0.0
C90 C 0.54933 0.57812 0.83721 0.0
C91 C 0.63178 0.53059 0.8619 0.0
C92 C 0.65664 0.51553 0.86026 0.0
C93 C 0.6722 0.50984 0.87398 0.0
C94 C 0.69657 0.49645 0.87231 0.0
C95 C 0.7059 0.48883 0.85687 0.0
C96 C 0.6892 0.49335 0.84319 0.0
C97 C 0.66466 0.50633 0.84489 0.0
C98 C 0.58059 0.52459 0.81073 0.0
C99 C 0.54767 0.4452 0.83446 0.0
O100 O 0.4948 0.49358 0.80283 0.0
O101 O 0.46514 0.4912 0.82352 0.0
O102 O 0.49792 0.47604 0.85105 0.0
O103 O 0.53406 0.52079 0.85252 0.0
O104 O 0.52981 0.55558 0.82745 0.0
O105 O 0.5692 0.57115 0.84714 0.0
O106 O 0.60423 0.51113 0.86507 0.0
O107 O 0.63062 0.55059 0.85087 0.0
O108 O 0.60095 0.54619 0.81999 0.0
O109 O 0.56366 0.50278 0.81886 0.0
O110 O 0.56965 0.46845 0.8427 0.0
O111 O 0.52525 0.45129 0.826 0.0
H112 H 0.40682 0.48812 0.80115 0.0
H113 H 0.38548 0.53197 0.79569 0.0
H114 H 0.47921 0.59856 0.79565 0.0
H115 H 0.5004 0.55467 0.80041 0.0
H116 H 0.66581 0.51618 0.88594 0.0
H117 H 0.70854 0.4927 0.88311 0.0
H118 H 0.69589 0.48824 0.83112 0.0
H119 H 0.65247 0.50997 0.83413 0.0
C120 C 0.63819 0.08898 0.20611 0.0
C121 C 0.66086 0.11429 0.215 0.0
C122 C 0.65878 0.11702 0.23194 0.0
C123 C 0.61392 0.06877 0.23099 0.0
C124 C 0.61498 0.06657 0.21434 0.0
C125 C 0.58915 0.03799 0.20693 0.0
H126 H 0.46827 0.90243 0.21807 0.0
C127 C 0.58817 0.04101 0.23596 0.0
C128 C 0.57342 0.02278 0.22192 0.0
H129 H 0.50032 0.94255 0.17272 0.0
H130 H 0.54038 0.98675 0.18699 0.0
H131 H 0.53536 0.91451 0.23493 0.0
H132 H 0.47041 0.969 0.23592 0.0
H133 H 0.48547 0.97111 0.25573 0.0
H134 H 0.46394 0.93237 0.24608 0.0
H135 H 0.50056 0.90322 0.24636 0.0
H136 H 0.5368 0.93095 0.25481 0.0
C137 C 0.60417 0.01551 0.19736 0.0
C138 C 0.56715 0.05082 0.19657 0.0
C139 C 0.5701 0.02513 0.29577 0.0
C140 C 0.54938 1.00058 0.30414 0.0
C141 C 0.52859 0.97392 0.29515 0.0
C142 C 0.52805 0.97199 0.27824 0.0
C143 C 0.54864 0.99684 0.27009 0.0
C144 C 0.56942 0.02267 0.27883 0.0
C145 C 0.59029 0.04623 0.26809 0.0
C146 C 0.57818 0.03053 0.25145 0.0
C147 C 0.55371 1.00174 0.25273 0.0
C148 C 0.62448 0.04698 0.27167 0.0
C149 C 0.58437 0.07922 0.271 0.0
C150 C 0.48416 0.9205 0.21119 0.0
C151 C 0.48139 0.91884 0.19426 0.0
C152 C 0.50202 0.94335 0.18578 0.0
C153 C 0.52522 0.96894 0.19409 0.0
C154 C 0.52758 0.97025 0.21107 0.0
C155 C 0.50703 0.94632 0.21928 0.0
C156 C 0.51178 0.95204 0.23727 0.0
C157 C 0.53855 0.9834 0.23859 0.0
C158 C 0.54806 0.99393 0.22324 0.0
C159 C 0.52142 0.92373 0.24382 0.0
C160 C 0.48138 0.95616 0.24426 0.0
H161 H 0.63562 0.09791 0.25282 0.0
H162 H 0.63894 0.08616 0.1931 0.0
H163 H 0.5657 0.07423 0.20193 0.0
H164 H 0.54276 0.03464 0.19593 0.0
H165 H 0.57567 0.05482 0.18413 0.0
H166 H 0.62412 0.01241 0.20448 0.0
H167 H 0.61324 0.02576 0.1858 0.0
H168 H 0.58788 0.99098 0.19469 0.0
H169 H 0.5863 0.04607 0.3022 0.0
H170 H 0.51285 0.95425 0.30118 0.0
H171 H 0.5116 0.95111 0.27219 0.0
H172 H 0.62544 0.02279 0.27474 0.0
H173 H 0.63523 0.06428 0.28204 0.0
H174 H 0.63948 0.05298 0.26118 0.0
H175 H 0.55933 0.07581 0.27343 0.0
H176 H 0.58914 0.09395 0.26037 0.0
H177 H 0.59854 0.09336 0.28156 0.0
H178 H 0.67521 0.1367 0.23909 0.0
C179 C 0.63559 0.09449 0.23993 0.0
C180 C 0.56044 0.60247 0.53413 0.0
C181 C 0.5639 0.6331 0.54174 0.0
C182 C 0.56776 0.63746 0.55864 0.0
C183 C 0.5638 0.5811 0.56034 0.0
C184 C 0.56085 0.57687 0.54368 0.0
C185 C 0.55901 0.5429 0.53781 0.0
H186 H 0.55015 0.3904 0.55695 0.0
C187 C 0.56265 0.54992 0.56684 0.0
C188 C 0.56006 0.52731 0.55371 0.0
H189 H 0.55428 0.42561 0.50917 0.0
H190 H 0.55743 0.47909 0.52071 0.0
H191 H 0.6036 0.44873 0.57218 0.0
H192 H 0.50369 0.42647 0.57126 0.0
H193 H 0.51691 0.4433 0.59075 0.0
H194 H 0.52415 0.40653 0.58363 0.0
H195 H 0.5793 0.41991 0.58485 0.0
H196 H 0.5946 0.46225 0.5912 0.0
C197 C 0.58809 0.54458 0.52777 0.0
C198 C 0.52757 0.52742 0.52834 0.0
C199 C 0.56339 0.53984 0.62775 0.0
C200 C 0.56123 0.5136 0.63732 0.0
C201 C 0.55886 0.48327 0.62964 0.0
C202 C 0.55839 0.479 0.61281 0.0
C203 C 0.56033 0.5053 0.6034 0.0
C204 C 0.56281 0.5351 0.61087 0.0
C205 C 0.5645 0.56016 0.59884 0.0
C206 C 0.56266 0.5404 0.58295 0.0
C207 C 0.56022 0.50837 0.58576 0.0
C208 C 0.59641 0.58706 0.60152 0.0
C209 C 0.53556 0.57197 0.60092 0.0
C210 C 0.55138 0.4095 0.54893 0.0
C211 C 0.55153 0.40371 0.53215 0.0
C212 C 0.55406 0.42951 0.52216 0.0
C213 C 0.55588 0.46047 0.52888 0.0
C214 C 0.55562 0.46576 0.54578 0.0
C215 C 0.55364 0.44038 0.55542 0.0
C216 C 0.55486 0.45008 0.57307 0.0
C217 C 0.5579 0.48554 0.57259 0.0
C218 C 0.55805 0.49481 0.55661 0.0
C219 C 0.58441 0.44485 0.58087 0.0
C220 C 0.52347 0.43056 0.5802 0.0
H221 H 0.57042 0.61661 0.58079 0.0
H222 H 0.55784 0.59871 0.52111 0.0
H223 H 0.50809 0.53217 0.53506 0.0
H224 H 0.52143 0.50094 0.52656 0.0
H225 H 0.52801 0.53758 0.51633 0.0
H226 H 0.60901 0.56396 0.53293 0.0
H227 H 0.58432 0.54987 0.51509 0.0
H228 H 0.5947 0.52224 0.52782 0.0
H229 H 0.56506 0.56342 0.63326 0.0
H230 H 0.55775 0.46279 0.63669 0.0
H231 H 0.55656 0.45528 0.6078 0.0
H232 H 0.61469 0.57729 0.6063 0.0
H233 H 0.59471 0.60651 0.61032 0.0
H234 H 0.60584 0.59776 0.59018 0.0
H235 H 0.51441 0.55143 0.60313 0.0
H236 H 0.52936 0.58253 0.59007 0.0
H237 H 0.53919 0.58993 0.61136 0.0
H238 H 0.57044 0.66088 0.56466 0.0
C239 C 0.56763 0.61168 0.56797 0.0
C240 C 0.20428 0.67051 0.86496 0.0
C241 C 0.23309 0.68317 0.87353 0.0
C242 C 0.23386 0.68212 0.89049 0.0
C243 C 0.17822 0.65349 0.88979 0.0
C244 C 0.17735 0.65579 0.87326 0.0
C245 C 0.14556 0.63881 0.86565 0.0
H246 H 0.99794 0.54153 0.87318 0.0
C247 C 0.14661 0.63445 0.89445 0.0
C248 C 0.12737 0.62604 0.88035 0.0
H249 H 1.04134 0.58065 0.82972 0.0
H250 H 0.08894 0.6101 0.84518 0.0
H251 H 0.05995 0.52842 0.89064 0.0
H252 H 1.01793 0.60454 0.89347 0.0
H253 H 1.03728 0.607 0.91229 0.0
H254 H 1.00554 0.57105 0.90599 0.0
H255 H 1.02128 0.5245 0.89743 0.0
H256 H 0.05464 0.53866 0.91105 0.0
C257 C 0.14838 0.61122 0.85376 0.0
C258 C 0.1334 0.66424 0.85778 0.0
C259 C 0.12683 0.60123 0.9522 0.0
C260 C 0.09944 0.58457 0.96005 0.0
C261 C 0.07053 0.57605 0.95128 0.0
C262 C 0.06911 0.58189 0.93494 0.0
C263 C 0.09676 0.59688 0.92715 0.0
C264 C 0.12482 0.60757 0.93589 0.0
C265 C 0.15122 0.62602 0.92582 0.0
C266 C 0.13441 0.62333 0.90949 0.0
C267 C 0.10272 0.60542 0.91032 0.0
C268 C 0.17618 0.60829 0.92536 0.0
C269 C 0.16348 0.66141 0.93298 0.0
C270 C 1.01799 0.55609 0.86705 0.0
C271 C 1.01661 0.55833 0.8503 0.0
C272 C 1.04242 0.57833 0.84263 0.0
C273 C 0.0698 0.59541 0.85164 0.0
C274 C 0.07102 0.59263 0.86847 0.0
C275 C 1.04517 0.57353 0.87589 0.0
C276 C 1.04986 0.57456 0.89389 0.0
C277 C 0.0834 0.59651 0.89605 0.0
C278 C 0.09567 0.60686 0.88115 0.0
C279 C 1.04617 0.53977 0.89864 0.0
C280 C 1.02641 0.58986 0.90192 0.0
H281 H 0.20871 0.66665 0.91152 0.0
H282 H 0.20293 0.67012 0.8519 0.0
H283 H 0.14105 0.68769 0.86507 0.0
H284 H 0.10759 0.65738 0.85712 0.0
H285 H 0.14244 0.66874 0.84547 0.0
H286 H 0.16595 0.60033 0.85838 0.0
H287 H 0.15589 0.62031 0.84176 0.0
H288 H 0.12653 0.59086 0.85211 0.0
H289 H 0.14949 0.60864 0.95842 0.0
H290 H 1.04875 0.56473 0.957 0.0
H291 H 1.04649 0.57424 0.92895 0.0
H292 H 0.16485 0.58178 0.92329 0.0
H293 H 0.18995 0.61269 0.93697 0.0
H294 H 0.19252 0.61531 0.91548 0.0
H295 H 0.14463 0.66875 0.93903 0.0
H296 H 0.17151 0.67891 0.92361 0.0
H297 H 0.18277 0.66466 0.94208 0.0
H298 H 0.2558 0.69173 0.89736 0.0
C299 C 0.20654 0.66745 0.89867 0.0
C300 C 0.98441 0.433 0.44983 0.0
C301 C 0.96288 0.4065 0.4412 0.0
C302 C 0.96353 0.40406 0.42422 0.0
C303 C 1.00689 0.45356 0.42466 0.0
C304 C 1.00634 0.45607 0.44132 0.0
C305 C 1.03184 0.48513 0.4485 0.0
H306 H 0.15783 0.61488 0.43663 0.0
C307 C 1.03256 0.48108 0.41947 0.0
C308 C 1.04743 0.4997 0.43338 0.0
H309 H 0.1191 0.58191 0.48218 0.0
H310 H 0.07795 0.53868 0.46805 0.0
H311 H 0.14995 0.54426 0.41931 0.0
H312 H 0.09437 0.6086 0.41933 0.0
H313 H 0.08874 0.589 0.39999 0.0
H314 H 0.12743 0.6141 0.40678 0.0
H315 H 0.16142 0.58228 0.4101 0.0
H316 H 0.13756 0.54592 0.39923 0.0
C317 C 0.05401 0.47309 0.45916 0.0
C318 C 1.01633 0.50769 0.45767 0.0
C319 C 1.05123 0.49379 0.35958 0.0
C320 C 0.07216 0.51783 0.3511 0.0
C321 C 0.09409 0.54396 0.3598 0.0
C322 C 0.09518 0.5462 0.3767 0.0
C323 C 0.07395 0.52217 0.38505 0.0
C324 C 1.05235 0.49663 0.3765 0.0
C325 C 1.03087 0.4741 0.38742 0.0
C326 C 1.04317 0.49036 0.40392 0.0
C327 C 0.06855 0.51827 0.40244 0.0
C328 C 1.03583 0.44055 0.38495 0.0
C329 C 0.99701 0.47422 0.38367 0.0
C330 C 0.14071 0.59811 0.44358 0.0
C331 C 0.14195 0.60144 0.46052 0.0
C332 C 0.11864 0.57974 0.4691 0.0
C333 C 0.0949 0.55461 0.46088 0.0
C334 C 0.09438 0.55128 0.4439 0.0
C335 C 0.1169 0.57312 0.43558 0.0
C336 C 0.11243 0.56673 0.4176 0.0
C337 C 0.08398 0.53688 0.41644 0.0
C338 C 0.07346 0.52779 0.43185 0.0
C339 C 0.14185 0.55959 0.41108 0.0
C340 C 0.10559 0.59608 0.41043 0.0
H341 H 0.98452 0.42406 0.40301 0.0
H342 H 0.98461 0.43532 0.4629 0.0
H343 H 0.99485 0.50824 0.45098 0.0
H344 H 1.03145 0.53306 0.45889 0.0
H345 H 1.00945 0.49931 0.46985 0.0
H346 H 0.05728 0.45068 0.45351 0.0
H347 H 1.04435 0.46752 0.47127 0.0
H348 H 0.07779 0.49041 0.46067 0.0
H349 H 1.03388 0.47366 0.35318 0.0
H350 H 0.11057 0.56262 0.35348 0.0
H351 H 0.11247 0.56663 0.38259 0.0
H352 H 0.06066 0.44307 0.3824 0.0
H353 H 1.02115 0.4261 0.37462 0.0
H354 H 1.03105 0.42652 0.39582 0.0
H355 H 0.99678 0.49856 0.38042 0.0
H356 H 0.98185 0.46885 0.39414 0.0
H357 H 0.98601 0.45684 0.37337 0.0
H358 H 0.94695 0.38407 0.41731 0.0
C359 C 0.98531 0.4274 0.41593 0.0
C360 C 0.56341 0.92672 0.80759 0.0
C361 C 0.56677 0.89869 0.79956 0.0
C362 C 0.57028 0.89798 0.78273 0.0
C363 C 0.56615 0.95189 0.78198 0.0
C364 C 0.56357 0.95322 0.79857 0.0
C365 C 0.56171 0.9857 0.80496 0.0
H366 H 0.55067 0.13309 0.78776 0.0
C367 C 0.5645 0.98258 0.776 0.0
C368 C 0.56207 1.0028 0.78939 0.0
H369 H 0.557 0.09901 0.83517 0.0
H370 H 0.56028 0.04805 0.82303 0.0
H371 H 0.60416 0.10945 0.77332 0.0
H372 H 0.50417 0.06864 0.7718 0.0
H373 H 0.51608 0.05929 0.75265 0.0
H374 H 0.52407 0.10104 0.75968 0.0
H375 H 0.57909 0.12406 0.76089 0.0
H376 H 0.59374 0.0919 0.75369 0.0
C377 C 0.5911 1.00227 0.8159 0.0
C378 C 0.53059 0.98042 0.81365 0.0
C379 C 0.56416 0.99641 0.71542 0.0
C380 C 0.5615 0.02165 0.70619 0.0
C381 C 0.55779 0.04949 0.71422 0.0
C382 C 0.55723 0.05242 0.73106 0.0
C383 C 0.56026 0.02722 0.74013 0.0
C384 C 0.56342 0.99971 0.7323 0.0
C385 C 0.5658 0.97525 0.74397 0.0
C386 C 0.56383 0.99283 0.76007 0.0
C387 C 0.56068 0.0232 0.75769 0.0
C388 C 0.59803 0.96966 0.7421 0.0
C389 C 0.53722 0.94461 0.74055 0.0
C390 C 0.55247 0.11458 0.79557 0.0
C391 C 0.55316 0.11985 0.8124 0.0
C392 C 0.55638 0.09543 0.82213 0.0
C393 C 0.55825 0.06594 0.81506 0.0
C394 C 0.55737 0.06108 0.7981 0.0
C395 C 0.55478 0.08548 0.78876 0.0
C396 C 0.55526 0.07728 0.77104 0.0
C397 C 0.55863 0.04387 0.77111 0.0
C398 C 0.55957 0.03405 0.78694 0.0
C399 C 0.58435 0.10193 0.76423 0.0
C400 C 0.52344 0.07669 0.76325 0.0
H401 H 0.57246 0.92192 0.76115 0.0
H402 H 0.5611 0.92806 0.82055 0.0
H403 H 0.51087 0.96365 0.80617 0.0
H404 H 0.52455 1.0029 0.81581 0.0
H405 H 0.53147 0.9697 0.82542 0.0
H406 H 0.61202 0.9971 0.81096 0.0
H407 H 0.58802 0.99348 0.82827 0.0
H408 H 0.59723 0.02883 0.81669 0.0
H409 H 0.56723 0.97475 0.70968 0.0
H410 H 0.55502 0.06902 0.70745 0.0
H411 H 0.55443 0.07429 0.73635 0.0
H412 H 0.61599 0.99181 0.73842 0.0
H413 H 0.59671 0.94998 0.73278 0.0
H414 H 0.60761 0.96415 0.75356 0.0
H415 H 0.51591 0.95123 0.73746 0.0
H416 H 0.53091 0.92985 0.75109 0.0
H417 H 0.54133 0.9293 0.73022 0.0
H418 H 0.5727 0.87665 0.77628 0.0
C419 C 0.56992 0.92427 0.77394 0.0
C420 C 0.65452 0.50291 0.13476 0.0
C421 C 0.68162 0.50204 0.12623 0.0
C422 C 0.67872 0.49707 0.10931 0.0
C423 C 0.6247 0.49666 0.10925 0.0
C424 C 0.62608 0.5002 0.12593 0.0
C425 C 0.59432 0.50083 0.13217 0.0
H426 H 0.44399 0.50006 0.11013 0.0
C427 C 0.59329 0.49583 0.10318 0.0
C428 C 0.57463 0.49813 0.11646 0.0
H429 H 0.47756 0.50119 0.15924 0.0
H430 H 0.52904 0.5016 0.14936 0.0
H431 H 0.50329 0.54926 0.09746 0.0
H432 H 0.46844 0.44616 0.09747 0.0
H433 H 0.4866 0.4535 0.07897 0.0
H434 H 0.45406 0.46826 0.08331 0.0
H435 H 0.47167 0.52511 0.08431 0.0
H436 H 0.51183 0.53525 0.07845 0.0
C437 C 0.59853 0.53303 0.14189 0.0
C438 C 0.58093 0.47146 0.14229 0.0
C439 C 0.57317 0.48944 0.04214 0.0
C440 C 0.54657 0.48796 0.03257 0.0
C441 C 0.51911 0.4888 0.0402 0.0
C442 C 0.51804 0.49107 0.05703 0.0
C443 C 0.54465 0.49226 0.06652 0.0
C444 C 0.57154 0.49131 0.05904 0.0
C445 C 0.59722 0.4922 0.07109 0.0
C446 C 0.58132 0.49408 0.08705 0.0
C447 C 0.55071 0.49426 0.08423 0.0
C448 C 0.62476 0.52329 0.0688 0.0
C449 C 0.60525 0.46014 0.06848 0.0
C450 C 0.46188 0.49987 0.11899 0.0
C451 C 0.45584 0.49984 0.1355 0.0
C452 C 0.48106 0.50099 0.14637 0.0
C453 C 0.5109 0.501 0.14064 0.0
C454 C 0.51578 0.49983 0.12385 0.0
C455 C 0.49101 0.49935 0.11356 0.0
C456 C 0.49828 0.49706 0.09619 0.0
C457 C 0.53156 0.49635 0.09734 0.0
C458 C 0.54276 0.49819 0.11353 0.0
C459 C 0.496 0.52804 0.08856 0.0
C460 C 0.47568 0.4648 0.08844 0.0
H461 H 0.65119 0.49115 0.08807 0.0
H462 H 0.65568 0.50635 0.1478 0.0
H463 H 0.58067 0.44886 0.13533 0.0
H464 H 0.55664 0.46872 0.14564 0.0
H465 H 0.5954 0.47373 0.15354 0.0
H466 H 0.61034 0.55368 0.13459 0.0
H467 H 0.61304 0.53475 0.15308 0.0
H468 H 0.57584 0.53576 0.14536 0.0
H469 H 0.59458 0.48864 0.0366 0.0
H470 H 0.49845 0.48814 0.0331 0.0
H471 H 0.4964 0.49188 0.06194 0.0
H472 H 0.61597 0.54349 0.06564 0.0
H473 H 0.63976 0.51939 0.0589 0.0
H474 H 0.63947 0.53254 0.07987 0.0
H475 H 0.58503 0.44031 0.063 0.0
H476 H 0.61071 0.45086 0.07995 0.0
H477 H 0.62511 0.46292 0.06033 0.0
H478 H 0.69846 0.49543 0.10239 0.0
C479 C 0.6509 0.49445 0.10091 0.0
H480 H 0.15989 0.46409 0.1676 0.0
H481 H 0.2142 0.46368 0.16806 0.0
H482 H 0.23893 0.54423 0.13769 0.0
H483 H 0.18488 0.54512 0.13751 0.0
H484 H 0.2506 0.45158 0.14819 0.0
H485 H 0.3153 0.5892 0.14232 0.0
H486 H 0.31103 0.64196 0.15234 0.0
H487 H 0.25636 0.59732 0.19154 0.0
H488 H 0.26054 0.54443 0.18187 0.0
H489 H 0.39977 0.4655 0.12019 0.0
H490 H 0.34772 0.46769 0.12538 0.0
H491 H 0.38296 0.5298 0.1682 0.0
H492 H 0.43643 0.52983 0.16221 0.0
H493 H 0.34188 0.55067 0.15573 0.0
H494 H 0.33546 0.44455 0.168 0.0
H495 H 0.34141 0.39029 0.16448 0.0
H496 H 0.28003 0.36919 0.12235 0.0
H497 H 0.27403 0.42349 0.1255 0.0
C498 C 0.17686 0.48188 0.16107 0.0
C499 C 0.16761 0.50478 0.1526 0.0
C500 C 0.20816 0.48159 0.16131 0.0
C501 C 0.23141 0.50417 0.15308 0.0
C502 C 0.2221 0.52693 0.14452 0.0
C503 C 0.19085 0.52732 0.14435 0.0
C504 C 0.26489 0.50315 0.15297 0.0
C505 C 0.27043 0.47337 0.14984 0.0
C506 C 0.29139 0.53116 0.15569 0.0
C507 C 0.28801 0.56278 0.16126 0.0
C508 C 0.30236 0.59065 0.15307 0.0
C509 C 0.29997 0.62058 0.1587 0.0
C510 C 0.28348 0.62297 0.17258 0.0
C511 C 0.26909 0.59542 0.18078 0.0
C512 C 0.27139 0.56545 0.1752 0.0
C513 C 0.39687 0.48002 0.13069 0.0
C514 C 0.42303 0.49796 0.14058 0.0
C515 C 0.36654 0.48077 0.13383 0.0
C516 C 0.36055 0.49848 0.14738 0.0
C517 C 0.38644 0.51583 0.15762 0.0
C518 C 0.41718 0.51554 0.1543 0.0
C519 C 0.3275 0.49923 0.15039 0.0
C520 C 0.32202 0.52891 0.15406 0.0
C521 C 0.30102 0.47093 0.14888 0.0
C522 C 0.30449 0.4382 0.14692 0.0
C523 C 0.32338 0.42842 0.15793 0.0
C524 C 0.32675 0.39764 0.156 0.0
C525 C 0.31116 0.37633 0.14318 0.0
C526 C 0.29211 0.38573 0.13227 0.0
C527 C 0.28869 0.41649 0.13413 0.0
H528 H 0.31379 0.35252 0.14171 0.0
H529 H 0.28194 0.64619 0.17704 0.0
H530 H 0.769 0.1423 0.46795 0.0
H531 H 0.81139 0.1922 0.46514 0.0
H532 H 0.76358 0.2446 0.49503 0.0
H533 H 0.72094 0.19441 0.49805 0.0
H534 H 0.78628 0.2765 0.46849 0.0
H535 H 0.82693 0.22956 0.51038 0.0
H536 H 0.84033 0.18673 0.52418 0.0
H537 H 0.90222 0.1791 0.48643 0.0
H538 H 0.88884 0.22157 0.47225 0.0
H539 H 0.9239 0.41401 0.46507 0.0
H540 H 0.88265 0.37127 0.4771 0.0
H541 H 0.90877 0.29916 0.44814 0.0
H542 H 0.94991 0.34154 0.43623 0.0
H543 H 0.89675 0.28226 0.4795 0.0
H544 H 0.84903 0.32349 0.43607 0.0
H545 H 0.83518 0.36615 0.42231 0.0
H546 H 0.78648 0.38488 0.4639 0.0
H547 H 0.80044 0.34259 0.478 0.0
C548 C 0.76761 0.16432 0.47412 0.0
C549 C 0.74169 0.16427 0.48336 0.0
C550 C 0.79188 0.19287 0.47248 0.0
C551 C 0.79092 0.22204 0.4801 0.0
C552 C 0.76486 0.22231 0.48911 0.0
C553 C 0.74047 0.19365 0.49077 0.0
C554 C 0.81696 0.25218 0.47821 0.0
C555 C 0.81039 0.27807 0.47125 0.0
C556 C 0.84845 0.25414 0.48169 0.0
C557 C 0.85671 0.22865 0.4902 0.0
C558 C 0.84323 0.2186 0.50495 0.0
C559 C 0.85085 0.1944 0.51286 0.0
C560 C 0.87208 0.18017 0.50618 0.0
C561 C 0.88578 0.19015 0.49159 0.0
C562 C 0.87821 0.21432 0.48362 0.0
C563 C 0.92105 0.389 0.46148 0.0
C564 C 0.93986 0.38103 0.44963 0.0
C565 C 0.89744 0.36467 0.46828 0.0
C566 C 0.89251 0.33208 0.46339 0.0
C567 C 0.91216 0.32414 0.45207 0.0
C568 C 0.93549 0.34836 0.4452 0.0
C569 C 0.86606 0.30603 0.46935 0.0
C570 C 0.87258 0.28093 0.47709 0.0
C571 C 0.83456 0.30487 0.46665 0.0
C572 C 0.82612 0.3302 0.45816 0.0
C573 C 0.83561 0.33691 0.44233 0.0
C574 C 0.8277 0.36098 0.43446 0.0
C575 C 0.81006 0.3783 0.44225 0.0
C576 C 0.80021 0.37151 0.4579 0.0
C577 C 0.80811 0.34749 0.46584 0.0
H578 H 0.80394 0.39691 0.43613 0.0
H579 H 0.87795 0.16144 0.51232 0.0
H580 H 0.50016 0.59913 0.8292 0.0
H581 H 0.50051 0.65473 0.82646 0.0
H582 H 0.59897 0.68895 0.83977 0.0
H583 H 0.59818 0.63344 0.8435 0.0
H584 H 0.57551 0.72955 0.85211 0.0
H585 H 0.56717 0.68106 0.79788 0.0
H586 H 0.54521 0.64217 0.77471 0.0
H587 H 0.45754 0.66164 0.77839 0.0
H588 H 0.47876 0.6998 0.80189 0.0
H589 H 0.60899 0.86544 0.7985 0.0
H590 H 0.60341 0.81258 0.80899 0.0
H591 H 0.51642 0.81241 0.82997 0.0
H592 H 0.52197 0.86554 0.81958 0.0
H593 H 0.53029 0.75582 0.80175 0.0
H594 H 0.54442 0.80869 0.85649 0.0
H595 H 0.57314 0.85166 0.87671 0.0
H596 H 0.65676 0.82569 0.8693 0.0
H597 H 0.62859 0.78291 0.84883 0.0
C598 C 0.52183 0.61855 0.83163 0.0
C599 C 0.5492 0.61193 0.83647 0.0
C600 C 0.52208 0.65036 0.82992 0.0
C601 C 0.54994 0.67621 0.83245 0.0
C602 C 0.57713 0.66959 0.83769 0.0
C603 C 0.5767 0.63782 0.83981 0.0
C604 C 0.55091 0.70998 0.82944 0.0
C605 C 0.56557 0.7351 0.84106 0.0
C606 C 0.53782 0.71769 0.81511 0.0
C607 C 0.52456 0.6934 0.80157 0.0
C608 C 0.54313 0.67682 0.79382 0.0
C609 C 0.53083 0.65491 0.78063 0.0
C610 C 0.50007 0.64961 0.775 0.0
C611 C 0.48144 0.66593 0.78267 0.0
C612 C 0.49356 0.68767 0.79593 0.0
C613 C 0.58897 0.85438 0.80562 0.0
C614 C 0.56588 0.86954 0.80823 0.0
C615 C 0.58582 0.82425 0.8116 0.0
C616 C 0.55946 0.80858 0.8202 0.0
C617 C 0.53692 0.82413 0.82335 0.0
C618 C 0.54023 0.85454 0.81753 0.0
C619 C 0.55443 0.77481 0.82445 0.0
C620 C 0.5394 0.74987 0.81294 0.0
C621 C 0.56763 0.76736 0.83868 0.0
C622 C 0.58452 0.79295 0.85099 0.0
C623 C 0.56902 0.81243 0.85903 0.0
C624 C 0.58517 0.83667 0.87057 0.0
C625 C 0.61679 0.84149 0.87425 0.0
C626 C 0.63229 0.82199 0.86642 0.0
C627 C 0.61624 0.79774 0.85486 0.0
H628 H 0.62925 0.86025 0.8832 0.0
H629 H 0.4906 0.63267 0.76479 0.0
H630 H 0.95788 0.47698 0.168 0.0
H631 H 0.90336 0.47627 0.16771 0.0
H632 H 0.92201 0.54289 0.12989 0.0
H633 H 0.97698 0.54445 0.13054 0.0
H634 H 0.88572 0.55978 0.15021 0.0
H635 H 0.87825 0.4535 0.12378 0.0
H636 H 0.88915 0.40138 0.12378 0.0
H637 H 0.84215 0.38108 0.16839 0.0
H638 H 0.83042 0.43278 0.16847 0.0
H639 H 0.73663 0.54412 0.11773 0.0
H640 H 0.78956 0.54503 0.12456 0.0
H641 H 0.7541 0.47229 0.1586 0.0
H642 H 0.70013 0.47008 0.15092 0.0
H643 H 0.79803 0.45727 0.14413 0.0
H644 H 0.79836 0.55659 0.16977 0.0
H645 H 0.78969 0.60962 0.1733 0.0
H646 H 0.85267 0.6451 0.13541 0.0
H647 H 0.86141 0.59214 0.1315 0.0
C648 C 0.95044 0.49133 0.15951 0.0
C649 C 0.97213 0.51052 0.14917 0.0
C650 C 0.91893 0.49078 0.15929 0.0
C651 C 0.90773 0.50889 0.14849 0.0
C652 C 0.92954 0.52845 0.13832 0.0
C653 C 0.96118 0.52932 0.13868 0.0
C654 C 0.87371 0.50804 0.14788 0.0
C655 C 0.86664 0.53731 0.14863 0.0
C656 C 0.84823 0.47887 0.14673 0.0
C657 C 0.85352 0.44697 0.14614 0.0
C658 C 0.87004 0.43777 0.13351 0.0
C659 C 0.8763 0.4083 0.13349 0.0
C660 C 0.86622 0.38788 0.14604 0.0
C661 C 0.84972 0.39681 0.15861 0.0
C662 C 0.84305 0.42607 0.15859 0.0
C663 C 0.73994 0.52865 0.12692 0.0
C664 C 0.71377 0.50717 0.1338 0.0
C665 C 0.77057 0.52931 0.13093 0.0
C666 C 0.77664 0.50913 0.14237 0.0
C667 C 0.75056 0.4883 0.14976 0.0
C668 C 0.71955 0.48736 0.14555 0.0
C669 C 0.81001 0.50921 0.14584 0.0
C670 C 0.817 0.47981 0.14571 0.0
C671 C 0.83549 0.53833 0.14798 0.0
C672 C 0.83035 0.57028 0.15026 0.0
C673 C 0.8102 0.57562 0.16212 0.0
C674 C 0.8053 0.60569 0.16419 0.0
C675 C 0.82058 0.63069 0.15456 0.0
C676 C 0.84084 0.6257 0.14285 0.0
C677 C 0.84581 0.59568 0.14072 0.0
H678 H 0.81675 0.65395 0.15619 0.0
H679 H 0.87124 0.36516 0.14605 0.0
H680 H 0.33186 0.86619 0.52765 0.0
H681 H 0.28935 0.81639 0.52037 0.0
H682 H 0.34939 0.78527 0.48769 0.0
H683 H 0.39159 0.83534 0.4945 0.0
H684 H 0.29363 0.77842 0.47356 0.0
H685 H 0.33066 0.75132 0.52389 0.0
H686 H 0.34514 0.75909 0.55296 0.0
H687 H 0.25146 0.75634 0.564 0.0
H688 H 0.23652 0.74898 0.53497 0.0
H689 H 0.20408 0.61827 0.45467 0.0
H690 H 0.24577 0.66501 0.46627 0.0
H691 H 0.17967 0.69096 0.49691 0.0
H692 H 0.13771 0.64381 0.48538 0.0
H693 H 0.23649 0.7013 0.51273 0.0
H694 H 0.19926 0.72786 0.4626 0.0
H695 H 0.18442 0.71981 0.43358 0.0
H696 H 0.2784 0.72434 0.4222 0.0
H697 H 0.29369 0.73189 0.4512 0.0
C698 C 0.33599 0.84875 0.5189 0.0
C699 C 0.36514 0.85477 0.51166 0.0
C700 C 0.31177 0.82016 0.51487 0.0
C701 C 0.31626 0.79699 0.50358 0.0
C702 C 0.34542 0.80278 0.49647 0.0
C703 C 0.36962 0.83131 0.50048 0.0
C704 C 0.29024 0.76734 0.49856 0.0
C705 C 0.28145 0.76136 0.48211 0.0
C706 C 0.27365 0.7456 0.50978 0.0
C707 C 0.28256 0.74994 0.52724 0.0
C708 C 0.31321 0.75264 0.53251 0.0
C709 C 0.32149 0.75692 0.54898 0.0
C710 C 0.29926 0.7583 0.56032 0.0
C711 C 0.26867 0.75532 0.55521 0.0
C712 C 0.26028 0.75106 0.53874 0.0
C713 C 0.19846 0.63383 0.46395 0.0
C714 C 0.16758 0.62768 0.46897 0.0
C715 C 0.22229 0.66049 0.47058 0.0
C716 C 0.2157 0.68182 0.48222 0.0
C717 C 0.18522 0.67486 0.48789 0.0
C718 C 0.16131 0.64795 0.48131 0.0
C719 C 0.24035 0.71221 0.48771 0.0
C720 C 0.24873 0.71841 0.50421 0.0
C721 C 0.25658 0.7343 0.47655 0.0
C722 C 0.24755 0.73017 0.45909 0.0
C723 C 0.21671 0.72692 0.45392 0.0
C724 C 0.20822 0.72247 0.43747 0.0
C725 C 0.23044 0.72149 0.42606 0.0
C726 C 0.26121 0.72506 0.43106 0.0
C727 C 0.26981 0.72946 0.4475 0.0
H728 H 0.22382 0.71803 0.41333 0.0
H729 H 0.30571 0.76161 0.57307 0.0
H730 H 0.58938 0.42289 0.85095 0.0
H731 H 0.59092 0.36741 0.85114 0.0
H732 H 0.51014 0.33565 0.81849 0.0
H733 H 0.50807 0.39094 0.81843 0.0
H734 H 0.50504 0.29498 0.84222 0.0
H735 H 0.5851 0.34636 0.80529 0.0
H736 H 0.6327 0.38864 0.79794 0.0
H737 H 0.68548 0.36306 0.83564 0.0
H738 H 0.63807 0.32078 0.84332 0.0
H739 H 0.51028 0.14913 0.80428 0.0
H740 H 0.51041 0.20377 0.81232 0.0
H741 H 0.59098 0.21653 0.84398 0.0
H742 H 0.59116 0.16154 0.8357 0.0
H743 H 0.59921 0.26723 0.82506 0.0
H744 H 0.52076 0.21125 0.8598 0.0
H745 H 0.47319 0.16954 0.86759 0.0
H746 H 0.41751 0.20404 0.83491 0.0
H747 H 0.46482 0.24569 0.82674 0.0
C748 C 0.57189 0.40414 0.8438 0.0
C749 C 0.54864 0.41148 0.83462 0.0
C750 C 0.57288 0.37239 0.8439 0.0
C751 C 0.55084 0.34734 0.8347 0.0
C752 C 0.5274 0.35455 0.82569 0.0
C753 C 0.52633 0.38624 0.82562 0.0
C754 C 0.5522 0.31363 0.83429 0.0
C755 C 0.52554 0.28887 0.83834 0.0
C756 C 0.57935 0.30575 0.82982 0.0
C757 C 0.60799 0.33063 0.82498 0.0
C758 C 0.60683 0.34985 0.81206 0.0
C759 C 0.63377 0.37379 0.80783 0.0
C760 C 0.66208 0.37859 0.81635 0.0
C761 C 0.66353 0.35933 0.82907 0.0
C762 C 0.63664 0.33534 0.83335 0.0
C763 C 0.52778 0.1634 0.81313 0.0
C764 C 0.55074 0.15109 0.81935 0.0
C765 C 0.52776 0.19462 0.81778 0.0
C766 C 0.5506 0.21429 0.82884 0.0
C767 C 0.57309 0.20178 0.83545 0.0
C768 C 0.57301 0.1703 0.83084 0.0
C769 C 0.5517 0.24842 0.83258 0.0
C770 C 0.57883 0.27331 0.82916 0.0
C771 C 0.525 0.25645 0.83768 0.0
C772 C 0.49641 0.23149 0.84258 0.0
C773 C 0.49841 0.20981 0.85418 0.0
C774 C 0.47148 0.18619 0.85868 0.0
C775 C 0.44236 0.18411 0.85173 0.0
C776 C 0.4401 0.20568 0.84029 0.0
C777 C 0.46696 0.22933 0.83573 0.0
H778 H 0.42154 0.16581 0.85523 0.0
H779 H 0.6829 0.39718 0.81308 0.0
H780 H 0.60298 0.92054 0.50183 0.0
H781 H 0.60284 0.8651 0.50467 0.0
H782 H 0.50219 0.83422 0.50711 0.0
H783 H 0.50245 0.88996 0.50493 0.0
H784 H 0.52314 0.80757 0.52897 0.0
H785 H 0.54323 0.81588 0.47312 0.0
H786 H 0.56921 0.83955 0.44877 0.0
H787 H 0.6559 0.82951 0.46628 0.0
H788 H 0.63056 0.8062 0.49086 0.0
H789 H 0.5139 0.64116 0.52562 0.0
H790 H 0.51016 0.69138 0.51491 0.0
H791 H 0.60804 0.73792 0.52688 0.0
H792 H 0.61158 0.68803 0.53793 0.0
H793 H 0.58486 0.75334 0.49552 0.0
H794 H 0.56233 0.74881 0.55269 0.0
H795 H 0.53368 0.72311 0.57597 0.0
H796 H 0.447 0.72372 0.55368 0.0
H797 H 0.47514 0.74892 0.53012 0.0
C798 C 0.58079 0.90187 0.50278 0.0
C799 C 0.55273 0.90968 0.5032 0.0
C800 C 0.58069 0.87005 0.50432 0.0
C801 C 0.55245 0.84513 0.50589 0.0
C802 C 0.52433 0.85287 0.50596 0.0
C803 C 0.52448 0.88479 0.50471 0.0
C804 C 0.55244 0.81145 0.50838 0.0
C805 C 0.53617 0.7956 0.5214 0.0
C806 C 0.56968 0.79563 0.4987 0.0
C807 C 0.58503 0.80952 0.4839 0.0
C808 C 0.56789 0.81893 0.47184 0.0
C809 C 0.5825 0.83225 0.45798 0.0
C810 C 0.6142 0.83609 0.45599 0.0
C811 C 0.63135 0.82654 0.46784 0.0
C812 C 0.61687 0.81323 0.48173 0.0
C813 C 0.53472 0.66191 0.52555 0.0
C814 C 0.56306 0.66085 0.53247 0.0
C815 C 0.53257 0.69055 0.51951 0.0
C816 C 0.55883 0.71837 0.52014 0.0
C817 C 0.58758 0.7167 0.52619 0.0
C818 C 0.58958 0.68827 0.53249 0.0
C819 C 0.55576 0.75001 0.51604 0.0
C820 C 0.57154 0.76538 0.50284 0.0
C821 C 0.53762 0.7652 0.52534 0.0
C822 C 0.52078 0.75037 0.53957 0.0
C823 C 0.53713 0.74318 0.55269 0.0
C824 C 0.521 0.72875 0.56594 0.0
C825 C 0.48853 0.72169 0.56628 0.0
C826 C 0.47214 0.72913 0.55339 0.0
C827 C 0.48817 0.74349 0.54008 0.0
H828 H 0.47607 0.71053 0.57656 0.0
H829 H 0.62547 0.84642 0.44526 0.0
H830 H 0.76049 0.51209 0.87479 0.0
H831 H 0.8108 0.50563 0.8686 0.0
H832 H 0.76868 0.44038 0.82771 0.0
H833 H 0.7175 0.44579 0.83417 0.0
H834 H 0.83723 0.45693 0.86418 0.0
H835 H 0.82092 0.46687 0.79669 0.0
H836 H 0.78629 0.48276 0.77766 0.0
H837 H 0.77209 0.55041 0.81394 0.0
H838 H 0.80697 0.53525 0.83305 0.0
H839 H 0.99204 0.49386 0.8433 0.0
H840 H 0.93676 0.46489 0.83669 0.0
H841 H 0.91898 0.55598 0.83273 0.0
H842 H 0.97436 0.58467 0.83862 0.0
H843 H 0.8775 0.5102 0.81412 0.0
H844 H 0.91881 0.52315 0.87033 0.0
H845 H 0.95401 0.51506 0.89172 0.0
H846 H 0.91917 0.41249 0.88112 0.0
H847 H 0.88373 0.42005 0.85969 0.0
C848 C 0.76147 0.49536 0.86484 0.0
C849 C 0.73493 0.47979 0.85486 0.0
C850 C 0.79039 0.49177 0.86128 0.0
C851 C 0.79348 0.47285 0.8476 0.0
C852 C 0.76675 0.45535 0.83824 0.0
C853 C 0.73763 0.45869 0.84189 0.0
C854 C 0.82526 0.47528 0.84226 0.0
C855 C 0.8459 0.46774 0.85303 0.0
C856 C 0.83659 0.48979 0.82781 0.0
C857 C 0.81616 0.49959 0.81633 0.0
C858 C 0.81044 0.48518 0.80056 0.0
C859 C 0.79079 0.49407 0.78977 0.0
C860 C 0.77689 0.51748 0.79461 0.0
C861 C 0.78277 0.5322 0.81022 0.0
C862 C 0.80247 0.52347 0.82103 0.0
C863 C 0.97647 0.50744 0.84022 0.0
C864 C 0.98707 0.54131 0.84144 0.0
C865 C 0.94496 0.49097 0.83655 0.0
C866 C 0.92365 0.50831 0.83462 0.0
C867 C 0.93498 0.54209 0.83418 0.0
C868 C 0.96658 0.55851 0.83755 0.0
C869 C 0.88966 0.4926 0.83626 0.0
C870 C 0.86861 0.49778 0.82485 0.0
C871 C 0.878 0.47673 0.85037 0.0
C872 C 0.89892 0.47216 0.86336 0.0
C873 C 0.91874 0.4989 0.87257 0.0
C874 C 0.93871 0.49442 0.88468 0.0
C875 C 0.93894 0.4633 0.88772 0.0
C876 C 0.91902 0.43658 0.87873 0.0
C877 C 0.89895 0.44094 0.86663 0.0
H878 H 0.95448 0.45989 0.89707 0.0
H879 H 0.76164 0.52427 0.78625 0.0
H880 H 0.25041 0.66253 0.1562 0.0
H881 H 0.30109 0.70282 0.16261 0.0
H882 H 0.27143 0.77316 0.13772 0.0
H883 H 0.22118 0.73242 0.1305 0.0
H884 H 0.33211 0.77941 0.13227 0.0
H885 H 0.26804 0.77067 0.17904 0.0
H886 H 0.23461 0.74095 0.19995 0.0
H887 H 0.3098 0.7084 0.21684 0.0
H888 H 0.34358 0.73768 0.1959 0.0
H889 H 0.43958 0.92257 0.17066 0.0
H890 H 0.39453 0.87889 0.15912 0.0
H891 H 0.42174 0.81083 0.18715 0.0
H892 H 0.46625 0.85455 0.19897 0.0
H893 H 0.36292 0.80238 0.19043 0.0
H894 H 0.42828 0.81285 0.14486 0.0
H895 H 0.46193 0.84118 0.12368 0.0
H896 H 0.38571 0.86908 0.10425 0.0
H897 H 0.3517 0.84127 0.12545 0.0
C898 C 0.25483 0.68633 0.15178 0.0
C899 C 0.23149 0.69418 0.14294 0.0
C900 C 0.28376 0.70949 0.15561 0.0
C901 C 0.28989 0.74124 0.15093 0.0
C902 C 0.26718 0.7489 0.14156 0.0
C903 C 0.23829 0.72563 0.13761 0.0
C904 C 0.31928 0.76679 0.15647 0.0
C905 C 0.33874 0.78471 0.14499 0.0
C906 C 0.32831 0.77323 0.17305 0.0
C907 C 0.30824 0.75616 0.18584 0.0
C908 C 0.27739 0.75707 0.18717 0.0
C909 C 0.25839 0.74031 0.19903 0.0
C910 C 0.27005 0.72275 0.20969 0.0
C911 C 0.30079 0.722 0.20856 0.0
C912 C 0.31989 0.73871 0.19672 0.0
C913 C 0.43622 0.89817 0.17411 0.0
C914 C 0.45636 0.89197 0.18574 0.0
C915 C 0.41048 0.87318 0.1675 0.0
C916 C 0.40473 0.8414 0.17217 0.0
C917 C 0.42551 0.8351 0.18339 0.0
C918 C 0.45097 0.86009 0.19013 0.0
C919 C 0.37606 0.81511 0.16624 0.0
C920 C 0.35656 0.79708 0.17768 0.0
C921 C 0.36717 0.80853 0.14963 0.0
C922 C 0.38753 0.82523 0.13684 0.0
C923 C 0.41876 0.82524 0.13615 0.0
C924 C 0.43789 0.84116 0.12412 0.0
C925 C 0.42599 0.85699 0.11265 0.0
C926 C 0.39491 0.85684 0.11315 0.0
C927 C 0.37569 0.84098 0.12516 0.0
H928 H 0.44083 0.8693 0.10335 0.0
H929 H 0.2553 0.70976 0.21885 0.0
H930 H 0.514 0.10358 0.52289 0.0
H931 H 0.51427 0.15961 0.52362 0.0
H932 H 0.59687 0.18434 0.49527 0.0
H933 H 0.59702 0.12823 0.49465 0.0
H934 H 0.60197 0.22911 0.51952 0.0
H935 H 0.52543 0.17754 0.4781 0.0
H936 H 0.47895 0.13618 0.4657 0.0
H937 H 0.42111 0.16219 0.50116 0.0
H938 H 0.46734 0.2034 0.51393 0.0
H939 H 0.58919 0.38652 0.51007 0.0
H940 H 0.59024 0.33167 0.50232 0.0
H941 H 0.51124 0.29212 0.53191 0.0
H942 H 0.51 0.3466 0.53954 0.0
H943 H 0.50665 0.25603 0.50346 0.0
H944 H 0.58435 0.30342 0.54628 0.0
H945 H 0.6309 0.34462 0.55874 0.0
H946 H 0.68668 0.32627 0.52013 0.0
H947 H 0.6403 0.28527 0.50731 0.0
C948 C 0.53228 0.12085 0.5168 0.0
C949 C 0.55544 0.11125 0.50866 0.0
C950 C 0.5323 0.15294 0.51715 0.0
C951 C 0.5553 0.17619 0.50927 0.0
C952 C 0.57879 0.16684 0.50137 0.0
C953 C 0.57881 0.13469 0.50102 0.0
C954 C 0.55488 0.21024 0.50952 0.0
C955 C 0.58133 0.23504 0.51571 0.0
C956 C 0.52783 0.21807 0.50474 0.0
C957 C 0.49991 0.19341 0.49705 0.0
C958 C 0.50284 0.17429 0.48333 0.0
C959 C 0.47653 0.15089 0.47622 0.0
C960 C 0.44711 0.14652 0.48266 0.0
C961 C 0.44392 0.16559 0.49619 0.0
C962 C 0.47017 0.189 0.50336 0.0
C963 C 0.57168 0.36604 0.51462 0.0
C964 C 0.54964 0.37081 0.52549 0.0
C965 C 0.57244 0.33476 0.5103 0.0
C966 C 0.55106 0.30778 0.51671 0.0
C967 C 0.52802 0.31251 0.52685 0.0
C968 C 0.52741 0.34366 0.53125 0.0
C969 C 0.55352 0.27471 0.51371 0.0
C970 C 0.52743 0.2501 0.50703 0.0
C971 C 0.58091 0.26707 0.518 0.0
C972 C 0.6088 0.29159 0.52573 0.0
C973 C 0.60649 0.30837 0.54038 0.0
C974 C 0.63284 0.33165 0.54752 0.0
C975 C 0.66171 0.33813 0.54021 0.0
C976 C 0.66429 0.32128 0.52576 0.0
C977 C 0.63798 0.29802 0.51855 0.0
H978 H 0.68209 0.35616 0.54576 0.0
H979 H 0.42676 0.12839 0.47713 0.0
H980 H 0.38262 0.57594 0.77673 0.0
H981 H 0.35421 0.61487 0.78228 0.0
H982 H 0.42058 0.66049 0.82129 0.0
H983 H 0.44895 0.6222 0.8156 0.0
H984 H 0.32546 0.61242 0.80846 0.0
H985 H 0.41937 0.73173 0.83401 0.0
H986 H 0.46887 0.76986 0.82602 0.0
H987 H 0.44576 0.73791 0.77622 0.0
H988 H 0.39594 0.6995 0.78391 0.0
H989 H 0.28566 0.66664 0.87924 0.0
H990 H 0.32592 0.66678 0.86001 0.0
H991 H 0.28636 0.71868 0.8275 0.0
H992 H 0.2459 0.71909 0.84688 0.0
H993 H 0.36231 0.72719 0.82931 0.0
H994 H 0.25635 0.65536 0.81654 0.0
H995 H 0.20582 0.62019 0.82539 0.0
H996 H 0.25237 0.55923 0.84677 0.0
H997 H 0.30329 0.5945 0.83834 0.0
C998 C 0.39161 0.595 0.78612 0.0
C999 C 0.41783 0.59602 0.7958 0.0
C1000 C 0.3755 0.61731 0.78924 0.0
C1001 C 0.3852 0.64071 0.8022 0.0
C1002 C 0.41288 0.64324 0.81101 0.0
C1003 C 0.42907 0.62115 0.80781 0.0
C1004 C 0.3634 0.6573 0.80883 0.0
C1005 C 0.33337 0.6378 0.81251 0.0
C1006 C 0.37344 0.6904 0.81424 0.0
C1007 C 0.40381 0.71278 0.80955 0.0
C1008 C 0.42473 0.73292 0.82134 0.0
C1009 C 0.4529 0.75459 0.81686 0.0
C1010 C 0.46038 0.75659 0.8006 0.0
C1011 C 0.43987 0.7365 0.7888 0.0
C1012 C 0.41172 0.71463 0.79323 0.0
C1013 C 0.28634 0.67954 0.8684 0.0
C1014 C 0.2623 0.69239 0.86445 0.0
C1015 C 0.30941 0.67958 0.8574 0.0
C1016 C 0.30881 0.69248 0.84234 0.0
C1017 C 0.28716 0.70873 0.83912 0.0
C1018 C 0.26394 0.70864 0.85012 0.0
C1019 C 0.3255 0.68193 0.82909 0.0
C1020 C 0.35433 0.7023 0.82448 0.0
C1021 C 0.31428 0.64978 0.82248 0.0
C1022 C 0.2836 0.62765 0.82689 0.0
C1023 C 0.2558 0.63453 0.82319 0.0
C1024 C 0.2271 0.61461 0.82815 0.0
C1025 C 0.22588 0.58753 0.83667 0.0
C1026 C 0.25336 0.58024 0.84018 0.0
C1027 C 0.28214 0.60017 0.83531 0.0
H1028 H 0.20365 0.57216 0.84052 0.0
H1029 H 0.48213 0.77355 0.79716 0.0
H1030 H 0.91079 0.29305 0.14877 0.0
H1031 H 0.85998 0.25291 0.15215 0.0
H1032 H 0.8401 0.31471 0.19002 0.0
H1033 H 0.89088 0.35492 0.18672 0.0
H1034 H 0.84144 0.21971 0.17689 0.0
H1035 H 0.76261 0.30033 0.19315 0.0
H1036 H 0.7543 0.35049 0.18468 0.0
H1037 H 0.79301 0.3383 0.13874 0.0
H1038 H 0.80144 0.28803 0.14689 0.0
H1039 H 0.72185 0.13886 0.22576 0.0
H1040 H 0.76471 0.17819 0.21351 0.0
H1041 H 0.7035 0.18064 0.17335 0.0
H1042 H 0.65974 0.14213 0.18602 0.0
H1043 H 0.73934 0.24006 0.18212 0.0
H1044 H 0.75805 0.14068 0.16926 0.0
H1045 H 0.76394 0.08754 0.17404 0.0
H1046 H 0.84242 0.13283 0.20658 0.0
H1047 H 0.83674 0.18622 0.20218 0.0
C1048 C 0.89555 0.29817 0.15778 0.0
C1049 C 0.90511 0.32707 0.1676 0.0
C1050 C 0.86642 0.27524 0.15965 0.0
C1051 C 0.84609 0.2807 0.17132 0.0
C1052 C 0.85508 0.31006 0.18075 0.0
C1053 C 0.88422 0.33306 0.17887 0.0
C1054 C 0.81686 0.25464 0.17464 0.0
C1055 C 0.8191 0.22418 0.17793 0.0
C1056 C 0.78744 0.26002 0.17559 0.0
C1057 C 0.78282 0.29049 0.17069 0.0
C1058 C 0.76929 0.30831 0.18123 0.0
C1059 C 0.76457 0.33678 0.17649 0.0
C1060 C 0.77307 0.34754 0.16118 0.0
C1061 C 0.78641 0.32991 0.15059 0.0
C1062 C 0.79131 0.30153 0.1553 0.0
C1063 C 0.71726 0.14794 0.21441 0.0
C1064 C 0.68718 0.13739 0.20695 0.0
C1065 C 0.74199 0.17021 0.2073 0.0
C1066 C 0.73753 0.18213 0.19238 0.0
C1067 C 0.70756 0.17171 0.18484 0.0
C1068 C 0.68263 0.14946 0.19203 0.0
C1069 C 0.76431 0.20565 0.18491 0.0
C1070 C 0.76163 0.23558 0.1809 0.0
C1071 C 0.79318 0.19951 0.18281 0.0
C1072 C 0.79683 0.16745 0.18545 0.0
C1073 C 0.77644 0.1393 0.17751 0.0
C1074 C 0.77976 0.10913 0.18015 0.0
C1075 C 0.80351 0.10681 0.19063 0.0
C1076 C 0.82403 0.13466 0.19847 0.0
C1077 C 0.8208 0.16489 0.19589 0.0
H1078 H 0.80603 0.08343 0.19266 0.0
H1079 H 0.76944 0.36959 0.15753 0.0
H1080 H 0.10714 0.469 0.10178 0.0
H1081 H 0.12104 0.48853 0.07494 0.0
H1082 H 0.05578 0.54311 0.07865 0.0
H1083 H 1.04298 0.52477 0.10568 0.0
H1084 H 0.09168 0.48081 0.04821 0.0
H1085 H 0.07539 0.60807 0.05931 0.0
H1086 H 0.08635 0.65143 0.08104 0.0
H1087 H 0.15832 0.61797 0.10127 0.0
H1088 H 0.14756 0.57427 0.07983 0.0
H1089 H 0.06102 0.53147 0.9739 0.0
H1090 H 0.06149 0.5173 0.00162 0.0
H1091 H 0.14336 0.59959 0.0125 0.0
H1092 H 0.14082 0.61634 0.98511 0.0
H1093 H 0.11049 0.59531 0.0363 0.0
H1094 H 0.14469 0.51693 0.0075 0.0
H1095 H 0.14485 0.47536 0.98617 0.0
H1096 H 0.05708 0.4142 0.00183 0.0
H1097 H 0.05616 0.45558 0.02311 0.0
C1098 C 0.09588 0.48524 0.09683 0.0
C1099 C 0.07403 0.49543 0.10574 0.0
C1100 C 0.10383 0.49641 0.08152 0.0
C1101 C 0.08986 0.51775 0.07482 0.0
C1102 C 0.06758 0.52742 0.08368 0.0
C1103 C 0.06001 0.51667 0.09906 0.0
C1104 C 0.09743 0.5289 0.05833 0.0
C1105 C 0.09602 0.50588 0.04562 0.0
C1106 C 0.10433 0.56177 0.05496 0.0
C1107 C 0.1105 0.58778 0.06802 0.0
C1108 C 0.09352 0.60996 0.06842 0.0
C1109 C 0.09961 0.63452 0.08073 0.0
C1110 C 0.12287 0.63732 0.09261 0.0
C1111 C 0.14006 0.61557 0.09221 0.0
C1112 C 0.13389 0.59082 0.08001 0.0
C1113 C 0.07878 0.54719 0.98217 0.0
C1114 C 0.10075 0.57535 0.97707 0.0
C1115 C 0.07946 0.5385 -0.00195 0.0
C1116 C 0.10296 0.5568 0.00916 0.0
C1117 C 0.12506 0.58485 0.00417 0.0
C1118 C 0.12382 0.59418 0.98836 0.0
C1119 C 0.10367 0.54702 0.02604 0.0
C1120 C 0.10659 0.57029 0.03885 0.0
C1121 C 0.09981 0.51459 0.02958 0.0
C1122 C 0.10029 0.48947 0.01685 0.0
C1123 C 0.12534 0.49469 0.00634 0.0
C1124 C 0.12557 0.47115 0.99426 0.0
C1125 C 0.10097 0.44218 0.99263 0.0
C1126 C 0.07612 0.43665 0.0031 0.0
C1127 C 0.07576 0.46013 0.01519 0.0
H1128 H 0.10118 0.42399 0.98327 0.0
H1129 H 0.12766 0.65643 0.10209 0.0
H1130 H 0.50512 0.03768 0.45549 0.0
H1131 H 0.51166 0.0384 0.42626 0.0
H1132 H 0.57387 0.98086 0.4298 0.0
H1133 H 0.56746 0.98013 0.45908 0.0
H1134 H 0.56405 0.05972 0.40747 0.0
H1135 H 0.556 0.92626 0.39662 0.0
H1136 H 0.53435 0.87459 0.40939 0.0
H1137 H 0.46257 0.90843 0.43018 0.0
H1138 H 0.48355 0.9601 0.41737 0.0
H1139 H 0.59954 0.02384 0.32573 0.0
H1140 H 0.59879 0.02684 0.35524 0.0
H1141 H 0.49854 0.98398 0.35285 0.0
H1142 H 0.49881 0.98194 0.32342 0.0
H1143 H 0.52866 0.95554 0.37465 0.0
H1144 H 0.52711 0.06144 0.36135 0.0
H1145 H 0.54689 0.11336 0.34865 0.0
H1146 H 0.63361 0.13521 0.37602 0.0
H1147 H 0.61449 0.08316 0.38871 0.0
C1148 C 0.52031 0.02532 0.45003 0.0
C1149 C 0.53557 0.00861 0.45948 0.0
C1150 C 0.52415 0.0259 0.43337 0.0
C1151 C 0.54306 0.0095 0.42587 0.0
C1152 C 0.55896 0.99344 0.43535 0.0
C1153 C 0.5553 0.99305 0.45204 0.0
C1154 C 0.54493 0.00805 0.40804 0.0
C1155 C 0.5565 0.03695 0.40029 0.0
C1156 C 0.5348 0.97835 0.39869 0.0
C1157 C 0.52155 0.94714 0.40617 0.0
C1158 C 0.53552 0.9226 0.40386 0.0
C1159 C 0.52338 0.89333 0.41112 0.0
C1160 C 0.49717 0.88828 0.42063 0.0
C1161 C 0.48294 0.91242 0.42285 0.0
C1162 C 0.49497 0.94171 0.41562 0.0
C1163 C 0.57726 0.01544 0.33145 0.0
C1164 C 0.54923 1.00259 0.32212 0.0
C1165 C 0.57693 0.01699 0.34832 0.0
C1166 C 0.54861 1.0056 0.3562 0.0
C1167 C 0.52067 0.99266 0.34698 0.0
C1168 C 0.52092 0.99138 0.33014 0.0
C1169 C 0.54792 0.00721 0.37407 0.0
C1170 C 0.53655 0.9783 0.38183 0.0
C1171 C 0.55804 0.03692 0.3834 0.0
C1172 C 0.5695 0.06826 0.37584 0.0
C1173 C 0.5505 0.07719 0.36455 0.0
C1174 C 0.56157 0.10666 0.35738 0.0
C1175 C 0.59152 0.12753 0.36149 0.0
C1176 C 0.61043 0.119 0.37282 0.0
C1177 C 0.59948 0.08953 0.38002 0.0
H1178 H 0.60005 0.15034 0.35592 0.0
H1179 H 0.48784 0.86563 0.42626 0.0
H1180 H 0.54337 0.47775 0.78969 0.0
H1181 H 0.53968 0.47822 0.76029 0.0
H1182 H 0.61075 0.57132 0.76227 0.0
H1183 H 0.61365 0.57144 0.79179 0.0
H1184 H 0.56488 0.57002 0.74136 0.0
H1185 H 0.62771 0.50162 0.75115 0.0
H1186 H 0.64057 0.45645 0.76299 0.0
H1187 H 0.55967 0.38896 0.73875 0.0
H1188 H 0.54608 0.43378 0.72693 0.0
H1189 H 0.59858 0.56343 0.6572 0.0
H1190 H 0.60134 0.56757 0.68678 0.0
H1191 H 0.52788 0.47655 0.68743 0.0
H1192 H 0.52483 0.47238 0.65795 0.0
H1193 H 0.57675 0.47816 0.707 0.0
H1194 H 0.51415 0.54749 0.69733 0.0
H1195 H 0.50179 0.59316 0.68575 0.0
H1196 H 0.58365 0.65955 0.70975 0.0
H1197 H 0.59675 0.61421 0.7213 0.0
C1198 C 0.55802 0.4984 0.78386 0.0
C1199 C 0.57874 0.52459 0.79298 0.0
C1200 C 0.55608 0.49855 0.76705 0.0
C1201 C 0.57525 0.52462 0.75905 0.0
C1202 C 0.59578 0.55093 0.76818 0.0
C1203 C 0.59755 0.5509 0.78502 0.0
C1204 C 0.57393 0.52431 0.74116 0.0
C1205 C 0.56793 0.55016 0.73383 0.0
C1206 C 0.5774 0.49815 0.73134 0.0
C1207 C 0.58573 0.4711 0.73827 0.0
C1208 C 0.61255 0.47717 0.74842 0.0
C1209 C 0.61999 0.45162 0.75512 0.0
C1210 C 0.60091 0.41986 0.75166 0.0
C1211 C 0.57441 0.41358 0.74144 0.0
C1212 C 0.56685 0.43904 0.73472 0.0
C1213 C 0.58269 0.54456 0.66366 0.0
C1214 C 0.56162 0.51747 0.65523 0.0
C1215 C 0.58433 0.54693 0.68055 0.0
C1216 C 0.56477 0.52237 0.68931 0.0
C1217 C 0.54332 0.49567 0.68092 0.0
C1218 C 0.54168 0.49328 0.66407 0.0
C1219 C 0.5674 0.52371 0.7072 0.0
C1220 C 0.57377 0.49806 0.71452 0.0
C1221 C 0.56445 0.55014 0.71698 0.0
C1222 C 0.55661 0.57741 0.71003 0.0
C1223 C 0.52967 0.5718 0.70002 0.0
C1224 C 0.5225 0.59764 0.69349 0.0
C1225 C 0.54197 0.62923 0.69697 0.0
C1226 C 0.56861 0.63506 0.70704 0.0
C1227 C 0.57591 0.6093 0.71359 0.0
H1228 H 0.53637 0.6492 0.69191 0.0
H1229 H 0.60669 0.40013 0.75687 0.0
H1230 H 0.5406 0.03958 0.55158 0.0
H1231 H 0.53631 0.03969 0.58101 0.0
H1232 H 0.59851 0.98189 0.58341 0.0
H1233 H 0.60342 0.98236 0.55414 0.0
H1234 H 0.51644 0.9945 0.60222 0.0
H1235 H 0.64598 1.00567 0.61664 0.0
H1236 H 0.69768 0.02753 0.60482 0.0
H1237 H 0.66503 0.09555 0.58007 0.0
H1238 H 0.6133 0.07441 0.59192 0.0
H1239 H 0.53499 0.96879 0.68526 0.0
H1240 H 0.53647 0.96582 0.65577 0.0
H1241 H 0.59113 0.06651 0.65716 0.0
H1242 H 0.591 0.06928 0.68657 0.0
H1243 H 0.61404 0.03398 0.63636 0.0
H1244 H 0.51183 0.04046 0.64728 0.0
H1245 H 0.45978 0.02432 0.65914 0.0
H1246 H 0.43707 0.93147 0.63341 0.0
H1247 H 0.48918 0.94692 0.62155 0.0
C1248 C 0.55325 0.02684 0.55842 0.0
C1249 C 0.57267 0.01133 0.55066 0.0
C1250 C 0.55069 0.0268 0.57519 0.0
C1251 C 0.56747 0.01122 0.58443 0.0
C1252 C 0.58584 0.9946 0.57657 0.0
C1253 C 0.58857 0.99483 0.55985 0.0
C1254 C 0.56673 0.01328 0.60231 0.0
C1255 C 0.53777 1.00307 0.6097 0.0
C1256 C 0.59452 0.02502 0.61207 0.0
C1257 C 0.62569 0.03821 0.60504 0.0
C1258 C 0.64989 0.02537 0.60873 0.0
C1259 C 0.67918 0.03763 0.60201 0.0
C1260 C 0.6846 0.06284 0.59166 0.0
C1261 C 0.66077 0.07594 0.58805 0.0
C1262 C 0.63145 0.06381 0.59474 0.0
C1263 C 0.54764 0.99019 0.67929 0.0
C1264 C 0.56271 0.01934 0.68829 0.0
C1265 C 0.54817 0.98855 0.66242 0.0
C1266 C 0.56353 0.01607 0.65424 0.0
C1267 C 0.57901 0.045 0.6632 0.0
C1268 C 0.57865 0.04661 0.68003 0.0
C1269 C 0.56376 0.01489 0.63633 0.0
C1270 C 0.59268 0.02525 0.62891 0.0
C1271 C 0.53589 1.00407 0.62659 0.0
C1272 C 0.50452 0.99474 0.63366 0.0
C1273 C 0.49583 0.01651 0.64425 0.0
C1274 C 0.4663 0.0075 0.65095 0.0
C1275 C 0.44516 0.97686 0.64707 0.0
C1276 C 0.45349 0.95519 0.63643 0.0
C1277 C 0.48301 0.96407 0.6297 0.0
H1278 H 0.42231 0.96993 0.65227 0.0
H1279 H 0.70729 0.07227 0.58646 0.0
H1280 H 0.4833 0.45219 0.87953 0.0
H1281 H 0.4903 0.44932 0.90871 0.0
H1282 H 0.56825 0.53708 0.91011 0.0
H1283 H 0.56122 0.54019 0.88098 0.0
H1284 H 0.58019 0.48901 0.92773 0.0
H1285 H 0.50075 0.54101 0.92278 0.0
H1286 H 0.45096 0.54649 0.91256 0.0
H1287 H 0.4003 0.45803 0.93319 0.0
H1288 H 0.44986 0.45178 0.94334 0.0
H1289 H 0.59016 0.52514 0.01321 0.0
H1290 H 0.58749 0.52532 0.98369 0.0
H1291 H 0.50137 0.44605 0.9822 0.0
H1292 H 0.50362 0.44642 0.01165 0.0
H1293 H 0.49439 0.49013 0.96429 0.0
H1294 H 0.57292 0.43763 0.96958 0.0
H1295 H 0.62236 0.43095 0.97956 0.0
H1296 H 0.67434 0.5181 0.95824 0.0
H1297 H 0.62516 0.52555 0.94832 0.0
C1298 C 0.50186 0.47088 0.88608 0.0
C1299 C 0.52162 0.49648 0.87803 0.0
C1300 C 0.50585 0.46922 0.90272 0.0
C1301 C 0.52971 0.49308 0.91157 0.0
C1302 C 0.54974 0.51841 0.9035 0.0
C1303 C 0.5456 0.52023 0.88689 0.0
C1304 C 0.5334 0.4919 0.9293 0.0
C1305 C 0.56161 0.48962 0.93579 0.0
C1306 C 0.50887 0.49199 0.93972 0.0
C1307 C 0.47904 0.49577 0.93368 0.0
C1308 C 0.47902 0.52259 0.92502 0.0
C1309 C 0.45083 0.52586 0.91926 0.0
C1310 C 0.42249 0.50258 0.92218 0.0
C1311 C 0.42228 0.47602 0.93091 0.0
C1312 C 0.4504 0.47262 0.93668 0.0
C1313 C 0.57097 0.50745 0.00652 0.0
C1314 C 0.54703 0.48586 0.01469 0.0
C1315 C 0.56946 0.50752 0.98966 0.0
C1316 C 0.54428 0.48558 0.98066 0.0
C1317 C 0.52092 0.46334 0.98884 0.0
C1318 C 0.52223 0.46353 0.00566 0.0
C1319 C 0.54116 0.48688 0.96285 0.0
C1320 C 0.51303 0.48935 0.95631 0.0
C1321 C 0.56571 0.48675 0.9524 0.0
C1322 C 0.59533 0.48232 0.95835 0.0
C1323 C 0.59488 0.45552 0.96714 0.0
C1324 C 0.62286 0.45157 0.97276 0.0
C1325 C 0.65147 0.47413 0.96957 0.0
C1326 C 0.65216 0.50066 0.96072 0.0
C1327 C 0.62424 0.50475 0.95508 0.0
H1328 H 0.67311 0.47103 0.97393 0.0
H1329 H 0.40069 0.50516 0.91772 0.0
H1330 H 0.08613 0.48406 0.19479 0.0
H1331 H 0.08535 0.47761 0.22401 0.0
H1332 H 0.0611 0.56539 0.23169 0.0
H1333 H 0.06122 0.57162 0.20257 0.0
H1334 H 0.11266 0.56072 0.2516 0.0
H1335 H 1.00639 0.49877 0.23402 0.0
H1336 H 0.96809 0.45589 0.21709 0.0
H1337 H 1.00364 0.38461 0.23678 0.0
H1338 H 1.04254 0.42719 0.25364 0.0
H1339 H 0.06993 0.56532 0.33172 0.0
H1340 H 0.06984 0.56383 0.30226 0.0
H1341 H 0.07212 0.46553 0.30071 0.0
H1342 H 0.07115 0.46667 0.3303 0.0
H1343 H 1.03497 0.47151 0.27723 0.0
H1344 H 0.13884 0.52953 0.29545 0.0
H1345 H 0.18077 0.57045 0.31145 0.0
H1346 H 0.15474 0.64614 0.2899 0.0
H1347 H 0.11234 0.60567 0.27395 0.0
C1348 C 0.08045 0.50182 0.20273 0.0
C1349 C 0.07367 0.5283 0.19647 0.0
C1350 C 0.08001 0.49812 0.21936 0.0
C1351 C 0.07313 0.52103 0.22993 0.0
C1352 C 0.0665 0.54751 0.22369 0.0
C1353 C 0.0665 0.55098 0.20708 0.0
C1354 C 0.07317 0.51783 0.24756 0.0
C1355 C 0.09553 0.54143 0.25726 0.0
C1356 C 1.05155 0.49188 0.25477 0.0
C1357 C 1.02759 0.46621 0.24497 0.0
C1358 C 1.00619 0.47398 0.23466 0.0
C1359 C 0.98435 0.44973 0.22508 0.0
C1360 C 0.9835 0.41755 0.22582 0.0
C1361 C 1.00436 0.40956 0.2362 0.0
C1362 C 1.0263 0.43374 0.24578 0.0
C1363 C 0.07041 0.54341 0.32507 0.0
C1364 C 0.0709 0.51623 0.33324 0.0
C1365 C 0.07044 0.54258 0.30825 0.0
C1366 C 0.07173 0.51481 0.29926 0.0
C1367 C 0.07129 0.48726 0.30738 0.0
C1368 C 0.07077 0.48793 0.32426 0.0
C1369 C 0.07405 0.51499 0.28143 0.0
C1370 C 1.05227 0.49076 0.27165 0.0
C1371 C 0.09665 0.54006 0.27408 0.0
C1372 C 0.12224 0.56454 0.2836 0.0
C1373 C 0.14191 0.5549 0.29421 0.0
C1374 C 0.16578 0.57802 0.30326 0.0
C1375 C 0.17037 0.61087 0.30172 0.0
C1376 C 0.15114 0.62068 0.29109 0.0
C1377 C 0.1272 0.59766 0.28203 0.0
H1378 H 0.18887 0.62873 0.30873 0.0
H1379 H 0.96662 0.39882 0.21837 0.0
loop_
_geom_bond_atom_site_label_1
_geom_bond_atom_site_label_2
_geom_bond_distance
_geom_bond_site_symmetry_2
_ccdc_geom_bond_type
Nd0 C2 2.836 . S
Nd0 O20 2.500 . S
Nd0 O21 2.492 . S
Nd0 O22 2.487 . S
Nd0 O23 2.682 . S
Nd0 O24 2.410 . S
Nd0 O29 2.414 . S
Nd0 O31 2.424 1_455 S
Nd1 C11 2.836 1_455 S
Nd1 O23 2.414 . S
Nd1 O25 2.424 . S
Nd1 O26 2.500 1_455 S
Nd1 O27 2.492 1_455 S
Nd1 O28 2.487 . S
Nd1 O29 2.682 . S
Nd1 O30 2.410 1_455 S
C2 Nd0 2.836 . S
C2 C3 1.498 . S
C2 O20 1.258 . S
C2 O21 1.239 . S
C3 C2 1.498 . S
C3 C4 1.366 . S
C3 C8 1.407 . S
C4 C3 1.366 . S
C4 C5 1.392 . S
C4 H32 0.930 . S
C5 C4 1.392 . S
C5 C6 1.398 . S
C5 H33 0.929 . S
C6 C5 1.398 . S
C6 C7 1.352 . S
C7 C6 1.352 . S
C7 C8 1.384 . S
C7 H34 0.930 . S
C8 C3 1.407 . S
C8 C7 1.384 . S
C8 H35 0.929 . S
C9 O22 1.241 . S
C9 O23 1.273 . S
C10 O24 1.251 . S
C10 O25 1.268 . S
C11 Nd1 2.836 1_655 S
C11 C12 1.498 . S
C11 O26 1.258 . S
C11 O27 1.239 . S
C12 C11 1.498 . S
C12 C13 1.366 . S
C12 C17 1.407 . S
C13 C12 1.366 . S
C13 C14 1.392 . S
C13 H36 0.930 . S
C14 C13 1.392 . S
C14 C15 1.398 . S
C14 H37 0.929 . S
C15 C14 1.398 . S
C15 C16 1.352 . S
C16 C15 1.352 . S
C16 C17 1.384 . S
C16 H38 0.930 . S
C17 C12 1.407 . S
C17 C16 1.384 . S
C17 H39 0.929 . S
C18 O28 1.241 . S
C18 O29 1.273 . S
C19 O30 1.251 . S
C19 O31 1.268 . S
O20 Nd0 2.500 . S
O20 C2 1.258 . S
O21 Nd0 2.492 . S
O21 C2 1.239 . S
O22 Nd0 2.487 . S
O22 C9 1.241 . S
O23 Nd0 2.682 . S
O23 Nd1 2.414 . S
O23 C9 1.273 . S
O24 Nd0 2.410 . S
O24 C10 1.251 . S
O25 Nd1 2.424 . S
O25 C10 1.268 . S
O26 Nd1 2.500 1_655 S
O26 C11 1.258 . S
O27 Nd1 2.492 1_655 S
O27 C11 1.239 . S
O28 Nd1 2.487 . S
O28 C18 1.241 . S
O29 Nd0 2.414 . S
O29 Nd1 2.682 . S
O29 C18 1.273 . S
O30 Nd1 2.410 1_655 S
O30 C19 1.251 . S
O31 Nd0 2.424 1_655 S
O31 C19 1.268 . S
H32 C4 0.930 . S
H33 C5 0.929 . S
H34 C7 0.930 . S
H35 C8 0.929 . S
H36 C13 0.930 . S
H37 C14 0.929 . S
H38 C16 0.930 . S
H39 C17 0.929 . S
Nd40 C42 2.836 1_545 S
Nd40 O60 2.500 1_545 S
Nd40 O61 2.492 1_545 S
Nd40 O62 2.487 . S
Nd40 O63 2.682 . S
Nd40 O64 2.410 1_545 S
Nd40 O69 2.414 . S
Nd40 O71 2.424 . S
Nd41 C51 2.836 . S
Nd41 O63 2.414 . S
Nd41 O65 2.424 1_545 S
Nd41 O66 2.500 . S
Nd41 O67 2.492 . S
Nd41 O68 2.487 . S
Nd41 O69 2.682 . S
Nd41 O70 2.410 . S
C42 Nd40 2.836 1_565 S
C42 C43 1.498 . S
C42 O60 1.258 . S
C42 O61 1.239 . S
C43 C42 1.498 . S
C43 C44 1.366 . S
C43 C48 1.407 . S
C44 C43 1.366 . S
C44 C45 1.392 . S
C44 H72 0.930 . S
C45 C44 1.392 . S
C45 C46 1.398 . S
C45 H73 0.929 . S
C46 C45 1.398 . S
C46 C47 1.352 . S
C47 C46 1.352 . S
C47 C48 1.384 . S
C47 H74 0.930 . S
C48 C43 1.407 . S
C48 C47 1.384 . S
C48 H75 0.929 . S
C49 O62 1.241 . S
C49 O63 1.273 . S
C50 O64 1.251 . S
C50 O65 1.268 . S
C51 Nd41 2.836 . S
C51 C52 1.498 . S
C51 O66 1.258 . S
C51 O67 1.239 . S
C52 C51 1.498 . S
C52 C53 1.366 . S
C52 C57 1.407 . S
C53 C52 1.366 . S
C53 C54 1.392 . S
C53 H76 0.930 . S
C54 C53 1.392 . S
C54 C55 1.398 . S
C54 H77 0.929 . S
C55 C54 1.398 . S
C55 C56 1.352 . S
C56 C55 1.352 . S
C56 C57 1.384 . S
C56 H78 0.930 . S
C57 C52 1.407 . S
C57 C56 1.384 . S
C57 H79 0.929 . S
C58 O68 1.241 . S
C58 O69 1.273 . S
C59 O70 1.251 . S
C59 O71 1.268 . S
O60 Nd40 2.500 1_565 S
O60 C42 1.258 . S
O61 Nd40 2.492 1_565 S
O61 C42 1.239 . S
O62 Nd40 2.487 . S
O62 C49 1.241 . S
O63 Nd40 2.682 . S
O63 Nd41 2.414 . S
O63 C49 1.273 . S
O64 Nd40 2.410 1_565 S
O64 C50 1.251 . S
O65 Nd41 2.424 1_565 S
O65 C50 1.268 . S
O66 Nd41 2.500 . S
O66 C51 1.258 . S
O67 Nd41 2.492 . S
O67 C51 1.239 . S
O68 Nd41 2.487 . S
O68 C58 1.241 . S
O69 Nd40 2.414 . S
O69 Nd41 2.682 . S
O69 C58 1.273 . S
O70 Nd41 2.410 . S
O70 C59 1.251 . S
O71 Nd40 2.424 . S
O71 C59 1.268 . S
H72 C44 0.930 . S
H73 C45 0.929 . S
H74 C47 0.930 . S
H75 C48 0.929 . S
H76 C53 0.930 . S
H77 C54 0.929 . S
H78 C56 0.930 . S
H79 C57 0.929 . S
Nd80 C82 2.836 . S
Nd80 O100 2.500 . S
Nd80 O101 2.492 . S
Nd80 O102 2.487 . S
Nd80 O103 2.682 . S
Nd80 O104 2.410 . S
Nd80 O109 2.414 . S
Nd80 O111 2.424 . S
Nd81 C91 2.836 . S
Nd81 O103 2.414 . S
Nd81 O105 2.424 . S
Nd81 O106 2.500 . S
Nd81 O107 2.492 . S
Nd81 O108 2.487 . S
Nd81 O109 2.682 . S
Nd81 O110 2.410 . S
C82 Nd80 2.836 . S
C82 C83 1.498 . S
C82 O100 1.258 . S
C82 O101 1.239 . S
C83 C82 1.498 . S
C83 C84 1.366 . S
C83 C88 1.407 . S
C84 C83 1.366 . S
C84 C85 1.392 . S
C84 H112 0.930 . S
C85 C84 1.392 . S
C85 C86 1.398 . S
C85 H113 0.929 . S
C86 C85 1.398 . S
C86 C87 1.352 . S
C87 C86 1.352 . S
C87 C88 1.384 . S
C87 H114 0.930 . S
C88 C83 1.407 . S
C88 C87 1.384 . S
C88 H115 0.929 . S
C89 O102 1.241 . S
C89 O103 1.273 . S
C90 O104 1.251 . S
C90 O105 1.268 . S
C91 Nd81 2.836 . S
C91 C92 1.498 . S
C91 O106 1.258 . S
C91 O107 1.239 . S
C92 C91 1.498 . S
C92 C93 1.366 . S
C92 C97 1.407 . S
C93 C92 1.366 . S
C93 C94 1.392 . S
C93 H116 0.930 . S
C94 C93 1.392 . S
C94 C95 1.398 . S
C94 H117 0.929 . S
C95 C94 1.398 . S
C95 C96 1.352 . S
C96 C95 1.352 . S
C96 C97 1.384 . S
C96 H118 0.930 . S
C97 C92 1.407 . S
C97 C96 1.384 . S
C97 H119 0.929 . S
C98 O108 1.241 . S
C98 O109 1.273 . S
C99 O110 1.251 . S
C99 O111 1.268 . S
O100 Nd80 2.500 . S
O100 C82 1.258 . S
O101 Nd80 2.492 . S
O101 C82 1.239 . S
O102 Nd80 2.487 . S
O102 C89 1.241 . S
O103 Nd80 2.682 . S
O103 Nd81 2.414 . S
O103 C89 1.273 . S
O104 Nd80 2.410 . S
O104 C90 1.251 . S
O105 Nd81 2.424 . S
O105 C90 1.268 . S
O106 Nd81 2.500 . S
O106 C91 1.258 . S
O107 Nd81 2.492 . S
O107 C91 1.239 . S
O108 Nd81 2.487 . S
O108 C98 1.241 . S
O109 Nd80 2.414 . S
O109 Nd81 2.682 . S
O109 C98 1.273 . S
O110 Nd81 2.410 . S
O110 C99 1.251 . S
O111 Nd80 2.424 . S
O111 C99 1.268 . S
H112 C84 0.930 . S
H113 C85 0.929 . S
H114 C87 0.930 . S
H115 C88 0.929 . S
H116 C93 0.930 . S
H117 C94 0.929 . S
H118 C96 0.930 . S
H119 C97 0.929 . S
C120 C121 1.391 . S
C120 C124 1.391 . S
C120 H162 0.948 . S
C121 C120 1.391 . S
C121 C122 1.391 . S
C122 C121 1.391 . S
C122 H178 0.947 . S
C122 C179 1.392 . S
C123 C124 1.391 . S
C123 C127 1.397 . S
C123 C179 1.419 . S
C124 C120 1.391 . S
C124 C123 1.391 . S
C124 C125 1.399 . S
C125 C124 1.399 . S
C125 C128 1.396 . S
C125 C137 1.453 . S
C125 C138 1.684 . S
H126 C150 0.948 . S
C127 C123 1.397 . S
C127 C128 1.394 . S
C127 C146 1.723 . S
C128 C125 1.396 . S
C128 C127 1.394 . S
C128 C158 1.723 . S
H129 C152 0.947 . S
H130 C153 0.948 . S
H131 C159 0.982 . S
H132 C160 0.979 . S
H133 C160 0.980 . S
H134 C160 0.983 . S
H135 C159 0.979 . S
H136 C159 0.977 . S
C137 C125 1.453 . S
C137 H166 0.982 . S
C137 H167 0.979 . S
C137 H168 0.977 . S
C138 C125 1.684 . S
C138 H163 0.979 . S
C138 H164 0.980 . S
C138 H165 0.983 . S
C139 C140 1.391 . S
C139 C144 1.391 . S
C139 H169 0.948 . S
C140 C139 1.391 . S
C140 C141 1.391 . S
C141 C140 1.391 . S
C141 C142 1.392 . S
C141 H170 0.947 1_545 S
C142 C141 1.392 . S
C142 C143 1.419 . S
C142 H171 0.948 1_545 S
C143 C142 1.419 . S
C143 C144 1.391 . S
C143 C147 1.397 . S
C144 C139 1.391 . S
C144 C143 1.391 . S
C144 C145 1.399 . S
C145 C144 1.399 . S
C145 C146 1.396 . S
C145 C148 1.453 . S
C145 C149 1.684 . S
C146 C127 1.723 . S
C146 C145 1.396 . S
C146 C147 1.394 . S
C147 C143 1.397 . S
C147 C146 1.394 . S
C147 C157 1.723 1_545 S
C148 C145 1.453 . S
C148 H172 0.982 . S
C148 H173 0.979 . S
C148 H174 0.977 . S
C149 C145 1.684 . S
C149 H175 0.979 . S
C149 H176 0.980 . S
C149 H177 0.983 . S
C150 H126 0.948 . S
C150 C151 1.391 . S
C150 C155 1.391 . S
C151 C150 1.391 . S
C151 C152 1.391 . S
C152 H129 0.947 . S
C152 C151 1.391 . S
C152 C153 1.392 . S
C153 H130 0.948 . S
C153 C152 1.392 . S
C153 C154 1.419 . S
C154 C153 1.419 . S
C154 C155 1.391 . S
C154 C158 1.397 1_565 S
C155 C150 1.391 . S
C155 C154 1.391 . S
C155 C156 1.399 . S
C156 C155 1.399 . S
C156 C157 1.396 . S
C156 C159 1.453 . S
C156 C160 1.684 . S
C157 C147 1.723 1_565 S
C157 C156 1.396 . S
C157 C158 1.394 1_565 S
C158 C128 1.723 . S
C158 C154 1.397 1_545 S
C158 C157 1.394 1_545 S
C159 H131 0.982 . S
C159 H135 0.979 . S
C159 H136 0.977 . S
C159 C156 1.453 . S
C160 H132 0.979 . S
C160 H133 0.980 . S
C160 H134 0.983 . S
C160 C156 1.684 . S
H161 C179 0.948 . S
H162 C120 0.948 . S
H163 C138 0.979 . S
H164 C138 0.980 . S
H165 C138 0.983 . S
H166 C137 0.982 . S
H167 C137 0.979 . S
H168 C137 0.977 . S
H169 C139 0.948 . S
H170 C141 0.947 1_565 S
H171 C142 0.948 1_565 S
H172 C148 0.982 . S
H173 C148 0.979 . S
H174 C148 0.977 . S
H175 C149 0.979 . S
H176 C149 0.980 . S
H177 C149 0.983 . S
H178 C122 0.947 . S
C179 C122 1.392 . S
C179 C123 1.419 . S
C179 H161 0.948 . S
C180 C181 1.391 . S
C180 C184 1.391 . S
C180 H222 0.948 . S
C181 C180 1.391 . S
C181 C182 1.391 . S
C182 C181 1.391 . S
C182 H238 0.947 . S
C182 C239 1.392 . S
C183 C184 1.391 . S
C183 C187 1.397 . S
C183 C239 1.419 . S
C184 C180 1.391 . S
C184 C183 1.391 . S
C184 C185 1.399 . S
C185 C184 1.399 . S
C185 C188 1.396 . S
C185 C197 1.453 . S
C185 C198 1.684 . S
H186 C210 0.948 . S
C187 C183 1.397 . S
C187 C188 1.394 . S
C187 C206 1.723 . S
C188 C185 1.396 . S
C188 C187 1.394 . S
C188 C218 1.723 . S
H189 C212 0.947 . S
H190 C213 0.948 . S
H191 C219 0.982 . S
H192 C220 0.979 . S
H193 C220 0.980 . S
H194 C220 0.983 . S
H195 C219 0.979 . S
H196 C219 0.977 . S
C197 C185 1.453 . S
C197 H226 0.982 . S
C197 H227 0.979 . S
C197 H228 0.977 . S
C198 C185 1.684 . S
C198 H223 0.979 . S
C198 H224 0.980 . S
C198 H225 0.983 . S
C199 C200 1.391 . S
C199 C204 1.391 . S
C199 H229 0.948 . S
C200 C199 1.391 . S
C200 C201 1.391 . S
C201 C200 1.391 . S
C201 C202 1.392 . S
C201 H230 0.947 . S
C202 C201 1.392 . S
C202 C203 1.419 . S
C202 H231 0.948 . S
C203 C202 1.419 . S
C203 C204 1.391 . S
C203 C207 1.397 . S
C204 C199 1.391 . S
C204 C203 1.391 . S
C204 C205 1.399 . S
C205 C204 1.399 . S
C205 C206 1.396 . S
C205 C208 1.453 . S
C205 C209 1.684 . S
C206 C187 1.723 . S
C206 C205 1.396 . S
C206 C207 1.394 . S
C207 C203 1.397 . S
C207 C206 1.394 . S
C207 C217 1.723 . S
C208 C205 1.453 . S
C208 H232 0.982 . S
C208 H233 0.979 . S
C208 H234 0.977 . S
C209 C205 1.684 . S
C209 H235 0.979 . S
C209 H236 0.980 . S
C209 H237 0.983 . S
C210 H186 0.948 . S
C210 C211 1.391 . S
C210 C215 1.391 . S
C211 C210 1.391 . S
C211 C212 1.391 . S
C212 H189 0.947 . S
C212 C211 1.391 . S
C212 C213 1.392 . S
C213 H190 0.948 . S
C213 C212 1.392 . S
C213 C214 1.419 . S
C214 C213 1.419 . S
C214 C215 1.391 . S
C214 C218 1.397 . S
C215 C210 1.391 . S
C215 C214 1.391 . S
C215 C216 1.399 . S
C216 C215 1.399 . S
C216 C217 1.396 . S
C216 C219 1.453 . S
C216 C220 1.684 . S
C217 C207 1.723 . S
C217 C216 1.396 . S
C217 C218 1.394 . S
C218 C188 1.723 . S
C218 C214 1.397 . S
C218 C217 1.394 . S
C219 H191 0.982 . S
C219 H195 0.979 . S
C219 H196 0.977 . S
C219 C216 1.453 . S
C220 H192 0.979 . S
C220 H193 0.980 . S
C220 H194 0.983 . S
C220 C216 1.684 . S
H221 C239 0.948 . S
H222 C180 0.948 . S
H223 C198 0.979 . S
H224 C198 0.980 . S
H225 C198 0.983 . S
H226 C197 0.982 . S
H227 C197 0.979 . S
H228 C197 0.977 . S
H229 C199 0.948 . S
H230 C201 0.947 . S
H231 C202 0.948 . S
H232 C208 0.982 . S
H233 C208 0.979 . S
H234 C208 0.977 . S
H235 C209 0.979 . S
H236 C209 0.980 . S
H237 C209 0.983 . S
H238 C182 0.947 . S
C239 C182 1.392 . S
C239 C183 1.419 . S
C239 H221 0.948 . S
C240 C241 1.391 . S
C240 C244 1.391 . S
C240 H282 0.948 . S
C241 C240 1.391 . S
C241 C242 1.391 . S
C242 C241 1.391 . S
C242 H298 0.947 . S
C242 C299 1.392 . S
C243 C244 1.391 . S
C243 C247 1.397 . S
C243 C299 1.419 . S
C244 C240 1.391 . S
C244 C243 1.391 . S
C244 C245 1.399 . S
C245 C244 1.399 . S
C245 C248 1.396 . S
C245 C257 1.453 . S
C245 C258 1.684 . S
H246 C270 0.948 . S
C247 C243 1.397 . S
C247 C248 1.394 . S
C247 C266 1.723 . S
C248 C245 1.396 . S
C248 C247 1.394 . S
C248 C278 1.723 . S
H249 C272 0.947 . S
H250 C273 0.948 1_455 S
H251 C279 0.982 . S
H252 C280 0.979 . S
H253 C280 0.980 . S
H254 C280 0.983 . S
H255 C279 0.979 . S
H256 C279 0.977 . S
C257 C245 1.453 . S
C257 H286 0.982 . S
C257 H287 0.979 . S
C257 H288 0.977 . S
C258 C245 1.684 . S
C258 H283 0.979 . S
C258 H284 0.980 . S
C258 H285 0.983 . S
C259 C260 1.391 . S
C259 C264 1.391 . S
C259 H289 0.948 . S
C260 C259 1.391 . S
C260 C261 1.391 . S
C261 C260 1.391 . S
C261 C262 1.392 . S
C261 H290 0.947 1_455 S
C262 C261 1.392 . S
C262 C263 1.419 . S
C262 H291 0.948 1_455 S
C263 C262 1.419 . S
C263 C264 1.391 . S
C263 C267 1.397 . S
C264 C259 1.391 . S
C264 C263 1.391 . S
C264 C265 1.399 . S
C265 C264 1.399 . S
C265 C266 1.396 . S
C265 C268 1.453 . S
C265 C269 1.684 . S
C266 C247 1.723 . S
C266 C265 1.396 . S
C266 C267 1.394 . S
C267 C263 1.397 . S
C267 C266 1.394 . S
C267 C277 1.723 . S
C268 C265 1.453 . S
C268 H292 0.982 . S
C268 H293 0.979 . S
C268 H294 0.977 . S
C269 C265 1.684 . S
C269 H295 0.979 . S
C269 H296 0.980 . S
C269 H297 0.983 . S
C270 H246 0.948 . S
C270 C271 1.391 . S
C270 C275 1.391 . S
C271 C270 1.391 . S
C271 C272 1.391 . S
C272 H249 0.947 . S
C272 C271 1.391 . S
C272 C273 1.392 . S
C273 H250 0.948 1_655 S
C273 C272 1.392 . S
C273 C274 1.419 . S
C274 C273 1.419 . S
C274 C275 1.391 . S
C274 C278 1.397 1_655 S
C275 C270 1.391 . S
C275 C274 1.391 . S
C275 C276 1.399 . S
C276 C275 1.399 . S
C276 C277 1.396 1_655 S
C276 C279 1.453 . S
C276 C280 1.684 . S
C277 C267 1.723 . S
C277 C276 1.396 1_455 S
C277 C278 1.394 . S
C278 C248 1.723 . S
C278 C274 1.397 1_455 S
C278 C277 1.394 . S
C279 H251 0.982 . S
C279 H255 0.979 . S
C279 H256 0.977 . S
C279 C276 1.453 . S
C280 H252 0.979 . S
C280 H253 0.980 . S
C280 H254 0.983 . S
C280 C276 1.684 . S
H281 C299 0.948 . S
H282 C240 0.948 . S
H283 C258 0.979 . S
H284 C258 0.980 . S
H285 C258 0.983 . S
H286 C257 0.982 . S
H287 C257 0.979 . S
H288 C257 0.977 . S
H289 C259 0.948 . S
H290 C261 0.947 1_655 S
H291 C262 0.948 1_655 S
H292 C268 0.982 . S
H293 C268 0.979 . S
H294 C268 0.977 . S
H295 C269 0.979 . S
H296 C269 0.980 . S
H297 C269 0.983 . S
H298 C242 0.947 . S
C299 C242 1.392 . S
C299 C243 1.419 . S
C299 H281 0.948 . S
C300 C301 1.391 . S
C300 C304 1.391 . S
C300 H342 0.948 . S
C301 C300 1.391 . S
C301 C302 1.391 . S
C302 C301 1.391 . S
C302 H358 0.947 . S
C302 C359 1.392 . S
C303 C304 1.391 . S
C303 C307 1.397 . S
C303 C359 1.419 . S
C304 C300 1.391 . S
C304 C303 1.391 . S
C304 C305 1.399 . S
C305 C304 1.399 . S
C305 C308 1.396 . S
C305 C317 1.453 . S
C305 C318 1.684 . S
H306 C330 0.948 . S
C307 C303 1.397 . S
C307 C308 1.394 . S
C307 C326 1.723 . S
C308 C305 1.396 . S
C308 C307 1.394 . S
C308 C338 1.723 1_655 S
H309 C332 0.947 . S
H310 C333 0.948 . S
H311 C339 0.982 . S
H312 C340 0.979 . S
H313 C340 0.980 . S
H314 C340 0.983 . S
H315 C339 0.979 . S
H316 C339 0.977 . S
C317 C305 1.453 . S
C317 H346 0.982 1_655 S
C317 H347 0.979 . S
C317 H348 0.977 1_655 S
C318 C305 1.684 . S
C318 H343 0.979 . S
C318 H344 0.980 . S
C318 H345 0.983 . S
C319 C320 1.391 1_655 S
C319 C324 1.391 . S
C319 H349 0.948 . S
C320 C319 1.391 1_455 S
C320 C321 1.391 . S
C321 C320 1.391 . S
C321 C322 1.392 . S
C321 H350 0.947 . S
C322 C321 1.392 . S
C322 C323 1.419 . S
C322 H351 0.948 . S
C323 C322 1.419 . S
C323 C324 1.391 1_455 S
C323 C327 1.397 . S
C324 C319 1.391 . S
C324 C323 1.391 1_655 S
C324 C325 1.399 . S
C325 C324 1.399 . S
C325 C326 1.396 . S
C325 C328 1.453 . S
C325 C329 1.684 . S
C326 C307 1.723 . S
C326 C325 1.396 . S
C326 C327 1.394 1_655 S
C327 C323 1.397 . S
C327 C326 1.394 1_455 S
C327 C337 1.723 . S
C328 C325 1.453 . S
C328 H352 0.982 . S
C328 H353 0.979 . S
C328 H354 0.977 . S
C329 C325 1.684 . S
C329 H355 0.979 . S
C329 H356 0.980 . S
C329 H357 0.983 . S
C330 H306 0.948 . S
C330 C331 1.391 . S
C330 C335 1.391 . S
C331 C330 1.391 . S
C331 C332 1.391 . S
C332 H309 0.947 . S
C332 C331 1.391 . S
C332 C333 1.392 . S
C333 H310 0.948 . S
C333 C332 1.392 . S
C333 C334 1.419 . S
C334 C333 1.419 . S
C334 C335 1.391 . S
C334 C338 1.397 . S
C335 C330 1.391 . S
C335 C334 1.391 . S
C335 C336 1.399 . S
C336 C335 1.399 . S
C336 C337 1.396 . S
C336 C339 1.453 . S
C336 C340 1.684 . S
C337 C327 1.723 . S
C337 C336 1.396 . S
C337 C338 1.394 . S
C338 C308 1.723 1_455 S
C338 C334 1.397 . S
C338 C337 1.394 . S
C339 H311 0.982 . S
C339 H315 0.979 . S
C339 H316 0.977 . S
C339 C336 1.453 . S
C340 H312 0.979 . S
C340 H313 0.980 . S
C340 H314 0.983 . S
C340 C336 1.684 . S
H341 C359 0.948 . S
H342 C300 0.948 . S
H343 C318 0.979 . S
H344 C318 0.980 . S
H345 C318 0.983 . S
H346 C317 0.982 1_455 S
H347 C317 0.979 . S
H348 C317 0.977 1_455 S
H349 C319 0.948 . S
H350 C321 0.947 . S
H351 C322 0.948 . S
H352 C328 0.982 . S
H353 C328 0.979 . S
H354 C328 0.977 . S
H355 C329 0.979 . S
H356 C329 0.980 . S
H357 C329 0.983 . S
H358 C302 0.947 . S
C359 C302 1.392 . S
C359 C303 1.419 . S
C359 H341 0.948 . S
C360 C361 1.391 . S
C360 C364 1.391 . S
C360 H402 0.948 . S
C361 C360 1.391 . S
C361 C362 1.391 . S
C362 C361 1.391 . S
C362 H418 0.947 . S
C362 C419 1.392 . S
C363 C364 1.391 . S
C363 C367 1.397 . S
C363 C419 1.419 . S
C364 C360 1.391 . S
C364 C363 1.391 . S
C364 C365 1.399 . S
C365 C364 1.399 . S
C365 C368 1.376 1_565 S
C365 C377 1.453 1_565 S
C365 C378 1.684 . S
H366 C390 0.948 . S
C367 C363 1.397 . S
C367 C368 1.371 1_565 S
C367 C386 1.723 . S
C368 C365 1.376 1_545 S
C368 C367 1.371 1_545 S
C368 C398 1.759 . S
H369 C392 0.947 . S
H370 C393 0.948 . S
H371 C399 0.982 . S
H372 C400 0.979 . S
H373 C400 0.980 . S
H374 C400 0.983 . S
H375 C399 0.979 . S
H376 C399 0.977 . S
C377 C365 1.453 1_545 S
C377 H406 0.982 . S
C377 H407 0.979 1_545 S
C377 H408 0.977 . S
C378 C365 1.684 . S
C378 H403 0.979 . S
C378 H404 0.980 1_565 S
C378 H405 0.983 . S
C379 C380 1.391 1_565 S
C379 C384 1.391 . S
C379 H409 0.948 . S
C380 C379 1.391 1_545 S
C380 C381 1.391 . S
C381 C380 1.391 . S
C381 C382 1.392 . S
C381 H410 0.947 . S
C382 C381 1.392 . S
C382 C383 1.419 . S
C382 H411 0.948 . S
C383 C382 1.419 . S
C383 C384 1.391 1_545 S
C383 C387 1.397 . S
C384 C379 1.391 . S
C384 C383 1.391 1_565 S
C384 C385 1.399 . S
C385 C384 1.399 . S
C385 C386 1.396 . S
C385 C388 1.453 . S
C385 C389 1.684 . S
C386 C367 1.723 . S
C386 C385 1.396 . S
C386 C387 1.394 1_565 S
C387 C383 1.397 . S
C387 C386 1.394 1_545 S
C387 C397 1.723 . S
C388 C385 1.453 . S
C388 H412 0.982 . S
C388 H413 0.979 . S
C388 H414 0.977 . S
C389 C385 1.684 . S
C389 H415 0.979 . S
C389 H416 0.980 . S
C389 H417 0.983 . S
C390 H366 0.948 . S
C390 C391 1.391 . S
C390 C395 1.391 . S
C391 C390 1.391 . S
C391 C392 1.391 . S
C392 H369 0.947 . S
C392 C391 1.391 . S
C392 C393 1.392 . S
C393 H370 0.948 . S
C393 C392 1.392 . S
C393 C394 1.419 . S
C394 C393 1.419 . S
C394 C395 1.391 . S
C394 C398 1.397 . S
C395 C390 1.391 . S
C395 C394 1.391 . S
C395 C396 1.399 . S
C396 C395 1.399 . S
C396 C397 1.396 . S
C396 C399 1.453 . S
C396 C400 1.684 . S
C397 C387 1.723 . S
C397 C396 1.396 . S
C397 C398 1.394 . S
C398 C368 1.759 . S
C398 C394 1.397 . S
C398 C397 1.394 . S
C399 H371 0.982 . S
C399 H375 0.979 . S
C399 H376 0.977 . S
C399 C396 1.453 . S
C400 H372 0.979 . S
C400 H373 0.980 . S
C400 H374 0.983 . S
C400 C396 1.684 . S
H401 C419 0.948 . S
H402 C360 0.948 . S
H403 C378 0.979 . S
H404 C378 0.980 1_545 S
H405 C378 0.983 . S
H406 C377 0.982 . S
H407 C377 0.979 1_565 S
H408 C377 0.977 . S
H409 C379 0.948 . S
H410 C381 0.947 . S
H411 C382 0.948 . S
H412 C388 0.982 . S
H413 C388 0.979 . S
H414 C388 0.977 . S
H415 C389 0.979 . S
H416 C389 0.980 . S
H417 C389 0.983 . S
H418 C362 0.947 . S
C419 C362 1.392 . S
C419 C363 1.419 . S
C419 H401 0.948 . S
C420 C421 1.391 . S
C420 C424 1.391 . S
C420 H462 0.948 . S
C421 C420 1.391 . S
C421 C422 1.391 . S
C422 C421 1.391 . S
C422 H478 0.947 . S
C422 C479 1.392 . S
C423 C424 1.391 . S
C423 C427 1.397 . S
C423 C479 1.419 . S
C424 C420 1.391 . S
C424 C423 1.391 . S
C424 C425 1.399 . S
C425 C424 1.399 . S
C425 C428 1.396 . S
C425 C437 1.453 . S
C425 C438 1.684 . S
H426 C450 0.948 . S
C427 C423 1.397 . S
C427 C428 1.394 . S
C427 C446 1.723 . S
C428 C425 1.396 . S
C428 C427 1.394 . S
C428 C458 1.723 . S
H429 C452 0.947 . S
H430 C453 0.948 . S
H431 C459 0.982 . S
H432 C460 0.979 . S
H433 C460 0.980 . S
H434 C460 0.983 . S
H435 C459 0.979 . S
H436 C459 0.977 . S
C437 C425 1.453 . S
C437 H466 0.982 . S
C437 H467 0.979 . S
C437 H468 0.977 . S
C438 C425 1.684 . S
C438 H463 0.979 . S
C438 H464 0.980 . S
C438 H465 0.983 . S
C439 C440 1.391 . S
C439 C444 1.391 . S
C439 H469 0.948 . S
C440 C439 1.391 . S
C440 C441 1.391 . S
C441 C440 1.391 . S
C441 C442 1.392 . S
C441 H470 0.947 . S
C442 C441 1.392 . S
C442 C443 1.419 . S
C442 H471 0.948 . S
C443 C442 1.419 . S
C443 C444 1.391 . S
C443 C447 1.397 . S
C444 C439 1.391 . S
C444 C443 1.391 . S
C444 C445 1.399 . S
C445 C444 1.399 . S
C445 C446 1.396 . S
C445 C448 1.453 . S
C445 C449 1.684 . S
C446 C427 1.723 . S
C446 C445 1.396 . S
C446 C447 1.394 . S
C447 C443 1.397 . S
C447 C446 1.394 . S
C447 C457 1.723 . S
C448 C445 1.453 . S
C448 H472 0.982 . S
C448 H473 0.979 . S
C448 H474 0.977 . S
C449 C445 1.684 . S
C449 H475 0.979 . S
C449 H476 0.980 . S
C449 H477 0.983 . S
C450 H426 0.948 . S
C450 C451 1.391 . S
C450 C455 1.391 . S
C451 C450 1.391 . S
C451 C452 1.391 . S
C452 H429 0.947 . S
C452 C451 1.391 . S
C452 C453 1.392 . S
C453 H430 0.948 . S
C453 C452 1.392 . S
C453 C454 1.419 . S
C454 C453 1.419 . S
C454 C455 1.391 . S
C454 C458 1.397 . S
C455 C450 1.391 . S
C455 C454 1.391 . S
C455 C456 1.399 . S
C456 C455 1.399 . S
C456 C457 1.396 . S
C456 C459 1.453 . S
C456 C460 1.684 . S
C457 C447 1.723 . S
C457 C456 1.396 . S
C457 C458 1.394 . S
C458 C428 1.723 . S
C458 C454 1.397 . S
C458 C457 1.394 . S
C459 H431 0.982 . S
C459 H435 0.979 . S
C459 H436 0.977 . S
C459 C456 1.453 . S
C460 H432 0.979 . S
C460 H433 0.980 . S
C460 H434 0.983 . S
C460 C456 1.684 . S
H461 C479 0.948 . S
H462 C420 0.948 . S
H463 C438 0.979 . S
H464 C438 0.980 . S
H465 C438 0.983 . S
H466 C437 0.982 . S
H467 C437 0.979 . S
H468 C437 0.977 . S
H469 C439 0.948 . S
H470 C441 0.947 . S
H471 C442 0.948 . S
H472 C448 0.982 . S
H473 C448 0.979 . S
H474 C448 0.977 . S
H475 C449 0.979 . S
H476 C449 0.980 . S
H477 C449 0.983 . S
H478 C422 0.947 . S
C479 C422 1.392 . S
C479 C423 1.419 . S
C479 H461 0.948 . S
H480 C498 0.951 . S
H481 C500 0.951 . S
H482 C502 0.950 . S
H483 C503 0.950 . S
H484 C505 0.950 . S
H485 C508 0.950 . S
H486 C509 0.950 . S
H487 C511 0.950 . S
H488 C512 0.950 . S
H489 C513 0.951 . S
H490 C515 0.951 . S
H491 C517 0.950 . S
H492 C518 0.950 . S
H493 C520 0.950 . S
H494 C523 0.950 . S
H495 C524 0.950 . S
H496 C526 0.950 . S
H497 C527 0.950 . S
C498 H480 0.951 . S
C498 C499 1.366 . S
C498 C500 1.388 . S
C499 C498 1.366 . S
C499 C503 1.385 . S
C500 H481 0.951 . S
C500 C498 1.388 . S
C500 C501 1.366 . S
C501 C500 1.366 . S
C501 C502 1.414 . S
C501 C504 1.499 . S
C502 H482 0.950 . S
C502 C501 1.414 . S
C502 C503 1.374 . S
C503 H483 0.950 . S
C503 C499 1.385 . S
C503 C502 1.374 . S
C504 C501 1.499 . S
C504 C505 1.373 . S
C504 C506 1.389 . S
C505 H484 0.950 . S
C505 C504 1.373 . S
C505 C521 1.377 . S
C506 C504 1.389 . S
C506 C507 1.524 . S
C506 C520 1.377 . S
C507 C506 1.524 . S
C507 C508 1.397 . S
C507 C512 1.363 . S
C508 H485 0.950 . S
C508 C507 1.397 . S
C508 C509 1.334 . S
C509 H486 0.950 . S
C509 C508 1.334 . S
C509 C510 1.287 . S
C510 C509 1.287 . S
C510 C511 1.524 . S
C510 H529 0.913 . S
C511 H487 0.950 . S
C511 C510 1.524 . S
C511 C512 1.415 . S
C512 H488 0.950 . S
C512 C507 1.363 . S
C512 C511 1.415 . S
C513 H489 0.951 . S
C513 C514 1.366 . S
C513 C515 1.388 . S
C514 C513 1.366 . S
C514 C518 1.385 . S
C515 H490 0.951 . S
C515 C513 1.388 . S
C515 C516 1.366 . S
C516 C515 1.366 . S
C516 C517 1.414 . S
C516 C519 1.499 . S
C517 H491 0.950 . S
C517 C516 1.414 . S
C517 C518 1.374 . S
C518 H492 0.950 . S
C518 C514 1.385 . S
C518 C517 1.374 . S
C519 C516 1.499 . S
C519 C520 1.373 . S
C519 C521 1.389 . S
C520 H493 0.950 . S
C520 C506 1.377 . S
C520 C519 1.373 . S
C521 C505 1.377 . S
C521 C519 1.389 . S
C521 C522 1.524 . S
C522 C521 1.524 . S
C522 C523 1.397 . S
C522 C527 1.363 . S
C523 H494 0.950 . S
C523 C522 1.397 . S
C523 C524 1.334 . S
C524 H495 0.950 . S
C524 C523 1.334 . S
C524 C525 1.287 . S
C525 C524 1.287 . S
C525 C526 1.524 . S
C525 H528 0.999 . S
C526 H496 0.950 . S
C526 C525 1.524 . S
C526 C527 1.415 . S
C527 H497 0.950 . S
C527 C522 1.363 . S
C527 C526 1.415 . S
H528 C525 0.999 . S
H529 C510 0.913 . S
H530 C548 0.951 . S
H531 C550 0.951 . S
H532 C552 0.950 . S
H533 C553 0.950 . S
H534 C555 0.950 . S
H535 C558 0.950 . S
H536 C559 0.950 . S
H537 C561 0.950 . S
H538 C562 0.950 . S
H539 C563 0.951 . S
H540 C565 0.951 . S
H541 C567 0.950 . S
H542 C568 0.950 . S
H543 C570 0.950 . S
H544 C573 0.950 . S
H545 C574 0.950 . S
H546 C576 0.950 . S
H547 C577 0.950 . S
C548 H530 0.951 . S
C548 C549 1.366 . S
C548 C550 1.388 . S
C549 C548 1.366 . S
C549 C553 1.385 . S
C550 H531 0.951 . S
C550 C548 1.388 . S
C550 C551 1.366 . S
C551 C550 1.366 . S
C551 C552 1.414 . S
C551 C554 1.499 . S
C552 H532 0.950 . S
C552 C551 1.414 . S
C552 C553 1.374 . S
C553 H533 0.950 . S
C553 C549 1.385 . S
C553 C552 1.374 . S
C554 C551 1.499 . S
C554 C555 1.373 . S
C554 C556 1.389 . S
C555 H534 0.950 . S
C555 C554 1.373 . S
C555 C571 1.377 . S
C556 C554 1.389 . S
C556 C557 1.524 . S
C556 C570 1.377 . S
C557 C556 1.524 . S
C557 C558 1.397 . S
C557 C562 1.363 . S
C558 H535 0.950 . S
C558 C557 1.397 . S
C558 C559 1.334 . S
C559 H536 0.950 . S
C559 C558 1.334 . S
C559 C560 1.287 . S
C560 C559 1.287 . S
C560 C561 1.524 . S
C560 H579 0.913 . S
C561 H537 0.950 . S
C561 C560 1.524 . S
C561 C562 1.415 . S
C562 H538 0.950 . S
C562 C557 1.363 . S
C562 C561 1.415 . S
C563 H539 0.951 . S
C563 C564 1.366 . S
C563 C565 1.388 . S
C564 C563 1.366 . S
C564 C568 1.385 . S
C565 H540 0.951 . S
C565 C563 1.388 . S
C565 C566 1.366 . S
C566 C565 1.366 . S
C566 C567 1.414 . S
C566 C569 1.499 . S
C567 H541 0.950 . S
C567 C566 1.414 . S
C567 C568 1.374 . S
C568 H542 0.950 . S
C568 C564 1.385 . S
C568 C567 1.374 . S
C569 C566 1.499 . S
C569 C570 1.373 . S
C569 C571 1.389 . S
C570 H543 0.950 . S
C570 C556 1.377 . S
C570 C569 1.373 . S
C571 C555 1.377 . S
C571 C569 1.389 . S
C571 C572 1.524 . S
C572 C571 1.524 . S
C572 C573 1.397 . S
C572 C577 1.363 . S
C573 H544 0.950 . S
C573 C572 1.397 . S
C573 C574 1.334 . S
C574 H545 0.950 . S
C574 C573 1.334 . S
C574 C575 1.287 . S
C575 C574 1.287 . S
C575 C576 1.524 . S
C575 H578 0.999 . S
C576 H546 0.950 . S
C576 C575 1.524 . S
C576 C577 1.415 . S
C577 H547 0.950 . S
C577 C572 1.363 . S
C577 C576 1.415 . S
H578 C575 0.999 . S
H579 C560 0.913 . S
H580 C598 0.951 . S
H581 C600 0.951 . S
H582 C602 0.950 . S
H583 C603 0.950 . S
H584 C605 0.950 . S
H585 C608 0.950 . S
H586 C609 0.950 . S
H587 C611 0.950 . S
H588 C612 0.950 . S
H589 C613 0.951 . S
H590 C615 0.951 . S
H591 C617 0.950 . S
H592 C618 0.950 . S
H593 C620 0.950 . S
H594 C623 0.950 . S
H595 C624 0.950 . S
H596 C626 0.950 . S
H597 C627 0.950 . S
C598 H580 0.951 . S
C598 C599 1.366 . S
C598 C600 1.388 . S
C599 C598 1.366 . S
C599 C603 1.385 . S
C600 H581 0.951 . S
C600 C598 1.388 . S
C600 C601 1.366 . S
C601 C600 1.366 . S
C601 C602 1.414 . S
C601 C604 1.499 . S
C602 H582 0.950 . S
C602 C601 1.414 . S
C602 C603 1.374 . S
C603 H583 0.950 . S
C603 C599 1.385 . S
C603 C602 1.374 . S
C604 C601 1.499 . S
C604 C605 1.373 . S
C604 C606 1.389 . S
C605 H584 0.950 . S
C605 C604 1.373 . S
C605 C621 1.377 . S
C606 C604 1.389 . S
C606 C607 1.524 . S
C606 C620 1.377 . S
C607 C606 1.524 . S
C607 C608 1.397 . S
C607 C612 1.363 . S
C608 H585 0.950 . S
C608 C607 1.397 . S
C608 C609 1.334 . S
C609 H586 0.950 . S
C609 C608 1.334 . S
C609 C610 1.287 . S
C610 C609 1.287 . S
C610 C611 1.524 . S
C610 H629 0.913 . S
C611 H587 0.950 . S
C611 C610 1.524 . S
C611 C612 1.415 . S
C612 H588 0.950 . S
C612 C607 1.363 . S
C612 C611 1.415 . S
C613 H589 0.951 . S
C613 C614 1.366 . S
C613 C615 1.388 . S
C614 C613 1.366 . S
C614 C618 1.385 . S
C615 H590 0.951 . S
C615 C613 1.388 . S
C615 C616 1.366 . S
C616 C615 1.366 . S
C616 C617 1.414 . S
C616 C619 1.499 . S
C617 H591 0.950 . S
C617 C616 1.414 . S
C617 C618 1.374 . S
C618 H592 0.950 . S
C618 C614 1.385 . S
C618 C617 1.374 . S
C619 C616 1.499 . S
C619 C620 1.373 . S
C619 C621 1.389 . S
C620 H593 0.950 . S
C620 C606 1.377 . S
C620 C619 1.373 . S
C621 C605 1.377 . S
C621 C619 1.389 . S
C621 C622 1.524 . S
C622 C621 1.524 . S
C622 C623 1.397 . S
C622 C627 1.363 . S
C623 H594 0.950 . S
C623 C622 1.397 . S
C623 C624 1.334 . S
C624 H595 0.950 . S
C624 C623 1.334 . S
C624 C625 1.287 . S
C625 C624 1.287 . S
C625 C626 1.524 . S
C625 H628 0.999 . S
C626 H596 0.950 . S
C626 C625 1.524 . S
C626 C627 1.415 . S
C627 H597 0.950 . S
C627 C622 1.363 . S
C627 C626 1.415 . S
H628 C625 0.999 . S
H629 C610 0.913 . S
H630 C648 0.951 . S
H631 C650 0.951 . S
H632 C652 0.950 . S
H633 C653 0.950 . S
H634 C655 0.950 . S
H635 C658 0.950 . S
H636 C659 0.950 . S
H637 C661 0.950 . S
H638 C662 0.950 . S
H639 C663 0.951 . S
H640 C665 0.951 . S
H641 C667 0.950 . S
H642 C668 0.950 . S
H643 C670 0.950 . S
H644 C673 0.950 . S
H645 C674 0.950 . S
H646 C676 0.950 . S
H647 C677 0.950 . S
C648 H630 0.951 . S
C648 C649 1.366 . S
C648 C650 1.388 . S
C649 C648 1.366 . S
C649 C653 1.385 . S
C650 H631 0.951 . S
C650 C648 1.388 . S
C650 C651 1.366 . S
C651 C650 1.366 . S
C651 C652 1.414 . S
C651 C654 1.499 . S
C652 H632 0.950 . S
C652 C651 1.414 . S
C652 C653 1.374 . S
C653 H633 0.950 . S
C653 C649 1.385 . S
C653 C652 1.374 . S
C654 C651 1.499 . S
C654 C655 1.373 . S
C654 C656 1.389 . S
C655 H634 0.950 . S
C655 C654 1.373 . S
C655 C671 1.377 . S
C656 C654 1.389 . S
C656 C657 1.524 . S
C656 C670 1.377 . S
C657 C656 1.524 . S
C657 C658 1.397 . S
C657 C662 1.363 . S
C658 H635 0.950 . S
C658 C657 1.397 . S
C658 C659 1.334 . S
C659 H636 0.950 . S
C659 C658 1.334 . S
C659 C660 1.287 . S
C660 C659 1.287 . S
C660 C661 1.524 . S
C660 H679 0.913 . S
C661 H637 0.950 . S
C661 C660 1.524 . S
C661 C662 1.415 . S
C662 H638 0.950 . S
C662 C657 1.363 . S
C662 C661 1.415 . S
C663 H639 0.951 . S
C663 C664 1.366 . S
C663 C665 1.388 . S
C664 C663 1.366 . S
C664 C668 1.385 . S
C665 H640 0.951 . S
C665 C663 1.388 . S
C665 C666 1.366 . S
C666 C665 1.366 . S
C666 C667 1.414 . S
C666 C669 1.499 . S
C667 H641 0.950 . S
C667 C666 1.414 . S
C667 C668 1.374 . S
C668 H642 0.950 . S
C668 C664 1.385 . S
C668 C667 1.374 . S
C669 C666 1.499 . S
C669 C670 1.373 . S
C669 C671 1.389 . S
C670 H643 0.950 . S
C670 C656 1.377 . S
C670 C669 1.373 . S
C671 C655 1.377 . S
C671 C669 1.389 . S
C671 C672 1.524 . S
C672 C671 1.524 . S
C672 C673 1.397 . S
C672 C677 1.363 . S
C673 H644 0.950 . S
C673 C672 1.397 . S
C673 C674 1.334 . S
C674 H645 0.950 . S
C674 C673 1.334 . S
C674 C675 1.287 . S
C675 C674 1.287 . S
C675 C676 1.524 . S
C675 H678 0.999 . S
C676 H646 0.950 . S
C676 C675 1.524 . S
C676 C677 1.415 . S
C677 H647 0.950 . S
C677 C672 1.363 . S
C677 C676 1.415 . S
H678 C675 0.999 . S
H679 C660 0.913 . S
H680 C698 0.951 . S
H681 C700 0.951 . S
H682 C702 0.950 . S
H683 C703 0.950 . S
H684 C705 0.950 . S
H685 C708 0.950 . S
H686 C709 0.950 . S
H687 C711 0.950 . S
H688 C712 0.950 . S
H689 C713 0.951 . S
H690 C715 0.951 . S
H691 C717 0.950 . S
H692 C718 0.950 . S
H693 C720 0.950 . S
H694 C723 0.950 . S
H695 C724 0.950 . S
H696 C726 0.950 . S
H697 C727 0.950 . S
C698 H680 0.951 . S
C698 C699 1.366 . S
C698 C700 1.388 . S
C699 C698 1.366 . S
C699 C703 1.385 . S
C700 H681 0.951 . S
C700 C698 1.388 . S
C700 C701 1.366 . S
C701 C700 1.366 . S
C701 C702 1.414 . S
C701 C704 1.499 . S
C702 H682 0.950 . S
C702 C701 1.414 . S
C702 C703 1.374 . S
C703 H683 0.950 . S
C703 C699 1.385 . S
C703 C702 1.374 . S
C704 C701 1.499 . S
C704 C705 1.373 . S
C704 C706 1.389 . S
C705 H684 0.950 . S
C705 C704 1.373 . S
C705 C721 1.377 . S
C706 C704 1.389 . S
C706 C707 1.524 . S
C706 C720 1.377 . S
C707 C706 1.524 . S
C707 C708 1.397 . S
C707 C712 1.363 . S
C708 H685 0.950 . S
C708 C707 1.397 . S
C708 C709 1.334 . S
C709 H686 0.950 . S
C709 C708 1.334 . S
C709 C710 1.287 . S
C710 C709 1.287 . S
C710 C711 1.524 . S
C710 H729 0.913 . S
C711 H687 0.950 . S
C711 C710 1.524 . S
C711 C712 1.415 . S
C712 H688 0.950 . S
C712 C707 1.363 . S
C712 C711 1.415 . S
C713 H689 0.951 . S
C713 C714 1.366 . S
C713 C715 1.388 . S
C714 C713 1.366 . S
C714 C718 1.385 . S
C715 H690 0.951 . S
C715 C713 1.388 . S
C715 C716 1.366 . S
C716 C715 1.366 . S
C716 C717 1.414 . S
C716 C719 1.499 . S
C717 H691 0.950 . S
C717 C716 1.414 . S
C717 C718 1.374 . S
C718 H692 0.950 . S
C718 C714 1.385 . S
C718 C717 1.374 . S
C719 C716 1.499 . S
C719 C720 1.373 . S
C719 C721 1.389 . S
C720 H693 0.950 . S
C720 C706 1.377 . S
C720 C719 1.373 . S
C721 C705 1.377 . S
C721 C719 1.389 . S
C721 C722 1.524 . S
C722 C721 1.524 . S
C722 C723 1.397 . S
C722 C727 1.363 . S
C723 H694 0.950 . S
C723 C722 1.397 . S
C723 C724 1.334 . S
C724 H695 0.950 . S
C724 C723 1.334 . S
C724 C725 1.287 . S
C725 C724 1.287 . S
C725 C726 1.524 . S
C725 H728 0.999 . S
C726 H696 0.950 . S
C726 C725 1.524 . S
C726 C727 1.415 . S
C727 H697 0.950 . S
C727 C722 1.363 . S
C727 C726 1.415 . S
H728 C725 0.999 . S
H729 C710 0.913 . S
H730 C748 0.951 . S
H731 C750 0.951 . S
H732 C752 0.950 . S
H733 C753 0.950 . S
H734 C755 0.950 . S
H735 C758 0.950 . S
H736 C759 0.950 . S
H737 C761 0.950 . S
H738 C762 0.950 . S
H739 C763 0.951 . S
H740 C765 0.951 . S
H741 C767 0.950 . S
H742 C768 0.950 . S
H743 C770 0.950 . S
H744 C773 0.950 . S
H745 C774 0.950 . S
H746 C776 0.950 . S
H747 C777 0.950 . S
C748 H730 0.951 . S
C748 C749 1.366 . S
C748 C750 1.388 . S
C749 C748 1.366 . S
C749 C753 1.385 . S
C750 H731 0.951 . S
C750 C748 1.388 . S
C750 C751 1.366 . S
C751 C750 1.366 . S
C751 C752 1.414 . S
C751 C754 1.499 . S
C752 H732 0.950 . S
C752 C751 1.414 . S
C752 C753 1.374 . S
C753 H733 0.950 . S
C753 C749 1.385 . S
C753 C752 1.374 . S
C754 C751 1.499 . S
C754 C755 1.373 . S
C754 C756 1.389 . S
C755 H734 0.950 . S
C755 C754 1.373 . S
C755 C771 1.377 . S
C756 C754 1.389 . S
C756 C757 1.524 . S
C756 C770 1.377 . S
C757 C756 1.524 . S
C757 C758 1.397 . S
C757 C762 1.363 . S
C758 H735 0.950 . S
C758 C757 1.397 . S
C758 C759 1.334 . S
C759 H736 0.950 . S
C759 C758 1.334 . S
C759 C760 1.287 . S
C760 C759 1.287 . S
C760 C761 1.524 . S
C760 H779 0.913 . S
C761 H737 0.950 . S
C761 C760 1.524 . S
C761 C762 1.415 . S
C762 H738 0.950 . S
C762 C757 1.363 . S
C762 C761 1.415 . S
C763 H739 0.951 . S
C763 C764 1.366 . S
C763 C765 1.388 . S
C764 C763 1.366 . S
C764 C768 1.385 . S
C765 H740 0.951 . S
C765 C763 1.388 . S
C765 C766 1.366 . S
C766 C765 1.366 . S
C766 C767 1.414 . S
C766 C769 1.499 . S
C767 H741 0.950 . S
C767 C766 1.414 . S
C767 C768 1.374 . S
C768 H742 0.950 . S
C768 C764 1.385 . S
C768 C767 1.374 . S
C769 C766 1.499 . S
C769 C770 1.373 . S
C769 C771 1.389 . S
C770 H743 0.950 . S
C770 C756 1.377 . S
C770 C769 1.373 . S
C771 C755 1.377 . S
C771 C769 1.389 . S
C771 C772 1.524 . S
C772 C771 1.524 . S
C772 C773 1.397 . S
C772 C777 1.363 . S
C773 H744 0.950 . S
C773 C772 1.397 . S
C773 C774 1.334 . S
C774 H745 0.950 . S
C774 C773 1.334 . S
C774 C775 1.287 . S
C775 C774 1.287 . S
C775 C776 1.524 . S
C775 H778 0.999 . S
C776 H746 0.950 . S
C776 C775 1.524 . S
C776 C777 1.415 . S
C777 H747 0.950 . S
C777 C772 1.363 . S
C777 C776 1.415 . S
H778 C775 0.999 . S
H779 C760 0.913 . S
H780 C798 0.951 . S
H781 C800 0.951 . S
H782 C802 0.950 . S
H783 C803 0.950 . S
H784 C805 0.950 . S
H785 C808 0.950 . S
H786 C809 0.950 . S
H787 C811 0.950 . S
H788 C812 0.950 . S
H789 C813 0.951 . S
H790 C815 0.951 . S
H791 C817 0.950 . S
H792 C818 0.950 . S
H793 C820 0.950 . S
H794 C823 0.950 . S
H795 C824 0.950 . S
H796 C826 0.950 . S
H797 C827 0.950 . S
C798 H780 0.951 . S
C798 C799 1.366 . S
C798 C800 1.388 . S
C799 C798 1.366 . S
C799 C803 1.385 . S
C800 H781 0.951 . S
C800 C798 1.388 . S
C800 C801 1.366 . S
C801 C800 1.366 . S
C801 C802 1.414 . S
C801 C804 1.499 . S
C802 H782 0.950 . S
C802 C801 1.414 . S
C802 C803 1.374 . S
C803 H783 0.950 . S
C803 C799 1.385 . S
C803 C802 1.374 . S
C804 C801 1.499 . S
C804 C805 1.373 . S
C804 C806 1.389 . S
C805 H784 0.950 . S
C805 C804 1.373 . S
C805 C821 1.377 . S
C806 C804 1.389 . S
C806 C807 1.524 . S
C806 C820 1.377 . S
C807 C806 1.524 . S
C807 C808 1.397 . S
C807 C812 1.363 . S
C808 H785 0.950 . S
C808 C807 1.397 . S
C808 C809 1.334 . S
C809 H786 0.950 . S
C809 C808 1.334 . S
C809 C810 1.287 . S
C810 C809 1.287 . S
C810 C811 1.524 . S
C810 H829 0.913 . S
C811 H787 0.950 . S
C811 C810 1.524 . S
C811 C812 1.415 . S
C812 H788 0.950 . S
C812 C807 1.363 . S
C812 C811 1.415 . S
C813 H789 0.951 . S
C813 C814 1.366 . S
C813 C815 1.388 . S
C814 C813 1.366 . S
C814 C818 1.385 . S
C815 H790 0.951 . S
C815 C813 1.388 . S
C815 C816 1.366 . S
C816 C815 1.366 . S
C816 C817 1.414 . S
C816 C819 1.499 . S
C817 H791 0.950 . S
C817 C816 1.414 . S
C817 C818 1.374 . S
C818 H792 0.950 . S
C818 C814 1.385 . S
C818 C817 1.374 . S
C819 C816 1.499 . S
C819 C820 1.373 . S
C819 C821 1.389 . S
C820 H793 0.950 . S
C820 C806 1.377 . S
C820 C819 1.373 . S
C821 C805 1.377 . S
C821 C819 1.389 . S
C821 C822 1.524 . S
C822 C821 1.524 . S
C822 C823 1.397 . S
C822 C827 1.363 . S
C823 H794 0.950 . S
C823 C822 1.397 . S
C823 C824 1.334 . S
C824 H795 0.950 . S
C824 C823 1.334 . S
C824 C825 1.287 . S
C825 C824 1.287 . S
C825 C826 1.524 . S
C825 H828 0.999 . S
C826 H796 0.950 . S
C826 C825 1.524 . S
C826 C827 1.415 . S
C827 H797 0.950 . S
C827 C822 1.363 . S
C827 C826 1.415 . S
H828 C825 0.999 . S
H829 C810 0.913 . S
H830 C848 0.951 . S
H831 C850 0.951 . S
H832 C852 0.950 . S
H833 C853 0.950 . S
H834 C855 0.950 . S
H835 C858 0.950 . S
H836 C859 0.950 . S
H837 C861 0.950 . S
H838 C862 0.950 . S
H839 C863 0.951 . S
H840 C865 0.951 . S
H841 C867 0.950 . S
H842 C868 0.950 . S
H843 C870 0.950 . S
H844 C873 0.950 . S
H845 C874 0.950 . S
H846 C876 0.950 . S
H847 C877 0.950 . S
C848 H830 0.951 . S
C848 C849 1.366 . S
C848 C850 1.388 . S
C849 C848 1.366 . S
C849 C853 1.385 . S
C850 H831 0.951 . S
C850 C848 1.388 . S
C850 C851 1.366 . S
C851 C850 1.366 . S
C851 C852 1.414 . S
C851 C854 1.499 . S
C852 H832 0.950 . S
C852 C851 1.414 . S
C852 C853 1.374 . S
C853 H833 0.950 . S
C853 C849 1.385 . S
C853 C852 1.374 . S
C854 C851 1.499 . S
C854 C855 1.373 . S
C854 C856 1.389 . S
C855 H834 0.950 . S
C855 C854 1.373 . S
C855 C871 1.377 . S
C856 C854 1.389 . S
C856 C857 1.524 . S
C856 C870 1.377 . S
C857 C856 1.524 . S
C857 C858 1.397 . S
C857 C862 1.363 . S
C858 H835 0.950 . S
C858 C857 1.397 . S
C858 C859 1.334 . S
C859 H836 0.950 . S
C859 C858 1.334 . S
C859 C860 1.287 . S
C860 C859 1.287 . S
C860 C861 1.524 . S
C860 H879 0.913 . S
C861 H837 0.950 . S
C861 C860 1.524 . S
C861 C862 1.415 . S
C862 H838 0.950 . S
C862 C857 1.363 . S
C862 C861 1.415 . S
C863 H839 0.951 . S
C863 C864 1.366 . S
C863 C865 1.388 . S
C864 C863 1.366 . S
C864 C868 1.385 . S
C865 H840 0.951 . S
C865 C863 1.388 . S
C865 C866 1.366 . S
C866 C865 1.366 . S
C866 C867 1.414 . S
C866 C869 1.499 . S
C867 H841 0.950 . S
C867 C866 1.414 . S
C867 C868 1.374 . S
C868 H842 0.950 . S
C868 C864 1.385 . S
C868 C867 1.374 . S
C869 C866 1.499 . S
C869 C870 1.373 . S
C869 C871 1.389 . S
C870 H843 0.950 . S
C870 C856 1.377 . S
C870 C869 1.373 . S
C871 C855 1.377 . S
C871 C869 1.389 . S
C871 C872 1.524 . S
C872 C871 1.524 . S
C872 C873 1.397 . S
C872 C877 1.363 . S
C873 H844 0.950 . S
C873 C872 1.397 . S
C873 C874 1.334 . S
C874 H845 0.950 . S
C874 C873 1.334 . S
C874 C875 1.287 . S
C875 C874 1.287 . S
C875 C876 1.524 . S
C875 H878 0.999 . S
C876 H846 0.950 . S
C876 C875 1.524 . S
C876 C877 1.415 . S
C877 H847 0.950 . S
C877 C872 1.363 . S
C877 C876 1.415 . S
H878 C875 0.999 . S
H879 C860 0.913 . S
H880 C898 0.951 . S
H881 C900 0.951 . S
H882 C902 0.950 . S
H883 C903 0.950 . S
H884 C905 0.950 . S
H885 C908 0.950 . S
H886 C909 0.950 . S
H887 C911 0.950 . S
H888 C912 0.950 . S
H889 C913 0.951 . S
H890 C915 0.951 . S
H891 C917 0.950 . S
H892 C918 0.950 . S
H893 C920 0.950 . S
H894 C923 0.950 . S
H895 C924 0.950 . S
H896 C926 0.950 . S
H897 C927 0.950 . S
C898 H880 0.951 . S
C898 C899 1.366 . S
C898 C900 1.388 . S
C899 C898 1.366 . S
C899 C903 1.385 . S
C900 H881 0.951 . S
C900 C898 1.388 . S
C900 C901 1.366 . S
C901 C900 1.366 . S
C901 C902 1.414 . S
C901 C904 1.499 . S
C902 H882 0.950 . S
C902 C901 1.414 . S
C902 C903 1.374 . S
C903 H883 0.950 . S
C903 C899 1.385 . S
C903 C902 1.374 . S
C904 C901 1.499 . S
C904 C905 1.373 . S
C904 C906 1.389 . S
C905 H884 0.950 . S
C905 C904 1.373 . S
C905 C921 1.377 . S
C906 C904 1.389 . S
C906 C907 1.524 . S
C906 C920 1.377 . S
C907 C906 1.524 . S
C907 C908 1.397 . S
C907 C912 1.363 . S
C908 H885 0.950 . S
C908 C907 1.397 . S
C908 C909 1.334 . S
C909 H886 0.950 . S
C909 C908 1.334 . S
C909 C910 1.287 . S
C910 C909 1.287 . S
C910 C911 1.524 . S
C910 H929 0.913 . S
C911 H887 0.950 . S
C911 C910 1.524 . S
C911 C912 1.415 . S
C912 H888 0.950 . S
C912 C907 1.363 . S
C912 C911 1.415 . S
C913 H889 0.951 . S
C913 C914 1.366 . S
C913 C915 1.388 . S
C914 C913 1.366 . S
C914 C918 1.385 . S
C915 H890 0.951 . S
C915 C913 1.388 . S
C915 C916 1.366 . S
C916 C915 1.366 . S
C916 C917 1.414 . S
C916 C919 1.499 . S
C917 H891 0.950 . S
C917 C916 1.414 . S
C917 C918 1.374 . S
C918 H892 0.950 . S
C918 C914 1.385 . S
C918 C917 1.374 . S
C919 C916 1.499 . S
C919 C920 1.373 . S
C919 C921 1.389 . S
C920 H893 0.950 . S
C920 C906 1.377 . S
C920 C919 1.373 . S
C921 C905 1.377 . S
C921 C919 1.389 . S
C921 C922 1.524 . S
C922 C921 1.524 . S
C922 C923 1.397 . S
C922 C927 1.363 . S
C923 H894 0.950 . S
C923 C922 1.397 . S
C923 C924 1.334 . S
C924 H895 0.950 . S
C924 C923 1.334 . S
C924 C925 1.287 . S
C925 C924 1.287 . S
C925 C926 1.524 . S
C925 H928 0.999 . S
C926 H896 0.950 . S
C926 C925 1.524 . S
C926 C927 1.415 . S
C927 H897 0.950 . S
C927 C922 1.363 . S
C927 C926 1.415 . S
H928 C925 0.999 . S
H929 C910 0.913 . S
H930 C948 0.951 . S
H931 C950 0.951 . S
H932 C952 0.950 . S
H933 C953 0.950 . S
H934 C955 0.950 . S
H935 C958 0.950 . S
H936 C959 0.950 . S
H937 C961 0.950 . S
H938 C962 0.950 . S
H939 C963 0.951 . S
H940 C965 0.951 . S
H941 C967 0.950 . S
H942 C968 0.950 . S
H943 C970 0.950 . S
H944 C973 0.950 . S
H945 C974 0.950 . S
H946 C976 0.950 . S
H947 C977 0.950 . S
C948 H930 0.951 . S
C948 C949 1.366 . S
C948 C950 1.388 . S
C949 C948 1.366 . S
C949 C953 1.385 . S
C950 H931 0.951 . S
C950 C948 1.388 . S
C950 C951 1.366 . S
C951 C950 1.366 . S
C951 C952 1.414 . S
C951 C954 1.499 . S
C952 H932 0.950 . S
C952 C951 1.414 . S
C952 C953 1.374 . S
C953 H933 0.950 . S
C953 C949 1.385 . S
C953 C952 1.374 . S
C954 C951 1.499 . S
C954 C955 1.373 . S
C954 C956 1.389 . S
C955 H934 0.950 . S
C955 C954 1.373 . S
C955 C971 1.377 . S
C956 C954 1.389 . S
C956 C957 1.524 . S
C956 C970 1.377 . S
C957 C956 1.524 . S
C957 C958 1.397 . S
C957 C962 1.363 . S
C958 H935 0.950 . S
C958 C957 1.397 . S
C958 C959 1.334 . S
C959 H936 0.950 . S
C959 C958 1.334 . S
C959 C960 1.287 . S
C960 C959 1.287 . S
C960 C961 1.524 . S
C960 H979 0.913 . S
C961 H937 0.950 . S
C961 C960 1.524 . S
C961 C962 1.415 . S
C962 H938 0.950 . S
C962 C957 1.363 . S
C962 C961 1.415 . S
C963 H939 0.951 . S
C963 C964 1.366 . S
C963 C965 1.388 . S
C964 C963 1.366 . S
C964 C968 1.385 . S
C965 H940 0.951 . S
C965 C963 1.388 . S
C965 C966 1.366 . S
C966 C965 1.366 . S
C966 C967 1.414 . S
C966 C969 1.499 . S
C967 H941 0.950 . S
C967 C966 1.414 . S
C967 C968 1.374 . S
C968 H942 0.950 . S
C968 C964 1.385 . S
C968 C967 1.374 . S
C969 C966 1.499 . S
C969 C970 1.373 . S
C969 C971 1.389 . S
C970 H943 0.950 . S
C970 C956 1.377 . S
C970 C969 1.373 . S
C971 C955 1.377 . S
C971 C969 1.389 . S
C971 C972 1.524 . S
C972 C971 1.524 . S
C972 C973 1.397 . S
C972 C977 1.363 . S
C973 H944 0.950 . S
C973 C972 1.397 . S
C973 C974 1.334 . S
C974 H945 0.950 . S
C974 C973 1.334 . S
C974 C975 1.287 . S
C975 C974 1.287 . S
C975 C976 1.524 . S
C975 H978 0.999 . S
C976 H946 0.950 . S
C976 C975 1.524 . S
C976 C977 1.415 . S
C977 H947 0.950 . S
C977 C972 1.363 . S
C977 C976 1.415 . S
H978 C975 0.999 . S
H979 C960 0.913 . S
H980 C998 0.951 . S
H981 C1000 0.951 . S
H982 C1002 0.950 . S
H983 C1003 0.950 . S
H984 C1005 0.950 . S
H985 C1008 0.950 . S
H986 C1009 0.950 . S
H987 C1011 0.950 . S
H988 C1012 0.950 . S
H989 C1013 0.951 . S
H990 C1015 0.951 . S
H991 C1017 0.950 . S
H992 C1018 0.950 . S
H993 C1020 0.950 . S
H994 C1023 0.950 . S
H995 C1024 0.950 . S
H996 C1026 0.950 . S
H997 C1027 0.950 . S
C998 H980 0.951 . S
C998 C999 1.366 . S
C998 C1000 1.388 . S
C999 C998 1.366 . S
C999 C1003 1.385 . S
C1000 H981 0.951 . S
C1000 C998 1.388 . S
C1000 C1001 1.366 . S
C1001 C1000 1.366 . S
C1001 C1002 1.414 . S
C1001 C1004 1.499 . S
C1002 H982 0.950 . S
C1002 C1001 1.414 . S
C1002 C1003 1.374 . S
C1003 H983 0.950 . S
C1003 C999 1.385 . S
C1003 C1002 1.374 . S
C1004 C1001 1.499 . S
C1004 C1005 1.373 . S
C1004 C1006 1.389 . S
C1005 H984 0.950 . S
C1005 C1004 1.373 . S
C1005 C1021 1.377 . S
C1006 C1004 1.389 . S
C1006 C1007 1.524 . S
C1006 C1020 1.377 . S
C1007 C1006 1.524 . S
C1007 C1008 1.397 . S
C1007 C1012 1.363 . S
C1008 H985 0.950 . S
C1008 C1007 1.397 . S
C1008 C1009 1.334 . S
C1009 H986 0.950 . S
C1009 C1008 1.334 . S
C1009 C1010 1.287 . S
C1010 C1009 1.287 . S
C1010 C1011 1.524 . S
C1010 H1029 0.913 . S
C1011 H987 0.950 . S
C1011 C1010 1.524 . S
C1011 C1012 1.415 . S
C1012 H988 0.950 . S
C1012 C1007 1.363 . S
C1012 C1011 1.415 . S
C1013 H989 0.951 . S
C1013 C1014 1.366 . S
C1013 C1015 1.388 . S
C1014 C1013 1.366 . S
C1014 C1018 1.385 . S
C1015 H990 0.951 . S
C1015 C1013 1.388 . S
C1015 C1016 1.366 . S
C1016 C1015 1.366 . S
C1016 C1017 1.414 . S
C1016 C1019 1.499 . S
C1017 H991 0.950 . S
C1017 C1016 1.414 . S
C1017 C1018 1.374 . S
C1018 H992 0.950 . S
C1018 C1014 1.385 . S
C1018 C1017 1.374 . S
C1019 C1016 1.499 . S
C1019 C1020 1.373 . S
C1019 C1021 1.389 . S
C1020 H993 0.950 . S
C1020 C1006 1.377 . S
C1020 C1019 1.373 . S
C1021 C1005 1.377 . S
C1021 C1019 1.389 . S
C1021 C1022 1.524 . S
C1022 C1021 1.524 . S
C1022 C1023 1.397 . S
C1022 C1027 1.363 . S
C1023 H994 0.950 . S
C1023 C1022 1.397 . S
C1023 C1024 1.334 . S
C1024 H995 0.950 . S
C1024 C1023 1.334 . S
C1024 C1025 1.287 . S
C1025 C1024 1.287 . S
C1025 C1026 1.524 . S
C1025 H1028 0.999 . S
C1026 H996 0.950 . S
C1026 C1025 1.524 . S
C1026 C1027 1.415 . S
C1027 H997 0.950 . S
C1027 C1022 1.363 . S
C1027 C1026 1.415 . S
H1028 C1025 0.999 . S
H1029 C1010 0.913 . S
H1030 C1048 0.951 . S
H1031 C1050 0.951 . S
H1032 C1052 0.950 . S
H1033 C1053 0.950 . S
H1034 C1055 0.950 . S
H1035 C1058 0.950 . S
H1036 C1059 0.950 . S
H1037 C1061 0.950 . S
H1038 C1062 0.950 . S
H1039 C1063 0.951 . S
H1040 C1065 0.951 . S
H1041 C1067 0.950 . S
H1042 C1068 0.950 . S
H1043 C1070 0.950 . S
H1044 C1073 0.950 . S
H1045 C1074 0.950 . S
H1046 C1076 0.950 . S
H1047 C1077 0.950 . S
C1048 H1030 0.951 . S
C1048 C1049 1.366 . S
C1048 C1050 1.388 . S
C1049 C1048 1.366 . S
C1049 C1053 1.385 . S
C1050 H1031 0.951 . S
C1050 C1048 1.388 . S
C1050 C1051 1.366 . S
C1051 C1050 1.366 . S
C1051 C1052 1.414 . S
C1051 C1054 1.499 . S
C1052 H1032 0.950 . S
C1052 C1051 1.414 . S
C1052 C1053 1.374 . S
C1053 H1033 0.950 . S
C1053 C1049 1.385 . S
C1053 C1052 1.374 . S
C1054 C1051 1.499 . S
C1054 C1055 1.373 . S
C1054 C1056 1.389 . S
C1055 H1034 0.950 . S
C1055 C1054 1.373 . S
C1055 C1071 1.377 . S
C1056 C1054 1.389 . S
C1056 C1057 1.524 . S
C1056 C1070 1.377 . S
C1057 C1056 1.524 . S
C1057 C1058 1.397 . S
C1057 C1062 1.363 . S
C1058 H1035 0.950 . S
C1058 C1057 1.397 . S
C1058 C1059 1.334 . S
C1059 H1036 0.950 . S
C1059 C1058 1.334 . S
C1059 C1060 1.287 . S
C1060 C1059 1.287 . S
C1060 C1061 1.524 . S
C1060 H1079 0.913 . S
C1061 H1037 0.950 . S
C1061 C1060 1.524 . S
C1061 C1062 1.415 . S
C1062 H1038 0.950 . S
C1062 C1057 1.363 . S
C1062 C1061 1.415 . S
C1063 H1039 0.951 . S
C1063 C1064 1.366 . S
C1063 C1065 1.388 . S
C1064 C1063 1.366 . S
C1064 C1068 1.385 . S
C1065 H1040 0.951 . S
C1065 C1063 1.388 . S
C1065 C1066 1.366 . S
C1066 C1065 1.366 . S
C1066 C1067 1.414 . S
C1066 C1069 1.499 . S
C1067 H1041 0.950 . S
C1067 C1066 1.414 . S
C1067 C1068 1.374 . S
C1068 H1042 0.950 . S
C1068 C1064 1.385 . S
C1068 C1067 1.374 . S
C1069 C1066 1.499 . S
C1069 C1070 1.373 . S
C1069 C1071 1.389 . S
C1070 H1043 0.950 . S
C1070 C1056 1.377 . S
C1070 C1069 1.373 . S
C1071 C1055 1.377 . S
C1071 C1069 1.389 . S
C1071 C1072 1.524 . S
C1072 C1071 1.524 . S
C1072 C1073 1.397 . S
C1072 C1077 1.363 . S
C1073 H1044 0.950 . S
C1073 C1072 1.397 . S
C1073 C1074 1.334 . S
C1074 H1045 0.950 . S
C1074 C1073 1.334 . S
C1074 C1075 1.287 . S
C1075 C1074 1.287 . S
C1075 C1076 1.524 . S
C1075 H1078 0.999 . S
C1076 H1046 0.950 . S
C1076 C1075 1.524 . S
C1076 C1077 1.415 . S
C1077 H1047 0.950 . S
C1077 C1072 1.363 . S
C1077 C1076 1.415 . S
H1078 C1075 0.999 . S
H1079 C1060 0.913 . S
H1080 C1098 0.951 . S
H1081 C1100 0.951 . S
H1082 C1102 0.947 1_655 S
H1083 C1103 0.969 . S
H1084 C1105 0.950 1_655 S
H1085 C1108 0.950 . S
H1086 C1109 0.950 . S
H1087 C1111 0.950 . S
H1088 C1112 0.950 . S
H1089 C1113 0.951 1_655 S
H1090 C1115 0.951 1_655 S
H1091 C1117 0.950 . S
H1092 C1118 0.950 . S
H1093 C1120 0.950 . S
H1094 C1123 0.950 . S
H1095 C1124 0.950 1_456 S
H1096 C1126 0.950 . S
H1097 C1127 0.950 . S
C1098 H1080 0.951 . S
C1098 C1099 1.366 . S
C1098 C1100 1.388 . S
C1099 C1098 1.366 . S
C1099 C1103 1.365 1_455 S
C1100 H1081 0.951 . S
C1100 C1098 1.388 . S
C1100 C1101 1.366 . S
C1101 C1100 1.366 . S
C1101 C1102 1.417 . S
C1101 C1104 1.499 . S
C1102 H1082 0.947 1_455 S
C1102 C1101 1.417 . S
C1102 C1103 1.375 1_455 S
C1103 H1083 0.969 . S
C1103 C1099 1.365 1_655 S
C1103 C1102 1.375 1_655 S
C1104 C1101 1.499 . S
C1104 C1105 1.373 . S
C1104 C1106 1.389 . S
C1105 H1084 0.950 1_455 S
C1105 C1104 1.373 . S
C1105 C1121 1.377 . S
C1106 C1104 1.389 . S
C1106 C1107 1.524 . S
C1106 C1120 1.377 . S
C1107 C1106 1.524 . S
C1107 C1108 1.397 . S
C1107 C1112 1.363 . S
C1108 H1085 0.950 . S
C1108 C1107 1.397 . S
C1108 C1109 1.334 . S
C1109 H1086 0.950 . S
C1109 C1108 1.334 . S
C1109 C1110 1.287 . S
C1110 C1109 1.287 . S
C1110 C1111 1.524 . S
C1110 H1129 0.913 . S
C1111 H1087 0.950 . S
C1111 C1110 1.524 . S
C1111 C1112 1.415 . S
C1112 H1088 0.950 . S
C1112 C1107 1.363 . S
C1112 C1111 1.415 . S
C1113 H1089 0.951 1_455 S
C1113 C1114 1.366 . S
C1113 C1115 1.388 1_556 S
C1114 C1113 1.366 . S
C1114 C1118 1.385 . S
C1115 H1090 0.951 1_455 S
C1115 C1113 1.388 1_554 S
C1115 C1116 1.366 . S
C1116 C1115 1.366 . S
C1116 C1117 1.414 . S
C1116 C1119 1.499 . S
C1117 H1091 0.950 . S
C1117 C1116 1.414 . S
C1117 C1118 1.374 1_554 S
C1118 H1092 0.950 . S
C1118 C1114 1.385 . S
C1118 C1117 1.374 1_556 S
C1119 C1116 1.499 . S
C1119 C1120 1.373 . S
C1119 C1121 1.389 . S
C1120 H1093 0.950 . S
C1120 C1106 1.377 . S
C1120 C1119 1.373 . S
C1121 C1105 1.377 . S
C1121 C1119 1.389 . S
C1121 C1122 1.524 1_455 S
C1122 C1121 1.524 1_655 S
C1122 C1123 1.397 1_655 S
C1122 C1127 1.363 . S
C1123 H1094 0.950 . S
C1123 C1122 1.397 1_455 S
C1123 C1124 1.334 1_455 S
C1124 H1095 0.950 1_654 S
C1124 C1123 1.334 1_655 S
C1124 C1125 1.287 . S
C1125 C1124 1.287 . S
C1125 C1126 1.524 . S
C1125 H1128 0.999 . S
C1126 H1096 0.950 . S
C1126 C1125 1.524 . S
C1126 C1127 1.415 . S
C1127 H1097 0.950 . S
C1127 C1122 1.363 . S
C1127 C1126 1.415 . S
H1128 C1125 0.999 . S
H1129 C1110 0.913 . S
H1130 C1148 0.951 1_565 S
H1131 C1150 0.951 1_565 S
H1132 C1152 0.950 . S
H1133 C1153 0.950 . S
H1134 C1155 0.950 . S
H1135 C1158 0.950 . S
H1136 C1159 0.950 . S
H1137 C1161 0.950 . S
H1138 C1162 0.950 . S
H1139 C1163 0.951 . S
H1140 C1165 0.951 . S
H1141 C1167 0.950 1_565 S
H1142 C1168 0.950 1_565 S
H1143 C1170 0.953 . S
H1144 C1173 0.950 . S
H1145 C1174 0.950 . S
H1146 C1176 0.950 . S
H1147 C1177 0.950 . S
C1148 H1130 0.951 1_545 S
C1148 C1149 1.366 . S
C1148 C1150 1.388 . S
C1149 C1148 1.366 . S
C1149 C1153 1.385 . S
C1150 H1131 0.951 1_545 S
C1150 C1148 1.388 . S
C1150 C1151 1.366 . S
C1151 C1150 1.366 . S
C1151 C1152 1.414 . S
C1151 C1154 1.499 . S
C1152 H1132 0.950 . S
C1152 C1151 1.414 . S
C1152 C1153 1.374 . S
C1153 H1133 0.950 . S
C1153 C1149 1.385 . S
C1153 C1152 1.374 . S
C1154 C1151 1.499 . S
C1154 C1155 1.373 . S
C1154 C1156 1.389 1_545 S
C1155 H1134 0.950 . S
C1155 C1154 1.373 . S
C1155 C1171 1.377 . S
C1156 C1154 1.389 1_565 S
C1156 C1157 1.524 . S
C1156 C1170 1.377 . S
C1157 C1156 1.524 . S
C1157 C1158 1.397 . S
C1157 C1162 1.363 . S
C1158 H1135 0.950 . S
C1158 C1157 1.397 . S
C1158 C1159 1.334 . S
C1159 H1136 0.950 . S
C1159 C1158 1.334 . S
C1159 C1160 1.287 . S
C1160 C1159 1.287 . S
C1160 C1161 1.524 . S
C1160 H1179 0.913 . S
C1161 H1137 0.950 . S
C1161 C1160 1.524 . S
C1161 C1162 1.415 . S
C1162 H1138 0.950 . S
C1162 C1157 1.363 . S
C1162 C1161 1.415 . S
C1163 H1139 0.951 . S
C1163 C1164 1.366 . S
C1163 C1165 1.388 . S
C1164 C1163 1.366 . S
C1164 C1168 1.385 . S
C1165 H1140 0.951 . S
C1165 C1163 1.388 . S
C1165 C1166 1.366 . S
C1166 C1165 1.366 . S
C1166 C1167 1.414 . S
C1166 C1169 1.499 . S
C1167 H1141 0.950 1_545 S
C1167 C1166 1.414 . S
C1167 C1168 1.374 . S
C1168 H1142 0.950 1_545 S
C1168 C1164 1.385 . S
C1168 C1167 1.374 . S
C1169 C1166 1.499 . S
C1169 C1170 1.370 1_545 S
C1169 C1171 1.389 . S
C1170 H1143 0.953 . S
C1170 C1156 1.377 . S
C1170 C1169 1.370 1_565 S
C1171 C1155 1.377 . S
C1171 C1169 1.389 . S
C1171 C1172 1.524 . S
C1172 C1171 1.524 . S
C1172 C1173 1.397 . S
C1172 C1177 1.363 . S
C1173 H1144 0.950 . S
C1173 C1172 1.397 . S
C1173 C1174 1.334 . S
C1174 H1145 0.950 . S
C1174 C1173 1.334 . S
C1174 C1175 1.287 . S
C1175 C1174 1.287 . S
C1175 C1176 1.524 . S
C1175 H1178 0.999 . S
C1176 H1146 0.950 . S
C1176 C1175 1.524 . S
C1176 C1177 1.415 . S
C1177 H1147 0.950 . S
C1177 C1172 1.363 . S
C1177 C1176 1.415 . S
H1178 C1175 0.999 . S
H1179 C1160 0.913 . S
H1180 C1198 0.951 . S
H1181 C1200 0.951 . S
H1182 C1202 0.950 . S
H1183 C1203 0.950 . S
H1184 C1205 0.950 . S
H1185 C1208 0.950 . S
H1186 C1209 0.950 . S
H1187 C1211 0.950 . S
H1188 C1212 0.950 . S
H1189 C1213 0.951 . S
H1190 C1215 0.951 . S
H1191 C1217 0.950 . S
H1192 C1218 0.950 . S
H1193 C1220 0.950 . S
H1194 C1223 0.950 . S
H1195 C1224 0.950 . S
H1196 C1226 0.950 . S
H1197 C1227 0.950 . S
C1198 H1180 0.951 . S
C1198 C1199 1.366 . S
C1198 C1200 1.388 . S
C1199 C1198 1.366 . S
C1199 C1203 1.385 . S
C1200 H1181 0.951 . S
C1200 C1198 1.388 . S
C1200 C1201 1.366 . S
C1201 C1200 1.366 . S
C1201 C1202 1.414 . S
C1201 C1204 1.499 . S
C1202 H1182 0.950 . S
C1202 C1201 1.414 . S
C1202 C1203 1.374 . S
C1203 H1183 0.950 . S
C1203 C1199 1.385 . S
C1203 C1202 1.374 . S
C1204 C1201 1.499 . S
C1204 C1205 1.373 . S
C1204 C1206 1.389 . S
C1205 H1184 0.950 . S
C1205 C1204 1.373 . S
C1205 C1221 1.377 . S
C1206 C1204 1.389 . S
C1206 C1207 1.524 . S
C1206 C1220 1.377 . S
C1207 C1206 1.524 . S
C1207 C1208 1.397 . S
C1207 C1212 1.363 . S
C1208 H1185 0.950 . S
C1208 C1207 1.397 . S
C1208 C1209 1.334 . S
C1209 H1186 0.950 . S
C1209 C1208 1.334 . S
C1209 C1210 1.287 . S
C1210 C1209 1.287 . S
C1210 C1211 1.524 . S
C1210 H1229 0.913 . S
C1211 H1187 0.950 . S
C1211 C1210 1.524 . S
C1211 C1212 1.415 . S
C1212 H1188 0.950 . S
C1212 C1207 1.363 . S
C1212 C1211 1.415 . S
C1213 H1189 0.951 . S
C1213 C1214 1.366 . S
C1213 C1215 1.388 . S
C1214 C1213 1.366 . S
C1214 C1218 1.385 . S
C1215 H1190 0.951 . S
C1215 C1213 1.388 . S
C1215 C1216 1.366 . S
C1216 C1215 1.366 . S
C1216 C1217 1.414 . S
C1216 C1219 1.499 . S
C1217 H1191 0.950 . S
C1217 C1216 1.414 . S
C1217 C1218 1.374 . S
C1218 H1192 0.950 . S
C1218 C1214 1.385 . S
C1218 C1217 1.374 . S
C1219 C1216 1.499 . S
C1219 C1220 1.373 . S
C1219 C1221 1.389 . S
C1220 H1193 0.950 . S
C1220 C1206 1.377 . S
C1220 C1219 1.373 . S
C1221 C1205 1.377 . S
C1221 C1219 1.389 . S
C1221 C1222 1.524 . S
C1222 C1221 1.524 . S
C1222 C1223 1.397 . S
C1222 C1227 1.363 . S
C1223 H1194 0.950 . S
C1223 C1222 1.397 . S
C1223 C1224 1.334 . S
C1224 H1195 0.950 . S
C1224 C1223 1.334 . S
C1224 C1225 1.287 . S
C1225 C1224 1.287 . S
C1225 C1226 1.524 . S
C1225 H1228 0.999 . S
C1226 H1196 0.950 . S
C1226 C1225 1.524 . S
C1226 C1227 1.415 . S
C1227 H1197 0.950 . S
C1227 C1222 1.363 . S
C1227 C1226 1.415 . S
H1228 C1225 0.999 . S
H1229 C1210 0.913 . S
H1230 C1248 0.951 . S
H1231 C1250 0.951 . S
H1232 C1252 0.950 . S
H1233 C1253 0.950 . S
H1234 C1255 0.953 1_565 S
H1235 C1258 0.950 . S
H1236 C1259 0.950 . S
H1237 C1261 0.950 . S
H1238 C1262 0.950 . S
H1239 C1263 0.951 . S
H1240 C1265 0.951 . S
H1241 C1267 0.950 . S
H1242 C1268 0.950 . S
H1243 C1270 0.950 . S
H1244 C1273 0.950 . S
H1245 C1274 0.950 . S
H1246 C1276 0.950 . S
H1247 C1277 0.950 . S
C1248 H1230 0.951 . S
C1248 C1249 1.366 . S
C1248 C1250 1.388 . S
C1249 C1248 1.366 . S
C1249 C1253 1.385 1_545 S
C1250 H1231 0.951 . S
C1250 C1248 1.388 . S
C1250 C1251 1.366 . S
C1251 C1250 1.366 . S
C1251 C1252 1.414 1_545 S
C1251 C1254 1.499 . S
C1252 H1232 0.950 . S
C1252 C1251 1.414 1_565 S
C1252 C1253 1.374 . S
C1253 H1233 0.950 . S
C1253 C1249 1.385 1_565 S
C1253 C1252 1.374 . S
C1254 C1251 1.499 . S
C1254 C1255 1.373 . S
C1254 C1256 1.389 . S
C1255 H1234 0.953 1_545 S
C1255 C1254 1.373 . S
C1255 C1271 1.377 . S
C1256 C1254 1.389 . S
C1256 C1257 1.524 . S
C1256 C1270 1.377 . S
C1257 C1256 1.524 . S
C1257 C1258 1.397 1_545 S
C1257 C1262 1.363 . S
C1258 H1235 0.950 . S
C1258 C1257 1.397 1_565 S
C1258 C1259 1.334 . S
C1259 H1236 0.950 . S
C1259 C1258 1.334 . S
C1259 C1260 1.287 1_565 S
C1260 C1259 1.287 1_545 S
C1260 C1261 1.524 . S
C1260 H1279 0.913 . S
C1261 H1237 0.950 . S
C1261 C1260 1.524 . S
C1261 C1262 1.415 . S
C1262 H1238 0.950 . S
C1262 C1257 1.363 . S
C1262 C1261 1.415 . S
C1263 H1239 0.951 . S
C1263 C1264 1.366 1_565 S
C1263 C1265 1.388 . S
C1264 C1263 1.366 1_545 S
C1264 C1268 1.385 . S
C1265 H1240 0.951 . S
C1265 C1263 1.388 . S
C1265 C1266 1.366 1_565 S
C1266 C1265 1.366 1_545 S
C1266 C1267 1.414 . S
C1266 C1269 1.499 . S
C1267 H1241 0.950 . S
C1267 C1266 1.414 . S
C1267 C1268 1.374 . S
C1268 H1242 0.950 . S
C1268 C1264 1.385 . S
C1268 C1267 1.374 . S
C1269 C1266 1.499 . S
C1269 C1270 1.373 . S
C1269 C1271 1.389 . S
C1270 H1243 0.950 . S
C1270 C1256 1.377 . S
C1270 C1269 1.373 . S
C1271 C1255 1.377 . S
C1271 C1269 1.389 . S
C1271 C1272 1.524 . S
C1272 C1271 1.524 . S
C1272 C1273 1.397 . S
C1272 C1277 1.363 1_545 S
C1273 H1244 0.950 . S
C1273 C1272 1.397 . S
C1273 C1274 1.334 . S
C1274 H1245 0.950 . S
C1274 C1273 1.334 . S
C1274 C1275 1.287 . S
C1275 C1274 1.287 . S
C1275 C1276 1.524 1_545 S
C1275 H1278 0.999 . S
C1276 H1246 0.950 . S
C1276 C1275 1.524 1_565 S
C1276 C1277 1.415 . S
C1277 H1247 0.950 . S
C1277 C1272 1.363 1_565 S
C1277 C1276 1.415 . S
H1278 C1275 0.999 . S
H1279 C1260 0.913 . S
H1280 C1298 0.951 . S
H1281 C1300 0.951 . S
H1282 C1302 0.950 . S
H1283 C1303 0.950 . S
H1284 C1305 0.950 . S
H1285 C1308 0.950 . S
H1286 C1309 0.950 . S
H1287 C1311 0.950 . S
H1288 C1312 0.950 . S
H1289 C1313 0.951 . S
H1290 C1315 0.951 . S
H1291 C1317 0.950 . S
H1292 C1318 0.950 . S
H1293 C1320 0.950 . S
H1294 C1323 0.950 . S
H1295 C1324 0.950 . S
H1296 C1326 0.950 . S
H1297 C1327 0.950 . S
C1298 H1280 0.951 . S
C1298 C1299 1.366 . S
C1298 C1300 1.388 . S
C1299 C1298 1.366 . S
C1299 C1303 1.385 . S
C1300 H1281 0.951 . S
C1300 C1298 1.388 . S
C1300 C1301 1.366 . S
C1301 C1300 1.366 . S
C1301 C1302 1.414 . S
C1301 C1304 1.499 . S
C1302 H1282 0.950 . S
C1302 C1301 1.414 . S
C1302 C1303 1.374 . S
C1303 H1283 0.950 . S
C1303 C1299 1.385 . S
C1303 C1302 1.374 . S
C1304 C1301 1.499 . S
C1304 C1305 1.373 . S
C1304 C1306 1.389 . S
C1305 H1284 0.950 . S
C1305 C1304 1.373 . S
C1305 C1321 1.377 . S
C1306 C1304 1.389 . S
C1306 C1307 1.524 . S
C1306 C1320 1.377 . S
C1307 C1306 1.524 . S
C1307 C1308 1.397 . S
C1307 C1312 1.363 . S
C1308 H1285 0.950 . S
C1308 C1307 1.397 . S
C1308 C1309 1.334 . S
C1309 H1286 0.950 . S
C1309 C1308 1.334 . S
C1309 C1310 1.287 . S
C1310 C1309 1.287 . S
C1310 C1311 1.524 . S
C1310 H1329 0.913 . S
C1311 H1287 0.950 . S
C1311 C1310 1.524 . S
C1311 C1312 1.415 . S
C1312 H1288 0.950 . S
C1312 C1307 1.363 . S
C1312 C1311 1.415 . S
C1313 H1289 0.951 . S
C1313 C1314 1.366 . S
C1313 C1315 1.388 1_554 S
C1314 C1313 1.366 . S
C1314 C1318 1.385 . S
C1315 H1290 0.951 . S
C1315 C1313 1.388 1_556 S
C1315 C1316 1.366 . S
C1316 C1315 1.366 . S
C1316 C1317 1.414 . S
C1316 C1319 1.499 . S
C1317 H1291 0.950 . S
C1317 C1316 1.414 . S
C1317 C1318 1.374 1_556 S
C1318 H1292 0.950 . S
C1318 C1314 1.385 . S
C1318 C1317 1.374 1_554 S
C1319 C1316 1.499 . S
C1319 C1320 1.373 . S
C1319 C1321 1.389 . S
C1320 H1293 0.950 . S
C1320 C1306 1.377 . S
C1320 C1319 1.373 . S
C1321 C1305 1.377 . S
C1321 C1319 1.389 . S
C1321 C1322 1.524 . S
C1322 C1321 1.524 . S
C1322 C1323 1.397 . S
C1322 C1327 1.363 . S
C1323 H1294 0.950 . S
C1323 C1322 1.397 . S
C1323 C1324 1.334 . S
C1324 H1295 0.950 . S
C1324 C1323 1.334 . S
C1324 C1325 1.287 . S
C1325 C1324 1.287 . S
C1325 C1326 1.524 . S
C1325 H1328 0.999 . S
C1326 H1296 0.950 . S
C1326 C1325 1.524 . S
C1326 C1327 1.415 . S
C1327 H1297 0.950 . S
C1327 C1322 1.363 . S
C1327 C1326 1.415 . S
H1328 C1325 0.999 . S
H1329 C1310 0.913 . S
H1330 C1348 0.951 1_655 S
H1331 C1350 0.951 1_655 S
H1332 C1352 0.950 . S
H1333 C1353 0.950 . S
H1334 C1355 0.950 . S
H1335 C1358 0.950 . S
H1336 C1359 0.950 . S
H1337 C1361 0.950 . S
H1338 C1362 0.950 . S
H1339 C1363 0.951 . S
H1340 C1365 0.951 . S
H1341 C1367 0.950 . S
H1342 C1368 0.950 . S
H1343 C1370 0.950 . S
H1344 C1373 0.950 . S
H1345 C1374 0.950 . S
H1346 C1376 0.950 . S
H1347 C1377 0.950 . S
C1348 H1330 0.951 1_455 S
C1348 C1349 1.366 . S
C1348 C1350 1.388 . S
C1349 C1348 1.366 . S
C1349 C1353 1.385 . S
C1350 H1331 0.951 1_455 S
C1350 C1348 1.388 . S
C1350 C1351 1.366 . S
C1351 C1350 1.366 . S
C1351 C1352 1.414 . S
C1351 C1354 1.499 . S
C1352 H1332 0.950 . S
C1352 C1351 1.414 . S
C1352 C1353 1.374 . S
C1353 H1333 0.950 . S
C1353 C1349 1.385 . S
C1353 C1352 1.374 . S
C1354 C1351 1.499 . S
C1354 C1355 1.373 . S
C1354 C1356 1.389 1_455 S
C1355 H1334 0.950 . S
C1355 C1354 1.373 . S
C1355 C1371 1.377 . S
C1356 C1354 1.389 1_655 S
C1356 C1357 1.524 . S
C1356 C1370 1.377 . S
C1357 C1356 1.524 . S
C1357 C1358 1.397 . S
C1357 C1362 1.363 . S
C1358 H1335 0.950 . S
C1358 C1357 1.397 . S
C1358 C1359 1.334 . S
C1359 H1336 0.950 . S
C1359 C1358 1.334 . S
C1359 C1360 1.287 . S
C1360 C1359 1.287 . S
C1360 C1361 1.524 . S
C1360 H1379 0.913 . S
C1361 H1337 0.950 . S
C1361 C1360 1.524 . S
C1361 C1362 1.415 . S
C1362 H1338 0.950 . S
C1362 C1357 1.363 . S
C1362 C1361 1.415 . S
C1363 H1339 0.951 . S
C1363 C1364 1.366 . S
C1363 C1365 1.388 . S
C1364 C1363 1.366 . S
C1364 C1368 1.387 1_455 S
C1365 H1340 0.951 . S
C1365 C1363 1.388 . S
C1365 C1366 1.366 . S
C1366 C1365 1.366 . S
C1366 C1367 1.414 1_455 S
C1366 C1369 1.499 . S
C1367 H1341 0.950 . S
C1367 C1366 1.414 1_655 S
C1367 C1368 1.374 . S
C1368 H1342 0.950 . S
C1368 C1364 1.387 1_655 S
C1368 C1367 1.374 . S
C1369 C1366 1.499 . S
C1369 C1370 1.373 1_455 S
C1369 C1371 1.389 . S
C1370 H1343 0.950 . S
C1370 C1356 1.377 . S
C1370 C1369 1.373 1_655 S
C1371 C1355 1.377 . S
C1371 C1369 1.389 . S
C1371 C1372 1.524 . S
C1372 C1371 1.524 . S
C1372 C1373 1.397 . S
C1372 C1377 1.363 . S
C1373 H1344 0.950 . S
C1373 C1372 1.397 . S
C1373 C1374 1.334 . S
C1374 H1345 0.950 . S
C1374 C1373 1.334 . S
C1374 C1375 1.287 . S
C1375 C1374 1.287 . S
C1375 C1376 1.524 . S
C1375 H1378 0.999 . S
C1376 H1346 0.950 . S
C1376 C1375 1.524 . S
C1376 C1377 1.415 . S
C1377 H1347 0.950 . S
C1377 C1372 1.363 . S
C1377 C1376 1.415 . S
H1378 C1375 0.999 . S
H1379 C1360 0.913 . S
C499 C10 3.066 . S
C514 C451 3.063 . S
C549 C55 1.146 . S
C564 C301 1.114 . S
C599 C90 1.835 . S
C614 C361 1.725 . S
C649 C19 2.909 . S
C664 C421 2.788 . S
C714 C331 1.276 . S
C699 C46 1.255 . S
C764 C391 2.030 . S
C749 C99 2.006 . S
C799 C50 1.848 . S
C814 C181 1.732 . S
C849 C95 0.476 . S
C864 C271 0.419 . S
C899 C6 1.296 . S
C914 C151 1.309 . S
C964 C211 1.989 . S
C949 C59 1.974 . S
C1014 C241 0.411 . S
C999 C86 0.348 . S
C1049 C15 1.169 . S
C1064 C121 1.140 . S
C1114 C260 1.112 . S
C1099 C18 1.102 . S
C1149 C49 1.450 . S
C1164 C140 1.468 . S
C1199 C98 1.338 . S
C1214 C200 1.350 . S
C1264 C380 1.355 . S
C1249 C58 1.338 . S
C1314 C440 1.740 . S
C1299 C89 1.695 . S
C1349 C9 1.454 . S
C1364 C320 1.482 . S
