# Generated by pormake.
# Topology pyr, (3,6)-cn, num edge types: 1
# Building blocks:
#     Node 0, Type 0, BuildingBlock: MIDCAF_clean_linker_0, # of connection points: 3
#     Node 1, Type 0, BuildingBlock: MIDCAF_clean_linker_0, # of connection points: 3
#     Node 2, Type 0, BuildingBlock: MIDCAF_clean_linker_0, # of connection points: 3
#     Node 3, Type 0, BuildingBlock: MIDCAF_clean_linker_0, # of connection points: 3
#     Node 4, Type 0, BuildingBlock: MIDCAF_clean_linker_0, # of connection points: 3
#     Node 5, Type 0, BuildingBlock: MIDCAF_clean_linker_0, # of connection points: 3
#     Node 6, Type 0, BuildingBlock: MIDCAF_clean_linker_0, # of connection points: 3
#     Node 7, Type 0, BuildingBlock: MIDCAF_clean_linker_0, # of connection points: 3
#     Node 8, Type 1, BuildingBlock: GEDQOX_clean_sbu_0, # of connection points: 6
#     Node 9, Type 1, BuildingBlock: GEDQOX_clean_sbu_0, # of connection points: 6
#     Node 10, Type 1, BuildingBlock: GEDQOX_clean_sbu_0, # of connection points: 6
#     Node 11, Type 1, BuildingBlock: GEDQOX_clean_sbu_0, # of connection points: 6
#     Edge 12, Type (0, 1), BuildingBlock: AJUNOK_clean_linker_0, # of connection points: 2
#     Edge 13, Type (0, 1), BuildingBlock: AJUNOK_clean_linker_0, # of connection points: 2
#     Edge 14, Type (0, 1), BuildingBlock: AJUNOK_clean_linker_0, # of connection points: 2
#     Edge 15, Type (0, 1), BuildingBlock: AJUNOK_clean_linker_0, # of connection points: 2
#     Edge 16, Type (0, 1), BuildingBlock: AJUNOK_clean_linker_0, # of connection points: 2
#     Edge 17, Type (0, 1), BuildingBlock: AJUNOK_clean_linker_0, # of connection points: 2
#     Edge 18, Type (0, 1), BuildingBlock: AJUNOK_clean_linker_0, # of connection points: 2
#     Edge 19, Type (0, 1), BuildingBlock: AJUNOK_clean_linker_0, # of connection points: 2
#     Edge 20, Type (0, 1), BuildingBlock: AJUNOK_clean_linker_0, # of connection points: 2
#     Edge 21, Type (0, 1), BuildingBlock: AJUNOK_clean_linker_0, # of connection points: 2
#     Edge 22, Type (0, 1), BuildingBlock: AJUNOK_clean_linker_0, # of connection points: 2
#     Edge 23, Type (0, 1), BuildingBlock: AJUNOK_clean_linker_0, # of connection points: 2
#     Edge 24, Type (0, 1), BuildingBlock: AJUNOK_clean_linker_0, # of connection points: 2
#     Edge 25, Type (0, 1), BuildingBlock: AJUNOK_clean_linker_0, # of connection points: 2
#     Edge 26, Type (0, 1), BuildingBlock: AJUNOK_clean_linker_0, # of connection points: 2
#     Edge 27, Type (0, 1), BuildingBlock: AJUNOK_clean_linker_0, # of connection points: 2
#     Edge 28, Type (0, 1), BuildingBlock: AJUNOK_clean_linker_0, # of connection points: 2
#     Edge 29, Type (0, 1), BuildingBlock: AJUNOK_clean_linker_0, # of connection points: 2
#     Edge 30, Type (0, 1), BuildingBlock: AJUNOK_clean_linker_0, # of connection points: 2
#     Edge 31, Type (0, 1), BuildingBlock: AJUNOK_clean_linker_0, # of connection points: 2
#     Edge 32, Type (0, 1), BuildingBlock: AJUNOK_clean_linker_0, # of connection points: 2
#     Edge 33, Type (0, 1), BuildingBlock: AJUNOK_clean_linker_0, # of connection points: 2
#     Edge 34, Type (0, 1), BuildingBlock: AJUNOK_clean_linker_0, # of connection points: 2
#     Edge 35, Type (0, 1), BuildingBlock: AJUNOK_clean_linker_0, # of connection points: 2
# Relax obj value: 0.136
# Max RMSD: 0.166
# Mean RMSD: 0.067
data_MOF--net-pyr--node1-GEDQOX_clean_sbu_0--node2-MIDCAF_clean_linker_0--edge1-AJUNOK_clean_linker_0
_symmetry_space_group_name_H-M    P1
_symmetry_Int_Tables_number       1
_symmetry_cell_setting            triclinic
loop_
_symmetry_equiv_pos_as_xyz
'x, y, z'
_cell_length_a     37.936895
_cell_length_b     38.102131
_cell_length_c     33.335963
_cell_angle_alpha  87.197771
_cell_angle_beta   90.715834
_cell_angle_gamma 84.362645
loop_
_atom_site_label
_atom_site_type_symbol
_atom_site_fract_x
_atom_site_fract_y
_atom_site_fract_z
_atom_type_partial_charge
C0 C 0.12967 0.1508 0.29761 0.0
C1 C 0.14485 0.11967 0.31831 0.0
C2 C 0.17746 0.10424 0.30423 0.0
C3 C 0.19465 0.11992 0.27146 0.0
H4 H 0.28934 0.11313 0.20319 0.0
H5 H 0.34544 0.08606 0.17845 0.0
H6 H 0.3399 0.16322 0.07907 0.0
H7 H 0.28356 0.19041 0.10374 0.0
H8 H 0.22934 0.27095 0.12581 0.0
H9 H 0.20133 0.32815 0.09994 0.0
H10 H 0.10039 0.30058 0.14327 0.0
H11 H 0.12896 0.24445 0.17135 0.0
H12 H 0.13388 0.19043 0.25047 0.0
H13 H 0.10421 0.16314 0.30644 0.0
H14 H 0.19013 0.0803 0.3191 0.0
H15 H 0.21984 0.10734 0.26213 0.0
N16 N 0.2297 0.15482 0.20252 0.0
N17 N 0.23076 0.20264 0.15494 0.0
N18 N 0.18317 0.20049 0.19934 0.0
C19 C 0.24633 0.17108 0.17146 0.0
C20 C 0.19909 0.21761 0.16864 0.0
C21 C 0.19807 0.16924 0.21676 0.0
C22 C 0.28125 0.15428 0.15576 0.0
C23 C 0.2998 0.12446 0.17595 0.0
C24 C 0.33231 0.10883 0.16171 0.0
C25 C 0.34761 0.12198 0.12634 0.0
C26 C 0.32902 0.15168 0.10593 0.0
C27 C 0.29661 0.16758 0.12042 0.0
C28 C 0.18167 0.25251 0.15073 0.0
C29 C 0.20113 0.27694 0.12968 0.0
C30 C 0.18475 0.30991 0.11432 0.0
C31 C 0.14798 0.31949 0.11836 0.0
C32 C 0.12863 0.29488 0.13943 0.0
C33 C 0.14513 0.26227 0.15548 0.0
C34 C 0.17973 0.15153 0.25135 0.0
C35 C 0.14675 0.16642 0.26499 0.0
C36 C 0.27062 0.83844 0.76141 0.0
C37 C 0.25808 0.82 0.72949 0.0
C38 C 0.27621 0.78762 0.7203 0.0
C39 C 0.30767 0.77517 0.74052 0.0
H40 H 0.38393 0.69932 0.73832 0.0
H41 H 0.41381 0.65509 0.69838 0.0
H42 H 0.51511 0.68318 0.7399 0.0
H43 H 0.48474 0.72966 0.77924 0.0
H44 H 0.47834 0.81123 0.82953 0.0
H45 H 0.50253 0.85495 0.87124 0.0
H46 H 0.39909 0.88077 0.92028 0.0
H47 H 0.37487 0.83769 0.87882 0.0
H48 H 0.31221 0.8418 0.80468 0.0
H49 H 0.25658 0.86304 0.76982 0.0
H50 H 0.26715 0.77279 0.69591 0.0
H51 H 0.32165 0.75082 0.73131 0.0
N52 N 0.37765 0.75686 0.77125 0.0
N53 N 0.42805 0.7694 0.8072 0.0
N54 N 0.37389 0.80488 0.81218 0.0
C55 C 0.41225 0.74868 0.78144 0.0
C56 C 0.40861 0.79739 0.82312 0.0
C57 C 0.35826 0.78474 0.78614 0.0
C58 C 0.43186 0.71852 0.76192 0.0
C59 C 0.4126 0.69617 0.73954 0.0
C60 C 0.4298 0.67019 0.71689 0.0
C61 C 0.46688 0.66506 0.71636 0.0
C62 C 0.48643 0.68647 0.73975 0.0
C63 C 0.46906 0.71294 0.76243 0.0
C64 C 0.42468 0.82098 0.85079 0.0
C65 C 0.46092 0.8259 0.84961 0.0
C66 C 0.4747 0.85104 0.87323 0.0
C67 C 0.45265 0.87109 0.89902 0.0
C68 C 0.41672 0.86544 0.90097 0.0
C69 C 0.40288 0.84085 0.87703 0.0
C70 C 0.32187 0.79498 0.77027 0.0
C71 C 0.30234 0.82613 0.78151 0.0
C72 C 0.68513 0.33321 0.96689 0.0
C73 C 0.64935 0.33237 0.95582 0.0
C74 C 0.63258 0.36005 0.93106 0.0
C75 C 0.65182 0.38664 0.91521 0.0
H76 H 0.65713 0.42277 0.80316 0.0
H77 H 0.6352 0.43625 0.73534 0.0
H78 H 0.72782 0.48942 0.70738 0.0
H79 H 0.75043 0.47598 0.77646 0.0
H80 H 0.8184 0.45636 0.84478 0.0
H81 H 0.87678 0.46803 0.86996 0.0
H82 H 0.8444 0.44607 0.99144 0.0
H83 H 0.78617 0.43417 0.96665 0.0
H84 H 0.73242 0.35901 0.9584 0.0
H85 H 0.69861 0.31208 0.98593 0.0
H86 H 0.60521 0.3598 0.92151 0.0
H87 H 0.63857 0.40653 0.8944 0.0
N88 N 0.69851 0.42031 0.86214 0.0
N89 N 0.75092 0.44664 0.85069 0.0
N90 N 0.74184 0.41719 0.91294 0.0
C91 C 0.71872 0.43878 0.83727 0.0
C92 C 0.76248 0.43614 0.88875 0.0
C93 C 0.70969 0.40941 0.89979 0.0
C94 C 0.70572 0.44826 0.79555 0.0
C95 C 0.67315 0.43735 0.78291 0.0
C96 C 0.66053 0.44484 0.74381 0.0
C97 C 0.67991 0.4636 0.71606 0.0
C98 C 0.71235 0.47495 0.72834 0.0
C99 C 0.72525 0.46723 0.7678 0.0
C100 C 0.79762 0.4442 0.90366 0.0
C101 C 0.82366 0.45406 0.87685 0.0
C102 C 0.85713 0.46049 0.89118 0.0
C103 C 0.86502 0.45758 0.93256 0.0
C104 C 0.83891 0.44837 0.9594 0.0
C105 C 0.80564 0.44148 0.9451 0.0
C106 C 0.68823 0.38614 0.92384 0.0
C107 C 0.70439 0.36009 0.95126 0.0
C108 C 0.72606 0.83291 0.36364 0.0
C109 C 0.70687 0.81089 0.34099 0.0
C110 C 0.70593 0.8156 0.29899 0.0
C111 C 0.72699 0.83907 0.27981 0.0
H112 H 0.79299 0.81977 0.18677 0.0
H113 H 0.8222 0.76643 0.15979 0.0
H114 H 0.92416 0.80012 0.18962 0.0
H115 H 0.89524 0.85343 0.21712 0.0
H116 H 0.90253 0.90543 0.2798 0.0
H117 H 0.94163 0.93586 0.32172 0.0
H118 H 0.85177 0.97986 0.387 0.0
H119 H 0.81217 0.94899 0.34548 0.0
H120 H 0.76408 0.87092 0.36265 0.0
H121 H 0.72698 0.82984 0.39613 0.0
H122 H 0.69069 0.79941 0.28095 0.0
H123 H 0.7277 0.8402 0.24729 0.0
N124 N 0.79278 0.85766 0.24923 0.0
N125 N 0.84377 0.88704 0.25354 0.0
N126 N 0.79924 0.89563 0.30141 0.0
C127 C 0.82467 0.86437 0.23449 0.0
C128 C 0.83105 0.90327 0.28655 0.0
C129 C 0.77977 0.87303 0.2825 0.0
C130 C 0.84174 0.84027 0.2054 0.0
C131 C 0.82167 0.81649 0.1864 0.0
C132 C 0.83835 0.78596 0.1708 0.0
C133 C 0.87526 0.77887 0.1739 0.0
C134 C 0.89554 0.80483 0.1878 0.0
C135 C 0.8789 0.83544 0.20332 0.0
C136 C 0.85414 0.92464 0.3094 0.0
C137 C 0.89087 0.92185 0.30275 0.0
C138 C 0.91337 0.93906 0.32681 0.0
C139 C 0.89958 0.95981 0.35758 0.0
C140 C 0.86286 0.96386 0.36337 0.0
C141 C 0.84031 0.94618 0.33969 0.0
C142 C 0.74942 0.85824 0.30231 0.0
C143 C 0.74718 0.85652 0.34443 0.0
C144 C 0.75228 0.95015 0.90586 0.0
C145 C 0.73771 0.93724 0.94177 0.0
C146 C 0.75655 0.90751 0.96187 0.0
C147 C 0.78847 0.89128 0.94645 0.0
H148 H 0.85773 0.78928 0.94528 0.0
H149 H 0.88764 0.73225 0.97045 0.0
H150 H 0.98234 0.75591 0.9086 0.0
H151 H 0.95215 0.81151 0.88207 0.0
H152 H 0.92979 0.85789 0.79067 0.0
H153 H 0.95636 0.88546 0.73243 0.0
H154 H 0.90249 0.98629 0.7601 0.0
H155 H 0.87418 0.95812 0.81681 0.0
H156 H 0.79406 0.94537 0.86301 0.0
H157 H 0.73896 0.97295 0.88935 0.0
H158 H 0.74621 0.89618 0.98917 0.0
H159 H 0.80172 0.86838 0.96283 0.0
N160 N 0.85311 0.85549 0.90929 0.0
N161 N 0.89805 0.85664 0.86124 0.0
N162 N 0.85241 0.90303 0.86107 0.0
C163 C 0.88376 0.84004 0.89353 0.0
C164 C 0.88281 0.88803 0.84466 0.0
C165 C 0.83712 0.88711 0.89332 0.0
C166 C 0.90207 0.80532 0.91097 0.0
C167 C 0.88489 0.78226 0.93684 0.0
C168 C 0.90222 0.74938 0.95146 0.0
C169 C 0.93749 0.73839 0.94102 0.0
C170 C 0.95488 0.76212 0.91624 0.0
C171 C 0.93748 0.79459 0.90123 0.0
C172 C 0.89938 0.9055 0.80874 0.0
C173 C 0.92331 0.88593 0.78425 0.0
C174 C 0.93884 0.90195 0.75067 0.0
C175 C 0.93156 0.93837 0.74037 0.0
C176 C 0.90809 0.95805 0.76545 0.0
C177 C 0.89198 0.94186 0.7986 0.0
C178 C 0.803 0.90429 0.91047 0.0
C179 C 0.78424 0.93421 0.8907 0.0
C180 C 0.67128 0.20202 0.15468 0.0
C181 C 0.63718 0.19336 0.16414 0.0
C182 C 0.61819 0.2119 0.19376 0.0
C183 C 0.63342 0.23826 0.21408 0.0
H184 H 0.61385 0.34201 0.2732 0.0
H185 H 0.58546 0.38861 0.31377 0.0
H186 H 0.68825 0.41062 0.35734 0.0
H187 H 0.71633 0.3662 0.31633 0.0
H188 H 0.78565 0.32921 0.28799 0.0
H189 H 0.84123 0.31148 0.32424 0.0
H190 H 0.83279 0.20303 0.29664 0.0
H191 H 0.77768 0.22074 0.25964 0.0
H192 H 0.71346 0.23314 0.16812 0.0
H193 H 0.6864 0.18814 0.13193 0.0
H194 H 0.59171 0.20581 0.20132 0.0
H195 H 0.61853 0.25167 0.23732 0.0
N196 N 0.66809 0.29858 0.24721 0.0
N197 N 0.72125 0.31343 0.27535 0.0
N198 N 0.72196 0.26417 0.2364 0.0
C199 C 0.68577 0.32038 0.26982 0.0
C200 C 0.73955 0.28558 0.25909 0.0
C201 C 0.68636 0.27065 0.22987 0.0
C202 C 0.66741 0.35012 0.29131 0.0
C203 C 0.63032 0.35731 0.29086 0.0
C204 C 0.61409 0.3839 0.3142 0.0
C205 C 0.63463 0.40379 0.33834 0.0
C206 C 0.67159 0.3968 0.3382 0.0
C207 C 0.6877 0.37072 0.31484 0.0
C208 C 0.77699 0.27626 0.27148 0.0
C209 C 0.79619 0.30171 0.28862 0.0
C210 C 0.828 0.29162 0.30942 0.0
C211 C 0.84122 0.2559 0.31352 0.0
C212 C 0.82359 0.23086 0.29348 0.0
C213 C 0.79186 0.24099 0.27239 0.0
C214 C 0.66815 0.24593 0.20567 0.0
C215 C 0.68672 0.22774 0.17547 0.0
C216 C 0.22197 0.60074 0.17226 0.0
C217 C 0.21701 0.60372 0.1304 0.0
C218 C 0.24421 0.61491 0.10626 0.0
C219 C 0.27594 0.62295 0.12373 0.0
H220 H 0.3502 0.70306 0.11683 0.0
H221 H 0.38496 0.75013 0.09182 0.0
H222 H 0.47168 0.70929 0.17124 0.0
H223 H 0.43758 0.66216 0.19574 0.0
H224 H 0.40131 0.56467 0.25931 0.0
H225 H 0.43165 0.55195 0.32431 0.0
H226 H 0.36858 0.63985 0.37316 0.0
H227 H 0.33826 0.65247 0.30771 0.0
H228 H 0.25701 0.60548 0.2221 0.0
H229 H 0.20131 0.59207 0.19141 0.0
H230 H 0.24082 0.61758 0.0739 0.0
H231 H 0.29647 0.63145 0.10429 0.0
N232 N 0.33693 0.64774 0.16315 0.0
N233 N 0.3775 0.6417 0.21709 0.0
N234 N 0.32469 0.61468 0.22197 0.0
C235 C 0.36821 0.65493 0.17958 0.0
C236 C 0.35601 0.62174 0.23832 0.0
C237 C 0.31514 0.62741 0.18405 0.0
C238 C 0.39087 0.6793 0.15885 0.0
C239 C 0.37698 0.70365 0.12826 0.0
C240 C 0.39674 0.7307 0.11411 0.0
C241 C 0.43069 0.73363 0.1302 0.0
C242 C 0.44556 0.70766 0.15838 0.0
C243 C 0.42585 0.68082 0.17262 0.0
C244 C 0.36712 0.60899 0.27912 0.0
C245 C 0.39306 0.5803 0.28446 0.0
C246 C 0.41037 0.57311 0.32159 0.0
C247 C 0.40224 0.59479 0.35383 0.0
C248 C 0.37517 0.62267 0.34883 0.0
C249 C 0.35766 0.62968 0.31168 0.0
C250 C 0.28124 0.61947 0.16566 0.0
C251 C 0.2539 0.60824 0.18973 0.0
C252 C 0.21114 0.12709 0.65206 0.0
C253 C 0.18104 0.11324 0.66811 0.0
C254 C 0.1743 0.11614 0.70921 0.0
C255 C 0.19666 0.13342 0.7335 0.0
H256 H 0.28754 0.22773 0.86314 0.0
H257 H 0.26379 0.27849 0.89981 0.0
H258 H 0.16185 0.2748 0.84186 0.0
H259 H 0.18499 0.22319 0.80694 0.0
H260 H 0.34063 0.24511 0.78388 0.0
H261 H 0.37827 0.28437 0.74952 0.0
H262 H 0.3633 0.23308 0.63881 0.0
H263 H 0.32425 0.19435 0.67277 0.0
H264 H 0.25624 0.15498 0.66276 0.0
H265 H 0.21698 0.1253 0.62045 0.0
H266 H 0.15187 0.10487 0.72266 0.0
H267 H 0.19047 0.13556 0.76497 0.0
N268 N 0.2362 0.18056 0.77756 0.0
N269 N 0.28609 0.21137 0.78479 0.0
N270 N 0.27973 0.17873 0.72801 0.0
C271 C 0.25502 0.20181 0.79917 0.0
C272 C 0.29873 0.2001 0.74933 0.0
C273 C 0.24872 0.16834 0.74229 0.0
C274 C 0.2383 0.22209 0.83157 0.0
C275 C 0.25966 0.23689 0.85964 0.0
C276 C 0.24621 0.26618 0.8802 0.0
C277 C 0.21148 0.28151 0.87221 0.0
C278 C 0.18887 0.26382 0.84827 0.0
C279 C 0.20213 0.2341 0.82831 0.0
C280 C 0.32854 0.21711 0.73087 0.0
C281 C 0.3457 0.24165 0.75234 0.0
C282 C 0.36748 0.26415 0.73271 0.0
C283 C 0.37286 0.26247 0.69127 0.0
C284 C 0.35865 0.23567 0.67057 0.0
C285 C 0.33657 0.21324 0.69015 0.0
C286 C 0.22647 0.14781 0.71729 0.0
C287 C 0.23367 0.14407 0.67637 0.0
Nd288 Nd 0.05511 0.99507 0.52164 0.0
Nd289 Nd 1.01451 0.06252 0.52872 0.0
C290 C 0.08169 0.92835 0.52157 0.0
C291 C 0.102 0.9087 0.55454 0.0
C292 C 0.12093 0.87587 0.5491 0.0
C293 C 0.14354 0.85994 0.57978 0.0
C294 C 0.14749 0.87695 0.61585 0.0
C295 C 0.12724 0.90901 0.6217 0.0
C296 C 0.10487 0.92484 0.59124 0.0
C297 C 0.09205 0.04085 0.56296 0.0
C298 C 1.00088 1.00138 0.59831 0.0
C299 C 0.98081 0.1251 0.53833 0.0
C300 C 0.96171 0.14851 0.50708 0.0
C301 C 0.96553 0.18482 0.50422 0.0
C302 C 0.95012 0.20594 0.47173 0.0
C303 C 0.9314 0.19072 0.44149 0.0
C304 C 0.92715 0.15459 0.4449 0.0
C305 C 0.94207 0.13374 0.4773 0.0
C306 C 0.99029 1.02597 0.46611 0.0
C307 C 0.07193 0.05687 0.45779 0.0
O308 O 0.04859 0.93784 0.52921 0.0
O309 O 0.09735 0.95417 0.50493 0.0
O310 O 0.10589 1.01953 0.53725 0.0
O311 O 0.05972 0.03701 0.56753 0.0
O312 O 1.02713 0.98219 0.58159 0.0
O313 O 0.99039 0.03346 0.58313 0.0
O314 O 1.01523 0.12036 0.53447 0.0
O315 O 0.9669 0.09565 0.54714 0.0
O316 O 0.99271 0.0595 0.46449 0.0
O317 O 0.99955 1.01273 0.50034 0.0
O318 O 0.06003 0.07679 0.48707 0.0
O319 O 0.06667 1.02295 0.45998 0.0
H320 H 0.11916 0.86323 0.52083 0.0
H321 H 0.15908 0.8352 0.57469 0.0
H322 H 0.12962 0.9224 0.64941 0.0
H323 H 0.09082 0.95041 0.59583 0.0
H324 H 0.98083 0.19665 0.52666 0.0
H325 H 0.95331 0.23391 0.46981 0.0
H326 H 0.91204 0.14244 0.42253 0.0
H327 H 0.93856 0.10586 0.47862 0.0
Nd328 Nd 0.54873 1.00799 0.06863 0.0
Nd329 Nd 0.53864 0.05364 1.00137 0.0
C330 C 0.56078 0.95133 0.11773 0.0
C331 C 0.54634 0.91675 0.11917 0.0
C332 C 0.54801 0.8955 0.08572 0.0
C333 C 0.53036 0.865 0.08584 0.0
C334 C 0.51027 0.85565 0.11902 0.0
C335 C 0.50984 0.87603 0.15303 0.0
C336 C 0.52779 0.90629 0.15312 0.0
C337 C 0.48827 0.05474 0.07755 0.0
C338 C 0.50649 0.98165 0.99005 0.0
C339 C 0.52748 0.11051 0.9525 0.0
C340 C 0.53969 0.14591 0.95447 0.0
C341 C 0.53882 0.16345 0.99069 0.0
C342 C 0.55527 0.19447 0.99379 0.0
C343 C 0.57287 0.20837 0.96079 0.0
C344 C 0.57272 0.19145 0.92426 0.0
C345 C 0.55621 0.1605 0.92113 0.0
C346 C 0.59852 1.00627 0.99241 0.0
C347 C 0.58023 0.08018 0.08001 0.0
O348 O 0.58113 0.95821 0.08762 0.0
O349 O 0.53836 0.97824 0.12545 0.0
O350 O 0.51282 0.04658 0.10476 0.0
O351 O 0.49643 0.03892 0.04559 0.0
O352 O 0.52408 0.9725 1.02382 0.0
O353 O 0.5045 1.0143 0.97515 0.0
O354 O 0.50478 0.1017 0.97941 0.0
O355 O 0.55233 0.08512 0.94706 0.0
O356 O 0.5738 1.01438 0.9654 0.0
O357 O 0.5908 1.02252 1.02423 0.0
O358 O 0.56134 0.0894 0.04719 0.0
O359 O 0.58394 0.04712 0.09359 0.0
H360 H 0.56195 0.90296 0.05896 0.0
H361 H 0.53112 0.84957 0.05935 0.0
H362 H 0.4951 0.86885 0.17931 0.0
H363 H 0.52623 0.92217 0.17925 0.0
H364 H 0.52658 0.15258 1.01707 0.0
H365 H 0.55541 0.20679 1.0224 0.0
H366 H 0.58594 0.20186 0.89832 0.0
H367 H 0.5574 0.14729 0.89305 0.0
Nd368 Nd 0.52735 0.50753 0.53595 0.0
Nd369 Nd 0.57538 0.5639 0.51706 0.0
C370 C 0.47469 0.46783 0.54855 0.0
C371 C 0.46265 0.4397 0.57529 0.0
C372 C 0.42715 0.44213 0.58684 0.0
C373 C 0.41361 0.4136 0.60714 0.0
C374 C 0.43528 0.38196 0.61574 0.0
C375 C 0.47132 0.38023 0.60608 0.0
C376 C 0.48493 0.40888 0.58599 0.0
C377 C 0.59325 0.49419 0.57342 0.0
C378 C 0.52549 0.57512 0.59238 0.0
C379 C 0.62744 0.60416 0.50316 0.0
C380 C 0.63706 0.63234 0.47496 0.0
C381 C 0.67293 0.63564 0.46789 0.0
C382 C 0.68291 0.66393 0.44388 0.0
C383 C 0.65713 0.68938 0.42658 0.0
C384 C 0.62115 0.68582 0.43327 0.0
C385 C 0.61115 0.65736 0.45711 0.0
C386 C 0.5092 0.57634 0.48007 0.0
C387 C 0.57753 0.49603 0.46115 0.0
O388 O 0.47472 0.49945 0.5621 0.0
O389 O 0.50181 0.45914 0.52614 0.0
O390 O 0.57478 0.46996 0.56081 0.0
O391 O 0.57546 0.52372 0.56886 0.0
O392 O 0.50589 0.55288 0.57552 0.0
O393 O 0.55752 0.57909 0.57942 0.0
O394 O 0.62737 0.57249 0.4898 0.0
O395 O 0.6009 0.61245 0.52656 0.0
O396 O 0.52737 0.60123 0.49149 0.0
O397 O 0.52769 0.54735 0.48454 0.0
O398 O 0.59726 0.51799 0.47834 0.0
O399 O 0.54517 0.49281 0.47348 0.0
H400 H 0.40958 0.4657 0.579 0.0
H401 H 0.38597 0.41602 0.61532 0.0
H402 H 0.48864 0.35624 0.61261 0.0
H403 H 0.51252 0.40642 0.57758 0.0
H404 H 0.69326 0.61674 0.48168 0.0
H405 H 0.71084 0.6664 0.43965 0.0
H406 H 0.60084 0.7051 0.42014 0.0
H407 H 0.58327 0.65525 0.46223 0.0
Nd408 Nd 1.0223 0.53134 0.06484 0.0
Nd409 Nd 0.06339 0.52584 0.9912 0.0
C410 C 0.97956 0.53278 0.12612 0.0
C411 C 0.96226 0.5648 0.14365 0.0
C412 C 0.92589 0.5744 0.13681 0.0
C413 C 0.911 0.6084 0.14449 0.0
C414 C 0.93221 0.63319 0.15945 0.0
C415 C 0.96809 0.62297 0.16833 0.0
C416 C 0.98294 0.58911 0.16071 0.0
C417 C 0.08376 0.5639 0.06824 0.0
C418 C 1.00994 0.59938 1.00135 0.0
C419 C 0.10591 0.52499 0.92948 0.0
C420 C 0.12679 0.49405 0.91354 0.0
C421 C 0.16079 0.48271 0.92938 0.0
C422 C 0.17705 0.4493 0.92156 0.0
C423 C 0.1596 0.42676 0.89778 0.0
C424 C 0.12682 0.43897 0.87971 0.0
C425 C 0.11068 0.4724 0.88723 0.0
C426 C 1.00221 0.49299 0.98825 0.0
C427 C 0.07631 0.45816 0.05483 0.0
O428 O 0.96883 0.52715 0.08974 0.0
O429 O 1.01402 0.52754 0.13046 0.0
O430 O 0.05364 0.57738 0.08133 0.0
O431 O 0.08068 0.53425 0.05421 0.0
O432 O 0.99658 0.58287 0.03253 0.0
O433 O 0.03823 0.58443 0.98343 0.0
O434 O 0.11557 0.53421 0.96497 0.0
O435 O 0.07151 0.5256 0.92562 0.0
O436 O 1.03245 0.47938 0.97556 0.0
O437 O 1.00506 0.52285 1.00194 0.0
O438 O 0.09023 0.47564 1.02474 0.0
O439 O 0.04722 0.47234 0.07202 0.0
H440 H 0.9094 0.55628 0.12347 0.0
H441 H 0.88316 0.61565 0.1377 0.0
H442 H 0.98515 0.6417 0.17934 0.0
H443 H 1.01112 0.58284 0.16608 0.0
H444 H 0.17399 0.49878 0.94961 0.0
H445 H 0.20236 0.44037 0.93586 0.0
H446 H 0.11319 0.42218 0.86072 0.0
H447 H 0.08467 0.48041 0.87417 0.0
C448 C 0.12345 0.06717 0.35891 0.0
C449 C 0.12681 0.1038 0.35446 0.0
C450 C 0.1058 0.05225 0.39195 0.0
C451 C 0.09087 0.07308 0.4226 0.0
H452 H 0.13406 0.04985 0.33624 0.0
H453 H 0.10387 1.02405 0.39339 0.0
S454 S 0.09411 0.1702 0.42688 0.0
N455 N 0.11482 0.16016 0.38511 0.0
N456 N 0.08189 0.13269 0.44626 0.0
C457 C 0.09456 0.10969 0.41874 0.0
C458 C 0.11235 0.12482 0.3851 0.0
C459 C 0.48269 0.92656 0.90359 0.0
C460 C 0.46655 0.89879 0.92292 0.0
C461 C 0.49451 0.95393 0.9254 0.0
C462 C 0.49131 0.95407 0.9674 0.0
H463 H 0.48574 0.92737 0.8713 0.0
H464 H 0.50698 0.9747 0.90937 0.0
S465 S 0.45033 0.88787 0.03205 0.0
N466 N 0.44726 0.87356 0.98629 0.0
N467 N 0.4703 0.92444 1.02738 0.0
C468 C 0.47531 0.92643 0.98707 0.0
C469 C 0.46268 0.89897 0.9648 0.0
C470 C 0.65208 0.4443 0.65368 0.0
C471 C 0.66489 0.47157 0.67496 0.0
C472 C 0.63092 0.45169 0.619 0.0
C473 C 0.62158 0.48667 0.60448 0.0
H474 H 0.65704 0.41711 0.66508 0.0
H475 H 0.62022 0.42993 0.60488 0.0
S476 S 0.65241 0.5672 0.646 0.0
N477 N 0.66974 0.53457 0.67679 0.0
N478 N 0.63037 0.54855 0.61116 0.0
C479 C 0.63659 0.51397 0.62358 0.0
C480 C 0.65817 0.5064 0.65896 0.0
C481 C 0.88586 0.72467 0.13439 0.0
C482 C 0.89162 0.74249 0.16943 0.0
C483 C 0.89883 0.68915 0.13147 0.0
C484 C 0.91763 0.67026 0.16368 0.0
H485 H 0.87121 0.73829 0.10917 0.0
H486 H 0.89442 0.67647 0.1037 0.0
S487 S 0.9369 0.70419 0.26314 0.0
N488 N 0.91568 0.73826 0.23765 0.0
N489 N 0.9397 0.67147 0.23229 0.0
C490 C 0.9231 0.68771 0.19902 0.0
C491 C 0.91016 0.72383 0.20188 0.0
C492 C 0.41159 0.09657 0.13982 0.0
C493 C 0.38327 0.10538 0.11212 0.0
C494 C 0.44496 0.08084 0.12805 0.0
C495 C 0.45208 0.07242 0.0879 0.0
H496 H 0.4081 0.10222 0.17113 0.0
H497 H 0.4654 0.07498 0.15103 0.0
S498 S 0.38734 0.08917 1.00301 0.0
N499 N 0.36506 0.10401 0.04203 0.0
N500 N 0.42733 0.07429 1.02025 0.0
C501 C 0.42411 0.081 0.05973 0.0
C502 C 0.39005 0.09747 0.07167 0.0
C503 C 0.20169 0.81504 0.69094 0.0
C504 C 0.22831 0.83576 0.70313 0.0
C505 C 0.17541 0.82846 0.66276 0.0
C506 C 0.1748 0.86308 0.64608 0.0
H507 H 0.20142 0.78814 0.70298 0.0
H508 H 0.15546 0.8117 0.65396 0.0
S509 S 0.23947 0.92734 0.66588 0.0
N510 N 0.25314 0.89212 0.69481 0.0
N511 N 0.20346 0.91741 0.64246 0.0
C512 C 0.20109 0.88408 0.65805 0.0
C513 C 0.22789 0.87043 0.68648 0.0
C514 C 0.90299 0.49047 0.97624 0.0
C515 C 0.90029 0.46472 0.94788 0.0
C516 C 0.93614 0.49878 0.98988 0.0
C517 C 0.96775 0.48131 0.97605 0.0
H518 H 0.87931 0.50492 0.98721 0.0
H519 H 0.93695 0.51947 1.01094 0.0
S520 S 0.9747 0.40975 0.904 0.0
N521 N 0.93168 0.42053 0.9079 0.0
N522 N 0.99405 0.43568 0.93387 0.0
C523 C 0.96532 0.45461 0.94869 0.0
C524 C 0.93155 0.44649 0.93446 0.0
C525 C 0.66851 0.78417 0.39261 0.0
C526 C 0.69216 0.77998 0.36069 0.0
C527 C 0.65633 0.7547 0.41302 0.0
C528 C 0.66798 0.72015 0.40263 0.0
H529 H 0.65961 0.81034 0.402 0.0
H530 H 0.63852 0.75893 0.43786 0.0
S531 S 0.72984 0.69512 0.32132 0.0
N532 N 0.7267 0.7387 0.31961 0.0
N533 N 0.7038 0.68348 0.35795 0.0
C534 C 0.69132 0.7157 0.37053 0.0
C535 C 0.70341 0.74558 0.34956 0.0
C536 C 0.10212 0.37345 0.12201 0.0
C537 C 0.12981 0.35478 0.10126 0.0
C538 C 0.08484 0.40621 0.1068 0.0
C539 C 0.09431 0.42244 0.07001 0.0
H540 H 0.09392 0.36299 0.15081 0.0
H541 H 0.06412 0.41916 0.12449 0.0
S542 S 0.16358 0.3843 1.00218 0.0
N543 N 0.16423 0.3549 0.04023 0.0
N544 N 0.13299 0.41623 1.01261 0.0
C545 C 0.12173 0.40399 0.04874 0.0
C546 C 0.13909 0.37048 0.06404 0.0
C547 C 0.64716 0.26757 0.95236 0.0
C548 C 0.63111 0.30024 0.9641 0.0
C549 C 0.62832 0.2378 0.95244 0.0
C550 C 0.59286 0.23953 0.96454 0.0
H551 H 0.67389 0.2654 0.94103 0.0
H552 H 0.64137 0.21339 0.94209 0.0
S553 S 0.5398 0.31796 1.00151 0.0
N554 N 0.5786 0.33201 0.99087 0.0
N555 N 0.54306 0.27586 0.99096 0.0
C556 C 0.57704 0.27152 0.97831 0.0
C557 C 0.59619 0.30194 0.97802 0.0
C558 C 0.92119 1.01313 0.38657 0.0
C559 C 0.92367 0.97625 0.38449 0.0
C560 C 0.94362 1.02911 0.4123 0.0
C561 C 0.96868 1.00864 0.4374 0.0
H562 H 0.90187 0.02967 0.3681 0.0
H563 H 0.94072 0.05764 0.41318 0.0
S564 S 0.98561 0.91105 0.44279 0.0
N565 N 0.95336 0.91972 0.40893 0.0
N566 N 0.99499 0.94973 0.45804 0.0
C567 C 0.97145 0.97177 0.43542 0.0
C568 C 0.94906 0.95556 0.40875 0.0
C569 C 0.51132 0.65016 0.66318 0.0
C570 C 0.48447 0.63962 0.6885 0.0
C571 C 0.52485 0.62875 0.63277 0.0
C572 C 0.51178 0.59615 0.62612 0.0
H573 H 0.52102 0.67578 0.66578 0.0
H574 H 0.54491 0.63844 0.61348 0.0
S575 S 0.44516 0.55411 0.68753 0.0
N576 N 0.44823 0.59244 0.70771 0.0
N577 N 0.47284 0.55285 0.64968 0.0
C578 C 0.48599 0.58461 0.65216 0.0
C579 C 0.47259 0.60615 0.68355 0.0
C580 C 0.98402 0.9442 0.69367 0.0
C581 C 0.94877 0.95541 0.70412 0.0
C582 C 1.00049 0.95906 0.65984 0.0
C583 C 0.98291 0.98641 0.63477 0.0
H584 H 0.99937 0.92382 0.712 0.0
H585 H 1.0275 0.94915 0.65354 0.0
S586 S 0.88971 1.02423 0.64619 0.0
N587 N 0.8963 0.9946 0.68402 0.0
N588 N 0.92754 1.02317 0.62213 0.0
C589 C 0.94774 0.99795 0.64468 0.0
C590 C 0.93071 0.98242 0.67876 0.0
C591 C 0.61808 0.16625 0.10144 0.0
C592 C 0.62208 0.1644 0.1435 0.0
C593 C 0.60478 0.13875 0.08122 0.0
C594 C 0.59571 0.10801 0.1022 0.0
H595 H 0.62503 0.18928 0.08407 0.0
H596 H 0.60189 0.14147 0.04882 0.0
S597 S 0.60195 0.09008 0.21261 0.0
N598 N 0.6162 0.12947 0.2055 0.0
N599 N 0.5918 0.07747 0.16754 0.0
C600 C 0.60002 0.10569 0.14426 0.0
C601 C 0.61298 0.13399 0.1649 0.0
C602 C 0.44148 0.61963 0.40386 0.0
C603 C 0.42492 0.59066 0.39066 0.0
C604 C 0.46757 0.61526 0.43441 0.0
C605 C 0.47797 0.58176 0.4527 0.0
H606 H 0.43559 0.64553 0.38905 0.0
H607 H 0.48079 0.63795 0.44235 0.0
S608 S 0.43865 0.49861 0.4334 0.0
N609 N 0.41781 0.52826 0.40136 0.0
N610 N 0.46672 0.51997 0.45875 0.0
C611 C 0.45991 0.55308 0.44161 0.0
C612 C 0.43345 0.55753 0.41054 0.0
C613 C 0.16614 0.32693 0.8977 0.0
C614 C 0.20036 0.31816 0.8832 0.0
C615 C 0.15331 0.36215 0.90261 0.0
C616 C 0.17436 0.38981 0.89359 0.0
H617 H 0.14891 0.30648 0.90453 0.0
H618 H 0.12666 0.36782 0.91348 0.0
S619 S 0.26531 0.38133 0.85382 0.0
N620 N 0.25474 0.34037 0.85894 0.0
N621 N 0.23074 0.40642 0.86946 0.0
C622 C 0.20881 0.38149 0.87997 0.0
C623 C 0.2218 0.34569 0.8745 0.0
C624 C 0.67373 0.96282 0.92945 0.0
C625 C 0.70242 0.95408 0.95665 0.0
C626 C 0.64074 0.97903 0.94166 0.0
C627 C 0.63437 0.98803 0.98177 0.0
H628 H 0.67663 0.95679 0.89818 0.0
H629 H 0.61999 0.98484 0.91901 0.0
S630 S 0.70028 0.97146 0.06551 0.0
N631 N 0.72179 0.95595 1.02629 0.0
N632 N 0.66016 0.98661 0.04889 0.0
C633 C 0.66269 0.97944 1.00949 0.0
C634 C 0.69639 0.96247 0.99709 0.0
C635 C 0.86661 0.25587 0.38297 0.0
C636 C 0.86957 0.24407 0.34361 0.0
C637 C 0.88868 0.24021 0.41423 0.0
C638 C 0.91432 0.21218 0.40718 0.0
H639 H 0.8456 0.27576 0.39028 0.0
H640 H 0.88404 0.24849 0.44451 0.0
S641 S 0.93705 0.17585 0.30858 0.0
N642 N 0.90339 0.20602 0.29848 0.0
N643 N 0.94469 0.17632 0.35744 0.0
C644 C 0.9194 0.20199 0.36754 0.0
C645 C 0.89703 0.21798 0.3357 0.0
C646 C 0.15105 0.61221 0.12312 0.0
C647 C 0.18355 0.59472 0.11207 0.0
C648 C 0.11891 0.60296 0.10757 0.0
C649 C 0.11814 0.57546 0.08096 0.0
H650 H 0.15049 0.63307 0.14414 0.0
H651 H 0.09448 0.61688 0.11732 0.0
S652 S 0.19631 0.52151 0.04282 0.0
N653 N 0.21329 0.54914 0.0726 0.0
N654 N 0.15294 0.5311 0.04398 0.0
C655 C 0.15059 0.55807 0.06932 0.0
C656 C 0.18329 0.56786 0.08474 0.0
C657 C 0.42173 0.30214 0.68469 0.0
C658 C 0.39016 0.29089 0.6695 0.0
C659 C 0.4365 0.33129 0.66684 0.0
C660 C 0.42003 0.35042 0.63339 0.0
H661 H 0.43488 0.28856 0.71089 0.0
H662 H 0.46051 0.33942 0.67988 0.0
S663 S 0.33762 0.33116 0.58129 0.0
N664 N 0.34315 0.30102 0.61871 0.0
N665 N 0.37146 0.35506 0.58453 0.0
C666 C 0.38893 0.33896 0.61735 0.0
C667 C 0.3739 0.30936 0.6355 0.0
C668 C 0.95149 0.68871 0.99534 0.0
C669 C 0.9561 0.70265 0.95583 0.0
C670 C 0.96891 0.65576 1.00975 0.0
C671 C 0.9922 0.63493 0.98561 0.0
H672 H 0.93453 0.70359 1.0157 0.0
H673 H 0.96422 0.6467 0.04034 0.0
S674 S 1.01134 0.65704 0.87875 0.0
N675 N 0.9841 0.69083 0.89195 0.0
N676 N 1.01728 0.63024 0.91919 0.0
C677 C 0.99678 0.64829 0.94596 0.0
C678 C 0.97874 0.6816 0.93113 0.0
C679 C 0.48538 0.76215 0.11173 0.0
C680 C 0.44928 0.7655 0.12161 0.0
C681 C 0.50478 0.79166 0.10955 0.0
C682 C 0.48883 0.82532 0.11785 0.0
H683 H 0.4989 0.7364 0.10668 0.0
H684 H 0.53273 0.7879 0.10285 0.0
S685 S 0.39467 0.8486 0.14251 0.0
N686 N 0.39803 0.80546 0.13784 0.0
N687 N 0.4345 0.86084 0.13359 0.0
C688 C 0.45251 0.82923 0.12626 0.0
C689 C 0.43271 0.79934 0.12811 0.0
C690 C 0.17215 0.0704 0.61544 0.0
C691 C 0.15735 0.09518 0.64193 0.0
C692 C 0.15071 0.05321 0.58993 0.0
C693 C 0.1136 0.05992 0.59009 0.0
H694 H 0.20058 0.06396 0.61462 0.0
H695 H 0.16343 0.03426 0.57018 0.0
S696 S 0.06159 0.12366 0.65225 0.0
N697 N 0.10323 0.1267 0.66556 0.0
N698 N 0.06285 0.09362 0.61809 0.0
C699 C 0.09834 0.08467 0.61627 0.0
C700 C 0.12022 0.10244 0.64212 0.0
C701 C 0.59013 0.42052 0.39082 0.0
C702 C 0.61802 0.42973 0.36629 0.0
C703 C 0.57694 0.44247 0.42089 0.0
C704 C 0.59134 0.47435 0.42797 0.0
H705 H 0.57921 0.39554 0.38781 0.0
H706 H 0.55594 0.43378 0.43952 0.0
S707 S 0.66154 0.51283 0.36882 0.0
N708 N 0.65709 0.47484 0.34842 0.0
N709 N 0.633 0.51547 0.4058 0.0
C710 C 0.61836 0.48453 0.40282 0.0
C711 C 0.63148 0.46241 0.37178 0.0
loop_
_geom_bond_atom_site_label_1
_geom_bond_atom_site_label_2
_geom_bond_distance
_geom_bond_site_symmetry_2
_ccdc_geom_bond_type
C0 C1 1.384 . S
C0 H13 0.947 . S
C0 C35 1.382 . S
C1 C0 1.384 . S
C1 C2 1.378 . S
C2 C1 1.378 . S
C2 C3 1.378 . S
C2 H14 0.952 . S
C3 C2 1.378 . S
C3 H15 0.950 . S
C3 C34 1.383 . S
H4 C23 0.947 . S
H5 C24 0.946 . S
H6 C26 0.953 . S
H7 C27 0.945 . S
H8 C29 0.952 . S
H9 C30 0.949 . S
H10 C32 0.950 . S
H11 C33 0.948 . S
H12 C35 0.951 . S
H13 C0 0.947 . S
H14 C2 0.952 . S
H15 C3 0.950 . S
N16 C19 1.382 . S
N16 C21 1.363 . S
N17 C19 1.371 . S
N17 C20 1.372 . S
N18 C20 1.361 . S
N18 C21 1.377 . S
C19 N16 1.382 . S
C19 N17 1.371 . S
C19 C22 1.480 . S
C20 N17 1.372 . S
C20 N18 1.361 . S
C20 C28 1.457 . S
C21 N16 1.363 . S
C21 N18 1.377 . S
C21 C34 1.479 . S
C22 C19 1.480 . S
C22 C23 1.383 . S
C22 C27 1.385 . S
C23 H4 0.947 . S
C23 C22 1.383 . S
C23 C24 1.388 . S
C24 H5 0.946 . S
C24 C23 1.388 . S
C24 C25 1.384 . S
C25 C24 1.384 . S
C25 C26 1.377 . S
C26 H6 0.953 . S
C26 C25 1.377 . S
C26 C27 1.369 . S
C27 H7 0.945 . S
C27 C22 1.385 . S
C27 C26 1.369 . S
C28 C20 1.457 . S
C28 C29 1.372 . S
C28 C33 1.364 . S
C29 H8 0.952 . S
C29 C28 1.372 . S
C29 C30 1.389 . S
C30 H9 0.949 . S
C30 C29 1.389 . S
C30 C31 1.387 . S
C31 C30 1.387 . S
C31 C32 1.372 . S
C32 H10 0.950 . S
C32 C31 1.372 . S
C32 C33 1.379 . S
C33 H11 0.948 . S
C33 C28 1.364 . S
C33 C32 1.379 . S
C34 C3 1.383 . S
C34 C21 1.479 . S
C34 C35 1.398 . S
C35 C0 1.382 . S
C35 H12 0.951 . S
C35 C34 1.398 . S
C36 C37 1.384 . S
C36 H49 0.947 . S
C36 C71 1.382 . S
C37 C36 1.384 . S
C37 C38 1.378 . S
C38 C37 1.378 . S
C38 C39 1.378 . S
C38 H50 0.952 . S
C39 C38 1.378 . S
C39 H51 0.950 . S
C39 C70 1.383 . S
H40 C59 0.947 . S
H41 C60 0.946 . S
H42 C62 0.953 . S
H43 C63 0.945 . S
H44 C65 0.952 . S
H45 C66 0.949 . S
H46 C68 0.950 . S
H47 C69 0.948 . S
H48 C71 0.951 . S
H49 C36 0.947 . S
H50 C38 0.952 . S
H51 C39 0.950 . S
N52 C55 1.382 . S
N52 C57 1.363 . S
N53 C55 1.371 . S
N53 C56 1.372 . S
N54 C56 1.361 . S
N54 C57 1.377 . S
C55 N52 1.382 . S
C55 N53 1.371 . S
C55 C58 1.480 . S
C56 N53 1.372 . S
C56 N54 1.361 . S
C56 C64 1.457 . S
C57 N52 1.363 . S
C57 N54 1.377 . S
C57 C70 1.479 . S
C58 C55 1.480 . S
C58 C59 1.383 . S
C58 C63 1.385 . S
C59 H40 0.947 . S
C59 C58 1.383 . S
C59 C60 1.388 . S
C60 H41 0.946 . S
C60 C59 1.388 . S
C60 C61 1.384 . S
C61 C60 1.384 . S
C61 C62 1.377 . S
C62 H42 0.953 . S
C62 C61 1.377 . S
C62 C63 1.369 . S
C63 H43 0.945 . S
C63 C58 1.385 . S
C63 C62 1.369 . S
C64 C56 1.457 . S
C64 C65 1.372 . S
C64 C69 1.364 . S
C65 H44 0.952 . S
C65 C64 1.372 . S
C65 C66 1.389 . S
C66 H45 0.949 . S
C66 C65 1.389 . S
C66 C67 1.387 . S
C67 C66 1.387 . S
C67 C68 1.372 . S
C68 H46 0.950 . S
C68 C67 1.372 . S
C68 C69 1.379 . S
C69 H47 0.948 . S
C69 C64 1.364 . S
C69 C68 1.379 . S
C70 C39 1.383 . S
C70 C57 1.479 . S
C70 C71 1.398 . S
C71 C36 1.382 . S
C71 H48 0.951 . S
C71 C70 1.398 . S
C72 C73 1.384 . S
C72 H85 0.947 . S
C72 C107 1.382 . S
C73 C72 1.384 . S
C73 C74 1.378 . S
C74 C73 1.378 . S
C74 C75 1.378 . S
C74 H86 0.952 . S
C75 C74 1.378 . S
C75 H87 0.950 . S
C75 C106 1.383 . S
H76 C95 0.947 . S
H77 C96 0.946 . S
H78 C98 0.953 . S
H79 C99 0.945 . S
H80 C101 0.952 . S
H81 C102 0.949 . S
H82 C104 0.950 . S
H83 C105 0.948 . S
H84 C107 0.951 . S
H85 C72 0.947 . S
H86 C74 0.952 . S
H87 C75 0.950 . S
N88 C91 1.382 . S
N88 C93 1.363 . S
N89 C91 1.371 . S
N89 C92 1.372 . S
N90 C92 1.361 . S
N90 C93 1.377 . S
C91 N88 1.382 . S
C91 N89 1.371 . S
C91 C94 1.480 . S
C92 N89 1.372 . S
C92 N90 1.361 . S
C92 C100 1.457 . S
C93 N88 1.363 . S
C93 N90 1.377 . S
C93 C106 1.479 . S
C94 C91 1.480 . S
C94 C95 1.383 . S
C94 C99 1.385 . S
C95 H76 0.947 . S
C95 C94 1.383 . S
C95 C96 1.388 . S
C96 H77 0.946 . S
C96 C95 1.388 . S
C96 C97 1.384 . S
C97 C96 1.384 . S
C97 C98 1.377 . S
C98 H78 0.953 . S
C98 C97 1.377 . S
C98 C99 1.369 . S
C99 H79 0.945 . S
C99 C94 1.385 . S
C99 C98 1.369 . S
C100 C92 1.457 . S
C100 C101 1.372 . S
C100 C105 1.364 . S
C101 H80 0.952 . S
C101 C100 1.372 . S
C101 C102 1.389 . S
C102 H81 0.949 . S
C102 C101 1.389 . S
C102 C103 1.387 . S
C103 C102 1.387 . S
C103 C104 1.372 . S
C104 H82 0.950 . S
C104 C103 1.372 . S
C104 C105 1.379 . S
C105 H83 0.948 . S
C105 C100 1.364 . S
C105 C104 1.379 . S
C106 C75 1.383 . S
C106 C93 1.479 . S
C106 C107 1.398 . S
C107 C72 1.382 . S
C107 H84 0.951 . S
C107 C106 1.398 . S
C108 C109 1.384 . S
C108 H121 0.947 . S
C108 C143 1.382 . S
C109 C108 1.384 . S
C109 C110 1.378 . S
C110 C109 1.378 . S
C110 C111 1.378 . S
C110 H122 0.952 . S
C111 C110 1.378 . S
C111 H123 0.950 . S
C111 C142 1.383 . S
H112 C131 0.947 . S
H113 C132 0.946 . S
H114 C134 0.953 . S
H115 C135 0.945 . S
H116 C137 0.952 . S
H117 C138 0.949 . S
H118 C140 0.950 . S
H119 C141 0.948 . S
H120 C143 0.951 . S
H121 C108 0.947 . S
H122 C110 0.952 . S
H123 C111 0.950 . S
N124 C127 1.382 . S
N124 C129 1.363 . S
N125 C127 1.371 . S
N125 C128 1.372 . S
N126 C128 1.361 . S
N126 C129 1.377 . S
C127 N124 1.382 . S
C127 N125 1.371 . S
C127 C130 1.480 . S
C128 N125 1.372 . S
C128 N126 1.361 . S
C128 C136 1.457 . S
C129 N124 1.363 . S
C129 N126 1.377 . S
C129 C142 1.479 . S
C130 C127 1.480 . S
C130 C131 1.383 . S
C130 C135 1.385 . S
C131 H112 0.947 . S
C131 C130 1.383 . S
C131 C132 1.388 . S
C132 H113 0.946 . S
C132 C131 1.388 . S
C132 C133 1.384 . S
C133 C132 1.384 . S
C133 C134 1.377 . S
C134 H114 0.953 . S
C134 C133 1.377 . S
C134 C135 1.369 . S
C135 H115 0.945 . S
C135 C130 1.385 . S
C135 C134 1.369 . S
C136 C128 1.457 . S
C136 C137 1.372 . S
C136 C141 1.364 . S
C137 H116 0.952 . S
C137 C136 1.372 . S
C137 C138 1.389 . S
C138 H117 0.949 . S
C138 C137 1.389 . S
C138 C139 1.387 . S
C139 C138 1.387 . S
C139 C140 1.372 . S
C140 H118 0.950 . S
C140 C139 1.372 . S
C140 C141 1.379 . S
C141 H119 0.948 . S
C141 C136 1.364 . S
C141 C140 1.379 . S
C142 C111 1.383 . S
C142 C129 1.479 . S
C142 C143 1.398 . S
C143 C108 1.382 . S
C143 H120 0.951 . S
C143 C142 1.398 . S
C144 C145 1.384 . S
C144 H157 0.947 . S
C144 C179 1.382 . S
C145 C144 1.384 . S
C145 C146 1.378 . S
C146 C145 1.378 . S
C146 C147 1.378 . S
C146 H158 0.952 . S
C147 C146 1.378 . S
C147 H159 0.950 . S
C147 C178 1.383 . S
H148 C167 0.947 . S
H149 C168 0.946 . S
H150 C170 0.953 . S
H151 C171 0.945 . S
H152 C173 0.952 . S
H153 C174 0.949 . S
H154 C176 0.950 . S
H155 C177 0.948 . S
H156 C179 0.951 . S
H157 C144 0.947 . S
H158 C146 0.952 . S
H159 C147 0.950 . S
N160 C163 1.382 . S
N160 C165 1.363 . S
N161 C163 1.371 . S
N161 C164 1.372 . S
N162 C164 1.361 . S
N162 C165 1.377 . S
C163 N160 1.382 . S
C163 N161 1.371 . S
C163 C166 1.480 . S
C164 N161 1.372 . S
C164 N162 1.361 . S
C164 C172 1.457 . S
C165 N160 1.363 . S
C165 N162 1.377 . S
C165 C178 1.479 . S
C166 C163 1.480 . S
C166 C167 1.383 . S
C166 C171 1.385 . S
C167 H148 0.947 . S
C167 C166 1.383 . S
C167 C168 1.388 . S
C168 H149 0.946 . S
C168 C167 1.388 . S
C168 C169 1.384 . S
C169 C168 1.384 . S
C169 C170 1.377 . S
C170 H150 0.953 . S
C170 C169 1.377 . S
C170 C171 1.369 . S
C171 H151 0.945 . S
C171 C166 1.385 . S
C171 C170 1.369 . S
C172 C164 1.457 . S
C172 C173 1.372 . S
C172 C177 1.364 . S
C173 H152 0.952 . S
C173 C172 1.372 . S
C173 C174 1.389 . S
C174 H153 0.949 . S
C174 C173 1.389 . S
C174 C175 1.387 . S
C175 C174 1.387 . S
C175 C176 1.372 . S
C176 H154 0.950 . S
C176 C175 1.372 . S
C176 C177 1.379 . S
C177 H155 0.948 . S
C177 C172 1.364 . S
C177 C176 1.379 . S
C178 C147 1.383 . S
C178 C165 1.479 . S
C178 C179 1.398 . S
C179 C144 1.382 . S
C179 H156 0.951 . S
C179 C178 1.398 . S
C180 C181 1.384 . S
C180 H193 0.947 . S
C180 C215 1.382 . S
C181 C180 1.384 . S
C181 C182 1.378 . S
C182 C181 1.378 . S
C182 C183 1.378 . S
C182 H194 0.952 . S
C183 C182 1.378 . S
C183 H195 0.950 . S
C183 C214 1.383 . S
H184 C203 0.947 . S
H185 C204 0.946 . S
H186 C206 0.953 . S
H187 C207 0.945 . S
H188 C209 0.952 . S
H189 C210 0.949 . S
H190 C212 0.950 . S
H191 C213 0.948 . S
H192 C215 0.951 . S
H193 C180 0.947 . S
H194 C182 0.952 . S
H195 C183 0.950 . S
N196 C199 1.382 . S
N196 C201 1.363 . S
N197 C199 1.371 . S
N197 C200 1.372 . S
N198 C200 1.361 . S
N198 C201 1.377 . S
C199 N196 1.382 . S
C199 N197 1.371 . S
C199 C202 1.480 . S
C200 N197 1.372 . S
C200 N198 1.361 . S
C200 C208 1.457 . S
C201 N196 1.363 . S
C201 N198 1.377 . S
C201 C214 1.479 . S
C202 C199 1.480 . S
C202 C203 1.383 . S
C202 C207 1.385 . S
C203 H184 0.947 . S
C203 C202 1.383 . S
C203 C204 1.388 . S
C204 H185 0.946 . S
C204 C203 1.388 . S
C204 C205 1.384 . S
C205 C204 1.384 . S
C205 C206 1.377 . S
C206 H186 0.953 . S
C206 C205 1.377 . S
C206 C207 1.369 . S
C207 H187 0.945 . S
C207 C202 1.385 . S
C207 C206 1.369 . S
C208 C200 1.457 . S
C208 C209 1.372 . S
C208 C213 1.364 . S
C209 H188 0.952 . S
C209 C208 1.372 . S
C209 C210 1.389 . S
C210 H189 0.949 . S
C210 C209 1.389 . S
C210 C211 1.387 . S
C211 C210 1.387 . S
C211 C212 1.372 . S
C212 H190 0.950 . S
C212 C211 1.372 . S
C212 C213 1.379 . S
C213 H191 0.948 . S
C213 C208 1.364 . S
C213 C212 1.379 . S
C214 C183 1.383 . S
C214 C201 1.479 . S
C214 C215 1.398 . S
C215 C180 1.382 . S
C215 H192 0.951 . S
C215 C214 1.398 . S
C216 C217 1.384 . S
C216 H229 0.947 . S
C216 C251 1.382 . S
C217 C216 1.384 . S
C217 C218 1.378 . S
C218 C217 1.378 . S
C218 C219 1.378 . S
C218 H230 0.952 . S
C219 C218 1.378 . S
C219 H231 0.950 . S
C219 C250 1.383 . S
H220 C239 0.947 . S
H221 C240 0.946 . S
H222 C242 0.953 . S
H223 C243 0.945 . S
H224 C245 0.952 . S
H225 C246 0.949 . S
H226 C248 0.950 . S
H227 C249 0.948 . S
H228 C251 0.951 . S
H229 C216 0.947 . S
H230 C218 0.952 . S
H231 C219 0.950 . S
N232 C235 1.382 . S
N232 C237 1.363 . S
N233 C235 1.371 . S
N233 C236 1.372 . S
N234 C236 1.361 . S
N234 C237 1.377 . S
C235 N232 1.382 . S
C235 N233 1.371 . S
C235 C238 1.480 . S
C236 N233 1.372 . S
C236 N234 1.361 . S
C236 C244 1.457 . S
C237 N232 1.363 . S
C237 N234 1.377 . S
C237 C250 1.479 . S
C238 C235 1.480 . S
C238 C239 1.383 . S
C238 C243 1.385 . S
C239 H220 0.947 . S
C239 C238 1.383 . S
C239 C240 1.388 . S
C240 H221 0.946 . S
C240 C239 1.388 . S
C240 C241 1.384 . S
C241 C240 1.384 . S
C241 C242 1.377 . S
C242 H222 0.953 . S
C242 C241 1.377 . S
C242 C243 1.369 . S
C243 H223 0.945 . S
C243 C238 1.385 . S
C243 C242 1.369 . S
C244 C236 1.457 . S
C244 C245 1.372 . S
C244 C249 1.364 . S
C245 H224 0.952 . S
C245 C244 1.372 . S
C245 C246 1.389 . S
C246 H225 0.949 . S
C246 C245 1.389 . S
C246 C247 1.387 . S
C247 C246 1.387 . S
C247 C248 1.372 . S
C248 H226 0.950 . S
C248 C247 1.372 . S
C248 C249 1.379 . S
C249 H227 0.948 . S
C249 C244 1.364 . S
C249 C248 1.379 . S
C250 C219 1.383 . S
C250 C237 1.479 . S
C250 C251 1.398 . S
C251 C216 1.382 . S
C251 H228 0.951 . S
C251 C250 1.398 . S
C252 C253 1.384 . S
C252 H265 0.947 . S
C252 C287 1.382 . S
C253 C252 1.384 . S
C253 C254 1.378 . S
C254 C253 1.378 . S
C254 C255 1.378 . S
C254 H266 0.952 . S
C255 C254 1.378 . S
C255 H267 0.950 . S
C255 C286 1.383 . S
H256 C275 0.947 . S
H257 C276 0.946 . S
H258 C278 0.953 . S
H259 C279 0.945 . S
H260 C281 0.952 . S
H261 C282 0.949 . S
H262 C284 0.950 . S
H263 C285 0.948 . S
H264 C287 0.951 . S
H265 C252 0.947 . S
H266 C254 0.952 . S
H267 C255 0.950 . S
N268 C271 1.382 . S
N268 C273 1.363 . S
N269 C271 1.371 . S
N269 C272 1.372 . S
N270 C272 1.361 . S
N270 C273 1.377 . S
C271 N268 1.382 . S
C271 N269 1.371 . S
C271 C274 1.480 . S
C272 N269 1.372 . S
C272 N270 1.361 . S
C272 C280 1.457 . S
C273 N268 1.363 . S
C273 N270 1.377 . S
C273 C286 1.479 . S
C274 C271 1.480 . S
C274 C275 1.383 . S
C274 C279 1.385 . S
C275 H256 0.947 . S
C275 C274 1.383 . S
C275 C276 1.388 . S
C276 H257 0.946 . S
C276 C275 1.388 . S
C276 C277 1.384 . S
C277 C276 1.384 . S
C277 C278 1.377 . S
C278 H258 0.953 . S
C278 C277 1.377 . S
C278 C279 1.369 . S
C279 H259 0.945 . S
C279 C274 1.385 . S
C279 C278 1.369 . S
C280 C272 1.457 . S
C280 C281 1.372 . S
C280 C285 1.364 . S
C281 H260 0.952 . S
C281 C280 1.372 . S
C281 C282 1.389 . S
C282 H261 0.949 . S
C282 C281 1.389 . S
C282 C283 1.387 . S
C283 C282 1.387 . S
C283 C284 1.372 . S
C284 H262 0.950 . S
C284 C283 1.372 . S
C284 C285 1.379 . S
C285 H263 0.948 . S
C285 C280 1.364 . S
C285 C284 1.379 . S
C286 C255 1.383 . S
C286 C273 1.479 . S
C286 C287 1.398 . S
C287 C252 1.382 . S
C287 H264 0.951 . S
C287 C286 1.398 . S
Nd288 C290 2.836 . S
Nd288 O308 2.500 . S
Nd288 O309 2.492 . S
Nd288 O310 2.487 1_565 S
Nd288 O311 2.682 1_565 S
Nd288 O312 2.410 . S
Nd288 O317 2.414 1_455 S
Nd288 O319 2.424 1_565 S
Nd289 C299 2.836 . S
Nd289 O311 2.414 1_655 S
Nd289 O313 2.424 1_545 S
Nd289 O314 2.500 . S
Nd289 O315 2.492 . S
Nd289 O316 2.487 1_545 S
Nd289 O317 2.682 1_545 S
Nd289 O318 2.410 . S
C290 Nd288 2.836 . S
C290 C291 1.498 . S
C290 O308 1.258 . S
C290 O309 1.239 . S
C291 C290 1.498 . S
C291 C292 1.366 . S
C291 C296 1.407 . S
C292 C291 1.366 . S
C292 C293 1.392 . S
C292 H320 0.930 . S
C293 C292 1.392 . S
C293 C294 1.398 . S
C293 H321 0.929 . S
C294 C293 1.398 . S
C294 C295 1.352 . S
C295 C294 1.352 . S
C295 C296 1.384 . S
C295 H322 0.930 . S
C296 C291 1.407 . S
C296 C295 1.384 . S
C296 H323 0.929 . S
C297 O310 1.241 . S
C297 O311 1.273 . S
C298 O312 1.251 1_655 S
C298 O313 1.268 . S
C299 Nd289 2.836 . S
C299 C300 1.498 . S
C299 O314 1.258 . S
C299 O315 1.239 . S
C300 C299 1.498 . S
C300 C301 1.366 . S
C300 C305 1.407 . S
C301 C300 1.366 . S
C301 C302 1.392 . S
C301 H324 0.930 . S
C302 C301 1.392 . S
C302 C303 1.398 . S
C302 H325 0.929 . S
C303 C302 1.398 . S
C303 C304 1.352 . S
C304 C303 1.352 . S
C304 C305 1.384 . S
C304 H326 0.930 . S
C305 C300 1.407 . S
C305 C304 1.384 . S
C305 H327 0.929 . S
C306 O316 1.241 . S
C306 O317 1.273 . S
C307 O318 1.251 1_455 S
C307 O319 1.268 . S
O308 Nd288 2.500 . S
O308 C290 1.258 . S
O309 Nd288 2.492 . S
O309 C290 1.239 . S
O310 Nd288 2.487 1_545 S
O310 C297 1.241 . S
O311 Nd288 2.682 1_545 S
O311 Nd289 2.414 1_455 S
O311 C297 1.273 . S
O312 Nd288 2.410 . S
O312 C298 1.251 1_455 S
O313 Nd289 2.424 1_565 S
O313 C298 1.268 . S
O314 Nd289 2.500 . S
O314 C299 1.258 . S
O315 Nd289 2.492 . S
O315 C299 1.239 . S
O316 Nd289 2.487 1_565 S
O316 C306 1.241 . S
O317 Nd288 2.414 1_655 S
O317 Nd289 2.682 1_565 S
O317 C306 1.273 . S
O318 Nd289 2.410 . S
O318 C307 1.251 1_655 S
O319 Nd288 2.424 1_545 S
O319 C307 1.268 . S
H320 C292 0.930 . S
H321 C293 0.929 . S
H322 C295 0.930 . S
H323 C296 0.929 . S
H324 C301 0.930 . S
H325 C302 0.929 . S
H326 C304 0.930 . S
H327 C305 0.929 . S
Nd328 C330 2.836 . S
Nd328 O348 2.500 . S
Nd328 O349 2.492 . S
Nd328 O350 2.487 1_565 S
Nd328 O351 2.682 1_565 S
Nd328 O352 2.410 1_554 S
Nd328 O357 2.414 1_554 S
Nd328 O359 2.424 1_565 S
Nd329 C339 2.836 . S
Nd329 O351 2.414 1_556 S
Nd329 O353 2.424 1_545 S
Nd329 O354 2.500 . S
Nd329 O355 2.492 . S
Nd329 O356 2.487 1_545 S
Nd329 O357 2.682 1_545 S
Nd329 O358 2.410 1_556 S
C330 Nd328 2.836 . S
C330 C331 1.498 . S
C330 O348 1.258 . S
C330 O349 1.239 . S
C331 C330 1.498 . S
C331 C332 1.366 . S
C331 C336 1.407 . S
C332 C331 1.366 . S
C332 C333 1.392 . S
C332 H360 0.930 . S
C333 C332 1.392 . S
C333 C334 1.398 . S
C333 H361 0.929 . S
C334 C333 1.398 . S
C334 C335 1.352 . S
C335 C334 1.352 . S
C335 C336 1.384 . S
C335 H362 0.930 . S
C336 C331 1.407 . S
C336 C335 1.384 . S
C336 H363 0.929 . S
C337 O350 1.241 . S
C337 O351 1.273 . S
C338 O352 1.251 . S
C338 O353 1.268 . S
C339 Nd329 2.836 . S
C339 C340 1.498 . S
C339 O354 1.258 . S
C339 O355 1.239 . S
C340 C339 1.498 . S
C340 C341 1.366 . S
C340 C345 1.407 . S
C341 C340 1.366 . S
C341 C342 1.392 . S
C341 H364 0.930 . S
C342 C341 1.392 . S
C342 C343 1.398 . S
C342 H365 0.929 . S
C343 C342 1.398 . S
C343 C344 1.352 . S
C344 C343 1.352 . S
C344 C345 1.384 . S
C344 H366 0.930 . S
C345 C340 1.407 . S
C345 C344 1.384 . S
C345 H367 0.929 . S
C346 O356 1.241 . S
C346 O357 1.273 . S
C347 O358 1.251 . S
C347 O359 1.268 . S
O348 Nd328 2.500 . S
O348 C330 1.258 . S
O349 Nd328 2.492 . S
O349 C330 1.239 . S
O350 Nd328 2.487 1_545 S
O350 C337 1.241 . S
O351 Nd328 2.682 1_545 S
O351 Nd329 2.414 1_554 S
O351 C337 1.273 . S
O352 Nd328 2.410 1_556 S
O352 C338 1.251 . S
O353 Nd329 2.424 1_565 S
O353 C338 1.268 . S
O354 Nd329 2.500 . S
O354 C339 1.258 . S
O355 Nd329 2.492 . S
O355 C339 1.239 . S
O356 Nd329 2.487 1_565 S
O356 C346 1.241 . S
O357 Nd328 2.414 1_556 S
O357 Nd329 2.682 1_565 S
O357 C346 1.273 . S
O358 Nd329 2.410 1_554 S
O358 C347 1.251 . S
O359 Nd328 2.424 1_545 S
O359 C347 1.268 . S
H360 C332 0.930 . S
H361 C333 0.929 . S
H362 C335 0.930 . S
H363 C336 0.929 . S
H364 C341 0.930 . S
H365 C342 0.929 . S
H366 C344 0.930 . S
H367 C345 0.929 . S
Nd368 C370 2.836 . S
Nd368 O388 2.500 . S
Nd368 O389 2.492 . S
Nd368 O390 2.487 . S
Nd368 O391 2.682 . S
Nd368 O392 2.410 . S
Nd368 O397 2.414 . S
Nd368 O399 2.424 . S
Nd369 C379 2.836 . S
Nd369 O391 2.414 . S
Nd369 O393 2.424 . S
Nd369 O394 2.500 . S
Nd369 O395 2.492 . S
Nd369 O396 2.487 . S
Nd369 O397 2.682 . S
Nd369 O398 2.410 . S
C370 Nd368 2.836 . S
C370 C371 1.498 . S
C370 O388 1.258 . S
C370 O389 1.239 . S
C371 C370 1.498 . S
C371 C372 1.366 . S
C371 C376 1.407 . S
C372 C371 1.366 . S
C372 C373 1.392 . S
C372 H400 0.930 . S
C373 C372 1.392 . S
C373 C374 1.398 . S
C373 H401 0.929 . S
C374 C373 1.398 . S
C374 C375 1.352 . S
C375 C374 1.352 . S
C375 C376 1.384 . S
C375 H402 0.930 . S
C376 C371 1.407 . S
C376 C375 1.384 . S
C376 H403 0.929 . S
C377 O390 1.241 . S
C377 O391 1.273 . S
C378 O392 1.251 . S
C378 O393 1.268 . S
C379 Nd369 2.836 . S
C379 C380 1.498 . S
C379 O394 1.258 . S
C379 O395 1.239 . S
C380 C379 1.498 . S
C380 C381 1.366 . S
C380 C385 1.407 . S
C381 C380 1.366 . S
C381 C382 1.392 . S
C381 H404 0.930 . S
C382 C381 1.392 . S
C382 C383 1.398 . S
C382 H405 0.929 . S
C383 C382 1.398 . S
C383 C384 1.352 . S
C384 C383 1.352 . S
C384 C385 1.384 . S
C384 H406 0.930 . S
C385 C380 1.407 . S
C385 C384 1.384 . S
C385 H407 0.929 . S
C386 O396 1.241 . S
C386 O397 1.273 . S
C387 O398 1.251 . S
C387 O399 1.268 . S
O388 Nd368 2.500 . S
O388 C370 1.258 . S
O389 Nd368 2.492 . S
O389 C370 1.239 . S
O390 Nd368 2.487 . S
O390 C377 1.241 . S
O391 Nd368 2.682 . S
O391 Nd369 2.414 . S
O391 C377 1.273 . S
O392 Nd368 2.410 . S
O392 C378 1.251 . S
O393 Nd369 2.424 . S
O393 C378 1.268 . S
O394 Nd369 2.500 . S
O394 C379 1.258 . S
O395 Nd369 2.492 . S
O395 C379 1.239 . S
O396 Nd369 2.487 . S
O396 C386 1.241 . S
O397 Nd368 2.414 . S
O397 Nd369 2.682 . S
O397 C386 1.273 . S
O398 Nd369 2.410 . S
O398 C387 1.251 . S
O399 Nd368 2.424 . S
O399 C387 1.268 . S
H400 C372 0.930 . S
H401 C373 0.929 . S
H402 C375 0.930 . S
H403 C376 0.929 . S
H404 C381 0.930 . S
H405 C382 0.929 . S
H406 C384 0.930 . S
H407 C385 0.929 . S
Nd408 C410 2.836 . S
Nd408 O428 2.500 . S
Nd408 O429 2.492 . S
Nd408 O430 2.487 1_655 S
Nd408 O431 2.682 1_655 S
Nd408 O432 2.410 . S
Nd408 O437 2.414 1_554 S
Nd408 O439 2.424 1_655 S
Nd409 C419 2.836 . S
Nd409 O431 2.414 1_556 S
Nd409 O433 2.424 1_455 S
Nd409 O434 2.500 . S
Nd409 O435 2.492 . S
Nd409 O436 2.487 1_455 S
Nd409 O437 2.682 1_455 S
Nd409 O438 2.410 . S
C410 Nd408 2.836 . S
C410 C411 1.498 . S
C410 O428 1.258 . S
C410 O429 1.239 . S
C411 C410 1.498 . S
C411 C412 1.366 . S
C411 C416 1.407 . S
C412 C411 1.366 . S
C412 C413 1.392 . S
C412 H440 0.930 . S
C413 C412 1.392 . S
C413 C414 1.398 . S
C413 H441 0.929 . S
C414 C413 1.398 . S
C414 C415 1.352 . S
C415 C414 1.352 . S
C415 C416 1.384 . S
C415 H442 0.930 . S
C416 C411 1.407 . S
C416 C415 1.384 . S
C416 H443 0.929 . S
C417 O430 1.241 . S
C417 O431 1.273 . S
C418 O432 1.251 1_556 S
C418 O433 1.268 . S
C419 Nd409 2.836 . S
C419 C420 1.498 . S
C419 O434 1.258 . S
C419 O435 1.239 . S
C420 C419 1.498 . S
C420 C421 1.366 . S
C420 C425 1.407 . S
C421 C420 1.366 . S
C421 C422 1.392 . S
C421 H444 0.930 . S
C422 C421 1.392 . S
C422 C423 1.398 . S
C422 H445 0.929 . S
C423 C422 1.398 . S
C423 C424 1.352 . S
C424 C423 1.352 . S
C424 C425 1.384 . S
C424 H446 0.930 . S
C425 C420 1.407 . S
C425 C424 1.384 . S
C425 H447 0.929 . S
C426 O436 1.241 . S
C426 O437 1.273 . S
C427 O438 1.251 1_554 S
C427 O439 1.268 . S
O428 Nd408 2.500 . S
O428 C410 1.258 . S
O429 Nd408 2.492 . S
O429 C410 1.239 . S
O430 Nd408 2.487 1_455 S
O430 C417 1.241 . S
O431 Nd408 2.682 1_455 S
O431 Nd409 2.414 1_554 S
O431 C417 1.273 . S
O432 Nd408 2.410 . S
O432 C418 1.251 1_554 S
O433 Nd409 2.424 1_655 S
O433 C418 1.268 . S
O434 Nd409 2.500 . S
O434 C419 1.258 . S
O435 Nd409 2.492 . S
O435 C419 1.239 . S
O436 Nd409 2.487 1_655 S
O436 C426 1.241 . S
O437 Nd408 2.414 1_556 S
O437 Nd409 2.682 1_655 S
O437 C426 1.273 . S
O438 Nd409 2.410 . S
O438 C427 1.251 1_556 S
O439 Nd408 2.424 1_455 S
O439 C427 1.268 . S
H440 C412 0.930 . S
H441 C413 0.929 . S
H442 C415 0.930 . S
H443 C416 0.929 . S
H444 C421 0.930 . S
H445 C422 0.929 . S
H446 C424 0.930 . S
H447 C425 0.929 . S
C448 C449 1.369 . S
C448 C450 1.419 . S
C448 H452 0.930 . S
C449 C448 1.369 . S
C449 C458 1.429 . S
C450 C448 1.419 . S
C450 C451 1.363 . S
C450 H453 0.929 . S
C451 C450 1.363 . S
C451 C457 1.428 . S
H452 C448 0.930 . S
H453 C450 0.929 . S
S454 N455 1.613 . S
S454 N456 1.610 . S
N455 S454 1.613 . S
N455 C458 1.350 . S
N456 S454 1.610 . S
N456 C457 1.351 . S
C457 C451 1.428 . S
C457 N456 1.351 . S
C457 C458 1.434 . S
C458 C449 1.429 . S
C458 N455 1.350 . S
C458 C457 1.434 . S
C459 C460 1.369 . S
C459 C461 1.419 . S
C459 H463 0.930 . S
C460 C459 1.369 . S
C460 C469 1.429 . S
C461 C459 1.419 . S
C461 C462 1.363 . S
C461 H464 0.929 . S
C462 C461 1.363 . S
C462 C468 1.428 . S
H463 C459 0.930 . S
H464 C461 0.929 . S
S465 N466 1.613 . S
S465 N467 1.610 . S
N466 S465 1.613 . S
N466 C469 1.350 . S
N467 S465 1.610 . S
N467 C468 1.351 . S
C468 C462 1.428 . S
C468 N467 1.351 . S
C468 C469 1.434 . S
C469 C460 1.429 . S
C469 N466 1.350 . S
C469 C468 1.434 . S
C470 C471 1.369 . S
C470 C472 1.419 . S
C470 H474 0.930 . S
C471 C470 1.369 . S
C471 C480 1.429 . S
C472 C470 1.419 . S
C472 C473 1.363 . S
C472 H475 0.929 . S
C473 C472 1.363 . S
C473 C479 1.428 . S
H474 C470 0.930 . S
H475 C472 0.929 . S
S476 N477 1.613 . S
S476 N478 1.610 . S
N477 S476 1.613 . S
N477 C480 1.350 . S
N478 S476 1.610 . S
N478 C479 1.351 . S
C479 C473 1.428 . S
C479 N478 1.351 . S
C479 C480 1.434 . S
C480 C471 1.429 . S
C480 N477 1.350 . S
C480 C479 1.434 . S
C481 C482 1.369 . S
C481 C483 1.419 . S
C481 H485 0.930 . S
C482 C481 1.369 . S
C482 C491 1.429 . S
C483 C481 1.419 . S
C483 C484 1.363 . S
C483 H486 0.929 . S
C484 C483 1.363 . S
C484 C490 1.428 . S
H485 C481 0.930 . S
H486 C483 0.929 . S
S487 N488 1.613 . S
S487 N489 1.610 . S
N488 S487 1.613 . S
N488 C491 1.350 . S
N489 S487 1.610 . S
N489 C490 1.351 . S
C490 C484 1.428 . S
C490 N489 1.351 . S
C490 C491 1.434 . S
C491 C482 1.429 . S
C491 N488 1.350 . S
C491 C490 1.434 . S
C492 C493 1.369 . S
C492 C494 1.419 . S
C492 H496 0.930 . S
C493 C492 1.369 . S
C493 C502 1.429 . S
C494 C492 1.419 . S
C494 C495 1.363 . S
C494 H497 0.929 . S
C495 C494 1.363 . S
C495 C501 1.428 . S
H496 C492 0.930 . S
H497 C494 0.929 . S
S498 N499 1.613 . S
S498 N500 1.610 . S
N499 S498 1.613 . S
N499 C502 1.350 1_556 S
N500 S498 1.610 . S
N500 C501 1.351 1_556 S
C501 C495 1.428 . S
C501 N500 1.351 1_554 S
C501 C502 1.434 . S
C502 C493 1.429 . S
C502 N499 1.350 1_554 S
C502 C501 1.434 . S
C503 C504 1.369 . S
C503 C505 1.419 . S
C503 H507 0.930 . S
C504 C503 1.369 . S
C504 C513 1.429 . S
C505 C503 1.419 . S
C505 C506 1.363 . S
C505 H508 0.929 . S
C506 C505 1.363 . S
C506 C512 1.428 . S
H507 C503 0.930 . S
H508 C505 0.929 . S
S509 N510 1.613 . S
S509 N511 1.610 . S
N510 S509 1.613 . S
N510 C513 1.350 . S
N511 S509 1.610 . S
N511 C512 1.351 . S
C512 C506 1.428 . S
C512 N511 1.351 . S
C512 C513 1.434 . S
C513 C504 1.429 . S
C513 N510 1.350 . S
C513 C512 1.434 . S
C514 C515 1.369 . S
C514 C516 1.419 . S
C514 H518 0.930 . S
C515 C514 1.369 . S
C515 C524 1.429 . S
C516 C514 1.419 . S
C516 C517 1.363 . S
C516 H519 0.929 . S
C517 C516 1.363 . S
C517 C523 1.428 . S
H518 C514 0.930 . S
H519 C516 0.929 . S
S520 N521 1.613 . S
S520 N522 1.610 . S
N521 S520 1.613 . S
N521 C524 1.350 . S
N522 S520 1.610 . S
N522 C523 1.351 . S
C523 C517 1.428 . S
C523 N522 1.351 . S
C523 C524 1.434 . S
C524 C515 1.429 . S
C524 N521 1.350 . S
C524 C523 1.434 . S
C525 C526 1.369 . S
C525 C527 1.419 . S
C525 H529 0.930 . S
C526 C525 1.369 . S
C526 C535 1.429 . S
C527 C525 1.419 . S
C527 C528 1.363 . S
C527 H530 0.929 . S
C528 C527 1.363 . S
C528 C534 1.428 . S
H529 C525 0.930 . S
H530 C527 0.929 . S
S531 N532 1.613 . S
S531 N533 1.610 . S
N532 S531 1.613 . S
N532 C535 1.350 . S
N533 S531 1.610 . S
N533 C534 1.351 . S
C534 C528 1.428 . S
C534 N533 1.351 . S
C534 C535 1.434 . S
C535 C526 1.429 . S
C535 N532 1.350 . S
C535 C534 1.434 . S
C536 C537 1.369 . S
C536 C538 1.419 . S
C536 H540 0.930 . S
C537 C536 1.369 . S
C537 C546 1.429 . S
C538 C536 1.419 . S
C538 C539 1.363 . S
C538 H541 0.929 . S
C539 C538 1.363 . S
C539 C545 1.428 . S
H540 C536 0.930 . S
H541 C538 0.929 . S
S542 N543 1.613 . S
S542 N544 1.610 . S
N543 S542 1.613 . S
N543 C546 1.350 1_556 S
N544 S542 1.610 . S
N544 C545 1.351 1_556 S
C545 C539 1.428 . S
C545 N544 1.351 1_554 S
C545 C546 1.434 . S
C546 C537 1.429 . S
C546 N543 1.350 1_554 S
C546 C545 1.434 . S
C547 C548 1.369 . S
C547 C549 1.419 . S
C547 H551 0.930 . S
C548 C547 1.369 . S
C548 C557 1.429 . S
C549 C547 1.419 . S
C549 C550 1.363 . S
C549 H552 0.929 . S
C550 C549 1.363 . S
C550 C556 1.428 . S
H551 C547 0.930 . S
H552 C549 0.929 . S
S553 N554 1.613 . S
S553 N555 1.610 . S
N554 S553 1.613 . S
N554 C557 1.350 . S
N555 S553 1.610 . S
N555 C556 1.351 . S
C556 C550 1.428 . S
C556 N555 1.351 . S
C556 C557 1.434 . S
C557 C548 1.429 . S
C557 N554 1.350 . S
C557 C556 1.434 . S
C558 C559 1.369 . S
C558 C560 1.419 . S
C558 H562 0.930 . S
C559 C558 1.369 . S
C559 C568 1.429 . S
C560 C558 1.419 . S
C560 C561 1.363 . S
C560 H563 0.929 . S
C561 C560 1.363 . S
C561 C567 1.428 . S
H562 C558 0.930 . S
H563 C560 0.929 . S
S564 N565 1.613 . S
S564 N566 1.608 1_655 S
N565 S564 1.613 . S
N565 C568 1.350 . S
N566 S564 1.608 1_455 S
N566 C567 1.333 1_455 S
C567 C561 1.428 . S
C567 N566 1.333 1_655 S
C567 C568 1.434 . S
C568 C559 1.429 . S
C568 N565 1.350 . S
C568 C567 1.434 . S
C569 C570 1.369 . S
C569 C571 1.419 . S
C569 H573 0.930 . S
C570 C569 1.369 . S
C570 C579 1.429 . S
C571 C569 1.419 . S
C571 C572 1.363 . S
C571 H574 0.929 . S
C572 C571 1.363 . S
C572 C578 1.428 . S
H573 C569 0.930 . S
H574 C571 0.929 . S
S575 N576 1.613 . S
S575 N577 1.610 . S
N576 S575 1.613 . S
N576 C579 1.350 . S
N577 S575 1.610 . S
N577 C578 1.351 . S
C578 C572 1.428 . S
C578 N577 1.351 . S
C578 C579 1.434 . S
C579 C570 1.429 . S
C579 N576 1.350 . S
C579 C578 1.434 . S
C580 C581 1.369 . S
C580 C582 1.419 . S
C580 H584 0.930 . S
C581 C580 1.369 . S
C581 C590 1.429 . S
C582 C580 1.419 . S
C582 C583 1.363 . S
C582 H585 0.929 . S
C583 C582 1.363 . S
C583 C589 1.428 . S
H584 C580 0.930 . S
H585 C582 0.929 . S
S586 N587 1.613 . S
S586 N588 1.610 . S
N587 S586 1.613 . S
N587 C590 1.350 . S
N588 S586 1.610 . S
N588 C589 1.351 . S
C589 C583 1.428 . S
C589 N588 1.351 . S
C589 C590 1.434 . S
C590 C581 1.429 . S
C590 N587 1.350 . S
C590 C589 1.434 . S
C591 C592 1.369 . S
C591 C593 1.419 . S
C591 H595 0.930 . S
C592 C591 1.369 . S
C592 C601 1.429 . S
C593 C591 1.419 . S
C593 C594 1.363 . S
C593 H596 0.929 . S
C594 C593 1.363 . S
C594 C600 1.428 . S
H595 C591 0.930 . S
H596 C593 0.929 . S
S597 N598 1.613 . S
S597 N599 1.610 . S
N598 S597 1.613 . S
N598 C601 1.350 . S
N599 S597 1.610 . S
N599 C600 1.351 . S
C600 C594 1.428 . S
C600 N599 1.351 . S
C600 C601 1.434 . S
C601 C592 1.429 . S
C601 N598 1.350 . S
C601 C600 1.434 . S
C602 C603 1.369 . S
C602 C604 1.419 . S
C602 H606 0.930 . S
C603 C602 1.369 . S
C603 C612 1.429 . S
C604 C602 1.419 . S
C604 C605 1.363 . S
C604 H607 0.929 . S
C605 C604 1.363 . S
C605 C611 1.428 . S
H606 C602 0.930 . S
H607 C604 0.929 . S
S608 N609 1.613 . S
S608 N610 1.610 . S
N609 S608 1.613 . S
N609 C612 1.350 . S
N610 S608 1.610 . S
N610 C611 1.351 . S
C611 C605 1.428 . S
C611 N610 1.351 . S
C611 C612 1.434 . S
C612 C603 1.429 . S
C612 N609 1.350 . S
C612 C611 1.434 . S
C613 C614 1.369 . S
C613 C615 1.419 . S
C613 H617 0.930 . S
C614 C613 1.369 . S
C614 C623 1.429 . S
C615 C613 1.419 . S
C615 C616 1.363 . S
C615 H618 0.929 . S
C616 C615 1.363 . S
C616 C622 1.428 . S
H617 C613 0.930 . S
H618 C615 0.929 . S
S619 N620 1.613 . S
S619 N621 1.610 . S
N620 S619 1.613 . S
N620 C623 1.350 . S
N621 S619 1.610 . S
N621 C622 1.351 . S
C622 C616 1.428 . S
C622 N621 1.351 . S
C622 C623 1.434 . S
C623 C614 1.429 . S
C623 N620 1.350 . S
C623 C622 1.434 . S
C624 C625 1.369 . S
C624 C626 1.419 . S
C624 H628 0.930 . S
C625 C624 1.369 . S
C625 C634 1.429 . S
C626 C624 1.419 . S
C626 C627 1.363 . S
C626 H629 0.929 . S
C627 C626 1.363 . S
C627 C633 1.428 . S
H628 C624 0.930 . S
H629 C626 0.929 . S
S630 N631 1.613 . S
S630 N632 1.610 . S
N631 S630 1.613 . S
N631 C634 1.350 . S
N632 S630 1.610 . S
N632 C633 1.351 . S
C633 C627 1.428 . S
C633 N632 1.351 . S
C633 C634 1.434 . S
C634 C625 1.429 . S
C634 N631 1.350 . S
C634 C633 1.434 . S
C635 C636 1.369 . S
C635 C637 1.419 . S
C635 H639 0.930 . S
C636 C635 1.369 . S
C636 C645 1.429 . S
C637 C635 1.419 . S
C637 C638 1.363 . S
C637 H640 0.929 . S
C638 C637 1.363 . S
C638 C644 1.428 . S
H639 C635 0.930 . S
H640 C637 0.929 . S
S641 N642 1.613 . S
S641 N643 1.610 . S
N642 S641 1.613 . S
N642 C645 1.350 . S
N643 S641 1.610 . S
N643 C644 1.351 . S
C644 C638 1.428 . S
C644 N643 1.351 . S
C644 C645 1.434 . S
C645 C636 1.429 . S
C645 N642 1.350 . S
C645 C644 1.434 . S
C646 C647 1.369 . S
C646 C648 1.419 . S
C646 H650 0.930 . S
C647 C646 1.369 . S
C647 C656 1.429 . S
C648 C646 1.419 . S
C648 C649 1.363 . S
C648 H651 0.929 . S
C649 C648 1.363 . S
C649 C655 1.428 . S
H650 C646 0.930 . S
H651 C648 0.929 . S
S652 N653 1.613 1_556 S
S652 N654 1.610 . S
N653 S652 1.613 1_554 S
N653 C656 1.350 . S
N654 S652 1.610 . S
N654 C655 1.351 1_556 S
C655 C649 1.428 . S
C655 N654 1.351 1_554 S
C655 C656 1.434 . S
C656 C647 1.429 . S
C656 N653 1.350 . S
C656 C655 1.434 . S
C657 C658 1.369 . S
C657 C659 1.419 . S
C657 H661 0.930 . S
C658 C657 1.369 . S
C658 C667 1.429 . S
C659 C657 1.419 . S
C659 C660 1.363 . S
C659 H662 0.929 . S
C660 C659 1.363 . S
C660 C666 1.428 . S
H661 C657 0.930 . S
H662 C659 0.929 . S
S663 N664 1.613 . S
S663 N665 1.610 . S
N664 S663 1.613 . S
N664 C667 1.350 . S
N665 S663 1.610 . S
N665 C666 1.351 . S
C666 C660 1.428 . S
C666 N665 1.351 . S
C666 C667 1.434 . S
C667 C658 1.429 . S
C667 N664 1.350 . S
C667 C666 1.434 . S
C668 C669 1.369 . S
C668 C670 1.420 . S
C668 H672 0.930 1_556 S
C669 C668 1.369 . S
C669 C678 1.429 . S
C670 C668 1.420 . S
C670 C671 1.371 . S
C670 H673 0.919 1_556 S
C671 C670 1.371 . S
C671 C677 1.428 . S
H672 C668 0.930 1_554 S
H673 C670 0.919 1_554 S
S674 N675 1.613 . S
S674 N676 1.610 . S
N675 S674 1.613 . S
N675 C678 1.350 . S
N676 S674 1.610 . S
N676 C677 1.351 . S
C677 C671 1.428 . S
C677 N676 1.351 . S
C677 C678 1.434 . S
C678 C669 1.429 . S
C678 N675 1.350 . S
C678 C677 1.434 . S
C679 C680 1.369 . S
C679 C681 1.419 . S
C679 H683 0.930 . S
C680 C679 1.369 . S
C680 C689 1.429 . S
C681 C679 1.419 . S
C681 C682 1.363 . S
C681 H684 0.929 . S
C682 C681 1.363 . S
C682 C688 1.428 . S
H683 C679 0.930 . S
H684 C681 0.929 . S
S685 N686 1.613 . S
S685 N687 1.610 . S
N686 S685 1.613 . S
N686 C689 1.350 . S
N687 S685 1.610 . S
N687 C688 1.351 . S
C688 C682 1.428 . S
C688 N687 1.351 . S
C688 C689 1.434 . S
C689 C680 1.429 . S
C689 N686 1.350 . S
C689 C688 1.434 . S
C690 C691 1.369 . S
C690 C692 1.419 . S
C690 H694 0.930 . S
C691 C690 1.369 . S
C691 C700 1.429 . S
C692 C690 1.419 . S
C692 C693 1.363 . S
C692 H695 0.929 . S
C693 C692 1.363 . S
C693 C699 1.428 . S
H694 C690 0.930 . S
H695 C692 0.929 . S
S696 N697 1.613 . S
S696 N698 1.610 . S
N697 S696 1.613 . S
N697 C700 1.350 . S
N698 S696 1.610 . S
N698 C699 1.351 . S
C699 C693 1.428 . S
C699 N698 1.351 . S
C699 C700 1.434 . S
C700 C691 1.429 . S
C700 N697 1.350 . S
C700 C699 1.434 . S
C701 C702 1.369 . S
C701 C703 1.419 . S
C701 H705 0.930 . S
C702 C701 1.369 . S
C702 C711 1.429 . S
C703 C701 1.419 . S
C703 C704 1.363 . S
C703 H706 0.929 . S
C704 C703 1.363 . S
C704 C710 1.428 . S
H705 C701 0.930 . S
H706 C703 0.929 . S
S707 N708 1.613 . S
S707 N709 1.610 . S
N708 S707 1.613 . S
N708 C711 1.350 . S
N709 S707 1.610 . S
N709 C710 1.351 . S
C710 C704 1.428 . S
C710 N709 1.351 . S
C710 C711 1.434 . S
C711 C702 1.429 . S
C711 N708 1.350 . S
C711 C710 1.434 . S
C449 C1 2.861 . S
C451 C307 2.840 . S
C460 C67 2.512 . S
C462 C338 2.631 . S
C473 C377 1.497 . S
C471 C97 1.478 . S
C482 C133 0.705 . S
C484 C414 0.705 . S
C495 C337 2.789 . S
C493 C25 2.857 . S
C506 C294 1.453 . S
C504 C37 1.435 . S
C517 C426 1.540 . S
C515 C103 1.566 . S
C528 C383 1.316 . S
C526 C109 1.287 . S
C537 C31 2.302 . S
C539 C427 2.324 . S
C550 C343 1.327 . S
C548 C73 1.320 . S
C559 C139 0.624 . S
C561 C306 0.686 . S
C570 C61 2.532 . S
C572 C378 2.540 . S
C583 C298 2.849 . S
C581 C175 2.881 . S
C592 C181 2.510 . S
C594 C347 2.621 . S
C603 C247 1.524 . S
C605 C386 1.503 . S
C614 C277 0.687 . S
C616 C423 0.703 . S
C625 C145 2.873 . S
C627 C346 2.780 . S
C638 C303 1.464 . S
C636 C211 1.437 . S
C649 C417 1.536 . S
C647 C217 1.574 . S
C660 C374 1.321 . S
C658 C283 1.342 . S
C669 C169 2.303 . S
C671 C418 2.317 . S
C682 C334 1.317 . S
C680 C241 1.319 . S
C693 C297 0.690 . S
C691 C253 0.630 . S
C702 C205 2.523 . S
C704 C387 2.546 . S
