# Generated by pormake.
# Topology eea, (3,6)-cn, num edge types: 1
# Building blocks:
#     Node 0, Type 0, BuildingBlock: BELTOD_clean_linker_0, # of connection points: 3
#     Node 1, Type 0, BuildingBlock: BELTOD_clean_linker_0, # of connection points: 3
#     Node 2, Type 0, BuildingBlock: BELTOD_clean_linker_0, # of connection points: 3
#     Node 3, Type 0, BuildingBlock: BELTOD_clean_linker_0, # of connection points: 3
#     Node 4, Type 0, BuildingBlock: BELTOD_clean_linker_0, # of connection points: 3
#     Node 5, Type 0, BuildingBlock: BELTOD_clean_linker_0, # of connection points: 3
#     Node 6, Type 0, BuildingBlock: BELTOD_clean_linker_0, # of connection points: 3
#     Node 7, Type 0, BuildingBlock: BELTOD_clean_linker_0, # of connection points: 3
#     Node 8, Type 0, BuildingBlock: BELTOD_clean_linker_0, # of connection points: 3
#     Node 9, Type 0, BuildingBlock: BELTOD_clean_linker_0, # of connection points: 3
#     Node 10, Type 0, BuildingBlock: BELTOD_clean_linker_0, # of connection points: 3
#     Node 11, Type 0, BuildingBlock: BELTOD_clean_linker_0, # of connection points: 3
#     Node 12, Type 0, BuildingBlock: BELTOD_clean_linker_0, # of connection points: 3
#     Node 13, Type 0, BuildingBlock: BELTOD_clean_linker_0, # of connection points: 3
#     Node 14, Type 0, BuildingBlock: BELTOD_clean_linker_0, # of connection points: 3
#     Node 15, Type 0, BuildingBlock: BELTOD_clean_linker_0, # of connection points: 3
#     Node 16, Type 0, BuildingBlock: BELTOD_clean_linker_0, # of connection points: 3
#     Node 17, Type 0, BuildingBlock: BELTOD_clean_linker_0, # of connection points: 3
#     Node 18, Type 1, BuildingBlock: NUHQIS_clean_sbu_0, # of connection points: 6
#     Node 19, Type 1, BuildingBlock: NUHQIS_clean_sbu_0, # of connection points: 6
#     Node 20, Type 1, BuildingBlock: NUHQIS_clean_sbu_0, # of connection points: 6
#     Node 21, Type 1, BuildingBlock: NUHQIS_clean_sbu_0, # of connection points: 6
#     Node 22, Type 1, BuildingBlock: NUHQIS_clean_sbu_0, # of connection points: 6
#     Node 23, Type 1, BuildingBlock: NUHQIS_clean_sbu_0, # of connection points: 6
#     Node 24, Type 1, BuildingBlock: NUHQIS_clean_sbu_0, # of connection points: 6
#     Node 25, Type 1, BuildingBlock: NUHQIS_clean_sbu_0, # of connection points: 6
#     Node 26, Type 1, BuildingBlock: NUHQIS_clean_sbu_0, # of connection points: 6
#     Edge 27, Type (0, 1), BuildingBlock: AJUNOK_clean_linker_0, # of connection points: 2
#     Edge 28, Type (0, 1), BuildingBlock: AJUNOK_clean_linker_0, # of connection points: 2
#     Edge 29, Type (0, 1), BuildingBlock: AJUNOK_clean_linker_0, # of connection points: 2
#     Edge 30, Type (0, 1), BuildingBlock: AJUNOK_clean_linker_0, # of connection points: 2
#     Edge 31, Type (0, 1), BuildingBlock: AJUNOK_clean_linker_0, # of connection points: 2
#     Edge 32, Type (0, 1), BuildingBlock: AJUNOK_clean_linker_0, # of connection points: 2
#     Edge 33, Type (0, 1), BuildingBlock: AJUNOK_clean_linker_0, # of connection points: 2
#     Edge 34, Type (0, 1), BuildingBlock: AJUNOK_clean_linker_0, # of connection points: 2
#     Edge 35, Type (0, 1), BuildingBlock: AJUNOK_clean_linker_0, # of connection points: 2
#     Edge 36, Type (0, 1), BuildingBlock: AJUNOK_clean_linker_0, # of connection points: 2
#     Edge 37, Type (0, 1), BuildingBlock: AJUNOK_clean_linker_0, # of connection points: 2
#     Edge 38, Type (0, 1), BuildingBlock: AJUNOK_clean_linker_0, # of connection points: 2
#     Edge 39, Type (0, 1), BuildingBlock: AJUNOK_clean_linker_0, # of connection points: 2
#     Edge 40, Type (0, 1), BuildingBlock: AJUNOK_clean_linker_0, # of connection points: 2
#     Edge 41, Type (0, 1), BuildingBlock: AJUNOK_clean_linker_0, # of connection points: 2
#     Edge 42, Type (0, 1), BuildingBlock: AJUNOK_clean_linker_0, # of connection points: 2
#     Edge 43, Type (0, 1), BuildingBlock: AJUNOK_clean_linker_0, # of connection points: 2
#     Edge 44, Type (0, 1), BuildingBlock: AJUNOK_clean_linker_0, # of connection points: 2
#     Edge 45, Type (0, 1), BuildingBlock: AJUNOK_clean_linker_0, # of connection points: 2
#     Edge 46, Type (0, 1), BuildingBlock: AJUNOK_clean_linker_0, # of connection points: 2
#     Edge 47, Type (0, 1), BuildingBlock: AJUNOK_clean_linker_0, # of connection points: 2
#     Edge 48, Type (0, 1), BuildingBlock: AJUNOK_clean_linker_0, # of connection points: 2
#     Edge 49, Type (0, 1), BuildingBlock: AJUNOK_clean_linker_0, # of connection points: 2
#     Edge 50, Type (0, 1), BuildingBlock: AJUNOK_clean_linker_0, # of connection points: 2
#     Edge 51, Type (0, 1), BuildingBlock: AJUNOK_clean_linker_0, # of connection points: 2
#     Edge 52, Type (0, 1), BuildingBlock: AJUNOK_clean_linker_0, # of connection points: 2
#     Edge 53, Type (0, 1), BuildingBlock: AJUNOK_clean_linker_0, # of connection points: 2
#     Edge 54, Type (0, 1), BuildingBlock: AJUNOK_clean_linker_0, # of connection points: 2
#     Edge 55, Type (0, 1), BuildingBlock: AJUNOK_clean_linker_0, # of connection points: 2
#     Edge 56, Type (0, 1), BuildingBlock: AJUNOK_clean_linker_0, # of connection points: 2
#     Edge 57, Type (0, 1), BuildingBlock: AJUNOK_clean_linker_0, # of connection points: 2
#     Edge 58, Type (0, 1), BuildingBlock: AJUNOK_clean_linker_0, # of connection points: 2
#     Edge 59, Type (0, 1), BuildingBlock: AJUNOK_clean_linker_0, # of connection points: 2
#     Edge 60, Type (0, 1), BuildingBlock: AJUNOK_clean_linker_0, # of connection points: 2
#     Edge 61, Type (0, 1), BuildingBlock: AJUNOK_clean_linker_0, # of connection points: 2
#     Edge 62, Type (0, 1), BuildingBlock: AJUNOK_clean_linker_0, # of connection points: 2
#     Edge 63, Type (0, 1), BuildingBlock: AJUNOK_clean_linker_0, # of connection points: 2
#     Edge 64, Type (0, 1), BuildingBlock: AJUNOK_clean_linker_0, # of connection points: 2
#     Edge 65, Type (0, 1), BuildingBlock: AJUNOK_clean_linker_0, # of connection points: 2
#     Edge 66, Type (0, 1), BuildingBlock: AJUNOK_clean_linker_0, # of connection points: 2
#     Edge 67, Type (0, 1), BuildingBlock: AJUNOK_clean_linker_0, # of connection points: 2
#     Edge 68, Type (0, 1), BuildingBlock: AJUNOK_clean_linker_0, # of connection points: 2
#     Edge 69, Type (0, 1), BuildingBlock: AJUNOK_clean_linker_0, # of connection points: 2
#     Edge 70, Type (0, 1), BuildingBlock: AJUNOK_clean_linker_0, # of connection points: 2
#     Edge 71, Type (0, 1), BuildingBlock: AJUNOK_clean_linker_0, # of connection points: 2
#     Edge 72, Type (0, 1), BuildingBlock: AJUNOK_clean_linker_0, # of connection points: 2
#     Edge 73, Type (0, 1), BuildingBlock: AJUNOK_clean_linker_0, # of connection points: 2
#     Edge 74, Type (0, 1), BuildingBlock: AJUNOK_clean_linker_0, # of connection points: 2
#     Edge 75, Type (0, 1), BuildingBlock: AJUNOK_clean_linker_0, # of connection points: 2
#     Edge 76, Type (0, 1), BuildingBlock: AJUNOK_clean_linker_0, # of connection points: 2
#     Edge 77, Type (0, 1), BuildingBlock: AJUNOK_clean_linker_0, # of connection points: 2
#     Edge 78, Type (0, 1), BuildingBlock: AJUNOK_clean_linker_0, # of connection points: 2
#     Edge 79, Type (0, 1), BuildingBlock: AJUNOK_clean_linker_0, # of connection points: 2
#     Edge 80, Type (0, 1), BuildingBlock: AJUNOK_clean_linker_0, # of connection points: 2
# Relax obj value: 0.032
# Max RMSD: 0.127
# Mean RMSD: 0.095
data_MOF--net-eea--node1-NUHQIS_clean_sbu_0--node2-BELTOD_clean_linker_0--edge1-AJUNOK_clean_linker_0
_symmetry_space_group_name_H-M    P1
_symmetry_Int_Tables_number       1
_symmetry_cell_setting            triclinic
loop_
_symmetry_equiv_pos_as_xyz
'x, y, z'
_cell_length_a     44.461482
_cell_length_b     44.672382
_cell_length_c     68.150814
_cell_angle_alpha  93.662015
_cell_angle_beta   93.085641
_cell_angle_gamma 119.84785
loop_
_atom_site_label
_atom_site_type_symbol
_atom_site_fract_x
_atom_site_fract_y
_atom_site_fract_z
_atom_type_partial_charge
P0 P 0.30302 0.15671 0.41226 0.0
H1 H 0.30794 0.11922 0.37709 0.0
H2 H 0.27902 0.05731 0.36537 0.0
H3 H 0.22233 0.03269 0.417 0.0
H4 H 0.25101 0.09458 0.42861 0.0
H5 H 0.30336 0.22066 0.42437 0.0
H6 H 0.27277 0.24836 0.4104 0.0
H7 H 0.21812 0.16185 0.36518 0.0
H8 H 0.24768 0.13369 0.37965 0.0
H9 H 0.35662 0.15633 0.43819 0.0
H10 H 0.26509 0.16488 0.44449 0.0
O11 O 0.34144 0.17735 0.40305 0.0
H12 H 0.36581 0.15831 0.47411 0.0
H13 H 0.27458 0.16744 0.48052 0.0
C14 C 0.28221 0.11132 0.40392 0.0
C15 C 0.28949 0.10048 0.38595 0.0
C16 C 0.27287 0.06525 0.37923 0.0
C17 C 0.24888 0.04044 0.39045 0.0
C18 C 0.24122 0.05139 0.4083 0.0
C19 C 0.25759 0.08667 0.41491 0.0
C20 C 0.27721 0.17474 0.4034 0.0
C21 C 0.28411 0.20724 0.41178 0.0
C22 C 0.26683 0.22314 0.40367 0.0
C23 C 0.24282 0.20713 0.38677 0.0
C24 C 0.23578 0.17443 0.37848 0.0
C25 C 0.25288 0.15839 0.38672 0.0
C26 C 0.3108 0.16148 0.43875 0.0
C27 C 0.33881 0.15915 0.44733 0.0
C28 C 0.34385 0.15993 0.46779 0.0
C29 C 0.3208 0.1629 0.47998 0.0
C30 C 0.29277 0.16534 0.47138 0.0
C31 C 0.28752 0.16415 0.45086 0.0
P32 P 0.91768 0.11459 0.43862 0.0
H33 H 0.91317 0.05763 0.4129 0.0
H34 H 0.86466 0.00846 0.39236 0.0
H35 H 0.79629 0.0468 0.40818 0.0
H36 H 0.84501 0.0963 0.42847 0.0
H37 H 0.98971 0.1702 0.44624 0.0
H38 H 0.03004 0.21193 0.42548 0.0
H39 H 0.94642 0.17673 0.37888 0.0
H40 H 0.90616 0.13476 0.39968 0.0
H41 H 0.86552 0.07418 0.46424 0.0
H42 H 0.93367 0.18272 0.45837 0.0
O43 O 0.94174 0.099 0.44825 0.0
H44 H 0.84441 0.0894 0.49336 0.0
H45 H 0.91344 0.19817 0.48816 0.0
C46 C 0.88237 0.07994 0.42262 0.0
C47 C 0.88779 0.05554 0.41187 0.0
C48 C 0.8602 0.02767 0.40005 0.0
C49 C 0.82687 0.02397 0.3988 0.0
C50 C 0.82176 0.04908 0.40907 0.0
C51 C 0.84949 0.07718 0.4207 0.0
C52 C 0.9451 0.14911 0.42444 0.0
C53 C 0.97995 0.17175 0.43165 0.0
C54 C 1.00294 0.19557 0.41977 0.0
C55 C 0.99147 0.19716 0.40043 0.0
C56 C 0.95612 0.17552 0.39355 0.0
C57 C 0.93306 0.15172 0.40551 0.0
C58 C 0.90085 0.12729 0.459 0.0
C59 C 0.87579 0.10135 0.46916 0.0
C60 C 0.86401 0.11006 0.48594 0.0
C61 C 0.87772 0.14496 0.49323 0.0
C62 C 0.90241 0.17105 0.48283 0.0
C63 C 0.91403 0.16225 0.46585 0.0
P64 P 0.86573 0.72242 0.41893 0.0
H65 H 0.83591 0.71727 0.37899 0.0
H66 H 0.80224 0.74146 0.36437 0.0
H67 H 0.81124 0.79583 0.42103 0.0
H68 H 0.84511 0.77158 0.43562 0.0
H69 H 0.91864 0.70212 0.42113 0.0
H70 H 0.97546 0.72502 0.40812 0.0
H71 H 0.96628 0.80984 0.38766 0.0
H72 H 0.90956 0.78703 0.40081 0.0
H73 H 0.80607 0.69662 0.44177 0.0
H74 H 0.91709 0.74085 0.45379 0.0
O75 O 0.84584 0.68146 0.4086 0.0
H76 H 0.79863 0.68572 0.47636 0.0
H77 H 0.90974 0.72992 0.48852 0.0
C78 C 0.8424 0.74205 0.40845 0.0
C79 C 0.83074 0.73448 0.38827 0.0
C80 C 0.81176 0.74854 0.37989 0.0
C81 C 0.80422 0.77061 0.39156 0.0
C82 C 0.81654 0.77873 0.41173 0.0
C83 C 0.83582 0.76484 0.42008 0.0
C84 C 0.90983 0.74284 0.41204 0.0
C85 C 0.92913 0.72601 0.41418 0.0
C86 C 0.9616 0.73912 0.40675 0.0
C87 C 0.97533 0.76928 0.39692 0.0
C88 C 0.95624 0.78648 0.3951 0.0
C89 C 0.92387 0.77351 0.40271 0.0
C90 C 0.86214 0.71992 0.44518 0.0
C91 C 0.82896 0.7047 0.45195 0.0
C92 C 0.82473 0.69856 0.47176 0.0
C93 C 0.85364 0.7073 0.48524 0.0
C94 C 0.88699 0.72298 0.47848 0.0
C95 C 0.89121 0.72933 0.45862 0.0
P96 P 0.13097 0.27471 0.60041 0.0
H97 H 0.11118 0.26645 0.64036 0.0
H98 H 0.05541 0.24343 0.65447 0.0
H99 H 1.0018 0.21581 0.59574 0.0
H100 H 0.05793 0.23899 0.58164 0.0
H101 H 0.2053 0.29891 0.60366 0.0
H102 H 0.24018 0.2748 0.61685 0.0
H103 H 0.14605 0.18243 0.62771 0.0
H104 H 0.1112 0.20644 0.6143 0.0
H105 H 0.10407 0.30778 0.57487 0.0
H106 H 0.15785 0.25036 0.56799 0.0
O107 O 0.15241 0.31549 0.61108 0.0
H108 H 0.11132 0.32105 0.54053 0.0
H109 H 0.16637 0.26464 0.53404 0.0
C110 C 0.0888 0.25451 0.60996 0.0
C111 C 0.0874 0.25507 0.63049 0.0
C112 C 0.05548 0.2417 0.63855 0.0
C113 C 0.02414 0.22751 0.62623 0.0
C114 C 0.02554 0.22662 0.6056 0.0
C115 C 0.05761 0.23984 0.59753 0.0
C116 C 0.15572 0.2548 0.60834 0.0
C117 C 0.19215 0.27337 0.60876 0.0
C118 C 0.21204 0.25955 0.61623 0.0
C119 C 0.19582 0.227 0.62357 0.0
C120 C 0.15922 0.20786 0.62247 0.0
C121 C 0.1393 0.22156 0.61479 0.0
C122 C 0.13012 0.27785 0.57404 0.0
C123 C 0.11684 0.29745 0.56588 0.0
C124 C 0.12131 0.30531 0.54629 0.0
C125 C 0.13938 0.29389 0.53446 0.0
C126 C 0.1517 0.27329 0.54253 0.0
C127 C 0.14701 0.26526 0.56208 0.0
P128 P 0.82295 0.90132 0.58426 0.0
H129 H 0.86818 0.957 0.61478 0.0
H130 H 0.86272 0.00329 0.63257 0.0
H131 H 0.76018 0.9626 0.60218 0.0
H132 H 0.76554 0.91632 0.58455 0.0
H133 H 0.82911 0.84035 0.57571 0.0
H134 H 0.82536 0.79536 0.59584 0.0
H135 H 0.79734 0.84043 0.64441 0.0
H136 H 0.80141 0.88552 0.62432 0.0
H137 H 0.82953 0.92892 0.54638 0.0
H138 H 0.75276 0.84126 0.57318 0.0
O139 O 0.86391 0.91981 0.57835 0.0
H140 H 0.78925 0.91195 0.51657 0.0
H141 H 0.712 0.82432 0.54333 0.0
C142 C 0.81768 0.93382 0.59801 0.0
C143 C 0.84452 0.95803 0.61199 0.0
C144 C 0.84131 0.98426 0.6222 0.0
C145 C 0.81123 0.98663 0.61849 0.0
C146 C 0.78385 0.96158 0.60501 0.0
C147 C 0.78696 0.93519 0.59494 0.0
C148 C 0.81588 0.86638 0.59857 0.0
C149 C 0.82186 0.84034 0.59063 0.0
C150 C 0.81963 0.81466 0.60211 0.0
C151 C 0.81152 0.81477 0.62175 0.0
C152 C 0.80429 0.8402 0.62944 0.0
C153 C 0.80647 0.86586 0.61791 0.0
C154 C 0.79433 0.88597 0.56178 0.0
C155 C 0.80412 0.90578 0.54574 0.0
C156 C 0.78096 0.89631 0.52883 0.0
C157 C 0.74738 0.86711 0.5278 0.0
C158 C 0.73777 0.84692 0.54378 0.0
C159 C 0.76104 0.85648 0.56076 0.0
P160 P 0.14153 0.83631 0.60502 0.0
H161 H 0.17868 0.87349 0.64311 0.0
H162 H 0.21019 0.93518 0.65551 0.0
H163 H 0.18618 0.96062 0.59891 0.0
H164 H 0.15437 0.89884 0.58659 0.0
H165 H 0.08398 0.76491 0.59813 0.0
H166 H 0.02699 0.73456 0.6111 0.0
H167 H 0.04641 0.83117 0.64153 0.0
H168 H 0.1031 0.86139 0.62857 0.0
H169 H 0.20046 0.85333 0.58282 0.0
H170 H 0.09001 0.81174 0.56967 0.0
O171 O 0.16174 0.8177 0.61575 0.0
H172 H 0.20737 0.85136 0.54749 0.0
H173 H 0.09682 0.80932 0.53412 0.0
C174 C 0.16481 0.88172 0.61385 0.0
C175 C 0.18029 0.89234 0.63336 0.0
C176 C 0.19803 0.92748 0.64045 0.0
C177 C 0.20047 0.95248 0.62813 0.0
C178 C 0.18478 0.94177 0.60862 0.0
C179 C 0.1667 0.90655 0.60159 0.0
C180 C 0.09769 0.81545 0.61214 0.0
C181 C 0.07568 0.77966 0.60728 0.0
C182 C 0.04318 0.76236 0.61471 0.0
C183 C 0.03229 0.7806 0.62726 0.0
C184 C 0.05424 0.81651 0.63194 0.0
C185 C 0.08661 0.83381 0.6244 0.0
C186 C 0.14471 0.83225 0.57885 0.0
C187 C 0.17765 0.84352 0.5723 0.0
C188 C 0.18163 0.84269 0.55215 0.0
C189 C 0.15267 0.8305 0.53813 0.0
C190 C 0.11953 0.81883 0.54468 0.0
C191 C 0.11561 0.82006 0.56495 0.0
P192 P 0.98606 0.49789 0.74455 0.0
H193 H 1.00151 0.45826 0.71489 0.0
H194 H 0.97092 0.39658 0.70248 0.0
H195 H 0.88914 0.37743 0.73989 0.0
H196 H 0.9199 0.43904 0.7524 0.0
H197 H 0.99993 0.54513 0.71411 0.0
H198 H 0.96729 0.57059 0.69991 0.0
H199 H 0.88672 0.51786 0.7384 0.0
H200 H 0.92016 0.49346 0.75307 0.0
H201 H 0.99896 0.45693 0.77156 0.0
H202 H 0.9834 0.54494 0.77593 0.0
O203 O 0.02635 0.51747 0.73758 0.0
H204 H 0.00628 0.46024 0.80752 0.0
H205 H 0.98995 0.54788 0.8121 0.0
C206 C 0.96305 0.45308 0.73465 0.0
C207 C 0.97702 0.44083 0.72042 0.0
C208 C 0.95961 0.40566 0.71338 0.0
C209 C 0.92793 0.3824 0.72042 0.0
C210 C 0.91351 0.39494 0.73425 0.0
C211 C 0.93105 0.43006 0.74137 0.0
C212 C 0.96268 0.51781 0.73483 0.0
C213 C 0.97536 0.53922 0.7196 0.0
C214 C 0.95643 0.55334 0.71127 0.0
C215 C 0.92419 0.54579 0.71784 0.0
C216 C 0.91149 0.52413 0.73305 0.0
C217 C 0.93055 0.51018 0.74143 0.0
C218 C 0.98956 0.5 0.77108 0.0
C219 C 0.99641 0.47655 0.78027 0.0
C220 C 1.00042 0.47834 0.80083 0.0
C221 C 0.99783 0.50379 0.8126 0.0
C222 C 0.99169 0.52778 0.80336 0.0
C223 C 0.98774 0.52598 0.78272 0.0
P224 P 0.58959 0.4459 0.77037 0.0
H225 H 0.58021 0.38353 0.74794 0.0
H226 H 0.52914 0.33276 0.7301 0.0
H227 H 0.46513 0.37662 0.74525 0.0
H228 H 0.51628 0.42772 0.76272 0.0
H229 H 0.63147 0.52211 0.77619 0.0
H230 H 0.67147 0.56457 0.75567 0.0
H231 H 0.6444 0.48235 0.70921 0.0
H232 H 0.60311 0.44056 0.72926 0.0
H233 H 0.58435 0.42874 0.81087 0.0
H234 H 0.56277 0.49426 0.77594 0.0
O235 O 0.61637 0.43252 0.77884 0.0
H236 H 0.56139 0.44416 0.83903 0.0
H237 H 0.53902 0.50943 0.80418 0.0
C238 C 0.55196 0.40912 0.75698 0.0
C239 C 0.55522 0.38228 0.74743 0.0
C240 C 0.52615 0.3534 0.73719 0.0
C241 C 0.49332 0.35081 0.73654 0.0
C242 C 0.49016 0.37795 0.74581 0.0
C243 C 0.51938 0.40709 0.7558 0.0
C244 C 0.61338 0.47823 0.75408 0.0
C245 C 0.63302 0.51341 0.76129 0.0
C246 C 0.65625 0.53762 0.7496 0.0
C247 C 0.66098 0.52696 0.73068 0.0
C248 C 0.64071 0.49174 0.7234 0.0
C249 C 0.61712 0.46768 0.73497 0.0
C250 C 0.57609 0.46102 0.79146 0.0
C251 C 0.57519 0.44692 0.80934 0.0
C252 C 0.56174 0.4555 0.82539 0.0
C253 C 0.54856 0.47813 0.82385 0.0
C254 C 0.5496 0.49244 0.80592 0.0
C255 C 0.56316 0.48381 0.7898 0.0
P256 P 0.53079 0.05085 0.7516 0.0
H257 H 0.48944 0.03791 0.71415 0.0
H258 H 0.45507 0.06242 0.70098 0.0
H259 H 0.48848 0.13468 0.75352 0.0
H260 H 0.52324 0.11015 0.76663 0.0
H261 H 0.557 0.03153 0.71773 0.0
H262 H 0.61356 0.05748 0.70464 0.0
H263 H 0.65533 0.14066 0.75205 0.0
H264 H 0.59831 0.11384 0.76544 0.0
H265 H 0.48034 0.04742 0.77855 0.0
H266 H 0.57684 0.04627 0.78252 0.0
O267 O 0.5089 0.00939 0.74204 0.0
H268 H 0.47249 0.03363 0.81257 0.0
H269 H 0.56831 0.03092 0.81654 0.0
C270 C 0.50799 0.07144 0.74165 0.0
C271 C 0.48945 0.05905 0.72286 0.0
C272 C 0.46994 0.07317 0.71529 0.0
C273 C 0.46858 0.10001 0.72638 0.0
C274 C 0.48845 0.11349 0.74485 0.0
C275 C 0.50834 0.09955 0.75233 0.0
C276 C 0.57361 0.07023 0.74289 0.0
C277 C 0.57837 0.0551 0.72553 0.0
C278 C 0.61072 0.07016 0.71791 0.0
C279 C 0.63915 0.10099 0.72736 0.0
C280 C 0.63421 0.1165 0.74464 0.0
C281 C 0.60164 0.10129 0.75229 0.0
C282 C 0.52982 0.0491 0.77807 0.0
C283 C 0.50043 0.04521 0.78689 0.0
C284 C 0.49557 0.03657 0.80629 0.0
C285 C 0.51942 0.03048 0.81718 0.0
C286 C 0.54949 0.03553 0.80859 0.0
C287 C 0.55449 0.04449 0.78915 0.0
P288 P 0.79609 0.60949 0.93552 0.0
H289 H 0.76143 0.55269 0.96102 0.0
H290 H 0.70424 0.52613 0.97339 0.0
H291 H 0.67732 0.58868 0.93879 0.0
H292 H 0.73363 0.61329 0.92543 0.0
H293 H 0.86425 0.64186 0.95835 0.0
H294 H 0.90148 0.61979 0.97014 0.0
H295 H 0.82723 0.51788 0.94162 0.0
H296 H 0.78955 0.54015 0.92983 0.0
H297 H 0.79095 0.66096 0.91358 0.0
H298 H 0.80704 0.57454 0.90034 0.0
O299 O 0.81195 0.64836 0.94824 0.0
H300 H 0.79974 0.67535 0.87963 0.0
H301 H 0.8155 0.5887 0.8662 0.0
C302 C 0.75174 0.58444 0.94181 0.0
C303 C 0.74289 0.55989 0.95553 0.0
C304 C 0.71028 0.54523 0.963 0.0
C305 C 0.68622 0.55572 0.95747 0.0
C306 C 0.69493 0.57969 0.94333 0.0
C307 C 0.72725 0.59381 0.9356 0.0
C308 C 0.82379 0.59257 0.94339 0.0
C309 C 0.85576 0.61474 0.95458 0.0
C310 C 0.87713 0.60213 0.96133 0.0
C311 C 0.86727 0.56715 0.95681 0.0
C312 C 0.83564 0.54506 0.94516 0.0
C313 C 0.81405 0.5577 0.93851 0.0
C314 C 0.7986 0.61683 0.90967 0.0
C315 C 0.79589 0.64473 0.90332 0.0
C316 C 0.80071 0.65285 0.88382 0.0
C317 C 0.80813 0.63305 0.87016 0.0
C318 C 0.80997 0.60453 0.87641 0.0
C319 C 0.80503 0.59636 0.89595 0.0
P320 P 0.48664 0.23063 0.91865 0.0
H321 H 0.53712 0.29663 0.941 0.0
H322 H 0.53056 0.34149 0.95964 0.0
H323 H 0.41878 0.27857 0.94797 0.0
H324 H 0.42531 0.23319 0.92978 0.0
H325 H 0.53566 0.22158 0.94395 0.0
H326 H 0.52857 0.17558 0.96423 0.0
H327 H 0.41751 0.12129 0.94808 0.0
H328 H 0.42461 0.16778 0.92804 0.0
H329 H 0.45471 0.26166 0.89491 0.0
H330 H 0.45389 0.16453 0.89329 0.0
O331 O 0.52668 0.24908 0.91132 0.0
H332 H 0.41326 0.23964 0.8654 0.0
H333 H 0.41234 0.14243 0.86355 0.0
C334 C 0.48173 0.26224 0.93351 0.0
C335 C 0.51121 0.29238 0.94254 0.0
C336 C 0.50747 0.31782 0.95325 0.0
C337 C 0.47422 0.31338 0.95494 0.0
C338 C 0.44464 0.28251 0.94663 0.0
C339 C 0.44839 0.2568 0.93622 0.0
C340 C 0.48082 0.19727 0.93392 0.0
C341 C 0.50979 0.1998 0.94477 0.0
C342 C 0.5057 0.17378 0.95649 0.0
C343 C 0.47256 0.14491 0.95749 0.0
C344 C 0.44334 0.14318 0.94731 0.0
C345 C 0.44742 0.16951 0.93579 0.0
C346 C 0.4561 0.21412 0.89685 0.0
C347 C 0.44509 0.23534 0.88847 0.0
C348 C 0.42143 0.22278 0.87159 0.0
C349 C 0.40897 0.18905 0.86257 0.0
C350 C 0.42119 0.16834 0.87046 0.0
C351 C 0.44472 0.18087 0.88747 0.0
P352 P 0.80142 0.17528 0.93631 0.0
H353 H 0.87446 0.22096 0.95063 0.0
H354 H 0.90914 0.28335 0.96068 0.0
H355 H 0.81855 0.29315 0.94746 0.0
H356 H 0.78381 0.23044 0.93731 0.0
H357 H 0.73391 0.11628 0.91968 0.0
H358 H 0.67737 0.08601 0.93298 0.0
H359 H 0.71844 0.16054 0.98479 0.0
H360 H 0.77468 0.19114 0.97126 0.0
H361 H 0.84958 0.16567 0.91337 0.0
H362 H 0.75879 0.17554 0.90171 0.0
O363 O 0.82057 0.15602 0.94746 0.0
H364 H 0.85563 0.16242 0.87801 0.0
H365 H 0.76461 0.17198 0.86605 0.0
C366 C 0.82643 0.22107 0.94376 0.0
C367 C 0.862 0.23647 0.94995 0.0
C368 C 0.88186 0.27212 0.95549 0.0
C369 C 0.86646 0.29294 0.95475 0.0
C370 C 0.8309 0.27753 0.94823 0.0
C371 C 0.8111 0.24184 0.94251 0.0
C372 C 0.75823 0.15657 0.94418 0.0
C373 C 0.7305 0.12671 0.93362 0.0
C374 C 0.69834 0.10919 0.94135 0.0
C375 C 0.69366 0.12078 0.96001 0.0
C376 C 0.72122 0.15121 0.97032 0.0
C377 C 0.75333 0.16875 0.96255 0.0
C378 C 0.80305 0.16966 0.91009 0.0
C379 C 0.83056 0.16651 0.90317 0.0
C380 C 0.83419 0.16497 0.88298 0.0
C381 C 0.81041 0.16663 0.86933 0.0
C382 C 0.78293 0.17004 0.87628 0.0
C383 C 0.77953 0.17196 0.89658 0.0
P384 P 0.65117 0.82703 0.07448 0.0
H385 H 0.66775 0.78419 0.04796 0.0
H386 H 0.63463 0.72285 0.035 0.0
H387 H 0.54756 0.71029 0.06604 0.0
H388 H 0.58079 0.77171 0.07897 0.0
H389 H 0.66511 0.86821 0.04111 0.0
H390 H 0.6362 0.89684 0.02617 0.0
H391 H 0.56132 0.86087 0.06932 0.0
H392 H 0.59015 0.83189 0.08411 0.0
H393 H 0.65347 0.78165 0.1027 0.0
H394 H 0.65606 0.87963 0.10468 0.0
O395 O 0.69187 0.84492 0.0682 0.0
H396 H 0.66094 0.78703 0.13876 0.0
H397 H 0.66251 0.88464 0.14084 0.0
C398 C 0.62666 0.78237 0.06442 0.0
C399 C 0.64151 0.76832 0.05191 0.0
C400 C 0.62262 0.73333 0.04454 0.0
C401 C 0.58853 0.71204 0.04944 0.0
C402 C 0.57359 0.72633 0.06179 0.0
C403 C 0.59257 0.76129 0.06923 0.0
C404 C 0.63035 0.84884 0.06406 0.0
C405 C 0.64267 0.86673 0.04747 0.0
C406 C 0.62614 0.88302 0.03894 0.0
C407 C 0.59688 0.88144 0.04681 0.0
C408 C 0.58389 0.8625 0.06302 0.0
C409 C 0.60048 0.84622 0.07156 0.0
C410 C 0.65335 0.82982 0.10101 0.0
C411 C 0.65494 0.804 0.11089 0.0
C412 C 0.6592 0.80707 0.1315 0.0
C413 C 0.66241 0.83629 0.1426 0.0
C414 C 0.66056 0.86205 0.13266 0.0
C415 C 0.65647 0.85902 0.11201 0.0
P416 P 0.25397 0.7819 0.10574 0.0
H417 H 0.24742 0.72473 0.07941 0.0
H418 H 0.19724 0.67333 0.06142 0.0
H419 H 0.12855 0.70659 0.08398 0.0
H420 H 0.17879 0.75824 0.10175 0.0
H421 H 0.31042 0.85328 0.1147 0.0
H422 H 0.35318 0.89346 0.09422 0.0
H423 H 0.29536 0.82339 0.04208 0.0
H424 H 0.25231 0.78367 0.06247 0.0
H425 H 0.24494 0.75999 0.14511 0.0
H426 H 0.23115 0.83317 0.11309 0.0
O427 O 0.28097 0.76858 0.11388 0.0
H428 H 0.2211 0.77358 0.17346 0.0
H429 H 0.20627 0.84644 0.14155 0.0
C430 C 0.2168 0.74499 0.09215 0.0
C431 C 0.22157 0.72097 0.08049 0.0
C432 C 0.19299 0.69175 0.07019 0.0
C433 C 0.15915 0.68596 0.07155 0.0
C434 C 0.15441 0.71032 0.08297 0.0
C435 C 0.18311 0.73982 0.09309 0.0
C436 C 0.27809 0.81549 0.09019 0.0
C437 C 0.30625 0.8471 0.09881 0.0
C438 C 0.33083 0.86986 0.08711 0.0
C439 C 0.32787 0.86112 0.06662 0.0
C440 C 0.29827 0.8307 0.05783 0.0
C441 C 0.27365 0.80795 0.06955 0.0
C442 C 0.24033 0.79598 0.12713 0.0
C443 C 0.23713 0.77932 0.14427 0.0
C444 C 0.22305 0.78677 0.16038 0.0
C445 C 0.21123 0.81059 0.15958 0.0
C446 C 0.21515 0.82794 0.14254 0.0
C447 C 0.22942 0.82048 0.12634 0.0
P448 P 0.19566 0.38217 0.08498 0.0
H449 H 0.13365 0.35224 0.05659 0.0
H450 H 0.09852 0.37515 0.04265 0.0
H451 H 0.16678 0.47454 0.07589 0.0
H452 H 0.20226 0.45131 0.08999 0.0
H453 H 0.22134 0.359 0.05241 0.0
H454 H 0.27653 0.38451 0.03791 0.0
H455 H 0.31781 0.47478 0.08055 0.0
H456 H 0.26205 0.44849 0.09545 0.0
H457 H 0.14407 0.37487 0.11174 0.0
H458 H 0.24778 0.38979 0.1166 0.0
O459 O 0.17504 0.33984 0.07728 0.0
H460 H 0.13871 0.36286 0.14621 0.0
H461 H 0.24322 0.37927 0.15143 0.0
C462 C 0.17041 0.39994 0.07454 0.0
C463 C 0.14118 0.37894 0.06101 0.0
C464 C 0.121 0.39203 0.05304 0.0
C465 C 0.12965 0.42648 0.05839 0.0
C466 C 0.15951 0.44786 0.07156 0.0
C467 C 0.17967 0.43461 0.07965 0.0
C468 C 0.23767 0.40156 0.07525 0.0
C469 C 0.24222 0.38417 0.05883 0.0
C470 C 0.27375 0.39899 0.05035 0.0
C471 C 0.30142 0.4319 0.05787 0.0
C472 C 0.29695 0.44936 0.07442 0.0
C473 C 0.26517 0.43441 0.08294 0.0
C474 C 0.19661 0.38399 0.11161 0.0
C475 C 0.16623 0.37684 0.12042 0.0
C476 C 0.16313 0.36981 0.14018 0.0
C477 C 0.19027 0.36946 0.15158 0.0
C478 C 0.22142 0.3784 0.14298 0.0
C479 C 0.22435 0.38511 0.12312 0.0
P480 P 0.46222 0.94067 0.26655 0.0
H481 H 0.44032 0.91588 0.30444 0.0
H482 H 0.38445 0.89127 0.31841 0.0
H483 H 0.33407 0.88868 0.26186 0.0
H484 H 0.39036 0.91389 0.24799 0.0
H485 H 0.53344 0.97425 0.2857 0.0
H486 H 0.57003 0.95173 0.29823 0.0
H487 H 0.48805 0.8473 0.27829 0.0
H488 H 0.45118 0.87002 0.26585 0.0
H489 H 0.44059 0.9776 0.24078 0.0
H490 H 0.48646 0.91262 0.23439 0.0
O491 O 0.47929 0.98098 0.27753 0.0
H492 H 0.4501 0.99096 0.20657 0.0
H493 H 0.49577 0.92572 0.20022 0.0
C494 C 0.41955 0.91627 0.27508 0.0
C495 C 0.41713 0.90922 0.29488 0.0
C496 C 0.38509 0.89502 0.30287 0.0
C497 C 0.35468 0.88764 0.29121 0.0
C498 C 0.35703 0.89408 0.27122 0.0
C499 C 0.3892 0.90832 0.26323 0.0
C500 C 0.48942 0.92375 0.27508 0.0
C501 C 0.52322 0.9465 0.28402 0.0
C502 C 0.54415 0.93364 0.29117 0.0
C503 C 0.53187 0.89782 0.28921 0.0
C504 C 0.49825 0.87506 0.27983 0.0
C505 C 0.47714 0.88796 0.27285 0.0
C506 C 0.46289 0.94423 0.24026 0.0
C507 C 0.45207 0.96566 0.23192 0.0
C508 C 0.45757 0.97332 0.21237 0.0
C509 C 0.47429 0.95991 0.20083 0.0
C510 C 0.48353 0.93706 0.2089 0.0
C511 C 0.4779 0.9293 0.22844 0.0
P512 P 0.1573 0.56772 0.24819 0.0
H513 H 0.20786 0.63294 0.27124 0.0
H514 H 0.2013 0.67652 0.29131 0.0
H515 H 0.08949 0.6138 0.27957 0.0
H516 H 0.09605 0.56976 0.25989 0.0
H517 H 0.20657 0.55958 0.27372 0.0
H518 H 0.19977 0.51531 0.29526 0.0
H519 H 0.0888 0.45926 0.27859 0.0
H520 H 0.09568 0.50403 0.25718 0.0
H521 H 0.1256 0.59976 0.2253 0.0
H522 H 0.12416 0.5023 0.22216 0.0
O523 O 0.19731 0.58647 0.24082 0.0
H524 H 0.08494 0.57938 0.19558 0.0
H525 H 0.08433 0.48218 0.19181 0.0
C526 C 0.15246 0.59884 0.26357 0.0
C527 C 0.18195 0.62852 0.27302 0.0
C528 C 0.17821 0.6532 0.28456 0.0
C529 C 0.14493 0.64843 0.2867 0.0
C530 C 0.11537 0.61803 0.27789 0.0
C531 C 0.11913 0.59309 0.26662 0.0
C532 C 0.15179 0.53432 0.26335 0.0
C533 C 0.18079 0.53771 0.27463 0.0
C534 C 0.17684 0.51272 0.28713 0.0
C535 C 0.14373 0.4841 0.28862 0.0
C536 C 0.11456 0.48113 0.27762 0.0
C537 C 0.11852 0.50643 0.26528 0.0
C538 C 0.12668 0.55195 0.22645 0.0
C539 C 0.11611 0.57373 0.2184 0.0
C540 C 0.09314 0.5622 0.20127 0.0
C541 C 0.08093 0.52893 0.19157 0.0
C542 C 0.09241 0.50751 0.19932 0.0
C543 C 0.11526 0.51902 0.2166 0.0
P544 P 0.46482 0.50766 0.26893 0.0
H545 H 0.51968 0.54294 0.30176 0.0
H546 H 0.55581 0.60408 0.31469 0.0
H547 H 0.49888 0.63124 0.27312 0.0
H548 H 0.46293 0.56993 0.25999 0.0
H549 H 0.41512 0.43472 0.27085 0.0
H550 H 0.35834 0.40437 0.2838 0.0
H551 H 0.36209 0.50202 0.29715 0.0
H552 H 0.41899 0.53235 0.28434 0.0
H553 H 0.51753 0.55255 0.24449 0.0
H554 H 0.41643 0.45967 0.23528 0.0
O555 O 0.48512 0.48711 0.27685 0.0
H556 H 0.52324 0.54923 0.20923 0.0
H557 H 0.42275 0.45536 0.19988 0.0
C558 C 0.48889 0.55203 0.2798 0.0
C559 C 0.51482 0.56195 0.29546 0.0
C560 C 0.53549 0.59683 0.3028 0.0
C561 C 0.53025 0.62219 0.29469 0.0
C562 C 0.50335 0.61206 0.27955 0.0
C563 C 0.48292 0.57718 0.27207 0.0
C564 C 0.42144 0.48579 0.27665 0.0
C565 C 0.40361 0.44959 0.27637 0.0
C566 C 0.37112 0.43227 0.28371 0.0
C567 C 0.35578 0.45088 0.29139 0.0
C568 C 0.37344 0.48711 0.29139 0.0
C569 C 0.40593 0.50443 0.28395 0.0
C570 C 0.4661 0.50692 0.24252 0.0
C571 C 0.49617 0.53179 0.23485 0.0
C572 C 0.49962 0.52967 0.21467 0.0
C573 C 0.47336 0.5022 0.20172 0.0
C574 C 0.44307 0.47732 0.2094 0.0
C575 C 0.43951 0.47966 0.22966 0.0
Tb576 Tb 0.48824 0.97116 0.98694 0.0
Eu577 Eu 0.51687 0.01942 0.03054 0.0
C578 C 0.53105 0.95691 0.01878 0.0
C579 C 0.44552 0.94727 0.02362 0.0
C580 C 0.4772 0.95392 0.9326 0.0
C581 C 0.47571 0.94283 0.89703 0.0
C582 C 0.4685 0.93065 0.91564 0.0
C583 C 0.49377 0.98968 0.93072 0.0
C584 C 0.50082 0.00188 0.9121 0.0
C585 C 0.49154 0.97858 0.89498 0.0
C586 C 0.46915 0.94086 0.95216 0.0
O587 O 0.49116 0.02003 0.98288 0.0
O588 O 0.48312 0.03566 0.01389 0.0
O589 O 0.55545 0.05222 0.01 0.0
O590 O 0.54389 0.00702 0.98667 0.0
C591 C 0.48153 0.03718 0.99475 0.0
O592 O 0.50548 0.04424 0.05531 0.0
O593 O 0.55387 0.04363 0.05709 0.0
O594 O 0.54409 0.98873 0.02719 0.0
O595 O 0.50338 0.94231 0.0058 0.0
O596 O 0.44356 0.95055 1.00461 0.0
O597 O 0.4745 0.96642 0.03502 0.0
C598 C 0.56399 0.03912 0.99489 0.0
O599 O 0.4951 0.94311 0.9633 0.0
O600 O 0.45099 0.9509 0.9622 0.0
C601 C 0.52488 0.03554 0.08615 0.0
C602 C 0.50959 0.00939 0.12329 0.0
C603 C 0.53805 0.0427 0.12183 0.0
C604 C 0.54562 0.05562 0.10342 0.0
C605 C 0.49655 0.0022 0.08755 0.0
C606 C 0.48889 0.98933 0.10594 0.0
C607 C 0.53245 0.04945 0.06678 0.0
H608 H 0.46906 0.92423 0.88425 0.0
H609 H 0.45609 0.90301 0.91679 0.0
H610 H 0.50107 0.00817 0.94364 0.0
H611 H 0.51304 0.02953 0.91106 0.0
H612 H 0.5541 0.05902 0.13497 0.0
H613 H 0.5675 0.08143 0.10268 0.0
H614 H 0.48014 0.98619 0.07443 0.0
H615 H 0.46686 0.96359 0.10658 0.0
Tb616 Tb 0.02213 0.50935 0.98992 0.0
Eu617 Eu 0.97508 0.4873 0.02752 0.0
C618 C 0.0459 0.55881 0.02947 0.0
C619 C 0.04039 0.47542 0.02415 0.0
C620 C 0.04602 0.52137 0.93866 0.0
C621 C 0.06278 0.53151 0.90539 0.0
C622 C 0.07193 0.53497 0.92569 0.0
C623 C 0.0108 0.50411 0.93117 0.0
C624 C 1.00162 0.50076 0.91088 0.0
C625 C 0.02754 0.51439 0.89778 0.0
C626 C 0.05591 0.52647 0.96 0.0
O627 O 0.98602 0.4537 0.98445 0.0
O628 O 0.94143 0.44826 1.00208 0.0
O629 O 0.96062 0.52073 0.01064 0.0
O630 O 0.97417 0.50877 0.98037 0.0
C631 C 0.95335 0.43623 0.98832 0.0
O632 O 0.94381 0.4493 0.04725 0.0
O633 O 0.95297 0.50173 0.05161 0.0
O634 O 0.02733 0.5322 0.03914 0.0
O635 O 0.04173 0.55637 0.01011 0.0
O636 O 0.05303 0.49964 0.01198 0.0
O637 O 0.00828 0.46235 0.02882 0.0
C638 C 0.95757 0.5199 0.99133 0.0
O639 O 0.04729 0.54626 0.97016 0.0
O640 O 0.04869 0.49863 0.96847 0.0
C641 C 0.95574 0.47585 0.08026 0.0
C642 C 0.99055 0.48866 0.11832 0.0
C643 C 0.98246 0.4587 0.10601 0.0
C644 C 0.96521 0.45233 0.08713 0.0
C645 C 0.9622 0.5048 0.09306 0.0
C646 C 0.97967 0.51127 0.11185 0.0
C647 C 0.94268 0.47256 0.05933 0.0
H648 H 0.08327 0.5421 0.89562 0.0
H649 H 0.09923 0.54846 0.93127 0.0
H650 H 0.99049 0.4936 0.94105 0.0
H651 H 0.97428 0.48804 0.90548 0.0
H652 H 0.9909 0.44106 0.11061 0.0
H653 H 0.96061 0.42972 0.07768 0.0
H654 H 0.95504 0.52326 0.08826 0.0
H655 H 0.98548 0.53446 0.12116 0.0
Tb656 Tb 0.50702 0.49135 0.02726 0.0
Eu657 Eu 0.47908 0.50722 0.98523 0.0
C658 C 0.47689 0.43582 0.99 0.0
C659 C 0.55562 0.51485 0.99249 0.0
C660 C 0.51692 0.48335 0.08082 0.0
C661 C 0.51524 0.46857 0.11453 0.0
C662 C 0.52337 0.46574 0.09524 0.0
C663 C 0.50225 0.50393 0.08588 0.0
C664 C 0.4942 0.50688 0.10523 0.0
C665 C 0.50042 0.48903 0.11973 0.0
C666 C 0.52383 0.47847 0.06039 0.0
O667 O 0.53147 0.54734 0.02768 0.0
O668 O 0.491 0.55162 0.00767 0.0
O669 O 0.43236 0.47869 1.00223 0.0
O670 O 0.46132 0.49523 0.03324 0.0
C671 C 0.51754 0.56529 0.02129 0.0
O672 O 0.48556 0.5424 0.96289 0.0
O673 O 0.44154 0.48995 0.95918 0.0
O674 O 0.48297 0.45986 0.97829 0.0
O675 O 0.47801 0.44166 0.0092 0.0
O676 O 0.54635 0.49645 0.00771 0.0
O677 O 0.53622 0.52593 0.98402 0.0
C678 C 0.4323 0.48247 0.02151 0.0
O679 O 0.49661 0.45645 0.04856 0.0
O680 O 0.54348 0.50644 0.05214 0.0
C681 C 0.4706 0.51228 0.93119 0.0
C682 C 0.49308 0.50287 0.89459 0.0
C683 C 0.47762 0.5236 0.89682 0.0
C684 C 0.46641 0.52824 0.91503 0.0
C685 C 0.48617 0.49174 0.92897 0.0
C686 C 0.4971 0.48691 0.91084 0.0
C687 C 0.46043 0.51797 0.95067 0.0
H688 H 0.52019 0.45441 0.12536 0.0
H689 H 0.53438 0.44949 0.09151 0.0
H690 H 0.49691 0.51756 0.07487 0.0
H691 H 0.48349 0.5234 0.10888 0.0
H692 H 0.47397 0.53594 0.88446 0.0
H693 H 0.45468 0.54439 0.91653 0.0
H694 H 0.49018 0.47963 0.94133 0.0
H695 H 0.50922 0.47108 0.9096 0.0
Tb696 Tb 0.14987 0.30682 0.32035 0.0
Eu697 Eu 0.1816 0.35515 0.36419 0.0
C698 C 0.18698 0.28747 0.35281 0.0
C699 C 0.10479 0.28772 0.35663 0.0
C700 C 0.14028 0.29123 0.26612 0.0
C701 C 0.14245 0.2819 0.23076 0.0
C702 C 0.13315 0.26874 0.249 0.0
C703 C 0.15678 0.32714 0.26471 0.0
C704 C 0.16617 0.34032 0.2465 0.0
C705 C 0.15937 0.31791 0.2293 0.0
C706 C 0.13094 0.27734 0.2854 0.0
O707 O 0.15372 0.35625 0.31646 0.0
O708 O 0.15225 0.37655 0.34802 0.0
O709 O 0.21978 0.38662 0.34307 0.0
O710 O 0.20591 0.34035 0.32019 0.0
C711 C 0.14875 0.37675 0.32881 0.0
O712 O 0.17595 0.38371 0.38953 0.0
O713 O 0.21958 0.37497 0.39039 0.0
O714 O 0.20395 0.3202 0.36002 0.0
O715 O 0.15948 0.27497 0.33985 0.0
O716 O 0.10464 0.28802 0.33733 0.0
O717 O 0.13317 0.30615 0.36869 0.0
C718 C 0.22631 0.37301 0.3273 0.0
O719 O 0.15604 0.27822 0.29671 0.0
O720 O 0.11315 0.28791 0.29539 0.0
C721 C 0.19252 0.3707 0.41989 0.0
C722 C 0.17516 0.3439 0.45682 0.0
C723 C 0.2064 0.3751 0.45538 0.0
C724 C 0.21498 0.38836 0.43709 0.0
C725 C 0.16145 0.33949 0.42124 0.0
C726 C 0.15271 0.32639 0.43949 0.0
C727 C 0.20136 0.3847 0.40059 0.0
H728 H 0.13597 0.2638 0.21775 0.0
H729 H 0.1203 0.24096 0.24972 0.0
H730 H 0.16267 0.34505 0.27773 0.0
H731 H 0.1792 0.36814 0.24594 0.0
H732 H 0.22434 0.38919 0.46841 0.0
H733 H 0.23914 0.4124 0.4364 0.0
H734 H 0.14375 0.32532 0.40818 0.0
H735 H 0.12806 0.30281 0.44005 0.0
Tb736 Tb 0.6864 0.84093 0.32109 0.0
Eu737 Eu 0.64434 0.82326 0.36102 0.0
C738 C 0.71332 0.89528 0.35878 0.0
C739 C 0.7116 0.81462 0.35657 0.0
C740 C 0.70763 0.85018 0.26866 0.0
C741 C 0.72544 0.85652 0.23548 0.0
C742 C 0.73357 0.85879 0.25579 0.0
C743 C 0.67321 0.83847 0.26102 0.0
C744 C 0.66505 0.83627 0.24067 0.0
C745 C 0.69125 0.84586 0.22775 0.0
C746 C 0.71734 0.85529 0.29002 0.0
O747 O 0.65269 0.78482 0.31889 0.0
O748 O 0.60946 0.78069 0.33736 0.0
O749 O 0.62711 0.85378 0.34319 0.0
O750 O 0.63687 0.83782 0.31272 0.0
C751 C 0.62096 0.76718 0.32419 0.0
O752 O 0.61889 0.78843 0.38348 0.0
O753 O 0.62122 0.8381 0.38436 0.0
O754 O 0.6962 0.87072 0.37006 0.0
O755 O 0.70678 0.88995 0.33948 0.0
O756 O 0.72106 0.8361 0.34284 0.0
O757 O 0.68063 0.80175 0.363 0.0
C758 C 0.62165 0.85036 0.32385 0.0
O759 O 0.70965 0.87587 0.30013 0.0
O760 O 0.7098 0.82761 0.29872 0.0
C761 C 0.63053 0.8199 0.41457 0.0
C762 C 0.66259 0.83437 0.45343 0.0
C763 C 0.62928 0.80522 0.44836 0.0
C764 C 0.61327 0.79812 0.42903 0.0
C765 C 0.66393 0.8488 0.41964 0.0
C766 C 0.67974 0.85602 0.43888 0.0
C767 C 0.61501 0.81153 0.39395 0.0
H768 H 0.74594 0.86319 0.22581 0.0
H769 H 0.76023 0.86773 0.26147 0.0
H770 H 0.65287 0.83165 0.27082 0.0
H771 H 0.63847 0.82783 0.23507 0.0
H772 H 0.6157 0.78805 0.45934 0.0
H773 H 0.58768 0.77545 0.42531 0.0
H774 H 0.67806 0.86558 0.40864 0.0
H775 H 0.70578 0.87815 0.4423 0.0
Tb776 Tb 0.17912 0.82216 0.36343 0.0
Eu777 Eu 0.1494 0.83984 0.32265 0.0
C778 C 0.1472 0.76808 0.3257 0.0
C779 C 0.22618 0.84851 0.32843 0.0
C780 C 0.19232 0.81417 0.4165 0.0
C781 C 0.18645 0.79633 0.44965 0.0
C782 C 0.19371 0.79273 0.43022 0.0
C783 C 0.18362 0.83937 0.42244 0.0
C784 C 0.17664 0.84319 0.44193 0.0
C785 C 0.17787 0.82159 0.4557 0.0
C786 C 0.19723 0.80811 0.39576 0.0
O787 O 0.2011 0.87818 0.36582 0.0
O788 O 0.16084 0.88304 0.34571 0.0
O789 O 0.1033 0.81145 0.34029 0.0
O790 O 0.13406 0.82581 0.37074 0.0
C791 C 0.18647 0.89582 0.35988 0.0
O792 O 0.15569 0.87542 0.30055 0.0
O793 O 0.11099 0.82343 0.29709 0.0
O794 O 0.1535 0.79292 0.31458 0.0
O795 O 0.1487 0.77299 0.34499 0.0
O796 O 0.2165 0.82752 0.34245 0.0
O797 O 0.20724 0.86161 0.32195 0.0
C798 C 0.1045 0.81373 0.3597 0.0
O799 O 0.1687 0.78699 0.38458 0.0
O800 O 0.21745 0.83534 0.38706 0.0
C801 C 0.13883 0.8455 0.26871 0.0
C802 C 0.15802 0.83475 0.23128 0.0
C803 C 0.14517 0.85759 0.23439 0.0
C804 C 0.13544 0.86279 0.253 0.0
C805 C 0.15235 0.8233 0.26566 0.0
C806 C 0.16168 0.81784 0.24713 0.0
C807 C 0.12985 0.85138 0.28853 0.0
H808 H 0.18765 0.77944 0.46 0.0
H809 H 0.19993 0.77286 0.42582 0.0
H810 H 0.1816 0.8556 0.41192 0.0
H811 H 0.16954 0.86248 0.44614 0.0
H812 H 0.14234 0.87107 0.22241 0.0
H813 H 0.12548 0.88038 0.25515 0.0
H814 H 0.15594 0.81031 0.27766 0.0
H815 H 0.17222 0.80069 0.24525 0.0
Tb816 Tb 0.8247 0.64424 0.65482 0.0
Eu817 Eu 0.85536 0.68844 0.69945 0.0
C818 C 0.85706 0.61959 0.68814 0.0
C819 C 0.77783 0.62225 0.68994 0.0
C820 C 0.81198 0.63095 0.60026 0.0
C821 C 0.81579 0.62383 0.56497 0.0
C822 C 0.80847 0.60995 0.58312 0.0
C823 C 0.82291 0.66614 0.59901 0.0
C824 C 0.8302 0.68005 0.58084 0.0
C825 C 0.82673 0.65903 0.56359 0.0
C826 C 0.8063 0.6165 0.61948 0.0
O827 O 0.806 0.68086 0.65784 0.0
O828 O 0.84921 0.72375 0.67967 0.0
O829 O 0.90162 0.70371 0.68169 0.0
O830 O 0.87164 0.69234 0.65124 0.0
C831 C 0.8241 0.71348 0.66537 0.0
O832 O 0.85272 0.72047 0.72408 0.0
O833 O 0.8912 0.70427 0.72631 0.0
O834 O 0.84896 0.63593 0.70156 0.0
O835 O 0.85527 0.62441 0.66938 0.0
O836 O 0.78652 0.61133 0.67399 0.0
O837 O 0.79743 0.65361 0.69912 0.0
C838 C 0.90113 0.70624 0.66254 0.0
O839 O 0.83426 0.62153 0.62975 0.0
O840 O 0.78641 0.6225 0.63051 0.0
C841 C 0.8646 0.70566 0.75519 0.0
C842 C 0.84437 0.68044 0.79217 0.0
C843 C 0.87882 0.70654 0.79031 0.0
C844 C 0.88883 0.71899 0.77199 0.0
C845 C 0.83025 0.67957 0.75699 0.0
C846 C 0.82027 0.66695 0.77523 0.0
C847 C 0.87553 0.71804 0.73577 0.0
H848 H 0.81277 0.60696 0.55196 0.0
H849 H 0.80038 0.58283 0.58381 0.0
H850 H 0.82636 0.68297 0.61214 0.0
H851 H 0.83927 0.7074 0.58037 0.0
H852 H 0.898 0.71754 0.80307 0.0
H853 H 0.91552 0.73899 0.77094 0.0
H854 H 0.81115 0.66886 0.74422 0.0
H855 H 0.79377 0.64628 0.77598 0.0
Tb856 Tb 0.35003 0.17122 0.65791 0.0
Eu857 Eu 0.3066 0.152 0.69735 0.0
C858 C 0.3769 0.22353 0.69682 0.0
C859 C 0.37375 0.14293 0.69332 0.0
C860 C 0.3708 0.18117 0.60561 0.0
C861 C 0.38119 0.20287 0.57347 0.0
C862 C 0.39097 0.20701 0.59371 0.0
C863 C 0.34057 0.15104 0.59705 0.0
C864 C 0.33092 0.14675 0.57674 0.0
C865 C 0.35118 0.17267 0.5648 0.0
C866 C 0.38107 0.18695 0.62697 0.0
O867 O 0.31494 0.11514 0.65407 0.0
O868 O 0.27222 0.11093 0.67302 0.0
O869 O 0.28974 0.18333 0.68011 0.0
O870 O 0.3013 0.16986 0.64952 0.0
C871 C 0.28328 0.09754 0.65954 0.0
O872 O 0.27569 0.11453 0.71736 0.0
O873 O 0.28656 0.16757 0.72208 0.0
O874 O 0.35865 0.19825 0.70741 0.0
O875 O 0.37193 0.21944 0.67743 0.0
O876 O 0.38352 0.16387 0.67929 0.0
O877 O 0.34277 0.13042 0.6997 0.0
C878 C 0.28525 0.18124 0.66078 0.0
O879 O 0.3724 0.20677 0.63703 0.0
O880 O 0.37524 0.15987 0.6359 0.0
C881 C 0.28832 0.14056 0.75049 0.0
C882 C 0.32037 0.14996 0.789 0.0
C883 C 0.31166 0.12026 0.77624 0.0
C884 C 0.29572 0.11554 0.75718 0.0
C885 C 0.29579 0.16956 0.76356 0.0
C886 C 0.31188 0.17434 0.78257 0.0
C887 C 0.27551 0.13813 0.72963 0.0
H888 H 0.39724 0.22315 0.56454 0.0
H889 H 0.41422 0.23053 0.6001 0.0
H890 H 0.32435 0.131 0.60607 0.0
H891 H 0.30741 0.12345 0.5704 0.0
H892 H 0.31779 0.10101 0.78089 0.0
H893 H 0.29017 0.09279 0.74755 0.0
H894 H 0.29036 0.18925 0.75886 0.0
H895 H 0.3189 0.19783 0.79194 0.0
Tb896 Tb 0.84459 0.15989 0.69566 0.0
Eu897 Eu 0.81735 0.18026 0.65558 0.0
C898 C 0.81537 0.10848 0.65683 0.0
C899 C 0.89384 0.18751 0.66168 0.0
C900 C 0.85284 0.14875 0.74859 0.0
C901 C 0.83121 0.12429 0.77911 0.0
C902 C 0.83978 0.12066 0.76002 0.0
C903 C 0.85729 0.18068 0.75657 0.0
C904 C 0.84907 0.18441 0.77578 0.0
C905 C 0.83568 0.15616 0.78714 0.0
C906 C 0.85934 0.14342 0.72803 0.0
O907 O 0.87044 0.21622 0.69802 0.0
O908 O 0.8307 0.22349 0.67919 0.0
O909 O 0.77035 0.15052 0.67237 0.0
O910 O 0.80068 0.16589 0.70281 0.0
C911 C 0.85768 0.23564 0.69245 0.0
O912 O 0.82206 0.21771 0.63514 0.0
O913 O 0.78128 0.16395 0.62884 0.0
O914 O 0.82276 0.13444 0.64644 0.0
O915 O 0.81489 0.11188 0.67606 0.0
O916 O 0.88342 0.1661 0.67551 0.0
O917 O 0.87511 0.20069 0.6549 0.0
C918 C 0.77109 0.15318 0.69174 0.0
O919 O 0.83154 0.12314 0.7161 0.0
O920 O 0.88112 0.17075 0.7199 0.0
C921 C 0.81209 0.19169 0.60251 0.0
C922 C 0.83438 0.17966 0.56639 0.0
C923 C 0.80217 0.17844 0.56678 0.0
C924 C 0.79102 0.18428 0.58476 0.0
C925 C 0.8447 0.194 0.60199 0.0
C926 C 0.85586 0.18836 0.58413 0.0
C927 C 0.79922 0.19369 0.62174 0.0
H928 H 0.82141 0.10228 0.78769 0.0
H929 H 0.8359 0.09576 0.75409 0.0
H930 H 0.86679 0.20261 0.74794 0.0
H931 H 0.85271 0.20922 0.78168 0.0
H932 H 0.78513 0.17176 0.55329 0.0
H933 H 0.76563 0.18203 0.58488 0.0
H934 H 0.86125 0.19931 0.6155 0.0
H935 H 0.88109 0.19016 0.58424 0.0
C936 C 0.35257 0.8939 0.03723 0.0
C937 C 0.35746 0.88153 0.05494 0.0
C938 C 0.3809 0.91399 0.0265 0.0
C939 C 0.41492 0.92216 0.03312 0.0
H940 H 0.32686 0.88877 0.03194 0.0
H941 H 0.37633 0.9242 0.01338 0.0
S942 S 0.44041 0.8912 0.07686 0.0
N943 N 0.39816 0.87564 0.07733 0.0
N944 N 0.45108 0.91299 0.05731 0.0
C945 C 0.41968 0.90832 0.05025 0.0
C946 C 0.39105 0.88814 0.06112 0.0
C947 C 0.12078 0.46941 0.04033 0.0
C948 C 0.10694 0.4395 0.05041 0.0
C949 C 0.09915 0.48076 0.0318 0.0
C950 C 0.0629 0.46289 0.03322 0.0
H951 H 0.14842 0.48375 0.03871 0.0
H952 H 0.11103 0.50379 0.02407 0.0
S953 S 0.01433 0.384 0.05919 0.0
N954 N 0.05518 0.39301 0.06205 0.0
N955 N 0.01455 0.41404 0.04621 0.0
C956 C 0.04897 0.43325 0.04365 0.0
C957 C 0.07095 0.42165 0.05217 0.0
C958 C 0.58508 0.6546 0.04548 0.0
C959 C 0.56933 0.67464 0.04235 0.0
C960 C 0.56779 0.61921 0.0389 0.0
C961 C 0.53416 0.60249 0.02873 0.0
H962 H 0.61096 0.66635 0.0532 0.0
H963 H 0.58126 0.60504 0.0416 0.0
S964 S 0.48163 0.64381 0.01686 0.0
N965 N 0.51835 0.67563 0.02855 0.0
N966 N 0.48561 0.60892 0.01607 0.0
C967 C 0.51802 0.6223 0.02558 0.0
C968 C 0.53563 0.6584 0.03245 0.0
C969 C 0.87627 0.34479 0.97647 0.0
C970 C 0.88736 0.33043 0.96156 0.0
C971 C 0.89731 0.37935 0.98461 0.0
C972 C 0.9302 0.40088 0.97808 0.0
H973 H 0.85169 0.32883 0.9824 0.0
H974 H 0.88804 0.38884 0.9965 0.0
S975 S 0.96886 0.37649 0.93738 0.0
N976 N 0.93156 0.34081 0.93927 0.0
N977 N 0.97121 0.40585 0.95435 0.0
C978 C 0.94075 0.38716 0.96243 0.0
C979 C 0.91933 0.35192 0.95425 0.0
C980 C 0.62188 0.53472 0.9551 0.0
C981 C 0.65269 0.54293 0.96674 0.0
C982 C 0.59065 0.52523 0.96355 0.0
C983 C 0.58862 0.52298 0.98399 0.0
H984 H 0.62188 0.53586 0.93927 0.0
H985 H 0.56784 0.5196 0.95393 0.0
S986 S 0.66147 0.54237 0.02128 0.0
N987 N 0.67906 0.54897 1.0001 0.0
N988 N 0.61998 0.52976 0.01574 0.0
C989 C 0.61884 0.5303 0.99581 0.0
C990 C 0.65091 0.54057 0.98726 0.0
C991 C 0.48254 0.12094 0.98774 0.0
C992 C 0.4693 0.11554 0.96782 0.0
C993 C 0.48424 0.09452 0.99692 0.0
C994 C 0.47341 0.06221 0.9863 0.0
H995 H 0.49265 0.14609 0.99606 0.0
H996 H 0.49593 0.10013 0.01204 0.0
S997 S 0.43477 0.03458 0.93417 0.0
N998 N 0.44343 0.07507 0.93813 0.0
N999 N 0.44684 0.02551 0.95526 0.0
C1000 C 0.45871 0.05608 0.96665 0.0
C1001 C 0.45659 0.08276 0.95742 0.0
C1002 C 0.6433 0.11569 0.97768 0.0
C1003 C 0.66097 0.09995 0.96929 0.0
C1004 C 0.61226 0.09612 0.98642 0.0
C1005 C 0.59788 0.06017 0.98698 0.0
H1006 H 0.65324 0.14321 0.9772 0.0
H1007 H 0.59904 0.10903 0.99232 0.0
S1008 S 0.63656 0.00756 0.96952 0.0
N1009 N 0.66356 0.04701 0.96389 0.0
N1010 N 0.60525 0.01024 0.97999 0.0
C1011 C 0.61593 0.04441 0.97922 0.0
C1012 C 0.64746 0.06429 0.97045 0.0
C1013 C 0.90022 0.56029 0.98542 0.0
C1014 C 0.88957 0.5539 0.96504 0.0
C1015 C 0.92194 0.54902 0.99368 0.0
C1016 C 0.93431 0.53116 0.9819 0.0
H1017 H 0.89152 0.57403 0.99511 0.0
H1018 H 0.9293 0.55472 0.00946 0.0
S1019 S 0.9143 0.50833 0.92754 0.0
N1020 N 0.89306 0.52879 0.93318 0.0
N1021 N 0.93402 0.50762 0.9486 0.0
C1022 C 0.92383 0.5246 0.96144 0.0
C1023 C 0.90139 0.53587 0.95305 0.0
C1024 C 0.48301 0.3543 0.9842 0.0
C1025 C 0.47081 0.34205 0.96427 0.0
C1026 C 0.48317 0.38376 0.99274 0.0
C1027 C 0.47185 0.40227 0.98147 0.0
H1028 H 0.49312 0.34143 0.99311 0.0
H1029 H 0.49369 0.39293 0.00803 0.0
S1030 S 0.43629 0.37962 0.92872 0.0
N1031 N 0.44591 0.34944 0.93364 0.0
N1032 N 0.44666 0.40519 0.94953 0.0
C1033 C 0.45872 0.3896 0.96162 0.0
C1034 C 0.45808 0.35935 0.95305 0.0
C1035 C 0.12798 0.64679 0.04063 0.0
C1036 C 0.12898 0.65435 0.06106 0.0
C1037 C 0.10053 0.61624 0.03048 0.0
C1038 C 0.07334 0.59185 0.04046 0.0
H1039 H 0.14867 0.66461 0.03245 0.0
H1040 H 0.10114 0.61141 0.01477 0.0
S1041 S 0.06392 0.59989 0.09408 0.0
N1042 N 0.1005 0.63553 0.09096 0.0
N1043 N 0.0489 0.57787 0.072 0.0
C1044 C 0.0739 0.59935 0.06092 0.0
C1045 C 0.10171 0.63069 0.07119 0.0
C1046 C 0.3668 0.46023 0.05996 0.0
C1047 C 0.3348 0.4474 0.04845 0.0
C1048 C 0.39814 0.47206 0.05116 0.0
C1049 C 0.39886 0.47171 0.03045 0.0
H1050 H 0.36751 0.46012 0.07587 0.0
H1051 H 0.42188 0.48089 0.06072 0.0
S1052 S 0.32235 0.44409 0.9939 0.0
N1053 N 0.30602 0.43764 0.01543 0.0
N1054 N 0.36455 0.45954 0.99885 0.0
C1055 C 0.36708 0.46008 0.01885 0.0
C1056 C 0.33522 0.44804 0.02784 0.0
C1057 C 0.54446 0.8835 0.03323 0.0
C1058 C 0.58064 0.90051 0.03856 0.0
C1059 C 0.52855 0.9016 0.02612 0.0
C1060 C 0.54827 0.93739 0.02449 0.0
H1061 H 0.52837 0.85605 0.03462 0.0
H1062 H 0.50056 0.88773 0.02248 0.0
S1063 S 0.64395 0.99365 0.03596 0.0
N1064 N 0.63573 0.95492 0.04129 0.0
N1065 N 0.60595 0.98889 0.02799 0.0
C1066 C 0.58451 0.95452 0.02945 0.0
C1067 C 0.60069 0.93609 0.03647 0.0
C1068 C 0.04064 0.25541 0.39503 0.0
C1069 C 0.01695 0.22088 0.38754 0.0
C1070 C 0.06785 0.27723 0.38435 0.0
C1071 C 0.07252 0.26546 0.36573 0.0
H1072 H 0.03864 0.26543 0.4095 0.0
H1073 H 0.08589 0.3034 0.39095 0.0
S1074 S 0.01705 0.17767 0.33919 0.0
N1075 N 0.99928 0.17613 0.36005 0.0
N1076 N 0.05051 0.21752 0.33988 0.0
C1077 C 0.04817 0.23154 0.35761 0.0
C1078 C 0.02038 0.20914 0.36856 0.0
C1079 C 0.75243 0.7788 0.39171 0.0
C1080 C 0.78221 0.7838 0.38285 0.0
C1081 C 0.72997 0.78898 0.38315 0.0
C1082 C 0.73653 0.80495 0.36545 0.0
H1083 H 0.74598 0.76615 0.40516 0.0
H1084 H 0.70721 0.78417 0.3905 0.0
S1085 S 0.81232 0.8256 0.33699 0.0
N1086 N 0.81796 0.8069 0.35587 0.0
N1087 N 0.77594 0.82618 0.33972 0.0
C1088 C 0.76674 0.8108 0.35668 0.0
C1089 C 0.78946 0.80016 0.36536 0.0
C1090 C 0.2137 0.99108 0.36447 0.0
C1091 C 0.23182 0.00317 0.38341 0.0
C1092 C 0.19826 0.95607 0.35719 0.0
C1093 C 0.20096 0.93207 0.36848 0.0
H1094 H 0.2115 0.00887 0.35521 0.0
H1095 H 0.1849 0.94798 0.34241 0.0
S1096 S 0.24512 0.95078 0.41923 0.0
N1097 N 0.25107 0.98861 0.41352 0.0
N1098 N 0.22242 0.92276 0.39979 0.0
C1099 C 0.21874 0.94383 0.38756 0.0
C1100 C 0.23405 0.9794 0.39505 0.0
C1101 C 0.53988 0.67949 0.30916 0.0
C1102 C 0.5536 0.65928 0.30163 0.0
C1103 C 0.56186 0.71446 0.31634 0.0
C1104 C 0.59823 0.73055 0.31591 0.0
H1105 H 0.51205 0.668 0.30983 0.0
H1106 H 0.55021 0.72898 0.32224 0.0
S1107 S 0.64662 0.68876 0.29675 0.0
N1108 N 0.60533 0.65769 0.29357 0.0
N1109 N 0.64676 0.72341 0.30687 0.0
C1110 C 0.61211 0.71063 0.308 0.0
C1111 C 0.58976 0.67498 0.30093 0.0
C1112 C 0.30209 0.89272 0.29708 0.0
C1113 C 0.32127 0.8759 0.3003 0.0
C1114 C 0.27163 0.8837 0.30627 0.0
C1115 C 0.25889 0.85742 0.31913 0.0
H1116 H 0.31108 0.91361 0.28768 0.0
H1117 H 0.25818 0.8978 0.30334 0.0
S1118 S 0.29812 0.80353 0.33132 0.0
N1119 N 0.32438 0.83039 0.3164 0.0
N1120 N 0.26731 0.81351 0.33379 0.0
C1121 C 0.27754 0.83995 0.32222 0.0
C1122 C 0.30862 0.84917 0.31281 0.0
C1123 C 0.12584 0.42225 0.29102 0.0
C1124 C 0.14035 0.45609 0.30037 0.0
C1125 C 0.1272 0.39629 0.30078 0.0
C1126 C 0.14271 0.40313 0.32033 0.0
H1127 H 0.11497 0.41623 0.27572 0.0
H1128 H 0.11702 0.37093 0.29271 0.0
S1129 S 0.18115 0.48686 0.35192 0.0
N1130 N 0.16828 0.49465 0.33062 0.0
N1131 N 0.17058 0.44566 0.34915 0.0
C1132 C 0.15543 0.43637 0.33025 0.0
C1133 C 0.1544 0.46295 0.32019 0.0
C1134 C 0.318 0.44302 0.31894 0.0
C1135 C 0.32181 0.43239 0.29978 0.0
C1136 C 0.28682 0.42421 0.32766 0.0
C1137 C 0.25838 0.39404 0.31754 0.0
H1138 H 0.33963 0.46548 0.32746 0.0
H1139 H 0.28536 0.43286 0.34261 0.0
S1140 S 0.25385 0.35811 0.26598 0.0
N1141 N 0.29363 0.39191 0.27029 0.0
N1142 N 0.23526 0.35635 0.28653 0.0
C1143 C 0.26153 0.38403 0.29804 0.0
C1144 C 0.29316 0.40323 0.28921 0.0
C1145 C 0.56777 0.89431 0.31751 0.0
C1146 C 0.5539 0.88448 0.29762 0.0
C1147 C 0.5892 0.88276 0.32584 0.0
C1148 C 0.59806 0.86125 0.31455 0.0
H1149 H 0.56185 0.91098 0.32676 0.0
H1150 H 0.59926 0.89123 0.34123 0.0
S1151 S 0.56856 0.82841 0.26157 0.0
N1152 N 0.55042 0.85211 0.26674 0.0
N1153 N 0.59084 0.83042 0.28228 0.0
C1154 C 0.58427 0.85119 0.29458 0.0
C1155 C 0.56212 0.86274 0.28616 0.0
C1156 C 0.15444 0.68756 0.31705 0.0
C1157 C 0.14145 0.6763 0.29711 0.0
C1158 C 0.15439 0.71626 0.32659 0.0
C1159 C 0.14201 0.73497 0.31634 0.0
H1160 H 0.16534 0.67452 0.32516 0.0
H1161 H 0.16563 0.72479 0.3418 0.0
S1162 S 0.10412 0.71484 0.26407 0.0
N1163 N 0.11474 0.6849 0.26761 0.0
N1164 N 0.11494 0.73912 0.28541 0.0
C1165 C 0.12804 0.72325 0.29653 0.0
C1166 C 0.12768 0.6938 0.28694 0.0
C1167 C 0.76811 0.97121 0.39755 0.0
C1168 C 0.79708 0.9928 0.38775 0.0
C1169 C 0.74084 0.93997 0.38794 0.0
C1170 C 0.74134 0.92947 0.3681 0.0
H1171 H 0.76703 0.97803 0.41294 0.0
H1172 H 0.71935 0.92382 0.39619 0.0
S1173 S 0.81078 0.97797 0.3357 0.0
N1174 N 0.82435 0.00244 0.35707 0.0
N1175 N 0.77294 0.94384 0.33883 0.0
C1176 C 0.76976 0.95143 0.35797 0.0
C1177 C 0.79772 0.98304 0.36786 0.0
C1178 C 0.01066 0.7878 0.36788 0.0
C1179 C 0.00885 0.78193 0.38795 0.0
C1180 C 0.04156 0.79803 0.35884 0.0
C1181 C 0.07206 0.80325 0.36959 0.0
H1182 H 0.98776 0.78376 0.35897 0.0
H1183 H 0.04148 0.80189 0.34331 0.0
S1184 S 0.08117 0.79257 0.42292 0.0
N1185 N 0.04032 0.78298 0.41845 0.0
N1186 N 0.0983 0.80217 0.40171 0.0
C1187 C 0.07063 0.79795 0.38981 0.0
C1188 C 0.0391 0.78728 0.39891 0.0
C1189 C 0.2493 0.26096 0.37412 0.0
C1190 C 0.22748 0.22598 0.37707 0.0
C1191 C 0.2359 0.28012 0.36572 0.0
C1192 C 0.20014 0.26506 0.35972 0.0
H1193 H 0.27707 0.27376 0.37842 0.0
H1194 H 0.25378 0.30715 0.36405 0.0
S1195 S 0.13175 0.17438 0.3641 0.0
N1196 N 0.16819 0.17691 0.37331 0.0
N1197 N 0.14304 0.21303 0.3571 0.0
C1198 C 0.17802 0.22987 0.36205 0.0
C1199 C 0.19168 0.21031 0.37083 0.0
C1200 C 0.72267 0.57418 0.72988 0.0
C1201 C 0.68966 0.55174 0.71965 0.0
C1202 C 0.75079 0.59674 0.72001 0.0
C1203 C 0.74727 0.59772 0.6995 0.0
H1204 H 0.72713 0.57382 0.74562 0.0
H1205 H 0.77581 0.61294 0.72847 0.0
S1206 S 0.66653 0.54551 0.66575 0.0
N1207 N 0.6549 0.53291 0.68774 0.0
N1208 N 0.70844 0.57493 0.66918 0.0
C1209 C 0.71467 0.57549 0.68897 0.0
C1210 C 0.68571 0.55265 0.69905 0.0
C1211 C 0.44755 0.12315 0.69951 0.0
C1212 C 0.4456 0.11296 0.71875 0.0
C1213 C 0.42473 0.13347 0.69157 0.0
C1214 C 0.39857 0.13335 0.70239 0.0
H1215 H 0.46685 0.12303 0.69051 0.0
H1216 H 0.42711 0.14083 0.67664 0.0
S1217 S 0.38299 0.10957 0.75363 0.0
N1218 N 0.41591 0.10403 0.74857 0.0
N1219 N 0.37288 0.12311 0.73368 0.0
C1220 C 0.39662 0.12358 0.72175 0.0
C1221 C 0.42017 0.11352 0.72992 0.0
C1222 C 0.87539 0.32729 0.70549 0.0
C1223 C 0.91028 0.34492 0.71371 0.0
C1224 C 0.85846 0.29187 0.69876 0.0
C1225 C 0.87568 0.27273 0.70032 0.0
H1226 H 0.86128 0.34113 0.70398 0.0
H1227 H 0.83168 0.27943 0.69232 0.0
S1228 S 0.96701 0.30703 0.72155 0.0
N1229 N 0.96127 0.34083 0.72359 0.0
N1230 N 0.92969 0.2743 0.71109 0.0
C1231 C 0.9105 0.2901 0.70886 0.0
C1232 C 0.92775 0.32619 0.7155 0.0
C1233 C 0.24744 0.01358 0.62584 0.0
C1234 C 0.21971 0.98972 0.63565 0.0
C1235 C 0.26752 0.04856 0.63348 0.0
C1236 C 0.26024 0.061 0.65106 0.0
H1237 H 0.25426 0.00495 0.61245 0.0
H1238 H 0.28907 0.06587 0.62563 0.0
S1239 S 0.18868 0.00888 0.68157 0.0
N1240 N 0.18484 0.98086 0.66322 0.0
N1241 N 0.22222 0.04649 0.67764 0.0
C1242 C 0.23177 0.03743 0.66065 0.0
C1243 C 0.21163 0.00181 0.65295 0.0
C1244 C 0.96822 0.22783 0.62883 0.0
C1245 C 0.99042 0.21552 0.63496 0.0
C1246 C 0.93736 0.21873 0.63761 0.0
C1247 C 0.92705 0.19661 0.65283 0.0
H1248 H 0.97516 0.24533 0.61743 0.0
H1249 H 0.92164 0.22945 0.63242 0.0
S1250 S 0.97523 0.15563 0.67342 0.0
N1251 N 0.99945 0.17898 0.65661 0.0
N1252 N 0.94148 0.16168 0.67311 0.0
C1253 C 0.94881 0.18361 0.65886 0.0
C1254 C 0.98041 0.1931 0.64996 0.0
C1255 C 0.79421 0.75372 0.62718 0.0
C1256 C 0.81208 0.78909 0.63426 0.0
C1257 C 0.79704 0.72932 0.63782 0.0
C1258 C 0.81817 0.73937 0.65591 0.0
H1259 H 0.77837 0.74492 0.6131 0.0
H1260 H 0.78343 0.70254 0.6314 0.0
S1261 S 0.8693 0.82898 0.68118 0.0
N1262 N 0.85075 0.83303 0.66067 0.0
N1263 N 0.85603 0.78722 0.68082 0.0
C1264 C 0.8353 0.7746 0.66347 0.0
C1265 C 0.83225 0.79943 0.65262 0.0
C1266 C 0.99729 0.76577 0.65648 0.0
C1267 C 0.99852 0.76207 0.63591 0.0
C1268 C 0.96579 0.7477 0.66502 0.0
C1269 C 0.93424 0.72558 0.65328 0.0
H1270 H 0.02098 0.78235 0.66608 0.0
H1271 H 0.96622 0.75119 0.68092 0.0
S1272 S 0.92356 0.70793 0.59846 0.0
N1273 N 0.96562 0.73539 0.60397 0.0
N1274 N 0.90649 0.70139 0.61978 0.0
C1275 C 0.9352 0.72203 0.63261 0.0
C1276 C 0.96729 0.74024 0.62399 0.0
C1277 C 0.24327 0.21205 0.62295 0.0
C1278 C 0.21728 0.21381 0.63299 0.0
C1279 C 0.26469 0.20092 0.63191 0.0
C1280 C 0.26138 0.19175 0.65141 0.0
H1281 H 0.24705 0.2193 0.60803 0.0
H1282 H 0.28443 0.20015 0.62359 0.0
S1283 S 0.19717 0.19199 0.68404 0.0
N1284 N 0.18926 0.20539 0.66339 0.0
N1285 N 0.2295 0.18476 0.68033 0.0
C1286 C 0.23533 0.19331 0.66157 0.0
C1287 C 0.21328 0.20422 0.65234 0.0
C1288 C 0.8149 0.02346 0.64873 0.0
C1289 C 0.80922 0.01613 0.62808 0.0
C1290 C 0.81538 0.05264 0.658 0.0
C1291 C 0.81073 0.0758 0.64689 0.0
H1292 H 0.81938 0.00669 0.65777 0.0
H1293 H 0.8206 0.05763 0.67393 0.0
S1294 S 0.79424 0.06751 0.59223 0.0
N1295 N 0.79818 0.03369 0.59675 0.0
N1296 N 0.7991 0.08859 0.61403 0.0
C1297 C 0.80429 0.06825 0.62618 0.0
C1298 C 0.80352 0.03839 0.61681 0.0
C1299 C 0.4619 0.30926 0.70642 0.0
C1300 C 0.46242 0.31945 0.72642 0.0
C1301 C 0.43358 0.27873 0.69678 0.0
C1302 C 0.40508 0.257 0.70693 0.0
H1303 H 0.48366 0.32494 0.6982 0.0
H1304 H 0.43453 0.27166 0.68142 0.0
S1305 S 0.39394 0.27266 0.75952 0.0
N1306 N 0.43205 0.30609 0.75603 0.0
N1307 N 0.37889 0.24843 0.73808 0.0
C1308 C 0.40518 0.26721 0.72693 0.0
C1309 C 0.43383 0.29853 0.73664 0.0
C1310 C 0.67512 0.11937 0.69849 0.0
C1311 C 0.67354 0.11652 0.71894 0.0
C1312 C 0.70669 0.13173 0.68991 0.0
C1313 C 0.73818 0.14182 0.70138 0.0
H1314 H 0.65163 0.1118 0.68897 0.0
H1315 H 0.70626 0.13307 0.67409 0.0
S1316 S 0.74819 0.13884 0.75569 0.0
N1317 N 0.70624 0.12445 0.75043 0.0
N1318 N 0.76554 0.14797 0.73453 0.0
C1319 C 0.73704 0.13952 0.72195 0.0
C1320 C 0.70481 0.12687 0.73066 0.0
C1321 C 0.89239 0.57825 0.72247 0.0
C1322 C 0.90472 0.56191 0.70958 0.0
C1323 C 0.87606 0.59577 0.71528 0.0
C1324 C 0.87138 0.59778 0.69488 0.0
H1325 H 0.89633 0.57843 0.73831 0.0
H1326 H 0.86786 0.60857 0.72597 0.0
S1327 S 0.89593 0.55613 0.65482 0.0
N1328 N 0.90879 0.54633 0.6754 0.0
N1329 N 0.87846 0.57969 0.66179 0.0
C1330 C 0.88248 0.58042 0.68176 0.0
C1331 C 0.89911 0.56248 0.68913 0.0
C1332 C 0.45826 0.97021 0.16695 0.0
C1333 C 0.48347 0.97118 0.1808 0.0
C1334 C 0.46677 0.98205 0.14831 0.0
C1335 C 0.50096 0.99582 0.14289 0.0
H1336 H 0.43171 0.9602 0.17056 0.0
H1337 H 0.44656 0.98106 0.1382 0.0
S1338 S 0.57652 0.00384 0.17367 0.0
N1339 N 0.54407 0.9869 0.18773 0.0
N1340 N 0.55994 0.00887 0.15271 0.0
C1341 C 0.52634 0.99668 0.15653 0.0
C1342 C 0.51762 0.98439 0.17545 0.0
C1343 C 0.06515 0.54021 0.1582 0.0
C1344 C 0.05741 0.51752 0.17298 0.0
C1345 C 0.04321 0.53064 0.14067 0.0
C1346 C 0.01277 0.49795 0.13718 0.0
H1347 H 0.08856 0.56552 0.16012 0.0
H1348 H 0.05036 0.54883 0.12963 0.0
S1349 S 0.97976 0.42957 0.17138 0.0
N1350 N 0.01643 0.46129 0.18321 0.0
N1351 N 0.9754 0.44313 0.14999 0.0
C1352 C 1.00465 0.47493 0.15175 0.0
C1353 C 0.02692 0.48475 0.1697 0.0
C1354 C 0.51107 0.50223 0.1758 0.0
C1355 C 0.47908 0.49854 0.18061 0.0
C1356 C 0.51763 0.49916 0.15613 0.0
C1357 C 0.4925 0.4923 0.14042 0.0
H1358 H 0.5312 0.50726 0.18736 0.0
H1359 H 0.54277 0.50247 0.15321 0.0
S1360 S 0.40435 0.48005 0.14497 0.0
N1361 N 0.42199 0.48783 0.16801 0.0
N1362 N 0.43403 0.48123 0.13097 0.0
C1363 C 0.46031 0.48842 0.14497 0.0
C1364 C 0.45362 0.49159 0.16506 0.0
C1365 C 0.02708 0.53811 0.84526 0.0
C1366 C 1.00319 0.50618 0.83446 0.0
C1367 C 0.0345 0.54056 0.86574 0.0
C1368 C 0.01814 0.51123 0.87621 0.0
H1369 H 0.04082 0.56122 0.83776 0.0
H1370 H 0.0533 0.56562 0.87344 0.0
S1371 S 0.95247 0.42189 0.85493 0.0
N1372 N 0.9621 0.4449 0.83583 0.0
N1373 N 0.97656 0.44938 0.87428 0.0
C1374 C 0.99366 0.47929 0.86565 0.0
C1375 C 0.98613 0.47679 0.84479 0.0
C1376 C 0.50861 0.4577 0.85058 0.0
C1377 C 0.53269 0.4854 0.84083 0.0
C1378 C 0.49519 0.46362 0.86757 0.0
C1379 C 0.50518 0.49748 0.87549 0.0
H1380 H 0.50036 0.43116 0.84514 0.0
H1381 H 0.47713 0.4415 0.87474 0.0
S1382 S 0.56752 0.57902 0.85568 0.0
N1383 N 0.56591 0.54799 0.84032 0.0
N1384 N 0.54047 0.55913 0.87229 0.0
C1385 C 0.52855 0.52543 0.86565 0.0
C1386 C 0.54233 0.51939 0.84832 0.0
C1387 C 0.53764 0.03201 0.85316 0.0
C1388 C 0.5119 0.01704 0.83695 0.0
C1389 C 0.53084 0.01966 0.87185 0.0
C1390 C 0.49816 0.99155 0.87505 0.0
H1391 H 0.56315 0.05368 0.85144 0.0
H1392 H 0.55151 0.03198 0.88385 0.0
S1393 S 0.422 0.94291 0.83746 0.0
N1394 N 0.45261 0.97203 0.82533 0.0
N1395 N 0.43968 0.9495 0.86039 0.0
C1396 C 0.47226 0.97634 0.85895 0.0
C1397 C 0.47915 0.98892 0.83997 0.0
C1398 C 0.16049 0.34069 0.5115 0.0
C1399 C 0.14741 0.30552 0.51433 0.0
C1400 C 0.16948 0.35278 0.49296 0.0
C1401 C 0.16568 0.33023 0.47639 0.0
H1402 H 0.16434 0.35924 0.5238 0.0
H1403 H 0.17921 0.38004 0.49158 0.0
S1404 S 0.13236 0.23562 0.47579 0.0
N1405 N 0.13051 0.24811 0.49881 0.0
N1406 N 0.14825 0.27093 0.46416 0.0
C1407 C 0.15257 0.29495 0.47899 0.0
C1408 C 0.14334 0.28262 0.49789 0.0
C1409 C 0.70603 0.82438 0.50002 0.0
C1410 C 0.72263 0.85803 0.51001 0.0
C1411 C 0.68527 0.81638 0.48207 0.0
C1412 C 0.68048 0.84179 0.47359 0.0
H1413 H 0.71022 0.80451 0.5057 0.0
H1414 H 0.67412 0.7906 0.47438 0.0
S1415 S 0.714 0.93218 0.49541 0.0
N1416 N 0.72978 0.91575 0.51124 0.0
N1417 N 0.69094 0.90075 0.47749 0.0
C1418 C 0.69542 0.87494 0.48398 0.0
C1419 C 0.71645 0.88306 0.5022 0.0
C1420 C 0.13881 0.79794 0.50454 0.0
C1421 C 0.15731 0.82946 0.51676 0.0
C1422 C 0.14528 0.79572 0.48471 0.0
C1423 C 0.17008 0.82505 0.47636 0.0
H1424 H 0.12001 0.77461 0.51051 0.0
H1425 H 0.13095 0.7708 0.47589 0.0
S1426 S 0.22398 0.91402 0.50186 0.0
N1427 N 0.20036 0.89089 0.51893 0.0
N1428 N 0.2124 0.88675 0.48167 0.0
C1429 C 0.18794 0.85692 0.48826 0.0
C1430 C 0.18161 0.8591 0.50847 0.0
C1431 C 0.64835 0.81226 0.17525 0.0
C1432 C 0.66886 0.84014 0.16446 0.0
C1433 C 0.65522 0.81457 0.19578 0.0
C1434 C 0.68306 0.84472 0.20623 0.0
H1435 H 0.62693 0.78838 0.16773 0.0
H1436 H 0.63917 0.79228 0.20346 0.0
S1437 S 0.74384 0.92541 0.18506 0.0
N1438 N 0.71783 0.89902 0.16584 0.0
N1439 N 0.73027 0.9036 0.20446 0.0
C1440 C 0.70331 0.87303 0.1957 0.0
C1441 C 0.69629 0.87071 0.17482 0.0
C1442 C 0.20617 0.85064 0.18514 0.0
C1443 C 0.19456 0.81671 0.17653 0.0
C1444 C 0.1932 0.85649 0.20246 0.0
C1445 C 0.16826 0.8286 0.21172 0.0
H1446 H 0.22638 0.87271 0.1789 0.0
H1447 H 0.20378 0.8829 0.20908 0.0
S1448 S 0.12569 0.73526 0.19347 0.0
N1449 N 0.15386 0.75517 0.17737 0.0
N1450 N 0.12989 0.76619 0.20994 0.0
C1451 C 0.15518 0.79474 0.20268 0.0
C1452 C 0.16822 0.78879 0.18509 0.0
C1453 C 0.16883 0.36951 0.18513 0.0
C1454 C 0.18494 0.35776 0.17188 0.0
C1455 C 0.16127 0.35702 0.20372 0.0
C1456 C 0.16927 0.33204 0.20985 0.0
H1457 H 0.16175 0.3884 0.18105 0.0
H1458 H 0.1483 0.36645 0.21319 0.0
S1459 S 0.21267 0.29357 0.18116 0.0
N1460 N 0.209 0.31981 0.16647 0.0
N1461 N 0.19578 0.29727 0.20153 0.0
C1462 C 0.18606 0.32062 0.19696 0.0
C1463 C 0.19371 0.33328 0.17801 0.0
C1464 C 0.84595 0.64684 0.84212 0.0
C1465 C 0.81567 0.64329 0.84978 0.0
C1466 C 0.85492 0.65871 0.82353 0.0
C1467 C 0.83384 0.66725 0.81172 0.0
H1468 H 0.86332 0.64117 0.85078 0.0
H1469 H 0.87857 0.66116 0.81834 0.0
S1470 S 0.7511 0.66132 0.82466 0.0
N1471 N 0.76394 0.6481 0.84377 0.0
N1472 N 0.78103 0.67095 0.80907 0.0
C1473 C 0.80318 0.66326 0.81907 0.0
C1474 C 0.79409 0.65124 0.83802 0.0
C1475 C 0.39235 0.16364 0.8273 0.0
C1476 C 0.38433 0.17621 0.84449 0.0
C1477 C 0.37091 0.15421 0.80955 0.0
C1478 C 0.34063 0.15687 0.8084 0.0
H1479 H 0.416 0.16225 0.82742 0.0
H1480 H 0.37876 0.14593 0.79646 0.0
S1481 S 0.30597 0.1841 0.84991 0.0
N1482 N 0.3427 0.18808 0.85977 0.0
N1483 N 0.30211 0.16996 0.82641 0.0
C1484 C 0.33157 0.16799 0.82571 0.0
C1485 C 0.35349 0.17774 0.84375 0.0
C1486 C 0.84741 0.18821 0.84141 0.0
C1487 C 0.81503 0.16532 0.84797 0.0
C1488 C 0.85347 0.18583 0.82155 0.0
C1489 C 0.82754 0.16011 0.80761 0.0
H1490 H 0.86836 0.20788 0.85178 0.0
H1491 H 0.879 0.20352 0.81719 0.0
S1492 S 0.73787 0.0949 0.81703 0.0
N1493 N 0.75633 0.11701 0.83883 0.0
N1494 N 0.76783 0.11233 0.80148 0.0
C1495 C 0.7948 0.13759 0.81387 0.0
C1496 C 0.78849 0.14029 0.83405 0.0
C1497 C 0.33033 0.19209 0.51409 0.0
C1498 C 0.32632 0.16374 0.50165 0.0
C1499 C 0.33797 0.19457 0.53455 0.0
C1500 C 0.34128 0.16852 0.54329 0.0
H1501 H 0.32845 0.2129 0.50788 0.0
H1502 H 0.34148 0.21711 0.54362 0.0
S1503 S 0.33154 0.08831 0.51722 0.0
N1504 N 0.32504 0.10861 0.4995 0.0
N1505 N 0.3392 0.11318 0.53802 0.0
C1506 C 0.33643 0.13963 0.53106 0.0
C1507 C 0.32905 0.13729 0.51022 0.0
C1508 C 0.85594 0.17841 0.51309 0.0
C1509 C 0.86701 0.15385 0.512 0.0
C1510 C 0.84494 0.18638 0.53064 0.0
C1511 C 0.84509 0.17039 0.54775 0.0
H1512 H 0.85537 0.19123 0.50023 0.0
H1513 H 0.8367 0.20548 0.53089 0.0
S1514 S 0.87184 0.10446 0.55267 0.0
N1515 N 0.87787 0.11402 0.52968 0.0
N1516 N 0.85666 0.12847 0.5624 0.0
C1517 C 0.85609 0.14581 0.54682 0.0
C1518 C 0.86718 0.13768 0.52903 0.0
C1519 C 0.86309 0.67877 0.51363 0.0
C1520 C 0.84858 0.69777 0.50589 0.0
C1521 C 0.85625 0.66678 0.53235 0.0
C1522 C 0.83488 0.67358 0.54419 0.0
H1523 H 0.87907 0.67221 0.50492 0.0
H1524 H 0.86767 0.65189 0.53756 0.0
S1525 S 0.79203 0.72381 0.5312 0.0
N1526 N 0.81309 0.72416 0.5119 0.0
N1527 N 0.79999 0.70142 0.54696 0.0
C1528 C 0.82096 0.69336 0.53685 0.0
C1529 C 0.82779 0.70541 0.51773 0.0
loop_
_geom_bond_atom_site_label_1
_geom_bond_atom_site_label_2
_geom_bond_distance
_geom_bond_site_symmetry_2
_ccdc_geom_bond_type
P0 O11 1.490 . S
P0 C14 1.812 . S
P0 C20 1.803 . S
P0 C26 1.819 . S
H1 C15 0.941 . S
H2 C16 0.939 . S
H3 C18 0.940 . S
H4 C19 0.940 . S
H5 C21 0.939 . S
H6 C22 0.942 . S
H7 C24 0.940 . S
H8 C25 0.939 . S
H9 C27 0.941 . S
H10 C31 0.939 . S
O11 P0 1.490 . S
H12 C28 0.939 . S
H13 C30 0.940 . S
C14 P0 1.812 . S
C14 C15 1.389 . S
C14 C19 1.391 . S
C15 H1 0.941 . S
C15 C14 1.389 . S
C15 C16 1.397 . S
C16 H2 0.939 . S
C16 C15 1.397 . S
C16 C17 1.378 . S
C17 C16 1.378 . S
C17 C18 1.378 . S
C18 H3 0.940 . S
C18 C17 1.378 . S
C18 C19 1.396 . S
C19 H4 0.940 . S
C19 C14 1.391 . S
C19 C18 1.396 . S
C20 P0 1.803 . S
C20 C21 1.378 . S
C20 C25 1.400 . S
C21 H5 0.939 . S
C21 C20 1.378 . S
C21 C22 1.361 . S
C22 H6 0.942 . S
C22 C21 1.361 . S
C22 C23 1.369 . S
C23 C22 1.369 . S
C23 C24 1.404 . S
C24 H7 0.940 . S
C24 C23 1.404 . S
C24 C25 1.389 . S
C25 H8 0.939 . S
C25 C20 1.400 . S
C25 C24 1.389 . S
C26 P0 1.819 . S
C26 C27 1.391 . S
C26 C31 1.391 . S
C27 H9 0.941 . S
C27 C26 1.391 . S
C27 C28 1.396 . S
C28 H12 0.939 . S
C28 C27 1.396 . S
C28 C29 1.397 . S
C29 C28 1.397 . S
C29 C30 1.385 . S
C30 H13 0.940 . S
C30 C29 1.385 . S
C30 C31 1.388 . S
C31 H10 0.939 . S
C31 C26 1.391 . S
C31 C30 1.388 . S
P32 O43 1.490 . S
P32 C46 1.812 . S
P32 C52 1.803 . S
P32 C58 1.819 . S
H33 C47 0.941 . S
H34 C48 0.939 . S
H35 C50 0.940 . S
H36 C51 0.940 . S
H37 C53 0.939 . S
H38 C54 0.942 1_455 S
H39 C56 0.940 . S
H40 C57 0.939 . S
H41 C59 0.941 . S
H42 C63 0.939 . S
O43 P32 1.490 . S
H44 C60 0.939 . S
H45 C62 0.940 . S
C46 P32 1.812 . S
C46 C47 1.389 . S
C46 C51 1.391 . S
C47 H33 0.941 . S
C47 C46 1.389 . S
C47 C48 1.397 . S
C48 H34 0.939 . S
C48 C47 1.397 . S
C48 C49 1.378 . S
C49 C48 1.378 . S
C49 C50 1.378 . S
C50 H35 0.940 . S
C50 C49 1.378 . S
C50 C51 1.396 . S
C51 H36 0.940 . S
C51 C46 1.391 . S
C51 C50 1.396 . S
C52 P32 1.803 . S
C52 C53 1.378 . S
C52 C57 1.400 . S
C53 H37 0.939 . S
C53 C52 1.378 . S
C53 C54 1.361 . S
C54 H38 0.942 1_655 S
C54 C53 1.361 . S
C54 C55 1.369 . S
C55 C54 1.369 . S
C55 C56 1.404 . S
C56 H39 0.940 . S
C56 C55 1.404 . S
C56 C57 1.389 . S
C57 H40 0.939 . S
C57 C52 1.400 . S
C57 C56 1.389 . S
C58 P32 1.819 . S
C58 C59 1.391 . S
C58 C63 1.391 . S
C59 H41 0.941 . S
C59 C58 1.391 . S
C59 C60 1.396 . S
C60 H44 0.939 . S
C60 C59 1.396 . S
C60 C61 1.397 . S
C61 C60 1.397 . S
C61 C62 1.385 . S
C62 H45 0.940 . S
C62 C61 1.385 . S
C62 C63 1.388 . S
C63 H42 0.939 . S
C63 C58 1.391 . S
C63 C62 1.388 . S
P64 O75 1.490 . S
P64 C78 1.812 . S
P64 C84 1.803 . S
P64 C90 1.819 . S
H65 C79 0.941 . S
H66 C80 0.939 . S
H67 C82 0.940 . S
H68 C83 0.940 . S
H69 C85 0.939 . S
H70 C86 0.942 . S
H71 C88 0.940 . S
H72 C89 0.939 . S
H73 C91 0.941 . S
H74 C95 0.939 . S
O75 P64 1.490 . S
H76 C92 0.939 . S
H77 C94 0.940 . S
C78 P64 1.812 . S
C78 C79 1.389 . S
C78 C83 1.391 . S
C79 H65 0.941 . S
C79 C78 1.389 . S
C79 C80 1.397 . S
C80 H66 0.939 . S
C80 C79 1.397 . S
C80 C81 1.378 . S
C81 C80 1.378 . S
C81 C82 1.378 . S
C82 H67 0.940 . S
C82 C81 1.378 . S
C82 C83 1.396 . S
C83 H68 0.940 . S
C83 C78 1.391 . S
C83 C82 1.396 . S
C84 P64 1.803 . S
C84 C85 1.378 . S
C84 C89 1.400 . S
C85 H69 0.939 . S
C85 C84 1.378 . S
C85 C86 1.361 . S
C86 H70 0.942 . S
C86 C85 1.361 . S
C86 C87 1.369 . S
C87 C86 1.369 . S
C87 C88 1.404 . S
C88 H71 0.940 . S
C88 C87 1.404 . S
C88 C89 1.389 . S
C89 H72 0.939 . S
C89 C84 1.400 . S
C89 C88 1.389 . S
C90 P64 1.819 . S
C90 C91 1.391 . S
C90 C95 1.391 . S
C91 H73 0.941 . S
C91 C90 1.391 . S
C91 C92 1.396 . S
C92 H76 0.939 . S
C92 C91 1.396 . S
C92 C93 1.397 . S
C93 C92 1.397 . S
C93 C94 1.385 . S
C94 H77 0.940 . S
C94 C93 1.385 . S
C94 C95 1.388 . S
C95 H74 0.939 . S
C95 C90 1.391 . S
C95 C94 1.388 . S
P96 O107 1.490 . S
P96 C110 1.812 . S
P96 C116 1.803 . S
P96 C122 1.819 . S
H97 C111 0.941 . S
H98 C112 0.939 . S
H99 C114 0.940 . S
H100 C115 0.940 . S
H101 C117 0.939 . S
H102 C118 0.942 . S
H103 C120 0.940 . S
H104 C121 0.939 . S
H105 C123 0.941 . S
H106 C127 0.939 . S
O107 P96 1.490 . S
H108 C124 0.939 . S
H109 C126 0.940 . S
C110 P96 1.812 . S
C110 C111 1.389 . S
C110 C115 1.391 . S
C111 H97 0.941 . S
C111 C110 1.389 . S
C111 C112 1.397 . S
C112 H98 0.939 . S
C112 C111 1.397 . S
C112 C113 1.378 . S
C113 C112 1.378 . S
C113 C114 1.378 . S
C114 H99 0.940 . S
C114 C113 1.378 . S
C114 C115 1.396 . S
C115 H100 0.940 . S
C115 C110 1.391 . S
C115 C114 1.396 . S
C116 P96 1.803 . S
C116 C117 1.378 . S
C116 C121 1.400 . S
C117 H101 0.939 . S
C117 C116 1.378 . S
C117 C118 1.361 . S
C118 H102 0.942 . S
C118 C117 1.361 . S
C118 C119 1.369 . S
C119 C118 1.369 . S
C119 C120 1.404 . S
C120 H103 0.940 . S
C120 C119 1.404 . S
C120 C121 1.389 . S
C121 H104 0.939 . S
C121 C116 1.400 . S
C121 C120 1.389 . S
C122 P96 1.819 . S
C122 C123 1.391 . S
C122 C127 1.391 . S
C123 H105 0.941 . S
C123 C122 1.391 . S
C123 C124 1.396 . S
C124 H108 0.939 . S
C124 C123 1.396 . S
C124 C125 1.397 . S
C125 C124 1.397 . S
C125 C126 1.385 . S
C126 H109 0.940 . S
C126 C125 1.385 . S
C126 C127 1.388 . S
C127 H106 0.939 . S
C127 C122 1.391 . S
C127 C126 1.388 . S
P128 O139 1.490 . S
P128 C142 1.812 . S
P128 C148 1.803 . S
P128 C154 1.819 . S
H129 C143 0.941 . S
H130 C144 0.939 . S
H131 C146 0.940 . S
H132 C147 0.940 . S
H133 C149 0.939 . S
H134 C150 0.942 . S
H135 C152 0.940 . S
H136 C153 0.939 . S
H137 C155 0.941 . S
H138 C159 0.939 . S
O139 P128 1.490 . S
H140 C156 0.939 . S
H141 C158 0.940 . S
C142 P128 1.812 . S
C142 C143 1.389 . S
C142 C147 1.391 . S
C143 H129 0.941 . S
C143 C142 1.389 . S
C143 C144 1.397 . S
C144 H130 0.939 . S
C144 C143 1.397 . S
C144 C145 1.378 . S
C145 C144 1.378 . S
C145 C146 1.378 . S
C146 H131 0.940 . S
C146 C145 1.378 . S
C146 C147 1.396 . S
C147 H132 0.940 . S
C147 C142 1.391 . S
C147 C146 1.396 . S
C148 P128 1.803 . S
C148 C149 1.378 . S
C148 C153 1.400 . S
C149 H133 0.939 . S
C149 C148 1.378 . S
C149 C150 1.361 . S
C150 H134 0.942 . S
C150 C149 1.361 . S
C150 C151 1.369 . S
C151 C150 1.369 . S
C151 C152 1.404 . S
C152 H135 0.940 . S
C152 C151 1.404 . S
C152 C153 1.389 . S
C153 H136 0.939 . S
C153 C148 1.400 . S
C153 C152 1.389 . S
C154 P128 1.819 . S
C154 C155 1.391 . S
C154 C159 1.391 . S
C155 H137 0.941 . S
C155 C154 1.391 . S
C155 C156 1.396 . S
C156 H140 0.939 . S
C156 C155 1.396 . S
C156 C157 1.397 . S
C157 C156 1.397 . S
C157 C158 1.385 . S
C158 H141 0.940 . S
C158 C157 1.385 . S
C158 C159 1.388 . S
C159 H138 0.939 . S
C159 C154 1.391 . S
C159 C158 1.388 . S
P160 O171 1.490 . S
P160 C174 1.812 . S
P160 C180 1.803 . S
P160 C186 1.819 . S
H161 C175 0.941 . S
H162 C176 0.939 . S
H163 C178 0.940 . S
H164 C179 0.940 . S
H165 C181 0.939 . S
H166 C182 0.942 . S
H167 C184 0.940 . S
H168 C185 0.939 . S
H169 C187 0.941 . S
H170 C191 0.939 . S
O171 P160 1.490 . S
H172 C188 0.939 . S
H173 C190 0.940 . S
C174 P160 1.812 . S
C174 C175 1.389 . S
C174 C179 1.391 . S
C175 H161 0.941 . S
C175 C174 1.389 . S
C175 C176 1.397 . S
C176 H162 0.939 . S
C176 C175 1.397 . S
C176 C177 1.378 . S
C177 C176 1.378 . S
C177 C178 1.378 . S
C178 H163 0.940 . S
C178 C177 1.378 . S
C178 C179 1.396 . S
C179 H164 0.940 . S
C179 C174 1.391 . S
C179 C178 1.396 . S
C180 P160 1.803 . S
C180 C181 1.378 . S
C180 C185 1.400 . S
C181 H165 0.939 . S
C181 C180 1.378 . S
C181 C182 1.361 . S
C182 H166 0.942 . S
C182 C181 1.361 . S
C182 C183 1.369 . S
C183 C182 1.369 . S
C183 C184 1.404 . S
C184 H167 0.940 . S
C184 C183 1.404 . S
C184 C185 1.389 . S
C185 H168 0.939 . S
C185 C180 1.400 . S
C185 C184 1.389 . S
C186 P160 1.819 . S
C186 C187 1.391 . S
C186 C191 1.391 . S
C187 H169 0.941 . S
C187 C186 1.391 . S
C187 C188 1.396 . S
C188 H172 0.939 . S
C188 C187 1.396 . S
C188 C189 1.397 . S
C189 C188 1.397 . S
C189 C190 1.385 . S
C190 H173 0.940 . S
C190 C189 1.385 . S
C190 C191 1.388 . S
C191 H170 0.939 . S
C191 C186 1.391 . S
C191 C190 1.388 . S
P192 O203 1.490 . S
P192 C206 1.812 1_455 S
P192 C212 1.803 1_455 S
P192 C218 1.819 1_455 S
H193 C207 0.941 1_455 S
H194 C208 0.939 . S
H195 C210 0.940 . S
H196 C211 0.940 . S
H197 C213 0.911 1_455 S
H198 C214 0.942 . S
H199 C216 0.940 . S
H200 C217 0.939 . S
H201 C219 0.941 . S
H202 C223 0.939 . S
O203 P192 1.490 . S
H204 C220 0.939 . S
H205 C222 0.940 . S
C206 P192 1.812 1_655 S
C206 C207 1.389 . S
C206 C211 1.391 . S
C207 H193 0.941 1_655 S
C207 C206 1.389 . S
C207 C208 1.397 . S
C208 H194 0.939 . S
C208 C207 1.397 . S
C208 C209 1.378 . S
C209 C208 1.378 . S
C209 C210 1.378 . S
C210 H195 0.940 . S
C210 C209 1.378 . S
C210 C211 1.396 . S
C211 H196 0.940 . S
C211 C206 1.391 . S
C211 C210 1.396 . S
C212 P192 1.803 1_655 S
C212 C213 1.380 . S
C212 C217 1.400 . S
C213 H197 0.911 1_655 S
C213 C212 1.380 . S
C213 C214 1.387 . S
C214 H198 0.942 . S
C214 C213 1.387 . S
C214 C215 1.369 . S
C215 C214 1.369 . S
C215 C216 1.404 . S
C216 H199 0.940 . S
C216 C215 1.404 . S
C216 C217 1.389 . S
C217 H200 0.939 . S
C217 C212 1.400 . S
C217 C216 1.389 . S
C218 P192 1.819 1_655 S
C218 C219 1.393 1_655 S
C218 C223 1.390 . S
C219 H201 0.941 . S
C219 C218 1.393 1_455 S
C219 C220 1.396 . S
C220 H204 0.939 . S
C220 C219 1.396 . S
C220 C221 1.397 1_455 S
C221 C220 1.397 1_655 S
C221 C222 1.385 . S
C222 H205 0.940 . S
C222 C221 1.385 . S
C222 C223 1.388 . S
C223 H202 0.939 . S
C223 C218 1.390 . S
C223 C222 1.388 . S
P224 O235 1.490 . S
P224 C238 1.812 . S
P224 C244 1.803 . S
P224 C250 1.819 . S
H225 C239 0.941 . S
H226 C240 0.939 . S
H227 C242 0.940 . S
H228 C243 0.940 . S
H229 C245 0.939 . S
H230 C246 0.942 . S
H231 C248 0.940 . S
H232 C249 0.939 . S
H233 C251 0.941 . S
H234 C255 0.939 . S
O235 P224 1.490 . S
H236 C252 0.939 . S
H237 C254 0.940 . S
C238 P224 1.812 . S
C238 C239 1.389 . S
C238 C243 1.391 . S
C239 H225 0.941 . S
C239 C238 1.389 . S
C239 C240 1.397 . S
C240 H226 0.939 . S
C240 C239 1.397 . S
C240 C241 1.378 . S
C241 C240 1.378 . S
C241 C242 1.378 . S
C242 H227 0.940 . S
C242 C241 1.378 . S
C242 C243 1.396 . S
C243 H228 0.940 . S
C243 C238 1.391 . S
C243 C242 1.396 . S
C244 P224 1.803 . S
C244 C245 1.378 . S
C244 C249 1.400 . S
C245 H229 0.939 . S
C245 C244 1.378 . S
C245 C246 1.361 . S
C246 H230 0.942 . S
C246 C245 1.361 . S
C246 C247 1.369 . S
C247 C246 1.369 . S
C247 C248 1.404 . S
C248 H231 0.940 . S
C248 C247 1.404 . S
C248 C249 1.389 . S
C249 H232 0.939 . S
C249 C244 1.400 . S
C249 C248 1.389 . S
C250 P224 1.819 . S
C250 C251 1.391 . S
C250 C255 1.391 . S
C251 H233 0.941 . S
C251 C250 1.391 . S
C251 C252 1.396 . S
C252 H236 0.939 . S
C252 C251 1.396 . S
C252 C253 1.397 . S
C253 C252 1.397 . S
C253 C254 1.385 . S
C254 H237 0.940 . S
C254 C253 1.385 . S
C254 C255 1.388 . S
C255 H234 0.939 . S
C255 C250 1.391 . S
C255 C254 1.388 . S
P256 O267 1.490 1_545 S
P256 C270 1.812 . S
P256 C276 1.803 . S
P256 C282 1.819 . S
H257 C271 0.941 . S
H258 C272 0.939 . S
H259 C274 0.940 . S
H260 C275 0.940 . S
H261 C277 0.939 . S
H262 C278 0.942 . S
H263 C280 0.940 . S
H264 C281 0.939 . S
H265 C283 0.941 1_565 S
H266 C287 0.939 . S
O267 P256 1.490 1_565 S
H268 C284 0.939 . S
H269 C286 0.940 . S
C270 P256 1.812 . S
C270 C271 1.389 . S
C270 C275 1.391 . S
C271 H257 0.941 . S
C271 C270 1.389 . S
C271 C272 1.397 . S
C272 H258 0.939 . S
C272 C271 1.397 . S
C272 C273 1.378 . S
C273 C272 1.378 . S
C273 C274 1.378 . S
C274 H259 0.940 . S
C274 C273 1.378 . S
C274 C275 1.396 . S
C275 H260 0.940 . S
C275 C270 1.391 . S
C275 C274 1.396 . S
C276 P256 1.803 . S
C276 C277 1.378 . S
C276 C281 1.400 . S
C277 H261 0.939 . S
C277 C276 1.378 . S
C277 C278 1.361 . S
C278 H262 0.942 . S
C278 C277 1.361 . S
C278 C279 1.369 . S
C279 C278 1.369 . S
C279 C280 1.404 . S
C280 H263 0.940 . S
C280 C279 1.404 . S
C280 C281 1.389 . S
C281 H264 0.939 . S
C281 C276 1.400 . S
C281 C280 1.389 . S
C282 P256 1.819 . S
C282 C283 1.391 . S
C282 C287 1.391 . S
C283 H265 0.941 1_545 S
C283 C282 1.391 . S
C283 C284 1.396 . S
C284 H268 0.939 . S
C284 C283 1.396 . S
C284 C285 1.397 . S
C285 C284 1.397 . S
C285 C286 1.385 . S
C286 H269 0.940 . S
C286 C285 1.385 . S
C286 C287 1.388 . S
C287 H266 0.939 . S
C287 C282 1.391 . S
C287 C286 1.388 . S
P288 O299 1.490 . S
P288 C302 1.812 . S
P288 C308 1.803 . S
P288 C314 1.819 . S
H289 C303 0.941 . S
H290 C304 0.939 . S
H291 C306 0.940 . S
H292 C307 0.940 . S
H293 C309 0.939 . S
H294 C310 0.942 . S
H295 C312 0.940 . S
H296 C313 0.939 . S
H297 C315 0.941 . S
H298 C319 0.939 . S
O299 P288 1.490 . S
H300 C316 0.939 . S
H301 C318 0.940 . S
C302 P288 1.812 . S
C302 C303 1.389 . S
C302 C307 1.391 . S
C303 H289 0.941 . S
C303 C302 1.389 . S
C303 C304 1.397 . S
C304 H290 0.939 . S
C304 C303 1.397 . S
C304 C305 1.378 . S
C305 C304 1.378 . S
C305 C306 1.378 . S
C306 H291 0.940 . S
C306 C305 1.378 . S
C306 C307 1.396 . S
C307 H292 0.940 . S
C307 C302 1.391 . S
C307 C306 1.396 . S
C308 P288 1.803 . S
C308 C309 1.378 . S
C308 C313 1.400 . S
C309 H293 0.939 . S
C309 C308 1.378 . S
C309 C310 1.361 . S
C310 H294 0.942 . S
C310 C309 1.361 . S
C310 C311 1.369 . S
C311 C310 1.369 . S
C311 C312 1.404 . S
C312 H295 0.940 . S
C312 C311 1.404 . S
C312 C313 1.389 . S
C313 H296 0.939 . S
C313 C308 1.400 . S
C313 C312 1.389 . S
C314 P288 1.819 . S
C314 C315 1.391 . S
C314 C319 1.391 . S
C315 H297 0.941 . S
C315 C314 1.391 . S
C315 C316 1.396 . S
C316 H300 0.939 . S
C316 C315 1.396 . S
C316 C317 1.397 . S
C317 C316 1.397 . S
C317 C318 1.385 . S
C318 H301 0.940 . S
C318 C317 1.385 . S
C318 C319 1.388 . S
C319 H298 0.939 . S
C319 C314 1.391 . S
C319 C318 1.388 . S
P320 O331 1.490 . S
P320 C334 1.812 . S
P320 C340 1.803 . S
P320 C346 1.819 . S
H321 C335 0.941 . S
H322 C336 0.939 . S
H323 C338 0.940 . S
H324 C339 0.940 . S
H325 C341 0.939 . S
H326 C342 0.942 . S
H327 C344 0.940 . S
H328 C345 0.939 . S
H329 C347 0.941 . S
H330 C351 0.939 . S
O331 P320 1.490 . S
H332 C348 0.939 . S
H333 C350 0.940 . S
C334 P320 1.812 . S
C334 C335 1.389 . S
C334 C339 1.391 . S
C335 H321 0.941 . S
C335 C334 1.389 . S
C335 C336 1.397 . S
C336 H322 0.939 . S
C336 C335 1.397 . S
C336 C337 1.378 . S
C337 C336 1.378 . S
C337 C338 1.378 . S
C338 H323 0.940 . S
C338 C337 1.378 . S
C338 C339 1.396 . S
C339 H324 0.940 . S
C339 C334 1.391 . S
C339 C338 1.396 . S
C340 P320 1.803 . S
C340 C341 1.378 . S
C340 C345 1.400 . S
C341 H325 0.939 . S
C341 C340 1.378 . S
C341 C342 1.361 . S
C342 H326 0.942 . S
C342 C341 1.361 . S
C342 C343 1.369 . S
C343 C342 1.369 . S
C343 C344 1.404 . S
C344 H327 0.940 . S
C344 C343 1.404 . S
C344 C345 1.389 . S
C345 H328 0.939 . S
C345 C340 1.400 . S
C345 C344 1.389 . S
C346 P320 1.819 . S
C346 C347 1.391 . S
C346 C351 1.391 . S
C347 H329 0.941 . S
C347 C346 1.391 . S
C347 C348 1.396 . S
C348 H332 0.939 . S
C348 C347 1.396 . S
C348 C349 1.397 . S
C349 C348 1.397 . S
C349 C350 1.385 . S
C350 H333 0.940 . S
C350 C349 1.385 . S
C350 C351 1.388 . S
C351 H330 0.939 . S
C351 C346 1.391 . S
C351 C350 1.388 . S
P352 O363 1.490 . S
P352 C366 1.812 . S
P352 C372 1.803 . S
P352 C378 1.819 . S
H353 C367 0.941 . S
H354 C368 0.939 . S
H355 C370 0.940 . S
H356 C371 0.940 . S
H357 C373 0.939 . S
H358 C374 0.942 . S
H359 C376 0.940 . S
H360 C377 0.939 . S
H361 C379 0.941 . S
H362 C383 0.939 . S
O363 P352 1.490 . S
H364 C380 0.939 . S
H365 C382 0.940 . S
C366 P352 1.812 . S
C366 C367 1.389 . S
C366 C371 1.391 . S
C367 H353 0.941 . S
C367 C366 1.389 . S
C367 C368 1.397 . S
C368 H354 0.939 . S
C368 C367 1.397 . S
C368 C369 1.378 . S
C369 C368 1.378 . S
C369 C370 1.378 . S
C370 H355 0.940 . S
C370 C369 1.378 . S
C370 C371 1.396 . S
C371 H356 0.940 . S
C371 C366 1.391 . S
C371 C370 1.396 . S
C372 P352 1.803 . S
C372 C373 1.378 . S
C372 C377 1.400 . S
C373 H357 0.939 . S
C373 C372 1.378 . S
C373 C374 1.361 . S
C374 H358 0.942 . S
C374 C373 1.361 . S
C374 C375 1.369 . S
C375 C374 1.369 . S
C375 C376 1.404 . S
C376 H359 0.940 . S
C376 C375 1.404 . S
C376 C377 1.389 . S
C377 H360 0.939 . S
C377 C372 1.400 . S
C377 C376 1.389 . S
C378 P352 1.819 . S
C378 C379 1.391 . S
C378 C383 1.391 . S
C379 H361 0.941 . S
C379 C378 1.391 . S
C379 C380 1.396 . S
C380 H364 0.939 . S
C380 C379 1.396 . S
C380 C381 1.397 . S
C381 C380 1.397 . S
C381 C382 1.385 . S
C382 H365 0.940 . S
C382 C381 1.385 . S
C382 C383 1.388 . S
C383 H362 0.939 . S
C383 C378 1.391 . S
C383 C382 1.388 . S
P384 O395 1.490 . S
P384 C398 1.812 . S
P384 C404 1.803 . S
P384 C410 1.819 . S
H385 C399 0.941 . S
H386 C400 0.939 . S
H387 C402 0.940 . S
H388 C403 0.940 . S
H389 C405 0.939 . S
H390 C406 0.942 . S
H391 C408 0.940 . S
H392 C409 0.939 . S
H393 C411 0.941 . S
H394 C415 0.939 . S
O395 P384 1.490 . S
H396 C412 0.939 . S
H397 C414 0.940 . S
C398 P384 1.812 . S
C398 C399 1.389 . S
C398 C403 1.391 . S
C399 H385 0.941 . S
C399 C398 1.389 . S
C399 C400 1.397 . S
C400 H386 0.939 . S
C400 C399 1.397 . S
C400 C401 1.378 . S
C401 C400 1.378 . S
C401 C402 1.378 . S
C402 H387 0.940 . S
C402 C401 1.378 . S
C402 C403 1.396 . S
C403 H388 0.940 . S
C403 C398 1.391 . S
C403 C402 1.396 . S
C404 P384 1.803 . S
C404 C405 1.378 . S
C404 C409 1.400 . S
C405 H389 0.939 . S
C405 C404 1.378 . S
C405 C406 1.361 . S
C406 H390 0.942 . S
C406 C405 1.361 . S
C406 C407 1.369 . S
C407 C406 1.369 . S
C407 C408 1.404 . S
C408 H391 0.940 . S
C408 C407 1.404 . S
C408 C409 1.389 . S
C409 H392 0.939 . S
C409 C404 1.400 . S
C409 C408 1.389 . S
C410 P384 1.819 . S
C410 C411 1.391 . S
C410 C415 1.391 . S
C411 H393 0.941 . S
C411 C410 1.391 . S
C411 C412 1.396 . S
C412 H396 0.939 . S
C412 C411 1.396 . S
C412 C413 1.397 . S
C413 C412 1.397 . S
C413 C414 1.385 . S
C414 H397 0.940 . S
C414 C413 1.385 . S
C414 C415 1.388 . S
C415 H394 0.939 . S
C415 C410 1.391 . S
C415 C414 1.388 . S
P416 O427 1.490 . S
P416 C430 1.812 . S
P416 C436 1.803 . S
P416 C442 1.819 . S
H417 C431 0.941 . S
H418 C432 0.939 . S
H419 C434 0.940 . S
H420 C435 0.940 . S
H421 C437 0.939 . S
H422 C438 0.942 . S
H423 C440 0.940 . S
H424 C441 0.939 . S
H425 C443 0.941 . S
H426 C447 0.939 . S
O427 P416 1.490 . S
H428 C444 0.939 . S
H429 C446 0.940 . S
C430 P416 1.812 . S
C430 C431 1.389 . S
C430 C435 1.391 . S
C431 H417 0.941 . S
C431 C430 1.389 . S
C431 C432 1.397 . S
C432 H418 0.939 . S
C432 C431 1.397 . S
C432 C433 1.378 . S
C433 C432 1.378 . S
C433 C434 1.378 . S
C434 H419 0.940 . S
C434 C433 1.378 . S
C434 C435 1.396 . S
C435 H420 0.940 . S
C435 C430 1.391 . S
C435 C434 1.396 . S
C436 P416 1.803 . S
C436 C437 1.378 . S
C436 C441 1.400 . S
C437 H421 0.939 . S
C437 C436 1.378 . S
C437 C438 1.361 . S
C438 H422 0.942 . S
C438 C437 1.361 . S
C438 C439 1.369 . S
C439 C438 1.369 . S
C439 C440 1.404 . S
C440 H423 0.940 . S
C440 C439 1.404 . S
C440 C441 1.389 . S
C441 H424 0.939 . S
C441 C436 1.400 . S
C441 C440 1.389 . S
C442 P416 1.819 . S
C442 C443 1.391 . S
C442 C447 1.391 . S
C443 H425 0.941 . S
C443 C442 1.391 . S
C443 C444 1.396 . S
C444 H428 0.939 . S
C444 C443 1.396 . S
C444 C445 1.397 . S
C445 C444 1.397 . S
C445 C446 1.385 . S
C446 H429 0.940 . S
C446 C445 1.385 . S
C446 C447 1.388 . S
C447 H426 0.939 . S
C447 C442 1.391 . S
C447 C446 1.388 . S
P448 O459 1.490 . S
P448 C462 1.812 . S
P448 C468 1.803 . S
P448 C474 1.819 . S
H449 C463 0.941 . S
H450 C464 0.939 . S
H451 C466 0.940 . S
H452 C467 0.940 . S
H453 C469 0.939 . S
H454 C470 0.942 . S
H455 C472 0.940 . S
H456 C473 0.939 . S
H457 C475 0.941 . S
H458 C479 0.939 . S
O459 P448 1.490 . S
H460 C476 0.939 . S
H461 C478 0.940 . S
C462 P448 1.812 . S
C462 C463 1.389 . S
C462 C467 1.391 . S
C463 H449 0.941 . S
C463 C462 1.389 . S
C463 C464 1.397 . S
C464 H450 0.939 . S
C464 C463 1.397 . S
C464 C465 1.378 . S
C465 C464 1.378 . S
C465 C466 1.378 . S
C466 H451 0.940 . S
C466 C465 1.378 . S
C466 C467 1.396 . S
C467 H452 0.940 . S
C467 C462 1.391 . S
C467 C466 1.396 . S
C468 P448 1.803 . S
C468 C469 1.378 . S
C468 C473 1.400 . S
C469 H453 0.939 . S
C469 C468 1.378 . S
C469 C470 1.361 . S
C470 H454 0.942 . S
C470 C469 1.361 . S
C470 C471 1.369 . S
C471 C470 1.369 . S
C471 C472 1.404 . S
C472 H455 0.940 . S
C472 C471 1.404 . S
C472 C473 1.389 . S
C473 H456 0.939 . S
C473 C468 1.400 . S
C473 C472 1.389 . S
C474 P448 1.819 . S
C474 C475 1.391 . S
C474 C479 1.391 . S
C475 H457 0.941 . S
C475 C474 1.391 . S
C475 C476 1.396 . S
C476 H460 0.939 . S
C476 C475 1.396 . S
C476 C477 1.397 . S
C477 C476 1.397 . S
C477 C478 1.385 . S
C478 H461 0.940 . S
C478 C477 1.385 . S
C478 C479 1.388 . S
C479 H458 0.939 . S
C479 C474 1.391 . S
C479 C478 1.388 . S
P480 O491 1.490 1_565 S
P480 C494 1.812 . S
P480 C500 1.803 . S
P480 C506 1.819 . S
H481 C495 0.941 . S
H482 C496 0.939 . S
H483 C498 0.940 . S
H484 C499 0.940 . S
H485 C501 0.939 . S
H486 C502 0.942 . S
H487 C504 0.940 . S
H488 C505 0.939 . S
H489 C507 0.941 1_545 S
H490 C511 0.939 . S
O491 P480 1.490 1_545 S
H492 C508 0.939 . S
H493 C510 0.940 . S
C494 P480 1.812 . S
C494 C495 1.389 . S
C494 C499 1.391 . S
C495 H481 0.941 . S
C495 C494 1.389 . S
C495 C496 1.397 . S
C496 H482 0.939 . S
C496 C495 1.397 . S
C496 C497 1.378 . S
C497 C496 1.378 . S
C497 C498 1.378 . S
C498 H483 0.940 . S
C498 C497 1.378 . S
C498 C499 1.396 . S
C499 H484 0.940 . S
C499 C494 1.391 . S
C499 C498 1.396 . S
C500 P480 1.803 . S
C500 C501 1.378 . S
C500 C505 1.400 . S
C501 H485 0.939 . S
C501 C500 1.378 . S
C501 C502 1.361 . S
C502 H486 0.942 . S
C502 C501 1.361 . S
C502 C503 1.369 . S
C503 C502 1.369 . S
C503 C504 1.404 . S
C504 H487 0.940 . S
C504 C503 1.404 . S
C504 C505 1.389 . S
C505 H488 0.939 . S
C505 C500 1.400 . S
C505 C504 1.389 . S
C506 P480 1.819 . S
C506 C507 1.391 . S
C506 C511 1.391 . S
C507 H489 0.941 1_565 S
C507 C506 1.391 . S
C507 C508 1.396 . S
C508 H492 0.939 . S
C508 C507 1.396 . S
C508 C509 1.397 . S
C509 C508 1.397 . S
C509 C510 1.385 . S
C510 H493 0.940 . S
C510 C509 1.385 . S
C510 C511 1.388 . S
C511 H490 0.939 . S
C511 C506 1.391 . S
C511 C510 1.388 . S
P512 O523 1.490 . S
P512 C526 1.812 . S
P512 C532 1.803 . S
P512 C538 1.819 . S
H513 C527 0.941 . S
H514 C528 0.939 . S
H515 C530 0.940 . S
H516 C531 0.940 . S
H517 C533 0.939 . S
H518 C534 0.942 . S
H519 C536 0.940 . S
H520 C537 0.939 . S
H521 C539 0.941 . S
H522 C543 0.939 . S
O523 P512 1.490 . S
H524 C540 0.939 . S
H525 C542 0.940 1_655 S
C526 P512 1.812 . S
C526 C527 1.389 . S
C526 C531 1.391 . S
C527 H513 0.941 . S
C527 C526 1.389 . S
C527 C528 1.397 . S
C528 H514 0.939 . S
C528 C527 1.397 . S
C528 C529 1.378 . S
C529 C528 1.378 . S
C529 C530 1.378 . S
C530 H515 0.940 . S
C530 C529 1.378 . S
C530 C531 1.396 . S
C531 H516 0.940 . S
C531 C526 1.391 . S
C531 C530 1.396 . S
C532 P512 1.803 . S
C532 C533 1.378 . S
C532 C537 1.400 . S
C533 H517 0.939 . S
C533 C532 1.378 . S
C533 C534 1.361 . S
C534 H518 0.942 . S
C534 C533 1.361 . S
C534 C535 1.369 . S
C535 C534 1.369 . S
C535 C536 1.404 . S
C536 H519 0.940 . S
C536 C535 1.404 . S
C536 C537 1.389 . S
C537 H520 0.939 . S
C537 C532 1.400 . S
C537 C536 1.389 . S
C538 P512 1.819 . S
C538 C539 1.391 . S
C538 C543 1.391 . S
C539 H521 0.941 . S
C539 C538 1.391 . S
C539 C540 1.396 . S
C540 H524 0.939 . S
C540 C539 1.396 . S
C540 C541 1.397 . S
C541 C540 1.397 . S
C541 C542 1.385 . S
C542 H525 0.940 1_455 S
C542 C541 1.385 . S
C542 C543 1.388 . S
C543 H522 0.939 . S
C543 C538 1.391 . S
C543 C542 1.388 . S
P544 O555 1.490 . S
P544 C558 1.812 . S
P544 C564 1.803 . S
P544 C570 1.819 . S
H545 C559 0.941 . S
H546 C560 0.939 . S
H547 C562 0.940 . S
H548 C563 0.940 . S
H549 C565 0.939 . S
H550 C566 0.942 . S
H551 C568 0.940 . S
H552 C569 0.939 . S
H553 C571 0.941 . S
H554 C575 0.939 . S
O555 P544 1.490 . S
H556 C572 0.939 . S
H557 C574 0.940 . S
C558 P544 1.812 . S
C558 C559 1.389 . S
C558 C563 1.391 . S
C559 H545 0.941 . S
C559 C558 1.389 . S
C559 C560 1.397 . S
C560 H546 0.939 . S
C560 C559 1.397 . S
C560 C561 1.378 . S
C561 C560 1.378 . S
C561 C562 1.378 . S
C562 H547 0.940 . S
C562 C561 1.378 . S
C562 C563 1.396 . S
C563 H548 0.940 . S
C563 C558 1.391 . S
C563 C562 1.396 . S
C564 P544 1.803 . S
C564 C565 1.378 . S
C564 C569 1.400 . S
C565 H549 0.939 . S
C565 C564 1.378 . S
C565 C566 1.361 . S
C566 H550 0.942 . S
C566 C565 1.361 . S
C566 C567 1.369 . S
C567 C566 1.369 . S
C567 C568 1.404 . S
C568 H551 0.940 . S
C568 C567 1.404 . S
C568 C569 1.389 . S
C569 H552 0.939 . S
C569 C564 1.400 . S
C569 C568 1.389 . S
C570 P544 1.819 . S
C570 C571 1.391 . S
C570 C575 1.391 . S
C571 H553 0.941 . S
C571 C570 1.391 . S
C571 C572 1.396 . S
C572 H556 0.939 . S
C572 C571 1.396 . S
C572 C573 1.397 . S
C573 C572 1.397 . S
C573 C574 1.385 . S
C574 H557 0.940 . S
C574 C573 1.385 . S
C574 C575 1.388 . S
C575 H554 0.939 . S
C575 C570 1.391 . S
C575 C574 1.388 . S
Tb576 C586 2.825 . S
Tb576 O587 2.347 1_565 S
Tb576 O590 2.366 1_565 S
Tb576 O595 2.418 . S
Tb576 O596 2.398 . S
Tb576 O599 2.479 . S
Tb576 O600 2.471 1_565 S
Eu577 O588 2.418 . S
Eu577 O589 2.384 . S
Eu577 O592 2.479 . S
Eu577 O593 2.466 1_545 S
Eu577 O594 2.347 1_545 S
Eu577 O597 2.366 1_545 S
Eu577 C607 2.825 . S
C578 O594 1.259 . S
C578 O595 1.265 1_554 S
C579 O596 1.238 1_554 S
C579 O597 1.265 . S
C580 C582 1.380 . S
C580 C583 1.374 1_565 S
C580 C586 1.507 . S
C581 C582 1.384 . S
C581 C585 1.387 1_565 S
C581 H608 0.930 . S
C582 C580 1.380 . S
C582 C581 1.384 . S
C582 H609 0.931 . S
C583 C580 1.374 1_545 S
C583 C584 1.390 . S
C583 H610 0.930 . S
C584 C583 1.390 . S
C584 C585 1.391 . S
C584 H611 0.930 . S
C585 C581 1.387 1_545 S
C585 C584 1.391 . S
C586 Tb576 2.825 . S
C586 C580 1.507 . S
C586 O599 1.238 . S
C586 O600 1.247 1_565 S
O587 Tb576 2.347 1_545 S
O587 C591 1.273 . S
O588 Eu577 2.418 . S
O588 C591 1.229 1_554 S
O589 Eu577 2.384 . S
O589 C598 1.255 1_554 S
O590 Tb576 2.366 1_545 S
O590 C598 1.265 . S
C591 O587 1.273 . S
C591 O588 1.229 1_556 S
O592 Eu577 2.479 . S
O592 C607 1.238 . S
O593 Eu577 2.466 1_565 S
O593 C607 1.239 1_565 S
O594 Eu577 2.347 1_565 S
O594 C578 1.259 . S
O595 Tb576 2.418 . S
O595 C578 1.265 1_556 S
O596 Tb576 2.398 . S
O596 C579 1.238 1_556 S
O597 Eu577 2.366 1_565 S
O597 C579 1.265 . S
C598 O589 1.255 1_556 S
C598 O590 1.265 . S
O599 Tb576 2.479 . S
O599 C586 1.238 . S
O600 Tb576 2.471 1_545 S
O600 C586 1.247 1_545 S
C601 C604 1.380 . S
C601 C605 1.374 1_545 S
C601 C607 1.507 . S
C602 C603 1.387 1_565 S
C602 C606 1.391 . S
C603 C602 1.387 1_545 S
C603 C604 1.384 . S
C603 H612 0.930 . S
C604 C601 1.380 . S
C604 C603 1.384 . S
C604 H613 0.931 . S
C605 C601 1.374 1_565 S
C605 C606 1.390 . S
C605 H614 0.930 . S
C606 C602 1.391 . S
C606 C605 1.390 . S
C606 H615 0.930 . S
C607 Eu577 2.825 . S
C607 O592 1.238 . S
C607 O593 1.239 1_545 S
C607 C601 1.507 . S
H608 C581 0.930 . S
H609 C582 0.931 . S
H610 C583 0.930 . S
H611 C584 0.930 . S
H612 C603 0.930 . S
H613 C604 0.931 . S
H614 C605 0.930 . S
H615 C606 0.930 . S
Tb616 C626 2.825 . S
Tb616 O627 2.347 1_455 S
Tb616 O630 2.366 1_455 S
Tb616 O635 2.418 . S
Tb616 O636 2.384 1_556 S
Tb616 O639 2.479 . S
Tb616 O640 2.471 1_455 S
Eu617 O628 2.418 . S
Eu617 O629 2.426 . S
Eu617 O632 2.479 . S
Eu617 O633 2.471 1_655 S
Eu617 O634 2.347 1_655 S
Eu617 O637 2.366 1_655 S
Eu617 C647 2.825 . S
C618 O634 1.259 . S
C618 O635 1.265 1_554 S
C619 O636 1.255 . S
C619 O637 1.265 . S
C620 C622 1.393 . S
C620 C623 1.351 1_455 S
C620 C626 1.517 . S
C621 C622 1.384 . S
C621 C625 1.387 1_455 S
C621 H648 0.930 . S
C622 C620 1.393 . S
C622 C621 1.384 . S
C622 H649 0.931 . S
C623 C620 1.351 1_655 S
C623 C624 1.390 . S
C623 H650 0.930 . S
C624 C623 1.390 . S
C624 C625 1.391 . S
C624 H651 0.930 . S
C625 C621 1.387 1_655 S
C625 C624 1.391 . S
C626 Tb616 2.825 . S
C626 C620 1.517 . S
C626 O639 1.238 . S
C626 O640 1.247 1_455 S
O627 Tb616 2.347 1_655 S
O627 C631 1.259 . S
O628 Eu617 2.418 . S
O628 C631 1.265 1_554 S
O629 Eu617 2.426 . S
O629 C638 1.203 1_554 S
O630 Tb616 2.366 1_655 S
O630 C638 1.265 . S
C631 O627 1.259 . S
C631 O628 1.265 1_556 S
O632 Eu617 2.479 . S
O632 C647 1.238 . S
O633 Eu617 2.471 1_455 S
O633 C647 1.247 1_455 S
O634 Eu617 2.347 1_455 S
O634 C618 1.259 . S
O635 Tb616 2.418 . S
O635 C618 1.265 1_556 S
O636 Tb616 2.384 1_554 S
O636 C619 1.255 . S
O637 Eu617 2.366 1_455 S
O637 C619 1.265 . S
C638 O629 1.203 1_556 S
C638 O630 1.265 . S
O639 Tb616 2.479 . S
O639 C626 1.238 . S
O640 Tb616 2.471 1_655 S
O640 C626 1.247 1_655 S
C641 C644 1.377 1_455 S
C641 C645 1.379 . S
C641 C647 1.504 1_455 S
C642 C643 1.387 1_455 S
C642 C646 1.391 . S
C643 C642 1.387 1_655 S
C643 C644 1.384 . S
C643 H652 0.930 . S
C644 C641 1.377 1_655 S
C644 C643 1.384 . S
C644 H653 0.931 . S
C645 C641 1.379 . S
C645 C646 1.390 . S
C645 H654 0.930 . S
C646 C642 1.391 . S
C646 C645 1.390 . S
C646 H655 0.930 . S
C647 Eu617 2.825 . S
C647 O632 1.238 . S
C647 O633 1.247 1_655 S
C647 C641 1.504 1_655 S
H648 C621 0.930 . S
H649 C622 0.931 . S
H650 C623 0.930 . S
H651 C624 0.930 . S
H652 C643 0.930 . S
H653 C644 0.931 . S
H654 C645 0.930 . S
H655 C646 0.930 . S
Tb656 C666 2.825 . S
Tb656 O667 2.347 . S
Tb656 O670 2.366 . S
Tb656 O675 2.418 . S
Tb656 O676 2.384 . S
Tb656 O679 2.479 . S
Tb656 O680 2.471 . S
Eu657 O668 2.418 . S
Eu657 O669 2.384 1_556 S
Eu657 O672 2.479 . S
Eu657 O673 2.471 . S
Eu657 O674 2.347 . S
Eu657 O677 2.366 . S
Eu657 C687 2.825 . S
C658 O674 1.259 . S
C658 O675 1.265 1_556 S
C659 O676 1.255 1_556 S
C659 O677 1.265 . S
C660 C662 1.380 . S
C660 C663 1.374 . S
C660 C666 1.507 . S
C661 C662 1.384 . S
C661 C665 1.387 . S
C661 H688 0.930 . S
C662 C660 1.380 . S
C662 C661 1.384 . S
C662 H689 0.931 . S
C663 C660 1.374 . S
C663 C664 1.390 . S
C663 H690 0.930 . S
C664 C663 1.390 . S
C664 C665 1.391 . S
C664 H691 0.930 . S
C665 C661 1.387 . S
C665 C664 1.391 . S
C666 Tb656 2.825 . S
C666 C660 1.507 . S
C666 O679 1.238 . S
C666 O680 1.247 . S
O667 Tb656 2.347 . S
O667 C671 1.259 . S
O668 Eu657 2.418 . S
O668 C671 1.265 1_556 S
O669 Eu657 2.384 1_554 S
O669 C678 1.255 . S
O670 Tb656 2.366 . S
O670 C678 1.265 . S
C671 O667 1.259 . S
C671 O668 1.265 1_554 S
O672 Eu657 2.479 . S
O672 C687 1.238 . S
O673 Eu657 2.471 . S
O673 C687 1.247 . S
O674 Eu657 2.347 . S
O674 C658 1.259 . S
O675 Tb656 2.418 . S
O675 C658 1.265 1_554 S
O676 Tb656 2.384 . S
O676 C659 1.255 1_554 S
O677 Eu657 2.366 . S
O677 C659 1.265 . S
C678 O669 1.255 . S
C678 O670 1.265 . S
O679 Tb656 2.479 . S
O679 C666 1.238 . S
O680 Tb656 2.471 . S
O680 C666 1.247 . S
C681 C684 1.380 . S
C681 C685 1.374 . S
C681 C687 1.507 . S
C682 C683 1.387 . S
C682 C686 1.391 . S
C683 C682 1.387 . S
C683 C684 1.384 . S
C683 H692 0.930 . S
C684 C681 1.380 . S
C684 C683 1.384 . S
C684 H693 0.931 . S
C685 C681 1.374 . S
C685 C686 1.390 . S
C685 H694 0.930 . S
C686 C682 1.391 . S
C686 C685 1.390 . S
C686 H695 0.930 . S
C687 Eu657 2.825 . S
C687 O672 1.238 . S
C687 O673 1.247 . S
C687 C681 1.507 . S
H688 C661 0.930 . S
H689 C662 0.931 . S
H690 C663 0.930 . S
H691 C664 0.930 . S
H692 C683 0.930 . S
H693 C684 0.931 . S
H694 C685 0.930 . S
H695 C686 0.930 . S
Tb696 C706 2.825 . S
Tb696 O707 2.347 . S
Tb696 O710 2.366 . S
Tb696 O715 2.418 . S
Tb696 O716 2.384 . S
Tb696 O719 2.479 . S
Tb696 O720 2.471 . S
Eu697 O708 2.418 . S
Eu697 O709 2.384 . S
Eu697 O712 2.479 . S
Eu697 O713 2.471 . S
Eu697 O714 2.347 . S
Eu697 O717 2.366 . S
Eu697 C727 2.825 . S
C698 O714 1.259 . S
C698 O715 1.265 . S
C699 O716 1.255 . S
C699 O717 1.265 . S
C700 C702 1.380 . S
C700 C703 1.374 . S
C700 C706 1.507 . S
C701 C702 1.384 . S
C701 C705 1.387 . S
C701 H728 0.930 . S
C702 C700 1.380 . S
C702 C701 1.384 . S
C702 H729 0.931 . S
C703 C700 1.374 . S
C703 C704 1.390 . S
C703 H730 0.930 . S
C704 C703 1.390 . S
C704 C705 1.391 . S
C704 H731 0.930 . S
C705 C701 1.387 . S
C705 C704 1.391 . S
C706 Tb696 2.825 . S
C706 C700 1.507 . S
C706 O719 1.238 . S
C706 O720 1.247 . S
O707 Tb696 2.347 . S
O707 C711 1.259 . S
O708 Eu697 2.418 . S
O708 C711 1.265 . S
O709 Eu697 2.384 . S
O709 C718 1.255 . S
O710 Tb696 2.366 . S
O710 C718 1.265 . S
C711 O707 1.259 . S
C711 O708 1.265 . S
O712 Eu697 2.479 . S
O712 C727 1.238 . S
O713 Eu697 2.471 . S
O713 C727 1.247 . S
O714 Eu697 2.347 . S
O714 C698 1.259 . S
O715 Tb696 2.418 . S
O715 C698 1.265 . S
O716 Tb696 2.384 . S
O716 C699 1.255 . S
O717 Eu697 2.366 . S
O717 C699 1.265 . S
C718 O709 1.255 . S
C718 O710 1.265 . S
O719 Tb696 2.479 . S
O719 C706 1.238 . S
O720 Tb696 2.471 . S
O720 C706 1.247 . S
C721 C724 1.380 . S
C721 C725 1.374 . S
C721 C727 1.507 . S
C722 C723 1.387 . S
C722 C726 1.391 . S
C723 C722 1.387 . S
C723 C724 1.384 . S
C723 H732 0.930 . S
C724 C721 1.380 . S
C724 C723 1.384 . S
C724 H733 0.931 . S
C725 C721 1.374 . S
C725 C726 1.390 . S
C725 H734 0.930 . S
C726 C722 1.391 . S
C726 C725 1.390 . S
C726 H735 0.930 . S
C727 Eu697 2.825 . S
C727 O712 1.238 . S
C727 O713 1.247 . S
C727 C721 1.507 . S
H728 C701 0.930 . S
H729 C702 0.931 . S
H730 C703 0.930 . S
H731 C704 0.930 . S
H732 C723 0.930 . S
H733 C724 0.931 . S
H734 C725 0.930 . S
H735 C726 0.930 . S
Tb736 C746 2.825 . S
Tb736 O747 2.347 . S
Tb736 O750 2.366 . S
Tb736 O755 2.418 . S
Tb736 O756 2.384 . S
Tb736 O759 2.479 . S
Tb736 O760 2.471 . S
Eu737 O748 2.418 . S
Eu737 O749 2.384 . S
Eu737 O752 2.479 . S
Eu737 O753 2.471 . S
Eu737 O754 2.347 . S
Eu737 O757 2.366 . S
Eu737 C767 2.825 . S
C738 O754 1.259 . S
C738 O755 1.265 . S
C739 O756 1.255 . S
C739 O757 1.265 . S
C740 C742 1.380 . S
C740 C743 1.374 . S
C740 C746 1.507 . S
C741 C742 1.384 . S
C741 C745 1.387 . S
C741 H768 0.930 . S
C742 C740 1.380 . S
C742 C741 1.384 . S
C742 H769 0.931 . S
C743 C740 1.374 . S
C743 C744 1.390 . S
C743 H770 0.930 . S
C744 C743 1.390 . S
C744 C745 1.391 . S
C744 H771 0.930 . S
C745 C741 1.387 . S
C745 C744 1.391 . S
C746 Tb736 2.825 . S
C746 C740 1.507 . S
C746 O759 1.238 . S
C746 O760 1.247 . S
O747 Tb736 2.347 . S
O747 C751 1.259 . S
O748 Eu737 2.418 . S
O748 C751 1.265 . S
O749 Eu737 2.384 . S
O749 C758 1.255 . S
O750 Tb736 2.366 . S
O750 C758 1.265 . S
C751 O747 1.259 . S
C751 O748 1.265 . S
O752 Eu737 2.479 . S
O752 C767 1.238 . S
O753 Eu737 2.471 . S
O753 C767 1.247 . S
O754 Eu737 2.347 . S
O754 C738 1.259 . S
O755 Tb736 2.418 . S
O755 C738 1.265 . S
O756 Tb736 2.384 . S
O756 C739 1.255 . S
O757 Eu737 2.366 . S
O757 C739 1.265 . S
C758 O749 1.255 . S
C758 O750 1.265 . S
O759 Tb736 2.479 . S
O759 C746 1.238 . S
O760 Tb736 2.471 . S
O760 C746 1.247 . S
C761 C764 1.380 . S
C761 C765 1.374 . S
C761 C767 1.507 . S
C762 C763 1.387 . S
C762 C766 1.391 . S
C763 C762 1.387 . S
C763 C764 1.384 . S
C763 H772 0.930 . S
C764 C761 1.380 . S
C764 C763 1.384 . S
C764 H773 0.931 . S
C765 C761 1.374 . S
C765 C766 1.390 . S
C765 H774 0.930 . S
C766 C762 1.391 . S
C766 C765 1.390 . S
C766 H775 0.930 . S
C767 Eu737 2.825 . S
C767 O752 1.238 . S
C767 O753 1.247 . S
C767 C761 1.507 . S
H768 C741 0.930 . S
H769 C742 0.931 . S
H770 C743 0.930 . S
H771 C744 0.930 . S
H772 C763 0.930 . S
H773 C764 0.931 . S
H774 C765 0.930 . S
H775 C766 0.930 . S
Tb776 C786 2.825 . S
Tb776 O787 2.347 . S
Tb776 O790 2.366 . S
Tb776 O795 2.418 . S
Tb776 O796 2.384 . S
Tb776 O799 2.479 . S
Tb776 O800 2.471 . S
Eu777 O788 2.418 . S
Eu777 O789 2.384 . S
Eu777 O792 2.479 . S
Eu777 O793 2.471 . S
Eu777 O794 2.347 . S
Eu777 O797 2.366 . S
Eu777 C807 2.825 . S
C778 O794 1.259 . S
C778 O795 1.265 . S
C779 O796 1.255 . S
C779 O797 1.265 . S
C780 C782 1.380 . S
C780 C783 1.374 . S
C780 C786 1.507 . S
C781 C782 1.384 . S
C781 C785 1.387 . S
C781 H808 0.930 . S
C782 C780 1.380 . S
C782 C781 1.384 . S
C782 H809 0.931 . S
C783 C780 1.374 . S
C783 C784 1.390 . S
C783 H810 0.930 . S
C784 C783 1.390 . S
C784 C785 1.391 . S
C784 H811 0.930 . S
C785 C781 1.387 . S
C785 C784 1.391 . S
C786 Tb776 2.825 . S
C786 C780 1.507 . S
C786 O799 1.238 . S
C786 O800 1.247 . S
O787 Tb776 2.347 . S
O787 C791 1.259 . S
O788 Eu777 2.418 . S
O788 C791 1.265 . S
O789 Eu777 2.384 . S
O789 C798 1.255 . S
O790 Tb776 2.366 . S
O790 C798 1.265 . S
C791 O787 1.259 . S
C791 O788 1.265 . S
O792 Eu777 2.479 . S
O792 C807 1.238 . S
O793 Eu777 2.471 . S
O793 C807 1.247 . S
O794 Eu777 2.347 . S
O794 C778 1.259 . S
O795 Tb776 2.418 . S
O795 C778 1.265 . S
O796 Tb776 2.384 . S
O796 C779 1.255 . S
O797 Eu777 2.366 . S
O797 C779 1.265 . S
C798 O789 1.255 . S
C798 O790 1.265 . S
O799 Tb776 2.479 . S
O799 C786 1.238 . S
O800 Tb776 2.471 . S
O800 C786 1.247 . S
C801 C804 1.380 . S
C801 C805 1.374 . S
C801 C807 1.507 . S
C802 C803 1.387 . S
C802 C806 1.391 . S
C803 C802 1.387 . S
C803 C804 1.384 . S
C803 H812 0.930 . S
C804 C801 1.380 . S
C804 C803 1.384 . S
C804 H813 0.931 . S
C805 C801 1.374 . S
C805 C806 1.390 . S
C805 H814 0.930 . S
C806 C802 1.391 . S
C806 C805 1.390 . S
C806 H815 0.930 . S
C807 Eu777 2.825 . S
C807 O792 1.238 . S
C807 O793 1.247 . S
C807 C801 1.507 . S
H808 C781 0.930 . S
H809 C782 0.931 . S
H810 C783 0.930 . S
H811 C784 0.930 . S
H812 C803 0.930 . S
H813 C804 0.931 . S
H814 C805 0.930 . S
H815 C806 0.930 . S
Tb816 C826 2.825 . S
Tb816 O827 2.347 . S
Tb816 O830 2.366 . S
Tb816 O835 2.418 . S
Tb816 O836 2.384 . S
Tb816 O839 2.479 . S
Tb816 O840 2.471 . S
Eu817 O828 2.418 . S
Eu817 O829 2.384 . S
Eu817 O832 2.479 . S
Eu817 O833 2.471 . S
Eu817 O834 2.347 . S
Eu817 O837 2.366 . S
Eu817 C847 2.825 . S
C818 O834 1.259 . S
C818 O835 1.265 . S
C819 O836 1.255 . S
C819 O837 1.265 . S
C820 C822 1.380 . S
C820 C823 1.374 . S
C820 C826 1.507 . S
C821 C822 1.384 . S
C821 C825 1.387 . S
C821 H848 0.930 . S
C822 C820 1.380 . S
C822 C821 1.384 . S
C822 H849 0.931 . S
C823 C820 1.374 . S
C823 C824 1.390 . S
C823 H850 0.930 . S
C824 C823 1.390 . S
C824 C825 1.391 . S
C824 H851 0.930 . S
C825 C821 1.387 . S
C825 C824 1.391 . S
C826 Tb816 2.825 . S
C826 C820 1.507 . S
C826 O839 1.238 . S
C826 O840 1.247 . S
O827 Tb816 2.347 . S
O827 C831 1.259 . S
O828 Eu817 2.418 . S
O828 C831 1.265 . S
O829 Eu817 2.384 . S
O829 C838 1.255 . S
O830 Tb816 2.366 . S
O830 C838 1.265 . S
C831 O827 1.259 . S
C831 O828 1.265 . S
O832 Eu817 2.479 . S
O832 C847 1.238 . S
O833 Eu817 2.471 . S
O833 C847 1.247 . S
O834 Eu817 2.347 . S
O834 C818 1.259 . S
O835 Tb816 2.418 . S
O835 C818 1.265 . S
O836 Tb816 2.384 . S
O836 C819 1.255 . S
O837 Eu817 2.366 . S
O837 C819 1.265 . S
C838 O829 1.255 . S
C838 O830 1.265 . S
O839 Tb816 2.479 . S
O839 C826 1.238 . S
O840 Tb816 2.471 . S
O840 C826 1.247 . S
C841 C844 1.380 . S
C841 C845 1.374 . S
C841 C847 1.507 . S
C842 C843 1.387 . S
C842 C846 1.391 . S
C843 C842 1.387 . S
C843 C844 1.384 . S
C843 H852 0.930 . S
C844 C841 1.380 . S
C844 C843 1.384 . S
C844 H853 0.931 . S
C845 C841 1.374 . S
C845 C846 1.390 . S
C845 H854 0.930 . S
C846 C842 1.391 . S
C846 C845 1.390 . S
C846 H855 0.930 . S
C847 Eu817 2.825 . S
C847 O832 1.238 . S
C847 O833 1.247 . S
C847 C841 1.507 . S
H848 C821 0.930 . S
H849 C822 0.931 . S
H850 C823 0.930 . S
H851 C824 0.930 . S
H852 C843 0.930 . S
H853 C844 0.931 . S
H854 C845 0.930 . S
H855 C846 0.930 . S
Tb856 C866 2.825 . S
Tb856 O867 2.347 . S
Tb856 O870 2.366 . S
Tb856 O875 2.418 . S
Tb856 O876 2.384 . S
Tb856 O879 2.479 . S
Tb856 O880 2.471 . S
Eu857 O868 2.418 . S
Eu857 O869 2.384 . S
Eu857 O872 2.479 . S
Eu857 O873 2.471 . S
Eu857 O874 2.347 . S
Eu857 O877 2.366 . S
Eu857 C887 2.825 . S
C858 O874 1.259 . S
C858 O875 1.265 . S
C859 O876 1.255 . S
C859 O877 1.265 . S
C860 C862 1.380 . S
C860 C863 1.374 . S
C860 C866 1.507 . S
C861 C862 1.384 . S
C861 C865 1.387 . S
C861 H888 0.930 . S
C862 C860 1.380 . S
C862 C861 1.384 . S
C862 H889 0.931 . S
C863 C860 1.374 . S
C863 C864 1.390 . S
C863 H890 0.930 . S
C864 C863 1.390 . S
C864 C865 1.391 . S
C864 H891 0.930 . S
C865 C861 1.387 . S
C865 C864 1.391 . S
C866 Tb856 2.825 . S
C866 C860 1.507 . S
C866 O879 1.238 . S
C866 O880 1.247 . S
O867 Tb856 2.347 . S
O867 C871 1.259 . S
O868 Eu857 2.418 . S
O868 C871 1.265 . S
O869 Eu857 2.384 . S
O869 C878 1.255 . S
O870 Tb856 2.366 . S
O870 C878 1.265 . S
C871 O867 1.259 . S
C871 O868 1.265 . S
O872 Eu857 2.479 . S
O872 C887 1.238 . S
O873 Eu857 2.471 . S
O873 C887 1.247 . S
O874 Eu857 2.347 . S
O874 C858 1.259 . S
O875 Tb856 2.418 . S
O875 C858 1.265 . S
O876 Tb856 2.384 . S
O876 C859 1.255 . S
O877 Eu857 2.366 . S
O877 C859 1.265 . S
C878 O869 1.255 . S
C878 O870 1.265 . S
O879 Tb856 2.479 . S
O879 C866 1.238 . S
O880 Tb856 2.471 . S
O880 C866 1.247 . S
C881 C884 1.380 . S
C881 C885 1.374 . S
C881 C887 1.507 . S
C882 C883 1.387 . S
C882 C886 1.391 . S
C883 C882 1.387 . S
C883 C884 1.384 . S
C883 H892 0.930 . S
C884 C881 1.380 . S
C884 C883 1.384 . S
C884 H893 0.931 . S
C885 C881 1.374 . S
C885 C886 1.390 . S
C885 H894 0.930 . S
C886 C882 1.391 . S
C886 C885 1.390 . S
C886 H895 0.930 . S
C887 Eu857 2.825 . S
C887 O872 1.238 . S
C887 O873 1.247 . S
C887 C881 1.507 . S
H888 C861 0.930 . S
H889 C862 0.931 . S
H890 C863 0.930 . S
H891 C864 0.930 . S
H892 C883 0.930 . S
H893 C884 0.931 . S
H894 C885 0.930 . S
H895 C886 0.930 . S
Tb896 C906 2.825 . S
Tb896 O907 2.347 . S
Tb896 O910 2.366 . S
Tb896 O915 2.418 . S
Tb896 O916 2.384 . S
Tb896 O919 2.479 . S
Tb896 O920 2.471 . S
Eu897 O908 2.418 . S
Eu897 O909 2.384 . S
Eu897 O912 2.479 . S
Eu897 O913 2.471 . S
Eu897 O914 2.347 . S
Eu897 O917 2.366 . S
Eu897 C927 2.825 . S
C898 O914 1.259 . S
C898 O915 1.265 . S
C899 O916 1.255 . S
C899 O917 1.265 . S
C900 C902 1.380 . S
C900 C903 1.374 . S
C900 C906 1.507 . S
C901 C902 1.384 . S
C901 C905 1.387 . S
C901 H928 0.930 . S
C902 C900 1.380 . S
C902 C901 1.384 . S
C902 H929 0.931 . S
C903 C900 1.374 . S
C903 C904 1.390 . S
C903 H930 0.930 . S
C904 C903 1.390 . S
C904 C905 1.391 . S
C904 H931 0.930 . S
C905 C901 1.387 . S
C905 C904 1.391 . S
C906 Tb896 2.825 . S
C906 C900 1.507 . S
C906 O919 1.238 . S
C906 O920 1.247 . S
O907 Tb896 2.347 . S
O907 C911 1.259 . S
O908 Eu897 2.418 . S
O908 C911 1.265 . S
O909 Eu897 2.384 . S
O909 C918 1.255 . S
O910 Tb896 2.366 . S
O910 C918 1.265 . S
C911 O907 1.259 . S
C911 O908 1.265 . S
O912 Eu897 2.479 . S
O912 C927 1.238 . S
O913 Eu897 2.471 . S
O913 C927 1.247 . S
O914 Eu897 2.347 . S
O914 C898 1.259 . S
O915 Tb896 2.418 . S
O915 C898 1.265 . S
O916 Tb896 2.384 . S
O916 C899 1.255 . S
O917 Eu897 2.366 . S
O917 C899 1.265 . S
C918 O909 1.255 . S
C918 O910 1.265 . S
O919 Tb896 2.479 . S
O919 C906 1.238 . S
O920 Tb896 2.471 . S
O920 C906 1.247 . S
C921 C924 1.380 . S
C921 C925 1.374 . S
C921 C927 1.507 . S
C922 C923 1.387 . S
C922 C926 1.391 . S
C923 C922 1.387 . S
C923 C924 1.384 . S
C923 H932 0.930 . S
C924 C921 1.380 . S
C924 C923 1.384 . S
C924 H933 0.931 . S
C925 C921 1.374 . S
C925 C926 1.390 . S
C925 H934 0.930 . S
C926 C922 1.391 . S
C926 C925 1.390 . S
C926 H935 0.930 . S
C927 Eu897 2.825 . S
C927 O912 1.238 . S
C927 O913 1.247 . S
C927 C921 1.507 . S
H928 C901 0.930 . S
H929 C902 0.931 . S
H930 C903 0.930 . S
H931 C904 0.930 . S
H932 C923 0.930 . S
H933 C924 0.931 . S
H934 C925 0.930 . S
H935 C926 0.930 . S
C936 C937 1.369 . S
C936 C938 1.419 . S
C936 H940 0.930 . S
C937 C936 1.369 . S
C937 C946 1.429 . S
C938 C936 1.419 . S
C938 C939 1.363 . S
C938 H941 0.929 . S
C939 C938 1.363 . S
C939 C945 1.428 . S
H940 C936 0.930 . S
H941 C938 0.929 . S
S942 N943 1.613 . S
S942 N944 1.610 . S
N943 S942 1.613 . S
N943 C946 1.350 . S
N944 S942 1.610 . S
N944 C945 1.351 . S
C945 C939 1.428 . S
C945 N944 1.351 . S
C945 C946 1.434 . S
C946 C937 1.429 . S
C946 N943 1.350 . S
C946 C945 1.434 . S
C947 C948 1.369 . S
C947 C949 1.419 . S
C947 H951 0.930 . S
C948 C947 1.369 . S
C948 C957 1.429 . S
C949 C947 1.419 . S
C949 C950 1.363 . S
C949 H952 0.929 . S
C950 C949 1.363 . S
C950 C956 1.428 . S
H951 C947 0.930 . S
H952 C949 0.929 . S
S953 N954 1.613 . S
S953 N955 1.610 . S
N954 S953 1.613 . S
N954 C957 1.350 . S
N955 S953 1.610 . S
N955 C956 1.351 . S
C956 C950 1.428 . S
C956 N955 1.351 . S
C956 C957 1.434 . S
C957 C948 1.429 . S
C957 N954 1.350 . S
C957 C956 1.434 . S
C958 C959 1.369 . S
C958 C960 1.419 . S
C958 H962 0.930 . S
C959 C958 1.369 . S
C959 C968 1.429 . S
C960 C958 1.419 . S
C960 C961 1.363 . S
C960 H963 0.929 . S
C961 C960 1.363 . S
C961 C967 1.428 . S
H962 C958 0.930 . S
H963 C960 0.929 . S
S964 N965 1.613 . S
S964 N966 1.610 . S
N965 S964 1.613 . S
N965 C968 1.350 . S
N966 S964 1.610 . S
N966 C967 1.351 . S
C967 C961 1.428 . S
C967 N966 1.351 . S
C967 C968 1.434 . S
C968 C959 1.429 . S
C968 N965 1.350 . S
C968 C967 1.434 . S
C969 C970 1.369 . S
C969 C971 1.419 . S
C969 H973 0.930 . S
C970 C969 1.369 . S
C970 C979 1.429 . S
C971 C969 1.419 . S
C971 C972 1.363 . S
C971 H974 0.929 . S
C972 C971 1.363 . S
C972 C978 1.428 . S
H973 C969 0.930 . S
H974 C971 0.929 . S
S975 N976 1.613 . S
S975 N977 1.610 . S
N976 S975 1.613 . S
N976 C979 1.350 . S
N977 S975 1.610 . S
N977 C978 1.351 . S
C978 C972 1.428 . S
C978 N977 1.351 . S
C978 C979 1.434 . S
C979 C970 1.429 . S
C979 N976 1.350 . S
C979 C978 1.434 . S
C980 C981 1.369 . S
C980 C982 1.419 . S
C980 H984 0.930 . S
C981 C980 1.369 . S
C981 C990 1.429 . S
C982 C980 1.419 . S
C982 C983 1.363 . S
C982 H985 0.929 . S
C983 C982 1.363 . S
C983 C989 1.428 . S
H984 C980 0.930 . S
H985 C982 0.929 . S
S986 N987 1.613 1_554 S
S986 N988 1.610 . S
N987 S986 1.613 1_556 S
N987 C990 1.350 . S
N988 S986 1.610 . S
N988 C989 1.351 1_554 S
C989 C983 1.428 . S
C989 N988 1.351 1_556 S
C989 C990 1.434 . S
C990 C981 1.429 . S
C990 N987 1.350 . S
C990 C989 1.434 . S
C991 C992 1.369 . S
C991 C993 1.419 1_556 S
C991 H995 0.930 1_556 S
C992 C991 1.369 . S
C992 C1001 1.429 . S
C993 C991 1.419 1_554 S
C993 C994 1.363 1_554 S
C993 H996 0.929 . S
C994 C993 1.363 1_556 S
C994 C1000 1.428 . S
H995 C991 0.930 1_554 S
H996 C993 0.929 . S
S997 N998 1.613 . S
S997 N999 1.610 . S
N998 S997 1.613 . S
N998 C1001 1.350 . S
N999 S997 1.610 . S
N999 C1000 1.351 . S
C1000 C994 1.428 . S
C1000 N999 1.351 . S
C1000 C1001 1.434 . S
C1001 C992 1.429 . S
C1001 N998 1.350 . S
C1001 C1000 1.434 . S
C1002 C1003 1.369 . S
C1002 C1004 1.419 . S
C1002 H1006 0.930 . S
C1003 C1002 1.369 . S
C1003 C1012 1.429 . S
C1004 C1002 1.419 . S
C1004 C1005 1.363 . S
C1004 H1007 0.929 . S
C1005 C1004 1.363 . S
C1005 C1011 1.428 . S
H1006 C1002 0.930 . S
H1007 C1004 0.929 . S
S1008 N1009 1.594 1_565 S
S1008 N1010 1.581 1_565 S
N1009 S1008 1.594 1_545 S
N1009 C1012 1.350 . S
N1010 S1008 1.581 1_545 S
N1010 C1011 1.351 . S
C1011 C1005 1.428 . S
C1011 N1010 1.351 . S
C1011 C1012 1.434 . S
C1012 C1003 1.429 . S
C1012 N1009 1.350 . S
C1012 C1011 1.434 . S
C1013 C1014 1.369 . S
C1013 C1015 1.419 . S
C1013 H1017 0.930 . S
C1014 C1013 1.369 . S
C1014 C1023 1.429 . S
C1015 C1013 1.419 . S
C1015 C1016 1.363 . S
C1015 H1018 0.929 1_556 S
C1016 C1015 1.363 . S
C1016 C1022 1.428 . S
H1017 C1013 0.930 . S
H1018 C1015 0.929 1_554 S
S1019 N1020 1.613 . S
S1019 N1021 1.610 . S
N1020 S1019 1.613 . S
N1020 C1023 1.350 . S
N1021 S1019 1.610 . S
N1021 C1022 1.351 . S
C1022 C1016 1.428 . S
C1022 N1021 1.351 . S
C1022 C1023 1.434 . S
C1023 C1014 1.429 . S
C1023 N1020 1.350 . S
C1023 C1022 1.434 . S
C1024 C1025 1.369 . S
C1024 C1026 1.419 . S
C1024 H1028 0.946 . S
C1025 C1024 1.369 . S
C1025 C1034 1.429 . S
C1026 C1024 1.419 . S
C1026 C1027 1.363 . S
C1026 H1029 0.929 1_556 S
C1027 C1026 1.363 . S
C1027 C1033 1.428 . S
H1028 C1024 0.946 . S
H1029 C1026 0.929 1_554 S
S1030 N1031 1.613 . S
S1030 N1032 1.610 . S
N1031 S1030 1.613 . S
N1031 C1034 1.350 . S
N1032 S1030 1.610 . S
N1032 C1033 1.351 . S
C1033 C1027 1.428 . S
C1033 N1032 1.351 . S
C1033 C1034 1.434 . S
C1034 C1025 1.429 . S
C1034 N1031 1.350 . S
C1034 C1033 1.434 . S
C1035 C1036 1.369 . S
C1035 C1037 1.419 . S
C1035 H1039 0.930 . S
C1036 C1035 1.369 . S
C1036 C1045 1.429 . S
C1037 C1035 1.419 . S
C1037 C1038 1.363 . S
C1037 H1040 0.929 1_554 S
C1038 C1037 1.363 . S
C1038 C1044 1.428 . S
H1039 C1035 0.930 . S
H1040 C1037 0.929 1_556 S
S1041 N1042 1.613 . S
S1041 N1043 1.610 . S
N1042 S1041 1.613 . S
N1042 C1045 1.350 . S
N1043 S1041 1.610 . S
N1043 C1044 1.351 . S
C1044 C1038 1.428 . S
C1044 N1043 1.351 . S
C1044 C1045 1.434 . S
C1045 C1036 1.429 . S
C1045 N1042 1.350 . S
C1045 C1044 1.434 . S
C1046 C1047 1.369 . S
C1046 C1048 1.419 . S
C1046 H1050 0.930 . S
C1047 C1046 1.369 . S
C1047 C1056 1.429 . S
C1048 C1046 1.419 . S
C1048 C1049 1.363 . S
C1048 H1051 0.929 . S
C1049 C1048 1.363 . S
C1049 C1055 1.428 . S
H1050 C1046 0.930 . S
H1051 C1048 0.929 . S
S1052 N1053 1.613 . S
S1052 N1054 1.610 . S
N1053 S1052 1.613 . S
N1053 C1056 1.350 . S
N1054 S1052 1.610 . S
N1054 C1055 1.351 . S
C1055 C1049 1.428 . S
C1055 N1054 1.351 . S
C1055 C1056 1.434 . S
C1056 C1047 1.429 . S
C1056 N1053 1.350 . S
C1056 C1055 1.434 . S
C1057 C1058 1.369 . S
C1057 C1059 1.419 . S
C1057 H1061 0.930 . S
C1058 C1057 1.369 . S
C1058 C1067 1.429 . S
C1059 C1057 1.419 . S
C1059 C1060 1.363 . S
C1059 H1062 0.929 1_554 S
C1060 C1059 1.363 . S
C1060 C1066 1.428 . S
H1061 C1057 0.930 . S
H1062 C1059 0.929 1_556 S
S1063 N1064 1.613 1_545 S
S1063 N1065 1.610 1_545 S
N1064 S1063 1.613 1_565 S
N1064 C1067 1.350 . S
N1065 S1063 1.610 1_565 S
N1065 C1066 1.351 . S
C1066 C1060 1.428 . S
C1066 N1065 1.351 . S
C1066 C1067 1.434 . S
C1067 C1058 1.429 . S
C1067 N1064 1.350 . S
C1067 C1066 1.434 . S
C1068 C1069 1.369 1_455 S
C1068 C1070 1.419 . S
C1068 H1072 0.930 . S
C1069 C1068 1.369 1_655 S
C1069 C1078 1.429 1_655 S
C1070 C1068 1.419 . S
C1070 C1071 1.363 . S
C1070 H1073 0.929 . S
C1071 C1070 1.363 . S
C1071 C1077 1.428 . S
H1072 C1068 0.930 . S
H1073 C1070 0.929 . S
S1074 N1075 1.620 . S
S1074 N1076 1.599 1_655 S
N1075 S1074 1.620 . S
N1075 C1078 1.350 1_655 S
N1076 S1074 1.599 1_455 S
N1076 C1077 1.351 . S
C1077 C1071 1.428 . S
C1077 N1076 1.351 . S
C1077 C1078 1.434 . S
C1078 C1069 1.429 1_455 S
C1078 N1075 1.350 1_455 S
C1078 C1077 1.434 . S
C1079 C1080 1.369 . S
C1079 C1081 1.419 . S
C1079 H1083 0.930 . S
C1080 C1079 1.369 . S
C1080 C1089 1.429 . S
C1081 C1079 1.419 . S
C1081 C1082 1.363 . S
C1081 H1084 0.929 . S
C1082 C1081 1.363 . S
C1082 C1088 1.428 . S
H1083 C1079 0.930 . S
H1084 C1081 0.929 . S
S1085 N1086 1.613 . S
S1085 N1087 1.610 . S
N1086 S1085 1.613 . S
N1086 C1089 1.350 . S
N1087 S1085 1.610 . S
N1087 C1088 1.351 . S
C1088 C1082 1.428 . S
C1088 N1087 1.351 . S
C1088 C1089 1.434 . S
C1089 C1080 1.429 . S
C1089 N1086 1.350 . S
C1089 C1088 1.434 . S
C1090 C1091 1.369 . S
C1090 C1092 1.419 1_545 S
C1090 H1094 0.930 . S
C1091 C1090 1.369 . S
C1091 C1100 1.436 . S
C1092 C1090 1.419 1_565 S
C1092 C1093 1.363 . S
C1092 H1095 0.929 . S
C1093 C1092 1.363 . S
C1093 C1099 1.428 . S
H1094 C1090 0.930 . S
H1095 C1092 0.929 . S
S1096 N1097 1.613 1_565 S
S1096 N1098 1.610 . S
N1097 S1096 1.613 1_545 S
N1097 C1100 1.350 . S
N1098 S1096 1.610 . S
N1098 C1099 1.351 . S
C1099 C1093 1.428 . S
C1099 N1098 1.351 . S
C1099 C1100 1.425 1_565 S
C1100 C1091 1.436 . S
C1100 N1097 1.350 . S
C1100 C1099 1.425 1_545 S
C1101 C1102 1.369 . S
C1101 C1103 1.419 . S
C1101 H1105 0.930 . S
C1102 C1101 1.369 . S
C1102 C1111 1.429 . S
C1103 C1101 1.419 . S
C1103 C1104 1.363 . S
C1103 H1106 0.929 . S
C1104 C1103 1.363 . S
C1104 C1110 1.428 . S
H1105 C1101 0.930 . S
H1106 C1103 0.929 . S
S1107 N1108 1.613 . S
S1107 N1109 1.610 . S
N1108 S1107 1.613 . S
N1108 C1111 1.350 . S
N1109 S1107 1.610 . S
N1109 C1110 1.351 . S
C1110 C1104 1.428 . S
C1110 N1109 1.351 . S
C1110 C1111 1.434 . S
C1111 C1102 1.429 . S
C1111 N1108 1.350 . S
C1111 C1110 1.434 . S
C1112 C1113 1.369 . S
C1112 C1114 1.419 . S
C1112 H1116 0.930 . S
C1113 C1112 1.369 . S
C1113 C1122 1.429 . S
C1114 C1112 1.419 . S
C1114 C1115 1.363 . S
C1114 H1117 0.929 . S
C1115 C1114 1.363 . S
C1115 C1121 1.428 . S
H1116 C1112 0.930 . S
H1117 C1114 0.929 . S
S1118 N1119 1.613 . S
S1118 N1120 1.610 . S
N1119 S1118 1.613 . S
N1119 C1122 1.350 . S
N1120 S1118 1.610 . S
N1120 C1121 1.351 . S
C1121 C1115 1.428 . S
C1121 N1120 1.351 . S
C1121 C1122 1.434 . S
C1122 C1113 1.429 . S
C1122 N1119 1.350 . S
C1122 C1121 1.434 . S
C1123 C1124 1.369 . S
C1123 C1125 1.419 . S
C1123 H1127 0.930 . S
C1124 C1123 1.369 . S
C1124 C1133 1.429 . S
C1125 C1123 1.419 . S
C1125 C1126 1.363 . S
C1125 H1128 0.929 . S
C1126 C1125 1.363 . S
C1126 C1132 1.428 . S
H1127 C1123 0.930 . S
H1128 C1125 0.929 . S
S1129 N1130 1.613 . S
S1129 N1131 1.610 . S
N1130 S1129 1.613 . S
N1130 C1133 1.350 . S
N1131 S1129 1.610 . S
N1131 C1132 1.351 . S
C1132 C1126 1.428 . S
C1132 N1131 1.351 . S
C1132 C1133 1.434 . S
C1133 C1124 1.429 . S
C1133 N1130 1.350 . S
C1133 C1132 1.434 . S
C1134 C1135 1.369 . S
C1134 C1136 1.419 . S
C1134 H1138 0.930 . S
C1135 C1134 1.369 . S
C1135 C1144 1.429 . S
C1136 C1134 1.419 . S
C1136 C1137 1.363 . S
C1136 H1139 0.929 . S
C1137 C1136 1.363 . S
C1137 C1143 1.428 . S
H1138 C1134 0.930 . S
H1139 C1136 0.929 . S
S1140 N1141 1.613 . S
S1140 N1142 1.610 . S
N1141 S1140 1.613 . S
N1141 C1144 1.350 . S
N1142 S1140 1.610 . S
N1142 C1143 1.351 . S
C1143 C1137 1.428 . S
C1143 N1142 1.351 . S
C1143 C1144 1.434 . S
C1144 C1135 1.429 . S
C1144 N1141 1.350 . S
C1144 C1143 1.434 . S
C1145 C1146 1.369 . S
C1145 C1147 1.419 . S
C1145 H1149 0.930 . S
C1146 C1145 1.369 . S
C1146 C1155 1.429 . S
C1147 C1145 1.419 . S
C1147 C1148 1.363 . S
C1147 H1150 0.929 . S
C1148 C1147 1.363 . S
C1148 C1154 1.428 . S
H1149 C1145 0.930 . S
H1150 C1147 0.929 . S
S1151 N1152 1.613 . S
S1151 N1153 1.610 . S
N1152 S1151 1.613 . S
N1152 C1155 1.350 . S
N1153 S1151 1.610 . S
N1153 C1154 1.351 . S
C1154 C1148 1.428 . S
C1154 N1153 1.351 . S
C1154 C1155 1.434 . S
C1155 C1146 1.429 . S
C1155 N1152 1.350 . S
C1155 C1154 1.434 . S
C1156 C1157 1.369 . S
C1156 C1158 1.419 . S
C1156 H1160 0.930 . S
C1157 C1156 1.369 . S
C1157 C1166 1.429 . S
C1158 C1156 1.419 . S
C1158 C1159 1.363 . S
C1158 H1161 0.929 . S
C1159 C1158 1.363 . S
C1159 C1165 1.428 . S
H1160 C1156 0.930 . S
H1161 C1158 0.929 . S
S1162 N1163 1.613 . S
S1162 N1164 1.610 . S
N1163 S1162 1.613 . S
N1163 C1166 1.350 . S
N1164 S1162 1.610 . S
N1164 C1165 1.351 . S
C1165 C1159 1.428 . S
C1165 N1164 1.351 . S
C1165 C1166 1.434 . S
C1166 C1157 1.429 . S
C1166 N1163 1.350 . S
C1166 C1165 1.434 . S
C1167 C1168 1.369 1_565 S
C1167 C1169 1.419 . S
C1167 H1171 0.930 1_565 S
C1168 C1167 1.369 1_545 S
C1168 C1177 1.429 1_545 S
C1169 C1167 1.419 . S
C1169 C1170 1.363 . S
C1169 H1172 0.929 . S
C1170 C1169 1.363 . S
C1170 C1176 1.428 . S
H1171 C1167 0.930 1_545 S
H1172 C1169 0.929 . S
S1173 N1174 1.613 1_565 S
S1173 N1175 1.610 . S
N1174 S1173 1.613 1_545 S
N1174 C1177 1.350 1_545 S
N1175 S1173 1.610 . S
N1175 C1176 1.351 . S
C1176 C1170 1.428 . S
C1176 N1175 1.351 . S
C1176 C1177 1.434 . S
C1177 C1168 1.429 1_565 S
C1177 N1174 1.350 1_565 S
C1177 C1176 1.434 . S
C1178 C1179 1.369 . S
C1178 C1180 1.419 . S
C1178 H1182 0.930 1_455 S
C1179 C1178 1.369 . S
C1179 C1188 1.429 . S
C1180 C1178 1.419 . S
C1180 C1181 1.363 . S
C1180 H1183 0.929 . S
C1181 C1180 1.363 . S
C1181 C1187 1.428 . S
H1182 C1178 0.930 1_655 S
H1183 C1180 0.929 . S
S1184 N1185 1.613 . S
S1184 N1186 1.610 . S
N1185 S1184 1.613 . S
N1185 C1188 1.350 . S
N1186 S1184 1.610 . S
N1186 C1187 1.351 . S
C1187 C1181 1.428 . S
C1187 N1186 1.351 . S
C1187 C1188 1.434 . S
C1188 C1179 1.429 . S
C1188 N1185 1.350 . S
C1188 C1187 1.434 . S
C1189 C1190 1.369 . S
C1189 C1191 1.419 . S
C1189 H1193 0.930 . S
C1190 C1189 1.369 . S
C1190 C1199 1.429 . S
C1191 C1189 1.419 . S
C1191 C1192 1.363 . S
C1191 H1194 0.929 . S
C1192 C1191 1.363 . S
C1192 C1198 1.428 . S
H1193 C1189 0.930 . S
H1194 C1191 0.929 . S
S1195 N1196 1.613 . S
S1195 N1197 1.610 . S
N1196 S1195 1.613 . S
N1196 C1199 1.350 . S
N1197 S1195 1.610 . S
N1197 C1198 1.351 . S
C1198 C1192 1.428 . S
C1198 N1197 1.351 . S
C1198 C1199 1.434 . S
C1199 C1190 1.429 . S
C1199 N1196 1.350 . S
C1199 C1198 1.434 . S
C1200 C1201 1.369 . S
C1200 C1202 1.419 . S
C1200 H1204 0.930 . S
C1201 C1200 1.369 . S
C1201 C1210 1.429 . S
C1202 C1200 1.419 . S
C1202 C1203 1.363 . S
C1202 H1205 0.929 . S
C1203 C1202 1.363 . S
C1203 C1209 1.428 . S
H1204 C1200 0.930 . S
H1205 C1202 0.929 . S
S1206 N1207 1.613 . S
S1206 N1208 1.610 . S
N1207 S1206 1.613 . S
N1207 C1210 1.350 . S
N1208 S1206 1.610 . S
N1208 C1209 1.351 . S
C1209 C1203 1.428 . S
C1209 N1208 1.351 . S
C1209 C1210 1.434 . S
C1210 C1201 1.429 . S
C1210 N1207 1.350 . S
C1210 C1209 1.434 . S
C1211 C1212 1.369 . S
C1211 C1213 1.419 . S
C1211 H1215 0.930 . S
C1212 C1211 1.369 . S
C1212 C1221 1.429 . S
C1213 C1211 1.419 . S
C1213 C1214 1.363 . S
C1213 H1216 0.929 . S
C1214 C1213 1.363 . S
C1214 C1220 1.428 . S
H1215 C1211 0.930 . S
H1216 C1213 0.929 . S
S1217 N1218 1.613 . S
S1217 N1219 1.610 . S
N1218 S1217 1.613 . S
N1218 C1221 1.350 . S
N1219 S1217 1.610 . S
N1219 C1220 1.351 . S
C1220 C1214 1.428 . S
C1220 N1219 1.351 . S
C1220 C1221 1.434 . S
C1221 C1212 1.429 . S
C1221 N1218 1.350 . S
C1221 C1220 1.434 . S
C1222 C1223 1.369 . S
C1222 C1224 1.419 . S
C1222 H1226 0.930 . S
C1223 C1222 1.369 . S
C1223 C1232 1.429 . S
C1224 C1222 1.419 . S
C1224 C1225 1.363 . S
C1224 H1227 0.929 . S
C1225 C1224 1.363 . S
C1225 C1231 1.428 . S
H1226 C1222 0.930 . S
H1227 C1224 0.929 . S
S1228 N1229 1.613 . S
S1228 N1230 1.610 . S
N1229 S1228 1.613 . S
N1229 C1232 1.350 . S
N1230 S1228 1.610 . S
N1230 C1231 1.351 . S
C1231 C1225 1.428 . S
C1231 N1230 1.351 . S
C1231 C1232 1.434 . S
C1232 C1223 1.429 . S
C1232 N1229 1.350 . S
C1232 C1231 1.434 . S
C1233 C1234 1.369 1_545 S
C1233 C1235 1.419 . S
C1233 H1237 0.930 1_545 S
C1234 C1233 1.369 1_565 S
C1234 C1243 1.429 1_565 S
C1235 C1233 1.419 . S
C1235 C1236 1.363 . S
C1235 H1238 0.929 . S
C1236 C1235 1.363 . S
C1236 C1242 1.428 . S
H1237 C1233 0.930 1_565 S
H1238 C1235 0.929 . S
S1239 N1240 1.613 1_545 S
S1239 N1241 1.610 . S
N1240 S1239 1.613 1_565 S
N1240 C1243 1.350 1_565 S
N1241 S1239 1.610 . S
N1241 C1242 1.351 . S
C1242 C1236 1.428 . S
C1242 N1241 1.351 . S
C1242 C1243 1.434 . S
C1243 C1234 1.429 1_545 S
C1243 N1240 1.350 1_545 S
C1243 C1242 1.434 . S
C1244 C1245 1.369 . S
C1244 C1246 1.419 . S
C1244 H1248 0.930 . S
C1245 C1244 1.369 . S
C1245 C1254 1.429 . S
C1246 C1244 1.419 . S
C1246 C1247 1.363 . S
C1246 H1249 0.929 . S
C1247 C1246 1.363 . S
C1247 C1253 1.428 . S
H1248 C1244 0.930 . S
H1249 C1246 0.929 . S
S1250 N1251 1.613 1_655 S
S1250 N1252 1.610 . S
N1251 S1250 1.613 1_455 S
N1251 C1254 1.350 1_455 S
N1252 S1250 1.610 . S
N1252 C1253 1.351 . S
C1253 C1247 1.428 . S
C1253 N1252 1.351 . S
C1253 C1254 1.434 . S
C1254 C1245 1.429 . S
C1254 N1251 1.350 1_655 S
C1254 C1253 1.434 . S
C1255 C1256 1.369 . S
C1255 C1257 1.419 . S
C1255 H1259 0.930 . S
C1256 C1255 1.369 . S
C1256 C1265 1.429 . S
C1257 C1255 1.419 . S
C1257 C1258 1.363 . S
C1257 H1260 0.929 . S
C1258 C1257 1.363 . S
C1258 C1264 1.428 . S
H1259 C1255 0.930 . S
H1260 C1257 0.929 . S
S1261 N1262 1.613 . S
S1261 N1263 1.610 . S
N1262 S1261 1.613 . S
N1262 C1265 1.350 . S
N1263 S1261 1.610 . S
N1263 C1264 1.351 . S
C1264 C1258 1.428 . S
C1264 N1263 1.351 . S
C1264 C1265 1.434 . S
C1265 C1256 1.429 . S
C1265 N1262 1.350 . S
C1265 C1264 1.434 . S
C1266 C1267 1.369 1_655 S
C1266 C1268 1.419 . S
C1266 H1270 0.930 1_655 S
C1267 C1266 1.369 1_455 S
C1267 C1276 1.429 1_455 S
C1268 C1266 1.419 . S
C1268 C1269 1.363 . S
C1268 H1271 0.929 . S
C1269 C1268 1.363 . S
C1269 C1275 1.428 . S
H1270 C1266 0.930 1_455 S
H1271 C1268 0.929 . S
S1272 N1273 1.613 . S
S1272 N1274 1.610 . S
N1273 S1272 1.613 . S
N1273 C1276 1.350 . S
N1274 S1272 1.610 . S
N1274 C1275 1.351 . S
C1275 C1269 1.428 . S
C1275 N1274 1.351 . S
C1275 C1276 1.434 . S
C1276 C1267 1.429 1_655 S
C1276 N1273 1.350 . S
C1276 C1275 1.434 . S
C1277 C1278 1.369 . S
C1277 C1279 1.419 . S
C1277 H1281 0.930 . S
C1278 C1277 1.369 . S
C1278 C1287 1.429 . S
C1279 C1277 1.419 . S
C1279 C1280 1.363 . S
C1279 H1282 0.929 . S
C1280 C1279 1.363 . S
C1280 C1286 1.428 . S
H1281 C1277 0.930 . S
H1282 C1279 0.929 . S
S1283 N1284 1.613 . S
S1283 N1285 1.610 . S
N1284 S1283 1.613 . S
N1284 C1287 1.350 . S
N1285 S1283 1.610 . S
N1285 C1286 1.351 . S
C1286 C1280 1.428 . S
C1286 N1285 1.351 . S
C1286 C1287 1.434 . S
C1287 C1278 1.429 . S
C1287 N1284 1.350 . S
C1287 C1286 1.434 . S
C1288 C1289 1.371 . S
C1288 C1290 1.408 1_565 S
C1288 H1292 0.939 . S
C1289 C1288 1.371 . S
C1289 C1298 1.429 1_565 S
C1290 C1288 1.408 1_545 S
C1290 C1291 1.363 . S
C1290 H1293 0.929 . S
C1291 C1290 1.363 . S
C1291 C1297 1.428 . S
H1292 C1288 0.939 . S
H1293 C1290 0.929 . S
S1294 N1295 1.613 1_545 S
S1294 N1296 1.610 . S
N1295 S1294 1.613 1_565 S
N1295 C1298 1.350 1_565 S
N1296 S1294 1.610 . S
N1296 C1297 1.351 . S
C1297 C1291 1.428 . S
C1297 N1296 1.351 . S
C1297 C1298 1.434 . S
C1298 C1289 1.429 1_545 S
C1298 N1295 1.350 1_545 S
C1298 C1297 1.434 . S
C1299 C1300 1.369 . S
C1299 C1301 1.419 . S
C1299 H1303 0.930 . S
C1300 C1299 1.369 . S
C1300 C1309 1.429 . S
C1301 C1299 1.419 . S
C1301 C1302 1.363 . S
C1301 H1304 0.929 . S
C1302 C1301 1.363 . S
C1302 C1308 1.428 . S
H1303 C1299 0.930 . S
H1304 C1301 0.929 . S
S1305 N1306 1.613 . S
S1305 N1307 1.610 . S
N1306 S1305 1.613 . S
N1306 C1309 1.350 . S
N1307 S1305 1.610 . S
N1307 C1308 1.351 . S
C1308 C1302 1.428 . S
C1308 N1307 1.351 . S
C1308 C1309 1.434 . S
C1309 C1300 1.429 . S
C1309 N1306 1.350 . S
C1309 C1308 1.434 . S
C1310 C1311 1.369 . S
C1310 C1312 1.419 . S
C1310 H1314 0.930 . S
C1311 C1310 1.369 . S
C1311 C1320 1.429 . S
C1312 C1310 1.419 . S
C1312 C1313 1.363 . S
C1312 H1315 0.929 . S
C1313 C1312 1.363 . S
C1313 C1319 1.428 . S
H1314 C1310 0.930 . S
H1315 C1312 0.929 . S
S1316 N1317 1.613 . S
S1316 N1318 1.610 . S
N1317 S1316 1.613 . S
N1317 C1320 1.350 . S
N1318 S1316 1.610 . S
N1318 C1319 1.351 . S
C1319 C1313 1.428 . S
C1319 N1318 1.351 . S
C1319 C1320 1.434 . S
C1320 C1311 1.429 . S
C1320 N1317 1.350 . S
C1320 C1319 1.434 . S
C1321 C1322 1.369 . S
C1321 C1323 1.419 . S
C1321 H1325 0.930 . S
C1322 C1321 1.369 . S
C1322 C1331 1.429 . S
C1323 C1321 1.419 . S
C1323 C1324 1.363 . S
C1323 H1326 0.929 . S
C1324 C1323 1.363 . S
C1324 C1330 1.428 . S
H1325 C1321 0.930 . S
H1326 C1323 0.929 . S
S1327 N1328 1.613 . S
S1327 N1329 1.610 . S
N1328 S1327 1.613 . S
N1328 C1331 1.350 . S
N1329 S1327 1.610 . S
N1329 C1330 1.351 . S
C1330 C1324 1.428 . S
C1330 N1329 1.351 . S
C1330 C1331 1.434 . S
C1331 C1322 1.429 . S
C1331 N1328 1.350 . S
C1331 C1330 1.434 . S
C1332 C1333 1.369 . S
C1332 C1334 1.419 . S
C1332 H1336 0.930 . S
C1333 C1332 1.369 . S
C1333 C1342 1.429 . S
C1334 C1332 1.419 . S
C1334 C1335 1.363 . S
C1334 H1337 0.929 . S
C1335 C1334 1.363 . S
C1335 C1341 1.428 1_565 S
H1336 C1332 0.930 . S
H1337 C1334 0.929 . S
S1338 N1339 1.613 . S
S1338 N1340 1.610 . S
N1339 S1338 1.613 . S
N1339 C1342 1.350 1_545 S
N1340 S1338 1.610 . S
N1340 C1341 1.351 . S
C1341 C1335 1.428 1_545 S
C1341 N1340 1.351 . S
C1341 C1342 1.434 1_545 S
C1342 C1333 1.429 . S
C1342 N1339 1.350 1_565 S
C1342 C1341 1.434 1_565 S
C1343 C1344 1.369 . S
C1343 C1345 1.419 . S
C1343 H1347 0.930 . S
C1344 C1343 1.369 . S
C1344 C1353 1.429 1_455 S
C1345 C1343 1.419 . S
C1345 C1346 1.363 . S
C1345 H1348 0.929 . S
C1346 C1345 1.363 . S
C1346 C1352 1.428 1_455 S
H1347 C1343 0.930 . S
H1348 C1345 0.929 . S
S1349 N1350 1.613 . S
S1349 N1351 1.610 . S
N1350 S1349 1.613 . S
N1350 C1353 1.350 . S
N1351 S1349 1.610 . S
N1351 C1352 1.351 . S
C1352 C1346 1.428 1_655 S
C1352 N1351 1.351 . S
C1352 C1353 1.434 . S
C1353 C1344 1.429 1_655 S
C1353 N1350 1.350 . S
C1353 C1352 1.434 . S
C1354 C1355 1.369 . S
C1354 C1356 1.419 . S
C1354 H1358 0.930 . S
C1355 C1354 1.369 . S
C1355 C1364 1.429 . S
C1356 C1354 1.419 . S
C1356 C1357 1.363 . S
C1356 H1359 0.929 . S
C1357 C1356 1.363 . S
C1357 C1363 1.428 . S
H1358 C1354 0.930 . S
H1359 C1356 0.929 . S
S1360 N1361 1.613 . S
S1360 N1362 1.610 . S
N1361 S1360 1.613 . S
N1361 C1364 1.350 . S
N1362 S1360 1.610 . S
N1362 C1363 1.351 . S
C1363 C1357 1.428 . S
C1363 N1362 1.351 . S
C1363 C1364 1.434 . S
C1364 C1355 1.429 . S
C1364 N1361 1.350 . S
C1364 C1363 1.434 . S
C1365 C1366 1.369 . S
C1365 C1367 1.419 . S
C1365 H1369 0.930 1_655 S
C1366 C1365 1.369 . S
C1366 C1375 1.429 . S
C1367 C1365 1.419 . S
C1367 C1368 1.363 . S
C1367 H1370 0.920 . S
C1368 C1367 1.363 . S
C1368 C1374 1.428 . S
H1369 C1365 0.930 1_455 S
H1370 C1367 0.920 . S
S1371 N1372 1.613 . S
S1371 N1373 1.610 . S
N1372 S1371 1.613 . S
N1372 C1375 1.350 . S
N1373 S1371 1.610 . S
N1373 C1374 1.351 . S
C1374 C1368 1.428 . S
C1374 N1373 1.351 . S
C1374 C1375 1.434 . S
C1375 C1366 1.429 . S
C1375 N1372 1.350 . S
C1375 C1374 1.434 . S
C1376 C1377 1.369 . S
C1376 C1378 1.419 . S
C1376 H1380 0.930 . S
C1377 C1376 1.369 . S
C1377 C1386 1.429 . S
C1378 C1376 1.419 . S
C1378 C1379 1.363 . S
C1378 H1381 0.929 . S
C1379 C1378 1.363 . S
C1379 C1385 1.428 . S
H1380 C1376 0.930 . S
H1381 C1378 0.929 . S
S1382 N1383 1.613 . S
S1382 N1384 1.610 . S
N1383 S1382 1.613 . S
N1383 C1386 1.350 . S
N1384 S1382 1.610 . S
N1384 C1385 1.351 . S
C1385 C1379 1.428 . S
C1385 N1384 1.351 . S
C1385 C1386 1.434 . S
C1386 C1377 1.429 . S
C1386 N1383 1.350 . S
C1386 C1385 1.434 . S
C1387 C1388 1.369 . S
C1387 C1389 1.419 . S
C1387 H1391 0.930 . S
C1388 C1387 1.369 . S
C1388 C1397 1.464 . S
C1389 C1387 1.419 . S
C1389 C1390 1.363 . S
C1389 H1392 0.929 . S
C1390 C1389 1.363 . S
C1390 C1396 1.428 1_545 S
H1391 C1387 0.930 . S
H1392 C1389 0.929 . S
S1393 N1394 1.613 . S
S1393 N1395 1.610 . S
N1394 S1393 1.613 . S
N1394 C1397 1.326 1_565 S
N1395 S1393 1.610 . S
N1395 C1396 1.351 . S
C1396 C1390 1.428 1_565 S
C1396 N1395 1.351 . S
C1396 C1397 1.421 1_565 S
C1397 C1388 1.464 . S
C1397 N1394 1.326 1_545 S
C1397 C1396 1.421 1_545 S
C1398 C1399 1.369 . S
C1398 C1400 1.419 . S
C1398 H1402 0.930 . S
C1399 C1398 1.369 . S
C1399 C1408 1.429 . S
C1400 C1398 1.419 . S
C1400 C1401 1.363 . S
C1400 H1403 0.929 . S
C1401 C1400 1.363 . S
C1401 C1407 1.428 . S
H1402 C1398 0.930 . S
H1403 C1400 0.929 . S
S1404 N1405 1.613 . S
S1404 N1406 1.610 . S
N1405 S1404 1.613 . S
N1405 C1408 1.350 . S
N1406 S1404 1.610 . S
N1406 C1407 1.351 . S
C1407 C1401 1.428 . S
C1407 N1406 1.351 . S
C1407 C1408 1.434 . S
C1408 C1399 1.429 . S
C1408 N1405 1.350 . S
C1408 C1407 1.434 . S
C1409 C1410 1.369 . S
C1409 C1411 1.419 . S
C1409 H1413 0.930 . S
C1410 C1409 1.369 . S
C1410 C1419 1.429 . S
C1411 C1409 1.419 . S
C1411 C1412 1.363 . S
C1411 H1414 0.929 . S
C1412 C1411 1.363 . S
C1412 C1418 1.428 . S
H1413 C1409 0.930 . S
H1414 C1411 0.929 . S
S1415 N1416 1.613 . S
S1415 N1417 1.610 . S
N1416 S1415 1.613 . S
N1416 C1419 1.350 . S
N1417 S1415 1.610 . S
N1417 C1418 1.351 . S
C1418 C1412 1.428 . S
C1418 N1417 1.351 . S
C1418 C1419 1.434 . S
C1419 C1410 1.429 . S
C1419 N1416 1.350 . S
C1419 C1418 1.434 . S
C1420 C1421 1.369 . S
C1420 C1422 1.419 . S
C1420 H1424 0.930 . S
C1421 C1420 1.369 . S
C1421 C1430 1.429 . S
C1422 C1420 1.419 . S
C1422 C1423 1.363 . S
C1422 H1425 0.929 . S
C1423 C1422 1.363 . S
C1423 C1429 1.428 . S
H1424 C1420 0.930 . S
H1425 C1422 0.929 . S
S1426 N1427 1.613 . S
S1426 N1428 1.610 . S
N1427 S1426 1.613 . S
N1427 C1430 1.350 . S
N1428 S1426 1.610 . S
N1428 C1429 1.351 . S
C1429 C1423 1.428 . S
C1429 N1428 1.351 . S
C1429 C1430 1.434 . S
C1430 C1421 1.429 . S
C1430 N1427 1.350 . S
C1430 C1429 1.434 . S
C1431 C1432 1.369 . S
C1431 C1433 1.419 . S
C1431 H1435 0.930 . S
C1432 C1431 1.369 . S
C1432 C1441 1.429 . S
C1433 C1431 1.419 . S
C1433 C1434 1.363 . S
C1433 H1436 0.929 . S
C1434 C1433 1.363 . S
C1434 C1440 1.428 . S
H1435 C1431 0.930 . S
H1436 C1433 0.929 . S
S1437 N1438 1.613 . S
S1437 N1439 1.610 . S
N1438 S1437 1.613 . S
N1438 C1441 1.350 . S
N1439 S1437 1.610 . S
N1439 C1440 1.351 . S
C1440 C1434 1.428 . S
C1440 N1439 1.351 . S
C1440 C1441 1.434 . S
C1441 C1432 1.429 . S
C1441 N1438 1.350 . S
C1441 C1440 1.434 . S
C1442 C1443 1.369 . S
C1442 C1444 1.419 . S
C1442 H1446 0.930 . S
C1443 C1442 1.369 . S
C1443 C1452 1.429 . S
C1444 C1442 1.419 . S
C1444 C1445 1.363 . S
C1444 H1447 0.929 . S
C1445 C1444 1.363 . S
C1445 C1451 1.428 . S
H1446 C1442 0.930 . S
H1447 C1444 0.929 . S
S1448 N1449 1.613 . S
S1448 N1450 1.610 . S
N1449 S1448 1.613 . S
N1449 C1452 1.350 . S
N1450 S1448 1.610 . S
N1450 C1451 1.351 . S
C1451 C1445 1.428 . S
C1451 N1450 1.351 . S
C1451 C1452 1.434 . S
C1452 C1443 1.429 . S
C1452 N1449 1.350 . S
C1452 C1451 1.434 . S
C1453 C1454 1.369 . S
C1453 C1455 1.419 . S
C1453 H1457 0.930 . S
C1454 C1453 1.369 . S
C1454 C1463 1.429 . S
C1455 C1453 1.419 . S
C1455 C1456 1.363 . S
C1455 H1458 0.929 . S
C1456 C1455 1.363 . S
C1456 C1462 1.428 . S
H1457 C1453 0.930 . S
H1458 C1455 0.929 . S
S1459 N1460 1.613 . S
S1459 N1461 1.610 . S
N1460 S1459 1.613 . S
N1460 C1463 1.350 . S
N1461 S1459 1.610 . S
N1461 C1462 1.351 . S
C1462 C1456 1.428 . S
C1462 N1461 1.351 . S
C1462 C1463 1.434 . S
C1463 C1454 1.429 . S
C1463 N1460 1.350 . S
C1463 C1462 1.434 . S
C1464 C1465 1.369 . S
C1464 C1466 1.419 . S
C1464 H1468 0.930 . S
C1465 C1464 1.369 . S
C1465 C1474 1.429 . S
C1466 C1464 1.419 . S
C1466 C1467 1.363 . S
C1466 H1469 0.929 . S
C1467 C1466 1.363 . S
C1467 C1473 1.428 . S
H1468 C1464 0.930 . S
H1469 C1466 0.929 . S
S1470 N1471 1.613 . S
S1470 N1472 1.610 . S
N1471 S1470 1.613 . S
N1471 C1474 1.350 . S
N1472 S1470 1.610 . S
N1472 C1473 1.351 . S
C1473 C1467 1.428 . S
C1473 N1472 1.351 . S
C1473 C1474 1.434 . S
C1474 C1465 1.429 . S
C1474 N1471 1.350 . S
C1474 C1473 1.434 . S
C1475 C1476 1.369 . S
C1475 C1477 1.419 . S
C1475 H1479 0.930 . S
C1476 C1475 1.369 . S
C1476 C1485 1.429 . S
C1477 C1475 1.419 . S
C1477 C1478 1.363 . S
C1477 H1480 0.929 . S
C1478 C1477 1.363 . S
C1478 C1484 1.428 . S
H1479 C1475 0.930 . S
H1480 C1477 0.929 . S
S1481 N1482 1.613 . S
S1481 N1483 1.610 . S
N1482 S1481 1.613 . S
N1482 C1485 1.350 . S
N1483 S1481 1.610 . S
N1483 C1484 1.351 . S
C1484 C1478 1.428 . S
C1484 N1483 1.351 . S
C1484 C1485 1.434 . S
C1485 C1476 1.429 . S
C1485 N1482 1.350 . S
C1485 C1484 1.434 . S
C1486 C1487 1.369 . S
C1486 C1488 1.419 . S
C1486 H1490 0.930 . S
C1487 C1486 1.369 . S
C1487 C1496 1.429 . S
C1488 C1486 1.419 . S
C1488 C1489 1.363 . S
C1488 H1491 0.929 . S
C1489 C1488 1.363 . S
C1489 C1495 1.428 . S
H1490 C1486 0.930 . S
H1491 C1488 0.929 . S
S1492 N1493 1.613 . S
S1492 N1494 1.610 . S
N1493 S1492 1.613 . S
N1493 C1496 1.350 . S
N1494 S1492 1.610 . S
N1494 C1495 1.351 . S
C1495 C1489 1.428 . S
C1495 N1494 1.351 . S
C1495 C1496 1.434 . S
C1496 C1487 1.429 . S
C1496 N1493 1.350 . S
C1496 C1495 1.434 . S
C1497 C1498 1.369 . S
C1497 C1499 1.419 . S
C1497 H1501 0.930 . S
C1498 C1497 1.369 . S
C1498 C1507 1.429 . S
C1499 C1497 1.419 . S
C1499 C1500 1.363 . S
C1499 H1502 0.929 . S
C1500 C1499 1.363 . S
C1500 C1506 1.428 . S
H1501 C1497 0.930 . S
H1502 C1499 0.929 . S
S1503 N1504 1.613 . S
S1503 N1505 1.610 . S
N1504 S1503 1.613 . S
N1504 C1507 1.350 . S
N1505 S1503 1.610 . S
N1505 C1506 1.351 . S
C1506 C1500 1.428 . S
C1506 N1505 1.351 . S
C1506 C1507 1.434 . S
C1507 C1498 1.429 . S
C1507 N1504 1.350 . S
C1507 C1506 1.434 . S
C1508 C1509 1.369 . S
C1508 C1510 1.419 . S
C1508 H1512 0.930 . S
C1509 C1508 1.369 . S
C1509 C1518 1.429 . S
C1510 C1508 1.419 . S
C1510 C1511 1.363 . S
C1510 H1513 0.929 . S
C1511 C1510 1.363 . S
C1511 C1517 1.428 . S
H1512 C1508 0.930 . S
H1513 C1510 0.929 . S
S1514 N1515 1.613 . S
S1514 N1516 1.610 . S
N1515 S1514 1.613 . S
N1515 C1518 1.350 . S
N1516 S1514 1.610 . S
N1516 C1517 1.351 . S
C1517 C1511 1.428 . S
C1517 N1516 1.351 . S
C1517 C1518 1.434 . S
C1518 C1509 1.429 . S
C1518 N1515 1.350 . S
C1518 C1517 1.434 . S
C1519 C1520 1.369 . S
C1519 C1521 1.419 . S
C1519 H1523 0.930 . S
C1520 C1519 1.369 . S
C1520 C1529 1.429 . S
C1521 C1519 1.419 . S
C1521 C1522 1.363 . S
C1521 H1524 0.929 . S
C1522 C1521 1.363 . S
C1522 C1528 1.428 . S
H1523 C1519 0.930 . S
H1524 C1521 0.929 . S
S1525 N1526 1.613 . S
S1525 N1527 1.610 . S
N1526 S1525 1.613 . S
N1526 C1529 1.350 . S
N1527 S1525 1.610 . S
N1527 C1528 1.351 . S
C1528 C1522 1.428 . S
C1528 N1527 1.351 . S
C1528 C1529 1.434 . S
C1529 C1520 1.429 . S
C1529 N1526 1.350 . S
C1529 C1528 1.434 . S
C937 C439 1.521 . S
C939 C579 1.670 . S
C948 C465 1.796 . S
C950 C619 1.779 . S
C959 C401 1.766 . S
C961 C671 1.728 . S
C970 C369 1.613 . S
C972 C631 1.571 . S
C983 C659 1.546 . S
C981 C305 1.545 . S
C992 C343 1.323 . S
C994 C591 1.500 . S
C1005 C598 1.696 . S
C1003 C375 1.726 . S
C1016 C638 1.750 . S
C1014 C311 1.766 . S
C1025 C337 1.600 . S
C1027 C658 1.730 . S
C1036 C433 1.470 . S
C1038 C618 1.575 . S
C1047 C471 1.519 . S
C1049 C678 1.512 . S
C1060 C578 1.518 . S
C1058 C407 1.539 . S
C1071 C699 1.667 . S
C1069 C55 1.527 . S
C1080 C81 1.796 . S
C1082 C739 1.779 . S
C1091 C17 1.768 . S
C1093 C791 1.728 . S
C1102 C561 1.613 . S
C1104 C751 1.571 . S
C1113 C497 1.545 . S
C1115 C779 1.547 . S
C1124 C535 1.331 . S
C1126 C711 1.479 . S
C1135 C567 1.725 . S
C1137 C718 1.699 . S
C1146 C503 1.766 . S
C1148 C758 1.749 . S
C1159 C778 1.731 . S
C1157 C529 1.597 . S
C1168 C49 1.479 . S
C1170 C738 1.570 . S
C1181 C798 1.514 . S
C1179 C87 1.520 1_455 S
C1190 C23 1.537 . S
C1192 C698 1.518 . S
C1203 C819 1.666 . S
C1201 C247 1.531 . S
C1212 C273 1.796 . S
C1214 C859 1.780 . S
C1225 C911 1.726 . S
C1223 C209 1.769 . S
C1236 C871 1.570 . S
C1234 C177 1.612 . S
C1247 C899 1.548 . S
C1245 C113 1.545 1_655 S
C1256 C151 1.318 . S
C1258 C831 1.485 . S
C1267 C183 1.726 . S
C1269 C838 1.698 . S
C1278 C119 1.766 . S
C1280 C878 1.748 . S
C1291 C898 1.731 . S
C1289 C145 1.597 . S
C1300 C241 1.471 . S
C1302 C858 1.576 . S
C1311 C279 1.518 . S
C1313 C918 1.515 . S
C1322 C215 1.541 . S
C1324 C818 1.515 . S
C1333 C509 1.406 . S
C1335 C602 1.419 . S
C1346 C642 1.756 . S
C1344 C541 1.668 . S
C1355 C573 1.560 . S
C1357 C665 1.556 . S
C1366 C221 1.821 . S
C1368 C625 1.774 . S
C1377 C253 1.465 . S
C1379 C682 1.533 . S
C1390 C585 1.417 . S
C1388 C285 1.396 . S
C1399 C125 1.411 . S
C1401 C722 1.418 . S
C1410 C157 1.667 . S
C1412 C762 1.755 . S
C1421 C189 1.561 . S
C1423 C785 1.555 . S
C1432 C413 1.819 . S
C1434 C745 1.775 . S
C1445 C802 1.531 . S
C1443 C445 1.468 . S
C1454 C477 1.395 . S
C1456 C705 1.418 . S
C1465 C317 1.413 . S
C1467 C842 1.421 . S
C1476 C349 1.664 . S
C1478 C882 1.756 . S
C1489 C905 1.555 . S
C1487 C381 1.559 . S
C1498 C29 1.821 . S
C1500 C865 1.774 . S
C1509 C61 1.461 . S
C1511 C922 1.533 . S
C1520 C93 1.404 . S
C1522 C825 1.415 . S
