# Generated by pormake.
# Topology pyr, (3,6)-cn, num edge types: 1
# Building blocks:
#     Node 0, Type 0, BuildingBlock: BETDIP_clean_linker_0, # of connection points: 3
#     Node 1, Type 0, BuildingBlock: BETDIP_clean_linker_0, # of connection points: 3
#     Node 2, Type 0, BuildingBlock: BETDIP_clean_linker_0, # of connection points: 3
#     Node 3, Type 0, BuildingBlock: BETDIP_clean_linker_0, # of connection points: 3
#     Node 4, Type 0, BuildingBlock: BETDIP_clean_linker_0, # of connection points: 3
#     Node 5, Type 0, BuildingBlock: BETDIP_clean_linker_0, # of connection points: 3
#     Node 6, Type 0, BuildingBlock: BETDIP_clean_linker_0, # of connection points: 3
#     Node 7, Type 0, BuildingBlock: BETDIP_clean_linker_0, # of connection points: 3
#     Node 8, Type 1, BuildingBlock: FUNLAD_clean_sbu_0, # of connection points: 6
#     Node 9, Type 1, BuildingBlock: FUNLAD_clean_sbu_0, # of connection points: 6
#     Node 10, Type 1, BuildingBlock: FUNLAD_clean_sbu_0, # of connection points: 6
#     Node 11, Type 1, BuildingBlock: FUNLAD_clean_sbu_0, # of connection points: 6
#     Edge 12, Type (0, 1), BuildingBlock: KIFKEQ_clean_linker_1, # of connection points: 2
#     Edge 13, Type (0, 1), BuildingBlock: KIFKEQ_clean_linker_1, # of connection points: 2
#     Edge 14, Type (0, 1), BuildingBlock: KIFKEQ_clean_linker_1, # of connection points: 2
#     Edge 15, Type (0, 1), BuildingBlock: KIFKEQ_clean_linker_1, # of connection points: 2
#     Edge 16, Type (0, 1), BuildingBlock: KIFKEQ_clean_linker_1, # of connection points: 2
#     Edge 17, Type (0, 1), BuildingBlock: KIFKEQ_clean_linker_1, # of connection points: 2
#     Edge 18, Type (0, 1), BuildingBlock: KIFKEQ_clean_linker_1, # of connection points: 2
#     Edge 19, Type (0, 1), BuildingBlock: KIFKEQ_clean_linker_1, # of connection points: 2
#     Edge 20, Type (0, 1), BuildingBlock: KIFKEQ_clean_linker_1, # of connection points: 2
#     Edge 21, Type (0, 1), BuildingBlock: KIFKEQ_clean_linker_1, # of connection points: 2
#     Edge 22, Type (0, 1), BuildingBlock: KIFKEQ_clean_linker_1, # of connection points: 2
#     Edge 23, Type (0, 1), BuildingBlock: KIFKEQ_clean_linker_1, # of connection points: 2
#     Edge 24, Type (0, 1), BuildingBlock: KIFKEQ_clean_linker_1, # of connection points: 2
#     Edge 25, Type (0, 1), BuildingBlock: KIFKEQ_clean_linker_1, # of connection points: 2
#     Edge 26, Type (0, 1), BuildingBlock: KIFKEQ_clean_linker_1, # of connection points: 2
#     Edge 27, Type (0, 1), BuildingBlock: KIFKEQ_clean_linker_1, # of connection points: 2
#     Edge 28, Type (0, 1), BuildingBlock: KIFKEQ_clean_linker_1, # of connection points: 2
#     Edge 29, Type (0, 1), BuildingBlock: KIFKEQ_clean_linker_1, # of connection points: 2
#     Edge 30, Type (0, 1), BuildingBlock: KIFKEQ_clean_linker_1, # of connection points: 2
#     Edge 31, Type (0, 1), BuildingBlock: KIFKEQ_clean_linker_1, # of connection points: 2
#     Edge 32, Type (0, 1), BuildingBlock: KIFKEQ_clean_linker_1, # of connection points: 2
#     Edge 33, Type (0, 1), BuildingBlock: KIFKEQ_clean_linker_1, # of connection points: 2
#     Edge 34, Type (0, 1), BuildingBlock: KIFKEQ_clean_linker_1, # of connection points: 2
#     Edge 35, Type (0, 1), BuildingBlock: KIFKEQ_clean_linker_1, # of connection points: 2
# Relax obj value: 0.196
# Max RMSD: 0.198
# Mean RMSD: 0.134
data_MOF--net-pry--node1-FUNLAD_clean_sbu_0--node2-BETDIP_clean_linker_0--edge1-KIFKEQ_clean_linker_1
_symmetry_space_group_name_H-M    P1
_symmetry_Int_Tables_number       1
_symmetry_cell_setting            triclinic
loop_
_symmetry_equiv_pos_as_xyz
'x, y, z'
_cell_length_a     35.270289
_cell_length_b     37.00738
_cell_length_c     38.777985
_cell_angle_alpha  93.859555
_cell_angle_beta   85.897452
_cell_angle_gamma 88.285073
loop_
_atom_site_label
_atom_site_type_symbol
_atom_site_fract_x
_atom_site_fract_y
_atom_site_fract_z
_atom_type_partial_charge
H0 H 0.10252 0.19903 0.2624 0.0
H1 H 0.18735 0.19451 0.17657 0.0
H2 H 0.19288 0.11701 0.2536 0.0
H3 H 0.17583 0.25402 0.1798 0.0
C4 C 0.14512 0.25693 0.18437 0.0
C5 C 0.12782 0.18636 0.24864 0.0
C6 C 0.14566 0.15599 0.26175 0.0
C7 C 0.14335 0.20143 0.21857 0.0
C8 C 0.17613 0.18464 0.20074 0.0
C9 C 0.19427 0.15433 0.21318 0.0
C10 C 0.17888 0.14024 0.24374 0.0
N11 N 0.12562 0.23312 0.20657 0.0
H12 H 0.34932 0.92571 0.75759 0.0
H13 H 0.36011 0.84989 0.66935 0.0
H14 H 0.44401 0.848 0.74504 0.0
H15 H 0.34047 0.90751 0.64518 0.0
C16 C 0.3156 0.9117 0.66343 0.0
C17 C 0.36538 0.90362 0.743 0.0
C18 C 0.39876 0.88904 0.75549 0.0
C19 C 0.35243 0.8905 0.71145 0.0
C20 C 0.37176 0.86098 0.69271 0.0
C21 C 0.40471 0.84485 0.70452 0.0
C22 C 0.41811 0.85929 0.73607 0.0
N23 N 0.31946 0.90704 0.69917 0.0
H24 H 0.678 0.4932 0.95579 0.0
H25 H 0.58016 0.4319 0.98101 0.0
H26 H 0.67259 0.43188 0.04681 0.0
H27 H 0.57827 0.42539 0.92534 0.0
C28 C 0.58792 0.45032 0.91499 0.0
C29 C 0.66267 0.47664 0.97369 0.0
C30 C 0.67966 0.46523 1.00311 0.0
C31 C 0.62714 0.46434 0.96533 0.0
C32 C 0.60756 0.44157 0.98736 0.0
C33 C 0.62442 0.42856 1.01595 0.0
C34 C 0.65989 0.44151 1.02437 0.0
N35 N 0.61347 0.47242 0.933 0.0
H36 H 0.88547 0.52167 0.48826 0.0
H37 H 0.97545 0.59655 0.47426 0.0
H38 H 0.86102 0.63683 0.50065 0.0
H39 H 0.01887 0.51434 0.45642 0.0
C40 C 0.99205 0.52624 0.44987 0.0
C41 C 0.89482 0.54929 0.48804 0.0
C42 C 0.86837 0.5785 0.49502 0.0
C43 C 0.93338 0.55562 0.48031 0.0
C44 C 0.94561 0.59138 0.47972 0.0
C45 C 0.9196 0.62054 0.48757 0.0
C46 C 0.88114 0.61405 0.49527 0.0
N47 N 0.9598 0.52581 0.47397 0.0
H48 H 0.83257 0.87572 0.92356 0.0
H49 H 0.92325 0.87688 0.84361 0.0
H50 H 0.82656 0.95161 0.84505 0.0
H51 H 0.95341 0.83695 0.87557 0.0
C52 C 0.93381 0.82756 0.89562 0.0
C53 C 0.84475 0.88697 0.90032 0.0
C54 C 0.82552 0.91549 0.88622 0.0
C55 C 0.87988 0.87297 0.8856 0.0
C56 C 0.89617 0.88757 0.85537 0.0
C57 C 0.87724 0.91637 0.84036 0.0
C58 C 0.84198 0.93017 0.85639 0.0
N59 N 0.89685 0.84407 0.90241 0.0
H60 H 0.66569 0.13973 0.33689 0.0
H61 H 0.6598 0.22769 0.41458 0.0
H62 H 0.57628 0.2223 0.33895 0.0
H63 H 0.68606 0.18689 0.44637 0.0
C64 C 0.70552 0.1706 0.42823 0.0
C65 C 0.65112 0.16421 0.34856 0.0
C66 C 0.61926 0.17889 0.33362 0.0
C67 C 0.66484 0.18072 0.37853 0.0
C68 C 0.64757 0.21353 0.39301 0.0
C69 C 0.61543 0.22897 0.3792 0.0
C70 C 0.60147 0.21129 0.3494 0.0
N71 N 0.69642 0.16399 0.39316 0.0
H72 H 0.38976 0.52445 0.10788 0.0
H73 H 0.4829 0.59482 0.12186 0.0
H74 H 0.37056 0.64042 0.11571 0.0
H75 H 0.52255 0.50989 0.1206 0.0
C76 C 0.49707 0.52391 0.13279 0.0
C77 C 0.40015 0.55162 0.11123 0.0
C78 C 0.37492 0.58192 0.112 0.0
C79 C 0.43886 0.55608 0.11551 0.0
C80 C 0.45278 0.59115 0.11966 0.0
C81 C 0.42814 0.6216 0.12012 0.0
C82 C 0.38929 0.6168 0.11661 0.0
N83 N 0.46381 0.52507 0.11417 0.0
H84 H 0.04497 0.47335 0.61383 0.0
H85 H 0.13678 0.54599 0.60085 0.0
H86 H 0.15437 0.43289 0.56877 0.0
H87 H 0.10137 0.58332 0.64179 0.0
C88 C 0.07912 0.56597 0.65108 0.0
C89 C 0.0739 0.47819 0.6043 0.0
C90 C 0.09781 0.44917 0.59008 0.0
C91 C 0.08782 0.51302 0.60853 0.0
C92 C 0.12579 0.51907 0.5976 0.0
C93 C 0.14995 0.49041 0.58286 0.0
C94 C 0.13556 0.45552 0.57869 0.0
N95 N 0.06428 0.54067 0.62696 0.0
C96 C 0.04266 0.05514 0.48612 0.0
N97 N 0.02208 0.11432 0.58185 0.0
C98 C 0.0578 0.12695 0.57705 0.0
C99 C 0.06442 0.16353 0.58433 0.0
C100 C 0.03386 0.18738 0.59588 0.0
C101 C 0.99761 0.17354 0.602 0.0
C102 C 0.99239 0.13656 0.59514 0.0
Zn103 Zn 0.01233 0.06322 0.56188 0.0
C104 C 0.93871 0.06218 0.52673 0.0
N105 N 0.99185 0.95845 0.51582 0.0
C106 C 0.02098 0.93531 0.50303 0.0
C107 C 0.9555 0.94719 0.51912 0.0
C108 C 0.94749 0.9112 0.51069 0.0
C109 C 0.97727 0.88602 0.49979 0.0
C110 C 0.01435 0.89874 0.49506 0.0
Zn111 Zn 1.00209 1.00936 0.53602 0.0
O112 O 0.03943 0.07661 0.51329 0.0
C113 C 0.07577 1.01067 0.57091 0.0
O114 O 0.02991 1.02337 0.48763 0.0
H115 H 0.93272 0.96575 0.52969 0.0
H116 H 0.08088 0.10907 0.56583 0.0
H117 H 0.04968 0.94479 0.50052 0.0
O118 O 0.06532 0.04369 0.57777 0.0
O119 O 0.05483 0.99001 0.55359 0.0
H120 H 0.96424 0.126 0.59883 0.0
O121 O 0.9744 0.9961 0.58461 0.0
O122 O 0.98538 0.04882 0.61054 0.0
O123 O 0.94973 0.02948 0.51892 0.0
O124 O 0.95902 0.08226 0.54527 0.0
C125 C 0.9722 1.01721 0.61206 0.0
H126 H 0.09269 0.17345 0.57899 0.0
H127 H 0.97345 0.19132 0.61099 0.0
H128 H 0.9183 0.90305 0.51384 0.0
H129 H 0.03833 0.88044 0.48696 0.0
C130 C 0.57838 1.0057 1.01869 0.0
N131 N 0.51879 0.10592 1.02115 0.0
C132 C 0.55486 0.11738 1.02368 0.0
C133 C 0.56297 0.15357 1.0209 0.0
C134 C 0.53363 0.17868 1.01623 0.0
C135 C 0.49677 0.1663 1.01265 0.0
C136 C 0.48997 0.1294 1.01492 0.0
Zn137 Zn 0.50947 0.05498 0.03666 0.0
C138 C 0.47777 1.00398 0.98553 0.0
N139 N 0.4959 0.95184 0.07697 0.0
C140 C 0.52288 0.93556 0.09466 0.0
C141 C 0.46405 0.93443 0.0686 0.0
C142 C 0.45911 0.89871 0.07676 0.0
C143 C 0.48692 0.88098 0.09417 0.0
C144 C 0.51875 0.89994 0.10387 0.0
Zn145 Zn 0.50371 1.00198 0.05963 0.0
O146 O 0.56388 0.03658 1.01385 0.0
C147 C 0.53594 0.05345 0.11021 0.0
O148 O 0.55983 0.98502 0.03814 0.0
H149 H 0.44281 0.94797 0.05483 0.0
H150 H 0.5772 0.09899 1.03012 0.0
H151 H 0.54806 0.9499 0.10088 0.0
O152 O 0.53308 0.07238 0.08431 0.0
O153 O 0.52562 1.02077 0.10786 0.0
H154 H 0.46138 0.11993 1.01347 0.0
O155 O 0.44793 1.01929 0.08113 0.0
O156 O 0.45441 0.0721 0.05942 0.0
O157 O 0.48182 0.98412 1.01072 0.0
O158 O 0.48618 0.03723 0.98905 0.0
C159 C 0.43465 0.05102 0.07742 0.0
H160 H 0.59161 0.16216 1.0245 0.0
H161 H 0.47344 0.18504 1.00902 0.0
H162 H 0.43403 0.88491 0.06919 0.0
H163 H 0.54081 0.88691 0.1172 0.0
C164 C 0.52249 0.47214 0.49938 0.0
N165 N 0.5201 0.51207 0.60383 0.0
C166 C 0.5049 0.48133 0.61536 0.0
C167 C 0.51177 0.47077 0.64838 0.0
C168 C 0.53466 0.49199 0.66933 0.0
C169 C 0.54983 0.5235 0.65667 0.0
C170 C 0.54214 0.53308 0.6238 0.0
Zn171 Zn 0.51103 0.52961 0.55649 0.0
C172 C 0.58438 0.55408 0.52293 0.0
N173 N 0.49636 0.57105 0.45803 0.0
C174 C 0.4709 0.55339 0.4388 0.0
C175 C 0.51944 0.59596 0.44403 0.0
C176 C 0.51902 0.60221 0.40887 0.0
C177 C 0.49387 0.58337 0.38842 0.0
C178 C 0.46882 0.55957 0.40393 0.0
Zn179 Zn 0.50416 0.55352 0.50619 0.0
O180 O 0.52243 0.47642 0.53222 0.0
C181 C 0.43106 0.52804 0.54054 0.0
O182 O 0.51542 0.4995 0.48235 0.0
H183 H 0.53951 0.60973 0.45964 0.0
H184 H 0.48744 0.4651 0.59899 0.0
H185 H 0.45349 0.53298 0.44991 0.0
O186 O 0.45306 0.5189 0.56322 0.0
O187 O 0.44474 0.54322 0.51415 0.0
H188 H 0.55371 0.55756 0.61432 0.0
O189 O 0.49354 0.60761 0.53097 0.0
O190 O 0.49883 0.58282 0.58025 0.0
O191 O 0.56334 0.56289 0.4994 0.0
O192 O 0.56949 0.54024 0.54948 0.0
C193 C 0.49256 0.61083 0.56399 0.0
H194 H 0.49967 0.44619 0.65727 0.0
H195 H 0.56699 0.54099 0.67225 0.0
H196 H 0.53884 0.62067 0.39755 0.0
H197 H 0.4495 0.54414 0.38871 0.0
C198 C 1.01037 0.61159 1.02688 0.0
N199 N 0.99774 0.56979 0.12678 0.0
C200 C 0.01761 0.59371 0.14603 0.0
C201 C 0.01195 0.59637 0.18221 0.0
C202 C 0.98493 0.57483 0.19872 0.0
C203 C 0.96226 0.55325 0.17786 0.0
C204 C 0.96971 0.55049 0.14203 0.0
Zn205 Zn 0.01554 0.55475 0.07599 0.0
C206 C 0.95206 0.52491 0.03662 0.0
N207 N 0.05382 0.51672 0.97274 0.0
C208 C 0.07631 0.54119 0.95745 0.0
C209 C 0.04141 0.48755 0.95404 0.0
C210 C 0.05028 0.4832 0.91813 0.0
C211 C 0.07167 0.50939 0.90141 0.0
C212 C 0.08531 0.53822 0.92191 0.0
Zn213 Zn 0.03508 0.53105 1.02308 0.0
O214 O 1.00402 0.6085 0.05933 0.0
C215 C 0.09886 0.55991 0.06264 0.0
O216 O 0.02312 0.58406 1.00777 0.0
H217 H 0.02342 0.46848 0.96669 0.0
H218 H 0.03963 0.60908 0.13363 0.0
H219 H 0.08565 0.56443 0.97255 0.0
O220 O 0.07202 0.56792 0.08571 0.0
O221 O 0.09122 0.54484 1.03371 0.0
H222 H 0.95448 0.5311 0.12678 0.0
O223 O 0.04671 0.47808 0.03942 0.0
O224 O 0.02717 0.50101 0.09156 0.0
O225 O 0.97856 0.51717 1.01305 0.0
O226 O 0.95986 0.54066 0.06521 0.0
C227 C 0.04038 0.47406 0.07169 0.0
H228 H 0.03027 0.61344 0.19693 0.0
H229 H 0.94012 0.53708 0.18908 0.0
H230 H 0.03955 0.46018 0.9036 0.0
H231 H 0.10104 0.55971 0.91059 0.0
H232 H 0.18467 0.1404 0.31768 0.0
H233 H 0.07241 0.13772 0.28034 0.0
H234 H 0.16055 0.11506 0.37135 0.0
H235 H 0.04829 0.11184 0.334 0.0
H236 H 0.03369 0.02801 0.41951 0.0
H237 H 0.05806 0.05229 0.3652 0.0
H238 H 0.11394 0.13589 0.42339 0.0
H239 H 0.08912 0.11217 0.47753 0.0
C240 C 0.15484 0.13427 0.3209 0.0
C241 C 0.13046 0.14109 0.29471 0.0
C242 C 0.14099 0.1199 0.35172 0.0
C243 C 0.10251 0.11131 0.35696 0.0
C244 C 0.07814 0.11789 0.33067 0.0
C245 C 0.09186 0.13296 0.30007 0.0
C246 C 0.05138 0.05141 0.4207 0.0
C247 C 0.05949 0.06805 0.45294 0.0
C248 C 0.06509 0.06549 0.38959 0.0
C249 C 0.0879 0.09608 0.38994 0.0
C250 C 0.09664 0.1122 0.42217 0.0
C251 C 0.08233 0.09861 0.45322 0.0
H252 H 0.39732 0.961 0.77857 0.0
H253 H 0.43282 0.85527 0.80758 0.0
H254 H 0.41485 0.98799 0.83352 0.0
H255 H 0.45294 0.88277 0.86203 0.0
H256 H 0.44881 0.93686 0.97209 0.0
H257 H 0.43122 0.90923 0.91693 0.0
H258 H 0.4638 1.00569 0.86694 0.0
H259 H 0.47981 0.03373 0.92241 0.0
C260 C 0.40896 0.94335 0.79662 0.0
C261 C 0.41298 0.90565 0.78847 0.0
C262 C 0.41969 0.95907 0.82819 0.0
C263 C 0.4354 0.93782 0.85275 0.0
C264 C 0.44037 0.90017 0.84428 0.0
C265 C 0.42931 0.88434 0.81267 0.0
C266 C 0.45196 0.9523 0.94936 0.0
C267 C 0.46553 0.98772 0.95191 0.0
C268 C 0.44221 0.93624 0.91747 0.0
C269 C 0.44605 0.95493 0.88698 0.0
C270 C 0.45967 0.99042 0.88967 0.0
C271 C 0.46905 1.0066 0.92162 0.0
H272 H 0.6108 0.50582 0.87563 0.0
H273 H 0.54424 0.4097 0.87446 0.0
H274 H 0.59706 0.51418 0.81582 0.0
H275 H 0.53094 0.41771 0.81445 0.0
H276 H 0.48429 0.46905 0.71947 0.0
H277 H 0.49619 0.45893 0.77947 0.0
H278 H 0.61435 0.48318 0.7585 0.0
H279 H 0.60246 0.49328 0.69874 0.0
C280 C 0.59319 0.48654 0.8626 0.0
C281 C 0.57862 0.45703 0.8795 0.0
C282 C 0.58553 0.49117 0.82832 0.0
C283 C 0.56315 0.46643 0.81042 0.0
C284 C 0.54802 0.43734 0.82766 0.0
C285 C 0.55574 0.43269 0.86189 0.0
C286 C 0.51289 0.47164 0.72761 0.0
C287 C 0.54238 0.48223 0.70459 0.0
C288 C 0.51968 0.46597 0.76193 0.0
C289 C 0.55609 0.47075 0.77374 0.0
C290 C 0.58581 0.48013 0.75034 0.0
C291 C 0.57904 0.48578 0.71613 0.0
H292 H 0.04739 0.55446 0.40849 0.0
H293 H 0.9297 0.52504 0.4118 0.0
H294 H 0.04342 0.57156 0.34863 0.0
H295 H 0.926 0.5416 0.35222 0.0
H296 H 0.96884 0.51483 0.23414 0.0
H297 H 0.96766 0.50844 0.29592 0.0
H298 H 0.9991 0.61955 0.31278 0.0
H299 H 0.99789 0.62727 0.2506 0.0
C300 C 0.02065 0.55212 0.39654 0.0
C301 C 0.98883 0.53878 0.41474 0.0
C302 C 0.01832 0.56209 0.36255 0.0
C303 C 0.98435 0.55801 0.34614 0.0
C304 C 0.9524 0.54516 0.36453 0.0
C305 C 0.95452 0.53584 0.39861 0.0
C306 C 0.97431 0.53848 0.25076 0.0
C307 C 0.98291 0.57183 0.23701 0.0
C308 C 0.974 0.53456 0.28624 0.0
C309 C 0.98317 0.56352 0.30889 0.0
C310 C 0.99203 0.59683 0.29561 0.0
C311 C 0.99151 0.60109 0.26 0.0
H312 H 0.25628 0.18925 0.18786 0.0
H313 H 0.21207 0.0824 0.19534 0.0
H314 H 0.31311 0.16337 0.15495 0.0
H315 H 0.26854 0.05627 0.16137 0.0
H316 H 0.39212 1.01882 0.12801 0.0
H317 H 0.33449 0.04291 0.16117 0.0
H318 H 0.33534 0.13667 0.10042 0.0
H319 H 0.39373 0.11323 0.06834 0.0
C320 C 0.25861 0.16017 0.18219 0.0
C321 C 0.22956 0.13792 0.19411 0.0
C322 C 0.29117 0.14526 0.16309 0.0
C323 C 0.29553 0.10763 0.15498 0.0
C324 C 0.26658 0.0853 0.16733 0.0
C325 C 0.2341 0.10025 0.18679 0.0
C326 C 0.37986 0.04448 0.1216 0.0
C327 C 0.39771 0.06414 0.09557 0.0
C328 C 0.34662 0.05829 0.14057 0.0
C329 C 0.33013 0.092 0.13384 0.0
C330 C 0.34751 0.11107 0.10705 0.0
C331 C 0.38091 0.09745 0.08835 0.0
H332 H 0.24263 0.9105 0.6935 0.0
H333 H 0.30854 0.94659 0.60501 0.0
H334 H 0.18421 0.9342 0.67079 0.0
H335 H 0.25039 0.97132 0.58303 0.0
H336 H 0.13834 0.04797 0.58783 0.0
H337 H 0.19638 0.02412 0.61073 0.0
H338 H 0.15066 0.91728 0.60822 0.0
H339 H 0.09307 0.94074 0.58424 0.0
C340 C 0.24464 0.92379 0.66942 0.0
C341 C 0.28007 0.92687 0.65102 0.0
C342 C 0.21128 0.93717 0.6564 0.0
C343 C 0.21294 0.95461 0.62524 0.0
C344 C 0.24842 0.95814 0.60718 0.0
C345 C 0.28158 0.94396 0.61971 0.0
C346 C 0.14074 1.01936 0.59201 0.0
C347 C 0.11122 0.99619 0.5841 0.0
C348 C 0.17392 1.00577 0.60508 0.0
C349 C 0.1778 0.96895 0.61135 0.0
C350 C 0.1482 0.94582 0.60378 0.0
C351 C 0.11543 0.95921 0.58988 0.0
H352 H 0.71502 0.52902 0.99093 0.0
H353 H 0.73541 0.42318 1.02867 0.0
H354 H 0.78162 0.54281 0.99739 0.0
H355 H 0.80091 0.43841 0.03718 0.0
H356 H 0.89637 0.51269 0.08609 0.0
H357 H 0.83018 0.49842 0.07799 0.0
H358 H 0.8514 0.5035 0.96754 0.0
H359 H 0.91825 0.51673 0.97537 0.0
C360 C 0.73344 0.50872 1.00064 0.0
C361 C 0.71948 0.47497 1.00935 0.0
C362 C 0.77148 0.51677 1.00442 0.0
C363 C 0.79604 0.49158 1.01769 0.0
C364 C 0.78224 0.45825 1.02705 0.0
C365 C 0.74452 0.44982 1.02254 0.0
C366 C 0.88697 0.51068 0.06006 0.0
C367 C 0.91238 0.51576 1.03132 0.0
C368 C 0.84922 0.50249 0.0555 0.0
C369 C 0.836 0.5001 1.02223 0.0
C370 C 0.86116 0.50543 0.99344 0.0
C371 C 0.89926 0.51277 0.99791 0.0
H372 H 0.82472 0.53524 0.45553 0.0
H373 H 0.81926 0.60872 0.54721 0.0
H374 H 0.75563 0.52936 0.46238 0.0
H375 H 0.7503 0.60295 0.55402 0.0
H376 H 0.63425 0.55003 0.57312 0.0
H377 H 0.70321 0.55445 0.56695 0.0
H378 H 0.69772 0.57191 0.45843 0.0
H379 H 0.62847 0.56761 0.46451 0.0
C380 C 0.80876 0.54972 0.47737 0.0
C381 C 0.82721 0.57238 0.50088 0.0
C382 C 0.76928 0.54669 0.48106 0.0
C383 C 0.74767 0.56587 0.50861 0.0
C384 C 0.7663 0.58775 0.53263 0.0
C385 C 0.80566 0.59115 0.52869 0.0
C386 C 0.6477 0.55495 0.54795 0.0
C387 C 0.62594 0.5585 0.51928 0.0
C388 C 0.68716 0.55757 0.54448 0.0
C389 C 0.70576 0.56337 0.5122 0.0
C390 C 0.68407 0.56704 0.48353 0.0
C391 C 0.64447 0.56487 0.48708 0.0
H392 H 0.17696 0.29804 0.13629 0.0
H393 H 0.0701 0.28303 0.19401 0.0
H394 H 0.14841 0.34781 0.10802 0.0
H395 H 0.04116 0.33333 0.16552 0.0
H396 H 0.02425 0.45492 0.13812 0.0
H397 H 0.04607 0.40063 0.1644 0.0
H398 H 0.10148 0.3601 0.06595 0.0
H399 H 0.07984 0.41447 0.03963 0.0
C400 C 0.1472 0.30532 0.1428 0.0
C401 C 0.12583 0.28658 0.16737 0.0
C402 C 0.13073 0.33373 0.12639 0.0
C403 C 0.09237 0.34455 0.13425 0.0
C404 C 0.07083 0.3258 0.15893 0.0
C405 C 0.08732 0.29692 0.17517 0.0
C406 C 0.04075 0.43427 0.12192 0.0
C407 C 0.05046 0.43928 0.08672 0.0
C408 C 0.05309 0.403 0.13702 0.0
C409 C 0.07578 0.37602 0.11742 0.0
C410 C 0.08447 0.38052 0.08196 0.0
C411 C 0.07187 0.41164 0.06678 0.0
H412 H 0.6639 0.36833 1.03196 0.0
H413 H 0.54952 0.41401 1.03321 0.0
H414 H 0.6387 0.30858 0.03738 0.0
H415 H 0.52437 0.35352 0.03665 0.0
H416 H 0.49522 0.23391 0.05579 0.0
H417 H 0.51568 0.29632 0.06559 0.0
H418 H 0.61143 0.27278 0.9907 0.0
H419 H 0.59127 0.21085 0.98136 0.0
C420 C 0.63332 0.36593 1.03459 0.0
C421 C 0.60876 0.3959 1.03128 0.0
C422 C 0.61889 0.33148 0.03704 0.0
C423 C 0.57968 0.32622 1.03598 0.0
C424 C 0.55477 0.35665 0.03701 0.0
C425 C 0.56921 0.39128 1.0349 0.0
C426 C 0.52022 0.24246 0.04105 0.0
C427 C 0.54183 0.21765 1.01794 0.0
C428 C 0.53208 0.27799 0.04686 0.0
C429 C 0.56573 0.28913 1.02964 0.0
C430 C 0.58612 0.26468 1.00529 0.0
C431 C 0.57436 0.22936 0.99958 0.0
H432 H 0.92283 0.66629 0.54433 0.0
H433 H 0.94465 0.65852 0.43326 0.0
H434 H 0.94004 0.72965 0.54668 0.0
H435 H 0.95981 0.72276 0.43493 0.0
H436 H 0.0123 0.83334 0.45343 0.0
H437 H 1.00227 0.76834 0.45073 0.0
H438 H 0.91377 0.78498 0.53387 0.0
H439 H 0.92598 0.8488 0.53863 0.0
C440 C 0.93132 0.67843 0.52043 0.0
C441 C 0.93241 0.658 0.48866 0.0
C442 C 0.94081 0.71475 0.52163 0.0
C443 C 0.9507 0.73165 0.49092 0.0
C444 C 0.95267 0.71067 0.45911 0.0
C445 C 0.94382 0.67403 0.45804 0.0
C446 C 0.99104 0.82303 0.47142 0.0
C447 C 0.96993 0.84656 0.49618 0.0
C448 C 0.98495 0.78576 0.46958 0.0
C449 C 0.95737 0.77122 0.49224 0.0
C450 C 0.93585 0.79491 0.51647 0.0
C451 C 0.94232 0.83189 0.51868 0.0
H452 H 0.4125 0.83145 0.63351 0.0
H453 H 0.44112 0.78482 0.72785 0.0
H454 H 0.43456 0.77634 0.60028 0.0
H455 H 0.46676 0.73062 0.69411 0.0
H456 H 0.46716 0.62187 0.63203 0.0
H457 H 0.44974 0.67847 0.66525 0.0
H458 H 0.48135 0.73727 0.57543 0.0
H459 H 0.49648 0.67993 0.54163 0.0
C460 C 0.42377 0.80954 0.64731 0.0
C461 C 0.42395 0.81267 0.68376 0.0
C462 C 0.43723 0.77782 0.62795 0.0
C463 C 0.45229 0.74821 0.64414 0.0
C464 C 0.45448 0.75213 0.68045 0.0
C465 C 0.44032 0.78371 0.69994 0.0
C466 C 0.47041 0.64689 0.61931 0.0
C467 C 0.48311 0.64622 0.58402 0.0
C468 C 0.46072 0.67967 0.63859 0.0
C469 C 0.46408 0.71312 0.62348 0.0
C470 C 0.47748 0.71237 0.58817 0.0
C471 C 0.48647 0.6794 0.56866 0.0
H472 H 0.91507 0.88039 0.78266 0.0
H473 H 0.87592 0.98752 0.82346 0.0
H474 H 0.93825 0.90518 0.7287 0.0
H475 H 0.89727 1.01197 0.769 0.0
H476 H 0.97119 0.05112 0.67759 0.0
H477 H 0.95036 0.0271 0.73266 0.0
H478 H 0.91712 0.92893 0.67786 0.0
H479 H 0.93891 0.95254 0.62305 0.0
C480 C 0.91153 0.90926 0.7803 0.0
C481 C 0.89335 0.93176 0.80768 0.0
C482 C 0.92437 0.92349 0.749 0.0
C483 C 0.91947 0.96071 0.744 0.0
C484 C 0.90195 0.98328 0.77167 0.0
C485 C 0.88921 0.96908 0.80294 0.0
C486 C 0.95921 0.0245 0.67726 0.0
C487 C 0.95679 1.00388 0.64569 0.0
C488 C 0.94712 1.01066 0.70896 0.0
C489 C 0.9321 0.97581 0.71009 0.0
C490 C 0.92916 0.95551 0.67838 0.0
C491 C 0.94136 0.96928 0.64675 0.0
H492 H 0.61696 0.10554 0.31614 0.0
H493 H 0.58893 0.20937 0.27814 0.0
H494 H 0.59861 0.07522 0.26275 0.0
H495 H 0.56795 0.17886 0.22562 0.0
H496 H 0.5705 0.11817 0.11971 0.0
H497 H 0.58976 0.14768 0.17329 0.0
H498 H 0.54898 0.05774 0.22934 0.0
H499 H 0.53118 0.02756 0.17523 0.0
C500 C 0.60681 0.12205 0.29647 0.0
C501 C 0.605 0.16017 0.30164 0.0
C502 C 0.59563 0.10448 0.26584 0.0
C503 C 0.58181 0.12433 0.23937 0.0
C504 C 0.57909 0.16243 0.2449 0.0
C505 C 0.5906 0.18005 0.27545 0.0
C506 C 0.56585 0.10452 0.14343 0.0
C507 C 0.54934 0.07035 0.14302 0.0
C508 C 0.57659 0.1217 0.1744 0.0
C509 C 0.57078 0.10549 0.20612 0.0
C510 C 0.55451 0.07108 0.20559 0.0
C511 C 0.54412 0.0537 0.17447 0.0
H512 H 0.55585 0.55269 0.16544 0.0
H513 H 0.4378 0.52707 0.1823 0.0
H514 H 0.55618 0.57567 0.22601 0.0
H515 H 0.43827 0.54783 0.24291 0.0
H516 H 0.43787 0.60254 0.34763 0.0
H517 H 0.43949 0.5952 0.2845 0.0
H518 H 0.55661 0.5558 0.28117 0.0
H519 H 0.55525 0.56564 0.34393 0.0
C520 C 0.53002 0.55199 0.18225 0.0
C521 C 0.49678 0.53852 0.16927 0.0
C522 C 0.53016 0.56494 0.21698 0.0
C523 C 0.49723 0.56376 0.23967 0.0
C524 C 0.46394 0.55023 0.22631 0.0
C525 C 0.46366 0.53803 0.1915 0.0
C526 C 0.46413 0.59323 0.3331 0.0
C527 C 0.49645 0.58474 0.35038 0.0
C528 C 0.46503 0.58854 0.29698 0.0
C529 C 0.49799 0.57421 0.27748 0.0
C530 C 0.53083 0.56731 0.29497 0.0
C531 C 0.53013 0.57283 0.33101 0.0
H532 H 0.14073 0.55176 0.68627 0.0
H533 H 0.01825 0.55657 0.69582 0.0
H534 H 0.14171 0.53032 0.74424 0.0
H535 H 0.01852 0.53846 0.75503 0.0
H536 H 0.02268 0.48558 0.8532 0.0
H537 H 0.0269 0.49418 0.79172 0.0
H538 H 0.13447 0.54586 0.80146 0.0
H539 H 0.13245 0.53307 0.86166 0.0
C540 C 0.11403 0.549 0.70136 0.0
C541 C 0.07944 0.55617 0.68715 0.0
C542 C 0.11444 0.5368 0.73467 0.0
C543 C 0.08018 0.53263 0.75489 0.0
C544 C 0.04555 0.54034 0.74033 0.0
C545 C 0.04524 0.55135 0.70659 0.0
C546 C 0.0479 0.49761 0.84204 0.0
C547 C 0.07684 0.50928 0.86287 0.0
C548 C 0.04993 0.50338 0.80669 0.0
C549 C 0.08047 0.52182 0.79135 0.0
C550 C 0.11042 0.53153 0.81184 0.0
C551 C 0.10892 0.52476 0.84686 0.0
H552 H 0.76471 0.87663 0.90769 0.0
H553 H 0.80244 0.98617 0.90365 0.0
H554 H 0.70565 0.89883 0.93951 0.0
H555 H 0.74376 1.0086 0.93651 0.0
H556 H 0.61909 0.03952 0.9684 0.0
H557 H 0.67755 1.01824 0.93527 0.0
H558 H 0.68091 0.92343 0.99443 0.0
H559 H 0.62144 0.94416 1.02667 0.0
C560 C 0.76036 0.90553 0.91374 0.0
C561 C 0.78829 0.92964 0.90324 0.0
C562 C 0.72657 0.91829 0.93225 0.0
C563 C 0.71985 0.95557 0.9411 0.0
C564 C 0.74757 0.97976 0.92993 0.0
C565 C 0.78128 0.96696 0.91107 0.0
C566 C 0.63235 1.01417 0.97447 0.0
C567 C 0.61544 0.99352 1.00021 0.0
C568 C 0.66612 1.00201 0.95551 0.0
C569 C 0.68417 0.96896 0.96191 0.0
C570 C 0.66757 0.94865 0.98817 0.0
C571 C 0.63357 0.96068 1.00695 0.0
H572 H 0.76082 0.12418 0.39387 0.0
H573 H 0.7273 0.17918 0.49354 0.0
H574 H 0.8168 0.09763 0.41786 0.0
H575 H 0.78272 0.1524 0.51766 0.0
H576 H 0.90697 0.13069 0.53903 0.0
H577 H 0.85127 0.15632 0.51452 0.0
H578 H 0.83514 0.0536 0.45873 0.0
H579 H 0.89127 0.02803 0.4829 0.0
C580 C 0.76535 0.13052 0.4209 0.0
C581 C 0.73971 0.15383 0.44185 0.0
C582 C 0.79732 0.11515 0.43473 0.0
C583 C 0.8044 0.12291 0.46973 0.0
C584 C 0.77856 0.1462 0.49053 0.0
C585 C 0.74666 0.16141 0.47676 0.0
C586 C 0.89149 0.11347 0.52167 0.0
C587 C 0.90364 0.07724 0.51304 0.0
C588 C 0.85941 0.12816 0.50767 0.0
C589 C 0.83862 0.10707 0.48459 0.0
C590 C 0.85069 0.07078 0.47606 0.0
C591 C 0.88273 0.05603 0.49016 0.0
H592 H 0.3138 0.62091 0.14459 0.0
H593 H 0.34314 0.53339 0.06689 0.0
H594 H 0.24734 0.61749 0.13222 0.0
H595 H 0.27633 0.52843 0.05606 0.0
H596 H 0.16155 0.55475 1.01684 0.0
H597 H 0.2278 0.56022 1.02958 0.0
H598 H 0.1929 0.58166 0.13838 0.0
H599 H 0.12656 0.57751 0.1254 0.0
C600 C 0.30606 0.60078 0.12499 0.0
C601 C 0.33393 0.57761 0.10655 0.0
C602 C 0.26782 0.59853 0.11819 0.0
C603 C 0.2564 0.57282 0.09299 0.0
C604 C 0.28415 0.54901 0.0752 0.0
C605 C 0.32245 0.55145 0.08181 0.0
C606 C 0.16803 0.56092 0.04344 0.0
C607 C 0.13882 0.56569 0.0701 0.0
C608 C 0.20605 0.56372 0.05081 0.0
C609 C 0.2158 0.57102 0.08507 0.0
C610 C 0.18647 0.5764 0.11166 0.0
C611 C 0.1484 0.57393 0.10423 0.0
H612 H 0.19758 0.52712 0.62368 0.0
H613 H 0.19495 0.46666 0.5247 0.0
H614 H 0.26536 0.53598 0.61204 0.0
H615 H 0.26328 0.47522 0.51317 0.0
H616 H 0.37689 0.53608 0.49405 0.0
H617 H 0.3086 0.52662 0.50303 0.0
H618 H 0.32416 0.4958 0.60665 0.0
H619 H 0.3921 0.50521 0.59786 0.0
C620 C 0.21147 0.51599 0.59927 0.0
C621 C 0.19097 0.49636 0.57499 0.0
C622 C 0.25034 0.52076 0.59278 0.0
C623 C 0.26959 0.50617 0.56177 0.0
C624 C 0.24907 0.48692 0.53721 0.0
C625 C 0.21012 0.48183 0.54387 0.0
C626 C 0.36571 0.52722 0.51871 0.0
C627 C 0.38988 0.52156 0.5453 0.0
C628 C 0.32669 0.52163 0.52375 0.0
C629 C 0.3111 0.51067 0.55559 0.0
C630 C 0.33534 0.50468 0.58199 0.0
C631 C 0.37429 0.50992 0.57687 0.0
H632 H 1.00256 0.7913 0.89068 0.0
H633 H 0.89336 0.79665 0.94893 0.0
H634 H 0.02338 0.74201 0.92461 0.0
H635 H 0.91376 0.74701 0.98234 0.0
H636 H 0.97239 0.67433 0.05547 0.0
H637 H 0.95552 0.72831 1.02564 0.0
H638 H 0.01145 0.67938 0.9304 0.0
H639 H 0.02874 0.62637 0.96001 0.0
C640 C 0.983 0.78192 0.91071 0.0
C641 C 0.94631 0.79785 0.91689 0.0
C642 C 0.99484 0.75353 0.93013 0.0
C643 C 0.97025 0.74026 0.95629 0.0
C644 C 0.9337 0.75669 0.9628 0.0
C645 C 0.92187 0.78506 0.94336 0.0
C646 C 0.98141 0.67535 1.02828 0.0
C647 C 1.00191 0.64588 1.01026 0.0
C648 C 0.97149 0.70619 1.01106 0.0
C649 C 0.98206 0.70838 0.97547 0.0
C650 C 1.00322 0.67912 0.95782 0.0
C651 C 0.01295 0.64844 0.97489 0.0
H652 H 0.40191 0.6806 0.16206 0.0
H653 H 0.48753 0.64581 0.08044 0.0
H654 H 0.4215 0.74331 0.15857 0.0
H655 H 0.50697 0.70841 0.07691 0.0
H656 H 0.48975 0.84906 0.15555 0.0
H657 H 0.48051 0.78487 0.16552 0.0
H658 H 0.46751 0.76224 0.05638 0.0
H659 H 0.47618 0.82606 0.04661 0.0
C660 C 0.42527 0.68637 0.14379 0.0
C661 C 0.44313 0.65853 0.1214 0.0
C662 C 0.43661 0.72208 0.14196 0.0
C663 C 0.46558 0.73054 0.11736 0.0
C664 C 0.48444 0.7025 0.09597 0.0
C665 C 0.47348 0.66675 0.09813 0.0
C666 C 0.4852 0.83016 0.13379 0.0
C667 C 0.48341 0.84228 0.10039 0.0
C668 C 0.47983 0.79365 0.13947 0.0
C669 C 0.47349 0.76875 0.11167 0.0
C670 C 0.47275 0.78084 0.07817 0.0
C671 C 0.4774 0.81731 0.07263 0.0
H672 H 0.07118 0.41606 0.64666 0.0
H673 H 0.09624 0.39805 0.53615 0.0
H674 H 0.05334 0.35278 0.64969 0.0
H675 H 0.07737 0.33484 0.53907 0.0
H676 H 0.99707 0.23804 0.56204 0.0
H677 H 1.01056 0.30259 0.56064 0.0
H678 H 0.09663 0.28974 0.63299 0.0
H679 H 0.08385 0.22491 0.63366 0.0
C680 C 0.0723 0.3986 0.623 0.0
C681 C 0.08482 0.41171 0.59113 0.0
C682 C 0.06232 0.36253 0.62478 0.0
C683 C 0.06398 0.33924 0.59461 0.0
C684 C 0.0757 0.35252 0.5626 0.0
C685 C 0.08651 0.38844 0.56093 0.0
C686 C 0.01851 0.2492 0.57795 0.0
C687 C 0.03935 0.2268 0.59811 0.0
C688 C 0.02636 0.2859 0.57694 0.0
C689 C 0.0546 0.30084 0.59667 0.0
C690 C 0.07462 0.2787 0.61769 0.0
C691 C 0.06737 0.24181 0.61808 0.0
H692 H 0.58089 0.28599 0.34903 0.0
H693 H 0.60768 0.25068 0.44869 0.0
H694 H 0.55422 0.34287 0.37717 0.0
H695 H 0.5846 0.30833 0.4762 0.0
H696 H 0.51788 0.40536 0.52551 0.0
H697 H 0.53499 0.34641 0.49602 0.0
H698 H 0.56832 0.39845 0.40246 0.0
H699 H 0.54871 0.45705 0.43159 0.0
C700 C 0.58113 0.29019 0.37691 0.0
C701 C 0.59704 0.26348 0.3963 0.0
C702 C 0.56633 0.32328 0.39312 0.0
C703 C 0.56733 0.33093 0.42922 0.0
C704 C 0.58258 0.30383 0.44855 0.0
C705 C 0.59668 0.27065 0.43249 0.0
C706 C 0.52862 0.40412 0.49856 0.0
C707 C 0.53199 0.43598 0.48099 0.0
C708 C 0.53883 0.3702 0.48156 0.0
C709 C 0.55366 0.3671 0.44664 0.0
C710 C 0.55655 0.39917 0.42905 0.0
C711 C 0.54553 0.43302 0.44588 0.0
loop_
_geom_bond_atom_site_label_1
_geom_bond_atom_site_label_2
_geom_bond_distance
_geom_bond_site_symmetry_2
_ccdc_geom_bond_type
H0 C5 0.930 . S
H1 C8 0.930 . S
H2 C10 0.930 . S
H3 C4 1.016 . S
C4 H3 1.016 . S
C4 N11 1.286 . S
C5 H0 0.930 . S
C5 C6 1.397 . S
C5 C7 1.361 . S
C6 C5 1.397 . S
C6 C10 1.390 . S
C7 C5 1.361 . S
C7 C8 1.393 . S
C7 N11 1.413 . S
C8 H1 0.930 . S
C8 C7 1.393 . S
C8 C9 1.399 . S
C9 C8 1.399 . S
C9 C10 1.381 . S
C10 H2 0.930 . S
C10 C6 1.390 . S
C10 C9 1.381 . S
N11 C4 1.286 . S
N11 C7 1.413 . S
H12 C17 0.930 . S
H13 C20 0.930 . S
H14 C22 0.930 . S
H15 C16 1.016 . S
C16 H15 1.016 . S
C16 N23 1.286 . S
C17 H12 0.930 . S
C17 C18 1.397 . S
C17 C19 1.361 . S
C18 C17 1.397 . S
C18 C22 1.390 . S
C19 C17 1.361 . S
C19 C20 1.393 . S
C19 N23 1.413 . S
C20 H13 0.930 . S
C20 C19 1.393 . S
C20 C21 1.399 . S
C21 C20 1.399 . S
C21 C22 1.381 . S
C22 H14 0.930 . S
C22 C18 1.390 . S
C22 C21 1.381 . S
N23 C16 1.286 . S
N23 C19 1.413 . S
H24 C29 0.930 . S
H25 C32 0.930 . S
H26 C34 0.930 . S
H27 C28 1.016 . S
C28 H27 1.016 . S
C28 N35 1.286 . S
C29 H24 0.930 . S
C29 C30 1.397 . S
C29 C31 1.361 . S
C30 C29 1.397 . S
C30 C34 1.390 . S
C31 C29 1.361 . S
C31 C32 1.393 . S
C31 N35 1.413 . S
C32 H25 0.930 . S
C32 C31 1.393 . S
C32 C33 1.399 . S
C33 C32 1.399 . S
C33 C34 1.381 . S
C34 H26 0.930 . S
C34 C30 1.390 . S
C34 C33 1.381 . S
N35 C28 1.286 . S
N35 C31 1.413 . S
H36 C41 0.930 . S
H37 C44 0.930 . S
H38 C46 0.930 . S
H39 C40 1.016 . S
C40 H39 1.016 . S
C40 N47 1.286 . S
C41 H36 0.930 . S
C41 C42 1.397 . S
C41 C43 1.361 . S
C42 C41 1.397 . S
C42 C46 1.390 . S
C43 C41 1.361 . S
C43 C44 1.393 . S
C43 N47 1.413 . S
C44 H37 0.930 . S
C44 C43 1.393 . S
C44 C45 1.399 . S
C45 C44 1.399 . S
C45 C46 1.381 . S
C46 H38 0.930 . S
C46 C42 1.390 . S
C46 C45 1.381 . S
N47 C40 1.286 . S
N47 C43 1.413 . S
H48 C53 0.930 . S
H49 C56 0.930 . S
H50 C58 0.930 . S
H51 C52 1.016 . S
C52 H51 1.016 . S
C52 N59 1.286 . S
C53 H48 0.930 . S
C53 C54 1.397 . S
C53 C55 1.361 . S
C54 C53 1.397 . S
C54 C58 1.390 . S
C55 C53 1.361 . S
C55 C56 1.393 . S
C55 N59 1.413 . S
C56 H49 0.930 . S
C56 C55 1.393 . S
C56 C57 1.399 . S
C57 C56 1.399 . S
C57 C58 1.381 . S
C58 H50 0.930 . S
C58 C54 1.390 . S
C58 C57 1.381 . S
N59 C52 1.286 . S
N59 C55 1.413 . S
H60 C65 0.930 . S
H61 C68 0.930 . S
H62 C70 0.930 . S
H63 C64 1.016 . S
C64 H63 1.016 . S
C64 N71 1.286 . S
C65 H60 0.930 . S
C65 C66 1.397 . S
C65 C67 1.361 . S
C66 C65 1.397 . S
C66 C70 1.390 . S
C67 C65 1.361 . S
C67 C68 1.393 . S
C67 N71 1.413 . S
C68 H61 0.930 . S
C68 C67 1.393 . S
C68 C69 1.399 . S
C69 C68 1.399 . S
C69 C70 1.381 . S
C70 H62 0.930 . S
C70 C66 1.390 . S
C70 C69 1.381 . S
N71 C64 1.286 . S
N71 C67 1.413 . S
H72 C77 0.930 . S
H73 C80 0.930 . S
H74 C82 0.930 . S
H75 C76 1.016 . S
C76 H75 1.016 . S
C76 N83 1.286 . S
C77 H72 0.930 . S
C77 C78 1.397 . S
C77 C79 1.361 . S
C78 C77 1.397 . S
C78 C82 1.390 . S
C79 C77 1.361 . S
C79 C80 1.393 . S
C79 N83 1.413 . S
C80 H73 0.930 . S
C80 C79 1.393 . S
C80 C81 1.399 . S
C81 C80 1.399 . S
C81 C82 1.381 . S
C82 H74 0.930 . S
C82 C78 1.390 . S
C82 C81 1.381 . S
N83 C76 1.286 . S
N83 C79 1.413 . S
H84 C89 0.930 . S
H85 C92 0.930 . S
H86 C94 0.930 . S
H87 C88 1.016 . S
C88 H87 1.016 . S
C88 N95 1.286 . S
C89 H84 0.930 . S
C89 C90 1.397 . S
C89 C91 1.361 . S
C90 C89 1.397 . S
C90 C94 1.390 . S
C91 C89 1.361 . S
C91 C92 1.393 . S
C91 N95 1.413 . S
C92 H85 0.930 . S
C92 C91 1.393 . S
C92 C93 1.399 . S
C93 C92 1.399 . S
C93 C94 1.381 . S
C94 H86 0.930 . S
C94 C90 1.390 . S
C94 C93 1.381 . S
N95 C88 1.286 . S
N95 C91 1.413 . S
C96 O112 1.251 . S
C96 O114 1.254 1_545 S
N97 C98 1.333 . S
N97 C102 1.307 . S
N97 Zn103 2.020 . S
C98 N97 1.333 . S
C98 C99 1.379 . S
C98 H116 0.952 . S
C99 C98 1.379 . S
C99 C100 1.390 . S
C99 H126 0.949 . S
C100 C99 1.390 . S
C100 C101 1.357 . S
C101 C100 1.357 . S
C101 C102 1.370 . S
C101 H127 0.950 . S
C102 N97 1.307 . S
C102 C101 1.370 . S
C102 H120 0.948 1_455 S
Zn103 N97 2.020 . S
Zn103 O112 2.039 . S
Zn103 O118 2.034 . S
Zn103 O122 2.025 1_455 S
Zn103 O124 2.024 1_455 S
C104 O123 1.246 1_545 S
C104 O124 1.249 . S
N105 C106 1.307 . S
N105 C107 1.333 . S
N105 Zn111 2.020 . S
C106 N105 1.307 . S
C106 C110 1.370 . S
C106 H117 0.948 1_655 S
C107 N105 1.333 . S
C107 C108 1.379 . S
C107 H115 0.952 . S
C108 C107 1.379 . S
C108 C109 1.390 . S
C108 H128 0.949 . S
C109 C108 1.390 . S
C109 C110 1.357 . S
C110 C106 1.370 . S
C110 C109 1.357 . S
C110 H129 0.950 . S
Zn111 N105 2.020 . S
Zn111 O114 2.025 1_655 S
Zn111 O119 2.024 1_655 S
Zn111 O121 2.039 . S
Zn111 O123 2.034 . S
O112 C96 1.251 . S
O112 Zn103 2.039 . S
C113 O118 1.246 1_565 S
C113 O119 1.249 . S
O114 C96 1.254 1_565 S
O114 Zn111 2.025 1_455 S
H115 C107 0.952 . S
H116 C98 0.952 . S
H117 C106 0.948 1_455 S
O118 Zn103 2.034 . S
O118 C113 1.246 1_545 S
O119 Zn111 2.024 1_455 S
O119 C113 1.249 . S
H120 C102 0.948 1_655 S
O121 Zn111 2.039 . S
O121 C125 1.251 . S
O122 Zn103 2.025 1_655 S
O122 C125 1.254 1_545 S
O123 C104 1.246 1_565 S
O123 Zn111 2.034 . S
O124 Zn103 2.024 1_655 S
O124 C104 1.249 . S
C125 O121 1.251 . S
C125 O122 1.254 1_565 S
H126 C99 0.949 . S
H127 C101 0.950 . S
H128 C108 0.949 . S
H129 C110 0.950 . S
C130 O146 1.251 1_565 S
C130 O148 1.254 1_556 S
N131 C132 1.333 . S
N131 C136 1.307 . S
N131 Zn137 2.020 . S
C132 N131 1.333 . S
C132 C133 1.379 . S
C132 H150 0.952 . S
C133 C132 1.379 . S
C133 C134 1.390 . S
C133 H160 0.949 . S
C134 C133 1.390 . S
C134 C135 1.357 . S
C135 C134 1.357 . S
C135 C136 1.370 . S
C135 H161 0.950 . S
C136 N131 1.307 . S
C136 C135 1.370 . S
C136 H154 0.948 . S
Zn137 N131 2.020 . S
Zn137 O146 2.039 . S
Zn137 O152 2.034 1_556 S
Zn137 O156 2.025 1_556 S
Zn137 O158 2.024 . S
C138 O157 1.246 . S
C138 O158 1.249 1_565 S
N139 C140 1.307 . S
N139 C141 1.333 . S
N139 Zn145 2.020 . S
C140 N139 1.307 . S
C140 C144 1.370 . S
C140 H151 0.948 . S
C141 N139 1.333 . S
C141 C142 1.379 . S
C141 H149 0.952 . S
C142 C141 1.379 . S
C142 C143 1.390 . S
C142 H162 0.949 . S
C143 C142 1.390 . S
C143 C144 1.357 . S
C144 C140 1.370 . S
C144 C143 1.357 . S
C144 H163 0.950 . S
Zn145 N139 2.020 . S
Zn145 O148 2.025 . S
Zn145 O153 2.024 . S
Zn145 O155 2.039 1_565 S
Zn145 O157 2.034 1_554 S
O146 C130 1.251 1_545 S
O146 Zn137 2.039 . S
C147 O152 1.246 . S
C147 O153 1.249 1_545 S
O148 C130 1.254 1_554 S
O148 Zn145 2.025 . S
H149 C141 0.952 . S
H150 C132 0.952 . S
H151 C140 0.948 . S
O152 Zn137 2.034 1_554 S
O152 C147 1.246 . S
O153 Zn145 2.024 . S
O153 C147 1.249 1_565 S
H154 C136 0.948 . S
O155 Zn145 2.039 1_545 S
O155 C159 1.251 . S
O156 Zn137 2.025 1_554 S
O156 C159 1.254 . S
O157 C138 1.246 . S
O157 Zn145 2.034 1_556 S
O158 Zn137 2.024 . S
O158 C138 1.249 1_545 S
C159 O155 1.251 . S
C159 O156 1.254 . S
H160 C133 0.949 . S
H161 C135 0.950 . S
H162 C142 0.949 . S
H163 C144 0.950 . S
C164 O180 1.251 . S
C164 O182 1.254 . S
N165 C166 1.333 . S
N165 C170 1.307 . S
N165 Zn171 2.020 . S
C166 N165 1.333 . S
C166 C167 1.379 . S
C166 H184 0.952 . S
C167 C166 1.379 . S
C167 C168 1.390 . S
C167 H194 0.949 . S
C168 C167 1.390 . S
C168 C169 1.357 . S
C169 C168 1.357 . S
C169 C170 1.370 . S
C169 H195 0.950 . S
C170 N165 1.307 . S
C170 C169 1.370 . S
C170 H188 0.948 . S
Zn171 N165 2.020 . S
Zn171 O180 2.039 . S
Zn171 O186 2.034 . S
Zn171 O190 2.025 . S
Zn171 O192 2.024 . S
C172 O191 1.246 . S
C172 O192 1.249 . S
N173 C174 1.307 . S
N173 C175 1.333 . S
N173 Zn179 2.020 . S
C174 N173 1.307 . S
C174 C178 1.370 . S
C174 H185 0.948 . S
C175 N173 1.333 . S
C175 C176 1.379 . S
C175 H183 0.952 . S
C176 C175 1.379 . S
C176 C177 1.390 . S
C176 H196 0.949 . S
C177 C176 1.390 . S
C177 C178 1.357 . S
C178 C174 1.370 . S
C178 C177 1.357 . S
C178 H197 0.950 . S
Zn179 N173 2.020 . S
Zn179 O182 2.025 . S
Zn179 O187 2.024 . S
Zn179 O189 2.039 . S
Zn179 O191 2.034 . S
O180 C164 1.251 . S
O180 Zn171 2.039 . S
C181 O186 1.246 . S
C181 O187 1.249 . S
O182 C164 1.254 . S
O182 Zn179 2.025 . S
H183 C175 0.952 . S
H184 C166 0.952 . S
H185 C174 0.948 . S
O186 Zn171 2.034 . S
O186 C181 1.246 . S
O187 Zn179 2.024 . S
O187 C181 1.249 . S
H188 C170 0.948 . S
O189 Zn179 2.039 . S
O189 C193 1.251 . S
O190 Zn171 2.025 . S
O190 C193 1.254 . S
O191 C172 1.246 . S
O191 Zn179 2.034 . S
O192 Zn171 2.024 . S
O192 C172 1.249 . S
C193 O189 1.251 . S
C193 O190 1.254 . S
H194 C167 0.949 . S
H195 C169 0.950 . S
H196 C176 0.949 . S
H197 C178 0.950 . S
C198 O214 1.251 1_556 S
C198 O216 1.254 1_655 S
N199 C200 1.333 . S
N199 C204 1.307 . S
N199 Zn205 2.020 . S
C200 N199 1.333 . S
C200 C201 1.379 . S
C200 H218 0.952 . S
C201 C200 1.379 . S
C201 C202 1.390 . S
C201 H228 0.949 . S
C202 C201 1.390 . S
C202 C203 1.357 . S
C203 C202 1.357 . S
C203 C204 1.370 . S
C203 H229 0.950 . S
C204 N199 1.307 . S
C204 C203 1.370 . S
C204 H222 0.948 . S
Zn205 N199 2.020 . S
Zn205 O214 2.039 . S
Zn205 O220 2.034 1_655 S
Zn205 O224 2.025 1_655 S
Zn205 O226 2.024 . S
C206 O225 1.246 . S
C206 O226 1.249 1_556 S
N207 C208 1.307 . S
N207 C209 1.333 . S
N207 Zn213 2.020 . S
C208 N207 1.307 . S
C208 C212 1.370 . S
C208 H219 0.948 . S
C209 N207 1.333 . S
C209 C210 1.379 . S
C209 H217 0.952 . S
C210 C209 1.379 . S
C210 C211 1.390 . S
C210 H230 0.949 . S
C211 C210 1.390 . S
C211 C212 1.357 . S
C212 C208 1.370 . S
C212 C211 1.357 . S
C212 H231 0.950 . S
Zn213 N207 2.020 . S
Zn213 O216 2.025 . S
Zn213 O221 2.024 . S
Zn213 O223 2.039 . S
Zn213 O225 2.034 1_455 S
O214 C198 1.251 1_554 S
O214 Zn205 2.039 . S
C215 O220 1.246 . S
C215 O221 1.249 1_554 S
O216 C198 1.254 1_455 S
O216 Zn213 2.025 . S
H217 C209 0.952 . S
H218 C200 0.952 . S
H219 C208 0.948 . S
O220 Zn205 2.034 1_455 S
O220 C215 1.246 . S
O221 Zn213 2.024 . S
O221 C215 1.249 1_556 S
H222 C204 0.948 . S
O223 Zn213 2.039 . S
O223 C227 1.251 1_556 S
O224 Zn205 2.025 1_455 S
O224 C227 1.254 . S
O225 C206 1.246 . S
O225 Zn213 2.034 1_655 S
O226 Zn205 2.024 . S
O226 C206 1.249 1_554 S
C227 O223 1.251 1_554 S
C227 O224 1.254 . S
H228 C201 0.949 . S
H229 C203 0.950 . S
H230 C210 0.949 . S
H231 C212 0.950 . S
H232 C240 0.950 . S
H233 C245 0.950 . S
H234 C242 0.950 . S
H235 C244 0.950 . S
H236 C246 0.950 . S
H237 C248 0.950 . S
H238 C250 0.950 . S
H239 C251 0.950 . S
C240 H232 0.950 . S
C240 C241 1.386 . S
C240 C242 1.391 . S
C241 C240 1.386 . S
C241 C245 1.393 . S
C242 H234 0.950 . S
C242 C240 1.391 . S
C242 C243 1.400 . S
C243 C242 1.400 . S
C243 C244 1.398 . S
C243 C249 1.491 . S
C244 H235 0.950 . S
C244 C243 1.398 . S
C244 C245 1.391 . S
C245 H233 0.950 . S
C245 C241 1.393 . S
C245 C244 1.391 . S
C246 H236 0.950 . S
C246 C247 1.386 . S
C246 C248 1.391 . S
C247 C246 1.386 . S
C247 C251 1.393 . S
C248 H237 0.950 . S
C248 C246 1.391 . S
C248 C249 1.400 . S
C249 C243 1.491 . S
C249 C248 1.400 . S
C249 C250 1.398 . S
C250 H238 0.950 . S
C250 C249 1.398 . S
C250 C251 1.391 . S
C251 H239 0.950 . S
C251 C247 1.393 . S
C251 C250 1.391 . S
H252 C260 0.950 . S
H253 C265 0.950 . S
H254 C262 0.950 . S
H255 C264 0.950 . S
H256 C266 0.950 . S
H257 C268 0.950 . S
H258 C270 0.966 . S
H259 C271 0.950 1_545 S
C260 H252 0.950 . S
C260 C261 1.386 . S
C260 C262 1.391 . S
C261 C260 1.386 . S
C261 C265 1.393 . S
C262 H254 0.950 . S
C262 C260 1.391 . S
C262 C263 1.400 . S
C263 C262 1.400 . S
C263 C264 1.398 . S
C263 C269 1.491 . S
C264 H255 0.950 . S
C264 C263 1.398 . S
C264 C265 1.391 . S
C265 H253 0.950 . S
C265 C261 1.393 . S
C265 C264 1.391 . S
C266 H256 0.950 . S
C266 C267 1.386 . S
C266 C268 1.391 . S
C267 C266 1.386 . S
C267 C271 1.393 . S
C268 H257 0.950 . S
C268 C266 1.391 . S
C268 C269 1.400 . S
C269 C263 1.491 . S
C269 C268 1.400 . S
C269 C270 1.398 . S
C270 H258 0.966 . S
C270 C269 1.398 . S
C270 C271 1.391 . S
C271 H259 0.950 1_565 S
C271 C267 1.393 . S
C271 C270 1.391 . S
H272 C280 0.950 . S
H273 C285 0.950 . S
H274 C282 0.950 . S
H275 C284 0.950 . S
H276 C286 0.950 . S
H277 C288 0.950 . S
H278 C290 0.950 . S
H279 C291 0.950 . S
C280 H272 0.950 . S
C280 C281 1.386 . S
C280 C282 1.391 . S
C281 C280 1.386 . S
C281 C285 1.393 . S
C282 H274 0.950 . S
C282 C280 1.391 . S
C282 C283 1.400 . S
C283 C282 1.400 . S
C283 C284 1.398 . S
C283 C289 1.491 . S
C284 H275 0.950 . S
C284 C283 1.398 . S
C284 C285 1.391 . S
C285 H273 0.950 . S
C285 C281 1.393 . S
C285 C284 1.391 . S
C286 H276 0.950 . S
C286 C287 1.386 . S
C286 C288 1.391 . S
C287 C286 1.386 . S
C287 C291 1.393 . S
C288 H277 0.950 . S
C288 C286 1.391 . S
C288 C289 1.400 . S
C289 C283 1.491 . S
C289 C288 1.400 . S
C289 C290 1.398 . S
C290 H278 0.950 . S
C290 C289 1.398 . S
C290 C291 1.391 . S
C291 H279 0.950 . S
C291 C287 1.393 . S
C291 C290 1.391 . S
H292 C300 0.950 . S
H293 C305 0.950 . S
H294 C302 0.950 . S
H295 C304 0.950 . S
H296 C306 0.950 . S
H297 C308 0.950 . S
H298 C310 0.950 . S
H299 C311 0.950 . S
C300 H292 0.950 . S
C300 C301 1.386 . S
C300 C302 1.391 . S
C301 C300 1.386 . S
C301 C305 1.393 . S
C302 H294 0.950 . S
C302 C300 1.391 . S
C302 C303 1.400 . S
C303 C302 1.400 . S
C303 C304 1.398 . S
C303 C309 1.491 . S
C304 H295 0.950 . S
C304 C303 1.398 . S
C304 C305 1.391 . S
C305 H293 0.950 . S
C305 C301 1.393 . S
C305 C304 1.391 . S
C306 H296 0.950 . S
C306 C307 1.386 . S
C306 C308 1.391 . S
C307 C306 1.386 . S
C307 C311 1.393 . S
C308 H297 0.950 . S
C308 C306 1.391 . S
C308 C309 1.400 . S
C309 C303 1.491 . S
C309 C308 1.400 . S
C309 C310 1.398 . S
C310 H298 0.950 . S
C310 C309 1.398 . S
C310 C311 1.391 . S
C311 H299 0.950 . S
C311 C307 1.393 . S
C311 C310 1.391 . S
H312 C320 0.950 . S
H313 C325 0.950 . S
H314 C322 0.950 . S
H315 C324 0.950 . S
H316 C326 0.950 . S
H317 C328 0.950 . S
H318 C330 0.950 . S
H319 C331 0.950 . S
C320 H312 0.950 . S
C320 C321 1.386 . S
C320 C322 1.391 . S
C321 C320 1.386 . S
C321 C325 1.393 . S
C322 H314 0.950 . S
C322 C320 1.391 . S
C322 C323 1.400 . S
C323 C322 1.400 . S
C323 C324 1.398 . S
C323 C329 1.491 . S
C324 H315 0.950 . S
C324 C323 1.398 . S
C324 C325 1.391 . S
C325 H313 0.950 . S
C325 C321 1.393 . S
C325 C324 1.391 . S
C326 H316 0.950 . S
C326 C327 1.386 . S
C326 C328 1.391 . S
C327 C326 1.386 . S
C327 C331 1.393 . S
C328 H317 0.950 . S
C328 C326 1.391 . S
C328 C329 1.400 . S
C329 C323 1.491 . S
C329 C328 1.400 . S
C329 C330 1.398 . S
C330 H318 0.950 . S
C330 C329 1.398 . S
C330 C331 1.391 . S
C331 H319 0.950 . S
C331 C327 1.393 . S
C331 C330 1.391 . S
H332 C340 0.950 . S
H333 C345 0.950 . S
H334 C342 0.950 . S
H335 C344 0.950 . S
H336 C346 0.950 1_545 S
H337 C348 0.950 . S
H338 C350 0.950 . S
H339 C351 0.950 . S
C340 H332 0.950 . S
C340 C341 1.386 . S
C340 C342 1.391 . S
C341 C340 1.386 . S
C341 C345 1.393 . S
C342 H334 0.950 . S
C342 C340 1.391 . S
C342 C343 1.400 . S
C343 C342 1.400 . S
C343 C344 1.398 . S
C343 C349 1.491 . S
C344 H335 0.950 . S
C344 C343 1.398 . S
C344 C345 1.391 . S
C345 H333 0.950 . S
C345 C341 1.393 . S
C345 C344 1.391 . S
C346 H336 0.950 1_565 S
C346 C347 1.386 . S
C346 C348 1.391 . S
C347 C346 1.386 . S
C347 C351 1.393 . S
C348 H337 0.950 . S
C348 C346 1.391 . S
C348 C349 1.400 . S
C349 C343 1.491 . S
C349 C348 1.400 . S
C349 C350 1.398 . S
C350 H338 0.950 . S
C350 C349 1.398 . S
C350 C351 1.391 . S
C351 H339 0.950 . S
C351 C347 1.393 . S
C351 C350 1.391 . S
H352 C360 0.950 . S
H353 C365 0.950 . S
H354 C362 0.950 . S
H355 C364 0.950 . S
H356 C366 0.950 . S
H357 C368 0.950 . S
H358 C370 0.950 . S
H359 C371 0.950 . S
C360 H352 0.950 . S
C360 C361 1.386 . S
C360 C362 1.391 . S
C361 C360 1.386 . S
C361 C365 1.393 . S
C362 H354 0.950 . S
C362 C360 1.391 . S
C362 C363 1.400 . S
C363 C362 1.400 . S
C363 C364 1.398 . S
C363 C369 1.491 . S
C364 H355 0.950 . S
C364 C363 1.398 . S
C364 C365 1.391 . S
C365 H353 0.950 . S
C365 C361 1.393 . S
C365 C364 1.391 . S
C366 H356 0.950 . S
C366 C367 1.386 . S
C366 C368 1.391 . S
C367 C366 1.386 . S
C367 C371 1.393 . S
C368 H357 0.950 . S
C368 C366 1.391 . S
C368 C369 1.400 . S
C369 C363 1.491 . S
C369 C368 1.400 . S
C369 C370 1.398 . S
C370 H358 0.950 . S
C370 C369 1.398 . S
C370 C371 1.391 . S
C371 H359 0.950 . S
C371 C367 1.393 . S
C371 C370 1.391 . S
H372 C380 0.950 . S
H373 C385 0.950 . S
H374 C382 0.950 . S
H375 C384 0.950 . S
H376 C386 0.950 . S
H377 C388 0.950 . S
H378 C390 0.950 . S
H379 C391 0.950 . S
C380 H372 0.950 . S
C380 C381 1.386 . S
C380 C382 1.391 . S
C381 C380 1.386 . S
C381 C385 1.393 . S
C382 H374 0.950 . S
C382 C380 1.391 . S
C382 C383 1.400 . S
C383 C382 1.400 . S
C383 C384 1.398 . S
C383 C389 1.491 . S
C384 H375 0.950 . S
C384 C383 1.398 . S
C384 C385 1.391 . S
C385 H373 0.950 . S
C385 C381 1.393 . S
C385 C384 1.391 . S
C386 H376 0.950 . S
C386 C387 1.386 . S
C386 C388 1.391 . S
C387 C386 1.386 . S
C387 C391 1.393 . S
C388 H377 0.950 . S
C388 C386 1.391 . S
C388 C389 1.400 . S
C389 C383 1.491 . S
C389 C388 1.400 . S
C389 C390 1.398 . S
C390 H378 0.950 . S
C390 C389 1.398 . S
C390 C391 1.391 . S
C391 H379 0.950 . S
C391 C387 1.393 . S
C391 C390 1.391 . S
H392 C400 0.950 . S
H393 C405 0.950 . S
H394 C402 0.950 . S
H395 C404 0.950 . S
H396 C406 0.950 . S
H397 C408 0.950 . S
H398 C410 0.950 . S
H399 C411 0.950 1_556 S
C400 H392 0.950 . S
C400 C401 1.386 . S
C400 C402 1.391 . S
C401 C400 1.386 . S
C401 C405 1.393 . S
C402 H394 0.950 . S
C402 C400 1.391 . S
C402 C403 1.400 . S
C403 C402 1.400 . S
C403 C404 1.398 . S
C403 C409 1.491 . S
C404 H395 0.950 . S
C404 C403 1.398 . S
C404 C405 1.391 . S
C405 H393 0.950 . S
C405 C401 1.393 . S
C405 C404 1.391 . S
C406 H396 0.950 . S
C406 C407 1.386 . S
C406 C408 1.391 . S
C407 C406 1.386 . S
C407 C411 1.393 . S
C408 H397 0.950 . S
C408 C406 1.391 . S
C408 C409 1.400 . S
C409 C403 1.491 . S
C409 C408 1.400 . S
C409 C410 1.398 . S
C410 H398 0.950 . S
C410 C409 1.398 . S
C410 C411 1.391 . S
C411 H399 0.950 1_554 S
C411 C407 1.393 . S
C411 C410 1.391 . S
H412 C420 0.950 . S
H413 C425 0.950 . S
H414 C422 0.950 . S
H415 C424 0.950 . S
H416 C426 0.950 . S
H417 C428 0.950 . S
H418 C430 0.950 . S
H419 C431 0.950 . S
C420 H412 0.950 . S
C420 C421 1.386 . S
C420 C422 1.391 . S
C421 C420 1.386 . S
C421 C425 1.393 . S
C422 H414 0.950 . S
C422 C420 1.391 . S
C422 C423 1.400 . S
C423 C422 1.400 . S
C423 C424 1.398 . S
C423 C429 1.491 . S
C424 H415 0.950 . S
C424 C423 1.398 . S
C424 C425 1.391 . S
C425 H413 0.950 . S
C425 C421 1.393 . S
C425 C424 1.391 . S
C426 H416 0.950 . S
C426 C427 1.386 . S
C426 C428 1.391 . S
C427 C426 1.386 . S
C427 C431 1.393 . S
C428 H417 0.950 . S
C428 C426 1.391 . S
C428 C429 1.400 . S
C429 C423 1.491 . S
C429 C428 1.400 . S
C429 C430 1.398 . S
C430 H418 0.950 . S
C430 C429 1.398 . S
C430 C431 1.391 . S
C431 H419 0.950 . S
C431 C427 1.393 . S
C431 C430 1.391 . S
H432 C440 0.950 . S
H433 C445 0.950 . S
H434 C442 0.950 . S
H435 C444 0.950 . S
H436 C446 0.950 . S
H437 C448 0.950 . S
H438 C450 0.950 . S
H439 C451 0.950 . S
C440 H432 0.950 . S
C440 C441 1.386 . S
C440 C442 1.391 . S
C441 C440 1.386 . S
C441 C445 1.393 . S
C442 H434 0.950 . S
C442 C440 1.391 . S
C442 C443 1.400 . S
C443 C442 1.400 . S
C443 C444 1.398 . S
C443 C449 1.491 . S
C444 H435 0.950 . S
C444 C443 1.398 . S
C444 C445 1.391 . S
C445 H433 0.950 . S
C445 C441 1.393 . S
C445 C444 1.391 . S
C446 H436 0.950 . S
C446 C447 1.386 . S
C446 C448 1.391 . S
C447 C446 1.386 . S
C447 C451 1.393 . S
C448 H437 0.950 . S
C448 C446 1.391 . S
C448 C449 1.400 . S
C449 C443 1.491 . S
C449 C448 1.400 . S
C449 C450 1.398 . S
C450 H438 0.950 . S
C450 C449 1.398 . S
C450 C451 1.391 . S
C451 H439 0.950 . S
C451 C447 1.393 . S
C451 C450 1.391 . S
H452 C460 0.950 . S
H453 C465 0.950 . S
H454 C462 0.950 . S
H455 C464 0.950 . S
H456 C466 0.950 . S
H457 C468 0.950 . S
H458 C470 0.950 . S
H459 C471 0.950 . S
C460 H452 0.950 . S
C460 C461 1.386 . S
C460 C462 1.391 . S
C461 C460 1.386 . S
C461 C465 1.393 . S
C462 H454 0.950 . S
C462 C460 1.391 . S
C462 C463 1.400 . S
C463 C462 1.400 . S
C463 C464 1.398 . S
C463 C469 1.491 . S
C464 H455 0.950 . S
C464 C463 1.398 . S
C464 C465 1.391 . S
C465 H453 0.950 . S
C465 C461 1.393 . S
C465 C464 1.391 . S
C466 H456 0.950 . S
C466 C467 1.386 . S
C466 C468 1.391 . S
C467 C466 1.386 . S
C467 C471 1.393 . S
C468 H457 0.950 . S
C468 C466 1.391 . S
C468 C469 1.400 . S
C469 C463 1.491 . S
C469 C468 1.400 . S
C469 C470 1.398 . S
C470 H458 0.950 . S
C470 C469 1.398 . S
C470 C471 1.391 . S
C471 H459 0.950 . S
C471 C467 1.393 . S
C471 C470 1.391 . S
H472 C480 0.950 . S
H473 C485 0.950 . S
H474 C482 0.950 . S
H475 C484 0.950 . S
H476 C486 0.950 1_545 S
H477 C488 0.950 1_545 S
H478 C490 0.950 . S
H479 C491 0.950 . S
C480 H472 0.950 . S
C480 C481 1.386 . S
C480 C482 1.391 . S
C481 C480 1.386 . S
C481 C485 1.393 . S
C482 H474 0.950 . S
C482 C480 1.391 . S
C482 C483 1.400 . S
C483 C482 1.400 . S
C483 C484 1.398 . S
C483 C489 1.491 . S
C484 H475 0.950 . S
C484 C483 1.398 . S
C484 C485 1.391 . S
C485 H473 0.950 . S
C485 C481 1.393 . S
C485 C484 1.391 . S
C486 H476 0.950 1_565 S
C486 C487 1.386 . S
C486 C488 1.391 . S
C487 C486 1.386 . S
C487 C491 1.393 . S
C488 H477 0.950 1_565 S
C488 C486 1.391 . S
C488 C489 1.400 . S
C489 C483 1.491 . S
C489 C488 1.400 . S
C489 C490 1.398 . S
C490 H478 0.950 . S
C490 C489 1.398 . S
C490 C491 1.391 . S
C491 H479 0.950 . S
C491 C487 1.393 . S
C491 C490 1.391 . S
H492 C500 0.950 . S
H493 C505 0.950 . S
H494 C502 0.950 . S
H495 C504 0.950 . S
H496 C506 0.950 . S
H497 C508 0.950 . S
H498 C510 0.950 . S
H499 C511 0.950 . S
C500 H492 0.950 . S
C500 C501 1.386 . S
C500 C502 1.391 . S
C501 C500 1.386 . S
C501 C505 1.393 . S
C502 H494 0.950 . S
C502 C500 1.391 . S
C502 C503 1.400 . S
C503 C502 1.400 . S
C503 C504 1.398 . S
C503 C509 1.491 . S
C504 H495 0.950 . S
C504 C503 1.398 . S
C504 C505 1.391 . S
C505 H493 0.950 . S
C505 C501 1.393 . S
C505 C504 1.391 . S
C506 H496 0.950 . S
C506 C507 1.386 . S
C506 C508 1.391 . S
C507 C506 1.386 . S
C507 C511 1.393 . S
C508 H497 0.950 . S
C508 C506 1.391 . S
C508 C509 1.400 . S
C509 C503 1.491 . S
C509 C508 1.400 . S
C509 C510 1.398 . S
C510 H498 0.950 . S
C510 C509 1.398 . S
C510 C511 1.391 . S
C511 H499 0.950 . S
C511 C507 1.393 . S
C511 C510 1.391 . S
H512 C520 0.950 . S
H513 C525 0.950 . S
H514 C522 0.950 . S
H515 C524 0.950 . S
H516 C526 0.950 . S
H517 C528 0.950 . S
H518 C530 0.950 . S
H519 C531 0.950 . S
C520 H512 0.950 . S
C520 C521 1.386 . S
C520 C522 1.391 . S
C521 C520 1.386 . S
C521 C525 1.393 . S
C522 H514 0.950 . S
C522 C520 1.391 . S
C522 C523 1.400 . S
C523 C522 1.400 . S
C523 C524 1.398 . S
C523 C529 1.491 . S
C524 H515 0.950 . S
C524 C523 1.398 . S
C524 C525 1.391 . S
C525 H513 0.950 . S
C525 C521 1.393 . S
C525 C524 1.391 . S
C526 H516 0.950 . S
C526 C527 1.386 . S
C526 C528 1.391 . S
C527 C526 1.386 . S
C527 C531 1.393 . S
C528 H517 0.950 . S
C528 C526 1.391 . S
C528 C529 1.400 . S
C529 C523 1.491 . S
C529 C528 1.400 . S
C529 C530 1.398 . S
C530 H518 0.950 . S
C530 C529 1.398 . S
C530 C531 1.391 . S
C531 H519 0.950 . S
C531 C527 1.393 . S
C531 C530 1.391 . S
H532 C540 0.950 . S
H533 C545 0.950 . S
H534 C542 0.950 . S
H535 C544 0.950 . S
H536 C546 0.950 . S
H537 C548 0.950 . S
H538 C550 0.950 . S
H539 C551 0.950 . S
C540 H532 0.950 . S
C540 C541 1.386 . S
C540 C542 1.391 . S
C541 C540 1.386 . S
C541 C545 1.393 . S
C542 H534 0.950 . S
C542 C540 1.391 . S
C542 C543 1.400 . S
C543 C542 1.400 . S
C543 C544 1.398 . S
C543 C549 1.491 . S
C544 H535 0.950 . S
C544 C543 1.398 . S
C544 C545 1.391 . S
C545 H533 0.950 . S
C545 C541 1.393 . S
C545 C544 1.391 . S
C546 H536 0.950 . S
C546 C547 1.386 . S
C546 C548 1.391 . S
C547 C546 1.386 . S
C547 C551 1.393 . S
C548 H537 0.950 . S
C548 C546 1.391 . S
C548 C549 1.400 . S
C549 C543 1.491 . S
C549 C548 1.400 . S
C549 C550 1.398 . S
C550 H538 0.950 . S
C550 C549 1.398 . S
C550 C551 1.391 . S
C551 H539 0.950 . S
C551 C547 1.393 . S
C551 C550 1.391 . S
H552 C560 0.950 . S
H553 C565 0.950 . S
H554 C562 0.950 . S
H555 C564 0.950 1_545 S
H556 C566 0.950 . S
H557 C568 0.950 1_545 S
H558 C570 0.950 . S
H559 C571 0.950 . S
C560 H552 0.950 . S
C560 C561 1.386 . S
C560 C562 1.391 . S
C561 C560 1.386 . S
C561 C565 1.393 . S
C562 H554 0.950 . S
C562 C560 1.391 . S
C562 C563 1.400 . S
C563 C562 1.400 . S
C563 C564 1.398 . S
C563 C569 1.491 . S
C564 H555 0.950 1_565 S
C564 C563 1.398 . S
C564 C565 1.391 . S
C565 H553 0.950 . S
C565 C561 1.393 . S
C565 C564 1.391 . S
C566 H556 0.950 . S
C566 C567 1.386 1_545 S
C566 C568 1.391 1_545 S
C567 C566 1.386 1_565 S
C567 C571 1.393 . S
C568 H557 0.950 1_565 S
C568 C566 1.391 1_565 S
C568 C569 1.400 . S
C569 C563 1.491 . S
C569 C568 1.400 . S
C569 C570 1.398 . S
C570 H558 0.950 . S
C570 C569 1.398 . S
C570 C571 1.391 . S
C571 H559 0.950 . S
C571 C567 1.393 . S
C571 C570 1.391 . S
H572 C580 0.950 . S
H573 C585 0.950 . S
H574 C582 0.950 . S
H575 C584 0.950 . S
H576 C586 0.950 . S
H577 C588 0.950 . S
H578 C590 0.950 . S
H579 C591 0.950 1_565 S
C580 H572 0.950 . S
C580 C581 1.386 . S
C580 C582 1.391 . S
C581 C580 1.386 . S
C581 C585 1.393 . S
C582 H574 0.950 . S
C582 C580 1.391 . S
C582 C583 1.400 . S
C583 C582 1.400 . S
C583 C584 1.398 . S
C583 C589 1.491 . S
C584 H575 0.950 . S
C584 C583 1.398 . S
C584 C585 1.391 . S
C585 H573 0.950 . S
C585 C581 1.393 . S
C585 C584 1.391 . S
C586 H576 0.950 . S
C586 C587 1.386 . S
C586 C588 1.391 . S
C587 C586 1.386 . S
C587 C591 1.393 . S
C588 H577 0.950 . S
C588 C586 1.391 . S
C588 C589 1.400 . S
C589 C583 1.491 . S
C589 C588 1.400 . S
C589 C590 1.398 . S
C590 H578 0.950 . S
C590 C589 1.398 . S
C590 C591 1.391 . S
C591 H579 0.950 1_545 S
C591 C587 1.393 . S
C591 C590 1.391 . S
H592 C600 0.950 . S
H593 C605 0.950 . S
H594 C602 0.950 . S
H595 C604 0.950 . S
H596 C606 0.950 1_556 S
H597 C608 0.950 . S
H598 C610 0.950 . S
H599 C611 0.950 . S
C600 H592 0.950 . S
C600 C601 1.386 . S
C600 C602 1.391 . S
C601 C600 1.386 . S
C601 C605 1.393 . S
C602 H594 0.950 . S
C602 C600 1.391 . S
C602 C603 1.400 . S
C603 C602 1.400 . S
C603 C604 1.398 . S
C603 C609 1.491 . S
C604 H595 0.950 . S
C604 C603 1.398 . S
C604 C605 1.391 . S
C605 H593 0.950 . S
C605 C601 1.393 . S
C605 C604 1.391 . S
C606 H596 0.950 1_554 S
C606 C607 1.386 . S
C606 C608 1.391 . S
C607 C606 1.386 . S
C607 C611 1.393 . S
C608 H597 0.950 . S
C608 C606 1.391 . S
C608 C609 1.400 . S
C609 C603 1.491 . S
C609 C608 1.400 . S
C609 C610 1.398 . S
C610 H598 0.950 . S
C610 C609 1.398 . S
C610 C611 1.391 . S
C611 H599 0.950 . S
C611 C607 1.393 . S
C611 C610 1.391 . S
H612 C620 0.950 . S
H613 C625 0.950 . S
H614 C622 0.950 . S
H615 C624 0.950 . S
H616 C626 0.950 . S
H617 C628 0.950 . S
H618 C630 0.950 . S
H619 C631 0.950 . S
C620 H612 0.950 . S
C620 C621 1.386 . S
C620 C622 1.391 . S
C621 C620 1.386 . S
C621 C625 1.393 . S
C622 H614 0.950 . S
C622 C620 1.391 . S
C622 C623 1.400 . S
C623 C622 1.400 . S
C623 C624 1.398 . S
C623 C629 1.491 . S
C624 H615 0.950 . S
C624 C623 1.398 . S
C624 C625 1.391 . S
C625 H613 0.950 . S
C625 C621 1.393 . S
C625 C624 1.391 . S
C626 H616 0.950 . S
C626 C627 1.386 . S
C626 C628 1.391 . S
C627 C626 1.386 . S
C627 C631 1.393 . S
C628 H617 0.950 . S
C628 C626 1.391 . S
C628 C629 1.400 . S
C629 C623 1.491 . S
C629 C628 1.400 . S
C629 C630 1.398 . S
C630 H618 0.950 . S
C630 C629 1.398 . S
C630 C631 1.391 . S
C631 H619 0.950 . S
C631 C627 1.393 . S
C631 C630 1.391 . S
H632 C640 0.950 . S
H633 C645 0.950 . S
H634 C642 0.950 1_455 S
H635 C644 0.950 . S
H636 C646 0.950 . S
H637 C648 0.950 . S
H638 C650 0.951 . S
H639 C651 0.950 . S
C640 H632 0.950 . S
C640 C641 1.386 . S
C640 C642 1.391 . S
C641 C640 1.386 . S
C641 C645 1.393 . S
C642 H634 0.950 1_655 S
C642 C640 1.391 . S
C642 C643 1.400 . S
C643 C642 1.400 . S
C643 C644 1.398 . S
C643 C649 1.491 . S
C644 H635 0.950 . S
C644 C643 1.398 . S
C644 C645 1.391 . S
C645 H633 0.950 . S
C645 C641 1.393 . S
C645 C644 1.391 . S
C646 H636 0.950 . S
C646 C647 1.386 . S
C646 C648 1.391 . S
C647 C646 1.386 . S
C647 C651 1.393 1_655 S
C648 H637 0.950 . S
C648 C646 1.391 . S
C648 C649 1.400 . S
C649 C643 1.491 . S
C649 C648 1.400 . S
C649 C650 1.396 1_655 S
C650 H638 0.951 . S
C650 C649 1.396 1_455 S
C650 C651 1.391 . S
C651 H639 0.950 . S
C651 C647 1.393 1_455 S
C651 C650 1.391 . S
H652 C660 0.950 . S
H653 C665 0.950 . S
H654 C662 0.950 . S
H655 C664 0.950 . S
H656 C666 0.950 . S
H657 C668 0.950 . S
H658 C670 0.950 . S
H659 C671 0.950 . S
C660 H652 0.950 . S
C660 C661 1.386 . S
C660 C662 1.391 . S
C661 C660 1.386 . S
C661 C665 1.393 . S
C662 H654 0.950 . S
C662 C660 1.391 . S
C662 C663 1.400 . S
C663 C662 1.400 . S
C663 C664 1.398 . S
C663 C669 1.491 . S
C664 H655 0.950 . S
C664 C663 1.398 . S
C664 C665 1.391 . S
C665 H653 0.950 . S
C665 C661 1.393 . S
C665 C664 1.391 . S
C666 H656 0.950 . S
C666 C667 1.386 . S
C666 C668 1.391 . S
C667 C666 1.386 . S
C667 C671 1.393 . S
C668 H657 0.950 . S
C668 C666 1.391 . S
C668 C669 1.400 . S
C669 C663 1.491 . S
C669 C668 1.400 . S
C669 C670 1.398 . S
C670 H658 0.950 . S
C670 C669 1.398 . S
C670 C671 1.391 . S
C671 H659 0.950 . S
C671 C667 1.393 . S
C671 C670 1.391 . S
H672 C680 0.950 . S
H673 C685 0.950 . S
H674 C682 0.950 . S
H675 C684 0.950 . S
H676 C686 0.950 . S
H677 C688 0.950 . S
H678 C690 0.950 . S
H679 C691 0.950 . S
C680 H672 0.950 . S
C680 C681 1.386 . S
C680 C682 1.391 . S
C681 C680 1.386 . S
C681 C685 1.393 . S
C682 H674 0.950 . S
C682 C680 1.391 . S
C682 C683 1.400 . S
C683 C682 1.400 . S
C683 C684 1.398 . S
C683 C689 1.491 . S
C684 H675 0.950 . S
C684 C683 1.398 . S
C684 C685 1.391 . S
C685 H673 0.950 . S
C685 C681 1.393 . S
C685 C684 1.391 . S
C686 H676 0.950 . S
C686 C687 1.386 . S
C686 C688 1.391 . S
C687 C686 1.386 . S
C687 C691 1.393 . S
C688 H677 0.950 . S
C688 C686 1.391 . S
C688 C689 1.400 . S
C689 C683 1.491 . S
C689 C688 1.400 . S
C689 C690 1.398 . S
C690 H678 0.950 . S
C690 C689 1.398 . S
C690 C691 1.391 . S
C691 H679 0.950 . S
C691 C687 1.393 . S
C691 C690 1.391 . S
H692 C700 0.950 . S
H693 C705 0.950 . S
H694 C702 0.950 . S
H695 C704 0.950 . S
H696 C706 0.950 . S
H697 C708 0.950 . S
H698 C710 0.950 . S
H699 C711 0.950 . S
C700 H692 0.950 . S
C700 C701 1.386 . S
C700 C702 1.391 . S
C701 C700 1.386 . S
C701 C705 1.393 . S
C702 H694 0.950 . S
C702 C700 1.391 . S
C702 C703 1.400 . S
C703 C702 1.400 . S
C703 C704 1.398 . S
C703 C709 1.491 . S
C704 H695 0.950 . S
C704 C703 1.398 . S
C704 C705 1.391 . S
C705 H693 0.950 . S
C705 C701 1.393 . S
C705 C704 1.391 . S
C706 H696 0.950 . S
C706 C707 1.386 . S
C706 C708 1.391 . S
C707 C706 1.386 . S
C707 C711 1.393 . S
C708 H697 0.950 . S
C708 C706 1.391 . S
C708 C709 1.400 . S
C709 C703 1.491 . S
C709 C708 1.400 . S
C709 C710 1.398 . S
C710 H698 0.950 . S
C710 C709 1.398 . S
C710 C711 1.391 . S
C711 H699 0.950 . S
C711 C707 1.393 . S
C711 C710 1.391 . S
C241 C6 2.494 . S
C247 C96 2.500 . S
C261 C18 2.559 . S
C267 C138 2.589 . S
C287 C168 0.935 . S
C281 C28 0.920 . S
C301 C40 0.649 . S
C307 C202 0.647 . S
C327 C159 2.112 . S
C321 C9 2.103 . S
C347 C113 1.848 . S
C341 C16 1.838 . S
C367 C206 1.295 . S
C361 C30 1.291 . S
C387 C172 0.976 . S
C381 C42 0.969 . S
C401 C4 2.135 . S
C407 C227 2.156 . S
C427 C134 1.145 . S
C421 C33 1.143 . S
C441 C45 0.956 . S
C447 C109 0.953 . S
C461 C21 2.415 . S
C467 C193 2.426 . S
C487 C125 2.557 . S
C481 C57 2.546 . S
C501 C66 2.564 . S
C507 C147 2.571 . S
C521 C76 0.951 . S
C527 C177 0.965 . S
C541 C88 0.612 . S
C547 C211 0.611 . S
C561 C54 2.077 . S
C567 C130 2.084 . S
C587 C104 1.881 . S
C581 C64 1.857 . S
C607 C215 1.157 . S
C601 C78 1.129 . S
C627 C181 0.997 . S
C621 C93 0.979 . S
C641 C52 2.101 . S
C647 C198 2.110 . S
C667 C143 1.124 . S
C661 C81 1.114 . S
C687 C100 0.957 . S
C681 C90 0.942 . S
C701 C69 2.449 . S
C707 C164 2.454 . S
