# Generated by pormake.
# Topology ctn, (3,4)-cn, num edge types: 1
# Building blocks:
#     Node 0, Type 0, BuildingBlock: PAMTOO_clean_linker_0, # of connection points: 3
#     Node 1, Type 0, BuildingBlock: PAMTOO_clean_linker_0, # of connection points: 3
#     Node 2, Type 0, BuildingBlock: PAMTOO_clean_linker_0, # of connection points: 3
#     Node 3, Type 0, BuildingBlock: PAMTOO_clean_linker_0, # of connection points: 3
#     Node 4, Type 0, BuildingBlock: PAMTOO_clean_linker_0, # of connection points: 3
#     Node 5, Type 0, BuildingBlock: PAMTOO_clean_linker_0, # of connection points: 3
#     Node 6, Type 0, BuildingBlock: PAMTOO_clean_linker_0, # of connection points: 3
#     Node 7, Type 0, BuildingBlock: PAMTOO_clean_linker_0, # of connection points: 3
#     Node 8, Type 0, BuildingBlock: PAMTOO_clean_linker_0, # of connection points: 3
#     Node 9, Type 0, BuildingBlock: PAMTOO_clean_linker_0, # of connection points: 3
#     Node 10, Type 0, BuildingBlock: PAMTOO_clean_linker_0, # of connection points: 3
#     Node 11, Type 0, BuildingBlock: PAMTOO_clean_linker_0, # of connection points: 3
#     Node 12, Type 0, BuildingBlock: PAMTOO_clean_linker_0, # of connection points: 3
#     Node 13, Type 0, BuildingBlock: PAMTOO_clean_linker_0, # of connection points: 3
#     Node 14, Type 0, BuildingBlock: PAMTOO_clean_linker_0, # of connection points: 3
#     Node 15, Type 0, BuildingBlock: PAMTOO_clean_linker_0, # of connection points: 3
#     Node 16, Type 1, BuildingBlock: NAHDIM_clean_sbu_0, # of connection points: 4
#     Node 17, Type 1, BuildingBlock: NAHDIM_clean_sbu_0, # of connection points: 4
#     Node 18, Type 1, BuildingBlock: NAHDIM_clean_sbu_0, # of connection points: 4
#     Node 19, Type 1, BuildingBlock: NAHDIM_clean_sbu_0, # of connection points: 4
#     Node 20, Type 1, BuildingBlock: NAHDIM_clean_sbu_0, # of connection points: 4
#     Node 21, Type 1, BuildingBlock: NAHDIM_clean_sbu_0, # of connection points: 4
#     Node 22, Type 1, BuildingBlock: NAHDIM_clean_sbu_0, # of connection points: 4
#     Node 23, Type 1, BuildingBlock: NAHDIM_clean_sbu_0, # of connection points: 4
#     Node 24, Type 1, BuildingBlock: NAHDIM_clean_sbu_0, # of connection points: 4
#     Node 25, Type 1, BuildingBlock: NAHDIM_clean_sbu_0, # of connection points: 4
#     Node 26, Type 1, BuildingBlock: NAHDIM_clean_sbu_0, # of connection points: 4
#     Node 27, Type 1, BuildingBlock: NAHDIM_clean_sbu_0, # of connection points: 4
#     Edge 28, Type (0, 1), None
#     Edge 29, Type (0, 1), None
#     Edge 30, Type (0, 1), None
#     Edge 31, Type (0, 1), None
#     Edge 32, Type (0, 1), None
#     Edge 33, Type (0, 1), None
#     Edge 34, Type (0, 1), None
#     Edge 35, Type (0, 1), None
#     Edge 36, Type (0, 1), None
#     Edge 37, Type (0, 1), None
#     Edge 38, Type (0, 1), None
#     Edge 39, Type (0, 1), None
#     Edge 40, Type (0, 1), None
#     Edge 41, Type (0, 1), None
#     Edge 42, Type (0, 1), None
#     Edge 43, Type (0, 1), None
#     Edge 44, Type (0, 1), None
#     Edge 45, Type (0, 1), None
#     Edge 46, Type (0, 1), None
#     Edge 47, Type (0, 1), None
#     Edge 48, Type (0, 1), None
#     Edge 49, Type (0, 1), None
#     Edge 50, Type (0, 1), None
#     Edge 51, Type (0, 1), None
#     Edge 52, Type (0, 1), None
#     Edge 53, Type (0, 1), None
#     Edge 54, Type (0, 1), None
#     Edge 55, Type (0, 1), None
#     Edge 56, Type (0, 1), None
#     Edge 57, Type (0, 1), None
#     Edge 58, Type (0, 1), None
#     Edge 59, Type (0, 1), None
#     Edge 60, Type (0, 1), None
#     Edge 61, Type (0, 1), None
#     Edge 62, Type (0, 1), None
#     Edge 63, Type (0, 1), None
#     Edge 64, Type (0, 1), None
#     Edge 65, Type (0, 1), None
#     Edge 66, Type (0, 1), None
#     Edge 67, Type (0, 1), None
#     Edge 68, Type (0, 1), None
#     Edge 69, Type (0, 1), None
#     Edge 70, Type (0, 1), None
#     Edge 71, Type (0, 1), None
#     Edge 72, Type (0, 1), None
#     Edge 73, Type (0, 1), None
#     Edge 74, Type (0, 1), None
#     Edge 75, Type (0, 1), None
# Relax obj value: 0.076
# Max RMSD: 0.180
# Mean RMSD: 0.110
data_MOF--net-ctn--node1-NAHDIM_clean_sbu_0--node2-PAMTOO_clean_linker_0--edge1-none
_symmetry_space_group_name_H-M    P1
_symmetry_Int_Tables_number       1
_symmetry_cell_setting            triclinic
loop_
_symmetry_equiv_pos_as_xyz
'x, y, z'
_cell_length_a     22.359047
_cell_length_b     23.435762
_cell_length_c     23.726235
_cell_angle_alpha  84.010043
_cell_angle_beta   93.985458
_cell_angle_gamma 103.06793
loop_
_atom_site_label
_atom_site_type_symbol
_atom_site_fract_x
_atom_site_fract_y
_atom_site_fract_z
_atom_type_partial_charge
H0 H 0.95625 0.1301 0.09368 0.0
H1 H 0.05519 0.99165 0.13328 0.0
H2 H 0.08553 0.10207 0.97846 0.0
H3 H 0.07246 0.98515 0.9625 0.0
C4 C 0.09113 0.96751 0.00369 0.0
O5 O 0.11198 0.01199 0.03855 0.0
H6 H 0.05459 0.93304 0.02452 0.0
C7 C 0.98926 0.10608 0.08269 0.0
C8 C 0.01917 0.12228 0.03144 0.0
C9 C 1.00267 0.05946 0.12021 0.0
C10 C 0.04515 0.02843 0.10556 0.0
C11 C 0.07401 0.04386 0.05423 0.0
C12 C 0.06218 0.09113 0.01798 0.0
H13 H 0.35497 0.63137 0.29054 0.0
H14 H 0.26401 0.66748 0.12835 0.0
H15 H 0.42008 0.7925 0.18528 0.0
H16 H 0.31563 0.83742 0.15123 0.0
C17 C 0.29878 0.81278 0.11351 0.0
O18 O 0.33296 0.77176 0.1082 0.0
H19 H 0.24969 0.79024 0.11829 0.0
C20 C 0.35152 0.65964 0.25185 0.0
C21 C 0.39443 0.71393 0.24297 0.0
C22 C 0.3048 0.64162 0.20987 0.0
C23 C 0.30063 0.67908 0.1603 0.0
C24 C 0.34162 0.73333 0.15255 0.0
C25 C 0.38899 0.74997 0.19274 0.0
H26 H 0.98513 0.56473 0.13621 0.0
H27 H 0.93141 0.45475 0.99812 0.0
H28 H 0.07836 0.42613 0.1144 0.0
H29 H 0.09317 0.42172 0.98743 0.0
C30 C 0.04527 0.39801 0.97715 0.0
O31 O 1.01132 0.39066 0.02484 0.0
H32 H 0.02419 0.42376 0.94237 0.0
C33 C 0.99127 0.5293 0.11288 0.0
C34 C 0.03716 0.49742 0.13191 0.0
C35 C 0.95252 0.51467 0.06424 0.0
C36 C 0.96055 0.46775 0.03509 0.0
C37 C 1.00593 0.43656 0.05293 0.0
C38 C 0.04401 0.45138 0.10096 0.0
H39 H 0.72819 0.90069 0.30383 0.0
H40 H 0.66798 0.7172 0.2759 0.0
H41 H 0.8312 0.81976 0.20095 0.0
H42 H 0.70847 0.73808 0.13894 0.0
C43 C 0.73041 0.70238 0.15936 0.0
O44 O 0.75817 0.71652 0.21139 0.0
H45 H 0.6941 0.66152 0.16588 0.0
C46 C 0.73443 0.86234 0.28507 0.0
C47 C 0.7851 0.86704 0.25152 0.0
C48 C 0.69153 0.80862 0.29422 0.0
C49 C 0.70027 0.75916 0.26963 0.0
C50 C 0.75059 0.76366 0.23608 0.0
C51 C 0.79271 0.81728 0.22714 0.0
H52 H 0.14724 0.91397 0.59024 0.0
H53 H 1.00324 0.88645 0.45868 0.0
H54 H 0.15654 0.03227 0.4375 0.0
H55 H 0.04237 0.06529 0.38841 0.0
C56 C 1.01358 0.01987 0.39358 0.0
O57 O 0.0508 0.98018 0.39429 0.0
H58 H 0.98899 0.01426 0.43373 0.0
C59 C 0.12796 0.92691 0.54898 0.0
C60 C 0.15969 0.97688 0.5163 0.0
C61 C 0.0717 0.8933 0.52829 0.0
C62 C 0.047 0.91079 0.47504 0.0
C63 C 0.07754 0.96102 0.44308 0.0
C64 C 0.13409 0.99319 0.46296 0.0
H65 H 0.16711 0.84608 0.82541 0.0
H66 H 0.19309 0.70513 0.7334 0.0
H67 H 0.32817 0.77355 0.85994 0.0
H68 H 0.3763 0.75233 0.75408 0.0
C69 C 0.34144 0.71215 0.74417 0.0
O70 O 0.29801 0.69812 0.78465 0.0
H71 H 0.31914 0.71966 0.70151 0.0
C72 C 0.19431 0.81532 0.817 0.0
C73 C 0.25011 0.81472 0.84803 0.0
C74 C 0.173 0.77584 0.77567 0.0
C75 C 0.20821 0.73584 0.76534 0.0
C76 C 0.26414 0.73598 0.79534 0.0
C77 C 0.28495 0.77487 0.83672 0.0
H78 H 0.92383 0.60319 0.56811 0.0
H79 H 0.95932 0.49776 0.44154 0.0
H80 H 0.10373 0.63517 0.50026 0.0
H81 H 0.08097 0.62549 0.37345 0.0
C82 C 0.0726 0.5767 0.37463 0.0
O83 O 0.07337 0.55272 0.43019 0.0
H84 H 0.02695 0.56017 0.35335 0.0
C85 C 0.95528 0.59244 0.54024 0.0
C86 C 1.01644 0.62474 0.53916 0.0
C87 C 0.93399 0.54686 0.50506 0.0
C88 C 0.97476 0.53289 0.46903 0.0
C89 C 0.03569 0.56475 0.46735 0.0
C90 C 0.05657 0.61053 0.50238 0.0
H91 H 0.71683 0.80243 0.93536 0.0
H92 H 0.86427 0.73695 0.87539 0.0
H93 H 0.80028 0.87759 0.77813 0.0
H94 H 0.82409 0.79477 0.70994 0.0
C95 C 0.86141 0.77821 0.73534 0.0
O96 O 0.87717 0.80884 0.78275 0.0
H97 H 0.84557 0.7305 0.74874 0.0
C98 C 0.75029 0.80393 0.90402 0.0
C99 C 0.75323 0.84538 0.85584 0.0
C100 C 0.79034 0.76439 0.91192 0.0
C101 C 0.8335 0.76701 0.87082 0.0
C102 C 0.83626 0.80737 0.8226 0.0
C103 C 0.7967 0.84638 0.81547 0.0
H104 H 0.22151 0.30548 0.43614 0.0
H105 H 0.35738 0.22812 0.37097 0.0
H106 H 0.29418 0.36818 0.27177 0.0
H107 H 0.30643 0.27565 0.20689 0.0
C108 C 0.34558 0.26054 0.23058 0.0
O109 O 0.36626 0.29479 0.27497 0.0
H110 H 0.32994 0.21372 0.24719 0.0
C111 C 0.25181 0.30352 0.40302 0.0
C112 C 0.25298 0.3426 0.3532 0.0
C113 C 0.28945 0.26182 0.41028 0.0
C114 C 0.32854 0.25992 0.36688 0.0
C115 C 0.32939 0.29779 0.31697 0.0
C116 C 0.29214 0.33894 0.31044 0.0
H117 H 0.48403 0.06381 0.63693 0.0
H118 H 0.43109 0.95394 0.49866 0.0
H119 H 0.57831 0.92601 0.61489 0.0
H120 H 0.5928 0.92258 0.48643 0.0
C121 C 0.54495 0.89808 0.47724 0.0
O122 O 0.51144 0.89038 0.52525 0.0
H123 H 0.52349 0.92378 0.44268 0.0
C124 C 0.49044 0.02851 0.61354 0.0
C125 C 0.53656 0.99689 0.63255 0.0
C126 C 0.45181 0.0138 0.56483 0.0
C127 C 0.46015 0.96703 0.53566 0.0
C128 C 0.50576 0.93612 0.55344 0.0
C129 C 0.54378 0.95106 0.60148 0.0
H130 H 0.2282 0.40063 0.80365 0.0
H131 H 0.16876 0.21668 0.77717 0.0
H132 H 0.33184 0.31911 0.70193 0.0
H133 H 0.20851 0.23532 0.64034 0.0
C134 C 0.23159 0.20071 0.6614 0.0
O135 O 0.25931 0.21573 0.71319 0.0
H136 H 0.19559 0.15969 0.66846 0.0
C137 C 0.23461 0.36214 0.78525 0.0
C138 C 0.28541 0.3667 0.75187 0.0
C139 C 0.19184 0.30834 0.79471 0.0
C140 C 0.20088 0.25871 0.7706 0.0
C141 C 0.2513 0.26309 0.73721 0.0
C142 C 0.29323 0.31676 0.72794 0.0
H143 H 0.85376 0.1314 0.79213 0.0
H144 H 0.76286 0.16786 0.63002 0.0
H145 H 0.92065 0.29151 0.686 0.0
H146 H 0.81913 0.33849 0.65216 0.0
C147 C 0.80023 0.31368 0.61498 0.0
O148 O 0.83302 0.2716 0.60939 0.0
H149 H 0.75097 0.29262 0.62108 0.0
C150 C 0.85055 0.15964 0.75337 0.0
C151 C 0.89414 0.21345 0.74415 0.0
C152 C 0.80359 0.14192 0.7115 0.0
C153 C 0.79969 0.17926 0.66182 0.0
C154 C 0.84133 0.23309 0.65378 0.0
C155 C 0.88904 0.24932 0.69375 0.0
H156 H 0.45544 0.62889 0.59202 0.0
H157 H 0.55629 0.49188 0.63157 0.0
H158 H 0.58659 0.60343 0.47741 0.0
H159 H 0.57652 0.48758 0.46019 0.0
C160 C 0.5938 0.46943 0.50177 0.0
O161 O 0.61385 0.51353 0.53717 0.0
H162 H 0.55636 0.43508 0.52151 0.0
C163 C 0.48896 0.60541 0.5811 0.0
C164 C 0.51919 0.62228 0.53009 0.0
C165 C 0.50274 0.55888 0.61851 0.0
C166 C 0.54592 0.52857 0.60393 0.0
C167 C 0.57519 0.54471 0.55284 0.0
C168 C 0.56295 0.59192 0.51674 0.0
H169 H 0.6468 0.41705 0.09073 0.0
H170 H 0.50437 0.38869 0.95785 0.0
H171 H 0.65911 0.53295 0.93625 0.0
H172 H 0.54572 0.56649 0.88452 0.0
C173 C 0.51665 0.52131 0.89108 0.0
O174 O 0.55343 0.48114 0.89269 0.0
H175 H 0.49267 0.51726 0.93141 0.0
C176 C 0.62825 0.42946 0.04899 0.0
C177 C 0.66079 0.47872 0.01595 0.0
C178 C 0.57196 0.39602 0.02818 0.0
C179 C 0.54817 0.41285 0.97434 0.0
C180 C 0.57954 0.46232 0.94195 0.0
C181 C 0.63606 0.49438 0.96203 0.0
H182 H 0.66576 0.34581 0.32771 0.0
H183 H 0.68794 0.20614 0.23205 0.0
H184 H 0.82425 0.2691 0.35984 0.0
H185 H 0.87055 0.25186 0.25174 0.0
C186 C 0.83636 0.21106 0.24235 0.0
O187 O 0.79251 0.1961 0.28244 0.0
H188 H 0.81409 0.21836 0.19964 0.0
C189 C 0.69201 0.31456 0.31849 0.0
C190 C 0.74757 0.31217 0.34924 0.0
C191 C 0.66975 0.27634 0.27633 0.0
C192 C 0.70376 0.23579 0.26479 0.0
C193 C 0.75948 0.23411 0.29457 0.0
C194 C 0.78117 0.27168 0.33691 0.0
H195 H 0.41604 0.10804 0.06891 0.0
H196 H 0.45794 0.99853 0.949 0.0
H197 H 0.59948 0.13729 0.00928 0.0
H198 H 0.58267 0.12192 0.88124 0.0
C199 C 0.57466 0.07305 0.88528 0.0
O200 O 0.57279 0.05235 0.94184 0.0
H201 H 0.53005 0.05427 0.86326 0.0
C202 C 0.44883 0.09642 0.04309 0.0
C203 C 0.51016 0.1284 0.04395 0.0
C204 C 0.4293 0.04983 0.00872 0.0
C205 C 0.47193 0.03463 0.97556 0.0
C206 C 0.53297 0.06625 0.97572 0.0
C207 C 0.55209 0.11306 0.00979 0.0
C208 C 0.14332 0.94153 0.99261 0.0
O209 O 0.13506 0.88436 0.99151 0.0
O210 O 0.23781 0.8884 0.90483 0.0
Zn211 Zn 0.26018 0.93111 0.97352 0.0
O212 O 0.34437 0.98278 0.96926 0.0
C213 C 0.30466 0.85553 0.06243 0.0
O214 O 0.35903 0.87989 0.04309 0.0
O215 O 0.19575 0.97449 0.9831 0.0
C216 C 0.36478 0.0167 0.00788 0.0
O217 O 0.32868 0.01983 0.04832 0.0
C218 C 0.27059 0.8539 0.89351 0.0
O219 O 0.32027 0.85042 0.92544 0.0
O220 O 0.25727 0.87159 0.04021 0.0
C221 C 0.21493 0.38808 0.34593 0.0
O222 O 0.1882 0.40009 0.38945 0.0
O223 O 0.12023 0.50707 0.33711 0.0
Zn224 Zn 0.17247 0.49028 0.27645 0.0
O225 O 0.24478 0.56086 0.26624 0.0
C226 C 0.07684 0.51076 0.18449 0.0
O227 O 0.07041 0.5535 0.21358 0.0
O228 O 0.21115 0.41809 0.29814 0.0
C229 C 0.25843 0.58546 0.21718 0.0
O230 O 0.22662 0.56341 0.17279 0.0
C231 C 0.12065 0.56074 0.34238 0.0
O232 O 0.15577 0.60231 0.31045 0.0
O233 O 0.11635 0.48021 0.2025 0.0
C234 C 0.90201 0.54546 0.04363 0.0
O235 O 0.86501 0.52621 0.00088 0.0
O236 O 0.82795 0.69146 0.97624 0.0
Zn237 Zn 0.81482 0.62209 0.03924 0.0
O238 O 0.74852 0.55854 0.00719 0.0
C239 C 0.77694 0.69369 0.12058 0.0
O240 O 0.8138 0.73943 0.09527 0.0
O241 O 0.89202 0.58884 0.06701 0.0
C242 C 0.7179 0.51635 0.03882 0.0
O243 O 0.73371 0.51061 0.09315 0.0
C244 C 0.78497 0.71875 0.96132 0.0
O245 O 0.73366 0.70376 0.9884 0.0
O246 O 0.7736 0.6427 0.10526 0.0
C247 C 0.86801 0.16184 0.24184 0.0
O248 O 0.9247 0.17218 0.22559 0.0
O249 O 0.95016 0.0545 0.31882 0.0
Zn250 Zn 0.88461 0.04588 0.2562 0.0
O251 O 0.82466 0.96799 0.26619 0.0
C252 C 0.97273 0.04351 0.1746 0.0
O253 O 0.99787 0.0148 0.21685 0.0
O254 O 0.84023 0.10969 0.2575 0.0
C255 C 0.82986 0.92367 0.24192 0.0
O256 O 0.87587 0.9285 0.20894 0.0
C257 C 0.96666 0.01055 0.34582 0.0
O258 O 0.93853 0.95703 0.33495 0.0
O259 O 0.92311 0.05892 0.18137 0.0
C260 C 0.40115 0.04435 0.54408 0.0
O261 O 0.36446 0.02508 0.50115 0.0
O262 O 0.32671 0.1889 0.47487 0.0
Zn263 Zn 0.31357 0.1205 0.53885 0.0
O264 O 0.24748 0.05654 0.50721 0.0
C265 C 0.27793 0.19163 0.62261 0.0
O266 O 0.31876 0.23672 0.60123 0.0
O267 O 0.3908 0.08762 0.5674 0.0
C268 C 0.21691 0.01446 0.53899 0.0
O269 O 0.2328 0.0089 0.5933 0.0
C270 C 0.28522 0.21832 0.46138 0.0
O271 O 0.23575 0.20676 0.49105 0.0
O272 O 0.27162 0.1416 0.60412 0.0
C273 C 0.37207 0.66218 0.74411 0.0
O274 O 0.42879 0.67149 0.72815 0.0
O275 O 0.45191 0.55444 0.81676 0.0
Zn276 Zn 0.38548 0.54549 0.75503 0.0
O277 O 0.3251 0.46786 0.76595 0.0
C278 C 0.47271 0.54253 0.67283 0.0
O279 O 0.49804 0.51392 0.71502 0.0
O280 O 0.34229 0.61005 0.75697 0.0
C281 C 0.33017 0.42332 0.74197 0.0
O282 O 0.3761 0.4279 0.70896 0.0
C283 C 0.46904 0.51095 0.844 0.0
O284 O 0.44081 0.45713 0.8342 0.0
O285 O 0.42316 0.55801 0.6798 0.0
C286 C 0.64604 0.44291 0.492 0.0
O287 O 0.63743 0.38565 0.49151 0.0
O288 O 0.73821 0.38674 0.40609 0.0
Zn289 Zn 0.76226 0.43072 0.47365 0.0
O290 O 0.84687 0.48111 0.46716 0.0
C291 C 0.80645 0.35628 0.5638 0.0
O292 O 0.86061 0.37845 0.54306 0.0
O293 O 0.69871 0.47546 0.48258 0.0
C294 C 0.86942 0.51394 0.50611 0.0
O295 O 0.83529 0.51654 0.54828 0.0
C296 C 0.76929 0.35068 0.395 0.0
O297 O 0.81866 0.34574 0.42682 0.0
O298 O 0.75927 0.37257 0.54141 0.0
C299 C 0.71262 0.8886 0.84779 0.0
O300 O 0.68146 0.89691 0.89 0.0
O301 O 0.61475 0.00609 0.83648 0.0
Zn302 Zn 0.67024 0.99101 0.7778 0.0
O303 O 0.74111 0.06289 0.76781 0.0
C304 C 0.57602 0.01016 0.6853 0.0
O305 O 0.56897 0.05235 0.71488 0.0
O306 O 0.71096 0.92045 0.8008 0.0
C307 C 0.75703 0.08594 0.71881 0.0
O308 O 0.72775 0.06218 0.6741 0.0
C309 C 0.62511 0.05516 0.85803 0.0
O310 O 0.67571 0.09457 0.84684 0.0
O311 O 0.61582 0.97991 0.70317 0.0
C312 C 1.0054 0.1704 0.99101 0.0
O313 O 0.96184 0.19739 0.99977 0.0
O314 O 0.94698 0.21001 0.83601 0.0
Zn315 Zn 0.02315 0.2445 0.88352 0.0
O316 O 1.01667 0.32091 0.91425 0.0
C317 C 0.13817 0.30431 0.82954 0.0
O318 O 0.13206 0.3499 0.85464 0.0
O319 O 0.03523 0.18457 0.94623 0.0
C320 C 0.04697 0.33909 0.95884 0.0
O321 O 0.08342 0.30795 0.98655 0.0
C322 C 0.94526 0.23394 0.78563 0.0
O323 O 0.99008 0.27866 0.77052 0.0
O324 O 0.09761 0.25667 0.83554 0.0
C325 C 0.50505 0.67034 0.48982 0.0
O326 O 0.46106 0.6968 0.49857 0.0
O327 O 0.4468 0.71072 0.33505 0.0
Zn328 Zn 0.52284 0.74507 0.38273 0.0
O329 O 0.51667 0.8215 0.41368 0.0
C330 C 0.63798 0.80454 0.32918 0.0
O331 O 0.63227 0.84989 0.35486 0.0
O332 O 0.53506 0.68502 0.44519 0.0
C333 C 0.54701 0.83951 0.45832 0.0
O334 O 0.58238 0.80763 0.48663 0.0
C335 C 0.44522 0.73468 0.28466 0.0
O336 O 0.48992 0.77957 0.2697 0.0
O337 O 0.59711 0.75709 0.3347 0.0
C338 C 0.0392 0.83967 0.56149 0.0
O339 O 0.9972 0.80028 0.53665 0.0
O340 O 0.9505 0.7504 0.70629 0.0
Zn341 Zn 0.02238 0.75198 0.65828 0.0
O342 O 0.99921 0.68724 0.60654 0.0
C343 C 0.11531 0.77756 0.74224 0.0
O344 O 0.08838 0.82172 0.74377 0.0
O345 O 0.05406 0.82967 0.61358 0.0
C346 C 0.03731 0.67338 0.57597 0.0
O347 O 0.09481 0.70275 0.57733 0.0
C348 C 0.91612 0.78718 0.69983 0.0
O349 O 0.92661 0.83089 0.65985 0.0
O350 O 0.09309 0.7383 0.70893 0.0
C351 C 0.53821 0.34346 0.06203 0.0
O352 O 0.49511 0.30459 0.03772 0.0
O353 O 0.45006 0.26335 0.21036 0.0
Zn354 Zn 0.51811 0.2579 0.16029 0.0
O355 O 0.49108 0.19216 0.10968 0.0
C356 C 0.61235 0.28013 0.24326 0.0
O357 O 0.58726 0.3254 0.24541 0.0
O358 O 0.55265 0.334 0.11428 0.0
C359 C 0.52984 0.17752 0.0804 0.0
O360 O 0.58751 0.20634 0.08317 0.0
C361 C 0.396 0.26476 0.19085 0.0
O362 O 0.38269 0.26167 0.13632 0.0
O363 O 0.5885 0.24148 0.20981 0.0
loop_
_geom_bond_atom_site_label_1
_geom_bond_atom_site_label_2
_geom_bond_distance
_geom_bond_site_symmetry_2
_ccdc_geom_bond_type
H0 C7 0.929 . S
H1 C10 0.930 1_565 S
H2 C12 0.929 . S
H3 C4 0.969 . S
C4 H3 0.969 . S
C4 O5 1.550 1_565 S
C4 H6 0.973 . S
O5 C4 1.550 1_545 S
O5 C11 1.412 . S
H6 C4 0.973 . S
C7 H0 0.929 . S
C7 C8 1.400 . S
C7 C9 1.364 . S
C8 C7 1.400 . S
C8 C12 1.377 1_654 S
C9 C7 1.364 . S
C9 C10 1.374 1_655 S
C10 H1 0.930 1_545 S
C10 C9 1.374 1_455 S
C10 C11 1.383 . S
C11 O5 1.412 . S
C11 C10 1.383 . S
C11 C12 1.394 1_554 S
C12 H2 0.929 . S
C12 C8 1.377 1_456 S
C12 C11 1.394 1_556 S
H13 C20 0.929 . S
H14 C23 0.930 . S
H15 C25 0.929 . S
H16 C17 0.969 . S
C17 H16 0.969 . S
C17 O18 1.550 . S
C17 H19 0.973 . S
O18 C17 1.550 . S
O18 C24 1.412 . S
H19 C17 0.973 . S
C20 H13 0.929 . S
C20 C21 1.400 . S
C20 C22 1.364 . S
C21 C20 1.400 . S
C21 C25 1.377 . S
C22 C20 1.364 . S
C22 C23 1.374 . S
C23 H14 0.930 . S
C23 C22 1.374 . S
C23 C24 1.383 . S
C24 O18 1.412 . S
C24 C23 1.383 . S
C24 C25 1.394 . S
C25 H15 0.929 . S
C25 C21 1.377 . S
C25 C24 1.394 . S
H26 C33 0.929 . S
H27 C36 0.930 . S
H28 C38 0.929 . S
H29 C30 0.969 1_455 S
C30 H29 0.969 1_655 S
C30 O31 1.550 1_556 S
C30 H32 0.973 . S
O31 C30 1.550 1_554 S
O31 C37 1.412 . S
H32 C30 0.973 . S
C33 H26 0.929 . S
C33 C34 1.400 1_655 S
C33 C35 1.364 . S
C34 C33 1.400 1_455 S
C34 C38 1.377 . S
C35 C33 1.364 . S
C35 C36 1.374 . S
C36 H27 0.930 . S
C36 C35 1.374 . S
C36 C37 1.383 . S
C37 O31 1.412 . S
C37 C36 1.383 . S
C37 C38 1.394 1_655 S
C38 H28 0.929 . S
C38 C34 1.377 . S
C38 C37 1.394 1_455 S
H39 C46 0.929 . S
H40 C49 0.930 . S
H41 C51 0.929 . S
H42 C43 0.969 . S
C43 H42 0.969 . S
C43 O44 1.550 . S
C43 H45 0.973 . S
O44 C43 1.550 . S
O44 C50 1.412 . S
H45 C43 0.973 . S
C46 H39 0.929 . S
C46 C47 1.400 . S
C46 C48 1.364 . S
C47 C46 1.400 . S
C47 C51 1.377 . S
C48 C46 1.364 . S
C48 C49 1.374 . S
C49 H40 0.930 . S
C49 C48 1.374 . S
C49 C50 1.383 . S
C50 O44 1.412 . S
C50 C49 1.383 . S
C50 C51 1.394 . S
C51 H41 0.929 . S
C51 C47 1.377 . S
C51 C50 1.394 . S
H52 C59 0.929 . S
H53 C62 0.930 1_655 S
H54 C64 0.929 . S
H55 C56 0.969 . S
C56 H55 0.969 . S
C56 O57 1.550 1_665 S
C56 H58 0.973 . S
O57 C56 1.550 1_445 S
O57 C63 1.412 1_545 S
H58 C56 0.973 . S
C59 H52 0.929 . S
C59 C60 1.400 1_565 S
C59 C61 1.364 . S
C60 C59 1.400 1_545 S
C60 C64 1.377 . S
C61 C59 1.364 . S
C61 C62 1.374 . S
C62 H53 0.930 1_455 S
C62 C61 1.374 . S
C62 C63 1.383 . S
C63 O57 1.412 1_565 S
C63 C62 1.383 . S
C63 C64 1.394 1_565 S
C64 H54 0.929 . S
C64 C60 1.377 . S
C64 C63 1.394 1_545 S
H65 C72 0.929 . S
H66 C75 0.930 . S
H67 C77 0.929 . S
H68 C69 0.969 . S
C69 H68 0.969 . S
C69 O70 1.550 . S
C69 H71 0.973 . S
O70 C69 1.550 . S
O70 C76 1.412 . S
H71 C69 0.973 . S
C72 H65 0.929 . S
C72 C73 1.400 . S
C72 C74 1.364 . S
C73 C72 1.400 . S
C73 C77 1.377 . S
C74 C72 1.364 . S
C74 C75 1.374 . S
C75 H66 0.930 . S
C75 C74 1.374 . S
C75 C76 1.383 . S
C76 O70 1.412 . S
C76 C75 1.383 . S
C76 C77 1.394 . S
C77 H67 0.929 . S
C77 C73 1.377 . S
C77 C76 1.394 . S
H78 C85 0.929 . S
H79 C88 0.930 . S
H80 C90 0.929 . S
H81 C82 0.969 . S
C82 H81 0.969 . S
C82 O83 1.550 . S
C82 H84 0.973 . S
O83 C82 1.550 . S
O83 C89 1.412 . S
H84 C82 0.973 . S
C85 H78 0.929 . S
C85 C86 1.400 . S
C85 C87 1.364 . S
C86 C85 1.400 . S
C86 C90 1.377 1_655 S
C87 C85 1.364 . S
C87 C88 1.374 . S
C88 H79 0.930 . S
C88 C87 1.374 . S
C88 C89 1.383 1_655 S
C89 O83 1.412 . S
C89 C88 1.383 1_455 S
C89 C90 1.394 . S
C90 H80 0.929 . S
C90 C86 1.377 1_455 S
C90 C89 1.394 . S
H91 C98 0.929 . S
H92 C101 0.930 . S
H93 C103 0.929 . S
H94 C95 0.969 . S
C95 H94 0.969 . S
C95 O96 1.550 . S
C95 H97 0.973 . S
O96 C95 1.550 . S
O96 C102 1.412 . S
H97 C95 0.973 . S
C98 H91 0.929 . S
C98 C99 1.400 . S
C98 C100 1.364 . S
C99 C98 1.400 . S
C99 C103 1.377 . S
C100 C98 1.364 . S
C100 C101 1.374 . S
C101 H92 0.930 . S
C101 C100 1.374 . S
C101 C102 1.383 . S
C102 O96 1.412 . S
C102 C101 1.383 . S
C102 C103 1.394 . S
C103 H93 0.929 . S
C103 C99 1.377 . S
C103 C102 1.394 . S
H104 C111 0.929 . S
H105 C114 0.930 . S
H106 C116 0.929 . S
H107 C108 0.969 . S
C108 H107 0.969 . S
C108 O109 1.550 . S
C108 H110 0.973 . S
O109 C108 1.550 . S
O109 C115 1.412 . S
H110 C108 0.973 . S
C111 H104 0.929 . S
C111 C112 1.400 . S
C111 C113 1.364 . S
C112 C111 1.400 . S
C112 C116 1.377 . S
C113 C111 1.364 . S
C113 C114 1.374 . S
C114 H105 0.930 . S
C114 C113 1.374 . S
C114 C115 1.383 . S
C115 O109 1.412 . S
C115 C114 1.383 . S
C115 C116 1.394 . S
C116 H106 0.929 . S
C116 C112 1.377 . S
C116 C115 1.394 . S
H117 C124 0.929 . S
H118 C127 0.930 . S
H119 C129 0.929 . S
H120 C121 0.969 . S
C121 H120 0.969 . S
C121 O122 1.550 . S
C121 H123 0.973 . S
O122 C121 1.550 . S
O122 C128 1.412 . S
H123 C121 0.973 . S
C124 H117 0.929 . S
C124 C125 1.400 1_545 S
C124 C126 1.364 . S
C125 C124 1.400 1_565 S
C125 C129 1.377 . S
C126 C124 1.364 . S
C126 C127 1.374 1_545 S
C127 H118 0.930 . S
C127 C126 1.374 1_565 S
C127 C128 1.383 . S
C128 O122 1.412 . S
C128 C127 1.383 . S
C128 C129 1.394 . S
C129 H119 0.929 . S
C129 C125 1.377 . S
C129 C128 1.394 . S
H130 C137 0.929 . S
H131 C140 0.930 . S
H132 C142 0.929 . S
H133 C134 0.969 . S
C134 H133 0.969 . S
C134 O135 1.550 . S
C134 H136 0.973 . S
O135 C134 1.550 . S
O135 C141 1.412 . S
H136 C134 0.973 . S
C137 H130 0.929 . S
C137 C138 1.400 . S
C137 C139 1.364 . S
C138 C137 1.400 . S
C138 C142 1.377 . S
C139 C137 1.364 . S
C139 C140 1.374 . S
C140 H131 0.930 . S
C140 C139 1.374 . S
C140 C141 1.383 . S
C141 O135 1.412 . S
C141 C140 1.383 . S
C141 C142 1.394 . S
C142 H132 0.929 . S
C142 C138 1.377 . S
C142 C141 1.394 . S
H143 C150 0.929 . S
H144 C153 0.930 . S
H145 C155 0.929 . S
H146 C147 0.969 . S
C147 H146 0.969 . S
C147 O148 1.550 . S
C147 H149 0.973 . S
O148 C147 1.550 . S
O148 C154 1.412 . S
H149 C147 0.973 . S
C150 H143 0.929 . S
C150 C151 1.400 . S
C150 C152 1.364 . S
C151 C150 1.400 . S
C151 C155 1.377 . S
C152 C150 1.364 . S
C152 C153 1.374 . S
C153 H144 0.930 . S
C153 C152 1.374 . S
C153 C154 1.383 . S
C154 O148 1.412 . S
C154 C153 1.383 . S
C154 C155 1.394 . S
C155 H145 0.929 . S
C155 C151 1.377 . S
C155 C154 1.394 . S
H156 C163 0.929 . S
H157 C166 0.930 . S
H158 C168 0.929 . S
H159 C160 0.969 . S
C160 H159 0.969 . S
C160 O161 1.550 . S
C160 H162 0.973 . S
O161 C160 1.550 . S
O161 C167 1.412 . S
H162 C160 0.973 . S
C163 H156 0.929 . S
C163 C164 1.400 . S
C163 C165 1.364 . S
C164 C163 1.400 . S
C164 C168 1.377 . S
C165 C163 1.364 . S
C165 C166 1.374 . S
C166 H157 0.930 . S
C166 C165 1.374 . S
C166 C167 1.383 . S
C167 O161 1.412 . S
C167 C166 1.383 . S
C167 C168 1.394 . S
C168 H158 0.929 . S
C168 C164 1.377 . S
C168 C167 1.394 . S
H169 C176 0.929 . S
H170 C179 0.930 . S
H171 C181 0.929 . S
H172 C173 0.969 . S
C173 H172 0.969 . S
C173 O174 1.550 . S
C173 H175 0.973 . S
O174 C173 1.550 . S
O174 C180 1.412 . S
H175 C173 0.973 . S
C176 H169 0.929 . S
C176 C177 1.400 1_554 S
C176 C178 1.364 . S
C177 C176 1.400 1_556 S
C177 C181 1.377 . S
C178 C176 1.364 . S
C178 C179 1.374 1_554 S
C179 H170 0.930 . S
C179 C178 1.374 1_556 S
C179 C180 1.383 . S
C180 O174 1.412 . S
C180 C179 1.383 . S
C180 C181 1.394 . S
C181 H171 0.929 . S
C181 C177 1.377 . S
C181 C180 1.394 . S
H182 C189 0.929 . S
H183 C192 0.930 . S
H184 C194 0.929 . S
H185 C186 0.969 . S
C186 H185 0.969 . S
C186 O187 1.550 . S
C186 H188 0.973 . S
O187 C186 1.550 . S
O187 C193 1.412 . S
H188 C186 0.973 . S
C189 H182 0.929 . S
C189 C190 1.400 . S
C189 C191 1.364 . S
C190 C189 1.400 . S
C190 C194 1.377 . S
C191 C189 1.364 . S
C191 C192 1.374 . S
C192 H183 0.930 . S
C192 C191 1.374 . S
C192 C193 1.383 . S
C193 O187 1.412 . S
C193 C192 1.383 . S
C193 C194 1.394 . S
C194 H184 0.929 . S
C194 C190 1.377 . S
C194 C193 1.394 . S
H195 C202 0.929 . S
H196 C205 0.930 1_565 S
H197 C207 0.929 . S
H198 C199 0.969 . S
C199 H198 0.969 . S
C199 O200 1.550 . S
C199 H201 0.973 1_545 S
O200 C199 1.550 . S
O200 C206 1.412 . S
H201 C199 0.973 1_565 S
C202 H195 0.929 . S
C202 C203 1.400 . S
C202 C204 1.364 . S
C203 C202 1.400 . S
C203 C207 1.377 . S
C204 C202 1.364 . S
C204 C205 1.374 1_554 S
C205 H196 0.930 1_545 S
C205 C204 1.374 1_556 S
C205 C206 1.383 . S
C206 O200 1.412 . S
C206 C205 1.383 . S
C206 C207 1.394 1_556 S
C207 H197 0.929 . S
C207 C203 1.377 . S
C207 C206 1.394 1_554 S
C208 O209 1.164 . S
C208 O215 1.183 1_556 S
O209 C208 1.164 . S
O210 Zn211 1.899 1_556 S
O210 C218 1.284 . S
Zn211 O210 1.899 1_554 S
Zn211 O212 2.032 1_554 S
Zn211 O215 2.086 . S
Zn211 O220 1.977 . S
O212 Zn211 2.032 1_556 S
O212 C216 1.279 . S
C213 O214 1.203 . S
C213 O220 1.267 . S
O214 C213 1.203 . S
O215 C208 1.183 1_554 S
O215 Zn211 2.086 . S
C216 O212 1.279 . S
C216 O217 1.208 1_556 S
O217 C216 1.208 1_554 S
C218 O210 1.284 . S
C218 O219 1.273 . S
O219 C218 1.273 . S
O220 Zn211 1.977 . S
O220 C213 1.267 . S
C221 O222 1.160 . S
C221 O228 1.185 . S
O222 C221 1.160 . S
O223 Zn224 1.899 . S
O223 C231 1.284 . S
Zn224 O223 1.899 . S
Zn224 O225 2.032 . S
Zn224 O228 2.086 . S
Zn224 O233 1.977 . S
O225 Zn224 2.032 . S
O225 C229 1.278 . S
C226 O227 1.203 . S
C226 O233 1.267 . S
O227 C226 1.203 . S
O228 C221 1.185 . S
O228 Zn224 2.086 . S
C229 O225 1.278 . S
C229 O230 1.211 . S
O230 C229 1.211 . S
C231 O223 1.284 . S
C231 O232 1.273 . S
O232 C231 1.273 . S
O233 Zn224 1.977 . S
O233 C226 1.267 . S
C234 O235 1.160 . S
C234 O241 1.185 . S
O235 C234 1.160 . S
O236 Zn237 1.899 1_556 S
O236 C244 1.284 . S
Zn237 O236 1.899 1_554 S
Zn237 O238 2.032 . S
Zn237 O241 2.086 . S
Zn237 O246 1.977 . S
O238 Zn237 2.032 . S
O238 C242 1.278 . S
C239 O240 1.203 . S
C239 O246 1.267 . S
O240 C239 1.203 . S
O241 C234 1.185 . S
O241 Zn237 2.086 . S
C242 O238 1.278 . S
C242 O243 1.211 . S
O243 C242 1.211 . S
C244 O236 1.284 . S
C244 O245 1.273 . S
O245 C244 1.273 . S
O246 Zn237 1.977 . S
O246 C239 1.267 . S
C247 O248 1.160 . S
C247 O254 1.185 . S
O248 C247 1.160 . S
O249 Zn250 1.899 . S
O249 C257 1.284 . S
Zn250 O249 1.899 . S
Zn250 O251 2.032 1_545 S
Zn250 O254 2.086 . S
Zn250 O259 1.977 . S
O251 Zn250 2.032 1_565 S
O251 C255 1.278 . S
C252 O253 1.203 . S
C252 O259 1.267 . S
O253 C252 1.203 . S
O254 C247 1.185 . S
O254 Zn250 2.086 . S
C255 O251 1.278 . S
C255 O256 1.211 . S
O256 C255 1.211 . S
C257 O249 1.284 . S
C257 O258 1.273 1_545 S
O258 C257 1.273 1_565 S
O259 Zn250 1.977 . S
O259 C252 1.267 . S
C260 O261 1.160 . S
C260 O267 1.185 . S
O261 C260 1.160 . S
O262 Zn263 1.899 . S
O262 C270 1.284 . S
Zn263 O262 1.899 . S
Zn263 O264 2.032 . S
Zn263 O267 2.086 . S
Zn263 O272 1.977 . S
O264 Zn263 2.032 . S
O264 C268 1.278 . S
C265 O266 1.203 . S
C265 O272 1.267 . S
O266 C265 1.203 . S
O267 C260 1.185 . S
O267 Zn263 2.086 . S
C268 O264 1.278 . S
C268 O269 1.211 . S
O269 C268 1.211 . S
C270 O262 1.284 . S
C270 O271 1.273 . S
O271 C270 1.273 . S
O272 Zn263 1.977 . S
O272 C265 1.267 . S
C273 O274 1.160 . S
C273 O280 1.185 . S
O274 C273 1.160 . S
O275 Zn276 1.899 . S
O275 C283 1.284 . S
Zn276 O275 1.899 . S
Zn276 O277 2.032 . S
Zn276 O280 2.086 . S
Zn276 O285 1.977 . S
O277 Zn276 2.032 . S
O277 C281 1.278 . S
C278 O279 1.203 . S
C278 O285 1.267 . S
O279 C278 1.203 . S
O280 C273 1.185 . S
O280 Zn276 2.086 . S
C281 O277 1.278 . S
C281 O282 1.211 . S
O282 C281 1.211 . S
C283 O275 1.284 . S
C283 O284 1.273 . S
O284 C283 1.273 . S
O285 Zn276 1.977 . S
O285 C278 1.267 . S
C286 O287 1.160 . S
C286 O293 1.185 . S
O287 C286 1.160 . S
O288 Zn289 1.899 . S
O288 C296 1.284 . S
Zn289 O288 1.899 . S
Zn289 O290 2.032 . S
Zn289 O293 2.086 . S
Zn289 O298 1.977 . S
O290 Zn289 2.032 . S
O290 C294 1.278 . S
C291 O292 1.203 . S
C291 O298 1.267 . S
O292 C291 1.203 . S
O293 C286 1.185 . S
O293 Zn289 2.086 . S
C294 O290 1.278 . S
C294 O295 1.211 . S
O295 C294 1.211 . S
C296 O288 1.284 . S
C296 O297 1.273 . S
O297 C296 1.273 . S
O298 Zn289 1.977 . S
O298 C291 1.267 . S
C299 O300 1.160 . S
C299 O306 1.185 . S
O300 C299 1.160 . S
O301 Zn302 1.899 . S
O301 C309 1.284 1_565 S
Zn302 O301 1.899 . S
Zn302 O303 2.032 1_565 S
Zn302 O306 2.086 . S
Zn302 O311 1.977 . S
O303 Zn302 2.032 1_545 S
O303 C307 1.278 . S
C304 O305 1.203 1_565 S
C304 O311 1.267 . S
O305 C304 1.203 1_545 S
O306 C299 1.185 . S
O306 Zn302 2.086 . S
C307 O303 1.278 . S
C307 O308 1.211 . S
O308 C307 1.211 . S
C309 O301 1.284 1_545 S
C309 O310 1.273 . S
O310 C309 1.273 . S
O311 Zn302 1.977 . S
O311 C304 1.267 . S
C312 O313 1.160 . S
C312 O319 1.185 1_655 S
O313 C312 1.160 . S
O314 Zn315 1.899 1_655 S
O314 C322 1.284 . S
Zn315 O314 1.899 1_455 S
Zn315 O316 2.032 1_455 S
Zn315 O319 2.086 . S
Zn315 O324 1.977 . S
O316 Zn315 2.032 1_655 S
O316 C320 1.278 1_655 S
C317 O318 1.203 . S
C317 O324 1.267 . S
O318 C317 1.203 . S
O319 C312 1.185 1_455 S
O319 Zn315 2.086 . S
C320 O316 1.278 1_455 S
C320 O321 1.211 . S
O321 C320 1.211 . S
C322 O314 1.284 . S
C322 O323 1.273 . S
O323 C322 1.273 . S
O324 Zn315 1.977 . S
O324 C317 1.267 . S
C325 O326 1.160 . S
C325 O332 1.185 . S
O326 C325 1.160 . S
O327 Zn328 1.899 . S
O327 C335 1.284 . S
Zn328 O327 1.899 . S
Zn328 O329 2.032 . S
Zn328 O332 2.086 . S
Zn328 O337 1.977 . S
O329 Zn328 2.032 . S
O329 C333 1.278 . S
C330 O331 1.203 . S
C330 O337 1.267 . S
O331 C330 1.203 . S
O332 C325 1.185 . S
O332 Zn328 2.086 . S
C333 O329 1.278 . S
C333 O334 1.211 . S
O334 C333 1.211 . S
C335 O327 1.284 . S
C335 O336 1.273 . S
O336 C335 1.273 . S
O337 Zn328 1.977 . S
O337 C330 1.267 . S
C338 O339 1.160 1_455 S
C338 O345 1.185 . S
O339 C338 1.160 1_655 S
O340 Zn341 1.899 1_655 S
O340 C348 1.284 . S
Zn341 O340 1.899 1_455 S
Zn341 O342 2.032 . S
Zn341 O345 2.086 . S
Zn341 O350 1.977 . S
O342 Zn341 2.032 . S
O342 C346 1.278 . S
C343 O344 1.203 . S
C343 O350 1.267 . S
O344 C343 1.203 . S
O345 C338 1.185 . S
O345 Zn341 2.086 . S
C346 O342 1.278 . S
C346 O347 1.211 . S
O347 C346 1.211 . S
C348 O340 1.284 . S
C348 O349 1.273 . S
O349 C348 1.273 . S
O350 Zn341 1.977 . S
O350 C343 1.267 . S
C351 O352 1.160 . S
C351 O358 1.185 . S
O352 C351 1.160 . S
O353 Zn354 1.899 . S
O353 C361 1.284 . S
Zn354 O353 1.899 . S
Zn354 O355 2.032 . S
Zn354 O358 2.086 . S
Zn354 O363 1.977 . S
O355 Zn354 2.032 . S
O355 C359 1.278 . S
C356 O357 1.203 . S
C356 O363 1.267 . S
O357 C356 1.203 . S
O358 C351 1.185 . S
O358 Zn354 2.086 . S
C359 O355 1.278 . S
C359 O360 1.211 . S
O360 C359 1.211 . S
C361 O353 1.284 . S
C361 O362 1.273 . S
O362 C361 1.273 . S
O363 Zn354 1.977 . S
O363 C356 1.267 . S
C218 C73 1.710 . S
C231 C82 1.285 . S
C100 C244 1.973 . S
C257 C56 1.309 1_545 S
C265 C134 1.567 . S
C278 C165 1.639 . S
C147 C291 1.203 . S
C304 C125 1.913 . S
C151 C322 1.505 . S
C333 C121 1.529 . S
C139 C317 1.780 . S
C325 C164 1.295 . S
C95 C348 1.343 . S
C61 C338 1.518 . S
C74 C343 1.582 . S
C86 C346 1.865 1_655 S
C47 C255 1.516 . S
C186 C247 1.292 . S
C216 C204 1.660 1_566 S
C221 C112 1.951 . S
C60 C268 1.392 . S
C307 C152 1.457 . S
C260 C126 1.893 . S
C286 C160 1.531 . S
C296 C190 1.710 . S
C199 C309 1.285 . S
C113 C270 1.973 . S
C283 C173 1.309 . S
C43 C239 1.567 . S
C252 C9 1.639 . S
C213 C17 1.203 . S
C226 C34 1.913 . S
C21 C335 1.505 . S
C30 C320 1.529 1_655 S
C48 C330 1.780 . S
C8 C312 1.295 1_554 S
C361 C108 1.343 . S
C351 C178 1.518 . S
C356 C191 1.582 . S
C203 C359 1.865 . S
C138 C281 1.516 . S
C273 C69 1.292 . S
C294 C87 1.663 . S
C299 C99 1.951 . S
C177 C242 1.392 1_556 S
C229 C22 1.458 . S
C35 C234 1.893 . S
C208 C4 1.528 1_556 S
