# Generated by pormake.
# Topology pth, (4,4)-cn, num edge types: 1
# Building blocks:
#     Node 0, Type 0, BuildingBlock: GALJAG_clean_sbu_0, # of connection points: 4
#     Node 1, Type 0, BuildingBlock: GALJAG_clean_sbu_0, # of connection points: 4
#     Node 2, Type 0, BuildingBlock: GALJAG_clean_sbu_0, # of connection points: 4
#     Node 3, Type 1, BuildingBlock: MUDLON_clean_linker_0, # of connection points: 4
#     Node 4, Type 1, BuildingBlock: MUDLON_clean_linker_0, # of connection points: 4
#     Node 5, Type 1, BuildingBlock: MUDLON_clean_linker_0, # of connection points: 4
#     Edge 6, Type (0, 1), BuildingBlock: FUNLAD_clean_linker_0, # of connection points: 2
#     Edge 7, Type (0, 1), BuildingBlock: FUNLAD_clean_linker_0, # of connection points: 2
#     Edge 8, Type (0, 1), BuildingBlock: FUNLAD_clean_linker_0, # of connection points: 2
#     Edge 9, Type (0, 1), BuildingBlock: FUNLAD_clean_linker_0, # of connection points: 2
#     Edge 10, Type (0, 1), BuildingBlock: FUNLAD_clean_linker_0, # of connection points: 2
#     Edge 11, Type (0, 1), BuildingBlock: FUNLAD_clean_linker_0, # of connection points: 2
#     Edge 12, Type (0, 1), BuildingBlock: FUNLAD_clean_linker_0, # of connection points: 2
#     Edge 13, Type (0, 1), BuildingBlock: FUNLAD_clean_linker_0, # of connection points: 2
#     Edge 14, Type (0, 1), BuildingBlock: FUNLAD_clean_linker_0, # of connection points: 2
#     Edge 15, Type (0, 1), BuildingBlock: FUNLAD_clean_linker_0, # of connection points: 2
#     Edge 16, Type (0, 1), BuildingBlock: FUNLAD_clean_linker_0, # of connection points: 2
#     Edge 17, Type (0, 1), BuildingBlock: FUNLAD_clean_linker_0, # of connection points: 2
# Relax obj value: 0.014
# Max RMSD: 0.066
# Mean RMSD: 0.062
data_MOF--net-pth--node1-GALJAG_clean_sbu_0--node2-MUDLON_clean_linker_0--edge1-FUNLAD_clean_linker_0
_symmetry_space_group_name_H-M    P1
_symmetry_Int_Tables_number       1
_symmetry_cell_setting            triclinic
loop_
_symmetry_equiv_pos_as_xyz
'x, y, z'
_cell_length_a     38.390865
_cell_length_b     38.384519
_cell_length_c     74.460431
_cell_angle_alpha  90.126622
_cell_angle_beta   90.085007
_cell_angle_gamma 119.99879
loop_
_atom_site_label
_atom_site_type_symbol
_atom_site_fract_x
_atom_site_fract_y
_atom_site_fract_z
_atom_type_partial_charge
In0 In 0.99233 0.00854 0.03125 0.0
O1 O 0.96595 0.04634 0.04206 0.0
O2 O 0.01802 0.05186 0.05483 0.0
C3 C 0.93084 0.95769 0.00979 0.0
C4 C 0.05164 0.06067 0.0095 0.0
C5 C 0.99807 0.95309 0.05133 0.0
O6 O 0.92547 0.97378 0.02351 0.0
O7 O 0.96702 0.96797 0.0068 0.0
O8 O 0.02229 0.97209 0.03882 0.0
O9 O 0.97129 0.96245 0.05387 0.0
C10 C 0.99234 0.06316 0.05415 0.0
O11 O 0.05624 0.03802 0.02032 0.0
O12 O 0.01698 0.05676 0.00952 0.0
In13 In 0.98702 0.00121 0.37105 0.0
O14 O 0.01463 0.06812 0.36492 0.0
O15 O 0.96667 0.02664 0.3483 0.0
C16 C 0.04471 0.00737 0.3938 0.0
C17 C 0.92247 0.98561 0.39124 0.0
C18 C 0.99063 0.95053 0.34691 0.0
O19 O 0.05064 0.03434 0.38258 0.0
O20 O 0.00951 0.97751 0.39373 0.0
O21 O 0.96234 0.93903 0.3581 0.0
O22 O 0.01657 0.9874 0.34784 0.0
C23 C 0.99173 0.06293 0.35178 0.0
O24 O 0.92043 0.9633 0.37832 0.0
O25 O 0.95707 0.01522 0.3941 0.0
In26 In 0.99039 0.01182 0.70351 0.0
O27 O 0.96942 0.94887 0.71436 0.0
O28 O 0.93951 0.9796 0.72354 0.0
C29 C 0.05422 0.01789 0.68549 0.0
C30 C 0.93482 0.00409 0.67911 0.0
C31 C 0.03 0.07489 0.7261 0.0
O32 O 0.0345 0.99007 0.69657 0.0
O33 O 0.04145 0.04215 0.68339 0.0
O34 O 0.01817 0.07845 0.71077 0.0
O35 O 0.02135 0.03958 0.73011 0.0
C36 C 0.94211 0.94811 0.72409 0.0
O37 O 0.9461 0.02922 0.69182 0.0
O38 O 0.95202 0.98345 0.67856 0.0
H39 H 0.97534 0.62541 0.21917 0.0
N40 N 0.04198 0.66006 0.19765 0.0
H41 H 0.96065 0.65895 0.2437 0.0
H42 H 0.09115 0.73146 0.21177 0.0
H43 H 0.07691 0.76509 0.23625 0.0
H44 H 0.08986 0.70536 0.1715 0.0
H45 H 0.07228 0.73476 0.14647 0.0
H46 H 0.96555 0.6399 0.18754 0.0
H47 H 0.94724 0.66737 0.16213 0.0
H48 H 0.97647 0.58573 0.19018 0.0
H49 H 0.09959 0.6463 0.20842 0.0
H50 H 0.97446 0.52134 0.19146 0.0
H51 H 0.09736 0.58177 0.21066 0.0
H52 H 0.9613 0.34215 0.21389 0.0
H53 H 0.94337 0.29674 0.23938 0.0
H54 H 0.06906 0.35174 0.25393 0.0
H55 H 0.08642 0.3982 0.22873 0.0
H56 H 0.08572 0.3765 0.18704 0.0
H57 H 0.07035 0.33206 0.16109 0.0
H58 H 0.95322 0.32175 0.15682 0.0
H59 H 0.96893 0.36602 0.18301 0.0
H60 H 0.97378 0.4082 0.21137 0.0
H61 H 0.97377 0.4717 0.21072 0.0
H62 H 0.09676 0.53199 0.19195 0.0
N63 N 0.03763 0.39733 0.20329 0.0
H64 H 0.09694 0.46857 0.19354 0.0
C65 C 0.03445 0.67616 0.21369 0.0
C66 C 0.99788 0.6556 0.22306 0.0
C67 C 0.98955 0.67476 0.23706 0.0
C68 C 0.01748 0.71476 0.24172 0.0
C69 C 0.0546 0.73446 0.23278 0.0
C70 C 0.06294 0.71528 0.21893 0.0
C71 C 0.02919 0.67033 0.18129 0.0
C72 C 0.05859 0.69632 0.16922 0.0
C73 C 0.04838 0.71297 0.1549 0.0
C74 C 0.00831 0.70373 0.15233 0.0
C75 C 0.97849 0.67575 0.16388 0.0
C76 C 0.98884 0.65947 0.17831 0.0
C77 C 0.03862 0.62107 0.19891 0.0
C78 C 0.00308 0.58528 0.19453 0.0
C79 C 0.00184 0.54825 0.19546 0.0
C80 C 0.03588 0.54625 0.201 0.0
C81 C 0.07088 0.58212 0.20589 0.0
C82 C 0.07219 0.61903 0.20477 0.0
C83 C 0.02535 0.37384 0.21949 0.0
C84 C 0.9849 0.34524 0.22282 0.0
C85 C 0.97473 0.31888 0.23732 0.0
C86 C 0.00478 0.32025 0.24864 0.0
C87 C 0.04503 0.35007 0.24567 0.0
C88 C 0.0551 0.37659 0.23125 0.0
C89 C 0.02862 0.37449 0.18691 0.0
C90 C 0.05701 0.36506 0.18031 0.0
C91 C 0.04816 0.33982 0.16545 0.0
C92 C 0.01053 0.32338 0.15686 0.0
C93 C 0.98231 0.33362 0.16325 0.0
C94 C 0.9913 0.35906 0.17815 0.0
C95 C 0.03577 0.43384 0.20277 0.0
C96 C 0.00084 0.43506 0.20728 0.0
C97 C 0.00077 0.47148 0.20673 0.0
C98 C 0.03539 0.5072 0.20143 0.0
C99 C 0.06986 0.50543 0.19654 0.0
C100 C 0.07 0.46919 0.19729 0.0
H101 H 0.64312 0.02111 0.54465 0.0
N102 N 0.57973 0.94815 0.53448 0.0
H103 H 0.69312 0.03284 0.56771 0.0
H104 H 0.57906 0.89473 0.55739 0.0
H105 H 0.62881 0.90632 0.58079 0.0
H106 H 0.58857 0.89221 0.51739 0.0
H107 H 0.63322 0.90189 0.49219 0.0
H108 H 0.61957 0.01654 0.51418 0.0
H109 H 0.66342 0.02631 0.48869 0.0
H110 H 0.57036 0.99186 0.56216 0.0
H111 H 0.52616 0.94123 0.50938 0.0
H112 H 0.52507 0.01818 0.56271 0.0
H113 H 0.48065 0.96824 0.51007 0.0
H114 H 0.38037 0.10995 0.55975 0.0
H115 H 0.33712 0.0971 0.58583 0.0
H116 H 0.30866 0.97296 0.58588 0.0
H117 H 0.35071 0.98577 0.5595 0.0
H118 H 0.31733 0.99328 0.531 0.0
H119 H 0.2753 0.99148 0.50615 0.0
H120 H 0.36722 0.11085 0.49044 0.0
H121 H 0.40904 0.11267 0.51576 0.0
H122 H 0.46748 0.09479 0.55014 0.0
H123 H 0.51483 0.06972 0.54818 0.0
H124 H 0.42057 0.95765 0.52617 0.0
N125 N 0.39045 0.05704 0.54088 0.0
H126 H 0.37383 0.98297 0.52796 0.0
C127 C 0.60723 0.95687 0.54933 0.0
C128 C 0.63962 0.99594 0.55254 0.0
C129 C 0.66801 0.00266 0.56583 0.0
C130 C 0.66492 0.97048 0.57603 0.0
C131 C 0.63215 0.93163 0.57302 0.0
C132 C 0.60359 0.92498 0.5598 0.0
C133 C 0.60074 0.95347 0.51771 0.0
C134 C 0.60422 0.92129 0.51091 0.0
C135 C 0.62969 0.92692 0.49648 0.0
C136 C 0.65222 0.965 0.4885 0.0
C137 C 0.64708 0.99679 0.49473 0.0
C138 C 0.62177 0.99117 0.50923 0.0
C139 C 0.55396 0.96598 0.53516 0.0
C140 C 0.55209 0.98715 0.55037 0.0
C141 C 0.52574 0.00227 0.5508 0.0
C142 C 0.49974 0.99593 0.53632 0.0
C143 C 0.50043 0.97378 0.52143 0.0
C144 C 0.52686 0.95871 0.52095 0.0
C145 C 0.36902 0.04912 0.55766 0.0
C146 C 0.36528 0.08017 0.56561 0.0
C147 C 0.34066 0.07274 0.58056 0.0
C148 C 0.31924 0.03391 0.58795 0.0
C149 C 0.32424 0.00307 0.58038 0.0
C150 C 0.34871 0.0105 0.56535 0.0
C151 C 0.36648 0.05334 0.52528 0.0
C152 C 0.32877 0.01892 0.52214 0.0
C153 C 0.30475 0.01784 0.50782 0.0
C154 C 0.31783 0.05108 0.49633 0.0
C155 C 0.35604 0.08496 0.49919 0.0
C156 C 0.38008 0.08598 0.51353 0.0
C157 C 0.41727 0.0411 0.53915 0.0
C158 C 0.45721 0.06491 0.54483 0.0
C159 C 0.48407 0.05044 0.54378 0.0
C160 C 0.47143 0.01168 0.53701 0.0
C161 C 0.43139 0.98785 0.53121 0.0
C162 C 0.40452 0.00232 0.5323 0.0
H163 H 0.64019 0.6604 0.87809 0.0
N164 N 0.65071 0.59734 0.86861 0.0
H165 H 0.67229 0.70563 0.90352 0.0
H166 H 0.68584 0.58446 0.89643 0.0
H167 H 0.71625 0.62823 0.92251 0.0
H168 H 0.72172 0.61766 0.85457 0.0
H169 H 0.75578 0.66425 0.82985 0.0
H170 H 0.61786 0.63125 0.84695 0.0
H171 H 0.65098 0.67677 0.82194 0.0
H172 H 0.5774 0.59282 0.87115 0.0
H173 H 0.63587 0.52297 0.86397 0.0
H174 H 0.51165 0.53204 0.8676 0.0
H175 H 0.57063 0.46169 0.86161 0.0
H176 H 0.32981 0.3519 0.87591 0.0
H177 H 0.29012 0.31204 0.90122 0.0
H178 H 0.35798 0.24988 0.90212 0.0
H179 H 0.39654 0.28904 0.8761 0.0
H180 H 0.36669 0.28595 0.83287 0.0
H181 H 0.31844 0.26865 0.80822 0.0
H182 H 0.29988 0.36672 0.82357 0.0
H183 H 0.34937 0.38466 0.84792 0.0
H184 H 0.39999 0.40805 0.87787 0.0
H185 H 0.4638 0.47088 0.88089 0.0
H186 H 0.51701 0.42782 0.84186 0.0
N187 N 0.38645 0.34243 0.8576 0.0
H188 H 0.45383 0.36422 0.83992 0.0
C189 C 0.66154 0.61956 0.88521 0.0
C190 C 0.65626 0.6529 0.88786 0.0
C191 C 0.67443 0.67862 0.90252 0.0
C192 C 0.69766 0.67109 0.91488 0.0
C193 C 0.69961 0.63561 0.91298 0.0
C194 C 0.68194 0.61031 0.89822 0.0
C195 C 0.66734 0.6208 0.85258 0.0
C196 C 0.70598 0.63004 0.84727 0.0
C197 C 0.72527 0.65654 0.83311 0.0
C198 C 0.70616 0.67438 0.82393 0.0
C199 C 0.66678 0.664 0.82889 0.0
C200 C 0.64758 0.63758 0.84312 0.0
C201 C 0.61143 0.56227 0.86744 0.0
C202 C 0.57602 0.56434 0.86882 0.0
C203 C 0.53842 0.52941 0.867 0.0
C204 C 0.53564 0.49181 0.86408 0.0
C205 C 0.57138 0.49007 0.86329 0.0
C206 C 0.60875 0.52496 0.86481 0.0
C207 C 0.36594 0.32307 0.87396 0.0
C208 C 0.33639 0.32992 0.88156 0.0
C209 C 0.31385 0.30722 0.8962 0.0
C210 C 0.32056 0.27743 0.90367 0.0
C211 C 0.35143 0.27198 0.89651 0.0
C212 C 0.37375 0.29453 0.88177 0.0
C213 C 0.36107 0.33606 0.84228 0.0
C214 C 0.35271 0.30408 0.83068 0.0
C215 C 0.32534 0.29441 0.81662 0.0
C216 C 0.30543 0.31633 0.81405 0.0
C217 C 0.31469 0.34924 0.82536 0.0
C218 C 0.34276 0.35938 0.83927 0.0
C219 C 0.42252 0.38103 0.85894 0.0
C220 C 0.42545 0.41201 0.87009 0.0
C221 C 0.46198 0.44822 0.87165 0.0
C222 C 0.49595 0.45438 0.86184 0.0
C223 C 0.49205 0.42385 0.85008 0.0
C224 C 0.45587 0.38757 0.84879 0.0
C225 C 0.96549 0.10712 0.06497 0.0
C226 C 0.9944 0.09495 0.06608 0.0
C227 C 0.96883 0.13859 0.07576 0.0
C228 C 0.00121 0.15841 0.08786 0.0
C229 C 0.0299 0.14602 0.08893 0.0
C230 C 0.02646 0.11454 0.07825 0.0
C231 C 0.00726 0.19305 0.09909 0.0
C232 C 0.97761 0.2002 0.10394 0.0
C233 C 0.98506 0.23384 0.1162 0.0
C234 C 0.95505 0.22898 0.12835 0.0
C235 C 0.96271 0.2587 0.14117 0.0
C236 C 0.00046 0.29407 0.14193 0.0
H237 H 0.04522 0.27566 0.10664 0.0
C238 C 0.02958 0.29992 0.12903 0.0
C239 C 0.02198 0.2702 0.11629 0.0
H240 H 0.05857 0.3273 0.12896 0.0
H241 H 0.94061 0.09273 0.0556 0.0
H242 H 0.94662 0.14786 0.07422 0.0
H243 H 0.05523 0.16084 0.09806 0.0
H244 H 0.04932 0.10597 0.07936 0.0
H245 H 0.03732 0.21218 0.10447 0.0
H246 H 0.9467 0.17917 0.10018 0.0
H247 H 0.9262 0.20143 0.12842 0.0
H248 H 0.93967 0.25317 0.15095 0.0
C249 C 0.8911 0.00563 0.4155 0.0
C250 C 0.88706 0.97857 0.40184 0.0
C251 C 0.8576 0.99997 0.42522 0.0
C252 C 0.81918 0.96715 0.4214 0.0
C253 C 0.81533 0.9396 0.40802 0.0
C254 C 0.84889 0.94535 0.39824 0.0
C255 C 0.78296 0.96 0.43162 0.0
C256 C 0.77955 0.98991 0.4394 0.0
C257 C 0.74524 0.98333 0.45095 0.0
C258 C 0.75145 0.01313 0.46356 0.0
C259 C 0.72097 0.00759 0.47541 0.0
C260 C 0.68325 0.9722 0.4748 0.0
H261 H 0.70053 0.9254 0.43993 0.0
C262 C 0.67646 0.94298 0.4617 0.0
C263 C 0.70707 0.94847 0.44987 0.0
H264 H 0.64748 0.91575 0.46063 0.0
H265 H 0.9202 0.03132 0.41869 0.0
H266 H 0.86219 0.02102 0.43589 0.0
H267 H 0.7862 0.91378 0.40498 0.0
H268 H 0.84491 0.9239 0.38784 0.0
H269 H 0.75874 0.92909 0.43275 0.0
H270 H 0.8038 0.02076 0.43797 0.0
H271 H 0.78044 0.04039 0.46463 0.0
H272 H 0.72752 0.03052 0.48545 0.0
C273 C 0.88522 0.91391 0.74573 0.0
C274 C 0.91495 0.91298 0.73512 0.0
C275 C 0.85927 0.8807 0.7561 0.0
C276 C 0.8623 0.84561 0.75597 0.0
C277 C 0.8924 0.84497 0.74551 0.0
C278 C 0.91836 0.87823 0.73513 0.0
C279 C 0.83596 0.80989 0.76713 0.0
C280 C 0.79961 0.8017 0.77326 0.0
C281 C 0.77461 0.76752 0.7854 0.0
C282 C 0.74755 0.77074 0.79698 0.0
C283 C 0.72479 0.74021 0.80922 0.0
C284 C 0.72819 0.70543 0.81 0.0
H285 H 0.79644 0.72783 0.77655 0.0
C286 C 0.75417 0.70152 0.79792 0.0
C287 C 0.7771 0.73217 0.78573 0.0
H288 H 0.75682 0.67472 0.79789 0.0
H289 H 0.88212 0.94044 0.74611 0.0
H290 H 0.83758 0.88319 0.76444 0.0
H291 H 0.89573 0.81856 0.7453 0.0
H292 H 0.94109 0.87668 0.72712 0.0
H293 H 0.84738 0.78991 0.77045 0.0
H294 H 0.78808 0.82159 0.76996 0.0
H295 H 0.74481 0.7975 0.79692 0.0
H296 H 0.70544 0.74449 0.81844 0.0
C297 C 0.9732 0.90213 0.07595 0.0
C298 C 0.00044 0.92186 0.06193 0.0
C299 C 0.97517 0.87235 0.08591 0.0
C300 C 0.00431 0.86138 0.08195 0.0
C301 C 0.0317 0.88145 0.06802 0.0
C302 C 0.02975 0.91128 0.05807 0.0
C303 C 0.00846 0.83073 0.0925 0.0
C304 C 0.9792 0.80287 0.10297 0.0
C305 C 0.98525 0.77503 0.11465 0.0
C306 C 0.96381 0.76234 0.1308 0.0
C307 C 0.97052 0.73837 0.14278 0.0
C308 C 0.99842 0.72589 0.13874 0.0
H309 H 0.02802 0.76935 0.09758 0.0
C310 C 0.01851 0.73705 0.12214 0.0
C311 C 0.01204 0.76138 0.11022 0.0
H312 H 0.03949 0.72722 0.1184 0.0
H313 H 0.95047 0.90988 0.07932 0.0
H314 H 0.9543 0.85883 0.09689 0.0
H315 H 0.05471 0.87398 0.06477 0.0
H316 H 0.05122 0.92602 0.04736 0.0
H317 H 0.03723 0.83181 0.09177 0.0
H318 H 0.95039 0.80157 0.10393 0.0
H319 H 0.94279 0.7722 0.13448 0.0
H320 H 0.95487 0.73093 0.15551 0.0
C321 C 0.11605 0.04293 0.40456 0.0
C322 C 0.07675 0.01008 0.40573 0.0
C323 C 0.14663 0.04503 0.41554 0.0
C324 C 0.13839 0.0144 0.42805 0.0
C325 C 0.09909 0.98149 0.42909 0.0
C326 C 0.06856 0.97937 0.41809 0.0
C327 C 0.16992 0.015 0.4399 0.0
C328 C 0.20447 0.04871 0.44421 0.0
C329 C 0.2347 0.049 0.4568 0.0
C330 C 0.25976 0.08433 0.46645 0.0
C331 C 0.28735 0.0853 0.47899 0.0
C332 C 0.29074 0.05098 0.48203 0.0
H333 H 0.22151 0.98778 0.45167 0.0
C334 C 0.26674 0.01606 0.47187 0.0
C335 C 0.23912 0.01508 0.45935 0.0
H336 H 0.2693 0.98942 0.47361 0.0
H337 H 0.12334 0.06684 0.39501 0.0
H338 H 0.17668 0.07031 0.41386 0.0
H339 H 0.09191 0.95732 0.43849 0.0
H340 H 0.03858 0.95358 0.41924 0.0
H341 H 0.16314 0.98671 0.44609 0.0
H342 H 0.20977 0.07765 0.43944 0.0
H343 H 0.25727 0.11101 0.46463 0.0
H344 H 0.30513 0.11259 0.48668 0.0
C345 C 0.0737 0.14893 0.73123 0.0
C346 C 0.05438 0.10953 0.738 0.0
C347 C 0.10024 0.18125 0.74207 0.0
C348 C 0.10752 0.17464 0.75992 0.0
C349 C 0.08643 0.13555 0.76692 0.0
C350 C 0.06045 0.10322 0.75602 0.0
C351 C 0.13818 0.20724 0.77137 0.0
C352 C 0.17307 0.23695 0.76475 0.0
C353 C 0.20749 0.26306 0.77661 0.0
C354 C 0.24644 0.27339 0.77114 0.0
C355 C 0.27881 0.29254 0.78304 0.0
C356 C 0.27291 0.30249 0.8005 0.0
H357 H 0.17244 0.26862 0.79812 0.0
C358 C 0.2345 0.29497 0.80551 0.0
C359 C 0.20199 0.27527 0.79369 0.0
H360 H 0.22918 0.30233 0.81891 0.0
H361 H 0.06936 0.15464 0.7174 0.0
H362 H 0.11532 0.21121 0.73642 0.0
H363 H 0.09131 0.12974 0.78066 0.0
H364 H 0.04569 0.07319 0.76162 0.0
H365 H 0.13438 0.20339 0.78583 0.0
H366 H 0.17869 0.23826 0.7504 0.0
H367 H 0.25149 0.26464 0.75798 0.0
H368 H 0.30825 0.29838 0.77882 0.0
C369 C 0.88406 0.02131 0.6675 0.0
C370 C 0.9028 0.99798 0.66632 0.0
C371 C 0.85257 0.01425 0.65584 0.0
C372 C 0.83932 0.98371 0.64272 0.0
C373 C 0.85815 0.96046 0.64161 0.0
C374 C 0.88968 0.96762 0.65321 0.0
C375 C 0.80509 0.974 0.63044 0.0
C376 C 0.79363 0.00067 0.62569 0.0
C377 C 0.75975 0.99129 0.61315 0.0
C378 C 0.7442 0.01753 0.61259 0.0
C379 C 0.71308 0.01058 0.60074 0.0
C380 C 0.6968 0.97716 0.58915 0.0
H381 H 0.75519 0.93752 0.60084 0.0
C382 C 0.71226 0.95086 0.58967 0.0
C383 C 0.74349 0.9579 0.60143 0.0
H384 H 0.70093 0.92536 0.5806 0.0
H385 H 0.89332 0.04468 0.67759 0.0
H386 H 0.83813 0.03206 0.65753 0.0
H387 H 0.84842 0.9366 0.63173 0.0
H388 H 0.90341 0.949 0.65203 0.0
H389 H 0.78947 0.94374 0.62499 0.0
H390 H 0.80967 0.03097 0.63115 0.0
H391 H 0.75618 0.04358 0.62136 0.0
H392 H 0.70167 0.0313 0.60069 0.0
C393 C 0.90608 0.90963 0.98406 0.0
C394 C 0.89755 0.9272 -0.00129 0.0
C395 C 0.87503 0.87849 0.97434 0.0
C396 C 0.83464 0.86395 0.97912 0.0
C397 C 0.826 0.88272 0.99323 0.0
C398 C 0.8572 0.91394 0.00305 0.0
C399 C 0.80136 0.8295 0.9694 0.0
C400 C 0.8057 0.7991 0.96288 0.0
C401 C 0.77565 0.76513 0.95168 0.0
C402 C 0.78821 0.7406 0.94321 0.0
C403 C 0.76256 0.70967 0.93169 0.0
C404 C 0.72327 0.70199 0.92842 0.0
H405 H 0.72462 0.77452 0.95528 0.0
C406 C 0.7101 0.72573 0.93727 0.0
C407 C 0.73597 0.75699 0.9488 0.0
H408 H 0.67985 0.72031 0.93522 0.0
H409 H 0.93685 0.91953 0.98024 0.0
H410 H 0.88282 0.86588 0.96306 0.0
H411 H 0.79511 0.87249 -0.00301 0.0
H412 H 0.84976 0.92712 0.01422 0.0
H413 H 0.77322 0.82938 0.96792 0.0
H414 H 0.83384 0.79961 0.96544 0.0
H415 H 0.81852 0.74603 0.94512 0.0
H416 H 0.77418 0.69268 0.92486 0.0
C417 C 0.96381 0.88243 0.33276 0.0
C418 C 0.99371 0.92316 0.33386 0.0
C419 C 0.96718 0.85677 0.32037 0.0
C420 C 0.00079 0.87143 0.30893 0.0
C421 C 0.03045 0.91223 0.31007 0.0
C422 C 0.02702 0.93777 0.32238 0.0
C423 C 0.00593 0.8461 0.29521 0.0
C424 C 0.9849 0.80554 0.29468 0.0
C425 C 0.99186 0.78193 0.28069 0.0
C426 C 0.98273 0.74238 0.28444 0.0
C427 C 0.99044 0.7201 0.27174 0.0
C428 C 0.00742 0.73706 0.25506 0.0
H429 H 0.0128 0.82762 0.25982 0.0
C430 C 0.01512 0.77601 0.25107 0.0
C431 C 0.00717 0.79807 0.26364 0.0
H432 H 0.02709 0.78938 0.23811 0.0
H433 H 0.93767 0.87041 0.34139 0.0
H434 H 0.94309 0.82586 0.31969 0.0
H435 H 0.05655 0.9245 0.30139 0.0
H436 H 0.05058 0.96903 0.3229 0.0
H437 H 0.02964 0.86206 0.28545 0.0
H438 H 0.96355 0.78885 0.30521 0.0
H439 H 0.97038 0.72897 0.29735 0.0
H440 H 0.98401 0.69002 0.27512 0.0
C441 C 0.10104 0.99271 0.6772 0.0
C442 C 0.08971 0.02219 0.67581 0.0
C443 C 0.13459 0.99696 0.66789 0.0
C444 C 0.15743 0.03088 0.65703 0.0
C445 C 0.14646 0.06063 0.65599 0.0
C446 C 0.11283 0.05624 0.66516 0.0
C447 C 0.19294 0.03658 0.64669 0.0
C448 C 0.19723 0.0059 0.64056 0.0
C449 C 0.23035 0.01221 0.6283 0.0
C450 C 0.2231 0.9829 0.61527 0.0
C451 C 0.25235 0.98941 0.60249 0.0
C452 C 0.2898 0.02522 0.60264 0.0
H453 H 0.27555 0.06978 0.6393 0.0
C454 C 0.2978 0.05361 0.61632 0.0
C455 C 0.26842 0.0472 0.62902 0.0
H456 H 0.32667 0.08103 0.61712 0.0
H457 H 0.08396 0.96632 0.68545 0.0
H458 H 0.14276 0.97392 0.66943 0.0
H459 H 0.16367 0.08718 0.64783 0.0
H460 H 0.10501 0.07962 0.66393 0.0
H461 H 0.21449 0.0671 0.64265 0.0
H462 H 0.17374 0.97511 0.64303 0.0
H463 H 0.19413 0.95555 0.61451 0.0
H464 H 0.24493 0.96703 0.59208 0.0
C465 C 0.1218 0.09149 -0.00236 0.0
C466 C 0.0844 0.08979 -0.00212 0.0
C467 C 0.15287 0.11916 0.98669 0.0
C468 C 0.14706 0.14567 0.97573 0.0
C469 C 0.10986 0.14435 0.97623 0.0
C470 C 0.07875 0.11654 0.98709 0.0
C471 C 0.17922 0.17553 0.9639 0.0
C472 C 0.20844 0.17004 0.95686 0.0
C473 C 0.23869 0.19864 0.94399 0.0
C474 C 0.25435 0.18382 0.93097 0.0
C475 C 0.28143 0.20947 0.91811 0.0
C476 C 0.29399 0.25075 0.91815 0.0
H477 H 0.24175 0.25281 0.95468 0.0
C478 C 0.27948 0.26585 0.93166 0.0
C479 C 0.25212 0.2401 0.94444 0.0
H480 H 0.28922 0.29761 0.93236 0.0
H481 H 0.12715 0.07149 0.00595 0.0
H482 H 0.18148 0.12006 0.9871 0.0
H483 H 0.10469 0.16464 0.96803 0.0
H484 H 0.05032 0.11612 0.98709 0.0
H485 H 0.17697 0.20152 0.95987 0.0
H486 H 0.20842 0.14218 0.95941 0.0
H487 H 0.24472 0.15205 0.93042 0.0
H488 H 0.29153 0.19662 0.90781 0.0
C489 C 0.96814 0.08906 0.32662 0.0
C490 C 0.99398 0.09662 0.3413 0.0
C491 C 0.97042 0.12081 0.31656 0.0
C492 C 0.99848 0.16097 0.32109 0.0
C493 C 0.0244 0.16839 0.33573 0.0
C494 C 0.02211 0.1366 0.34578 0.0
C495 C 0.00319 0.19568 0.31032 0.0
C496 C 0.97439 0.19409 0.2994 0.0
C497 C 0.98088 0.22759 0.28735 0.0
C498 C 0.95903 0.2183 0.27123 0.0
C499 C 0.96606 0.24847 0.25891 0.0
C500 C 0.99475 0.28885 0.26254 0.0
H501 H 0.02482 0.27665 0.30395 0.0
C502 C 0.01534 0.29839 0.27907 0.0
C503 C 0.00849 0.26812 0.29136 0.0
H504 H 0.03696 0.32927 0.28248 0.0
H505 H 0.94637 0.05851 0.32276 0.0
H506 H 0.95079 0.11347 0.30504 0.0
H507 H 0.04657 0.19893 0.33941 0.0
H508 H 0.04251 0.14335 0.35701 0.0
H509 H 0.03198 0.22332 0.31125 0.0
H510 H 0.94556 0.16658 0.29837 0.0
H511 H 0.93739 0.18737 0.26786 0.0
H512 H 0.94997 0.23983 0.24624 0.0
loop_
_geom_bond_atom_site_label_1
_geom_bond_atom_site_label_2
_geom_bond_distance
_geom_bond_site_symmetry_2
_ccdc_geom_bond_type
In0 O1 2.294 1_455 S
In0 O2 2.326 . S
In0 O6 2.266 1_445 S
In0 O7 2.326 1_445 S
In0 O8 2.266 1_545 S
In0 O9 2.326 1_445 S
In0 O11 2.294 . S
In0 O12 2.326 . S
O1 In0 2.294 1_655 S
O1 C10 1.240 1_655 S
O2 In0 2.326 . S
O2 C10 1.252 . S
C3 O6 1.252 . S
C3 O7 1.260 . S
C4 O11 1.240 . S
C4 O12 1.252 . S
C5 O8 1.239 1_655 S
C5 O9 1.282 . S
O6 In0 2.266 1_665 S
O6 C3 1.252 . S
O7 In0 2.326 1_665 S
O7 C3 1.260 . S
O8 In0 2.266 1_565 S
O8 C5 1.239 1_455 S
O9 In0 2.326 1_665 S
O9 C5 1.282 . S
C10 O1 1.240 1_455 S
C10 O2 1.252 . S
O11 In0 2.294 . S
O11 C4 1.240 . S
O12 In0 2.326 . S
O12 C4 1.252 . S
In13 O14 2.292 . S
In13 O15 2.310 1_455 S
In13 O19 2.286 . S
In13 O20 2.339 1_545 S
In13 O21 2.269 1_445 S
In13 O22 2.342 1_545 S
In13 O24 2.275 1_445 S
In13 O25 2.312 1_455 S
O14 In13 2.292 . S
O14 C23 1.240 1_455 S
O15 In13 2.310 1_655 S
O15 C23 1.252 . S
C16 O19 1.239 1_565 S
C16 O20 1.266 . S
C17 O24 1.240 1_545 S
C17 O25 1.252 . S
C18 O21 1.252 1_455 S
C18 O22 1.260 . S
O19 In13 2.286 . S
O19 C16 1.239 1_545 S
O20 In13 2.339 1_565 S
O20 C16 1.266 . S
O21 In13 2.269 1_665 S
O21 C18 1.252 1_655 S
O22 In13 2.342 1_565 S
O22 C18 1.260 . S
C23 O14 1.240 1_655 S
C23 O15 1.252 . S
O24 In13 2.275 1_665 S
O24 C17 1.240 1_565 S
O25 In13 2.312 1_655 S
O25 C17 1.252 . S
In26 O27 2.275 1_445 S
In26 O28 2.310 1_445 S
In26 O32 2.271 1_545 S
In26 O33 2.343 . S
In26 O34 2.286 . S
In26 O35 2.341 . S
In26 O37 2.289 1_455 S
In26 O38 2.308 1_445 S
O27 In26 2.275 1_665 S
O27 C36 1.240 . S
O28 In26 2.310 1_665 S
O28 C36 1.252 . S
C29 O32 1.252 1_545 S
C29 O33 1.260 . S
C30 O37 1.240 1_565 S
C30 O38 1.252 . S
C31 O34 1.252 . S
C31 O35 1.260 . S
O32 In26 2.271 1_565 S
O32 C29 1.252 1_565 S
O33 In26 2.343 . S
O33 C29 1.260 . S
O34 In26 2.286 . S
O34 C31 1.252 . S
O35 In26 2.341 . S
O35 C31 1.260 . S
C36 O27 1.240 . S
C36 O28 1.252 . S
O37 In26 2.289 1_655 S
O37 C30 1.240 1_545 S
O38 In26 2.308 1_665 S
O38 C30 1.252 . S
H39 C66 0.929 . S
N40 C65 1.433 . S
N40 C71 1.435 . S
N40 C77 1.423 . S
H41 C67 0.930 . S
H42 C70 0.931 . S
H43 C69 0.929 . S
H44 C72 0.930 . S
H45 C73 0.932 . S
H46 C76 0.929 . S
H47 C75 0.931 . S
H48 C78 0.929 . S
H49 C82 0.929 1_455 S
H50 C79 0.931 . S
H51 C81 0.929 1_455 S
H52 C84 0.929 . S
H53 C85 0.930 . S
H54 C87 0.929 . S
H55 C88 0.931 . S
H56 C90 0.930 . S
H57 C91 0.932 . S
H58 C93 0.931 . S
H59 C94 0.929 . S
H60 C96 0.929 . S
H61 C97 0.931 . S
H62 C99 0.929 1_455 S
N63 C83 1.433 . S
N63 C89 1.435 . S
N63 C95 1.423 . S
H64 C100 0.925 1_455 S
C65 N40 1.433 . S
C65 C66 1.363 . S
C65 C70 1.370 1_655 S
C66 H39 0.929 . S
C66 C65 1.363 . S
C66 C67 1.385 . S
C67 H41 0.930 . S
C67 C66 1.385 . S
C67 C68 1.357 . S
C68 C67 1.357 . S
C68 C69 1.406 1_655 S
C69 H43 0.929 . S
C69 C68 1.406 1_455 S
C69 C70 1.391 . S
C70 H42 0.931 . S
C70 C65 1.370 1_455 S
C70 C69 1.391 . S
C71 N40 1.435 . S
C71 C72 1.358 1_655 S
C71 C76 1.371 . S
C72 H44 0.930 . S
C72 C71 1.358 1_455 S
C72 C73 1.405 . S
C73 H45 0.932 . S
C73 C72 1.405 . S
C73 C74 1.391 . S
C74 C73 1.391 . S
C74 C75 1.389 1_455 S
C75 H47 0.931 . S
C75 C74 1.389 1_655 S
C75 C76 1.382 . S
C76 H46 0.929 . S
C76 C71 1.371 . S
C76 C75 1.382 . S
C77 N40 1.423 . S
C77 C78 1.362 . S
C77 C82 1.395 . S
C78 H48 0.929 . S
C78 C77 1.362 . S
C78 C79 1.376 . S
C79 H50 0.931 . S
C79 C78 1.376 . S
C79 C80 1.396 . S
C80 C79 1.396 . S
C80 C81 1.348 . S
C80 C98 1.472 . S
C81 H51 0.929 1_655 S
C81 C80 1.348 . S
C81 C82 1.439 . S
C82 H49 0.929 1_655 S
C82 C77 1.395 . S
C82 C81 1.439 . S
C83 N63 1.433 . S
C83 C84 1.363 . S
C83 C88 1.370 1_655 S
C84 H52 0.929 . S
C84 C83 1.363 . S
C84 C85 1.385 . S
C85 H53 0.930 . S
C85 C84 1.385 . S
C85 C86 1.357 . S
C86 C85 1.357 . S
C86 C87 1.406 1_655 S
C87 H54 0.929 . S
C87 C86 1.406 1_455 S
C87 C88 1.391 . S
C88 H55 0.931 . S
C88 C83 1.370 1_455 S
C88 C87 1.391 . S
C89 N63 1.435 . S
C89 C90 1.358 1_655 S
C89 C94 1.371 . S
C90 H56 0.930 . S
C90 C89 1.358 1_455 S
C90 C91 1.405 . S
C91 H57 0.932 . S
C91 C90 1.405 . S
C91 C92 1.393 . S
C92 C91 1.393 . S
C92 C93 1.376 1_455 S
C93 H58 0.931 . S
C93 C92 1.376 1_655 S
C93 C94 1.382 . S
C94 H59 0.929 . S
C94 C89 1.371 . S
C94 C93 1.382 . S
C95 N63 1.423 . S
C95 C96 1.362 . S
C95 C100 1.390 . S
C96 H60 0.929 . S
C96 C95 1.362 . S
C96 C97 1.376 . S
C97 H61 0.931 . S
C97 C96 1.376 . S
C97 C98 1.396 . S
C98 C80 1.472 . S
C98 C97 1.396 . S
C98 C99 1.348 . S
C99 H62 0.929 1_655 S
C99 C98 1.348 . S
C99 C100 1.448 . S
C100 H64 0.925 1_655 S
C100 C95 1.390 . S
C100 C99 1.448 . S
H101 C128 0.929 . S
N102 C127 1.433 . S
N102 C133 1.435 . S
N102 C139 1.423 . S
H103 C129 0.930 . S
H104 C132 0.931 . S
H105 C131 0.929 . S
H106 C134 0.930 . S
H107 C135 0.932 . S
H108 C138 0.929 . S
H109 C137 0.931 . S
H110 C140 0.929 . S
H111 C144 0.932 1_565 S
H112 C141 0.931 . S
H113 C143 0.929 1_565 S
H114 C146 0.929 . S
H115 C147 0.930 . S
H116 C149 0.929 . S
H117 C150 0.931 . S
H118 C152 0.930 . S
H119 C153 0.932 . S
H120 C155 0.931 . S
H121 C156 0.929 . S
H122 C158 0.929 . S
H123 C159 0.931 . S
H124 C161 0.929 1_565 S
N125 C145 1.433 . S
N125 C151 1.435 . S
N125 C157 1.423 . S
H126 C162 0.932 1_565 S
C127 N102 1.433 . S
C127 C128 1.363 . S
C127 C132 1.370 1_545 S
C128 H101 0.929 . S
C128 C127 1.363 . S
C128 C129 1.385 . S
C129 H103 0.930 . S
C129 C128 1.385 . S
C129 C130 1.357 . S
C130 C129 1.357 . S
C130 C131 1.406 1_545 S
C131 H105 0.929 . S
C131 C130 1.406 1_565 S
C131 C132 1.391 . S
C132 H104 0.931 . S
C132 C127 1.370 1_565 S
C132 C131 1.391 . S
C133 N102 1.435 . S
C133 C134 1.358 1_545 S
C133 C138 1.371 . S
C134 H106 0.930 . S
C134 C133 1.358 1_565 S
C134 C135 1.405 . S
C135 H107 0.932 . S
C135 C134 1.405 . S
C135 C136 1.383 1_565 S
C136 C135 1.383 1_545 S
C136 C137 1.393 . S
C137 H109 0.931 . S
C137 C136 1.393 . S
C137 C138 1.382 . S
C138 H108 0.929 . S
C138 C133 1.371 . S
C138 C137 1.382 . S
C139 N102 1.423 . S
C139 C140 1.362 . S
C139 C144 1.388 . S
C140 H110 0.929 . S
C140 C139 1.362 . S
C140 C141 1.376 . S
C141 H112 0.931 . S
C141 C140 1.376 . S
C141 C142 1.396 . S
C142 C141 1.396 . S
C142 C143 1.348 . S
C142 C160 1.472 . S
C143 H113 0.929 1_545 S
C143 C142 1.348 . S
C143 C144 1.443 . S
C144 H111 0.932 1_545 S
C144 C139 1.388 . S
C144 C143 1.443 . S
C145 N125 1.433 . S
C145 C146 1.363 . S
C145 C150 1.370 1_545 S
C146 H114 0.929 . S
C146 C145 1.363 . S
C146 C147 1.385 . S
C147 H115 0.930 . S
C147 C146 1.385 . S
C147 C148 1.357 . S
C148 C147 1.357 . S
C148 C149 1.406 1_545 S
C149 H116 0.929 . S
C149 C148 1.406 1_565 S
C149 C150 1.391 . S
C150 H117 0.931 . S
C150 C145 1.370 1_565 S
C150 C149 1.391 . S
C151 N125 1.435 . S
C151 C152 1.358 1_545 S
C151 C156 1.371 . S
C152 H118 0.930 . S
C152 C151 1.358 1_565 S
C152 C153 1.405 . S
C153 H119 0.932 . S
C153 C152 1.405 . S
C153 C154 1.383 1_565 S
C154 C153 1.383 1_545 S
C154 C155 1.393 . S
C155 H120 0.931 . S
C155 C154 1.393 . S
C155 C156 1.382 . S
C156 H121 0.929 . S
C156 C151 1.371 . S
C156 C155 1.382 . S
C157 N125 1.423 . S
C157 C158 1.362 . S
C157 C162 1.388 . S
C158 H122 0.929 . S
C158 C157 1.362 . S
C158 C159 1.376 . S
C159 H123 0.931 . S
C159 C158 1.376 . S
C159 C160 1.396 . S
C160 C142 1.472 . S
C160 C159 1.396 . S
C160 C161 1.348 . S
C161 H124 0.929 1_545 S
C161 C160 1.348 . S
C161 C162 1.443 . S
C162 H126 0.932 1_545 S
C162 C157 1.388 . S
C162 C161 1.443 . S
H163 C190 0.929 . S
N164 C189 1.433 . S
N164 C195 1.435 . S
N164 C201 1.423 . S
H165 C191 0.930 . S
H166 C194 0.931 . S
H167 C193 0.929 . S
H168 C196 0.930 . S
H169 C197 0.932 . S
H170 C200 0.929 . S
H171 C199 0.931 . S
H172 C202 0.929 . S
H173 C206 0.932 . S
H174 C203 0.931 . S
H175 C205 0.929 . S
H176 C208 0.929 . S
H177 C209 0.930 . S
H178 C211 0.929 . S
H179 C212 0.931 . S
H180 C214 0.930 . S
H181 C215 0.932 . S
H182 C217 0.931 . S
H183 C218 0.929 . S
H184 C220 0.929 . S
H185 C221 0.931 . S
H186 C223 0.929 . S
N187 C207 1.433 . S
N187 C213 1.435 . S
N187 C219 1.423 . S
H188 C224 0.932 . S
C189 N164 1.433 . S
C189 C190 1.363 . S
C189 C194 1.370 . S
C190 H163 0.929 . S
C190 C189 1.363 . S
C190 C191 1.385 . S
C191 H165 0.930 . S
C191 C190 1.385 . S
C191 C192 1.357 . S
C192 C191 1.357 . S
C192 C193 1.406 . S
C193 H167 0.929 . S
C193 C192 1.406 . S
C193 C194 1.391 . S
C194 H166 0.931 . S
C194 C189 1.370 . S
C194 C193 1.391 . S
C195 N164 1.435 . S
C195 C196 1.358 . S
C195 C200 1.371 . S
C196 H168 0.930 . S
C196 C195 1.358 . S
C196 C197 1.405 . S
C197 H169 0.932 . S
C197 C196 1.405 . S
C197 C198 1.383 . S
C198 C197 1.383 . S
C198 C199 1.393 . S
C199 H171 0.931 . S
C199 C198 1.393 . S
C199 C200 1.382 . S
C200 H170 0.929 . S
C200 C195 1.371 . S
C200 C199 1.382 . S
C201 N164 1.423 . S
C201 C202 1.362 . S
C201 C206 1.388 . S
C202 H172 0.929 . S
C202 C201 1.362 . S
C202 C203 1.376 . S
C203 H174 0.931 . S
C203 C202 1.376 . S
C203 C204 1.396 . S
C204 C203 1.396 . S
C204 C205 1.348 . S
C204 C222 1.472 . S
C205 H175 0.929 . S
C205 C204 1.348 . S
C205 C206 1.443 . S
C206 H173 0.932 . S
C206 C201 1.388 . S
C206 C205 1.443 . S
C207 N187 1.433 . S
C207 C208 1.363 . S
C207 C212 1.370 . S
C208 H176 0.929 . S
C208 C207 1.363 . S
C208 C209 1.385 . S
C209 H177 0.930 . S
C209 C208 1.385 . S
C209 C210 1.357 . S
C210 C209 1.357 . S
C210 C211 1.406 . S
C211 H178 0.929 . S
C211 C210 1.406 . S
C211 C212 1.391 . S
C212 H179 0.931 . S
C212 C207 1.370 . S
C212 C211 1.391 . S
C213 N187 1.435 . S
C213 C214 1.358 . S
C213 C218 1.371 . S
C214 H180 0.930 . S
C214 C213 1.358 . S
C214 C215 1.405 . S
C215 H181 0.932 . S
C215 C214 1.405 . S
C215 C216 1.383 . S
C216 C215 1.383 . S
C216 C217 1.393 . S
C217 H182 0.931 . S
C217 C216 1.393 . S
C217 C218 1.382 . S
C218 H183 0.929 . S
C218 C213 1.371 . S
C218 C217 1.382 . S
C219 N187 1.423 . S
C219 C220 1.362 . S
C219 C224 1.388 . S
C220 H184 0.929 . S
C220 C219 1.362 . S
C220 C221 1.376 . S
C221 H185 0.931 . S
C221 C220 1.376 . S
C221 C222 1.396 . S
C222 C204 1.472 . S
C222 C221 1.396 . S
C222 C223 1.348 . S
C223 H186 0.929 . S
C223 C222 1.348 . S
C223 C224 1.443 . S
C224 H188 0.932 . S
C224 C219 1.388 . S
C224 C223 1.443 . S
C225 C226 1.386 1_655 S
C225 C227 1.383 . S
C225 H241 0.951 . S
C226 C225 1.386 1_455 S
C226 C230 1.383 . S
C227 C225 1.383 . S
C227 C228 1.402 1_655 S
C227 H242 0.951 . S
C228 C227 1.402 1_455 S
C228 C229 1.375 . S
C228 C231 1.481 . S
C229 C228 1.375 . S
C229 C230 1.367 . S
C229 H243 0.951 . S
C230 C226 1.383 . S
C230 C229 1.367 . S
C230 H244 0.950 . S
C231 C228 1.481 . S
C231 C232 1.297 . S
C231 H245 0.950 . S
C232 C231 1.297 . S
C232 C233 1.479 . S
C232 H246 0.950 . S
C233 C232 1.479 . S
C233 C234 1.375 1_455 S
C233 C239 1.404 . S
C234 C233 1.375 1_655 S
C234 C235 1.369 . S
C234 H247 0.950 . S
C235 C234 1.369 . S
C235 C236 1.392 1_655 S
C235 H248 0.951 . S
C236 C235 1.392 1_455 S
C236 C238 1.384 . S
H237 C239 0.949 . S
C238 C236 1.384 . S
C238 C239 1.385 . S
C238 H240 0.950 . S
C239 C233 1.404 . S
C239 H237 0.949 . S
C239 C238 1.385 . S
H240 C238 0.950 . S
H241 C225 0.951 . S
H242 C227 0.951 . S
H243 C229 0.951 . S
H244 C230 0.950 . S
H245 C231 0.950 . S
H246 C232 0.950 . S
H247 C234 0.950 . S
H248 C235 0.951 . S
C249 C250 1.386 . S
C249 C251 1.383 . S
C249 H265 0.951 . S
C250 C249 1.386 . S
C250 C254 1.383 1_545 S
C251 C249 1.383 . S
C251 C252 1.402 1_545 S
C251 H266 0.951 . S
C252 C251 1.402 1_565 S
C252 C253 1.375 . S
C252 C255 1.481 . S
C253 C252 1.375 . S
C253 C254 1.367 . S
C253 H267 0.951 . S
C254 C250 1.383 1_565 S
C254 C253 1.367 . S
C254 H268 0.950 . S
C255 C252 1.481 . S
C255 C256 1.297 1_565 S
C255 H269 0.950 . S
C256 C255 1.297 1_545 S
C256 C257 1.479 . S
C256 H270 0.950 . S
C257 C256 1.479 . S
C257 C258 1.375 . S
C257 C263 1.404 1_545 S
C258 C257 1.375 . S
C258 C259 1.369 . S
C258 H271 0.950 . S
C259 C258 1.369 . S
C259 C260 1.392 . S
C259 H272 0.951 . S
C260 C259 1.392 . S
C260 C262 1.384 1_545 S
H261 C263 0.949 . S
C262 C260 1.384 1_565 S
C262 C263 1.385 . S
C262 H264 0.950 . S
C263 C257 1.404 1_565 S
C263 H261 0.949 . S
C263 C262 1.385 . S
H264 C262 0.950 . S
H265 C249 0.951 . S
H266 C251 0.951 . S
H267 C253 0.951 . S
H268 C254 0.950 . S
H269 C255 0.950 . S
H270 C256 0.950 . S
H271 C258 0.950 . S
H272 C259 0.951 . S
C273 C274 1.386 . S
C273 C275 1.383 . S
C273 H289 0.951 . S
C274 C273 1.386 . S
C274 C278 1.383 . S
C275 C273 1.383 . S
C275 C276 1.402 . S
C275 H290 0.951 . S
C276 C275 1.402 . S
C276 C277 1.375 . S
C276 C279 1.481 . S
C277 C276 1.375 . S
C277 C278 1.367 . S
C277 H291 0.951 . S
C278 C274 1.383 . S
C278 C277 1.367 . S
C278 H292 0.950 . S
C279 C276 1.481 . S
C279 C280 1.297 . S
C279 H293 0.950 . S
C280 C279 1.297 . S
C280 C281 1.479 . S
C280 H294 0.950 . S
C281 C280 1.479 . S
C281 C282 1.375 . S
C281 C287 1.404 . S
C282 C281 1.375 . S
C282 C283 1.369 . S
C282 H295 0.950 . S
C283 C282 1.369 . S
C283 C284 1.392 . S
C283 H296 0.951 . S
C284 C283 1.392 . S
C284 C286 1.384 . S
H285 C287 0.949 . S
C286 C284 1.384 . S
C286 C287 1.385 . S
C286 H288 0.950 . S
C287 C281 1.404 . S
C287 H285 0.949 . S
C287 C286 1.385 . S
H288 C286 0.950 . S
H289 C273 0.951 . S
H290 C275 0.951 . S
H291 C277 0.951 . S
H292 C278 0.950 . S
H293 C279 0.950 . S
H294 C280 0.950 . S
H295 C282 0.950 . S
H296 C283 0.951 . S
C297 C298 1.386 . S
C297 C299 1.383 . S
C297 H313 0.951 . S
C298 C297 1.386 . S
C298 C302 1.383 1_655 S
C299 C297 1.383 . S
C299 C300 1.402 . S
C299 H314 0.951 . S
C300 C299 1.402 . S
C300 C301 1.375 1_655 S
C300 C303 1.481 . S
C301 C300 1.375 1_455 S
C301 C302 1.367 . S
C301 H315 0.951 . S
C302 C298 1.383 1_455 S
C302 C301 1.367 . S
C302 H316 0.950 . S
C303 C300 1.481 . S
C303 C304 1.297 . S
C303 H317 0.950 1_655 S
C304 C303 1.297 . S
C304 C305 1.479 . S
C304 H318 0.950 . S
C305 C304 1.479 . S
C305 C306 1.375 . S
C305 C311 1.404 . S
C306 C305 1.375 . S
C306 C307 1.369 . S
C306 H319 0.950 . S
C307 C306 1.369 . S
C307 C308 1.392 . S
C307 H320 0.951 . S
C308 C307 1.392 . S
C308 C310 1.384 . S
H309 C311 0.949 . S
C310 C308 1.384 . S
C310 C311 1.385 . S
C310 H312 0.950 1_655 S
C311 C305 1.404 . S
C311 H309 0.949 . S
C311 C310 1.385 . S
H312 C310 0.950 1_455 S
H313 C297 0.951 . S
H314 C299 0.951 . S
H315 C301 0.951 . S
H316 C302 0.950 . S
H317 C303 0.950 1_455 S
H318 C304 0.950 . S
H319 C306 0.950 . S
H320 C307 0.951 . S
C321 C322 1.386 1_545 S
C321 C323 1.383 . S
C321 H337 0.951 . S
C322 C321 1.386 1_565 S
C322 C326 1.383 . S
C323 C321 1.383 . S
C323 C324 1.402 1_545 S
C323 H338 0.951 . S
C324 C323 1.402 1_565 S
C324 C325 1.375 . S
C324 C327 1.481 . S
C325 C324 1.375 . S
C325 C326 1.367 . S
C325 H339 0.951 . S
C326 C322 1.383 . S
C326 C325 1.367 . S
C326 H340 0.950 . S
C327 C324 1.481 . S
C327 C328 1.297 . S
C327 H341 0.950 . S
C328 C327 1.297 . S
C328 C329 1.479 . S
C328 H342 0.950 1_565 S
C329 C328 1.479 . S
C329 C330 1.375 1_565 S
C329 C335 1.404 . S
C330 C329 1.375 1_545 S
C330 C331 1.369 . S
C330 H343 0.950 . S
C331 C330 1.369 . S
C331 C332 1.392 1_545 S
C331 H344 0.951 . S
C332 C331 1.392 1_565 S
C332 C334 1.384 . S
H333 C335 0.949 . S
C334 C332 1.384 . S
C334 C335 1.385 . S
C334 H336 0.950 . S
C335 C329 1.404 . S
C335 H333 0.949 . S
C335 C334 1.385 . S
H336 C334 0.950 . S
H337 C321 0.951 . S
H338 C323 0.951 . S
H339 C325 0.951 . S
H340 C326 0.950 . S
H341 C327 0.950 . S
H342 C328 0.950 1_545 S
H343 C330 0.950 . S
H344 C331 0.951 . S
C345 C346 1.386 . S
C345 C347 1.383 . S
C345 H361 0.951 . S
C346 C345 1.386 . S
C346 C350 1.383 . S
C347 C345 1.383 . S
C347 C348 1.402 . S
C347 H362 0.951 . S
C348 C347 1.402 . S
C348 C349 1.375 . S
C348 C351 1.481 . S
C349 C348 1.375 . S
C349 C350 1.367 . S
C349 H363 0.951 . S
C350 C346 1.383 . S
C350 C349 1.367 . S
C350 H364 0.950 . S
C351 C348 1.481 . S
C351 C352 1.297 . S
C351 H365 0.950 . S
C352 C351 1.297 . S
C352 C353 1.479 . S
C352 H366 0.950 . S
C353 C352 1.479 . S
C353 C354 1.375 . S
C353 C359 1.404 . S
C354 C353 1.375 . S
C354 C355 1.369 . S
C354 H367 0.950 . S
C355 C354 1.369 . S
C355 C356 1.392 . S
C355 H368 0.951 . S
C356 C355 1.392 . S
C356 C358 1.384 . S
H357 C359 0.949 . S
C358 C356 1.384 . S
C358 C359 1.385 . S
C358 H360 0.950 . S
C359 C353 1.404 . S
C359 H357 0.949 . S
C359 C358 1.385 . S
H360 C358 0.950 . S
H361 C345 0.951 . S
H362 C347 0.951 . S
H363 C349 0.951 . S
H364 C350 0.950 . S
H365 C351 0.950 . S
H366 C352 0.950 . S
H367 C354 0.950 . S
H368 C355 0.951 . S
C369 C370 1.386 1_545 S
C369 C371 1.383 . S
C369 H385 0.951 . S
C370 C369 1.386 1_565 S
C370 C374 1.383 . S
C371 C369 1.383 . S
C371 C372 1.402 1_545 S
C371 H386 0.951 . S
C372 C371 1.402 1_565 S
C372 C373 1.375 . S
C372 C375 1.481 . S
C373 C372 1.375 . S
C373 C374 1.367 . S
C373 H387 0.951 . S
C374 C370 1.383 . S
C374 C373 1.367 . S
C374 H388 0.950 . S
C375 C372 1.481 . S
C375 C376 1.297 1_565 S
C375 H389 0.950 . S
C376 C375 1.297 1_545 S
C376 C377 1.479 . S
C376 H390 0.950 . S
C377 C376 1.479 . S
C377 C378 1.375 . S
C377 C383 1.404 1_545 S
C378 C377 1.375 . S
C378 C379 1.369 . S
C378 H391 0.950 . S
C379 C378 1.369 . S
C379 C380 1.392 . S
C379 H392 0.951 . S
C380 C379 1.392 . S
C380 C382 1.384 1_545 S
H381 C383 0.949 . S
C382 C380 1.384 1_565 S
C382 C383 1.385 . S
C382 H384 0.950 . S
C383 C377 1.404 1_565 S
C383 H381 0.949 . S
C383 C382 1.385 . S
H384 C382 0.950 . S
H385 C369 0.951 . S
H386 C371 0.951 . S
H387 C373 0.951 . S
H388 C374 0.950 . S
H389 C375 0.950 . S
H390 C376 0.950 . S
H391 C378 0.950 . S
H392 C379 0.951 . S
C393 C394 1.386 . S
C393 C395 1.383 1_554 S
C393 H409 0.951 . S
C394 C393 1.386 . S
C394 C398 1.383 1_554 S
C395 C393 1.383 1_556 S
C395 C396 1.402 . S
C395 H410 0.962 . S
C396 C395 1.402 . S
C396 C397 1.375 . S
C396 C399 1.481 . S
C397 C396 1.375 . S
C397 C398 1.367 . S
C397 H411 0.951 . S
C398 C394 1.383 1_556 S
C398 C397 1.367 . S
C398 H412 0.950 . S
C399 C396 1.481 . S
C399 C400 1.297 . S
C399 H413 0.950 . S
C400 C399 1.297 . S
C400 C401 1.479 . S
C400 H414 0.950 . S
C401 C400 1.479 . S
C401 C402 1.375 . S
C401 C407 1.404 . S
C402 C401 1.375 . S
C402 C403 1.369 . S
C402 H415 0.950 . S
C403 C402 1.369 . S
C403 C404 1.392 . S
C403 H416 0.951 . S
C404 C403 1.392 . S
C404 C406 1.384 . S
H405 C407 0.949 . S
C406 C404 1.384 . S
C406 C407 1.385 . S
C406 H408 0.950 . S
C407 C401 1.404 . S
C407 H405 0.949 . S
C407 C406 1.385 . S
H408 C406 0.950 . S
H409 C393 0.951 . S
H410 C395 0.962 . S
H411 C397 0.951 . S
H412 C398 0.950 . S
H413 C399 0.950 . S
H414 C400 0.950 . S
H415 C402 0.950 . S
H416 C403 0.951 . S
C417 C418 1.386 1_655 S
C417 C419 1.383 . S
C417 H433 0.951 . S
C418 C417 1.386 1_455 S
C418 C422 1.383 . S
C419 C417 1.383 . S
C419 C420 1.402 1_655 S
C419 H434 0.951 . S
C420 C419 1.402 1_455 S
C420 C421 1.375 . S
C420 C423 1.481 . S
C421 C420 1.375 . S
C421 C422 1.367 . S
C421 H435 0.951 . S
C422 C418 1.383 . S
C422 C421 1.367 . S
C422 H436 0.950 . S
C423 C420 1.481 . S
C423 C424 1.297 1_455 S
C423 H437 0.950 . S
C424 C423 1.297 1_655 S
C424 C425 1.479 1_655 S
C424 H438 0.950 . S
C425 C424 1.479 1_455 S
C425 C426 1.375 1_455 S
C425 C431 1.404 . S
C426 C425 1.375 1_655 S
C426 C427 1.369 . S
C426 H439 0.950 . S
C427 C426 1.369 . S
C427 C428 1.392 1_655 S
C427 H440 0.951 . S
C428 C427 1.392 1_455 S
C428 C430 1.384 . S
H429 C431 0.949 . S
C430 C428 1.384 . S
C430 C431 1.385 . S
C430 H432 0.950 . S
C431 C425 1.404 . S
C431 H429 0.949 . S
C431 C430 1.385 . S
H432 C430 0.950 . S
H433 C417 0.951 . S
H434 C419 0.951 . S
H435 C421 0.951 . S
H436 C422 0.950 . S
H437 C423 0.950 . S
H438 C424 0.950 . S
H439 C426 0.950 . S
H440 C427 0.951 . S
C441 C442 1.386 1_565 S
C441 C443 1.383 . S
C441 H457 0.951 . S
C442 C441 1.386 1_545 S
C442 C446 1.383 . S
C443 C441 1.383 . S
C443 C444 1.402 1_565 S
C443 H458 0.951 . S
C444 C443 1.402 1_545 S
C444 C445 1.375 . S
C444 C447 1.481 . S
C445 C444 1.375 . S
C445 C446 1.367 . S
C445 H459 0.951 . S
C446 C442 1.383 . S
C446 C445 1.367 . S
C446 H460 0.950 . S
C447 C444 1.481 . S
C447 C448 1.297 1_545 S
C447 H461 0.950 . S
C448 C447 1.297 1_565 S
C448 C449 1.471 . S
C448 H462 0.950 . S
C449 C448 1.471 . S
C449 C450 1.398 . S
C449 C455 1.391 1_565 S
C450 C449 1.398 . S
C450 C451 1.369 . S
C450 H463 0.950 . S
C451 C450 1.369 . S
C451 C452 1.392 1_565 S
C451 H464 0.951 . S
C452 C451 1.392 1_545 S
C452 C454 1.384 . S
H453 C455 0.949 . S
C454 C452 1.384 . S
C454 C455 1.385 . S
C454 H456 0.950 . S
C455 C449 1.391 1_545 S
C455 H453 0.949 . S
C455 C454 1.385 . S
H456 C454 0.950 . S
H457 C441 0.951 . S
H458 C443 0.951 . S
H459 C445 0.951 . S
H460 C446 0.950 . S
H461 C447 0.950 . S
H462 C448 0.950 . S
H463 C450 0.950 . S
H464 C451 0.951 . S
C465 C466 1.386 1_556 S
C465 C467 1.383 . S
C465 H481 0.951 1_556 S
C466 C465 1.386 1_554 S
C466 C470 1.383 1_554 S
C467 C465 1.383 . S
C467 C468 1.402 . S
C467 H482 0.951 . S
C468 C467 1.402 . S
C468 C469 1.375 . S
C468 C471 1.481 . S
C469 C468 1.375 . S
C469 C470 1.367 . S
C469 H483 0.951 . S
C470 C466 1.383 1_556 S
C470 C469 1.367 . S
C470 H484 0.962 . S
C471 C468 1.481 . S
C471 C472 1.297 . S
C471 H485 0.950 . S
C472 C471 1.297 . S
C472 C473 1.479 . S
C472 H486 0.950 . S
C473 C472 1.479 . S
C473 C474 1.375 . S
C473 C479 1.404 . S
C474 C473 1.375 . S
C474 C475 1.369 . S
C474 H487 0.950 . S
C475 C474 1.369 . S
C475 C476 1.392 . S
C475 H488 0.951 . S
C476 C475 1.392 . S
C476 C478 1.384 . S
H477 C479 0.949 . S
C478 C476 1.384 . S
C478 C479 1.385 . S
C478 H480 0.950 . S
C479 C473 1.404 . S
C479 H477 0.949 . S
C479 C478 1.385 . S
H480 C478 0.950 . S
H481 C465 0.951 1_554 S
H482 C467 0.951 . S
H483 C469 0.951 . S
H484 C470 0.962 . S
H485 C471 0.950 . S
H486 C472 0.950 . S
H487 C474 0.950 . S
H488 C475 0.951 . S
C489 C490 1.386 . S
C489 C491 1.383 . S
C489 H505 0.951 . S
C490 C489 1.386 . S
C490 C494 1.383 . S
C491 C489 1.383 . S
C491 C492 1.402 . S
C491 H506 0.951 . S
C492 C491 1.402 . S
C492 C493 1.375 . S
C492 C495 1.481 . S
C493 C492 1.375 . S
C493 C494 1.367 . S
C493 H507 0.951 . S
C494 C490 1.383 . S
C494 C493 1.367 . S
C494 H508 0.950 . S
C495 C492 1.481 . S
C495 C496 1.297 . S
C495 H509 0.950 . S
C496 C495 1.297 . S
C496 C497 1.479 . S
C496 H510 0.950 . S
C497 C496 1.479 . S
C497 C498 1.375 . S
C497 C503 1.404 . S
C498 C497 1.375 . S
C498 C499 1.369 . S
C498 H511 0.950 . S
C499 C498 1.369 . S
C499 C500 1.392 . S
C499 H512 0.949 1_655 S
C500 C499 1.392 . S
C500 C502 1.384 . S
H501 C503 0.949 . S
C502 C500 1.384 . S
C502 C503 1.385 . S
C502 H504 0.950 . S
C503 C497 1.404 . S
C503 H501 0.949 . S
C503 C502 1.385 . S
H504 C502 0.950 . S
H505 C489 0.951 . S
H506 C491 0.951 . S
H507 C493 0.951 . S
H508 C494 0.950 . S
H509 C495 0.950 . S
H510 C496 0.950 . S
H511 C498 0.950 . S
H512 C499 0.949 1_455 S
C236 C92 1.369 . S
C226 C10 1.396 . S
C250 C17 1.395 . S
C260 C136 1.402 . S
C274 C36 1.396 . S
C284 C198 1.370 . S
C298 C5 1.389 . S
C308 C74 1.359 1_655 S
C332 C154 1.357 1_565 S
C322 C16 1.404 . S
C346 C31 1.395 . S
C356 C216 1.377 . S
C380 C130 1.579 . S
C370 C30 1.765 . S
C394 C3 1.761 . S
C404 C192 1.676 . S
C428 C68 1.583 1_455 S
C418 C18 1.764 . S
C452 C148 1.579 . S
C442 C29 1.765 . S
C476 C210 1.583 . S
C466 C4 1.766 . S
C490 C23 1.755 . S
C500 C86 1.612 . S
