# Generated by pormake.
# Topology zzz, (3,6)-cn, num edge types: 1
# Building blocks:
#     Node 0, Type 0, BuildingBlock: PAMTOO_clean_linker_0, # of connection points: 3
#     Node 1, Type 0, BuildingBlock: PAMTOO_clean_linker_0, # of connection points: 3
#     Node 2, Type 0, BuildingBlock: PAMTOO_clean_linker_0, # of connection points: 3
#     Node 3, Type 0, BuildingBlock: PAMTOO_clean_linker_0, # of connection points: 3
#     Node 4, Type 0, BuildingBlock: PAMTOO_clean_linker_0, # of connection points: 3
#     Node 5, Type 0, BuildingBlock: PAMTOO_clean_linker_0, # of connection points: 3
#     Node 6, Type 0, BuildingBlock: PAMTOO_clean_linker_0, # of connection points: 3
#     Node 7, Type 0, BuildingBlock: PAMTOO_clean_linker_0, # of connection points: 3
#     Node 8, Type 1, BuildingBlock: GEDQOX_clean_sbu_0, # of connection points: 6
#     Node 9, Type 1, BuildingBlock: GEDQOX_clean_sbu_0, # of connection points: 6
#     Node 10, Type 1, BuildingBlock: GEDQOX_clean_sbu_0, # of connection points: 6
#     Node 11, Type 1, BuildingBlock: GEDQOX_clean_sbu_0, # of connection points: 6
#     Edge 12, Type (0, 1), BuildingBlock: MIFKUJ_clean_linker_0, # of connection points: 2
#     Edge 13, Type (0, 1), BuildingBlock: MIFKUJ_clean_linker_0, # of connection points: 2
#     Edge 14, Type (0, 1), BuildingBlock: MIFKUJ_clean_linker_0, # of connection points: 2
#     Edge 15, Type (0, 1), BuildingBlock: MIFKUJ_clean_linker_0, # of connection points: 2
#     Edge 16, Type (0, 1), BuildingBlock: MIFKUJ_clean_linker_0, # of connection points: 2
#     Edge 17, Type (0, 1), BuildingBlock: MIFKUJ_clean_linker_0, # of connection points: 2
#     Edge 18, Type (0, 1), BuildingBlock: MIFKUJ_clean_linker_0, # of connection points: 2
#     Edge 19, Type (0, 1), BuildingBlock: MIFKUJ_clean_linker_0, # of connection points: 2
#     Edge 20, Type (0, 1), BuildingBlock: MIFKUJ_clean_linker_0, # of connection points: 2
#     Edge 21, Type (0, 1), BuildingBlock: MIFKUJ_clean_linker_0, # of connection points: 2
#     Edge 22, Type (0, 1), BuildingBlock: MIFKUJ_clean_linker_0, # of connection points: 2
#     Edge 23, Type (0, 1), BuildingBlock: MIFKUJ_clean_linker_0, # of connection points: 2
#     Edge 24, Type (0, 1), BuildingBlock: MIFKUJ_clean_linker_0, # of connection points: 2
#     Edge 25, Type (0, 1), BuildingBlock: MIFKUJ_clean_linker_0, # of connection points: 2
#     Edge 26, Type (0, 1), BuildingBlock: MIFKUJ_clean_linker_0, # of connection points: 2
#     Edge 27, Type (0, 1), BuildingBlock: MIFKUJ_clean_linker_0, # of connection points: 2
#     Edge 28, Type (0, 1), BuildingBlock: MIFKUJ_clean_linker_0, # of connection points: 2
#     Edge 29, Type (0, 1), BuildingBlock: MIFKUJ_clean_linker_0, # of connection points: 2
#     Edge 30, Type (0, 1), BuildingBlock: MIFKUJ_clean_linker_0, # of connection points: 2
#     Edge 31, Type (0, 1), BuildingBlock: MIFKUJ_clean_linker_0, # of connection points: 2
#     Edge 32, Type (0, 1), BuildingBlock: MIFKUJ_clean_linker_0, # of connection points: 2
#     Edge 33, Type (0, 1), BuildingBlock: MIFKUJ_clean_linker_0, # of connection points: 2
#     Edge 34, Type (0, 1), BuildingBlock: MIFKUJ_clean_linker_0, # of connection points: 2
#     Edge 35, Type (0, 1), BuildingBlock: MIFKUJ_clean_linker_0, # of connection points: 2
# Relax obj value: 0.122
# Max RMSD: 0.172
# Mean RMSD: 0.091
data_MOF--net-zzz--node1-GEDQOX_clean_sbu_0--node2-PAMTOO_clean_linker_0--edge1-MIFKUJ_clean_linker_0
_symmetry_space_group_name_H-M    P1
_symmetry_Int_Tables_number       1
_symmetry_cell_setting            triclinic
loop_
_symmetry_equiv_pos_as_xyz
'x, y, z'
_cell_length_a     69.891012
_cell_length_b     69.214457
_cell_length_c     21.329259
_cell_angle_alpha  81.282753
_cell_angle_beta   88.790181
_cell_angle_gamma 97.98411
loop_
_atom_site_label
_atom_site_type_symbol
_atom_site_fract_x
_atom_site_fract_y
_atom_site_fract_z
_atom_type_partial_charge
H0 H 0.80811 0.53783 0.17517 0.0
H1 H 0.75867 0.52853 0.06103 0.0
H2 H 0.75122 0.53959 0.25293 0.0
H3 H 0.71992 0.50933 0.20995 0.0
C4 C 0.72109 0.51524 0.1583 0.0
O5 O 0.7334 0.53295 0.14873 0.0
H6 H 0.72694 0.50436 0.13253 0.0
C7 C 0.79261 0.53687 0.16966 0.0
C8 C 0.78065 0.53915 0.22056 0.0
C9 C 0.78486 0.53304 0.11217 0.0
C10 C 0.76482 0.53151 0.10539 0.0
C11 C 0.75266 0.53392 0.15611 0.0
C12 C 0.76059 0.53773 0.21386 0.0
H13 H 0.02363 0.81259 0.26519 0.0
H14 H 0.02429 0.7705 0.1367 0.0
H15 H 0.99704 0.75251 0.32386 0.0
H16 H 0.01558 0.71851 0.28044 0.0
C17 C 0.019 0.72602 0.23086 0.0
O18 O 0.00684 0.74017 0.21637 0.0
H19 H 0.03431 0.73332 0.22848 0.0
C20 C 0.02045 0.79751 0.25591 0.0
C21 C 0.00999 0.78323 0.3019 0.0
C22 C 0.02543 0.79322 0.19626 0.0
C23 C 0.02071 0.77389 0.18311 0.0
C24 C 0.01105 0.75892 0.22971 0.0
C25 C 0.00521 0.76376 0.28881 0.0
H26 H 0.69382 0.97012 0.1552 0.0
H27 H 0.75024 0.98287 0.06235 0.0
H28 H 0.74394 0.95839 0.26072 0.0
H29 H 0.78156 0.98645 0.22765 0.0
C30 C 0.7806 0.98726 0.17535 0.0
O31 O 0.76862 0.97074 0.16326 0.0
H32 H 0.77463 1.001 0.15652 0.0
C33 C 0.70923 0.9695 0.15689 0.0
C34 C 0.71724 0.96291 0.21466 0.0
C35 C 0.72097 0.97672 0.10207 0.0
C36 C 0.741 0.97702 0.10431 0.0
C37 C 0.74923 0.97018 0.16137 0.0
C38 C 0.7374 0.96327 0.2166 0.0
H39 H 0.49031 0.72265 0.35757 0.0
H40 H 0.49179 0.78196 0.26138 0.0
H41 H 0.49774 0.77139 0.46351 0.0
H42 H 0.47907 0.81073 0.41535 0.0
C43 C 0.48195 0.80912 0.36509 0.0
O44 O 0.49742 0.79871 0.36258 0.0
H45 H 0.46863 0.801 0.34828 0.0
C46 C 0.49159 0.73833 0.3596 0.0
C47 C 0.49386 0.74515 0.41824 0.0
C48 C 0.49072 0.75146 0.30322 0.0
C49 C 0.49248 0.77175 0.30482 0.0
C50 C 0.49519 0.77896 0.3624 0.0
C51 C 0.49588 0.76569 0.41913 0.0
H52 H 0.20111 0.49213 0.55368 0.0
H53 H 0.25279 0.50686 0.65231 0.0
H54 H 0.25649 0.48615 0.47253 0.0
H55 H 0.28504 0.47087 0.55842 0.0
C56 C 0.28437 0.48086 0.59434 0.0
O57 O 0.27621 0.49716 0.56821 0.0
H58 H 0.27523 0.47248 0.63574 0.0
C59 C 0.21669 0.49305 0.55655 0.0
C60 C 0.22759 0.48813 0.50695 0.0
C61 C 0.22559 0.49994 0.60869 0.0
C62 C 0.24575 0.50169 0.61192 0.0
C63 C 0.25686 0.49639 0.56332 0.0
C64 C 0.24782 0.49 0.51022 0.0
H65 H 0.00807 0.23215 0.50585 0.0
H66 H 0.99764 0.27967 0.60348 0.0
H67 H 0.01927 0.29204 0.40824 0.0
H68 H 0.03639 0.32321 0.48969 0.0
C69 C 0.02524 0.31925 0.52924 0.0
O70 O 0.0093 0.30797 0.50865 0.0
H71 H 0.03175 0.31044 0.5692 0.0
C72 C 0.00832 0.24785 0.50535 0.0
C73 C 0.01443 0.26105 0.44985 0.0
C74 C 0.00217 0.25433 0.56031 0.0
C75 C 0.00225 0.27456 0.56083 0.0
C76 C 0.00872 0.28832 0.50644 0.0
C77 C 0.01449 0.2815 0.45037 0.0
H78 H 0.31647 0.05135 0.56187 0.0
H79 H 0.26292 0.04595 0.66954 0.0
H80 H 0.26356 0.05679 0.46516 0.0
H81 H 0.23326 0.07662 0.52392 0.0
C82 C 0.23356 0.06839 0.57279 0.0
O83 O 0.24168 0.05142 0.57031 0.0
H84 H 0.24244 0.07819 0.60141 0.0
C85 C 0.301 0.05166 0.56305 0.0
C86 C 0.29144 0.05481 0.5061 0.0
C87 C 0.29089 0.04846 0.62178 0.0
C88 C 0.27086 0.04837 0.62418 0.0
C89 C 0.26103 0.05146 0.56764 0.0
C90 C 0.27126 0.05446 0.50859 0.0
H91 H 0.54496 0.32128 0.33841 0.0
H92 H 0.53449 0.26404 0.45325 0.0
H93 H 0.50906 0.27367 0.27097 0.0
H94 H 0.48459 0.23806 0.3722 0.0
C95 C 0.49649 0.23969 0.40559 0.0
O96 O 0.51359 0.2471 0.37098 0.0
H97 H 0.49273 0.25006 0.43756 0.0
C98 C 0.53872 0.30585 0.34419 0.0
C99 C 0.52705 0.29906 0.29716 0.0
C100 C 0.5412 0.29348 0.40081 0.0
C101 C 0.53264 0.27369 0.40954 0.0
C102 C 0.52128 0.26643 0.36246 0.0
C103 C 0.51815 0.27922 0.30669 0.0
Nd104 Nd 0.99348 0.01053 0.8094 0.0
Nd105 Nd 0.01724 0.03636 0.91449 0.0
C106 C 0.97031 0.98537 0.75335 0.0
C107 C 0.9726 0.96806 0.72169 0.0
C108 C 0.95667 0.95358 0.7179 0.0
C109 C 0.95865 0.93705 0.68865 0.0
C110 C 0.97667 0.93455 0.66236 0.0
C111 C 0.99264 0.94914 0.66659 0.0
C112 C 0.99063 0.96564 0.69598 0.0
C113 C 0.03301 0.02052 0.781 0.0
C114 C 0.01573 0.98851 0.93027 0.0
C115 C 0.04038 0.06169 0.96992 0.0
C116 C 0.03865 0.07963 0.9998 0.0
C117 C 0.03873 0.09832 0.96269 0.0
C118 C 0.03736 0.11511 0.99127 0.0
C119 C 0.03587 0.11376 0.05782 0.0
C120 C 0.03583 0.09507 0.09482 0.0
C121 C 0.03726 0.0783 0.06627 0.0
C122 C 0.97768 0.02658 0.94232 0.0
C123 C 0.99429 0.05818 0.79619 0.0
O124 O 0.97241 0.98308 0.81492 0.0
O125 O 0.97846 1.00276 0.72413 0.0
O126 O 0.02118 0.01142 0.74539 0.0
O127 O 0.02335 0.02372 0.82746 0.0
O128 O 1.00147 0.98768 0.89021 0.0
O129 O 0.02594 1.0053 0.94109 0.0
O130 O 0.03896 0.06328 0.9081 0.0
O131 O 0.03187 0.04459 1.00019 0.0
O132 O 0.98943 0.03595 0.97753 0.0
O133 O 0.98741 0.02308 0.89652 0.0
O134 O 0.00914 0.05921 0.83376 0.0
O135 O 0.98397 0.04136 0.7863 0.0
H136 H 0.94264 0.95501 0.73784 0.0
H137 H 0.94607 0.92608 0.68751 0.0
H138 H 0.0067 0.94799 0.6464 0.0
H139 H 0.0032 0.97653 0.69848 0.0
H140 H 0.03992 0.10005 0.91138 0.0
H141 H 0.0377 0.12922 0.96102 0.0
H142 H 0.03449 0.09329 0.14611 0.0
H143 H 0.03726 0.06422 0.09644 0.0
Nd144 Nd 0.50916 0.00976 0.82311 0.0
Nd145 Nd 0.51204 0.03947 0.9105 0.0
C146 C 0.51499 0.97989 0.76425 0.0
C147 C 0.53197 0.97533 0.7304 0.0
C148 C 0.53146 0.95718 0.70859 0.0
C149 C 0.5475 0.95307 0.67516 0.0
C150 C 0.56435 0.96707 0.66315 0.0
C151 C 0.56483 0.98514 0.68608 0.0
C152 C 0.54878 0.98924 0.71923 0.0
C153 C 0.5101 0.04767 0.7615 0.0
C154 C 0.55207 0.0292 0.86731 0.0
C155 C 0.50414 0.06736 0.97433 0.0
C156 C 0.48571 0.06915 0.00747 0.0
C157 C 0.47031 0.07607 0.97343 0.0
C158 C 0.45197 0.07457 0.003 0.0
C159 C 0.44866 0.0661 0.06712 0.0
C160 C 0.46426 0.06014 0.10186 0.0
C161 C 0.48259 0.06173 0.0725 0.0
C162 C 0.51003 1.00104 0.97063 0.0
C163 C 0.46943 0.02236 0.86199 0.0
O164 O 0.51636 0.97942 0.82548 0.0
O165 O 0.50752 0.9952 0.73733 0.0
O166 O 0.49958 0.03243 0.7452 0.0
O167 O 0.52061 0.04263 0.80697 0.0
O168 O 0.54124 0.01395 0.8494 0.0
O169 O 0.54424 0.04384 0.88518 0.0
O170 O 0.50417 0.06937 0.91234 0.0
O171 O 0.51306 0.05277 0.99888 0.0
O172 O 0.52151 0.01577 0.98618 0.0
O173 O 0.49972 1.0068 0.92563 0.0
O174 O 0.48071 0.0372 0.87993 0.0
O175 O 0.47665 1.00703 0.84636 0.0
H176 H 0.51862 0.94624 0.71704 0.0
H177 H 0.54673 0.93893 0.65881 0.0
H178 H 0.57742 0.99637 0.67698 0.0
H179 H 0.54942 1.0034 0.73543 0.0
H180 H 0.4722 0.08197 0.92332 0.0
H181 H 0.44022 0.07933 0.9751 0.0
H182 H 0.46223 0.05395 0.15173 0.0
H183 H 0.49414 0.05645 0.10027 0.0
Nd184 Nd 0.4904 0.52433 0.91464 0.0
Nd185 Nd 0.51988 0.5223 0.8114 0.0
C186 C 0.46085 0.53276 0.97897 0.0
C187 C 0.45592 0.55188 0.99242 0.0
C188 C 0.44775 0.56463 0.94597 0.0
C189 C 0.44615 0.58395 0.95491 0.0
C190 C 0.4529 0.59085 0.01005 0.0
C191 C 0.46003 0.57785 0.05791 0.0
C192 C 0.46135 0.55848 0.04947 0.0
C193 C 0.52783 0.52809 0.95157 0.0
C194 C 0.50811 0.56513 0.81543 0.0
C195 C 0.54921 0.51486 0.74315 0.0
C196 C 0.55536 0.49685 0.72546 0.0
C197 C 0.55495 0.47968 0.77037 0.0
C198 C 0.55883 0.4621 0.75143 0.0
C199 C 0.56275 0.46137 0.6871 0.0
C200 C 0.56365 0.47867 0.64252 0.0
C201 C 0.56009 0.4963 0.66165 0.0
C202 C 0.48212 0.51746 0.77605 0.0
C203 C 0.50345 0.48206 0.9143 0.0
O204 O 0.45994 0.52975 0.91988 0.0
O205 O 0.47617 0.52699 0.00604 0.0
O206 O 0.51333 0.51851 0.98767 0.0
O207 O 0.52223 0.53623 0.89948 0.0
O208 O 0.49396 0.55579 0.85566 0.0
O209 O 0.52195 0.55589 0.79659 0.0
O210 O 0.55035 0.51712 0.80284 0.0
O211 O 0.53324 0.51964 0.71855 0.0
O212 O 0.4963 0.52733 0.73931 0.0
O213 O 0.48818 0.5098 0.82784 0.0
O214 O 0.51777 0.49177 0.87533 0.0
O215 O 0.48869 0.49071 0.92948 0.0
H216 H 0.44343 0.56002 0.90149 0.0
H217 H 0.44061 0.59379 0.91742 0.0
H218 H 0.46513 0.58287 0.10113 0.0
H219 H 0.4675 0.54898 0.0864 0.0
H220 H 0.55115 0.47969 0.8198 0.0
H221 H 0.55788 0.4489 0.78655 0.0
H222 H 0.56671 0.47843 0.59266 0.0
H223 H 0.56038 0.50935 0.62626 0.0
Nd224 Nd 0.00759 0.54009 0.79266 0.0
Nd225 Nd 0.01224 0.51009 0.9143 0.0
C226 C 0.99544 0.56598 0.70347 0.0
C227 C 0.97837 0.56566 0.66351 0.0
C228 C 0.96658 0.58053 0.66228 0.0
C229 C 0.94976 0.57982 0.62769 0.0
C230 C 0.94439 0.56421 0.5933 0.0
C231 C 0.95645 0.54952 0.59378 0.0
C232 C 0.97318 0.55017 0.62867 0.0
C233 C 0.01234 0.50254 0.77159 0.0
C234 C 0.96882 0.51664 0.87991 0.0
C235 C 0.02299 0.47929 0.98588 0.0
C236 C 0.04016 0.4776 0.02379 0.0
C237 C 0.04418 0.45913 0.05277 0.0
C238 C 0.06131 0.45764 0.08505 0.0
C239 C 0.07474 0.47461 0.08822 0.0
C240 C 0.07046 0.4931 0.05953 0.0
C241 C 0.05334 0.49457 0.02776 0.0
C242 C 0.01489 0.54766 0.94837 0.0
C243 C 0.0503 0.53814 0.83875 0.0
O244 O 0.99206 0.56578 0.76408 0.0
O245 O 0.00817 0.5546 0.69247 0.0
O246 O 0.02 0.51869 0.73582 0.0
O247 O 1.00197 0.50646 0.81616 0.0
O248 O 0.9765 0.5308 0.83403 0.0
O249 O 0.97921 0.50493 0.91488 0.0
O250 O 0.02667 0.48338 0.92443 0.0
O251 O 0.01049 0.48975 0.00588 0.0
O252 O 0.0159 0.53167 0.98791 0.0
O253 O 0.01241 0.54315 0.89366 0.0
O254 O 0.043 0.52092 0.87199 0.0
O255 O 0.03924 0.55041 0.80981 0.0
H256 H 0.9702 0.59254 0.68911 0.0
H257 H 0.9407 0.59122 0.62941 0.0
H258 H 0.95297 0.53743 0.56724 0.0
H259 H 0.98192 0.53841 0.62887 0.0
H260 H 0.03424 0.44587 0.04966 0.0
H261 H 0.06425 0.44318 0.1063 0.0
H262 H 0.08032 0.50648 0.06192 0.0
H263 H 0.05047 0.50897 0.00555 0.0
H264 H 0.20287 0.04701 0.5259 0.0
H265 H 0.16933 0.0395 0.5683 0.0
H266 H 0.18487 0.07082 0.72421 0.0
H267 H 0.21852 0.07794 0.68255 0.0
H268 H 0.16022 0.03716 0.76451 0.0
H269 H 0.16245 0.09262 0.59727 0.0
H270 H 0.16985 0.11082 0.48889 0.0
H271 H 0.13271 0.06601 0.41303 0.0
H272 H 0.12527 0.04742 0.5209 0.0
H273 H 0.06022 0.04049 0.84856 0.0
H274 H 0.09495 0.04991 0.82001 0.0
H275 H 0.08735 0.02208 0.65255 0.0
H276 H 0.05294 0.01319 0.6799 0.0
H277 H 0.10845 0.05691 0.62338 0.0
H278 H 0.10776 1.00028 0.78677 0.0
H279 H 0.10009 0.98124 0.89392 0.0
H280 H 0.13386 0.02707 0.97562 0.0
H281 H 0.14152 0.04651 0.86895 0.0
C282 C 0.19909 0.05215 0.56941 0.0
C283 C 0.21319 0.06313 0.60077 0.0
C284 C 0.17995 0.04795 0.59348 0.0
C285 C 0.17451 0.05487 0.64894 0.0
C286 C 0.18871 0.06538 0.6813 0.0
C287 C 0.20789 0.0695 0.65737 0.0
C288 C 0.15391 0.05157 0.672 0.0
C289 C 0.14892 0.04173 0.734 0.0
C290 C 0.13911 0.0573 0.632 0.0
C291 C 0.14342 0.06856 0.56714 0.0
C292 C 0.15595 0.08659 0.55744 0.0
C293 C 0.16014 0.09698 0.4961 0.0
C294 C 0.15178 0.08955 0.4441 0.0
C295 C 0.13918 0.07174 0.45334 0.0
C296 C 0.13495 0.06129 0.51458 0.0
C297 C 0.06604 0.03652 0.80562 0.0
C298 C 0.05392 0.02627 0.76618 0.0
C299 C 0.08586 0.04177 0.78953 0.0
C300 C 0.09379 0.03663 0.73416 0.0
C301 C 0.0816 0.02631 0.69523 0.0
C302 C 0.06192 0.02119 0.71104 0.0
C303 C 0.11467 0.04209 0.71536 0.0
C304 C 0.11975 0.05244 0.65414 0.0
C305 C 0.12947 0.03669 0.75593 0.0
C306 C 0.12504 0.02494 0.81997 0.0
C307 C 0.11344 1.00635 0.82763 0.0
C308 C 0.10911 0.99548 0.88825 0.0
C309 C 0.11644 1.00297 0.94154 0.0
C310 C 0.12817 0.02131 0.9343 0.0
C311 C 0.13252 0.03225 0.87378 0.0
H312 H 0.11307 0.99454 0.98844 0.0
H313 H 0.15505 0.09761 0.39664 0.0
H314 H 0.51701 0.23289 0.51277 0.0
H315 H 0.51986 0.2012 0.57867 0.0
H316 H 0.48291 0.17076 0.45438 0.0
H317 H 0.48012 0.20245 0.38838 0.0
H318 H 0.47285 0.15702 0.58049 0.0
H319 H 0.53098 0.17072 0.44571 0.0
H320 H 0.56122 0.19074 0.3983 0.0
H321 H 0.58395 0.19116 0.58364 0.0
H322 H 0.55371 0.17136 0.63224 0.0
H323 H 0.48977 0.05903 0.65908 0.0
H324 H 0.48821 0.0924 0.60527 0.0
H325 H 0.52786 0.11605 0.73621 0.0
H326 H 0.52978 0.08233 0.78991 0.0
H327 H 0.53669 0.13449 0.61595 0.0
H328 H 0.47989 0.11826 0.75088 0.0
H329 H 0.45016 0.09735 0.79864 0.0
H330 H 0.42474 0.10171 0.61646 0.0
H331 H 0.4545 0.12228 0.56722 0.0
C332 C 0.50959 0.21941 0.49951 0.0
C333 C 0.49835 0.2201 0.44557 0.0
C334 C 0.51121 0.20132 0.53713 0.0
C335 C 0.50165 0.18356 0.52141 0.0
C336 C 0.49035 0.18426 0.46761 0.0
C337 C 0.48882 0.20234 0.42981 0.0
C338 C 0.50356 0.16422 0.56058 0.0
C339 C 0.48678 0.152 0.58777 0.0
C340 C 0.52179 0.15792 0.57181 0.0
C341 C 0.54 0.16975 0.54265 0.0
C342 C 0.54236 0.17522 0.47639 0.0
C343 C 0.55951 0.1865 0.4493 0.0
C344 C 0.57448 0.19227 0.48795 0.0
C345 C 0.57234 0.18671 0.55377 0.0
C346 C 0.5552 0.17545 0.58111 0.0
C347 C 0.49822 0.0713 0.67645 0.0
C348 C 0.50986 0.06807 0.72883 0.0
C349 C 0.49723 0.09041 0.64578 0.0
C350 C 0.50765 0.10681 0.66726 0.0
C351 C 0.51962 0.10364 0.71895 0.0
C352 C 0.52068 0.08441 0.74964 0.0
C353 C 0.50595 0.12713 0.63513 0.0
C354 C 0.52276 0.13956 0.60928 0.0
C355 C 0.48772 0.13366 0.62549 0.0
C356 C 0.46954 0.12173 0.6552 0.0
C357 C 0.46802 0.11468 0.72086 0.0
C358 C 0.45116 0.10287 0.74822 0.0
C359 C 0.43559 0.09818 0.71058 0.0
C360 C 0.43683 0.10535 0.64553 0.0
C361 C 0.4537 0.11709 0.61786 0.0
H362 H 0.42257 0.08901 0.73184 0.0
H363 H 0.58774 0.201 0.46688 0.0
H364 H 0.31546 0.50078 0.52005 0.0
H365 H 0.34892 0.5088 0.55088 0.0
H366 H 0.33225 0.4821 0.74395 0.0
H367 H 0.29878 0.47453 0.71345 0.0
H368 H 0.35691 0.51496 0.7432 0.0
H369 H 0.35476 0.45744 0.64147 0.0
H370 H 0.34814 0.4376 0.55554 0.0
H371 H 0.38742 0.47979 0.42882 0.0
H372 H 0.39408 0.50003 0.51382 0.0
H373 H 0.45051 0.49827 0.84897 0.0
H374 H 0.41674 0.494 0.81835 0.0
H375 H 0.43402 0.52596 0.63159 0.0
H376 H 0.46775 0.53046 0.66215 0.0
H377 H 0.40932 0.49123 0.62842 0.0
H378 H 0.4115 0.54857 0.73132 0.0
H379 H 0.41816 0.56807 0.81804 0.0
H380 H 0.37928 0.52528 0.9442 0.0
H381 H 0.37242 0.50548 0.85815 0.0
C382 C 0.31898 0.49686 0.56914 0.0
C383 C 0.30459 0.48706 0.61435 0.0
C384 C 0.33808 0.50131 0.58668 0.0
C385 C 0.3432 0.49579 0.64961 0.0
C386 C 0.32869 0.48649 0.69515 0.0
C387 C 0.30958 0.48213 0.67767 0.0
C388 C 0.36371 0.49922 0.66776 0.0
C389 C 0.36832 0.50957 0.71852 0.0
C390 C 0.37872 0.4925 0.63497 0.0
C391 C 0.37476 0.48035 0.58381 0.0
C392 C 0.36187 0.46256 0.59514 0.0
C393 C 0.35813 0.45123 0.54663 0.0
C394 C 0.36731 0.45746 0.48671 0.0
C395 C 0.38029 0.47501 0.47523 0.0
C396 C 0.38407 0.48641 0.52356 0.0
C397 C 0.44708 0.50446 0.80151 0.0
C398 C 0.46173 0.51474 0.75796 0.0
C399 C 0.42779 0.50206 0.78413 0.0
C400 C 0.42285 0.50979 0.7228 0.0
C401 C 0.43751 0.51991 0.67914 0.0
C402 C 0.45676 0.52248 0.69669 0.0
C403 C 0.40246 0.50695 0.70369 0.0
C404 C 0.39789 0.49666 0.65289 0.0
C405 C 0.3875 0.51362 0.73661 0.0
C406 C 0.39159 0.52546 0.78848 0.0
C407 C 0.40448 0.54324 0.77768 0.0
C408 C 0.40825 0.55438 0.82666 0.0
C409 C 0.3992 0.54788 0.88667 0.0
C410 C 0.38629 0.53028 0.89772 0.0
C411 C 0.38241 0.51912 0.84881 0.0
H412 H 0.40217 0.55651 0.92457 0.0
H413 H 0.36439 0.44866 0.44922 0.0
H414 H 0.03728 0.35815 0.47824 0.0
H415 H 0.03328 0.38783 0.52371 0.0
H416 H 0.99845 0.35207 0.6795 0.0
H417 H 0.00237 0.32222 0.6335 0.0
H418 H 0.98414 0.38689 0.64209 0.0
H419 H 0.04573 0.36825 0.69807 0.0
H420 H 0.07796 0.3591 0.67886 0.0
H421 H 0.0951 0.41497 0.55991 0.0
H422 H 0.06286 0.42435 0.57767 0.0
H423 H 0.99343 0.46609 0.82923 0.0
H424 H 0.99392 0.4339 0.79379 0.0
H425 H 0.03273 0.46207 0.63624 0.0
H426 H 0.03245 0.49387 0.67184 0.0
H427 H 0.0444 0.42921 0.68343 0.0
H428 H 0.98252 0.44722 0.62199 0.0
H429 H 0.9503 0.4566 0.63993 0.0
H430 H 0.93376 0.40236 0.76797 0.0
H431 H 0.966 0.39278 0.75141 0.0
C432 C 0.02848 0.35662 0.52159 0.0
C433 C 0.02012 0.33779 0.55219 0.0
C434 C 0.02631 0.37363 0.54792 0.0
C435 C 0.01584 0.37231 0.60588 0.0
C436 C 0.00666 0.35359 0.63497 0.0
C437 C 0.00886 0.33652 0.60859 0.0
C438 C 0.01525 0.39034 0.63697 0.0
C439 C 0.99733 0.39597 0.65196 0.0
C440 C 0.03239 0.40249 0.64938 0.0
C441 C 0.05181 0.39693 0.63875 0.0
C442 C 0.05632 0.37853 0.66742 0.0
C443 C 0.0746 0.37331 0.65686 0.0
C444 C 0.08855 0.38643 0.61806 0.0
C445 C 0.08427 0.40482 0.58988 0.0
C446 C 0.066 0.4101 0.60022 0.0
C447 C 0.0021 0.46534 0.78721 0.0
C448 C 0.01285 0.4826 0.75329 0.0
C449 C 0.00229 0.44694 0.76664 0.0
C450 C 0.01317 0.4454 0.71154 0.0
C451 C 0.02418 0.46265 0.67871 0.0
C452 C 0.02398 0.48093 0.69915 0.0
C453 C 0.01329 0.42606 0.68742 0.0
C454 C 0.03117 0.42011 0.67388 0.0
C455 C 0.99612 0.4137 0.67621 0.0
C456 C 0.97673 0.4194 0.68602 0.0
C457 C 0.97206 0.43737 0.65434 0.0
C458 C 0.95379 0.44271 0.6642 0.0
C459 C 0.94002 0.43011 0.70522 0.0
C460 C 0.94446 0.41212 0.73631 0.0
C461 C 0.96272 0.40673 0.72669 0.0
H462 H 0.92588 0.43427 0.71279 0.0
H463 H 0.1027 0.38236 0.60995 0.0
H464 H 0.81516 1.0016 0.21946 0.0
H465 H 0.84722 1.00686 0.1661 0.0
H466 H 0.82279 0.98229 0.00645 0.0
H467 H 0.79053 0.97719 0.05954 0.0
H468 H 0.85877 0.96901 0.04533 0.0
H469 H 0.83247 0.02889 0.98693 0.0
H470 H 0.81615 0.05707 0.0048 0.0
H471 H 0.86181 0.07639 0.12245 0.0
H472 H 0.87826 0.04813 0.10609 0.0
H473 H 0.95048 1.00724 0.87307 0.0
H474 H 0.91546 0.99905 0.89879 0.0
H475 H 0.92303 0.02572 0.06849 0.0
H476 H 0.95759 0.03392 0.04302 0.0
H477 H 0.89315 0.03771 0.00429 0.0
H478 H 0.91706 0.97564 0.07367 0.0
H479 H 0.93348 0.94737 0.05726 0.0
H480 H 0.89255 0.93235 0.91887 0.0
H481 H 0.87603 0.96071 0.93389 0.0
C482 C 0.81667 0.99704 0.17344 0.0
C483 C 0.80044 0.98856 0.14436 0.0
C484 C 0.83495 1.00012 0.14289 0.0
C485 C 0.83735 0.99497 0.08232 0.0
C486 C 0.82124 0.98622 0.05337 0.0
C487 C 0.80287 0.98329 0.08377 0.0
C488 C 0.85664 0.99958 0.04882 0.0
C489 C 0.86619 0.98406 0.03515 0.0
C490 C 0.86632 0.0192 0.03588 0.0
C491 C 0.85653 0.03629 0.04565 0.0
C492 C 0.83896 0.03905 0.01703 0.0
C493 C 0.82969 0.05506 0.02682 0.0
C494 C 0.83792 0.06849 0.06483 0.0
C495 C 0.85545 0.06596 0.09304 0.0
C496 C 0.86476 0.04996 0.08347 0.0
C497 C 0.94458 0.01124 0.91588 0.0
C498 C 0.9567 0.02113 0.95621 0.0
C499 C 0.92464 1.00656 0.93055 0.0
C500 C 0.91664 0.01174 0.98571 0.0
C501 C 0.92883 0.02166 0.0256 0.0
C502 C 0.94861 0.02627 0.01108 0.0
C503 C 0.89562 1.0071 0.00293 0.0
C504 C 0.88567 0.02268 0.01339 0.0
C505 C 0.88565 0.98755 0.01292 0.0
C506 C 0.89546 0.97042 0.00432 0.0
C507 C 0.91166 0.9664 0.03938 0.0
C508 C 0.92097 0.95034 0.0304 0.0
C509 C 0.91411 0.93811 0.98689 0.0
C510 C 0.89787 0.94186 0.95245 0.0
C511 C 0.88853 0.95792 0.9612 0.0
H512 H 0.92133 0.92569 0.97999 0.0
H513 H 0.83072 0.08088 0.07234 0.0
H514 H 0.49616 0.81793 0.24114 0.0
H515 H 0.50115 0.85008 0.17219 0.0
H516 H 0.48131 0.8774 0.32552 0.0
H517 H 0.4762 0.84523 0.3944 0.0
H518 H 0.46531 0.89049 0.21658 0.0
H519 H 0.52927 0.88257 0.28406 0.0
H520 H 0.55797 0.8656 0.30019 0.0
H521 H 0.56475 0.86646 0.09918 0.0
H522 H 0.53592 0.88321 0.08193 0.0
H523 H 0.53073 0.98748 0.07018 0.0
H524 H 0.52617 0.95464 0.13424 0.0
H525 H 0.47955 0.93591 0.01775 0.0
H526 H 0.48396 0.96896 0.95371 0.0
H527 H 0.52885 0.91859 0.10863 0.0
H528 H 0.44555 0.90305 0.11296 0.0
H529 H 0.41769 0.92149 0.10322 0.0
H530 H 0.45098 0.97002 0.1734 0.0
H531 H 0.47893 0.95177 0.18436 0.0
C532 C 0.49309 0.83083 0.2603 0.0
C533 C 0.48621 0.82913 0.32361 0.0
C534 C 0.49592 0.84921 0.22085 0.0
C535 C 0.4918 0.86625 0.24377 0.0
C536 C 0.48465 0.86451 0.30674 0.0
C537 C 0.48187 0.84615 0.34622 0.0
C538 C 0.49483 0.88587 0.20214 0.0
C539 C 0.47919 0.89658 0.19283 0.0
C540 C 0.51298 0.894 0.17155 0.0
C541 C 0.53033 0.88396 0.18178 0.0
C542 C 0.53679 0.879 0.24334 0.0
C543 C 0.5531 0.86944 0.25268 0.0
C544 C 0.56314 0.8649 0.20076 0.0
C545 C 0.55693 0.86996 0.13936 0.0
C546 C 0.54062 0.87949 0.12977 0.0
C547 C 0.51952 0.97636 0.05811 0.0
C548 C 0.50759 0.98083 0.00725 0.0
C549 C 0.51698 0.95755 0.09463 0.0
C550 C 0.5024 0.94281 0.08133 0.0
C551 C 0.49073 0.94711 0.02954 0.0
C552 C 0.49328 0.96596 0.99286 0.0
C553 C 0.49929 0.92314 0.12265 0.0
C554 C 0.51492 0.91241 0.13191 0.0
C555 C 0.48121 0.91515 0.154 0.0
C556 C 0.46438 0.92611 0.14879 0.0
C557 C 0.44689 0.91762 0.12654 0.0
C558 C 0.43109 0.92805 0.12077 0.0
C559 C 0.43258 0.94694 0.13746 0.0
C560 C 0.44986 0.95542 0.16026 0.0
C561 C 0.46569 0.94504 0.16619 0.0
H562 H 0.42034 0.955 0.13284 0.0
H563 H 0.57577 0.85751 0.20808 0.0
H564 H 0.71152 0.54119 0.05575 0.0
H565 H 0.67935 0.54415 0.01501 0.0
H566 H 0.65417 0.49712 0.16196 0.0
H567 H 0.6863 0.49427 0.2033 0.0
H568 H 0.64054 0.49286 0.04211 0.0
H569 H 0.64997 0.54338 0.17641 0.0
H570 H 0.66727 0.57287 0.21314 0.0
H571 H 0.66326 0.60698 0.02939 0.0
H572 H 0.64616 0.57759 0.99128 0.0
H573 H 0.54156 0.5036 0.0462 0.0
H574 H 0.57523 0.50214 0.07259 0.0
H575 H 0.59393 0.54977 0.9194 0.0
H576 H 0.56007 0.55114 0.89213 0.0
H577 H 0.6118 0.55483 0.03339 0.0
H578 H 0.6018 0.50644 0.89839 0.0
H579 H 0.5856 0.47768 0.85549 0.0
H580 H 0.59154 0.44031 0.0316 0.0
H581 H 0.60764 0.46896 0.07623 0.0
C582 C 0.69909 0.53171 0.07998 0.0
C583 C 0.70132 0.51792 0.13406 0.0
C584 C 0.68073 0.53335 0.05649 0.0
C585 C 0.66433 0.52101 0.08592 0.0
C586 C 0.66661 0.50687 0.13877 0.0
C587 C 0.68492 0.50535 0.16259 0.0
C588 C 0.64478 0.52276 0.06165 0.0
C589 C 0.63416 0.50633 0.0409 0.0
C590 C 0.63674 0.54056 0.05791 0.0
C591 C 0.64699 0.55824 0.08079 0.0
C592 C 0.65293 0.55712 0.14366 0.0
C593 C 0.66267 0.57383 0.16477 0.0
C594 C 0.66641 0.59177 0.12357 0.0
C595 C 0.66038 0.59306 0.06122 0.0
C596 C 0.65066 0.57639 0.03985 0.0
C597 C 0.55283 0.5138 0.01817 0.0
C598 C 0.54824 0.52756 0.9673 0.0
C599 C 0.57207 0.51287 0.0331 0.0
C600 C 0.58709 0.52578 0.99779 0.0
C601 C 0.58254 0.53968 0.94722 0.0
C602 C 0.56325 0.54043 0.93166 0.0
C603 C 0.60745 0.52484 0.01483 0.0
C604 C 0.61822 0.5414 0.03426 0.0
C605 C 0.61571 0.50722 0.01671 0.0
C606 C 0.60572 0.48993 0.99094 0.0
C607 C 0.59941 0.49216 0.9284 0.0
C608 C 0.59022 0.47587 0.90379 0.0
C609 C 0.58723 0.45723 0.94116 0.0
C610 C 0.59364 0.45481 0.00307 0.0
C611 C 0.60286 0.47107 0.02802 0.0
H612 H 0.5801 0.44464 0.92196 0.0
H613 H 0.67394 0.60469 0.14001 0.0
H614 H 0.98563 0.7045 0.19496 0.0
H615 H 0.98294 0.67632 0.1364 0.0
H616 H 0.04512 0.68293 0.11499 0.0
H617 H 0.04773 0.71128 0.17155 0.0
H618 H 0.03129 0.6727 0.01148 0.0
H619 H 0.01737 0.64808 0.23386 0.0
H620 H 0.99994 0.6447 0.33762 0.0
H621 H 0.94689 0.62404 0.25523 0.0
H622 H 0.96399 0.62754 0.15077 0.0
H623 H 0.02224 0.55737 0.06468 0.0
H624 H 0.02141 0.58887 0.10163 0.0
H625 H 0.00598 0.61441 0.91562 0.0
H626 H 0.00727 0.58266 0.87784 0.0
H627 H 0.99431 0.60937 0.11691 0.0
H628 H 0.02143 0.66484 0.89293 0.0
H629 H 0.0422 0.66695 0.79637 0.0
H630 H 0.07445 0.62396 0.89378 0.0
H631 H 0.05404 0.62179 0.99107 0.0
C632 C 0.99867 0.7002 0.17639 0.0
C633 C 0.01687 0.7104 0.1871 0.0
C634 C 0.99716 0.68391 0.14343 0.0
C635 C 0.01384 0.67715 0.12155 0.0
C636 C 0.03197 0.68773 0.13079 0.0
C637 C 0.03347 0.70402 0.16326 0.0
C638 C 0.01267 0.65858 0.09203 0.0
C639 C 0.02306 0.65891 0.03444 0.0
C640 C 0.0022 0.64033 0.12177 0.0
C641 C 0.9919 0.6383 0.18441 0.0
C642 C 1.00196 0.64296 0.2378 0.0
C643 C 0.99215 0.641 0.29673 0.0
C644 C 0.97231 0.63422 0.30297 0.0
C645 C 0.96225 0.62934 0.2503 0.0
C646 C 0.97199 0.6313 0.19123 0.0
C647 C 0.01876 0.56969 0.03133 0.0
C648 C 0.01487 0.56745 0.96817 0.0
C649 C 0.01818 0.58777 0.05273 0.0
C650 C 0.01366 0.60426 0.01179 0.0
C651 C 0.00976 0.6021 0.94832 0.0
C652 C 0.01046 0.58391 0.92666 0.0
C653 C 0.01303 0.62343 0.03658 0.0
C654 C 0.00231 0.62322 0.09337 0.0
C655 C 0.02356 0.64165 0.00689 0.0
C656 C 0.03605 0.64299 0.94895 0.0
C657 C 0.03299 0.65588 0.89373 0.0
C658 C 0.04469 0.65708 0.83889 0.0
C659 C 0.05958 0.64554 0.83887 0.0
C660 C 0.06286 0.63283 0.89378 0.0
C661 C 0.05122 0.63159 0.94875 0.0
H662 H 0.06862 0.64648 0.79636 0.0
H663 H 0.96474 0.6327 0.34864 0.0
H664 H 0.02496 0.23413 0.63803 0.0
H665 H 0.01534 0.20076 0.69577 0.0
H666 H 0.95561 0.20558 0.66 0.0
H667 H 0.96529 0.23902 0.60118 0.0
H668 H 0.97591 0.17746 0.79518 0.0
H669 H 0.95752 0.18568 0.56659 0.0
H670 H 0.96477 0.20421 0.45846 0.0
H671 H 0.02288 0.19063 0.46473 0.0
H672 H 0.01607 0.17247 0.57365 0.0
H673 H 0.95918 0.07117 0.80047 0.0
H674 H 0.95308 0.10557 0.77077 0.0
H675 H 0.01211 0.12233 0.69829 0.0
H676 H 0.01829 0.08835 0.72925 0.0
H677 H 0.98449 0.1393 0.61973 0.0
H678 H 0.00241 0.12821 0.83993 0.0
H679 H 0.99803 0.11194 0.95142 0.0
H680 H 0.94271 0.13155 0.96548 0.0
H681 H 0.9465 0.1475 0.85342 0.0
C682 C 0.0097 0.22851 0.64577 0.0
C683 C 0.99583 0.23911 0.61578 0.0
C684 C 0.00421 0.20943 0.67858 0.0
C685 C 0.98479 0.20072 0.6818 0.0
C686 C 0.97064 0.21215 0.6584 0.0
C687 C 0.97616 0.23126 0.62515 0.0
C688 C 0.98043 0.1789 0.69438 0.0
C689 C 0.97716 0.16899 0.75684 0.0
C690 C 0.9825 0.16796 0.64445 0.0
C691 C 0.98633 0.17788 0.57807 0.0
C692 C 0.97183 0.18668 0.5448 0.0
C693 C 0.97586 0.19711 0.48351 0.0
C694 C 0.99426 0.19855 0.45481 0.0
C695 C 0.00863 0.18946 0.48707 0.0
C696 C 0.00471 0.17915 0.54861 0.0
C697 C 0.97061 0.08216 0.77652 0.0
C698 C 0.98913 0.07722 0.76634 0.0
C699 C 0.96719 0.10176 0.76021 0.0
C700 C 0.98219 0.11646 0.73269 0.0
C701 C 1.00034 0.1112 0.71934 0.0
C702 C 0.00384 0.09182 0.73677 0.0
C703 C 0.97971 0.13759 0.72067 0.0
C704 C 0.98221 0.14751 0.65808 0.0
C705 C 0.97683 0.14839 0.7707 0.0
C706 C 0.9746 0.13879 0.83799 0.0
C707 C 0.98921 0.12886 0.86652 0.0
C708 C 0.98686 0.11974 0.92987 0.0
C709 C 0.97012 0.12071 0.96549 0.0
C710 C 0.95566 0.13078 0.9378 0.0
C711 C 0.95788 0.13983 0.87434 0.0
H712 H 0.96836 0.11368 0.01458 0.0
H713 H 0.99743 0.20694 0.40793 0.0
H714 H 0.3083 0.07612 0.68709 0.0
H715 H 0.33553 0.07206 0.75624 0.0
H716 H 0.32696 0.0095 0.7491 0.0
H717 H 0.29964 0.01358 0.68059 0.0
H718 H 0.34229 0.01903 0.86537 0.0
H719 H 0.35248 0.03995 0.63606 0.0
H720 H 0.35107 0.06235 0.53521 0.0
H721 H 0.38385 0.10966 0.61261 0.0
H722 H 0.38513 0.08767 0.71443 0.0
H723 H 0.43899 0.99371 0.84683 0.0
H724 H 0.40505 0.99843 0.83135 0.0
H725 H 0.41955 0.06008 0.84717 0.0
H726 H 0.45303 0.05559 0.86301 0.0
H727 H 0.40077 0.05323 0.73741 0.0
H728 H 0.39371 0.03455 0.95981 0.0
H729 H 0.39619 0.01439 0.06407 0.0
H730 H 0.35914 0.966 0.00602 0.0
H731 H 0.3566 0.98582 0.90094 0.0
C732 C 0.31167 0.06141 0.70312 0.0
C733 C 0.30193 0.04512 0.67933 0.0
C734 C 0.32725 0.0591 0.74218 0.0
C735 C 0.33341 0.04052 0.75684 0.0
C736 C 0.32239 0.02393 0.73844 0.0
C737 C 0.30679 0.02624 0.6995 0.0
C738 C 0.35299 0.0389 0.78032 0.0
C739 C 0.3551 0.02642 0.83739 0.0
C740 C 0.3697 0.04898 0.74443 0.0
C741 C 0.36866 0.06222 0.68325 0.0
C742 C 0.35917 0.05519 0.63192 0.0
C743 C 0.35838 0.06781 0.57457 0.0
C744 C 0.36725 0.08742 0.56762 0.0
C745 C 0.37692 0.09448 0.61808 0.0
C746 C 0.37766 0.08195 0.67566 0.0
C747 C 0.43486 1.00818 0.84764 0.0
C748 C 0.44871 0.02423 0.85604 0.0
C749 C 0.4155 0.01083 0.83923 0.0
C750 C 0.40987 0.02959 0.83846 0.0
C751 C 0.42361 0.04549 0.84792 0.0
C752 C 0.44277 0.04283 0.85704 0.0
C753 C 0.3901 0.03318 0.82199 0.0
C754 C 0.38799 0.046 0.76591 0.0
C755 C 0.37353 0.0237 0.8593 0.0
C756 C 0.37516 0.01159 0.92211 0.0
C757 C 0.38629 0.01952 0.96889 0.0
C758 C 0.38765 1.00819 0.02828 0.0
C759 C 0.3779 0.9889 0.04159 0.0
C760 C 0.36671 0.98094 0.99559 0.0
C761 C 0.36528 0.99223 0.93613 0.0
H762 H 0.37897 0.98014 0.08759 0.0
H763 H 0.36669 0.09712 0.52305 0.0
H764 H 0.5247 0.29542 0.51511 0.0
H765 H 0.5347 0.32077 0.58077 0.0
H766 H 0.58807 0.33802 0.46821 0.0
H767 H 0.57773 0.3131 0.40111 0.0
H768 H 0.56224 0.33658 0.65086 0.0
H769 H 0.59326 0.38651 0.41905 0.0
H770 H 0.5905 0.38844 0.30305 0.0
H771 H 0.53317 0.35606 0.33131 0.0
H772 H 0.53559 0.354 0.44737 0.0
H773 H 0.58619 0.43405 0.73033 0.0
H774 H 0.58806 0.40236 0.69354 0.0
H775 H 0.54343 0.41392 0.56169 0.0
H776 H 0.54223 0.44573 0.59627 0.0
H777 H 0.56898 0.40033 0.50446 0.0
H778 H 0.53555 0.3811 0.70825 0.0
H779 H 0.53095 0.37905 0.82419 0.0
H780 H 0.58126 0.35008 0.85272 0.0
H781 H 0.58629 0.35217 0.73684 0.0
C782 C 0.53895 0.304 0.50638 0.0
C783 C 0.55039 0.30255 0.45291 0.0
C784 C 0.54465 0.31852 0.54381 0.0
C785 C 0.56189 0.33162 0.52822 0.0
C786 C 0.57455 0.32829 0.48024 0.0
C787 C 0.56872 0.314 0.44223 0.0
C788 C 0.56466 0.35061 0.55321 0.0
C789 C 0.56397 0.35056 0.61904 0.0
C790 C 0.56625 0.36881 0.51157 0.0
C791 C 0.56473 0.36989 0.44183 0.0
C792 C 0.58009 0.3798 0.40044 0.0
C793 C 0.57858 0.3809 0.33473 0.0
C794 C 0.5617 0.37229 0.30986 0.0
C795 C 0.54627 0.36264 0.35065 0.0
C796 C 0.54772 0.36144 0.41639 0.0
C797 C 0.57688 0.42974 0.69333 0.0
C798 C 0.56419 0.4423 0.6656 0.0
C799 C 0.57787 0.41164 0.6726 0.0
C800 C 0.5658 0.40566 0.62506 0.0
C801 C 0.55303 0.41824 0.59794 0.0
C802 C 0.55234 0.43641 0.61768 0.0
C803 C 0.56634 0.38646 0.60246 0.0
C804 C 0.56769 0.38645 0.53671 0.0
C805 C 0.56439 0.36824 0.64426 0.0
C806 C 0.56143 0.36701 0.71389 0.0
C807 C 0.54572 0.37444 0.73924 0.0
C808 C 0.54302 0.37324 0.80494 0.0
C809 C 0.55584 0.3645 0.84579 0.0
C810 C 0.57136 0.35689 0.82102 0.0
C811 C 0.57415 0.35807 0.75535 0.0
H812 H 0.55371 0.36358 0.89663 0.0
H813 H 0.56057 0.37316 0.259 0.0
H814 H 0.22509 0.53667 0.63949 0.0
H815 H 0.19848 0.54735 0.69647 0.0
H816 H 0.17124 0.48675 0.74182 0.0
H817 H 0.19755 0.47622 0.68415 0.0
H818 H 0.14813 0.50914 0.6777 0.0
H819 H 0.18744 0.51265 0.85794 0.0
H820 H 0.21629 0.52306 0.91578 0.0
H821 H 0.20826 0.58376 0.86543 0.0
H822 H 0.17949 0.57374 0.80651 0.0
H823 H 0.07706 0.52576 0.91989 0.0
H824 H 0.11113 0.52509 0.89408 0.0
H825 H 0.10549 0.55828 0.7089 0.0
H826 H 0.07128 0.55915 0.73474 0.0
H827 H 0.14569 0.55124 0.8456 0.0
H828 H 0.12239 0.52975 0.60592 0.0
H829 H 0.09302 0.51638 0.5554 0.0
H830 H 0.06883 0.4867 0.73707 0.0
H831 H 0.09818 0.4996 0.78841 0.0
C832 C 0.21377 0.52564 0.66387 0.0
C833 C 0.21325 0.50566 0.65769 0.0
C834 C 0.19857 0.53172 0.69619 0.0
C835 C 0.18279 0.51785 0.7229 0.0
C836 C 0.18319 0.49771 0.72121 0.0
C837 C 0.19826 0.49168 0.68869 0.0
C838 C 0.16472 0.52431 0.74436 0.0
C839 C 0.14769 0.51838 0.71436 0.0
C840 C 0.16408 0.53638 0.79212 0.0
C841 C 0.18143 0.54245 0.82719 0.0
C842 C 0.19193 0.52824 0.85864 0.0
C843 C 0.20824 0.53406 0.89176 0.0
C844 C 0.21414 0.55406 0.89412 0.0
C845 C 0.2037 0.56828 0.86347 0.0
C846 C 0.18737 0.56253 0.83026 0.0
C847 C 0.08323 0.53346 0.87439 0.0
C848 C 0.07151 0.54228 0.82891 0.0
C849 C 0.10273 0.53318 0.85993 0.0
C850 C 0.11073 0.54144 0.79941 0.0
C851 C 0.09951 0.5518 0.75588 0.0
C852 C 0.08 0.55231 0.77068 0.0
C853 C 0.12936 0.53612 0.77852 0.0
C854 C 0.14636 0.54222 0.80845 0.0
C855 C 0.13002 0.52386 0.73144 0.0
C856 C 0.11236 0.51587 0.70102 0.0
C857 C 0.11081 0.52034 0.63501 0.0
C858 C 0.09418 0.51283 0.60625 0.0
C859 C 0.07905 0.50076 0.64303 0.0
C860 C 0.08053 0.49612 0.70866 0.0
C861 C 0.09715 0.50354 0.73761 0.0
H862 H 0.06622 0.49494 0.62061 0.0
H863 H 0.22677 0.55854 0.91981 0.0
H864 H 0.05906 0.81846 0.19426 0.0
H865 H 0.06387 0.85294 0.14177 0.0
H866 H 0.01181 0.84156 0.04054 0.0
H867 H 0.00713 0.80706 0.09217 0.0
H868 H 0.06142 0.87692 0.00597 0.0
H869 H 0.98341 0.87172 0.10093 0.0
H870 H 0.96094 0.85207 0.18522 0.0
H871 H 0.0087 0.8414 0.30257 0.0
H872 H 0.03144 0.86107 0.21911 0.0
H873 H 0.99206 0.95347 0.94725 0.0
H874 H 0.99963 0.92109 0.99052 0.0
H875 H 0.05691 0.94701 0.03101 0.0
H876 H 0.04946 0.97992 0.98626 0.0
H877 H 0.00932 0.90558 0.10556 0.0
H878 H 0.08736 0.9123 0.0105 0.0
H879 H 0.10932 0.93278 0.92628 0.0
H880 H 0.06113 0.94115 0.80857 0.0
H881 H 0.03895 0.92057 0.89177 0.0
C882 C 0.04931 0.82308 0.15793 0.0
C883 C 0.03277 0.81016 0.14691 0.0
C884 C 0.05201 0.84278 0.12829 0.0
C885 C 0.03806 0.84978 0.08803 0.0
C886 C 0.02273 0.83636 0.07152 0.0
C887 C 0.02015 0.81663 0.10056 0.0
C888 C 0.03721 0.87124 0.07357 0.0
C889 C 0.05024 0.88331 0.02827 0.0
C890 C 0.02265 0.87951 0.10292 0.0
C891 C 0.00912 0.86767 0.15348 0.0
C892 C 0.9891 0.86518 0.14473 0.0
C893 C 0.97633 0.85402 0.19232 0.0
C894 C 0.9834 0.8454 0.24904 0.0
C895 C 0.00326 0.84797 0.25841 0.0
C896 C 0.0161 0.85906 0.2109 0.0
C897 C 0.00629 0.95242 0.96547 0.0
C898 C 0.02022 0.96931 0.96285 0.0
C899 C 0.01055 0.93383 0.99055 0.0
C900 C 0.02887 0.93156 0.01349 0.0
C901 C 0.04273 0.94842 0.0129 0.0
C902 C 0.03842 0.9672 0.9878 0.0
C903 C 0.03315 0.91133 0.03637 0.0
C904 C 0.02073 0.89937 0.08371 0.0
C905 C 0.04827 0.90328 0.00884 0.0
C906 C 0.06152 0.91507 0.95759 0.0
C907 C 0.08149 0.91843 0.96649 0.0
C908 C 0.09396 0.93007 0.91898 0.0
C909 C 0.08662 0.93831 0.86219 0.0
C910 C 0.0668 0.93482 0.85264 0.0
C911 C 0.05427 0.92318 0.89996 0.0
H912 H 0.09629 0.94738 0.82559 0.0
H913 H 0.97348 0.8368 0.28577 0.0
H914 H 0.69571 0.95836 0.02778 0.0
H915 H 0.67323 0.9742 0.95744 0.0
H916 H 0.70194 0.03147 0.9845 0.0
H917 H 0.72473 0.01559 0.05381 0.0
H918 H 0.66267 0.02127 0.03074 0.0
H919 H 0.70071 0.02226 0.84163 0.0
H920 H 0.71938 0.00882 0.76332 0.0
H921 H 0.66886 0.96945 0.72982 0.0
H922 H 0.65004 0.98213 0.80928 0.0
H923 H 0.57986 0.05766 0.90025 0.0
H924 H 0.61413 0.05518 0.91563 0.0
H925 H 0.60583 0.99726 0.86013 0.0
H926 H 0.57201 0.99987 0.84276 0.0
H927 H 0.63923 0.01509 0.81594 0.0
H928 H 0.60503 1.00441 0.01931 0.0
H929 H 0.58505 0.01219 0.1063 0.0
H930 H 0.6263 0.06324 0.12102 0.0
H931 H 0.64643 0.05585 0.03361 0.0
C932 C 0.69776 0.97432 0.01602 0.0
C933 C 0.71192 0.98583 0.04548 0.0
C934 C 0.68495 0.98336 0.97597 0.0
C935 C 0.68597 1.00399 0.9658 0.0
C936 C 0.70107 0.01553 0.99136 0.0
C937 C 0.7141 1.00649 0.0306 0.0
C938 C 0.66917 0.01293 0.94028 0.0
C939 C 0.65781 0.02049 0.98306 0.0
C940 C 0.66253 0.01105 0.87908 0.0
C941 C 0.67397 1.0031 0.83195 0.0
C942 C 0.69363 0.01054 0.81827 0.0
C943 C 0.70425 1.00305 0.77357 0.0
C944 C 0.69534 0.98821 0.7418 0.0
C945 C 0.67579 0.98084 0.75467 0.0
C946 C 0.66514 0.98818 0.79957 0.0
C947 C 0.58543 0.04452 0.89054 0.0
C948 C 0.57314 0.02888 0.87098 0.0
C949 C 0.60499 0.04309 0.89956 0.0
C950 C 0.6125 0.02589 0.89005 0.0
C951 C 0.60042 0.01068 0.86778 0.0
C952 C 0.58099 0.01218 0.85819 0.0
C953 C 0.6325 0.02293 0.90701 0.0
C954 C 0.64438 0.01642 0.86292 0.0
C955 C 0.63937 0.025 0.96795 0.0
C956 C 0.62705 0.02978 0.01925 0.0
C957 C 0.60971 0.01743 0.04062 0.0
C958 C 0.5984 0.02172 0.09012 0.0
C959 C 0.60436 0.03825 0.11898 0.0
C960 C 0.62167 0.05049 0.09847 0.0
C961 C 0.63303 0.04626 0.04895 0.0
H962 H 0.5956 0.04154 0.15737 0.0
H963 H 0.70356 0.98247 0.70706 0.0
H964 H 0.45935 0.75393 0.23095 0.0
H965 H 0.44966 0.73398 0.14787 0.0
H966 H 0.50387 0.71081 0.15999 0.0
H967 H 0.51337 0.73037 0.24383 0.0
H968 H 0.48766 0.71593 0.03106 0.0
H969 H 0.47177 0.6871 0.2544 0.0
H970 H 0.45709 0.68805 0.35986 0.0
H971 H 0.40189 0.69191 0.27785 0.0
H972 H 0.41639 0.69137 0.1716 0.0
H973 H 0.48507 0.61549 0.02791 0.0
H974 H 0.48746 0.64977 0.04556 0.0
H975 H 0.42602 0.64802 0.02374 0.0
H976 H 0.42364 0.61349 0.00518 0.0
H977 H 0.43885 0.66071 0.13522 0.0
H978 H 0.45409 0.67749 0.917 0.0
H979 H 0.46942 0.6751 0.81401 0.0
H980 H 0.52531 0.6934 0.88249 0.0
H981 H 0.51039 0.69545 0.98664 0.0
C982 C 0.46942 0.7451 0.21409 0.0
C983 C 0.48701 0.74349 0.24361 0.0
C984 C 0.46392 0.73378 0.16669 0.0
C985 C 0.47606 0.72095 0.14797 0.0
C986 C 0.4944 0.72077 0.1734 0.0
C987 C 0.49975 0.73181 0.22146 0.0
C988 C 0.46841 0.70493 0.11268 0.0
C989 C 0.47688 0.7039 0.05324 0.0
C990 C 0.454 0.68953 0.14122 0.0
C991 C 0.44519 0.68946 0.20509 0.0
C992 C 0.45654 0.68831 0.25883 0.0
C993 C 0.44826 0.68876 0.31872 0.0
C994 C 0.42858 0.6901 0.32553 0.0
C995 C 0.41714 0.69093 0.27246 0.0
C996 C 0.42538 0.69056 0.2124 0.0
C997 C 0.47212 0.62251 0.02622 0.0
C998 C 0.45415 0.61194 0.01587 0.0
C999 C 0.47352 0.64211 0.03566 0.0
C1000 C 0.45695 0.65147 0.03533 0.0
C1001 C 0.43898 0.64107 0.02364 0.0
C1002 C 0.43763 0.62144 0.01316 0.0
C1003 C 0.45847 0.67132 0.05414 0.0
C1004 C 0.449 0.67304 0.11118 0.0
C1005 C 0.47191 0.68728 0.02308 0.0
C1006 C 0.48108 0.68656 0.95998 0.0
C1007 C 0.46967 0.68091 0.91035 0.0
C1008 C 0.47829 0.67962 0.85166 0.0
C1009 C 0.49833 0.68411 0.84163 0.0
C1010 C 0.50978 0.68994 0.89031 0.0
C1011 C 0.50124 0.69119 0.94922 0.0
H1012 H 0.50498 0.68309 0.79618 0.0
H1013 H 0.42218 0.69044 0.37194 0.0
H1014 H 0.78728 0.4992 0.06418 0.0
H1015 H 0.81516 0.49226 0.00345 0.0
H1016 H 0.8409 0.55324 0.98915 0.0
H1017 H 0.81324 0.56007 0.05001 0.0
H1018 H 0.84862 0.5368 0.88074 0.0
H1019 H 0.85133 0.52289 0.1095 0.0
H1020 H 0.83839 0.50686 0.21609 0.0
H1021 H 0.83933 0.44979 0.16106 0.0
H1022 H 0.85195 0.4656 0.05372 0.0
H1023 H 0.94863 0.54699 0.87946 0.0
H1024 H 0.91435 0.54583 0.90389 0.0
H1025 H 0.90719 0.48207 0.93508 0.0
H1026 H 0.94221 0.48331 0.91491 0.0
H1027 H 0.88677 0.49391 0.02045 0.0
H1028 H 0.89166 0.51141 0.79211 0.0
H1029 H 0.90638 0.53077 0.69213 0.0
H1030 H 0.89285 0.58411 0.75113 0.0
H1031 H 0.87814 0.56506 0.85181 0.0
C1032 C 0.79855 0.51121 0.04569 0.0
C1033 C 0.79821 0.53016 0.0612 0.0
C1034 C 0.81448 0.50724 0.01149 0.0
C1035 C 0.83013 0.52221 0.9924 0.0
C1036 C 0.82894 0.54152 0.00317 0.0
C1037 C 0.81316 0.54542 0.0378 0.0
C1038 C 0.84885 0.51751 0.96971 0.0
C1039 C 0.85694 0.52729 0.91086 0.0
C1040 C 0.85958 0.50497 0.00894 0.0
C1041 C 0.85231 0.4954 0.07354 0.0
C1042 C 0.84862 0.50693 0.12012 0.0
C1043 C 0.84136 0.4979 0.18061 0.0
C1044 C 0.83798 0.47731 0.1953 0.0
C1045 C 0.84191 0.46574 0.14955 0.0
C1046 C 0.8491 0.47473 0.08887 0.0
C1047 C 0.93974 0.53271 0.89125 0.0
C1048 C 0.94795 0.51523 0.89459 0.0
C1049 C 0.92007 0.53204 0.90461 0.0
C1050 C 0.90794 0.51386 0.91886 0.0
C1051 C 0.91618 0.49629 0.92326 0.0
C1052 C 0.93613 0.49697 0.91178 0.0
C1053 C 0.88686 0.5135 0.93155 0.0
C1054 C 0.8783 0.50282 0.98886 0.0
C1055 C 0.87579 0.52546 0.89121 0.0
C1056 C 0.88381 0.53679 0.82944 0.0
C1057 C 0.89181 0.52726 0.78369 0.0
C1058 C 0.90016 0.5382 0.72688 0.0
C1059 C 0.90054 0.55868 0.71523 0.0
C1060 C 0.89255 0.56826 0.76029 0.0
C1061 C 0.8841 0.55738 0.81704 0.0
H1062 H 0.9069 0.56717 0.67127 0.0
H1063 H 0.83237 0.47032 0.24216 0.0
H1064 H 1.00151 0.26657 0.32761 0.0
H1065 H 0.00648 0.2467 0.24396 0.0
H1066 H 0.04422 0.21471 0.36397 0.0
H1067 H 0.04022 0.23521 0.44519 0.0
H1068 H 0.0576 0.21887 0.24921 0.0
H1069 H 0.98796 0.18311 0.33164 0.0
H1070 H 0.95423 0.18637 0.36021 0.0
H1071 H 0.95328 0.23035 0.19544 0.0
H1072 H 0.98699 0.22721 0.1661 0.0
H1073 H 0.05259 0.12341 0.16678 0.0
H1074 H 0.05002 0.15225 0.21783 0.0
H1075 H 0.01412 0.1743 0.06938 0.0
H1076 H 0.01601 0.14502 0.01915 0.0
H1077 H 0.99956 0.17917 0.17987 0.0
H1078 H 0.06234 0.19508 0.07864 0.0
H1079 H 0.09532 0.18977 0.04939 0.0
H1080 H 0.10989 0.18409 0.24525 0.0
H1081 H 0.07691 0.18909 0.27582 0.0
C1082 C 0.01126 0.25565 0.33525 0.0
C1083 C 0.02037 0.25244 0.39332 0.0
C1084 C 0.01369 0.24386 0.28801 0.0
C1085 C 0.02504 0.22841 0.29821 0.0
C1086 C 0.03517 0.22624 0.35452 0.0
C1087 C 0.03291 0.23806 0.40116 0.0
C1088 C 0.02646 0.21417 0.25199 0.0
C1089 C 0.04486 0.21021 0.2342 0.0
C1090 C 0.01001 0.20307 0.23005 0.0
C1091 C 0.9901 0.20547 0.24817 0.0
C1092 C 0.9806 0.19367 0.3022 0.0
C1093 C 0.96148 0.19542 0.3183 0.0
C1094 C 0.9517 0.20875 0.28012 0.0
C1095 C 0.96094 0.22019 0.22535 0.0
C1096 C 0.98003 0.21842 0.20897 0.0
C1097 C 0.044 0.13427 0.14504 0.0
C1098 C 0.03453 0.13174 0.08854 0.0
C1099 C 0.04275 0.15097 0.174 0.0
C1100 C 0.03213 0.16578 0.14716 0.0
C1101 C 0.02252 0.16325 0.09104 0.0
C1102 C 0.02376 0.14651 0.062 0.0
C1103 C 0.03069 0.18354 0.17877 0.0
C1104 C 0.01232 0.18805 0.19391 0.0
C1105 C 0.04721 0.19524 0.19773 0.0
C1106 C 0.0671 0.19233 0.17955 0.0
C1107 C 0.07254 0.19257 0.11553 0.0
C1108 C 0.09124 0.18964 0.09871 0.0
C1109 C 0.10468 0.18656 0.14544 0.0
C1110 C 0.09946 0.18646 0.2091 0.0
C1111 C 0.08077 0.18937 0.2262 0.0
H1112 H 0.11915 0.18429 0.13232 0.0
H1113 H 0.93691 0.21009 0.29267 0.0
H1114 H 0.28489 0.036 0.40244 0.0
H1115 H 0.30798 0.0365 0.31327 0.0
H1116 H 0.3474 0.08073 0.38552 0.0
H1117 H 0.32444 0.08046 0.47358 0.0
H1118 H 0.32871 0.06478 0.21578 0.0
H1119 H 0.39187 0.06415 0.39088 0.0
H1120 H 0.39764 0.05142 0.50222 0.0
H1121 H 0.34652 0.00867 0.51071 0.0
H1122 H 0.34068 0.0208 0.39905 0.0
H1123 H 0.42253 0.09233 0.06247 0.0
H1124 H 0.39152 0.08804 0.12236 0.0
H1125 H 0.39931 0.02847 0.19979 0.0
H1126 H 0.43037 0.03281 0.14089 0.0
H1127 H 0.39162 0.04694 0.29081 0.0
H1128 H 0.36294 0.03768 0.0966 0.0
H1129 H 0.35676 0.04469 0.98253 0.0
H1130 H 0.33758 0.09927 0.00908 0.0
H1131 H 0.34368 0.09267 0.12329 0.0
C1132 C 0.29823 0.04624 0.39803 0.0
C1133 C 0.30302 0.05798 0.44531 0.0
C1134 C 0.31142 0.04648 0.34728 0.0
C1135 C 0.32954 0.05839 0.34352 0.0
C1136 C 0.33363 0.07121 0.38802 0.0
C1137 C 0.3205 0.07104 0.43831 0.0
C1138 C 0.34501 0.05623 0.29741 0.0
C1139 C 0.34248 0.06087 0.23196 0.0
C1140 C 0.36273 0.05046 0.31859 0.0
C1141 C 0.36575 0.04353 0.38661 0.0
C1142 C 0.38187 0.05201 0.41644 0.0
C1143 C 0.38521 0.04483 0.47952 0.0
C1144 C 0.37252 0.02916 0.51336 0.0
C1145 C 0.35636 0.02077 0.48438 0.0
C1146 C 0.35302 0.02781 0.42119 0.0
C1147 C 0.41744 0.07823 0.09149 0.0
C1148 C 0.42899 0.06302 0.09788 0.0
C1149 C 0.39968 0.07574 0.12546 0.0
C1150 C 0.39304 0.05792 0.16567 0.0
C1151 C 0.40417 0.04241 0.16953 0.0
C1152 C 0.42196 0.04494 0.1361 0.0
C1153 C 0.37569 0.05616 0.20889 0.0
C1154 C 0.37787 0.05079 0.27418 0.0
C1155 C 0.35757 0.06067 0.18725 0.0
C1156 C 0.35391 0.06475 0.11852 0.0
C1157 C 0.35755 0.05126 0.07808 0.0
C1158 C 0.35403 0.05513 0.0134 0.0
C1159 C 0.34688 0.07244 0.98855 0.0
C1160 C 0.34314 0.08588 0.02839 0.0
C1161 C 0.34657 0.08205 0.09315 0.0
H1162 H 0.34419 0.07541 0.93846 0.0
H1163 H 0.37515 0.02361 0.56216 0.0
H1164 H 0.49238 0.30837 0.25355 0.0
H1165 H 0.4873 0.33768 0.17888 0.0
H1166 H 0.54899 0.35255 0.14277 0.0
H1167 H 0.55403 0.32356 0.21804 0.0
H1168 H 0.5351 0.38316 0.17079 0.0
H1169 H 0.51727 0.33713 0.02777 0.0
H1170 H 0.49937 0.30751 0.99352 0.0
H1171 H 0.44573 0.32946 0.02014 0.0
H1172 H 0.46331 0.35912 0.0553 0.0
H1173 H 0.53537 0.46317 0.92083 0.0
H1174 H 0.53825 0.43027 0.9767 0.0
H1175 H 0.47765 0.42142 0.03302 0.0
H1176 H 0.47462 0.45445 0.97696 0.0
H1177 H 0.49016 0.38778 0.99402 0.0
H1178 H 0.50935 0.4353 0.13032 0.0
H1179 H 0.5281 0.46507 0.1605 0.0
H1180 H 0.58045 0.43977 0.14738 0.0
H1181 H 0.56217 0.41021 0.11392 0.0
C1182 C 0.50477 0.31756 0.228 0.0
C1183 C 0.52359 0.31364 0.24133 0.0
C1184 C 0.50189 0.33438 0.1855 0.0
C1185 C 0.51777 0.34744 0.15501 0.0
C1186 C 0.53649 0.34284 0.16579 0.0
C1187 C 0.53936 0.32618 0.20844 0.0
C1188 C 0.51513 0.36665 0.11608 0.0
C1189 C 0.52552 0.38409 0.13141 0.0
C1190 C 0.50219 0.36804 0.06587 0.0
C1191 C 0.49159 0.35024 0.04479 0.0
C1192 C 0.50165 0.33556 0.02682 0.0
C1193 C 0.49156 0.31878 0.00713 0.0
C1194 C 0.47142 0.31658 0.00483 0.0
C1195 C 0.46133 0.33118 0.02203 0.0
C1196 C 0.47135 0.34798 0.04177 0.0
C1197 C 0.52255 0.45416 0.94416 0.0
C1198 C 0.50474 0.46148 0.94428 0.0
C1199 C 0.52426 0.43536 0.97643 0.0
C1200 C 0.5082 0.42342 0.00945 0.0
C1201 C 0.49024 0.43037 0.00784 0.0
C1202 C 0.48855 0.44929 0.97602 0.0
C1203 C 0.51039 0.40412 0.04814 0.0
C1204 C 0.49984 0.38676 0.03311 0.0
C1205 C 0.52332 0.40278 0.09838 0.0
C1206 C 0.53438 0.42061 0.11848 0.0
C1207 C 0.5249 0.43619 0.13271 0.0
C1208 C 0.53546 0.45306 0.15034 0.0
C1209 C 0.55548 0.45438 0.15527 0.0
C1210 C 0.56496 0.4388 0.14289 0.0
C1211 C 0.55452 0.42201 0.1243 0.0
H1212 H 0.56364 0.46744 0.16903 0.0
H1213 H 0.46364 0.30358 0.98958 0.0
H1214 H 0.19657 0.45961 0.50918 0.0
H1215 H 0.17506 0.45433 0.42298 0.0
H1216 H 0.2134 0.49735 0.29377 0.0
H1217 H 0.23487 0.50297 0.38098 0.0
H1218 H 0.1776 0.50593 0.29054 0.0
H1219 H 0.20561 0.44797 0.27513 0.0
H1220 H 0.2175 0.41655 0.3133 0.0
H1221 H 0.16033 0.39063 0.38491 0.0
H1222 H 0.14813 0.42197 0.34801 0.0
H1223 H 0.11094 0.49359 0.0488 0.0
H1224 H 0.14078 0.49301 0.10646 0.0
H1225 H 0.11005 0.45192 0.26 0.0
H1226 H 0.08015 0.45237 0.20242 0.0
H1227 H 0.14552 0.44232 0.23695 0.0
H1228 H 0.11905 0.50128 0.26758 0.0
H1229 H 0.10679 0.53271 0.23223 0.0
H1230 H 0.16122 0.55657 0.13425 0.0
H1231 H 0.17372 0.52516 0.16839 0.0
C1232 C 0.20065 0.46758 0.462 0.0
C1233 C 0.21732 0.48177 0.45174 0.0
C1234 C 0.18839 0.46447 0.4126 0.0
C1235 C 0.1926 0.47538 0.35165 0.0
C1236 C 0.20987 0.48873 0.34037 0.0
C1237 C 0.22221 0.49183 0.39 0.0
C1238 C 0.17781 0.47447 0.30263 0.0
C1239 C 0.17095 0.49205 0.27755 0.0
C1240 C 0.16872 0.45633 0.28693 0.0
C1241 C 0.17598 0.43739 0.30906 0.0
C1242 C 0.19559 0.43562 0.29941 0.0
C1243 C 0.20238 0.41781 0.32076 0.0
C1244 C 0.18969 0.40161 0.35158 0.0
C1245 C 0.17015 0.40318 0.36102 0.0
C1246 C 0.16328 0.42096 0.33979 0.0
C1247 C 0.11054 0.48443 0.09487 0.0
C1248 C 0.09312 0.47319 0.12137 0.0
C1249 C 0.12762 0.48407 0.12768 0.0
C1250 C 0.12761 0.47263 0.18797 0.0
C1251 C 0.11041 0.46084 0.21352 0.0
C1252 C 0.09333 0.46111 0.18057 0.0
C1253 C 0.14523 0.47371 0.22589 0.0
C1254 C 0.1525 0.45619 0.24901 0.0
C1255 C 0.15469 0.49189 0.24008 0.0
C1256 C 0.14724 0.51081 0.21992 0.0
C1257 C 0.12835 0.51319 0.23811 0.0
C1258 C 0.12137 0.531 0.21836 0.0
C1259 C 0.1332 0.54661 0.18085 0.0
C1260 C 0.15206 0.54445 0.1632 0.0
C1261 C 0.15911 0.52665 0.18276 0.0
H1262 H 0.12776 0.56039 0.1656 0.0
H1263 H 0.19498 0.38784 0.36809 0.0
H1264 H 0.03157 0.79467 0.39783 0.0
H1265 H 0.02336 0.817 0.4697 0.0
H1266 H 0.96538 0.81261 0.40267 0.0
H1267 H 0.97371 0.7903 0.33044 0.0
H1268 H 0.98206 0.85056 0.39179 0.0
H1269 H 0.97429 0.79482 0.55781 0.0
H1270 H 0.98368 0.76549 0.62383 0.0
H1271 H 0.03302 0.80118 0.68414 0.0
H1272 H 0.02408 0.8307 0.61777 0.0
H1273 H 0.95074 0.91535 0.58847 0.0
H1274 H 0.95418 0.88665 0.53752 0.0
H1275 H 0.01106 0.88518 0.61077 0.0
H1276 H 0.00739 0.91336 0.66428 0.0
H1277 H 0.99331 0.84895 0.62109 0.0
H1278 H 0.00305 0.90383 0.45261 0.0
H1279 H 0.99562 0.93343 0.38299 0.0
H1280 H 0.94484 0.89978 0.32328 0.0
H1281 H 0.9518 0.87003 0.39332 0.0
C1282 C 0.0168 0.7977 0.40083 0.0
C1283 C 0.00312 0.79028 0.35978 0.0
C1284 C 0.01214 0.81063 0.44155 0.0
C1285 C 0.9937 0.81658 0.44196 0.0
C1286 C 0.97968 0.80825 0.40358 0.0
C1287 C 0.98433 0.79522 0.36302 0.0
C1288 C 0.9898 0.83296 0.47692 0.0
C1289 C 0.98412 0.85 0.44224 0.0
C1290 C 0.9932 0.83268 0.54231 0.0
C1291 C 0.99859 0.81495 0.58236 0.0
C1292 C 0.98723 0.7964 0.58474 0.0
C1293 C 0.99245 0.77974 0.62231 0.0
C1294 C 0.00896 0.78146 0.65805 0.0
C1295 C 0.02025 0.79986 0.65639 0.0
C1296 C 0.0151 0.81657 0.61886 0.0
C1297 C 0.96392 0.90884 0.59452 0.0
C1298 C 0.9788 0.9169 0.63067 0.0
C1299 C 0.96597 0.89248 0.56456 0.0
C1300 C 0.98302 0.88376 0.56923 0.0
C1301 C 0.99778 0.89158 0.60596 0.0
C1302 C 0.99572 0.90791 0.63612 0.0
C1303 C 0.98549 0.86656 0.53592 0.0
C1304 C 0.99103 0.84942 0.57077 0.0
C1305 C 0.98217 0.86682 0.47039 0.0
C1306 C 0.9778 0.88476 0.42895 0.0
C1307 C 0.99017 0.90279 0.4252 0.0
C1308 C 0.98607 0.91959 0.38553 0.0
C1309 C 0.96973 0.91851 0.34893 0.0
C1310 C 0.95746 0.90061 0.35181 0.0
C1311 C 0.96148 0.88378 0.39149 0.0
H1312 H 0.96659 0.93152 0.31818 0.0
H1313 H 0.01298 0.76854 0.68711 0.0
H1314 H 0.68221 0.93946 0.2287 0.0
H1315 H 0.65773 0.93698 0.31413 0.0
H1316 H 0.6982 0.97173 0.41714 0.0
H1317 H 0.72277 0.97458 0.331 0.0
H1318 H 0.67284 0.94003 0.49559 0.0
H1319 H 0.67019 0.99506 0.33012 0.0
H1320 H 0.66852 0.01139 0.21971 0.0
H1321 H 0.61407 0.97569 0.20299 0.0
H1322 H 0.61562 0.95881 0.31295 0.0
H1323 H 0.6031 0.97591 0.68276 0.0
H1324 H 0.6304 0.97186 0.61457 0.0
H1325 H 0.5908 0.94526 0.48903 0.0
H1326 H 0.56347 0.94981 0.55579 0.0
H1327 H 0.61664 0.97288 0.42365 0.0
H1328 H 0.61838 0.91823 0.5882 0.0
H1329 H 0.61992 0.90077 0.6972 0.0
H1330 H 0.67548 0.93429 0.71509 0.0
H1331 H 0.67404 0.95237 0.60677 0.0
C1332 C 0.68603 0.94627 0.27008 0.0
C1333 C 0.70432 0.95747 0.27273 0.0
C1334 C 0.67203 0.94482 0.31884 0.0
C1335 C 0.67606 0.95448 0.3713 0.0
C1336 C 0.69481 0.96423 0.37685 0.0
C1337 C 0.70885 0.96577 0.32776 0.0
C1338 C 0.66015 0.95603 0.41655 0.0
C1339 C 0.66065 0.94742 0.4803 0.0
C1340 C 0.6441 0.96534 0.39591 0.0
C1341 C 0.64313 0.97549 0.32965 0.0
C1342 C 0.65796 0.99052 0.30273 0.0
C1343 C 0.65702 0.99991 0.24022 0.0
C1344 C 0.64122 0.99455 0.20429 0.0
C1345 C 0.62632 0.9798 0.23084 0.0
C1346 C 0.62723 0.97031 0.29325 0.0
C1347 C 0.60021 0.9692 0.64062 0.0
C1348 C 0.58107 0.96323 0.62468 0.0
C1349 C 0.61584 0.96671 0.60201 0.0
C1350 C 0.61268 0.95815 0.5468 0.0
C1351 C 0.59361 0.95188 0.53141 0.0
C1352 C 0.57799 0.95435 0.56997 0.0
C1353 C 0.62911 0.95668 0.50309 0.0
C1354 C 0.62878 0.96543 0.43934 0.0
C1355 C 0.64523 0.94743 0.52382 0.0
C1356 C 0.64598 0.93685 0.58952 0.0
C1357 C 0.63081 0.92209 0.61564 0.0
C1358 C 0.63168 0.91206 0.67731 0.0
C1359 C 0.64775 0.91649 0.71316 0.0
C1360 C 0.663 0.93093 0.68735 0.0
C1361 C 0.66215 0.94111 0.62584 0.0
H1362 H 0.64841 0.90867 0.76084 0.0
H1363 H 0.6405 1.00187 0.15597 0.0
H1364 H 0.47045 0.70983 0.45078 0.0
H1365 H 0.47353 0.68359 0.53784 0.0
H1366 H 0.52014 0.72081 0.60913 0.0
H1367 H 0.51776 0.74697 0.5192 0.0
H1368 H 0.53053 0.68711 0.61228 0.0
H1369 H 0.4748 0.70631 0.69284 0.0
H1370 H 0.44248 0.71663 0.69595 0.0
H1371 H 0.41697 0.66068 0.65002 0.0
H1372 H 0.44918 0.65011 0.64577 0.0
H1373 H 0.49 0.59234 0.86615 0.0
H1374 H 0.48907 0.62688 0.8207 0.0
H1375 H 0.52375 0.61964 0.6582 0.0
H1376 H 0.52566 0.58568 0.70523 0.0
H1377 H 0.47435 0.64353 0.72736 0.0
H1378 H 0.54891 0.65996 0.58359 0.0
H1379 H 0.58219 0.65261 0.59845 0.0
H1380 H 0.57197 0.64285 0.80074 0.0
H1381 H 0.53871 0.65041 0.78718 0.0
C1382 C 0.48136 0.71253 0.48497 0.0
C1383 C 0.49405 0.73047 0.4773 0.0
C1384 C 0.48292 0.69753 0.53555 0.0
C1385 C 0.49696 0.70013 0.5809 0.0
C1386 C 0.50917 0.71836 0.57493 0.0
C1387 C 0.5077 0.7334 0.52376 0.0
C1388 C 0.4997 0.68317 0.63081 0.0
C1389 C 0.51825 0.67769 0.63783 0.0
C1390 C 0.48391 0.6712 0.66672 0.0
C1391 C 0.46446 0.67747 0.66854 0.0
C1392 C 0.46233 0.69627 0.6828 0.0
C1393 C 0.44401 0.70215 0.68493 0.0
C1394 C 0.42769 0.68933 0.67307 0.0
C1395 C 0.42964 0.6706 0.65919 0.0
C1396 C 0.44792 0.66463 0.65704 0.0
C1397 C 0.49767 0.59825 0.82116 0.0
C1398 C 0.50806 0.5863 0.78956 0.0
C1399 C 0.49708 0.61802 0.79504 0.0
C1400 C 0.50661 0.62619 0.73622 0.0
C1401 C 0.51682 0.61411 0.70454 0.0
C1402 C 0.51779 0.59454 0.73131 0.0
C1403 C 0.50501 0.64686 0.70578 0.0
C1404 C 0.48669 0.65307 0.70259 0.0
C1405 C 0.52117 0.65995 0.67585 0.0
C1406 C 0.54126 0.65563 0.6843 0.0
C1407 C 0.55379 0.65637 0.63126 0.0
C1408 C 0.57265 0.65213 0.63946 0.0
C1409 C 0.57917 0.64722 0.70049 0.0
C1410 C 0.56688 0.6466 0.75348 0.0
C1411 C 0.54801 0.65083 0.74557 0.0
H1412 H 0.59377 0.64393 0.70672 0.0
H1413 H 0.41352 0.69391 0.67475 0.0
H1414 H 0.79344 0.57472 0.25419 0.0
H1415 H 0.81829 0.58097 0.33109 0.0
H1416 H 0.81546 0.51823 0.3914 0.0
H1417 H 0.79054 0.51205 0.31479 0.0
H1418 H 0.82338 0.53978 0.49087 0.0
H1419 H 0.8455 0.53996 0.27561 0.0
H1420 H 0.8466 0.55101 0.16002 0.0
H1421 H 0.86877 0.61002 0.18732 0.0
H1422 H 0.8672 0.59948 0.30337 0.0
H1423 H 0.91898 0.53097 0.58308 0.0
H1424 H 0.88813 0.52879 0.53158 0.0
H1425 H 0.89667 0.59199 0.4752 0.0
H1426 H 0.92779 0.59434 0.52614 0.0
H1427 H 0.88497 0.57223 0.37751 0.0
H1428 H 0.85946 0.57304 0.59119 0.0
H1429 H 0.85517 0.5629 0.70721 0.0
H1430 H 0.84097 0.50231 0.68169 0.0
H1431 H 0.84439 0.51222 0.56528 0.0
C1432 C 0.79749 0.56237 0.28612 0.0
C1433 C 0.78996 0.54295 0.27962 0.0
C1434 C 0.81181 0.56591 0.32947 0.0
C1435 C 0.81892 0.55004 0.36621 0.0
C1436 C 0.81015 0.53067 0.36363 0.0
C1437 C 0.79586 0.52714 0.32023 0.0
C1438 C 0.83704 0.5534 0.40052 0.0
C1439 C 0.83686 0.54678 0.46603 0.0
C1440 C 0.85462 0.56273 0.36821 0.0
C1441 C 0.85601 0.56898 0.29831 0.0
C1442 C 0.85046 0.55533 0.25706 0.0
C1443 C 0.85118 0.56149 0.19143 0.0
C1444 C 0.85775 0.58119 0.16634 0.0
C1445 C 0.86364 0.59477 0.20684 0.0
C1446 C 0.8628 0.58872 0.27257 0.0
C1447 C 0.91444 0.54444 0.55943 0.0
C1448 C 0.92592 0.56286 0.55921 0.0
C1449 C 0.89662 0.54318 0.53071 0.0
C1450 C 0.88991 0.56026 0.50051 0.0
C1451 C 0.90147 0.57863 0.49888 0.0
C1452 C 0.91924 0.57994 0.5282 0.0
C1453 C 0.8713 0.55873 0.46801 0.0
C1454 C 0.87144 0.56549 0.40253 0.0
C1455 C 0.85372 0.54948 0.50018 0.0
C1456 C 0.85233 0.54334 0.56983 0.0
C1457 C 0.85552 0.55755 0.61044 0.0
C1458 C 0.85312 0.55186 0.67618 0.0
C1459 C 0.84798 0.53195 0.70187 0.0
C1460 C 0.84499 0.51771 0.66176 0.0
C1461 C 0.84697 0.52337 0.5959 0.0
H1462 H 0.84626 0.52758 0.75282 0.0
H1463 H 0.85831 0.58592 0.1155 0.0
loop_
_geom_bond_atom_site_label_1
_geom_bond_atom_site_label_2
_geom_bond_distance
_geom_bond_site_symmetry_2
_ccdc_geom_bond_type
H0 C7 0.929 . S
H1 C10 0.930 . S
H2 C12 0.929 . S
H3 C4 0.969 . S
C4 H3 0.969 . S
C4 O5 1.550 1_556 S
C4 H6 0.973 . S
O5 C4 1.550 1_554 S
O5 C11 1.412 . S
H6 C4 0.973 . S
C7 H0 0.929 . S
C7 C8 1.400 . S
C7 C9 1.364 1_554 S
C8 C7 1.400 . S
C8 C12 1.377 . S
C9 C7 1.364 1_556 S
C9 C10 1.374 . S
C10 H1 0.930 . S
C10 C9 1.374 . S
C10 C11 1.383 1_556 S
C11 O5 1.412 . S
C11 C10 1.383 1_554 S
C11 C12 1.394 . S
C12 H2 0.929 . S
C12 C8 1.377 . S
C12 C11 1.394 . S
H13 C20 0.929 . S
H14 C23 0.930 . S
H15 C25 0.929 . S
H16 C17 0.969 1_455 S
C17 H16 0.969 1_655 S
C17 O18 1.550 . S
C17 H19 0.973 . S
O18 C17 1.550 . S
O18 C24 1.412 . S
H19 C17 0.973 . S
C20 H13 0.929 . S
C20 C21 1.400 . S
C20 C22 1.364 . S
C21 C20 1.400 . S
C21 C25 1.377 . S
C22 C20 1.364 . S
C22 C23 1.374 . S
C23 H14 0.930 . S
C23 C22 1.374 . S
C23 C24 1.383 . S
C24 O18 1.412 . S
C24 C23 1.383 . S
C24 C25 1.394 . S
C25 H15 0.929 . S
C25 C21 1.377 . S
C25 C24 1.394 . S
H26 C33 0.929 . S
H27 C36 0.930 . S
H28 C38 0.929 . S
H29 C30 0.969 . S
C30 H29 0.969 . S
C30 O31 1.550 . S
C30 H32 0.977 . S
O31 C30 1.550 . S
O31 C37 1.412 . S
H32 C30 0.977 . S
C33 H26 0.929 . S
C33 C34 1.400 . S
C33 C35 1.364 . S
C34 C33 1.400 . S
C34 C38 1.377 . S
C35 C33 1.364 . S
C35 C36 1.374 . S
C36 H27 0.930 . S
C36 C35 1.374 . S
C36 C37 1.383 . S
C37 O31 1.412 . S
C37 C36 1.383 . S
C37 C38 1.394 . S
C38 H28 0.929 . S
C38 C34 1.377 . S
C38 C37 1.394 . S
H39 C46 0.929 . S
H40 C49 0.930 . S
H41 C51 0.929 . S
H42 C43 0.969 . S
C43 H42 0.969 . S
C43 O44 1.550 . S
C43 H45 0.973 . S
O44 C43 1.550 . S
O44 C50 1.412 . S
H45 C43 0.973 . S
C46 H39 0.929 . S
C46 C47 1.400 . S
C46 C48 1.364 . S
C47 C46 1.400 . S
C47 C51 1.377 . S
C48 C46 1.364 . S
C48 C49 1.374 . S
C49 H40 0.930 . S
C49 C48 1.374 . S
C49 C50 1.383 . S
C50 O44 1.412 . S
C50 C49 1.383 . S
C50 C51 1.394 . S
C51 H41 0.929 . S
C51 C47 1.377 . S
C51 C50 1.394 . S
H52 C59 0.929 . S
H53 C62 0.930 . S
H54 C64 0.929 . S
H55 C56 0.969 . S
C56 H55 0.969 . S
C56 O57 1.550 . S
C56 H58 0.973 . S
O57 C56 1.550 . S
O57 C63 1.412 . S
H58 C56 0.973 . S
C59 H52 0.929 . S
C59 C60 1.400 . S
C59 C61 1.364 . S
C60 C59 1.400 . S
C60 C64 1.377 . S
C61 C59 1.364 . S
C61 C62 1.374 . S
C62 H53 0.930 . S
C62 C61 1.374 . S
C62 C63 1.383 . S
C63 O57 1.412 . S
C63 C62 1.383 . S
C63 C64 1.394 . S
C64 H54 0.929 . S
C64 C60 1.377 . S
C64 C63 1.394 . S
H65 C72 0.929 . S
H66 C75 0.930 . S
H67 C77 0.929 . S
H68 C69 0.969 . S
C69 H68 0.969 . S
C69 O70 1.550 . S
C69 H71 0.973 . S
O70 C69 1.550 . S
O70 C76 1.412 . S
H71 C69 0.973 . S
C72 H65 0.929 . S
C72 C73 1.400 . S
C72 C74 1.364 . S
C73 C72 1.400 . S
C73 C77 1.377 . S
C74 C72 1.364 . S
C74 C75 1.374 . S
C75 H66 0.930 . S
C75 C74 1.374 . S
C75 C76 1.383 . S
C76 O70 1.412 . S
C76 C75 1.383 . S
C76 C77 1.394 . S
C77 H67 0.929 . S
C77 C73 1.377 . S
C77 C76 1.394 . S
H78 C85 0.929 . S
H79 C88 0.930 . S
H80 C90 0.929 . S
H81 C82 0.969 . S
C82 H81 0.969 . S
C82 O83 1.550 . S
C82 H84 0.973 . S
O83 C82 1.550 . S
O83 C89 1.412 . S
H84 C82 0.973 . S
C85 H78 0.929 . S
C85 C86 1.400 . S
C85 C87 1.364 . S
C86 C85 1.400 . S
C86 C90 1.377 . S
C87 C85 1.364 . S
C87 C88 1.374 . S
C88 H79 0.930 . S
C88 C87 1.374 . S
C88 C89 1.383 . S
C89 O83 1.412 . S
C89 C88 1.383 . S
C89 C90 1.394 . S
C90 H80 0.929 . S
C90 C86 1.377 . S
C90 C89 1.394 . S
H91 C98 0.929 . S
H92 C101 0.930 . S
H93 C103 0.929 . S
H94 C95 0.969 . S
C95 H94 0.969 . S
C95 O96 1.550 . S
C95 H97 0.973 . S
O96 C95 1.550 . S
O96 C102 1.412 . S
H97 C95 0.973 . S
C98 H91 0.929 . S
C98 C99 1.400 . S
C98 C100 1.364 . S
C99 C98 1.400 . S
C99 C103 1.377 . S
C100 C98 1.364 . S
C100 C101 1.374 . S
C101 H92 0.930 . S
C101 C100 1.374 . S
C101 C102 1.383 . S
C102 O96 1.412 . S
C102 C101 1.383 . S
C102 C103 1.394 . S
C103 H93 0.929 . S
C103 C99 1.377 . S
C103 C102 1.394 . S
Nd104 C106 2.836 1_545 S
Nd104 O124 2.500 1_445 S
Nd104 O125 2.492 1_545 S
Nd104 O126 2.487 . S
Nd104 O127 2.682 . S
Nd104 O128 2.410 1_545 S
Nd104 O133 2.414 1_455 S
Nd104 O135 2.424 . S
Nd105 C115 2.836 1_556 S
Nd105 O127 2.414 . S
Nd105 O129 2.424 1_545 S
Nd105 O130 2.500 . S
Nd105 O131 2.492 1_456 S
Nd105 O132 2.487 1_455 S
Nd105 O133 2.682 1_455 S
Nd105 O134 2.410 1_455 S
C106 Nd104 2.836 1_565 S
C106 C107 1.498 1_455 S
C106 O124 1.246 1_455 S
C106 O125 1.251 . S
C107 C106 1.498 1_655 S
C107 C108 1.366 . S
C107 C112 1.407 1_655 S
C108 C107 1.366 . S
C108 C109 1.392 . S
C108 H136 0.930 . S
C109 C108 1.392 . S
C109 C110 1.398 . S
C109 H137 0.929 . S
C110 C109 1.398 . S
C110 C111 1.352 1_655 S
C111 C110 1.352 1_455 S
C111 C112 1.384 . S
C111 H138 0.930 . S
C112 C107 1.407 1_455 S
C112 C111 1.384 . S
C112 H139 0.929 . S
C113 O126 1.241 . S
C113 O127 1.273 . S
C114 O128 1.251 . S
C114 O129 1.268 . S
C115 Nd105 2.836 1_554 S
C115 C116 1.498 . S
C115 O130 1.258 1_554 S
C115 O131 1.239 1_455 S
C116 C115 1.498 . S
C116 C117 1.366 . S
C116 C121 1.407 1_455 S
C117 C116 1.366 . S
C117 C118 1.392 . S
C117 H140 0.930 1_554 S
C118 C117 1.392 . S
C118 C119 1.398 . S
C118 H141 0.929 . S
C119 C118 1.398 . S
C119 C120 1.352 . S
C120 C119 1.352 . S
C120 C121 1.384 1_455 S
C120 H142 0.930 1_455 S
C121 C116 1.407 1_655 S
C121 C120 1.384 1_655 S
C121 H143 0.929 . S
C122 O132 1.241 . S
C122 O133 1.273 . S
C123 O134 1.251 1_455 S
C123 O135 1.268 . S
O124 Nd104 2.500 1_665 S
O124 C106 1.246 1_655 S
O125 Nd104 2.492 1_565 S
O125 C106 1.251 . S
O126 Nd104 2.487 . S
O126 C113 1.241 . S
O127 Nd104 2.682 . S
O127 Nd105 2.414 . S
O127 C113 1.273 . S
O128 Nd104 2.410 1_565 S
O128 C114 1.251 . S
O129 Nd105 2.424 1_565 S
O129 C114 1.268 . S
O130 Nd105 2.500 . S
O130 C115 1.258 1_556 S
O131 Nd105 2.492 1_654 S
O131 C115 1.239 1_655 S
O132 Nd105 2.487 1_655 S
O132 C122 1.241 . S
O133 Nd104 2.414 1_655 S
O133 Nd105 2.682 1_655 S
O133 C122 1.273 . S
O134 Nd105 2.410 1_655 S
O134 C123 1.251 1_655 S
O135 Nd104 2.424 . S
O135 C123 1.268 . S
H136 C108 0.930 . S
H137 C109 0.929 . S
H138 C111 0.930 . S
H139 C112 0.929 . S
H140 C117 0.930 1_556 S
H141 C118 0.929 . S
H142 C120 0.930 1_655 S
H143 C121 0.929 . S
Nd144 C146 2.836 1_545 S
Nd144 O164 2.500 1_545 S
Nd144 O165 2.492 . S
Nd144 O166 2.487 . S
Nd144 O167 2.682 . S
Nd144 O168 2.410 . S
Nd144 O173 2.414 1_545 S
Nd144 O175 2.424 . S
Nd145 C155 2.836 1_556 S
Nd145 O167 2.414 . S
Nd145 O169 2.424 . S
Nd145 O170 2.500 . S
Nd145 O171 2.492 1_556 S
Nd145 O172 2.487 1_545 S
Nd145 O173 2.682 1_545 S
Nd145 O174 2.410 . S
C146 Nd144 2.836 1_565 S
C146 C147 1.498 . S
C146 O164 1.258 . S
C146 O165 1.239 1_565 S
C147 C146 1.498 . S
C147 C148 1.366 . S
C147 C152 1.407 . S
C148 C147 1.366 . S
C148 C149 1.392 . S
C148 H176 0.930 . S
C149 C148 1.392 . S
C149 C150 1.398 . S
C149 H177 0.929 . S
C150 C149 1.398 . S
C150 C151 1.352 . S
C151 C150 1.352 . S
C151 C152 1.384 . S
C151 H178 0.930 . S
C152 C147 1.407 . S
C152 C151 1.384 . S
C152 H179 0.929 1_565 S
C153 O166 1.241 . S
C153 O167 1.273 . S
C154 O168 1.251 . S
C154 O169 1.268 . S
C155 Nd145 2.836 1_554 S
C155 C156 1.498 . S
C155 O170 1.258 1_554 S
C155 O171 1.239 . S
C156 C155 1.498 . S
C156 C157 1.366 . S
C156 C161 1.407 . S
C157 C156 1.366 . S
C157 C158 1.392 . S
C157 H180 0.930 1_554 S
C158 C157 1.392 . S
C158 C159 1.398 . S
C158 H181 0.929 . S
C159 C158 1.398 . S
C159 C160 1.352 . S
C160 C159 1.352 . S
C160 C161 1.384 . S
C160 H182 0.930 . S
C161 C156 1.407 . S
C161 C160 1.384 . S
C161 H183 0.929 . S
C162 O172 1.241 . S
C162 O173 1.273 . S
C163 O174 1.251 . S
C163 O175 1.268 . S
O164 Nd144 2.500 1_565 S
O164 C146 1.258 . S
O165 Nd144 2.492 . S
O165 C146 1.239 1_545 S
O166 Nd144 2.487 . S
O166 C153 1.241 . S
O167 Nd144 2.682 . S
O167 Nd145 2.414 . S
O167 C153 1.273 . S
O168 Nd144 2.410 . S
O168 C154 1.251 . S
O169 Nd145 2.424 . S
O169 C154 1.268 . S
O170 Nd145 2.500 . S
O170 C155 1.258 1_556 S
O171 Nd145 2.492 1_554 S
O171 C155 1.239 . S
O172 Nd145 2.487 1_565 S
O172 C162 1.241 . S
O173 Nd144 2.414 1_565 S
O173 Nd145 2.682 1_565 S
O173 C162 1.273 . S
O174 Nd145 2.410 . S
O174 C163 1.251 . S
O175 Nd144 2.424 . S
O175 C163 1.268 . S
H176 C148 0.930 . S
H177 C149 0.929 . S
H178 C151 0.930 . S
H179 C152 0.929 1_545 S
H180 C157 0.930 1_556 S
H181 C158 0.929 . S
H182 C160 0.930 . S
H183 C161 0.929 . S
Nd184 C186 2.836 . S
Nd184 O204 2.500 . S
Nd184 O205 2.492 . S
Nd184 O206 2.487 . S
Nd184 O207 2.682 . S
Nd184 O208 2.410 . S
Nd184 O213 2.414 . S
Nd184 O215 2.424 . S
Nd185 C195 2.836 . S
Nd185 O207 2.414 . S
Nd185 O209 2.424 . S
Nd185 O210 2.500 . S
Nd185 O211 2.492 . S
Nd185 O212 2.487 . S
Nd185 O213 2.682 . S
Nd185 O214 2.410 . S
C186 Nd184 2.836 . S
C186 C187 1.505 . S
C186 O204 1.258 . S
C186 O205 1.239 . S
C187 C186 1.505 . S
C187 C188 1.371 . S
C187 C192 1.396 1_556 S
C188 C187 1.371 . S
C188 C189 1.393 1_556 S
C188 H216 0.930 . S
C189 C188 1.393 1_554 S
C189 C190 1.398 . S
C189 H217 0.930 1_554 S
C190 C189 1.398 . S
C190 C191 1.352 . S
C191 C190 1.352 . S
C191 C192 1.384 . S
C191 H218 0.930 . S
C192 C187 1.396 1_554 S
C192 C191 1.384 . S
C192 H219 0.929 . S
C193 O206 1.241 . S
C193 O207 1.273 . S
C194 O208 1.251 . S
C194 O209 1.268 . S
C195 Nd185 2.836 . S
C195 C196 1.498 . S
C195 O210 1.258 . S
C195 O211 1.239 . S
C196 C195 1.498 . S
C196 C197 1.366 . S
C196 C201 1.407 . S
C197 C196 1.366 . S
C197 C198 1.392 . S
C197 H220 0.930 . S
C198 C197 1.392 . S
C198 C199 1.398 . S
C198 H221 0.929 . S
C199 C198 1.398 . S
C199 C200 1.352 . S
C200 C199 1.352 . S
C200 C201 1.384 . S
C200 H222 0.930 . S
C201 C196 1.407 . S
C201 C200 1.384 . S
C201 H223 0.929 . S
C202 O212 1.241 . S
C202 O213 1.273 . S
C203 O214 1.251 . S
C203 O215 1.268 . S
O204 Nd184 2.500 . S
O204 C186 1.258 . S
O205 Nd184 2.492 . S
O205 C186 1.239 . S
O206 Nd184 2.487 . S
O206 C193 1.241 . S
O207 Nd184 2.682 . S
O207 Nd185 2.414 . S
O207 C193 1.273 . S
O208 Nd184 2.410 . S
O208 C194 1.251 . S
O209 Nd185 2.424 . S
O209 C194 1.268 . S
O210 Nd185 2.500 . S
O210 C195 1.258 . S
O211 Nd185 2.492 . S
O211 C195 1.239 . S
O212 Nd185 2.487 . S
O212 C202 1.241 . S
O213 Nd184 2.414 . S
O213 Nd185 2.682 . S
O213 C202 1.273 . S
O214 Nd185 2.410 . S
O214 C203 1.251 . S
O215 Nd184 2.424 . S
O215 C203 1.268 . S
H216 C188 0.930 . S
H217 C189 0.930 1_556 S
H218 C191 0.930 . S
H219 C192 0.929 . S
H220 C197 0.930 . S
H221 C198 0.929 . S
H222 C200 0.930 . S
H223 C201 0.929 . S
Nd224 C226 2.836 1_455 S
Nd224 O244 2.500 1_455 S
Nd224 O245 2.492 1_455 S
Nd224 O246 2.487 1_455 S
Nd224 O247 2.682 . S
Nd224 O248 2.410 1_455 S
Nd224 O253 2.414 . S
Nd224 O255 2.424 . S
Nd225 C235 2.836 1_556 S
Nd225 O247 2.414 . S
Nd225 O249 2.424 1_455 S
Nd225 O250 2.500 1_556 S
Nd225 O251 2.492 1_556 S
Nd225 O252 2.487 . S
Nd225 O253 2.682 . S
Nd225 O254 2.410 . S
C226 Nd224 2.836 1_655 S
C226 C227 1.498 . S
C226 O244 1.258 . S
C226 O245 1.239 . S
C227 C226 1.498 . S
C227 C228 1.366 . S
C227 C232 1.407 . S
C228 C227 1.366 . S
C228 C229 1.392 . S
C228 H256 0.930 . S
C229 C228 1.392 . S
C229 C230 1.398 . S
C229 H257 0.929 . S
C230 C229 1.398 . S
C230 C231 1.352 . S
C231 C230 1.352 . S
C231 C232 1.384 . S
C231 H258 0.930 . S
C232 C227 1.407 . S
C232 C231 1.384 . S
C232 H259 0.929 . S
C233 O246 1.241 1_455 S
C233 O247 1.273 . S
C234 O248 1.251 . S
C234 O249 1.268 . S
C235 Nd225 2.836 1_554 S
C235 C236 1.498 . S
C235 O250 1.258 . S
C235 O251 1.239 . S
C236 C235 1.498 . S
C236 C237 1.366 . S
C236 C241 1.407 . S
C237 C236 1.366 . S
C237 C238 1.392 . S
C237 H260 0.930 . S
C238 C237 1.392 . S
C238 C239 1.398 . S
C238 H261 0.929 . S
C239 C238 1.398 . S
C239 C240 1.352 . S
C240 C239 1.352 . S
C240 C241 1.384 . S
C240 H262 0.930 . S
C241 C236 1.407 . S
C241 C240 1.384 . S
C241 H263 0.929 . S
C242 O252 1.241 . S
C242 O253 1.273 . S
C243 O254 1.251 . S
C243 O255 1.268 . S
O244 Nd224 2.500 1_655 S
O244 C226 1.258 . S
O245 Nd224 2.492 1_655 S
O245 C226 1.239 . S
O246 Nd224 2.487 1_655 S
O246 C233 1.241 1_655 S
O247 Nd224 2.682 . S
O247 Nd225 2.414 . S
O247 C233 1.273 . S
O248 Nd224 2.410 1_655 S
O248 C234 1.251 . S
O249 Nd225 2.424 1_655 S
O249 C234 1.268 . S
O250 Nd225 2.500 1_554 S
O250 C235 1.258 . S
O251 Nd225 2.492 1_554 S
O251 C235 1.239 . S
O252 Nd225 2.487 . S
O252 C242 1.241 . S
O253 Nd224 2.414 . S
O253 Nd225 2.682 . S
O253 C242 1.273 . S
O254 Nd225 2.410 . S
O254 C243 1.251 . S
O255 Nd224 2.424 . S
O255 C243 1.268 . S
H256 C228 0.930 . S
H257 C229 0.929 . S
H258 C231 0.930 . S
H259 C232 0.929 . S
H260 C237 0.930 . S
H261 C238 0.929 . S
H262 C240 0.930 . S
H263 C241 0.929 . S
H264 C282 0.951 . S
H265 C284 0.951 . S
H266 C286 0.950 . S
H267 C287 0.950 . S
H268 C289 0.950 . S
H269 C292 0.950 . S
H270 C293 0.950 . S
H271 C295 0.950 . S
H272 C296 0.950 . S
H273 C297 0.951 . S
H274 C299 0.951 . S
H275 C301 0.950 . S
H276 C302 0.950 . S
H277 C304 0.950 . S
H278 C307 0.950 . S
H279 C308 0.950 . S
H280 C310 0.950 . S
H281 C311 0.950 . S
C282 H264 0.951 . S
C282 C283 1.366 . S
C282 C284 1.388 . S
C283 C282 1.366 . S
C283 C287 1.385 . S
C284 H265 0.951 . S
C284 C282 1.388 . S
C284 C285 1.366 . S
C285 C284 1.366 . S
C285 C286 1.414 . S
C285 C288 1.499 . S
C286 H266 0.950 . S
C286 C285 1.414 . S
C286 C287 1.374 . S
C287 H267 0.950 . S
C287 C283 1.385 . S
C287 C286 1.374 . S
C288 C285 1.499 . S
C288 C289 1.373 . S
C288 C290 1.389 . S
C289 H268 0.950 . S
C289 C288 1.373 . S
C289 C305 1.377 . S
C290 C288 1.389 . S
C290 C291 1.524 . S
C290 C304 1.377 . S
C291 C290 1.524 . S
C291 C292 1.397 . S
C291 C296 1.363 . S
C292 H269 0.950 . S
C292 C291 1.397 . S
C292 C293 1.334 . S
C293 H270 0.950 . S
C293 C292 1.334 . S
C293 C294 1.287 . S
C294 C293 1.287 . S
C294 C295 1.524 . S
C294 H313 0.913 . S
C295 H271 0.950 . S
C295 C294 1.524 . S
C295 C296 1.415 . S
C296 H272 0.950 . S
C296 C291 1.363 . S
C296 C295 1.415 . S
C297 H273 0.951 . S
C297 C298 1.366 . S
C297 C299 1.388 . S
C298 C297 1.366 . S
C298 C302 1.385 . S
C299 H274 0.951 . S
C299 C297 1.388 . S
C299 C300 1.366 . S
C300 C299 1.366 . S
C300 C301 1.414 . S
C300 C303 1.499 . S
C301 H275 0.950 . S
C301 C300 1.414 . S
C301 C302 1.374 . S
C302 H276 0.950 . S
C302 C298 1.385 . S
C302 C301 1.374 . S
C303 C300 1.499 . S
C303 C304 1.373 . S
C303 C305 1.389 . S
C304 H277 0.950 . S
C304 C290 1.377 . S
C304 C303 1.373 . S
C305 C289 1.377 . S
C305 C303 1.389 . S
C305 C306 1.524 . S
C306 C305 1.524 . S
C306 C307 1.397 . S
C306 C311 1.363 . S
C307 H278 0.950 . S
C307 C306 1.397 . S
C307 C308 1.334 . S
C308 H279 0.950 . S
C308 C307 1.334 . S
C308 C309 1.287 . S
C309 C308 1.287 . S
C309 C310 1.524 . S
C309 H312 0.999 . S
C310 H280 0.950 . S
C310 C309 1.524 . S
C310 C311 1.415 . S
C311 H281 0.950 . S
C311 C306 1.363 . S
C311 C310 1.415 . S
H312 C309 0.999 . S
H313 C294 0.913 . S
H314 C332 0.951 . S
H315 C334 0.951 . S
H316 C336 0.950 . S
H317 C337 0.950 . S
H318 C339 0.950 . S
H319 C342 0.950 . S
H320 C343 0.950 . S
H321 C345 0.950 . S
H322 C346 0.950 . S
H323 C347 0.951 . S
H324 C349 0.951 . S
H325 C351 0.950 . S
H326 C352 0.950 . S
H327 C354 0.950 . S
H328 C357 0.950 . S
H329 C358 0.950 . S
H330 C360 0.950 . S
H331 C361 0.950 . S
C332 H314 0.951 . S
C332 C333 1.366 . S
C332 C334 1.388 . S
C333 C332 1.366 . S
C333 C337 1.385 . S
C334 H315 0.951 . S
C334 C332 1.388 . S
C334 C335 1.366 . S
C335 C334 1.366 . S
C335 C336 1.414 . S
C335 C338 1.499 . S
C336 H316 0.950 . S
C336 C335 1.414 . S
C336 C337 1.374 . S
C337 H317 0.950 . S
C337 C333 1.385 . S
C337 C336 1.374 . S
C338 C335 1.499 . S
C338 C339 1.373 . S
C338 C340 1.389 . S
C339 H318 0.950 . S
C339 C338 1.373 . S
C339 C355 1.377 . S
C340 C338 1.389 . S
C340 C341 1.524 . S
C340 C354 1.377 . S
C341 C340 1.524 . S
C341 C342 1.397 . S
C341 C346 1.363 . S
C342 H319 0.950 . S
C342 C341 1.397 . S
C342 C343 1.334 . S
C343 H320 0.950 . S
C343 C342 1.334 . S
C343 C344 1.287 . S
C344 C343 1.287 . S
C344 C345 1.524 . S
C344 H363 0.913 . S
C345 H321 0.950 . S
C345 C344 1.524 . S
C345 C346 1.415 . S
C346 H322 0.950 . S
C346 C341 1.363 . S
C346 C345 1.415 . S
C347 H323 0.951 . S
C347 C348 1.366 . S
C347 C349 1.388 . S
C348 C347 1.366 . S
C348 C352 1.385 . S
C349 H324 0.951 . S
C349 C347 1.388 . S
C349 C350 1.366 . S
C350 C349 1.366 . S
C350 C351 1.414 . S
C350 C353 1.499 . S
C351 H325 0.950 . S
C351 C350 1.414 . S
C351 C352 1.374 . S
C352 H326 0.950 . S
C352 C348 1.385 . S
C352 C351 1.374 . S
C353 C350 1.499 . S
C353 C354 1.373 . S
C353 C355 1.389 . S
C354 H327 0.950 . S
C354 C340 1.377 . S
C354 C353 1.373 . S
C355 C339 1.377 . S
C355 C353 1.389 . S
C355 C356 1.524 . S
C356 C355 1.524 . S
C356 C357 1.397 . S
C356 C361 1.363 . S
C357 H328 0.950 . S
C357 C356 1.397 . S
C357 C358 1.334 . S
C358 H329 0.950 . S
C358 C357 1.334 . S
C358 C359 1.287 . S
C359 C358 1.287 . S
C359 C360 1.524 . S
C359 H362 0.999 . S
C360 H330 0.950 . S
C360 C359 1.524 . S
C360 C361 1.415 . S
C361 H331 0.950 . S
C361 C356 1.363 . S
C361 C360 1.415 . S
H362 C359 0.999 . S
H363 C344 0.913 . S
H364 C382 0.951 . S
H365 C384 0.951 . S
H366 C386 0.950 . S
H367 C387 0.950 . S
H368 C389 0.950 . S
H369 C392 0.950 . S
H370 C393 0.950 . S
H371 C395 0.950 . S
H372 C396 0.950 . S
H373 C397 0.951 . S
H374 C399 0.951 . S
H375 C401 0.950 . S
H376 C402 0.950 . S
H377 C404 0.950 . S
H378 C407 0.950 . S
H379 C408 0.950 . S
H380 C410 0.950 . S
H381 C411 0.950 . S
C382 H364 0.951 . S
C382 C383 1.366 . S
C382 C384 1.388 . S
C383 C382 1.366 . S
C383 C387 1.385 . S
C384 H365 0.951 . S
C384 C382 1.388 . S
C384 C385 1.366 . S
C385 C384 1.366 . S
C385 C386 1.414 . S
C385 C388 1.499 . S
C386 H366 0.950 . S
C386 C385 1.414 . S
C386 C387 1.374 . S
C387 H367 0.950 . S
C387 C383 1.385 . S
C387 C386 1.374 . S
C388 C385 1.499 . S
C388 C389 1.373 . S
C388 C390 1.389 . S
C389 H368 0.950 . S
C389 C388 1.373 . S
C389 C405 1.377 . S
C390 C388 1.389 . S
C390 C391 1.524 . S
C390 C404 1.377 . S
C391 C390 1.524 . S
C391 C392 1.397 . S
C391 C396 1.363 . S
C392 H369 0.950 . S
C392 C391 1.397 . S
C392 C393 1.334 . S
C393 H370 0.950 . S
C393 C392 1.334 . S
C393 C394 1.287 . S
C394 C393 1.287 . S
C394 C395 1.524 . S
C394 H413 0.913 . S
C395 H371 0.950 . S
C395 C394 1.524 . S
C395 C396 1.415 . S
C396 H372 0.950 . S
C396 C391 1.363 . S
C396 C395 1.415 . S
C397 H373 0.951 . S
C397 C398 1.366 . S
C397 C399 1.388 . S
C398 C397 1.366 . S
C398 C402 1.385 . S
C399 H374 0.951 . S
C399 C397 1.388 . S
C399 C400 1.366 . S
C400 C399 1.366 . S
C400 C401 1.414 . S
C400 C403 1.499 . S
C401 H375 0.950 . S
C401 C400 1.414 . S
C401 C402 1.374 . S
C402 H376 0.950 . S
C402 C398 1.385 . S
C402 C401 1.374 . S
C403 C400 1.499 . S
C403 C404 1.373 . S
C403 C405 1.389 . S
C404 H377 0.950 . S
C404 C390 1.377 . S
C404 C403 1.373 . S
C405 C389 1.377 . S
C405 C403 1.389 . S
C405 C406 1.524 . S
C406 C405 1.524 . S
C406 C407 1.397 . S
C406 C411 1.363 . S
C407 H378 0.950 . S
C407 C406 1.397 . S
C407 C408 1.334 . S
C408 H379 0.950 . S
C408 C407 1.334 . S
C408 C409 1.287 1_556 S
C409 C408 1.287 1_554 S
C409 C410 1.524 . S
C409 H412 0.999 . S
C410 H380 0.950 . S
C410 C409 1.524 . S
C410 C411 1.415 1_554 S
C411 H381 0.950 . S
C411 C406 1.363 . S
C411 C410 1.415 1_556 S
H412 C409 0.999 . S
H413 C394 0.913 . S
H414 C432 0.951 . S
H415 C434 0.951 . S
H416 C436 0.962 . S
H417 C437 0.950 1_655 S
H418 C439 0.950 . S
H419 C442 0.950 . S
H420 C443 0.950 . S
H421 C445 0.950 . S
H422 C446 0.950 . S
H423 C447 0.951 . S
H424 C449 0.951 . S
H425 C451 0.950 . S
H426 C452 0.950 . S
H427 C454 0.950 . S
H428 C457 0.950 . S
H429 C458 0.950 . S
H430 C460 0.950 . S
H431 C461 0.950 . S
C432 H414 0.951 . S
C432 C433 1.366 . S
C432 C434 1.388 . S
C433 C432 1.366 . S
C433 C437 1.385 . S
C434 H415 0.951 . S
C434 C432 1.388 . S
C434 C435 1.366 . S
C435 C434 1.366 . S
C435 C436 1.405 1_455 S
C435 C438 1.499 . S
C436 H416 0.962 . S
C436 C435 1.405 1_655 S
C436 C437 1.371 1_655 S
C437 H417 0.950 1_455 S
C437 C433 1.385 . S
C437 C436 1.371 1_455 S
C438 C435 1.499 . S
C438 C439 1.373 1_455 S
C438 C440 1.389 . S
C439 H418 0.950 . S
C439 C438 1.373 1_655 S
C439 C455 1.377 . S
C440 C438 1.389 . S
C440 C441 1.524 . S
C440 C454 1.377 . S
C441 C440 1.524 . S
C441 C442 1.397 . S
C441 C446 1.363 . S
C442 H419 0.950 . S
C442 C441 1.397 . S
C442 C443 1.334 . S
C443 H420 0.950 . S
C443 C442 1.334 . S
C443 C444 1.287 . S
C444 C443 1.287 . S
C444 C445 1.524 . S
C444 H463 0.913 . S
C445 H421 0.950 . S
C445 C444 1.524 . S
C445 C446 1.415 . S
C446 H422 0.950 . S
C446 C441 1.363 . S
C446 C445 1.415 . S
C447 H423 0.951 . S
C447 C448 1.366 1_655 S
C447 C449 1.388 . S
C448 C447 1.366 1_455 S
C448 C452 1.385 . S
C449 H424 0.951 . S
C449 C447 1.388 . S
C449 C450 1.366 1_655 S
C450 C449 1.366 1_455 S
C450 C451 1.414 . S
C450 C453 1.499 . S
C451 H425 0.950 . S
C451 C450 1.414 . S
C451 C452 1.374 . S
C452 H426 0.950 . S
C452 C448 1.385 . S
C452 C451 1.374 . S
C453 C450 1.499 . S
C453 C454 1.373 . S
C453 C455 1.389 1_455 S
C454 H427 0.950 . S
C454 C440 1.377 . S
C454 C453 1.373 . S
C455 C439 1.377 . S
C455 C453 1.389 1_655 S
C455 C456 1.524 . S
C456 C455 1.524 . S
C456 C457 1.397 . S
C456 C461 1.363 . S
C457 H428 0.950 . S
C457 C456 1.397 . S
C457 C458 1.334 . S
C458 H429 0.950 . S
C458 C457 1.334 . S
C458 C459 1.287 . S
C459 C458 1.287 . S
C459 C460 1.524 . S
C459 H462 0.999 . S
C460 H430 0.950 . S
C460 C459 1.524 . S
C460 C461 1.415 . S
C461 H431 0.950 . S
C461 C456 1.363 . S
C461 C460 1.415 . S
H462 C459 0.999 . S
H463 C444 0.913 . S
H464 C482 0.951 . S
H465 C484 0.951 . S
H466 C486 0.950 . S
H467 C487 0.950 . S
H468 C489 0.950 . S
H469 C492 0.950 . S
H470 C493 0.950 . S
H471 C495 0.950 . S
H472 C496 0.946 1_565 S
H473 C497 0.951 . S
H474 C499 0.951 . S
H475 C501 0.950 1_554 S
H476 C502 0.950 1_545 S
H477 C504 0.950 . S
H478 C507 0.950 1_554 S
H479 C508 0.950 1_554 S
H480 C510 0.950 . S
H481 C511 0.950 . S
C482 H464 0.951 . S
C482 C483 1.366 . S
C482 C484 1.388 . S
C483 C482 1.366 . S
C483 C487 1.385 1_554 S
C484 H465 0.951 . S
C484 C482 1.388 . S
C484 C485 1.366 1_554 S
C485 C484 1.366 1_556 S
C485 C486 1.414 . S
C485 C488 1.499 . S
C486 H466 0.950 . S
C486 C485 1.414 . S
C486 C487 1.374 . S
C487 H467 0.950 . S
C487 C483 1.385 1_556 S
C487 C486 1.374 . S
C488 C485 1.499 . S
C488 C489 1.373 . S
C488 C490 1.389 . S
C489 H468 0.950 . S
C489 C488 1.373 . S
C489 C505 1.377 . S
C490 C488 1.389 . S
C490 C491 1.524 . S
C490 C504 1.377 . S
C491 C490 1.524 . S
C491 C492 1.397 . S
C491 C496 1.322 1_566 S
C492 H469 0.950 . S
C492 C491 1.397 . S
C492 C493 1.334 1_565 S
C493 H470 0.950 . S
C493 C492 1.334 1_545 S
C493 C494 1.287 . S
C494 C493 1.287 . S
C494 C495 1.524 1_556 S
C494 H513 0.913 . S
C495 H471 0.950 . S
C495 C494 1.524 1_554 S
C495 C496 1.463 . S
C496 H472 0.946 1_545 S
C496 C491 1.322 1_544 S
C496 C495 1.463 . S
C497 H473 0.951 . S
C497 C498 1.366 . S
C497 C499 1.388 . S
C498 C497 1.366 . S
C498 C502 1.385 . S
C499 H474 0.951 . S
C499 C497 1.388 . S
C499 C500 1.366 . S
C500 C499 1.366 . S
C500 C501 1.414 . S
C500 C503 1.499 . S
C501 H475 0.950 1_556 S
C501 C500 1.414 . S
C501 C502 1.374 . S
C502 H476 0.950 1_565 S
C502 C498 1.385 . S
C502 C501 1.374 . S
C503 C500 1.499 . S
C503 C504 1.373 . S
C503 C505 1.389 . S
C504 H477 0.950 . S
C504 C490 1.377 . S
C504 C503 1.373 . S
C505 C489 1.377 . S
C505 C503 1.389 . S
C505 C506 1.524 . S
C506 C505 1.524 . S
C506 C507 1.397 . S
C506 C511 1.363 . S
C507 H478 0.950 1_556 S
C507 C506 1.397 . S
C507 C508 1.334 . S
C508 H479 0.950 1_556 S
C508 C507 1.334 . S
C508 C509 1.287 . S
C509 C508 1.287 . S
C509 C510 1.524 . S
C509 H512 0.999 . S
C510 H480 0.950 . S
C510 C509 1.524 . S
C510 C511 1.415 . S
C511 H481 0.950 . S
C511 C506 1.363 . S
C511 C510 1.415 . S
H512 C509 0.999 . S
H513 C494 0.913 . S
H514 C532 0.951 . S
H515 C534 0.951 . S
H516 C536 0.950 . S
H517 C537 0.950 . S
H518 C539 0.950 . S
H519 C542 0.950 . S
H520 C543 0.950 . S
H521 C545 0.950 . S
H522 C546 0.950 . S
H523 C547 0.951 . S
H524 C549 0.951 . S
H525 C551 0.950 . S
H526 C552 0.950 . S
H527 C554 0.950 . S
H528 C557 0.950 1_556 S
H529 C558 0.950 . S
H530 C560 0.950 . S
H531 C561 0.950 . S
C532 H514 0.951 . S
C532 C533 1.366 . S
C532 C534 1.388 . S
C533 C532 1.366 . S
C533 C537 1.385 . S
C534 H515 0.951 . S
C534 C532 1.388 . S
C534 C535 1.366 . S
C535 C534 1.366 . S
C535 C536 1.414 . S
C535 C538 1.499 . S
C536 H516 0.950 . S
C536 C535 1.414 . S
C536 C537 1.374 . S
C537 H517 0.950 . S
C537 C533 1.385 . S
C537 C536 1.374 . S
C538 C535 1.499 . S
C538 C539 1.373 . S
C538 C540 1.389 . S
C539 H518 0.950 . S
C539 C538 1.373 . S
C539 C555 1.377 . S
C540 C538 1.389 . S
C540 C541 1.524 . S
C540 C554 1.377 . S
C541 C540 1.524 . S
C541 C542 1.397 . S
C541 C546 1.363 . S
C542 H519 0.950 . S
C542 C541 1.397 . S
C542 C543 1.334 . S
C543 H520 0.950 . S
C543 C542 1.334 . S
C543 C544 1.287 . S
C544 C543 1.287 . S
C544 C545 1.524 . S
C544 H563 0.913 . S
C545 H521 0.950 . S
C545 C544 1.524 . S
C545 C546 1.415 . S
C546 H522 0.950 . S
C546 C541 1.363 . S
C546 C545 1.415 . S
C547 H523 0.951 . S
C547 C548 1.366 1_554 S
C547 C549 1.388 . S
C548 C547 1.366 1_556 S
C548 C552 1.385 . S
C549 H524 0.951 . S
C549 C547 1.388 . S
C549 C550 1.366 . S
C550 C549 1.366 . S
C550 C551 1.414 1_554 S
C550 C553 1.499 . S
C551 H525 0.950 . S
C551 C550 1.414 1_556 S
C551 C552 1.374 . S
C552 H526 0.950 . S
C552 C548 1.385 . S
C552 C551 1.374 . S
C553 C550 1.499 . S
C553 C554 1.373 . S
C553 C555 1.389 . S
C554 H527 0.950 . S
C554 C540 1.377 . S
C554 C553 1.373 . S
C555 C539 1.377 . S
C555 C553 1.389 . S
C555 C556 1.524 . S
C556 C555 1.524 . S
C556 C557 1.397 . S
C556 C561 1.363 . S
C557 H528 0.950 1_554 S
C557 C556 1.397 . S
C557 C558 1.334 1_554 S
C558 H529 0.950 . S
C558 C557 1.334 1_556 S
C558 C559 1.287 1_556 S
C559 C558 1.287 1_554 S
C559 C560 1.524 . S
C559 H562 0.999 . S
C560 H530 0.950 . S
C560 C559 1.524 . S
C560 C561 1.415 . S
C561 H531 0.950 . S
C561 C556 1.363 . S
C561 C560 1.415 . S
H562 C559 0.999 . S
H563 C544 0.913 . S
H564 C582 0.951 . S
H565 C584 0.951 . S
H566 C586 0.950 . S
H567 C587 0.950 1_554 S
H568 C589 0.950 . S
H569 C592 0.950 . S
H570 C593 0.950 . S
H571 C595 0.950 . S
H572 C596 0.950 . S
H573 C597 0.951 . S
H574 C599 0.951 . S
H575 C601 0.950 . S
H576 C602 0.950 . S
H577 C604 0.950 . S
H578 C607 0.950 . S
H579 C608 0.950 . S
H580 C610 0.950 . S
H581 C611 0.950 . S
C582 H564 0.951 . S
C582 C583 1.366 . S
C582 C584 1.388 . S
C583 C582 1.366 . S
C583 C587 1.385 . S
C584 H565 0.951 . S
C584 C582 1.388 . S
C584 C585 1.366 . S
C585 C584 1.366 . S
C585 C586 1.414 . S
C585 C588 1.499 . S
C586 H566 0.950 . S
C586 C585 1.414 . S
C586 C587 1.374 . S
C587 H567 0.950 1_556 S
C587 C583 1.385 . S
C587 C586 1.374 . S
C588 C585 1.499 . S
C588 C589 1.373 . S
C588 C590 1.389 . S
C589 H568 0.950 . S
C589 C588 1.373 . S
C589 C605 1.377 . S
C590 C588 1.389 . S
C590 C591 1.524 . S
C590 C604 1.377 . S
C591 C590 1.524 . S
C591 C592 1.397 1_556 S
C591 C596 1.363 . S
C592 H569 0.950 . S
C592 C591 1.397 1_554 S
C592 C593 1.334 . S
C593 H570 0.950 . S
C593 C592 1.334 . S
C593 C594 1.287 . S
C594 C593 1.287 . S
C594 C595 1.524 1_554 S
C594 H613 0.913 . S
C595 H571 0.950 . S
C595 C594 1.524 1_556 S
C595 C596 1.415 . S
C596 H572 0.950 . S
C596 C591 1.363 . S
C596 C595 1.415 . S
C597 H573 0.951 . S
C597 C598 1.366 . S
C597 C599 1.388 . S
C598 C597 1.366 . S
C598 C602 1.385 . S
C599 H574 0.951 . S
C599 C597 1.388 . S
C599 C600 1.366 . S
C600 C599 1.366 . S
C600 C601 1.414 . S
C600 C603 1.499 . S
C601 H575 0.950 . S
C601 C600 1.414 . S
C601 C602 1.374 . S
C602 H576 0.950 . S
C602 C598 1.385 . S
C602 C601 1.374 . S
C603 C600 1.499 . S
C603 C604 1.373 . S
C603 C605 1.389 . S
C604 H577 0.950 . S
C604 C590 1.377 . S
C604 C603 1.373 . S
C605 C589 1.377 . S
C605 C603 1.389 . S
C605 C606 1.524 . S
C606 C605 1.524 . S
C606 C607 1.397 . S
C606 C611 1.363 . S
C607 H578 0.950 . S
C607 C606 1.397 . S
C607 C608 1.334 . S
C608 H579 0.950 . S
C608 C607 1.334 . S
C608 C609 1.287 . S
C609 C608 1.287 . S
C609 C610 1.524 . S
C609 H612 0.999 . S
C610 H580 0.950 . S
C610 C609 1.524 . S
C610 C611 1.415 . S
C611 H581 0.950 . S
C611 C606 1.363 . S
C611 C610 1.415 . S
H612 C609 0.999 . S
H613 C594 0.913 . S
H614 C632 0.951 . S
H615 C634 0.951 . S
H616 C636 0.950 . S
H617 C637 0.950 . S
H618 C639 0.950 . S
H619 C642 0.950 . S
H620 C643 0.950 . S
H621 C645 0.950 . S
H622 C646 0.950 . S
H623 C647 0.951 . S
H624 C649 0.951 . S
H625 C651 0.950 . S
H626 C652 0.950 . S
H627 C654 0.950 . S
H628 C657 0.950 . S
H629 C658 0.950 . S
H630 C660 0.950 . S
H631 C661 0.950 . S
C632 H614 0.951 . S
C632 C633 1.366 . S
C632 C634 1.388 . S
C633 C632 1.366 . S
C633 C637 1.385 1_655 S
C634 H615 0.951 . S
C634 C632 1.388 . S
C634 C635 1.408 . S
C635 C634 1.408 . S
C635 C636 1.381 1_655 S
C635 C638 1.489 1_655 S
C636 H616 0.950 . S
C636 C635 1.381 1_455 S
C636 C637 1.374 . S
C637 H617 0.950 . S
C637 C633 1.385 1_455 S
C637 C636 1.374 . S
C638 C635 1.489 1_455 S
C638 C639 1.373 1_554 S
C638 C640 1.389 1_455 S
C639 H618 0.950 . S
C639 C638 1.373 1_556 S
C639 C655 1.377 . S
C640 C638 1.389 1_655 S
C640 C641 1.524 . S
C640 C654 1.377 . S
C641 C640 1.524 . S
C641 C642 1.397 . S
C641 C646 1.363 . S
C642 H619 0.950 . S
C642 C641 1.397 . S
C642 C643 1.334 . S
C643 H620 0.950 . S
C643 C642 1.334 . S
C643 C644 1.287 . S
C644 C643 1.287 . S
C644 C645 1.524 . S
C644 H663 0.913 . S
C645 H621 0.950 . S
C645 C644 1.524 . S
C645 C646 1.415 . S
C646 H622 0.950 . S
C646 C641 1.363 . S
C646 C645 1.415 . S
C647 H623 0.951 . S
C647 C648 1.366 . S
C647 C649 1.388 . S
C648 C647 1.366 . S
C648 C652 1.385 1_455 S
C649 H624 0.951 . S
C649 C647 1.388 . S
C649 C650 1.366 . S
C650 C649 1.366 . S
C650 C651 1.414 1_455 S
C650 C653 1.499 . S
C651 H625 0.950 . S
C651 C650 1.414 1_655 S
C651 C652 1.374 . S
C652 H626 0.950 . S
C652 C648 1.385 1_655 S
C652 C651 1.374 . S
C653 C650 1.499 . S
C653 C654 1.373 1_456 S
C653 C655 1.389 . S
C654 H627 0.950 . S
C654 C640 1.377 . S
C654 C653 1.373 1_654 S
C655 C639 1.377 . S
C655 C653 1.389 . S
C655 C656 1.524 . S
C656 C655 1.524 . S
C656 C657 1.397 . S
C656 C661 1.363 . S
C657 H628 0.950 . S
C657 C656 1.397 . S
C657 C658 1.334 . S
C658 H629 0.950 . S
C658 C657 1.334 . S
C658 C659 1.287 . S
C659 C658 1.287 . S
C659 C660 1.524 . S
C659 H662 0.999 . S
C660 H630 0.950 . S
C660 C659 1.524 . S
C660 C661 1.415 . S
C661 H631 0.950 . S
C661 C656 1.363 . S
C661 C660 1.415 . S
H662 C659 0.999 . S
H663 C644 0.913 . S
H664 C682 0.951 . S
H665 C684 0.951 . S
H666 C686 0.950 . S
H667 C687 0.964 . S
H668 C689 0.950 . S
H669 C692 0.950 1_655 S
H670 C693 0.950 1_655 S
H671 C695 0.950 . S
H672 C696 0.950 . S
H673 C697 0.951 . S
H674 C699 0.951 . S
H675 C701 0.950 . S
H676 C702 0.950 . S
H677 C704 0.950 . S
H678 C707 0.950 . S
H679 C708 0.950 . S
H680 C710 0.950 1_554 S
H681 C711 0.950 . S
C682 H664 0.951 . S
C682 C683 1.366 . S
C682 C684 1.388 . S
C683 C682 1.366 . S
C683 C687 1.372 1_455 S
C684 H665 0.951 . S
C684 C682 1.388 . S
C684 C685 1.366 . S
C685 C684 1.366 . S
C685 C686 1.414 1_455 S
C685 C688 1.499 . S
C686 H666 0.950 . S
C686 C685 1.414 1_655 S
C686 C687 1.373 . S
C687 H667 0.964 . S
C687 C683 1.372 1_655 S
C687 C686 1.373 . S
C688 C685 1.499 . S
C688 C689 1.373 . S
C688 C690 1.389 . S
C689 H668 0.950 . S
C689 C688 1.373 . S
C689 C705 1.377 . S
C690 C688 1.389 . S
C690 C691 1.524 . S
C690 C704 1.377 . S
C691 C690 1.524 . S
C691 C692 1.397 . S
C691 C696 1.363 . S
C692 H669 0.950 1_455 S
C692 C691 1.397 . S
C692 C693 1.334 . S
C693 H670 0.950 1_455 S
C693 C692 1.334 . S
C693 C694 1.287 . S
C694 C693 1.287 . S
C694 C695 1.524 . S
C694 H713 0.913 . S
C695 H671 0.950 . S
C695 C694 1.524 . S
C695 C696 1.415 . S
C696 H672 0.950 . S
C696 C691 1.363 . S
C696 C695 1.415 . S
C697 H673 0.951 . S
C697 C698 1.366 1_655 S
C697 C699 1.388 . S
C698 C697 1.366 1_455 S
C698 C702 1.385 . S
C699 H674 0.951 . S
C699 C697 1.388 . S
C699 C700 1.366 1_655 S
C700 C699 1.366 1_455 S
C700 C701 1.414 . S
C700 C703 1.499 . S
C701 H675 0.950 . S
C701 C700 1.414 . S
C701 C702 1.374 . S
C702 H676 0.950 . S
C702 C698 1.385 . S
C702 C701 1.374 . S
C703 C700 1.499 . S
C703 C704 1.373 . S
C703 C705 1.389 . S
C704 H677 0.950 . S
C704 C690 1.377 . S
C704 C703 1.373 . S
C705 C689 1.377 . S
C705 C703 1.389 . S
C705 C706 1.524 . S
C706 C705 1.524 . S
C706 C707 1.397 . S
C706 C711 1.363 1_455 S
C707 H678 0.950 . S
C707 C706 1.397 . S
C707 C708 1.334 . S
C708 H679 0.950 . S
C708 C707 1.334 . S
C708 C709 1.287 1_556 S
C709 C708 1.287 1_554 S
C709 C710 1.524 1_454 S
C709 H712 1.001 . S
C710 H680 0.950 1_556 S
C710 C709 1.524 1_656 S
C710 C711 1.415 . S
C711 H681 0.950 . S
C711 C706 1.363 1_655 S
C711 C710 1.415 . S
H712 C709 1.001 . S
H713 C694 0.913 . S
H714 C732 0.951 . S
H715 C734 0.951 . S
H716 C736 0.950 . S
H717 C737 0.950 . S
H718 C739 0.950 . S
H719 C742 0.950 . S
H720 C743 0.950 . S
H721 C745 0.950 . S
H722 C746 0.950 . S
H723 C747 0.951 . S
H724 C749 0.951 . S
H725 C751 0.950 . S
H726 C752 0.950 . S
H727 C754 0.950 . S
H728 C757 0.950 . S
H729 C758 0.950 . S
H730 C760 0.950 . S
H731 C761 0.950 . S
C732 H714 0.951 . S
C732 C733 1.366 . S
C732 C734 1.388 . S
C733 C732 1.366 . S
C733 C737 1.385 . S
C734 H715 0.951 . S
C734 C732 1.388 . S
C734 C735 1.366 . S
C735 C734 1.366 . S
C735 C736 1.414 . S
C735 C738 1.499 . S
C736 H716 0.950 . S
C736 C735 1.414 . S
C736 C737 1.374 . S
C737 H717 0.950 . S
C737 C733 1.385 . S
C737 C736 1.374 . S
C738 C735 1.499 . S
C738 C739 1.373 . S
C738 C740 1.389 . S
C739 H718 0.950 . S
C739 C738 1.373 . S
C739 C755 1.377 . S
C740 C738 1.389 . S
C740 C741 1.524 . S
C740 C754 1.377 . S
C741 C740 1.524 . S
C741 C742 1.397 . S
C741 C746 1.363 . S
C742 H719 0.950 . S
C742 C741 1.397 . S
C742 C743 1.334 . S
C743 H720 0.950 . S
C743 C742 1.334 . S
C743 C744 1.287 . S
C744 C743 1.287 . S
C744 C745 1.524 . S
C744 H763 0.913 . S
C745 H721 0.950 . S
C745 C744 1.524 . S
C745 C746 1.415 . S
C746 H722 0.950 . S
C746 C741 1.363 . S
C746 C745 1.415 . S
C747 H723 0.951 . S
C747 C748 1.366 . S
C747 C749 1.388 . S
C748 C747 1.366 . S
C748 C752 1.385 . S
C749 H724 0.951 . S
C749 C747 1.388 . S
C749 C750 1.366 . S
C750 C749 1.366 . S
C750 C751 1.414 . S
C750 C753 1.499 . S
C751 H725 0.950 . S
C751 C750 1.414 . S
C751 C752 1.374 . S
C752 H726 0.950 . S
C752 C748 1.385 . S
C752 C751 1.374 . S
C753 C750 1.499 . S
C753 C754 1.373 . S
C753 C755 1.389 . S
C754 H727 0.950 . S
C754 C740 1.377 . S
C754 C753 1.373 . S
C755 C739 1.377 . S
C755 C753 1.389 . S
C755 C756 1.524 . S
C756 C755 1.524 . S
C756 C757 1.397 . S
C756 C761 1.363 . S
C757 H728 0.950 . S
C757 C756 1.397 . S
C757 C758 1.334 . S
C758 H729 0.950 . S
C758 C757 1.334 . S
C758 C759 1.287 1_556 S
C759 C758 1.287 1_554 S
C759 C760 1.524 . S
C759 H762 0.999 . S
C760 H730 0.950 . S
C760 C759 1.524 . S
C760 C761 1.415 1_554 S
C761 H731 0.950 . S
C761 C756 1.363 . S
C761 C760 1.415 1_556 S
H762 C759 0.999 . S
H763 C744 0.913 . S
H764 C782 0.951 . S
H765 C784 0.951 . S
H766 C786 0.950 . S
H767 C787 0.950 . S
H768 C789 0.950 . S
H769 C792 0.950 . S
H770 C793 0.950 . S
H771 C795 0.950 . S
H772 C796 0.950 . S
H773 C797 0.951 . S
H774 C799 0.951 . S
H775 C801 0.950 . S
H776 C802 0.950 . S
H777 C804 0.950 . S
H778 C807 0.950 . S
H779 C808 0.950 . S
H780 C810 0.950 . S
H781 C811 0.950 . S
C782 H764 0.951 . S
C782 C783 1.366 . S
C782 C784 1.388 . S
C783 C782 1.366 . S
C783 C787 1.385 . S
C784 H765 0.951 . S
C784 C782 1.388 . S
C784 C785 1.366 . S
C785 C784 1.366 . S
C785 C786 1.414 . S
C785 C788 1.499 . S
C786 H766 0.950 . S
C786 C785 1.414 . S
C786 C787 1.374 . S
C787 H767 0.950 . S
C787 C783 1.385 . S
C787 C786 1.374 . S
C788 C785 1.499 . S
C788 C789 1.373 . S
C788 C790 1.389 . S
C789 H768 0.950 . S
C789 C788 1.373 . S
C789 C805 1.377 . S
C790 C788 1.389 . S
C790 C791 1.524 . S
C790 C804 1.377 . S
C791 C790 1.524 . S
C791 C792 1.397 . S
C791 C796 1.363 . S
C792 H769 0.950 . S
C792 C791 1.397 . S
C792 C793 1.334 . S
C793 H770 0.950 . S
C793 C792 1.334 . S
C793 C794 1.287 . S
C794 C793 1.287 . S
C794 C795 1.524 . S
C794 H813 0.913 . S
C795 H771 0.950 . S
C795 C794 1.524 . S
C795 C796 1.415 . S
C796 H772 0.950 . S
C796 C791 1.363 . S
C796 C795 1.415 . S
C797 H773 0.951 . S
C797 C798 1.366 . S
C797 C799 1.388 . S
C798 C797 1.366 . S
C798 C802 1.385 . S
C799 H774 0.951 . S
C799 C797 1.388 . S
C799 C800 1.366 . S
C800 C799 1.366 . S
C800 C801 1.414 . S
C800 C803 1.499 . S
C801 H775 0.950 . S
C801 C800 1.414 . S
C801 C802 1.374 . S
C802 H776 0.950 . S
C802 C798 1.385 . S
C802 C801 1.374 . S
C803 C800 1.499 . S
C803 C804 1.373 . S
C803 C805 1.389 . S
C804 H777 0.950 . S
C804 C790 1.377 . S
C804 C803 1.373 . S
C805 C789 1.377 . S
C805 C803 1.389 . S
C805 C806 1.524 . S
C806 C805 1.524 . S
C806 C807 1.397 . S
C806 C811 1.363 . S
C807 H778 0.950 . S
C807 C806 1.397 . S
C807 C808 1.334 . S
C808 H779 0.950 . S
C808 C807 1.334 . S
C808 C809 1.287 . S
C809 C808 1.287 . S
C809 C810 1.524 . S
C809 H812 0.999 . S
C810 H780 0.950 . S
C810 C809 1.524 . S
C810 C811 1.415 . S
C811 H781 0.950 . S
C811 C806 1.363 . S
C811 C810 1.415 . S
H812 C809 0.999 . S
H813 C794 0.913 . S
H814 C832 0.951 . S
H815 C834 0.951 . S
H816 C836 0.950 . S
H817 C837 0.950 . S
H818 C839 0.950 . S
H819 C842 0.950 . S
H820 C843 0.950 1_554 S
H821 C845 0.950 . S
H822 C846 0.950 . S
H823 C847 0.951 . S
H824 C849 0.951 . S
H825 C851 0.950 . S
H826 C852 0.950 . S
H827 C854 0.950 . S
H828 C857 0.950 . S
H829 C858 0.950 . S
H830 C860 0.950 . S
H831 C861 0.950 . S
C832 H814 0.951 . S
C832 C833 1.366 . S
C832 C834 1.388 . S
C833 C832 1.366 . S
C833 C837 1.385 . S
C834 H815 0.951 . S
C834 C832 1.388 . S
C834 C835 1.366 . S
C835 C834 1.366 . S
C835 C836 1.414 . S
C835 C838 1.499 . S
C836 H816 0.950 . S
C836 C835 1.414 . S
C836 C837 1.374 . S
C837 H817 0.950 . S
C837 C833 1.385 . S
C837 C836 1.374 . S
C838 C835 1.499 . S
C838 C839 1.373 . S
C838 C840 1.389 . S
C839 H818 0.950 . S
C839 C838 1.373 . S
C839 C855 1.377 . S
C840 C838 1.389 . S
C840 C841 1.524 . S
C840 C854 1.377 . S
C841 C840 1.524 . S
C841 C842 1.397 . S
C841 C846 1.363 . S
C842 H819 0.950 . S
C842 C841 1.397 . S
C842 C843 1.334 . S
C843 H820 0.950 1_556 S
C843 C842 1.334 . S
C843 C844 1.287 . S
C844 C843 1.287 . S
C844 C845 1.524 . S
C844 H863 0.913 1_556 S
C845 H821 0.950 . S
C845 C844 1.524 . S
C845 C846 1.415 . S
C846 H822 0.950 . S
C846 C841 1.363 . S
C846 C845 1.415 . S
C847 H823 0.951 . S
C847 C848 1.366 . S
C847 C849 1.388 . S
C848 C847 1.366 . S
C848 C852 1.385 . S
C849 H824 0.951 . S
C849 C847 1.388 . S
C849 C850 1.366 . S
C850 C849 1.366 . S
C850 C851 1.414 . S
C850 C853 1.499 . S
C851 H825 0.950 . S
C851 C850 1.414 . S
C851 C852 1.374 . S
C852 H826 0.950 . S
C852 C848 1.385 . S
C852 C851 1.374 . S
C853 C850 1.499 . S
C853 C854 1.373 . S
C853 C855 1.389 . S
C854 H827 0.950 . S
C854 C840 1.377 . S
C854 C853 1.373 . S
C855 C839 1.377 . S
C855 C853 1.389 . S
C855 C856 1.524 . S
C856 C855 1.524 . S
C856 C857 1.397 . S
C856 C861 1.363 . S
C857 H828 0.950 . S
C857 C856 1.397 . S
C857 C858 1.334 . S
C858 H829 0.950 . S
C858 C857 1.334 . S
C858 C859 1.287 . S
C859 C858 1.287 . S
C859 C860 1.524 . S
C859 H862 0.999 . S
C860 H830 0.950 . S
C860 C859 1.524 . S
C860 C861 1.415 . S
C861 H831 0.950 . S
C861 C856 1.363 . S
C861 C860 1.415 . S
H862 C859 0.999 . S
H863 C844 0.913 1_554 S
H864 C882 0.951 . S
H865 C884 0.951 . S
H866 C886 0.950 . S
H867 C887 0.958 . S
H868 C889 0.952 . S
H869 C892 0.950 . S
H870 C893 0.950 . S
H871 C895 0.950 . S
H872 C896 0.950 . S
H873 C897 0.951 . S
H874 C899 0.951 . S
H875 C901 0.950 1_554 S
H876 C902 0.950 . S
H877 C904 0.950 . S
H878 C907 0.950 . S
H879 C908 0.950 . S
H880 C910 0.949 . S
H881 C911 0.950 . S
C882 H864 0.951 . S
C882 C883 1.366 1_455 S
C882 C884 1.388 . S
C883 C882 1.366 1_655 S
C883 C887 1.376 1_554 S
C884 H865 0.951 . S
C884 C882 1.388 . S
C884 C885 1.366 1_455 S
C885 C884 1.366 1_655 S
C885 C886 1.414 1_554 S
C885 C888 1.499 1_554 S
C886 H866 0.950 . S
C886 C885 1.414 1_556 S
C886 C887 1.375 . S
C887 H867 0.958 . S
C887 C883 1.376 1_556 S
C887 C886 1.375 . S
C888 C885 1.499 1_556 S
C888 C889 1.372 1_655 S
C888 C890 1.387 1_556 S
C889 H868 0.952 . S
C889 C888 1.372 1_455 S
C889 C905 1.377 . S
C890 C888 1.387 1_554 S
C890 C891 1.533 . S
C890 C904 1.378 1_655 S
C891 C890 1.533 . S
C891 C892 1.397 . S
C891 C896 1.363 1_655 S
C892 H869 0.950 . S
C892 C891 1.397 . S
C892 C893 1.334 . S
C893 H870 0.950 . S
C893 C892 1.334 . S
C893 C894 1.287 . S
C894 C893 1.287 . S
C894 C895 1.524 1_655 S
C894 H913 0.913 . S
C895 H871 0.950 . S
C895 C894 1.524 1_455 S
C895 C896 1.415 . S
C896 H872 0.950 . S
C896 C891 1.363 1_455 S
C896 C895 1.415 . S
C897 H873 0.951 . S
C897 C898 1.366 1_655 S
C897 C899 1.388 . S
C898 C897 1.366 1_455 S
C898 C902 1.385 . S
C899 H874 0.951 . S
C899 C897 1.388 . S
C899 C900 1.366 1_655 S
C900 C899 1.366 1_455 S
C900 C901 1.414 . S
C900 C903 1.499 . S
C901 H875 0.950 1_556 S
C901 C900 1.414 . S
C901 C902 1.374 . S
C902 H876 0.950 . S
C902 C898 1.385 . S
C902 C901 1.374 . S
C903 C900 1.499 . S
C903 C904 1.373 1_556 S
C903 C905 1.389 . S
C904 H877 0.950 . S
C904 C890 1.378 1_455 S
C904 C903 1.373 1_554 S
C905 C889 1.377 . S
C905 C903 1.389 . S
C905 C906 1.524 . S
C906 C905 1.524 . S
C906 C907 1.397 . S
C906 C911 1.363 1_455 S
C907 H878 0.950 . S
C907 C906 1.397 . S
C907 C908 1.334 . S
C908 H879 0.950 . S
C908 C907 1.334 . S
C908 C909 1.287 . S
C909 C908 1.287 . S
C909 C910 1.525 1_455 S
C909 H912 0.999 . S
C910 H880 0.949 . S
C910 C909 1.525 1_655 S
C910 C911 1.415 . S
C911 H881 0.950 . S
C911 C906 1.363 1_655 S
C911 C910 1.415 . S
H912 C909 0.999 . S
H913 C894 0.913 . S
H914 C932 0.951 . S
H915 C934 0.951 . S
H916 C936 0.953 1_556 S
H917 C937 0.950 . S
H918 C939 0.950 . S
H919 C942 0.950 . S
H920 C943 0.950 . S
H921 C945 0.950 . S
H922 C946 0.950 . S
H923 C947 0.951 . S
H924 C949 0.951 . S
H925 C951 0.950 . S
H926 C952 0.950 . S
H927 C954 0.950 . S
H928 C957 0.950 . S
H929 C958 0.950 . S
H930 C960 0.950 . S
H931 C961 0.953 . S
C932 H914 0.951 . S
C932 C933 1.366 . S
C932 C934 1.388 1_554 S
C933 C932 1.366 . S
C933 C937 1.385 . S
C934 H915 0.951 . S
C934 C932 1.388 1_556 S
C934 C935 1.366 . S
C935 C934 1.366 . S
C935 C936 1.414 1_556 S
C935 C938 1.499 . S
C936 H916 0.953 1_554 S
C936 C935 1.414 1_554 S
C936 C937 1.374 . S
C937 H917 0.950 . S
C937 C933 1.385 . S
C937 C936 1.374 . S
C938 C935 1.499 . S
C938 C939 1.373 1_556 S
C938 C940 1.389 . S
C939 H918 0.950 . S
C939 C938 1.373 1_554 S
C939 C955 1.377 1_554 S
C940 C938 1.389 . S
C940 C941 1.524 . S
C940 C954 1.377 . S
C941 C940 1.524 . S
C941 C942 1.397 . S
C941 C946 1.363 . S
C942 H919 0.950 . S
C942 C941 1.397 . S
C942 C943 1.334 . S
C943 H920 0.950 . S
C943 C942 1.334 . S
C943 C944 1.287 . S
C944 C943 1.287 . S
C944 C945 1.524 . S
C944 H963 0.913 . S
C945 H921 0.950 . S
C945 C944 1.524 . S
C945 C946 1.415 . S
C946 H922 0.950 . S
C946 C941 1.363 . S
C946 C945 1.415 . S
C947 H923 0.951 . S
C947 C948 1.348 1_545 S
C947 C949 1.388 . S
C948 C947 1.348 1_565 S
C948 C952 1.424 . S
C949 H924 0.951 . S
C949 C947 1.388 . S
C949 C950 1.366 1_545 S
C950 C949 1.366 1_565 S
C950 C951 1.414 . S
C950 C953 1.499 . S
C951 H925 0.950 . S
C951 C950 1.414 . S
C951 C952 1.374 . S
C952 H926 0.950 . S
C952 C948 1.424 . S
C952 C951 1.374 . S
C953 C950 1.499 . S
C953 C954 1.373 . S
C953 C955 1.389 . S
C954 H927 0.950 . S
C954 C940 1.377 . S
C954 C953 1.373 . S
C955 C939 1.377 1_556 S
C955 C953 1.389 . S
C955 C956 1.524 1_556 S
C956 C955 1.524 1_554 S
C956 C957 1.397 . S
C956 C961 1.326 1_565 S
C957 H928 0.950 . S
C957 C956 1.397 . S
C957 C958 1.334 . S
C958 H929 0.950 . S
C958 C957 1.334 . S
C958 C959 1.287 1_565 S
C959 C958 1.287 1_545 S
C959 C960 1.524 . S
C959 H962 0.999 . S
C960 H930 0.950 . S
C960 C959 1.524 . S
C960 C961 1.452 . S
C961 H931 0.953 . S
C961 C956 1.326 1_545 S
C961 C960 1.452 . S
H962 C959 0.999 . S
H963 C944 0.913 . S
H964 C982 0.951 . S
H965 C984 0.951 . S
H966 C986 0.950 . S
H967 C987 0.950 . S
H968 C989 0.950 . S
H969 C992 0.950 . S
H970 C993 0.950 . S
H971 C995 0.950 . S
H972 C996 0.950 . S
H973 C997 0.951 . S
H974 C999 0.951 . S
H975 C1001 0.950 . S
H976 C1002 0.950 . S
H977 C1004 0.950 . S
H978 C1007 0.950 . S
H979 C1008 0.950 . S
H980 C1010 0.950 . S
H981 C1011 0.950 . S
C982 H964 0.951 . S
C982 C983 1.366 . S
C982 C984 1.388 . S
C983 C982 1.366 . S
C983 C987 1.385 . S
C984 H965 0.951 . S
C984 C982 1.388 . S
C984 C985 1.366 . S
C985 C984 1.366 . S
C985 C986 1.414 . S
C985 C988 1.499 . S
C986 H966 0.950 . S
C986 C985 1.414 . S
C986 C987 1.374 . S
C987 H967 0.950 . S
C987 C983 1.385 . S
C987 C986 1.374 . S
C988 C985 1.499 . S
C988 C989 1.373 . S
C988 C990 1.389 . S
C989 H968 0.950 . S
C989 C988 1.373 . S
C989 C1005 1.377 . S
C990 C988 1.389 . S
C990 C991 1.524 . S
C990 C1004 1.377 . S
C991 C990 1.524 . S
C991 C992 1.397 . S
C991 C996 1.363 . S
C992 H969 0.950 . S
C992 C991 1.397 . S
C992 C993 1.334 . S
C993 H970 0.950 . S
C993 C992 1.334 . S
C993 C994 1.287 . S
C994 C993 1.287 . S
C994 C995 1.524 . S
C994 H1013 0.913 . S
C995 H971 0.950 . S
C995 C994 1.524 . S
C995 C996 1.415 . S
C996 H972 0.950 . S
C996 C991 1.363 . S
C996 C995 1.415 . S
C997 H973 0.951 . S
C997 C998 1.366 . S
C997 C999 1.388 . S
C998 C997 1.366 . S
C998 C1002 1.385 . S
C999 H974 0.951 . S
C999 C997 1.388 . S
C999 C1000 1.366 . S
C1000 C999 1.366 . S
C1000 C1001 1.414 . S
C1000 C1003 1.499 . S
C1001 H975 0.950 . S
C1001 C1000 1.414 . S
C1001 C1002 1.374 . S
C1002 H976 0.950 . S
C1002 C998 1.385 . S
C1002 C1001 1.374 . S
C1003 C1000 1.499 . S
C1003 C1004 1.373 . S
C1003 C1005 1.389 . S
C1004 H977 0.950 . S
C1004 C990 1.377 . S
C1004 C1003 1.373 . S
C1005 C989 1.377 . S
C1005 C1003 1.389 . S
C1005 C1006 1.524 . S
C1006 C1005 1.524 . S
C1006 C1007 1.397 . S
C1006 C1011 1.363 . S
C1007 H978 0.950 . S
C1007 C1006 1.397 . S
C1007 C1008 1.334 1_554 S
C1008 H979 0.950 . S
C1008 C1007 1.334 1_556 S
C1008 C1009 1.287 . S
C1009 C1008 1.287 . S
C1009 C1010 1.524 . S
C1009 H1012 0.999 . S
C1010 H980 0.950 . S
C1010 C1009 1.524 . S
C1010 C1011 1.415 1_556 S
C1011 H981 0.950 . S
C1011 C1006 1.363 . S
C1011 C1010 1.415 1_554 S
H1012 C1009 0.999 . S
H1013 C994 0.913 . S
H1014 C1032 0.951 . S
H1015 C1034 0.951 . S
H1016 C1036 0.950 . S
H1017 C1037 0.950 . S
H1018 C1039 0.950 . S
H1019 C1042 0.950 . S
H1020 C1043 0.950 . S
H1021 C1045 0.950 . S
H1022 C1046 0.950 . S
H1023 C1047 0.951 . S
H1024 C1049 0.951 . S
H1025 C1051 0.950 . S
H1026 C1052 0.950 . S
H1027 C1054 0.950 . S
H1028 C1057 0.950 . S
H1029 C1058 0.950 . S
H1030 C1060 0.950 . S
H1031 C1061 0.950 . S
C1032 H1014 0.951 . S
C1032 C1033 1.366 . S
C1032 C1034 1.388 . S
C1033 C1032 1.366 . S
C1033 C1037 1.385 . S
C1034 H1015 0.951 . S
C1034 C1032 1.388 . S
C1034 C1035 1.366 . S
C1035 C1034 1.366 . S
C1035 C1036 1.414 . S
C1035 C1038 1.499 . S
C1036 H1016 0.950 . S
C1036 C1035 1.414 . S
C1036 C1037 1.374 . S
C1037 H1017 0.950 . S
C1037 C1033 1.385 . S
C1037 C1036 1.374 . S
C1038 C1035 1.499 . S
C1038 C1039 1.373 . S
C1038 C1040 1.389 . S
C1039 H1018 0.950 . S
C1039 C1038 1.373 . S
C1039 C1055 1.377 . S
C1040 C1038 1.389 . S
C1040 C1041 1.524 1_556 S
C1040 C1054 1.377 . S
C1041 C1040 1.524 1_554 S
C1041 C1042 1.397 . S
C1041 C1046 1.363 . S
C1042 H1019 0.950 . S
C1042 C1041 1.397 . S
C1042 C1043 1.334 . S
C1043 H1020 0.950 . S
C1043 C1042 1.334 . S
C1043 C1044 1.287 . S
C1044 C1043 1.287 . S
C1044 C1045 1.524 . S
C1044 H1063 0.913 . S
C1045 H1021 0.950 . S
C1045 C1044 1.524 . S
C1045 C1046 1.415 . S
C1046 H1022 0.950 . S
C1046 C1041 1.363 . S
C1046 C1045 1.415 . S
C1047 H1023 0.951 . S
C1047 C1048 1.366 . S
C1047 C1049 1.388 . S
C1048 C1047 1.366 . S
C1048 C1052 1.385 . S
C1049 H1024 0.951 . S
C1049 C1047 1.388 . S
C1049 C1050 1.366 . S
C1050 C1049 1.366 . S
C1050 C1051 1.414 . S
C1050 C1053 1.499 . S
C1051 H1025 0.950 . S
C1051 C1050 1.414 . S
C1051 C1052 1.374 . S
C1052 H1026 0.950 . S
C1052 C1048 1.385 . S
C1052 C1051 1.374 . S
C1053 C1050 1.499 . S
C1053 C1054 1.373 . S
C1053 C1055 1.389 . S
C1054 H1027 0.950 . S
C1054 C1040 1.377 . S
C1054 C1053 1.373 . S
C1055 C1039 1.377 . S
C1055 C1053 1.389 . S
C1055 C1056 1.524 . S
C1056 C1055 1.524 . S
C1056 C1057 1.397 . S
C1056 C1061 1.363 . S
C1057 H1028 0.950 . S
C1057 C1056 1.397 . S
C1057 C1058 1.334 . S
C1058 H1029 0.950 . S
C1058 C1057 1.334 . S
C1058 C1059 1.287 . S
C1059 C1058 1.287 . S
C1059 C1060 1.524 . S
C1059 H1062 0.999 . S
C1060 H1030 0.950 . S
C1060 C1059 1.524 . S
C1060 C1061 1.415 . S
C1061 H1031 0.950 . S
C1061 C1056 1.363 . S
C1061 C1060 1.415 . S
H1062 C1059 0.999 . S
H1063 C1044 0.913 . S
H1064 C1082 0.951 . S
H1065 C1084 0.951 . S
H1066 C1086 0.950 . S
H1067 C1087 0.950 . S
H1068 C1089 0.950 . S
H1069 C1092 0.950 . S
H1070 C1093 0.950 . S
H1071 C1095 0.950 . S
H1072 C1096 0.950 . S
H1073 C1097 0.951 . S
H1074 C1099 0.951 . S
H1075 C1101 0.950 . S
H1076 C1102 0.950 . S
H1077 C1104 0.950 1_655 S
H1078 C1107 0.950 . S
H1079 C1108 0.950 . S
H1080 C1110 0.950 . S
H1081 C1111 0.950 . S
C1082 H1064 0.951 . S
C1082 C1083 1.366 . S
C1082 C1084 1.388 . S
C1083 C1082 1.366 . S
C1083 C1087 1.385 . S
C1084 H1065 0.951 . S
C1084 C1082 1.388 . S
C1084 C1085 1.366 . S
C1085 C1084 1.366 . S
C1085 C1086 1.414 . S
C1085 C1088 1.499 . S
C1086 H1066 0.950 . S
C1086 C1085 1.414 . S
C1086 C1087 1.374 . S
C1087 H1067 0.950 . S
C1087 C1083 1.385 . S
C1087 C1086 1.374 . S
C1088 C1085 1.499 . S
C1088 C1089 1.373 . S
C1088 C1090 1.389 . S
C1089 H1068 0.950 . S
C1089 C1088 1.373 . S
C1089 C1105 1.377 . S
C1090 C1088 1.389 . S
C1090 C1091 1.524 1_455 S
C1090 C1104 1.377 . S
C1091 C1090 1.524 1_655 S
C1091 C1092 1.397 . S
C1091 C1096 1.363 . S
C1092 H1069 0.950 . S
C1092 C1091 1.397 . S
C1092 C1093 1.334 . S
C1093 H1070 0.950 . S
C1093 C1092 1.334 . S
C1093 C1094 1.287 . S
C1094 C1093 1.287 . S
C1094 C1095 1.524 . S
C1094 H1113 0.913 . S
C1095 H1071 0.950 . S
C1095 C1094 1.524 . S
C1095 C1096 1.415 . S
C1096 H1072 0.950 . S
C1096 C1091 1.363 . S
C1096 C1095 1.415 . S
C1097 H1073 0.951 . S
C1097 C1098 1.366 . S
C1097 C1099 1.388 . S
C1098 C1097 1.366 . S
C1098 C1102 1.385 . S
C1099 H1074 0.951 . S
C1099 C1097 1.388 . S
C1099 C1100 1.366 . S
C1100 C1099 1.366 . S
C1100 C1101 1.414 . S
C1100 C1103 1.499 . S
C1101 H1075 0.950 . S
C1101 C1100 1.414 . S
C1101 C1102 1.374 . S
C1102 H1076 0.950 . S
C1102 C1098 1.385 . S
C1102 C1101 1.374 . S
C1103 C1100 1.499 . S
C1103 C1104 1.373 . S
C1103 C1105 1.389 . S
C1104 H1077 0.950 1_455 S
C1104 C1090 1.377 . S
C1104 C1103 1.373 . S
C1105 C1089 1.377 . S
C1105 C1103 1.389 . S
C1105 C1106 1.524 . S
C1106 C1105 1.524 . S
C1106 C1107 1.397 . S
C1106 C1111 1.363 . S
C1107 H1078 0.950 . S
C1107 C1106 1.397 . S
C1107 C1108 1.334 . S
C1108 H1079 0.950 . S
C1108 C1107 1.334 . S
C1108 C1109 1.287 . S
C1109 C1108 1.287 . S
C1109 C1110 1.524 . S
C1109 H1112 0.999 . S
C1110 H1080 0.950 . S
C1110 C1109 1.524 . S
C1110 C1111 1.415 . S
C1111 H1081 0.950 . S
C1111 C1106 1.363 . S
C1111 C1110 1.415 . S
H1112 C1109 0.999 . S
H1113 C1094 0.913 . S
H1114 C1132 0.951 . S
H1115 C1134 0.951 . S
H1116 C1136 0.950 . S
H1117 C1137 0.950 . S
H1118 C1139 0.950 . S
H1119 C1142 0.950 . S
H1120 C1143 0.950 . S
H1121 C1145 0.950 . S
H1122 C1146 0.950 . S
H1123 C1147 0.951 . S
H1124 C1149 0.951 . S
H1125 C1151 0.950 . S
H1126 C1152 0.950 . S
H1127 C1154 0.950 . S
H1128 C1157 0.950 . S
H1129 C1158 0.950 . S
H1130 C1160 0.950 . S
H1131 C1161 0.950 . S
C1132 H1114 0.951 . S
C1132 C1133 1.366 . S
C1132 C1134 1.388 . S
C1133 C1132 1.366 . S
C1133 C1137 1.385 . S
C1134 H1115 0.951 . S
C1134 C1132 1.388 . S
C1134 C1135 1.366 . S
C1135 C1134 1.366 . S
C1135 C1136 1.414 . S
C1135 C1138 1.499 . S
C1136 H1116 0.950 . S
C1136 C1135 1.414 . S
C1136 C1137 1.374 . S
C1137 H1117 0.950 . S
C1137 C1133 1.385 . S
C1137 C1136 1.374 . S
C1138 C1135 1.499 . S
C1138 C1139 1.373 . S
C1138 C1140 1.389 . S
C1139 H1118 0.950 . S
C1139 C1138 1.373 . S
C1139 C1155 1.377 . S
C1140 C1138 1.389 . S
C1140 C1141 1.524 . S
C1140 C1154 1.377 . S
C1141 C1140 1.524 . S
C1141 C1142 1.397 . S
C1141 C1146 1.363 . S
C1142 H1119 0.950 . S
C1142 C1141 1.397 . S
C1142 C1143 1.334 . S
C1143 H1120 0.950 . S
C1143 C1142 1.334 . S
C1143 C1144 1.287 . S
C1144 C1143 1.287 . S
C1144 C1145 1.524 . S
C1144 H1163 0.913 . S
C1145 H1121 0.950 . S
C1145 C1144 1.524 . S
C1145 C1146 1.415 . S
C1146 H1122 0.950 . S
C1146 C1141 1.363 . S
C1146 C1145 1.415 . S
C1147 H1123 0.951 . S
C1147 C1148 1.366 . S
C1147 C1149 1.388 . S
C1148 C1147 1.366 . S
C1148 C1152 1.385 . S
C1149 H1124 0.951 . S
C1149 C1147 1.388 . S
C1149 C1150 1.366 . S
C1150 C1149 1.366 . S
C1150 C1151 1.414 . S
C1150 C1153 1.499 . S
C1151 H1125 0.950 . S
C1151 C1150 1.414 . S
C1151 C1152 1.374 . S
C1152 H1126 0.950 . S
C1152 C1148 1.385 . S
C1152 C1151 1.374 . S
C1153 C1150 1.499 . S
C1153 C1154 1.373 . S
C1153 C1155 1.389 . S
C1154 H1127 0.950 . S
C1154 C1140 1.377 . S
C1154 C1153 1.373 . S
C1155 C1139 1.377 . S
C1155 C1153 1.389 . S
C1155 C1156 1.524 . S
C1156 C1155 1.524 . S
C1156 C1157 1.397 . S
C1156 C1161 1.363 . S
C1157 H1128 0.950 . S
C1157 C1156 1.397 . S
C1157 C1158 1.334 . S
C1158 H1129 0.950 . S
C1158 C1157 1.334 . S
C1158 C1159 1.287 . S
C1159 C1158 1.287 . S
C1159 C1160 1.524 . S
C1159 H1162 0.999 . S
C1160 H1130 0.950 . S
C1160 C1159 1.524 . S
C1160 C1161 1.415 . S
C1161 H1131 0.950 . S
C1161 C1156 1.363 . S
C1161 C1160 1.415 . S
H1162 C1159 0.999 . S
H1163 C1144 0.913 . S
H1164 C1182 0.951 . S
H1165 C1184 0.951 . S
H1166 C1186 0.950 . S
H1167 C1187 0.950 . S
H1168 C1189 0.950 . S
H1169 C1192 0.950 . S
H1170 C1193 0.950 . S
H1171 C1195 0.950 . S
H1172 C1196 0.950 . S
H1173 C1197 0.951 . S
H1174 C1199 0.951 . S
H1175 C1201 0.950 . S
H1176 C1202 0.950 . S
H1177 C1204 0.950 . S
H1178 C1207 0.950 . S
H1179 C1208 0.950 . S
H1180 C1210 0.950 . S
H1181 C1211 0.944 1_556 S
C1182 H1164 0.951 . S
C1182 C1183 1.366 . S
C1182 C1184 1.388 . S
C1183 C1182 1.366 . S
C1183 C1187 1.385 . S
C1184 H1165 0.951 . S
C1184 C1182 1.388 . S
C1184 C1185 1.366 . S
C1185 C1184 1.366 . S
C1185 C1186 1.414 . S
C1185 C1188 1.499 . S
C1186 H1166 0.950 . S
C1186 C1185 1.414 . S
C1186 C1187 1.374 . S
C1187 H1167 0.950 . S
C1187 C1183 1.385 . S
C1187 C1186 1.374 . S
C1188 C1185 1.499 . S
C1188 C1189 1.373 . S
C1188 C1190 1.389 . S
C1189 H1168 0.950 . S
C1189 C1188 1.373 . S
C1189 C1205 1.377 . S
C1190 C1188 1.389 . S
C1190 C1191 1.524 . S
C1190 C1204 1.377 . S
C1191 C1190 1.524 . S
C1191 C1192 1.397 . S
C1191 C1196 1.363 . S
C1192 H1169 0.950 . S
C1192 C1191 1.397 . S
C1192 C1193 1.334 . S
C1193 H1170 0.950 . S
C1193 C1192 1.334 . S
C1193 C1194 1.287 . S
C1194 C1193 1.287 . S
C1194 C1195 1.524 . S
C1194 H1213 0.913 . S
C1195 H1171 0.950 . S
C1195 C1194 1.524 . S
C1195 C1196 1.415 . S
C1196 H1172 0.950 . S
C1196 C1191 1.363 . S
C1196 C1195 1.415 . S
C1197 H1173 0.951 . S
C1197 C1198 1.366 . S
C1197 C1199 1.388 . S
C1198 C1197 1.366 . S
C1198 C1202 1.385 1_556 S
C1199 H1174 0.951 . S
C1199 C1197 1.388 . S
C1199 C1200 1.366 1_556 S
C1200 C1199 1.366 1_554 S
C1200 C1201 1.414 . S
C1200 C1203 1.499 . S
C1201 H1175 0.950 . S
C1201 C1200 1.414 . S
C1201 C1202 1.374 . S
C1202 H1176 0.950 . S
C1202 C1198 1.385 1_554 S
C1202 C1201 1.374 . S
C1203 C1200 1.499 . S
C1203 C1204 1.373 . S
C1203 C1205 1.389 . S
C1204 H1177 0.950 . S
C1204 C1190 1.377 . S
C1204 C1203 1.373 . S
C1205 C1189 1.377 . S
C1205 C1203 1.389 . S
C1205 C1206 1.524 . S
C1206 C1205 1.524 . S
C1206 C1207 1.397 . S
C1206 C1211 1.372 . S
C1207 H1178 0.950 . S
C1207 C1206 1.397 . S
C1207 C1208 1.334 . S
C1208 H1179 0.950 . S
C1208 C1207 1.334 . S
C1208 C1209 1.287 . S
C1209 C1208 1.287 . S
C1209 C1210 1.524 1_554 S
C1209 H1212 1.000 . S
C1210 H1180 0.950 . S
C1210 C1209 1.524 1_556 S
C1210 C1211 1.413 1_556 S
C1211 H1181 0.944 1_554 S
C1211 C1206 1.372 . S
C1211 C1210 1.413 1_554 S
H1212 C1209 1.000 . S
H1213 C1194 0.913 . S
H1214 C1232 0.951 . S
H1215 C1234 0.951 . S
H1216 C1236 0.950 . S
H1217 C1237 0.950 . S
H1218 C1239 0.950 . S
H1219 C1242 0.950 . S
H1220 C1243 0.950 . S
H1221 C1245 0.950 . S
H1222 C1246 0.950 . S
H1223 C1247 0.951 . S
H1224 C1249 0.951 . S
H1225 C1251 0.950 . S
H1226 C1252 0.950 . S
H1227 C1254 0.950 . S
H1228 C1257 0.950 . S
H1229 C1258 0.950 . S
H1230 C1260 0.950 . S
H1231 C1261 0.950 . S
C1232 H1214 0.951 . S
C1232 C1233 1.366 . S
C1232 C1234 1.388 . S
C1233 C1232 1.366 . S
C1233 C1237 1.385 . S
C1234 H1215 0.951 . S
C1234 C1232 1.388 . S
C1234 C1235 1.366 . S
C1235 C1234 1.366 . S
C1235 C1236 1.414 . S
C1235 C1238 1.499 . S
C1236 H1216 0.950 . S
C1236 C1235 1.414 . S
C1236 C1237 1.374 . S
C1237 H1217 0.950 . S
C1237 C1233 1.385 . S
C1237 C1236 1.374 . S
C1238 C1235 1.499 . S
C1238 C1239 1.373 . S
C1238 C1240 1.389 . S
C1239 H1218 0.950 . S
C1239 C1238 1.373 . S
C1239 C1255 1.377 . S
C1240 C1238 1.389 . S
C1240 C1241 1.524 . S
C1240 C1254 1.377 . S
C1241 C1240 1.524 . S
C1241 C1242 1.397 . S
C1241 C1246 1.363 . S
C1242 H1219 0.950 . S
C1242 C1241 1.397 . S
C1242 C1243 1.334 . S
C1243 H1220 0.950 . S
C1243 C1242 1.334 . S
C1243 C1244 1.287 . S
C1244 C1243 1.287 . S
C1244 C1245 1.524 . S
C1244 H1263 0.913 . S
C1245 H1221 0.950 . S
C1245 C1244 1.524 . S
C1245 C1246 1.415 . S
C1246 H1222 0.950 . S
C1246 C1241 1.363 . S
C1246 C1245 1.415 . S
C1247 H1223 0.951 . S
C1247 C1248 1.366 . S
C1247 C1249 1.388 . S
C1248 C1247 1.366 . S
C1248 C1252 1.385 . S
C1249 H1224 0.951 . S
C1249 C1247 1.388 . S
C1249 C1250 1.366 . S
C1250 C1249 1.366 . S
C1250 C1251 1.414 . S
C1250 C1253 1.499 . S
C1251 H1225 0.950 . S
C1251 C1250 1.414 . S
C1251 C1252 1.374 . S
C1252 H1226 0.950 . S
C1252 C1248 1.385 . S
C1252 C1251 1.374 . S
C1253 C1250 1.499 . S
C1253 C1254 1.373 . S
C1253 C1255 1.389 . S
C1254 H1227 0.950 . S
C1254 C1240 1.377 . S
C1254 C1253 1.373 . S
C1255 C1239 1.377 . S
C1255 C1253 1.389 . S
C1255 C1256 1.524 . S
C1256 C1255 1.524 . S
C1256 C1257 1.397 . S
C1256 C1261 1.363 . S
C1257 H1228 0.950 . S
C1257 C1256 1.397 . S
C1257 C1258 1.334 . S
C1258 H1229 0.950 . S
C1258 C1257 1.334 . S
C1258 C1259 1.287 . S
C1259 C1258 1.287 . S
C1259 C1260 1.524 . S
C1259 H1262 0.999 . S
C1260 H1230 0.950 . S
C1260 C1259 1.524 . S
C1260 C1261 1.415 . S
C1261 H1231 0.950 . S
C1261 C1256 1.363 . S
C1261 C1260 1.415 . S
H1262 C1259 0.999 . S
H1263 C1244 0.913 . S
H1264 C1282 0.951 . S
H1265 C1284 0.951 . S
H1266 C1286 0.950 . S
H1267 C1287 0.950 . S
H1268 C1289 0.950 . S
H1269 C1292 0.950 . S
H1270 C1293 0.950 . S
H1271 C1295 0.950 . S
H1272 C1296 0.950 . S
H1273 C1297 0.951 . S
H1274 C1299 0.951 . S
H1275 C1301 0.950 . S
H1276 C1302 0.950 . S
H1277 C1304 0.950 . S
H1278 C1307 0.950 . S
H1279 C1308 0.950 . S
H1280 C1310 0.950 . S
H1281 C1311 0.950 . S
C1282 H1264 0.951 . S
C1282 C1283 1.366 1_455 S
C1282 C1284 1.388 . S
C1283 C1282 1.366 1_655 S
C1283 C1287 1.385 . S
C1284 H1265 0.951 . S
C1284 C1282 1.388 . S
C1284 C1285 1.366 1_455 S
C1285 C1284 1.366 1_655 S
C1285 C1286 1.414 . S
C1285 C1288 1.499 . S
C1286 H1266 0.950 . S
C1286 C1285 1.414 . S
C1286 C1287 1.374 . S
C1287 H1267 0.950 . S
C1287 C1283 1.385 . S
C1287 C1286 1.374 . S
C1288 C1285 1.499 . S
C1288 C1289 1.373 . S
C1288 C1290 1.389 . S
C1289 H1268 0.950 . S
C1289 C1288 1.373 . S
C1289 C1305 1.377 . S
C1290 C1288 1.389 . S
C1290 C1291 1.524 . S
C1290 C1304 1.377 . S
C1291 C1290 1.524 . S
C1291 C1292 1.397 . S
C1291 C1296 1.363 1_655 S
C1292 H1269 0.950 . S
C1292 C1291 1.397 . S
C1292 C1293 1.334 . S
C1293 H1270 0.950 . S
C1293 C1292 1.334 . S
C1293 C1294 1.287 . S
C1294 C1293 1.287 . S
C1294 C1295 1.524 1_655 S
C1294 H1313 0.913 . S
C1295 H1271 0.950 . S
C1295 C1294 1.524 1_455 S
C1295 C1296 1.415 . S
C1296 H1272 0.950 . S
C1296 C1291 1.363 1_455 S
C1296 C1295 1.415 . S
C1297 H1273 0.951 . S
C1297 C1298 1.366 . S
C1297 C1299 1.388 . S
C1298 C1297 1.366 . S
C1298 C1302 1.385 1_655 S
C1299 H1274 0.951 . S
C1299 C1297 1.388 . S
C1299 C1300 1.366 . S
C1300 C1299 1.366 . S
C1300 C1301 1.414 1_655 S
C1300 C1303 1.499 . S
C1301 H1275 0.950 . S
C1301 C1300 1.414 1_455 S
C1301 C1302 1.374 . S
C1302 H1276 0.950 . S
C1302 C1298 1.385 1_455 S
C1302 C1301 1.374 . S
C1303 C1300 1.499 . S
C1303 C1304 1.373 . S
C1303 C1305 1.389 . S
C1304 H1277 0.950 . S
C1304 C1290 1.377 . S
C1304 C1303 1.373 . S
C1305 C1289 1.377 . S
C1305 C1303 1.389 . S
C1305 C1306 1.524 . S
C1306 C1305 1.524 . S
C1306 C1307 1.397 1_655 S
C1306 C1311 1.363 . S
C1307 H1278 0.950 . S
C1307 C1306 1.397 1_455 S
C1307 C1308 1.334 . S
C1308 H1279 0.950 . S
C1308 C1307 1.334 . S
C1308 C1309 1.287 1_455 S
C1309 C1308 1.287 1_655 S
C1309 C1310 1.524 . S
C1309 H1312 0.994 . S
C1310 H1280 0.950 . S
C1310 C1309 1.524 . S
C1310 C1311 1.415 . S
C1311 H1281 0.950 . S
C1311 C1306 1.363 . S
C1311 C1310 1.415 . S
H1312 C1309 0.994 . S
H1313 C1294 0.913 . S
H1314 C1332 0.951 . S
H1315 C1334 0.951 . S
H1316 C1336 0.950 . S
H1317 C1337 0.950 . S
H1318 C1339 0.950 . S
H1319 C1342 0.950 . S
H1320 C1343 0.950 . S
H1321 C1345 0.950 . S
H1322 C1346 0.950 . S
H1323 C1347 0.951 . S
H1324 C1349 0.951 . S
H1325 C1351 0.950 . S
H1326 C1352 0.950 . S
H1327 C1354 0.950 . S
H1328 C1357 0.950 . S
H1329 C1358 0.950 . S
H1330 C1360 0.950 . S
H1331 C1361 0.950 . S
C1332 H1314 0.951 . S
C1332 C1333 1.366 . S
C1332 C1334 1.388 . S
C1333 C1332 1.366 . S
C1333 C1337 1.385 . S
C1334 H1315 0.951 . S
C1334 C1332 1.388 . S
C1334 C1335 1.366 . S
C1335 C1334 1.366 . S
C1335 C1336 1.414 . S
C1335 C1338 1.499 . S
C1336 H1316 0.950 . S
C1336 C1335 1.414 . S
C1336 C1337 1.374 . S
C1337 H1317 0.950 . S
C1337 C1333 1.385 . S
C1337 C1336 1.374 . S
C1338 C1335 1.499 . S
C1338 C1339 1.373 . S
C1338 C1340 1.389 . S
C1339 H1318 0.950 . S
C1339 C1338 1.373 . S
C1339 C1355 1.377 . S
C1340 C1338 1.389 . S
C1340 C1341 1.524 . S
C1340 C1354 1.377 . S
C1341 C1340 1.524 . S
C1341 C1342 1.397 . S
C1341 C1346 1.363 . S
C1342 H1319 0.950 . S
C1342 C1341 1.397 . S
C1342 C1343 1.334 . S
C1343 H1320 0.950 . S
C1343 C1342 1.334 . S
C1343 C1344 1.287 . S
C1344 C1343 1.287 . S
C1344 C1345 1.524 . S
C1344 H1363 0.913 . S
C1345 H1321 0.950 . S
C1345 C1344 1.524 . S
C1345 C1346 1.415 . S
C1346 H1322 0.950 . S
C1346 C1341 1.363 . S
C1346 C1345 1.415 . S
C1347 H1323 0.951 . S
C1347 C1348 1.366 . S
C1347 C1349 1.388 . S
C1348 C1347 1.366 . S
C1348 C1352 1.385 . S
C1349 H1324 0.951 . S
C1349 C1347 1.388 . S
C1349 C1350 1.366 . S
C1350 C1349 1.366 . S
C1350 C1351 1.414 . S
C1350 C1353 1.499 . S
C1351 H1325 0.950 . S
C1351 C1350 1.414 . S
C1351 C1352 1.374 . S
C1352 H1326 0.950 . S
C1352 C1348 1.385 . S
C1352 C1351 1.374 . S
C1353 C1350 1.499 . S
C1353 C1354 1.373 . S
C1353 C1355 1.389 . S
C1354 H1327 0.950 . S
C1354 C1340 1.377 . S
C1354 C1353 1.373 . S
C1355 C1339 1.377 . S
C1355 C1353 1.389 . S
C1355 C1356 1.524 . S
C1356 C1355 1.524 . S
C1356 C1357 1.397 . S
C1356 C1361 1.363 . S
C1357 H1328 0.950 . S
C1357 C1356 1.397 . S
C1357 C1358 1.334 . S
C1358 H1329 0.950 . S
C1358 C1357 1.334 . S
C1358 C1359 1.287 . S
C1359 C1358 1.287 . S
C1359 C1360 1.524 . S
C1359 H1362 0.999 . S
C1360 H1330 0.950 . S
C1360 C1359 1.524 . S
C1360 C1361 1.415 . S
C1361 H1331 0.950 . S
C1361 C1356 1.363 . S
C1361 C1360 1.415 . S
H1362 C1359 0.999 . S
H1363 C1344 0.913 . S
H1364 C1382 0.951 . S
H1365 C1384 0.951 . S
H1366 C1386 0.950 . S
H1367 C1387 0.950 . S
H1368 C1389 0.950 . S
H1369 C1392 0.950 . S
H1370 C1393 0.950 . S
H1371 C1395 0.950 . S
H1372 C1396 0.950 . S
H1373 C1397 0.951 . S
H1374 C1399 0.951 . S
H1375 C1401 0.950 . S
H1376 C1402 0.950 . S
H1377 C1404 0.950 . S
H1378 C1407 0.950 . S
H1379 C1408 0.950 . S
H1380 C1410 0.950 . S
H1381 C1411 0.950 . S
C1382 H1364 0.951 . S
C1382 C1383 1.366 . S
C1382 C1384 1.388 . S
C1383 C1382 1.366 . S
C1383 C1387 1.385 . S
C1384 H1365 0.951 . S
C1384 C1382 1.388 . S
C1384 C1385 1.366 . S
C1385 C1384 1.366 . S
C1385 C1386 1.414 . S
C1385 C1388 1.499 . S
C1386 H1366 0.950 . S
C1386 C1385 1.414 . S
C1386 C1387 1.374 . S
C1387 H1367 0.950 . S
C1387 C1383 1.385 . S
C1387 C1386 1.374 . S
C1388 C1385 1.499 . S
C1388 C1389 1.373 . S
C1388 C1390 1.389 . S
C1389 H1368 0.950 . S
C1389 C1388 1.373 . S
C1389 C1405 1.377 . S
C1390 C1388 1.389 . S
C1390 C1391 1.524 . S
C1390 C1404 1.377 . S
C1391 C1390 1.524 . S
C1391 C1392 1.397 . S
C1391 C1396 1.363 . S
C1392 H1369 0.950 . S
C1392 C1391 1.397 . S
C1392 C1393 1.334 . S
C1393 H1370 0.950 . S
C1393 C1392 1.334 . S
C1393 C1394 1.287 . S
C1394 C1393 1.287 . S
C1394 C1395 1.524 . S
C1394 H1413 0.913 . S
C1395 H1371 0.950 . S
C1395 C1394 1.524 . S
C1395 C1396 1.415 . S
C1396 H1372 0.950 . S
C1396 C1391 1.363 . S
C1396 C1395 1.415 . S
C1397 H1373 0.951 . S
C1397 C1398 1.366 . S
C1397 C1399 1.388 . S
C1398 C1397 1.366 . S
C1398 C1402 1.385 . S
C1399 H1374 0.951 . S
C1399 C1397 1.388 . S
C1399 C1400 1.366 . S
C1400 C1399 1.366 . S
C1400 C1401 1.414 . S
C1400 C1403 1.499 . S
C1401 H1375 0.950 . S
C1401 C1400 1.414 . S
C1401 C1402 1.374 . S
C1402 H1376 0.950 . S
C1402 C1398 1.385 . S
C1402 C1401 1.374 . S
C1403 C1400 1.499 . S
C1403 C1404 1.373 . S
C1403 C1405 1.389 . S
C1404 H1377 0.950 . S
C1404 C1390 1.377 . S
C1404 C1403 1.373 . S
C1405 C1389 1.377 . S
C1405 C1403 1.389 . S
C1405 C1406 1.524 . S
C1406 C1405 1.524 . S
C1406 C1407 1.397 . S
C1406 C1411 1.363 . S
C1407 H1378 0.950 . S
C1407 C1406 1.397 . S
C1407 C1408 1.334 . S
C1408 H1379 0.950 . S
C1408 C1407 1.334 . S
C1408 C1409 1.287 . S
C1409 C1408 1.287 . S
C1409 C1410 1.524 . S
C1409 H1412 0.999 . S
C1410 H1380 0.950 . S
C1410 C1409 1.524 . S
C1410 C1411 1.415 . S
C1411 H1381 0.950 . S
C1411 C1406 1.363 . S
C1411 C1410 1.415 . S
H1412 C1409 0.999 . S
H1413 C1394 0.913 . S
H1414 C1432 0.951 . S
H1415 C1434 0.951 . S
H1416 C1436 0.950 . S
H1417 C1437 0.950 . S
H1418 C1439 0.950 . S
H1419 C1442 0.950 . S
H1420 C1443 0.950 . S
H1421 C1445 0.950 . S
H1422 C1446 0.950 . S
H1423 C1447 0.951 . S
H1424 C1449 0.951 . S
H1425 C1451 0.950 . S
H1426 C1452 0.950 . S
H1427 C1454 0.950 . S
H1428 C1457 0.950 . S
H1429 C1458 0.950 . S
H1430 C1460 0.950 . S
H1431 C1461 0.950 . S
C1432 H1414 0.951 . S
C1432 C1433 1.366 . S
C1432 C1434 1.388 . S
C1433 C1432 1.366 . S
C1433 C1437 1.385 . S
C1434 H1415 0.951 . S
C1434 C1432 1.388 . S
C1434 C1435 1.366 . S
C1435 C1434 1.366 . S
C1435 C1436 1.414 . S
C1435 C1438 1.499 . S
C1436 H1416 0.950 . S
C1436 C1435 1.414 . S
C1436 C1437 1.374 . S
C1437 H1417 0.950 . S
C1437 C1433 1.385 . S
C1437 C1436 1.374 . S
C1438 C1435 1.499 . S
C1438 C1439 1.373 . S
C1438 C1440 1.389 . S
C1439 H1418 0.950 . S
C1439 C1438 1.373 . S
C1439 C1455 1.377 . S
C1440 C1438 1.389 . S
C1440 C1441 1.524 . S
C1440 C1454 1.377 . S
C1441 C1440 1.524 . S
C1441 C1442 1.397 . S
C1441 C1446 1.363 . S
C1442 H1419 0.950 . S
C1442 C1441 1.397 . S
C1442 C1443 1.334 . S
C1443 H1420 0.950 . S
C1443 C1442 1.334 . S
C1443 C1444 1.287 . S
C1444 C1443 1.287 . S
C1444 C1445 1.524 . S
C1444 H1463 0.913 . S
C1445 H1421 0.950 . S
C1445 C1444 1.524 . S
C1445 C1446 1.415 . S
C1446 H1422 0.950 . S
C1446 C1441 1.363 . S
C1446 C1445 1.415 . S
C1447 H1423 0.951 . S
C1447 C1448 1.366 . S
C1447 C1449 1.388 . S
C1448 C1447 1.366 . S
C1448 C1452 1.385 . S
C1449 H1424 0.951 . S
C1449 C1447 1.388 . S
C1449 C1450 1.366 . S
C1450 C1449 1.366 . S
C1450 C1451 1.414 . S
C1450 C1453 1.499 . S
C1451 H1425 0.950 . S
C1451 C1450 1.414 . S
C1451 C1452 1.374 . S
C1452 H1426 0.950 . S
C1452 C1448 1.385 . S
C1452 C1451 1.374 . S
C1453 C1450 1.499 . S
C1453 C1454 1.373 . S
C1453 C1455 1.389 . S
C1454 H1427 0.950 . S
C1454 C1440 1.377 . S
C1454 C1453 1.373 . S
C1455 C1439 1.377 . S
C1455 C1453 1.389 . S
C1455 C1456 1.524 . S
C1456 C1455 1.524 . S
C1456 C1457 1.397 . S
C1456 C1461 1.363 . S
C1457 H1428 0.950 . S
C1457 C1456 1.397 . S
C1457 C1458 1.334 . S
C1458 H1429 0.950 . S
C1458 C1457 1.334 . S
C1458 C1459 1.287 . S
C1459 C1458 1.287 . S
C1459 C1460 1.524 . S
C1459 H1462 0.999 . S
C1460 H1430 0.950 . S
C1460 C1459 1.524 . S
C1460 C1461 1.415 . S
C1461 H1431 0.950 . S
C1461 C1456 1.363 . S
C1461 C1460 1.415 . S
H1462 C1459 0.999 . S
H1463 C1444 0.913 . S
C283 C82 1.740 . S
C298 C113 1.713 . S
C348 C153 1.314 . S
C333 C95 1.233 . S
C398 C202 1.299 . S
C383 C56 1.326 . S
C448 C233 1.540 . S
C433 C69 1.553 . S
C498 C122 1.714 1_565 S
C483 C30 1.644 . S
C533 C43 1.280 . S
C548 C162 1.315 . S
C583 C4 1.281 . S
C598 C193 1.298 . S
C633 C17 1.535 . S
C648 C242 1.539 . S
C698 C123 0.709 . S
C683 C74 0.722 . S
C748 C163 1.315 . S
C733 C87 1.202 . S
C798 C199 0.609 . S
C783 C100 0.619 . S
C833 C61 0.865 . S
C848 C243 0.909 . S
C883 C22 0.722 . S
C898 C114 0.710 . S
C948 C154 1.295 1_565 S
C933 C35 1.196 . S
C998 C190 0.608 . S
C983 C48 0.617 . S
C1033 C9 0.868 . S
C1048 C234 0.910 . S
C1083 C73 1.621 . S
C1098 C119 1.659 . S
C1133 C86 1.397 . S
C1148 C159 1.411 . S
C1198 C203 1.928 . S
C1183 C99 1.800 . S
C1248 C239 1.428 . S
C1233 C60 1.419 . S
C1283 C21 1.621 . S
C1298 C110 1.659 . S
C1348 C150 1.411 . S
C1333 C34 1.393 . S
C1398 C194 1.929 . S
C1383 C47 1.807 . S
C1433 C8 1.417 . S
C1448 C230 1.425 . S
