# Generated by pormake.
# Topology pyr, (3,6)-cn, num edge types: 1
# Building blocks:
#     Node 0, Type 0, BuildingBlock: VETTIZ_charged_linker_0, # of connection points: 3
#     Node 1, Type 0, BuildingBlock: VETTIZ_charged_linker_0, # of connection points: 3
#     Node 2, Type 0, BuildingBlock: VETTIZ_charged_linker_0, # of connection points: 3
#     Node 3, Type 0, BuildingBlock: VETTIZ_charged_linker_0, # of connection points: 3
#     Node 4, Type 0, BuildingBlock: VETTIZ_charged_linker_0, # of connection points: 3
#     Node 5, Type 0, BuildingBlock: VETTIZ_charged_linker_0, # of connection points: 3
#     Node 6, Type 0, BuildingBlock: VETTIZ_charged_linker_0, # of connection points: 3
#     Node 7, Type 0, BuildingBlock: VETTIZ_charged_linker_0, # of connection points: 3
#     Node 8, Type 1, BuildingBlock: VOLQOD_clean_sbu_1, # of connection points: 6
#     Node 9, Type 1, BuildingBlock: VOLQOD_clean_sbu_1, # of connection points: 6
#     Node 10, Type 1, BuildingBlock: VOLQOD_clean_sbu_1, # of connection points: 6
#     Node 11, Type 1, BuildingBlock: VOLQOD_clean_sbu_1, # of connection points: 6
#     Edge 12, Type (0, 1), None
#     Edge 13, Type (0, 1), None
#     Edge 14, Type (0, 1), None
#     Edge 15, Type (0, 1), None
#     Edge 16, Type (0, 1), None
#     Edge 17, Type (0, 1), None
#     Edge 18, Type (0, 1), None
#     Edge 19, Type (0, 1), None
#     Edge 20, Type (0, 1), None
#     Edge 21, Type (0, 1), None
#     Edge 22, Type (0, 1), None
#     Edge 23, Type (0, 1), None
#     Edge 24, Type (0, 1), None
#     Edge 25, Type (0, 1), None
#     Edge 26, Type (0, 1), None
#     Edge 27, Type (0, 1), None
#     Edge 28, Type (0, 1), None
#     Edge 29, Type (0, 1), None
#     Edge 30, Type (0, 1), None
#     Edge 31, Type (0, 1), None
#     Edge 32, Type (0, 1), None
#     Edge 33, Type (0, 1), None
#     Edge 34, Type (0, 1), None
#     Edge 35, Type (0, 1), None
# Relax obj value: 0.035
# Max RMSD: 0.118
# Mean RMSD: 0.042
data_MOF--net-pry--node1-VOLQOD_clean_sbu_1--node2-VETTIZ_charged_linker_0--edge1-none
_symmetry_space_group_name_H-M    P1
_symmetry_Int_Tables_number       1
_symmetry_cell_setting            triclinic
loop_
_symmetry_equiv_pos_as_xyz
'x, y, z'
_cell_length_a     25.318956
_cell_length_b     25.336995
_cell_length_c     25.476057
_cell_angle_alpha  89.904522
_cell_angle_beta   90.070973
_cell_angle_gamma 90.015714
loop_
_atom_site_label
_atom_site_type_symbol
_atom_site_fract_x
_atom_site_fract_y
_atom_site_fract_z
_atom_type_partial_charge
C0 C 0.08626 0.0331 0.28994 0.0
C1 C 0.0425 0.05158 0.31796 0.0
C2 C 0.00907 0.08963 0.29521 0.0
C3 C 0.06655 0.09468 0.21948 0.0
C4 C 0.09689 0.05441 0.24034 0.0
C5 C 0.14109 0.03846 0.20446 0.0
H6 H 0.30003 0.09875 0.00208 0.0
C7 C 0.09098 0.11146 0.1696 0.0
C8 C 0.13377 0.07765 0.1598 0.0
H9 H 0.30837 0.96481 0.10746 0.0
H10 H 0.22457 0.98822 0.14457 0.0
H11 H 0.25988 0.18082 0.08634 0.0
H12 H 0.1759 0.08534 0.97469 0.0
H13 H 0.13958 0.14409 0.9803 0.0
H14 H 0.2066 0.1463 0.95596 0.0
H15 H 0.2629 0.19081 0.01661 0.0
H16 H 0.21233 0.22094 0.05577 0.0
C17 C 0.19383 0.04714 0.23415 0.0
C18 C 0.13146 0.9807 0.18656 0.0
C19 C 0.03854 0.28701 0.08735 0.0
C20 C 0.0592 0.31575 0.04473 0.0
C21 C 0.09795 0.292 0.01275 0.0
C22 C 0.11762 0.24181 0.02436 0.0
C23 C 0.09903 0.215 0.06881 0.0
C24 C 0.05907 0.23679 0.09866 0.0
C25 C 0.04357 0.20153 0.14373 0.0
C26 C 0.08211 0.15597 0.13676 0.0
C27 C 0.11489 0.16463 0.09314 0.0
C28 C 0.0535 0.2322 0.19533 0.0
C29 C 0.98548 0.18388 0.13582 0.0
C30 C 0.28334 0.074 0.03255 0.0
C31 C 0.31148 0.03053 0.05254 0.0
C32 C 0.28808 -0.0009 0.09193 0.0
C33 C 0.23938 0.01281 0.11368 0.0
C34 C 0.21386 0.05874 0.09642 0.0
C35 C 0.23465 0.08737 0.05513 0.0
C36 C 0.20123 0.13464 0.04181 0.0
C37 C 0.15761 0.12992 0.08261 0.0
C38 C 0.16606 0.086 0.11509 0.0
C39 C 0.23555 0.18465 0.05012 0.0
C40 C 0.17984 0.12778 0.98518 0.0
H41 H 0.99494 0.14128 0.23103 0.0
H42 H 0.11178 0.00304 0.3065 0.0
H43 H 0.08938 0.96886 0.19111 0.0
H44 H 0.13988 0.97509 0.14426 0.0
H45 H 0.1556 0.95247 0.2098 0.0
H46 H 0.19395 0.08626 0.25394 0.0
H47 H 0.19967 0.01637 0.26472 0.0
H48 H 0.2287 0.04709 0.20836 0.0
H49 H 0.00823 0.30374 0.11223 0.0
H50 H 0.11402 0.31264 0.9791 0.0
H51 H 0.14762 0.22644 -0.00102 0.0
H52 H 0.09347 0.25046 0.19498 0.0
H53 H 0.02404 0.2643 0.20023 0.0
H54 H 0.05207 0.20716 0.23063 0.0
H55 H 0.97393 0.18493 0.09367 0.0
H56 H 0.97893 0.14243 0.14803 0.0
H57 H 0.95778 0.20991 0.15749 0.0
H58 H 0.97495 0.104 0.31648 0.0
C59 C 0.02094 0.11141 0.24601 0.0
C60 C 0.22439 0.92813 0.54276 0.0
C61 C 0.1961 0.97138 0.56217 0.0
C62 C 0.21884 0.00389 0.60073 0.0
C63 C 0.2956 0.94697 0.60385 0.0
C64 C 0.27444 0.91718 0.56356 0.0
C65 C 0.31056 0.87318 0.54706 0.0
H66 H 0.5174 0.71609 0.60331 0.0
C67 C 0.3462 0.92271 0.61957 0.0
C68 C 0.35592 0.88027 0.58557 0.0
H69 H 0.4085 0.70606 0.4726 0.0
H70 H 0.37035 0.78932 0.49656 0.0
H71 H 0.54226 0.84132 0.58925 0.0
H72 H 0.4342 0.75424 0.68643 0.0
H73 H 0.46389 0.80272 0.7258 0.0
H74 H 0.50453 0.7533 0.69552 0.0
H75 H 0.5634 0.8095 0.64859 0.0
H76 H 0.53807 0.87621 0.6486 0.0
C77 C 0.32795 0.88319 0.4895 0.0
C78 C 0.28094 0.82036 0.55574 0.0
C79 C 0.43197 0.97612 0.79196 0.0
C80 C 0.47523 0.95561 0.82005 0.0
C81 C 0.50744 0.91716 0.79608 0.0
C82 C 0.49528 0.8975 0.74628 0.0
C83 C 0.45002 0.91582 0.72021 0.0
C84 C 0.42006 0.95558 0.74227 0.0
C85 C 0.37369 0.97042 0.70831 0.0
C86 C 0.3801 0.93185 0.66307 0.0
C87 C 0.42455 0.89961 0.67073 0.0
C88 C 0.38056 0.02849 0.6903 0.0
C89 C 0.32266 0.95992 0.74017 0.0
C90 C 0.48595 0.73229 0.57936 0.0
C91 C 0.46534 0.70384 0.53664 0.0
C92 C 0.42458 0.72661 0.50629 0.0
C93 C 0.40221 0.77496 0.52033 0.0
C94 C 0.42026 0.8008 0.56552 0.0
C95 C 0.46275 0.7806 0.59308 0.0
C96 C 0.47666 0.81409 0.63979 0.0
C97 C 0.43487 0.85707 0.63601 0.0
C98 C 0.40138 0.84832 0.59301 0.0
C99 C 0.53312 0.83632 0.63168 0.0
C100 C 0.46993 0.77963 0.68972 0.0
H101 H 0.28361 0.01739 0.65181 0.0
H102 H 0.20775 0.90328 0.51238 0.0
H103 H 0.26117 0.82006 0.59473 0.0
H104 H 0.30704 0.78561 0.55558 0.0
H105 H 0.25006 0.81453 0.52527 0.0
H106 H 0.32433 0.92556 0.4785 0.0
H107 H 0.30347 0.8602 0.46146 0.0
H108 H 0.37016 0.87371 0.48308 0.0
H109 H 0.40678 0.00609 0.80896 0.0
H110 H 0.54155 0.90122 0.81633 0.0
H111 H 0.52075 0.8676 0.73071 0.0
H112 H 0.42288 0.04033 0.68986 0.0
H113 H 0.35944 0.05606 0.71685 0.0
H114 H 0.36683 0.03489 0.6495 0.0
H115 H 0.32465 0.92067 0.75973 0.0
H116 H 0.28666 0.9591 0.71595 0.0
H117 H 0.3173 0.99026 0.77114 0.0
H118 H 0.19735 0.03764 0.6157 0.0
C119 C 0.26859 0.99192 0.62172 0.0
C120 C 0.57875 0.2268 0.97964 0.0
C121 C 0.53673 0.19785 0.95776 0.0
C122 C 0.50695 0.22067 0.91678 0.0
C123 C 0.56432 0.29741 0.91684 0.0
C124 C 0.59176 0.27616 0.95871 0.0
C125 C 0.63727 0.3103 0.97557 0.0
H126 H 0.79998 0.51378 0.92264 0.0
C127 C 0.59078 0.34718 0.90165 0.0
C128 C 0.63314 0.35525 0.93637 0.0
H129 H 0.81222 0.3996 0.04863 0.0
H130 H 0.72754 0.36324 0.02447 0.0
H131 H 0.67294 0.538 0.93755 0.0
H132 H 0.76354 0.43515 0.83805 0.0
H133 H 0.71348 0.46275 0.79914 0.0
H134 H 0.76177 0.50539 0.82895 0.0
H135 H 0.70992 0.56213 0.88247 0.0
H136 H 0.64279 0.53899 0.87539 0.0
C137 C 0.62693 0.32915 0.03247 0.0
C138 C 0.68882 0.27802 0.96852 0.0
C139 C 0.53772 0.43973 0.73288 0.0
C140 C 0.55913 0.48272 0.70499 0.0
C141 C 0.59946 0.51287 0.72859 0.0
C142 C 0.61986 0.49878 0.77789 0.0
C143 C 0.60017 0.45375 0.80368 0.0
C144 C 0.55883 0.4259 0.78174 0.0
C145 C 0.5433 0.37874 0.81419 0.0
C146 C 0.58275 0.38235 0.85891 0.0
C147 C 0.61623 0.42607 0.85229 0.0
C148 C 0.48585 0.38678 0.83344 0.0
C149 C 0.55172 0.32861 0.78038 0.0
C150 C 0.78425 0.48137 0.94558 0.0
C151 C 0.81336 0.45909 0.98718 0.0
C152 C 0.79094 0.41727 0.01615 0.0
C153 C 0.74185 0.39599 0.00185 0.0
C154 C 0.7151 0.41637 0.95784 0.0
C155 C 0.73565 0.45937 0.93152 0.0
C156 C 0.70247 0.47533 0.88515 0.0
C157 C 0.65896 0.43425 0.88746 0.0
C158 C 0.66686 0.39951 0.92975 0.0
C159 C 0.68101 0.53168 0.8951 0.0
C160 C 0.73678 0.46986 0.83501 0.0
H161 H 0.49697 0.28511 0.86445 0.0
H162 H 0.60219 0.21083 0.01153 0.0
H163 H 0.68689 0.25353 0.93235 0.0
H164 H 0.72424 0.30278 0.96341 0.0
H165 H 0.69535 0.25098 0.00228 0.0
H166 H 0.58392 0.33437 0.03976 0.0
H167 H 0.64196 0.30012 0.06158 0.0
H168 H 0.64445 0.36825 0.04066 0.0
H169 H 0.50644 0.41583 0.71625 0.0
H170 H 0.61642 0.54641 0.70827 0.0
H171 H 0.65137 0.52252 0.79324 0.0
H172 H 0.4774 0.42929 0.8404 0.0
H173 H 0.4569 0.37226 0.80401 0.0
H174 H 0.47817 0.36739 0.87157 0.0
H175 H 0.58822 0.33223 0.75634 0.0
H176 H 0.55745 0.29245 0.80379 0.0
H177 H 0.51806 0.32236 0.75307 0.0
H178 H 0.47412 0.19951 0.89942 0.0
C179 C 0.52041 0.27034 0.89636 0.0
C180 C 0.98107 0.78912 0.43343 0.0
C181 C 0.96426 0.81514 0.4789 0.0
C182 C 0.92845 0.79005 0.513 0.0
C183 C 0.92142 0.71666 0.45255 0.0
C184 C 0.96001 0.73949 0.42163 0.0
C185 C 0.97411 0.70584 0.37526 0.0
H186 H 0.91309 0.50448 0.21402 0.0
C187 C 0.90373 0.66779 0.42644 0.0
C188 C 0.93559 0.66037 0.38199 0.0
H189 H 0.04297 0.61502 0.20268 0.0
H190 H 0.02026 0.65149 0.28653 0.0
H191 H 0.92902 0.47733 0.33808 0.0
H192 H 0.83013 0.58751 0.25514 0.0
H193 H 0.79142 0.5585 0.30437 0.0
H194 H 0.81931 0.51751 0.25393 0.0
H195 H 0.87024 0.4569 0.30434 0.0
H196 H 0.86852 0.47907 0.37171 0.0
C197 C 0.03239 0.6878 0.38138 0.0
C198 C 0.96277 0.73819 0.32479 0.0
C199 C 0.72993 0.58309 0.4805 0.0
C200 C 0.70011 0.54162 0.45879 0.0
C201 C 0.72243 0.51109 0.41818 0.0
C202 C 0.77219 0.52321 0.39774 0.0
C203 C 0.8 0.56674 0.41751 0.0
C204 C 0.77964 0.59498 0.45922 0.0
C205 C 0.81559 0.63938 0.47559 0.0
C206 C 0.85969 0.6342 0.43537 0.0
C207 C 0.8499 0.59187 0.40116 0.0
C208 C 0.83537 0.62848 0.53218 0.0
C209 C 0.78474 0.69179 0.46944 0.0
C210 C 0.93708 0.536 0.23003 0.0
C211 C 0.97948 0.55727 0.20128 0.0
C212 C 0.00967 0.59832 0.22359 0.0
C213 C 0.99643 0.61958 0.27239 0.0
C214 C 0.95211 0.60019 0.29917 0.0
C215 C 0.92407 0.55818 0.27875 0.0
C216 C 0.87788 0.54332 0.31287 0.0
C217 C 0.88311 0.58335 0.35704 0.0
C218 C 0.92617 0.61699 0.34815 0.0
C219 C 0.88628 0.48608 0.33268 0.0
C220 C 0.8268 0.55165 0.28021 0.0
H221 H 0.87838 0.72416 0.52642 0.0
H222 H 0.0094 0.80744 0.40726 0.0
H223 H 0.92412 0.75884 0.32792 0.0
H224 H 0.95993 0.71379 0.28915 0.0
H225 H 0.99375 0.76858 0.31837 0.0
H226 H 0.04569 0.68931 0.42301 0.0
H227 H 0.05951 0.71325 0.35825 0.0
H228 H 0.03816 0.6461 0.36968 0.0
H229 H 0.71432 0.60682 0.51221 0.0
H230 H 0.70093 0.47831 0.40121 0.0
H231 H 0.78645 0.49902 0.36631 0.0
H232 H 0.83418 0.58563 0.54179 0.0
H233 H 0.81073 0.64931 0.56165 0.0
H234 H 0.87724 0.63989 0.53763 0.0
H235 H 0.76533 0.6937 0.43028 0.0
H236 H 0.80991 0.72709 0.47219 0.0
H237 H 0.75351 0.69515 0.49984 0.0
H238 H 0.91529 0.80972 0.54838 0.0
C239 C 0.90678 0.74084 0.49996 0.0
C240 C 0.93789 0.73409 0.98116 0.0
C241 C 0.97682 0.704 0.95625 0.0
C242 C 0.00534 0.72545 0.91405 0.0
C243 C 0.953 0.80527 0.91909 0.0
C244 C 0.92649 0.78455 0.96184 0.0
C245 C 0.88279 0.81998 0.98038 0.0
H246 H 0.72057 0.02433 0.93043 0.0
C247 C 0.92813 0.8562 0.90557 0.0
C248 C 0.88723 0.86525 0.9415 0.0
H249 H 0.70765 0.90535 0.05108 0.0
H250 H 0.79416 0.87196 0.02911 0.0
H251 H 0.75812 0.94922 0.84537 0.0
H252 H 0.8516 0.04859 0.94629 0.0
H253 H 0.88021 0.05076 0.88347 0.0
H254 H 0.81361 0.07459 0.89264 0.0
H255 H 0.76025 0.01969 0.83817 0.0
H256 H 0.80782 0.97766 0.80676 0.0
C257 C 0.82978 0.78946 0.97494 0.0
C258 C 0.89604 0.838 0.03695 0.0
C259 C 0.97859 0.94735 0.73605 0.0
C260 C 0.9575 0.99086 0.70887 0.0
C261 C 0.92012 0.02319 0.73425 0.0
C262 C 0.90162 0.01029 0.78456 0.0
C263 C 0.92019 0.96428 0.80939 0.0
C264 C 0.95935 0.93475 0.78585 0.0
C265 C 0.97392 0.88672 0.81729 0.0
C266 C 0.93625 0.89163 0.86319 0.0
C267 C 0.90449 0.93681 0.85814 0.0
C268 C 0.96225 0.83723 0.78328 0.0
C269 C 0.03225 0.89237 0.83485 0.0
C270 C 0.73747 0.99215 0.95292 0.0
C271 C 0.70824 0.96735 0.99257 0.0
C272 C 0.73017 0.92488 0.02055 0.0
C273 C 0.78008 0.90541 0.00741 0.0
C274 C 0.80738 0.92775 0.96483 0.0
C275 C 0.78687 0.97143 0.93934 0.0
C276 C 0.81993 0.98773 0.89303 0.0
C277 C 0.86285 0.94586 0.89428 0.0
C278 C 0.85495 0.91071 0.93621 0.0
C279 C 0.78506 0.98386 0.84303 0.0
C280 C 0.84241 0.04348 0.90387 0.0
H281 H 0.01636 0.79028 0.86267 0.0
H282 H 0.91532 0.71785 0.0135 0.0
H283 H 0.93909 0.84579 0.04122 0.0
H284 H 0.87661 0.8755 0.04767 0.0
H285 H 0.88516 0.80718 0.06606 0.0
H286 H 0.83186 0.75913 0.94346 0.0
H287 H 0.81936 0.76883 0.012 0.0
H288 H 0.79649 0.81495 0.96298 0.0
H289 H 0.0078 0.92193 0.71809 0.0
H290 H 0.90366 0.05733 0.71451 0.0
H291 H 0.87206 0.03548 0.80129 0.0
H292 H 0.92756 0.84392 0.75724 0.0
H293 H 0.99643 0.82729 0.75786 0.0
H294 H 0.95145 0.80215 0.8066 0.0
H295 H 0.04199 0.93428 0.84362 0.0
H296 H 0.04093 0.87084 0.87162 0.0
H297 H 0.05966 0.87878 0.80367 0.0
H298 H 0.03561 0.70237 0.8947 0.0
C299 C 0.99399 0.77628 0.8956 0.0
C300 C 0.7746 0.07913 0.49474 0.0
C301 C 0.80526 0.03842 0.47288 0.0
C302 C 0.78255 0.00545 0.4344 0.0
C303 C 0.70412 0.05941 0.43323 0.0
C304 C 0.72402 0.08884 0.47432 0.0
C305 C 0.68678 0.13227 0.49031 0.0
H306 H 0.49717 0.29967 0.41459 0.0
C307 C 0.6542 0.08342 0.41593 0.0
C308 C 0.64275 0.12531 0.45003 0.0
H309 H 0.58566 0.30149 0.55943 0.0
H310 H 0.61987 0.21395 0.54077 0.0
H311 H 0.45614 0.18339 0.42939 0.0
H312 H 0.58449 0.24624 0.33861 0.0
H313 H 0.54447 0.20489 0.29924 0.0
H314 H 0.51572 0.26147 0.32938 0.0
H315 H 0.44659 0.20345 0.36261 0.0
H316 H 0.46678 0.13702 0.37918 0.0
C317 C 0.66746 0.12137 0.54704 0.0
C318 C 0.71609 0.18552 0.48373 0.0
C319 C 0.58261 0.03699 0.2357 0.0
C320 C 0.53949 0.05595 0.20689 0.0
C321 C 0.50409 0.09172 0.22992 0.0
C322 C 0.51323 0.11071 0.2807 0.0
C323 C 0.5583 0.09378 0.30821 0.0
C324 C 0.59081 0.05586 0.28662 0.0
C325 C 0.63453 0.03979 0.32321 0.0
C326 C 0.62377 0.07579 0.36974 0.0
C327 C 0.58008 0.10834 0.35982 0.0
C328 C 0.62737 0.98062 0.33743 0.0
C329 C 0.68755 0.05283 0.29574 0.0
C330 C 0.5237 0.28078 0.44223 0.0
C331 C 0.54008 0.30718 0.48764 0.0
C332 C 0.57317 0.28151 0.52395 0.0
C333 C 0.59329 0.23124 0.51283 0.0
C334 C 0.58012 0.20704 0.465 0.0
C335 C 0.54345 0.23034 0.43215 0.0
C336 C 0.53072 0.1967 0.38535 0.0
C337 C 0.56842 0.15083 0.39398 0.0
C338 C 0.59843 0.15809 0.43983 0.0
C339 C 0.47204 0.17934 0.38889 0.0
C340 C 0.54431 0.22874 0.33529 0.0
H341 H 0.71753 0.98989 0.38475 0.0
H342 H 0.79039 0.10424 0.52532 0.0
H343 H 0.73411 0.18827 0.44402 0.0
H344 H 0.69025 0.22015 0.48786 0.0
H345 H 0.74819 0.18943 0.51323 0.0
H346 H 0.67212 0.07912 0.55807 0.0
H347 H 0.68992 0.14511 0.57611 0.0
H348 H 0.6247 0.12947 0.55167 0.0
H349 H 0.60941 0.00835 0.21881 0.0
H350 H 0.47022 0.10598 0.20807 0.0
H351 H 0.48572 0.13881 0.29608 0.0
H352 H 0.58645 0.96663 0.32961 0.0
H353 H 0.65454 0.95523 0.31438 0.0
H354 H 0.63368 0.97306 0.37986 0.0
H355 H 0.68681 0.09367 0.27963 0.0
H356 H 0.722 0.05108 0.32201 0.0
H357 H 0.69488 0.0253 0.26264 0.0
H358 H 0.80452 0.97278 0.41789 0.0
C359 C 0.73203 0.01548 0.4149 0.0
C360 C 0.48053 0.56485 0.28585 0.0
C361 C 0.45594 0.52423 0.31401 0.0
C362 C 0.41402 0.49603 0.29122 0.0
C363 C 0.41853 0.55218 0.21425 0.0
C364 C 0.46097 0.57847 0.23628 0.0
C365 C 0.47811 0.62509 0.20398 0.0
H366 H 0.42827 0.79356 0.00464 0.0
C367 C 0.40414 0.57983 0.16519 0.0
C368 C 0.43906 0.62239 0.15884 0.0
H369 H 0.54462 0.80778 0.12769 0.0
H370 H 0.52283 0.72037 0.15934 0.0
H371 H 0.34241 0.7575 0.07427 0.0
H372 H 0.44591 0.66227 0.98022 0.0
H373 H 0.38159 0.63669 0.97347 0.0
H374 H 0.39512 0.70365 0.9532 0.0
H375 H 0.3317 0.74865 0.00525 0.0
H376 H 0.30423 0.70408 0.05324 0.0
C377 C 0.47102 0.67579 0.23757 0.0
C378 C 0.53535 0.61511 0.18523 0.0
C379 C 0.23538 0.53029 0.06987 0.0
C380 C 0.20838 0.55399 0.02801 0.0
C381 C 0.23269 0.59439 -0.00104 0.0
C382 C 0.28296 0.61269 0.01295 0.0
C383 C 0.30831 0.59113 0.05721 0.0
C384 C 0.28523 0.54955 0.08393 0.0
C385 C 0.31682 0.53313 0.13123 0.0
C386 C 0.36202 0.57243 0.12913 0.0
C387 C 0.35656 0.60652 0.08595 0.0
C388 C 0.2818 0.5407 0.18065 0.0
C389 C 0.33622 0.47588 0.1225 0.0
C390 C 0.4498 0.77693 0.03753 0.0
C391 C 0.48836 0.8066 0.0637 0.0
C392 C 0.51487 0.78498 0.10715 0.0
C393 C 0.5019 0.73451 0.12553 0.0
C394 C 0.46086 0.70632 0.10108 0.0
C395 C 0.43618 0.72717 0.05725 0.0
C396 C 0.39063 0.69372 0.03911 0.0
C397 C 0.39181 0.64962 0.07952 0.0
C398 C 0.43305 0.65721 0.11557 0.0
C399 C 0.33946 0.7274 0.04264 0.0
C400 C 0.40344 0.67308 0.98341 0.0
H401 H 0.36282 0.48717 0.22598 0.0
H402 H 0.51216 0.58766 0.30339 0.0
H403 H 0.54035 0.5734 0.17256 0.0
H404 H 0.54621 0.63923 0.15074 0.0
H405 H 0.56411 0.62271 0.21731 0.0
H406 H 0.44087 0.67022 0.26884 0.0
H407 H 0.50854 0.68724 0.25711 0.0
H408 H 0.45609 0.70965 0.21451 0.0
H409 H 0.21677 0.49961 0.09307 0.0
H410 H 0.21192 0.61306 0.96668 0.0
H411 H 0.29909 0.6445 0.99023 0.0
H412 H 0.25443 0.57471 0.17563 0.0
H413 H 0.25739 0.50512 0.18844 0.0
H414 H 0.30463 0.55038 0.21627 0.0
H415 H 0.34707 0.46943 0.08068 0.0
H416 H 0.3724 0.46656 0.14495 0.0
H417 H 0.30496 0.44687 0.13272 0.0
H418 H 0.39456 0.4648 0.31296 0.0
C419 C 0.39559 0.50933 0.24103 0.0
C420 C 0.01871 0.24072 0.57625 0.0
C421 C 0.04082 0.21044 0.53559 0.0
C422 C 0.08058 0.23286 0.50391 0.0
C423 C 0.08233 0.31022 0.55894 0.0
C424 C 0.04022 0.29055 0.58731 0.0
C425 C 0.02493 0.32665 0.63169 0.0
H426 H 0.10389 0.51263 0.80158 0.0
C427 C 0.10053 0.35911 0.58422 0.0
C428 C 0.06636 0.36993 0.62621 0.0
H429 H 0.9584 0.42401 0.80438 0.0
H430 H 0.97631 0.39057 0.71683 0.0
H431 H 0.08803 0.55502 0.68752 0.0
H432 H 0.17976 0.42561 0.74716 0.0
H433 H 0.21912 0.46598 0.70619 0.0
H434 H 0.18931 0.49409 0.76301 0.0
H435 H 0.15557 0.56402 0.70643 0.0
H436 H 0.13772 0.54495 0.64038 0.0
C437 C 0.96836 0.34762 0.62142 0.0
C438 C 0.03087 0.2954 0.68367 0.0
C439 C 0.28221 0.43077 0.53892 0.0
C440 C 0.31121 0.47351 0.55848 0.0
C441 C 0.28797 0.50838 0.59448 0.0
C442 C 0.23689 0.49904 0.61318 0.0
C443 C 0.20924 0.45429 0.59578 0.0
C444 C 0.23089 0.4224 0.55753 0.0
C445 C 0.19388 0.37915 0.54092 0.0
C446 C 0.14717 0.38935 0.57708 0.0
C447 C 0.15738 0.43234 0.61013 0.0
C448 C 0.17941 0.38752 0.48227 0.0
C449 C 0.22135 0.32579 0.55286 0.0
C450 C 0.07599 0.48612 0.78299 0.0
C451 C 0.03062 0.46956 0.80962 0.0
C452 C 0.99392 0.43661 0.78425 0.0
C453 C 0.00459 0.41699 0.73391 0.0
C454 C 0.05235 0.43062 0.70926 0.0
C455 C 0.08565 0.4669 0.73257 0.0
C456 C 0.13241 0.48012 0.69891 0.0
C457 C 0.12334 0.44322 0.65285 0.0
C458 C 0.07718 0.41323 0.65991 0.0
C459 C 0.12866 0.53905 0.68256 0.0
C460 C 0.18303 0.46597 0.73019 0.0
H461 H 0.13213 0.29701 0.49042 0.0
H462 H 0.9875 0.22488 0.60068 0.0
H463 H 0.0699 0.27529 0.68519 0.0
H464 H 0.0288 0.32027 0.71893 0.0
H465 H -0.00031 0.26474 0.68713 0.0
H466 H 0.95851 0.34725 0.57884 0.0
H467 H 0.93832 0.32322 0.64196 0.0
H468 H 0.96378 0.38936 0.63337 0.0
H469 H 0.29925 0.40439 0.51012 0.0
H470 H 0.30995 0.54196 0.60919 0.0
H471 H 0.22143 0.52613 0.64149 0.0
H472 H 0.1868 0.42882 0.46928 0.0
H473 H 0.20289 0.36123 0.4564 0.0
H474 H 0.13679 0.38097 0.47466 0.0
H475 H 0.23829 0.32592 0.59318 0.0
H476 H 0.19458 0.29163 0.55137 0.0
H477 H 0.25412 0.3185 0.52483 0.0
H478 H 0.09734 0.211 0.47143 0.0
C479 C 0.10099 0.28276 0.51506 0.0
O480 O 0.98529 0.13544 0.54966 0.0
Zn481 Zn 0.95698 0.06059 0.55207 0.0
O482 O 0.0031 0.01204 0.51259 0.0
Zn483 Zn 0.9653 0.9829 0.45324 0.0
Zn484 Zn 0.06449 0.04905 0.48558 0.0
Zn485 Zn 0.02605 0.95411 0.55725 0.0
O486 O 0.96876 0.90382 0.45204 0.0
O487 O -0.00177 0.88398 0.53196 0.0
O488 O 0.88235 0.05949 0.52302 0.0
O489 O 0.88936 0.00134 0.45833 0.0
O490 O 0.99084 0.01223 0.38451 0.0
O491 O 0.068 0.04761 0.40672 0.0
O492 O 0.13215 0.02116 0.51632 0.0
O493 O 0.95235 0.03854 0.62819 0.0
O494 O 0.10541 0.95093 0.5617 0.0
O495 O -0.00049 0.96469 0.63018 0.0
C496 C 0.02703 0.15425 0.52885 0.0
C497 C 0.97926 0.87028 0.48777 0.0
C498 C 0.03393 0.0348 0.37229 0.0
C499 C 0.86168 0.03217 0.48637 0.0
C500 C 0.14186 0.98107 0.54481 0.0
C501 C 0.97136 -0.00075 0.65312 0.0
O502 O 0.05956 0.12497 0.5045 0.0
O503 O 0.48699 0.11773 0.9575 0.0
Zn504 Zn 0.4614 0.04261 0.96774 0.0
O505 O 0.50966 0.00343 0.01421 0.0
Zn506 Zn 0.54034 0.94405 0.97687 0.0
Zn507 Zn 0.56599 0.04979 0.03928 0.0
Zn508 Zn 0.47127 0.97552 0.07407 0.0
O509 O 0.51842 0.87385 0.00675 0.0
O510 O 0.47818 0.89708 0.08062 0.0
O511 O 0.45871 0.00866 0.89572 0.0
O512 O 0.51862 0.94488 0.90165 0.0
O513 O 0.619 0.94655 0.98059 0.0
O514 O 0.63818 0.02175 0.02141 0.0
O515 O 0.56283 0.05833 0.11757 0.0
O516 O 0.38718 0.04464 -0.0019 0.0
O517 O 0.49508 0.00786 0.14151 0.0
O518 O 0.39498 0.99247 0.06783 0.0
C519 C 0.5265 0.14312 0.97557 0.0
C520 C 0.49612 0.86204 0.04982 0.0
C521 C 0.65224 0.9794 -0.00128 0.0
C522 C 0.4852 0.97126 0.87509 0.0
C523 C 0.53221 0.03964 0.1525 0.0
C524 C 0.36704 0.02103 0.03756 0.0
O525 O 0.55927 0.1215 0.00687 0.0
O526 O 0.56291 0.53035 0.62385 0.0
Zn527 Zn 0.55278 0.55483 0.5484 0.0
O528 O 0.50583 0.50606 0.51008 0.0
Zn529 Zn 0.54302 0.47354 0.45164 0.0
Zn530 Zn 0.48041 0.4509 0.55732 0.0
Zn531 Zn 0.44558 0.54411 0.48171 0.0
O532 O 0.51117 0.49148 0.3814 0.0
O533 O 0.44019 0.53781 0.40366 0.0
O534 O 0.62517 0.55745 0.51381 0.0
O535 O 0.61788 0.49804 0.45015 0.0
O536 O 0.54342 0.39496 0.45851 0.0
O537 O 0.50413 0.37881 0.5349 0.0
O538 O 0.40124 0.45092 0.56227 0.0
O539 O 0.52154 0.62893 0.54978 0.0
O540 O 0.37746 0.51904 0.51239 0.0
O541 O 0.45061 0.62021 0.49914 0.0
C542 C 0.54216 0.49286 0.65021 0.0
C543 C 0.46936 0.51638 0.36924 0.0
C544 C 0.52778 0.36313 0.49385 0.0
C545 C 0.64509 0.53146 0.47581 0.0
C546 C 0.36609 0.48106 0.54289 0.0
C547 C 0.48113 0.64854 0.52697 0.0
O548 O 0.50945 0.46111 0.62929 0.0
O549 O 0.96975 0.49804 0.1289 0.0
Zn550 Zn 0.97169 0.46461 0.05641 0.0
O551 O 0.01028 0.51002 0.00665 0.0
Zn552 Zn 0.9625 0.53396 0.95145 0.0
Zn553 Zn 0.03944 0.57103 0.04274 0.0
Zn554 Zn 0.06841 0.47151 0.97468 0.0
O555 O 0.98279 0.50538 0.88078 0.0
O556 O 0.06149 0.46977 0.89654 0.0
O557 O 0.89585 0.45455 0.03264 0.0
O558 O 0.88912 0.50871 0.96438 0.0
O559 O 0.96238 0.61298 0.94573 0.0
O560 O 0.01549 0.63913 0.01032 0.0
O561 O 0.11841 0.57135 0.04114 0.0
O562 O 0.0057 0.39196 0.06084 0.0
O563 O 0.1397 0.50177 0.99259 0.0
O564 O 0.06842 0.39712 0.00012 0.0
C565 C 0.98997 0.54053 0.14672 0.0
C566 C 0.02458 0.48261 0.86515 0.0
C567 C 0.98525 0.64918 0.97176 0.0
C568 C 0.86856 0.47604 0.99634 0.0
C569 C 0.15262 0.54187 0.01957 0.0
C570 C 0.04297 0.37096 0.03444 0.0
O571 O 0.01711 0.57106 0.11764 0.0
loop_
_geom_bond_atom_site_label_1
_geom_bond_atom_site_label_2
_geom_bond_distance
_geom_bond_site_symmetry_2
_ccdc_geom_bond_type
C0 C1 1.391 . S
C0 C4 1.391 . S
C0 H42 0.948 . S
C1 C0 1.391 . S
C1 C2 1.391 . S
C2 C1 1.391 . S
C2 H58 0.947 1_455 S
C2 C59 1.392 . S
C3 C4 1.391 . S
C3 C7 1.397 . S
C3 C59 1.419 . S
C4 C0 1.391 . S
C4 C3 1.391 . S
C4 C5 1.399 . S
C5 C4 1.399 . S
C5 C8 1.396 . S
C5 C17 1.453 . S
C5 C18 1.684 . S
H6 C30 0.948 . S
C7 C3 1.397 . S
C7 C8 1.394 . S
C7 C26 1.723 . S
C8 C5 1.396 . S
C8 C7 1.394 . S
C8 C38 1.723 . S
H9 C32 0.947 . S
H10 C33 0.948 . S
H11 C39 0.982 . S
H12 C40 0.979 . S
H13 C40 0.980 . S
H14 C40 0.983 . S
H15 C39 0.979 . S
H16 C39 0.977 . S
C17 C5 1.453 . S
C17 H46 0.982 . S
C17 H47 0.979 . S
C17 H48 0.977 . S
C18 C5 1.684 . S
C18 H43 0.979 1_545 S
C18 H44 0.980 . S
C18 H45 0.983 1_545 S
C19 C20 1.391 . S
C19 C24 1.391 . S
C19 H49 0.948 . S
C20 C19 1.391 . S
C20 C21 1.391 . S
C21 C20 1.391 . S
C21 C22 1.392 . S
C21 H50 0.947 1_554 S
C22 C21 1.392 . S
C22 C23 1.419 . S
C22 H51 0.948 . S
C23 C22 1.419 . S
C23 C24 1.391 . S
C23 C27 1.397 . S
C24 C19 1.391 . S
C24 C23 1.391 . S
C24 C25 1.399 . S
C25 C24 1.399 . S
C25 C26 1.396 . S
C25 C28 1.453 . S
C25 C29 1.684 1_455 S
C26 C7 1.723 . S
C26 C25 1.396 . S
C26 C27 1.394 . S
C27 C23 1.397 . S
C27 C26 1.394 . S
C27 C37 1.723 . S
C28 C25 1.453 . S
C28 H52 0.982 . S
C28 H53 0.979 . S
C28 H54 0.977 . S
C29 C25 1.684 1_655 S
C29 H55 0.979 . S
C29 H56 0.980 . S
C29 H57 0.983 . S
C30 H6 0.948 . S
C30 C31 1.391 . S
C30 C35 1.391 . S
C31 C30 1.391 . S
C31 C32 1.391 . S
C32 H9 0.947 . S
C32 C31 1.391 . S
C32 C33 1.392 . S
C33 H10 0.948 . S
C33 C32 1.392 . S
C33 C34 1.419 . S
C34 C33 1.419 . S
C34 C35 1.391 . S
C34 C38 1.397 . S
C35 C30 1.391 . S
C35 C34 1.391 . S
C35 C36 1.399 . S
C36 C35 1.399 . S
C36 C37 1.396 . S
C36 C39 1.453 . S
C36 C40 1.684 1_554 S
C37 C27 1.723 . S
C37 C36 1.396 . S
C37 C38 1.394 . S
C38 C8 1.723 . S
C38 C34 1.397 . S
C38 C37 1.394 . S
C39 H11 0.982 . S
C39 H15 0.979 . S
C39 H16 0.977 . S
C39 C36 1.453 . S
C40 H12 0.979 . S
C40 H13 0.980 . S
C40 H14 0.983 . S
C40 C36 1.684 1_556 S
H41 C59 0.948 . S
H42 C0 0.948 . S
H43 C18 0.979 1_565 S
H44 C18 0.980 . S
H45 C18 0.983 1_565 S
H46 C17 0.982 . S
H47 C17 0.979 . S
H48 C17 0.977 . S
H49 C19 0.948 . S
H50 C21 0.947 1_556 S
H51 C22 0.948 . S
H52 C28 0.982 . S
H53 C28 0.979 . S
H54 C28 0.977 . S
H55 C29 0.979 . S
H56 C29 0.980 . S
H57 C29 0.983 . S
H58 C2 0.947 1_655 S
C59 C2 1.392 . S
C59 C3 1.419 . S
C59 H41 0.948 . S
C60 C61 1.391 . S
C60 C64 1.391 . S
C60 H102 0.948 . S
C61 C60 1.391 . S
C61 C62 1.391 . S
C62 C61 1.391 . S
C62 H118 0.947 1_565 S
C62 C119 1.392 . S
C63 C64 1.391 . S
C63 C67 1.397 . S
C63 C119 1.419 . S
C64 C60 1.391 . S
C64 C63 1.391 . S
C64 C65 1.399 . S
C65 C64 1.399 . S
C65 C68 1.396 . S
C65 C77 1.453 . S
C65 C78 1.684 . S
H66 C90 0.948 . S
C67 C63 1.397 . S
C67 C68 1.394 . S
C67 C86 1.723 . S
C68 C65 1.396 . S
C68 C67 1.394 . S
C68 C98 1.723 . S
H69 C92 0.947 . S
H70 C93 0.948 . S
H71 C99 0.982 . S
H72 C100 0.979 . S
H73 C100 0.980 . S
H74 C100 0.983 . S
H75 C99 0.979 . S
H76 C99 0.977 . S
C77 C65 1.453 . S
C77 H106 0.982 . S
C77 H107 0.979 . S
C77 H108 0.977 . S
C78 C65 1.684 . S
C78 H103 0.979 . S
C78 H104 0.980 . S
C78 H105 0.983 . S
C79 C80 1.391 . S
C79 C84 1.391 . S
C79 H109 0.948 . S
C80 C79 1.391 . S
C80 C81 1.391 . S
C81 C80 1.391 . S
C81 C82 1.392 . S
C81 H110 0.947 . S
C82 C81 1.392 . S
C82 C83 1.419 . S
C82 H111 0.948 . S
C83 C82 1.419 . S
C83 C84 1.391 . S
C83 C87 1.397 . S
C84 C79 1.391 . S
C84 C83 1.391 . S
C84 C85 1.399 . S
C85 C84 1.399 . S
C85 C86 1.396 . S
C85 C88 1.453 . S
C85 C89 1.684 . S
C86 C67 1.723 . S
C86 C85 1.396 . S
C86 C87 1.394 . S
C87 C83 1.397 . S
C87 C86 1.394 . S
C87 C97 1.723 . S
C88 C85 1.453 . S
C88 H112 0.982 . S
C88 H113 0.979 1_565 S
C88 H114 0.977 . S
C89 C85 1.684 . S
C89 H115 0.979 . S
C89 H116 0.980 . S
C89 H117 0.983 . S
C90 H66 0.948 . S
C90 C91 1.391 . S
C90 C95 1.391 . S
C91 C90 1.391 . S
C91 C92 1.391 . S
C92 H69 0.947 . S
C92 C91 1.391 . S
C92 C93 1.392 . S
C93 H70 0.948 . S
C93 C92 1.392 . S
C93 C94 1.419 . S
C94 C93 1.419 . S
C94 C95 1.391 . S
C94 C98 1.397 . S
C95 C90 1.391 . S
C95 C94 1.391 . S
C95 C96 1.399 . S
C96 C95 1.399 . S
C96 C97 1.396 . S
C96 C99 1.453 . S
C96 C100 1.684 . S
C97 C87 1.723 . S
C97 C96 1.396 . S
C97 C98 1.394 . S
C98 C68 1.723 . S
C98 C94 1.397 . S
C98 C97 1.394 . S
C99 H71 0.982 . S
C99 H75 0.979 . S
C99 H76 0.977 . S
C99 C96 1.453 . S
C100 H72 0.979 . S
C100 H73 0.980 . S
C100 H74 0.983 . S
C100 C96 1.684 . S
H101 C119 0.948 . S
H102 C60 0.948 . S
H103 C78 0.979 . S
H104 C78 0.980 . S
H105 C78 0.983 . S
H106 C77 0.982 . S
H107 C77 0.979 . S
H108 C77 0.977 . S
H109 C79 0.948 . S
H110 C81 0.947 . S
H111 C82 0.948 . S
H112 C88 0.982 . S
H113 C88 0.979 1_545 S
H114 C88 0.977 . S
H115 C89 0.979 . S
H116 C89 0.980 . S
H117 C89 0.983 . S
H118 C62 0.947 1_545 S
C119 C62 1.392 . S
C119 C63 1.419 . S
C119 H101 0.948 . S
C120 C121 1.391 . S
C120 C124 1.391 . S
C120 H162 0.948 1_556 S
C121 C120 1.391 . S
C121 C122 1.391 . S
C122 C121 1.391 . S
C122 H178 0.947 . S
C122 C179 1.392 . S
C123 C124 1.391 . S
C123 C127 1.397 . S
C123 C179 1.419 . S
C124 C120 1.391 . S
C124 C123 1.391 . S
C124 C125 1.399 . S
C125 C124 1.399 . S
C125 C128 1.396 . S
C125 C137 1.453 1_556 S
C125 C138 1.684 . S
H126 C150 0.948 . S
C127 C123 1.397 . S
C127 C128 1.394 . S
C127 C146 1.723 . S
C128 C125 1.396 . S
C128 C127 1.394 . S
C128 C158 1.723 . S
H129 C152 0.942 1_554 S
H130 C153 0.948 . S
H131 C159 0.982 . S
H132 C160 0.979 . S
H133 C160 0.980 . S
H134 C160 0.983 . S
H135 C159 0.979 . S
H136 C159 0.977 . S
C137 C125 1.453 1_554 S
C137 H166 0.982 . S
C137 H167 0.979 . S
C137 H168 0.977 . S
C138 C125 1.684 . S
C138 H163 0.979 . S
C138 H164 0.980 . S
C138 H165 0.983 1_556 S
C139 C140 1.391 . S
C139 C144 1.391 . S
C139 H169 0.948 . S
C140 C139 1.391 . S
C140 C141 1.391 . S
C141 C140 1.391 . S
C141 C142 1.392 . S
C141 H170 0.947 . S
C142 C141 1.392 . S
C142 C143 1.419 . S
C142 H171 0.948 . S
C143 C142 1.419 . S
C143 C144 1.391 . S
C143 C147 1.397 . S
C144 C139 1.391 . S
C144 C143 1.391 . S
C144 C145 1.399 . S
C145 C144 1.399 . S
C145 C146 1.396 . S
C145 C148 1.453 . S
C145 C149 1.684 . S
C146 C127 1.723 . S
C146 C145 1.396 . S
C146 C147 1.394 . S
C147 C143 1.397 . S
C147 C146 1.394 . S
C147 C157 1.723 . S
C148 C145 1.453 . S
C148 H172 0.982 . S
C148 H173 0.979 . S
C148 H174 0.977 . S
C149 C145 1.684 . S
C149 H175 0.979 . S
C149 H176 0.980 . S
C149 H177 0.983 . S
C150 H126 0.948 . S
C150 C151 1.391 . S
C150 C155 1.391 . S
C151 C150 1.391 . S
C151 C152 1.394 . S
C152 H129 0.942 1_556 S
C152 C151 1.394 . S
C152 C153 1.394 . S
C153 H130 0.948 . S
C153 C152 1.394 . S
C153 C154 1.419 . S
C154 C153 1.419 . S
C154 C155 1.391 . S
C154 C158 1.397 . S
C155 C150 1.391 . S
C155 C154 1.391 . S
C155 C156 1.399 . S
C156 C155 1.399 . S
C156 C157 1.396 . S
C156 C159 1.453 . S
C156 C160 1.684 . S
C157 C147 1.723 . S
C157 C156 1.396 . S
C157 C158 1.394 . S
C158 C128 1.723 . S
C158 C154 1.397 . S
C158 C157 1.394 . S
C159 H131 0.982 . S
C159 H135 0.979 . S
C159 H136 0.977 . S
C159 C156 1.453 . S
C160 H132 0.979 . S
C160 H133 0.980 . S
C160 H134 0.983 . S
C160 C156 1.684 . S
H161 C179 0.948 . S
H162 C120 0.948 1_554 S
H163 C138 0.979 . S
H164 C138 0.980 . S
H165 C138 0.983 1_554 S
H166 C137 0.982 . S
H167 C137 0.979 . S
H168 C137 0.977 . S
H169 C139 0.948 . S
H170 C141 0.947 . S
H171 C142 0.948 . S
H172 C148 0.982 . S
H173 C148 0.979 . S
H174 C148 0.977 . S
H175 C149 0.979 . S
H176 C149 0.980 . S
H177 C149 0.983 . S
H178 C122 0.947 . S
C179 C122 1.392 . S
C179 C123 1.419 . S
C179 H161 0.948 . S
C180 C181 1.391 . S
C180 C184 1.391 . S
C180 H222 0.948 1_655 S
C181 C180 1.391 . S
C181 C182 1.391 . S
C182 C181 1.391 . S
C182 H238 0.947 . S
C182 C239 1.392 . S
C183 C184 1.391 . S
C183 C187 1.397 . S
C183 C239 1.419 . S
C184 C180 1.391 . S
C184 C183 1.391 . S
C184 C185 1.399 . S
C185 C184 1.399 . S
C185 C188 1.396 . S
C185 C197 1.453 1_655 S
C185 C198 1.684 . S
H186 C210 0.948 . S
C187 C183 1.397 . S
C187 C188 1.394 . S
C187 C206 1.723 . S
C188 C185 1.396 . S
C188 C187 1.394 . S
C188 C218 1.723 . S
H189 C212 0.947 . S
H190 C213 0.948 . S
H191 C219 0.982 . S
H192 C220 0.979 . S
H193 C220 0.980 . S
H194 C220 0.983 . S
H195 C219 0.979 . S
H196 C219 0.977 . S
C197 C185 1.453 1_455 S
C197 H226 0.982 . S
C197 H227 0.979 . S
C197 H228 0.977 . S
C198 C185 1.684 . S
C198 H223 0.979 . S
C198 H224 0.980 . S
C198 H225 0.983 1_655 S
C199 C200 1.391 . S
C199 C204 1.391 . S
C199 H229 0.948 . S
C200 C199 1.391 . S
C200 C201 1.391 . S
C201 C200 1.391 . S
C201 C202 1.392 . S
C201 H230 0.947 . S
C202 C201 1.392 . S
C202 C203 1.419 . S
C202 H231 0.948 . S
C203 C202 1.419 . S
C203 C204 1.391 . S
C203 C207 1.397 . S
C204 C199 1.391 . S
C204 C203 1.391 . S
C204 C205 1.399 . S
C205 C204 1.399 . S
C205 C206 1.396 . S
C205 C208 1.453 . S
C205 C209 1.684 . S
C206 C187 1.723 . S
C206 C205 1.396 . S
C206 C207 1.394 . S
C207 C203 1.397 . S
C207 C206 1.394 . S
C207 C217 1.723 . S
C208 C205 1.453 . S
C208 H232 0.982 . S
C208 H233 0.979 . S
C208 H234 0.977 . S
C209 C205 1.684 . S
C209 H235 0.979 . S
C209 H236 0.980 . S
C209 H237 0.983 . S
C210 H186 0.948 . S
C210 C211 1.391 . S
C210 C215 1.391 . S
C211 C210 1.391 . S
C211 C212 1.391 1_655 S
C212 H189 0.947 . S
C212 C211 1.391 1_455 S
C212 C213 1.392 1_455 S
C213 H190 0.948 . S
C213 C212 1.392 1_655 S
C213 C214 1.419 . S
C214 C213 1.419 . S
C214 C215 1.391 . S
C214 C218 1.397 . S
C215 C210 1.391 . S
C215 C214 1.391 . S
C215 C216 1.399 . S
C216 C215 1.399 . S
C216 C217 1.396 . S
C216 C219 1.453 . S
C216 C220 1.684 . S
C217 C207 1.723 . S
C217 C216 1.396 . S
C217 C218 1.394 . S
C218 C188 1.723 . S
C218 C214 1.397 . S
C218 C217 1.394 . S
C219 H191 0.982 . S
C219 H195 0.979 . S
C219 H196 0.977 . S
C219 C216 1.453 . S
C220 H192 0.979 . S
C220 H193 0.980 . S
C220 H194 0.983 . S
C220 C216 1.684 . S
H221 C239 0.948 . S
H222 C180 0.948 1_455 S
H223 C198 0.979 . S
H224 C198 0.980 . S
H225 C198 0.983 1_455 S
H226 C197 0.982 . S
H227 C197 0.979 . S
H228 C197 0.977 . S
H229 C199 0.948 . S
H230 C201 0.947 . S
H231 C202 0.948 . S
H232 C208 0.982 . S
H233 C208 0.979 . S
H234 C208 0.977 . S
H235 C209 0.979 . S
H236 C209 0.980 . S
H237 C209 0.983 . S
H238 C182 0.947 . S
C239 C182 1.392 . S
C239 C183 1.419 . S
C239 H221 0.948 . S
C240 C241 1.391 1_654 S
C240 C244 1.391 1_554 S
C240 H282 0.948 . S
C241 C240 1.391 1_456 S
C241 C242 1.391 . S
C242 C241 1.391 . S
C242 H298 0.947 . S
C242 C299 1.392 . S
C243 C244 1.391 . S
C243 C247 1.397 . S
C243 C299 1.419 1_655 S
C244 C240 1.391 1_556 S
C244 C243 1.391 . S
C244 C245 1.399 1_556 S
C245 C244 1.399 1_554 S
C245 C248 1.396 1_554 S
C245 C257 1.453 . S
C245 C258 1.684 . S
H246 C270 0.948 . S
C247 C243 1.397 . S
C247 C248 1.394 . S
C247 C266 1.723 . S
C248 C245 1.396 1_556 S
C248 C247 1.394 . S
C248 C278 1.723 . S
H249 C272 0.947 . S
H250 C273 0.948 . S
H251 C279 0.982 1_565 S
H252 C280 0.979 . S
H253 C280 0.980 . S
H254 C280 0.983 . S
H255 C279 0.979 . S
H256 C279 0.977 . S
C257 C245 1.453 . S
C257 H286 0.982 1_554 S
C257 H287 0.979 . S
C257 H288 0.977 . S
C258 C245 1.684 . S
C258 H283 0.979 . S
C258 H284 0.980 . S
C258 H285 0.983 . S
C259 C260 1.391 1_465 S
C259 C264 1.391 1_455 S
C259 H289 0.948 . S
C260 C259 1.391 1_645 S
C260 C261 1.391 . S
C261 C260 1.391 . S
C261 C262 1.392 . S
C261 H290 0.947 . S
C262 C261 1.392 . S
C262 C263 1.419 1_545 S
C262 H291 0.948 . S
C263 C262 1.419 1_565 S
C263 C264 1.391 . S
C263 C267 1.397 . S
C264 C259 1.391 1_655 S
C264 C263 1.391 . S
C264 C265 1.399 . S
C265 C264 1.399 . S
C265 C266 1.396 . S
C265 C268 1.453 . S
C265 C269 1.684 1_655 S
C266 C247 1.723 . S
C266 C265 1.396 . S
C266 C267 1.394 . S
C267 C263 1.397 . S
C267 C266 1.394 . S
C267 C277 1.723 . S
C268 C265 1.453 . S
C268 H292 0.982 . S
C268 H293 0.979 1_655 S
C268 H294 0.977 1_655 S
C269 C265 1.684 1_455 S
C269 H295 0.979 . S
C269 H296 0.980 . S
C269 H297 0.983 . S
C270 H246 0.948 . S
C270 C271 1.391 1_556 S
C270 C275 1.391 . S
C271 C270 1.391 1_554 S
C271 C272 1.391 1_545 S
C272 H249 0.947 . S
C272 C271 1.391 1_565 S
C272 C273 1.392 . S
C273 H250 0.948 . S
C273 C272 1.392 . S
C273 C274 1.419 1_554 S
C274 C273 1.419 1_556 S
C274 C275 1.391 1_565 S
C274 C278 1.397 . S
C275 C270 1.391 . S
C275 C274 1.391 1_545 S
C275 C276 1.399 . S
C276 C275 1.399 . S
C276 C277 1.396 1_545 S
C276 C279 1.453 . S
C276 C280 1.684 . S
C277 C267 1.723 . S
C277 C276 1.396 1_565 S
C277 C278 1.394 . S
C278 C248 1.723 . S
C278 C274 1.397 . S
C278 C277 1.394 . S
C279 H251 0.982 1_545 S
C279 H255 0.979 . S
C279 H256 0.977 . S
C279 C276 1.453 . S
C280 H252 0.979 . S
C280 H253 0.980 . S
C280 H254 0.983 . S
C280 C276 1.684 . S
H281 C299 0.948 . S
H282 C240 0.948 . S
H283 C258 0.979 . S
H284 C258 0.980 . S
H285 C258 0.983 . S
H286 C257 0.982 1_556 S
H287 C257 0.979 . S
H288 C257 0.977 . S
H289 C259 0.948 . S
H290 C261 0.947 . S
H291 C262 0.948 . S
H292 C268 0.982 . S
H293 C268 0.979 1_455 S
H294 C268 0.977 1_455 S
H295 C269 0.979 . S
H296 C269 0.980 . S
H297 C269 0.983 . S
H298 C242 0.947 . S
C299 C242 1.392 . S
C299 C243 1.419 1_455 S
C299 H281 0.948 . S
C300 C301 1.386 1_545 S
C300 C304 1.391 . S
C300 H342 0.948 . S
C301 C300 1.386 1_565 S
C301 C302 1.394 . S
C302 C301 1.394 . S
C302 H358 0.947 . S
C302 C359 1.392 . S
C303 C304 1.391 . S
C303 C307 1.397 . S
C303 C359 1.419 1_545 S
C304 C300 1.391 . S
C304 C303 1.391 . S
C304 C305 1.399 . S
C305 C304 1.399 . S
C305 C308 1.396 . S
C305 C317 1.453 . S
C305 C318 1.684 . S
H306 C330 0.948 . S
C307 C303 1.397 . S
C307 C308 1.394 . S
C307 C326 1.723 . S
C308 C305 1.396 . S
C308 C307 1.394 . S
C308 C338 1.723 . S
H309 C332 0.947 . S
H310 C333 0.948 . S
H311 C339 0.982 . S
H312 C340 0.979 . S
H313 C340 0.980 . S
H314 C340 0.983 . S
H315 C339 0.979 . S
H316 C339 0.977 . S
C317 C305 1.453 . S
C317 H346 0.982 . S
C317 H347 0.979 . S
C317 H348 0.977 . S
C318 C305 1.684 . S
C318 H343 0.979 . S
C318 H344 0.980 . S
C318 H345 0.983 . S
C319 C320 1.391 1_565 S
C319 C324 1.391 1_565 S
C319 H349 0.948 . S
C320 C319 1.391 1_545 S
C320 C321 1.391 . S
C321 C320 1.391 . S
C321 C322 1.392 . S
C321 H350 0.947 . S
C322 C321 1.392 . S
C322 C323 1.419 . S
C322 H351 0.948 . S
C323 C322 1.419 . S
C323 C324 1.391 . S
C323 C327 1.397 . S
C324 C319 1.391 1_545 S
C324 C323 1.391 . S
C324 C325 1.399 . S
C325 C324 1.399 . S
C325 C326 1.396 . S
C325 C328 1.453 1_545 S
C325 C329 1.684 1_545 S
C326 C307 1.723 . S
C326 C325 1.396 . S
C326 C327 1.394 . S
C327 C323 1.397 . S
C327 C326 1.394 . S
C327 C337 1.723 . S
C328 C325 1.453 1_565 S
C328 H352 0.982 . S
C328 H353 0.979 . S
C328 H354 0.977 . S
C329 C325 1.684 1_565 S
C329 H355 0.979 1_565 S
C329 H356 0.980 . S
C329 H357 0.983 . S
C330 H306 0.948 . S
C330 C331 1.391 . S
C330 C335 1.391 . S
C331 C330 1.391 . S
C331 C332 1.391 . S
C332 H309 0.947 . S
C332 C331 1.391 . S
C332 C333 1.392 . S
C333 H310 0.948 . S
C333 C332 1.392 . S
C333 C334 1.419 . S
C334 C333 1.419 . S
C334 C335 1.391 . S
C334 C338 1.397 . S
C335 C330 1.391 . S
C335 C334 1.391 . S
C335 C336 1.399 . S
C336 C335 1.399 . S
C336 C337 1.396 . S
C336 C339 1.453 . S
C336 C340 1.684 . S
C337 C327 1.723 . S
C337 C336 1.396 . S
C337 C338 1.394 . S
C338 C308 1.723 . S
C338 C334 1.397 . S
C338 C337 1.394 . S
C339 H311 0.982 . S
C339 H315 0.979 . S
C339 H316 0.977 . S
C339 C336 1.453 . S
C340 H312 0.979 . S
C340 H313 0.980 . S
C340 H314 0.983 . S
C340 C336 1.684 . S
H341 C359 0.948 . S
H342 C300 0.948 . S
H343 C318 0.979 . S
H344 C318 0.980 . S
H345 C318 0.983 . S
H346 C317 0.982 . S
H347 C317 0.979 . S
H348 C317 0.977 . S
H349 C319 0.948 . S
H350 C321 0.947 . S
H351 C322 0.948 . S
H352 C328 0.982 . S
H353 C328 0.979 . S
H354 C328 0.977 . S
H355 C329 0.979 1_545 S
H356 C329 0.980 . S
H357 C329 0.983 . S
H358 C302 0.947 . S
C359 C302 1.392 . S
C359 C303 1.419 1_565 S
C359 H341 0.948 . S
C360 C361 1.391 . S
C360 C364 1.391 . S
C360 H402 0.948 . S
C361 C360 1.391 . S
C361 C362 1.391 . S
C362 C361 1.391 . S
C362 H418 0.947 . S
C362 C419 1.392 . S
C363 C364 1.391 . S
C363 C367 1.397 . S
C363 C419 1.419 . S
C364 C360 1.391 . S
C364 C363 1.391 . S
C364 C365 1.399 . S
C365 C364 1.399 . S
C365 C368 1.396 . S
C365 C377 1.453 . S
C365 C378 1.684 . S
H366 C390 0.948 1_556 S
C367 C363 1.397 . S
C367 C368 1.394 . S
C367 C386 1.723 . S
C368 C365 1.396 . S
C368 C367 1.394 . S
C368 C398 1.723 . S
H369 C392 0.947 . S
H370 C393 0.948 . S
H371 C399 0.982 . S
H372 C400 0.979 . S
H373 C400 0.980 . S
H374 C400 0.983 . S
H375 C399 0.979 1_556 S
H376 C399 0.977 . S
C377 C365 1.453 . S
C377 H406 0.982 . S
C377 H407 0.979 . S
C377 H408 0.977 . S
C378 C365 1.684 . S
C378 H403 0.979 . S
C378 H404 0.980 . S
C378 H405 0.983 . S
C379 C380 1.391 . S
C379 C384 1.391 . S
C379 H409 0.948 . S
C380 C379 1.391 . S
C380 C381 1.391 1_554 S
C381 C380 1.391 1_556 S
C381 C382 1.385 1_556 S
C381 H410 0.947 . S
C382 C381 1.385 1_554 S
C382 C383 1.436 . S
C382 H411 0.938 1_554 S
C383 C382 1.436 . S
C383 C384 1.391 . S
C383 C387 1.397 . S
C384 C379 1.391 . S
C384 C383 1.391 . S
C384 C385 1.399 . S
C385 C384 1.399 . S
C385 C386 1.396 . S
C385 C388 1.453 . S
C385 C389 1.684 . S
C386 C367 1.723 . S
C386 C385 1.396 . S
C386 C387 1.394 . S
C387 C383 1.397 . S
C387 C386 1.394 . S
C387 C397 1.723 . S
C388 C385 1.453 . S
C388 H412 0.982 . S
C388 H413 0.979 . S
C388 H414 0.977 . S
C389 C385 1.684 . S
C389 H415 0.979 . S
C389 H416 0.980 . S
C389 H417 0.983 . S
C390 H366 0.948 1_554 S
C390 C391 1.391 . S
C390 C395 1.391 . S
C391 C390 1.391 . S
C391 C392 1.391 . S
C392 H369 0.947 . S
C392 C391 1.391 . S
C392 C393 1.392 . S
C393 H370 0.948 . S
C393 C392 1.392 . S
C393 C394 1.419 . S
C394 C393 1.419 . S
C394 C395 1.391 . S
C394 C398 1.397 . S
C395 C390 1.391 . S
C395 C394 1.391 . S
C395 C396 1.399 . S
C396 C395 1.399 . S
C396 C397 1.396 . S
C396 C399 1.453 . S
C396 C400 1.684 1_554 S
C397 C387 1.723 . S
C397 C396 1.396 . S
C397 C398 1.394 . S
C398 C368 1.723 . S
C398 C394 1.397 . S
C398 C397 1.394 . S
C399 H371 0.982 . S
C399 H375 0.979 1_554 S
C399 H376 0.977 . S
C399 C396 1.453 . S
C400 H372 0.979 . S
C400 H373 0.980 . S
C400 H374 0.983 . S
C400 C396 1.684 1_556 S
H401 C419 0.948 . S
H402 C360 0.948 . S
H403 C378 0.979 . S
H404 C378 0.980 . S
H405 C378 0.983 . S
H406 C377 0.982 . S
H407 C377 0.979 . S
H408 C377 0.977 . S
H409 C379 0.948 . S
H410 C381 0.947 . S
H411 C382 0.938 1_556 S
H412 C388 0.982 . S
H413 C388 0.979 . S
H414 C388 0.977 . S
H415 C389 0.979 . S
H416 C389 0.980 . S
H417 C389 0.983 . S
H418 C362 0.947 . S
C419 C362 1.392 . S
C419 C363 1.419 . S
C419 H401 0.948 . S
C420 C421 1.391 . S
C420 C424 1.391 . S
C420 H462 0.948 1_455 S
C421 C420 1.391 . S
C421 C422 1.391 . S
C422 C421 1.391 . S
C422 H478 0.947 . S
C422 C479 1.392 . S
C423 C424 1.391 . S
C423 C427 1.397 . S
C423 C479 1.419 . S
C424 C420 1.391 . S
C424 C423 1.391 . S
C424 C425 1.399 . S
C425 C424 1.399 . S
C425 C428 1.396 . S
C425 C437 1.453 1_455 S
C425 C438 1.684 . S
H426 C450 0.948 . S
C427 C423 1.397 . S
C427 C428 1.394 . S
C427 C446 1.723 . S
C428 C425 1.396 . S
C428 C427 1.394 . S
C428 C458 1.723 . S
H429 C452 0.947 . S
H430 C453 0.949 . S
H431 C459 0.982 . S
H432 C460 0.979 . S
H433 C460 0.980 . S
H434 C460 0.983 . S
H435 C459 0.979 . S
H436 C459 0.977 . S
C437 C425 1.453 1_655 S
C437 H466 0.982 . S
C437 H467 0.979 . S
C437 H468 0.977 . S
C438 C425 1.684 . S
C438 H463 0.979 . S
C438 H464 0.980 . S
C438 H465 0.983 1_455 S
C439 C440 1.391 . S
C439 C444 1.391 . S
C439 H469 0.948 . S
C440 C439 1.391 . S
C440 C441 1.391 . S
C441 C440 1.391 . S
C441 C442 1.392 . S
C441 H470 0.947 . S
C442 C441 1.392 . S
C442 C443 1.419 . S
C442 H471 0.948 . S
C443 C442 1.419 . S
C443 C444 1.391 . S
C443 C447 1.397 . S
C444 C439 1.391 . S
C444 C443 1.391 . S
C444 C445 1.399 . S
C445 C444 1.399 . S
C445 C446 1.396 . S
C445 C448 1.453 . S
C445 C449 1.684 . S
C446 C427 1.723 . S
C446 C445 1.396 . S
C446 C447 1.394 . S
C447 C443 1.397 . S
C447 C446 1.394 . S
C447 C457 1.723 . S
C448 C445 1.453 . S
C448 H472 0.982 . S
C448 H473 0.979 . S
C448 H474 0.977 . S
C449 C445 1.684 . S
C449 H475 0.979 . S
C449 H476 0.980 . S
C449 H477 0.983 . S
C450 H426 0.948 . S
C450 C451 1.391 . S
C450 C455 1.391 . S
C451 C450 1.391 . S
C451 C452 1.391 1_455 S
C452 H429 0.947 . S
C452 C451 1.391 1_655 S
C452 C453 1.392 1_655 S
C453 H430 0.949 . S
C453 C452 1.392 1_455 S
C453 C454 1.419 . S
C454 C453 1.419 . S
C454 C455 1.391 . S
C454 C458 1.397 . S
C455 C450 1.391 . S
C455 C454 1.391 . S
C455 C456 1.399 . S
C456 C455 1.399 . S
C456 C457 1.396 . S
C456 C459 1.453 . S
C456 C460 1.684 . S
C457 C447 1.723 . S
C457 C456 1.396 . S
C457 C458 1.394 . S
C458 C428 1.723 . S
C458 C454 1.397 . S
C458 C457 1.394 . S
C459 H431 0.982 . S
C459 H435 0.979 . S
C459 H436 0.977 . S
C459 C456 1.453 . S
C460 H432 0.979 . S
C460 H433 0.980 . S
C460 H434 0.983 . S
C460 C456 1.684 . S
H461 C479 0.948 . S
H462 C420 0.948 1_655 S
H463 C438 0.979 . S
H464 C438 0.980 . S
H465 C438 0.983 1_655 S
H466 C437 0.982 . S
H467 C437 0.979 . S
H468 C437 0.977 . S
H469 C439 0.948 . S
H470 C441 0.947 . S
H471 C442 0.948 . S
H472 C448 0.982 . S
H473 C448 0.979 . S
H474 C448 0.977 . S
H475 C449 0.979 . S
H476 C449 0.980 . S
H477 C449 0.983 . S
H478 C422 0.947 . S
C479 C422 1.392 . S
C479 C423 1.419 . S
C479 H461 0.948 . S
O480 Zn481 1.953 . S
O480 C496 1.225 1_655 S
Zn481 O480 1.953 . S
Zn481 O482 1.949 1_655 S
Zn481 O488 1.919 . S
Zn481 O493 1.924 . S
O482 Zn481 1.949 1_455 S
O482 Zn483 1.923 1_445 S
O482 Zn484 1.950 . S
O482 Zn485 1.945 1_545 S
Zn483 O482 1.923 1_665 S
Zn483 O486 1.933 . S
Zn483 O489 1.941 1_565 S
Zn483 O490 1.965 1_665 S
Zn484 O482 1.950 . S
Zn484 O491 1.938 . S
Zn484 O492 1.906 1_545 S
Zn484 O502 1.953 . S
Zn485 O482 1.945 1_565 S
Zn485 O487 1.932 1_455 S
Zn485 O494 1.977 . S
Zn485 O495 1.910 1_455 S
O486 Zn483 1.933 . S
O486 C497 1.226 . S
O487 Zn485 1.932 1_655 S
O487 C497 1.307 . S
O488 Zn481 1.919 . S
O488 C499 1.253 . S
O489 Zn483 1.941 1_545 S
O489 C499 1.283 . S
O490 Zn483 1.965 1_445 S
O490 C498 1.303 . S
O491 Zn484 1.938 . S
O491 C498 1.247 . S
O492 Zn484 1.906 1_565 S
O492 C500 1.304 . S
O493 Zn481 1.924 . S
O493 C501 1.311 1_545 S
O494 Zn485 1.977 . S
O494 C500 1.272 . S
O495 Zn485 1.910 1_655 S
O495 C501 1.231 . S
C496 O480 1.225 1_455 S
C496 O502 1.298 . S
C497 O486 1.226 . S
C497 O487 1.307 . S
C498 O490 1.303 . S
C498 O491 1.247 . S
C499 O488 1.253 . S
C499 O489 1.283 . S
C500 O492 1.304 . S
C500 O494 1.272 . S
C501 O493 1.311 1_565 S
C501 O495 1.231 . S
O502 Zn484 1.953 . S
O502 C496 1.298 . S
O503 Zn504 1.953 . S
O503 C519 1.225 . S
Zn504 O503 1.953 . S
Zn504 O505 1.949 1_556 S
Zn504 O511 1.919 . S
Zn504 O516 1.924 . S
O505 Zn504 1.949 1_554 S
O505 Zn506 1.923 1_544 S
O505 Zn507 1.950 . S
O505 Zn508 1.945 1_545 S
Zn506 O505 1.923 1_566 S
Zn506 O509 1.933 1_556 S
Zn506 O512 1.941 . S
Zn506 O513 1.965 . S
Zn507 O505 1.950 . S
Zn507 O514 1.938 . S
Zn507 O515 1.906 . S
Zn507 O525 1.953 . S
Zn508 O505 1.945 1_565 S
Zn508 O510 1.932 . S
Zn508 O517 1.977 1_565 S
Zn508 O518 1.910 1_565 S
O509 Zn506 1.933 1_554 S
O509 C520 1.226 . S
O510 Zn508 1.932 . S
O510 C520 1.307 . S
O511 Zn504 1.919 . S
O511 C522 1.253 1_545 S
O512 Zn506 1.941 . S
O512 C522 1.283 . S
O513 Zn506 1.965 . S
O513 C521 1.303 . S
O514 Zn507 1.938 . S
O514 C521 1.247 1_544 S
O515 Zn507 1.906 . S
O515 C523 1.304 . S
O516 Zn504 1.924 . S
O516 C524 1.311 1_556 S
O517 Zn508 1.977 1_545 S
O517 C523 1.272 . S
O518 Zn508 1.910 1_545 S
O518 C524 1.231 . S
C519 O503 1.225 . S
C519 O525 1.298 1_556 S
C520 O509 1.226 . S
C520 O510 1.307 . S
C521 O513 1.303 . S
C521 O514 1.247 1_566 S
C522 O511 1.253 1_565 S
C522 O512 1.283 . S
C523 O515 1.304 . S
C523 O517 1.272 . S
C524 O516 1.311 1_554 S
C524 O518 1.231 . S
O525 Zn507 1.953 . S
O525 C519 1.298 1_554 S
O526 Zn527 1.953 . S
O526 C542 1.225 . S
Zn527 O526 1.953 . S
Zn527 O528 1.949 . S
Zn527 O534 1.919 . S
Zn527 O539 1.924 . S
O528 Zn527 1.949 . S
O528 Zn529 1.923 . S
O528 Zn530 1.950 . S
O528 Zn531 1.945 . S
Zn529 O528 1.923 . S
Zn529 O532 1.933 . S
Zn529 O535 1.941 . S
Zn529 O536 1.965 . S
Zn530 O528 1.950 . S
Zn530 O537 1.938 . S
Zn530 O538 1.906 . S
Zn530 O548 1.953 . S
Zn531 O528 1.945 . S
Zn531 O533 1.932 . S
Zn531 O540 1.977 . S
Zn531 O541 1.910 . S
O532 Zn529 1.933 . S
O532 C543 1.226 . S
O533 Zn531 1.932 . S
O533 C543 1.307 . S
O534 Zn527 1.919 . S
O534 C545 1.253 . S
O535 Zn529 1.941 . S
O535 C545 1.283 . S
O536 Zn529 1.965 . S
O536 C544 1.303 . S
O537 Zn530 1.938 . S
O537 C544 1.247 . S
O538 Zn530 1.906 . S
O538 C546 1.304 . S
O539 Zn527 1.924 . S
O539 C547 1.311 . S
O540 Zn531 1.977 . S
O540 C546 1.272 . S
O541 Zn531 1.910 . S
O541 C547 1.231 . S
C542 O526 1.225 . S
C542 O548 1.298 . S
C543 O532 1.226 . S
C543 O533 1.307 . S
C544 O536 1.303 . S
C544 O537 1.247 . S
C545 O534 1.253 . S
C545 O535 1.283 . S
C546 O538 1.304 . S
C546 O540 1.272 . S
C547 O539 1.311 . S
C547 O541 1.231 . S
O548 Zn530 1.953 . S
O548 C542 1.298 . S
O549 Zn550 1.953 . S
O549 C565 1.225 . S
Zn550 O549 1.953 . S
Zn550 O551 1.949 1_655 S
Zn550 O557 1.919 . S
Zn550 O562 1.924 . S
O551 Zn550 1.949 1_455 S
O551 Zn552 1.923 1_454 S
O551 Zn553 1.950 . S
O551 Zn554 1.945 1_554 S
Zn552 O551 1.923 1_656 S
Zn552 O555 1.933 1_655 S
Zn552 O558 1.941 . S
Zn552 O559 1.965 . S
Zn553 O551 1.950 . S
Zn553 O560 1.938 . S
Zn553 O561 1.906 . S
Zn553 O571 1.953 . S
Zn554 O551 1.945 1_556 S
Zn554 O556 1.932 . S
Zn554 O563 1.977 1_556 S
Zn554 O564 1.910 1_556 S
O555 Zn552 1.933 1_455 S
O555 C566 1.226 . S
O556 Zn554 1.932 . S
O556 C566 1.307 . S
O557 Zn550 1.919 . S
O557 C568 1.253 1_554 S
O558 Zn552 1.941 . S
O558 C568 1.283 . S
O559 Zn552 1.965 . S
O559 C567 1.303 . S
O560 Zn553 1.938 . S
O560 C567 1.247 1_454 S
O561 Zn553 1.906 . S
O561 C569 1.304 . S
O562 Zn550 1.924 . S
O562 C570 1.311 1_655 S
O563 Zn554 1.977 1_554 S
O563 C569 1.272 . S
O564 Zn554 1.910 1_554 S
O564 C570 1.231 . S
C565 O549 1.225 . S
C565 O571 1.298 1_655 S
C566 O555 1.226 . S
C566 O556 1.307 . S
C567 O559 1.303 . S
C567 O560 1.247 1_656 S
C568 O557 1.253 1_556 S
C568 O558 1.283 . S
C569 O561 1.304 . S
C569 O563 1.272 . S
C570 O562 1.311 1_455 S
C570 O564 1.231 . S
O571 Zn553 1.953 . S
O571 C565 1.298 1_455 S
C1 C498 1.927 . S
C80 C522 1.653 . S
C542 C140 1.615 . S
C211 C565 1.643 . S
C524 C31 1.836 . S
C500 C61 1.758 . S
C568 C151 1.803 . S
C545 C200 1.747 . S
C20 C570 1.523 . S
C519 C121 1.739 . S
C181 C497 1.766 . S
C91 C547 1.419 . S
C501 C260 2.401 1_565 S
C320 C523 2.014 . S
C361 C543 2.378 . S
C451 C566 2.231 . S
C271 C521 2.283 1_544 S
C499 C301 2.319 1_545 S
C569 C380 1.961 . S
C546 C440 1.892 . S
C241 C567 2.505 1_455 S
C520 C391 2.315 . S
C496 C421 2.155 . S
C331 C544 2.263 . S
