# Generated by pormake.
# Topology dag, (6,3)-cn, num edge types: 1
# Building blocks:
#     Node 0, Type 0, BuildingBlock: OJICUG_clean_sbu_0, # of connection points: 6
#     Node 1, Type 0, BuildingBlock: OJICUG_clean_sbu_0, # of connection points: 6
#     Node 2, Type 0, BuildingBlock: OJICUG_clean_sbu_0, # of connection points: 6
#     Node 3, Type 0, BuildingBlock: OJICUG_clean_sbu_0, # of connection points: 6
#     Node 4, Type 1, BuildingBlock: CUQRIR_clean_linker_1, # of connection points: 3
#     Node 5, Type 1, BuildingBlock: CUQRIR_clean_linker_1, # of connection points: 3
#     Node 6, Type 1, BuildingBlock: CUQRIR_clean_linker_1, # of connection points: 3
#     Node 7, Type 1, BuildingBlock: CUQRIR_clean_linker_1, # of connection points: 3
#     Node 8, Type 1, BuildingBlock: CUQRIR_clean_linker_1, # of connection points: 3
#     Node 9, Type 1, BuildingBlock: CUQRIR_clean_linker_1, # of connection points: 3
#     Node 10, Type 1, BuildingBlock: CUQRIR_clean_linker_1, # of connection points: 3
#     Node 11, Type 1, BuildingBlock: CUQRIR_clean_linker_1, # of connection points: 3
#     Edge 12, Type (0, 1), BuildingBlock: UVAHIK_clean_linker_0, # of connection points: 2
#     Edge 13, Type (0, 1), BuildingBlock: UVAHIK_clean_linker_0, # of connection points: 2
#     Edge 14, Type (0, 1), BuildingBlock: UVAHIK_clean_linker_0, # of connection points: 2
#     Edge 15, Type (0, 1), BuildingBlock: UVAHIK_clean_linker_0, # of connection points: 2
#     Edge 16, Type (0, 1), BuildingBlock: UVAHIK_clean_linker_0, # of connection points: 2
#     Edge 17, Type (0, 1), BuildingBlock: UVAHIK_clean_linker_0, # of connection points: 2
#     Edge 18, Type (0, 1), BuildingBlock: UVAHIK_clean_linker_0, # of connection points: 2
#     Edge 19, Type (0, 1), BuildingBlock: UVAHIK_clean_linker_0, # of connection points: 2
#     Edge 20, Type (0, 1), BuildingBlock: UVAHIK_clean_linker_0, # of connection points: 2
#     Edge 21, Type (0, 1), BuildingBlock: UVAHIK_clean_linker_0, # of connection points: 2
#     Edge 22, Type (0, 1), BuildingBlock: UVAHIK_clean_linker_0, # of connection points: 2
#     Edge 23, Type (0, 1), BuildingBlock: UVAHIK_clean_linker_0, # of connection points: 2
#     Edge 24, Type (0, 1), BuildingBlock: UVAHIK_clean_linker_0, # of connection points: 2
#     Edge 25, Type (0, 1), BuildingBlock: UVAHIK_clean_linker_0, # of connection points: 2
#     Edge 26, Type (0, 1), BuildingBlock: UVAHIK_clean_linker_0, # of connection points: 2
#     Edge 27, Type (0, 1), BuildingBlock: UVAHIK_clean_linker_0, # of connection points: 2
#     Edge 28, Type (0, 1), BuildingBlock: UVAHIK_clean_linker_0, # of connection points: 2
#     Edge 29, Type (0, 1), BuildingBlock: UVAHIK_clean_linker_0, # of connection points: 2
#     Edge 30, Type (0, 1), BuildingBlock: UVAHIK_clean_linker_0, # of connection points: 2
#     Edge 31, Type (0, 1), BuildingBlock: UVAHIK_clean_linker_0, # of connection points: 2
#     Edge 32, Type (0, 1), BuildingBlock: UVAHIK_clean_linker_0, # of connection points: 2
#     Edge 33, Type (0, 1), BuildingBlock: UVAHIK_clean_linker_0, # of connection points: 2
#     Edge 34, Type (0, 1), BuildingBlock: UVAHIK_clean_linker_0, # of connection points: 2
#     Edge 35, Type (0, 1), BuildingBlock: UVAHIK_clean_linker_0, # of connection points: 2
# Relax obj value: 0.085
# Max RMSD: 0.083
# Mean RMSD: 0.074
data_MOF--net-dag--node1-OJICUG_clean_sbu_0--node2-CUQRIR_clean_linker_1--edge1-UVAHIK_clean_linker_0
_symmetry_space_group_name_H-M    P1
_symmetry_Int_Tables_number       1
_symmetry_cell_setting            triclinic
loop_
_symmetry_equiv_pos_as_xyz
'x, y, z'
_cell_length_a     45.999857
_cell_length_b     46.630214
_cell_length_c     48.053534
_cell_angle_alpha  92.545113
_cell_angle_beta   90.102672
_cell_angle_gamma 90.090007
loop_
_atom_site_label
_atom_site_type_symbol
_atom_site_fract_x
_atom_site_fract_y
_atom_site_fract_z
_atom_type_partial_charge
Sc0 Sc 0.08368 0.90768 0.0162 0.0
Sc1 Sc 0.09944 0.83359 0.01279 0.0
Sc2 Sc 0.15215 0.88346 0.03784 0.0
O3 O 0.11176 0.87489 0.02221 0.0
C4 C 0.14443 0.93393 0.99644 0.0
C5 C 0.07354 0.86697 0.96166 0.0
C6 C 0.16581 0.8319 0.99378 0.0
C7 C 0.04071 0.85979 0.03815 0.0
C8 C 0.11313 0.92851 0.07348 0.0
C9 C 0.1328 0.82879 0.07082 0.0
O10 O 0.1168 0.93372 -0.00207 0.0
O11 O 0.08226 0.8442 0.97271 0.0
O12 O 0.17351 0.85323 0.00946 0.0
O13 O 0.04729 0.88572 0.0339 0.0
O14 O 0.13652 0.91475 0.06855 0.0
O15 O 0.11521 0.81902 0.0522 0.0
O16 O 0.09142 0.9273 0.05706 0.0
O17 O 0.05739 0.83889 0.0317 0.0
O18 O 0.14733 0.85176 0.06844 0.0
O19 O 0.07301 0.89134 0.97471 0.0
O20 O 0.16036 0.91627 0.00887 0.0
O21 O 0.13977 0.82285 0.99241 0.0
Sc22 Sc 0.65367 0.61504 0.48527 0.0
Sc23 Sc 0.5993 0.66632 0.50133 0.0
Sc24 Sc 0.58402 0.59231 0.50479 0.0
O25 O 0.61232 0.62456 0.4972 0.0
C26 C 0.61723 0.56761 0.45054 0.0
C27 C 0.63818 0.66738 0.44699 0.0
C28 C 0.54282 0.63618 0.47433 0.0
C29 C 0.6641 0.66927 0.52618 0.0
C30 C 0.64236 0.56754 0.53002 0.0
C31 C 0.56993 0.63883 0.5539 0.0
O32 O 0.63916 0.58412 0.45359 0.0
O33 O 0.61648 0.67633 0.46118 0.0
O34 O 0.54966 0.61098 0.48095 0.0
O35 O 0.672 0.64506 0.51563 0.0
O36 O 0.61483 0.56948 0.52923 0.0
O37 O 0.58025 0.6603 0.54172 0.0
O38 O 0.65889 0.58224 0.515 0.0
O39 O 0.63915 0.68005 0.52191 0.0
O40 O 0.56946 0.61351 0.54292 0.0
O41 O 0.65401 0.64659 0.45401 0.0
O42 O 0.59617 0.56763 0.46766 0.0
O43 O 0.55824 0.65806 0.48096 0.0
Sc44 Sc 0.89641 0.16645 0.00165 0.0
Sc45 Sc 0.84316 0.11423 0.98414 0.0
Sc46 Sc 0.91355 0.09283 0.00303 0.0
O47 O 0.88438 0.1245 0.99632 0.0
C48 C 0.95415 0.13885 0.97505 0.0
C49 C 0.85829 0.16737 0.94666 0.0
C50 C 0.8808 0.06862 0.94825 0.0
C51 C 0.83133 0.16777 0.02545 0.0
C52 C 0.9258 0.13812 0.05384 0.0
C53 C 0.8556 0.0661 0.02774 0.0
O54 O 0.93811 0.16008 0.98209 0.0
O55 O 0.84278 0.14606 0.95307 0.0
O56 O 0.90249 0.06957 0.96473 0.0
O57 O 0.85617 0.17896 0.02177 0.0
O58 O 0.92739 0.11321 0.04195 0.0
O59 O 0.83857 0.08131 0.01372 0.0
O60 O 0.91467 0.15955 0.04221 0.0
O61 O 0.8239 0.14362 0.0144 0.0
O62 O 0.88311 0.06811 0.02624 0.0
O63 O 0.87953 0.17675 0.96143 0.0
O64 O 0.94771 0.11322 0.98049 0.0
O65 O 0.85799 0.08356 0.95248 0.0
Sc66 Sc 0.4164 0.40881 0.51688 0.0
Sc67 Sc 0.34651 0.38638 0.53524 0.0
Sc68 Sc 0.39869 0.33508 0.51284 0.0
O69 O 0.38722 0.37668 0.52159 0.0
C70 C 0.42597 0.36852 0.46219 0.0
C71 C 0.35727 0.43714 0.49557 0.0
C72 C 0.33302 0.33433 0.49155 0.0
C73 C 0.38591 0.42991 0.57284 0.0
C74 C 0.4577 0.35963 0.53905 0.0
C75 C 0.36319 0.33194 0.56975 0.0
O76 O 0.4264 0.39297 0.47516 0.0
O77 O 0.34032 0.41849 0.50517 0.0
O78 O 0.35887 0.32486 0.49121 0.0
O79 O 0.40875 0.42698 0.55815 0.0
O80 O 0.44026 0.33918 0.53307 0.0
O81 O 0.34957 0.35527 0.56653 0.0
O82 O 0.45212 0.38556 0.53405 0.0
O83 O 0.36182 0.41812 0.56601 0.0
O84 O 0.38099 0.3212 0.55185 0.0
O85 O 0.38462 0.43706 0.49956 0.0
O86 O 0.41734 0.34567 0.47327 0.0
O87 O 0.32535 0.35606 0.50663 0.0
C88 C 0.099 0.1726 0.32309 0.0
N89 N 0.09023 0.15164 0.30468 0.0
N90 N 0.1224 0.16401 0.33765 0.0
C91 C 0.08668 0.20245 0.32471 0.0
C92 C 0.12764 0.13704 0.32724 0.0
N93 N 0.10816 0.12955 0.30701 0.0
C94 C 0.15302 0.11901 0.33555 0.0
H95 H 0.09589 0.21476 0.30755 0.0
H96 H 0.09218 0.21367 0.34489 0.0
H97 H 0.06272 0.20175 0.32206 0.0
H98 H 0.15715 0.12184 0.35824 0.0
H99 H 0.17275 0.12615 0.32453 0.0
H100 H 0.14913 0.09594 0.33017 0.0
C101 C 0.37106 0.63484 0.82799 0.0
N102 N 0.39135 0.62838 0.80842 0.0
N103 N 0.3746 0.66206 0.83852 0.0
C104 C 0.34733 0.61475 0.83629 0.0
C105 C 0.39776 0.672 0.82445 0.0
N106 N 0.40802 0.65147 0.80627 0.0
C107 C 0.40827 0.70259 0.82649 0.0
H108 H 0.32842 0.617 0.8222 0.0
H109 H 0.34021 0.61987 0.858 0.0
H110 H 0.3549 0.59216 0.83433 0.0
H111 H 0.41607 0.70781 0.84797 0.0
H112 H 0.38993 0.71723 0.8223 0.0
H113 H 0.42626 0.70646 0.8118 0.0
C114 C 0.72553 0.81791 0.18556 0.0
N115 N 0.74601 0.82542 0.16706 0.0
N116 N 0.73245 0.79252 0.19655 0.0
C117 C 0.7003 0.83645 0.19478 0.0
C118 C 0.75785 0.78494 0.18399 0.0
N119 N 0.76608 0.80494 0.16611 0.0
C120 C 0.77589 0.75934 0.19095 0.0
H121 H 0.70502 0.8462 0.21579 0.0
H122 H 0.68031 0.82334 0.19631 0.0
H123 H 0.69622 0.85375 0.18017 0.0
H124 H 0.78595 0.74955 0.17187 0.0
H125 H 0.76258 0.74291 0.20105 0.0
H126 H 0.79368 0.76646 0.20528 0.0
C127 C 0.77426 0.31846 0.68454 0.0
N128 N 0.75378 0.32599 0.666 0.0
N129 N 0.76744 0.2929 0.69526 0.0
C130 C 0.79937 0.33712 0.69409 0.0
C131 C 0.74212 0.28523 0.68248 0.0
N132 N 0.73383 0.30533 0.66473 0.0
C133 C 0.72414 0.25948 0.6892 0.0
H134 H 0.81925 0.32406 0.69641 0.0
H135 H 0.79416 0.34731 0.71478 0.0
H136 H 0.80388 0.3541 0.67923 0.0
H137 H 0.70609 0.26646 0.7032 0.0
H138 H 0.73738 0.24319 0.69958 0.0
H139 H 0.71442 0.24953 0.66998 0.0
C140 C 0.59399 0.32689 0.19308 0.0
N141 N 0.58699 0.34542 0.21447 0.0
N142 N 0.62209 0.33056 0.18548 0.0
C143 C 0.5732 0.30594 0.1791 0.0
C144 C 0.63196 0.35181 0.20323 0.0
N145 N 0.6106 0.36088 0.22075 0.0
C146 C 0.6632 0.36137 0.20557 0.0
H147 H 0.57391 0.28545 0.18995 0.0
H148 H 0.57928 0.30158 0.15698 0.0
H149 H 0.55063 0.31429 0.18027 0.0
H150 H 0.6669 0.37898 0.1912 0.0
H151 H 0.67818 0.34348 0.19973 0.0
H152 H 0.66848 0.36947 0.22704 0.0
C153 C 0.23532 0.20126 0.81922 0.0
N154 N 0.22688 0.18315 0.83887 0.0
N155 N 0.26321 0.19589 0.81155 0.0
C156 C 0.21552 0.22212 0.80553 0.0
C157 C 0.27132 0.17374 0.82712 0.0
N158 N 0.24926 0.16609 0.84377 0.0
C159 C 0.30096 0.16023 0.8267 0.0
H160 H 0.22169 0.22456 0.78345 0.0
H161 H 0.21742 0.24338 0.81669 0.0
H162 H 0.19251 0.21506 0.80642 0.0
H163 H 0.31774 0.17581 0.82049 0.0
H164 H 0.301 0.14174 0.81134 0.0
H165 H 0.30647 0.15217 0.84744 0.0
C166 C 0.22713 0.67628 0.32897 0.0
N167 N 0.2507 0.66815 0.34345 0.0
N168 N 0.23481 0.69527 0.30976 0.0
C169 C 0.19652 0.66665 0.33431 0.0
C170 C 0.26396 0.69829 0.313 0.0
N171 N 0.27359 0.68176 0.33347 0.0
C172 C 0.28326 0.71529 0.29458 0.0
H173 H 0.19186 0.64704 0.32114 0.0
H174 H 0.18073 0.68349 0.32889 0.0
H175 H 0.1937 0.66145 0.35645 0.0
H176 H 0.28456 0.73772 0.30321 0.0
H177 H 0.27426 0.71563 0.27316 0.0
H178 H 0.30557 0.7063 0.29366 0.0
C179 C 0.86833 0.85732 0.69701 0.0
N180 N 0.8894 0.86561 0.71525 0.0
N181 N 0.87706 0.83413 0.68117 0.0
C182 C 0.83813 0.86975 0.69691 0.0
C183 C 0.90416 0.82856 0.69074 0.0
N184 N 0.91164 0.84775 0.71147 0.0
C185 C 0.92361 0.80503 0.67931 0.0
H186 H 0.82171 0.85266 0.69269 0.0
H187 H 0.83664 0.88534 0.68018 0.0
H188 H 0.83292 0.88117 0.71702 0.0
H189 H 0.91836 0.79957 0.65715 0.0
H190 H 0.92039 0.7856 0.69145 0.0
H191 H 0.94678 0.81153 0.6812 0.0
C192 C 0.08442 0.95562 0.11046 0.0
C193 C 0.11141 0.94692 0.09936 0.0
C194 C 0.08303 0.97292 0.13498 0.0
C195 C 0.12825 -0.00085 0.1957 0.0
H196 H 0.06916 0.05825 0.20252 0.0
C197 C 0.13413 0.09784 0.27288 0.0
C198 C 0.10881 0.10478 0.28796 0.0
C199 C 0.13375 0.07598 0.25203 0.0
C200 C 0.08557 0.04161 0.20102 0.0
H201 H 0.15811 0.94991 0.10511 0.0
H202 H 0.15579 0.98084 0.14701 0.0
H203 H 0.06973 0.02561 0.16147 0.0
H204 H 0.06345 0.09436 0.29345 0.0
H205 H 0.06246 0.05649 0.25631 0.0
H206 H 0.14475 0.01622 0.2348 0.0
C207 C 0.13558 0.97362 0.13746 0.0
C208 C 0.08587 0.0228 0.17754 0.0
C209 C 0.13694 0.956 0.11323 0.0
C210 C 0.0832 0.08926 0.28207 0.0
C211 C 0.08265 0.06774 0.26087 0.0
C212 C 0.12819 0.01826 0.21895 0.0
C213 C 0.10862 0.98228 0.14875 0.0
C214 C 0.10738 0.00144 0.17443 0.0
C215 C 0.10788 0.06109 0.2455 0.0
C216 C 0.10697 0.03976 0.22173 0.0
H217 H 0.06433 0.94877 0.1004 0.0
H218 H 0.06186 0.97873 0.14323 0.0
H219 H 0.14474 0.98261 0.19444 0.0
H220 H 0.15389 0.11009 0.27645 0.0
H221 H 0.15339 0.07153 0.24021 0.0
C222 C 0.5424 0.66853 0.58959 0.0
C223 C 0.55751 0.64326 0.58203 0.0
C224 C 0.5286 0.67148 0.61548 0.0
C225 C 0.50227 0.62692 0.673 0.0
H226 H 0.49049 0.70114 0.71095 0.0
C227 C 0.45516 0.64144 0.78397 0.0
C228 C 0.42824 0.65542 0.78404 0.0
C229 C 0.47316 0.64201 0.76063 0.0
C230 C 0.49376 0.68033 0.7005 0.0
H231 H 0.57157 0.602 0.59602 0.0
H232 H 0.54911 0.60769 0.64165 0.0
H233 H 0.51892 0.69789 0.66797 0.0
H234 H 0.39932 0.68212 0.76103 0.0
H235 H 0.43154 0.68426 0.7203 0.0
H236 H 0.47778 0.60946 0.70618 0.0
C237 C 0.54653 0.62475 0.6273 0.0
C238 C 0.5098 0.67841 0.67578 0.0
C239 C 0.55966 0.62154 0.6012 0.0
C240 C 0.42016 0.67136 0.76121 0.0
C241 C 0.43846 0.67252 0.7381 0.0
C242 C 0.48684 0.62882 0.69798 0.0
C243 C 0.5302 0.64946 0.6346 0.0
C244 C 0.5141 0.65167 0.66155 0.0
C245 C 0.46475 0.65728 0.73742 0.0
C246 C 0.4823 0.65552 0.71178 0.0
H247 H 0.54028 0.68553 0.57507 0.0
H248 H 0.51594 0.69065 0.62005 0.0
H249 H 0.50431 0.60604 0.66244 0.0
H250 H 0.46176 0.62941 0.80166 0.0
H251 H 0.49343 0.6302 0.7605 0.0
C252 C 0.81241 0.04191 0.04832 0.0
C253 C 0.84277 0.04417 0.04547 0.0
C254 C 0.80018 0.01986 0.0632 0.0
C255 C 0.81625 0.94703 0.08423 0.0
H256 H 0.74947 0.95818 0.13271 0.0
C257 C 0.75107 0.87809 0.16861 0.0
C258 C 0.74862 0.85197 0.15314 0.0
C259 C 0.75975 0.90294 0.15563 0.0
C260 C 0.76815 0.9548 0.11927 0.0
H261 H 0.88405 0.02552 0.05703 0.0
H262 H 0.86263 0.98713 0.08306 0.0
H263 H 0.77173 -0.00045 0.11139 0.0
H264 H 0.752 0.83119 0.11223 0.0
H265 H 0.76695 0.87465 0.08927 0.0
H266 H 0.81295 0.90242 0.09227 0.0
C267 C 0.84834 0.00226 0.07344 0.0
C268 C 0.78077 0.97841 0.10696 0.0
C269 C 0.8606 0.02437 0.05864 0.0
C270 C 0.75359 0.85127 0.12436 0.0
C271 C 0.7624 0.87599 0.1114 0.0
C272 C 0.80356 0.92347 0.09639 0.0
C273 C 0.818 -0.00049 0.07551 0.0
C274 C 0.80496 0.97474 0.0893 0.0
C275 C 0.76635 0.9019 0.12704 0.0
C276 C 0.77932 0.92708 0.11394 0.0
H277 H 0.79799 0.05682 0.03855 0.0
H278 H 0.77672 0.01818 0.06426 0.0
H279 H 0.83465 0.94346 0.07049 0.0
H280 H 0.74802 0.87883 0.19096 0.0
H281 H 0.76287 0.92253 0.16824 0.0
C282 C 0.50128 0.37417 0.56759 0.0
C283 C 0.48592 0.35294 0.552 0.0
C284 C 0.52807 0.36792 0.5796 0.0
C285 C 0.57514 0.30671 0.59856 0.0
H286 H 0.63419 0.36618 0.60401 0.0
C287 C 0.69581 0.28922 0.63123 0.0
C288 C 0.70535 0.30819 0.65279 0.0
C289 C 0.66881 0.29336 0.61858 0.0
C290 C 0.61782 0.34942 0.60264 0.0
H291 H 0.48672 0.30856 0.53647 0.0
H292 H 0.53393 0.29792 0.55644 0.0
H293 H 0.58777 0.37607 0.58193 0.0
H294 H 0.69445 0.3457 0.67867 0.0
H295 H 0.64762 0.35367 0.65596 0.0
H296 H 0.60592 0.27992 0.61866 0.0
C297 C 0.52497 0.31919 0.5602 0.0
C298 C 0.59113 0.3551 0.59019 0.0
C299 C 0.49794 0.32532 0.5486 0.0
C300 C 0.68749 0.33108 0.66183 0.0
C301 C 0.66086 0.33559 0.64888 0.0
C302 C 0.60207 0.30091 0.61058 0.0
C303 C 0.54042 0.3404 0.57588 0.0
C304 C 0.56926 0.33395 0.58829 0.0
C305 C 0.65136 0.31687 0.62706 0.0
C306 C 0.62346 0.32233 0.61301 0.0
H307 H 0.49243 0.39558 0.57081 0.0
H308 H 0.53892 0.38465 0.59204 0.0
H309 H 0.55875 0.29001 0.59789 0.0
H310 H 0.70954 0.27164 0.62386 0.0
H311 H 0.6619 0.27874 0.60169 0.0
C312 C 0.60006 0.5217 0.42719 0.0
C313 C 0.61638 0.5471 0.42623 0.0
C314 C 0.5998 0.5019 0.40454 0.0
C315 C 0.64019 0.48165 0.33949 0.0
H316 H 0.57072 0.43666 0.3232 0.0
C317 C 0.62221 0.40973 0.23907 0.0
C318 C 0.61332 0.38157 0.24373 0.0
C319 C 0.62339 0.43025 0.26114 0.0
C320 C 0.59027 0.44905 0.32764 0.0
H321 H 0.64467 0.57207 0.40057 0.0
H322 H 0.64326 0.53817 0.36055 0.0
H323 H 0.57034 0.47275 0.36148 0.0
H324 H 0.59993 0.35222 0.27491 0.0
H325 H 0.60075 0.38844 0.31345 0.0
H326 H 0.65962 0.45833 0.30484 0.0
C327 C 0.63143 0.53296 0.37912 0.0
C328 C 0.59018 0.46961 0.34965 0.0
C329 C 0.63211 0.55252 0.402 0.0
C330 C 0.60623 0.37401 0.27083 0.0
C331 C 0.60678 0.39462 0.29277 0.0
C332 C 0.64007 0.46144 0.31714 0.0
C333 C 0.61542 0.50727 0.38015 0.0
C334 C 0.61523 0.48602 0.35607 0.0
C335 C 0.61525 0.42293 0.28807 0.0
C336 C 0.61521 0.44482 0.31122 0.0
H337 H 0.58795 0.51679 0.4457 0.0
H338 H 0.58773 0.48214 0.40642 0.0
H339 H 0.66006 0.49342 0.34403 0.0
H340 H 0.6277 0.41587 0.21825 0.0
H341 H 0.62992 0.45199 0.25706 0.0
C342 C 0.99704 0.12151 0.94683 0.0
C343 C 0.98156 0.1443 0.95997 0.0
C344 C 0.02289 0.1267 0.93264 0.0
C345 C 0.08303 0.17797 0.92929 0.0
H346 H 0.09633 0.14203 0.85612 0.0
C347 C 0.18504 0.20345 0.86491 0.0
C348 C 0.19817 0.18028 0.85029 0.0
C349 C 0.1578 0.20014 0.87726 0.0
C350 C 0.09314 0.15198 0.87668 0.0
H351 H 0.98125 0.19042 0.9685 0.0
H352 H 0.02649 0.19933 0.94392 0.0
H353 H 0.0506 0.13373 0.88007 0.0
H354 H 0.19319 0.13591 0.83613 0.0
H355 H 0.14618 0.12956 0.85849 0.0
H356 H 0.12576 0.19568 0.92633 0.0
C357 C 0.01857 0.17749 0.94466 0.0
C358 C 0.0669 0.14726 0.89034 0.0
C359 C 0.99258 0.17236 0.95861 0.0
C360 C 0.1835 0.15393 0.84765 0.0
C361 C 0.15646 0.15047 0.86018 0.0
C362 C 0.1094 0.18249 0.91575 0.0
C363 C 0.03396 0.15472 0.93151 0.0
C364 C 0.06162 0.16013 0.91682 0.0
C365 C 0.14329 0.1735 0.87528 0.0
C366 C 0.11484 0.16947 0.88931 0.0
H367 H 0.98916 0.09965 0.9474 0.0
H368 H 0.03445 0.10871 0.92289 0.0
H369 H 0.07967 0.18791 0.94984 0.0
H370 H 0.19611 0.22393 0.8671 0.0
H371 H 0.14812 0.21845 0.88833 0.0
C372 C 0.31788 0.45741 0.46636 0.0
C373 C 0.34446 0.46094 0.48051 0.0
C374 C 0.30526 0.48042 0.45315 0.0
C375 C 0.32257 0.55328 0.42866 0.0
H376 H 0.23858 0.56002 0.42523 0.0
C377 C 0.26691 0.65335 0.3894 0.0
C378 C 0.25204 0.64707 0.36435 0.0
C379 C 0.27467 0.63133 0.40664 0.0
C380 C 0.26204 0.55834 0.42621 0.0
H381 H 0.37845 0.49132 0.49241 0.0
H382 H 0.35597 0.53169 0.47057 0.0
H383 H 0.26042 0.51998 0.44889 0.0
H384 H 0.23147 0.61361 0.33865 0.0
H385 H 0.24382 0.57502 0.36963 0.0
H386 H 0.32397 0.59215 0.4066 0.0
C387 C 0.34525 0.51101 0.46863 0.0
C388 C 0.27462 0.53531 0.43946 0.0
C389 C 0.35815 0.48787 0.48129 0.0
C390 C 0.2426 0.6189 0.35807 0.0
C391 C 0.24982 0.59691 0.37564 0.0
C392 C 0.31 0.57655 0.41599 0.0
C393 C 0.31866 0.50762 0.45432 0.0
C394 C 0.30509 0.53236 0.44067 0.0
C395 C 0.26692 0.60286 0.39941 0.0
C396 C 0.27969 0.57915 0.41454 0.0
H397 H 0.30693 0.4368 0.46533 0.0
H398 H 0.28512 0.47675 0.44186 0.0
H399 H 0.34603 0.5515 0.42851 0.0
H400 H 0.27415 0.67504 0.39461 0.0
H401 H 0.28779 0.63632 0.42498 0.0
C402 C 0.05563 0.8382 0.91968 0.0
C403 C 0.06286 0.86495 0.93251 0.0
C404 C 0.04405 0.83645 0.89274 0.0
C405 C 0.00554 0.88086 0.84245 0.0
H406 H 0.0202 0.81569 0.79145 0.0
C407 C 0.95276 0.87304 0.73432 0.0
C408 C 0.93702 0.84759 0.72903 0.0
C409 C 0.97298 0.87506 0.75602 0.0
C410 C 0.01597 0.83402 0.80549 0.0
H411 H 0.06472 0.91077 0.92655 0.0
H412 H 0.04528 0.90767 0.87938 0.0
H413 H 0.04645 0.82 0.83571 0.0
H414 H 0.931 0.80385 0.74102 0.0
H415 H 0.96706 0.80696 0.77857 0.0
H416 H 0.97498 0.89477 0.81229 0.0
C417 C 0.04777 0.88806 0.89039 0.0
C418 C 0.03086 0.83644 0.83091 0.0
C419 C 0.05905 0.88984 0.91744 0.0
C420 C 0.94332 0.82349 0.74442 0.0
C421 C 0.96379 0.82538 0.76597 0.0
C422 C 0.99091 0.87857 0.81698 0.0
C423 C 0.03968 0.86139 0.87784 0.0
C424 C 0.02553 0.85971 0.8499 0.0
C425 C 0.97804 0.8515 0.77261 0.0
C426 C 0.99571 0.85497 0.79838 0.0
H427 H 0.05818 0.8186 0.93071 0.0
H428 H 0.0377 0.81558 0.88397 0.0
H429 H 0.00037 0.89877 0.85669 0.0
H430 H 0.94817 0.89181 0.72259 0.0
H431 H 0.98389 0.89536 0.76048 0.0
C432 C 0.90848 0.03638 0.91464 0.0
C433 C 0.88206 0.04907 0.92315 0.0
C434 C 0.90956 0.01759 0.89122 0.0
C435 C 0.90263 0.96538 0.85216 0.0
H436 H 0.85464 0.97804 0.78744 0.0
C437 C 0.88704 0.87799 0.76538 0.0
C438 C 0.88679 0.88663 0.73785 0.0
C439 C 0.88639 0.8984 0.78748 0.0
C440 C 0.8684 0.97432 0.80522 0.0
H441 H 0.83604 0.05195 0.9136 0.0
H442 H 0.8378 0.01867 0.87322 0.0
H443 H 0.85475 0.01332 0.82636 0.0
H444 H 0.88525 0.92271 0.71131 0.0
H445 H 0.88441 0.95888 0.74998 0.0
H446 H 0.91694 0.92684 0.83073 0.0
C447 C 0.85783 0.0237 0.88428 0.0
C448 C 0.86818 0.99437 0.82771 0.0
C449 C 0.85679 0.04268 0.90757 0.0
C450 C 0.88529 0.91586 0.73255 0.0
C451 C 0.88475 0.93638 0.75464 0.0
C452 C 0.903 0.94545 0.82963 0.0
C453 C 0.88421 0.01084 0.87587 0.0
C454 C 0.88513 0.99004 0.85154 0.0
C455 C 0.88554 0.92787 0.78239 0.0
C456 C 0.8857 0.94955 0.80599 0.0
H457 H 0.92842 0.04104 0.926 0.0
H458 H 0.93033 0.00847 0.88505 0.0
H459 H 0.91572 0.96117 0.87028 0.0
H460 H 0.88798 0.85541 0.76967 0.0
H461 H 0.88644 0.89106 0.80854 0.0
C462 C 0.44214 0.33986 0.41952 0.0
C463 C 0.43628 0.36663 0.43294 0.0
C464 C 0.45299 0.33822 0.39233 0.0
C465 C 0.49256 0.38191 0.34244 0.0
H466 H 0.4732 0.31897 0.29016 0.0
C467 C 0.54649 0.37305 0.23542 0.0
C468 C 0.56035 0.34661 0.23012 0.0
C469 C 0.5255 0.37598 0.25631 0.0
C470 C 0.47872 0.3367 0.30454 0.0
H471 H 0.43618 0.41265 0.4278 0.0
H472 H 0.45451 0.40975 0.38031 0.0
H473 H 0.44792 0.32359 0.33484 0.0
H474 H 0.56188 0.30208 0.24067 0.0
H475 H 0.52466 0.30687 0.27684 0.0
H476 H 0.52363 0.39477 0.31239 0.0
C477 C 0.45141 0.39002 0.39101 0.0
C478 C 0.46439 0.33928 0.33018 0.0
C479 C 0.44079 0.39167 0.41825 0.0
C480 C 0.5511 0.32254 0.2442 0.0
C481 C 0.52994 0.32538 0.26496 0.0
C482 C 0.5067 0.37944 0.31678 0.0
C483 C 0.45804 0.3633 0.37783 0.0
C484 C 0.47147 0.36168 0.34964 0.0
C485 C 0.51785 0.3524 0.27203 0.0
C486 C 0.50025 0.35659 0.29772 0.0
H487 H 0.43897 0.32013 0.43021 0.0
H488 H 0.45822 0.3173 0.38302 0.0
H489 H 0.499 0.39912 0.35704 0.0
H490 H 0.55337 0.39181 0.22467 0.0
H491 H 0.51625 0.39698 0.26106 0.0
C492 C 0.14191 0.97532 0.96501 0.0
C493 C 0.15867 0.95643 0.98042 0.0
C494 C 0.15514 0.99757 0.95123 0.0
C495 C 0.18579 0.05315 0.94032 0.0
H496 H 0.25794 0.04233 0.89959 0.0
C497 C 0.24053 0.14788 0.89014 0.0
C498 C 0.24865 0.14278 0.86229 0.0
C499 C 0.2341 0.12497 0.9068 0.0
C500 C 0.23779 0.04565 0.91089 0.0
H501 H 0.20264 0.94583 0.99287 0.0
H502 H 0.22562 0.98491 0.96903 0.0
H503 H 0.23625 0.00198 0.92285 0.0
H504 H 0.25793 0.1103 0.83013 0.0
H505 H 0.24665 0.06994 0.85912 0.0
H506 H 0.18661 0.09642 0.92759 0.0
C507 C 0.20227 0.98229 0.96742 0.0
C508 C 0.22549 0.02263 0.92438 0.0
C509 C 0.18905 0.95995 0.98117 0.0
C510 C 0.25209 0.11451 0.85174 0.0
C511 C 0.24556 0.09152 0.86833 0.0
C512 C 0.19802 0.0761 0.92684 0.0
C513 C 0.18542 0.00155 0.95258 0.0
C514 C 0.19917 0.02607 0.93898 0.0
C515 C 0.23556 0.09656 0.89577 0.0
C516 C 0.22405 0.07258 0.91179 0.0
H517 H 0.1185 0.97312 0.96376 0.0
H518 H 0.1416 0.01171 0.93949 0.0
H519 H 0.16573 0.05664 0.95175 0.0
H520 H 0.23786 0.16966 0.89851 0.0
H521 H 0.22699 0.12954 0.928 0.0
C522 C 0.50033 0.61666 0.44647 0.0
C523 C 0.51591 0.64033 0.45794 0.0
C524 C 0.47518 0.62071 0.43074 0.0
C525 C 0.43585 0.67573 0.39168 0.0
H526 H 0.36983 0.62525 0.40081 0.0
C527 C 0.3195 0.70057 0.35342 0.0
C528 C 0.30327 0.67754 0.34184 0.0
C529 C 0.34688 0.69579 0.36501 0.0
C530 C 0.38822 0.63929 0.39775 0.0
H531 H 0.51698 0.68689 0.46197 0.0
H532 H 0.47292 0.69388 0.43515 0.0
H533 H 0.41446 0.61723 0.42667 0.0
H534 H 0.30309 0.63193 0.33166 0.0
H535 H 0.35093 0.62333 0.35215 0.0
H536 H 0.40921 0.69815 0.3632 0.0
C537 C 0.48045 0.67217 0.43777 0.0
C538 C 0.41383 0.63469 0.41256 0.0
C539 C 0.50566 0.66814 0.45336 0.0
C540 C 0.31527 0.64988 0.34081 0.0
C541 C 0.34247 0.64501 0.35261 0.0
C542 C 0.41016 0.68043 0.377 0.0
C543 C 0.46491 0.64853 0.42622 0.0
C544 C 0.43793 0.65293 0.40982 0.0
C545 C 0.35834 0.66784 0.36529 0.0
C546 C 0.38604 0.66232 0.37996 0.0
H547 H 0.50768 0.59494 0.4494 0.0
H548 H 0.46399 0.60202 0.42184 0.0
H549 H 0.45415 0.68989 0.38867 0.0
H550 H 0.31042 0.72199 0.35449 0.0
H551 H 0.35852 0.71377 0.37479 0.0
C552 C 0.36168 0.46004 0.61039 0.0
C553 C 0.3872 0.44805 0.59889 0.0
C554 C 0.36278 0.47754 0.63471 0.0
C555 C 0.41417 0.52072 0.67954 0.0
H556 H 0.34915 0.52167 0.73086 0.0
C557 C 0.41371 0.58555 0.78539 0.0
C558 C 0.39031 0.60466 0.78825 0.0
C559 C 0.41392 0.56439 0.76385 0.0
C560 C 0.36744 0.52156 0.71668 0.0
H561 H 0.43384 0.44449 0.60423 0.0
H562 H 0.43569 0.47414 0.64726 0.0
H563 H 0.34897 0.48809 0.69049 0.0
H564 H 0.34845 0.61642 0.77181 0.0
H565 H 0.34809 0.57856 0.7347 0.0
H566 H 0.43276 0.55393 0.70633 0.0
C567 C 0.41488 0.47079 0.63707 0.0
C568 C 0.3673 0.5025 0.69342 0.0
C569 C 0.41383 0.45365 0.61245 0.0
C570 C 0.36654 0.60162 0.77005 0.0
C571 C 0.36642 0.58012 0.74888 0.0
C572 C 0.41452 0.53943 0.70309 0.0
C573 C 0.38937 0.48312 0.64847 0.0
C574 C 0.39044 0.50214 0.67424 0.0
C575 C 0.39033 0.56164 0.7453 0.0
C576 C 0.39096 0.54029 0.72162 0.0
H577 H 0.34085 0.45636 0.60031 0.0
H578 H 0.34275 0.48711 0.64239 0.0
H579 H 0.43217 0.52148 0.6651 0.0
H580 H 0.43192 0.58724 0.79965 0.0
H581 H 0.43246 0.55018 0.76164 0.0
C582 C 0.99752 0.87478 0.06693 0.0
C583 C 0.0123 0.85355 0.05092 0.0
C584 C 0.9708 0.86868 0.07916 0.0
C585 C 0.9237 0.80747 0.09822 0.0
H586 H 0.86507 0.86699 0.1056 0.0
C587 C 0.80392 0.78905 0.13253 0.0
C588 C 0.79451 0.80791 0.15417 0.0
C589 C 0.83073 0.7935 0.11967 0.0
C590 C 0.88133 0.85022 0.10371 0.0
H591 H 0.01041 0.80944 0.03467 0.0
H592 H 0.9634 0.79912 0.05501 0.0
H593 H 0.91107 0.87716 0.08292 0.0
H594 H 0.80541 0.84553 0.17998 0.0
H595 H 0.85192 0.85397 0.15696 0.0
H596 H 0.89329 0.78039 0.11845 0.0
C597 C 0.97276 0.82022 0.05898 0.0
C598 C 0.90777 0.85606 0.09089 0.0
C599 C -0.00032 0.82619 0.04715 0.0
C600 C 0.81231 0.83097 0.1631 0.0
C601 C 0.83874 0.83577 0.14996 0.0
C602 C 0.89703 0.80152 0.11063 0.0
C603 C 0.95799 0.84134 0.07527 0.0
C604 C 0.92946 0.83485 0.08822 0.0
C605 C 0.84811 0.81719 0.12802 0.0
C606 C 0.87578 0.82294 0.11373 0.0
H607 H 0.00681 0.896 0.07042 0.0
H608 H 0.96043 0.88535 0.092 0.0
H609 H 0.93998 0.79073 0.097 0.0
H610 H 0.79023 0.77136 0.12524 0.0
H611 H 0.8375 0.77897 0.1027 0.0
C612 C 0.68614 0.5437 0.54994 0.0
C613 C 0.65572 0.54601 0.54788 0.0
C614 C 0.69875 0.52169 0.56462 0.0
C615 C 0.71916 0.47991 0.60791 0.0
H616 H 0.6861 0.40417 0.59313 0.0
C617 C 0.74888 0.37868 0.66824 0.0
C618 C 0.75103 0.35274 0.65244 0.0
C619 C 0.74026 0.40375 0.65563 0.0
C620 C 0.69573 0.42515 0.59728 0.0
H621 H 0.61474 0.52764 0.56077 0.0
H622 H 0.63681 0.48934 0.5864 0.0
H623 H 0.66414 0.44555 0.5722 0.0
H624 H 0.74718 0.33252 0.61131 0.0
H625 H 0.73221 0.37636 0.58901 0.0
H626 H 0.7509 0.45926 0.63292 0.0
C627 C 0.65085 0.50438 0.57632 0.0
C628 C 0.68291 0.4489 0.5856 0.0
C629 C 0.63823 0.52644 0.56175 0.0
C630 C 0.74579 0.35245 0.6237 0.0
C631 C 0.73701 0.37738 0.61111 0.0
C632 C 0.73189 0.45611 0.61978 0.0
C633 C 0.68122 0.50146 0.57748 0.0
C634 C 0.69451 0.47652 0.59073 0.0
C635 C 0.7334 0.4031 0.62709 0.0
C636 C 0.72039 0.42848 0.61441 0.0
H637 H 0.7003 0.55846 0.53963 0.0
H638 H 0.72222 0.5199 0.56503 0.0
H639 H 0.72845 0.50098 0.61234 0.0
H640 H 0.75213 0.37913 0.69057 0.0
H641 H 0.73739 0.4232 0.66848 0.0
C642 C 0.94732 0.11855 0.09699 0.0
C643 C 0.93805 0.14231 0.08228 0.0
C644 C 0.96012 0.12241 0.12324 0.0
C645 C 0.0016 0.17502 0.16558 0.0
H646 H 0.98672 0.12294 0.22471 0.0
C647 C 0.04066 0.15443 0.28573 0.0
C648 C 0.07078 0.15522 0.28174 0.0
C649 C 0.02185 0.15583 0.26294 0.0
C650 C 0.99085 0.13789 0.20854 0.0
H651 H 0.93436 0.18877 0.08406 0.0
H652 H 0.95686 0.19543 0.12996 0.0
H653 H 0.95729 0.11967 0.18232 0.0
H654 H 0.10529 0.15858 0.25171 0.0
H655 H 0.07259 0.16113 0.21161 0.0
H656 H 0.03546 0.19293 0.19161 0.0
C657 C 0.95431 0.17385 0.12098 0.0
C658 C 0.9742 0.13584 0.18419 0.0
C659 C 0.94133 0.17 0.09475 0.0
C660 C 0.08201 0.15809 0.25496 0.0
C661 C 0.06332 0.15968 0.23221 0.0
C662 C 0.01834 0.17696 0.18986 0.0
C663 C 0.96407 0.1501 0.13538 0.0
C664 C 0.97972 0.15407 0.16228 0.0
C665 C 0.03304 0.15829 0.23591 0.0
C666 C 0.01346 0.15811 0.21139 0.0
H667 H 0.94504 0.0969 0.08812 0.0
H668 H 0.96773 0.1037 0.13366 0.0
H669 H 0.00652 0.18922 0.14898 0.0
H670 H 0.03184 0.15208 0.30639 0.0
H671 H 0.99862 0.15487 0.2664 0.0
C672 C 0.12668 0.78478 0.09869 0.0
C673 C 0.1364 0.81323 0.09676 0.0
C674 C 0.13106 0.77018 0.12317 0.0
C675 C 0.14733 0.78181 0.19814 0.0
H676 H 0.1852 0.70764 0.19112 0.0
C677 C 0.21664 0.73687 0.28537 0.0
C678 C 0.21685 0.7072 0.28875 0.0
C679 C 0.20111 0.74831 0.2635 0.0
C680 C 0.17408 0.72805 0.19352 0.0
H681 H 0.15753 0.84891 0.11936 0.0
H682 H 0.16512 0.82351 0.16174 0.0
H683 H 0.1677 0.73025 0.14952 0.0
H684 H 0.20081 0.66612 0.27268 0.0
H685 H 0.173 0.68605 0.23459 0.0
H686 H 0.15433 0.77999 0.24205 0.0
C687 C 0.15403 0.8125 0.14445 0.0
C688 C 0.16407 0.74099 0.16967 0.0
C689 C 0.14994 0.82695 0.12001 0.0
C690 C 0.20064 0.68913 0.27049 0.0
C691 C 0.18503 0.70052 0.24862 0.0
C692 C 0.15721 0.76883 0.222 0.0
C693 C 0.14486 0.78393 0.14624 0.0
C694 C 0.15135 0.76835 0.1717 0.0
C695 C 0.18547 0.7302 0.24462 0.0
C696 C 0.17143 0.74217 0.21987 0.0
H697 H 0.11614 0.77364 0.08116 0.0
H698 H 0.12372 0.74816 0.12407 0.0
H699 H 0.13715 0.80272 0.20032 0.0
H700 H 0.22899 0.75109 0.29937 0.0
H701 H 0.20225 0.77122 0.26081 0.0
C702 C 0.68406 0.71626 0.54477 0.0
C703 C 0.6855 0.68616 0.54303 0.0
C704 C 0.70564 0.73233 0.55882 0.0
C705 C 0.78129 0.72597 0.586 0.0
H706 H 0.76237 0.79813 0.62492 0.0
C707 C 0.85615 0.78736 0.66571 0.0
C708 C 0.85948 0.81689 0.66208 0.0
C709 C 0.83652 0.77122 0.64923 0.0
C710 C 0.76795 0.77812 0.6139 0.0
H711 H 0.71001 0.64921 0.55555 0.0
H712 H 0.74685 0.67705 0.58119 0.0
H713 H 0.72391 0.77008 0.60176 0.0
H714 H 0.84594 0.85255 0.6379 0.0
H715 H 0.81071 0.82448 0.60955 0.0
H716 H 0.82523 0.73373 0.59939 0.0
C717 C 0.72975 0.68843 0.57082 0.0
C718 C 0.74596 0.76205 0.60052 0.0
C719 C 0.70847 0.67241 0.55632 0.0
C720 C 0.84346 0.82986 0.64118 0.0
C721 C 0.82342 0.81386 0.62505 0.0
C722 C 0.80316 0.74182 0.59984 0.0
C723 C 0.7289 0.71864 0.57192 0.0
C724 C 0.75231 0.73575 0.58634 0.0
C725 C 0.81953 0.78449 0.62921 0.0
C726 C 0.79667 0.76805 0.61383 0.0
H727 H 0.66677 0.72748 0.53448 0.0
H728 H 0.7044 0.7555 0.55876 0.0
H729 H 0.78723 0.70618 0.57482 0.0
H730 H 0.86782 0.77704 0.68207 0.0
H731 H 0.83369 0.74865 0.65296 0.0
C732 C 0.81184 0.21408 0.04594 0.0
C733 C 0.80963 0.1841 0.04234 0.0
C734 C 0.79044 0.22974 0.06046 0.0
C735 C 0.71421 0.22403 0.08572 0.0
H736 H 0.73556 0.29232 0.13011 0.0
C737 C 0.63977 0.28366 0.16685 0.0
C738 C 0.63893 0.31367 0.16563 0.0
C739 C 0.65884 0.26756 0.14982 0.0
C740 C 0.7293 0.27342 0.11758 0.0
H741 H 0.7837 0.14692 0.05184 0.0
H742 H 0.74701 0.17407 0.0782 0.0
H743 H 0.77319 0.26437 0.10593 0.0
H744 H 0.65612 0.35033 0.14508 0.0
H745 H 0.6902 0.32225 0.11572 0.0
H746 H 0.67032 0.23278 0.09849 0.0
C747 C 0.76471 0.18567 0.06901 0.0
C748 C 0.75082 0.25742 0.10361 0.0
C749 C 0.78588 0.17005 0.05408 0.0
C750 C 0.6567 0.32723 0.14648 0.0
C751 C 0.67609 0.31122 0.12979 0.0
C752 C 0.69274 0.23981 0.1001 0.0
C753 C 0.76654 0.21577 0.07216 0.0
C754 C 0.74358 0.23257 0.08738 0.0
C755 C 0.67766 0.2813 0.13166 0.0
C756 C 0.70011 0.26471 0.11601 0.0
H757 H 0.82972 0.22557 0.03688 0.0
H758 H 0.79238 0.2529 0.06196 0.0
H759 H 0.70768 0.20535 0.07304 0.0
H760 H 0.62661 0.27284 0.18181 0.0
H761 H 0.65983 0.24452 0.15177 0.0
C762 C 0.34727 0.33286 0.61923 0.0
C763 C 0.35797 0.31715 0.59584 0.0
C764 C 0.34056 0.31921 0.64357 0.0
C765 C 0.35035 0.25228 0.68117 0.0
H766 H 0.27928 0.27809 0.71763 0.0
C767 C 0.29063 0.19185 0.76758 0.0
C768 C 0.27921 0.20885 0.78976 0.0
C769 C 0.30357 0.20468 0.74497 0.0
C770 C 0.29936 0.27088 0.70789 0.0
H771 H 0.37099 0.2749 0.5799 0.0
H772 H 0.35844 0.2507 0.62246 0.0
H773 H 0.29522 0.30062 0.6757 0.0
H774 H 0.27336 0.25215 0.80666 0.0
H775 H 0.29581 0.27484 0.767 0.0
H776 H 0.35384 0.22194 0.71332 0.0
C777 C 0.35566 0.27372 0.62201 0.0
C778 C 0.30855 0.28381 0.68386 0.0
C779 C 0.36272 0.28753 0.59761 0.0
C780 C 0.28182 0.23878 0.78955 0.0
C781 C 0.29458 0.25164 0.76693 0.0
C782 C 0.34098 0.23914 0.7052 0.0
C783 C 0.34401 0.28939 0.64508 0.0
C784 C 0.33428 0.27488 0.67033 0.0
C785 C 0.30505 0.23473 0.74416 0.0
C786 C 0.31551 0.24851 0.71889 0.0
H787 H 0.34391 0.35583 0.61875 0.0
H788 H 0.33243 0.33206 0.66119 0.0
H789 H 0.37037 0.24504 0.67134 0.0
H790 H 0.28845 0.16872 0.76727 0.0
H791 H 0.31122 0.19117 0.72759 0.0
C792 C 0.67424 0.68084 0.41123 0.0
C793 C 0.6455 0.68141 0.42098 0.0
C794 C 0.68134 0.693 0.38616 0.0
C795 C 0.65404 0.74244 0.33341 0.0
H796 H 0.71567 0.70647 0.28936 0.0
C797 C 0.69105 0.77109 0.22085 0.0
C798 C 0.72005 0.78048 0.22084 0.0
C799 C 0.67935 0.75905 0.24454 0.0
C800 C 0.69835 0.71659 0.30146 0.0
H801 H 0.60159 0.69521 0.41222 0.0
H802 H 0.61374 0.71557 0.36772 0.0
H803 H 0.69962 0.68464 0.33182 0.0
H804 H 0.75942 0.78535 0.24526 0.0
H805 H 0.7394 0.76308 0.28632 0.0
H806 H 0.65262 0.77402 0.3022 0.0
C807 C 0.63099 0.70638 0.37981 0.0
C808 C 0.6893 0.70433 0.32592 0.0
C809 C 0.62398 0.69464 0.40525 0.0
C810 C 0.73715 0.77782 0.24478 0.0
C811 C 0.72571 0.76528 0.26816 0.0
C812 C 0.66275 0.7544 0.30857 0.0
C813 C 0.65976 0.70551 0.36985 0.0
C814 C 0.66752 0.71746 0.34261 0.0
C815 C 0.69678 0.75578 0.26819 0.0
C816 C 0.68536 0.74183 0.29279 0.0
H817 H 0.69137 0.67113 0.42311 0.0
H818 H 0.70387 0.69266 0.37969 0.0
H819 H 0.63741 0.75332 0.34579 0.0
H820 H 0.6777 0.77268 0.20242 0.0
H821 H 0.65701 0.75167 0.2442 0.0
C822 C 0.8228 0.18028 0.91009 0.0
C823 C 0.85127 0.18149 0.92062 0.0
C824 C 0.81606 0.19254 0.88497 0.0
C825 C 0.84359 0.24333 0.83358 0.0
H826 H 0.78403 0.20625 0.78735 0.0
C827 C 0.80854 0.27149 0.72004 0.0
C828 C 0.7796 0.28094 0.71971 0.0
C829 C 0.81998 0.25947 0.74387 0.0
C830 C 0.80079 0.21667 0.80006 0.0
H831 H 0.89506 0.19654 0.91322 0.0
H832 H 0.88357 0.21708 0.86864 0.0
H833 H 0.79941 0.18434 0.83003 0.0
H834 H 0.74007 0.28598 0.74371 0.0
H835 H 0.75965 0.26376 0.78503 0.0
H836 H 0.84513 0.27532 0.80277 0.0
C837 C 0.86624 0.20731 0.88015 0.0
C838 C 0.80943 0.20436 0.82464 0.0
C839 C 0.87287 0.19547 0.90564 0.0
C840 C 0.76231 0.2784 0.74349 0.0
C841 C 0.77349 0.26589 0.76702 0.0
C842 C 0.83529 0.25535 0.80862 0.0
C843 C 0.83776 0.2058 0.8694 0.0
C844 C 0.83044 0.21787 0.8421 0.0
C845 C 0.80235 0.25631 0.76734 0.0
C846 C 0.81345 0.24234 0.79205 0.0
H847 H 0.80561 0.16999 0.92139 0.0
H848 H 0.79372 0.19169 0.87786 0.0
H849 H 0.85961 0.25451 0.84656 0.0
H850 H 0.82205 0.27302 0.70174 0.0
H851 H 0.84228 0.25203 0.74378 0.0
C852 C 0.28131 0.32658 0.47586 0.0
C853 C 0.31078 0.31862 0.47443 0.0
C854 C 0.26026 0.31076 0.46075 0.0
C855 C 0.25124 0.25917 0.40076 0.0
H856 H 0.17851 0.24066 0.43659 0.0
C857 C 0.14747 0.17778 0.3816 0.0
C858 C 0.14228 0.18213 0.35338 0.0
C859 C 0.16738 0.19518 0.39657 0.0
C860 C 0.19879 0.24551 0.42637 0.0
H861 H 0.34116 0.28794 0.45555 0.0
H862 H 0.30452 0.26042 0.42944 0.0
H863 H 0.21477 0.2698 0.46207 0.0
H864 H 0.15325 0.20761 0.31844 0.0
H865 H 0.18777 0.23845 0.34452 0.0
H866 H 0.23562 0.23442 0.3653 0.0
C867 C 0.2977 0.27902 0.44206 0.0
C868 C 0.2194 0.26248 0.44084 0.0
C869 C 0.31871 0.29476 0.45717 0.0
C870 C 0.15701 0.20412 0.34029 0.0
C871 C 0.17686 0.2215 0.35515 0.0
C872 C 0.23064 0.24227 0.3863 0.0
C873 C 0.26822 0.28672 0.4438 0.0
C874 C 0.24591 0.26941 0.42822 0.0
C875 C 0.18242 0.21715 0.38344 0.0
C876 C 0.2042 0.2352 0.39894 0.0
H877 H 0.27439 0.34485 0.48888 0.0
H878 H 0.23776 0.31744 0.46224 0.0
H879 H 0.27132 0.26434 0.39036 0.0
H880 H 0.13618 0.16086 0.39192 0.0
H881 H 0.17138 0.1911 0.41826 0.0
C882 C 0.18003 0.79686 0.95522 0.0
C883 C 0.18821 0.81615 0.97715 0.0
C884 C 0.20096 0.78076 0.94049 0.0
C885 C 0.28027 0.77595 0.92639 0.0
H886 H 0.26066 0.69737 0.9039 0.0
C887 C 0.36372 0.694 0.87949 0.0
C888 C 0.35438 0.6787 0.85531 0.0
C889 C 0.34411 0.71093 0.89519 0.0
C890 C 0.26637 0.71932 0.90994 0.0
H891 H 0.22491 0.83391 0.00056 0.0
H892 H 0.26137 0.80528 0.97533 0.0
H893 H 0.2253 0.72697 0.92951 0.0
H894 H 0.31775 0.66935 0.82813 0.0
H895 H 0.28319 0.69826 0.85588 0.0
H896 H 0.32163 0.76789 0.90708 0.0
C897 C 0.23881 0.80299 0.96913 0.0
C898 C 0.24608 0.73637 0.92449 0.0
C899 C 0.21788 0.81934 0.98369 0.0
C900 C 0.3252 0.68047 0.84707 0.0
C901 C 0.30554 0.69706 0.86287 0.0
C902 C 0.30071 0.75876 0.91207 0.0
C903 C 0.23058 0.78328 0.94752 0.0
C904 C 0.25262 0.76501 0.93264 0.0
C905 C 0.3148 0.71253 0.88705 0.0
C906 C 0.29382 0.73038 0.90346 0.0
H907 H 0.1574 0.7941 0.94943 0.0
H908 H 0.19385 0.76633 0.92355 0.0
H909 H 0.28596 0.79799 0.93204 0.0
H910 H 0.38611 0.69269 0.88625 0.0
H911 H 0.35174 0.72247 0.91386 0.0
loop_
_geom_bond_atom_site_label_1
_geom_bond_atom_site_label_2
_geom_bond_distance
_geom_bond_site_symmetry_2
_ccdc_geom_bond_type
Sc0 O3 2.025 . S
Sc0 O10 2.105 1_554 S
Sc0 O13 2.105 . S
Sc0 O16 2.105 . S
Sc0 O19 2.105 1_554 S
Sc1 O3 2.025 . S
Sc1 O11 2.105 1_554 S
Sc1 O15 2.105 . S
Sc1 O17 2.105 . S
Sc1 O21 2.105 1_554 S
Sc2 O3 2.025 . S
Sc2 O12 2.078 1_554 S
Sc2 O14 2.105 . S
Sc2 O18 2.105 . S
Sc2 O20 2.105 1_554 S
O3 Sc0 2.025 . S
O3 Sc1 2.025 . S
O3 Sc2 2.025 . S
C4 O10 1.268 . S
C4 O20 1.268 . S
C5 O11 1.268 . S
C5 O19 1.268 . S
C6 O12 1.288 . S
C6 O21 1.268 . S
C7 O13 1.268 . S
C7 O17 1.268 . S
C8 O14 1.268 . S
C8 O16 1.268 . S
C9 O15 1.268 . S
C9 O18 1.268 . S
O10 Sc0 2.105 1_556 S
O10 C4 1.268 . S
O11 Sc1 2.105 1_556 S
O11 C5 1.268 . S
O12 Sc2 2.078 1_556 S
O12 C6 1.288 . S
O13 Sc0 2.105 . S
O13 C7 1.268 . S
O14 Sc2 2.105 . S
O14 C8 1.268 . S
O15 Sc1 2.105 . S
O15 C9 1.268 . S
O16 Sc0 2.105 . S
O16 C8 1.268 . S
O17 Sc1 2.105 . S
O17 C7 1.268 . S
O18 Sc2 2.105 . S
O18 C9 1.268 . S
O19 Sc0 2.105 1_556 S
O19 C5 1.268 . S
O20 Sc2 2.105 1_556 S
O20 C4 1.268 . S
O21 Sc1 2.105 1_556 S
O21 C6 1.268 . S
Sc22 O25 2.025 . S
Sc22 O32 2.105 . S
Sc22 O35 2.105 . S
Sc22 O38 2.105 . S
Sc22 O41 2.105 . S
Sc23 O25 2.025 . S
Sc23 O33 2.105 . S
Sc23 O37 2.105 . S
Sc23 O39 2.105 . S
Sc23 O43 2.105 . S
Sc24 O25 2.025 . S
Sc24 O34 2.105 . S
Sc24 O36 2.105 . S
Sc24 O40 2.105 . S
Sc24 O42 2.105 . S
O25 Sc22 2.025 . S
O25 Sc23 2.025 . S
O25 Sc24 2.025 . S
C26 O32 1.268 . S
C26 O42 1.268 . S
C27 O33 1.268 . S
C27 O41 1.268 . S
C28 O34 1.268 . S
C28 O43 1.268 . S
C29 O35 1.268 . S
C29 O39 1.268 . S
C30 O36 1.268 . S
C30 O38 1.268 . S
C31 O37 1.268 . S
C31 O40 1.268 . S
O32 Sc22 2.105 . S
O32 C26 1.268 . S
O33 Sc23 2.105 . S
O33 C27 1.268 . S
O34 Sc24 2.105 . S
O34 C28 1.268 . S
O35 Sc22 2.105 . S
O35 C29 1.268 . S
O36 Sc24 2.105 . S
O36 C30 1.268 . S
O37 Sc23 2.105 . S
O37 C31 1.268 . S
O38 Sc22 2.105 . S
O38 C30 1.268 . S
O39 Sc23 2.105 . S
O39 C29 1.268 . S
O40 Sc24 2.105 . S
O40 C31 1.268 . S
O41 Sc22 2.105 . S
O41 C27 1.268 . S
O42 Sc24 2.105 . S
O42 C26 1.268 . S
O43 Sc23 2.105 . S
O43 C28 1.268 . S
Sc44 O47 2.026 . S
Sc44 O54 2.105 1_554 S
Sc44 O57 2.105 . S
Sc44 O60 2.105 . S
Sc44 O63 2.105 1_554 S
Sc45 O47 2.025 1_556 S
Sc45 O55 2.105 . S
Sc45 O59 2.105 1_556 S
Sc45 O61 2.105 1_556 S
Sc45 O65 2.105 . S
Sc46 O47 2.026 . S
Sc46 O56 2.105 1_554 S
Sc46 O58 2.105 . S
Sc46 O62 2.105 . S
Sc46 O64 2.105 1_554 S
O47 Sc44 2.026 . S
O47 Sc45 2.025 1_554 S
O47 Sc46 2.026 . S
C48 O54 1.268 . S
C48 O64 1.268 . S
C49 O55 1.268 . S
C49 O63 1.268 . S
C50 O56 1.268 . S
C50 O65 1.268 . S
C51 O57 1.268 . S
C51 O61 1.268 . S
C52 O58 1.268 . S
C52 O60 1.268 . S
C53 O59 1.268 . S
C53 O62 1.268 . S
O54 Sc44 2.105 1_556 S
O54 C48 1.268 . S
O55 Sc45 2.105 . S
O55 C49 1.268 . S
O56 Sc46 2.105 1_556 S
O56 C50 1.268 . S
O57 Sc44 2.105 . S
O57 C51 1.268 . S
O58 Sc46 2.105 . S
O58 C52 1.268 . S
O59 Sc45 2.105 1_554 S
O59 C53 1.268 . S
O60 Sc44 2.105 . S
O60 C52 1.268 . S
O61 Sc45 2.105 1_554 S
O61 C51 1.268 . S
O62 Sc46 2.105 . S
O62 C53 1.268 . S
O63 Sc44 2.105 1_556 S
O63 C49 1.268 . S
O64 Sc46 2.105 1_556 S
O64 C48 1.268 . S
O65 Sc45 2.105 . S
O65 C50 1.268 . S
Sc66 O69 2.025 . S
Sc66 O76 2.105 . S
Sc66 O79 2.105 . S
Sc66 O82 2.105 . S
Sc66 O85 2.105 . S
Sc67 O69 2.025 . S
Sc67 O77 2.105 . S
Sc67 O81 2.105 . S
Sc67 O83 2.105 . S
Sc67 O87 2.105 . S
Sc68 O69 2.025 . S
Sc68 O78 2.105 . S
Sc68 O80 2.105 . S
Sc68 O84 2.105 . S
Sc68 O86 2.105 . S
O69 Sc66 2.025 . S
O69 Sc67 2.025 . S
O69 Sc68 2.025 . S
C70 O76 1.268 . S
C70 O86 1.268 . S
C71 O77 1.268 . S
C71 O85 1.268 . S
C72 O78 1.268 . S
C72 O87 1.268 . S
C73 O79 1.268 . S
C73 O83 1.268 . S
C74 O80 1.268 . S
C74 O82 1.268 . S
C75 O81 1.268 . S
C75 O84 1.268 . S
O76 Sc66 2.105 . S
O76 C70 1.268 . S
O77 Sc67 2.105 . S
O77 C71 1.268 . S
O78 Sc68 2.105 . S
O78 C72 1.268 . S
O79 Sc66 2.105 . S
O79 C73 1.268 . S
O80 Sc68 2.105 . S
O80 C74 1.268 . S
O81 Sc67 2.105 . S
O81 C75 1.268 . S
O82 Sc66 2.105 . S
O82 C74 1.268 . S
O83 Sc67 2.105 . S
O83 C73 1.268 . S
O84 Sc68 2.105 . S
O84 C75 1.268 . S
O85 Sc66 2.105 . S
O85 C71 1.268 . S
O86 Sc68 2.105 . S
O86 C70 1.268 . S
O87 Sc67 2.105 . S
O87 C72 1.268 . S
C88 N89 1.317 . S
C88 N90 1.348 . S
C88 C91 1.485 . S
N89 C88 1.317 . S
N89 N93 1.370 . S
N90 C88 1.348 . S
N90 C92 1.346 . S
C91 C88 1.485 . S
C91 H95 0.960 . S
C91 H96 0.961 . S
C91 H97 0.960 . S
C92 N90 1.346 . S
C92 N93 1.307 . S
C92 C94 1.486 . S
N93 N89 1.370 . S
N93 C92 1.307 . S
C94 C92 1.486 . S
C94 H98 0.960 . S
C94 H99 0.960 . S
C94 H100 0.959 . S
H95 C91 0.960 . S
H96 C91 0.961 . S
H97 C91 0.960 . S
H98 C94 0.960 . S
H99 C94 0.960 . S
H100 C94 0.959 . S
C101 N102 1.317 . S
C101 N103 1.348 . S
C101 C104 1.485 . S
N102 C101 1.317 . S
N102 N106 1.370 . S
N103 C101 1.348 . S
N103 C105 1.346 . S
C104 C101 1.485 . S
C104 H108 0.960 . S
C104 H109 0.961 . S
C104 H110 0.960 . S
C105 N103 1.346 . S
C105 N106 1.307 . S
C105 C107 1.486 . S
N106 N102 1.370 . S
N106 C105 1.307 . S
C107 C105 1.486 . S
C107 H111 0.960 . S
C107 H112 0.960 . S
C107 H113 0.959 . S
H108 C104 0.960 . S
H109 C104 0.961 . S
H110 C104 0.960 . S
H111 C107 0.960 . S
H112 C107 0.960 . S
H113 C107 0.959 . S
C114 N115 1.317 . S
C114 N116 1.348 . S
C114 C117 1.485 . S
N115 C114 1.317 . S
N115 N119 1.370 . S
N116 C114 1.348 . S
N116 C118 1.346 . S
C117 C114 1.485 . S
C117 H121 0.960 . S
C117 H122 0.961 . S
C117 H123 0.960 . S
C118 N116 1.346 . S
C118 N119 1.307 . S
C118 C120 1.486 . S
N119 N115 1.370 . S
N119 C118 1.307 . S
C120 C118 1.486 . S
C120 H124 0.960 . S
C120 H125 0.960 . S
C120 H126 0.959 . S
H121 C117 0.960 . S
H122 C117 0.961 . S
H123 C117 0.960 . S
H124 C120 0.960 . S
H125 C120 0.960 . S
H126 C120 0.959 . S
C127 N128 1.317 . S
C127 N129 1.348 . S
C127 C130 1.485 . S
N128 C127 1.317 . S
N128 N132 1.370 . S
N129 C127 1.348 . S
N129 C131 1.346 . S
C130 C127 1.485 . S
C130 H134 0.960 . S
C130 H135 0.961 . S
C130 H136 0.960 . S
C131 N129 1.346 . S
C131 N132 1.307 . S
C131 C133 1.486 . S
N132 N128 1.370 . S
N132 C131 1.307 . S
C133 C131 1.486 . S
C133 H137 0.960 . S
C133 H138 0.960 . S
C133 H139 0.959 . S
H134 C130 0.960 . S
H135 C130 0.961 . S
H136 C130 0.960 . S
H137 C133 0.960 . S
H138 C133 0.960 . S
H139 C133 0.959 . S
C140 N141 1.317 . S
C140 N142 1.348 . S
C140 C143 1.485 . S
N141 C140 1.317 . S
N141 N145 1.370 . S
N142 C140 1.348 . S
N142 C144 1.346 . S
C143 C140 1.485 . S
C143 H147 0.960 . S
C143 H148 0.961 . S
C143 H149 0.960 . S
C144 N142 1.346 . S
C144 N145 1.307 . S
C144 C146 1.486 . S
N145 N141 1.370 . S
N145 C144 1.307 . S
C146 C144 1.486 . S
C146 H150 0.960 . S
C146 H151 0.960 . S
C146 H152 0.959 . S
H147 C143 0.960 . S
H148 C143 0.961 . S
H149 C143 0.960 . S
H150 C146 0.960 . S
H151 C146 0.960 . S
H152 C146 0.959 . S
C153 N154 1.317 . S
C153 N155 1.348 . S
C153 C156 1.485 . S
N154 C153 1.317 . S
N154 N158 1.370 . S
N155 C153 1.348 . S
N155 C157 1.346 . S
C156 C153 1.485 . S
C156 H160 0.960 . S
C156 H161 0.961 . S
C156 H162 0.960 . S
C157 N155 1.346 . S
C157 N158 1.307 . S
C157 C159 1.486 . S
N158 N154 1.370 . S
N158 C157 1.307 . S
C159 C157 1.486 . S
C159 H163 0.960 . S
C159 H164 0.960 . S
C159 H165 0.959 . S
H160 C156 0.960 . S
H161 C156 0.961 . S
H162 C156 0.960 . S
H163 C159 0.960 . S
H164 C159 0.960 . S
H165 C159 0.959 . S
C166 N167 1.317 . S
C166 N168 1.348 . S
C166 C169 1.485 . S
N167 C166 1.317 . S
N167 N171 1.370 . S
N168 C166 1.348 . S
N168 C170 1.346 . S
C169 C166 1.485 . S
C169 H173 0.960 . S
C169 H174 0.961 . S
C169 H175 0.960 . S
C170 N168 1.346 . S
C170 N171 1.307 . S
C170 C172 1.486 . S
N171 N167 1.370 . S
N171 C170 1.307 . S
C172 C170 1.486 . S
C172 H176 0.960 . S
C172 H177 0.960 . S
C172 H178 0.959 . S
H173 C169 0.960 . S
H174 C169 0.961 . S
H175 C169 0.960 . S
H176 C172 0.960 . S
H177 C172 0.960 . S
H178 C172 0.959 . S
C179 N180 1.317 . S
C179 N181 1.348 . S
C179 C182 1.485 . S
N180 C179 1.317 . S
N180 N184 1.370 . S
N181 C179 1.348 . S
N181 C183 1.346 . S
C182 C179 1.485 . S
C182 H186 0.960 . S
C182 H187 0.961 . S
C182 H188 0.960 . S
C183 N181 1.346 . S
C183 N184 1.307 . S
C183 C185 1.486 . S
N184 N180 1.370 . S
N184 C183 1.307 . S
C185 C183 1.486 . S
C185 H189 0.960 . S
C185 H190 0.960 . S
C185 H191 0.959 . S
H186 C182 0.960 . S
H187 C182 0.961 . S
H188 C182 0.960 . S
H189 C185 0.960 . S
H190 C185 0.960 . S
H191 C185 0.959 . S
C192 C193 1.349 . S
C192 C194 1.327 . S
C192 H217 0.950 . S
C193 C192 1.349 . S
C193 C209 1.349 . S
C194 C192 1.327 . S
C194 C213 1.429 . S
C194 H218 0.950 . S
C195 C212 1.574 . S
C195 C214 1.376 . S
C195 H219 0.949 1_545 S
H196 C200 0.949 . S
C197 C198 1.349 . S
C197 C199 1.327 . S
C197 H220 0.950 . S
C198 C197 1.349 . S
C198 C210 1.349 . S
C199 C197 1.327 . S
C199 C215 1.429 . S
C199 H221 0.950 . S
C200 H196 0.949 . S
C200 C208 1.574 . S
C200 C216 1.368 . S
H201 C209 0.950 . S
H202 C207 0.950 . S
H203 C208 0.949 . S
H204 C210 0.950 . S
H205 C211 0.950 . S
H206 C212 0.949 . S
C207 H202 0.950 . S
C207 C209 1.327 . S
C207 C213 1.429 . S
C208 C200 1.574 . S
C208 H203 0.949 . S
C208 C214 1.384 . S
C209 C193 1.349 . S
C209 H201 0.950 . S
C209 C207 1.327 . S
C210 C198 1.349 . S
C210 H204 0.950 . S
C210 C211 1.327 . S
C211 H205 0.950 . S
C211 C210 1.327 . S
C211 C215 1.429 . S
C212 C195 1.574 . S
C212 H206 0.949 . S
C212 C216 1.368 . S
C213 C194 1.429 . S
C213 C207 1.429 . S
C213 C214 1.493 1_565 S
C214 C195 1.376 . S
C214 C208 1.384 . S
C214 C213 1.493 1_545 S
C215 C199 1.429 . S
C215 C211 1.429 . S
C215 C216 1.523 . S
C216 C200 1.368 . S
C216 C212 1.368 . S
C216 C215 1.523 . S
H217 C192 0.950 . S
H218 C194 0.950 . S
H219 C195 0.949 1_565 S
H220 C197 0.950 . S
H221 C199 0.950 . S
C222 C223 1.349 . S
C222 C224 1.327 . S
C222 H247 0.950 . S
C223 C222 1.349 . S
C223 C239 1.349 . S
C224 C222 1.327 . S
C224 C243 1.429 . S
C224 H248 0.950 . S
C225 C242 1.574 . S
C225 C244 1.368 . S
C225 H249 0.949 . S
H226 C230 0.949 . S
C227 C228 1.349 . S
C227 C229 1.327 . S
C227 H250 0.950 . S
C228 C227 1.349 . S
C228 C240 1.349 . S
C229 C227 1.327 . S
C229 C245 1.429 . S
C229 H251 0.950 . S
C230 H226 0.949 . S
C230 C238 1.574 . S
C230 C246 1.368 . S
H231 C239 0.950 . S
H232 C237 0.950 . S
H233 C238 0.949 . S
H234 C240 0.950 . S
H235 C241 0.950 . S
H236 C242 0.949 . S
C237 H232 0.950 . S
C237 C239 1.327 . S
C237 C243 1.429 . S
C238 C230 1.574 . S
C238 H233 0.949 . S
C238 C244 1.368 . S
C239 C223 1.349 . S
C239 H231 0.950 . S
C239 C237 1.327 . S
C240 C228 1.349 . S
C240 H234 0.950 . S
C240 C241 1.327 . S
C241 H235 0.950 . S
C241 C240 1.327 . S
C241 C245 1.429 . S
C242 C225 1.574 . S
C242 H236 0.949 . S
C242 C246 1.368 . S
C243 C224 1.429 . S
C243 C237 1.429 . S
C243 C244 1.523 . S
C244 C225 1.368 . S
C244 C238 1.368 . S
C244 C243 1.523 . S
C245 C229 1.429 . S
C245 C241 1.429 . S
C245 C246 1.523 . S
C246 C230 1.368 . S
C246 C242 1.368 . S
C246 C245 1.523 . S
H247 C222 0.950 . S
H248 C224 0.950 . S
H249 C225 0.949 . S
H250 C227 0.950 . S
H251 C229 0.950 . S
C252 C253 1.349 . S
C252 C254 1.327 . S
C252 H277 0.950 . S
C253 C252 1.349 . S
C253 C269 1.349 . S
C254 C252 1.327 . S
C254 C273 1.429 . S
C254 H278 0.950 . S
C255 C272 1.574 . S
C255 C274 1.368 . S
C255 H279 0.949 1_565 S
H256 C260 0.949 . S
C257 C258 1.349 . S
C257 C259 1.327 . S
C257 H280 0.950 . S
C258 C257 1.349 . S
C258 C270 1.349 . S
C259 C257 1.327 . S
C259 C275 1.429 . S
C259 H281 0.950 . S
C260 H256 0.949 . S
C260 C268 1.574 . S
C260 C276 1.368 . S
H261 C269 0.950 . S
H262 C267 0.950 . S
H263 C268 0.949 . S
H264 C270 0.950 . S
H265 C271 0.950 . S
H266 C272 0.949 . S
C267 H262 0.950 . S
C267 C269 1.327 . S
C267 C273 1.429 . S
C268 C260 1.574 . S
C268 H263 0.949 . S
C268 C274 1.368 . S
C269 C253 1.349 . S
C269 H261 0.950 . S
C269 C267 1.327 . S
C270 C258 1.349 . S
C270 H264 0.950 . S
C270 C271 1.327 . S
C271 H265 0.950 . S
C271 C270 1.327 . S
C271 C275 1.429 . S
C272 C255 1.574 . S
C272 H266 0.949 . S
C272 C276 1.368 . S
C273 C254 1.429 . S
C273 C267 1.429 . S
C273 C274 1.523 1_545 S
C274 C255 1.368 . S
C274 C268 1.368 . S
C274 C273 1.523 1_565 S
C275 C259 1.429 . S
C275 C271 1.429 . S
C275 C276 1.523 . S
C276 C260 1.368 . S
C276 C272 1.368 . S
C276 C275 1.523 . S
H277 C252 0.950 . S
H278 C254 0.950 . S
H279 C255 0.949 1_545 S
H280 C257 0.950 . S
H281 C259 0.950 . S
C282 C283 1.349 . S
C282 C284 1.327 . S
C282 H307 0.950 . S
C283 C282 1.349 . S
C283 C299 1.349 . S
C284 C282 1.327 . S
C284 C303 1.429 . S
C284 H308 0.950 . S
C285 C302 1.574 . S
C285 C304 1.368 . S
C285 H309 0.949 . S
H286 C290 0.949 . S
C287 C288 1.349 . S
C287 C289 1.327 . S
C287 H310 0.950 . S
C288 C287 1.349 . S
C288 C300 1.349 . S
C289 C287 1.327 . S
C289 C305 1.429 . S
C289 H311 0.950 . S
C290 H286 0.949 . S
C290 C298 1.574 . S
C290 C306 1.368 . S
H291 C299 0.950 . S
H292 C297 0.950 . S
H293 C298 0.949 . S
H294 C300 0.950 . S
H295 C301 0.950 . S
H296 C302 0.949 . S
C297 H292 0.950 . S
C297 C299 1.327 . S
C297 C303 1.429 . S
C298 C290 1.574 . S
C298 H293 0.949 . S
C298 C304 1.368 . S
C299 C283 1.349 . S
C299 H291 0.950 . S
C299 C297 1.327 . S
C300 C288 1.349 . S
C300 H294 0.950 . S
C300 C301 1.327 . S
C301 H295 0.950 . S
C301 C300 1.327 . S
C301 C305 1.429 . S
C302 C285 1.574 . S
C302 H296 0.949 . S
C302 C306 1.368 . S
C303 C284 1.429 . S
C303 C297 1.429 . S
C303 C304 1.523 . S
C304 C285 1.368 . S
C304 C298 1.368 . S
C304 C303 1.523 . S
C305 C289 1.429 . S
C305 C301 1.429 . S
C305 C306 1.523 . S
C306 C290 1.368 . S
C306 C302 1.368 . S
C306 C305 1.523 . S
H307 C282 0.950 . S
H308 C284 0.950 . S
H309 C285 0.949 . S
H310 C287 0.950 . S
H311 C289 0.950 . S
C312 C313 1.349 . S
C312 C314 1.327 . S
C312 H337 0.950 . S
C313 C312 1.349 . S
C313 C329 1.349 . S
C314 C312 1.327 . S
C314 C333 1.429 . S
C314 H338 0.950 . S
C315 C332 1.574 . S
C315 C334 1.368 . S
C315 H339 0.949 . S
H316 C320 0.949 . S
C317 C318 1.349 . S
C317 C319 1.327 . S
C317 H340 0.950 . S
C318 C317 1.349 . S
C318 C330 1.349 . S
C319 C317 1.327 . S
C319 C335 1.429 . S
C319 H341 0.950 . S
C320 H316 0.949 . S
C320 C328 1.574 . S
C320 C336 1.368 . S
H321 C329 0.950 . S
H322 C327 0.950 . S
H323 C328 0.949 . S
H324 C330 0.950 . S
H325 C331 0.950 . S
H326 C332 0.949 . S
C327 H322 0.950 . S
C327 C329 1.327 . S
C327 C333 1.429 . S
C328 C320 1.574 . S
C328 H323 0.949 . S
C328 C334 1.368 . S
C329 C313 1.349 . S
C329 H321 0.950 . S
C329 C327 1.327 . S
C330 C318 1.349 . S
C330 H324 0.950 . S
C330 C331 1.327 . S
C331 H325 0.950 . S
C331 C330 1.327 . S
C331 C335 1.429 . S
C332 C315 1.574 . S
C332 H326 0.949 . S
C332 C336 1.368 . S
C333 C314 1.429 . S
C333 C327 1.429 . S
C333 C334 1.523 . S
C334 C315 1.368 . S
C334 C328 1.368 . S
C334 C333 1.523 . S
C335 C319 1.429 . S
C335 C331 1.429 . S
C335 C336 1.523 . S
C336 C320 1.368 . S
C336 C332 1.368 . S
C336 C335 1.523 . S
H337 C312 0.950 . S
H338 C314 0.950 . S
H339 C315 0.949 . S
H340 C317 0.950 . S
H341 C319 0.950 . S
C342 C343 1.349 . S
C342 C344 1.327 . S
C342 H367 0.950 . S
C343 C342 1.349 . S
C343 C359 1.349 . S
C344 C342 1.327 . S
C344 C363 1.421 1_655 S
C344 H368 0.950 . S
C345 C362 1.574 . S
C345 C364 1.368 . S
C345 H369 0.949 . S
H346 C350 0.949 . S
C347 C348 1.349 . S
C347 C349 1.327 . S
C347 H370 0.950 . S
C348 C347 1.349 . S
C348 C360 1.349 . S
C349 C347 1.327 . S
C349 C365 1.429 . S
C349 H371 0.950 . S
C350 H346 0.949 . S
C350 C358 1.574 . S
C350 C366 1.368 . S
H351 C359 0.950 . S
H352 C357 0.950 1_455 S
H353 C358 0.949 . S
H354 C360 0.950 . S
H355 C361 0.950 . S
H356 C362 0.949 . S
C357 H352 0.950 1_655 S
C357 C359 1.327 . S
C357 C363 1.426 1_655 S
C358 C350 1.574 . S
C358 H353 0.949 . S
C358 C364 1.368 . S
C359 C343 1.349 . S
C359 H351 0.950 . S
C359 C357 1.327 . S
C360 C348 1.349 . S
C360 H354 0.950 . S
C360 C361 1.327 . S
C361 H355 0.950 . S
C361 C360 1.327 . S
C361 C365 1.429 . S
C362 C345 1.574 . S
C362 H356 0.949 . S
C362 C366 1.368 . S
C363 C344 1.421 1_455 S
C363 C357 1.426 1_455 S
C363 C364 1.533 . S
C364 C345 1.368 . S
C364 C358 1.368 . S
C364 C363 1.533 . S
C365 C349 1.429 . S
C365 C361 1.429 . S
C365 C366 1.523 . S
C366 C350 1.368 . S
C366 C362 1.368 . S
C366 C365 1.523 . S
H367 C342 0.950 . S
H368 C344 0.950 . S
H369 C345 0.949 . S
H370 C347 0.950 . S
H371 C349 0.950 . S
C372 C373 1.349 . S
C372 C374 1.327 . S
C372 H397 0.950 . S
C373 C372 1.349 . S
C373 C389 1.349 . S
C374 C372 1.327 . S
C374 C393 1.429 . S
C374 H398 0.950 . S
C375 C392 1.574 . S
C375 C394 1.368 . S
C375 H399 0.949 . S
H376 C380 0.949 . S
C377 C378 1.349 . S
C377 C379 1.327 . S
C377 H400 0.950 . S
C378 C377 1.349 . S
C378 C390 1.349 . S
C379 C377 1.327 . S
C379 C395 1.429 . S
C379 H401 0.950 . S
C380 H376 0.949 . S
C380 C388 1.574 . S
C380 C396 1.368 . S
H381 C389 0.950 . S
H382 C387 0.950 . S
H383 C388 0.949 . S
H384 C390 0.950 . S
H385 C391 0.950 . S
H386 C392 0.949 . S
C387 H382 0.950 . S
C387 C389 1.327 . S
C387 C393 1.429 . S
C388 C380 1.574 . S
C388 H383 0.949 . S
C388 C394 1.368 . S
C389 C373 1.349 . S
C389 H381 0.950 . S
C389 C387 1.327 . S
C390 C378 1.349 . S
C390 H384 0.950 . S
C390 C391 1.327 . S
C391 H385 0.950 . S
C391 C390 1.327 . S
C391 C395 1.429 . S
C392 C375 1.574 . S
C392 H386 0.949 . S
C392 C396 1.368 . S
C393 C374 1.429 . S
C393 C387 1.429 . S
C393 C394 1.523 . S
C394 C375 1.368 . S
C394 C388 1.368 . S
C394 C393 1.523 . S
C395 C379 1.429 . S
C395 C391 1.429 . S
C395 C396 1.523 . S
C396 C380 1.368 . S
C396 C392 1.368 . S
C396 C395 1.523 . S
H397 C372 0.950 . S
H398 C374 0.950 . S
H399 C375 0.949 . S
H400 C377 0.950 . S
H401 C379 0.950 . S
C402 C403 1.349 . S
C402 C404 1.327 . S
C402 H427 0.950 . S
C403 C402 1.349 . S
C403 C419 1.349 . S
C404 C402 1.327 . S
C404 C423 1.429 . S
C404 H428 0.950 . S
C405 C422 1.574 1_455 S
C405 C424 1.368 . S
C405 H429 0.949 . S
H406 C410 0.949 . S
C407 C408 1.349 . S
C407 C409 1.327 . S
C407 H430 0.950 . S
C408 C407 1.349 . S
C408 C420 1.349 . S
C409 C407 1.327 . S
C409 C425 1.429 . S
C409 H431 0.950 . S
C410 H406 0.949 . S
C410 C418 1.574 . S
C410 C426 1.368 . S
H411 C419 0.950 . S
H412 C417 0.950 . S
H413 C418 0.949 . S
H414 C420 0.950 . S
H415 C421 0.950 . S
H416 C422 0.949 . S
C417 H412 0.950 . S
C417 C419 1.327 . S
C417 C423 1.429 . S
C418 C410 1.574 . S
C418 H413 0.949 . S
C418 C424 1.368 1_655 S
C419 C403 1.349 . S
C419 H411 0.950 . S
C419 C417 1.327 . S
C420 C408 1.349 . S
C420 H414 0.950 . S
C420 C421 1.327 . S
C421 H415 0.950 . S
C421 C420 1.327 . S
C421 C425 1.429 . S
C422 C405 1.574 1_655 S
C422 H416 0.949 . S
C422 C426 1.368 . S
C423 C404 1.429 . S
C423 C417 1.429 . S
C423 C424 1.523 . S
C424 C405 1.368 . S
C424 C418 1.368 1_455 S
C424 C423 1.523 . S
C425 C409 1.429 . S
C425 C421 1.429 . S
C425 C426 1.523 . S
C426 C410 1.368 . S
C426 C422 1.368 . S
C426 C425 1.523 . S
H427 C402 0.950 . S
H428 C404 0.950 . S
H429 C405 0.949 . S
H430 C407 0.950 . S
H431 C409 0.950 . S
C432 C433 1.349 . S
C432 C434 1.327 . S
C432 H457 0.950 . S
C433 C432 1.349 . S
C433 C449 1.349 . S
C434 C432 1.327 . S
C434 C453 1.429 . S
C434 H458 0.950 . S
C435 C452 1.574 . S
C435 C454 1.399 . S
C435 H459 0.949 . S
H436 C440 0.949 . S
C437 C438 1.349 . S
C437 C439 1.327 . S
C437 H460 0.950 . S
C438 C437 1.349 . S
C438 C450 1.349 . S
C439 C437 1.327 . S
C439 C455 1.429 . S
C439 H461 0.950 . S
C440 H436 0.949 . S
C440 C448 1.574 1_565 S
C440 C456 1.368 . S
H441 C449 0.950 . S
H442 C447 0.965 . S
H443 C448 0.949 . S
H444 C450 0.950 . S
H445 C451 0.950 . S
H446 C452 0.949 . S
C447 H442 0.965 . S
C447 C449 1.327 . S
C447 C453 1.429 . S
C448 C440 1.574 1_545 S
C448 H443 0.949 . S
C448 C454 1.357 1_545 S
C449 C433 1.349 . S
C449 H441 0.950 . S
C449 C447 1.327 . S
C450 C438 1.349 . S
C450 H444 0.950 . S
C450 C451 1.327 . S
C451 H445 0.950 . S
C451 C450 1.327 . S
C451 C455 1.429 . S
C452 C435 1.574 . S
C452 H446 0.949 . S
C452 C456 1.368 . S
C453 C434 1.429 . S
C453 C447 1.429 . S
C453 C454 1.499 1_545 S
C454 C435 1.399 . S
C454 C448 1.357 1_565 S
C454 C453 1.499 1_565 S
C455 C439 1.429 . S
C455 C451 1.429 . S
C455 C456 1.523 . S
C456 C440 1.368 . S
C456 C452 1.368 . S
C456 C455 1.523 . S
H457 C432 0.950 . S
H458 C434 0.950 . S
H459 C435 0.949 . S
H460 C437 0.950 . S
H461 C439 0.950 . S
C462 C463 1.349 . S
C462 C464 1.327 . S
C462 H487 0.950 . S
C463 C462 1.349 . S
C463 C479 1.349 . S
C464 C462 1.327 . S
C464 C483 1.429 . S
C464 H488 0.950 . S
C465 C482 1.574 . S
C465 C484 1.368 . S
C465 H489 0.949 . S
H466 C470 0.949 . S
C467 C468 1.349 . S
C467 C469 1.327 . S
C467 H490 0.950 . S
C468 C467 1.349 . S
C468 C480 1.349 . S
C469 C467 1.327 . S
C469 C485 1.429 . S
C469 H491 0.950 . S
C470 H466 0.949 . S
C470 C478 1.574 . S
C470 C486 1.368 . S
H471 C479 0.950 . S
H472 C477 0.950 . S
H473 C478 0.949 . S
H474 C480 0.950 . S
H475 C481 0.950 . S
H476 C482 0.949 . S
C477 H472 0.950 . S
C477 C479 1.327 . S
C477 C483 1.429 . S
C478 C470 1.574 . S
C478 H473 0.949 . S
C478 C484 1.368 . S
C479 C463 1.349 . S
C479 H471 0.950 . S
C479 C477 1.327 . S
C480 C468 1.349 . S
C480 H474 0.950 . S
C480 C481 1.327 . S
C481 H475 0.950 . S
C481 C480 1.327 . S
C481 C485 1.429 . S
C482 C465 1.574 . S
C482 H476 0.949 . S
C482 C486 1.368 . S
C483 C464 1.429 . S
C483 C477 1.429 . S
C483 C484 1.523 . S
C484 C465 1.368 . S
C484 C478 1.368 . S
C484 C483 1.523 . S
C485 C469 1.429 . S
C485 C481 1.429 . S
C485 C486 1.523 . S
C486 C470 1.368 . S
C486 C482 1.368 . S
C486 C485 1.523 . S
H487 C462 0.950 . S
H488 C464 0.950 . S
H489 C465 0.949 . S
H490 C467 0.950 . S
H491 C469 0.950 . S
C492 C493 1.349 . S
C492 C494 1.327 . S
C492 H517 0.950 . S
C493 C492 1.349 . S
C493 C509 1.349 . S
C494 C492 1.327 . S
C494 C513 1.429 . S
C494 H518 0.950 . S
C495 C512 1.574 . S
C495 C514 1.368 . S
C495 H519 0.949 . S
H496 C500 0.949 . S
C497 C498 1.349 . S
C497 C499 1.327 . S
C497 H520 0.950 . S
C498 C497 1.349 . S
C498 C510 1.349 . S
C499 C497 1.327 . S
C499 C515 1.429 . S
C499 H521 0.950 . S
C500 H496 0.949 . S
C500 C508 1.574 . S
C500 C516 1.368 . S
H501 C509 0.950 . S
H502 C507 0.950 1_545 S
H503 C508 0.949 1_565 S
H504 C510 0.950 . S
H505 C511 0.950 . S
H506 C512 0.949 . S
C507 H502 0.950 1_565 S
C507 C509 1.327 . S
C507 C513 1.429 . S
C508 C500 1.574 . S
C508 H503 0.949 1_545 S
C508 C514 1.368 . S
C509 C493 1.349 . S
C509 H501 0.950 . S
C509 C507 1.327 . S
C510 C498 1.349 . S
C510 H504 0.950 . S
C510 C511 1.327 . S
C511 H505 0.950 . S
C511 C510 1.327 . S
C511 C515 1.429 . S
C512 C495 1.574 . S
C512 H506 0.949 . S
C512 C516 1.368 . S
C513 C494 1.429 . S
C513 C507 1.429 . S
C513 C514 1.523 1_565 S
C514 C495 1.368 . S
C514 C508 1.368 . S
C514 C513 1.523 1_545 S
C515 C499 1.429 . S
C515 C511 1.429 . S
C515 C516 1.523 . S
C516 C500 1.368 . S
C516 C512 1.368 . S
C516 C515 1.523 . S
H517 C492 0.950 . S
H518 C494 0.950 . S
H519 C495 0.949 . S
H520 C497 0.950 . S
H521 C499 0.950 . S
C522 C523 1.349 . S
C522 C524 1.327 . S
C522 H547 0.950 . S
C523 C522 1.349 . S
C523 C539 1.349 . S
C524 C522 1.327 . S
C524 C543 1.429 . S
C524 H548 0.950 . S
C525 C542 1.574 . S
C525 C544 1.368 . S
C525 H549 0.949 . S
H526 C530 0.949 . S
C527 C528 1.349 . S
C527 C529 1.327 . S
C527 H550 0.950 . S
C528 C527 1.349 . S
C528 C540 1.349 . S
C529 C527 1.327 . S
C529 C545 1.429 . S
C529 H551 0.950 . S
C530 H526 0.949 . S
C530 C538 1.574 . S
C530 C546 1.368 . S
H531 C539 0.950 . S
H532 C537 0.950 . S
H533 C538 0.949 . S
H534 C540 0.950 . S
H535 C541 0.950 . S
H536 C542 0.949 . S
C537 H532 0.950 . S
C537 C539 1.327 . S
C537 C543 1.429 . S
C538 C530 1.574 . S
C538 H533 0.949 . S
C538 C544 1.368 . S
C539 C523 1.349 . S
C539 H531 0.950 . S
C539 C537 1.327 . S
C540 C528 1.349 . S
C540 H534 0.950 . S
C540 C541 1.327 . S
C541 H535 0.950 . S
C541 C540 1.327 . S
C541 C545 1.429 . S
C542 C525 1.574 . S
C542 H536 0.949 . S
C542 C546 1.368 . S
C543 C524 1.429 . S
C543 C537 1.429 . S
C543 C544 1.523 . S
C544 C525 1.368 . S
C544 C538 1.368 . S
C544 C543 1.523 . S
C545 C529 1.429 . S
C545 C541 1.429 . S
C545 C546 1.523 . S
C546 C530 1.368 . S
C546 C542 1.368 . S
C546 C545 1.523 . S
H547 C522 0.950 . S
H548 C524 0.950 . S
H549 C525 0.949 . S
H550 C527 0.950 . S
H551 C529 0.950 . S
C552 C553 1.349 . S
C552 C554 1.327 . S
C552 H577 0.950 . S
C553 C552 1.349 . S
C553 C569 1.349 . S
C554 C552 1.327 . S
C554 C573 1.429 . S
C554 H578 0.950 . S
C555 C572 1.574 . S
C555 C574 1.368 . S
C555 H579 0.949 . S
H556 C560 0.949 . S
C557 C558 1.349 . S
C557 C559 1.327 . S
C557 H580 0.950 . S
C558 C557 1.349 . S
C558 C570 1.349 . S
C559 C557 1.327 . S
C559 C575 1.429 . S
C559 H581 0.950 . S
C560 H556 0.949 . S
C560 C568 1.574 . S
C560 C576 1.368 . S
H561 C569 0.950 . S
H562 C567 0.950 . S
H563 C568 0.949 . S
H564 C570 0.950 . S
H565 C571 0.950 . S
H566 C572 0.949 . S
C567 H562 0.950 . S
C567 C569 1.327 . S
C567 C573 1.429 . S
C568 C560 1.574 . S
C568 H563 0.949 . S
C568 C574 1.368 . S
C569 C553 1.349 . S
C569 H561 0.950 . S
C569 C567 1.327 . S
C570 C558 1.349 . S
C570 H564 0.950 . S
C570 C571 1.327 . S
C571 H565 0.950 . S
C571 C570 1.327 . S
C571 C575 1.429 . S
C572 C555 1.574 . S
C572 H566 0.949 . S
C572 C576 1.368 . S
C573 C554 1.429 . S
C573 C567 1.429 . S
C573 C574 1.523 . S
C574 C555 1.368 . S
C574 C568 1.368 . S
C574 C573 1.523 . S
C575 C559 1.429 . S
C575 C571 1.429 . S
C575 C576 1.523 . S
C576 C560 1.368 . S
C576 C572 1.368 . S
C576 C575 1.523 . S
H577 C552 0.950 . S
H578 C554 0.950 . S
H579 C555 0.949 . S
H580 C557 0.950 . S
H581 C559 0.950 . S
C582 C583 1.349 . S
C582 C584 1.327 . S
C582 H607 0.950 . S
C583 C582 1.349 . S
C583 C599 1.349 . S
C584 C582 1.327 . S
C584 C603 1.424 1_455 S
C584 H608 0.950 1_455 S
C585 C602 1.574 . S
C585 C604 1.368 . S
C585 H609 0.949 . S
H586 C590 0.949 . S
C587 C588 1.349 . S
C587 C589 1.327 . S
C587 H610 0.950 . S
C588 C587 1.349 . S
C588 C600 1.349 . S
C589 C587 1.327 . S
C589 C605 1.429 . S
C589 H611 0.950 . S
C590 H586 0.949 . S
C590 C598 1.574 . S
C590 C606 1.368 . S
H591 C599 0.950 . S
H592 C597 0.950 . S
H593 C598 0.949 . S
H594 C600 0.950 . S
H595 C601 0.950 . S
H596 C602 0.949 . S
C597 H592 0.950 . S
C597 C599 1.327 . S
C597 C603 1.419 1_455 S
C598 C590 1.574 . S
C598 H593 0.949 . S
C598 C604 1.368 . S
C599 C583 1.349 . S
C599 H591 0.950 . S
C599 C597 1.327 . S
C600 C588 1.349 . S
C600 H594 0.950 . S
C600 C601 1.327 . S
C601 H595 0.950 . S
C601 C600 1.327 . S
C601 C605 1.429 . S
C602 C585 1.574 . S
C602 H596 0.949 . S
C602 C606 1.368 . S
C603 C584 1.424 1_655 S
C603 C597 1.419 1_655 S
C603 C604 1.536 . S
C604 C585 1.368 . S
C604 C598 1.368 . S
C604 C603 1.536 . S
C605 C589 1.429 . S
C605 C601 1.429 . S
C605 C606 1.523 . S
C606 C590 1.368 . S
C606 C602 1.368 . S
C606 C605 1.523 . S
H607 C582 0.950 . S
H608 C584 0.950 1_655 S
H609 C585 0.949 . S
H610 C587 0.950 . S
H611 C589 0.950 . S
C612 C613 1.349 . S
C612 C614 1.327 . S
C612 H637 0.950 . S
C613 C612 1.349 . S
C613 C629 1.349 . S
C614 C612 1.327 . S
C614 C633 1.429 . S
C614 H638 0.950 . S
C615 C632 1.574 . S
C615 C634 1.368 . S
C615 H639 0.949 . S
H616 C620 0.949 . S
C617 C618 1.349 . S
C617 C619 1.327 . S
C617 H640 0.950 . S
C618 C617 1.349 . S
C618 C630 1.349 . S
C619 C617 1.327 . S
C619 C635 1.429 . S
C619 H641 0.950 . S
C620 H616 0.949 . S
C620 C628 1.574 . S
C620 C636 1.368 . S
H621 C629 0.950 . S
H622 C627 0.950 . S
H623 C628 0.949 . S
H624 C630 0.950 . S
H625 C631 0.950 . S
H626 C632 0.949 . S
C627 H622 0.950 . S
C627 C629 1.327 . S
C627 C633 1.429 . S
C628 C620 1.574 . S
C628 H623 0.949 . S
C628 C634 1.368 . S
C629 C613 1.349 . S
C629 H621 0.950 . S
C629 C627 1.327 . S
C630 C618 1.349 . S
C630 H624 0.950 . S
C630 C631 1.327 . S
C631 H625 0.950 . S
C631 C630 1.327 . S
C631 C635 1.429 . S
C632 C615 1.574 . S
C632 H626 0.949 . S
C632 C636 1.368 . S
C633 C614 1.429 . S
C633 C627 1.429 . S
C633 C634 1.523 . S
C634 C615 1.368 . S
C634 C628 1.368 . S
C634 C633 1.523 . S
C635 C619 1.429 . S
C635 C631 1.429 . S
C635 C636 1.523 . S
C636 C620 1.368 . S
C636 C632 1.368 . S
C636 C635 1.523 . S
H637 C612 0.950 . S
H638 C614 0.950 . S
H639 C615 0.949 . S
H640 C617 0.950 . S
H641 C619 0.950 . S
C642 C643 1.349 . S
C642 C644 1.327 . S
C642 H667 0.950 . S
C643 C642 1.349 . S
C643 C659 1.349 . S
C644 C642 1.327 . S
C644 C663 1.429 . S
C644 H668 0.950 . S
C645 C662 1.574 1_655 S
C645 C664 1.368 . S
C645 H669 0.949 . S
H646 C650 0.949 . S
C647 C648 1.349 . S
C647 C649 1.327 . S
C647 H670 0.950 . S
C648 C647 1.349 . S
C648 C660 1.349 . S
C649 C647 1.327 . S
C649 C665 1.429 . S
C649 H671 0.950 . S
C650 H646 0.949 . S
C650 C658 1.574 . S
C650 C666 1.368 . S
H651 C659 0.950 . S
H652 C657 0.950 . S
H653 C658 0.949 . S
H654 C660 0.950 . S
H655 C661 0.950 . S
H656 C662 0.949 . S
C657 H652 0.950 . S
C657 C659 1.327 . S
C657 C663 1.429 . S
C658 C650 1.574 . S
C658 H653 0.949 . S
C658 C664 1.368 1_455 S
C659 C643 1.349 . S
C659 H651 0.950 . S
C659 C657 1.327 . S
C660 C648 1.349 . S
C660 H654 0.950 . S
C660 C661 1.327 . S
C661 H655 0.950 . S
C661 C660 1.327 . S
C661 C665 1.429 . S
C662 C645 1.574 1_455 S
C662 H656 0.949 . S
C662 C666 1.368 . S
C663 C644 1.429 . S
C663 C657 1.429 . S
C663 C664 1.523 . S
C664 C645 1.368 . S
C664 C658 1.368 1_655 S
C664 C663 1.523 . S
C665 C649 1.429 . S
C665 C661 1.429 . S
C665 C666 1.523 . S
C666 C650 1.368 . S
C666 C662 1.368 . S
C666 C665 1.523 . S
H667 C642 0.950 . S
H668 C644 0.950 . S
H669 C645 0.949 . S
H670 C647 0.950 . S
H671 C649 0.950 . S
C672 C673 1.349 . S
C672 C674 1.327 . S
C672 H697 0.950 . S
C673 C672 1.349 . S
C673 C689 1.349 . S
C674 C672 1.327 . S
C674 C693 1.429 . S
C674 H698 0.950 . S
C675 C692 1.574 . S
C675 C694 1.368 . S
C675 H699 0.949 . S
H676 C680 0.949 . S
C677 C678 1.349 . S
C677 C679 1.327 . S
C677 H700 0.950 . S
C678 C677 1.349 . S
C678 C690 1.349 . S
C679 C677 1.327 . S
C679 C695 1.429 . S
C679 H701 0.950 . S
C680 H676 0.949 . S
C680 C688 1.574 . S
C680 C696 1.368 . S
H681 C689 0.950 . S
H682 C687 0.950 . S
H683 C688 0.949 . S
H684 C690 0.950 . S
H685 C691 0.950 . S
H686 C692 0.949 . S
C687 H682 0.950 . S
C687 C689 1.327 . S
C687 C693 1.429 . S
C688 C680 1.574 . S
C688 H683 0.949 . S
C688 C694 1.368 . S
C689 C673 1.349 . S
C689 H681 0.950 . S
C689 C687 1.327 . S
C690 C678 1.349 . S
C690 H684 0.950 . S
C690 C691 1.327 . S
C691 H685 0.950 . S
C691 C690 1.327 . S
C691 C695 1.429 . S
C692 C675 1.574 . S
C692 H686 0.949 . S
C692 C696 1.368 . S
C693 C674 1.429 . S
C693 C687 1.429 . S
C693 C694 1.523 . S
C694 C675 1.368 . S
C694 C688 1.368 . S
C694 C693 1.523 . S
C695 C679 1.429 . S
C695 C691 1.429 . S
C695 C696 1.523 . S
C696 C680 1.368 . S
C696 C692 1.368 . S
C696 C695 1.523 . S
H697 C672 0.950 . S
H698 C674 0.950 . S
H699 C675 0.949 . S
H700 C677 0.950 . S
H701 C679 0.950 . S
C702 C703 1.349 . S
C702 C704 1.327 . S
C702 H727 0.950 . S
C703 C702 1.349 . S
C703 C719 1.349 . S
C704 C702 1.327 . S
C704 C723 1.429 . S
C704 H728 0.950 . S
C705 C722 1.574 . S
C705 C724 1.368 . S
C705 H729 0.949 . S
H706 C710 0.949 . S
C707 C708 1.349 . S
C707 C709 1.327 . S
C707 H730 0.950 . S
C708 C707 1.349 . S
C708 C720 1.349 . S
C709 C707 1.327 . S
C709 C725 1.429 . S
C709 H731 0.950 . S
C710 H706 0.949 . S
C710 C718 1.574 . S
C710 C726 1.368 . S
H711 C719 0.950 . S
H712 C717 0.950 . S
H713 C718 0.949 . S
H714 C720 0.950 . S
H715 C721 0.950 . S
H716 C722 0.949 . S
C717 H712 0.950 . S
C717 C719 1.327 . S
C717 C723 1.429 . S
C718 C710 1.574 . S
C718 H713 0.949 . S
C718 C724 1.368 . S
C719 C703 1.349 . S
C719 H711 0.950 . S
C719 C717 1.327 . S
C720 C708 1.349 . S
C720 H714 0.950 . S
C720 C721 1.327 . S
C721 H715 0.950 . S
C721 C720 1.327 . S
C721 C725 1.429 . S
C722 C705 1.574 . S
C722 H716 0.949 . S
C722 C726 1.368 . S
C723 C704 1.429 . S
C723 C717 1.429 . S
C723 C724 1.523 . S
C724 C705 1.368 . S
C724 C718 1.368 . S
C724 C723 1.523 . S
C725 C709 1.429 . S
C725 C721 1.429 . S
C725 C726 1.523 . S
C726 C710 1.368 . S
C726 C722 1.368 . S
C726 C725 1.523 . S
H727 C702 0.950 . S
H728 C704 0.950 . S
H729 C705 0.949 . S
H730 C707 0.950 . S
H731 C709 0.950 . S
C732 C733 1.349 . S
C732 C734 1.327 . S
C732 H757 0.950 . S
C733 C732 1.349 . S
C733 C749 1.349 . S
C734 C732 1.327 . S
C734 C753 1.429 . S
C734 H758 0.950 . S
C735 C752 1.574 . S
C735 C754 1.368 . S
C735 H759 0.949 . S
H736 C740 0.949 . S
C737 C738 1.349 . S
C737 C739 1.327 . S
C737 H760 0.950 . S
C738 C737 1.349 . S
C738 C750 1.349 . S
C739 C737 1.327 . S
C739 C755 1.429 . S
C739 H761 0.950 . S
C740 H736 0.949 . S
C740 C748 1.574 . S
C740 C756 1.368 . S
H741 C749 0.950 . S
H742 C747 0.950 . S
H743 C748 0.949 . S
H744 C750 0.950 . S
H745 C751 0.950 . S
H746 C752 0.949 . S
C747 H742 0.950 . S
C747 C749 1.327 . S
C747 C753 1.429 . S
C748 C740 1.574 . S
C748 H743 0.949 . S
C748 C754 1.368 . S
C749 C733 1.349 . S
C749 H741 0.950 . S
C749 C747 1.327 . S
C750 C738 1.349 . S
C750 H744 0.950 . S
C750 C751 1.327 . S
C751 H745 0.950 . S
C751 C750 1.327 . S
C751 C755 1.429 . S
C752 C735 1.574 . S
C752 H746 0.949 . S
C752 C756 1.368 . S
C753 C734 1.429 . S
C753 C747 1.429 . S
C753 C754 1.523 . S
C754 C735 1.368 . S
C754 C748 1.368 . S
C754 C753 1.523 . S
C755 C739 1.429 . S
C755 C751 1.429 . S
C755 C756 1.523 . S
C756 C740 1.368 . S
C756 C752 1.368 . S
C756 C755 1.523 . S
H757 C732 0.950 . S
H758 C734 0.950 . S
H759 C735 0.949 . S
H760 C737 0.950 . S
H761 C739 0.950 . S
C762 C763 1.349 . S
C762 C764 1.327 . S
C762 H787 0.950 . S
C763 C762 1.349 . S
C763 C779 1.349 . S
C764 C762 1.327 . S
C764 C783 1.429 . S
C764 H788 0.950 . S
C765 C782 1.574 . S
C765 C784 1.368 . S
C765 H789 0.949 . S
H766 C770 0.949 . S
C767 C768 1.349 . S
C767 C769 1.327 . S
C767 H790 0.950 . S
C768 C767 1.349 . S
C768 C780 1.349 . S
C769 C767 1.327 . S
C769 C785 1.429 . S
C769 H791 0.950 . S
C770 H766 0.949 . S
C770 C778 1.574 . S
C770 C786 1.368 . S
H771 C779 0.950 . S
H772 C777 0.950 . S
H773 C778 0.949 . S
H774 C780 0.950 . S
H775 C781 0.950 . S
H776 C782 0.949 . S
C777 H772 0.950 . S
C777 C779 1.327 . S
C777 C783 1.429 . S
C778 C770 1.574 . S
C778 H773 0.949 . S
C778 C784 1.368 . S
C779 C763 1.349 . S
C779 H771 0.950 . S
C779 C777 1.327 . S
C780 C768 1.349 . S
C780 H774 0.950 . S
C780 C781 1.327 . S
C781 H775 0.950 . S
C781 C780 1.327 . S
C781 C785 1.429 . S
C782 C765 1.574 . S
C782 H776 0.949 . S
C782 C786 1.368 . S
C783 C764 1.429 . S
C783 C777 1.429 . S
C783 C784 1.523 . S
C784 C765 1.368 . S
C784 C778 1.368 . S
C784 C783 1.523 . S
C785 C769 1.429 . S
C785 C781 1.429 . S
C785 C786 1.523 . S
C786 C770 1.368 . S
C786 C782 1.368 . S
C786 C785 1.523 . S
H787 C762 0.950 . S
H788 C764 0.950 . S
H789 C765 0.949 . S
H790 C767 0.950 . S
H791 C769 0.950 . S
C792 C793 1.349 . S
C792 C794 1.327 . S
C792 H817 0.950 . S
C793 C792 1.349 . S
C793 C809 1.349 . S
C794 C792 1.327 . S
C794 C813 1.429 . S
C794 H818 0.950 . S
C795 C812 1.574 . S
C795 C814 1.368 . S
C795 H819 0.949 . S
H796 C800 0.949 . S
C797 C798 1.349 . S
C797 C799 1.327 . S
C797 H820 0.950 . S
C798 C797 1.349 . S
C798 C810 1.349 . S
C799 C797 1.327 . S
C799 C815 1.429 . S
C799 H821 0.950 . S
C800 H796 0.949 . S
C800 C808 1.574 . S
C800 C816 1.368 . S
H801 C809 0.950 . S
H802 C807 0.950 . S
H803 C808 0.949 . S
H804 C810 0.950 . S
H805 C811 0.950 . S
H806 C812 0.949 . S
C807 H802 0.950 . S
C807 C809 1.327 . S
C807 C813 1.429 . S
C808 C800 1.574 . S
C808 H803 0.949 . S
C808 C814 1.368 . S
C809 C793 1.349 . S
C809 H801 0.950 . S
C809 C807 1.327 . S
C810 C798 1.349 . S
C810 H804 0.950 . S
C810 C811 1.327 . S
C811 H805 0.950 . S
C811 C810 1.327 . S
C811 C815 1.429 . S
C812 C795 1.574 . S
C812 H806 0.949 . S
C812 C816 1.368 . S
C813 C794 1.429 . S
C813 C807 1.429 . S
C813 C814 1.523 . S
C814 C795 1.368 . S
C814 C808 1.368 . S
C814 C813 1.523 . S
C815 C799 1.429 . S
C815 C811 1.429 . S
C815 C816 1.523 . S
C816 C800 1.368 . S
C816 C812 1.368 . S
C816 C815 1.523 . S
H817 C792 0.950 . S
H818 C794 0.950 . S
H819 C795 0.949 . S
H820 C797 0.950 . S
H821 C799 0.950 . S
C822 C823 1.349 . S
C822 C824 1.327 . S
C822 H847 0.950 . S
C823 C822 1.349 . S
C823 C839 1.349 . S
C824 C822 1.327 . S
C824 C843 1.429 . S
C824 H848 0.950 . S
C825 C842 1.574 . S
C825 C844 1.368 . S
C825 H849 0.949 . S
H826 C830 0.949 . S
C827 C828 1.349 . S
C827 C829 1.327 . S
C827 H850 0.950 . S
C828 C827 1.349 . S
C828 C840 1.349 . S
C829 C827 1.327 . S
C829 C845 1.429 . S
C829 H851 0.950 . S
C830 H826 0.949 . S
C830 C838 1.574 . S
C830 C846 1.368 . S
H831 C839 0.950 . S
H832 C837 0.950 . S
H833 C838 0.949 . S
H834 C840 0.950 . S
H835 C841 0.950 . S
H836 C842 0.949 . S
C837 H832 0.950 . S
C837 C839 1.327 . S
C837 C843 1.429 . S
C838 C830 1.574 . S
C838 H833 0.949 . S
C838 C844 1.368 . S
C839 C823 1.349 . S
C839 H831 0.950 . S
C839 C837 1.327 . S
C840 C828 1.349 . S
C840 H834 0.950 . S
C840 C841 1.327 . S
C841 H835 0.950 . S
C841 C840 1.327 . S
C841 C845 1.429 . S
C842 C825 1.574 . S
C842 H836 0.949 . S
C842 C846 1.368 . S
C843 C824 1.429 . S
C843 C837 1.429 . S
C843 C844 1.523 . S
C844 C825 1.368 . S
C844 C838 1.368 . S
C844 C843 1.523 . S
C845 C829 1.429 . S
C845 C841 1.429 . S
C845 C846 1.523 . S
C846 C830 1.368 . S
C846 C842 1.368 . S
C846 C845 1.523 . S
H847 C822 0.950 . S
H848 C824 0.950 . S
H849 C825 0.949 . S
H850 C827 0.950 . S
H851 C829 0.950 . S
C852 C853 1.349 . S
C852 C854 1.327 . S
C852 H877 0.950 . S
C853 C852 1.349 . S
C853 C869 1.349 . S
C854 C852 1.327 . S
C854 C873 1.429 . S
C854 H878 0.950 . S
C855 C872 1.574 . S
C855 C874 1.368 . S
C855 H879 0.949 . S
H856 C860 0.949 . S
C857 C858 1.349 . S
C857 C859 1.327 . S
C857 H880 0.950 . S
C858 C857 1.349 . S
C858 C870 1.349 . S
C859 C857 1.327 . S
C859 C875 1.429 . S
C859 H881 0.950 . S
C860 H856 0.949 . S
C860 C868 1.574 . S
C860 C876 1.368 . S
H861 C869 0.950 . S
H862 C867 0.950 . S
H863 C868 0.949 . S
H864 C870 0.950 . S
H865 C871 0.950 . S
H866 C872 0.949 . S
C867 H862 0.950 . S
C867 C869 1.327 . S
C867 C873 1.429 . S
C868 C860 1.574 . S
C868 H863 0.949 . S
C868 C874 1.368 . S
C869 C853 1.349 . S
C869 H861 0.950 . S
C869 C867 1.327 . S
C870 C858 1.349 . S
C870 H864 0.950 . S
C870 C871 1.327 . S
C871 H865 0.950 . S
C871 C870 1.327 . S
C871 C875 1.429 . S
C872 C855 1.574 . S
C872 H866 0.949 . S
C872 C876 1.368 . S
C873 C854 1.429 . S
C873 C867 1.429 . S
C873 C874 1.523 . S
C874 C855 1.368 . S
C874 C868 1.368 . S
C874 C873 1.523 . S
C875 C859 1.429 . S
C875 C871 1.429 . S
C875 C876 1.523 . S
C876 C860 1.368 . S
C876 C872 1.368 . S
C876 C875 1.523 . S
H877 C852 0.950 . S
H878 C854 0.950 . S
H879 C855 0.949 . S
H880 C857 0.950 . S
H881 C859 0.950 . S
C882 C883 1.349 . S
C882 C884 1.327 . S
C882 H907 0.950 . S
C883 C882 1.349 . S
C883 C899 1.349 . S
C884 C882 1.327 . S
C884 C903 1.429 . S
C884 H908 0.950 . S
C885 C902 1.574 . S
C885 C904 1.368 . S
C885 H909 0.949 . S
H886 C890 0.949 . S
C887 C888 1.349 . S
C887 C889 1.327 . S
C887 H910 0.950 . S
C888 C887 1.349 . S
C888 C900 1.349 . S
C889 C887 1.327 . S
C889 C905 1.429 . S
C889 H911 0.950 . S
C890 H886 0.949 . S
C890 C898 1.574 . S
C890 C906 1.368 . S
H891 C899 0.950 . S
H892 C897 0.950 . S
H893 C898 0.949 . S
H894 C900 0.950 . S
H895 C901 0.950 . S
H896 C902 0.949 . S
C897 H892 0.950 . S
C897 C899 1.327 . S
C897 C903 1.429 . S
C898 C890 1.574 . S
C898 H893 0.949 . S
C898 C904 1.368 . S
C899 C883 1.349 . S
C899 H891 0.950 . S
C899 C897 1.327 . S
C900 C888 1.349 . S
C900 H894 0.950 . S
C900 C901 1.327 . S
C901 H895 0.950 . S
C901 C900 1.327 . S
C901 C905 1.429 . S
C902 C885 1.574 . S
C902 H896 0.949 . S
C902 C906 1.368 . S
C903 C884 1.429 . S
C903 C897 1.429 . S
C903 C904 1.523 . S
C904 C885 1.368 . S
C904 C898 1.368 . S
C904 C903 1.523 . S
C905 C889 1.429 . S
C905 C901 1.429 . S
C905 C906 1.523 . S
C906 C890 1.368 . S
C906 C902 1.368 . S
C906 C905 1.523 . S
H907 C882 0.950 . S
H908 C884 0.950 . S
H909 C885 0.949 . S
H910 C887 0.950 . S
H911 C889 0.950 . S
C193 C8 1.293 . S
C198 N93 1.312 . S
C223 C31 1.203 . S
C228 N106 1.220 . S
C253 C53 1.242 . S
C258 N115 1.266 . S
C288 N132 1.316 . S
C283 C74 1.292 . S
C318 N145 1.312 . S
C313 C26 1.293 . S
C343 C48 1.292 . S
C348 N154 1.319 . S
C373 C71 1.240 . S
C378 N167 1.264 . S
C403 C5 1.207 . S
C408 N184 1.224 . S
C433 C50 1.291 . S
C438 N180 1.312 . S
C468 N141 1.218 . S
C463 C70 1.199 . S
C498 N158 1.268 . S
C493 C4 1.245 . S
C523 C28 1.292 . S
C528 N171 1.319 . S
C558 N102 1.313 . S
C553 C73 1.291 . S
C583 C7 1.295 . S
C588 N119 1.321 . S
C618 N128 1.255 . S
C613 C30 1.238 . S
C648 N89 1.222 . S
C643 C52 1.203 . S
C678 N168 1.325 . S
C673 C9 1.319 . S
C708 N181 1.327 . S
C703 C29 1.316 . S
C733 C51 1.311 . S
C738 N142 1.323 . S
C768 N155 1.325 . S
C763 C75 1.321 . S
C798 N116 1.328 . S
C793 C27 1.323 . S
C823 C49 1.317 . S
C828 N129 1.318 . S
C858 N90 1.327 . S
C853 C72 1.315 . S
C888 N103 1.324 . S
C883 C6 1.314 . S
