# Generated by pormake.
# Topology pyr, (3,6)-cn, num edge types: 1
# Building blocks:
#     Node 0, Type 0, BuildingBlock: KAKCAD_clean_linker_0, # of connection points: 3
#     Node 1, Type 0, BuildingBlock: KAKCAD_clean_linker_0, # of connection points: 3
#     Node 2, Type 0, BuildingBlock: KAKCAD_clean_linker_0, # of connection points: 3
#     Node 3, Type 0, BuildingBlock: KAKCAD_clean_linker_0, # of connection points: 3
#     Node 4, Type 0, BuildingBlock: KAKCAD_clean_linker_0, # of connection points: 3
#     Node 5, Type 0, BuildingBlock: KAKCAD_clean_linker_0, # of connection points: 3
#     Node 6, Type 0, BuildingBlock: KAKCAD_clean_linker_0, # of connection points: 3
#     Node 7, Type 0, BuildingBlock: KAKCAD_clean_linker_0, # of connection points: 3
#     Node 8, Type 1, BuildingBlock: PAMTUU_clean_sbu_0, # of connection points: 6
#     Node 9, Type 1, BuildingBlock: PAMTUU_clean_sbu_0, # of connection points: 6
#     Node 10, Type 1, BuildingBlock: PAMTUU_clean_sbu_0, # of connection points: 6
#     Node 11, Type 1, BuildingBlock: PAMTUU_clean_sbu_0, # of connection points: 6
#     Edge 12, Type (0, 1), BuildingBlock: UVAHIK_clean_linker_0, # of connection points: 2
#     Edge 13, Type (0, 1), BuildingBlock: UVAHIK_clean_linker_0, # of connection points: 2
#     Edge 14, Type (0, 1), BuildingBlock: UVAHIK_clean_linker_0, # of connection points: 2
#     Edge 15, Type (0, 1), BuildingBlock: UVAHIK_clean_linker_0, # of connection points: 2
#     Edge 16, Type (0, 1), BuildingBlock: UVAHIK_clean_linker_0, # of connection points: 2
#     Edge 17, Type (0, 1), BuildingBlock: UVAHIK_clean_linker_0, # of connection points: 2
#     Edge 18, Type (0, 1), BuildingBlock: UVAHIK_clean_linker_0, # of connection points: 2
#     Edge 19, Type (0, 1), BuildingBlock: UVAHIK_clean_linker_0, # of connection points: 2
#     Edge 20, Type (0, 1), BuildingBlock: UVAHIK_clean_linker_0, # of connection points: 2
#     Edge 21, Type (0, 1), BuildingBlock: UVAHIK_clean_linker_0, # of connection points: 2
#     Edge 22, Type (0, 1), BuildingBlock: UVAHIK_clean_linker_0, # of connection points: 2
#     Edge 23, Type (0, 1), BuildingBlock: UVAHIK_clean_linker_0, # of connection points: 2
#     Edge 24, Type (0, 1), BuildingBlock: UVAHIK_clean_linker_0, # of connection points: 2
#     Edge 25, Type (0, 1), BuildingBlock: UVAHIK_clean_linker_0, # of connection points: 2
#     Edge 26, Type (0, 1), BuildingBlock: UVAHIK_clean_linker_0, # of connection points: 2
#     Edge 27, Type (0, 1), BuildingBlock: UVAHIK_clean_linker_0, # of connection points: 2
#     Edge 28, Type (0, 1), BuildingBlock: UVAHIK_clean_linker_0, # of connection points: 2
#     Edge 29, Type (0, 1), BuildingBlock: UVAHIK_clean_linker_0, # of connection points: 2
#     Edge 30, Type (0, 1), BuildingBlock: UVAHIK_clean_linker_0, # of connection points: 2
#     Edge 31, Type (0, 1), BuildingBlock: UVAHIK_clean_linker_0, # of connection points: 2
#     Edge 32, Type (0, 1), BuildingBlock: UVAHIK_clean_linker_0, # of connection points: 2
#     Edge 33, Type (0, 1), BuildingBlock: UVAHIK_clean_linker_0, # of connection points: 2
#     Edge 34, Type (0, 1), BuildingBlock: UVAHIK_clean_linker_0, # of connection points: 2
#     Edge 35, Type (0, 1), BuildingBlock: UVAHIK_clean_linker_0, # of connection points: 2
# Relax obj value: 0.063
# Max RMSD: 0.111
# Mean RMSD: 0.047
data_MOF--net-pyr--node1-PAMTUU_clean_sbu_0--node2-KAKCAD_clean_linker_0--edge1-UVAHIK_clean_linker_0
_symmetry_space_group_name_H-M    P1
_symmetry_Int_Tables_number       1
_symmetry_cell_setting            triclinic
loop_
_symmetry_equiv_pos_as_xyz
'x, y, z'
_cell_length_a     57.877558
_cell_length_b     58.751201
_cell_length_c     57.239687
_cell_angle_alpha  90.22123
_cell_angle_beta   89.085507
_cell_angle_gamma 98.849073
loop_
_atom_site_label
_atom_site_type_symbol
_atom_site_fract_x
_atom_site_fract_y
_atom_site_fract_z
_atom_type_partial_charge
C0 C 0.24555 0.22296 0.25405 0.0
C1 C 0.25685 0.21865 0.27475 0.0
C2 C 0.2582 0.23388 0.23525 0.0
C3 C 0.28249 0.2408 0.23665 0.0
C4 C 0.29386 0.23653 0.25733 0.0
C5 C 0.28115 0.22558 0.27622 0.0
C6 C 0.2958 0.25186 0.21626 0.0
C7 C 0.2864 0.26811 0.20293 0.0
C8 C 0.29753 0.27696 0.18229 0.0
C9 C 0.31853 0.2699 0.17508 0.0
C10 C 0.32805 0.25332 0.18795 0.0
C11 C 0.31678 0.2447 0.20878 0.0
C12 C 0.34777 0.24271 0.17813 0.0
C13 C 0.34784 0.23647 0.15442 0.0
C14 C 0.36553 0.23705 0.1925 0.0
C15 C 0.38264 0.22488 0.18343 0.0
C16 C 0.38227 0.2181 0.15982 0.0
C17 C 0.28551 0.29124 0.16688 0.0
C18 C 0.26362 0.28202 0.15797 0.0
C19 C 0.29539 0.31392 0.16129 0.0
C20 C 0.28307 0.32748 0.1475 0.0
C21 C 0.26105 0.31825 0.13873 0.0
C22 C 0.25158 0.29534 0.14388 0.0
C23 C 0.36483 0.22431 0.1454 0.0
H24 H 0.22695 0.21739 0.25214 0.0
H25 H 0.24899 0.23642 0.21937 0.0
H26 H 0.31254 0.2418 0.25895 0.0
H27 H 0.29033 0.22267 0.29201 0.0
H28 H 0.27004 0.27355 0.20829 0.0
H29 H 0.32343 0.23123 0.21829 0.0
H30 H 0.32677 0.27642 0.15879 0.0
H31 H 0.33412 0.24006 0.14298 0.0
H32 H 0.366 0.24177 0.21082 0.0
H33 H 0.39598 0.22056 0.19494 0.0
H34 H 0.25579 0.26449 0.16203 0.0
H35 H 0.31229 0.32127 0.16803 0.0
H36 H 0.36365 0.21894 0.12728 0.0
H37 H 0.23451 0.28793 0.13757 0.0
H38 H 0.29067 0.34513 0.14375 0.0
C39 C 0.22145 0.80842 0.79507 0.0
C40 C 0.24574 0.81156 0.79825 0.0
C41 C 0.21181 0.79868 0.77436 0.0
C42 C 0.22635 0.79229 0.7563 0.0
C43 C 0.25069 0.79565 0.75963 0.0
C44 C 0.26021 0.80495 0.78041 0.0
C45 C 0.21653 0.78294 0.73368 0.0
C46 C 0.19773 0.79161 0.72348 0.0
C47 C 0.19005 0.78453 0.70101 0.0
C48 C 0.20145 0.76856 0.68872 0.0
C49 C 0.22048 0.76009 0.69849 0.0
C50 C 0.22735 0.76675 0.72119 0.0
C51 C 0.23507 0.7466 0.68415 0.0
C52 C 0.22508 0.7276 0.67077 0.0
C53 C 0.25943 0.75332 0.6834 0.0
C54 C 0.27356 0.74134 0.66963 0.0
C55 C 0.2637 0.72228 0.65632 0.0
C56 C 0.17172 0.79556 0.68957 0.0
C57 C 0.15207 0.80042 0.7023 0.0
C58 C 0.17444 0.80243 0.66606 0.0
C59 C 0.15816 0.81423 0.65565 0.0
C60 C 0.1388 0.81956 0.6685 0.0
C61 C 0.1358 0.81235 0.69188 0.0
C62 C 0.23934 0.71538 0.65711 0.0
H63 H 0.20996 0.81342 0.80864 0.0
H64 H 0.193 0.79616 0.77253 0.0
H65 H 0.26258 0.79168 0.74595 0.0
H66 H 0.27904 0.80764 0.78224 0.0
H67 H 0.18994 0.80491 0.73242 0.0
H68 H 0.24172 0.75968 0.72884 0.0
H69 H 0.19619 0.76347 0.67113 0.0
H70 H 0.20634 0.72211 0.67106 0.0
H71 H 0.26758 0.76809 0.69327 0.0
H72 H 0.2923 0.74687 0.6696 0.0
H73 H 0.14934 0.79514 0.72037 0.0
H74 H 0.18961 0.79944 0.65587 0.0
H75 H 0.23133 0.70075 0.64697 0.0
H76 H 0.12092 0.81601 0.70216 0.0
H77 H 0.16122 0.81992 0.63773 0.0
C78 C 0.73773 0.41275 0.86971 0.0
C79 C 0.75373 0.39936 0.87881 0.0
C80 C 0.71734 0.40238 0.85838 0.0
C81 C 0.71229 0.37826 0.85573 0.0
C82 C 0.72858 0.36497 0.86439 0.0
C83 C 0.74886 0.37531 0.87576 0.0
C84 C 0.6899 0.36686 0.84473 0.0
C85 C 0.68019 0.37672 0.82541 0.0
C86 C 0.65907 0.36607 0.81517 0.0
C87 C 0.64781 0.34494 0.82482 0.0
C88 C 0.65734 0.33449 0.84389 0.0
C89 C 0.67817 0.34583 0.85372 0.0
C90 C 0.6459 0.31166 0.85372 0.0
C91 C 0.62147 0.30641 0.85699 0.0
C92 C 0.65958 0.29502 0.86058 0.0
C93 C 0.64931 0.27405 0.87064 0.0
C94 C 0.62494 0.26889 0.87427 0.0
C95 C 0.64903 0.37685 0.7943 0.0
C96 C 0.65199 0.40099 0.79134 0.0
C97 C 0.63649 0.36317 0.77695 0.0
C98 C 0.62724 0.3732 0.75757 0.0
C99 C 0.63042 0.39729 0.75458 0.0
C100 C 0.643 0.41099 0.77179 0.0
C101 C 0.61117 0.28542 0.8672 0.0
H102 H 0.74065 0.43129 0.87184 0.0
H103 H 0.70523 0.41327 0.85225 0.0
H104 H 0.72577 0.34643 0.86229 0.0
H105 H 0.76089 0.36436 0.88198 0.0
H106 H 0.68953 0.39244 0.81792 0.0
H107 H 0.68504 0.33841 0.86892 0.0
H108 H 0.63162 0.33647 0.81745 0.0
H109 H 0.61031 0.31875 0.85211 0.0
H110 H 0.6784 0.29818 0.85815 0.0
H111 H 0.66063 0.26203 0.87599 0.0
H112 H 0.66101 0.41236 0.80431 0.0
H113 H 0.63409 0.34457 0.77802 0.0
H114 H 0.59234 0.28209 0.86942 0.0
H115 H 0.64558 0.42959 0.7704 0.0
H116 H 0.61797 0.36198 0.74462 0.0
C117 C 0.86653 0.64358 0.25414 0.0
C118 C 0.89071 0.64332 0.25144 0.0
C119 C 0.85745 0.65289 0.27429 0.0
C120 C 0.87229 0.66245 0.29224 0.0
C121 C 0.8965 0.66256 0.28936 0.0
C122 C 0.90557 0.65302 0.26931 0.0
C123 C 0.8625 0.67161 0.31414 0.0
C124 C 0.84241 0.65933 0.32511 0.0
C125 C 0.83349 0.66719 0.34615 0.0
C126 C 0.8447 0.68783 0.35607 0.0
C127 C 0.86435 0.70095 0.34518 0.0
C128 C 0.87327 0.69246 0.3243 0.0
C129 C 0.87514 0.72355 0.35564 0.0
C130 C 0.86106 0.7379 0.36698 0.0
C131 C 0.89948 0.73091 0.35482 0.0
C132 C 0.90938 0.75178 0.36523 0.0
C133 C 0.89528 0.7659 0.37695 0.0
C134 C 0.81238 0.65402 0.3579 0.0
C135 C 0.79201 0.64637 0.34528 0.0
C136 C 0.8122 0.64972 0.38205 0.0
C137 C 0.79209 0.63831 0.39336 0.0
C138 C 0.77139 0.63115 0.38093 0.0
C139 C 0.77175 0.63522 0.35665 0.0
C140 C 0.87094 0.75856 0.37758 0.0
H141 H 0.85452 0.63615 0.24086 0.0
H142 H 0.83873 0.65267 0.27579 0.0
H143 H 0.90846 0.66959 0.30286 0.0
H144 H 0.92429 0.65335 0.26777 0.0
H145 H 0.83408 0.6432 0.31767 0.0
H146 H 0.88822 0.70237 0.31553 0.0
H147 H 0.83788 0.69372 0.37236 0.0
H148 H 0.84222 0.73324 0.36766 0.0
H149 H 0.91102 0.72039 0.34645 0.0
H150 H 0.92815 0.75685 0.36396 0.0
H151 H 0.79152 0.64962 0.32669 0.0
H152 H 0.82772 0.65511 0.39222 0.0
H153 H 0.85937 0.76858 0.38662 0.0
H154 H 0.7562 0.63036 0.34641 0.0
H155 H 0.79287 0.63506 0.41191 0.0
C156 C 0.74902 0.78601 0.75036 0.0
C157 C 0.75302 0.81022 0.75006 0.0
C158 C 0.73467 0.77417 0.7677 0.0
C159 C 0.72399 0.78635 0.78496 0.0
C160 C 0.72725 0.81053 0.78394 0.0
C161 C 0.74151 0.82229 0.76668 0.0
C162 C 0.71137 0.77435 0.80533 0.0
C163 C 0.72072 0.75689 0.8168 0.0
C164 C 0.71149 0.7483 0.83841 0.0
C165 C 0.6928 0.75759 0.84876 0.0
C166 C 0.68291 0.7749 0.83734 0.0
C167 C 0.69184 0.78245 0.81521 0.0
C168 C 0.66486 0.78667 0.84922 0.0
C169 C 0.64808 0.77477 0.86472 0.0
C170 C 0.66491 0.81041 0.84574 0.0
C171 C 0.64863 0.82185 0.85717 0.0
C172 C 0.63226 0.81004 0.87283 0.0
C173 C 0.72318 0.73129 0.85092 0.0
C174 C 0.72999 0.71255 0.83874 0.0
C175 C 0.72967 0.73489 0.87436 0.0
C176 C 0.74388 0.72082 0.88495 0.0
C177 C 0.75182 0.7029 0.87229 0.0
C178 C 0.74413 0.69849 0.84932 0.0
C179 C 0.63209 0.78644 0.87664 0.0
H180 H 0.75768 0.77626 0.73776 0.0
H181 H 0.73234 0.75553 0.76791 0.0
H182 H 0.71961 0.82052 0.7971 0.0
H183 H 0.74392 0.84095 0.76665 0.0
H184 H 0.73625 0.75102 0.80969 0.0
H185 H 0.68412 0.79534 0.80589 0.0
H186 H 0.68654 0.75179 0.86598 0.0
H187 H 0.64728 0.75649 0.86771 0.0
H188 H 0.67795 0.82048 0.83466 0.0
H189 H 0.64931 0.84017 0.85434 0.0
H190 H 0.72495 0.70919 0.82076 0.0
H191 H 0.72487 0.74934 0.8841 0.0
H192 H 0.61958 0.77708 0.88877 0.0
H193 H 0.74957 0.68451 0.83928 0.0
H194 H 0.74965 0.72476 0.90262 0.0
C195 C 0.76787 0.20368 0.26831 0.0
C196 C 0.76113 0.21732 0.25034 0.0
C197 C 0.7832 0.21344 0.28541 0.0
C198 C 0.7919 0.23711 0.28502 0.0
C199 C 0.78567 0.25069 0.26667 0.0
C200 C 0.77055 0.24079 0.24929 0.0
C201 C 0.80556 0.24764 0.30503 0.0
C202 C 0.82344 0.23701 0.31431 0.0
C203 C 0.83355 0.24416 0.33583 0.0
C204 C 0.82591 0.26276 0.3477 0.0
C205 C 0.80847 0.27401 0.33819 0.0
C206 C 0.79858 0.26647 0.31675 0.0
C207 C 0.79833 0.29181 0.35159 0.0
C208 C 0.7903 0.28747 0.37467 0.0
C209 C 0.79394 0.31191 0.34044 0.0
C210 C 0.78059 0.32671 0.35163 0.0
C211 C 0.77111 0.32157 0.37413 0.0
C212 C 0.85081 0.23109 0.34646 0.0
C213 C 0.84807 0.20696 0.34418 0.0
C214 C 0.86996 0.24238 0.35902 0.0
C215 C 0.886 0.22982 0.36894 0.0
C216 C 0.88335 0.20578 0.36625 0.0
C217 C 0.86423 0.19451 0.3538 0.0
C218 C 0.77676 0.30217 0.38581 0.0
H219 H 0.76092 0.18549 0.26935 0.0
H220 H 0.78746 0.20263 0.29951 0.0
H221 H 0.79217 0.26898 0.26602 0.0
H222 H 0.76553 0.25161 0.23556 0.0
H223 H 0.82905 0.22272 0.30492 0.0
H224 H 0.78416 0.27418 0.31005 0.0
H225 H 0.83293 0.26804 0.36465 0.0
H226 H 0.79322 0.27195 0.38357 0.0
H227 H 0.80015 0.31575 0.32272 0.0
H228 H 0.77705 0.34179 0.34234 0.0
H229 H 0.83321 0.19755 0.33526 0.0
H230 H 0.87271 0.26094 0.36096 0.0
H231 H 0.76961 0.29757 0.40305 0.0
H232 H 0.86149 0.17593 0.35189 0.0
H233 H 0.90065 0.2389 0.37845 0.0
C234 C 0.26993 0.626 0.17601 0.0
C235 C 0.26704 0.62795 0.15168 0.0
C236 C 0.29029 0.63688 0.18704 0.0
C237 C 0.30856 0.65003 0.17414 0.0
C238 C 0.30582 0.65159 0.14978 0.0
C239 C 0.28545 0.64092 0.13882 0.0
C240 C 0.33009 0.66259 0.18585 0.0
C241 C 0.34002 0.65323 0.20534 0.0
C242 C 0.36022 0.66503 0.21632 0.0
C243 C 0.37072 0.68653 0.20685 0.0
C244 C 0.36141 0.69616 0.18711 0.0
C245 C 0.34086 0.68416 0.17728 0.0
C246 C 0.37292 0.71862 0.17635 0.0
C247 C 0.3837 0.73714 0.19008 0.0
C248 C 0.37273 0.7219 0.15194 0.0
C249 C 0.38228 0.743 0.14171 0.0
C250 C 0.39267 0.76162 0.15542 0.0
C251 C 0.37035 0.65478 0.23747 0.0
C252 C 0.35587 0.64089 0.25362 0.0
C253 C 0.39458 0.65865 0.24182 0.0
C254 C 0.40389 0.64912 0.26147 0.0
C255 C 0.38942 0.63506 0.27752 0.0
C256 C 0.3652 0.63113 0.2731 0.0
C257 C 0.39349 0.75827 0.17976 0.0
H258 H 0.25649 0.61595 0.18665 0.0
H259 H 0.29147 0.6353 0.2058 0.0
H260 H 0.31951 0.66109 0.13898 0.0
H261 H 0.28407 0.64327 0.12018 0.0
H262 H 0.33231 0.63635 0.21156 0.0
H263 H 0.33287 0.69197 0.16302 0.0
H264 H 0.38622 0.69582 0.21478 0.0
H265 H 0.38411 0.73556 0.2089 0.0
H266 H 0.36526 0.70804 0.14054 0.0
H267 H 0.38172 0.74463 0.12289 0.0
H268 H 0.33711 0.63762 0.25143 0.0
H269 H 0.4066 0.66886 0.22988 0.0
H270 H 0.4012 0.77219 0.19097 0.0
H271 H 0.35326 0.62022 0.28454 0.0
H272 H 0.42255 0.65307 0.26411 0.0
C273 C 0.15046 0.27351 0.65923 0.0
C274 C 0.12608 0.26794 0.65706 0.0
C275 C 0.16048 0.29422 0.66963 0.0
C276 C 0.14648 0.31016 0.67807 0.0
C277 C 0.12202 0.30432 0.67653 0.0
C278 C 0.11195 0.28346 0.66619 0.0
C279 C 0.1576 0.33304 0.68748 0.0
C280 C 0.17804 0.34468 0.67667 0.0
C281 C 0.18945 0.36586 0.68523 0.0
C282 C 0.17975 0.37578 0.7048 0.0
C283 C 0.15915 0.36468 0.71601 0.0
C284 C 0.14821 0.34328 0.70709 0.0
C285 C 0.14934 0.3753 0.73718 0.0
C286 C 0.16425 0.38689 0.75409 0.0
C287 C 0.12504 0.37412 0.74068 0.0
C288 C 0.11596 0.38429 0.76036 0.0
C289 C 0.1309 0.39596 0.77721 0.0
C290 C 0.21159 0.37728 0.67362 0.0
C291 C 0.22847 0.36406 0.66563 0.0
C292 C 0.21587 0.40124 0.66987 0.0
C293 C 0.23625 0.41158 0.65808 0.0
C294 C 0.25289 0.39824 0.64971 0.0
C295 C 0.24876 0.37436 0.65385 0.0
C296 C 0.15519 0.39706 0.77373 0.0
H297 H 0.16189 0.26179 0.65292 0.0
H298 H 0.17934 0.29775 0.671 0.0
H299 H 0.11065 0.31618 0.68265 0.0
H300 H 0.09311 0.27981 0.66473 0.0
H301 H 0.18493 0.3374 0.66111 0.0
H302 H 0.13279 0.33423 0.71584 0.0
H303 H 0.18836 0.39217 0.71138 0.0
H304 H 0.18304 0.38796 0.7523 0.0
H305 H 0.11294 0.36556 0.72802 0.0
H306 H 0.09717 0.38277 0.76246 0.0
H307 H 0.22608 0.34565 0.66861 0.0
H308 H 0.2032 0.41195 0.67553 0.0
H309 H 0.16735 0.40607 0.78607 0.0
H310 H 0.26136 0.36357 0.64816 0.0
H311 H 0.23869 0.42998 0.65505 0.0
Tb312 Tb 0.03575 0.01622 0.50277 0.0
Tb313 Tb 0.98875 0.01414 0.53577 0.0
C314 C 0.99324 0.97672 0.49708 0.0
C315 C 0.0861 0.03545 0.46273 0.0
C316 C 0.11415 0.06885 0.43526 0.0
C317 C 0.11666 0.04545 0.43347 0.0
C318 C 0.10275 0.02891 0.44713 0.0
C319 C 0.08329 0.05868 0.46447 0.0
C320 C 0.09725 0.07528 0.45086 0.0
C321 C 0.07188 0.01789 0.47713 0.0
O322 O 0.01096 0.03262 0.48302 0.0
O323 O 0.98929 0.04394 0.51357 0.0
O324 O 0.01573 0.03942 0.5516 0.0
O325 O 0.03936 0.04986 0.51966 0.0
O326 O 0.95234 0.01276 0.53883 0.0
O327 O 0.974 0.01473 0.56938 0.0
O328 O 1.00545 0.98551 0.54693 0.0
O329 O 0.04279 1.00055 0.53572 0.0
O330 O 0.0161 0.98183 0.49817 0.0
O331 O 0.97955 0.99011 0.50684 0.0
C332 C 0.99641 0.04566 0.49172 0.0
O333 O 0.07231 0.02166 0.49957 0.0
O334 O 0.05073 1.0109 0.46991 0.0
C335 C 0.03207 0.05394 0.54091 0.0
C336 C 0.93626 0.99407 0.57306 0.0
C337 C 0.90691 0.95998 0.59842 0.0
C338 C 0.9059 0.98346 0.60232 0.0
C339 C 0.92048 1.00034 0.58973 0.0
C340 C 0.93705 0.97068 0.56865 0.0
C341 C 0.92236 0.95371 0.5812 0.0
C342 C 0.95273 1.01214 0.56159 0.0
C343 C 0.02811 0.98592 0.54809 0.0
H344 H 0.12921 0.03987 0.42134 0.0
H345 H 0.105 1.01099 0.44552 0.0
H346 H 0.07044 0.06398 0.47646 0.0
H347 H 0.09503 0.09316 0.45282 0.0
H348 H 0.89392 0.98878 0.61524 0.0
H349 H 0.91972 0.01834 0.59333 0.0
H350 H 0.94933 0.9656 0.55589 0.0
H351 H 0.92358 0.93576 0.57795 0.0
Tb352 Tb 0.53144 0.01814 0.03248 0.0
Tb353 Tb 0.48601 0.01346 0.99819 0.0
C354 C 0.52591 0.98392 0.98951 0.0
C355 C 0.57998 0.04276 0.07121 0.0
C356 C 0.60571 0.07917 0.09627 0.0
C357 C 0.61706 0.06241 0.08533 0.0
C358 C 0.60427 0.04432 0.07296 0.0
C359 C 0.56857 0.05969 0.08172 0.0
C360 C 0.58134 0.07769 0.0943 0.0
C361 C 0.56698 0.02358 0.05804 0.0
O362 O 0.53464 0.05076 1.01346 0.0
O363 O 0.51332 0.03826 0.98123 0.0
O364 O 0.48542 0.04396 0.01947 0.0
O365 O 0.50491 0.03373 0.05125 0.0
O366 O 0.47145 1.01055 0.96481 0.0
O367 O 0.44994 0.01407 0.99548 0.0
O368 O 0.47606 0.98856 0.02656 0.0
O369 O 0.51227 0.98398 0.04011 0.0
O370 O 0.54001 0.99843 1.00225 0.0
O371 O 0.50346 0.98477 0.98823 0.0
C372 C 0.52869 0.05369 0.99171 0.0
O373 O 0.5459 0.01569 0.06558 0.0
O374 O 0.56794 0.02576 0.0354 0.0
C375 C 0.49083 0.04628 0.04157 0.0
C376 C 0.43219 0.99159 0.96456 0.0
C377 C 0.39692 0.95752 0.9471 0.0
C378 C 0.39113 0.97742 0.95804 0.0
C379 C 0.40861 0.99431 0.96658 0.0
C380 C 0.43808 0.97152 0.95417 0.0
C381 C 0.42062 0.9547 0.94544 0.0
C382 C 0.45023 1.01006 0.97307 0.0
C383 C 0.48958 0.9771 0.03885 0.0
H384 H 0.63578 0.06298 0.0868 0.0
H385 H 0.61335 0.03146 0.06484 0.0
H386 H 0.54982 0.05896 0.08029 0.0
H387 H 0.5722 0.09049 0.10242 0.0
H388 H 0.37307 0.97999 0.95999 0.0
H389 H 0.4037 1.00961 0.97467 0.0
H390 H 0.45617 0.96893 0.95251 0.0
H391 H 0.42576 0.93975 0.93688 0.0
Tb392 Tb 0.51218 0.49089 0.49989 0.0
Tb393 Tb 0.51083 0.53869 0.52892 0.0
C394 C 0.4882 0.53167 0.47921 0.0
C395 C 0.53571 0.44213 0.47296 0.0
C396 C 0.57498 0.42114 0.46138 0.0
C397 C 0.55332 0.41387 0.45073 0.0
C398 C 0.53385 0.42433 0.45646 0.0
C399 C 0.55704 0.449 0.48416 0.0
C400 C 0.57651 0.43858 0.47844 0.0
C401 C 0.51602 0.45472 0.47707 0.0
O402 O 0.54799 0.50912 0.49911 0.0
O403 O 0.54004 0.54577 0.50423 0.0
O404 O 0.53519 0.52083 0.54817 0.0
O405 O 0.52274 0.48398 0.53541 0.0
O406 O 0.51258 0.57467 0.52883 0.0
O407 O 0.50822 0.55556 0.56102 0.0
O408 O 0.48118 0.51458 0.54195 0.0
O409 O 0.47589 0.48828 0.51196 0.0
O410 O 0.50052 0.51497 0.47511 0.0
O411 O 0.48623 0.53989 0.50044 0.0
C412 C 0.55405 0.53151 0.4971 0.0
O413 O 0.50792 0.4547 0.49843 0.0
O414 O 0.51873 0.47525 0.46799 0.0
C415 C 0.53397 0.49837 0.55057 0.0
C416 C 0.48746 0.5865 0.55726 0.0
C417 C 0.44848 0.60792 0.5687 0.0
C418 C 0.4713 0.61905 0.57321 0.0
C419 C 0.49065 0.60838 0.56754 0.0
C420 C 0.46477 0.57533 0.55266 0.0
C421 C 0.44543 0.58593 0.55838 0.0
C422 C 0.5077 0.57536 0.55107 0.0
C423 C 0.46845 0.49736 0.53118 0.0
H424 H 0.55148 0.40026 0.43776 0.0
H425 H 0.51751 0.41888 0.44763 0.0
H426 H 0.55879 0.46287 0.49685 0.0
H427 H 0.59297 0.44478 0.48676 0.0
H428 H 0.47419 0.63587 0.5814 0.0
H429 H 0.50807 0.6172 0.57118 0.0
H430 H 0.46204 0.55844 0.54457 0.0
H431 H 0.42811 0.57704 0.55443 0.0
Tb432 Tb 0.00996 0.54072 1.00084 0.0
Tb433 Tb 1.00871 0.49318 0.03018 0.0
C434 C 0.0331 0.49995 0.98021 0.0
C435 C 0.98798 0.58833 0.97077 0.0
C436 C 0.94767 0.60623 0.95724 0.0
C437 C 0.95921 0.59328 0.94145 0.0
C438 C 0.97922 0.58453 0.9481 0.0
C439 C 0.97686 0.60193 0.98633 0.0
C440 C 0.95691 0.6108 0.97961 0.0
C441 C 1.00786 0.57715 0.97833 0.0
O442 O 0.9809 0.51655 0.98692 0.0
O443 O 0.97288 0.49186 0.01793 0.0
O444 O 0.99841 0.51841 0.05468 0.0
O445 O 0.98411 0.54209 0.02888 0.0
O446 O 1.00184 0.45703 0.03187 0.0
O447 O 0.01427 0.47719 0.06191 0.0
O448 O 0.04495 0.51039 0.03194 0.0
O449 O 0.0391 0.54748 0.02505 0.0
O450 O 0.03514 0.52243 0.98274 0.0
O451 O 0.0204 0.48592 0.9949 0.0
C452 C 0.96692 0.50011 0.9979 0.0
O453 O 0.01152 0.57668 1.00073 0.0
O454 O 0.00971 0.55744 0.96853 0.0
C455 C 0.9861 0.53484 0.05032 0.0
C456 C 0.02961 0.44317 0.05559 0.0
C457 C 0.0695 0.42239 0.06328 0.0
C458 C 0.05287 0.42338 0.08128 0.0
C459 C 0.03304 0.43366 0.07743 0.0
C460 C 0.04596 0.44178 0.03742 0.0
C461 C 0.06565 0.43131 0.0412 0.0
C462 C 0.01052 0.4567 0.05272 0.0
C463 C 0.05197 0.53275 0.03318 0.0
H464 H 0.95272 0.58985 0.92394 0.0
H465 H 0.98756 0.57439 0.93561 0.0
H466 H 0.98322 0.60533 1.00389 0.0
H467 H 0.94833 0.62068 0.99216 0.0
H468 H 0.05535 0.41646 0.09842 0.0
H469 H 0.02074 0.43479 0.0917 0.0
H470 H 0.04389 0.4494 0.02052 0.0
H471 H 0.07832 0.43099 0.02711 0.0
C472 C 0.2521 0.18887 0.30651 0.0
C473 C 0.24326 0.20631 0.29433 0.0
C474 C 0.23848 0.17601 0.32366 0.0
C475 C 0.17715 0.15743 0.34049 0.0
H476 H 0.20296 0.13917 0.39837 0.0
C477 C 0.11971 0.10448 0.41041 0.0
C478 C 0.12914 0.08641 0.42085 0.0
C479 C 0.13372 0.12063 0.39637 0.0
C480 C 0.19555 0.14397 0.38219 0.0
H481 H 0.21368 0.22471 0.29144 0.0
H482 H 0.18989 0.20217 0.32126 0.0
H483 H 0.22758 0.1649 0.37152 0.0
H484 H 0.16084 0.07151 0.42522 0.0
H485 H 0.1851 0.09926 0.40025 0.0
H486 H 0.14529 0.1362 0.35083 0.0
C487 C 0.20719 0.19821 0.31727 0.0
C488 C 0.20964 0.15872 0.36685 0.0
C489 C 0.22081 0.21109 0.30019 0.0
C490 C 0.15296 0.08503 0.41718 0.0
C491 C 0.16694 0.10114 0.40311 0.0
C492 C 0.1631 0.14263 0.35577 0.0
C493 C 0.21574 0.18031 0.32894 0.0
C494 C 0.20062 0.1655 0.34578 0.0
C495 C 0.15747 0.11905 0.39244 0.0
C496 C 0.17217 0.1356 0.37673 0.0
H497 H 0.26921 0.18458 0.30222 0.0
H498 H 0.24545 0.16216 0.33218 0.0
H499 H 0.1698 0.16205 0.32421 0.0
H500 H 0.10138 0.10592 0.41272 0.0
H501 H 0.12594 0.13437 0.38861 0.0
C502 C 0.25136 0.84439 0.82656 0.0
C503 C 0.25643 0.82278 0.81948 0.0
C504 C 0.26411 0.85659 0.84438 0.0
C505 C 0.32178 0.86041 0.87208 0.0
H506 H 0.29706 0.90374 0.91319 0.0
C507 C 0.37992 0.91655 0.93767 0.0
C508 C 0.37844 0.9402 0.93673 0.0
C509 C 0.36332 0.90046 0.92659 0.0
C510 C 0.30417 0.89168 0.9018 0.0
H511 H 0.27746 0.79618 0.82641 0.0
H512 H 0.29919 0.81705 0.85807 0.0
H513 H 0.27045 0.87802 0.88861 0.0
H514 H 0.35805 0.96537 0.92361 0.0
H515 H 0.32896 0.93726 0.90469 0.0
H516 H 0.35547 0.87417 0.88515 0.0
C517 C 0.28597 0.825 0.84942 0.0
C518 C 0.28896 0.87701 0.88767 0.0
C519 C 0.27345 0.81297 0.83141 0.0
C520 C 0.35956 0.94729 0.92504 0.0
C521 C 0.34287 0.93119 0.91415 0.0
C522 C 0.3369 0.8749 0.88635 0.0
C523 C 0.282 0.84728 0.85563 0.0
C524 C 0.29764 0.86143 0.87235 0.0
C525 C 0.34478 0.90766 0.91452 0.0
C526 C 0.32831 0.89093 0.90108 0.0
H527 H 0.23844 0.85238 0.81747 0.0
H528 H 0.26071 0.87379 0.84848 0.0
H529 H 0.32921 0.84902 0.86018 0.0
H530 H 0.39396 0.91043 0.94688 0.0
H531 H 0.36506 0.88238 0.92735 0.0
C532 C 0.63379 0.42682 0.72181 0.0
C533 C 0.62071 0.40802 0.73367 0.0
C534 C 0.62483 0.43668 0.70216 0.0
C535 C 0.57671 0.42562 0.65756 0.0
H536 H 0.5961 0.49026 0.64365 0.0
C537 C 0.54854 0.46549 0.57143 0.0
C538 C 0.54515 0.48872 0.57112 0.0
C539 C 0.55816 0.45606 0.59092 0.0
C540 C 0.59017 0.47222 0.64726 0.0
H541 H 0.58745 0.38535 0.73406 0.0
H542 H 0.5716 0.40276 0.70053 0.0
H543 H 0.61092 0.47361 0.67805 0.0
H544 H 0.5494 0.52015 0.59155 0.0
H545 H 0.5654 0.5037 0.62567 0.0
H546 H 0.55514 0.42445 0.62743 0.0
C547 C 0.58917 0.40959 0.70583 0.0
C548 C 0.59907 0.46246 0.66701 0.0
C549 C 0.59826 0.39956 0.72529 0.0
C550 C 0.55186 0.50225 0.59096 0.0
C551 C 0.56122 0.49274 0.61061 0.0
C552 C 0.56761 0.43543 0.63798 0.0
C553 C 0.60229 0.42831 0.69375 0.0
C554 C 0.59259 0.43892 0.67257 0.0
C555 C 0.56449 0.46938 0.61106 0.0
C556 C 0.57421 0.45893 0.63232 0.0
H557 H 0.65125 0.4337 0.72745 0.0
H558 H 0.63589 0.45068 0.69336 0.0
H559 H 0.57135 0.40741 0.6607 0.0
H560 H 0.54382 0.45448 0.55649 0.0
H561 H 0.56078 0.43823 0.58998 0.0
C562 C 0.91783 0.61868 0.23234 0.0
C563 C 0.90033 0.63269 0.23026 0.0
C564 C 0.92667 0.60846 0.2126 0.0
C565 C 0.91381 0.59377 0.14975 0.0
H566 H 0.97891 0.58527 0.1481 0.0
C567 C 0.96013 0.56228 0.06669 0.0
C568 C 0.97507 0.54588 0.07032 0.0
C569 C 0.95053 0.57305 0.08573 0.0
C570 C 0.96063 0.58733 0.14832 0.0
H571 H 0.87873 0.64717 0.20545 0.0
H572 H 0.89441 0.62984 0.17104 0.0
H573 H 0.96352 0.60386 0.18174 0.0
H574 H 0.99145 0.528 0.09708 0.0
H575 H 0.97493 0.54675 0.12996 0.0
H576 H 0.9112 0.57751 0.11602 0.0
C577 C 0.90098 0.62621 0.18801 0.0
C578 C 0.95171 0.59796 0.16773 0.0
C579 C 0.89199 0.63626 0.2078 0.0
C580 C 0.98004 0.5405 0.09348 0.0
C581 C 0.97067 0.55141 0.11243 0.0
C582 C 0.92282 0.58332 0.13021 0.0
C583 C 0.91846 0.61209 0.19006 0.0
C584 C 0.92809 0.60121 0.16891 0.0
C585 C 0.95587 0.56791 0.10888 0.0
C586 C 0.94631 0.57976 0.1293 0.0
H587 H 0.92443 0.61521 0.24935 0.0
H588 H 0.93971 0.59737 0.21516 0.0
H589 H 0.89548 0.59556 0.14999 0.0
H590 H 0.95592 0.56692 0.04914 0.0
H591 H 0.93932 0.58577 0.0823 0.0
C592 C 0.40751 0.20634 0.12731 0.0
C593 C 0.39887 0.2033 0.15037 0.0
C594 C 0.42002 0.19033 0.11707 0.0
C595 C 0.45364 0.1436 0.12717 0.0
H596 H 0.42626 0.11929 0.06909 0.0
C597 C 0.48181 0.06432 0.07984 0.0
C598 C 0.48194 0.06453 0.0553 0.0
C599 C 0.47285 0.08152 0.09252 0.0
C600 C 0.43444 0.1261 0.08506 0.0
H601 H 0.39791 0.18174 0.18119 0.0
H602 H 0.42036 0.15403 0.16333 0.0
H603 H 0.41019 0.14988 0.0893 0.0
H604 H 0.47379 0.08344 0.0248 0.0
H605 H 0.45904 0.11365 0.04671 0.0
H606 H 0.47827 0.12013 0.12267 0.0
C607 C 0.41722 0.16879 0.15325 0.0
C608 C 0.42514 0.14358 0.09667 0.0
C609 C 0.40445 0.18471 0.16346 0.0
C610 C 0.47355 0.08254 0.0437 0.0
C611 C 0.46496 0.09984 0.05631 0.0
C612 C 0.46323 0.12626 0.11534 0.0
C613 C 0.42444 0.17109 0.12973 0.0
C614 C 0.4347 0.15259 0.11774 0.0
C615 C 0.46414 0.09941 0.08088 0.0
C616 C 0.45382 0.11741 0.09403 0.0
H617 H 0.40401 0.22076 0.11692 0.0
H618 H 0.42575 0.19267 0.099 0.0
H619 H 0.46128 0.1503 0.14343 0.0
H620 H 0.48821 0.05064 0.08924 0.0
H621 H 0.47232 0.08051 0.11141 0.0
C622 C 0.11542 0.85215 0.67009 0.0
C623 C 0.12263 0.83367 0.65774 0.0
C624 C 0.10236 0.86702 0.65908 0.0
C625 C 0.0668 0.89104 0.63374 0.0
H626 H 0.0892 0.91031 0.57162 0.0
C627 C 0.02235 0.95184 0.5751 0.0
C628 C 0.03746 0.96873 0.5626 0.0
C629 C 0.0313 0.9348 0.58759 0.0
C630 C 0.0828 0.90519 0.58899 0.0
H631 H 0.12055 0.81543 0.62467 0.0
H632 H 0.0977 0.84132 0.60547 0.0
H633 H 0.10655 0.88091 0.5918 0.0
H634 H 0.07386 0.98134 0.55406 0.0
H635 H 0.08934 0.95182 0.57589 0.0
H636 H 0.04342 0.91587 0.63102 0.0
C637 C 0.10255 0.8446 0.62351 0.0
C638 C 0.09253 0.88811 0.60045 0.0
C639 C 0.11561 0.82976 0.6345 0.0
C640 C 0.06168 0.96853 0.56334 0.0
C641 C 0.07058 0.95151 0.57575 0.0
C642 C 0.05698 0.90812 0.62221 0.0
C643 C 0.09624 0.8637 0.63551 0.0
C644 C 0.08478 0.88094 0.62301 0.0
C645 C 0.05549 0.93427 0.58774 0.0
C646 C 0.06509 0.91555 0.59981 0.0
H647 H 0.12076 0.85575 0.68795 0.0
H648 H 0.09798 0.8817 0.66873 0.0
H649 H 0.06035 0.88576 0.65106 0.0
H650 H 1.00359 0.95151 0.57491 0.0
H651 H 0.01923 0.92167 0.59657 0.0
C652 C 0.78827 0.43129 0.88411 0.0
C653 C 0.77524 0.41025 0.89157 0.0
C654 C 0.80855 0.44119 0.89587 0.0
C655 C 0.83961 0.44009 0.95266 0.0
H656 H 0.89342 0.46906 0.91677 0.0
C657 C 0.93007 0.47052 0.99573 0.0
C658 C 0.94416 0.49038 0.98685 0.0
C659 C 0.90929 0.46098 0.98456 0.0
C660 C 0.87851 0.46137 0.92721 0.0
H661 H 0.77347 0.38355 0.91789 0.0
H662 H 0.80873 0.40058 0.93812 0.0
H663 H 0.85797 0.45249 0.89671 0.0
H664 H 0.9468 0.51596 0.95931 0.0
H665 H 0.91068 0.49977 0.94029 0.0
H666 H 0.86009 0.44907 0.98318 0.0
C667 C 0.80325 0.40954 0.92318 0.0
C668 C 0.85806 0.45178 0.91561 0.0
C669 C 0.78308 0.39959 0.91135 0.0
C670 C 0.93662 0.50058 0.96667 0.0
C671 C 0.91584 0.49112 0.95558 0.0
C672 C 0.86004 0.44977 0.96429 0.0
C673 C 0.81641 0.43048 0.91561 0.0
C674 C 0.83824 0.44094 0.92811 0.0
C675 C 0.90187 0.47103 0.96417 0.0
C676 C 0.87989 0.4606 0.95178 0.0
H677 H 0.78302 0.44001 0.8689 0.0
H678 H 0.81796 0.45742 0.88957 0.0
H679 H 0.8247 0.43223 0.96301 0.0
H680 H 0.93527 0.46207 1.01114 0.0
H681 H 0.89931 0.44539 0.99168 0.0
C682 C 0.73348 0.60294 0.38232 0.0
C683 C 0.74951 0.61996 0.39333 0.0
C684 C 0.71284 0.5929 0.39382 0.0
C685 C 0.67379 0.60213 0.44469 0.0
H686 H 0.64715 0.53864 0.43263 0.0
C687 C 0.5816 0.56437 0.47941 0.0
C688 C 0.57695 0.54106 0.486 0.0
C689 C 0.60277 0.57345 0.46839 0.0
C690 C 0.65442 0.55632 0.43649 0.0
H691 H 0.75585 0.63963 0.42541 0.0
H692 H 0.7208 0.62145 0.44569 0.0
H693 H 0.68383 0.55495 0.41363 0.0
H694 H 0.59123 0.50906 0.48624 0.0
H695 H 0.62848 0.52501 0.46774 0.0
H696 H 0.64497 0.60328 0.46825 0.0
C697 C 0.72382 0.61617 0.4279 0.0
C698 C 0.67539 0.56585 0.42523 0.0
C699 C 0.74429 0.62639 0.41632 0.0
C700 C 0.59417 0.52707 0.48138 0.0
C701 C 0.61551 0.53624 0.47057 0.0
C702 C 0.653 0.59254 0.45612 0.0
C703 C 0.70764 0.59937 0.41681 0.0
C704 C 0.68538 0.58896 0.42906 0.0
C705 C 0.62015 0.55959 0.46385 0.0
C706 C 0.64284 0.56953 0.45209 0.0
H707 H 0.73688 0.5972 0.36478 0.0
H708 H 0.70082 0.58027 0.38447 0.0
H709 H 0.68056 0.62005 0.44795 0.0
H710 H 0.56869 0.57566 0.48242 0.0
H711 H 0.60527 0.59133 0.46309 0.0
C712 C 0.23636 0.32433 0.1046 0.0
C713 C 0.24703 0.33261 0.12545 0.0
C714 C 0.22018 0.33611 0.09395 0.0
C715 C 0.19457 0.39072 0.09564 0.0
H716 H 0.13911 0.35075 0.07459 0.0
C717 C 0.10437 0.4199 0.08783 0.0
C718 C 0.09133 0.41304 0.06782 0.0
C719 C 0.12517 0.41144 0.09203 0.0
C720 C 0.1546 0.36215 0.08009 0.0
H721 H 0.25003 0.36008 0.15105 0.0
H722 H 0.22132 0.3804 0.13289 0.0
H723 H 0.17299 0.33405 0.08644 0.0
H724 H 0.08976 0.39202 0.03652 0.0
H725 H 0.12608 0.37695 0.04405 0.0
H726 H 0.17552 0.41873 0.09019 0.0
C727 C 0.22574 0.36512 0.12438 0.0
C728 C 0.17411 0.35261 0.0868 0.0
C729 C 0.24216 0.35347 0.13485 0.0
C730 C 0.09952 0.39761 0.05205 0.0
C731 C 0.1202 0.38894 0.0564 0.0
C732 C 0.17493 0.40024 0.08915 0.0
C733 C 0.21406 0.35622 0.10414 0.0
C734 C 0.19425 0.36674 0.09494 0.0
C735 C 0.13322 0.39579 0.07643 0.0
C736 C 0.15466 0.386 0.0816 0.0
H737 H 0.24005 0.30838 0.09691 0.0
H738 H 0.21198 0.32908 0.07807 0.0
H739 H 0.20989 0.40215 0.10145 0.0
H740 H 0.0986 0.43199 0.10012 0.0
H741 H 0.13473 0.41681 0.10773 0.0
C742 C 0.59533 0.24563 0.90168 0.0
C743 C 0.61414 0.24652 0.88559 0.0
C744 C 0.58581 0.22488 0.91278 0.0
C745 C 0.58238 0.16077 0.90828 0.0
H746 H 0.56345 0.16175 0.97347 0.0
C747 C 0.53314 0.07915 0.9557 0.0
C748 C 0.53872 0.07545 0.97912 0.0
C749 C 0.54215 0.0998 0.94415 0.0
C750 C 0.56877 0.16104 0.9553 0.0
H751 H 0.63714 0.22563 0.86835 0.0
H752 H 0.62085 0.18976 0.88778 0.0
H753 H 0.57939 0.19765 0.95385 0.0
H754 H 0.55845 0.09099 1.00856 0.0
H755 H 0.57416 0.12671 0.9885 0.0
H756 H 0.5721 0.12411 0.90983 0.0
C757 C 0.61331 0.2051 0.89179 0.0
C758 C 0.57769 0.18179 0.9439 0.0
C759 C 0.62289 0.22585 0.88078 0.0
C760 C 0.55366 0.09307 0.99057 0.0
C761 C 0.56259 0.11375 0.97906 0.0
C762 C 0.57335 0.14003 0.91964 0.0
C763 C 0.59468 0.20424 0.90808 0.0
C764 C 0.58474 0.18203 0.9202 0.0
C765 C 0.55697 0.11752 0.95565 0.0
C766 C 0.56645 0.13978 0.94338 0.0
H767 H 0.58817 0.2611 0.90608 0.0
H768 H 0.57134 0.22501 0.92497 0.0
H769 H 0.58733 0.16011 0.88999 0.0
H770 H 0.52166 0.06612 0.94625 0.0
H771 H 0.53713 0.10202 0.92627 0.0
C772 C 0.8936 0.80701 0.38976 0.0
C773 C 0.90575 0.78799 0.38867 0.0
C774 C 0.90291 0.82732 0.40143 0.0
C775 C 0.94875 0.85051 0.44472 0.0
H776 H 0.93547 0.90951 0.42301 0.0
C777 C 0.99661 0.93801 0.47948 0.0
C778 C 0.98282 0.95511 0.48498 0.0
C779 C 0.98699 0.91766 0.46808 0.0
C780 C 0.93918 0.89315 0.42942 0.0
H781 H 0.93768 0.77599 0.39919 0.0
H782 H 0.95434 0.81157 0.41835 0.0
H783 H 0.91991 0.87446 0.40201 0.0
H784 H 0.94797 0.96408 0.48262 0.0
H785 H 0.93129 0.92871 0.46234 0.0
H786 H 0.96859 0.86948 0.47175 0.0
C787 C 0.93722 0.81062 0.41074 0.0
C788 C 0.93017 0.87293 0.41741 0.0
C789 C 0.92778 0.79019 0.3993 0.0
C790 C 0.95912 0.95131 0.47869 0.0
C791 C 0.94958 0.93108 0.46695 0.0
C792 C 0.95801 0.87077 0.45651 0.0
C793 C 0.92488 0.8295 0.41217 0.0
C794 C 0.93474 0.85123 0.42488 0.0
C795 C 0.96338 0.91395 0.46155 0.0
C796 C 0.95331 0.89236 0.44906 0.0
H797 H 0.87681 0.80635 0.38152 0.0
H798 H 0.8926 0.84119 0.40227 0.0
H799 H 0.95234 0.83425 0.45145 0.0
H800 H 0.0149 0.94025 0.4841 0.0
H801 H 0.99817 0.90495 0.46404 0.0
C802 C 0.29736 0.72186 0.62853 0.0
C803 C 0.2792 0.70963 0.64214 0.0
C804 C 0.31395 0.71042 0.61758 0.0
C805 C 0.3277 0.65311 0.60026 0.0
H806 H 0.39167 0.68291 0.60843 0.0
C807 C 0.40786 0.60654 0.58526 0.0
C808 C 0.42793 0.61919 0.57479 0.0
C809 C 0.38874 0.6173 0.59148 0.0
C810 C 0.37392 0.67449 0.60567 0.0
H811 H 0.26347 0.67573 0.65404 0.0
H812 H 0.29268 0.65563 0.63499 0.0
H813 H 0.3596 0.702 0.62209 0.0
H814 H 0.44335 0.65286 0.56191 0.0
H815 H 0.40999 0.67165 0.57273 0.0
H816 H 0.3422 0.62542 0.58407 0.0
C817 C 0.29395 0.67407 0.63264 0.0
C818 C 0.35551 0.68545 0.61349 0.0
C819 C 0.27724 0.68555 0.64356 0.0
C820 C 0.42831 0.64275 0.57034 0.0
C821 C 0.40919 0.65349 0.57652 0.0
C822 C 0.34617 0.64211 0.59239 0.0
C823 C 0.31284 0.68649 0.62006 0.0
C824 C 0.33219 0.6749 0.61091 0.0
C825 C 0.38927 0.64094 0.58736 0.0
C826 C 0.3695 0.65269 0.59507 0.0
H827 H 0.29902 0.7404 0.62681 0.0
H828 H 0.32796 0.7204 0.60754 0.0
H829 H 0.30991 0.64463 0.59785 0.0
H830 H 0.40714 0.58841 0.58915 0.0
H831 H 0.37379 0.60722 0.6001 0.0
C832 C 0.77042 0.81695 0.70959 0.0
C833 C 0.76997 0.82311 0.73333 0.0
C834 C 0.78571 0.83015 0.69387 0.0
C835 C 0.81749 0.88888 0.68722 0.0
H836 H 0.85447 0.8629 0.63988 0.0
C837 C 0.89057 0.94559 0.63718 0.0
C838 C 0.89235 0.9423 0.61294 0.0
C839 C 0.87602 0.92974 0.65093 0.0
C840 C 0.84404 0.87037 0.65285 0.0
H841 H 0.78617 0.84696 0.75947 0.0
H842 H 0.81263 0.8699 0.73218 0.0
H843 H 0.8281 0.83725 0.66561 0.0
H844 H 0.88081 0.91949 0.58417 0.0
H845 H 0.85504 0.89171 0.60832 0.0
H846 H 0.83319 0.92189 0.67464 0.0
C847 C 0.80084 0.85527 0.72556 0.0
C848 C 0.82898 0.8557 0.66755 0.0
C849 C 0.78566 0.84215 0.74118 0.0
C850 C 0.8798 0.92241 0.60283 0.0
C851 C 0.8651 0.90652 0.61664 0.0
C852 C 0.83243 0.90346 0.67257 0.0
C853 C 0.80075 0.84969 0.70168 0.0
C854 C 0.81583 0.86486 0.68511 0.0
C855 C 0.86279 0.91024 0.64079 0.0
C856 C 0.84615 0.89441 0.65546 0.0
H857 H 0.7585 0.80238 0.70306 0.0
H858 H 0.78524 0.8255 0.67554 0.0
H859 H 0.80717 0.89644 0.70023 0.0
H860 H 0.90046 0.96049 0.64553 0.0
H861 H 0.87508 0.93282 0.66957 0.0
C862 C 0.72206 0.19496 0.24192 0.0
C863 C 0.74335 0.20706 0.23357 0.0
C864 C 0.70565 0.18391 0.22644 0.0
C865 C 0.6897 0.17887 0.16366 0.0
H866 H 0.658 0.11894 0.18366 0.0
C867 C 0.64072 0.10938 0.10225 0.0
C868 C 0.61922 0.0975 0.11053 0.0
C869 C 0.65442 0.12521 0.11656 0.0
C870 C 0.66649 0.13578 0.17795 0.0
H871 H 0.76409 0.21775 0.20263 0.0
H872 H 0.73569 0.19769 0.17537 0.0
H873 H 0.68497 0.14176 0.20984 0.0
H874 H 0.59491 0.09327 0.13995 0.0
H875 H 0.61894 0.12086 0.165 0.0
H876 H 0.67163 0.1722 0.13131 0.0
C877 C 0.73141 0.19712 0.19386 0.0
C878 C 0.68192 0.14893 0.19297 0.0
C879 C 0.74772 0.20851 0.20941 0.0
C880 C 0.61134 0.10228 0.13308 0.0
C881 C 0.62514 0.11791 0.14746 0.0
C882 C 0.6744 0.16553 0.14848 0.0
C883 C 0.71032 0.18436 0.20224 0.0
C884 C 0.69369 0.17068 0.18609 0.0
C885 C 0.64698 0.12923 0.13947 0.0
C886 C 0.66263 0.14389 0.15555 0.0
H887 H 0.71816 0.19395 0.2605 0.0
H888 H 0.68936 0.17482 0.23351 0.0
H889 H 0.69824 0.19564 0.15788 0.0
H890 H 0.64709 0.10615 0.08484 0.0
H891 H 0.67124 0.13361 0.11002 0.0
C892 C 0.42231 0.61891 0.29808 0.0
C893 C 0.39946 0.62456 0.29858 0.0
C894 C 0.43161 0.60918 0.31761 0.0
C895 C 0.42121 0.59805 0.38246 0.0
H896 H 0.46752 0.55776 0.37276 0.0
C897 C 0.4688 0.56323 0.46117 0.0
C898 C 0.47685 0.54186 0.4591 0.0
C899 C 0.45926 0.57325 0.44193 0.0
C900 C 0.45437 0.56869 0.37602 0.0
H901 H 0.36884 0.62424 0.3211 0.0
H902 H 0.38439 0.60636 0.35425 0.0
H903 H 0.45094 0.57423 0.33938 0.0
H904 H 0.48043 0.51412 0.43491 0.0
H905 H 0.4631 0.53088 0.40195 0.0
H906 H 0.42384 0.5916 0.41906 0.0
C907 C 0.39551 0.60995 0.33892 0.0
C908 C 0.44506 0.57862 0.35662 0.0
C909 C 0.38632 0.61995 0.31949 0.0
C910 C 0.47463 0.53066 0.43727 0.0
C911 C 0.4648 0.54049 0.41814 0.0
C912 C 0.43031 0.58788 0.40185 0.0
C913 C 0.41839 0.60437 0.33844 0.0
C914 C 0.42832 0.59358 0.35939 0.0
C915 C 0.45711 0.56213 0.41995 0.0
C916 C 0.44714 0.57301 0.39908 0.0
H917 H 0.43312 0.62171 0.28246 0.0
H918 H 0.44939 0.60566 0.31629 0.0
H919 H 0.40871 0.60965 0.38574 0.0
H920 H 0.47033 0.57254 0.47758 0.0
H921 H 0.45404 0.59003 0.44431 0.0
C922 C 0.132 0.40671 0.82017 0.0
C923 C 0.12126 0.40695 0.79827 0.0
C924 C 0.12315 0.4171 0.8398 0.0
C925 C 0.08419 0.45968 0.85742 0.0
H926 H 0.08566 0.43101 0.91812 0.0
C927 C 0.05736 0.50402 0.94279 0.0
C928 C 0.04471 0.48991 0.95993 0.0
C929 C 0.06736 0.49433 0.92332 0.0
C930 C 0.08491 0.43923 0.90131 0.0
H931 H 0.09266 0.41873 0.78017 0.0
H932 H 0.07694 0.43627 0.81439 0.0
H933 H 0.10083 0.41312 0.88392 0.0
H934 H 0.03297 0.45434 0.96985 0.0
H935 H 0.05002 0.43761 0.93605 0.0
H936 H 0.06767 0.48547 0.87476 0.0
C937 C 0.09246 0.42828 0.81635 0.0
C938 C 0.09395 0.42908 0.88164 0.0
C939 C 0.10133 0.4179 0.7967 0.0
C940 C 0.0426 0.46585 0.95713 0.0
C941 C 0.05256 0.45619 0.93771 0.0
C942 C 0.07513 0.46984 0.87711 0.0
C943 C 0.10322 0.42807 0.83824 0.0
C944 C 0.09369 0.43909 0.85933 0.0
C945 C 0.06503 0.47024 0.9204 0.0
C946 C 0.07527 0.45974 0.89939 0.0
H947 H 0.14719 0.39826 0.82228 0.0
H948 H 0.13216 0.41673 0.8562 0.0
H949 H 0.08389 0.46814 0.84068 0.0
H950 H 0.05942 0.5226 0.9443 0.0
H951 H 0.07708 0.50578 0.91061 0.0
C952 C 0.61851 0.82541 0.9103 0.0
C953 C 0.61646 0.823 0.886 0.0
C954 C 0.60656 0.84089 0.92234 0.0
C955 C 0.55774 0.87279 0.92197 0.0
H956 H 0.59947 0.92202 0.95166 0.0
C957 C 0.52469 0.95448 0.95758 0.0
C958 C 0.53554 0.96517 0.97739 0.0
C959 C 0.53372 0.93637 0.94657 0.0
C960 C 0.58742 0.90823 0.94394 0.0
H961 H 0.59967 0.83372 0.85528 0.0
H962 H 0.57801 0.86028 0.87654 0.0
H963 H 0.61533 0.8901 0.93361 0.0
H964 H 0.56384 0.96489 1.00169 0.0
H965 H 0.57887 0.93278 0.98335 0.0
H966 H 0.52968 0.89037 0.93283 0.0
C967 C 0.58899 0.85038 0.88617 0.0
C968 C 0.59659 0.89001 0.9335 0.0
C969 C 0.60134 0.83528 0.87407 0.0
C970 C 0.55535 0.95725 0.98618 0.0
C971 C 0.56404 0.93885 0.97554 0.0
C972 C 0.54844 0.89079 0.93289 0.0
C973 C 0.59204 0.85377 0.91028 0.0
C974 C 0.58186 0.87222 0.92235 0.0
C975 C 0.55348 0.92822 0.95547 0.0
C976 C 0.56319 0.90885 0.94394 0.0
H977 H 0.63029 0.81626 0.91976 0.0
H978 H 0.60913 0.84329 0.94094 0.0
H979 H 0.54609 0.85919 0.91342 0.0
H980 H 0.5094 0.9603 0.95042 0.0
H981 H 0.52531 0.92897 0.93095 0.0
C982 C 0.90882 0.17505 0.36381 0.0
C983 C 0.89997 0.19217 0.37686 0.0
C984 C 0.92284 0.16079 0.37431 0.0
C985 C 0.9567 0.15378 0.42804 0.0
H986 H 0.94387 0.08901 0.41154 0.0
C987 C 0.97828 0.08128 0.48728 0.0
C988 C 0.9884 0.06338 0.4769 0.0
C989 C 0.97046 0.09802 0.47354 0.0
C990 C 0.9479 0.10709 0.41609 0.0
H991 H 0.89917 0.20815 0.41095 0.0
H992 H 0.92313 0.18292 0.42954 0.0
H993 H 0.92486 0.11669 0.39039 0.0
H994 H 0.99841 0.04909 0.44393 0.0
H995 H 0.98424 0.07826 0.4198 0.0
H996 H 0.97899 0.14384 0.45445 0.0
C997 C 0.91976 0.18078 0.41105 0.0
C998 C 0.93706 0.12301 0.40393 0.0
C999 C 0.90596 0.19522 0.40045 0.0
C1000 C 0.99067 0.06266 0.45243 0.0
C1001 C 0.98252 0.07929 0.43863 0.0
C1002 C 0.96733 0.13781 0.44035 0.0
C1003 C 0.92809 0.16314 0.39819 0.0
C1004 C 0.94108 0.14653 0.40995 0.0
C1005 C 0.97234 0.09711 0.44909 0.0
C1006 C 0.96279 0.11428 0.43469 0.0
H1007 H 0.9047 0.17256 0.34549 0.0
H1008 H 0.92934 0.14776 0.36374 0.0
H1009 H 0.96059 0.17179 0.43285 0.0
H1010 H 0.9764 0.08243 0.50609 0.0
H1011 H 0.96245 0.11142 0.48205 0.0
C1012 C 0.223 0.61446 0.15121 0.0
C1013 C 0.24501 0.61683 0.13974 0.0
C1014 C 0.20246 0.60467 0.1398 0.0
C1015 C 0.17756 0.59343 0.08068 0.0
H1016 H 0.12985 0.55063 0.11263 0.0
C1017 C 0.08466 0.5651 0.04264 0.0
C1018 C 0.07477 0.54171 0.04453 0.0
C1019 C 0.1056 0.57374 0.05392 0.0
C1020 C 0.14302 0.56247 0.10338 0.0
H1021 H 0.26211 0.6097 0.10703 0.0
H1022 H 0.22647 0.59337 0.08718 0.0
H1023 H 0.16569 0.56639 0.13297 0.0
H1024 H 0.07949 0.50915 0.06001 0.0
H1025 H 0.11582 0.52426 0.07983 0.0
H1026 H 0.15488 0.58964 0.05114 0.0
C1027 C 0.2251 0.59931 0.10502 0.0
C1028 C 0.16353 0.57169 0.11515 0.0
C1029 C 0.24565 0.60883 0.11648 0.0
C1030 C 0.08653 0.52722 0.05804 0.0
C1031 C 0.10733 0.53595 0.06958 0.0
C1032 C 0.15693 0.58446 0.06903 0.0
C1033 C 0.20316 0.59713 0.11645 0.0
C1034 C 0.18116 0.58728 0.10396 0.0
C1035 C 0.1172 0.55936 0.06771 0.0
C1036 C 0.13934 0.5688 0.08016 0.0
H1037 H 0.22145 0.62065 0.16891 0.0
H1038 H 0.18591 0.60353 0.14915 0.0
H1039 H 0.19058 0.60551 0.07151 0.0
H1040 H 0.07619 0.57685 0.03247 0.0
H1041 H 0.11248 0.59188 0.0522 0.0
C1042 C 0.2868 0.43045 0.6435 0.0
C1043 C 0.27441 0.40903 0.63663 0.0
C1044 C 0.30724 0.44023 0.63151 0.0
C1045 C 0.34002 0.43775 0.57521 0.0
H1046 H 0.39251 0.46759 0.61094 0.0
C1047 C 0.43229 0.46713 0.53347 0.0
C1048 C 0.44527 0.48775 0.5417 0.0
C1049 C 0.41107 0.45771 0.54438 0.0
C1050 C 0.37795 0.4596 0.6006 0.0
H1051 H 0.2737 0.38146 0.6112 0.0
H1052 H 0.3094 0.39829 0.5906 0.0
H1053 H 0.35646 0.45121 0.6311 0.0
H1054 H 0.44549 0.51493 0.56754 0.0
H1055 H 0.40863 0.4988 0.58616 0.0
H1056 H 0.36156 0.44617 0.54469 0.0
C1057 C 0.30327 0.40763 0.6052 0.0
C1058 C 0.35721 0.45017 0.61221 0.0
C1059 C 0.2829 0.39783 0.61723 0.0
C1060 C 0.43619 0.49891 0.5608 0.0
C1061 C 0.41502 0.48955 0.57163 0.0
C1062 C 0.36078 0.44723 0.56357 0.0
C1063 C 0.31583 0.42892 0.61223 0.0
C1064 C 0.33791 0.43912 0.59971 0.0
C1065 C 0.40224 0.46867 0.56379 0.0
C1066 C 0.38006 0.45835 0.57609 0.0
H1067 H 0.28094 0.43953 0.65843 0.0
H1068 H 0.31624 0.45677 0.6373 0.0
H1069 H 0.32546 0.42965 0.56494 0.0
H1070 H 0.43873 0.45801 0.51886 0.0
H1071 H 0.40187 0.44151 0.53793 0.0
C1072 C 0.78879 0.68603 0.86832 0.0
C1073 C 0.76962 0.69015 0.8822 0.0
C1074 C 0.80631 0.67514 0.87766 0.0
C1075 C 0.83284 0.66312 0.93343 0.0
H1076 H 0.86249 0.62108 0.89497 0.0
C1077 C 0.9222 0.6371 0.95561 0.0
C1078 C 0.92577 0.61449 0.95048 0.0
C1079 C 0.90175 0.64494 0.94872 0.0
C1080 C 0.85425 0.63254 0.9061 0.0
H1081 H 0.75362 0.68576 0.91671 0.0
H1082 H 0.78426 0.66645 0.93307 0.0
H1083 H 0.82872 0.63625 0.8804 0.0
H1084 H 0.91036 0.58207 0.93499 0.0
H1085 H 0.87457 0.59562 0.92319 0.0
H1086 H 0.85825 0.65913 0.95927 0.0
C1087 C 0.78583 0.67195 0.915 0.0
C1088 C 0.83504 0.64147 0.89761 0.0
C1089 C 0.76827 0.68295 0.90564 0.0
C1090 C 0.90828 0.59973 0.93878 0.0
C1091 C 0.88778 0.6075 0.93202 0.0
C1092 C 0.85204 0.6541 0.94198 0.0
C1093 C 0.80511 0.66802 0.90111 0.0
C1094 C 0.82432 0.65714 0.91101 0.0
C1095 C 0.88436 0.63027 0.93669 0.0
C1096 C 0.86315 0.63892 0.92829 0.0
H1097 H 0.79064 0.69182 0.85036 0.0
H1098 H 0.82114 0.67285 0.8666 0.0
H1099 H 0.8251 0.67528 0.94414 0.0
H1100 H 0.93548 0.6489 0.96446 0.0
H1101 H 0.89984 0.66267 0.9523 0.0
C1102 C 0.39038 0.79339 0.12606 0.0
C1103 C 0.40236 0.78434 0.14424 0.0
C1104 C 0.39949 0.81438 0.11526 0.0
C1105 C 0.45498 0.85443 0.10457 0.0
H1106 H 0.41403 0.89821 0.08874 0.0
C1107 C 0.49228 0.94502 0.06756 0.0
C1108 C 0.47912 0.95545 0.05138 0.0
C1109 C 0.48279 0.92456 0.07911 0.0
C1110 C 0.42578 0.88613 0.09265 0.0
H1111 H 0.43361 0.79068 0.16511 0.0
H1112 H 0.44952 0.8272 0.14627 0.0
H1113 H 0.398 0.86226 0.10817 0.0
H1114 H 0.44541 0.95204 0.03469 0.0
H1115 H 0.42908 0.91619 0.05424 0.0
H1116 H 0.48269 0.87792 0.08868 0.0
C1117 C 0.43301 0.81797 0.14032 0.0
C1118 C 0.41652 0.86541 0.10394 0.0
C1119 C 0.42376 0.79707 0.15132 0.0
C1120 C 0.4561 0.9447 0.04713 0.0
C1121 C 0.44665 0.92408 0.05853 0.0
C1122 C 0.46422 0.87503 0.09308 0.0
C1123 C 0.42103 0.82697 0.12209 0.0
C1124 C 0.43097 0.84923 0.11014 0.0
C1125 C 0.45983 0.91357 0.07474 0.0
C1126 C 0.44982 0.89134 0.08694 0.0
H1127 H 0.37376 0.7843 0.12023 0.0
H1128 H 0.38978 0.82055 0.10121 0.0
H1129 H 0.46666 0.84232 0.10867 0.0
H1130 H 0.51001 0.95276 0.0715 0.0
H1131 H 0.4935 0.91753 0.09172 0.0
C1132 C 0.09541 0.2324 0.65383 0.0
C1133 C 0.11566 0.24621 0.64496 0.0
C1134 C 0.08612 0.21176 0.64265 0.0
C1135 C 0.08594 0.18099 0.58576 0.0
H1136 H 0.06488 0.12651 0.62289 0.0
C1137 C 0.06063 0.09096 0.54303 0.0
C1138 C 0.04192 0.07578 0.55298 0.0
C1139 C 0.06956 0.11167 0.55425 0.0
C1140 C 0.07036 0.14159 0.61219 0.0
H1141 H 0.14157 0.24925 0.61689 0.0
H1142 H 0.12549 0.21339 0.59756 0.0
H1143 H 0.07984 0.1627 0.64222 0.0
H1144 H 0.01788 0.07077 0.58263 0.0
H1145 H 0.03303 0.10687 0.60186 0.0
H1146 H 0.07627 0.16003 0.55573 0.0
C1147 C 0.11675 0.21847 0.61316 0.0
C1148 C 0.07899 0.1624 0.62333 0.0
C1149 C 0.12613 0.23896 0.62442 0.0
C1150 C 0.0324 0.0819 0.57447 0.0
C1151 C 0.04122 0.10264 0.58561 0.0
C1152 C 0.07717 0.16022 0.57461 0.0
C1153 C 0.09667 0.2045 0.62216 0.0
C1154 C 0.08698 0.18239 0.61028 0.0
C1155 C 0.05995 0.11789 0.5757 0.0
C1156 C 0.06929 0.14014 0.58763 0.0
H1157 H 0.08695 0.23733 0.66966 0.0
H1158 H 0.07052 0.20158 0.64998 0.0
H1159 H 0.09161 0.19608 0.57512 0.0
H1160 H 0.06849 0.08685 0.52655 0.0
H1161 H 0.0842 0.12268 0.54617 0.0
C1162 C 0.73664 0.34228 0.37014 0.0
C1163 C 0.75372 0.33509 0.38439 0.0
C1164 C 0.71914 0.35347 0.37975 0.0
C1165 C 0.687 0.35959 0.43457 0.0
H1166 H 0.6654 0.4097 0.40161 0.0
C1167 C 0.61257 0.40657 0.47024 0.0
C1168 C 0.59615 0.41144 0.45385 0.0
C1169 C 0.63291 0.3983 0.46291 0.0
C1170 C 0.67111 0.3956 0.41093 0.0
H1171 H 0.76608 0.33463 0.41994 0.0
H1172 H 0.7353 0.35414 0.4368 0.0
H1173 H 0.69955 0.39421 0.38691 0.0
H1174 H 0.58832 0.41153 0.41692 0.0
H1175 H 0.62345 0.39666 0.40422 0.0
H1176 H 0.6583 0.36077 0.4584 0.0
C1177 C 0.73544 0.35088 0.41816 0.0
C1178 C 0.6907 0.38676 0.40253 0.0
C1179 C 0.75305 0.33972 0.40851 0.0
C1180 C 0.60045 0.40769 0.43002 0.0
C1181 C 0.62076 0.39947 0.42271 0.0
C1182 C 0.66736 0.36844 0.44298 0.0
C1183 C 0.71819 0.35772 0.40389 0.0
C1184 C 0.69866 0.36842 0.41404 0.0
C1185 C 0.6373 0.39481 0.43903 0.0
C1186 C 0.65899 0.38631 0.43104 0.0
H1187 H 0.73624 0.33855 0.3516 0.0
H1188 H 0.70588 0.35812 0.36833 0.0
H1189 H 0.69254 0.34528 0.44368 0.0
H1190 H 0.60967 0.40912 0.48874 0.0
H1191 H 0.64536 0.39498 0.47591 0.0
loop_
_geom_bond_atom_site_label_1
_geom_bond_atom_site_label_2
_geom_bond_distance
_geom_bond_site_symmetry_2
_ccdc_geom_bond_type
C0 C1 1.386 . S
C0 C2 1.397 . S
C0 H24 0.931 . S
C1 C0 1.386 . S
C1 C5 1.397 . S
C2 C0 1.397 . S
C2 C3 1.384 . S
C2 H25 0.930 . S
C3 C2 1.384 . S
C3 C4 1.377 . S
C3 C6 1.481 . S
C4 C3 1.377 . S
C4 C5 1.389 . S
C4 H26 0.929 . S
C5 C1 1.397 . S
C5 C4 1.389 . S
C5 H27 0.931 . S
C6 C3 1.481 . S
C6 C7 1.387 . S
C6 C11 1.390 . S
C7 C6 1.387 . S
C7 C8 1.401 . S
C7 H28 0.930 . S
C8 C7 1.401 . S
C8 C9 1.376 . S
C8 C17 1.511 . S
C9 C8 1.376 . S
C9 C10 1.392 . S
C9 H30 0.931 . S
C10 C9 1.392 . S
C10 C11 1.361 . S
C10 C12 1.500 . S
C11 C6 1.390 . S
C11 C10 1.361 . S
C11 H29 0.931 . S
C12 C10 1.500 . S
C12 C13 1.371 . S
C12 C14 1.365 . S
C13 C12 1.371 . S
C13 C23 1.386 . S
C13 H31 0.931 . S
C14 C12 1.365 . S
C14 C15 1.409 . S
C14 H32 0.929 . S
C15 C14 1.409 . S
C15 C16 1.380 . S
C15 H33 0.930 . S
C16 C15 1.380 . S
C16 C23 1.357 . S
C17 C8 1.511 . S
C17 C18 1.341 . S
C17 C19 1.371 . S
C18 C17 1.341 . S
C18 C22 1.394 . S
C18 H34 0.930 . S
C19 C17 1.371 . S
C19 C20 1.392 . S
C19 H35 0.931 . S
C20 C19 1.392 . S
C20 C21 1.331 . S
C20 H38 0.932 . S
C21 C20 1.331 . S
C21 C22 1.336 . S
C22 C18 1.394 . S
C22 C21 1.336 . S
C22 H37 0.929 . S
C23 C13 1.386 . S
C23 C16 1.357 . S
C23 H36 0.928 . S
H24 C0 0.931 . S
H25 C2 0.930 . S
H26 C4 0.929 . S
H27 C5 0.931 . S
H28 C7 0.930 . S
H29 C11 0.931 . S
H30 C9 0.931 . S
H31 C13 0.931 . S
H32 C14 0.929 . S
H33 C15 0.930 . S
H34 C18 0.930 . S
H35 C19 0.931 . S
H36 C23 0.928 . S
H37 C22 0.929 . S
H38 C20 0.932 . S
C39 C40 1.386 . S
C39 C41 1.397 . S
C39 H63 0.931 . S
C40 C39 1.386 . S
C40 C44 1.397 . S
C41 C39 1.397 . S
C41 C42 1.384 . S
C41 H64 0.930 . S
C42 C41 1.384 . S
C42 C43 1.377 . S
C42 C45 1.481 . S
C43 C42 1.377 . S
C43 C44 1.389 . S
C43 H65 0.929 . S
C44 C40 1.397 . S
C44 C43 1.389 . S
C44 H66 0.931 . S
C45 C42 1.481 . S
C45 C46 1.387 . S
C45 C50 1.390 . S
C46 C45 1.387 . S
C46 C47 1.401 . S
C46 H67 0.930 . S
C47 C46 1.401 . S
C47 C48 1.376 . S
C47 C56 1.511 . S
C48 C47 1.376 . S
C48 C49 1.392 . S
C48 H69 0.931 . S
C49 C48 1.392 . S
C49 C50 1.361 . S
C49 C51 1.500 . S
C50 C45 1.390 . S
C50 C49 1.361 . S
C50 H68 0.931 . S
C51 C49 1.500 . S
C51 C52 1.371 . S
C51 C53 1.365 . S
C52 C51 1.371 . S
C52 C62 1.386 . S
C52 H70 0.931 . S
C53 C51 1.365 . S
C53 C54 1.409 . S
C53 H71 0.929 . S
C54 C53 1.409 . S
C54 C55 1.380 . S
C54 H72 0.930 . S
C55 C54 1.380 . S
C55 C62 1.357 . S
C56 C47 1.511 . S
C56 C57 1.341 . S
C56 C58 1.371 . S
C57 C56 1.341 . S
C57 C61 1.394 . S
C57 H73 0.930 . S
C58 C56 1.371 . S
C58 C59 1.392 . S
C58 H74 0.931 . S
C59 C58 1.392 . S
C59 C60 1.331 . S
C59 H77 0.932 . S
C60 C59 1.331 . S
C60 C61 1.336 . S
C61 C57 1.394 . S
C61 C60 1.336 . S
C61 H76 0.929 . S
C62 C52 1.386 . S
C62 C55 1.357 . S
C62 H75 0.928 . S
H63 C39 0.931 . S
H64 C41 0.930 . S
H65 C43 0.929 . S
H66 C44 0.931 . S
H67 C46 0.930 . S
H68 C50 0.931 . S
H69 C48 0.931 . S
H70 C52 0.931 . S
H71 C53 0.929 . S
H72 C54 0.930 . S
H73 C57 0.930 . S
H74 C58 0.931 . S
H75 C62 0.928 . S
H76 C61 0.929 . S
H77 C59 0.932 . S
C78 C79 1.386 . S
C78 C80 1.397 . S
C78 H102 0.931 . S
C79 C78 1.386 . S
C79 C83 1.397 . S
C80 C78 1.397 . S
C80 C81 1.384 . S
C80 H103 0.930 . S
C81 C80 1.384 . S
C81 C82 1.377 . S
C81 C84 1.481 . S
C82 C81 1.377 . S
C82 C83 1.389 . S
C82 H104 0.929 . S
C83 C79 1.397 . S
C83 C82 1.389 . S
C83 H105 0.931 . S
C84 C81 1.481 . S
C84 C85 1.387 . S
C84 C89 1.390 . S
C85 C84 1.387 . S
C85 C86 1.401 . S
C85 H106 0.930 . S
C86 C85 1.401 . S
C86 C87 1.376 . S
C86 C95 1.511 . S
C87 C86 1.376 . S
C87 C88 1.392 . S
C87 H108 0.931 . S
C88 C87 1.392 . S
C88 C89 1.361 . S
C88 C90 1.500 . S
C89 C84 1.390 . S
C89 C88 1.361 . S
C89 H107 0.931 . S
C90 C88 1.500 . S
C90 C91 1.371 . S
C90 C92 1.365 . S
C91 C90 1.371 . S
C91 C101 1.386 . S
C91 H109 0.931 . S
C92 C90 1.365 . S
C92 C93 1.409 . S
C92 H110 0.929 . S
C93 C92 1.409 . S
C93 C94 1.380 . S
C93 H111 0.930 . S
C94 C93 1.380 . S
C94 C101 1.357 . S
C95 C86 1.511 . S
C95 C96 1.341 . S
C95 C97 1.371 . S
C96 C95 1.341 . S
C96 C100 1.394 . S
C96 H112 0.930 . S
C97 C95 1.371 . S
C97 C98 1.392 . S
C97 H113 0.931 . S
C98 C97 1.392 . S
C98 C99 1.331 . S
C98 H116 0.932 . S
C99 C98 1.331 . S
C99 C100 1.336 . S
C100 C96 1.394 . S
C100 C99 1.336 . S
C100 H115 0.929 . S
C101 C91 1.386 . S
C101 C94 1.357 . S
C101 H114 0.928 . S
H102 C78 0.931 . S
H103 C80 0.930 . S
H104 C82 0.929 . S
H105 C83 0.931 . S
H106 C85 0.930 . S
H107 C89 0.931 . S
H108 C87 0.931 . S
H109 C91 0.931 . S
H110 C92 0.929 . S
H111 C93 0.930 . S
H112 C96 0.930 . S
H113 C97 0.931 . S
H114 C101 0.928 . S
H115 C100 0.929 . S
H116 C98 0.932 . S
C117 C118 1.386 . S
C117 C119 1.397 . S
C117 H141 0.931 . S
C118 C117 1.386 . S
C118 C122 1.397 . S
C119 C117 1.397 . S
C119 C120 1.384 . S
C119 H142 0.930 . S
C120 C119 1.384 . S
C120 C121 1.377 . S
C120 C123 1.481 . S
C121 C120 1.377 . S
C121 C122 1.389 . S
C121 H143 0.929 . S
C122 C118 1.397 . S
C122 C121 1.389 . S
C122 H144 0.931 . S
C123 C120 1.481 . S
C123 C124 1.387 . S
C123 C128 1.390 . S
C124 C123 1.387 . S
C124 C125 1.401 . S
C124 H145 0.930 . S
C125 C124 1.401 . S
C125 C126 1.376 . S
C125 C134 1.511 . S
C126 C125 1.376 . S
C126 C127 1.392 . S
C126 H147 0.931 . S
C127 C126 1.392 . S
C127 C128 1.361 . S
C127 C129 1.500 . S
C128 C123 1.390 . S
C128 C127 1.361 . S
C128 H146 0.931 . S
C129 C127 1.500 . S
C129 C130 1.371 . S
C129 C131 1.365 . S
C130 C129 1.371 . S
C130 C140 1.386 . S
C130 H148 0.931 . S
C131 C129 1.365 . S
C131 C132 1.409 . S
C131 H149 0.929 . S
C132 C131 1.409 . S
C132 C133 1.380 . S
C132 H150 0.930 . S
C133 C132 1.380 . S
C133 C140 1.357 . S
C134 C125 1.511 . S
C134 C135 1.341 . S
C134 C136 1.371 . S
C135 C134 1.341 . S
C135 C139 1.394 . S
C135 H151 0.930 . S
C136 C134 1.371 . S
C136 C137 1.392 . S
C136 H152 0.931 . S
C137 C136 1.392 . S
C137 C138 1.331 . S
C137 H155 0.932 . S
C138 C137 1.331 . S
C138 C139 1.336 . S
C139 C135 1.394 . S
C139 C138 1.336 . S
C139 H154 0.929 . S
C140 C130 1.386 . S
C140 C133 1.357 . S
C140 H153 0.928 . S
H141 C117 0.931 . S
H142 C119 0.930 . S
H143 C121 0.929 . S
H144 C122 0.931 . S
H145 C124 0.930 . S
H146 C128 0.931 . S
H147 C126 0.931 . S
H148 C130 0.931 . S
H149 C131 0.929 . S
H150 C132 0.930 . S
H151 C135 0.930 . S
H152 C136 0.931 . S
H153 C140 0.928 . S
H154 C139 0.929 . S
H155 C137 0.932 . S
C156 C157 1.386 . S
C156 C158 1.397 . S
C156 H180 0.931 . S
C157 C156 1.386 . S
C157 C161 1.397 . S
C158 C156 1.397 . S
C158 C159 1.384 . S
C158 H181 0.930 . S
C159 C158 1.384 . S
C159 C160 1.377 . S
C159 C162 1.481 . S
C160 C159 1.377 . S
C160 C161 1.389 . S
C160 H182 0.929 . S
C161 C157 1.397 . S
C161 C160 1.389 . S
C161 H183 0.931 . S
C162 C159 1.481 . S
C162 C163 1.387 . S
C162 C167 1.390 . S
C163 C162 1.387 . S
C163 C164 1.401 . S
C163 H184 0.930 . S
C164 C163 1.401 . S
C164 C165 1.376 . S
C164 C173 1.511 . S
C165 C164 1.376 . S
C165 C166 1.392 . S
C165 H186 0.931 . S
C166 C165 1.392 . S
C166 C167 1.361 . S
C166 C168 1.500 . S
C167 C162 1.390 . S
C167 C166 1.361 . S
C167 H185 0.931 . S
C168 C166 1.500 . S
C168 C169 1.371 . S
C168 C170 1.365 . S
C169 C168 1.371 . S
C169 C179 1.386 . S
C169 H187 0.931 . S
C170 C168 1.365 . S
C170 C171 1.409 . S
C170 H188 0.929 . S
C171 C170 1.409 . S
C171 C172 1.380 . S
C171 H189 0.930 . S
C172 C171 1.380 . S
C172 C179 1.357 . S
C173 C164 1.511 . S
C173 C174 1.341 . S
C173 C175 1.371 . S
C174 C173 1.341 . S
C174 C178 1.394 . S
C174 H190 0.930 . S
C175 C173 1.371 . S
C175 C176 1.392 . S
C175 H191 0.931 . S
C176 C175 1.392 . S
C176 C177 1.331 . S
C176 H194 0.932 . S
C177 C176 1.331 . S
C177 C178 1.336 . S
C178 C174 1.394 . S
C178 C177 1.336 . S
C178 H193 0.929 . S
C179 C169 1.386 . S
C179 C172 1.357 . S
C179 H192 0.928 . S
H180 C156 0.931 . S
H181 C158 0.930 . S
H182 C160 0.929 . S
H183 C161 0.931 . S
H184 C163 0.930 . S
H185 C167 0.931 . S
H186 C165 0.931 . S
H187 C169 0.931 . S
H188 C170 0.929 . S
H189 C171 0.930 . S
H190 C174 0.930 . S
H191 C175 0.931 . S
H192 C179 0.928 . S
H193 C178 0.929 . S
H194 C176 0.932 . S
C195 C196 1.386 . S
C195 C197 1.397 . S
C195 H219 0.931 . S
C196 C195 1.386 . S
C196 C200 1.397 . S
C197 C195 1.397 . S
C197 C198 1.384 . S
C197 H220 0.930 . S
C198 C197 1.384 . S
C198 C199 1.377 . S
C198 C201 1.481 . S
C199 C198 1.377 . S
C199 C200 1.389 . S
C199 H221 0.929 . S
C200 C196 1.397 . S
C200 C199 1.389 . S
C200 H222 0.931 . S
C201 C198 1.481 . S
C201 C202 1.387 . S
C201 C206 1.390 . S
C202 C201 1.387 . S
C202 C203 1.401 . S
C202 H223 0.930 . S
C203 C202 1.401 . S
C203 C204 1.376 . S
C203 C212 1.511 . S
C204 C203 1.376 . S
C204 C205 1.392 . S
C204 H225 0.931 . S
C205 C204 1.392 . S
C205 C206 1.361 . S
C205 C207 1.500 . S
C206 C201 1.390 . S
C206 C205 1.361 . S
C206 H224 0.931 . S
C207 C205 1.500 . S
C207 C208 1.371 . S
C207 C209 1.365 . S
C208 C207 1.371 . S
C208 C218 1.386 . S
C208 H226 0.931 . S
C209 C207 1.365 . S
C209 C210 1.409 . S
C209 H227 0.929 . S
C210 C209 1.409 . S
C210 C211 1.380 . S
C210 H228 0.930 . S
C211 C210 1.380 . S
C211 C218 1.357 . S
C212 C203 1.511 . S
C212 C213 1.341 . S
C212 C214 1.371 . S
C213 C212 1.341 . S
C213 C217 1.394 . S
C213 H229 0.930 . S
C214 C212 1.371 . S
C214 C215 1.392 . S
C214 H230 0.931 . S
C215 C214 1.392 . S
C215 C216 1.331 . S
C215 H233 0.932 . S
C216 C215 1.331 . S
C216 C217 1.336 . S
C217 C213 1.394 . S
C217 C216 1.336 . S
C217 H232 0.929 . S
C218 C208 1.386 . S
C218 C211 1.357 . S
C218 H231 0.928 . S
H219 C195 0.931 . S
H220 C197 0.930 . S
H221 C199 0.929 . S
H222 C200 0.931 . S
H223 C202 0.930 . S
H224 C206 0.931 . S
H225 C204 0.931 . S
H226 C208 0.931 . S
H227 C209 0.929 . S
H228 C210 0.930 . S
H229 C213 0.930 . S
H230 C214 0.931 . S
H231 C218 0.928 . S
H232 C217 0.929 . S
H233 C215 0.932 . S
C234 C235 1.386 . S
C234 C236 1.397 . S
C234 H258 0.931 . S
C235 C234 1.386 . S
C235 C239 1.397 . S
C236 C234 1.397 . S
C236 C237 1.384 . S
C236 H259 0.930 . S
C237 C236 1.384 . S
C237 C238 1.377 . S
C237 C240 1.481 . S
C238 C237 1.377 . S
C238 C239 1.389 . S
C238 H260 0.929 . S
C239 C235 1.397 . S
C239 C238 1.389 . S
C239 H261 0.931 . S
C240 C237 1.481 . S
C240 C241 1.387 . S
C240 C245 1.390 . S
C241 C240 1.387 . S
C241 C242 1.401 . S
C241 H262 0.930 . S
C242 C241 1.401 . S
C242 C243 1.376 . S
C242 C251 1.511 . S
C243 C242 1.376 . S
C243 C244 1.392 . S
C243 H264 0.931 . S
C244 C243 1.392 . S
C244 C245 1.361 . S
C244 C246 1.500 . S
C245 C240 1.390 . S
C245 C244 1.361 . S
C245 H263 0.931 . S
C246 C244 1.500 . S
C246 C247 1.371 . S
C246 C248 1.365 . S
C247 C246 1.371 . S
C247 C257 1.386 . S
C247 H265 0.931 . S
C248 C246 1.365 . S
C248 C249 1.409 . S
C248 H266 0.929 . S
C249 C248 1.409 . S
C249 C250 1.380 . S
C249 H267 0.930 . S
C250 C249 1.380 . S
C250 C257 1.357 . S
C251 C242 1.511 . S
C251 C252 1.341 . S
C251 C253 1.371 . S
C252 C251 1.341 . S
C252 C256 1.394 . S
C252 H268 0.930 . S
C253 C251 1.371 . S
C253 C254 1.392 . S
C253 H269 0.931 . S
C254 C253 1.392 . S
C254 C255 1.331 . S
C254 H272 0.932 . S
C255 C254 1.331 . S
C255 C256 1.336 . S
C256 C252 1.394 . S
C256 C255 1.336 . S
C256 H271 0.929 . S
C257 C247 1.386 . S
C257 C250 1.357 . S
C257 H270 0.928 . S
H258 C234 0.931 . S
H259 C236 0.930 . S
H260 C238 0.929 . S
H261 C239 0.931 . S
H262 C241 0.930 . S
H263 C245 0.931 . S
H264 C243 0.931 . S
H265 C247 0.931 . S
H266 C248 0.929 . S
H267 C249 0.930 . S
H268 C252 0.930 . S
H269 C253 0.931 . S
H270 C257 0.928 . S
H271 C256 0.929 . S
H272 C254 0.932 . S
C273 C274 1.386 . S
C273 C275 1.397 . S
C273 H297 0.931 . S
C274 C273 1.386 . S
C274 C278 1.397 . S
C275 C273 1.397 . S
C275 C276 1.384 . S
C275 H298 0.930 . S
C276 C275 1.384 . S
C276 C277 1.377 . S
C276 C279 1.481 . S
C277 C276 1.377 . S
C277 C278 1.389 . S
C277 H299 0.929 . S
C278 C274 1.397 . S
C278 C277 1.389 . S
C278 H300 0.931 . S
C279 C276 1.481 . S
C279 C280 1.387 . S
C279 C284 1.390 . S
C280 C279 1.387 . S
C280 C281 1.401 . S
C280 H301 0.930 . S
C281 C280 1.401 . S
C281 C282 1.376 . S
C281 C290 1.511 . S
C282 C281 1.376 . S
C282 C283 1.392 . S
C282 H303 0.931 . S
C283 C282 1.392 . S
C283 C284 1.361 . S
C283 C285 1.500 . S
C284 C279 1.390 . S
C284 C283 1.361 . S
C284 H302 0.931 . S
C285 C283 1.500 . S
C285 C286 1.371 . S
C285 C287 1.365 . S
C286 C285 1.371 . S
C286 C296 1.386 . S
C286 H304 0.931 . S
C287 C285 1.365 . S
C287 C288 1.409 . S
C287 H305 0.929 . S
C288 C287 1.409 . S
C288 C289 1.380 . S
C288 H306 0.930 . S
C289 C288 1.380 . S
C289 C296 1.357 . S
C290 C281 1.511 . S
C290 C291 1.341 . S
C290 C292 1.371 . S
C291 C290 1.341 . S
C291 C295 1.394 . S
C291 H307 0.930 . S
C292 C290 1.371 . S
C292 C293 1.392 . S
C292 H308 0.931 . S
C293 C292 1.392 . S
C293 C294 1.331 . S
C293 H311 0.932 . S
C294 C293 1.331 . S
C294 C295 1.336 . S
C295 C291 1.394 . S
C295 C294 1.336 . S
C295 H310 0.929 . S
C296 C286 1.386 . S
C296 C289 1.357 . S
C296 H309 0.928 . S
H297 C273 0.931 . S
H298 C275 0.930 . S
H299 C277 0.929 . S
H300 C278 0.931 . S
H301 C280 0.930 . S
H302 C284 0.931 . S
H303 C282 0.931 . S
H304 C286 0.931 . S
H305 C287 0.929 . S
H306 C288 0.930 . S
H307 C291 0.930 . S
H308 C292 0.931 . S
H309 C296 0.928 . S
H310 C295 0.929 . S
H311 C293 0.932 . S
Tb312 C321 2.764 . S
Tb312 O322 2.325 1_455 S
Tb312 O325 2.303 . S
Tb312 O329 2.322 1_545 S
Tb312 O330 2.349 1_545 S
Tb312 O333 2.415 . S
Tb312 O334 2.399 . S
Tb313 O323 2.322 . S
Tb313 O324 2.349 . S
Tb313 O326 2.415 1_545 S
Tb313 O327 2.399 1_545 S
Tb313 O328 2.325 1_645 S
Tb313 O331 2.303 1_545 S
Tb313 C342 2.764 1_545 S
C314 O330 1.261 1_655 S
C314 O331 1.257 . S
C315 C318 1.358 . S
C315 C319 1.332 . S
C315 C321 1.504 . S
C316 C317 1.373 . S
C316 C320 1.308 . S
C317 C316 1.373 . S
C317 C318 1.429 . S
C317 H344 0.932 . S
C318 C315 1.358 . S
C318 C317 1.429 . S
C318 H345 0.930 . S
C319 C315 1.332 . S
C319 C320 1.394 . S
C319 H346 0.932 . S
C320 C316 1.308 . S
C320 C319 1.394 . S
C320 H347 0.929 . S
C321 Tb312 2.764 . S
C321 C315 1.504 . S
C321 O333 1.239 . S
C321 O334 1.263 . S
O322 Tb312 2.325 1_655 S
O322 C332 1.236 . S
O323 Tb313 2.322 . S
O323 C332 1.257 . S
O324 Tb313 2.349 . S
O324 C335 1.261 1_655 S
O325 Tb312 2.303 . S
O325 C335 1.257 . S
O326 Tb313 2.415 1_565 S
O326 C342 1.239 . S
O327 Tb313 2.399 1_565 S
O327 C342 1.263 . S
O328 Tb313 2.325 1_465 S
O328 C343 1.236 . S
O329 Tb312 2.322 1_565 S
O329 C343 1.257 . S
O330 Tb312 2.349 1_565 S
O330 C314 1.261 1_455 S
O331 Tb313 2.303 1_565 S
O331 C314 1.257 . S
C332 O322 1.236 . S
C332 O323 1.257 . S
O333 Tb312 2.415 . S
O333 C321 1.239 . S
O334 Tb312 2.399 . S
O334 C321 1.263 . S
C335 O324 1.261 1_455 S
C335 O325 1.257 . S
C336 C339 1.358 . S
C336 C340 1.332 . S
C336 C342 1.504 . S
C337 C338 1.373 . S
C337 C341 1.308 . S
C338 C337 1.373 . S
C338 C339 1.429 . S
C338 H348 0.932 . S
C339 C336 1.358 . S
C339 C338 1.429 . S
C339 H349 0.930 . S
C340 C336 1.332 . S
C340 C341 1.394 . S
C340 H350 0.932 . S
C341 C337 1.308 . S
C341 C340 1.394 . S
C341 H351 0.929 . S
C342 Tb313 2.764 1_565 S
C342 O326 1.239 . S
C342 O327 1.263 . S
C342 C336 1.504 . S
C343 O328 1.236 . S
C343 O329 1.257 . S
H344 C317 0.932 . S
H345 C318 0.930 . S
H346 C319 0.932 . S
H347 C320 0.929 . S
H348 C338 0.932 . S
H349 C339 0.930 . S
H350 C340 0.932 . S
H351 C341 0.929 . S
Tb352 C361 2.764 . S
Tb352 O362 2.325 1_554 S
Tb352 O365 2.303 . S
Tb352 O369 2.322 1_545 S
Tb352 O370 2.375 1_545 S
Tb352 O373 2.415 . S
Tb352 O374 2.399 . S
Tb353 O363 2.325 . S
Tb353 O364 2.334 1_556 S
Tb353 O366 2.412 1_545 S
Tb353 O367 2.398 1_545 S
Tb353 O368 2.322 1_546 S
Tb353 O371 2.302 1_545 S
Tb353 C382 2.762 1_545 S
C354 O370 1.228 1_556 S
C354 O371 1.257 . S
C355 C358 1.358 . S
C355 C359 1.332 . S
C355 C361 1.504 . S
C356 C357 1.373 . S
C356 C360 1.308 . S
C357 C356 1.373 . S
C357 C358 1.429 . S
C357 H384 0.932 . S
C358 C355 1.358 . S
C358 C357 1.429 . S
C358 H385 0.930 . S
C359 C355 1.332 . S
C359 C360 1.394 . S
C359 H386 0.932 . S
C360 C356 1.308 . S
C360 C359 1.394 . S
C360 H387 0.929 . S
C361 Tb352 2.764 . S
C361 C355 1.504 . S
C361 O373 1.239 . S
C361 O374 1.263 . S
O362 Tb352 2.325 1_556 S
O362 C372 1.236 . S
O363 Tb353 2.325 . S
O363 C372 1.257 . S
O364 Tb353 2.334 1_554 S
O364 C375 1.285 . S
O365 Tb352 2.303 . S
O365 C375 1.257 . S
O366 Tb353 2.412 1_565 S
O366 C382 1.239 . S
O367 Tb353 2.398 1_565 S
O367 C382 1.263 . S
O368 Tb353 2.322 1_564 S
O368 C383 1.236 . S
O369 Tb352 2.322 1_565 S
O369 C383 1.257 . S
O370 Tb352 2.375 1_565 S
O370 C354 1.228 1_554 S
O371 Tb353 2.302 1_565 S
O371 C354 1.257 . S
C372 O362 1.236 . S
C372 O363 1.257 . S
O373 Tb352 2.415 . S
O373 C361 1.239 . S
O374 Tb352 2.399 . S
O374 C361 1.263 . S
C375 O364 1.285 . S
C375 O365 1.257 . S
C376 C379 1.358 . S
C376 C380 1.332 . S
C376 C382 1.504 . S
C377 C378 1.373 . S
C377 C381 1.308 . S
C378 C377 1.373 . S
C378 C379 1.429 . S
C378 H388 0.932 . S
C379 C376 1.358 . S
C379 C378 1.429 . S
C379 H389 0.930 . S
C380 C376 1.332 . S
C380 C381 1.394 . S
C380 H390 0.932 . S
C381 C377 1.308 . S
C381 C380 1.394 . S
C381 H391 0.929 . S
C382 Tb353 2.762 1_565 S
C382 O366 1.239 . S
C382 O367 1.263 . S
C382 C376 1.504 . S
C383 O368 1.236 . S
C383 O369 1.257 . S
H384 C357 0.932 . S
H385 C358 0.930 . S
H386 C359 0.932 . S
H387 C360 0.929 . S
H388 C378 0.932 . S
H389 C379 0.930 . S
H390 C380 0.932 . S
H391 C381 0.929 . S
Tb392 C401 2.764 . S
Tb392 O402 2.325 . S
Tb392 O405 2.303 . S
Tb392 O409 2.322 . S
Tb392 O410 2.349 . S
Tb392 O413 2.415 . S
Tb392 O414 2.399 . S
Tb393 O403 2.322 . S
Tb393 O404 2.349 . S
Tb393 O406 2.415 . S
Tb393 O407 2.399 . S
Tb393 O408 2.325 . S
Tb393 O411 2.303 . S
Tb393 C422 2.764 . S
C394 O410 1.261 . S
C394 O411 1.257 . S
C395 C398 1.358 . S
C395 C399 1.332 . S
C395 C401 1.504 . S
C396 C397 1.373 . S
C396 C400 1.308 . S
C397 C396 1.373 . S
C397 C398 1.429 . S
C397 H424 0.932 . S
C398 C395 1.358 . S
C398 C397 1.429 . S
C398 H425 0.930 . S
C399 C395 1.332 . S
C399 C400 1.394 . S
C399 H426 0.932 . S
C400 C396 1.308 . S
C400 C399 1.394 . S
C400 H427 0.929 . S
C401 Tb392 2.764 . S
C401 C395 1.504 . S
C401 O413 1.239 . S
C401 O414 1.263 . S
O402 Tb392 2.325 . S
O402 C412 1.236 . S
O403 Tb393 2.322 . S
O403 C412 1.257 . S
O404 Tb393 2.349 . S
O404 C415 1.261 . S
O405 Tb392 2.303 . S
O405 C415 1.257 . S
O406 Tb393 2.415 . S
O406 C422 1.239 . S
O407 Tb393 2.399 . S
O407 C422 1.263 . S
O408 Tb393 2.325 . S
O408 C423 1.236 . S
O409 Tb392 2.322 . S
O409 C423 1.257 . S
O410 Tb392 2.349 . S
O410 C394 1.261 . S
O411 Tb393 2.303 . S
O411 C394 1.257 . S
C412 O402 1.236 . S
C412 O403 1.257 . S
O413 Tb392 2.415 . S
O413 C401 1.239 . S
O414 Tb392 2.399 . S
O414 C401 1.263 . S
C415 O404 1.261 . S
C415 O405 1.257 . S
C416 C419 1.358 . S
C416 C420 1.332 . S
C416 C422 1.504 . S
C417 C418 1.373 . S
C417 C421 1.308 . S
C418 C417 1.373 . S
C418 C419 1.429 . S
C418 H428 0.932 . S
C419 C416 1.358 . S
C419 C418 1.429 . S
C419 H429 0.930 . S
C420 C416 1.332 . S
C420 C421 1.394 . S
C420 H430 0.932 . S
C421 C417 1.308 . S
C421 C420 1.394 . S
C421 H431 0.929 . S
C422 Tb393 2.764 . S
C422 O406 1.239 . S
C422 O407 1.263 . S
C422 C416 1.504 . S
C423 O408 1.236 . S
C423 O409 1.257 . S
H424 C397 0.932 . S
H425 C398 0.930 . S
H426 C399 0.932 . S
H427 C400 0.929 . S
H428 C418 0.932 . S
H429 C419 0.930 . S
H430 C420 0.932 . S
H431 C421 0.929 . S
Tb432 C441 2.764 . S
Tb432 O442 2.325 . S
Tb432 O445 2.303 1_556 S
Tb432 O449 2.317 1_656 S
Tb432 O450 2.349 1_655 S
Tb432 O453 2.415 . S
Tb432 O454 2.399 . S
Tb433 O443 2.322 1_455 S
Tb433 O444 2.349 1_455 S
Tb433 O446 2.415 . S
Tb433 O447 2.399 . S
Tb433 O448 2.325 . S
Tb433 O451 2.303 1_554 S
Tb433 C462 2.764 . S
C434 O450 1.261 . S
C434 O451 1.257 . S
C435 C438 1.358 . S
C435 C439 1.332 . S
C435 C441 1.504 . S
C436 C437 1.373 . S
C436 C440 1.308 . S
C437 C436 1.373 . S
C437 C438 1.429 . S
C437 H464 0.932 . S
C438 C435 1.358 . S
C438 C437 1.429 . S
C438 H465 0.930 . S
C439 C435 1.332 . S
C439 C440 1.394 . S
C439 H466 0.932 . S
C440 C436 1.308 . S
C440 C439 1.394 . S
C440 H467 0.929 . S
C441 Tb432 2.764 . S
C441 C435 1.504 . S
C441 O453 1.239 . S
C441 O454 1.263 . S
O442 Tb432 2.325 . S
O442 C452 1.236 . S
O443 Tb433 2.322 1_655 S
O443 C452 1.257 1_554 S
O444 Tb433 2.349 1_655 S
O444 C455 1.261 . S
O445 Tb432 2.303 1_554 S
O445 C455 1.257 . S
O446 Tb433 2.415 . S
O446 C462 1.239 . S
O447 Tb433 2.399 . S
O447 C462 1.263 . S
O448 Tb433 2.325 . S
O448 C463 1.236 . S
O449 Tb432 2.317 1_454 S
O449 C463 1.266 . S
O450 Tb432 2.349 1_455 S
O450 C434 1.261 . S
O451 Tb433 2.303 1_556 S
O451 C434 1.257 . S
C452 O442 1.236 . S
C452 O443 1.257 1_556 S
O453 Tb432 2.415 . S
O453 C441 1.239 . S
O454 Tb432 2.399 . S
O454 C441 1.263 . S
C455 O444 1.261 . S
C455 O445 1.257 . S
C456 C459 1.358 . S
C456 C460 1.332 . S
C456 C462 1.504 . S
C457 C458 1.373 . S
C457 C461 1.308 . S
C458 C457 1.373 . S
C458 C459 1.429 . S
C458 H468 0.932 . S
C459 C456 1.358 . S
C459 C458 1.429 . S
C459 H469 0.930 . S
C460 C456 1.332 . S
C460 C461 1.394 . S
C460 H470 0.932 . S
C461 C457 1.308 . S
C461 C460 1.394 . S
C461 H471 0.929 . S
C462 Tb433 2.764 . S
C462 O446 1.239 . S
C462 O447 1.263 . S
C462 C456 1.504 . S
C463 O448 1.236 . S
C463 O449 1.266 . S
H464 C437 0.932 . S
H465 C438 0.930 . S
H466 C439 0.932 . S
H467 C440 0.929 . S
H468 C458 0.932 . S
H469 C459 0.930 . S
H470 C460 0.932 . S
H471 C461 0.929 . S
C472 C473 1.349 . S
C472 C474 1.327 . S
C472 H497 0.950 . S
C473 C472 1.349 . S
C473 C489 1.349 . S
C474 C472 1.327 . S
C474 C493 1.429 . S
C474 H498 0.950 . S
C475 C492 1.574 . S
C475 C494 1.368 . S
C475 H499 0.949 . S
H476 C480 0.949 . S
C477 C478 1.349 . S
C477 C479 1.327 . S
C477 H500 0.950 . S
C478 C477 1.349 . S
C478 C490 1.349 . S
C479 C477 1.327 . S
C479 C495 1.429 . S
C479 H501 0.950 . S
C480 H476 0.949 . S
C480 C488 1.574 . S
C480 C496 1.368 . S
H481 C489 0.950 . S
H482 C487 0.950 . S
H483 C488 0.949 . S
H484 C490 0.950 . S
H485 C491 0.950 . S
H486 C492 0.949 . S
C487 H482 0.950 . S
C487 C489 1.327 . S
C487 C493 1.429 . S
C488 C480 1.574 . S
C488 H483 0.949 . S
C488 C494 1.368 . S
C489 C473 1.349 . S
C489 H481 0.950 . S
C489 C487 1.327 . S
C490 C478 1.349 . S
C490 H484 0.950 . S
C490 C491 1.327 . S
C491 H485 0.950 . S
C491 C490 1.327 . S
C491 C495 1.429 . S
C492 C475 1.574 . S
C492 H486 0.949 . S
C492 C496 1.368 . S
C493 C474 1.429 . S
C493 C487 1.429 . S
C493 C494 1.523 . S
C494 C475 1.368 . S
C494 C488 1.368 . S
C494 C493 1.523 . S
C495 C479 1.429 . S
C495 C491 1.429 . S
C495 C496 1.523 . S
C496 C480 1.368 . S
C496 C492 1.368 . S
C496 C495 1.523 . S
H497 C472 0.950 . S
H498 C474 0.950 . S
H499 C475 0.949 . S
H500 C477 0.950 . S
H501 C479 0.950 . S
C502 C503 1.349 . S
C502 C504 1.327 . S
C502 H527 0.950 . S
C503 C502 1.349 . S
C503 C519 1.349 . S
C504 C502 1.327 . S
C504 C523 1.429 . S
C504 H528 0.950 . S
C505 C522 1.574 . S
C505 C524 1.368 . S
C505 H529 0.949 . S
H506 C510 0.949 . S
C507 C508 1.349 . S
C507 C509 1.327 . S
C507 H530 0.950 . S
C508 C507 1.349 . S
C508 C520 1.349 . S
C509 C507 1.327 . S
C509 C525 1.429 . S
C509 H531 0.950 . S
C510 H506 0.949 . S
C510 C518 1.574 . S
C510 C526 1.368 . S
H511 C519 0.950 . S
H512 C517 0.950 . S
H513 C518 0.949 . S
H514 C520 0.950 . S
H515 C521 0.950 . S
H516 C522 0.949 . S
C517 H512 0.950 . S
C517 C519 1.327 . S
C517 C523 1.429 . S
C518 C510 1.574 . S
C518 H513 0.949 . S
C518 C524 1.368 . S
C519 C503 1.349 . S
C519 H511 0.950 . S
C519 C517 1.327 . S
C520 C508 1.349 . S
C520 H514 0.950 . S
C520 C521 1.327 . S
C521 H515 0.950 . S
C521 C520 1.327 . S
C521 C525 1.429 . S
C522 C505 1.574 . S
C522 H516 0.949 . S
C522 C526 1.368 . S
C523 C504 1.429 . S
C523 C517 1.429 . S
C523 C524 1.523 . S
C524 C505 1.368 . S
C524 C518 1.368 . S
C524 C523 1.523 . S
C525 C509 1.429 . S
C525 C521 1.429 . S
C525 C526 1.523 . S
C526 C510 1.368 . S
C526 C522 1.368 . S
C526 C525 1.523 . S
H527 C502 0.950 . S
H528 C504 0.950 . S
H529 C505 0.949 . S
H530 C507 0.950 . S
H531 C509 0.950 . S
C532 C533 1.349 . S
C532 C534 1.327 . S
C532 H557 0.950 . S
C533 C532 1.349 . S
C533 C549 1.349 . S
C534 C532 1.327 . S
C534 C553 1.429 . S
C534 H558 0.950 . S
C535 C552 1.574 . S
C535 C554 1.368 . S
C535 H559 0.949 . S
H536 C540 0.949 . S
C537 C538 1.349 . S
C537 C539 1.327 . S
C537 H560 0.950 . S
C538 C537 1.349 . S
C538 C550 1.349 . S
C539 C537 1.327 . S
C539 C555 1.429 . S
C539 H561 0.950 . S
C540 H536 0.949 . S
C540 C548 1.574 . S
C540 C556 1.368 . S
H541 C549 0.950 . S
H542 C547 0.950 . S
H543 C548 0.949 . S
H544 C550 0.950 . S
H545 C551 0.950 . S
H546 C552 0.949 . S
C547 H542 0.950 . S
C547 C549 1.327 . S
C547 C553 1.429 . S
C548 C540 1.574 . S
C548 H543 0.949 . S
C548 C554 1.368 . S
C549 C533 1.349 . S
C549 H541 0.950 . S
C549 C547 1.327 . S
C550 C538 1.349 . S
C550 H544 0.950 . S
C550 C551 1.327 . S
C551 H545 0.950 . S
C551 C550 1.327 . S
C551 C555 1.429 . S
C552 C535 1.574 . S
C552 H546 0.949 . S
C552 C556 1.368 . S
C553 C534 1.429 . S
C553 C547 1.429 . S
C553 C554 1.523 . S
C554 C535 1.368 . S
C554 C548 1.368 . S
C554 C553 1.523 . S
C555 C539 1.429 . S
C555 C551 1.429 . S
C555 C556 1.523 . S
C556 C540 1.368 . S
C556 C552 1.368 . S
C556 C555 1.523 . S
H557 C532 0.950 . S
H558 C534 0.950 . S
H559 C535 0.949 . S
H560 C537 0.950 . S
H561 C539 0.950 . S
C562 C563 1.349 . S
C562 C564 1.327 . S
C562 H587 0.950 . S
C563 C562 1.349 . S
C563 C579 1.349 . S
C564 C562 1.327 . S
C564 C583 1.429 . S
C564 H588 0.950 . S
C565 C582 1.574 . S
C565 C584 1.368 . S
C565 H589 0.949 . S
H566 C570 0.949 . S
C567 C568 1.349 . S
C567 C569 1.327 . S
C567 H590 0.950 . S
C568 C567 1.349 . S
C568 C580 1.349 . S
C569 C567 1.327 . S
C569 C585 1.429 . S
C569 H591 0.950 . S
C570 H566 0.949 . S
C570 C578 1.574 . S
C570 C586 1.368 . S
H571 C579 0.950 . S
H572 C577 0.950 . S
H573 C578 0.949 . S
H574 C580 0.950 . S
H575 C581 0.950 . S
H576 C582 0.949 . S
C577 H572 0.950 . S
C577 C579 1.327 . S
C577 C583 1.429 . S
C578 C570 1.574 . S
C578 H573 0.949 . S
C578 C584 1.368 . S
C579 C563 1.349 . S
C579 H571 0.950 . S
C579 C577 1.327 . S
C580 C568 1.349 . S
C580 H574 0.950 . S
C580 C581 1.327 . S
C581 H575 0.950 . S
C581 C580 1.327 . S
C581 C585 1.429 . S
C582 C565 1.574 . S
C582 H576 0.949 . S
C582 C586 1.368 . S
C583 C564 1.429 . S
C583 C577 1.429 . S
C583 C584 1.523 . S
C584 C565 1.368 . S
C584 C578 1.368 . S
C584 C583 1.523 . S
C585 C569 1.429 . S
C585 C581 1.429 . S
C585 C586 1.523 . S
C586 C570 1.368 . S
C586 C582 1.368 . S
C586 C585 1.523 . S
H587 C562 0.950 . S
H588 C564 0.950 . S
H589 C565 0.949 . S
H590 C567 0.950 . S
H591 C569 0.950 . S
C592 C593 1.349 . S
C592 C594 1.327 . S
C592 H617 0.950 . S
C593 C592 1.349 . S
C593 C609 1.349 . S
C594 C592 1.327 . S
C594 C613 1.429 . S
C594 H618 0.950 . S
C595 C612 1.574 . S
C595 C614 1.368 . S
C595 H619 0.949 . S
H596 C600 0.949 . S
C597 C598 1.349 . S
C597 C599 1.327 . S
C597 H620 0.950 . S
C598 C597 1.349 . S
C598 C610 1.349 . S
C599 C597 1.327 . S
C599 C615 1.429 . S
C599 H621 0.950 . S
C600 H596 0.949 . S
C600 C608 1.574 . S
C600 C616 1.368 . S
H601 C609 0.950 . S
H602 C607 0.950 . S
H603 C608 0.949 . S
H604 C610 0.950 . S
H605 C611 0.950 . S
H606 C612 0.949 . S
C607 H602 0.950 . S
C607 C609 1.327 . S
C607 C613 1.429 . S
C608 C600 1.574 . S
C608 H603 0.949 . S
C608 C614 1.368 . S
C609 C593 1.349 . S
C609 H601 0.950 . S
C609 C607 1.327 . S
C610 C598 1.349 . S
C610 H604 0.950 . S
C610 C611 1.327 . S
C611 H605 0.950 . S
C611 C610 1.327 . S
C611 C615 1.429 . S
C612 C595 1.574 . S
C612 H606 0.949 . S
C612 C616 1.368 . S
C613 C594 1.429 . S
C613 C607 1.429 . S
C613 C614 1.523 . S
C614 C595 1.368 . S
C614 C608 1.368 . S
C614 C613 1.523 . S
C615 C599 1.429 . S
C615 C611 1.429 . S
C615 C616 1.523 . S
C616 C600 1.368 . S
C616 C612 1.368 . S
C616 C615 1.523 . S
H617 C592 0.950 . S
H618 C594 0.950 . S
H619 C595 0.949 . S
H620 C597 0.950 . S
H621 C599 0.950 . S
C622 C623 1.349 . S
C622 C624 1.327 . S
C622 H647 0.950 . S
C623 C622 1.349 . S
C623 C639 1.349 . S
C624 C622 1.327 . S
C624 C643 1.429 . S
C624 H648 0.950 . S
C625 C642 1.574 . S
C625 C644 1.368 . S
C625 H649 0.949 . S
H626 C630 0.949 . S
C627 C628 1.349 . S
C627 C629 1.327 . S
C627 H650 0.950 . S
C628 C627 1.349 . S
C628 C640 1.349 . S
C629 C627 1.327 . S
C629 C645 1.429 . S
C629 H651 0.950 . S
C630 H626 0.949 . S
C630 C638 1.574 . S
C630 C646 1.368 . S
H631 C639 0.950 . S
H632 C637 0.950 . S
H633 C638 0.949 . S
H634 C640 0.950 . S
H635 C641 0.950 . S
H636 C642 0.949 . S
C637 H632 0.950 . S
C637 C639 1.327 . S
C637 C643 1.429 . S
C638 C630 1.574 . S
C638 H633 0.949 . S
C638 C644 1.368 . S
C639 C623 1.349 . S
C639 H631 0.950 . S
C639 C637 1.327 . S
C640 C628 1.349 . S
C640 H634 0.950 . S
C640 C641 1.327 . S
C641 H635 0.950 . S
C641 C640 1.327 . S
C641 C645 1.429 . S
C642 C625 1.574 . S
C642 H636 0.949 . S
C642 C646 1.368 . S
C643 C624 1.429 . S
C643 C637 1.429 . S
C643 C644 1.523 . S
C644 C625 1.368 . S
C644 C638 1.368 . S
C644 C643 1.523 . S
C645 C629 1.429 . S
C645 C641 1.429 . S
C645 C646 1.523 . S
C646 C630 1.368 . S
C646 C642 1.368 . S
C646 C645 1.523 . S
H647 C622 0.950 . S
H648 C624 0.950 . S
H649 C625 0.949 . S
H650 C627 0.950 . S
H651 C629 0.950 . S
C652 C653 1.349 . S
C652 C654 1.327 . S
C652 H677 0.950 . S
C653 C652 1.349 . S
C653 C669 1.349 . S
C654 C652 1.327 . S
C654 C673 1.429 . S
C654 H678 0.950 . S
C655 C672 1.574 . S
C655 C674 1.368 . S
C655 H679 0.949 . S
H656 C660 0.949 . S
C657 C658 1.349 . S
C657 C659 1.327 . S
C657 H680 0.950 . S
C658 C657 1.349 . S
C658 C670 1.349 . S
C659 C657 1.327 . S
C659 C675 1.429 . S
C659 H681 0.950 . S
C660 H656 0.949 . S
C660 C668 1.574 . S
C660 C676 1.368 . S
H661 C669 0.950 . S
H662 C667 0.950 . S
H663 C668 0.949 . S
H664 C670 0.950 . S
H665 C671 0.950 . S
H666 C672 0.949 . S
C667 H662 0.950 . S
C667 C669 1.327 . S
C667 C673 1.429 . S
C668 C660 1.574 . S
C668 H663 0.949 . S
C668 C674 1.368 . S
C669 C653 1.349 . S
C669 H661 0.950 . S
C669 C667 1.327 . S
C670 C658 1.349 . S
C670 H664 0.950 . S
C670 C671 1.327 . S
C671 H665 0.950 . S
C671 C670 1.327 . S
C671 C675 1.429 . S
C672 C655 1.574 . S
C672 H666 0.949 . S
C672 C676 1.368 . S
C673 C654 1.429 . S
C673 C667 1.429 . S
C673 C674 1.523 . S
C674 C655 1.368 . S
C674 C668 1.368 . S
C674 C673 1.523 . S
C675 C659 1.429 . S
C675 C671 1.429 . S
C675 C676 1.523 . S
C676 C660 1.368 . S
C676 C672 1.368 . S
C676 C675 1.523 . S
H677 C652 0.950 . S
H678 C654 0.950 . S
H679 C655 0.949 . S
H680 C657 0.950 . S
H681 C659 0.950 . S
C682 C683 1.349 . S
C682 C684 1.327 . S
C682 H707 0.950 . S
C683 C682 1.349 . S
C683 C699 1.349 . S
C684 C682 1.327 . S
C684 C703 1.429 . S
C684 H708 0.950 . S
C685 C702 1.574 . S
C685 C704 1.368 . S
C685 H709 0.949 . S
H686 C690 0.949 . S
C687 C688 1.349 . S
C687 C689 1.327 . S
C687 H710 0.950 . S
C688 C687 1.349 . S
C688 C700 1.349 . S
C689 C687 1.327 . S
C689 C705 1.429 . S
C689 H711 0.950 . S
C690 H686 0.949 . S
C690 C698 1.574 . S
C690 C706 1.368 . S
H691 C699 0.950 . S
H692 C697 0.950 . S
H693 C698 0.949 . S
H694 C700 0.950 . S
H695 C701 0.950 . S
H696 C702 0.949 . S
C697 H692 0.950 . S
C697 C699 1.327 . S
C697 C703 1.429 . S
C698 C690 1.574 . S
C698 H693 0.949 . S
C698 C704 1.368 . S
C699 C683 1.349 . S
C699 H691 0.950 . S
C699 C697 1.327 . S
C700 C688 1.349 . S
C700 H694 0.950 . S
C700 C701 1.327 . S
C701 H695 0.950 . S
C701 C700 1.327 . S
C701 C705 1.429 . S
C702 C685 1.574 . S
C702 H696 0.949 . S
C702 C706 1.368 . S
C703 C684 1.429 . S
C703 C697 1.429 . S
C703 C704 1.523 . S
C704 C685 1.368 . S
C704 C698 1.368 . S
C704 C703 1.523 . S
C705 C689 1.429 . S
C705 C701 1.429 . S
C705 C706 1.523 . S
C706 C690 1.368 . S
C706 C702 1.368 . S
C706 C705 1.523 . S
H707 C682 0.950 . S
H708 C684 0.950 . S
H709 C685 0.949 . S
H710 C687 0.950 . S
H711 C689 0.950 . S
C712 C713 1.349 . S
C712 C714 1.327 . S
C712 H737 0.950 . S
C713 C712 1.349 . S
C713 C729 1.349 . S
C714 C712 1.327 . S
C714 C733 1.429 . S
C714 H738 0.950 . S
C715 C732 1.574 . S
C715 C734 1.368 . S
C715 H739 0.949 . S
H716 C720 0.949 . S
C717 C718 1.349 . S
C717 C719 1.327 . S
C717 H740 0.950 . S
C718 C717 1.349 . S
C718 C730 1.349 . S
C719 C717 1.327 . S
C719 C735 1.429 . S
C719 H741 0.950 . S
C720 H716 0.949 . S
C720 C728 1.574 . S
C720 C736 1.368 . S
H721 C729 0.950 . S
H722 C727 0.950 . S
H723 C728 0.949 . S
H724 C730 0.950 . S
H725 C731 0.950 . S
H726 C732 0.949 . S
C727 H722 0.950 . S
C727 C729 1.327 . S
C727 C733 1.429 . S
C728 C720 1.574 . S
C728 H723 0.949 . S
C728 C734 1.368 . S
C729 C713 1.349 . S
C729 H721 0.950 . S
C729 C727 1.327 . S
C730 C718 1.349 . S
C730 H724 0.950 . S
C730 C731 1.327 . S
C731 H725 0.950 . S
C731 C730 1.327 . S
C731 C735 1.429 . S
C732 C715 1.574 . S
C732 H726 0.949 . S
C732 C736 1.368 . S
C733 C714 1.429 . S
C733 C727 1.429 . S
C733 C734 1.523 . S
C734 C715 1.368 . S
C734 C728 1.368 . S
C734 C733 1.523 . S
C735 C719 1.429 . S
C735 C731 1.429 . S
C735 C736 1.523 . S
C736 C720 1.368 . S
C736 C732 1.368 . S
C736 C735 1.523 . S
H737 C712 0.950 . S
H738 C714 0.950 . S
H739 C715 0.949 . S
H740 C717 0.950 . S
H741 C719 0.950 . S
C742 C743 1.349 . S
C742 C744 1.327 . S
C742 H767 0.950 . S
C743 C742 1.349 . S
C743 C759 1.349 . S
C744 C742 1.327 . S
C744 C763 1.429 . S
C744 H768 0.950 . S
C745 C762 1.574 . S
C745 C764 1.368 . S
C745 H769 0.949 . S
H746 C750 0.949 . S
C747 C748 1.349 . S
C747 C749 1.327 . S
C747 H770 0.950 . S
C748 C747 1.349 . S
C748 C760 1.349 . S
C749 C747 1.327 . S
C749 C765 1.429 . S
C749 H771 0.950 . S
C750 H746 0.949 . S
C750 C758 1.574 . S
C750 C766 1.368 . S
H751 C759 0.950 . S
H752 C757 0.950 . S
H753 C758 0.949 . S
H754 C760 0.950 . S
H755 C761 0.950 . S
H756 C762 0.949 . S
C757 H752 0.950 . S
C757 C759 1.327 . S
C757 C763 1.429 . S
C758 C750 1.574 . S
C758 H753 0.949 . S
C758 C764 1.368 . S
C759 C743 1.349 . S
C759 H751 0.950 . S
C759 C757 1.327 . S
C760 C748 1.349 . S
C760 H754 0.950 . S
C760 C761 1.327 . S
C761 H755 0.950 . S
C761 C760 1.327 . S
C761 C765 1.429 . S
C762 C745 1.574 . S
C762 H756 0.949 . S
C762 C766 1.368 . S
C763 C744 1.429 . S
C763 C757 1.429 . S
C763 C764 1.523 . S
C764 C745 1.368 . S
C764 C758 1.368 . S
C764 C763 1.523 . S
C765 C749 1.429 . S
C765 C761 1.429 . S
C765 C766 1.523 . S
C766 C750 1.368 . S
C766 C762 1.368 . S
C766 C765 1.523 . S
H767 C742 0.950 . S
H768 C744 0.950 . S
H769 C745 0.949 . S
H770 C747 0.950 . S
H771 C749 0.950 . S
C772 C773 1.349 . S
C772 C774 1.327 . S
C772 H797 0.950 . S
C773 C772 1.349 . S
C773 C789 1.349 . S
C774 C772 1.327 . S
C774 C793 1.429 . S
C774 H798 0.950 . S
C775 C792 1.574 . S
C775 C794 1.368 . S
C775 H799 0.949 . S
H776 C780 0.949 . S
C777 C778 1.349 . S
C777 C779 1.327 . S
C777 H800 0.950 . S
C778 C777 1.349 . S
C778 C790 1.349 . S
C779 C777 1.327 . S
C779 C795 1.429 . S
C779 H801 0.950 . S
C780 H776 0.949 . S
C780 C788 1.574 . S
C780 C796 1.368 . S
H781 C789 0.950 . S
H782 C787 0.950 . S
H783 C788 0.949 . S
H784 C790 0.950 . S
H785 C791 0.950 . S
H786 C792 0.949 . S
C787 H782 0.950 . S
C787 C789 1.327 . S
C787 C793 1.429 . S
C788 C780 1.574 . S
C788 H783 0.949 . S
C788 C794 1.368 . S
C789 C773 1.349 . S
C789 H781 0.950 . S
C789 C787 1.327 . S
C790 C778 1.349 . S
C790 H784 0.950 . S
C790 C791 1.327 . S
C791 H785 0.950 . S
C791 C790 1.327 . S
C791 C795 1.429 . S
C792 C775 1.574 . S
C792 H786 0.949 . S
C792 C796 1.368 . S
C793 C774 1.429 . S
C793 C787 1.429 . S
C793 C794 1.523 . S
C794 C775 1.368 . S
C794 C788 1.368 . S
C794 C793 1.523 . S
C795 C779 1.429 . S
C795 C791 1.429 . S
C795 C796 1.523 . S
C796 C780 1.368 . S
C796 C792 1.368 . S
C796 C795 1.523 . S
H797 C772 0.950 . S
H798 C774 0.950 . S
H799 C775 0.949 . S
H800 C777 0.950 . S
H801 C779 0.950 . S
C802 C803 1.349 . S
C802 C804 1.327 . S
C802 H827 0.950 . S
C803 C802 1.349 . S
C803 C819 1.349 . S
C804 C802 1.327 . S
C804 C823 1.429 . S
C804 H828 0.950 . S
C805 C822 1.574 . S
C805 C824 1.368 . S
C805 H829 0.949 . S
H806 C810 0.949 . S
C807 C808 1.349 . S
C807 C809 1.327 . S
C807 H830 0.950 . S
C808 C807 1.349 . S
C808 C820 1.349 . S
C809 C807 1.327 . S
C809 C825 1.429 . S
C809 H831 0.950 . S
C810 H806 0.949 . S
C810 C818 1.574 . S
C810 C826 1.368 . S
H811 C819 0.950 . S
H812 C817 0.950 . S
H813 C818 0.949 . S
H814 C820 0.950 . S
H815 C821 0.950 . S
H816 C822 0.949 . S
C817 H812 0.950 . S
C817 C819 1.327 . S
C817 C823 1.429 . S
C818 C810 1.574 . S
C818 H813 0.949 . S
C818 C824 1.368 . S
C819 C803 1.349 . S
C819 H811 0.950 . S
C819 C817 1.327 . S
C820 C808 1.349 . S
C820 H814 0.950 . S
C820 C821 1.327 . S
C821 H815 0.950 . S
C821 C820 1.327 . S
C821 C825 1.429 . S
C822 C805 1.574 . S
C822 H816 0.949 . S
C822 C826 1.368 . S
C823 C804 1.429 . S
C823 C817 1.429 . S
C823 C824 1.523 . S
C824 C805 1.368 . S
C824 C818 1.368 . S
C824 C823 1.523 . S
C825 C809 1.429 . S
C825 C821 1.429 . S
C825 C826 1.523 . S
C826 C810 1.368 . S
C826 C822 1.368 . S
C826 C825 1.523 . S
H827 C802 0.950 . S
H828 C804 0.950 . S
H829 C805 0.949 . S
H830 C807 0.950 . S
H831 C809 0.950 . S
C832 C833 1.349 . S
C832 C834 1.327 . S
C832 H857 0.950 . S
C833 C832 1.349 . S
C833 C849 1.349 . S
C834 C832 1.327 . S
C834 C853 1.429 . S
C834 H858 0.950 . S
C835 C852 1.574 . S
C835 C854 1.368 . S
C835 H859 0.949 . S
H836 C840 0.949 . S
C837 C838 1.349 . S
C837 C839 1.327 . S
C837 H860 0.950 . S
C838 C837 1.349 . S
C838 C850 1.349 . S
C839 C837 1.327 . S
C839 C855 1.429 . S
C839 H861 0.950 . S
C840 H836 0.949 . S
C840 C848 1.574 . S
C840 C856 1.368 . S
H841 C849 0.950 . S
H842 C847 0.950 . S
H843 C848 0.949 . S
H844 C850 0.950 . S
H845 C851 0.950 . S
H846 C852 0.949 . S
C847 H842 0.950 . S
C847 C849 1.327 . S
C847 C853 1.429 . S
C848 C840 1.574 . S
C848 H843 0.949 . S
C848 C854 1.368 . S
C849 C833 1.349 . S
C849 H841 0.950 . S
C849 C847 1.327 . S
C850 C838 1.349 . S
C850 H844 0.950 . S
C850 C851 1.327 . S
C851 H845 0.950 . S
C851 C850 1.327 . S
C851 C855 1.429 . S
C852 C835 1.574 . S
C852 H846 0.949 . S
C852 C856 1.368 . S
C853 C834 1.429 . S
C853 C847 1.429 . S
C853 C854 1.523 . S
C854 C835 1.368 . S
C854 C848 1.368 . S
C854 C853 1.523 . S
C855 C839 1.429 . S
C855 C851 1.429 . S
C855 C856 1.523 . S
C856 C840 1.368 . S
C856 C852 1.368 . S
C856 C855 1.523 . S
H857 C832 0.950 . S
H858 C834 0.950 . S
H859 C835 0.949 . S
H860 C837 0.950 . S
H861 C839 0.950 . S
C862 C863 1.349 . S
C862 C864 1.327 . S
C862 H887 0.950 . S
C863 C862 1.349 . S
C863 C879 1.349 . S
C864 C862 1.327 . S
C864 C883 1.429 . S
C864 H888 0.950 . S
C865 C882 1.574 . S
C865 C884 1.368 . S
C865 H889 0.949 . S
H866 C870 0.949 . S
C867 C868 1.349 . S
C867 C869 1.327 . S
C867 H890 0.950 . S
C868 C867 1.349 . S
C868 C880 1.349 . S
C869 C867 1.327 . S
C869 C885 1.429 . S
C869 H891 0.950 . S
C870 H866 0.949 . S
C870 C878 1.574 . S
C870 C886 1.368 . S
H871 C879 0.950 . S
H872 C877 0.950 . S
H873 C878 0.949 . S
H874 C880 0.950 . S
H875 C881 0.950 . S
H876 C882 0.949 . S
C877 H872 0.950 . S
C877 C879 1.327 . S
C877 C883 1.429 . S
C878 C870 1.574 . S
C878 H873 0.949 . S
C878 C884 1.368 . S
C879 C863 1.349 . S
C879 H871 0.950 . S
C879 C877 1.327 . S
C880 C868 1.349 . S
C880 H874 0.950 . S
C880 C881 1.327 . S
C881 H875 0.950 . S
C881 C880 1.327 . S
C881 C885 1.429 . S
C882 C865 1.574 . S
C882 H876 0.949 . S
C882 C886 1.368 . S
C883 C864 1.429 . S
C883 C877 1.429 . S
C883 C884 1.523 . S
C884 C865 1.368 . S
C884 C878 1.368 . S
C884 C883 1.523 . S
C885 C869 1.429 . S
C885 C881 1.429 . S
C885 C886 1.523 . S
C886 C870 1.368 . S
C886 C882 1.368 . S
C886 C885 1.523 . S
H887 C862 0.950 . S
H888 C864 0.950 . S
H889 C865 0.949 . S
H890 C867 0.950 . S
H891 C869 0.950 . S
C892 C893 1.349 . S
C892 C894 1.327 . S
C892 H917 0.950 . S
C893 C892 1.349 . S
C893 C909 1.349 . S
C894 C892 1.327 . S
C894 C913 1.429 . S
C894 H918 0.950 . S
C895 C912 1.574 . S
C895 C914 1.368 . S
C895 H919 0.949 . S
H896 C900 0.949 . S
C897 C898 1.349 . S
C897 C899 1.327 . S
C897 H920 0.950 . S
C898 C897 1.349 . S
C898 C910 1.349 . S
C899 C897 1.327 . S
C899 C915 1.429 . S
C899 H921 0.950 . S
C900 H896 0.949 . S
C900 C908 1.574 . S
C900 C916 1.368 . S
H901 C909 0.950 . S
H902 C907 0.950 . S
H903 C908 0.949 . S
H904 C910 0.950 . S
H905 C911 0.950 . S
H906 C912 0.949 . S
C907 H902 0.950 . S
C907 C909 1.327 . S
C907 C913 1.429 . S
C908 C900 1.574 . S
C908 H903 0.949 . S
C908 C914 1.368 . S
C909 C893 1.349 . S
C909 H901 0.950 . S
C909 C907 1.327 . S
C910 C898 1.349 . S
C910 H904 0.950 . S
C910 C911 1.327 . S
C911 H905 0.950 . S
C911 C910 1.327 . S
C911 C915 1.429 . S
C912 C895 1.574 . S
C912 H906 0.949 . S
C912 C916 1.368 . S
C913 C894 1.429 . S
C913 C907 1.429 . S
C913 C914 1.523 . S
C914 C895 1.368 . S
C914 C908 1.368 . S
C914 C913 1.523 . S
C915 C899 1.429 . S
C915 C911 1.429 . S
C915 C916 1.523 . S
C916 C900 1.368 . S
C916 C912 1.368 . S
C916 C915 1.523 . S
H917 C892 0.950 . S
H918 C894 0.950 . S
H919 C895 0.949 . S
H920 C897 0.950 . S
H921 C899 0.950 . S
C922 C923 1.349 . S
C922 C924 1.327 . S
C922 H947 0.950 . S
C923 C922 1.349 . S
C923 C939 1.349 . S
C924 C922 1.327 . S
C924 C943 1.429 . S
C924 H948 0.950 . S
C925 C942 1.574 . S
C925 C944 1.368 . S
C925 H949 0.949 . S
H926 C930 0.949 . S
C927 C928 1.349 . S
C927 C929 1.327 . S
C927 H950 0.950 . S
C928 C927 1.349 . S
C928 C940 1.349 . S
C929 C927 1.327 . S
C929 C945 1.429 . S
C929 H951 0.950 . S
C930 H926 0.949 . S
C930 C938 1.574 . S
C930 C946 1.368 . S
H931 C939 0.950 . S
H932 C937 0.950 . S
H933 C938 0.949 . S
H934 C940 0.950 . S
H935 C941 0.950 . S
H936 C942 0.949 . S
C937 H932 0.950 . S
C937 C939 1.327 . S
C937 C943 1.429 . S
C938 C930 1.574 . S
C938 H933 0.949 . S
C938 C944 1.368 . S
C939 C923 1.349 . S
C939 H931 0.950 . S
C939 C937 1.327 . S
C940 C928 1.349 . S
C940 H934 0.950 . S
C940 C941 1.327 . S
C941 H935 0.950 . S
C941 C940 1.327 . S
C941 C945 1.429 . S
C942 C925 1.574 . S
C942 H936 0.949 . S
C942 C946 1.368 . S
C943 C924 1.429 . S
C943 C937 1.429 . S
C943 C944 1.523 . S
C944 C925 1.368 . S
C944 C938 1.368 . S
C944 C943 1.523 . S
C945 C929 1.429 . S
C945 C941 1.429 . S
C945 C946 1.523 . S
C946 C930 1.368 . S
C946 C942 1.368 . S
C946 C945 1.523 . S
H947 C922 0.950 . S
H948 C924 0.950 . S
H949 C925 0.949 . S
H950 C927 0.950 . S
H951 C929 0.950 . S
C952 C953 1.349 . S
C952 C954 1.327 . S
C952 H977 0.950 . S
C953 C952 1.349 . S
C953 C969 1.349 . S
C954 C952 1.327 . S
C954 C973 1.429 . S
C954 H978 0.950 . S
C955 C972 1.574 . S
C955 C974 1.368 . S
C955 H979 0.949 . S
H956 C960 0.949 . S
C957 C958 1.349 . S
C957 C959 1.327 . S
C957 H980 0.950 . S
C958 C957 1.349 . S
C958 C970 1.349 . S
C959 C957 1.327 . S
C959 C975 1.429 . S
C959 H981 0.950 . S
C960 H956 0.949 . S
C960 C968 1.574 . S
C960 C976 1.368 . S
H961 C969 0.950 . S
H962 C967 0.950 . S
H963 C968 0.949 . S
H964 C970 0.950 . S
H965 C971 0.950 . S
H966 C972 0.949 . S
C967 H962 0.950 . S
C967 C969 1.327 . S
C967 C973 1.429 . S
C968 C960 1.574 . S
C968 H963 0.949 . S
C968 C974 1.368 . S
C969 C953 1.349 . S
C969 H961 0.950 . S
C969 C967 1.327 . S
C970 C958 1.349 . S
C970 H964 0.950 . S
C970 C971 1.327 . S
C971 H965 0.950 . S
C971 C970 1.327 . S
C971 C975 1.429 . S
C972 C955 1.574 . S
C972 H966 0.949 . S
C972 C976 1.368 . S
C973 C954 1.429 . S
C973 C967 1.429 . S
C973 C974 1.523 . S
C974 C955 1.368 . S
C974 C968 1.368 . S
C974 C973 1.523 . S
C975 C959 1.429 . S
C975 C971 1.429 . S
C975 C976 1.523 . S
C976 C960 1.368 . S
C976 C972 1.368 . S
C976 C975 1.523 . S
H977 C952 0.950 . S
H978 C954 0.950 . S
H979 C955 0.949 . S
H980 C957 0.950 . S
H981 C959 0.950 . S
C982 C983 1.349 . S
C982 C984 1.327 . S
C982 H1007 0.950 . S
C983 C982 1.349 . S
C983 C999 1.349 . S
C984 C982 1.327 . S
C984 C1003 1.429 . S
C984 H1008 0.950 . S
C985 C1002 1.574 . S
C985 C1004 1.368 . S
C985 H1009 0.949 . S
H986 C990 0.949 . S
C987 C988 1.349 . S
C987 C989 1.327 . S
C987 H1010 0.950 . S
C988 C987 1.349 . S
C988 C1000 1.349 . S
C989 C987 1.327 . S
C989 C1005 1.429 . S
C989 H1011 0.950 . S
C990 H986 0.949 . S
C990 C998 1.574 . S
C990 C1006 1.368 . S
H991 C999 0.950 . S
H992 C997 0.950 . S
H993 C998 0.949 . S
H994 C1000 0.950 . S
H995 C1001 0.950 . S
H996 C1002 0.949 . S
C997 H992 0.950 . S
C997 C999 1.327 . S
C997 C1003 1.429 . S
C998 C990 1.574 . S
C998 H993 0.949 . S
C998 C1004 1.368 . S
C999 C983 1.349 . S
C999 H991 0.950 . S
C999 C997 1.327 . S
C1000 C988 1.349 . S
C1000 H994 0.950 . S
C1000 C1001 1.327 . S
C1001 H995 0.950 . S
C1001 C1000 1.327 . S
C1001 C1005 1.429 . S
C1002 C985 1.574 . S
C1002 H996 0.949 . S
C1002 C1006 1.368 . S
C1003 C984 1.429 . S
C1003 C997 1.429 . S
C1003 C1004 1.523 . S
C1004 C985 1.368 . S
C1004 C998 1.368 . S
C1004 C1003 1.523 . S
C1005 C989 1.429 . S
C1005 C1001 1.429 . S
C1005 C1006 1.523 . S
C1006 C990 1.368 . S
C1006 C1002 1.368 . S
C1006 C1005 1.523 . S
H1007 C982 0.950 . S
H1008 C984 0.950 . S
H1009 C985 0.949 . S
H1010 C987 0.950 . S
H1011 C989 0.950 . S
C1012 C1013 1.349 . S
C1012 C1014 1.327 . S
C1012 H1037 0.950 . S
C1013 C1012 1.349 . S
C1013 C1029 1.349 . S
C1014 C1012 1.327 . S
C1014 C1033 1.429 . S
C1014 H1038 0.950 . S
C1015 C1032 1.574 . S
C1015 C1034 1.368 . S
C1015 H1039 0.949 . S
H1016 C1020 0.949 . S
C1017 C1018 1.349 . S
C1017 C1019 1.327 . S
C1017 H1040 0.950 1_554 S
C1018 C1017 1.349 . S
C1018 C1030 1.349 . S
C1019 C1017 1.327 . S
C1019 C1035 1.429 . S
C1019 H1041 0.950 . S
C1020 H1016 0.949 . S
C1020 C1028 1.574 . S
C1020 C1036 1.368 . S
H1021 C1029 0.950 . S
H1022 C1027 0.950 . S
H1023 C1028 0.949 . S
H1024 C1030 0.950 . S
H1025 C1031 0.950 . S
H1026 C1032 0.949 . S
C1027 H1022 0.950 . S
C1027 C1029 1.327 . S
C1027 C1033 1.429 . S
C1028 C1020 1.574 . S
C1028 H1023 0.949 . S
C1028 C1034 1.368 . S
C1029 C1013 1.349 . S
C1029 H1021 0.950 . S
C1029 C1027 1.327 . S
C1030 C1018 1.349 . S
C1030 H1024 0.950 . S
C1030 C1031 1.327 . S
C1031 H1025 0.950 . S
C1031 C1030 1.327 . S
C1031 C1035 1.429 . S
C1032 C1015 1.574 . S
C1032 H1026 0.949 . S
C1032 C1036 1.368 . S
C1033 C1014 1.429 . S
C1033 C1027 1.429 . S
C1033 C1034 1.523 . S
C1034 C1015 1.368 . S
C1034 C1028 1.368 . S
C1034 C1033 1.523 . S
C1035 C1019 1.429 . S
C1035 C1031 1.429 . S
C1035 C1036 1.523 . S
C1036 C1020 1.368 . S
C1036 C1032 1.368 . S
C1036 C1035 1.523 . S
H1037 C1012 0.950 . S
H1038 C1014 0.950 . S
H1039 C1015 0.949 . S
H1040 C1017 0.950 1_556 S
H1041 C1019 0.950 . S
C1042 C1043 1.349 . S
C1042 C1044 1.327 . S
C1042 H1067 0.950 . S
C1043 C1042 1.349 . S
C1043 C1059 1.349 . S
C1044 C1042 1.327 . S
C1044 C1063 1.429 . S
C1044 H1068 0.950 . S
C1045 C1062 1.574 . S
C1045 C1064 1.368 . S
C1045 H1069 0.949 . S
H1046 C1050 0.949 . S
C1047 C1048 1.349 . S
C1047 C1049 1.327 . S
C1047 H1070 0.950 . S
C1048 C1047 1.349 . S
C1048 C1060 1.349 . S
C1049 C1047 1.327 . S
C1049 C1065 1.429 . S
C1049 H1071 0.950 . S
C1050 H1046 0.949 . S
C1050 C1058 1.574 . S
C1050 C1066 1.368 . S
H1051 C1059 0.950 . S
H1052 C1057 0.950 . S
H1053 C1058 0.949 . S
H1054 C1060 0.950 . S
H1055 C1061 0.950 . S
H1056 C1062 0.949 . S
C1057 H1052 0.950 . S
C1057 C1059 1.327 . S
C1057 C1063 1.429 . S
C1058 C1050 1.574 . S
C1058 H1053 0.949 . S
C1058 C1064 1.368 . S
C1059 C1043 1.349 . S
C1059 H1051 0.950 . S
C1059 C1057 1.327 . S
C1060 C1048 1.349 . S
C1060 H1054 0.950 . S
C1060 C1061 1.327 . S
C1061 H1055 0.950 . S
C1061 C1060 1.327 . S
C1061 C1065 1.429 . S
C1062 C1045 1.574 . S
C1062 H1056 0.949 . S
C1062 C1066 1.368 . S
C1063 C1044 1.429 . S
C1063 C1057 1.429 . S
C1063 C1064 1.523 . S
C1064 C1045 1.368 . S
C1064 C1058 1.368 . S
C1064 C1063 1.523 . S
C1065 C1049 1.429 . S
C1065 C1061 1.429 . S
C1065 C1066 1.523 . S
C1066 C1050 1.368 . S
C1066 C1062 1.368 . S
C1066 C1065 1.523 . S
H1067 C1042 0.950 . S
H1068 C1044 0.950 . S
H1069 C1045 0.949 . S
H1070 C1047 0.950 . S
H1071 C1049 0.950 . S
C1072 C1073 1.349 . S
C1072 C1074 1.327 . S
C1072 H1097 0.950 . S
C1073 C1072 1.349 . S
C1073 C1089 1.349 . S
C1074 C1072 1.327 . S
C1074 C1093 1.429 . S
C1074 H1098 0.950 . S
C1075 C1092 1.574 . S
C1075 C1094 1.368 . S
C1075 H1099 0.949 . S
H1076 C1080 0.949 . S
C1077 C1078 1.349 . S
C1077 C1079 1.327 . S
C1077 H1100 0.950 . S
C1078 C1077 1.349 . S
C1078 C1090 1.349 . S
C1079 C1077 1.327 . S
C1079 C1095 1.429 . S
C1079 H1101 0.950 . S
C1080 H1076 0.949 . S
C1080 C1088 1.574 . S
C1080 C1096 1.368 . S
H1081 C1089 0.950 . S
H1082 C1087 0.950 . S
H1083 C1088 0.949 . S
H1084 C1090 0.950 . S
H1085 C1091 0.950 . S
H1086 C1092 0.949 . S
C1087 H1082 0.950 . S
C1087 C1089 1.327 . S
C1087 C1093 1.429 . S
C1088 C1080 1.574 . S
C1088 H1083 0.949 . S
C1088 C1094 1.368 . S
C1089 C1073 1.349 . S
C1089 H1081 0.950 . S
C1089 C1087 1.327 . S
C1090 C1078 1.349 . S
C1090 H1084 0.950 . S
C1090 C1091 1.327 . S
C1091 H1085 0.950 . S
C1091 C1090 1.327 . S
C1091 C1095 1.429 . S
C1092 C1075 1.574 . S
C1092 H1086 0.949 . S
C1092 C1096 1.368 . S
C1093 C1074 1.429 . S
C1093 C1087 1.429 . S
C1093 C1094 1.523 . S
C1094 C1075 1.368 . S
C1094 C1088 1.368 . S
C1094 C1093 1.523 . S
C1095 C1079 1.429 . S
C1095 C1091 1.429 . S
C1095 C1096 1.523 . S
C1096 C1080 1.368 . S
C1096 C1092 1.368 . S
C1096 C1095 1.523 . S
H1097 C1072 0.950 . S
H1098 C1074 0.950 . S
H1099 C1075 0.949 . S
H1100 C1077 0.950 . S
H1101 C1079 0.950 . S
C1102 C1103 1.349 . S
C1102 C1104 1.327 . S
C1102 H1127 0.950 . S
C1103 C1102 1.349 . S
C1103 C1119 1.349 . S
C1104 C1102 1.327 . S
C1104 C1123 1.429 . S
C1104 H1128 0.950 . S
C1105 C1122 1.574 . S
C1105 C1124 1.368 . S
C1105 H1129 0.949 . S
H1106 C1110 0.949 . S
C1107 C1108 1.349 . S
C1107 C1109 1.327 . S
C1107 H1130 0.950 . S
C1108 C1107 1.349 . S
C1108 C1120 1.349 . S
C1109 C1107 1.327 . S
C1109 C1125 1.429 . S
C1109 H1131 0.950 . S
C1110 H1106 0.949 . S
C1110 C1118 1.574 . S
C1110 C1126 1.368 . S
H1111 C1119 0.950 . S
H1112 C1117 0.950 . S
H1113 C1118 0.949 . S
H1114 C1120 0.950 . S
H1115 C1121 0.950 . S
H1116 C1122 0.949 . S
C1117 H1112 0.950 . S
C1117 C1119 1.327 . S
C1117 C1123 1.429 . S
C1118 C1110 1.574 . S
C1118 H1113 0.949 . S
C1118 C1124 1.368 . S
C1119 C1103 1.349 . S
C1119 H1111 0.950 . S
C1119 C1117 1.327 . S
C1120 C1108 1.349 . S
C1120 H1114 0.950 . S
C1120 C1121 1.327 . S
C1121 H1115 0.950 . S
C1121 C1120 1.327 . S
C1121 C1125 1.429 . S
C1122 C1105 1.574 . S
C1122 H1116 0.949 . S
C1122 C1126 1.368 . S
C1123 C1104 1.429 . S
C1123 C1117 1.429 . S
C1123 C1124 1.523 . S
C1124 C1105 1.368 . S
C1124 C1118 1.368 . S
C1124 C1123 1.523 . S
C1125 C1109 1.429 . S
C1125 C1121 1.429 . S
C1125 C1126 1.523 . S
C1126 C1110 1.368 . S
C1126 C1122 1.368 . S
C1126 C1125 1.523 . S
H1127 C1102 0.950 . S
H1128 C1104 0.950 . S
H1129 C1105 0.949 . S
H1130 C1107 0.950 . S
H1131 C1109 0.950 . S
C1132 C1133 1.349 . S
C1132 C1134 1.327 . S
C1132 H1157 0.950 . S
C1133 C1132 1.349 . S
C1133 C1149 1.349 . S
C1134 C1132 1.327 . S
C1134 C1153 1.429 . S
C1134 H1158 0.950 . S
C1135 C1152 1.574 . S
C1135 C1154 1.368 . S
C1135 H1159 0.949 . S
H1136 C1140 0.949 . S
C1137 C1138 1.349 . S
C1137 C1139 1.327 . S
C1137 H1160 0.950 . S
C1138 C1137 1.349 . S
C1138 C1150 1.349 . S
C1139 C1137 1.327 . S
C1139 C1155 1.429 . S
C1139 H1161 0.950 . S
C1140 H1136 0.949 . S
C1140 C1148 1.574 . S
C1140 C1156 1.368 . S
H1141 C1149 0.950 . S
H1142 C1147 0.950 . S
H1143 C1148 0.949 . S
H1144 C1150 0.950 . S
H1145 C1151 0.950 . S
H1146 C1152 0.949 . S
C1147 H1142 0.950 . S
C1147 C1149 1.327 . S
C1147 C1153 1.429 . S
C1148 C1140 1.574 . S
C1148 H1143 0.949 . S
C1148 C1154 1.368 . S
C1149 C1133 1.349 . S
C1149 H1141 0.950 . S
C1149 C1147 1.327 . S
C1150 C1138 1.349 . S
C1150 H1144 0.950 . S
C1150 C1151 1.327 . S
C1151 H1145 0.950 . S
C1151 C1150 1.327 . S
C1151 C1155 1.429 . S
C1152 C1135 1.574 . S
C1152 H1146 0.949 . S
C1152 C1156 1.368 . S
C1153 C1134 1.429 . S
C1153 C1147 1.429 . S
C1153 C1154 1.523 . S
C1154 C1135 1.368 . S
C1154 C1148 1.368 . S
C1154 C1153 1.523 . S
C1155 C1139 1.429 . S
C1155 C1151 1.429 . S
C1155 C1156 1.523 . S
C1156 C1140 1.368 . S
C1156 C1152 1.368 . S
C1156 C1155 1.523 . S
H1157 C1132 0.950 . S
H1158 C1134 0.950 . S
H1159 C1135 0.949 . S
H1160 C1137 0.950 . S
H1161 C1139 0.950 . S
C1162 C1163 1.349 . S
C1162 C1164 1.327 . S
C1162 H1187 0.950 . S
C1163 C1162 1.349 . S
C1163 C1179 1.349 . S
C1164 C1162 1.327 . S
C1164 C1183 1.429 . S
C1164 H1188 0.950 . S
C1165 C1182 1.574 . S
C1165 C1184 1.368 . S
C1165 H1189 0.949 . S
H1166 C1170 0.949 . S
C1167 C1168 1.349 . S
C1167 C1169 1.327 . S
C1167 H1190 0.950 . S
C1168 C1167 1.349 . S
C1168 C1180 1.349 . S
C1169 C1167 1.327 . S
C1169 C1185 1.429 . S
C1169 H1191 0.950 . S
C1170 H1166 0.949 . S
C1170 C1178 1.574 . S
C1170 C1186 1.368 . S
H1171 C1179 0.950 . S
H1172 C1177 0.950 . S
H1173 C1178 0.949 . S
H1174 C1180 0.950 . S
H1175 C1181 0.950 . S
H1176 C1182 0.949 . S
C1177 H1172 0.950 . S
C1177 C1179 1.327 . S
C1177 C1183 1.429 . S
C1178 C1170 1.574 . S
C1178 H1173 0.949 . S
C1178 C1184 1.368 . S
C1179 C1163 1.349 . S
C1179 H1171 0.950 . S
C1179 C1177 1.327 . S
C1180 C1168 1.349 . S
C1180 H1174 0.950 . S
C1180 C1181 1.327 . S
C1181 H1175 0.950 . S
C1181 C1180 1.327 . S
C1181 C1185 1.429 . S
C1182 C1165 1.574 . S
C1182 H1176 0.949 . S
C1182 C1186 1.368 . S
C1183 C1164 1.429 . S
C1183 C1177 1.429 . S
C1183 C1184 1.523 . S
C1184 C1165 1.368 . S
C1184 C1178 1.368 . S
C1184 C1183 1.523 . S
C1185 C1169 1.429 . S
C1185 C1181 1.429 . S
C1185 C1186 1.523 . S
C1186 C1170 1.368 . S
C1186 C1182 1.368 . S
C1186 C1185 1.523 . S
H1187 C1162 0.950 . S
H1188 C1164 0.950 . S
H1189 C1165 0.949 . S
H1190 C1167 0.950 . S
H1191 C1169 0.950 . S
C473 C1 0.855 . S
C478 C316 0.860 . S
C503 C40 1.219 . S
C508 C377 1.246 . S
C538 C415 2.494 . S
C533 C99 2.559 . S
C563 C118 2.272 . S
C568 C455 2.225 . S
C598 C375 1.242 . S
C593 C16 1.241 . S
C628 C343 2.144 . S
C623 C60 2.086 . S
C658 C452 1.687 . S
C653 C79 1.697 . S
C688 C412 1.767 . S
C683 C138 1.777 . S
C713 C21 0.977 . S
C718 C457 0.987 . S
C748 C372 2.411 . S
C743 C94 2.409 . S
C773 C133 2.115 . S
C778 C314 2.081 . S
C803 C55 1.486 . S
C808 C417 1.528 . S
C838 C337 0.864 . S
C833 C157 0.860 . S
C863 C196 1.215 . S
C868 C356 1.247 . S
C893 C255 2.552 . S
C898 C394 2.492 . S
C923 C289 2.269 . S
C928 C434 2.220 . S
C953 C172 1.237 . S
C958 C354 1.240 . S
C988 C332 2.145 . S
C983 C216 2.068 . S
C1018 C463 1.688 . S
C1013 C235 1.697 . S
C1048 C423 1.765 . S
C1043 C294 1.776 . S
C1073 C177 0.980 . S
C1078 C436 0.985 . S
C1108 C383 2.413 . S
C1103 C250 2.412 . S
C1138 C335 2.086 . S
C1133 C274 2.118 . S
C1163 C211 1.489 . S
C1168 C396 1.526 . S
