# Generated by pormake.
# Topology ctn, (3,4)-cn, num edge types: 1
# Building blocks:
#     Node 0, Type 0, BuildingBlock: MIDCAF_clean_linker_0, # of connection points: 3
#     Node 1, Type 0, BuildingBlock: MIDCAF_clean_linker_0, # of connection points: 3
#     Node 2, Type 0, BuildingBlock: MIDCAF_clean_linker_0, # of connection points: 3
#     Node 3, Type 0, BuildingBlock: MIDCAF_clean_linker_0, # of connection points: 3
#     Node 4, Type 0, BuildingBlock: MIDCAF_clean_linker_0, # of connection points: 3
#     Node 5, Type 0, BuildingBlock: MIDCAF_clean_linker_0, # of connection points: 3
#     Node 6, Type 0, BuildingBlock: MIDCAF_clean_linker_0, # of connection points: 3
#     Node 7, Type 0, BuildingBlock: MIDCAF_clean_linker_0, # of connection points: 3
#     Node 8, Type 0, BuildingBlock: MIDCAF_clean_linker_0, # of connection points: 3
#     Node 9, Type 0, BuildingBlock: MIDCAF_clean_linker_0, # of connection points: 3
#     Node 10, Type 0, BuildingBlock: MIDCAF_clean_linker_0, # of connection points: 3
#     Node 11, Type 0, BuildingBlock: MIDCAF_clean_linker_0, # of connection points: 3
#     Node 12, Type 0, BuildingBlock: MIDCAF_clean_linker_0, # of connection points: 3
#     Node 13, Type 0, BuildingBlock: MIDCAF_clean_linker_0, # of connection points: 3
#     Node 14, Type 0, BuildingBlock: MIDCAF_clean_linker_0, # of connection points: 3
#     Node 15, Type 0, BuildingBlock: MIDCAF_clean_linker_0, # of connection points: 3
#     Node 16, Type 1, BuildingBlock: NAHDIM_clean_sbu_0, # of connection points: 4
#     Node 17, Type 1, BuildingBlock: NAHDIM_clean_sbu_0, # of connection points: 4
#     Node 18, Type 1, BuildingBlock: NAHDIM_clean_sbu_0, # of connection points: 4
#     Node 19, Type 1, BuildingBlock: NAHDIM_clean_sbu_0, # of connection points: 4
#     Node 20, Type 1, BuildingBlock: NAHDIM_clean_sbu_0, # of connection points: 4
#     Node 21, Type 1, BuildingBlock: NAHDIM_clean_sbu_0, # of connection points: 4
#     Node 22, Type 1, BuildingBlock: NAHDIM_clean_sbu_0, # of connection points: 4
#     Node 23, Type 1, BuildingBlock: NAHDIM_clean_sbu_0, # of connection points: 4
#     Node 24, Type 1, BuildingBlock: NAHDIM_clean_sbu_0, # of connection points: 4
#     Node 25, Type 1, BuildingBlock: NAHDIM_clean_sbu_0, # of connection points: 4
#     Node 26, Type 1, BuildingBlock: NAHDIM_clean_sbu_0, # of connection points: 4
#     Node 27, Type 1, BuildingBlock: NAHDIM_clean_sbu_0, # of connection points: 4
#     Edge 28, Type (0, 1), BuildingBlock: AJUNOK_clean_linker_0, # of connection points: 2
#     Edge 29, Type (0, 1), BuildingBlock: AJUNOK_clean_linker_0, # of connection points: 2
#     Edge 30, Type (0, 1), BuildingBlock: AJUNOK_clean_linker_0, # of connection points: 2
#     Edge 31, Type (0, 1), BuildingBlock: AJUNOK_clean_linker_0, # of connection points: 2
#     Edge 32, Type (0, 1), BuildingBlock: AJUNOK_clean_linker_0, # of connection points: 2
#     Edge 33, Type (0, 1), BuildingBlock: AJUNOK_clean_linker_0, # of connection points: 2
#     Edge 34, Type (0, 1), BuildingBlock: AJUNOK_clean_linker_0, # of connection points: 2
#     Edge 35, Type (0, 1), BuildingBlock: AJUNOK_clean_linker_0, # of connection points: 2
#     Edge 36, Type (0, 1), BuildingBlock: AJUNOK_clean_linker_0, # of connection points: 2
#     Edge 37, Type (0, 1), BuildingBlock: AJUNOK_clean_linker_0, # of connection points: 2
#     Edge 38, Type (0, 1), BuildingBlock: AJUNOK_clean_linker_0, # of connection points: 2
#     Edge 39, Type (0, 1), BuildingBlock: AJUNOK_clean_linker_0, # of connection points: 2
#     Edge 40, Type (0, 1), BuildingBlock: AJUNOK_clean_linker_0, # of connection points: 2
#     Edge 41, Type (0, 1), BuildingBlock: AJUNOK_clean_linker_0, # of connection points: 2
#     Edge 42, Type (0, 1), BuildingBlock: AJUNOK_clean_linker_0, # of connection points: 2
#     Edge 43, Type (0, 1), BuildingBlock: AJUNOK_clean_linker_0, # of connection points: 2
#     Edge 44, Type (0, 1), BuildingBlock: AJUNOK_clean_linker_0, # of connection points: 2
#     Edge 45, Type (0, 1), BuildingBlock: AJUNOK_clean_linker_0, # of connection points: 2
#     Edge 46, Type (0, 1), BuildingBlock: AJUNOK_clean_linker_0, # of connection points: 2
#     Edge 47, Type (0, 1), BuildingBlock: AJUNOK_clean_linker_0, # of connection points: 2
#     Edge 48, Type (0, 1), BuildingBlock: AJUNOK_clean_linker_0, # of connection points: 2
#     Edge 49, Type (0, 1), BuildingBlock: AJUNOK_clean_linker_0, # of connection points: 2
#     Edge 50, Type (0, 1), BuildingBlock: AJUNOK_clean_linker_0, # of connection points: 2
#     Edge 51, Type (0, 1), BuildingBlock: AJUNOK_clean_linker_0, # of connection points: 2
#     Edge 52, Type (0, 1), BuildingBlock: AJUNOK_clean_linker_0, # of connection points: 2
#     Edge 53, Type (0, 1), BuildingBlock: AJUNOK_clean_linker_0, # of connection points: 2
#     Edge 54, Type (0, 1), BuildingBlock: AJUNOK_clean_linker_0, # of connection points: 2
#     Edge 55, Type (0, 1), BuildingBlock: AJUNOK_clean_linker_0, # of connection points: 2
#     Edge 56, Type (0, 1), BuildingBlock: AJUNOK_clean_linker_0, # of connection points: 2
#     Edge 57, Type (0, 1), BuildingBlock: AJUNOK_clean_linker_0, # of connection points: 2
#     Edge 58, Type (0, 1), BuildingBlock: AJUNOK_clean_linker_0, # of connection points: 2
#     Edge 59, Type (0, 1), BuildingBlock: AJUNOK_clean_linker_0, # of connection points: 2
#     Edge 60, Type (0, 1), BuildingBlock: AJUNOK_clean_linker_0, # of connection points: 2
#     Edge 61, Type (0, 1), BuildingBlock: AJUNOK_clean_linker_0, # of connection points: 2
#     Edge 62, Type (0, 1), BuildingBlock: AJUNOK_clean_linker_0, # of connection points: 2
#     Edge 63, Type (0, 1), BuildingBlock: AJUNOK_clean_linker_0, # of connection points: 2
#     Edge 64, Type (0, 1), BuildingBlock: AJUNOK_clean_linker_0, # of connection points: 2
#     Edge 65, Type (0, 1), BuildingBlock: AJUNOK_clean_linker_0, # of connection points: 2
#     Edge 66, Type (0, 1), BuildingBlock: AJUNOK_clean_linker_0, # of connection points: 2
#     Edge 67, Type (0, 1), BuildingBlock: AJUNOK_clean_linker_0, # of connection points: 2
#     Edge 68, Type (0, 1), BuildingBlock: AJUNOK_clean_linker_0, # of connection points: 2
#     Edge 69, Type (0, 1), BuildingBlock: AJUNOK_clean_linker_0, # of connection points: 2
#     Edge 70, Type (0, 1), BuildingBlock: AJUNOK_clean_linker_0, # of connection points: 2
#     Edge 71, Type (0, 1), BuildingBlock: AJUNOK_clean_linker_0, # of connection points: 2
#     Edge 72, Type (0, 1), BuildingBlock: AJUNOK_clean_linker_0, # of connection points: 2
#     Edge 73, Type (0, 1), BuildingBlock: AJUNOK_clean_linker_0, # of connection points: 2
#     Edge 74, Type (0, 1), BuildingBlock: AJUNOK_clean_linker_0, # of connection points: 2
#     Edge 75, Type (0, 1), BuildingBlock: AJUNOK_clean_linker_0, # of connection points: 2
# Relax obj value: 0.002
# Max RMSD: 0.033
# Mean RMSD: 0.017
data_MOF--net-ctn--node1-NAHDIM_clean_sbu_0--node2-MIDCAF_clean_linker_0--edge1-AJUNOK_clean_linker_0
_symmetry_space_group_name_H-M    P1
_symmetry_Int_Tables_number       1
_symmetry_cell_setting            triclinic
loop_
_symmetry_equiv_pos_as_xyz
'x, y, z'
_cell_length_a     52.474726
_cell_length_b     52.787159
_cell_length_c     52.245755
_cell_angle_alpha  91.322451
_cell_angle_beta   90.014943
_cell_angle_gamma 92.397897
loop_
_atom_site_label
_atom_site_type_symbol
_atom_site_fract_x
_atom_site_fract_y
_atom_site_fract_z
_atom_type_partial_charge
C0 C 0.9684 0.04473 0.10556 0.0
C1 C 0.97703 0.03203 0.12705 0.0
C2 C 0.00169 0.0226 0.12667 0.0
C3 C 0.01752 0.02612 0.10543 0.0
H4 H 0.0834 0.00096 0.07136 0.0
H5 H 0.12103 0.97599 0.06486 0.0
H6 H 0.13136 0.0073 0.98978 0.0
H7 H 0.09423 0.03281 0.9964 0.0
H8 H 0.06874 0.08773 0.989 0.0
H9 H 0.06105 0.12344 0.96174 0.0
H10 H 0.98542 0.12869 0.99344 0.0
H11 H 0.99326 0.09345 0.02131 0.0
H12 H 0.97711 0.05851 0.06827 0.0
H13 H 0.94925 0.05156 0.10494 0.0
H14 H 0.00889 0.0128 0.14298 0.0
H15 H 0.03651 0.01886 0.10589 0.0
N16 N 0.0472 0.03006 0.05854 0.0
N17 N 0.05772 0.05288 0.02176 0.0
N18 N 0.02105 0.06219 0.04515 0.0
C19 C 0.06301 0.03435 0.03835 0.0
C20 C 0.0368 0.06691 0.02504 0.0
C21 C 0.02613 0.04385 0.062 0.0
C22 C 0.08582 0.01904 0.03446 0.0
C23 C 0.09371 0.00263 0.05348 0.0
C24 C 0.11524 0.98826 0.04976 0.0
C25 C 0.12932 0.98993 0.02695 0.0
C26 C 0.12128 0.00609 0.00783 0.0
C27 C 0.09987 0.02059 0.01159 0.0
C28 C 0.03163 0.08769 0.00741 0.0
C29 C 0.05037 0.09632 0.99005 0.0
C30 C 0.04592 0.1167 0.97428 0.0
C31 C 0.02253 0.1287 0.97527 0.0
C32 C 0.00368 0.11989 0.99236 0.0
C33 C 0.00818 0.09964 0.00828 0.0
C34 C 0.0091 0.03934 0.08418 0.0
C35 C 0.98433 0.04854 0.08445 0.0
C36 C 0.24759 0.63005 0.24323 0.0
C37 C 0.2285 0.62417 0.22496 0.0
C38 C 0.22573 0.64028 0.20424 0.0
C39 C 0.24161 0.66201 0.20193 0.0
H40 H 0.24666 0.73211 0.16662 0.0
H41 H 0.24019 0.76068 0.13128 0.0
H42 H 0.31674 0.79239 0.14121 0.0
H43 H 0.32336 0.76404 0.17674 0.0
H44 H 0.34339 0.76007 0.23704 0.0
H45 H 0.37777 0.76905 0.26774 0.0
H46 H 0.36505 0.69487 0.2995 0.0
H47 H 0.33061 0.68561 0.26877 0.0
H48 H 0.27812 0.65564 0.25532 0.0
H49 H 0.2504 0.61768 0.25916 0.0
H50 H 0.21112 0.63615 0.18991 0.0
H51 H 0.23889 0.67403 0.18571 0.0
N52 N 0.27403 0.7073 0.1984 0.0
N53 N 0.30909 0.73284 0.21255 0.0
N54 N 0.29731 0.69583 0.23433 0.0
C55 C 0.28963 0.72825 0.19571 0.0
C56 C 0.31303 0.71676 0.23196 0.0
C57 C 0.27776 0.69095 0.21762 0.0
C58 C 0.28553 0.7458 0.17453 0.0
C59 C 0.26212 0.74519 0.16136 0.0
C60 C 0.25832 0.76162 0.14125 0.0
C61 C 0.27793 0.77874 0.13375 0.0
C62 C 0.30135 0.77933 0.14675 0.0
C63 C 0.30506 0.76316 0.1671 0.0
C64 C 0.33412 0.72213 0.25045 0.0
C65 C 0.34784 0.74561 0.25052 0.0
C66 C 0.36743 0.75086 0.2682 0.0
C67 C 0.3738 0.73274 0.2861 0.0
C68 C 0.36042 0.70915 0.28587 0.0
C69 C 0.34067 0.70394 0.26832 0.0
C70 C 0.26076 0.668 0.22022 0.0
C71 C 0.26356 0.65173 0.2409 0.0
C72 C 0.00218 0.38918 0.98698 0.0
C73 C 0.98839 0.38699 0.96395 0.0
C74 C 0.96936 0.40422 0.95927 0.0
C75 C 0.96445 0.42353 0.97709 0.0
H76 H 0.91477 0.47906 0.99247 0.0
H77 H 0.8802 0.50727 0.98466 0.0
H78 H 0.90352 0.55348 0.05047 0.0
H79 H 0.93786 0.52502 0.05878 0.0
H80 H 0.98237 0.50721 0.09397 0.0
H81 H 0.00826 0.51231 0.13265 0.0
H82 H 0.04519 0.44276 0.11383 0.0
H83 H 0.01979 0.43777 0.07488 0.0
H84 H 0.00845 0.40977 0.0223 0.0
H85 H 0.01695 0.3761 0.99103 0.0
H86 H 0.9581 0.40264 0.94188 0.0
H87 H 0.94967 0.4365 0.97278 0.0
N88 N 0.95458 0.46299 0.01444 0.0
N89 N 0.96441 0.48506 0.05285 0.0
N90 N 0.98768 0.44985 0.04045 0.0
C91 C 0.94992 0.48219 0.03133 0.0
C92 C 0.98332 0.46895 0.05757 0.0
C93 C 0.97342 0.44675 0.0188 0.0
C94 C 0.92911 0.49964 0.02636 0.0
C95 C 0.9126 0.49519 0.00536 0.0
C96 C 0.89279 0.51139 0.0008 0.0
C97 C 0.889 0.53241 0.0171 0.0
C98 C 0.90565 0.5371 0.0379 0.0
C99 C 0.92543 0.52085 0.04254 0.0
C100 C 0.99901 0.47211 0.08117 0.0
C101 C 0.99604 0.493 0.09796 0.0
C102 C 0.01083 0.49593 0.12018 0.0
C103 C 0.02892 0.47808 0.1261 0.0
C104 C 0.03179 0.45712 0.10947 0.0
C105 C 0.01708 0.4542 0.08721 0.0
C106 C 0.97845 0.42601 6e-05 0.0
C107 C 0.99733 0.40853 0.00482 0.0
C108 C 0.74792 0.75613 0.12804 0.0
C109 C 0.72795 0.7405 0.11789 0.0
C110 C 0.70341 0.74203 0.12832 0.0
C111 C 0.69898 0.75865 0.14889 0.0
H112 H 0.64959 0.769 0.20899 0.0
H113 H 0.61313 0.76074 0.23693 0.0
H114 H 0.63965 0.8217 0.28794 0.0
H115 H 0.67637 0.82994 0.26029 0.0
H116 H 0.72479 0.86371 0.24514 0.0
H117 H 0.75624 0.89774 0.25567 0.0
H118 H 0.80454 0.87184 0.19446 0.0
H119 H 0.77344 0.83764 0.18394 0.0
H120 H 0.75929 0.78477 0.15584 0.0
H121 H 0.76695 0.75544 0.12008 0.0
H122 H 0.68773 0.73014 0.12072 0.0
H123 H 0.67987 0.75929 0.15662 0.0
N124 N 0.69307 0.78865 0.19564 0.0
N125 N 0.70629 0.82343 0.22179 0.0
N126 N 0.73156 0.81097 0.18711 0.0
C127 C 0.68892 0.80431 0.21608 0.0
C128 C 0.72763 0.82694 0.20736 0.0
C129 C 0.71435 0.79183 0.18108 0.0
C130 C 0.6661 0.80004 0.23243 0.0
C131 C 0.64773 0.78071 0.22612 0.0
C132 C 0.62677 0.776 0.24206 0.0
C133 C 0.62379 0.79038 0.2647 0.0
C134 C 0.64179 0.81002 0.27081 0.0
C135 C 0.66273 0.81481 0.25485 0.0
C136 C 0.74657 0.84779 0.21374 0.0
C137 C 0.74212 0.86516 0.23393 0.0
C138 C 0.76007 0.88471 0.23995 0.0
C139 C 0.78289 0.8872 0.22606 0.0
C140 C 0.7873 0.87004 0.20578 0.0
C141 C 0.76936 0.85054 0.19969 0.0
C142 C 0.71896 0.77434 0.15916 0.0
C143 C 0.74346 0.773 0.14839 0.0
C144 C 0.04834 0.89712 0.52062 0.0
C145 C 0.02581 0.88184 0.51857 0.0
C146 C 0.00698 0.88833 0.50108 0.0
C147 C 0.01044 0.90976 0.48611 0.0
H148 H 0.98198 0.94256 0.42307 0.0
H149 H 0.95021 0.95066 0.39069 0.0
H150 H 0.98469 0.02531 0.37983 0.0
H151 H 0.01702 0.01713 0.41189 0.0
H152 H 0.06855 0.03242 0.44081 0.0
H153 H 0.10415 0.06262 0.44938 0.0
H154 H 0.13476 0.01186 0.50401 0.0
H155 H 0.0994 0.98139 0.49541 0.0
H156 H 0.06934 0.93004 0.50779 0.0
H157 H 0.06342 0.89227 0.53355 0.0
H158 H 0.98938 0.87696 0.49919 0.0
H159 H 0.99538 0.91422 0.47299 0.0
N160 N 0.01883 0.95309 0.4543 0.0
N161 N 0.04151 0.99077 0.44442 0.0
N162 N 0.05631 0.96488 0.47668 0.0
C163 C 0.02133 0.97424 0.44008 0.0
C164 C 0.05913 0.9862 0.46266 0.0
C165 C 0.03618 0.94824 0.47264 0.0
C166 C 0.00206 0.97924 0.42024 0.0
C167 C 0.98284 0.96076 0.4139 0.0
C168 C 0.96448 0.96544 0.39545 0.0
C169 C 0.96474 0.98877 0.38306 0.0
C170 C 0.98405 0.00716 0.38912 0.0
C171 C 0.00253 0.00246 0.40752 0.0
C172 C 0.08097 0.00445 0.4675 0.0
C173 C 0.08283 0.0276 0.45465 0.0
C174 C 0.10312 0.04501 0.45965 0.0
C175 C 0.122 0.03966 0.47756 0.0
C176 C 0.12043 0.01642 0.4901 0.0
C177 C 0.1001 0.99903 0.48521 0.0
C178 C 0.03283 0.92527 0.4883 0.0
C179 C 0.05178 0.91867 0.50571 0.0
C180 C 0.245 0.77623 0.87149 0.0
C181 C 0.22685 0.79324 0.88011 0.0
C182 C 0.20251 0.79225 0.86896 0.0
C183 C 0.19647 0.77473 0.84924 0.0
H184 H 0.15221 0.7673 0.78478 0.0
H185 H 0.11664 0.77536 0.75682 0.0
H186 H 0.12383 0.70198 0.71996 0.0
H187 H 0.16009 0.69396 0.74758 0.0
H188 H 0.20733 0.66076 0.76334 0.0
H189 H 0.23333 0.62385 0.75695 0.0
H190 H 0.28692 0.65405 0.8136 0.0
H191 H 0.26126 0.69108 0.81998 0.0
H192 H 0.25326 0.74555 0.84572 0.0
H193 H 0.26382 0.77652 0.88005 0.0
H194 H 0.18823 0.80521 0.87536 0.0
H195 H 0.17753 0.77451 0.84097 0.0
N196 N 0.18752 0.74232 0.80449 0.0
N197 N 0.19568 0.70495 0.78136 0.0
N198 N 0.22241 0.71854 0.81546 0.0
C199 C 0.18123 0.72549 0.78525 0.0
C200 C 0.21633 0.70135 0.79641 0.0
C201 C 0.20803 0.73901 0.81966 0.0
C202 C 0.15906 0.72991 0.76853 0.0
C203 C 0.14622 0.75273 0.77086 0.0
C204 C 0.12566 0.75733 0.75494 0.0
C205 C 0.1172 0.73915 0.73647 0.0
C206 C 0.12997 0.71634 0.73405 0.0
C207 C 0.15069 0.71174 0.74992 0.0
C208 C 0.23211 0.67893 0.79224 0.0
C209 C 0.22464 0.6596 0.77446 0.0
C210 C 0.23942 0.63836 0.77089 0.0
C211 C 0.26198 0.63604 0.78497 0.0
C212 C 0.26962 0.65542 0.80249 0.0
C213 C 0.25482 0.67658 0.80617 0.0
C214 C 0.21456 0.75759 0.84055 0.0
C215 C 0.23887 0.75845 0.85197 0.0
C216 C 0.99883 0.61749 0.51161 0.0
C217 C 0.98373 0.62031 0.53359 0.0
C218 C 0.96485 0.60159 0.53899 0.0
C219 C 0.96096 0.58051 0.52258 0.0
H220 H 0.90347 0.52744 0.49443 0.0
H221 H 0.86739 0.49811 0.50191 0.0
H222 H 0.90874 0.43718 0.46713 0.0
H223 H 0.94442 0.46696 0.45836 0.0
H224 H 0.98203 0.49319 0.40995 0.0
H225 H 0.01012 0.48831 0.37311 0.0
H226 H 0.05643 0.5532 0.39953 0.0
H227 H 0.02825 0.55854 0.43607 0.0
H228 H 0.00709 0.59475 0.47851 0.0
H229 H 0.01379 0.6315 0.50725 0.0
H230 H 0.95296 0.60338 0.55583 0.0
H231 H 0.9462 0.56645 0.52733 0.0
N232 N 0.95225 0.53829 0.48704 0.0
N233 N 0.96523 0.51343 0.45198 0.0
N234 N 0.98844 0.55088 0.4636 0.0
C235 C 0.94869 0.51744 0.47153 0.0
C236 C 0.98514 0.53016 0.44784 0.0
C237 C 0.97214 0.55506 0.48329 0.0
C238 C 0.92685 0.49947 0.47594 0.0
C239 C 0.90491 0.50777 0.48843 0.0
C240 C 0.8843 0.49089 0.49294 0.0
C241 C 0.8854 0.46515 0.48569 0.0
C242 C 0.90728 0.45689 0.47296 0.0
C243 C 0.92773 0.47392 0.46797 0.0
C244 C 0.00278 0.5263 0.42603 0.0
C245 C 0.99828 0.50635 0.40805 0.0
C246 C 0.01445 0.50343 0.387 0.0
C247 C 0.03555 0.52028 0.38357 0.0
C248 C 0.04022 0.54002 0.40164 0.0
C249 C 0.02407 0.543 0.42263 0.0
C250 C 0.97606 0.57759 0.50053 0.0
C251 C 0.99506 0.59635 0.49526 0.0
C252 C 0.86876 0.75113 0.74148 0.0
C253 C 0.87936 0.77044 0.72627 0.0
C254 C 0.86791 0.79405 0.72627 0.0
C255 C 0.8467 0.79844 0.74175 0.0
H256 H 0.78736 0.84758 0.75451 0.0
H257 H 0.76084 0.88406 0.74946 0.0
H258 H 0.71201 0.85775 0.81062 0.0
H259 H 0.73815 0.82114 0.81565 0.0
H260 H 0.75198 0.77363 0.84665 0.0
H261 H 0.74371 0.74449 0.88157 0.0
H262 H 0.80606 0.69951 0.8561 0.0
H263 H 0.81472 0.72865 0.82141 0.0
H264 H 0.84028 0.74023 0.76869 0.0
H265 H 0.87669 0.7325 0.7413 0.0
H266 H 0.87568 0.80927 0.71468 0.0
H267 H 0.83857 0.81696 0.74166 0.0
N268 N 0.80058 0.8047 0.77233 0.0
N269 N 0.77544 0.79221 0.80737 0.0
N270 N 0.80925 0.7676 0.79396 0.0
C271 C 0.78073 0.80888 0.78844 0.0
C272 C 0.78964 0.77154 0.81028 0.0
C273 C 0.81487 0.78402 0.77495 0.0
C274 C 0.76489 0.83128 0.78542 0.0
C275 C 0.77095 0.84947 0.76687 0.0
C276 C 0.75583 0.87042 0.764 0.0
C277 C 0.73424 0.87354 0.77945 0.0
C278 C 0.72827 0.85554 0.79812 0.0
C279 C 0.7434 0.83465 0.80108 0.0
C280 C 0.78412 0.75362 0.83123 0.0
C281 C 0.76399 0.75757 0.84845 0.0
C282 C 0.75917 0.74087 0.86842 0.0
C283 C 0.77444 0.71995 0.87167 0.0
C284 C 0.79433 0.71578 0.85433 0.0
C285 C 0.79915 0.73243 0.83435 0.0
C286 C 0.83659 0.77932 0.75758 0.0
C287 C 0.84776 0.75555 0.75707 0.0
C288 C 0.3668 0.25424 0.23524 0.0
C289 C 0.37303 0.27244 0.21685 0.0
C290 C 0.3602 0.29525 0.21711 0.0
C291 C 0.34108 0.29957 0.23516 0.0
H292 H 0.27499 0.34043 0.24654 0.0
H293 H 0.24341 0.37254 0.24064 0.0
H294 H 0.21145 0.35604 0.31482 0.0
H295 H 0.24249 0.32372 0.32066 0.0
H296 H 0.25563 0.27464 0.34733 0.0
H297 H 0.24821 0.24502 0.38181 0.0
H298 H 0.31149 0.20172 0.35559 0.0
H299 H 0.31932 0.2315 0.32111 0.0
H300 H 0.34353 0.24409 0.26724 0.0
H301 H 0.37673 0.23666 0.23567 0.0
H302 H 0.36475 0.30958 0.20314 0.0
H303 H 0.3314 0.31728 0.23474 0.0
N304 N 0.29828 0.30503 0.26996 0.0
N305 N 0.27636 0.29269 0.30702 0.0
N306 N 0.31094 0.26972 0.29254 0.0
C307 C 0.27927 0.3087 0.28717 0.0
C308 C 0.29208 0.27319 0.3099 0.0
C309 C 0.31424 0.28558 0.27256 0.0
C310 C 0.26118 0.32925 0.28396 0.0
C311 C 0.26128 0.34365 0.26163 0.0
C312 C 0.24323 0.36206 0.25823 0.0
C313 C 0.22471 0.36642 0.27707 0.0
C314 C 0.22507 0.35259 0.29968 0.0
C315 C 0.24301 0.33417 0.30306 0.0
C316 C 0.2881 0.25551 0.33134 0.0
C317 C 0.26811 0.25892 0.34888 0.0
C318 C 0.26376 0.24192 0.36862 0.0
C319 C 0.27933 0.22118 0.3714 0.0
C320 C 0.29944 0.21779 0.35409 0.0
C321 C 0.3038 0.23479 0.33427 0.0
C322 C 0.33467 0.28127 0.25352 0.0
C323 C 0.34789 0.25862 0.25341 0.0
C324 C 0.50319 0.88857 0.48892 0.0
C325 C 0.48891 0.88513 0.46629 0.0
C326 C 0.47027 0.90247 0.46065 0.0
C327 C 0.46569 0.92268 0.47752 0.0
H328 H 0.41361 0.97639 0.49305 0.0
H329 H 0.37822 0.0036 0.48502 0.0
H330 H 0.40293 0.0532 0.54786 0.0
H331 H 0.43802 0.02579 0.55641 0.0
H332 H 0.4761 0.00255 0.59737 0.0
H333 H 0.50279 0.01022 0.63511 0.0
H334 H 0.55749 0.95866 0.60462 0.0
H335 H 0.53049 0.9503 0.56711 0.0
H336 H 0.51002 0.91087 0.52309 0.0
H337 H 0.51798 0.87568 0.49349 0.0
H338 H 0.45899 0.90019 0.44331 0.0
H339 H 0.45103 0.93558 0.47262 0.0
N340 N 0.45508 0.96269 0.51403 0.0
N341 N 0.46514 0.98629 0.55147 0.0
N342 N 0.48958 0.9518 0.53945 0.0
C343 C 0.45015 0.98219 0.53046 0.0
C344 C 0.4849 0.97119 0.55612 0.0
C345 C 0.47474 0.9474 0.51837 0.0
C346 C 0.42867 0.99879 0.52548 0.0
C347 C 0.41153 0.99304 0.50525 0.0
C348 C 0.39127 0.00865 0.50057 0.0
C349 C 0.38767 0.03035 0.51598 0.0
C350 C 0.40489 0.03628 0.53603 0.0
C351 C 0.42511 0.02062 0.54081 0.0
C352 C 0.50117 0.97588 0.57908 0.0
C353 C 0.49384 0.99287 0.5986 0.0
C354 C 0.50922 0.99742 0.62018 0.0
C355 C 0.53243 0.98536 0.62262 0.0
C356 C 0.53967 0.9682 0.60327 0.0
C357 C 0.52421 0.96348 0.58175 0.0
C358 C 0.47981 0.92608 0.50034 0.0
C359 C 0.49871 0.90883 0.50578 0.0
C360 C 0.24771 0.25665 0.62595 0.0
C361 C 0.22834 0.23963 0.61688 0.0
C362 C 0.20418 0.23974 0.62833 0.0
C363 C 0.19948 0.25649 0.64872 0.0
H364 H 0.16073 0.25989 0.72012 0.0
H365 H 0.12396 0.25212 0.74795 0.0
H366 H 0.12841 0.33038 0.77375 0.0
H367 H 0.16531 0.33836 0.74609 0.0
H368 H 0.22138 0.36665 0.73971 0.0
H369 H 0.24849 0.40505 0.74538 0.0
H370 H 0.29118 0.38486 0.6779 0.0
H371 H 0.26406 0.34655 0.67188 0.0
H372 H 0.25821 0.28669 0.65259 0.0
H373 H 0.26644 0.257 0.6172 0.0
H374 H 0.18897 0.22675 0.62158 0.0
H375 H 0.18061 0.25613 0.65715 0.0
N376 N 0.19327 0.28778 0.69457 0.0
N377 N 0.20345 0.32576 0.71714 0.0
N378 N 0.22879 0.31316 0.68254 0.0
C379 C 0.18812 0.30455 0.71378 0.0
C380 C 0.22386 0.33019 0.70161 0.0
C381 C 0.21356 0.29195 0.67887 0.0
C382 C 0.16594 0.29978 0.7308 0.0
C383 C 0.1539 0.27549 0.73166 0.0
C384 C 0.13294 0.27097 0.74764 0.0
C385 C 0.12337 0.2907 0.76277 0.0
C386 C 0.13534 0.31495 0.76202 0.0
C387 C 0.15652 0.31943 0.74629 0.0
C388 C 0.24043 0.35347 0.70527 0.0
C389 C 0.23647 0.37035 0.72599 0.0
C390 C 0.25203 0.39232 0.72933 0.0
C391 C 0.27172 0.39799 0.71194 0.0
C392 C 0.27582 0.38114 0.69133 0.0
C393 C 0.26036 0.35911 0.68802 0.0
C394 C 0.21876 0.27376 0.65771 0.0
C395 C 0.24293 0.27368 0.64608 0.0
C396 C 0.74211 0.1309 0.7526 0.0
C397 C 0.71916 0.12832 0.73881 0.0
C398 C 0.71408 0.14593 0.71994 0.0
C399 C 0.73148 0.16601 0.71519 0.0
H400 H 0.75231 0.21786 0.66007 0.0
H401 H 0.74656 0.2447 0.62329 0.0
H402 H 0.80323 0.29883 0.65373 0.0
H403 H 0.80907 0.2722 0.69068 0.0
H404 H 0.83785 0.2604 0.74149 0.0
H405 H 0.87298 0.27021 0.77115 0.0
H406 H 0.86219 0.19635 0.80408 0.0
H407 H 0.82695 0.18629 0.77445 0.0
H408 H 0.77687 0.15271 0.75917 0.0
H409 H 0.74643 0.1175 0.76722 0.0
H410 H 0.69667 0.14408 0.70878 0.0
H411 H 0.72685 0.17933 0.70061 0.0
N412 N 0.76893 0.20602 0.70458 0.0
N413 N 0.80445 0.23164 0.71726 0.0
N414 N 0.79206 0.19616 0.74118 0.0
C415 C 0.78494 0.22643 0.70062 0.0
C416 C 0.80818 0.21658 0.73754 0.0
C417 C 0.77231 0.19081 0.72483 0.0
C418 C 0.78123 0.2428 0.67836 0.0
C419 C 0.76358 0.23547 0.65901 0.0
C420 C 0.76036 0.25072 0.63785 0.0
C421 C 0.77463 0.27366 0.63564 0.0
C422 C 0.79201 0.2812 0.65504 0.0
C423 C 0.79538 0.26588 0.67613 0.0
C424 C 0.8295 0.22255 0.75559 0.0
C425 C 0.84287 0.2462 0.75503 0.0
C426 C 0.86288 0.25193 0.77211 0.0
C427 C 0.87004 0.23411 0.78998 0.0
C428 C 0.85693 0.2104 0.79046 0.0
C429 C 0.83674 0.20472 0.77355 0.0
C430 C 0.75429 0.16898 0.72931 0.0
C431 C 0.75945 0.15111 0.74801 0.0
C432 C 0.46779 0.54796 0.60994 0.0
C433 C 0.47373 0.53102 0.62917 0.0
C434 C 0.49623 0.51762 0.62706 0.0
C435 C 0.51261 0.52128 0.60625 0.0
H436 H 0.58145 0.50006 0.5762 0.0
H437 H 0.61985 0.47589 0.57137 0.0
H438 H 0.63072 0.50467 0.4953 0.0
H439 H 0.59281 0.52936 0.50022 0.0
H440 H 0.55867 0.5729 0.48121 0.0
H441 H 0.55034 0.60611 0.45101 0.0
H442 H 0.49077 0.6332 0.50023 0.0
H443 H 0.49853 0.5997 0.53019 0.0
H444 H 0.47892 0.56488 0.5747 0.0
H445 H 0.45029 0.55812 0.61078 0.0
H446 H 0.50127 0.50446 0.64165 0.0
H447 H 0.52985 0.51072 0.60531 0.0
N448 N 0.54517 0.52842 0.56199 0.0
N449 N 0.55562 0.54967 0.52425 0.0
N450 N 0.51912 0.56007 0.54737 0.0
C451 C 0.561 0.53193 0.54167 0.0
C452 C 0.53475 0.56386 0.52698 0.0
C453 C 0.52412 0.54236 0.56493 0.0
C454 C 0.58406 0.51682 0.53866 0.0
C455 C 0.59202 0.50132 0.55844 0.0
C456 C 0.614 0.48742 0.55569 0.0
C457 C 0.62848 0.48867 0.53311 0.0
C458 C 0.62034 0.50384 0.51319 0.0
C459 C 0.59847 0.51786 0.51598 0.0
C460 C 0.52937 0.58366 0.50826 0.0
C461 C 0.54377 0.5859 0.48565 0.0
C462 C 0.53913 0.60502 0.46839 0.0
C463 C 0.52016 0.62245 0.47346 0.0
C464 C 0.50548 0.61998 0.4958 0.0
C465 C 0.51001 0.6008 0.513 0.0
C466 C 0.5068 0.5384 0.58706 0.0
C467 C 0.48416 0.55168 0.58917 0.0
C468 C 0.53864 0.4064 0.03339 0.0
C469 C 0.51943 0.3878 0.02766 0.0
C470 C 0.50452 0.39019 0.0056 0.0
C471 C 0.50883 0.41065 0.98946 0.0
H472 H 0.47678 0.44637 0.93035 0.0
H473 H 0.44786 0.4517 0.89465 0.0
H474 H 0.49471 0.51534 0.86916 0.0
H475 H 0.52363 0.51046 0.90518 0.0
H476 H 0.56841 0.5322 0.94207 0.0
H477 H 0.60444 0.56202 0.9503 0.0
H478 H 0.63175 0.51368 0.00893 0.0
H479 H 0.59595 0.48365 0.00076 0.0
H480 H 0.55799 0.44084 0.02222 0.0
H481 H 0.55006 0.40533 0.05057 0.0
H482 H 0.48964 0.37606 0.00068 0.0
H483 H 0.49702 0.41178 0.97256 0.0
N484 N 0.51662 0.45452 0.95806 0.0
N485 N 0.54075 0.49082 0.94646 0.0
N486 N 0.55288 0.46752 0.98182 0.0
C487 C 0.52045 0.47439 0.94226 0.0
C488 C 0.55707 0.4875 0.96621 0.0
C489 C 0.5327 0.45094 0.97789 0.0
C490 C 0.5027 0.4779 0.92063 0.0
C491 C 0.48105 0.46152 0.91718 0.0
C492 C 0.4645 0.46444 0.89664 0.0
C493 C 0.46927 0.48369 0.87895 0.0
C494 C 0.49062 0.50034 0.88254 0.0
C495 C 0.5072 0.49746 0.90314 0.0
C496 C 0.57914 0.50552 0.97083 0.0
C497 C 0.58206 0.52784 0.95672 0.0
C498 C 0.6026 0.54502 0.96149 0.0
C499 C 0.62067 0.54022 0.98042 0.0
C500 C 0.61805 0.51779 0.99423 0.0
C501 C 0.59746 0.50067 0.98958 0.0
C502 C 0.52818 0.42921 0.99503 0.0
C503 C 0.54305 0.42683 0.0172 0.0
C504 C 0.74208 0.28011 0.3762 0.0
C505 C 0.72181 0.29428 0.38531 0.0
C506 C 0.69757 0.2904 0.37425 0.0
C507 C 0.69365 0.27262 0.35428 0.0
H508 H 0.64646 0.25705 0.2934 0.0
H509 H 0.61056 0.2617 0.2646 0.0
H510 H 0.6373 0.20122 0.21597 0.0
H511 H 0.67354 0.19656 0.24458 0.0
H512 H 0.72465 0.16989 0.25983 0.0
H513 H 0.75243 0.13413 0.25472 0.0
H514 H 0.78629 0.15208 0.32851 0.0
H515 H 0.75863 0.18787 0.33385 0.0
H516 H 0.75405 0.25127 0.34989 0.0
H517 H 0.76092 0.28285 0.38457 0.0
H518 H 0.68172 0.30126 0.38096 0.0
H519 H 0.67472 0.27006 0.3461 0.0
N520 N 0.68927 0.24105 0.30825 0.0
N521 N 0.70159 0.2051 0.285 0.0
N522 N 0.72582 0.22023 0.32034 0.0
C523 C 0.68517 0.2241 0.28859 0.0
C524 C 0.72191 0.20297 0.30086 0.0
C525 C 0.70957 0.23933 0.32412 0.0
C526 C 0.66304 0.22649 0.27128 0.0
C527 C 0.64482 0.24472 0.27658 0.0
C528 C 0.62416 0.24735 0.26016 0.0
C529 C 0.62133 0.23198 0.238 0.0
C530 C 0.63931 0.21359 0.23275 0.0
C531 C 0.65996 0.21084 0.24924 0.0
C532 C 0.7393 0.18174 0.29731 0.0
C533 C 0.738 0.16629 0.275 0.0
C534 C 0.75395 0.14587 0.27198 0.0
C535 C 0.77127 0.1403 0.29132 0.0
C536 C 0.77283 0.15583 0.31348 0.0
C537 C 0.75707 0.17639 0.31642 0.0
C538 C 0.71383 0.25814 0.34527 0.0
C539 C 0.73808 0.26201 0.3565 0.0
C540 C 0.50429 0.11771 0.01914 0.0
C541 C 0.4884 0.12039 0.04057 0.0
C542 C 0.46836 0.10244 0.04433 0.0
C543 C 0.46445 0.08198 0.02719 0.0
H544 H 0.41703 0.02133 0.01397 0.0
H545 H 0.38057 0.99228 0.02068 0.0
H546 H 0.39939 0.95016 0.95196 0.0
H547 H 0.43633 0.97894 0.94529 0.0
H548 H 0.486 0.99475 0.91512 0.0
H549 H 0.51551 0.9873 0.88005 0.0
H550 H 0.56136 0.05338 0.904 0.0
H551 H 0.5321 0.06084 0.93944 0.0
H552 H 0.51313 0.09555 0.98573 0.0
H553 H 0.51986 0.13136 0.01583 0.0
H554 H 0.45553 0.10436 0.06044 0.0
H555 H 0.44881 0.0685 0.03078 0.0
N556 N 0.45608 0.04059 0.99116 0.0
N557 N 0.46827 0.01661 0.9553 0.0
N558 N 0.49256 0.05308 0.96804 0.0
C559 C 0.45188 0.02034 0.97501 0.0
C560 C 0.48868 0.03286 0.95167 0.0
C561 C 0.47631 0.05706 0.98785 0.0
C562 C 0.42964 0.0026 0.979 0.0
C563 C 0.41346 0.00596 0.00018 0.0
C564 C 0.39243 0.98941 0.00398 0.0
C565 C 0.38697 0.9692 0.98664 0.0
C566 C 0.4032 0.96561 0.96562 0.0
C567 C 0.4243 0.98216 0.96179 0.0
C568 C 0.50656 0.02846 0.93016 0.0
C569 C 0.5023 0.00779 0.91297 0.0
C570 C 0.51911 0.00357 0.89275 0.0
C571 C 0.54053 0.01993 0.88916 0.0
C572 C 0.54498 0.04047 0.90637 0.0
C573 C 0.52814 0.04475 0.92661 0.0
C574 C 0.4805 0.079 0.00584 0.0
C575 C 0.50045 0.09716 0.00198 0.0
C576 C 0.21701 0.92731 0.01093 0.0
O577 O 0.23632 0.93468 0.99654 0.0
O578 O 0.24106 0.8607 0.9855 0.0
Zn579 Zn 0.24752 0.88384 0.0162 0.0
O580 O 0.27898 0.90651 0.01115 0.0
C581 C 0.26396 0.84241 0.04602 0.0
O582 O 0.27393 0.8355 0.02402 0.0
O583 O 0.21733 0.90576 0.02129 0.0
C584 C 0.30053 0.89886 0.00395 0.0
O585 O 0.30327 0.87449 -0.00017 0.0
C586 C 0.24904 0.86588 0.96318 0.0
O587 O 0.26169 0.88748 0.95949 0.0
O588 O 0.25174 0.86268 0.04739 0.0
C589 C 0.14929 0.44307 0.26372 0.0
O590 O 0.12493 0.43871 0.26839 0.0
O591 O 0.10967 0.49359 0.28532 0.0
Zn592 Zn 0.13217 0.49298 0.25401 0.0
O593 O 0.15246 0.52598 0.25209 0.0
C594 C 0.08745 0.4907 0.22076 0.0
O595 O 0.07552 0.49746 0.24177 0.0
O596 O 0.15685 0.46511 0.25702 0.0
C597 C 0.16479 0.53159 0.23196 0.0
O598 O 0.16382 0.51554 0.21234 0.0
C599 C 0.10101 0.51432 0.2937 0.0
O600 O 0.10673 0.53526 0.28145 0.0
O601 O 0.1113 0.4875 0.22169 0.0
C602 C 0.80499 0.59745 0.99483 0.0
O603 O 0.80098 0.60354 0.97096 0.0
O604 O 0.76859 0.64768 0.97281 0.0
Zn605 Zn 0.76041 0.62691 0.00401 0.0
O606 O 0.72916 0.60376 0.99781 0.0
C607 C 0.7452 0.67212 0.03144 0.0
O608 O 0.73799 0.67875 0.00856 0.0
O609 O 0.79009 0.60542 0.01212 0.0
C610 C 0.70667 0.61064 0.00254 0.0
O611 O 0.7035 0.63351 0.01208 0.0
C612 C 0.7522 0.65185 0.95566 0.0
O613 O 0.72896 0.64193 0.95789 0.0
O614 O 0.75497 0.65071 0.03414 0.0
C615 C 0.83423 0.05296 0.27703 0.0
O616 O 0.82896 0.03167 0.28879 0.0
O617 O 0.89692 0.01767 0.28372 0.0
Zn618 Zn 0.87345 0.02333 0.25395 0.0
O619 O 0.84964 0.99281 0.24728 0.0
C620 C 0.91274 0.01532 0.2165 0.0
O621 O 0.91684 0.99571 0.23071 0.0
O622 O 0.85254 0.05391 0.26111 0.0
C623 C 0.85644 0.97015 0.24968 0.0
O624 O 0.87979 0.96622 0.25719 0.0
C625 C 0.88968 0.00652 0.30393 0.0
O626 O 0.86586 0.99813 0.30575 0.0
O627 O 0.89493 0.02988 0.22263 0.0
C628 C 0.30364 0.09509 0.4933 0.0
O629 O 0.29836 0.09953 0.46927 0.0
O630 O 0.27057 0.14784 0.47157 0.0
Zn631 Zn 0.2612 0.127 0.50238 0.0
O632 O 0.22985 0.10419 0.49541 0.0
C633 C 0.24575 0.17195 0.52999 0.0
O634 O 0.23837 0.17859 0.50716 0.0
O635 O 0.29027 0.10503 0.5108 0.0
C636 C 0.20729 0.11085 0.50019 0.0
O637 O 0.20394 0.1335 0.51018 0.0
C638 C 0.25486 0.15178 0.45373 0.0
O639 O 0.23162 0.14167 0.45508 0.0
O640 O 0.25565 0.1506 0.5326 0.0
C641 C 0.32588 0.54909 0.77141 0.0
O642 O 0.3177 0.52597 0.77679 0.0
O643 O 0.39286 0.51798 0.78816 0.0
Zn644 Zn 0.37113 0.52307 0.75701 0.0
O645 O 0.34926 0.4915 0.74945 0.0
C646 C 0.40473 0.5125 0.71475 0.0
O647 O 0.39982 0.48899 0.72153 0.0
O648 O 0.34848 0.55259 0.76302 0.0
C649 C 0.33672 0.48902 0.72867 0.0
O650 O 0.33837 0.50735 0.71209 0.0
C651 C 0.4012 0.49619 0.79237 0.0
O652 O 0.39484 0.47733 0.7765 0.0
O653 O 0.39432 0.53034 0.72709 0.0
C654 C 0.71779 0.42772 0.51961 0.0
O655 O 0.73722 0.43537 0.50551 0.0
O656 O 0.73794 0.36068 0.49144 0.0
Zn657 Zn 0.74685 0.38278 0.52231 0.0
O658 O 0.77952 0.40354 0.51706 0.0
C659 C 0.76113 0.33881 0.54875 0.0
O660 O 0.7681 0.33214 0.5255 0.0
O661 O 0.7178 0.40576 0.5291 0.0
C662 C 0.79772 0.39645 0.5029 0.0
O663 O 0.79564 0.37448 0.4906 0.0
C664 C 0.74029 0.36759 0.46841 0.0
O665 O 0.74923 0.39062 0.46366 0.0
O666 O 0.75143 0.36027 0.55237 0.0
C667 C 0.6731 0.96211 0.76697 0.0
O668 O 0.68421 0.98477 0.76978 0.0
O669 O 0.60484 0.9967 0.78347 0.0
Zn670 Zn 0.62919 0.99107 0.75434 0.0
O671 O 0.65284 0.0219 0.75017 0.0
C672 C 0.59576 0.00308 0.71344 0.0
O673 O 0.59621 0.0249 0.72604 0.0
O674 O 0.64967 0.96026 0.76067 0.0
C675 C 0.64708 0.04405 0.75755 0.0
O676 O 0.62498 0.04725 0.76869 0.0
C677 C 0.61224 0.00102 0.80636 0.0
O678 O 0.63679 0.00148 0.81142 0.0
O679 O 0.60858 0.9852 0.72201 0.0
C680 C 0.00552 0.21798 0.91505 0.0
O681 O 0.99104 0.2356 0.92456 0.0
O682 O 0.97732 0.24603 0.85276 0.0
Zn683 Zn 0.00948 0.25254 0.87346 0.0
O684 O 0.006 0.28239 0.89803 0.0
C685 C 0.03581 0.27006 0.82831 0.0
O686 O 0.01273 0.27604 0.82163 0.0
O687 O 0.01582 0.22123 0.89331 0.0
C688 C 0.00619 0.30507 0.89031 0.0
O689 O 0.00883 0.30911 0.86574 0.0
C690 C 0.95665 0.257 0.85732 0.0
O691 O 0.95566 0.27323 0.87667 0.0
O692 O 0.03906 0.25945 0.84961 0.0
C693 C 0.49982 0.7061 0.40656 0.0
O694 O 0.47609 0.71249 0.40353 0.0
O695 O 0.47812 0.74248 0.35419 0.0
Zn696 Zn 0.50966 0.74989 0.3758 0.0
O697 O 0.50446 0.77877 0.40083 0.0
C698 C 0.5369 0.76621 0.33039 0.0
O699 O 0.51376 0.76796 0.32117 0.0
O700 O 0.51753 0.71921 0.39596 0.0
C701 C 0.50628 0.80179 0.39426 0.0
O702 O 0.51149 0.80692 0.37029 0.0
C703 C 0.45779 0.75453 0.35706 0.0
O704 O 0.45681 0.77207 0.37522 0.0
O705 O 0.53965 0.75879 0.35316 0.0
C706 C 0.00617 0.79147 0.57861 0.0
O707 O 0.99413 0.77187 0.56747 0.0
O708 O 0.97214 0.76398 0.64285 0.0
Zn709 Zn 0.00397 0.75869 0.62198 0.0
O710 O 0.99804 0.72885 0.59769 0.0
C711 C 0.03551 0.76345 0.66704 0.0
O712 O 0.01918 0.78073 0.67329 0.0
O713 O 0.01242 0.79018 0.60203 0.0
C714 C 0.00088 0.70615 0.60435 0.0
O715 O 0.00778 0.70187 0.62798 0.0
C716 C 0.9675 0.75061 0.66236 0.0
O717 O 0.98308 0.73274 0.66806 0.0
O718 O 0.03328 0.75189 0.6455 0.0
C719 C 0.4978 0.30211 0.09372 0.0
O720 O 0.47392 0.29472 0.09758 0.0
O721 O 0.47588 0.26619 0.14732 0.0
Zn722 Zn 0.50711 0.25984 0.12573 0.0
O723 O 0.50164 0.22918 0.10238 0.0
C724 C 0.53447 0.24745 0.17166 0.0
O725 O 0.51134 0.24433 0.18101 0.0
O726 O 0.51535 0.29008 0.10414 0.0
C727 C 0.5025 0.20694 0.11107 0.0
O728 O 0.50649 0.20428 0.13566 0.0
C729 C 0.45495 0.25338 0.14471 0.0
O730 O 0.453 0.23557 0.12678 0.0
O731 O 0.53718 0.25423 0.1486 0.0
C732 C 0.21799 0.81221 0.92321 0.0
C733 C 0.23307 0.81185 0.90101 0.0
C734 C 0.22344 0.82964 0.94327 0.0
C735 C 0.2439 0.84766 0.94166 0.0
H736 H 0.20199 0.79873 0.92516 0.0
H737 H 0.21133 0.82916 0.96006 0.0
S738 S 0.28894 0.8546 0.88724 0.0
N739 N 0.2692 0.83083 0.87837 0.0
N740 N 0.27935 0.86393 0.91592 0.0
C741 C 0.25904 0.84756 0.91942 0.0
C742 C 0.25367 0.82954 0.89915 0.0
C743 C 0.05819 0.53949 0.34618 0.0
C744 C 0.05222 0.51799 0.36076 0.0
C745 C 0.0739 0.53803 0.32459 0.0
C746 C 0.08436 0.51501 0.31668 0.0
H747 H 0.05042 0.5576 0.35137 0.0
H748 H 0.07779 0.55518 0.31403 0.0
S749 S 0.07529 0.45329 0.34899 0.0
N750 N 0.0585 0.47311 0.36633 0.0
N751 N 0.08789 0.47018 0.3256 0.0
C752 C 0.07861 0.49331 0.33118 0.0
C753 C 0.06256 0.49485 0.35321 0.0
C754 C 0.74466 0.69216 0.89706 0.0
C755 C 0.76944 0.70241 0.89302 0.0
C756 C 0.73941 0.6756 0.91713 0.0
C757 C 0.7587 0.66877 0.9341 0.0
H758 H 0.72923 0.69684 0.88446 0.0
H759 H 0.71998 0.66827 0.91941 0.0
S760 S 0.82677 0.69107 0.93197 0.0
N761 N 0.81341 0.70504 0.90774 0.0
N762 N 0.80371 0.67382 0.94542 0.0
C763 C 0.78363 0.67895 0.93023 0.0
C764 C 0.78895 0.69576 0.9097 0.0
C765 C 0.95254 0.00331 0.33963 0.0
C766 C 0.94513 0.99373 0.36351 0.0
C767 C 0.93446 0.00753 0.32061 0.0
C768 C 0.90824 0.00233 0.32471 0.0
H769 H 0.97252 0.00718 0.33543 0.0
H770 H 0.94121 0.01465 0.30244 0.0
S771 S 0.87888 0.97871 0.38479 0.0
N772 N 0.90979 0.98047 0.39082 0.0
N773 N 0.87578 0.98807 0.35506 0.0
C774 C 0.90056 0.99311 0.34871 0.0
C775 C 0.919 0.98888 0.36809 0.0
C776 C 0.21832 0.22303 0.57277 0.0
C777 C 0.23313 0.22211 0.59511 0.0
C778 C 0.22272 0.20686 0.55173 0.0
C779 C 0.24175 0.18888 0.55248 0.0
H780 H 0.20343 0.23655 0.57147 0.0
H781 H 0.21089 0.2083 0.53487 0.0
S782 S 0.28541 0.17879 0.6069 0.0
N783 N 0.26743 0.20194 0.61696 0.0
N784 N 0.2755 0.17116 0.57761 0.0
C785 C 0.25654 0.18765 0.57487 0.0
C786 C 0.25229 0.2044 0.59613 0.0
C787 C 0.44876 0.50216 0.65808 0.0
C788 C 0.45627 0.52694 0.65118 0.0
C789 C 0.43207 0.49775 0.67858 0.0
C790 C 0.42225 0.51796 0.69306 0.0
H791 H 0.4556 0.486 0.64735 0.0
H792 H 0.4268 0.47828 0.683 0.0
S793 S 0.43718 0.58652 0.68344 0.0
N794 N 0.45351 0.57197 0.66091 0.0
N795 N 0.42196 0.56384 0.6993 0.0
C796 C 0.42981 0.54289 0.68644 0.0
C797 C 0.44683 0.54734 0.66554 0.0
C798 C 0.76584 0.31549 0.61677 0.0
C799 C 0.77132 0.28982 0.61319 0.0
C800 C 0.76242 0.33111 0.59583 0.0
C801 C 0.76467 0.32173 0.57051 0.0
H802 H 0.7639 0.32348 0.63593 0.0
H803 H 0.75814 0.35075 0.59957 0.0
S804 S 0.77952 0.25581 0.55107 0.0
N805 N 0.77931 0.2557 0.58266 0.0
N806 N 0.77299 0.28495 0.54319 0.0
C807 C 0.77036 0.29606 0.56672 0.0
C808 C 0.77362 0.28013 0.58809 0.0
C809 C 0.55902 0.97014 0.65857 0.0
C810 C 0.54895 0.99042 0.64542 0.0
C811 C 0.5743 0.97442 0.68039 0.0
C812 C 0.58005 0.99915 0.68996 0.0
H813 H 0.55473 0.95076 0.6522 0.0
H814 H 0.58136 0.95815 0.69 0.0
S815 S 0.56001 0.05889 0.66122 0.0
N816 N 0.54709 0.0362 0.64254 0.0
N817 N 0.57541 0.0443 0.68375 0.0
C818 C 0.57041 0.01964 0.67672 0.0
C819 C 0.55496 0.01526 0.65443 0.0
C820 C 0.91211 0.22394 0.80866 0.0
C821 C 0.89152 0.24006 0.80778 0.0
C822 C 0.93306 0.22961 0.82473 0.0
C823 C 0.93403 0.25143 0.84079 0.0
H824 H 0.91222 0.20703 0.7965 0.0
H825 H 0.94858 0.21669 0.82458 0.0
S826 S 0.88428 0.29929 0.8461 0.0
N827 N 0.87294 0.27838 0.82456 0.0
N828 N 0.91218 0.28906 0.85497 0.0
C829 C 0.91331 0.26752 0.84033 0.0
C830 C 0.89211 0.26185 0.82374 0.0
C831 C 0.49771 0.86793 0.42232 0.0
C832 C 0.49347 0.86357 0.44844 0.0
C833 C 0.50199 0.84787 0.40504 0.0
C834 C 0.50198 0.82261 0.41317 0.0
H835 H 0.49795 0.88707 0.41522 0.0
H836 H 0.50521 0.85227 0.38513 0.0
S837 S 0.49084 0.80115 0.47966 0.0
N838 N 0.48887 0.83226 0.48164 0.0
N839 N 0.49693 0.79444 0.44931 0.0
C840 C 0.4976 0.81801 0.43931 0.0
C841 C 0.49337 0.8385 0.4569 0.0
C842 C 0.10124 0.26689 0.79769 0.0
C843 C 0.1009 0.2859 0.77932 0.0
C844 C 0.08018 0.26205 0.81361 0.0
C845 C 0.05785 0.27574 0.81139 0.0
H846 H 0.11801 0.25585 0.79992 0.0
H847 H 0.08131 0.24727 0.82756 0.0
S848 S 0.04744 0.32735 0.76591 0.0
N849 N 0.07662 0.31843 0.75964 0.0
N850 N 0.03684 0.30922 0.78929 0.0
C851 C 0.05728 0.29472 0.79293 0.0
C852 C 0.07886 0.29986 0.77699 0.0
C853 C 0.49069 0.64825 0.44802 0.0
C854 C 0.51566 0.64334 0.45566 0.0
C855 C 0.48583 0.66837 0.43193 0.0
C856 C 0.50577 0.68441 0.42281 0.0
H857 H 0.47472 0.6364 0.45451 0.0
H858 H 0.46623 0.67136 0.42669 0.0
S859 S 0.57463 0.68003 0.43795 0.0
N860 N 0.56054 0.65646 0.45349 0.0
N861 N 0.55159 0.69406 0.42296 0.0
C862 C 0.53091 0.67959 0.43022 0.0
C863 C 0.53581 0.65912 0.44668 0.0
C864 C 0.90299 0.77264 0.68458 0.0
C865 C 0.90232 0.76587 0.71046 0.0
C866 C 0.9242 0.76777 0.66916 0.0
C867 C 0.94543 0.75579 0.67903 0.0
H868 H 0.88682 0.7814 0.67605 0.0
H869 H 0.92377 0.77309 0.64926 0.0
S870 S 0.95428 0.73678 0.7463 0.0
N871 N 0.92559 0.74846 0.74579 0.0
N872 N 0.96518 0.73886 0.71676 0.0
C873 C 0.94522 0.74941 0.70501 0.0
C874 C 0.92374 0.75455 0.72074 0.0
C875 C 0.01314 0.83593 0.52275 0.0
C876 C 0.02185 0.85899 0.53436 0.0
C877 C 0.00836 0.81426 0.53721 0.0
C878 C 0.01211 0.81471 0.56391 0.0
H879 H 0.01004 0.83461 0.50225 0.0
H880 H 0.00163 0.79701 0.52729 0.0
S881 S 0.0341 0.87069 0.60364 0.0
N882 N 0.03354 0.88124 0.57415 0.0
N883 N 0.02492 0.84042 0.60142 0.0
C884 C 0.021 0.83765 0.57577 0.0
C885 C 0.0258 0.85978 0.56099 0.0
C886 C 0.09791 0.7404 0.69266 0.0
C887 C 0.09562 0.74442 0.71926 0.0
C888 C 0.0783 0.74642 0.67591 0.0
C889 C 0.05575 0.75689 0.68514 0.0
H890 H 0.11522 0.73302 0.68466 0.0
H891 H 0.08103 0.74328 0.65555 0.0
S892 S 0.03913 0.76842 0.75333 0.0
N893 N 0.06813 0.75747 0.7542 0.0
N894 N 0.03148 0.76926 0.72272 0.0
C895 C 0.05295 0.76043 0.71173 0.0
C896 C 0.07282 0.75409 0.72879 0.0
C897 C 0.99163 0.63893 0.57743 0.0
C898 C 0.98791 0.64254 0.55115 0.0
C899 C 0.99591 0.65961 0.59441 0.0
C900 C 0.99638 0.68471 0.5858 0.0
H901 H 0.99154 0.61994 0.58488 0.0
H902 H 0.99877 0.6558 0.61447 0.0
S903 S 0.98675 0.70418 0.51868 0.0
N904 N 0.98434 0.6729 0.51726 0.0
N905 N 0.99236 0.71187 0.54903 0.0
C906 C 0.99245 0.68854 0.5595 0.0
C907 C 0.98825 0.66743 0.54221 0.0
C908 C 0.79439 0.93309 0.23454 0.0
C909 C 0.80194 0.9079 0.23253 0.0
C910 C 0.81214 0.95304 0.24008 0.0
C911 C 0.83811 0.94854 0.24406 0.0
H912 H 0.77466 0.93747 0.23144 0.0
H913 H 0.80538 0.97214 0.24127 0.0
S914 S 0.86728 0.88558 0.24189 0.0
N915 N 0.83681 0.87928 0.23564 0.0
N916 N 0.87028 0.91667 0.24602 0.0
C917 C 0.84582 0.9233 0.2424 0.0
C918 C 0.82772 0.90303 0.23661 0.0
C919 C 0.80303 0.11556 0.26663 0.0
C920 C 0.78754 0.11817 0.28839 0.0
C921 C 0.81838 0.09462 0.26333 0.0
C922 C 0.81847 0.07531 0.28148 0.0
H923 H 0.80338 0.1299 0.25211 0.0
H924 H 0.82994 0.0934 0.24621 0.0
S925 S 0.78105 0.07331 0.34178 0.0
N926 N 0.77313 0.09989 0.32836 0.0
N927 N 0.80177 0.06039 0.32218 0.0
C928 C 0.80302 0.07775 0.30336 0.0
C929 C 0.78764 0.09923 0.30682 0.0
C930 C 0.3674 0.92534 0.98993 0.0
C931 C 0.36455 0.95171 0.99069 0.0
C932 C 0.34661 0.90845 0.99427 0.0
C933 C 0.32215 0.91727 -0.00048 0.0
H934 H 0.38593 0.9177 0.98631 0.0
H935 H 0.34985 0.88832 0.99366 0.0
S936 S 0.30439 0.98472 0.00189 0.0
N937 N 0.33527 0.98592 0.99579 0.0
N938 N 0.2962 0.95433 0.0042 0.0
C939 C 0.31901 0.94367 -1e-05 0.0
C940 C 0.3402 0.96083 0.99554 0.0
C941 C 0.21226 0.40998 0.26547 0.0
C942 C 0.20505 0.38539 0.27319 0.0
C943 C 0.19409 0.42839 0.26235 0.0
C944 C 0.16795 0.42292 0.26673 0.0
H945 H 0.23217 0.41518 0.26222 0.0
H946 H 0.20071 0.44713 0.25662 0.0
S947 S 0.13912 0.36066 0.28573 0.0
N948 N 0.16999 0.35604 0.28398 0.0
N949 N 0.1358 0.39059 0.27838 0.0
C950 C 0.16047 0.3982 0.27408 0.0
C951 C 0.17901 0.37948 0.27727 0.0
C952 C 0.16866 0.05055 0.48214 0.0
C953 C 0.14335 0.05823 0.4832 0.0
C954 C 0.18916 0.06773 0.48749 0.0
C955 C 0.18514 0.09321 0.49439 0.0
H956 H 0.17266 0.03114 0.47691 0.0
H957 H 0.2083 0.06087 0.48636 0.0
S958 S 0.1222 0.12255 0.50048 0.0
N959 N 0.11522 0.09274 0.49202 0.0
N960 N 0.15363 0.12514 0.50207 0.0
C961 C 0.15982 0.10108 0.49561 0.0
C962 C 0.13898 0.08358 0.48999 0.0
C963 C 0.70826 0.08207 0.7432 0.0
C964 C 0.70053 0.10723 0.74407 0.0
C965 C 0.69083 0.06178 0.74755 0.0
C966 C 0.66508 0.06595 0.75329 0.0
H967 H 0.72786 0.07801 0.73875 0.0
H968 H 0.69765 0.0427 0.74651 0.0
S969 S 0.63561 0.12861 0.75861 0.0
N970 N 0.66575 0.13541 0.75156 0.0
N971 N 0.63291 0.09739 0.75989 0.0
C972 C 0.65723 0.09113 0.75453 0.0
C973 C 0.67496 0.11174 0.74985 0.0
C974 C 0.36154 0.0547 0.48576 0.0
C975 C 0.36615 0.0469 0.51083 0.0
C976 C 0.34135 0.07028 0.48034 0.0
C977 C 0.32492 0.07868 0.49978 0.0
H978 H 0.37382 0.04893 0.4702 0.0
H979 H 0.33872 0.07584 0.46072 0.0
S980 S 0.32815 0.06244 0.56852 0.0
N981 N 0.35216 0.04785 0.55515 0.0
N982 N 0.31436 0.07737 0.54516 0.0
C983 C 0.32926 0.07087 0.52497 0.0
C984 C 0.34983 0.05495 0.53045 0.0
C985 C 0.65109 0.44802 0.53646 0.0
C986 C 0.65176 0.4738 0.53017 0.0
C987 C 0.6726 0.43339 0.53326 0.0
C988 C 0.69563 0.44395 0.52358 0.0
H989 H 0.63366 0.43893 0.54348 0.0
H990 H 0.67097 0.41354 0.53805 0.0
S991 S 0.70788 0.51121 0.50624 0.0
N992 N 0.67776 0.50973 0.51538 0.0
N993 N 0.71809 0.48224 0.50897 0.0
C994 C 0.69668 0.46987 0.51766 0.0
C995 C 0.67478 0.48477 0.52103 0.0
C996 C 0.74331 0.33369 0.40372 0.0
C997 C 0.72589 0.313 0.4065 0.0
C998 C 0.74741 0.35165 0.42366 0.0
C999 C 0.73462 0.34919 0.4472 0.0
H1000 H 0.7537 0.33606 0.38596 0.0
H1001 H 0.7611 0.36726 0.42077 0.0
S1002 S 0.68705 0.29818 0.46385 0.0
N1003 N 0.69559 0.29106 0.43422 0.0
N1004 N 0.70359 0.32446 0.47194 0.0
C1005 C 0.71714 0.3285 0.45014 0.0
C1006 C 0.71269 0.3105 0.42971 0.0
C1007 C 0.58475 0.01475 0.87235 0.0
C1008 C 0.5584 0.01541 0.86768 0.0
C1009 C 0.60195 0.01004 0.85244 0.0
C1010 C 0.59349 0.00592 0.82703 0.0
H1011 H 0.5921 0.01755 0.89163 0.0
H1012 H 0.62203 0.00956 0.8571 0.0
S1013 S 0.52632 0.00725 0.8046 0.0
N1014 N 0.52467 0.01266 0.83578 0.0
N1015 N 0.55681 0.00369 0.7983 0.0
C1016 C 0.56713 0.00687 0.82209 0.0
C1017 C 0.54965 0.01162 0.84241 0.0
C1018 C 0.24913 0.19251 0.39524 0.0
C1019 C 0.27401 0.20287 0.39203 0.0
C1020 C 0.2433 0.17571 0.41495 0.0
C1021 C 0.26209 0.16872 0.43239 0.0
H1022 H 0.23402 0.19742 0.38236 0.0
H1023 H 0.22379 0.16844 0.41666 0.0
S1024 S 0.3303 0.19071 0.43214 0.0
N1025 N 0.31762 0.20507 0.40776 0.0
N1026 N 0.30683 0.17339 0.44483 0.0
C1027 C 0.28716 0.1788 0.42921 0.0
C1028 C 0.29309 0.19586 0.40902 0.0
C1029 C 0.44228 0.51011 0.85145 0.0
C1030 C 0.45198 0.48638 0.85679 0.0
C1031 C 0.42574 0.51304 0.83074 0.0
C1032 C 0.41838 0.49236 0.81445 0.0
H1033 H 0.44729 0.52651 0.86355 0.0
H1034 H 0.41876 0.53171 0.82749 0.0
S1035 S 0.43955 0.42635 0.81975 0.0
N1036 N 0.45382 0.44202 0.8438 0.0
N1037 N 0.42265 0.44731 0.805 0.0
C1038 C 0.42814 0.46852 0.81955 0.0
C1039 C 0.44494 0.46558 0.84068 0.0
C1040 C 0.71857 0.72425 0.07349 0.0
C1041 C 0.73262 0.72275 0.09625 0.0
C1042 C 0.72293 0.7079 0.05258 0.0
C1043 C 0.74119 0.68917 0.05386 0.0
H1044 H 0.70432 0.73839 0.07174 0.0
H1045 H 0.7117 0.70983 0.03538 0.0
S1046 S 0.78258 0.67725 0.10958 0.0
N1047 N 0.76528 0.70112 0.11912 0.0
N1048 N 0.77333 0.67007 0.07998 0.0
C1049 C 0.75519 0.68734 0.07668 0.0
C1050 C 0.75096 0.70424 0.09783 0.0
C1051 C 0.95824 0.00452 0.16125 0.0
C1052 C 0.96033 0.02835 0.14976 0.0
C1053 C 0.94281 0.00054 0.18278 0.0
C1054 C 0.92871 0.02019 0.1936 0.0
H1055 H 0.96843 0.9887 0.1534 0.0
H1056 H 0.94178 0.98181 0.19085 0.0
S1057 S 0.92874 0.0866 0.17169 0.0
N1058 N 0.94798 0.07226 0.15157 0.0
N1059 N 0.91848 0.06465 0.19166 0.0
C1060 C 0.93067 0.04417 0.18236 0.0
C1061 C 0.94658 0.04828 0.16055 0.0
C1062 C 0.29068 0.79454 0.09078 0.0
C1063 C 0.2742 0.79554 0.11193 0.0
C1064 C 0.28712 0.80972 0.06954 0.0
C1065 C 0.26721 0.82677 0.06886 0.0
H1066 H 0.3062 0.78162 0.0905 0.0
H1067 H 0.3002 0.80817 0.0536 0.0
S1068 S 0.21928 0.83688 0.11997 0.0
N1069 N 0.23753 0.81496 0.13126 0.0
N1070 N 0.23094 0.84385 0.09151 0.0
C1071 C 0.2508 0.82816 0.09012 0.0
C1072 C 0.25425 0.81242 0.11159 0.0
C1073 C 0.03241 0.48639 0.17335 0.0
C1074 C 0.04438 0.48116 0.14987 0.0
C1075 C 0.04649 0.48931 0.19609 0.0
C1076 C 0.07316 0.48718 0.19628 0.0
H1077 H 0.01191 0.48798 0.17422 0.0
H1078 H 0.03628 0.49323 0.21366 0.0
S1079 S 0.11377 0.47479 0.13946 0.0
N1080 N 0.0845 0.47482 0.12789 0.0
N1081 N 0.11105 0.48006 0.17059 0.0
C1082 C 0.08541 0.48208 0.17283 0.0
C1083 C 0.07101 0.47911 0.14966 0.0
C1084 C 0.41481 0.72188 0.30671 0.0
C1085 C 0.39458 0.73835 0.30482 0.0
C1086 C 0.4351 0.72724 0.32371 0.0
C1087 C 0.43576 0.74912 0.33969 0.0
H1088 H 0.41518 0.70494 0.29462 0.0
H1089 H 0.45038 0.71409 0.32428 0.0
S1090 S 0.38654 0.79771 0.34271 0.0
N1091 N 0.37586 0.77694 0.32073 0.0
N1092 N 0.41385 0.7871 0.3528 0.0
C1093 C 0.41533 0.76553 0.33825 0.0
C1094 C 0.3948 0.76014 0.32077 0.0
C1095 C 0.99417 0.34126 0.95262 0.0
C1096 C 0.99366 0.36658 0.94494 0.0
C1097 C 0.9984 0.32157 0.93486 0.0
C1098 C 0.00242 0.32644 0.90873 0.0
H1099 H 0.99083 0.33658 0.97245 0.0
H1100 H 0.99829 0.30236 0.94172 0.0
S1101 S 0.00459 0.38994 0.87929 0.0
N1102 N 0.99872 0.39575 0.90986 0.0
N1103 N 0.00658 0.35888 0.87637 0.0
C1104 C 0.00241 0.35183 0.90092 0.0
C1105 C 0.99803 0.37184 0.91903 0.0
C1106 C 0.57704 0.7827 0.27212 0.0
C1107 C 0.60199 0.78467 0.28197 0.0
C1108 C 0.55616 0.77694 0.28797 0.0
C1109 C 0.55944 0.77267 0.31426 0.0
H1110 H 0.57362 0.78579 0.252 0.0
H1111 H 0.53733 0.77564 0.27943 0.0
S1112 S 0.62119 0.77513 0.34925 0.0
N1113 N 0.629 0.78159 0.31943 0.0
N1114 N 0.58985 0.77083 0.34936 0.0
C1115 C 0.58438 0.77458 0.32433 0.0
C1116 C 0.60561 0.78059 0.30817 0.0
C1117 C 0.0079 0.17285 0.97043 0.0
C1118 C 0.01806 0.15098 0.95926 0.0
C1119 C 0.00384 0.19432 0.95595 0.0
C1120 C 0.0099 0.19484 0.92972 0.0
H1121 H 0.00337 0.17354 0.99066 0.0
H1122 H 0.99616 0.21074 0.96553 0.0
S1123 S 0.0354 0.14177 0.89094 0.0
N1124 N 0.03285 0.13061 0.92012 0.0
N1125 N 0.02568 0.17109 0.89292 0.0
C1126 C 0.01986 0.17298 0.91822 0.0
C1127 C 0.02384 0.15104 0.93298 0.0
C1128 C 0.4139 0.28507 0.19506 0.0
C1129 C 0.39311 0.26767 0.19761 0.0
C1130 C 0.43371 0.28035 0.17781 0.0
C1131 C 0.4333 0.25818 0.16222 0.0
H1132 H 0.41512 0.30222 0.20687 0.0
H1133 H 0.44949 0.29419 0.17676 0.0
S1134 S 0.38221 0.20726 0.16089 0.0
N1135 N 0.37269 0.22793 0.18269 0.0
N1136 N 0.40974 0.21898 0.15014 0.0
C1137 C 0.41226 0.24088 0.16426 0.0
C1138 C 0.39224 0.24563 0.18201 0.0
C1139 C 0.48957 0.35957 0.05254 0.0
C1140 C 0.5146 0.36606 0.04477 0.0
C1141 C 0.4844 0.33897 0.06843 0.0
C1142 C 0.50406 0.32402 0.07721 0.0
H1143 H 0.47382 0.37063 0.04643 0.0
H1144 H 0.46478 0.33483 0.07389 0.0
S1145 S 0.57289 0.33254 0.06135 0.0
N1146 N 0.55919 0.35551 0.04626 0.0
N1147 N 0.54966 0.31697 0.07639 0.0
C1148 C 0.52924 0.33032 0.06951 0.0
C1149 C 0.53446 0.35129 0.05327 0.0
C1150 C 0.57462 0.23547 0.23029 0.0
C1151 C 0.59955 0.23527 0.2205 0.0
C1152 C 0.55374 0.2392 0.2143 0.0
C1153 C 0.55701 0.24313 0.18791 0.0
H1154 H 0.5712 0.23262 0.2505 0.0
H1155 H 0.53493 0.23922 0.22282 0.0
S1156 S 0.61873 0.24466 0.15298 0.0
N1157 N 0.62654 0.23952 0.18297 0.0
N1158 N 0.5874 0.2465 0.15276 0.0
C1159 C 0.58194 0.24292 0.17788 0.0
C1160 C 0.60317 0.23897 0.1942 0.0
C1161 C 0.49428 0.16696 0.04994 0.0
C1162 C 0.49251 0.14205 0.05888 0.0
C1163 C 0.49741 0.18777 0.06696 0.0
C1164 C 0.49911 0.18446 0.0936 0.0
H1165 H 0.49284 0.17041 0.02964 0.0
H1166 H 0.49852 0.20659 0.0591 0.0
S1167 S 0.49665 0.12273 0.12649 0.0
N1168 N 0.49346 0.11502 0.09583 0.0
N1169 N 0.49929 0.154 0.12794 0.0
C1170 C 0.49766 0.15953 0.10272 0.0
C1171 C 0.49435 0.13837 0.08535 0.0
C1172 C 0.29997 0.42663 0.73937 0.0
C1173 C 0.28819 0.42131 0.71559 0.0
C1174 C 0.31574 0.44845 0.7433 0.0
C1175 C 0.32015 0.46595 0.72367 0.0
H1176 H 0.29719 0.41367 0.75501 0.0
H1177 H 0.3244 0.45163 0.76198 0.0
S1178 S 0.293 0.46093 0.65797 0.0
N1179 N 0.28146 0.43535 0.67226 0.0
N1180 N 0.31109 0.4764 0.6795 0.0
C1181 C 0.30831 0.46087 0.69978 0.0
C1182 C 0.29237 0.43853 0.69577 0.0
C1183 C 0.30397 0.61676 0.77645 0.0
C1184 C 0.27772 0.61354 0.78136 0.0
C1185 C 0.31932 0.59583 0.77315 0.0
C1186 C 0.30905 0.57084 0.77491 0.0
H1187 H 0.3127 0.63563 0.77492 0.0
H1188 H 0.33943 0.59934 0.76934 0.0
S1189 S 0.24129 0.55236 0.78811 0.0
N1190 N 0.24208 0.58366 0.78827 0.0
N1191 N 0.27077 0.54423 0.78208 0.0
C1192 C 0.28276 0.56741 0.77995 0.0
C1193 C 0.26713 0.58876 0.78313 0.0
C1194 C 0.85498 0.42944 0.4719 0.0
C1195 C 0.8636 0.44707 0.49096 0.0
C1196 C 0.83395 0.41279 0.47611 0.0
C1197 C 0.82054 0.41338 0.49939 0.0
H1198 H 0.86422 0.42883 0.45337 0.0
H1199 H 0.82778 0.39981 0.46075 0.0
S1200 S 0.83678 0.45402 0.55641 0.0
N1201 N 0.8583 0.46246 0.53484 0.0
N1202 N 0.8182 0.43186 0.54231 0.0
C1203 C 0.82918 0.43052 0.51878 0.0
C1204 C 0.85083 0.44719 0.51467 0.0
C1205 C 0.72948 0.92032 0.77624 0.0
C1206 C 0.71817 0.89572 0.77629 0.0
C1207 C 0.7147 0.9416 0.77347 0.0
C1208 C 0.68803 0.93912 0.77038 0.0
H1209 H 0.74992 0.92317 0.77863 0.0
H1210 H 0.72438 0.96013 0.77359 0.0
S1211 S 0.6493 0.87853 0.76852 0.0
N1212 N 0.67888 0.86989 0.77255 0.0
N1213 N 0.65099 0.90979 0.76737 0.0
C1214 C 0.6765 0.91452 0.77029 0.0
C1215 C 0.69158 0.89287 0.77326 0.0
C1216 C 0.66737 0.55036 0.986 0.0
C1217 C 0.64224 0.55858 0.98587 0.0
C1218 C 0.68805 0.56735 0.99126 0.0
C1219 C 0.68437 0.59317 0.99691 0.0
H1220 H 0.67108 0.53067 0.98177 0.0
H1221 H 0.70706 0.56009 0.99106 0.0
S1222 S 0.62199 0.62396 -0.00044 0.0
N1223 N 0.61463 0.59397 0.99219 0.0
N1224 N 0.65337 0.626 0.00212 0.0
C1225 C 0.65923 0.60157 0.99695 0.0
C1226 C 0.63821 0.58427 0.9914 0.0
C1227 C 0.20899 0.58387 0.20627 0.0
C1228 C 0.21178 0.601 0.22718 0.0
C1229 C 0.19371 0.56158 0.20801 0.0
C1230 C 0.18047 0.55561 0.23068 0.0
H1231 H 0.21903 0.58755 0.18853 0.0
H1232 H 0.19239 0.54891 0.19142 0.0
S1233 S 0.18042 0.59518 0.29047 0.0
N1234 N 0.1994 0.6112 0.27087 0.0
N1235 N 0.17065 0.56933 0.27432 0.0
C1236 C 0.18283 0.57286 0.25164 0.0
C1237 C 0.19851 0.59551 0.24985 0.0
C1238 C 0.86387 0.55835 0.9874 0.0
C1239 C 0.86776 0.5494 0.01218 0.0
C1240 C 0.84367 0.57397 0.98208 0.0
C1241 C 0.82647 0.58125 0.00132 0.0
H1242 H 0.87665 0.55335 0.97198 0.0
H1243 H 0.84157 0.58033 0.96266 0.0
S1244 S 0.82791 0.56211 0.06931 0.0
N1245 N 0.85245 0.54833 0.05604 0.0
N1246 N 0.81464 0.5779 0.04625 0.0
C1247 C 0.83019 0.57242 0.02625 0.0
C1248 C 0.85079 0.55648 0.03163 0.0
C1249 C 0.15083 0.94851 0.02847 0.0
C1250 C 0.15208 0.9745 0.02299 0.0
C1251 C 0.17193 0.93346 0.0246 0.0
C1252 C 0.19509 0.94377 0.015 0.0
H1253 H 0.13328 0.93964 0.03548 0.0
H1254 H 0.16993 0.9135 0.02891 0.0
S1255 S 0.2088 0.01128 -0.00053 0.0
N1256 N 0.17876 0.01026 0.0089 0.0
N1257 N 0.2183 0.98195 0.0012 0.0
C1258 C 0.19668 0.96983 0.00973 0.0
C1259 C 0.17522 0.98518 0.01381 0.0
loop_
_geom_bond_atom_site_label_1
_geom_bond_atom_site_label_2
_geom_bond_distance
_geom_bond_site_symmetry_2
_ccdc_geom_bond_type
C0 C1 1.384 . S
C0 H13 0.947 . S
C0 C35 1.382 . S
C1 C0 1.384 . S
C1 C2 1.378 . S
C2 C1 1.378 . S
C2 C3 1.378 1_655 S
C2 H14 0.952 . S
C3 C2 1.378 1_455 S
C3 H15 0.950 . S
C3 C34 1.383 . S
H4 C23 0.947 . S
H5 C24 0.946 . S
H6 C26 0.967 . S
H7 C27 0.945 . S
H8 C29 0.952 . S
H9 C30 0.949 . S
H10 C32 0.950 1_655 S
H11 C33 0.948 . S
H12 C35 0.951 . S
H13 C0 0.947 . S
H14 C2 0.952 . S
H15 C3 0.950 . S
N16 C19 1.382 . S
N16 C21 1.363 . S
N17 C19 1.371 . S
N17 C20 1.372 . S
N18 C20 1.361 . S
N18 C21 1.377 . S
C19 N16 1.382 . S
C19 N17 1.371 . S
C19 C22 1.480 . S
C20 N17 1.372 . S
C20 N18 1.361 . S
C20 C28 1.457 . S
C21 N16 1.363 . S
C21 N18 1.377 . S
C21 C34 1.479 . S
C22 C19 1.480 . S
C22 C23 1.383 1_545 S
C22 C27 1.385 . S
C23 H4 0.947 . S
C23 C22 1.383 1_565 S
C23 C24 1.388 . S
C24 H5 0.946 . S
C24 C23 1.388 . S
C24 C25 1.384 . S
C25 C24 1.384 . S
C25 C26 1.377 1_565 S
C26 H6 0.967 . S
C26 C25 1.377 1_545 S
C26 C27 1.369 . S
C27 H7 0.945 . S
C27 C22 1.385 . S
C27 C26 1.369 . S
C28 C20 1.457 . S
C28 C29 1.372 1_554 S
C28 C33 1.364 . S
C29 H8 0.952 . S
C29 C28 1.372 1_556 S
C29 C30 1.389 . S
C30 H9 0.949 . S
C30 C29 1.389 . S
C30 C31 1.387 . S
C31 C30 1.387 . S
C31 C32 1.372 1_556 S
C32 H10 0.950 1_455 S
C32 C31 1.372 1_554 S
C32 C33 1.379 . S
C33 H11 0.948 . S
C33 C28 1.364 . S
C33 C32 1.379 . S
C34 C3 1.383 . S
C34 C21 1.479 . S
C34 C35 1.398 1_455 S
C35 C0 1.382 . S
C35 H12 0.951 . S
C35 C34 1.398 1_655 S
C36 C37 1.384 . S
C36 H49 0.947 . S
C36 C71 1.382 . S
C37 C36 1.384 . S
C37 C38 1.378 . S
C38 C37 1.378 . S
C38 C39 1.378 . S
C38 H50 0.952 . S
C39 C38 1.378 . S
C39 H51 0.950 . S
C39 C70 1.383 . S
H40 C59 0.947 . S
H41 C60 0.946 . S
H42 C62 0.953 . S
H43 C63 0.945 . S
H44 C65 0.952 . S
H45 C66 0.949 . S
H46 C68 0.950 . S
H47 C69 0.948 . S
H48 C71 0.951 . S
H49 C36 0.947 . S
H50 C38 0.952 . S
H51 C39 0.950 . S
N52 C55 1.382 . S
N52 C57 1.363 . S
N53 C55 1.371 . S
N53 C56 1.372 . S
N54 C56 1.361 . S
N54 C57 1.377 . S
C55 N52 1.382 . S
C55 N53 1.371 . S
C55 C58 1.480 . S
C56 N53 1.372 . S
C56 N54 1.361 . S
C56 C64 1.457 . S
C57 N52 1.363 . S
C57 N54 1.377 . S
C57 C70 1.479 . S
C58 C55 1.480 . S
C58 C59 1.383 . S
C58 C63 1.385 . S
C59 H40 0.947 . S
C59 C58 1.383 . S
C59 C60 1.388 . S
C60 H41 0.946 . S
C60 C59 1.388 . S
C60 C61 1.384 . S
C61 C60 1.384 . S
C61 C62 1.377 . S
C62 H42 0.953 . S
C62 C61 1.377 . S
C62 C63 1.369 . S
C63 H43 0.945 . S
C63 C58 1.385 . S
C63 C62 1.369 . S
C64 C56 1.457 . S
C64 C65 1.372 . S
C64 C69 1.364 . S
C65 H44 0.952 . S
C65 C64 1.372 . S
C65 C66 1.389 . S
C66 H45 0.949 . S
C66 C65 1.389 . S
C66 C67 1.387 . S
C67 C66 1.387 . S
C67 C68 1.372 . S
C68 H46 0.950 . S
C68 C67 1.372 . S
C68 C69 1.379 . S
C69 H47 0.948 . S
C69 C64 1.364 . S
C69 C68 1.379 . S
C70 C39 1.383 . S
C70 C57 1.479 . S
C70 C71 1.398 . S
C71 C36 1.382 . S
C71 H48 0.951 . S
C71 C70 1.398 . S
C72 C73 1.384 . S
C72 H85 0.947 1_655 S
C72 C107 1.382 1_556 S
C73 C72 1.384 . S
C73 C74 1.378 . S
C74 C73 1.378 . S
C74 C75 1.378 . S
C74 H86 0.952 . S
C75 C74 1.378 . S
C75 H87 0.950 . S
C75 C106 1.352 1_556 S
H76 C95 0.947 1_556 S
H77 C96 0.946 1_556 S
H78 C98 0.953 . S
H79 C99 0.945 . S
H80 C101 0.952 . S
H81 C102 0.949 . S
H82 C104 0.950 . S
H83 C105 0.948 . S
H84 C107 0.951 1_455 S
H85 C72 0.947 1_455 S
H86 C74 0.952 . S
H87 C75 0.950 . S
N88 C91 1.382 . S
N88 C93 1.363 . S
N89 C91 1.371 . S
N89 C92 1.372 . S
N90 C92 1.361 . S
N90 C93 1.377 . S
C91 N88 1.382 . S
C91 N89 1.371 . S
C91 C94 1.480 . S
C92 N89 1.372 . S
C92 N90 1.361 . S
C92 C100 1.457 1_655 S
C93 N88 1.363 . S
C93 N90 1.377 . S
C93 C106 1.501 . S
C94 C91 1.480 . S
C94 C95 1.383 . S
C94 C99 1.385 . S
C95 H76 0.947 1_554 S
C95 C94 1.383 . S
C95 C96 1.388 . S
C96 H77 0.946 1_554 S
C96 C95 1.388 . S
C96 C97 1.384 . S
C97 C96 1.384 . S
C97 C98 1.377 . S
C98 H78 0.953 . S
C98 C97 1.377 . S
C98 C99 1.369 . S
C99 H79 0.945 . S
C99 C94 1.385 . S
C99 C98 1.369 . S
C100 C92 1.457 1_455 S
C100 C101 1.372 1_455 S
C100 C105 1.364 . S
C101 H80 0.952 . S
C101 C100 1.372 1_655 S
C101 C102 1.389 1_655 S
C102 H81 0.949 . S
C102 C101 1.389 1_455 S
C102 C103 1.387 . S
C103 C102 1.387 . S
C103 C104 1.372 . S
C104 H82 0.950 . S
C104 C103 1.372 . S
C104 C105 1.379 . S
C105 H83 0.948 . S
C105 C100 1.364 . S
C105 C104 1.379 . S
C106 C75 1.352 1_554 S
C106 C93 1.501 . S
C106 C107 1.408 . S
C107 C72 1.382 1_554 S
C107 H84 0.951 1_655 S
C107 C106 1.408 . S
C108 C109 1.384 . S
C108 H121 0.947 . S
C108 C143 1.382 . S
C109 C108 1.384 . S
C109 C110 1.378 . S
C110 C109 1.378 . S
C110 C111 1.378 . S
C110 H122 0.952 . S
C111 C110 1.378 . S
C111 H123 0.950 . S
C111 C142 1.383 . S
H112 C131 0.947 . S
H113 C132 0.946 . S
H114 C134 0.953 . S
H115 C135 0.945 . S
H116 C137 0.952 . S
H117 C138 0.949 . S
H118 C140 0.950 . S
H119 C141 0.948 . S
H120 C143 0.951 . S
H121 C108 0.947 . S
H122 C110 0.952 . S
H123 C111 0.950 . S
N124 C127 1.382 . S
N124 C129 1.363 . S
N125 C127 1.371 . S
N125 C128 1.372 . S
N126 C128 1.361 . S
N126 C129 1.377 . S
C127 N124 1.382 . S
C127 N125 1.371 . S
C127 C130 1.480 . S
C128 N125 1.372 . S
C128 N126 1.361 . S
C128 C136 1.457 . S
C129 N124 1.363 . S
C129 N126 1.377 . S
C129 C142 1.479 . S
C130 C127 1.480 . S
C130 C131 1.383 . S
C130 C135 1.385 . S
C131 H112 0.947 . S
C131 C130 1.383 . S
C131 C132 1.388 . S
C132 H113 0.946 . S
C132 C131 1.388 . S
C132 C133 1.384 . S
C133 C132 1.384 . S
C133 C134 1.377 . S
C134 H114 0.953 . S
C134 C133 1.377 . S
C134 C135 1.369 . S
C135 H115 0.945 . S
C135 C130 1.385 . S
C135 C134 1.369 . S
C136 C128 1.457 . S
C136 C137 1.372 . S
C136 C141 1.364 . S
C137 H116 0.952 . S
C137 C136 1.372 . S
C137 C138 1.389 . S
C138 H117 0.949 . S
C138 C137 1.389 . S
C138 C139 1.387 . S
C139 C138 1.387 . S
C139 C140 1.372 . S
C140 H118 0.950 . S
C140 C139 1.372 . S
C140 C141 1.379 . S
C141 H119 0.948 . S
C141 C136 1.364 . S
C141 C140 1.379 . S
C142 C111 1.383 . S
C142 C129 1.479 . S
C142 C143 1.398 . S
C143 C108 1.382 . S
C143 H120 0.951 . S
C143 C142 1.398 . S
C144 C145 1.384 . S
C144 H157 0.947 . S
C144 C179 1.382 . S
C145 C144 1.384 . S
C145 C146 1.378 . S
C146 C145 1.378 . S
C146 C147 1.378 . S
C146 H158 0.952 1_455 S
C147 C146 1.378 . S
C147 H159 0.950 . S
C147 C178 1.383 . S
H148 C167 0.947 . S
H149 C168 0.946 . S
H150 C170 0.956 . S
H151 C171 0.945 1_545 S
H152 C173 0.952 . S
H153 C174 0.949 . S
H154 C176 0.950 . S
H155 C177 0.948 . S
H156 C179 0.951 . S
H157 C144 0.947 . S
H158 C146 0.952 1_655 S
H159 C147 0.950 . S
N160 C163 1.382 . S
N160 C165 1.363 . S
N161 C163 1.371 . S
N161 C164 1.372 . S
N162 C164 1.361 . S
N162 C165 1.377 . S
C163 N160 1.382 . S
C163 N161 1.371 . S
C163 C166 1.480 . S
C164 N161 1.372 . S
C164 N162 1.361 . S
C164 C172 1.457 1_565 S
C165 N160 1.363 . S
C165 N162 1.377 . S
C165 C178 1.479 . S
C166 C163 1.480 . S
C166 C167 1.383 1_455 S
C166 C171 1.385 . S
C167 H148 0.947 . S
C167 C166 1.383 1_655 S
C167 C168 1.388 . S
C168 H149 0.946 . S
C168 C167 1.388 . S
C168 C169 1.384 . S
C169 C168 1.384 . S
C169 C170 1.377 1_565 S
C170 H150 0.956 . S
C170 C169 1.377 1_545 S
C170 C171 1.369 1_645 S
C171 H151 0.945 1_565 S
C171 C166 1.385 . S
C171 C170 1.369 1_465 S
C172 C164 1.457 1_545 S
C172 C173 1.372 . S
C172 C177 1.364 1_545 S
C173 H152 0.952 . S
C173 C172 1.372 . S
C173 C174 1.389 . S
C174 H153 0.949 . S
C174 C173 1.389 . S
C174 C175 1.387 . S
C175 C174 1.387 . S
C175 C176 1.372 . S
C176 H154 0.950 . S
C176 C175 1.372 . S
C176 C177 1.379 1_545 S
C177 H155 0.948 . S
C177 C172 1.364 1_565 S
C177 C176 1.379 1_565 S
C178 C147 1.383 . S
C178 C165 1.479 . S
C178 C179 1.398 . S
C179 C144 1.382 . S
C179 H156 0.951 . S
C179 C178 1.398 . S
C180 C181 1.384 . S
C180 H193 0.947 . S
C180 C215 1.382 . S
C181 C180 1.384 . S
C181 C182 1.378 . S
C182 C181 1.378 . S
C182 C183 1.378 . S
C182 H194 0.952 . S
C183 C182 1.378 . S
C183 H195 0.950 . S
C183 C214 1.383 . S
H184 C203 0.947 . S
H185 C204 0.946 . S
H186 C206 0.953 . S
H187 C207 0.945 . S
H188 C209 0.952 . S
H189 C210 0.949 . S
H190 C212 0.950 . S
H191 C213 0.948 . S
H192 C215 0.951 . S
H193 C180 0.947 . S
H194 C182 0.952 . S
H195 C183 0.950 . S
N196 C199 1.382 . S
N196 C201 1.363 . S
N197 C199 1.371 . S
N197 C200 1.372 . S
N198 C200 1.361 . S
N198 C201 1.377 . S
C199 N196 1.382 . S
C199 N197 1.371 . S
C199 C202 1.480 . S
C200 N197 1.372 . S
C200 N198 1.361 . S
C200 C208 1.457 . S
C201 N196 1.363 . S
C201 N198 1.377 . S
C201 C214 1.479 . S
C202 C199 1.480 . S
C202 C203 1.383 . S
C202 C207 1.385 . S
C203 H184 0.947 . S
C203 C202 1.383 . S
C203 C204 1.388 . S
C204 H185 0.946 . S
C204 C203 1.388 . S
C204 C205 1.384 . S
C205 C204 1.384 . S
C205 C206 1.377 . S
C206 H186 0.953 . S
C206 C205 1.377 . S
C206 C207 1.369 . S
C207 H187 0.945 . S
C207 C202 1.385 . S
C207 C206 1.369 . S
C208 C200 1.457 . S
C208 C209 1.372 . S
C208 C213 1.364 . S
C209 H188 0.952 . S
C209 C208 1.372 . S
C209 C210 1.389 . S
C210 H189 0.949 . S
C210 C209 1.389 . S
C210 C211 1.387 . S
C211 C210 1.387 . S
C211 C212 1.372 . S
C212 H190 0.950 . S
C212 C211 1.372 . S
C212 C213 1.379 . S
C213 H191 0.948 . S
C213 C208 1.364 . S
C213 C212 1.379 . S
C214 C183 1.383 . S
C214 C201 1.479 . S
C214 C215 1.398 . S
C215 C180 1.382 . S
C215 H192 0.951 . S
C215 C214 1.398 . S
C216 C217 1.384 . S
C216 H229 0.947 1_655 S
C216 C251 1.382 . S
C217 C216 1.384 . S
C217 C218 1.378 . S
C218 C217 1.378 . S
C218 C219 1.378 . S
C218 H230 0.952 . S
C219 C218 1.378 . S
C219 H231 0.950 . S
C219 C250 1.383 . S
H220 C239 0.947 . S
H221 C240 0.946 . S
H222 C242 0.953 . S
H223 C243 0.945 . S
H224 C245 0.952 . S
H225 C246 0.949 . S
H226 C248 0.950 . S
H227 C249 0.948 . S
H228 C251 0.951 1_455 S
H229 C216 0.947 1_455 S
H230 C218 0.952 . S
H231 C219 0.950 . S
N232 C235 1.382 . S
N232 C237 1.363 . S
N233 C235 1.371 . S
N233 C236 1.372 . S
N234 C236 1.361 . S
N234 C237 1.377 . S
C235 N232 1.382 . S
C235 N233 1.371 . S
C235 C238 1.480 . S
C236 N233 1.372 . S
C236 N234 1.361 . S
C236 C244 1.457 1_655 S
C237 N232 1.363 . S
C237 N234 1.377 . S
C237 C250 1.479 . S
C238 C235 1.480 . S
C238 C239 1.383 . S
C238 C243 1.385 . S
C239 H220 0.947 . S
C239 C238 1.383 . S
C239 C240 1.388 . S
C240 H221 0.946 . S
C240 C239 1.388 . S
C240 C241 1.384 . S
C241 C240 1.384 . S
C241 C242 1.377 . S
C242 H222 0.953 . S
C242 C241 1.377 . S
C242 C243 1.369 . S
C243 H223 0.945 . S
C243 C238 1.385 . S
C243 C242 1.369 . S
C244 C236 1.457 1_455 S
C244 C245 1.372 1_455 S
C244 C249 1.364 . S
C245 H224 0.952 . S
C245 C244 1.372 1_655 S
C245 C246 1.389 1_655 S
C246 H225 0.949 . S
C246 C245 1.389 1_455 S
C246 C247 1.387 . S
C247 C246 1.387 . S
C247 C248 1.372 . S
C248 H226 0.950 . S
C248 C247 1.372 . S
C248 C249 1.379 . S
C249 H227 0.948 . S
C249 C244 1.364 . S
C249 C248 1.379 . S
C250 C219 1.383 . S
C250 C237 1.479 . S
C250 C251 1.398 . S
C251 C216 1.382 . S
C251 H228 0.951 1_655 S
C251 C250 1.398 . S
C252 C253 1.384 . S
C252 H265 0.947 . S
C252 C287 1.382 . S
C253 C252 1.384 . S
C253 C254 1.378 . S
C254 C253 1.378 . S
C254 C255 1.378 . S
C254 H266 0.952 . S
C255 C254 1.378 . S
C255 H267 0.950 . S
C255 C286 1.383 . S
H256 C275 0.947 . S
H257 C276 0.946 . S
H258 C278 0.953 . S
H259 C279 0.945 . S
H260 C281 0.952 . S
H261 C282 0.949 . S
H262 C284 0.950 . S
H263 C285 0.948 . S
H264 C287 0.951 . S
H265 C252 0.947 . S
H266 C254 0.952 . S
H267 C255 0.950 . S
N268 C271 1.382 . S
N268 C273 1.363 . S
N269 C271 1.371 . S
N269 C272 1.372 . S
N270 C272 1.361 . S
N270 C273 1.377 . S
C271 N268 1.382 . S
C271 N269 1.371 . S
C271 C274 1.480 . S
C272 N269 1.372 . S
C272 N270 1.361 . S
C272 C280 1.457 . S
C273 N268 1.363 . S
C273 N270 1.377 . S
C273 C286 1.479 . S
C274 C271 1.480 . S
C274 C275 1.383 . S
C274 C279 1.385 . S
C275 H256 0.947 . S
C275 C274 1.383 . S
C275 C276 1.388 . S
C276 H257 0.946 . S
C276 C275 1.388 . S
C276 C277 1.384 . S
C277 C276 1.384 . S
C277 C278 1.377 . S
C278 H258 0.953 . S
C278 C277 1.377 . S
C278 C279 1.369 . S
C279 H259 0.945 . S
C279 C274 1.385 . S
C279 C278 1.369 . S
C280 C272 1.457 . S
C280 C281 1.372 . S
C280 C285 1.364 . S
C281 H260 0.952 . S
C281 C280 1.372 . S
C281 C282 1.389 . S
C282 H261 0.949 . S
C282 C281 1.389 . S
C282 C283 1.387 . S
C283 C282 1.387 . S
C283 C284 1.372 . S
C284 H262 0.950 . S
C284 C283 1.372 . S
C284 C285 1.379 . S
C285 H263 0.948 . S
C285 C280 1.364 . S
C285 C284 1.379 . S
C286 C255 1.383 . S
C286 C273 1.479 . S
C286 C287 1.398 . S
C287 C252 1.382 . S
C287 H264 0.951 . S
C287 C286 1.398 . S
C288 C289 1.384 . S
C288 H301 0.947 . S
C288 C323 1.382 . S
C289 C288 1.384 . S
C289 C290 1.378 . S
C290 C289 1.378 . S
C290 C291 1.378 . S
C290 H302 0.952 . S
C291 C290 1.378 . S
C291 H303 0.950 . S
C291 C322 1.383 . S
H292 C311 0.947 . S
H293 C312 0.946 . S
H294 C314 0.953 . S
H295 C315 0.945 . S
H296 C317 0.952 . S
H297 C318 0.949 . S
H298 C320 0.950 . S
H299 C321 0.948 . S
H300 C323 0.951 . S
H301 C288 0.947 . S
H302 C290 0.952 . S
H303 C291 0.950 . S
N304 C307 1.382 . S
N304 C309 1.363 . S
N305 C307 1.371 . S
N305 C308 1.372 . S
N306 C308 1.361 . S
N306 C309 1.377 . S
C307 N304 1.382 . S
C307 N305 1.371 . S
C307 C310 1.480 . S
C308 N305 1.372 . S
C308 N306 1.361 . S
C308 C316 1.457 . S
C309 N304 1.363 . S
C309 N306 1.377 . S
C309 C322 1.479 . S
C310 C307 1.480 . S
C310 C311 1.383 . S
C310 C315 1.385 . S
C311 H292 0.947 . S
C311 C310 1.383 . S
C311 C312 1.388 . S
C312 H293 0.946 . S
C312 C311 1.388 . S
C312 C313 1.384 . S
C313 C312 1.384 . S
C313 C314 1.377 . S
C314 H294 0.953 . S
C314 C313 1.377 . S
C314 C315 1.369 . S
C315 H295 0.945 . S
C315 C310 1.385 . S
C315 C314 1.369 . S
C316 C308 1.457 . S
C316 C317 1.372 . S
C316 C321 1.364 . S
C317 H296 0.952 . S
C317 C316 1.372 . S
C317 C318 1.389 . S
C318 H297 0.949 . S
C318 C317 1.389 . S
C318 C319 1.387 . S
C319 C318 1.387 . S
C319 C320 1.372 . S
C320 H298 0.950 . S
C320 C319 1.372 . S
C320 C321 1.379 . S
C321 H299 0.948 . S
C321 C316 1.364 . S
C321 C320 1.379 . S
C322 C291 1.383 . S
C322 C309 1.479 . S
C322 C323 1.398 . S
C323 C288 1.382 . S
C323 H300 0.951 . S
C323 C322 1.398 . S
C324 C325 1.384 . S
C324 H337 0.947 . S
C324 C359 1.382 . S
C325 C324 1.384 . S
C325 C326 1.378 . S
C326 C325 1.378 . S
C326 C327 1.378 . S
C326 H338 0.952 . S
C327 C326 1.378 . S
C327 H339 0.950 . S
C327 C358 1.383 . S
H328 C347 0.947 . S
H329 C348 0.946 . S
H330 C350 0.953 . S
H331 C351 0.945 . S
H332 C353 0.952 1_545 S
H333 C354 0.949 1_545 S
H334 C356 0.950 . S
H335 C357 0.948 . S
H336 C359 0.951 . S
H337 C324 0.947 . S
H338 C326 0.952 . S
H339 C327 0.950 . S
N340 C343 1.382 . S
N340 C345 1.363 . S
N341 C343 1.371 . S
N341 C344 1.372 . S
N342 C344 1.361 . S
N342 C345 1.377 . S
C343 N340 1.382 . S
C343 N341 1.371 . S
C343 C346 1.480 1_565 S
C344 N341 1.372 . S
C344 N342 1.361 . S
C344 C352 1.457 . S
C345 N340 1.363 . S
C345 N342 1.377 . S
C345 C358 1.479 . S
C346 C343 1.480 1_545 S
C346 C347 1.383 1_545 S
C346 C351 1.385 . S
C347 H328 0.947 . S
C347 C346 1.383 1_565 S
C347 C348 1.388 1_565 S
C348 H329 0.946 . S
C348 C347 1.388 1_545 S
C348 C349 1.384 . S
C349 C348 1.384 . S
C349 C350 1.377 . S
C350 H330 0.953 . S
C350 C349 1.377 . S
C350 C351 1.369 . S
C351 H331 0.945 . S
C351 C346 1.385 . S
C351 C350 1.369 . S
C352 C344 1.457 . S
C352 C353 1.372 . S
C352 C357 1.364 . S
C353 H332 0.952 1_565 S
C353 C352 1.372 . S
C353 C354 1.389 . S
C354 H333 0.949 1_565 S
C354 C353 1.389 . S
C354 C355 1.387 . S
C355 C354 1.387 . S
C355 C356 1.372 . S
C356 H334 0.950 . S
C356 C355 1.372 . S
C356 C357 1.379 . S
C357 H335 0.948 . S
C357 C352 1.364 . S
C357 C356 1.379 . S
C358 C327 1.383 . S
C358 C345 1.479 . S
C358 C359 1.398 . S
C359 C324 1.382 . S
C359 H336 0.951 . S
C359 C358 1.398 . S
C360 C361 1.384 . S
C360 H373 0.947 . S
C360 C395 1.382 . S
C361 C360 1.384 . S
C361 C362 1.378 . S
C362 C361 1.378 . S
C362 C363 1.378 . S
C362 H374 0.952 . S
C363 C362 1.378 . S
C363 H375 0.950 . S
C363 C394 1.383 . S
H364 C383 0.947 . S
H365 C384 0.946 . S
H366 C386 0.953 . S
H367 C387 0.945 . S
H368 C389 0.952 . S
H369 C390 0.949 . S
H370 C392 0.950 . S
H371 C393 0.948 . S
H372 C395 0.951 . S
H373 C360 0.947 . S
H374 C362 0.952 . S
H375 C363 0.950 . S
N376 C379 1.382 . S
N376 C381 1.363 . S
N377 C379 1.371 . S
N377 C380 1.372 . S
N378 C380 1.361 . S
N378 C381 1.377 . S
C379 N376 1.382 . S
C379 N377 1.371 . S
C379 C382 1.480 . S
C380 N377 1.372 . S
C380 N378 1.361 . S
C380 C388 1.457 . S
C381 N376 1.363 . S
C381 N378 1.377 . S
C381 C394 1.479 . S
C382 C379 1.480 . S
C382 C383 1.383 . S
C382 C387 1.385 . S
C383 H364 0.947 . S
C383 C382 1.383 . S
C383 C384 1.388 . S
C384 H365 0.946 . S
C384 C383 1.388 . S
C384 C385 1.384 . S
C385 C384 1.384 . S
C385 C386 1.377 . S
C386 H366 0.953 . S
C386 C385 1.377 . S
C386 C387 1.369 . S
C387 H367 0.945 . S
C387 C382 1.385 . S
C387 C386 1.369 . S
C388 C380 1.457 . S
C388 C389 1.372 . S
C388 C393 1.364 . S
C389 H368 0.952 . S
C389 C388 1.372 . S
C389 C390 1.389 . S
C390 H369 0.949 . S
C390 C389 1.389 . S
C390 C391 1.387 . S
C391 C390 1.387 . S
C391 C392 1.372 . S
C392 H370 0.950 . S
C392 C391 1.372 . S
C392 C393 1.379 . S
C393 H371 0.948 . S
C393 C388 1.364 . S
C393 C392 1.379 . S
C394 C363 1.383 . S
C394 C381 1.479 . S
C394 C395 1.398 . S
C395 C360 1.382 . S
C395 H372 0.951 . S
C395 C394 1.398 . S
C396 C397 1.384 . S
C396 H409 0.947 . S
C396 C431 1.382 . S
C397 C396 1.384 . S
C397 C398 1.378 . S
C398 C397 1.378 . S
C398 C399 1.378 . S
C398 H410 0.952 . S
C399 C398 1.378 . S
C399 H411 0.950 . S
C399 C430 1.383 . S
H400 C419 0.947 . S
H401 C420 0.946 . S
H402 C422 0.953 . S
H403 C423 0.945 . S
H404 C425 0.952 . S
H405 C426 0.949 . S
H406 C428 0.950 . S
H407 C429 0.948 . S
H408 C431 0.951 . S
H409 C396 0.947 . S
H410 C398 0.952 . S
H411 C399 0.950 . S
N412 C415 1.382 . S
N412 C417 1.363 . S
N413 C415 1.371 . S
N413 C416 1.372 . S
N414 C416 1.361 . S
N414 C417 1.377 . S
C415 N412 1.382 . S
C415 N413 1.371 . S
C415 C418 1.480 . S
C416 N413 1.372 . S
C416 N414 1.361 . S
C416 C424 1.457 . S
C417 N412 1.363 . S
C417 N414 1.377 . S
C417 C430 1.479 . S
C418 C415 1.480 . S
C418 C419 1.383 . S
C418 C423 1.385 . S
C419 H400 0.947 . S
C419 C418 1.383 . S
C419 C420 1.388 . S
C420 H401 0.946 . S
C420 C419 1.388 . S
C420 C421 1.384 . S
C421 C420 1.384 . S
C421 C422 1.377 . S
C422 H402 0.953 . S
C422 C421 1.377 . S
C422 C423 1.369 . S
C423 H403 0.945 . S
C423 C418 1.385 . S
C423 C422 1.369 . S
C424 C416 1.457 . S
C424 C425 1.372 . S
C424 C429 1.364 . S
C425 H404 0.952 . S
C425 C424 1.372 . S
C425 C426 1.389 . S
C426 H405 0.949 . S
C426 C425 1.389 . S
C426 C427 1.387 . S
C427 C426 1.387 . S
C427 C428 1.372 . S
C428 H406 0.950 . S
C428 C427 1.372 . S
C428 C429 1.379 . S
C429 H407 0.948 . S
C429 C424 1.364 . S
C429 C428 1.379 . S
C430 C399 1.383 . S
C430 C417 1.479 . S
C430 C431 1.398 . S
C431 C396 1.382 . S
C431 H408 0.951 . S
C431 C430 1.398 . S
C432 C433 1.384 . S
C432 H445 0.947 . S
C432 C467 1.382 . S
C433 C432 1.384 . S
C433 C434 1.378 . S
C434 C433 1.378 . S
C434 C435 1.378 . S
C434 H446 0.952 . S
C435 C434 1.378 . S
C435 H447 0.950 . S
C435 C466 1.383 . S
H436 C455 0.947 . S
H437 C456 0.946 . S
H438 C458 0.953 . S
H439 C459 0.945 . S
H440 C461 0.952 . S
H441 C462 0.949 . S
H442 C464 0.950 . S
H443 C465 0.948 . S
H444 C467 0.951 . S
H445 C432 0.947 . S
H446 C434 0.952 . S
H447 C435 0.950 . S
N448 C451 1.382 . S
N448 C453 1.363 . S
N449 C451 1.371 . S
N449 C452 1.372 . S
N450 C452 1.361 . S
N450 C453 1.377 . S
C451 N448 1.382 . S
C451 N449 1.371 . S
C451 C454 1.480 . S
C452 N449 1.372 . S
C452 N450 1.361 . S
C452 C460 1.457 . S
C453 N448 1.363 . S
C453 N450 1.377 . S
C453 C466 1.479 . S
C454 C451 1.480 . S
C454 C455 1.383 . S
C454 C459 1.385 . S
C455 H436 0.947 . S
C455 C454 1.383 . S
C455 C456 1.388 . S
C456 H437 0.946 . S
C456 C455 1.388 . S
C456 C457 1.384 . S
C457 C456 1.384 . S
C457 C458 1.377 . S
C458 H438 0.953 . S
C458 C457 1.377 . S
C458 C459 1.369 . S
C459 H439 0.945 . S
C459 C454 1.385 . S
C459 C458 1.369 . S
C460 C452 1.457 . S
C460 C461 1.372 . S
C460 C465 1.364 . S
C461 H440 0.952 . S
C461 C460 1.372 . S
C461 C462 1.389 . S
C462 H441 0.949 . S
C462 C461 1.389 . S
C462 C463 1.387 . S
C463 C462 1.387 . S
C463 C464 1.372 . S
C464 H442 0.950 . S
C464 C463 1.372 . S
C464 C465 1.379 . S
C465 H443 0.948 . S
C465 C460 1.364 . S
C465 C464 1.379 . S
C466 C435 1.383 . S
C466 C453 1.479 . S
C466 C467 1.398 . S
C467 C432 1.382 . S
C467 H444 0.951 . S
C467 C466 1.398 . S
C468 C469 1.384 . S
C468 H481 0.947 . S
C468 C503 1.382 . S
C469 C468 1.384 . S
C469 C470 1.378 . S
C470 C469 1.378 . S
C470 C471 1.378 1_554 S
C470 H482 0.952 1_554 S
C471 C470 1.378 1_556 S
C471 H483 0.950 . S
C471 C502 1.383 . S
H472 C491 0.947 . S
H473 C492 0.946 . S
H474 C494 0.953 . S
H475 C495 0.945 . S
H476 C497 0.952 . S
H477 C498 0.949 . S
H478 C500 0.942 1_554 S
H479 C501 0.948 . S
H480 C503 0.951 . S
H481 C468 0.947 . S
H482 C470 0.952 1_556 S
H483 C471 0.950 . S
N484 C487 1.382 . S
N484 C489 1.363 . S
N485 C487 1.371 . S
N485 C488 1.372 . S
N486 C488 1.361 . S
N486 C489 1.377 . S
C487 N484 1.382 . S
C487 N485 1.371 . S
C487 C490 1.480 . S
C488 N485 1.372 . S
C488 N486 1.361 . S
C488 C496 1.457 . S
C489 N484 1.363 . S
C489 N486 1.377 . S
C489 C502 1.479 . S
C490 C487 1.480 . S
C490 C491 1.383 . S
C490 C495 1.385 . S
C491 H472 0.947 . S
C491 C490 1.383 . S
C491 C492 1.388 . S
C492 H473 0.946 . S
C492 C491 1.388 . S
C492 C493 1.384 . S
C493 C492 1.384 . S
C493 C494 1.377 . S
C494 H474 0.953 . S
C494 C493 1.377 . S
C494 C495 1.369 . S
C495 H475 0.945 . S
C495 C490 1.385 . S
C495 C494 1.369 . S
C496 C488 1.457 . S
C496 C497 1.372 . S
C496 C501 1.364 . S
C497 H476 0.952 . S
C497 C496 1.372 . S
C497 C498 1.389 . S
C498 H477 0.949 . S
C498 C497 1.389 . S
C498 C499 1.387 . S
C499 C498 1.387 . S
C499 C500 1.372 . S
C500 H478 0.942 1_556 S
C500 C499 1.372 . S
C500 C501 1.379 . S
C501 H479 0.948 . S
C501 C496 1.364 . S
C501 C500 1.379 . S
C502 C471 1.383 . S
C502 C489 1.479 . S
C502 C503 1.398 1_556 S
C503 C468 1.382 . S
C503 H480 0.951 . S
C503 C502 1.398 1_554 S
C504 C505 1.384 . S
C504 H517 0.947 . S
C504 C539 1.382 . S
C505 C504 1.384 . S
C505 C506 1.378 . S
C506 C505 1.378 . S
C506 C507 1.378 . S
C506 H518 0.952 . S
C507 C506 1.378 . S
C507 H519 0.950 . S
C507 C538 1.383 . S
H508 C527 0.947 . S
H509 C528 0.946 . S
H510 C530 0.953 . S
H511 C531 0.945 . S
H512 C533 0.952 . S
H513 C534 0.949 . S
H514 C536 0.950 . S
H515 C537 0.948 . S
H516 C539 0.951 . S
H517 C504 0.947 . S
H518 C506 0.952 . S
H519 C507 0.950 . S
N520 C523 1.382 . S
N520 C525 1.363 . S
N521 C523 1.371 . S
N521 C524 1.372 . S
N522 C524 1.361 . S
N522 C525 1.377 . S
C523 N520 1.382 . S
C523 N521 1.371 . S
C523 C526 1.480 . S
C524 N521 1.372 . S
C524 N522 1.361 . S
C524 C532 1.457 . S
C525 N520 1.363 . S
C525 N522 1.377 . S
C525 C538 1.479 . S
C526 C523 1.480 . S
C526 C527 1.383 . S
C526 C531 1.385 . S
C527 H508 0.947 . S
C527 C526 1.383 . S
C527 C528 1.388 . S
C528 H509 0.946 . S
C528 C527 1.388 . S
C528 C529 1.384 . S
C529 C528 1.384 . S
C529 C530 1.377 . S
C530 H510 0.953 . S
C530 C529 1.377 . S
C530 C531 1.369 . S
C531 H511 0.945 . S
C531 C526 1.385 . S
C531 C530 1.369 . S
C532 C524 1.457 . S
C532 C533 1.372 . S
C532 C537 1.364 . S
C533 H512 0.952 . S
C533 C532 1.372 . S
C533 C534 1.389 . S
C534 H513 0.949 . S
C534 C533 1.389 . S
C534 C535 1.387 . S
C535 C534 1.387 . S
C535 C536 1.372 . S
C536 H514 0.950 . S
C536 C535 1.372 . S
C536 C537 1.379 . S
C537 H515 0.948 . S
C537 C532 1.364 . S
C537 C536 1.379 . S
C538 C507 1.383 . S
C538 C525 1.479 . S
C538 C539 1.398 . S
C539 C504 1.382 . S
C539 H516 0.951 . S
C539 C538 1.398 . S
C540 C541 1.384 . S
C540 H553 0.947 . S
C540 C575 1.382 1_554 S
C541 C540 1.384 . S
C541 C542 1.378 . S
C542 C541 1.378 . S
C542 C543 1.378 . S
C542 H554 0.952 . S
C543 C542 1.378 . S
C543 H555 0.950 . S
C543 C574 1.383 . S
H544 C563 0.947 1_554 S
H545 C564 0.932 1_544 S
H546 C566 0.953 . S
H547 C567 0.945 . S
H548 C569 0.952 . S
H549 C570 0.949 1_565 S
H550 C572 0.950 . S
H551 C573 0.948 . S
H552 C575 0.951 . S
H553 C540 0.947 . S
H554 C542 0.952 . S
H555 C543 0.950 . S
N556 C559 1.382 . S
N556 C561 1.363 . S
N557 C559 1.371 . S
N557 C560 1.372 . S
N558 C560 1.361 . S
N558 C561 1.377 . S
C559 N556 1.382 . S
C559 N557 1.371 . S
C559 C562 1.480 . S
C560 N557 1.372 . S
C560 N558 1.361 . S
C560 C568 1.457 . S
C561 N556 1.363 . S
C561 N558 1.377 . S
C561 C574 1.479 1_556 S
C562 C559 1.480 . S
C562 C563 1.383 . S
C562 C567 1.385 1_545 S
C563 H544 0.947 1_556 S
C563 C562 1.383 . S
C563 C564 1.390 1_545 S
C564 H545 0.932 1_566 S
C564 C563 1.390 1_565 S
C564 C565 1.390 . S
C565 C564 1.390 . S
C565 C566 1.377 . S
C566 H546 0.953 . S
C566 C565 1.377 . S
C566 C567 1.369 . S
C567 H547 0.945 . S
C567 C562 1.385 1_565 S
C567 C566 1.369 . S
C568 C560 1.457 . S
C568 C569 1.372 . S
C568 C573 1.364 . S
C569 H548 0.952 . S
C569 C568 1.372 . S
C569 C570 1.389 . S
C570 H549 0.949 1_545 S
C570 C569 1.389 . S
C570 C571 1.387 . S
C571 C570 1.387 . S
C571 C572 1.372 . S
C572 H550 0.950 . S
C572 C571 1.372 . S
C572 C573 1.379 . S
C573 H551 0.948 . S
C573 C568 1.364 . S
C573 C572 1.379 . S
C574 C543 1.383 . S
C574 C561 1.479 1_554 S
C574 C575 1.398 1_554 S
C575 C540 1.382 1_556 S
C575 H552 0.951 . S
C575 C574 1.398 1_556 S
C576 O577 1.160 1_554 S
C576 O583 1.185 . S
O577 C576 1.160 1_556 S
O578 Zn579 1.899 1_556 S
O578 C586 1.284 . S
Zn579 O578 1.899 1_554 S
Zn579 O580 2.032 . S
Zn579 O583 2.086 . S
Zn579 O588 1.977 . S
O580 Zn579 2.032 . S
O580 C584 1.278 . S
C581 O582 1.203 . S
C581 O588 1.267 . S
O582 C581 1.203 . S
O583 C576 1.185 . S
O583 Zn579 2.086 . S
C584 O580 1.278 . S
C584 O585 1.211 . S
O585 C584 1.211 . S
C586 O578 1.284 . S
C586 O587 1.273 . S
O587 C586 1.273 . S
O588 Zn579 1.977 . S
O588 C581 1.267 . S
C589 O590 1.160 . S
C589 O596 1.185 . S
O590 C589 1.160 . S
O591 Zn592 1.899 . S
O591 C599 1.284 . S
Zn592 O591 1.899 . S
Zn592 O593 2.032 . S
Zn592 O596 2.086 . S
Zn592 O601 1.977 . S
O593 Zn592 2.032 . S
O593 C597 1.278 . S
C594 O595 1.203 . S
C594 O601 1.267 . S
O595 C594 1.203 . S
O596 C589 1.185 . S
O596 Zn592 2.086 . S
C597 O593 1.278 . S
C597 O598 1.211 . S
O598 C597 1.211 . S
C599 O591 1.284 . S
C599 O600 1.273 . S
O600 C599 1.273 . S
O601 Zn592 1.977 . S
O601 C594 1.267 . S
C602 O603 1.160 1_554 S
C602 O609 1.185 . S
O603 C602 1.160 1_556 S
O604 Zn605 1.899 1_556 S
O604 C612 1.284 . S
Zn605 O604 1.899 1_554 S
Zn605 O606 2.032 1_554 S
Zn605 O609 2.086 . S
Zn605 O614 1.977 . S
O606 Zn605 2.032 1_556 S
O606 C610 1.278 . S
C607 O608 1.203 . S
C607 O614 1.267 . S
O608 C607 1.203 . S
O609 C602 1.185 . S
O609 Zn605 2.086 . S
C610 O606 1.278 . S
C610 O611 1.211 1_556 S
O611 C610 1.211 1_554 S
C612 O604 1.284 . S
C612 O613 1.273 . S
O613 C612 1.273 . S
O614 Zn605 1.977 . S
O614 C607 1.267 . S
C615 O616 1.160 . S
C615 O622 1.185 . S
O616 C615 1.160 . S
O617 Zn618 1.899 . S
O617 C625 1.284 . S
Zn618 O617 1.899 . S
Zn618 O619 2.032 1_545 S
Zn618 O622 2.086 . S
Zn618 O627 1.977 . S
O619 Zn618 2.032 1_565 S
O619 C623 1.278 . S
C620 O621 1.203 . S
C620 O627 1.267 . S
O621 C620 1.203 . S
O622 C615 1.185 . S
O622 Zn618 2.086 . S
C623 O619 1.278 . S
C623 O624 1.211 . S
O624 C623 1.211 . S
C625 O617 1.284 . S
C625 O626 1.273 1_545 S
O626 C625 1.273 1_565 S
O627 Zn618 1.977 . S
O627 C620 1.267 . S
C628 O629 1.160 . S
C628 O635 1.185 . S
O629 C628 1.160 . S
O630 Zn631 1.899 . S
O630 C638 1.284 . S
Zn631 O630 1.899 . S
Zn631 O632 2.032 . S
Zn631 O635 2.086 . S
Zn631 O640 1.977 . S
O632 Zn631 2.032 . S
O632 C636 1.278 . S
C633 O634 1.203 . S
C633 O640 1.267 . S
O634 C633 1.203 . S
O635 C628 1.185 . S
O635 Zn631 2.086 . S
C636 O632 1.278 . S
C636 O637 1.211 . S
O637 C636 1.211 . S
C638 O630 1.284 . S
C638 O639 1.273 . S
O639 C638 1.273 . S
O640 Zn631 1.977 . S
O640 C633 1.267 . S
C641 O642 1.160 . S
C641 O648 1.185 . S
O642 C641 1.160 . S
O643 Zn644 1.899 . S
O643 C651 1.284 . S
Zn644 O643 1.899 . S
Zn644 O645 2.032 . S
Zn644 O648 2.086 . S
Zn644 O653 1.977 . S
O645 Zn644 2.032 . S
O645 C649 1.278 . S
C646 O647 1.203 . S
C646 O653 1.267 . S
O647 C646 1.203 . S
O648 C641 1.185 . S
O648 Zn644 2.086 . S
C649 O645 1.278 . S
C649 O650 1.211 . S
O650 C649 1.211 . S
C651 O643 1.284 . S
C651 O652 1.273 . S
O652 C651 1.273 . S
O653 Zn644 1.977 . S
O653 C646 1.267 . S
C654 O655 1.160 . S
C654 O661 1.185 . S
O655 C654 1.160 . S
O656 Zn657 1.899 . S
O656 C664 1.284 . S
Zn657 O656 1.899 . S
Zn657 O658 2.032 . S
Zn657 O661 2.086 . S
Zn657 O666 1.977 . S
O658 Zn657 2.032 . S
O658 C662 1.278 . S
C659 O660 1.203 . S
C659 O666 1.267 . S
O660 C659 1.203 . S
O661 C654 1.185 . S
O661 Zn657 2.086 . S
C662 O658 1.278 . S
C662 O663 1.211 . S
O663 C662 1.211 . S
C664 O656 1.284 . S
C664 O665 1.273 . S
O665 C664 1.273 . S
O666 Zn657 1.977 . S
O666 C659 1.267 . S
C667 O668 1.160 . S
C667 O674 1.185 . S
O668 C667 1.160 . S
O669 Zn670 1.899 . S
O669 C677 1.284 1_565 S
Zn670 O669 1.899 . S
Zn670 O671 2.032 1_565 S
Zn670 O674 2.086 . S
Zn670 O679 1.977 . S
O671 Zn670 2.032 1_545 S
O671 C675 1.278 . S
C672 O673 1.203 1_565 S
C672 O679 1.267 . S
O673 C672 1.203 1_545 S
O674 C667 1.185 . S
O674 Zn670 2.086 . S
C675 O671 1.278 . S
C675 O676 1.211 . S
O676 C675 1.211 . S
C677 O669 1.284 1_545 S
C677 O678 1.273 . S
O678 C677 1.273 . S
O679 Zn670 1.977 . S
O679 C672 1.267 . S
C680 O681 1.160 1_455 S
C680 O687 1.185 . S
O681 C680 1.160 1_655 S
O682 Zn683 1.899 1_655 S
O682 C690 1.284 . S
Zn683 O682 1.899 1_455 S
Zn683 O684 2.032 1_455 S
Zn683 O687 2.086 . S
Zn683 O692 1.977 . S
O684 Zn683 2.032 1_655 S
O684 C688 1.277 1_655 S
C685 O686 1.203 . S
C685 O692 1.267 . S
O686 C685 1.203 . S
O687 C680 1.185 . S
O687 Zn683 2.086 . S
C688 O684 1.277 1_455 S
C688 O689 1.213 . S
O689 C688 1.213 . S
C690 O682 1.284 . S
C690 O691 1.273 . S
O691 C690 1.273 . S
O692 Zn683 1.977 . S
O692 C685 1.267 . S
C693 O694 1.160 . S
C693 O700 1.185 . S
O694 C693 1.160 . S
O695 Zn696 1.899 . S
O695 C703 1.284 . S
Zn696 O695 1.899 . S
Zn696 O697 2.032 . S
Zn696 O700 2.086 . S
Zn696 O705 1.977 . S
O697 Zn696 2.032 . S
O697 C701 1.278 . S
C698 O699 1.203 . S
C698 O705 1.267 . S
O699 C698 1.203 . S
O700 C693 1.185 . S
O700 Zn696 2.086 . S
C701 O697 1.278 . S
C701 O702 1.211 . S
O702 C701 1.211 . S
C703 O695 1.284 . S
C703 O704 1.273 . S
O704 C703 1.273 . S
O705 Zn696 1.977 . S
O705 C698 1.267 . S
C706 O707 1.160 1_455 S
C706 O713 1.185 . S
O707 C706 1.160 1_655 S
O708 Zn709 1.899 1_655 S
O708 C716 1.284 . S
Zn709 O708 1.899 1_455 S
Zn709 O710 2.032 1_455 S
Zn709 O713 2.086 . S
Zn709 O718 1.977 . S
O710 Zn709 2.032 1_655 S
O710 C714 1.278 1_655 S
C711 O712 1.203 . S
C711 O718 1.267 . S
O712 C711 1.203 . S
O713 C706 1.185 . S
O713 Zn709 2.086 . S
C714 O710 1.278 1_455 S
C714 O715 1.210 . S
O715 C714 1.210 . S
C716 O708 1.284 . S
C716 O717 1.273 . S
O717 C716 1.273 . S
O718 Zn709 1.977 . S
O718 C711 1.267 . S
C719 O720 1.160 . S
C719 O726 1.185 . S
O720 C719 1.160 . S
O721 Zn722 1.899 . S
O721 C729 1.284 . S
Zn722 O721 1.899 . S
Zn722 O723 2.032 . S
Zn722 O726 2.086 . S
Zn722 O731 1.977 . S
O723 Zn722 2.032 . S
O723 C727 1.278 . S
C724 O725 1.203 . S
C724 O731 1.267 . S
O725 C724 1.203 . S
O726 C719 1.185 . S
O726 Zn722 2.086 . S
C727 O723 1.278 . S
C727 O728 1.211 . S
O728 C727 1.211 . S
C729 O721 1.284 . S
C729 O730 1.273 . S
O730 C729 1.273 . S
O731 Zn722 1.977 . S
O731 C724 1.267 . S
C732 C733 1.369 . S
C732 C734 1.419 . S
C732 H736 0.930 . S
C733 C732 1.369 . S
C733 C742 1.429 . S
C734 C732 1.419 . S
C734 C735 1.363 . S
C734 H737 0.929 . S
C735 C734 1.363 . S
C735 C741 1.428 . S
H736 C732 0.930 . S
H737 C734 0.929 . S
S738 N739 1.613 . S
S738 N740 1.610 . S
N739 S738 1.613 . S
N739 C742 1.350 . S
N740 S738 1.610 . S
N740 C741 1.351 . S
C741 C735 1.428 . S
C741 N740 1.351 . S
C741 C742 1.434 . S
C742 C733 1.429 . S
C742 N739 1.350 . S
C742 C741 1.434 . S
C743 C744 1.369 . S
C743 C745 1.419 . S
C743 H747 0.930 . S
C744 C743 1.369 . S
C744 C753 1.429 . S
C745 C743 1.419 . S
C745 C746 1.363 . S
C745 H748 0.929 . S
C746 C745 1.363 . S
C746 C752 1.428 . S
H747 C743 0.930 . S
H748 C745 0.929 . S
S749 N750 1.613 . S
S749 N751 1.610 . S
N750 S749 1.613 . S
N750 C753 1.350 . S
N751 S749 1.610 . S
N751 C752 1.351 . S
C752 C746 1.428 . S
C752 N751 1.351 . S
C752 C753 1.434 . S
C753 C744 1.429 . S
C753 N750 1.350 . S
C753 C752 1.434 . S
C754 C755 1.369 . S
C754 C756 1.419 . S
C754 H758 0.930 . S
C755 C754 1.369 . S
C755 C764 1.429 . S
C756 C754 1.419 . S
C756 C757 1.363 . S
C756 H759 0.929 . S
C757 C756 1.363 . S
C757 C763 1.428 . S
H758 C754 0.930 . S
H759 C756 0.929 . S
S760 N761 1.613 . S
S760 N762 1.610 . S
N761 S760 1.613 . S
N761 C764 1.350 . S
N762 S760 1.610 . S
N762 C763 1.351 . S
C763 C757 1.428 . S
C763 N762 1.351 . S
C763 C764 1.434 . S
C764 C755 1.429 . S
C764 N761 1.350 . S
C764 C763 1.434 . S
C765 C766 1.369 1_545 S
C765 C767 1.419 . S
C765 H769 0.930 . S
C766 C765 1.369 1_565 S
C766 C775 1.429 . S
C767 C765 1.419 . S
C767 C768 1.363 . S
C767 H770 0.929 . S
C768 C767 1.363 . S
C768 C774 1.428 1_545 S
H769 C765 0.930 . S
H770 C767 0.929 . S
S771 N772 1.613 . S
S771 N773 1.610 . S
N772 S771 1.613 . S
N772 C775 1.350 . S
N773 S771 1.610 . S
N773 C774 1.351 . S
C774 C768 1.428 1_565 S
C774 N773 1.351 . S
C774 C775 1.434 . S
C775 C766 1.429 . S
C775 N772 1.350 . S
C775 C774 1.434 . S
C776 C777 1.369 . S
C776 C778 1.419 . S
C776 H780 0.930 . S
C777 C776 1.369 . S
C777 C786 1.429 . S
C778 C776 1.419 . S
C778 C779 1.363 . S
C778 H781 0.929 . S
C779 C778 1.363 . S
C779 C785 1.428 . S
H780 C776 0.930 . S
H781 C778 0.929 . S
S782 N783 1.613 . S
S782 N784 1.610 . S
N783 S782 1.613 . S
N783 C786 1.350 . S
N784 S782 1.610 . S
N784 C785 1.351 . S
C785 C779 1.428 . S
C785 N784 1.351 . S
C785 C786 1.434 . S
C786 C777 1.429 . S
C786 N783 1.350 . S
C786 C785 1.434 . S
C787 C788 1.369 . S
C787 C789 1.419 . S
C787 H791 0.930 . S
C788 C787 1.369 . S
C788 C797 1.429 . S
C789 C787 1.419 . S
C789 C790 1.363 . S
C789 H792 0.929 . S
C790 C789 1.363 . S
C790 C796 1.428 . S
H791 C787 0.930 . S
H792 C789 0.929 . S
S793 N794 1.613 . S
S793 N795 1.610 . S
N794 S793 1.613 . S
N794 C797 1.350 . S
N795 S793 1.610 . S
N795 C796 1.351 . S
C796 C790 1.428 . S
C796 N795 1.351 . S
C796 C797 1.434 . S
C797 C788 1.429 . S
C797 N794 1.350 . S
C797 C796 1.434 . S
C798 C799 1.369 . S
C798 C800 1.419 . S
C798 H802 0.930 . S
C799 C798 1.369 . S
C799 C808 1.429 . S
C800 C798 1.419 . S
C800 C801 1.363 . S
C800 H803 0.929 . S
C801 C800 1.363 . S
C801 C807 1.428 . S
H802 C798 0.930 . S
H803 C800 0.929 . S
S804 N805 1.613 . S
S804 N806 1.610 . S
N805 S804 1.613 . S
N805 C808 1.350 . S
N806 S804 1.610 . S
N806 C807 1.351 . S
C807 C801 1.428 . S
C807 N806 1.351 . S
C807 C808 1.434 . S
C808 C799 1.429 . S
C808 N805 1.350 . S
C808 C807 1.434 . S
C809 C810 1.369 . S
C809 C811 1.419 . S
C809 H813 0.930 . S
C810 C809 1.369 . S
C810 C819 1.429 1_565 S
C811 C809 1.419 . S
C811 C812 1.363 . S
C811 H814 0.929 . S
C812 C811 1.363 . S
C812 C818 1.428 1_565 S
H813 C809 0.930 . S
H814 C811 0.929 . S
S815 N816 1.613 . S
S815 N817 1.610 . S
N816 S815 1.613 . S
N816 C819 1.350 . S
N817 S815 1.610 . S
N817 C818 1.351 . S
C818 C812 1.428 1_545 S
C818 N817 1.351 . S
C818 C819 1.434 . S
C819 C810 1.429 1_545 S
C819 N816 1.350 . S
C819 C818 1.434 . S
C820 C821 1.369 . S
C820 C822 1.419 . S
C820 H824 0.930 . S
C821 C820 1.369 . S
C821 C830 1.429 . S
C822 C820 1.419 . S
C822 C823 1.363 . S
C822 H825 0.929 . S
C823 C822 1.363 . S
C823 C829 1.428 . S
H824 C820 0.930 . S
H825 C822 0.929 . S
S826 N827 1.613 . S
S826 N828 1.610 . S
N827 S826 1.613 . S
N827 C830 1.350 . S
N828 S826 1.610 . S
N828 C829 1.351 . S
C829 C823 1.428 . S
C829 N828 1.351 . S
C829 C830 1.434 . S
C830 C821 1.429 . S
C830 N827 1.350 . S
C830 C829 1.434 . S
C831 C832 1.369 . S
C831 C833 1.419 . S
C831 H835 0.930 . S
C832 C831 1.369 . S
C832 C841 1.429 . S
C833 C831 1.419 . S
C833 C834 1.363 . S
C833 H836 0.929 . S
C834 C833 1.363 . S
C834 C840 1.428 . S
H835 C831 0.930 . S
H836 C833 0.929 . S
S837 N838 1.613 . S
S837 N839 1.610 . S
N838 S837 1.613 . S
N838 C841 1.350 . S
N839 S837 1.610 . S
N839 C840 1.351 . S
C840 C834 1.428 . S
C840 N839 1.351 . S
C840 C841 1.434 . S
C841 C832 1.429 . S
C841 N838 1.350 . S
C841 C840 1.434 . S
C842 C843 1.369 . S
C842 C844 1.419 . S
C842 H846 0.930 . S
C843 C842 1.369 . S
C843 C852 1.429 . S
C844 C842 1.419 . S
C844 C845 1.363 . S
C844 H847 0.929 . S
C845 C844 1.363 . S
C845 C851 1.428 . S
H846 C842 0.930 . S
H847 C844 0.929 . S
S848 N849 1.613 . S
S848 N850 1.610 . S
N849 S848 1.613 . S
N849 C852 1.350 . S
N850 S848 1.610 . S
N850 C851 1.351 . S
C851 C845 1.428 . S
C851 N850 1.351 . S
C851 C852 1.434 . S
C852 C843 1.429 . S
C852 N849 1.350 . S
C852 C851 1.434 . S
C853 C854 1.369 . S
C853 C855 1.419 . S
C853 H857 0.930 . S
C854 C853 1.369 . S
C854 C863 1.429 . S
C855 C853 1.419 . S
C855 C856 1.363 . S
C855 H858 0.929 . S
C856 C855 1.363 . S
C856 C862 1.428 . S
H857 C853 0.930 . S
H858 C855 0.929 . S
S859 N860 1.613 . S
S859 N861 1.610 . S
N860 S859 1.613 . S
N860 C863 1.350 . S
N861 S859 1.610 . S
N861 C862 1.351 . S
C862 C856 1.428 . S
C862 N861 1.351 . S
C862 C863 1.434 . S
C863 C854 1.429 . S
C863 N860 1.350 . S
C863 C862 1.434 . S
C864 C865 1.369 . S
C864 C866 1.419 . S
C864 H868 0.930 . S
C865 C864 1.369 . S
C865 C874 1.429 . S
C866 C864 1.419 . S
C866 C867 1.363 . S
C866 H869 0.929 . S
C867 C866 1.363 . S
C867 C873 1.428 . S
H868 C864 0.930 . S
H869 C866 0.929 . S
S870 N871 1.613 . S
S870 N872 1.610 . S
N871 S870 1.613 . S
N871 C874 1.350 . S
N872 S870 1.610 . S
N872 C873 1.351 . S
C873 C867 1.428 . S
C873 N872 1.351 . S
C873 C874 1.434 . S
C874 C865 1.429 . S
C874 N871 1.350 . S
C874 C873 1.434 . S
C875 C876 1.369 . S
C875 C877 1.419 . S
C875 H879 0.930 . S
C876 C875 1.369 . S
C876 C885 1.429 . S
C877 C875 1.419 . S
C877 C878 1.363 . S
C877 H880 0.929 . S
C878 C877 1.363 . S
C878 C884 1.428 . S
H879 C875 0.930 . S
H880 C877 0.929 . S
S881 N882 1.613 . S
S881 N883 1.610 . S
N882 S881 1.613 . S
N882 C885 1.350 . S
N883 S881 1.610 . S
N883 C884 1.351 . S
C884 C878 1.428 . S
C884 N883 1.351 . S
C884 C885 1.434 . S
C885 C876 1.429 . S
C885 N882 1.350 . S
C885 C884 1.434 . S
C886 C887 1.369 . S
C886 C888 1.419 . S
C886 H890 0.930 . S
C887 C886 1.369 . S
C887 C896 1.429 . S
C888 C886 1.419 . S
C888 C889 1.363 . S
C888 H891 0.929 . S
C889 C888 1.363 . S
C889 C895 1.428 . S
H890 C886 0.930 . S
H891 C888 0.929 . S
S892 N893 1.613 . S
S892 N894 1.610 . S
N893 S892 1.613 . S
N893 C896 1.350 . S
N894 S892 1.610 . S
N894 C895 1.351 . S
C895 C889 1.428 . S
C895 N894 1.351 . S
C895 C896 1.434 . S
C896 C887 1.429 . S
C896 N893 1.350 . S
C896 C895 1.434 . S
C897 C898 1.369 1_455 S
C897 C899 1.419 . S
C897 H901 0.930 . S
C898 C897 1.369 1_655 S
C898 C907 1.429 . S
C899 C897 1.419 . S
C899 C900 1.363 1_455 S
C899 H902 0.929 . S
C900 C899 1.363 1_655 S
C900 C906 1.428 . S
H901 C897 0.930 . S
H902 C899 0.929 . S
S903 N904 1.613 . S
S903 N905 1.610 . S
N904 S903 1.613 . S
N904 C907 1.350 . S
N905 S903 1.610 . S
N905 C906 1.351 . S
C906 C900 1.428 . S
C906 N905 1.351 . S
C906 C907 1.434 . S
C907 C898 1.429 . S
C907 N904 1.350 . S
C907 C906 1.434 . S
C908 C909 1.369 . S
C908 C910 1.419 . S
C908 H912 0.930 . S
C909 C908 1.369 . S
C909 C918 1.429 . S
C910 C908 1.419 . S
C910 C911 1.363 . S
C910 H913 0.929 . S
C911 C910 1.363 . S
C911 C917 1.428 . S
H912 C908 0.930 . S
H913 C910 0.929 . S
S914 N915 1.613 . S
S914 N916 1.610 . S
N915 S914 1.613 . S
N915 C918 1.350 . S
N916 S914 1.610 . S
N916 C917 1.351 . S
C917 C911 1.428 . S
C917 N916 1.351 . S
C917 C918 1.434 . S
C918 C909 1.429 . S
C918 N915 1.350 . S
C918 C917 1.434 . S
C919 C920 1.369 . S
C919 C921 1.419 . S
C919 H923 0.930 . S
C920 C919 1.369 . S
C920 C929 1.429 . S
C921 C919 1.419 . S
C921 C922 1.363 . S
C921 H924 0.929 . S
C922 C921 1.363 . S
C922 C928 1.428 . S
H923 C919 0.930 . S
H924 C921 0.929 . S
S925 N926 1.613 . S
S925 N927 1.610 . S
N926 S925 1.613 . S
N926 C929 1.350 . S
N927 S925 1.610 . S
N927 C928 1.351 . S
C928 C922 1.428 . S
C928 N927 1.351 . S
C928 C929 1.434 . S
C929 C920 1.429 . S
C929 N926 1.350 . S
C929 C928 1.434 . S
C930 C931 1.369 . S
C930 C932 1.419 . S
C930 H934 0.930 . S
C931 C930 1.369 . S
C931 C940 1.429 1_556 S
C932 C930 1.419 . S
C932 C933 1.372 . S
C932 H935 0.929 . S
C933 C932 1.372 . S
C933 C939 1.422 1_556 S
H934 C930 0.930 . S
H935 C932 0.929 . S
S936 N937 1.613 . S
S936 N938 1.610 . S
N937 S936 1.613 . S
N937 C940 1.350 . S
N938 S936 1.610 . S
N938 C939 1.351 . S
C939 C933 1.422 1_554 S
C939 N938 1.351 . S
C939 C940 1.434 . S
C940 C931 1.429 1_554 S
C940 N937 1.350 . S
C940 C939 1.434 . S
C941 C942 1.369 . S
C941 C943 1.419 . S
C941 H945 0.930 . S
C942 C941 1.369 . S
C942 C951 1.429 . S
C943 C941 1.419 . S
C943 C944 1.363 . S
C943 H946 0.929 . S
C944 C943 1.363 . S
C944 C950 1.428 . S
H945 C941 0.930 . S
H946 C943 0.929 . S
S947 N948 1.613 . S
S947 N949 1.610 . S
N948 S947 1.613 . S
N948 C951 1.350 . S
N949 S947 1.610 . S
N949 C950 1.351 . S
C950 C944 1.428 . S
C950 N949 1.351 . S
C950 C951 1.434 . S
C951 C942 1.429 . S
C951 N948 1.350 . S
C951 C950 1.434 . S
C952 C953 1.369 . S
C952 C954 1.419 . S
C952 H956 0.930 . S
C953 C952 1.369 . S
C953 C962 1.429 . S
C954 C952 1.419 . S
C954 C955 1.363 . S
C954 H957 0.929 . S
C955 C954 1.363 . S
C955 C961 1.428 . S
H956 C952 0.930 . S
H957 C954 0.929 . S
S958 N959 1.613 . S
S958 N960 1.610 . S
N959 S958 1.613 . S
N959 C962 1.350 . S
N960 S958 1.610 . S
N960 C961 1.351 . S
C961 C955 1.428 . S
C961 N960 1.351 . S
C961 C962 1.434 . S
C962 C953 1.429 . S
C962 N959 1.350 . S
C962 C961 1.434 . S
C963 C964 1.369 . S
C963 C965 1.419 . S
C963 H967 0.930 . S
C964 C963 1.369 . S
C964 C973 1.429 . S
C965 C963 1.419 . S
C965 C966 1.363 . S
C965 H968 0.929 . S
C966 C965 1.363 . S
C966 C972 1.428 . S
H967 C963 0.930 . S
H968 C965 0.929 . S
S969 N970 1.613 . S
S969 N971 1.610 . S
N970 S969 1.613 . S
N970 C973 1.350 . S
N971 S969 1.610 . S
N971 C972 1.351 . S
C972 C966 1.428 . S
C972 N971 1.351 . S
C972 C973 1.434 . S
C973 C964 1.429 . S
C973 N970 1.350 . S
C973 C972 1.434 . S
C974 C975 1.369 . S
C974 C976 1.419 . S
C974 H978 0.930 . S
C975 C974 1.369 . S
C975 C984 1.429 . S
C976 C974 1.419 . S
C976 C977 1.363 . S
C976 H979 0.929 . S
C977 C976 1.363 . S
C977 C983 1.428 . S
H978 C974 0.930 . S
H979 C976 0.929 . S
S980 N981 1.613 . S
S980 N982 1.610 . S
N981 S980 1.613 . S
N981 C984 1.350 . S
N982 S980 1.610 . S
N982 C983 1.351 . S
C983 C977 1.428 . S
C983 N982 1.351 . S
C983 C984 1.434 . S
C984 C975 1.429 . S
C984 N981 1.350 . S
C984 C983 1.434 . S
C985 C986 1.369 . S
C985 C987 1.419 . S
C985 H989 0.930 . S
C986 C985 1.369 . S
C986 C995 1.429 . S
C987 C985 1.419 . S
C987 C988 1.363 . S
C987 H990 0.929 . S
C988 C987 1.363 . S
C988 C994 1.428 . S
H989 C985 0.930 . S
H990 C987 0.929 . S
S991 N992 1.613 . S
S991 N993 1.610 . S
N992 S991 1.613 . S
N992 C995 1.350 . S
N993 S991 1.610 . S
N993 C994 1.351 . S
C994 C988 1.428 . S
C994 N993 1.351 . S
C994 C995 1.434 . S
C995 C986 1.429 . S
C995 N992 1.350 . S
C995 C994 1.434 . S
C996 C997 1.369 . S
C996 C998 1.419 . S
C996 H1000 0.930 . S
C997 C996 1.369 . S
C997 C1006 1.429 . S
C998 C996 1.419 . S
C998 C999 1.363 . S
C998 H1001 0.929 . S
C999 C998 1.363 . S
C999 C1005 1.428 . S
H1000 C996 0.930 . S
H1001 C998 0.929 . S
S1002 N1003 1.613 . S
S1002 N1004 1.610 . S
N1003 S1002 1.613 . S
N1003 C1006 1.350 . S
N1004 S1002 1.610 . S
N1004 C1005 1.351 . S
C1005 C999 1.428 . S
C1005 N1004 1.351 . S
C1005 C1006 1.434 . S
C1006 C997 1.429 . S
C1006 N1003 1.350 . S
C1006 C1005 1.434 . S
C1007 C1008 1.369 . S
C1007 C1009 1.419 . S
C1007 H1011 0.930 . S
C1008 C1007 1.369 . S
C1008 C1017 1.429 . S
C1009 C1007 1.419 . S
C1009 C1010 1.363 . S
C1009 H1012 0.929 . S
C1010 C1009 1.363 . S
C1010 C1016 1.428 . S
H1011 C1007 0.930 . S
H1012 C1009 0.929 . S
S1013 N1014 1.613 . S
S1013 N1015 1.610 . S
N1014 S1013 1.613 . S
N1014 C1017 1.350 . S
N1015 S1013 1.610 . S
N1015 C1016 1.351 . S
C1016 C1010 1.428 . S
C1016 N1015 1.351 . S
C1016 C1017 1.434 . S
C1017 C1008 1.429 . S
C1017 N1014 1.350 . S
C1017 C1016 1.434 . S
C1018 C1019 1.369 . S
C1018 C1020 1.419 . S
C1018 H1022 0.930 . S
C1019 C1018 1.369 . S
C1019 C1028 1.429 . S
C1020 C1018 1.419 . S
C1020 C1021 1.363 . S
C1020 H1023 0.929 . S
C1021 C1020 1.363 . S
C1021 C1027 1.428 . S
H1022 C1018 0.930 . S
H1023 C1020 0.929 . S
S1024 N1025 1.613 . S
S1024 N1026 1.610 . S
N1025 S1024 1.613 . S
N1025 C1028 1.350 . S
N1026 S1024 1.610 . S
N1026 C1027 1.351 . S
C1027 C1021 1.428 . S
C1027 N1026 1.351 . S
C1027 C1028 1.434 . S
C1028 C1019 1.429 . S
C1028 N1025 1.350 . S
C1028 C1027 1.434 . S
C1029 C1030 1.369 . S
C1029 C1031 1.419 . S
C1029 H1033 0.930 . S
C1030 C1029 1.369 . S
C1030 C1039 1.429 . S
C1031 C1029 1.419 . S
C1031 C1032 1.363 . S
C1031 H1034 0.929 . S
C1032 C1031 1.363 . S
C1032 C1038 1.428 . S
H1033 C1029 0.930 . S
H1034 C1031 0.929 . S
S1035 N1036 1.613 . S
S1035 N1037 1.610 . S
N1036 S1035 1.613 . S
N1036 C1039 1.350 . S
N1037 S1035 1.610 . S
N1037 C1038 1.351 . S
C1038 C1032 1.428 . S
C1038 N1037 1.351 . S
C1038 C1039 1.434 . S
C1039 C1030 1.429 . S
C1039 N1036 1.350 . S
C1039 C1038 1.434 . S
C1040 C1041 1.369 . S
C1040 C1042 1.419 . S
C1040 H1044 0.930 . S
C1041 C1040 1.369 . S
C1041 C1050 1.429 . S
C1042 C1040 1.419 . S
C1042 C1043 1.363 . S
C1042 H1045 0.929 . S
C1043 C1042 1.363 . S
C1043 C1049 1.428 . S
H1044 C1040 0.930 . S
H1045 C1042 0.929 . S
S1046 N1047 1.613 . S
S1046 N1048 1.610 . S
N1047 S1046 1.613 . S
N1047 C1050 1.350 . S
N1048 S1046 1.610 . S
N1048 C1049 1.351 . S
C1049 C1043 1.428 . S
C1049 N1048 1.351 . S
C1049 C1050 1.434 . S
C1050 C1041 1.429 . S
C1050 N1047 1.350 . S
C1050 C1049 1.434 . S
C1051 C1052 1.369 . S
C1051 C1053 1.419 . S
C1051 H1055 0.930 1_545 S
C1052 C1051 1.369 . S
C1052 C1061 1.429 . S
C1053 C1051 1.419 . S
C1053 C1054 1.363 . S
C1053 H1056 0.929 1_545 S
C1054 C1053 1.363 . S
C1054 C1060 1.428 . S
H1055 C1051 0.930 1_565 S
H1056 C1053 0.929 1_565 S
S1057 N1058 1.613 . S
S1057 N1059 1.610 . S
N1058 S1057 1.613 . S
N1058 C1061 1.350 . S
N1059 S1057 1.610 . S
N1059 C1060 1.351 . S
C1060 C1054 1.428 . S
C1060 N1059 1.351 . S
C1060 C1061 1.434 . S
C1061 C1052 1.429 . S
C1061 N1058 1.350 . S
C1061 C1060 1.434 . S
C1062 C1063 1.369 . S
C1062 C1064 1.419 . S
C1062 H1066 0.930 . S
C1063 C1062 1.369 . S
C1063 C1072 1.429 . S
C1064 C1062 1.419 . S
C1064 C1065 1.363 . S
C1064 H1067 0.929 . S
C1065 C1064 1.363 . S
C1065 C1071 1.428 . S
H1066 C1062 0.930 . S
H1067 C1064 0.929 . S
S1068 N1069 1.613 . S
S1068 N1070 1.610 . S
N1069 S1068 1.613 . S
N1069 C1072 1.350 . S
N1070 S1068 1.610 . S
N1070 C1071 1.351 . S
C1071 C1065 1.428 . S
C1071 N1070 1.351 . S
C1071 C1072 1.434 . S
C1072 C1063 1.429 . S
C1072 N1069 1.350 . S
C1072 C1071 1.434 . S
C1073 C1074 1.369 . S
C1073 C1075 1.419 . S
C1073 H1077 0.930 . S
C1074 C1073 1.369 . S
C1074 C1083 1.429 . S
C1075 C1073 1.419 . S
C1075 C1076 1.363 . S
C1075 H1078 0.929 . S
C1076 C1075 1.363 . S
C1076 C1082 1.428 . S
H1077 C1073 0.930 . S
H1078 C1075 0.929 . S
S1079 N1080 1.613 . S
S1079 N1081 1.610 . S
N1080 S1079 1.613 . S
N1080 C1083 1.350 . S
N1081 S1079 1.610 . S
N1081 C1082 1.351 . S
C1082 C1076 1.428 . S
C1082 N1081 1.351 . S
C1082 C1083 1.434 . S
C1083 C1074 1.429 . S
C1083 N1080 1.350 . S
C1083 C1082 1.434 . S
C1084 C1085 1.369 . S
C1084 C1086 1.419 . S
C1084 H1088 0.930 . S
C1085 C1084 1.369 . S
C1085 C1094 1.429 . S
C1086 C1084 1.419 . S
C1086 C1087 1.363 . S
C1086 H1089 0.929 . S
C1087 C1086 1.363 . S
C1087 C1093 1.428 . S
H1088 C1084 0.930 . S
H1089 C1086 0.929 . S
S1090 N1091 1.613 . S
S1090 N1092 1.610 . S
N1091 S1090 1.613 . S
N1091 C1094 1.350 . S
N1092 S1090 1.610 . S
N1092 C1093 1.351 . S
C1093 C1087 1.428 . S
C1093 N1092 1.351 . S
C1093 C1094 1.434 . S
C1094 C1085 1.429 . S
C1094 N1091 1.350 . S
C1094 C1093 1.434 . S
C1095 C1096 1.369 . S
C1095 C1097 1.419 . S
C1095 H1099 0.930 . S
C1096 C1095 1.369 . S
C1096 C1105 1.429 1_655 S
C1097 C1095 1.419 . S
C1097 C1098 1.363 . S
C1097 H1100 0.929 . S
C1098 C1097 1.363 . S
C1098 C1104 1.428 1_655 S
H1099 C1095 0.930 . S
H1100 C1097 0.929 . S
S1101 N1102 1.613 . S
S1101 N1103 1.610 . S
N1102 S1101 1.613 . S
N1102 C1105 1.350 . S
N1103 S1101 1.610 . S
N1103 C1104 1.351 . S
C1104 C1098 1.428 1_455 S
C1104 N1103 1.351 . S
C1104 C1105 1.434 . S
C1105 C1096 1.429 1_455 S
C1105 N1102 1.350 . S
C1105 C1104 1.434 . S
C1106 C1107 1.369 . S
C1106 C1108 1.419 . S
C1106 H1110 0.930 . S
C1107 C1106 1.369 . S
C1107 C1116 1.429 . S
C1108 C1106 1.419 . S
C1108 C1109 1.363 . S
C1108 H1111 0.929 . S
C1109 C1108 1.363 . S
C1109 C1115 1.428 . S
H1110 C1106 0.930 . S
H1111 C1108 0.929 . S
S1112 N1113 1.613 . S
S1112 N1114 1.610 . S
N1113 S1112 1.613 . S
N1113 C1116 1.350 . S
N1114 S1112 1.610 . S
N1114 C1115 1.351 . S
C1115 C1109 1.428 . S
C1115 N1114 1.351 . S
C1115 C1116 1.434 . S
C1116 C1107 1.429 . S
C1116 N1113 1.350 . S
C1116 C1115 1.434 . S
C1117 C1118 1.369 . S
C1117 C1119 1.419 . S
C1117 H1121 0.930 . S
C1118 C1117 1.369 . S
C1118 C1127 1.429 . S
C1119 C1117 1.419 . S
C1119 C1120 1.363 . S
C1119 H1122 0.929 . S
C1120 C1119 1.363 . S
C1120 C1126 1.428 . S
H1121 C1117 0.930 . S
H1122 C1119 0.929 . S
S1123 N1124 1.613 . S
S1123 N1125 1.610 . S
N1124 S1123 1.613 . S
N1124 C1127 1.350 . S
N1125 S1123 1.610 . S
N1125 C1126 1.351 . S
C1126 C1120 1.428 . S
C1126 N1125 1.351 . S
C1126 C1127 1.434 . S
C1127 C1118 1.429 . S
C1127 N1124 1.350 . S
C1127 C1126 1.434 . S
C1128 C1129 1.369 . S
C1128 C1130 1.419 . S
C1128 H1132 0.930 . S
C1129 C1128 1.369 . S
C1129 C1138 1.429 . S
C1130 C1128 1.419 . S
C1130 C1131 1.363 . S
C1130 H1133 0.929 . S
C1131 C1130 1.363 . S
C1131 C1137 1.428 . S
H1132 C1128 0.930 . S
H1133 C1130 0.929 . S
S1134 N1135 1.613 . S
S1134 N1136 1.610 . S
N1135 S1134 1.613 . S
N1135 C1138 1.350 . S
N1136 S1134 1.610 . S
N1136 C1137 1.351 . S
C1137 C1131 1.428 . S
C1137 N1136 1.351 . S
C1137 C1138 1.434 . S
C1138 C1129 1.429 . S
C1138 N1135 1.350 . S
C1138 C1137 1.434 . S
C1139 C1140 1.369 . S
C1139 C1141 1.419 . S
C1139 H1143 0.930 . S
C1140 C1139 1.369 . S
C1140 C1149 1.429 . S
C1141 C1139 1.419 . S
C1141 C1142 1.363 . S
C1141 H1144 0.929 . S
C1142 C1141 1.363 . S
C1142 C1148 1.428 . S
H1143 C1139 0.930 . S
H1144 C1141 0.929 . S
S1145 N1146 1.613 . S
S1145 N1147 1.610 . S
N1146 S1145 1.613 . S
N1146 C1149 1.350 . S
N1147 S1145 1.610 . S
N1147 C1148 1.351 . S
C1148 C1142 1.428 . S
C1148 N1147 1.351 . S
C1148 C1149 1.434 . S
C1149 C1140 1.429 . S
C1149 N1146 1.350 . S
C1149 C1148 1.434 . S
C1150 C1151 1.369 . S
C1150 C1152 1.419 . S
C1150 H1154 0.930 . S
C1151 C1150 1.369 . S
C1151 C1160 1.429 . S
C1152 C1150 1.419 . S
C1152 C1153 1.363 . S
C1152 H1155 0.929 . S
C1153 C1152 1.363 . S
C1153 C1159 1.428 . S
H1154 C1150 0.930 . S
H1155 C1152 0.929 . S
S1156 N1157 1.613 . S
S1156 N1158 1.610 . S
N1157 S1156 1.613 . S
N1157 C1160 1.350 . S
N1158 S1156 1.610 . S
N1158 C1159 1.351 . S
C1159 C1153 1.428 . S
C1159 N1158 1.351 . S
C1159 C1160 1.434 . S
C1160 C1151 1.429 . S
C1160 N1157 1.350 . S
C1160 C1159 1.434 . S
C1161 C1162 1.369 . S
C1161 C1163 1.419 . S
C1161 H1165 0.930 . S
C1162 C1161 1.369 . S
C1162 C1171 1.429 . S
C1163 C1161 1.419 . S
C1163 C1164 1.363 . S
C1163 H1166 0.929 . S
C1164 C1163 1.363 . S
C1164 C1170 1.428 . S
H1165 C1161 0.930 . S
H1166 C1163 0.929 . S
S1167 N1168 1.613 . S
S1167 N1169 1.610 . S
N1168 S1167 1.613 . S
N1168 C1171 1.350 . S
N1169 S1167 1.610 . S
N1169 C1170 1.351 . S
C1170 C1164 1.428 . S
C1170 N1169 1.351 . S
C1170 C1171 1.434 . S
C1171 C1162 1.429 . S
C1171 N1168 1.350 . S
C1171 C1170 1.434 . S
C1172 C1173 1.369 . S
C1172 C1174 1.419 . S
C1172 H1176 0.930 . S
C1173 C1172 1.369 . S
C1173 C1182 1.429 . S
C1174 C1172 1.419 . S
C1174 C1175 1.363 . S
C1174 H1177 0.929 . S
C1175 C1174 1.363 . S
C1175 C1181 1.428 . S
H1176 C1172 0.930 . S
H1177 C1174 0.929 . S
S1178 N1179 1.613 . S
S1178 N1180 1.610 . S
N1179 S1178 1.613 . S
N1179 C1182 1.350 . S
N1180 S1178 1.610 . S
N1180 C1181 1.351 . S
C1181 C1175 1.428 . S
C1181 N1180 1.351 . S
C1181 C1182 1.434 . S
C1182 C1173 1.429 . S
C1182 N1179 1.350 . S
C1182 C1181 1.434 . S
C1183 C1184 1.369 . S
C1183 C1185 1.419 . S
C1183 H1187 0.930 . S
C1184 C1183 1.369 . S
C1184 C1193 1.429 . S
C1185 C1183 1.419 . S
C1185 C1186 1.363 . S
C1185 H1188 0.929 . S
C1186 C1185 1.363 . S
C1186 C1192 1.428 . S
H1187 C1183 0.930 . S
H1188 C1185 0.929 . S
S1189 N1190 1.613 . S
S1189 N1191 1.610 . S
N1190 S1189 1.613 . S
N1190 C1193 1.350 . S
N1191 S1189 1.610 . S
N1191 C1192 1.351 . S
C1192 C1186 1.428 . S
C1192 N1191 1.351 . S
C1192 C1193 1.434 . S
C1193 C1184 1.429 . S
C1193 N1190 1.350 . S
C1193 C1192 1.434 . S
C1194 C1195 1.369 . S
C1194 C1196 1.419 . S
C1194 H1198 0.930 . S
C1195 C1194 1.369 . S
C1195 C1204 1.429 . S
C1196 C1194 1.419 . S
C1196 C1197 1.363 . S
C1196 H1199 0.929 . S
C1197 C1196 1.363 . S
C1197 C1203 1.428 . S
H1198 C1194 0.930 . S
H1199 C1196 0.929 . S
S1200 N1201 1.613 . S
S1200 N1202 1.610 . S
N1201 S1200 1.613 . S
N1201 C1204 1.350 . S
N1202 S1200 1.610 . S
N1202 C1203 1.351 . S
C1203 C1197 1.428 . S
C1203 N1202 1.351 . S
C1203 C1204 1.434 . S
C1204 C1195 1.429 . S
C1204 N1201 1.350 . S
C1204 C1203 1.434 . S
C1205 C1206 1.369 . S
C1205 C1207 1.419 . S
C1205 H1209 0.930 . S
C1206 C1205 1.369 . S
C1206 C1215 1.429 . S
C1207 C1205 1.419 . S
C1207 C1208 1.363 . S
C1207 H1210 0.929 . S
C1208 C1207 1.363 . S
C1208 C1214 1.428 . S
H1209 C1205 0.930 . S
H1210 C1207 0.929 . S
S1211 N1212 1.613 . S
S1211 N1213 1.610 . S
N1212 S1211 1.613 . S
N1212 C1215 1.350 . S
N1213 S1211 1.610 . S
N1213 C1214 1.351 . S
C1214 C1208 1.428 . S
C1214 N1213 1.351 . S
C1214 C1215 1.434 . S
C1215 C1206 1.429 . S
C1215 N1212 1.350 . S
C1215 C1214 1.434 . S
C1216 C1217 1.369 . S
C1216 C1218 1.419 . S
C1216 H1220 0.930 . S
C1217 C1216 1.369 . S
C1217 C1226 1.429 . S
C1218 C1216 1.419 . S
C1218 C1219 1.363 . S
C1218 H1221 0.929 1_556 S
C1219 C1218 1.363 . S
C1219 C1225 1.428 . S
H1220 C1216 0.930 . S
H1221 C1218 0.929 1_554 S
S1222 N1223 1.613 . S
S1222 N1224 1.610 . S
N1223 S1222 1.613 . S
N1223 C1226 1.350 . S
N1224 S1222 1.610 . S
N1224 C1225 1.351 . S
C1225 C1219 1.428 . S
C1225 N1224 1.351 . S
C1225 C1226 1.434 . S
C1226 C1217 1.429 . S
C1226 N1223 1.350 . S
C1226 C1225 1.434 . S
C1227 C1228 1.369 . S
C1227 C1229 1.419 . S
C1227 H1231 0.930 . S
C1228 C1227 1.369 . S
C1228 C1237 1.429 . S
C1229 C1227 1.419 . S
C1229 C1230 1.363 . S
C1229 H1232 0.929 . S
C1230 C1229 1.363 . S
C1230 C1236 1.428 . S
H1231 C1227 0.930 . S
H1232 C1229 0.929 . S
S1233 N1234 1.613 . S
S1233 N1235 1.610 . S
N1234 S1233 1.613 . S
N1234 C1237 1.350 . S
N1235 S1233 1.610 . S
N1235 C1236 1.351 . S
C1236 C1230 1.428 . S
C1236 N1235 1.351 . S
C1236 C1237 1.434 . S
C1237 C1228 1.429 . S
C1237 N1234 1.350 . S
C1237 C1236 1.434 . S
C1238 C1239 1.369 1_556 S
C1238 C1240 1.419 . S
C1238 H1242 0.930 . S
C1239 C1238 1.369 1_554 S
C1239 C1248 1.429 . S
C1240 C1238 1.419 . S
C1240 C1241 1.363 1_556 S
C1240 H1243 0.929 . S
C1241 C1240 1.363 1_554 S
C1241 C1247 1.428 . S
H1242 C1238 0.930 . S
H1243 C1240 0.929 . S
S1244 N1245 1.613 . S
S1244 N1246 1.610 . S
N1245 S1244 1.613 . S
N1245 C1248 1.350 . S
N1246 S1244 1.610 . S
N1246 C1247 1.351 . S
C1247 C1241 1.428 . S
C1247 N1246 1.351 . S
C1247 C1248 1.434 . S
C1248 C1239 1.429 . S
C1248 N1245 1.350 . S
C1248 C1247 1.434 . S
C1249 C1250 1.369 . S
C1249 C1251 1.419 . S
C1249 H1253 0.930 . S
C1250 C1249 1.369 . S
C1250 C1259 1.429 . S
C1251 C1249 1.419 . S
C1251 C1252 1.363 . S
C1251 H1254 0.929 . S
C1252 C1251 1.363 . S
C1252 C1258 1.428 . S
H1253 C1249 0.930 . S
H1254 C1251 0.929 . S
S1255 N1256 1.614 . S
S1255 N1257 1.610 1_545 S
N1256 S1255 1.614 . S
N1256 C1259 1.324 1_545 S
N1257 S1255 1.610 1_565 S
N1257 C1258 1.351 . S
C1258 C1252 1.428 . S
C1258 N1257 1.351 . S
C1258 C1259 1.434 . S
C1259 C1250 1.429 . S
C1259 N1256 1.324 1_565 S
C1259 C1258 1.434 . S
C735 C586 1.423 . S
C733 C181 1.431 . S
C746 C599 1.586 . S
C744 C247 1.597 . S
C755 C283 1.467 . S
C757 C612 1.462 . S
C768 C625 1.514 . S
C766 C169 1.520 . S
C779 C633 1.465 . S
C777 C361 1.500 . S
C790 C646 1.424 . S
C788 C433 1.434 . S
C799 C421 1.514 . S
C801 C659 1.492 . S
C812 C672 1.507 . S
C810 C355 1.525 . S
C821 C427 1.461 . S
C823 C690 1.449 . S
C834 C701 1.508 . S
C832 C325 1.538 . S
C843 C385 1.466 . S
C845 C685 1.435 . S
C856 C693 1.464 . S
C854 C463 1.483 . S
C865 C253 1.509 . S
C867 C716 1.501 . S
C876 C145 1.513 . S
C878 C706 1.481 . S
C887 C205 1.496 . S
C889 C711 1.461 . S
C898 C217 1.556 . S
C900 C714 1.524 1_655 S
C909 C139 1.473 . S
C911 C623 1.443 . S
C920 C535 1.437 . S
C922 C615 1.418 . S
C933 C584 1.515 1_556 S
C931 C565 1.548 . S
C944 C589 1.496 . S
C942 C313 1.510 . S
C953 C175 1.541 . S
C955 C636 1.513 . S
C966 C675 1.502 . S
C964 C397 1.527 . S
C977 C628 1.480 . S
C975 C349 1.508 . S
C988 C654 1.453 . S
C986 C457 1.479 . S
C999 C664 1.426 . S
C997 C505 1.430 . S
C1008 C571 1.598 . S
C1010 C677 1.587 . S
C1019 C319 1.467 . S
C1021 C638 1.460 . S
C1032 C651 1.514 . S
C1030 C493 1.520 . S
C1041 C109 1.500 . S
C1043 C607 1.464 . S
C1054 C620 1.423 . S
C1052 C1 1.433 . S
C1065 C581 1.496 . S
C1063 C61 1.517 . S
C1076 C594 1.511 . S
C1074 C103 1.524 . S
C1085 C67 1.461 . S
C1087 C703 1.449 . S
C1096 C73 1.538 . S
C1098 C688 1.501 1_655 S
C1107 C133 1.466 . S
C1109 C698 1.439 . S
C1118 C31 1.484 . S
C1120 C680 1.461 . S
C1131 C729 1.500 . S
C1129 C289 1.510 . S
C1142 C719 1.485 . S
C1140 C469 1.512 . S
C1153 C724 1.466 . S
C1151 C529 1.497 . S
C1162 C541 1.554 . S
C1164 C727 1.518 . S
C1173 C391 1.473 . S
C1175 C649 1.441 . S
C1186 C641 1.420 . S
C1184 C211 1.437 . S
C1197 C662 1.518 . S
C1195 C241 1.548 . S
C1208 C667 1.496 . S
C1206 C277 1.513 . S
C1217 C499 1.540 . S
C1219 C610 1.514 . S
C1230 C597 1.503 . S
C1228 C37 1.529 . S
C1239 C97 1.509 . S
C1241 C602 1.481 . S
C1252 C576 1.454 . S
C1250 C25 1.478 . S
