# Generated by pormake.
# Topology pyr, (3,6)-cn, num edge types: 1
# Building blocks:
#     Node 0, Type 0, BuildingBlock: BELTOD_clean_linker_0, # of connection points: 3
#     Node 1, Type 0, BuildingBlock: BELTOD_clean_linker_0, # of connection points: 3
#     Node 2, Type 0, BuildingBlock: BELTOD_clean_linker_0, # of connection points: 3
#     Node 3, Type 0, BuildingBlock: BELTOD_clean_linker_0, # of connection points: 3
#     Node 4, Type 0, BuildingBlock: BELTOD_clean_linker_0, # of connection points: 3
#     Node 5, Type 0, BuildingBlock: BELTOD_clean_linker_0, # of connection points: 3
#     Node 6, Type 0, BuildingBlock: BELTOD_clean_linker_0, # of connection points: 3
#     Node 7, Type 0, BuildingBlock: BELTOD_clean_linker_0, # of connection points: 3
#     Node 8, Type 1, BuildingBlock: FUNLAD_clean_sbu_0, # of connection points: 6
#     Node 9, Type 1, BuildingBlock: FUNLAD_clean_sbu_0, # of connection points: 6
#     Node 10, Type 1, BuildingBlock: FUNLAD_clean_sbu_0, # of connection points: 6
#     Node 11, Type 1, BuildingBlock: FUNLAD_clean_sbu_0, # of connection points: 6
#     Edge 12, Type (0, 1), BuildingBlock: UVAHIK_clean_linker_0, # of connection points: 2
#     Edge 13, Type (0, 1), BuildingBlock: UVAHIK_clean_linker_0, # of connection points: 2
#     Edge 14, Type (0, 1), BuildingBlock: UVAHIK_clean_linker_0, # of connection points: 2
#     Edge 15, Type (0, 1), BuildingBlock: UVAHIK_clean_linker_0, # of connection points: 2
#     Edge 16, Type (0, 1), BuildingBlock: UVAHIK_clean_linker_0, # of connection points: 2
#     Edge 17, Type (0, 1), BuildingBlock: UVAHIK_clean_linker_0, # of connection points: 2
#     Edge 18, Type (0, 1), BuildingBlock: UVAHIK_clean_linker_0, # of connection points: 2
#     Edge 19, Type (0, 1), BuildingBlock: UVAHIK_clean_linker_0, # of connection points: 2
#     Edge 20, Type (0, 1), BuildingBlock: UVAHIK_clean_linker_0, # of connection points: 2
#     Edge 21, Type (0, 1), BuildingBlock: UVAHIK_clean_linker_0, # of connection points: 2
#     Edge 22, Type (0, 1), BuildingBlock: UVAHIK_clean_linker_0, # of connection points: 2
#     Edge 23, Type (0, 1), BuildingBlock: UVAHIK_clean_linker_0, # of connection points: 2
#     Edge 24, Type (0, 1), BuildingBlock: UVAHIK_clean_linker_0, # of connection points: 2
#     Edge 25, Type (0, 1), BuildingBlock: UVAHIK_clean_linker_0, # of connection points: 2
#     Edge 26, Type (0, 1), BuildingBlock: UVAHIK_clean_linker_0, # of connection points: 2
#     Edge 27, Type (0, 1), BuildingBlock: UVAHIK_clean_linker_0, # of connection points: 2
#     Edge 28, Type (0, 1), BuildingBlock: UVAHIK_clean_linker_0, # of connection points: 2
#     Edge 29, Type (0, 1), BuildingBlock: UVAHIK_clean_linker_0, # of connection points: 2
#     Edge 30, Type (0, 1), BuildingBlock: UVAHIK_clean_linker_0, # of connection points: 2
#     Edge 31, Type (0, 1), BuildingBlock: UVAHIK_clean_linker_0, # of connection points: 2
#     Edge 32, Type (0, 1), BuildingBlock: UVAHIK_clean_linker_0, # of connection points: 2
#     Edge 33, Type (0, 1), BuildingBlock: UVAHIK_clean_linker_0, # of connection points: 2
#     Edge 34, Type (0, 1), BuildingBlock: UVAHIK_clean_linker_0, # of connection points: 2
#     Edge 35, Type (0, 1), BuildingBlock: UVAHIK_clean_linker_0, # of connection points: 2
# Relax obj value: 0.044
# Max RMSD: 0.061
# Mean RMSD: 0.031
data_MOF--net-pry--node1-FUNLAD_clean_sbu_0--node2-BELTOD_clean_linker_0--edge1-UVAHIK_clean_linker_0
_symmetry_space_group_name_H-M    P1
_symmetry_Int_Tables_number       1
_symmetry_cell_setting            triclinic
loop_
_symmetry_equiv_pos_as_xyz
'x, y, z'
_cell_length_a     51.645318
_cell_length_b     54.611481
_cell_length_c     54.30391
_cell_angle_alpha  90.133741
_cell_angle_beta   90.430868
_cell_angle_gamma 86.608313
loop_
_atom_site_label
_atom_site_type_symbol
_atom_site_fract_x
_atom_site_fract_y
_atom_site_fract_z
_atom_type_partial_charge
P0 P 0.1673 0.18877 0.19663 0.0
H1 H 0.2187 0.19989 0.1799 0.0
H2 H 0.25296 0.17608 0.15836 0.0
H3 H 0.2046 0.1142 0.15506 0.0
H4 H 0.17004 0.1385 0.17637 0.0
H5 H 0.12006 0.22 0.20439 0.0
H6 H 0.09815 0.25216 0.1791 0.0
H7 H 0.14887 0.23205 0.11858 0.0
H8 H 0.17057 0.20007 0.14379 0.0
H9 H 0.18412 0.16468 0.24172 0.0
H10 H 0.11452 0.16969 0.19732 0.0
O11 O 0.18241 0.20862 0.21426 0.0
H12 H 0.16282 0.1399 0.2718 0.0
H13 H 0.09293 0.14432 0.22733 0.0
C14 C 0.19206 0.17079 0.18021 0.0
C15 C 0.21548 0.18116 0.17467 0.0
C16 C 0.23512 0.16746 0.1624 0.0
C17 C 0.23174 0.14306 0.15528 0.0
C18 C 0.20786 0.13293 0.16024 0.0
C19 C 0.18815 0.14673 0.17256 0.0
C20 C 0.14675 0.20731 0.17598 0.0
C21 C 0.12588 0.22198 0.18541 0.0
C22 C 0.11342 0.24043 0.17095 0.0
C23 C 0.12192 0.24483 0.14688 0.0
C24 C 0.14206 0.22934 0.13714 0.0
C25 C 0.15435 0.21083 0.15154 0.0
C26 C 0.15079 0.16938 0.21752 0.0
C27 C 0.16421 0.16031 0.2384 0.0
C28 C 0.15202 0.14591 0.25553 0.0
C29 C 0.12608 0.14003 0.25209 0.0
C30 C 0.1128 0.14875 0.23076 0.0
C31 C 0.12512 0.16321 0.21354 0.0
P32 P 0.37827 0.87815 0.65425 0.0
H33 H 0.41471 0.85674 0.69117 0.0
H34 H 0.42362 0.86799 0.73401 0.0
H35 H 0.35815 0.92094 0.73205 0.0
H36 H 0.34943 0.90974 0.68947 0.0
H37 H 0.40135 0.86032 0.60859 0.0
H38 H 0.41245 0.81956 0.59221 0.0
H39 H 0.3827 0.78732 0.65809 0.0
H40 H 0.37216 0.82859 0.67466 0.0
H41 H 0.35734 0.92476 0.63405 0.0
H42 H 0.32866 0.85436 0.65149 0.0
O43 O 0.3995 0.89643 0.64198 0.0
H44 H 0.31432 0.93919 0.61961 0.0
H45 H 0.2852 0.86883 0.63738 0.0
C46 C 0.38104 0.88195 0.6872 0.0
C47 C 0.40181 0.87023 0.70021 0.0
C48 C 0.40694 0.87675 0.72469 0.0
C49 C 0.39168 0.89548 0.73641 0.0
C50 C 0.37044 0.90663 0.7235 0.0
C51 C 0.36525 0.9 0.69916 0.0
C52 C 0.38646 0.84751 0.64307 0.0
C53 C 0.39739 0.84451 0.61964 0.0
C54 C 0.40348 0.8211 0.61016 0.0
C55 C 0.39848 0.80003 0.62377 0.0
C56 C 0.38718 0.80311 0.64723 0.0
C57 C 0.38108 0.82667 0.65673 0.0
C58 C 0.34632 0.88833 0.64341 0.0
C59 C 0.34178 0.91234 0.63469 0.0
C60 C 0.31705 0.92067 0.62665 0.0
C61 C 0.29625 0.90518 0.62729 0.0
C62 C 0.30085 0.88113 0.63629 0.0
C63 C 0.32566 0.87284 0.64442 0.0
P64 P 0.65425 0.39187 0.91913 0.0
H65 H 0.68635 0.38007 0.96203 0.0
H66 H 0.71681 0.40413 0.98496 0.0
H67 H 0.68718 0.46959 0.94719 0.0
H68 H 0.65691 0.44542 0.92422 0.0
H69 H 0.61947 0.36053 0.89474 0.0
H70 H 0.58693 0.33378 0.90921 0.0
H71 H 0.60041 0.35738 0.98403 0.0
H72 H 0.63338 0.38432 0.96922 0.0
H73 H 0.67503 0.40225 0.87067 0.0
H74 H 0.60512 0.42036 0.9114 0.0
O75 O 0.67708 0.3717 0.90857 0.0
H76 H 0.65556 0.42177 0.8341 0.0
H77 H 0.58554 0.44041 0.8749 0.0
C78 C 0.66965 0.41087 0.94122 0.0
C79 C 0.6858 0.39974 0.95933 0.0
C80 C 0.70313 0.41355 0.9725 0.0
C81 C 0.70463 0.4387 0.96759 0.0
C82 C 0.68668 0.45018 0.95109 0.0
C83 C 0.66931 0.43634 0.93797 0.0
C84 C 0.62875 0.37439 0.93088 0.0
C85 C 0.61516 0.36027 0.91423 0.0
C86 C 0.59637 0.34512 0.92253 0.0
C87 C 0.59088 0.34363 0.94777 0.0
C88 C 0.60426 0.35816 0.96448 0.0
C89 C 0.62309 0.37353 0.95606 0.0
C90 C 0.64125 0.40941 0.89347 0.0
C91 C 0.65558 0.41072 0.8718 0.0
C92 C 0.64448 0.42207 0.85096 0.0
C93 C 0.6189 0.43244 0.85154 0.0
C94 C 0.60511 0.43221 0.87377 0.0
C95 C 0.61628 0.42085 0.89463 0.0
P96 P 0.85756 0.61865 0.4281 0.0
H97 H 0.8559 0.67192 0.42826 0.0
H98 H 0.88372 0.70136 0.44709 0.0
H99 H 0.92888 0.64229 0.48248 0.0
H100 H 0.89987 0.61262 0.46462 0.0
H101 H 0.84585 0.61112 0.37619 0.0
H102 H 0.8716 0.59475 0.34188 0.0
H103 H 0.93691 0.58019 0.39095 0.0
H104 H 0.91097 0.59663 0.42534 0.0
H105 H 0.83326 0.62114 0.47605 0.0
H106 H 0.85326 0.56568 0.42165 0.0
O107 O 0.83154 0.63395 0.41606 0.0
H108 H 0.80423 0.59366 0.49566 0.0
H109 H 0.82482 0.53781 0.44156 0.0
C110 C 0.87591 0.64009 0.44497 0.0
C111 C 0.87132 0.66522 0.44054 0.0
C112 C 0.88719 0.68205 0.45129 0.0
C113 C 0.90827 0.67394 0.46617 0.0
C114 C 0.91263 0.64882 0.47107 0.0
C115 C 0.89622 0.63197 0.46079 0.0
C116 C 0.87666 0.60569 0.40324 0.0
C117 C 0.8657 0.60446 0.37964 0.0
C118 C 0.88038 0.59489 0.36006 0.0
C119 C 0.9063 0.58627 0.36375 0.0
C120 C 0.91709 0.58702 0.38754 0.0
C121 C 0.90228 0.59647 0.4072 0.0
C122 C 0.84538 0.59548 0.44744 0.0
C123 C 0.83234 0.60263 0.46903 0.0
C124 C 0.81577 0.58682 0.48027 0.0
C125 C 0.81191 0.56367 0.46992 0.0
C126 C 0.8271 0.55568 0.44972 0.0
C127 C 0.84353 0.57158 0.43842 0.0
P128 P 0.87382 0.87326 0.86409 0.0
H129 H 0.85603 0.90854 0.90199 0.0
H130 H 0.81317 0.92254 0.91664 0.0
H131 H 0.77793 0.87423 0.86484 0.0
H132 H 0.82123 0.8604 0.84989 0.0
H133 H 0.9215 0.84248 0.85824 0.0
H134 H 0.9356 0.80173 0.8735 0.0
H135 H 0.85947 0.79382 0.90374 0.0
H136 H 0.84549 0.83444 0.88849 0.0
H137 H 0.85995 0.91825 0.83779 0.0
H138 H 0.89486 0.84687 0.81976 0.0
O139 O 0.89538 0.8894 0.87916 0.0
H140 H 0.86906 0.93266 0.79649 0.0
H141 H 0.90509 0.86145 0.77866 0.0
C142 C 0.84187 0.88333 0.87488 0.0
C143 C 0.83918 0.90093 0.89366 0.0
C144 C 0.8146 0.90904 0.90199 0.0
C145 C 0.79215 0.89953 0.89188 0.0
C146 C 0.79488 0.88177 0.8731 0.0
C147 C 0.81955 0.87392 0.8645 0.0
C148 C 0.88223 0.84145 0.87159 0.0
C149 C 0.9076 0.83171 0.86754 0.0
C150 C 0.91569 0.8084 0.87637 0.0
C151 C 0.89868 0.79448 0.88989 0.0
C152 C 0.87313 0.80412 0.89357 0.0
C153 C 0.865 0.82735 0.88455 0.0
C154 C 0.87669 0.88148 0.83201 0.0
C155 C 0.86932 0.90555 0.82484 0.0
C156 C 0.87487 0.91388 0.80124 0.0
C157 C 0.88823 0.89839 0.78424 0.0
C158 C 0.89469 0.87391 0.79116 0.0
C159 C 0.88898 0.86555 0.81483 0.0
P160 P 0.65992 0.18526 0.33334 0.0
H161 H 0.6753 0.21814 0.37216 0.0
H162 H 0.65181 0.25012 0.39604 0.0
H163 H 0.58001 0.231 0.36173 0.0
H164 H 0.60367 0.19887 0.33798 0.0
H165 H 0.70598 0.15639 0.31798 0.0
H166 H 0.73901 0.1311 0.34023 0.0
H167 H 0.6971 0.1443 0.40797 0.0
H168 H 0.6639 0.16941 0.38549 0.0
H169 H 0.62672 0.20036 0.2919 0.0
H170 H 0.65117 0.13243 0.32772 0.0
O171 O 0.67759 0.20305 0.31601 0.0
H172 H 0.60558 0.17759 0.25945 0.0
H173 H 0.63106 0.10945 0.29485 0.0
C174 C 0.64129 0.20592 0.35343 0.0
C175 C 0.65442 0.22047 0.37015 0.0
C176 C 0.64094 0.23876 0.38383 0.0
C177 C 0.614 0.24317 0.3808 0.0
C178 C 0.60078 0.22821 0.36435 0.0
C179 C 0.6143 0.20972 0.35082 0.0
C180 C 0.68277 0.16518 0.35013 0.0
C181 C 0.70382 0.15373 0.3376 0.0
C182 C 0.72261 0.13915 0.35032 0.0
C183 C 0.72078 0.13583 0.3759 0.0
C184 C 0.69924 0.14681 0.38832 0.0
C185 C 0.68025 0.16117 0.37549 0.0
C186 C 0.64067 0.16816 0.31217 0.0
C187 C 0.62731 0.18053 0.29291 0.0
C188 C 0.61547 0.16743 0.2742 0.0
C189 C 0.61694 0.14159 0.2742 0.0
C190 C 0.62936 0.12929 0.29422 0.0
C191 C 0.64105 0.14247 0.31304 0.0
P192 P 0.42733 0.56582 0.05524 0.0
H193 H 0.39435 0.5608 0.01202 0.0
H194 H 0.34742 0.55904 0.0067 0.0
H195 H 0.3383 0.56077 0.0858 0.0
H196 H 0.38478 0.56364 0.09084 0.0
H197 H 0.47628 0.58684 0.04369 0.0
H198 H 0.48777 0.62925 0.03707 0.0
H199 H 0.40659 0.65323 0.03917 0.0
H200 H 0.39531 0.61116 0.04591 0.0
H201 H 0.43446 0.52335 0.08765 0.0
H202 H 0.43968 0.60173 0.0934 0.0
O203 O 0.44381 0.54452 0.0386 0.0
H204 H 0.44355 0.51934 0.13181 0.0
H205 H 0.45005 0.5978 0.13682 0.0
C206 C 0.39312 0.56198 0.05178 0.0
C207 C 0.38219 0.56056 0.02818 0.0
C208 C 0.35537 0.5595 0.02519 0.0
C209 C 0.33901 0.55977 0.04583 0.0
C210 C 0.3502 0.56091 0.06948 0.0
C211 C 0.37695 0.56222 0.0724 0.0
C212 C 0.43496 0.59576 0.04481 0.0
C213 C 0.46096 0.60117 0.04203 0.0
C214 C 0.4675 0.62539 0.03849 0.0
C215 C 0.44806 0.6445 0.03758 0.0
C216 C 0.42196 0.63883 0.03941 0.0
C217 C 0.41548 0.61471 0.04322 0.0
C218 C 0.43684 0.56272 0.0871 0.0
C219 C 0.43812 0.5396 0.09829 0.0
C220 C 0.44339 0.53736 0.12352 0.0
C221 C 0.44752 0.55826 0.13794 0.0
C222 C 0.44656 0.58134 0.12645 0.0
C223 C 0.44098 0.58357 0.10138 0.0
P224 P 0.13109 0.38538 0.59453 0.0
H225 H 0.13305 0.35666 0.54968 0.0
H226 H 0.0994 0.33663 0.5269 0.0
H227 H 0.04062 0.37679 0.56959 0.0
H228 H 0.07448 0.39658 0.59247 0.0
H229 H 0.18356 0.39361 0.60925 0.0
H230 H 0.21657 0.41896 0.59285 0.0
H231 H 0.16357 0.44449 0.53514 0.0
H232 H 0.13052 0.41854 0.55164 0.0
H233 H 0.10426 0.36608 0.63624 0.0
H234 H 0.12708 0.43667 0.61168 0.0
O235 O 0.14639 0.35908 0.60346 0.0
H236 H 0.087 0.38482 0.67407 0.0
H237 H 0.10981 0.45556 0.64952 0.0
C238 C 0.10628 0.3776 0.57308 0.0
C239 C 0.11289 0.36173 0.55357 0.0
C240 C 0.09356 0.35042 0.54045 0.0
C241 C 0.06731 0.35484 0.54673 0.0
C242 C 0.0607 0.37272 0.56464 0.0
C243 C 0.08009 0.38404 0.57775 0.0
C244 C 0.1549 0.4039 0.58136 0.0
C245 C 0.17909 0.40455 0.59298 0.0
C246 C 0.19783 0.41927 0.58373 0.0
C247 C 0.19261 0.43385 0.56277 0.0
C248 C 0.16818 0.4333 0.5512 0.0
C249 C 0.14934 0.41851 0.56058 0.0
C250 C 0.11742 0.3999 0.62151 0.0
C251 C 0.10548 0.38563 0.63901 0.0
C252 C 0.09542 0.39639 0.66048 0.0
C253 C 0.09718 0.42163 0.66476 0.0
C254 C 0.10851 0.43601 0.6468 0.0
C255 C 0.11839 0.42523 0.62521 0.0
C256 C 0.02105 0.02546 0.46608 0.0
N257 N 0.00402 0.06345 0.53117 0.0
C258 C 0.0261 0.07461 0.52568 0.0
C259 C 0.02667 0.10003 0.52702 0.0
C260 C 0.00435 0.11405 0.53417 0.0
C261 C 0.98257 0.10199 0.54184 0.0
C262 C 0.98278 0.07643 0.54007 0.0
Zn263 Zn 1.00126 0.02848 0.51876 0.0
C264 C 0.95058 0.02445 0.4912 0.0
N265 N 0.99507 0.95758 0.48778 0.0
C266 C 0.01683 0.94532 0.47906 0.0
C267 C 0.97245 0.94629 0.49019 0.0
C268 C 0.97139 0.92144 0.48459 0.0
C269 C 0.99394 0.9081 0.47689 0.0
C270 C 0.01677 0.92033 0.47372 0.0
Zn271 Zn 0.99749 0.99229 0.50096 0.0
O272 O 0.01773 0.03929 0.48478 0.0
C273 C 0.04816 0.99635 0.52863 0.0
O274 O 0.01444 1.00344 0.4673 0.0
H275 H 0.95548 0.95632 0.49742 0.0
H276 H 0.04271 0.06399 0.51852 0.0
H277 H 0.03457 0.95469 0.47716 0.0
O278 O 0.03888 0.01799 0.53299 0.0
O279 O 0.03492 0.98209 0.51578 0.0
H280 H 0.96538 0.06718 0.54417 0.0
O281 O 0.98044 0.98146 0.53489 0.0
O282 O 0.98474 0.01726 0.5524 0.0
O283 O 0.96012 1.00301 0.48633 0.0
O284 O 0.96358 0.03855 0.50448 0.0
C285 C 0.97759 0.99539 0.55364 0.0
H286 H 0.04397 0.10872 0.52132 0.0
H287 H 0.96501 0.11226 0.54746 0.0
H288 H 0.9535 0.91246 0.48745 0.0
H289 H 0.03446 0.91054 0.4677 0.0
C290 C 0.54681 0.98789 0.99568 0.0
N291 N 0.50615 0.05674 0.99144 0.0
C292 C 0.52948 0.06682 0.99408 0.0
C293 C 0.53216 0.09128 0.98777 0.0
C294 C 0.51053 0.10551 0.97905 0.0
C295 C 0.48691 0.09447 0.97574 0.0
C296 C 0.4852 0.06984 0.98191 0.0
Zn297 Zn 0.5016 0.02269 0.00536 0.0
C298 C 0.4758 0.99002 0.97094 0.0
N299 N 0.49121 0.95272 0.03694 0.0
C300 C 0.51166 0.93794 0.04498 0.0
C301 C 0.46713 0.94414 0.0345 0.0
C302 C 0.46316 0.91957 0.03899 0.0
C303 C 0.48424 0.90342 0.04557 0.0
C304 C 0.50861 0.91305 0.04936 0.0
Zn305 Zn 0.49651 0.98689 0.02339 0.0
O306 O 0.53821 0.00975 0.9913 0.0
C307 C 0.52249 0.01965 0.05769 0.0
O308 O 0.53335 0.97417 0.00874 0.0
H309 H 0.45116 0.95605 0.02783 0.0
H310 H 0.5458 0.05616 1.00195 0.0
H311 H 0.53065 0.94512 0.04677 0.0
O312 O 0.51957 0.03331 0.03881 0.0
O313 O 0.51465 0.99798 0.05684 0.0
H314 H 0.46686 0.06143 0.97988 0.0
O315 O 0.4598 1.00028 0.03783 0.0
O316 O 0.46506 0.03535 0.01967 0.0
O317 O 0.47855 0.97623 0.98973 0.0
O318 O 0.48359 0.01165 0.97207 0.0
C319 C 0.45147 0.02214 0.03305 0.0
H320 H 0.55063 0.09927 0.99075 0.0
H321 H 0.46989 0.1049 0.96887 0.0
H322 H 0.44389 0.91311 0.03641 0.0
H323 H 0.52546 0.9013 0.0543 0.0
C324 C 0.50799 0.46784 0.49125 0.0
N325 N 0.50439 0.50039 0.56155 0.0
C326 C 0.49715 0.47899 0.57143 0.0
C327 C 0.50387 0.47293 0.59578 0.0
C328 C 0.51816 0.48909 0.6099 0.0
C329 C 0.52459 0.51133 0.59937 0.0
C330 C 0.51762 0.51657 0.57509 0.0
Zn331 Zn 0.4976 0.50925 0.52556 0.0
C332 C 0.54611 0.52564 0.5028 0.0
N333 N 0.48573 0.53081 0.45088 0.0
C334 C 0.47334 0.51454 0.43667 0.0
C335 C 0.49522 0.5513 0.44098 0.0
C336 C 0.49295 0.55569 0.41567 0.0
C337 C 0.48116 0.53862 0.40055 0.0
C338 C 0.47097 0.51803 0.41136 0.0
Zn339 Zn 0.49173 0.522 0.48701 0.0
O340 O 0.50802 0.47237 0.51424 0.0
C341 C 0.44333 0.50538 0.51003 0.0
O342 O 0.50172 0.48511 0.47632 0.0
H343 H 0.50509 0.56393 0.45263 0.0
H344 H 0.48666 0.46639 0.56029 0.0
H345 H 0.46578 0.49845 0.4449 0.0
O346 O 0.45837 0.50119 0.52838 0.0
O347 O 0.45231 0.51391 0.4903 0.0
H348 H 0.52327 0.53346 0.56693 0.0
O349 O 0.48172 0.55897 0.49832 0.0
O350 O 0.48721 0.54602 0.53627 0.0
O351 O 0.53144 0.52971 0.48418 0.0
O352 O 0.53664 0.51748 0.52241 0.0
C353 C 0.48135 0.56339 0.52134 0.0
H354 H 0.49865 0.45551 0.60318 0.0
H355 H 0.53517 0.52452 0.60972 0.0
H356 H 0.50109 0.57176 0.40789 0.0
H357 H 0.46143 0.50464 0.4003 0.0
C358 C 0.9982 0.56633 1.00015 0.0
N359 N 0.00329 0.53577 0.07134 0.0
C360 C 0.01096 0.557 0.08147 0.0
C361 C 0.00672 0.56193 0.10647 0.0
C362 C 0.99451 0.5448 0.12101 0.0
C363 C 0.98682 0.52313 0.10993 0.0
C364 C 0.9913 0.51903 0.08503 0.0
Zn365 Zn 0.01051 0.52648 0.03566 0.0
C366 C 0.96381 0.50622 0.01184 0.0
N367 N 0.02528 0.50303 0.96229 0.0
C368 C 0.03785 0.51887 0.948 0.0
C369 C 0.01757 0.48141 0.95313 0.0
C370 C 0.02252 0.47501 0.92863 0.0
C371 C 0.03542 0.49108 0.91344 0.0
C372 C 0.04304 0.5133 0.92343 0.0
Zn373 Zn 0.01786 0.51285 0.99778 0.0
O374 O 0.99738 0.56223 0.02319 0.0
C375 C 0.06465 0.53307 0.02135 0.0
O376 O 0.00643 0.54915 0.98586 0.0
H377 H 0.00759 0.46911 0.96485 0.0
H378 H 0.02054 0.57 0.07022 0.0
H379 H 0.04378 0.53598 0.95564 0.0
O380 O 0.04903 0.53779 0.03894 0.0
O381 O 0.0566 0.52253 1.00213 0.0
H382 H 0.9855 0.5022 0.0767 0.0
O383 O 0.02901 0.47652 0.01017 0.0
O384 O 0.02377 0.49067 0.04766 0.0
O385 O 0.97916 0.50333 0.99377 0.0
O386 O 0.97202 0.51505 0.03189 0.0
C387 C 0.03002 0.47294 0.03329 0.0
H388 H 0.01278 0.57896 0.11426 0.0
H389 H 0.97783 0.50917 0.12048 0.0
H390 H 0.01658 0.45756 0.92177 0.0
H391 H 0.05264 0.52643 0.91233 0.0
C392 C 0.12674 0.10612 0.28356 0.0
C393 C 0.11303 0.1255 0.27117 0.0
C394 C 0.11541 0.09389 0.30298 0.0
C395 C 0.06327 0.10266 0.34925 0.0
H396 H 0.07935 0.03358 0.36199 0.0
C397 C 0.04064 0.05928 0.44275 0.0
C398 C 0.03175 0.03543 0.44307 0.0
C399 C 0.04977 0.06929 0.42102 0.0
C400 C 0.07441 0.05283 0.35862 0.0
H401 H 0.07616 0.14659 0.26918 0.0
H402 H 0.05615 0.12484 0.30257 0.0
H403 H 0.09534 0.05213 0.32469 0.0
H404 H 0.02573 1.00334 0.42065 0.0
H405 H 0.04135 0.02094 0.38257 0.0
H406 H 0.04195 0.10331 0.38289 0.0
C407 C 0.07592 0.11941 0.29757 0.0
C408 C 0.08386 0.06357 0.33732 0.0
C409 C 0.08729 0.1317 0.27816 0.0
C410 C 0.03252 0.02172 0.42109 0.0
C411 C 0.04158 0.03181 0.39927 0.0
C412 C 0.05377 0.09192 0.37048 0.0
C413 C 0.08997 0.10059 0.31053 0.0
C414 C 0.07864 0.08871 0.33245 0.0
C415 C 0.05016 0.05582 0.39889 0.0
C416 C 0.05943 0.06692 0.37564 0.0
H417 H 0.14646 0.10055 0.27847 0.0
H418 H 0.12697 0.07967 0.31255 0.0
H419 H 0.05903 0.1221 0.34636 0.0
H420 H 0.04051 0.07034 0.45934 0.0
H421 H 0.05671 0.08761 0.42166 0.0
C422 C 0.40637 0.88824 0.78037 0.0
C423 C 0.39882 0.90458 0.76131 0.0
C424 C 0.41342 0.89706 0.80359 0.0
C425 C 0.40926 0.9537 0.84264 0.0
H426 H 0.46529 0.91973 0.87909 0.0
C427 C 0.45942 0.99592 0.92745 0.0
C428 C 0.46481 0.98041 0.94772 0.0
C429 C 0.45019 0.9865 0.90524 0.0
C430 C 0.44944 0.9293 0.86925 0.0
H431 H 0.39344 0.94302 0.75159 0.0
H432 H 0.40616 0.95838 0.79168 0.0
H433 H 0.45168 0.90352 0.8395 0.0
H434 H 0.46445 0.94281 0.96051 0.0
H435 H 0.44855 0.92644 0.92177 0.0
H436 H 0.40753 0.97979 0.87224 0.0
C437 C 0.40591 0.93873 0.78908 0.0
C438 C 0.44154 0.91996 0.84654 0.0
C439 C 0.39866 0.92992 0.766 0.0
C440 C 0.4605 0.95531 0.9453 0.0
C441 C 0.45155 0.94587 0.92304 0.0
C442 C 0.41734 0.96315 0.86524 0.0
C443 C 0.41338 0.92247 0.80827 0.0
C444 C 0.42138 0.93205 0.83285 0.0
C445 C 0.4464 0.96131 0.90269 0.0
C446 C 0.43755 0.9511 0.8788 0.0
H447 H 0.40652 0.86861 0.77741 0.0
H448 H 0.41865 0.88392 0.81795 0.0
H449 H 0.39334 0.96331 0.83297 0.0
H450 H 0.46253 0.01533 0.92866 0.0
H451 H 0.4466 0.99886 0.88986 0.0
C452 C 0.58073 0.43591 0.82271 0.0
C453 C 0.6062 0.4418 0.82856 0.0
C454 C 0.56982 0.44215 0.7998 0.0
C455 C 0.58972 0.45347 0.73662 0.0
H456 H 0.51867 0.47885 0.72679 0.0
C457 C 0.55251 0.48791 0.64258 0.0
C458 C 0.52732 0.48265 0.63513 0.0
C459 C 0.56121 0.48269 0.66643 0.0
C460 C 0.53844 0.47145 0.72925 0.0
H461 H 0.63958 0.46017 0.81558 0.0
H462 H 0.62056 0.47097 0.77552 0.0
H463 H 0.53533 0.47167 0.7686 0.0
H464 H 0.49156 0.46751 0.64684 0.0
H465 H 0.50702 0.45784 0.68862 0.0
H466 H 0.59291 0.45296 0.69744 0.0
C467 C 0.60923 0.46115 0.78852 0.0
C468 C 0.54799 0.46745 0.75316 0.0
C469 C 0.6201 0.45499 0.81143 0.0
C470 C 0.51111 0.47166 0.65202 0.0
C471 C 0.51986 0.46638 0.67599 0.0
C472 C 0.58018 0.45735 0.71279 0.0
C473 C 0.5842 0.45431 0.78227 0.0
C474 C 0.57381 0.45864 0.75706 0.0
C475 C 0.54501 0.4719 0.68343 0.0
C476 C 0.55453 0.46661 0.70882 0.0
H477 H 0.56962 0.42549 0.83539 0.0
H478 H 0.55057 0.43649 0.79541 0.0
H479 H 0.60952 0.44613 0.73904 0.0
H480 H 0.56563 0.49603 0.62991 0.0
H481 H 0.58057 0.48744 0.67163 0.0
C482 C 0.91127 0.56206 0.32482 0.0
C483 C 0.92202 0.57728 0.34256 0.0
C484 C 0.92479 0.55582 0.30339 0.0
C485 C 0.97312 0.57991 0.26272 0.0
H486 H 0.96609 0.51785 0.22921 0.0
C487 C 0.0088 0.55909 0.1628 0.0
C488 C 0.98991 0.54902 0.14766 0.0
C489 C 0.00491 0.56134 0.18821 0.0
C490 C 0.96828 0.53524 0.23841 0.0
H491 H 0.95583 0.59702 0.35235 0.0
H492 H 0.97971 0.58584 0.31485 0.0
H493 H 0.95256 0.52242 0.27199 0.0
H494 H 0.95162 0.5346 0.14715 0.0
H495 H 0.94513 0.53816 0.19131 0.0
H496 H 0.98829 0.59283 0.22881 0.0
C497 C 0.96068 0.57897 0.31746 0.0
C498 C 0.96053 0.53787 0.26285 0.0
C499 C 0.94712 0.58519 0.33899 0.0
C500 C 0.96685 0.54186 0.15835 0.0
C501 C 0.96311 0.54387 0.18364 0.0
C502 C 0.98104 0.57721 0.23827 0.0
C503 C 0.94941 0.56463 0.29922 0.0
C504 C 0.962 0.56049 0.275 0.0
C505 C 0.9822 0.55334 0.19885 0.0
C506 C 0.97783 0.55512 0.22568 0.0
H507 H 0.89208 0.55546 0.32724 0.0
H508 H 0.91541 0.54496 0.2896 0.0
H509 H 0.97432 0.59763 0.2715 0.0
H510 H 0.02686 0.56459 0.15515 0.0
H511 H 0.01989 0.56876 0.19959 0.0
C512 C 0.27904 0.13038 0.15085 0.0
C513 C 0.25324 0.12841 0.14296 0.0
C514 C 0.29948 0.11765 0.13874 0.0
C515 C 0.31572 0.06573 0.09648 0.0
H516 H 0.37742 0.10107 0.08496 0.0
C517 C 0.41257 0.01923 0.0604 0.0
C518 C 0.42686 0.03267 0.04374 0.0
C519 C 0.39032 0.03 0.07163 0.0
C520 C 0.36028 0.09095 0.08782 0.0
H521 H 0.22878 0.11101 0.1163 0.0
H522 H 0.26457 0.08871 0.09512 0.0
H523 H 0.34078 0.12135 0.10614 0.0
H524 H 0.42836 0.06772 0.0252 0.0
H525 H 0.38961 0.08627 0.04449 0.0
H526 H 0.33527 0.03539 0.07778 0.0
C527 C 0.2689 0.10002 0.11085 0.0
C528 C 0.33935 0.10251 0.10026 0.0
C529 C 0.24838 0.11281 0.12299 0.0
C530 C 0.41798 0.05686 0.03807 0.0
C531 C 0.3958 0.06758 0.04926 0.0
C532 C 0.33676 0.0541 0.08406 0.0
C533 C 0.29474 0.10254 0.11839 0.0
C534 C 0.31682 0.09006 0.10484 0.0
C535 C 0.38189 0.05444 0.06647 0.0
C536 C 0.3593 0.0666 0.07955 0.0
H537 H 0.28348 0.14176 0.1665 0.0
H538 H 0.31907 0.1196 0.14541 0.0
H539 H 0.29873 0.05554 0.09984 0.0
H540 H 0.41887 1.00057 0.06519 0.0
H541 H 0.38019 0.0194 0.08491 0.0
C542 C 0.26032 0.93822 0.62378 0.0
C543 C 0.26999 0.91418 0.61845 0.0
C544 C 0.23615 0.94707 0.61468 0.0
C545 C 0.17416 0.92706 0.58879 0.0
H546 H 0.16718 0.99353 0.56359 0.0
C547 C 0.08366 0.96338 0.53396 0.0
C548 C 0.0738 0.98747 0.53876 0.0
C549 C 0.10746 0.95463 0.54393 0.0
C550 C 0.16869 0.97503 0.57081 0.0
H551 H 0.26164 0.88059 0.59939 0.0
H552 H 0.21948 0.89602 0.58349 0.0
H553 H 0.20861 0.97775 0.58073 0.0
H554 H 0.08145 0.0213 0.55774 0.0
H555 H 0.12295 0.00597 0.57529 0.0
H556 H 0.13425 0.92432 0.5788 0.0
C557 C 0.23047 0.90796 0.59498 0.0
C558 C 0.19247 0.96596 0.58066 0.0
C559 C 0.25466 0.89909 0.60411 0.0
C560 C 0.08848 1.00267 0.55362 0.0
C561 C 0.11234 0.99391 0.56359 0.0
C562 C 0.15038 0.93612 0.57894 0.0
C563 C 0.22098 0.93213 0.6 0.0
C564 C 0.19554 0.94184 0.58974 0.0
C565 C 0.12209 0.96973 0.55896 0.0
C566 C 0.14735 0.96021 0.56976 0.0
H567 H 0.27138 0.95021 0.63514 0.0
H568 H 0.22926 0.96561 0.61932 0.0
H569 H 0.17567 0.90854 0.59596 0.0
H570 H 0.07294 0.95117 0.52252 0.0
H571 H 0.11453 0.93605 0.53964 0.0
C572 C 0.73758 0.4482 1.00012 0.0
C573 C 0.72755 0.45155 0.97613 0.0
C574 C 0.76188 0.45658 0.00637 0.0
C575 C 0.82318 0.46307 0.97766 0.0
H576 H 0.84181 0.50484 0.032 0.0
C577 C 0.92549 0.49738 0.98578 0.0
C578 C 0.93648 0.50008 0.00927 0.0
C579 C 0.8995 0.49221 0.98316 0.0
C580 C 0.83701 0.49282 0.01698 0.0
H581 H 0.73462 0.46717 0.94025 0.0
H582 H 0.77691 0.48158 0.95118 0.0
H583 H 0.7964 0.4955 0.02575 0.0
H584 H 0.92898 0.49927 0.04848 0.0
H585 H 0.88376 0.48923 0.04395 0.0
H586 H 0.86344 0.45947 0.96915 0.0
C587 C 0.76592 0.47263 0.96512 0.0
C588 C 0.81102 0.48764 0.01337 0.0
C589 C 0.74161 0.46457 0.95897 0.0
C590 C 0.92097 0.49735 0.03013 0.0
C591 C 0.89501 0.49178 0.02751 0.0
C592 C 0.84909 0.46785 0.98147 0.0
C593 C 0.77657 0.46807 0.9886 0.0
C594 C 0.80392 0.47305 0.99343 0.0
C595 C 0.88393 0.48915 0.00397 0.0
C596 C 0.85635 0.48313 1.00092 0.0
H597 H 0.7271 0.43828 0.0137 0.0
H598 H 0.7698 0.45287 0.0246 0.0
H599 H 0.81817 0.45137 0.96242 0.0
H600 H 0.93686 0.49968 0.96935 0.0
H601 H 0.89156 0.49093 0.96472 0.0
C602 C 0.77259 0.54176 0.45845 0.0
C603 C 0.78888 0.55038 0.477 0.0
C604 C 0.74806 0.5342 0.46415 0.0
C605 C 0.69765 0.54692 0.51028 0.0
H606 H 0.66109 0.50015 0.47135 0.0
C607 C 0.58921 0.52876 0.52324 0.0
C608 C 0.57425 0.52865 0.5015 0.0
C609 C 0.61614 0.52942 0.52217 0.0
C610 C 0.67109 0.51331 0.4823 0.0
H611 H 0.79307 0.55584 0.51633 0.0
H612 H 0.75017 0.54219 0.52642 0.0
H613 H 0.70804 0.50152 0.46758 0.0
H614 H 0.57569 0.5295 0.46162 0.0
H615 H 0.62293 0.5305 0.45976 0.0
H616 H 0.66057 0.55868 0.52492 0.0
C617 C 0.75622 0.54186 0.50736 0.0
C618 C 0.69795 0.51409 0.48019 0.0
C619 C 0.78081 0.54956 0.50162 0.0
C620 C 0.58671 0.52966 0.47866 0.0
C621 C 0.61371 0.52999 0.4776 0.0
C622 C 0.67083 0.54593 0.51259 0.0
C623 C 0.7392 0.53498 0.48855 0.0
C624 C 0.71147 0.53133 0.49369 0.0
C625 C 0.62866 0.52966 0.49934 0.0
C626 C 0.65725 0.52952 0.49819 0.0
H627 H 0.77793 0.54254 0.43924 0.0
H628 H 0.73542 0.52938 0.44912 0.0
H629 H 0.70731 0.56071 0.52066 0.0
H630 H 0.58014 0.52801 0.54113 0.0
H631 H 0.62725 0.52912 0.53919 0.0
C632 C 0.1286 0.2818 0.1208 0.0
C633 C 0.11151 0.26673 0.13282 0.0
C634 C 0.11932 0.30325 0.10886 0.0
C635 C 0.0614 0.33484 0.08093 0.0
H636 H 0.09716 0.39386 0.09491 0.0
C637 C 0.04126 0.42756 0.02875 0.0
C638 C 0.03867 0.44863 0.04369 0.0
C639 C 0.04949 0.40477 0.0389 0.0
C640 C 0.08694 0.37755 0.09083 0.0
H641 H 0.07111 0.26218 0.14115 0.0
H642 H 0.05481 0.2997 0.12 0.0
H643 H 0.1125 0.35507 0.11372 0.0
H644 H 0.04271 0.46217 0.08105 0.0
H645 H 0.0574 0.42267 0.09852 0.0
H646 H 0.03584 0.35748 0.05796 0.0
C647 C 0.07544 0.29481 0.11991 0.0
C648 C 0.09584 0.35529 0.10147 0.0
C649 C 0.08478 0.27344 0.13215 0.0
C650 C 0.04451 0.44636 0.06896 0.0
C651 C 0.05305 0.42373 0.079 0.0
C652 C 0.05269 0.3571 0.06998 0.0
C653 C 0.09267 0.31014 0.10842 0.0
C654 C 0.08313 0.33368 0.09675 0.0
C655 C 0.05569 0.40266 0.06411 0.0
C656 C 0.06526 0.37875 0.07497 0.0
H657 H 0.14932 0.27736 0.12119 0.0
H658 H 0.13307 0.31455 0.10003 0.0
H659 H 0.05129 0.31847 0.07683 0.0
H660 H 0.03686 0.42865 0.00923 0.0
H661 H 0.05147 0.38888 0.02694 0.0
C662 C 0.55063 0.32064 0.9426 0.0
C663 C 0.57307 0.32514 0.95631 0.0
C664 C 0.53712 0.29975 0.94705 0.0
C665 C 0.5331 0.24462 0.94496 0.0
H666 H 0.51908 0.21542 0.00815 0.0
C667 C 0.53276 0.14071 0.96115 0.0
C668 C 0.5123 0.13207 0.9749 0.0
C669 C 0.53537 0.16586 0.95863 0.0
C670 C 0.52261 0.22349 0.99037 0.0
H671 H 0.59755 0.31243 0.98688 0.0
H672 H 0.57367 0.27611 0.99488 0.0
H673 H 0.53078 0.25823 0.00628 0.0
H674 H 0.47852 0.14273 0.99674 0.0
H675 H 0.48339 0.1869 0.99264 0.0
H676 H 0.52607 0.20965 0.92915 0.0
C677 C 0.56661 0.28873 0.98064 0.0
C678 C 0.5294 0.24788 0.98933 0.0
C679 C 0.58027 0.30956 0.97608 0.0
C680 C 0.49432 0.14899 0.98585 0.0
C681 C 0.49718 0.17417 0.98366 0.0
C682 C 0.52669 0.2202 0.94604 0.0
C683 C 0.54562 0.2831 0.96546 0.0
C684 C 0.53508 0.25853 0.96663 0.0
C685 C 0.51781 0.18279 0.97014 0.0
C686 C 0.52184 0.20931 0.96878 0.0
H687 H 0.5443 0.33262 0.92758 0.0
H688 H 0.52073 0.29601 0.93535 0.0
H689 H 0.53771 0.25226 0.92724 0.0
H690 H 0.54682 0.12798 0.95252 0.0
H691 H 0.55158 0.17208 0.94827 0.0
C692 C 0.91794 0.71184 0.48903 0.0
C693 C 0.92665 0.69187 0.47443 0.0
C694 C 0.93334 0.73176 0.49223 0.0
C695 C 0.97453 0.76921 0.5006 0.0
H696 H 0.98663 0.79717 0.43633 0.0
C697 C 0.0118 0.86606 0.48777 0.0
C698 C 0.994 0.88122 0.47421 0.0
C699 C 0.00991 0.84065 0.48773 0.0
C700 C 0.98373 0.7894 0.45437 0.0
H701 H 0.95842 0.6762 0.45263 0.0
H702 H 0.98529 0.71148 0.45777 0.0
H703 H 0.97286 0.75519 0.43936 0.0
H704 H 0.96115 0.88195 0.44919 0.0
H705 H 0.95823 0.83735 0.4486 0.0
H706 H 0.98449 0.8038 0.51552 0.0
C707 C 0.96678 0.71151 0.46703 0.0
C708 C 0.97606 0.76539 0.45614 0.0
C709 C 0.95155 0.69137 0.46422 0.0
C710 C 0.97505 0.87056 0.45975 0.0
C711 C 0.97349 0.84514 0.45933 0.0
C712 C 0.98266 0.79309 0.49885 0.0
C713 C 0.95743 0.73217 0.48043 0.0
C714 C 0.9706 0.7554 0.47921 0.0
C715 C 0.99054 0.83005 0.47374 0.0
C716 C 0.98649 0.8036 0.47568 0.0
H717 H 0.89865 0.71259 0.49683 0.0
H718 H 0.92558 0.74759 0.50242 0.0
H719 H 0.97036 0.76187 0.51856 0.0
H720 H 0.02642 0.87395 0.49923 0.0
H721 H 0.02322 0.82932 0.49898 0.0
C722 C 0.40171 0.77037 0.58813 0.0
C723 C 0.40524 0.77512 0.6134 0.0
C724 C 0.40935 0.74751 0.57803 0.0
C725 C 0.42531 0.68249 0.59418 0.0
H726 H 0.46113 0.68065 0.53162 0.0
C727 C 0.47516 0.59293 0.5565 0.0
C728 C 0.47346 0.58817 0.53108 0.0
C729 C 0.46679 0.61577 0.56614 0.0
C730 C 0.45086 0.68077 0.54893 0.0
H731 H 0.41941 0.75917 0.64783 0.0
H732 H 0.43253 0.7192 0.63024 0.0
H733 H 0.44615 0.72001 0.54933 0.0
H734 H 0.46181 0.60395 0.49583 0.0
H735 H 0.44685 0.64382 0.51269 0.0
H736 H 0.42987 0.64329 0.59378 0.0
C737 C 0.42367 0.73319 0.61827 0.0
C738 C 0.44228 0.70338 0.55912 0.0
C739 C 0.41609 0.75613 0.62838 0.0
C740 C 0.46347 0.60701 0.51548 0.0
C741 C 0.45499 0.62991 0.52517 0.0
C742 C 0.4338 0.65989 0.58396 0.0
C743 C 0.42063 0.72867 0.5929 0.0
C744 C 0.42948 0.70454 0.58192 0.0
C745 C 0.45634 0.63454 0.55067 0.0
C746 C 0.44682 0.6587 0.56125 0.0
H747 H 0.39292 0.78434 0.57609 0.0
H748 H 0.40624 0.74453 0.55853 0.0
H749 H 0.41516 0.68265 0.61156 0.0
H750 H 0.48291 0.57893 0.56909 0.0
H751 H 0.46867 0.61875 0.58577 0.0
C752 C 0.89604 0.89384 0.73842 0.0
C753 C 0.89646 0.90818 0.75998 0.0
C754 C 0.90424 0.90311 0.71588 0.0
C755 C 0.94366 0.95164 0.68978 0.0
H756 H 0.90736 0.93769 0.62908 0.0
C757 C 0.96553 1.00031 0.5983 0.0
C758 C 0.96684 0.98584 0.57684 0.0
C759 C 0.9564 0.99088 0.62037 0.0
C760 C 0.91788 0.94158 0.64583 0.0
H761 H 0.90632 0.94352 0.77454 0.0
H762 H 0.91981 0.9598 0.7354 0.0
H763 H 0.8927 0.92096 0.66787 0.0
H764 H 0.95917 0.95012 0.5618 0.0
H765 H 0.94336 0.93372 0.60023 0.0
H766 H 0.96877 0.97232 0.66779 0.0
C767 C 0.91343 0.94127 0.73586 0.0
C768 C 0.90949 0.93194 0.66811 0.0
C769 C 0.90529 0.93202 0.75833 0.0
C770 C 0.95841 0.96182 0.57794 0.0
C771 C 0.9492 0.95243 0.59998 0.0
C772 C 0.95199 0.96133 0.66755 0.0
C773 C 0.91314 0.92695 0.71431 0.0
C774 C 0.92222 0.93688 0.69042 0.0
C775 C 0.94825 0.96676 0.62156 0.0
C776 C 0.9392 0.95648 0.64526 0.0
H777 H 0.88921 0.87548 0.73889 0.0
H778 H 0.90395 0.89143 0.69976 0.0
H779 H 0.95431 0.95549 0.70647 0.0
H780 H 0.97179 0.01889 0.59814 0.0
H781 H 0.95562 1.00257 0.63652 0.0
C782 C 0.59511 0.1053 0.256 0.0
C783 C 0.60693 0.12764 0.25275 0.0
C784 C 0.58664 0.09197 0.23566 0.0
C785 C 0.59594 0.08556 0.16793 0.0
H786 H 0.5312 0.05312 0.16972 0.0
C787 C 0.54556 0.05223 0.08002 0.0
C788 C 0.53409 0.02951 0.08051 0.0
C789 C 0.55544 0.06237 0.10153 0.0
C790 C 0.5495 0.06181 0.16903 0.0
H791 H 0.61922 0.15321 0.22525 0.0
H792 H 0.60378 0.13057 0.19012 0.0
H793 H 0.54602 0.07454 0.2063 0.0
H794 H 0.52422 0.99956 0.10415 0.0
H795 H 0.54149 0.01739 0.14187 0.0
H796 H 0.59917 0.07326 0.13055 0.0
C797 C 0.60137 0.12307 0.20834 0.0
C798 C 0.55802 0.0741 0.19002 0.0
C799 C 0.60987 0.13632 0.22861 0.0
C800 C 0.53298 0.01706 0.1031 0.0
C801 C 0.54271 0.02735 0.12474 0.0
C802 C 0.58736 0.07341 0.14696 0.0
C803 C 0.5898 0.10062 0.21152 0.0
C804 C 0.58121 0.08642 0.18965 0.0
C805 C 0.55401 0.05017 0.1242 0.0
C806 C 0.56389 0.06163 0.14713 0.0
H807 H 0.59229 0.09811 0.27429 0.0
H808 H 0.57799 0.07469 0.23886 0.0
H809 H 0.6142 0.09429 0.16707 0.0
H810 H 0.54673 0.06238 0.06298 0.0
H811 H 0.56371 0.08011 0.10047 0.0
C812 C 0.46725 0.53627 0.17488 0.0
C813 C 0.4522 0.55623 0.16494 0.0
C814 C 0.47156 0.53452 0.20027 0.0
C815 C 0.47312 0.57127 0.25667 0.0
H816 H 0.46098 0.51034 0.28996 0.0
C817 C 0.47071 0.56376 0.36282 0.0
C818 C 0.48014 0.54159 0.3735 0.0
C819 C 0.46846 0.56587 0.33722 0.0
C820 C 0.46492 0.52738 0.28095 0.0
H821 H 0.42943 0.58969 0.17413 0.0
H822 H 0.43758 0.58686 0.21827 0.0
H823 H 0.45536 0.51312 0.24547 0.0
H824 H 0.49578 0.50468 0.366 0.0
H825 H 0.49268 0.50851 0.32141 0.0
H826 H 0.48309 0.58549 0.292 0.0
C827 C 0.44618 0.57273 0.20634 0.0
C828 C 0.46159 0.52895 0.25546 0.0
C829 C 0.44161 0.57435 0.18102 0.0
C830 C 0.48803 0.52185 0.35819 0.0
C831 C 0.48612 0.52403 0.33265 0.0
C832 C 0.47677 0.56962 0.28215 0.0
C833 C 0.46115 0.55279 0.2162 0.0
C834 C 0.46551 0.55094 0.24311 0.0
C835 C 0.47593 0.54593 0.32182 0.0
C836 C 0.47259 0.54768 0.29464 0.0
H837 H 0.47601 0.52217 0.16304 0.0
H838 H 0.48335 0.51904 0.20744 0.0
H839 H 0.47652 0.58837 0.24751 0.0
H840 H 0.46437 0.5792 0.37429 0.0
H841 H 0.46023 0.58292 0.32956 0.0
C842 C 0.10456 0.44796 0.70156 0.0
C843 C 0.08852 0.43249 0.68852 0.0
C844 C 0.09777 0.45618 0.72512 0.0
C845 C 0.04366 0.46467 0.76856 0.0
H846 H 0.09781 0.45608 0.8182 0.0
C847 C 0.02279 0.47326 0.87268 0.0
C848 C 0.04103 0.48482 0.88734 0.0
C849 C 0.02806 0.46771 0.84803 0.0
C850 C 0.08255 0.45895 0.80454 0.0
H851 H 0.05225 0.41447 0.6893 0.0
H852 H 0.04039 0.42884 0.73059 0.0
H853 H 0.10757 0.44627 0.77541 0.0
H854 H 0.07929 0.49929 0.88762 0.0
H855 H 0.08809 0.49037 0.84455 0.0
H856 H 0.01864 0.47749 0.7977 0.0
C857 C 0.05819 0.43457 0.72258 0.0
C858 C 0.08816 0.45331 0.78003 0.0
C859 C 0.06507 0.4262 0.69907 0.0
C860 C 0.06465 0.49067 0.87679 0.0
C861 C 0.06985 0.48526 0.85215 0.0
C862 C 0.03807 0.4705 0.7931 0.0
C863 C 0.07475 0.44922 0.73601 0.0
C864 C 0.06877 0.45607 0.76182 0.0
C865 C 0.05165 0.47367 0.83749 0.0
C866 C 0.05746 0.46764 0.81137 0.0
H867 H 0.12284 0.45295 0.69395 0.0
H868 H 0.11074 0.46768 0.73499 0.0
H869 H 0.02841 0.46713 0.75483 0.0
H870 H 0.00429 0.46875 0.88016 0.0
H871 H 0.01375 0.45852 0.83732 0.0
C872 C 0.75999 0.93336 0.90463 0.0
C873 C 0.76612 0.9082 0.9011 0.0
C874 C 0.73603 0.94161 0.91437 0.0
C875 C 0.66941 0.92199 0.92761 0.0
H876 H 0.66755 0.97847 0.97112 0.0
C877 C 0.57926 0.9532 0.98571 0.0
C878 C 0.57201 0.97844 0.98534 0.0
C879 C 0.60276 0.94428 0.97539 0.0
C880 C 0.66771 0.96278 0.95887 0.0
H881 H 0.75185 0.87193 0.90494 0.0
H882 H 0.71024 0.88617 0.92253 0.0
H883 H 0.70857 0.96343 0.95323 0.0
H884 H 0.58399 0.01411 0.97406 0.0
H885 H 0.62511 0.99856 0.95641 0.0
H886 H 0.6285 0.92116 0.93384 0.0
C887 C 0.72368 0.89967 0.91727 0.0
C888 C 0.69124 0.95418 0.94847 0.0
C889 C 0.74757 0.89145 0.90723 0.0
C890 C 0.58895 0.99456 0.97466 0.0
C891 C 0.61258 0.98568 0.96464 0.0
C892 C 0.64591 0.93045 0.93825 0.0
C893 C 0.71762 0.92489 0.92116 0.0
C894 C 0.69245 0.93376 0.93253 0.0
C895 C 0.61971 0.96043 0.96478 0.0
C896 C 0.64476 0.95104 0.95388 0.0
H897 H 0.77374 0.94674 0.89974 0.0
H898 H 0.73194 0.96117 0.91645 0.0
H899 H 0.66938 0.90647 0.91517 0.0
H900 H 0.56665 0.94027 0.99376 0.0
H901 H 0.60781 0.92476 0.97597 0.0
C902 C 0.75276 0.09949 0.38011 0.0
C903 C 0.74181 0.12171 0.38956 0.0
C904 C 0.77367 0.08704 0.39213 0.0
C905 C 0.81057 0.08401 0.4516 0.0
H906 H 0.86516 0.05384 0.41105 0.0
C907 C 0.91323 0.05588 0.48898 0.0
C908 C 0.925 0.03338 0.48102 0.0
C909 C 0.88967 0.06495 0.47872 0.0
C910 C 0.84995 0.0619 0.42265 0.0
H911 H 0.74417 0.14821 0.41913 0.0
H912 H 0.78089 0.12683 0.43985 0.0
H913 H 0.8264 0.07287 0.39159 0.0
H914 H 0.921 1.00264 0.45621 0.0
H915 H 0.8799 0.01863 0.43815 0.0
H916 H 0.83464 0.07358 0.48263 0.0
C917 C 0.77302 0.11864 0.42346 0.0
C918 C 0.82763 0.07279 0.4115 0.0
C919 C 0.75195 0.13097 0.41155 0.0
C920 C 0.91247 0.02002 0.46275 0.0
C921 C 0.889 0.02924 0.45231 0.0
C922 C 0.833 0.0733 0.46273 0.0
C923 C 0.78435 0.09661 0.41379 0.0
C924 C 0.80767 0.08413 0.4258 0.0
C925 C 0.8774 0.05187 0.4601 0.0
C926 C 0.85302 0.06225 0.44838 0.0
H927 H 0.74515 0.09172 0.36337 0.0
H928 H 0.78146 0.06989 0.38438 0.0
H929 H 0.79547 0.09212 0.46328 0.0
H930 H 0.92233 0.06665 0.50302 0.0
H931 H 0.88139 0.08255 0.48496 0.0
C932 C 0.29964 0.54474 0.02429 0.0
C933 C 0.31039 0.55917 0.04279 0.0
C934 C 0.27276 0.54403 0.02165 0.0
C935 C 0.21236 0.55267 0.05609 0.0
H936 H 0.17997 0.55773 0.99151 0.0
C937 C 0.10118 0.55241 0.0434 0.0
C938 C 0.09219 0.53889 0.02336 0.0
C939 C 0.12746 0.557 0.04554 0.0
C940 C 0.18871 0.55602 0.00966 0.0
H941 H 0.3011 0.5847 0.07261 0.0
H942 H 0.25423 0.58293 0.06833 0.0
H943 H 0.22666 0.56119 0.99563 0.0
H944 H 0.10373 0.5197 0.98978 0.0
H945 H 0.14943 0.52712 0.99383 0.0
H946 H 0.17466 0.54678 0.07011 0.0
C947 C 0.26669 0.57206 0.056 0.0
C948 C 0.21545 0.55807 0.01199 0.0
C949 C 0.29355 0.57297 0.0585 0.0
C950 C 0.10997 0.53029 0.0054 0.0
C951 C 0.13621 0.5347 0.00763 0.0
C952 C 0.18565 0.55038 0.05374 0.0
C953 C 0.25604 0.55757 0.03758 0.0
C954 C 0.22755 0.55625 0.0352 0.0
C955 C 0.14534 0.54802 0.02777 0.0
C956 C 0.17351 0.55183 0.03047 0.0
H957 H 0.31198 0.53359 0.01211 0.0
H958 H 0.26505 0.53246 0.00747 0.0
H959 H 0.22125 0.55096 0.07418 0.0
H960 H 0.08793 0.55938 0.05748 0.0
H961 H 0.13375 0.56763 0.0611 0.0
C962 C 0.21848 0.44924 0.52765 0.0
C963 C 0.21311 0.44894 0.55297 0.0
C964 C 0.24024 0.46057 0.51902 0.0
C965 C 0.29288 0.50081 0.53853 0.0
H966 H 0.33447 0.46058 0.49301 0.0
C967 C 0.40388 0.49954 0.53509 0.0
C968 C 0.41544 0.50136 0.51189 0.0
C969 C 0.37729 0.49676 0.53695 0.0
C970 C 0.3229 0.47219 0.50543 0.0
H971 H 0.22499 0.46197 0.58882 0.0
H972 H 0.26319 0.48089 0.57405 0.0
H973 H 0.29006 0.45047 0.50143 0.0
H974 H 0.40836 0.5014 0.47245 0.0
H975 H 0.36182 0.4958 0.4758 0.0
H976 H 0.32646 0.52156 0.54359 0.0
C977 C 0.25066 0.47267 0.56069 0.0
C978 C 0.2974 0.46652 0.51018 0.0
C979 C 0.22892 0.4615 0.56925 0.0
C980 C 0.39995 0.50006 0.49058 0.0
C981 C 0.37338 0.49686 0.49245 0.0
C982 C 0.31848 0.50624 0.53404 0.0
C983 C 0.25702 0.47178 0.53556 0.0
C984 C 0.28232 0.48035 0.52733 0.0
C985 C 0.36184 0.49538 0.51567 0.0
C986 C 0.33388 0.4916 0.51794 0.0
H987 H 0.20663 0.43971 0.51466 0.0
H988 H 0.24434 0.4599 0.49949 0.0
H989 H 0.28164 0.51218 0.5514 0.0
H990 H 0.4153 0.50059 0.55183 0.0
H991 H 0.36885 0.49534 0.55506 0.0
C992 C 0.92397 0.75359 0.88786 0.0
C993 C 0.90797 0.7706 0.90111 0.0
C994 C 0.93333 0.73154 0.89874 0.0
C995 C 0.9473 0.70272 0.95926 0.0
H996 H 0.94748 0.64185 0.92242 0.0
C997 C 0.97535 0.60823 0.00418 0.0
C998 C 0.9889 0.59043 0.98968 0.0
C999 C 0.96547 0.63035 0.99373 0.0
C1000 C 0.94795 0.6587 0.93291 0.0
H1001 H 0.88949 0.77776 0.93633 0.0
H1002 H 0.90573 0.73929 0.95526 0.0
H1003 H 0.93029 0.67982 0.9034 0.0
H1004 H 0.00325 0.58233 0.95293 0.0
H1005 H 0.98672 0.62092 0.93498 0.0
H1006 H 0.96529 0.68172 0.98866 0.0
C1007 C 0.91108 0.74303 0.93645 0.0
C1008 C 0.938 0.6805 0.92198 0.0
C1009 C 0.90153 0.76497 0.9255 0.0
C1010 C 0.99275 0.59551 0.96464 0.0
C1011 C 0.98305 0.61764 0.95426 0.0
C1012 C 0.95743 0.68093 0.97016 0.0
C1013 C 0.92714 0.72605 0.92323 0.0
C1014 C 0.93756 0.7028 0.93499 0.0
C1015 C 0.96901 0.6353 0.96856 0.0
C1016 C 0.95797 0.65859 0.95712 0.0
H1017 H 0.92918 0.75729 0.869 0.0
H1018 H 0.94582 0.71897 0.88809 0.0
H1019 H 0.94756 0.71962 0.96971 0.0
H1020 H 0.97193 0.60487 0.0235 0.0
H1021 H 0.95454 0.64333 0.00531 0.0
C1022 C 0.44088 0.68728 0.02142 0.0
C1023 C 0.45483 0.67046 0.03672 0.0
C1024 C 0.4454 0.71221 0.02252 0.0
C1025 C 0.49178 0.75672 0.04502 0.0
H1026 H 0.43097 0.80185 0.04194 0.0
C1027 C 0.49454 0.86143 0.0637 0.0
C1028 C 0.48112 0.87655 0.04631 0.0
C1029 C 0.49196 0.83605 0.06355 0.0
C1030 C 0.44814 0.78947 0.04271 0.0
H1031 H 0.48476 0.6664 0.06487 0.0
H1032 H 0.4925 0.70999 0.06699 0.0
H1033 H 0.42591 0.75793 0.03885 0.0
H1034 H 0.45513 0.8766 0.01465 0.0
H1035 H 0.45027 0.83269 0.01482 0.0
H1036 H 0.51392 0.78851 0.04909 0.0
C1037 C 0.47837 0.70391 0.05385 0.0
C1038 C 0.44528 0.76431 0.04081 0.0
C1039 C 0.47396 0.67894 0.05262 0.0
C1040 C 0.46517 0.86569 0.02878 0.0
C1041 C 0.46246 0.84047 0.02877 0.0
C1042 C 0.49463 0.78196 0.04707 0.0
C1043 C 0.46382 0.72089 0.03911 0.0
C1044 C 0.46707 0.74763 0.04163 0.0
C1045 C 0.4758 0.82538 0.04612 0.0
C1046 C 0.47285 0.79857 0.04564 0.0
H1047 H 0.42624 0.68118 0.00879 0.0
H1048 H 0.43427 0.72472 0.0105 0.0
H1049 H 0.50898 0.74439 0.04554 0.0
H1050 H 0.50685 0.86921 0.07754 0.0
H1051 H 0.50234 0.82482 0.07723 0.0
C1052 C 0.04895 0.32813 0.51402 0.0
C1053 C 0.048 0.33761 0.53809 0.0
C1054 C 0.03601 0.30713 0.50808 0.0
C1055 C 0.99175 0.26126 0.5324 0.0
H1056 H 0.04304 0.21486 0.50425 0.0
C1057 C 0.99394 0.15676 0.54994 0.0
C1058 C 0.00313 0.14099 0.5311 0.0
C1059 C 0.994 0.18221 0.54695 0.0
C1060 C 0.02817 0.22756 0.51165 0.0
H1061 H 0.03067 0.33389 0.57409 0.0
H1062 H 0.00833 0.29746 0.56379 0.0
H1063 H 0.05061 0.25813 0.50408 0.0
H1064 H 0.01778 0.13923 0.49379 0.0
H1065 H 0.0175 0.18345 0.48841 0.0
H1066 H 0.96981 0.23026 0.54079 0.0
C1067 C 0.01882 0.30622 0.54939 0.0
C1068 C 0.03248 0.25248 0.51147 0.0
C1069 C 0.03169 0.32722 0.55531 0.0
C1070 C 0.01123 0.15102 0.50886 0.0
C1071 C 0.01103 0.17634 0.50577 0.0
C1072 C 0.98739 0.23621 0.53254 0.0
C1073 C 0.02199 0.2952 0.52613 0.0
C1074 C 0.01465 0.26959 0.52235 0.0
C1075 C 0.00297 0.19226 0.52496 0.0
C1076 C 0.00586 0.21904 0.52264 0.0
H1077 H 0.06101 0.33603 0.50025 0.0
H1078 H 0.03833 0.29934 0.4898 0.0
H1079 H 0.97756 0.27403 0.54076 0.0
H1080 H 0.98751 0.14942 0.56721 0.0
H1081 H 0.98791 0.19395 0.56219 0.0
C1082 C 0.60581 0.26958 0.41844 0.0
C1083 C 0.6002 0.26422 0.39367 0.0
C1084 C 0.59422 0.29042 0.42992 0.0
C1085 C 0.56516 0.35182 0.41525 0.0
H1086 H 0.53881 0.35114 0.48189 0.0
C1087 C 0.51162 0.4375 0.45662 0.0
C1088 C 0.51607 0.44313 0.48151 0.0
C1089 C 0.52059 0.41495 0.44672 0.0
C1090 C 0.54636 0.35176 0.46338 0.0
H1091 H 0.57772 0.27654 0.36169 0.0
H1092 H 0.55748 0.3128 0.3817 0.0
H1093 H 0.55676 0.31311 0.46325 0.0
H1094 H 0.53308 0.42915 0.51566 0.0
H1095 H 0.54933 0.38992 0.49826 0.0
H1096 H 0.55546 0.39039 0.41537 0.0
C1097 C 0.57092 0.30091 0.39223 0.0
C1098 C 0.55659 0.32991 0.45267 0.0
C1099 C 0.58231 0.27997 0.38083 0.0
C1100 C 0.52925 0.42537 0.49643 0.0
C1101 C 0.53848 0.40281 0.48644 0.0
C1102 C 0.55517 0.37365 0.42598 0.0
C1103 C 0.57695 0.30656 0.41683 0.0
C1104 C 0.56598 0.32966 0.42841 0.0
C1105 C 0.53456 0.39741 0.46134 0.0
C1106 C 0.54546 0.37396 0.45016 0.0
H1107 H 0.61935 0.25773 0.42891 0.0
H1108 H 0.59939 0.29429 0.44884 0.0
H1109 H 0.57271 0.3524 0.39671 0.0
H1110 H 0.5013 0.45063 0.44463 0.0
H1111 H 0.51656 0.41132 0.4275 0.0
loop_
_geom_bond_atom_site_label_1
_geom_bond_atom_site_label_2
_geom_bond_distance
_geom_bond_site_symmetry_2
_ccdc_geom_bond_type
P0 O11 1.490 . S
P0 C14 1.812 . S
P0 C20 1.803 . S
P0 C26 1.819 . S
H1 C15 0.941 . S
H2 C16 0.939 . S
H3 C18 0.940 . S
H4 C19 0.940 . S
H5 C21 0.939 . S
H6 C22 0.942 . S
H7 C24 0.940 . S
H8 C25 0.939 . S
H9 C27 0.941 . S
H10 C31 0.939 . S
O11 P0 1.490 . S
H12 C28 0.939 . S
H13 C30 0.940 . S
C14 P0 1.812 . S
C14 C15 1.389 . S
C14 C19 1.391 . S
C15 H1 0.941 . S
C15 C14 1.389 . S
C15 C16 1.397 . S
C16 H2 0.939 . S
C16 C15 1.397 . S
C16 C17 1.378 . S
C17 C16 1.378 . S
C17 C18 1.378 . S
C18 H3 0.940 . S
C18 C17 1.378 . S
C18 C19 1.396 . S
C19 H4 0.940 . S
C19 C14 1.391 . S
C19 C18 1.396 . S
C20 P0 1.803 . S
C20 C21 1.378 . S
C20 C25 1.400 . S
C21 H5 0.939 . S
C21 C20 1.378 . S
C21 C22 1.361 . S
C22 H6 0.942 . S
C22 C21 1.361 . S
C22 C23 1.369 . S
C23 C22 1.369 . S
C23 C24 1.404 . S
C24 H7 0.940 . S
C24 C23 1.404 . S
C24 C25 1.389 . S
C25 H8 0.939 . S
C25 C20 1.400 . S
C25 C24 1.389 . S
C26 P0 1.819 . S
C26 C27 1.391 . S
C26 C31 1.391 . S
C27 H9 0.941 . S
C27 C26 1.391 . S
C27 C28 1.396 . S
C28 H12 0.939 . S
C28 C27 1.396 . S
C28 C29 1.397 . S
C29 C28 1.397 . S
C29 C30 1.385 . S
C30 H13 0.940 . S
C30 C29 1.385 . S
C30 C31 1.388 . S
C31 H10 0.939 . S
C31 C26 1.391 . S
C31 C30 1.388 . S
P32 O43 1.490 . S
P32 C46 1.812 . S
P32 C52 1.803 . S
P32 C58 1.819 . S
H33 C47 0.941 . S
H34 C48 0.939 . S
H35 C50 0.940 . S
H36 C51 0.940 . S
H37 C53 0.939 . S
H38 C54 0.942 . S
H39 C56 0.940 . S
H40 C57 0.939 . S
H41 C59 0.941 . S
H42 C63 0.939 . S
O43 P32 1.490 . S
H44 C60 0.939 . S
H45 C62 0.940 . S
C46 P32 1.812 . S
C46 C47 1.389 . S
C46 C51 1.391 . S
C47 H33 0.941 . S
C47 C46 1.389 . S
C47 C48 1.397 . S
C48 H34 0.939 . S
C48 C47 1.397 . S
C48 C49 1.378 . S
C49 C48 1.378 . S
C49 C50 1.378 . S
C50 H35 0.940 . S
C50 C49 1.378 . S
C50 C51 1.396 . S
C51 H36 0.940 . S
C51 C46 1.391 . S
C51 C50 1.396 . S
C52 P32 1.803 . S
C52 C53 1.378 . S
C52 C57 1.400 . S
C53 H37 0.939 . S
C53 C52 1.378 . S
C53 C54 1.361 . S
C54 H38 0.942 . S
C54 C53 1.361 . S
C54 C55 1.369 . S
C55 C54 1.369 . S
C55 C56 1.404 . S
C56 H39 0.940 . S
C56 C55 1.404 . S
C56 C57 1.389 . S
C57 H40 0.939 . S
C57 C52 1.400 . S
C57 C56 1.389 . S
C58 P32 1.819 . S
C58 C59 1.391 . S
C58 C63 1.391 . S
C59 H41 0.941 . S
C59 C58 1.391 . S
C59 C60 1.396 . S
C60 H44 0.939 . S
C60 C59 1.396 . S
C60 C61 1.397 . S
C61 C60 1.397 . S
C61 C62 1.385 . S
C62 H45 0.940 . S
C62 C61 1.385 . S
C62 C63 1.388 . S
C63 H42 0.939 . S
C63 C58 1.391 . S
C63 C62 1.388 . S
P64 O75 1.490 . S
P64 C78 1.812 . S
P64 C84 1.803 . S
P64 C90 1.819 . S
H65 C79 0.941 . S
H66 C80 0.939 . S
H67 C82 0.940 . S
H68 C83 0.940 . S
H69 C85 0.939 . S
H70 C86 0.942 . S
H71 C88 0.940 . S
H72 C89 0.939 . S
H73 C91 0.941 . S
H74 C95 0.939 . S
O75 P64 1.490 . S
H76 C92 0.939 . S
H77 C94 0.940 . S
C78 P64 1.812 . S
C78 C79 1.389 . S
C78 C83 1.391 . S
C79 H65 0.941 . S
C79 C78 1.389 . S
C79 C80 1.397 . S
C80 H66 0.939 . S
C80 C79 1.397 . S
C80 C81 1.378 . S
C81 C80 1.378 . S
C81 C82 1.378 . S
C82 H67 0.940 . S
C82 C81 1.378 . S
C82 C83 1.396 . S
C83 H68 0.940 . S
C83 C78 1.391 . S
C83 C82 1.396 . S
C84 P64 1.803 . S
C84 C85 1.378 . S
C84 C89 1.400 . S
C85 H69 0.939 . S
C85 C84 1.378 . S
C85 C86 1.361 . S
C86 H70 0.942 . S
C86 C85 1.361 . S
C86 C87 1.369 . S
C87 C86 1.369 . S
C87 C88 1.404 . S
C88 H71 0.940 . S
C88 C87 1.404 . S
C88 C89 1.389 . S
C89 H72 0.939 . S
C89 C84 1.400 . S
C89 C88 1.389 . S
C90 P64 1.819 . S
C90 C91 1.391 . S
C90 C95 1.391 . S
C91 H73 0.941 . S
C91 C90 1.391 . S
C91 C92 1.396 . S
C92 H76 0.939 . S
C92 C91 1.396 . S
C92 C93 1.397 . S
C93 C92 1.397 . S
C93 C94 1.385 . S
C94 H77 0.940 . S
C94 C93 1.385 . S
C94 C95 1.388 . S
C95 H74 0.939 . S
C95 C90 1.391 . S
C95 C94 1.388 . S
P96 O107 1.490 . S
P96 C110 1.812 . S
P96 C116 1.803 . S
P96 C122 1.819 . S
H97 C111 0.941 . S
H98 C112 0.939 . S
H99 C114 0.940 . S
H100 C115 0.940 . S
H101 C117 0.939 . S
H102 C118 0.942 . S
H103 C120 0.940 . S
H104 C121 0.939 . S
H105 C123 0.941 . S
H106 C127 0.939 . S
O107 P96 1.490 . S
H108 C124 0.939 . S
H109 C126 0.940 . S
C110 P96 1.812 . S
C110 C111 1.389 . S
C110 C115 1.391 . S
C111 H97 0.941 . S
C111 C110 1.389 . S
C111 C112 1.397 . S
C112 H98 0.939 . S
C112 C111 1.397 . S
C112 C113 1.378 . S
C113 C112 1.378 . S
C113 C114 1.378 . S
C114 H99 0.940 . S
C114 C113 1.378 . S
C114 C115 1.396 . S
C115 H100 0.940 . S
C115 C110 1.391 . S
C115 C114 1.396 . S
C116 P96 1.803 . S
C116 C117 1.378 . S
C116 C121 1.400 . S
C117 H101 0.939 . S
C117 C116 1.378 . S
C117 C118 1.361 . S
C118 H102 0.942 . S
C118 C117 1.361 . S
C118 C119 1.369 . S
C119 C118 1.369 . S
C119 C120 1.404 . S
C120 H103 0.940 . S
C120 C119 1.404 . S
C120 C121 1.389 . S
C121 H104 0.939 . S
C121 C116 1.400 . S
C121 C120 1.389 . S
C122 P96 1.819 . S
C122 C123 1.391 . S
C122 C127 1.391 . S
C123 H105 0.941 . S
C123 C122 1.391 . S
C123 C124 1.396 . S
C124 H108 0.939 . S
C124 C123 1.396 . S
C124 C125 1.397 . S
C125 C124 1.397 . S
C125 C126 1.385 . S
C126 H109 0.940 . S
C126 C125 1.385 . S
C126 C127 1.388 . S
C127 H106 0.939 . S
C127 C122 1.391 . S
C127 C126 1.388 . S
P128 O139 1.490 . S
P128 C142 1.812 . S
P128 C148 1.803 . S
P128 C154 1.819 . S
H129 C143 0.941 . S
H130 C144 0.939 . S
H131 C146 0.940 . S
H132 C147 0.940 . S
H133 C149 0.939 . S
H134 C150 0.942 . S
H135 C152 0.940 . S
H136 C153 0.939 . S
H137 C155 0.941 . S
H138 C159 0.939 . S
O139 P128 1.490 . S
H140 C156 0.939 . S
H141 C158 0.940 . S
C142 P128 1.812 . S
C142 C143 1.389 . S
C142 C147 1.391 . S
C143 H129 0.941 . S
C143 C142 1.389 . S
C143 C144 1.397 . S
C144 H130 0.939 . S
C144 C143 1.397 . S
C144 C145 1.378 . S
C145 C144 1.378 . S
C145 C146 1.378 . S
C146 H131 0.940 . S
C146 C145 1.378 . S
C146 C147 1.396 . S
C147 H132 0.940 . S
C147 C142 1.391 . S
C147 C146 1.396 . S
C148 P128 1.803 . S
C148 C149 1.378 . S
C148 C153 1.400 . S
C149 H133 0.939 . S
C149 C148 1.378 . S
C149 C150 1.361 . S
C150 H134 0.942 . S
C150 C149 1.361 . S
C150 C151 1.369 . S
C151 C150 1.369 . S
C151 C152 1.404 . S
C152 H135 0.940 . S
C152 C151 1.404 . S
C152 C153 1.389 . S
C153 H136 0.939 . S
C153 C148 1.400 . S
C153 C152 1.389 . S
C154 P128 1.819 . S
C154 C155 1.391 . S
C154 C159 1.391 . S
C155 H137 0.941 . S
C155 C154 1.391 . S
C155 C156 1.396 . S
C156 H140 0.939 . S
C156 C155 1.396 . S
C156 C157 1.397 . S
C157 C156 1.397 . S
C157 C158 1.385 . S
C158 H141 0.940 . S
C158 C157 1.385 . S
C158 C159 1.388 . S
C159 H138 0.939 . S
C159 C154 1.391 . S
C159 C158 1.388 . S
P160 O171 1.490 . S
P160 C174 1.812 . S
P160 C180 1.803 . S
P160 C186 1.819 . S
H161 C175 0.941 . S
H162 C176 0.939 . S
H163 C178 0.940 . S
H164 C179 0.940 . S
H165 C181 0.939 . S
H166 C182 0.942 . S
H167 C184 0.940 . S
H168 C185 0.939 . S
H169 C187 0.941 . S
H170 C191 0.939 . S
O171 P160 1.490 . S
H172 C188 0.939 . S
H173 C190 0.940 . S
C174 P160 1.812 . S
C174 C175 1.389 . S
C174 C179 1.391 . S
C175 H161 0.941 . S
C175 C174 1.389 . S
C175 C176 1.397 . S
C176 H162 0.939 . S
C176 C175 1.397 . S
C176 C177 1.378 . S
C177 C176 1.378 . S
C177 C178 1.378 . S
C178 H163 0.940 . S
C178 C177 1.378 . S
C178 C179 1.396 . S
C179 H164 0.940 . S
C179 C174 1.391 . S
C179 C178 1.396 . S
C180 P160 1.803 . S
C180 C181 1.378 . S
C180 C185 1.400 . S
C181 H165 0.939 . S
C181 C180 1.378 . S
C181 C182 1.361 . S
C182 H166 0.942 . S
C182 C181 1.361 . S
C182 C183 1.369 . S
C183 C182 1.369 . S
C183 C184 1.404 . S
C184 H167 0.940 . S
C184 C183 1.404 . S
C184 C185 1.389 . S
C185 H168 0.939 . S
C185 C180 1.400 . S
C185 C184 1.389 . S
C186 P160 1.819 . S
C186 C187 1.391 . S
C186 C191 1.391 . S
C187 H169 0.941 . S
C187 C186 1.391 . S
C187 C188 1.396 . S
C188 H172 0.939 . S
C188 C187 1.396 . S
C188 C189 1.397 . S
C189 C188 1.397 . S
C189 C190 1.385 . S
C190 H173 0.940 . S
C190 C189 1.385 . S
C190 C191 1.388 . S
C191 H170 0.939 . S
C191 C186 1.391 . S
C191 C190 1.388 . S
P192 O203 1.490 . S
P192 C206 1.812 . S
P192 C212 1.803 . S
P192 C218 1.819 . S
H193 C207 0.941 . S
H194 C208 0.939 . S
H195 C210 0.940 . S
H196 C211 0.940 . S
H197 C213 0.939 . S
H198 C214 0.942 . S
H199 C216 0.940 . S
H200 C217 0.939 . S
H201 C219 0.941 . S
H202 C223 0.939 . S
O203 P192 1.490 . S
H204 C220 0.939 . S
H205 C222 0.940 . S
C206 P192 1.812 . S
C206 C207 1.389 . S
C206 C211 1.391 . S
C207 H193 0.941 . S
C207 C206 1.389 . S
C207 C208 1.397 . S
C208 H194 0.939 . S
C208 C207 1.397 . S
C208 C209 1.378 . S
C209 C208 1.378 . S
C209 C210 1.378 . S
C210 H195 0.940 . S
C210 C209 1.378 . S
C210 C211 1.396 . S
C211 H196 0.940 . S
C211 C206 1.391 . S
C211 C210 1.396 . S
C212 P192 1.803 . S
C212 C213 1.378 . S
C212 C217 1.400 . S
C213 H197 0.939 . S
C213 C212 1.378 . S
C213 C214 1.361 . S
C214 H198 0.942 . S
C214 C213 1.361 . S
C214 C215 1.369 . S
C215 C214 1.369 . S
C215 C216 1.404 . S
C216 H199 0.940 . S
C216 C215 1.404 . S
C216 C217 1.389 . S
C217 H200 0.939 . S
C217 C212 1.400 . S
C217 C216 1.389 . S
C218 P192 1.819 . S
C218 C219 1.391 . S
C218 C223 1.391 . S
C219 H201 0.941 . S
C219 C218 1.391 . S
C219 C220 1.396 . S
C220 H204 0.939 . S
C220 C219 1.396 . S
C220 C221 1.397 . S
C221 C220 1.397 . S
C221 C222 1.385 . S
C222 H205 0.940 . S
C222 C221 1.385 . S
C222 C223 1.388 . S
C223 H202 0.939 . S
C223 C218 1.391 . S
C223 C222 1.388 . S
P224 O235 1.490 . S
P224 C238 1.812 . S
P224 C244 1.803 . S
P224 C250 1.819 . S
H225 C239 0.941 . S
H226 C240 0.939 . S
H227 C242 0.940 . S
H228 C243 0.940 . S
H229 C245 0.939 . S
H230 C246 0.942 . S
H231 C248 0.940 . S
H232 C249 0.939 . S
H233 C251 0.941 . S
H234 C255 0.939 . S
O235 P224 1.490 . S
H236 C252 0.939 . S
H237 C254 0.940 . S
C238 P224 1.812 . S
C238 C239 1.389 . S
C238 C243 1.391 . S
C239 H225 0.941 . S
C239 C238 1.389 . S
C239 C240 1.397 . S
C240 H226 0.939 . S
C240 C239 1.397 . S
C240 C241 1.378 . S
C241 C240 1.378 . S
C241 C242 1.378 . S
C242 H227 0.940 . S
C242 C241 1.378 . S
C242 C243 1.396 . S
C243 H228 0.940 . S
C243 C238 1.391 . S
C243 C242 1.396 . S
C244 P224 1.803 . S
C244 C245 1.378 . S
C244 C249 1.400 . S
C245 H229 0.939 . S
C245 C244 1.378 . S
C245 C246 1.361 . S
C246 H230 0.942 . S
C246 C245 1.361 . S
C246 C247 1.369 . S
C247 C246 1.369 . S
C247 C248 1.404 . S
C248 H231 0.940 . S
C248 C247 1.404 . S
C248 C249 1.389 . S
C249 H232 0.939 . S
C249 C244 1.400 . S
C249 C248 1.389 . S
C250 P224 1.819 . S
C250 C251 1.391 . S
C250 C255 1.391 . S
C251 H233 0.941 . S
C251 C250 1.391 . S
C251 C252 1.396 . S
C252 H236 0.939 . S
C252 C251 1.396 . S
C252 C253 1.397 . S
C253 C252 1.397 . S
C253 C254 1.385 . S
C254 H237 0.940 . S
C254 C253 1.385 . S
C254 C255 1.388 . S
C255 H234 0.939 . S
C255 C250 1.391 . S
C255 C254 1.388 . S
C256 O272 1.251 . S
C256 O274 1.254 1_545 S
N257 C258 1.333 . S
N257 C262 1.307 . S
N257 Zn263 2.020 . S
C258 N257 1.333 . S
C258 C259 1.379 . S
C258 H276 0.952 . S
C259 C258 1.379 . S
C259 C260 1.390 . S
C259 H286 0.949 . S
C260 C259 1.390 . S
C260 C261 1.357 . S
C261 C260 1.357 . S
C261 C262 1.370 . S
C261 H287 0.950 . S
C262 N257 1.307 . S
C262 C261 1.370 . S
C262 H280 0.948 1_455 S
Zn263 N257 2.020 . S
Zn263 O272 2.039 . S
Zn263 O278 2.034 . S
Zn263 O282 2.025 1_455 S
Zn263 O284 2.024 1_455 S
C264 O283 1.293 . S
C264 O284 1.249 . S
N265 C266 1.307 . S
N265 C267 1.333 . S
N265 Zn271 2.020 . S
C266 N265 1.307 . S
C266 C270 1.370 . S
C266 H277 0.948 1_655 S
C267 N265 1.333 . S
C267 C268 1.379 . S
C267 H275 0.952 . S
C268 C267 1.379 . S
C268 C269 1.390 . S
C268 H288 0.949 . S
C269 C268 1.390 . S
C269 C270 1.357 . S
C270 C266 1.370 . S
C270 C269 1.357 . S
C270 H289 0.940 1_655 S
Zn271 N265 2.020 . S
Zn271 O274 2.025 1_655 S
Zn271 O279 2.024 1_655 S
Zn271 O281 2.039 . S
Zn271 O283 2.011 1_565 S
O272 C256 1.251 . S
O272 Zn263 2.039 . S
C273 O278 1.246 1_565 S
C273 O279 1.249 . S
O274 C256 1.254 1_565 S
O274 Zn271 2.025 1_455 S
H275 C267 0.952 . S
H276 C258 0.952 . S
H277 C266 0.948 1_455 S
O278 Zn263 2.034 . S
O278 C273 1.246 1_545 S
O279 Zn271 2.024 1_455 S
O279 C273 1.249 . S
H280 C262 0.948 1_655 S
O281 Zn271 2.039 . S
O281 C285 1.251 . S
O282 Zn263 2.025 1_655 S
O282 C285 1.254 1_545 S
O283 C264 1.293 . S
O283 Zn271 2.011 1_545 S
O284 Zn263 2.024 1_655 S
O284 C264 1.249 . S
C285 O281 1.251 . S
C285 O282 1.254 1_565 S
H286 C259 0.949 . S
H287 C261 0.950 . S
H288 C268 0.949 . S
H289 C270 0.940 1_455 S
C290 O306 1.251 1_565 S
C290 O308 1.254 1_556 S
N291 C292 1.333 . S
N291 C296 1.307 . S
N291 Zn297 2.032 . S
C292 N291 1.333 . S
C292 C293 1.379 . S
C292 H310 0.952 . S
C293 C292 1.379 . S
C293 C294 1.390 . S
C293 H320 0.949 . S
C294 C293 1.390 . S
C294 C295 1.357 . S
C295 C294 1.357 . S
C295 C296 1.370 . S
C295 H321 0.950 . S
C296 N291 1.307 . S
C296 C295 1.370 . S
C296 H314 0.948 . S
Zn297 N291 2.032 . S
Zn297 O306 2.049 . S
Zn297 O312 1.992 1_556 S
Zn297 O316 2.011 1_556 S
Zn297 O318 2.062 . S
C298 O317 1.246 . S
C298 O318 1.249 1_565 S
N299 C300 1.307 . S
N299 C301 1.333 . S
N299 Zn305 2.020 . S
C300 N299 1.307 . S
C300 C304 1.370 . S
C300 H311 0.948 . S
C301 N299 1.333 . S
C301 C302 1.379 . S
C301 H309 0.952 . S
C302 C301 1.379 . S
C302 C303 1.390 . S
C302 H322 0.949 . S
C303 C302 1.390 . S
C303 C304 1.357 . S
C304 C300 1.370 . S
C304 C303 1.357 . S
C304 H323 0.950 . S
Zn305 N299 2.020 . S
Zn305 O308 2.025 . S
Zn305 O313 2.024 . S
Zn305 O315 2.039 1_565 S
Zn305 O317 2.034 1_554 S
O306 C290 1.251 1_545 S
O306 Zn297 2.049 . S
C307 O312 1.246 . S
C307 O313 1.249 1_545 S
O308 C290 1.254 1_554 S
O308 Zn305 2.025 . S
H309 C301 0.952 . S
H310 C292 0.952 . S
H311 C300 0.948 . S
O312 Zn297 1.992 1_554 S
O312 C307 1.246 . S
O313 Zn305 2.024 . S
O313 C307 1.249 1_565 S
H314 C296 0.948 . S
O315 Zn305 2.039 1_545 S
O315 C319 1.251 . S
O316 Zn297 2.011 1_554 S
O316 C319 1.254 . S
O317 C298 1.246 . S
O317 Zn305 2.034 1_556 S
O318 Zn297 2.062 . S
O318 C298 1.249 1_545 S
C319 O315 1.251 . S
C319 O316 1.254 . S
H320 C293 0.949 . S
H321 C295 0.950 . S
H322 C302 0.949 . S
H323 C304 0.950 . S
C324 O340 1.251 . S
C324 O342 1.254 . S
N325 C326 1.333 . S
N325 C330 1.307 . S
N325 Zn331 2.020 . S
C326 N325 1.333 . S
C326 C327 1.379 . S
C326 H344 0.952 . S
C327 C326 1.379 . S
C327 C328 1.390 . S
C327 H354 0.949 . S
C328 C327 1.390 . S
C328 C329 1.357 . S
C329 C328 1.357 . S
C329 C330 1.370 . S
C329 H355 0.950 . S
C330 N325 1.307 . S
C330 C329 1.370 . S
C330 H348 0.948 . S
Zn331 N325 2.020 . S
Zn331 O340 2.039 . S
Zn331 O346 2.034 . S
Zn331 O350 2.025 . S
Zn331 O352 2.024 . S
C332 O351 1.246 . S
C332 O352 1.249 . S
N333 C334 1.307 . S
N333 C335 1.333 . S
N333 Zn339 2.020 . S
C334 N333 1.307 . S
C334 C338 1.370 . S
C334 H345 0.948 . S
C335 N333 1.333 . S
C335 C336 1.379 . S
C335 H343 0.952 . S
C336 C335 1.379 . S
C336 C337 1.390 . S
C336 H356 0.949 . S
C337 C336 1.390 . S
C337 C338 1.357 . S
C338 C334 1.370 . S
C338 C337 1.357 . S
C338 H357 0.950 . S
Zn339 N333 2.020 . S
Zn339 O342 2.025 . S
Zn339 O347 2.024 . S
Zn339 O349 2.039 . S
Zn339 O351 2.034 . S
O340 C324 1.251 . S
O340 Zn331 2.039 . S
C341 O346 1.246 . S
C341 O347 1.249 . S
O342 C324 1.254 . S
O342 Zn339 2.025 . S
H343 C335 0.952 . S
H344 C326 0.952 . S
H345 C334 0.948 . S
O346 Zn331 2.034 . S
O346 C341 1.246 . S
O347 Zn339 2.024 . S
O347 C341 1.249 . S
H348 C330 0.948 . S
O349 Zn339 2.039 . S
O349 C353 1.251 . S
O350 Zn331 2.025 . S
O350 C353 1.254 . S
O351 C332 1.246 . S
O351 Zn339 2.034 . S
O352 Zn331 2.024 . S
O352 C332 1.249 . S
C353 O349 1.251 . S
C353 O350 1.254 . S
H354 C327 0.949 . S
H355 C329 0.950 . S
H356 C336 0.949 . S
H357 C338 0.950 . S
C358 O374 1.251 1_556 S
C358 O376 1.273 . S
N359 C360 1.333 . S
N359 C364 1.307 . S
N359 Zn365 2.020 . S
C360 N359 1.333 . S
C360 C361 1.379 . S
C360 H378 0.952 . S
C361 C360 1.379 . S
C361 C362 1.390 . S
C361 H388 0.949 . S
C362 C361 1.390 . S
C362 C363 1.357 . S
C363 C362 1.357 . S
C363 C364 1.370 . S
C363 H389 0.950 . S
C364 N359 1.307 . S
C364 C363 1.370 . S
C364 H382 0.948 . S
Zn365 N359 2.020 . S
Zn365 O374 2.039 . S
Zn365 O380 2.034 1_655 S
Zn365 O384 2.025 1_655 S
Zn365 O386 2.024 . S
C366 O385 1.246 . S
C366 O386 1.249 1_556 S
N367 C368 1.307 . S
N367 C369 1.333 . S
N367 Zn373 2.020 . S
C368 N367 1.307 . S
C368 C372 1.370 . S
C368 H379 0.948 . S
C369 N367 1.333 . S
C369 C370 1.379 . S
C369 H377 0.952 . S
C370 C369 1.379 . S
C370 C371 1.390 . S
C370 H390 0.949 . S
C371 C370 1.390 . S
C371 C372 1.357 . S
C372 C368 1.370 . S
C372 C371 1.357 . S
C372 H391 0.950 . S
Zn373 N367 2.020 . S
Zn373 O376 2.013 1_455 S
Zn373 O381 2.024 . S
Zn373 O383 2.039 . S
Zn373 O385 2.034 1_455 S
O374 C358 1.251 1_554 S
O374 Zn365 2.039 . S
C375 O380 1.246 . S
C375 O381 1.249 1_554 S
O376 C358 1.273 . S
O376 Zn373 2.013 1_655 S
H377 C369 0.952 . S
H378 C360 0.952 . S
H379 C368 0.948 . S
O380 Zn365 2.034 1_455 S
O380 C375 1.246 . S
O381 Zn373 2.024 . S
O381 C375 1.249 1_556 S
H382 C364 0.948 . S
O383 Zn373 2.039 . S
O383 C387 1.251 1_556 S
O384 Zn365 2.025 1_455 S
O384 C387 1.254 . S
O385 C366 1.246 . S
O385 Zn373 2.034 1_655 S
O386 Zn365 2.024 . S
O386 C366 1.249 1_554 S
C387 O383 1.251 1_554 S
C387 O384 1.254 . S
H388 C361 0.949 . S
H389 C363 0.950 . S
H390 C370 0.949 . S
H391 C372 0.950 . S
C392 C393 1.349 . S
C392 C394 1.327 . S
C392 H417 0.950 . S
C393 C392 1.349 . S
C393 C409 1.349 . S
C394 C392 1.327 . S
C394 C413 1.429 . S
C394 H418 0.950 . S
C395 C412 1.574 . S
C395 C414 1.368 . S
C395 H419 0.949 . S
H396 C400 0.949 . S
C397 C398 1.349 . S
C397 C399 1.327 . S
C397 H420 0.950 . S
C398 C397 1.349 . S
C398 C410 1.349 . S
C399 C397 1.327 . S
C399 C415 1.429 . S
C399 H421 0.950 . S
C400 H396 0.949 . S
C400 C408 1.574 . S
C400 C416 1.368 . S
H401 C409 0.950 . S
H402 C407 0.950 . S
H403 C408 0.949 . S
H404 C410 0.913 1_565 S
H405 C411 0.950 . S
H406 C412 0.949 . S
C407 H402 0.950 . S
C407 C409 1.327 . S
C407 C413 1.429 . S
C408 C400 1.574 . S
C408 H403 0.949 . S
C408 C414 1.368 . S
C409 C393 1.349 . S
C409 H401 0.950 . S
C409 C407 1.327 . S
C410 C398 1.349 . S
C410 H404 0.913 1_545 S
C410 C411 1.327 . S
C411 H405 0.950 . S
C411 C410 1.327 . S
C411 C415 1.429 . S
C412 C395 1.574 . S
C412 H406 0.949 . S
C412 C416 1.368 . S
C413 C394 1.429 . S
C413 C407 1.429 . S
C413 C414 1.523 . S
C414 C395 1.368 . S
C414 C408 1.368 . S
C414 C413 1.523 . S
C415 C399 1.429 . S
C415 C411 1.429 . S
C415 C416 1.523 . S
C416 C400 1.368 . S
C416 C412 1.368 . S
C416 C415 1.523 . S
H417 C392 0.950 . S
H418 C394 0.950 . S
H419 C395 0.949 . S
H420 C397 0.950 . S
H421 C399 0.950 . S
C422 C423 1.349 . S
C422 C424 1.327 . S
C422 H447 0.950 . S
C423 C422 1.349 . S
C423 C439 1.349 . S
C424 C422 1.327 . S
C424 C443 1.429 . S
C424 H448 0.950 . S
C425 C442 1.574 . S
C425 C444 1.368 . S
C425 H449 0.949 . S
H426 C430 0.949 . S
C427 C428 1.349 1_545 S
C427 C429 1.327 1_545 S
C427 H450 0.950 . S
C428 C427 1.349 1_565 S
C428 C440 1.349 . S
C429 C427 1.327 1_565 S
C429 C445 1.429 . S
C429 H451 0.950 1_565 S
C430 H426 0.949 . S
C430 C438 1.574 . S
C430 C446 1.368 . S
H431 C439 0.950 . S
H432 C437 0.950 . S
H433 C438 0.949 . S
H434 C440 0.950 . S
H435 C441 0.950 . S
H436 C442 0.949 . S
C437 H432 0.950 . S
C437 C439 1.327 . S
C437 C443 1.429 . S
C438 C430 1.574 . S
C438 H433 0.949 . S
C438 C444 1.368 . S
C439 C423 1.349 . S
C439 H431 0.950 . S
C439 C437 1.327 . S
C440 C428 1.349 . S
C440 H434 0.950 . S
C440 C441 1.327 . S
C441 H435 0.950 . S
C441 C440 1.327 . S
C441 C445 1.429 . S
C442 C425 1.574 . S
C442 H436 0.949 . S
C442 C446 1.368 . S
C443 C424 1.429 . S
C443 C437 1.429 . S
C443 C444 1.523 . S
C444 C425 1.368 . S
C444 C438 1.368 . S
C444 C443 1.523 . S
C445 C429 1.429 . S
C445 C441 1.429 . S
C445 C446 1.523 . S
C446 C430 1.368 . S
C446 C442 1.368 . S
C446 C445 1.523 . S
H447 C422 0.950 . S
H448 C424 0.950 . S
H449 C425 0.949 . S
H450 C427 0.950 . S
H451 C429 0.950 1_545 S
C452 C453 1.349 . S
C452 C454 1.327 . S
C452 H477 0.950 . S
C453 C452 1.349 . S
C453 C469 1.349 . S
C454 C452 1.327 . S
C454 C473 1.429 . S
C454 H478 0.950 . S
C455 C472 1.574 . S
C455 C474 1.368 . S
C455 H479 0.949 . S
H456 C460 0.949 . S
C457 C458 1.349 . S
C457 C459 1.327 . S
C457 H480 0.950 . S
C458 C457 1.349 . S
C458 C470 1.349 . S
C459 C457 1.327 . S
C459 C475 1.429 . S
C459 H481 0.950 . S
C460 H456 0.949 . S
C460 C468 1.574 . S
C460 C476 1.368 . S
H461 C469 0.950 . S
H462 C467 0.950 . S
H463 C468 0.949 . S
H464 C470 0.950 . S
H465 C471 0.950 . S
H466 C472 0.949 . S
C467 H462 0.950 . S
C467 C469 1.327 . S
C467 C473 1.429 . S
C468 C460 1.574 . S
C468 H463 0.949 . S
C468 C474 1.368 . S
C469 C453 1.349 . S
C469 H461 0.950 . S
C469 C467 1.327 . S
C470 C458 1.349 . S
C470 H464 0.950 . S
C470 C471 1.327 . S
C471 H465 0.950 . S
C471 C470 1.327 . S
C471 C475 1.429 . S
C472 C455 1.574 . S
C472 H466 0.949 . S
C472 C476 1.368 . S
C473 C454 1.429 . S
C473 C467 1.429 . S
C473 C474 1.523 . S
C474 C455 1.368 . S
C474 C468 1.368 . S
C474 C473 1.523 . S
C475 C459 1.429 . S
C475 C471 1.429 . S
C475 C476 1.523 . S
C476 C460 1.368 . S
C476 C472 1.368 . S
C476 C475 1.523 . S
H477 C452 0.950 . S
H478 C454 0.950 . S
H479 C455 0.949 . S
H480 C457 0.950 . S
H481 C459 0.950 . S
C482 C483 1.349 . S
C482 C484 1.327 . S
C482 H507 0.950 . S
C483 C482 1.349 . S
C483 C499 1.349 . S
C484 C482 1.327 . S
C484 C503 1.429 . S
C484 H508 0.950 . S
C485 C502 1.574 . S
C485 C504 1.368 . S
C485 H509 0.949 . S
H486 C490 0.949 . S
C487 C488 1.349 . S
C487 C489 1.327 . S
C487 H510 0.950 . S
C488 C487 1.349 . S
C488 C500 1.349 . S
C489 C487 1.327 . S
C489 C505 1.429 . S
C489 H511 0.950 . S
C490 H486 0.949 . S
C490 C498 1.574 . S
C490 C506 1.368 . S
H491 C499 0.950 . S
H492 C497 0.950 . S
H493 C498 0.949 . S
H494 C500 0.950 . S
H495 C501 0.950 . S
H496 C502 0.949 . S
C497 H492 0.950 . S
C497 C499 1.327 . S
C497 C503 1.429 . S
C498 C490 1.574 . S
C498 H493 0.949 . S
C498 C504 1.368 . S
C499 C483 1.349 . S
C499 H491 0.950 . S
C499 C497 1.327 . S
C500 C488 1.349 . S
C500 H494 0.950 . S
C500 C501 1.327 . S
C501 H495 0.950 . S
C501 C500 1.327 . S
C501 C505 1.429 . S
C502 C485 1.574 . S
C502 H496 0.949 . S
C502 C506 1.368 . S
C503 C484 1.429 . S
C503 C497 1.429 . S
C503 C504 1.523 . S
C504 C485 1.368 . S
C504 C498 1.368 . S
C504 C503 1.523 . S
C505 C489 1.429 . S
C505 C501 1.429 . S
C505 C506 1.523 . S
C506 C490 1.368 . S
C506 C502 1.368 . S
C506 C505 1.523 . S
H507 C482 0.950 . S
H508 C484 0.950 . S
H509 C485 0.949 . S
H510 C487 0.950 . S
H511 C489 0.950 . S
C512 C513 1.349 . S
C512 C514 1.327 . S
C512 H537 0.950 . S
C513 C512 1.349 . S
C513 C529 1.349 . S
C514 C512 1.327 . S
C514 C533 1.429 . S
C514 H538 0.950 . S
C515 C532 1.574 . S
C515 C534 1.368 . S
C515 H539 0.949 . S
H516 C520 0.949 . S
C517 C518 1.349 . S
C517 C519 1.327 . S
C517 H540 0.950 . S
C518 C517 1.349 . S
C518 C530 1.349 . S
C519 C517 1.327 . S
C519 C535 1.429 . S
C519 H541 0.950 . S
C520 H516 0.949 . S
C520 C528 1.574 . S
C520 C536 1.368 . S
H521 C529 0.950 . S
H522 C527 0.950 . S
H523 C528 0.949 . S
H524 C530 0.950 . S
H525 C531 0.950 . S
H526 C532 0.949 . S
C527 H522 0.950 . S
C527 C529 1.327 . S
C527 C533 1.429 . S
C528 C520 1.574 . S
C528 H523 0.949 . S
C528 C534 1.368 . S
C529 C513 1.349 . S
C529 H521 0.950 . S
C529 C527 1.327 . S
C530 C518 1.349 . S
C530 H524 0.950 . S
C530 C531 1.327 . S
C531 H525 0.950 . S
C531 C530 1.327 . S
C531 C535 1.429 . S
C532 C515 1.574 . S
C532 H526 0.949 . S
C532 C536 1.368 . S
C533 C514 1.429 . S
C533 C527 1.429 . S
C533 C534 1.523 . S
C534 C515 1.368 . S
C534 C528 1.368 . S
C534 C533 1.523 . S
C535 C519 1.429 . S
C535 C531 1.429 . S
C535 C536 1.523 . S
C536 C520 1.368 . S
C536 C532 1.368 . S
C536 C535 1.523 . S
H537 C512 0.950 . S
H538 C514 0.950 . S
H539 C515 0.949 . S
H540 C517 0.950 . S
H541 C519 0.950 . S
C542 C543 1.349 . S
C542 C544 1.327 . S
C542 H567 0.950 . S
C543 C542 1.349 . S
C543 C559 1.349 . S
C544 C542 1.327 . S
C544 C563 1.429 . S
C544 H568 0.950 . S
C545 C562 1.574 . S
C545 C564 1.368 . S
C545 H569 0.949 . S
H546 C550 0.949 . S
C547 C548 1.349 . S
C547 C549 1.327 . S
C547 H570 0.950 . S
C548 C547 1.349 . S
C548 C560 1.349 . S
C549 C547 1.327 . S
C549 C565 1.429 . S
C549 H571 0.950 . S
C550 H546 0.949 . S
C550 C558 1.574 . S
C550 C566 1.368 . S
H551 C559 0.950 . S
H552 C557 0.950 . S
H553 C558 0.949 . S
H554 C560 0.950 1_545 S
H555 C561 0.950 1_545 S
H556 C562 0.949 . S
C557 H552 0.950 . S
C557 C559 1.327 . S
C557 C563 1.429 . S
C558 C550 1.574 . S
C558 H553 0.949 . S
C558 C564 1.368 . S
C559 C543 1.349 . S
C559 H551 0.950 . S
C559 C557 1.327 . S
C560 C548 1.349 . S
C560 H554 0.950 1_565 S
C560 C561 1.327 . S
C561 H555 0.950 1_565 S
C561 C560 1.327 . S
C561 C565 1.429 . S
C562 C545 1.574 . S
C562 H556 0.949 . S
C562 C566 1.368 . S
C563 C544 1.429 . S
C563 C557 1.429 . S
C563 C564 1.523 . S
C564 C545 1.368 . S
C564 C558 1.368 . S
C564 C563 1.523 . S
C565 C549 1.429 . S
C565 C561 1.429 . S
C565 C566 1.523 . S
C566 C550 1.368 . S
C566 C562 1.368 . S
C566 C565 1.523 . S
H567 C542 0.950 . S
H568 C544 0.950 . S
H569 C545 0.949 . S
H570 C547 0.950 . S
H571 C549 0.950 . S
C572 C573 1.349 . S
C572 C574 1.327 . S
C572 H597 0.950 . S
C573 C572 1.349 . S
C573 C589 1.349 . S
C574 C572 1.327 . S
C574 C593 1.429 . S
C574 H598 0.950 . S
C575 C592 1.574 . S
C575 C594 1.368 . S
C575 H599 0.949 . S
H576 C580 0.949 1_554 S
C577 C578 1.349 . S
C577 C579 1.327 . S
C577 H600 0.950 . S
C578 C577 1.349 . S
C578 C590 1.349 1_556 S
C579 C577 1.327 . S
C579 C595 1.429 . S
C579 H601 0.950 . S
C580 H576 0.949 1_556 S
C580 C588 1.574 . S
C580 C596 1.368 . S
H581 C589 0.950 . S
H582 C587 0.950 . S
H583 C588 0.949 . S
H584 C590 0.950 . S
H585 C591 0.950 1_554 S
H586 C592 0.949 . S
C587 H582 0.950 . S
C587 C589 1.327 . S
C587 C593 1.429 . S
C588 C580 1.574 . S
C588 H583 0.949 . S
C588 C594 1.368 . S
C589 C573 1.349 . S
C589 H581 0.950 . S
C589 C587 1.327 . S
C590 C578 1.349 1_554 S
C590 H584 0.950 . S
C590 C591 1.327 1_554 S
C591 H585 0.950 1_556 S
C591 C590 1.327 1_556 S
C591 C595 1.429 . S
C592 C575 1.574 . S
C592 H586 0.949 . S
C592 C596 1.368 . S
C593 C574 1.429 . S
C593 C587 1.429 . S
C593 C594 1.523 . S
C594 C575 1.368 . S
C594 C588 1.368 . S
C594 C593 1.523 . S
C595 C579 1.429 . S
C595 C591 1.429 . S
C595 C596 1.523 . S
C596 C580 1.368 . S
C596 C592 1.368 . S
C596 C595 1.523 . S
H597 C572 0.950 . S
H598 C574 0.950 . S
H599 C575 0.949 . S
H600 C577 0.950 . S
H601 C579 0.950 . S
C602 C603 1.349 . S
C602 C604 1.327 . S
C602 H627 0.950 . S
C603 C602 1.349 . S
C603 C619 1.349 . S
C604 C602 1.327 . S
C604 C623 1.429 . S
C604 H628 0.950 . S
C605 C622 1.574 . S
C605 C624 1.368 . S
C605 H629 0.949 . S
H606 C610 0.949 . S
C607 C608 1.349 . S
C607 C609 1.327 . S
C607 H630 0.950 . S
C608 C607 1.349 . S
C608 C620 1.349 . S
C609 C607 1.327 . S
C609 C625 1.429 . S
C609 H631 0.950 . S
C610 H606 0.949 . S
C610 C618 1.574 . S
C610 C626 1.368 . S
H611 C619 0.950 . S
H612 C617 0.950 . S
H613 C618 0.949 . S
H614 C620 0.950 . S
H615 C621 0.950 . S
H616 C622 0.949 . S
C617 H612 0.950 . S
C617 C619 1.327 . S
C617 C623 1.429 . S
C618 C610 1.574 . S
C618 H613 0.949 . S
C618 C624 1.368 . S
C619 C603 1.349 . S
C619 H611 0.950 . S
C619 C617 1.327 . S
C620 C608 1.349 . S
C620 H614 0.950 . S
C620 C621 1.327 . S
C621 H615 0.950 . S
C621 C620 1.327 . S
C621 C625 1.429 . S
C622 C605 1.574 . S
C622 H616 0.949 . S
C622 C626 1.368 . S
C623 C604 1.429 . S
C623 C617 1.429 . S
C623 C624 1.523 . S
C624 C605 1.368 . S
C624 C618 1.368 . S
C624 C623 1.523 . S
C625 C609 1.429 . S
C625 C621 1.429 . S
C625 C626 1.523 . S
C626 C610 1.368 . S
C626 C622 1.368 . S
C626 C625 1.523 . S
H627 C602 0.950 . S
H628 C604 0.950 . S
H629 C605 0.949 . S
H630 C607 0.950 . S
H631 C609 0.950 . S
C632 C633 1.349 . S
C632 C634 1.327 . S
C632 H657 0.950 . S
C633 C632 1.349 . S
C633 C649 1.349 . S
C634 C632 1.327 . S
C634 C653 1.429 . S
C634 H658 0.950 . S
C635 C652 1.574 . S
C635 C654 1.368 . S
C635 H659 0.949 . S
H636 C640 0.949 . S
C637 C638 1.349 . S
C637 C639 1.327 . S
C637 H660 0.950 1_455 S
C638 C637 1.349 . S
C638 C650 1.349 . S
C639 C637 1.327 . S
C639 C655 1.429 . S
C639 H661 0.950 . S
C640 H636 0.949 . S
C640 C648 1.574 . S
C640 C656 1.368 . S
H641 C649 0.950 . S
H642 C647 0.950 . S
H643 C648 0.949 . S
H644 C650 0.950 . S
H645 C651 0.950 . S
H646 C652 0.949 . S
C647 H642 0.950 . S
C647 C649 1.327 . S
C647 C653 1.429 . S
C648 C640 1.574 . S
C648 H643 0.949 . S
C648 C654 1.368 . S
C649 C633 1.349 . S
C649 H641 0.950 . S
C649 C647 1.327 . S
C650 C638 1.349 . S
C650 H644 0.950 . S
C650 C651 1.327 . S
C651 H645 0.950 . S
C651 C650 1.327 . S
C651 C655 1.429 . S
C652 C635 1.574 . S
C652 H646 0.949 . S
C652 C656 1.368 . S
C653 C634 1.429 . S
C653 C647 1.429 . S
C653 C654 1.523 . S
C654 C635 1.368 . S
C654 C648 1.368 . S
C654 C653 1.523 . S
C655 C639 1.429 . S
C655 C651 1.429 . S
C655 C656 1.523 . S
C656 C640 1.368 . S
C656 C652 1.368 . S
C656 C655 1.523 . S
H657 C632 0.950 . S
H658 C634 0.950 . S
H659 C635 0.949 . S
H660 C637 0.950 1_655 S
H661 C639 0.950 . S
C662 C663 1.349 . S
C662 C664 1.327 . S
C662 H687 0.950 . S
C663 C662 1.349 . S
C663 C679 1.349 . S
C664 C662 1.327 . S
C664 C683 1.429 . S
C664 H688 0.950 . S
C665 C682 1.574 . S
C665 C684 1.368 . S
C665 H689 0.949 . S
H666 C670 0.949 . S
C667 C668 1.349 . S
C667 C669 1.327 . S
C667 H690 0.950 . S
C668 C667 1.349 . S
C668 C680 1.349 . S
C669 C667 1.327 . S
C669 C685 1.429 . S
C669 H691 0.950 . S
C670 H666 0.949 . S
C670 C678 1.574 . S
C670 C686 1.368 . S
H671 C679 0.950 . S
H672 C677 0.950 . S
H673 C678 0.949 . S
H674 C680 0.950 . S
H675 C681 0.950 . S
H676 C682 0.949 . S
C677 H672 0.950 . S
C677 C679 1.327 . S
C677 C683 1.429 . S
C678 C670 1.574 . S
C678 H673 0.949 . S
C678 C684 1.368 . S
C679 C663 1.349 . S
C679 H671 0.950 . S
C679 C677 1.327 . S
C680 C668 1.349 . S
C680 H674 0.950 . S
C680 C681 1.327 . S
C681 H675 0.950 . S
C681 C680 1.327 . S
C681 C685 1.429 . S
C682 C665 1.574 . S
C682 H676 0.949 . S
C682 C686 1.368 . S
C683 C664 1.429 . S
C683 C677 1.429 . S
C683 C684 1.523 . S
C684 C665 1.368 . S
C684 C678 1.368 . S
C684 C683 1.523 . S
C685 C669 1.429 . S
C685 C681 1.429 . S
C685 C686 1.523 . S
C686 C670 1.368 . S
C686 C682 1.368 . S
C686 C685 1.523 . S
H687 C662 0.950 . S
H688 C664 0.950 . S
H689 C665 0.949 . S
H690 C667 0.950 . S
H691 C669 0.950 . S
C692 C693 1.349 . S
C692 C694 1.327 . S
C692 H717 0.950 . S
C693 C692 1.349 . S
C693 C709 1.349 . S
C694 C692 1.327 . S
C694 C713 1.429 . S
C694 H718 0.950 . S
C695 C712 1.574 . S
C695 C714 1.368 . S
C695 H719 0.949 . S
H696 C700 0.949 . S
C697 C698 1.349 . S
C697 C699 1.327 . S
C697 H720 0.950 . S
C698 C697 1.349 . S
C698 C710 1.349 . S
C699 C697 1.327 . S
C699 C715 1.429 . S
C699 H721 0.950 . S
C700 H696 0.949 . S
C700 C708 1.574 . S
C700 C716 1.368 . S
H701 C709 0.950 . S
H702 C707 0.950 . S
H703 C708 0.949 . S
H704 C710 0.950 . S
H705 C711 0.950 . S
H706 C712 0.949 . S
C707 H702 0.950 . S
C707 C709 1.327 . S
C707 C713 1.429 . S
C708 C700 1.574 . S
C708 H703 0.949 . S
C708 C714 1.368 . S
C709 C693 1.349 . S
C709 H701 0.950 . S
C709 C707 1.327 . S
C710 C698 1.349 . S
C710 H704 0.950 . S
C710 C711 1.327 . S
C711 H705 0.950 . S
C711 C710 1.327 . S
C711 C715 1.429 . S
C712 C695 1.574 . S
C712 H706 0.949 . S
C712 C716 1.368 . S
C713 C694 1.429 . S
C713 C707 1.429 . S
C713 C714 1.523 . S
C714 C695 1.368 . S
C714 C708 1.368 . S
C714 C713 1.523 . S
C715 C699 1.429 . S
C715 C711 1.429 . S
C715 C716 1.523 . S
C716 C700 1.368 . S
C716 C712 1.368 . S
C716 C715 1.523 . S
H717 C692 0.950 . S
H718 C694 0.950 . S
H719 C695 0.949 . S
H720 C697 0.950 . S
H721 C699 0.950 . S
C722 C723 1.349 . S
C722 C724 1.327 . S
C722 H747 0.950 . S
C723 C722 1.349 . S
C723 C739 1.349 . S
C724 C722 1.327 . S
C724 C743 1.429 . S
C724 H748 0.950 . S
C725 C742 1.574 . S
C725 C744 1.368 . S
C725 H749 0.949 . S
H726 C730 0.949 . S
C727 C728 1.349 . S
C727 C729 1.327 . S
C727 H750 0.950 . S
C728 C727 1.349 . S
C728 C740 1.349 . S
C729 C727 1.327 . S
C729 C745 1.429 . S
C729 H751 0.950 . S
C730 H726 0.949 . S
C730 C738 1.574 . S
C730 C746 1.368 . S
H731 C739 0.950 . S
H732 C737 0.950 . S
H733 C738 0.949 . S
H734 C740 0.950 . S
H735 C741 0.950 . S
H736 C742 0.949 . S
C737 H732 0.950 . S
C737 C739 1.327 . S
C737 C743 1.429 . S
C738 C730 1.574 . S
C738 H733 0.949 . S
C738 C744 1.368 . S
C739 C723 1.349 . S
C739 H731 0.950 . S
C739 C737 1.327 . S
C740 C728 1.349 . S
C740 H734 0.950 . S
C740 C741 1.327 . S
C741 H735 0.950 . S
C741 C740 1.327 . S
C741 C745 1.429 . S
C742 C725 1.574 . S
C742 H736 0.949 . S
C742 C746 1.368 . S
C743 C724 1.429 . S
C743 C737 1.429 . S
C743 C744 1.523 . S
C744 C725 1.368 . S
C744 C738 1.368 . S
C744 C743 1.523 . S
C745 C729 1.429 . S
C745 C741 1.429 . S
C745 C746 1.523 . S
C746 C730 1.368 . S
C746 C742 1.368 . S
C746 C745 1.523 . S
H747 C722 0.950 . S
H748 C724 0.950 . S
H749 C725 0.949 . S
H750 C727 0.950 . S
H751 C729 0.950 . S
C752 C753 1.349 . S
C752 C754 1.327 . S
C752 H777 0.950 . S
C753 C752 1.349 . S
C753 C769 1.349 . S
C754 C752 1.327 . S
C754 C773 1.429 . S
C754 H778 0.950 . S
C755 C772 1.574 . S
C755 C774 1.368 . S
C755 H779 0.949 . S
H756 C760 0.949 . S
C757 C758 1.349 . S
C757 C759 1.327 . S
C757 H780 0.950 1_565 S
C758 C757 1.349 . S
C758 C770 1.349 . S
C759 C757 1.327 . S
C759 C775 1.429 . S
C759 H781 0.950 1_565 S
C760 H756 0.949 . S
C760 C768 1.574 . S
C760 C776 1.368 . S
H761 C769 0.950 . S
H762 C767 0.950 . S
H763 C768 0.949 . S
H764 C770 0.950 . S
H765 C771 0.950 . S
H766 C772 0.949 . S
C767 H762 0.950 . S
C767 C769 1.327 . S
C767 C773 1.429 . S
C768 C760 1.574 . S
C768 H763 0.949 . S
C768 C774 1.368 . S
C769 C753 1.349 . S
C769 H761 0.950 . S
C769 C767 1.327 . S
C770 C758 1.349 . S
C770 H764 0.950 . S
C770 C771 1.327 . S
C771 H765 0.950 . S
C771 C770 1.327 . S
C771 C775 1.429 . S
C772 C755 1.574 . S
C772 H766 0.949 . S
C772 C776 1.368 . S
C773 C754 1.429 . S
C773 C767 1.429 . S
C773 C774 1.523 . S
C774 C755 1.368 . S
C774 C768 1.368 . S
C774 C773 1.523 . S
C775 C759 1.429 . S
C775 C771 1.429 . S
C775 C776 1.523 . S
C776 C760 1.368 . S
C776 C772 1.368 . S
C776 C775 1.523 . S
H777 C752 0.950 . S
H778 C754 0.950 . S
H779 C755 0.949 . S
H780 C757 0.950 1_545 S
H781 C759 0.950 1_545 S
C782 C783 1.349 . S
C782 C784 1.327 . S
C782 H807 0.950 . S
C783 C782 1.349 . S
C783 C799 1.349 . S
C784 C782 1.327 . S
C784 C803 1.429 . S
C784 H808 0.950 . S
C785 C802 1.574 . S
C785 C804 1.368 . S
C785 H809 0.949 . S
H786 C790 0.949 . S
C787 C788 1.349 . S
C787 C789 1.327 . S
C787 H810 0.950 . S
C788 C787 1.349 . S
C788 C800 1.349 . S
C789 C787 1.327 . S
C789 C805 1.429 . S
C789 H811 0.950 . S
C790 H786 0.949 . S
C790 C798 1.574 . S
C790 C806 1.368 . S
H791 C799 0.950 . S
H792 C797 0.950 . S
H793 C798 0.949 . S
H794 C800 0.950 . S
H795 C801 0.950 . S
H796 C802 0.949 . S
C797 H792 0.950 . S
C797 C799 1.327 . S
C797 C803 1.429 . S
C798 C790 1.574 . S
C798 H793 0.949 . S
C798 C804 1.368 . S
C799 C783 1.349 . S
C799 H791 0.950 . S
C799 C797 1.327 . S
C800 C788 1.349 . S
C800 H794 0.950 . S
C800 C801 1.327 . S
C801 H795 0.950 . S
C801 C800 1.327 . S
C801 C805 1.429 . S
C802 C785 1.574 . S
C802 H796 0.949 . S
C802 C806 1.368 . S
C803 C784 1.429 . S
C803 C797 1.429 . S
C803 C804 1.523 . S
C804 C785 1.368 . S
C804 C798 1.368 . S
C804 C803 1.523 . S
C805 C789 1.429 . S
C805 C801 1.429 . S
C805 C806 1.523 . S
C806 C790 1.368 . S
C806 C802 1.368 . S
C806 C805 1.523 . S
H807 C782 0.950 . S
H808 C784 0.950 . S
H809 C785 0.949 . S
H810 C787 0.950 . S
H811 C789 0.950 . S
C812 C813 1.349 . S
C812 C814 1.327 . S
C812 H837 0.950 . S
C813 C812 1.349 . S
C813 C829 1.349 . S
C814 C812 1.327 . S
C814 C833 1.429 . S
C814 H838 0.950 . S
C815 C832 1.574 . S
C815 C834 1.368 . S
C815 H839 0.949 . S
H816 C820 0.949 . S
C817 C818 1.349 . S
C817 C819 1.327 . S
C817 H840 0.950 . S
C818 C817 1.349 . S
C818 C830 1.349 . S
C819 C817 1.327 . S
C819 C835 1.429 . S
C819 H841 0.950 . S
C820 H816 0.949 . S
C820 C828 1.574 . S
C820 C836 1.368 . S
H821 C829 0.950 . S
H822 C827 0.950 . S
H823 C828 0.949 . S
H824 C830 0.950 . S
H825 C831 0.950 . S
H826 C832 0.949 . S
C827 H822 0.950 . S
C827 C829 1.327 . S
C827 C833 1.429 . S
C828 C820 1.574 . S
C828 H823 0.949 . S
C828 C834 1.368 . S
C829 C813 1.349 . S
C829 H821 0.950 . S
C829 C827 1.327 . S
C830 C818 1.349 . S
C830 H824 0.950 . S
C830 C831 1.327 . S
C831 H825 0.950 . S
C831 C830 1.327 . S
C831 C835 1.429 . S
C832 C815 1.574 . S
C832 H826 0.949 . S
C832 C836 1.368 . S
C833 C814 1.429 . S
C833 C827 1.429 . S
C833 C834 1.523 . S
C834 C815 1.368 . S
C834 C828 1.368 . S
C834 C833 1.523 . S
C835 C819 1.429 . S
C835 C831 1.429 . S
C835 C836 1.523 . S
C836 C820 1.368 . S
C836 C832 1.368 . S
C836 C835 1.523 . S
H837 C812 0.950 . S
H838 C814 0.950 . S
H839 C815 0.949 . S
H840 C817 0.950 . S
H841 C819 0.950 . S
C842 C843 1.349 . S
C842 C844 1.327 . S
C842 H867 0.950 . S
C843 C842 1.349 . S
C843 C859 1.349 . S
C844 C842 1.327 . S
C844 C863 1.429 . S
C844 H868 0.950 . S
C845 C862 1.574 . S
C845 C864 1.368 . S
C845 H869 0.949 . S
H846 C850 0.949 . S
C847 C848 1.349 . S
C847 C849 1.327 . S
C847 H870 0.950 . S
C848 C847 1.349 . S
C848 C860 1.349 . S
C849 C847 1.327 . S
C849 C865 1.429 . S
C849 H871 0.950 . S
C850 H846 0.949 . S
C850 C858 1.574 . S
C850 C866 1.368 . S
H851 C859 0.950 . S
H852 C857 0.950 . S
H853 C858 0.949 . S
H854 C860 0.950 . S
H855 C861 0.950 . S
H856 C862 0.949 . S
C857 H852 0.950 . S
C857 C859 1.327 . S
C857 C863 1.429 . S
C858 C850 1.574 . S
C858 H853 0.949 . S
C858 C864 1.368 . S
C859 C843 1.349 . S
C859 H851 0.950 . S
C859 C857 1.327 . S
C860 C848 1.349 . S
C860 H854 0.950 . S
C860 C861 1.327 . S
C861 H855 0.950 . S
C861 C860 1.327 . S
C861 C865 1.429 . S
C862 C845 1.574 . S
C862 H856 0.949 . S
C862 C866 1.368 . S
C863 C844 1.429 . S
C863 C857 1.429 . S
C863 C864 1.523 . S
C864 C845 1.368 . S
C864 C858 1.368 . S
C864 C863 1.523 . S
C865 C849 1.429 . S
C865 C861 1.429 . S
C865 C866 1.523 . S
C866 C850 1.368 . S
C866 C862 1.368 . S
C866 C865 1.523 . S
H867 C842 0.950 . S
H868 C844 0.950 . S
H869 C845 0.949 . S
H870 C847 0.950 . S
H871 C849 0.950 . S
C872 C873 1.349 . S
C872 C874 1.327 . S
C872 H897 0.950 . S
C873 C872 1.349 . S
C873 C889 1.349 . S
C874 C872 1.327 . S
C874 C893 1.429 . S
C874 H898 0.950 . S
C875 C892 1.574 . S
C875 C894 1.368 . S
C875 H899 0.949 . S
H876 C880 0.949 . S
C877 C878 1.349 . S
C877 C879 1.327 . S
C877 H900 0.950 . S
C878 C877 1.349 . S
C878 C890 1.349 . S
C879 C877 1.327 . S
C879 C895 1.429 . S
C879 H901 0.950 . S
C880 H876 0.949 . S
C880 C888 1.574 . S
C880 C896 1.368 . S
H881 C889 0.950 . S
H882 C887 0.950 . S
H883 C888 0.949 . S
H884 C890 0.928 1_544 S
H885 C891 0.950 . S
H886 C892 0.949 . S
C887 H882 0.950 . S
C887 C889 1.327 . S
C887 C893 1.429 . S
C888 C880 1.574 . S
C888 H883 0.949 . S
C888 C894 1.368 . S
C889 C873 1.349 . S
C889 H881 0.950 . S
C889 C887 1.327 . S
C890 C878 1.349 . S
C890 H884 0.928 1_566 S
C890 C891 1.327 . S
C891 H885 0.950 . S
C891 C890 1.327 . S
C891 C895 1.429 . S
C892 C875 1.574 . S
C892 H886 0.949 . S
C892 C896 1.368 . S
C893 C874 1.429 . S
C893 C887 1.429 . S
C893 C894 1.523 . S
C894 C875 1.368 . S
C894 C888 1.368 . S
C894 C893 1.523 . S
C895 C879 1.429 . S
C895 C891 1.429 . S
C895 C896 1.523 . S
C896 C880 1.368 . S
C896 C892 1.368 . S
C896 C895 1.523 . S
H897 C872 0.950 . S
H898 C874 0.950 . S
H899 C875 0.949 . S
H900 C877 0.950 . S
H901 C879 0.950 . S
C902 C903 1.349 . S
C902 C904 1.327 . S
C902 H927 0.950 . S
C903 C902 1.349 . S
C903 C919 1.349 . S
C904 C902 1.327 . S
C904 C923 1.429 . S
C904 H928 0.950 . S
C905 C922 1.574 . S
C905 C924 1.368 . S
C905 H929 0.949 . S
H906 C910 0.949 . S
C907 C908 1.349 . S
C907 C909 1.327 . S
C907 H930 0.950 . S
C908 C907 1.349 . S
C908 C920 1.349 . S
C909 C907 1.327 . S
C909 C925 1.429 . S
C909 H931 0.950 . S
C910 H906 0.949 . S
C910 C918 1.574 . S
C910 C926 1.368 . S
H911 C919 0.950 . S
H912 C917 0.950 . S
H913 C918 0.949 . S
H914 C920 0.950 . S
H915 C921 0.950 . S
H916 C922 0.949 . S
C917 H912 0.950 . S
C917 C919 1.327 . S
C917 C923 1.429 . S
C918 C910 1.574 . S
C918 H913 0.949 . S
C918 C924 1.368 . S
C919 C903 1.349 . S
C919 H911 0.950 . S
C919 C917 1.327 . S
C920 C908 1.349 . S
C920 H914 0.950 . S
C920 C921 1.327 . S
C921 H915 0.950 . S
C921 C920 1.327 . S
C921 C925 1.429 . S
C922 C905 1.574 . S
C922 H916 0.949 . S
C922 C926 1.368 . S
C923 C904 1.429 . S
C923 C917 1.429 . S
C923 C924 1.523 . S
C924 C905 1.368 . S
C924 C918 1.368 . S
C924 C923 1.523 . S
C925 C909 1.429 . S
C925 C921 1.429 . S
C925 C926 1.523 . S
C926 C910 1.368 . S
C926 C922 1.368 . S
C926 C925 1.523 . S
H927 C902 0.950 . S
H928 C904 0.950 . S
H929 C905 0.949 . S
H930 C907 0.950 . S
H931 C909 0.950 . S
C932 C933 1.349 . S
C932 C934 1.327 . S
C932 H957 0.950 . S
C933 C932 1.349 . S
C933 C949 1.349 . S
C934 C932 1.327 . S
C934 C953 1.429 . S
C934 H958 0.950 . S
C935 C952 1.574 . S
C935 C954 1.368 . S
C935 H959 0.949 . S
H936 C940 0.949 . S
C937 C938 1.349 . S
C937 C939 1.327 . S
C937 H960 0.950 . S
C938 C937 1.349 . S
C938 C950 1.349 . S
C939 C937 1.327 . S
C939 C955 1.429 . S
C939 H961 0.950 . S
C940 H936 0.949 . S
C940 C948 1.574 . S
C940 C956 1.368 . S
H941 C949 0.950 . S
H942 C947 0.950 . S
H943 C948 0.949 . S
H944 C950 0.950 1_556 S
H945 C951 0.948 . S
H946 C952 0.949 . S
C947 H942 0.950 . S
C947 C949 1.327 . S
C947 C953 1.429 . S
C948 C940 1.574 . S
C948 H943 0.949 . S
C948 C954 1.368 . S
C949 C933 1.349 . S
C949 H941 0.950 . S
C949 C947 1.327 . S
C950 C938 1.349 . S
C950 H944 0.950 1_554 S
C950 C951 1.327 . S
C951 H945 0.948 . S
C951 C950 1.327 . S
C951 C955 1.429 . S
C952 C935 1.574 . S
C952 H946 0.949 . S
C952 C956 1.368 . S
C953 C934 1.429 . S
C953 C947 1.429 . S
C953 C954 1.523 . S
C954 C935 1.368 . S
C954 C948 1.368 . S
C954 C953 1.523 . S
C955 C939 1.429 . S
C955 C951 1.429 . S
C955 C956 1.523 . S
C956 C940 1.368 . S
C956 C952 1.368 . S
C956 C955 1.523 . S
H957 C932 0.950 . S
H958 C934 0.950 . S
H959 C935 0.949 . S
H960 C937 0.950 . S
H961 C939 0.950 . S
C962 C963 1.349 . S
C962 C964 1.327 . S
C962 H987 0.950 . S
C963 C962 1.349 . S
C963 C979 1.349 . S
C964 C962 1.327 . S
C964 C983 1.429 . S
C964 H988 0.950 . S
C965 C982 1.574 . S
C965 C984 1.368 . S
C965 H989 0.949 . S
H966 C970 0.949 . S
C967 C968 1.349 . S
C967 C969 1.327 . S
C967 H990 0.950 . S
C968 C967 1.349 . S
C968 C980 1.349 . S
C969 C967 1.327 . S
C969 C985 1.429 . S
C969 H991 0.950 . S
C970 H966 0.949 . S
C970 C978 1.574 . S
C970 C986 1.368 . S
H971 C979 0.950 . S
H972 C977 0.950 . S
H973 C978 0.949 . S
H974 C980 0.950 . S
H975 C981 0.950 . S
H976 C982 0.949 . S
C977 H972 0.950 . S
C977 C979 1.327 . S
C977 C983 1.429 . S
C978 C970 1.574 . S
C978 H973 0.949 . S
C978 C984 1.368 . S
C979 C963 1.349 . S
C979 H971 0.950 . S
C979 C977 1.327 . S
C980 C968 1.349 . S
C980 H974 0.950 . S
C980 C981 1.327 . S
C981 H975 0.950 . S
C981 C980 1.327 . S
C981 C985 1.429 . S
C982 C965 1.574 . S
C982 H976 0.949 . S
C982 C986 1.368 . S
C983 C964 1.429 . S
C983 C977 1.429 . S
C983 C984 1.523 . S
C984 C965 1.368 . S
C984 C978 1.368 . S
C984 C983 1.523 . S
C985 C969 1.429 . S
C985 C981 1.429 . S
C985 C986 1.523 . S
C986 C970 1.368 . S
C986 C982 1.368 . S
C986 C985 1.523 . S
H987 C962 0.950 . S
H988 C964 0.950 . S
H989 C965 0.949 . S
H990 C967 0.950 . S
H991 C969 0.950 . S
C992 C993 1.349 . S
C992 C994 1.327 . S
C992 H1017 0.950 . S
C993 C992 1.349 . S
C993 C1009 1.349 . S
C994 C992 1.327 . S
C994 C1013 1.429 . S
C994 H1018 0.950 . S
C995 C1012 1.574 . S
C995 C1014 1.368 . S
C995 H1019 0.949 . S
H996 C1000 0.949 . S
C997 C998 1.349 . S
C997 C999 1.327 . S
C997 H1020 0.950 1_556 S
C998 C997 1.349 . S
C998 C1010 1.349 . S
C999 C997 1.327 . S
C999 C1015 1.429 . S
C999 H1021 0.929 1_556 S
C1000 H996 0.949 . S
C1000 C1008 1.574 . S
C1000 C1016 1.368 . S
H1001 C1009 0.950 . S
H1002 C1007 0.950 . S
H1003 C1008 0.949 . S
H1004 C1010 0.950 . S
H1005 C1011 0.950 . S
H1006 C1012 0.949 . S
C1007 H1002 0.950 . S
C1007 C1009 1.327 . S
C1007 C1013 1.429 . S
C1008 C1000 1.574 . S
C1008 H1003 0.949 . S
C1008 C1014 1.368 . S
C1009 C993 1.349 . S
C1009 H1001 0.950 . S
C1009 C1007 1.327 . S
C1010 C998 1.349 . S
C1010 H1004 0.950 . S
C1010 C1011 1.327 . S
C1011 H1005 0.950 . S
C1011 C1010 1.327 . S
C1011 C1015 1.429 . S
C1012 C995 1.574 . S
C1012 H1006 0.949 . S
C1012 C1016 1.368 . S
C1013 C994 1.429 . S
C1013 C1007 1.429 . S
C1013 C1014 1.523 . S
C1014 C995 1.368 . S
C1014 C1008 1.368 . S
C1014 C1013 1.523 . S
C1015 C999 1.429 . S
C1015 C1011 1.429 . S
C1015 C1016 1.523 . S
C1016 C1000 1.368 . S
C1016 C1012 1.368 . S
C1016 C1015 1.523 . S
H1017 C992 0.950 . S
H1018 C994 0.950 . S
H1019 C995 0.949 . S
H1020 C997 0.950 1_554 S
H1021 C999 0.929 1_554 S
C1022 C1023 1.349 . S
C1022 C1024 1.327 . S
C1022 H1047 0.950 . S
C1023 C1022 1.349 . S
C1023 C1039 1.349 . S
C1024 C1022 1.327 . S
C1024 C1043 1.429 . S
C1024 H1048 0.950 . S
C1025 C1042 1.574 . S
C1025 C1044 1.368 . S
C1025 H1049 0.949 . S
H1026 C1030 0.949 . S
C1027 C1028 1.349 . S
C1027 C1029 1.327 . S
C1027 H1050 0.950 . S
C1028 C1027 1.349 . S
C1028 C1040 1.349 . S
C1029 C1027 1.327 . S
C1029 C1045 1.429 . S
C1029 H1051 0.950 . S
C1030 H1026 0.949 . S
C1030 C1038 1.574 . S
C1030 C1046 1.368 . S
H1031 C1039 0.950 . S
H1032 C1037 0.950 . S
H1033 C1038 0.949 . S
H1034 C1040 0.950 . S
H1035 C1041 0.950 . S
H1036 C1042 0.949 . S
C1037 H1032 0.950 . S
C1037 C1039 1.327 . S
C1037 C1043 1.429 . S
C1038 C1030 1.574 . S
C1038 H1033 0.949 . S
C1038 C1044 1.368 . S
C1039 C1023 1.349 . S
C1039 H1031 0.950 . S
C1039 C1037 1.327 . S
C1040 C1028 1.349 . S
C1040 H1034 0.950 . S
C1040 C1041 1.327 . S
C1041 H1035 0.950 . S
C1041 C1040 1.327 . S
C1041 C1045 1.429 . S
C1042 C1025 1.574 . S
C1042 H1036 0.949 . S
C1042 C1046 1.368 . S
C1043 C1024 1.429 . S
C1043 C1037 1.429 . S
C1043 C1044 1.523 . S
C1044 C1025 1.368 . S
C1044 C1038 1.368 . S
C1044 C1043 1.523 . S
C1045 C1029 1.429 . S
C1045 C1041 1.429 . S
C1045 C1046 1.523 . S
C1046 C1030 1.368 . S
C1046 C1042 1.368 . S
C1046 C1045 1.523 . S
H1047 C1022 0.950 . S
H1048 C1024 0.950 . S
H1049 C1025 0.949 . S
H1050 C1027 0.950 . S
H1051 C1029 0.950 . S
C1052 C1053 1.349 . S
C1052 C1054 1.327 . S
C1052 H1077 0.950 . S
C1053 C1052 1.349 . S
C1053 C1069 1.349 . S
C1054 C1052 1.327 . S
C1054 C1073 1.429 . S
C1054 H1078 0.950 . S
C1055 C1072 1.574 . S
C1055 C1074 1.368 . S
C1055 H1079 0.949 . S
H1056 C1060 0.949 . S
C1057 C1058 1.349 . S
C1057 C1059 1.327 . S
C1057 H1080 0.950 . S
C1058 C1057 1.349 . S
C1058 C1070 1.349 . S
C1059 C1057 1.327 . S
C1059 C1075 1.429 . S
C1059 H1081 0.950 . S
C1060 H1056 0.949 . S
C1060 C1068 1.574 . S
C1060 C1076 1.368 . S
H1061 C1069 0.950 . S
H1062 C1067 0.950 . S
H1063 C1068 0.949 . S
H1064 C1070 0.950 . S
H1065 C1071 0.950 . S
H1066 C1072 0.949 . S
C1067 H1062 0.950 . S
C1067 C1069 1.327 . S
C1067 C1073 1.429 . S
C1068 C1060 1.574 . S
C1068 H1063 0.949 . S
C1068 C1074 1.368 . S
C1069 C1053 1.349 . S
C1069 H1061 0.950 . S
C1069 C1067 1.327 . S
C1070 C1058 1.349 . S
C1070 H1064 0.950 . S
C1070 C1071 1.327 . S
C1071 H1065 0.950 . S
C1071 C1070 1.327 . S
C1071 C1075 1.429 . S
C1072 C1055 1.574 . S
C1072 H1066 0.949 . S
C1072 C1076 1.368 . S
C1073 C1054 1.429 . S
C1073 C1067 1.429 . S
C1073 C1074 1.523 . S
C1074 C1055 1.368 . S
C1074 C1068 1.368 . S
C1074 C1073 1.523 . S
C1075 C1059 1.429 . S
C1075 C1071 1.429 . S
C1075 C1076 1.523 . S
C1076 C1060 1.368 . S
C1076 C1072 1.368 . S
C1076 C1075 1.523 . S
H1077 C1052 0.950 . S
H1078 C1054 0.950 . S
H1079 C1055 0.949 . S
H1080 C1057 0.950 . S
H1081 C1059 0.950 . S
C1082 C1083 1.349 . S
C1082 C1084 1.327 . S
C1082 H1107 0.950 . S
C1083 C1082 1.349 . S
C1083 C1099 1.349 . S
C1084 C1082 1.327 . S
C1084 C1103 1.429 . S
C1084 H1108 0.950 . S
C1085 C1102 1.574 . S
C1085 C1104 1.368 . S
C1085 H1109 0.949 . S
H1086 C1090 0.949 . S
C1087 C1088 1.349 . S
C1087 C1089 1.327 . S
C1087 H1110 0.950 . S
C1088 C1087 1.349 . S
C1088 C1100 1.349 . S
C1089 C1087 1.327 . S
C1089 C1105 1.429 . S
C1089 H1111 0.950 . S
C1090 H1086 0.949 . S
C1090 C1098 1.574 . S
C1090 C1106 1.368 . S
H1091 C1099 0.950 . S
H1092 C1097 0.950 . S
H1093 C1098 0.949 . S
H1094 C1100 0.950 . S
H1095 C1101 0.950 . S
H1096 C1102 0.949 . S
C1097 H1092 0.950 . S
C1097 C1099 1.327 . S
C1097 C1103 1.429 . S
C1098 C1090 1.574 . S
C1098 H1093 0.949 . S
C1098 C1104 1.368 . S
C1099 C1083 1.349 . S
C1099 H1091 0.950 . S
C1099 C1097 1.327 . S
C1100 C1088 1.349 . S
C1100 H1094 0.950 . S
C1100 C1101 1.327 . S
C1101 H1095 0.950 . S
C1101 C1100 1.327 . S
C1101 C1105 1.429 . S
C1102 C1085 1.574 . S
C1102 H1096 0.949 . S
C1102 C1106 1.368 . S
C1103 C1084 1.429 . S
C1103 C1097 1.429 . S
C1103 C1104 1.523 . S
C1104 C1085 1.368 . S
C1104 C1098 1.368 . S
C1104 C1103 1.523 . S
C1105 C1089 1.429 . S
C1105 C1101 1.429 . S
C1105 C1106 1.523 . S
C1106 C1090 1.368 . S
C1106 C1102 1.368 . S
C1106 C1105 1.523 . S
H1107 C1082 0.950 . S
H1108 C1084 0.950 . S
H1109 C1085 0.949 . S
H1110 C1087 0.950 . S
H1111 C1089 0.950 . S
C393 C29 2.279 . S
C398 C256 2.378 . S
C423 C49 2.229 . S
C428 C298 2.234 . S
C458 C328 0.980 . S
C453 C93 0.940 . S
C483 C119 0.926 . S
C488 C362 0.962 . S
C518 C319 1.848 . S
C513 C17 1.767 . S
C548 C273 1.894 . S
C543 C61 1.889 . S
C578 C366 1.298 . S
C573 C81 1.231 . S
C608 C332 1.429 . S
C603 C125 1.337 . S
C633 C23 2.088 . S
C638 C387 2.177 . S
C668 C294 1.062 . S
C663 C87 1.020 . S
C693 C113 1.076 . S
C698 C269 1.133 . S
C723 C55 2.161 . S
C728 C353 2.165 . S
C758 C285 2.302 . S
C753 C157 2.291 . S
C783 C189 2.186 . S
C788 C307 2.286 . S
C813 C221 0.953 . S
C818 C337 0.952 . S
C843 C253 0.976 . S
C848 C371 1.021 . S
C873 C145 1.894 . S
C878 C290 1.901 . S
C908 C264 1.812 . S
C903 C183 1.732 . S
C938 C375 1.350 . S
C933 C209 1.350 . S
C968 C341 1.361 . S
C963 C247 1.283 . S
C993 C151 2.194 . S
C998 C358 2.200 . S
C1028 C303 1.073 . S
C1023 C215 1.078 . S
C1058 C260 1.111 . S
C1053 C241 1.063 . S
C1083 C177 2.119 . S
C1088 C324 2.206 . S
