# Generated by pormake.
# Topology nom, (4,4)-cn, num edge types: 1
# Building blocks:
#     Node 0, Type 0, BuildingBlock: MUDLON_clean_linker_0, # of connection points: 4
#     Node 1, Type 0, BuildingBlock: MUDLON_clean_linker_0, # of connection points: 4
#     Node 2, Type 0, BuildingBlock: MUDLON_clean_linker_0, # of connection points: 4
#     Node 3, Type 0, BuildingBlock: MUDLON_clean_linker_0, # of connection points: 4
#     Node 4, Type 0, BuildingBlock: MUDLON_clean_linker_0, # of connection points: 4
#     Node 5, Type 0, BuildingBlock: MUDLON_clean_linker_0, # of connection points: 4
#     Node 6, Type 1, BuildingBlock: GALJAG_clean_sbu_0, # of connection points: 4
#     Node 7, Type 1, BuildingBlock: GALJAG_clean_sbu_0, # of connection points: 4
#     Node 8, Type 1, BuildingBlock: GALJAG_clean_sbu_0, # of connection points: 4
#     Node 9, Type 1, BuildingBlock: GALJAG_clean_sbu_0, # of connection points: 4
#     Node 10, Type 1, BuildingBlock: GALJAG_clean_sbu_0, # of connection points: 4
#     Node 11, Type 1, BuildingBlock: GALJAG_clean_sbu_0, # of connection points: 4
#     Edge 12, Type (0, 1), BuildingBlock: UVAHIK_clean_linker_0, # of connection points: 2
#     Edge 13, Type (0, 1), BuildingBlock: UVAHIK_clean_linker_0, # of connection points: 2
#     Edge 14, Type (0, 1), BuildingBlock: UVAHIK_clean_linker_0, # of connection points: 2
#     Edge 15, Type (0, 1), BuildingBlock: UVAHIK_clean_linker_0, # of connection points: 2
#     Edge 16, Type (0, 1), BuildingBlock: UVAHIK_clean_linker_0, # of connection points: 2
#     Edge 17, Type (0, 1), BuildingBlock: UVAHIK_clean_linker_0, # of connection points: 2
#     Edge 18, Type (0, 1), BuildingBlock: UVAHIK_clean_linker_0, # of connection points: 2
#     Edge 19, Type (0, 1), BuildingBlock: UVAHIK_clean_linker_0, # of connection points: 2
#     Edge 20, Type (0, 1), BuildingBlock: UVAHIK_clean_linker_0, # of connection points: 2
#     Edge 21, Type (0, 1), BuildingBlock: UVAHIK_clean_linker_0, # of connection points: 2
#     Edge 22, Type (0, 1), BuildingBlock: UVAHIK_clean_linker_0, # of connection points: 2
#     Edge 23, Type (0, 1), BuildingBlock: UVAHIK_clean_linker_0, # of connection points: 2
#     Edge 24, Type (0, 1), BuildingBlock: UVAHIK_clean_linker_0, # of connection points: 2
#     Edge 25, Type (0, 1), BuildingBlock: UVAHIK_clean_linker_0, # of connection points: 2
#     Edge 26, Type (0, 1), BuildingBlock: UVAHIK_clean_linker_0, # of connection points: 2
#     Edge 27, Type (0, 1), BuildingBlock: UVAHIK_clean_linker_0, # of connection points: 2
#     Edge 28, Type (0, 1), BuildingBlock: UVAHIK_clean_linker_0, # of connection points: 2
#     Edge 29, Type (0, 1), BuildingBlock: UVAHIK_clean_linker_0, # of connection points: 2
#     Edge 30, Type (0, 1), BuildingBlock: UVAHIK_clean_linker_0, # of connection points: 2
#     Edge 31, Type (0, 1), BuildingBlock: UVAHIK_clean_linker_0, # of connection points: 2
#     Edge 32, Type (0, 1), BuildingBlock: UVAHIK_clean_linker_0, # of connection points: 2
#     Edge 33, Type (0, 1), BuildingBlock: UVAHIK_clean_linker_0, # of connection points: 2
#     Edge 34, Type (0, 1), BuildingBlock: UVAHIK_clean_linker_0, # of connection points: 2
#     Edge 35, Type (0, 1), BuildingBlock: UVAHIK_clean_linker_0, # of connection points: 2
# Relax obj value: 0.014
# Max RMSD: 0.119
# Mean RMSD: 0.084
data_MOF--net-nom--node1-GALJAG_clean_sbu_0--node2-MUDLON_clean_linker_0--edge1-UVAHIK_clean_linker_0
_symmetry_space_group_name_H-M    P1
_symmetry_Int_Tables_number       1
_symmetry_cell_setting            triclinic
loop_
_symmetry_equiv_pos_as_xyz
'x, y, z'
_cell_length_a     73.140942
_cell_length_b     74.112894
_cell_length_c     76.297991
_cell_angle_alpha  90.377046
_cell_angle_beta   89.813076
_cell_angle_gamma 120.53821
loop_
_atom_site_label
_atom_site_type_symbol
_atom_site_fract_x
_atom_site_fract_y
_atom_site_fract_z
_atom_type_partial_charge
H0 H 0.10325 0.58303 0.32541 0.0
N1 N 0.08928 0.60863 0.33789 0.0
H2 H 0.13151 0.59251 0.30391 0.0
H3 H 0.10827 0.64306 0.31871 0.0
H4 H 0.13667 0.65279 0.29723 0.0
H5 H 0.10898 0.63965 0.36075 0.0
H6 H 0.12491 0.63903 0.38871 0.0
H7 H 0.086 0.57385 0.35343 0.0
H8 H 0.10167 0.57298 0.38143 0.0
H9 H 0.06538 0.56739 0.32801 0.0
H10 H 0.06302 0.62323 0.33905 0.0
H11 H 0.02735 0.5483 0.32169 0.0
H12 H 0.02523 0.60468 0.33201 0.0
H13 H 0.92607 0.4986 0.2967 0.0
H14 H 0.91093 0.48022 0.26908 0.0
H15 H 0.91496 0.53618 0.24816 0.0
H16 H 0.9302 0.55446 0.2759 0.0
H17 H 0.90754 0.54994 0.31217 0.0
H18 H 0.87651 0.5323 0.33135 0.0
H19 H 0.89542 0.48796 0.34615 0.0
H20 H 0.92666 0.50597 0.32707 0.0
H21 H 0.96597 0.53016 0.29117 0.0
H22 H 0.00261 0.54596 0.30019 0.0
H23 H 0.99148 0.57882 0.34202 0.0
N24 N 0.93576 0.53852 0.30509 0.0
H25 H 0.95486 0.56373 0.33244 0.0
C26 C 0.10377 0.61247 0.3237 0.0
C27 C 0.11019 0.59812 0.31912 0.0
C28 C 0.12643 0.60361 0.30687 0.0
C29 C 0.13642 0.62345 0.29894 0.0
C30 C 0.12917 0.63731 0.30295 0.0
C31 C 0.11303 0.63184 0.31524 0.0
C32 C 0.09634 0.6069 0.35504 0.0
C33 C 0.10709 0.62501 0.36536 0.0
C34 C 0.1161 0.62458 0.38133 0.0
C35 C 0.11458 0.60594 0.38728 0.0
C36 C 0.10331 0.58762 0.3771 0.0
C37 C 0.09423 0.58807 0.36112 0.0
C38 C 0.06694 0.59672 0.33416 0.0
C39 C 0.05667 0.57553 0.32914 0.0
C40 C 0.03491 0.56468 0.32537 0.0
C41 C 0.02311 0.57488 0.32641 0.0
C42 C 0.0336 0.59613 0.33143 0.0
C43 C 0.05524 0.60685 0.33532 0.0
C44 C 0.92918 0.52795 0.28835 0.0
C45 C 0.9238 0.50694 0.28616 0.0
C46 C 0.9151 0.49643 0.27036 0.0
C47 C 0.91162 0.50669 0.25646 0.0
C48 C 0.91766 0.52789 0.25853 0.0
C49 C 0.92632 0.53836 0.27434 0.0
C50 C 0.91921 0.52917 0.31809 0.0
C51 C 0.90515 0.53666 0.31982 0.0
C52 C 0.88752 0.52661 0.33081 0.0
C53 C 0.88352 0.50871 0.3402 0.0
C54 C 0.89803 0.50161 0.33894 0.0
C55 C 0.91583 0.51185 0.32805 0.0
C56 C 0.95711 0.54543 0.31125 0.0
C57 C 0.97101 0.54045 0.30245 0.0
C58 C 0.99222 0.54952 0.30769 0.0
C59 C 1.00012 0.56377 0.3218 0.0
C60 C 0.9861 0.56821 0.33089 0.0
C61 C 0.96502 0.55936 0.32555 0.0
H62 H 0.4255 0.91296 0.47525 0.0
N63 N 0.40443 0.93362 0.46683 0.0
H64 H 0.41408 0.88485 0.49619 0.0
H65 H 0.37347 0.92139 0.49025 0.0
H66 H 0.3628 0.89431 0.51251 0.0
H67 H 0.37413 0.91623 0.44286 0.0
H68 H 0.37595 0.90269 0.41407 0.0
H69 H 0.44002 0.93695 0.45177 0.0
H70 H 0.44173 0.92203 0.42362 0.0
H71 H 0.44378 0.95387 0.48203 0.0
H72 H 0.3943 0.96252 0.46079 0.0
H73 H 0.46403 0.99106 0.49032 0.0
H74 H 0.41457 0.99971 0.46841 0.0
H75 H 0.51606 0.0833 0.51595 0.0
H76 H 0.53204 0.09809 0.54452 0.0
H77 H 0.48358 0.11399 0.55401 0.0
H78 H 0.46825 0.09981 0.52521 0.0
H79 H 0.46704 0.10521 0.48459 0.0
H80 H 0.48611 0.13625 0.46617 0.0
H81 H 0.54241 0.13133 0.46954 0.0
H82 H 0.52329 0.10061 0.48821 0.0
H83 H 0.50192 0.06373 0.48801 0.0
H84 H 0.48373 0.02682 0.47907 0.0
H85 H 0.42377 0.0203 0.49465 0.0
N86 N 0.48305 0.0849 0.50094 0.0
H87 H 0.44207 0.05728 0.50298 0.0
C88 C 0.3999 0.9189 0.48078 0.0
C89 C 0.41174 0.90898 0.48321 0.0
C90 C 0.40531 0.89298 0.4955 0.0
C91 C 0.38725 0.88692 0.50602 0.0
C92 C 0.37637 0.89798 0.50434 0.0
C93 C 0.38254 0.91364 0.49175 0.0
C94 C 0.40674 0.9272 0.44951 0.0
C95 C 0.38897 0.91773 0.43856 0.0
C96 C 0.39003 0.90979 0.4222 0.0
C97 C 0.40887 0.91078 0.41657 0.0
C98 C 0.42696 0.92102 0.42739 0.0
C99 C 0.42597 0.92937 0.44362 0.0
C100 C 0.41741 0.9555 0.47102 0.0
C101 C 0.43738 0.96384 0.47904 0.0
C102 C 0.44898 0.98511 0.48366 0.0
C103 C 0.4408 0.99832 0.48023 0.0
C104 C 0.42113 0.98992 0.47164 0.0
C105 C 0.40957 0.96874 0.46715 0.0
C106 C 0.49108 0.09069 0.51848 0.0
C107 C 0.50882 0.08982 0.52426 0.0
C108 C 0.51786 0.09818 0.54064 0.0
C109 C 0.50926 0.10749 0.55144 0.0
C110 C 0.49088 0.10736 0.54587 0.0
C111 C 0.48197 0.09911 0.52952 0.0
C112 C 0.49368 0.10065 0.48777 0.0
C113 C 0.48334 0.11059 0.48097 0.0
C114 C 0.49427 0.12827 0.47042 0.0
C115 C 0.51585 0.13636 0.46648 0.0
C116 C 0.52588 0.12565 0.47253 0.0
C117 C 0.5149 0.10795 0.4831 0.0
C118 C 0.4732 0.06323 0.49596 0.0
C119 C 0.48488 0.05436 0.48942 0.0
C120 C 0.47446 0.0332 0.48444 0.0
C121 C 0.45225 0.02063 0.48597 0.0
C122 C 0.44081 0.02959 0.4929 0.0
C123 C 0.4512 0.05066 0.49778 0.0
H124 H 0.46195 0.56624 0.65858 0.0
N125 N 0.45413 0.52969 0.67094 0.0
H126 H 0.43869 0.57347 0.6409 0.0
H127 H 0.41594 0.50016 0.65631 0.0
H128 H 0.39318 0.50704 0.63789 0.0
H129 H 0.41721 0.51032 0.68984 0.0
H130 H 0.41217 0.51932 0.71962 0.0
H131 H 0.48379 0.55673 0.69266 0.0
H132 H 0.47896 0.56576 0.7226 0.0
H133 H 0.48844 0.53379 0.65534 0.0
H134 H 0.42929 0.48791 0.67878 0.0
H135 H 0.49674 0.50643 0.6487 0.0
H136 H 0.43669 0.46029 0.6713 0.0
H137 H 0.52271 0.43589 0.62928 0.0
H138 H 0.53783 0.43598 0.6009 0.0
H139 H 0.47471 0.39543 0.58022 0.0
H140 H 0.4598 0.39435 0.60925 0.0
H141 H 0.46535 0.37315 0.64576 0.0
H142 H 0.4815 0.35808 0.66417 0.0
H143 H 0.53124 0.42038 0.67868 0.0
H144 H 0.51501 0.43529 0.66019 0.0
H145 H 0.49338 0.45073 0.6209 0.0
H146 H 0.48699 0.47824 0.62964 0.0
H147 H 0.4572 0.44505 0.67736 0.0
N148 N 0.48068 0.41335 0.63851 0.0
H149 H 0.46256 0.41656 0.66811 0.0
C150 C 0.44093 0.53275 0.65872 0.0
C151 C 0.44706 0.55326 0.65389 0.0
C152 C 0.43374 0.55732 0.64369 0.0
C153 C 0.41395 0.54084 0.6379 0.0
C154 C 0.40811 0.52017 0.64231 0.0
C155 C 0.42133 0.51617 0.65274 0.0
C156 C 0.45096 0.53293 0.68906 0.0
C157 C 0.43084 0.52216 0.697 0.0
C158 C 0.42798 0.52731 0.71405 0.0
C159 C 0.44514 0.54336 0.72342 0.0
C160 C 0.46537 0.55354 0.71563 0.0
C161 C 0.46821 0.54833 0.69862 0.0
C162 C 0.45822 0.51294 0.66731 0.0
C163 C 0.47716 0.51775 0.65889 0.0
C164 C 0.48177 0.50203 0.65501 0.0
C165 C 0.46731 0.48101 0.6593 0.0
C166 C 0.44837 0.47627 0.66797 0.0
C167 C 0.44395 0.49209 0.67209 0.0
C168 C 0.49005 0.41469 0.6215 0.0
C169 C 0.51211 0.42677 0.61875 0.0
C170 C 0.52074 0.42708 0.60234 0.0
C171 C 0.50754 0.41568 0.58817 0.0
C172 C 0.48543 0.40408 0.59087 0.0
C173 C 0.47683 0.40354 0.60739 0.0
C174 C 0.48896 0.40525 0.65151 0.0
C175 C 0.47948 0.3835 0.65322 0.0
C176 C 0.48871 0.37495 0.66377 0.0
C177 C 0.50774 0.38805 0.6728 0.0
C178 C 0.51674 0.40989 0.67171 0.0
C179 C 0.50742 0.41843 0.66121 0.0
C180 C 0.47901 0.43132 0.64406 0.0
C181 C 0.48574 0.44914 0.63341 0.0
C182 C 0.48212 0.4652 0.63847 0.0
C183 C 0.47172 0.46409 0.65431 0.0
C184 C 0.46508 0.44643 0.66498 0.0
C185 C 0.46842 0.43019 0.65981 0.0
H186 H 0.10531 0.53289 0.8086 0.0
N187 N 0.0824 0.49077 0.80142 0.0
H188 H 0.13608 0.55064 0.82776 0.0
H189 H 0.09719 0.47311 0.82305 0.0
H190 H 0.12848 0.49089 0.84208 0.0
H191 H 0.10382 0.48042 0.77946 0.0
H192 H 0.12004 0.49691 0.75161 0.0
H193 H 0.07692 0.5202 0.78435 0.0
H194 H 0.09226 0.53617 0.75619 0.0
H195 H 0.07016 0.51434 0.82114 0.0
H196 H 0.04659 0.45649 0.79222 0.0
H197 H 0.03421 0.50528 0.8281 0.0
H198 H 0.01018 0.44777 0.79833 0.0
H199 H 0.9169 0.47771 0.84314 0.0
H200 H 0.90195 0.47267 0.87268 0.0
H201 H 0.92247 0.42853 0.8835 0.0
H202 H 0.93701 0.43339 0.85403 0.0
H203 H 0.90953 0.41474 0.83091 0.0
H204 H 0.87825 0.39194 0.81359 0.0
H205 H 0.89034 0.44447 0.78106 0.0
H206 H 0.92114 0.46747 0.79923 0.0
H207 H 0.96786 0.49466 0.82202 0.0
H208 H 0.00398 0.50287 0.81546 0.0
H209 H 0.98389 0.43721 0.82012 0.0
N210 N 0.9341 0.45748 0.8281 0.0
H211 H 0.94766 0.42915 0.82562 0.0
C212 C 0.09889 0.50155 0.81437 0.0
C213 C 0.10997 0.52352 0.81607 0.0
C214 C 0.1277 0.5337 0.82696 0.0
C215 C 0.13489 0.5222 0.83629 0.0
C216 C 0.12326 0.5002 0.83518 0.0
C217 C 0.10543 0.49001 0.82431 0.0
C218 C 0.08909 0.4989 0.78396 0.0
C219 C 0.10099 0.49235 0.77427 0.0
C220 C 0.11017 0.50178 0.75832 0.0
C221 C 0.10754 0.51796 0.75163 0.0
C222 C 0.09492 0.524 0.76106 0.0
C223 C 0.08589 0.51468 0.77711 0.0
C224 C 0.06124 0.4859 0.80625 0.0
C225 C 0.05734 0.49964 0.81625 0.0
C226 C 0.03657 0.49452 0.82008 0.0
C227 C 0.01915 0.47579 0.81375 0.0
C228 C 0.02312 0.46214 0.80372 0.0
C229 C 0.04392 0.46714 0.8001 0.0
C230 C 0.92809 0.45604 0.8463 0.0
C231 C 0.91848 0.46724 0.85203 0.0
C232 C 0.91 0.46436 0.8689 0.0
C233 C 0.91092 0.4501 0.8804 0.0
C234 C 0.92126 0.43942 0.87487 0.0
C235 C 0.92976 0.44234 0.858 0.0
C236 C 0.91748 0.44298 0.81654 0.0
C237 C 0.90561 0.42137 0.81999 0.0
C238 C 0.88773 0.40825 0.80991 0.0
C239 C 0.88152 0.41636 0.796 0.0
C240 C 0.8943 0.43775 0.79192 0.0
C241 C 0.91202 0.4509 0.80216 0.0
C242 C 0.95515 0.46143 0.82446 0.0
C243 C 0.97134 0.48209 0.82158 0.0
C244 C 0.992 0.48673 0.81798 0.0
C245 C 0.99701 0.47073 0.81739 0.0
C246 C 0.98065 0.44993 0.82026 0.0
C247 C 0.9599 0.44529 0.82362 0.0
H248 H 0.59203 0.11236 0.97596 0.0
N249 N 0.60765 0.08635 0.96863 0.0
H250 H 0.60774 0.14249 0.99542 0.0
H251 H 0.63948 0.09733 0.99101 0.0
H252 H 0.65478 0.12701 0.01149 0.0
H253 H 0.63802 0.10367 0.94458 0.0
H254 H 0.63626 0.1175 0.91597 0.0
H255 H 0.57228 0.08384 0.9538 0.0
H256 H 0.57027 0.09727 0.9252 0.0
H257 H 0.57179 0.07556 0.98813 0.0
H258 H 0.60542 0.05056 0.96017 0.0
H259 H 0.54379 0.04026 0.99541 0.0
H260 H 0.57687 0.01499 0.96661 0.0
H261 H 0.45154 0.92139 0.01173 0.0
H262 H 0.4421 0.90841 0.04162 0.0
H263 H 0.50877 0.93834 0.05477 0.0
H264 H 0.51792 0.95001 0.02472 0.0
H265 H 0.51028 0.91931 0.00188 0.0
H266 H 0.50194 0.88683 0.98682 0.0
H267 H 0.45522 0.891 0.95542 0.0
H268 H 0.46384 0.92373 0.97049 0.0
H269 H 0.4866 0.97449 0.98995 0.0
H270 H 0.51511 0.00993 0.98291 0.0
H271 H 0.56103 0.99006 0.98903 0.0
N272 N 0.48988 0.9414 0.99749 0.0
H273 H 0.53244 0.95468 0.99517 0.0
C274 C 0.61485 0.10271 0.98176 0.0
C275 C 0.60568 0.11533 0.98365 0.0
C276 C 0.6146 0.13254 0.99502 0.0
C277 C 0.6327 0.1374 0.00501 0.0
C278 C 0.64114 0.12407 0.00375 0.0
C279 C 0.63233 0.10698 0.99219 0.0
C280 C 0.60539 0.09271 0.95131 0.0
C281 C 0.62315 0.10204 0.9403 0.0
C282 C 0.62207 0.10984 0.92396 0.0
C283 C 0.60312 0.10851 0.91834 0.0
C284 C 0.58516 0.09874 0.92925 0.0
C285 C 0.58625 0.0909 0.94557 0.0
C286 C 0.59099 0.06575 0.97378 0.0
C287 C 0.57325 0.06251 0.9836 0.0
C288 C 0.55703 0.04219 0.98757 0.0
C289 C 0.55797 0.02466 0.9816 0.0
C290 C 0.57572 0.02803 0.97173 0.0
C291 C 0.59203 0.04834 0.96795 0.0
C292 C 0.48534 0.93676 0.01588 0.0
C293 C 0.46407 0.92536 0.02118 0.0
C294 C 0.45874 0.91806 0.03833 0.0
C295 C 0.47466 0.92223 0.05071 0.0
C296 C 0.49605 0.93445 0.04556 0.0
C297 C 0.50134 0.94143 0.0283 0.0
C298 C 0.48774 0.92406 0.98717 0.0
C299 C 0.49873 0.91364 0.99139 0.0
C300 C 0.4939 0.89501 0.9828 0.0
C301 C 0.47785 0.88633 0.97001 0.0
C302 C 0.46753 0.89724 0.96533 0.0
C303 C 0.47251 0.91596 0.97381 0.0
C304 C 0.50726 0.96192 0.9931 0.0
C305 C 0.50284 0.97785 0.98965 0.0
C306 C 0.5192 0.99812 0.9858 0.0
C307 C 0.54047 0.00298 0.98549 0.0
C308 C 0.54486 0.9869 0.98889 0.0
C309 C 0.52844 0.96657 0.99253 0.0
H310 H 0.59487 0.49662 0.16486 0.0
N311 N 0.61124 0.5385 0.17177 0.0
H312 H 0.60965 0.48156 0.14519 0.0
H313 H 0.64223 0.55872 0.14854 0.0
H314 H 0.65656 0.54366 0.12781 0.0
H315 H 0.6426 0.55114 0.19484 0.0
H316 H 0.64171 0.53549 0.22325 0.0
H317 H 0.57606 0.50632 0.18758 0.0
H318 H 0.5751 0.49046 0.21569 0.0
H319 H 0.57433 0.51299 0.15359 0.0
H320 H 0.61005 0.57272 0.17982 0.0
H321 H 0.54628 0.52042 0.14709 0.0
H322 H 0.58153 0.57995 0.17406 0.0
H323 H 0.4539 0.54774 0.13437 0.0
H324 H 0.4422 0.5491 0.10472 0.0
H325 H 0.50762 0.58277 0.08759 0.0
H326 H 0.51912 0.58223 0.11727 0.0
H327 H 0.51357 0.60793 0.13778 0.0
H328 H 0.50871 0.63475 0.15199 0.0
H329 H 0.46705 0.58942 0.19004 0.0
H330 H 0.47232 0.56263 0.17584 0.0
H331 H 0.49002 0.53011 0.1549 0.0
H332 H 0.51862 0.52307 0.16099 0.0
H333 H 0.56479 0.58821 0.1515 0.0
N334 N 0.49339 0.56629 0.14636 0.0
H335 H 0.5362 0.59517 0.14618 0.0
C336 C 0.61773 0.52895 0.15844 0.0
C337 C 0.60827 0.50707 0.15683 0.0
C338 C 0.61666 0.49841 0.14532 0.0
C339 C 0.63448 0.51135 0.13492 0.0
C340 C 0.64314 0.5332 0.13587 0.0
C341 C 0.63488 0.54186 0.14757 0.0
C342 C 0.6095 0.53004 0.1891 0.0
C343 C 0.62778 0.53808 0.19948 0.0
C344 C 0.62725 0.52903 0.21561 0.0
C345 C 0.60835 0.51165 0.22168 0.0
C346 C 0.58985 0.50397 0.21149 0.0
C347 C 0.5904 0.51303 0.19536 0.0
C348 C 0.59455 0.54251 0.16703 0.0
C349 C 0.57624 0.52778 0.1579 0.0
C350 C 0.56001 0.53195 0.15436 0.0
C351 C 0.56157 0.55079 0.16006 0.0
C352 C 0.57991 0.56545 0.16919 0.0
C353 C 0.59619 0.56133 0.17258 0.0
C354 C 0.4873 0.56474 0.12817 0.0
C355 C 0.46565 0.55509 0.12412 0.0
C356 C 0.45902 0.55583 0.10712 0.0
C357 C 0.47397 0.56617 0.09373 0.0
C358 C 0.49567 0.57501 0.09763 0.0
C359 C 0.50229 0.57448 0.11468 0.0
C360 C 0.49321 0.58316 0.15577 0.0
C361 C 0.50374 0.60381 0.14938 0.0
C362 C 0.50081 0.61912 0.15744 0.0
C363 C 0.48731 0.61415 0.17202 0.0
C364 C 0.47767 0.59379 0.17891 0.0
C365 C 0.4806 0.57846 0.17081 0.0
C366 C 0.51084 0.56307 0.15012 0.0
C367 C 0.50634 0.54284 0.15425 0.0
C368 C 0.52273 0.53884 0.15756 0.0
C369 C 0.54408 0.55506 0.15667 0.0
C370 C 0.54857 0.5754 0.15256 0.0
C371 C 0.53215 0.5794 0.14941 0.0
In372 In 0.62638 0.39041 0.40436 0.0
O373 O 0.66128 0.4135 0.4108 0.0
O374 O 0.65435 0.39104 0.39062 0.0
C375 C 0.60773 0.3977 0.43191 0.0
C376 C 0.61729 0.40683 0.37647 0.0
C377 C 0.61226 0.34962 0.41039 0.0
O378 O 0.62763 0.40713 0.43002 0.0
O379 O 0.59734 0.38475 0.4199 0.0
O380 O 0.60454 0.35559 0.39853 0.0
O381 O 0.6271 0.36422 0.41912 0.0
C382 C 0.66838 0.40624 0.39938 0.0
O383 O 0.6129 0.38803 0.37682 0.0
O384 O 0.62598 0.41716 0.3902 0.0
In385 In 0.26032 0.6373 0.57169 0.0
O386 O 0.26212 0.60746 0.57399 0.0
O387 O 0.29109 0.63658 0.5727 0.0
C388 C 0.23816 0.63052 0.54154 0.0
C389 C 0.23588 0.62297 0.6007 0.0
C390 C 0.28575 0.6794 0.57141 0.0
O391 O 0.25009 0.62309 0.54397 0.0
O392 O 0.23759 0.64124 0.55414 0.0
O393 O 0.26842 0.67036 0.5797 0.0
O394 O 0.29041 0.66725 0.56357 0.0
C395 C 0.28215 0.61696 0.57414 0.0
O396 O 0.25573 0.63509 0.60151 0.0
O397 O 0.22849 0.61834 0.58538 0.0
In398 In 0.62416 0.2504 0.73653 0.0
O399 O 0.6592 0.26693 0.72872 0.0
O400 O 0.65121 0.2743 0.75354 0.0
C401 C 0.60747 0.22417 0.7088 0.0
C402 C 0.61647 0.22418 0.76354 0.0
C403 C 0.60793 0.27566 0.73156 0.0
O404 O 0.62705 0.23742 0.70999 0.0
O405 O 0.59648 0.22419 0.72155 0.0
O406 O 0.59957 0.26024 0.74184 0.0
O407 O 0.62447 0.27838 0.72398 0.0
C408 C 0.66566 0.27738 0.74279 0.0
O409 O 0.61025 0.23726 0.76348 0.0
O410 O 0.62638 0.22425 0.74995 0.0
In411 In 0.38755 0.63168 0.911 0.0
O412 O 0.35228 0.61301 0.91777 0.0
O413 O 0.36118 0.62907 0.89343 0.0
C414 C 0.40071 0.61874 0.93876 0.0
C415 C 0.39941 0.61763 0.88285 0.0
C416 C 0.40245 0.67248 0.9187 0.0
O417 O 0.38169 0.60929 0.93362 0.0
O418 O 0.41303 0.63474 0.92998 0.0
O419 O 0.41259 0.6665 0.90926 0.0
O420 O 0.38485 0.65792 0.92425 0.0
C421 C 0.34633 0.61737 0.90371 0.0
O422 O 0.40443 0.63653 0.88462 0.0
O423 O 0.38858 0.60592 0.89528 0.0
In424 In 0.76821 0.39106 0.07097 0.0
O425 O 0.77442 0.3889 0.10021 0.0
O426 O 0.79719 0.41535 0.08598 0.0
C427 C 0.74527 0.34888 0.06778 0.0
C428 C 0.74504 0.40994 0.07453 0.0
C429 C 0.79033 0.39997 0.04064 0.0
O430 O 0.76441 0.35848 0.07266 0.0
O431 O 0.73772 0.3605 0.06471 0.0
O432 O 0.7728 0.39934 0.04174 0.0
O433 O 0.79651 0.39601 0.05471 0.0
C434 C 0.79183 0.40606 0.10048 0.0
O435 O 0.76377 0.41935 0.06866 0.0
O436 O 0.73798 0.39103 0.07846 0.0
In437 In 0.38783 0.76908 0.23258 0.0
O438 O 0.40542 0.75235 0.24111 0.0
O439 O 0.39651 0.75022 0.21435 0.0
C440 C 0.39473 0.79309 0.26152 0.0
C441 C 0.40263 0.79822 0.20705 0.0
C442 C 0.34675 0.73848 0.23451 0.0
O443 O 0.40887 0.79004 0.25515 0.0
O444 O 0.37737 0.78407 0.25338 0.0
O445 O 0.35355 0.75255 0.22294 0.0
O446 O 0.36075 0.73967 0.24488 0.0
C447 C 0.40547 0.74538 0.22596 0.0
O448 O 0.38307 0.78664 0.21015 0.0
O449 O 0.41462 0.79521 0.21689 0.0
C450 C 0.17168 0.62676 0.29296 0.0
C451 C 0.15548 0.63047 0.28774 0.0
C452 C 0.1908 0.63551 0.28371 0.0
C453 C 0.22412 0.68042 0.25534 0.0
H454 H 0.2578 0.65368 0.25132 0.0
C455 C 0.3086 0.72384 0.2264 0.0
C456 C 0.32398 0.7228 0.23663 0.0
C457 C 0.28699 0.71031 0.22964 0.0
C458 C 0.24857 0.66134 0.25236 0.0
H459 H 0.14613 0.64526 0.26813 0.0
H460 H 0.17945 0.66038 0.25182 0.0
H461 H 0.22137 0.63366 0.26211 0.0
H462 H 0.32883 0.70626 0.25776 0.0
H463 H 0.29115 0.68271 0.26344 0.0
H464 H 0.25143 0.7082 0.24595 0.0
C465 C 0.17755 0.65106 0.2633 0.0
C466 C 0.22772 0.6499 0.25856 0.0
C467 C 0.15845 0.64236 0.2726 0.0
C468 C 0.31734 0.70744 0.24967 0.0
C469 C 0.29574 0.69386 0.25285 0.0
C470 C 0.24492 0.69182 0.24908 0.0
C471 C 0.19414 0.64813 0.26898 0.0
C472 C 0.21538 0.65942 0.26047 0.0
C473 C 0.28033 0.69541 0.2431 0.0
C474 C 0.25752 0.68254 0.24785 0.0
H475 H 0.17003 0.61793 0.30471 0.0
H476 H 0.20331 0.63317 0.28864 0.0
H477 H 0.21523 0.68838 0.25689 0.0
H478 H 0.31325 0.73548 0.21621 0.0
H479 H 0.27548 0.71173 0.22178 0.0
C480 C 0.5484 0.17194 0.46403 0.0
C481 C 0.52824 0.15697 0.45766 0.0
C482 C 0.55904 0.19222 0.4573 0.0
C483 C 0.56065 0.2253 0.42051 0.0
H484 H 0.58415 0.26938 0.45569 0.0
C485 C 0.58618 0.3115 0.40548 0.0
C486 C 0.60422 0.32729 0.41414 0.0
C487 C 0.57805 0.29043 0.40969 0.0
C488 C 0.57799 0.25732 0.44564 0.0
H489 H 0.50398 0.15129 0.43854 0.0
H490 H 0.5225 0.18687 0.42692 0.0
H491 H 0.56836 0.23306 0.46462 0.0
H492 H 0.62828 0.33343 0.43359 0.0
H493 H 0.61435 0.29673 0.44073 0.0
H494 H 0.5702 0.24967 0.40154 0.0
C495 C 0.53008 0.18285 0.43709 0.0
C496 C 0.56892 0.23646 0.45078 0.0
C497 C 0.51939 0.16253 0.44386 0.0
C498 C 0.61425 0.32161 0.42679 0.0
C499 C 0.60619 0.30057 0.43094 0.0
C500 C 0.56981 0.24622 0.41535 0.0
C501 C 0.5498 0.19805 0.44403 0.0
C502 C 0.5601 0.2202 0.43829 0.0
C503 C 0.58784 0.28473 0.42261 0.0
C504 C 0.57854 0.26248 0.42788 0.0
H505 H 0.55559 0.16828 0.47477 0.0
H506 H 0.57436 0.2035 0.46275 0.0
H507 H 0.55413 0.21311 0.41057 0.0
H508 H 0.5781 0.31543 0.39569 0.0
H509 H 0.56376 0.27866 0.40316 0.0
C510 C 0.37708 0.53351 0.63125 0.0
C511 C 0.39908 0.54536 0.62817 0.0
C512 C 0.36326 0.53869 0.62314 0.0
C513 C 0.36004 0.57165 0.58774 0.0
H514 H 0.31418 0.56735 0.61648 0.0
C515 C 0.31639 0.6171 0.57488 0.0
C516 C 0.29424 0.60621 0.57699 0.0
C517 C 0.3281 0.60756 0.57902 0.0
C518 C 0.32673 0.56838 0.6082 0.0
H519 H 0.42357 0.57148 0.61343 0.0
H520 H 0.3997 0.58114 0.60004 0.0
H521 H 0.33669 0.55473 0.62775 0.0
H522 H 0.26689 0.57664 0.58465 0.0
H523 H 0.28744 0.56007 0.59215 0.0
H524 H 0.35048 0.58623 0.56853 0.0
C525 C 0.393 0.56756 0.60846 0.0
C526 C 0.33963 0.56107 0.61462 0.0
C527 C 0.40679 0.56221 0.61639 0.0
C528 C 0.28395 0.58541 0.58288 0.0
C529 C 0.2957 0.57596 0.58725 0.0
C530 C 0.34728 0.57922 0.58142 0.0
C531 C 0.37107 0.55605 0.61191 0.0
C532 C 0.35659 0.56274 0.60455 0.0
C533 C 0.31792 0.58704 0.58557 0.0
C534 C 0.33059 0.57778 0.59165 0.0
H535 H 0.3705 0.52057 0.64035 0.0
H536 H 0.34645 0.52919 0.62588 0.0
H537 H 0.37266 0.57287 0.57946 0.0
H538 H 0.32474 0.63315 0.57034 0.0
H539 H 0.34522 0.61653 0.57773 0.0
C540 C 0.84812 0.41124 0.78208 0.0
C541 C 0.86095 0.40296 0.7868 0.0
C542 C 0.82789 0.39834 0.7751 0.0
C543 C 0.79173 0.34536 0.75619 0.0
H544 H 0.74823 0.35588 0.77386 0.0
C545 C 0.7039 0.29686 0.73367 0.0
C546 C 0.68835 0.292 0.74657 0.0
C547 C 0.72534 0.31081 0.73737 0.0
C548 C 0.76013 0.35259 0.76889 0.0
H549 H 0.86281 0.37465 0.78698 0.0
H550 H 0.82719 0.35199 0.77549 0.0
H551 H 0.78495 0.37914 0.78218 0.0
H552 H 0.68302 0.2976 0.77351 0.0
H553 H 0.7203 0.32144 0.78011 0.0
H554 H 0.76662 0.3182 0.74353 0.0
C555 C 0.8329 0.36857 0.77694 0.0
C556 C 0.7813 0.36616 0.77344 0.0
C557 C 0.85326 0.38153 0.78377 0.0
C558 C 0.69463 0.30118 0.76325 0.0
C559 C 0.71602 0.31497 0.76699 0.0
C560 C 0.77047 0.33166 0.75172 0.0
C561 C 0.81979 0.37674 0.77285 0.0
C562 C 0.79739 0.36269 0.76723 0.0
C563 C 0.73165 0.32008 0.75408 0.0
C564 C 0.75439 0.33502 0.75815 0.0
H565 H 0.85332 0.42759 0.78437 0.0
H566 H 0.81842 0.40529 0.77177 0.0
H567 H 0.80372 0.34232 0.75101 0.0
H568 H 0.6995 0.29004 0.72067 0.0
H569 H 0.73692 0.31456 0.72706 0.0
C570 C 0.44887 0.85012 0.96222 0.0
C571 C 0.47064 0.86514 0.96273 0.0
C572 C 0.44194 0.82964 0.9567 0.0
C573 C 0.45657 0.79689 0.93115 0.0
H574 H 0.41611 0.75226 0.96113 0.0
C575 C 0.43167 0.71006 0.91939 0.0
C576 C 0.41054 0.69474 0.92304 0.0
C577 C 0.43937 0.73105 0.92387 0.0
C578 C 0.42714 0.76447 0.95243 0.0
H579 H 0.50219 0.87065 0.95741 0.0
H580 H 0.48999 0.83475 0.94752 0.0
H581 H 0.42869 0.78857 0.96907 0.0
H582 H 0.38076 0.6894 0.93384 0.0
H583 H 0.39391 0.72599 0.94112 0.0
H584 H 0.45471 0.77284 0.91427 0.0
C585 C 0.47835 0.8389 0.95145 0.0
C586 C 0.43441 0.78529 0.95705 0.0
C587 C 0.48532 0.85937 0.9572 0.0
C588 C 0.39718 0.70084 0.93101 0.0
C589 C 0.40479 0.72183 0.93529 0.0
C590 C 0.4491 0.77601 0.92639 0.0
C591 C 0.4566 0.82376 0.95142 0.0
C592 C 0.44915 0.80171 0.94645 0.0
C593 C 0.42604 0.73722 0.93192 0.0
C594 C 0.43423 0.75951 0.93696 0.0
H595 H 0.43719 0.85404 0.96659 0.0
H596 H 0.42507 0.81834 0.95667 0.0
H597 H 0.46782 0.80927 0.92268 0.0
H598 H 0.44235 0.70578 0.91332 0.0
H599 H 0.45589 0.74236 0.92129 0.0
C600 C 0.66704 0.51236 0.12277 0.0
C601 C 0.64477 0.50209 0.12416 0.0
C602 C 0.67683 0.50268 0.11435 0.0
C603 C 0.66902 0.45114 0.10665 0.0
H604 H 0.71516 0.47829 0.07328 0.0
C605 C 0.71056 0.40845 0.07971 0.0
C606 C 0.7326 0.42037 0.07719 0.0
C607 C 0.69889 0.41827 0.08308 0.0
C608 C 0.70248 0.47054 0.08275 0.0
H609 H 0.6154 0.47399 0.11671 0.0
H610 H 0.63263 0.45685 0.10263 0.0
H611 H 0.6967 0.49619 0.0833 0.0
H612 H 0.75973 0.45188 0.07601 0.0
H613 H 0.73962 0.46905 0.08265 0.0
H614 H 0.67529 0.42601 0.10698 0.0
C615 C 0.6424 0.4724 0.10813 0.0
C616 C 0.69184 0.48078 0.08837 0.0
C617 C 0.63257 0.4822 0.1163 0.0
C618 C 0.74272 0.44231 0.07783 0.0
C619 C 0.73112 0.45214 0.08151 0.0
C620 C 0.67986 0.44107 0.10129 0.0
C621 C 0.66462 0.48241 0.10734 0.0
C622 C 0.67508 0.47119 0.10043 0.0
C623 C 0.70904 0.44025 0.08435 0.0
C624 C 0.69684 0.45066 0.08934 0.0
H625 H 0.67703 0.5275 0.12887 0.0
H626 H 0.69401 0.51065 0.11406 0.0
H627 H 0.65635 0.44354 0.11617 0.0
H628 H 0.70232 0.3915 0.07912 0.0
H629 H 0.68188 0.40856 0.08475 0.0
C630 C 0.357 0.85505 0.5202 0.0
C631 C 0.37902 0.8683 0.51772 0.0
C632 C 0.3491 0.83656 0.52977 0.0
C633 C 0.35959 0.79549 0.53782 0.0
H634 H 0.31889 0.77879 0.57578 0.0
C635 C 0.32028 0.71191 0.56517 0.0
C636 C 0.29879 0.70238 0.56982 0.0
C637 C 0.33215 0.73344 0.56203 0.0
C638 C 0.33003 0.78305 0.56506 0.0
H639 H 0.40992 0.8727 0.52437 0.0
H640 H 0.3959 0.83975 0.54021 0.0
H641 H 0.33544 0.81436 0.56428 0.0
H642 H 0.27288 0.7078 0.5752 0.0
H643 H 0.29309 0.74505 0.56882 0.0
H644 H 0.35331 0.76409 0.5375 0.0
C645 C 0.38492 0.84398 0.53479 0.0
C646 C 0.33963 0.8035 0.55862 0.0
C647 C 0.39289 0.86275 0.52556 0.0
C648 C 0.2895 0.71481 0.57174 0.0
C649 C 0.3012 0.73626 0.56818 0.0
C650 C 0.34966 0.77493 0.54396 0.0
C651 C 0.36296 0.83065 0.53679 0.0
C652 C 0.35433 0.80979 0.54485 0.0
C653 C 0.32264 0.74585 0.56299 0.0
C654 C 0.33453 0.7683 0.55754 0.0
H655 H 0.3457 0.85841 0.51415 0.0
H656 H 0.33207 0.82636 0.53097 0.0
H657 H 0.37069 0.79995 0.52702 0.0
H658 H 0.32787 0.70267 0.56377 0.0
H659 H 0.34872 0.74024 0.55858 0.0
C660 C 0.54092 0.38753 0.67973 0.0
C661 C 0.51897 0.37892 0.68207 0.0
C662 C 0.55124 0.37778 0.68686 0.0
C663 C 0.54689 0.33942 0.71968 0.0
H664 H 0.58363 0.33166 0.68765 0.0
C665 C 0.57829 0.28322 0.73404 0.0
C666 C 0.59873 0.28901 0.72808 0.0
C667 C 0.56914 0.29523 0.72971 0.0
C668 C 0.57373 0.33397 0.6969 0.0
H669 H 0.49081 0.35384 0.69439 0.0
H670 H 0.50889 0.33674 0.70684 0.0
H671 H 0.56689 0.3511 0.6782 0.0
H672 H 0.62596 0.31229 0.71352 0.0
H673 H 0.61032 0.33351 0.70636 0.0
H674 H 0.5538 0.32232 0.73842 0.0
C675 C 0.51809 0.35106 0.69949 0.0
C676 C 0.56409 0.3451 0.69145 0.0
C677 C 0.50771 0.36075 0.69225 0.0
C678 C 0.61009 0.30734 0.71816 0.0
C679 C 0.60105 0.31942 0.71397 0.0
C680 C 0.55668 0.3284 0.72521 0.0
C681 C 0.53988 0.35924 0.69656 0.0
C682 C 0.55053 0.34792 0.70274 0.0
C683 C 0.58032 0.31336 0.71943 0.0
C684 C 0.5702 0.32549 0.71386 0.0
H685 H 0.55002 0.40138 0.67181 0.0
H686 H 0.5681 0.38458 0.68454 0.0
H687 H 0.53663 0.34149 0.72872 0.0
H688 H 0.56914 0.26913 0.74168 0.0
H689 H 0.55307 0.28994 0.73399 0.0
C690 C 0.17291 0.5508 0.83862 0.0
C691 C 0.1553 0.53322 0.84603 0.0
C692 C 0.19247 0.56071 0.84718 0.0
C693 C 0.22363 0.55108 0.87953 0.0
H694 H 0.26047 0.6114 0.87717 0.0
C695 C 0.30764 0.59426 0.91032 0.0
C696 C 0.32375 0.60902 0.8994 0.0
C697 C 0.28628 0.58571 0.90578 0.0
C698 C 0.25039 0.59453 0.87789 0.0
H699 H 0.14435 0.51252 0.86845 0.0
H700 H 0.17865 0.52992 0.88349 0.0
H701 H 0.22429 0.59517 0.86597 0.0
H702 H 0.33018 0.62672 0.87538 0.0
H703 H 0.29296 0.61183 0.86746 0.0
H704 H 0.24988 0.55047 0.89124 0.0
C705 C 0.1773 0.53587 0.87093 0.0
C706 C 0.22967 0.58523 0.87146 0.0
C707 C 0.15767 0.52591 0.86233 0.0
C708 C 0.31811 0.61538 0.88406 0.0
C709 C 0.29679 0.60695 0.87958 0.0
C710 C 0.24435 0.56041 0.88602 0.0
C711 C 0.19496 0.55332 0.86338 0.0
C712 C 0.21618 0.56335 0.87188 0.0
C713 C 0.28064 0.59189 0.89031 0.0
C714 C 0.25807 0.5822 0.88495 0.0
H715 H 0.17177 0.55658 0.8259 0.0
H716 H 0.20582 0.57382 0.8408 0.0
H717 H 0.21375 0.53417 0.87988 0.0
H718 H 0.31152 0.58909 0.92225 0.0
H719 H 0.27418 0.57427 0.91437 0.0
C720 C 0.66572 0.16894 0.01672 0.0
C721 C 0.64341 0.15699 0.01574 0.0
C722 C 0.67587 0.18835 0.02529 0.0
C723 C 0.66843 0.2321 0.03483 0.0
H724 H 0.71594 0.25051 0.06667 0.0
C725 C 0.71069 0.31565 0.06341 0.0
C726 C 0.73286 0.32596 0.06509 0.0
C727 C 0.69899 0.29419 0.05977 0.0
C728 C 0.70286 0.24573 0.05764 0.0
H729 H 0.61437 0.15579 0.02401 0.0
H730 H 0.63217 0.19002 0.03841 0.0
H731 H 0.6971 0.21433 0.05605 0.0
H732 H 0.76018 0.32193 0.06455 0.0
H733 H 0.73994 0.28467 0.05748 0.0
H734 H 0.6746 0.26348 0.03558 0.0
C735 C 0.64171 0.18426 0.03245 0.0
C736 C 0.69201 0.22496 0.05166 0.0
C737 C 0.63155 0.16471 0.02411 0.0
C738 C 0.74308 0.31434 0.0634 0.0
C739 C 0.73141 0.29292 0.05946 0.0
C740 C 0.67944 0.25291 0.04057 0.0
C741 C 0.66396 0.1964 0.03288 0.0
C742 C 0.67475 0.21799 0.04014 0.0
C743 C 0.70921 0.28258 0.05739 0.0
C744 C 0.6969 0.26008 0.05199 0.0
H745 H 0.67545 0.16375 0.01023 0.0
H746 H 0.69305 0.19749 0.02528 0.0
H747 H 0.65537 0.22721 0.02573 0.0
H748 H 0.70238 0.3242 0.06482 0.0
H749 H 0.6819 0.28675 0.05872 0.0
C750 C 0.47756 0.64164 0.16761 0.0
C751 C 0.48202 0.62966 0.17913 0.0
C752 C 0.47138 0.65541 0.17404 0.0
C753 C 0.44775 0.66568 0.2129 0.0
H754 H 0.46506 0.71788 0.18884 0.0
C755 C 0.42313 0.72554 0.23538 0.0
C756 C 0.41551 0.73286 0.22194 0.0
C757 C 0.4327 0.71377 0.23136 0.0
C758 C 0.46004 0.70332 0.19566 0.0
H759 H 0.4839 0.62305 0.20648 0.0
H760 H 0.47332 0.64736 0.21778 0.0
H761 H 0.47986 0.69631 0.17987 0.0
H762 H 0.41196 0.73367 0.19379 0.0
H763 H 0.42874 0.71331 0.1868 0.0
H764 H 0.42788 0.67282 0.22867 0.0
C765 C 0.4743 0.64584 0.20374 0.0
C766 C 0.46847 0.69092 0.1905 0.0
C767 C 0.4804 0.63196 0.19728 0.0
C768 C 0.41769 0.72826 0.20444 0.0
C769 C 0.42742 0.71671 0.20042 0.0
C770 C 0.43943 0.6782 0.21815 0.0
C771 C 0.46958 0.65764 0.19218 0.0
C772 C 0.46211 0.67173 0.19881 0.0
C773 C 0.43505 0.70935 0.21382 0.0
C774 C 0.44518 0.69694 0.20935 0.0
H775 H 0.47821 0.63992 0.15355 0.0
H776 H 0.46744 0.66387 0.16473 0.0
H777 H 0.44231 0.65091 0.21948 0.0
H778 H 0.42165 0.72885 0.24899 0.0
H779 H 0.43852 0.70836 0.24193 0.0
C780 C 0.8558 0.50705 0.36071 0.0
C781 C 0.8634 0.49668 0.3501 0.0
C782 C 0.83565 0.49595 0.36832 0.0
C783 C 0.78393 0.44991 0.35999 0.0
H784 H 0.77052 0.45832 0.40745 0.0
C785 C 0.69825 0.40423 0.38552 0.0
C786 C 0.69127 0.41514 0.39607 0.0
C787 C 0.71976 0.41301 0.38157 0.0
C788 C 0.77396 0.45596 0.3941 0.0
H789 H 0.85614 0.46651 0.33958 0.0
H790 H 0.82092 0.44714 0.35286 0.0
H791 H 0.80752 0.47589 0.39786 0.0
H792 H 0.70131 0.44362 0.41102 0.0
H793 H 0.73883 0.45932 0.40366 0.0
H794 H 0.75056 0.43071 0.35587 0.0
C795 C 0.83056 0.46384 0.35526 0.0
C796 C 0.79516 0.46595 0.38866 0.0
C797 C 0.85078 0.47489 0.3478 0.0
C798 C 0.70627 0.43484 0.40289 0.0
C799 C 0.7278 0.44376 0.39874 0.0
C800 C 0.76277 0.44013 0.36535 0.0
C801 C 0.82263 0.47432 0.36531 0.0
C802 C 0.80033 0.46304 0.37153 0.0
C803 C 0.73479 0.43305 0.38786 0.0
C804 C 0.75747 0.44304 0.38246 0.0
H805 H 0.86526 0.52382 0.36279 0.0
H806 H 0.82991 0.50445 0.37593 0.0
H807 H 0.78741 0.44769 0.3466 0.0
H808 H 0.68705 0.38891 0.38023 0.0
H809 H 0.72457 0.40407 0.37348 0.0
C810 C 0.12551 0.61739 0.41841 0.0
C811 C 0.12558 0.60601 0.40364 0.0
C812 C 0.13729 0.61892 0.43329 0.0
C813 C 0.16455 0.59515 0.45591 0.0
H814 H 0.19641 0.65009 0.47759 0.0
C815 C 0.22612 0.61471 0.51155 0.0
C816 C 0.22562 0.62701 0.52542 0.0
C817 C 0.21405 0.61154 0.4964 0.0
C818 C 0.18746 0.63459 0.4718 0.0
H819 H 0.13779 0.58695 0.39305 0.0
H820 H 0.15834 0.58959 0.41908 0.0
H821 H 0.17445 0.64517 0.45208 0.0
H822 H 0.21199 0.64548 0.53439 0.0
H823 H 0.19094 0.63986 0.50817 0.0
H824 H 0.17762 0.58462 0.47575 0.0
C825 C 0.149 0.59717 0.4192 0.0
C826 C 0.17484 0.63177 0.45719 0.0
C827 C 0.1372 0.59564 0.40429 0.0
C828 C 0.21281 0.63601 0.52389 0.0
C829 C 0.20082 0.63289 0.5088 0.0
C830 C 0.1772 0.59799 0.47058 0.0
C831 C 0.14945 0.60912 0.43376 0.0
C832 C 0.16308 0.61198 0.44916 0.0
C833 C 0.20134 0.62069 0.49484 0.0
C834 C 0.18864 0.61771 0.47878 0.0
H835 H 0.11643 0.62525 0.41844 0.0
H836 H 0.13694 0.62787 0.44443 0.0
H837 H 0.15556 0.57968 0.45009 0.0
H838 H 0.23585 0.60757 0.51238 0.0
H839 H 0.21491 0.6022 0.48581 0.0
C840 C 0.5285 0.1097 0.57946 0.0
C841 C 0.51989 0.11828 0.56803 0.0
C842 C 0.53828 0.12 0.59512 0.0
C843 C 0.56853 0.15187 0.62233 0.0
H844 H 0.54178 0.17693 0.64903 0.0
C845 C 0.61037 0.21147 0.67896 0.0
C846 C 0.59794 0.21009 0.69353 0.0
C847 C 0.60098 0.19879 0.6642 0.0
C848 C 0.54937 0.16985 0.64185 0.0
H849 H 0.51562 0.14484 0.56378 0.0
H850 H 0.53247 0.16262 0.59101 0.0
H851 H 0.52499 0.15739 0.62237 0.0
H852 H 0.5661 0.19393 0.70434 0.0
H853 H 0.54978 0.17173 0.67872 0.0
H854 H 0.59288 0.1643 0.64197 0.0
C855 C 0.53129 0.14774 0.58809 0.0
C856 C 0.53986 0.15885 0.62645 0.0
C857 C 0.52159 0.13751 0.57248 0.0
C858 C 0.57607 0.19546 0.69325 0.0
C859 C 0.5667 0.1828 0.67854 0.0
C860 C 0.57811 0.16296 0.63776 0.0
C861 C 0.5396 0.13905 0.59966 0.0
C862 C 0.5494 0.14989 0.61643 0.0
C863 C 0.57898 0.18452 0.66374 0.0
C864 C 0.56866 0.17215 0.64764 0.0
H865 H 0.52734 0.09485 0.57645 0.0
H866 H 0.54442 0.11285 0.60384 0.0
H867 H 0.57633 0.14524 0.61483 0.0
H868 H 0.62727 0.22261 0.67883 0.0
H869 H 0.61084 0.20063 0.65296 0.0
C870 C 0.45125 0.57175 0.74473 0.0
C871 C 0.44176 0.55028 0.74082 0.0
C872 C 0.44744 0.57844 0.76076 0.0
C873 C 0.40895 0.56072 0.79724 0.0
H874 H 0.45381 0.60986 0.82071 0.0
C875 C 0.39761 0.58811 0.86537 0.0
C876 C 0.40527 0.60966 0.86732 0.0
C877 C 0.40262 0.58044 0.85047 0.0
C878 C 0.44109 0.5962 0.81424 0.0
H879 H 0.42118 0.51898 0.75083 0.0
H880 H 0.41467 0.53065 0.77896 0.0
H881 H 0.46171 0.59695 0.79395 0.0
H882 H 0.42438 0.64011 0.85531 0.0
H883 H 0.43318 0.6267 0.82925 0.0
H884 H 0.38836 0.56 0.81758 0.0
C885 C 0.42479 0.54233 0.76949 0.0
C886 C 0.4456 0.5888 0.7989 0.0
C887 C 0.42854 0.53563 0.7534 0.0
C888 C 0.41826 0.62342 0.85417 0.0
C889 C 0.42339 0.61576 0.8393 0.0
C890 C 0.40448 0.56806 0.81264 0.0
C891 C 0.4341 0.56383 0.77331 0.0
C892 C 0.42954 0.57108 0.79012 0.0
C893 C 0.41552 0.59417 0.83725 0.0
C894 C 0.42046 0.58598 0.82122 0.0
H895 H 0.4612 0.58343 0.7352 0.0
H896 H 0.45455 0.5951 0.76311 0.0
H897 H 0.39613 0.54723 0.79069 0.0
H898 H 0.38758 0.57713 0.87531 0.0
H899 H 0.39651 0.56376 0.84934 0.0
C900 C 0.901 0.46162 0.90812 0.0
C901 C 0.90005 0.44547 0.89766 0.0
C902 C 0.8898 0.45703 0.92392 0.0
C903 C 0.86337 0.41556 0.95737 0.0
H904 H 0.83373 0.44509 0.96886 0.0
C905 C 0.82266 0.40635 0.02423 0.0
C906 C 0.80288 0.40519 0.02431 0.0
C907 C 0.83475 0.41147 0.00891 0.0
C908 C 0.84178 0.43659 0.96578 0.0
H909 H 0.88651 0.41185 0.89558 0.0
H910 H 0.86699 0.40385 0.92306 0.0
H911 H 0.85455 0.45359 0.94198 0.0
H912 H 0.78019 0.40839 0.00843 0.0
H913 H 0.80119 0.41708 0.98156 0.0
H914 H 0.85018 0.3982 0.98092 0.0
C915 C 0.87667 0.42009 0.91923 0.0
C916 C 0.85395 0.44165 0.95049 0.0
C917 C 0.88788 0.42468 0.90347 0.0
C918 C 0.7954 0.40921 0.00876 0.0
C919 C 0.80749 0.41432 0.99341 0.0
C920 C 0.8512 0.41049 0.97264 0.0
C921 C 0.87737 0.43619 0.92959 0.0
C922 C 0.86485 0.43117 0.94608 0.0
C923 C 0.82732 0.41551 0.99331 0.0
C924 C 0.84023 0.42092 0.97703 0.0
H925 H 0.91044 0.47781 0.9041 0.0
H926 H 0.89096 0.46983 0.93173 0.0
H927 H 0.87173 0.40732 0.95446 0.0
H928 H 0.82889 0.40341 0.03604 0.0
H929 H 0.85007 0.41255 0.00937 0.0
C930 C 0.48129 0.90552 0.07662 0.0
C931 C 0.46894 0.91269 0.06849 0.0
C932 C 0.47515 0.89516 0.09266 0.0
C933 C 0.43815 0.88312 0.13041 0.0
H934 H 0.44757 0.8365 0.13616 0.0
C935 C 0.39747 0.8185 0.1834 0.0
C936 C 0.41088 0.81342 0.19255 0.0
C937 C 0.40519 0.83217 0.16914 0.0
C938 C 0.44501 0.84959 0.1348 0.0
H939 H 0.44079 0.91523 0.07141 0.0
H940 H 0.42951 0.8962 0.09888 0.0
H941 H 0.45981 0.85741 0.10966 0.0
H942 H 0.44289 0.81884 0.19418 0.0
H943 H 0.45623 0.8424 0.1691 0.0
H944 H 0.42258 0.87454 0.15541 0.0
C945 C 0.44421 0.89896 0.09303 0.0
C946 C 0.45212 0.86169 0.11965 0.0
C947 C 0.45053 0.90963 0.07709 0.0
C948 C 0.43219 0.82247 0.18736 0.0
C949 C 0.43981 0.83587 0.17298 0.0
C950 C 0.43075 0.87078 0.14548 0.0
C951 C 0.45629 0.89132 0.10091 0.0
C952 C 0.44888 0.87868 0.11725 0.0
C953 C 0.42635 0.84072 0.16366 0.0
C954 C 0.43419 0.85396 0.14782 0.0
H955 H 0.49542 0.90731 0.07038 0.0
H956 H 0.48513 0.88993 0.09848 0.0
H957 H 0.43562 0.89623 0.12917 0.0
H958 H 0.38098 0.81177 0.18714 0.0
H959 H 0.39447 0.83558 0.16209 0.0
C960 C 0.59103 0.4936 0.24989 0.0
C961 C 0.60815 0.50095 0.23812 0.0
C962 C 0.59057 0.48282 0.26501 0.0
C963 C 0.613 0.45233 0.28357 0.0
H964 H 0.59522 0.4639 0.32809 0.0
C965 C 0.60479 0.40465 0.34559 0.0
C966 C 0.61343 0.41634 0.36103 0.0
C967 C 0.60231 0.4141 0.33069 0.0
C968 C 0.60028 0.46054 0.31576 0.0
H969 H 0.63817 0.50263 0.23299 0.0
H970 H 0.63757 0.48421 0.25949 0.0
H971 H 0.59516 0.48264 0.30191 0.0
H972 H 0.62582 0.44694 0.37312 0.0
H973 H 0.62169 0.46345 0.34712 0.0
H974 H 0.61867 0.43067 0.29745 0.0
C975 C 0.62439 0.4866 0.25696 0.0
C976 C 0.60005 0.47112 0.30074 0.0
C977 C 0.62487 0.4974 0.24188 0.0
C978 C 0.6191 0.43752 0.36141 0.0
C979 C 0.6166 0.44694 0.34654 0.0
C980 C 0.61319 0.44173 0.29856 0.0
C981 C 0.60718 0.47907 0.26864 0.0
C982 C 0.60662 0.46729 0.2845 0.0
C983 C 0.6084 0.43541 0.33095 0.0
C984 C 0.60701 0.44584 0.31487 0.0
H985 H 0.57799 0.49623 0.24743 0.0
H986 H 0.57703 0.4771 0.2737 0.0
H987 H 0.61789 0.44882 0.27121 0.0
H988 H 0.60022 0.38828 0.34494 0.0
H989 H 0.59569 0.40472 0.31895 0.0
C990 C 0.39114 0.88181 0.39426 0.0
C991 C 0.40929 0.90045 0.39983 0.0
C992 C 0.39127 0.87204 0.37862 0.0
C993 C 0.42425 0.86322 0.34895 0.0
H994 H 0.38005 0.85025 0.31479 0.0
C995 C 0.41852 0.82044 0.28333 0.0
C996 C 0.39803 0.80628 0.27713 0.0
C997 C 0.42136 0.83343 0.29774 0.0
C998 C 0.39234 0.85346 0.32427 0.0
H999 H 0.44195 0.92322 0.3931 0.0
H1000 H 0.44232 0.90545 0.36607 0.0
H1001 H 0.3823 0.87003 0.34112 0.0
H1002 H 0.36445 0.79408 0.28137 0.0
H1003 H 0.36926 0.81589 0.3068 0.0
H1004 H 0.43372 0.84582 0.33261 0.0
C1005 C 0.42798 0.89871 0.37389 0.0
C1006 C 0.3937 0.86495 0.33926 0.0
C1007 C 0.42774 0.90878 0.38941 0.0
C1008 C 0.38046 0.80501 0.28576 0.0
C1009 C 0.38326 0.8177 0.30027 0.0
C1010 C 0.42267 0.85138 0.33406 0.0
C1011 C 0.40966 0.88037 0.36832 0.0
C1012 C 0.40948 0.86971 0.35182 0.0
C1013 C 0.40374 0.83229 0.30635 0.0
C1014 C 0.40647 0.84607 0.32165 0.0
H1015 H 0.37681 0.8745 0.40209 0.0
H1016 H 0.37704 0.85772 0.3747 0.0
H1017 H 0.43648 0.86663 0.35855 0.0
H1018 H 0.43235 0.82178 0.27685 0.0
H1019 H 0.43738 0.84459 0.30191 0.0
C1020 C 0.53538 0.43344 0.56476 0.0
C1021 C 0.51691 0.41551 0.57083 0.0
C1022 C 0.54497 0.43284 0.54907 0.0
C1023 C 0.53534 0.40545 0.50714 0.0
H1024 H 0.595 0.42264 0.50888 0.0
C1025 C 0.57587 0.38697 0.4507 0.0
C1026 C 0.59733 0.40118 0.4471 0.0
C1027 C 0.56606 0.38984 0.46531 0.0
C1028 C 0.57845 0.41815 0.50801 0.0
H1029 H 0.49396 0.38298 0.56479 0.0
H1030 H 0.51033 0.38229 0.53712 0.0
H1031 H 0.57766 0.42606 0.53495 0.0
H1032 H 0.62527 0.42983 0.45566 0.0
H1033 H 0.60799 0.43536 0.48082 0.0
H1034 H 0.53606 0.39791 0.48016 0.0
C1035 C 0.51735 0.39673 0.54464 0.0
C1036 C 0.56851 0.42004 0.523 0.0
C1037 C 0.50793 0.3972 0.56047 0.0
C1038 C 0.60873 0.41853 0.45822 0.0
C1039 C 0.59883 0.4216 0.4727 0.0
C1040 C 0.54534 0.40387 0.49205 0.0
C1041 C 0.53612 0.41445 0.53893 0.0
C1042 C 0.54682 0.41349 0.52275 0.0
C1043 C 0.57739 0.4072 0.47653 0.0
C1044 C 0.56698 0.40994 0.49233 0.0
H1045 H 0.54251 0.44797 0.57214 0.0
H1046 H 0.55931 0.4468 0.54483 0.0
H1047 H 0.51863 0.4005 0.50658 0.0
H1048 H 0.56673 0.37336 0.4424 0.0
H1049 H 0.54968 0.37817 0.46796 0.0
C1050 C 0.1279 0.55101 0.73412 0.0
C1051 C 0.11884 0.52917 0.73539 0.0
C1052 C 0.13963 0.56175 0.71934 0.0
C1053 C 0.1507 0.5538 0.6732 0.0
H1054 H 0.20144 0.60805 0.6801 0.0
C1055 C 0.20012 0.6033 0.61466 0.0
C1056 C 0.22231 0.61414 0.61634 0.0
C1057 C 0.18713 0.59393 0.6292 0.0
C1058 C 0.18743 0.59284 0.67794 0.0
H1059 H 0.11456 0.50149 0.72177 0.0
H1060 H 0.13565 0.52027 0.69636 0.0
H1061 H 0.17947 0.58933 0.70517 0.0
H1062 H 0.24837 0.62391 0.63457 0.0
H1063 H 0.22574 0.60707 0.65994 0.0
H1064 H 0.15915 0.55685 0.64611 0.0
C1065 C 0.13341 0.5291 0.70666 0.0
C1066 C 0.17462 0.58222 0.69231 0.0
C1067 C 0.12153 0.51833 0.72137 0.0
C1068 C 0.23129 0.61573 0.63292 0.0
C1069 C 0.2183 0.60615 0.64747 0.0
C1070 C 0.1636 0.56433 0.65887 0.0
C1071 C 0.14277 0.55098 0.70551 0.0
C1072 C 0.15611 0.56253 0.69014 0.0
C1073 C 0.19603 0.59497 0.64576 0.0
C1074 C 0.18215 0.58398 0.66104 0.0
H1075 H 0.12641 0.55995 0.74473 0.0
H1076 H 0.14631 0.57855 0.71881 0.0
H1077 H 0.13645 0.5388 0.67097 0.0
H1078 H 0.19275 0.60196 0.60205 0.0
H1079 H 0.17009 0.58586 0.62744 0.0
C1080 C 0.59226 0.12984 0.90051 0.0
C1081 C 0.60239 0.11806 0.9015 0.0
C1082 C 0.59245 0.13973 0.88494 0.0
C1083 C 0.62273 0.15964 0.84388 0.0
H1084 H 0.57371 0.16265 0.82896 0.0
C1085 C 0.62122 0.19676 0.77816 0.0
C1086 C 0.61308 0.21032 0.77854 0.0
C1087 C 0.61885 0.18427 0.79261 0.0
C1088 C 0.58757 0.16207 0.83304 0.0
H1089 H 0.62009 0.10688 0.88674 0.0
H1090 H 0.62034 0.12406 0.85949 0.0
H1091 H 0.57135 0.14276 0.8551 0.0
H1092 H 0.59575 0.22119 0.79421 0.0
H1093 H 0.59168 0.19943 0.81951 0.0
H1094 H 0.63899 0.17904 0.8219 0.0
C1095 C 0.61256 0.12595 0.87086 0.0
C1096 C 0.58623 0.15069 0.84801 0.0
C1097 C 0.61241 0.11609 0.88646 0.0
C1098 C 0.60218 0.21087 0.79354 0.0
C1099 C 0.59975 0.19833 0.80798 0.0
C1100 C 0.62405 0.17097 0.82891 0.0
C1101 C 0.60276 0.13805 0.86996 0.0
C1102 C 0.60384 0.14944 0.85366 0.0
C1103 C 0.60823 0.18503 0.80774 0.0
C1104 C 0.60653 0.17242 0.82336 0.0
H1105 H 0.58469 0.13193 0.91194 0.0
H1106 H 0.58503 0.14919 0.88479 0.0
H1107 H 0.6367 0.15931 0.84803 0.0
H1108 H 0.62964 0.19594 0.76676 0.0
H1109 H 0.62531 0.17398 0.79192 0.0
C1110 C 0.47893 0.58804 0.06717 0.0
C1111 C 0.46705 0.56898 0.07614 0.0
C1112 C 0.47182 0.59137 0.05124 0.0
C1113 C 0.42322 0.57532 0.0267 0.0
H1114 H 0.46149 0.60268 0.98775 0.0
C1115 C 0.39442 0.59227 0.96176 0.0
C1116 C 0.40804 0.61158 0.95376 0.0
C1117 C 0.40145 0.58549 0.9759 0.0
C1118 C 0.45063 0.59523 0.99857 0.0
H1119 H 0.43864 0.5382 0.07495 0.0
H1120 H 0.426 0.54425 0.04725 0.0
H1121 H 0.47428 0.59348 0.01373 0.0
H1122 H 0.43963 0.639 0.95429 0.0
H1123 H 0.45174 0.6275 0.97922 0.0
H1124 H 0.39975 0.57764 0.01187 0.0
C1125 C 0.4408 0.55661 0.05269 0.0
C1126 C 0.45795 0.58988 0.0134 0.0
C1127 C 0.44803 0.55318 0.06857 0.0
C1128 C 0.4288 0.62399 0.96016 0.0
C1129 C 0.43578 0.6173 0.97437 0.0
C1130 C 0.41593 0.58083 0.01193 0.0
C1131 C 0.45255 0.5758 0.04395 0.0
C1132 C 0.44438 0.58007 0.02769 0.0
C1133 C 0.42221 0.59795 0.98242 0.0
C1134 C 0.42962 0.59107 0.99775 0.0
H1135 H 0.49342 0.60075 0.07273 0.0
H1136 H 0.48105 0.60643 0.04493 0.0
H1137 H 0.41248 0.568 0.03762 0.0
H1138 H 0.37835 0.58231 0.95703 0.0
H1139 H 0.39066 0.57038 0.98162 0.0
C1140 C 0.88294 0.47481 0.24109 0.0
C1141 C 0.90078 0.49512 0.24019 0.0
C1142 C 0.87186 0.46441 0.22591 0.0
C1143 C 0.86221 0.47509 0.1808 0.0
H1144 H 0.839 0.41546 0.17386 0.0
C1145 C 0.82384 0.4344 0.11563 0.0
C1146 C 0.80479 0.41504 0.11645 0.0
C1147 C 0.83588 0.4435 0.1307 0.0
C1148 C 0.84522 0.43208 0.17571 0.0
H1149 H 0.92145 0.52009 0.22254 0.0
H1150 H 0.90219 0.50191 0.19602 0.0
H1151 H 0.85991 0.4326 0.2001 0.0
H1152 H 0.78356 0.38983 0.13366 0.0
H1153 H 0.80462 0.40583 0.16015 0.0
H1154 H 0.84753 0.47461 0.15649 0.0
C1155 C 0.89652 0.49418 0.20852 0.0
C1156 C 0.8572 0.44191 0.19072 0.0
C1157 C 0.90758 0.50459 0.22371 0.0
C1158 C 0.79819 0.40477 0.13264 0.0
C1159 C 0.81029 0.41388 0.14777 0.0
C1160 C 0.85028 0.46529 0.16582 0.0
C1161 C 0.87837 0.47408 0.20946 0.0
C1162 C 0.86587 0.46355 0.19342 0.0
C1163 C 0.82917 0.43346 0.14698 0.0
C1164 C 0.84169 0.44369 0.16306 0.0
H1165 H 0.87711 0.4672 0.25362 0.0
H1166 H 0.85779 0.44906 0.22713 0.0
H1167 H 0.86827 0.49168 0.18264 0.0
H1168 H 0.82942 0.44266 0.10332 0.0
H1169 H 0.85052 0.45841 0.12959 0.0
loop_
_geom_bond_atom_site_label_1
_geom_bond_atom_site_label_2
_geom_bond_distance
_geom_bond_site_symmetry_2
_ccdc_geom_bond_type
H0 C27 0.929 . S
N1 C26 1.433 . S
N1 C32 1.435 . S
N1 C38 1.423 . S
H2 C28 0.930 . S
H3 C31 0.931 . S
H4 C30 0.929 . S
H5 C33 0.930 . S
H6 C34 0.932 . S
H7 C37 0.929 . S
H8 C36 0.931 . S
H9 C39 0.929 . S
H10 C43 0.932 . S
H11 C40 0.931 . S
H12 C42 0.929 . S
H13 C45 0.929 . S
H14 C46 0.930 . S
H15 C48 0.929 . S
H16 C49 0.931 . S
H17 C51 0.930 . S
H18 C52 0.932 . S
H19 C54 0.931 . S
H20 C55 0.929 . S
H21 C57 0.929 . S
H22 C58 0.931 . S
H23 C60 0.929 . S
N24 C44 1.433 . S
N24 C50 1.435 . S
N24 C56 1.423 . S
H25 C61 0.932 . S
C26 N1 1.433 . S
C26 C27 1.363 . S
C26 C31 1.370 . S
C27 H0 0.929 . S
C27 C26 1.363 . S
C27 C28 1.385 . S
C28 H2 0.930 . S
C28 C27 1.385 . S
C28 C29 1.357 . S
C29 C28 1.357 . S
C29 C30 1.406 . S
C30 H4 0.929 . S
C30 C29 1.406 . S
C30 C31 1.391 . S
C31 H3 0.931 . S
C31 C26 1.370 . S
C31 C30 1.391 . S
C32 N1 1.435 . S
C32 C33 1.358 . S
C32 C37 1.371 . S
C33 H5 0.930 . S
C33 C32 1.358 . S
C33 C34 1.405 . S
C34 H6 0.932 . S
C34 C33 1.405 . S
C34 C35 1.383 . S
C35 C34 1.383 . S
C35 C36 1.393 . S
C36 H8 0.931 . S
C36 C35 1.393 . S
C36 C37 1.382 . S
C37 H7 0.929 . S
C37 C32 1.371 . S
C37 C36 1.382 . S
C38 N1 1.423 . S
C38 C39 1.362 . S
C38 C43 1.388 . S
C39 H9 0.929 . S
C39 C38 1.362 . S
C39 C40 1.376 . S
C40 H11 0.931 . S
C40 C39 1.376 . S
C40 C41 1.396 . S
C41 C40 1.396 . S
C41 C42 1.348 . S
C41 C59 1.472 1_455 S
C42 H12 0.929 . S
C42 C41 1.348 . S
C42 C43 1.443 . S
C43 H10 0.932 . S
C43 C38 1.388 . S
C43 C42 1.443 . S
C44 N24 1.433 . S
C44 C45 1.363 . S
C44 C49 1.370 . S
C45 H13 0.929 . S
C45 C44 1.363 . S
C45 C46 1.385 . S
C46 H14 0.930 . S
C46 C45 1.385 . S
C46 C47 1.357 . S
C47 C46 1.357 . S
C47 C48 1.406 . S
C48 H15 0.929 . S
C48 C47 1.406 . S
C48 C49 1.391 . S
C49 H16 0.931 . S
C49 C44 1.370 . S
C49 C48 1.391 . S
C50 N24 1.435 . S
C50 C51 1.358 . S
C50 C55 1.371 . S
C51 H17 0.930 . S
C51 C50 1.358 . S
C51 C52 1.405 . S
C52 H18 0.932 . S
C52 C51 1.405 . S
C52 C53 1.383 . S
C53 C52 1.383 . S
C53 C54 1.393 . S
C54 H19 0.931 . S
C54 C53 1.393 . S
C54 C55 1.382 . S
C55 H20 0.929 . S
C55 C50 1.371 . S
C55 C54 1.382 . S
C56 N24 1.423 . S
C56 C57 1.362 . S
C56 C61 1.388 . S
C57 H21 0.929 . S
C57 C56 1.362 . S
C57 C58 1.376 . S
C58 H22 0.931 . S
C58 C57 1.376 . S
C58 C59 1.396 . S
C59 C41 1.472 1_655 S
C59 C58 1.396 . S
C59 C60 1.348 . S
C60 H23 0.929 . S
C60 C59 1.348 . S
C60 C61 1.443 . S
C61 H25 0.932 . S
C61 C56 1.388 . S
C61 C60 1.443 . S
H62 C89 0.929 . S
N63 C88 1.433 . S
N63 C94 1.435 . S
N63 C100 1.423 . S
H64 C90 0.930 . S
H65 C93 0.931 . S
H66 C92 0.929 . S
H67 C95 0.930 . S
H68 C96 0.932 . S
H69 C99 0.929 . S
H70 C98 0.931 . S
H71 C101 0.929 . S
H72 C105 0.932 . S
H73 C102 0.931 . S
H74 C104 0.929 1_545 S
H75 C107 0.929 . S
H76 C108 0.930 . S
H77 C110 0.929 . S
H78 C111 0.931 . S
H79 C113 0.930 . S
H80 C114 0.932 . S
H81 C116 0.931 . S
H82 C117 0.929 . S
H83 C119 0.929 . S
H84 C120 0.931 . S
H85 C122 0.929 . S
N86 C106 1.433 . S
N86 C112 1.435 . S
N86 C118 1.423 . S
H87 C123 0.932 . S
C88 N63 1.433 . S
C88 C89 1.363 . S
C88 C93 1.370 . S
C89 H62 0.929 . S
C89 C88 1.363 . S
C89 C90 1.385 . S
C90 H64 0.930 . S
C90 C89 1.385 . S
C90 C91 1.357 . S
C91 C90 1.357 . S
C91 C92 1.406 . S
C92 H66 0.929 . S
C92 C91 1.406 . S
C92 C93 1.391 . S
C93 H65 0.931 . S
C93 C88 1.370 . S
C93 C92 1.391 . S
C94 N63 1.435 . S
C94 C95 1.358 . S
C94 C99 1.371 . S
C95 H67 0.930 . S
C95 C94 1.358 . S
C95 C96 1.405 . S
C96 H68 0.932 . S
C96 C95 1.405 . S
C96 C97 1.383 . S
C97 C96 1.383 . S
C97 C98 1.393 . S
C98 H70 0.931 . S
C98 C97 1.393 . S
C98 C99 1.382 . S
C99 H69 0.929 . S
C99 C94 1.371 . S
C99 C98 1.382 . S
C100 N63 1.423 . S
C100 C101 1.362 . S
C100 C105 1.388 . S
C101 H71 0.929 . S
C101 C100 1.362 . S
C101 C102 1.376 . S
C102 H73 0.931 . S
C102 C101 1.376 . S
C102 C103 1.396 1_565 S
C103 C102 1.396 1_545 S
C103 C104 1.348 1_545 S
C103 C121 1.472 . S
C104 H74 0.929 1_565 S
C104 C103 1.348 1_565 S
C104 C105 1.443 . S
C105 H72 0.932 . S
C105 C100 1.388 . S
C105 C104 1.443 . S
C106 N86 1.433 . S
C106 C107 1.363 . S
C106 C111 1.370 . S
C107 H75 0.929 . S
C107 C106 1.363 . S
C107 C108 1.385 . S
C108 H76 0.930 . S
C108 C107 1.385 . S
C108 C109 1.357 . S
C109 C108 1.357 . S
C109 C110 1.406 . S
C110 H77 0.929 . S
C110 C109 1.406 . S
C110 C111 1.391 . S
C111 H78 0.931 . S
C111 C106 1.370 . S
C111 C110 1.391 . S
C112 N86 1.435 . S
C112 C113 1.358 . S
C112 C117 1.371 . S
C113 H79 0.930 . S
C113 C112 1.358 . S
C113 C114 1.405 . S
C114 H80 0.932 . S
C114 C113 1.405 . S
C114 C115 1.383 . S
C115 C114 1.383 . S
C115 C116 1.393 . S
C116 H81 0.931 . S
C116 C115 1.393 . S
C116 C117 1.382 . S
C117 H82 0.929 . S
C117 C112 1.371 . S
C117 C116 1.382 . S
C118 N86 1.423 . S
C118 C119 1.362 . S
C118 C123 1.388 . S
C119 H83 0.929 . S
C119 C118 1.362 . S
C119 C120 1.376 . S
C120 H84 0.931 . S
C120 C119 1.376 . S
C120 C121 1.396 . S
C121 C103 1.472 . S
C121 C120 1.396 . S
C121 C122 1.348 . S
C122 H85 0.929 . S
C122 C121 1.348 . S
C122 C123 1.443 . S
C123 H87 0.932 . S
C123 C118 1.388 . S
C123 C122 1.443 . S
H124 C151 0.929 . S
N125 C150 1.433 . S
N125 C156 1.435 . S
N125 C162 1.423 . S
H126 C152 0.930 . S
H127 C155 0.931 . S
H128 C154 0.929 . S
H129 C157 0.930 . S
H130 C158 0.932 . S
H131 C161 0.929 . S
H132 C160 0.931 . S
H133 C163 0.929 . S
H134 C167 0.932 . S
H135 C164 0.931 . S
H136 C166 0.929 . S
H137 C169 0.929 . S
H138 C170 0.930 . S
H139 C172 0.929 . S
H140 C173 0.931 . S
H141 C175 0.930 . S
H142 C176 0.932 . S
H143 C178 0.931 . S
H144 C179 0.929 . S
H145 C181 0.929 . S
H146 C182 0.931 . S
H147 C184 0.929 . S
N148 C168 1.433 . S
N148 C174 1.435 . S
N148 C180 1.423 . S
H149 C185 0.932 . S
C150 N125 1.433 . S
C150 C151 1.363 . S
C150 C155 1.370 . S
C151 H124 0.929 . S
C151 C150 1.363 . S
C151 C152 1.385 . S
C152 H126 0.930 . S
C152 C151 1.385 . S
C152 C153 1.357 . S
C153 C152 1.357 . S
C153 C154 1.406 . S
C154 H128 0.929 . S
C154 C153 1.406 . S
C154 C155 1.391 . S
C155 H127 0.931 . S
C155 C150 1.370 . S
C155 C154 1.391 . S
C156 N125 1.435 . S
C156 C157 1.358 . S
C156 C161 1.371 . S
C157 H129 0.930 . S
C157 C156 1.358 . S
C157 C158 1.405 . S
C158 H130 0.932 . S
C158 C157 1.405 . S
C158 C159 1.383 . S
C159 C158 1.383 . S
C159 C160 1.393 . S
C160 H132 0.931 . S
C160 C159 1.393 . S
C160 C161 1.382 . S
C161 H131 0.929 . S
C161 C156 1.371 . S
C161 C160 1.382 . S
C162 N125 1.423 . S
C162 C163 1.362 . S
C162 C167 1.388 . S
C163 H133 0.929 . S
C163 C162 1.362 . S
C163 C164 1.376 . S
C164 H135 0.931 . S
C164 C163 1.376 . S
C164 C165 1.396 . S
C165 C164 1.396 . S
C165 C166 1.348 . S
C165 C183 1.472 . S
C166 H136 0.929 . S
C166 C165 1.348 . S
C166 C167 1.443 . S
C167 H134 0.932 . S
C167 C162 1.388 . S
C167 C166 1.443 . S
C168 N148 1.433 . S
C168 C169 1.363 . S
C168 C173 1.370 . S
C169 H137 0.929 . S
C169 C168 1.363 . S
C169 C170 1.385 . S
C170 H138 0.930 . S
C170 C169 1.385 . S
C170 C171 1.357 . S
C171 C170 1.357 . S
C171 C172 1.406 . S
C172 H139 0.929 . S
C172 C171 1.406 . S
C172 C173 1.391 . S
C173 H140 0.931 . S
C173 C168 1.370 . S
C173 C172 1.391 . S
C174 N148 1.435 . S
C174 C175 1.358 . S
C174 C179 1.371 . S
C175 H141 0.930 . S
C175 C174 1.358 . S
C175 C176 1.405 . S
C176 H142 0.932 . S
C176 C175 1.405 . S
C176 C177 1.383 . S
C177 C176 1.383 . S
C177 C178 1.393 . S
C178 H143 0.931 . S
C178 C177 1.393 . S
C178 C179 1.382 . S
C179 H144 0.929 . S
C179 C174 1.371 . S
C179 C178 1.382 . S
C180 N148 1.423 . S
C180 C181 1.362 . S
C180 C185 1.388 . S
C181 H145 0.929 . S
C181 C180 1.362 . S
C181 C182 1.376 . S
C182 H146 0.931 . S
C182 C181 1.376 . S
C182 C183 1.396 . S
C183 C165 1.472 . S
C183 C182 1.396 . S
C183 C184 1.348 . S
C184 H147 0.929 . S
C184 C183 1.348 . S
C184 C185 1.443 . S
C185 H149 0.932 . S
C185 C180 1.388 . S
C185 C184 1.443 . S
H186 C213 0.929 . S
N187 C212 1.433 . S
N187 C218 1.435 . S
N187 C224 1.423 . S
H188 C214 0.930 . S
H189 C217 0.931 . S
H190 C216 0.929 . S
H191 C219 0.930 . S
H192 C220 0.932 . S
H193 C223 0.929 . S
H194 C222 0.931 . S
H195 C225 0.929 . S
H196 C229 0.932 . S
H197 C226 0.931 . S
H198 C228 0.929 . S
H199 C231 0.929 . S
H200 C232 0.930 . S
H201 C234 0.929 . S
H202 C235 0.931 . S
H203 C237 0.930 . S
H204 C238 0.932 . S
H205 C240 0.931 . S
H206 C241 0.929 . S
H207 C243 0.929 . S
H208 C244 0.931 . S
H209 C246 0.929 . S
N210 C230 1.433 . S
N210 C236 1.435 . S
N210 C242 1.423 . S
H211 C247 0.932 . S
C212 N187 1.433 . S
C212 C213 1.363 . S
C212 C217 1.370 . S
C213 H186 0.929 . S
C213 C212 1.363 . S
C213 C214 1.385 . S
C214 H188 0.930 . S
C214 C213 1.385 . S
C214 C215 1.357 . S
C215 C214 1.357 . S
C215 C216 1.406 . S
C216 H190 0.929 . S
C216 C215 1.406 . S
C216 C217 1.391 . S
C217 H189 0.931 . S
C217 C212 1.370 . S
C217 C216 1.391 . S
C218 N187 1.435 . S
C218 C219 1.358 . S
C218 C223 1.371 . S
C219 H191 0.930 . S
C219 C218 1.358 . S
C219 C220 1.405 . S
C220 H192 0.932 . S
C220 C219 1.405 . S
C220 C221 1.383 . S
C221 C220 1.383 . S
C221 C222 1.393 . S
C222 H194 0.931 . S
C222 C221 1.393 . S
C222 C223 1.382 . S
C223 H193 0.929 . S
C223 C218 1.371 . S
C223 C222 1.382 . S
C224 N187 1.423 . S
C224 C225 1.362 . S
C224 C229 1.388 . S
C225 H195 0.929 . S
C225 C224 1.362 . S
C225 C226 1.376 . S
C226 H197 0.931 . S
C226 C225 1.376 . S
C226 C227 1.396 . S
C227 C226 1.396 . S
C227 C228 1.348 . S
C227 C245 1.472 1_455 S
C228 H198 0.929 . S
C228 C227 1.348 . S
C228 C229 1.443 . S
C229 H196 0.932 . S
C229 C224 1.388 . S
C229 C228 1.443 . S
C230 N210 1.433 . S
C230 C231 1.363 . S
C230 C235 1.370 . S
C231 H199 0.929 . S
C231 C230 1.363 . S
C231 C232 1.385 . S
C232 H200 0.930 . S
C232 C231 1.385 . S
C232 C233 1.357 . S
C233 C232 1.357 . S
C233 C234 1.406 . S
C234 H201 0.929 . S
C234 C233 1.406 . S
C234 C235 1.391 . S
C235 H202 0.931 . S
C235 C230 1.370 . S
C235 C234 1.391 . S
C236 N210 1.435 . S
C236 C237 1.358 . S
C236 C241 1.371 . S
C237 H203 0.930 . S
C237 C236 1.358 . S
C237 C238 1.405 . S
C238 H204 0.932 . S
C238 C237 1.405 . S
C238 C239 1.383 . S
C239 C238 1.383 . S
C239 C240 1.393 . S
C240 H205 0.931 . S
C240 C239 1.393 . S
C240 C241 1.382 . S
C241 H206 0.929 . S
C241 C236 1.371 . S
C241 C240 1.382 . S
C242 N210 1.423 . S
C242 C243 1.362 . S
C242 C247 1.388 . S
C243 H207 0.929 . S
C243 C242 1.362 . S
C243 C244 1.376 . S
C244 H208 0.931 . S
C244 C243 1.376 . S
C244 C245 1.396 . S
C245 C227 1.472 1_655 S
C245 C244 1.396 . S
C245 C246 1.348 . S
C246 H209 0.929 . S
C246 C245 1.348 . S
C246 C247 1.443 . S
C247 H211 0.932 . S
C247 C242 1.388 . S
C247 C246 1.443 . S
H248 C275 0.929 . S
N249 C274 1.433 . S
N249 C280 1.435 . S
N249 C286 1.423 . S
H250 C276 0.930 . S
H251 C279 0.931 . S
H252 C278 0.929 . S
H253 C281 0.930 . S
H254 C282 0.932 . S
H255 C285 0.929 . S
H256 C284 0.931 . S
H257 C287 0.929 . S
H258 C291 0.932 . S
H259 C288 0.931 . S
H260 C290 0.929 . S
H261 C293 0.929 . S
H262 C294 0.930 . S
H263 C296 0.929 . S
H264 C297 0.931 . S
H265 C299 0.930 . S
H266 C300 0.932 . S
H267 C302 0.931 . S
H268 C303 0.929 . S
H269 C305 0.929 . S
H270 C306 0.926 1_544 S
H271 C308 0.929 . S
N272 C292 1.433 . S
N272 C298 1.435 1_554 S
N272 C304 1.409 1_554 S
H273 C309 0.932 . S
C274 N249 1.433 . S
C274 C275 1.363 . S
C274 C279 1.370 . S
C275 H248 0.929 . S
C275 C274 1.363 . S
C275 C276 1.385 . S
C276 H250 0.930 . S
C276 C275 1.385 . S
C276 C277 1.357 1_556 S
C277 C276 1.357 1_554 S
C277 C278 1.406 . S
C278 H252 0.929 . S
C278 C277 1.406 . S
C278 C279 1.391 1_554 S
C279 H251 0.931 . S
C279 C274 1.370 . S
C279 C278 1.391 1_556 S
C280 N249 1.435 . S
C280 C281 1.358 . S
C280 C285 1.371 . S
C281 H253 0.930 . S
C281 C280 1.358 . S
C281 C282 1.405 . S
C282 H254 0.932 . S
C282 C281 1.405 . S
C282 C283 1.383 . S
C283 C282 1.383 . S
C283 C284 1.393 . S
C284 H256 0.931 . S
C284 C283 1.393 . S
C284 C285 1.382 . S
C285 H255 0.929 . S
C285 C280 1.371 . S
C285 C284 1.382 . S
C286 N249 1.423 . S
C286 C287 1.362 . S
C286 C291 1.388 . S
C287 H257 0.929 . S
C287 C286 1.362 . S
C287 C288 1.376 . S
C288 H259 0.931 . S
C288 C287 1.376 . S
C288 C289 1.396 . S
C289 C288 1.396 . S
C289 C290 1.348 . S
C289 C307 1.472 1_545 S
C290 H260 0.929 . S
C290 C289 1.348 . S
C290 C291 1.443 . S
C291 H258 0.932 . S
C291 C286 1.388 . S
C291 C290 1.443 . S
C292 N272 1.433 . S
C292 C293 1.363 . S
C292 C297 1.370 . S
C293 H261 0.929 . S
C293 C292 1.363 . S
C293 C294 1.385 . S
C294 H262 0.930 . S
C294 C293 1.385 . S
C294 C295 1.357 . S
C295 C294 1.357 . S
C295 C296 1.406 . S
C296 H263 0.929 . S
C296 C295 1.406 . S
C296 C297 1.391 . S
C297 H264 0.931 . S
C297 C292 1.370 . S
C297 C296 1.391 . S
C298 N272 1.435 1_556 S
C298 C299 1.358 1_556 S
C298 C303 1.371 . S
C299 H265 0.930 . S
C299 C298 1.358 1_554 S
C299 C300 1.405 1_554 S
C300 H266 0.932 . S
C300 C299 1.405 1_556 S
C300 C301 1.383 . S
C301 C300 1.383 . S
C301 C302 1.393 . S
C302 H267 0.931 . S
C302 C301 1.393 . S
C302 C303 1.382 . S
C303 H268 0.929 . S
C303 C298 1.371 . S
C303 C302 1.382 . S
C304 N272 1.409 1_556 S
C304 C305 1.348 1_556 S
C304 C309 1.418 . S
C305 H269 0.929 . S
C305 C304 1.348 1_554 S
C305 C306 1.371 1_554 S
C306 H270 0.926 1_566 S
C306 C305 1.371 1_556 S
C306 C307 1.406 . S
C307 C289 1.472 1_565 S
C307 C306 1.406 . S
C307 C308 1.348 . S
C308 H271 0.929 . S
C308 C307 1.348 . S
C308 C309 1.443 . S
C309 H273 0.932 . S
C309 C304 1.418 . S
C309 C308 1.443 . S
H310 C337 0.929 . S
N311 C336 1.433 . S
N311 C342 1.435 . S
N311 C348 1.423 . S
H312 C338 0.930 . S
H313 C341 0.931 . S
H314 C340 0.929 . S
H315 C343 0.930 . S
H316 C344 0.932 . S
H317 C347 0.929 . S
H318 C346 0.931 . S
H319 C349 0.929 . S
H320 C353 0.932 . S
H321 C350 0.931 . S
H322 C352 0.929 . S
H323 C355 0.929 . S
H324 C356 0.930 . S
H325 C358 0.929 . S
H326 C359 0.931 . S
H327 C361 0.930 . S
H328 C362 0.932 . S
H329 C364 0.931 . S
H330 C365 0.929 . S
H331 C367 0.929 . S
H332 C368 0.931 . S
H333 C370 0.929 . S
N334 C354 1.433 . S
N334 C360 1.435 . S
N334 C366 1.423 . S
H335 C371 0.932 . S
C336 N311 1.433 . S
C336 C337 1.363 . S
C336 C341 1.370 . S
C337 H310 0.929 . S
C337 C336 1.363 . S
C337 C338 1.385 . S
C338 H312 0.930 . S
C338 C337 1.385 . S
C338 C339 1.357 . S
C339 C338 1.357 . S
C339 C340 1.406 . S
C340 H314 0.929 . S
C340 C339 1.406 . S
C340 C341 1.391 . S
C341 H313 0.931 . S
C341 C336 1.370 . S
C341 C340 1.391 . S
C342 N311 1.435 . S
C342 C343 1.358 . S
C342 C347 1.371 . S
C343 H315 0.930 . S
C343 C342 1.358 . S
C343 C344 1.405 . S
C344 H316 0.932 . S
C344 C343 1.405 . S
C344 C345 1.383 . S
C345 C344 1.383 . S
C345 C346 1.393 . S
C346 H318 0.931 . S
C346 C345 1.393 . S
C346 C347 1.382 . S
C347 H317 0.929 . S
C347 C342 1.371 . S
C347 C346 1.382 . S
C348 N311 1.423 . S
C348 C349 1.362 . S
C348 C353 1.388 . S
C349 H319 0.929 . S
C349 C348 1.362 . S
C349 C350 1.376 . S
C350 H321 0.931 . S
C350 C349 1.376 . S
C350 C351 1.396 . S
C351 C350 1.396 . S
C351 C352 1.348 . S
C351 C369 1.472 . S
C352 H322 0.929 . S
C352 C351 1.348 . S
C352 C353 1.443 . S
C353 H320 0.932 . S
C353 C348 1.388 . S
C353 C352 1.443 . S
C354 N334 1.433 . S
C354 C355 1.363 . S
C354 C359 1.370 . S
C355 H323 0.929 . S
C355 C354 1.363 . S
C355 C356 1.385 . S
C356 H324 0.930 . S
C356 C355 1.385 . S
C356 C357 1.357 . S
C357 C356 1.357 . S
C357 C358 1.406 . S
C358 H325 0.929 . S
C358 C357 1.406 . S
C358 C359 1.391 . S
C359 H326 0.931 . S
C359 C354 1.370 . S
C359 C358 1.391 . S
C360 N334 1.435 . S
C360 C361 1.358 . S
C360 C365 1.371 . S
C361 H327 0.930 . S
C361 C360 1.358 . S
C361 C362 1.405 . S
C362 H328 0.932 . S
C362 C361 1.405 . S
C362 C363 1.383 . S
C363 C362 1.383 . S
C363 C364 1.393 . S
C364 H329 0.931 . S
C364 C363 1.393 . S
C364 C365 1.382 . S
C365 H330 0.929 . S
C365 C360 1.371 . S
C365 C364 1.382 . S
C366 N334 1.423 . S
C366 C367 1.362 . S
C366 C371 1.388 . S
C367 H331 0.929 . S
C367 C366 1.362 . S
C367 C368 1.376 . S
C368 H332 0.931 . S
C368 C367 1.376 . S
C368 C369 1.396 . S
C369 C351 1.472 . S
C369 C368 1.396 . S
C369 C370 1.348 . S
C370 H333 0.929 . S
C370 C369 1.348 . S
C370 C371 1.443 . S
C371 H335 0.932 . S
C371 C366 1.388 . S
C371 C370 1.443 . S
In372 O373 2.294 . S
In372 O374 2.326 . S
In372 O378 2.266 . S
In372 O379 2.326 . S
In372 O380 2.266 . S
In372 O381 2.326 . S
In372 O383 2.294 . S
In372 O384 2.326 . S
O373 In372 2.294 . S
O373 C382 1.240 . S
O374 In372 2.326 . S
O374 C382 1.252 . S
C375 O378 1.252 . S
C375 O379 1.260 . S
C376 O383 1.240 . S
C376 O384 1.252 . S
C377 O380 1.252 . S
C377 O381 1.260 . S
O378 In372 2.266 . S
O378 C375 1.252 . S
O379 In372 2.326 . S
O379 C375 1.260 . S
O380 In372 2.266 . S
O380 C377 1.252 . S
O381 In372 2.326 . S
O381 C377 1.260 . S
C382 O373 1.240 . S
C382 O374 1.252 . S
O383 In372 2.294 . S
O383 C376 1.240 . S
O384 In372 2.326 . S
O384 C376 1.252 . S
In385 O386 2.294 . S
In385 O387 2.326 . S
In385 O391 2.266 . S
In385 O392 2.326 . S
In385 O393 2.266 . S
In385 O394 2.326 . S
In385 O396 2.294 . S
In385 O397 2.326 . S
O386 In385 2.294 . S
O386 C395 1.240 . S
O387 In385 2.326 . S
O387 C395 1.252 . S
C388 O391 1.252 . S
C388 O392 1.260 . S
C389 O396 1.240 . S
C389 O397 1.252 . S
C390 O393 1.252 . S
C390 O394 1.260 . S
O391 In385 2.266 . S
O391 C388 1.252 . S
O392 In385 2.326 . S
O392 C388 1.260 . S
O393 In385 2.266 . S
O393 C390 1.252 . S
O394 In385 2.326 . S
O394 C390 1.260 . S
C395 O386 1.240 . S
C395 O387 1.252 . S
O396 In385 2.294 . S
O396 C389 1.240 . S
O397 In385 2.326 . S
O397 C389 1.252 . S
In398 O399 2.294 . S
In398 O400 2.326 . S
In398 O404 2.266 . S
In398 O405 2.326 . S
In398 O406 2.266 . S
In398 O407 2.326 . S
In398 O409 2.294 . S
In398 O410 2.326 . S
O399 In398 2.294 . S
O399 C408 1.240 . S
O400 In398 2.326 . S
O400 C408 1.252 . S
C401 O404 1.252 . S
C401 O405 1.260 . S
C402 O409 1.240 . S
C402 O410 1.252 . S
C403 O406 1.252 . S
C403 O407 1.260 . S
O404 In398 2.266 . S
O404 C401 1.252 . S
O405 In398 2.326 . S
O405 C401 1.260 . S
O406 In398 2.266 . S
O406 C403 1.252 . S
O407 In398 2.326 . S
O407 C403 1.260 . S
C408 O399 1.240 . S
C408 O400 1.252 . S
O409 In398 2.294 . S
O409 C402 1.240 . S
O410 In398 2.326 . S
O410 C402 1.252 . S
In411 O412 2.294 . S
In411 O413 2.326 . S
In411 O417 2.266 . S
In411 O418 2.326 . S
In411 O419 2.266 . S
In411 O420 2.326 . S
In411 O422 2.294 . S
In411 O423 2.326 . S
O412 In411 2.294 . S
O412 C421 1.240 . S
O413 In411 2.326 . S
O413 C421 1.252 . S
C414 O417 1.252 . S
C414 O418 1.260 . S
C415 O422 1.240 . S
C415 O423 1.252 . S
C416 O419 1.252 . S
C416 O420 1.260 . S
O417 In411 2.266 . S
O417 C414 1.252 . S
O418 In411 2.326 . S
O418 C414 1.260 . S
O419 In411 2.266 . S
O419 C416 1.252 . S
O420 In411 2.326 . S
O420 C416 1.260 . S
C421 O412 1.240 . S
C421 O413 1.252 . S
O422 In411 2.294 . S
O422 C415 1.240 . S
O423 In411 2.326 . S
O423 C415 1.252 . S
In424 O425 2.294 . S
In424 O426 2.326 . S
In424 O430 2.266 . S
In424 O431 2.326 . S
In424 O432 2.266 . S
In424 O433 2.326 . S
In424 O435 2.294 . S
In424 O436 2.326 . S
O425 In424 2.294 . S
O425 C434 1.240 . S
O426 In424 2.326 . S
O426 C434 1.252 . S
C427 O430 1.252 . S
C427 O431 1.260 . S
C428 O435 1.240 . S
C428 O436 1.252 . S
C429 O432 1.252 . S
C429 O433 1.260 . S
O430 In424 2.266 . S
O430 C427 1.252 . S
O431 In424 2.326 . S
O431 C427 1.260 . S
O432 In424 2.266 . S
O432 C429 1.252 . S
O433 In424 2.326 . S
O433 C429 1.260 . S
C434 O425 1.240 . S
C434 O426 1.252 . S
O435 In424 2.294 . S
O435 C428 1.240 . S
O436 In424 2.326 . S
O436 C428 1.252 . S
In437 O438 2.294 . S
In437 O439 2.326 . S
In437 O443 2.266 . S
In437 O444 2.326 . S
In437 O445 2.266 . S
In437 O446 2.326 . S
In437 O448 2.294 . S
In437 O449 2.326 . S
O438 In437 2.294 . S
O438 C447 1.240 . S
O439 In437 2.326 . S
O439 C447 1.252 . S
C440 O443 1.252 . S
C440 O444 1.260 . S
C441 O448 1.240 . S
C441 O449 1.252 . S
C442 O445 1.252 . S
C442 O446 1.260 . S
O443 In437 2.266 . S
O443 C440 1.252 . S
O444 In437 2.326 . S
O444 C440 1.260 . S
O445 In437 2.266 . S
O445 C442 1.252 . S
O446 In437 2.326 . S
O446 C442 1.260 . S
C447 O438 1.240 . S
C447 O439 1.252 . S
O448 In437 2.294 . S
O448 C441 1.240 . S
O449 In437 2.326 . S
O449 C441 1.252 . S
C450 C451 1.349 . S
C450 C452 1.327 . S
C450 H475 0.950 . S
C451 C450 1.349 . S
C451 C467 1.349 . S
C452 C450 1.327 . S
C452 C471 1.429 . S
C452 H476 0.950 . S
C453 C470 1.574 . S
C453 C472 1.368 . S
C453 H477 0.949 . S
H454 C458 0.949 . S
C455 C456 1.349 . S
C455 C457 1.327 . S
C455 H478 0.950 . S
C456 C455 1.349 . S
C456 C468 1.349 . S
C457 C455 1.327 . S
C457 C473 1.429 . S
C457 H479 0.950 . S
C458 H454 0.949 . S
C458 C466 1.574 . S
C458 C474 1.368 . S
H459 C467 0.950 . S
H460 C465 0.950 . S
H461 C466 0.949 . S
H462 C468 0.950 . S
H463 C469 0.950 . S
H464 C470 0.949 . S
C465 H460 0.950 . S
C465 C467 1.327 . S
C465 C471 1.429 . S
C466 C458 1.574 . S
C466 H461 0.949 . S
C466 C472 1.368 . S
C467 C451 1.349 . S
C467 H459 0.950 . S
C467 C465 1.327 . S
C468 C456 1.349 . S
C468 H462 0.950 . S
C468 C469 1.327 . S
C469 H463 0.950 . S
C469 C468 1.327 . S
C469 C473 1.429 . S
C470 C453 1.574 . S
C470 H464 0.949 . S
C470 C474 1.368 . S
C471 C452 1.429 . S
C471 C465 1.429 . S
C471 C472 1.523 . S
C472 C453 1.368 . S
C472 C466 1.368 . S
C472 C471 1.523 . S
C473 C457 1.429 . S
C473 C469 1.429 . S
C473 C474 1.523 . S
C474 C458 1.368 . S
C474 C470 1.368 . S
C474 C473 1.523 . S
H475 C450 0.950 . S
H476 C452 0.950 . S
H477 C453 0.949 . S
H478 C455 0.950 . S
H479 C457 0.950 . S
C480 C481 1.349 . S
C480 C482 1.327 . S
C480 H505 0.950 . S
C481 C480 1.349 . S
C481 C497 1.349 . S
C482 C480 1.327 . S
C482 C501 1.429 . S
C482 H506 0.950 . S
C483 C500 1.574 . S
C483 C502 1.368 . S
C483 H507 0.949 . S
H484 C488 0.949 . S
C485 C486 1.349 . S
C485 C487 1.327 . S
C485 H508 0.950 . S
C486 C485 1.349 . S
C486 C498 1.349 . S
C487 C485 1.327 . S
C487 C503 1.429 . S
C487 H509 0.950 . S
C488 H484 0.949 . S
C488 C496 1.574 . S
C488 C504 1.368 . S
H489 C497 0.950 . S
H490 C495 0.950 . S
H491 C496 0.949 . S
H492 C498 0.950 . S
H493 C499 0.950 . S
H494 C500 0.949 . S
C495 H490 0.950 . S
C495 C497 1.327 . S
C495 C501 1.429 . S
C496 C488 1.574 . S
C496 H491 0.949 . S
C496 C502 1.368 . S
C497 C481 1.349 . S
C497 H489 0.950 . S
C497 C495 1.327 . S
C498 C486 1.349 . S
C498 H492 0.950 . S
C498 C499 1.327 . S
C499 H493 0.950 . S
C499 C498 1.327 . S
C499 C503 1.429 . S
C500 C483 1.574 . S
C500 H494 0.949 . S
C500 C504 1.368 . S
C501 C482 1.429 . S
C501 C495 1.429 . S
C501 C502 1.523 . S
C502 C483 1.368 . S
C502 C496 1.368 . S
C502 C501 1.523 . S
C503 C487 1.429 . S
C503 C499 1.429 . S
C503 C504 1.523 . S
C504 C488 1.368 . S
C504 C500 1.368 . S
C504 C503 1.523 . S
H505 C480 0.950 . S
H506 C482 0.950 . S
H507 C483 0.949 . S
H508 C485 0.950 . S
H509 C487 0.950 . S
C510 C511 1.349 . S
C510 C512 1.327 . S
C510 H535 0.950 . S
C511 C510 1.349 . S
C511 C527 1.349 . S
C512 C510 1.327 . S
C512 C531 1.429 . S
C512 H536 0.950 . S
C513 C530 1.574 . S
C513 C532 1.368 . S
C513 H537 0.949 . S
H514 C518 0.949 . S
C515 C516 1.349 . S
C515 C517 1.327 . S
C515 H538 0.950 . S
C516 C515 1.349 . S
C516 C528 1.349 . S
C517 C515 1.327 . S
C517 C533 1.429 . S
C517 H539 0.950 . S
C518 H514 0.949 . S
C518 C526 1.574 . S
C518 C534 1.368 . S
H519 C527 0.950 . S
H520 C525 0.950 . S
H521 C526 0.949 . S
H522 C528 0.950 . S
H523 C529 0.950 . S
H524 C530 0.949 . S
C525 H520 0.950 . S
C525 C527 1.327 . S
C525 C531 1.429 . S
C526 C518 1.574 . S
C526 H521 0.949 . S
C526 C532 1.368 . S
C527 C511 1.349 . S
C527 H519 0.950 . S
C527 C525 1.327 . S
C528 C516 1.349 . S
C528 H522 0.950 . S
C528 C529 1.327 . S
C529 H523 0.950 . S
C529 C528 1.327 . S
C529 C533 1.429 . S
C530 C513 1.574 . S
C530 H524 0.949 . S
C530 C534 1.368 . S
C531 C512 1.429 . S
C531 C525 1.429 . S
C531 C532 1.523 . S
C532 C513 1.368 . S
C532 C526 1.368 . S
C532 C531 1.523 . S
C533 C517 1.429 . S
C533 C529 1.429 . S
C533 C534 1.523 . S
C534 C518 1.368 . S
C534 C530 1.368 . S
C534 C533 1.523 . S
H535 C510 0.950 . S
H536 C512 0.950 . S
H537 C513 0.949 . S
H538 C515 0.950 . S
H539 C517 0.950 . S
C540 C541 1.349 . S
C540 C542 1.327 . S
C540 H565 0.950 . S
C541 C540 1.349 . S
C541 C557 1.349 . S
C542 C540 1.327 . S
C542 C561 1.429 . S
C542 H566 0.950 . S
C543 C560 1.574 . S
C543 C562 1.368 . S
C543 H567 0.949 . S
H544 C548 0.949 . S
C545 C546 1.349 . S
C545 C547 1.327 . S
C545 H568 0.950 . S
C546 C545 1.349 . S
C546 C558 1.349 . S
C547 C545 1.327 . S
C547 C563 1.429 . S
C547 H569 0.950 . S
C548 H544 0.949 . S
C548 C556 1.574 . S
C548 C564 1.368 . S
H549 C557 0.950 . S
H550 C555 0.950 . S
H551 C556 0.949 . S
H552 C558 0.950 . S
H553 C559 0.950 . S
H554 C560 0.949 . S
C555 H550 0.950 . S
C555 C557 1.327 . S
C555 C561 1.429 . S
C556 C548 1.574 . S
C556 H551 0.949 . S
C556 C562 1.368 . S
C557 C541 1.349 . S
C557 H549 0.950 . S
C557 C555 1.327 . S
C558 C546 1.349 . S
C558 H552 0.950 . S
C558 C559 1.327 . S
C559 H553 0.950 . S
C559 C558 1.327 . S
C559 C563 1.429 . S
C560 C543 1.574 . S
C560 H554 0.949 . S
C560 C564 1.368 . S
C561 C542 1.429 . S
C561 C555 1.429 . S
C561 C562 1.523 . S
C562 C543 1.368 . S
C562 C556 1.368 . S
C562 C561 1.523 . S
C563 C547 1.429 . S
C563 C559 1.429 . S
C563 C564 1.523 . S
C564 C548 1.368 . S
C564 C560 1.368 . S
C564 C563 1.523 . S
H565 C540 0.950 . S
H566 C542 0.950 . S
H567 C543 0.949 . S
H568 C545 0.950 . S
H569 C547 0.950 . S
C570 C571 1.349 . S
C570 C572 1.327 . S
C570 H595 0.950 . S
C571 C570 1.349 . S
C571 C587 1.349 . S
C572 C570 1.327 . S
C572 C591 1.429 . S
C572 H596 0.950 . S
C573 C590 1.574 . S
C573 C592 1.368 . S
C573 H597 0.949 . S
H574 C578 0.949 . S
C575 C576 1.349 . S
C575 C577 1.327 . S
C575 H598 0.950 . S
C576 C575 1.349 . S
C576 C588 1.349 . S
C577 C575 1.327 . S
C577 C593 1.429 . S
C577 H599 0.950 . S
C578 H574 0.949 . S
C578 C586 1.574 . S
C578 C594 1.368 . S
H579 C587 0.950 . S
H580 C585 0.950 . S
H581 C586 0.949 . S
H582 C588 0.950 . S
H583 C589 0.950 . S
H584 C590 0.949 . S
C585 H580 0.950 . S
C585 C587 1.327 . S
C585 C591 1.429 . S
C586 C578 1.574 . S
C586 H581 0.949 . S
C586 C592 1.368 . S
C587 C571 1.349 . S
C587 H579 0.950 . S
C587 C585 1.327 . S
C588 C576 1.349 . S
C588 H582 0.950 . S
C588 C589 1.327 . S
C589 H583 0.950 . S
C589 C588 1.327 . S
C589 C593 1.429 . S
C590 C573 1.574 . S
C590 H584 0.949 . S
C590 C594 1.368 . S
C591 C572 1.429 . S
C591 C585 1.429 . S
C591 C592 1.523 . S
C592 C573 1.368 . S
C592 C586 1.368 . S
C592 C591 1.523 . S
C593 C577 1.429 . S
C593 C589 1.429 . S
C593 C594 1.523 . S
C594 C578 1.368 . S
C594 C590 1.368 . S
C594 C593 1.523 . S
H595 C570 0.950 . S
H596 C572 0.950 . S
H597 C573 0.949 . S
H598 C575 0.950 . S
H599 C577 0.950 . S
C600 C601 1.349 . S
C600 C602 1.327 . S
C600 H625 0.950 . S
C601 C600 1.349 . S
C601 C617 1.349 . S
C602 C600 1.327 . S
C602 C621 1.429 . S
C602 H626 0.950 . S
C603 C620 1.574 . S
C603 C622 1.368 . S
C603 H627 0.949 . S
H604 C608 0.949 . S
C605 C606 1.349 . S
C605 C607 1.327 . S
C605 H628 0.950 . S
C606 C605 1.349 . S
C606 C618 1.349 . S
C607 C605 1.327 . S
C607 C623 1.429 . S
C607 H629 0.950 . S
C608 H604 0.949 . S
C608 C616 1.574 . S
C608 C624 1.368 . S
H609 C617 0.950 . S
H610 C615 0.950 . S
H611 C616 0.949 . S
H612 C618 0.950 . S
H613 C619 0.950 . S
H614 C620 0.949 . S
C615 H610 0.950 . S
C615 C617 1.327 . S
C615 C621 1.429 . S
C616 C608 1.574 . S
C616 H611 0.949 . S
C616 C622 1.368 . S
C617 C601 1.349 . S
C617 H609 0.950 . S
C617 C615 1.327 . S
C618 C606 1.349 . S
C618 H612 0.950 . S
C618 C619 1.327 . S
C619 H613 0.950 . S
C619 C618 1.327 . S
C619 C623 1.429 . S
C620 C603 1.574 . S
C620 H614 0.949 . S
C620 C624 1.368 . S
C621 C602 1.429 . S
C621 C615 1.429 . S
C621 C622 1.523 . S
C622 C603 1.368 . S
C622 C616 1.368 . S
C622 C621 1.523 . S
C623 C607 1.429 . S
C623 C619 1.429 . S
C623 C624 1.523 . S
C624 C608 1.368 . S
C624 C620 1.368 . S
C624 C623 1.523 . S
H625 C600 0.950 . S
H626 C602 0.950 . S
H627 C603 0.949 . S
H628 C605 0.950 . S
H629 C607 0.950 . S
C630 C631 1.349 . S
C630 C632 1.327 . S
C630 H655 0.950 . S
C631 C630 1.349 . S
C631 C647 1.349 . S
C632 C630 1.327 . S
C632 C651 1.429 . S
C632 H656 0.950 . S
C633 C650 1.574 . S
C633 C652 1.368 . S
C633 H657 0.949 . S
H634 C638 0.949 . S
C635 C636 1.349 . S
C635 C637 1.327 . S
C635 H658 0.950 . S
C636 C635 1.349 . S
C636 C648 1.349 . S
C637 C635 1.327 . S
C637 C653 1.429 . S
C637 H659 0.950 . S
C638 H634 0.949 . S
C638 C646 1.574 . S
C638 C654 1.368 . S
H639 C647 0.950 . S
H640 C645 0.950 . S
H641 C646 0.949 . S
H642 C648 0.950 . S
H643 C649 0.950 . S
H644 C650 0.949 . S
C645 H640 0.950 . S
C645 C647 1.327 . S
C645 C651 1.429 . S
C646 C638 1.574 . S
C646 H641 0.949 . S
C646 C652 1.368 . S
C647 C631 1.349 . S
C647 H639 0.950 . S
C647 C645 1.327 . S
C648 C636 1.349 . S
C648 H642 0.950 . S
C648 C649 1.327 . S
C649 H643 0.950 . S
C649 C648 1.327 . S
C649 C653 1.429 . S
C650 C633 1.574 . S
C650 H644 0.949 . S
C650 C654 1.368 . S
C651 C632 1.429 . S
C651 C645 1.429 . S
C651 C652 1.523 . S
C652 C633 1.368 . S
C652 C646 1.368 . S
C652 C651 1.523 . S
C653 C637 1.429 . S
C653 C649 1.429 . S
C653 C654 1.523 . S
C654 C638 1.368 . S
C654 C650 1.368 . S
C654 C653 1.523 . S
H655 C630 0.950 . S
H656 C632 0.950 . S
H657 C633 0.949 . S
H658 C635 0.950 . S
H659 C637 0.950 . S
C660 C661 1.349 . S
C660 C662 1.327 . S
C660 H685 0.950 . S
C661 C660 1.349 . S
C661 C677 1.349 . S
C662 C660 1.327 . S
C662 C681 1.429 . S
C662 H686 0.950 . S
C663 C680 1.574 . S
C663 C682 1.368 . S
C663 H687 0.949 . S
H664 C668 0.949 . S
C665 C666 1.349 . S
C665 C667 1.327 . S
C665 H688 0.950 . S
C666 C665 1.349 . S
C666 C678 1.349 . S
C667 C665 1.327 . S
C667 C683 1.429 . S
C667 H689 0.950 . S
C668 H664 0.949 . S
C668 C676 1.574 . S
C668 C684 1.368 . S
H669 C677 0.950 . S
H670 C675 0.950 . S
H671 C676 0.949 . S
H672 C678 0.950 . S
H673 C679 0.950 . S
H674 C680 0.949 . S
C675 H670 0.950 . S
C675 C677 1.327 . S
C675 C681 1.429 . S
C676 C668 1.574 . S
C676 H671 0.949 . S
C676 C682 1.368 . S
C677 C661 1.349 . S
C677 H669 0.950 . S
C677 C675 1.327 . S
C678 C666 1.349 . S
C678 H672 0.950 . S
C678 C679 1.327 . S
C679 H673 0.950 . S
C679 C678 1.327 . S
C679 C683 1.429 . S
C680 C663 1.574 . S
C680 H674 0.949 . S
C680 C684 1.368 . S
C681 C662 1.429 . S
C681 C675 1.429 . S
C681 C682 1.523 . S
C682 C663 1.368 . S
C682 C676 1.368 . S
C682 C681 1.523 . S
C683 C667 1.429 . S
C683 C679 1.429 . S
C683 C684 1.523 . S
C684 C668 1.368 . S
C684 C680 1.368 . S
C684 C683 1.523 . S
H685 C660 0.950 . S
H686 C662 0.950 . S
H687 C663 0.949 . S
H688 C665 0.950 . S
H689 C667 0.950 . S
C690 C691 1.349 . S
C690 C692 1.327 . S
C690 H715 0.950 . S
C691 C690 1.349 . S
C691 C707 1.349 . S
C692 C690 1.327 . S
C692 C711 1.429 . S
C692 H716 0.950 . S
C693 C710 1.574 . S
C693 C712 1.368 . S
C693 H717 0.949 . S
H694 C698 0.949 . S
C695 C696 1.349 . S
C695 C697 1.327 . S
C695 H718 0.950 . S
C696 C695 1.349 . S
C696 C708 1.349 . S
C697 C695 1.327 . S
C697 C713 1.429 . S
C697 H719 0.950 . S
C698 H694 0.949 . S
C698 C706 1.574 . S
C698 C714 1.368 . S
H699 C707 0.950 . S
H700 C705 0.950 . S
H701 C706 0.949 . S
H702 C708 0.950 . S
H703 C709 0.950 . S
H704 C710 0.949 . S
C705 H700 0.950 . S
C705 C707 1.327 . S
C705 C711 1.429 . S
C706 C698 1.574 . S
C706 H701 0.949 . S
C706 C712 1.368 . S
C707 C691 1.349 . S
C707 H699 0.950 . S
C707 C705 1.327 . S
C708 C696 1.349 . S
C708 H702 0.950 . S
C708 C709 1.327 . S
C709 H703 0.950 . S
C709 C708 1.327 . S
C709 C713 1.429 . S
C710 C693 1.574 . S
C710 H704 0.949 . S
C710 C714 1.368 . S
C711 C692 1.429 . S
C711 C705 1.429 . S
C711 C712 1.523 . S
C712 C693 1.368 . S
C712 C706 1.368 . S
C712 C711 1.523 . S
C713 C697 1.429 . S
C713 C709 1.429 . S
C713 C714 1.523 . S
C714 C698 1.368 . S
C714 C710 1.368 . S
C714 C713 1.523 . S
H715 C690 0.950 . S
H716 C692 0.950 . S
H717 C693 0.949 . S
H718 C695 0.950 . S
H719 C697 0.950 . S
C720 C721 1.349 . S
C720 C722 1.327 . S
C720 H745 0.950 . S
C721 C720 1.349 . S
C721 C737 1.349 . S
C722 C720 1.327 . S
C722 C741 1.429 . S
C722 H746 0.950 . S
C723 C740 1.574 . S
C723 C742 1.368 . S
C723 H747 0.949 . S
H724 C728 0.949 . S
C725 C726 1.349 . S
C725 C727 1.327 . S
C725 H748 0.950 . S
C726 C725 1.349 . S
C726 C738 1.349 . S
C727 C725 1.327 . S
C727 C743 1.429 . S
C727 H749 0.950 . S
C728 H724 0.949 . S
C728 C736 1.574 . S
C728 C744 1.368 . S
H729 C737 0.950 . S
H730 C735 0.950 . S
H731 C736 0.949 . S
H732 C738 0.950 . S
H733 C739 0.950 . S
H734 C740 0.949 . S
C735 H730 0.950 . S
C735 C737 1.327 . S
C735 C741 1.429 . S
C736 C728 1.574 . S
C736 H731 0.949 . S
C736 C742 1.368 . S
C737 C721 1.349 . S
C737 H729 0.950 . S
C737 C735 1.327 . S
C738 C726 1.349 . S
C738 H732 0.950 . S
C738 C739 1.327 . S
C739 H733 0.950 . S
C739 C738 1.327 . S
C739 C743 1.429 . S
C740 C723 1.574 . S
C740 H734 0.949 . S
C740 C744 1.368 . S
C741 C722 1.429 . S
C741 C735 1.429 . S
C741 C742 1.523 . S
C742 C723 1.368 . S
C742 C736 1.368 . S
C742 C741 1.523 . S
C743 C727 1.429 . S
C743 C739 1.429 . S
C743 C744 1.523 . S
C744 C728 1.368 . S
C744 C740 1.368 . S
C744 C743 1.523 . S
H745 C720 0.950 . S
H746 C722 0.950 . S
H747 C723 0.949 . S
H748 C725 0.950 . S
H749 C727 0.950 . S
C750 C751 1.349 . S
C750 C752 1.327 . S
C750 H775 0.950 . S
C751 C750 1.349 . S
C751 C767 1.349 . S
C752 C750 1.327 . S
C752 C771 1.429 . S
C752 H776 0.950 . S
C753 C770 1.574 . S
C753 C772 1.368 . S
C753 H777 0.949 . S
H754 C758 0.949 . S
C755 C756 1.349 . S
C755 C757 1.327 . S
C755 H778 0.950 . S
C756 C755 1.349 . S
C756 C768 1.349 . S
C757 C755 1.327 . S
C757 C773 1.429 . S
C757 H779 0.950 . S
C758 H754 0.949 . S
C758 C766 1.574 . S
C758 C774 1.368 . S
H759 C767 0.950 . S
H760 C765 0.950 . S
H761 C766 0.949 . S
H762 C768 0.950 . S
H763 C769 0.950 . S
H764 C770 0.949 . S
C765 H760 0.950 . S
C765 C767 1.327 . S
C765 C771 1.429 . S
C766 C758 1.574 . S
C766 H761 0.949 . S
C766 C772 1.368 . S
C767 C751 1.349 . S
C767 H759 0.950 . S
C767 C765 1.327 . S
C768 C756 1.349 . S
C768 H762 0.950 . S
C768 C769 1.327 . S
C769 H763 0.950 . S
C769 C768 1.327 . S
C769 C773 1.429 . S
C770 C753 1.574 . S
C770 H764 0.949 . S
C770 C774 1.368 . S
C771 C752 1.429 . S
C771 C765 1.429 . S
C771 C772 1.523 . S
C772 C753 1.368 . S
C772 C766 1.368 . S
C772 C771 1.523 . S
C773 C757 1.429 . S
C773 C769 1.429 . S
C773 C774 1.523 . S
C774 C758 1.368 . S
C774 C770 1.368 . S
C774 C773 1.523 . S
H775 C750 0.950 . S
H776 C752 0.950 . S
H777 C753 0.949 . S
H778 C755 0.950 . S
H779 C757 0.950 . S
C780 C781 1.349 . S
C780 C782 1.327 . S
C780 H805 0.950 . S
C781 C780 1.349 . S
C781 C797 1.349 . S
C782 C780 1.327 . S
C782 C801 1.429 . S
C782 H806 0.950 . S
C783 C800 1.574 . S
C783 C802 1.368 . S
C783 H807 0.949 . S
H784 C788 0.949 . S
C785 C786 1.349 . S
C785 C787 1.327 . S
C785 H808 0.950 . S
C786 C785 1.349 . S
C786 C798 1.349 . S
C787 C785 1.327 . S
C787 C803 1.429 . S
C787 H809 0.950 . S
C788 H784 0.949 . S
C788 C796 1.574 . S
C788 C804 1.368 . S
H789 C797 0.950 . S
H790 C795 0.950 . S
H791 C796 0.949 . S
H792 C798 0.950 . S
H793 C799 0.950 . S
H794 C800 0.949 . S
C795 H790 0.950 . S
C795 C797 1.327 . S
C795 C801 1.429 . S
C796 C788 1.574 . S
C796 H791 0.949 . S
C796 C802 1.368 . S
C797 C781 1.349 . S
C797 H789 0.950 . S
C797 C795 1.327 . S
C798 C786 1.349 . S
C798 H792 0.950 . S
C798 C799 1.327 . S
C799 H793 0.950 . S
C799 C798 1.327 . S
C799 C803 1.429 . S
C800 C783 1.574 . S
C800 H794 0.949 . S
C800 C804 1.368 . S
C801 C782 1.429 . S
C801 C795 1.429 . S
C801 C802 1.523 . S
C802 C783 1.368 . S
C802 C796 1.368 . S
C802 C801 1.523 . S
C803 C787 1.429 . S
C803 C799 1.429 . S
C803 C804 1.523 . S
C804 C788 1.368 . S
C804 C800 1.368 . S
C804 C803 1.523 . S
H805 C780 0.950 . S
H806 C782 0.950 . S
H807 C783 0.949 . S
H808 C785 0.950 . S
H809 C787 0.950 . S
C810 C811 1.349 . S
C810 C812 1.327 . S
C810 H835 0.950 . S
C811 C810 1.349 . S
C811 C827 1.349 . S
C812 C810 1.327 . S
C812 C831 1.429 . S
C812 H836 0.950 . S
C813 C830 1.574 . S
C813 C832 1.368 . S
C813 H837 0.949 . S
H814 C818 0.949 . S
C815 C816 1.349 . S
C815 C817 1.327 . S
C815 H838 0.950 . S
C816 C815 1.349 . S
C816 C828 1.349 . S
C817 C815 1.327 . S
C817 C833 1.429 . S
C817 H839 0.950 . S
C818 H814 0.949 . S
C818 C826 1.574 . S
C818 C834 1.368 . S
H819 C827 0.950 . S
H820 C825 0.950 . S
H821 C826 0.949 . S
H822 C828 0.950 . S
H823 C829 0.950 . S
H824 C830 0.949 . S
C825 H820 0.950 . S
C825 C827 1.327 . S
C825 C831 1.429 . S
C826 C818 1.574 . S
C826 H821 0.949 . S
C826 C832 1.368 . S
C827 C811 1.349 . S
C827 H819 0.950 . S
C827 C825 1.327 . S
C828 C816 1.349 . S
C828 H822 0.950 . S
C828 C829 1.327 . S
C829 H823 0.950 . S
C829 C828 1.327 . S
C829 C833 1.429 . S
C830 C813 1.574 . S
C830 H824 0.949 . S
C830 C834 1.368 . S
C831 C812 1.429 . S
C831 C825 1.429 . S
C831 C832 1.523 . S
C832 C813 1.368 . S
C832 C826 1.368 . S
C832 C831 1.523 . S
C833 C817 1.429 . S
C833 C829 1.429 . S
C833 C834 1.523 . S
C834 C818 1.368 . S
C834 C830 1.368 . S
C834 C833 1.523 . S
H835 C810 0.950 . S
H836 C812 0.950 . S
H837 C813 0.949 . S
H838 C815 0.950 . S
H839 C817 0.950 . S
C840 C841 1.349 . S
C840 C842 1.327 . S
C840 H865 0.950 . S
C841 C840 1.349 . S
C841 C857 1.349 . S
C842 C840 1.327 . S
C842 C861 1.429 . S
C842 H866 0.950 . S
C843 C860 1.574 . S
C843 C862 1.368 . S
C843 H867 0.949 . S
H844 C848 0.949 . S
C845 C846 1.349 . S
C845 C847 1.327 . S
C845 H868 0.950 . S
C846 C845 1.349 . S
C846 C858 1.349 . S
C847 C845 1.327 . S
C847 C863 1.429 . S
C847 H869 0.950 . S
C848 H844 0.949 . S
C848 C856 1.574 . S
C848 C864 1.368 . S
H849 C857 0.950 . S
H850 C855 0.950 . S
H851 C856 0.949 . S
H852 C858 0.950 . S
H853 C859 0.950 . S
H854 C860 0.949 . S
C855 H850 0.950 . S
C855 C857 1.327 . S
C855 C861 1.429 . S
C856 C848 1.574 . S
C856 H851 0.949 . S
C856 C862 1.368 . S
C857 C841 1.349 . S
C857 H849 0.950 . S
C857 C855 1.327 . S
C858 C846 1.349 . S
C858 H852 0.950 . S
C858 C859 1.327 . S
C859 H853 0.950 . S
C859 C858 1.327 . S
C859 C863 1.429 . S
C860 C843 1.574 . S
C860 H854 0.949 . S
C860 C864 1.368 . S
C861 C842 1.429 . S
C861 C855 1.429 . S
C861 C862 1.523 . S
C862 C843 1.368 . S
C862 C856 1.368 . S
C862 C861 1.523 . S
C863 C847 1.429 . S
C863 C859 1.429 . S
C863 C864 1.523 . S
C864 C848 1.368 . S
C864 C860 1.368 . S
C864 C863 1.523 . S
H865 C840 0.950 . S
H866 C842 0.950 . S
H867 C843 0.949 . S
H868 C845 0.950 . S
H869 C847 0.950 . S
C870 C871 1.349 . S
C870 C872 1.327 . S
C870 H895 0.950 . S
C871 C870 1.349 . S
C871 C887 1.349 . S
C872 C870 1.327 . S
C872 C891 1.429 . S
C872 H896 0.950 . S
C873 C890 1.574 . S
C873 C892 1.368 . S
C873 H897 0.949 . S
H874 C878 0.949 . S
C875 C876 1.349 . S
C875 C877 1.327 . S
C875 H898 0.950 . S
C876 C875 1.349 . S
C876 C888 1.349 . S
C877 C875 1.327 . S
C877 C893 1.429 . S
C877 H899 0.950 . S
C878 H874 0.949 . S
C878 C886 1.574 . S
C878 C894 1.368 . S
H879 C887 0.950 . S
H880 C885 0.950 . S
H881 C886 0.949 . S
H882 C888 0.950 . S
H883 C889 0.950 . S
H884 C890 0.949 . S
C885 H880 0.950 . S
C885 C887 1.327 . S
C885 C891 1.429 . S
C886 C878 1.574 . S
C886 H881 0.949 . S
C886 C892 1.368 . S
C887 C871 1.349 . S
C887 H879 0.950 . S
C887 C885 1.327 . S
C888 C876 1.349 . S
C888 H882 0.950 . S
C888 C889 1.327 . S
C889 H883 0.950 . S
C889 C888 1.327 . S
C889 C893 1.429 . S
C890 C873 1.574 . S
C890 H884 0.949 . S
C890 C894 1.368 . S
C891 C872 1.429 . S
C891 C885 1.429 . S
C891 C892 1.523 . S
C892 C873 1.368 . S
C892 C886 1.368 . S
C892 C891 1.523 . S
C893 C877 1.429 . S
C893 C889 1.429 . S
C893 C894 1.523 . S
C894 C878 1.368 . S
C894 C890 1.368 . S
C894 C893 1.523 . S
H895 C870 0.950 . S
H896 C872 0.950 . S
H897 C873 0.949 . S
H898 C875 0.950 . S
H899 C877 0.950 . S
C900 C901 1.349 . S
C900 C902 1.327 . S
C900 H925 0.950 . S
C901 C900 1.349 . S
C901 C917 1.349 . S
C902 C900 1.327 . S
C902 C921 1.429 . S
C902 H926 0.950 . S
C903 C920 1.574 . S
C903 C922 1.368 . S
C903 H927 0.949 . S
H904 C908 0.949 . S
C905 C906 1.349 . S
C905 C907 1.327 . S
C905 H928 0.950 . S
C906 C905 1.349 . S
C906 C918 1.349 . S
C907 C905 1.327 . S
C907 C923 1.429 1_554 S
C907 H929 0.950 . S
C908 H904 0.949 . S
C908 C916 1.574 . S
C908 C924 1.368 . S
H909 C917 0.950 . S
H910 C915 0.950 . S
H911 C916 0.949 . S
H912 C918 0.950 . S
H913 C919 0.947 1_556 S
H914 C920 0.949 . S
C915 H910 0.950 . S
C915 C917 1.327 . S
C915 C921 1.429 . S
C916 C908 1.574 . S
C916 H911 0.949 . S
C916 C922 1.368 . S
C917 C901 1.349 . S
C917 H909 0.950 . S
C917 C915 1.327 . S
C918 C906 1.349 . S
C918 H912 0.950 . S
C918 C919 1.327 . S
C919 H913 0.947 1_554 S
C919 C918 1.327 . S
C919 C923 1.429 1_554 S
C920 C903 1.574 . S
C920 H914 0.949 . S
C920 C924 1.368 . S
C921 C902 1.429 . S
C921 C915 1.429 . S
C921 C922 1.523 . S
C922 C903 1.368 . S
C922 C916 1.368 . S
C922 C921 1.523 . S
C923 C907 1.429 1_556 S
C923 C919 1.429 1_556 S
C923 C924 1.523 . S
C924 C908 1.368 . S
C924 C920 1.368 . S
C924 C923 1.523 . S
H925 C900 0.950 . S
H926 C902 0.950 . S
H927 C903 0.949 . S
H928 C905 0.950 . S
H929 C907 0.950 . S
C930 C931 1.349 . S
C930 C932 1.327 . S
C930 H955 0.950 . S
C931 C930 1.349 . S
C931 C947 1.349 . S
C932 C930 1.327 . S
C932 C951 1.429 . S
C932 H956 0.950 . S
C933 C950 1.574 . S
C933 C952 1.368 . S
C933 H957 0.949 . S
H934 C938 0.949 . S
C935 C936 1.349 . S
C935 C937 1.327 . S
C935 H958 0.950 . S
C936 C935 1.349 . S
C936 C948 1.349 . S
C937 C935 1.327 . S
C937 C953 1.429 . S
C937 H959 0.950 . S
C938 H934 0.949 . S
C938 C946 1.574 . S
C938 C954 1.368 . S
H939 C947 0.950 . S
H940 C945 0.950 . S
H941 C946 0.949 . S
H942 C948 0.950 . S
H943 C949 0.950 . S
H944 C950 0.949 . S
C945 H940 0.950 . S
C945 C947 1.327 . S
C945 C951 1.429 . S
C946 C938 1.574 . S
C946 H941 0.949 . S
C946 C952 1.368 . S
C947 C931 1.349 . S
C947 H939 0.950 . S
C947 C945 1.327 . S
C948 C936 1.349 . S
C948 H942 0.950 . S
C948 C949 1.327 . S
C949 H943 0.950 . S
C949 C948 1.327 . S
C949 C953 1.429 . S
C950 C933 1.574 . S
C950 H944 0.949 . S
C950 C954 1.368 . S
C951 C932 1.429 . S
C951 C945 1.429 . S
C951 C952 1.523 . S
C952 C933 1.368 . S
C952 C946 1.368 . S
C952 C951 1.523 . S
C953 C937 1.429 . S
C953 C949 1.429 . S
C953 C954 1.523 . S
C954 C938 1.368 . S
C954 C950 1.368 . S
C954 C953 1.523 . S
H955 C930 0.950 . S
H956 C932 0.950 . S
H957 C933 0.949 . S
H958 C935 0.950 . S
H959 C937 0.950 . S
C960 C961 1.349 . S
C960 C962 1.327 . S
C960 H985 0.950 . S
C961 C960 1.349 . S
C961 C977 1.349 . S
C962 C960 1.327 . S
C962 C981 1.429 . S
C962 H986 0.950 . S
C963 C980 1.574 . S
C963 C982 1.368 . S
C963 H987 0.949 . S
H964 C968 0.949 . S
C965 C966 1.349 . S
C965 C967 1.327 . S
C965 H988 0.950 . S
C966 C965 1.349 . S
C966 C978 1.349 . S
C967 C965 1.327 . S
C967 C983 1.429 . S
C967 H989 0.950 . S
C968 H964 0.949 . S
C968 C976 1.574 . S
C968 C984 1.368 . S
H969 C977 0.950 . S
H970 C975 0.950 . S
H971 C976 0.949 . S
H972 C978 0.950 . S
H973 C979 0.950 . S
H974 C980 0.949 . S
C975 H970 0.950 . S
C975 C977 1.327 . S
C975 C981 1.429 . S
C976 C968 1.574 . S
C976 H971 0.949 . S
C976 C982 1.368 . S
C977 C961 1.349 . S
C977 H969 0.950 . S
C977 C975 1.327 . S
C978 C966 1.349 . S
C978 H972 0.950 . S
C978 C979 1.327 . S
C979 H973 0.950 . S
C979 C978 1.327 . S
C979 C983 1.429 . S
C980 C963 1.574 . S
C980 H974 0.949 . S
C980 C984 1.368 . S
C981 C962 1.429 . S
C981 C975 1.429 . S
C981 C982 1.523 . S
C982 C963 1.368 . S
C982 C976 1.368 . S
C982 C981 1.523 . S
C983 C967 1.429 . S
C983 C979 1.429 . S
C983 C984 1.523 . S
C984 C968 1.368 . S
C984 C980 1.368 . S
C984 C983 1.523 . S
H985 C960 0.950 . S
H986 C962 0.950 . S
H987 C963 0.949 . S
H988 C965 0.950 . S
H989 C967 0.950 . S
C990 C991 1.349 . S
C990 C992 1.327 . S
C990 H1015 0.950 . S
C991 C990 1.349 . S
C991 C1007 1.349 . S
C992 C990 1.327 . S
C992 C1011 1.429 . S
C992 H1016 0.950 . S
C993 C1010 1.574 . S
C993 C1012 1.368 . S
C993 H1017 0.949 . S
H994 C998 0.949 . S
C995 C996 1.349 . S
C995 C997 1.327 . S
C995 H1018 0.950 . S
C996 C995 1.349 . S
C996 C1008 1.349 . S
C997 C995 1.327 . S
C997 C1013 1.429 . S
C997 H1019 0.950 . S
C998 H994 0.949 . S
C998 C1006 1.574 . S
C998 C1014 1.368 . S
H999 C1007 0.950 . S
H1000 C1005 0.950 . S
H1001 C1006 0.949 . S
H1002 C1008 0.950 . S
H1003 C1009 0.950 . S
H1004 C1010 0.949 . S
C1005 H1000 0.950 . S
C1005 C1007 1.327 . S
C1005 C1011 1.429 . S
C1006 C998 1.574 . S
C1006 H1001 0.949 . S
C1006 C1012 1.368 . S
C1007 C991 1.349 . S
C1007 H999 0.950 . S
C1007 C1005 1.327 . S
C1008 C996 1.349 . S
C1008 H1002 0.950 . S
C1008 C1009 1.327 . S
C1009 H1003 0.950 . S
C1009 C1008 1.327 . S
C1009 C1013 1.429 . S
C1010 C993 1.574 . S
C1010 H1004 0.949 . S
C1010 C1014 1.368 . S
C1011 C992 1.429 . S
C1011 C1005 1.429 . S
C1011 C1012 1.523 . S
C1012 C993 1.368 . S
C1012 C1006 1.368 . S
C1012 C1011 1.523 . S
C1013 C997 1.429 . S
C1013 C1009 1.429 . S
C1013 C1014 1.523 . S
C1014 C998 1.368 . S
C1014 C1010 1.368 . S
C1014 C1013 1.523 . S
H1015 C990 0.950 . S
H1016 C992 0.950 . S
H1017 C993 0.949 . S
H1018 C995 0.950 . S
H1019 C997 0.950 . S
C1020 C1021 1.349 . S
C1020 C1022 1.327 . S
C1020 H1045 0.950 . S
C1021 C1020 1.349 . S
C1021 C1037 1.349 . S
C1022 C1020 1.327 . S
C1022 C1041 1.429 . S
C1022 H1046 0.950 . S
C1023 C1040 1.574 . S
C1023 C1042 1.368 . S
C1023 H1047 0.949 . S
H1024 C1028 0.949 . S
C1025 C1026 1.349 . S
C1025 C1027 1.327 . S
C1025 H1048 0.950 . S
C1026 C1025 1.349 . S
C1026 C1038 1.349 . S
C1027 C1025 1.327 . S
C1027 C1043 1.429 . S
C1027 H1049 0.950 . S
C1028 H1024 0.949 . S
C1028 C1036 1.574 . S
C1028 C1044 1.368 . S
H1029 C1037 0.950 . S
H1030 C1035 0.950 . S
H1031 C1036 0.949 . S
H1032 C1038 0.950 . S
H1033 C1039 0.950 . S
H1034 C1040 0.949 . S
C1035 H1030 0.950 . S
C1035 C1037 1.327 . S
C1035 C1041 1.429 . S
C1036 C1028 1.574 . S
C1036 H1031 0.949 . S
C1036 C1042 1.368 . S
C1037 C1021 1.349 . S
C1037 H1029 0.950 . S
C1037 C1035 1.327 . S
C1038 C1026 1.349 . S
C1038 H1032 0.950 . S
C1038 C1039 1.327 . S
C1039 H1033 0.950 . S
C1039 C1038 1.327 . S
C1039 C1043 1.429 . S
C1040 C1023 1.574 . S
C1040 H1034 0.949 . S
C1040 C1044 1.368 . S
C1041 C1022 1.429 . S
C1041 C1035 1.429 . S
C1041 C1042 1.523 . S
C1042 C1023 1.368 . S
C1042 C1036 1.368 . S
C1042 C1041 1.523 . S
C1043 C1027 1.429 . S
C1043 C1039 1.429 . S
C1043 C1044 1.523 . S
C1044 C1028 1.368 . S
C1044 C1040 1.368 . S
C1044 C1043 1.523 . S
H1045 C1020 0.950 . S
H1046 C1022 0.950 . S
H1047 C1023 0.949 . S
H1048 C1025 0.950 . S
H1049 C1027 0.950 . S
C1050 C1051 1.349 . S
C1050 C1052 1.327 . S
C1050 H1075 0.950 . S
C1051 C1050 1.349 . S
C1051 C1067 1.349 . S
C1052 C1050 1.327 . S
C1052 C1071 1.429 . S
C1052 H1076 0.950 . S
C1053 C1070 1.574 . S
C1053 C1072 1.368 . S
C1053 H1077 0.949 . S
H1054 C1058 0.949 . S
C1055 C1056 1.349 . S
C1055 C1057 1.327 . S
C1055 H1078 0.950 . S
C1056 C1055 1.349 . S
C1056 C1068 1.349 . S
C1057 C1055 1.327 . S
C1057 C1073 1.429 . S
C1057 H1079 0.950 . S
C1058 H1054 0.949 . S
C1058 C1066 1.574 . S
C1058 C1074 1.368 . S
H1059 C1067 0.950 . S
H1060 C1065 0.950 . S
H1061 C1066 0.949 . S
H1062 C1068 0.950 . S
H1063 C1069 0.950 . S
H1064 C1070 0.949 . S
C1065 H1060 0.950 . S
C1065 C1067 1.327 . S
C1065 C1071 1.429 . S
C1066 C1058 1.574 . S
C1066 H1061 0.949 . S
C1066 C1072 1.368 . S
C1067 C1051 1.349 . S
C1067 H1059 0.950 . S
C1067 C1065 1.327 . S
C1068 C1056 1.349 . S
C1068 H1062 0.950 . S
C1068 C1069 1.327 . S
C1069 H1063 0.950 . S
C1069 C1068 1.327 . S
C1069 C1073 1.429 . S
C1070 C1053 1.574 . S
C1070 H1064 0.949 . S
C1070 C1074 1.368 . S
C1071 C1052 1.429 . S
C1071 C1065 1.429 . S
C1071 C1072 1.523 . S
C1072 C1053 1.368 . S
C1072 C1066 1.368 . S
C1072 C1071 1.523 . S
C1073 C1057 1.429 . S
C1073 C1069 1.429 . S
C1073 C1074 1.523 . S
C1074 C1058 1.368 . S
C1074 C1070 1.368 . S
C1074 C1073 1.523 . S
H1075 C1050 0.950 . S
H1076 C1052 0.950 . S
H1077 C1053 0.949 . S
H1078 C1055 0.950 . S
H1079 C1057 0.950 . S
C1080 C1081 1.349 . S
C1080 C1082 1.327 . S
C1080 H1105 0.950 . S
C1081 C1080 1.349 . S
C1081 C1097 1.349 . S
C1082 C1080 1.327 . S
C1082 C1101 1.429 . S
C1082 H1106 0.950 . S
C1083 C1100 1.574 . S
C1083 C1102 1.368 . S
C1083 H1107 0.949 . S
H1084 C1088 0.949 . S
C1085 C1086 1.349 . S
C1085 C1087 1.327 . S
C1085 H1108 0.950 . S
C1086 C1085 1.349 . S
C1086 C1098 1.349 . S
C1087 C1085 1.327 . S
C1087 C1103 1.429 . S
C1087 H1109 0.950 . S
C1088 H1084 0.949 . S
C1088 C1096 1.574 . S
C1088 C1104 1.368 . S
H1089 C1097 0.950 . S
H1090 C1095 0.950 . S
H1091 C1096 0.949 . S
H1092 C1098 0.950 . S
H1093 C1099 0.950 . S
H1094 C1100 0.949 . S
C1095 H1090 0.950 . S
C1095 C1097 1.327 . S
C1095 C1101 1.429 . S
C1096 C1088 1.574 . S
C1096 H1091 0.949 . S
C1096 C1102 1.368 . S
C1097 C1081 1.349 . S
C1097 H1089 0.950 . S
C1097 C1095 1.327 . S
C1098 C1086 1.349 . S
C1098 H1092 0.950 . S
C1098 C1099 1.327 . S
C1099 H1093 0.950 . S
C1099 C1098 1.327 . S
C1099 C1103 1.429 . S
C1100 C1083 1.574 . S
C1100 H1094 0.949 . S
C1100 C1104 1.368 . S
C1101 C1082 1.429 . S
C1101 C1095 1.429 . S
C1101 C1102 1.523 . S
C1102 C1083 1.368 . S
C1102 C1096 1.368 . S
C1102 C1101 1.523 . S
C1103 C1087 1.429 . S
C1103 C1099 1.429 . S
C1103 C1104 1.523 . S
C1104 C1088 1.368 . S
C1104 C1100 1.368 . S
C1104 C1103 1.523 . S
H1105 C1080 0.950 . S
H1106 C1082 0.950 . S
H1107 C1083 0.949 . S
H1108 C1085 0.950 . S
H1109 C1087 0.950 . S
C1110 C1111 1.349 . S
C1110 C1112 1.327 . S
C1110 H1135 0.950 . S
C1111 C1110 1.349 . S
C1111 C1127 1.349 . S
C1112 C1110 1.327 . S
C1112 C1131 1.429 . S
C1112 H1136 0.950 . S
C1113 C1130 1.574 . S
C1113 C1132 1.368 . S
C1113 H1137 0.949 . S
H1114 C1118 0.949 . S
C1115 C1116 1.349 . S
C1115 C1117 1.327 . S
C1115 H1138 0.950 . S
C1116 C1115 1.349 . S
C1116 C1128 1.349 . S
C1117 C1115 1.327 . S
C1117 C1133 1.429 . S
C1117 H1139 0.950 . S
C1118 H1114 0.949 . S
C1118 C1126 1.574 1_556 S
C1118 C1134 1.368 . S
H1119 C1127 0.950 . S
H1120 C1125 0.950 . S
H1121 C1126 0.949 . S
H1122 C1128 0.950 . S
H1123 C1129 0.950 . S
H1124 C1130 0.949 . S
C1125 H1120 0.950 . S
C1125 C1127 1.327 . S
C1125 C1131 1.429 . S
C1126 C1118 1.574 1_554 S
C1126 H1121 0.949 . S
C1126 C1132 1.368 . S
C1127 C1111 1.349 . S
C1127 H1119 0.950 . S
C1127 C1125 1.327 . S
C1128 C1116 1.349 . S
C1128 H1122 0.950 . S
C1128 C1129 1.327 . S
C1129 H1123 0.950 . S
C1129 C1128 1.327 . S
C1129 C1133 1.429 . S
C1130 C1113 1.574 . S
C1130 H1124 0.949 . S
C1130 C1134 1.368 1_554 S
C1131 C1112 1.429 . S
C1131 C1125 1.429 . S
C1131 C1132 1.523 . S
C1132 C1113 1.368 . S
C1132 C1126 1.368 . S
C1132 C1131 1.523 . S
C1133 C1117 1.429 . S
C1133 C1129 1.429 . S
C1133 C1134 1.523 . S
C1134 C1118 1.368 . S
C1134 C1130 1.368 1_556 S
C1134 C1133 1.523 . S
H1135 C1110 0.950 . S
H1136 C1112 0.950 . S
H1137 C1113 0.949 . S
H1138 C1115 0.950 . S
H1139 C1117 0.950 . S
C1140 C1141 1.349 . S
C1140 C1142 1.327 . S
C1140 H1165 0.950 . S
C1141 C1140 1.349 . S
C1141 C1157 1.349 . S
C1142 C1140 1.327 . S
C1142 C1161 1.429 . S
C1142 H1166 0.950 . S
C1143 C1160 1.574 . S
C1143 C1162 1.368 . S
C1143 H1167 0.949 . S
H1144 C1148 0.949 . S
C1145 C1146 1.349 . S
C1145 C1147 1.327 . S
C1145 H1168 0.950 . S
C1146 C1145 1.349 . S
C1146 C1158 1.349 . S
C1147 C1145 1.327 . S
C1147 C1163 1.429 . S
C1147 H1169 0.950 . S
C1148 H1144 0.949 . S
C1148 C1156 1.574 . S
C1148 C1164 1.368 . S
H1149 C1157 0.950 . S
H1150 C1155 0.950 . S
H1151 C1156 0.949 . S
H1152 C1158 0.950 . S
H1153 C1159 0.950 . S
H1154 C1160 0.949 . S
C1155 H1150 0.950 . S
C1155 C1157 1.327 . S
C1155 C1161 1.429 . S
C1156 C1148 1.574 . S
C1156 H1151 0.949 . S
C1156 C1162 1.368 . S
C1157 C1141 1.349 . S
C1157 H1149 0.950 . S
C1157 C1155 1.327 . S
C1158 C1146 1.349 . S
C1158 H1152 0.950 . S
C1158 C1159 1.327 . S
C1159 H1153 0.950 . S
C1159 C1158 1.327 . S
C1159 C1163 1.429 . S
C1160 C1143 1.574 . S
C1160 H1154 0.949 . S
C1160 C1164 1.368 . S
C1161 C1142 1.429 . S
C1161 C1155 1.429 . S
C1161 C1162 1.523 . S
C1162 C1143 1.368 . S
C1162 C1156 1.368 . S
C1162 C1161 1.523 . S
C1163 C1147 1.429 . S
C1163 C1159 1.429 . S
C1163 C1164 1.523 . S
C1164 C1148 1.368 . S
C1164 C1160 1.368 . S
C1164 C1163 1.523 . S
H1165 C1140 0.950 . S
H1166 C1142 0.950 . S
H1167 C1143 0.949 . S
H1168 C1145 0.950 . S
H1169 C1147 0.950 . S
C456 C442 1.663 . S
C451 C29 1.568 . S
C481 C115 1.550 . S
C486 C377 1.570 . S
C511 C153 1.597 . S
C516 C395 1.693 . S
C541 C239 1.538 . S
C546 C408 1.555 . S
C576 C416 1.617 . S
C571 C301 1.594 . S
C601 C339 1.825 . S
C606 C428 1.938 . S
C631 C91 1.603 . S
C636 C390 1.701 . S
C661 C177 1.547 . S
C666 C403 1.567 . S
C691 C215 1.565 . S
C696 C421 1.660 . S
C726 C427 1.946 . S
C721 C277 1.831 . S
C756 C447 1.600 . S
C751 C363 1.578 . S
C786 C382 1.564 . S
C781 C53 1.546 . S
C811 C35 1.696 . S
C816 C388 1.739 . S
C841 C109 1.540 . S
C846 C401 1.667 . S
C876 C415 1.589 . S
C871 C159 1.555 . S
C901 C233 1.742 . S
C906 C429 1.879 . S
C936 C441 1.692 . S
C931 C295 1.545 . S
C966 C376 1.566 . S
C961 C345 1.531 . S
C996 C440 1.598 . S
C991 C97 1.563 . S
C1021 C171 1.535 . S
C1026 C375 1.662 . S
C1056 C389 1.736 . S
C1051 C221 1.693 . S
C1081 C283 1.528 . S
C1086 C402 1.562 . S
C1111 C357 1.558 . S
C1116 C414 1.705 . S
C1141 C47 1.735 . S
C1146 C434 1.872 . S
