# Generated by pormake.
# Topology nom, (4,4)-cn, num edge types: 1
# Building blocks:
#     Node 0, Type 0, BuildingBlock: MIFKUJ_clean_linker_1, # of connection points: 4
#     Node 1, Type 0, BuildingBlock: MIFKUJ_clean_linker_1, # of connection points: 4
#     Node 2, Type 0, BuildingBlock: MIFKUJ_clean_linker_1, # of connection points: 4
#     Node 3, Type 0, BuildingBlock: MIFKUJ_clean_linker_1, # of connection points: 4
#     Node 4, Type 0, BuildingBlock: MIFKUJ_clean_linker_1, # of connection points: 4
#     Node 5, Type 0, BuildingBlock: MIFKUJ_clean_linker_1, # of connection points: 4
#     Node 6, Type 1, BuildingBlock: CEKHIL_clean_sbu_0, # of connection points: 4
#     Node 7, Type 1, BuildingBlock: CEKHIL_clean_sbu_0, # of connection points: 4
#     Node 8, Type 1, BuildingBlock: CEKHIL_clean_sbu_0, # of connection points: 4
#     Node 9, Type 1, BuildingBlock: CEKHIL_clean_sbu_0, # of connection points: 4
#     Node 10, Type 1, BuildingBlock: CEKHIL_clean_sbu_0, # of connection points: 4
#     Node 11, Type 1, BuildingBlock: CEKHIL_clean_sbu_0, # of connection points: 4
#     Edge 12, Type (0, 1), BuildingBlock: EZIPEK_clean_linker_0, # of connection points: 2
#     Edge 13, Type (0, 1), BuildingBlock: EZIPEK_clean_linker_0, # of connection points: 2
#     Edge 14, Type (0, 1), BuildingBlock: EZIPEK_clean_linker_0, # of connection points: 2
#     Edge 15, Type (0, 1), BuildingBlock: EZIPEK_clean_linker_0, # of connection points: 2
#     Edge 16, Type (0, 1), BuildingBlock: EZIPEK_clean_linker_0, # of connection points: 2
#     Edge 17, Type (0, 1), BuildingBlock: EZIPEK_clean_linker_0, # of connection points: 2
#     Edge 18, Type (0, 1), BuildingBlock: EZIPEK_clean_linker_0, # of connection points: 2
#     Edge 19, Type (0, 1), BuildingBlock: EZIPEK_clean_linker_0, # of connection points: 2
#     Edge 20, Type (0, 1), BuildingBlock: EZIPEK_clean_linker_0, # of connection points: 2
#     Edge 21, Type (0, 1), BuildingBlock: EZIPEK_clean_linker_0, # of connection points: 2
#     Edge 22, Type (0, 1), BuildingBlock: EZIPEK_clean_linker_0, # of connection points: 2
#     Edge 23, Type (0, 1), BuildingBlock: EZIPEK_clean_linker_0, # of connection points: 2
#     Edge 24, Type (0, 1), BuildingBlock: EZIPEK_clean_linker_0, # of connection points: 2
#     Edge 25, Type (0, 1), BuildingBlock: EZIPEK_clean_linker_0, # of connection points: 2
#     Edge 26, Type (0, 1), BuildingBlock: EZIPEK_clean_linker_0, # of connection points: 2
#     Edge 27, Type (0, 1), BuildingBlock: EZIPEK_clean_linker_0, # of connection points: 2
#     Edge 28, Type (0, 1), BuildingBlock: EZIPEK_clean_linker_0, # of connection points: 2
#     Edge 29, Type (0, 1), BuildingBlock: EZIPEK_clean_linker_0, # of connection points: 2
#     Edge 30, Type (0, 1), BuildingBlock: EZIPEK_clean_linker_0, # of connection points: 2
#     Edge 31, Type (0, 1), BuildingBlock: EZIPEK_clean_linker_0, # of connection points: 2
#     Edge 32, Type (0, 1), BuildingBlock: EZIPEK_clean_linker_0, # of connection points: 2
#     Edge 33, Type (0, 1), BuildingBlock: EZIPEK_clean_linker_0, # of connection points: 2
#     Edge 34, Type (0, 1), BuildingBlock: EZIPEK_clean_linker_0, # of connection points: 2
#     Edge 35, Type (0, 1), BuildingBlock: EZIPEK_clean_linker_0, # of connection points: 2
# Relax obj value: 0.002
# Max RMSD: 0.101
# Mean RMSD: 0.066
data_MOF--net-nom--node1-CEKHIL_clean_sbu_0--node2-MIFKUJ_clean_linker_1--edge1-EZIPEK_clean_linker_0
_symmetry_space_group_name_H-M    P1
_symmetry_Int_Tables_number       1
_symmetry_cell_setting            triclinic
loop_
_symmetry_equiv_pos_as_xyz
'x, y, z'
_cell_length_a     41.701403
_cell_length_b     41.188636
_cell_length_c     43.769639
_cell_angle_alpha  89.987414
_cell_angle_beta   89.995455
_cell_angle_gamma 121.23552
loop_
_atom_site_label
_atom_site_type_symbol
_atom_site_fract_x
_atom_site_fract_y
_atom_site_fract_z
_atom_type_partial_charge
H0 H 0.98473 0.48068 0.2617 0.0
H1 H 0.94011 0.45355 0.21925 0.0
H2 H 0.88609 0.513 0.24977 0.0
H3 H 0.9314 0.54109 0.29203 0.0
H4 H 0.03619 0.55282 0.27643 0.0
H5 H 0.91782 0.4502 0.32417 0.0
H6 H 0.85132 0.42228 0.33793 0.0
H7 H 0.87802 0.5263 0.38325 0.0
H8 H 0.94433 0.55424 0.36958 0.0
H9 H 0.09449 0.62421 0.37281 0.0
H10 H 0.13797 0.64179 0.41624 0.0
H11 H 0.09259 0.52332 0.43635 0.0
H12 H 0.04872 0.50571 0.39329 0.0
H13 H 0.99365 0.52898 0.38433 0.0
H14 H 0.09261 0.63017 0.29762 0.0
H15 H 0.15933 0.66586 0.28341 0.0
H16 H 0.17119 0.57389 0.31616 0.0
H17 H 0.10454 0.53842 0.33097 0.0
C18 C 0.96127 0.51266 0.2803 0.0
C19 C 0.96354 0.48822 0.2592 0.0
C20 C 0.93807 0.47265 0.23505 0.0
C21 C 0.90984 0.4812 0.23152 0.0
C22 C 0.90768 0.50603 0.25225 0.0
C23 C 0.93338 0.52185 0.27639 0.0
C24 C 0.9881 0.52789 0.30635 0.0
C25 C 0.02676 0.54758 0.29999 0.0
C26 C 0.97607 0.52209 0.33721 0.0
C27 C 0.93597 0.50437 0.34574 0.0
C28 C 0.90934 0.467 0.337 0.0
C29 C 0.87153 0.45111 0.34481 0.0
C30 C 0.85991 0.47241 0.36142 0.0
C31 C 0.88651 0.50959 0.37031 0.0
C32 C 0.92426 0.52538 0.36264 0.0
C33 C 0.06836 0.56365 0.3799 0.0
C34 C 0.094 0.60204 0.3865 0.0
C35 C 0.11874 0.61206 0.41119 0.0
C36 C 0.11841 0.58382 0.42943 0.0
C37 C 0.09324 0.54546 0.4225 0.0
C38 C 0.06819 0.53547 0.39808 0.0
C39 C 0.04141 0.55268 0.35423 0.0
C40 C 1.00288 0.53411 0.36071 0.0
C41 C 0.05348 0.56041 0.32353 0.0
C42 C 0.09377 0.58175 0.31535 0.0
C43 C 0.10961 0.61776 0.30183 0.0
C44 C 0.14755 0.63811 0.29383 0.0
C45 C 0.17 0.62243 0.29877 0.0
C46 C 0.15421 0.58637 0.31224 0.0
C47 C 0.11634 0.56624 0.32066 0.0
H48 H 0.41082 0.92999 0.54019 0.0
H49 H 0.37517 0.86244 0.55367 0.0
H50 H 0.44784 0.84283 0.49674 0.0
H51 H 0.48421 0.91089 0.48351 0.0
H52 H 0.48471 0.98438 0.54814 0.0
H53 H 0.40322 0.90941 0.46411 0.0
H54 H 0.38345 0.86484 0.42153 0.0
H55 H 0.48312 0.94399 0.37169 0.0
H56 H 0.50581 0.98592 0.41602 0.0
H57 H 0.5755 0.10154 0.49565 0.0
H58 H 0.60337 0.16876 0.48163 0.0
H59 H 0.49616 0.14501 0.44795 0.0
H60 H 0.46822 0.07781 0.46184 0.0
H61 H 0.4876 0.02633 0.4415 0.0
H62 H 0.55906 0.04344 0.55598 0.0
H63 H 0.58725 0.08895 0.59825 0.0
H64 H 0.51108 0.1282 0.58123 0.0
H65 H 0.48293 0.0828 0.53869 0.0
C66 C 0.44998 0.92542 0.51064 0.0
C67 C 0.41944 0.91132 0.53086 0.0
C68 C 0.39901 0.87285 0.53845 0.0
C69 C 0.40881 0.84783 0.52601 0.0
C70 C 0.43988 0.86186 0.50641 0.0
C71 C 0.46054 0.90053 0.4989 0.0
C72 C 0.46952 0.96596 0.50145 0.0
C73 C 0.4856 0.99344 0.52471 0.0
C74 C 0.47094 0.97778 0.47067 0.0
C75 C 0.45684 0.95084 0.44413 0.0
C76 C 0.42177 0.9167 0.4447 0.0
C77 C 0.41006 0.8914 0.42004 0.0
C78 C 0.43176 0.90087 0.39324 0.0
C79 C 0.46597 0.93571 0.39211 0.0
C80 C 0.4787 0.95992 0.41742 0.0
C81 C 0.51974 0.08476 0.47992 0.0
C82 C 0.55795 0.11083 0.48539 0.0
C83 C 0.57385 0.14902 0.47736 0.0
C84 C 0.55171 0.16162 0.46383 0.0
C85 C 0.51356 0.13567 0.45841 0.0
C86 C 0.49773 0.09746 0.46624 0.0
C87 C 0.5027 0.04413 0.48808 0.0
C88 C 0.48704 0.01685 0.46472 0.0
C89 C 0.5024 0.03234 0.51843 0.0
C90 C 0.51905 0.05986 0.54407 0.0
C91 C 0.54839 0.0618 0.56132 0.0
C92 C 0.56453 0.08778 0.58531 0.0
C93 C 0.55132 0.11196 0.5927 0.0
C94 C 0.52171 0.10984 0.57574 0.0
C95 C 0.50577 0.08405 0.55151 0.0
H96 H 0.51863 0.54194 0.72386 0.0
H97 H 0.50399 0.57065 0.76662 0.0
H98 H 0.38584 0.49692 0.74888 0.0
H99 H 0.40038 0.46789 0.70609 0.0
H100 H 0.49958 0.46789 0.7147 0.0
H101 H 0.47555 0.55964 0.66136 0.0
H102 H 0.43666 0.58618 0.64697 0.0
H103 H 0.34843 0.47519 0.61811 0.0
H104 H 0.38745 0.44872 0.63202 0.0
H105 H 0.45255 0.40459 0.59209 0.0
H106 H 0.47806 0.38823 0.54802 0.0
H107 H 0.59047 0.4678 0.57877 0.0
H108 H 0.56506 0.48365 0.62309 0.0
H109 H 0.46117 0.47281 0.60833 0.0
H110 H 0.47729 0.37977 0.65425 0.0
H111 H 0.50613 0.34297 0.66836 0.0
H112 H 0.59642 0.44149 0.71285 0.0
H113 H 0.56732 0.47838 0.69901 0.0
C114 C 0.46065 0.50299 0.71157 0.0
C115 C 0.48955 0.53185 0.72915 0.0
C116 C 0.48125 0.5483 0.75345 0.0
C117 C 0.44388 0.53603 0.76074 0.0
C118 C 0.41484 0.5069 0.74344 0.0
C119 C 0.42317 0.49049 0.71903 0.0
C120 C 0.47005 0.48606 0.68563 0.0
C121 C 0.49161 0.46944 0.6914 0.0
C122 C 0.45788 0.48607 0.65543 0.0
C123 C 0.4343 0.50221 0.64779 0.0
C124 C 0.44778 0.54101 0.65208 0.0
C125 C 0.42569 0.55612 0.64388 0.0
C126 C 0.38976 0.53256 0.63154 0.0
C127 C 0.37608 0.49371 0.62766 0.0
C128 C 0.39832 0.47871 0.63549 0.0
C129 C 0.50689 0.44512 0.611 0.0
C130 C 0.48267 0.41836 0.58944 0.0
C131 C 0.49718 0.409 0.56437 0.0
C132 C 0.53614 0.42673 0.56021 0.0
C133 C 0.56035 0.45365 0.58167 0.0
C134 C 0.54585 0.46259 0.60694 0.0
C135 C 0.4918 0.45592 0.63729 0.0
C136 C 0.46913 0.47124 0.63163 0.0
C137 C 0.50179 0.45349 0.66771 0.0
C138 C 0.52028 0.43192 0.67542 0.0
C139 C 0.50347 0.39361 0.66681 0.0
C140 C 0.51981 0.37258 0.6749 0.0
C141 C 0.55339 0.38953 0.69159 0.0
C142 C 0.5705 0.42795 0.69995 0.0
C143 C 0.5539 0.44891 0.69213 0.0
H144 H 0.05094 0.54318 0.7645 0.0
H145 H 0.09481 0.57096 0.72155 0.0
H146 H 0.14096 0.50128 0.74335 0.0
H147 H 0.09643 0.47265 0.78604 0.0
H148 H 0.99584 0.47158 0.77603 0.0
H149 H 0.11681 0.56184 0.82346 0.0
H150 H 0.18277 0.58668 0.83705 0.0
H151 H 0.15183 0.47993 0.87959 0.0
H152 H 0.08604 0.45467 0.86551 0.0
H153 H 0.97852 0.41067 0.89931 0.0
H154 H 0.93609 0.39446 0.94326 0.0
H155 H 0.90425 0.47287 0.91131 0.0
H156 H 0.94615 0.48865 0.86717 0.0
H157 H 0.03938 0.47852 0.88261 0.0
H158 H 0.92852 0.38427 0.83513 0.0
H159 H 0.8621 0.34749 0.8206 0.0
H160 H 0.87196 0.44745 0.77947 0.0
H161 H 0.93883 0.48416 0.7934 0.0
C162 C 0.07058 0.50609 0.77877 0.0
C163 C 0.07028 0.53362 0.75999 0.0
C164 C 0.09533 0.54955 0.73557 0.0
C165 C 0.12113 0.53825 0.72945 0.0
C166 C 0.1213 0.51043 0.74787 0.0
C167 C 0.09604 0.49428 0.77225 0.0
C168 C 0.04411 0.49004 0.80503 0.0
C169 C 0.00552 0.47363 0.79935 0.0
C170 C 0.05637 0.49069 0.83539 0.0
C171 C 0.09646 0.50622 0.8432 0.0
C172 C 0.12422 0.54358 0.83536 0.0
C173 C 0.16176 0.55779 0.84314 0.0
C174 C 0.17199 0.535 0.85917 0.0
C175 C 0.14437 0.49779 0.86711 0.0
C176 C 0.10692 0.48353 0.8592 0.0
C177 C 0.9653 0.45064 0.87982 0.0
C178 C 0.96229 0.42424 0.90168 0.0
C179 C 0.9381 0.41497 0.92668 0.0
C180 C 0.91696 0.43239 0.93046 0.0
C181 C 0.92014 0.45896 0.90871 0.0
C182 C 0.94394 0.46785 0.88353 0.0
C183 C 0.99153 0.4613 0.85356 0.0
C184 C 0.02988 0.47657 0.85924 0.0
C185 C 0.97908 0.45843 0.82312 0.0
C186 C 0.93855 0.43698 0.81542 0.0
C187 C 0.91636 0.39836 0.82315 0.0
C188 C 0.87855 0.37738 0.81484 0.0
C189 C 0.86215 0.39475 0.79896 0.0
C190 C 0.88415 0.43355 0.79167 0.0
C191 C 0.92219 0.45442 0.79957 0.0
H192 H 0.63523 0.08312 0.03161 0.0
H193 H 0.67245 0.15069 0.04532 0.0
H194 H 0.5889 0.16874 0.00442 0.0
H195 H 0.55154 0.10107 0.99057 0.0
H196 H 0.56238 0.02867 0.04863 0.0
H197 H 0.63031 0.09198 0.95554 0.0
H198 H 0.64866 0.13543 0.91176 0.0
H199 H 0.53332 0.07956 0.88269 0.0
H200 H 0.51465 0.03663 0.92682 0.0
H201 H 0.46459 0.92488 0.95409 0.0
H202 H 0.43582 0.85756 0.94022 0.0
H203 H 0.52288 0.8525 0.98915 0.0
H204 H 0.5515 0.91962 0.00325 0.0
H205 H 0.53336 0.98543 0.94096 0.0
H206 H 0.46183 0.92741 0.02874 0.0
H207 H 0.43432 0.88336 0.07185 0.0
H208 H 0.54447 0.92734 0.11032 0.0
H209 H 0.57222 0.97172 0.06707 0.0
C210 C 0.59076 0.08715 0.0099 0.0
C211 C 0.62485 0.10157 0.02564 0.0
C212 C 0.64609 0.14 0.03337 0.0
C213 C 0.63334 0.16448 0.02579 0.0
C214 C 0.5991 0.15015 0.01037 0.0
C215 C 0.57793 0.11169 1.00243 0.0
C216 C 0.56877 0.04636 1.00152 0.0
C217 C 0.55648 0.01923 0.02506 0.0
C218 C 0.55945 0.03412 0.97081 0.0
C219 C 0.57098 0.06122 0.94475 0.0
C220 C 0.60882 0.08941 0.9401 0.0
C221 C 0.61935 0.11409 0.91509 0.0
C222 C 0.59228 0.11069 0.89415 0.0
C223 C 0.55452 0.08264 0.89871 0.0
C224 C 0.54397 0.05811 0.92378 0.0
C225 C 0.51005 0.92718 0.97983 0.0
C226 C 0.47745 0.90928 0.96186 0.0
C227 C 0.46102 0.87096 0.95404 0.0
C228 C 0.47726 0.85017 0.96373 0.0
C229 C 0.5099 0.86807 0.9816 0.0
C230 C 0.52612 0.90626 0.98965 0.0
C231 C 0.52784 0.96792 0.988 0.0
C232 C 0.53925 0.99496 0.96451 0.0
C233 C 0.53537 0.98016 0.01874 0.0
C234 C 0.51915 0.95277 0.04455 0.0
C235 C 0.48019 0.92739 0.04624 0.0
C236 C 0.46447 0.90233 0.07083 0.0
C237 C 0.48737 0.90217 0.09424 0.0
C238 C 0.52637 0.92711 0.09246 0.0
C239 C 0.54213 0.95245 0.0679 0.0
H240 H 0.51592 0.47615 0.22744 0.0
H241 H 0.53193 0.44809 0.26979 0.0
H242 H 0.64836 0.51267 0.24352 0.0
H243 H 0.63261 0.5416 0.20141 0.0
H244 H 0.53681 0.54841 0.21517 0.0
H245 H 0.55676 0.45255 0.16696 0.0
H246 H 0.59467 0.42485 0.15295 0.0
H247 H 0.67394 0.52881 0.10724 0.0
H248 H 0.63667 0.55692 0.12175 0.0
H249 H 0.57779 0.60242 0.08914 0.0
H250 H 0.5526 0.62052 0.04597 0.0
H251 H 0.44151 0.55518 0.08421 0.0
H252 H 0.46645 0.53672 0.1273 0.0
H253 H 0.56563 0.53608 0.10736 0.0
H254 H 0.55898 0.63541 0.15539 0.0
H255 H 0.53279 0.67436 0.17066 0.0
H256 H 0.44095 0.57731 0.21542 0.0
H257 H 0.46763 0.53849 0.20073 0.0
C258 C 0.57296 0.5107 0.21097 0.0
C259 C 0.54495 0.48454 0.23084 0.0
C260 C 0.55402 0.46846 0.25493 0.0
C261 C 0.59124 0.47824 0.25962 0.0
C262 C 0.61946 0.50472 0.24012 0.0
C263 C 0.61041 0.52103 0.21607 0.0
C264 C 0.56253 0.5269 0.18509 0.0
C265 C 0.54272 0.54524 0.19158 0.0
C266 C 0.57189 0.52458 0.15434 0.0
C267 C 0.59406 0.50701 0.14569 0.0
C268 C 0.58245 0.46954 0.15417 0.0
C269 C 0.60394 0.45369 0.14611 0.0
C270 C 0.63709 0.47489 0.12915 0.0
C271 C 0.6485 0.51211 0.1204 0.0
C272 C 0.62716 0.52801 0.12857 0.0
C273 C 0.52413 0.56848 0.11167 0.0
C274 C 0.54802 0.59196 0.08829 0.0
C275 C 0.53371 0.60232 0.06372 0.0
C276 C 0.49525 0.58912 0.06198 0.0
C277 C 0.47127 0.56563 0.08523 0.0
C278 C 0.48558 0.55535 0.10985 0.0
C279 C 0.53913 0.55663 0.13746 0.0
C280 C 0.55976 0.53921 0.13097 0.0
C281 C 0.53177 0.56094 0.16826 0.0
C282 C 0.51512 0.58399 0.17679 0.0
C283 C 0.53313 0.62245 0.16839 0.0
C284 C 0.51828 0.64468 0.17713 0.0
C285 C 0.48491 0.62869 0.19411 0.0
C286 C 0.46673 0.59016 0.20233 0.0
C287 C 0.48192 0.56807 0.19399 0.0
Co288 Co 0.64384 0.37957 0.41127 0.0
O289 O 0.67885 0.37582 0.38486 0.0
O290 O 0.69361 0.42351 0.41661 0.0
C291 C 0.61586 0.31912 0.42864 0.0
O292 O 0.61667 0.39315 0.44304 0.0
Co293 Co 0.55853 0.33081 0.40134 0.0
O294 O 0.5548 0.35035 0.44177 0.0
C295 C 0.6041 0.39541 0.36035 0.0
C296 C 0.70441 0.40791 0.39649 0.0
C297 C 0.58331 0.37873 0.45391 0.0
O298 O 0.63277 0.40623 0.37777 0.0
O299 O 0.57272 0.36447 0.36433 0.0
O300 O 0.64682 0.34571 0.44084 0.0
O301 O 0.60399 0.32906 0.40523 0.0
Co302 Co 0.27472 0.63019 0.5778 0.0
O303 O 0.31219 0.63193 0.60473 0.0
O304 O 0.27642 0.58435 0.57338 0.0
C305 C 0.31163 0.68995 0.5598 0.0
O306 O 0.23418 0.61838 0.54587 0.0
Co307 Co 0.24414 0.68352 0.58616 0.0
O308 O 0.22212 0.66557 0.54495 0.0
C309 C 0.21938 0.61868 0.62802 0.0
C310 C 0.30308 0.59904 0.59365 0.0
C311 C 0.21848 0.63525 0.53384 0.0
O312 O 0.23582 0.60601 0.61121 0.0
O313 O 0.22165 0.65049 0.62335 0.0
O314 O 0.31355 0.66201 0.54818 0.0
O315 O 0.2895 0.68159 0.583 0.0
Co316 Co 0.64637 0.2686 0.74395 0.0
O317 O 0.65041 0.30778 0.7171 0.0
O318 O 0.60288 0.27337 0.74846 0.0
C319 C 0.70607 0.30324 0.76145 0.0
O320 O 0.63234 0.22721 0.7761 0.0
Co321 Co 0.6947 0.23244 0.73607 0.0
O322 O 0.67606 0.21096 0.77734 0.0
C323 C 0.6311 0.21059 0.6943 0.0
C324 C 0.61844 0.30035 0.72824 0.0
C325 C 0.64714 0.20962 0.78839 0.0
O326 O 0.62057 0.22942 0.7106 0.0
O327 O 0.66121 0.21033 0.69931 0.0
O328 O 0.67976 0.30728 0.77329 0.0
O329 O 0.69606 0.28014 0.73857 0.0
Co330 Co 0.38727 0.63195 0.91142 0.0
O331 O 0.35143 0.63163 0.88341 0.0
O332 O 0.33879 0.58622 0.91702 0.0
C333 C 0.41153 0.69259 0.92703 0.0
O334 O 0.41621 0.62345 0.9452 0.0
Co335 Co 0.47255 0.68503 0.90087 0.0
O336 O 0.47809 0.66602 0.94095 0.0
C337 C 0.42982 0.61822 0.86163 0.0
C338 C 0.32692 0.59958 0.89581 0.0
C339 C 0.45029 0.63878 0.95485 0.0
O340 O 0.40159 0.60576 0.87982 0.0
O341 O 0.45968 0.65084 0.86439 0.0
O342 O 0.38053 0.66536 0.93872 0.0
O343 O 0.42503 0.68278 0.90466 0.0
Co344 Co 0.75872 0.38305 0.07828 0.0
O345 O 0.71914 0.37835 0.10432 0.0
O346 O 0.75334 0.42669 0.07311 0.0
C347 C 0.72586 0.32278 0.06035 0.0
O348 O 0.80047 0.39761 0.0469 0.0
Co349 Co 0.79505 0.33526 0.08852 0.0
O350 O 0.81974 0.3558 0.04854 0.0
C351 C 0.81392 0.39899 0.1299 0.0
C352 C 0.72639 0.41059 0.09303 0.0
C353 C 0.81986 0.38392 0.03633 0.0
O354 O 0.79639 0.40966 0.11226 0.0
O355 O 0.81414 0.36835 0.12588 0.0
O356 O 0.7218 0.3492 0.04822 0.0
O357 O 0.74746 0.33271 0.08405 0.0
Co358 Co 0.38554 0.74415 0.24438 0.0
O359 O 0.38593 0.70709 0.2177 0.0
O360 O 0.43016 0.74182 0.25153 0.0
C361 C 0.32538 0.70779 0.25965 0.0
O362 O 0.39364 0.78326 0.2771 0.0
Co363 Co 0.33522 0.77684 0.23028 0.0
O364 O 0.35591 0.80614 0.2685 0.0
C365 C 0.40256 0.80176 0.19347 0.0
C366 C 0.41738 0.71561 0.23058 0.0
C367 C 0.38057 0.80454 0.2845 0.0
O368 O 0.41303 0.7849 0.21218 0.0
O369 O 0.37088 0.79949 0.19513 0.0
O370 O 0.35147 0.70407 0.27231 0.0
O371 O 0.33567 0.73031 0.23631 0.0
C372 C 0.21907 0.64272 0.25794 0.0
C373 C 0.20996 0.64355 0.28906 0.0
C374 C 0.27643 0.68772 0.30086 0.0
C375 C 0.28573 0.6854 0.27 0.0
N376 N 0.26708 0.65426 0.22095 0.0
N377 N 0.22956 0.66228 0.34116 0.0
C378 C 0.25735 0.66128 0.24896 0.0
C379 C 0.23858 0.66461 0.31086 0.0
N380 N 0.19106 0.62435 0.23687 0.0
N381 N 0.30346 0.71324 0.3203 0.0
H382 H 0.20202 0.64721 0.34918 0.0
H383 H 0.24935 0.67309 0.35863 0.0
H384 H 0.33143 0.73072 0.31397 0.0
H385 H 0.29786 0.71948 0.34197 0.0
H386 H 0.19567 0.62682 0.21338 0.0
H387 H 0.16272 0.60847 0.24271 0.0
H388 H 0.24799 0.63379 0.20588 0.0
H389 H 0.29481 0.66615 0.2138 0.0
C390 C 0.58246 0.21372 0.42487 0.0
C391 C 0.56854 0.20205 0.45496 0.0
C392 C 0.58248 0.26624 0.46692 0.0
C393 C 0.59898 0.27867 0.43761 0.0
N394 N 0.62082 0.266 0.39059 0.0
N395 N 0.55987 0.21762 0.50618 0.0
C396 C 0.60053 0.25286 0.41702 0.0
C397 C 0.56999 0.22849 0.47649 0.0
N398 N 0.57796 0.18729 0.40367 0.0
N399 N 0.57716 0.29001 0.48506 0.0
H400 H 0.54944 0.18991 0.51381 0.0
H401 H 0.56437 0.23657 0.52375 0.0
H402 H 0.58521 0.31741 0.47836 0.0
H403 H 0.56185 0.28163 0.50531 0.0
H404 H 0.58334 0.19323 0.38047 0.0
H405 H 0.56628 0.1586 0.40886 0.0
H406 H 0.62656 0.2494 0.37635 0.0
H407 H 0.63483 0.29447 0.38408 0.0
C408 C 0.36624 0.55763 0.59045 0.0
C409 C 0.36677 0.54878 0.62174 0.0
C410 C 0.32184 0.56855 0.63378 0.0
C411 C 0.3236 0.58011 0.60296 0.0
N412 N 0.35141 0.59113 0.55283 0.0
N413 N 0.34851 0.54902 0.67396 0.0
C414 C 0.34664 0.57587 0.58144 0.0
C415 C 0.34555 0.5552 0.64366 0.0
N416 N 0.38439 0.54842 0.56929 0.0
N417 N 0.29645 0.56902 0.65329 0.0
H418 H 0.36424 0.53767 0.68191 0.0
H419 H 0.3374 0.55734 0.69146 0.0
H420 H 0.27848 0.57833 0.64677 0.0
H421 H 0.2909 0.55738 0.67514 0.0
H422 H 0.38124 0.54969 0.54581 0.0
H423 H 0.40085 0.53706 0.5751 0.0
H424 H 0.3712 0.59305 0.53727 0.0
H425 H 0.33767 0.60476 0.54529 0.0
C426 C 0.79331 0.35566 0.81179 0.0
C427 C 0.82208 0.37193 0.78941 0.0
C428 C 0.77444 0.34729 0.74904 0.0
C429 C 0.74599 0.32687 0.7712 0.0
N430 N 0.72985 0.30577 0.82341 0.0
N431 N 0.84018 0.37634 0.73644 0.0
C432 C 0.7558 0.32952 0.80257 0.0
C433 C 0.81271 0.36576 0.75792 0.0
N434 N 0.80157 0.36591 0.84177 0.0
N435 N 0.76511 0.35083 0.7198 0.0
H436 H 0.86854 0.38923 0.74196 0.0
H437 H 0.83446 0.3689 0.71347 0.0
H438 H 0.73753 0.33965 0.71257 0.0
H439 H 0.78486 0.36853 0.70366 0.0
H440 H 0.78111 0.35778 0.85859 0.0
H441 H 0.82859 0.38554 0.84933 0.0
H442 H 0.73638 0.3039 0.84607 0.0
H443 H 0.70273 0.285 0.81722 0.0
C444 C 0.46126 0.80054 0.92351 0.0
C445 C 0.46048 0.80975 0.95459 0.0
C446 C 0.43087 0.74244 0.96828 0.0
C447 C 0.42816 0.73287 0.93673 0.0
N448 N 0.43112 0.75298 0.88426 0.0
N449 N 0.43804 0.78899 0.00589 0.0
C450 C 0.44076 0.76195 0.91427 0.0
C451 C 0.44337 0.78054 0.97682 0.0
N452 N 0.48224 0.82855 0.90283 0.0
N453 N 0.42296 0.71567 0.9902 0.0
H454 H 0.44658 0.8165 0.01297 0.0
H455 H 0.42213 0.76838 0.02218 0.0
H456 H 0.41467 0.68766 0.98525 0.0
H457 H 0.42838 0.72212 0.01334 0.0
H458 H 0.48684 0.82292 0.88057 0.0
H459 H 0.49804 0.85722 0.90871 0.0
H460 H 0.43672 0.77333 0.86759 0.0
H461 H 0.41348 0.72529 0.87656 0.0
C462 C 0.69429 0.4697 0.13521 0.0
C463 C 0.65983 0.45806 0.12012 0.0
C464 C 0.66805 0.41356 0.08864 0.0
C465 C 0.7039 0.42749 0.10196 0.0
N466 N 0.75349 0.47159 0.13524 0.0
N467 N 0.61629 0.42335 0.07948 0.0
C468 C 0.71776 0.45648 0.12443 0.0
C469 C 0.64728 0.4311 0.09605 0.0
N470 N 0.70387 0.49228 0.16056 0.0
N471 N 0.65362 0.3832 0.0692 0.0
H472 H 0.60027 0.43551 0.08425 0.0
H473 H 0.60807 0.40727 0.05953 0.0
H474 H 0.66855 0.37058 0.0622 0.0
H475 H 0.62594 0.36879 0.06161 0.0
H476 H 0.72655 0.49856 0.17456 0.0
H477 H 0.68732 0.50237 0.16917 0.0
H478 H 0.76682 0.49558 0.14909 0.0
H479 H 0.77097 0.4617 0.12864 0.0
C480 C 0.39253 0.79308 0.56091 0.0
C481 C 0.38576 0.80671 0.53339 0.0
C482 C 0.33314 0.74281 0.5214 0.0
C483 C 0.33766 0.72992 0.55027 0.0
N484 N 0.37044 0.74245 0.59834 0.0
N485 N 0.3484 0.79636 0.48836 0.0
C486 C 0.36704 0.755 0.57028 0.0
C487 C 0.35586 0.78199 0.51376 0.0
N488 N 0.424 0.8164 0.57762 0.0
N489 N 0.30721 0.71751 0.50123 0.0
H490 H 0.36507 0.82463 0.48155 0.0
H491 H 0.3245 0.78107 0.47498 0.0
H492 H 0.28896 0.6891 0.50664 0.0
H493 H 0.30524 0.7239 0.47856 0.0
H494 H 0.433 0.80737 0.59616 0.0
H495 H 0.44299 0.84453 0.57157 0.0
H496 H 0.38795 0.76023 0.61554 0.0
H497 H 0.35438 0.71417 0.6052 0.0
C498 C 0.58476 0.35293 0.67854 0.0
C499 C 0.57008 0.36665 0.70096 0.0
C500 C 0.59023 0.33983 0.74136 0.0
C501 C 0.60114 0.32257 0.71885 0.0
N502 N 0.60156 0.30639 0.66587 0.0
N503 N 0.55177 0.36635 0.75333 0.0
C504 C 0.59645 0.3274 0.68735 0.0
C505 C 0.57074 0.35811 0.73228 0.0
N506 N 0.58859 0.36516 0.64899 0.0
N507 N 0.6001 0.34058 0.77125 0.0
H508 H 0.53668 0.37926 0.74761 0.0
H509 H 0.548 0.35709 0.77592 0.0
H510 H 0.6157 0.32894 0.77884 0.0
H511 H 0.59625 0.35623 0.78798 0.0
H512 H 0.60265 0.35918 0.63234 0.0
H513 H 0.58083 0.38425 0.64173 0.0
H514 H 0.59488 0.30597 0.64289 0.0
H515 H 0.6088 0.28637 0.6714 0.0
C516 C 0.23725 0.54918 0.84829 0.0
C517 C 0.21155 0.55053 0.86873 0.0
C518 C 0.26034 0.57937 0.90822 0.0
C519 C 0.28677 0.58049 0.88707 0.0
N520 N 0.30185 0.56895 0.8366 0.0
N521 N 0.19858 0.57018 0.91666 0.0
C522 C 0.27562 0.56611 0.85695 0.0
C523 C 0.22304 0.56632 0.89838 0.0
N524 N 0.22464 0.53083 0.82091 0.0
N525 N 0.27095 0.59094 0.93773 0.0
H526 H 0.17085 0.56032 0.9105 0.0
H527 H 0.20618 0.5854 0.93702 0.0
H528 H 0.29847 0.60314 0.94544 0.0
H529 H 0.25221 0.58651 0.95522 0.0
H530 H 0.24073 0.52516 0.80619 0.0
H531 H 0.19697 0.51892 0.81358 0.0
H532 H 0.29687 0.56345 0.81333 0.0
H533 H 0.32953 0.57851 0.84272 0.0
C534 C 0.68294 0.23163 0.01324 0.0
C535 C 0.65609 0.20528 0.03418 0.0
C536 C 0.6726 0.2566 0.07091 0.0
C537 C 0.70188 0.28235 0.05118 0.0
N538 N 0.73833 0.29373 0.00543 0.0
N539 N 0.62759 0.19106 0.08411 0.0
C540 C 0.70785 0.26973 0.02274 0.0
C541 C 0.65156 0.21732 0.06337 0.0
N542 N 0.68432 0.22027 0.98415 0.0
N543 N 0.66385 0.26994 0.09623 0.0
H544 H 0.61056 0.16225 0.07901 0.0
H545 H 0.62635 0.1973 0.10697 0.0
H546 H 0.67842 0.29849 0.10251 0.0
H547 H 0.64022 0.25339 0.10965 0.0
H548 H 0.70025 0.23895 0.96674 0.0
H549 H 0.66733 0.19233 0.97666 0.0
H550 H 0.74677 0.28536 0.98612 0.0
H551 H 0.75715 0.32157 0.01193 0.0
C552 C 0.4558 0.66751 0.18112 0.0
C553 C 0.46914 0.65243 0.20353 0.0
C554 C 0.44754 0.67781 0.24405 0.0
C555 C 0.4373 0.69577 0.22164 0.0
N556 N 0.44059 0.71538 0.1692 0.0
N557 N 0.48561 0.65083 0.25614 0.0
C558 C 0.44402 0.69284 0.19024 0.0
C559 C 0.46742 0.6599 0.23497 0.0
N560 N 0.45305 0.65662 0.15126 0.0
N561 N 0.43661 0.67596 0.27376 0.0
H562 H 0.50102 0.63828 0.25037 0.0
H563 H 0.4885 0.65916 0.27894 0.0
H564 H 0.42097 0.68753 0.28137 0.0
H565 H 0.43987 0.65968 0.29028 0.0
H566 H 0.43993 0.66372 0.13456 0.0
H567 H 0.46065 0.63752 0.14368 0.0
H568 H 0.44852 0.71703 0.14642 0.0
H569 H 0.43381 0.73559 0.17524 0.0
C570 C 0.80826 0.44069 0.40016 0.0
C571 C 0.81991 0.45564 0.37026 0.0
C572 C 0.75595 0.43999 0.35773 0.0
C573 C 0.74435 0.42518 0.38769 0.0
N574 N 0.75876 0.4135 0.43837 0.0
N575 N 0.80554 0.46694 0.31949 0.0
C576 C 0.77037 0.42619 0.4092 0.0
C577 C 0.7939 0.45459 0.34872 0.0
N578 N 0.83321 0.43884 0.41935 0.0
N579 N 0.73095 0.44167 0.3385 0.0
H580 H 0.83338 0.47926 0.31249 0.0
H581 H 0.78771 0.46354 0.30156 0.0
H582 H 0.70309 0.43149 0.34444 0.0
H583 H 0.73786 0.45506 0.31734 0.0
H584 H 0.8262 0.42508 0.44036 0.0
H585 H 0.86115 0.44927 0.41353 0.0
H586 H 0.77666 0.41712 0.4563 0.0
H587 H 0.73086 0.40053 0.44533 0.0
C588 C 0.12915 0.59376 0.48606 0.0
C589 C 0.14355 0.59442 0.45652 0.0
C590 C 0.20512 0.61376 0.47873 0.0
C591 C 0.19194 0.6172 0.5078 0.0
N592 N 0.14127 0.60871 0.54009 0.0
N593 N 0.19522 0.60695 0.42381 0.0
C594 C 0.15379 0.60649 0.51171 0.0
C595 C 0.18152 0.60479 0.45262 0.0
N596 N 0.09172 0.58056 0.48955 0.0
N597 N 0.23992 0.61837 0.47613 0.0
H598 H 0.17843 0.59893 0.4043 0.0
H599 H 0.22356 0.6189 0.41886 0.0
H600 H 0.25803 0.62488 0.49456 0.0
H601 H 0.2498 0.61253 0.45632 0.0
H602 H 0.07822 0.57519 0.51054 0.0
H603 H 0.07323 0.57297 0.47121 0.0
H604 H 0.11558 0.60633 0.54427 0.0
H605 H 0.15715 0.61394 0.55989 0.0
C606 C 0.55717 0.12578 0.64907 0.0
C607 C 0.56841 0.139 0.61869 0.0
C608 C 0.61813 0.20094 0.63801 0.0
C609 C 0.60723 0.1875 0.66837 0.0
N610 N 0.56311 0.14034 0.70338 0.0
N611 N 0.60478 0.19037 0.58361 0.0
C612 C 0.57556 0.15091 0.67405 0.0
C613 C 0.59737 0.17708 0.61299 0.0
N614 N 0.52962 0.08878 0.65395 0.0
N615 N 0.649 0.23621 0.63324 0.0
H616 H 0.59099 0.17336 0.56472 0.0
H617 H 0.62274 0.21873 0.57783 0.0
H618 H 0.66351 0.25515 0.65098 0.0
H619 H 0.66137 0.24634 0.61198 0.0
H620 H 0.52293 0.07575 0.67528 0.0
H621 H 0.51425 0.07018 0.63625 0.0
H622 H 0.53813 0.11569 0.70911 0.0
H623 H 0.57657 0.15761 0.72223 0.0
C624 C 0.44121 0.54528 0.81719 0.0
C625 C 0.43554 0.55363 0.7869 0.0
C626 C 0.4179 0.59801 0.80677 0.0
C627 C 0.4285 0.59343 0.83651 0.0
N628 N 0.45276 0.56503 0.87029 0.0
N629 N 0.42129 0.58993 0.75217 0.0
C630 C 0.4406 0.56747 0.84185 0.0
C631 C 0.42425 0.58027 0.78149 0.0
N632 N 0.44641 0.51559 0.82237 0.0
N633 N 0.40145 0.61906 0.80283 0.0
H634 H 0.42543 0.57741 0.73306 0.0
H635 H 0.41731 0.61218 0.74666 0.0
H636 H 0.39689 0.63277 0.82085 0.0
H637 H 0.38946 0.62033 0.78234 0.0
H638 H 0.44697 0.50555 0.84407 0.0
H639 H 0.44686 0.49868 0.80483 0.0
H640 H 0.46604 0.55004 0.87494 0.0
H641 H 0.45184 0.58016 0.88903 0.0
C642 C 0.85253 0.40384 0.9539 0.0
C643 C 0.89208 0.42334 0.95762 0.0
C644 C 0.88434 0.42073 0.01337 0.0
C645 C 0.84486 0.40216 0.00955 0.0
N646 N 0.79254 0.38628 0.97634 0.0
N647 N 0.94589 0.45866 0.99031 0.0
C648 C 0.82932 0.39711 0.97985 0.0
C649 C 0.90809 0.43427 0.98723 0.0
N650 N 0.83697 0.39003 0.92585 0.0
N651 N 0.89913 0.4252 0.04202 0.0
H652 H 0.96405 0.46969 0.97166 0.0
H653 H 0.95886 0.47074 0.01103 0.0
H654 H 0.88296 0.4183 0.06183 0.0
H655 H 0.92709 0.43404 0.04613 0.0
H656 H 0.80826 0.37202 0.92242 0.0
H657 H 0.85289 0.39365 0.90637 0.0
H658 H 0.7806 0.3855 0.95525 0.0
H659 H 0.77492 0.38197 0.99475 0.0
C660 C 0.45308 0.83662 0.1171 0.0
C661 C 0.46992 0.87644 0.12097 0.0
C662 C 0.45007 0.86654 0.17469 0.0
C663 C 0.42893 0.82683 0.16953 0.0
N664 N 0.40751 0.77351 0.13555 0.0
N665 N 0.48116 0.92951 0.15242 0.0
C666 C 0.4299 0.81164 0.1407 0.0
C667 C 0.46791 0.89154 0.14961 0.0
N668 N 0.45979 0.82281 0.09101 0.0
N669 N 0.45322 0.88029 0.20367 0.0
H670 H 0.49419 0.94884 0.13462 0.0
H671 H 0.47661 0.94152 0.17162 0.0
H672 H 0.44019 0.86271 0.22249 0.0
H673 H 0.47133 0.90863 0.20952 0.0
H674 H 0.45132 0.7944 0.08792 0.0
H675 H 0.47676 0.84039 0.07337 0.0
H676 H 0.40365 0.7611 0.11409 0.0
H677 H 0.39079 0.75437 0.15251 0.0
C678 C 0.6013 0.42683 0.27938 0.0
C679 C 0.60019 0.46017 0.285 0.0
C680 C 0.60559 0.45332 0.34019 0.0
C681 C 0.60686 0.42006 0.33453 0.0
N682 N 0.61445 0.3798 0.29917 0.0
N683 N 0.60892 0.50971 0.31943 0.0
C684 C 0.60737 0.40828 0.30418 0.0
C685 C 0.60485 0.4749 0.31505 0.0
N686 N 0.59517 0.41216 0.25048 0.0
N687 N 0.60333 0.46326 0.36957 0.0
H688 H 0.60803 0.52596 0.30153 0.0
H689 H 0.61621 0.52392 0.34028 0.0
H690 H 0.6048 0.44877 0.38855 0.0
H691 H 0.59773 0.48437 0.37524 0.0
H692 H 0.59117 0.38562 0.24539 0.0
H693 H 0.59179 0.42557 0.2316 0.0
H694 H 0.6189 0.37223 0.2776 0.0
H695 H 0.61919 0.36586 0.31691 0.0
C696 C 0.44195 0.86389 0.3519 0.0
C697 C 0.41837 0.87494 0.36606 0.0
C698 C 0.36809 0.83297 0.33095 0.0
C699 C 0.39369 0.82766 0.31324 0.0
N700 N 0.45877 0.84768 0.30399 0.0
N701 N 0.36163 0.87719 0.36252 0.0
C702 C 0.43175 0.8457 0.3229 0.0
C703 C 0.38216 0.86159 0.35372 0.0
N704 N 0.47352 0.86969 0.36634 0.0
N705 N 0.33024 0.80989 0.3272 0.0
H706 H 0.37179 0.90013 0.3775 0.0
H707 H 0.33637 0.87023 0.35206 0.0
H708 H 0.31817 0.78645 0.31269 0.0
H709 H 0.31092 0.8112 0.34148 0.0
H710 H 0.48978 0.8592 0.35787 0.0
H711 H 0.48092 0.88098 0.38831 0.0
H712 H 0.48722 0.86333 0.30946 0.0
H713 H 0.4536 0.83804 0.2815 0.0
C714 C 0.54584 0.42802 0.50334 0.0
C715 C 0.55154 0.41772 0.53291 0.0
C716 C 0.58802 0.39237 0.51034 0.0
C717 C 0.57678 0.39668 0.48076 0.0
N718 N 0.54447 0.41821 0.44861 0.0
N719 N 0.5741 0.38566 0.56451 0.0
C720 C 0.55555 0.41446 0.47713 0.0
C721 C 0.57184 0.39894 0.53646 0.0
N722 N 0.53239 0.45189 0.50034 0.0
N723 N 0.6144 0.38243 0.51357 0.0
H724 H 0.56199 0.38913 0.58412 0.0
H725 H 0.58499 0.36817 0.56786 0.0
H726 H 0.62758 0.37836 0.49503 0.0
H727 H 0.62611 0.38223 0.53454 0.0
H728 H 0.53116 0.46355 0.47959 0.0
H729 H 0.52569 0.46299 0.51902 0.0
H730 H 0.52503 0.42642 0.44475 0.0
H731 H 0.55337 0.4113 0.4287 0.0
C732 C 0.13627 0.54246 0.6735 0.0
C733 C 0.14805 0.55603 0.70368 0.0
C734 C 0.2094 0.60576 0.68423 0.0
C735 C 0.19591 0.59513 0.65393 0.0
N736 N 0.1461 0.55516 0.61906 0.0
N737 N 0.19458 0.6017 0.73826 0.0
C738 C 0.15933 0.5637 0.64835 0.0
C739 C 0.18442 0.58784 0.70922 0.0
N740 N 0.10322 0.50897 0.669 0.0
N741 N 0.24635 0.63245 0.68902 0.0
H742 H 0.17749 0.5887 0.75724 0.0
H743 H 0.21887 0.62735 0.74344 0.0
H744 H 0.2653 0.64605 0.67117 0.0
H745 H 0.25901 0.63884 0.71044 0.0
H746 H 0.09472 0.49539 0.64794 0.0
H747 H 0.08549 0.493 0.68691 0.0
H748 H 0.11829 0.53561 0.61357 0.0
H749 H 0.16249 0.56943 0.60004 0.0
C750 C 0.60814 0.17206 0.86855 0.0
C751 C 0.60367 0.13553 0.86665 0.0
C752 C 0.61838 0.14506 0.81196 0.0
C753 C 0.62811 0.18348 0.81469 0.0
N754 N 0.6322 0.2341 0.84557 0.0
N755 N 0.60755 0.08803 0.83749 0.0
C756 C 0.62256 0.19706 0.84291 0.0
C757 C 0.60949 0.12219 0.83857 0.0
N758 N 0.5979 0.1825 0.89473 0.0
N759 N 0.61602 0.12994 0.78363 0.0
H760 H 0.60032 0.07001 0.85632 0.0
H761 H 0.61588 0.07882 0.81861 0.0
H762 H 0.62077 0.14539 0.76351 0.0
H763 H 0.60545 0.10118 0.77982 0.0
H764 H 0.59646 0.2069 0.89667 0.0
H765 H 0.58812 0.16527 0.9141 0.0
H766 H 0.63389 0.2472 0.86633 0.0
H767 H 0.64009 0.25253 0.82705 0.0
C768 C 0.48268 0.63571 0.036 0.0
C769 C 0.48026 0.60012 0.03566 0.0
C770 C 0.45183 0.58701 0.98449 0.0
C771 C 0.4582 0.62445 0.98343 0.0
N772 N 0.48313 0.68603 0.00707 0.0
N773 N 0.46547 0.54269 0.00928 0.0
C774 C 0.47452 0.64922 0.00892 0.0
C775 C 0.46531 0.57581 0.00991 0.0
N776 N 0.49202 0.65625 0.0625 0.0
N777 N 0.43329 0.56225 0.96108 0.0
H778 H 0.47422 0.53313 0.02772 0.0
H779 H 0.45931 0.52578 0.98993 0.0
H780 H 0.42508 0.56984 0.94118 0.0
H781 H 0.42384 0.53341 0.96205 0.0
H782 H 0.49013 0.68029 0.06538 0.0
H783 H 0.49862 0.64743 0.08266 0.0
H784 H 0.49916 0.70666 0.02328 0.0
H785 H 0.47646 0.69691 0.98828 0.0
C786 C 0.8924 0.47919 0.17636 0.0
C787 C 0.88238 0.4634 0.20612 0.0
C788 C 0.82317 0.41045 0.18626 0.0
C789 C 0.83563 0.42343 0.15608 0.0
N790 N 0.88275 0.46887 0.12168 0.0
N791 N 0.83931 0.41346 0.23991 0.0
C792 C 0.87022 0.45776 0.15091 0.0
C793 C 0.84784 0.42903 0.21128 0.0
N794 N 0.92301 0.51484 0.17255 0.0
N795 N 0.7874 0.38077 0.19094 0.0
H796 H 0.85608 0.42684 0.25896 0.0
H797 H 0.81685 0.38631 0.24458 0.0
H798 H 0.76865 0.36676 0.17305 0.0
H799 H 0.77517 0.37214 0.21243 0.0
H800 H 0.9298 0.52966 0.15198 0.0
H801 H 0.94001 0.53104 0.1907 0.0
H802 H 0.90964 0.491 0.11633 0.0
H803 H 0.86701 0.45438 0.10248 0.0
loop_
_geom_bond_atom_site_label_1
_geom_bond_atom_site_label_2
_geom_bond_distance
_geom_bond_site_symmetry_2
_ccdc_geom_bond_type
H0 C19 0.949 . S
H1 C20 0.950 . S
H2 C22 0.950 . S
H3 C23 0.950 . S
H4 C25 0.950 . S
H5 C28 0.950 . S
H6 C29 0.950 . S
H7 C31 0.951 . S
H8 C32 0.949 . S
H9 C34 0.949 . S
H10 C35 0.950 . S
H11 C37 0.950 . S
H12 C38 0.950 . S
H13 C40 0.950 1_655 S
H14 C43 0.950 . S
H15 C44 0.950 . S
H16 C46 0.951 . S
H17 C47 0.949 . S
C18 C19 1.376 . S
C18 C23 1.386 . S
C18 C24 1.483 . S
C19 H0 0.949 . S
C19 C18 1.376 . S
C19 C20 1.397 . S
C20 H1 0.950 . S
C20 C19 1.397 . S
C20 C21 1.391 . S
C21 C20 1.391 . S
C21 C22 1.405 . S
C22 H2 0.950 . S
C22 C21 1.405 . S
C22 C23 1.367 . S
C23 H3 0.950 . S
C23 C18 1.386 . S
C23 C22 1.367 . S
C24 C18 1.483 . S
C24 C25 1.382 1_655 S
C24 C26 1.403 . S
C25 H4 0.950 . S
C25 C24 1.382 1_455 S
C25 C41 1.411 . S
C26 C24 1.403 . S
C26 C27 1.489 . S
C26 C40 1.411 1_655 S
C27 C26 1.489 . S
C27 C28 1.383 . S
C27 C32 1.382 . S
C28 H5 0.950 . S
C28 C27 1.383 . S
C28 C29 1.395 . S
C29 H6 0.950 . S
C29 C28 1.395 . S
C29 C30 1.288 . S
C30 C29 1.288 . S
C30 C31 1.392 . S
C31 H7 0.951 . S
C31 C30 1.392 . S
C31 C32 1.392 . S
C32 H8 0.949 . S
C32 C27 1.382 . S
C32 C31 1.392 . S
C33 C34 1.376 . S
C33 C38 1.386 . S
C33 C39 1.483 . S
C34 H9 0.949 . S
C34 C33 1.376 . S
C34 C35 1.397 . S
C35 H10 0.950 . S
C35 C34 1.397 . S
C35 C36 1.391 . S
C36 C35 1.391 . S
C36 C37 1.405 . S
C37 H11 0.950 . S
C37 C36 1.405 . S
C37 C38 1.367 . S
C38 H12 0.950 . S
C38 C33 1.386 . S
C38 C37 1.367 . S
C39 C33 1.483 . S
C39 C40 1.382 . S
C39 C41 1.403 . S
C40 H13 0.950 1_455 S
C40 C26 1.411 1_455 S
C40 C39 1.382 . S
C41 C25 1.411 . S
C41 C39 1.403 . S
C41 C42 1.489 . S
C42 C41 1.489 . S
C42 C43 1.383 . S
C42 C47 1.382 . S
C43 H14 0.950 . S
C43 C42 1.383 . S
C43 C44 1.395 . S
C44 H15 0.950 . S
C44 C43 1.395 . S
C44 C45 1.288 . S
C45 C44 1.288 . S
C45 C46 1.392 . S
C46 H16 0.951 . S
C46 C45 1.392 . S
C46 C47 1.392 . S
C47 H17 0.949 . S
C47 C42 1.382 . S
C47 C46 1.392 . S
H48 C67 0.949 . S
H49 C68 0.950 . S
H50 C70 0.950 . S
H51 C71 0.950 . S
H52 C73 0.950 . S
H53 C76 0.950 . S
H54 C77 0.950 . S
H55 C79 0.951 . S
H56 C80 0.949 . S
H57 C82 0.949 . S
H58 C83 0.950 . S
H59 C85 0.950 . S
H60 C86 0.950 . S
H61 C88 0.950 . S
H62 C91 0.950 . S
H63 C92 0.950 . S
H64 C94 0.951 . S
H65 C95 0.949 . S
C66 C67 1.376 . S
C66 C71 1.386 . S
C66 C72 1.483 . S
C67 H48 0.949 . S
C67 C66 1.376 . S
C67 C68 1.397 . S
C68 H49 0.950 . S
C68 C67 1.397 . S
C68 C69 1.391 . S
C69 C68 1.391 . S
C69 C70 1.405 . S
C70 H50 0.950 . S
C70 C69 1.405 . S
C70 C71 1.367 . S
C71 H51 0.950 . S
C71 C66 1.386 . S
C71 C70 1.367 . S
C72 C66 1.483 . S
C72 C73 1.382 . S
C72 C74 1.403 . S
C73 H52 0.950 . S
C73 C72 1.382 . S
C73 C89 1.411 1_565 S
C74 C72 1.403 . S
C74 C75 1.489 . S
C74 C88 1.411 1_565 S
C75 C74 1.489 . S
C75 C76 1.383 . S
C75 C80 1.382 . S
C76 H53 0.950 . S
C76 C75 1.383 . S
C76 C77 1.395 . S
C77 H54 0.950 . S
C77 C76 1.395 . S
C77 C78 1.288 . S
C78 C77 1.288 . S
C78 C79 1.392 . S
C79 H55 0.951 . S
C79 C78 1.392 . S
C79 C80 1.392 . S
C80 H56 0.949 . S
C80 C75 1.382 . S
C80 C79 1.392 . S
C81 C82 1.376 . S
C81 C86 1.386 . S
C81 C87 1.483 . S
C82 H57 0.949 . S
C82 C81 1.376 . S
C82 C83 1.397 . S
C83 H58 0.950 . S
C83 C82 1.397 . S
C83 C84 1.391 . S
C84 C83 1.391 . S
C84 C85 1.405 . S
C85 H59 0.950 . S
C85 C84 1.405 . S
C85 C86 1.367 . S
C86 H60 0.950 . S
C86 C81 1.386 . S
C86 C85 1.367 . S
C87 C81 1.483 . S
C87 C88 1.382 . S
C87 C89 1.403 . S
C88 H61 0.950 . S
C88 C74 1.411 1_545 S
C88 C87 1.382 . S
C89 C73 1.411 1_545 S
C89 C87 1.403 . S
C89 C90 1.489 . S
C90 C89 1.489 . S
C90 C91 1.383 . S
C90 C95 1.382 . S
C91 H62 0.950 . S
C91 C90 1.383 . S
C91 C92 1.395 . S
C92 H63 0.950 . S
C92 C91 1.395 . S
C92 C93 1.288 . S
C93 C92 1.288 . S
C93 C94 1.392 . S
C94 H64 0.951 . S
C94 C93 1.392 . S
C94 C95 1.392 . S
C95 H65 0.949 . S
C95 C90 1.382 . S
C95 C94 1.392 . S
H96 C115 0.949 . S
H97 C116 0.950 . S
H98 C118 0.950 . S
H99 C119 0.950 . S
H100 C121 0.950 . S
H101 C124 0.950 . S
H102 C125 0.950 . S
H103 C127 0.951 . S
H104 C128 0.949 . S
H105 C130 0.949 . S
H106 C131 0.950 . S
H107 C133 0.950 . S
H108 C134 0.950 . S
H109 C136 0.950 . S
H110 C139 0.950 . S
H111 C140 0.950 . S
H112 C142 0.951 . S
H113 C143 0.949 . S
C114 C115 1.376 . S
C114 C119 1.386 . S
C114 C120 1.483 . S
C115 H96 0.949 . S
C115 C114 1.376 . S
C115 C116 1.397 . S
C116 H97 0.950 . S
C116 C115 1.397 . S
C116 C117 1.391 . S
C117 C116 1.391 . S
C117 C118 1.405 . S
C118 H98 0.950 . S
C118 C117 1.405 . S
C118 C119 1.367 . S
C119 H99 0.950 . S
C119 C114 1.386 . S
C119 C118 1.367 . S
C120 C114 1.483 . S
C120 C121 1.382 . S
C120 C122 1.403 . S
C121 H100 0.950 . S
C121 C120 1.382 . S
C121 C137 1.411 . S
C122 C120 1.403 . S
C122 C123 1.489 . S
C122 C136 1.411 . S
C123 C122 1.489 . S
C123 C124 1.383 . S
C123 C128 1.382 . S
C124 H101 0.950 . S
C124 C123 1.383 . S
C124 C125 1.395 . S
C125 H102 0.950 . S
C125 C124 1.395 . S
C125 C126 1.288 . S
C126 C125 1.288 . S
C126 C127 1.392 . S
C127 H103 0.951 . S
C127 C126 1.392 . S
C127 C128 1.392 . S
C128 H104 0.949 . S
C128 C123 1.382 . S
C128 C127 1.392 . S
C129 C130 1.376 . S
C129 C134 1.386 . S
C129 C135 1.483 . S
C130 H105 0.949 . S
C130 C129 1.376 . S
C130 C131 1.397 . S
C131 H106 0.950 . S
C131 C130 1.397 . S
C131 C132 1.391 . S
C132 C131 1.391 . S
C132 C133 1.405 . S
C133 H107 0.950 . S
C133 C132 1.405 . S
C133 C134 1.367 . S
C134 H108 0.950 . S
C134 C129 1.386 . S
C134 C133 1.367 . S
C135 C129 1.483 . S
C135 C136 1.382 . S
C135 C137 1.403 . S
C136 H109 0.950 . S
C136 C122 1.411 . S
C136 C135 1.382 . S
C137 C121 1.411 . S
C137 C135 1.403 . S
C137 C138 1.489 . S
C138 C137 1.489 . S
C138 C139 1.383 . S
C138 C143 1.382 . S
C139 H110 0.950 . S
C139 C138 1.383 . S
C139 C140 1.395 . S
C140 H111 0.950 . S
C140 C139 1.395 . S
C140 C141 1.288 . S
C141 C140 1.288 . S
C141 C142 1.392 . S
C142 H112 0.951 . S
C142 C141 1.392 . S
C142 C143 1.392 . S
C143 H113 0.949 . S
C143 C138 1.382 . S
C143 C142 1.392 . S
H144 C163 0.949 . S
H145 C164 0.950 . S
H146 C166 0.950 . S
H147 C167 0.950 . S
H148 C169 0.945 1_655 S
H149 C172 0.950 . S
H150 C173 0.950 . S
H151 C175 0.951 . S
H152 C176 0.949 . S
H153 C178 0.949 . S
H154 C179 0.950 . S
H155 C181 0.950 . S
H156 C182 0.950 . S
H157 C184 0.950 . S
H158 C187 0.950 . S
H159 C188 0.950 . S
H160 C190 0.951 . S
H161 C191 0.949 . S
C162 C163 1.376 . S
C162 C167 1.386 . S
C162 C168 1.483 . S
C163 H144 0.949 . S
C163 C162 1.376 . S
C163 C164 1.397 . S
C164 H145 0.950 . S
C164 C163 1.397 . S
C164 C165 1.391 . S
C165 C164 1.391 . S
C165 C166 1.405 . S
C166 H146 0.950 . S
C166 C165 1.405 . S
C166 C167 1.367 . S
C167 H147 0.950 . S
C167 C162 1.386 . S
C167 C166 1.367 . S
C168 C162 1.483 . S
C168 C169 1.394 . S
C168 C170 1.403 . S
C169 H148 0.945 1_455 S
C169 C168 1.394 . S
C169 C185 1.403 1_455 S
C170 C168 1.403 . S
C170 C171 1.489 . S
C170 C184 1.411 . S
C171 C170 1.489 . S
C171 C172 1.383 . S
C171 C176 1.382 . S
C172 H149 0.950 . S
C172 C171 1.383 . S
C172 C173 1.395 . S
C173 H150 0.950 . S
C173 C172 1.395 . S
C173 C174 1.288 . S
C174 C173 1.288 . S
C174 C175 1.392 . S
C175 H151 0.951 . S
C175 C174 1.392 . S
C175 C176 1.392 . S
C176 H152 0.949 . S
C176 C171 1.382 . S
C176 C175 1.392 . S
C177 C178 1.376 . S
C177 C182 1.386 . S
C177 C183 1.483 . S
C178 H153 0.949 . S
C178 C177 1.376 . S
C178 C179 1.397 . S
C179 H154 0.950 . S
C179 C178 1.397 . S
C179 C180 1.391 . S
C180 C179 1.391 . S
C180 C181 1.405 . S
C181 H155 0.950 . S
C181 C180 1.405 . S
C181 C182 1.367 . S
C182 H156 0.950 . S
C182 C177 1.386 . S
C182 C181 1.367 . S
C183 C177 1.483 . S
C183 C184 1.382 1_655 S
C183 C185 1.403 . S
C184 H157 0.950 . S
C184 C170 1.411 . S
C184 C183 1.382 1_455 S
C185 C169 1.403 1_655 S
C185 C183 1.403 . S
C185 C186 1.489 . S
C186 C185 1.489 . S
C186 C187 1.383 . S
C186 C191 1.382 . S
C187 H158 0.950 . S
C187 C186 1.383 . S
C187 C188 1.395 . S
C188 H159 0.950 . S
C188 C187 1.395 . S
C188 C189 1.288 . S
C189 C188 1.288 . S
C189 C190 1.392 . S
C190 H160 0.951 . S
C190 C189 1.392 . S
C190 C191 1.392 . S
C191 H161 0.949 . S
C191 C186 1.382 . S
C191 C190 1.392 . S
H192 C211 0.949 . S
H193 C212 0.950 . S
H194 C214 0.950 . S
H195 C215 0.950 1_556 S
H196 C217 0.950 . S
H197 C220 0.950 . S
H198 C221 0.950 . S
H199 C223 0.951 . S
H200 C224 0.949 . S
H201 C226 0.949 . S
H202 C227 0.950 . S
H203 C229 0.950 . S
H204 C230 0.971 . S
H205 C232 0.950 . S
H206 C235 0.950 . S
H207 C236 0.950 . S
H208 C238 0.951 . S
H209 C239 0.949 . S
C210 C211 1.376 . S
C210 C215 1.386 . S
C210 C216 1.481 1_554 S
C211 H192 0.949 . S
C211 C210 1.376 . S
C211 C212 1.397 . S
C212 H193 0.950 . S
C212 C211 1.397 . S
C212 C213 1.391 . S
C213 C212 1.391 . S
C213 C214 1.405 . S
C214 H194 0.950 . S
C214 C213 1.405 . S
C214 C215 1.367 . S
C215 H195 0.950 1_554 S
C215 C210 1.386 . S
C215 C214 1.367 . S
C216 C210 1.481 1_556 S
C216 C217 1.376 1_556 S
C216 C218 1.410 . S
C217 H196 0.950 . S
C217 C216 1.376 1_554 S
C217 C233 1.411 1_545 S
C218 C216 1.410 . S
C218 C219 1.489 . S
C218 C232 1.411 1_545 S
C219 C218 1.489 . S
C219 C220 1.383 . S
C219 C224 1.382 . S
C220 H197 0.950 . S
C220 C219 1.383 . S
C220 C221 1.395 . S
C221 H198 0.950 . S
C221 C220 1.395 . S
C221 C222 1.288 . S
C222 C221 1.288 . S
C222 C223 1.392 . S
C223 H199 0.951 . S
C223 C222 1.392 . S
C223 C224 1.392 . S
C224 H200 0.949 . S
C224 C219 1.382 . S
C224 C223 1.392 . S
C225 C226 1.376 . S
C225 C230 1.386 . S
C225 C231 1.483 . S
C226 H201 0.949 . S
C226 C225 1.376 . S
C226 C227 1.397 . S
C227 H202 0.950 . S
C227 C226 1.397 . S
C227 C228 1.391 . S
C228 C227 1.391 . S
C228 C229 1.405 . S
C229 H203 0.950 . S
C229 C228 1.405 . S
C229 C230 1.367 . S
C230 H204 0.971 . S
C230 C225 1.386 . S
C230 C229 1.367 . S
C231 C225 1.483 . S
C231 C232 1.382 . S
C231 C233 1.403 1_556 S
C232 H205 0.950 . S
C232 C218 1.411 1_565 S
C232 C231 1.382 . S
C233 C217 1.411 1_565 S
C233 C231 1.403 1_554 S
C233 C234 1.489 . S
C234 C233 1.489 . S
C234 C235 1.383 . S
C234 C239 1.382 . S
C235 H206 0.950 . S
C235 C234 1.383 . S
C235 C236 1.395 . S
C236 H207 0.950 . S
C236 C235 1.395 . S
C236 C237 1.288 . S
C237 C236 1.288 . S
C237 C238 1.392 . S
C238 H208 0.951 . S
C238 C237 1.392 . S
C238 C239 1.392 . S
C239 H209 0.949 . S
C239 C234 1.382 . S
C239 C238 1.392 . S
H240 C259 0.949 . S
H241 C260 0.950 . S
H242 C262 0.950 . S
H243 C263 0.950 . S
H244 C265 0.950 . S
H245 C268 0.950 . S
H246 C269 0.950 . S
H247 C271 0.951 . S
H248 C272 0.949 . S
H249 C274 0.949 . S
H250 C275 0.950 . S
H251 C277 0.950 . S
H252 C278 0.950 . S
H253 C280 0.950 . S
H254 C283 0.950 . S
H255 C284 0.950 . S
H256 C286 0.951 . S
H257 C287 0.949 . S
C258 C259 1.376 . S
C258 C263 1.386 . S
C258 C264 1.483 . S
C259 H240 0.949 . S
C259 C258 1.376 . S
C259 C260 1.397 . S
C260 H241 0.950 . S
C260 C259 1.397 . S
C260 C261 1.391 . S
C261 C260 1.391 . S
C261 C262 1.405 . S
C262 H242 0.950 . S
C262 C261 1.405 . S
C262 C263 1.367 . S
C263 H243 0.950 . S
C263 C258 1.386 . S
C263 C262 1.367 . S
C264 C258 1.483 . S
C264 C265 1.382 . S
C264 C266 1.403 . S
C265 H244 0.950 . S
C265 C264 1.382 . S
C265 C281 1.411 . S
C266 C264 1.403 . S
C266 C267 1.489 . S
C266 C280 1.411 . S
C267 C266 1.489 . S
C267 C268 1.383 . S
C267 C272 1.382 . S
C268 H245 0.950 . S
C268 C267 1.383 . S
C268 C269 1.395 . S
C269 H246 0.950 . S
C269 C268 1.395 . S
C269 C270 1.288 . S
C270 C269 1.288 . S
C270 C271 1.392 . S
C271 H247 0.951 . S
C271 C270 1.392 . S
C271 C272 1.392 . S
C272 H248 0.949 . S
C272 C267 1.382 . S
C272 C271 1.392 . S
C273 C274 1.376 . S
C273 C278 1.386 . S
C273 C279 1.483 . S
C274 H249 0.949 . S
C274 C273 1.376 . S
C274 C275 1.397 . S
C275 H250 0.950 . S
C275 C274 1.397 . S
C275 C276 1.391 . S
C276 C275 1.391 . S
C276 C277 1.405 . S
C277 H251 0.950 . S
C277 C276 1.405 . S
C277 C278 1.367 . S
C278 H252 0.950 . S
C278 C273 1.386 . S
C278 C277 1.367 . S
C279 C273 1.483 . S
C279 C280 1.382 . S
C279 C281 1.403 . S
C280 H253 0.950 . S
C280 C266 1.411 . S
C280 C279 1.382 . S
C281 C265 1.411 . S
C281 C279 1.403 . S
C281 C282 1.489 . S
C282 C281 1.489 . S
C282 C283 1.383 . S
C282 C287 1.382 . S
C283 H254 0.950 . S
C283 C282 1.383 . S
C283 C284 1.395 . S
C284 H255 0.950 . S
C284 C283 1.395 . S
C284 C285 1.288 . S
C285 C284 1.288 . S
C285 C286 1.392 . S
C286 H256 0.951 . S
C286 C285 1.392 . S
C286 C287 1.392 . S
C287 H257 0.949 . S
C287 C282 1.382 . S
C287 C286 1.392 . S
Co288 O289 2.216 . S
Co288 O290 2.091 . S
Co288 O292 2.004 . S
Co288 O298 2.021 . S
Co288 O300 2.137 . S
Co288 O301 2.244 . S
O289 Co288 2.216 . S
O289 C296 1.247 . S
O290 Co288 2.091 . S
O290 C296 1.261 . S
C291 O300 1.247 . S
C291 O301 1.272 . S
O292 Co288 2.004 . S
O292 C297 1.259 . S
Co293 O294 2.061 . S
Co293 O299 2.052 . S
Co293 O301 2.135 . S
O294 Co293 2.061 . S
O294 C297 1.235 . S
C295 O298 1.238 . S
C295 O299 1.241 . S
C296 O289 1.247 . S
C296 O290 1.261 . S
C297 O292 1.259 . S
C297 O294 1.235 . S
O298 Co288 2.021 . S
O298 C295 1.238 . S
O299 Co293 2.052 . S
O299 C295 1.241 . S
O300 Co288 2.137 . S
O300 C291 1.247 . S
O301 Co288 2.244 . S
O301 C291 1.272 . S
O301 Co293 2.135 . S
Co302 O303 2.216 . S
Co302 O304 2.091 . S
Co302 O306 2.004 . S
Co302 O312 2.021 . S
Co302 O314 2.137 . S
Co302 O315 2.244 . S
O303 Co302 2.216 . S
O303 C310 1.247 . S
O304 Co302 2.091 . S
O304 C310 1.261 . S
C305 O314 1.247 . S
C305 O315 1.272 . S
O306 Co302 2.004 . S
O306 C311 1.259 . S
Co307 O308 2.061 . S
Co307 O313 2.052 . S
Co307 O315 2.135 . S
O308 Co307 2.061 . S
O308 C311 1.235 . S
C309 O312 1.238 . S
C309 O313 1.241 . S
C310 O303 1.247 . S
C310 O304 1.261 . S
C311 O306 1.259 . S
C311 O308 1.235 . S
O312 Co302 2.021 . S
O312 C309 1.238 . S
O313 Co307 2.052 . S
O313 C309 1.241 . S
O314 Co302 2.137 . S
O314 C305 1.247 . S
O315 Co302 2.244 . S
O315 C305 1.272 . S
O315 Co307 2.135 . S
Co316 O317 2.216 . S
Co316 O318 2.091 . S
Co316 O320 2.004 . S
Co316 O326 2.021 . S
Co316 O328 2.137 . S
Co316 O329 2.244 . S
O317 Co316 2.216 . S
O317 C324 1.247 . S
O318 Co316 2.091 . S
O318 C324 1.261 . S
C319 O328 1.247 . S
C319 O329 1.272 . S
O320 Co316 2.004 . S
O320 C325 1.259 . S
Co321 O322 2.061 . S
Co321 O327 2.052 . S
Co321 O329 2.135 . S
O322 Co321 2.061 . S
O322 C325 1.235 . S
C323 O326 1.238 . S
C323 O327 1.241 . S
C324 O317 1.247 . S
C324 O318 1.261 . S
C325 O320 1.259 . S
C325 O322 1.235 . S
O326 Co316 2.021 . S
O326 C323 1.238 . S
O327 Co321 2.052 . S
O327 C323 1.241 . S
O328 Co316 2.137 . S
O328 C319 1.247 . S
O329 Co316 2.244 . S
O329 C319 1.272 . S
O329 Co321 2.135 . S
Co330 O331 2.216 . S
Co330 O332 2.091 . S
Co330 O334 2.004 . S
Co330 O340 2.021 . S
Co330 O342 2.137 . S
Co330 O343 2.244 . S
O331 Co330 2.216 . S
O331 C338 1.247 . S
O332 Co330 2.091 . S
O332 C338 1.261 . S
C333 O342 1.247 . S
C333 O343 1.272 . S
O334 Co330 2.004 . S
O334 C339 1.259 . S
Co335 O336 2.061 . S
Co335 O341 2.052 . S
Co335 O343 2.135 . S
O336 Co335 2.061 . S
O336 C339 1.235 . S
C337 O340 1.238 . S
C337 O341 1.241 . S
C338 O331 1.247 . S
C338 O332 1.261 . S
C339 O334 1.259 . S
C339 O336 1.235 . S
O340 Co330 2.021 . S
O340 C337 1.238 . S
O341 Co335 2.052 . S
O341 C337 1.241 . S
O342 Co330 2.137 . S
O342 C333 1.247 . S
O343 Co330 2.244 . S
O343 C333 1.272 . S
O343 Co335 2.135 . S
Co344 O345 2.216 . S
Co344 O346 2.091 . S
Co344 O348 2.004 . S
Co344 O354 2.021 . S
Co344 O356 2.137 . S
Co344 O357 2.244 . S
O345 Co344 2.216 . S
O345 C352 1.247 . S
O346 Co344 2.091 . S
O346 C352 1.261 . S
C347 O356 1.247 . S
C347 O357 1.272 . S
O348 Co344 2.004 . S
O348 C353 1.259 . S
Co349 O350 2.061 . S
Co349 O355 2.052 . S
Co349 O357 2.135 . S
O350 Co349 2.061 . S
O350 C353 1.235 . S
C351 O354 1.238 . S
C351 O355 1.241 . S
C352 O345 1.247 . S
C352 O346 1.261 . S
C353 O348 1.259 . S
C353 O350 1.235 . S
O354 Co344 2.021 . S
O354 C351 1.238 . S
O355 Co349 2.052 . S
O355 C351 1.241 . S
O356 Co344 2.137 . S
O356 C347 1.247 . S
O357 Co344 2.244 . S
O357 C347 1.272 . S
O357 Co349 2.135 . S
Co358 O359 2.216 . S
Co358 O360 2.091 . S
Co358 O362 2.004 . S
Co358 O368 2.021 . S
Co358 O370 2.137 . S
Co358 O371 2.244 . S
O359 Co358 2.216 . S
O359 C366 1.247 . S
O360 Co358 2.091 . S
O360 C366 1.261 . S
C361 O370 1.247 . S
C361 O371 1.272 . S
O362 Co358 2.004 . S
O362 C367 1.259 . S
Co363 O364 2.061 . S
Co363 O369 2.052 . S
Co363 O371 2.135 . S
O364 Co363 2.061 . S
O364 C367 1.235 . S
C365 O368 1.238 . S
C365 O369 1.241 . S
C366 O359 1.247 . S
C366 O360 1.261 . S
C367 O362 1.259 . S
C367 O364 1.235 . S
O368 Co358 2.021 . S
O368 C365 1.238 . S
O369 Co363 2.052 . S
O369 C365 1.241 . S
O370 Co358 2.137 . S
O370 C361 1.247 . S
O371 Co358 2.244 . S
O371 C361 1.272 . S
O371 Co363 2.135 . S
C372 C373 1.363 . S
C372 C378 1.379 . S
C372 N380 1.356 . S
C373 C372 1.363 . S
C373 C379 1.363 . S
C374 C375 1.363 . S
C374 C379 1.379 . S
C374 N381 1.356 . S
C375 C374 1.363 . S
C375 C378 1.363 . S
N376 C378 1.356 . S
N376 H388 0.984 . S
N376 H389 0.985 . S
N377 C379 1.356 . S
N377 H382 0.984 . S
N377 H383 0.985 . S
C378 C372 1.379 . S
C378 C375 1.363 . S
C378 N376 1.356 . S
C379 C373 1.363 . S
C379 C374 1.379 . S
C379 N377 1.356 . S
N380 C372 1.356 . S
N380 H386 0.984 . S
N380 H387 0.984 . S
N381 C374 1.356 . S
N381 H384 0.984 . S
N381 H385 0.985 . S
H382 N377 0.984 . S
H383 N377 0.985 . S
H384 N381 0.984 . S
H385 N381 0.985 . S
H386 N380 0.984 . S
H387 N380 0.984 . S
H388 N376 0.984 . S
H389 N376 0.985 . S
C390 C391 1.363 . S
C390 C396 1.379 . S
C390 N398 1.356 . S
C391 C390 1.363 . S
C391 C397 1.363 . S
C392 C393 1.363 . S
C392 C397 1.379 . S
C392 N399 1.356 . S
C393 C392 1.363 . S
C393 C396 1.363 . S
N394 C396 1.356 . S
N394 H406 0.984 . S
N394 H407 0.985 . S
N395 C397 1.356 . S
N395 H400 0.984 . S
N395 H401 0.985 . S
C396 C390 1.379 . S
C396 C393 1.363 . S
C396 N394 1.356 . S
C397 C391 1.363 . S
C397 C392 1.379 . S
C397 N395 1.356 . S
N398 C390 1.356 . S
N398 H404 0.984 . S
N398 H405 0.984 . S
N399 C392 1.356 . S
N399 H402 0.984 . S
N399 H403 0.985 . S
H400 N395 0.984 . S
H401 N395 0.985 . S
H402 N399 0.984 . S
H403 N399 0.985 . S
H404 N398 0.984 . S
H405 N398 0.984 . S
H406 N394 0.984 . S
H407 N394 0.985 . S
C408 C409 1.363 . S
C408 C414 1.379 . S
C408 N416 1.356 . S
C409 C408 1.363 . S
C409 C415 1.363 . S
C410 C411 1.363 . S
C410 C415 1.379 . S
C410 N417 1.356 . S
C411 C410 1.363 . S
C411 C414 1.363 . S
N412 C414 1.356 . S
N412 H424 0.984 . S
N412 H425 0.985 . S
N413 C415 1.356 . S
N413 H418 0.984 . S
N413 H419 0.985 . S
C414 C408 1.379 . S
C414 C411 1.363 . S
C414 N412 1.356 . S
C415 C409 1.363 . S
C415 C410 1.379 . S
C415 N413 1.356 . S
N416 C408 1.356 . S
N416 H422 0.984 . S
N416 H423 0.984 . S
N417 C410 1.356 . S
N417 H420 0.984 . S
N417 H421 0.985 . S
H418 N413 0.984 . S
H419 N413 0.985 . S
H420 N417 0.984 . S
H421 N417 0.985 . S
H422 N416 0.984 . S
H423 N416 0.984 . S
H424 N412 0.984 . S
H425 N412 0.985 . S
C426 C427 1.363 . S
C426 C432 1.379 . S
C426 N434 1.356 . S
C427 C426 1.363 . S
C427 C433 1.363 . S
C428 C429 1.363 . S
C428 C433 1.379 . S
C428 N435 1.356 . S
C429 C428 1.363 . S
C429 C432 1.363 . S
N430 C432 1.356 . S
N430 H442 0.984 . S
N430 H443 0.985 . S
N431 C433 1.356 . S
N431 H436 0.984 . S
N431 H437 0.985 . S
C432 C426 1.379 . S
C432 C429 1.363 . S
C432 N430 1.356 . S
C433 C427 1.363 . S
C433 C428 1.379 . S
C433 N431 1.356 . S
N434 C426 1.356 . S
N434 H440 0.984 . S
N434 H441 0.984 . S
N435 C428 1.356 . S
N435 H438 0.984 . S
N435 H439 0.985 . S
H436 N431 0.984 . S
H437 N431 0.985 . S
H438 N435 0.984 . S
H439 N435 0.985 . S
H440 N434 0.984 . S
H441 N434 0.984 . S
H442 N430 0.984 . S
H443 N430 0.985 . S
C444 C445 1.363 . S
C444 C450 1.379 . S
C444 N452 1.356 . S
C445 C444 1.363 . S
C445 C451 1.363 . S
C446 C447 1.363 . S
C446 C451 1.379 . S
C446 N453 1.356 . S
C447 C446 1.363 . S
C447 C450 1.363 . S
N448 C450 1.356 . S
N448 H460 0.984 . S
N448 H461 0.985 . S
N449 C451 1.356 . S
N449 H454 0.984 . S
N449 H455 0.985 1_556 S
C450 C444 1.379 . S
C450 C447 1.363 . S
C450 N448 1.356 . S
C451 C445 1.363 . S
C451 C446 1.379 . S
C451 N449 1.356 . S
N452 C444 1.356 . S
N452 H458 0.984 . S
N452 H459 0.984 . S
N453 C446 1.356 . S
N453 H456 0.984 . S
N453 H457 0.985 . S
H454 N449 0.984 . S
H455 N449 0.985 1_554 S
H456 N453 0.984 . S
H457 N453 0.985 . S
H458 N452 0.984 . S
H459 N452 0.984 . S
H460 N448 0.984 . S
H461 N448 0.985 . S
C462 C463 1.363 . S
C462 C468 1.379 . S
C462 N470 1.356 . S
C463 C462 1.363 . S
C463 C469 1.363 . S
C464 C465 1.363 . S
C464 C469 1.379 . S
C464 N471 1.356 . S
C465 C464 1.363 . S
C465 C468 1.363 . S
N466 C468 1.356 . S
N466 H478 0.984 . S
N466 H479 0.985 . S
N467 C469 1.356 . S
N467 H472 0.984 . S
N467 H473 0.985 . S
C468 C462 1.379 . S
C468 C465 1.363 . S
C468 N466 1.356 . S
C469 C463 1.363 . S
C469 C464 1.379 . S
C469 N467 1.356 . S
N470 C462 1.356 . S
N470 H476 0.984 . S
N470 H477 0.984 . S
N471 C464 1.356 . S
N471 H474 0.984 . S
N471 H475 0.985 . S
H472 N467 0.984 . S
H473 N467 0.985 . S
H474 N471 0.984 . S
H475 N471 0.985 . S
H476 N470 0.984 . S
H477 N470 0.984 . S
H478 N466 0.984 . S
H479 N466 0.985 . S
C480 C481 1.363 . S
C480 C486 1.379 . S
C480 N488 1.356 . S
C481 C480 1.363 . S
C481 C487 1.363 . S
C482 C483 1.363 . S
C482 C487 1.379 . S
C482 N489 1.356 . S
C483 C482 1.363 . S
C483 C486 1.363 . S
N484 C486 1.356 . S
N484 H496 0.984 . S
N484 H497 0.985 . S
N485 C487 1.356 . S
N485 H490 0.984 . S
N485 H491 0.985 . S
C486 C480 1.379 . S
C486 C483 1.363 . S
C486 N484 1.356 . S
C487 C481 1.363 . S
C487 C482 1.379 . S
C487 N485 1.356 . S
N488 C480 1.356 . S
N488 H494 0.984 . S
N488 H495 0.984 . S
N489 C482 1.356 . S
N489 H492 0.984 . S
N489 H493 0.985 . S
H490 N485 0.984 . S
H491 N485 0.985 . S
H492 N489 0.984 . S
H493 N489 0.985 . S
H494 N488 0.984 . S
H495 N488 0.984 . S
H496 N484 0.984 . S
H497 N484 0.985 . S
C498 C499 1.363 . S
C498 C504 1.379 . S
C498 N506 1.356 . S
C499 C498 1.363 . S
C499 C505 1.363 . S
C500 C501 1.363 . S
C500 C505 1.379 . S
C500 N507 1.356 . S
C501 C500 1.363 . S
C501 C504 1.363 . S
N502 C504 1.356 . S
N502 H514 0.984 . S
N502 H515 0.985 . S
N503 C505 1.356 . S
N503 H508 0.984 . S
N503 H509 0.985 . S
C504 C498 1.379 . S
C504 C501 1.363 . S
C504 N502 1.356 . S
C505 C499 1.363 . S
C505 C500 1.379 . S
C505 N503 1.356 . S
N506 C498 1.356 . S
N506 H512 0.984 . S
N506 H513 0.984 . S
N507 C500 1.356 . S
N507 H510 0.984 . S
N507 H511 0.985 . S
H508 N503 0.984 . S
H509 N503 0.985 . S
H510 N507 0.984 . S
H511 N507 0.985 . S
H512 N506 0.984 . S
H513 N506 0.984 . S
H514 N502 0.984 . S
H515 N502 0.985 . S
C516 C517 1.363 . S
C516 C522 1.379 . S
C516 N524 1.356 . S
C517 C516 1.363 . S
C517 C523 1.363 . S
C518 C519 1.363 . S
C518 C523 1.379 . S
C518 N525 1.356 . S
C519 C518 1.363 . S
C519 C522 1.363 . S
N520 C522 1.356 . S
N520 H532 0.984 . S
N520 H533 0.985 . S
N521 C523 1.356 . S
N521 H526 0.984 . S
N521 H527 0.985 . S
C522 C516 1.379 . S
C522 C519 1.363 . S
C522 N520 1.356 . S
C523 C517 1.363 . S
C523 C518 1.379 . S
C523 N521 1.356 . S
N524 C516 1.356 . S
N524 H530 0.984 . S
N524 H531 0.984 . S
N525 C518 1.356 . S
N525 H528 0.984 . S
N525 H529 0.985 . S
H526 N521 0.984 . S
H527 N521 0.985 . S
H528 N525 0.984 . S
H529 N525 0.985 . S
H530 N524 0.984 . S
H531 N524 0.984 . S
H532 N520 0.984 . S
H533 N520 0.985 . S
C534 C535 1.363 . S
C534 C540 1.379 . S
C534 N542 1.356 . S
C535 C534 1.363 . S
C535 C541 1.363 . S
C536 C537 1.363 . S
C536 C541 1.379 . S
C536 N543 1.356 . S
C537 C536 1.363 . S
C537 C540 1.363 . S
N538 C540 1.356 . S
N538 H550 0.984 . S
N538 H551 0.985 . S
N539 C541 1.356 . S
N539 H544 0.984 . S
N539 H545 0.985 . S
C540 C534 1.379 . S
C540 C537 1.363 . S
C540 N538 1.356 . S
C541 C535 1.363 . S
C541 C536 1.379 . S
C541 N539 1.356 . S
N542 C534 1.356 . S
N542 H548 0.983 1_554 S
N542 H549 0.984 . S
N543 C536 1.356 . S
N543 H546 0.984 . S
N543 H547 0.985 . S
H544 N539 0.984 . S
H545 N539 0.985 . S
H546 N543 0.984 . S
H547 N543 0.985 . S
H548 N542 0.983 1_556 S
H549 N542 0.984 . S
H550 N538 0.984 . S
H551 N538 0.985 . S
C552 C553 1.363 . S
C552 C558 1.379 . S
C552 N560 1.356 . S
C553 C552 1.363 . S
C553 C559 1.363 . S
C554 C555 1.363 . S
C554 C559 1.379 . S
C554 N561 1.356 . S
C555 C554 1.363 . S
C555 C558 1.363 . S
N556 C558 1.356 . S
N556 H568 0.984 . S
N556 H569 0.985 . S
N557 C559 1.356 . S
N557 H562 0.984 . S
N557 H563 0.985 . S
C558 C552 1.379 . S
C558 C555 1.363 . S
C558 N556 1.356 . S
C559 C553 1.363 . S
C559 C554 1.379 . S
C559 N557 1.356 . S
N560 C552 1.356 . S
N560 H566 0.984 . S
N560 H567 0.984 . S
N561 C554 1.356 . S
N561 H564 0.984 . S
N561 H565 0.985 . S
H562 N557 0.984 . S
H563 N557 0.985 . S
H564 N561 0.984 . S
H565 N561 0.985 . S
H566 N560 0.984 . S
H567 N560 0.984 . S
H568 N556 0.984 . S
H569 N556 0.985 . S
C570 C571 1.363 . S
C570 C576 1.379 . S
C570 N578 1.356 . S
C571 C570 1.363 . S
C571 C577 1.363 . S
C572 C573 1.363 . S
C572 C577 1.379 . S
C572 N579 1.356 . S
C573 C572 1.363 . S
C573 C576 1.363 . S
N574 C576 1.356 . S
N574 H586 0.984 . S
N574 H587 0.985 . S
N575 C577 1.356 . S
N575 H580 0.984 . S
N575 H581 0.985 . S
C576 C570 1.379 . S
C576 C573 1.363 . S
C576 N574 1.356 . S
C577 C571 1.363 . S
C577 C572 1.379 . S
C577 N575 1.356 . S
N578 C570 1.356 . S
N578 H584 0.984 . S
N578 H585 0.984 . S
N579 C572 1.356 . S
N579 H582 0.984 . S
N579 H583 0.985 . S
H580 N575 0.984 . S
H581 N575 0.985 . S
H582 N579 0.984 . S
H583 N579 0.985 . S
H584 N578 0.984 . S
H585 N578 0.984 . S
H586 N574 0.984 . S
H587 N574 0.985 . S
C588 C589 1.363 . S
C588 C594 1.379 . S
C588 N596 1.356 . S
C589 C588 1.363 . S
C589 C595 1.363 . S
C590 C591 1.363 . S
C590 C595 1.379 . S
C590 N597 1.356 . S
C591 C590 1.363 . S
C591 C594 1.363 . S
N592 C594 1.356 . S
N592 H604 0.984 . S
N592 H605 0.985 . S
N593 C595 1.356 . S
N593 H598 0.984 . S
N593 H599 0.985 . S
C594 C588 1.379 . S
C594 C591 1.363 . S
C594 N592 1.356 . S
C595 C589 1.363 . S
C595 C590 1.379 . S
C595 N593 1.356 . S
N596 C588 1.356 . S
N596 H602 0.984 . S
N596 H603 0.984 . S
N597 C590 1.356 . S
N597 H600 0.984 . S
N597 H601 0.985 . S
H598 N593 0.984 . S
H599 N593 0.985 . S
H600 N597 0.984 . S
H601 N597 0.985 . S
H602 N596 0.984 . S
H603 N596 0.984 . S
H604 N592 0.984 . S
H605 N592 0.985 . S
C606 C607 1.363 . S
C606 C612 1.379 . S
C606 N614 1.356 . S
C607 C606 1.363 . S
C607 C613 1.363 . S
C608 C609 1.363 . S
C608 C613 1.379 . S
C608 N615 1.356 . S
C609 C608 1.363 . S
C609 C612 1.363 . S
N610 C612 1.356 . S
N610 H622 0.984 . S
N610 H623 0.985 . S
N611 C613 1.356 . S
N611 H616 0.984 . S
N611 H617 0.985 . S
C612 C606 1.379 . S
C612 C609 1.363 . S
C612 N610 1.356 . S
C613 C607 1.363 . S
C613 C608 1.379 . S
C613 N611 1.356 . S
N614 C606 1.356 . S
N614 H620 0.984 . S
N614 H621 0.984 . S
N615 C608 1.356 . S
N615 H618 0.984 . S
N615 H619 0.985 . S
H616 N611 0.984 . S
H617 N611 0.985 . S
H618 N615 0.984 . S
H619 N615 0.985 . S
H620 N614 0.984 . S
H621 N614 0.984 . S
H622 N610 0.984 . S
H623 N610 0.985 . S
C624 C625 1.363 . S
C624 C630 1.379 . S
C624 N632 1.356 . S
C625 C624 1.363 . S
C625 C631 1.363 . S
C626 C627 1.363 . S
C626 C631 1.379 . S
C626 N633 1.356 . S
C627 C626 1.363 . S
C627 C630 1.363 . S
N628 C630 1.356 . S
N628 H640 0.984 . S
N628 H641 0.985 . S
N629 C631 1.356 . S
N629 H634 0.984 . S
N629 H635 0.985 . S
C630 C624 1.379 . S
C630 C627 1.363 . S
C630 N628 1.356 . S
C631 C625 1.363 . S
C631 C626 1.379 . S
C631 N629 1.356 . S
N632 C624 1.356 . S
N632 H638 0.984 . S
N632 H639 0.984 . S
N633 C626 1.356 . S
N633 H636 0.984 . S
N633 H637 0.985 . S
H634 N629 0.984 . S
H635 N629 0.985 . S
H636 N633 0.984 . S
H637 N633 0.985 . S
H638 N632 0.984 . S
H639 N632 0.984 . S
H640 N628 0.984 . S
H641 N628 0.985 . S
C642 C643 1.363 . S
C642 C648 1.379 . S
C642 N650 1.356 . S
C643 C642 1.363 . S
C643 C649 1.363 . S
C644 C645 1.363 . S
C644 C649 1.381 . S
C644 N651 1.354 1_556 S
C645 C644 1.363 . S
C645 C648 1.364 . S
N646 C648 1.356 . S
N646 H658 0.984 . S
N646 H659 0.985 1_556 S
N647 C649 1.356 . S
N647 H652 0.984 . S
N647 H653 0.985 . S
C648 C642 1.379 . S
C648 C645 1.364 . S
C648 N646 1.356 . S
C649 C643 1.363 . S
C649 C644 1.381 . S
C649 N647 1.356 . S
N650 C642 1.356 . S
N650 H656 0.984 . S
N650 H657 0.984 . S
N651 C644 1.354 1_554 S
N651 H654 0.984 . S
N651 H655 0.985 . S
H652 N647 0.984 . S
H653 N647 0.985 . S
H654 N651 0.984 . S
H655 N651 0.985 . S
H656 N650 0.984 . S
H657 N650 0.984 . S
H658 N646 0.984 . S
H659 N646 0.985 1_554 S
C660 C661 1.363 . S
C660 C666 1.379 . S
C660 N668 1.356 . S
C661 C660 1.363 . S
C661 C667 1.363 . S
C662 C663 1.363 . S
C662 C667 1.379 . S
C662 N669 1.356 . S
C663 C662 1.363 . S
C663 C666 1.363 . S
N664 C666 1.356 . S
N664 H676 0.984 . S
N664 H677 0.985 . S
N665 C667 1.356 . S
N665 H670 0.984 . S
N665 H671 0.985 . S
C666 C660 1.379 . S
C666 C663 1.363 . S
C666 N664 1.356 . S
C667 C661 1.363 . S
C667 C662 1.379 . S
C667 N665 1.356 . S
N668 C660 1.356 . S
N668 H674 0.984 . S
N668 H675 0.984 . S
N669 C662 1.356 . S
N669 H672 0.984 . S
N669 H673 0.985 . S
H670 N665 0.984 . S
H671 N665 0.985 . S
H672 N669 0.984 . S
H673 N669 0.985 . S
H674 N668 0.984 . S
H675 N668 0.984 . S
H676 N664 0.984 . S
H677 N664 0.985 . S
C678 C679 1.363 . S
C678 C684 1.379 . S
C678 N686 1.356 . S
C679 C678 1.363 . S
C679 C685 1.363 . S
C680 C681 1.363 . S
C680 C685 1.379 . S
C680 N687 1.356 . S
C681 C680 1.363 . S
C681 C684 1.363 . S
N682 C684 1.356 . S
N682 H694 0.984 . S
N682 H695 0.985 . S
N683 C685 1.356 . S
N683 H688 0.984 . S
N683 H689 0.985 . S
C684 C678 1.379 . S
C684 C681 1.363 . S
C684 N682 1.356 . S
C685 C679 1.363 . S
C685 C680 1.379 . S
C685 N683 1.356 . S
N686 C678 1.356 . S
N686 H692 0.984 . S
N686 H693 0.984 . S
N687 C680 1.356 . S
N687 H690 0.984 . S
N687 H691 0.985 . S
H688 N683 0.984 . S
H689 N683 0.985 . S
H690 N687 0.984 . S
H691 N687 0.985 . S
H692 N686 0.984 . S
H693 N686 0.984 . S
H694 N682 0.984 . S
H695 N682 0.985 . S
C696 C697 1.363 . S
C696 C702 1.379 . S
C696 N704 1.356 . S
C697 C696 1.363 . S
C697 C703 1.363 . S
C698 C699 1.363 . S
C698 C703 1.379 . S
C698 N705 1.356 . S
C699 C698 1.363 . S
C699 C702 1.363 . S
N700 C702 1.356 . S
N700 H712 0.984 . S
N700 H713 0.985 . S
N701 C703 1.356 . S
N701 H706 0.984 . S
N701 H707 0.985 . S
C702 C696 1.379 . S
C702 C699 1.363 . S
C702 N700 1.356 . S
C703 C697 1.363 . S
C703 C698 1.379 . S
C703 N701 1.356 . S
N704 C696 1.356 . S
N704 H710 0.984 . S
N704 H711 0.984 . S
N705 C698 1.356 . S
N705 H708 0.984 . S
N705 H709 0.985 . S
H706 N701 0.984 . S
H707 N701 0.985 . S
H708 N705 0.984 . S
H709 N705 0.985 . S
H710 N704 0.984 . S
H711 N704 0.984 . S
H712 N700 0.984 . S
H713 N700 0.985 . S
C714 C715 1.363 . S
C714 C720 1.379 . S
C714 N722 1.356 . S
C715 C714 1.363 . S
C715 C721 1.363 . S
C716 C717 1.363 . S
C716 C721 1.379 . S
C716 N723 1.356 . S
C717 C716 1.363 . S
C717 C720 1.363 . S
N718 C720 1.356 . S
N718 H730 0.984 . S
N718 H731 0.985 . S
N719 C721 1.356 . S
N719 H724 0.984 . S
N719 H725 0.985 . S
C720 C714 1.379 . S
C720 C717 1.363 . S
C720 N718 1.356 . S
C721 C715 1.363 . S
C721 C716 1.379 . S
C721 N719 1.356 . S
N722 C714 1.356 . S
N722 H728 0.984 . S
N722 H729 0.984 . S
N723 C716 1.356 . S
N723 H726 0.984 . S
N723 H727 0.985 . S
H724 N719 0.984 . S
H725 N719 0.985 . S
H726 N723 0.984 . S
H727 N723 0.985 . S
H728 N722 0.984 . S
H729 N722 0.984 . S
H730 N718 0.984 . S
H731 N718 0.985 . S
C732 C733 1.363 . S
C732 C738 1.379 . S
C732 N740 1.356 . S
C733 C732 1.363 . S
C733 C739 1.363 . S
C734 C735 1.363 . S
C734 C739 1.379 . S
C734 N741 1.356 . S
C735 C734 1.363 . S
C735 C738 1.363 . S
N736 C738 1.356 . S
N736 H748 0.984 . S
N736 H749 0.985 . S
N737 C739 1.356 . S
N737 H742 0.984 . S
N737 H743 0.985 . S
C738 C732 1.379 . S
C738 C735 1.363 . S
C738 N736 1.356 . S
C739 C733 1.363 . S
C739 C734 1.379 . S
C739 N737 1.356 . S
N740 C732 1.356 . S
N740 H746 0.984 . S
N740 H747 0.984 . S
N741 C734 1.356 . S
N741 H744 0.984 . S
N741 H745 0.985 . S
H742 N737 0.984 . S
H743 N737 0.985 . S
H744 N741 0.984 . S
H745 N741 0.985 . S
H746 N740 0.984 . S
H747 N740 0.984 . S
H748 N736 0.984 . S
H749 N736 0.985 . S
C750 C751 1.363 . S
C750 C756 1.379 . S
C750 N758 1.356 . S
C751 C750 1.363 . S
C751 C757 1.363 . S
C752 C753 1.363 . S
C752 C757 1.379 . S
C752 N759 1.356 . S
C753 C752 1.363 . S
C753 C756 1.363 . S
N754 C756 1.356 . S
N754 H766 0.984 . S
N754 H767 0.985 . S
N755 C757 1.356 . S
N755 H760 0.984 . S
N755 H761 0.985 . S
C756 C750 1.379 . S
C756 C753 1.363 . S
C756 N754 1.356 . S
C757 C751 1.363 . S
C757 C752 1.379 . S
C757 N755 1.356 . S
N758 C750 1.356 . S
N758 H764 0.984 . S
N758 H765 0.984 . S
N759 C752 1.356 . S
N759 H762 0.984 . S
N759 H763 0.985 . S
H760 N755 0.984 . S
H761 N755 0.985 . S
H762 N759 0.984 . S
H763 N759 0.985 . S
H764 N758 0.984 . S
H765 N758 0.984 . S
H766 N754 0.984 . S
H767 N754 0.985 . S
C768 C769 1.363 . S
C768 C774 1.379 1_554 S
C768 N776 1.356 . S
C769 C768 1.363 . S
C769 C775 1.363 . S
C770 C771 1.363 . S
C770 C775 1.379 1_556 S
C770 N777 1.356 . S
C771 C770 1.363 . S
C771 C774 1.363 . S
N772 C774 1.356 . S
N772 H784 0.984 . S
N772 H785 0.985 . S
N773 C775 1.356 . S
N773 H778 0.984 . S
N773 H779 0.985 . S
C774 C768 1.379 1_556 S
C774 C771 1.363 . S
C774 N772 1.356 . S
C775 C769 1.363 . S
C775 C770 1.379 1_554 S
C775 N773 1.356 . S
N776 C768 1.356 . S
N776 H782 0.984 . S
N776 H783 0.984 . S
N777 C770 1.356 . S
N777 H780 0.984 . S
N777 H781 0.985 . S
H778 N773 0.984 . S
H779 N773 0.985 . S
H780 N777 0.984 . S
H781 N777 0.985 . S
H782 N776 0.984 . S
H783 N776 0.984 . S
H784 N772 0.984 . S
H785 N772 0.985 . S
C786 C787 1.363 . S
C786 C792 1.379 . S
C786 N794 1.356 . S
C787 C786 1.363 . S
C787 C793 1.363 . S
C788 C789 1.363 . S
C788 C793 1.379 . S
C788 N795 1.356 . S
C789 C788 1.363 . S
C789 C792 1.363 . S
N790 C792 1.356 . S
N790 H802 0.984 . S
N790 H803 0.985 . S
N791 C793 1.356 . S
N791 H796 0.984 . S
N791 H797 0.985 . S
C792 C786 1.379 . S
C792 C789 1.363 . S
C792 N790 1.356 . S
C793 C787 1.363 . S
C793 C788 1.379 . S
C793 N791 1.356 . S
N794 C786 1.356 . S
N794 H800 0.984 . S
N794 H801 0.984 . S
N795 C788 1.356 . S
N795 H798 0.984 . S
N795 H799 0.985 . S
H796 N791 0.984 . S
H797 N791 0.985 . S
H798 N795 0.984 . S
H799 N795 0.985 . S
H800 N794 0.984 . S
H801 N794 0.984 . S
H802 N790 0.984 . S
H803 N790 0.985 . S
C375 C361 1.622 . S
C373 C45 1.629 . S
C391 C84 1.611 . S
C393 C291 1.614 . S
C409 C126 1.593 . S
C411 C310 1.643 . S
C427 C189 1.628 . S
C429 C319 1.622 . S
C447 C333 1.614 . S
C445 C228 1.612 . S
C463 C270 1.592 . S
C465 C352 1.643 . S
C481 C69 1.576 . S
C483 C305 1.597 . S
C499 C141 1.626 . S
C501 C324 1.624 . S
C517 C174 1.572 . S
C519 C338 1.617 . S
C537 C347 1.597 . S
C535 C213 1.576 . S
C555 C366 1.624 . S
C553 C285 1.626 . S
C573 C296 1.617 . S
C571 C30 1.572 . S
C589 C36 1.504 . S
C591 C311 1.491 . S
C607 C93 1.508 . S
C609 C323 1.490 . S
C627 C337 1.478 . S
C625 C117 1.503 . S
C643 C180 1.505 . S
C645 C353 1.490 1_556 S
C663 C365 1.490 . S
C661 C237 1.508 . S
C681 C295 1.478 . S
C679 C261 1.503 . S
C699 C367 1.497 . S
C697 C78 1.500 . S
C715 C132 1.512 . S
C717 C297 1.504 . S
C735 C309 1.488 . S
C733 C165 1.508 . S
C751 C222 1.500 . S
C753 C325 1.497 . S
C769 C276 1.512 . S
C771 C339 1.504 . S
C787 C21 1.508 . S
C789 C351 1.488 . S
