# Generated by pormake.
# Topology dag, (6,3)-cn, num edge types: 1
# Building blocks:
#     Node 0, Type 0, BuildingBlock: IZENUY_clean_sbu_0, # of connection points: 6
#     Node 1, Type 0, BuildingBlock: IZENUY_clean_sbu_0, # of connection points: 6
#     Node 2, Type 0, BuildingBlock: IZENUY_clean_sbu_0, # of connection points: 6
#     Node 3, Type 0, BuildingBlock: IZENUY_clean_sbu_0, # of connection points: 6
#     Node 4, Type 1, BuildingBlock: ESEHIV_clean_linker_0, # of connection points: 3
#     Node 5, Type 1, BuildingBlock: ESEHIV_clean_linker_0, # of connection points: 3
#     Node 6, Type 1, BuildingBlock: ESEHIV_clean_linker_0, # of connection points: 3
#     Node 7, Type 1, BuildingBlock: ESEHIV_clean_linker_0, # of connection points: 3
#     Node 8, Type 1, BuildingBlock: ESEHIV_clean_linker_0, # of connection points: 3
#     Node 9, Type 1, BuildingBlock: ESEHIV_clean_linker_0, # of connection points: 3
#     Node 10, Type 1, BuildingBlock: ESEHIV_clean_linker_0, # of connection points: 3
#     Node 11, Type 1, BuildingBlock: ESEHIV_clean_linker_0, # of connection points: 3
#     Edge 12, Type (0, 1), BuildingBlock: XUDNAN_clean_linker_2, # of connection points: 2
#     Edge 13, Type (0, 1), BuildingBlock: XUDNAN_clean_linker_2, # of connection points: 2
#     Edge 14, Type (0, 1), BuildingBlock: XUDNAN_clean_linker_2, # of connection points: 2
#     Edge 15, Type (0, 1), BuildingBlock: XUDNAN_clean_linker_2, # of connection points: 2
#     Edge 16, Type (0, 1), BuildingBlock: XUDNAN_clean_linker_2, # of connection points: 2
#     Edge 17, Type (0, 1), BuildingBlock: XUDNAN_clean_linker_2, # of connection points: 2
#     Edge 18, Type (0, 1), BuildingBlock: XUDNAN_clean_linker_2, # of connection points: 2
#     Edge 19, Type (0, 1), BuildingBlock: XUDNAN_clean_linker_2, # of connection points: 2
#     Edge 20, Type (0, 1), BuildingBlock: XUDNAN_clean_linker_2, # of connection points: 2
#     Edge 21, Type (0, 1), BuildingBlock: XUDNAN_clean_linker_2, # of connection points: 2
#     Edge 22, Type (0, 1), BuildingBlock: XUDNAN_clean_linker_2, # of connection points: 2
#     Edge 23, Type (0, 1), BuildingBlock: XUDNAN_clean_linker_2, # of connection points: 2
#     Edge 24, Type (0, 1), BuildingBlock: XUDNAN_clean_linker_2, # of connection points: 2
#     Edge 25, Type (0, 1), BuildingBlock: XUDNAN_clean_linker_2, # of connection points: 2
#     Edge 26, Type (0, 1), BuildingBlock: XUDNAN_clean_linker_2, # of connection points: 2
#     Edge 27, Type (0, 1), BuildingBlock: XUDNAN_clean_linker_2, # of connection points: 2
#     Edge 28, Type (0, 1), BuildingBlock: XUDNAN_clean_linker_2, # of connection points: 2
#     Edge 29, Type (0, 1), BuildingBlock: XUDNAN_clean_linker_2, # of connection points: 2
#     Edge 30, Type (0, 1), BuildingBlock: XUDNAN_clean_linker_2, # of connection points: 2
#     Edge 31, Type (0, 1), BuildingBlock: XUDNAN_clean_linker_2, # of connection points: 2
#     Edge 32, Type (0, 1), BuildingBlock: XUDNAN_clean_linker_2, # of connection points: 2
#     Edge 33, Type (0, 1), BuildingBlock: XUDNAN_clean_linker_2, # of connection points: 2
#     Edge 34, Type (0, 1), BuildingBlock: XUDNAN_clean_linker_2, # of connection points: 2
#     Edge 35, Type (0, 1), BuildingBlock: XUDNAN_clean_linker_2, # of connection points: 2
# Relax obj value: 0.255
# Max RMSD: 0.192
# Mean RMSD: 0.159
data_MOF--net-dag--node1-IZENUY_clean_sbu_0--node2-ESEHIV_clean_linker_0--edge1-XUDNAN_clean_linker_2
_symmetry_space_group_name_H-M    P1
_symmetry_Int_Tables_number       1
_symmetry_cell_setting            triclinic
loop_
_symmetry_equiv_pos_as_xyz
'x, y, z'
_cell_length_a     36.073658
_cell_length_b     37.589607
_cell_length_c     31.834854
_cell_angle_alpha  95.310839
_cell_angle_beta   90.145574
_cell_angle_gamma 90.01026
loop_
_atom_site_label
_atom_site_type_symbol
_atom_site_fract_x
_atom_site_fract_y
_atom_site_fract_z
_atom_type_partial_charge
Fe0 Fe 0.20861 0.8542 0.09803 0.0
Fe1 Fe 0.13179 0.8652 0.06099 0.0
O2 O 0.16659 0.8361 0.07658 0.0
Fe3 Fe 0.15944 0.78915 0.07058 0.0
O4 O 0.18643 0.7808 0.11774 0.0
O5 O 0.20097 0.83447 0.14677 0.0
O6 O 0.18755 0.89513 0.12308 0.0
C7 C 0.15451 0.90171 0.13455 0.0
C8 C 0.23215 0.7928 0.04716 0.0
O9 O 0.12775 0.88707 0.1141 0.0
C10 C 0.12846 0.81261 0.99594 0.0
O11 O 0.21919 0.87517 0.05038 0.0
O12 O 0.16402 0.89899 0.04507 0.0
O13 O 0.19982 0.78248 0.03667 0.0
O14 O 0.2373 0.8166 0.07731 0.0
C15 C 0.09134 0.81241 0.09865 0.0
O16 O 0.13372 0.84525 0.00721 0.0
O17 O 0.13112 0.78941 0.02229 0.0
C18 C 0.1977 0.89656 0.03421 0.0
O19 O 0.09325 0.83672 0.07385 0.0
O20 O 0.1187 0.79249 0.10417 0.0
C21 C 0.19648 0.80152 0.14939 0.0
Fe22 Fe 0.71167 0.64978 0.49094 0.0
Fe23 Fe 0.65631 0.70648 0.52829 0.0
O24 O 0.66899 0.66097 0.51655 0.0
Fe25 Fe 0.63887 0.62718 0.53093 0.0
O26 O 0.6739 0.60938 0.5633 0.0
O27 O 0.72041 0.60987 0.51896 0.0
O28 O 0.73803 0.67507 0.53243 0.0
C29 C 0.73356 0.70796 0.54251 0.0
C30 C 0.66627 0.59855 0.45114 0.0
O31 O 0.70383 0.72332 0.53364 0.0
C32 C 0.58746 0.67364 0.50638 0.0
O33 O 0.70963 0.68761 0.45801 0.0
O34 O 0.65551 0.71313 0.47296 0.0
O35 O 0.64984 0.59525 0.48562 0.0
O36 O 0.6892 0.62338 0.4476 0.0
C37 C 0.6371 0.67911 0.60131 0.0
O38 O 0.60619 0.69882 0.52495 0.0
O39 O 0.60124 0.64287 0.49972 0.0
C40 C 0.68257 0.70698 0.44833 0.0
O41 O 0.65624 0.70218 0.58468 0.0
O42 O 0.62286 0.65288 0.57908 0.0
C43 C 0.70587 0.59942 0.55186 0.0
Fe44 Fe 0.83689 0.20955 0.015 0.0
Fe45 Fe 0.86636 0.13537 0.02835 0.0
O46 O 0.8321 0.1624 0.00789 0.0
Fe47 Fe 0.79401 0.14197 0.97993 0.0
O48 O 0.80549 0.16352 0.93355 0.0
O49 O 0.81536 0.21751 0.96421 0.0
O50 O 0.88106 0.20779 0.98753 0.0
C51 C 0.90862 0.19055 -0.00099 0.0
C52 C 0.76261 0.20169 0.02886 0.0
O53 O 0.90453 0.16698 0.02437 0.0
C54 C 0.80065 0.09751 0.04203 0.0
O55 O 0.85928 0.20956 0.06761 0.0
O56 O 0.85563 0.15337 0.08123 0.0
O57 O 0.76077 0.17704 -0.00117 0.0
O58 O 0.79319 0.21451 0.04219 0.0
C59 C 0.85591 0.10084 0.95023 0.0
O60 O 0.83528 0.09828 0.0365 0.0
O61 O 0.77973 0.11838 0.02437 0.0
C62 C 0.85935 0.18595 0.09387 0.0
O63 O 0.87844 0.11647 0.97606 0.0
O64 O 0.82114 0.1035 0.95611 0.0
C65 C 0.81056 0.19636 0.93129 0.0
Fe66 Fe 0.35871 0.36639 0.55961 0.0
Fe67 Fe 0.28325 0.35018 0.59735 0.0
O68 O 0.32545 0.33487 0.57342 0.0
Fe69 Fe 0.33468 0.28834 0.56329 0.0
O70 O 0.38494 0.29285 0.5731 0.0
O71 O 0.3928 0.34987 0.59459 0.0
O72 O 0.34721 0.40076 0.60208 0.0
C73 C 0.33131 0.39825 0.63695 0.0
C74 C 0.36384 0.31193 0.49227 0.0
O75 O 0.30704 0.37484 0.64077 0.0
C76 C 0.25769 0.29387 0.54486 0.0
O77 O 0.32658 0.38453 0.52349 0.0
O78 O 0.27958 0.38959 0.5675 0.0
O79 O 0.34021 0.29163 0.50678 0.0
O80 O 0.37705 0.33822 0.51497 0.0
C81 C 0.30413 0.29231 0.6425 0.0
O82 O 0.25588 0.32674 0.55632 0.0
O83 O 0.28609 0.27564 0.5524 0.0
C84 C 0.29489 0.39668 0.53346 0.0
O85 O 0.27977 0.31367 0.63124 0.0
O86 O 0.33037 0.28163 0.61859 0.0
C87 C 0.4035 0.31784 0.59269 0.0
H88 H 0.02606 0.10535 0.27679 0.0
H89 H 0.10435 0.10906 0.37896 0.0
H90 H 0.03043 0.19736 0.36702 0.0
C91 C 0.03709 0.11842 0.30593 0.0
C92 C 0.023 0.15198 0.32139 0.0
C93 C 0.06718 0.10314 0.32578 0.0
C94 C 0.08208 0.12128 0.36252 0.0
C95 C 0.07 0.15576 0.377 0.0
C96 C 0.03992 0.17068 0.35658 0.0
H97 H 0.45973 0.60568 0.77375 0.0
H98 H 0.37921 0.6122 0.87353 0.0
H99 H 0.46071 0.69467 0.86848 0.0
C100 C 0.44898 0.6185 0.80303 0.0
C101 C 0.46577 0.65027 0.8207 0.0
C102 C 0.41746 0.60437 0.82142 0.0
C103 C 0.40268 0.62299 0.85781 0.0
C104 C 0.41695 0.65626 0.87369 0.0
C105 C 0.4492 0.66929 0.85583 0.0
H106 H 0.83558 0.86864 0.13087 0.0
H107 H 0.81755 0.79228 0.22069 0.0
H108 H 0.72988 0.86414 0.19058 0.0
C109 C 0.81747 0.85632 0.15249 0.0
C110 C 0.78188 0.87031 0.15976 0.0
C111 C 0.83061 0.82818 0.17435 0.0
C112 C 0.80667 0.81256 0.20202 0.0
C113 C 0.76986 0.8248 0.20791 0.0
C114 C 0.75761 0.85354 0.18592 0.0
H115 H 0.661 0.38029 0.64069 0.0
H116 H 0.68206 0.28024 0.69235 0.0
H117 H 0.76833 0.35897 0.69125 0.0
C118 C 0.67963 0.36211 0.65476 0.0
C119 C 0.71637 0.37283 0.6634 0.0
C120 C 0.66672 0.32865 0.66488 0.0
C121 C 0.69137 0.30606 0.68397 0.0
C122 C 0.72774 0.31712 0.69401 0.0
C123 C 0.74031 0.35032 0.68324 0.0
H124 H 0.54849 0.38586 0.31999 0.0
H125 H 0.63049 0.3729 0.22237 0.0
H126 H 0.53853 0.29937 0.2243 0.0
C127 C 0.55882 0.37222 0.29092 0.0
C128 C 0.54042 0.34137 0.274 0.0
C129 C 0.59059 0.38487 0.27164 0.0
C130 C 0.60511 0.3643 0.23607 0.0
C131 C 0.58754 0.33241 0.21903 0.0
C132 C 0.55383 0.3226 0.23723 0.0
H133 H 0.15784 0.11526 0.93604 0.0
H134 H 0.18452 0.21429 0.88617 0.0
H135 H 0.26457 0.12919 0.87969 0.0
C136 C 0.17737 0.13184 0.92094 0.0
C137 C 0.21258 0.11814 0.90943 0.0
C138 C 0.16689 0.16643 0.91253 0.0
C139 C 0.19242 0.18763 0.89308 0.0
C140 C 0.22763 0.17441 0.88117 0.0
C141 C 0.23762 0.13964 0.88943 0.0
H142 H 0.31491 0.6107 0.46979 0.0
H143 H 0.32321 0.70884 0.41224 0.0
H144 H 0.24289 0.62924 0.36649 0.0
C145 C 0.30476 0.62842 0.4473 0.0
C146 C 0.27545 0.6174 0.4202 0.0
C147 C 0.32254 0.66103 0.44393 0.0
C148 C 0.30944 0.6835 0.41457 0.0
C149 C 0.28141 0.67215 0.38552 0.0
C150 C 0.26381 0.6391 0.38912 0.0
H151 H 0.97813 0.89088 0.80542 0.0
H152 H 0.95445 0.79771 0.72061 0.0
H153 H 0.88802 0.89307 0.71811 0.0
C154 C 0.96234 0.87775 0.77939 0.0
C155 C 0.93301 0.89618 0.76255 0.0
C156 C 0.97026 0.84219 0.76475 0.0
C157 C 0.94829 0.82503 0.73241 0.0
C158 C 0.91884 0.84338 0.71479 0.0
C159 C 0.91113 0.87886 0.73056 0.0
H160 H 0.08729 0.92686 0.16657 0.0
H161 H 0.20645 0.94028 0.18142 0.0
H162 H 0.19631 0.98941 0.23655 0.0
H163 H 0.06402 0.01713 0.17667 0.0
H164 H 0.02237 0.01282 0.20695 0.0
H165 H 0.03824 0.97583 0.17167 0.0
H166 H 0.03974 0.93493 0.23324 0.0
H167 H 0.02259 0.97179 0.26803 0.0
H168 H 0.06476 0.94936 0.28077 0.0
H169 H 0.17442 0.04032 0.28398 0.0
H170 H 0.14182 0.09036 0.32234 0.0
H171 H 0.03611 0.04371 0.28068 0.0
C172 C 0.11122 0.93984 0.18181 0.0
C173 C 0.14768 0.92976 0.16943 0.0
C174 C 0.17825 0.9475 0.19014 0.0
C175 C 0.17282 0.9754 0.22168 0.0
C176 C 0.13667 0.98507 0.2326 0.0
C177 C 0.10633 0.96776 0.21368 0.0
C178 C 0.07046 0.98482 0.23019 0.0
C179 C 0.04743 0.99847 0.19422 0.0
C180 C 0.04805 0.95868 0.2545 0.0
C181 C 0.08559 0.01539 0.25976 0.0
C182 C 0.12384 0.01455 0.26106 0.0
C183 C 0.14443 0.04088 0.28407 0.0
C184 C 0.1255 0.06913 0.30613 0.0
C185 C 0.0862 0.07089 0.30535 0.0
C186 C 0.06609 0.04325 0.28213 0.0
H187 H 0.62578 0.62903 0.65518 0.0
H188 H 0.61797 0.74281 0.64469 0.0
H189 H 0.5812 0.74984 0.71051 0.0
H190 H 0.53891 0.6157 0.6806 0.0
H191 H 0.54619 0.58308 0.71789 0.0
H192 H 0.57989 0.58809 0.67753 0.0
H193 H 0.6315 0.59983 0.73365 0.0
H194 H 0.59813 0.5941 0.77457 0.0
H195 H 0.62543 0.63438 0.77626 0.0
H196 H 0.533 0.7417 0.76547 0.0
H197 H 0.48201 0.72018 0.80792 0.0
H198 H 0.52417 0.61198 0.78552 0.0
C199 C 0.61769 0.65563 0.6679 0.0
C200 C 0.62472 0.68542 0.64533 0.0
C201 C 0.61331 0.7198 0.6621 0.0
C202 C 0.59234 0.72396 0.69936 0.0
C203 C 0.58397 0.69359 0.71971 0.0
C204 C 0.59717 0.66017 0.70509 0.0
C205 C 0.58073 0.63116 0.7292 0.0
C206 C 0.56022 0.60289 0.69953 0.0
C207 C 0.61074 0.61386 0.75496 0.0
C208 C 0.55413 0.65308 0.7576 0.0
C209 C 0.55677 0.68908 0.75228 0.0
C210 C 0.53156 0.71377 0.77104 0.0
C211 C 0.50265 0.70126 0.79522 0.0
C212 C 0.4991 0.66434 0.80029 0.0
C213 C 0.52603 0.64034 0.78226 0.0
H214 H 0.83522 0.06239 0.10107 0.0
H215 H 0.73192 0.06577 0.03164 0.0
H216 H 0.71168 0.00997 0.06076 0.0
H217 H 0.85067 0.97323 0.08168 0.0
H218 H 0.87019 0.96678 0.1326 0.0
H219 H 0.87344 0.00969 0.1123 0.0
H220 H 0.84129 0.03965 0.17919 0.0
H221 H 0.83838 0.99682 0.20016 0.0
H222 H 0.79708 0.02308 0.19509 0.0
H223 H 0.70741 0.94879 0.08997 0.0
H224 H 0.71884 0.89025 0.11824 0.0
H225 H 0.82466 0.92944 0.16803 0.0
C226 C 0.80793 0.05187 0.09275 0.0
C227 C 0.78514 0.06817 0.06412 0.0
C228 C 0.74966 0.05371 0.05387 0.0
C229 C 0.73801 0.02204 0.07018 0.0
C230 C 0.76195 0.00578 0.09714 0.0
C231 C 0.79595 0.02066 0.10881 0.0
C232 C 0.81807 0.99702 0.13531 0.0
C233 C 0.85526 0.98604 0.11419 0.0
C234 C 0.82403 0.01523 0.1801 0.0
C235 C 0.79196 0.96571 0.13536 0.0
C236 C 0.75949 0.97117 0.11374 0.0
C237 C 0.73249 0.94451 0.10753 0.0
C238 C 0.73917 0.91141 0.12354 0.0
C239 C 0.77276 0.90538 0.14479 0.0
C240 C 0.7989 0.93321 0.15142 0.0
H241 H 0.46726 0.34014 0.55914 0.0
H242 H 0.42391 0.27993 0.65772 0.0
H243 H 0.4878 0.27228 0.68479 0.0
H244 H 0.55291 0.28612 0.54129 0.0
H245 H 0.58014 0.3245 0.53071 0.0
H246 H 0.53149 0.32282 0.51791 0.0
H247 H 0.52158 0.38303 0.56292 0.0
H248 H 0.57007 0.38482 0.57628 0.0
H249 H 0.53576 0.38736 0.61752 0.0
H250 H 0.55538 0.27737 0.70508 0.0
H251 H 0.6217 0.29125 0.71503 0.0
H252 H 0.62142 0.34366 0.59894 0.0
C253 C 0.47149 0.32498 0.5861 0.0
C254 C 0.44119 0.31067 0.60672 0.0
C255 C 0.44717 0.2909 0.64173 0.0
C256 C 0.48321 0.28647 0.65717 0.0
C257 C 0.51268 0.30138 0.63651 0.0
C258 C 0.50724 0.3197 0.60127 0.0
C259 C 0.5434 0.33368 0.58531 0.0
C260 C 0.55253 0.31569 0.5412 0.0
C261 C 0.54264 0.37465 0.58556 0.0
C262 C 0.56988 0.32176 0.61812 0.0
C263 C 0.55172 0.303 0.64723 0.0
C264 C 0.57006 0.29131 0.68194 0.0
C265 C 0.6079 0.29915 0.68714 0.0
C266 C 0.62717 0.31834 0.65761 0.0
C267 C 0.60771 0.32921 0.62235 0.0
H268 H 0.60223 0.56503 0.42456 0.0
H269 H 0.72029 0.56762 0.4002 0.0
H270 H 0.71382 0.51501 0.34774 0.0
H271 H 0.59063 0.47282 0.41803 0.0
H272 H 0.54665 0.47194 0.39096 0.0
H273 H 0.56021 0.51099 0.42443 0.0
H274 H 0.55143 0.55026 0.36248 0.0
H275 H 0.53744 0.51138 0.3288 0.0
H276 H 0.57526 0.53866 0.3134 0.0
H277 H 0.6952 0.45693 0.3059 0.0
H278 H 0.66548 0.40283 0.27187 0.0
H279 H 0.55808 0.44384 0.31541 0.0
C280 C 0.62656 0.55481 0.4076 0.0
C281 C 0.66176 0.57016 0.4163 0.0
C282 C 0.69306 0.55628 0.39361 0.0
C283 C 0.68965 0.52637 0.36394 0.0
C284 C 0.65459 0.51137 0.35658 0.0
C285 C 0.62346 0.52569 0.37703 0.0
C286 C 0.58901 0.50459 0.36358 0.0
C287 C 0.57056 0.48918 0.40151 0.0
C288 C 0.56168 0.5276 0.34069 0.0
C289 C 0.60579 0.47538 0.33357 0.0
C290 C 0.64363 0.47954 0.33014 0.0
C291 C 0.6654 0.45394 0.30735 0.0
C292 C 0.64806 0.42326 0.28772 0.0
C293 C 0.60907 0.41854 0.2903 0.0
C294 C 0.5879 0.44572 0.31295 0.0
H295 H 0.97404 0.16938 0.03153 0.0
H296 H 0.92811 0.22711 0.93153 0.0
H297 H 0.99099 0.23235 0.9017 0.0
H298 H 0.06283 0.21875 0.04289 0.0
H299 H 0.08815 0.17899 0.05265 0.0
H300 H 0.04037 0.18381 0.06855 0.0
H301 H 0.02476 0.12373 0.02547 0.0
H302 H 0.07229 0.11887 0.00907 0.0
H303 H 0.0359 0.11787 0.97008 0.0
H304 H 0.05749 0.22431 0.87822 0.0
H305 H 0.12227 0.20597 0.86439 0.0
H306 H 0.12457 0.15587 0.98195 0.0
C307 C 0.97721 0.18377 0.00381 0.0
C308 C 0.94623 0.19791 0.98384 0.0
C309 C 0.95155 0.21635 0.94751 0.0
C310 C 0.98712 0.2194 0.93035 0.0
C311 C 0.01694 0.2043 0.9503 0.0
C312 C 0.01235 0.18724 0.98655 0.0
C313 C 0.04831 0.17135 0.0006 0.0
C314 C 0.06064 0.18931 0.04373 0.0
C315 C 0.0451 0.13055 0.00132 0.0
C316 C 0.07373 0.18108 0.96581 0.0
C317 C 0.05526 0.20028 0.93724 0.0
C318 C 0.07244 0.20998 0.90087 0.0
C319 C 0.10935 0.19956 0.89341 0.0
C320 C 0.12873 0.17967 0.92224 0.0
C321 C 0.11062 0.1709 0.95917 0.0
H322 H 0.32515 0.42617 0.46614 0.0
H323 H 0.22703 0.42909 0.54496 0.0
H324 H 0.20329 0.48017 0.50961 0.0
H325 H 0.34004 0.51418 0.47497 0.0
H326 H 0.35652 0.51739 0.42205 0.0
H327 H 0.36093 0.47607 0.44555 0.0
H328 H 0.3249 0.44341 0.38269 0.0
H329 H 0.32018 0.48498 0.35907 0.0
H330 H 0.2796 0.45912 0.3691 0.0
H331 H 0.19685 0.53782 0.47749 0.0
H332 H 0.21007 0.59747 0.45378 0.0
H333 H 0.31139 0.55673 0.39524 0.0
C334 C 0.29807 0.43674 0.47503 0.0
C335 C 0.27798 0.42364 0.50831 0.0
C336 C 0.24296 0.43867 0.51949 0.0
C337 C 0.22908 0.46754 0.49934 0.0
C338 C 0.25031 0.48076 0.46772 0.0
C339 C 0.28399 0.46561 0.45541 0.0
C340 C 0.3042 0.48783 0.42553 0.0
C341 C 0.34264 0.49956 0.44311 0.0
C342 C 0.30739 0.46762 0.38147 0.0
C343 C 0.27786 0.51907 0.42515 0.0
C344 C 0.24636 0.51412 0.44868 0.0
C345 C 0.22069 0.54156 0.45781 0.0
C346 C 0.22823 0.57527 0.44414 0.0
C347 C 0.26119 0.58098 0.42196 0.0
C348 C 0.28537 0.55228 0.41087 0.0
H349 H 0.13031 0.85205 0.92849 0.0
H350 H 0.08964 0.75197 0.96835 0.0
H351 H 0.05337 0.74197 0.90238 0.0
H352 H 0.04994 0.88095 0.89308 0.0
H353 H 0.06781 0.90179 0.84855 0.0
H354 H 0.09721 0.89657 0.89305 0.0
H355 H 0.14511 0.86234 0.84413 0.0
H356 H 0.11569 0.86744 0.7992 0.0
H357 H 0.13074 0.82358 0.81041 0.0
H358 H 0.01116 0.74988 0.84124 0.0
H359 H 0.96813 0.77465 0.79094 0.0
H360 H 0.0386 0.86785 0.78855 0.0
C361 C 0.11477 0.82742 0.92268 0.0
C362 C 0.11272 0.80282 0.95351 0.0
C363 C 0.09183 0.77107 0.945 0.0
C364 C 0.07119 0.76513 0.90755 0.0
C365 C 0.07243 0.79081 0.8786 0.0
C366 C 0.09428 0.82106 0.88548 0.0
C367 C 0.08732 0.84683 0.85256 0.0
C368 C 0.07481 0.88366 0.87305 0.0
C369 C 0.12177 0.85022 0.82493 0.0
C370 C 0.05628 0.82759 0.82782 0.0
C371 C 0.04854 0.79495 0.84263 0.0
C372 C 0.01768 0.77482 0.82847 0.0
C373 C 0.99341 0.78903 0.79975 0.0
C374 C 6e-05 0.82316 0.78586 0.0
C375 C 0.03289 0.84164 0.79857 0.0
H376 H 0.82199 0.04299 0.9067 0.0
H377 H 0.92414 0.10433 0.91495 0.0
H378 H 0.95189 0.06231 0.8599 0.0
H379 H 0.86402 0.95961 0.89836 0.0
H380 H 0.83097 0.93798 0.86188 0.0
H381 H 0.81697 0.97567 0.89717 0.0
H382 H 0.79477 0.00844 0.83353 0.0
H383 H 0.8088 0.97076 0.79795 0.0
H384 H 0.82653 0.01471 0.79121 0.0
H385 H 0.97115 0.01093 0.8108 0.0
H386 H 0.98129 0.95186 0.77179 0.0
H387 H 0.8673 0.92286 0.79476 0.0
C388 C 0.84987 0.04798 0.89613 0.0
C389 C 0.8709 0.07693 0.91495 0.0
C390 C 0.90758 0.08223 0.90102 0.0
C391 C 0.92351 0.05867 0.86956 0.0
C392 C 0.90238 0.02996 0.85223 0.0
C393 C 0.86637 0.02445 0.86492 0.0
C394 C 0.85113 0.98954 0.84414 0.0
C395 C 0.84015 0.96422 0.87737 0.0
C396 C 0.81836 0.99628 0.81497 0.0
C397 C 0.88465 0.97578 0.81901 0.0
C398 C 0.91368 -0.00015 0.82365 0.0
C399 C 0.94847 0.9921 0.80628 0.0
C400 C 0.95401 0.95854 0.78431 0.0
C401 C 0.92496 0.93316 0.78003 0.0
C402 C 0.88964 0.94221 0.79678 0.0
H403 H 0.43716 0.30782 0.48331 0.0
H404 H 0.33464 0.29537 0.41256 0.0
H405 H 0.37039 0.29307 0.34555 0.0
H406 H 0.47525 0.36873 0.42372 0.0
H407 H 0.52222 0.35351 0.42942 0.0
H408 H 0.48844 0.34652 0.46919 0.0
H409 H 0.50303 0.27793 0.45937 0.0
H410 H 0.53647 0.28587 0.41932 0.0
H411 H 0.4993 0.25444 0.40755 0.0
H412 H 0.41773 0.30273 0.28728 0.0
H413 H 0.47067 0.32172 0.24476 0.0
H414 H 0.54019 0.32931 0.35637 0.0
C415 C 0.42235 0.30326 0.45362 0.0
C416 C 0.38339 0.30141 0.45269 0.0
C417 C 0.36464 0.29613 0.41359 0.0
C418 C 0.38475 0.295 0.37556 0.0
C419 C 0.42333 0.29883 0.37767 0.0
C420 C 0.44181 0.3024 0.41595 0.0
C421 C 0.48238 0.31069 0.41094 0.0
C422 C 0.49266 0.34699 0.43471 0.0
C423 C 0.50673 0.28042 0.42512 0.0
C424 C 0.484 0.31228 0.36389 0.0
C425 C 0.44995 0.30499 0.34487 0.0
C426 C 0.44458 0.30781 0.30183 0.0
C427 C 0.47467 0.31866 0.27796 0.0
C428 C 0.50926 0.32709 0.29751 0.0
C429 C 0.51395 0.32312 0.34073 0.0
H430 H 0.1598 0.92881 0.97495 0.0
H431 H 0.26802 0.92464 0.03376 0.0
H432 H 0.28795 0.97679 0.99729 0.0
H433 H 0.19273 0.96184 0.87249 0.0
H434 H 0.15193 0.98923 0.86981 0.0
H435 H 0.1494 0.94751 0.89343 0.0
H436 H 0.12283 0.98096 0.96161 0.0
H437 H 0.12575 0.02269 0.93862 0.0
H438 H 0.14865 0.01757 0.98809 0.0
H439 H 0.2912 0.036 0.96615 0.0
H440 H 0.27838 0.09509 0.94106 0.0
H441 H 0.16902 0.05848 0.8999 0.0
C442 C 0.18806 0.93825 0.97914 0.0
C443 C 0.21239 0.92293 0.00712 0.0
C444 C 0.2491 0.93592 0.0121 0.0
C445 C 0.26062 0.96549 0.99151 0.0
C446 C 0.23532 0.98102 0.96543 0.0
C447 C 0.2 0.96733 0.95857 0.0
C448 C 0.17673 0.99073 0.93277 0.0
C449 C 0.16715 0.97116 0.88955 0.0
C450 C 0.14145 0.00375 0.95673 0.0
C451 C 0.20361 0.02097 0.92845 0.0
C452 C 0.2375 0.01472 0.94678 0.0
C453 C 0.26517 0.04076 0.95067 0.0
C454 C 0.25767 0.07424 0.9363 0.0
C455 C 0.22268 0.08138 0.91862 0.0
C456 C 0.19596 0.05389 0.91346 0.0
H457 H 0.53601 0.62342 0.47709 0.0
H458 H 0.54802 0.73561 0.52178 0.0
H459 H 0.48037 0.74344 0.51681 0.0
H460 H 0.4643 0.63528 0.40198 0.0
H461 H 0.44045 0.59469 0.41162 0.0
H462 H 0.48976 0.59814 0.41963 0.0
H463 H 0.48126 0.58181 0.49639 0.0
H464 H 0.4318 0.579 0.48881 0.0
H465 H 0.45079 0.60832 0.5315 0.0
H466 H 0.41154 0.73937 0.50604 0.0
H467 H 0.34702 0.72448 0.48437 0.0
H468 H 0.38055 0.61524 0.4473 0.0
C469 C 0.5245 0.64968 0.4857 0.0
C470 C 0.54735 0.67886 0.49994 0.0
C471 C 0.53109 0.71281 0.51081 0.0
C472 C 0.49266 0.71751 0.50836 0.0
C473 C 0.47089 0.68802 0.49505 0.0
C474 C 0.48623 0.65486 0.48355 0.0
C475 C 0.45681 0.62779 0.469 0.0
C476 C 0.46321 0.61314 0.42282 0.0
C477 C 0.45508 0.59744 0.49818 0.0
C478 C 0.42262 0.65108 0.47358 0.0
C479 C 0.43123 0.68565 0.48904 0.0
C480 C 0.40437 0.71234 0.49416 0.0
C481 C 0.36788 0.70368 0.48186 0.0
C482 C 0.35878 0.66868 0.46465 0.0
C483 C 0.38644 0.64198 0.46144 0.0
H484 H 0.39705 0.42994 0.66 0.0
H485 H 0.28023 0.42899 0.69172 0.0
H486 H 0.29022 0.47968 0.74588 0.0
H487 H 0.42963 0.45195 0.77003 0.0
H488 H 0.46718 0.47915 0.75378 0.0
H489 H 0.45101 0.44163 0.71924 0.0
H490 H 0.44015 0.48348 0.66011 0.0
H491 H 0.45591 0.52114 0.69453 0.0
H492 H 0.41077 0.5221 0.67026 0.0
H493 H 0.31129 0.53537 0.788 0.0
H494 H 0.34277 0.5878 0.82262 0.0
H495 H 0.44815 0.54716 0.77188 0.0
C496 C 0.37375 0.44021 0.67881 0.0
C497 C 0.33786 0.42596 0.67178 0.0
C498 C 0.30794 0.43964 0.69694 0.0
C499 C 0.31334 0.46839 0.72761 0.0
C500 C 0.349 0.48231 0.73332 0.0
C501 C 0.37886 0.46818 0.71036 0.0
C502 C 0.41426 0.48818 0.72266 0.0
C503 C 0.44216 0.46377 0.74263 0.0
C504 C 0.43125 0.5047 0.68463 0.0
C505 C 0.39934 0.51664 0.75494 0.0
C506 C 0.36163 0.51288 0.76038 0.0
C507 C 0.34105 0.53794 0.78524 0.0
C508 C 0.35948 0.56763 0.80523 0.0
C509 C 0.39846 0.57177 0.8012 0.0
C510 C 0.41847 0.54539 0.77592 0.0
H511 H 0.04083 0.86285 0.12295 0.0
H512 H 0.0607 0.74884 0.1184 0.0
H513 H 0.99652 0.73997 0.14367 0.0
H514 H 0.98205 0.86998 0.21736 0.0
H515 H 0.95265 0.90317 0.19695 0.0
H516 H 0.0008 0.90035 0.18221 0.0
H517 H 0.98277 0.89372 0.10344 0.0
H518 H 0.93452 0.89653 0.11732 0.0
H519 H 0.95138 0.8586 0.08403 0.0
H520 H 0.92696 0.74391 0.16042 0.0
H521 H 0.86092 0.76045 0.17123 0.0
H522 H 0.89024 0.87229 0.16919 0.0
C523 C 0.03187 0.83604 0.12791 0.0
C524 C 0.05539 0.80647 0.1186 0.0
C525 C 0.04296 0.77182 0.12563 0.0
C526 C 0.00661 0.76659 0.13985 0.0
C527 C 0.98367 0.7964 0.1476 0.0
C528 C 0.99619 0.8305 0.14248 0.0
C529 C 0.96612 0.8581 0.15095 0.0
C530 C 0.97598 0.88443 0.18919 0.0
C531 C 0.95824 0.87787 0.11159 0.0
C532 C 0.93423 0.83421 0.16049 0.0
C533 C 0.94462 0.79871 0.15847 0.0
C534 C 0.91873 0.77171 0.16288 0.0
C535 C 0.88131 0.78134 0.16907 0.0
C536 C 0.87028 0.81764 0.1707 0.0
C537 C 0.89747 0.84423 0.16738 0.0
H538 H 0.68072 0.57184 0.62239 0.0
H539 H 0.76862 0.56042 0.52928 0.0
H540 H 0.78865 0.50458 0.55796 0.0
H541 H 0.7293 0.52779 0.70913 0.0
H542 H 0.6866 0.50697 0.72307 0.0
H543 H 0.68572 0.55019 0.7028 0.0
H544 H 0.64001 0.52574 0.64431 0.0
H545 H 0.64106 0.48245 0.66373 0.0
H546 H 0.65281 0.48712 0.60951 0.0
H547 H 0.79154 0.44499 0.58798 0.0
H548 H 0.77611 0.38712 0.6152 0.0
H549 H 0.68439 0.43714 0.68552 0.0
C550 C 0.705 0.55833 0.60882 0.0
C551 C 0.7231 0.57049 0.57356 0.0
C552 C 0.75446 0.55173 0.55649 0.0
C553 C 0.76607 0.52002 0.57266 0.0
C554 C 0.74622 0.50776 0.60604 0.0
C555 C 0.71649 0.52662 0.62413 0.0
C556 C 0.69612 0.50558 0.65507 0.0
C557 C 0.69967 0.52371 0.7002 0.0
C558 C 0.65511 0.49989 0.64235 0.0
C559 C 0.71768 0.47107 0.64989 0.0
C560 C 0.74715 0.47308 0.62244 0.0
C561 C 0.76907 0.44336 0.61017 0.0
C562 C 0.76014 0.41067 0.62567 0.0
C563 C 0.72915 0.40801 0.65232 0.0
C564 C 0.70833 0.43873 0.6653 0.0
H565 H 0.86056 0.14181 0.15687 0.0
H566 H 0.89225 0.24819 0.12801 0.0
H567 H 0.92974 0.25529 0.19329 0.0
H568 H 0.86394 0.15864 0.27662 0.0
H569 H 0.88324 0.11482 0.28048 0.0
H570 H 0.85108 0.12209 0.23867 0.0
H571 H 0.89905 0.09629 0.18377 0.0
H572 H 0.9316 0.08951 0.22496 0.0
H573 H 0.94457 0.11608 0.18302 0.0
H574 H 0.97394 0.24561 0.25198 0.0
H575 H 0.01949 0.22078 0.29934 0.0
H576 H 0.95975 0.12022 0.28892 0.0
C577 C 0.87418 0.1672 0.16506 0.0
C578 C 0.87349 0.19445 0.13732 0.0
C579 C 0.89209 0.22705 0.14894 0.0
C580 C 0.91349 0.2313 0.18599 0.0
C581 C 0.91554 0.20288 0.21122 0.0
C582 C 0.89586 0.17163 0.2015 0.0
C583 C 0.90682 0.14309 0.22972 0.0
C584 C 0.87433 0.13415 0.25807 0.0
C585 C 0.92138 0.10929 0.2038 0.0
C586 C 0.93738 0.16237 0.25516 0.0
C587 C 0.94143 0.19711 0.24485 0.0
C588 C 0.97036 0.21883 0.26118 0.0
C589 C 0.99609 0.20449 0.28812 0.0
C590 C 0.99296 0.16864 0.29803 0.0
C591 C 0.96267 0.14777 0.28207 0.0
H592 H 0.16534 0.75659 0.20289 0.0
H593 H 0.26689 0.81142 0.17487 0.0
H594 H 0.29935 0.78299 0.23125 0.0
H595 H 0.17917 0.76643 0.31735 0.0
H596 H 0.15935 0.72351 0.32508 0.0
H597 H 0.14391 0.74747 0.28179 0.0
H598 H 0.15977 0.69267 0.2295 0.0
H599 H 0.17555 0.66864 0.27259 0.0
H600 H 0.20601 0.67443 0.22894 0.0
H601 H 0.32182 0.74575 0.28487 0.0
H602 H 0.33252 0.70797 0.34212 0.0
H603 H 0.21495 0.68218 0.3438 0.0
C604 C 0.19433 0.76259 0.20905 0.0
C605 C 0.21387 0.78604 0.18498 0.0
C606 C 0.25164 0.79367 0.19351 0.0
C607 C 0.27027 0.77753 0.22516 0.0
C608 C 0.25045 0.75441 0.24835 0.0
C609 C 0.21321 0.7474 0.2415 0.0
C610 C 0.19853 0.72255 0.27256 0.0
C611 C 0.16846 0.74111 0.30088 0.0
C612 C 0.18412 0.68749 0.24951 0.0
C613 C 0.23355 0.71644 0.29738 0.0
C614 C 0.26311 0.73474 0.28222 0.0
C615 C 0.29877 0.73209 0.29798 0.0
C616 C 0.3044 0.71078 0.33097 0.0
C617 C 0.27433 0.69313 0.34895 0.0
C618 C 0.23846 0.69563 0.3313 0.0
H619 H 0.78309 0.69429 0.60467 0.0
H620 H 0.75339 0.77222 0.51809 0.0
H621 H 0.80255 0.81253 0.54825 0.0
H622 H 0.79619 0.75702 0.69205 0.0
H623 H 0.83452 0.73438 0.71438 0.0
H624 H 0.80081 0.70922 0.68218 0.0
H625 H 0.85308 0.68302 0.63294 0.0
H626 H 0.88702 0.70813 0.66506 0.0
H627 H 0.8843 0.71284 0.60931 0.0
H628 H 0.85115 0.84595 0.5901 0.0
H629 H 0.89441 0.87242 0.64427 0.0
H630 H 0.89075 0.77487 0.70731 0.0
C631 C 0.78769 0.71949 0.59155 0.0
C632 C 0.76491 0.73015 0.55886 0.0
C633 C 0.77075 0.76368 0.54311 0.0
C634 C 0.79869 0.78662 0.55985 0.0
C635 C 0.8203 0.77576 0.5926 0.0
C636 C 0.8151 0.74313 0.60855 0.0
C637 C 0.83972 0.73971 0.64666 0.0
C638 C 0.81641 0.73481 0.68615 0.0
C639 C 0.86769 0.70911 0.63796 0.0
C640 C 0.8589 0.77578 0.65004 0.0
C641 C 0.84768 0.79582 0.61806 0.0
C642 C 0.8603 0.8305 0.61523 0.0
C643 C 0.88464 0.84539 0.64633 0.0
C644 C 0.89577 0.82582 0.68017 0.0
C645 C 0.88314 0.79031 0.68155 0.0
H646 H 0.74595 0.27138 0.05309 0.0
H647 H 0.70315 0.16351 0.05161 0.0
H648 H 0.64995 0.18604 0.09529 0.0
H649 H 0.72464 0.30079 0.15576 0.0
H650 H 0.71031 0.34522 0.14602 0.0
H651 H 0.74288 0.32139 0.11121 0.0
H652 H 0.70014 0.32938 0.04723 0.0
H653 H 0.66756 0.35371 0.08181 0.0
H654 H 0.65248 0.31506 0.04839 0.0
H655 H 0.6094 0.2186 0.14944 0.0
H656 H 0.57832 0.25905 0.20204 0.0
H657 H 0.64036 0.34835 0.15902 0.0
C658 C 0.72484 0.25272 0.06122 0.0
C659 C 0.7284 0.21577 0.04919 0.0
C660 C 0.70053 0.19195 0.06031 0.0
C661 C 0.67038 0.2045 0.08516 0.0
C662 C 0.66808 0.24103 0.09741 0.0
C663 C 0.69398 0.26495 0.08487 0.0
C664 C 0.68544 0.30272 0.10318 0.0
C665 C 0.71773 0.31843 0.13067 0.0
C666 C 0.67582 0.32663 0.06806 0.0
C667 C 0.65174 0.29604 0.12967 0.0
C668 C 0.64238 0.26028 0.126 0.0
C669 C 0.61536 0.24692 0.15126 0.0
C670 C 0.59739 0.27063 0.18103 0.0
C671 C 0.60551 0.3079 0.18488 0.0
C672 C 0.63289 0.32046 0.15789 0.0
H673 H 0.30696 0.22379 0.66441 0.0
H674 H 0.29473 0.33412 0.71515 0.0
H675 H 0.28706 0.31486 0.7867 0.0
H676 H 0.2356 0.19248 0.72157 0.0
H677 H 0.25629 0.15004 0.72987 0.0
H678 H 0.26932 0.1726 0.68483 0.0
H679 H 0.33827 0.17035 0.70765 0.0
H680 H 0.32528 0.14799 0.75315 0.0
H681 H 0.35173 0.18882 0.75974 0.0
H682 H 0.27292 0.28439 0.84983 0.0
H683 H 0.24543 0.24475 0.89887 0.0
H684 H 0.26274 0.15366 0.80714 0.0
C685 C 0.30373 0.24374 0.69095 0.0
C686 C 0.3018 0.28032 0.68486 0.0
C687 C 0.29634 0.30593 0.71964 0.0
C688 C 0.29239 0.29527 0.76032 0.0
C689 C 0.29368 0.2589 0.76546 0.0
C690 C 0.29883 0.23343 0.7317 0.0
C691 C 0.293 0.19608 0.74469 0.0
C692 C 0.26169 0.17669 0.71872 0.0
C693 C 0.32924 0.17454 0.7411 0.0
C694 C 0.28201 0.20468 0.79039 0.0
C695 C 0.28383 0.241 0.80204 0.0
C696 C 0.2719 0.25586 0.84138 0.0
C697 C 0.25622 0.2332 0.86894 0.0
C698 C 0.2521 0.19626 0.85669 0.0
C699 C 0.26643 0.18168 0.81761 0.0
H700 H 0.72244 0.68903 0.37651 0.0
H701 H 0.64891 0.7701 0.43574 0.0
H702 H 0.6577 0.80638 0.37587 0.0
H703 H 0.78678 0.74562 0.33822 0.0
H704 H 0.79486 0.71952 0.28871 0.0
H705 H 0.77962 0.69794 0.33373 0.0
H706 H 0.72335 0.67104 0.29106 0.0
H707 H 0.73856 0.69241 0.2457 0.0
H708 H 0.69235 0.70019 0.26592 0.0
H709 H 0.68238 0.83772 0.31661 0.0
H710 H 0.71737 0.86042 0.25893 0.0
H711 H 0.76906 0.75618 0.23244 0.0
C712 C 0.70774 0.71415 0.37645 0.0
C713 C 0.68514 0.72687 0.41071 0.0
C714 C 0.66624 0.7598 0.40966 0.0
C715 C 0.67102 0.78058 0.37581 0.0
C716 C 0.69405 0.76762 0.34288 0.0
C717 C 0.71157 0.73489 0.34248 0.0
C718 C 0.73611 0.72794 0.3041 0.0
C719 C 0.77673 0.72245 0.31698 0.0
C720 C 0.72172 0.696 0.27496 0.0
C721 C 0.73105 0.76266 0.2842 0.0
C722 C 0.70658 0.78508 0.30697 0.0
C723 C 0.70064 0.82003 0.29757 0.0
C724 C 0.72058 0.83259 0.26429 0.0
C725 C 0.74587 0.81009 0.24025 0.0
C726 C 0.75023 0.77434 0.24999 0.0
H727 H 0.80197 0.26602 0.9131 0.0
H728 H 0.81221 0.15736 0.85481 0.0
H729 H 0.8014 0.17858 0.78505 0.0
H730 H 0.72846 0.28986 0.85338 0.0
H731 H 0.74303 0.33519 0.8487 0.0
H732 H 0.75774 0.31266 0.89324 0.0
H733 H 0.82641 0.32503 0.87565 0.0
H734 H 0.81184 0.34768 0.8309 0.0
H735 H 0.84402 0.31095 0.82382 0.0
H736 H 0.77962 0.20909 0.72405 0.0
H737 H 0.74941 0.24801 0.67547 0.0
H738 H 0.75535 0.33714 0.77174 0.0
C739 C 0.80289 0.24687 0.88554 0.0
C740 C 0.80779 0.21007 0.88943 0.0
C741 C 0.80825 0.1857 0.85266 0.0
C742 C 0.80243 0.19749 0.8128 0.0
C743 C 0.79661 0.23378 0.81011 0.0
C744 C 0.79711 0.25821 0.84539 0.0
C745 C 0.78648 0.29513 0.83423 0.0
C746 C 0.75187 0.30899 0.85883 0.0
C747 C 0.81914 0.32124 0.84158 0.0
C748 C 0.77828 0.28722 0.78763 0.0
C749 C 0.7848 0.25174 0.77423 0.0
C750 C 0.77537 0.23715 0.73374 0.0
C751 C 0.7582 0.25928 0.70645 0.0
C752 C 0.75096 0.29547 0.71986 0.0
C753 C 0.76184 0.30977 0.76052 0.0
H754 H 0.25473 0.23485 0.48775 0.0
H755 H 0.18572 0.31292 0.55951 0.0
H756 H 0.12962 0.28336 0.52836 0.0
H757 H 0.20072 0.23227 0.39392 0.0
H758 H 0.20787 0.18524 0.37969 0.0
H759 H 0.24226 0.21077 0.41044 0.0
H760 H 0.23801 0.16654 0.46812 0.0
H761 H 0.20333 0.14104 0.43762 0.0
H762 H 0.19367 0.15809 0.49126 0.0
H763 H 0.08105 0.24551 0.48891 0.0
H764 H 0.04391 0.20558 0.43922 0.0
H765 H 0.14538 0.15601 0.38912 0.0
C766 C 0.22777 0.2454 0.4972 0.0
C767 C 0.22444 0.27593 0.52617 0.0
C768 C 0.18879 0.28953 0.53724 0.0
C769 C 0.15679 0.27281 0.51996 0.0
C770 C 0.16098 0.24281 0.49132 0.0
C771 C 0.19556 0.22947 0.47962 0.0
C772 C 0.1925 0.19857 0.44585 0.0
C773 C 0.21198 0.20725 0.40507 0.0
C774 C 0.20778 0.16401 0.46168 0.0
C775 C 0.15085 0.19676 0.44029 0.0
C776 C 0.1331 0.22209 0.46723 0.0
C777 C 0.09464 0.22562 0.46751 0.0
C778 C 0.07379 0.20296 0.43897 0.0
C779 C 0.09152 0.17749 0.41011 0.0
C780 C 0.13062 0.17444 0.41126 0.0
H781 H 0.23408 0.74432 0.97697 0.0
H782 H 0.3045 0.80105 0.07179 0.0
H783 H 0.35949 0.77168 0.03872 0.0
H784 H 0.28481 0.66146 0.96901 0.0
H785 H 0.27842 0.65331 0.91277 0.0
H786 H 0.24431 0.67845 0.94427 0.0
H787 H 0.25119 0.73107 0.89763 0.0
H788 H 0.28521 0.70604 0.86591 0.0
H789 H 0.29643 0.74991 0.89034 0.0
H790 H 0.40717 0.73632 0.9951 0.0
H791 H 0.44369 0.69781 0.94312 0.0
H792 H 0.34211 0.66584 0.87654 0.0
C793 C 0.26103 0.75048 0.99088 0.0
C794 C 0.2649 0.77493 0.027 0.0
C795 C 0.30075 0.78243 0.04405 0.0
C796 C 0.33222 0.76585 0.02558 0.0
C797 C 0.32745 0.7419 0.99001 0.0
C798 C 0.29279 0.73428 0.97276 0.0
C799 C 0.29536 0.70801 0.93397 0.0
C800 C 0.27449 0.67325 0.94041 0.0
C801 C 0.28122 0.72477 0.89464 0.0
C802 C 0.33681 0.70208 0.93222 0.0
C803 C 0.35489 0.72176 0.96481 0.0
C804 C 0.39334 0.72072 0.9694 0.0
C805 C 0.41385 0.69895 0.93971 0.0
C806 C 0.39574 0.6786 0.90606 0.0
C807 C 0.35674 0.68044 0.90243 0.0
loop_
_geom_bond_atom_site_label_1
_geom_bond_atom_site_label_2
_geom_bond_distance
_geom_bond_site_symmetry_2
_ccdc_geom_bond_type
Fe0 O2 1.918 . S
Fe0 O5 1.997 . S
Fe0 O6 2.002 . S
Fe0 O11 1.976 . S
Fe0 O14 1.996 . S
Fe1 O2 1.918 . S
Fe1 O9 1.997 . S
Fe1 O12 1.996 . S
Fe1 O16 1.976 . S
Fe1 O19 2.002 . S
O2 Fe0 1.918 . S
O2 Fe1 1.918 . S
O2 Fe3 1.918 . S
Fe3 O2 1.918 . S
Fe3 O4 2.002 . S
Fe3 O13 1.976 . S
Fe3 O17 2.015 . S
Fe3 O20 1.997 . S
O4 Fe3 2.002 . S
O4 C21 1.295 . S
O5 Fe0 1.997 . S
O5 C21 1.235 . S
O6 Fe0 2.002 . S
O6 C7 1.295 . S
C7 O6 1.295 . S
C7 O9 1.235 . S
C8 O13 1.287 . S
C8 O14 1.255 . S
O9 Fe1 1.997 . S
O9 C7 1.235 . S
C10 O16 1.287 1_556 S
C10 O17 1.245 1_556 S
O11 Fe0 1.976 . S
O11 C18 1.287 . S
O12 Fe1 1.996 . S
O12 C18 1.255 . S
O13 Fe3 1.976 . S
O13 C8 1.287 . S
O14 Fe0 1.996 . S
O14 C8 1.255 . S
C15 O19 1.295 . S
C15 O20 1.235 . S
O16 Fe1 1.976 . S
O16 C10 1.287 1_554 S
O17 Fe3 2.015 . S
O17 C10 1.245 1_554 S
C18 O11 1.287 . S
C18 O12 1.255 . S
O19 Fe1 2.002 . S
O19 C15 1.295 . S
O20 Fe3 1.997 . S
O20 C15 1.235 . S
C21 O4 1.295 . S
C21 O5 1.235 . S
Fe22 O24 1.918 . S
Fe22 O27 1.997 . S
Fe22 O28 2.002 . S
Fe22 O33 1.976 . S
Fe22 O36 1.996 . S
Fe23 O24 1.918 . S
Fe23 O31 1.997 . S
Fe23 O34 1.996 . S
Fe23 O38 1.976 . S
Fe23 O41 2.002 . S
O24 Fe22 1.918 . S
O24 Fe23 1.918 . S
O24 Fe25 1.918 . S
Fe25 O24 1.918 . S
Fe25 O26 2.002 . S
Fe25 O35 1.976 . S
Fe25 O39 1.996 . S
Fe25 O42 1.997 . S
O26 Fe25 2.002 . S
O26 C43 1.295 . S
O27 Fe22 1.997 . S
O27 C43 1.235 . S
O28 Fe22 2.002 . S
O28 C29 1.295 . S
C29 O28 1.295 . S
C29 O31 1.235 . S
C30 O35 1.287 . S
C30 O36 1.255 . S
O31 Fe23 1.997 . S
O31 C29 1.235 . S
C32 O38 1.287 . S
C32 O39 1.255 . S
O33 Fe22 1.976 . S
O33 C40 1.287 . S
O34 Fe23 1.996 . S
O34 C40 1.255 . S
O35 Fe25 1.976 . S
O35 C30 1.287 . S
O36 Fe22 1.996 . S
O36 C30 1.255 . S
C37 O41 1.295 . S
C37 O42 1.235 . S
O38 Fe23 1.976 . S
O38 C32 1.287 . S
O39 Fe25 1.996 . S
O39 C32 1.255 . S
C40 O33 1.287 . S
C40 O34 1.255 . S
O41 Fe23 2.002 . S
O41 C37 1.295 . S
O42 Fe25 1.997 . S
O42 C37 1.235 . S
C43 O26 1.295 . S
C43 O27 1.235 . S
Fe44 O46 1.918 . S
Fe44 O49 1.997 1_554 S
Fe44 O50 2.002 . S
Fe44 O55 1.976 . S
Fe44 O58 1.996 . S
Fe45 O46 1.918 . S
Fe45 O53 1.997 . S
Fe45 O56 1.996 . S
Fe45 O60 1.976 . S
Fe45 O63 2.002 1_554 S
O46 Fe44 1.918 . S
O46 Fe45 1.918 . S
O46 Fe47 1.918 1_554 S
Fe47 O46 1.918 1_556 S
Fe47 O48 2.002 . S
Fe47 O57 1.976 1_556 S
Fe47 O61 1.996 1_556 S
Fe47 O64 1.997 . S
O48 Fe47 2.002 . S
O48 C65 1.295 . S
O49 Fe44 1.997 1_556 S
O49 C65 1.235 . S
O50 Fe44 2.002 . S
O50 C51 1.295 1_554 S
C51 O50 1.295 1_556 S
C51 O53 1.235 1_556 S
C52 O57 1.287 . S
C52 O58 1.255 . S
O53 Fe45 1.997 . S
O53 C51 1.235 1_554 S
C54 O60 1.287 . S
C54 O61 1.255 . S
O55 Fe44 1.976 . S
O55 C62 1.287 . S
O56 Fe45 1.996 . S
O56 C62 1.255 . S
O57 Fe47 1.976 1_554 S
O57 C52 1.287 . S
O58 Fe44 1.996 . S
O58 C52 1.255 . S
C59 O63 1.295 . S
C59 O64 1.235 . S
O60 Fe45 1.976 . S
O60 C54 1.287 . S
O61 Fe47 1.996 1_554 S
O61 C54 1.255 . S
C62 O55 1.287 . S
C62 O56 1.255 . S
O63 Fe45 2.002 1_556 S
O63 C59 1.295 . S
O64 Fe47 1.997 . S
O64 C59 1.235 . S
C65 O48 1.295 . S
C65 O49 1.235 . S
Fe66 O68 1.918 . S
Fe66 O71 1.997 . S
Fe66 O72 2.002 . S
Fe66 O77 1.976 . S
Fe66 O80 1.996 . S
Fe67 O68 1.918 . S
Fe67 O75 1.997 . S
Fe67 O78 1.996 . S
Fe67 O82 1.976 . S
Fe67 O85 2.002 . S
O68 Fe66 1.918 . S
O68 Fe67 1.918 . S
O68 Fe69 1.918 . S
Fe69 O68 1.918 . S
Fe69 O70 2.002 . S
Fe69 O79 1.976 . S
Fe69 O83 1.996 . S
Fe69 O86 1.997 . S
O70 Fe69 2.002 . S
O70 C87 1.295 . S
O71 Fe66 1.997 . S
O71 C87 1.235 . S
O72 Fe66 2.002 . S
O72 C73 1.295 . S
C73 O72 1.295 . S
C73 O75 1.235 . S
C74 O79 1.287 . S
C74 O80 1.255 . S
O75 Fe67 1.997 . S
O75 C73 1.235 . S
C76 O82 1.287 . S
C76 O83 1.255 . S
O77 Fe66 1.976 . S
O77 C84 1.287 . S
O78 Fe67 1.996 . S
O78 C84 1.255 . S
O79 Fe69 1.976 . S
O79 C74 1.287 . S
O80 Fe66 1.996 . S
O80 C74 1.255 . S
C81 O85 1.295 . S
C81 O86 1.235 . S
O82 Fe67 1.976 . S
O82 C76 1.287 . S
O83 Fe69 1.996 . S
O83 C76 1.255 . S
C84 O77 1.287 . S
C84 O78 1.255 . S
O85 Fe67 2.002 . S
O85 C81 1.295 . S
O86 Fe69 1.997 . S
O86 C81 1.235 . S
C87 O70 1.295 . S
C87 O71 1.235 . S
H88 C91 0.931 . S
H89 C94 0.928 . S
H90 C96 0.930 . S
C91 H88 0.931 . S
C91 C92 1.413 . S
C91 C93 1.360 . S
C92 C91 1.413 . S
C92 C96 1.429 . S
C93 C91 1.360 . S
C93 C94 1.372 . S
C94 H89 0.928 . S
C94 C93 1.372 . S
C94 C95 1.404 . S
C95 C94 1.404 . S
C95 C96 1.391 . S
C96 H90 0.930 . S
C96 C92 1.429 . S
C96 C95 1.391 . S
H97 C100 0.931 . S
H98 C103 0.928 . S
H99 C105 0.930 . S
C100 H97 0.931 . S
C100 C101 1.413 . S
C100 C102 1.360 . S
C101 C100 1.413 . S
C101 C105 1.429 . S
C102 C100 1.360 . S
C102 C103 1.372 . S
C103 H98 0.928 . S
C103 C102 1.372 . S
C103 C104 1.404 . S
C104 C103 1.404 . S
C104 C105 1.391 . S
C105 H99 0.930 . S
C105 C101 1.429 . S
C105 C104 1.391 . S
H106 C109 0.931 . S
H107 C112 0.928 . S
H108 C114 0.930 . S
C109 H106 0.931 . S
C109 C110 1.413 . S
C109 C111 1.360 . S
C110 C109 1.413 . S
C110 C114 1.429 . S
C111 C109 1.360 . S
C111 C112 1.372 . S
C112 H107 0.928 . S
C112 C111 1.372 . S
C112 C113 1.404 . S
C113 C112 1.404 . S
C113 C114 1.391 . S
C114 H108 0.930 . S
C114 C110 1.429 . S
C114 C113 1.391 . S
H115 C118 0.931 . S
H116 C121 0.928 . S
H117 C123 0.930 . S
C118 H115 0.931 . S
C118 C119 1.413 . S
C118 C120 1.360 . S
C119 C118 1.413 . S
C119 C123 1.429 . S
C120 C118 1.360 . S
C120 C121 1.372 . S
C121 H116 0.928 . S
C121 C120 1.372 . S
C121 C122 1.404 . S
C122 C121 1.404 . S
C122 C123 1.391 . S
C123 H117 0.930 . S
C123 C119 1.429 . S
C123 C122 1.391 . S
H124 C127 0.931 . S
H125 C130 0.928 . S
H126 C132 0.930 . S
C127 H124 0.931 . S
C127 C128 1.413 . S
C127 C129 1.360 . S
C128 C127 1.413 . S
C128 C132 1.429 . S
C129 C127 1.360 . S
C129 C130 1.372 . S
C130 H125 0.928 . S
C130 C129 1.372 . S
C130 C131 1.404 . S
C131 C130 1.404 . S
C131 C132 1.391 . S
C132 H126 0.930 . S
C132 C128 1.429 . S
C132 C131 1.391 . S
H133 C136 0.931 . S
H134 C139 0.928 . S
H135 C141 0.930 . S
C136 H133 0.931 . S
C136 C137 1.413 . S
C136 C138 1.360 . S
C137 C136 1.413 . S
C137 C141 1.429 . S
C138 C136 1.360 . S
C138 C139 1.372 . S
C139 H134 0.928 . S
C139 C138 1.372 . S
C139 C140 1.404 . S
C140 C139 1.404 . S
C140 C141 1.391 . S
C141 H135 0.930 . S
C141 C137 1.429 . S
C141 C140 1.391 . S
H142 C145 0.931 . S
H143 C148 0.928 . S
H144 C150 0.930 . S
C145 H142 0.931 . S
C145 C146 1.413 . S
C145 C147 1.360 . S
C146 C145 1.413 . S
C146 C150 1.429 . S
C147 C145 1.360 . S
C147 C148 1.372 . S
C148 H143 0.928 . S
C148 C147 1.372 . S
C148 C149 1.404 . S
C149 C148 1.404 . S
C149 C150 1.391 . S
C150 H144 0.930 . S
C150 C146 1.429 . S
C150 C149 1.391 . S
H151 C154 0.931 . S
H152 C157 0.928 . S
H153 C159 0.930 . S
C154 H151 0.931 . S
C154 C155 1.413 . S
C154 C156 1.360 . S
C155 C154 1.413 . S
C155 C159 1.429 . S
C156 C154 1.360 . S
C156 C157 1.372 . S
C157 H152 0.928 . S
C157 C156 1.372 . S
C157 C158 1.404 . S
C158 C157 1.404 . S
C158 C159 1.391 . S
C159 H153 0.930 . S
C159 C155 1.429 . S
C159 C158 1.391 . S
H160 C172 0.930 . S
H161 C174 0.930 . S
H162 C175 0.930 1_545 S
H163 C179 0.959 . S
H164 C179 0.959 . S
H165 C179 0.961 . S
H166 C180 0.960 . S
H167 C180 0.961 . S
H168 C180 0.959 . S
H169 C183 0.929 . S
H170 C184 0.931 . S
H171 C186 0.930 . S
C172 H160 0.930 . S
C172 C173 1.399 . S
C172 C177 1.399 . S
C173 C172 1.399 . S
C173 C174 1.376 . S
C174 H161 0.930 . S
C174 C173 1.376 . S
C174 C175 1.388 . S
C175 H162 0.930 1_565 S
C175 C174 1.388 . S
C175 C176 1.390 . S
C176 C175 1.390 . S
C176 C177 1.394 . S
C176 C182 1.465 1_565 S
C177 C172 1.399 . S
C177 C176 1.394 . S
C177 C178 1.516 . S
C178 C177 1.516 . S
C178 C179 1.502 . S
C178 C180 1.561 . S
C178 C181 1.526 1_565 S
C179 H163 0.959 . S
C179 H164 0.959 . S
C179 H165 0.961 . S
C179 C178 1.502 . S
C180 H166 0.960 . S
C180 H167 0.961 . S
C180 H168 0.959 . S
C180 C178 1.561 . S
C181 C178 1.526 1_545 S
C181 C182 1.396 . S
C181 C186 1.390 . S
C182 C176 1.465 1_545 S
C182 C181 1.396 . S
C182 C183 1.399 . S
C183 H169 0.929 . S
C183 C182 1.399 . S
C183 C184 1.385 . S
C184 H170 0.931 . S
C184 C183 1.385 . S
C184 C185 1.389 . S
C185 C184 1.389 . S
C185 C186 1.387 . S
C186 H171 0.930 . S
C186 C181 1.390 . S
C186 C185 1.387 . S
H187 C199 0.930 . S
H188 C201 0.930 . S
H189 C202 0.930 . S
H190 C206 0.959 . S
H191 C206 0.959 . S
H192 C206 0.961 . S
H193 C207 0.960 . S
H194 C207 0.961 . S
H195 C207 0.959 . S
H196 C210 0.929 . S
H197 C211 0.931 . S
H198 C213 0.930 . S
C199 H187 0.930 . S
C199 C200 1.399 . S
C199 C204 1.399 . S
C200 C199 1.399 . S
C200 C201 1.376 . S
C201 H188 0.930 . S
C201 C200 1.376 . S
C201 C202 1.388 . S
C202 H189 0.930 . S
C202 C201 1.388 . S
C202 C203 1.390 . S
C203 C202 1.390 . S
C203 C204 1.394 . S
C203 C209 1.465 . S
C204 C199 1.399 . S
C204 C203 1.394 . S
C204 C205 1.516 . S
C205 C204 1.516 . S
C205 C206 1.502 . S
C205 C207 1.561 . S
C205 C208 1.526 . S
C206 H190 0.959 . S
C206 H191 0.959 . S
C206 H192 0.961 . S
C206 C205 1.502 . S
C207 H193 0.960 . S
C207 H194 0.961 . S
C207 H195 0.959 . S
C207 C205 1.561 . S
C208 C205 1.526 . S
C208 C209 1.396 . S
C208 C213 1.390 . S
C209 C203 1.465 . S
C209 C208 1.396 . S
C209 C210 1.399 . S
C210 H196 0.929 . S
C210 C209 1.399 . S
C210 C211 1.385 . S
C211 H197 0.931 . S
C211 C210 1.385 . S
C211 C212 1.389 . S
C212 C211 1.389 . S
C212 C213 1.387 . S
C213 H198 0.930 . S
C213 C208 1.390 . S
C213 C212 1.387 . S
H214 C226 0.930 . S
H215 C228 0.930 . S
H216 C229 0.930 . S
H217 C233 0.959 . S
H218 C233 0.959 . S
H219 C233 0.961 . S
H220 C234 0.960 1_545 S
H221 C234 0.961 . S
H222 C234 0.959 1_545 S
H223 C237 0.929 . S
H224 C238 0.931 . S
H225 C240 0.930 . S
C226 H214 0.930 . S
C226 C227 1.399 . S
C226 C231 1.399 . S
C227 C226 1.399 . S
C227 C228 1.376 . S
C228 H215 0.930 . S
C228 C227 1.376 . S
C228 C229 1.388 . S
C229 H216 0.930 . S
C229 C228 1.388 . S
C229 C230 1.390 1_545 S
C230 C229 1.390 1_565 S
C230 C231 1.394 1_565 S
C230 C236 1.465 . S
C231 C226 1.399 . S
C231 C230 1.394 1_545 S
C231 C232 1.516 1_545 S
C232 C231 1.516 1_565 S
C232 C233 1.502 . S
C232 C234 1.561 . S
C232 C235 1.526 . S
C233 H217 0.959 . S
C233 H218 0.959 . S
C233 H219 0.961 . S
C233 C232 1.502 . S
C234 H220 0.960 1_565 S
C234 H221 0.961 . S
C234 H222 0.959 1_565 S
C234 C232 1.561 . S
C235 C232 1.526 . S
C235 C236 1.396 . S
C235 C240 1.390 . S
C236 C230 1.465 . S
C236 C235 1.396 . S
C236 C237 1.399 . S
C237 H223 0.929 . S
C237 C236 1.399 . S
C237 C238 1.385 . S
C238 H224 0.931 . S
C238 C237 1.385 . S
C238 C239 1.389 . S
C239 C238 1.389 . S
C239 C240 1.387 . S
C240 H225 0.930 . S
C240 C235 1.390 . S
C240 C239 1.387 . S
H241 C253 0.930 . S
H242 C255 0.930 . S
H243 C256 0.930 . S
H244 C260 0.959 . S
H245 C260 0.959 . S
H246 C260 0.961 . S
H247 C261 0.960 . S
H248 C261 0.961 . S
H249 C261 0.959 . S
H250 C264 0.929 . S
H251 C265 0.931 . S
H252 C267 0.930 . S
C253 H241 0.930 . S
C253 C254 1.399 . S
C253 C258 1.399 . S
C254 C253 1.399 . S
C254 C255 1.376 . S
C255 H242 0.930 . S
C255 C254 1.376 . S
C255 C256 1.388 . S
C256 H243 0.930 . S
C256 C255 1.388 . S
C256 C257 1.390 . S
C257 C256 1.390 . S
C257 C258 1.394 . S
C257 C263 1.465 . S
C258 C253 1.399 . S
C258 C257 1.394 . S
C258 C259 1.516 . S
C259 C258 1.516 . S
C259 C260 1.502 . S
C259 C261 1.561 . S
C259 C262 1.526 . S
C260 H244 0.959 . S
C260 H245 0.959 . S
C260 H246 0.961 . S
C260 C259 1.502 . S
C261 H247 0.960 . S
C261 H248 0.961 . S
C261 H249 0.959 . S
C261 C259 1.561 . S
C262 C259 1.526 . S
C262 C263 1.396 . S
C262 C267 1.390 . S
C263 C257 1.465 . S
C263 C262 1.396 . S
C263 C264 1.399 . S
C264 H250 0.929 . S
C264 C263 1.399 . S
C264 C265 1.385 . S
C265 H251 0.931 . S
C265 C264 1.385 . S
C265 C266 1.389 . S
C266 C265 1.389 . S
C266 C267 1.387 . S
C267 H252 0.930 . S
C267 C262 1.390 . S
C267 C266 1.387 . S
H268 C280 0.930 . S
H269 C282 0.930 . S
H270 C283 0.930 . S
H271 C287 0.959 . S
H272 C287 0.959 . S
H273 C287 0.961 . S
H274 C288 0.960 . S
H275 C288 0.961 . S
H276 C288 0.959 . S
H277 C291 0.929 . S
H278 C292 0.931 . S
H279 C294 0.930 . S
C280 H268 0.930 . S
C280 C281 1.399 . S
C280 C285 1.399 . S
C281 C280 1.399 . S
C281 C282 1.376 . S
C282 H269 0.930 . S
C282 C281 1.376 . S
C282 C283 1.388 . S
C283 H270 0.930 . S
C283 C282 1.388 . S
C283 C284 1.390 . S
C284 C283 1.390 . S
C284 C285 1.394 . S
C284 C290 1.465 . S
C285 C280 1.399 . S
C285 C284 1.394 . S
C285 C286 1.516 . S
C286 C285 1.516 . S
C286 C287 1.502 . S
C286 C288 1.561 . S
C286 C289 1.526 . S
C287 H271 0.959 . S
C287 H272 0.959 . S
C287 H273 0.961 . S
C287 C286 1.502 . S
C288 H274 0.960 . S
C288 H275 0.961 . S
C288 H276 0.959 . S
C288 C286 1.561 . S
C289 C286 1.526 . S
C289 C290 1.396 . S
C289 C294 1.390 . S
C290 C284 1.465 . S
C290 C289 1.396 . S
C290 C291 1.399 . S
C291 H277 0.929 . S
C291 C290 1.399 . S
C291 C292 1.385 . S
C292 H278 0.931 . S
C292 C291 1.385 . S
C292 C293 1.389 . S
C293 C292 1.389 . S
C293 C294 1.387 . S
C294 H279 0.930 . S
C294 C289 1.390 . S
C294 C293 1.387 . S
H295 C307 0.930 1_554 S
H296 C309 0.930 . S
H297 C310 0.930 . S
H298 C314 0.959 . S
H299 C314 0.959 . S
H300 C314 0.961 . S
H301 C315 0.960 . S
H302 C315 0.961 . S
H303 C315 0.959 . S
H304 C318 0.929 . S
H305 C319 0.931 . S
H306 C321 0.930 . S
C307 H295 0.930 1_556 S
C307 C308 1.399 . S
C307 C312 1.399 1_655 S
C308 C307 1.399 . S
C308 C309 1.376 . S
C309 H296 0.930 . S
C309 C308 1.376 . S
C309 C310 1.388 1_655 S
C310 H297 0.930 . S
C310 C309 1.388 1_455 S
C310 C311 1.390 . S
C311 C310 1.390 . S
C311 C312 1.394 . S
C311 C317 1.465 . S
C312 C307 1.399 1_455 S
C312 C311 1.394 . S
C312 C313 1.516 . S
C313 C312 1.516 . S
C313 C314 1.502 1_556 S
C313 C315 1.561 . S
C313 C316 1.526 . S
C314 H298 0.959 . S
C314 H299 0.959 . S
C314 H300 0.961 . S
C314 C313 1.502 1_554 S
C315 H301 0.960 . S
C315 H302 0.961 . S
C315 H303 0.959 . S
C315 C313 1.561 . S
C316 C313 1.526 . S
C316 C317 1.396 . S
C316 C321 1.390 . S
C317 C311 1.465 . S
C317 C316 1.396 . S
C317 C318 1.399 . S
C318 H304 0.929 . S
C318 C317 1.399 . S
C318 C319 1.385 . S
C319 H305 0.931 . S
C319 C318 1.385 . S
C319 C320 1.389 . S
C320 C319 1.389 . S
C320 C321 1.387 . S
C321 H306 0.930 . S
C321 C316 1.390 . S
C321 C320 1.387 . S
H322 C334 0.930 . S
H323 C336 0.930 . S
H324 C337 0.930 . S
H325 C341 0.959 . S
H326 C341 0.959 . S
H327 C341 0.961 . S
H328 C342 0.960 . S
H329 C342 0.961 . S
H330 C342 0.959 . S
H331 C345 0.929 . S
H332 C346 0.931 . S
H333 C348 0.930 . S
C334 H322 0.930 . S
C334 C335 1.399 . S
C334 C339 1.399 . S
C335 C334 1.399 . S
C335 C336 1.376 . S
C336 H323 0.930 . S
C336 C335 1.376 . S
C336 C337 1.388 . S
C337 H324 0.930 . S
C337 C336 1.388 . S
C337 C338 1.390 . S
C338 C337 1.390 . S
C338 C339 1.394 . S
C338 C344 1.465 . S
C339 C334 1.399 . S
C339 C338 1.394 . S
C339 C340 1.516 . S
C340 C339 1.516 . S
C340 C341 1.502 . S
C340 C342 1.561 . S
C340 C343 1.526 . S
C341 H325 0.959 . S
C341 H326 0.959 . S
C341 H327 0.961 . S
C341 C340 1.502 . S
C342 H328 0.960 . S
C342 H329 0.961 . S
C342 H330 0.959 . S
C342 C340 1.561 . S
C343 C340 1.526 . S
C343 C344 1.396 . S
C343 C348 1.390 . S
C344 C338 1.465 . S
C344 C343 1.396 . S
C344 C345 1.399 . S
C345 H331 0.929 . S
C345 C344 1.399 . S
C345 C346 1.385 . S
C346 H332 0.931 . S
C346 C345 1.385 . S
C346 C347 1.389 . S
C347 C346 1.389 . S
C347 C348 1.387 . S
C348 H333 0.930 . S
C348 C343 1.390 . S
C348 C347 1.387 . S
H349 C361 0.930 . S
H350 C363 0.930 . S
H351 C364 0.930 . S
H352 C368 0.959 . S
H353 C368 0.959 . S
H354 C368 0.961 . S
H355 C369 0.960 . S
H356 C369 0.961 . S
H357 C369 0.959 1_655 S
H358 C372 0.929 . S
H359 C373 0.931 . S
H360 C375 0.930 . S
C361 H349 0.930 . S
C361 C362 1.399 . S
C361 C366 1.399 . S
C362 C361 1.399 . S
C362 C363 1.376 . S
C363 H350 0.930 . S
C363 C362 1.376 . S
C363 C364 1.388 . S
C364 H351 0.930 . S
C364 C363 1.388 . S
C364 C365 1.390 . S
C365 C364 1.390 . S
C365 C366 1.394 . S
C365 C371 1.465 . S
C366 C361 1.399 . S
C366 C365 1.394 . S
C366 C367 1.516 . S
C367 C366 1.516 . S
C367 C368 1.502 . S
C367 C369 1.561 . S
C367 C370 1.526 . S
C368 H352 0.959 . S
C368 H353 0.959 . S
C368 H354 0.961 . S
C368 C367 1.502 . S
C369 H355 0.960 . S
C369 H356 0.961 . S
C369 H357 0.959 1_455 S
C369 C367 1.561 . S
C370 C367 1.526 . S
C370 C371 1.396 . S
C370 C375 1.386 1_455 S
C371 C365 1.465 . S
C371 C370 1.396 . S
C371 C372 1.399 1_455 S
C372 H358 0.929 . S
C372 C371 1.399 1_655 S
C372 C373 1.385 . S
C373 H359 0.931 . S
C373 C372 1.385 . S
C373 C374 1.389 . S
C374 C373 1.389 . S
C374 C375 1.390 . S
C375 H360 0.930 . S
C375 C370 1.386 1_655 S
C375 C374 1.390 . S
H376 C388 0.930 . S
H377 C390 0.930 . S
H378 C391 0.930 . S
H379 C395 0.959 . S
H380 C395 0.959 . S
H381 C395 0.961 . S
H382 C396 0.960 . S
H383 C396 0.961 . S
H384 C396 0.959 . S
H385 C399 0.929 1_545 S
H386 C400 0.931 . S
H387 C402 0.930 . S
C388 H376 0.930 . S
C388 C389 1.399 . S
C388 C393 1.399 . S
C389 C388 1.399 . S
C389 C390 1.376 . S
C390 H377 0.930 . S
C390 C389 1.376 . S
C390 C391 1.388 . S
C391 H378 0.930 . S
C391 C390 1.388 . S
C391 C392 1.390 . S
C392 C391 1.390 . S
C392 C393 1.394 . S
C392 C398 1.465 1_545 S
C393 C388 1.399 . S
C393 C392 1.394 . S
C393 C394 1.516 1_545 S
C394 C393 1.516 1_565 S
C394 C395 1.502 . S
C394 C396 1.561 . S
C394 C397 1.526 . S
C395 H379 0.959 . S
C395 H380 0.959 . S
C395 H381 0.961 . S
C395 C394 1.502 . S
C396 H382 0.960 . S
C396 H383 0.961 . S
C396 H384 0.959 . S
C396 C394 1.561 . S
C397 C394 1.526 . S
C397 C398 1.396 . S
C397 C402 1.390 . S
C398 C392 1.465 1_565 S
C398 C397 1.396 . S
C398 C399 1.399 . S
C399 H385 0.929 1_565 S
C399 C398 1.399 . S
C399 C400 1.385 . S
C400 H386 0.931 . S
C400 C399 1.385 . S
C400 C401 1.389 . S
C401 C400 1.389 . S
C401 C402 1.387 . S
C402 H387 0.930 . S
C402 C397 1.390 . S
C402 C401 1.387 . S
H403 C415 0.930 . S
H404 C417 0.930 . S
H405 C418 0.930 . S
H406 C422 0.959 . S
H407 C422 0.959 . S
H408 C422 0.961 . S
H409 C423 0.960 . S
H410 C423 0.961 . S
H411 C423 0.959 . S
H412 C426 0.929 . S
H413 C427 0.931 . S
H414 C429 0.930 . S
C415 H403 0.930 . S
C415 C416 1.399 . S
C415 C420 1.399 . S
C416 C415 1.399 . S
C416 C417 1.376 . S
C417 H404 0.930 . S
C417 C416 1.376 . S
C417 C418 1.388 . S
C418 H405 0.930 . S
C418 C417 1.388 . S
C418 C419 1.390 . S
C419 C418 1.390 . S
C419 C420 1.394 . S
C419 C425 1.465 . S
C420 C415 1.399 . S
C420 C419 1.394 . S
C420 C421 1.516 . S
C421 C420 1.516 . S
C421 C422 1.502 . S
C421 C423 1.561 . S
C421 C424 1.526 . S
C422 H406 0.959 . S
C422 H407 0.959 . S
C422 H408 0.961 . S
C422 C421 1.502 . S
C423 H409 0.960 . S
C423 H410 0.961 . S
C423 H411 0.959 . S
C423 C421 1.561 . S
C424 C421 1.526 . S
C424 C425 1.396 . S
C424 C429 1.390 . S
C425 C419 1.465 . S
C425 C424 1.396 . S
C425 C426 1.399 . S
C426 H412 0.929 . S
C426 C425 1.399 . S
C426 C427 1.385 . S
C427 H413 0.931 . S
C427 C426 1.385 . S
C427 C428 1.389 . S
C428 C427 1.389 . S
C428 C429 1.387 . S
C429 H414 0.930 . S
C429 C424 1.390 . S
C429 C428 1.387 . S
H430 C442 0.930 . S
H431 C444 0.930 . S
H432 C445 0.917 1_545 S
H433 C449 0.959 . S
H434 C449 0.959 1_545 S
H435 C449 0.961 . S
H436 C450 0.960 1_565 S
H437 C450 0.961 . S
H438 C450 0.959 . S
H439 C453 0.929 . S
H440 C454 0.931 . S
H441 C456 0.930 . S
C442 H430 0.930 . S
C442 C443 1.399 1_556 S
C442 C447 1.399 . S
C443 C442 1.399 1_554 S
C443 C444 1.376 . S
C444 H431 0.930 . S
C444 C443 1.376 . S
C444 C445 1.411 . S
C445 H432 0.917 1_565 S
C445 C444 1.411 . S
C445 C446 1.380 1_565 S
C446 C445 1.380 1_545 S
C446 C447 1.394 1_544 S
C446 C452 1.465 . S
C447 C442 1.399 . S
C447 C446 1.394 1_566 S
C447 C448 1.516 1_565 S
C448 C447 1.516 1_545 S
C448 C449 1.502 1_545 S
C448 C450 1.561 . S
C448 C451 1.526 . S
C449 H433 0.959 . S
C449 H434 0.959 1_565 S
C449 H435 0.961 . S
C449 C448 1.502 1_565 S
C450 H436 0.960 1_545 S
C450 H437 0.961 . S
C450 H438 0.959 . S
C450 C448 1.561 . S
C451 C448 1.526 . S
C451 C452 1.396 1_556 S
C451 C456 1.390 . S
C452 C446 1.465 . S
C452 C451 1.396 1_554 S
C452 C453 1.399 . S
C453 H439 0.929 . S
C453 C452 1.399 . S
C453 C454 1.385 . S
C454 H440 0.931 . S
C454 C453 1.385 . S
C454 C455 1.389 1_554 S
C455 C454 1.389 1_556 S
C455 C456 1.387 . S
C456 H441 0.930 . S
C456 C451 1.390 . S
C456 C455 1.387 . S
H457 C469 0.930 . S
H458 C471 0.930 . S
H459 C472 0.930 . S
H460 C476 0.959 . S
H461 C476 0.959 . S
H462 C476 0.961 . S
H463 C477 0.960 . S
H464 C477 0.961 . S
H465 C477 0.959 . S
H466 C480 0.929 . S
H467 C481 0.931 . S
H468 C483 0.930 . S
C469 H457 0.930 . S
C469 C470 1.399 . S
C469 C474 1.399 . S
C470 C469 1.399 . S
C470 C471 1.376 . S
C471 H458 0.930 . S
C471 C470 1.376 . S
C471 C472 1.388 . S
C472 H459 0.930 . S
C472 C471 1.388 . S
C472 C473 1.390 . S
C473 C472 1.390 . S
C473 C474 1.394 . S
C473 C479 1.465 . S
C474 C469 1.399 . S
C474 C473 1.394 . S
C474 C475 1.516 . S
C475 C474 1.516 . S
C475 C476 1.502 . S
C475 C477 1.561 . S
C475 C478 1.526 . S
C476 H460 0.959 . S
C476 H461 0.959 . S
C476 H462 0.961 . S
C476 C475 1.502 . S
C477 H463 0.960 . S
C477 H464 0.961 . S
C477 H465 0.959 . S
C477 C475 1.561 . S
C478 C475 1.526 . S
C478 C479 1.396 . S
C478 C483 1.390 . S
C479 C473 1.465 . S
C479 C478 1.396 . S
C479 C480 1.399 . S
C480 H466 0.929 . S
C480 C479 1.399 . S
C480 C481 1.385 . S
C481 H467 0.931 . S
C481 C480 1.385 . S
C481 C482 1.389 . S
C482 C481 1.389 . S
C482 C483 1.387 . S
C483 H468 0.930 . S
C483 C478 1.390 . S
C483 C482 1.387 . S
H484 C496 0.930 . S
H485 C498 0.930 . S
H486 C499 0.930 . S
H487 C503 0.959 . S
H488 C503 0.959 . S
H489 C503 0.961 . S
H490 C504 0.960 . S
H491 C504 0.961 . S
H492 C504 0.959 . S
H493 C507 0.929 . S
H494 C508 0.931 . S
H495 C510 0.930 . S
C496 H484 0.930 . S
C496 C497 1.399 . S
C496 C501 1.399 . S
C497 C496 1.399 . S
C497 C498 1.376 . S
C498 H485 0.930 . S
C498 C497 1.376 . S
C498 C499 1.388 . S
C499 H486 0.930 . S
C499 C498 1.388 . S
C499 C500 1.390 . S
C500 C499 1.390 . S
C500 C501 1.394 . S
C500 C506 1.465 . S
C501 C496 1.399 . S
C501 C500 1.394 . S
C501 C502 1.516 . S
C502 C501 1.516 . S
C502 C503 1.502 . S
C502 C504 1.561 . S
C502 C505 1.526 . S
C503 H487 0.959 . S
C503 H488 0.959 . S
C503 H489 0.961 . S
C503 C502 1.502 . S
C504 H490 0.960 . S
C504 H491 0.961 . S
C504 H492 0.959 . S
C504 C502 1.561 . S
C505 C502 1.526 . S
C505 C506 1.396 . S
C505 C510 1.390 . S
C506 C500 1.465 . S
C506 C505 1.396 . S
C506 C507 1.399 . S
C507 H493 0.929 . S
C507 C506 1.399 . S
C507 C508 1.385 . S
C508 H494 0.931 . S
C508 C507 1.385 . S
C508 C509 1.389 . S
C509 C508 1.389 . S
C509 C510 1.387 . S
C510 H495 0.930 . S
C510 C505 1.390 . S
C510 C509 1.387 . S
H511 C523 0.930 . S
H512 C525 0.930 . S
H513 C526 0.930 . S
H514 C530 0.959 . S
H515 C530 0.959 . S
H516 C530 0.961 . S
H517 C531 0.960 . S
H518 C531 0.961 . S
H519 C531 0.959 . S
H520 C534 0.929 . S
H521 C535 0.931 . S
H522 C537 0.930 . S
C523 H511 0.930 . S
C523 C524 1.399 . S
C523 C528 1.399 1_455 S
C524 C523 1.399 . S
C524 C525 1.376 . S
C525 H512 0.930 . S
C525 C524 1.376 . S
C525 C526 1.388 1_455 S
C526 H513 0.930 . S
C526 C525 1.388 1_655 S
C526 C527 1.390 . S
C527 C526 1.390 . S
C527 C528 1.394 . S
C527 C533 1.465 . S
C528 C523 1.399 1_655 S
C528 C527 1.394 . S
C528 C529 1.516 . S
C529 C528 1.516 . S
C529 C530 1.502 . S
C529 C531 1.561 . S
C529 C532 1.526 . S
C530 H514 0.959 . S
C530 H515 0.959 . S
C530 H516 0.961 . S
C530 C529 1.502 . S
C531 H517 0.960 . S
C531 H518 0.961 . S
C531 H519 0.959 . S
C531 C529 1.561 . S
C532 C529 1.526 . S
C532 C533 1.396 . S
C532 C537 1.390 . S
C533 C527 1.465 . S
C533 C532 1.396 . S
C533 C534 1.399 . S
C534 H520 0.929 . S
C534 C533 1.399 . S
C534 C535 1.385 . S
C535 H521 0.931 . S
C535 C534 1.385 . S
C535 C536 1.389 . S
C536 C535 1.389 . S
C536 C537 1.387 . S
C537 H522 0.930 . S
C537 C532 1.390 . S
C537 C536 1.387 . S
H538 C550 0.930 . S
H539 C552 0.930 . S
H540 C553 0.930 . S
H541 C557 0.959 . S
H542 C557 0.959 . S
H543 C557 0.961 . S
H544 C558 0.960 . S
H545 C558 0.961 . S
H546 C558 0.959 . S
H547 C561 0.929 . S
H548 C562 0.931 . S
H549 C564 0.930 . S
C550 H538 0.930 . S
C550 C551 1.399 . S
C550 C555 1.399 . S
C551 C550 1.399 . S
C551 C552 1.376 . S
C552 H539 0.930 . S
C552 C551 1.376 . S
C552 C553 1.388 . S
C553 H540 0.930 . S
C553 C552 1.388 . S
C553 C554 1.390 . S
C554 C553 1.390 . S
C554 C555 1.394 . S
C554 C560 1.465 . S
C555 C550 1.399 . S
C555 C554 1.394 . S
C555 C556 1.516 . S
C556 C555 1.516 . S
C556 C557 1.502 . S
C556 C558 1.561 . S
C556 C559 1.526 . S
C557 H541 0.959 . S
C557 H542 0.959 . S
C557 H543 0.961 . S
C557 C556 1.502 . S
C558 H544 0.960 . S
C558 H545 0.961 . S
C558 H546 0.959 . S
C558 C556 1.561 . S
C559 C556 1.526 . S
C559 C560 1.396 . S
C559 C564 1.390 . S
C560 C554 1.465 . S
C560 C559 1.396 . S
C560 C561 1.399 . S
C561 H547 0.929 . S
C561 C560 1.399 . S
C561 C562 1.385 . S
C562 H548 0.931 . S
C562 C561 1.385 . S
C562 C563 1.389 . S
C563 C562 1.389 . S
C563 C564 1.387 . S
C564 H549 0.930 . S
C564 C559 1.390 . S
C564 C563 1.387 . S
H565 C577 0.930 . S
H566 C579 0.930 . S
H567 C580 0.930 . S
H568 C584 0.959 . S
H569 C584 0.959 . S
H570 C584 0.961 . S
H571 C585 0.960 . S
H572 C585 0.961 . S
H573 C585 0.959 . S
H574 C588 0.929 . S
H575 C589 0.931 . S
H576 C591 0.930 . S
C577 H565 0.930 . S
C577 C578 1.399 . S
C577 C582 1.399 . S
C578 C577 1.399 . S
C578 C579 1.376 . S
C579 H566 0.930 . S
C579 C578 1.376 . S
C579 C580 1.388 . S
C580 H567 0.930 . S
C580 C579 1.388 . S
C580 C581 1.390 . S
C581 C580 1.390 . S
C581 C582 1.394 . S
C581 C587 1.465 . S
C582 C577 1.399 . S
C582 C581 1.394 . S
C582 C583 1.516 . S
C583 C582 1.516 . S
C583 C584 1.502 . S
C583 C585 1.561 . S
C583 C586 1.526 . S
C584 H568 0.959 . S
C584 H569 0.959 . S
C584 H570 0.961 . S
C584 C583 1.502 . S
C585 H571 0.960 . S
C585 H572 0.961 . S
C585 H573 0.959 . S
C585 C583 1.561 . S
C586 C583 1.526 . S
C586 C587 1.396 . S
C586 C591 1.390 . S
C587 C581 1.465 . S
C587 C586 1.396 . S
C587 C588 1.399 1_655 S
C588 H574 0.929 . S
C588 C587 1.399 1_455 S
C588 C589 1.385 . S
C589 H575 0.931 . S
C589 C588 1.385 . S
C589 C590 1.389 . S
C590 C589 1.389 . S
C590 C591 1.387 1_455 S
C591 H576 0.930 . S
C591 C586 1.390 . S
C591 C590 1.387 1_655 S
H592 C604 0.930 . S
H593 C606 0.930 . S
H594 C607 0.930 . S
H595 C611 0.959 . S
H596 C611 0.959 . S
H597 C611 0.961 . S
H598 C612 0.960 . S
H599 C612 0.961 . S
H600 C612 0.959 . S
H601 C615 0.929 . S
H602 C616 0.931 . S
H603 C618 0.930 . S
C604 H592 0.930 . S
C604 C605 1.399 . S
C604 C609 1.399 . S
C605 C604 1.399 . S
C605 C606 1.376 . S
C606 H593 0.930 . S
C606 C605 1.376 . S
C606 C607 1.388 . S
C607 H594 0.930 . S
C607 C606 1.388 . S
C607 C608 1.390 . S
C608 C607 1.390 . S
C608 C609 1.394 . S
C608 C614 1.465 . S
C609 C604 1.399 . S
C609 C608 1.394 . S
C609 C610 1.516 . S
C610 C609 1.516 . S
C610 C611 1.502 . S
C610 C612 1.561 . S
C610 C613 1.526 . S
C611 H595 0.959 . S
C611 H596 0.959 . S
C611 H597 0.961 . S
C611 C610 1.502 . S
C612 H598 0.960 . S
C612 H599 0.961 . S
C612 H600 0.959 . S
C612 C610 1.561 . S
C613 C610 1.526 . S
C613 C614 1.396 . S
C613 C618 1.390 . S
C614 C608 1.465 . S
C614 C613 1.396 . S
C614 C615 1.399 . S
C615 H601 0.929 . S
C615 C614 1.399 . S
C615 C616 1.385 . S
C616 H602 0.931 . S
C616 C615 1.385 . S
C616 C617 1.389 . S
C617 C616 1.389 . S
C617 C618 1.387 . S
C618 H603 0.930 . S
C618 C613 1.390 . S
C618 C617 1.387 . S
H619 C631 0.930 . S
H620 C633 0.930 . S
H621 C634 0.930 . S
H622 C638 0.959 . S
H623 C638 0.959 . S
H624 C638 0.961 . S
H625 C639 0.960 . S
H626 C639 0.961 . S
H627 C639 0.959 . S
H628 C642 0.929 . S
H629 C643 0.931 . S
H630 C645 0.930 . S
C631 H619 0.930 . S
C631 C632 1.399 . S
C631 C636 1.399 . S
C632 C631 1.399 . S
C632 C633 1.376 . S
C633 H620 0.930 . S
C633 C632 1.376 . S
C633 C634 1.388 . S
C634 H621 0.930 . S
C634 C633 1.388 . S
C634 C635 1.390 . S
C635 C634 1.390 . S
C635 C636 1.394 . S
C635 C641 1.465 . S
C636 C631 1.399 . S
C636 C635 1.394 . S
C636 C637 1.516 . S
C637 C636 1.516 . S
C637 C638 1.502 . S
C637 C639 1.561 . S
C637 C640 1.526 . S
C638 H622 0.959 . S
C638 H623 0.959 . S
C638 H624 0.961 . S
C638 C637 1.502 . S
C639 H625 0.960 . S
C639 H626 0.961 . S
C639 H627 0.959 . S
C639 C637 1.561 . S
C640 C637 1.526 . S
C640 C641 1.396 . S
C640 C645 1.390 . S
C641 C635 1.465 . S
C641 C640 1.396 . S
C641 C642 1.399 . S
C642 H628 0.929 . S
C642 C641 1.399 . S
C642 C643 1.385 . S
C643 H629 0.931 . S
C643 C642 1.385 . S
C643 C644 1.389 . S
C644 C643 1.389 . S
C644 C645 1.387 . S
C645 H630 0.930 . S
C645 C640 1.390 . S
C645 C644 1.387 . S
H646 C658 0.930 . S
H647 C660 0.930 . S
H648 C661 0.930 . S
H649 C665 0.959 . S
H650 C665 0.959 . S
H651 C665 0.961 . S
H652 C666 0.960 . S
H653 C666 0.961 . S
H654 C666 0.959 . S
H655 C669 0.929 . S
H656 C670 0.931 . S
H657 C672 0.930 . S
C658 H646 0.930 . S
C658 C659 1.399 . S
C658 C663 1.399 . S
C659 C658 1.399 . S
C659 C660 1.376 . S
C660 H647 0.930 . S
C660 C659 1.376 . S
C660 C661 1.388 . S
C661 H648 0.930 . S
C661 C660 1.388 . S
C661 C662 1.390 . S
C662 C661 1.390 . S
C662 C663 1.394 . S
C662 C668 1.465 . S
C663 C658 1.399 . S
C663 C662 1.394 . S
C663 C664 1.516 . S
C664 C663 1.516 . S
C664 C665 1.502 . S
C664 C666 1.561 . S
C664 C667 1.526 . S
C665 H649 0.959 . S
C665 H650 0.959 . S
C665 H651 0.961 . S
C665 C664 1.502 . S
C666 H652 0.960 . S
C666 H653 0.961 . S
C666 H654 0.959 . S
C666 C664 1.561 . S
C667 C664 1.526 . S
C667 C668 1.396 . S
C667 C672 1.390 . S
C668 C662 1.465 . S
C668 C667 1.396 . S
C668 C669 1.399 . S
C669 H655 0.929 . S
C669 C668 1.399 . S
C669 C670 1.385 . S
C670 H656 0.931 . S
C670 C669 1.385 . S
C670 C671 1.389 . S
C671 C670 1.389 . S
C671 C672 1.387 . S
C672 H657 0.930 . S
C672 C667 1.390 . S
C672 C671 1.387 . S
H673 C685 0.930 . S
H674 C687 0.930 . S
H675 C688 0.930 . S
H676 C692 0.959 . S
H677 C692 0.959 . S
H678 C692 0.961 . S
H679 C693 0.960 . S
H680 C693 0.961 . S
H681 C693 0.959 . S
H682 C696 0.929 . S
H683 C697 0.931 . S
H684 C699 0.930 . S
C685 H673 0.930 . S
C685 C686 1.399 . S
C685 C690 1.399 . S
C686 C685 1.399 . S
C686 C687 1.376 . S
C687 H674 0.930 . S
C687 C686 1.376 . S
C687 C688 1.388 . S
C688 H675 0.930 . S
C688 C687 1.388 . S
C688 C689 1.390 . S
C689 C688 1.390 . S
C689 C690 1.394 . S
C689 C695 1.465 . S
C690 C685 1.399 . S
C690 C689 1.394 . S
C690 C691 1.516 . S
C691 C690 1.516 . S
C691 C692 1.502 . S
C691 C693 1.561 . S
C691 C694 1.526 . S
C692 H676 0.959 . S
C692 H677 0.959 . S
C692 H678 0.961 . S
C692 C691 1.502 . S
C693 H679 0.960 . S
C693 H680 0.961 . S
C693 H681 0.959 . S
C693 C691 1.561 . S
C694 C691 1.526 . S
C694 C695 1.396 . S
C694 C699 1.390 . S
C695 C689 1.465 . S
C695 C694 1.396 . S
C695 C696 1.399 . S
C696 H682 0.929 . S
C696 C695 1.399 . S
C696 C697 1.385 . S
C697 H683 0.931 . S
C697 C696 1.385 . S
C697 C698 1.389 . S
C698 C697 1.389 . S
C698 C699 1.387 . S
C699 H684 0.930 . S
C699 C694 1.390 . S
C699 C698 1.387 . S
H700 C712 0.930 . S
H701 C714 0.930 . S
H702 C715 0.930 . S
H703 C719 0.959 . S
H704 C719 0.959 . S
H705 C719 0.961 . S
H706 C720 0.960 . S
H707 C720 0.961 . S
H708 C720 0.959 . S
H709 C723 0.929 . S
H710 C724 0.931 . S
H711 C726 0.930 . S
C712 H700 0.930 . S
C712 C713 1.399 . S
C712 C717 1.399 . S
C713 C712 1.399 . S
C713 C714 1.376 . S
C714 H701 0.930 . S
C714 C713 1.376 . S
C714 C715 1.388 . S
C715 H702 0.930 . S
C715 C714 1.388 . S
C715 C716 1.390 . S
C716 C715 1.390 . S
C716 C717 1.394 . S
C716 C722 1.465 . S
C717 C712 1.399 . S
C717 C716 1.394 . S
C717 C718 1.516 . S
C718 C717 1.516 . S
C718 C719 1.502 . S
C718 C720 1.561 . S
C718 C721 1.526 . S
C719 H703 0.959 . S
C719 H704 0.959 . S
C719 H705 0.961 . S
C719 C718 1.502 . S
C720 H706 0.960 . S
C720 H707 0.961 . S
C720 H708 0.959 . S
C720 C718 1.561 . S
C721 C718 1.526 . S
C721 C722 1.396 . S
C721 C726 1.390 . S
C722 C716 1.465 . S
C722 C721 1.396 . S
C722 C723 1.399 . S
C723 H709 0.929 . S
C723 C722 1.399 . S
C723 C724 1.385 . S
C724 H710 0.931 . S
C724 C723 1.385 . S
C724 C725 1.389 . S
C725 C724 1.389 . S
C725 C726 1.387 . S
C726 H711 0.930 . S
C726 C721 1.390 . S
C726 C725 1.387 . S
H727 C739 0.930 . S
H728 C741 0.930 . S
H729 C742 0.930 . S
H730 C746 0.959 . S
H731 C746 0.959 . S
H732 C746 0.961 . S
H733 C747 0.960 . S
H734 C747 0.961 . S
H735 C747 0.959 . S
H736 C750 0.929 . S
H737 C751 0.931 . S
H738 C753 0.930 . S
C739 H727 0.930 . S
C739 C740 1.399 . S
C739 C744 1.399 . S
C740 C739 1.399 . S
C740 C741 1.376 . S
C741 H728 0.930 . S
C741 C740 1.376 . S
C741 C742 1.388 . S
C742 H729 0.930 . S
C742 C741 1.388 . S
C742 C743 1.390 . S
C743 C742 1.390 . S
C743 C744 1.394 . S
C743 C749 1.465 . S
C744 C739 1.399 . S
C744 C743 1.394 . S
C744 C745 1.516 . S
C745 C744 1.516 . S
C745 C746 1.502 . S
C745 C747 1.561 . S
C745 C748 1.526 . S
C746 H730 0.959 . S
C746 H731 0.959 . S
C746 H732 0.961 . S
C746 C745 1.502 . S
C747 H733 0.960 . S
C747 H734 0.961 . S
C747 H735 0.959 . S
C747 C745 1.561 . S
C748 C745 1.526 . S
C748 C749 1.396 . S
C748 C753 1.390 . S
C749 C743 1.465 . S
C749 C748 1.396 . S
C749 C750 1.399 . S
C750 H736 0.929 . S
C750 C749 1.399 . S
C750 C751 1.385 . S
C751 H737 0.931 . S
C751 C750 1.385 . S
C751 C752 1.389 . S
C752 C751 1.389 . S
C752 C753 1.387 . S
C753 H738 0.930 . S
C753 C748 1.390 . S
C753 C752 1.387 . S
H754 C766 0.930 . S
H755 C768 0.930 . S
H756 C769 0.930 . S
H757 C773 0.959 . S
H758 C773 0.959 . S
H759 C773 0.961 . S
H760 C774 0.960 . S
H761 C774 0.961 . S
H762 C774 0.959 . S
H763 C777 0.929 . S
H764 C778 0.931 . S
H765 C780 0.930 . S
C766 H754 0.930 . S
C766 C767 1.399 . S
C766 C771 1.399 . S
C767 C766 1.399 . S
C767 C768 1.376 . S
C768 H755 0.930 . S
C768 C767 1.376 . S
C768 C769 1.388 . S
C769 H756 0.930 . S
C769 C768 1.388 . S
C769 C770 1.390 . S
C770 C769 1.390 . S
C770 C771 1.394 . S
C770 C776 1.465 . S
C771 C766 1.399 . S
C771 C770 1.394 . S
C771 C772 1.516 . S
C772 C771 1.516 . S
C772 C773 1.502 . S
C772 C774 1.561 . S
C772 C775 1.526 . S
C773 H757 0.959 . S
C773 H758 0.959 . S
C773 H759 0.961 . S
C773 C772 1.502 . S
C774 H760 0.960 . S
C774 H761 0.961 . S
C774 H762 0.959 . S
C774 C772 1.561 . S
C775 C772 1.526 . S
C775 C776 1.396 . S
C775 C780 1.390 . S
C776 C770 1.465 . S
C776 C775 1.396 . S
C776 C777 1.399 . S
C777 H763 0.929 . S
C777 C776 1.399 . S
C777 C778 1.385 . S
C778 H764 0.931 . S
C778 C777 1.385 . S
C778 C779 1.389 . S
C779 C778 1.389 . S
C779 C780 1.387 . S
C780 H765 0.930 . S
C780 C775 1.390 . S
C780 C779 1.387 . S
H781 C793 0.930 . S
H782 C795 0.930 . S
H783 C796 0.930 . S
H784 C800 0.959 . S
H785 C800 0.959 . S
H786 C800 0.961 . S
H787 C801 0.960 . S
H788 C801 0.961 . S
H789 C801 0.959 . S
H790 C804 0.929 1_554 S
H791 C805 0.931 . S
H792 C807 0.930 . S
C793 H781 0.930 . S
C793 C794 1.399 1_556 S
C793 C798 1.399 . S
C794 C793 1.399 1_554 S
C794 C795 1.376 . S
C795 H782 0.930 . S
C795 C794 1.376 . S
C795 C796 1.388 . S
C796 H783 0.930 . S
C796 C795 1.388 . S
C796 C797 1.390 1_554 S
C797 C796 1.390 1_556 S
C797 C798 1.394 . S
C797 C803 1.465 . S
C798 C793 1.399 . S
C798 C797 1.394 . S
C798 C799 1.516 . S
C799 C798 1.516 . S
C799 C800 1.502 . S
C799 C801 1.561 . S
C799 C802 1.526 . S
C800 H784 0.959 . S
C800 H785 0.959 . S
C800 H786 0.961 . S
C800 C799 1.502 . S
C801 H787 0.960 . S
C801 H788 0.961 . S
C801 H789 0.959 . S
C801 C799 1.561 . S
C802 C799 1.526 . S
C802 C803 1.396 . S
C802 C807 1.390 . S
C803 C797 1.465 . S
C803 C802 1.396 . S
C803 C804 1.399 . S
C804 H790 0.929 1_556 S
C804 C803 1.399 . S
C804 C805 1.385 . S
C805 H791 0.931 . S
C805 C804 1.385 . S
C805 C806 1.389 . S
C806 C805 1.389 . S
C806 C807 1.387 . S
C807 H792 0.930 . S
C807 C802 1.390 . S
C807 C806 1.387 . S
C173 C7 1.359 . S
C185 C93 1.341 . S
C200 C37 1.240 . S
C212 C101 1.207 . S
C227 C54 1.360 . S
C239 C110 1.353 . S
C266 C120 1.359 . S
C254 C87 1.339 . S
C293 C129 1.310 . S
C281 C30 1.349 . S
C308 C51 1.414 . S
C320 C138 1.397 . S
C335 C84 1.370 . S
C347 C146 1.358 . S
C362 C10 1.186 . S
C374 C156 1.154 . S
C389 C59 1.418 . S
C401 C155 1.416 . S
C428 C128 1.190 . S
C416 C74 1.202 . S
C455 C137 1.351 . S
C443 C18 1.354 . S
C470 C32 1.364 . S
C482 C147 1.388 . S
C509 C102 1.352 . S
C497 C73 1.365 . S
C524 C15 1.342 . S
C536 C111 1.403 . S
C563 C119 1.342 . S
C551 C43 1.357 . S
C590 C92 1.149 . S
C578 C62 1.176 . S
C617 C149 1.353 . S
C605 C21 1.404 . S
C644 C158 1.288 . S
C632 C29 1.262 . S
C659 C52 1.258 . S
C671 C131 1.217 . S
C698 C140 1.390 . S
C686 C81 1.392 . S
C725 C113 1.364 . S
C713 C40 1.384 . S
C740 C65 1.391 . S
C752 C122 1.391 . S
C779 C95 1.264 . S
C767 C76 1.265 . S
C806 C104 1.291 . S
C794 C8 1.283 . S
