# Generated by pormake.
# Topology rtl, (3,6)-cn, num edge types: 1
# Building blocks:
#     Node 0, Type 0, BuildingBlock: BETDAH_clean_linker_0, # of connection points: 3
#     Node 1, Type 0, BuildingBlock: BETDAH_clean_linker_0, # of connection points: 3
#     Node 2, Type 0, BuildingBlock: BETDAH_clean_linker_0, # of connection points: 3
#     Node 3, Type 0, BuildingBlock: BETDAH_clean_linker_0, # of connection points: 3
#     Node 4, Type 1, BuildingBlock: FUNLAD_clean_sbu_0, # of connection points: 6
#     Node 5, Type 1, BuildingBlock: FUNLAD_clean_sbu_0, # of connection points: 6
#     Edge 6, Type (0, 1), BuildingBlock: UVAHIK_clean_linker_0, # of connection points: 2
#     Edge 7, Type (0, 1), BuildingBlock: UVAHIK_clean_linker_0, # of connection points: 2
#     Edge 8, Type (0, 1), BuildingBlock: UVAHIK_clean_linker_0, # of connection points: 2
#     Edge 9, Type (0, 1), BuildingBlock: UVAHIK_clean_linker_0, # of connection points: 2
#     Edge 10, Type (0, 1), BuildingBlock: UVAHIK_clean_linker_0, # of connection points: 2
#     Edge 11, Type (0, 1), BuildingBlock: UVAHIK_clean_linker_0, # of connection points: 2
#     Edge 12, Type (0, 1), BuildingBlock: UVAHIK_clean_linker_0, # of connection points: 2
#     Edge 13, Type (0, 1), BuildingBlock: UVAHIK_clean_linker_0, # of connection points: 2
#     Edge 14, Type (0, 1), BuildingBlock: UVAHIK_clean_linker_0, # of connection points: 2
#     Edge 15, Type (0, 1), BuildingBlock: UVAHIK_clean_linker_0, # of connection points: 2
#     Edge 16, Type (0, 1), BuildingBlock: UVAHIK_clean_linker_0, # of connection points: 2
#     Edge 17, Type (0, 1), BuildingBlock: UVAHIK_clean_linker_0, # of connection points: 2
# Relax obj value: 0.002
# Max RMSD: 0.051
# Mean RMSD: 0.034
data_MOF--net-rtl--node1-FUNLAD_clean_sbu_0--node2-BETDAH_clean_linker_0--edge1-UVAHIK_clean_linker_0
_symmetry_space_group_name_H-M    P1
_symmetry_Int_Tables_number       1
_symmetry_cell_setting            triclinic
loop_
_symmetry_equiv_pos_as_xyz
'x, y, z'
_cell_length_a     50.83949
_cell_length_b     50.806223
_cell_length_c     27.396324
_cell_angle_alpha  91.123648
_cell_angle_beta   92.270527
_cell_angle_gamma 90.193783
loop_
_atom_site_label
_atom_site_type_symbol
_atom_site_fract_x
_atom_site_fract_y
_atom_site_fract_z
_atom_type_partial_charge
H0 H 0.14455 0.863 0.00352 0.0
H1 H 0.17774 0.79447 0.07236 0.0
H2 H 0.16284 0.7945 0.91701 0.0
C3 C 0.15301 0.84349 0.00082 0.0
C4 C 0.1534 0.83069 0.95502 0.0
C5 C 0.16137 0.83052 0.04352 0.0
C6 C 0.17145 0.80482 0.03973 0.0
C7 C 0.17212 0.79199 0.9939 0.0
C8 C 0.16265 0.80477 0.95206 0.0
N9 N 0.18044 0.76556 0.98919 0.0
C10 C 0.20363 0.75632 0.01093 0.0
H11 H 0.64553 0.64237 0.52893 0.0
H12 H 0.67356 0.71506 0.47108 0.0
H13 H 0.65832 0.71001 0.62373 0.0
C14 C 0.65239 0.66247 0.53467 0.0
C15 C 0.6516 0.67412 0.58142 0.0
C16 C 0.65994 0.67713 0.49453 0.0
C17 C 0.66797 0.70349 0.50186 0.0
C18 C 0.6676 0.71519 0.54875 0.0
C19 C 0.65896 0.70063 0.58792 0.0
N20 N 0.6741 0.74205 0.55718 0.0
C21 C 0.69544 0.75436 0.53709 0.0
H22 H 0.86378 0.13227 0.00607 0.0
H23 H 0.81466 0.19507 0.05725 0.0
H24 H 0.82524 0.18345 0.90311 0.0
C25 C 0.8508 0.14873 -0.00153 0.0
C26 C 0.84573 0.15612 0.9501 0.0
C27 C 0.83956 0.16257 0.03721 0.0
C28 C 0.82307 0.18416 0.02734 0.0
C29 C 0.81772 0.19152 0.97859 0.0
C30 C 0.8291 0.17744 0.94047 0.0
N31 N 0.80163 0.21328 0.96601 0.0
C32 C 0.78479 0.22623 0.99698 0.0
H33 H 0.36971 0.36171 0.53709 0.0
H34 H 0.29961 0.32606 0.59019 0.0
H35 H 0.30547 0.34077 0.4371 0.0
C36 C 0.35059 0.35257 0.5301 0.0
C37 C 0.33967 0.3517 0.48229 0.0
C38 C 0.3362 0.34372 0.56941 0.0
C39 C 0.311 0.3327 0.56015 0.0
C40 C 0.3001 0.33142 0.51215 0.0
C41 C 0.31426 0.34138 0.47382 0.0
N42 N 0.27426 0.3219 0.50149 0.0
C43 C 0.26347 0.30018 0.52335 0.0
C44 C 0.03203 0.9745 0.41572 0.0
N45 N 0.04831 0.04405 0.49806 0.0
C46 C 0.07419 0.03726 0.50121 0.0
C47 C 0.09362 0.05657 0.50933 0.0
C48 C 0.08637 0.08313 0.51432 0.0
C49 C 0.05952 0.08955 0.51017 0.0
C50 C 0.04077 0.06964 0.50207 0.0
Zn51 Zn 0.01981 0.01551 0.4902 0.0
C52 C 0.9774 0.02967 0.41729 0.0
N53 N 0.95962 0.95644 0.47643 0.0
C54 C 0.96625 0.93051 0.47482 0.0
C55 C 0.93397 0.96404 0.47474 0.0
C56 C 0.91381 0.94528 0.47204 0.0
C57 C 0.92003 0.91835 0.47103 0.0
C58 C 0.9467 0.91107 0.4721 0.0
Zn59 Zn 0.98842 0.98474 0.48323 0.0
O60 O 0.04072 0.99618 0.4341 0.0
C61 C 0.03031 0.9709 0.55696 0.0
O62 O 0.01032 0.96529 0.42955 0.0
H63 H 0.92909 0.98474 0.47621 0.0
H64 H 0.07976 0.01679 0.49813 0.0
H65 H 0.98676 0.92488 0.4761 0.0
O66 O 0.03992 0.99256 0.54333 0.0
O67 O 0.00849 0.96279 0.5379 0.0
H68 H 0.02011 0.07465 0.49947 0.0
O69 O 0.96711 0.00456 0.53757 0.0
O70 O 0.99875 0.03395 0.5464 0.0
O71 O 0.96876 0.00722 0.42885 0.0
O72 O 0.99884 0.03824 0.43729 0.0
C73 C 0.97664 0.02511 0.55879 0.0
H74 H 0.11405 0.05067 0.51271 0.0
H75 H 0.05302 0.10978 0.51293 0.0
H76 H 0.89357 0.95184 0.47206 0.0
H77 H 0.95242 0.89056 0.47087 0.0
C78 C 0.47625 0.47348 0.96499 0.0
N79 N 0.54971 0.45828 0.03432 0.0
C80 C 0.54206 0.43283 0.0394 0.0
C81 C 0.56078 0.41289 0.04373 0.0
C82 C 0.5877 0.41913 0.04263 0.0
C83 C 0.59499 0.44555 0.03651 0.0
C84 C 0.5756 0.46489 0.03253 0.0
Zn85 Zn 0.52176 0.48714 0.03274 0.0
C86 C 0.53124 0.52753 0.95812 0.0
N87 N 0.4631 0.54719 0.03239 0.0
C88 C 0.4373 0.54013 0.03355 0.0
C89 C 0.47049 0.57297 0.03294 0.0
C90 C 0.45161 0.59282 0.03542 0.0
C91 C 0.42482 0.58612 0.03716 0.0
C92 C 0.41778 0.55933 0.03578 0.0
Zn93 Zn 0.49117 0.51842 0.03241 0.0
O94 O 0.49845 0.46495 0.98065 0.0
C95 C 0.48147 0.47838 0.10707 0.0
O96 O 0.46822 0.4957 0.98038 0.0
H97 H 0.49111 0.57817 0.03209 0.0
H98 H 0.52138 0.428 0.0409 0.0
H99 H 0.43183 0.51954 0.03312 0.0
O100 O 0.50242 0.46871 0.0905 0.0
O101 O 0.47231 0.4995 0.08931 0.0
H102 H 0.58126 0.48525 0.02852 0.0
O103 O 0.51464 0.54055 0.08445 0.0
O104 O 0.54469 0.50969 0.08469 0.0
O105 O 0.5104 0.53701 0.97548 0.0
O106 O 0.54059 0.50621 0.97503 0.0
C107 C 0.53679 0.53194 0.10007 0.0
H108 H 0.55421 0.39289 0.04897 0.0
H109 H 0.61546 0.45125 0.03464 0.0
H110 H 0.45802 0.61318 0.03693 0.0
H111 H 0.39738 0.55319 0.03616 0.0
C112 C 0.25586 0.25262 0.51467 0.0
C113 C 0.25 0.27669 0.53737 0.0
C114 C 0.24002 0.23054 0.5213 0.0
C115 C 0.17187 0.21429 0.54994 0.0
H116 H 0.19794 0.14265 0.55033 0.0
C117 C 0.10177 0.12507 0.55665 0.0
C118 C 0.10656 0.10406 0.52402 0.0
C119 C 0.12029 0.14524 0.56459 0.0
C120 C 0.19037 0.16255 0.55 0.0
H121 H 0.22395 0.29689 0.58593 0.0
H122 H 0.19638 0.25813 0.59863 0.0
H123 H 0.22906 0.17942 0.55548 0.0
H124 H 0.13479 0.08774 0.47454 0.0
H125 H 0.16712 0.12294 0.48842 0.0
H126 H 0.13323 0.19749 0.54366 0.0
C127 C 0.21296 0.25623 0.5752 0.0
C128 C 0.20819 0.18362 0.553 0.0
C129 C 0.22883 0.27833 0.56841 0.0
C130 C 0.13058 0.10345 0.50031 0.0
C131 C 0.14914 0.12363 0.50832 0.0
C132 C 0.15408 0.19325 0.54709 0.0
C133 C 0.21796 0.23224 0.55068 0.0
C134 C 0.19916 0.20976 0.55234 0.0
C135 C 0.14409 0.14489 0.54019 0.0
C136 C 0.1631 0.16713 0.54642 0.0
H137 H 0.27198 0.25116 0.49005 0.0
H138 H 0.24428 0.21255 0.50135 0.0
H139 H 0.16419 0.23412 0.5484 0.0
H140 H 0.08371 0.12589 0.5763 0.0
H141 H 0.11598 0.16111 0.58997 0.0
C142 C 0.22898 0.72248 0.05514 0.0
C143 C 0.22839 0.74473 0.0258 0.0
C144 C 0.25247 0.70862 0.06279 0.0
C145 C 0.31346 0.69494 0.00069 0.0
H146 H 0.33521 0.66189 0.122 0.0
C147 C 0.40633 0.63033 0.01453 0.0
C148 C 0.40432 0.60686 0.04053 0.0
C149 C 0.38671 0.64947 0.01677 0.0
C150 C 0.32928 0.67083 0.08775 0.0
H151 H 0.25137 0.7708 0.98269 0.0
H152 H 0.29263 0.74679 0.9963 0.0
H153 H 0.29767 0.6918 0.12022 0.0
H154 H 0.38038 0.5856 0.09059 0.0
H155 H 0.34579 0.61849 0.09312 0.0
H156 H 0.3444 0.67349 0.96772 0.0
C157 C 0.27506 0.73984 0.0132 0.0
C158 C 0.30783 0.68801 0.08681 0.0
C159 C 0.25159 0.75369 0.00573 0.0
C160 C 0.38239 0.60323 0.06944 0.0
C161 C 0.36272 0.62231 0.0715 0.0
C162 C 0.33478 0.67769 0.00156 0.0
C163 C 0.27561 0.71677 0.04078 0.0
C164 C 0.29955 0.70008 0.04315 0.0
C165 C 0.36452 0.64559 0.0449 0.0
C166 C 0.34282 0.66519 0.04496 0.0
H167 H 0.21109 0.71517 0.07043 0.0
H168 H 0.25218 0.6908 0.08381 0.0
H169 H 0.30729 0.70354 0.96625 0.0
H170 H 0.42283 0.63373 0.9916 0.0
H171 H 0.38891 0.66731 0.99629 0.0
C172 C 0.72624 0.79057 0.55521 0.0
C173 C 0.71822 0.76938 0.52473 0.0
C174 C 0.74897 0.80474 0.54581 0.0
C175 C 0.79483 0.82076 0.45007 0.0
H176 H 0.84063 0.84084 0.56129 0.0
C177 C 0.87516 0.90155 0.44327 0.0
C178 C 0.89879 0.8981 0.47084 0.0
C179 C 0.85446 0.8835 0.44599 0.0
C180 C 0.82828 0.83514 0.52969 0.0
H181 H 0.72698 0.74618 0.46042 0.0
H182 H 0.7671 0.77112 0.44354 0.0
H183 H 0.80205 0.81368 0.57339 0.0
H184 H 0.91934 0.87253 0.52198 0.0
H185 H 0.88347 0.84084 0.52596 0.0
H186 H 0.82122 0.84231 0.40639 0.0
C187 C 0.75574 0.7769 0.47458 0.0
C188 C 0.80596 0.81983 0.53673 0.0
C189 C 0.73292 0.76262 0.48419 0.0
C190 C 0.90151 0.87572 0.49997 0.0
C191 C 0.88082 0.85769 0.50268 0.0
C192 C 0.8172 0.83619 0.44301 0.0
C193 C 0.76416 0.79794 0.50569 0.0
C194 C 0.78877 0.81276 0.49716 0.0
C195 C 0.85688 0.86159 0.47637 0.0
C196 C 0.83404 0.84378 0.48286 0.0
H197 H 0.71504 0.79603 0.58668 0.0
H198 H 0.75461 0.8211 0.56997 0.0
H199 H 0.78192 0.81571 0.41887 0.0
H200 H 0.87253 0.91838 0.41994 0.0
H201 H 0.83623 0.88722 0.42551 0.0
C202 C 0.77237 0.26393 0.04894 0.0
C203 C 0.76511 0.24183 0.02016 0.0
C204 C 0.75322 0.28187 0.06341 0.0
C205 C 0.68056 0.29242 0.06702 0.0
H206 H 0.69948 0.36522 0.04605 0.0
C207 C 0.60391 0.3732 0.02641 0.0
C208 C 0.60801 0.39826 0.04814 0.0
C209 C 0.62305 0.35366 0.03129 0.0
C210 C 0.69397 0.34505 0.05284 0.0
H211 H 0.73267 0.22024 0.985 0.0
H212 H 0.69917 0.25154 0.00956 0.0
H213 H 0.73306 0.33132 0.04248 0.0
H214 H 0.63531 0.42212 0.09318 0.0
H215 H 0.6689 0.3881 0.10091 0.0
H216 H 0.64119 0.30621 0.07546 0.0
C217 C 0.71938 0.25501 0.02205 0.0
C218 C 0.71326 0.32557 0.05099 0.0
C219 C 0.73853 0.23709 0.00782 0.0
C220 C 0.63169 0.40321 0.07518 0.0
C221 C 0.65089 0.3837 0.07982 0.0
C222 C 0.66124 0.3119 0.06858 0.0
C223 C 0.72657 0.27803 0.04884 0.0
C224 C 0.70671 0.29894 0.05714 0.0
C225 C 0.64681 0.35874 0.0578 0.0
C226 C 0.66765 0.33836 0.06061 0.0
H227 H 0.79292 0.26793 0.05843 0.0
H228 H 0.75938 0.29918 0.08464 0.0
H229 H 0.67492 0.27217 0.07274 0.0
H230 H 0.58611 0.3688 0.00471 0.0
H231 H 0.61951 0.33476 0.01319 0.0
C232 C 0.16179 0.86965 0.10079 0.0
C233 C 0.15617 0.84285 0.09167 0.0
C234 C 0.15199 0.88264 0.14167 0.0
C235 C 0.09467 0.87971 0.21572 0.0
H236 H 0.13093 0.93162 0.29959 0.0
C237 C 0.04154 0.93269 0.37042 0.0
C238 C 0.04753 0.95931 0.38039 0.0
C239 C 0.05654 0.91787 0.33844 0.0
C240 C 0.12042 0.91743 0.27607 0.0
H241 H 0.1372 0.80829 0.11955 0.0
H242 H 0.12008 0.83099 0.19098 0.0
H243 H 0.15554 0.90625 0.23999 0.0
H244 H 0.07394 0.99133 0.36446 0.0
H245 H 0.09956 0.96574 0.30699 0.0
H246 H 0.05943 0.89136 0.24975 0.0
C247 C 0.13199 0.84194 0.16641 0.0
C248 C 0.13459 0.90279 0.24222 0.0
C249 C 0.14201 0.8289 0.12584 0.0
C250 C 0.06885 0.97084 0.35751 0.0
C251 C 0.08368 0.95607 0.3249 0.0
C252 C 0.08048 0.89452 0.24897 0.0
C253 C 0.13616 0.86911 0.17384 0.0
C254 C 0.12183 0.88376 0.21179 0.0
C255 C 0.07771 0.92937 0.31494 0.0
C256 C 0.09312 0.91358 0.27968 0.0
H257 H 0.17275 0.88083 0.07508 0.0
H258 H 0.15546 0.9036 0.14642 0.0
H259 H 0.08419 0.86558 0.19197 0.0
H260 H 0.02547 0.9231 0.38797 0.0
H261 H 0.05166 0.89726 0.33264 0.0
C262 C 0.64993 0.63294 0.63037 0.0
C263 C 0.6417 0.65896 0.62268 0.0
C264 C 0.63978 0.61835 0.66811 0.0
C265 C 0.60376 0.62549 0.78308 0.0
H266 H 0.5862 0.55196 0.75829 0.0
C267 C 0.53669 0.56711 0.90659 0.0
C268 C 0.54479 0.54167 0.91957 0.0
C269 C 0.54983 0.58093 0.8713 0.0
C270 C 0.59127 0.5724 0.76591 0.0
H271 H 0.61621 0.69001 0.64815 0.0
H272 H 0.5982 0.66453 0.71345 0.0
H273 H 0.60692 0.57718 0.69527 0.0
H274 H 0.57287 0.51068 0.90527 0.0
H275 H 0.59569 0.53484 0.84307 0.0
H276 H 0.5875 0.62079 0.8533 0.0
C277 C 0.61297 0.65552 0.69118 0.0
C278 C 0.60321 0.58686 0.72988 0.0
C279 C 0.62325 0.67015 0.65369 0.0
C280 C 0.56615 0.53024 0.89606 0.0
C281 C 0.57915 0.54401 0.86036 0.0
C282 C 0.59165 0.61109 0.8189 0.0
C283 C 0.62102 0.6294 0.69878 0.0
C284 C 0.60941 0.61366 0.73787 0.0
C285 C 0.57122 0.56957 0.84789 0.0
C286 C 0.58509 0.58446 0.81055 0.0
H287 H 0.66433 0.62391 0.6073 0.0
H288 H 0.64674 0.59845 0.67338 0.0
H289 H 0.60874 0.64592 0.79092 0.0
H290 H 0.52032 0.57652 0.924 0.0
H291 H 0.54306 0.60047 0.86199 0.0
C292 C 0.86138 0.17098 0.11936 0.0
C293 C 0.84628 0.15443 0.08759 0.0
C294 C 0.87275 0.16111 0.16262 0.0
C295 C 0.872 0.1052 0.2474 0.0
H296 H 0.94762 0.11567 0.25752 0.0
C297 C 0.93966 0.03564 0.3571 0.0
C298 C 0.96194 0.0461 0.38265 0.0
C299 C 0.92437 0.05135 0.32589 0.0
C300 C 0.92648 0.11289 0.25596 0.0
H301 H 0.8298 0.11533 0.07688 0.0
H302 H 0.84911 0.0982 0.15278 0.0
H303 H 0.92133 0.14001 0.19755 0.0
H304 H 0.98556 0.08137 0.39565 0.0
H305 H 0.95864 0.10892 0.34175 0.0
H306 H 0.87709 0.07787 0.30537 0.0
C307 C 0.85227 0.11872 0.14455 0.0
C308 C 0.9114 0.1269 0.22158 0.0
C309 C 0.84125 0.12846 0.10113 0.0
C310 C 0.96863 0.07264 0.37617 0.0
C311 C 0.95321 0.08843 0.34518 0.0
C312 C 0.88703 0.09135 0.28207 0.0
C313 C 0.86887 0.13466 0.17494 0.0
C314 C 0.88409 0.12276 0.2162 0.0
C315 C 0.93083 0.078 0.31972 0.0
C316 C 0.91455 0.09455 0.28601 0.0
H317 H 0.86571 0.191 0.10928 0.0
H318 H 0.88533 0.17387 0.18557 0.0
H319 H 0.85094 0.10183 0.24439 0.0
H320 H 0.93399 0.01525 0.36114 0.0
H321 H 0.90764 0.04246 0.30613 0.0
C322 C 0.37306 0.34354 0.63284 0.0
C323 C 0.34666 0.3491 0.61991 0.0
C324 C 0.38455 0.35341 0.67667 0.0
C325 C 0.3793 0.41055 0.75722 0.0
H326 H 0.42936 0.37392 0.84164 0.0
C327 C 0.43328 0.46395 0.92001 0.0
C328 C 0.45983 0.45757 0.92956 0.0
C329 C 0.41774 0.44889 0.88668 0.0
C330 C 0.41565 0.38454 0.81814 0.0
H331 H 0.31121 0.36817 0.64373 0.0
H332 H 0.33132 0.38548 0.72046 0.0
H333 H 0.40483 0.34957 0.77685 0.0
H334 H 0.49091 0.43035 0.91155 0.0
H335 H 0.46415 0.40467 0.85221 0.0
H336 H 0.39075 0.44569 0.79663 0.0
C337 C 0.34311 0.37353 0.69659 0.0
C338 C 0.40148 0.37051 0.78125 0.0
C339 C 0.33153 0.3634 0.65298 0.0
C340 C 0.47048 0.43574 0.90514 0.0
C341 C 0.45503 0.42086 0.87136 0.0
C342 C 0.39364 0.42463 0.79368 0.0
C343 C 0.36993 0.36929 0.70817 0.0
C344 C 0.3833 0.38342 0.75018 0.0
C345 C 0.42844 0.42724 0.86159 0.0
C346 C 0.41221 0.41188 0.82439 0.0
H347 H 0.38513 0.33255 0.60796 0.0
H348 H 0.40528 0.34991 0.68447 0.0
H349 H 0.36577 0.42115 0.73327 0.0
H350 H 0.42439 0.48049 0.93861 0.0
H351 H 0.39725 0.45416 0.88086 0.0
C352 C 0.66577 0.64003 0.43463 0.0
C353 C 0.65627 0.66537 0.44484 0.0
C354 C 0.65774 0.62663 0.39155 0.0
C355 C 0.62051 0.63377 0.27184 0.0
H356 H 0.60258 0.56072 0.29297 0.0
C357 C 0.5466 0.57381 0.14741 0.0
C358 C 0.55331 0.5477 0.13556 0.0
C359 C 0.56216 0.58861 0.18113 0.0
C360 C 0.60779 0.58098 0.28623 0.0
H361 H 0.63202 0.69713 0.41719 0.0
H362 H 0.61745 0.67364 0.3425 0.0
H363 H 0.62554 0.58607 0.35766 0.0
H364 H 0.58182 0.51676 0.14941 0.0
H365 H 0.60876 0.54254 0.20869 0.0
H366 H 0.60163 0.62869 0.20085 0.0
C367 C 0.63153 0.66419 0.36705 0.0
C368 C 0.62111 0.59555 0.32326 0.0
C369 C 0.63986 0.67771 0.40988 0.0
C370 C 0.57604 0.53679 0.15786 0.0
C371 C 0.59144 0.55151 0.1919 0.0
C372 C 0.60693 0.61922 0.23491 0.0
C373 C 0.63966 0.63812 0.35812 0.0
C374 C 0.62748 0.62222 0.3168 0.0
C375 C 0.58462 0.57754 0.20403 0.0
C376 C 0.60024 0.59273 0.24192 0.0
H377 H 0.67858 0.63019 0.46095 0.0
H378 H 0.66498 0.60688 0.38532 0.0
H379 H 0.6254 0.65412 0.26525 0.0
H380 H 0.52927 0.58283 0.13073 0.0
H381 H 0.55626 0.60854 0.19014 0.0
C382 C 0.88583 0.1388 0.91103 0.0
C383 C 0.85843 0.142 0.90975 0.0
C384 C 0.89799 0.12579 0.87274 0.0
C385 C 0.88626 0.10337 0.7434 0.0
H386 H 0.94887 0.06202 0.77131 0.0
C387 C 0.93533 0.03393 0.60296 0.0
C388 C 0.9624 0.03837 0.59813 0.0
C389 C 0.92197 0.04641 0.64051 0.0
C390 C 0.93144 0.07358 0.76309 0.0
H391 H 0.8221 0.13389 0.86828 0.0
H392 H 0.84312 0.11013 0.80211 0.0
H393 H 0.9264 0.08331 0.83827 0.0
H394 H 0.99674 0.05914 0.62886 0.0
H395 H 0.97345 0.08039 0.69521 0.0
H396 H 0.8911 0.09274 0.66813 0.0
C397 C 0.85542 0.11835 0.83181 0.0
C398 C 0.91863 0.08594 0.80134 0.0
C399 C 0.84332 0.1318 0.86977 0.0
C400 C 0.97586 0.05541 0.63161 0.0
C401 C 0.96261 0.06745 0.66966 0.0
C402 C 0.89884 0.09058 0.70525 0.0
C403 C 0.88296 0.11525 0.83268 0.0
C404 C 0.89602 0.10126 0.792 0.0
C405 C 0.93557 0.06308 0.67436 0.0
C406 C 0.92167 0.07583 0.71477 0.0
H407 H 0.89789 0.14681 0.9413 0.0
H408 H 0.91925 0.12437 0.87432 0.0
H409 H 0.8692 0.11532 0.73457 0.0
H410 H 0.92444 0.02096 0.57757 0.0
H411 H 0.90111 0.0427 0.64361 0.0
C412 C 0.3417 0.38055 0.40951 0.0
C413 C 0.35424 0.36303 0.44184 0.0
C414 C 0.35573 0.39236 0.37295 0.0
C415 C 0.41411 0.38557 0.29966 0.0
H416 H 0.40769 0.46112 0.28588 0.0
C417 C 0.47931 0.44407 0.17136 0.0
C418 C 0.4675 0.46496 0.14588 0.0
C419 C 0.46588 0.43135 0.20777 0.0
C420 C 0.40945 0.43997 0.28868 0.0
H421 H 0.39104 0.34361 0.46063 0.0
H422 H 0.41559 0.36416 0.39624 0.0
H423 H 0.38306 0.43895 0.3476 0.0
H424 H 0.43219 0.48862 0.13804 0.0
H425 H 0.40856 0.46606 0.20038 0.0
H426 H 0.44007 0.38642 0.24014 0.0
C427 C 0.39492 0.36875 0.39935 0.0
C428 C 0.39538 0.4273 0.32417 0.0
C429 C 0.38096 0.35716 0.43631 0.0
C430 C 0.44195 0.47276 0.15734 0.0
C431 C 0.42844 0.45989 0.19333 0.0
C432 C 0.42799 0.3982 0.26375 0.0
C433 C 0.3825 0.3867 0.36769 0.0
C434 C 0.39753 0.39999 0.32997 0.0
C435 C 0.44025 0.43908 0.21916 0.0
C436 C 0.4258 0.42557 0.25775 0.0
H437 H 0.32118 0.38561 0.41322 0.0
H438 H 0.34562 0.40596 0.34876 0.0
H439 H 0.41594 0.36445 0.30312 0.0
H440 H 0.49902 0.43766 0.16345 0.0
H441 H 0.47573 0.41567 0.22736 0.0
C442 C 0.14949 0.87019 0.90185 0.0
C443 C 0.1427 0.84395 0.91086 0.0
C444 C 0.13849 0.88302 0.86133 0.0
C445 C 0.08028 0.88209 0.77868 0.0
H446 H 0.12264 0.92474 0.69583 0.0
C447 C 0.03583 0.92987 0.60535 0.0
C448 C 0.0442 0.95548 0.59515 0.0
C449 C 0.04864 0.91549 0.64209 0.0
C450 C 0.11047 0.91317 0.71894 0.0
H451 H 0.11913 0.81056 0.88465 0.0
H452 H 0.09987 0.83302 0.81383 0.0
H453 H 0.14374 0.90117 0.76348 0.0
H454 H 0.07264 0.98611 0.6154 0.0
H455 H 0.09455 0.96134 0.68029 0.0
H456 H 0.04693 0.89447 0.73521 0.0
C457 C 0.11371 0.84362 0.8381 0.0
C458 C 0.12259 0.89962 0.75757 0.0
C459 C 0.1249 0.83071 0.87833 0.0
C460 C 0.06578 0.96636 0.62224 0.0
C461 C 0.07845 0.95208 0.65926 0.0
C462 C 0.06813 0.8958 0.74037 0.0
C463 C 0.12028 0.86995 0.82937 0.0
C464 C 0.1076 0.88396 0.78781 0.0
C465 C 0.06999 0.92649 0.66977 0.0
C466 C 0.08306 0.91154 0.71002 0.0
H467 H 0.16327 0.88079 0.92623 0.0
H468 H 0.14376 0.90338 0.85566 0.0
H469 H 0.06819 0.87046 0.80188 0.0
H470 H 0.01938 0.92085 0.58487 0.0
H471 H 0.04188 0.89568 0.64859 0.0
loop_
_geom_bond_atom_site_label_1
_geom_bond_atom_site_label_2
_geom_bond_distance
_geom_bond_site_symmetry_2
_ccdc_geom_bond_type
H0 C3 0.929 . S
H1 C6 0.929 . S
H2 C8 0.930 . S
C3 H0 0.929 . S
C3 C4 1.398 1_554 S
C3 C5 1.396 . S
C4 C3 1.398 1_556 S
C4 C8 1.407 . S
C5 C3 1.396 . S
C5 C6 1.394 . S
C6 H1 0.929 . S
C6 C5 1.394 . S
C6 C7 1.382 . S
C7 C6 1.382 . S
C7 C8 1.392 1_554 S
C7 N9 1.420 . S
C8 H2 0.930 . S
C8 C4 1.407 . S
C8 C7 1.392 1_556 S
N9 C7 1.420 . S
N9 C10 1.244 . S
C10 N9 1.244 . S
H11 C14 0.929 . S
H12 C17 0.929 . S
H13 C19 0.930 . S
C14 H11 0.929 . S
C14 C15 1.398 . S
C14 C16 1.396 . S
C15 C14 1.398 . S
C15 C19 1.407 . S
C16 C14 1.396 . S
C16 C17 1.394 . S
C17 H12 0.929 . S
C17 C16 1.394 . S
C17 C18 1.382 . S
C18 C17 1.382 . S
C18 C19 1.392 . S
C18 N20 1.420 . S
C19 H13 0.930 . S
C19 C15 1.407 . S
C19 C18 1.392 . S
N20 C18 1.420 . S
N20 C21 1.244 . S
C21 N20 1.244 . S
H22 C25 0.929 . S
H23 C28 0.929 . S
H24 C30 0.930 . S
C25 H22 0.929 . S
C25 C26 1.398 1_554 S
C25 C27 1.396 . S
C26 C25 1.398 1_556 S
C26 C30 1.407 . S
C27 C25 1.396 . S
C27 C28 1.394 . S
C28 H23 0.929 . S
C28 C27 1.394 . S
C28 C29 1.365 1_554 S
C29 C28 1.365 1_556 S
C29 C30 1.407 . S
C29 N31 1.423 . S
C30 H24 0.930 . S
C30 C26 1.407 . S
C30 C29 1.407 . S
N31 C29 1.423 . S
N31 C32 1.244 1_556 S
C32 N31 1.244 1_554 S
H33 C36 0.929 . S
H34 C39 0.929 . S
H35 C41 0.930 . S
C36 H33 0.929 . S
C36 C37 1.398 . S
C36 C38 1.396 . S
C37 C36 1.398 . S
C37 C41 1.407 . S
C38 C36 1.396 . S
C38 C39 1.394 . S
C39 H34 0.929 . S
C39 C38 1.394 . S
C39 C40 1.382 . S
C40 C39 1.382 . S
C40 C41 1.392 . S
C40 N42 1.420 . S
C41 H35 0.930 . S
C41 C37 1.407 . S
C41 C40 1.392 . S
N42 C40 1.420 . S
N42 C43 1.244 . S
C43 N42 1.244 . S
C44 O60 1.255 . S
C44 O62 1.254 . S
N45 C46 1.333 . S
N45 C50 1.307 . S
N45 Zn51 2.020 . S
C46 N45 1.333 . S
C46 C47 1.379 . S
C46 H64 0.952 . S
C47 C46 1.379 . S
C47 C48 1.390 . S
C47 H74 0.949 . S
C48 C47 1.390 . S
C48 C49 1.357 . S
C49 C48 1.357 . S
C49 C50 1.370 . S
C49 H75 0.950 . S
C50 N45 1.307 . S
C50 C49 1.370 . S
C50 H68 0.948 . S
Zn51 N45 2.020 . S
Zn51 O60 2.036 1_545 S
Zn51 O66 2.034 1_545 S
Zn51 O70 2.025 1_455 S
Zn51 O72 2.024 1_455 S
C52 O71 1.246 . S
C52 O72 1.249 . S
N53 C54 1.307 . S
N53 C55 1.333 . S
N53 Zn59 2.020 . S
C54 N53 1.307 . S
C54 C58 1.370 . S
C54 H65 0.948 . S
C55 N53 1.333 . S
C55 C56 1.379 . S
C55 H63 0.952 . S
C56 C55 1.379 . S
C56 C57 1.390 . S
C56 H76 0.949 . S
C57 C56 1.390 . S
C57 C58 1.357 . S
C58 C54 1.370 . S
C58 C57 1.357 . S
C58 H77 0.950 . S
Zn59 N53 2.020 . S
Zn59 O62 2.025 1_655 S
Zn59 O67 2.024 1_655 S
Zn59 O69 2.039 1_565 S
Zn59 O71 2.034 1_565 S
O60 C44 1.255 . S
O60 Zn51 2.036 1_565 S
C61 O66 1.246 . S
C61 O67 1.249 . S
O62 C44 1.254 . S
O62 Zn59 2.025 1_455 S
H63 C55 0.952 . S
H64 C46 0.952 . S
H65 C54 0.948 . S
O66 Zn51 2.034 1_565 S
O66 C61 1.246 . S
O67 Zn59 2.024 1_455 S
O67 C61 1.249 . S
H68 C50 0.948 . S
O69 Zn59 2.039 1_545 S
O69 C73 1.251 . S
O70 Zn51 2.025 1_655 S
O70 C73 1.254 . S
O71 C52 1.246 . S
O71 Zn59 2.034 1_545 S
O72 Zn51 2.024 1_655 S
O72 C52 1.249 . S
C73 O69 1.251 . S
C73 O70 1.254 . S
H74 C47 0.949 . S
H75 C49 0.950 . S
H76 C56 0.949 . S
H77 C58 0.950 . S
C78 O94 1.251 . S
C78 O96 1.254 . S
N79 C80 1.333 . S
N79 C84 1.307 . S
N79 Zn85 2.020 . S
C80 N79 1.333 . S
C80 C81 1.379 . S
C80 H98 0.952 . S
C81 C80 1.379 . S
C81 C82 1.390 . S
C81 H108 0.951 . S
C82 C81 1.390 . S
C82 C83 1.357 . S
C83 C82 1.357 . S
C83 C84 1.370 . S
C83 H109 0.950 . S
C84 N79 1.307 . S
C84 C83 1.370 . S
C84 H102 0.948 . S
Zn85 N79 2.020 . S
Zn85 O94 2.039 1_554 S
Zn85 O100 2.034 . S
Zn85 O104 2.025 . S
Zn85 O106 2.024 1_554 S
C86 O105 1.246 . S
C86 O106 1.249 . S
N87 C88 1.307 . S
N87 C89 1.333 . S
N87 Zn93 2.020 . S
C88 N87 1.307 . S
C88 C92 1.370 . S
C88 H99 0.948 . S
C89 N87 1.333 . S
C89 C90 1.379 . S
C89 H97 0.952 . S
C90 C89 1.379 . S
C90 C91 1.390 . S
C90 H110 0.949 . S
C91 C90 1.390 . S
C91 C92 1.357 . S
C92 C88 1.370 . S
C92 C91 1.357 . S
C92 H111 0.950 . S
Zn93 N87 2.020 . S
Zn93 O96 2.025 1_554 S
Zn93 O101 2.024 . S
Zn93 O103 2.039 . S
Zn93 O105 2.034 1_554 S
O94 C78 1.251 . S
O94 Zn85 2.039 1_556 S
C95 O100 1.246 . S
C95 O101 1.249 . S
O96 C78 1.254 . S
O96 Zn93 2.025 1_556 S
H97 C89 0.952 . S
H98 C80 0.952 . S
H99 C88 0.948 . S
O100 Zn85 2.034 . S
O100 C95 1.246 . S
O101 Zn93 2.024 . S
O101 C95 1.249 . S
H102 C84 0.948 . S
O103 Zn93 2.039 . S
O103 C107 1.251 . S
O104 Zn85 2.025 . S
O104 C107 1.254 . S
O105 C86 1.246 . S
O105 Zn93 2.034 1_556 S
O106 Zn85 2.024 1_556 S
O106 C86 1.249 . S
C107 O103 1.251 . S
C107 O104 1.254 . S
H108 C81 0.951 . S
H109 C83 0.950 . S
H110 C90 0.949 . S
H111 C92 0.950 . S
C112 C113 1.349 . S
C112 C114 1.327 . S
C112 H137 0.950 . S
C113 C112 1.349 . S
C113 C129 1.349 . S
C114 C112 1.327 . S
C114 C133 1.429 . S
C114 H138 0.950 . S
C115 C132 1.574 . S
C115 C134 1.368 . S
C115 H139 0.949 . S
H116 C120 0.949 . S
C117 C118 1.349 . S
C117 C119 1.327 . S
C117 H140 0.950 . S
C118 C117 1.349 . S
C118 C130 1.349 . S
C119 C117 1.327 . S
C119 C135 1.429 . S
C119 H141 0.950 . S
C120 H116 0.949 . S
C120 C128 1.574 . S
C120 C136 1.368 . S
H121 C129 0.950 . S
H122 C127 0.950 . S
H123 C128 0.949 . S
H124 C130 0.950 . S
H125 C131 0.950 . S
H126 C132 0.949 . S
C127 H122 0.950 . S
C127 C129 1.327 . S
C127 C133 1.429 . S
C128 C120 1.574 . S
C128 H123 0.949 . S
C128 C134 1.368 . S
C129 C113 1.349 . S
C129 H121 0.950 . S
C129 C127 1.327 . S
C130 C118 1.349 . S
C130 H124 0.950 . S
C130 C131 1.327 . S
C131 H125 0.950 . S
C131 C130 1.327 . S
C131 C135 1.429 . S
C132 C115 1.574 . S
C132 H126 0.949 . S
C132 C136 1.368 . S
C133 C114 1.429 . S
C133 C127 1.429 . S
C133 C134 1.523 . S
C134 C115 1.368 . S
C134 C128 1.368 . S
C134 C133 1.523 . S
C135 C119 1.429 . S
C135 C131 1.429 . S
C135 C136 1.523 . S
C136 C120 1.368 . S
C136 C132 1.368 . S
C136 C135 1.523 . S
H137 C112 0.950 . S
H138 C114 0.950 . S
H139 C115 0.949 . S
H140 C117 0.950 . S
H141 C119 0.950 . S
C142 C143 1.349 . S
C142 C144 1.327 . S
C142 H167 0.950 . S
C143 C142 1.349 . S
C143 C159 1.349 1_554 S
C144 C142 1.327 . S
C144 C163 1.429 . S
C144 H168 0.950 . S
C145 C162 1.574 . S
C145 C164 1.368 1_556 S
C145 H169 0.949 . S
H146 C150 0.949 . S
C147 C148 1.349 1_556 S
C147 C149 1.327 . S
C147 H170 0.950 . S
C148 C147 1.349 1_554 S
C148 C160 1.349 . S
C149 C147 1.327 . S
C149 C165 1.429 1_556 S
C149 H171 0.950 . S
C150 H146 0.949 . S
C150 C158 1.574 . S
C150 C166 1.368 . S
H151 C159 0.950 . S
H152 C157 0.950 . S
H153 C158 0.949 . S
H154 C160 0.950 . S
H155 C161 0.950 . S
H156 C162 0.949 . S
C157 H152 0.950 . S
C157 C159 1.327 . S
C157 C163 1.429 1_556 S
C158 C150 1.574 . S
C158 H153 0.949 . S
C158 C164 1.368 . S
C159 C143 1.349 1_556 S
C159 H151 0.950 . S
C159 C157 1.327 . S
C160 C148 1.349 . S
C160 H154 0.950 . S
C160 C161 1.327 . S
C161 H155 0.950 . S
C161 C160 1.327 . S
C161 C165 1.429 . S
C162 C145 1.574 . S
C162 H156 0.949 . S
C162 C166 1.368 1_556 S
C163 C144 1.429 . S
C163 C157 1.429 1_554 S
C163 C164 1.523 . S
C164 C145 1.368 1_554 S
C164 C158 1.368 . S
C164 C163 1.523 . S
C165 C149 1.429 1_554 S
C165 C161 1.429 . S
C165 C166 1.523 . S
C166 C150 1.368 . S
C166 C162 1.368 1_554 S
C166 C165 1.523 . S
H167 C142 0.950 . S
H168 C144 0.950 . S
H169 C145 0.949 . S
H170 C147 0.950 . S
H171 C149 0.950 . S
C172 C173 1.349 . S
C172 C174 1.327 . S
C172 H197 0.950 . S
C173 C172 1.349 . S
C173 C189 1.349 . S
C174 C172 1.327 . S
C174 C193 1.429 . S
C174 H198 0.950 . S
C175 C192 1.574 . S
C175 C194 1.368 . S
C175 H199 0.949 . S
H176 C180 0.949 . S
C177 C178 1.349 . S
C177 C179 1.327 . S
C177 H200 0.950 . S
C178 C177 1.349 . S
C178 C190 1.349 . S
C179 C177 1.327 . S
C179 C195 1.429 . S
C179 H201 0.950 . S
C180 H176 0.949 . S
C180 C188 1.574 . S
C180 C196 1.368 . S
H181 C189 0.950 . S
H182 C187 0.950 . S
H183 C188 0.949 . S
H184 C190 0.950 . S
H185 C191 0.950 . S
H186 C192 0.949 . S
C187 H182 0.950 . S
C187 C189 1.327 . S
C187 C193 1.429 . S
C188 C180 1.574 . S
C188 H183 0.949 . S
C188 C194 1.368 . S
C189 C173 1.349 . S
C189 H181 0.950 . S
C189 C187 1.327 . S
C190 C178 1.349 . S
C190 H184 0.950 . S
C190 C191 1.327 . S
C191 H185 0.950 . S
C191 C190 1.327 . S
C191 C195 1.429 . S
C192 C175 1.574 . S
C192 H186 0.949 . S
C192 C196 1.368 . S
C193 C174 1.429 . S
C193 C187 1.429 . S
C193 C194 1.523 . S
C194 C175 1.368 . S
C194 C188 1.368 . S
C194 C193 1.523 . S
C195 C179 1.429 . S
C195 C191 1.429 . S
C195 C196 1.523 . S
C196 C180 1.368 . S
C196 C192 1.368 . S
C196 C195 1.523 . S
H197 C172 0.950 . S
H198 C174 0.950 . S
H199 C175 0.949 . S
H200 C177 0.950 . S
H201 C179 0.950 . S
C202 C203 1.349 . S
C202 C204 1.327 . S
C202 H227 0.950 . S
C203 C202 1.349 . S
C203 C219 1.349 1_554 S
C204 C202 1.327 . S
C204 C223 1.429 . S
C204 H228 0.950 . S
C205 C222 1.574 . S
C205 C224 1.368 1_556 S
C205 H229 0.949 . S
H206 C210 0.949 . S
C207 C208 1.349 1_556 S
C207 C209 1.327 . S
C207 H230 0.950 . S
C208 C207 1.349 1_554 S
C208 C220 1.349 . S
C209 C207 1.327 . S
C209 C225 1.429 1_556 S
C209 H231 0.950 . S
C210 H206 0.949 . S
C210 C218 1.574 . S
C210 C226 1.368 . S
H211 C219 0.950 . S
H212 C217 0.950 . S
H213 C218 0.949 . S
H214 C220 0.950 . S
H215 C221 0.950 . S
H216 C222 0.949 . S
C217 H212 0.950 . S
C217 C219 1.327 . S
C217 C223 1.429 1_556 S
C218 C210 1.574 . S
C218 H213 0.949 . S
C218 C224 1.368 . S
C219 C203 1.349 1_556 S
C219 H211 0.950 . S
C219 C217 1.327 . S
C220 C208 1.349 . S
C220 H214 0.950 . S
C220 C221 1.327 . S
C221 H215 0.950 . S
C221 C220 1.327 . S
C221 C225 1.429 . S
C222 C205 1.574 . S
C222 H216 0.949 . S
C222 C226 1.368 1_556 S
C223 C204 1.429 . S
C223 C217 1.429 1_554 S
C223 C224 1.523 . S
C224 C205 1.368 1_554 S
C224 C218 1.368 . S
C224 C223 1.523 . S
C225 C209 1.429 1_554 S
C225 C221 1.429 . S
C225 C226 1.523 . S
C226 C210 1.368 . S
C226 C222 1.368 1_554 S
C226 C225 1.523 . S
H227 C202 0.950 . S
H228 C204 0.950 . S
H229 C205 0.949 . S
H230 C207 0.950 . S
H231 C209 0.950 . S
C232 C233 1.349 . S
C232 C234 1.327 . S
C232 H257 0.950 . S
C233 C232 1.349 . S
C233 C249 1.349 . S
C234 C232 1.327 . S
C234 C253 1.429 . S
C234 H258 0.950 . S
C235 C252 1.574 . S
C235 C254 1.368 . S
C235 H259 0.949 . S
H236 C240 0.949 . S
C237 C238 1.349 . S
C237 C239 1.327 . S
C237 H260 0.950 . S
C238 C237 1.349 . S
C238 C250 1.349 . S
C239 C237 1.327 . S
C239 C255 1.429 . S
C239 H261 0.950 . S
C240 H236 0.949 . S
C240 C248 1.574 . S
C240 C256 1.368 . S
H241 C249 0.950 . S
H242 C247 0.950 . S
H243 C248 0.949 . S
H244 C250 0.950 . S
H245 C251 0.950 . S
H246 C252 0.949 . S
C247 H242 0.950 . S
C247 C249 1.327 . S
C247 C253 1.429 . S
C248 C240 1.574 . S
C248 H243 0.949 . S
C248 C254 1.368 . S
C249 C233 1.349 . S
C249 H241 0.950 . S
C249 C247 1.327 . S
C250 C238 1.349 . S
C250 H244 0.950 . S
C250 C251 1.327 . S
C251 H245 0.950 . S
C251 C250 1.327 . S
C251 C255 1.429 . S
C252 C235 1.574 . S
C252 H246 0.949 . S
C252 C256 1.368 . S
C253 C234 1.429 . S
C253 C247 1.429 . S
C253 C254 1.523 . S
C254 C235 1.368 . S
C254 C248 1.368 . S
C254 C253 1.523 . S
C255 C239 1.429 . S
C255 C251 1.429 . S
C255 C256 1.523 . S
C256 C240 1.368 . S
C256 C252 1.368 . S
C256 C255 1.523 . S
H257 C232 0.950 . S
H258 C234 0.950 . S
H259 C235 0.949 . S
H260 C237 0.950 . S
H261 C239 0.950 . S
C262 C263 1.349 . S
C262 C264 1.327 . S
C262 H287 0.950 . S
C263 C262 1.349 . S
C263 C279 1.349 . S
C264 C262 1.327 . S
C264 C283 1.429 . S
C264 H288 0.950 . S
C265 C282 1.574 . S
C265 C284 1.368 . S
C265 H289 0.949 . S
H266 C270 0.949 . S
C267 C268 1.349 . S
C267 C269 1.327 . S
C267 H290 0.950 . S
C268 C267 1.349 . S
C268 C280 1.349 . S
C269 C267 1.327 . S
C269 C285 1.429 . S
C269 H291 0.950 . S
C270 H266 0.949 . S
C270 C278 1.574 . S
C270 C286 1.368 . S
H271 C279 0.950 . S
H272 C277 0.950 . S
H273 C278 0.949 . S
H274 C280 0.950 . S
H275 C281 0.950 . S
H276 C282 0.949 . S
C277 H272 0.950 . S
C277 C279 1.327 . S
C277 C283 1.429 . S
C278 C270 1.574 . S
C278 H273 0.949 . S
C278 C284 1.368 . S
C279 C263 1.349 . S
C279 H271 0.950 . S
C279 C277 1.327 . S
C280 C268 1.349 . S
C280 H274 0.950 . S
C280 C281 1.327 . S
C281 H275 0.950 . S
C281 C280 1.327 . S
C281 C285 1.429 . S
C282 C265 1.574 . S
C282 H276 0.949 . S
C282 C286 1.368 . S
C283 C264 1.429 . S
C283 C277 1.429 . S
C283 C284 1.523 . S
C284 C265 1.368 . S
C284 C278 1.368 . S
C284 C283 1.523 . S
C285 C269 1.429 . S
C285 C281 1.429 . S
C285 C286 1.523 . S
C286 C270 1.368 . S
C286 C282 1.368 . S
C286 C285 1.523 . S
H287 C262 0.950 . S
H288 C264 0.950 . S
H289 C265 0.949 . S
H290 C267 0.950 . S
H291 C269 0.950 . S
C292 C293 1.349 . S
C292 C294 1.327 . S
C292 H317 0.950 . S
C293 C292 1.349 . S
C293 C309 1.349 . S
C294 C292 1.327 . S
C294 C313 1.429 . S
C294 H318 0.950 . S
C295 C312 1.574 . S
C295 C314 1.368 . S
C295 H319 0.949 . S
H296 C300 0.949 . S
C297 C298 1.349 . S
C297 C299 1.327 . S
C297 H320 0.950 . S
C298 C297 1.349 . S
C298 C310 1.349 . S
C299 C297 1.327 . S
C299 C315 1.429 . S
C299 H321 0.950 . S
C300 H296 0.949 . S
C300 C308 1.574 . S
C300 C316 1.368 . S
H301 C309 0.950 . S
H302 C307 0.950 . S
H303 C308 0.949 . S
H304 C310 0.950 . S
H305 C311 0.950 . S
H306 C312 0.949 . S
C307 H302 0.950 . S
C307 C309 1.327 . S
C307 C313 1.429 . S
C308 C300 1.574 . S
C308 H303 0.949 . S
C308 C314 1.368 . S
C309 C293 1.349 . S
C309 H301 0.950 . S
C309 C307 1.327 . S
C310 C298 1.349 . S
C310 H304 0.950 . S
C310 C311 1.327 . S
C311 H305 0.950 . S
C311 C310 1.327 . S
C311 C315 1.429 . S
C312 C295 1.574 . S
C312 H306 0.949 . S
C312 C316 1.368 . S
C313 C294 1.429 . S
C313 C307 1.429 . S
C313 C314 1.523 . S
C314 C295 1.368 . S
C314 C308 1.368 . S
C314 C313 1.523 . S
C315 C299 1.429 . S
C315 C311 1.429 . S
C315 C316 1.523 . S
C316 C300 1.368 . S
C316 C312 1.368 . S
C316 C315 1.523 . S
H317 C292 0.950 . S
H318 C294 0.950 . S
H319 C295 0.949 . S
H320 C297 0.950 . S
H321 C299 0.950 . S
C322 C323 1.349 . S
C322 C324 1.327 . S
C322 H347 0.950 . S
C323 C322 1.349 . S
C323 C339 1.349 . S
C324 C322 1.327 . S
C324 C343 1.429 . S
C324 H348 0.950 . S
C325 C342 1.574 . S
C325 C344 1.368 . S
C325 H349 0.949 . S
H326 C330 0.949 . S
C327 C328 1.349 . S
C327 C329 1.327 . S
C327 H350 0.950 . S
C328 C327 1.349 . S
C328 C340 1.349 . S
C329 C327 1.327 . S
C329 C345 1.429 . S
C329 H351 0.950 . S
C330 H326 0.949 . S
C330 C338 1.574 . S
C330 C346 1.368 . S
H331 C339 0.950 . S
H332 C337 0.950 . S
H333 C338 0.949 . S
H334 C340 0.950 . S
H335 C341 0.950 . S
H336 C342 0.949 . S
C337 H332 0.950 . S
C337 C339 1.327 . S
C337 C343 1.429 . S
C338 C330 1.574 . S
C338 H333 0.949 . S
C338 C344 1.368 . S
C339 C323 1.349 . S
C339 H331 0.950 . S
C339 C337 1.327 . S
C340 C328 1.349 . S
C340 H334 0.950 . S
C340 C341 1.327 . S
C341 H335 0.950 . S
C341 C340 1.327 . S
C341 C345 1.429 . S
C342 C325 1.574 . S
C342 H336 0.949 . S
C342 C346 1.368 . S
C343 C324 1.429 . S
C343 C337 1.429 . S
C343 C344 1.523 . S
C344 C325 1.368 . S
C344 C338 1.368 . S
C344 C343 1.523 . S
C345 C329 1.429 . S
C345 C341 1.429 . S
C345 C346 1.523 . S
C346 C330 1.368 . S
C346 C342 1.368 . S
C346 C345 1.523 . S
H347 C322 0.950 . S
H348 C324 0.950 . S
H349 C325 0.949 . S
H350 C327 0.950 . S
H351 C329 0.950 . S
C352 C353 1.349 . S
C352 C354 1.327 . S
C352 H377 0.950 . S
C353 C352 1.349 . S
C353 C369 1.349 . S
C354 C352 1.327 . S
C354 C373 1.429 . S
C354 H378 0.950 . S
C355 C372 1.574 . S
C355 C374 1.368 . S
C355 H379 0.949 . S
H356 C360 0.949 . S
C357 C358 1.349 . S
C357 C359 1.327 . S
C357 H380 0.950 . S
C358 C357 1.349 . S
C358 C370 1.349 . S
C359 C357 1.327 . S
C359 C375 1.429 . S
C359 H381 0.950 . S
C360 H356 0.949 . S
C360 C368 1.574 . S
C360 C376 1.368 . S
H361 C369 0.950 . S
H362 C367 0.950 . S
H363 C368 0.949 . S
H364 C370 0.950 . S
H365 C371 0.950 . S
H366 C372 0.949 . S
C367 H362 0.950 . S
C367 C369 1.327 . S
C367 C373 1.429 . S
C368 C360 1.574 . S
C368 H363 0.949 . S
C368 C374 1.368 . S
C369 C353 1.349 . S
C369 H361 0.950 . S
C369 C367 1.327 . S
C370 C358 1.349 . S
C370 H364 0.950 . S
C370 C371 1.327 . S
C371 H365 0.950 . S
C371 C370 1.327 . S
C371 C375 1.429 . S
C372 C355 1.574 . S
C372 H366 0.949 . S
C372 C376 1.368 . S
C373 C354 1.429 . S
C373 C367 1.429 . S
C373 C374 1.523 . S
C374 C355 1.368 . S
C374 C368 1.368 . S
C374 C373 1.523 . S
C375 C359 1.429 . S
C375 C371 1.429 . S
C375 C376 1.523 . S
C376 C360 1.368 . S
C376 C372 1.368 . S
C376 C375 1.523 . S
H377 C352 0.950 . S
H378 C354 0.950 . S
H379 C355 0.949 . S
H380 C357 0.950 . S
H381 C359 0.950 . S
C382 C383 1.349 . S
C382 C384 1.327 . S
C382 H407 0.950 . S
C383 C382 1.349 . S
C383 C399 1.349 . S
C384 C382 1.327 . S
C384 C403 1.429 . S
C384 H408 0.950 . S
C385 C402 1.574 . S
C385 C404 1.368 . S
C385 H409 0.949 . S
H386 C390 0.949 . S
C387 C388 1.349 . S
C387 C389 1.327 . S
C387 H410 0.950 . S
C388 C387 1.349 . S
C388 C400 1.349 . S
C389 C387 1.327 . S
C389 C405 1.429 . S
C389 H411 0.950 . S
C390 H386 0.949 . S
C390 C398 1.574 . S
C390 C406 1.368 . S
H391 C399 0.950 . S
H392 C397 0.950 . S
H393 C398 0.949 . S
H394 C400 0.950 . S
H395 C401 0.950 . S
H396 C402 0.949 . S
C397 H392 0.950 . S
C397 C399 1.327 . S
C397 C403 1.429 . S
C398 C390 1.574 . S
C398 H393 0.949 . S
C398 C404 1.368 . S
C399 C383 1.349 . S
C399 H391 0.950 . S
C399 C397 1.327 . S
C400 C388 1.349 . S
C400 H394 0.950 . S
C400 C401 1.327 . S
C401 H395 0.950 . S
C401 C400 1.327 . S
C401 C405 1.429 . S
C402 C385 1.574 . S
C402 H396 0.949 . S
C402 C406 1.368 . S
C403 C384 1.429 . S
C403 C397 1.429 . S
C403 C404 1.523 . S
C404 C385 1.368 . S
C404 C398 1.368 . S
C404 C403 1.523 . S
C405 C389 1.429 . S
C405 C401 1.429 . S
C405 C406 1.523 . S
C406 C390 1.368 . S
C406 C402 1.368 . S
C406 C405 1.523 . S
H407 C382 0.950 . S
H408 C384 0.950 . S
H409 C385 0.949 . S
H410 C387 0.950 . S
H411 C389 0.950 . S
C412 C413 1.349 . S
C412 C414 1.327 . S
C412 H437 0.950 . S
C413 C412 1.349 . S
C413 C429 1.349 . S
C414 C412 1.327 . S
C414 C433 1.429 . S
C414 H438 0.950 . S
C415 C432 1.574 . S
C415 C434 1.368 . S
C415 H439 0.949 . S
H416 C420 0.949 . S
C417 C418 1.349 . S
C417 C419 1.327 . S
C417 H440 0.950 . S
C418 C417 1.349 . S
C418 C430 1.349 . S
C419 C417 1.327 . S
C419 C435 1.429 . S
C419 H441 0.950 . S
C420 H416 0.949 . S
C420 C428 1.574 . S
C420 C436 1.368 . S
H421 C429 0.950 . S
H422 C427 0.950 . S
H423 C428 0.949 . S
H424 C430 0.950 . S
H425 C431 0.950 . S
H426 C432 0.949 . S
C427 H422 0.950 . S
C427 C429 1.327 . S
C427 C433 1.429 . S
C428 C420 1.574 . S
C428 H423 0.949 . S
C428 C434 1.368 . S
C429 C413 1.349 . S
C429 H421 0.950 . S
C429 C427 1.327 . S
C430 C418 1.349 . S
C430 H424 0.950 . S
C430 C431 1.327 . S
C431 H425 0.950 . S
C431 C430 1.327 . S
C431 C435 1.429 . S
C432 C415 1.574 . S
C432 H426 0.949 . S
C432 C436 1.368 . S
C433 C414 1.429 . S
C433 C427 1.429 . S
C433 C434 1.523 . S
C434 C415 1.368 . S
C434 C428 1.368 . S
C434 C433 1.523 . S
C435 C419 1.429 . S
C435 C431 1.429 . S
C435 C436 1.523 . S
C436 C420 1.368 . S
C436 C432 1.368 . S
C436 C435 1.523 . S
H437 C412 0.950 . S
H438 C414 0.950 . S
H439 C415 0.949 . S
H440 C417 0.950 . S
H441 C419 0.950 . S
C442 C443 1.349 . S
C442 C444 1.327 . S
C442 H467 0.950 . S
C443 C442 1.349 . S
C443 C459 1.349 . S
C444 C442 1.327 . S
C444 C463 1.429 . S
C444 H468 0.950 . S
C445 C462 1.574 . S
C445 C464 1.368 . S
C445 H469 0.949 . S
H446 C450 0.949 . S
C447 C448 1.349 . S
C447 C449 1.327 . S
C447 H470 0.950 . S
C448 C447 1.349 . S
C448 C460 1.349 . S
C449 C447 1.327 . S
C449 C465 1.429 . S
C449 H471 0.950 . S
C450 H446 0.949 . S
C450 C458 1.574 . S
C450 C466 1.368 . S
H451 C459 0.950 . S
H452 C457 0.950 . S
H453 C458 0.949 . S
H454 C460 0.950 . S
H455 C461 0.950 . S
H456 C462 0.949 . S
C457 H452 0.950 . S
C457 C459 1.327 . S
C457 C463 1.429 . S
C458 C450 1.574 . S
C458 H453 0.949 . S
C458 C464 1.368 . S
C459 C443 1.349 . S
C459 H451 0.950 . S
C459 C457 1.327 . S
C460 C448 1.349 . S
C460 H454 0.950 . S
C460 C461 1.327 . S
C461 H455 0.950 . S
C461 C460 1.327 . S
C461 C465 1.429 . S
C462 C445 1.574 . S
C462 H456 0.949 . S
C462 C466 1.368 . S
C463 C444 1.429 . S
C463 C457 1.429 . S
C463 C464 1.523 . S
C464 C445 1.368 . S
C464 C458 1.368 . S
C464 C463 1.523 . S
C465 C449 1.429 . S
C465 C461 1.429 . S
C465 C466 1.523 . S
C466 C450 1.368 . S
C466 C462 1.368 . S
C466 C465 1.523 . S
H467 C442 0.950 . S
H468 C444 0.950 . S
H469 C445 0.949 . S
H470 C447 0.950 . S
H471 C449 0.950 . S
C118 C48 1.509 . S
C113 C43 1.509 . S
C143 C10 1.512 . S
C148 C91 1.511 . S
C173 C21 1.508 . S
C178 C57 1.512 . S
C203 C32 1.509 . S
C208 C82 1.510 . S
C238 C44 1.566 . S
C233 C5 1.542 . S
C268 C86 1.547 . S
C263 C15 1.544 . S
C293 C27 1.544 . S
C298 C52 1.562 . S
C323 C38 1.527 . S
C328 C78 1.548 . S
C358 C107 1.472 . S
C353 C16 1.454 . S
C388 C73 1.457 . S
C383 C26 1.451 . S
C418 C95 1.471 . S
C413 C37 1.468 . S
C443 C4 1.452 . S
C448 C61 1.454 . S
