# Generated by pormake.
# Topology zzz, (3,6)-cn, num edge types: 1
# Building blocks:
#     Node 0, Type 0, BuildingBlock: CUQRIR_clean_linker_1, # of connection points: 3
#     Node 1, Type 0, BuildingBlock: CUQRIR_clean_linker_1, # of connection points: 3
#     Node 2, Type 0, BuildingBlock: CUQRIR_clean_linker_1, # of connection points: 3
#     Node 3, Type 0, BuildingBlock: CUQRIR_clean_linker_1, # of connection points: 3
#     Node 4, Type 0, BuildingBlock: CUQRIR_clean_linker_1, # of connection points: 3
#     Node 5, Type 0, BuildingBlock: CUQRIR_clean_linker_1, # of connection points: 3
#     Node 6, Type 0, BuildingBlock: CUQRIR_clean_linker_1, # of connection points: 3
#     Node 7, Type 0, BuildingBlock: CUQRIR_clean_linker_1, # of connection points: 3
#     Node 8, Type 1, BuildingBlock: FUNLAD_clean_sbu_0, # of connection points: 6
#     Node 9, Type 1, BuildingBlock: FUNLAD_clean_sbu_0, # of connection points: 6
#     Node 10, Type 1, BuildingBlock: FUNLAD_clean_sbu_0, # of connection points: 6
#     Node 11, Type 1, BuildingBlock: FUNLAD_clean_sbu_0, # of connection points: 6
#     Edge 12, Type (0, 1), BuildingBlock: XIVTED_clean_linker_0, # of connection points: 2
#     Edge 13, Type (0, 1), BuildingBlock: XIVTED_clean_linker_0, # of connection points: 2
#     Edge 14, Type (0, 1), BuildingBlock: XIVTED_clean_linker_0, # of connection points: 2
#     Edge 15, Type (0, 1), BuildingBlock: XIVTED_clean_linker_0, # of connection points: 2
#     Edge 16, Type (0, 1), BuildingBlock: XIVTED_clean_linker_0, # of connection points: 2
#     Edge 17, Type (0, 1), BuildingBlock: XIVTED_clean_linker_0, # of connection points: 2
#     Edge 18, Type (0, 1), BuildingBlock: XIVTED_clean_linker_0, # of connection points: 2
#     Edge 19, Type (0, 1), BuildingBlock: XIVTED_clean_linker_0, # of connection points: 2
#     Edge 20, Type (0, 1), BuildingBlock: XIVTED_clean_linker_0, # of connection points: 2
#     Edge 21, Type (0, 1), BuildingBlock: XIVTED_clean_linker_0, # of connection points: 2
#     Edge 22, Type (0, 1), BuildingBlock: XIVTED_clean_linker_0, # of connection points: 2
#     Edge 23, Type (0, 1), BuildingBlock: XIVTED_clean_linker_0, # of connection points: 2
#     Edge 24, Type (0, 1), BuildingBlock: XIVTED_clean_linker_0, # of connection points: 2
#     Edge 25, Type (0, 1), BuildingBlock: XIVTED_clean_linker_0, # of connection points: 2
#     Edge 26, Type (0, 1), BuildingBlock: XIVTED_clean_linker_0, # of connection points: 2
#     Edge 27, Type (0, 1), BuildingBlock: XIVTED_clean_linker_0, # of connection points: 2
#     Edge 28, Type (0, 1), BuildingBlock: XIVTED_clean_linker_0, # of connection points: 2
#     Edge 29, Type (0, 1), BuildingBlock: XIVTED_clean_linker_0, # of connection points: 2
#     Edge 30, Type (0, 1), BuildingBlock: XIVTED_clean_linker_0, # of connection points: 2
#     Edge 31, Type (0, 1), BuildingBlock: XIVTED_clean_linker_0, # of connection points: 2
#     Edge 32, Type (0, 1), BuildingBlock: XIVTED_clean_linker_0, # of connection points: 2
#     Edge 33, Type (0, 1), BuildingBlock: XIVTED_clean_linker_0, # of connection points: 2
#     Edge 34, Type (0, 1), BuildingBlock: XIVTED_clean_linker_0, # of connection points: 2
#     Edge 35, Type (0, 1), BuildingBlock: XIVTED_clean_linker_0, # of connection points: 2
# Relax obj value: 0.131
# Max RMSD: 0.180
# Mean RMSD: 0.101
data_MOF--net-zzz--node1-FUNLAD_clean_sbu_0--node2-CUQRIR_clean_linker_1--edge1-XIVTED_clean_linker_0
_symmetry_space_group_name_H-M    P1
_symmetry_Int_Tables_number       1
_symmetry_cell_setting            triclinic
loop_
_symmetry_equiv_pos_as_xyz
'x, y, z'
_cell_length_a     48.655048
_cell_length_b     54.311532
_cell_length_c     15.730612
_cell_angle_alpha  84.894231
_cell_angle_beta   84.25935
_cell_angle_gamma 89.704887
loop_
_atom_site_label
_atom_site_type_symbol
_atom_site_fract_x
_atom_site_fract_y
_atom_site_fract_z
_atom_type_partial_charge
C0 C 0.78362 0.47653 0.31019 0.0
N1 N 0.81025 0.47104 0.32152 0.0
N2 N 0.77828 0.47229 0.22994 0.0
C3 C 0.76313 0.48656 0.37599 0.0
C4 C 0.80248 0.46409 0.19295 0.0
N5 N 0.8219 0.46317 0.24879 0.0
C6 C 0.80771 0.45866 0.10048 0.0
H7 H 0.76771 0.47982 0.44175 0.0
H8 H 0.74177 0.48124 0.36606 0.0
H9 H 0.76456 0.50703 0.3693 0.0
H10 H 0.79025 0.46434 0.06307 0.0
H11 H 0.81092 0.43851 0.09759 0.0
H12 H 0.8268 0.46824 0.0703 0.0
C13 C 0.93405 0.76387 0.15875 0.0
N14 N 0.94009 0.78818 0.15586 0.0
N15 N 0.93641 0.75622 0.07866 0.0
C16 C 0.92896 0.74712 0.23994 0.0
C17 C 0.94453 0.77677 0.0273 0.0
N18 N 0.94699 0.79615 0.07431 0.0
C19 C 0.95251 0.77718 0.93228 0.0
H20 H 0.9491 0.74198 0.26382 0.0
H21 H 0.91805 0.73002 0.22839 0.0
H22 H 0.91669 0.75683 0.29 0.0
H23 H 0.93774 0.76602 0.90233 0.0
H24 H 0.97328 0.76883 0.92112 0.0
H25 H 0.95295 0.79632 0.90096 0.0
C26 C 0.75648 -0.00179 0.18917 0.0
N27 N 0.7288 0.00196 0.19346 0.0
N28 N 0.76787 0.00099 0.10632 0.0
C29 C 0.77243 0.99205 0.26511 0.0
C30 C 0.74611 0.00674 0.06084 0.0
N31 N 0.72251 0.00742 0.11379 0.0
C32 C 0.74785 0.01083 0.96452 0.0
H33 H 0.78099 0.00939 0.2843 0.0
H34 H 0.78996 0.97966 0.24813 0.0
H35 H 0.75905 0.98324 0.32054 0.0
H36 H 0.74537 0.99279 0.9381 0.0
H37 H 0.76819 0.01879 0.93795 0.0
H38 H 0.73134 0.02328 0.94299 0.0
C39 C 0.5499 0.70882 0.18081 0.0
N40 N 0.54356 0.68447 0.18798 0.0
N41 N 0.54502 0.71939 0.10247 0.0
C42 C 0.55875 0.7226 0.25214 0.0
C43 C 0.53514 0.70068 0.06281 0.0
N44 N 0.53399 0.6795 0.11517 0.0
C45 C 0.52561 0.70338 0.97434 0.0
H46 H 0.54026 0.72643 0.29617 0.0
H47 H 0.56881 0.74041 0.22682 0.0
H48 H 0.57314 0.71123 0.28951 0.0
H49 H 0.53739 0.71801 0.93265 0.0
H50 H 0.50349 0.70867 0.97939 0.0
H51 H 0.52787 0.68574 0.94382 0.0
C52 C 0.24323 0.52356 0.15202 0.0
N53 N 0.21648 0.52843 0.14076 0.0
N54 N 0.24892 0.5297 0.22998 0.0
C55 C 0.26367 0.51281 0.08772 0.0
C56 C 0.22469 0.53815 0.26598 0.0
N57 N 0.20498 0.53754 0.21149 0.0
C58 C 0.21955 0.54442 0.35763 0.0
H59 H 0.26222 0.49235 0.09721 0.0
H60 H 0.28504 0.51836 0.09655 0.0
H61 H 0.25898 0.51876 0.02141 0.0
H62 H 0.21848 0.56481 0.35844 0.0
H63 H 0.23617 0.53741 0.39661 0.0
H64 H 0.19953 0.53656 0.38766 0.0
C65 C 0.09458 0.22975 0.3035 0.0
N66 N 0.08771 0.2056 0.30704 0.0
N67 N 0.09202 0.2377 0.38317 0.0
C68 C 0.10066 0.24614 0.22188 0.0
C69 C 0.08296 0.2175 0.43492 0.0
N70 N 0.08011 0.19804 0.38857 0.0
C71 C 0.07458 0.21755 0.5296 0.0
H72 H 0.11309 0.23603 0.17324 0.0
H73 H 0.11182 0.2631 0.23353 0.0
H74 H 0.08089 0.25156 0.19605 0.0
H75 H 0.05407 0.22647 0.5394 0.0
H76 H 0.08955 0.22842 0.55984 0.0
H77 H 0.0734 0.1985 0.56172 0.0
C78 C 0.27043 0.99646 0.27093 0.0
N79 N 0.29814 0.99294 0.2669 0.0
N80 N 0.25904 0.99401 0.35381 0.0
C81 C 0.25449 0.00211 0.19469 0.0
C82 C 0.28083 0.98868 0.39956 0.0
N83 N 0.30445 0.98795 0.34675 0.0
C84 C 0.2791 0.98499 0.49594 0.0
H85 H 0.23665 0.01422 0.2111 0.0
H86 H 0.2464 0.98455 0.17577 0.0
H87 H 0.26779 0.01104 0.13929 0.0
H88 H 0.25887 0.97688 0.52285 0.0
H89 H 0.28131 0.0032 0.52146 0.0
H90 H 0.29578 0.97283 0.51805 0.0
C91 C 0.47688 0.2884 0.27879 0.0
N92 N 0.48318 0.31276 0.27156 0.0
N93 N 0.48176 0.27785 0.35715 0.0
C94 C 0.46806 0.27459 0.20749 0.0
C95 C 0.49162 0.29659 0.39678 0.0
N96 N 0.49274 0.31776 0.34437 0.0
C97 C 0.50115 0.29392 0.48525 0.0
H98 H 0.45367 0.28594 0.17005 0.0
H99 H 0.45801 0.25678 0.23285 0.0
H100 H 0.48656 0.27076 0.16351 0.0
H101 H 0.52327 0.28865 0.48022 0.0
H102 H 0.48939 0.27929 0.52698 0.0
H103 H 0.49885 0.31157 0.51572 0.0
C104 C 0.02244 0.95675 0.84117 0.0
N105 N 0.99632 0.96167 0.59726 0.0
C106 C 0.01374 0.9422 0.58811 0.0
C107 C 0.00703 0.92285 0.54171 0.0
C108 C 0.98215 0.92343 0.50354 0.0
C109 C 0.96471 0.94398 0.51237 0.0
C110 C 0.97225 0.96303 0.55992 0.0
Zn111 Zn 0.00668 0.98642 0.67903 0.0
C112 C 0.95914 0.99785 0.80515 0.0
N113 N 0.0305 0.03268 0.86333 0.0
C114 C 0.05451 0.0314 0.90104 0.0
C115 C 0.01291 0.05202 0.87267 0.0
C116 C 0.0193 0.07125 0.91999 0.0
C117 C 0.04405 0.07073 0.95883 0.0
C118 C 0.06174 0.05037 0.94945 0.0
Zn119 Zn 0.02024 0.0079 0.78142 0.0
O120 O 0.01435 0.95634 0.76712 0.0
C121 C 0.06777 0.99648 0.65529 0.0
O122 O 0.0273 0.9773 0.86958 0.0
H123 H 0.99414 0.05296 0.84117 0.0
H124 H 0.03258 0.94121 0.61927 0.0
H125 H 0.06828 0.01593 0.89222 0.0
O126 O 0.04832 0.98605 0.62365 0.0
O127 O 0.06228 0.00717 0.72381 0.0
H128 H 0.95863 0.9786 0.56858 0.0
O129 O 0.01255 0.03798 0.69325 0.0
O130 O 0.99966 0.01698 0.59086 0.0
O131 O 0.9786 0.00823 0.83684 0.0
O132 O 0.96462 0.98718 0.73658 0.0
C133 C 0.00453 0.03754 0.61912 0.0
H134 H 0.02087 0.90722 0.53824 0.0
H135 H 0.94544 0.94527 0.48331 0.0
H136 H 0.00529 0.08676 0.92385 0.0
H137 H 0.08094 0.04914 0.97894 0.0
C138 C 0.48 0.98743 0.6079 0.0
N139 N 0.50804 0.05527 0.67116 0.0
C140 C 0.51142 0.06073 0.58464 0.0
C141 C 0.50851 0.08489 0.54915 0.0
C142 C 0.50206 0.1038 0.60298 0.0
C143 C 0.49867 0.09772 0.69222 0.0
C144 C 0.50181 0.07317 0.72517 0.0
Zn145 Zn 0.51174 0.01897 0.71501 0.0
C146 C 0.4661 0.00113 0.84433 0.0
N147 N 0.5189 0.94207 0.78921 0.0
C148 C 0.52518 0.92419 0.73517 0.0
C149 C 0.51547 0.93659 0.87571 0.0
C150 C 0.51838 0.91242 0.91115 0.0
C151 C 0.52487 0.89353 0.85728 0.0
C152 C 0.52832 0.89964 0.76806 0.0
Zn153 Zn 0.51521 0.97837 0.7454 0.0
O154 O 0.48643 0.00926 0.62167 0.0
C155 C 0.56081 0.99628 0.61594 0.0
O156 O 0.48971 0.96917 0.65148 0.0
H157 H 0.51069 0.95107 0.91771 0.0
H158 H 0.51615 0.04624 0.54267 0.0
H159 H 0.52786 0.92898 0.66661 0.0
O160 O 0.54786 0.01628 0.62784 0.0
O161 O 0.5516 0.97625 0.65683 0.0
H162 H 0.49918 0.0684 0.79374 0.0
O163 O 0.54042 0.98807 0.83885 0.0
O164 O 0.53733 0.02816 0.80888 0.0
O165 O 0.47895 0.98107 0.83254 0.0
O166 O 0.47545 0.02112 0.80352 0.0
C167 C 0.54694 0.00987 0.85259 0.0
H168 H 0.51083 0.08862 0.48002 0.0
H169 H 0.49392 0.11178 0.73607 0.0
H170 H 0.51601 0.90867 0.98027 0.0
H171 H 0.53311 0.88559 0.72417 0.0
C172 C 0.52814 0.47 0.59739 0.0
N173 N 0.45359 0.50345 0.67095 0.0
C174 C 0.45551 0.5105 0.58528 0.0
C175 C 0.43196 0.51381 0.54272 0.0
C176 C 0.40598 0.50939 0.58788 0.0
C177 C 0.40426 0.50149 0.67576 0.0
C178 C 0.42859 0.49881 0.71668 0.0
Zn179 Zn 0.49086 0.49991 0.72089 0.0
C180 C 0.49817 0.45567 0.83046 0.0
N181 N 0.5729 0.49384 0.78923 0.0
C182 C 0.59805 0.49785 0.74381 0.0
C183 C 0.57068 0.48754 0.87537 0.0
C184 C 0.59403 0.48463 0.91902 0.0
C185 C 0.62022 0.48842 0.87437 0.0
C186 C 0.62222 0.49536 0.78566 0.0
Zn187 Zn 0.53568 0.49736 0.73885 0.0
O188 O 0.50421 0.47811 0.61974 0.0
C189 C 0.52842 0.5416 0.62935 0.0
O190 O 0.54831 0.47525 0.63815 0.0
H191 H 0.55064 0.48489 0.91119 0.0
H192 H 0.47545 0.5135 0.54909 0.0
H193 H 0.59935 0.50303 0.67552 0.0
O194 O 0.50425 0.53261 0.64577 0.0
O195 O 0.54855 0.53016 0.66028 0.0
H196 H 0.42753 0.49301 0.78452 0.0
O197 O 0.52232 0.51933 0.83953 0.0
O198 O 0.47817 0.5219 0.82193 0.0
O199 O 0.52231 0.46476 0.81442 0.0
O200 O 0.47806 0.46702 0.79909 0.0
C201 C 0.49837 0.52731 0.86226 0.0
H202 H 0.43406 0.51951 0.47457 0.0
H203 H 0.38441 0.49784 0.71232 0.0
H204 H 0.59155 0.4798 0.9877 0.0
H205 H 0.64216 0.49851 0.74918 0.0
C206 C 0.03658 0.5169 0.57414 0.0
N207 N 0.02929 0.44356 0.67873 0.0
C208 C 0.02354 0.43954 0.59823 0.0
C209 C 0.03084 0.41738 0.56412 0.0
C210 C 0.04408 0.39896 0.61329 0.0
C211 C 0.04966 0.40349 0.69654 0.0
C212 C 0.04204 0.42608 0.7282 0.0
Zn213 Zn 0.01931 0.47736 0.71943 0.0
C214 C 0.06477 0.50075 0.79321 0.0
N215 N 0.99856 0.54988 0.78475 0.0
C216 C 0.98587 0.56734 0.73502 0.0
C217 C 0.00436 0.554 0.86511 0.0
C218 C 0.99722 0.57626 0.89874 0.0
C219 C 0.98406 0.59467 0.84924 0.0
C220 C 0.97839 0.59002 0.7662 0.0
Zn221 Zn 0.00852 0.51607 0.74418 0.0
O222 O 0.03627 0.49397 0.59886 0.0
C223 C 0.96303 0.49266 0.67059 0.0
O224 O 0.02578 0.53216 0.62414 0.0
H225 H 0.01431 0.53985 0.90386 0.0
H226 H 0.01355 0.45372 0.55968 0.0
H227 H 0.98143 0.56363 0.67135 0.0
O228 O 0.98021 0.47498 0.67318 0.0
O229 O 0.96938 0.51324 0.69623 0.0
H230 H 0.04644 0.42971 0.79197 0.0
O231 O 0.9916 0.49953 0.86441 0.0
O232 O 0.00198 0.46127 0.83979 0.0
O233 O 0.0476 0.51843 0.79049 0.0
O234 O 0.05845 0.48018 0.76746 0.0
C235 C 0.99121 0.47664 0.8895 0.0
H236 H 0.02656 0.41493 0.49916 0.0
H237 H 0.05958 0.38969 0.73697 0.0
H238 H 1.00157 0.57883 0.96356 0.0
H239 H 0.96852 0.6038 0.72554 0.0
H240 H 0.21486 0.96851 0.31597 0.0
H241 H 0.11366 0.02147 0.69165 0.0
H242 H 0.23868 0.02496 0.46975 0.0
H243 H 0.08664 0.97229 0.51545 0.0
H244 H 0.15976 0.02248 0.61285 0.0
H245 H 0.16757 0.96973 0.38713 0.0
C246 C 0.20993 0.98141 0.36388 0.0
C247 C 0.23056 0.99658 0.38746 0.0
C248 C 0.14373 0.01148 0.59138 0.0
C249 C 0.17687 0.99782 0.47051 0.0
C250 C 0.11741 0.01081 0.63666 0.0
C251 C 0.09618 0.99674 0.6104 0.0
C252 C 0.14898 0.99788 0.51945 0.0
C253 C 0.10231 0.9834 0.53823 0.0
C254 C 0.18306 0.982 0.405 0.0
C255 C 0.22333 0.01279 0.45063 0.0
N256 N 0.12809 0.98426 0.49555 0.0
N257 N 0.19718 0.01287 0.4904 0.0
H258 H 0.44801 0.25455 0.48487 0.0
H259 H 0.53337 0.1283 0.46756 0.0
H260 H 0.51615 0.24322 0.29655 0.0
H261 H 0.46325 0.13805 0.65228 0.0
H262 H 0.52662 0.17002 0.40239 0.0
H263 H 0.45195 0.21143 0.54469 0.0
C264 C 0.46357 0.24272 0.45585 0.0
C265 C 0.48182 0.25208 0.38627 0.0
C266 C 0.51266 0.16307 0.45711 0.0
C267 C 0.48678 0.20321 0.45383 0.0
C268 C 0.51645 0.13919 0.49425 0.0
C269 C 0.49878 0.12959 0.56539 0.0
C270 C 0.49106 0.1776 0.49128 0.0
C271 C 0.47755 0.14476 0.59812 0.0
C272 C 0.46593 0.21825 0.48986 0.0
C273 C 0.50172 0.23639 0.35019 0.0
N274 N 0.47426 0.16801 0.56074 0.0
N275 N 0.50381 0.2127 0.38472 0.0
H276 H 0.27065 0.48627 0.28592 0.0
H277 H 0.39174 0.55094 0.49407 0.0
H278 H 0.28216 0.56503 0.27077 0.0
H279 H 0.36496 0.47614 0.57312 0.0
H280 H 0.35436 0.55565 0.40114 0.0
H281 H 0.30888 0.48091 0.37752 0.0
C282 C 0.28179 0.50232 0.30061 0.0
C283 C 0.27385 0.52606 0.27064 0.0
C284 C 0.35646 0.53825 0.43925 0.0
C285 C 0.31673 0.52034 0.37559 0.0
C286 C 0.37769 0.53561 0.49238 0.0
C287 C 0.38122 0.51317 0.54129 0.0
C288 C 0.33884 0.51819 0.43398 0.0
C289 C 0.36264 0.4938 0.53687 0.0
C290 C 0.30323 0.49935 0.35346 0.0
C291 C 0.28817 0.54647 0.29227 0.0
N292 N 0.34231 0.49667 0.48337 0.0
N293 N 0.30896 0.54318 0.34354 0.0
H294 H 0.12317 0.26165 0.4823 0.0
H295 H 0.01473 0.37218 0.5137 0.0
H296 H 0.05296 0.26966 0.33647 0.0
H297 H 0.09147 0.37183 0.62995 0.0
H298 H 0.02868 0.33441 0.4492 0.0
H299 H 0.11282 0.30215 0.53664 0.0
C300 C 0.10589 0.27229 0.46078 0.0
C301 C 0.08894 0.26272 0.4048 0.0
C302 C 0.04256 0.3426 0.48855 0.0
C303 C 0.07659 0.30838 0.46705 0.0
C304 C 0.03462 0.36424 0.5253 0.0
C305 C 0.05202 0.37533 0.577 0.0
C306 C 0.06803 0.33173 0.50388 0.0
C307 C 0.07728 0.36381 0.59127 0.0
C308 C 0.09989 0.29523 0.49181 0.0
C309 C 0.0666 0.27677 0.37886 0.0
N310 N 0.08453 0.34262 0.55492 0.0
N311 N 0.06092 0.29884 0.4107 0.0
H312 H 0.81232 0.02587 0.14535 0.0
H313 H 0.91311 0.97317 0.7681 0.0
H314 H 0.78786 0.97037 0.98879 0.0
H315 H 0.94039 0.02185 0.94552 0.0
H316 H 0.86698 0.97231 0.84669 0.0
H317 H 0.85959 0.02445 0.07425 0.0
C318 C 0.8171 0.01314 0.09683 0.0
C319 C 0.79631 -0.00171 0.07248 0.0
C320 C 0.88307 0.98316 0.86847 0.0
C321 C 0.84998 0.99682 0.98951 0.0
C322 C 0.90941 0.98375 0.82332 0.0
C323 C 0.93072 0.99763 0.84998 0.0
C324 C 0.87789 0.99666 0.94068 0.0
C325 C 0.92466 0.01087 0.92243 0.0
C326 C 0.84396 0.01243 0.05574 0.0
C327 C 0.80335 0.98228 0.00852 0.0
N328 N 0.89887 0.0101 0.96498 0.0
N329 N 0.82951 0.98209 0.96883 0.0
H330 H 0.57879 0.74271 0.97481 0.0
H331 H 0.49352 0.86898 0.99251 0.0
H332 H 0.51067 0.75403 0.16321 0.0
H333 H 0.56371 0.85929 0.80802 0.0
H334 H 0.50023 0.82724 0.05752 0.0
H335 H 0.5749 0.78585 0.91516 0.0
C336 C 0.56325 0.75454 0.00388 0.0
C337 C 0.54499 0.74517 0.07343 0.0
C338 C 0.51421 0.83422 0.00289 0.0
C339 C 0.54008 0.79407 0.00607 0.0
C340 C 0.51044 0.85811 0.96583 0.0
C341 C 0.52815 0.86773 0.89481 0.0
C342 C 0.53583 0.8197 0.96873 0.0
C343 C 0.54939 0.85256 0.86209 0.0
C344 C 0.56092 0.77902 0.96997 0.0
C345 C 0.5251 0.76087 0.10958 0.0
N346 N 0.55266 0.82931 0.89938 0.0
N347 N 0.52304 0.78456 0.07515 0.0
H348 H 0.76713 0.51247 0.12711 0.0
H349 H 0.63122 0.4503 0.99012 0.0
H350 H 0.73477 0.44191 0.23641 0.0
H351 H 0.66473 0.5196 0.86937 0.0
H352 H 0.66861 0.4475 0.08264 0.0
H353 H 0.72855 0.51686 0.03701 0.0
C354 C 0.75137 0.49824 0.13313 0.0
C355 C 0.75353 0.477 0.18928 0.0
C356 C 0.66793 0.4633 0.0358 0.0
C357 C 0.71015 0.48133 0.08595 0.0
C358 C 0.64662 0.46487 0.98285 0.0
C359 C 0.64485 0.48528 0.92237 0.0
C360 C 0.68769 0.4823 0.0286 0.0
C361 C 0.66548 0.50349 0.91487 0.0
C362 C 0.72964 0.50054 0.08139 0.0
C363 C 0.7333 0.45865 0.19435 0.0
N364 N 0.68601 0.50166 0.96788 0.0
N365 N 0.71245 0.46117 0.14298 0.0
H366 H 0.90515 0.73207 0.98042 0.0
H367 H 0.0138 0.62159 0.94734 0.0
H368 H 0.97639 0.72479 0.12191 0.0
H369 H 0.93679 0.62194 0.83258 0.0
H370 H 1.0002 0.65963 0.01073 0.0
H371 H 0.91561 0.69163 0.92567 0.0
C372 C 0.92272 0.72162 0.00077 0.0
C373 C 0.93989 0.73136 0.05577 0.0
C374 C 0.9862 0.65138 0.97192 0.0
C375 C 0.95233 0.68575 0.99318 0.0
C376 C 0.99392 0.62959 0.93583 0.0
C377 C 0.97634 0.61843 0.88489 0.0
C378 C 0.96074 0.66231 0.95673 0.0
C379 C 0.95112 0.63001 0.87069 0.0
C380 C 0.92877 0.69872 0.96955 0.0
C381 C 0.96258 0.71755 0.0803 0.0
N382 N 0.94406 0.65134 0.90645 0.0
N383 N 0.96827 0.69549 0.04838 0.0
H384 H 0.02881 0.19243 0.47119 0.0
H385 H 0.02895 0.04583 0.45595 0.0
H386 H 0.09831 0.15194 0.36435 0.0
H387 H 0.98488 0.08204 0.66108 0.0
H388 H 0.04449 0.08645 0.38703 0.0
H389 H 0.00384 0.15328 0.51154 0.0
C390 C 0.03887 0.17521 0.45739 0.0
C391 C 0.06584 0.17515 0.41672 0.0
C392 C 0.03078 0.08546 0.44591 0.0
C393 C 0.03709 0.13075 0.45805 0.0
C394 C 0.02159 0.0624 0.48439 0.0
C395 C 0.00566 0.06079 0.56395 0.0
C396 C 0.02357 0.10682 0.48708 0.0
C397 C 0.99714 0.08267 0.59952 0.0
C398 C 0.02454 0.15302 0.47907 0.0
C399 C 0.07763 0.15256 0.39656 0.0
N400 N 0.00641 0.10485 0.56118 0.0
N401 N 0.06318 0.13118 0.41746 0.0
H402 H 0.34306 0.02352 0.32239 0.0
H403 H 0.44898 0.94598 0.59563 0.0
H404 H 0.32838 0.9481 0.42424 0.0
H405 H 0.46237 0.02135 0.48756 0.0
H406 H 0.40803 0.94398 0.51746 0.0
H407 H 0.38978 0.02103 0.36747 0.0
C408 C 0.34993 0.00642 0.35421 0.0
C409 C 0.33206 0.98614 0.3714 0.0
C410 C 0.4202 0.96082 0.50993 0.0
C411 C 0.38513 0.98297 0.4236 0.0
C412 C 0.44365 0.96191 0.5541 0.0
C413 C 0.45884 0.98398 0.54901 0.0
C414 C 0.412 0.98194 0.46057 0.0
C415 C 0.45102 0.00407 0.49436 0.0
C416 C 0.37649 0.00492 0.37987 0.0
C417 C 0.34163 0.96422 0.41191 0.0
N418 N 0.428 0.00265 0.45311 0.0
N419 N 0.36752 0.96325 0.43761 0.0
H420 H 0.54248 0.32855 0.39559 0.0
H421 H 0.49616 0.46695 0.46721 0.0
H422 H 0.46536 0.36088 0.33227 0.0
H423 H 0.56505 0.43186 0.58119 0.0
H424 H 0.49194 0.43148 0.38488 0.0
H425 H 0.55718 0.36882 0.43586 0.0
C426 C 0.52875 0.34423 0.39008 0.0
C427 C 0.50253 0.34152 0.36234 0.0
C428 C 0.5083 0.43165 0.42674 0.0
C429 C 0.51924 0.38744 0.40584 0.0
C430 C 0.51082 0.45196 0.47339 0.0
C431 C 0.53071 0.4521 0.53201 0.0
C432 C 0.52556 0.41117 0.43951 0.0
C433 C 0.54936 0.43237 0.53688 0.0
C434 C 0.53717 0.36715 0.4123 0.0
C435 C 0.48568 0.36235 0.35373 0.0
N436 N 0.54599 0.41239 0.49242 0.0
N437 N 0.49424 0.38441 0.37603 0.0
H438 H 0.17741 0.57702 0.27029 0.0
H439 H 0.0484 0.49095 0.43525 0.0
H440 H 0.1666 0.50239 0.20748 0.0
H441 H 0.06179 0.56179 0.52871 0.0
H442 H 0.0844 0.5007 0.31813 0.0
H443 H 0.12911 0.57705 0.33398 0.0
C444 C 0.16456 0.5609 0.26834 0.0
C445 C 0.17576 0.53964 0.2344 0.0
C446 C 0.07917 0.51436 0.36319 0.0
C447 C 0.12101 0.5394 0.30618 0.0
C448 C 0.05856 0.50881 0.42994 0.0
C449 C 0.05263 0.52537 0.49263 0.0
C450 C 0.09433 0.53641 0.36021 0.0
C451 C 0.06603 0.54841 0.48207 0.0
C452 C 0.13712 0.5609 0.30429 0.0
C453 C 0.15854 0.5192 0.23236 0.0
N454 N 0.0868 0.55304 0.4182 0.0
N455 N 0.13211 0.51947 0.26876 0.0
H456 H 0.92721 0.84161 0.10012 0.0
H457 H 0.0437 0.9128 0.79974 0.0
H458 H 0.99795 0.8033 0.99046 0.0
H459 H 0.9966 0.94775 0.00215 0.0
H460 H 0.02858 0.87236 0.86886 0.0
H461 H 0.9519 0.88101 0.06274 0.0
C462 C 0.94791 0.84164 0.06767 0.0
C463 C 0.96044 0.81944 0.04652 0.0
C464 C 0.02217 0.88881 0.89961 0.0
C465 C 0.98875 0.86404 0.00381 0.0
C466 C 0.03099 0.91182 0.86061 0.0
C467 C 0.02148 0.93345 0.89594 0.0
C468 C 0.00301 0.88757 0.97271 0.0
C469 C 0.00461 0.93139 0.9738 0.0
C470 C 0.96206 0.86397 0.0471 0.0
C471 C 0.98735 0.82019 0.0052 0.0
N472 N 0.9953 0.90879 0.00869 0.0
N473 N 1.00054 0.84219 0.9842 0.0
H474 H 0.6835 0.97218 0.13715 0.0
H475 H 0.57866 0.05097 0.86384 0.0
H476 H 0.69898 0.04768 0.03739 0.0
H477 H 0.56385 0.97601 0.97423 0.0
H478 H 0.61965 0.05255 0.94206 0.0
H479 H 0.6368 0.97524 0.09214 0.0
C480 C 0.67682 0.98943 0.1058 0.0
C481 C 0.6949 0.00956 0.08918 0.0
C482 C 0.60716 0.03591 0.95012 0.0
C483 C 0.64186 0.01338 0.03702 0.0
C484 C 0.58368 0.03506 0.90592 0.0
C485 C 0.56809 0.0132 0.91162 0.0
C486 C 0.61497 0.01475 9e-05 0.0
C487 C 0.57552 0.99312 0.96695 0.0
C488 C 0.65026 0.99125 0.08019 0.0
C489 C 0.68556 0.03166 0.04926 0.0
N490 N 0.59858 0.99429 0.00817 0.0
N491 N 0.65968 0.03295 0.02354 0.0
H492 H 0.48423 0.66878 0.0639 0.0
H493 H 0.53032 0.53032 0.99246 0.0
H494 H 0.5613 0.63634 0.1272 0.0
H495 H 0.46149 0.56548 0.87837 0.0
H496 H 0.53459 0.56578 0.07476 0.0
H497 H 0.46946 0.62853 0.02364 0.0
C498 C 0.49794 0.65308 0.0694 0.0
C499 C 0.52417 0.65575 0.09715 0.0
C500 C 0.51823 0.56563 0.03288 0.0
C501 C 0.50736 0.60986 0.05367 0.0
C502 C 0.51568 0.54532 0.98627 0.0
C503 C 0.49579 0.5452 0.92764 0.0
C504 C 0.501 0.58614 0.02006 0.0
C505 C 0.47717 0.56495 0.92272 0.0
C506 C 0.48948 0.63017 0.04719 0.0
C507 C 0.54097 0.63491 0.10576 0.0
N508 N 0.48057 0.58493 0.96714 0.0
N509 N 0.53238 0.61286 0.08347 0.0
H510 H 0.86159 0.49656 0.26094 0.0
H511 H 0.96584 0.43182 0.93625 0.0
H512 H 0.8482 0.42371 0.18519 0.0
H513 H 0.97902 0.50308 0.02683 0.0
H514 H 0.9288 0.4236 0.05263 0.0
H515 H 0.90985 0.49453 0.20331 0.0
C516 C 0.86912 0.47986 0.23394 0.0
C517 C 0.85108 0.46035 0.22696 0.0
C518 C 0.94027 0.44077 0.04831 0.0
C519 C 0.9059 0.45817 0.15738 0.0
C520 C 0.96151 0.44539 0.98221 0.0
C521 C 0.97495 0.4684 0.97093 0.0
C522 C 0.93257 0.45934 0.10279 0.0
C523 C 0.96867 0.48532 0.03222 0.0
C524 C 0.89661 0.47872 0.20039 0.0
C525 C 0.86157 0.43927 0.19006 0.0
N526 N 0.9476 0.48064 0.09459 0.0
N527 N 0.88825 0.43889 0.15502 0.0
H528 H 0.12578 0.18261 0.20633 0.0
H529 H 0.00958 0.09668 0.06597 0.0
H530 H 0.03869 0.19602 0.2534 0.0
H531 H 0.0948 0.09277 0.96105 0.0
H532 H 0.02065 0.13291 0.13642 0.0
H533 H 0.11593 0.15042 0.1126 0.0
C534 C 0.10467 0.17921 0.19425 0.0
C535 C 0.08293 0.19178 0.23639 0.0
C536 C 0.03695 0.12425 0.09765 0.0
C537 C 0.07137 0.15487 0.13305 0.0
C538 C 0.03064 0.10351 0.05735 0.0
C539 C 0.05124 0.09173 0.00687 0.0
C540 C 0.06416 0.13327 0.08839 0.0
C541 C 0.07831 0.10111 0.99995 0.0
C542 C 0.09899 0.16077 0.14189 0.0
C543 C 0.05584 0.18665 0.22104 0.0
N544 N 0.08401 0.12135 0.04037 0.0
N545 N 0.05076 0.16833 0.17148 0.0
H546 H 0.3279 0.95467 0.21291 0.0
H547 H 0.43129 0.03984 0.88221 0.0
H548 H 0.31518 0.03259 0.15766 0.0
H549 H 0.44122 0.96128 0.93949 0.0
H550 H 0.38793 0.03785 0.97704 0.0
H551 H 0.36802 0.95665 0.10518 0.0
C552 C 0.33329 0.97208 0.17606 0.0
C553 C 0.31807 0.99336 0.19247 0.0
C554 C 0.3996 0.02106 0.96864 0.0
C555 C 0.36446 0.99618 0.071 0.0
C556 C 0.42443 0.0222 0.91473 0.0
C557 C 0.44007 0.00071 0.90288 0.0
C558 C 0.39032 -0.00171 0.01109 0.0
C559 C 0.43001 0.97837 0.94656 0.0
C560 C 0.3563 0.97332 0.11524 0.0
C561 C 0.32614 0.0157 0.14505 0.0
N562 N 0.4059 0.97777 0.99851 0.0
N563 N 0.34893 0.01659 0.08677 0.0
H564 H 0.43964 0.33264 0.19641 0.0
H565 H 0.53858 0.42459 0.87941 0.0
H566 H 0.52839 0.33183 0.17848 0.0
H567 H 0.4499 0.43288 0.9065 0.0
H568 H 0.53406 0.38734 0.97631 0.0
H569 H 0.44175 0.36596 0.07848 0.0
C570 C 0.45951 0.33924 0.16602 0.0
C571 C 0.48392 0.32966 0.1958 0.0
C572 C 0.51549 0.39715 0.96119 0.0
C573 C 0.48662 0.36755 0.06319 0.0
C574 C 0.51804 0.41855 0.90568 0.0
C575 C 0.49457 0.43211 0.88541 0.0
C576 C 0.48926 0.38909 0.99778 0.0
C577 C 0.46853 0.42306 0.92078 0.0
C578 C 0.46075 0.35826 0.09955 0.0
C579 C 0.50924 0.33884 0.15639 0.0
N580 N 0.46656 0.40216 0.97601 0.0
N581 N 0.50995 0.35734 0.09235 0.0
H582 H 0.19103 0.5636 0.04856 0.0
H583 H 0.10356 0.4658 0.8356 0.0
H584 H 0.2081 0.48567 0.07033 0.0
H585 H 0.08702 0.54409 0.82858 0.0
H586 H 0.14605 0.47269 0.90246 0.0
H587 H 0.15784 0.5571 0.94591 0.0
C588 C 0.18815 0.54518 0.02954 0.0
C589 C 0.20211 0.52516 0.0671 0.0
C590 C 0.13322 0.48835 0.88541 0.0
C591 C 0.16363 0.51721 0.95233 0.0
C592 C 0.10898 0.48443 0.84735 0.0
C593 C 0.09153 0.50436 0.82752 0.0
C594 C 0.14002 0.51236 0.90323 0.0
C595 C 0.09961 0.52811 0.84376 0.0
C596 C 0.1691 0.54137 0.97167 0.0
C597 C 0.19775 0.50153 0.04163 0.0
N598 N 0.12311 0.53139 0.88101 0.0
N599 N 0.17848 0.49809 0.98666 0.0
H600 H 0.98937 0.79691 0.2087 0.0
H601 H 0.93096 0.90206 0.50328 0.0
H602 H 0.90261 0.81155 0.25752 0.0
H603 H 0.01598 0.89631 0.39824 0.0
H604 H 0.91979 0.86564 0.43158 0.0
H605 H 0.99939 0.8287 0.3025 0.0
C606 C 0.97246 0.80643 0.24177 0.0
C607 C 0.94524 0.80179 0.22664 0.0
C608 C 0.94088 0.87238 0.42459 0.0
C609 C 0.95623 0.83852 0.3312 0.0
C610 C 0.94723 0.89329 0.46474 0.0
C611 C 0.97448 0.90225 0.45703 0.0
C612 C 0.96196 0.86031 0.37689 0.0
C613 C 0.99479 0.88987 0.40735 0.0
C614 C 0.97808 0.82474 0.29414 0.0
C615 C 0.92382 0.81467 0.26902 0.0
N616 N 0.98812 0.86955 0.36944 0.0
N617 N 0.92976 0.83275 0.31895 0.0
H618 H 0.71222 0.96195 0.30148 0.0
H619 H 0.58512 0.03634 0.52088 0.0
H620 H 0.69861 0.03985 0.2491 0.0
H621 H 0.59602 0.95785 0.57696 0.0
H622 H 0.62805 0.03784 0.42688 0.0
H623 H 0.67192 0.95996 0.41025 0.0
C624 C 0.70114 0.97872 0.31498 0.0
C625 C 0.70887 0.00119 0.268 0.0
C626 C 0.62116 0.02025 0.45965 0.0
C627 C 0.66246 -0.00092 0.38948 0.0
C628 C 0.59651 0.01934 0.51341 0.0
C629 C 0.58677 0.99689 0.55698 0.0
C630 C 0.63645 -0.00146 0.44871 0.0
C631 C 0.60263 0.97555 0.54452 0.0
C632 C 0.678 0.97758 0.37603 0.0
C633 C 0.69342 0.02231 0.28524 0.0
N634 N 0.62666 0.97689 0.49147 0.0
N635 N 0.67094 0.02074 0.34417 0.0
H636 H 0.58708 0.66452 0.26308 0.0
H637 H 0.48806 0.57279 0.58068 0.0
H638 H 0.49834 0.66543 0.28106 0.0
H639 H 0.57671 0.56426 0.55288 0.0
H640 H 0.49263 0.61002 0.48363 0.0
H641 H 0.58495 0.63121 0.38101 0.0
C642 C 0.56721 0.65794 0.29348 0.0
C643 C 0.54281 0.66756 0.26372 0.0
C644 C 0.51118 0.60015 0.49863 0.0
C645 C 0.54007 0.62967 0.39634 0.0
C646 C 0.5086 0.57878 0.55424 0.0
C647 C 0.53205 0.56516 0.57435 0.0
C648 C 0.53741 0.60814 0.46182 0.0
C649 C 0.55809 0.57413 0.53874 0.0
C650 C 0.56595 0.63892 0.35994 0.0
C651 C 0.51748 0.6584 0.30314 0.0
N652 N 0.56009 0.59502 0.48344 0.0
N653 N 0.51675 0.6399 0.3672 0.0
H654 H 0.81766 0.5128 0.39853 0.0
H655 H 0.94047 0.44925 0.63687 0.0
H656 H 0.8367 0.43525 0.40854 0.0
H657 H 0.92441 0.52765 0.62756 0.0
H658 H 0.89805 0.44335 0.57169 0.0
H659 H 0.85146 0.51817 0.50191 0.0
C660 C 0.82836 0.49682 0.425 0.0
C661 C 0.8246 0.47356 0.39581 0.0
C662 C 0.9036 0.46186 0.5843 0.0
C663 C 0.86348 0.47947 0.51139 0.0
C664 C 0.92794 0.46526 0.62139 0.0
C665 C 0.93622 0.48904 0.63666 0.0
C666 C 0.88741 0.48239 0.56126 0.0
C667 C 0.9189 0.50902 0.61627 0.0
C668 C 0.84782 0.49987 0.483 0.0
C669 C 0.8392 0.45342 0.43 0.0
N670 N 0.89543 0.50528 0.57863 0.0
N671 N 0.85822 0.45687 0.48525 0.0
loop_
_geom_bond_atom_site_label_1
_geom_bond_atom_site_label_2
_geom_bond_distance
_geom_bond_site_symmetry_2
_ccdc_geom_bond_type
C0 N1 1.317 . S
C0 N2 1.348 . S
C0 C3 1.485 . S
N1 C0 1.317 . S
N1 N5 1.370 . S
N2 C0 1.348 . S
N2 C4 1.346 . S
C3 C0 1.485 . S
C3 H7 0.960 . S
C3 H8 0.961 . S
C3 H9 0.960 . S
C4 N2 1.346 . S
C4 N5 1.307 . S
C4 C6 1.484 1_554 S
N5 N1 1.370 . S
N5 C4 1.307 . S
C6 C4 1.484 1_556 S
C6 H10 0.960 . S
C6 H11 0.961 . S
C6 H12 0.959 . S
H7 C3 0.960 . S
H8 C3 0.961 . S
H9 C3 0.960 . S
H10 C6 0.960 . S
H11 C6 0.961 . S
H12 C6 0.959 . S
C13 N14 1.317 . S
C13 N15 1.348 1_554 S
C13 C16 1.485 . S
N14 C13 1.317 . S
N14 N18 1.370 1_554 S
N15 C13 1.348 1_556 S
N15 C17 1.346 . S
C16 C13 1.485 . S
C16 H20 0.960 . S
C16 H21 0.961 . S
C16 H22 0.960 . S
C17 N15 1.346 . S
C17 N18 1.307 . S
C17 C19 1.486 . S
N18 N14 1.370 1_556 S
N18 C17 1.307 . S
C19 C17 1.486 . S
C19 H23 0.960 . S
C19 H24 0.960 . S
C19 H25 0.959 . S
H20 C16 0.960 . S
H21 C16 0.961 . S
H22 C16 0.960 . S
H23 C19 0.960 . S
H24 C19 0.960 . S
H25 C19 0.959 . S
C26 N27 1.317 . S
C26 N28 1.347 . S
C26 C29 1.485 . S
N27 C26 1.317 . S
N27 N31 1.370 . S
N28 C26 1.347 . S
N28 C30 1.348 1_565 S
C29 C26 1.485 . S
C29 H33 0.960 1_565 S
C29 H34 0.961 . S
C29 H35 0.960 . S
C30 N28 1.348 1_545 S
C30 N31 1.307 1_545 S
C30 C32 1.489 1_554 S
N31 N27 1.370 . S
N31 C30 1.307 1_565 S
C32 C30 1.489 1_556 S
C32 H36 0.921 1_545 S
C32 H37 0.990 . S
C32 H38 0.966 . S
H33 C29 0.960 1_545 S
H34 C29 0.961 . S
H35 C29 0.960 . S
H36 C32 0.921 1_565 S
H37 C32 0.990 . S
H38 C32 0.966 . S
C39 N40 1.317 . S
C39 N41 1.348 . S
C39 C42 1.485 . S
N40 C39 1.317 . S
N40 N44 1.370 . S
N41 C39 1.348 . S
N41 C43 1.346 . S
C42 C39 1.485 . S
C42 H46 0.960 . S
C42 H47 0.961 . S
C42 H48 0.960 . S
C43 N41 1.346 . S
C43 N44 1.307 . S
C43 C45 1.486 1_554 S
N44 N40 1.370 . S
N44 C43 1.307 . S
C45 C43 1.486 1_556 S
C45 H49 0.960 . S
C45 H50 0.960 . S
C45 H51 0.959 . S
H46 C42 0.960 . S
H47 C42 0.961 . S
H48 C42 0.960 . S
H49 C45 0.960 . S
H50 C45 0.960 . S
H51 C45 0.959 . S
C52 N53 1.317 . S
C52 N54 1.348 . S
C52 C55 1.485 . S
N53 C52 1.317 . S
N53 N57 1.370 . S
N54 C52 1.348 . S
N54 C56 1.346 . S
C55 C52 1.485 . S
C55 H59 0.960 . S
C55 H60 0.961 . S
C55 H61 0.960 . S
C56 N54 1.346 . S
C56 N57 1.307 . S
C56 C58 1.486 . S
N57 N53 1.370 . S
N57 C56 1.307 . S
C58 C56 1.486 . S
C58 H62 0.960 . S
C58 H63 0.960 . S
C58 H64 0.959 . S
H59 C55 0.960 . S
H60 C55 0.961 . S
H61 C55 0.960 . S
H62 C58 0.960 . S
H63 C58 0.960 . S
H64 C58 0.959 . S
C65 N66 1.317 . S
C65 N67 1.348 . S
C65 C68 1.485 . S
N66 C65 1.317 . S
N66 N70 1.370 . S
N67 C65 1.348 . S
N67 C69 1.346 . S
C68 C65 1.485 . S
C68 H72 0.960 . S
C68 H73 0.961 . S
C68 H74 0.960 . S
C69 N67 1.346 . S
C69 N70 1.307 . S
C69 C71 1.486 . S
N70 N66 1.370 . S
N70 C69 1.307 . S
C71 C69 1.486 . S
C71 H75 0.960 . S
C71 H76 0.960 . S
C71 H77 0.959 . S
H72 C68 0.960 . S
H73 C68 0.961 . S
H74 C68 0.960 . S
H75 C71 0.960 . S
H76 C71 0.960 . S
H77 C71 0.959 . S
C78 N79 1.317 . S
C78 N80 1.352 . S
C78 C81 1.485 . S
N79 C78 1.317 . S
N79 N83 1.371 . S
N80 C78 1.352 . S
N80 C82 1.343 1_565 S
C81 C78 1.485 . S
C81 H85 0.960 1_565 S
C81 H86 0.961 . S
C81 H87 0.960 . S
C82 N80 1.343 1_545 S
C82 N83 1.306 1_545 S
C82 C84 1.487 . S
N83 N79 1.371 . S
N83 C82 1.306 1_565 S
C84 C82 1.487 . S
C84 H88 0.960 1_545 S
C84 H89 0.960 . S
C84 H90 0.959 . S
H85 C81 0.960 1_545 S
H86 C81 0.961 . S
H87 C81 0.960 . S
H88 C84 0.960 1_565 S
H89 C84 0.960 . S
H90 C84 0.959 . S
C91 N92 1.317 . S
C91 N93 1.348 . S
C91 C94 1.485 . S
N92 C91 1.317 . S
N92 N96 1.370 . S
N93 C91 1.348 . S
N93 C95 1.346 . S
C94 C91 1.485 . S
C94 H98 0.960 . S
C94 H99 0.961 . S
C94 H100 0.960 . S
C95 N93 1.346 . S
C95 N96 1.307 . S
C95 C97 1.486 . S
N96 N92 1.370 . S
N96 C95 1.307 . S
C97 C95 1.486 . S
C97 H101 0.960 . S
C97 H102 0.960 . S
C97 H103 0.959 . S
H98 C94 0.960 . S
H99 C94 0.961 . S
H100 C94 0.960 . S
H101 C97 0.960 . S
H102 C97 0.960 . S
H103 C97 0.959 . S
C104 O120 1.251 . S
C104 O122 1.254 . S
N105 C106 1.333 1_655 S
N105 C110 1.307 . S
N105 Zn111 2.020 1_655 S
C106 N105 1.333 1_455 S
C106 C107 1.380 1_455 S
C106 H124 0.952 . S
C107 C106 1.380 1_655 S
C107 C108 1.389 . S
C107 H134 0.950 1_655 S
C108 C107 1.389 . S
C108 C109 1.357 . S
C109 C108 1.357 . S
C109 C110 1.370 . S
C109 H135 0.950 . S
C110 N105 1.307 . S
C110 C109 1.370 . S
C110 H128 0.948 . S
Zn111 N105 2.020 1_455 S
Zn111 O120 2.039 . S
Zn111 O126 2.034 . S
Zn111 O130 2.025 1_565 S
Zn111 O132 2.024 1_455 S
C112 O131 1.246 . S
C112 O132 1.249 1_545 S
N113 C114 1.307 . S
N113 C115 1.333 . S
N113 Zn119 2.020 . S
C114 N113 1.307 . S
C114 C118 1.370 1_556 S
C114 H125 0.948 . S
C115 N113 1.333 . S
C115 C116 1.379 . S
C115 H123 0.952 . S
C116 C115 1.379 . S
C116 C117 1.390 1_556 S
C116 H136 0.949 . S
C117 C116 1.390 1_554 S
C117 C118 1.357 . S
C118 C114 1.370 1_554 S
C118 C117 1.357 . S
C118 H137 0.950 . S
Zn119 N113 2.020 . S
Zn119 O122 2.025 1_545 S
Zn119 O127 2.024 . S
Zn119 O129 2.039 . S
Zn119 O131 2.034 1_455 S
O120 C104 1.251 . S
O120 Zn111 2.039 . S
C121 O126 1.246 . S
C121 O127 1.249 1_565 S
O122 C104 1.254 . S
O122 Zn119 2.025 1_565 S
H123 C115 0.952 . S
H124 C106 0.952 . S
H125 C114 0.948 . S
O126 Zn111 2.034 . S
O126 C121 1.246 . S
O127 Zn119 2.024 . S
O127 C121 1.249 1_545 S
H128 C110 0.948 . S
O129 Zn119 2.039 . S
O129 C133 1.251 . S
O130 Zn111 2.025 1_545 S
O130 C133 1.254 . S
O131 C112 1.246 . S
O131 Zn119 2.034 1_655 S
O132 Zn111 2.024 1_655 S
O132 C112 1.249 1_565 S
C133 O129 1.251 . S
C133 O130 1.254 . S
H134 C107 0.950 1_455 S
H135 C109 0.950 . S
H136 C116 0.949 . S
H137 C118 0.950 . S
C138 O154 1.251 1_565 S
C138 O156 1.254 . S
N139 C140 1.333 . S
N139 C144 1.307 . S
N139 Zn145 2.020 . S
C140 N139 1.333 . S
C140 C141 1.379 . S
C140 H158 0.952 . S
C141 C140 1.379 . S
C141 C142 1.390 . S
C141 H168 0.949 . S
C142 C141 1.390 . S
C142 C143 1.357 . S
C143 C142 1.357 . S
C143 C144 1.370 . S
C143 H169 0.950 . S
C144 N139 1.307 . S
C144 C143 1.370 . S
C144 H162 0.948 . S
Zn145 N139 2.020 . S
Zn145 O154 2.039 . S
Zn145 O160 2.034 . S
Zn145 O164 2.025 . S
Zn145 O166 2.024 . S
C146 O165 1.246 1_545 S
C146 O166 1.249 . S
N147 C148 1.307 . S
N147 C149 1.333 . S
N147 Zn153 2.020 . S
C148 N147 1.307 . S
C148 C152 1.370 . S
C148 H159 0.948 . S
C149 N147 1.333 . S
C149 C150 1.379 . S
C149 H157 0.952 . S
C150 C149 1.379 . S
C150 C151 1.390 . S
C150 H170 0.949 . S
C151 C150 1.390 . S
C151 C152 1.357 . S
C152 C148 1.370 . S
C152 C151 1.357 . S
C152 H171 0.950 . S
Zn153 N147 2.020 . S
Zn153 O156 2.025 . S
Zn153 O161 2.024 . S
Zn153 O163 2.039 . S
Zn153 O165 2.034 . S
O154 C138 1.251 1_545 S
O154 Zn145 2.039 . S
C155 O160 1.246 1_565 S
C155 O161 1.249 . S
O156 C138 1.254 . S
O156 Zn153 2.025 . S
H157 C149 0.952 . S
H158 C140 0.952 . S
H159 C148 0.948 . S
O160 Zn145 2.034 . S
O160 C155 1.246 1_545 S
O161 Zn153 2.024 . S
O161 C155 1.249 . S
H162 C144 0.948 . S
O163 Zn153 2.039 . S
O163 C167 1.251 1_565 S
O164 Zn145 2.025 . S
O164 C167 1.254 . S
O165 C146 1.246 1_565 S
O165 Zn153 2.034 . S
O166 Zn145 2.024 . S
O166 C146 1.249 . S
C167 O163 1.251 1_545 S
C167 O164 1.254 . S
H168 C141 0.949 . S
H169 C143 0.950 . S
H170 C150 0.949 . S
H171 C152 0.950 . S
C172 O188 1.251 . S
C172 O190 1.254 . S
N173 C174 1.333 . S
N173 C178 1.307 . S
N173 Zn179 2.020 . S
C174 N173 1.333 . S
C174 C175 1.379 . S
C174 H192 0.952 . S
C175 C174 1.379 . S
C175 C176 1.390 . S
C175 H202 0.949 . S
C176 C175 1.390 . S
C176 C177 1.357 . S
C177 C176 1.357 . S
C177 C178 1.370 . S
C177 H203 0.950 . S
C178 N173 1.307 . S
C178 C177 1.370 . S
C178 H196 0.948 . S
Zn179 N173 2.020 . S
Zn179 O188 2.039 . S
Zn179 O194 2.034 . S
Zn179 O198 2.025 . S
Zn179 O200 2.024 . S
C180 O199 1.246 . S
C180 O200 1.249 . S
N181 C182 1.307 . S
N181 C183 1.333 . S
N181 Zn187 2.020 . S
C182 N181 1.307 . S
C182 C186 1.370 . S
C182 H193 0.948 . S
C183 N181 1.333 . S
C183 C184 1.379 . S
C183 H191 0.952 . S
C184 C183 1.379 . S
C184 C185 1.390 . S
C184 H204 0.949 . S
C185 C184 1.390 . S
C185 C186 1.357 . S
C186 C182 1.370 . S
C186 C185 1.357 . S
C186 H205 0.950 . S
Zn187 N181 2.020 . S
Zn187 O190 2.025 . S
Zn187 O195 2.024 . S
Zn187 O197 2.039 . S
Zn187 O199 2.034 . S
O188 C172 1.251 . S
O188 Zn179 2.039 . S
C189 O194 1.246 . S
C189 O195 1.249 . S
O190 C172 1.254 . S
O190 Zn187 2.025 . S
H191 C183 0.952 . S
H192 C174 0.952 . S
H193 C182 0.948 . S
O194 Zn179 2.034 . S
O194 C189 1.246 . S
O195 Zn187 2.024 . S
O195 C189 1.249 . S
H196 C178 0.948 . S
O197 Zn187 2.039 . S
O197 C201 1.251 . S
O198 Zn179 2.025 . S
O198 C201 1.254 . S
O199 C180 1.246 . S
O199 Zn187 2.034 . S
O200 Zn179 2.024 . S
O200 C180 1.249 . S
C201 O197 1.251 . S
C201 O198 1.254 . S
H202 C175 0.949 . S
H203 C177 0.950 . S
H204 C184 0.949 . S
H205 C186 0.950 . S
C206 O222 1.251 . S
C206 O224 1.254 . S
N207 C208 1.333 . S
N207 C212 1.307 . S
N207 Zn213 2.020 . S
C208 N207 1.333 . S
C208 C209 1.379 . S
C208 H226 0.952 . S
C209 C208 1.379 . S
C209 C210 1.390 . S
C209 H236 0.949 . S
C210 C209 1.390 . S
C210 C211 1.357 . S
C211 C210 1.357 . S
C211 C212 1.370 . S
C211 H237 0.950 . S
C212 N207 1.307 . S
C212 C211 1.370 . S
C212 H230 0.948 . S
Zn213 N207 2.020 . S
Zn213 O222 2.039 . S
Zn213 O228 2.034 1_455 S
Zn213 O232 2.025 1_455 S
Zn213 O234 2.024 . S
C214 O233 1.246 . S
C214 O234 1.249 . S
N215 C216 1.307 . S
N215 C217 1.333 1_455 S
N215 Zn221 2.020 . S
C216 N215 1.307 . S
C216 C220 1.370 . S
C216 H227 0.948 . S
C217 N215 1.333 1_655 S
C217 C218 1.379 . S
C217 H225 0.952 . S
C218 C217 1.379 . S
C218 C219 1.380 1_655 S
C218 H238 0.949 . S
C219 C218 1.380 1_455 S
C219 C220 1.368 . S
C220 C216 1.370 . S
C220 C219 1.368 . S
C220 H239 0.950 . S
Zn221 N215 2.020 . S
Zn221 O224 2.025 . S
Zn221 O229 2.024 1_455 S
Zn221 O231 2.039 1_455 S
Zn221 O233 2.034 . S
O222 C206 1.251 . S
O222 Zn213 2.039 . S
C223 O228 1.246 . S
C223 O229 1.249 . S
O224 C206 1.254 . S
O224 Zn221 2.025 . S
H225 C217 0.952 . S
H226 C208 0.952 . S
H227 C216 0.948 . S
O228 Zn213 2.034 1_655 S
O228 C223 1.246 . S
O229 Zn221 2.024 1_655 S
O229 C223 1.249 . S
H230 C212 0.948 . S
O231 Zn221 2.039 1_655 S
O231 C235 1.251 . S
O232 Zn213 2.025 1_655 S
O232 C235 1.254 . S
O233 C214 1.246 . S
O233 Zn221 2.034 . S
O234 Zn213 2.024 . S
O234 C214 1.249 . S
C235 O231 1.251 . S
C235 O232 1.254 . S
H236 C209 0.949 . S
H237 C211 0.950 . S
H238 C218 0.949 . S
H239 C220 0.950 . S
H240 C246 0.930 . S
H241 C250 0.930 . S
H242 C255 0.929 . S
H243 C253 0.929 . S
H244 C248 0.929 . S
H245 C254 0.929 . S
C246 H240 0.930 . S
C246 C247 1.381 . S
C246 C254 1.378 . S
C247 C246 1.381 . S
C247 C255 1.419 1_565 S
C248 H244 0.929 . S
C248 C250 1.378 . S
C248 C252 1.350 1_545 S
C249 C252 1.463 . S
C249 C254 1.350 . S
C249 N257 1.427 1_565 S
C250 H241 0.930 . S
C250 C248 1.378 . S
C250 C251 1.367 1_545 S
C251 C250 1.367 1_565 S
C251 C253 1.433 . S
C252 C248 1.350 1_565 S
C252 C249 1.463 . S
C252 N256 1.427 . S
C253 H243 0.929 . S
C253 C251 1.433 . S
C253 N256 1.384 . S
C254 H245 0.929 . S
C254 C246 1.378 . S
C254 C249 1.350 . S
C255 H242 0.929 . S
C255 C247 1.419 1_545 S
C255 N257 1.384 . S
N256 C252 1.427 . S
N256 C253 1.384 . S
N257 C249 1.427 1_545 S
N257 C255 1.384 . S
H258 C264 0.930 . S
H259 C268 0.930 . S
H260 C273 0.929 . S
H261 C271 0.929 . S
H262 C266 0.929 . S
H263 C272 0.929 . S
C264 H258 0.930 . S
C264 C265 1.367 . S
C264 C272 1.378 . S
C265 C264 1.367 . S
C265 C273 1.433 . S
C266 H262 0.929 . S
C266 C268 1.378 . S
C266 C270 1.350 . S
C267 C270 1.463 . S
C267 C272 1.350 . S
C267 N275 1.427 . S
C268 H259 0.930 . S
C268 C266 1.378 . S
C268 C269 1.367 . S
C269 C268 1.367 . S
C269 C271 1.433 . S
C270 C266 1.350 . S
C270 C267 1.463 . S
C270 N274 1.427 . S
C271 H261 0.929 . S
C271 C269 1.433 . S
C271 N274 1.384 . S
C272 H263 0.929 . S
C272 C264 1.378 . S
C272 C267 1.350 . S
C273 H260 0.929 . S
C273 C265 1.433 . S
C273 N275 1.384 . S
N274 C270 1.427 . S
N274 C271 1.384 . S
N275 C267 1.427 . S
N275 C273 1.384 . S
H276 C282 0.930 . S
H277 C286 0.930 . S
H278 C291 0.929 . S
H279 C289 0.929 . S
H280 C284 0.929 . S
H281 C290 0.929 . S
C282 H276 0.930 . S
C282 C283 1.367 . S
C282 C290 1.378 . S
C283 C282 1.367 . S
C283 C291 1.433 . S
C284 H280 0.929 . S
C284 C286 1.378 . S
C284 C288 1.350 . S
C285 C288 1.463 . S
C285 C290 1.350 . S
C285 N293 1.427 . S
C286 H277 0.930 . S
C286 C284 1.378 . S
C286 C287 1.367 . S
C287 C286 1.367 . S
C287 C289 1.433 . S
C288 C284 1.350 . S
C288 C285 1.463 . S
C288 N292 1.427 . S
C289 H279 0.929 . S
C289 C287 1.433 . S
C289 N292 1.384 . S
C290 H281 0.929 . S
C290 C282 1.378 . S
C290 C285 1.350 . S
C291 H278 0.929 . S
C291 C283 1.433 . S
C291 N293 1.384 . S
N292 C288 1.427 . S
N292 C289 1.384 . S
N293 C285 1.427 . S
N293 C291 1.384 . S
H294 C300 0.930 . S
H295 C304 0.930 1_655 S
H296 C309 0.929 . S
H297 C307 0.929 . S
H298 C302 0.929 1_655 S
H299 C308 0.929 . S
C300 H294 0.930 . S
C300 C301 1.367 . S
C300 C308 1.378 . S
C301 C300 1.367 . S
C301 C309 1.433 . S
C302 H298 0.929 1_455 S
C302 C304 1.378 . S
C302 C306 1.350 . S
C303 C306 1.463 . S
C303 C308 1.350 . S
C303 N311 1.427 . S
C304 H295 0.930 1_455 S
C304 C302 1.378 . S
C304 C305 1.367 . S
C305 C304 1.367 . S
C305 C307 1.433 . S
C306 C302 1.350 . S
C306 C303 1.463 . S
C306 N310 1.427 . S
C307 H297 0.929 . S
C307 C305 1.433 . S
C307 N310 1.384 . S
C308 H299 0.929 . S
C308 C300 1.378 . S
C308 C303 1.350 . S
C309 H296 0.929 . S
C309 C301 1.433 . S
C309 N311 1.384 . S
N310 C306 1.427 . S
N310 C307 1.384 . S
N311 C303 1.427 . S
N311 C309 1.384 . S
H312 C318 0.930 . S
H313 C322 0.930 . S
H314 C327 0.929 . S
H315 C325 0.929 . S
H316 C320 0.929 . S
H317 C326 0.930 . S
C318 H312 0.930 . S
C318 C319 1.402 . S
C318 C326 1.380 . S
C319 C318 1.402 . S
C319 C327 1.397 1_544 S
C320 H316 0.929 . S
C320 C322 1.378 . S
C320 C324 1.350 1_565 S
C321 C324 1.463 . S
C321 C326 1.346 1_556 S
C321 N329 1.427 1_545 S
C322 H313 0.930 . S
C322 C320 1.378 . S
C322 C323 1.367 1_565 S
C323 C322 1.367 1_545 S
C323 C325 1.433 . S
C324 C320 1.350 1_545 S
C324 C321 1.463 . S
C324 N328 1.427 . S
C325 H315 0.929 . S
C325 C323 1.433 . S
C325 N328 1.384 . S
C326 H317 0.930 . S
C326 C318 1.380 . S
C326 C321 1.346 1_554 S
C327 H314 0.929 . S
C327 C319 1.397 1_566 S
C327 N329 1.384 . S
N328 C324 1.427 . S
N328 C325 1.384 . S
N329 C321 1.427 1_565 S
N329 C327 1.384 . S
H330 C336 0.930 . S
H331 C340 0.930 . S
H332 C345 0.929 . S
H333 C343 0.929 . S
H334 C338 0.929 1_554 S
H335 C344 0.929 . S
C336 H330 0.930 . S
C336 C337 1.367 1_556 S
C336 C344 1.378 . S
C337 C336 1.367 1_554 S
C337 C345 1.433 . S
C338 H334 0.929 1_556 S
C338 C340 1.378 . S
C338 C342 1.350 . S
C339 C342 1.463 . S
C339 C344 1.350 . S
C339 N347 1.427 1_556 S
C340 H331 0.930 . S
C340 C338 1.378 . S
C340 C341 1.367 . S
C341 C340 1.367 . S
C341 C343 1.433 . S
C342 C338 1.350 . S
C342 C339 1.463 . S
C342 N346 1.427 . S
C343 H333 0.929 . S
C343 C341 1.433 . S
C343 N346 1.384 . S
C344 H335 0.929 . S
C344 C336 1.378 . S
C344 C339 1.350 . S
C345 H332 0.929 . S
C345 C337 1.433 . S
C345 N347 1.384 . S
N346 C342 1.427 . S
N346 C343 1.384 . S
N347 C339 1.427 1_554 S
N347 C345 1.384 . S
H348 C354 0.930 . S
H349 C358 0.930 . S
H350 C363 0.929 . S
H351 C361 0.929 . S
H352 C356 0.929 . S
H353 C362 0.929 . S
C354 H348 0.930 . S
C354 C355 1.367 . S
C354 C362 1.378 . S
C355 C354 1.367 . S
C355 C363 1.433 . S
C356 H352 0.929 . S
C356 C358 1.378 . S
C356 C360 1.350 . S
C357 C360 1.463 1_554 S
C357 C362 1.350 . S
C357 N365 1.427 . S
C358 H349 0.930 . S
C358 C356 1.378 . S
C358 C359 1.367 . S
C359 C358 1.367 . S
C359 C361 1.433 . S
C360 C356 1.350 . S
C360 C357 1.463 1_556 S
C360 N364 1.427 . S
C361 H351 0.929 . S
C361 C359 1.433 . S
C361 N364 1.384 . S
C362 H353 0.929 . S
C362 C354 1.378 . S
C362 C357 1.350 . S
C363 H350 0.929 . S
C363 C355 1.433 . S
C363 N365 1.384 . S
N364 C360 1.427 . S
N364 C361 1.384 . S
N365 C357 1.427 . S
N365 C363 1.384 . S
H366 C372 0.930 . S
H367 C376 0.925 1_455 S
H368 C381 0.929 . S
H369 C379 0.929 . S
H370 C374 0.929 . S
H371 C380 0.929 . S
C372 H366 0.930 . S
C372 C373 1.367 . S
C372 C380 1.378 . S
C373 C372 1.367 . S
C373 C381 1.433 1_556 S
C374 H370 0.929 . S
C374 C376 1.378 . S
C374 C378 1.350 . S
C375 C378 1.463 . S
C375 C380 1.350 . S
C375 N383 1.427 . S
C376 H367 0.925 1_655 S
C376 C374 1.378 . S
C376 C377 1.367 . S
C377 C376 1.367 . S
C377 C379 1.433 . S
C378 C374 1.350 . S
C378 C375 1.463 . S
C378 N382 1.427 . S
C379 H369 0.929 . S
C379 C377 1.433 . S
C379 N382 1.384 . S
C380 H371 0.929 . S
C380 C372 1.378 . S
C380 C375 1.350 . S
C381 H368 0.929 . S
C381 C373 1.433 1_554 S
C381 N383 1.384 1_554 S
N382 C378 1.427 . S
N382 C379 1.384 . S
N383 C375 1.427 . S
N383 C381 1.384 1_556 S
H384 C390 0.930 . S
H385 C394 0.930 . S
H386 C399 0.929 . S
H387 C397 0.929 1_655 S
H388 C392 0.929 . S
H389 C398 0.929 . S
C390 H384 0.930 . S
C390 C391 1.367 . S
C390 C398 1.378 . S
C391 C390 1.367 . S
C391 C399 1.433 . S
C392 H388 0.929 . S
C392 C394 1.378 . S
C392 C396 1.350 . S
C393 C396 1.463 . S
C393 C398 1.350 . S
C393 N401 1.427 . S
C394 H385 0.930 . S
C394 C392 1.378 . S
C394 C395 1.367 . S
C395 C394 1.367 . S
C395 C397 1.433 . S
C396 C392 1.350 . S
C396 C393 1.463 . S
C396 N400 1.427 . S
C397 H387 0.929 1_455 S
C397 C395 1.433 . S
C397 N400 1.384 . S
C398 H389 0.929 . S
C398 C390 1.378 . S
C398 C393 1.350 . S
C399 H386 0.929 . S
C399 C391 1.433 . S
C399 N401 1.384 . S
N400 C396 1.427 . S
N400 C397 1.384 . S
N401 C393 1.427 . S
N401 C399 1.384 . S
H402 C408 0.930 . S
H403 C412 0.930 . S
H404 C417 0.929 . S
H405 C415 0.929 . S
H406 C410 0.929 . S
H407 C416 0.929 . S
C408 H402 0.930 . S
C408 C409 1.372 . S
C408 C416 1.378 . S
C409 C408 1.372 . S
C409 C417 1.428 1_545 S
C410 H406 0.929 . S
C410 C412 1.378 . S
C410 C414 1.350 . S
C411 C414 1.463 . S
C411 C416 1.350 1_565 S
C411 N419 1.427 . S
C412 H403 0.930 . S
C412 C410 1.378 . S
C412 C413 1.367 . S
C413 C412 1.367 . S
C413 C415 1.433 1_565 S
C414 C410 1.350 . S
C414 C411 1.463 . S
C414 N418 1.427 1_565 S
C415 H405 0.929 . S
C415 C413 1.433 1_545 S
C415 N418 1.384 . S
C416 H407 0.929 . S
C416 C408 1.378 . S
C416 C411 1.350 1_545 S
C417 H404 0.929 . S
C417 C409 1.428 1_565 S
C417 N419 1.384 . S
N418 C414 1.427 1_545 S
N418 C415 1.384 . S
N419 C411 1.427 . S
N419 C417 1.384 . S
H420 C426 0.930 . S
H421 C430 0.930 . S
H422 C435 0.929 . S
H423 C433 0.929 . S
H424 C428 0.929 . S
H425 C434 0.929 . S
C426 H420 0.930 . S
C426 C427 1.367 . S
C426 C434 1.378 . S
C427 C426 1.367 . S
C427 C435 1.433 . S
C428 H424 0.929 . S
C428 C430 1.378 . S
C428 C432 1.350 . S
C429 C432 1.463 . S
C429 C434 1.350 . S
C429 N437 1.427 . S
C430 H421 0.930 . S
C430 C428 1.378 . S
C430 C431 1.367 . S
C431 C430 1.367 . S
C431 C433 1.433 . S
C432 C428 1.350 . S
C432 C429 1.463 . S
C432 N436 1.427 . S
C433 H423 0.929 . S
C433 C431 1.433 . S
C433 N436 1.384 . S
C434 H425 0.929 . S
C434 C426 1.378 . S
C434 C429 1.350 . S
C435 H422 0.929 . S
C435 C427 1.433 . S
C435 N437 1.384 . S
N436 C432 1.427 . S
N436 C433 1.384 . S
N437 C429 1.427 . S
N437 C435 1.384 . S
H438 C444 0.930 . S
H439 C448 0.930 . S
H440 C453 0.929 . S
H441 C451 0.929 . S
H442 C446 0.929 . S
H443 C452 0.929 . S
C444 H438 0.930 . S
C444 C445 1.367 . S
C444 C452 1.378 . S
C445 C444 1.367 . S
C445 C453 1.433 . S
C446 H442 0.929 . S
C446 C448 1.378 . S
C446 C450 1.350 . S
C447 C450 1.463 . S
C447 C452 1.350 . S
C447 N455 1.427 . S
C448 H439 0.930 . S
C448 C446 1.378 . S
C448 C449 1.367 . S
C449 C448 1.367 . S
C449 C451 1.433 . S
C450 C446 1.350 . S
C450 C447 1.463 . S
C450 N454 1.427 . S
C451 H441 0.929 . S
C451 C449 1.433 . S
C451 N454 1.384 . S
C452 H443 0.929 . S
C452 C444 1.378 . S
C452 C447 1.350 . S
C453 H440 0.929 . S
C453 C445 1.433 . S
C453 N455 1.384 . S
N454 C450 1.427 . S
N454 C451 1.384 . S
N455 C447 1.427 . S
N455 C453 1.384 . S
H456 C462 0.930 . S
H457 C466 0.930 . S
H458 C471 0.929 . S
H459 C469 0.929 . S
H460 C464 0.929 . S
H461 C470 0.929 . S
C462 H456 0.930 . S
C462 C463 1.367 . S
C462 C470 1.378 . S
C463 C462 1.367 . S
C463 C471 1.433 1_556 S
C464 H460 0.929 . S
C464 C466 1.378 . S
C464 C468 1.350 1_455 S
C465 C468 1.463 . S
C465 C470 1.350 . S
C465 N473 1.427 . S
C466 H457 0.930 . S
C466 C464 1.378 . S
C466 C467 1.367 . S
C467 C466 1.367 . S
C467 C469 1.433 1_455 S
C468 C464 1.350 1_655 S
C468 C465 1.463 . S
C468 N472 1.427 . S
C469 H459 0.929 . S
C469 C467 1.433 1_655 S
C469 N472 1.384 . S
C470 H461 0.929 . S
C470 C462 1.378 . S
C470 C465 1.350 . S
C471 H458 0.929 . S
C471 C463 1.433 1_554 S
C471 N473 1.384 1_554 S
N472 C468 1.427 . S
N472 C469 1.384 . S
N473 C465 1.427 . S
N473 C471 1.384 1_556 S
H474 C480 0.930 . S
H475 C484 0.930 . S
H476 C489 0.929 . S
H477 C487 0.929 . S
H478 C482 0.929 . S
H479 C488 0.929 . S
C480 H474 0.930 . S
C480 C481 1.368 . S
C480 C488 1.378 . S
C481 C480 1.368 . S
C481 C489 1.432 1_564 S
C482 H478 0.929 . S
C482 C484 1.378 . S
C482 C486 1.350 . S
C483 C486 1.463 . S
C483 C488 1.350 1_546 S
C483 N491 1.427 . S
C484 H475 0.930 . S
C484 C482 1.378 . S
C484 C485 1.367 . S
C485 C484 1.367 . S
C485 C487 1.433 1_545 S
C486 C482 1.350 . S
C486 C483 1.463 . S
C486 N490 1.427 1_545 S
C487 H477 0.929 . S
C487 C485 1.433 1_565 S
C487 N490 1.384 . S
C488 H479 0.929 . S
C488 C480 1.378 . S
C488 C483 1.350 1_564 S
C489 H476 0.929 . S
C489 C481 1.432 1_546 S
C489 N491 1.384 . S
N490 C486 1.427 1_565 S
N490 C487 1.384 . S
N491 C483 1.427 . S
N491 C489 1.384 . S
H492 C498 0.930 . S
H493 C502 0.930 . S
H494 C507 0.929 . S
H495 C505 0.929 . S
H496 C500 0.929 . S
H497 C506 0.929 . S
C498 H492 0.930 . S
C498 C499 1.367 1_556 S
C498 C506 1.378 . S
C499 C498 1.367 1_554 S
C499 C507 1.433 . S
C500 H496 0.929 . S
C500 C502 1.378 . S
C500 C504 1.350 . S
C501 C504 1.463 . S
C501 C506 1.350 . S
C501 N509 1.427 1_556 S
C502 H493 0.930 . S
C502 C500 1.378 . S
C502 C503 1.367 . S
C503 C502 1.367 . S
C503 C505 1.433 . S
C504 C500 1.350 . S
C504 C501 1.463 . S
C504 N508 1.427 . S
C505 H495 0.929 . S
C505 C503 1.433 . S
C505 N508 1.384 . S
C506 H497 0.929 . S
C506 C498 1.378 . S
C506 C501 1.350 . S
C507 H494 0.929 . S
C507 C499 1.433 . S
C507 N509 1.384 . S
N508 C504 1.427 . S
N508 C505 1.384 . S
N509 C501 1.427 1_554 S
N509 C507 1.384 . S
H510 C516 0.930 . S
H511 C520 0.930 . S
H512 C525 0.929 . S
H513 C523 0.929 . S
H514 C518 0.929 1_554 S
H515 C524 0.933 . S
C516 H510 0.930 . S
C516 C517 1.367 . S
C516 C524 1.375 1_554 S
C517 C516 1.367 . S
C517 C525 1.433 . S
C518 H514 0.929 1_556 S
C518 C520 1.378 . S
C518 C522 1.350 . S
C519 C522 1.463 1_554 S
C519 C524 1.349 1_554 S
C519 N527 1.427 . S
C520 H511 0.930 . S
C520 C518 1.378 . S
C520 C521 1.367 . S
C521 C520 1.367 . S
C521 C523 1.433 . S
C522 C518 1.350 . S
C522 C519 1.463 1_556 S
C522 N526 1.427 . S
C523 H513 0.929 . S
C523 C521 1.433 . S
C523 N526 1.384 . S
C524 H515 0.933 . S
C524 C516 1.375 1_556 S
C524 C519 1.349 1_556 S
C525 H512 0.929 . S
C525 C517 1.433 . S
C525 N527 1.384 . S
N526 C522 1.427 . S
N526 C523 1.384 . S
N527 C519 1.427 . S
N527 C525 1.384 . S
H528 C534 0.930 . S
H529 C538 0.930 . S
H530 C543 0.929 . S
H531 C541 0.929 . S
H532 C536 0.929 . S
H533 C542 0.929 . S
C534 H528 0.930 . S
C534 C535 1.367 . S
C534 C542 1.378 . S
C535 C534 1.367 . S
C535 C543 1.433 . S
C536 H532 0.929 . S
C536 C538 1.378 . S
C536 C540 1.350 . S
C537 C540 1.463 . S
C537 C542 1.350 . S
C537 N545 1.427 . S
C538 H529 0.930 . S
C538 C536 1.378 . S
C538 C539 1.367 . S
C539 C538 1.367 . S
C539 C541 1.433 . S
C540 C536 1.350 . S
C540 C537 1.463 . S
C540 N544 1.427 . S
C541 H531 0.929 . S
C541 C539 1.433 . S
C541 N544 1.384 . S
C542 H533 0.929 . S
C542 C534 1.378 . S
C542 C537 1.350 . S
C543 H530 0.929 . S
C543 C535 1.433 . S
C543 N545 1.384 . S
N544 C540 1.427 . S
N544 C541 1.384 . S
N545 C537 1.427 . S
N545 C543 1.384 . S
H546 C552 0.930 . S
H547 C556 0.930 . S
H548 C561 0.929 . S
H549 C559 0.929 . S
H550 C554 0.929 . S
H551 C560 0.929 . S
C552 H546 0.930 . S
C552 C553 1.370 1_565 S
C552 C560 1.378 . S
C553 C552 1.370 1_545 S
C553 C561 1.430 . S
C554 H550 0.929 . S
C554 C556 1.378 1_554 S
C554 C558 1.350 . S
C555 C558 1.463 . S
C555 C560 1.350 1_545 S
C555 N563 1.427 . S
C556 H547 0.930 . S
C556 C554 1.378 1_556 S
C556 C557 1.367 . S
C557 C556 1.367 . S
C557 C559 1.433 1_545 S
C558 C554 1.350 . S
C558 C555 1.463 . S
C558 N562 1.427 1_545 S
C559 H549 0.929 . S
C559 C557 1.433 1_565 S
C559 N562 1.384 1_556 S
C560 H551 0.929 . S
C560 C552 1.378 . S
C560 C555 1.350 1_565 S
C561 H548 0.929 . S
C561 C553 1.430 . S
C561 N563 1.384 . S
N562 C558 1.427 1_565 S
N562 C559 1.384 1_554 S
N563 C555 1.427 . S
N563 C561 1.384 . S
H564 C570 0.930 . S
H565 C574 0.930 . S
H566 C579 0.929 . S
H567 C577 0.929 . S
H568 C572 0.929 . S
H569 C578 0.929 . S
C570 H564 0.930 . S
C570 C571 1.367 . S
C570 C578 1.378 . S
C571 C570 1.367 . S
C571 C579 1.433 . S
C572 H568 0.929 . S
C572 C574 1.378 . S
C572 C576 1.350 . S
C573 C576 1.463 . S
C573 C578 1.350 . S
C573 N581 1.427 . S
C574 H565 0.930 . S
C574 C572 1.378 . S
C574 C575 1.367 1_554 S
C575 C574 1.367 1_556 S
C575 C577 1.433 . S
C576 C572 1.350 . S
C576 C573 1.463 . S
C576 N580 1.427 1_554 S
C577 H567 0.929 . S
C577 C575 1.433 . S
C577 N580 1.384 . S
C578 H569 0.929 . S
C578 C570 1.378 . S
C578 C573 1.350 . S
C579 H566 0.929 . S
C579 C571 1.433 . S
C579 N581 1.384 . S
N580 C576 1.427 1_556 S
N580 C577 1.384 . S
N581 C573 1.427 . S
N581 C579 1.384 . S
H582 C588 0.930 . S
H583 C592 0.930 . S
H584 C597 0.929 . S
H585 C595 0.929 . S
H586 C590 0.929 . S
H587 C596 0.929 . S
C588 H582 0.930 . S
C588 C589 1.367 . S
C588 C596 1.378 . S
C589 C588 1.367 . S
C589 C597 1.433 . S
C590 H586 0.929 . S
C590 C592 1.378 1_554 S
C590 C594 1.350 . S
C591 C594 1.463 . S
C591 C596 1.350 . S
C591 N599 1.427 . S
C592 H583 0.930 . S
C592 C590 1.378 1_556 S
C592 C593 1.367 . S
C593 C592 1.367 . S
C593 C595 1.433 . S
C594 C590 1.350 . S
C594 C591 1.463 . S
C594 N598 1.427 1_554 S
C595 H585 0.929 . S
C595 C593 1.433 . S
C595 N598 1.384 . S
C596 H587 0.929 . S
C596 C588 1.378 . S
C596 C591 1.350 . S
C597 H584 0.929 . S
C597 C589 1.433 . S
C597 N599 1.384 . S
N598 C594 1.427 1_556 S
N598 C595 1.384 . S
N599 C591 1.427 . S
N599 C597 1.384 . S
H600 C606 0.930 . S
H601 C610 0.930 . S
H602 C615 0.929 . S
H603 C613 0.929 1_455 S
H604 C608 0.929 . S
H605 C614 0.914 1_455 S
C606 H600 0.930 . S
C606 C607 1.367 . S
C606 C614 1.378 . S
C607 C606 1.367 . S
C607 C615 1.433 . S
C608 H604 0.929 . S
C608 C610 1.378 . S
C608 C612 1.350 . S
C609 C612 1.463 . S
C609 C614 1.350 . S
C609 N617 1.427 . S
C610 H601 0.930 . S
C610 C608 1.378 . S
C610 C611 1.367 . S
C611 C610 1.367 . S
C611 C613 1.433 . S
C612 C608 1.350 . S
C612 C609 1.463 . S
C612 N616 1.427 . S
C613 H603 0.929 1_655 S
C613 C611 1.433 . S
C613 N616 1.384 . S
C614 H605 0.914 1_655 S
C614 C606 1.378 . S
C614 C609 1.350 . S
C615 H602 0.929 . S
C615 C607 1.433 . S
C615 N617 1.384 . S
N616 C612 1.427 . S
N616 C613 1.384 . S
N617 C609 1.427 . S
N617 C615 1.384 . S
H618 C624 0.930 . S
H619 C628 0.930 . S
H620 C633 0.929 . S
H621 C631 0.929 . S
H622 C626 0.929 . S
H623 C632 0.929 . S
C624 H618 0.930 . S
C624 C625 1.379 . S
C624 C632 1.378 . S
C625 C624 1.379 . S
C625 C633 1.421 1_565 S
C626 H622 0.929 . S
C626 C628 1.378 . S
C626 C630 1.350 1_545 S
C627 C630 1.463 . S
C627 C632 1.350 . S
C627 N635 1.427 1_565 S
C628 H619 0.930 . S
C628 C626 1.378 . S
C628 C629 1.367 1_545 S
C629 C628 1.367 1_565 S
C629 C631 1.433 . S
C630 C626 1.350 1_565 S
C630 C627 1.463 . S
C630 N634 1.427 . S
C631 H621 0.929 . S
C631 C629 1.433 . S
C631 N634 1.384 . S
C632 H623 0.929 . S
C632 C624 1.378 . S
C632 C627 1.350 . S
C633 H620 0.929 . S
C633 C625 1.421 1_545 S
C633 N635 1.384 . S
N634 C630 1.427 . S
N634 C631 1.384 . S
N635 C627 1.427 1_545 S
N635 C633 1.384 . S
H636 C642 0.930 . S
H637 C646 0.930 . S
H638 C651 0.929 . S
H639 C649 0.929 . S
H640 C644 0.929 . S
H641 C650 0.929 . S
C642 H636 0.930 . S
C642 C643 1.367 . S
C642 C650 1.378 . S
C643 C642 1.367 . S
C643 C651 1.433 . S
C644 H640 0.929 . S
C644 C646 1.378 . S
C644 C648 1.350 . S
C645 C648 1.463 . S
C645 C650 1.350 . S
C645 N653 1.427 . S
C646 H637 0.930 . S
C646 C644 1.378 . S
C646 C647 1.367 . S
C647 C646 1.367 . S
C647 C649 1.433 . S
C648 C644 1.350 . S
C648 C645 1.463 . S
C648 N652 1.427 . S
C649 H639 0.929 . S
C649 C647 1.433 . S
C649 N652 1.384 . S
C650 H641 0.929 . S
C650 C642 1.378 . S
C650 C645 1.350 . S
C651 H638 0.929 . S
C651 C643 1.433 . S
C651 N653 1.384 . S
N652 C648 1.427 . S
N652 C649 1.384 . S
N653 C645 1.427 . S
N653 C651 1.384 . S
H654 C660 0.930 . S
H655 C664 0.930 . S
H656 C669 0.929 . S
H657 C667 0.929 . S
H658 C662 0.929 . S
H659 C668 0.929 . S
C660 H654 0.930 . S
C660 C661 1.367 . S
C660 C668 1.378 . S
C661 C660 1.367 . S
C661 C669 1.433 . S
C662 H658 0.929 . S
C662 C664 1.378 . S
C662 C666 1.350 . S
C663 C666 1.463 . S
C663 C668 1.350 . S
C663 N671 1.427 . S
C664 H655 0.930 . S
C664 C662 1.378 . S
C664 C665 1.367 . S
C665 C664 1.367 . S
C665 C667 1.433 . S
C666 C662 1.350 . S
C666 C663 1.463 . S
C666 N670 1.427 . S
C667 H657 0.929 . S
C667 C665 1.433 . S
C667 N670 1.384 . S
C668 H659 0.929 . S
C668 C660 1.378 . S
C668 C663 1.350 . S
C669 H656 0.929 . S
C669 C661 1.433 . S
C669 N671 1.384 . S
N670 C666 1.427 . S
N670 C667 1.384 . S
N671 C663 1.427 . S
N671 C669 1.384 . S
C247 N80 1.891 . S
C251 C121 1.899 . S
C269 C142 1.544 . S
C265 N93 1.533 . S
C287 C176 1.382 . S
C283 N54 1.376 . S
C305 C210 1.537 . S
C301 N67 1.533 . S
C323 C112 1.899 . S
C319 N28 1.893 1_545 S
C337 N41 1.541 . S
C341 C151 1.549 . S
C355 N2 1.373 . S
C359 C185 1.381 . S
C373 N15 1.535 . S
C377 C219 1.530 1_655 S
C395 C133 0.502 . S
C391 N70 0.496 . S
C413 C138 0.997 . S
C409 N83 0.994 1_545 S
C431 C172 0.909 . S
C427 N96 0.908 . S
C445 N57 0.421 . S
C449 C206 0.406 . S
C463 N18 0.508 . S
C467 C104 0.514 . S
C485 C167 0.993 . S
C481 N31 0.996 . S
C503 C201 0.907 . S
C499 N44 0.907 . S
C517 N5 0.414 . S
C521 C235 0.420 . S
C535 N66 1.341 . S
C539 C117 1.335 . S
C553 N79 1.749 1_545 S
C557 C146 1.755 . S
C575 C180 1.554 . S
C571 N92 1.553 . S
C593 C214 1.613 . S
C589 N53 1.608 . S
C607 N14 1.345 . S
C611 C108 1.344 . S
C629 C155 1.755 . S
C625 N27 1.752 . S
C647 C189 1.553 . S
C643 N40 1.553 . S
C661 N1 1.600 . S
C665 C223 1.612 . S
