# Generated by pormake.
# Topology anh, (6,3)-cn, num edge types: 1
# Building blocks:
#     Node 0, Type 0, BuildingBlock: BETDAH_clean_sbu_0, # of connection points: 6
#     Node 1, Type 0, BuildingBlock: BETDAH_clean_sbu_0, # of connection points: 6
#     Node 2, Type 0, BuildingBlock: BETDAH_clean_sbu_0, # of connection points: 6
#     Node 3, Type 1, BuildingBlock: BETDAH_clean_linker_0, # of connection points: 3
#     Node 4, Type 1, BuildingBlock: BETDAH_clean_linker_0, # of connection points: 3
#     Node 5, Type 1, BuildingBlock: BETDAH_clean_linker_0, # of connection points: 3
#     Node 6, Type 1, BuildingBlock: BETDAH_clean_linker_0, # of connection points: 3
#     Node 7, Type 1, BuildingBlock: BETDAH_clean_linker_0, # of connection points: 3
#     Node 8, Type 1, BuildingBlock: BETDAH_clean_linker_0, # of connection points: 3
#     Edge 9, Type (0, 1), BuildingBlock: XIVTED_clean_linker_0, # of connection points: 2
#     Edge 10, Type (0, 1), BuildingBlock: XIVTED_clean_linker_0, # of connection points: 2
#     Edge 11, Type (0, 1), BuildingBlock: XIVTED_clean_linker_0, # of connection points: 2
#     Edge 12, Type (0, 1), BuildingBlock: XIVTED_clean_linker_0, # of connection points: 2
#     Edge 13, Type (0, 1), BuildingBlock: XIVTED_clean_linker_0, # of connection points: 2
#     Edge 14, Type (0, 1), BuildingBlock: XIVTED_clean_linker_0, # of connection points: 2
#     Edge 15, Type (0, 1), BuildingBlock: XIVTED_clean_linker_0, # of connection points: 2
#     Edge 16, Type (0, 1), BuildingBlock: XIVTED_clean_linker_0, # of connection points: 2
#     Edge 17, Type (0, 1), BuildingBlock: XIVTED_clean_linker_0, # of connection points: 2
#     Edge 18, Type (0, 1), BuildingBlock: XIVTED_clean_linker_0, # of connection points: 2
#     Edge 19, Type (0, 1), BuildingBlock: XIVTED_clean_linker_0, # of connection points: 2
#     Edge 20, Type (0, 1), BuildingBlock: XIVTED_clean_linker_0, # of connection points: 2
#     Edge 21, Type (0, 1), BuildingBlock: XIVTED_clean_linker_0, # of connection points: 2
#     Edge 22, Type (0, 1), BuildingBlock: XIVTED_clean_linker_0, # of connection points: 2
#     Edge 23, Type (0, 1), BuildingBlock: XIVTED_clean_linker_0, # of connection points: 2
#     Edge 24, Type (0, 1), BuildingBlock: XIVTED_clean_linker_0, # of connection points: 2
#     Edge 25, Type (0, 1), BuildingBlock: XIVTED_clean_linker_0, # of connection points: 2
#     Edge 26, Type (0, 1), BuildingBlock: XIVTED_clean_linker_0, # of connection points: 2
# Relax obj value: 0.149
# Max RMSD: 0.185
# Mean RMSD: 0.111
data_MOF--net-anh--node1-BETDAH_clean_sbu_0--node2-BETDAH_clean_linker_0--edge1-XIVTED_clean_linker_0
_symmetry_space_group_name_H-M    P1
_symmetry_Int_Tables_number       1
_symmetry_cell_setting            triclinic
loop_
_symmetry_equiv_pos_as_xyz
'x, y, z'
_cell_length_a     30.650362
_cell_length_b     38.530252
_cell_length_c     49.138769
_cell_angle_alpha  93.882657
_cell_angle_beta   90.167489
_cell_angle_gamma 129.70785
loop_
_atom_site_label
_atom_site_type_symbol
_atom_site_fract_x
_atom_site_fract_y
_atom_site_fract_z
_atom_type_partial_charge
Ho0 Ho 0.16651 0.54201 0.15476 0.0
Ho1 Ho 0.09352 0.56733 0.1704 0.0
C2 C 0.22552 0.64791 0.15988 0.0
C3 C 0.22248 0.52024 0.13193 0.0
C4 C 0.25451 0.52215 0.10899 0.0
C5 C 0.22916 0.50615 0.08227 0.0
C6 C 0.24811 0.49047 0.06322 0.0
C7 C 0.29281 0.49092 0.0706 0.0
C8 C 0.32293 0.51284 0.09602 0.0
C9 C 0.30374 0.52818 0.11509 0.0
C10 C 0.14867 0.54212 0.20868 0.0
C11 C 1.03596 0.4637 0.16476 0.0
C12 C 1.03835 0.5906 0.19228 0.0
C13 C 0.97677 0.56386 0.19275 0.0
C14 C 0.95307 0.58247 0.20399 0.0
C15 C 0.89391 0.55638 0.20314 0.0
C16 C 0.85802 0.51139 0.1911 0.0
C17 C 0.88246 0.49282 0.18059 0.0
C18 C 0.94113 0.5188 0.18138 0.0
C19 C 0.08307 0.53864 0.11684 0.0
O20 O 0.23051 0.61718 0.15162 0.0
O21 O 0.17782 0.63688 0.16896 0.0
O22 O 0.24643 0.55471 0.15047 0.0
O23 O 0.16825 0.49814 0.12679 0.0
O24 O 0.15415 0.51479 0.19591 0.0
O25 O 0.15743 0.56992 0.19282 0.0
O26 O 1.03766 0.49455 0.17938 0.0
O27 O 1.07748 0.47553 0.14898 0.0
O28 O 1.05879 0.60145 0.1681 0.0
O29 O 1.05809 0.57477 0.20594 0.0
O30 O 1.04116 0.52911 0.13064 0.0
O31 O 0.12822 0.56414 0.13176 0.0
H32 H 0.19137 0.50157 0.07689 0.0
H33 H 0.22482 0.47456 0.04358 0.0
H34 H 0.35749 0.51371 0.10241 0.0
H35 H 0.32386 0.5403 0.13556 0.0
H36 H 0.98018 0.61721 0.21297 0.0
H37 H 0.87633 0.57159 0.21143 0.0
H38 H 0.85644 0.45879 0.17055 0.0
H39 H 0.95875 0.50394 0.17251 0.0
Ho40 Ho 0.71132 0.07603 0.48526 0.0
Ho41 Ho 0.6307 0.09237 0.47057 0.0
C42 C 0.57678 0.99091 0.47171 0.0
C43 C 0.76088 0.04903 0.50704 0.0
C44 C 0.7442 0.00516 0.51272 0.0
C45 C 0.77536 0.00361 0.53276 0.0
C46 C 0.76067 0.96224 0.5381 0.0
C47 C 0.71447 0.92164 0.52346 0.0
C48 C 0.68275 0.92337 0.50366 0.0
C49 C 0.69749 0.96478 0.49835 0.0
C50 C 0.70166 0.08309 0.43166 0.0
C51 C 0.76689 0.17809 0.48165 0.0
C52 C 0.58111 0.12102 0.45161 0.0
C53 C 0.58851 0.16205 0.45933 0.0
C54 C 0.56477 0.17488 0.44262 0.0
C55 C 0.57088 0.21346 0.45049 0.0
C56 C 0.60069 0.23968 0.47528 0.0
C57 C 0.62495 0.22674 0.49174 0.0
C58 C 0.61915 0.18845 0.48377 0.0
C59 C 0.6401 0.08532 0.5241 0.0
O60 O 0.62375 0.00695 0.48616 0.0
O61 O 0.57349 0.01808 0.45865 0.0
O62 O 0.76299 0.05617 0.48126 0.0
O63 O 0.73683 0.06204 0.52123 0.0
O64 O 0.74918 0.0995 0.44447 0.0
O65 O 0.66165 0.06222 0.44742 0.0
O66 O 0.717 0.16218 0.47075 0.0
O67 O 0.77414 0.15137 0.4922 0.0
O68 O 0.5602 0.09226 0.47022 0.0
O69 O 0.62426 0.12761 0.44041 0.0
O70 O 0.59314 0.06996 0.51133 0.0
O71 O 0.68025 0.10617 0.50841 0.0
H72 H 0.81127 0.03447 0.54419 0.0
H73 H 0.78544 0.96206 0.55377 0.0
H74 H 0.64736 0.89288 0.49178 0.0
H75 H 0.67287 0.96532 0.4828 0.0
H76 H 0.54133 0.155 0.42359 0.0
H77 H 0.55242 0.22279 0.43709 0.0
H78 H 0.64741 0.24556 0.51113 0.0
H79 H 0.63794 0.17905 0.49689 0.0
Ho80 Ho 0.65773 0.59916 0.83736 0.0
Ho81 Ho 0.56829 0.49686 0.83759 0.0
C82 C 0.52219 0.5507 0.84177 0.0
C83 C 0.71923 0.68255 0.82602 0.0
C84 C 0.71081 0.71443 0.81913 0.0
C85 C 0.65613 0.69997 0.81418 0.0
C86 C 0.64887 0.73089 0.80786 0.0
C87 C 0.69629 0.7768 0.80624 0.0
C88 C 0.75105 0.79088 0.8109 0.0
C89 C 0.75817 0.75994 0.81734 0.0
C90 C 0.63761 0.56608 0.88647 0.0
C91 C 0.70457 0.5454 0.838 0.0
C92 C 0.51231 0.41316 0.84651 0.0
C93 C 0.5231 0.38171 0.83944 0.0
C94 C 0.49953 0.34405 0.8542 0.0
C95 C 0.51105 0.31476 0.84782 0.0
C96 C 0.54635 0.32274 0.82653 0.0
C97 C 0.57011 0.36086 0.81194 0.0
C98 C 0.55884 0.39016 0.81844 0.0
C99 C 0.5877 0.52845 0.78798 0.0
O100 O 0.57278 0.58534 0.83355 0.0
O101 O 0.51278 0.51396 0.84883 0.0
O102 O 0.70868 0.67034 0.85094 0.0
O103 O 0.69926 0.64857 0.8077 0.0
O104 O 0.6882 0.59949 0.87959 0.0
O105 O 0.60162 0.55374 0.86756 0.0
O106 O 0.65148 0.50913 0.84171 0.0
O107 O 0.71745 0.58424 0.833 0.0
O108 O 0.50001 0.42582 0.82584 0.0
O109 O 0.54906 0.44699 0.86446 0.0
O110 O 0.53814 0.49436 0.79523 0.0
O111 O 0.62494 0.54223 0.80672 0.0
H112 H 0.61915 0.66487 0.81531 0.0
H113 H 0.60609 0.71895 0.80474 0.0
H114 H 0.7885 0.82578 0.80941 0.0
H115 H 0.80073 0.77156 0.82091 0.0
H116 H 0.47249 0.33744 0.87074 0.0
H117 H 0.4928 0.28619 0.85977 0.0
H118 H 0.59678 0.36778 0.79519 0.0
H119 H 0.57794 0.41942 0.80699 0.0
H120 H 0.55721 0.96478 0.23379 0.0
H121 H 0.68528 0.10409 0.21688 0.0
H122 H 0.56511 0.00326 0.15305 0.0
C123 C 0.57827 0.99083 0.2197 0.0
C124 C 0.55716 0.97863 0.19237 0.0
C125 C 0.62438 0.03605 0.22905 0.0
C126 C 0.64919 0.06929 0.21026 0.0
C127 C 0.6275 0.05754 0.18285 0.0
C128 C 0.58139 0.0123 0.17419 0.0
N129 N 0.65081 0.09008 0.16337 0.0
C130 C 0.69892 0.13545 0.16828 0.0
H131 H 0.63774 0.49495 0.59061 0.0
H132 H 0.62359 0.59717 0.57886 0.0
H133 H 0.61177 0.51675 0.50953 0.0
C134 C 0.63342 0.51379 0.57706 0.0
C135 C 0.62555 0.50201 0.54876 0.0
C136 C 0.63209 0.54772 0.58812 0.0
C137 C 0.62466 0.57102 0.57044 0.0
C138 C 0.61772 0.55997 0.542 0.0
C139 C 0.61752 0.52523 0.53145 0.0
N140 N 0.60969 0.58228 0.52336 0.0
C141 C 0.6199 0.6226 0.53 0.0
H142 H 0.99965 0.52975 0.91657 0.0
H143 H 0.1472 0.5416 0.90263 0.0
H144 H 1.06507 0.55292 0.83669 0.0
C145 C 1.02987 0.53383 0.90278 0.0
C146 C 1.02586 0.54021 0.87536 0.0
C147 C 1.07343 0.53446 0.91295 0.0
C148 C 0.11392 0.54154 0.8951 0.0
C149 C 0.11118 0.54819 0.86751 0.0
C150 C 1.06733 0.5479 0.85792 0.0
N151 N 0.15139 0.55523 0.84881 0.0
C152 C 0.19617 0.55495 0.85427 0.0
H153 H 0.24107 0.6646 0.4026 0.0
H154 H 0.11936 0.52923 0.42639 0.0
H155 H 0.23375 0.64032 0.48716 0.0
C156 C 0.22143 0.64147 0.41847 0.0
C157 C 0.2422 0.65825 0.44569 0.0
C158 C 0.17728 0.5951 0.41127 0.0
C159 C 0.15355 0.56502 0.43183 0.0
C160 C 0.17386 0.58139 0.45933 0.0
C161 C 0.21838 0.62785 0.466 0.0
N162 N 0.15066 0.55239 0.48084 0.0
C163 C 0.10426 0.50629 0.4776 0.0
H164 H 0.63769 0.13409 0.72297 0.0
H165 H 0.62931 0.02013 0.73406 0.0
H166 H 0.59639 0.07757 0.80052 0.0
C167 C 0.63212 0.11017 0.73612 0.0
C168 C 0.61719 0.11017 0.76309 0.0
C169 C 0.63599 0.07752 0.72541 0.0
C170 C 0.62669 0.04552 0.74228 0.0
C171 C 0.61291 0.04594 0.76954 0.0
C172 C 0.60759 0.07782 0.77958 0.0
N173 N 0.60254 0.0142 0.78734 0.0
C174 C 0.61766 0.98726 0.78274 0.0
H175 H 0.58701 0.3917 0.05003 0.0
H176 H 0.42751 0.2897 0.00487 0.0
H177 H 0.44677 0.27887 0.08954 0.0
C178 C 0.5444 0.35926 0.04865 0.0
C179 C 0.52203 0.33581 0.07215 0.0
C180 C 0.51074 0.34326 0.02423 0.0
C181 C 0.45494 0.30198 0.02323 0.0
C182 C 0.43138 0.27914 0.04682 0.0
C183 C 0.46563 0.29525 0.07102 0.0
N184 N 0.37159 0.2489 0.04813 0.0
C185 C 0.34474 0.26668 0.04394 0.0
H186 H 0.21 0.4042 0.04831 0.0
H187 H 0.42595 0.35597 0.04545 0.0
H188 H 0.39226 0.50807 0.05877 0.0
H189 H 0.24433 0.2502 0.03551 0.0
H190 H 0.41435 0.41245 0.04229 0.0
H191 H 0.22173 0.34876 0.03443 0.0
C192 C 0.25263 0.41573 0.04684 0.0
C193 C 0.30031 0.46084 0.05508 0.0
C194 C 0.37687 0.37697 0.0405 0.0
C195 C 0.31381 0.3971 0.03996 0.0
C196 C 0.38351 0.34472 0.04227 0.0
C197 C 0.33595 0.29869 0.0407 0.0
C198 C 0.32203 0.36307 0.03766 0.0
C199 C 0.2819 0.28562 0.03688 0.0
C200 C 0.25921 0.38383 0.03922 0.0
C201 C 0.35435 0.47352 0.05307 0.0
N202 N 0.27627 0.31784 0.03576 0.0
N203 N 0.35959 0.44167 0.04613 0.0
H204 H 0.76839 0.24469 0.46354 0.0
H205 H 0.10452 0.44106 0.49382 0.0
H206 H 0.87779 0.22329 0.49899 0.0
H207 H 0.99575 0.4638 0.46001 0.0
H208 H 1.02196 0.36059 0.49494 0.0
H209 H 0.85074 0.32461 0.46165 0.0
C210 C 0.80966 0.25674 0.47101 0.0
C211 C 0.81606 0.22707 0.48144 0.0
C212 C 1.016 0.38303 0.48717 0.0
C213 C 0.91074 0.31873 0.4792 0.0
C214 C 1.06309 0.42881 0.48646 0.0
C215 C 1.05642 0.45852 0.47672 0.0
C216 C 0.96193 0.36707 0.47813 0.0
C217 C 1.00223 0.44154 0.46756 0.0
C218 C 0.85672 0.30245 0.46987 0.0
C219 C 0.87067 0.24481 0.49082 0.0
N220 N 0.95688 0.39684 0.46851 0.0
N221 N 0.91582 0.28938 0.48942 0.0
H222 H 0.75664 0.86406 0.82906 0.0
H223 H 0.56194 0.90493 0.75493 0.0
H224 H 0.61845 0.76544 0.7701 0.0
H225 H 0.70795 0.00571 0.80922 0.0
H226 H 0.58434 0.85435 0.75813 0.0
H227 H 0.74205 0.91753 0.82017 0.0
C228 C 0.72357 0.85374 0.81402 0.0
C229 C 0.68868 0.81005 0.80035 0.0
C230 C 0.61186 0.88769 0.76912 0.0
C231 C 0.67109 0.87112 0.79037 0.0
C232 C 0.59916 0.91646 0.7672 0.0
C233 C 0.63343 0.95919 0.78179 0.0
C234 C 0.65884 0.90193 0.78594 0.0
C235 C 0.68081 0.97286 0.79763 0.0
C236 C 0.71505 0.88428 0.80905 0.0
C237 C 0.64582 0.79847 0.78144 0.0
N238 N 0.692 0.94418 0.79943 0.0
N239 N 0.6381 0.82874 0.77709 0.0
H240 H 0.80342 0.54243 0.17546 0.0
H241 H 0.54498 0.29875 0.10943 0.0
H242 H 0.77122 0.42052 0.19485 0.0
H243 H 0.57532 0.42141 0.09463 0.0
H244 H 0.61417 0.33963 0.14886 0.0
H245 H 0.70693 0.4965 0.15537 0.0
C246 C 0.7756 0.50606 0.17623 0.0
C247 C 0.79604 0.48523 0.18613 0.0
C248 C 0.60495 0.3574 0.13728 0.0
C249 C 0.68593 0.43224 0.16223 0.0
C250 C 0.56554 0.33406 0.11483 0.0
C251 C 0.556 0.35723 0.09842 0.0
C252 C 0.63476 0.40408 0.14316 0.0
C253 C 0.58299 0.40278 0.10634 0.0
C254 C 0.72048 0.47971 0.16448 0.0
C255 C 0.75779 0.43788 0.18654 0.0
N256 N 0.62179 0.42489 0.12788 0.0
N257 N 0.70498 0.41287 0.17411 0.0
H258 H 0.56592 0.92309 0.49534 0.0
H259 H 0.25223 0.7281 0.42717 0.0
H260 H 0.47478 0.94657 0.44335 0.0
H261 H 0.3388 0.70072 0.47925 0.0
H262 H 0.33276 0.80884 0.43477 0.0
H263 H 0.48316 0.84213 0.49121 0.0
C264 C 0.52863 0.91131 0.48305 0.0
C265 C 0.52748 0.94176 0.46958 0.0
C266 C 0.33426 0.78533 0.44467 0.0
C267 C 0.43258 0.84923 0.46493 0.0
C268 C 0.28827 0.73916 0.44028 0.0
C269 C 0.28901 0.70759 0.4524 0.0
C270 C 0.38177 0.80034 0.46127 0.0
C271 C 0.33642 0.72393 0.46959 0.0
C272 C 0.48134 0.86508 0.48077 0.0
C273 C 0.47784 0.92449 0.45406 0.0
N274 N 0.38115 0.7692 0.47336 0.0
N275 N 0.43258 0.87951 0.45215 0.0
H276 H 0.47273 0.22993 0.82564 0.0
H277 H 0.68597 0.2014 0.75813 0.0
H278 H 0.64589 0.3434 0.81043 0.0
H279 H 0.5297 0.09243 0.79189 0.0
H280 H 0.67018 0.25371 0.77492 0.0
H281 H 0.49134 0.17866 0.81175 0.0
C282 C 0.51484 0.24418 0.81966 0.0
C283 C 0.55771 0.29118 0.81915 0.0
C284 C 0.63951 0.21839 0.77877 0.0
C285 C 0.57894 0.23242 0.80267 0.0
C286 C 0.64835 0.18853 0.76907 0.0
C287 C 0.60912 0.14258 0.77367 0.0
C288 C 0.59074 0.20205 0.79288 0.0
C289 C 0.56132 0.12771 0.78816 0.0
C290 C 0.52532 0.2148 0.81156 0.0
C291 C 0.61116 0.30743 0.81068 0.0
N292 N 0.55331 0.15731 0.79712 0.0
N293 N 0.62014 0.27811 0.80265 0.0
H294 H 0.78823 0.9055 0.53241 0.0
H295 H 0.54417 0.63662 0.52955 0.0
H296 H 0.60913 0.83789 0.52503 0.0
H297 H 0.723 0.70515 0.53849 0.0
H298 H 0.56651 0.71036 0.53126 0.0
H299 H 0.76487 0.83301 0.53808 0.0
C300 C 0.74394 0.87551 0.53229 0.0
C301 C 0.70059 0.87789 0.52815 0.0
C302 C 0.60091 0.70938 0.53313 0.0
C303 C 0.67349 0.79439 0.53423 0.0
C304 C 0.58811 0.6674 0.53224 0.0
C305 C 0.63197 0.66539 0.53396 0.0
C306 C 0.65801 0.74935 0.53555 0.0
C307 C 0.68819 0.70573 0.5372 0.0
C308 C 0.73063 0.83401 0.53538 0.0
C309 C 0.64397 0.83763 0.52774 0.0
N310 N 0.6997 0.74619 0.53774 0.0
N311 N 0.63208 0.79755 0.53062 0.0
H312 H 0.69723 0.47464 0.85372 0.0
H313 H 1.02976 0.5993 0.84409 0.0
H314 H 0.81847 0.60956 0.82832 0.0
H315 H 0.91273 0.47839 0.88503 0.0
H316 H 0.95172 0.59971 0.83282 0.0
H317 H 0.77403 0.4718 0.86012 0.0
C318 C 0.73989 0.50366 0.84931 0.0
C319 C 0.75099 0.5425 0.84052 0.0
C320 C 0.94309 0.57297 0.84415 0.0
C321 C 0.83998 0.53935 0.84785 0.0
C322 C 0.9876 0.57252 0.85041 0.0
C323 C 0.97813 0.53891 0.8657 0.0
C324 C 0.88831 0.53921 0.85291 0.0
C325 C 0.92244 0.50532 0.8735 0.0
C326 C 0.78393 0.50202 0.85306 0.0
C327 C 0.80757 0.57891 0.8352 0.0
N328 N 0.88 0.50636 0.86707 0.0
N329 N 0.84973 0.57646 0.83894 0.0
H330 H 0.33784 0.68677 0.15944 0.0
H331 H 0.4556 0.94201 0.16565 0.0
H332 H 0.22747 0.72007 0.161 0.0
H333 H 0.55111 0.90594 0.1985 0.0
H334 H 0.37506 0.86112 0.15401 0.0
H335 H 0.42023 0.76782 0.16383 0.0
C336 C 0.33089 0.71107 0.16037 0.0
C337 C 0.27566 0.69661 0.16006 0.0
C338 C 0.41385 0.87104 0.1636 0.0
C339 C 0.36969 0.78926 0.16491 0.0
C340 C 0.45974 0.91704 0.17008 0.0
C341 C 0.50974 0.93044 0.18317 0.0
C342 C 0.41853 0.83842 0.16981 0.0
C343 C 0.51301 0.89686 0.18863 0.0
C344 C 0.37792 0.75728 0.16301 0.0
C345 C 0.26928 0.7297 0.16142 0.0
N346 N 0.46807 0.8524 0.1819 0.0
N347 N 0.31572 0.77448 0.16379 0.0
H348 H 0.52037 0.24995 0.46923 0.0
H349 H 0.69805 0.48588 0.56119 0.0
H350 H 0.69145 0.32069 0.50235 0.0
H351 H 0.54878 0.43266 0.51043 0.0
H352 H 0.69337 0.42299 0.54232 0.0
H353 H 0.52761 0.31464 0.486 0.0
C354 C 0.5597 0.2792 0.47976 0.0
C355 C 0.60533 0.27965 0.48438 0.0
C356 C 0.66179 0.42519 0.53523 0.0
C357 C 0.61334 0.35357 0.50419 0.0
C358 C 0.66426 0.46089 0.5461 0.0
C359 C 0.6238 0.46449 0.53731 0.0
C360 C 0.61813 0.39256 0.51567 0.0
C361 C 0.58117 0.43142 0.51755 0.0
C362 C 0.56363 0.31604 0.48949 0.0
C363 C 0.65476 0.31833 0.49869 0.0
N364 N 0.57928 0.39672 0.5075 0.0
N365 N 0.65733 0.35358 0.50819 0.0
H366 H 0.52207 0.6202 0.83034 0.0
H367 H 0.19804 0.4891 0.8694 0.0
H368 H 0.41461 0.48682 0.85891 0.0
H369 H 0.30368 0.62182 0.84038 0.0
H370 H 0.278 0.48879 0.86708 0.0
H371 H 0.44421 0.62254 0.83479 0.0
C372 C 0.48229 0.59139 0.83754 0.0
C373 C 0.47538 0.55324 0.84418 0.0
C374 C 0.28399 0.51817 0.86137 0.0
C375 C 0.38538 0.55573 0.84944 0.0
C376 C 0.23834 0.51837 0.86282 0.0
C377 C 0.24447 0.55567 0.85529 0.0
C378 C 0.33627 0.55551 0.85215 0.0
C379 C 0.29738 0.59252 0.84659 0.0
C380 C 0.43768 0.59276 0.84011 0.0
C381 C 0.42239 0.51703 0.85346 0.0
N382 N 0.34107 0.5915 0.8452 0.0
N383 N 0.37979 0.51918 0.85577 0.0
H384 H 1.02014 0.39063 0.13936 0.0
H385 H 0.71307 0.20534 0.19634 0.0
H386 H 0.93946 0.42551 0.19289 0.0
H387 H 0.79698 0.17243 0.14424 0.0
H388 H 0.79628 0.28618 0.19652 0.0
H389 H 0.93925 0.31063 0.14166 0.0
C390 C 0.98542 0.38153 0.15161 0.0
C391 C 0.98673 0.41499 0.16595 0.0
C392 C 0.7967 0.26131 0.18518 0.0
C393 C 0.89361 0.32302 0.16871 0.0
C394 C 0.7494 0.21532 0.18517 0.0
C395 C 0.74883 0.18272 0.17035 0.0
C396 C 0.84338 0.27445 0.17013 0.0
C397 C 0.79629 0.19688 0.15599 0.0
C398 C 0.93918 0.33572 0.15295 0.0
C399 C 0.94039 0.40095 0.18151 0.0
N400 N 0.84166 0.24174 0.15617 0.0
N401 N 0.89572 0.35606 0.18245 0.0
H402 H 0.98948 0.48912 0.0812 0.0
H403 H 0.16846 0.57999 0.94828 0.0
H404 H 0.17182 0.57158 0.0841 0.0
H405 H 0.98592 0.47659 0.94527 0.0
H406 H 0.17135 0.57578 -0.00233 0.0
H407 H 0.98753 0.48277 0.03123 0.0
C408 C 1.02906 0.50561 0.07128 0.0
C409 C 1.08089 0.53124 0.08676 0.0
C410 C 0.13071 0.55376 0.98615 0.0
C411 C 1.07919 0.5245 0.02955 0.0
C412 C 0.12905 0.55595 0.95788 0.0
C413 C 1.0768 0.52902 0.94251 0.0
C414 C 1.07975 0.52462 -0.00075 0.0
C415 C 1.02711 0.49882 0.95627 0.0
C416 C 1.02798 0.50198 0.04275 0.0
C417 C 0.13095 0.55176 0.07289 0.0
N418 N 1.02979 0.49777 0.98379 0.0
N419 N 0.12893 0.54833 0.04508 0.0
H420 H 0.60777 0.01444 0.4002 0.0
H421 H 0.66979 0.11521 0.26152 0.0
H422 H 0.77588 0.1423 0.39542 0.0
H423 H 0.62624 0.98438 0.26442 0.0
H424 H 0.69435 0.13018 0.31084 0.0
H425 H 0.59497 0.00598 0.35019 0.0
C426 C 0.64175 0.04089 0.3886 0.0
C427 C 0.69308 0.07901 0.40176 0.0
C428 C 0.67966 0.09841 0.30039 0.0
C429 C 0.6781 0.06996 0.34501 0.0
C430 C 0.66591 0.0898 0.27223 0.0
C431 C 0.6448 0.04799 0.25853 0.0
C432 C 0.67084 0.06463 0.315 0.0
C433 C 0.64017 0.01637 0.27395 0.0
C434 C 0.63449 0.03592 0.3602 0.0
C435 C 0.7359 0.1123 0.38585 0.0
N436 N 0.65196 0.02498 0.30139 0.0
N437 N 0.72729 0.10728 0.35815 0.0
H438 H 0.5129 0.51201 0.74866 0.0
H439 H 0.70706 0.56062 0.62673 0.0
H440 H 0.68844 0.57272 0.76302 0.0
H441 H 0.56053 0.55231 0.61781 0.0
H442 H 0.70167 0.56451 0.67651 0.0
H443 H 0.52925 0.52566 0.70045 0.0
C444 C 0.55505 0.5286 0.74163 0.0
C445 C 0.59931 0.541 0.75967 0.0
C446 C 0.67125 0.56253 0.66366 0.0
C447 C 0.61819 0.55613 0.70455 0.0
C448 C 0.67418 0.56014 0.63531 0.0
C449 C 0.63403 0.55596 0.61819 0.0
C450 C 0.62718 0.55981 0.67491 0.0
C451 C 0.59247 0.55575 0.63029 0.0
C452 C 0.56442 0.53651 0.71417 0.0
C453 C 0.6532 0.56259 0.74966 0.0
N454 N 0.58961 0.55695 0.65789 0.0
N455 N 0.66099 0.56888 0.72261 0.0
H456 H 0.73616 0.13698 0.55849 0.0
H457 H 0.57182 0.00359 0.68826 0.0
H458 H 0.55622 0.02449 0.55578 0.0
H459 H 0.71869 0.14565 0.69561 0.0
H460 H 0.57772 0.00232 0.63849 0.0
H461 H 0.74141 0.13228 0.60798 0.0
C462 C 0.69798 0.11107 0.5683 0.0
C463 C 0.64556 0.08139 0.55328 0.0
C464 C 0.6091 0.03359 0.65106 0.0
C465 C 0.65141 0.07533 0.60928 0.0
C466 C 0.60603 0.03424 0.6794 0.0
C467 C 0.64467 0.07484 0.69595 0.0
C468 C 0.65155 0.07366 0.63927 0.0
C469 C 0.68785 0.11377 0.68346 0.0
C470 C 0.70098 0.10847 0.59642 0.0
C471 C 0.59731 0.04832 0.56678 0.0
N472 N 0.69007 0.1123 0.65581 0.0
N473 N 0.60137 0.04613 0.59403 0.0
H474 H 0.70805 0.55906 0.9157 0.0
H475 H 0.44804 0.35633 -0.00597 0.0
H476 H 0.53567 0.50846 0.90754 0.0
H477 H 0.61769 0.40115 0.00432 0.0
H478 H 0.4811 0.41184 0.96165 0.0
H479 H 0.67845 0.50351 0.94892 0.0
C480 C 0.6643 0.5368 0.9213 0.0
C481 C 0.62411 0.53815 0.90904 0.0
C482 C 0.51126 0.40953 0.9708 0.0
C483 C 0.58997 0.47459 0.9463 0.0
C484 C 0.49215 0.37723 0.98915 0.0
C485 C 0.52998 0.37365 0.00194 0.0
C486 C 0.56885 0.43895 0.96509 0.0
C487 C 0.58707 0.40288 -0.00488 0.0
C488 C 0.64733 0.5049 0.93998 0.0
C489 C 0.56788 0.50836 0.91656 0.0
N490 N 0.60488 0.43446 0.97719 0.0
N491 N 0.55248 0.47775 0.93459 0.0
H492 H 0.14979 0.60475 0.23886 0.0
H493 H 0.15707 0.52213 0.38226 0.0
H494 H 0.13492 0.48663 0.24582 0.0
H495 H 0.1551 0.6318 0.37363 0.0
H496 H 0.14038 0.50387 0.3326 0.0
H497 H 0.14468 0.61146 0.28829 0.0
C498 C 0.14487 0.57995 0.25081 0.0
C499 C 0.14287 0.54515 0.23832 0.0
C500 C 0.14296 0.53161 0.34162 0.0
C501 C 0.13773 0.55286 0.29498 0.0
C502 C 0.15208 0.54182 0.36997 0.0
C503 C 0.15827 0.57892 0.38202 0.0
C504 C 0.14013 0.55878 0.32528 0.0
C505 C 0.15176 0.60347 0.36511 0.0
C506 C 0.14204 0.5838 0.27906 0.0
C507 C 0.13691 0.51412 0.25475 0.0
N508 N 0.14366 0.59328 0.33763 0.0
N509 N 0.13499 0.51889 0.2823 0.0
loop_
_geom_bond_atom_site_label_1
_geom_bond_atom_site_label_2
_geom_bond_distance
_geom_bond_site_symmetry_2
_ccdc_geom_bond_type
Ho0 C3 2.811 . S
Ho0 O20 2.322 . S
Ho0 O22 2.378 . S
Ho0 O23 2.524 . S
Ho0 O24 2.381 . S
Ho0 O25 2.669 . S
Ho0 O27 2.346 1_455 S
Ho0 O31 2.305 . S
Ho1 C12 2.811 1_455 S
Ho1 O21 2.346 . S
Ho1 O25 2.305 . S
Ho1 O26 2.322 1_455 S
Ho1 O28 2.378 1_455 S
Ho1 O29 2.524 1_455 S
Ho1 O30 2.381 . S
Ho1 O31 2.669 . S
C2 O20 1.259 . S
C2 O21 1.268 . S
C3 Ho0 2.811 . S
C3 C4 1.488 . S
C3 O22 1.215 . S
C3 O23 1.289 . S
C4 C3 1.488 . S
C4 C5 1.348 . S
C4 C9 1.413 . S
C5 C4 1.348 . S
C5 C6 1.442 . S
C5 H32 0.930 . S
C6 C5 1.442 . S
C6 C7 1.381 . S
C6 H33 0.931 . S
C7 C6 1.381 . S
C7 C8 1.321 . S
C8 C7 1.321 . S
C8 C9 1.403 . S
C8 H34 0.934 . S
C9 C4 1.413 . S
C9 C8 1.403 . S
C9 H35 0.930 . S
C10 O24 1.275 . S
C10 O25 1.256 . S
C11 O26 1.259 . S
C11 O27 1.268 . S
C12 Ho1 2.811 1_655 S
C12 C13 1.488 . S
C12 O28 1.215 . S
C12 O29 1.289 . S
C13 C12 1.488 . S
C13 C14 1.348 . S
C13 C18 1.413 . S
C14 C13 1.348 . S
C14 C15 1.442 . S
C14 H36 0.930 . S
C15 C14 1.442 . S
C15 C16 1.381 . S
C15 H37 0.931 . S
C16 C15 1.381 . S
C16 C17 1.321 . S
C17 C16 1.321 . S
C17 C18 1.403 . S
C17 H38 0.934 . S
C18 C13 1.413 . S
C18 C17 1.403 . S
C18 H39 0.930 . S
C19 O30 1.275 . S
C19 O31 1.256 . S
O20 Ho0 2.322 . S
O20 C2 1.259 . S
O21 Ho1 2.346 . S
O21 C2 1.268 . S
O22 Ho0 2.378 . S
O22 C3 1.215 . S
O23 Ho0 2.524 . S
O23 C3 1.289 . S
O24 Ho0 2.381 . S
O24 C10 1.275 . S
O25 Ho0 2.669 . S
O25 Ho1 2.305 . S
O25 C10 1.256 . S
O26 Ho1 2.322 1_655 S
O26 C11 1.259 . S
O27 Ho0 2.346 1_655 S
O27 C11 1.268 . S
O28 Ho1 2.378 1_655 S
O28 C12 1.215 . S
O29 Ho1 2.524 1_655 S
O29 C12 1.289 . S
O30 Ho1 2.381 . S
O30 C19 1.275 . S
O31 Ho0 2.305 . S
O31 Ho1 2.669 . S
O31 C19 1.256 . S
H32 C5 0.930 . S
H33 C6 0.931 . S
H34 C8 0.934 . S
H35 C9 0.930 . S
H36 C14 0.930 . S
H37 C15 0.931 . S
H38 C17 0.934 . S
H39 C18 0.930 . S
Ho40 C43 2.811 1_545 S
Ho40 O60 2.322 1_545 S
Ho40 O62 2.378 1_545 S
Ho40 O63 2.524 1_545 S
Ho40 O64 2.381 . S
Ho40 O65 2.669 . S
Ho40 O67 2.346 . S
Ho40 O71 2.305 . S
Ho41 C52 2.811 . S
Ho41 O61 2.346 1_545 S
Ho41 O65 2.305 . S
Ho41 O66 2.322 . S
Ho41 O68 2.378 . S
Ho41 O69 2.524 . S
Ho41 O70 2.381 . S
Ho41 O71 2.669 . S
C42 O60 1.259 . S
C42 O61 1.268 . S
C43 Ho40 2.811 1_565 S
C43 C44 1.488 . S
C43 O62 1.215 . S
C43 O63 1.289 . S
C44 C43 1.488 . S
C44 C45 1.348 . S
C44 C49 1.413 . S
C45 C44 1.348 . S
C45 C46 1.442 . S
C45 H72 0.930 . S
C46 C45 1.442 . S
C46 C47 1.381 . S
C46 H73 0.931 . S
C47 C46 1.381 . S
C47 C48 1.321 . S
C48 C47 1.321 . S
C48 C49 1.403 . S
C48 H74 0.934 . S
C49 C44 1.413 . S
C49 C48 1.403 . S
C49 H75 0.930 . S
C50 O64 1.275 . S
C50 O65 1.256 . S
C51 O66 1.259 . S
C51 O67 1.268 . S
C52 Ho41 2.811 . S
C52 C53 1.488 . S
C52 O68 1.215 . S
C52 O69 1.289 . S
C53 C52 1.488 . S
C53 C54 1.348 . S
C53 C58 1.413 . S
C54 C53 1.348 . S
C54 C55 1.442 . S
C54 H76 0.930 . S
C55 C54 1.442 . S
C55 C56 1.381 . S
C55 H77 0.931 . S
C56 C55 1.381 . S
C56 C57 1.321 . S
C57 C56 1.321 . S
C57 C58 1.403 . S
C57 H78 0.934 . S
C58 C53 1.413 . S
C58 C57 1.403 . S
C58 H79 0.930 . S
C59 O70 1.275 . S
C59 O71 1.256 . S
O60 Ho40 2.322 1_565 S
O60 C42 1.259 . S
O61 Ho41 2.346 1_565 S
O61 C42 1.268 . S
O62 Ho40 2.378 1_565 S
O62 C43 1.215 . S
O63 Ho40 2.524 1_565 S
O63 C43 1.289 . S
O64 Ho40 2.381 . S
O64 C50 1.275 . S
O65 Ho40 2.669 . S
O65 Ho41 2.305 . S
O65 C50 1.256 . S
O66 Ho41 2.322 . S
O66 C51 1.259 . S
O67 Ho40 2.346 . S
O67 C51 1.268 . S
O68 Ho41 2.378 . S
O68 C52 1.215 . S
O69 Ho41 2.524 . S
O69 C52 1.289 . S
O70 Ho41 2.381 . S
O70 C59 1.275 . S
O71 Ho40 2.305 . S
O71 Ho41 2.669 . S
O71 C59 1.256 . S
H72 C45 0.930 . S
H73 C46 0.931 . S
H74 C48 0.934 . S
H75 C49 0.930 . S
H76 C54 0.930 . S
H77 C55 0.931 . S
H78 C57 0.934 . S
H79 C58 0.930 . S
Ho80 C83 2.811 . S
Ho80 O100 2.322 . S
Ho80 O102 2.378 . S
Ho80 O103 2.524 . S
Ho80 O104 2.381 . S
Ho80 O105 2.669 . S
Ho80 O107 2.346 . S
Ho80 O111 2.305 . S
Ho81 C92 2.811 . S
Ho81 O101 2.346 . S
Ho81 O105 2.305 . S
Ho81 O106 2.322 . S
Ho81 O108 2.378 . S
Ho81 O109 2.524 . S
Ho81 O110 2.381 . S
Ho81 O111 2.669 . S
C82 O100 1.259 . S
C82 O101 1.268 . S
C83 Ho80 2.811 . S
C83 C84 1.488 . S
C83 O102 1.215 . S
C83 O103 1.289 . S
C84 C83 1.488 . S
C84 C85 1.348 . S
C84 C89 1.413 . S
C85 C84 1.348 . S
C85 C86 1.442 . S
C85 H112 0.930 . S
C86 C85 1.442 . S
C86 C87 1.381 . S
C86 H113 0.931 . S
C87 C86 1.381 . S
C87 C88 1.321 . S
C88 C87 1.321 . S
C88 C89 1.403 . S
C88 H114 0.934 . S
C89 C84 1.413 . S
C89 C88 1.403 . S
C89 H115 0.930 . S
C90 O104 1.275 . S
C90 O105 1.256 . S
C91 O106 1.259 . S
C91 O107 1.268 . S
C92 Ho81 2.811 . S
C92 C93 1.488 . S
C92 O108 1.215 . S
C92 O109 1.289 . S
C93 C92 1.488 . S
C93 C94 1.348 . S
C93 C98 1.413 . S
C94 C93 1.348 . S
C94 C95 1.442 . S
C94 H116 0.930 . S
C95 C94 1.442 . S
C95 C96 1.381 . S
C95 H117 0.931 . S
C96 C95 1.381 . S
C96 C97 1.321 . S
C97 C96 1.321 . S
C97 C98 1.403 . S
C97 H118 0.934 . S
C98 C93 1.413 . S
C98 C97 1.403 . S
C98 H119 0.930 . S
C99 O110 1.275 . S
C99 O111 1.256 . S
O100 Ho80 2.322 . S
O100 C82 1.259 . S
O101 Ho81 2.346 . S
O101 C82 1.268 . S
O102 Ho80 2.378 . S
O102 C83 1.215 . S
O103 Ho80 2.524 . S
O103 C83 1.289 . S
O104 Ho80 2.381 . S
O104 C90 1.275 . S
O105 Ho80 2.669 . S
O105 Ho81 2.305 . S
O105 C90 1.256 . S
O106 Ho81 2.322 . S
O106 C91 1.259 . S
O107 Ho80 2.346 . S
O107 C91 1.268 . S
O108 Ho81 2.378 . S
O108 C92 1.215 . S
O109 Ho81 2.524 . S
O109 C92 1.289 . S
O110 Ho81 2.381 . S
O110 C99 1.275 . S
O111 Ho80 2.305 . S
O111 Ho81 2.669 . S
O111 C99 1.256 . S
H112 C85 0.930 . S
H113 C86 0.931 . S
H114 C88 0.934 . S
H115 C89 0.930 . S
H116 C94 0.930 . S
H117 C95 0.931 . S
H118 C97 0.934 . S
H119 C98 0.930 . S
H120 C123 0.929 . S
H121 C126 0.929 . S
H122 C128 0.930 . S
C123 H120 0.929 . S
C123 C124 1.398 . S
C123 C125 1.396 1_565 S
C124 C123 1.398 . S
C124 C128 1.407 1_565 S
C125 C123 1.396 1_545 S
C125 C126 1.394 . S
C126 H121 0.929 . S
C126 C125 1.394 . S
C126 C127 1.382 . S
C127 C126 1.382 . S
C127 C128 1.392 . S
C127 N129 1.420 . S
C128 H122 0.930 . S
C128 C124 1.407 1_545 S
C128 C127 1.392 . S
N129 C127 1.420 . S
N129 C130 1.244 . S
C130 N129 1.244 . S
H131 C134 0.929 . S
H132 C137 0.929 . S
H133 C139 0.930 . S
C134 H131 0.929 . S
C134 C135 1.398 . S
C134 C136 1.396 . S
C135 C134 1.398 . S
C135 C139 1.407 . S
C136 C134 1.396 . S
C136 C137 1.394 . S
C137 H132 0.929 . S
C137 C136 1.394 . S
C137 C138 1.382 . S
C138 C137 1.382 . S
C138 C139 1.392 . S
C138 N140 1.420 . S
C139 H133 0.930 . S
C139 C135 1.407 . S
C139 C138 1.392 . S
N140 C138 1.420 . S
N140 C141 1.244 . S
C141 N140 1.244 . S
H142 C145 0.929 . S
H143 C148 0.929 . S
H144 C150 0.930 . S
C145 H142 0.929 . S
C145 C146 1.398 . S
C145 C147 1.396 . S
C146 C145 1.398 . S
C146 C150 1.407 . S
C147 C145 1.396 . S
C147 C148 1.394 . S
C148 H143 0.929 . S
C148 C147 1.394 . S
C148 C149 1.382 . S
C149 C148 1.382 . S
C149 C150 1.392 . S
C149 N151 1.420 . S
C150 H144 0.930 . S
C150 C146 1.407 . S
C150 C149 1.392 . S
N151 C149 1.420 . S
N151 C152 1.244 . S
C152 N151 1.244 . S
H153 C156 0.929 . S
H154 C159 0.929 . S
H155 C161 0.930 . S
C156 H153 0.929 . S
C156 C157 1.398 . S
C156 C158 1.396 . S
C157 C156 1.398 . S
C157 C161 1.407 . S
C158 C156 1.396 . S
C158 C159 1.394 1_455 S
C159 H154 0.929 . S
C159 C158 1.394 1_655 S
C159 C160 1.382 . S
C160 C159 1.382 . S
C160 C161 1.392 1_655 S
C160 N162 1.420 . S
C161 H155 0.930 . S
C161 C157 1.407 . S
C161 C160 1.392 1_455 S
N162 C160 1.420 . S
N162 C163 1.244 . S
C163 N162 1.244 . S
H164 C167 0.929 . S
H165 C170 0.929 1_565 S
H166 C172 0.930 . S
C167 H164 0.929 . S
C167 C168 1.398 . S
C167 C169 1.396 . S
C168 C167 1.398 . S
C168 C172 1.407 . S
C169 C167 1.396 . S
C169 C170 1.394 . S
C170 H165 0.929 1_545 S
C170 C169 1.394 . S
C170 C171 1.382 . S
C171 C170 1.382 . S
C171 C172 1.392 . S
C171 N173 1.420 . S
C172 H166 0.930 . S
C172 C168 1.407 . S
C172 C171 1.392 . S
N173 C171 1.420 . S
N173 C174 1.244 1_545 S
C174 N173 1.244 1_565 S
H175 C178 0.929 . S
H176 C181 0.929 . S
H177 C183 0.930 . S
C178 H175 0.929 . S
C178 C179 1.398 . S
C178 C180 1.396 . S
C179 C178 1.398 . S
C179 C183 1.407 . S
C180 C178 1.396 . S
C180 C181 1.394 . S
C181 H176 0.929 . S
C181 C180 1.394 . S
C181 C182 1.382 . S
C182 C181 1.382 . S
C182 C183 1.392 . S
C182 N184 1.420 . S
C183 H177 0.930 . S
C183 C179 1.407 . S
C183 C182 1.392 . S
N184 C182 1.420 . S
N184 C185 1.244 . S
C185 N184 1.244 . S
H186 C192 0.930 . S
H187 C196 0.930 . S
H188 C201 0.929 . S
H189 C199 0.929 . S
H190 C194 0.929 . S
H191 C200 0.929 . S
C192 H186 0.930 . S
C192 C193 1.367 . S
C192 C200 1.378 . S
C193 C192 1.367 . S
C193 C201 1.433 . S
C194 H190 0.929 . S
C194 C196 1.378 . S
C194 C198 1.350 . S
C195 C198 1.463 . S
C195 C200 1.350 . S
C195 N203 1.427 . S
C196 H187 0.930 . S
C196 C194 1.378 . S
C196 C197 1.367 . S
C197 C196 1.367 . S
C197 C199 1.433 . S
C198 C194 1.350 . S
C198 C195 1.463 . S
C198 N202 1.427 . S
C199 H189 0.929 . S
C199 C197 1.433 . S
C199 N202 1.384 . S
C200 H191 0.929 . S
C200 C192 1.378 . S
C200 C195 1.350 . S
C201 H188 0.929 . S
C201 C193 1.433 . S
C201 N203 1.384 . S
N202 C198 1.427 . S
N202 C199 1.384 . S
N203 C195 1.427 . S
N203 C201 1.384 . S
H204 C210 0.930 . S
H205 C214 0.930 . S
H206 C219 0.929 . S
H207 C217 0.929 . S
H208 C212 0.929 . S
H209 C218 0.929 . S
C210 H204 0.930 . S
C210 C211 1.367 . S
C210 C218 1.378 . S
C211 C210 1.367 . S
C211 C219 1.433 . S
C212 H208 0.929 . S
C212 C214 1.378 . S
C212 C216 1.350 . S
C213 C216 1.463 . S
C213 C218 1.350 . S
C213 N221 1.427 . S
C214 H205 0.930 . S
C214 C212 1.378 . S
C214 C215 1.367 . S
C215 C214 1.367 . S
C215 C217 1.433 . S
C216 C212 1.350 . S
C216 C213 1.463 . S
C216 N220 1.427 . S
C217 H207 0.929 . S
C217 C215 1.433 . S
C217 N220 1.384 . S
C218 H209 0.929 . S
C218 C210 1.378 . S
C218 C213 1.350 . S
C219 H206 0.929 . S
C219 C211 1.433 . S
C219 N221 1.384 . S
N220 C216 1.427 . S
N220 C217 1.384 . S
N221 C213 1.427 . S
N221 C219 1.384 . S
H222 C228 0.930 . S
H223 C232 0.930 . S
H224 C237 0.929 . S
H225 C235 0.929 . S
H226 C230 0.929 . S
H227 C236 0.929 . S
C228 H222 0.930 . S
C228 C229 1.367 . S
C228 C236 1.378 . S
C229 C228 1.367 . S
C229 C237 1.433 . S
C230 H226 0.929 . S
C230 C232 1.378 . S
C230 C234 1.350 . S
C231 C234 1.463 . S
C231 C236 1.350 . S
C231 N239 1.427 . S
C232 H223 0.930 . S
C232 C230 1.378 . S
C232 C233 1.367 . S
C233 C232 1.367 . S
C233 C235 1.433 . S
C234 C230 1.350 . S
C234 C231 1.463 . S
C234 N238 1.427 . S
C235 H225 0.929 . S
C235 C233 1.433 . S
C235 N238 1.384 . S
C236 H227 0.929 . S
C236 C228 1.378 . S
C236 C231 1.350 . S
C237 H224 0.929 . S
C237 C229 1.433 . S
C237 N239 1.384 . S
N238 C234 1.427 . S
N238 C235 1.384 . S
N239 C231 1.427 . S
N239 C237 1.384 . S
H240 C246 0.930 . S
H241 C250 0.930 . S
H242 C255 0.929 . S
H243 C253 0.929 . S
H244 C248 0.929 . S
H245 C254 0.929 . S
C246 H240 0.930 . S
C246 C247 1.367 . S
C246 C254 1.378 . S
C247 C246 1.367 . S
C247 C255 1.433 . S
C248 H244 0.929 . S
C248 C250 1.378 . S
C248 C252 1.350 . S
C249 C252 1.463 . S
C249 C254 1.350 . S
C249 N257 1.427 . S
C250 H241 0.930 . S
C250 C248 1.378 . S
C250 C251 1.367 . S
C251 C250 1.367 . S
C251 C253 1.433 . S
C252 C248 1.350 . S
C252 C249 1.463 . S
C252 N256 1.427 . S
C253 H243 0.929 . S
C253 C251 1.433 . S
C253 N256 1.384 . S
C254 H245 0.929 . S
C254 C246 1.378 . S
C254 C249 1.350 . S
C255 H242 0.929 . S
C255 C247 1.433 . S
C255 N257 1.384 . S
N256 C252 1.427 . S
N256 C253 1.384 . S
N257 C249 1.427 . S
N257 C255 1.384 . S
H258 C264 0.930 . S
H259 C268 0.930 . S
H260 C273 0.929 . S
H261 C271 0.929 . S
H262 C266 0.929 . S
H263 C272 0.929 . S
C264 H258 0.930 . S
C264 C265 1.367 . S
C264 C272 1.378 . S
C265 C264 1.367 . S
C265 C273 1.433 . S
C266 H262 0.929 . S
C266 C268 1.378 . S
C266 C270 1.350 . S
C267 C270 1.463 . S
C267 C272 1.350 . S
C267 N275 1.427 . S
C268 H259 0.930 . S
C268 C266 1.378 . S
C268 C269 1.367 . S
C269 C268 1.367 . S
C269 C271 1.433 . S
C270 C266 1.350 . S
C270 C267 1.463 . S
C270 N274 1.427 . S
C271 H261 0.929 . S
C271 C269 1.433 . S
C271 N274 1.384 . S
C272 H263 0.929 . S
C272 C264 1.378 . S
C272 C267 1.350 . S
C273 H260 0.929 . S
C273 C265 1.433 . S
C273 N275 1.384 . S
N274 C270 1.427 . S
N274 C271 1.384 . S
N275 C267 1.427 . S
N275 C273 1.384 . S
H276 C282 0.930 . S
H277 C286 0.930 . S
H278 C291 0.929 . S
H279 C289 0.929 . S
H280 C284 0.929 . S
H281 C290 0.929 . S
C282 H276 0.930 . S
C282 C283 1.367 . S
C282 C290 1.378 . S
C283 C282 1.367 . S
C283 C291 1.433 . S
C284 H280 0.929 . S
C284 C286 1.378 . S
C284 C288 1.350 . S
C285 C288 1.463 . S
C285 C290 1.350 . S
C285 N293 1.427 . S
C286 H277 0.930 . S
C286 C284 1.378 . S
C286 C287 1.367 . S
C287 C286 1.367 . S
C287 C289 1.433 . S
C288 C284 1.350 . S
C288 C285 1.463 . S
C288 N292 1.427 . S
C289 H279 0.929 . S
C289 C287 1.433 . S
C289 N292 1.384 . S
C290 H281 0.929 . S
C290 C282 1.378 . S
C290 C285 1.350 . S
C291 H278 0.929 . S
C291 C283 1.433 . S
C291 N293 1.384 . S
N292 C288 1.427 . S
N292 C289 1.384 . S
N293 C285 1.427 . S
N293 C291 1.384 . S
H294 C300 0.930 . S
H295 C304 0.930 . S
H296 C309 0.929 . S
H297 C307 0.929 . S
H298 C302 0.929 . S
H299 C308 0.929 . S
C300 H294 0.930 . S
C300 C301 1.367 . S
C300 C308 1.378 . S
C301 C300 1.367 . S
C301 C309 1.433 . S
C302 H298 0.929 . S
C302 C304 1.378 . S
C302 C306 1.350 . S
C303 C306 1.463 . S
C303 C308 1.350 . S
C303 N311 1.427 . S
C304 H295 0.930 . S
C304 C302 1.378 . S
C304 C305 1.367 . S
C305 C304 1.367 . S
C305 C307 1.433 . S
C306 C302 1.350 . S
C306 C303 1.463 . S
C306 N310 1.427 . S
C307 H297 0.929 . S
C307 C305 1.433 . S
C307 N310 1.384 . S
C308 H299 0.929 . S
C308 C300 1.378 . S
C308 C303 1.350 . S
C309 H296 0.929 . S
C309 C301 1.433 . S
C309 N311 1.384 . S
N310 C306 1.427 . S
N310 C307 1.384 . S
N311 C303 1.427 . S
N311 C309 1.384 . S
H312 C318 0.930 . S
H313 C322 0.930 . S
H314 C327 0.929 . S
H315 C325 0.929 . S
H316 C320 0.929 . S
H317 C326 0.929 . S
C318 H312 0.930 . S
C318 C319 1.367 . S
C318 C326 1.378 . S
C319 C318 1.367 . S
C319 C327 1.433 . S
C320 H316 0.929 . S
C320 C322 1.378 . S
C320 C324 1.350 . S
C321 C324 1.463 . S
C321 C326 1.350 . S
C321 N329 1.427 . S
C322 H313 0.930 . S
C322 C320 1.378 . S
C322 C323 1.367 . S
C323 C322 1.367 . S
C323 C325 1.433 . S
C324 C320 1.350 . S
C324 C321 1.463 . S
C324 N328 1.427 . S
C325 H315 0.929 . S
C325 C323 1.433 . S
C325 N328 1.384 . S
C326 H317 0.929 . S
C326 C318 1.378 . S
C326 C321 1.350 . S
C327 H314 0.929 . S
C327 C319 1.433 . S
C327 N329 1.384 . S
N328 C324 1.427 . S
N328 C325 1.384 . S
N329 C321 1.427 . S
N329 C327 1.384 . S
H330 C336 0.930 . S
H331 C340 0.930 . S
H332 C345 0.929 . S
H333 C343 0.929 . S
H334 C338 0.929 . S
H335 C344 0.929 . S
C336 H330 0.930 . S
C336 C337 1.367 . S
C336 C344 1.378 . S
C337 C336 1.367 . S
C337 C345 1.433 . S
C338 H334 0.929 . S
C338 C340 1.378 . S
C338 C342 1.350 . S
C339 C342 1.463 . S
C339 C344 1.350 . S
C339 N347 1.427 . S
C340 H331 0.930 . S
C340 C338 1.378 . S
C340 C341 1.367 . S
C341 C340 1.367 . S
C341 C343 1.433 . S
C342 C338 1.350 . S
C342 C339 1.463 . S
C342 N346 1.427 . S
C343 H333 0.929 . S
C343 C341 1.433 . S
C343 N346 1.384 . S
C344 H335 0.929 . S
C344 C336 1.378 . S
C344 C339 1.350 . S
C345 H332 0.929 . S
C345 C337 1.433 . S
C345 N347 1.384 . S
N346 C342 1.427 . S
N346 C343 1.384 . S
N347 C339 1.427 . S
N347 C345 1.384 . S
H348 C354 0.930 . S
H349 C358 0.930 . S
H350 C363 0.929 . S
H351 C361 0.929 . S
H352 C356 0.929 . S
H353 C362 0.929 . S
C354 H348 0.930 . S
C354 C355 1.367 . S
C354 C362 1.378 . S
C355 C354 1.367 . S
C355 C363 1.433 . S
C356 H352 0.929 . S
C356 C358 1.378 . S
C356 C360 1.350 . S
C357 C360 1.463 . S
C357 C362 1.350 . S
C357 N365 1.427 . S
C358 H349 0.930 . S
C358 C356 1.378 . S
C358 C359 1.367 . S
C359 C358 1.367 . S
C359 C361 1.433 . S
C360 C356 1.350 . S
C360 C357 1.463 . S
C360 N364 1.427 . S
C361 H351 0.929 . S
C361 C359 1.433 . S
C361 N364 1.384 . S
C362 H353 0.929 . S
C362 C354 1.378 . S
C362 C357 1.350 . S
C363 H350 0.929 . S
C363 C355 1.433 . S
C363 N365 1.384 . S
N364 C360 1.427 . S
N364 C361 1.384 . S
N365 C357 1.427 . S
N365 C363 1.384 . S
H366 C372 0.930 . S
H367 C376 0.930 . S
H368 C381 0.929 . S
H369 C379 0.929 . S
H370 C374 0.929 . S
H371 C380 0.929 . S
C372 H366 0.930 . S
C372 C373 1.367 . S
C372 C380 1.378 . S
C373 C372 1.367 . S
C373 C381 1.433 . S
C374 H370 0.929 . S
C374 C376 1.378 . S
C374 C378 1.350 . S
C375 C378 1.463 . S
C375 C380 1.350 . S
C375 N383 1.427 . S
C376 H367 0.930 . S
C376 C374 1.378 . S
C376 C377 1.367 . S
C377 C376 1.367 . S
C377 C379 1.433 . S
C378 C374 1.350 . S
C378 C375 1.463 . S
C378 N382 1.427 . S
C379 H369 0.929 . S
C379 C377 1.433 . S
C379 N382 1.384 . S
C380 H371 0.929 . S
C380 C372 1.378 . S
C380 C375 1.350 . S
C381 H368 0.929 . S
C381 C373 1.433 . S
C381 N383 1.384 . S
N382 C378 1.427 . S
N382 C379 1.384 . S
N383 C375 1.427 . S
N383 C381 1.384 . S
H384 C390 0.930 . S
H385 C394 0.930 . S
H386 C399 0.929 . S
H387 C397 0.929 . S
H388 C392 0.929 . S
H389 C398 0.929 . S
C390 H384 0.930 . S
C390 C391 1.367 . S
C390 C398 1.378 . S
C391 C390 1.367 . S
C391 C399 1.433 . S
C392 H388 0.929 . S
C392 C394 1.378 . S
C392 C396 1.350 . S
C393 C396 1.463 . S
C393 C398 1.350 . S
C393 N401 1.427 . S
C394 H385 0.930 . S
C394 C392 1.378 . S
C394 C395 1.367 . S
C395 C394 1.367 . S
C395 C397 1.433 . S
C396 C392 1.350 . S
C396 C393 1.463 . S
C396 N400 1.427 . S
C397 H387 0.929 . S
C397 C395 1.433 . S
C397 N400 1.384 . S
C398 H389 0.929 . S
C398 C390 1.378 . S
C398 C393 1.350 . S
C399 H386 0.929 . S
C399 C391 1.433 . S
C399 N401 1.384 . S
N400 C396 1.427 . S
N400 C397 1.384 . S
N401 C393 1.427 . S
N401 C399 1.384 . S
H402 C408 0.930 . S
H403 C412 0.930 . S
H404 C417 0.929 . S
H405 C415 0.929 1_655 S
H406 C410 0.929 . S
H407 C416 0.922 1_655 S
C408 H402 0.930 . S
C408 C409 1.367 1_655 S
C408 C416 1.375 1_655 S
C409 C408 1.367 1_455 S
C409 C417 1.433 . S
C410 H406 0.929 . S
C410 C412 1.378 . S
C410 C414 1.350 . S
C411 C414 1.463 1_554 S
C411 C416 1.360 . S
C411 N419 1.427 . S
C412 H403 0.930 . S
C412 C410 1.378 . S
C412 C413 1.367 . S
C413 C412 1.367 . S
C413 C415 1.433 . S
C414 C410 1.350 . S
C414 C411 1.463 1_556 S
C414 N418 1.427 . S
C415 H405 0.929 1_455 S
C415 C413 1.433 . S
C415 N418 1.384 . S
C416 H407 0.922 1_455 S
C416 C408 1.375 1_455 S
C416 C411 1.360 . S
C417 H404 0.929 . S
C417 C409 1.433 . S
C417 N419 1.384 . S
N418 C414 1.427 . S
N418 C415 1.384 . S
N419 C411 1.427 . S
N419 C417 1.384 . S
H420 C426 0.930 . S
H421 C430 0.930 . S
H422 C435 0.929 . S
H423 C433 0.929 1_565 S
H424 C428 0.929 . S
H425 C434 0.929 . S
C426 H420 0.930 . S
C426 C427 1.367 1_565 S
C426 C434 1.378 . S
C427 C426 1.367 1_545 S
C427 C435 1.433 . S
C428 H424 0.929 . S
C428 C430 1.378 . S
C428 C432 1.350 . S
C429 C432 1.463 . S
C429 C434 1.350 1_545 S
C429 N437 1.427 . S
C430 H421 0.930 . S
C430 C428 1.378 . S
C430 C431 1.367 . S
C431 C430 1.367 . S
C431 C433 1.433 . S
C432 C428 1.350 . S
C432 C429 1.463 . S
C432 N436 1.427 . S
C433 H423 0.929 1_545 S
C433 C431 1.433 . S
C433 N436 1.384 . S
C434 H425 0.929 . S
C434 C426 1.378 . S
C434 C429 1.350 1_565 S
C435 H422 0.929 . S
C435 C427 1.433 . S
C435 N437 1.384 . S
N436 C432 1.427 . S
N436 C433 1.384 . S
N437 C429 1.427 . S
N437 C435 1.384 . S
H438 C444 0.930 . S
H439 C448 0.930 . S
H440 C453 0.929 . S
H441 C451 0.929 . S
H442 C446 0.929 . S
H443 C452 0.929 . S
C444 H438 0.930 . S
C444 C445 1.367 . S
C444 C452 1.378 . S
C445 C444 1.367 . S
C445 C453 1.433 . S
C446 H442 0.929 . S
C446 C448 1.378 . S
C446 C450 1.350 . S
C447 C450 1.463 . S
C447 C452 1.350 . S
C447 N455 1.427 . S
C448 H439 0.930 . S
C448 C446 1.378 . S
C448 C449 1.367 . S
C449 C448 1.367 . S
C449 C451 1.433 . S
C450 C446 1.350 . S
C450 C447 1.463 . S
C450 N454 1.427 . S
C451 H441 0.929 . S
C451 C449 1.433 . S
C451 N454 1.384 . S
C452 H443 0.929 . S
C452 C444 1.378 . S
C452 C447 1.350 . S
C453 H440 0.929 . S
C453 C445 1.433 . S
C453 N455 1.384 . S
N454 C450 1.427 . S
N454 C451 1.384 . S
N455 C447 1.427 . S
N455 C453 1.384 . S
H456 C462 0.930 . S
H457 C466 0.930 1_565 S
H458 C471 0.929 1_565 S
H459 C469 0.929 . S
H460 C464 0.929 1_565 S
H461 C470 0.929 . S
C462 H456 0.930 . S
C462 C463 1.367 . S
C462 C470 1.378 . S
C463 C462 1.367 . S
C463 C471 1.433 . S
C464 H460 0.929 1_545 S
C464 C466 1.378 . S
C464 C468 1.350 . S
C465 C468 1.463 . S
C465 C470 1.350 . S
C465 N473 1.427 . S
C466 H457 0.930 1_545 S
C466 C464 1.378 . S
C466 C467 1.367 . S
C467 C466 1.367 . S
C467 C469 1.433 . S
C468 C464 1.350 . S
C468 C465 1.463 . S
C468 N472 1.427 . S
C469 H459 0.929 . S
C469 C467 1.433 . S
C469 N472 1.384 . S
C470 H461 0.929 . S
C470 C462 1.378 . S
C470 C465 1.350 . S
C471 H458 0.929 1_545 S
C471 C463 1.433 . S
C471 N473 1.384 . S
N472 C468 1.427 . S
N472 C469 1.384 . S
N473 C465 1.427 . S
N473 C471 1.384 . S
H474 C480 0.930 . S
H475 C484 0.930 . S
H476 C489 0.929 . S
H477 C487 0.929 . S
H478 C482 0.945 . S
H479 C488 0.929 . S
C480 H474 0.930 . S
C480 C481 1.367 . S
C480 C488 1.378 . S
C481 C480 1.367 . S
C481 C489 1.433 . S
C482 H478 0.945 . S
C482 C484 1.378 . S
C482 C486 1.350 1_554 S
C483 C486 1.463 . S
C483 C488 1.350 . S
C483 N491 1.427 . S
C484 H475 0.930 . S
C484 C482 1.378 . S
C484 C485 1.367 . S
C485 C484 1.367 . S
C485 C487 1.433 . S
C486 C482 1.350 1_556 S
C486 C483 1.463 . S
C486 N490 1.427 . S
C487 H477 0.929 . S
C487 C485 1.433 . S
C487 N490 1.384 1_554 S
C488 H479 0.929 . S
C488 C480 1.378 . S
C488 C483 1.350 . S
C489 H476 0.929 . S
C489 C481 1.433 . S
C489 N491 1.384 . S
N490 C486 1.427 . S
N490 C487 1.384 1_556 S
N491 C483 1.427 . S
N491 C489 1.384 . S
H492 C498 0.930 . S
H493 C502 0.930 . S
H494 C507 0.934 1_655 S
H495 C505 0.929 . S
H496 C500 0.936 1_655 S
H497 C506 0.929 . S
C498 H492 0.930 . S
C498 C499 1.367 . S
C498 C506 1.378 . S
C499 C498 1.367 . S
C499 C507 1.433 . S
C500 H496 0.936 1_455 S
C500 C502 1.376 1_455 S
C500 C504 1.345 . S
C501 C504 1.463 . S
C501 C506 1.350 . S
C501 N509 1.427 . S
C502 H493 0.930 . S
C502 C500 1.376 1_655 S
C502 C503 1.367 1_655 S
C503 C502 1.367 1_455 S
C503 C505 1.433 . S
C504 C500 1.345 . S
C504 C501 1.463 . S
C504 N508 1.427 . S
C505 H495 0.929 . S
C505 C503 1.433 . S
C505 N508 1.384 . S
C506 H497 0.929 . S
C506 C498 1.378 . S
C506 C501 1.350 . S
C507 H494 0.934 1_455 S
C507 C499 1.433 . S
C507 N509 1.384 . S
N508 C504 1.427 . S
N508 C505 1.384 . S
N509 C501 1.427 . S
N509 C507 1.384 . S
C193 C7 0.753 . S
C197 C185 0.767 . S
C211 C51 1.949 . S
C215 C163 1.895 . S
C229 C87 1.290 . S
C233 C174 1.283 . S
C247 C16 0.347 . S
C251 C179 0.236 . S
C269 C157 1.850 . S
C265 C42 1.882 . S
C287 C168 1.166 . S
C283 C96 1.174 . S
C301 C47 1.302 . S
C305 C141 1.309 . S
C319 C91 3.044 . S
C323 C146 3.002 1_655 S
C337 C2 1.900 . S
C341 C124 1.886 . S
C359 C135 1.158 . S
C355 C56 1.163 . S
C377 C152 3.003 . S
C373 C82 3.049 . S
C391 C11 1.952 . S
C395 C130 1.911 . S
C413 C147 1.731 . S
C409 C19 1.698 . S
C427 C50 1.418 . S
C431 C125 1.471 . S
C445 C99 1.517 . S
C449 C136 1.537 . S
C467 C169 1.521 . S
C463 C59 1.505 . S
C485 C180 1.264 . S
C481 C90 1.253 . S
C499 C10 1.401 . S
C503 C158 1.436 . S
