# Generated by pormake.
# Topology pyr, (3,6)-cn, num edge types: 1
# Building blocks:
#     Node 0, Type 0, BuildingBlock: BETDIP_clean_linker_0, # of connection points: 3
#     Node 1, Type 0, BuildingBlock: BETDIP_clean_linker_0, # of connection points: 3
#     Node 2, Type 0, BuildingBlock: BETDIP_clean_linker_0, # of connection points: 3
#     Node 3, Type 0, BuildingBlock: BETDIP_clean_linker_0, # of connection points: 3
#     Node 4, Type 0, BuildingBlock: BETDIP_clean_linker_0, # of connection points: 3
#     Node 5, Type 0, BuildingBlock: BETDIP_clean_linker_0, # of connection points: 3
#     Node 6, Type 0, BuildingBlock: BETDIP_clean_linker_0, # of connection points: 3
#     Node 7, Type 0, BuildingBlock: BETDIP_clean_linker_0, # of connection points: 3
#     Node 8, Type 1, BuildingBlock: INOVEN_clean_sbu_0, # of connection points: 6
#     Node 9, Type 1, BuildingBlock: INOVEN_clean_sbu_0, # of connection points: 6
#     Node 10, Type 1, BuildingBlock: INOVEN_clean_sbu_0, # of connection points: 6
#     Node 11, Type 1, BuildingBlock: INOVEN_clean_sbu_0, # of connection points: 6
#     Edge 12, Type (0, 1), None
#     Edge 13, Type (0, 1), None
#     Edge 14, Type (0, 1), None
#     Edge 15, Type (0, 1), None
#     Edge 16, Type (0, 1), None
#     Edge 17, Type (0, 1), None
#     Edge 18, Type (0, 1), None
#     Edge 19, Type (0, 1), None
#     Edge 20, Type (0, 1), None
#     Edge 21, Type (0, 1), None
#     Edge 22, Type (0, 1), None
#     Edge 23, Type (0, 1), None
#     Edge 24, Type (0, 1), None
#     Edge 25, Type (0, 1), None
#     Edge 26, Type (0, 1), None
#     Edge 27, Type (0, 1), None
#     Edge 28, Type (0, 1), None
#     Edge 29, Type (0, 1), None
#     Edge 30, Type (0, 1), None
#     Edge 31, Type (0, 1), None
#     Edge 32, Type (0, 1), None
#     Edge 33, Type (0, 1), None
#     Edge 34, Type (0, 1), None
#     Edge 35, Type (0, 1), None
# Relax obj value: 0.370
# Max RMSD: 0.221
# Mean RMSD: 0.147
data_MOF--net-pyr--node1-INOVEN_clean_sbu_0--node2-BETDIP_clean_linker_0--edge1-none
_symmetry_space_group_name_H-M    P1
_symmetry_Int_Tables_number       1
_symmetry_cell_setting            triclinic
loop_
_symmetry_equiv_pos_as_xyz
'x, y, z'
_cell_length_a     16.953943
_cell_length_b     16.855052
_cell_length_c     16.693313
_cell_angle_alpha  91.227677
_cell_angle_beta   86.071136
_cell_angle_gamma 112.07661
loop_
_atom_site_label
_atom_site_type_symbol
_atom_site_fract_x
_atom_site_fract_y
_atom_site_fract_z
_atom_type_partial_charge
H0 H 0.44151 0.49246 0.35023 0.0
H1 H 0.61936 0.41588 0.20716 0.0
H2 H 0.39816 0.22619 0.32659 0.0
H3 H 0.53374 0.65634 0.20823 0.0
C4 C 0.50478 0.58726 0.2147 0.0
C5 C 0.46142 0.44231 0.32675 0.0
C6 C 0.40939 0.35731 0.34137 0.0
C7 C 0.53054 0.46246 0.27056 0.0
C8 C 0.56409 0.39983 0.24938 0.0
C9 C 0.51958 0.31423 0.27478 0.0
C10 C 0.43884 0.29275 0.31608 0.0
N11 N 0.5589 0.54156 0.22827 0.0
H12 H 0.34955 0.29862 0.67147 0.0
H13 H 0.42256 1.09707 0.57269 0.0
H14 H 0.47255 0.17864 0.81666 0.0
H15 H 0.2924 1.13211 0.44557 0.0
C16 C 0.28507 0.15437 0.50613 0.0
C17 C 0.38147 0.25441 0.67751 0.0
C18 C 0.41044 0.2444 0.7512 0.0
C19 C 0.38698 0.2021 0.61331 0.0
C20 C 0.42167 0.13916 0.62241 0.0
C21 C 0.45364 1.13025 0.69593 0.0
C22 C 0.45072 0.186 0.75872 0.0
N23 N 0.35849 0.21436 0.539 0.0
H24 H 0.84242 0.61713 0.94129 0.0
H25 H 0.62086 0.39222 0.90658 0.0
H26 H 0.79636 0.39004 1.08064 0.0
H27 H 0.65026 0.4659 0.77785 0.0
C28 C 0.65562 0.52925 0.79849 0.0
C29 C 0.80294 0.55246 0.95824 0.0
C30 C 0.83006 0.51023 1.01716 0.0
C31 C 0.7271 0.51159 0.91831 0.0
C32 C 0.67915 0.42455 0.93588 0.0
C33 C 0.703 0.38013 0.99459 0.0
C34 C 0.77828 0.42368 1.03512 0.0
N35 N 0.69742 0.5604 0.86578 0.0
H36 H 0.78135 0.65787 0.46192 0.0
H37 H 1.02335 0.87132 0.42526 0.0
H38 H 0.83621 0.88368 0.60723 0.0
H39 H 1.02858 0.80041 0.30647 0.0
C40 C 0.99023 0.73254 0.31231 0.0
C41 C 0.8241 0.72193 0.47637 0.0
C42 C 0.79935 0.76681 0.5394 0.0
C43 C 0.90473 0.75787 0.43315 0.0
C44 C 0.96077 0.84189 0.45557 0.0
C45 C 0.93545 0.88763 0.51882 0.0
C46 C 0.85526 0.84899 0.55904 0.0
N47 N 0.92693 0.70556 0.37181 0.0
H48 H 0.52847 0.89114 1.03884 0.0
H49 H 0.69362 0.79391 0.90094 0.0
H50 H 0.7433 1.06243 0.89694 0.0
H51 H 0.62004 0.66214 1.07814 0.0
C52 C 0.64587 0.72738 1.05575 0.0
C53 C 0.5805 0.90101 0.9938 0.0
C54 C 0.62428 0.98253 0.95861 0.0
C55 C 0.6115 0.83552 0.97883 0.0
C56 C 0.67615 0.84721 0.91907 0.0
C57 C 0.72893 0.9297 0.89557 0.0
C58 C 0.70199 0.99769 0.91371 0.0
N59 N 0.58765 0.76453 1.03199 0.0
H60 H 0.83539 1.06897 0.54865 0.0
H61 H 0.69976 0.19914 0.69018 0.0
H62 H 0.7512 0.24666 0.43648 0.0
H63 H 0.84824 0.15149 0.80166 0.0
C64 C 0.85647 1.12965 0.7412 0.0
C65 C 0.80612 1.11573 0.55329 0.0
C66 C 0.80221 0.16029 0.48537 0.0
C67 C 0.77251 1.13235 0.62765 0.0
C68 C 0.72811 0.18831 0.6329 0.0
C69 C 0.71852 0.2277 0.56296 0.0
C70 C 0.75746 0.21499 0.49032 0.0
N71 N 0.78296 1.09227 0.69718 0.0
H72 H 0.30752 0.70472 0.2947 0.0
H73 H 0.53418 0.92533 0.32922 0.0
H74 H 0.36556 0.92812 0.14703 0.0
H75 H 0.48363 0.8522 0.47264 0.0
C76 C 0.48044 0.78921 0.45297 0.0
C77 C 0.34928 0.76864 0.27705 0.0
C78 C 0.32644 0.81055 0.21506 0.0
C79 C 0.42341 0.80871 0.31928 0.0
C80 C 0.47596 0.89428 0.29888 0.0
C81 C 0.45613 0.93782 0.23592 0.0
C82 C 0.38103 0.8953 0.19507 0.0
N83 N 0.44619 0.75923 0.37681 0.0
H84 H 0.10283 0.38438 0.83229 0.0
H85 H 0.32322 0.62239 0.80498 0.0
H86 H 0.29695 0.41381 0.6431 0.0
H87 H 0.25385 0.67667 0.88941 0.0
C88 C 0.19912 0.63031 0.92213 0.0
C89 C 0.16312 0.42319 0.80174 0.0
C90 C 0.19588 0.38809 0.73512 0.0
C91 C 0.20722 0.50854 0.82873 0.0
C92 C 0.28661 0.55777 0.78694 0.0
C93 C 0.31886 0.52415 0.71941 0.0
C94 C 0.27284 0.43972 0.69497 0.0
N95 N 0.16968 0.54217 0.89599 0.0
Gd96 Gd 1.05857 0.17102 0.56408 0.0
Gd97 Gd 0.08119 1.10386 0.686 0.0
C98 C 0.15019 0.29943 0.70304 0.0
C99 C 1.06302 0.26829 0.44871 0.0
C100 C 0.14742 0.31247 0.40704 0.0
C101 C 0.16991 0.27493 0.33764 0.0
C102 C 0.21274 0.37075 0.45059 0.0
C103 C 0.3192 0.33888 0.36635 0.0
C104 C 0.29762 0.38327 0.43073 0.0
C105 C 0.25506 0.28731 0.31798 0.0
C106 C 0.20636 0.1435 0.53582 0.0
C107 C 0.98843 0.97617 0.54581 0.0
C108 C 0.07581 1.00581 0.8014 0.0
C109 C 0.98989 0.96218 0.84083 0.0
C110 C 0.96628 1.00084 0.90897 0.0
C111 C 0.92505 0.90627 0.795 0.0
C112 C 0.81885 0.94416 0.87361 0.0
C113 C 0.84044 0.89762 0.81126 0.0
C114 C 0.88175 0.99298 0.92441 0.0
C115 C 0.934 1.13265 0.71486 0.0
O116 O 0.09146 0.28505 0.65101 0.0
O117 O 0.17469 0.2359 0.71626 0.0
O118 O 1.0333 0.18538 0.44077 0.0
O119 O 1.05356 0.29086 0.52293 0.0
O120 O 0.14284 1.11613 0.4918 0.0
O121 O 0.18745 0.17626 0.59916 0.0
O122 O 1.04558 0.98882 0.59932 0.0
O123 O 0.96572 1.04061 0.53235 0.0
O124 O 0.10448 1.08851 0.8096 0.0
O125 O 0.0872 0.98415 0.72717 0.0
O126 O 0.99636 0.15618 0.76036 0.0
O127 O 0.95265 1.10036 0.65109 0.0
H128 H 0.1211 0.23 0.3027 0.0
H129 H 0.19824 0.40143 0.50419 0.0
H130 H 0.34623 0.42628 0.46691 0.0
H131 H 0.27073 0.25609 0.26531 0.0
H132 H 1.01441 1.04386 0.94579 0.0
H133 H 0.94023 0.87481 0.74229 0.0
H134 H 0.79208 0.85632 0.77394 0.0
H135 H 0.86553 1.02539 0.97595 0.0
Gd136 Gd 0.65366 0.15889 0.14223 0.0
Gd137 Gd 0.50401 0.15393 1.07662 0.0
C138 C 0.54452 0.24551 0.23924 0.0
C139 C 0.80565 0.16794 0.16784 0.0
C140 C 0.84076 0.15073 0.24028 0.0
C141 C 0.79906 1.07286 0.2821 0.0
C142 C 0.89591 0.22155 0.2803 0.0
C143 C 0.83871 0.14804 0.40643 0.0
C144 C 0.89233 0.22122 0.36349 0.0
C145 C 0.79871 1.07147 0.3656 0.0
C146 C 0.51607 1.02535 0.2086 0.0
C147 C 0.60186 1.05534 0.98671 0.0
C148 C 0.36046 0.16021 1.04235 0.0
C149 C 0.34727 0.21774 0.98495 0.0
C150 C 0.41702 0.29279 0.96161 0.0
C151 C 0.28145 0.18255 0.93334 0.0
C152 C 0.37462 0.26899 0.82562 0.0
C153 C 0.29516 0.20918 0.85347 0.0
C154 C 0.43057 0.3186 0.88124 0.0
C155 C 0.64555 0.29028 1.01724 0.0
O156 O 0.62476 0.25872 0.21785 0.0
O157 O 0.48489 0.18201 0.20623 0.0
O158 O 0.74972 1.10227 0.13406 0.0
O159 O 0.78172 0.23311 0.17416 0.0
O160 O 0.58081 1.07325 0.24749 0.0
O161 O 0.52774 1.04898 0.13589 0.0
O162 O 0.52337 1.04325 1.01311 0.0
O163 O 0.66306 1.12296 1.01257 0.0
O164 O 0.39932 0.19622 0.10602 0.0
O165 O 0.39132 1.10617 1.0089 0.0
O166 O 0.58427 0.24242 0.97504 0.0
O167 O 0.62835 0.26422 1.08856 0.0
H168 H 0.7574 1.0165 0.2522 0.0
H169 H 0.92959 0.28171 0.24888 0.0
H170 H 0.92185 0.28147 0.39409 0.0
H171 H 0.75686 1.01453 0.398 0.0
H172 H 0.46779 0.32253 1.00144 0.0
H173 H 0.22703 1.125 0.95025 0.0
H174 H 0.25289 0.16974 0.81066 0.0
H175 H 0.49097 0.36687 0.86048 0.0
Gd176 Gd 0.53922 0.58613 0.57576 0.0
Gd177 Gd 0.57786 0.72572 0.68139 0.0
C178 C 0.62404 0.57668 0.74846 0.0
C179 C 0.5543 0.45804 0.49819 0.0
C180 C 0.59376 0.39789 0.52007 0.0
C181 C 0.56022 0.31318 0.49384 0.0
C182 C 0.66389 0.42377 0.56848 0.0
C183 C 0.66756 0.28145 0.56124 0.0
C184 C 0.70008 0.36565 0.58955 0.0
C185 C 0.59701 0.2555 0.51377 0.0
C186 C 0.39793 0.57586 0.66946 0.0
C187 C 0.50332 0.74108 0.50492 0.0
C188 C 0.56614 0.85424 0.76182 0.0
C189 C 0.53911 0.92528 0.74361 0.0
C190 C 0.56025 0.96741 0.66868 0.0
C191 C 0.48856 0.94931 0.8013 0.0
C192 C 0.48258 1.05872 0.71096 0.0
C193 C 0.4606 1.01507 0.7853 0.0
C194 C 0.53189 1.03325 0.65239 0.0
C195 C 0.71818 0.72892 0.5902 0.0
O196 O 0.60024 0.54452 0.67708 0.0
O197 O 0.6173 0.64968 0.77045 0.0
O198 O 0.48517 0.45246 0.54113 0.0
O199 O 0.6063 0.53717 0.48495 0.0
O200 O 0.40038 0.56335 0.59236 0.0
O201 O 0.47286 0.59721 0.69344 0.0
O202 O 0.52502 0.77288 0.57704 0.0
O203 O 0.50528 0.66543 0.48536 0.0
O204 O 0.63707 0.85524 0.72516 0.0
O205 O 0.5061 0.77777 0.76512 0.0
O206 O 0.7164 0.74609 0.66628 0.0
O207 O 0.64466 0.71211 0.56513 0.0
H208 H 0.50662 0.29195 0.45668 0.0
H209 H 0.69265 0.48947 0.58787 0.0
H210 H 0.75648 0.38775 0.6236 0.0
H211 H 0.57262 0.19136 0.48931 0.0
H212 H 0.5986 0.9495 0.62265 0.0
H213 H 0.47004 0.91665 0.85879 0.0
H214 H 0.42052 1.03079 0.83114 0.0
H215 H 0.54977 1.06508 0.59454 0.0
Gd216 Gd 0.07666 0.58298 0.15386 0.0
Gd217 Gd 0.07886 0.74159 1.08091 0.0
C218 C 0.24492 0.76478 0.17343 0.0
C219 C 0.14105 0.47076 0.18487 0.0
C220 C 0.23075 0.48485 0.20134 0.0
C221 C 0.26897 0.53427 0.26711 0.0
C222 C 0.28286 0.46046 0.14447 0.0
C223 C 0.41006 0.54587 0.21245 0.0
C224 C 0.37173 0.49012 0.15039 0.0
C225 C 0.3576 0.56569 0.27156 0.0
C226 C 1.01064 0.67691 0.25547 0.0
C227 C 0.91252 0.55744 1.05796 0.0
C228 C 1.01238 0.8538 1.05836 0.0
C229 C 0.92125 0.83813 1.04746 0.0
C230 C 0.87836 0.78323 0.98677 0.0
C231 C 0.87275 0.86501 0.10611 0.0
C232 C 0.74058 0.7722 1.04971 0.0
C233 C 0.78309 0.83292 0.10674 0.0
C234 C 0.78923 0.74886 0.98943 0.0
C235 C 0.16093 0.66379 0.98159 0.0
O236 O 0.20961 0.68007 0.17909 0.0
O237 O 0.20513 0.80777 0.13836 0.0
O238 O 0.0959 0.49635 0.23885 0.0
O239 O 0.13131 0.49083 0.11208 0.0
O240 O 0.97902 0.59319 0.25404 0.0
O241 O 0.07449 0.70325 0.20564 0.0
O242 O 0.94875 0.64191 1.04987 0.0
O243 O 0.95032 0.51561 1.09733 0.0
O244 O 1.05522 0.82964 1.00079 0.0
O245 O 1.02623 0.8328 0.12942 0.0
O246 O 0.18476 0.74659 0.99058 0.0
O247 O 0.09219 0.62472 1.02499 0.0
H248 H 0.23105 0.55276 0.31308 0.0
H249 H 0.25536 0.42187 1.09328 0.0
H250 H 0.41072 0.47295 1.10447 0.0
H251 H 0.38547 0.60562 0.32162 0.0
H252 H 0.91355 0.76303 0.93951 0.0
H253 H 0.90392 0.90739 0.15383 0.0
H254 H 0.74702 0.85212 0.15402 0.0
H255 H 0.75782 0.70361 0.94406 0.0
loop_
_geom_bond_atom_site_label_1
_geom_bond_atom_site_label_2
_geom_bond_distance
_geom_bond_site_symmetry_2
_ccdc_geom_bond_type
H0 C5 0.930 . S
H1 C8 0.930 . S
H2 C10 0.930 . S
H3 C4 1.016 . S
C4 H3 1.016 . S
C4 N11 1.286 . S
C5 H0 0.930 . S
C5 C6 1.397 . S
C5 C7 1.361 . S
C6 C5 1.397 . S
C6 C10 1.390 . S
C7 C5 1.361 . S
C7 C8 1.393 . S
C7 N11 1.413 . S
C8 H1 0.930 . S
C8 C7 1.393 . S
C8 C9 1.399 . S
C9 C8 1.399 . S
C9 C10 1.381 . S
C10 H2 0.930 . S
C10 C6 1.390 . S
C10 C9 1.381 . S
N11 C4 1.286 . S
N11 C7 1.413 . S
H12 C17 0.930 . S
H13 C20 0.930 . S
H14 C22 0.930 . S
H15 C16 1.016 1_455 S
C16 H15 1.016 1_655 S
C16 N23 1.286 . S
C17 H12 0.930 . S
C17 C18 1.397 . S
C17 C19 1.361 . S
C18 C17 1.397 . S
C18 C22 1.390 . S
C19 C17 1.361 . S
C19 C20 1.393 . S
C19 N23 1.413 1_455 S
C20 H13 0.930 . S
C20 C19 1.393 . S
C20 C21 1.399 . S
C21 C20 1.399 . S
C21 C22 1.381 . S
C22 H14 0.930 . S
C22 C18 1.390 . S
C22 C21 1.381 . S
N23 C16 1.286 . S
N23 C19 1.413 1_655 S
H24 C29 0.930 . S
H25 C32 0.930 . S
H26 C34 0.930 . S
H27 C28 1.016 . S
C28 H27 1.016 . S
C28 N35 1.286 . S
C29 H24 0.930 . S
C29 C30 1.397 . S
C29 C31 1.361 . S
C30 C29 1.397 . S
C30 C34 1.390 . S
C31 C29 1.361 . S
C31 C32 1.393 . S
C31 N35 1.413 . S
C32 H25 0.930 . S
C32 C31 1.393 . S
C32 C33 1.399 . S
C33 C32 1.399 . S
C33 C34 1.381 . S
C34 H26 0.930 . S
C34 C30 1.390 . S
C34 C33 1.381 . S
N35 C28 1.286 . S
N35 C31 1.413 . S
H36 C41 0.930 . S
H37 C44 0.930 . S
H38 C46 0.930 . S
H39 C40 1.016 . S
C40 H39 1.016 . S
C40 N47 1.286 . S
C41 H36 0.930 . S
C41 C42 1.397 . S
C41 C43 1.361 . S
C42 C41 1.397 . S
C42 C46 1.390 . S
C43 C41 1.361 . S
C43 C44 1.393 . S
C43 N47 1.413 . S
C44 H37 0.930 . S
C44 C43 1.393 . S
C44 C45 1.399 . S
C45 C44 1.399 . S
C45 C46 1.381 . S
C46 H38 0.930 . S
C46 C42 1.390 . S
C46 C45 1.381 . S
N47 C40 1.286 . S
N47 C43 1.413 . S
H48 C53 0.930 . S
H49 C56 0.930 . S
H50 C58 0.930 . S
H51 C52 1.016 . S
C52 H51 1.016 . S
C52 N59 1.286 . S
C53 H48 0.930 . S
C53 C54 1.397 . S
C53 C55 1.361 . S
C54 C53 1.397 . S
C54 C58 1.390 . S
C55 C53 1.361 . S
C55 C56 1.393 . S
C55 N59 1.413 . S
C56 H49 0.930 . S
C56 C55 1.393 . S
C56 C57 1.399 . S
C57 C56 1.399 . S
C57 C58 1.381 . S
C58 H50 0.930 . S
C58 C54 1.390 . S
C58 C57 1.381 . S
N59 C52 1.286 . S
N59 C55 1.413 . S
H60 C65 0.930 . S
H61 C68 0.930 . S
H62 C70 0.930 . S
H63 C64 1.016 . S
C64 H63 1.016 . S
C64 N71 1.286 1_455 S
C65 H60 0.930 . S
C65 C66 1.397 . S
C65 C67 1.361 . S
C66 C65 1.397 . S
C66 C70 1.390 . S
C67 C65 1.361 . S
C67 C68 1.393 . S
C67 N71 1.413 . S
C68 H61 0.930 . S
C68 C67 1.393 . S
C68 C69 1.399 . S
C69 C68 1.399 . S
C69 C70 1.381 . S
C70 H62 0.930 . S
C70 C66 1.390 . S
C70 C69 1.381 . S
N71 C64 1.286 1_655 S
N71 C67 1.413 . S
H72 C77 0.930 . S
H73 C80 0.930 . S
H74 C82 0.930 . S
H75 C76 1.016 . S
C76 H75 1.016 . S
C76 N83 1.286 . S
C77 H72 0.930 . S
C77 C78 1.397 . S
C77 C79 1.361 . S
C78 C77 1.397 . S
C78 C82 1.390 . S
C79 C77 1.361 . S
C79 C80 1.393 . S
C79 N83 1.413 . S
C80 H73 0.930 . S
C80 C79 1.393 . S
C80 C81 1.399 . S
C81 C80 1.399 . S
C81 C82 1.381 . S
C82 H74 0.930 . S
C82 C78 1.390 . S
C82 C81 1.381 . S
N83 C76 1.286 . S
N83 C79 1.413 . S
H84 C89 0.930 . S
H85 C92 0.930 . S
H86 C94 0.930 . S
H87 C88 1.016 . S
C88 H87 1.016 . S
C88 N95 1.286 . S
C89 H84 0.930 . S
C89 C90 1.397 . S
C89 C91 1.361 . S
C90 C89 1.397 . S
C90 C94 1.390 . S
C91 C89 1.361 . S
C91 C92 1.393 . S
C91 N95 1.413 . S
C92 H85 0.930 . S
C92 C91 1.393 . S
C92 C93 1.399 . S
C93 C92 1.399 . S
C93 C94 1.381 . S
C94 H86 0.930 . S
C94 C90 1.390 . S
C94 C93 1.381 . S
N95 C88 1.286 . S
N95 C91 1.413 . S
Gd96 C99 2.818 . S
Gd96 O116 2.377 . S
Gd96 O118 2.448 . S
Gd96 O119 2.506 . S
Gd96 O120 2.435 1_545 S
Gd96 O121 2.717 1_545 S
Gd96 O123 2.395 1_445 S
Gd96 O127 2.327 1_455 S
Gd97 C108 2.818 1_545 S
Gd97 O117 2.395 1_655 S
Gd97 O121 2.327 1_645 S
Gd97 O122 2.377 1_545 S
Gd97 O124 2.448 1_545 S
Gd97 O125 2.506 1_545 S
Gd97 O126 2.435 . S
Gd97 O127 2.717 . S
C98 O116 1.240 . S
C98 O117 1.240 . S
C99 Gd96 2.818 . S
C99 C100 1.510 . S
C99 O118 1.249 . S
C99 O119 1.252 . S
C100 C99 1.510 . S
C100 C101 1.404 . S
C100 C102 1.352 . S
C101 C100 1.404 . S
C101 C105 1.389 . S
C101 H128 0.930 . S
C102 C100 1.352 . S
C102 C104 1.374 . S
C102 H129 0.931 . S
C103 C104 1.359 . S
C103 C105 1.364 . S
C104 C102 1.374 . S
C104 C103 1.359 . S
C104 H130 0.931 . S
C105 C101 1.389 . S
C105 C103 1.364 . S
C105 H131 0.931 . S
C106 O120 1.256 . S
C106 O121 1.257 . S
C107 O122 1.240 . S
C107 O123 1.240 . S
C108 Gd97 2.818 1_565 S
C108 C109 1.510 . S
C108 O124 1.249 . S
C108 O125 1.252 . S
C109 C108 1.510 . S
C109 C110 1.404 . S
C109 C111 1.352 . S
C110 C109 1.404 . S
C110 C114 1.389 . S
C110 H132 0.930 . S
C111 C109 1.352 . S
C111 C113 1.374 . S
C111 H133 0.931 . S
C112 C113 1.359 . S
C112 C114 1.364 . S
C113 C111 1.374 . S
C113 C112 1.359 . S
C113 H134 0.931 . S
C114 C110 1.389 . S
C114 C112 1.364 . S
C114 H135 0.931 . S
C115 O126 1.256 . S
C115 O127 1.257 . S
O116 Gd96 2.377 . S
O116 C98 1.240 . S
O117 Gd97 2.395 1_455 S
O117 C98 1.240 . S
O118 Gd96 2.448 . S
O118 C99 1.249 . S
O119 Gd96 2.506 . S
O119 C99 1.252 . S
O120 Gd96 2.435 1_565 S
O120 C106 1.256 . S
O121 Gd96 2.717 1_565 S
O121 Gd97 2.327 1_465 S
O121 C106 1.257 . S
O122 Gd97 2.377 1_565 S
O122 C107 1.240 . S
O123 Gd96 2.395 1_665 S
O123 C107 1.240 . S
O124 Gd97 2.448 1_565 S
O124 C108 1.249 . S
O125 Gd97 2.506 1_565 S
O125 C108 1.252 . S
O126 Gd97 2.435 . S
O126 C115 1.256 . S
O127 Gd96 2.327 1_655 S
O127 Gd97 2.717 . S
O127 C115 1.257 . S
H128 C101 0.930 . S
H129 C102 0.931 . S
H130 C104 0.931 . S
H131 C105 0.931 . S
H132 C110 0.930 . S
H133 C111 0.931 . S
H134 C113 0.931 . S
H135 C114 0.931 . S
Gd136 C139 2.818 . S
Gd136 O156 2.377 . S
Gd136 O158 2.448 . S
Gd136 O159 2.506 . S
Gd136 O160 2.435 1_545 S
Gd136 O161 2.717 1_545 S
Gd136 O163 2.395 1_544 S
Gd136 O167 2.327 1_554 S
Gd137 C148 2.818 1_545 S
Gd137 O157 2.395 1_556 S
Gd137 O161 2.327 1_546 S
Gd137 O162 2.377 1_545 S
Gd137 O164 2.448 1_545 S
Gd137 O165 2.506 1_545 S
Gd137 O166 2.435 . S
Gd137 O167 2.717 . S
C138 O156 1.240 . S
C138 O157 1.240 . S
C139 Gd136 2.818 . S
C139 C140 1.510 . S
C139 O158 1.249 . S
C139 O159 1.252 . S
C140 C139 1.510 . S
C140 C141 1.404 . S
C140 C142 1.352 . S
C141 C140 1.404 . S
C141 C145 1.389 . S
C141 H168 0.930 . S
C142 C140 1.352 . S
C142 C144 1.374 . S
C142 H169 0.931 . S
C143 C144 1.359 . S
C143 C145 1.364 . S
C144 C142 1.374 . S
C144 C143 1.359 . S
C144 H170 0.931 . S
C145 C141 1.389 . S
C145 C143 1.364 . S
C145 H171 0.931 . S
C146 O160 1.256 . S
C146 O161 1.257 . S
C147 O162 1.240 . S
C147 O163 1.240 . S
C148 Gd137 2.818 1_565 S
C148 C149 1.510 . S
C148 O164 1.249 . S
C148 O165 1.252 . S
C149 C148 1.510 . S
C149 C150 1.404 . S
C149 C151 1.352 . S
C150 C149 1.404 . S
C150 C154 1.389 . S
C150 H172 0.930 . S
C151 C149 1.352 . S
C151 C153 1.374 . S
C151 H173 0.931 . S
C152 C153 1.359 . S
C152 C154 1.364 . S
C153 C151 1.374 . S
C153 C152 1.359 . S
C153 H174 0.931 . S
C154 C150 1.389 . S
C154 C152 1.364 . S
C154 H175 0.931 . S
C155 O166 1.256 . S
C155 O167 1.257 . S
O156 Gd136 2.377 . S
O156 C138 1.240 . S
O157 Gd137 2.395 1_554 S
O157 C138 1.240 . S
O158 Gd136 2.448 . S
O158 C139 1.249 . S
O159 Gd136 2.506 . S
O159 C139 1.252 . S
O160 Gd136 2.435 1_565 S
O160 C146 1.256 . S
O161 Gd136 2.717 1_565 S
O161 Gd137 2.327 1_564 S
O161 C146 1.257 . S
O162 Gd137 2.377 1_565 S
O162 C147 1.240 . S
O163 Gd136 2.395 1_566 S
O163 C147 1.240 . S
O164 Gd137 2.448 1_565 S
O164 C148 1.249 . S
O165 Gd137 2.506 1_565 S
O165 C148 1.252 . S
O166 Gd137 2.435 . S
O166 C155 1.256 . S
O167 Gd136 2.327 1_556 S
O167 Gd137 2.717 . S
O167 C155 1.257 . S
H168 C141 0.930 . S
H169 C142 0.931 . S
H170 C144 0.931 . S
H171 C145 0.931 . S
H172 C150 0.930 . S
H173 C151 0.931 . S
H174 C153 0.931 . S
H175 C154 0.931 . S
Gd176 C179 2.818 . S
Gd176 O196 2.377 . S
Gd176 O198 2.448 . S
Gd176 O199 2.506 . S
Gd176 O200 2.435 . S
Gd176 O201 2.717 . S
Gd176 O203 2.395 . S
Gd176 O207 2.327 . S
Gd177 C188 2.818 . S
Gd177 O197 2.395 . S
Gd177 O201 2.327 . S
Gd177 O202 2.377 . S
Gd177 O204 2.448 . S
Gd177 O205 2.506 . S
Gd177 O206 2.435 . S
Gd177 O207 2.717 . S
C178 O196 1.240 . S
C178 O197 1.240 . S
C179 Gd176 2.818 . S
C179 C180 1.510 . S
C179 O198 1.249 . S
C179 O199 1.252 . S
C180 C179 1.510 . S
C180 C181 1.404 . S
C180 C182 1.352 . S
C181 C180 1.404 . S
C181 C185 1.389 . S
C181 H208 0.930 . S
C182 C180 1.352 . S
C182 C184 1.374 . S
C182 H209 0.931 . S
C183 C184 1.359 . S
C183 C185 1.364 . S
C184 C182 1.374 . S
C184 C183 1.359 . S
C184 H210 0.931 . S
C185 C181 1.389 . S
C185 C183 1.364 . S
C185 H211 0.931 . S
C186 O200 1.256 . S
C186 O201 1.257 . S
C187 O202 1.240 . S
C187 O203 1.240 . S
C188 Gd177 2.818 . S
C188 C189 1.510 . S
C188 O204 1.249 . S
C188 O205 1.252 . S
C189 C188 1.510 . S
C189 C190 1.404 . S
C189 C191 1.352 . S
C190 C189 1.404 . S
C190 C194 1.389 . S
C190 H212 0.930 . S
C191 C189 1.352 . S
C191 C193 1.374 . S
C191 H213 0.931 . S
C192 C193 1.359 . S
C192 C194 1.364 . S
C193 C191 1.374 . S
C193 C192 1.359 . S
C193 H214 0.931 . S
C194 C190 1.389 . S
C194 C192 1.364 . S
C194 H215 0.931 . S
C195 O206 1.256 . S
C195 O207 1.257 . S
O196 Gd176 2.377 . S
O196 C178 1.240 . S
O197 Gd177 2.395 . S
O197 C178 1.240 . S
O198 Gd176 2.448 . S
O198 C179 1.249 . S
O199 Gd176 2.506 . S
O199 C179 1.252 . S
O200 Gd176 2.435 . S
O200 C186 1.256 . S
O201 Gd176 2.717 . S
O201 Gd177 2.327 . S
O201 C186 1.257 . S
O202 Gd177 2.377 . S
O202 C187 1.240 . S
O203 Gd176 2.395 . S
O203 C187 1.240 . S
O204 Gd177 2.448 . S
O204 C188 1.249 . S
O205 Gd177 2.506 . S
O205 C188 1.252 . S
O206 Gd177 2.435 . S
O206 C195 1.256 . S
O207 Gd176 2.327 . S
O207 Gd177 2.717 . S
O207 C195 1.257 . S
H208 C181 0.930 . S
H209 C182 0.931 . S
H210 C184 0.931 . S
H211 C185 0.931 . S
H212 C190 0.930 . S
H213 C191 0.931 . S
H214 C193 0.931 . S
H215 C194 0.931 . S
Gd216 C219 2.818 . S
Gd216 O236 2.377 . S
Gd216 O238 2.448 . S
Gd216 O239 2.506 . S
Gd216 O240 2.435 1_455 S
Gd216 O241 2.717 1_455 S
Gd216 O243 2.387 1_454 S
Gd216 O247 2.327 1_554 S
Gd217 C228 2.818 1_455 S
Gd217 O237 2.395 1_556 S
Gd217 O241 2.327 1_456 S
Gd217 O242 2.377 1_455 S
Gd217 O244 2.448 1_455 S
Gd217 O245 2.506 1_455 S
Gd217 O246 2.435 . S
Gd217 O247 2.717 . S
C218 O236 1.240 . S
C218 O237 1.240 . S
C219 Gd216 2.818 . S
C219 C220 1.510 . S
C219 O238 1.249 . S
C219 O239 1.252 . S
C220 C219 1.510 . S
C220 C221 1.404 . S
C220 C222 1.352 . S
C221 C220 1.404 . S
C221 C225 1.389 . S
C221 H248 0.930 . S
C222 C220 1.352 . S
C222 C224 1.374 . S
C222 H249 0.931 . S
C223 C224 1.359 . S
C223 C225 1.364 . S
C224 C222 1.374 . S
C224 C223 1.359 . S
C224 H250 0.931 . S
C225 C221 1.389 . S
C225 C223 1.364 . S
C225 H251 0.931 . S
C226 O240 1.256 . S
C226 O241 1.257 . S
C227 O242 1.240 . S
C227 O243 1.252 . S
C228 Gd217 2.818 1_655 S
C228 C229 1.510 . S
C228 O244 1.249 . S
C228 O245 1.252 . S
C229 C228 1.510 . S
C229 C230 1.404 . S
C229 C231 1.352 . S
C230 C229 1.404 . S
C230 C234 1.389 . S
C230 H252 0.930 . S
C231 C229 1.352 . S
C231 C233 1.374 . S
C231 H253 0.931 . S
C232 C233 1.359 . S
C232 C234 1.364 . S
C233 C231 1.374 . S
C233 C232 1.359 . S
C233 H254 0.931 . S
C234 C230 1.389 . S
C234 C232 1.364 . S
C234 H255 0.931 . S
C235 O246 1.256 . S
C235 O247 1.257 . S
O236 Gd216 2.377 . S
O236 C218 1.240 . S
O237 Gd217 2.395 1_554 S
O237 C218 1.240 . S
O238 Gd216 2.448 . S
O238 C219 1.249 . S
O239 Gd216 2.506 . S
O239 C219 1.252 . S
O240 Gd216 2.435 1_655 S
O240 C226 1.256 . S
O241 Gd216 2.717 1_655 S
O241 Gd217 2.327 1_654 S
O241 C226 1.257 . S
O242 Gd217 2.377 1_655 S
O242 C227 1.240 . S
O243 Gd216 2.387 1_656 S
O243 C227 1.252 . S
O244 Gd217 2.448 1_655 S
O244 C228 1.249 . S
O245 Gd217 2.506 1_655 S
O245 C228 1.252 . S
O246 Gd217 2.435 . S
O246 C235 1.256 . S
O247 Gd216 2.327 1_556 S
O247 Gd217 2.717 . S
O247 C235 1.257 . S
H248 C221 0.930 . S
H249 C222 0.931 . S
H250 C224 0.931 . S
H251 C225 0.931 . S
H252 C230 0.930 . S
H253 C231 0.931 . S
H254 C233 0.931 . S
H255 C234 0.931 . S
C6 C103 1.045 . S
C18 C152 1.554 . S
C178 C28 3.859 . S
C40 C226 2.783 . S
C138 C9 2.735 . S
C106 C16 2.159 1_455 S
C227 C30 2.515 . S
C195 C42 1.925 . S
C4 C223 2.366 . S
C155 C33 3.752 . S
C45 C107 2.955 . S
C21 C192 2.229 . S
C112 C57 1.199 . S
C66 C143 1.838 . S
C76 C187 3.959 . S
C88 C235 2.653 . S
C54 C147 2.804 . S
C115 C64 2.329 1_655 S
C218 C78 2.432 . S
C186 C93 2.044 . S
C52 C232 2.403 . S
C146 C81 3.737 . S
C98 C90 2.944 . S
C69 C183 2.134 . S
