# Generated by pormake.
# Topology pyr, (3,6)-cn, num edge types: 1
# Building blocks:
#     Node 0, Type 0, BuildingBlock: KAKCAD_clean_linker_0, # of connection points: 3
#     Node 1, Type 0, BuildingBlock: KAKCAD_clean_linker_0, # of connection points: 3
#     Node 2, Type 0, BuildingBlock: KAKCAD_clean_linker_0, # of connection points: 3
#     Node 3, Type 0, BuildingBlock: KAKCAD_clean_linker_0, # of connection points: 3
#     Node 4, Type 0, BuildingBlock: KAKCAD_clean_linker_0, # of connection points: 3
#     Node 5, Type 0, BuildingBlock: KAKCAD_clean_linker_0, # of connection points: 3
#     Node 6, Type 0, BuildingBlock: KAKCAD_clean_linker_0, # of connection points: 3
#     Node 7, Type 0, BuildingBlock: KAKCAD_clean_linker_0, # of connection points: 3
#     Node 8, Type 1, BuildingBlock: PAMTOO_clean_sbu_0, # of connection points: 6
#     Node 9, Type 1, BuildingBlock: PAMTOO_clean_sbu_0, # of connection points: 6
#     Node 10, Type 1, BuildingBlock: PAMTOO_clean_sbu_0, # of connection points: 6
#     Node 11, Type 1, BuildingBlock: PAMTOO_clean_sbu_0, # of connection points: 6
#     Edge 12, Type (0, 1), BuildingBlock: ZUJKAS_clean_linker_0, # of connection points: 2
#     Edge 13, Type (0, 1), BuildingBlock: ZUJKAS_clean_linker_0, # of connection points: 2
#     Edge 14, Type (0, 1), BuildingBlock: ZUJKAS_clean_linker_0, # of connection points: 2
#     Edge 15, Type (0, 1), BuildingBlock: ZUJKAS_clean_linker_0, # of connection points: 2
#     Edge 16, Type (0, 1), BuildingBlock: ZUJKAS_clean_linker_0, # of connection points: 2
#     Edge 17, Type (0, 1), BuildingBlock: ZUJKAS_clean_linker_0, # of connection points: 2
#     Edge 18, Type (0, 1), BuildingBlock: ZUJKAS_clean_linker_0, # of connection points: 2
#     Edge 19, Type (0, 1), BuildingBlock: ZUJKAS_clean_linker_0, # of connection points: 2
#     Edge 20, Type (0, 1), BuildingBlock: ZUJKAS_clean_linker_0, # of connection points: 2
#     Edge 21, Type (0, 1), BuildingBlock: ZUJKAS_clean_linker_0, # of connection points: 2
#     Edge 22, Type (0, 1), BuildingBlock: ZUJKAS_clean_linker_0, # of connection points: 2
#     Edge 23, Type (0, 1), BuildingBlock: ZUJKAS_clean_linker_0, # of connection points: 2
#     Edge 24, Type (0, 1), BuildingBlock: ZUJKAS_clean_linker_0, # of connection points: 2
#     Edge 25, Type (0, 1), BuildingBlock: ZUJKAS_clean_linker_0, # of connection points: 2
#     Edge 26, Type (0, 1), BuildingBlock: ZUJKAS_clean_linker_0, # of connection points: 2
#     Edge 27, Type (0, 1), BuildingBlock: ZUJKAS_clean_linker_0, # of connection points: 2
#     Edge 28, Type (0, 1), BuildingBlock: ZUJKAS_clean_linker_0, # of connection points: 2
#     Edge 29, Type (0, 1), BuildingBlock: ZUJKAS_clean_linker_0, # of connection points: 2
#     Edge 30, Type (0, 1), BuildingBlock: ZUJKAS_clean_linker_0, # of connection points: 2
#     Edge 31, Type (0, 1), BuildingBlock: ZUJKAS_clean_linker_0, # of connection points: 2
#     Edge 32, Type (0, 1), BuildingBlock: ZUJKAS_clean_linker_0, # of connection points: 2
#     Edge 33, Type (0, 1), BuildingBlock: ZUJKAS_clean_linker_0, # of connection points: 2
#     Edge 34, Type (0, 1), BuildingBlock: ZUJKAS_clean_linker_0, # of connection points: 2
#     Edge 35, Type (0, 1), BuildingBlock: ZUJKAS_clean_linker_0, # of connection points: 2
# Relax obj value: 0.070
# Max RMSD: 0.145
# Mean RMSD: 0.064
data_MOF--net-pyr--node1-PAMTOO_clean_sbu_0--node2-KAKCAD_clean_linker_0--edge1-ZUJKAS_clean_linker_0
_symmetry_space_group_name_H-M    P1
_symmetry_Int_Tables_number       1
_symmetry_cell_setting            triclinic
loop_
_symmetry_equiv_pos_as_xyz
'x, y, z'
_cell_length_a     56.376008
_cell_length_b     58.780799
_cell_length_c     58.871105
_cell_angle_alpha  90.190199
_cell_angle_beta   90.004085
_cell_angle_gamma 101.53833
loop_
_atom_site_label
_atom_site_type_symbol
_atom_site_fract_x
_atom_site_fract_y
_atom_site_fract_z
_atom_type_partial_charge
C0 C 0.24838 0.21727 0.26404 0.0
C1 C 0.26246 0.21329 0.28273 0.0
C2 C 0.25918 0.22931 0.24517 0.0
C3 C 0.28433 0.23764 0.24451 0.0
C4 C 0.29846 0.23386 0.26326 0.0
C5 C 0.28758 0.22191 0.28231 0.0
C6 C 0.29558 0.24945 0.22383 0.0
C7 C 0.28456 0.26567 0.21274 0.0
C8 C 0.29285 0.27463 0.1915 0.0
C9 C 0.31303 0.26787 0.18164 0.0
C10 C 0.32434 0.25156 0.1925 0.0
C11 C 0.31566 0.24269 0.21377 0.0
C12 C 0.343 0.24141 0.18052 0.0
C13 C 0.33992 0.23516 0.15748 0.0
C14 C 0.36269 0.23583 0.19243 0.0
C15 C 0.37824 0.22331 0.18184 0.0
C16 C 0.37439 0.21608 0.15912 0.0
C17 C 0.27862 0.28892 0.17872 0.0
C18 C 0.25346 0.28136 0.17678 0.0
C19 C 0.28973 0.30993 0.16852 0.0
C20 C 0.27573 0.32341 0.15703 0.0
C21 C 0.2505 0.31584 0.15526 0.0
C22 C 0.23957 0.29463 0.16516 0.0
C23 C 0.35546 0.22269 0.1469 0.0
H24 H 0.22895 0.21102 0.264 0.0
H25 H 0.24786 0.23167 0.23085 0.0
H26 H 0.31788 0.24014 0.26318 0.0
H27 H 0.29884 0.21896 0.29647 0.0
H28 H 0.26895 0.27087 0.22037 0.0
H29 H 0.32339 0.22926 0.22176 0.0
H30 H 0.31917 0.27445 0.16503 0.0
H31 H 0.32481 0.23892 0.14784 0.0
H32 H 0.36567 0.2406 0.21015 0.0
H33 H 0.39261 0.21841 0.19174 0.0
H34 H 0.24447 0.26507 0.18423 0.0
H35 H 0.30913 0.31609 0.1698 0.0
H36 H 0.35225 0.21769 0.12927 0.0
H37 H 0.22015 0.28848 0.16432 0.0
H38 H 0.28458 0.33968 0.14948 0.0
C39 C 0.22275 0.80158 0.78516 0.0
C40 C 0.24802 0.80572 0.78793 0.0
C41 C 0.2121 0.79195 0.76492 0.0
C42 C 0.22655 0.78646 0.74704 0.0
C43 C 0.25181 0.79061 0.74995 0.0
C44 C 0.26238 0.80001 0.77016 0.0
C45 C 0.21569 0.77727 0.72501 0.0
C46 C 0.19709 0.78653 0.71498 0.0
C47 C 0.18877 0.7798 0.69294 0.0
C48 C 0.19904 0.76333 0.68108 0.0
C49 C 0.21779 0.75418 0.69082 0.0
C50 C 0.22556 0.76078 0.71291 0.0
C51 C 0.23138 0.73997 0.67713 0.0
C52 C 0.21953 0.72017 0.66526 0.0
C53 C 0.25669 0.74653 0.67584 0.0
C54 C 0.26998 0.73349 0.66309 0.0
C55 C 0.25828 0.71349 0.65147 0.0
C56 C 0.17139 0.79195 0.68149 0.0
C57 C 0.15165 0.79746 0.69339 0.0
C58 C 0.17545 0.79954 0.65895 0.0
C59 C 0.16057 0.8129 0.64877 0.0
C60 C 0.14132 0.81908 0.66089 0.0
C61 C 0.13674 0.81086 0.68318 0.0
C62 C 0.23293 0.70685 0.65269 0.0
H63 H 0.21125 0.80576 0.79864 0.0
H64 H 0.19258 0.78882 0.76327 0.0
H65 H 0.26358 0.78721 0.73636 0.0
H66 H 0.28193 0.8035 0.77158 0.0
H67 H 0.1902 0.80011 0.72371 0.0
H68 H 0.23991 0.75346 0.72042 0.0
H69 H 0.19326 0.75841 0.66389 0.0
H70 H 0.20001 0.71482 0.66601 0.0
H71 H 0.26623 0.76189 0.68463 0.0
H72 H 0.28951 0.73885 0.66267 0.0
H73 H 0.14796 0.79172 0.71073 0.0
H74 H 0.19066 0.79588 0.64938 0.0
H75 H 0.22353 0.69149 0.64384 0.0
H76 H 0.12213 0.81544 0.69301 0.0
H77 H 0.16437 0.81868 0.63145 0.0
C78 C 0.72353 0.40926 0.87369 0.0
C79 C 0.74186 0.39729 0.87977 0.0
C80 C 0.70289 0.39793 0.86186 0.0
C81 C 0.69995 0.37429 0.85608 0.0
C82 C 0.71843 0.36245 0.8619 0.0
C83 C 0.73912 0.3738 0.87351 0.0
C84 C 0.6773 0.36164 0.84493 0.0
C85 C 0.66699 0.37122 0.82638 0.0
C86 C 0.64572 0.35903 0.81575 0.0
C87 C 0.6346 0.33703 0.82436 0.0
C88 C 0.64468 0.3272 0.84295 0.0
C89 C 0.66597 0.33969 0.853 0.0
C90 C 0.63323 0.30398 0.85231 0.0
C91 C 0.60828 0.29825 0.85693 0.0
C92 C 0.64764 0.28787 0.85806 0.0
C93 C 0.63754 0.26688 0.86865 0.0
C94 C 0.61272 0.26139 0.87394 0.0
C95 C 0.63555 0.36914 0.79542 0.0
C96 C 0.6354 0.39304 0.79432 0.0
C97 C 0.62651 0.35514 0.77666 0.0
C98 C 0.61788 0.36479 0.7573 0.0
C99 C 0.61796 0.38875 0.75609 0.0
C100 C 0.62672 0.40267 0.775 0.0
C101 C 0.59816 0.27727 0.86774 0.0
H102 H 0.72517 0.42742 0.87805 0.0
H103 H 0.68894 0.40752 0.85774 0.0
H104 H 0.71684 0.34429 0.85754 0.0
H105 H 0.75275 0.36398 0.87805 0.0
H106 H 0.67603 0.38789 0.81978 0.0
H107 H 0.67349 0.3325 0.86764 0.0
H108 H 0.61817 0.3275 0.81655 0.0
H109 H 0.59669 0.31031 0.85286 0.0
H110 H 0.6669 0.29163 0.85458 0.0
H111 H 0.64938 0.25524 0.8733 0.0
H112 H 0.64182 0.40435 0.80853 0.0
H113 H 0.62664 0.33674 0.77668 0.0
H114 H 0.57894 0.27352 0.87132 0.0
H115 H 0.62667 0.42108 0.77502 0.0
H116 H 0.61164 0.35348 0.74305 0.0
C117 C 0.86516 0.63951 0.2586 0.0
C118 C 0.89011 0.64062 0.2554 0.0
C119 C 0.85654 0.64877 0.27821 0.0
C120 C 0.87261 0.65959 0.29513 0.0
C121 C 0.89759 0.66093 0.29183 0.0
C122 C 0.9062 0.65147 0.2723 0.0
C123 C 0.86327 0.66918 0.31617 0.0
C124 C 0.84261 0.65658 0.32734 0.0
C125 C 0.83353 0.66535 0.3471 0.0
C126 C 0.845 0.68726 0.35531 0.0
C127 C 0.86549 0.70024 0.34451 0.0
C128 C 0.87478 0.69094 0.32513 0.0
C129 C 0.8767 0.72356 0.35378 0.0
C130 C 0.86204 0.73946 0.35946 0.0
C131 C 0.9016 0.7295 0.35859 0.0
C132 C 0.91138 0.75044 0.36975 0.0
C133 C 0.8965 0.76602 0.37619 0.0
C134 C 0.81213 0.6519 0.35943 0.0
C135 C 0.79129 0.64073 0.34768 0.0
C136 C 0.81207 0.65102 0.38331 0.0
C137 C 0.79155 0.63987 0.39516 0.0
C138 C 0.7704 0.62929 0.3835 0.0
C139 C 0.77066 0.62959 0.35957 0.0
C140 C 0.87179 0.76041 0.37037 0.0
H141 H 0.8522 0.63113 0.24609 0.0
H142 H 0.83722 0.64761 0.28004 0.0
H143 H 0.91049 0.66898 0.30455 0.0
H144 H 0.92554 0.65284 0.27034 0.0
H145 H 0.83397 0.63961 0.32101 0.0
H146 H 0.89045 0.70099 0.31662 0.0
H147 H 0.83789 0.69433 0.37029 0.0
H148 H 0.84284 0.73554 0.35567 0.0
H149 H 0.91332 0.71753 0.35455 0.0
H150 H 0.93044 0.754 0.37404 0.0
H151 H 0.79065 0.64123 0.3293 0.0
H152 H 0.82797 0.65903 0.3929 0.0
H153 H 0.85983 0.77214 0.37439 0.0
H154 H 0.75467 0.6218 0.35 0.0
H155 H 0.79229 0.63954 0.41353 0.0
C156 C 0.74166 0.77971 0.76102 0.0
C157 C 0.74809 0.80373 0.75714 0.0
C158 C 0.72827 0.77123 0.78028 0.0
C159 C 0.72093 0.78661 0.7959 0.0
C160 C 0.72661 0.81056 0.79149 0.0
C161 C 0.74001 0.81901 0.77233 0.0
C162 C 0.70903 0.77809 0.81761 0.0
C163 C 0.71798 0.76167 0.83053 0.0
C164 C 0.70895 0.75552 0.85239 0.0
C165 C 0.69068 0.76613 0.86132 0.0
C166 C 0.68148 0.78266 0.84858 0.0
C167 C 0.69041 0.78805 0.82654 0.0
C168 C 0.66394 0.79565 0.85872 0.0
C169 C 0.64513 0.78464 0.87301 0.0
C170 C 0.66637 0.81956 0.8545 0.0
C171 C 0.65037 0.8321 0.86414 0.0
C172 C 0.63168 0.82116 0.87848 0.0
C173 C 0.72033 0.73957 0.86634 0.0
C174 C 0.72729 0.72021 0.85625 0.0
C175 C 0.7263 0.74468 0.88924 0.0
C176 C 0.74 0.73144 0.90138 0.0
C177 C 0.74814 0.71288 0.89086 0.0
C178 C 0.7411 0.7071 0.86831 0.0
C179 C 0.62921 0.79731 0.88287 0.0
H180 H 0.74771 0.76753 0.74962 0.0
H181 H 0.72399 0.75267 0.78316 0.0
H182 H 0.7215 0.82291 0.80329 0.0
H183 H 0.74439 0.83759 0.7696 0.0
H184 H 0.73307 0.7547 0.82409 0.0
H185 H 0.68319 0.80044 0.8164 0.0
H186 H 0.68417 0.76202 0.87843 0.0
H187 H 0.64261 0.76624 0.87647 0.0
H188 H 0.68101 0.8288 0.84412 0.0
H189 H 0.65305 0.85056 0.86085 0.0
H190 H 0.72269 0.71561 0.83874 0.0
H191 H 0.72138 0.75955 0.89751 0.0
H192 H 0.61489 0.78844 0.89382 0.0
H193 H 0.74717 0.69309 0.85954 0.0
H194 H 0.74473 0.73614 0.91884 0.0
C195 C 0.77079 0.21015 0.26975 0.0
C196 C 0.7642 0.22547 0.25377 0.0
C197 C 0.78391 0.21863 0.2891 0.0
C198 C 0.79083 0.24265 0.29293 0.0
C199 C 0.78502 0.25802 0.27654 0.0
C200 C 0.77188 0.2495 0.25709 0.0
C201 C 0.80237 0.25137 0.3148 0.0
C202 C 0.81966 0.24046 0.32487 0.0
C203 C 0.82793 0.24611 0.34709 0.0
C204 C 0.81935 0.26361 0.359 0.0
C205 C 0.80238 0.27506 0.34895 0.0
C206 C 0.79412 0.26889 0.32683 0.0
C207 C 0.79102 0.29162 0.3621 0.0
C208 C 0.78199 0.28596 0.38405 0.0
C209 C 0.78662 0.3119 0.35178 0.0
C210 C 0.77222 0.32542 0.36256 0.0
C211 C 0.76186 0.31894 0.38388 0.0
C212 C 0.84401 0.23235 0.35826 0.0
C213 C 0.83942 0.20809 0.35562 0.0
C214 C 0.86381 0.24308 0.37161 0.0
C215 C 0.87889 0.2298 0.38182 0.0
C216 C 0.87441 0.20555 0.37887 0.0
C217 C 0.85442 0.19488 0.36577 0.0
C218 C 0.76754 0.29949 0.39484 0.0
H219 H 0.76542 0.19153 0.26749 0.0
H220 H 0.78781 0.2063 0.3015 0.0
H221 H 0.79027 0.27663 0.27895 0.0
H222 H 0.767 0.26171 0.24507 0.0
H223 H 0.82633 0.22711 0.31553 0.0
H224 H 0.77998 0.27667 0.31954 0.0
H225 H 0.82521 0.26777 0.37632 0.0
H226 H 0.78486 0.2703 0.39234 0.0
H227 H 0.79364 0.31685 0.335 0.0
H228 H 0.76858 0.34059 0.35389 0.0
H229 H 0.82396 0.19922 0.34592 0.0
H230 H 0.86784 0.26175 0.37387 0.0
H231 H 0.75969 0.29392 0.41118 0.0
H232 H 0.85009 0.17619 0.36363 0.0
H233 H 0.89422 0.23853 0.39175 0.0
C234 C 0.27042 0.6227 0.18861 0.0
C235 C 0.26882 0.62383 0.16479 0.0
C236 C 0.29167 0.6333 0.20001 0.0
C237 C 0.31191 0.64515 0.18785 0.0
C238 C 0.31047 0.6455 0.16396 0.0
C239 C 0.28922 0.63513 0.15263 0.0
C240 C 0.3341 0.65793 0.19983 0.0
C241 C 0.34305 0.64899 0.21953 0.0
C242 C 0.36408 0.66111 0.23063 0.0
C243 C 0.37617 0.68257 0.22157 0.0
C244 C 0.36758 0.69172 0.20179 0.0
C245 C 0.34647 0.67937 0.19134 0.0
C246 C 0.38031 0.71413 0.19161 0.0
C247 C 0.38784 0.73414 0.20498 0.0
C248 C 0.38367 0.7159 0.16795 0.0
C249 C 0.39347 0.73721 0.15783 0.0
C250 C 0.40013 0.7575 0.17102 0.0
C251 C 0.37352 0.65108 0.25139 0.0
C252 C 0.35755 0.63969 0.26805 0.0
C253 C 0.39852 0.65241 0.25458 0.0
C254 C 0.40725 0.64248 0.27372 0.0
C255 C 0.39127 0.63098 0.29033 0.0
C256 C 0.36628 0.62984 0.28722 0.0
C257 C 0.39758 0.75559 0.19481 0.0
H258 H 0.25498 0.61421 0.19849 0.0
H259 H 0.29196 0.6328 0.21839 0.0
H260 H 0.32581 0.65388 0.15391 0.0
H261 H 0.28879 0.63592 0.13426 0.0
H262 H 0.33402 0.63221 0.22588 0.0
H263 H 0.33934 0.68683 0.17666 0.0
H264 H 0.39231 0.69213 0.22982 0.0
H265 H 0.38536 0.73341 0.22323 0.0
H266 H 0.3785 0.70075 0.15716 0.0
H267 H 0.39573 0.73776 0.13956 0.0
H268 H 0.33821 0.63849 0.26638 0.0
H269 H 0.4114 0.6608 0.24206 0.0
H270 H 0.40234 0.7708 0.20556 0.0
H271 H 0.35335 0.62098 0.29946 0.0
H272 H 0.42661 0.64398 0.27557 0.0
C273 C 0.13983 0.27576 0.67893 0.0
C274 C 0.11473 0.26931 0.67535 0.0
C275 C 0.14989 0.29688 0.68937 0.0
C276 C 0.1352 0.31233 0.69644 0.0
C277 C 0.10996 0.30552 0.69371 0.0
C278 C 0.09984 0.28423 0.68331 0.0
C279 C 0.14653 0.33594 0.7052 0.0
C280 C 0.16758 0.34831 0.6947 0.0
C281 C 0.17901 0.3704 0.70238 0.0
C282 C 0.16891 0.38049 0.72076 0.0
C283 C 0.14789 0.36848 0.73187 0.0
C284 C 0.13676 0.3462 0.72377 0.0
C285 C 0.13803 0.37906 0.75218 0.0
C286 C 0.15374 0.39245 0.76799 0.0
C287 C 0.11291 0.37596 0.756 0.0
C288 C 0.10384 0.38602 0.77495 0.0
C289 C 0.11959 0.39961 0.79056 0.0
C290 C 0.20172 0.38252 0.69111 0.0
C291 C 0.22019 0.37036 0.68622 0.0
C292 C 0.20476 0.40583 0.68432 0.0
C293 C 0.22549 0.41647 0.67226 0.0
C294 C 0.24377 0.4041 0.66689 0.0
C295 C 0.24094 0.381 0.67439 0.0
C296 C 0.14467 0.40264 0.7868 0.0
H297 H 0.15179 0.26448 0.67353 0.0
H298 H 0.16934 0.30123 0.69169 0.0
H299 H 0.09811 0.31701 0.69883 0.0
H300 H 0.08043 0.27984 0.68077 0.0
H301 H 0.17494 0.34088 0.68007 0.0
H302 H 0.12094 0.3365 0.73232 0.0
H303 H 0.17762 0.39766 0.72649 0.0
H304 H 0.17318 0.39486 0.76606 0.0
H305 H 0.10017 0.36606 0.74414 0.0
H306 H 0.08441 0.38351 0.77714 0.0
H307 H 0.21859 0.35249 0.69156 0.0
H308 H 0.19076 0.4156 0.68769 0.0
H309 H 0.15738 0.41262 0.79864 0.0
H310 H 0.25482 0.37105 0.67118 0.0
H311 H 0.22683 0.43419 0.66663 0.0
Dy312 Dy 0.03049 0.01983 0.51371 0.0
Dy313 Dy 0.98056 0.01175 0.54418 0.0
C314 C 0.02385 0.05592 0.55245 0.0
O315 O 0.03782 1.00275 0.54606 0.0
O316 O 0.99944 0.98347 0.55418 0.0
O317 O 0.06938 0.02975 0.51176 0.0
O318 O 0.04857 0.01591 0.48202 0.0
O319 O 0.97212 0.98722 0.51465 0.0
O320 O 0.01081 0.98374 0.50579 0.0
O321 O 0.97914 0.04229 0.52242 0.0
O322 O 0.00467 0.03617 0.49365 0.0
O323 O 0.94167 1.00702 0.54682 0.0
O324 O 0.96377 1.00904 0.57719 0.0
C325 C 0.02294 0.9859 0.55632 0.0
O326 O 0.03204 0.05356 0.53186 0.0
O327 O 0.00757 0.03945 0.56182 0.0
C328 C 0.08518 0.04236 0.47578 0.0
C329 C 0.11513 0.07462 0.44773 0.0
C330 C 0.10096 0.08228 0.4647 0.0
C331 C 0.08597 0.06623 0.47858 0.0
C332 C 0.09929 0.03471 0.45894 0.0
C333 C 0.11412 0.05068 0.44502 0.0
C334 C 0.06989 0.02504 0.49011 0.0
C335 C 0.98729 0.97632 0.5043 0.0
C336 C 0.98765 0.04627 0.50176 0.0
C337 C 0.92531 0.98506 0.57855 0.0
C338 C 0.89568 0.94722 0.60027 0.0
C339 C 0.91263 0.94346 0.58387 0.0
C340 C 0.92744 0.96229 0.57313 0.0
C341 C 0.908 0.98885 0.59438 0.0
C342 C 0.89328 0.97009 0.60516 0.0
C343 C 0.94189 1.00503 0.56888 0.0
H344 H 0.10125 0.10062 0.46703 0.0
H345 H 0.07504 0.07241 0.49146 0.0
H346 H 0.09889 0.01634 0.4566 0.0
H347 H 0.12508 0.04428 0.43231 0.0
H348 H 0.91499 0.92604 0.57991 0.0
H349 H 0.94088 0.95914 0.56099 0.0
H350 H 0.90617 1.00635 0.59872 0.0
H351 H 0.88014 0.97349 0.61749 0.0
Dy352 Dy 0.4787 1.00988 1.01316 0.0
Dy353 Dy 0.52882 0.01731 0.04314 0.0
C354 C 0.48481 0.97417 0.05225 0.0
O355 O 0.47219 0.02795 0.04531 0.0
O356 O 0.51099 0.04633 0.05326 0.0
O357 O 0.43971 1.00082 1.01173 0.0
O358 O 0.4603 0.01317 0.98156 0.0
O359 O 0.5373 0.04135 1.01331 0.0
O360 O 0.49877 0.04575 1.00514 0.0
O361 O 0.52866 0.98592 1.02193 0.0
O362 O 0.50421 0.99323 0.99285 0.0
O363 O 0.56766 0.02104 0.04516 0.0
O364 O 0.54627 0.02023 0.07587 0.0
C365 C 0.48757 0.04463 0.05541 0.0
O366 O 0.47663 0.97634 0.03162 0.0
O367 O 0.50139 0.99059 0.06141 0.0
C368 C 0.42326 0.98707 0.9764 0.0
C369 C 0.39295 0.95381 0.94942 0.0
C370 C 0.41286 0.94806 0.96087 0.0
C371 C 0.42796 0.96462 0.97425 0.0
C372 C 0.40335 0.9928 0.96525 0.0
C373 C 0.3883 0.97632 0.95187 0.0
C374 C 0.43896 1.00484 0.99 0.0
C375 C 0.52233 0.05268 1.0033 0.0
C376 C 0.5204 0.98223 1.00115 0.0
C377 C 0.5852 0.04336 0.07641 0.0
C378 C 0.61595 0.08114 0.09738 0.0
C379 C 0.59928 0.08496 0.08075 0.0
C380 C 0.5839 0.06616 0.07039 0.0
C381 C 0.60224 0.03949 0.09245 0.0
C382 C 0.61752 0.05822 0.10286 0.0
C383 C 0.56796 0.02351 0.0672 0.0
H384 H 0.41702 0.93093 0.95912 0.0
H385 H 0.44336 0.96 0.98278 0.0
H386 H 0.39948 1.01006 0.96684 0.0
H387 H 0.37292 0.98117 0.94353 0.0
H388 H 0.59755 0.10243 0.07633 0.0
H389 H 0.57067 0.06938 0.05808 0.0
H390 H 0.60341 0.02197 0.09726 0.0
H391 H 0.63041 0.05477 0.11539 0.0
Dy392 Dy 0.50523 0.4869 0.50903 0.0
Dy393 Dy 0.50858 0.53576 0.53695 0.0
C394 C 0.52963 0.49354 0.55812 0.0
O395 O 0.47378 0.48065 0.53302 0.0
O396 O 0.46957 0.51826 0.53829 0.0
O397 O 0.50167 0.44962 0.50894 0.0
O398 O 0.50569 0.46852 0.47727 0.0
O399 O 0.49735 0.54267 0.50152 0.0
O400 O 0.4804 0.50568 0.49011 0.0
O401 O 0.54644 0.53691 0.52487 0.0
O402 O 0.5372 0.51158 0.495 0.0
O403 O 0.51613 0.57327 0.53838 0.0
O404 O 0.50412 0.55326 0.56847 0.0
C405 C 0.46119 0.49584 0.54013 0.0
O406 O 0.53152 0.48564 0.53744 0.0
O407 O 0.51778 0.51025 0.56199 0.0
C408 C 0.526 0.4377 0.48079 0.0
C409 C 0.56516 0.41756 0.4675 0.0
C410 C 0.56893 0.43717 0.48178 0.0
C411 C 0.54952 0.44718 0.48833 0.0
C412 C 0.52205 0.4181 0.46668 0.0
C413 C 0.5415 0.40809 0.46005 0.0
C414 C 0.50587 0.44878 0.48721 0.0
C415 C 0.48376 0.52831 0.48738 0.0
C416 C 0.55227 0.52819 0.50555 0.0
C417 C 0.48844 0.58654 0.56249 0.0
C418 C 0.44834 0.60689 0.57202 0.0
C419 C 0.44846 0.59286 0.55263 0.0
C420 C 0.46828 0.5827 0.54797 0.0
C421 C 0.48872 0.60093 0.58152 0.0
C422 C 0.46884 0.61106 0.58626 0.0
C423 C 0.50791 0.57367 0.55906 0.0
H424 H 0.58695 0.44508 0.48754 0.0
H425 H 0.55288 0.46247 0.49911 0.0
H426 H 0.50399 0.41063 0.4607 0.0
H427 H 0.53801 0.39286 0.4492 0.0
H428 H 0.43312 0.58955 0.54116 0.0
H429 H 0.46764 0.57139 0.5333 0.0
H430 H 0.50401 0.60377 0.59306 0.0
H431 H 0.46921 0.6215 0.60149 0.0
Dy432 Dy 0.00457 0.54211 1.00935 0.0
Dy433 Dy 1.00077 0.49356 0.03725 0.0
C434 C 0.98029 0.53614 0.05815 0.0
O435 O 0.03579 0.54852 0.0337 0.0
O436 O 0.0398 0.51092 0.03933 0.0
O437 O 0.00916 0.57947 1.00906 0.0
O438 O 1.00362 0.56011 0.97751 0.0
O439 O 0.01136 0.48658 1.00157 0.0
O440 O 0.02995 0.52329 0.99124 0.0
O441 O 0.96296 0.49258 0.025 0.0
O442 O 0.9731 0.51696 0.99475 0.0
O443 O 0.9953 0.45609 0.03808 0.0
O444 O 1.00248 0.47592 0.06913 0.0
C445 C 0.04822 0.53336 0.04114 0.0
O446 O 0.97781 0.54332 0.03735 0.0
O447 O 0.99266 0.51988 0.0621 0.0
C448 C 0.9847 0.5923 0.98088 0.0
C449 C 0.94543 0.61245 0.96769 0.0
C450 C 0.95111 0.61077 0.99078 0.0
C451 C 0.97048 0.6007 0.99734 0.0
C452 C 0.97942 0.59455 0.9578 0.0
C453 C 0.9599 0.60441 0.95125 0.0
C454 C 1.00413 0.58005 0.98746 0.0
C455 C 0.02578 0.50071 0.98795 0.0
C456 C 0.95762 0.50074 1.00529 0.0
C457 C 0.02113 0.44417 0.06485 0.0
C458 C 0.061 0.42493 0.07765 0.0
C459 C 0.06349 0.44215 0.06081 0.0
C460 C 0.04373 0.45168 0.05449 0.0
C461 C 0.01838 0.42679 0.08139 0.0
C462 C 0.03817 0.41716 0.08771 0.0
C463 C 1.00109 0.45574 0.05948 0.0
H464 H 0.94014 0.61666 1.0038 0.0
H465 H 0.97396 0.59911 1.0153 0.0
H466 H 0.99014 0.58827 0.9448 0.0
H467 H 0.95609 0.60574 0.93332 0.0
H468 H 0.08072 0.44826 0.05252 0.0
H469 H 0.04617 0.46517 0.04171 0.0
H470 H 1.00109 0.42099 0.0897 0.0
H471 H 0.03576 0.40409 0.10089 0.0
H472 H 0.26874 0.22347 0.32805 0.0
H473 H 0.24746 0.20159 0.36007 0.0
H474 H 0.20842 0.15102 0.31327 0.0
H475 H 0.22966 0.17254 0.28139 0.0
H476 H 0.1949 0.19007 0.36555 0.0
H477 H 0.23636 0.11217 0.36162 0.0
H478 H 0.25021 0.13953 0.34887 0.0
H479 H 0.22577 0.12043 0.33469 0.0
C480 C 0.25585 0.20751 0.32469 0.0
C481 C 0.25078 0.1997 0.30228 0.0
C482 C 0.24368 0.19514 0.34292 0.0
C483 C 0.2266 0.17463 0.33897 0.0
C484 C 0.22178 0.16667 0.31665 0.0
H485 H 0.12058 0.07184 0.4019 0.0
H486 H 0.14876 0.09795 0.37758 0.0
C487 C 0.23377 0.17906 0.29847 0.0
C488 C 0.21281 0.16188 0.35789 0.0
H489 H 0.19935 0.10838 0.38239 0.0
C490 C 0.19609 0.17234 0.36958 0.0
C491 C 0.2145 0.13879 0.36299 0.0
C492 C 0.23283 0.1271 0.35154 0.0
C493 C 0.18001 0.1598 0.38543 0.0
C494 C 0.18108 0.1364 0.38985 0.0
C495 C 0.1985 0.1263 0.37883 0.0
C496 C 0.16336 0.12152 0.40473 0.0
C497 C 0.16127 0.17129 0.39644 0.0
C498 C 0.16216 0.12625 0.42804 0.0
C499 C 0.14603 0.11134 0.442 0.0
C500 C 0.13107 0.09137 0.43286 0.0
C501 C 0.13211 0.08693 0.40946 0.0
C502 C 0.14813 0.10184 0.39555 0.0
H503 H 0.15981 0.18777 0.38788 0.0
H504 H 0.14322 0.15951 0.39621 0.0
H505 H 0.16635 0.1753 0.41444 0.0
H506 H 0.17406 0.14115 0.4355 0.0
H507 H 0.1458 0.11503 0.46002 0.0
H508 H 0.23798 0.84363 0.81006 0.0
H509 H 0.26133 0.8657 0.84084 0.0
H510 H 0.30807 0.81595 0.84313 0.0
H511 H 0.28482 0.79379 0.81238 0.0
H512 H 0.27484 0.85406 0.88581 0.0
H513 H 0.35353 0.87838 0.82766 0.0
H514 H 0.32355 0.86568 0.8176 0.0
H515 H 0.34206 0.84774 0.83055 0.0
C516 C 0.2529 0.83713 0.81746 0.0
C517 C 0.25978 0.81715 0.80866 0.0
C518 C 0.26625 0.84978 0.83497 0.0
C519 C 0.28664 0.84264 0.84391 0.0
C520 C 0.29265 0.82195 0.83612 0.0
H521 H 0.37521 0.90769 0.9578 0.0
H522 H 0.34921 0.87959 0.93305 0.0
C523 C 0.27938 0.80934 0.81858 0.0
C524 C 0.30256 0.85769 0.86019 0.0
H525 H 0.35907 0.8914 0.86558 0.0
C526 C 0.29329 0.86217 0.8815 0.0
C527 C 0.3265 0.86842 0.85429 0.0
C528 C 0.33702 0.86503 0.83122 0.0
C529 C 0.30743 0.87715 0.89713 0.0
C530 C 0.33145 0.88766 0.89129 0.0
C531 C 0.34069 0.88313 0.87002 0.0
C532 C 0.34696 0.90442 0.90648 0.0
C533 C 0.2964 0.88216 0.91949 0.0
C534 C 0.35467 0.92748 0.89947 0.0
C535 C 0.36962 0.94345 0.91341 0.0
C536 C 0.37725 0.93663 0.93462 0.0
C537 C 0.36971 0.91341 0.94151 0.0
C538 C 0.35468 0.89742 0.92753 0.0
H539 H 0.27639 0.87641 0.91948 0.0
H540 H 0.30388 0.87281 0.93325 0.0
H541 H 0.30097 0.90101 0.92345 0.0
H542 H 0.34905 0.93313 0.88318 0.0
H543 H 0.37544 0.9611 0.90747 0.0
H544 H 0.63623 0.43113 0.73645 0.0
H545 H 0.62142 0.44841 0.70292 0.0
H546 H 0.56573 0.38714 0.69393 0.0
H547 H 0.57976 0.3701 0.72798 0.0
H548 H 0.61777 0.43468 0.65868 0.0
H549 H 0.52642 0.43757 0.69184 0.0
H550 H 0.55039 0.43166 0.70979 0.0
H551 H 0.53326 0.40905 0.69229 0.0
C552 C 0.62058 0.4214 0.7276 0.0
C553 C 0.60913 0.3992 0.73523 0.0
C554 C 0.61226 0.43127 0.70823 0.0
C555 C 0.59218 0.41931 0.69597 0.0
C556 C 0.58093 0.397 0.70328 0.0
H557 H 0.5517 0.4557 0.55826 0.0
H558 H 0.56724 0.43757 0.59101 0.0
C559 C 0.58921 0.38712 0.72268 0.0
C560 C 0.58324 0.43011 0.67548 0.0
H561 H 0.53337 0.4466 0.65284 0.0
C562 C 0.59931 0.4373 0.65743 0.0
C563 C 0.55923 0.43388 0.67385 0.0
C564 C 0.54137 0.42786 0.69305 0.0
C565 C 0.59204 0.44786 0.63784 0.0
C566 C 0.56784 0.45102 0.63594 0.0
C567 C 0.55184 0.44402 0.65409 0.0
C568 C 0.55887 0.4622 0.61569 0.0
C569 C 0.61057 0.45608 0.61963 0.0
C570 C 0.54849 0.48186 0.6185 0.0
C571 C 0.53939 0.49215 0.59982 0.0
C572 C 0.54035 0.48303 0.57775 0.0
C573 C 0.55082 0.46336 0.57492 0.0
C574 C 0.55986 0.45302 0.59368 0.0
H575 H 0.62934 0.45826 0.62627 0.0
H576 H 0.60844 0.443 0.60575 0.0
H577 H 0.60811 0.47285 0.61233 0.0
H578 H 0.54741 0.48931 0.63523 0.0
H579 H 0.53145 0.50722 0.60277 0.0
H580 H 0.87524 0.64304 0.21114 0.0
H581 H 0.88959 0.62545 0.17731 0.0
H582 H 0.94007 0.59756 0.21852 0.0
H583 H 0.92568 0.61487 0.25247 0.0
H584 H 0.93906 0.63211 0.15964 0.0
H585 H 0.9014 0.54048 0.18287 0.0
H586 H 0.89102 0.56466 0.19576 0.0
H587 H 0.91927 0.55771 0.20442 0.0
C588 C 0.88929 0.63303 0.21306 0.0
C589 C 0.89921 0.63033 0.23462 0.0
C590 C 0.89757 0.62309 0.19366 0.0
C591 C 0.91573 0.60995 0.19536 0.0
C592 C 0.92584 0.60738 0.21679 0.0
H593 H 0.98723 0.52966 0.1035 0.0
H594 H 0.97141 0.54817 0.13571 0.0
C595 C 0.91772 0.61747 0.23618 0.0
C596 C 0.92422 0.59907 0.17475 0.0
H597 H 0.9268 0.54663 0.1506 0.0
C598 C 0.93629 0.61342 0.15757 0.0
C599 C 0.92067 0.57469 0.17208 0.0
C600 C 0.90722 0.5584 0.18963 0.0
C601 C 0.94548 0.60408 0.13813 0.0
C602 C 0.9419 0.57964 0.13541 0.0
C603 C 0.92959 0.56533 0.15255 0.0
C604 C 0.9514 0.56849 0.11536 0.0
C605 C 0.95968 0.62057 0.12114 0.0
C606 C 0.94527 0.57339 0.09297 0.0
C607 C 0.95453 0.56292 0.07436 0.0
C608 C 0.96983 0.547 0.07772 0.0
C609 C 0.9755 0.54179 0.10016 0.0
C610 C 0.96643 0.55239 0.11869 0.0
H611 H 0.9667 0.63793 0.12876 0.0
H612 H 0.9752 0.61368 0.11429 0.0
H613 H 0.94766 0.62294 0.10678 0.0
H614 H 0.93318 0.58521 0.08983 0.0
H615 H 0.94962 0.56725 0.05736 0.0
H616 H 0.35796 0.17799 0.13277 0.0
H617 H 0.38121 0.15123 0.11631 0.0
H618 H 0.44668 0.19121 0.14549 0.0
H619 H 0.42345 0.21829 0.16205 0.0
H620 H 0.42006 0.16075 0.08585 0.0
H621 H 0.44642 0.12465 0.16722 0.0
H622 H 0.4228 0.14128 0.16558 0.0
H623 H 0.45401 0.15571 0.1645 0.0
C624 C 0.37735 0.18129 0.1355 0.0
C625 C 0.38889 0.20033 0.14865 0.0
C626 C 0.39058 0.16589 0.12619 0.0
C627 C 0.41559 0.1691 0.12991 0.0
C628 C 0.4273 0.1882 0.1428 0.0
H629 H 0.51346 0.08179 0.07893 0.0
H630 H 0.49774 0.11311 0.0975 0.0
C631 C 0.41403 0.20365 0.15219 0.0
C632 C 0.42918 0.15242 0.11993 0.0
H633 H 0.4603 0.11005 0.13342 0.0
C634 C 0.42899 0.14976 0.09624 0.0
C635 C 0.44086 0.13818 0.13356 0.0
C636 C 0.44097 0.13988 0.15914 0.0
C637 C 0.43981 0.13295 0.0858 0.0
C638 C 0.45083 0.11826 0.09945 0.0
C639 C 0.45176 0.12137 0.12308 0.0
C640 C 0.4603 0.0988 0.08944 0.0
C641 C 0.43921 0.13088 0.06023 0.0
C642 C 0.44433 0.08018 0.07932 0.0
C643 C 0.45317 0.06226 0.0688 0.0
C644 C 0.47818 0.06264 0.06821 0.0
C645 C 0.4941 0.08101 0.07901 0.0
C646 C 0.48519 0.09891 0.08962 0.0
H647 H 0.43546 0.14681 0.05207 0.0
H648 H 0.45665 0.12752 0.05364 0.0
H649 H 0.42467 0.11607 0.05518 0.0
H650 H 0.42502 0.07966 0.07933 0.0
H651 H 0.44038 0.04837 0.06075 0.0
H652 H 0.09213 0.81617 0.66275 0.0
H653 H 0.06877 0.84279 0.6457 0.0
H654 H 0.13462 0.88443 0.61922 0.0
H655 H 0.15801 0.85816 0.63621 0.0
H656 H 0.07315 0.89103 0.6528 0.0
H657 H 0.09107 0.8713 0.56304 0.0
H658 H 0.09639 0.85292 0.58623 0.0
H659 H 0.11812 0.87893 0.57978 0.0
C660 C 0.1016 0.83104 0.65333 0.0
C661 C 0.12689 0.83492 0.6506 0.0
C662 C 0.08824 0.84615 0.64356 0.0
C663 C 0.09994 0.86529 0.63086 0.0
C664 C 0.12518 0.86942 0.62847 0.0
H665 H 0.07059 0.9843 0.56249 0.0
H666 H 0.08727 0.95437 0.58184 0.0
C667 C 0.13851 0.85436 0.63816 0.0
C668 C 0.08602 0.88138 0.62043 0.0
H669 H 0.0755 0.90566 0.56979 0.0
C670 C 0.07336 0.89405 0.63463 0.0
C671 C 0.08629 0.88517 0.59672 0.0
C672 C 0.09849 0.8712 0.58052 0.0
C673 C 0.06184 0.91119 0.62579 0.0
C674 C 0.06289 0.91552 0.60218 0.0
C675 C 0.07492 0.90237 0.58793 0.0
C676 C 0.05247 0.93422 0.59188 0.0
C677 C 0.04944 0.92517 0.64179 0.0
C678 C 0.02735 0.9328 0.59126 0.0
C679 C 0.01769 0.94991 0.58016 0.0
C680 C 0.03304 0.96864 0.56948 0.0
C681 C 0.05823 0.97015 0.57054 0.0
C682 C 0.06782 0.95305 0.58157 0.0
H683 H 0.05385 0.92244 0.65985 0.0
H684 H 0.0547 0.94397 0.63788 0.0
H685 H 0.02954 0.91993 0.63959 0.0
H686 H 0.01521 0.91821 0.59888 0.0
H687 H 0.9982 0.94818 0.5796 0.0
H688 H 0.74357 0.4265 0.91647 0.0
H689 H 0.77898 0.44445 0.93891 0.0
H690 H 0.8247 0.41255 0.89548 0.0
H691 H 0.78932 0.39431 0.87319 0.0
H692 H 0.83559 0.4078 0.93929 0.0
H693 H 0.83099 0.49971 0.92352 0.0
H694 H 0.80372 0.4832 0.93558 0.0
H695 H 0.81308 0.47605 0.90767 0.0
C696 C 0.7612 0.42355 0.91151 0.0
C697 C 0.76357 0.40902 0.89294 0.0
C698 C 0.78149 0.43387 0.92436 0.0
C699 C 0.80467 0.4302 0.91874 0.0
C700 C 0.80706 0.41571 0.9002 0.0
H701 H 0.94298 0.5103 0.96269 0.0
H702 H 0.90573 0.49282 0.94298 0.0
C703 C 0.78678 0.40524 0.88746 0.0
C704 C 0.82637 0.44093 0.93242 0.0
H705 H 0.85921 0.49286 0.95132 0.0
C706 C 0.84075 0.42641 0.9419 0.0
C707 C 0.83335 0.46525 0.93566 0.0
C708 C 0.81963 0.48199 0.9249 0.0
C709 C 0.86179 0.43546 0.95447 0.0
C710 C 0.86841 0.45973 0.95822 0.0
C711 C 0.85405 0.47425 0.94872 0.0
C712 C 0.89085 0.47056 0.97084 0.0
C713 C 0.87711 0.41894 0.96297 0.0
C714 C 0.89491 0.46422 0.99332 0.0
C715 C 0.91643 0.4741 1.00467 0.0
C716 C 0.93423 0.49078 0.99388 0.0
C717 C 0.92977 0.49751 0.9716 0.0
C718 C 0.9084 0.48752 0.96025 0.0
H719 H 0.87325 0.40216 0.9536 0.0
H720 H 0.8967 0.42659 0.96131 0.0
H721 H 0.87309 0.41522 0.98118 0.0
H722 H 0.88142 0.45162 1.00212 0.0
H723 H 0.91912 0.46862 1.02186 0.0
H724 H 0.75238 0.64519 0.42244 0.0
H725 H 0.71649 0.62728 0.44397 0.0
H726 H 0.70123 0.57164 0.39492 0.0
H727 H 0.73766 0.58901 0.37367 0.0
H728 H 0.66876 0.61772 0.43099 0.0
H729 H 0.69798 0.53621 0.45444 0.0
H730 H 0.71864 0.56104 0.44312 0.0
H731 H 0.6987 0.54178 0.42446 0.0
C732 C 0.74164 0.62894 0.41637 0.0
C733 C 0.74815 0.61845 0.39638 0.0
C734 C 0.72098 0.61881 0.42864 0.0
C735 C 0.70633 0.59789 0.42133 0.0
C736 C 0.71251 0.58753 0.40121 0.0
H737 H 0.57161 0.51233 0.46741 0.0
H738 H 0.60906 0.52956 0.44786 0.0
C739 C 0.73321 0.59765 0.3889 0.0
C740 C 0.68431 0.58731 0.4345 0.0
H741 H 0.65717 0.53816 0.46265 0.0
C742 C 0.6663 0.60037 0.43802 0.0
C743 C 0.68107 0.56467 0.44371 0.0
C744 C 0.7002 0.55016 0.44146 0.0
C745 C 0.64496 0.59126 0.45004 0.0
C746 C 0.64167 0.56858 0.45915 0.0
C747 C 0.6597 0.55554 0.4557 0.0
C748 C 0.61933 0.55784 0.47176 0.0
C749 C 0.62581 0.60576 0.45233 0.0
C750 C 0.61282 0.56769 0.49204 0.0
C751 C 0.59132 0.55786 0.50333 0.0
C752 C 0.57591 0.53792 0.49459 0.0
C753 C 0.58288 0.52777 0.4746 0.0
C754 C 0.60436 0.53757 0.46338 0.0
H755 H 0.62846 0.62022 0.43989 0.0
H756 H 0.60743 0.59497 0.44991 0.0
H757 H 0.62674 0.61342 0.46964 0.0
H758 H 0.62433 0.58306 0.49909 0.0
H759 H 0.58662 0.5661 0.51871 0.0
H760 H 0.25191 0.36235 0.16042 0.0
H761 H 0.22266 0.38449 0.1456 0.0
H762 H 0.18504 0.32352 0.11027 0.0
H763 H 0.21419 0.30135 0.1248 0.0
H764 H 0.19958 0.37956 0.08888 0.0
H765 H 0.14289 0.35588 0.16619 0.0
H766 H 0.17555 0.36192 0.16784 0.0
H767 H 0.16 0.33578 0.1544 0.0
C768 C 0.23774 0.35385 0.14906 0.0
C769 C 0.23517 0.33011 0.14388 0.0
C770 C 0.22106 0.36646 0.1407 0.0
C771 C 0.20178 0.35551 0.12698 0.0
C772 C 0.19987 0.33217 0.12088 0.0
H773 H 0.06299 0.37964 0.08626 0.0
H774 H 0.09821 0.36416 0.09818 0.0
C775 C 0.21642 0.31955 0.12926 0.0
C776 C 0.18239 0.36768 0.12047 0.0
H777 H 0.12686 0.37592 0.13734 0.0
C778 C 0.18376 0.37904 0.09949 0.0
C779 C 0.16182 0.36665 0.13438 0.0
C780 C 0.15975 0.35445 0.15701 0.0
C781 C 0.16467 0.38916 0.09183 0.0
C782 C 0.14393 0.38796 0.10569 0.0
C783 C 0.1428 0.3768 0.1268 0.0
C784 C 0.12284 0.39751 0.09833 0.0
C785 C 0.16647 0.40037 0.06871 0.0
C786 C 0.12502 0.42141 0.09476 0.0
C787 C 0.10493 0.4303 0.08803 0.0
C788 C 0.08228 0.41545 0.08488 0.0
C789 C 0.08013 0.39154 0.08872 0.0
C790 C 0.10024 0.38267 0.09542 0.0
H791 H 0.18101 0.39534 0.05824 0.0
H792 H 0.14905 0.39556 0.0594 0.0
H793 H 0.17066 0.41952 0.07079 0.0
H794 H 0.14219 0.43321 0.09742 0.0
H795 H 0.10706 0.44886 0.08563 0.0
H796 H 0.62243 0.21782 0.86753 0.0
H797 H 0.60712 0.18254 0.8893 0.0
H798 H 0.56429 0.21983 0.93041 0.0
H799 H 0.57989 0.25536 0.90899 0.0
H800 H 0.59094 0.19256 0.95587 0.0
H801 H 0.53887 0.14128 0.8864 0.0
H802 H 0.56988 0.15341 0.87958 0.0
H803 H 0.54913 0.17237 0.88488 0.0
C804 C 0.60976 0.21857 0.88121 0.0
C805 C 0.60237 0.2395 0.88643 0.0
C806 C 0.60085 0.19829 0.89353 0.0
C807 C 0.58433 0.19841 0.91137 0.0
C808 C 0.57692 0.21925 0.91666 0.0
H809 H 0.49673 0.07955 0.97925 0.0
H810 H 0.51228 0.11477 0.95766 0.0
C811 C 0.58572 0.23952 0.90425 0.0
C812 C 0.57523 0.17696 0.92482 0.0
H813 H 0.54316 0.12119 0.92054 0.0
C814 C 0.58047 0.17696 0.94816 0.0
C815 C 0.56136 0.15665 0.91483 0.0
C816 C 0.55425 0.15586 0.89009 0.0
C817 C 0.57251 0.15716 0.96167 0.0
C818 C 0.55912 0.13666 0.95156 0.0
C819 C 0.55362 0.13678 0.92828 0.0
C820 C 0.54996 0.11516 0.96495 0.0
C821 C 0.57808 0.15852 0.98676 0.0
C822 C 0.56593 0.10337 0.97614 0.0
C823 C 0.55707 0.0831 0.98858 0.0
C824 C 0.53201 0.07411 0.99002 0.0
C825 C 0.51612 0.0859 0.97862 0.0
C826 C 0.52499 0.10609 0.96619 0.0
H827 H 0.58318 0.17678 0.99279 0.0
H828 H 0.5623 0.1495 0.99677 0.0
H829 H 0.5935 0.14989 0.99018 0.0
H830 H 0.5853 0.10974 0.97512 0.0
H831 H 0.56988 0.0745 0.99704 0.0
H832 H 0.94119 0.79536 0.3725 0.0
H833 H 0.95702 0.83035 0.39479 0.0
H834 H 0.88965 0.82148 0.43148 0.0
H835 H 0.87419 0.78597 0.41027 0.0
H836 H 0.94174 0.87084 0.39826 0.0
H837 H 0.9368 0.83019 0.48327 0.0
H838 H 0.93315 0.8133 0.45741 0.0
H839 H 0.90817 0.8245 0.4689 0.0
C840 C 0.92985 0.8006 0.38556 0.0
C841 C 0.90636 0.78764 0.3895 0.0
C842 C 0.93889 0.82077 0.3982 0.0
C843 C 0.92473 0.82843 0.41515 0.0
C844 C 0.9012 0.81572 0.41892 0.0
H845 H 0.94072 0.95085 0.50261 0.0
H846 H 0.92563 0.91531 0.4807 0.0
C847 C 0.89222 0.79553 0.40643 0.0
C848 C 0.93423 0.85004 0.42844 0.0
H849 H 0.94364 0.87157 0.48252 0.0
C850 C 0.94231 0.87093 0.41668 0.0
C851 C 0.93503 0.85027 0.45252 0.0
C852 C 0.92806 0.82832 0.46627 0.0
C853 C 0.95065 0.892 0.42828 0.0
C854 C 0.95109 0.89224 0.45231 0.0
C855 C 0.94311 0.8714 0.4641 0.0
C856 C 0.96023 0.91389 0.4655 0.0
C857 C 0.95851 0.91396 0.41476 0.0
C858 C 0.98474 0.92477 0.46445 0.0
C859 C 0.99345 0.94497 0.47703 0.0
C860 C 0.97783 0.95485 0.49094 0.0
C861 C 0.95325 0.94385 0.492 0.0
C862 C 0.94459 0.9235 0.47953 0.0
H863 H 0.95229 0.9118 0.39683 0.0
H864 H 0.95144 0.92852 0.42252 0.0
H865 H 0.97858 0.91879 0.41478 0.0
H866 H 0.99722 0.9175 0.454 0.0
H867 H 0.01248 0.95289 0.47578 0.0
H868 H 0.25555 0.66661 0.65366 0.0
H869 H 0.28405 0.64455 0.63714 0.0
H870 H 0.32279 0.70676 0.6049 0.0
H871 H 0.29438 0.72882 0.62121 0.0
H872 H 0.31485 0.66265 0.57749 0.0
H873 H 0.35586 0.65836 0.66314 0.0
H874 H 0.32356 0.64893 0.66063 0.0
H875 H 0.33705 0.67895 0.6565 0.0
C876 C 0.26982 0.67542 0.64262 0.0
C877 C 0.27295 0.69943 0.63885 0.0
C878 C 0.28611 0.66286 0.63333 0.0
C879 C 0.30558 0.67415 0.62004 0.0
C880 C 0.30788 0.69781 0.61517 0.0
H881 H 0.44668 0.64999 0.589 0.0
H882 H 0.41079 0.66492 0.59997 0.0
C883 C 0.29174 0.71037 0.62456 0.0
C884 C 0.3248 0.66199 0.61273 0.0
H885 H 0.37391 0.6424 0.63259 0.0
C886 C 0.32764 0.65795 0.58949 0.0
C887 C 0.34155 0.65625 0.62851 0.0
C888 C 0.3396 0.66091 0.6536 0.0
C889 C 0.34704 0.6484 0.58158 0.0
C890 C 0.36388 0.64285 0.59736 0.0
C891 C 0.36087 0.64667 0.6206 0.0
C892 C 0.38533 0.63386 0.59007 0.0
C893 C 0.34988 0.64498 0.55639 0.0
C894 C 0.38278 0.61144 0.58101 0.0
C895 C 0.40323 0.60276 0.57493 0.0
C896 C 0.4266 0.61641 0.57781 0.0
C897 C 0.429 0.63895 0.5868 0.0
C898 C 0.40854 0.64755 0.59296 0.0
H899 H 0.33755 0.65353 0.54625 0.0
H900 H 0.36883 0.65196 0.55108 0.0
H901 H 0.34574 0.62613 0.55243 0.0
H902 H 0.36499 0.60051 0.57901 0.0
H903 H 0.40075 0.58518 0.56847 0.0
H904 H 0.74585 0.78879 0.71279 0.0
H905 H 0.77225 0.80539 0.68127 0.0
H906 H 0.81252 0.85642 0.72695 0.0
H907 H 0.78675 0.83975 0.75838 0.0
H908 H 0.77889 0.85126 0.66542 0.0
H909 H 0.86585 0.83139 0.69408 0.0
H910 H 0.83703 0.81676 0.70536 0.0
H911 H 0.85142 0.84486 0.71609 0.0
C912 C 0.76056 0.80334 0.7161 0.0
C913 C 0.76418 0.81305 0.73801 0.0
C914 C 0.77555 0.81281 0.69812 0.0
C915 C 0.79455 0.83186 0.70189 0.0
C916 C 0.79827 0.84141 0.72377 0.0
H917 H 0.88758 0.94476 0.6458 0.0
H918 H 0.86298 0.91304 0.66714 0.0
C919 C 0.78332 0.83206 0.74165 0.0
C920 C 0.80964 0.84308 0.68292 0.0
H921 H 0.86853 0.8639 0.66837 0.0
C922 C 0.79846 0.85355 0.66564 0.0
C923 C 0.83514 0.84591 0.68325 0.0
C924 C 0.84804 0.83391 0.70058 0.0
C925 C 0.81226 0.86832 0.64974 0.0
C926 C 0.83779 0.87244 0.65114 0.0
C927 C 0.84892 0.86077 0.66747 0.0
C928 C 0.85314 0.89095 0.63779 0.0
C929 C 0.79957 0.88064 0.63253 0.0
C930 C 0.85587 0.88884 0.61424 0.0
C931 C 0.8699 0.90703 0.60194 0.0
C932 C 0.88124 0.92756 0.61306 0.0
C933 C 0.87871 0.92934 0.63671 0.0
C934 C 0.86485 0.91118 0.64894 0.0
H935 H 0.77964 0.87711 0.63504 0.0
H936 H 0.80652 0.89968 0.63354 0.0
H937 H 0.80338 0.87486 0.61518 0.0
H938 H 0.84707 0.87323 0.6054 0.0
H939 H 0.87153 0.90523 0.58372 0.0
H940 H 0.76863 0.23878 0.20905 0.0
H941 H 0.74263 0.22215 0.17715 0.0
H942 H 0.69852 0.17451 0.22308 0.0
H943 H 0.72388 0.19125 0.25486 0.0
H944 H 0.73418 0.17581 0.16269 0.0
H945 H 0.64822 0.20068 0.18722 0.0
H946 H 0.67705 0.21453 0.19917 0.0
H947 H 0.66098 0.18726 0.21028 0.0
C948 C 0.75316 0.22499 0.21232 0.0
C949 C 0.74834 0.21622 0.2344 0.0
C950 C 0.7384 0.2155 0.19412 0.0
C951 C 0.71845 0.19738 0.19785 0.0
C952 C 0.71352 0.18881 0.21991 0.0
H953 H 0.62375 0.0848 0.14292 0.0
H954 H 0.64897 0.11669 0.16378 0.0
C955 C 0.72823 0.19818 0.238 0.0
C956 C 0.70358 0.18601 0.17872 0.0
H957 H 0.64477 0.16682 0.16283 0.0
C958 C 0.71469 0.17432 0.16228 0.0
C959 C 0.6782 0.18424 0.17821 0.0
C960 C 0.66545 0.19757 0.19455 0.0
C961 C 0.70083 0.15937 0.14645 0.0
C962 C 0.67534 0.15629 0.1471 0.0
C963 C 0.66435 0.16917 0.16253 0.0
C964 C 0.65972 0.13766 0.13399 0.0
C965 C 0.71333 0.14576 0.13018 0.0
C966 C 0.65734 0.13907 0.11035 0.0
C967 C 0.64293 0.1208 0.09834 0.0
C968 C 0.63089 0.10086 0.10984 0.0
C969 C 0.63314 0.09975 0.13356 0.0
C970 C 0.64737 0.118 0.14551 0.0
H971 H 0.73321 0.14893 0.13299 0.0
H972 H 0.70585 0.12689 0.13198 0.0
H973 H 0.70992 0.15068 0.11247 0.0
H974 H 0.66667 0.15423 0.10125 0.0
H975 H 0.64153 0.12207 0.08005 0.0
H976 H 0.37516 0.63024 0.33456 0.0
H977 H 0.39029 0.61247 0.36767 0.0
H978 H 0.44338 0.58918 0.32563 0.0
H979 H 0.42836 0.60686 0.29244 0.0
H980 H 0.39283 0.56755 0.37692 0.0
H981 H 0.48533 0.62178 0.37653 0.0
H982 H 0.46106 0.62868 0.3596 0.0
H983 H 0.47714 0.60685 0.35017 0.0
C984 C 0.38999 0.62125 0.33227 0.0
C985 C 0.40057 0.62017 0.3107 0.0
C986 C 0.3987 0.61114 0.3513 0.0
C987 C 0.41829 0.59975 0.34935 0.0
C988 C 0.42867 0.59835 0.32781 0.0
H989 H 0.45951 0.50511 0.45079 0.0
H990 H 0.4432 0.52181 0.41759 0.0
C991 C 0.42002 0.6085 0.30877 0.0
C992 C 0.42758 0.58913 0.36977 0.0
H993 H 0.47844 0.58966 0.4017 0.0
C994 C 0.41155 0.57243 0.38234 0.0
C995 C 0.45193 0.59563 0.37715 0.0
C996 C 0.46983 0.61437 0.36532 0.0
C997 C 0.41921 0.56192 0.40179 0.0
C998 C 0.44375 0.56791 0.40876 0.0
C999 C 0.4597 0.58481 0.39633 0.0
C1000 C 0.45317 0.55743 0.4292 0.0
C1001 C 0.40075 0.54491 0.41499 0.0
C1002 C 0.46471 0.57178 0.44674 0.0
C1003 C 0.47426 0.56229 0.46566 0.0
C1004 C 0.47261 0.53813 0.46759 0.0
C1005 C 0.46095 0.52374 0.45006 0.0
C1006 C 0.45148 0.53329 0.43105 0.0
H1007 H 0.382 0.5471 0.41135 0.0
H1008 H 0.40206 0.52696 0.41007 0.0
H1009 H 0.40403 0.54692 0.43356 0.0
H1010 H 0.46634 0.59043 0.44581 0.0
H1011 H 0.48306 0.57398 0.47876 0.0
H1012 H 0.08225 0.38062 0.81905 0.0
H1013 H 0.06707 0.39858 0.85226 0.0
H1014 H 0.12024 0.46122 0.84116 0.0
H1015 H 0.13534 0.44352 0.80783 0.0
H1016 H 0.09471 0.41771 0.89225 0.0
H1017 H 0.05489 0.48374 0.84657 0.0
H1018 H 0.06173 0.45843 0.83256 0.0
H1019 H 0.08562 0.48261 0.83932 0.0
C1020 C 0.09056 0.39831 0.82351 0.0
C1021 C 0.11002 0.4106 0.81067 0.0
C1022 C 0.08194 0.40851 0.8426 0.0
C1023 C 0.09233 0.43135 0.84912 0.0
C1024 C 0.11171 0.44369 0.83634 0.0
H1025 H 0.05925 0.52325 0.95723 0.0
H1026 H 0.07635 0.50656 0.9243 0.0
C1027 C 0.12048 0.43345 0.81737 0.0
C1028 C 0.08328 0.44205 0.86957 0.0
H1029 H 0.05521 0.4857 0.88666 0.0
C1030 C 0.08601 0.43254 0.89103 0.0
C1031 C 0.07213 0.46154 0.86804 0.0
C1032 C 0.06819 0.47215 0.84541 0.0
C1033 C 0.07818 0.44211 0.91098 0.0
C1034 C 0.0666 0.46137 0.90946 0.0
C1035 C 0.06404 0.47097 0.88795 0.0
C1036 C 0.05657 0.47149 0.92984 0.0
C1037 C 0.08297 0.43176 0.93354 0.0
C1038 C 0.03952 0.4575 0.94391 0.0
C1039 C 0.02988 0.46695 0.96285 0.0
C1040 C 0.03673 0.49076 0.96808 0.0
C1041 C 0.0536 0.50484 0.95383 0.0
C1042 C 0.06337 0.49531 0.93493 0.0
H1043 H 0.09841 0.42265 0.93247 0.0
H1044 H 0.08696 0.44529 0.94698 0.0
H1045 H 0.06673 0.41882 0.93867 0.0
H1046 H 0.03336 0.43924 0.94009 0.0
H1047 H 0.01676 0.45555 0.97321 0.0
H1048 H 0.61828 0.8208 0.92308 0.0
H1049 H 0.59558 0.84698 0.94194 0.0
H1050 H 0.58664 0.87934 0.87776 0.0
H1051 H 0.60927 0.8532 0.85873 0.0
H1052 H 0.61322 0.90193 0.93319 0.0
H1053 H 0.51683 0.86205 0.91476 0.0
H1054 H 0.5396 0.84452 0.91768 0.0
H1055 H 0.53956 0.86237 0.8931 0.0
C1056 C 0.61102 0.83314 0.91292 0.0
C1057 C 0.61559 0.83503 0.88946 0.0
C1058 C 0.59817 0.84811 0.92371 0.0
C1059 C 0.58943 0.86493 0.91116 0.0
C1060 C 0.59316 0.86632 0.88764 0.0
H1061 H 0.51297 0.973 0.95559 0.0
H1062 H 0.52951 0.94495 0.93258 0.0
C1063 C 0.60617 0.8515 0.87686 0.0
C1064 C 0.57841 0.88241 0.92295 0.0
H1065 H 0.52432 0.89676 0.93619 0.0
C1066 C 0.59379 0.90086 0.93387 0.0
C1067 C 0.55314 0.88103 0.92338 0.0
C1068 C 0.53614 0.86145 0.91168 0.0
C1069 C 0.58452 0.918 0.94551 0.0
C1070 C 0.55913 0.91622 0.94672 0.0
C1071 C 0.54375 0.898 0.93532 0.0
C1072 C 0.54833 0.93261 0.96057 0.0
C1073 C 0.60203 0.93797 0.95618 0.0
C1074 C 0.55301 0.93455 0.98395 0.0
C1075 C 0.54381 0.95059 0.99704 0.0
C1076 C 0.52943 0.96485 0.98708 0.0
C1077 C 0.52408 0.96237 0.96375 0.0
C1078 C 0.53347 0.94634 0.9506 0.0
H1079 H 0.62011 0.94059 0.94797 0.0
H1080 H 0.59519 0.95438 0.95503 0.0
H1081 H 0.60439 0.93414 0.97439 0.0
H1082 H 0.56391 0.9237 0.9921 0.0
H1083 H 0.54801 0.95177 1.01501 0.0
H1084 H 0.8909 0.16896 0.36028 0.0
H1085 H 0.91314 0.14275 0.37928 0.0
H1086 H 0.91587 0.18329 0.44073 0.0
H1087 H 0.89328 0.20948 0.42196 0.0
H1088 H 0.96097 0.1681 0.42779 0.0
H1089 H 0.87922 0.09709 0.42941 0.0
H1090 H 0.8873 0.11016 0.40219 0.0
H1091 H 0.87755 0.12704 0.42451 0.0
C1092 C 0.89623 0.17232 0.37785 0.0
C1093 C 0.89006 0.19113 0.38971 0.0
C1094 C 0.909 0.15738 0.38862 0.0
C1095 C 0.91583 0.16097 0.41144 0.0
C1096 C 0.91069 0.18028 0.42308 0.0
H1097 H 0.95007 0.06749 0.51169 0.0
H1098 H 0.93422 0.09553 0.48879 0.0
C1099 C 0.89787 0.19524 0.41232 0.0
C1100 C 0.92718 0.14388 0.42351 0.0
H1101 H 0.91551 0.08831 0.44344 0.0
C1102 C 0.95114 0.15061 0.43116 0.0
C1103 C 0.91413 0.1212 0.42799 0.0
C1104 C 0.88806 0.11338 0.42079 0.0
C1105 C 0.96243 0.13514 0.44323 0.0
C1106 C 0.9494 0.11241 0.44758 0.0
C1107 C 0.92547 0.10571 0.43988 0.0
C1108 C 0.95967 0.0957 0.46129 0.0
C1109 C 0.98794 0.14333 0.45178 0.0
C1110 C 0.97916 0.08638 0.45328 0.0
C1111 C 0.9883 0.0702 0.46633 0.0
C1112 C 0.97805 0.06314 0.4876 0.0
C1113 C 0.95847 0.07254 0.49545 0.0
C1114 C 0.94934 0.08858 0.48238 0.0
H1115 H 0.99394 0.16246 0.4504 0.0
H1116 H 0.98943 0.13822 0.46979 0.0
H1117 H 1.00045 0.135 0.44162 0.0
H1118 H 0.98714 0.09145 0.43687 0.0
H1119 H 1.00338 0.0633 0.45978 0.0
H1120 H 0.24702 0.64351 0.13062 0.0
H1121 H 0.20975 0.6271 0.11016 0.0
H1122 H 0.20178 0.56471 0.1502 0.0
H1123 H 0.23882 0.58134 0.17113 0.0
H1124 H 0.19848 0.59007 0.08362 0.0
H1125 H 0.13536 0.57821 0.15676 0.0
H1126 H 0.16594 0.5946 0.15895 0.0
H1127 H 0.15998 0.56338 0.16026 0.0
C1128 C 0.23732 0.6263 0.1351 0.0
C1129 C 0.24589 0.61377 0.15257 0.0
C1130 C 0.21595 0.61693 0.1234 0.0
C1131 C 0.20261 0.59477 0.1288 0.0
C1132 C 0.21127 0.58209 0.14609 0.0
H1133 H 0.07515 0.50804 0.06574 0.0
H1134 H 0.11293 0.52238 0.08644 0.0
C1135 C 0.23254 0.59158 0.158 0.0
C1136 C 0.18009 0.58483 0.11584 0.0
H1137 H 0.1197 0.56149 0.12165 0.0
C1138 C 0.18127 0.58392 0.09199 0.0
C1139 C 0.1575 0.57679 0.12665 0.0
C1140 C 0.1545 0.57848 0.15204 0.0
C1141 C 0.16066 0.5751 0.07877 0.0
C1142 C 0.13822 0.56695 0.08961 0.0
C1143 C 0.13699 0.56764 0.1134 0.0
C1144 C 0.11569 0.55818 0.07646 0.0
C1145 C 0.16299 0.57436 0.05327 0.0
C1146 C 0.10468 0.57355 0.06398 0.0
C1147 C 0.08299 0.56547 0.05225 0.0
C1148 C 0.0719 0.54178 0.05263 0.0
C1149 C 0.0832 0.52637 0.06494 0.0
C1150 C 0.10477 0.53453 0.07686 0.0
H1151 H 0.1822 0.57758 0.04772 0.0
H1152 H 0.15356 0.55726 0.04655 0.0
H1153 H 0.15427 0.58788 0.04567 0.0
H1154 H 0.11271 0.5919 0.0636 0.0
H1155 H 0.07484 0.57784 0.043 0.0
H1156 H 0.26751 0.38356 0.63436 0.0
H1157 H 0.30368 0.40068 0.61297 0.0
H1158 H 0.30471 0.46668 0.64552 0.0
H1159 H 0.26924 0.44937 0.66798 0.0
H1160 H 0.31177 0.43514 0.58259 0.0
H1161 H 0.37333 0.45964 0.65603 0.0
H1162 H 0.34389 0.44105 0.65889 0.0
H1163 H 0.34674 0.47204 0.65714 0.0
C1164 C 0.27562 0.40162 0.63736 0.0
C1165 C 0.26549 0.41494 0.65324 0.0
C1166 C 0.29623 0.41147 0.62488 0.0
C1167 C 0.30729 0.43489 0.62787 0.0
C1168 C 0.29693 0.44843 0.64327 0.0
H1169 H 0.43322 0.52156 0.56303 0.0
H1170 H 0.39528 0.50744 0.5834 0.0
C1171 C 0.27637 0.43855 0.6559 0.0
C1172 C 0.32941 0.44505 0.6146 0.0
H1173 H 0.38861 0.47279 0.61984 0.0
C1174 C 0.32857 0.44333 0.59077 0.0
C1175 C 0.35142 0.45574 0.62521 0.0
C1176 C 0.35406 0.45706 0.65072 0.0
C1177 C 0.34898 0.45206 0.57734 0.0
C1178 C 0.3709 0.46271 0.58796 0.0
C1179 C 0.37174 0.4647 0.61173 0.0
C1180 C 0.39338 0.47134 0.57475 0.0
C1181 C 0.34691 0.45002 0.55183 0.0
C1182 C 0.40496 0.45572 0.56314 0.0
C1183 C 0.42673 0.4637 0.55157 0.0
C1184 C 0.43737 0.4875 0.55131 0.0
C1185 C 0.42552 0.50313 0.56274 0.0
C1186 C 0.40385 0.4951 0.57446 0.0
H1187 H 0.32773 0.44608 0.54613 0.0
H1188 H 0.3563 0.46631 0.54358 0.0
H1189 H 0.35569 0.43576 0.54596 0.0
H1190 H 0.39737 0.43728 0.56338 0.0
H1191 H 0.43533 0.45115 0.54303 0.0
H1192 H 0.75017 0.66655 0.88903 0.0
H1193 H 0.78196 0.64801 0.90427 0.0
H1194 H 0.81689 0.71289 0.93463 0.0
H1195 H 0.78582 0.73186 0.91882 0.0
H1196 H 0.83566 0.66864 0.89372 0.0
H1197 H 0.81166 0.65936 0.98544 0.0
H1198 H 0.78928 0.66021 0.96362 0.0
H1199 H 0.80986 0.68633 0.97172 0.0
C1200 C 0.76455 0.6769 0.899 0.0
C1201 C 0.76545 0.70076 0.90258 0.0
C1202 C 0.78259 0.66623 0.90781 0.0
C1203 C 0.8016 0.67911 0.92063 0.0
C1204 C 0.80213 0.70264 0.92499 0.0
H1205 H 0.93211 0.65198 0.98312 0.0
H1206 H 0.89695 0.66778 0.97144 0.0
C1207 C 0.78425 0.7134 0.91603 0.0
C1208 C 0.822 0.66851 0.92784 0.0
H1209 H 0.8488 0.64996 0.9743 0.0
C1210 C 0.83852 0.66438 0.9113 0.0
C1211 C 0.82568 0.66333 0.9508 0.0
C1212 C 0.80818 0.66737 0.96902 0.0
C1213 C 0.85901 0.65552 0.91718 0.0
C1214 C 0.86262 0.65002 0.94016 0.0
C1215 C 0.84598 0.65412 0.9567 0.0
C1216 C 0.88368 0.64022 0.94739 0.0
C1217 C 0.87695 0.65287 0.89881 0.0
C1218 C 0.88769 0.61934 0.93799 0.0
C1219 C 0.90785 0.61043 0.94447 0.0
C1220 C 0.92415 0.62204 0.96077 0.0
C1221 C 0.9198 0.64265 0.97056 0.0
C1222 C 0.89976 0.65168 0.9639 0.0
H1223 H 0.87531 0.66401 0.88391 0.0
H1224 H 0.89583 0.65735 0.90524 0.0
H1225 H 0.8734 0.63456 0.89287 0.0
H1226 H 0.87515 0.60985 0.92571 0.0
H1227 H 0.91049 0.59427 0.93698 0.0
H1228 H 0.38434 0.77361 0.13119 0.0
H1229 H 0.39938 0.81054 0.11225 0.0
H1230 H 0.45019 0.83127 0.16679 0.0
H1231 H 0.43592 0.79388 0.18547 0.0
H1232 H 0.39973 0.85477 0.12598 0.0
H1233 H 0.49408 0.84373 0.11188 0.0
H1234 H 0.47025 0.82008 0.12053 0.0
H1235 H 0.48469 0.84108 0.14105 0.0
C1236 C 0.399 0.78581 0.13905 0.0
C1237 C 0.40908 0.78048 0.15981 0.0
C1238 C 0.40745 0.80707 0.12824 0.0
C1239 C 0.42624 0.82363 0.13782 0.0
C1240 C 0.43606 0.81863 0.15875 0.0
H1241 H 0.49909 0.96222 0.09443 0.0
H1242 H 0.48445 0.92631 0.11547 0.0
C1243 C 0.42764 0.79729 0.16958 0.0
C1244 C 0.43512 0.8462 0.126 0.0
H1245 H 0.48544 0.88046 0.10272 0.0
C1246 C 0.41847 0.86034 0.12086 0.0
C1247 C 0.45958 0.85356 0.11927 0.0
C1248 C 0.47817 0.83875 0.12325 0.0
C1249 C 0.42561 0.88163 0.10946 0.0
C1250 C 0.45004 0.88893 0.10266 0.0
C1251 C 0.46673 0.87491 0.10794 0.0
C1252 C 0.45859 0.91094 0.08987 0.0
C1253 C 0.407 0.89632 0.10512 0.0
C1254 C 0.44911 0.91426 0.06833 0.0
C1255 C 0.45745 0.9348 0.05621 0.0
C1256 C 0.47555 0.95251 0.06532 0.0
C1257 C 0.48507 0.94907 0.08688 0.0
C1258 C 0.47675 0.92849 0.09895 0.0
H1259 H 0.39102 0.89144 0.11643 0.0
H1260 H 0.41488 0.91504 0.10763 0.0
H1261 H 0.40061 0.89377 0.08729 0.0
H1262 H 0.43543 0.90081 0.06073 0.0
H1263 H 0.44978 0.93671 0.03962 0.0
H1264 H 0.07368 0.23671 0.68507 0.0
H1265 H 0.05792 0.20029 0.66476 0.0
H1266 H 0.11637 0.2164 0.61653 0.0
H1267 H 0.1323 0.25252 0.63682 0.0
H1268 H 0.04199 0.19128 0.62144 0.0
H1269 H 0.12225 0.15199 0.6353 0.0
H1270 H 0.11793 0.17767 0.65029 0.0
H1271 H 0.12972 0.1798 0.62179 0.0
C1272 C 0.08313 0.2325 0.67011 0.0
C1273 C 0.10446 0.24742 0.66278 0.0
C1274 C 0.07415 0.21163 0.65854 0.0
C1275 C 0.08626 0.20525 0.63938 0.0
C1276 C 0.10711 0.22048 0.63166 0.0
H1277 H 0.06059 0.09222 0.54088 0.0
H1278 H 0.07503 0.12828 0.56207 0.0
C1279 C 0.11618 0.24121 0.64328 0.0
C1280 C 0.07696 0.18289 0.62723 0.0
H1281 H 0.09336 0.13313 0.60827 0.0
C1282 C 0.05317 0.1785 0.61873 0.0
C1283 C 0.0915 0.16611 0.62366 0.0
C1284 C 0.11668 0.16898 0.63343 0.0
C1285 C 0.04378 0.15815 0.60634 0.0
C1286 C 0.05847 0.1416 0.6025 0.0
C1287 C 0.08217 0.14589 0.6111 0.0
C1288 C 0.04953 0.11967 0.58967 0.0
C1289 C 0.0184 0.15473 0.597 0.0
C1290 C 0.0306 0.10267 0.59827 0.0
C1291 C 0.02238 0.08196 0.58627 0.0
C1292 C 0.0329 0.07778 0.56536 0.0
C1293 C 0.05199 0.09482 0.55687 0.0
C1294 C 0.0603 0.11547 0.56897 0.0
H1295 H 0.01143 0.17113 0.59713 0.0
H1296 H 0.01767 0.14793 0.57934 0.0
H1297 H 0.00617 0.14184 0.60758 0.0
H1298 H 0.02227 0.10536 0.61437 0.0
H1299 H 0.00768 0.06927 0.59338 0.0
H1300 H 0.75653 0.33151 0.42832 0.0
H1301 H 0.72384 0.3486 0.44437 0.0
H1302 H 0.69312 0.35078 0.37754 0.0
H1303 H 0.72524 0.33337 0.36147 0.0
H1304 H 0.70855 0.39205 0.4318 0.0
H1305 H 0.63772 0.3129 0.41727 0.0
H1306 H 0.66966 0.31244 0.41729 0.0
H1307 H 0.65601 0.32292 0.39291 0.0
C1308 C 0.74281 0.33566 0.41707 0.0
C1309 C 0.74347 0.33107 0.39363 0.0
C1310 C 0.72425 0.34548 0.42624 0.0
C1311 C 0.70597 0.35063 0.41214 0.0
C1312 C 0.70694 0.34666 0.38871 0.0
H1313 H 0.57422 0.40238 0.42503 0.0
H1314 H 0.60895 0.38634 0.4127 0.0
C1315 C 0.72547 0.33695 0.37954 0.0
C1316 C 0.68556 0.3598 0.42181 0.0
H1317 H 0.62418 0.34703 0.4282 0.0
C1318 C 0.69011 0.3822 0.43123 0.0
C1319 C 0.66159 0.34683 0.42097 0.0
C1320 C 0.65586 0.32235 0.41175 0.0
C1321 C 0.6711 0.3923 0.43919 0.0
C1322 C 0.64706 0.37943 0.43805 0.0
C1323 C 0.64262 0.35688 0.42897 0.0
C1324 C 0.62613 0.38916 0.44575 0.0
C1325 C 0.67683 0.41693 0.44801 0.0
C1326 C 0.62411 0.39571 0.46849 0.0
C1327 C 0.60426 0.40482 0.47559 0.0
C1328 C 0.58596 0.40735 0.4601 0.0
C1329 C 0.58787 0.40042 0.43741 0.0
C1330 C 0.60776 0.39138 0.43032 0.0
H1331 H 0.69507 0.42622 0.44256 0.0
H1332 H 0.66319 0.42684 0.44208 0.0
H1333 H 0.67649 0.41669 0.46685 0.0
H1334 H 0.63779 0.39361 0.48078 0.0
H1335 H 0.6031 0.40966 0.49326 0.0
loop_
_geom_bond_atom_site_label_1
_geom_bond_atom_site_label_2
_geom_bond_distance
_geom_bond_site_symmetry_2
_ccdc_geom_bond_type
C0 C1 1.386 . S
C0 C2 1.397 . S
C0 H24 0.931 . S
C1 C0 1.386 . S
C1 C5 1.397 . S
C2 C0 1.397 . S
C2 C3 1.384 . S
C2 H25 0.930 . S
C3 C2 1.384 . S
C3 C4 1.377 . S
C3 C6 1.481 . S
C4 C3 1.377 . S
C4 C5 1.389 . S
C4 H26 0.929 . S
C5 C1 1.397 . S
C5 C4 1.389 . S
C5 H27 0.931 . S
C6 C3 1.481 . S
C6 C7 1.387 . S
C6 C11 1.390 . S
C7 C6 1.387 . S
C7 C8 1.401 . S
C7 H28 0.930 . S
C8 C7 1.401 . S
C8 C9 1.376 . S
C8 C17 1.511 . S
C9 C8 1.376 . S
C9 C10 1.392 . S
C9 H30 0.931 . S
C10 C9 1.392 . S
C10 C11 1.361 . S
C10 C12 1.500 . S
C11 C6 1.390 . S
C11 C10 1.361 . S
C11 H29 0.931 . S
C12 C10 1.500 . S
C12 C13 1.371 . S
C12 C14 1.365 . S
C13 C12 1.371 . S
C13 C23 1.386 . S
C13 H31 0.931 . S
C14 C12 1.365 . S
C14 C15 1.409 . S
C14 H32 0.929 . S
C15 C14 1.409 . S
C15 C16 1.380 . S
C15 H33 0.930 . S
C16 C15 1.380 . S
C16 C23 1.357 . S
C17 C8 1.511 . S
C17 C18 1.341 . S
C17 C19 1.371 . S
C18 C17 1.341 . S
C18 C22 1.394 . S
C18 H34 0.930 . S
C19 C17 1.371 . S
C19 C20 1.392 . S
C19 H35 0.931 . S
C20 C19 1.392 . S
C20 C21 1.331 . S
C20 H38 0.932 . S
C21 C20 1.331 . S
C21 C22 1.336 . S
C22 C18 1.394 . S
C22 C21 1.336 . S
C22 H37 0.929 . S
C23 C13 1.386 . S
C23 C16 1.357 . S
C23 H36 0.928 . S
H24 C0 0.931 . S
H25 C2 0.930 . S
H26 C4 0.929 . S
H27 C5 0.931 . S
H28 C7 0.930 . S
H29 C11 0.931 . S
H30 C9 0.931 . S
H31 C13 0.931 . S
H32 C14 0.929 . S
H33 C15 0.930 . S
H34 C18 0.930 . S
H35 C19 0.931 . S
H36 C23 0.928 . S
H37 C22 0.929 . S
H38 C20 0.932 . S
C39 C40 1.386 . S
C39 C41 1.397 . S
C39 H63 0.931 . S
C40 C39 1.386 . S
C40 C44 1.397 . S
C41 C39 1.397 . S
C41 C42 1.384 . S
C41 H64 0.930 . S
C42 C41 1.384 . S
C42 C43 1.377 . S
C42 C45 1.481 . S
C43 C42 1.377 . S
C43 C44 1.389 . S
C43 H65 0.929 . S
C44 C40 1.397 . S
C44 C43 1.389 . S
C44 H66 0.931 . S
C45 C42 1.481 . S
C45 C46 1.387 . S
C45 C50 1.390 . S
C46 C45 1.387 . S
C46 C47 1.401 . S
C46 H67 0.930 . S
C47 C46 1.401 . S
C47 C48 1.376 . S
C47 C56 1.511 . S
C48 C47 1.376 . S
C48 C49 1.392 . S
C48 H69 0.931 . S
C49 C48 1.392 . S
C49 C50 1.361 . S
C49 C51 1.500 . S
C50 C45 1.390 . S
C50 C49 1.361 . S
C50 H68 0.931 . S
C51 C49 1.500 . S
C51 C52 1.371 . S
C51 C53 1.365 . S
C52 C51 1.371 . S
C52 C62 1.386 . S
C52 H70 0.931 . S
C53 C51 1.365 . S
C53 C54 1.409 . S
C53 H71 0.929 . S
C54 C53 1.409 . S
C54 C55 1.380 . S
C54 H72 0.930 . S
C55 C54 1.380 . S
C55 C62 1.357 . S
C56 C47 1.511 . S
C56 C57 1.341 . S
C56 C58 1.371 . S
C57 C56 1.341 . S
C57 C61 1.394 . S
C57 H73 0.930 . S
C58 C56 1.371 . S
C58 C59 1.392 . S
C58 H74 0.931 . S
C59 C58 1.392 . S
C59 C60 1.331 . S
C59 H77 0.932 . S
C60 C59 1.331 . S
C60 C61 1.336 . S
C61 C57 1.394 . S
C61 C60 1.336 . S
C61 H76 0.929 . S
C62 C52 1.386 . S
C62 C55 1.357 . S
C62 H75 0.928 . S
H63 C39 0.931 . S
H64 C41 0.930 . S
H65 C43 0.929 . S
H66 C44 0.931 . S
H67 C46 0.930 . S
H68 C50 0.931 . S
H69 C48 0.931 . S
H70 C52 0.931 . S
H71 C53 0.929 . S
H72 C54 0.930 . S
H73 C57 0.930 . S
H74 C58 0.931 . S
H75 C62 0.928 . S
H76 C61 0.929 . S
H77 C59 0.932 . S
C78 C79 1.386 . S
C78 C80 1.397 . S
C78 H102 0.931 . S
C79 C78 1.386 . S
C79 C83 1.397 . S
C80 C78 1.397 . S
C80 C81 1.384 . S
C80 H103 0.930 . S
C81 C80 1.384 . S
C81 C82 1.377 . S
C81 C84 1.481 . S
C82 C81 1.377 . S
C82 C83 1.389 . S
C82 H104 0.929 . S
C83 C79 1.397 . S
C83 C82 1.389 . S
C83 H105 0.931 . S
C84 C81 1.481 . S
C84 C85 1.387 . S
C84 C89 1.390 . S
C85 C84 1.387 . S
C85 C86 1.401 . S
C85 H106 0.930 . S
C86 C85 1.401 . S
C86 C87 1.376 . S
C86 C95 1.511 . S
C87 C86 1.376 . S
C87 C88 1.392 . S
C87 H108 0.931 . S
C88 C87 1.392 . S
C88 C89 1.361 . S
C88 C90 1.500 . S
C89 C84 1.390 . S
C89 C88 1.361 . S
C89 H107 0.931 . S
C90 C88 1.500 . S
C90 C91 1.371 . S
C90 C92 1.365 . S
C91 C90 1.371 . S
C91 C101 1.386 . S
C91 H109 0.931 . S
C92 C90 1.365 . S
C92 C93 1.409 . S
C92 H110 0.929 . S
C93 C92 1.409 . S
C93 C94 1.380 . S
C93 H111 0.930 . S
C94 C93 1.380 . S
C94 C101 1.357 . S
C95 C86 1.511 . S
C95 C96 1.341 . S
C95 C97 1.371 . S
C96 C95 1.341 . S
C96 C100 1.394 . S
C96 H112 0.930 . S
C97 C95 1.371 . S
C97 C98 1.392 . S
C97 H113 0.931 . S
C98 C97 1.392 . S
C98 C99 1.331 . S
C98 H116 0.932 . S
C99 C98 1.331 . S
C99 C100 1.336 . S
C100 C96 1.394 . S
C100 C99 1.336 . S
C100 H115 0.929 . S
C101 C91 1.386 . S
C101 C94 1.357 . S
C101 H114 0.928 . S
H102 C78 0.931 . S
H103 C80 0.930 . S
H104 C82 0.929 . S
H105 C83 0.931 . S
H106 C85 0.930 . S
H107 C89 0.931 . S
H108 C87 0.931 . S
H109 C91 0.931 . S
H110 C92 0.929 . S
H111 C93 0.930 . S
H112 C96 0.930 . S
H113 C97 0.931 . S
H114 C101 0.928 . S
H115 C100 0.929 . S
H116 C98 0.932 . S
C117 C118 1.386 . S
C117 C119 1.397 . S
C117 H141 0.931 . S
C118 C117 1.386 . S
C118 C122 1.397 . S
C119 C117 1.397 . S
C119 C120 1.384 . S
C119 H142 0.930 . S
C120 C119 1.384 . S
C120 C121 1.377 . S
C120 C123 1.481 . S
C121 C120 1.377 . S
C121 C122 1.389 . S
C121 H143 0.929 . S
C122 C118 1.397 . S
C122 C121 1.389 . S
C122 H144 0.931 . S
C123 C120 1.481 . S
C123 C124 1.387 . S
C123 C128 1.390 . S
C124 C123 1.387 . S
C124 C125 1.401 . S
C124 H145 0.930 . S
C125 C124 1.401 . S
C125 C126 1.376 . S
C125 C134 1.511 . S
C126 C125 1.376 . S
C126 C127 1.392 . S
C126 H147 0.931 . S
C127 C126 1.392 . S
C127 C128 1.361 . S
C127 C129 1.500 . S
C128 C123 1.390 . S
C128 C127 1.361 . S
C128 H146 0.931 . S
C129 C127 1.500 . S
C129 C130 1.371 . S
C129 C131 1.365 . S
C130 C129 1.371 . S
C130 C140 1.386 . S
C130 H148 0.931 . S
C131 C129 1.365 . S
C131 C132 1.409 . S
C131 H149 0.929 . S
C132 C131 1.409 . S
C132 C133 1.380 . S
C132 H150 0.930 . S
C133 C132 1.380 . S
C133 C140 1.357 . S
C134 C125 1.511 . S
C134 C135 1.341 . S
C134 C136 1.371 . S
C135 C134 1.341 . S
C135 C139 1.394 . S
C135 H151 0.930 . S
C136 C134 1.371 . S
C136 C137 1.392 . S
C136 H152 0.931 . S
C137 C136 1.392 . S
C137 C138 1.331 . S
C137 H155 0.932 . S
C138 C137 1.331 . S
C138 C139 1.336 . S
C139 C135 1.394 . S
C139 C138 1.336 . S
C139 H154 0.929 . S
C140 C130 1.386 . S
C140 C133 1.357 . S
C140 H153 0.928 . S
H141 C117 0.931 . S
H142 C119 0.930 . S
H143 C121 0.929 . S
H144 C122 0.931 . S
H145 C124 0.930 . S
H146 C128 0.931 . S
H147 C126 0.931 . S
H148 C130 0.931 . S
H149 C131 0.929 . S
H150 C132 0.930 . S
H151 C135 0.930 . S
H152 C136 0.931 . S
H153 C140 0.928 . S
H154 C139 0.929 . S
H155 C137 0.932 . S
C156 C157 1.386 . S
C156 C158 1.397 . S
C156 H180 0.931 . S
C157 C156 1.386 . S
C157 C161 1.397 . S
C158 C156 1.397 . S
C158 C159 1.384 . S
C158 H181 0.930 . S
C159 C158 1.384 . S
C159 C160 1.377 . S
C159 C162 1.481 . S
C160 C159 1.377 . S
C160 C161 1.389 . S
C160 H182 0.929 . S
C161 C157 1.397 . S
C161 C160 1.389 . S
C161 H183 0.931 . S
C162 C159 1.481 . S
C162 C163 1.387 . S
C162 C167 1.390 . S
C163 C162 1.387 . S
C163 C164 1.401 . S
C163 H184 0.930 . S
C164 C163 1.401 . S
C164 C165 1.376 . S
C164 C173 1.511 . S
C165 C164 1.376 . S
C165 C166 1.392 . S
C165 H186 0.931 . S
C166 C165 1.392 . S
C166 C167 1.361 . S
C166 C168 1.500 . S
C167 C162 1.390 . S
C167 C166 1.361 . S
C167 H185 0.931 . S
C168 C166 1.500 . S
C168 C169 1.371 . S
C168 C170 1.365 . S
C169 C168 1.371 . S
C169 C179 1.386 . S
C169 H187 0.931 . S
C170 C168 1.365 . S
C170 C171 1.409 . S
C170 H188 0.929 . S
C171 C170 1.409 . S
C171 C172 1.380 . S
C171 H189 0.930 . S
C172 C171 1.380 . S
C172 C179 1.357 . S
C173 C164 1.511 . S
C173 C174 1.341 . S
C173 C175 1.371 . S
C174 C173 1.341 . S
C174 C178 1.394 . S
C174 H190 0.930 . S
C175 C173 1.371 . S
C175 C176 1.392 . S
C175 H191 0.931 . S
C176 C175 1.392 . S
C176 C177 1.331 . S
C176 H194 0.932 . S
C177 C176 1.331 . S
C177 C178 1.336 . S
C178 C174 1.394 . S
C178 C177 1.336 . S
C178 H193 0.929 . S
C179 C169 1.386 . S
C179 C172 1.357 . S
C179 H192 0.928 . S
H180 C156 0.931 . S
H181 C158 0.930 . S
H182 C160 0.929 . S
H183 C161 0.931 . S
H184 C163 0.930 . S
H185 C167 0.931 . S
H186 C165 0.931 . S
H187 C169 0.931 . S
H188 C170 0.929 . S
H189 C171 0.930 . S
H190 C174 0.930 . S
H191 C175 0.931 . S
H192 C179 0.928 . S
H193 C178 0.929 . S
H194 C176 0.932 . S
C195 C196 1.386 . S
C195 C197 1.397 . S
C195 H219 0.931 . S
C196 C195 1.386 . S
C196 C200 1.397 . S
C197 C195 1.397 . S
C197 C198 1.384 . S
C197 H220 0.930 . S
C198 C197 1.384 . S
C198 C199 1.377 . S
C198 C201 1.481 . S
C199 C198 1.377 . S
C199 C200 1.389 . S
C199 H221 0.929 . S
C200 C196 1.397 . S
C200 C199 1.389 . S
C200 H222 0.931 . S
C201 C198 1.481 . S
C201 C202 1.387 . S
C201 C206 1.390 . S
C202 C201 1.387 . S
C202 C203 1.401 . S
C202 H223 0.930 . S
C203 C202 1.401 . S
C203 C204 1.376 . S
C203 C212 1.511 . S
C204 C203 1.376 . S
C204 C205 1.392 . S
C204 H225 0.931 . S
C205 C204 1.392 . S
C205 C206 1.361 . S
C205 C207 1.500 . S
C206 C201 1.390 . S
C206 C205 1.361 . S
C206 H224 0.931 . S
C207 C205 1.500 . S
C207 C208 1.371 . S
C207 C209 1.365 . S
C208 C207 1.371 . S
C208 C218 1.386 . S
C208 H226 0.931 . S
C209 C207 1.365 . S
C209 C210 1.409 . S
C209 H227 0.929 . S
C210 C209 1.409 . S
C210 C211 1.380 . S
C210 H228 0.930 . S
C211 C210 1.380 . S
C211 C218 1.357 . S
C212 C203 1.511 . S
C212 C213 1.341 . S
C212 C214 1.371 . S
C213 C212 1.341 . S
C213 C217 1.394 . S
C213 H229 0.930 . S
C214 C212 1.371 . S
C214 C215 1.392 . S
C214 H230 0.931 . S
C215 C214 1.392 . S
C215 C216 1.331 . S
C215 H233 0.932 . S
C216 C215 1.331 . S
C216 C217 1.336 . S
C217 C213 1.394 . S
C217 C216 1.336 . S
C217 H232 0.929 . S
C218 C208 1.386 . S
C218 C211 1.357 . S
C218 H231 0.928 . S
H219 C195 0.931 . S
H220 C197 0.930 . S
H221 C199 0.929 . S
H222 C200 0.931 . S
H223 C202 0.930 . S
H224 C206 0.931 . S
H225 C204 0.931 . S
H226 C208 0.931 . S
H227 C209 0.929 . S
H228 C210 0.930 . S
H229 C213 0.930 . S
H230 C214 0.931 . S
H231 C218 0.928 . S
H232 C217 0.929 . S
H233 C215 0.932 . S
C234 C235 1.386 . S
C234 C236 1.397 . S
C234 H258 0.931 . S
C235 C234 1.386 . S
C235 C239 1.397 . S
C236 C234 1.397 . S
C236 C237 1.384 . S
C236 H259 0.930 . S
C237 C236 1.384 . S
C237 C238 1.377 . S
C237 C240 1.481 . S
C238 C237 1.377 . S
C238 C239 1.389 . S
C238 H260 0.929 . S
C239 C235 1.397 . S
C239 C238 1.389 . S
C239 H261 0.931 . S
C240 C237 1.481 . S
C240 C241 1.387 . S
C240 C245 1.390 . S
C241 C240 1.387 . S
C241 C242 1.401 . S
C241 H262 0.930 . S
C242 C241 1.401 . S
C242 C243 1.376 . S
C242 C251 1.511 . S
C243 C242 1.376 . S
C243 C244 1.392 . S
C243 H264 0.931 . S
C244 C243 1.392 . S
C244 C245 1.361 . S
C244 C246 1.500 . S
C245 C240 1.390 . S
C245 C244 1.361 . S
C245 H263 0.931 . S
C246 C244 1.500 . S
C246 C247 1.371 . S
C246 C248 1.365 . S
C247 C246 1.371 . S
C247 C257 1.386 . S
C247 H265 0.931 . S
C248 C246 1.365 . S
C248 C249 1.409 . S
C248 H266 0.929 . S
C249 C248 1.409 . S
C249 C250 1.380 . S
C249 H267 0.930 . S
C250 C249 1.380 . S
C250 C257 1.357 . S
C251 C242 1.511 . S
C251 C252 1.341 . S
C251 C253 1.371 . S
C252 C251 1.341 . S
C252 C256 1.394 . S
C252 H268 0.930 . S
C253 C251 1.371 . S
C253 C254 1.392 . S
C253 H269 0.931 . S
C254 C253 1.392 . S
C254 C255 1.331 . S
C254 H272 0.932 . S
C255 C254 1.331 . S
C255 C256 1.336 . S
C256 C252 1.394 . S
C256 C255 1.336 . S
C256 H271 0.929 . S
C257 C247 1.386 . S
C257 C250 1.357 . S
C257 H270 0.928 . S
H258 C234 0.931 . S
H259 C236 0.930 . S
H260 C238 0.929 . S
H261 C239 0.931 . S
H262 C241 0.930 . S
H263 C245 0.931 . S
H264 C243 0.931 . S
H265 C247 0.931 . S
H266 C248 0.929 . S
H267 C249 0.930 . S
H268 C252 0.930 . S
H269 C253 0.931 . S
H270 C257 0.928 . S
H271 C256 0.929 . S
H272 C254 0.932 . S
C273 C274 1.386 . S
C273 C275 1.397 . S
C273 H297 0.931 . S
C274 C273 1.386 . S
C274 C278 1.397 . S
C275 C273 1.397 . S
C275 C276 1.384 . S
C275 H298 0.930 . S
C276 C275 1.384 . S
C276 C277 1.377 . S
C276 C279 1.481 . S
C277 C276 1.377 . S
C277 C278 1.389 . S
C277 H299 0.929 . S
C278 C274 1.397 . S
C278 C277 1.389 . S
C278 H300 0.931 . S
C279 C276 1.481 . S
C279 C280 1.387 . S
C279 C284 1.390 . S
C280 C279 1.387 . S
C280 C281 1.401 . S
C280 H301 0.930 . S
C281 C280 1.401 . S
C281 C282 1.376 . S
C281 C290 1.511 . S
C282 C281 1.376 . S
C282 C283 1.392 . S
C282 H303 0.931 . S
C283 C282 1.392 . S
C283 C284 1.361 . S
C283 C285 1.500 . S
C284 C279 1.390 . S
C284 C283 1.361 . S
C284 H302 0.931 . S
C285 C283 1.500 . S
C285 C286 1.371 . S
C285 C287 1.365 . S
C286 C285 1.371 . S
C286 C296 1.386 . S
C286 H304 0.931 . S
C287 C285 1.365 . S
C287 C288 1.409 . S
C287 H305 0.929 . S
C288 C287 1.409 . S
C288 C289 1.380 . S
C288 H306 0.930 . S
C289 C288 1.380 . S
C289 C296 1.357 . S
C290 C281 1.511 . S
C290 C291 1.341 . S
C290 C292 1.371 . S
C291 C290 1.341 . S
C291 C295 1.394 . S
C291 H307 0.930 . S
C292 C290 1.371 . S
C292 C293 1.392 . S
C292 H308 0.931 . S
C293 C292 1.392 . S
C293 C294 1.331 . S
C293 H311 0.932 . S
C294 C293 1.331 . S
C294 C295 1.336 . S
C295 C291 1.394 . S
C295 C294 1.336 . S
C295 H310 0.929 . S
C296 C286 1.386 . S
C296 C289 1.357 . S
C296 H309 0.928 . S
H297 C273 0.931 . S
H298 C275 0.930 . S
H299 C277 0.929 . S
H300 C278 0.931 . S
H301 C280 0.930 . S
H302 C284 0.931 . S
H303 C282 0.931 . S
H304 C286 0.931 . S
H305 C287 0.929 . S
H306 C288 0.930 . S
H307 C291 0.930 . S
H308 C292 0.931 . S
H309 C296 0.928 . S
H310 C295 0.929 . S
H311 C293 0.932 . S
Dy312 O315 2.307 1_545 S
Dy312 O317 2.395 . S
Dy312 O318 2.379 . S
Dy312 O320 2.339 1_545 S
Dy312 O322 2.298 1_455 S
Dy312 O326 2.275 . S
Dy312 C334 2.738 . S
Dy313 O316 2.326 1_655 S
Dy313 O319 2.304 . S
Dy313 O321 2.273 1_565 S
Dy313 O323 2.438 . S
Dy313 O324 2.386 . S
Dy313 O327 2.300 1_565 S
Dy313 C343 2.766 . S
C314 O326 1.254 . S
C314 O327 1.257 1_455 S
O315 Dy312 2.307 1_565 S
O315 C325 1.266 . S
O316 Dy313 2.326 1_455 S
O316 C325 1.236 . S
O317 Dy312 2.395 . S
O317 C334 1.255 . S
O318 Dy312 2.379 . S
O318 C334 1.249 . S
O319 Dy313 2.304 . S
O319 C335 1.254 . S
O320 Dy312 2.339 1_565 S
O320 C335 1.257 1_455 S
O321 Dy313 2.273 1_545 S
O321 C336 1.266 . S
O322 Dy312 2.298 1_655 S
O322 C336 1.236 . S
O323 Dy313 2.438 . S
O323 C343 1.255 . S
O324 Dy313 2.386 . S
O324 C343 1.249 . S
C325 O315 1.266 . S
C325 O316 1.236 . S
O326 Dy312 2.275 . S
O326 C314 1.254 . S
O327 Dy313 2.300 1_545 S
O327 C314 1.257 1_655 S
C328 C331 1.344 . S
C328 C332 1.328 . S
C328 C334 1.516 . S
C329 C330 1.304 . S
C329 C333 1.323 . S
C330 C329 1.304 . S
C330 C331 1.371 . S
C330 H344 0.930 . S
C331 C328 1.344 . S
C331 C330 1.371 . S
C331 H345 0.931 . S
C332 C328 1.328 . S
C332 C333 1.433 . S
C332 H346 0.931 . S
C333 C329 1.323 . S
C333 C332 1.433 . S
C333 H347 0.933 . S
C334 Dy312 2.738 . S
C334 O317 1.255 . S
C334 O318 1.249 . S
C334 C328 1.516 . S
C335 O319 1.254 . S
C335 O320 1.257 1_655 S
C336 O321 1.266 . S
C336 O322 1.236 . S
C337 C340 1.344 . S
C337 C341 1.328 . S
C337 C343 1.516 . S
C338 C339 1.304 . S
C338 C342 1.323 . S
C339 C338 1.304 . S
C339 C340 1.371 . S
C339 H348 0.930 . S
C340 C337 1.344 . S
C340 C339 1.371 . S
C340 H349 0.931 . S
C341 C337 1.328 . S
C341 C342 1.433 . S
C341 H350 0.931 . S
C342 C338 1.323 . S
C342 C341 1.433 . S
C342 H351 0.933 . S
C343 Dy313 2.766 . S
C343 O323 1.255 . S
C343 O324 1.249 . S
C343 C337 1.516 . S
H344 C330 0.930 . S
H345 C331 0.931 . S
H346 C332 0.931 . S
H347 C333 0.933 . S
H348 C339 0.930 . S
H349 C340 0.931 . S
H350 C341 0.931 . S
H351 C342 0.933 . S
Dy352 O355 2.307 1_566 S
Dy352 O357 2.395 . S
Dy352 O358 2.379 . S
Dy352 O360 2.339 1_565 S
Dy352 O362 2.298 . S
Dy352 O366 2.275 1_556 S
Dy352 C374 2.738 . S
Dy353 O356 2.298 . S
Dy353 O359 2.275 1_554 S
Dy353 O361 2.307 1_544 S
Dy353 O363 2.395 . S
Dy353 O364 2.379 . S
Dy353 O367 2.339 1_545 S
Dy353 C383 2.738 . S
C354 O366 1.254 . S
C354 O367 1.257 . S
O355 Dy352 2.307 1_544 S
O355 C365 1.266 . S
O356 Dy353 2.298 . S
O356 C365 1.236 . S
O357 Dy352 2.395 . S
O357 C374 1.255 . S
O358 Dy352 2.379 . S
O358 C374 1.249 . S
O359 Dy353 2.275 1_556 S
O359 C375 1.254 . S
O360 Dy352 2.339 1_545 S
O360 C375 1.257 . S
O361 Dy353 2.307 1_566 S
O361 C376 1.266 . S
O362 Dy352 2.298 . S
O362 C376 1.236 . S
O363 Dy353 2.395 . S
O363 C383 1.255 . S
O364 Dy353 2.379 . S
O364 C383 1.249 . S
C365 O355 1.266 . S
C365 O356 1.236 . S
O366 Dy352 2.275 1_554 S
O366 C354 1.254 . S
O367 Dy353 2.339 1_565 S
O367 C354 1.257 . S
C368 C371 1.344 . S
C368 C372 1.328 . S
C368 C374 1.516 . S
C369 C370 1.304 . S
C369 C373 1.323 . S
C370 C369 1.304 . S
C370 C371 1.371 . S
C370 H384 0.930 . S
C371 C368 1.344 . S
C371 C370 1.371 . S
C371 H385 0.931 . S
C372 C368 1.328 . S
C372 C373 1.433 . S
C372 H386 0.931 . S
C373 C369 1.323 . S
C373 C372 1.433 . S
C373 H387 0.933 . S
C374 Dy352 2.738 . S
C374 O357 1.255 . S
C374 O358 1.249 . S
C374 C368 1.516 . S
C375 O359 1.254 . S
C375 O360 1.257 . S
C376 O361 1.266 . S
C376 O362 1.236 . S
C377 C380 1.344 . S
C377 C381 1.328 . S
C377 C383 1.516 . S
C378 C379 1.304 . S
C378 C382 1.323 . S
C379 C378 1.304 . S
C379 C380 1.371 . S
C379 H388 0.930 . S
C380 C377 1.344 . S
C380 C379 1.371 . S
C380 H389 0.931 . S
C381 C377 1.328 . S
C381 C382 1.433 . S
C381 H390 0.931 . S
C382 C378 1.323 . S
C382 C381 1.433 . S
C382 H391 0.933 . S
C383 Dy353 2.738 . S
C383 O363 1.255 . S
C383 O364 1.249 . S
C383 C377 1.516 . S
H384 C370 0.930 . S
H385 C371 0.931 . S
H386 C372 0.931 . S
H387 C373 0.933 . S
H388 C379 0.930 . S
H389 C380 0.931 . S
H390 C381 0.931 . S
H391 C382 0.933 . S
Dy392 O395 2.307 . S
Dy392 O397 2.395 . S
Dy392 O398 2.379 . S
Dy392 O400 2.339 . S
Dy392 O402 2.298 . S
Dy392 O406 2.275 . S
Dy392 C414 2.738 . S
Dy393 O396 2.298 . S
Dy393 O399 2.275 . S
Dy393 O401 2.307 . S
Dy393 O403 2.395 . S
Dy393 O404 2.379 . S
Dy393 O407 2.339 . S
Dy393 C423 2.738 . S
C394 O406 1.254 . S
C394 O407 1.257 . S
O395 Dy392 2.307 . S
O395 C405 1.266 . S
O396 Dy393 2.298 . S
O396 C405 1.236 . S
O397 Dy392 2.395 . S
O397 C414 1.255 . S
O398 Dy392 2.379 . S
O398 C414 1.249 . S
O399 Dy393 2.275 . S
O399 C415 1.254 . S
O400 Dy392 2.339 . S
O400 C415 1.257 . S
O401 Dy393 2.307 . S
O401 C416 1.266 . S
O402 Dy392 2.298 . S
O402 C416 1.236 . S
O403 Dy393 2.395 . S
O403 C423 1.255 . S
O404 Dy393 2.379 . S
O404 C423 1.249 . S
C405 O395 1.266 . S
C405 O396 1.236 . S
O406 Dy392 2.275 . S
O406 C394 1.254 . S
O407 Dy393 2.339 . S
O407 C394 1.257 . S
C408 C411 1.344 . S
C408 C412 1.328 . S
C408 C414 1.516 . S
C409 C410 1.304 . S
C409 C413 1.323 . S
C410 C409 1.304 . S
C410 C411 1.371 . S
C410 H424 0.930 . S
C411 C408 1.344 . S
C411 C410 1.371 . S
C411 H425 0.931 . S
C412 C408 1.328 . S
C412 C413 1.433 . S
C412 H426 0.931 . S
C413 C409 1.323 . S
C413 C412 1.433 . S
C413 H427 0.933 . S
C414 Dy392 2.738 . S
C414 O397 1.255 . S
C414 O398 1.249 . S
C414 C408 1.516 . S
C415 O399 1.254 . S
C415 O400 1.257 . S
C416 O401 1.266 . S
C416 O402 1.236 . S
C417 C420 1.344 . S
C417 C421 1.328 . S
C417 C423 1.516 . S
C418 C419 1.304 . S
C418 C422 1.323 . S
C419 C418 1.304 . S
C419 C420 1.371 . S
C419 H428 0.930 . S
C420 C417 1.344 . S
C420 C419 1.371 . S
C420 H429 0.931 . S
C421 C417 1.328 . S
C421 C422 1.433 . S
C421 H430 0.931 . S
C422 C418 1.323 . S
C422 C421 1.433 . S
C422 H431 0.933 . S
C423 Dy393 2.738 . S
C423 O403 1.255 . S
C423 O404 1.249 . S
C423 C417 1.516 . S
H424 C410 0.930 . S
H425 C411 0.931 . S
H426 C412 0.931 . S
H427 C413 0.933 . S
H428 C419 0.930 . S
H429 C420 0.931 . S
H430 C421 0.931 . S
H431 C422 0.933 . S
Dy432 O435 2.285 1_656 S
Dy432 O437 2.395 . S
Dy432 O438 2.379 . S
Dy432 O440 2.339 1_655 S
Dy432 O442 2.298 . S
Dy432 O446 2.275 1_556 S
Dy432 C454 2.738 . S
Dy433 O436 2.298 . S
Dy433 O439 2.275 1_554 S
Dy433 O441 2.325 1_455 S
Dy433 O443 2.395 . S
Dy433 O444 2.379 . S
Dy433 O447 2.339 1_455 S
Dy433 C463 2.738 . S
C434 O446 1.254 . S
C434 O447 1.257 . S
O435 Dy432 2.285 1_454 S
O435 C445 1.302 . S
O436 Dy433 2.298 . S
O436 C445 1.236 . S
O437 Dy432 2.395 . S
O437 C454 1.255 . S
O438 Dy432 2.379 . S
O438 C454 1.249 . S
O439 Dy433 2.275 1_556 S
O439 C455 1.254 . S
O440 Dy432 2.339 1_455 S
O440 C455 1.257 . S
O441 Dy433 2.325 1_655 S
O441 C456 1.239 1_554 S
O442 Dy432 2.298 . S
O442 C456 1.236 . S
O443 Dy433 2.395 . S
O443 C463 1.255 . S
O444 Dy433 2.379 . S
O444 C463 1.249 . S
C445 O435 1.302 . S
C445 O436 1.236 . S
O446 Dy432 2.275 1_554 S
O446 C434 1.254 . S
O447 Dy433 2.339 1_655 S
O447 C434 1.257 . S
C448 C451 1.344 . S
C448 C452 1.328 . S
C448 C454 1.516 . S
C449 C450 1.304 . S
C449 C453 1.323 . S
C450 C449 1.304 . S
C450 C451 1.371 . S
C450 H464 0.930 . S
C451 C448 1.344 . S
C451 C450 1.371 . S
C451 H465 0.931 . S
C452 C448 1.328 . S
C452 C453 1.433 . S
C452 H466 0.931 . S
C453 C449 1.323 . S
C453 C452 1.433 . S
C453 H467 0.933 . S
C454 Dy432 2.738 . S
C454 O437 1.255 . S
C454 O438 1.249 . S
C454 C448 1.516 . S
C455 O439 1.254 . S
C455 O440 1.257 . S
C456 O441 1.239 1_556 S
C456 O442 1.236 . S
C457 C460 1.344 . S
C457 C461 1.328 . S
C457 C463 1.516 . S
C458 C459 1.304 . S
C458 C462 1.323 . S
C459 C458 1.304 . S
C459 C460 1.371 . S
C459 H468 0.930 . S
C460 C457 1.344 . S
C460 C459 1.371 . S
C460 H469 0.931 . S
C461 C457 1.328 . S
C461 C462 1.433 . S
C461 H470 0.931 . S
C462 C458 1.323 . S
C462 C461 1.433 . S
C462 H471 0.933 . S
C463 Dy433 2.738 . S
C463 O443 1.255 . S
C463 O444 1.249 . S
C463 C457 1.516 . S
H464 C450 0.930 . S
H465 C451 0.931 . S
H466 C452 0.931 . S
H467 C453 0.933 . S
H468 C459 0.930 . S
H469 C460 0.931 . S
H470 C461 0.931 . S
H471 C462 0.933 . S
H472 C480 0.929 . S
H473 C482 0.930 . S
H474 C484 0.930 . S
H475 C487 0.929 . S
H476 C490 0.930 . S
H477 C492 0.960 . S
H478 C492 0.960 . S
H479 C492 0.960 . S
C480 H472 0.929 . S
C480 C481 1.377 . S
C480 C482 1.384 . S
C481 C480 1.377 . S
C481 C487 1.390 . S
C482 H473 0.930 . S
C482 C480 1.384 . S
C482 C483 1.372 . S
C483 C482 1.372 . S
C483 C484 1.400 . S
C483 C488 1.490 . S
C484 H474 0.930 . S
C484 C483 1.400 . S
C484 C487 1.386 . S
H485 C501 0.930 . S
H486 C502 0.931 . S
C487 H475 0.929 . S
C487 C481 1.390 . S
C487 C484 1.386 . S
C488 C483 1.490 . S
C488 C490 1.395 . S
C488 C491 1.403 . S
H489 C495 0.930 . S
C490 H476 0.930 . S
C490 C488 1.395 . S
C490 C493 1.403 . S
C491 C488 1.403 . S
C491 C492 1.524 . S
C491 C495 1.400 . S
C492 H477 0.960 . S
C492 H478 0.960 . S
C492 H479 0.960 . S
C492 C491 1.524 . S
C493 C490 1.403 . S
C493 C494 1.392 . S
C493 C497 1.495 . S
C494 C493 1.392 . S
C494 C495 1.385 . S
C494 C496 1.478 . S
C495 H489 0.930 . S
C495 C491 1.400 . S
C495 C494 1.385 . S
C496 C494 1.478 . S
C496 C498 1.381 . S
C496 C502 1.383 . S
C497 C493 1.495 . S
C497 H503 0.959 . S
C497 H504 0.961 . S
C497 H505 0.960 . S
C498 C496 1.381 . S
C498 C499 1.394 . S
C498 H506 0.930 . S
C499 C498 1.394 . S
C499 C500 1.383 . S
C499 H507 0.929 . S
C500 C499 1.383 . S
C500 C501 1.377 . S
C501 H485 0.930 . S
C501 C500 1.377 . S
C501 C502 1.379 . S
C502 H486 0.931 . S
C502 C496 1.383 . S
C502 C501 1.379 . S
H503 C497 0.959 . S
H504 C497 0.961 . S
H505 C497 0.960 . S
H506 C498 0.930 . S
H507 C499 0.929 . S
H508 C516 0.929 . S
H509 C518 0.930 . S
H510 C520 0.930 . S
H511 C523 0.929 . S
H512 C526 0.930 . S
H513 C528 0.960 . S
H514 C528 0.960 . S
H515 C528 0.960 . S
C516 H508 0.929 . S
C516 C517 1.377 . S
C516 C518 1.384 . S
C517 C516 1.377 . S
C517 C523 1.390 . S
C518 H509 0.930 . S
C518 C516 1.384 . S
C518 C519 1.372 . S
C519 C518 1.372 . S
C519 C520 1.400 . S
C519 C524 1.490 . S
C520 H510 0.930 . S
C520 C519 1.400 . S
C520 C523 1.386 . S
H521 C537 0.930 . S
H522 C538 0.931 . S
C523 H511 0.929 . S
C523 C517 1.390 . S
C523 C520 1.386 . S
C524 C519 1.490 . S
C524 C526 1.395 . S
C524 C527 1.403 . S
H525 C531 0.930 . S
C526 H512 0.930 . S
C526 C524 1.395 . S
C526 C529 1.403 . S
C527 C524 1.403 . S
C527 C528 1.524 . S
C527 C531 1.400 . S
C528 H513 0.960 . S
C528 H514 0.960 . S
C528 H515 0.960 . S
C528 C527 1.524 . S
C529 C526 1.403 . S
C529 C530 1.392 . S
C529 C533 1.495 . S
C530 C529 1.392 . S
C530 C531 1.385 . S
C530 C532 1.478 . S
C531 H525 0.930 . S
C531 C527 1.400 . S
C531 C530 1.385 . S
C532 C530 1.478 . S
C532 C534 1.381 . S
C532 C538 1.383 . S
C533 C529 1.495 . S
C533 H539 0.959 . S
C533 H540 0.961 . S
C533 H541 0.960 . S
C534 C532 1.381 . S
C534 C535 1.394 . S
C534 H542 0.930 . S
C535 C534 1.394 . S
C535 C536 1.383 . S
C535 H543 0.929 . S
C536 C535 1.383 . S
C536 C537 1.377 . S
C537 H521 0.930 . S
C537 C536 1.377 . S
C537 C538 1.379 . S
C538 H522 0.931 . S
C538 C532 1.383 . S
C538 C537 1.379 . S
H539 C533 0.959 . S
H540 C533 0.961 . S
H541 C533 0.960 . S
H542 C534 0.930 . S
H543 C535 0.929 . S
H544 C552 0.929 . S
H545 C554 0.930 . S
H546 C556 0.930 . S
H547 C559 0.929 . S
H548 C562 0.930 . S
H549 C564 0.960 . S
H550 C564 0.960 . S
H551 C564 0.960 . S
C552 H544 0.929 . S
C552 C553 1.377 . S
C552 C554 1.384 . S
C553 C552 1.377 . S
C553 C559 1.390 . S
C554 H545 0.930 . S
C554 C552 1.384 . S
C554 C555 1.372 . S
C555 C554 1.372 . S
C555 C556 1.400 . S
C555 C560 1.490 . S
C556 H546 0.930 . S
C556 C555 1.400 . S
C556 C559 1.386 . S
H557 C573 0.930 . S
H558 C574 0.931 . S
C559 H547 0.929 . S
C559 C553 1.390 . S
C559 C556 1.386 . S
C560 C555 1.490 . S
C560 C562 1.395 . S
C560 C563 1.403 . S
H561 C567 0.930 . S
C562 H548 0.930 . S
C562 C560 1.395 . S
C562 C565 1.403 . S
C563 C560 1.403 . S
C563 C564 1.524 . S
C563 C567 1.400 . S
C564 H549 0.960 . S
C564 H550 0.960 . S
C564 H551 0.960 . S
C564 C563 1.524 . S
C565 C562 1.403 . S
C565 C566 1.392 . S
C565 C569 1.495 . S
C566 C565 1.392 . S
C566 C567 1.385 . S
C566 C568 1.478 . S
C567 H561 0.930 . S
C567 C563 1.400 . S
C567 C566 1.385 . S
C568 C566 1.478 . S
C568 C570 1.381 . S
C568 C574 1.383 . S
C569 C565 1.495 . S
C569 H575 0.959 . S
C569 H576 0.961 . S
C569 H577 0.960 . S
C570 C568 1.381 . S
C570 C571 1.394 . S
C570 H578 0.930 . S
C571 C570 1.394 . S
C571 C572 1.383 . S
C571 H579 0.929 . S
C572 C571 1.383 . S
C572 C573 1.377 . S
C573 H557 0.930 . S
C573 C572 1.377 . S
C573 C574 1.379 . S
C574 H558 0.931 . S
C574 C568 1.383 . S
C574 C573 1.379 . S
H575 C569 0.959 . S
H576 C569 0.961 . S
H577 C569 0.960 . S
H578 C570 0.930 . S
H579 C571 0.929 . S
H580 C588 0.929 . S
H581 C590 0.930 . S
H582 C592 0.930 . S
H583 C595 0.929 . S
H584 C598 0.930 . S
H585 C600 0.960 . S
H586 C600 0.960 . S
H587 C600 0.960 . S
C588 H580 0.929 . S
C588 C589 1.377 . S
C588 C590 1.384 . S
C589 C588 1.377 . S
C589 C595 1.390 . S
C590 H581 0.930 . S
C590 C588 1.384 . S
C590 C591 1.372 . S
C591 C590 1.372 . S
C591 C592 1.400 . S
C591 C596 1.490 . S
C592 H582 0.930 . S
C592 C591 1.400 . S
C592 C595 1.386 . S
H593 C609 0.930 . S
H594 C610 0.931 . S
C595 H583 0.929 . S
C595 C589 1.390 . S
C595 C592 1.386 . S
C596 C591 1.490 . S
C596 C598 1.395 . S
C596 C599 1.403 . S
H597 C603 0.930 . S
C598 H584 0.930 . S
C598 C596 1.395 . S
C598 C601 1.403 . S
C599 C596 1.403 . S
C599 C600 1.524 . S
C599 C603 1.400 . S
C600 H585 0.960 . S
C600 H586 0.960 . S
C600 H587 0.960 . S
C600 C599 1.524 . S
C601 C598 1.403 . S
C601 C602 1.392 . S
C601 C605 1.495 . S
C602 C601 1.392 . S
C602 C603 1.385 . S
C602 C604 1.478 . S
C603 H597 0.930 . S
C603 C599 1.400 . S
C603 C602 1.385 . S
C604 C602 1.478 . S
C604 C606 1.381 . S
C604 C610 1.383 . S
C605 C601 1.495 . S
C605 H611 0.959 . S
C605 H612 0.961 . S
C605 H613 0.960 . S
C606 C604 1.381 . S
C606 C607 1.394 . S
C606 H614 0.930 . S
C607 C606 1.394 . S
C607 C608 1.383 . S
C607 H615 0.929 . S
C608 C607 1.383 . S
C608 C609 1.377 . S
C609 H593 0.930 . S
C609 C608 1.377 . S
C609 C610 1.379 . S
C610 H594 0.931 . S
C610 C604 1.383 . S
C610 C609 1.379 . S
H611 C605 0.959 . S
H612 C605 0.961 . S
H613 C605 0.960 . S
H614 C606 0.930 . S
H615 C607 0.929 . S
H616 C624 0.929 . S
H617 C626 0.930 . S
H618 C628 0.930 . S
H619 C631 0.929 . S
H620 C634 0.930 . S
H621 C636 0.960 . S
H622 C636 0.960 . S
H623 C636 0.960 . S
C624 H616 0.929 . S
C624 C625 1.377 . S
C624 C626 1.384 . S
C625 C624 1.377 . S
C625 C631 1.390 . S
C626 H617 0.930 . S
C626 C624 1.384 . S
C626 C627 1.372 . S
C627 C626 1.372 . S
C627 C628 1.400 . S
C627 C632 1.490 . S
C628 H618 0.930 . S
C628 C627 1.400 . S
C628 C631 1.386 . S
H629 C645 0.930 . S
H630 C646 0.931 . S
C631 H619 0.929 . S
C631 C625 1.390 . S
C631 C628 1.386 . S
C632 C627 1.490 . S
C632 C634 1.395 . S
C632 C635 1.403 . S
H633 C639 0.930 . S
C634 H620 0.930 . S
C634 C632 1.395 . S
C634 C637 1.403 . S
C635 C632 1.403 . S
C635 C636 1.524 . S
C635 C639 1.400 . S
C636 H621 0.960 . S
C636 H622 0.960 . S
C636 H623 0.960 . S
C636 C635 1.524 . S
C637 C634 1.403 . S
C637 C638 1.392 . S
C637 C641 1.495 . S
C638 C637 1.392 . S
C638 C639 1.385 . S
C638 C640 1.478 . S
C639 H633 0.930 . S
C639 C635 1.400 . S
C639 C638 1.385 . S
C640 C638 1.478 . S
C640 C642 1.381 . S
C640 C646 1.383 . S
C641 C637 1.495 . S
C641 H647 0.959 . S
C641 H648 0.961 . S
C641 H649 0.960 . S
C642 C640 1.381 . S
C642 C643 1.394 . S
C642 H650 0.930 . S
C643 C642 1.394 . S
C643 C644 1.383 . S
C643 H651 0.929 . S
C644 C643 1.383 . S
C644 C645 1.377 . S
C645 H629 0.930 . S
C645 C644 1.377 . S
C645 C646 1.379 . S
C646 H630 0.931 . S
C646 C640 1.383 . S
C646 C645 1.379 . S
H647 C641 0.959 . S
H648 C641 0.961 . S
H649 C641 0.960 . S
H650 C642 0.930 . S
H651 C643 0.929 . S
H652 C660 0.929 . S
H653 C662 0.930 . S
H654 C664 0.930 . S
H655 C667 0.929 . S
H656 C670 0.930 . S
H657 C672 0.960 . S
H658 C672 0.960 . S
H659 C672 0.960 . S
C660 H652 0.929 . S
C660 C661 1.377 . S
C660 C662 1.384 . S
C661 C660 1.377 . S
C661 C667 1.390 . S
C662 H653 0.930 . S
C662 C660 1.384 . S
C662 C663 1.372 . S
C663 C662 1.372 . S
C663 C664 1.400 . S
C663 C668 1.490 . S
C664 H654 0.930 . S
C664 C663 1.400 . S
C664 C667 1.386 . S
H665 C681 0.930 . S
H666 C682 0.931 . S
C667 H655 0.929 . S
C667 C661 1.390 . S
C667 C664 1.386 . S
C668 C663 1.490 . S
C668 C670 1.395 . S
C668 C671 1.403 . S
H669 C675 0.930 . S
C670 H656 0.930 . S
C670 C668 1.395 . S
C670 C673 1.403 . S
C671 C668 1.403 . S
C671 C672 1.524 . S
C671 C675 1.400 . S
C672 H657 0.960 . S
C672 H658 0.960 . S
C672 H659 0.960 . S
C672 C671 1.524 . S
C673 C670 1.403 . S
C673 C674 1.392 . S
C673 C677 1.495 . S
C674 C673 1.392 . S
C674 C675 1.385 . S
C674 C676 1.478 . S
C675 H669 0.930 . S
C675 C671 1.400 . S
C675 C674 1.385 . S
C676 C674 1.478 . S
C676 C678 1.381 . S
C676 C682 1.383 . S
C677 C673 1.495 . S
C677 H683 0.959 . S
C677 H684 0.961 . S
C677 H685 0.960 . S
C678 C676 1.381 . S
C678 C679 1.394 . S
C678 H686 0.930 . S
C679 C678 1.394 . S
C679 C680 1.383 . S
C679 H687 0.929 . S
C680 C679 1.383 . S
C680 C681 1.377 . S
C681 H665 0.930 . S
C681 C680 1.377 . S
C681 C682 1.379 . S
C682 H666 0.931 . S
C682 C676 1.383 . S
C682 C681 1.379 . S
H683 C677 0.959 . S
H684 C677 0.961 . S
H685 C677 0.960 . S
H686 C678 0.930 . S
H687 C679 0.929 . S
H688 C696 0.929 . S
H689 C698 0.930 . S
H690 C700 0.930 . S
H691 C703 0.929 . S
H692 C706 0.930 . S
H693 C708 0.960 . S
H694 C708 0.960 . S
H695 C708 0.960 . S
C696 H688 0.929 . S
C696 C697 1.377 . S
C696 C698 1.384 . S
C697 C696 1.377 . S
C697 C703 1.390 . S
C698 H689 0.930 . S
C698 C696 1.384 . S
C698 C699 1.372 . S
C699 C698 1.372 . S
C699 C700 1.400 . S
C699 C704 1.490 . S
C700 H690 0.930 . S
C700 C699 1.400 . S
C700 C703 1.386 . S
H701 C717 0.930 . S
H702 C718 0.931 . S
C703 H691 0.929 . S
C703 C697 1.390 . S
C703 C700 1.386 . S
C704 C699 1.490 . S
C704 C706 1.395 . S
C704 C707 1.403 . S
H705 C711 0.930 . S
C706 H692 0.930 . S
C706 C704 1.395 . S
C706 C709 1.403 . S
C707 C704 1.403 . S
C707 C708 1.524 . S
C707 C711 1.400 . S
C708 H693 0.960 . S
C708 H694 0.960 . S
C708 H695 0.960 . S
C708 C707 1.524 . S
C709 C706 1.403 . S
C709 C710 1.392 . S
C709 C713 1.495 . S
C710 C709 1.392 . S
C710 C711 1.385 . S
C710 C712 1.478 . S
C711 H705 0.930 . S
C711 C707 1.400 . S
C711 C710 1.385 . S
C712 C710 1.478 . S
C712 C714 1.381 . S
C712 C718 1.383 . S
C713 C709 1.495 . S
C713 H719 0.959 . S
C713 H720 0.961 . S
C713 H721 0.960 . S
C714 C712 1.381 . S
C714 C715 1.394 . S
C714 H722 0.930 . S
C715 C714 1.394 . S
C715 C716 1.383 . S
C715 H723 0.929 . S
C716 C715 1.383 . S
C716 C717 1.377 . S
C717 H701 0.930 . S
C717 C716 1.377 . S
C717 C718 1.379 . S
C718 H702 0.931 . S
C718 C712 1.383 . S
C718 C717 1.379 . S
H719 C713 0.959 . S
H720 C713 0.961 . S
H721 C713 0.960 . S
H722 C714 0.930 . S
H723 C715 0.929 . S
H724 C732 0.929 . S
H725 C734 0.930 . S
H726 C736 0.930 . S
H727 C739 0.929 . S
H728 C742 0.930 . S
H729 C744 0.960 . S
H730 C744 0.960 . S
H731 C744 0.960 . S
C732 H724 0.929 . S
C732 C733 1.377 . S
C732 C734 1.384 . S
C733 C732 1.377 . S
C733 C739 1.390 . S
C734 H725 0.930 . S
C734 C732 1.384 . S
C734 C735 1.372 . S
C735 C734 1.372 . S
C735 C736 1.400 . S
C735 C740 1.490 . S
C736 H726 0.930 . S
C736 C735 1.400 . S
C736 C739 1.386 . S
H737 C753 0.930 . S
H738 C754 0.931 . S
C739 H727 0.929 . S
C739 C733 1.390 . S
C739 C736 1.386 . S
C740 C735 1.490 . S
C740 C742 1.395 . S
C740 C743 1.403 . S
H741 C747 0.930 . S
C742 H728 0.930 . S
C742 C740 1.395 . S
C742 C745 1.403 . S
C743 C740 1.403 . S
C743 C744 1.524 . S
C743 C747 1.400 . S
C744 H729 0.960 . S
C744 H730 0.960 . S
C744 H731 0.960 . S
C744 C743 1.524 . S
C745 C742 1.403 . S
C745 C746 1.392 . S
C745 C749 1.495 . S
C746 C745 1.392 . S
C746 C747 1.385 . S
C746 C748 1.478 . S
C747 H741 0.930 . S
C747 C743 1.400 . S
C747 C746 1.385 . S
C748 C746 1.478 . S
C748 C750 1.381 . S
C748 C754 1.383 . S
C749 C745 1.495 . S
C749 H755 0.959 . S
C749 H756 0.961 . S
C749 H757 0.960 . S
C750 C748 1.381 . S
C750 C751 1.394 . S
C750 H758 0.930 . S
C751 C750 1.394 . S
C751 C752 1.383 . S
C751 H759 0.929 . S
C752 C751 1.383 . S
C752 C753 1.377 . S
C753 H737 0.930 . S
C753 C752 1.377 . S
C753 C754 1.379 . S
C754 H738 0.931 . S
C754 C748 1.383 . S
C754 C753 1.379 . S
H755 C749 0.959 . S
H756 C749 0.961 . S
H757 C749 0.960 . S
H758 C750 0.930 . S
H759 C751 0.929 . S
H760 C768 0.929 . S
H761 C770 0.930 . S
H762 C772 0.930 . S
H763 C775 0.929 . S
H764 C778 0.930 . S
H765 C780 0.960 . S
H766 C780 0.960 . S
H767 C780 0.960 . S
C768 H760 0.929 . S
C768 C769 1.377 . S
C768 C770 1.384 . S
C769 C768 1.377 . S
C769 C775 1.390 . S
C770 H761 0.930 . S
C770 C768 1.384 . S
C770 C771 1.372 . S
C771 C770 1.372 . S
C771 C772 1.400 . S
C771 C776 1.490 . S
C772 H762 0.930 . S
C772 C771 1.400 . S
C772 C775 1.386 . S
H773 C789 0.930 . S
H774 C790 0.931 . S
C775 H763 0.929 . S
C775 C769 1.390 . S
C775 C772 1.386 . S
C776 C771 1.490 . S
C776 C778 1.395 . S
C776 C779 1.403 . S
H777 C783 0.930 . S
C778 H764 0.930 . S
C778 C776 1.395 . S
C778 C781 1.403 . S
C779 C776 1.403 . S
C779 C780 1.524 . S
C779 C783 1.400 . S
C780 H765 0.960 . S
C780 H766 0.960 . S
C780 H767 0.960 . S
C780 C779 1.524 . S
C781 C778 1.403 . S
C781 C782 1.392 . S
C781 C785 1.495 . S
C782 C781 1.392 . S
C782 C783 1.385 . S
C782 C784 1.478 . S
C783 H777 0.930 . S
C783 C779 1.400 . S
C783 C782 1.385 . S
C784 C782 1.478 . S
C784 C786 1.381 . S
C784 C790 1.383 . S
C785 C781 1.495 . S
C785 H791 0.959 . S
C785 H792 0.961 . S
C785 H793 0.960 . S
C786 C784 1.381 . S
C786 C787 1.394 . S
C786 H794 0.930 . S
C787 C786 1.394 . S
C787 C788 1.383 . S
C787 H795 0.929 . S
C788 C787 1.383 . S
C788 C789 1.377 . S
C789 H773 0.930 . S
C789 C788 1.377 . S
C789 C790 1.379 . S
C790 H774 0.931 . S
C790 C784 1.383 . S
C790 C789 1.379 . S
H791 C785 0.959 . S
H792 C785 0.961 . S
H793 C785 0.960 . S
H794 C786 0.930 . S
H795 C787 0.929 . S
H796 C804 0.929 . S
H797 C806 0.930 . S
H798 C808 0.930 . S
H799 C811 0.929 . S
H800 C814 0.930 . S
H801 C816 0.960 . S
H802 C816 0.960 . S
H803 C816 0.960 . S
C804 H796 0.929 . S
C804 C805 1.377 . S
C804 C806 1.384 . S
C805 C804 1.377 . S
C805 C811 1.390 . S
C806 H797 0.930 . S
C806 C804 1.384 . S
C806 C807 1.372 . S
C807 C806 1.372 . S
C807 C808 1.400 . S
C807 C812 1.490 . S
C808 H798 0.930 . S
C808 C807 1.400 . S
C808 C811 1.386 . S
H809 C825 0.930 . S
H810 C826 0.931 . S
C811 H799 0.929 . S
C811 C805 1.390 . S
C811 C808 1.386 . S
C812 C807 1.490 . S
C812 C814 1.395 . S
C812 C815 1.403 . S
H813 C819 0.930 . S
C814 H800 0.930 . S
C814 C812 1.395 . S
C814 C817 1.403 . S
C815 C812 1.403 . S
C815 C816 1.524 . S
C815 C819 1.400 . S
C816 H801 0.960 . S
C816 H802 0.960 . S
C816 H803 0.960 . S
C816 C815 1.524 . S
C817 C814 1.403 . S
C817 C818 1.392 . S
C817 C821 1.495 . S
C818 C817 1.392 . S
C818 C819 1.385 . S
C818 C820 1.478 . S
C819 H813 0.930 . S
C819 C815 1.400 . S
C819 C818 1.385 . S
C820 C818 1.478 . S
C820 C822 1.381 . S
C820 C826 1.383 . S
C821 C817 1.495 . S
C821 H827 0.959 . S
C821 H828 0.961 . S
C821 H829 0.960 . S
C822 C820 1.381 . S
C822 C823 1.394 . S
C822 H830 0.930 . S
C823 C822 1.394 . S
C823 C824 1.383 . S
C823 H831 0.929 . S
C824 C823 1.383 . S
C824 C825 1.377 . S
C825 H809 0.930 . S
C825 C824 1.377 . S
C825 C826 1.379 . S
C826 H810 0.931 . S
C826 C820 1.383 . S
C826 C825 1.379 . S
H827 C821 0.959 . S
H828 C821 0.961 . S
H829 C821 0.960 . S
H830 C822 0.930 . S
H831 C823 0.929 . S
H832 C840 0.929 . S
H833 C842 0.930 . S
H834 C844 0.930 . S
H835 C847 0.929 . S
H836 C850 0.930 . S
H837 C852 0.960 . S
H838 C852 0.960 . S
H839 C852 0.960 . S
C840 H832 0.929 . S
C840 C841 1.377 . S
C840 C842 1.384 . S
C841 C840 1.377 . S
C841 C847 1.390 . S
C842 H833 0.930 . S
C842 C840 1.384 . S
C842 C843 1.372 . S
C843 C842 1.372 . S
C843 C844 1.400 . S
C843 C848 1.490 . S
C844 H834 0.930 . S
C844 C843 1.400 . S
C844 C847 1.386 . S
H845 C861 0.930 . S
H846 C862 0.931 . S
C847 H835 0.929 . S
C847 C841 1.390 . S
C847 C844 1.386 . S
C848 C843 1.490 . S
C848 C850 1.395 . S
C848 C851 1.403 . S
H849 C855 0.930 . S
C850 H836 0.930 . S
C850 C848 1.395 . S
C850 C853 1.403 . S
C851 C848 1.403 . S
C851 C852 1.524 . S
C851 C855 1.400 . S
C852 H837 0.960 . S
C852 H838 0.960 . S
C852 H839 0.960 . S
C852 C851 1.524 . S
C853 C850 1.403 . S
C853 C854 1.392 . S
C853 C857 1.495 . S
C854 C853 1.392 . S
C854 C855 1.385 . S
C854 C856 1.478 . S
C855 H849 0.930 . S
C855 C851 1.400 . S
C855 C854 1.385 . S
C856 C854 1.478 . S
C856 C858 1.381 . S
C856 C862 1.383 . S
C857 C853 1.495 . S
C857 H863 0.959 . S
C857 H864 0.961 . S
C857 H865 0.960 . S
C858 C856 1.381 . S
C858 C859 1.394 . S
C858 H866 0.930 . S
C859 C858 1.394 . S
C859 C860 1.383 . S
C859 H867 0.929 . S
C860 C859 1.383 . S
C860 C861 1.377 . S
C861 H845 0.930 . S
C861 C860 1.377 . S
C861 C862 1.379 . S
C862 H846 0.931 . S
C862 C856 1.383 . S
C862 C861 1.379 . S
H863 C857 0.959 . S
H864 C857 0.961 . S
H865 C857 0.960 . S
H866 C858 0.930 . S
H867 C859 0.929 . S
H868 C876 0.929 . S
H869 C878 0.930 . S
H870 C880 0.930 . S
H871 C883 0.929 . S
H872 C886 0.930 . S
H873 C888 0.960 . S
H874 C888 0.960 . S
H875 C888 0.960 . S
C876 H868 0.929 . S
C876 C877 1.377 . S
C876 C878 1.384 . S
C877 C876 1.377 . S
C877 C883 1.390 . S
C878 H869 0.930 . S
C878 C876 1.384 . S
C878 C879 1.372 . S
C879 C878 1.372 . S
C879 C880 1.400 . S
C879 C884 1.490 . S
C880 H870 0.930 . S
C880 C879 1.400 . S
C880 C883 1.386 . S
H881 C897 0.930 . S
H882 C898 0.931 . S
C883 H871 0.929 . S
C883 C877 1.390 . S
C883 C880 1.386 . S
C884 C879 1.490 . S
C884 C886 1.395 . S
C884 C887 1.403 . S
H885 C891 0.930 . S
C886 H872 0.930 . S
C886 C884 1.395 . S
C886 C889 1.403 . S
C887 C884 1.403 . S
C887 C888 1.524 . S
C887 C891 1.400 . S
C888 H873 0.960 . S
C888 H874 0.960 . S
C888 H875 0.960 . S
C888 C887 1.524 . S
C889 C886 1.403 . S
C889 C890 1.392 . S
C889 C893 1.495 . S
C890 C889 1.392 . S
C890 C891 1.385 . S
C890 C892 1.478 . S
C891 H885 0.930 . S
C891 C887 1.400 . S
C891 C890 1.385 . S
C892 C890 1.478 . S
C892 C894 1.381 . S
C892 C898 1.383 . S
C893 C889 1.495 . S
C893 H899 0.959 . S
C893 H900 0.961 . S
C893 H901 0.960 . S
C894 C892 1.381 . S
C894 C895 1.394 . S
C894 H902 0.930 . S
C895 C894 1.394 . S
C895 C896 1.383 . S
C895 H903 0.929 . S
C896 C895 1.383 . S
C896 C897 1.377 . S
C897 H881 0.930 . S
C897 C896 1.377 . S
C897 C898 1.379 . S
C898 H882 0.931 . S
C898 C892 1.383 . S
C898 C897 1.379 . S
H899 C893 0.959 . S
H900 C893 0.961 . S
H901 C893 0.960 . S
H902 C894 0.930 . S
H903 C895 0.929 . S
H904 C912 0.929 . S
H905 C914 0.930 . S
H906 C916 0.930 . S
H907 C919 0.929 . S
H908 C922 0.930 . S
H909 C924 0.960 . S
H910 C924 0.960 . S
H911 C924 0.960 . S
C912 H904 0.929 . S
C912 C913 1.377 . S
C912 C914 1.384 . S
C913 C912 1.377 . S
C913 C919 1.390 . S
C914 H905 0.930 . S
C914 C912 1.384 . S
C914 C915 1.372 . S
C915 C914 1.372 . S
C915 C916 1.400 . S
C915 C920 1.490 . S
C916 H906 0.930 . S
C916 C915 1.400 . S
C916 C919 1.386 . S
H917 C933 0.930 . S
H918 C934 0.931 . S
C919 H907 0.929 . S
C919 C913 1.390 . S
C919 C916 1.386 . S
C920 C915 1.490 . S
C920 C922 1.395 . S
C920 C923 1.403 . S
H921 C927 0.930 . S
C922 H908 0.930 . S
C922 C920 1.395 . S
C922 C925 1.403 . S
C923 C920 1.403 . S
C923 C924 1.524 . S
C923 C927 1.400 . S
C924 H909 0.960 . S
C924 H910 0.960 . S
C924 H911 0.960 . S
C924 C923 1.524 . S
C925 C922 1.403 . S
C925 C926 1.392 . S
C925 C929 1.495 . S
C926 C925 1.392 . S
C926 C927 1.385 . S
C926 C928 1.478 . S
C927 H921 0.930 . S
C927 C923 1.400 . S
C927 C926 1.385 . S
C928 C926 1.478 . S
C928 C930 1.381 . S
C928 C934 1.383 . S
C929 C925 1.495 . S
C929 H935 0.959 . S
C929 H936 0.961 . S
C929 H937 0.960 . S
C930 C928 1.381 . S
C930 C931 1.394 . S
C930 H938 0.930 . S
C931 C930 1.394 . S
C931 C932 1.383 . S
C931 H939 0.929 . S
C932 C931 1.383 . S
C932 C933 1.377 . S
C933 H917 0.930 . S
C933 C932 1.377 . S
C933 C934 1.379 . S
C934 H918 0.931 . S
C934 C928 1.383 . S
C934 C933 1.379 . S
H935 C929 0.959 . S
H936 C929 0.961 . S
H937 C929 0.960 . S
H938 C930 0.930 . S
H939 C931 0.929 . S
H940 C948 0.929 . S
H941 C950 0.930 . S
H942 C952 0.930 . S
H943 C955 0.929 . S
H944 C958 0.930 . S
H945 C960 0.960 . S
H946 C960 0.960 . S
H947 C960 0.960 . S
C948 H940 0.929 . S
C948 C949 1.377 . S
C948 C950 1.384 . S
C949 C948 1.377 . S
C949 C955 1.390 . S
C950 H941 0.930 . S
C950 C948 1.384 . S
C950 C951 1.372 . S
C951 C950 1.372 . S
C951 C952 1.400 . S
C951 C956 1.490 . S
C952 H942 0.930 . S
C952 C951 1.400 . S
C952 C955 1.386 . S
H953 C969 0.930 . S
H954 C970 0.931 . S
C955 H943 0.929 . S
C955 C949 1.390 . S
C955 C952 1.386 . S
C956 C951 1.490 . S
C956 C958 1.395 . S
C956 C959 1.403 . S
H957 C963 0.930 . S
C958 H944 0.930 . S
C958 C956 1.395 . S
C958 C961 1.403 . S
C959 C956 1.403 . S
C959 C960 1.524 . S
C959 C963 1.400 . S
C960 H945 0.960 . S
C960 H946 0.960 . S
C960 H947 0.960 . S
C960 C959 1.524 . S
C961 C958 1.403 . S
C961 C962 1.392 . S
C961 C965 1.495 . S
C962 C961 1.392 . S
C962 C963 1.385 . S
C962 C964 1.478 . S
C963 H957 0.930 . S
C963 C959 1.400 . S
C963 C962 1.385 . S
C964 C962 1.478 . S
C964 C966 1.381 . S
C964 C970 1.383 . S
C965 C961 1.495 . S
C965 H971 0.959 . S
C965 H972 0.961 . S
C965 H973 0.960 . S
C966 C964 1.381 . S
C966 C967 1.394 . S
C966 H974 0.930 . S
C967 C966 1.394 . S
C967 C968 1.383 . S
C967 H975 0.929 . S
C968 C967 1.383 . S
C968 C969 1.377 . S
C969 H953 0.930 . S
C969 C968 1.377 . S
C969 C970 1.379 . S
C970 H954 0.931 . S
C970 C964 1.383 . S
C970 C969 1.379 . S
H971 C965 0.959 . S
H972 C965 0.961 . S
H973 C965 0.960 . S
H974 C966 0.930 . S
H975 C967 0.929 . S
H976 C984 0.929 . S
H977 C986 0.930 . S
H978 C988 0.930 . S
H979 C991 0.929 . S
H980 C994 0.930 . S
H981 C996 0.960 . S
H982 C996 0.960 . S
H983 C996 0.960 . S
C984 H976 0.929 . S
C984 C985 1.377 . S
C984 C986 1.384 . S
C985 C984 1.377 . S
C985 C991 1.390 . S
C986 H977 0.930 . S
C986 C984 1.384 . S
C986 C987 1.372 . S
C987 C986 1.372 . S
C987 C988 1.400 . S
C987 C992 1.490 . S
C988 H978 0.930 . S
C988 C987 1.400 . S
C988 C991 1.386 . S
H989 C1005 0.930 . S
H990 C1006 0.931 . S
C991 H979 0.929 . S
C991 C985 1.390 . S
C991 C988 1.386 . S
C992 C987 1.490 . S
C992 C994 1.395 . S
C992 C995 1.403 . S
H993 C999 0.930 . S
C994 H980 0.930 . S
C994 C992 1.395 . S
C994 C997 1.403 . S
C995 C992 1.403 . S
C995 C996 1.524 . S
C995 C999 1.400 . S
C996 H981 0.960 . S
C996 H982 0.960 . S
C996 H983 0.960 . S
C996 C995 1.524 . S
C997 C994 1.403 . S
C997 C998 1.392 . S
C997 C1001 1.495 . S
C998 C997 1.392 . S
C998 C999 1.385 . S
C998 C1000 1.478 . S
C999 H993 0.930 . S
C999 C995 1.400 . S
C999 C998 1.385 . S
C1000 C998 1.478 . S
C1000 C1002 1.381 . S
C1000 C1006 1.383 . S
C1001 C997 1.495 . S
C1001 H1007 0.959 . S
C1001 H1008 0.961 . S
C1001 H1009 0.960 . S
C1002 C1000 1.381 . S
C1002 C1003 1.394 . S
C1002 H1010 0.930 . S
C1003 C1002 1.394 . S
C1003 C1004 1.383 . S
C1003 H1011 0.929 . S
C1004 C1003 1.383 . S
C1004 C1005 1.377 . S
C1005 H989 0.930 . S
C1005 C1004 1.377 . S
C1005 C1006 1.379 . S
C1006 H990 0.931 . S
C1006 C1000 1.383 . S
C1006 C1005 1.379 . S
H1007 C1001 0.959 . S
H1008 C1001 0.961 . S
H1009 C1001 0.960 . S
H1010 C1002 0.930 . S
H1011 C1003 0.929 . S
H1012 C1020 0.929 . S
H1013 C1022 0.930 . S
H1014 C1024 0.930 . S
H1015 C1027 0.929 . S
H1016 C1030 0.930 . S
H1017 C1032 0.960 . S
H1018 C1032 0.960 . S
H1019 C1032 0.960 . S
C1020 H1012 0.929 . S
C1020 C1021 1.377 . S
C1020 C1022 1.384 . S
C1021 C1020 1.377 . S
C1021 C1027 1.390 . S
C1022 H1013 0.930 . S
C1022 C1020 1.384 . S
C1022 C1023 1.372 . S
C1023 C1022 1.372 . S
C1023 C1024 1.400 . S
C1023 C1028 1.490 . S
C1024 H1014 0.930 . S
C1024 C1023 1.400 . S
C1024 C1027 1.386 . S
H1025 C1041 0.930 . S
H1026 C1042 0.931 . S
C1027 H1015 0.929 . S
C1027 C1021 1.390 . S
C1027 C1024 1.386 . S
C1028 C1023 1.490 . S
C1028 C1030 1.395 . S
C1028 C1031 1.403 . S
H1029 C1035 0.930 . S
C1030 H1016 0.930 . S
C1030 C1028 1.395 . S
C1030 C1033 1.403 . S
C1031 C1028 1.403 . S
C1031 C1032 1.524 . S
C1031 C1035 1.400 . S
C1032 H1017 0.960 . S
C1032 H1018 0.960 . S
C1032 H1019 0.960 . S
C1032 C1031 1.524 . S
C1033 C1030 1.403 . S
C1033 C1034 1.392 . S
C1033 C1037 1.495 . S
C1034 C1033 1.392 . S
C1034 C1035 1.385 . S
C1034 C1036 1.478 . S
C1035 H1029 0.930 . S
C1035 C1031 1.400 . S
C1035 C1034 1.385 . S
C1036 C1034 1.478 . S
C1036 C1038 1.381 . S
C1036 C1042 1.383 . S
C1037 C1033 1.495 . S
C1037 H1043 0.959 . S
C1037 H1044 0.961 . S
C1037 H1045 0.960 . S
C1038 C1036 1.381 . S
C1038 C1039 1.394 . S
C1038 H1046 0.930 . S
C1039 C1038 1.394 . S
C1039 C1040 1.383 . S
C1039 H1047 0.929 . S
C1040 C1039 1.383 . S
C1040 C1041 1.377 . S
C1041 H1025 0.930 . S
C1041 C1040 1.377 . S
C1041 C1042 1.379 . S
C1042 H1026 0.931 . S
C1042 C1036 1.383 . S
C1042 C1041 1.379 . S
H1043 C1037 0.959 . S
H1044 C1037 0.961 . S
H1045 C1037 0.960 . S
H1046 C1038 0.930 . S
H1047 C1039 0.929 . S
H1048 C1056 0.929 . S
H1049 C1058 0.930 . S
H1050 C1060 0.930 . S
H1051 C1063 0.929 . S
H1052 C1066 0.930 . S
H1053 C1068 0.960 . S
H1054 C1068 0.960 . S
H1055 C1068 0.960 . S
C1056 H1048 0.929 . S
C1056 C1057 1.377 . S
C1056 C1058 1.384 . S
C1057 C1056 1.377 . S
C1057 C1063 1.390 . S
C1058 H1049 0.930 . S
C1058 C1056 1.384 . S
C1058 C1059 1.372 . S
C1059 C1058 1.372 . S
C1059 C1060 1.400 . S
C1059 C1064 1.490 . S
C1060 H1050 0.930 . S
C1060 C1059 1.400 . S
C1060 C1063 1.386 . S
H1061 C1077 0.930 . S
H1062 C1078 0.931 . S
C1063 H1051 0.929 . S
C1063 C1057 1.390 . S
C1063 C1060 1.386 . S
C1064 C1059 1.490 . S
C1064 C1066 1.395 . S
C1064 C1067 1.403 . S
H1065 C1071 0.930 . S
C1066 H1052 0.930 . S
C1066 C1064 1.395 . S
C1066 C1069 1.403 . S
C1067 C1064 1.403 . S
C1067 C1068 1.524 . S
C1067 C1071 1.400 . S
C1068 H1053 0.960 . S
C1068 H1054 0.960 . S
C1068 H1055 0.960 . S
C1068 C1067 1.524 . S
C1069 C1066 1.403 . S
C1069 C1070 1.392 . S
C1069 C1073 1.495 . S
C1070 C1069 1.392 . S
C1070 C1071 1.385 . S
C1070 C1072 1.478 . S
C1071 H1065 0.930 . S
C1071 C1067 1.400 . S
C1071 C1070 1.385 . S
C1072 C1070 1.478 . S
C1072 C1074 1.381 . S
C1072 C1078 1.383 . S
C1073 C1069 1.495 . S
C1073 H1079 0.959 . S
C1073 H1080 0.961 . S
C1073 H1081 0.960 . S
C1074 C1072 1.381 . S
C1074 C1075 1.394 . S
C1074 H1082 0.930 . S
C1075 C1074 1.394 . S
C1075 C1076 1.383 . S
C1075 H1083 0.929 . S
C1076 C1075 1.383 . S
C1076 C1077 1.377 . S
C1077 H1061 0.930 . S
C1077 C1076 1.377 . S
C1077 C1078 1.379 . S
C1078 H1062 0.931 . S
C1078 C1072 1.383 . S
C1078 C1077 1.379 . S
H1079 C1073 0.959 . S
H1080 C1073 0.961 . S
H1081 C1073 0.960 . S
H1082 C1074 0.930 . S
H1083 C1075 0.929 . S
H1084 C1092 0.929 . S
H1085 C1094 0.930 . S
H1086 C1096 0.930 . S
H1087 C1099 0.929 . S
H1088 C1102 0.930 . S
H1089 C1104 0.960 . S
H1090 C1104 0.960 . S
H1091 C1104 0.960 . S
C1092 H1084 0.929 . S
C1092 C1093 1.377 . S
C1092 C1094 1.384 . S
C1093 C1092 1.377 . S
C1093 C1099 1.390 . S
C1094 H1085 0.930 . S
C1094 C1092 1.384 . S
C1094 C1095 1.372 . S
C1095 C1094 1.372 . S
C1095 C1096 1.400 . S
C1095 C1100 1.490 . S
C1096 H1086 0.930 . S
C1096 C1095 1.400 . S
C1096 C1099 1.386 . S
H1097 C1113 0.930 . S
H1098 C1114 0.931 . S
C1099 H1087 0.929 . S
C1099 C1093 1.390 . S
C1099 C1096 1.386 . S
C1100 C1095 1.490 . S
C1100 C1102 1.395 . S
C1100 C1103 1.403 . S
H1101 C1107 0.930 . S
C1102 H1088 0.930 . S
C1102 C1100 1.395 . S
C1102 C1105 1.403 . S
C1103 C1100 1.403 . S
C1103 C1104 1.524 . S
C1103 C1107 1.400 . S
C1104 H1089 0.960 . S
C1104 H1090 0.960 . S
C1104 H1091 0.960 . S
C1104 C1103 1.524 . S
C1105 C1102 1.403 . S
C1105 C1106 1.392 . S
C1105 C1109 1.495 . S
C1106 C1105 1.392 . S
C1106 C1107 1.385 . S
C1106 C1108 1.478 . S
C1107 H1101 0.930 . S
C1107 C1103 1.400 . S
C1107 C1106 1.385 . S
C1108 C1106 1.478 . S
C1108 C1110 1.381 . S
C1108 C1114 1.383 . S
C1109 C1105 1.495 . S
C1109 H1115 0.959 . S
C1109 H1116 0.961 . S
C1109 H1117 0.960 . S
C1110 C1108 1.381 . S
C1110 C1111 1.394 . S
C1110 H1118 0.930 . S
C1111 C1110 1.394 . S
C1111 C1112 1.383 . S
C1111 H1119 0.929 . S
C1112 C1111 1.383 . S
C1112 C1113 1.377 . S
C1113 H1097 0.930 . S
C1113 C1112 1.377 . S
C1113 C1114 1.379 . S
C1114 H1098 0.931 . S
C1114 C1108 1.383 . S
C1114 C1113 1.379 . S
H1115 C1109 0.959 . S
H1116 C1109 0.961 . S
H1117 C1109 0.960 . S
H1118 C1110 0.930 . S
H1119 C1111 0.929 . S
H1120 C1128 0.929 . S
H1121 C1130 0.930 . S
H1122 C1132 0.930 . S
H1123 C1135 0.929 . S
H1124 C1138 0.930 . S
H1125 C1140 0.960 . S
H1126 C1140 0.960 . S
H1127 C1140 0.960 . S
C1128 H1120 0.929 . S
C1128 C1129 1.377 . S
C1128 C1130 1.384 . S
C1129 C1128 1.377 . S
C1129 C1135 1.390 . S
C1130 H1121 0.930 . S
C1130 C1128 1.384 . S
C1130 C1131 1.372 . S
C1131 C1130 1.372 . S
C1131 C1132 1.400 . S
C1131 C1136 1.490 . S
C1132 H1122 0.930 . S
C1132 C1131 1.400 . S
C1132 C1135 1.386 . S
H1133 C1149 0.930 . S
H1134 C1150 0.931 . S
C1135 H1123 0.929 . S
C1135 C1129 1.390 . S
C1135 C1132 1.386 . S
C1136 C1131 1.490 . S
C1136 C1138 1.395 . S
C1136 C1139 1.403 . S
H1137 C1143 0.930 . S
C1138 H1124 0.930 . S
C1138 C1136 1.395 . S
C1138 C1141 1.403 . S
C1139 C1136 1.403 . S
C1139 C1140 1.524 . S
C1139 C1143 1.400 . S
C1140 H1125 0.960 . S
C1140 H1126 0.960 . S
C1140 H1127 0.960 . S
C1140 C1139 1.524 . S
C1141 C1138 1.403 . S
C1141 C1142 1.392 . S
C1141 C1145 1.495 . S
C1142 C1141 1.392 . S
C1142 C1143 1.385 . S
C1142 C1144 1.478 . S
C1143 H1137 0.930 . S
C1143 C1139 1.400 . S
C1143 C1142 1.385 . S
C1144 C1142 1.478 . S
C1144 C1146 1.381 . S
C1144 C1150 1.383 . S
C1145 C1141 1.495 . S
C1145 H1151 0.959 . S
C1145 H1152 0.961 . S
C1145 H1153 0.960 . S
C1146 C1144 1.381 . S
C1146 C1147 1.394 . S
C1146 H1154 0.930 . S
C1147 C1146 1.394 . S
C1147 C1148 1.383 . S
C1147 H1155 0.929 . S
C1148 C1147 1.383 . S
C1148 C1149 1.377 . S
C1149 H1133 0.930 . S
C1149 C1148 1.377 . S
C1149 C1150 1.379 . S
C1150 H1134 0.931 . S
C1150 C1144 1.383 . S
C1150 C1149 1.379 . S
H1151 C1145 0.959 . S
H1152 C1145 0.961 . S
H1153 C1145 0.960 . S
H1154 C1146 0.930 . S
H1155 C1147 0.929 . S
H1156 C1164 0.929 . S
H1157 C1166 0.930 . S
H1158 C1168 0.930 . S
H1159 C1171 0.929 . S
H1160 C1174 0.930 . S
H1161 C1176 0.960 . S
H1162 C1176 0.960 . S
H1163 C1176 0.960 . S
C1164 H1156 0.929 . S
C1164 C1165 1.377 . S
C1164 C1166 1.384 . S
C1165 C1164 1.377 . S
C1165 C1171 1.390 . S
C1166 H1157 0.930 . S
C1166 C1164 1.384 . S
C1166 C1167 1.372 . S
C1167 C1166 1.372 . S
C1167 C1168 1.400 . S
C1167 C1172 1.490 . S
C1168 H1158 0.930 . S
C1168 C1167 1.400 . S
C1168 C1171 1.386 . S
H1169 C1185 0.930 . S
H1170 C1186 0.931 . S
C1171 H1159 0.929 . S
C1171 C1165 1.390 . S
C1171 C1168 1.386 . S
C1172 C1167 1.490 . S
C1172 C1174 1.395 . S
C1172 C1175 1.403 . S
H1173 C1179 0.930 . S
C1174 H1160 0.930 . S
C1174 C1172 1.395 . S
C1174 C1177 1.403 . S
C1175 C1172 1.403 . S
C1175 C1176 1.524 . S
C1175 C1179 1.400 . S
C1176 H1161 0.960 . S
C1176 H1162 0.960 . S
C1176 H1163 0.960 . S
C1176 C1175 1.524 . S
C1177 C1174 1.403 . S
C1177 C1178 1.392 . S
C1177 C1181 1.495 . S
C1178 C1177 1.392 . S
C1178 C1179 1.385 . S
C1178 C1180 1.478 . S
C1179 H1173 0.930 . S
C1179 C1175 1.400 . S
C1179 C1178 1.385 . S
C1180 C1178 1.478 . S
C1180 C1182 1.381 . S
C1180 C1186 1.383 . S
C1181 C1177 1.495 . S
C1181 H1187 0.959 . S
C1181 H1188 0.961 . S
C1181 H1189 0.960 . S
C1182 C1180 1.381 . S
C1182 C1183 1.394 . S
C1182 H1190 0.930 . S
C1183 C1182 1.394 . S
C1183 C1184 1.383 . S
C1183 H1191 0.929 . S
C1184 C1183 1.383 . S
C1184 C1185 1.377 . S
C1185 H1169 0.930 . S
C1185 C1184 1.377 . S
C1185 C1186 1.379 . S
C1186 H1170 0.931 . S
C1186 C1180 1.383 . S
C1186 C1185 1.379 . S
H1187 C1181 0.959 . S
H1188 C1181 0.961 . S
H1189 C1181 0.960 . S
H1190 C1182 0.930 . S
H1191 C1183 0.929 . S
H1192 C1200 0.929 . S
H1193 C1202 0.930 . S
H1194 C1204 0.930 . S
H1195 C1207 0.929 . S
H1196 C1210 0.930 . S
H1197 C1212 0.960 . S
H1198 C1212 0.960 . S
H1199 C1212 0.960 . S
C1200 H1192 0.929 . S
C1200 C1201 1.377 . S
C1200 C1202 1.384 . S
C1201 C1200 1.377 . S
C1201 C1207 1.390 . S
C1202 H1193 0.930 . S
C1202 C1200 1.384 . S
C1202 C1203 1.372 . S
C1203 C1202 1.372 . S
C1203 C1204 1.400 . S
C1203 C1208 1.490 . S
C1204 H1194 0.930 . S
C1204 C1203 1.400 . S
C1204 C1207 1.386 . S
H1205 C1221 0.930 . S
H1206 C1222 0.931 . S
C1207 H1195 0.929 . S
C1207 C1201 1.390 . S
C1207 C1204 1.386 . S
C1208 C1203 1.490 . S
C1208 C1210 1.395 . S
C1208 C1211 1.403 . S
H1209 C1215 0.930 . S
C1210 H1196 0.930 . S
C1210 C1208 1.395 . S
C1210 C1213 1.403 . S
C1211 C1208 1.403 . S
C1211 C1212 1.524 . S
C1211 C1215 1.400 . S
C1212 H1197 0.960 . S
C1212 H1198 0.960 . S
C1212 H1199 0.960 . S
C1212 C1211 1.524 . S
C1213 C1210 1.403 . S
C1213 C1214 1.392 . S
C1213 C1217 1.495 . S
C1214 C1213 1.392 . S
C1214 C1215 1.385 . S
C1214 C1216 1.478 . S
C1215 H1209 0.930 . S
C1215 C1211 1.400 . S
C1215 C1214 1.385 . S
C1216 C1214 1.478 . S
C1216 C1218 1.381 . S
C1216 C1222 1.383 . S
C1217 C1213 1.495 . S
C1217 H1223 0.959 . S
C1217 H1224 0.961 . S
C1217 H1225 0.960 . S
C1218 C1216 1.381 . S
C1218 C1219 1.394 . S
C1218 H1226 0.930 . S
C1219 C1218 1.394 . S
C1219 C1220 1.383 . S
C1219 H1227 0.929 . S
C1220 C1219 1.383 . S
C1220 C1221 1.377 . S
C1221 H1205 0.930 . S
C1221 C1220 1.377 . S
C1221 C1222 1.379 . S
C1222 H1206 0.931 . S
C1222 C1216 1.383 . S
C1222 C1221 1.379 . S
H1223 C1217 0.959 . S
H1224 C1217 0.961 . S
H1225 C1217 0.960 . S
H1226 C1218 0.930 . S
H1227 C1219 0.929 . S
H1228 C1236 0.929 . S
H1229 C1238 0.930 . S
H1230 C1240 0.930 . S
H1231 C1243 0.929 . S
H1232 C1246 0.930 . S
H1233 C1248 0.960 . S
H1234 C1248 0.960 . S
H1235 C1248 0.960 . S
C1236 H1228 0.929 . S
C1236 C1237 1.377 . S
C1236 C1238 1.384 . S
C1237 C1236 1.377 . S
C1237 C1243 1.390 . S
C1238 H1229 0.930 . S
C1238 C1236 1.384 . S
C1238 C1239 1.372 . S
C1239 C1238 1.372 . S
C1239 C1240 1.400 . S
C1239 C1244 1.490 . S
C1240 H1230 0.930 . S
C1240 C1239 1.400 . S
C1240 C1243 1.386 . S
H1241 C1257 0.930 . S
H1242 C1258 0.931 . S
C1243 H1231 0.929 . S
C1243 C1237 1.390 . S
C1243 C1240 1.386 . S
C1244 C1239 1.490 . S
C1244 C1246 1.395 . S
C1244 C1247 1.403 . S
H1245 C1251 0.930 . S
C1246 H1232 0.930 . S
C1246 C1244 1.395 . S
C1246 C1249 1.403 . S
C1247 C1244 1.403 . S
C1247 C1248 1.524 . S
C1247 C1251 1.400 . S
C1248 H1233 0.960 . S
C1248 H1234 0.960 . S
C1248 H1235 0.960 . S
C1248 C1247 1.524 . S
C1249 C1246 1.403 . S
C1249 C1250 1.392 . S
C1249 C1253 1.495 . S
C1250 C1249 1.392 . S
C1250 C1251 1.385 . S
C1250 C1252 1.478 . S
C1251 H1245 0.930 . S
C1251 C1247 1.400 . S
C1251 C1250 1.385 . S
C1252 C1250 1.478 . S
C1252 C1254 1.381 . S
C1252 C1258 1.383 . S
C1253 C1249 1.495 . S
C1253 H1259 0.959 . S
C1253 H1260 0.961 . S
C1253 H1261 0.960 . S
C1254 C1252 1.381 . S
C1254 C1255 1.394 . S
C1254 H1262 0.930 . S
C1255 C1254 1.394 . S
C1255 C1256 1.383 . S
C1255 H1263 0.929 . S
C1256 C1255 1.383 . S
C1256 C1257 1.377 . S
C1257 H1241 0.930 . S
C1257 C1256 1.377 . S
C1257 C1258 1.379 . S
C1258 H1242 0.931 . S
C1258 C1252 1.383 . S
C1258 C1257 1.379 . S
H1259 C1253 0.959 . S
H1260 C1253 0.961 . S
H1261 C1253 0.960 . S
H1262 C1254 0.930 . S
H1263 C1255 0.929 . S
H1264 C1272 0.929 . S
H1265 C1274 0.930 . S
H1266 C1276 0.930 . S
H1267 C1279 0.929 . S
H1268 C1282 0.930 . S
H1269 C1284 0.960 . S
H1270 C1284 0.960 . S
H1271 C1284 0.960 . S
C1272 H1264 0.929 . S
C1272 C1273 1.377 . S
C1272 C1274 1.384 . S
C1273 C1272 1.377 . S
C1273 C1279 1.390 . S
C1274 H1265 0.930 . S
C1274 C1272 1.384 . S
C1274 C1275 1.372 . S
C1275 C1274 1.372 . S
C1275 C1276 1.400 . S
C1275 C1280 1.490 . S
C1276 H1266 0.930 . S
C1276 C1275 1.400 . S
C1276 C1279 1.386 . S
H1277 C1293 0.930 . S
H1278 C1294 0.931 . S
C1279 H1267 0.929 . S
C1279 C1273 1.390 . S
C1279 C1276 1.386 . S
C1280 C1275 1.490 . S
C1280 C1282 1.395 . S
C1280 C1283 1.403 . S
H1281 C1287 0.930 . S
C1282 H1268 0.930 . S
C1282 C1280 1.395 . S
C1282 C1285 1.403 . S
C1283 C1280 1.403 . S
C1283 C1284 1.524 . S
C1283 C1287 1.400 . S
C1284 H1269 0.960 . S
C1284 H1270 0.960 . S
C1284 H1271 0.960 . S
C1284 C1283 1.524 . S
C1285 C1282 1.403 . S
C1285 C1286 1.392 . S
C1285 C1289 1.495 . S
C1286 C1285 1.392 . S
C1286 C1287 1.385 . S
C1286 C1288 1.478 . S
C1287 H1281 0.930 . S
C1287 C1283 1.400 . S
C1287 C1286 1.385 . S
C1288 C1286 1.478 . S
C1288 C1290 1.381 . S
C1288 C1294 1.383 . S
C1289 C1285 1.495 . S
C1289 H1295 0.959 . S
C1289 H1296 0.961 . S
C1289 H1297 0.960 . S
C1290 C1288 1.381 . S
C1290 C1291 1.394 . S
C1290 H1298 0.930 . S
C1291 C1290 1.394 . S
C1291 C1292 1.383 . S
C1291 H1299 0.929 1_455 S
C1292 C1291 1.383 . S
C1292 C1293 1.377 . S
C1293 H1277 0.930 . S
C1293 C1292 1.377 . S
C1293 C1294 1.379 . S
C1294 H1278 0.931 . S
C1294 C1288 1.383 . S
C1294 C1293 1.379 . S
H1295 C1289 0.959 . S
H1296 C1289 0.961 . S
H1297 C1289 0.960 . S
H1298 C1290 0.930 . S
H1299 C1291 0.929 1_655 S
H1300 C1308 0.929 . S
H1301 C1310 0.930 . S
H1302 C1312 0.930 . S
H1303 C1315 0.929 . S
H1304 C1318 0.930 . S
H1305 C1320 0.960 . S
H1306 C1320 0.960 . S
H1307 C1320 0.960 . S
C1308 H1300 0.929 . S
C1308 C1309 1.377 . S
C1308 C1310 1.384 . S
C1309 C1308 1.377 . S
C1309 C1315 1.390 . S
C1310 H1301 0.930 . S
C1310 C1308 1.384 . S
C1310 C1311 1.372 . S
C1311 C1310 1.372 . S
C1311 C1312 1.400 . S
C1311 C1316 1.490 . S
C1312 H1302 0.930 . S
C1312 C1311 1.400 . S
C1312 C1315 1.386 . S
H1313 C1329 0.930 . S
H1314 C1330 0.931 . S
C1315 H1303 0.929 . S
C1315 C1309 1.390 . S
C1315 C1312 1.386 . S
C1316 C1311 1.490 . S
C1316 C1318 1.395 . S
C1316 C1319 1.403 . S
H1317 C1323 0.930 . S
C1318 H1304 0.930 . S
C1318 C1316 1.395 . S
C1318 C1321 1.403 . S
C1319 C1316 1.403 . S
C1319 C1320 1.524 . S
C1319 C1323 1.400 . S
C1320 H1305 0.960 . S
C1320 H1306 0.960 . S
C1320 H1307 0.960 . S
C1320 C1319 1.524 . S
C1321 C1318 1.403 . S
C1321 C1322 1.392 . S
C1321 C1325 1.495 . S
C1322 C1321 1.392 . S
C1322 C1323 1.385 . S
C1322 C1324 1.478 . S
C1323 H1317 0.930 . S
C1323 C1319 1.400 . S
C1323 C1322 1.385 . S
C1324 C1322 1.478 . S
C1324 C1326 1.381 . S
C1324 C1330 1.383 . S
C1325 C1321 1.495 . S
C1325 H1331 0.959 . S
C1325 H1332 0.961 . S
C1325 H1333 0.960 . S
C1326 C1324 1.381 . S
C1326 C1327 1.394 . S
C1326 H1334 0.930 . S
C1327 C1326 1.394 . S
C1327 C1328 1.383 . S
C1327 H1335 0.929 . S
C1328 C1327 1.383 . S
C1328 C1329 1.377 . S
C1329 H1313 0.930 . S
C1329 C1328 1.377 . S
C1329 C1330 1.379 . S
C1330 H1314 0.931 . S
C1330 C1324 1.383 . S
C1330 C1329 1.379 . S
H1331 C1325 0.959 . S
H1332 C1325 0.961 . S
H1333 C1325 0.960 . S
H1334 C1326 0.930 . S
H1335 C1327 0.929 . S
C481 C1 1.184 . S
C500 C329 1.198 . S
C517 C40 1.175 . S
C536 C369 1.183 . S
C572 C394 2.343 . S
C553 C99 2.393 . S
C589 C118 2.376 . S
C608 C434 2.328 . S
C644 C365 1.799 . S
C625 C16 1.754 . S
C680 C325 1.794 . S
C661 C60 1.760 . S
C716 C456 1.603 . S
C697 C79 1.615 . S
C752 C416 1.545 . S
C733 C138 1.571 . S
C769 C21 1.269 . S
C788 C458 1.270 . S
C824 C375 2.126 . S
C805 C94 2.152 . S
C841 C133 2.121 . S
C860 C335 2.082 . S
C877 C55 1.273 . S
C896 C418 1.274 . S
C932 C338 1.183 . S
C913 C157 1.185 . S
C949 C196 1.178 . S
C968 C378 1.179 . S
C985 C255 2.387 . S
C1004 C415 2.323 . S
C1021 C289 2.374 . S
C1040 C455 2.325 . S
C1057 C172 1.753 . S
C1076 C376 1.796 . S
C1112 C336 1.796 . S
C1093 C216 1.743 . S
C1148 C445 1.609 . S
C1129 C235 1.614 . S
C1184 C405 1.567 . S
C1165 C294 1.572 . S
C1201 C177 1.281 . S
C1220 C449 1.301 . S
C1256 C354 2.112 . S
C1237 C250 2.154 . S
C1292 C314 2.088 . S
C1273 C274 2.123 . S
C1309 C211 1.266 . S
C1328 C409 1.265 . S
