# Generated by pormake.
# Topology ctn, (3,4)-cn, num edge types: 1
# Building blocks:
#     Node 0, Type 0, BuildingBlock: CUQRIR_clean_linker_1, # of connection points: 3
#     Node 1, Type 0, BuildingBlock: CUQRIR_clean_linker_1, # of connection points: 3
#     Node 2, Type 0, BuildingBlock: CUQRIR_clean_linker_1, # of connection points: 3
#     Node 3, Type 0, BuildingBlock: CUQRIR_clean_linker_1, # of connection points: 3
#     Node 4, Type 0, BuildingBlock: CUQRIR_clean_linker_1, # of connection points: 3
#     Node 5, Type 0, BuildingBlock: CUQRIR_clean_linker_1, # of connection points: 3
#     Node 6, Type 0, BuildingBlock: CUQRIR_clean_linker_1, # of connection points: 3
#     Node 7, Type 0, BuildingBlock: CUQRIR_clean_linker_1, # of connection points: 3
#     Node 8, Type 0, BuildingBlock: CUQRIR_clean_linker_1, # of connection points: 3
#     Node 9, Type 0, BuildingBlock: CUQRIR_clean_linker_1, # of connection points: 3
#     Node 10, Type 0, BuildingBlock: CUQRIR_clean_linker_1, # of connection points: 3
#     Node 11, Type 0, BuildingBlock: CUQRIR_clean_linker_1, # of connection points: 3
#     Node 12, Type 0, BuildingBlock: CUQRIR_clean_linker_1, # of connection points: 3
#     Node 13, Type 0, BuildingBlock: CUQRIR_clean_linker_1, # of connection points: 3
#     Node 14, Type 0, BuildingBlock: CUQRIR_clean_linker_1, # of connection points: 3
#     Node 15, Type 0, BuildingBlock: CUQRIR_clean_linker_1, # of connection points: 3
#     Node 16, Type 1, BuildingBlock: TATPOV_clean_sbu_0, # of connection points: 4
#     Node 17, Type 1, BuildingBlock: TATPOV_clean_sbu_0, # of connection points: 4
#     Node 18, Type 1, BuildingBlock: TATPOV_clean_sbu_0, # of connection points: 4
#     Node 19, Type 1, BuildingBlock: TATPOV_clean_sbu_0, # of connection points: 4
#     Node 20, Type 1, BuildingBlock: TATPOV_clean_sbu_0, # of connection points: 4
#     Node 21, Type 1, BuildingBlock: TATPOV_clean_sbu_0, # of connection points: 4
#     Node 22, Type 1, BuildingBlock: TATPOV_clean_sbu_0, # of connection points: 4
#     Node 23, Type 1, BuildingBlock: TATPOV_clean_sbu_0, # of connection points: 4
#     Node 24, Type 1, BuildingBlock: TATPOV_clean_sbu_0, # of connection points: 4
#     Node 25, Type 1, BuildingBlock: TATPOV_clean_sbu_0, # of connection points: 4
#     Node 26, Type 1, BuildingBlock: TATPOV_clean_sbu_0, # of connection points: 4
#     Node 27, Type 1, BuildingBlock: TATPOV_clean_sbu_0, # of connection points: 4
#     Edge 28, Type (0, 1), BuildingBlock: ZUJKAS_clean_linker_0, # of connection points: 2
#     Edge 29, Type (0, 1), BuildingBlock: ZUJKAS_clean_linker_0, # of connection points: 2
#     Edge 30, Type (0, 1), BuildingBlock: ZUJKAS_clean_linker_0, # of connection points: 2
#     Edge 31, Type (0, 1), BuildingBlock: ZUJKAS_clean_linker_0, # of connection points: 2
#     Edge 32, Type (0, 1), BuildingBlock: ZUJKAS_clean_linker_0, # of connection points: 2
#     Edge 33, Type (0, 1), BuildingBlock: ZUJKAS_clean_linker_0, # of connection points: 2
#     Edge 34, Type (0, 1), BuildingBlock: ZUJKAS_clean_linker_0, # of connection points: 2
#     Edge 35, Type (0, 1), BuildingBlock: ZUJKAS_clean_linker_0, # of connection points: 2
#     Edge 36, Type (0, 1), BuildingBlock: ZUJKAS_clean_linker_0, # of connection points: 2
#     Edge 37, Type (0, 1), BuildingBlock: ZUJKAS_clean_linker_0, # of connection points: 2
#     Edge 38, Type (0, 1), BuildingBlock: ZUJKAS_clean_linker_0, # of connection points: 2
#     Edge 39, Type (0, 1), BuildingBlock: ZUJKAS_clean_linker_0, # of connection points: 2
#     Edge 40, Type (0, 1), BuildingBlock: ZUJKAS_clean_linker_0, # of connection points: 2
#     Edge 41, Type (0, 1), BuildingBlock: ZUJKAS_clean_linker_0, # of connection points: 2
#     Edge 42, Type (0, 1), BuildingBlock: ZUJKAS_clean_linker_0, # of connection points: 2
#     Edge 43, Type (0, 1), BuildingBlock: ZUJKAS_clean_linker_0, # of connection points: 2
#     Edge 44, Type (0, 1), BuildingBlock: ZUJKAS_clean_linker_0, # of connection points: 2
#     Edge 45, Type (0, 1), BuildingBlock: ZUJKAS_clean_linker_0, # of connection points: 2
#     Edge 46, Type (0, 1), BuildingBlock: ZUJKAS_clean_linker_0, # of connection points: 2
#     Edge 47, Type (0, 1), BuildingBlock: ZUJKAS_clean_linker_0, # of connection points: 2
#     Edge 48, Type (0, 1), BuildingBlock: ZUJKAS_clean_linker_0, # of connection points: 2
#     Edge 49, Type (0, 1), BuildingBlock: ZUJKAS_clean_linker_0, # of connection points: 2
#     Edge 50, Type (0, 1), BuildingBlock: ZUJKAS_clean_linker_0, # of connection points: 2
#     Edge 51, Type (0, 1), BuildingBlock: ZUJKAS_clean_linker_0, # of connection points: 2
#     Edge 52, Type (0, 1), BuildingBlock: ZUJKAS_clean_linker_0, # of connection points: 2
#     Edge 53, Type (0, 1), BuildingBlock: ZUJKAS_clean_linker_0, # of connection points: 2
#     Edge 54, Type (0, 1), BuildingBlock: ZUJKAS_clean_linker_0, # of connection points: 2
#     Edge 55, Type (0, 1), BuildingBlock: ZUJKAS_clean_linker_0, # of connection points: 2
#     Edge 56, Type (0, 1), BuildingBlock: ZUJKAS_clean_linker_0, # of connection points: 2
#     Edge 57, Type (0, 1), BuildingBlock: ZUJKAS_clean_linker_0, # of connection points: 2
#     Edge 58, Type (0, 1), BuildingBlock: ZUJKAS_clean_linker_0, # of connection points: 2
#     Edge 59, Type (0, 1), BuildingBlock: ZUJKAS_clean_linker_0, # of connection points: 2
#     Edge 60, Type (0, 1), BuildingBlock: ZUJKAS_clean_linker_0, # of connection points: 2
#     Edge 61, Type (0, 1), BuildingBlock: ZUJKAS_clean_linker_0, # of connection points: 2
#     Edge 62, Type (0, 1), BuildingBlock: ZUJKAS_clean_linker_0, # of connection points: 2
#     Edge 63, Type (0, 1), BuildingBlock: ZUJKAS_clean_linker_0, # of connection points: 2
#     Edge 64, Type (0, 1), BuildingBlock: ZUJKAS_clean_linker_0, # of connection points: 2
#     Edge 65, Type (0, 1), BuildingBlock: ZUJKAS_clean_linker_0, # of connection points: 2
#     Edge 66, Type (0, 1), BuildingBlock: ZUJKAS_clean_linker_0, # of connection points: 2
#     Edge 67, Type (0, 1), BuildingBlock: ZUJKAS_clean_linker_0, # of connection points: 2
#     Edge 68, Type (0, 1), BuildingBlock: ZUJKAS_clean_linker_0, # of connection points: 2
#     Edge 69, Type (0, 1), BuildingBlock: ZUJKAS_clean_linker_0, # of connection points: 2
#     Edge 70, Type (0, 1), BuildingBlock: ZUJKAS_clean_linker_0, # of connection points: 2
#     Edge 71, Type (0, 1), BuildingBlock: ZUJKAS_clean_linker_0, # of connection points: 2
#     Edge 72, Type (0, 1), BuildingBlock: ZUJKAS_clean_linker_0, # of connection points: 2
#     Edge 73, Type (0, 1), BuildingBlock: ZUJKAS_clean_linker_0, # of connection points: 2
#     Edge 74, Type (0, 1), BuildingBlock: ZUJKAS_clean_linker_0, # of connection points: 2
#     Edge 75, Type (0, 1), BuildingBlock: ZUJKAS_clean_linker_0, # of connection points: 2
# Relax obj value: 0.080
# Max RMSD: 0.208
# Mean RMSD: 0.131
data_MOF--net-ctn--node1-TATPOV_clean_sbu_0--node2-CUQRIR_clean_linker_1--edge1-ZUJKAS_clean_linker_0
_symmetry_space_group_name_H-M    P1
_symmetry_Int_Tables_number       1
_symmetry_cell_setting            triclinic
loop_
_symmetry_equiv_pos_as_xyz
'x, y, z'
_cell_length_a     68.846334
_cell_length_b     64.426054
_cell_length_c     65.914475
_cell_angle_alpha  97.490179
_cell_angle_beta   90.045343
_cell_angle_gamma 93.743427
loop_
_atom_site_label
_atom_site_type_symbol
_atom_site_fract_x
_atom_site_fract_y
_atom_site_fract_z
_atom_type_partial_charge
C0 C 0.03269 0.011 0.06439 0.0
N1 N 0.04237 0.01841 0.04863 0.0
N2 N 0.01744 0.02266 0.07009 0.0
C3 C 0.03909 0.99347 0.07533 0.0
C4 C 0.01829 0.03754 0.0573 0.0
N5 N 0.03361 0.03519 0.04445 0.0
C6 C 0.00321 0.05328 0.05624 0.0
H7 H 0.03422 0.99529 0.09146 0.0
H8 H 0.05517 0.99293 0.07506 0.0
H9 H 0.03263 0.97832 0.06744 0.0
H10 H 0.00813 0.06816 0.06579 0.0
H11 H 0.98899 0.04756 0.06205 0.0
H12 H 1.00122 0.05659 0.04029 0.0
C13 C 0.26831 0.71577 0.22555 0.0
N14 N 0.27684 0.70629 0.2401 0.0
N15 N 0.27937 0.73292 0.22157 0.0
C16 C 0.24843 0.70933 0.21644 0.0
C17 C 0.2949 0.73361 0.23439 0.0
N18 N 0.29329 0.71751 0.24581 0.0
C19 C 0.31236 0.74893 0.23445 0.0
H20 H 0.24988 0.69753 0.20277 0.0
H21 H 0.24144 0.72297 0.21165 0.0
H22 H 0.23889 0.70216 0.22756 0.0
H23 H 0.31019 0.76273 0.24597 0.0
H24 H 0.31428 0.75443 0.21927 0.0
H25 H 0.32579 0.74174 0.23855 0.0
C26 C 0.96993 0.47571 0.07836 0.0
N27 N 0.98055 0.45865 0.07795 0.0
N28 N 0.95931 0.4747 0.06094 0.0
C29 C 0.97007 0.49348 0.09565 0.0
C30 C 0.96395 0.45658 0.04979 0.0
N31 N 0.97704 0.44692 0.06002 0.0
C32 C 0.95583 0.44831 0.02887 0.0
H33 H 0.95979 0.48908 0.10757 0.0
H34 H 0.9654 0.50808 0.0905 0.0
H35 H 0.98481 0.49657 0.10266 0.0
H36 H 0.94227 0.45563 0.02555 0.0
H37 H 0.95297 0.43103 0.02744 0.0
H38 H 0.96675 0.45183 0.01722 0.0
C39 C 0.69997 0.74676 0.22417 0.0
N40 N 0.71445 0.75766 0.21536 0.0
N41 N 0.6911 0.75946 0.23883 0.0
C42 C 0.69335 0.72421 0.2173 0.0
C43 C 0.70057 0.77851 0.23847 0.0
N44 N 0.71462 0.77745 0.22409 0.0
C45 C 0.69689 0.79784 0.25301 0.0
H46 H 0.67778 0.72104 0.22086 0.0
H47 H 0.70211 0.71396 0.22543 0.0
H48 H 0.69549 0.72013 0.2006 0.0
H49 H 0.69024 0.79367 0.26739 0.0
H50 H 0.68675 0.80732 0.24562 0.0
H51 H 0.71062 0.80761 0.25673 0.0
C52 C 0.037 0.98193 0.46229 0.0
N53 N 0.05338 0.98391 0.47403 0.0
N54 N 0.03825 0.99552 0.44822 0.0
C55 C 0.02009 0.96628 0.46418 0.0
C56 C 0.05587 0.0059 0.45189 0.0
N57 N 0.06498 0.999 0.46767 0.0
C58 C 0.06432 0.02255 0.43985 0.0
H59 H 0.00646 0.97121 0.45791 0.0
H60 H 0.01786 0.96395 0.48042 0.0
H61 H 0.02332 0.95102 0.45543 0.0
H62 H 0.05263 0.03076 0.43325 0.0
H63 H 0.07303 0.01502 0.42712 0.0
H64 H 0.07409 0.03414 0.4496 0.0
C65 C 0.19491 0.73163 0.78411 0.0
N66 N 0.2093 0.72254 0.793 0.0
N67 N 0.19315 0.72406 0.76401 0.0
C68 C 0.18368 0.74917 0.79466 0.0
C69 C 0.20718 0.7102 0.76092 0.0
N70 N 0.21719 0.70944 0.77853 0.0
C71 C 0.20989 0.69613 0.74118 0.0
H72 H 0.17069 0.74235 0.802 0.0
H73 H 0.17875 0.75936 0.78361 0.0
H74 H 0.19268 0.75894 0.80674 0.0
H75 H 0.22125 0.7036 0.73207 0.0
H76 H 0.1962 0.69367 0.73203 0.0
H77 H 0.21467 0.68068 0.74415 0.0
C78 C 0.93952 0.54783 0.46034 0.0
N79 N 0.95392 0.56338 0.4626 0.0
N80 N 0.9252 0.55202 0.47408 0.0
C81 C 0.9404 0.52755 0.44625 0.0
C82 C 0.93146 0.5706 0.48483 0.0
N83 N 0.94905 0.57737 0.47809 0.0
C84 C 0.91961 0.58297 0.50074 0.0
H85 H 0.93326 0.52914 0.43149 0.0
H86 H 0.93268 0.51439 0.45288 0.0
H87 H 0.95569 0.52371 0.44319 0.0
H88 H 0.92336 0.57903 0.5161 0.0
H89 H 0.90381 0.5791 0.49798 0.0
H90 H 0.92277 0.60007 0.50069 0.0
C91 C 0.81008 0.82743 0.83395 0.0
N92 N 0.82585 0.81594 0.83097 0.0
N93 N 0.81278 0.84546 0.82556 0.0
C94 C 0.79237 0.82151 0.84583 0.0
C95 C 0.83083 0.84462 0.81748 0.0
N96 N 0.83891 0.82677 0.82101 0.0
C97 C 0.83979 0.8602 0.80447 0.0
H98 H 0.78216 0.81105 0.83548 0.0
H99 H 0.7848 0.8356 0.85211 0.0
H100 H 0.79642 0.81292 0.85858 0.0
H101 H 0.85019 0.87124 0.81401 0.0
H102 H 0.82861 0.86931 0.79822 0.0
H103 H 0.84797 0.85214 0.79159 0.0
C104 C 0.31072 0.32461 0.33533 0.0
N105 N 0.32577 0.31213 0.3315 0.0
N106 N 0.31298 0.34157 0.3252 0.0
C107 C 0.2934 0.3199 0.34832 0.0
C108 C 0.33001 0.33909 0.31521 0.0
N109 N 0.33797 0.32135 0.31928 0.0
C110 C 0.33828 0.3533 0.30047 0.0
H111 H 0.28195 0.3107 0.33849 0.0
H112 H 0.28718 0.33448 0.35547 0.0
H113 H 0.29743 0.31065 0.36057 0.0
H114 H 0.35194 0.36162 0.30696 0.0
H115 H 0.32821 0.3653 0.29746 0.0
H116 H 0.34187 0.34384 0.28581 0.0
C117 C 0.47404 0.97287 0.58206 0.0
N118 N 0.4853 0.9563 0.58104 0.0
N119 N 0.46358 0.97224 0.56457 0.0
C120 C 0.47436 0.99053 0.59946 0.0
C121 C 0.46898 0.95476 0.55281 0.0
N122 N 0.48236 0.94518 0.56274 0.0
C123 C 0.46005 0.94619 0.53233 0.0
H124 H 0.46394 0.98622 0.61128 0.0
H125 H 0.47003 0.00524 0.59417 0.0
H126 H 0.48906 0.99336 0.60659 0.0
H127 H 0.46927 0.95182 0.5201 0.0
H128 H 0.4452 0.95158 0.5308 0.0
H129 H 0.45927 0.92879 0.5301 0.0
C130 C 0.20134 0.24247 0.7228 0.0
N131 N 0.21624 0.25309 0.71439 0.0
N132 N 0.19719 0.25218 0.74162 0.0
C133 C 0.19168 0.2219 0.7132 0.0
C134 C 0.21014 0.2691 0.74438 0.0
N135 N 0.2219 0.26953 0.72791 0.0
C136 C 0.21003 0.28621 0.76225 0.0
H137 H 0.17958 0.22504 0.70315 0.0
H138 H 0.18565 0.21261 0.72506 0.0
H139 H 0.20214 0.21255 0.70371 0.0
H140 H 0.22038 0.28281 0.77411 0.0
H141 H 0.19534 0.28708 0.7691 0.0
H142 H 0.21464 0.30168 0.75752 0.0
C143 C 0.77241 0.21967 0.72689 0.0
N144 N 0.78109 0.2105 0.74156 0.0
N145 N 0.78348 0.23658 0.72235 0.0
C146 C 0.75234 0.21318 0.71826 0.0
C147 C 0.79917 0.23748 0.735 0.0
N148 N 0.79764 0.22171 0.74683 0.0
C149 C 0.81669 0.25263 0.73451 0.0
H150 H 0.7535 0.20112 0.70475 0.0
H151 H 0.7453 0.22674 0.71337 0.0
H152 H 0.74299 0.20631 0.72972 0.0
H153 H 0.81467 0.26675 0.74567 0.0
H154 H 0.81852 0.25761 0.7191 0.0
H155 H 0.83011 0.2455 0.73876 0.0
C156 C 0.53066 0.51137 0.56156 0.0
N157 N 0.54048 0.51823 0.54562 0.0
N158 N 0.51654 0.52432 0.56798 0.0
C159 C 0.53571 0.49281 0.57175 0.0
C160 C 0.51819 0.53939 0.55543 0.0
N161 N 0.53292 0.53589 0.54201 0.0
C162 C 0.50431 0.55649 0.55515 0.0
H163 H 0.52809 0.47843 0.56356 0.0
H164 H 0.53111 0.49455 0.58797 0.0
H165 H 0.5516 0.49083 0.57107 0.0
H166 H 0.5106 0.57096 0.56444 0.0
H167 H 0.49003 0.55202 0.56167 0.0
H168 H 0.50199 0.55998 0.53931 0.0
C169 C 0.53505 0.48098 0.96501 0.0
N170 N 0.55177 0.48346 0.97621 0.0
N171 N 0.53732 0.49009 0.94769 0.0
C172 C 0.51654 0.46967 0.97104 0.0
C173 C 0.55603 0.49807 0.94866 0.0
N174 N 0.56489 0.4938 0.96586 0.0
C175 C 0.56575 0.50997 0.93284 0.0
H176 H 0.50637 0.46524 0.95795 0.0
H177 H 0.5091 0.48014 0.98283 0.0
H178 H 0.51986 0.45537 0.97776 0.0
H179 H 0.57455 0.52388 0.94044 0.0
H180 H 0.55514 0.51507 0.92218 0.0
H181 H 0.57578 0.49969 0.92376 0.0
C182 C 0.68557 0.22817 0.28156 0.0
N183 N 0.69964 0.21984 0.2917 0.0
N184 N 0.68519 0.22019 0.26153 0.0
C185 C 0.67324 0.24537 0.29085 0.0
C186 C 0.69971 0.20688 0.25975 0.0
N187 N 0.70869 0.20684 0.27808 0.0
C188 C 0.7039 0.19259 0.24054 0.0
H189 H 0.66009 0.23822 0.29762 0.0
H190 H 0.66853 0.25491 0.27911 0.0
H191 H 0.68134 0.25583 0.30315 0.0
H192 H 0.71579 0.20014 0.23216 0.0
H193 H 0.69088 0.18963 0.23038 0.0
H194 H 0.70864 0.17737 0.24423 0.0
C195 C 0.43247 0.05236 0.94863 0.0
N196 N 0.44555 0.06916 0.95005 0.0
N197 N 0.41625 0.05714 0.95941 0.0
C198 C 0.43501 0.0316 0.93589 0.0
C199 C 0.41991 0.07746 0.96742 0.0
N200 N 0.4376 0.08484 0.96152 0.0
C201 C 0.40714 0.08935 0.98277 0.0
H202 H 0.42068 0.02359 0.93103 0.0
H203 H 0.44268 0.02141 0.94515 0.0
H204 H 0.44385 0.03374 0.92216 0.0
H205 H 0.41595 0.10058 0.99386 0.0
H206 H 0.39819 0.07855 0.99135 0.0
H207 H 0.39722 0.09834 0.97452 0.0
Zn208 Zn 0.2755 0.85736 0.02065 0.0
Zn209 Zn 0.24175 0.87455 0.02202 0.0
O210 O 0.24358 0.86298 0.05045 0.0
O211 O 0.27306 0.85144 0.04943 0.0
O212 O 0.21627 0.88954 0.02289 0.0
O213 O 0.29029 0.88352 0.01502 0.0
O214 O 0.26245 0.89852 0.01687 0.0
C215 C 0.25741 0.85482 0.05894 0.0
C216 C 0.24943 0.83703 0.98939 0.0
O217 O 0.23834 0.85118 0.99693 0.0
O218 O 0.26603 0.83596 0.99731 0.0
C219 C 0.21594 0.90852 0.03124 0.0
O220 O 0.23192 0.91786 0.03997 0.0
C221 C 0.28086 0.89959 0.0143 0.0
Zn222 Zn 0.10937 0.46393 0.29383 0.0
Zn223 Zn 0.12863 0.49961 0.2873 0.0
O224 O 0.11074 0.50967 0.31138 0.0
O225 O 0.09316 0.48054 0.31475 0.0
O226 O 0.14495 0.52566 0.28213 0.0
O227 O 0.1338 0.45205 0.30259 0.0
O228 O 0.1499 0.48016 0.29395 0.0
C229 C 0.09699 0.5 0.32006 0.0
C230 C 0.10406 0.4733 0.25297 0.0
O231 O 0.11372 0.4903 0.25997 0.0
O232 O 0.101 0.45886 0.26412 0.0
C233 C 0.15451 0.53671 0.29667 0.0
O234 O 0.15294 0.53147 0.31524 0.0
C235 C 0.14979 0.46227 0.30028 0.0
Zn236 Zn 0.78931 0.60315 0.95472 0.0
Zn237 Zn 0.78592 0.6301 0.98905 0.0
O238 O 0.80882 0.61298 0.996 0.0
O239 O 0.81118 0.5904 0.96815 0.0
O240 O 0.78235 0.65023 0.0149 0.0
O241 O 0.79523 0.62748 0.93876 0.0
O242 O 0.79227 0.64956 0.96685 0.0
C243 C 0.81693 0.59757 0.98611 0.0
C244 C 0.75198 0.5981 0.97313 0.0
O245 O 0.75937 0.61283 0.98623 0.0
O246 O 0.76175 0.5913 0.95769 0.0
C247 C 0.78216 0.64341 0.03217 0.0
O248 O 0.78472 0.62347 0.03281 0.0
C249 C 0.79571 0.64614 0.94772 0.0
Zn250 Zn 0.84062 0.99948 0.30266 0.0
Zn251 Zn 0.85954 0.0049 0.26848 0.0
O252 O 0.84231 0.03059 0.27277 0.0
O253 O 0.8259 0.02503 0.30041 0.0
O254 O 0.87545 0.00921 0.24316 0.0
O255 O 0.86539 0.00223 0.31904 0.0
O256 O 0.88128 0.00493 0.29047 0.0
C257 C 0.82957 0.03607 0.28616 0.0
C258 C 0.83321 0.96467 0.2712 0.0
O259 O 0.84383 0.97615 0.26065 0.0
O260 O 0.83001 0.97096 0.28983 0.0
C261 C 0.88346 0.99395 0.23298 0.0
O262 O 0.88078 0.97518 0.23866 0.0
C263 C 0.88133 0.00411 0.30972 0.0
Zn264 Zn 0.29511 0.0982 0.45456 0.0
Zn265 Zn 0.29028 0.12581 0.48834 0.0
O266 O 0.31259 0.10857 0.49676 0.0
O267 O 0.3159 0.08542 0.46952 0.0
O268 O 0.28579 0.1463 0.51366 0.0
O269 O 0.30268 0.12237 0.43876 0.0
O270 O 0.2974 0.14485 0.46606 0.0
C271 C 0.32089 0.09287 0.48765 0.0
C272 C 0.25677 0.09398 0.47135 0.0
O273 O 0.26379 0.10881 0.48455 0.0
O274 O 0.26709 0.08685 0.45645 0.0
C275 C 0.28459 0.13973 0.53102 0.0
O276 O 0.28678 0.11979 0.53213 0.0
C277 C 0.30228 0.14111 0.44733 0.0
Zn278 Zn 0.33813 0.49537 0.7991 0.0
Zn279 Zn 0.35968 0.50004 0.76621 0.0
O280 O 0.34425 0.52711 0.76979 0.0
O281 O 0.32718 0.52331 0.79745 0.0
O282 O 0.37739 0.5023 0.74174 0.0
O283 O 0.36201 0.49336 0.81616 0.0
O284 O 0.37982 0.49869 0.78939 0.0
C285 C 0.332 0.53396 0.78318 0.0
C286 C 0.3295 0.46214 0.76657 0.0
O287 O 0.34283 0.47214 0.75756 0.0
O288 O 0.32457 0.46911 0.78454 0.0
C289 C 0.37609 0.5149 0.72852 0.0
O290 O 0.36207 0.52789 0.73006 0.0
C291 C 0.37856 0.49567 0.80811 0.0
Zn292 Zn 0.77048 0.35273 0.51578 0.0
Zn293 Zn 0.73912 0.37299 0.52029 0.0
O294 O 0.74195 0.36134 0.54851 0.0
O295 O 0.77107 0.34902 0.54534 0.0
O296 O 0.71567 0.39121 0.52345 0.0
O297 O 0.78622 0.37642 0.50608 0.0
O298 O 0.76111 0.39519 0.51408 0.0
C299 C 0.75626 0.3531 0.55608 0.0
C300 C 0.74124 0.33374 0.488 0.0
O301 O 0.73234 0.34979 0.49546 0.0
O302 O 0.7577 0.33066 0.49515 0.0
C303 C 0.69855 0.38592 0.51645 0.0
O304 O 0.69474 0.36687 0.50694 0.0
C305 C 0.77861 0.39388 0.50785 0.0
Zn306 Zn 0.61162 0.97131 0.79998 0.0
Zn307 Zn 0.63109 0.00627 0.79064 0.0
O308 O 0.61267 0.01775 0.8137 0.0
O309 O 0.59749 0.98895 0.82205 0.0
O310 O 0.64752 0.03186 0.78451 0.0
O311 O 0.63654 0.95891 0.80672 0.0
O312 O 0.65228 0.98749 0.7987 0.0
C313 C 0.60034 0.00875 0.8247 0.0
C314 C 0.60532 0.97893 0.75819 0.0
O315 O 0.61676 0.99514 0.76346 0.0
O316 O 0.60095 0.96633 0.77097 0.0
C317 C 0.65705 0.04302 0.79901 0.0
O318 O 0.65524 0.03809 0.81767 0.0
C319 C 0.65242 0.96945 0.80466 0.0
Zn320 Zn 0.99689 0.25898 0.88009 0.0
Zn321 Zn 1.00015 0.22554 0.89775 0.0
O322 O 0.02424 0.22591 0.87833 0.0
O323 O 0.01961 0.25289 0.86205 0.0
O324 O 0.0042 0.20067 0.91331 0.0
O325 O 1.00102 0.27845 0.90603 0.0
O326 O 1.0009 0.2504 0.92181 0.0
C327 C 0.02957 0.2377 0.8649 0.0
C328 C 0.96301 0.23094 0.87301 0.0
O329 O 0.97302 0.21913 0.88253 0.0
O330 O 0.96988 0.24915 0.87062 0.0
C331 C 0.00782 0.18232 0.90514 0.0
O332 O 0.00828 0.17827 0.88509 0.0
C333 C 0.00177 0.27035 0.92245 0.0
Zn334 Zn 0.4898 0.75852 0.37832 0.0
Zn335 Zn 0.49584 0.7255 0.39603 0.0
O336 O 0.51902 0.72681 0.37564 0.0
O337 O 0.51269 0.75379 0.36 0.0
O338 O 0.50161 0.70105 0.41152 0.0
O339 O 0.49263 0.77814 0.40426 0.0
O340 O 0.49645 0.75056 0.41993 0.0
C341 C 0.52335 0.73895 0.36223 0.0
C342 C 0.45746 0.72841 0.37221 0.0
O343 O 0.4684 0.71751 0.38176 0.0
O344 O 0.46324 0.7468 0.36925 0.0
C345 C 0.50319 0.68219 0.40342 0.0
O346 O 0.50042 0.67737 0.3836 0.0
C347 C 0.49516 0.77034 0.42062 0.0
Zn348 Zn 0.97312 0.81027 0.61521 0.0
Zn349 Zn 0.00667 0.80357 0.63292 0.0
O350 O 0.01432 0.83054 0.62006 0.0
O351 O 0.98687 0.83552 0.6048 0.0
O352 O 0.03076 0.79735 0.6478 0.0
O353 O 0.9593 0.81302 0.64228 0.0
O354 O 0.98662 0.80614 0.65653 0.0
C355 C 0.0046 0.84101 0.60893 0.0
C356 C 0.98813 0.771 0.59909 0.0
O357 O 0.00223 0.77756 0.61128 0.0
O358 O 0.97345 0.78174 0.59834 0.0
C359 C 0.04685 0.79352 0.63912 0.0
O360 O 0.04844 0.79427 0.61936 0.0
C361 C 0.96869 0.80997 0.65802 0.0
Zn362 Zn 0.47007 0.31464 0.11305 0.0
Zn363 Zn 0.50201 0.30062 0.12859 0.0
O364 O 0.5124 0.32833 0.11833 0.0
O365 O 0.48591 0.34053 0.10692 0.0
O366 O 0.52525 0.29031 0.14184 0.0
O367 O 0.45625 0.31456 0.1401 0.0
O368 O 0.48229 0.30231 0.15235 0.0
C369 C 0.50411 0.3424 0.11021 0.0
C370 C 0.4811 0.27474 0.09193 0.0
O371 O 0.4948 0.27718 0.10521 0.0
O372 O 0.46868 0.28844 0.09203 0.0
C373 C 0.54195 0.2891 0.13372 0.0
O374 O 0.54471 0.29504 0.11556 0.0
C375 C 0.46498 0.30806 0.15472 0.0
H376 H 0.24453 0.73924 0.8066 0.0
H377 H 0.25267 0.75505 0.84188 0.0
H378 H 0.1957 0.73415 0.86138 0.0
H379 H 0.18785 0.71818 0.82628 0.0
H380 H 0.2321 0.7871 0.86165 0.0
H381 H 0.23051 0.72058 0.90726 0.0
H382 H 0.23264 0.71707 0.87973 0.0
H383 H 0.20928 0.72054 0.89142 0.0
C384 C 0.23413 0.73744 0.81866 0.0
C385 C 0.21565 0.72752 0.81396 0.0
C386 C 0.23866 0.74658 0.8387 0.0
C387 C 0.22482 0.7457 0.85431 0.0
C388 C 0.20674 0.73472 0.84974 0.0
H389 H 0.21789 0.83765 0.96372 0.0
H390 H 0.21088 0.81495 0.93129 0.0
C391 C 0.20223 0.72565 0.82974 0.0
C392 C 0.22834 0.75817 0.87471 0.0
H393 H 0.22919 0.7548 0.92599 0.0
C394 C 0.2316 0.78002 0.87572 0.0
C395 C 0.22768 0.74892 0.89303 0.0
C396 C 0.22502 0.72547 0.89287 0.0
C397 C 0.23401 0.79291 0.89456 0.0
C398 C 0.23278 0.78373 0.91292 0.0
C399 C 0.2298 0.76184 0.91191 0.0
C400 C 0.23583 0.79649 0.93324 0.0
C401 C 0.23822 0.81621 0.89462 0.0
C402 C 0.25171 0.79313 0.94543 0.0
C403 C 0.25567 0.80593 0.96391 0.0
C404 C 0.24378 0.82237 0.97073 0.0
C405 C 0.22738 0.8252 0.9589 0.0
C406 C 0.22344 0.81234 0.9403 0.0
H407 H 0.24301 0.82008 0.87938 0.0
H408 H 0.22479 0.82438 0.8987 0.0
H409 H 0.24966 0.8224 0.90611 0.0
H410 H 0.26141 0.78094 0.94034 0.0
H411 H 0.26835 0.80315 0.97266 0.0
H412 H 0.95594 0.56085 0.42175 0.0
H413 H 0.98514 0.55682 0.40083 0.0
H414 H 0.02069 0.56485 0.45562 0.0
H415 H 0.99118 0.5678 0.47656 0.0
H416 H 0.01864 0.57974 0.39567 0.0
H417 H 0.03419 0.50766 0.42935 0.0
H418 H 0.01186 0.52048 0.43419 0.0
H419 H 0.03397 0.53118 0.44721 0.0
C420 C 0.97004 0.56186 0.42924 0.0
C421 C 0.9714 0.5643 0.45066 0.0
C422 C 0.98671 0.55971 0.41733 0.0
C423 C 0.0051 0.5601 0.42664 0.0
C424 C 0.00662 0.56401 0.4481 0.0
H425 H 0.10377 0.53992 0.34069 0.0
H426 H 0.08415 0.55726 0.36824 0.0
C427 C 0.98984 0.56592 0.46004 0.0
C428 C 0.02218 0.55467 0.4137 0.0
H429 H 0.05407 0.51644 0.40262 0.0
C430 C 0.0266 0.56607 0.39732 0.0
C431 C 0.03245 0.53671 0.41581 0.0
C432 C 0.02784 0.52316 0.43246 0.0
C433 C 0.04032 0.55946 0.38246 0.0
C434 C 0.05019 0.5412 0.38431 0.0
C435 C 0.04651 0.53046 0.40127 0.0
C436 C 0.06243 0.53131 0.36768 0.0
C437 C 0.04327 0.57132 0.3643 0.0
C438 C 0.05694 0.51091 0.35846 0.0
C439 C 0.06817 0.50094 0.34303 0.0
C440 C 0.08518 0.51115 0.33631 0.0
C441 C 0.09068 0.53168 0.34544 0.0
C442 C 0.07944 0.54164 0.36111 0.0
H443 H 0.03196 0.58269 0.36329 0.0
H444 H 0.05768 0.58018 0.36568 0.0
H445 H 0.04304 0.56032 0.34984 0.0
H446 H 0.04385 0.50265 0.3632 0.0
H447 H 0.06341 0.48518 0.33632 0.0
H448 H 0.85219 0.80829 0.85873 0.0
H449 H 0.85061 0.77795 0.87797 0.0
H450 H 0.80253 0.7496 0.83982 0.0
H451 H 0.80411 0.78001 0.82087 0.0
H452 H 0.79421 0.75485 0.88135 0.0
H453 H 0.86348 0.716 0.86673 0.0
H454 H 0.86607 0.74387 0.87434 0.0
H455 H 0.85456 0.73372 0.85031 0.0
C456 C 0.84184 0.79515 0.85407 0.0
C457 C 0.82829 0.79628 0.83843 0.0
C458 C 0.84087 0.77789 0.86505 0.0
C459 C 0.82643 0.7615 0.86032 0.0
C460 C 0.81376 0.76207 0.84373 0.0
H461 H 0.8046 0.64363 0.90714 0.0
H462 H 0.81267 0.67228 0.88718 0.0
C463 C 0.81471 0.7793 0.83286 0.0
C464 C 0.82296 0.74505 0.87397 0.0
H465 H 0.84313 0.7042 0.89252 0.0
C466 C 0.80491 0.74377 0.8838 0.0
C467 C 0.83692 0.73063 0.87711 0.0
C468 C 0.8563 0.73092 0.86646 0.0
C469 C 0.80037 0.72837 0.89658 0.0
C470 C 0.81439 0.71404 0.8999 0.0
C471 C 0.83248 0.71534 0.89011 0.0
C472 C 0.81007 0.69686 0.91251 0.0
C473 C 0.78041 0.7272 0.90599 0.0
C474 C 0.80606 0.70115 0.93348 0.0
C475 C 0.80134 0.68475 0.94501 0.0
C476 C 0.80063 0.66375 0.93576 0.0
C477 C 0.80492 0.65958 0.91479 0.0
C478 C 0.80963 0.67595 0.90333 0.0
H479 H 0.77003 0.73634 0.89846 0.0
H480 H 0.77439 0.71068 0.90497 0.0
H481 H 0.7815 0.73374 0.92241 0.0
H482 H 0.80658 0.71719 0.94093 0.0
H483 H 0.79826 0.68852 0.96113 0.0
H484 H 0.04352 0.98774 0.40758 0.0
H485 H 0.01994 0.9918 0.3805 0.0
H486 H 0.97839 0.01236 0.42659 0.0
H487 H 0.00221 0.00884 0.45348 0.0
H488 H 0.98389 0.97187 0.37298 0.0
H489 H 0.97716 0.05749 0.38937 0.0
H490 H 0.99656 0.04456 0.39994 0.0
H491 H 0.97293 0.04461 0.41164 0.0
C492 C 0.02937 0.99327 0.41175 0.0
C493 C 0.02447 0.99788 0.43243 0.0
C494 C 0.01594 0.99556 0.39638 0.0
C495 C 0.9975 0.00269 0.40151 0.0
C496 C 0.99266 0.00729 0.42225 0.0
H497 H 0.88583 0.00889 0.35113 0.0
H498 H 0.91581 0.00931 0.37089 0.0
C499 C 0.00611 0.00506 0.43757 0.0
C500 C 0.98293 0.00443 0.38531 0.0
H501 H 0.95143 0.03779 0.36911 0.0
C502 C 0.97703 0.98637 0.37187 0.0
C503 C 0.97409 0.0234 0.38377 0.0
C504 C 0.98066 0.04366 0.39682 0.0
C505 C 0.96176 0.98649 0.35774 0.0
C506 C 0.95229 0.00519 0.35697 0.0
C507 C 0.95871 0.02346 0.3698 0.0
C508 C 0.93447 0.00557 0.34448 0.0
C509 C 0.95517 0.96642 0.34441 0.0
C510 C 0.93508 0.00358 0.32302 0.0
C511 C 0.91788 0.00342 0.31157 0.0
C512 C 0.89983 0.00513 0.32146 0.0
C513 C 0.89943 0.00741 0.34298 0.0
C514 C 0.91656 0.00772 0.35434 0.0
H515 H 0.9627 0.95274 0.34841 0.0
H516 H 0.93922 0.96317 0.34584 0.0
H517 H 0.95821 0.96814 0.32816 0.0
H518 H 0.94883 0.00208 0.31516 0.0
H519 H 0.91868 0.00166 0.29503 0.0
H520 H 0.25355 0.24437 0.70741 0.0
H521 H 0.26709 0.22884 0.67482 0.0
H522 H 0.21182 0.23262 0.64502 0.0
H523 H 0.19836 0.24775 0.6777 0.0
H524 H 0.22432 0.19381 0.63833 0.0
H525 H 0.28427 0.25093 0.62242 0.0
H526 H 0.28586 0.24296 0.64743 0.0
H527 H 0.26569 0.25739 0.64109 0.0
C528 C 0.24456 0.24229 0.69372 0.0
C529 C 0.22498 0.24708 0.69487 0.0
C530 C 0.25226 0.23352 0.67513 0.0
C531 C 0.24051 0.2297 0.65739 0.0
C532 C 0.22116 0.23542 0.65846 0.0
H533 H 0.27563 0.18091 0.53383 0.0
H534 H 0.26542 0.20336 0.56435 0.0
C535 C 0.21347 0.24403 0.67704 0.0
C536 C 0.24764 0.2178 0.63831 0.0
H537 H 0.28371 0.21697 0.60266 0.0
C538 C 0.23724 0.19899 0.63047 0.0
C539 C 0.26439 0.22461 0.62794 0.0
C540 C 0.27561 0.24518 0.63501 0.0
C541 C 0.24328 0.18662 0.6128 0.0
C542 C 0.26047 0.19296 0.6029 0.0
C543 C 0.27067 0.21201 0.61043 0.0
C544 C 0.26797 0.17992 0.58472 0.0
C545 C 0.23105 0.16695 0.60478 0.0
C546 C 0.27324 0.15948 0.58617 0.0
C547 C 0.27897 0.1466 0.56879 0.0
C548 C 0.27972 0.15395 0.54961 0.0
C549 C 0.27514 0.17472 0.54834 0.0
C550 C 0.26933 0.18759 0.56577 0.0
H551 H 0.21594 0.16733 0.61066 0.0
H552 H 0.23045 0.16471 0.58779 0.0
H553 H 0.2376 0.15317 0.60984 0.0
H554 H 0.27266 0.15338 0.60073 0.0
H555 H 0.28258 0.13077 0.57037 0.0
H556 H 0.51 0.55395 0.5996 0.0
H557 H 0.48617 0.55144 0.62701 0.0
H558 H 0.46872 0.48805 0.60086 0.0
H559 H 0.49222 0.49087 0.57312 0.0
H560 H 0.43742 0.51167 0.61124 0.0
H561 H 0.48987 0.51942 0.67606 0.0
H562 H 0.49268 0.54046 0.6607 0.0
H563 H 0.49727 0.51421 0.64972 0.0
C564 C 0.50103 0.53953 0.59978 0.0
C565 C 0.50291 0.52257 0.58438 0.0
C566 C 0.48757 0.53802 0.6155 0.0
C567 C 0.47586 0.51943 0.6162 0.0
C568 C 0.47768 0.50249 0.60072 0.0
H569 H 0.40645 0.48966 0.72046 0.0
H570 H 0.43014 0.49015 0.69286 0.0
C571 C 0.49113 0.50404 0.58498 0.0
C572 C 0.46132 0.51788 0.63271 0.0
H573 H 0.45644 0.52185 0.68465 0.0
C574 C 0.44158 0.5138 0.62729 0.0
C575 C 0.46677 0.52039 0.65365 0.0
C576 C 0.48782 0.52366 0.66042 0.0
C577 C 0.42712 0.5126 0.64222 0.0
C578 C 0.4325 0.51591 0.66318 0.0
C579 C 0.45228 0.51954 0.66859 0.0
C580 C 0.41786 0.51552 0.67975 0.0
C581 C 0.40624 0.50747 0.63537 0.0
C582 C 0.40317 0.52976 0.68172 0.0
C583 C 0.38954 0.52949 0.69746 0.0
C584 C 0.39042 0.51507 0.71169 0.0
C585 C 0.40528 0.50094 0.70977 0.0
C586 C 0.41887 0.50121 0.694 0.0
H587 H 0.40523 0.49977 0.61928 0.0
H588 H 0.39854 0.49701 0.64531 0.0
H589 H 0.3986 0.5222 0.63633 0.0
H590 H 0.40234 0.54126 0.67119 0.0
H591 H 0.3784 0.54069 0.69854 0.0
H592 H 0.78447 0.27903 0.72703 0.0
H593 H 0.77774 0.30134 0.70065 0.0
H594 H 0.76629 0.24605 0.65675 0.0
H595 H 0.77403 0.22397 0.68281 0.0
H596 H 0.78861 0.27391 0.64069 0.0
H597 H 0.72651 0.31412 0.67742 0.0
H598 H 0.74804 0.31752 0.69317 0.0
H599 H 0.7362 0.29175 0.68675 0.0
C600 C 0.78063 0.27176 0.71169 0.0
C601 C 0.77967 0.24982 0.70692 0.0
C602 C 0.77649 0.28445 0.69671 0.0
C603 C 0.77104 0.2754 0.67677 0.0
C604 C 0.77026 0.25345 0.67203 0.0
H605 H 0.72574 0.33479 0.57572 0.0
H606 H 0.7282 0.31704 0.60646 0.0
C607 C 0.77458 0.24082 0.68692 0.0
C608 C 0.76719 0.28864 0.66046 0.0
H609 H 0.73977 0.32766 0.64793 0.0
C610 C 0.77786 0.28559 0.64229 0.0
C611 C 0.75295 0.3037 0.66234 0.0
C612 C 0.74012 0.30685 0.68088 0.0
C613 C 0.77493 0.29727 0.62615 0.0
C614 C 0.76135 0.313 0.62838 0.0
C615 C 0.75037 0.31583 0.64635 0.0
C616 C 0.75867 0.32658 0.61212 0.0
C617 C 0.78623 0.29235 0.60668 0.0
C618 C 0.77463 0.33874 0.60581 0.0
C619 C 0.7733 0.34858 0.58827 0.0
C620 C 0.75584 0.34694 0.57693 0.0
C621 C 0.73932 0.3364 0.58426 0.0
C622 C 0.74075 0.3262 0.60175 0.0
H623 H 0.79148 0.27628 0.60518 0.0
H624 H 0.77723 0.29373 0.59299 0.0
H625 H 0.79916 0.3036 0.60686 0.0
H626 H 0.78844 0.33974 0.61387 0.0
H627 H 0.78622 0.35676 0.58303 0.0
H628 H 0.47788 0.95092 0.62003 0.0
H629 H 0.502 0.95236 0.6477 0.0
H630 H 0.54831 0.95576 0.60398 0.0
H631 H 0.52401 0.95428 0.57626 0.0
H632 H 0.55471 0.92982 0.63679 0.0
H633 H 0.53309 0.00994 0.66486 0.0
H634 H 0.51316 0.99032 0.66161 0.0
H635 H 0.52662 0.99675 0.63966 0.0
C636 C 0.49323 0.9515 0.61638 0.0
C637 C 0.49924 0.95264 0.59622 0.0
C638 C 0.50695 0.95242 0.63211 0.0
C639 C 0.5269 0.95459 0.6279 0.0
C640 C 0.53297 0.9542 0.60752 0.0
H641 H 0.60897 0.00352 0.72712 0.0
H642 H 0.59269 0.99738 0.69357 0.0
C643 C 0.51917 0.95324 0.59174 0.0
C644 C 0.54119 0.95889 0.64498 0.0
H645 H 0.55337 0.99424 0.68696 0.0
C646 C 0.55458 0.94397 0.64769 0.0
C647 C 0.54124 0.97758 0.65889 0.0
C648 C 0.5279 0.99469 0.65607 0.0
C649 C 0.56744 0.94682 0.66455 0.0
C650 C 0.56666 0.96495 0.67914 0.0
C651 C 0.55387 0.98029 0.67587 0.0
C652 C 0.57801 0.96777 0.69858 0.0
C653 C 0.58168 0.93038 0.66663 0.0
C654 C 0.57512 0.95321 0.71253 0.0
C655 C 0.58434 0.95667 0.73166 0.0
C656 C 0.59656 0.97488 0.73735 0.0
C657 C 0.59968 0.98933 0.72323 0.0
C658 C 0.59041 0.98584 0.70405 0.0
H659 H 0.58479 0.92142 0.65154 0.0
H660 H 0.5956 0.93754 0.67368 0.0
H661 H 0.57532 0.9191 0.67655 0.0
H662 H 0.56525 0.93943 0.70888 0.0
H663 H 0.58154 0.94522 0.74213 0.0
H664 H 0.81488 0.18542 0.74864 0.0
H665 H 0.84014 0.17913 0.7732 0.0
H666 H 0.83742 0.2426 0.80296 0.0
H667 H 0.81191 0.24855 0.77885 0.0
H668 H 0.87614 0.19929 0.77893 0.0
H669 H 0.83605 0.21041 0.85161 0.0
H670 H 0.82385 0.20645 0.82701 0.0
H671 H 0.83391 0.23213 0.83748 0.0
C672 C 0.81947 0.1978 0.76072 0.0
C673 C 0.81152 0.21745 0.76195 0.0
C674 C 0.83392 0.19427 0.77466 0.0
C675 C 0.84051 0.21028 0.79018 0.0
C676 C 0.83231 0.22982 0.7915 0.0
H677 H 0.93404 0.25566 0.86629 0.0
H678 H 0.90361 0.24592 0.84759 0.0
C679 C 0.81791 0.23332 0.7776 0.0
C680 C 0.85691 0.20732 0.80407 0.0
H681 H 0.8712 0.2157 0.85431 0.0
C682 C 0.87496 0.20236 0.79544 0.0
C683 C 0.85538 0.21117 0.82563 0.0
C684 C 0.83619 0.21511 0.83597 0.0
C685 C 0.89176 0.2027 0.80769 0.0
C686 C 0.89045 0.20796 0.82914 0.0
C687 C 0.8722 0.2117 0.83785 0.0
C688 C 0.90815 0.21277 0.8423 0.0
C689 C 0.91105 0.1988 0.79753 0.0
C690 C 0.92064 0.19724 0.84609 0.0
C691 C 0.93818 0.20279 0.85705 0.0
C692 C 0.94348 0.22396 0.86411 0.0
C693 C 0.93049 0.23923 0.86093 0.0
C694 C 0.91303 0.23369 0.85027 0.0
H695 H 0.90987 0.19675 0.78057 0.0
H696 H 0.92184 0.21207 0.80247 0.0
H697 H 0.91671 0.18441 0.80227 0.0
H698 H 0.91705 0.18096 0.84021 0.0
H699 H 0.94791 0.1907 0.85922 0.0
H700 H 0.47831 0.90949 0.57996 0.0
H701 H 0.4858 0.87431 0.56376 0.0
H702 H 0.51069 0.90159 0.51246 0.0
H703 H 0.50337 0.93651 0.52881 0.0
H704 H 0.46913 0.85726 0.52732 0.0
H705 H 0.54899 0.8579 0.51978 0.0
H706 H 0.53727 0.87672 0.53765 0.0
H707 H 0.5398 0.8807 0.5112 0.0
C708 C 0.48602 0.90788 0.56559 0.0
C709 C 0.49034 0.9255 0.55555 0.0
C710 C 0.49021 0.88786 0.5563 0.0
C711 C 0.49902 0.88529 0.53697 0.0
C712 C 0.50433 0.90314 0.52756 0.0
H713 H 0.48714 0.81141 0.42669 0.0
H714 H 0.48891 0.83547 0.45836 0.0
C715 C 0.50006 0.92306 0.53679 0.0
C716 C 0.50007 0.8641 0.52517 0.0
H717 H 0.53006 0.83445 0.49381 0.0
C718 C 0.48256 0.85194 0.52051 0.0
C719 C 0.51758 0.85705 0.51631 0.0
C720 C 0.53699 0.8687 0.52168 0.0
C721 C 0.48189 0.83395 0.50594 0.0
C722 C 0.49911 0.82798 0.49581 0.0
C723 C 0.51685 0.83913 0.50159 0.0
C724 C 0.49829 0.8127 0.47697 0.0
C725 C 0.46257 0.82214 0.50045 0.0
C726 C 0.50303 0.79183 0.47698 0.0
C727 C 0.50191 0.77779 0.45874 0.0
C728 C 0.49625 0.78458 0.44028 0.0
C729 C 0.49163 0.80558 0.44053 0.0
C730 C 0.4926 0.81941 0.45864 0.0
H731 H 0.45136 0.82612 0.51218 0.0
H732 H 0.45738 0.82621 0.4856 0.0
H733 H 0.46415 0.80496 0.49863 0.0
H734 H 0.50746 0.78642 0.49105 0.0
H735 H 0.5056 0.76175 0.45906 0.0
H736 H 0.20077 0.24684 0.78133 0.0
H737 H 0.17435 0.23865 0.80471 0.0
H738 H 0.13263 0.23695 0.75555 0.0
H739 H 0.15903 0.24514 0.73232 0.0
H740 H 0.14362 0.26226 0.81555 0.0
H741 H 0.11623 0.18342 0.77947 0.0
H742 H 0.13962 0.19533 0.77336 0.0
H743 H 0.11775 0.20221 0.7616 0.0
C744 C 0.18594 0.24455 0.77561 0.0
C745 C 0.18184 0.2465 0.7551 0.0
C746 C 0.1709 0.2398 0.78888 0.0
C747 C 0.15154 0.23678 0.78179 0.0
C748 C 0.14749 0.23861 0.76123 0.0
H749 H 0.04382 0.26063 0.83573 0.0
H750 H 0.07448 0.25793 0.81768 0.0
C751 C 0.16251 0.24337 0.748 0.0
C752 C 0.13537 0.23345 0.79618 0.0
H753 H 0.09425 0.2023 0.80248 0.0
C754 C 0.13304 0.24894 0.8129 0.0
C755 C 0.12167 0.21595 0.7929 0.0
C756 C 0.12403 0.19817 0.77598 0.0
C757 C 0.11677 0.24804 0.82564 0.0
C758 C 0.10239 0.23133 0.82148 0.0
C759 C 0.10525 0.21518 0.80554 0.0
C760 C 0.08343 0.23178 0.83207 0.0
C761 C 0.11475 0.26536 0.84312 0.0
C762 C 0.07803 0.21753 0.84581 0.0
C763 C 0.06033 0.21903 0.85634 0.0
C764 C 0.04777 0.2347 0.8531 0.0
C765 C 0.0531 0.24844 0.83879 0.0
C766 C 0.07069 0.24698 0.82843 0.0
H767 H 0.12898 0.27389 0.84752 0.0
H768 H 0.10483 0.2768 0.83838 0.0
H769 H 0.10841 0.25902 0.85672 0.0
H770 H 0.08767 0.20559 0.8487 0.0
H771 H 0.05665 0.20818 0.86721 0.0
H772 H 0.5444 0.57685 0.54586 0.0
H773 H 0.54332 0.59964 0.51893 0.0
H774 H 0.53079 0.54531 0.47416 0.0
H775 H 0.53131 0.52259 0.50143 0.0
H776 H 0.561 0.60429 0.48255 0.0
H777 H 0.48296 0.57801 0.46956 0.0
H778 H 0.4968 0.57132 0.49074 0.0
H779 H 0.49942 0.55741 0.46551 0.0
C780 C 0.54195 0.56982 0.53015 0.0
C781 C 0.53782 0.54807 0.52564 0.0
C782 C 0.54126 0.58281 0.51478 0.0
C783 C 0.53642 0.57429 0.49457 0.0
C784 C 0.53404 0.55232 0.48973 0.0
H785 H 0.50479 0.63988 0.39176 0.0
H786 H 0.51398 0.61325 0.41269 0.0
C787 C 0.53465 0.53931 0.50519 0.0
C788 C 0.53238 0.58858 0.4792 0.0
H789 H 0.49607 0.6031 0.44955 0.0
C790 C 0.54684 0.60393 0.47524 0.0
C791 C 0.51383 0.58828 0.46975 0.0
C792 C 0.49728 0.57302 0.47419 0.0
C793 C 0.54325 0.61894 0.4622 0.0
C794 C 0.52465 0.61878 0.45301 0.0
C795 C 0.51033 0.60318 0.45658 0.0
C796 C 0.51949 0.63508 0.4402 0.0
C797 C 0.55941 0.63486 0.45833 0.0
C798 C 0.51925 0.6562 0.44877 0.0
C799 C 0.51387 0.67146 0.43689 0.0
C800 C 0.50862 0.66593 0.41615 0.0
C801 C 0.50879 0.64473 0.40765 0.0
C802 C 0.51405 0.62946 0.41959 0.0
H803 H 0.57392 0.62972 0.46214 0.0
H804 H 0.55936 0.63777 0.4421 0.0
H805 H 0.55723 0.64992 0.46806 0.0
H806 H 0.52302 0.66086 0.46474 0.0
H807 H 0.51387 0.6876 0.44398 0.0
H808 H 0.8414 0.7939 0.7919 0.0
H809 H 0.8691 0.78768 0.76906 0.0
H810 H 0.90333 0.83726 0.80587 0.0
H811 H 0.87529 0.84373 0.82825 0.0
H812 H 0.90163 0.84461 0.76772 0.0
H813 H 0.92107 0.76269 0.76693 0.0
H814 H 0.89548 0.76398 0.76269 0.0
H815 H 0.90629 0.77557 0.78677 0.0
C816 C 0.85515 0.80275 0.79552 0.0
C817 C 0.85642 0.81916 0.81177 0.0
C818 C 0.871 0.79923 0.78251 0.0
C819 C 0.88842 0.81191 0.78577 0.0
C820 C 0.8901 0.82723 0.80305 0.0
H821 H 0.98305 0.80177 0.69498 0.0
H822 H 0.96563 0.80242 0.72755 0.0
C823 C 0.87419 0.83085 0.8159 0.0
C824 C 0.90344 0.8116 0.76951 0.0
H825 H 0.93011 0.77917 0.73691 0.0
C826 C 0.90812 0.83034 0.76129 0.0
C827 C 0.91207 0.79308 0.76111 0.0
C828 C 0.90862 0.77276 0.76999 0.0
C829 C 0.92038 0.83086 0.74436 0.0
C830 C 0.92791 0.81207 0.73509 0.0
C831 C 0.92411 0.79352 0.74389 0.0
C832 C 0.93858 0.81125 0.71548 0.0
C833 C 0.92489 0.85151 0.73632 0.0
C834 C 0.92907 0.81574 0.69789 0.0
C835 C 0.93892 0.81541 0.67937 0.0
C836 C 0.95853 0.81049 0.67794 0.0
C837 C 0.968 0.80575 0.69556 0.0
C838 C 0.95806 0.80604 0.71416 0.0
H839 H 0.92294 0.86502 0.74829 0.0
H840 H 0.94003 0.8527 0.73058 0.0
H841 H 0.9148 0.85274 0.72346 0.0
H842 H 0.91395 0.81946 0.69849 0.0
H843 H 0.93109 0.81901 0.66614 0.0
H844 H 0.06079 0.99865 0.51364 0.0
H845 H 0.06163 0.97774 0.5422 0.0
H846 H 0.05382 0.92105 0.4994 0.0
H847 H 0.05425 0.94198 0.47104 0.0
H848 H 0.03259 0.95533 0.55337 0.0
H849 H 0.09103 0.90153 0.53724 0.0
H850 H 0.08925 0.92419 0.52402 0.0
H851 H 0.07578 0.89973 0.51499 0.0
C852 C 0.06013 0.98171 0.51041 0.0
C853 C 0.05748 0.97184 0.49026 0.0
C854 C 0.06042 0.96976 0.52669 0.0
C855 C 0.05799 0.94772 0.52305 0.0
C856 C 0.05628 0.93792 0.50273 0.0
H857 H 0.98801 0.86471 0.58318 0.0
H858 H 0.00345 0.89241 0.56593 0.0
C859 C 0.05626 0.94986 0.48651 0.0
C860 C 0.05438 0.93513 0.54026 0.0
H861 H 0.06316 0.88815 0.55609 0.0
C862 C 0.03965 0.94091 0.55423 0.0
C863 C 0.06378 0.91648 0.54188 0.0
C864 C 0.08099 0.9103 0.52884 0.0
C865 C 0.03308 0.92783 0.56858 0.0
C866 C 0.04098 0.9081 0.56859 0.0
C867 C 0.05677 0.90306 0.55581 0.0
C868 C 0.03174 0.89173 0.5801 0.0
C869 C 0.01739 0.93516 0.58328 0.0
C870 C 0.04261 0.88158 0.59347 0.0
C871 C 0.0338 0.86537 0.60328 0.0
C872 C 0.014 0.85897 0.59977 0.0
C873 C 0.00323 0.86929 0.58645 0.0
C874 C 0.01202 0.88532 0.57664 0.0
H875 H 0.01835 0.95254 0.58676 0.0
H876 H 0.00291 0.93031 0.57616 0.0
H877 H 0.01836 0.92837 0.59787 0.0
H878 H 0.0579 0.88612 0.59622 0.0
H879 H 0.04255 0.85768 0.61334 0.0
H880 H 0.15425 0.72374 0.76807 0.0
H881 H 0.13093 0.73585 0.74471 0.0
H882 H 0.17769 0.74869 0.70371 0.0
H883 H 0.20111 0.73699 0.72739 0.0
H884 H 0.13576 0.77913 0.73075 0.0
H885 H 0.13243 0.71185 0.66819 0.0
H886 H 0.13932 0.70895 0.69409 0.0
H887 H 0.15594 0.72212 0.67834 0.0
C888 C 0.15947 0.72912 0.75404 0.0
C889 C 0.17939 0.72956 0.74947 0.0
C890 C 0.1462 0.73595 0.74072 0.0
C891 C 0.15262 0.74306 0.7225 0.0
C892 C 0.17247 0.74305 0.71763 0.0
H893 H 0.084 0.78644 0.62625 0.0
H894 H 0.11076 0.77551 0.64609 0.0
C895 C 0.18578 0.73635 0.73106 0.0
C896 C 0.1386 0.75145 0.70917 0.0
H897 H 0.1132 0.73999 0.66419 0.0
C898 C 0.13086 0.77065 0.71615 0.0
C899 C 0.13246 0.7404 0.69009 0.0
C900 C 0.14033 0.71962 0.68213 0.0
C901 C 0.11693 0.77908 0.7046 0.0
C902 C 0.11019 0.76768 0.68582 0.0
C903 C 0.11832 0.74868 0.67861 0.0
C904 C 0.09416 0.77476 0.67388 0.0
C905 C 0.10974 0.80022 0.71255 0.0
C906 C 0.07591 0.77776 0.68284 0.0
C907 C 0.06067 0.78414 0.67163 0.0
C908 C 0.06327 0.78737 0.65109 0.0
C909 C 0.08152 0.78416 0.64205 0.0
C910 C 0.09682 0.77788 0.65335 0.0
H911 H 0.12051 0.80964 0.72314 0.0
H912 H 0.10663 0.8093 0.69985 0.0
H913 H 0.09612 0.79793 0.7212 0.0
H914 H 0.07334 0.77491 0.69848 0.0
H915 H 0.04676 0.78625 0.67902 0.0
H916 H 0.95926 0.5872 0.51755 0.0
H917 H 0.97299 0.62105 0.53407 0.0
H918 H 0.98058 0.64228 0.47491 0.0
H919 H 0.96514 0.60873 0.45854 0.0
H920 H 0.00466 0.64464 0.53486 0.0
H921 H 0.94672 0.68553 0.50033 0.0
H922 H 0.9468 0.65738 0.49742 0.0
H923 H 0.96265 0.67234 0.4822 0.0
C924 C 0.96386 0.59916 0.50814 0.0
C925 C 0.96065 0.59573 0.48693 0.0
C926 C 0.97189 0.61842 0.51752 0.0
C927 C 0.97729 0.63454 0.50582 0.0
C928 C 0.97587 0.63039 0.48435 0.0
H929 H 0.0201 0.75269 0.58201 0.0
H930 H 0.02043 0.72066 0.55742 0.0
C931 C 0.96733 0.61117 0.47496 0.0
C932 C 0.9827 0.65592 0.51655 0.0
H933 H 0.96769 0.70578 0.52396 0.0
C934 C 0.99669 0.65808 0.53238 0.0
C935 C 0.97221 0.67345 0.51341 0.0
C936 C 0.95615 0.67211 0.49756 0.0
C937 C 0.9996 0.67678 0.54592 0.0
C938 C 0.98886 0.69417 0.54295 0.0
C939 C 0.97584 0.69242 0.5263 0.0
C940 C 0.98923 0.7136 0.55791 0.0
C941 C 0.01321 0.67718 0.56395 0.0
C942 C 0.97161 0.72068 0.566 0.0
C943 C 0.97135 0.73923 0.57947 0.0
C944 C 0.98877 0.75094 0.58551 0.0
C945 C 0.00649 0.74376 0.57778 0.0
C946 C 0.0067 0.72541 0.56382 0.0
H947 H 0.01629 0.66111 0.56689 0.0
H948 H 0.02726 0.6855 0.56075 0.0
H949 H 0.00705 0.6855 0.57807 0.0
H950 H 0.95793 0.71186 0.5618 0.0
H951 H 0.95749 0.74436 0.58524 0.0
H952 H 0.7531 0.77949 0.23157 0.0
H953 H 0.77538 0.81115 0.23328 0.0
H954 H 0.72951 0.84472 0.21055 0.0
H955 H 0.7072 0.81323 0.2096 0.0
H956 H 0.78942 0.83985 0.20773 0.0
H957 H 0.74051 0.87661 0.26698 0.0
H958 H 0.73785 0.84911 0.25721 0.0
H959 H 0.72881 0.86828 0.24268 0.0
C960 C 0.74807 0.79354 0.22647 0.0
C961 C 0.72856 0.7942 0.22062 0.0
C962 C 0.76071 0.81158 0.22746 0.0
C963 C 0.75398 0.83045 0.22249 0.0
C964 C 0.7349 0.83049 0.2149 0.0
H965 H 0.82631 0.94997 0.23046 0.0
H966 H 0.80798 0.91719 0.21646 0.0
C967 C 0.72222 0.81255 0.21421 0.0
C968 C 0.76611 0.85042 0.22739 0.0
H969 H 0.76736 0.89768 0.25773 0.0
C970 C 0.7846 0.85257 0.21858 0.0
C971 C 0.75992 0.86687 0.24182 0.0
C972 C 0.74078 0.8651 0.25289 0.0
C973 C 0.79709 0.87068 0.22392 0.0
C974 C 0.79076 0.88717 0.23819 0.0
C975 C 0.77217 0.88509 0.24671 0.0
C976 C 0.80349 0.90612 0.24586 0.0
C977 C 0.81717 0.87168 0.21482 0.0
C978 C 0.80706 0.91083 0.26697 0.0
C979 C 0.81716 0.92956 0.27496 0.0
C980 C 0.8241 0.94408 0.26204 0.0
C981 C 0.82122 0.93906 0.24079 0.0
C982 C 0.81083 0.92028 0.23277 0.0
H983 H 0.82136 0.85599 0.20784 0.0
H984 H 0.81745 0.88211 0.20268 0.0
H985 H 0.8282 0.87825 0.22663 0.0
H986 H 0.80162 0.90015 0.27738 0.0
H987 H 0.81928 0.93281 0.29139 0.0
H988 H 0.70767 0.17947 0.30574 0.0
H989 H 0.73099 0.15274 0.30892 0.0
H990 H 0.76638 0.17672 0.26208 0.0
H991 H 0.74334 0.20374 0.25944 0.0
H992 H 0.73874 0.12241 0.27742 0.0
H993 H 0.8074 0.1678 0.30371 0.0
H994 H 0.78407 0.17915 0.30549 0.0
H995 H 0.79675 0.1762 0.28155 0.0
C996 C 0.72077 0.17937 0.29666 0.0
C997 C 0.72381 0.19354 0.28236 0.0
C998 C 0.73399 0.16405 0.29834 0.0
C999 C 0.75053 0.16278 0.28583 0.0
C1000 C 0.75397 0.17759 0.27217 0.0
H1001 H 0.83379 0.06536 0.25913 0.0
H1002 H 0.8151 0.09652 0.2583 0.0
C1003 C 0.74077 0.1929 0.27054 0.0
C1004 C 0.76301 0.14477 0.28557 0.0
H1005 H 0.80979 0.13154 0.29157 0.0
C1006 C 0.75425 0.12443 0.28065 0.0
C1007 C 0.78331 0.14741 0.28952 0.0
C1008 C 0.79344 0.1688 0.29554 0.0
C1009 C 0.76519 0.10669 0.27951 0.0
C1010 C 0.78543 0.1093 0.28363 0.0
C1011 C 0.79429 0.12961 0.28832 0.0
C1012 C 0.79728 0.09097 0.28431 0.0
C1013 C 0.75503 0.08526 0.27372 0.0
C1014 C 0.79363 0.07779 0.29937 0.0
C1015 C 0.80419 0.06012 0.2999 0.0
C1016 C 0.81875 0.05518 0.28538 0.0
C1017 C 0.82263 0.06863 0.27046 0.0
C1018 C 0.81202 0.08645 0.26999 0.0
H1019 H 0.74077 0.08618 0.2661 0.0
H1020 H 0.76419 0.07506 0.26335 0.0
H1021 H 0.75236 0.07772 0.28775 0.0
H1022 H 0.7825 0.08115 0.31072 0.0
H1023 H 0.80083 0.05025 0.3117 0.0
H1024 H 0.37806 0.062 0.95397 0.0
H1025 H 0.35055 0.0393 0.96418 0.0
H1026 H 0.39103 0.99821 0.98522 0.0
H1027 H 0.41834 0.02105 0.97538 0.0
H1028 H 0.34102 0.99538 0.95207 0.0
H1029 H 0.35623 0.01354 0.03524 0.0
H1030 H 0.36647 0.02951 0.0168 0.0
H1031 H 0.37717 0.00559 0.02075 0.0
C1032 C 0.38092 0.04805 0.96072 0.0
C1033 C 0.40017 0.04314 0.96392 0.0
C1034 C 0.3653 0.03515 0.96652 0.0
C1035 C 0.36879 0.0173 0.97576 0.0
C1036 C 0.38804 0.01212 0.97844 0.0
H1037 H 0.32005 0.90784 0.01439 0.0
H1038 H 0.33822 0.93902 0.00561 0.0
C1039 C 0.4036 0.02498 0.97263 0.0
C1040 C 0.35246 0.00388 0.98264 0.0
H1041 H 0.33567 0.98248 0.02451 0.0
C1042 C 0.33954 0.99283 0.96796 0.0
C1043 C 0.35048 1.00079 0.00341 0.0
C1044 C 0.3632 0.01315 0.02 0.0
C1045 C 0.32556 0.97764 0.97333 0.0
C1046 C 0.32444 0.97365 0.99391 0.0
C1047 C 0.33661 0.98557 0.00874 0.0
C1048 C 0.31274 0.95535 0.99985 0.0
C1049 C 0.31291 0.96505 0.95684 0.0
C1050 C 0.29229 0.95434 0.99981 0.0
C1051 C 0.28173 0.93641 0.00494 0.0
C1052 C 0.29152 0.91927 0.01005 0.0
C1053 C 0.312 0.92066 0.01041 0.0
C1054 C 0.32246 0.9385 0.00543 0.0
H1055 H 0.31682 0.9688 0.94132 0.0
H1056 H 0.31417 0.94801 0.95723 0.0
H1057 H 0.29745 0.96837 0.95966 0.0
H1058 H 0.28456 0.96733 0.99573 0.0
H1059 H 0.26597 0.93583 0.00455 0.0
H1060 H 0.2936 0.34402 0.2904 0.0
H1061 H 0.26821 0.36789 0.28528 0.0
H1062 H 0.27369 0.39453 0.34879 0.0
H1063 H 0.2999 0.37139 0.35341 0.0
H1064 H 0.23416 0.36929 0.30161 0.0
H1065 H 0.27289 0.44703 0.32287 0.0
H1066 H 0.28546 0.42316 0.31879 0.0
H1067 H 0.27409 0.43089 0.34296 0.0
C1068 C 0.28954 0.35531 0.30307 0.0
C1069 C 0.2986 0.3561 0.32223 0.0
C1070 C 0.27505 0.36886 0.30021 0.0
C1071 C 0.26921 0.38328 0.31656 0.0
C1072 C 0.27829 0.38401 0.33578 0.0
H1073 H 0.15501 0.43114 0.32356 0.0
H1074 H 0.18463 0.41327 0.32776 0.0
C1075 C 0.29304 0.37067 0.33852 0.0
C1076 C 0.25264 0.39634 0.3138 0.0
H1077 H 0.238 0.44641 0.32145 0.0
C1078 C 0.2351 0.38618 0.30578 0.0
C1079 C 0.25389 0.41844 0.31893 0.0
C1080 C 0.27267 0.43054 0.32615 0.0
C1081 C 0.2187 0.39737 0.30316 0.0
C1082 C 0.21958 0.41927 0.30946 0.0
C1083 C 0.23724 0.42957 0.31696 0.0
C1084 C 0.20222 0.43161 0.30848 0.0
C1085 C 0.20069 0.38557 0.29336 0.0
C1086 C 0.20257 0.44871 0.29723 0.0
C1087 C 0.18569 0.4593 0.29515 0.0
C1088 C 0.16821 0.45281 0.30417 0.0
C1089 C 0.16818 0.43628 0.31614 0.0
C1090 C 0.18507 0.42596 0.31846 0.0
H1091 H 0.20431 0.3709 0.28368 0.0
H1092 H 0.1907 0.3811 0.3055 0.0
H1093 H 0.1929 0.39531 0.28372 0.0
H1094 H 0.21572 0.45346 0.28957 0.0
H1095 H 0.18616 0.47202 0.28588 0.0
H1096 H 0.07612 0.02965 0.49775 0.0
H1097 H 0.10943 0.04541 0.50422 0.0
H1098 H 0.13074 0.99939 0.45747 0.0
H1099 H 0.09746 0.9834 0.45161 0.0
H1100 H 0.15613 0.00871 0.49059 0.0
H1101 H 0.13309 0.08144 0.46317 0.0
H1102 H 0.11998 0.07399 0.48491 0.0
H1103 H 0.11773 0.05746 0.46073 0.0
C1104 C 0.08812 0.02257 0.48947 0.0
C1105 C 0.08454 0.00523 0.47446 0.0
C1106 C 0.10703 0.0317 0.49291 0.0
C1107 C 0.12251 0.02384 0.48102 0.0
C1108 C 0.11902 0.00574 0.4668 0.0
H1109 H 0.23915 0.05938 0.44856 0.0
H1110 H 0.20685 0.04276 0.45313 0.0
C1111 C 0.10013 0.99655 0.46351 0.0
C1112 C 0.14201 0.03524 0.48219 0.0
H1113 H 0.16591 0.08133 0.47327 0.0
C1114 C 0.15826 0.02463 0.48693 0.0
C1115 C 0.14477 0.056 0.4773 0.0
C1116 C 0.12803 0.06787 0.47106 0.0
C1117 C 0.17719 0.03417 0.48678 0.0
C1118 C 0.17994 0.05476 0.48156 0.0
C1119 C 0.1637 0.06557 0.47733 0.0
C1120 C 0.19961 0.06486 0.47916 0.0
C1121 C 0.19415 0.02213 0.49209 0.0
C1122 C 0.20608 0.08312 0.492 0.0
C1123 C 0.2246 0.09272 0.48944 0.0
C1124 C 0.23687 0.08437 0.4738 0.0
C1125 C 0.23014 0.06625 0.46077 0.0
C1126 C 0.21172 0.05662 0.46344 0.0
H1127 H 0.18942 0.0089 0.5006 0.0
H1128 H 0.20123 0.01554 0.47778 0.0
H1129 H 0.20516 0.03258 0.50146 0.0
H1130 H 0.19685 0.08982 0.5041 0.0
H1131 H 0.2293 0.10666 0.49972 0.0
H1132 H 0.77316 0.20768 0.78127 0.0
H1133 H 0.75546 0.17805 0.79481 0.0
H1134 H 0.75299 0.14338 0.73414 0.0
H1135 H 0.77114 0.17263 0.72095 0.0
H1136 H 0.71883 0.16338 0.78388 0.0
H1137 H 0.76752 0.09854 0.76721 0.0
H1138 H 0.7758 0.12562 0.76655 0.0
H1139 H 0.76319 0.11077 0.74486 0.0
C1140 C 0.76929 0.19342 0.77108 0.0
C1141 C 0.77342 0.19226 0.75014 0.0
C1142 C 0.75911 0.1766 0.77873 0.0
C1143 C 0.75306 0.15836 0.76554 0.0
C1144 C 0.75786 0.15702 0.74473 0.0
H1145 H 0.66863 0.05381 0.7618 0.0
H1146 H 0.69232 0.08215 0.75519 0.0
C1147 C 0.76806 0.17375 0.73715 0.0
C1148 C 0.7401 0.1416 0.7729 0.0
H1149 H 0.73366 0.08845 0.77216 0.0
C1150 C 0.72223 0.14704 0.78165 0.0
C1151 C 0.7445 0.12025 0.76995 0.0
C1152 C 0.76389 0.11348 0.76182 0.0
C1153 C 0.70833 0.13164 0.78671 0.0
C1154 C 0.71245 0.1103 0.783 0.0
C1155 C 0.73049 0.10486 0.77479 0.0
C1156 C 0.698 0.09334 0.78715 0.0
C1157 C 0.68904 0.13819 0.79532 0.0
C1158 C 0.69341 0.09028 0.80731 0.0
C1159 C 0.67995 0.07407 0.81115 0.0
C1160 C 0.67078 0.06066 0.79487 0.0
C1161 C 0.67535 0.0639 0.77468 0.0
C1162 C 0.68892 0.08002 0.77087 0.0
H1163 H 0.68702 0.15504 0.79454 0.0
H1164 H 0.67687 0.1286 0.7869 0.0
H1165 H 0.68818 0.13546 0.81158 0.0
H1166 H 0.70038 0.10032 0.82008 0.0
H1167 H 0.6768 0.072 0.82688 0.0
H1168 H 0.46374 0.99291 0.53162 0.0
H1169 H 0.43946 0.01657 0.52265 0.0
H1170 H 0.40805 0.00779 0.57783 0.0
H1171 H 0.4322 0.98379 0.58652 0.0
H1172 H 0.38461 0.00246 0.54314 0.0
H1173 H 0.4305 0.07686 0.54746 0.0
H1174 H 0.44066 0.05546 0.53169 0.0
H1175 H 0.43782 0.05441 0.55867 0.0
C1176 C 0.45166 0.99616 0.54178 0.0
C1177 C 0.44973 0.98667 0.55972 0.0
C1178 C 0.43794 0.0098 0.53681 0.0
C1179 C 0.42214 0.01422 0.54976 0.0
C1180 C 0.42024 0.00475 0.56774 0.0
H1181 H 0.33634 0.1044 0.52634 0.0
H1182 H 0.36052 0.08629 0.5437 0.0
C1183 C 0.43399 0.99114 0.57272 0.0
C1184 C 0.40693 0.02758 0.5438 0.0
H1185 H 0.3999 0.07575 0.52973 0.0
C1186 C 0.38789 0.01857 0.54047 0.0
C1187 C 0.41118 0.04868 0.54058 0.0
C1188 C 0.43111 0.05952 0.54498 0.0
C1189 C 0.37322 0.02978 0.53307 0.0
C1190 C 0.37777 0.05044 0.52869 0.0
C1191 C 0.39653 0.05983 0.53294 0.0
C1192 C 0.36356 0.06186 0.51831 0.0
C1193 C 0.35302 0.01932 0.52965 0.0
C1194 C 0.35764 0.05432 0.49822 0.0
C1195 C 0.344 0.0646 0.48828 0.0
C1196 C 0.33596 0.0827 0.49821 0.0
C1197 C 0.3422 0.09048 0.51828 0.0
C1198 C 0.35599 0.08018 0.52821 0.0
H1199 H 0.35062 0.00594 0.53862 0.0
H1200 H 0.34178 0.03068 0.53387 0.0
H1201 H 0.35105 0.01318 0.5132 0.0
H1202 H 0.36355 0.04039 0.49022 0.0
H1203 H 0.33963 0.05818 0.47282 0.0
H1204 H 0.5775 0.53475 0.54738 0.0
H1205 H 0.60667 0.51528 0.53877 0.0
H1206 H 0.56999 0.46062 0.51516 0.0
H1207 H 0.54105 0.48016 0.52374 0.0
H1208 H 0.61386 0.47925 0.55649 0.0
H1209 H 0.61266 0.46108 0.47201 0.0
H1210 H 0.59921 0.48171 0.48546 0.0
H1211 H 0.5898 0.45482 0.4836 0.0
C1212 C 0.57583 0.51885 0.5396 0.0
C1213 C 0.55717 0.50895 0.53593 0.0
C1214 C 0.59242 0.50767 0.53487 0.0
C1215 C 0.59058 0.48649 0.52616 0.0
C1216 C 0.57187 0.47701 0.52148 0.0
H1217 H 0.66012 0.37911 0.50511 0.0
H1218 H 0.63503 0.40447 0.50764 0.0
C1219 C 0.55535 0.48814 0.52633 0.0
C1220 C 0.60784 0.47357 0.52413 0.0
H1221 H 0.63253 0.44044 0.49017 0.0
C1222 C 0.61814 0.471 0.54194 0.0
C1223 C 0.61331 0.46263 0.5052 0.0
C1224 C 0.60329 0.46531 0.48544 0.0
C1225 C 0.63324 0.45723 0.54148 0.0
C1226 C 0.63854 0.44602 0.52257 0.0
C1227 C 0.62849 0.44894 0.50468 0.0
C1228 C 0.65404 0.43073 0.5211 0.0
C1229 C 0.64279 0.45416 0.56139 0.0
C1230 C 0.67321 0.43699 0.52768 0.0
C1231 C 0.6876 0.42244 0.52641 0.0
C1232 C 0.68321 0.40133 0.5183 0.0
C1233 C 0.66405 0.39518 0.5115 0.0
C1234 C 0.64967 0.40971 0.51288 0.0
H1235 H 0.6337 0.45942 0.57478 0.0
H1236 H 0.64561 0.43744 0.56173 0.0
H1237 H 0.65692 0.46355 0.56308 0.0
H1238 H 0.67711 0.45319 0.53365 0.0
H1239 H 0.70222 0.42781 0.5316 0.0
H1240 H 0.67596 0.21658 0.32362 0.0
H1241 H 0.68174 0.23347 0.35884 0.0
H1242 H 0.74036 0.25276 0.34298 0.0
H1243 H 0.73426 0.23627 0.30752 0.0
H1244 H 0.7079 0.23067 0.38973 0.0
H1245 H 0.71674 0.30846 0.36211 0.0
H1246 H 0.70785 0.28504 0.34587 0.0
H1247 H 0.7335 0.29011 0.35097 0.0
C1248 C 0.69016 0.22411 0.32786 0.0
C1249 C 0.70462 0.2254 0.313 0.0
C1250 C 0.69346 0.23376 0.34791 0.0
C1251 C 0.7113 0.24485 0.3534 0.0
C1252 C 0.72632 0.24471 0.33893 0.0
H1253 H 0.75509 0.2965 0.47223 0.0
H1254 H 0.74552 0.27456 0.44056 0.0
C1255 C 0.72297 0.23509 0.31881 0.0
C1256 C 0.71367 0.25754 0.37384 0.0
H1257 H 0.72309 0.30765 0.39737 0.0
C1258 C 0.71119 0.2475 0.39142 0.0
C1259 C 0.71739 0.2796 0.37603 0.0
C1260 C 0.71883 0.29151 0.35777 0.0
C1261 C 0.71296 0.25884 0.41112 0.0
C1262 C 0.71768 0.28075 0.41329 0.0
C1263 C 0.71957 0.29086 0.39571 0.0
C1264 C 0.72204 0.29327 0.43353 0.0
C1265 C 0.7096 0.24724 0.4294 0.0
C1266 C 0.71214 0.31132 0.44015 0.0
C1267 C 0.71771 0.32415 0.45835 0.0
C1268 C 0.73343 0.31922 0.47009 0.0
C1269 C 0.74291 0.30082 0.46362 0.0
C1270 C 0.73735 0.28809 0.44554 0.0
H1271 H 0.69999 0.23274 0.42542 0.0
H1272 H 0.72376 0.24254 0.43474 0.0
H1273 H 0.70298 0.25724 0.44221 0.0
H1274 H 0.70035 0.31569 0.43102 0.0
H1275 H 0.71017 0.33824 0.46284 0.0
H1276 H 0.47397 0.04312 0.9537 0.0
H1277 H 0.50443 0.04153 0.93468 0.0
H1278 H 0.4907 0.09606 0.90711 0.0
H1279 H 0.45971 0.09704 0.9257 0.0
H1280 H 0.50032 0.06496 0.87887 0.0
H1281 H 0.55603 0.07433 0.94007 0.0
H1282 H 0.53798 0.05402 0.94415 0.0
H1283 H 0.53115 0.08066 0.94494 0.0
C1284 C 0.4776 0.05483 0.94369 0.0
C1285 C 0.46453 0.07004 0.94091 0.0
C1286 C 0.49512 0.05413 0.93306 0.0
C1287 C 0.50006 0.06888 0.91967 0.0
C1288 C 0.48728 0.08462 0.91746 0.0
H1289 H 0.59432 0.05089 0.82839 0.0
H1290 H 0.57192 0.06999 0.85192 0.0
C1291 C 0.46967 0.08524 0.92809 0.0
C1292 C 0.51744 0.06626 0.90644 0.0
H1293 H 0.56525 0.05514 0.90749 0.0
C1294 C 0.51465 0.06339 0.88512 0.0
C1295 C 0.53618 0.0643 0.91455 0.0
C1296 C 0.54055 0.06873 0.93719 0.0
C1297 C 0.52971 0.05708 0.8718 0.0
C1298 C 0.54799 0.05364 0.88004 0.0
C1299 C 0.55115 0.0577 0.90125 0.0
C1300 C 0.563 0.04317 0.8671 0.0
C1301 C 0.52565 0.05281 0.84909 0.0
C1302 C 0.56564 0.02197 0.86821 0.0
C1303 C 0.57821 0.01105 0.8548 0.0
C1304 C 0.58857 0.02115 0.84008 0.0
C1305 C 0.58655 0.04267 0.83956 0.0
C1306 C 0.57375 0.05359 0.85293 0.0
H1307 H 0.51028 0.05509 0.84524 0.0
H1308 H 0.53527 0.06351 0.84105 0.0
H1309 H 0.52891 0.03648 0.84321 0.0
H1310 H 0.55746 0.01368 0.87906 0.0
H1311 H 0.57952 0.99453 0.85574 0.0
H1312 H 0.35633 0.30131 0.35256 0.0
H1313 H 0.35759 0.2699 0.37003 0.0
H1314 H 0.30046 0.24816 0.34595 0.0
H1315 H 0.29993 0.27866 0.3276 0.0
H1316 H 0.33578 0.26002 0.39962 0.0
H1317 H 0.32549 0.19454 0.33724 0.0
H1318 H 0.33108 0.22114 0.33228 0.0
H1319 H 0.30626 0.21179 0.33628 0.0
C1320 C 0.34441 0.28939 0.35056 0.0
C1321 C 0.32795 0.29238 0.33901 0.0
C1322 C 0.34502 0.27157 0.36063 0.0
C1323 C 0.32917 0.25648 0.35924 0.0
C1324 C 0.31309 0.25918 0.34694 0.0
H1325 H 0.29055 0.18127 0.45297 0.0
H1326 H 0.29861 0.20921 0.43193 0.0
C1327 C 0.31264 0.27675 0.33667 0.0
C1328 C 0.32847 0.23904 0.37207 0.0
H1329 H 0.31547 0.18686 0.37088 0.0
C1330 C 0.33168 0.24394 0.39327 0.0
C1331 C 0.32345 0.21795 0.36387 0.0
C1332 C 0.32161 0.21105 0.34114 0.0
C1333 C 0.32923 0.22858 0.40652 0.0
C1334 C 0.32259 0.20785 0.3985 0.0
C1335 C 0.32018 0.20279 0.3772 0.0
C1336 C 0.31798 0.19114 0.41176 0.0
C1337 C 0.33401 0.23479 0.42892 0.0
C1338 C 0.32554 0.17137 0.4071 0.0
C1339 C 0.32041 0.15521 0.41869 0.0
C1340 C 0.30784 0.15852 0.43543 0.0
C1341 C 0.30045 0.17835 0.44031 0.0
C1342 C 0.30522 0.1944 0.42838 0.0
H1343 H 0.34511 0.24822 0.43121 0.0
H1344 H 0.32069 0.23983 0.43711 0.0
H1345 H 0.33956 0.22156 0.43595 0.0
H1346 H 0.33537 0.16837 0.39438 0.0
H1347 H 0.32642 0.14011 0.41461 0.0
H1348 H 0.52172 0.525 0.93871 0.0
H1349 H 0.49651 0.5272 0.91279 0.0
H1350 H 0.49502 0.46001 0.89641 0.0
H1351 H 0.52094 0.45814 0.92166 0.0
H1352 H 0.4928 0.47922 0.86301 0.0
H1353 H 0.4399 0.51163 0.92007 0.0
H1354 H 0.46216 0.52773 0.92016 0.0
H1355 H 0.46242 0.50175 0.92739 0.0
C1356 C 0.51603 0.51082 0.92938 0.0
C1357 C 0.52298 0.4914 0.93212 0.0
C1358 C 0.50156 0.51201 0.91476 0.0
C1359 C 0.49352 0.4937 0.90297 0.0
C1360 C 0.50089 0.47433 0.90539 0.0
H1361 H 0.3811 0.47931 0.84396 0.0
H1362 H 0.40975 0.47867 0.86551 0.0
C1363 C 0.51556 0.47321 0.91981 0.0
C1364 C 0.47722 0.49461 0.88838 0.0
H1365 H 0.43098 0.51016 0.88521 0.0
C1366 C 0.47925 0.48596 0.86785 0.0
C1367 C 0.45945 0.50315 0.89476 0.0
C1368 C 0.45573 0.51139 0.91683 0.0
C1369 C 0.46402 0.48556 0.85356 0.0
C1370 C 0.44644 0.49461 0.85984 0.0
C1371 C 0.44449 0.50337 0.88034 0.0
C1372 C 0.42943 0.49423 0.84585 0.0
C1373 C 0.46669 0.47482 0.83209 0.0
C1374 C 0.43089 0.50311 0.82747 0.0
C1375 C 0.41449 0.50321 0.81488 0.0
C1376 C 0.39626 0.49484 0.82068 0.0
C1377 C 0.39488 0.486 0.83908 0.0
C1378 C 0.41128 0.48562 0.85145 0.0
H1379 H 0.4785 0.4638 0.83137 0.0
H1380 H 0.45306 0.46598 0.82607 0.0
H1381 H 0.47072 0.48682 0.82192 0.0
H1382 H 0.44461 0.51033 0.82305 0.0
H1383 H 0.41598 0.51029 0.80089 0.0
H1384 H 0.71749 0.77272 0.17914 0.0
H1385 H 0.73251 0.75576 0.14794 0.0
H1386 H 0.75181 0.70771 0.18161 0.0
H1387 H 0.73689 0.72475 0.21274 0.0
H1388 H 0.77202 0.74178 0.13829 0.0
H1389 H 0.71456 0.67672 0.13564 0.0
H1390 H 0.71258 0.70167 0.15126 0.0
H1391 H 0.72779 0.68264 0.15943 0.0
C1392 C 0.7254 0.75885 0.17989 0.0
C1393 C 0.72596 0.74985 0.19814 0.0
C1394 C 0.73387 0.74914 0.16212 0.0
C1395 C 0.74297 0.7303 0.16242 0.0
C1396 C 0.7446 0.72207 0.181 0.0
H1397 H 0.78288 0.63402 0.07136 0.0
H1398 H 0.77475 0.65625 0.10268 0.0
C1399 C 0.73615 0.73177 0.19872 0.0
C1400 C 0.74938 0.71834 0.14311 0.0
H1401 H 0.73969 0.67256 0.11139 0.0
C1402 C 0.76497 0.72667 0.13233 0.0
C1403 C 0.74005 0.6987 0.13537 0.0
C1404 C 0.7227 0.68941 0.14588 0.0
C1405 C 0.77182 0.71554 0.11423 0.0
C1406 C 0.76256 0.69579 0.10658 0.0
C1407 C 0.74684 0.68764 0.11731 0.0
C1408 C 0.7689 0.68309 0.08758 0.0
C1409 C 0.78919 0.72476 0.10377 0.0
C1410 C 0.76836 0.69077 0.06861 0.0
C1411 C 0.77308 0.67809 0.05062 0.0
C1412 C 0.77823 0.65739 0.05124 0.0
C1413 C 0.77895 0.64986 0.07029 0.0
C1414 C 0.77431 0.66255 0.08824 0.0
H1415 H 0.79765 0.73698 0.11426 0.0
H1416 H 0.79901 0.71241 0.09783 0.0
H1417 H 0.78411 0.7322 0.09064 0.0
H1418 H 0.76381 0.70639 0.06764 0.0
H1419 H 0.77227 0.68435 0.03619 0.0
H1420 H 0.99637 0.9872 0.07625 0.0
H1421 H 0.97317 0.98282 0.10397 0.0
H1422 H 0.98405 0.04811 0.12783 0.0
H1423 H 0.00761 0.05233 0.10043 0.0
H1424 H 0.98179 0.9935 0.14899 0.0
H1425 H 0.92285 0.0376 0.12043 0.0
H1426 H 0.94146 0.02645 0.10388 0.0
H1427 H 0.94713 0.0499 0.12126 0.0
C1428 C 0.99385 1.00053 0.08752 0.0
C1429 C 0.0037 0.0201 0.08625 0.0
C1430 C 0.98058 0.99806 0.10325 0.0
C1431 C 0.97676 0.01519 0.1178 0.0
C1432 C 0.9866 0.03476 0.11658 0.0
H1433 H 0.89765 0.03132 0.22114 0.0
H1434 H 0.92049 0.03651 0.19348 0.0
C1435 C 0.99999 0.03718 0.10095 0.0
C1436 C 0.9628 0.01249 0.13455 0.0
H1437 H 0.91811 0.02564 0.15253 0.0
C1438 C 0.96783 1.00046 0.14978 0.0
C1439 C 0.94472 0.02177 0.13559 0.0
C1440 C 0.93854 0.03457 0.11939 0.0
C1441 C 0.95535 0.99763 0.1662 0.0
C1442 C 0.93704 0.00657 0.16707 0.0
C1443 C 0.93208 0.01873 0.15185 0.0
C1444 C 0.92281 0.00339 0.18358 0.0
C1445 C 0.96216 0.98554 0.1827 0.0
C1446 C 0.91614 0.98307 0.18697 0.0
C1447 C 0.90323 0.98006 0.20287 0.0
C1448 C 0.89644 0.99732 0.21554 0.0
C1449 C 0.90262 0.01768 0.2117 0.0
C1450 C 0.91568 0.02067 0.19589 0.0
H1451 H 0.97829 0.98545 0.18314 0.0
H1452 H 0.9571 0.99225 0.19802 0.0
H1453 H 0.95619 0.96901 0.17953 0.0
H1454 H 0.92093 0.96949 0.17733 0.0
H1455 H 0.89861 0.96417 0.20523 0.0
H1456 H 0.2711 0.72143 0.18157 0.0
H1457 H 0.26447 0.74448 0.15592 0.0
H1458 H 0.27325 0.79848 0.20183 0.0
H1459 H 0.27924 0.77524 0.22768 0.0
H1460 H 0.24087 0.80062 0.17617 0.0
H1461 H 0.30655 0.78051 0.13102 0.0
H1462 H 0.29082 0.75808 0.13494 0.0
H1463 H 0.30286 0.77371 0.15649 0.0
C1464 C 0.27145 0.73821 0.18615 0.0
C1465 C 0.27574 0.74662 0.20652 0.0
C1466 C 0.26781 0.75137 0.1715 0.0
C1467 C 0.26861 0.77324 0.17688 0.0
C1468 C 0.27261 0.78167 0.19732 0.0
H1469 H 0.2852 0.85966 0.0883 0.0
H1470 H 0.28601 0.84209 0.11887 0.0
C1471 C 0.27619 0.76846 0.21201 0.0
C1472 C 0.26574 0.78726 0.16104 0.0
H1473 H 0.28404 0.80035 0.11597 0.0
C1474 C 0.25034 0.80066 0.16303 0.0
C1475 C 0.27822 0.78746 0.14402 0.0
C1476 C 0.29565 0.77433 0.14153 0.0
C1477 C 0.24696 0.81406 0.14829 0.0
C1478 C 0.25915 0.81382 0.131 0.0
C1479 C 0.27461 0.8005 0.12916 0.0
C1480 C 0.2568 0.82756 0.11476 0.0
C1481 C 0.23064 0.82861 0.15156 0.0
C1482 C 0.23976 0.82603 0.10267 0.0
C1483 C 0.23915 0.83648 0.08526 0.0
C1484 C 0.25569 0.84825 0.07957 0.0
C1485 C 0.27224 0.85068 0.09235 0.0
C1486 C 0.27275 0.84057 0.10978 0.0
H1487 H 0.22603 0.83086 0.1678 0.0
H1488 H 0.235 0.84417 0.14687 0.0
H1489 H 0.21789 0.82177 0.14209 0.0
H1490 H 0.22737 0.81581 0.10596 0.0
H1491 H 0.22633 0.8341 0.07549 0.0
H1492 H 0.97317 0.45774 0.1179 0.0
H1493 H 0.99715 0.45763 0.14522 0.0
H1494 H 0.04237 0.44879 0.10017 0.0
H1495 H 0.01842 0.45061 0.0729 0.0
H1496 H 0.02051 0.43173 0.15636 0.0
H1497 H 0.06551 0.49974 0.13443 0.0
H1498 H 0.04224 0.49119 0.12263 0.0
H1499 H 0.06363 0.47773 0.1147 0.0
C1500 C 0.98826 0.45587 0.11391 0.0
C1501 C 0.99409 0.45468 0.09344 0.0
C1502 C 0.00195 0.45565 0.12948 0.0
C1503 C 0.02174 0.45385 0.12486 0.0
C1504 C 0.02734 0.45097 0.10421 0.0
H1505 H 0.09842 0.43699 0.22702 0.0
H1506 H 0.0808 0.43148 0.19434 0.0
C1507 C 0.01364 0.45162 0.08862 0.0
C1508 C 0.03628 0.4556 0.14182 0.0
H1509 H 0.07713 0.48388 0.16198 0.0
C1510 C 0.03292 0.44311 0.15755 0.0
C1511 C 0.05233 0.47071 0.14358 0.0
C1512 C 0.05607 0.48575 0.12806 0.0
C1513 C 0.04478 0.44556 0.17514 0.0
C1514 C 0.06114 0.46025 0.17666 0.0
C1515 C 0.06474 0.47248 0.16075 0.0
C1516 C 0.07403 0.46393 0.1951 0.0
C1517 C 0.03897 0.43306 0.1923 0.0
C1518 C 0.07742 0.48427 0.20569 0.0
C1519 C 0.08813 0.48757 0.22402 0.0
C1520 C 0.09534 0.47052 0.23223 0.0
C1521 C 0.09274 0.45036 0.22116 0.0
C1522 C 0.08251 0.44717 0.20259 0.0
H1523 H 0.02329 0.42769 0.19135 0.0
H1524 H 0.04745 0.4189 0.19121 0.0
H1525 H 0.04184 0.44242 0.20749 0.0
H1526 H 0.0712 0.49752 0.20016 0.0
H1527 H 0.08992 0.50326 0.23227 0.0
H1528 H 0.30733 0.74357 0.2785 0.0
H1529 H 0.33308 0.73715 0.3022 0.0
H1530 H 0.33592 0.67428 0.27095 0.0
H1531 H 0.31047 0.68104 0.24684 0.0
H1532 H 0.3359 0.70725 0.32898 0.0
H1533 H 0.39214 0.69847 0.26834 0.0
H1534 H 0.36896 0.70881 0.26413 0.0
H1535 H 0.37058 0.68113 0.26431 0.0
C1536 C 0.31349 0.72841 0.27676 0.0
C1537 C 0.30714 0.71288 0.26079 0.0
C1538 C 0.3281 0.72469 0.29033 0.0
C1539 C 0.33669 0.70534 0.28818 0.0
C1540 C 0.32979 0.68946 0.27269 0.0
H1541 H 0.44542 0.68831 0.35478 0.0
H1542 H 0.41463 0.67767 0.33591 0.0
C1543 C 0.31515 0.69323 0.25907 0.0
C1544 C 0.35326 0.70237 0.30182 0.0
H1545 H 0.40248 0.69781 0.30213 0.0
C1546 C 0.35041 0.70487 0.32308 0.0
C1547 C 0.3722 0.69912 0.29416 0.0
C1548 C 0.37631 0.69687 0.27151 0.0
C1549 C 0.36605 0.7051 0.33685 0.0
C1550 C 0.38512 0.70304 0.3292 0.0
C1551 C 0.38784 0.6993 0.30797 0.0
C1552 C 0.40259 0.70799 0.34271 0.0
C1553 C 0.36211 0.70816 0.3595 0.0
C1554 C 0.40594 0.72841 0.35291 0.0
C1555 C 0.4234 0.73447 0.36341 0.0
C1556 C 0.43797 0.72027 0.36408 0.0
C1557 C 0.43435 0.69949 0.3547 0.0
C1558 C 0.41684 0.69346 0.34385 0.0
H1559 H 0.34699 0.70251 0.36279 0.0
H1560 H 0.37242 0.69982 0.36799 0.0
H1561 H 0.36387 0.72514 0.36531 0.0
H1562 H 0.39539 0.74001 0.35195 0.0
H1563 H 0.42578 0.75061 0.37045 0.0
H1564 H 0.99852 0.43772 0.02653 0.0
H1565 H 0.00659 0.40268 0.01109 0.0
H1566 H 0.98111 0.37621 0.06256 0.0
H1567 H 0.97268 0.41148 0.07776 0.0
H1568 H 0.02787 0.37066 0.02401 0.0
H1569 H 0.94891 0.3464 0.0134 0.0
H1570 H 0.95751 0.37344 0.02043 0.0
H1571 H 0.95735 0.35542 0.03905 0.0
C1572 C 0.99493 0.4244 0.0346 0.0
C1573 C 0.98483 0.42706 0.0531 0.0
C1574 C 0.99957 0.40444 0.02586 0.0
C1575 C 0.99414 0.38677 0.03549 0.0
C1576 C 0.98514 0.38958 0.0547 0.0
H1577 H 0.99228 0.2616 0.96126 0.0
H1578 H 0.99235 0.28678 0.9928 0.0
C1579 C 0.98049 0.40965 0.06346 0.0
C1580 C 0.99666 0.36555 0.02437 0.0
H1581 H 0.97102 0.32382 0.99716 0.0
C1582 C 0.01547 0.3602 0.01848 0.0
C1583 C 0.98046 0.35185 0.01722 0.0
C1584 C 0.95988 0.357 0.02268 0.0
C1585 C 0.01843 0.34212 0.00476 0.0
C1586 C 0.00216 0.32922 0.99653 0.0
C1587 C 0.98347 0.33374 0.00353 0.0
C1588 C 0.00389 0.31322 0.97838 0.0
C1589 C 0.03893 0.33741 0.99858 0.0
C1590 C 0.01028 0.31975 0.9599 0.0
C1591 C 0.01006 0.3056 0.94201 0.0
C1592 C 0.00344 0.28449 0.9421 0.0
C1593 C 0.99754 0.27773 0.96073 0.0
C1594 C 0.99756 0.29207 0.97872 0.0
H1595 H 0.04958 0.34406 0.01076 0.0
H1596 H 0.04041 0.32024 0.99518 0.0
H1597 H 0.04267 0.34467 0.9846 0.0
H1598 H 0.01485 0.33605 0.95916 0.0
H1599 H 0.01476 0.31134 0.92796 0.0
H1600 H 0.65696 0.77762 0.24225 0.0
H1601 H 0.62939 0.76886 0.26391 0.0
H1602 H 0.66113 0.72016 0.28513 0.0
H1603 H 0.68882 0.72919 0.26359 0.0
H1604 H 0.60808 0.72838 0.26301 0.0
H1605 H 0.64374 0.75623 0.33842 0.0
H1606 H 0.65294 0.76437 0.31484 0.0
H1607 H 0.65658 0.73847 0.32071 0.0
C1608 C 0.65801 0.76517 0.25168 0.0
C1609 C 0.67492 0.75413 0.25143 0.0
C1610 C 0.6423 0.76011 0.26394 0.0
C1611 C 0.6433 0.744 0.27627 0.0
C1612 C 0.66016 0.73282 0.27594 0.0
H1613 H 0.55306 0.71259 0.36501 0.0
H1614 H 0.58252 0.71015 0.34391 0.0
C1615 C 0.67587 0.73786 0.26358 0.0
C1616 C 0.62649 0.73891 0.28923 0.0
H1617 H 0.61108 0.74305 0.33878 0.0
C1618 C 0.60878 0.73138 0.27958 0.0
C1619 C 0.6275 0.74262 0.31085 0.0
C1620 C 0.64614 0.75099 0.32193 0.0
C1621 C 0.59189 0.72807 0.29095 0.0
C1622 C 0.59264 0.73282 0.31252 0.0
C1623 C 0.61055 0.73942 0.32224 0.0
C1624 C 0.57465 0.73335 0.32494 0.0
C1625 C 0.5733 0.71981 0.27972 0.0
C1626 C 0.56063 0.74731 0.3214 0.0
C1627 C 0.54396 0.74877 0.33334 0.0
C1628 C 0.54089 0.73636 0.34926 0.0
C1629 C 0.55493 0.72228 0.35281 0.0
C1630 C 0.57176 0.72089 0.34081 0.0
H1631 H 0.57633 0.71067 0.2647 0.0
H1632 H 0.56416 0.7097 0.28886 0.0
H1633 H 0.56485 0.73322 0.27677 0.0
H1634 H 0.56274 0.7574 0.30955 0.0
H1635 H 0.53355 0.75984 0.33015 0.0
H1636 H 0.04225 0.07675 0.04933 0.0
H1637 H 0.04166 0.09978 0.02258 0.0
H1638 H 0.03497 0.04551 0.97669 0.0
H1639 H 0.03494 0.0225 0.00377 0.0
H1640 H 0.06171 0.10628 0.98837 0.0
H1641 H 0.98621 0.07493 0.96745 0.0
H1642 H 0.99863 0.06869 0.98975 0.0
H1643 H 0.00403 0.05565 0.96478 0.0
C1644 C 0.04112 0.06982 0.03347 0.0
C1645 C 0.03849 0.04795 0.02853 0.0
C1646 C 0.04072 0.08294 0.01819 0.0
C1647 C 0.03771 0.07444 0.99762 0.0
C1648 C 0.03677 0.05248 0.99249 0.0
H1649 H 0.01279 0.14065 0.89298 0.0
H1650 H 0.02106 0.11399 0.91432 0.0
C1651 C 0.03708 0.03932 0.00787 0.0
C1652 C 0.03421 0.08869 0.98204 0.0
H1653 H 0.99968 0.10133 0.94914 0.0
C1654 C 0.04819 0.10509 0.97971 0.0
C1655 C 0.01649 0.08731 0.9708 0.0
C1656 C 1.00038 0.07084 0.97339 0.0
C1657 C 0.04491 0.12013 0.96661 0.0
C1658 C 0.0271 0.11888 0.95564 0.0
C1659 C 0.01333 0.10223 0.95755 0.0
C1660 C 0.02221 0.13513 0.94267 0.0
C1661 C 0.0605 0.13728 0.96461 0.0
C1662 C 0.01977 0.15581 0.95155 0.0
C1663 C 0.01488 0.17106 0.93943 0.0
C1664 C 0.01237 0.16596 0.91812 0.0
C1665 C 0.01466 0.14516 0.90931 0.0
C1666 C 0.0194 0.12988 0.92148 0.0
H1667 H 0.0749 0.13327 0.97004 0.0
H1668 H 0.06182 0.14039 0.94847 0.0
H1669 H 0.05654 0.15195 0.97399 0.0
H1670 H 0.02153 0.16014 0.96792 0.0
H1671 H 0.01322 0.18688 0.94677 0.0
H1672 H 0.33853 0.28387 0.29574 0.0
H1673 H 0.36412 0.27296 0.27153 0.0
H1674 H 0.39921 0.32938 0.29378 0.0
H1675 H 0.37438 0.33911 0.31896 0.0
H1676 H 0.37263 0.29159 0.24149 0.0
H1677 H 0.44173 0.29224 0.2832 0.0
H1678 H 0.41872 0.29253 0.29628 0.0
H1679 H 0.43128 0.3167 0.29092 0.0
C1680 C 0.35216 0.2933 0.29606 0.0
C1681 C 0.35452 0.31239 0.30899 0.0
C1682 C 0.36671 0.28722 0.2821 0.0
C1683 C 0.38374 0.30029 0.2807 0.0
C1684 C 0.38656 0.31866 0.29471 0.0
H1685 H 0.43401 0.32939 0.16939 0.0
H1686 H 0.41538 0.32517 0.2002 0.0
C1687 C 0.37223 0.32443 0.30894 0.0
C1688 C 0.39686 0.29673 0.26275 0.0
H1689 H 0.44444 0.30192 0.24837 0.0
C1690 C 0.38835 0.29337 0.2431 0.0
C1691 C 0.41744 0.29861 0.26455 0.0
C1692 C 0.42775 0.29997 0.28492 0.0
C1693 C 0.39968 0.29317 0.22542 0.0
C1694 C 0.42009 0.29739 0.22734 0.0
C1695 C 0.42876 0.29931 0.24685 0.0
C1696 C 0.43241 0.30079 0.20936 0.0
C1697 C 0.38953 0.28853 0.20486 0.0
C1698 C 0.44899 0.28947 0.20486 0.0
C1699 C 0.46003 0.29229 0.18744 0.0
C1700 C 0.45459 0.30637 0.17417 0.0
C1701 C 0.4384 0.31818 0.17913 0.0
C1702 C 0.42763 0.31564 0.19666 0.0
H1703 H 0.376 0.2783 0.20576 0.0
H1704 H 0.38528 0.30344 0.19992 0.0
H1705 H 0.39906 0.28072 0.19304 0.0
H1706 H 0.45313 0.2781 0.21454 0.0
H1707 H 0.47245 0.28297 0.18404 0.0
H1708 H 0.53202 0.48932 0.01151 0.0
H1709 H 0.53306 0.46809 0.03958 0.0
H1710 H 0.58098 0.43607 0.01071 0.0
H1711 H 0.57914 0.45675 0.98204 0.0
H1712 H 0.5532 0.40894 0.01866 0.0
H1713 H 0.56526 0.4647 0.08892 0.0
H1714 H 0.54541 0.47228 0.07458 0.0
H1715 H 0.5695 0.47236 0.06382 0.0
C1716 C 0.54298 0.478 0.01143 0.0
C1717 C 0.55534 0.47441 0.99462 0.0
C1718 C 0.54378 0.46605 0.0276 0.0
C1719 C 0.55726 0.45057 0.02747 0.0
C1720 C 0.57051 0.44797 0.01124 0.0
H1721 H 0.54322 0.34555 0.10186 0.0
H1722 H 0.56057 0.37241 0.08416 0.0
C1723 C 0.56957 0.45983 0.99495 0.0
C1724 C 0.55546 0.43525 0.04255 0.0
H1725 H 0.54712 0.43153 0.09311 0.0
C1726 C 0.55245 0.41384 0.035 0.0
C1727 C 0.55449 0.44155 0.06391 0.0
C1728 C 0.55906 0.46397 0.07325 0.0
C1729 C 0.5471 0.39886 0.04799 0.0
C1730 C 0.54477 0.40542 0.06911 0.0
C1731 C 0.54884 0.42658 0.07688 0.0
C1732 C 0.53566 0.39096 0.08261 0.0
C1733 C 0.54274 0.3763 0.03889 0.0
C1734 C 0.51615 0.39292 0.08815 0.0
C1735 C 0.50621 0.37762 0.09807 0.0
C1736 C 0.51564 0.36012 0.10283 0.0
C1737 C 0.53556 0.35886 0.09843 0.0
C1738 C 0.54548 0.37414 0.08828 0.0
H1739 H 0.54381 0.37407 0.02194 0.0
H1740 H 0.5532 0.36629 0.04512 0.0
H1741 H 0.52788 0.37077 0.04318 0.0
H1742 H 0.50833 0.40578 0.08389 0.0
H1743 H 0.49092 0.37915 0.10137 0.0
H1744 H 0.64612 0.21711 0.26293 0.0
H1745 H 0.62341 0.22686 0.23767 0.0
H1746 H 0.67176 0.2426 0.19965 0.0
H1747 H 0.69451 0.23334 0.22535 0.0
H1748 H 0.64564 0.2734 0.20536 0.0
H1749 H 0.60642 0.19618 0.18214 0.0
H1750 H 0.60678 0.20346 0.20936 0.0
H1751 H 0.62925 0.19898 0.19605 0.0
C1752 C 0.6518 0.22255 0.2491 0.0
C1753 C 0.67194 0.22453 0.24596 0.0
C1754 C 0.63887 0.22791 0.23461 0.0
C1755 C 0.64588 0.23512 0.21661 0.0
C1756 C 0.66605 0.23689 0.21335 0.0
H1757 H 0.58002 0.28621 0.12205 0.0
H1758 H 0.60638 0.27273 0.14054 0.0
C1759 C 0.67899 0.23155 0.22791 0.0
C1760 C 0.63212 0.24202 0.20191 0.0
H1761 H 0.59081 0.22629 0.17387 0.0
C1762 C 0.63382 0.26304 0.1982 0.0
C1763 C 0.61674 0.22845 0.19258 0.0
C1764 C 0.61478 0.20546 0.19506 0.0
C1765 C 0.62001 0.27109 0.18617 0.0
C1766 C 0.60425 0.25769 0.17747 0.0
C1767 C 0.60288 0.23654 0.18066 0.0
C1768 C 0.58843 0.2656 0.16598 0.0
C1769 C 0.6219 0.29405 0.18355 0.0
C1770 C 0.56959 0.26571 0.17402 0.0
C1771 C 0.55453 0.27337 0.16354 0.0
C1772 C 0.558 0.28094 0.1447 0.0
C1773 C 0.57688 0.28058 0.13655 0.0
C1774 C 0.59197 0.27296 0.14711 0.0
H1775 H 0.63291 0.303 0.19417 0.0
H1776 H 0.6264 0.2957 0.16765 0.0
H1777 H 0.6077 0.30116 0.18616 0.0
H1778 H 0.56657 0.26005 0.18854 0.0
H1779 H 0.54017 0.27335 0.17023 0.0
H1780 H 0.42536 0.12259 0.95685 0.0
H1781 H 0.43719 0.1563 0.976 0.0
H1782 H 0.48251 0.12555 0.00327 0.0
H1783 H 0.47061 0.09186 0.98397 0.0
H1784 H 0.4369 0.15982 0.01926 0.0
H1785 H 0.5104 0.18144 0.99047 0.0
H1786 H 0.493 0.16351 0.97546 0.0
H1787 H 0.50624 0.15488 0.99593 0.0
C1788 C 0.43822 0.12329 0.96645 0.0
C1789 C 0.44715 0.10487 0.96904 0.0
C1790 C 0.44494 0.14243 0.97738 0.0
C1791 C 0.46077 0.14342 0.99099 0.0
C1792 C 0.4705 0.1252 0.99259 0.0
H1793 H 0.50309 0.24042 0.08885 0.0
H1794 H 0.49902 0.20851 0.06413 0.0
C1795 C 0.46374 0.10602 0.9816 0.0
C1796 C 0.46514 0.16271 0.00551 0.0
H1797 H 0.4999 0.20202 0.02048 0.0
C1798 C 0.45064 0.16911 0.01946 0.0
C1799 C 0.48319 0.17455 0.00593 0.0
C1800 C 0.49911 0.16841 0.99108 0.0
C1801 C 0.45365 0.18708 0.03382 0.0
C1802 C 0.47151 0.19926 0.03395 0.0
C1803 C 0.48618 0.1927 0.02024 0.0
C1804 C 0.4749 0.21906 0.04803 0.0
C1805 C 0.43776 0.19266 0.04894 0.0
C1806 C 0.46296 0.23569 0.04686 0.0
C1807 C 0.46513 0.25383 0.06099 0.0
C1808 C 0.47944 0.25579 0.07648 0.0
C1809 C 0.49185 0.23937 0.07718 0.0
C1810 C 0.4896 0.22116 0.06304 0.0
H1811 H 0.42751 0.17892 0.05052 0.0
H1812 H 0.44395 0.19885 0.06427 0.0
H1813 H 0.42929 0.20498 0.04352 0.0
H1814 H 0.45176 0.23453 0.03513 0.0
H1815 H 0.45546 0.26623 0.05983 0.0
H1816 H 0.22397 0.29253 0.69646 0.0
H1817 H 0.24603 0.32363 0.69385 0.0
H1818 H 0.27384 0.31502 0.75059 0.0
H1819 H 0.2523 0.28362 0.75266 0.0
H1820 H 0.24668 0.35843 0.72003 0.0
H1821 H 0.32062 0.33021 0.7181 0.0
H1822 H 0.29917 0.31258 0.71311 0.0
H1823 H 0.30726 0.32134 0.73902 0.0
C1824 C 0.23526 0.29697 0.70795 0.0
C1825 C 0.23653 0.28582 0.72477 0.0
C1826 C 0.24776 0.31476 0.70654 0.0
C1827 C 0.2618 0.32159 0.72189 0.0
C1828 C 0.26352 0.30986 0.73827 0.0
H1829 H 0.29843 0.44011 0.78064 0.0
H1830 H 0.28284 0.40676 0.76557 0.0
C1831 C 0.2511 0.29206 0.7396 0.0
C1832 C 0.27289 0.34227 0.72235 0.0
H1833 H 0.31804 0.36687 0.7322 0.0
C1834 C 0.26234 0.3602 0.72222 0.0
C1835 C 0.29338 0.34472 0.72486 0.0
C1836 C 0.30576 0.32613 0.72355 0.0
C1837 C 0.27151 0.38044 0.72603 0.0
C1838 C 0.2917 0.38287 0.73049 0.0
C1839 C 0.3025 0.36501 0.72909 0.0
C1840 C 0.30124 0.40353 0.73891 0.0
C1841 C 0.25935 0.39908 0.72588 0.0
C1842 C 0.31713 0.4127 0.72915 0.0
C1843 C 0.32624 0.43197 0.73783 0.0
C1844 C 0.31973 0.44218 0.75654 0.0
C1845 C 0.30385 0.43281 0.7662 0.0
C1846 C 0.29478 0.41374 0.75753 0.0
H1847 H 0.24634 0.39509 0.71579 0.0
H1848 H 0.25417 0.40396 0.74161 0.0
H1849 H 0.26792 0.41257 0.72066 0.0
H1850 H 0.32246 0.40497 0.71485 0.0
H1851 H 0.33849 0.4387 0.73005 0.0
H1852 H 0.21819 0.68204 0.8061 0.0
H1853 H 0.24191 0.6554 0.80767 0.0
H1854 H 0.27394 0.67899 0.75833 0.0
H1855 H 0.2503 0.70574 0.75699 0.0
H1856 H 0.26392 0.63563 0.75159 0.0
H1857 H 0.29879 0.65856 0.82777 0.0
H1858 H 0.27265 0.65699 0.82824 0.0
H1859 H 0.28539 0.67642 0.81506 0.0
C1860 C 0.23061 0.68183 0.79603 0.0
C1861 C 0.23248 0.69581 0.7814 0.0
C1862 C 0.24412 0.66664 0.79689 0.0
C1863 C 0.25977 0.66528 0.78319 0.0
C1864 C 0.262 0.67976 0.76905 0.0
H1865 H 0.33948 0.56306 0.75643 0.0
H1866 H 0.32395 0.5962 0.75562 0.0
C1867 C 0.24854 0.69498 0.76827 0.0
C1868 C 0.27278 0.64768 0.78244 0.0
H1869 H 0.30369 0.62405 0.81136 0.0
C1870 C 0.27283 0.63321 0.76455 0.0
C1871 C 0.28436 0.64458 0.79936 0.0
C1872 C 0.28549 0.66005 0.81864 0.0
C1873 C 0.28347 0.6152 0.76345 0.0
C1874 C 0.2947 0.61181 0.78056 0.0
C1875 C 0.29509 0.62664 0.79824 0.0
C1876 C 0.30485 0.5922 0.78111 0.0
C1877 C 0.28182 0.59949 0.74433 0.0
C1878 C 0.29968 0.57921 0.79598 0.0
C1879 C 0.30859 0.56047 0.79659 0.0
C1880 C 0.32298 0.55418 0.78233 0.0
C1881 C 0.32837 0.56733 0.76754 0.0
C1882 C 0.31944 0.58624 0.767 0.0
H1883 H 0.26933 0.60213 0.7345 0.0
H1884 H 0.29531 0.60095 0.73528 0.0
H1885 H 0.28009 0.58322 0.74822 0.0
H1886 H 0.28849 0.58345 0.80702 0.0
H1887 H 0.30404 0.55082 0.80824 0.0
H1888 H 0.89837 0.53344 0.44641 0.0
H1889 H 0.87063 0.50931 0.45281 0.0
H1890 H 0.88578 0.51754 0.51705 0.0
H1891 H 0.91411 0.54049 0.51035 0.0
H1892 H 0.87965 0.47796 0.50379 0.0
H1893 H 0.81819 0.51894 0.47717 0.0
H1894 H 0.83613 0.5142 0.4577 0.0
H1895 H 0.84243 0.53134 0.4809 0.0
C1896 C 0.89567 0.53003 0.46185 0.0
C1897 C 0.90826 0.53881 0.47791 0.0
C1898 C 0.87969 0.51654 0.46557 0.0
C1899 C 0.87583 0.51194 0.48551 0.0
C1900 C 0.88831 0.52099 0.50158 0.0
H1901 H 0.77392 0.43554 0.52124 0.0
H1902 H 0.79658 0.46556 0.51622 0.0
C1903 C 0.9044 0.5342 0.4978 0.0
C1904 C 0.85989 0.49632 0.48943 0.0
H1905 H 0.81134 0.48275 0.48175 0.0
C1906 C 0.86469 0.47919 0.49915 0.0
C1907 C 0.84028 0.49801 0.48368 0.0
C1908 C 0.8339 0.51674 0.47449 0.0
C1909 C 0.85061 0.46342 0.50274 0.0
C1910 C 0.83127 0.46442 0.49584 0.0
C1911 C 0.82624 0.48187 0.48675 0.0
C1912 C 0.81642 0.44696 0.49729 0.0
C1913 C 0.85664 0.44586 0.51397 0.0
C1914 C 0.81971 0.4268 0.48768 0.0
C1915 C 0.80702 0.40975 0.49069 0.0
C1916 C 0.79055 0.41253 0.50309 0.0
C1917 C 0.78654 0.43293 0.51168 0.0
C1918 C 0.79946 0.45006 0.50883 0.0
H1919 H 0.86983 0.4507 0.52359 0.0
H1920 H 0.84479 0.44059 0.52391 0.0
H1921 H 0.86015 0.43232 0.50268 0.0
H1922 H 0.83241 0.42415 0.47824 0.0
H1923 H 0.81034 0.39429 0.48355 0.0
H1924 H 0.81697 0.88706 0.8381 0.0
H1925 H 0.79255 0.9129 0.83524 0.0
H1926 H 0.75278 0.8636 0.80571 0.0
H1927 H 0.77723 0.83798 0.80842 0.0
H1928 H 0.75684 0.90175 0.78628 0.0
H1929 H 0.74137 0.91598 0.86971 0.0
H1930 H 0.76643 0.91842 0.8621 0.0
H1931 H 0.7533 0.89322 0.85829 0.0
C1932 C 0.803 0.88192 0.83097 0.0
C1933 C 0.79876 0.86067 0.82361 0.0
C1934 C 0.7891 0.89656 0.82942 0.0
C1935 C 0.77083 0.89007 0.82043 0.0
C1936 C 0.76678 0.86888 0.81274 0.0
H1937 H 0.65753 0.93334 0.82091 0.0
H1938 H 0.68793 0.91689 0.82523 0.0
C1939 C 0.78062 0.85429 0.81437 0.0
C1940 C 0.7557 0.90514 0.81915 0.0
H1941 H 0.72299 0.93349 0.84797 0.0
C1942 C 0.74958 0.90895 0.79975 0.0
C1943 C 0.74624 0.91432 0.8368 0.0
C1944 C 0.752 0.91026 0.85795 0.0
C1945 C 0.73387 0.92131 0.79747 0.0
C1946 C 0.72417 0.93017 0.8151 0.0
C1947 C 0.7306 0.92678 0.83453 0.0
C1948 C 0.70614 0.94118 0.81353 0.0
C1949 C 0.72718 0.92404 0.77623 0.0
C1950 C 0.70638 0.96051 0.80585 0.0
C1951 C 0.68898 0.97004 0.80337 0.0
C1952 C 0.67107 0.96031 0.8085 0.0
C1953 C 0.67103 0.94121 0.81669 0.0
C1954 C 0.68839 0.9318 0.81924 0.0
H1955 H 0.73445 0.91365 0.76419 0.0
H1956 H 0.71119 0.92068 0.77463 0.0
H1957 H 0.73053 0.94054 0.77357 0.0
H1958 H 0.72 0.96809 0.80156 0.0
H1959 H 0.68952 0.98478 0.79708 0.0
H1960 H 0.5982 0.48441 0.94667 0.0
H1961 H 0.63059 0.5016 0.95478 0.0
H1962 H 0.60756 0.53707 0.00845 0.0
H1963 H 0.57498 0.51998 0.99995 0.0
H1964 H 0.62754 0.56192 0.9833 0.0
H1965 H 0.67193 0.49677 0.9976 0.0
H1966 H 0.65832 0.49087 0.97411 0.0
H1967 H 0.64564 0.49464 0.99806 0.0
C1968 C 0.60024 0.49559 0.96038 0.0
C1969 C 0.58429 0.50104 0.97268 0.0
C1970 C 0.61871 0.50528 0.96512 0.0
C1971 C 0.62155 0.52049 0.98235 0.0
C1972 C 0.60571 0.5253 0.99516 0.0
H1973 H 0.72686 0.60707 0.00509 0.0
H1974 H 0.69503 0.58918 0.01036 0.0
C1975 C 0.58721 0.51551 0.99041 0.0
C1976 C 0.64055 0.5328 0.98555 0.0
H1977 H 0.68949 0.5275 0.9877 0.0
C1978 C 0.64108 0.5545 0.98471 0.0
C1979 C 0.65818 0.52309 0.9874 0.0
C1980 C 0.6585 0.50009 0.98956 0.0
C1981 C 0.65884 0.56651 0.98437 0.0
C1982 C 0.67649 0.55656 0.98514 0.0
C1983 C 0.67593 0.53506 0.98698 0.0
C1984 C 0.69562 0.56772 0.98227 0.0
C1985 C 0.65863 0.58949 0.98205 0.0
C1986 C 0.70652 0.56147 0.96485 0.0
C1987 C 0.72462 0.5716 0.96179 0.0
C1988 C 0.73231 0.58817 0.97618 0.0
C1989 C 0.72132 0.59446 0.99366 0.0
C1990 C 0.70313 0.58429 0.99668 0.0
H1991 H 0.64385 0.594 0.97839 0.0
H1992 H 0.66365 0.59903 0.99656 0.0
H1993 H 0.66873 0.59346 0.96978 0.0
H1994 H 0.70097 0.54874 0.95353 0.0
H1995 H 0.73264 0.56627 0.94818 0.0
H1996 H 0.26895 0.70282 0.27968 0.0
H1997 H 0.25142 0.67288 0.29286 0.0
H1998 H 0.2486 0.63916 0.23178 0.0
H1999 H 0.26663 0.6687 0.21895 0.0
H2000 H 0.21479 0.65806 0.28221 0.0
H2001 H 0.26391 0.59385 0.26386 0.0
H2002 H 0.27192 0.62104 0.26352 0.0
H2003 H 0.25913 0.60641 0.24183 0.0
C2004 C 0.26503 0.68871 0.26931 0.0
C2005 C 0.26905 0.6879 0.24837 0.0
C2006 C 0.25494 0.67172 0.27675 0.0
C2007 C 0.24886 0.65364 0.26335 0.0
C2008 C 0.25349 0.65266 0.24252 0.0
H2009 H 0.16547 0.54815 0.25954 0.0
H2010 H 0.18875 0.57686 0.25299 0.0
C2011 C 0.26362 0.66957 0.23515 0.0
C2012 C 0.23613 0.63662 0.2706 0.0
H2013 H 0.23025 0.58337 0.26932 0.0
C2014 C 0.21833 0.64176 0.27971 0.0
C2015 C 0.24071 0.61534 0.26731 0.0
C2016 C 0.26006 0.60885 0.25879 0.0
C2017 C 0.20468 0.62615 0.28482 0.0
C2018 C 0.20898 0.60487 0.28079 0.0
C2019 C 0.22695 0.59972 0.27221 0.0
C2020 C 0.19477 0.5877 0.28495 0.0
C2021 C 0.18545 0.6324 0.29384 0.0
C2022 C 0.1905 0.58431 0.3051 0.0
C2023 C 0.17727 0.56787 0.30892 0.0
C2024 C 0.16801 0.55457 0.29262 0.0
C2025 C 0.17225 0.55814 0.27244 0.0
C2026 C 0.1856 0.57448 0.26865 0.0
H2027 H 0.18325 0.64925 0.29332 0.0
H2028 H 0.17325 0.62278 0.28551 0.0
H2029 H 0.18489 0.62944 0.31005 0.0
H2030 H 0.19755 0.59427 0.31787 0.0
H2031 H 0.17436 0.56555 0.32464 0.0
H2032 H 0.96831 0.51371 0.05209 0.0
H2033 H 0.94549 0.53882 0.04278 0.0
H2034 H 0.8976 0.49301 0.04748 0.0
H2035 H 0.92046 0.46841 0.05759 0.0
H2036 H 0.92236 0.53604 0.01063 0.0
H2037 H 0.87667 0.54365 0.07973 0.0
H2038 H 0.89952 0.53135 0.07891 0.0
H2039 H 0.87761 0.51673 0.06891 0.0
C2040 C 0.95286 0.50929 0.05136 0.0
C2041 C 0.94596 0.48938 0.05561 0.0
C2042 C 0.93986 0.52352 0.04604 0.0
C2043 C 0.91976 0.51798 0.04483 0.0
C2044 C 0.91294 0.49791 0.04891 0.0
H2045 H 0.83402 0.56198 0.97067 0.0
H2046 H 0.85985 0.54497 0.98594 0.0
C2047 C 0.92594 0.4838 0.05444 0.0
C2048 C 0.90606 0.53263 0.03803 0.0
H2049 H 0.86285 0.55444 0.04947 0.0
C2050 C 0.90949 0.54028 0.01928 0.0
C2051 C 0.88945 0.53857 0.04948 0.0
C2052 C 0.88571 0.53233 0.07048 0.0
C2053 C 0.89633 0.55285 0.01121 0.0
C2054 C 0.87898 0.55742 0.0219 0.0
C2055 C 0.876 0.55067 0.04113 0.0
C2056 C 0.86329 0.56811 0.01283 0.0
C2057 C 0.90116 0.56105 0.99126 0.0
C2058 C 0.85609 0.58643 0.02321 0.0
C2059 C 0.84103 0.59614 0.0146 0.0
C2060 C 0.83291 0.58762 0.99548 0.0
C2061 C 0.84006 0.56914 0.9853 0.0
C2062 C 0.85495 0.55943 0.99394 0.0
H2063 H 0.91714 0.56241 0.98884 0.0
H2064 H 0.89462 0.54993 0.97842 0.0
H2065 H 0.89536 0.57665 0.9907 0.0
H2066 H 0.86219 0.59328 0.0379 0.0
H2067 H 0.8358 0.61029 0.02288 0.0
H2068 H 0.0462 0.98011 0.02814 0.0
H2069 H 0.07688 0.96318 0.02127 0.0
H2070 H 0.10898 0.02151 0.04325 0.0
H2071 H 0.07812 0.03834 0.05023 0.0
H2072 H 0.11197 0.97143 0.99873 0.0
H2073 H 0.12417 0.98002 0.0829 0.0
H2074 H 0.10102 0.98405 0.07167 0.0
H2075 H 0.12066 0.00391 0.07242 0.0
C2076 C 0.05986 0.9894 0.03083 0.0
C2077 C 0.05993 0.01047 0.03963 0.0
C2078 C 0.07736 0.97974 0.02702 0.0
C2079 C 0.09524 0.99096 0.0321 0.0
C2080 C 0.09535 0.01247 0.03947 0.0
H2081 H 0.2119 0.94978 0.04541 0.0
H2082 H 0.18305 0.96967 0.04432 0.0
C2083 C 0.07779 0.02216 0.04321 0.0
C2084 C 0.11346 0.97962 0.03142 0.0
H2085 H 0.14826 0.96406 0.06217 0.0
C2086 C 0.11997 0.96987 0.01258 0.0
C2087 C 0.1238 0.97742 0.04952 0.0
C2088 C 0.11704 0.98673 0.07032 0.0
C2089 C 0.1367 0.95829 0.01131 0.0
C2090 C 0.14697 0.95597 0.02944 0.0
C2091 C 0.14045 0.9658 0.04826 0.0
C2092 C 0.16462 0.94366 0.02937 0.0
C2093 C 0.14344 0.94901 0.99051 0.0
C2094 C 0.16394 0.92224 0.02151 0.0
C2095 C 0.18053 0.91074 0.02206 0.0
C2096 C 0.19811 0.92038 0.03067 0.0
C2097 C 0.19866 0.94178 0.03867 0.0
C2098 C 0.18213 0.95323 0.03805 0.0
H2099 H 0.13748 0.95698 0.97813 0.0
H2100 H 0.15957 0.95009 0.98962 0.0
H2101 H 0.13827 0.9322 0.98767 0.0
H2102 H 0.1505 0.91431 0.0152 0.0
H2103 H 0.17955 0.89429 0.01585 0.0
loop_
_geom_bond_atom_site_label_1
_geom_bond_atom_site_label_2
_geom_bond_distance
_geom_bond_site_symmetry_2
_ccdc_geom_bond_type
C0 N1 1.317 . S
C0 N2 1.348 . S
C0 C3 1.485 1_545 S
N1 C0 1.317 . S
N1 N5 1.370 . S
N2 C0 1.348 . S
N2 C4 1.346 . S
C3 C0 1.485 1_565 S
C3 H7 0.960 . S
C3 H8 0.961 . S
C3 H9 0.960 . S
C4 N2 1.346 . S
C4 N5 1.307 . S
C4 C6 1.486 1_455 S
N5 N1 1.370 . S
N5 C4 1.307 . S
C6 C4 1.486 1_655 S
C6 H10 0.960 . S
C6 H11 0.960 . S
C6 H12 0.959 . S
H7 C3 0.960 . S
H8 C3 0.961 . S
H9 C3 0.960 . S
H10 C6 0.960 . S
H11 C6 0.960 . S
H12 C6 0.959 . S
C13 N14 1.317 . S
C13 N15 1.348 . S
C13 C16 1.485 . S
N14 C13 1.317 . S
N14 N18 1.370 . S
N15 C13 1.348 . S
N15 C17 1.346 . S
C16 C13 1.485 . S
C16 H20 0.960 . S
C16 H21 0.961 . S
C16 H22 0.960 . S
C17 N15 1.346 . S
C17 N18 1.307 . S
C17 C19 1.486 . S
N18 N14 1.370 . S
N18 C17 1.307 . S
C19 C17 1.486 . S
C19 H23 0.960 . S
C19 H24 0.960 . S
C19 H25 0.959 . S
H20 C16 0.960 . S
H21 C16 0.961 . S
H22 C16 0.960 . S
H23 C19 0.960 . S
H24 C19 0.960 . S
H25 C19 0.959 . S
C26 N27 1.317 . S
C26 N28 1.348 . S
C26 C29 1.485 . S
N27 C26 1.317 . S
N27 N31 1.370 . S
N28 C26 1.348 . S
N28 C30 1.346 . S
C29 C26 1.485 . S
C29 H33 0.960 . S
C29 H34 0.961 . S
C29 H35 0.960 . S
C30 N28 1.346 . S
C30 N31 1.307 . S
C30 C32 1.486 . S
N31 N27 1.370 . S
N31 C30 1.307 . S
C32 C30 1.486 . S
C32 H36 0.960 . S
C32 H37 0.960 . S
C32 H38 0.959 . S
H33 C29 0.960 . S
H34 C29 0.961 . S
H35 C29 0.960 . S
H36 C32 0.960 . S
H37 C32 0.960 . S
H38 C32 0.959 . S
C39 N40 1.317 . S
C39 N41 1.348 . S
C39 C42 1.485 . S
N40 C39 1.317 . S
N40 N44 1.370 . S
N41 C39 1.348 . S
N41 C43 1.346 . S
C42 C39 1.485 . S
C42 H46 0.960 . S
C42 H47 0.961 . S
C42 H48 0.960 . S
C43 N41 1.346 . S
C43 N44 1.307 . S
C43 C45 1.486 . S
N44 N40 1.370 . S
N44 C43 1.307 . S
C45 C43 1.486 . S
C45 H49 0.960 . S
C45 H50 0.960 . S
C45 H51 0.959 . S
H46 C42 0.960 . S
H47 C42 0.961 . S
H48 C42 0.960 . S
H49 C45 0.960 . S
H50 C45 0.960 . S
H51 C45 0.959 . S
C52 N53 1.317 . S
C52 N54 1.348 . S
C52 C55 1.485 . S
N53 C52 1.317 . S
N53 N57 1.370 . S
N54 C52 1.348 . S
N54 C56 1.346 . S
C55 C52 1.485 . S
C55 H59 0.960 . S
C55 H60 0.961 . S
C55 H61 0.960 . S
C56 N54 1.346 . S
C56 N57 1.307 . S
C56 C58 1.486 . S
N57 N53 1.370 . S
N57 C56 1.307 . S
C58 C56 1.486 . S
C58 H62 0.960 1_565 S
C58 H63 0.960 . S
C58 H64 0.959 . S
H59 C55 0.960 . S
H60 C55 0.961 . S
H61 C55 0.960 . S
H62 C58 0.960 1_545 S
H63 C58 0.960 . S
H64 C58 0.959 . S
C65 N66 1.317 . S
C65 N67 1.348 . S
C65 C68 1.485 . S
N66 C65 1.317 . S
N66 N70 1.370 . S
N67 C65 1.348 . S
N67 C69 1.346 . S
C68 C65 1.485 . S
C68 H72 0.960 . S
C68 H73 0.961 . S
C68 H74 0.960 . S
C69 N67 1.346 . S
C69 N70 1.307 . S
C69 C71 1.486 . S
N70 N66 1.370 . S
N70 C69 1.307 . S
C71 C69 1.486 . S
C71 H75 0.960 . S
C71 H76 0.960 . S
C71 H77 0.959 . S
H72 C68 0.960 . S
H73 C68 0.961 . S
H74 C68 0.960 . S
H75 C71 0.960 . S
H76 C71 0.960 . S
H77 C71 0.959 . S
C78 N79 1.317 . S
C78 N80 1.348 . S
C78 C81 1.485 . S
N79 C78 1.317 . S
N79 N83 1.370 . S
N80 C78 1.348 . S
N80 C82 1.346 . S
C81 C78 1.485 . S
C81 H85 0.960 . S
C81 H86 0.961 . S
C81 H87 0.960 . S
C82 N80 1.346 . S
C82 N83 1.307 . S
C82 C84 1.486 . S
N83 N79 1.370 . S
N83 C82 1.307 . S
C84 C82 1.486 . S
C84 H88 0.960 . S
C84 H89 0.960 . S
C84 H90 0.959 . S
H85 C81 0.960 . S
H86 C81 0.961 . S
H87 C81 0.960 . S
H88 C84 0.960 . S
H89 C84 0.960 . S
H90 C84 0.959 . S
C91 N92 1.317 . S
C91 N93 1.348 . S
C91 C94 1.485 . S
N92 C91 1.317 . S
N92 N96 1.370 . S
N93 C91 1.348 . S
N93 C95 1.346 . S
C94 C91 1.485 . S
C94 H98 0.960 . S
C94 H99 0.961 . S
C94 H100 0.960 . S
C95 N93 1.346 . S
C95 N96 1.307 . S
C95 C97 1.486 . S
N96 N92 1.370 . S
N96 C95 1.307 . S
C97 C95 1.486 . S
C97 H101 0.960 . S
C97 H102 0.960 . S
C97 H103 0.959 . S
H98 C94 0.960 . S
H99 C94 0.961 . S
H100 C94 0.960 . S
H101 C97 0.960 . S
H102 C97 0.960 . S
H103 C97 0.959 . S
C104 N105 1.317 . S
C104 N106 1.348 . S
C104 C107 1.485 . S
N105 C104 1.317 . S
N105 N109 1.370 . S
N106 C104 1.348 . S
N106 C108 1.346 . S
C107 C104 1.485 . S
C107 H111 0.960 . S
C107 H112 0.961 . S
C107 H113 0.960 . S
C108 N106 1.346 . S
C108 N109 1.307 . S
C108 C110 1.486 . S
N109 N105 1.370 . S
N109 C108 1.307 . S
C110 C108 1.486 . S
C110 H114 0.960 . S
C110 H115 0.960 . S
C110 H116 0.959 . S
H111 C107 0.960 . S
H112 C107 0.961 . S
H113 C107 0.960 . S
H114 C110 0.960 . S
H115 C110 0.960 . S
H116 C110 0.959 . S
C117 N118 1.317 . S
C117 N119 1.348 . S
C117 C120 1.485 . S
N118 C117 1.317 . S
N118 N122 1.370 . S
N119 C117 1.348 . S
N119 C121 1.346 . S
C120 C117 1.485 . S
C120 H124 0.960 . S
C120 H125 0.961 1_565 S
C120 H126 0.960 . S
C121 N119 1.346 . S
C121 N122 1.307 . S
C121 C123 1.486 . S
N122 N118 1.370 . S
N122 C121 1.307 . S
C123 C121 1.486 . S
C123 H127 0.960 . S
C123 H128 0.960 . S
C123 H129 0.959 . S
H124 C120 0.960 . S
H125 C120 0.961 1_545 S
H126 C120 0.960 . S
H127 C123 0.960 . S
H128 C123 0.960 . S
H129 C123 0.959 . S
C130 N131 1.317 . S
C130 N132 1.348 . S
C130 C133 1.485 . S
N131 C130 1.317 . S
N131 N135 1.370 . S
N132 C130 1.348 . S
N132 C134 1.346 . S
C133 C130 1.485 . S
C133 H137 0.960 . S
C133 H138 0.961 . S
C133 H139 0.960 . S
C134 N132 1.346 . S
C134 N135 1.307 . S
C134 C136 1.486 . S
N135 N131 1.370 . S
N135 C134 1.307 . S
C136 C134 1.486 . S
C136 H140 0.960 . S
C136 H141 0.960 . S
C136 H142 0.959 . S
H137 C133 0.960 . S
H138 C133 0.961 . S
H139 C133 0.960 . S
H140 C136 0.960 . S
H141 C136 0.960 . S
H142 C136 0.959 . S
C143 N144 1.317 . S
C143 N145 1.348 . S
C143 C146 1.485 . S
N144 C143 1.317 . S
N144 N148 1.370 . S
N145 C143 1.348 . S
N145 C147 1.346 . S
C146 C143 1.485 . S
C146 H150 0.960 . S
C146 H151 0.961 . S
C146 H152 0.960 . S
C147 N145 1.346 . S
C147 N148 1.307 . S
C147 C149 1.486 . S
N148 N144 1.370 . S
N148 C147 1.307 . S
C149 C147 1.486 . S
C149 H153 0.960 . S
C149 H154 0.960 . S
C149 H155 0.959 . S
H150 C146 0.960 . S
H151 C146 0.961 . S
H152 C146 0.960 . S
H153 C149 0.960 . S
H154 C149 0.960 . S
H155 C149 0.959 . S
C156 N157 1.317 . S
C156 N158 1.348 . S
C156 C159 1.485 . S
N157 C156 1.317 . S
N157 N161 1.370 . S
N158 C156 1.348 . S
N158 C160 1.346 . S
C159 C156 1.485 . S
C159 H163 0.960 . S
C159 H164 0.961 . S
C159 H165 0.960 . S
C160 N158 1.346 . S
C160 N161 1.307 . S
C160 C162 1.486 . S
N161 N157 1.370 . S
N161 C160 1.307 . S
C162 C160 1.486 . S
C162 H166 0.960 . S
C162 H167 0.960 . S
C162 H168 0.959 . S
H163 C159 0.960 . S
H164 C159 0.961 . S
H165 C159 0.960 . S
H166 C162 0.960 . S
H167 C162 0.960 . S
H168 C162 0.959 . S
C169 N170 1.317 . S
C169 N171 1.348 . S
C169 C172 1.485 . S
N170 C169 1.317 . S
N170 N174 1.370 . S
N171 C169 1.348 . S
N171 C173 1.346 . S
C172 C169 1.485 . S
C172 H176 0.960 . S
C172 H177 0.961 . S
C172 H178 0.960 . S
C173 N171 1.346 . S
C173 N174 1.307 . S
C173 C175 1.486 . S
N174 N170 1.370 . S
N174 C173 1.307 . S
C175 C173 1.486 . S
C175 H179 0.960 . S
C175 H180 0.960 . S
C175 H181 0.959 . S
H176 C172 0.960 . S
H177 C172 0.961 . S
H178 C172 0.960 . S
H179 C175 0.960 . S
H180 C175 0.960 . S
H181 C175 0.959 . S
C182 N183 1.317 . S
C182 N184 1.348 . S
C182 C185 1.485 . S
N183 C182 1.317 . S
N183 N187 1.370 . S
N184 C182 1.348 . S
N184 C186 1.346 . S
C185 C182 1.485 . S
C185 H189 0.960 . S
C185 H190 0.961 . S
C185 H191 0.960 . S
C186 N184 1.346 . S
C186 N187 1.307 . S
C186 C188 1.486 . S
N187 N183 1.370 . S
N187 C186 1.307 . S
C188 C186 1.486 . S
C188 H192 0.960 . S
C188 H193 0.960 . S
C188 H194 0.959 . S
H189 C185 0.960 . S
H190 C185 0.961 . S
H191 C185 0.960 . S
H192 C188 0.960 . S
H193 C188 0.960 . S
H194 C188 0.959 . S
C195 N196 1.317 . S
C195 N197 1.348 . S
C195 C198 1.485 . S
N196 C195 1.317 . S
N196 N200 1.370 . S
N197 C195 1.348 . S
N197 C199 1.346 . S
C198 C195 1.485 . S
C198 H202 0.960 . S
C198 H203 0.961 . S
C198 H204 0.960 . S
C199 N197 1.346 . S
C199 N200 1.307 . S
C199 C201 1.486 . S
N200 N196 1.370 . S
N200 C199 1.307 . S
C201 C199 1.486 . S
C201 H205 0.960 . S
C201 H206 0.960 . S
C201 H207 0.959 . S
H202 C198 0.960 . S
H203 C198 0.961 . S
H204 C198 0.960 . S
H205 C201 0.960 . S
H206 C201 0.960 . S
H207 C201 0.959 . S
Zn208 O211 2.031 . S
Zn208 O213 2.049 1_554 S
Zn208 O218 2.067 1_554 S
Zn209 O210 1.962 . S
Zn209 O212 1.986 . S
Zn209 O214 1.996 . S
Zn209 O217 1.943 1_554 S
O210 Zn209 1.962 . S
O210 C215 1.254 . S
O211 Zn208 2.031 . S
O211 C215 1.269 . S
O212 Zn209 1.986 . S
O212 C219 1.262 . S
O213 Zn208 2.049 1_556 S
O213 C221 1.275 . S
O214 Zn209 1.996 . S
O214 C221 1.227 1_554 S
C215 O210 1.254 . S
C215 O211 1.269 . S
C216 O217 1.249 . S
C216 O218 1.270 . S
O217 Zn209 1.943 1_556 S
O217 C216 1.249 . S
O218 Zn208 2.067 1_556 S
O218 C216 1.270 . S
C219 O212 1.262 . S
C219 O220 1.232 . S
O220 C219 1.232 . S
C221 O213 1.275 . S
C221 O214 1.227 1_556 S
Zn222 O225 2.031 . S
Zn222 O227 2.049 . S
Zn222 O232 2.067 . S
Zn223 O224 1.962 . S
Zn223 O226 1.986 . S
Zn223 O228 1.996 . S
Zn223 O231 1.943 . S
O224 Zn223 1.962 . S
O224 C229 1.254 . S
O225 Zn222 2.031 . S
O225 C229 1.269 . S
O226 Zn223 1.986 . S
O226 C233 1.262 . S
O227 Zn222 2.049 . S
O227 C235 1.260 . S
O228 Zn223 1.996 . S
O228 C235 1.257 . S
C229 O224 1.254 . S
C229 O225 1.269 . S
C230 O231 1.249 . S
C230 O232 1.270 . S
O231 Zn223 1.943 . S
O231 C230 1.249 . S
O232 Zn222 2.067 . S
O232 C230 1.270 . S
C233 O226 1.262 . S
C233 O234 1.232 . S
O234 C233 1.232 . S
C235 O227 1.260 . S
C235 O228 1.257 . S
Zn236 O239 2.031 . S
Zn236 O241 2.049 . S
Zn236 O246 2.067 . S
Zn237 O238 1.962 . S
Zn237 O240 1.986 . S
Zn237 O242 1.996 1_554 S
Zn237 O245 1.943 . S
O238 Zn237 1.962 . S
O238 C243 1.254 . S
O239 Zn236 2.031 . S
O239 C243 1.269 1_556 S
O240 Zn237 1.986 . S
O240 C247 1.262 . S
O241 Zn236 2.049 . S
O241 C249 1.260 . S
O242 Zn237 1.996 1_556 S
O242 C249 1.257 . S
C243 O238 1.254 . S
C243 O239 1.269 1_554 S
C244 O245 1.249 1_556 S
C244 O246 1.270 . S
O245 Zn237 1.943 . S
O245 C244 1.249 1_554 S
O246 Zn236 2.067 . S
O246 C244 1.270 . S
C247 O240 1.262 . S
C247 O248 1.232 . S
O248 C247 1.232 . S
C249 O241 1.260 . S
C249 O242 1.257 . S
Zn250 O253 2.031 . S
Zn250 O255 2.049 1_545 S
Zn250 O260 2.067 1_545 S
Zn251 O252 1.962 . S
Zn251 O254 1.986 . S
Zn251 O256 1.996 . S
Zn251 O259 1.943 1_545 S
O252 Zn251 1.962 . S
O252 C257 1.254 . S
O253 Zn250 2.031 . S
O253 C257 1.269 . S
O254 Zn251 1.986 . S
O254 C261 1.262 . S
O255 Zn250 2.049 1_565 S
O255 C263 1.264 . S
O256 Zn251 1.996 . S
O256 C263 1.249 1_545 S
C257 O252 1.254 . S
C257 O253 1.269 . S
C258 O259 1.249 . S
C258 O260 1.270 . S
O259 Zn251 1.943 1_565 S
O259 C258 1.249 . S
O260 Zn250 2.067 1_565 S
O260 C258 1.270 . S
C261 O254 1.262 . S
C261 O262 1.232 . S
O262 C261 1.232 . S
C263 O255 1.264 . S
C263 O256 1.249 1_565 S
Zn264 O267 2.031 . S
Zn264 O269 2.049 . S
Zn264 O274 2.067 . S
Zn265 O266 1.962 . S
Zn265 O268 1.986 . S
Zn265 O270 1.996 . S
Zn265 O273 1.943 . S
O266 Zn265 1.962 . S
O266 C271 1.254 . S
O267 Zn264 2.031 . S
O267 C271 1.269 . S
O268 Zn265 1.986 . S
O268 C275 1.262 . S
O269 Zn264 2.049 . S
O269 C277 1.260 . S
O270 Zn265 1.996 . S
O270 C277 1.257 . S
C271 O266 1.254 . S
C271 O267 1.269 . S
C272 O273 1.249 . S
C272 O274 1.270 . S
O273 Zn265 1.943 . S
O273 C272 1.249 . S
O274 Zn264 2.067 . S
O274 C272 1.270 . S
C275 O268 1.262 . S
C275 O276 1.232 . S
O276 C275 1.232 . S
C277 O269 1.260 . S
C277 O270 1.257 . S
Zn278 O281 2.031 . S
Zn278 O283 2.049 . S
Zn278 O288 2.067 . S
Zn279 O280 1.962 . S
Zn279 O282 1.986 . S
Zn279 O284 1.996 . S
Zn279 O287 1.943 . S
O280 Zn279 1.962 . S
O280 C285 1.254 . S
O281 Zn278 2.031 . S
O281 C285 1.269 . S
O282 Zn279 1.986 . S
O282 C289 1.262 . S
O283 Zn278 2.049 . S
O283 C291 1.260 . S
O284 Zn279 1.996 . S
O284 C291 1.257 . S
C285 O280 1.254 . S
C285 O281 1.269 . S
C286 O287 1.249 . S
C286 O288 1.270 . S
O287 Zn279 1.943 . S
O287 C286 1.249 . S
O288 Zn278 2.067 . S
O288 C286 1.270 . S
C289 O282 1.262 . S
C289 O290 1.232 . S
O290 C289 1.232 . S
C291 O283 1.260 . S
C291 O284 1.257 . S
Zn292 O295 2.031 . S
Zn292 O297 2.049 . S
Zn292 O302 2.067 . S
Zn293 O294 1.962 . S
Zn293 O296 1.986 . S
Zn293 O298 1.996 . S
Zn293 O301 1.943 . S
O294 Zn293 1.962 . S
O294 C299 1.254 . S
O295 Zn292 2.031 . S
O295 C299 1.269 . S
O296 Zn293 1.986 . S
O296 C303 1.262 . S
O297 Zn292 2.049 . S
O297 C305 1.260 . S
O298 Zn293 1.996 . S
O298 C305 1.257 . S
C299 O294 1.254 . S
C299 O295 1.269 . S
C300 O301 1.249 . S
C300 O302 1.270 . S
O301 Zn293 1.943 . S
O301 C300 1.249 . S
O302 Zn292 2.067 . S
O302 C300 1.270 . S
C303 O296 1.262 . S
C303 O304 1.232 . S
O304 C303 1.232 . S
C305 O297 1.260 . S
C305 O298 1.257 . S
Zn306 O309 2.031 1_565 S
Zn306 O311 2.049 . S
Zn306 O316 2.067 . S
Zn307 O308 1.962 . S
Zn307 O310 1.986 . S
Zn307 O312 1.996 1_545 S
Zn307 O315 1.943 . S
O308 Zn307 1.962 . S
O308 C313 1.254 . S
O309 Zn306 2.031 1_545 S
O309 C313 1.269 . S
O310 Zn307 1.986 . S
O310 C317 1.262 . S
O311 Zn306 2.049 . S
O311 C319 1.260 . S
O312 Zn307 1.996 1_565 S
O312 C319 1.257 . S
C313 O308 1.254 . S
C313 O309 1.269 . S
C314 O315 1.249 . S
C314 O316 1.270 1_545 S
O315 Zn307 1.943 . S
O315 C314 1.249 . S
O316 Zn306 2.067 . S
O316 C314 1.270 1_565 S
C317 O310 1.262 . S
C317 O318 1.232 . S
O318 C317 1.232 . S
C319 O311 1.260 . S
C319 O312 1.257 . S
Zn320 O323 2.031 . S
Zn320 O325 2.049 1_455 S
Zn320 O330 2.067 1_455 S
Zn321 O322 1.962 . S
Zn321 O324 1.986 . S
Zn321 O326 1.996 . S
Zn321 O329 1.943 1_455 S
O322 Zn321 1.962 . S
O322 C327 1.254 . S
O323 Zn320 2.031 . S
O323 C327 1.269 . S
O324 Zn321 1.986 . S
O324 C331 1.262 . S
O325 Zn320 2.049 1_655 S
O325 C333 1.260 . S
O326 Zn321 1.996 . S
O326 C333 1.257 1_455 S
C327 O322 1.254 . S
C327 O323 1.269 . S
C328 O329 1.249 . S
C328 O330 1.270 . S
O329 Zn321 1.943 1_655 S
O329 C328 1.249 . S
O330 Zn320 2.067 1_655 S
O330 C328 1.270 . S
C331 O324 1.262 . S
C331 O332 1.232 . S
O332 C331 1.232 . S
C333 O325 1.260 . S
C333 O326 1.257 1_655 S
Zn334 O337 2.031 . S
Zn334 O339 2.049 . S
Zn334 O344 2.067 . S
Zn335 O336 1.962 . S
Zn335 O338 1.986 . S
Zn335 O340 1.996 . S
Zn335 O343 1.943 . S
O336 Zn335 1.962 . S
O336 C341 1.254 . S
O337 Zn334 2.031 . S
O337 C341 1.269 . S
O338 Zn335 1.986 . S
O338 C345 1.262 . S
O339 Zn334 2.049 . S
O339 C347 1.260 . S
O340 Zn335 1.996 . S
O340 C347 1.257 . S
C341 O336 1.254 . S
C341 O337 1.269 . S
C342 O343 1.249 . S
C342 O344 1.270 . S
O343 Zn335 1.943 . S
O343 C342 1.249 . S
O344 Zn334 2.067 . S
O344 C342 1.270 . S
C345 O338 1.262 . S
C345 O346 1.232 . S
O346 C345 1.232 . S
C347 O339 1.260 . S
C347 O340 1.257 . S
Zn348 O351 2.031 1_655 S
Zn348 O353 2.049 . S
Zn348 O358 2.067 . S
Zn349 O350 1.962 . S
Zn349 O352 1.986 . S
Zn349 O354 1.995 . S
Zn349 O357 1.943 . S
O350 Zn349 1.962 . S
O350 C355 1.254 . S
O351 Zn348 2.031 1_455 S
O351 C355 1.269 . S
O352 Zn349 1.986 . S
O352 C359 1.262 . S
O353 Zn348 2.049 . S
O353 C361 1.260 . S
O354 Zn349 1.995 . S
O354 C361 1.258 1_455 S
C355 O350 1.254 . S
C355 O351 1.269 . S
C356 O357 1.249 . S
C356 O358 1.270 1_455 S
O357 Zn349 1.943 . S
O357 C356 1.249 . S
O358 Zn348 2.067 . S
O358 C356 1.270 1_655 S
C359 O352 1.262 . S
C359 O360 1.232 . S
O360 C359 1.232 . S
C361 O353 1.260 . S
C361 O354 1.258 1_655 S
Zn362 O365 2.031 . S
Zn362 O367 2.049 . S
Zn362 O372 2.067 . S
Zn363 O364 1.962 . S
Zn363 O366 1.986 . S
Zn363 O368 1.996 . S
Zn363 O371 1.943 . S
O364 Zn363 1.962 . S
O364 C369 1.254 . S
O365 Zn362 2.031 . S
O365 C369 1.269 . S
O366 Zn363 1.986 . S
O366 C373 1.262 . S
O367 Zn362 2.049 . S
O367 C375 1.260 . S
O368 Zn363 1.996 . S
O368 C375 1.257 . S
C369 O364 1.254 . S
C369 O365 1.269 . S
C370 O371 1.249 . S
C370 O372 1.270 . S
O371 Zn363 1.943 . S
O371 C370 1.249 . S
O372 Zn362 2.067 . S
O372 C370 1.270 . S
C373 O366 1.262 . S
C373 O374 1.232 . S
O374 C373 1.232 . S
C375 O367 1.260 . S
C375 O368 1.257 . S
H376 C384 0.929 . S
H377 C386 0.930 . S
H378 C388 0.930 . S
H379 C391 0.929 . S
H380 C394 0.930 . S
H381 C396 0.960 . S
H382 C396 0.960 . S
H383 C396 0.960 . S
C384 H376 0.929 . S
C384 C385 1.377 . S
C384 C386 1.384 . S
C385 C384 1.377 . S
C385 C391 1.390 . S
C386 H377 0.930 . S
C386 C384 1.384 . S
C386 C387 1.372 . S
C387 C386 1.372 . S
C387 C388 1.400 . S
C387 C392 1.490 . S
C388 H378 0.930 . S
C388 C387 1.400 . S
C388 C391 1.386 . S
H389 C405 0.930 . S
H390 C406 0.931 . S
C391 H379 0.929 . S
C391 C385 1.390 . S
C391 C388 1.386 . S
C392 C387 1.490 . S
C392 C394 1.395 . S
C392 C395 1.403 . S
H393 C399 0.930 . S
C394 H380 0.930 . S
C394 C392 1.395 . S
C394 C397 1.403 . S
C395 C392 1.403 . S
C395 C396 1.524 . S
C395 C399 1.400 . S
C396 H381 0.960 . S
C396 H382 0.960 . S
C396 H383 0.960 . S
C396 C395 1.524 . S
C397 C394 1.403 . S
C397 C398 1.392 . S
C397 C401 1.495 . S
C398 C397 1.392 . S
C398 C399 1.385 . S
C398 C400 1.478 . S
C399 H393 0.930 . S
C399 C395 1.400 . S
C399 C398 1.385 . S
C400 C398 1.478 . S
C400 C402 1.381 . S
C400 C406 1.383 . S
C401 C397 1.495 . S
C401 H407 0.959 . S
C401 H408 0.961 . S
C401 H409 0.960 . S
C402 C400 1.381 . S
C402 C403 1.394 . S
C402 H410 0.930 . S
C403 C402 1.394 . S
C403 C404 1.383 . S
C403 H411 0.929 . S
C404 C403 1.383 . S
C404 C405 1.377 . S
C405 H389 0.930 . S
C405 C404 1.377 . S
C405 C406 1.379 . S
C406 H390 0.931 . S
C406 C400 1.383 . S
C406 C405 1.379 . S
H407 C401 0.959 . S
H408 C401 0.961 . S
H409 C401 0.960 . S
H410 C402 0.930 . S
H411 C403 0.929 . S
H412 C420 0.929 . S
H413 C422 0.930 . S
H414 C424 0.930 . S
H415 C427 0.929 . S
H416 C430 0.930 . S
H417 C432 0.960 . S
H418 C432 0.960 . S
H419 C432 0.960 . S
C420 H412 0.929 . S
C420 C421 1.377 . S
C420 C422 1.384 . S
C421 C420 1.377 . S
C421 C427 1.390 . S
C422 H413 0.930 . S
C422 C420 1.384 . S
C422 C423 1.372 1_655 S
C423 C422 1.372 1_455 S
C423 C424 1.400 . S
C423 C428 1.490 . S
C424 H414 0.930 . S
C424 C423 1.400 . S
C424 C427 1.386 1_455 S
H425 C441 0.930 . S
H426 C442 0.931 . S
C427 H415 0.929 . S
C427 C421 1.390 . S
C427 C424 1.386 1_655 S
C428 C423 1.490 . S
C428 C430 1.395 . S
C428 C431 1.403 . S
H429 C435 0.930 . S
C430 H416 0.930 . S
C430 C428 1.395 . S
C430 C433 1.403 . S
C431 C428 1.403 . S
C431 C432 1.524 . S
C431 C435 1.400 . S
C432 H417 0.960 . S
C432 H418 0.960 . S
C432 H419 0.960 . S
C432 C431 1.524 . S
C433 C430 1.403 . S
C433 C434 1.392 . S
C433 C437 1.495 . S
C434 C433 1.392 . S
C434 C435 1.385 . S
C434 C436 1.478 . S
C435 H429 0.930 . S
C435 C431 1.400 . S
C435 C434 1.385 . S
C436 C434 1.478 . S
C436 C438 1.381 . S
C436 C442 1.383 . S
C437 C433 1.495 . S
C437 H443 0.959 . S
C437 H444 0.961 . S
C437 H445 0.960 . S
C438 C436 1.381 . S
C438 C439 1.394 . S
C438 H446 0.930 . S
C439 C438 1.394 . S
C439 C440 1.383 . S
C439 H447 0.929 . S
C440 C439 1.383 . S
C440 C441 1.377 . S
C441 H425 0.930 . S
C441 C440 1.377 . S
C441 C442 1.379 . S
C442 H426 0.931 . S
C442 C436 1.383 . S
C442 C441 1.379 . S
H443 C437 0.959 . S
H444 C437 0.961 . S
H445 C437 0.960 . S
H446 C438 0.930 . S
H447 C439 0.929 . S
H448 C456 0.929 . S
H449 C458 0.930 . S
H450 C460 0.930 . S
H451 C463 0.929 . S
H452 C466 0.930 . S
H453 C468 0.960 . S
H454 C468 0.960 . S
H455 C468 0.960 . S
C456 H448 0.929 . S
C456 C457 1.377 . S
C456 C458 1.384 . S
C457 C456 1.377 . S
C457 C463 1.390 . S
C458 H449 0.930 . S
C458 C456 1.384 . S
C458 C459 1.372 . S
C459 C458 1.372 . S
C459 C460 1.400 . S
C459 C464 1.490 . S
C460 H450 0.930 . S
C460 C459 1.400 . S
C460 C463 1.386 . S
H461 C477 0.930 . S
H462 C478 0.931 . S
C463 H451 0.929 . S
C463 C457 1.390 . S
C463 C460 1.386 . S
C464 C459 1.490 . S
C464 C466 1.395 . S
C464 C467 1.403 . S
H465 C471 0.930 . S
C466 H452 0.930 . S
C466 C464 1.395 . S
C466 C469 1.403 . S
C467 C464 1.403 . S
C467 C468 1.524 . S
C467 C471 1.400 . S
C468 H453 0.960 . S
C468 H454 0.960 . S
C468 H455 0.960 . S
C468 C467 1.524 . S
C469 C466 1.403 . S
C469 C470 1.392 . S
C469 C473 1.495 . S
C470 C469 1.392 . S
C470 C471 1.385 . S
C470 C472 1.478 . S
C471 H465 0.930 . S
C471 C467 1.400 . S
C471 C470 1.385 . S
C472 C470 1.478 . S
C472 C474 1.381 . S
C472 C478 1.383 . S
C473 C469 1.495 . S
C473 H479 0.959 . S
C473 H480 0.961 . S
C473 H481 0.960 . S
C474 C472 1.381 . S
C474 C475 1.394 . S
C474 H482 0.930 . S
C475 C474 1.394 . S
C475 C476 1.383 . S
C475 H483 0.929 . S
C476 C475 1.383 . S
C476 C477 1.377 . S
C477 H461 0.930 . S
C477 C476 1.377 . S
C477 C478 1.379 . S
C478 H462 0.931 . S
C478 C472 1.383 . S
C478 C477 1.379 . S
H479 C473 0.959 . S
H480 C473 0.961 . S
H481 C473 0.960 . S
H482 C474 0.930 . S
H483 C475 0.929 . S
H484 C492 0.929 . S
H485 C494 0.930 . S
H486 C496 0.930 . S
H487 C499 0.929 . S
H488 C502 0.974 . S
H489 C504 0.960 . S
H490 C504 0.960 1_545 S
H491 C504 0.960 . S
C492 H484 0.929 . S
C492 C493 1.377 . S
C492 C494 1.384 . S
C493 C492 1.377 . S
C493 C499 1.390 . S
C494 H485 0.930 . S
C494 C492 1.384 . S
C494 C495 1.327 1_455 S
C495 C494 1.327 1_655 S
C495 C496 1.406 . S
C495 C500 1.529 . S
C496 H486 0.930 . S
C496 C495 1.406 . S
C496 C499 1.386 1_655 S
H497 C513 0.930 . S
H498 C514 0.931 . S
C499 H487 0.929 . S
C499 C493 1.390 . S
C499 C496 1.386 1_455 S
C500 C495 1.529 . S
C500 C502 1.395 . S
C500 C503 1.403 . S
H501 C507 0.930 . S
C502 H488 0.974 . S
C502 C500 1.395 . S
C502 C505 1.403 . S
C503 C500 1.403 . S
C503 C504 1.524 . S
C503 C507 1.400 . S
C504 H489 0.960 . S
C504 H490 0.960 1_565 S
C504 H491 0.960 . S
C504 C503 1.524 . S
C505 C502 1.403 . S
C505 C506 1.392 . S
C505 C509 1.495 . S
C506 C505 1.392 . S
C506 C507 1.385 . S
C506 C508 1.478 . S
C507 H501 0.930 . S
C507 C503 1.400 . S
C507 C506 1.385 . S
C508 C506 1.478 . S
C508 C510 1.381 1_565 S
C508 C514 1.383 . S
C509 C505 1.495 . S
C509 H515 0.959 . S
C509 H516 0.961 . S
C509 H517 0.960 . S
C510 C508 1.381 1_545 S
C510 C511 1.394 . S
C510 H518 0.930 . S
C511 C510 1.394 . S
C511 C512 1.383 1_545 S
C511 H519 0.929 . S
C512 C511 1.383 1_565 S
C512 C513 1.377 . S
C513 H497 0.930 . S
C513 C512 1.377 . S
C513 C514 1.379 . S
C514 H498 0.931 . S
C514 C508 1.383 . S
C514 C513 1.379 . S
H515 C509 0.959 . S
H516 C509 0.961 . S
H517 C509 0.960 . S
H518 C510 0.930 . S
H519 C511 0.929 . S
H520 C528 0.929 . S
H521 C530 0.930 . S
H522 C532 0.930 . S
H523 C535 0.929 . S
H524 C538 0.930 . S
H525 C540 0.960 . S
H526 C540 0.960 . S
H527 C540 0.960 . S
C528 H520 0.929 . S
C528 C529 1.377 . S
C528 C530 1.384 . S
C529 C528 1.377 . S
C529 C535 1.390 . S
C530 H521 0.930 . S
C530 C528 1.384 . S
C530 C531 1.372 . S
C531 C530 1.372 . S
C531 C532 1.400 . S
C531 C536 1.490 . S
C532 H522 0.930 . S
C532 C531 1.400 . S
C532 C535 1.386 . S
H533 C549 0.930 . S
H534 C550 0.931 . S
C535 H523 0.929 . S
C535 C529 1.390 . S
C535 C532 1.386 . S
C536 C531 1.490 . S
C536 C538 1.395 . S
C536 C539 1.403 . S
H537 C543 0.930 . S
C538 H524 0.930 . S
C538 C536 1.395 . S
C538 C541 1.403 . S
C539 C536 1.403 . S
C539 C540 1.524 . S
C539 C543 1.400 . S
C540 H525 0.960 . S
C540 H526 0.960 . S
C540 H527 0.960 . S
C540 C539 1.524 . S
C541 C538 1.403 . S
C541 C542 1.392 . S
C541 C545 1.495 . S
C542 C541 1.392 . S
C542 C543 1.385 . S
C542 C544 1.478 . S
C543 H537 0.930 . S
C543 C539 1.400 . S
C543 C542 1.385 . S
C544 C542 1.478 . S
C544 C546 1.381 . S
C544 C550 1.383 . S
C545 C541 1.495 . S
C545 H551 0.959 . S
C545 H552 0.961 . S
C545 H553 0.960 . S
C546 C544 1.381 . S
C546 C547 1.394 . S
C546 H554 0.930 . S
C547 C546 1.394 . S
C547 C548 1.383 . S
C547 H555 0.929 . S
C548 C547 1.383 . S
C548 C549 1.377 . S
C549 H533 0.930 . S
C549 C548 1.377 . S
C549 C550 1.379 . S
C550 H534 0.931 . S
C550 C544 1.383 . S
C550 C549 1.379 . S
H551 C545 0.959 . S
H552 C545 0.961 . S
H553 C545 0.960 . S
H554 C546 0.930 . S
H555 C547 0.929 . S
H556 C564 0.929 . S
H557 C566 0.930 . S
H558 C568 0.930 . S
H559 C571 0.929 . S
H560 C574 0.930 . S
H561 C576 0.960 . S
H562 C576 0.960 . S
H563 C576 0.960 . S
C564 H556 0.929 . S
C564 C565 1.377 . S
C564 C566 1.384 . S
C565 C564 1.377 . S
C565 C571 1.390 . S
C566 H557 0.930 . S
C566 C564 1.384 . S
C566 C567 1.372 . S
C567 C566 1.372 . S
C567 C568 1.400 . S
C567 C572 1.490 . S
C568 H558 0.930 . S
C568 C567 1.400 . S
C568 C571 1.386 . S
H569 C585 0.930 . S
H570 C586 0.931 . S
C571 H559 0.929 . S
C571 C565 1.390 . S
C571 C568 1.386 . S
C572 C567 1.490 . S
C572 C574 1.395 . S
C572 C575 1.403 . S
H573 C579 0.930 . S
C574 H560 0.930 . S
C574 C572 1.395 . S
C574 C577 1.403 . S
C575 C572 1.403 . S
C575 C576 1.524 . S
C575 C579 1.400 . S
C576 H561 0.960 . S
C576 H562 0.960 . S
C576 H563 0.960 . S
C576 C575 1.524 . S
C577 C574 1.403 . S
C577 C578 1.392 . S
C577 C581 1.495 . S
C578 C577 1.392 . S
C578 C579 1.385 . S
C578 C580 1.478 . S
C579 H573 0.930 . S
C579 C575 1.400 . S
C579 C578 1.385 . S
C580 C578 1.478 . S
C580 C582 1.381 . S
C580 C586 1.383 . S
C581 C577 1.495 . S
C581 H587 0.959 . S
C581 H588 0.961 . S
C581 H589 0.960 . S
C582 C580 1.381 . S
C582 C583 1.394 . S
C582 H590 0.930 . S
C583 C582 1.394 . S
C583 C584 1.383 . S
C583 H591 0.929 . S
C584 C583 1.383 . S
C584 C585 1.377 . S
C585 H569 0.930 . S
C585 C584 1.377 . S
C585 C586 1.379 . S
C586 H570 0.931 . S
C586 C580 1.383 . S
C586 C585 1.379 . S
H587 C581 0.959 . S
H588 C581 0.961 . S
H589 C581 0.960 . S
H590 C582 0.930 . S
H591 C583 0.929 . S
H592 C600 0.929 . S
H593 C602 0.930 . S
H594 C604 0.930 . S
H595 C607 0.929 . S
H596 C610 0.930 . S
H597 C612 0.960 . S
H598 C612 0.960 . S
H599 C612 0.960 . S
C600 H592 0.929 . S
C600 C601 1.377 . S
C600 C602 1.384 . S
C601 C600 1.377 . S
C601 C607 1.390 . S
C602 H593 0.930 . S
C602 C600 1.384 . S
C602 C603 1.372 . S
C603 C602 1.372 . S
C603 C604 1.400 . S
C603 C608 1.490 . S
C604 H594 0.930 . S
C604 C603 1.400 . S
C604 C607 1.386 . S
H605 C621 0.930 . S
H606 C622 0.931 . S
C607 H595 0.929 . S
C607 C601 1.390 . S
C607 C604 1.386 . S
C608 C603 1.490 . S
C608 C610 1.395 . S
C608 C611 1.403 . S
H609 C615 0.930 . S
C610 H596 0.930 . S
C610 C608 1.395 . S
C610 C613 1.403 . S
C611 C608 1.403 . S
C611 C612 1.524 . S
C611 C615 1.400 . S
C612 H597 0.960 . S
C612 H598 0.960 . S
C612 H599 0.960 . S
C612 C611 1.524 . S
C613 C610 1.403 . S
C613 C614 1.392 . S
C613 C617 1.495 . S
C614 C613 1.392 . S
C614 C615 1.385 . S
C614 C616 1.478 . S
C615 H609 0.930 . S
C615 C611 1.400 . S
C615 C614 1.385 . S
C616 C614 1.478 . S
C616 C618 1.381 . S
C616 C622 1.383 . S
C617 C613 1.495 . S
C617 H623 0.959 . S
C617 H624 0.961 . S
C617 H625 0.960 . S
C618 C616 1.381 . S
C618 C619 1.394 . S
C618 H626 0.930 . S
C619 C618 1.394 . S
C619 C620 1.383 . S
C619 H627 0.929 . S
C620 C619 1.383 . S
C620 C621 1.377 . S
C621 H605 0.930 . S
C621 C620 1.377 . S
C621 C622 1.379 . S
C622 H606 0.931 . S
C622 C616 1.383 . S
C622 C621 1.379 . S
H623 C617 0.959 . S
H624 C617 0.961 . S
H625 C617 0.960 . S
H626 C618 0.930 . S
H627 C619 0.929 . S
H628 C636 0.929 . S
H629 C638 0.930 . S
H630 C640 0.930 . S
H631 C643 0.929 . S
H632 C646 0.930 . S
H633 C648 0.960 . S
H634 C648 0.960 . S
H635 C648 0.960 . S
C636 H628 0.929 . S
C636 C637 1.377 . S
C636 C638 1.384 . S
C637 C636 1.377 . S
C637 C643 1.390 . S
C638 H629 0.930 . S
C638 C636 1.384 . S
C638 C639 1.372 . S
C639 C638 1.372 . S
C639 C640 1.400 . S
C639 C644 1.490 . S
C640 H630 0.930 . S
C640 C639 1.400 . S
C640 C643 1.386 . S
H641 C657 0.920 1_545 S
H642 C658 0.931 . S
C643 H631 0.929 . S
C643 C637 1.390 . S
C643 C640 1.386 . S
C644 C639 1.490 . S
C644 C646 1.395 . S
C644 C647 1.403 . S
H645 C651 0.930 1_545 S
C646 H632 0.930 . S
C646 C644 1.395 . S
C646 C649 1.403 . S
C647 C644 1.403 . S
C647 C648 1.524 1_565 S
C647 C651 1.400 . S
C648 H633 0.960 . S
C648 H634 0.960 . S
C648 H635 0.960 . S
C648 C647 1.524 1_545 S
C649 C646 1.403 . S
C649 C650 1.392 . S
C649 C653 1.495 . S
C650 C649 1.392 . S
C650 C651 1.385 . S
C650 C652 1.478 . S
C651 H645 0.930 1_565 S
C651 C647 1.400 . S
C651 C650 1.385 . S
C652 C650 1.478 . S
C652 C654 1.381 . S
C652 C658 1.383 . S
C653 C649 1.495 . S
C653 H659 0.959 . S
C653 H660 0.961 . S
C653 H661 0.960 . S
C654 C652 1.381 . S
C654 C655 1.394 . S
C654 H662 0.930 . S
C655 C654 1.394 . S
C655 C656 1.383 . S
C655 H663 0.929 . S
C656 C655 1.383 . S
C656 C657 1.382 . S
C657 H641 0.920 1_565 S
C657 C656 1.382 . S
C657 C658 1.384 . S
C658 H642 0.931 . S
C658 C652 1.383 . S
C658 C657 1.384 . S
H659 C653 0.959 . S
H660 C653 0.961 . S
H661 C653 0.960 . S
H662 C654 0.930 . S
H663 C655 0.929 . S
H664 C672 0.929 . S
H665 C674 0.930 . S
H666 C676 0.930 . S
H667 C679 0.929 . S
H668 C682 0.930 . S
H669 C684 0.960 . S
H670 C684 0.960 . S
H671 C684 0.960 . S
C672 H664 0.929 . S
C672 C673 1.377 . S
C672 C674 1.384 . S
C673 C672 1.377 . S
C673 C679 1.390 . S
C674 H665 0.930 . S
C674 C672 1.384 . S
C674 C675 1.372 . S
C675 C674 1.372 . S
C675 C676 1.400 . S
C675 C680 1.490 . S
C676 H666 0.930 . S
C676 C675 1.400 . S
C676 C679 1.386 . S
H677 C693 0.930 . S
H678 C694 0.931 . S
C679 H667 0.929 . S
C679 C673 1.390 . S
C679 C676 1.386 . S
C680 C675 1.490 . S
C680 C682 1.395 . S
C680 C683 1.403 . S
H681 C687 0.930 . S
C682 H668 0.930 . S
C682 C680 1.395 . S
C682 C685 1.403 . S
C683 C680 1.403 . S
C683 C684 1.524 . S
C683 C687 1.400 . S
C684 H669 0.960 . S
C684 H670 0.960 . S
C684 H671 0.960 . S
C684 C683 1.524 . S
C685 C682 1.403 . S
C685 C686 1.392 . S
C685 C689 1.495 . S
C686 C685 1.392 . S
C686 C687 1.385 . S
C686 C688 1.478 . S
C687 H681 0.930 . S
C687 C683 1.400 . S
C687 C686 1.385 . S
C688 C686 1.478 . S
C688 C690 1.381 . S
C688 C694 1.383 . S
C689 C685 1.495 . S
C689 H695 0.959 . S
C689 H696 0.961 . S
C689 H697 0.960 . S
C690 C688 1.381 . S
C690 C691 1.394 . S
C690 H698 0.930 . S
C691 C690 1.394 . S
C691 C692 1.383 . S
C691 H699 0.929 . S
C692 C691 1.383 . S
C692 C693 1.377 . S
C693 H677 0.930 . S
C693 C692 1.377 . S
C693 C694 1.379 . S
C694 H678 0.931 . S
C694 C688 1.383 . S
C694 C693 1.379 . S
H695 C689 0.959 . S
H696 C689 0.961 . S
H697 C689 0.960 . S
H698 C690 0.930 . S
H699 C691 0.929 . S
H700 C708 0.929 . S
H701 C710 0.930 . S
H702 C712 0.930 . S
H703 C715 0.929 . S
H704 C718 0.930 . S
H705 C720 0.960 . S
H706 C720 0.960 . S
H707 C720 0.960 . S
C708 H700 0.929 . S
C708 C709 1.377 . S
C708 C710 1.384 . S
C709 C708 1.377 . S
C709 C715 1.390 . S
C710 H701 0.930 . S
C710 C708 1.384 . S
C710 C711 1.372 . S
C711 C710 1.372 . S
C711 C712 1.400 . S
C711 C716 1.490 . S
C712 H702 0.930 . S
C712 C711 1.400 . S
C712 C715 1.386 . S
H713 C729 0.930 . S
H714 C730 0.931 . S
C715 H703 0.929 . S
C715 C709 1.390 . S
C715 C712 1.386 . S
C716 C711 1.490 . S
C716 C718 1.395 . S
C716 C719 1.403 . S
H717 C723 0.930 . S
C718 H704 0.930 . S
C718 C716 1.395 . S
C718 C721 1.403 . S
C719 C716 1.403 . S
C719 C720 1.524 . S
C719 C723 1.400 . S
C720 H705 0.960 . S
C720 H706 0.960 . S
C720 H707 0.960 . S
C720 C719 1.524 . S
C721 C718 1.403 . S
C721 C722 1.392 . S
C721 C725 1.495 . S
C722 C721 1.392 . S
C722 C723 1.385 . S
C722 C724 1.478 . S
C723 H717 0.930 . S
C723 C719 1.400 . S
C723 C722 1.385 . S
C724 C722 1.478 . S
C724 C726 1.381 . S
C724 C730 1.383 . S
C725 C721 1.495 . S
C725 H731 0.959 . S
C725 H732 0.961 . S
C725 H733 0.960 . S
C726 C724 1.381 . S
C726 C727 1.394 . S
C726 H734 0.930 . S
C727 C726 1.394 . S
C727 C728 1.383 . S
C727 H735 0.929 . S
C728 C727 1.383 . S
C728 C729 1.377 . S
C729 H713 0.930 . S
C729 C728 1.377 . S
C729 C730 1.379 . S
C730 H714 0.931 . S
C730 C724 1.383 . S
C730 C729 1.379 . S
H731 C725 0.959 . S
H732 C725 0.961 . S
H733 C725 0.960 . S
H734 C726 0.930 . S
H735 C727 0.929 . S
H736 C744 0.929 . S
H737 C746 0.930 . S
H738 C748 0.930 . S
H739 C751 0.929 . S
H740 C754 0.930 . S
H741 C756 0.960 . S
H742 C756 0.960 . S
H743 C756 0.960 . S
C744 H736 0.929 . S
C744 C745 1.377 . S
C744 C746 1.384 . S
C745 C744 1.377 . S
C745 C751 1.390 . S
C746 H737 0.930 . S
C746 C744 1.384 . S
C746 C747 1.372 . S
C747 C746 1.372 . S
C747 C748 1.400 . S
C747 C752 1.490 . S
C748 H738 0.930 . S
C748 C747 1.400 . S
C748 C751 1.386 . S
H749 C765 0.930 . S
H750 C766 0.931 . S
C751 H739 0.929 . S
C751 C745 1.390 . S
C751 C748 1.386 . S
C752 C747 1.490 . S
C752 C754 1.395 . S
C752 C755 1.403 . S
H753 C759 0.930 . S
C754 H740 0.930 . S
C754 C752 1.395 . S
C754 C757 1.403 . S
C755 C752 1.403 . S
C755 C756 1.524 . S
C755 C759 1.400 . S
C756 H741 0.960 . S
C756 H742 0.960 . S
C756 H743 0.960 . S
C756 C755 1.524 . S
C757 C754 1.403 . S
C757 C758 1.392 . S
C757 C761 1.495 . S
C758 C757 1.392 . S
C758 C759 1.385 . S
C758 C760 1.478 . S
C759 H753 0.930 . S
C759 C755 1.400 . S
C759 C758 1.385 . S
C760 C758 1.478 . S
C760 C762 1.381 . S
C760 C766 1.383 . S
C761 C757 1.495 . S
C761 H767 0.959 . S
C761 H768 0.961 . S
C761 H769 0.960 . S
C762 C760 1.381 . S
C762 C763 1.394 . S
C762 H770 0.930 . S
C763 C762 1.394 . S
C763 C764 1.383 . S
C763 H771 0.929 . S
C764 C763 1.383 . S
C764 C765 1.377 . S
C765 H749 0.930 . S
C765 C764 1.377 . S
C765 C766 1.379 . S
C766 H750 0.931 . S
C766 C760 1.383 . S
C766 C765 1.379 . S
H767 C761 0.959 . S
H768 C761 0.961 . S
H769 C761 0.960 . S
H770 C762 0.930 . S
H771 C763 0.929 . S
H772 C780 0.929 . S
H773 C782 0.930 . S
H774 C784 0.930 . S
H775 C787 0.929 . S
H776 C790 0.930 . S
H777 C792 0.960 . S
H778 C792 0.960 . S
H779 C792 0.960 . S
C780 H772 0.929 . S
C780 C781 1.377 . S
C780 C782 1.384 . S
C781 C780 1.377 . S
C781 C787 1.390 . S
C782 H773 0.930 . S
C782 C780 1.384 . S
C782 C783 1.372 . S
C783 C782 1.372 . S
C783 C784 1.400 . S
C783 C788 1.490 . S
C784 H774 0.930 . S
C784 C783 1.400 . S
C784 C787 1.386 . S
H785 C801 0.930 . S
H786 C802 0.931 . S
C787 H775 0.929 . S
C787 C781 1.390 . S
C787 C784 1.386 . S
C788 C783 1.490 . S
C788 C790 1.395 . S
C788 C791 1.403 . S
H789 C795 0.930 . S
C790 H776 0.930 . S
C790 C788 1.395 . S
C790 C793 1.403 . S
C791 C788 1.403 . S
C791 C792 1.524 . S
C791 C795 1.400 . S
C792 H777 0.960 . S
C792 H778 0.960 . S
C792 H779 0.960 . S
C792 C791 1.524 . S
C793 C790 1.403 . S
C793 C794 1.392 . S
C793 C797 1.495 . S
C794 C793 1.392 . S
C794 C795 1.385 . S
C794 C796 1.478 . S
C795 H789 0.930 . S
C795 C791 1.400 . S
C795 C794 1.385 . S
C796 C794 1.478 . S
C796 C798 1.381 . S
C796 C802 1.383 . S
C797 C793 1.495 . S
C797 H803 0.959 . S
C797 H804 0.961 . S
C797 H805 0.960 . S
C798 C796 1.381 . S
C798 C799 1.394 . S
C798 H806 0.930 . S
C799 C798 1.394 . S
C799 C800 1.383 . S
C799 H807 0.929 . S
C800 C799 1.383 . S
C800 C801 1.377 . S
C801 H785 0.930 . S
C801 C800 1.377 . S
C801 C802 1.379 . S
C802 H786 0.931 . S
C802 C796 1.383 . S
C802 C801 1.379 . S
H803 C797 0.959 . S
H804 C797 0.961 . S
H805 C797 0.960 . S
H806 C798 0.930 . S
H807 C799 0.929 . S
H808 C816 0.929 . S
H809 C818 0.930 . S
H810 C820 0.930 . S
H811 C823 0.929 . S
H812 C826 0.930 . S
H813 C828 0.960 . S
H814 C828 0.960 . S
H815 C828 0.960 . S
C816 H808 0.929 . S
C816 C817 1.377 . S
C816 C818 1.384 . S
C817 C816 1.377 . S
C817 C823 1.390 . S
C818 H809 0.930 . S
C818 C816 1.384 . S
C818 C819 1.372 . S
C819 C818 1.372 . S
C819 C820 1.400 . S
C819 C824 1.490 . S
C820 H810 0.930 . S
C820 C819 1.400 . S
C820 C823 1.386 . S
H821 C837 0.930 . S
H822 C838 0.931 . S
C823 H811 0.929 . S
C823 C817 1.390 . S
C823 C820 1.386 . S
C824 C819 1.490 . S
C824 C826 1.395 . S
C824 C827 1.403 . S
H825 C831 0.930 . S
C826 H812 0.930 . S
C826 C824 1.395 . S
C826 C829 1.403 . S
C827 C824 1.403 . S
C827 C828 1.524 . S
C827 C831 1.400 . S
C828 H813 0.960 . S
C828 H814 0.960 . S
C828 H815 0.960 . S
C828 C827 1.524 . S
C829 C826 1.403 . S
C829 C830 1.392 . S
C829 C833 1.495 . S
C830 C829 1.392 . S
C830 C831 1.385 . S
C830 C832 1.478 . S
C831 H825 0.930 . S
C831 C827 1.400 . S
C831 C830 1.385 . S
C832 C830 1.478 . S
C832 C834 1.381 . S
C832 C838 1.383 . S
C833 C829 1.495 . S
C833 H839 0.959 . S
C833 H840 0.961 . S
C833 H841 0.960 . S
C834 C832 1.381 . S
C834 C835 1.394 . S
C834 H842 0.930 . S
C835 C834 1.394 . S
C835 C836 1.383 . S
C835 H843 0.929 . S
C836 C835 1.383 . S
C836 C837 1.377 . S
C837 H821 0.930 . S
C837 C836 1.377 . S
C837 C838 1.379 . S
C838 H822 0.931 . S
C838 C832 1.383 . S
C838 C837 1.379 . S
H839 C833 0.959 . S
H840 C833 0.961 . S
H841 C833 0.960 . S
H842 C834 0.930 . S
H843 C835 0.929 . S
H844 C852 0.929 . S
H845 C854 0.930 . S
H846 C856 0.930 . S
H847 C859 0.929 . S
H848 C862 0.930 . S
H849 C864 0.960 . S
H850 C864 0.960 . S
H851 C864 0.960 . S
C852 H844 0.929 . S
C852 C853 1.377 . S
C852 C854 1.384 . S
C853 C852 1.377 . S
C853 C859 1.390 . S
C854 H845 0.930 . S
C854 C852 1.384 . S
C854 C855 1.372 . S
C855 C854 1.372 . S
C855 C856 1.400 . S
C855 C860 1.490 . S
C856 H846 0.930 . S
C856 C855 1.400 . S
C856 C859 1.386 . S
H857 C873 0.930 . S
H858 C874 0.931 . S
C859 H847 0.929 . S
C859 C853 1.390 . S
C859 C856 1.386 . S
C860 C855 1.490 . S
C860 C862 1.395 . S
C860 C863 1.403 . S
H861 C867 0.930 . S
C862 H848 0.930 . S
C862 C860 1.395 . S
C862 C865 1.403 . S
C863 C860 1.403 . S
C863 C864 1.524 . S
C863 C867 1.400 . S
C864 H849 0.960 . S
C864 H850 0.960 . S
C864 H851 0.960 . S
C864 C863 1.524 . S
C865 C862 1.403 . S
C865 C866 1.392 . S
C865 C869 1.495 . S
C866 C865 1.392 . S
C866 C867 1.385 . S
C866 C868 1.478 . S
C867 H861 0.930 . S
C867 C863 1.400 . S
C867 C866 1.385 . S
C868 C866 1.478 . S
C868 C870 1.381 . S
C868 C874 1.383 . S
C869 C865 1.495 . S
C869 H875 0.959 . S
C869 H876 0.961 . S
C869 H877 0.960 . S
C870 C868 1.381 . S
C870 C871 1.394 . S
C870 H878 0.930 . S
C871 C870 1.394 . S
C871 C872 1.383 . S
C871 H879 0.929 . S
C872 C871 1.383 . S
C872 C873 1.377 . S
C873 H857 0.930 . S
C873 C872 1.377 . S
C873 C874 1.379 . S
C874 H858 0.931 . S
C874 C868 1.383 . S
C874 C873 1.379 . S
H875 C869 0.959 . S
H876 C869 0.961 . S
H877 C869 0.960 . S
H878 C870 0.930 . S
H879 C871 0.929 . S
H880 C888 0.929 . S
H881 C890 0.930 . S
H882 C892 0.930 . S
H883 C895 0.929 . S
H884 C898 0.930 . S
H885 C900 0.960 . S
H886 C900 0.960 . S
H887 C900 0.960 . S
C888 H880 0.929 . S
C888 C889 1.377 . S
C888 C890 1.384 . S
C889 C888 1.377 . S
C889 C895 1.390 . S
C890 H881 0.930 . S
C890 C888 1.384 . S
C890 C891 1.372 . S
C891 C890 1.372 . S
C891 C892 1.400 . S
C891 C896 1.490 . S
C892 H882 0.930 . S
C892 C891 1.400 . S
C892 C895 1.386 . S
H893 C909 0.930 . S
H894 C910 0.931 . S
C895 H883 0.929 . S
C895 C889 1.390 . S
C895 C892 1.386 . S
C896 C891 1.490 . S
C896 C898 1.395 . S
C896 C899 1.403 . S
H897 C903 0.930 . S
C898 H884 0.930 . S
C898 C896 1.395 . S
C898 C901 1.403 . S
C899 C896 1.403 . S
C899 C900 1.524 . S
C899 C903 1.400 . S
C900 H885 0.960 . S
C900 H886 0.960 . S
C900 H887 0.960 . S
C900 C899 1.524 . S
C901 C898 1.403 . S
C901 C902 1.392 . S
C901 C905 1.495 . S
C902 C901 1.392 . S
C902 C903 1.385 . S
C902 C904 1.478 . S
C903 H897 0.930 . S
C903 C899 1.400 . S
C903 C902 1.385 . S
C904 C902 1.478 . S
C904 C906 1.381 . S
C904 C910 1.383 . S
C905 C901 1.495 . S
C905 H911 0.959 . S
C905 H912 0.961 . S
C905 H913 0.960 . S
C906 C904 1.381 . S
C906 C907 1.394 . S
C906 H914 0.930 . S
C907 C906 1.394 . S
C907 C908 1.383 . S
C907 H915 0.929 . S
C908 C907 1.383 . S
C908 C909 1.377 . S
C909 H893 0.930 . S
C909 C908 1.377 . S
C909 C910 1.379 . S
C910 H894 0.931 . S
C910 C904 1.383 . S
C910 C909 1.379 . S
H911 C905 0.959 . S
H912 C905 0.961 . S
H913 C905 0.960 . S
H914 C906 0.930 . S
H915 C907 0.929 . S
H916 C924 0.929 . S
H917 C926 0.930 . S
H918 C928 0.930 . S
H919 C931 0.929 . S
H920 C934 0.930 . S
H921 C936 0.960 . S
H922 C936 0.960 . S
H923 C936 0.960 . S
C924 H916 0.929 . S
C924 C925 1.377 . S
C924 C926 1.384 . S
C925 C924 1.377 . S
C925 C931 1.390 . S
C926 H917 0.930 . S
C926 C924 1.384 . S
C926 C927 1.372 . S
C927 C926 1.372 . S
C927 C928 1.400 . S
C927 C932 1.490 . S
C928 H918 0.930 . S
C928 C927 1.400 . S
C928 C931 1.386 . S
H929 C945 0.930 . S
H930 C946 0.931 . S
C931 H919 0.929 . S
C931 C925 1.390 . S
C931 C928 1.386 . S
C932 C927 1.490 . S
C932 C934 1.395 . S
C932 C935 1.403 . S
H933 C939 0.930 . S
C934 H920 0.930 . S
C934 C932 1.395 . S
C934 C937 1.403 . S
C935 C932 1.403 . S
C935 C936 1.524 . S
C935 C939 1.400 . S
C936 H921 0.960 . S
C936 H922 0.960 . S
C936 H923 0.960 . S
C936 C935 1.524 . S
C937 C934 1.403 . S
C937 C938 1.392 . S
C937 C941 1.495 . S
C938 C937 1.392 . S
C938 C939 1.385 . S
C938 C940 1.478 . S
C939 H933 0.930 . S
C939 C935 1.400 . S
C939 C938 1.385 . S
C940 C938 1.478 . S
C940 C942 1.381 . S
C940 C946 1.383 1_655 S
C941 C937 1.495 . S
C941 H947 0.959 . S
C941 H948 0.961 1_655 S
C941 H949 0.960 . S
C942 C940 1.381 . S
C942 C943 1.394 . S
C942 H950 0.930 . S
C943 C942 1.394 . S
C943 C944 1.383 1_655 S
C943 H951 0.929 . S
C944 C943 1.383 1_455 S
C944 C945 1.377 . S
C945 H929 0.930 . S
C945 C944 1.377 . S
C945 C946 1.379 . S
C946 H930 0.931 . S
C946 C940 1.383 1_455 S
C946 C945 1.379 . S
H947 C941 0.959 . S
H948 C941 0.961 1_455 S
H949 C941 0.960 . S
H950 C942 0.930 . S
H951 C943 0.929 . S
H952 C960 0.929 . S
H953 C962 0.930 . S
H954 C964 0.930 . S
H955 C967 0.929 . S
H956 C970 0.930 . S
H957 C972 0.960 . S
H958 C972 0.960 . S
H959 C972 0.960 . S
C960 H952 0.929 . S
C960 C961 1.377 . S
C960 C962 1.384 . S
C961 C960 1.377 . S
C961 C967 1.390 . S
C962 H953 0.930 . S
C962 C960 1.384 . S
C962 C963 1.372 . S
C963 C962 1.372 . S
C963 C964 1.400 . S
C963 C968 1.490 . S
C964 H954 0.930 . S
C964 C963 1.400 . S
C964 C967 1.386 . S
H965 C981 0.930 . S
H966 C982 0.931 . S
C967 H955 0.929 . S
C967 C961 1.390 . S
C967 C964 1.386 . S
C968 C963 1.490 . S
C968 C970 1.395 . S
C968 C971 1.403 . S
H969 C975 0.930 . S
C970 H956 0.930 . S
C970 C968 1.395 . S
C970 C973 1.403 . S
C971 C968 1.403 . S
C971 C972 1.524 . S
C971 C975 1.400 . S
C972 H957 0.960 . S
C972 H958 0.960 . S
C972 H959 0.960 . S
C972 C971 1.524 . S
C973 C970 1.403 . S
C973 C974 1.392 . S
C973 C977 1.495 . S
C974 C973 1.392 . S
C974 C975 1.385 . S
C974 C976 1.478 . S
C975 H969 0.930 . S
C975 C971 1.400 . S
C975 C974 1.385 . S
C976 C974 1.478 . S
C976 C978 1.381 . S
C976 C982 1.383 . S
C977 C973 1.495 . S
C977 H983 0.959 . S
C977 H984 0.961 . S
C977 H985 0.960 . S
C978 C976 1.381 . S
C978 C979 1.394 . S
C978 H986 0.930 . S
C979 C978 1.394 . S
C979 C980 1.383 . S
C979 H987 0.929 . S
C980 C979 1.383 . S
C980 C981 1.377 . S
C981 H965 0.930 . S
C981 C980 1.377 . S
C981 C982 1.379 . S
C982 H966 0.931 . S
C982 C976 1.383 . S
C982 C981 1.379 . S
H983 C977 0.959 . S
H984 C977 0.961 . S
H985 C977 0.960 . S
H986 C978 0.930 . S
H987 C979 0.929 . S
H988 C996 0.929 . S
H989 C998 0.930 . S
H990 C1000 0.930 . S
H991 C1003 0.929 . S
H992 C1006 0.930 . S
H993 C1008 0.960 . S
H994 C1008 0.960 . S
H995 C1008 0.960 . S
C996 H988 0.929 . S
C996 C997 1.377 . S
C996 C998 1.384 . S
C997 C996 1.377 . S
C997 C1003 1.390 . S
C998 H989 0.930 . S
C998 C996 1.384 . S
C998 C999 1.372 . S
C999 C998 1.372 . S
C999 C1000 1.400 . S
C999 C1004 1.490 . S
C1000 H990 0.930 . S
C1000 C999 1.400 . S
C1000 C1003 1.386 . S
H1001 C1017 0.930 . S
H1002 C1018 0.931 . S
C1003 H991 0.929 . S
C1003 C997 1.390 . S
C1003 C1000 1.386 . S
C1004 C999 1.490 . S
C1004 C1006 1.395 . S
C1004 C1007 1.403 . S
H1005 C1011 0.930 . S
C1006 H992 0.930 . S
C1006 C1004 1.395 . S
C1006 C1009 1.403 . S
C1007 C1004 1.403 . S
C1007 C1008 1.524 . S
C1007 C1011 1.400 . S
C1008 H993 0.960 . S
C1008 H994 0.960 . S
C1008 H995 0.960 . S
C1008 C1007 1.524 . S
C1009 C1006 1.403 . S
C1009 C1010 1.392 . S
C1009 C1013 1.495 . S
C1010 C1009 1.392 . S
C1010 C1011 1.385 . S
C1010 C1012 1.478 . S
C1011 H1005 0.930 . S
C1011 C1007 1.400 . S
C1011 C1010 1.385 . S
C1012 C1010 1.478 . S
C1012 C1014 1.381 . S
C1012 C1018 1.383 . S
C1013 C1009 1.495 . S
C1013 H1019 0.959 . S
C1013 H1020 0.961 . S
C1013 H1021 0.960 . S
C1014 C1012 1.381 . S
C1014 C1015 1.394 . S
C1014 H1022 0.930 . S
C1015 C1014 1.394 . S
C1015 C1016 1.383 . S
C1015 H1023 0.929 . S
C1016 C1015 1.383 . S
C1016 C1017 1.377 . S
C1017 H1001 0.930 . S
C1017 C1016 1.377 . S
C1017 C1018 1.379 . S
C1018 H1002 0.931 . S
C1018 C1012 1.383 . S
C1018 C1017 1.379 . S
H1019 C1013 0.959 . S
H1020 C1013 0.961 . S
H1021 C1013 0.960 . S
H1022 C1014 0.930 . S
H1023 C1015 0.929 . S
H1024 C1032 0.929 . S
H1025 C1034 0.930 . S
H1026 C1036 0.930 . S
H1027 C1039 0.929 . S
H1028 C1042 0.930 . S
H1029 C1044 0.960 . S
H1030 C1044 0.960 . S
H1031 C1044 0.960 . S
C1032 H1024 0.929 . S
C1032 C1033 1.377 . S
C1032 C1034 1.384 . S
C1033 C1032 1.377 . S
C1033 C1039 1.390 . S
C1034 H1025 0.930 . S
C1034 C1032 1.384 . S
C1034 C1035 1.372 . S
C1035 C1034 1.372 . S
C1035 C1036 1.400 . S
C1035 C1040 1.490 1_545 S
C1036 H1026 0.930 . S
C1036 C1035 1.400 . S
C1036 C1039 1.386 . S
H1037 C1053 0.930 . S
H1038 C1054 0.931 1_554 S
C1039 H1027 0.929 . S
C1039 C1033 1.390 . S
C1039 C1036 1.386 . S
C1040 C1035 1.490 1_565 S
C1040 C1042 1.395 . S
C1040 C1043 1.403 . S
H1041 C1047 0.930 1_554 S
C1042 H1028 0.930 . S
C1042 C1040 1.395 . S
C1042 C1045 1.403 . S
C1043 C1040 1.403 . S
C1043 C1044 1.524 1_566 S
C1043 C1047 1.400 . S
C1044 H1029 0.960 . S
C1044 H1030 0.960 . S
C1044 H1031 0.960 . S
C1044 C1043 1.524 1_544 S
C1045 C1042 1.403 . S
C1045 C1046 1.392 . S
C1045 C1049 1.495 . S
C1046 C1045 1.392 . S
C1046 C1047 1.385 . S
C1046 C1048 1.478 . S
C1047 H1041 0.930 1_556 S
C1047 C1043 1.400 . S
C1047 C1046 1.385 . S
C1048 C1046 1.478 . S
C1048 C1050 1.381 . S
C1048 C1054 1.383 . S
C1049 C1045 1.495 . S
C1049 H1055 0.959 . S
C1049 H1056 0.961 . S
C1049 H1057 0.960 . S
C1050 C1048 1.381 . S
C1050 C1051 1.394 . S
C1050 H1058 0.930 . S
C1051 C1050 1.394 . S
C1051 C1052 1.383 . S
C1051 H1059 0.929 . S
C1052 C1051 1.383 . S
C1052 C1053 1.377 1_556 S
C1053 H1037 0.930 . S
C1053 C1052 1.377 1_554 S
C1053 C1054 1.379 1_554 S
C1054 H1038 0.931 1_556 S
C1054 C1048 1.383 . S
C1054 C1053 1.379 1_556 S
H1055 C1049 0.959 . S
H1056 C1049 0.961 . S
H1057 C1049 0.960 . S
H1058 C1050 0.930 . S
H1059 C1051 0.929 . S
H1060 C1068 0.929 . S
H1061 C1070 0.930 . S
H1062 C1072 0.930 . S
H1063 C1075 0.929 . S
H1064 C1078 0.930 . S
H1065 C1080 0.960 . S
H1066 C1080 0.960 . S
H1067 C1080 0.960 . S
C1068 H1060 0.929 . S
C1068 C1069 1.377 . S
C1068 C1070 1.384 . S
C1069 C1068 1.377 . S
C1069 C1075 1.390 . S
C1070 H1061 0.930 . S
C1070 C1068 1.384 . S
C1070 C1071 1.372 . S
C1071 C1070 1.372 . S
C1071 C1072 1.400 . S
C1071 C1076 1.490 . S
C1072 H1062 0.930 . S
C1072 C1071 1.400 . S
C1072 C1075 1.386 . S
H1073 C1089 0.930 . S
H1074 C1090 0.931 . S
C1075 H1063 0.929 . S
C1075 C1069 1.390 . S
C1075 C1072 1.386 . S
C1076 C1071 1.490 . S
C1076 C1078 1.395 . S
C1076 C1079 1.403 . S
H1077 C1083 0.930 . S
C1078 H1064 0.930 . S
C1078 C1076 1.395 . S
C1078 C1081 1.403 . S
C1079 C1076 1.403 . S
C1079 C1080 1.524 . S
C1079 C1083 1.400 . S
C1080 H1065 0.960 . S
C1080 H1066 0.960 . S
C1080 H1067 0.960 . S
C1080 C1079 1.524 . S
C1081 C1078 1.403 . S
C1081 C1082 1.392 . S
C1081 C1085 1.495 . S
C1082 C1081 1.392 . S
C1082 C1083 1.385 . S
C1082 C1084 1.478 . S
C1083 H1077 0.930 . S
C1083 C1079 1.400 . S
C1083 C1082 1.385 . S
C1084 C1082 1.478 . S
C1084 C1086 1.381 . S
C1084 C1090 1.383 . S
C1085 C1081 1.495 . S
C1085 H1091 0.959 . S
C1085 H1092 0.961 . S
C1085 H1093 0.960 . S
C1086 C1084 1.381 . S
C1086 C1087 1.394 . S
C1086 H1094 0.930 . S
C1087 C1086 1.394 . S
C1087 C1088 1.383 . S
C1087 H1095 0.929 . S
C1088 C1087 1.383 . S
C1088 C1089 1.377 . S
C1089 H1073 0.930 . S
C1089 C1088 1.377 . S
C1089 C1090 1.379 . S
C1090 H1074 0.931 . S
C1090 C1084 1.383 . S
C1090 C1089 1.379 . S
H1091 C1085 0.959 . S
H1092 C1085 0.961 . S
H1093 C1085 0.960 . S
H1094 C1086 0.930 . S
H1095 C1087 0.929 . S
H1096 C1104 0.929 . S
H1097 C1106 0.930 . S
H1098 C1108 0.930 . S
H1099 C1111 0.929 . S
H1100 C1114 0.908 1_565 S
H1101 C1116 0.960 . S
H1102 C1116 0.960 . S
H1103 C1116 0.960 . S
C1104 H1096 0.929 . S
C1104 C1105 1.377 . S
C1104 C1106 1.384 . S
C1105 C1104 1.377 . S
C1105 C1111 1.390 . S
C1106 H1097 0.930 . S
C1106 C1104 1.384 . S
C1106 C1107 1.372 1_565 S
C1107 C1106 1.372 1_545 S
C1107 C1108 1.400 . S
C1107 C1112 1.490 . S
C1108 H1098 0.930 . S
C1108 C1107 1.400 . S
C1108 C1111 1.386 1_545 S
H1109 C1125 0.930 . S
H1110 C1126 0.931 . S
C1111 H1099 0.929 . S
C1111 C1105 1.390 . S
C1111 C1108 1.386 1_565 S
C1112 C1107 1.490 . S
C1112 C1114 1.395 . S
C1112 C1115 1.403 . S
H1113 C1119 0.930 . S
C1114 H1100 0.908 1_545 S
C1114 C1112 1.395 . S
C1114 C1117 1.403 . S
C1115 C1112 1.403 . S
C1115 C1116 1.524 . S
C1115 C1119 1.400 . S
C1116 H1101 0.960 . S
C1116 H1102 0.960 . S
C1116 H1103 0.960 . S
C1116 C1115 1.524 . S
C1117 C1114 1.403 . S
C1117 C1118 1.392 . S
C1117 C1121 1.495 . S
C1118 C1117 1.392 . S
C1118 C1119 1.385 . S
C1118 C1120 1.478 . S
C1119 H1113 0.930 . S
C1119 C1115 1.400 . S
C1119 C1118 1.385 . S
C1120 C1118 1.478 . S
C1120 C1122 1.381 . S
C1120 C1126 1.383 . S
C1121 C1117 1.495 . S
C1121 H1127 0.967 . S
C1121 H1128 0.961 . S
C1121 H1129 0.960 . S
C1122 C1120 1.381 . S
C1122 C1123 1.394 . S
C1122 H1130 0.930 . S
C1123 C1122 1.394 . S
C1123 C1124 1.383 . S
C1123 H1131 0.929 . S
C1124 C1123 1.383 . S
C1124 C1125 1.377 . S
C1125 H1109 0.930 . S
C1125 C1124 1.377 . S
C1125 C1126 1.379 . S
C1126 H1110 0.931 . S
C1126 C1120 1.383 . S
C1126 C1125 1.379 . S
H1127 C1121 0.967 . S
H1128 C1121 0.961 . S
H1129 C1121 0.960 . S
H1130 C1122 0.930 . S
H1131 C1123 0.929 . S
H1132 C1140 0.929 . S
H1133 C1142 0.930 . S
H1134 C1144 0.930 . S
H1135 C1147 0.929 . S
H1136 C1150 0.930 . S
H1137 C1152 0.960 . S
H1138 C1152 0.960 . S
H1139 C1152 0.960 . S
C1140 H1132 0.929 . S
C1140 C1141 1.377 . S
C1140 C1142 1.384 . S
C1141 C1140 1.377 . S
C1141 C1147 1.390 . S
C1142 H1133 0.930 . S
C1142 C1140 1.384 . S
C1142 C1143 1.372 . S
C1143 C1142 1.372 . S
C1143 C1144 1.400 . S
C1143 C1148 1.490 . S
C1144 H1134 0.930 . S
C1144 C1143 1.400 . S
C1144 C1147 1.386 . S
H1145 C1161 0.930 . S
H1146 C1162 0.931 . S
C1147 H1135 0.929 . S
C1147 C1141 1.390 . S
C1147 C1144 1.386 . S
C1148 C1143 1.490 . S
C1148 C1150 1.395 . S
C1148 C1151 1.403 . S
H1149 C1155 0.930 . S
C1150 H1136 0.930 . S
C1150 C1148 1.395 . S
C1150 C1153 1.403 . S
C1151 C1148 1.403 . S
C1151 C1152 1.524 . S
C1151 C1155 1.400 . S
C1152 H1137 0.960 . S
C1152 H1138 0.960 . S
C1152 H1139 0.960 . S
C1152 C1151 1.524 . S
C1153 C1150 1.403 . S
C1153 C1154 1.392 . S
C1153 C1157 1.495 . S
C1154 C1153 1.392 . S
C1154 C1155 1.385 . S
C1154 C1156 1.478 . S
C1155 H1149 0.930 . S
C1155 C1151 1.400 . S
C1155 C1154 1.385 . S
C1156 C1154 1.478 . S
C1156 C1158 1.381 . S
C1156 C1162 1.383 . S
C1157 C1153 1.495 . S
C1157 H1163 0.959 . S
C1157 H1164 0.961 . S
C1157 H1165 0.960 . S
C1158 C1156 1.381 . S
C1158 C1159 1.394 . S
C1158 H1166 0.930 . S
C1159 C1158 1.394 . S
C1159 C1160 1.383 . S
C1159 H1167 0.929 . S
C1160 C1159 1.383 . S
C1160 C1161 1.377 . S
C1161 H1145 0.930 . S
C1161 C1160 1.377 . S
C1161 C1162 1.379 . S
C1162 H1146 0.931 . S
C1162 C1156 1.383 . S
C1162 C1161 1.379 . S
H1163 C1157 0.959 . S
H1164 C1157 0.961 . S
H1165 C1157 0.960 . S
H1166 C1158 0.930 . S
H1167 C1159 0.929 . S
H1168 C1176 0.929 . S
H1169 C1178 0.929 . S
H1170 C1180 0.930 . S
H1171 C1183 0.929 . S
H1172 C1186 0.930 . S
H1173 C1188 0.960 . S
H1174 C1188 0.960 . S
H1175 C1188 0.960 . S
C1176 H1168 0.929 . S
C1176 C1177 1.377 . S
C1176 C1178 1.397 . S
C1177 C1176 1.377 . S
C1177 C1183 1.390 1_565 S
C1178 H1169 0.929 . S
C1178 C1176 1.397 . S
C1178 C1179 1.361 1_565 S
C1179 C1178 1.361 1_545 S
C1179 C1180 1.400 . S
C1179 C1184 1.490 . S
C1180 H1170 0.930 . S
C1180 C1179 1.400 . S
C1180 C1183 1.386 . S
H1181 C1197 0.930 . S
H1182 C1198 0.931 . S
C1183 H1171 0.929 . S
C1183 C1177 1.390 1_545 S
C1183 C1180 1.386 . S
C1184 C1179 1.490 . S
C1184 C1186 1.395 . S
C1184 C1187 1.403 . S
H1185 C1191 0.930 . S
C1186 H1172 0.930 . S
C1186 C1184 1.395 . S
C1186 C1189 1.403 . S
C1187 C1184 1.403 . S
C1187 C1188 1.524 . S
C1187 C1191 1.400 . S
C1188 H1173 0.960 . S
C1188 H1174 0.960 . S
C1188 H1175 0.960 . S
C1188 C1187 1.524 . S
C1189 C1186 1.403 . S
C1189 C1190 1.392 . S
C1189 C1193 1.495 . S
C1190 C1189 1.392 . S
C1190 C1191 1.385 . S
C1190 C1192 1.478 . S
C1191 H1185 0.930 . S
C1191 C1187 1.400 . S
C1191 C1190 1.385 . S
C1192 C1190 1.478 . S
C1192 C1194 1.381 . S
C1192 C1198 1.383 . S
C1193 C1189 1.495 . S
C1193 H1199 0.959 . S
C1193 H1200 0.961 . S
C1193 H1201 0.960 . S
C1194 C1192 1.381 . S
C1194 C1195 1.394 . S
C1194 H1202 0.930 . S
C1195 C1194 1.394 . S
C1195 C1196 1.383 . S
C1195 H1203 0.929 . S
C1196 C1195 1.383 . S
C1196 C1197 1.377 . S
C1197 H1181 0.930 . S
C1197 C1196 1.377 . S
C1197 C1198 1.379 . S
C1198 H1182 0.931 . S
C1198 C1192 1.383 . S
C1198 C1197 1.379 . S
H1199 C1193 0.959 . S
H1200 C1193 0.961 . S
H1201 C1193 0.960 . S
H1202 C1194 0.930 . S
H1203 C1195 0.929 . S
H1204 C1212 0.929 . S
H1205 C1214 0.930 . S
H1206 C1216 0.930 . S
H1207 C1219 0.929 . S
H1208 C1222 0.930 . S
H1209 C1224 0.960 . S
H1210 C1224 0.960 . S
H1211 C1224 0.960 . S
C1212 H1204 0.929 . S
C1212 C1213 1.377 . S
C1212 C1214 1.384 . S
C1213 C1212 1.377 . S
C1213 C1219 1.390 . S
C1214 H1205 0.930 . S
C1214 C1212 1.384 . S
C1214 C1215 1.372 . S
C1215 C1214 1.372 . S
C1215 C1216 1.400 . S
C1215 C1220 1.490 . S
C1216 H1206 0.930 . S
C1216 C1215 1.400 . S
C1216 C1219 1.386 . S
H1217 C1233 0.930 . S
H1218 C1234 0.931 . S
C1219 H1207 0.929 . S
C1219 C1213 1.390 . S
C1219 C1216 1.386 . S
C1220 C1215 1.490 . S
C1220 C1222 1.395 . S
C1220 C1223 1.403 . S
H1221 C1227 0.930 . S
C1222 H1208 0.930 . S
C1222 C1220 1.395 . S
C1222 C1225 1.403 . S
C1223 C1220 1.403 . S
C1223 C1224 1.524 . S
C1223 C1227 1.400 . S
C1224 H1209 0.960 . S
C1224 H1210 0.960 . S
C1224 H1211 0.960 . S
C1224 C1223 1.524 . S
C1225 C1222 1.403 . S
C1225 C1226 1.392 . S
C1225 C1229 1.495 . S
C1226 C1225 1.392 . S
C1226 C1227 1.385 . S
C1226 C1228 1.478 . S
C1227 H1221 0.930 . S
C1227 C1223 1.400 . S
C1227 C1226 1.385 . S
C1228 C1226 1.478 . S
C1228 C1230 1.381 . S
C1228 C1234 1.383 . S
C1229 C1225 1.495 . S
C1229 H1235 0.959 . S
C1229 H1236 0.961 . S
C1229 H1237 0.960 . S
C1230 C1228 1.381 . S
C1230 C1231 1.394 . S
C1230 H1238 0.930 . S
C1231 C1230 1.394 . S
C1231 C1232 1.383 . S
C1231 H1239 0.929 . S
C1232 C1231 1.383 . S
C1232 C1233 1.377 . S
C1233 H1217 0.930 . S
C1233 C1232 1.377 . S
C1233 C1234 1.379 . S
C1234 H1218 0.931 . S
C1234 C1228 1.383 . S
C1234 C1233 1.379 . S
H1235 C1229 0.959 . S
H1236 C1229 0.961 . S
H1237 C1229 0.960 . S
H1238 C1230 0.930 . S
H1239 C1231 0.929 . S
H1240 C1248 0.929 . S
H1241 C1250 0.930 . S
H1242 C1252 0.930 . S
H1243 C1255 0.929 . S
H1244 C1258 0.930 . S
H1245 C1260 0.960 . S
H1246 C1260 0.960 . S
H1247 C1260 0.960 . S
C1248 H1240 0.929 . S
C1248 C1249 1.377 . S
C1248 C1250 1.384 . S
C1249 C1248 1.377 . S
C1249 C1255 1.390 . S
C1250 H1241 0.930 . S
C1250 C1248 1.384 . S
C1250 C1251 1.372 . S
C1251 C1250 1.372 . S
C1251 C1252 1.400 . S
C1251 C1256 1.490 . S
C1252 H1242 0.930 . S
C1252 C1251 1.400 . S
C1252 C1255 1.386 . S
H1253 C1269 0.930 . S
H1254 C1270 0.931 . S
C1255 H1243 0.929 . S
C1255 C1249 1.390 . S
C1255 C1252 1.386 . S
C1256 C1251 1.490 . S
C1256 C1258 1.395 . S
C1256 C1259 1.403 . S
H1257 C1263 0.930 . S
C1258 H1244 0.930 . S
C1258 C1256 1.395 . S
C1258 C1261 1.403 . S
C1259 C1256 1.403 . S
C1259 C1260 1.524 . S
C1259 C1263 1.400 . S
C1260 H1245 0.960 . S
C1260 H1246 0.960 . S
C1260 H1247 0.960 . S
C1260 C1259 1.524 . S
C1261 C1258 1.403 . S
C1261 C1262 1.392 . S
C1261 C1265 1.495 . S
C1262 C1261 1.392 . S
C1262 C1263 1.385 . S
C1262 C1264 1.478 . S
C1263 H1257 0.930 . S
C1263 C1259 1.400 . S
C1263 C1262 1.385 . S
C1264 C1262 1.478 . S
C1264 C1266 1.381 . S
C1264 C1270 1.383 . S
C1265 C1261 1.495 . S
C1265 H1271 0.959 . S
C1265 H1272 0.961 . S
C1265 H1273 0.960 . S
C1266 C1264 1.381 . S
C1266 C1267 1.394 . S
C1266 H1274 0.930 . S
C1267 C1266 1.394 . S
C1267 C1268 1.383 . S
C1267 H1275 0.929 . S
C1268 C1267 1.383 . S
C1268 C1269 1.377 . S
C1269 H1253 0.930 . S
C1269 C1268 1.377 . S
C1269 C1270 1.379 . S
C1270 H1254 0.931 . S
C1270 C1264 1.383 . S
C1270 C1269 1.379 . S
H1271 C1265 0.959 . S
H1272 C1265 0.961 . S
H1273 C1265 0.960 . S
H1274 C1266 0.930 . S
H1275 C1267 0.929 . S
H1276 C1284 0.929 . S
H1277 C1286 0.930 . S
H1278 C1288 0.930 . S
H1279 C1291 0.929 . S
H1280 C1294 0.930 . S
H1281 C1296 0.960 . S
H1282 C1296 0.960 . S
H1283 C1296 0.960 . S
C1284 H1276 0.929 . S
C1284 C1285 1.377 . S
C1284 C1286 1.384 . S
C1285 C1284 1.377 . S
C1285 C1291 1.390 . S
C1286 H1277 0.930 . S
C1286 C1284 1.384 . S
C1286 C1287 1.372 . S
C1287 C1286 1.372 . S
C1287 C1288 1.400 . S
C1287 C1292 1.490 . S
C1288 H1278 0.930 . S
C1288 C1287 1.400 . S
C1288 C1291 1.386 . S
H1289 C1305 0.930 . S
H1290 C1306 0.931 . S
C1291 H1279 0.929 . S
C1291 C1285 1.390 . S
C1291 C1288 1.386 . S
C1292 C1287 1.490 . S
C1292 C1294 1.395 . S
C1292 C1295 1.403 . S
H1293 C1299 0.930 . S
C1294 H1280 0.930 . S
C1294 C1292 1.395 . S
C1294 C1297 1.403 . S
C1295 C1292 1.403 . S
C1295 C1296 1.524 . S
C1295 C1299 1.400 . S
C1296 H1281 0.960 . S
C1296 H1282 0.960 . S
C1296 H1283 0.960 . S
C1296 C1295 1.524 . S
C1297 C1294 1.403 . S
C1297 C1298 1.392 . S
C1297 C1301 1.495 . S
C1298 C1297 1.392 . S
C1298 C1299 1.385 . S
C1298 C1300 1.478 . S
C1299 H1293 0.930 . S
C1299 C1295 1.400 . S
C1299 C1298 1.385 . S
C1300 C1298 1.478 . S
C1300 C1302 1.381 . S
C1300 C1306 1.383 . S
C1301 C1297 1.495 . S
C1301 H1307 0.959 . S
C1301 H1308 0.961 . S
C1301 H1309 0.960 . S
C1302 C1300 1.381 . S
C1302 C1303 1.394 . S
C1302 H1310 0.930 . S
C1303 C1302 1.394 . S
C1303 C1304 1.383 . S
C1303 H1311 0.929 . S
C1304 C1303 1.383 . S
C1304 C1305 1.377 . S
C1305 H1289 0.930 . S
C1305 C1304 1.377 . S
C1305 C1306 1.379 . S
C1306 H1290 0.931 . S
C1306 C1300 1.383 . S
C1306 C1305 1.379 . S
H1307 C1301 0.959 . S
H1308 C1301 0.961 . S
H1309 C1301 0.960 . S
H1310 C1302 0.930 . S
H1311 C1303 0.929 . S
H1312 C1320 0.929 . S
H1313 C1322 0.930 . S
H1314 C1324 0.930 . S
H1315 C1327 0.929 . S
H1316 C1330 0.930 . S
H1317 C1332 0.960 . S
H1318 C1332 0.960 . S
H1319 C1332 0.960 . S
C1320 H1312 0.929 . S
C1320 C1321 1.377 . S
C1320 C1322 1.384 . S
C1321 C1320 1.377 . S
C1321 C1327 1.390 . S
C1322 H1313 0.930 . S
C1322 C1320 1.384 . S
C1322 C1323 1.372 . S
C1323 C1322 1.372 . S
C1323 C1324 1.400 . S
C1323 C1328 1.490 . S
C1324 H1314 0.930 . S
C1324 C1323 1.400 . S
C1324 C1327 1.386 . S
H1325 C1341 0.930 . S
H1326 C1342 0.931 . S
C1327 H1315 0.929 . S
C1327 C1321 1.390 . S
C1327 C1324 1.386 . S
C1328 C1323 1.490 . S
C1328 C1330 1.395 . S
C1328 C1331 1.403 . S
H1329 C1335 0.930 . S
C1330 H1316 0.930 . S
C1330 C1328 1.395 . S
C1330 C1333 1.403 . S
C1331 C1328 1.403 . S
C1331 C1332 1.524 . S
C1331 C1335 1.400 . S
C1332 H1317 0.960 . S
C1332 H1318 0.960 . S
C1332 H1319 0.960 . S
C1332 C1331 1.524 . S
C1333 C1330 1.403 . S
C1333 C1334 1.392 . S
C1333 C1337 1.495 . S
C1334 C1333 1.392 . S
C1334 C1335 1.385 . S
C1334 C1336 1.478 . S
C1335 H1329 0.930 . S
C1335 C1331 1.400 . S
C1335 C1334 1.385 . S
C1336 C1334 1.478 . S
C1336 C1338 1.381 . S
C1336 C1342 1.383 . S
C1337 C1333 1.495 . S
C1337 H1343 0.959 . S
C1337 H1344 0.961 . S
C1337 H1345 0.960 . S
C1338 C1336 1.381 . S
C1338 C1339 1.394 . S
C1338 H1346 0.930 . S
C1339 C1338 1.394 . S
C1339 C1340 1.383 . S
C1339 H1347 0.929 . S
C1340 C1339 1.383 . S
C1340 C1341 1.377 . S
C1341 H1325 0.930 . S
C1341 C1340 1.377 . S
C1341 C1342 1.379 . S
C1342 H1326 0.931 . S
C1342 C1336 1.383 . S
C1342 C1341 1.379 . S
H1343 C1337 0.959 . S
H1344 C1337 0.961 . S
H1345 C1337 0.960 . S
H1346 C1338 0.930 . S
H1347 C1339 0.929 . S
H1348 C1356 0.929 . S
H1349 C1358 0.930 . S
H1350 C1360 0.930 . S
H1351 C1363 0.929 . S
H1352 C1366 0.930 . S
H1353 C1368 0.960 . S
H1354 C1368 0.960 . S
H1355 C1368 0.960 . S
C1356 H1348 0.929 . S
C1356 C1357 1.377 . S
C1356 C1358 1.384 . S
C1357 C1356 1.377 . S
C1357 C1363 1.390 . S
C1358 H1349 0.930 . S
C1358 C1356 1.384 . S
C1358 C1359 1.372 . S
C1359 C1358 1.372 . S
C1359 C1360 1.400 . S
C1359 C1364 1.490 . S
C1360 H1350 0.930 . S
C1360 C1359 1.400 . S
C1360 C1363 1.386 . S
H1361 C1377 0.930 . S
H1362 C1378 0.931 . S
C1363 H1351 0.929 . S
C1363 C1357 1.390 . S
C1363 C1360 1.386 . S
C1364 C1359 1.490 . S
C1364 C1366 1.395 . S
C1364 C1367 1.403 . S
H1365 C1371 0.930 . S
C1366 H1352 0.930 . S
C1366 C1364 1.395 . S
C1366 C1369 1.403 . S
C1367 C1364 1.403 . S
C1367 C1368 1.524 . S
C1367 C1371 1.400 . S
C1368 H1353 0.960 . S
C1368 H1354 0.960 . S
C1368 H1355 0.960 . S
C1368 C1367 1.524 . S
C1369 C1366 1.403 . S
C1369 C1370 1.392 . S
C1369 C1373 1.495 . S
C1370 C1369 1.392 . S
C1370 C1371 1.385 . S
C1370 C1372 1.478 . S
C1371 H1365 0.930 . S
C1371 C1367 1.400 . S
C1371 C1370 1.385 . S
C1372 C1370 1.478 . S
C1372 C1374 1.381 . S
C1372 C1378 1.383 . S
C1373 C1369 1.495 . S
C1373 H1379 0.959 . S
C1373 H1380 0.961 . S
C1373 H1381 0.960 . S
C1374 C1372 1.381 . S
C1374 C1375 1.394 . S
C1374 H1382 0.930 . S
C1375 C1374 1.394 . S
C1375 C1376 1.383 . S
C1375 H1383 0.929 . S
C1376 C1375 1.383 . S
C1376 C1377 1.377 . S
C1377 H1361 0.930 . S
C1377 C1376 1.377 . S
C1377 C1378 1.379 . S
C1378 H1362 0.931 . S
C1378 C1372 1.383 . S
C1378 C1377 1.379 . S
H1379 C1373 0.959 . S
H1380 C1373 0.961 . S
H1381 C1373 0.960 . S
H1382 C1374 0.930 . S
H1383 C1375 0.929 . S
H1384 C1392 0.929 . S
H1385 C1394 0.930 . S
H1386 C1396 0.930 . S
H1387 C1399 0.929 . S
H1388 C1402 0.930 . S
H1389 C1404 0.960 . S
H1390 C1404 0.960 . S
H1391 C1404 0.960 . S
C1392 H1384 0.929 . S
C1392 C1393 1.377 . S
C1392 C1394 1.384 . S
C1393 C1392 1.377 . S
C1393 C1399 1.390 . S
C1394 H1385 0.930 . S
C1394 C1392 1.384 . S
C1394 C1395 1.372 . S
C1395 C1394 1.372 . S
C1395 C1396 1.400 . S
C1395 C1400 1.490 . S
C1396 H1386 0.930 . S
C1396 C1395 1.400 . S
C1396 C1399 1.386 . S
H1397 C1413 0.930 . S
H1398 C1414 0.931 . S
C1399 H1387 0.929 . S
C1399 C1393 1.390 . S
C1399 C1396 1.386 . S
C1400 C1395 1.490 . S
C1400 C1402 1.395 . S
C1400 C1403 1.403 . S
H1401 C1407 0.930 . S
C1402 H1388 0.930 . S
C1402 C1400 1.395 . S
C1402 C1405 1.403 . S
C1403 C1400 1.403 . S
C1403 C1404 1.524 . S
C1403 C1407 1.400 . S
C1404 H1389 0.960 . S
C1404 H1390 0.960 . S
C1404 H1391 0.960 . S
C1404 C1403 1.524 . S
C1405 C1402 1.403 . S
C1405 C1406 1.392 . S
C1405 C1409 1.495 . S
C1406 C1405 1.392 . S
C1406 C1407 1.385 . S
C1406 C1408 1.478 . S
C1407 H1401 0.930 . S
C1407 C1403 1.400 . S
C1407 C1406 1.385 . S
C1408 C1406 1.478 . S
C1408 C1410 1.381 . S
C1408 C1414 1.383 . S
C1409 C1405 1.495 . S
C1409 H1415 0.959 . S
C1409 H1416 0.961 . S
C1409 H1417 0.960 . S
C1410 C1408 1.381 . S
C1410 C1411 1.394 . S
C1410 H1418 0.930 . S
C1411 C1410 1.394 . S
C1411 C1412 1.383 . S
C1411 H1419 0.929 . S
C1412 C1411 1.383 . S
C1412 C1413 1.377 . S
C1413 H1397 0.930 . S
C1413 C1412 1.377 . S
C1413 C1414 1.379 . S
C1414 H1398 0.931 . S
C1414 C1408 1.383 . S
C1414 C1413 1.379 . S
H1415 C1409 0.959 . S
H1416 C1409 0.961 . S
H1417 C1409 0.960 . S
H1418 C1410 0.930 . S
H1419 C1411 0.929 . S
H1420 C1428 0.929 . S
H1421 C1430 0.930 . S
H1422 C1432 0.930 . S
H1423 C1435 0.929 . S
H1424 C1438 0.930 . S
H1425 C1440 0.960 . S
H1426 C1440 0.960 . S
H1427 C1440 0.960 . S
C1428 H1420 0.929 . S
C1428 C1429 1.377 1_565 S
C1428 C1430 1.384 . S
C1429 C1428 1.377 1_545 S
C1429 C1435 1.390 . S
C1430 H1421 0.930 . S
C1430 C1428 1.384 . S
C1430 C1431 1.372 1_565 S
C1431 C1430 1.372 1_545 S
C1431 C1432 1.400 . S
C1431 C1436 1.490 . S
C1432 H1422 0.930 . S
C1432 C1431 1.400 . S
C1432 C1435 1.386 . S
H1433 C1449 0.930 . S
H1434 C1450 0.931 . S
C1435 H1423 0.929 . S
C1435 C1429 1.390 . S
C1435 C1432 1.386 . S
C1436 C1431 1.490 . S
C1436 C1438 1.395 1_545 S
C1436 C1439 1.403 . S
H1437 C1443 0.930 . S
C1438 H1424 0.930 . S
C1438 C1436 1.395 1_565 S
C1438 C1441 1.403 . S
C1439 C1436 1.403 . S
C1439 C1440 1.524 . S
C1439 C1443 1.400 . S
C1440 H1425 0.960 . S
C1440 H1426 0.960 . S
C1440 H1427 0.960 . S
C1440 C1439 1.524 . S
C1441 C1438 1.403 . S
C1441 C1442 1.392 1_565 S
C1441 C1445 1.495 . S
C1442 C1441 1.392 1_545 S
C1442 C1443 1.385 . S
C1442 C1444 1.478 . S
C1443 H1437 0.930 . S
C1443 C1439 1.400 . S
C1443 C1442 1.385 . S
C1444 C1442 1.478 . S
C1444 C1446 1.381 1_545 S
C1444 C1450 1.383 . S
C1445 C1441 1.495 . S
C1445 H1451 0.959 . S
C1445 H1452 0.961 . S
C1445 H1453 0.960 . S
C1446 C1444 1.381 1_565 S
C1446 C1447 1.394 . S
C1446 H1454 0.930 . S
C1447 C1446 1.394 . S
C1447 C1448 1.383 1_565 S
C1447 H1455 0.929 . S
C1448 C1447 1.383 1_545 S
C1448 C1449 1.377 . S
C1449 H1433 0.930 . S
C1449 C1448 1.377 . S
C1449 C1450 1.379 . S
C1450 H1434 0.931 . S
C1450 C1444 1.383 . S
C1450 C1449 1.379 . S
H1451 C1445 0.959 . S
H1452 C1445 0.961 . S
H1453 C1445 0.960 . S
H1454 C1446 0.930 . S
H1455 C1447 0.929 . S
H1456 C1464 0.929 . S
H1457 C1466 0.930 . S
H1458 C1468 0.930 . S
H1459 C1471 0.929 . S
H1460 C1474 0.930 . S
H1461 C1476 0.960 . S
H1462 C1476 0.960 . S
H1463 C1476 0.960 . S
C1464 H1456 0.929 . S
C1464 C1465 1.377 . S
C1464 C1466 1.384 . S
C1465 C1464 1.377 . S
C1465 C1471 1.390 . S
C1466 H1457 0.930 . S
C1466 C1464 1.384 . S
C1466 C1467 1.372 . S
C1467 C1466 1.372 . S
C1467 C1468 1.400 . S
C1467 C1472 1.490 . S
C1468 H1458 0.930 . S
C1468 C1467 1.400 . S
C1468 C1471 1.386 . S
H1469 C1485 0.930 . S
H1470 C1486 0.931 . S
C1471 H1459 0.929 . S
C1471 C1465 1.390 . S
C1471 C1468 1.386 . S
C1472 C1467 1.490 . S
C1472 C1474 1.395 . S
C1472 C1475 1.403 . S
H1473 C1479 0.930 . S
C1474 H1460 0.930 . S
C1474 C1472 1.395 . S
C1474 C1477 1.403 . S
C1475 C1472 1.403 . S
C1475 C1476 1.524 . S
C1475 C1479 1.400 . S
C1476 H1461 0.960 . S
C1476 H1462 0.960 . S
C1476 H1463 0.960 . S
C1476 C1475 1.524 . S
C1477 C1474 1.403 . S
C1477 C1478 1.392 . S
C1477 C1481 1.495 . S
C1478 C1477 1.392 . S
C1478 C1479 1.385 . S
C1478 C1480 1.478 . S
C1479 H1473 0.930 . S
C1479 C1475 1.400 . S
C1479 C1478 1.385 . S
C1480 C1478 1.478 . S
C1480 C1482 1.381 . S
C1480 C1486 1.383 . S
C1481 C1477 1.495 . S
C1481 H1487 0.959 . S
C1481 H1488 0.961 . S
C1481 H1489 0.960 . S
C1482 C1480 1.381 . S
C1482 C1483 1.394 . S
C1482 H1490 0.930 . S
C1483 C1482 1.394 . S
C1483 C1484 1.383 . S
C1483 H1491 0.929 . S
C1484 C1483 1.383 . S
C1484 C1485 1.377 . S
C1485 H1469 0.930 . S
C1485 C1484 1.377 . S
C1485 C1486 1.379 . S
C1486 H1470 0.931 . S
C1486 C1480 1.383 . S
C1486 C1485 1.379 . S
H1487 C1481 0.959 . S
H1488 C1481 0.961 . S
H1489 C1481 0.960 . S
H1490 C1482 0.930 . S
H1491 C1483 0.929 . S
H1492 C1500 0.929 . S
H1493 C1502 0.930 . S
H1494 C1504 0.930 . S
H1495 C1507 0.929 . S
H1496 C1510 0.930 . S
H1497 C1512 0.960 . S
H1498 C1512 0.960 . S
H1499 C1512 0.960 . S
C1500 H1492 0.929 . S
C1500 C1501 1.377 . S
C1500 C1502 1.384 . S
C1501 C1500 1.377 . S
C1501 C1507 1.390 1_655 S
C1502 H1493 0.930 . S
C1502 C1500 1.384 . S
C1502 C1503 1.372 1_655 S
C1503 C1502 1.372 1_455 S
C1503 C1504 1.400 . S
C1503 C1508 1.490 . S
C1504 H1494 0.930 . S
C1504 C1503 1.400 . S
C1504 C1507 1.386 . S
H1505 C1521 0.930 . S
H1506 C1522 0.931 . S
C1507 H1495 0.929 . S
C1507 C1501 1.390 1_455 S
C1507 C1504 1.386 . S
C1508 C1503 1.490 . S
C1508 C1510 1.395 . S
C1508 C1511 1.403 . S
H1509 C1515 0.930 . S
C1510 H1496 0.930 . S
C1510 C1508 1.395 . S
C1510 C1513 1.403 . S
C1511 C1508 1.403 . S
C1511 C1512 1.524 . S
C1511 C1515 1.400 . S
C1512 H1497 0.960 . S
C1512 H1498 0.960 . S
C1512 H1499 0.960 . S
C1512 C1511 1.524 . S
C1513 C1510 1.403 . S
C1513 C1514 1.392 . S
C1513 C1517 1.495 . S
C1514 C1513 1.392 . S
C1514 C1515 1.385 . S
C1514 C1516 1.478 . S
C1515 H1509 0.930 . S
C1515 C1511 1.400 . S
C1515 C1514 1.385 . S
C1516 C1514 1.478 . S
C1516 C1518 1.381 . S
C1516 C1522 1.383 . S
C1517 C1513 1.495 . S
C1517 H1523 0.959 . S
C1517 H1524 0.961 . S
C1517 H1525 0.960 . S
C1518 C1516 1.381 . S
C1518 C1519 1.394 . S
C1518 H1526 0.930 . S
C1519 C1518 1.394 . S
C1519 C1520 1.383 . S
C1519 H1527 0.929 . S
C1520 C1519 1.383 . S
C1520 C1521 1.377 . S
C1521 H1505 0.930 . S
C1521 C1520 1.377 . S
C1521 C1522 1.379 . S
C1522 H1506 0.931 . S
C1522 C1516 1.383 . S
C1522 C1521 1.379 . S
H1523 C1517 0.959 . S
H1524 C1517 0.961 . S
H1525 C1517 0.960 . S
H1526 C1518 0.930 . S
H1527 C1519 0.929 . S
H1528 C1536 0.929 . S
H1529 C1538 0.930 . S
H1530 C1540 0.930 . S
H1531 C1543 0.929 . S
H1532 C1546 0.930 . S
H1533 C1548 0.960 . S
H1534 C1548 0.960 . S
H1535 C1548 0.960 . S
C1536 H1528 0.929 . S
C1536 C1537 1.377 . S
C1536 C1538 1.384 . S
C1537 C1536 1.377 . S
C1537 C1543 1.390 . S
C1538 H1529 0.930 . S
C1538 C1536 1.384 . S
C1538 C1539 1.372 . S
C1539 C1538 1.372 . S
C1539 C1540 1.400 . S
C1539 C1544 1.490 . S
C1540 H1530 0.930 . S
C1540 C1539 1.400 . S
C1540 C1543 1.386 . S
H1541 C1557 0.930 . S
H1542 C1558 0.931 . S
C1543 H1531 0.929 . S
C1543 C1537 1.390 . S
C1543 C1540 1.386 . S
C1544 C1539 1.490 . S
C1544 C1546 1.395 . S
C1544 C1547 1.403 . S
H1545 C1551 0.930 . S
C1546 H1532 0.930 . S
C1546 C1544 1.395 . S
C1546 C1549 1.403 . S
C1547 C1544 1.403 . S
C1547 C1548 1.524 . S
C1547 C1551 1.400 . S
C1548 H1533 0.960 . S
C1548 H1534 0.960 . S
C1548 H1535 0.960 . S
C1548 C1547 1.524 . S
C1549 C1546 1.403 . S
C1549 C1550 1.392 . S
C1549 C1553 1.495 . S
C1550 C1549 1.392 . S
C1550 C1551 1.385 . S
C1550 C1552 1.478 . S
C1551 H1545 0.930 . S
C1551 C1547 1.400 . S
C1551 C1550 1.385 . S
C1552 C1550 1.478 . S
C1552 C1554 1.381 . S
C1552 C1558 1.383 . S
C1553 C1549 1.495 . S
C1553 H1559 0.959 . S
C1553 H1560 0.961 . S
C1553 H1561 0.960 . S
C1554 C1552 1.381 . S
C1554 C1555 1.394 . S
C1554 H1562 0.930 . S
C1555 C1554 1.394 . S
C1555 C1556 1.383 . S
C1555 H1563 0.929 . S
C1556 C1555 1.383 . S
C1556 C1557 1.377 . S
C1557 H1541 0.930 . S
C1557 C1556 1.377 . S
C1557 C1558 1.379 . S
C1558 H1542 0.931 . S
C1558 C1552 1.383 . S
C1558 C1557 1.379 . S
H1559 C1553 0.959 . S
H1560 C1553 0.961 . S
H1561 C1553 0.960 . S
H1562 C1554 0.930 . S
H1563 C1555 0.929 . S
H1564 C1572 0.929 . S
H1565 C1574 0.930 . S
H1566 C1576 0.930 . S
H1567 C1579 0.929 . S
H1568 C1582 0.930 . S
H1569 C1584 0.960 . S
H1570 C1584 0.960 . S
H1571 C1584 0.960 . S
C1572 H1564 0.929 . S
C1572 C1573 1.377 . S
C1572 C1574 1.384 . S
C1573 C1572 1.377 . S
C1573 C1579 1.390 . S
C1574 H1565 0.930 . S
C1574 C1572 1.384 . S
C1574 C1575 1.372 . S
C1575 C1574 1.372 . S
C1575 C1576 1.400 . S
C1575 C1580 1.490 . S
C1576 H1566 0.930 . S
C1576 C1575 1.400 . S
C1576 C1579 1.386 . S
H1577 C1593 0.930 . S
H1578 C1594 0.931 . S
C1579 H1567 0.929 . S
C1579 C1573 1.390 . S
C1579 C1576 1.386 . S
C1580 C1575 1.490 . S
C1580 C1582 1.395 . S
C1580 C1583 1.403 1_554 S
H1581 C1587 0.930 . S
C1582 H1568 0.930 . S
C1582 C1580 1.395 . S
C1582 C1585 1.403 . S
C1583 C1580 1.403 1_556 S
C1583 C1584 1.524 . S
C1583 C1587 1.400 . S
C1584 H1569 0.960 . S
C1584 H1570 0.960 . S
C1584 H1571 0.960 . S
C1584 C1583 1.524 . S
C1585 C1582 1.403 . S
C1585 C1586 1.392 1_554 S
C1585 C1589 1.495 . S
C1586 C1585 1.392 1_556 S
C1586 C1587 1.385 . S
C1586 C1588 1.478 . S
C1587 H1581 0.930 . S
C1587 C1583 1.400 . S
C1587 C1586 1.385 . S
C1588 C1586 1.478 . S
C1588 C1590 1.381 1_655 S
C1588 C1594 1.383 . S
C1589 C1585 1.495 . S
C1589 H1595 0.959 . S
C1589 H1596 0.961 . S
C1589 H1597 0.960 1_655 S
C1590 C1588 1.381 1_455 S
C1590 C1591 1.394 . S
C1590 H1598 0.930 . S
C1591 C1590 1.394 . S
C1591 C1592 1.383 1_455 S
C1591 H1599 0.929 . S
C1592 C1591 1.383 1_655 S
C1592 C1593 1.377 . S
C1593 H1577 0.930 . S
C1593 C1592 1.377 . S
C1593 C1594 1.379 . S
C1594 H1578 0.931 . S
C1594 C1588 1.383 . S
C1594 C1593 1.379 . S
H1595 C1589 0.959 . S
H1596 C1589 0.961 . S
H1597 C1589 0.960 1_455 S
H1598 C1590 0.930 . S
H1599 C1591 0.929 . S
H1600 C1608 0.929 . S
H1601 C1610 0.930 . S
H1602 C1612 0.930 . S
H1603 C1615 0.929 . S
H1604 C1618 0.930 . S
H1605 C1620 0.960 . S
H1606 C1620 0.960 . S
H1607 C1620 0.960 . S
C1608 H1600 0.929 . S
C1608 C1609 1.377 . S
C1608 C1610 1.384 . S
C1609 C1608 1.377 . S
C1609 C1615 1.390 . S
C1610 H1601 0.930 . S
C1610 C1608 1.384 . S
C1610 C1611 1.372 . S
C1611 C1610 1.372 . S
C1611 C1612 1.400 . S
C1611 C1616 1.490 . S
C1612 H1602 0.930 . S
C1612 C1611 1.400 . S
C1612 C1615 1.386 . S
H1613 C1629 0.930 . S
H1614 C1630 0.931 . S
C1615 H1603 0.929 . S
C1615 C1609 1.390 . S
C1615 C1612 1.386 . S
C1616 C1611 1.490 . S
C1616 C1618 1.395 . S
C1616 C1619 1.403 . S
H1617 C1623 0.930 . S
C1618 H1604 0.930 . S
C1618 C1616 1.395 . S
C1618 C1621 1.403 . S
C1619 C1616 1.403 . S
C1619 C1620 1.524 . S
C1619 C1623 1.400 . S
C1620 H1605 0.960 . S
C1620 H1606 0.960 . S
C1620 H1607 0.960 . S
C1620 C1619 1.524 . S
C1621 C1618 1.403 . S
C1621 C1622 1.392 . S
C1621 C1625 1.495 . S
C1622 C1621 1.392 . S
C1622 C1623 1.385 . S
C1622 C1624 1.478 . S
C1623 H1617 0.930 . S
C1623 C1619 1.400 . S
C1623 C1622 1.385 . S
C1624 C1622 1.478 . S
C1624 C1626 1.381 . S
C1624 C1630 1.383 . S
C1625 C1621 1.495 . S
C1625 H1631 0.959 . S
C1625 H1632 0.961 . S
C1625 H1633 0.960 . S
C1626 C1624 1.381 . S
C1626 C1627 1.394 . S
C1626 H1634 0.930 . S
C1627 C1626 1.394 . S
C1627 C1628 1.383 . S
C1627 H1635 0.929 . S
C1628 C1627 1.383 . S
C1628 C1629 1.377 . S
C1629 H1613 0.930 . S
C1629 C1628 1.377 . S
C1629 C1630 1.379 . S
C1630 H1614 0.931 . S
C1630 C1624 1.383 . S
C1630 C1629 1.379 . S
H1631 C1625 0.959 . S
H1632 C1625 0.961 . S
H1633 C1625 0.960 . S
H1634 C1626 0.930 . S
H1635 C1627 0.929 . S
H1636 C1644 0.929 . S
H1637 C1646 0.930 . S
H1638 C1648 0.896 1_656 S
H1639 C1651 0.929 . S
H1640 C1654 0.930 . S
H1641 C1656 0.960 . S
H1642 C1656 0.960 . S
H1643 C1656 0.960 . S
C1644 H1636 0.929 . S
C1644 C1645 1.377 . S
C1644 C1646 1.384 . S
C1645 C1644 1.377 . S
C1645 C1651 1.390 . S
C1646 H1637 0.930 . S
C1646 C1644 1.384 . S
C1646 C1647 1.372 . S
C1647 C1646 1.372 . S
C1647 C1648 1.400 . S
C1647 C1652 1.490 1_554 S
C1648 H1638 0.896 1_454 S
C1648 C1647 1.400 . S
C1648 C1651 1.386 . S
H1649 C1665 0.930 1_655 S
H1650 C1666 0.931 1_655 S
C1651 H1639 0.929 . S
C1651 C1645 1.390 . S
C1651 C1648 1.386 . S
C1652 C1647 1.490 1_556 S
C1652 C1654 1.395 . S
C1652 C1655 1.431 . S
H1653 C1659 0.882 1_655 S
C1654 H1640 0.930 . S
C1654 C1652 1.395 . S
C1654 C1657 1.403 . S
C1655 C1652 1.431 . S
C1655 C1656 1.497 1_456 S
C1655 C1659 1.401 . S
C1656 H1641 0.960 . S
C1656 H1642 0.960 . S
C1656 H1643 0.960 . S
C1656 C1655 1.497 1_654 S
C1657 C1654 1.403 . S
C1657 C1658 1.392 . S
C1657 C1661 1.495 . S
C1658 C1657 1.392 . S
C1658 C1659 1.430 . S
C1658 C1660 1.478 . S
C1659 H1653 0.882 1_455 S
C1659 C1655 1.401 . S
C1659 C1658 1.430 . S
C1660 C1658 1.478 . S
C1660 C1662 1.381 . S
C1660 C1666 1.383 . S
C1661 C1657 1.495 . S
C1661 H1667 0.959 . S
C1661 H1668 0.961 . S
C1661 H1669 0.960 . S
C1662 C1660 1.381 . S
C1662 C1663 1.394 . S
C1662 H1670 0.930 . S
C1663 C1662 1.394 . S
C1663 C1664 1.383 . S
C1663 H1671 0.929 . S
C1664 C1663 1.383 . S
C1664 C1665 1.377 . S
C1665 H1649 0.930 1_455 S
C1665 C1664 1.377 . S
C1665 C1666 1.379 . S
C1666 H1650 0.931 1_455 S
C1666 C1660 1.383 . S
C1666 C1665 1.379 . S
H1667 C1661 0.959 . S
H1668 C1661 0.961 . S
H1669 C1661 0.960 . S
H1670 C1662 0.930 . S
H1671 C1663 0.929 . S
H1672 C1680 0.929 . S
H1673 C1682 0.930 . S
H1674 C1684 0.930 . S
H1675 C1687 0.929 . S
H1676 C1690 0.930 . S
H1677 C1692 0.960 . S
H1678 C1692 0.960 . S
H1679 C1692 0.960 . S
C1680 H1672 0.929 . S
C1680 C1681 1.377 . S
C1680 C1682 1.384 . S
C1681 C1680 1.377 . S
C1681 C1687 1.390 . S
C1682 H1673 0.930 . S
C1682 C1680 1.384 . S
C1682 C1683 1.372 . S
C1683 C1682 1.372 . S
C1683 C1684 1.400 . S
C1683 C1688 1.490 . S
C1684 H1674 0.930 . S
C1684 C1683 1.400 . S
C1684 C1687 1.386 . S
H1685 C1701 0.930 . S
H1686 C1702 0.931 . S
C1687 H1675 0.929 . S
C1687 C1681 1.390 . S
C1687 C1684 1.386 . S
C1688 C1683 1.490 . S
C1688 C1690 1.395 . S
C1688 C1691 1.403 . S
H1689 C1695 0.930 . S
C1690 H1676 0.930 . S
C1690 C1688 1.395 . S
C1690 C1693 1.403 . S
C1691 C1688 1.403 . S
C1691 C1692 1.524 . S
C1691 C1695 1.400 . S
C1692 H1677 0.960 . S
C1692 H1678 0.960 . S
C1692 H1679 0.960 . S
C1692 C1691 1.524 . S
C1693 C1690 1.403 . S
C1693 C1694 1.392 . S
C1693 C1697 1.495 . S
C1694 C1693 1.392 . S
C1694 C1695 1.385 . S
C1694 C1696 1.478 . S
C1695 H1689 0.930 . S
C1695 C1691 1.400 . S
C1695 C1694 1.385 . S
C1696 C1694 1.478 . S
C1696 C1698 1.381 . S
C1696 C1702 1.383 . S
C1697 C1693 1.495 . S
C1697 H1703 0.959 . S
C1697 H1704 0.961 . S
C1697 H1705 0.960 . S
C1698 C1696 1.381 . S
C1698 C1699 1.394 . S
C1698 H1706 0.930 . S
C1699 C1698 1.394 . S
C1699 C1700 1.383 . S
C1699 H1707 0.929 . S
C1700 C1699 1.383 . S
C1700 C1701 1.377 . S
C1701 H1685 0.930 . S
C1701 C1700 1.377 . S
C1701 C1702 1.379 . S
C1702 H1686 0.931 . S
C1702 C1696 1.383 . S
C1702 C1701 1.379 . S
H1703 C1697 0.959 . S
H1704 C1697 0.961 . S
H1705 C1697 0.960 . S
H1706 C1698 0.930 . S
H1707 C1699 0.929 . S
H1708 C1716 0.929 . S
H1709 C1718 0.943 . S
H1710 C1720 0.930 . S
H1711 C1723 0.929 . S
H1712 C1726 0.930 . S
H1713 C1728 0.960 . S
H1714 C1728 0.960 . S
H1715 C1728 0.960 . S
C1716 H1708 0.929 . S
C1716 C1717 1.377 . S
C1716 C1718 1.349 1_556 S
C1717 C1716 1.377 . S
C1717 C1723 1.390 . S
C1718 H1709 0.943 . S
C1718 C1716 1.349 1_554 S
C1718 C1719 1.396 . S
C1719 C1718 1.396 . S
C1719 C1720 1.400 . S
C1719 C1724 1.490 . S
C1720 H1710 0.930 . S
C1720 C1719 1.400 . S
C1720 C1723 1.386 1_554 S
H1721 C1737 0.930 . S
H1722 C1738 0.931 . S
C1723 H1711 0.929 . S
C1723 C1717 1.390 . S
C1723 C1720 1.386 1_556 S
C1724 C1719 1.490 . S
C1724 C1726 1.395 . S
C1724 C1727 1.403 . S
H1725 C1731 0.930 . S
C1726 H1712 0.930 . S
C1726 C1724 1.395 . S
C1726 C1729 1.403 . S
C1727 C1724 1.403 . S
C1727 C1728 1.524 . S
C1727 C1731 1.400 . S
C1728 H1713 0.960 . S
C1728 H1714 0.960 . S
C1728 H1715 0.960 . S
C1728 C1727 1.524 . S
C1729 C1726 1.403 . S
C1729 C1730 1.392 . S
C1729 C1733 1.495 . S
C1730 C1729 1.392 . S
C1730 C1731 1.385 . S
C1730 C1732 1.478 . S
C1731 H1725 0.930 . S
C1731 C1727 1.400 . S
C1731 C1730 1.385 . S
C1732 C1730 1.478 . S
C1732 C1734 1.381 . S
C1732 C1738 1.383 . S
C1733 C1729 1.495 . S
C1733 H1739 0.959 . S
C1733 H1740 0.961 . S
C1733 H1741 0.960 . S
C1734 C1732 1.381 . S
C1734 C1735 1.394 . S
C1734 H1742 0.930 . S
C1735 C1734 1.394 . S
C1735 C1736 1.383 . S
C1735 H1743 0.929 . S
C1736 C1735 1.383 . S
C1736 C1737 1.377 . S
C1737 H1721 0.930 . S
C1737 C1736 1.377 . S
C1737 C1738 1.379 . S
C1738 H1722 0.931 . S
C1738 C1732 1.383 . S
C1738 C1737 1.379 . S
H1739 C1733 0.959 . S
H1740 C1733 0.961 . S
H1741 C1733 0.960 . S
H1742 C1734 0.930 . S
H1743 C1735 0.929 . S
H1744 C1752 0.929 . S
H1745 C1754 0.930 . S
H1746 C1756 0.930 . S
H1747 C1759 0.929 . S
H1748 C1762 0.930 . S
H1749 C1764 0.960 . S
H1750 C1764 0.960 . S
H1751 C1764 0.960 . S
C1752 H1744 0.929 . S
C1752 C1753 1.377 . S
C1752 C1754 1.384 . S
C1753 C1752 1.377 . S
C1753 C1759 1.390 . S
C1754 H1745 0.930 . S
C1754 C1752 1.384 . S
C1754 C1755 1.372 . S
C1755 C1754 1.372 . S
C1755 C1756 1.400 . S
C1755 C1760 1.490 . S
C1756 H1746 0.930 . S
C1756 C1755 1.400 . S
C1756 C1759 1.386 . S
H1757 C1773 0.930 . S
H1758 C1774 0.931 . S
C1759 H1747 0.929 . S
C1759 C1753 1.390 . S
C1759 C1756 1.386 . S
C1760 C1755 1.490 . S
C1760 C1762 1.395 . S
C1760 C1763 1.403 . S
H1761 C1767 0.930 . S
C1762 H1748 0.930 . S
C1762 C1760 1.395 . S
C1762 C1765 1.403 . S
C1763 C1760 1.403 . S
C1763 C1764 1.524 . S
C1763 C1767 1.400 . S
C1764 H1749 0.960 . S
C1764 H1750 0.960 . S
C1764 H1751 0.960 . S
C1764 C1763 1.524 . S
C1765 C1762 1.403 . S
C1765 C1766 1.392 . S
C1765 C1769 1.495 . S
C1766 C1765 1.392 . S
C1766 C1767 1.385 . S
C1766 C1768 1.478 . S
C1767 H1761 0.930 . S
C1767 C1763 1.400 . S
C1767 C1766 1.385 . S
C1768 C1766 1.478 . S
C1768 C1770 1.381 . S
C1768 C1774 1.383 . S
C1769 C1765 1.495 . S
C1769 H1775 0.959 . S
C1769 H1776 0.961 . S
C1769 H1777 0.960 . S
C1770 C1768 1.381 . S
C1770 C1771 1.394 . S
C1770 H1778 0.930 . S
C1771 C1770 1.394 . S
C1771 C1772 1.383 . S
C1771 H1779 0.929 . S
C1772 C1771 1.383 . S
C1772 C1773 1.377 . S
C1773 H1757 0.930 . S
C1773 C1772 1.377 . S
C1773 C1774 1.379 . S
C1774 H1758 0.931 . S
C1774 C1768 1.383 . S
C1774 C1773 1.379 . S
H1775 C1769 0.959 . S
H1776 C1769 0.961 . S
H1777 C1769 0.960 . S
H1778 C1770 0.930 . S
H1779 C1771 0.929 . S
H1780 C1788 0.929 . S
H1781 C1790 0.930 . S
H1782 C1792 0.930 . S
H1783 C1795 0.929 . S
H1784 C1798 0.930 . S
H1785 C1800 0.960 . S
H1786 C1800 0.905 1_556 S
H1787 C1800 0.960 . S
C1788 H1780 0.929 . S
C1788 C1789 1.377 . S
C1788 C1790 1.384 . S
C1789 C1788 1.377 . S
C1789 C1795 1.390 . S
C1790 H1781 0.930 . S
C1790 C1788 1.384 . S
C1790 C1791 1.331 1_556 S
C1791 C1790 1.331 1_554 S
C1791 C1792 1.411 . S
C1791 C1796 1.520 . S
C1792 H1782 0.930 . S
C1792 C1791 1.411 . S
C1792 C1795 1.386 1_554 S
H1793 C1809 0.930 . S
H1794 C1810 0.931 . S
C1795 H1783 0.929 . S
C1795 C1789 1.390 . S
C1795 C1792 1.386 1_556 S
C1796 C1791 1.520 . S
C1796 C1798 1.395 . S
C1796 C1799 1.403 . S
H1797 C1803 0.930 . S
C1798 H1784 0.930 . S
C1798 C1796 1.395 . S
C1798 C1801 1.403 . S
C1799 C1796 1.403 . S
C1799 C1800 1.524 . S
C1799 C1803 1.400 . S
C1800 H1785 0.960 . S
C1800 H1786 0.905 1_554 S
C1800 H1787 0.960 . S
C1800 C1799 1.524 . S
C1801 C1798 1.403 . S
C1801 C1802 1.392 . S
C1801 C1805 1.495 . S
C1802 C1801 1.392 . S
C1802 C1803 1.385 . S
C1802 C1804 1.478 . S
C1803 H1797 0.930 . S
C1803 C1799 1.400 . S
C1803 C1802 1.385 . S
C1804 C1802 1.478 . S
C1804 C1806 1.381 . S
C1804 C1810 1.383 . S
C1805 C1801 1.495 . S
C1805 H1811 0.959 . S
C1805 H1812 0.961 . S
C1805 H1813 0.960 . S
C1806 C1804 1.381 . S
C1806 C1807 1.394 . S
C1806 H1814 0.930 . S
C1807 C1806 1.394 . S
C1807 C1808 1.383 . S
C1807 H1815 0.929 . S
C1808 C1807 1.383 . S
C1808 C1809 1.377 . S
C1809 H1793 0.930 . S
C1809 C1808 1.377 . S
C1809 C1810 1.379 . S
C1810 H1794 0.931 . S
C1810 C1804 1.383 . S
C1810 C1809 1.379 . S
H1811 C1805 0.959 . S
H1812 C1805 0.961 . S
H1813 C1805 0.960 . S
H1814 C1806 0.930 . S
H1815 C1807 0.929 . S
H1816 C1824 0.929 . S
H1817 C1826 0.930 . S
H1818 C1828 0.930 . S
H1819 C1831 0.929 . S
H1820 C1834 0.930 . S
H1821 C1836 0.960 . S
H1822 C1836 0.960 . S
H1823 C1836 0.960 . S
C1824 H1816 0.929 . S
C1824 C1825 1.377 . S
C1824 C1826 1.384 . S
C1825 C1824 1.377 . S
C1825 C1831 1.390 . S
C1826 H1817 0.930 . S
C1826 C1824 1.384 . S
C1826 C1827 1.372 . S
C1827 C1826 1.372 . S
C1827 C1828 1.400 . S
C1827 C1832 1.490 . S
C1828 H1818 0.930 . S
C1828 C1827 1.400 . S
C1828 C1831 1.386 . S
H1829 C1845 0.930 . S
H1830 C1846 0.931 . S
C1831 H1819 0.929 . S
C1831 C1825 1.390 . S
C1831 C1828 1.386 . S
C1832 C1827 1.490 . S
C1832 C1834 1.395 . S
C1832 C1835 1.403 . S
H1833 C1839 0.930 . S
C1834 H1820 0.930 . S
C1834 C1832 1.395 . S
C1834 C1837 1.403 . S
C1835 C1832 1.403 . S
C1835 C1836 1.524 . S
C1835 C1839 1.400 . S
C1836 H1821 0.960 . S
C1836 H1822 0.960 . S
C1836 H1823 0.960 . S
C1836 C1835 1.524 . S
C1837 C1834 1.403 . S
C1837 C1838 1.392 . S
C1837 C1841 1.495 . S
C1838 C1837 1.392 . S
C1838 C1839 1.385 . S
C1838 C1840 1.478 . S
C1839 H1833 0.930 . S
C1839 C1835 1.400 . S
C1839 C1838 1.385 . S
C1840 C1838 1.478 . S
C1840 C1842 1.381 . S
C1840 C1846 1.383 . S
C1841 C1837 1.495 . S
C1841 H1847 0.959 . S
C1841 H1848 0.961 . S
C1841 H1849 0.960 . S
C1842 C1840 1.381 . S
C1842 C1843 1.394 . S
C1842 H1850 0.930 . S
C1843 C1842 1.394 . S
C1843 C1844 1.383 . S
C1843 H1851 0.929 . S
C1844 C1843 1.383 . S
C1844 C1845 1.377 . S
C1845 H1829 0.930 . S
C1845 C1844 1.377 . S
C1845 C1846 1.379 . S
C1846 H1830 0.931 . S
C1846 C1840 1.383 . S
C1846 C1845 1.379 . S
H1847 C1841 0.959 . S
H1848 C1841 0.961 . S
H1849 C1841 0.960 . S
H1850 C1842 0.930 . S
H1851 C1843 0.929 . S
H1852 C1860 0.929 . S
H1853 C1862 0.930 . S
H1854 C1864 0.930 . S
H1855 C1867 0.929 . S
H1856 C1870 0.930 . S
H1857 C1872 0.960 . S
H1858 C1872 0.960 . S
H1859 C1872 0.960 . S
C1860 H1852 0.929 . S
C1860 C1861 1.377 . S
C1860 C1862 1.384 . S
C1861 C1860 1.377 . S
C1861 C1867 1.390 . S
C1862 H1853 0.930 . S
C1862 C1860 1.384 . S
C1862 C1863 1.372 . S
C1863 C1862 1.372 . S
C1863 C1864 1.400 . S
C1863 C1868 1.490 . S
C1864 H1854 0.930 . S
C1864 C1863 1.400 . S
C1864 C1867 1.386 . S
H1865 C1881 0.930 . S
H1866 C1882 0.931 . S
C1867 H1855 0.929 . S
C1867 C1861 1.390 . S
C1867 C1864 1.386 . S
C1868 C1863 1.490 . S
C1868 C1870 1.395 . S
C1868 C1871 1.403 . S
H1869 C1875 0.930 . S
C1870 H1856 0.930 . S
C1870 C1868 1.395 . S
C1870 C1873 1.403 . S
C1871 C1868 1.403 . S
C1871 C1872 1.524 . S
C1871 C1875 1.400 . S
C1872 H1857 0.960 . S
C1872 H1858 0.960 . S
C1872 H1859 0.960 . S
C1872 C1871 1.524 . S
C1873 C1870 1.403 . S
C1873 C1874 1.392 . S
C1873 C1877 1.495 . S
C1874 C1873 1.392 . S
C1874 C1875 1.385 . S
C1874 C1876 1.478 . S
C1875 H1869 0.930 . S
C1875 C1871 1.400 . S
C1875 C1874 1.385 . S
C1876 C1874 1.478 . S
C1876 C1878 1.381 . S
C1876 C1882 1.383 . S
C1877 C1873 1.495 . S
C1877 H1883 0.959 . S
C1877 H1884 0.961 . S
C1877 H1885 0.960 . S
C1878 C1876 1.381 . S
C1878 C1879 1.394 . S
C1878 H1886 0.930 . S
C1879 C1878 1.394 . S
C1879 C1880 1.383 . S
C1879 H1887 0.929 . S
C1880 C1879 1.383 . S
C1880 C1881 1.377 . S
C1881 H1865 0.930 . S
C1881 C1880 1.377 . S
C1881 C1882 1.379 . S
C1882 H1866 0.931 . S
C1882 C1876 1.383 . S
C1882 C1881 1.379 . S
H1883 C1877 0.959 . S
H1884 C1877 0.961 . S
H1885 C1877 0.960 . S
H1886 C1878 0.930 . S
H1887 C1879 0.929 . S
H1888 C1896 0.929 . S
H1889 C1898 0.930 . S
H1890 C1900 0.930 . S
H1891 C1903 0.929 . S
H1892 C1906 0.930 . S
H1893 C1908 0.960 . S
H1894 C1908 0.960 . S
H1895 C1908 0.960 . S
C1896 H1888 0.929 . S
C1896 C1897 1.377 . S
C1896 C1898 1.384 . S
C1897 C1896 1.377 . S
C1897 C1903 1.390 . S
C1898 H1889 0.930 . S
C1898 C1896 1.384 . S
C1898 C1899 1.372 . S
C1899 C1898 1.372 . S
C1899 C1900 1.400 . S
C1899 C1904 1.490 . S
C1900 H1890 0.930 . S
C1900 C1899 1.400 . S
C1900 C1903 1.386 . S
H1901 C1917 0.930 . S
H1902 C1918 0.931 . S
C1903 H1891 0.929 . S
C1903 C1897 1.390 . S
C1903 C1900 1.386 . S
C1904 C1899 1.490 . S
C1904 C1906 1.395 . S
C1904 C1907 1.403 . S
H1905 C1911 0.930 . S
C1906 H1892 0.930 . S
C1906 C1904 1.395 . S
C1906 C1909 1.403 . S
C1907 C1904 1.403 . S
C1907 C1908 1.524 . S
C1907 C1911 1.400 . S
C1908 H1893 0.960 . S
C1908 H1894 0.960 . S
C1908 H1895 0.960 . S
C1908 C1907 1.524 . S
C1909 C1906 1.403 . S
C1909 C1910 1.392 . S
C1909 C1913 1.495 . S
C1910 C1909 1.392 . S
C1910 C1911 1.385 . S
C1910 C1912 1.478 . S
C1911 H1905 0.930 . S
C1911 C1907 1.400 . S
C1911 C1910 1.385 . S
C1912 C1910 1.478 . S
C1912 C1914 1.381 . S
C1912 C1918 1.383 . S
C1913 C1909 1.495 . S
C1913 H1919 0.959 . S
C1913 H1920 0.961 . S
C1913 H1921 0.960 . S
C1914 C1912 1.381 . S
C1914 C1915 1.394 . S
C1914 H1922 0.930 . S
C1915 C1914 1.394 . S
C1915 C1916 1.383 . S
C1915 H1923 0.929 . S
C1916 C1915 1.383 . S
C1916 C1917 1.377 . S
C1917 H1901 0.930 . S
C1917 C1916 1.377 . S
C1917 C1918 1.379 . S
C1918 H1902 0.931 . S
C1918 C1912 1.383 . S
C1918 C1917 1.379 . S
H1919 C1913 0.959 . S
H1920 C1913 0.961 . S
H1921 C1913 0.960 . S
H1922 C1914 0.930 . S
H1923 C1915 0.929 . S
H1924 C1932 0.929 . S
H1925 C1934 0.930 . S
H1926 C1936 0.930 . S
H1927 C1939 0.929 . S
H1928 C1942 0.930 . S
H1929 C1944 0.960 . S
H1930 C1944 0.960 . S
H1931 C1944 0.960 . S
C1932 H1924 0.929 . S
C1932 C1933 1.377 . S
C1932 C1934 1.384 . S
C1933 C1932 1.377 . S
C1933 C1939 1.390 . S
C1934 H1925 0.930 . S
C1934 C1932 1.384 . S
C1934 C1935 1.372 . S
C1935 C1934 1.372 . S
C1935 C1936 1.400 . S
C1935 C1940 1.490 . S
C1936 H1926 0.930 . S
C1936 C1935 1.400 . S
C1936 C1939 1.386 . S
H1937 C1953 0.930 . S
H1938 C1954 0.931 . S
C1939 H1927 0.929 . S
C1939 C1933 1.390 . S
C1939 C1936 1.386 . S
C1940 C1935 1.490 . S
C1940 C1942 1.395 . S
C1940 C1943 1.403 . S
H1941 C1947 0.930 . S
C1942 H1928 0.930 . S
C1942 C1940 1.395 . S
C1942 C1945 1.403 . S
C1943 C1940 1.403 . S
C1943 C1944 1.524 . S
C1943 C1947 1.400 . S
C1944 H1929 0.960 . S
C1944 H1930 0.960 . S
C1944 H1931 0.960 . S
C1944 C1943 1.524 . S
C1945 C1942 1.403 . S
C1945 C1946 1.392 . S
C1945 C1949 1.495 . S
C1946 C1945 1.392 . S
C1946 C1947 1.385 . S
C1946 C1948 1.478 . S
C1947 H1941 0.930 . S
C1947 C1943 1.400 . S
C1947 C1946 1.385 . S
C1948 C1946 1.478 . S
C1948 C1950 1.381 . S
C1948 C1954 1.383 . S
C1949 C1945 1.495 . S
C1949 H1955 0.959 . S
C1949 H1956 0.961 . S
C1949 H1957 0.960 . S
C1950 C1948 1.381 . S
C1950 C1951 1.394 . S
C1950 H1958 0.930 . S
C1951 C1950 1.394 . S
C1951 C1952 1.383 . S
C1951 H1959 0.929 . S
C1952 C1951 1.383 . S
C1952 C1953 1.377 . S
C1953 H1937 0.930 . S
C1953 C1952 1.377 . S
C1953 C1954 1.379 . S
C1954 H1938 0.931 . S
C1954 C1948 1.383 . S
C1954 C1953 1.379 . S
H1955 C1949 0.959 . S
H1956 C1949 0.961 . S
H1957 C1949 0.960 . S
H1958 C1950 0.930 . S
H1959 C1951 0.929 . S
H1960 C1968 0.929 . S
H1961 C1970 0.930 . S
H1962 C1972 0.930 1_554 S
H1963 C1975 0.929 . S
H1964 C1978 0.930 . S
H1965 C1980 0.960 1_554 S
H1966 C1980 0.960 . S
H1967 C1980 0.960 1_554 S
C1968 H1960 0.929 . S
C1968 C1969 1.377 . S
C1968 C1970 1.384 . S
C1969 C1968 1.377 . S
C1969 C1975 1.390 . S
C1970 H1961 0.930 . S
C1970 C1968 1.384 . S
C1970 C1971 1.372 . S
C1971 C1970 1.372 . S
C1971 C1972 1.400 . S
C1971 C1976 1.490 . S
C1972 H1962 0.930 1_556 S
C1972 C1971 1.400 . S
C1972 C1975 1.386 . S
H1973 C1989 0.930 . S
H1974 C1990 0.931 . S
C1975 H1963 0.929 . S
C1975 C1969 1.390 . S
C1975 C1972 1.386 . S
C1976 C1971 1.490 . S
C1976 C1978 1.395 . S
C1976 C1979 1.403 . S
H1977 C1983 0.930 . S
C1978 H1964 0.930 . S
C1978 C1976 1.395 . S
C1978 C1981 1.403 . S
C1979 C1976 1.403 . S
C1979 C1980 1.524 . S
C1979 C1983 1.400 . S
C1980 H1965 0.960 1_556 S
C1980 H1966 0.960 . S
C1980 H1967 0.960 1_556 S
C1980 C1979 1.524 . S
C1981 C1978 1.403 . S
C1981 C1982 1.392 . S
C1981 C1985 1.495 . S
C1982 C1981 1.392 . S
C1982 C1983 1.385 . S
C1982 C1984 1.478 . S
C1983 H1977 0.930 . S
C1983 C1979 1.400 . S
C1983 C1982 1.385 . S
C1984 C1982 1.478 . S
C1984 C1986 1.381 . S
C1984 C1990 1.383 1_556 S
C1985 C1981 1.495 . S
C1985 H1991 0.959 . S
C1985 H1992 0.961 . S
C1985 H1993 0.960 . S
C1986 C1984 1.381 . S
C1986 C1987 1.394 . S
C1986 H1994 0.930 . S
C1987 C1986 1.394 . S
C1987 C1988 1.383 . S
C1987 H1995 0.929 . S
C1988 C1987 1.383 . S
C1988 C1989 1.377 1_556 S
C1989 H1973 0.930 . S
C1989 C1988 1.377 1_554 S
C1989 C1990 1.379 . S
C1990 H1974 0.931 . S
C1990 C1984 1.383 1_554 S
C1990 C1989 1.379 . S
H1991 C1985 0.959 . S
H1992 C1985 0.961 . S
H1993 C1985 0.960 . S
H1994 C1986 0.930 . S
H1995 C1987 0.929 . S
H1996 C2004 0.929 . S
H1997 C2006 0.930 . S
H1998 C2008 0.930 . S
H1999 C2011 0.929 . S
H2000 C2014 0.930 . S
H2001 C2016 0.960 . S
H2002 C2016 0.960 . S
H2003 C2016 0.960 . S
C2004 H1996 0.929 . S
C2004 C2005 1.377 . S
C2004 C2006 1.384 . S
C2005 C2004 1.377 . S
C2005 C2011 1.390 . S
C2006 H1997 0.930 . S
C2006 C2004 1.384 . S
C2006 C2007 1.372 . S
C2007 C2006 1.372 . S
C2007 C2008 1.400 . S
C2007 C2012 1.490 . S
C2008 H1998 0.930 . S
C2008 C2007 1.400 . S
C2008 C2011 1.386 . S
H2009 C2025 0.930 . S
H2010 C2026 0.931 . S
C2011 H1999 0.929 . S
C2011 C2005 1.390 . S
C2011 C2008 1.386 . S
C2012 C2007 1.490 . S
C2012 C2014 1.395 . S
C2012 C2015 1.403 . S
H2013 C2019 0.930 . S
C2014 H2000 0.930 . S
C2014 C2012 1.395 . S
C2014 C2017 1.403 . S
C2015 C2012 1.403 . S
C2015 C2016 1.524 . S
C2015 C2019 1.400 . S
C2016 H2001 0.960 . S
C2016 H2002 0.960 . S
C2016 H2003 0.960 . S
C2016 C2015 1.524 . S
C2017 C2014 1.403 . S
C2017 C2018 1.392 . S
C2017 C2021 1.495 . S
C2018 C2017 1.392 . S
C2018 C2019 1.385 . S
C2018 C2020 1.478 . S
C2019 H2013 0.930 . S
C2019 C2015 1.400 . S
C2019 C2018 1.385 . S
C2020 C2018 1.478 . S
C2020 C2022 1.381 . S
C2020 C2026 1.383 . S
C2021 C2017 1.495 . S
C2021 H2027 0.959 . S
C2021 H2028 0.961 . S
C2021 H2029 0.960 . S
C2022 C2020 1.381 . S
C2022 C2023 1.394 . S
C2022 H2030 0.930 . S
C2023 C2022 1.394 . S
C2023 C2024 1.383 . S
C2023 H2031 0.929 . S
C2024 C2023 1.383 . S
C2024 C2025 1.377 . S
C2025 H2009 0.930 . S
C2025 C2024 1.377 . S
C2025 C2026 1.379 . S
C2026 H2010 0.931 . S
C2026 C2020 1.383 . S
C2026 C2025 1.379 . S
H2027 C2021 0.959 . S
H2028 C2021 0.961 . S
H2029 C2021 0.960 . S
H2030 C2022 0.930 . S
H2031 C2023 0.929 . S
H2032 C2040 0.929 . S
H2033 C2042 0.930 . S
H2034 C2044 0.930 . S
H2035 C2047 0.929 . S
H2036 C2050 0.930 . S
H2037 C2052 0.960 . S
H2038 C2052 0.960 . S
H2039 C2052 0.960 . S
C2040 H2032 0.929 . S
C2040 C2041 1.377 . S
C2040 C2042 1.384 . S
C2041 C2040 1.377 . S
C2041 C2047 1.390 . S
C2042 H2033 0.930 . S
C2042 C2040 1.384 . S
C2042 C2043 1.372 . S
C2043 C2042 1.372 . S
C2043 C2044 1.400 . S
C2043 C2048 1.490 . S
C2044 H2034 0.930 . S
C2044 C2043 1.400 . S
C2044 C2047 1.386 . S
H2045 C2061 0.930 . S
H2046 C2062 0.931 . S
C2047 H2035 0.929 . S
C2047 C2041 1.390 . S
C2047 C2044 1.386 . S
C2048 C2043 1.490 . S
C2048 C2050 1.395 . S
C2048 C2051 1.403 . S
H2049 C2055 0.930 . S
C2050 H2036 0.930 . S
C2050 C2048 1.395 . S
C2050 C2053 1.403 . S
C2051 C2048 1.403 . S
C2051 C2052 1.524 . S
C2051 C2055 1.400 . S
C2052 H2037 0.960 . S
C2052 H2038 0.960 . S
C2052 H2039 0.960 . S
C2052 C2051 1.524 . S
C2053 C2050 1.403 . S
C2053 C2054 1.392 . S
C2053 C2057 1.495 1_554 S
C2054 C2053 1.392 . S
C2054 C2055 1.385 . S
C2054 C2056 1.478 . S
C2055 H2049 0.930 . S
C2055 C2051 1.400 . S
C2055 C2054 1.385 . S
C2056 C2054 1.478 . S
C2056 C2058 1.381 . S
C2056 C2062 1.383 . S
C2057 C2053 1.495 1_556 S
C2057 H2063 0.959 . S
C2057 H2064 0.961 . S
C2057 H2065 0.960 . S
C2058 C2056 1.381 . S
C2058 C2059 1.394 . S
C2058 H2066 0.930 . S
C2059 C2058 1.394 . S
C2059 C2060 1.383 . S
C2059 H2067 0.929 . S
C2060 C2059 1.383 . S
C2060 C2061 1.377 . S
C2061 H2045 0.930 . S
C2061 C2060 1.377 . S
C2061 C2062 1.379 . S
C2062 H2046 0.931 . S
C2062 C2056 1.383 . S
C2062 C2061 1.379 . S
H2063 C2057 0.959 . S
H2064 C2057 0.961 . S
H2065 C2057 0.960 . S
H2066 C2058 0.930 . S
H2067 C2059 0.929 . S
H2068 C2076 0.929 1_545 S
H2069 C2078 0.930 . S
H2070 C2080 0.930 . S
H2071 C2083 0.929 . S
H2072 C2086 0.930 . S
H2073 C2088 0.960 . S
H2074 C2088 0.960 . S
H2075 C2088 0.960 . S
C2076 H2068 0.929 1_565 S
C2076 C2077 1.375 . S
C2076 C2078 1.384 . S
C2077 C2076 1.375 . S
C2077 C2083 1.416 . S
C2078 H2069 0.930 . S
C2078 C2076 1.384 . S
C2078 C2079 1.372 . S
C2079 C2078 1.372 . S
C2079 C2080 1.400 . S
C2079 C2084 1.490 . S
C2080 H2070 0.930 . S
C2080 C2079 1.400 . S
C2080 C2083 1.386 . S
H2081 C2097 0.930 . S
H2082 C2098 0.931 . S
C2083 H2071 0.929 . S
C2083 C2077 1.416 . S
C2083 C2080 1.386 . S
C2084 C2079 1.490 . S
C2084 C2086 1.395 . S
C2084 C2087 1.403 . S
H2085 C2091 0.930 . S
C2086 H2072 0.930 . S
C2086 C2084 1.395 . S
C2086 C2089 1.403 . S
C2087 C2084 1.403 . S
C2087 C2088 1.524 . S
C2087 C2091 1.400 . S
C2088 H2073 0.960 . S
C2088 H2074 0.960 . S
C2088 H2075 0.960 . S
C2088 C2087 1.524 . S
C2089 C2086 1.403 . S
C2089 C2090 1.392 . S
C2089 C2093 1.495 . S
C2090 C2089 1.392 . S
C2090 C2091 1.385 . S
C2090 C2092 1.478 . S
C2091 H2085 0.930 . S
C2091 C2087 1.400 . S
C2091 C2090 1.385 . S
C2092 C2090 1.478 . S
C2092 C2094 1.381 . S
C2092 C2098 1.383 . S
C2093 C2089 1.495 . S
C2093 H2099 0.959 1_565 S
C2093 H2100 0.961 . S
C2093 H2101 0.960 . S
C2094 C2092 1.381 . S
C2094 C2095 1.394 . S
C2094 H2102 0.930 1_554 S
C2095 C2094 1.394 . S
C2095 C2096 1.383 . S
C2095 H2103 0.929 1_554 S
C2096 C2095 1.383 . S
C2096 C2097 1.377 . S
C2097 H2081 0.930 . S
C2097 C2096 1.377 . S
C2097 C2098 1.379 . S
C2098 H2082 0.931 . S
C2098 C2092 1.383 . S
C2098 C2097 1.379 . S
H2099 C2093 0.959 1_545 S
H2100 C2093 0.961 . S
H2101 C2093 0.960 . S
H2102 C2094 0.930 1_556 S
H2103 C2095 0.929 1_556 S
C404 C216 1.203 . S
C385 N66 1.228 . S
C440 C229 1.562 . S
C421 N79 1.540 . S
C457 N92 1.936 . S
C476 C249 1.856 . S
C512 C263 1.262 . S
C493 N54 1.268 . S
C548 C275 1.522 . S
C529 N131 1.529 . S
C584 C289 1.042 . S
C565 N158 1.046 . S
C601 N145 1.557 . S
C620 C299 1.539 . S
C656 C314 1.829 1_565 S
C637 N118 1.844 . S
C673 N148 2.011 . S
C692 C328 1.939 . S
C728 C347 1.449 . S
C709 N122 1.509 . S
C745 N132 1.158 . S
C764 C327 1.128 . S
C800 C345 1.401 . S
C781 N161 1.387 . S
C817 N96 2.068 . S
C836 C361 1.946 . S
C853 N53 1.730 . S
C872 C355 1.728 . S
C889 N67 1.015 . S
C908 C359 1.016 . S
C925 N83 1.335 . S
C944 C356 1.337 . S
C961 N44 1.395 . S
C980 C258 1.383 . S
C997 N187 1.456 . S
C1016 C257 1.465 . S
C1052 C221 1.035 . S
C1033 N197 1.093 . S
C1088 C235 1.279 . S
C1069 N106 1.376 . S
C1105 N57 1.894 . S
C1124 C272 1.901 . S
C1160 C317 1.487 . S
C1141 N144 1.475 . S
C1196 C271 1.313 . S
C1177 N119 1.315 . S
C1232 C303 1.780 . S
C1213 N157 1.753 . S
C1268 C300 1.243 . S
C1249 N183 1.219 . S
C1285 N196 1.541 . S
C1304 C313 1.540 . S
C1321 N105 1.942 . S
C1340 C277 1.864 . S
C1376 C291 1.258 . S
C1357 N171 1.268 . S
C1393 N40 1.529 . S
C1412 C247 1.534 . S
C1448 C261 1.055 . S
C1429 N2 1.050 1_655 S
C1484 C215 1.558 . S
C1465 N15 1.557 . S
C1520 C230 1.833 . S
C1501 N27 1.843 . S
C1537 N18 2.008 . S
C1556 C342 1.946 . S
C1573 N31 1.508 . S
C1592 C333 1.447 . S
C1609 N41 1.160 . S
C1628 C341 1.136 . S
C1645 N5 1.386 . S
C1664 C331 1.401 . S
C1700 C375 1.949 . S
C1681 N109 2.068 . S
C1736 C369 1.732 . S
C1717 N170 1.725 . S
C1772 C373 1.009 . S
C1753 N184 1.012 . S
C1789 N200 1.342 . S
C1808 C370 1.299 . S
C1825 N135 1.400 . S
C1844 C286 1.401 . S
C1880 C285 1.467 . S
C1861 N70 1.455 . S
C1916 C305 0.985 . S
C1897 N80 1.094 . S
C1952 C319 1.330 . S
C1933 N93 1.375 . S
C1969 N174 1.894 . S
C1988 C244 1.887 . S
C2024 C233 1.487 . S
C2005 N14 1.475 . S
C2041 N28 1.316 . S
C2060 C243 1.310 . S
C2096 C219 1.785 . S
C2077 N1 1.732 1_565 S
