# Generated by pormake.
# Topology pyr, (3,6)-cn, num edge types: 1
# Building blocks:
#     Node 0, Type 0, BuildingBlock: CUQRIR_clean_linker_1, # of connection points: 3
#     Node 1, Type 0, BuildingBlock: CUQRIR_clean_linker_1, # of connection points: 3
#     Node 2, Type 0, BuildingBlock: CUQRIR_clean_linker_1, # of connection points: 3
#     Node 3, Type 0, BuildingBlock: CUQRIR_clean_linker_1, # of connection points: 3
#     Node 4, Type 0, BuildingBlock: CUQRIR_clean_linker_1, # of connection points: 3
#     Node 5, Type 0, BuildingBlock: CUQRIR_clean_linker_1, # of connection points: 3
#     Node 6, Type 0, BuildingBlock: CUQRIR_clean_linker_1, # of connection points: 3
#     Node 7, Type 0, BuildingBlock: CUQRIR_clean_linker_1, # of connection points: 3
#     Node 8, Type 1, BuildingBlock: GEDQOX_clean_sbu_0, # of connection points: 6
#     Node 9, Type 1, BuildingBlock: GEDQOX_clean_sbu_0, # of connection points: 6
#     Node 10, Type 1, BuildingBlock: GEDQOX_clean_sbu_0, # of connection points: 6
#     Node 11, Type 1, BuildingBlock: GEDQOX_clean_sbu_0, # of connection points: 6
#     Edge 12, Type (0, 1), BuildingBlock: KIFKEQ_clean_linker_1, # of connection points: 2
#     Edge 13, Type (0, 1), BuildingBlock: KIFKEQ_clean_linker_1, # of connection points: 2
#     Edge 14, Type (0, 1), BuildingBlock: KIFKEQ_clean_linker_1, # of connection points: 2
#     Edge 15, Type (0, 1), BuildingBlock: KIFKEQ_clean_linker_1, # of connection points: 2
#     Edge 16, Type (0, 1), BuildingBlock: KIFKEQ_clean_linker_1, # of connection points: 2
#     Edge 17, Type (0, 1), BuildingBlock: KIFKEQ_clean_linker_1, # of connection points: 2
#     Edge 18, Type (0, 1), BuildingBlock: KIFKEQ_clean_linker_1, # of connection points: 2
#     Edge 19, Type (0, 1), BuildingBlock: KIFKEQ_clean_linker_1, # of connection points: 2
#     Edge 20, Type (0, 1), BuildingBlock: KIFKEQ_clean_linker_1, # of connection points: 2
#     Edge 21, Type (0, 1), BuildingBlock: KIFKEQ_clean_linker_1, # of connection points: 2
#     Edge 22, Type (0, 1), BuildingBlock: KIFKEQ_clean_linker_1, # of connection points: 2
#     Edge 23, Type (0, 1), BuildingBlock: KIFKEQ_clean_linker_1, # of connection points: 2
#     Edge 24, Type (0, 1), BuildingBlock: KIFKEQ_clean_linker_1, # of connection points: 2
#     Edge 25, Type (0, 1), BuildingBlock: KIFKEQ_clean_linker_1, # of connection points: 2
#     Edge 26, Type (0, 1), BuildingBlock: KIFKEQ_clean_linker_1, # of connection points: 2
#     Edge 27, Type (0, 1), BuildingBlock: KIFKEQ_clean_linker_1, # of connection points: 2
#     Edge 28, Type (0, 1), BuildingBlock: KIFKEQ_clean_linker_1, # of connection points: 2
#     Edge 29, Type (0, 1), BuildingBlock: KIFKEQ_clean_linker_1, # of connection points: 2
#     Edge 30, Type (0, 1), BuildingBlock: KIFKEQ_clean_linker_1, # of connection points: 2
#     Edge 31, Type (0, 1), BuildingBlock: KIFKEQ_clean_linker_1, # of connection points: 2
#     Edge 32, Type (0, 1), BuildingBlock: KIFKEQ_clean_linker_1, # of connection points: 2
#     Edge 33, Type (0, 1), BuildingBlock: KIFKEQ_clean_linker_1, # of connection points: 2
#     Edge 34, Type (0, 1), BuildingBlock: KIFKEQ_clean_linker_1, # of connection points: 2
#     Edge 35, Type (0, 1), BuildingBlock: KIFKEQ_clean_linker_1, # of connection points: 2
# Relax obj value: 0.188
# Max RMSD: 0.235
# Mean RMSD: 0.165
data_MOF--net-pyr--node1-GEDQOX_clean_sbu_0--node2-CUQRIR_clean_linker_1--edge1-KIFKEQ_clean_linker_1
_symmetry_space_group_name_H-M    P1
_symmetry_Int_Tables_number       1
_symmetry_cell_setting            triclinic
loop_
_symmetry_equiv_pos_as_xyz
'x, y, z'
_cell_length_a     37.215724
_cell_length_b     36.997231
_cell_length_c     32.379747
_cell_angle_alpha  85.68605
_cell_angle_beta   92.151474
_cell_angle_gamma 88.783487
loop_
_atom_site_label
_atom_site_type_symbol
_atom_site_fract_x
_atom_site_fract_y
_atom_site_fract_z
_atom_type_partial_charge
C0 C 0.21435 0.22521 0.18238 0.0
N1 N 0.23768 0.19623 0.19138 0.0
N2 N 0.22467 0.24766 0.14972 0.0
C3 C 0.17987 0.23039 0.20442 0.0
C4 C 0.25551 0.23042 0.13871 0.0
N5 N 0.26377 0.19922 0.16351 0.0
C6 C 0.27873 0.24501 0.10459 0.0
H7 H 0.15928 0.24544 0.18382 0.0
H8 H 0.18541 0.24593 0.23187 0.0
H9 H 0.16877 0.20394 0.21539 0.0
H10 H 0.27637 0.27501 0.10041 0.0
H11 H 0.26981 0.23373 0.07522 0.0
H12 H 0.30737 0.23695 0.11117 0.0
C13 C 0.40289 0.75499 0.80507 0.0
N14 N 0.39971 0.78587 0.82474 0.0
N15 N 0.43381 0.73657 0.81751 0.0
C16 C 0.37877 0.74578 0.76895 0.0
C17 C 0.44958 0.75799 0.8449 0.0
N18 N 0.42894 0.78798 0.8491 0.0
C19 C 0.48513 0.74982 0.86756 0.0
H20 H 0.3593 0.72531 0.7801 0.0
H21 H 0.39465 0.73417 0.7446 0.0
H22 H 0.36345 0.76976 0.7545 0.0
H23 H 0.50649 0.76468 0.85091 0.0
H24 H 0.49178 0.72035 0.86939 0.0
H25 H 0.48456 0.75923 0.89929 0.0
C26 C 0.78652 0.37333 0.77961 0.0
N27 N 0.80684 0.37022 0.81535 0.0
N28 N 0.79269 0.40496 0.75758 0.0
C29 C 0.75648 0.34846 0.76904 0.0
C30 C 0.8173 0.42114 0.78131 0.0
N31 N 0.82561 0.40024 0.81668 0.0
C32 C 0.83314 0.45733 0.76942 0.0
H33 H 0.73041 0.36368 0.76825 0.0
H34 H 0.75523 0.32436 0.79137 0.0
H35 H 0.76013 0.33911 0.73769 0.0
H36 H 0.83157 0.46315 0.73526 0.0
H37 H 0.8616 0.45798 0.7808 0.0
H38 H 0.81769 0.47889 0.78351 0.0
C39 C 0.81785 0.84469 0.29154 0.0
N40 N 0.85307 0.8504 0.28528 0.0
N41 N 0.80376 0.87017 0.31457 0.0
C42 C 0.79852 0.81111 0.28057 0.0
C43 C 0.83172 0.89216 0.32119 0.0
N44 N 0.86167 0.88025 0.30334 0.0
C45 C 0.83116 0.92202 0.3503 0.0
H46 H 0.77032 0.81805 0.27022 0.0
H47 H 0.79804 0.79183 0.3085 0.0
H48 H 0.81195 0.79767 0.2556 0.0
H49 H 0.85009 0.91485 0.37712 0.0
H50 H 0.80381 0.92685 0.36156 0.0
H51 H 0.84032 0.94752 0.33426 0.0
C52 C 0.86956 0.87879 0.89053 0.0
N53 N 0.89789 0.87202 0.8658 0.0
N54 N 0.85197 0.91108 0.87894 0.0
C55 C 0.85785 0.8524 0.92482 0.0
C56 C 0.87113 0.92372 0.84579 0.0
N57 N 0.89892 0.90053 0.8374 0.0
C58 C 0.86348 0.95994 0.82249 0.0
H59 H 0.84202 0.83092 0.91108 0.0
H60 H 0.84072 0.86542 0.94689 0.0
H61 H 0.88166 0.83928 0.94192 0.0
H62 H 0.85043 0.97901 0.84249 0.0
H63 H 0.84497 0.95626 0.79555 0.0
H64 H 0.8886 0.97193 0.81087 0.0
C65 C 0.72025 0.32535 0.29259 0.0
N66 N 0.72723 0.29701 0.26993 0.0
N67 N 0.69077 0.34448 0.27671 0.0
C68 C 0.74004 0.33207 0.33269 0.0
C69 C 0.68019 0.32641 0.24349 0.0
N70 N 0.70241 0.29754 0.23939 0.0
C71 C 0.64737 0.33589 0.21602 0.0
H72 H 0.72087 0.33972 0.35615 0.0
H73 H 0.75864 0.35478 0.32696 0.0
H74 H 0.75613 0.30798 0.34554 0.0
H75 H 0.63856 0.3645 0.21814 0.0
H76 H 0.6253 0.31777 0.22556 0.0
H77 H 0.65293 0.33155 0.18333 0.0
C78 C 0.33963 0.6336 0.21521 0.0
N79 N 0.36619 0.6522 0.23284 0.0
N80 N 0.32549 0.65268 0.18089 0.0
C81 C 0.32539 0.59842 0.23353 0.0
C82 C 0.34431 0.68359 0.17839 0.0
N83 N 0.36886 0.68341 0.21027 0.0
C84 C 0.33733 0.7146 0.14606 0.0
H85 H 0.34787 0.57906 0.24292 0.0
H86 H 0.30704 0.58584 0.21125 0.0
H87 H 0.31068 0.60362 0.26176 0.0
H88 H 0.31574 0.73255 0.15647 0.0
H89 H 0.32821 0.70476 0.11604 0.0
H90 H 0.36184 0.73067 0.14122 0.0
C91 C 0.23306 0.1946 0.82556 0.0
N92 N 0.24604 0.19131 0.78752 0.0
N93 N 0.25171 0.21924 0.84612 0.0
C94 C 0.20108 0.17494 0.84214 0.0
C95 C 0.27713 0.23012 0.81917 0.0
N96 N 0.27368 0.21321 0.78361 0.0
C97 C 0.30032 0.26263 0.82437 0.0
H98 H 0.17597 0.18946 0.83033 0.0
H99 H 0.20184 0.17364 0.87652 0.0
H100 H 0.20056 0.14712 0.8315 0.0
H101 H 0.31671 0.25843 0.85371 0.0
H102 H 0.28291 0.28714 0.82631 0.0
H103 H 0.31882 0.26777 0.79871 0.0
Nd104 Nd 0.10901 1.0022 0.51812 0.0
Nd105 Nd 0.05717 0.05892 0.50747 0.0
C106 C 0.14954 0.94244 0.53113 0.0
C107 C 0.17328 0.92996 0.56671 0.0
C108 C 0.19798 0.90133 0.56378 0.0
C109 C 0.22222 0.89125 0.59687 0.0
C110 C 0.22211 0.90974 0.63334 0.0
C111 C 0.19685 0.93811 0.63629 0.0
C112 C 0.17272 0.94821 0.60317 0.0
C113 C 0.13132 0.06226 0.55697 0.0
C114 C 0.04555 0.99871 0.58759 0.0
C115 C 1.00964 0.11317 0.50722 0.0
C116 C 0.98623 0.13404 0.47622 0.0
C117 C 0.96538 0.16312 0.48812 0.0
C118 C 0.9392 0.17989 0.46064 0.0
C119 C 0.93328 0.16764 0.42086 0.0
C120 C 0.95545 0.13949 0.40845 0.0
C121 C 0.98171 0.12281 0.43594 0.0
C122 C 0.04735 1.00919 0.44866 0.0
C123 C 0.12217 0.06279 0.44238 0.0
O124 O 0.11527 0.94358 0.53802 0.0
O125 O 0.15982 0.97154 0.51012 0.0
O126 O 0.15148 0.04328 0.53487 0.0
O127 O 0.10024 0.04958 0.55809 0.0
O128 O 0.07689 0.98481 0.57748 0.0
O129 O 1.03173 1.02722 0.56462 0.0
O130 O 1.04429 0.11809 0.50552 0.0
O131 O 1.00164 0.07909 0.51369 0.0
O132 O 1.0454 0.04389 0.4407 0.0
O133 O 0.05417 1.00155 0.48667 0.0
O134 O 0.10288 0.08304 0.46598 0.0
O135 O 0.1229 1.02718 0.45166 0.0
H136 H 0.19881 0.88711 0.53576 0.0
H137 H 0.24106 0.86896 0.59392 0.0
H138 H 0.19634 0.95308 0.66375 0.0
H139 H 0.15402 0.97073 0.6057 0.0
H140 H 0.96853 0.17208 0.51912 0.0
H141 H 0.92306 0.20197 0.47088 0.0
H142 H 0.95145 0.12923 0.3782 0.0
H143 H 0.99749 0.10024 0.42632 0.0
Nd144 Nd 0.56571 0.03228 0.06892 0.0
Nd145 Nd 0.55696 0.07052 1.0013 0.0
C146 C 0.57872 0.98147 0.13027 0.0
C147 C 0.56031 0.95318 0.1546 0.0
C148 C 0.58053 0.92368 0.17344 0.0
C149 C 0.56333 0.89438 0.19301 0.0
C150 C 0.52566 0.89434 0.19411 0.0
C151 C 0.50553 0.92471 0.17675 0.0
C152 C 0.52276 0.95392 0.15687 0.0
C153 C 0.50409 0.07784 0.07788 0.0
C154 C 0.51546 0.99913 0.99777 0.0
C155 C 0.55456 0.12478 0.9434 0.0
C156 C 0.5842 0.14862 0.9309 0.0
C157 C 0.58114 0.18602 0.93518 0.0
C158 C 0.61104 0.208 0.93037 0.0
C159 C 0.64449 0.19298 0.92091 0.0
C160 C 0.64726 0.15573 0.91548 0.0
C161 C 0.6175 0.13374 0.92063 0.0
C162 C 0.61714 1.02379 0.99199 0.0
C163 C 0.60726 0.1031 0.0714 0.0
O164 O 0.58223 0.97612 0.09128 0.0
O165 O 0.57001 1.01496 0.13604 0.0
O166 O 0.53151 0.07297 0.10368 0.0
O167 O 0.51057 0.06058 0.04604 0.0
O168 O 0.53811 0.99073 0.02926 0.0
O169 O 0.51251 0.03296 0.98279 0.0
O170 O 0.54386 0.12807 0.9808 0.0
O171 O 0.55742 0.09094 0.935 0.0
O172 O 0.58922 1.02826 0.96703 0.0
O173 O 0.61164 0.04199 0.02339 0.0
O174 O 0.58179 0.11194 0.04337 0.0
O175 O 0.61208 0.06887 0.0831 0.0
H176 H 0.60957 0.92281 0.17183 0.0
H177 H 0.57938 0.87131 0.20628 0.0
H178 H 0.47641 0.92506 0.17668 0.0
H179 H 0.5068 0.97647 0.14213 0.0
H180 H 0.5559 0.19802 0.94365 0.0
H181 H 0.60803 0.23673 0.93418 0.0
H182 H 0.67274 0.14336 0.90849 0.0
H183 H 0.62102 0.10488 0.91794 0.0
Nd184 Nd 0.51471 0.50948 0.54155 0.0
Nd185 Nd 0.575 0.56517 0.53602 0.0
C186 C 0.45444 0.47309 0.53627 0.0
C187 C 0.4329 0.44525 0.55784 0.0
C188 C 0.42033 0.4167 0.53552 0.0
C189 C 0.40081 0.38895 0.55492 0.0
C190 C 0.39326 0.38939 0.59702 0.0
C191 C 0.4055 0.41828 0.61931 0.0
C192 C 0.42534 0.44597 0.5999 0.0
C193 C 0.5769 0.48733 0.58507 0.0
C194 C 0.51819 0.57345 0.60738 0.0
C195 C 0.63349 0.6042 0.53057 0.0
C196 C 0.64042 0.64118 0.51377 0.0
C197 C 0.67122 0.65875 0.52705 0.0
C198 C 0.6788 0.69331 0.50962 0.0
C199 C 0.65569 0.7107 0.47853 0.0
C200 C 0.62422 0.6934 0.46628 0.0
C201 C 0.61657 0.65896 0.48389 0.0
C202 C 0.51245 0.58619 0.49166 0.0
C203 C 0.57452 0.50032 0.47528 0.0
O204 O 0.45594 0.50528 0.55051 0.0
O205 O 0.48515 0.46178 0.52318 0.0
O206 O 0.55467 0.46484 0.56984 0.0
O207 O 0.56369 0.5189 0.58184 0.0
O208 O 0.49769 0.54983 0.58934 0.0
O209 O 0.55113 0.5802 0.59592 0.0
O210 O 0.62382 0.58158 0.50333 0.0
O211 O 0.61452 0.60141 0.56373 0.0
O212 O 0.53337 0.60869 0.50892 0.0
O213 O 0.52665 0.55506 0.49506 0.0
O214 O 0.59555 0.5184 0.49963 0.0
O215 O 0.53952 0.49977 0.47984 0.0
H216 H 0.42586 0.41573 0.50299 0.0
H217 H 0.39137 0.36729 0.53689 0.0
H218 H 0.40033 0.4191 0.65192 0.0
H219 H 0.43499 0.46763 0.61779 0.0
H220 H 0.68978 0.64542 0.55022 0.0
H221 H 0.70349 0.70578 0.51927 0.0
H222 H 0.60584 0.70627 0.44262 0.0
H223 H 0.59242 0.64589 0.47357 0.0
Nd224 Nd 1.02931 0.55447 0.03289 0.0
Nd225 Nd 0.08557 0.55741 0.96039 0.0
C226 C 0.97374 0.54987 0.0807 0.0
C227 C 0.9629 0.57471 0.11181 0.0
C228 C 0.92719 0.58759 0.11202 0.0
C229 C 0.91818 0.61629 0.13582 0.0
C230 C 0.94489 0.63282 0.1593 0.0
C231 C 0.98026 0.61881 0.16048 0.0
C232 C 0.98915 0.58994 0.13715 0.0
C233 C 0.08962 0.59195 0.05435 0.0
C234 C 1.02546 0.6268 0.96243 0.0
C235 C 0.14007 0.56102 0.91219 0.0
C236 C 0.16174 0.52856 0.90359 0.0
C237 C 0.19362 0.51953 0.92734 0.0
C238 C 0.20706 0.48375 0.93142 0.0
C239 C 0.1888 0.4566 0.91177 0.0
C240 C 0.15938 0.46636 0.88456 0.0
C241 C 0.14613 0.502 0.88024 0.0
C242 C 1.03003 0.51012 0.95312 0.0
C243 C 0.0928 0.48782 0.03179 0.0
O244 O 0.97123 0.56386 0.04231 0.0
O245 O 1.00363 0.53092 0.08914 0.0
O246 O 0.0627 0.58826 0.07831 0.0
O247 O 0.08232 0.57723 1.0219 0.0
O248 O 1.0104 0.60838 0.99412 0.0
O249 O 0.05492 0.61379 0.94562 0.0
O250 O 0.14271 0.56965 0.95076 0.0
O251 O 0.10668 0.5627 0.89714 0.0
O252 O 0.06173 0.50462 0.93918 0.0
O253 O 1.02773 0.54112 0.96646 0.0
O254 O 0.10979 0.50941 1.00457 0.0
O255 O 0.05983 0.49709 0.04339 0.0
H256 H 0.90661 0.57653 0.09239 0.0
H257 H 0.89069 0.62668 0.13429 0.0
H258 H 1.00124 0.6307 0.17881 0.0
H259 H 1.01691 0.58056 0.13777 0.0
H260 H 0.20636 0.53939 0.94561 0.0
H261 H 0.23013 0.47689 0.95214 0.0
H262 H 0.1455 0.446 0.8681 0.0
H263 H 0.12183 0.50788 0.86125 0.0
H264 H 0.24968 0.20727 0.27233 0.0
H265 H 0.21002 0.12798 0.19303 0.0
H266 H 0.22373 0.17449 0.33215 0.0
H267 H 0.18389 0.09454 0.25292 0.0
H268 H 0.15546 0.02999 0.37817 0.0
H269 H 0.18738 0.05794 0.31931 0.0
H270 H 0.16729 0.16341 0.36297 0.0
H271 H 0.13536 0.13549 0.42137 0.0
C272 C 0.23679 0.18181 0.26787 0.0
C273 C 0.2336 0.16991 0.22742 0.0
C274 C 0.2209 0.16322 0.30234 0.0
C275 C 0.20078 0.1315 0.29842 0.0
C276 C 0.19912 0.11846 0.25824 0.0
C277 C 0.21476 0.13744 0.22355 0.0
C278 C 0.15779 0.05918 0.37541 0.0
C279 C 0.1424 0.08006 0.40547 0.0
C280 C 0.17618 0.07545 0.34112 0.0
C281 C 0.18072 0.11345 0.3354 0.0
C282 C 0.16538 0.13419 0.36568 0.0
C283 C 0.14658 0.11799 0.39954 0.0
H284 H 0.39631 0.8131 0.9143 0.0
H285 H 0.48299 0.83287 0.83185 0.0
H286 H 0.41342 0.86616 0.95177 0.0
H287 H 0.49966 0.88638 0.86819 0.0
H288 H 0.48997 1.00065 0.91748 0.0
H289 H 0.46625 0.94994 0.88121 0.0
H290 H 0.4749 0.8814 0.99513 0.0
H291 H 0.49951 0.93177 0.0313 0.0
C292 C 0.41893 0.82901 0.90433 0.0
C293 C 0.4387 0.81907 0.87078 0.0
C294 C 0.4287 0.85917 0.92556 0.0
C295 C 0.45776 0.88033 0.9127 0.0
C296 C 0.47702 0.87065 0.87853 0.0
C297 C 0.46776 0.84006 0.858 0.0
C298 C 0.48629 0.97494 0.93492 0.0
C299 C 0.49665 0.97013 0.9772 0.0
C300 C 0.47293 0.94592 0.91412 0.0
C301 C 0.46889 0.91183 0.93542 0.0
C302 C 0.47763 0.90748 0.97809 0.0
C303 C 0.49177 0.93625 0.9987 0.0
H304 H 0.77902 0.38355 0.68101 0.0
H305 H 0.75135 0.46408 0.76453 0.0
H306 H 0.72963 0.40615 0.63292 0.0
H307 H 0.70208 0.48672 0.71724 0.0
H308 H 0.6069 0.41966 0.59994 0.0
H309 H 0.66428 0.40305 0.63614 0.0
H310 H 0.68411 0.51628 0.65015 0.0
H311 H 0.62631 0.53267 0.61492 0.0
C312 C 0.76273 0.4066 0.68844 0.0
C313 C 0.76877 0.42231 0.72604 0.0
C314 C 0.73444 0.41937 0.66127 0.0
C315 C 0.7118 0.44804 0.67145 0.0
C316 C 0.71927 0.46495 0.70817 0.0
C317 C 0.74749 0.45214 0.73521 0.0
C318 C 0.62365 0.44092 0.61065 0.0
C319 C 0.61211 0.47734 0.60522 0.0
C320 C 0.65666 0.43149 0.63097 0.0
C321 C 0.67872 0.45838 0.64603 0.0
C322 C 0.66751 0.49494 0.63936 0.0
C323 C 0.63448 0.50431 0.6192 0.0
H324 H 0.87354 0.78842 0.32806 0.0
H325 H 0.88562 0.85134 0.21239 0.0
H326 H 0.9013 0.73554 0.29973 0.0
H327 H 0.91363 0.79843 0.18345 0.0
H328 H 0.9812 0.69618 0.15681 0.0
H329 H 0.96624 0.75131 0.19064 0.0
H330 H 0.87428 0.69877 0.24352 0.0
H331 H 0.88921 0.64378 0.20976 0.0
C332 C 0.88341 0.79104 0.29696 0.0
C333 C 0.87779 0.82359 0.27226 0.0
C334 C 0.89885 0.76086 0.28061 0.0
C335 C 0.90906 0.76278 0.23922 0.0
C336 C 0.90606 0.79627 0.2155 0.0
C337 C 0.89031 0.8265 0.23193 0.0
C338 C 0.95801 0.69638 0.17604 0.0
C339 C 0.93637 0.66572 0.18083 0.0
C340 C 0.94938 0.72794 0.19513 0.0
C341 C 0.9193 0.72919 0.21988 0.0
C342 C 0.89793 0.69837 0.22504 0.0
C343 C 0.90625 0.66704 0.20549 0.0
H344 H 0.27198 0.15027 0.1053 0.0
H345 H 0.32979 0.19668 0.20456 0.0
H346 H 0.32731 0.12057 0.08506 0.0
H347 H 0.38573 0.16837 0.18411 0.0
H348 H 0.48605 0.10305 0.15286 0.0
H349 H 0.42968 0.1276 0.17552 0.0
H350 H 0.38083 0.11553 0.0545 0.0
H351 H 0.43759 0.08951 0.03259 0.0
C352 C 0.29642 0.15332 0.12378 0.0
C353 C 0.29527 0.1749 0.15804 0.0
C354 C 0.32897 0.13671 0.11149 0.0
C355 C 0.3628 0.14124 0.1322 0.0
C356 C 0.36131 0.16272 0.16693 0.0
C357 C 0.32862 0.17911 0.17931 0.0
C358 C 0.46339 0.10546 0.13078 0.0
C359 C 0.4675 0.09379 0.09047 0.0
C360 C 0.43033 0.12013 0.14393 0.0
C361 C 0.39891 0.12453 0.11755 0.0
C362 C 0.40313 0.11279 0.07695 0.0
C363 C 0.43634 0.09779 0.06388 0.0
H364 H 0.32857 0.78575 0.83457 0.0
H365 H 0.41434 0.84982 0.78509 0.0
H366 H 0.28442 0.82473 0.79377 0.0
H367 H 0.3705 0.8898 0.74501 0.0
H368 H 0.2937 0.89471 0.62799 0.0
H369 H 0.33657 0.87402 0.68364 0.0
H370 H 0.25396 0.88286 0.77288 0.0
H371 H 0.21055 0.90256 0.71666 0.0
C372 C 0.33764 0.80939 0.81646 0.0
C373 C 0.37452 0.81502 0.8127 0.0
C374 C 0.31251 0.83169 0.79303 0.0
C375 C 0.32404 0.85995 0.7655 0.0
C376 C 0.36086 0.86782 0.76535 0.0
C377 C 0.38593 0.8454 0.78869 0.0
C378 C 0.28467 0.89228 0.65947 0.0
C379 C 0.24865 0.89977 0.66786 0.0
C380 C 0.3094 0.88101 0.69152 0.0
C381 C 0.29873 0.87697 0.73279 0.0
C382 C 0.26295 0.88561 0.7414 0.0
C383 C 0.23817 0.89702 0.70925 0.0
H384 H 0.82421 0.46097 0.85758 0.0
H385 H 0.88095 0.35912 0.85092 0.0
H386 H 0.87289 0.48239 0.90083 0.0
H387 H 0.92912 0.37916 0.89687 0.0
H388 H 1.02833 0.45201 0.90684 0.0
H389 H 0.9759 0.41949 0.88487 0.0
H390 H 0.90942 0.48267 0.96092 0.0
H391 H 0.96204 0.51655 0.98104 0.0
C392 C 0.84693 0.44291 0.86637 0.0
C393 C 0.84968 0.409 0.85003 0.0
C394 C 0.87468 0.45489 0.89167 0.0
C395 C 0.90551 0.43282 0.90176 0.0
C396 C 0.90631 0.3973 0.88877 0.0
C397 C 0.87864 0.38557 0.86295 0.0
C398 C 1.00256 0.45863 0.91922 0.0
C399 C 0.99905 0.48721 0.94499 0.0
C400 C 0.97244 0.43968 0.90699 0.0
C401 C 0.93815 0.44855 0.92077 0.0
C402 C 0.9352 0.4756 0.94892 0.0
C403 C 0.96533 0.49493 0.96066 0.0
H404 H 0.81039 0.85191 0.39587 0.0
H405 H 0.73276 0.87043 0.29416 0.0
H406 H 0.76505 0.82355 0.43857 0.0
H407 H 0.68641 0.84215 0.33699 0.0
H408 H 0.65321 0.72775 0.39526 0.0
H409 H 0.68087 0.77865 0.3581 0.0
H410 H 0.7099 0.82259 0.47443 0.0
H411 H 0.68263 0.77091 0.51174 0.0
C412 C 0.783 0.85132 0.38343 0.0
C413 C 0.77483 0.8632 0.34196 0.0
C414 C 0.75692 0.83506 0.40781 0.0
C415 C 0.7221 0.83019 0.39108 0.0
C416 C 0.71313 0.84505 0.35058 0.0
C417 C 0.7394 0.86142 0.32617 0.0
C418 C 0.66453 0.74882 0.41288 0.0
C419 C 0.66627 0.74511 0.4564 0.0
C420 C 0.68027 0.77819 0.39155 0.0
C421 C 0.69796 0.80457 0.4133 0.0
C422 C 0.69705 0.80238 0.45681 0.0
C423 C 0.68152 0.77281 0.47817 0.0
H424 H 0.19758 0.30382 0.19126 0.0
H425 H 0.21079 0.27193 0.06753 0.0
H426 H 0.16548 0.35925 0.16333 0.0
H427 H 0.18006 0.32839 0.03928 0.0
H428 H 0.15094 0.45124 1.00107 0.0
H429 H 0.18205 0.39484 0.02785 0.0
H430 H 0.10999 0.38533 0.12897 0.0
H431 H 0.07845 0.44162 0.10167 0.0
C432 C 0.19358 0.3083 0.158 0.0
C433 C 0.207 0.28227 0.13217 0.0
C434 C 0.17499 0.3406 0.14173 0.0
C435 C 0.16939 0.34924 0.09857 0.0
C436 C 0.18359 0.32361 0.0726 0.0
C437 C 0.20161 0.29088 0.08896 0.0
C438 C 0.14144 0.43727 0.02902 0.0
C439 C 0.11168 0.45193 0.04884 0.0
C440 C 0.15943 0.40436 0.04446 0.0
C441 C 0.14919 0.38453 0.08112 0.0
C442 C 0.11947 0.39929 0.10102 0.0
C443 C 0.10099 0.43187 0.08508 0.0
H444 H 0.76219 0.38276 0.87536 0.0
H445 H 0.83237 0.30199 0.8305 0.0
H446 H 0.72915 0.33566 0.91319 0.0
H447 H 0.80062 0.25424 0.86972 0.0
H448 H 0.69325 0.19323 0.86032 0.0
H449 H 0.74294 0.23377 0.84938 0.0
H450 H 0.71831 0.28518 0.96089 0.0
H451 H 0.6678 0.24469 0.97127 0.0
C452 C 0.77183 0.35489 0.87592 0.0
C453 C 0.79944 0.34566 0.85016 0.0
C454 C 0.75286 0.32777 0.89735 0.0
C455 C 0.76154 0.29099 0.89349 0.0
C456 C 0.7926 0.28225 0.87238 0.0
C457 C 0.81124 0.30946 0.85055 0.0
C458 C 0.69882 0.21275 0.8829 0.0
C459 C 0.6764 0.21607 0.91635 0.0
C460 C 0.72759 0.23586 0.87689 0.0
C461 C 0.73486 0.26277 0.90438 0.0
C462 C 0.71328 0.26505 0.9389 0.0
C463 C 0.68427 0.24201 0.94474 0.0
H464 H 0.91557 0.8435 0.34734 0.0
H465 H 0.88703 0.9455 0.28031 0.0
H466 H 0.9704 0.86936 0.37498 0.0
H467 H 0.93999 0.97271 0.31012 0.0
H468 H 1.01924 0.9434 0.47027 0.0
H469 H 0.98152 0.9076 0.42709 0.0
H470 H 1.0008 0.98163 0.32068 0.0
H471 H 1.03677 1.01864 0.36499 0.0
C472 C 0.92174 0.87119 0.33754 0.0
C473 C 0.89741 0.8926 0.31162 0.0
C474 C 0.95275 0.88634 0.35402 0.0
C475 C 0.9595 0.92346 0.34565 0.0
C476 C 0.93622 0.94402 0.31717 0.0
C477 C 0.90567 0.92861 0.30017 0.0
C478 C 1.01585 0.95165 0.43751 0.0
C479 C 1.03034 0.98406 0.42104 0.0
C480 C 0.99439 0.93092 0.41249 0.0
C481 C 0.98753 0.94181 0.37022 0.0
C482 C 1.00457 0.97284 0.35324 0.0
C483 C 1.02541 0.99395 0.3785 0.0
H484 H 0.50002 0.73319 0.78641 0.0
H485 H 0.40278 0.67337 0.80199 0.0
H486 H 0.52222 0.68892 0.74142 0.0
H487 H 0.42287 0.63095 0.75296 0.0
H488 H 0.47591 0.55038 0.67173 0.0
H489 H 0.45882 0.58506 0.72992 0.0
H490 H 0.51119 0.67881 0.6737 0.0
H491 H 0.52992 0.64356 0.61809 0.0
C492 C 0.48367 0.7101 0.78081 0.0
C493 C 0.44959 0.70683 0.79752 0.0
C494 C 0.49593 0.68509 0.75403 0.0
C495 C 0.47385 0.65689 0.74199 0.0
C496 C 0.44074 0.6522 0.76114 0.0
C497 C 0.42902 0.67666 0.78904 0.0
C498 C 0.48359 0.57843 0.67216 0.0
C499 C 0.50444 0.59427 0.64076 0.0
C500 C 0.47384 0.59838 0.70542 0.0
C501 C 0.48418 0.63475 0.70731 0.0
C502 C 0.50388 0.65061 0.67467 0.0
C503 C 0.51426 0.63052 0.64228 0.0
H504 H 0.87878 0.90854 0.75554 0.0
H505 H 0.97244 0.9097 0.83707 0.0
H506 H 0.91401 0.93092 0.69702 0.0
H507 H 1.00841 0.93128 0.7782 0.0
H508 H 0.06944 0.94818 0.65224 0.0
H509 H 1.03655 0.92185 0.71131 0.0
H510 H 0.94202 0.98462 0.66758 0.0
H511 H 0.97492 1.0111 0.60915 0.0
C512 C 0.90723 0.91266 0.76094 0.0
C513 C 0.92244 0.90617 0.80161 0.0
C514 C 0.92763 0.92612 0.72712 0.0
C515 C 0.96464 0.93366 0.73184 0.0
C516 C 0.9803 0.92582 0.77232 0.0
C517 C 0.95961 0.91281 0.80646 0.0
C518 C 1.04163 0.95654 0.65508 0.0
C519 C 1.02534 0.98219 0.62498 0.0
C520 C 1.02257 0.94137 0.68947 0.0
C521 C 0.98595 0.95045 0.69517 0.0
C522 C 0.96977 0.97604 0.66489 0.0
C523 C 0.98896 0.99164 0.63103 0.0
H524 H 0.71149 0.29681 0.15729 0.0
H525 H 0.6752 0.23358 0.26398 0.0
H526 H 0.69345 0.24865 0.11277 0.0
H527 H 0.65772 0.18523 0.22044 0.0
H528 H 0.60605 0.17632 0.05138 0.0
H529 H 0.63454 0.22284 0.09026 0.0
H530 H 0.68313 0.13955 0.17649 0.0
H531 H 0.65452 0.09311 0.13794 0.0
C532 C 0.70027 0.2722 0.17109 0.0
C533 C 0.69531 0.26821 0.21387 0.0
C534 C 0.6898 0.24484 0.14583 0.0
C535 C 0.67442 0.21303 0.16317 0.0
C536 C 0.67018 0.20902 0.20624 0.0
C537 C 0.6803 0.23648 0.23124 0.0
C538 C 0.62314 0.16795 0.07838 0.0
C539 C 0.62768 0.13107 0.0919 0.0
C540 C 0.63965 0.19458 0.10047 0.0
C541 C 0.66081 0.18484 0.13665 0.0
C542 C 0.66657 0.14789 0.14906 0.0
C543 C 0.65029 0.12129 0.12686 0.0
H544 H 0.36149 0.68844 0.30125 0.0
H545 H 0.41165 0.59585 0.25205 0.0
H546 H 0.39267 0.67302 0.36867 0.0
H547 H 0.44302 0.58011 0.31897 0.0
H548 H 0.46886 0.542 0.45095 0.0
H549 H 0.42958 0.55844 0.3902 0.0
H550 H 0.45499 0.6712 0.39834 0.0
H551 H 0.49387 0.65472 0.4597 0.0
C552 C 0.37925 0.66476 0.30521 0.0
C553 C 0.38421 0.64298 0.27221 0.0
C554 C 0.39705 0.65597 0.34348 0.0
C555 C 0.41997 0.62518 0.34915 0.0
C556 C 0.42489 0.60354 0.3158 0.0
C557 C 0.40716 0.61245 0.27761 0.0
C558 C 0.46557 0.57035 0.4401 0.0
C559 C 0.48464 0.59709 0.45953 0.0
C560 C 0.4433 0.57972 0.40524 0.0
C561 C 0.43974 0.61601 0.38917 0.0
C562 C 0.45715 0.64303 0.41014 0.0
C563 C 0.47943 0.63362 0.44516 0.0
H564 H 0.28546 0.23994 0.91576 0.0
H565 H 0.18669 0.2522 0.84172 0.0
H566 H 0.26981 0.29505 0.94973 0.0
H567 H 0.17027 0.30541 0.87635 0.0
H568 H 0.14431 0.40242 0.93544 0.0
H569 H 0.15738 0.33728 0.93918 0.0
H570 H 0.26825 0.35838 0.91286 0.0
H571 H 0.25516 0.42364 0.90981 0.0
C572 C 0.25971 0.25346 0.90821 0.0
C573 C 0.23739 0.24203 0.87599 0.0
C574 C 0.25082 0.28493 0.92746 0.0
C575 C 0.21902 0.30474 0.91536 0.0
C576 C 0.19478 0.29062 0.88676 0.0
C577 C 0.20402 0.2598 0.86705 0.0
C578 C 0.1716 0.39303 0.93119 0.0
C579 C 0.19857 0.41784 0.92111 0.0
C580 C 0.17912 0.35584 0.93366 0.0
C581 C 0.21367 0.34276 0.92574 0.0
C582 C 0.24141 0.36764 0.91944 0.0
C583 C 0.23391 0.40497 0.91727 0.0
H584 H 0.78831 0.933 0.83812 0.0
H585 H 0.84039 0.9283 0.95912 0.0
H586 H 0.73462 0.96029 0.86526 0.0
H587 H 0.78606 0.95402 0.98735 0.0
H588 H 0.68828 1.02357 0.02744 0.0
H589 H 0.7439 0.998 1.00137 0.0
H590 H 0.68264 0.95885 0.89884 0.0
H591 H 0.62819 0.98513 0.92418 0.0
C592 C 0.78834 0.93747 0.87077 0.0
C593 C 0.81927 0.92745 0.89607 0.0
C594 C 0.75688 0.95303 0.8869 0.0
C595 C 0.75428 0.95962 0.92947 0.0
C596 C 0.78571 0.95005 0.95459 0.0
C597 C 0.81727 0.93458 0.93834 0.0
C598 C 0.68662 1.00948 0.99933 0.0
C599 C 0.65281 1.00694 0.9783 0.0
C600 C 0.71897 0.99442 0.98409 0.0
C601 C 0.71932 0.9759 0.94699 0.0
C602 C 0.68517 0.97318 0.92664 0.0
C603 C 0.65316 0.98827 0.94169 0.0
H604 H 0.72196 0.23409 0.31585 0.0
H605 H 0.79567 0.30182 0.24844 0.0
H606 H 0.77216 0.1965 0.34679 0.0
H607 H 0.8465 0.26554 0.28059 0.0
H608 H 0.93166 0.18433 0.33657 0.0
H609 H 0.8807 0.20862 0.29234 0.0
H610 H 0.81539 0.20989 0.39982 0.0
H611 H 0.86545 0.18433 0.44337 0.0
C612 C 0.74895 0.23986 0.30641 0.0
C613 C 0.75522 0.27007 0.27917 0.0
C614 C 0.77776 0.21892 0.32469 0.0
C615 C 0.81342 0.22835 0.31668 0.0
C616 C 0.81944 0.25728 0.28718 0.0
C617 C 0.7905 0.278 0.26868 0.0
C618 C 0.90625 0.18942 0.35058 0.0
C619 C 0.90271 0.18268 0.39356 0.0
C620 C 0.87714 0.20352 0.32529 0.0
C621 C 0.84388 0.211 0.34246 0.0
C622 C 0.84036 0.20385 0.38536 0.0
C623 C 0.86933 0.1898 0.41052 0.0
H624 H 0.31521 0.64253 0.09994 0.0
H625 H 0.26112 0.6494 0.21439 0.0
H626 H 0.25747 0.63391 0.06344 0.0
H627 H 0.20376 0.63842 0.17934 0.0
H628 H 0.10142 0.64497 0.10584 0.0
H629 H 0.15949 0.66463 0.13223 0.0
H630 H 0.21334 0.58927 0.05777 0.0
H631 H 0.15524 0.57117 0.03025 0.0
C632 C 0.29076 0.64208 0.11706 0.0
C633 C 0.29206 0.64662 0.1596 0.0
C634 C 0.25786 0.6369 0.09646 0.0
C635 C 0.22592 0.6357 0.11841 0.0
C636 C 0.22761 0.64008 0.16121 0.0
C637 C 0.26036 0.64579 0.18149 0.0
C638 C 0.12583 0.63333 0.09461 0.0
C639 C 0.12422 0.60691 0.06592 0.0
C640 C 0.15902 0.64426 0.10989 0.0
C641 C 0.19109 0.62815 0.09755 0.0
C642 C 0.18927 0.60265 0.06749 0.0
C643 C 0.15604 0.59228 0.05163 0.0
H644 H 0.34005 0.20399 0.75556 0.0
H645 H 0.23716 0.25688 0.72667 0.0
H646 H 0.36727 0.24366 0.70184 0.0
H647 H 0.26376 0.2964 0.67254 0.0
H648 H 0.33773 0.39515 0.64887 0.0
H649 H 0.30572 0.34622 0.68498 0.0
H650 H 0.37036 0.26729 0.62732 0.0
H651 H 0.40288 0.31644 0.59157 0.0
C652 C 0.3231 0.22307 0.73623 0.0
C653 C 0.28674 0.22765 0.74477 0.0
C654 C 0.33854 0.24585 0.7057 0.0
C655 C 0.31771 0.27356 0.68355 0.0
C656 C 0.28054 0.27568 0.68961 0.0
C657 C 0.2652 0.25286 0.72003 0.0
C658 C 0.34506 0.36737 0.64388 0.0
C659 C 0.3729 0.3596 0.61763 0.0
C660 C 0.32643 0.33934 0.66408 0.0
C661 C 0.33536 0.30291 0.65869 0.0
C662 C 0.36291 0.2951 0.63201 0.0
C663 C 0.38137 0.3232 0.61148 0.0
H664 H 0.87549 0.80379 0.85458 0.0
H665 H 0.96929 0.86143 0.89029 0.0
H666 H 0.90634 0.74597 0.87672 0.0
H667 H 1.00112 0.80336 0.91082 0.0
H668 H 0.05526 0.68447 0.91519 0.0
H669 H 1.02729 0.74299 0.88875 0.0
H670 H 0.9277 0.71123 0.94278 0.0
H671 H 0.95581 0.65344 0.97008 0.0
C672 C 0.90319 0.80421 0.86596 0.0
C673 C 0.9198 0.83796 0.86933 0.0
C674 C 0.92095 0.77075 0.87927 0.0
C675 C 0.95663 0.76907 0.89615 0.0
C676 C 0.97392 0.80279 0.89785 0.0
C677 C 0.95573 0.83646 0.88535 0.0
C678 C 1.02738 0.6898 0.92158 0.0
C679 C 1.0082 0.66333 0.94514 0.0
C680 C 1.01121 0.7238 0.90641 0.0
C681 C 0.97475 0.73268 0.91304 0.0
C682 C 0.95557 0.706 0.93626 0.0
C683 C 0.97195 0.6725 0.95228 0.0
H684 H 0.35098 0.75324 0.21877 0.0
H685 H 0.44049 0.67715 0.22356 0.0
H686 H 0.39217 0.80299 0.22488 0.0
H687 H 0.48217 0.72637 0.23292 0.0
H688 H 0.5391 0.826 0.17325 0.0
H689 H 0.50316 0.77298 0.18751 0.0
H690 H 0.43459 0.83454 0.26295 0.0
H691 H 0.47015 0.88825 0.24701 0.0
C692 C 0.37961 0.74732 0.22171 0.0
C693 C 0.39288 0.71186 0.21942 0.0
C694 C 0.40325 0.77562 0.226 0.0
C695 C 0.44063 0.7688 0.22891 0.0
C696 C 0.45361 0.73272 0.22977 0.0
C697 C 0.4299 0.70452 0.22478 0.0
C698 C 0.51685 0.82794 0.19367 0.0
C699 C 0.50718 0.86118 0.20882 0.0
C700 C 0.49626 0.79747 0.20206 0.0
C701 C 0.46574 0.79946 0.22618 0.0
C702 C 0.45747 0.83225 0.24355 0.0
C703 C 0.47784 0.86294 0.23464 0.0
H704 H 0.1786 0.20388 0.75582 0.0
H705 H 0.27579 0.14142 0.74256 0.0
H706 H 0.14983 0.17547 0.69778 0.0
H707 H 0.2472 0.11205 0.68489 0.0
H708 H 0.09869 0.08651 0.62419 0.0
H709 H 0.12641 0.11884 0.67967 0.0
H710 H 0.22578 0.12323 0.61463 0.0
H711 H 0.1983 0.08987 0.56001 0.0
C712 C 0.19344 0.18343 0.74081 0.0
C713 C 0.22895 0.17396 0.75396 0.0
C714 C 0.17712 0.16724 0.70755 0.0
C715 C 0.19607 0.14127 0.68673 0.0
C716 C 0.2319 0.13223 0.69982 0.0
C717 C 0.24822 0.14866 0.73295 0.0
C718 C 0.12634 0.09474 0.62164 0.0
C719 C 0.14645 0.08551 0.58801 0.0
C720 C 0.14223 0.11336 0.65335 0.0
C721 C 0.17849 0.12337 0.65187 0.0
C722 C 0.19808 0.11526 0.61729 0.0
C723 C 0.18226 0.09643 0.58579 0.0
H724 H 0.62035 0.34537 0.29425 0.0
H725 H 0.71771 0.4054 0.30507 0.0
H726 H 0.58963 0.38743 0.33567 0.0
H727 H 0.68896 0.44476 0.35135 0.0
H728 H 0.62667 0.52227 0.42294 0.0
H729 H 0.65137 0.48934 0.36765 0.0
H730 H 0.58386 0.39874 0.40206 0.0
H731 H 0.55716 0.43344 0.45414 0.0
C732 C 0.63505 0.36792 0.30518 0.0
C733 C 0.67143 0.37211 0.29653 0.0
C734 C 0.61775 0.39162 0.32999 0.0
C735 C 0.63681 0.41924 0.34829 0.0
C736 C 0.67293 0.42425 0.33795 0.0
C737 C 0.68976 0.40135 0.31181 0.0
C738 C 0.61712 0.49538 0.41816 0.0
C739 C 0.59011 0.48026 0.44254 0.0
C740 C 0.6314 0.47626 0.38665 0.0
C741 C 0.61988 0.44102 0.37986 0.0
C742 C 0.59292 0.42605 0.40496 0.0
C743 C 0.5778 0.44572 0.43536 0.0
loop_
_geom_bond_atom_site_label_1
_geom_bond_atom_site_label_2
_geom_bond_distance
_geom_bond_site_symmetry_2
_ccdc_geom_bond_type
C0 N1 1.317 . S
C0 N2 1.348 . S
C0 C3 1.485 . S
N1 C0 1.317 . S
N1 N5 1.370 . S
N2 C0 1.348 . S
N2 C4 1.346 . S
C3 C0 1.485 . S
C3 H7 0.960 . S
C3 H8 0.961 . S
C3 H9 0.960 . S
C4 N2 1.346 . S
C4 N5 1.307 . S
C4 C6 1.486 . S
N5 N1 1.370 . S
N5 C4 1.307 . S
C6 C4 1.486 . S
C6 H10 0.960 . S
C6 H11 0.960 . S
C6 H12 0.959 . S
H7 C3 0.960 . S
H8 C3 0.961 . S
H9 C3 0.960 . S
H10 C6 0.960 . S
H11 C6 0.960 . S
H12 C6 0.959 . S
C13 N14 1.317 . S
C13 N15 1.348 . S
C13 C16 1.485 . S
N14 C13 1.317 . S
N14 N18 1.370 . S
N15 C13 1.348 . S
N15 C17 1.346 . S
C16 C13 1.485 . S
C16 H20 0.960 . S
C16 H21 0.961 . S
C16 H22 0.960 . S
C17 N15 1.346 . S
C17 N18 1.307 . S
C17 C19 1.486 . S
N18 N14 1.370 . S
N18 C17 1.307 . S
C19 C17 1.486 . S
C19 H23 0.960 . S
C19 H24 0.960 . S
C19 H25 0.959 . S
H20 C16 0.960 . S
H21 C16 0.961 . S
H22 C16 0.960 . S
H23 C19 0.960 . S
H24 C19 0.960 . S
H25 C19 0.959 . S
C26 N27 1.317 . S
C26 N28 1.348 . S
C26 C29 1.485 . S
N27 C26 1.317 . S
N27 N31 1.370 . S
N28 C26 1.348 . S
N28 C30 1.346 . S
C29 C26 1.485 . S
C29 H33 0.960 . S
C29 H34 0.961 . S
C29 H35 0.960 . S
C30 N28 1.346 . S
C30 N31 1.307 . S
C30 C32 1.486 . S
N31 N27 1.370 . S
N31 C30 1.307 . S
C32 C30 1.486 . S
C32 H36 0.960 . S
C32 H37 0.960 . S
C32 H38 0.959 . S
H33 C29 0.960 . S
H34 C29 0.961 . S
H35 C29 0.960 . S
H36 C32 0.960 . S
H37 C32 0.960 . S
H38 C32 0.959 . S
C39 N40 1.317 . S
C39 N41 1.348 . S
C39 C42 1.485 . S
N40 C39 1.317 . S
N40 N44 1.370 . S
N41 C39 1.348 . S
N41 C43 1.346 . S
C42 C39 1.485 . S
C42 H46 0.960 . S
C42 H47 0.961 . S
C42 H48 0.960 . S
C43 N41 1.346 . S
C43 N44 1.307 . S
C43 C45 1.486 . S
N44 N40 1.370 . S
N44 C43 1.307 . S
C45 C43 1.486 . S
C45 H49 0.960 . S
C45 H50 0.960 . S
C45 H51 0.959 . S
H46 C42 0.960 . S
H47 C42 0.961 . S
H48 C42 0.960 . S
H49 C45 0.960 . S
H50 C45 0.960 . S
H51 C45 0.959 . S
C52 N53 1.317 . S
C52 N54 1.348 . S
C52 C55 1.485 . S
N53 C52 1.317 . S
N53 N57 1.370 . S
N54 C52 1.348 . S
N54 C56 1.346 . S
C55 C52 1.485 . S
C55 H59 0.960 . S
C55 H60 0.961 . S
C55 H61 0.960 . S
C56 N54 1.346 . S
C56 N57 1.307 . S
C56 C58 1.486 . S
N57 N53 1.370 . S
N57 C56 1.307 . S
C58 C56 1.486 . S
C58 H62 0.960 . S
C58 H63 0.960 . S
C58 H64 0.959 . S
H59 C55 0.960 . S
H60 C55 0.961 . S
H61 C55 0.960 . S
H62 C58 0.960 . S
H63 C58 0.960 . S
H64 C58 0.959 . S
C65 N66 1.317 . S
C65 N67 1.348 . S
C65 C68 1.485 . S
N66 C65 1.317 . S
N66 N70 1.370 . S
N67 C65 1.348 . S
N67 C69 1.346 . S
C68 C65 1.485 . S
C68 H72 0.960 . S
C68 H73 0.961 . S
C68 H74 0.960 . S
C69 N67 1.346 . S
C69 N70 1.307 . S
C69 C71 1.486 . S
N70 N66 1.370 . S
N70 C69 1.307 . S
C71 C69 1.486 . S
C71 H75 0.960 . S
C71 H76 0.960 . S
C71 H77 0.959 . S
H72 C68 0.960 . S
H73 C68 0.961 . S
H74 C68 0.960 . S
H75 C71 0.960 . S
H76 C71 0.960 . S
H77 C71 0.959 . S
C78 N79 1.317 . S
C78 N80 1.348 . S
C78 C81 1.485 . S
N79 C78 1.317 . S
N79 N83 1.370 . S
N80 C78 1.348 . S
N80 C82 1.346 . S
C81 C78 1.485 . S
C81 H85 0.960 . S
C81 H86 0.961 . S
C81 H87 0.960 . S
C82 N80 1.346 . S
C82 N83 1.307 . S
C82 C84 1.486 . S
N83 N79 1.370 . S
N83 C82 1.307 . S
C84 C82 1.486 . S
C84 H88 0.960 . S
C84 H89 0.960 . S
C84 H90 0.959 . S
H85 C81 0.960 . S
H86 C81 0.961 . S
H87 C81 0.960 . S
H88 C84 0.960 . S
H89 C84 0.960 . S
H90 C84 0.959 . S
C91 N92 1.317 . S
C91 N93 1.348 . S
C91 C94 1.485 . S
N92 C91 1.317 . S
N92 N96 1.370 . S
N93 C91 1.348 . S
N93 C95 1.346 . S
C94 C91 1.485 . S
C94 H98 0.960 . S
C94 H99 0.961 . S
C94 H100 0.960 . S
C95 N93 1.346 . S
C95 N96 1.307 . S
C95 C97 1.486 . S
N96 N92 1.370 . S
N96 C95 1.307 . S
C97 C95 1.486 . S
C97 H101 0.960 . S
C97 H102 0.960 . S
C97 H103 0.959 . S
H98 C94 0.960 . S
H99 C94 0.961 . S
H100 C94 0.960 . S
H101 C97 0.960 . S
H102 C97 0.960 . S
H103 C97 0.959 . S
Nd104 C106 2.836 . S
Nd104 O124 2.500 . S
Nd104 O125 2.492 . S
Nd104 O126 2.487 1_565 S
Nd104 O127 2.682 1_565 S
Nd104 O128 2.410 . S
Nd104 O133 2.414 . S
Nd104 O135 2.424 1_565 S
Nd105 C115 2.833 1_455 S
Nd105 O127 2.422 . S
Nd105 O129 2.424 1_545 S
Nd105 O130 2.499 1_455 S
Nd105 O131 2.487 1_455 S
Nd105 O132 2.486 1_445 S
Nd105 O133 2.687 1_545 S
Nd105 O134 2.415 . S
C106 Nd104 2.836 . S
C106 C107 1.498 . S
C106 O124 1.258 . S
C106 O125 1.239 . S
C107 C106 1.498 . S
C107 C108 1.366 . S
C107 C112 1.407 . S
C108 C107 1.366 . S
C108 C109 1.392 . S
C108 H136 0.930 . S
C109 C108 1.392 . S
C109 C110 1.398 . S
C109 H137 0.929 . S
C110 C109 1.398 . S
C110 C111 1.352 . S
C111 C110 1.352 . S
C111 C112 1.384 . S
C111 H138 0.930 . S
C112 C107 1.407 . S
C112 C111 1.384 . S
C112 H139 0.929 . S
C113 O126 1.241 . S
C113 O127 1.273 . S
C114 O128 1.251 . S
C114 O129 1.268 . S
C115 Nd105 2.833 1_655 S
C115 C116 1.498 . S
C115 O130 1.258 . S
C115 O131 1.239 . S
C116 C115 1.498 . S
C116 C117 1.366 . S
C116 C121 1.407 . S
C117 C116 1.366 . S
C117 C118 1.392 . S
C117 H140 0.930 . S
C118 C117 1.392 . S
C118 C119 1.398 . S
C118 H141 0.929 . S
C119 C118 1.398 . S
C119 C120 1.352 . S
C120 C119 1.352 . S
C120 C121 1.384 . S
C120 H142 0.930 . S
C121 C116 1.407 . S
C121 C120 1.384 . S
C121 H143 0.929 . S
C122 O132 1.241 1_455 S
C122 O133 1.273 . S
C123 O134 1.251 . S
C123 O135 1.268 . S
O124 Nd104 2.500 . S
O124 C106 1.258 . S
O125 Nd104 2.492 . S
O125 C106 1.239 . S
O126 Nd104 2.487 1_545 S
O126 C113 1.241 . S
O127 Nd104 2.682 1_545 S
O127 Nd105 2.422 . S
O127 C113 1.273 . S
O128 Nd104 2.410 . S
O128 C114 1.251 . S
O129 Nd105 2.424 1_565 S
O129 C114 1.268 . S
O130 Nd105 2.499 1_655 S
O130 C115 1.258 . S
O131 Nd105 2.487 1_655 S
O131 C115 1.239 . S
O132 Nd105 2.486 1_665 S
O132 C122 1.241 1_655 S
O133 Nd104 2.414 . S
O133 Nd105 2.687 1_565 S
O133 C122 1.273 . S
O134 Nd105 2.415 . S
O134 C123 1.251 . S
O135 Nd104 2.424 1_545 S
O135 C123 1.268 . S
H136 C108 0.930 . S
H137 C109 0.929 . S
H138 C111 0.930 . S
H139 C112 0.929 . S
H140 C117 0.930 . S
H141 C118 0.929 . S
H142 C120 0.930 . S
H143 C121 0.929 . S
Nd144 C146 2.836 . S
Nd144 O164 2.500 . S
Nd144 O165 2.492 . S
Nd144 O166 2.487 1_565 S
Nd144 O167 2.682 1_565 S
Nd144 O168 2.410 . S
Nd144 O173 2.414 . S
Nd144 O175 2.424 1_565 S
Nd145 C155 2.836 . S
Nd145 O167 2.414 1_556 S
Nd145 O169 2.424 1_545 S
Nd145 O170 2.500 . S
Nd145 O171 2.492 . S
Nd145 O172 2.487 . S
Nd145 O173 2.682 1_546 S
Nd145 O174 2.410 1_556 S
C146 Nd144 2.836 . S
C146 C147 1.498 . S
C146 O164 1.258 . S
C146 O165 1.239 . S
C147 C146 1.498 . S
C147 C148 1.366 . S
C147 C152 1.407 . S
C148 C147 1.366 . S
C148 C149 1.392 . S
C148 H176 0.930 . S
C149 C148 1.392 . S
C149 C150 1.398 . S
C149 H177 0.929 . S
C150 C149 1.398 . S
C150 C151 1.352 . S
C151 C150 1.352 . S
C151 C152 1.384 . S
C151 H178 0.930 . S
C152 C147 1.407 . S
C152 C151 1.384 . S
C152 H179 0.929 . S
C153 O166 1.241 . S
C153 O167 1.273 . S
C154 O168 1.251 1_556 S
C154 O169 1.268 . S
C155 Nd145 2.836 . S
C155 C156 1.498 . S
C155 O170 1.258 . S
C155 O171 1.239 . S
C156 C155 1.498 . S
C156 C157 1.366 . S
C156 C161 1.407 . S
C157 C156 1.366 . S
C157 C158 1.392 . S
C157 H180 0.930 1_556 S
C158 C157 1.392 . S
C158 C159 1.398 . S
C158 H181 0.929 . S
C159 C158 1.398 . S
C159 C160 1.352 . S
C160 C159 1.352 . S
C160 C161 1.384 . S
C160 H182 0.930 . S
C161 C156 1.407 . S
C161 C160 1.384 . S
C161 H183 0.929 . S
C162 O172 1.241 1_564 S
C162 O173 1.273 . S
C163 O174 1.251 . S
C163 O175 1.268 . S
O164 Nd144 2.500 . S
O164 C146 1.258 . S
O165 Nd144 2.492 . S
O165 C146 1.239 . S
O166 Nd144 2.487 1_545 S
O166 C153 1.241 . S
O167 Nd144 2.682 1_545 S
O167 Nd145 2.414 1_554 S
O167 C153 1.273 . S
O168 Nd144 2.410 . S
O168 C154 1.251 1_554 S
O169 Nd145 2.424 1_565 S
O169 C154 1.268 . S
O170 Nd145 2.500 . S
O170 C155 1.258 . S
O171 Nd145 2.492 . S
O171 C155 1.239 . S
O172 Nd145 2.487 . S
O172 C162 1.241 1_546 S
O173 Nd144 2.414 . S
O173 Nd145 2.682 1_564 S
O173 C162 1.273 . S
O174 Nd145 2.410 1_554 S
O174 C163 1.251 . S
O175 Nd144 2.424 1_545 S
O175 C163 1.268 . S
H176 C148 0.930 . S
H177 C149 0.929 . S
H178 C151 0.930 . S
H179 C152 0.929 . S
H180 C157 0.930 1_554 S
H181 C158 0.929 . S
H182 C160 0.930 . S
H183 C161 0.929 . S
Nd184 C186 2.836 . S
Nd184 O204 2.500 . S
Nd184 O205 2.492 . S
Nd184 O206 2.487 . S
Nd184 O207 2.682 . S
Nd184 O208 2.410 . S
Nd184 O213 2.414 . S
Nd184 O215 2.424 . S
Nd185 C195 2.836 . S
Nd185 O207 2.414 . S
Nd185 O209 2.424 . S
Nd185 O210 2.500 . S
Nd185 O211 2.492 . S
Nd185 O212 2.487 . S
Nd185 O213 2.682 . S
Nd185 O214 2.410 . S
C186 Nd184 2.836 . S
C186 C187 1.498 . S
C186 O204 1.258 . S
C186 O205 1.239 . S
C187 C186 1.498 . S
C187 C188 1.366 . S
C187 C192 1.407 . S
C188 C187 1.366 . S
C188 C189 1.392 . S
C188 H216 0.930 . S
C189 C188 1.392 . S
C189 C190 1.398 . S
C189 H217 0.929 . S
C190 C189 1.398 . S
C190 C191 1.352 . S
C191 C190 1.352 . S
C191 C192 1.384 . S
C191 H218 0.930 . S
C192 C187 1.407 . S
C192 C191 1.384 . S
C192 H219 0.929 . S
C193 O206 1.241 . S
C193 O207 1.273 . S
C194 O208 1.251 . S
C194 O209 1.268 . S
C195 Nd185 2.836 . S
C195 C196 1.498 . S
C195 O210 1.258 . S
C195 O211 1.239 . S
C196 C195 1.498 . S
C196 C197 1.366 . S
C196 C201 1.407 . S
C197 C196 1.366 . S
C197 C198 1.392 . S
C197 H220 0.930 . S
C198 C197 1.392 . S
C198 C199 1.398 . S
C198 H221 0.929 . S
C199 C198 1.398 . S
C199 C200 1.352 . S
C200 C199 1.352 . S
C200 C201 1.384 . S
C200 H222 0.930 . S
C201 C196 1.407 . S
C201 C200 1.384 . S
C201 H223 0.929 . S
C202 O212 1.241 . S
C202 O213 1.273 . S
C203 O214 1.251 . S
C203 O215 1.268 . S
O204 Nd184 2.500 . S
O204 C186 1.258 . S
O205 Nd184 2.492 . S
O205 C186 1.239 . S
O206 Nd184 2.487 . S
O206 C193 1.241 . S
O207 Nd184 2.682 . S
O207 Nd185 2.414 . S
O207 C193 1.273 . S
O208 Nd184 2.410 . S
O208 C194 1.251 . S
O209 Nd185 2.424 . S
O209 C194 1.268 . S
O210 Nd185 2.500 . S
O210 C195 1.258 . S
O211 Nd185 2.492 . S
O211 C195 1.239 . S
O212 Nd185 2.487 . S
O212 C202 1.241 . S
O213 Nd184 2.414 . S
O213 Nd185 2.682 . S
O213 C202 1.273 . S
O214 Nd185 2.410 . S
O214 C203 1.251 . S
O215 Nd184 2.424 . S
O215 C203 1.268 . S
H216 C188 0.930 . S
H217 C189 0.929 . S
H218 C191 0.930 . S
H219 C192 0.929 . S
H220 C197 0.930 . S
H221 C198 0.929 . S
H222 C200 0.930 . S
H223 C201 0.929 . S
Nd224 C226 2.836 . S
Nd224 O244 2.500 . S
Nd224 O245 2.492 . S
Nd224 O246 2.487 1_655 S
Nd224 O247 2.682 1_655 S
Nd224 O248 2.410 . S
Nd224 O253 2.414 1_554 S
Nd224 O255 2.424 1_655 S
Nd225 C235 2.836 . S
Nd225 O247 2.414 1_556 S
Nd225 O249 2.424 1_455 S
Nd225 O250 2.500 . S
Nd225 O251 2.492 . S
Nd225 O252 2.487 1_455 S
Nd225 O253 2.682 1_455 S
Nd225 O254 2.410 . S
C226 Nd224 2.836 . S
C226 C227 1.498 . S
C226 O244 1.258 . S
C226 O245 1.239 . S
C227 C226 1.498 . S
C227 C228 1.366 . S
C227 C232 1.407 . S
C228 C227 1.366 . S
C228 C229 1.392 . S
C228 H256 0.930 . S
C229 C228 1.392 . S
C229 C230 1.398 . S
C229 H257 0.929 . S
C230 C229 1.398 . S
C230 C231 1.352 . S
C231 C230 1.352 . S
C231 C232 1.384 . S
C231 H258 0.930 . S
C232 C227 1.407 . S
C232 C231 1.384 . S
C232 H259 0.929 . S
C233 O246 1.241 . S
C233 O247 1.273 . S
C234 O248 1.251 1_556 S
C234 O249 1.268 . S
C235 Nd225 2.836 . S
C235 C236 1.498 . S
C235 O250 1.258 . S
C235 O251 1.239 . S
C236 C235 1.498 . S
C236 C237 1.366 . S
C236 C241 1.407 . S
C237 C236 1.366 . S
C237 C238 1.392 . S
C237 H260 0.930 . S
C238 C237 1.392 . S
C238 C239 1.398 . S
C238 H261 0.929 . S
C239 C238 1.398 . S
C239 C240 1.352 . S
C240 C239 1.352 . S
C240 C241 1.384 . S
C240 H262 0.930 . S
C241 C236 1.407 . S
C241 C240 1.384 . S
C241 H263 0.929 . S
C242 O252 1.241 . S
C242 O253 1.273 . S
C243 O254 1.251 1_554 S
C243 O255 1.268 . S
O244 Nd224 2.500 . S
O244 C226 1.258 . S
O245 Nd224 2.492 . S
O245 C226 1.239 . S
O246 Nd224 2.487 1_455 S
O246 C233 1.241 . S
O247 Nd224 2.682 1_455 S
O247 Nd225 2.414 1_554 S
O247 C233 1.273 . S
O248 Nd224 2.410 . S
O248 C234 1.251 1_554 S
O249 Nd225 2.424 1_655 S
O249 C234 1.268 . S
O250 Nd225 2.500 . S
O250 C235 1.258 . S
O251 Nd225 2.492 . S
O251 C235 1.239 . S
O252 Nd225 2.487 1_655 S
O252 C242 1.241 . S
O253 Nd224 2.414 1_556 S
O253 Nd225 2.682 1_655 S
O253 C242 1.273 . S
O254 Nd225 2.410 . S
O254 C243 1.251 1_556 S
O255 Nd224 2.424 1_455 S
O255 C243 1.268 . S
H256 C228 0.930 . S
H257 C229 0.929 . S
H258 C231 0.930 . S
H259 C232 0.929 . S
H260 C237 0.930 . S
H261 C238 0.929 . S
H262 C240 0.930 . S
H263 C241 0.929 . S
H264 C272 0.950 . S
H265 C277 0.950 . S
H266 C274 0.950 . S
H267 C276 0.950 . S
H268 C278 0.950 . S
H269 C280 0.950 . S
H270 C282 0.950 . S
H271 C283 0.950 . S
C272 H264 0.950 . S
C272 C273 1.386 . S
C272 C274 1.391 . S
C273 C272 1.386 . S
C273 C277 1.393 . S
C274 H266 0.950 . S
C274 C272 1.391 . S
C274 C275 1.400 . S
C275 C274 1.400 . S
C275 C276 1.398 . S
C275 C281 1.491 . S
C276 H267 0.950 . S
C276 C275 1.398 . S
C276 C277 1.391 . S
C277 H265 0.950 . S
C277 C273 1.393 . S
C277 C276 1.391 . S
C278 H268 0.950 . S
C278 C279 1.386 . S
C278 C280 1.391 . S
C279 C278 1.386 . S
C279 C283 1.393 . S
C280 H269 0.950 . S
C280 C278 1.391 . S
C280 C281 1.400 . S
C281 C275 1.491 . S
C281 C280 1.400 . S
C281 C282 1.398 . S
C282 H270 0.950 . S
C282 C281 1.398 . S
C282 C283 1.391 . S
C283 H271 0.950 . S
C283 C279 1.393 . S
C283 C282 1.391 . S
H284 C292 0.950 . S
H285 C297 0.950 . S
H286 C294 0.950 . S
H287 C296 0.950 . S
H288 C298 0.950 . S
H289 C300 0.950 . S
H290 C302 0.950 . S
H291 C303 0.950 . S
C292 H284 0.950 . S
C292 C293 1.386 . S
C292 C294 1.391 . S
C293 C292 1.386 . S
C293 C297 1.393 . S
C294 H286 0.950 . S
C294 C292 1.391 . S
C294 C295 1.400 . S
C295 C294 1.400 . S
C295 C296 1.398 . S
C295 C301 1.491 . S
C296 H287 0.950 . S
C296 C295 1.398 . S
C296 C297 1.391 . S
C297 H285 0.950 . S
C297 C293 1.393 . S
C297 C296 1.391 . S
C298 H288 0.950 . S
C298 C299 1.386 . S
C298 C300 1.391 . S
C299 C298 1.386 . S
C299 C303 1.393 . S
C300 H289 0.950 . S
C300 C298 1.391 . S
C300 C301 1.400 . S
C301 C295 1.491 . S
C301 C300 1.400 . S
C301 C302 1.398 . S
C302 H290 0.950 . S
C302 C301 1.398 . S
C302 C303 1.391 . S
C303 H291 0.950 . S
C303 C299 1.393 . S
C303 C302 1.391 . S
H304 C312 0.950 . S
H305 C317 0.950 . S
H306 C314 0.950 . S
H307 C316 0.950 . S
H308 C318 0.950 . S
H309 C320 0.950 . S
H310 C322 0.950 . S
H311 C323 0.950 . S
C312 H304 0.950 . S
C312 C313 1.386 . S
C312 C314 1.391 . S
C313 C312 1.386 . S
C313 C317 1.393 . S
C314 H306 0.950 . S
C314 C312 1.391 . S
C314 C315 1.400 . S
C315 C314 1.400 . S
C315 C316 1.398 . S
C315 C321 1.491 . S
C316 H307 0.950 . S
C316 C315 1.398 . S
C316 C317 1.391 . S
C317 H305 0.950 . S
C317 C313 1.393 . S
C317 C316 1.391 . S
C318 H308 0.950 . S
C318 C319 1.386 . S
C318 C320 1.391 . S
C319 C318 1.386 . S
C319 C323 1.393 . S
C320 H309 0.950 . S
C320 C318 1.391 . S
C320 C321 1.400 . S
C321 C315 1.491 . S
C321 C320 1.400 . S
C321 C322 1.398 . S
C322 H310 0.950 . S
C322 C321 1.398 . S
C322 C323 1.391 . S
C323 H311 0.950 . S
C323 C319 1.393 . S
C323 C322 1.391 . S
H324 C332 0.950 . S
H325 C337 0.950 . S
H326 C334 0.950 . S
H327 C336 0.950 . S
H328 C338 0.950 . S
H329 C340 0.950 . S
H330 C342 0.950 . S
H331 C343 0.950 . S
C332 H324 0.950 . S
C332 C333 1.386 . S
C332 C334 1.391 . S
C333 C332 1.386 . S
C333 C337 1.393 . S
C334 H326 0.950 . S
C334 C332 1.391 . S
C334 C335 1.400 . S
C335 C334 1.400 . S
C335 C336 1.398 . S
C335 C341 1.491 . S
C336 H327 0.950 . S
C336 C335 1.398 . S
C336 C337 1.391 . S
C337 H325 0.950 . S
C337 C333 1.393 . S
C337 C336 1.391 . S
C338 H328 0.950 . S
C338 C339 1.386 . S
C338 C340 1.391 . S
C339 C338 1.386 . S
C339 C343 1.393 . S
C340 H329 0.950 . S
C340 C338 1.391 . S
C340 C341 1.400 . S
C341 C335 1.491 . S
C341 C340 1.400 . S
C341 C342 1.398 . S
C342 H330 0.950 . S
C342 C341 1.398 . S
C342 C343 1.391 . S
C343 H331 0.950 . S
C343 C339 1.393 . S
C343 C342 1.391 . S
H344 C352 0.950 . S
H345 C357 0.950 . S
H346 C354 0.950 . S
H347 C356 0.950 . S
H348 C358 0.950 . S
H349 C360 0.950 . S
H350 C362 0.950 . S
H351 C363 0.950 . S
C352 H344 0.950 . S
C352 C353 1.386 . S
C352 C354 1.391 . S
C353 C352 1.386 . S
C353 C357 1.393 . S
C354 H346 0.950 . S
C354 C352 1.391 . S
C354 C355 1.400 . S
C355 C354 1.400 . S
C355 C356 1.398 . S
C355 C361 1.491 . S
C356 H347 0.950 . S
C356 C355 1.398 . S
C356 C357 1.391 . S
C357 H345 0.950 . S
C357 C353 1.393 . S
C357 C356 1.391 . S
C358 H348 0.950 . S
C358 C359 1.386 . S
C358 C360 1.391 . S
C359 C358 1.386 . S
C359 C363 1.393 . S
C360 H349 0.950 . S
C360 C358 1.391 . S
C360 C361 1.400 . S
C361 C355 1.491 . S
C361 C360 1.400 . S
C361 C362 1.398 . S
C362 H350 0.950 . S
C362 C361 1.398 . S
C362 C363 1.391 . S
C363 H351 0.950 . S
C363 C359 1.393 . S
C363 C362 1.391 . S
H364 C372 0.950 . S
H365 C377 0.950 . S
H366 C374 0.950 . S
H367 C376 0.950 . S
H368 C378 0.950 . S
H369 C380 0.950 . S
H370 C382 0.950 . S
H371 C383 0.950 . S
C372 H364 0.950 . S
C372 C373 1.386 . S
C372 C374 1.391 . S
C373 C372 1.386 . S
C373 C377 1.393 . S
C374 H366 0.950 . S
C374 C372 1.391 . S
C374 C375 1.400 . S
C375 C374 1.400 . S
C375 C376 1.398 . S
C375 C381 1.491 . S
C376 H367 0.950 . S
C376 C375 1.398 . S
C376 C377 1.391 . S
C377 H365 0.950 . S
C377 C373 1.393 . S
C377 C376 1.391 . S
C378 H368 0.950 . S
C378 C379 1.386 . S
C378 C380 1.391 . S
C379 C378 1.386 . S
C379 C383 1.393 . S
C380 H369 0.950 . S
C380 C378 1.391 . S
C380 C381 1.400 . S
C381 C375 1.491 . S
C381 C380 1.400 . S
C381 C382 1.398 . S
C382 H370 0.950 . S
C382 C381 1.398 . S
C382 C383 1.391 . S
C383 H371 0.950 . S
C383 C379 1.393 . S
C383 C382 1.391 . S
H384 C392 0.950 . S
H385 C397 0.950 . S
H386 C394 0.950 . S
H387 C396 0.950 . S
H388 C398 0.950 . S
H389 C400 0.950 . S
H390 C402 0.950 . S
H391 C403 0.950 1_554 S
C392 H384 0.950 . S
C392 C393 1.386 . S
C392 C394 1.391 . S
C393 C392 1.386 . S
C393 C397 1.393 . S
C394 H386 0.950 . S
C394 C392 1.391 . S
C394 C395 1.400 . S
C395 C394 1.400 . S
C395 C396 1.398 . S
C395 C401 1.491 . S
C396 H387 0.950 . S
C396 C395 1.398 . S
C396 C397 1.391 . S
C397 H385 0.950 . S
C397 C393 1.393 . S
C397 C396 1.391 . S
C398 H388 0.950 . S
C398 C399 1.386 . S
C398 C400 1.391 . S
C399 C398 1.386 . S
C399 C403 1.393 . S
C400 H389 0.950 . S
C400 C398 1.391 . S
C400 C401 1.400 . S
C401 C395 1.491 . S
C401 C400 1.400 . S
C401 C402 1.398 . S
C402 H390 0.950 . S
C402 C401 1.398 . S
C402 C403 1.391 . S
C403 H391 0.950 1_556 S
C403 C399 1.393 . S
C403 C402 1.391 . S
H404 C412 0.950 . S
H405 C417 0.950 . S
H406 C414 0.950 . S
H407 C416 0.950 . S
H408 C418 0.950 . S
H409 C420 0.950 . S
H410 C422 0.950 . S
H411 C423 0.950 . S
C412 H404 0.950 . S
C412 C413 1.386 . S
C412 C414 1.391 . S
C413 C412 1.386 . S
C413 C417 1.393 . S
C414 H406 0.950 . S
C414 C412 1.391 . S
C414 C415 1.400 . S
C415 C414 1.400 . S
C415 C416 1.398 . S
C415 C421 1.491 . S
C416 H407 0.950 . S
C416 C415 1.398 . S
C416 C417 1.391 . S
C417 H405 0.950 . S
C417 C413 1.393 . S
C417 C416 1.391 . S
C418 H408 0.950 . S
C418 C419 1.386 . S
C418 C420 1.391 . S
C419 C418 1.386 . S
C419 C423 1.393 . S
C420 H409 0.950 . S
C420 C418 1.391 . S
C420 C421 1.400 . S
C421 C415 1.491 . S
C421 C420 1.400 . S
C421 C422 1.398 . S
C422 H410 0.950 . S
C422 C421 1.398 . S
C422 C423 1.391 . S
C423 H411 0.950 . S
C423 C419 1.393 . S
C423 C422 1.391 . S
H424 C432 0.950 . S
H425 C437 0.950 . S
H426 C434 0.950 . S
H427 C436 0.950 . S
H428 C438 0.950 1_556 S
H429 C440 0.957 . S
H430 C442 0.950 . S
H431 C443 0.950 . S
C432 H424 0.950 . S
C432 C433 1.386 . S
C432 C434 1.391 . S
C433 C432 1.386 . S
C433 C437 1.393 . S
C434 H426 0.950 . S
C434 C432 1.391 . S
C434 C435 1.400 . S
C435 C434 1.400 . S
C435 C436 1.398 . S
C435 C441 1.491 . S
C436 H427 0.950 . S
C436 C435 1.398 . S
C436 C437 1.391 . S
C437 H425 0.950 . S
C437 C433 1.393 . S
C437 C436 1.391 . S
C438 H428 0.950 1_554 S
C438 C439 1.386 . S
C438 C440 1.391 . S
C439 C438 1.386 . S
C439 C443 1.393 . S
C440 H429 0.957 . S
C440 C438 1.391 . S
C440 C441 1.400 . S
C441 C435 1.491 . S
C441 C440 1.400 . S
C441 C442 1.398 . S
C442 H430 0.950 . S
C442 C441 1.398 . S
C442 C443 1.391 . S
C443 H431 0.950 . S
C443 C439 1.393 . S
C443 C442 1.391 . S
H444 C452 0.950 . S
H445 C457 0.950 . S
H446 C454 0.950 . S
H447 C456 0.950 . S
H448 C458 0.950 . S
H449 C460 0.950 . S
H450 C462 0.950 . S
H451 C463 0.950 . S
C452 H444 0.950 . S
C452 C453 1.386 . S
C452 C454 1.391 . S
C453 C452 1.386 . S
C453 C457 1.393 . S
C454 H446 0.950 . S
C454 C452 1.391 . S
C454 C455 1.400 . S
C455 C454 1.400 . S
C455 C456 1.398 . S
C455 C461 1.491 . S
C456 H447 0.950 . S
C456 C455 1.398 . S
C456 C457 1.391 . S
C457 H445 0.950 . S
C457 C453 1.393 . S
C457 C456 1.391 . S
C458 H448 0.950 . S
C458 C459 1.386 . S
C458 C460 1.391 . S
C459 C458 1.386 . S
C459 C463 1.393 . S
C460 H449 0.950 . S
C460 C458 1.391 . S
C460 C461 1.400 . S
C461 C455 1.491 . S
C461 C460 1.400 . S
C461 C462 1.398 . S
C462 H450 0.950 . S
C462 C461 1.398 . S
C462 C463 1.391 . S
C463 H451 0.950 . S
C463 C459 1.393 . S
C463 C462 1.391 . S
H464 C472 0.950 . S
H465 C477 0.950 . S
H466 C474 0.950 . S
H467 C476 0.950 . S
H468 C478 0.950 . S
H469 C480 0.950 . S
H470 C482 0.950 . S
H471 C483 0.950 . S
C472 H464 0.950 . S
C472 C473 1.386 . S
C472 C474 1.391 . S
C473 C472 1.386 . S
C473 C477 1.393 . S
C474 H466 0.950 . S
C474 C472 1.391 . S
C474 C475 1.400 . S
C475 C474 1.400 . S
C475 C476 1.398 . S
C475 C481 1.491 . S
C476 H467 0.950 . S
C476 C475 1.398 . S
C476 C477 1.391 . S
C477 H465 0.950 . S
C477 C473 1.393 . S
C477 C476 1.391 . S
C478 H468 0.950 . S
C478 C479 1.386 1_655 S
C478 C480 1.391 . S
C479 C478 1.386 1_455 S
C479 C483 1.393 . S
C480 H469 0.950 . S
C480 C478 1.391 . S
C480 C481 1.400 . S
C481 C475 1.491 . S
C481 C480 1.400 . S
C481 C482 1.398 . S
C482 H470 0.950 . S
C482 C481 1.398 . S
C482 C483 1.391 1_655 S
C483 H471 0.950 . S
C483 C479 1.393 . S
C483 C482 1.391 1_455 S
H484 C492 0.950 . S
H485 C497 0.950 . S
H486 C494 0.950 . S
H487 C496 0.950 . S
H488 C498 0.950 . S
H489 C500 0.950 . S
H490 C502 0.950 . S
H491 C503 0.950 . S
C492 H484 0.950 . S
C492 C493 1.386 . S
C492 C494 1.391 . S
C493 C492 1.386 . S
C493 C497 1.393 . S
C494 H486 0.950 . S
C494 C492 1.391 . S
C494 C495 1.400 . S
C495 C494 1.400 . S
C495 C496 1.398 . S
C495 C501 1.491 . S
C496 H487 0.950 . S
C496 C495 1.398 . S
C496 C497 1.391 . S
C497 H485 0.950 . S
C497 C493 1.393 . S
C497 C496 1.391 . S
C498 H488 0.950 . S
C498 C499 1.386 . S
C498 C500 1.391 . S
C499 C498 1.386 . S
C499 C503 1.393 . S
C500 H489 0.950 . S
C500 C498 1.391 . S
C500 C501 1.400 . S
C501 C495 1.491 . S
C501 C500 1.400 . S
C501 C502 1.398 . S
C502 H490 0.950 . S
C502 C501 1.398 . S
C502 C503 1.391 . S
C503 H491 0.950 . S
C503 C499 1.393 . S
C503 C502 1.391 . S
H504 C512 0.950 . S
H505 C517 0.950 . S
H506 C514 0.950 . S
H507 C516 0.950 . S
H508 C518 0.950 . S
H509 C520 0.950 1_455 S
H510 C522 0.950 . S
H511 C523 0.950 . S
C512 H504 0.950 . S
C512 C513 1.386 . S
C512 C514 1.391 . S
C513 C512 1.386 . S
C513 C517 1.393 . S
C514 H506 0.950 . S
C514 C512 1.391 . S
C514 C515 1.400 . S
C515 C514 1.400 . S
C515 C516 1.398 . S
C515 C521 1.491 . S
C516 H507 0.950 . S
C516 C515 1.398 . S
C516 C517 1.391 . S
C517 H505 0.950 . S
C517 C513 1.393 . S
C517 C516 1.391 . S
C518 H508 0.950 . S
C518 C519 1.386 1_455 S
C518 C520 1.391 1_455 S
C519 C518 1.386 1_655 S
C519 C523 1.393 . S
C520 H509 0.950 1_655 S
C520 C518 1.391 1_655 S
C520 C521 1.400 . S
C521 C515 1.491 . S
C521 C520 1.400 . S
C521 C522 1.398 . S
C522 H510 0.950 . S
C522 C521 1.398 . S
C522 C523 1.391 . S
C523 H511 0.950 . S
C523 C519 1.393 . S
C523 C522 1.391 . S
H524 C532 0.950 . S
H525 C537 0.950 . S
H526 C534 0.950 . S
H527 C536 0.950 . S
H528 C538 0.950 . S
H529 C540 0.950 . S
H530 C542 0.950 . S
H531 C543 0.950 . S
C532 H524 0.950 . S
C532 C533 1.386 . S
C532 C534 1.391 . S
C533 C532 1.386 . S
C533 C537 1.393 . S
C534 H526 0.950 . S
C534 C532 1.391 . S
C534 C535 1.400 . S
C535 C534 1.400 . S
C535 C536 1.398 . S
C535 C541 1.491 . S
C536 H527 0.950 . S
C536 C535 1.398 . S
C536 C537 1.391 . S
C537 H525 0.950 . S
C537 C533 1.393 . S
C537 C536 1.391 . S
C538 H528 0.950 . S
C538 C539 1.386 . S
C538 C540 1.391 . S
C539 C538 1.386 . S
C539 C543 1.393 . S
C540 H529 0.950 . S
C540 C538 1.391 . S
C540 C541 1.400 . S
C541 C535 1.491 . S
C541 C540 1.400 . S
C541 C542 1.398 . S
C542 H530 0.950 . S
C542 C541 1.398 . S
C542 C543 1.391 . S
C543 H531 0.950 . S
C543 C539 1.393 . S
C543 C542 1.391 . S
H544 C552 0.950 . S
H545 C557 0.950 . S
H546 C554 0.950 . S
H547 C556 0.950 . S
H548 C558 0.950 . S
H549 C560 0.950 . S
H550 C562 0.950 . S
H551 C563 0.950 . S
C552 H544 0.950 . S
C552 C553 1.386 . S
C552 C554 1.391 . S
C553 C552 1.386 . S
C553 C557 1.393 . S
C554 H546 0.950 . S
C554 C552 1.391 . S
C554 C555 1.400 . S
C555 C554 1.400 . S
C555 C556 1.398 . S
C555 C561 1.491 . S
C556 H547 0.950 . S
C556 C555 1.398 . S
C556 C557 1.391 . S
C557 H545 0.950 . S
C557 C553 1.393 . S
C557 C556 1.391 . S
C558 H548 0.950 . S
C558 C559 1.386 . S
C558 C560 1.391 . S
C559 C558 1.386 . S
C559 C563 1.393 . S
C560 H549 0.950 . S
C560 C558 1.391 . S
C560 C561 1.400 . S
C561 C555 1.491 . S
C561 C560 1.400 . S
C561 C562 1.398 . S
C562 H550 0.950 . S
C562 C561 1.398 . S
C562 C563 1.391 . S
C563 H551 0.950 . S
C563 C559 1.393 . S
C563 C562 1.391 . S
H564 C572 0.950 . S
H565 C577 0.950 . S
H566 C574 0.950 . S
H567 C576 0.950 . S
H568 C578 0.950 . S
H569 C580 0.950 . S
H570 C582 0.950 . S
H571 C583 0.950 . S
C572 H564 0.950 . S
C572 C573 1.386 . S
C572 C574 1.391 . S
C573 C572 1.386 . S
C573 C577 1.393 . S
C574 H566 0.950 . S
C574 C572 1.391 . S
C574 C575 1.400 . S
C575 C574 1.400 . S
C575 C576 1.398 . S
C575 C581 1.491 . S
C576 H567 0.950 . S
C576 C575 1.398 . S
C576 C577 1.391 . S
C577 H565 0.950 . S
C577 C573 1.393 . S
C577 C576 1.391 . S
C578 H568 0.950 . S
C578 C579 1.386 . S
C578 C580 1.391 . S
C579 C578 1.386 . S
C579 C583 1.393 . S
C580 H569 0.950 . S
C580 C578 1.391 . S
C580 C581 1.400 . S
C581 C575 1.491 . S
C581 C580 1.400 . S
C581 C582 1.398 . S
C582 H570 0.950 . S
C582 C581 1.398 . S
C582 C583 1.391 . S
C583 H571 0.950 . S
C583 C579 1.393 . S
C583 C582 1.391 . S
H584 C592 0.950 . S
H585 C597 0.950 . S
H586 C594 0.950 . S
H587 C596 0.950 . S
H588 C598 0.950 1_545 S
H589 C600 0.950 . S
H590 C602 0.950 . S
H591 C603 0.950 . S
C592 H584 0.950 . S
C592 C593 1.386 . S
C592 C594 1.391 . S
C593 C592 1.386 . S
C593 C597 1.393 . S
C594 H586 0.950 . S
C594 C592 1.391 . S
C594 C595 1.400 . S
C595 C594 1.400 . S
C595 C596 1.398 . S
C595 C601 1.491 . S
C596 H587 0.950 . S
C596 C595 1.398 . S
C596 C597 1.391 . S
C597 H585 0.950 . S
C597 C593 1.393 . S
C597 C596 1.391 . S
C598 H588 0.950 1_565 S
C598 C599 1.386 1_554 S
C598 C600 1.391 1_554 S
C599 C598 1.386 1_556 S
C599 C603 1.392 . S
C600 H589 0.950 . S
C600 C598 1.391 1_556 S
C600 C601 1.400 . S
C601 C595 1.491 . S
C601 C600 1.400 . S
C601 C602 1.398 . S
C602 H590 0.950 . S
C602 C601 1.398 . S
C602 C603 1.391 . S
C603 H591 0.950 . S
C603 C599 1.392 . S
C603 C602 1.391 . S
H604 C612 0.950 . S
H605 C617 0.950 . S
H606 C614 0.950 . S
H607 C616 0.950 . S
H608 C618 0.950 . S
H609 C620 0.950 . S
H610 C622 0.950 . S
H611 C623 0.950 . S
C612 H604 0.950 . S
C612 C613 1.386 . S
C612 C614 1.391 . S
C613 C612 1.386 . S
C613 C617 1.393 . S
C614 H606 0.950 . S
C614 C612 1.391 . S
C614 C615 1.400 . S
C615 C614 1.400 . S
C615 C616 1.398 . S
C615 C621 1.491 . S
C616 H607 0.950 . S
C616 C615 1.398 . S
C616 C617 1.391 . S
C617 H605 0.950 . S
C617 C613 1.393 . S
C617 C616 1.391 . S
C618 H608 0.950 . S
C618 C619 1.386 . S
C618 C620 1.391 . S
C619 C618 1.386 . S
C619 C623 1.393 . S
C620 H609 0.950 . S
C620 C618 1.391 . S
C620 C621 1.400 . S
C621 C615 1.491 . S
C621 C620 1.400 . S
C621 C622 1.398 . S
C622 H610 0.950 . S
C622 C621 1.398 . S
C622 C623 1.391 . S
C623 H611 0.950 . S
C623 C619 1.393 . S
C623 C622 1.391 . S
H624 C632 0.950 . S
H625 C637 0.950 . S
H626 C634 0.950 . S
H627 C636 0.950 . S
H628 C638 0.950 . S
H629 C640 0.950 . S
H630 C642 0.950 . S
H631 C643 0.950 1_556 S
C632 H624 0.950 . S
C632 C633 1.386 . S
C632 C634 1.391 . S
C633 C632 1.386 . S
C633 C637 1.393 . S
C634 H626 0.950 . S
C634 C632 1.391 . S
C634 C635 1.400 . S
C635 C634 1.400 . S
C635 C636 1.398 . S
C635 C641 1.491 . S
C636 H627 0.950 . S
C636 C635 1.398 . S
C636 C637 1.391 . S
C637 H625 0.950 . S
C637 C633 1.393 . S
C637 C636 1.391 . S
C638 H628 0.950 . S
C638 C639 1.386 . S
C638 C640 1.391 . S
C639 C638 1.386 . S
C639 C643 1.393 . S
C640 H629 0.950 . S
C640 C638 1.391 . S
C640 C641 1.400 . S
C641 C635 1.491 . S
C641 C640 1.400 . S
C641 C642 1.398 . S
C642 H630 0.950 . S
C642 C641 1.398 . S
C642 C643 1.391 . S
C643 H631 0.950 1_554 S
C643 C639 1.393 . S
C643 C642 1.391 . S
H644 C652 0.950 . S
H645 C657 0.950 . S
H646 C654 0.950 . S
H647 C656 0.950 . S
H648 C658 0.950 . S
H649 C660 0.950 . S
H650 C662 0.950 . S
H651 C663 0.950 . S
C652 H644 0.950 . S
C652 C653 1.386 . S
C652 C654 1.391 . S
C653 C652 1.386 . S
C653 C657 1.393 . S
C654 H646 0.950 . S
C654 C652 1.391 . S
C654 C655 1.400 . S
C655 C654 1.400 . S
C655 C656 1.398 . S
C655 C661 1.491 . S
C656 H647 0.950 . S
C656 C655 1.398 . S
C656 C657 1.391 . S
C657 H645 0.950 . S
C657 C653 1.393 . S
C657 C656 1.391 . S
C658 H648 0.950 . S
C658 C659 1.386 . S
C658 C660 1.391 . S
C659 C658 1.386 . S
C659 C663 1.393 . S
C660 H649 0.950 . S
C660 C658 1.391 . S
C660 C661 1.400 . S
C661 C655 1.491 . S
C661 C660 1.400 . S
C661 C662 1.398 . S
C662 H650 0.950 . S
C662 C661 1.398 . S
C662 C663 1.391 . S
C663 H651 0.950 . S
C663 C659 1.393 . S
C663 C662 1.391 . S
H664 C672 0.950 . S
H665 C677 0.950 . S
H666 C674 0.950 . S
H667 C676 0.950 . S
H668 C678 0.950 1_455 S
H669 C680 0.950 . S
H670 C682 0.950 . S
H671 C683 0.950 . S
C672 H664 0.950 . S
C672 C673 1.386 . S
C672 C674 1.391 . S
C673 C672 1.386 . S
C673 C677 1.393 . S
C674 H666 0.950 . S
C674 C672 1.391 . S
C674 C675 1.400 . S
C675 C674 1.400 . S
C675 C676 1.398 . S
C675 C681 1.491 . S
C676 H667 0.950 . S
C676 C675 1.398 . S
C676 C677 1.391 . S
C677 H665 0.950 . S
C677 C673 1.393 . S
C677 C676 1.391 . S
C678 H668 0.950 1_655 S
C678 C679 1.386 . S
C678 C680 1.391 . S
C679 C678 1.386 . S
C679 C683 1.393 . S
C680 H669 0.950 . S
C680 C678 1.391 . S
C680 C681 1.400 . S
C681 C675 1.491 . S
C681 C680 1.400 . S
C681 C682 1.398 . S
C682 H670 0.950 . S
C682 C681 1.398 . S
C682 C683 1.391 . S
C683 H671 0.950 . S
C683 C679 1.393 . S
C683 C682 1.391 . S
H684 C692 0.950 . S
H685 C697 0.950 . S
H686 C694 0.950 . S
H687 C696 0.950 . S
H688 C698 0.950 . S
H689 C700 0.950 . S
H690 C702 0.950 . S
H691 C703 0.950 . S
C692 H684 0.950 . S
C692 C693 1.386 . S
C692 C694 1.391 . S
C693 C692 1.386 . S
C693 C697 1.393 . S
C694 H686 0.950 . S
C694 C692 1.391 . S
C694 C695 1.400 . S
C695 C694 1.400 . S
C695 C696 1.398 . S
C695 C701 1.491 . S
C696 H687 0.950 . S
C696 C695 1.398 . S
C696 C697 1.391 . S
C697 H685 0.950 . S
C697 C693 1.393 . S
C697 C696 1.391 . S
C698 H688 0.950 . S
C698 C699 1.386 . S
C698 C700 1.391 . S
C699 C698 1.386 . S
C699 C703 1.393 . S
C700 H689 0.950 . S
C700 C698 1.391 . S
C700 C701 1.400 . S
C701 C695 1.491 . S
C701 C700 1.400 . S
C701 C702 1.398 . S
C702 H690 0.950 . S
C702 C701 1.398 . S
C702 C703 1.391 . S
C703 H691 0.950 . S
C703 C699 1.393 . S
C703 C702 1.391 . S
H704 C712 0.950 . S
H705 C717 0.950 . S
H706 C714 0.950 . S
H707 C716 0.950 . S
H708 C718 0.950 . S
H709 C720 0.950 . S
H710 C722 0.950 . S
H711 C723 0.950 . S
C712 H704 0.950 . S
C712 C713 1.386 . S
C712 C714 1.391 . S
C713 C712 1.386 . S
C713 C717 1.393 . S
C714 H706 0.950 . S
C714 C712 1.391 . S
C714 C715 1.400 . S
C715 C714 1.400 . S
C715 C716 1.398 . S
C715 C721 1.491 . S
C716 H707 0.950 . S
C716 C715 1.398 . S
C716 C717 1.391 . S
C717 H705 0.950 . S
C717 C713 1.393 . S
C717 C716 1.391 . S
C718 H708 0.950 . S
C718 C719 1.386 . S
C718 C720 1.391 . S
C719 C718 1.386 . S
C719 C723 1.393 . S
C720 H709 0.950 . S
C720 C718 1.391 . S
C720 C721 1.400 . S
C721 C715 1.491 . S
C721 C720 1.400 . S
C721 C722 1.398 . S
C722 H710 0.950 . S
C722 C721 1.398 . S
C722 C723 1.391 . S
C723 H711 0.950 . S
C723 C719 1.393 . S
C723 C722 1.391 . S
H724 C732 0.950 . S
H725 C737 0.950 . S
H726 C734 0.950 . S
H727 C736 0.950 . S
H728 C738 0.950 . S
H729 C740 0.950 . S
H730 C742 0.950 . S
H731 C743 0.950 . S
C732 H724 0.950 . S
C732 C733 1.386 . S
C732 C734 1.391 . S
C733 C732 1.386 . S
C733 C737 1.393 . S
C734 H726 0.950 . S
C734 C732 1.391 . S
C734 C735 1.400 . S
C735 C734 1.400 . S
C735 C736 1.398 . S
C735 C741 1.491 . S
C736 H727 0.950 . S
C736 C735 1.398 . S
C736 C737 1.391 . S
C737 H725 0.950 . S
C737 C733 1.393 . S
C737 C736 1.391 . S
C738 H728 0.950 . S
C738 C739 1.386 . S
C738 C740 1.391 . S
C739 C738 1.386 . S
C739 C743 1.393 . S
C740 H729 0.950 . S
C740 C738 1.391 . S
C740 C741 1.400 . S
C741 C735 1.491 . S
C741 C740 1.400 . S
C741 C742 1.398 . S
C742 H730 0.950 . S
C742 C741 1.398 . S
C742 C743 1.391 . S
C743 H731 0.950 . S
C743 C739 1.393 . S
C743 C742 1.391 . S
C273 N1 2.714 . S
C279 C123 2.757 . S
C293 N18 2.430 . S
C299 C154 2.477 . S
C319 C193 0.825 . S
C313 N28 0.817 . S
C333 N40 0.669 . S
C339 C230 0.635 . S
C359 C153 3.158 . S
C353 N5 3.222 . S
C379 C110 1.350 . S
C373 N14 1.324 . S
C399 C242 1.396 . S
C393 N31 1.448 . S
C419 C199 0.698 . S
C413 N41 0.700 . S
C433 N2 2.217 . S
C439 C243 2.234 . S
C459 C159 1.443 . S
C453 N27 1.416 . S
C473 N44 0.732 . S
C479 C122 0.731 . S
C493 N15 2.073 . S
C499 C194 2.084 . S
C519 C114 3.251 1_655 S
C513 N57 3.276 . S
C533 N70 1.906 . S
C539 C163 1.965 . S
C553 N79 1.193 . S
C559 C202 1.148 . S
C573 N93 0.342 . S
C579 C239 0.356 . S
C593 N54 2.890 . S
C599 C162 2.753 1_556 S
C619 C119 1.751 . S
C613 N66 1.788 . S
C639 C233 0.798 . S
C633 N80 0.803 . S
C659 C190 1.067 . S
C653 N96 1.041 . S
C673 N53 2.255 . S
C679 C234 2.269 . S
C699 C150 1.375 . S
C693 N83 1.404 . S
C719 C113 0.654 . S
C713 N92 0.656 . S
C733 N67 2.159 . S
C739 C203 2.183 . S
