# Generated by pormake.
# Topology pto, (3,4)-cn, num edge types: 1
# Building blocks:
#     Node 0, Type 0, BuildingBlock: BELTOD_clean_linker_0, # of connection points: 3
#     Node 1, Type 0, BuildingBlock: BELTOD_clean_linker_0, # of connection points: 3
#     Node 2, Type 0, BuildingBlock: BELTOD_clean_linker_0, # of connection points: 3
#     Node 3, Type 0, BuildingBlock: BELTOD_clean_linker_0, # of connection points: 3
#     Node 4, Type 0, BuildingBlock: BELTOD_clean_linker_0, # of connection points: 3
#     Node 5, Type 0, BuildingBlock: BELTOD_clean_linker_0, # of connection points: 3
#     Node 6, Type 0, BuildingBlock: BELTOD_clean_linker_0, # of connection points: 3
#     Node 7, Type 0, BuildingBlock: BELTOD_clean_linker_0, # of connection points: 3
#     Node 8, Type 1, BuildingBlock: KOZSID_clean_sbu_0, # of connection points: 4
#     Node 9, Type 1, BuildingBlock: KOZSID_clean_sbu_0, # of connection points: 4
#     Node 10, Type 1, BuildingBlock: KOZSID_clean_sbu_0, # of connection points: 4
#     Node 11, Type 1, BuildingBlock: KOZSID_clean_sbu_0, # of connection points: 4
#     Node 12, Type 1, BuildingBlock: KOZSID_clean_sbu_0, # of connection points: 4
#     Node 13, Type 1, BuildingBlock: KOZSID_clean_sbu_0, # of connection points: 4
#     Edge 14, Type (0, 1), BuildingBlock: TEMPAE_clean_linker_10, # of connection points: 2
#     Edge 15, Type (0, 1), BuildingBlock: TEMPAE_clean_linker_10, # of connection points: 2
#     Edge 16, Type (0, 1), BuildingBlock: TEMPAE_clean_linker_10, # of connection points: 2
#     Edge 17, Type (0, 1), BuildingBlock: TEMPAE_clean_linker_10, # of connection points: 2
#     Edge 18, Type (0, 1), BuildingBlock: TEMPAE_clean_linker_10, # of connection points: 2
#     Edge 19, Type (0, 1), BuildingBlock: TEMPAE_clean_linker_10, # of connection points: 2
#     Edge 20, Type (0, 1), BuildingBlock: TEMPAE_clean_linker_10, # of connection points: 2
#     Edge 21, Type (0, 1), BuildingBlock: TEMPAE_clean_linker_10, # of connection points: 2
#     Edge 22, Type (0, 1), BuildingBlock: TEMPAE_clean_linker_10, # of connection points: 2
#     Edge 23, Type (0, 1), BuildingBlock: TEMPAE_clean_linker_10, # of connection points: 2
#     Edge 24, Type (0, 1), BuildingBlock: TEMPAE_clean_linker_10, # of connection points: 2
#     Edge 25, Type (0, 1), BuildingBlock: TEMPAE_clean_linker_10, # of connection points: 2
#     Edge 26, Type (0, 1), BuildingBlock: TEMPAE_clean_linker_10, # of connection points: 2
#     Edge 27, Type (0, 1), BuildingBlock: TEMPAE_clean_linker_10, # of connection points: 2
#     Edge 28, Type (0, 1), BuildingBlock: TEMPAE_clean_linker_10, # of connection points: 2
#     Edge 29, Type (0, 1), BuildingBlock: TEMPAE_clean_linker_10, # of connection points: 2
#     Edge 30, Type (0, 1), BuildingBlock: TEMPAE_clean_linker_10, # of connection points: 2
#     Edge 31, Type (0, 1), BuildingBlock: TEMPAE_clean_linker_10, # of connection points: 2
#     Edge 32, Type (0, 1), BuildingBlock: TEMPAE_clean_linker_10, # of connection points: 2
#     Edge 33, Type (0, 1), BuildingBlock: TEMPAE_clean_linker_10, # of connection points: 2
#     Edge 34, Type (0, 1), BuildingBlock: TEMPAE_clean_linker_10, # of connection points: 2
#     Edge 35, Type (0, 1), BuildingBlock: TEMPAE_clean_linker_10, # of connection points: 2
#     Edge 36, Type (0, 1), BuildingBlock: TEMPAE_clean_linker_10, # of connection points: 2
#     Edge 37, Type (0, 1), BuildingBlock: TEMPAE_clean_linker_10, # of connection points: 2
# Relax obj value: 0.000
# Max RMSD: 0.028
# Mean RMSD: 0.010
data_MOF--net-pto--node1-KOZSID_clean_sbu_0--node2-BELTOD_clean_linker_0--edge1-TEMPAE_clean_linker_10
_symmetry_space_group_name_H-M    P1
_symmetry_Int_Tables_number       1
_symmetry_cell_setting            triclinic
loop_
_symmetry_equiv_pos_as_xyz
'x, y, z'
_cell_length_a     43.821188
_cell_length_b     59.460235
_cell_length_c     51.581104
_cell_angle_alpha  86.943208
_cell_angle_beta   89.284138
_cell_angle_gamma 95.157439
loop_
_atom_site_label
_atom_site_type_symbol
_atom_site_fract_x
_atom_site_fract_y
_atom_site_fract_z
_atom_type_partial_charge
P0 P 0.31903 0.28528 0.33992 0.0
H1 H 0.36944 0.30973 0.30957 0.0
H2 H 0.38941 0.30595 0.26571 0.0
H3 H 0.31758 0.25292 0.25395 0.0
H4 H 0.29812 0.25655 0.29807 0.0
H5 H 0.29308 0.30783 0.38254 0.0
H6 H 0.2538 0.33451 0.38479 0.0
H7 H 0.24053 0.33125 0.30219 0.0
H8 H 0.2797 0.30459 0.30006 0.0
H9 H 0.3492 0.24392 0.34457 0.0
H10 H 0.26109 0.26537 0.36531 0.0
O11 O 0.34822 0.29544 0.35764 0.0
H12 H 0.33382 0.20615 0.36385 0.0
H13 H 0.24594 0.22791 0.38549 0.0
C14 C 0.33275 0.28309 0.3072 0.0
C15 C 0.35805 0.29727 0.29756 0.0
C16 C 0.36928 0.29521 0.2724 0.0
C17 C 0.3552 0.27903 0.25638 0.0
C18 C 0.32928 0.26526 0.26595 0.0
C19 C 0.31808 0.26735 0.29112 0.0
C20 C 0.28955 0.30445 0.34112 0.0
C21 C 0.28168 0.31287 0.36493 0.0
C22 C 0.25913 0.32798 0.36622 0.0
C23 C 0.24421 0.33503 0.34364 0.0
C24 C 0.25193 0.32633 0.31984 0.0
C25 C 0.27429 0.31104 0.31862 0.0
C26 C 0.30638 0.25746 0.35354 0.0
C27 C 0.32655 0.24049 0.35334 0.0
C28 C 0.31779 0.21895 0.36454 0.0
C29 C 0.28871 0.21402 0.37641 0.0
C30 C 0.26838 0.23106 0.3763 0.0
C31 C 0.27714 0.25259 0.36491 0.0
P32 P 0.28362 0.75739 0.69778 0.0
H33 H 0.246 0.73753 0.65727 0.0
H34 H 0.20501 0.70684 0.65777 0.0
H35 H 0.2127 0.69775 0.74116 0.0
H36 H 0.25175 0.72938 0.7406 0.0
H37 H 0.31986 0.80015 0.68756 0.0
H38 H 0.30833 0.83679 0.66865 0.0
H39 H 0.21437 0.81019 0.65819 0.0
H40 H 0.2257 0.77414 0.6788 0.0
H41 H 0.32112 0.72893 0.72905 0.0
H42 H 0.2806 0.79179 0.73675 0.0
O43 O 0.31062 0.74893 0.6784 0.0
H44 H 0.34312 0.73215 0.77229 0.0
H45 H 0.3033 0.79536 0.77966 0.0
C46 C 0.25192 0.73582 0.69883 0.0
C47 C 0.23843 0.72911 0.67567 0.0
C48 C 0.21522 0.71136 0.67599 0.0
C49 C 0.20552 0.69956 0.6995 0.0
C50 C 0.21903 0.70657 0.72271 0.0
C51 C 0.24177 0.72463 0.72239 0.0
C52 C 0.27379 0.78435 0.68438 0.0
C53 C 0.29673 0.8023 0.68134 0.0
C54 C 0.29012 0.8232 0.67028 0.0
C55 C 0.26046 0.82648 0.6615 0.0
C56 C 0.23739 0.80844 0.66491 0.0
C57 C 0.24395 0.78762 0.67645 0.0
C58 C 0.2998 0.76032 0.72948 0.0
C59 C 0.31718 0.74349 0.73996 0.0
C60 C 0.32955 0.74527 0.76466 0.0
C61 C 0.32498 0.76406 0.77915 0.0
C62 C 0.30737 0.78084 0.76871 0.0
C63 C 0.29451 0.77883 0.74417 0.0
P64 P 0.81677 0.78132 0.28438 0.0
H65 H 0.86008 0.80919 0.31395 0.0
H66 H 0.85364 0.83568 0.34783 0.0
H67 H 0.75556 0.81925 0.34685 0.0
H68 H 0.76232 0.79235 0.31341 0.0
H69 H 0.84191 0.74584 0.25688 0.0
H70 H 0.85944 0.70937 0.27087 0.0
H71 H 0.83365 0.72023 0.35006 0.0
H72 H 0.81625 0.75689 0.33587 0.0
H73 H 0.78578 0.81453 0.25404 0.0
H74 H 0.77287 0.74264 0.27247 0.0
O75 O 0.84497 0.79389 0.26524 0.0
H76 H 0.74156 0.81166 0.22553 0.0
H77 H 0.72869 0.73967 0.24396 0.0
C78 C 0.81165 0.79925 0.3108 0.0
C79 C 0.83721 0.81124 0.32113 0.0
C80 C 0.83347 0.82644 0.34039 0.0
C81 C 0.80404 0.82985 0.34974 0.0
C82 C 0.77853 0.817 0.3401 0.0
C83 C 0.78234 0.80174 0.32084 0.0
C84 C 0.82815 0.75414 0.29535 0.0
C85 C 0.83994 0.74033 0.27724 0.0
C86 C 0.84973 0.71942 0.28525 0.0
C87 C 0.8479 0.7119 0.31158 0.0
C88 C 0.83559 0.72567 0.32968 0.0
C89 C 0.8256 0.7466 0.32158 0.0
C90 C 0.78281 0.77881 0.2651 0.0
C91 C 0.77329 0.79816 0.25206 0.0
C92 C 0.74794 0.79651 0.23591 0.0
C93 C 0.73175 0.77541 0.23244 0.0
C94 C 0.74097 0.7561 0.24603 0.0
C95 C 0.76622 0.7578 0.26235 0.0
P96 P 0.81227 0.23822 0.79404 0.0
H97 H 0.78199 0.20638 0.83296 0.0
H98 H 0.73795 0.20827 0.86214 0.0
H99 H 0.72353 0.27411 0.82732 0.0
H100 H 0.76774 0.27221 0.79846 0.0
H101 H 0.85356 0.21783 0.75989 0.0
H102 H 0.84535 0.19217 0.72469 0.0
H103 H 0.74743 0.19402 0.73381 0.0
H104 H 0.75589 0.21949 0.76931 0.0
H105 H 0.85464 0.27238 0.81589 0.0
H106 H 0.80101 0.26579 0.74675 0.0
O107 O 0.83891 0.22738 0.81254 0.0
H108 H 0.87409 0.31063 0.80078 0.0
H109 H 0.81979 0.30439 0.7317 0.0
C110 C 0.77849 0.23931 0.81396 0.0
C111 C 0.76927 0.22118 0.8316 0.0
C112 C 0.74398 0.22222 0.84812 0.0
C113 C 0.7274 0.24143 0.84718 0.0
C114 C 0.73616 0.25926 0.82882 0.0
C115 C 0.76141 0.25816 0.81226 0.0
C116 C 0.80537 0.22019 0.76746 0.0
C117 C 0.83034 0.21271 0.75428 0.0
C118 C 0.8256 0.19819 0.73403 0.0
C119 C 0.79572 0.19099 0.7265 0.0
C120 C 0.7707 0.199 0.73941 0.0
C121 C 0.77551 0.21359 0.75967 0.0
C122 C 0.82693 0.26614 0.78219 0.0
C123 C 0.84716 0.27917 0.79738 0.0
C124 C 0.85801 0.30113 0.78882 0.0
C125 C 0.84849 0.31059 0.76501 0.0
C126 C 0.82793 0.29749 0.74992 0.0
C127 C 0.81714 0.27545 0.75851 0.0
P128 P 0.80911 0.78787 0.77981 0.0
H129 H 0.8085 0.78965 0.83634 0.0
H130 H 0.76703 0.78581 0.86891 0.0
H131 H 0.70126 0.77193 0.80892 0.0
H132 H 0.7428 0.77648 0.77616 0.0
H133 H 0.86824 0.77278 0.76597 0.0
H134 H 0.8838 0.73731 0.75082 0.0
H135 H 0.78912 0.7097 0.75214 0.0
H136 H 0.77372 0.74522 0.76765 0.0
H137 H 0.77414 0.82731 0.77796 0.0
H138 H 0.82203 0.78973 0.72363 0.0
O139 O 0.83957 0.80115 0.79336 0.0
H140 H 0.76451 0.85514 0.74316 0.0
H141 H 0.81217 0.81737 0.68869 0.0
C142 C 0.77869 0.78341 0.80383 0.0
C143 C 0.7852 0.78577 0.83013 0.0
C144 C 0.76153 0.78361 0.84873 0.0
C145 C 0.73104 0.77864 0.84135 0.0
C146 C 0.72463 0.77564 0.81507 0.0
C147 C 0.7483 0.7782 0.79641 0.0
C148 C 0.81991 0.76148 0.76858 0.0
C149 C 0.85081 0.75907 0.76315 0.0
C150 C 0.85965 0.73885 0.75419 0.0
C151 C 0.83769 0.72067 0.7503 0.0
C152 C 0.80661 0.7233 0.75526 0.0
C153 C 0.79778 0.74362 0.76417 0.0
C154 C 0.79826 0.80621 0.75331 0.0
C155 C 0.78194 0.82475 0.75842 0.0
C156 C 0.77642 0.84064 0.7385 0.0
C157 C 0.78753 0.83842 0.71316 0.0
C158 C 0.80349 0.8196 0.70805 0.0
C159 C 0.80892 0.80368 0.72799 0.0
P160 P 0.83372 0.23999 0.2825 0.0
H161 H 0.87712 0.27503 0.25831 0.0
H162 H 0.89634 0.31265 0.27085 0.0
H163 H 0.83872 0.30393 0.33993 0.0
H164 H 0.81995 0.26603 0.32737 0.0
H165 H 0.87145 0.2262 0.32524 0.0
H166 H 0.8626 0.19835 0.36176 0.0
H167 H 0.76929 0.18345 0.33726 0.0
H168 H 0.77792 0.21197 0.30166 0.0
H169 H 0.79384 0.27613 0.26867 0.0
H170 H 0.80186 0.2069 0.25064 0.0
O171 O 0.86151 0.22975 0.26552 0.0
H172 H 0.7512 0.27797 0.23897 0.0
H173 H 0.75821 0.20819 0.22181 0.0
C174 C 0.84767 0.26761 0.2922 0.0
C175 C 0.86878 0.28116 0.27623 0.0
C176 C 0.87953 0.30275 0.28332 0.0
C177 C 0.8691 0.31128 0.30643 0.0
C178 C 0.84753 0.29772 0.32222 0.0
C179 C 0.83676 0.27609 0.31506 0.0
C180 C 0.82551 0.22102 0.31059 0.0
C181 C 0.84899 0.2171 0.32797 0.0
C182 C 0.84395 0.20104 0.3487 0.0
C183 C 0.81532 0.18843 0.35231 0.0
C184 C 0.79154 0.19295 0.33523 0.0
C185 C 0.79656 0.20916 0.31463 0.0
C186 C 0.80119 0.2414 0.26168 0.0
C187 C 0.7863 0.26125 0.25848 0.0
C188 C 0.76166 0.26221 0.24161 0.0
C189 C 0.75122 0.24325 0.22786 0.0
C190 C 0.76594 0.22326 0.23162 0.0
C191 C 0.79079 0.22243 0.24823 0.0
P192 P 0.29469 0.291 0.70538 0.0
H193 H 0.27744 0.28048 0.65297 0.0
H194 H 0.26125 0.24509 0.63295 0.0
H195 H 0.26315 0.2091 0.70788 0.0
H196 H 0.27972 0.24451 0.72768 0.0
H197 H 0.29792 0.34011 0.70313 0.0
H198 H 0.25893 0.36692 0.70441 0.0
H199 H 0.18835 0.31123 0.71261 0.0
H200 H 0.2276 0.2845 0.71074 0.0
H201 H 0.35394 0.27828 0.72279 0.0
H202 H 0.26807 0.29155 0.75797 0.0
O203 O 0.32327 0.3028 0.6861 0.0
H204 H 0.37514 0.27144 0.7658 0.0
H205 H 0.28929 0.28517 0.80112 0.0
C206 C 0.28027 0.26504 0.69166 0.0
C207 C 0.27419 0.26497 0.66508 0.0
C208 C 0.26472 0.24476 0.65372 0.0
C209 C 0.26108 0.22426 0.66881 0.0
C210 C 0.2662 0.22457 0.69567 0.0
C211 C 0.27562 0.24482 0.70702 0.0
C212 C 0.26556 0.31039 0.70629 0.0
C213 C 0.27403 0.33369 0.70503 0.0
C214 C 0.25172 0.34899 0.706 0.0
C215 C 0.22049 0.34122 0.70854 0.0
C216 C 0.21215 0.31776 0.71021 0.0
C217 C 0.23454 0.30247 0.7092 0.0
C218 C 0.30974 0.28595 0.73724 0.0
C219 C 0.33975 0.27991 0.7398 0.0
C220 C 0.35185 0.27606 0.76439 0.0
C221 C 0.33401 0.27801 0.78689 0.0
C222 C 0.30358 0.28346 0.78418 0.0
C223 C 0.29151 0.28732 0.75953 0.0
P224 P 0.30961 0.75221 0.33458 0.0
H225 H 0.36311 0.73588 0.31021 0.0
H226 H 0.38357 0.73919 0.26581 0.0
H227 H 0.30838 0.77731 0.24181 0.0
H228 H 0.28823 0.77418 0.2865 0.0
H229 H 0.26551 0.7595 0.37534 0.0
H230 H 0.24904 0.79354 0.39339 0.0
H231 H 0.30356 0.83448 0.33494 0.0
H232 H 0.32147 0.80038 0.31821 0.0
H233 H 0.25615 0.73922 0.30336 0.0
H234 H 0.2992 0.71354 0.37218 0.0
O235 O 0.33828 0.74709 0.35442 0.0
H236 H 0.21756 0.70679 0.30655 0.0
H237 H 0.26074 0.68104 0.37545 0.0
C238 C 0.32455 0.75523 0.30176 0.0
C239 C 0.35113 0.74511 0.29546 0.0
C240 C 0.36266 0.74683 0.27001 0.0
C241 C 0.34764 0.75858 0.25031 0.0
C242 C 0.32071 0.76845 0.25664 0.0
C243 C 0.30915 0.76663 0.28214 0.0
C244 C 0.29403 0.77733 0.34495 0.0
C245 C 0.27351 0.7758 0.36615 0.0
C246 C 0.26398 0.79535 0.37639 0.0
C247 C 0.27479 0.81689 0.3656 0.0
C248 C 0.29498 0.81826 0.34399 0.0
C249 C 0.30489 0.79869 0.33408 0.0
C250 C 0.2809 0.72855 0.33722 0.0
C251 C 0.25744 0.72654 0.31904 0.0
C252 C 0.23541 0.70799 0.32088 0.0
C253 C 0.23626 0.69129 0.34115 0.0
C254 C 0.2594 0.69368 0.35969 0.0
C255 C 0.28153 0.71217 0.35773 0.0
C256 C 0.06939 0.54356 0.37185 0.0
C257 C 0.07797 0.55058 0.39616 0.0
C258 C 0.05933 0.53796 0.41386 0.0
C259 C 0.04048 0.52408 0.39941 0.0
N260 N 0.04616 0.52685 0.37353 0.0
Co261 Co 0.02317 0.51097 0.34536 0.0
N262 N 0.99566 0.49248 0.37141 0.0
C263 C 0.99622 0.49332 0.39755 0.0
C264 C 0.97594 0.47749 0.41034 0.0
C265 C 0.962 0.4655 0.39126 0.0
C266 C 0.97457 0.47483 0.36787 0.0
N267 N 0.99975 0.49551 0.31718 0.0
C268 C 0.97763 0.47806 0.31892 0.0
C269 C 0.96749 0.47208 0.29463 0.0
C270 C 0.9844 0.48592 0.27683 0.0
C271 C 0.00368 0.49955 0.29123 0.0
N272 N 0.05116 0.52895 0.31928 0.0
C273 C 0.05089 0.52773 0.29314 0.0
C274 C 0.07301 0.54209 0.28037 0.0
C275 C 0.08823 0.55326 0.29944 0.0
C276 C 0.07435 0.54509 0.32283 0.0
N277 N 0.05168 0.48685 0.3468 0.0
C278 C 0.09161 0.45225 0.34862 0.0
C279 C 0.08079 0.46056 0.32499 0.0
C280 C 0.06116 0.47779 0.32451 0.0
C281 C 0.08215 0.46154 0.37136 0.0
C282 C 0.06216 0.47859 0.37003 0.0
N283 N 0.99468 0.53524 0.3439 0.0
C284 C 0.9713 0.56473 0.31935 0.0
C285 C 0.95854 0.57222 0.34189 0.0
C286 C 0.96319 0.56036 0.3654 0.0
C287 C 0.98119 0.54205 0.36596 0.0
C288 C 0.98901 0.54639 0.32077 0.0
H289 H 0.98424 0.53396 0.38451 0.0
H290 H 0.99816 0.54179 0.30286 0.0
H291 H 0.05399 0.48351 0.30586 0.0
H292 H 0.05539 0.48477 0.38804 0.0
C293 C 0.01729 0.50827 0.40953 0.0
C294 C 0.08332 0.55379 0.34774 0.0
C295 C 0.96721 0.46557 0.34291 0.0
C296 C 0.02813 0.51421 0.28106 0.0
H297 H 0.09564 0.56365 0.4006 0.0
H298 H 0.05932 0.53895 0.43475 0.0
H299 H 0.97245 0.47454 0.4311 0.0
H300 H 0.9451 0.45113 0.39425 0.0
H301 H 0.95044 0.45855 0.29026 0.0
H302 H 0.98374 0.48537 0.25591 0.0
H303 H 0.07707 0.54455 0.25963 0.0
H304 H 0.10705 0.56628 0.29645 0.0
H305 H 0.08782 0.45405 0.30685 0.0
H306 H 0.0898 0.45545 0.39014 0.0
H307 H 0.96773 0.57305 0.30056 0.0
H308 H 0.95372 0.56553 0.38341 0.0
C309 C 0.04615 0.54993 0.73514 0.0
C310 C 0.0579 0.55816 0.75805 0.0
C311 C 0.0431 0.54547 0.77793 0.0
C312 C 0.02301 0.53041 0.7662 0.0
N313 N 0.02422 0.53255 0.73992 0.0
Co314 Co 0.99694 0.51544 0.71531 0.0
N315 N 0.97494 0.49704 0.74474 0.0
C316 C 0.9799 0.49865 0.77044 0.0
C317 C 0.96215 0.48301 0.78587 0.0
C318 C 0.94533 0.47028 0.769 0.0
C319 C 0.95393 0.47894 0.74419 0.0
N320 N 0.96924 0.49861 0.69079 0.0
C321 C 0.94851 0.48047 0.6955 0.0
C322 C 0.93493 0.47331 0.67286 0.0
C323 C 0.94782 0.48727 0.65305 0.0
C324 C 0.96848 0.50205 0.66468 0.0
N325 N 0.01946 0.5334 0.68583 0.0
C326 C 0.0145 0.53151 0.66016 0.0
C327 C 0.03407 0.54565 0.6445 0.0
C328 C 0.05248 0.55746 0.66113 0.0
C329 C 0.04281 0.54996 0.68611 0.0
N330 N 0.02634 0.49207 0.71348 0.0
C331 C 0.06678 0.45795 0.71136 0.0
C332 C 0.05333 0.46633 0.68886 0.0
C333 C 0.03326 0.48322 0.69036 0.0
C334 C 0.05982 0.46705 0.73489 0.0
C335 C 0.03982 0.484 0.73549 0.0
N336 N 0.96756 0.53898 0.71719 0.0
C337 C 0.9404 0.56856 0.69634 0.0
C338 C 0.93219 0.57612 0.72041 0.0
C339 C 0.94045 0.56399 0.74273 0.0
C340 C 0.95784 0.54565 0.74069 0.0
C341 C 0.95785 0.55003 0.69519 0.0
H342 H 0.96361 0.5375 0.75852 0.0
H343 H 0.96378 0.54534 0.67628 0.0
H344 H 0.02344 0.48873 0.6726 0.0
H345 H 0.03553 0.49028 0.75401 0.0
C346 C 0.00232 0.51441 0.77937 0.0
C347 C 0.0558 0.55968 0.70939 0.0
C348 C 0.94282 0.46857 0.72074 0.0
C349 C 0.99027 0.51714 0.65142 0.0
H350 H 0.075 0.57218 0.76031 0.0
H351 H 0.0462 0.54729 0.79853 0.0
H352 H 0.96211 0.48073 0.80683 0.0
H353 H 0.92916 0.45586 0.77428 0.0
H354 H 0.91829 0.45898 0.67072 0.0
H355 H 0.94379 0.48602 0.6325 0.0
H356 H 0.03454 0.54745 0.6235 0.0
H357 H 0.07066 0.5704 0.65548 0.0
H358 H 0.05787 0.45966 0.6702 0.0
H359 H 0.07006 0.46131 0.75278 0.0
H360 H 0.93437 0.57735 0.67846 0.0
H361 H 0.93386 0.5688 0.76183 0.0
C362 C 0.26426 0.98807 0.56072 0.0
C363 C 0.29166 0.98257 0.57163 0.0
C364 C 0.31459 0.99547 0.55833 0.0
C365 C 0.30007 0.008 0.54006 0.0
N366 N 0.26914 0.00411 0.54107 0.0
Co367 Co 0.23918 0.01806 0.51737 0.0
N368 N 0.2732 0.03487 0.49585 0.0
C369 C 0.30365 0.03353 0.49865 0.0
C370 C 0.3214 0.04748 0.48136 0.0
C371 C 0.30113 0.05866 0.46687 0.0
C372 C 0.27203 0.0508 0.47619 0.0
N373 N 0.20926 0.03261 0.49421 0.0
C374 C 0.21428 0.0493 0.4753 0.0
C375 C 0.18709 0.05566 0.46492 0.0
C376 C 0.16395 0.04286 0.47815 0.0
C377 C 0.17832 0.02949 0.49575 0.0
N378 N 0.20521 0.0007 0.53838 0.0
C379 C 0.17474 0.00097 0.53461 0.0
C380 C 0.15705 0.98643 0.55137 0.0
C381 C 0.17744 0.97587 0.56642 0.0
C382 C 0.20647 0.9846 0.55787 0.0
N383 N 0.23867 0.04386 0.54022 0.0
C384 C 0.23833 0.08237 0.56977 0.0
C385 C 0.21095 0.07018 0.56341 0.0
C386 C 0.21164 0.05111 0.54873 0.0
C387 C 0.26583 0.07459 0.56168 0.0
C388 C 0.26548 0.05549 0.54711 0.0
N389 N 0.23972 0.99222 0.49448 0.0
C390 C 0.21341 0.96447 0.46792 0.0
C391 C 0.24028 0.95395 0.46468 0.0
C392 C 0.26695 0.96312 0.476 0.0
C393 C 0.26624 0.98223 0.49043 0.0
C394 C 0.21357 0.98336 0.48299 0.0
H395 H 0.28746 0.98843 0.49828 0.0
H396 H 0.1922 0.99028 0.48532 0.0
H397 H 0.19002 0.04271 0.5442 0.0
H398 H 0.28724 0.05064 0.54142 0.0
C399 C 0.31491 0.02129 0.51972 0.0
C400 C 0.23447 0.97634 0.56814 0.0
C401 C 0.2442 0.06027 0.46732 0.0
C402 C 0.16349 0.01458 0.51468 0.0
H403 H 0.29503 0.96993 0.58692 0.0
H404 H 0.33901 0.99492 0.56082 0.0
H405 H 0.34616 0.05007 0.48029 0.0
H406 H 0.30722 0.07174 0.45185 0.0
H407 H 0.18433 0.06858 0.44975 0.0
H408 H 0.13956 0.04364 0.47573 0.0
H409 H 0.13231 0.98349 0.55216 0.0
H410 H 0.17167 0.96286 0.58162 0.0
H411 H 0.18904 0.0756 0.56918 0.0
H412 H 0.28768 0.08319 0.56659 0.0
H413 H 0.19222 0.95782 0.45939 0.0
H414 H 0.28839 0.95564 0.47359 0.0
C415 C 0.45795 0.79104 0.05933 0.0
C416 C 0.44933 0.81163 0.06692 0.0
C417 C 0.4662 0.82799 0.05202 0.0
C418 C 0.48406 0.81647 0.03629 0.0
N419 N 0.47916 0.79372 0.03982 0.0
Co420 Co 0.50181 0.77052 0.02263 0.0
N421 N 0.529 0.79456 0.00272 0.0
C422 C 0.52733 0.81719 0.00271 0.0
C423 C 0.54886 0.82948 0.987 0.0
C424 C 0.56507 0.81381 0.97605 0.0
C425 C 0.5523 0.79272 0.98563 0.0
N426 N 0.52529 0.74728 0.00631 0.0
C427 C 0.54922 0.74987 0.98916 0.0
C428 C 0.55844 0.72912 0.98258 0.0
C429 C 0.5399 0.71289 0.99621 0.0
C430 C 0.5204 0.72453 0.01019 0.0
N431 N 0.47392 0.7465 0.04188 0.0
C432 C 0.47327 0.72389 0.03979 0.0
C433 C 0.45202 0.71168 0.05588 0.0
C434 C 0.43853 0.7274 0.06931 0.0
C435 C 0.45241 0.74838 0.06055 0.0
N436 N 0.47293 0.77016 0.9931 0.0
C437 C 0.43644 0.77019 0.94851 0.0
C438 C 0.44732 0.75029 0.95862 0.0
C439 C 0.46504 0.7506 0.9809 0.0
C440 C 0.44309 0.78995 0.96154 0.0
C441 C 0.46137 0.78959 0.98355 0.0
N442 N 0.53066 0.77088 0.05191 0.0
C443 C 0.55679 0.75112 0.08594 0.0
C444 C 0.5719 0.77141 0.09333 0.0
C445 C 0.56582 0.79144 0.07979 0.0
C446 C 0.54519 0.79081 0.05939 0.0
C447 C 0.53651 0.75123 0.06527 0.0
H448 H 0.54131 0.80666 0.04997 0.0
H449 H 0.52591 0.73521 0.06038 0.0
H450 H 0.47234 0.73479 0.98758 0.0
H451 H 0.46619 0.80533 0.99214 0.0
C452 C 0.50636 0.82646 0.0187 0.0
C453 C 0.44619 0.76945 0.0719 0.0
C454 C 0.56307 0.77149 0.97782 0.0
C455 C 0.49569 0.71459 0.02538 0.0
H456 H 0.43297 0.81447 0.08203 0.0
H457 H 0.46604 0.84612 0.05299 0.0
H458 H 0.55255 0.84769 0.98408 0.0
H459 H 0.58419 0.81753 0.96256 0.0
H460 H 0.57626 0.72594 0.96892 0.0
H461 H 0.54006 0.69474 0.99544 0.0
H462 H 0.44793 0.69347 0.05851 0.0
H463 H 0.42128 0.72375 0.08449 0.0
H464 H 0.44219 0.7345 0.94933 0.0
H465 H 0.43503 0.80577 0.95431 0.0
H466 H 0.56101 0.73516 0.09574 0.0
H467 H 0.57673 0.80759 0.08507 0.0
C468 C 0.80906 0.98068 0.57412 0.0
C469 C 0.83657 0.97404 0.58366 0.0
C470 C 0.8594 0.98708 0.57039 0.0
C471 C 0.84465 0.00079 0.5535 0.0
N472 N 0.8137 0.99745 0.55525 0.0
Co473 Co 0.78337 0.01308 0.53352 0.0
N474 N 0.81711 0.03174 0.51344 0.0
C475 C 0.84766 0.03098 0.51641 0.0
C476 C 0.86517 0.04583 0.4999 0.0
C477 C 0.84464 0.05695 0.48568 0.0
C478 C 0.81565 0.04828 0.4945 0.0
N479 N 0.75307 0.02866 0.51168 0.0
C480 C 0.7577 0.04557 0.49296 0.0
C481 C 0.73019 0.05204 0.48326 0.0
C482 C 0.70739 0.03875 0.49625 0.0
C483 C 0.72215 0.02505 0.51316 0.0
N484 N 0.74964 0.99452 0.55369 0.0
C485 C 0.71911 0.99532 0.55077 0.0
C486 C 0.7016 0.98052 0.56735 0.0
C487 C 0.72213 0.96944 0.58165 0.0
C488 C 0.7511 0.97812 0.57281 0.0
N489 N 0.78284 0.03699 0.55895 0.0
C490 C 0.78243 0.07102 0.59496 0.0
C491 C 0.75516 0.06156 0.58471 0.0
C492 C 0.75588 0.04468 0.56693 0.0
C493 C 0.80989 0.06321 0.58679 0.0
C494 C 0.80958 0.04638 0.56893 0.0
N495 N 0.78391 0.98909 0.50815 0.0
C496 C 0.75713 0.96093 0.48244 0.0
C497 C 0.78479 0.95327 0.4745 0.0
C498 C 0.81197 0.96419 0.48322 0.0
C499 C 0.81102 0.98189 0.49982 0.0
C500 C 0.75722 0.97873 0.4991 0.0
H501 H 0.83256 0.98936 0.50575 0.0
H502 H 0.73539 0.98363 0.5046 0.0
H503 H 0.73433 0.0381 0.55995 0.0
H504 H 0.83129 0.04131 0.56345 0.0
C505 C 0.85923 0.01646 0.53524 0.0
C506 C 0.77922 0.97 0.583 0.0
C507 C 0.78752 0.0566 0.48452 0.0
C508 C 0.70758 0.00959 0.53165 0.0
H509 H 0.83988 0.96088 0.59839 0.0
H510 H 0.88384 0.98636 0.57248 0.0
H511 H 0.88992 0.04841 0.49855 0.0
H512 H 0.85039 0.07011 0.47065 0.0
H513 H 0.72686 0.06531 0.46866 0.0
H514 H 0.68294 0.03939 0.4941 0.0
H515 H 0.67685 0.9779 0.56866 0.0
H516 H 0.71644 0.95631 0.59672 0.0
H517 H 0.73327 0.06692 0.59064 0.0
H518 H 0.83167 0.07025 0.59389 0.0
H519 H 0.73542 0.95296 0.47626 0.0
H520 H 0.83403 0.95921 0.47716 0.0
C521 C 0.46767 0.28211 0.06779 0.0
C522 C 0.46187 0.30369 0.07429 0.0
C523 C 0.48009 0.31844 0.05837 0.0
C524 C 0.49582 0.30507 0.04311 0.0
N525 N 0.48848 0.28264 0.04808 0.0
Co526 Co 0.50626 0.25713 0.03092 0.0
N527 N 0.53588 0.27873 0.00987 0.0
C528 C 0.53915 0.30154 0.01057 0.0
C529 C 0.56175 0.31178 0.99425 0.0
C530 C 0.57366 0.29451 0.98235 0.0
C531 C 0.55743 0.27465 0.99206 0.0
N532 N 0.52363 0.23163 0.0134 0.0
C533 C 0.54596 0.23206 0.99491 0.0
C534 C 0.55033 0.21048 0.98738 0.0
C535 C 0.53009 0.19588 0.00165 0.0
C536 C 0.5145 0.2093 0.01693 0.0
N537 N 0.47713 0.23554 0.05246 0.0
C538 C 0.47393 0.21273 0.05198 0.0
C539 C 0.45314 0.20245 0.06993 0.0
C540 C 0.44277 0.2197 0.08298 0.0
C541 C 0.45788 0.23955 0.07211 0.0
N542 N 0.47556 0.25889 0.00293 0.0
C543 C 0.43641 0.26092 0.96 0.0
C544 C 0.43942 0.24048 0.97395 0.0
C545 C 0.4588 0.23987 0.99524 0.0
C546 C 0.45242 0.28044 0.96853 0.0
C547 C 0.47159 0.27906 0.98985 0.0
N548 N 0.53701 0.25538 0.05868 0.0
C549 C 0.56705 0.23333 0.08774 0.0
C550 C 0.58158 0.25294 0.09749 0.0
C551 C 0.57304 0.27378 0.08765 0.0
C552 C 0.55103 0.27461 0.06837 0.0
C553 C 0.54491 0.23492 0.06863 0.0
H554 H 0.54576 0.29102 0.06159 0.0
H555 H 0.53462 0.21936 0.0621 0.0
H556 H 0.46014 0.22376 0.00488 0.0
H557 H 0.4834 0.29453 0.99498 0.0
C558 C 0.51981 0.31294 0.02596 0.0
C559 C 0.45415 0.26169 0.08185 0.0
C560 C 0.56323 0.2524 0.98358 0.0
C561 C 0.49164 0.20141 0.03514 0.0
H562 H 0.44669 0.30826 0.08947 0.0
H563 H 0.48246 0.3367 0.0586 0.0
H564 H 0.56855 0.32969 0.99117 0.0
H565 H 0.5921 0.29634 0.96802 0.0
H566 H 0.56639 0.20577 0.97296 0.0
H567 H 0.52709 0.17765 0.00097 0.0
H568 H 0.44683 0.18452 0.07352 0.0
H569 H 0.42639 0.21788 0.099 0.0
H570 H 0.427 0.22494 0.96839 0.0
H571 H 0.45102 0.2967 0.9583 0.0
H572 H 0.57303 0.21675 0.09444 0.0
H573 H 0.58312 0.28949 0.09487 0.0
C574 C 0.19814 0.34932 0.36428 0.0
C575 C 0.22105 0.3517 0.34485 0.0
C576 C 0.1763 0.36513 0.36574 0.0
C577 C 0.17763 0.38385 0.34749 0.0
C578 C 0.20078 0.38636 0.32788 0.0
C579 C 0.22212 0.37019 0.32673 0.0
C580 C 0.15175 0.36175 0.38674 0.0
C581 C 0.20315 0.40623 0.30823 0.0
C582 C 0.10702 0.41515 0.33472 0.0
C583 C 0.11291 0.43421 0.34936 0.0
C584 C 0.12758 0.39838 0.33438 0.0
C585 C 0.15483 0.40087 0.34882 0.0
C586 C 0.1607 0.41994 0.36391 0.0
C587 C 0.13957 0.43634 0.36411 0.0
C588 C 0.12032 0.37813 0.31832 0.0
C589 C 0.18963 0.42329 0.37937 0.0
H590 H 0.19709 0.33492 0.37817 0.0
H591 H 0.24004 0.37223 0.31189 0.0
H592 H 0.15316 0.37648 0.39913 0.0
H593 H 0.12876 0.36065 0.37787 0.0
H594 H 0.15373 0.34619 0.39928 0.0
H595 H 0.22264 0.40579 0.29434 0.0
H596 H 0.18167 0.40641 0.29709 0.0
H597 H 0.20609 0.42227 0.31833 0.0
H598 H 0.08623 0.41333 0.32355 0.0
H599 H 0.1443 0.45117 0.37526 0.0
H600 H 0.12074 0.36229 0.33063 0.0
H601 H 0.13803 0.37783 0.30282 0.0
H602 H 0.09754 0.37825 0.30912 0.0
H603 H 0.19158 0.40847 0.39305 0.0
H604 H 0.19039 0.43875 0.39062 0.0
H605 H 0.20992 0.42463 0.3661 0.0
C606 C 0.18131 0.66473 0.67951 0.0
C607 C 0.18221 0.67963 0.6998 0.0
C608 C 0.16018 0.64551 0.67995 0.0
C609 C 0.13995 0.64068 0.70152 0.0
C610 C 0.14058 0.6556 0.72201 0.0
C611 C 0.16137 0.67503 0.72073 0.0
C612 C 0.15977 0.63022 0.65748 0.0
C613 C 0.11964 0.65085 0.74552 0.0
C614 C 0.06805 0.60059 0.69614 0.0
C615 C 0.07765 0.58033 0.70686 0.0
C616 C 0.08828 0.62029 0.69377 0.0
C617 C 0.11855 0.61976 0.70294 0.0
C618 C 0.1283 0.59926 0.71379 0.0
C619 C 0.10782 0.57968 0.71525 0.0
C620 C 0.07728 0.64165 0.68148 0.0
C621 C 0.16019 0.59811 0.72424 0.0
H622 H 0.19755 0.66778 0.66343 0.0
H623 H 0.16129 0.68659 0.73626 0.0
H624 H 0.16656 0.61338 0.66418 0.0
H625 H 0.13624 0.62762 0.64981 0.0
H626 H 0.17554 0.63715 0.64139 0.0
H627 H 0.12328 0.66398 0.75998 0.0
H628 H 0.09536 0.64993 0.73954 0.0
H629 H 0.12352 0.6342 0.75506 0.0
H630 H 0.04467 0.60096 0.68961 0.0
H631 H 0.11516 0.56388 0.72335 0.0
H632 H 0.09267 0.64813 0.66498 0.0
H633 H 0.07805 0.65496 0.69579 0.0
H634 H 0.05351 0.63896 0.6743 0.0
H635 H 0.17748 0.60298 0.70859 0.0
H636 H 0.16398 0.58094 0.73244 0.0
H637 H 0.16421 0.61031 0.73966 0.0
C638 C 0.87909 0.68893 0.34156 0.0
C639 C 0.86002 0.69018 0.31999 0.0
C640 C 0.89355 0.66925 0.34787 0.0
C641 C 0.88877 0.65043 0.33225 0.0
C642 C 0.86832 0.65122 0.31125 0.0
C643 C 0.85422 0.67108 0.30538 0.0
C644 C 0.91515 0.66905 0.37044 0.0
C645 C 0.86243 0.63145 0.29422 0.0
C646 C 0.95217 0.61171 0.32514 0.0
C647 C 0.94115 0.59257 0.34069 0.0
C648 C 0.93561 0.63078 0.3227 0.0
C649 C 0.90727 0.63077 0.33618 0.0
C650 C 0.89631 0.61173 0.35244 0.0
C651 C 0.91343 0.59283 0.35454 0.0
C652 C 0.94822 0.65079 0.3053 0.0
C653 C 0.86621 0.61113 0.36712 0.0
H654 H 0.88383 0.70368 0.35283 0.0
H655 H 0.83907 0.67184 0.28896 0.0
H656 H 0.91003 0.65348 0.38313 0.0
H657 H 0.93903 0.669 0.36305 0.0
H658 H 0.91382 0.68399 0.38232 0.0
H659 H 0.84394 0.63403 0.28012 0.0
H660 H 0.88369 0.62895 0.28324 0.0
H661 H 0.85603 0.61568 0.30628 0.0
H662 H 0.97388 0.61178 0.3148 0.0
H663 H 0.90473 0.57804 0.36648 0.0
H664 H 0.95023 0.66633 0.31637 0.0
H665 H 0.93224 0.65361 0.28917 0.0
H666 H 0.97107 0.64839 0.29687 0.0
H667 H 0.86592 0.62615 0.37896 0.0
H668 H 0.86178 0.59564 0.38011 0.0
H669 H 0.84718 0.61181 0.3532 0.0
C670 C 0.86897 0.33929 0.73011 0.0
C671 C 0.86007 0.33405 0.75612 0.0
C672 C 0.88135 0.36116 0.72187 0.0
C673 C 0.88504 0.37812 0.74011 0.0
C674 C 0.87547 0.37306 0.76625 0.0
C675 C 0.86301 0.35114 0.7739 0.0
C676 C 0.89117 0.36598 0.69382 0.0
C677 C 0.879 0.3907 0.78628 0.0
C678 C 0.94593 0.42737 0.72989 0.0
C679 C 0.92823 0.44506 0.72278 0.0
C680 C 0.93225 0.40529 0.73471 0.0
C681 C 0.90012 0.40092 0.73232 0.0
C682 C 0.88232 0.4187 0.72427 0.0
C683 C 0.89663 0.44067 0.71974 0.0
C684 C 0.95202 0.38686 0.74338 0.0
C685 C 0.84807 0.41466 0.72135 0.0
H686 H 0.86701 0.32615 0.7163 0.0
H687 H 0.85563 0.34735 0.79391 0.0
H688 H 0.88046 0.38092 0.68556 0.0
H689 H 0.91636 0.37008 0.69251 0.0
H690 H 0.88493 0.35139 0.68174 0.0
H691 H 0.86969 0.3842 0.80565 0.0
H692 H 0.90359 0.39653 0.78826 0.0
H693 H 0.86705 0.40568 0.77995 0.0
H694 H 0.9704 0.43099 0.73233 0.0
H695 H 0.88307 0.45455 0.71446 0.0
H696 H 0.94818 0.37224 0.73095 0.0
H697 H 0.9456 0.38072 0.76358 0.0
H698 H 0.97682 0.39277 0.74269 0.0
H699 H 0.8424 0.40023 0.70896 0.0
H700 H 0.838 0.42978 0.71272 0.0
H701 H 0.83708 0.41016 0.74065 0.0
C702 C 0.25029 0.18068 0.38706 0.0
C703 C 0.27998 0.19133 0.38932 0.0
C704 C 0.24195 0.15925 0.39921 0.0
C705 C 0.26388 0.14818 0.41382 0.0
C706 C 0.29385 0.15884 0.41619 0.0
C707 C 0.30147 0.18029 0.40403 0.0
C708 C 0.20975 0.14843 0.39636 0.0
C709 C 0.31789 0.14756 0.4316 0.0
C710 C 0.24052 0.10186 0.46555 0.0
C711 C 0.24644 0.08253 0.45275 0.0
C712 C 0.24498 0.12335 0.45279 0.0
C713 C 0.25574 0.12542 0.42667 0.0
C714 C 0.26068 0.10575 0.41343 0.0
C715 C 0.25582 0.08446 0.42666 0.0
C716 C 0.23923 0.14388 0.46751 0.0
C717 C 0.27226 0.10725 0.38565 0.0
H718 H 0.23364 0.18896 0.37551 0.0
H719 H 0.32427 0.18855 0.4063 0.0
H720 H 0.21034 0.13217 0.38687 0.0
H721 H 0.1988 0.14456 0.41579 0.0
H722 H 0.19526 0.15943 0.38472 0.0
H723 H 0.34025 0.158 0.43126 0.0
H724 H 0.31004 0.14428 0.4521 0.0
H725 H 0.32142 0.13097 0.42372 0.0
H726 H 0.23316 0.10015 0.48578 0.0
H727 H 0.2602 0.06933 0.4169 0.0
H728 H 0.22393 0.15456 0.45636 0.0
H729 H 0.26119 0.1543 0.47002 0.0
H730 H 0.22872 0.13925 0.48699 0.0
H731 H 0.25746 0.11732 0.37321 0.0
H732 H 0.27301 0.09032 0.37766 0.0
H733 H 0.29569 0.11608 0.3845 0.0
C734 C 0.35745 0.78583 0.81035 0.0
C735 C 0.339 0.76622 0.80495 0.0
C736 C 0.37258 0.78749 0.83409 0.0
C737 C 0.36865 0.76924 0.85298 0.0
C738 C 0.34918 0.7497 0.84791 0.0
C739 C 0.33483 0.74833 0.82382 0.0
C740 C 0.39358 0.80842 0.8386 0.0
C741 C 0.34396 0.73007 0.86775 0.0
C742 C 0.43096 0.76109 0.9021 0.0
C743 C 0.41912 0.77037 0.92407 0.0
C744 C 0.41498 0.76099 0.87873 0.0
C745 C 0.38619 0.77002 0.87747 0.0
C746 C 0.37409 0.77942 0.89963 0.0
C747 C 0.39089 0.77969 0.92265 0.0
C748 C 0.42892 0.7512 0.85539 0.0
C749 C 0.34324 0.78885 0.89914 0.0
H750 H 0.36082 0.79959 0.79564 0.0
H751 H 0.32032 0.73325 0.81967 0.0
H752 H 0.38695 0.81592 0.85684 0.0
H753 H 0.41743 0.80382 0.84085 0.0
H754 H 0.3932 0.82145 0.82237 0.0
H755 H 0.32646 0.71685 0.86152 0.0
H756 H 0.36573 0.72226 0.87109 0.0
H757 H 0.33648 0.7361 0.8866 0.0
H758 H 0.45299 0.75414 0.90314 0.0
H759 H 0.3817 0.78675 0.93972 0.0
H760 H 0.43087 0.76396 0.83881 0.0
H761 H 0.41385 0.73649 0.8493 0.0
H762 H 0.45202 0.74562 0.85935 0.0
H763 H 0.3431 0.80259 0.88374 0.0
H764 H 0.33714 0.79561 0.918 0.0
H765 H 0.32524 0.77543 0.89438 0.0
C766 C 0.81693 0.86851 0.36572 0.0
C767 C 0.79999 0.84734 0.36874 0.0
C768 C 0.81342 0.88534 0.38328 0.0
C769 C 0.79238 0.88095 0.40437 0.0
C770 C 0.77507 0.85967 0.40749 0.0
C771 C 0.77908 0.8431 0.38962 0.0
C772 C 0.83226 0.90784 0.37925 0.0
C773 C 0.75245 0.85437 0.42978 0.0
C774 C 0.80611 0.91762 0.46185 0.0
C775 C 0.78548 0.93407 0.45724 0.0
C776 C 0.80808 0.89994 0.44513 0.0
C777 C 0.78891 0.89862 0.42328 0.0
C778 C 0.76751 0.91483 0.41885 0.0
C779 C 0.76606 0.93238 0.43588 0.0
C780 C 0.83112 0.88293 0.45056 0.0
C781 C 0.74669 0.91398 0.39575 0.0
H782 H 0.83271 0.87206 0.34937 0.0
H783 H 0.76611 0.82671 0.39219 0.0
H784 H 0.81694 0.92167 0.37711 0.0
H785 H 0.84658 0.91108 0.39648 0.0
H786 H 0.84752 0.90858 0.36181 0.0
H787 H 0.74042 0.83714 0.42923 0.0
H788 H 0.76449 0.85571 0.4485 0.0
H789 H 0.73512 0.86688 0.42933 0.0
H790 H 0.8208 0.91859 0.47858 0.0
H791 H 0.75025 0.94513 0.43208 0.0
H792 H 0.84826 0.88394 0.43442 0.0
H793 H 0.81953 0.86553 0.45164 0.0
H794 H 0.8434 0.88577 0.46898 0.0
H795 H 0.76062 0.9165 0.37754 0.0
H796 H 0.73018 0.9271 0.39585 0.0
H797 H 0.73366 0.89712 0.39546 0.0
C798 C 0.68045 0.22457 0.87197 0.0
C799 C 0.70183 0.24318 0.86594 0.0
C800 C 0.65703 0.22577 0.89054 0.0
C801 C 0.65499 0.24603 0.90341 0.0
C802 C 0.67622 0.26497 0.89715 0.0
C803 C 0.69936 0.26332 0.87848 0.0
C804 C 0.63467 0.20527 0.89659 0.0
C805 C 0.67486 0.28685 0.91054 0.0
C806 C 0.58028 0.25629 0.93709 0.0
C807 C 0.58658 0.25047 0.96298 0.0
C808 C 0.60227 0.25476 0.9174 0.0
C809 C 0.63114 0.24728 0.92393 0.0
C810 C 0.63743 0.2413 0.95016 0.0
C811 C 0.61499 0.24297 0.96942 0.0
C812 C 0.59471 0.26126 0.88969 0.0
C813 C 0.66793 0.23328 0.95788 0.0
H814 H 0.68203 0.20906 0.86212 0.0
H815 H 0.71605 0.27767 0.87417 0.0
H816 H 0.63635 0.19951 0.91729 0.0
H817 H 0.61086 0.20969 0.89354 0.0
H818 H 0.63888 0.191 0.88436 0.0
H819 H 0.69248 0.30022 0.90286 0.0
H820 H 0.65191 0.29312 0.90814 0.0
H821 H 0.67832 0.2839 0.93168 0.0
H822 H 0.55814 0.26206 0.93234 0.0
H823 H 0.6196 0.23853 0.98956 0.0
H824 H 0.59726 0.24686 0.87725 0.0
H825 H 0.61101 0.27551 0.88207 0.0
H826 H 0.57102 0.26636 0.88784 0.0
H827 H 0.67229 0.21808 0.94732 0.0
H828 H 0.66902 0.22906 0.97907 0.0
H829 H 0.68664 0.24657 0.95237 0.0
C830 C 0.22563 0.85734 0.65209 0.0
C831 C 0.25394 0.84847 0.64842 0.0
C832 C 0.21935 0.87797 0.63964 0.0
C833 C 0.24211 0.89027 0.62355 0.0
C834 C 0.27073 0.88152 0.61985 0.0
C835 C 0.27614 0.86066 0.63204 0.0
C836 C 0.18838 0.88662 0.64369 0.0
C837 C 0.29574 0.89424 0.60302 0.0
C838 C 0.22436 0.93434 0.57138 0.0
C839 C 0.23297 0.9544 0.58345 0.0
C840 C 0.22566 0.91327 0.5847 0.0
C841 C 0.23632 0.91236 0.61052 0.0
C842 C 0.24382 0.93269 0.6231 0.0
C843 C 0.24165 0.95353 0.60946 0.0
C844 C 0.21682 0.892 0.5708 0.0
C845 C 0.25569 0.93246 0.65046 0.0
H846 H 0.20842 0.84828 0.66493 0.0
H847 H 0.2978 0.8538 0.6285 0.0
H848 H 0.1911 0.90309 0.65293 0.0
H849 H 0.17741 0.88957 0.62468 0.0
H850 H 0.17279 0.87466 0.65608 0.0
H851 H 0.31708 0.88548 0.60285 0.0
H852 H 0.28779 0.89632 0.58277 0.0
H853 H 0.30121 0.91144 0.61005 0.0
H854 H 0.21745 0.93518 0.55126 0.0
H855 H 0.24797 0.96918 0.61874 0.0
H856 H 0.20082 0.88028 0.58306 0.0
H857 H 0.23753 0.88313 0.56711 0.0
H858 H 0.20584 0.89562 0.55192 0.0
H859 H 0.2399 0.92148 0.66368 0.0
H860 H 0.25854 0.94965 0.65802 0.0
H861 H 0.27822 0.9253 0.6509 0.0
C862 C 0.70462 0.75663 0.19586 0.0
C863 C 0.70617 0.77354 0.21386 0.0
C864 C 0.68186 0.75558 0.17695 0.0
C865 C 0.66003 0.77177 0.17613 0.0
C866 C 0.66095 0.78849 0.19472 0.0
C867 C 0.68409 0.78923 0.21331 0.0
C868 C 0.68176 0.7376 0.15735 0.0
C869 C 0.63788 0.80588 0.19463 0.0
C870 C 0.62259 0.7845 0.11168 0.0
C871 C 0.59423 0.77165 0.11473 0.0
C872 C 0.64418 0.78469 0.13154 0.0
C873 C 0.63714 0.77183 0.15509 0.0
C874 C 0.60844 0.75895 0.15838 0.0
C875 C 0.58736 0.75894 0.13809 0.0
C876 C 0.67464 0.79848 0.12721 0.0
C877 C 0.60002 0.7452 0.18331 0.0
H878 H 0.72184 0.74462 0.19604 0.0
H879 H 0.68502 0.80216 0.22738 0.0
H880 H 0.659 0.7278 0.1573 0.0
H881 H 0.68601 0.74567 0.13759 0.0
H882 H 0.69948 0.72568 0.16135 0.0
H883 H 0.64071 0.81696 0.21127 0.0
H884 H 0.64033 0.81665 0.17635 0.0
H885 H 0.61425 0.7974 0.19534 0.0
H886 H 0.62813 0.79413 0.09353 0.0
H887 H 0.56531 0.74917 0.14061 0.0
H888 H 0.69355 0.7873 0.12904 0.0
H889 H 0.67798 0.81107 0.14227 0.0
H890 H 0.67651 0.80757 0.10779 0.0
H891 H 0.61662 0.73241 0.1869 0.0
H892 H 0.5766 0.73637 0.1829 0.0
H893 H 0.60129 0.75634 0.19992 0.0
C894 C 0.7686 0.15615 0.70915 0.0
C895 C 0.79086 0.1746 0.70585 0.0
C896 C 0.76535 0.1396 0.69071 0.0
C897 C 0.78485 0.14156 0.66845 0.0
C898 C 0.80674 0.16049 0.66463 0.0
C899 C 0.80947 0.17678 0.68336 0.0
C900 C 0.74174 0.11965 0.69546 0.0
C901 C 0.82784 0.16323 0.64108 0.0
C902 C 0.80133 0.08816 0.63574 0.0
C903 C 0.78238 0.08886 0.61406 0.0
C904 C 0.80211 0.1051 0.65368 0.0
C905 C 0.7835 0.12322 0.64986 0.0
C906 C 0.76409 0.12394 0.62816 0.0
C907 C 0.76373 0.10673 0.61052 0.0
C908 C 0.82302 0.10367 0.67666 0.0
C909 C 0.744 0.14304 0.62341 0.0
H910 H 0.75436 0.15423 0.7266 0.0
H911 H 0.8264 0.19119 0.68051 0.0
H912 H 0.72683 0.11772 0.67836 0.0
H913 H 0.75339 0.1039 0.69823 0.0
H914 H 0.7271 0.12135 0.71286 0.0
H915 H 0.8425 0.17951 0.64031 0.0
H916 H 0.84289 0.14919 0.64128 0.0
H917 H 0.8143 0.16236 0.62307 0.0
H918 H 0.81544 0.07421 0.6388 0.0
H919 H 0.74928 0.10749 0.59365 0.0
H920 H 0.8095 0.10355 0.69501 0.0
H921 H 0.83988 0.11877 0.67617 0.0
H922 H 0.8357 0.0883 0.67702 0.0
H923 H 0.7287 0.14423 0.64049 0.0
H924 H 0.72968 0.14084 0.60595 0.0
H925 H 0.75842 0.15934 0.62084 0.0
C926 C 0.37048 0.25453 0.22118 0.0
C927 C 0.36796 0.27622 0.23001 0.0
C928 C 0.38356 0.2516 0.19675 0.0
C929 C 0.39444 0.27081 0.18078 0.0
C930 C 0.39159 0.29275 0.1894 0.0
C931 C 0.37838 0.29518 0.2139 0.0
C932 C 0.38626 0.22794 0.18824 0.0
C933 C 0.40284 0.31364 0.17286 0.0
C934 C 0.45585 0.26456 0.12974 0.0
C935 C 0.43858 0.26344 0.10718 0.0
C936 C 0.44172 0.26679 0.1539 0.0
C937 C 0.40959 0.26799 0.15534 0.0
C938 C 0.39208 0.26674 0.13246 0.0
C939 C 0.40687 0.26447 0.10855 0.0
C940 C 0.46116 0.26803 0.17782 0.0
C941 C 0.35783 0.26797 0.13322 0.0
H942 H 0.36285 0.23979 0.23365 0.0
H943 H 0.37611 0.31199 0.22044 0.0
H944 H 0.37509 0.22571 0.16925 0.0
H945 H 0.41077 0.22516 0.18553 0.0
H946 H 0.37568 0.21479 0.20253 0.0
H947 H 0.39828 0.32947 0.18213 0.0
H948 H 0.42788 0.31385 0.16921 0.0
H949 H 0.39161 0.31343 0.15371 0.0
H950 H 0.48045 0.26378 0.12838 0.0
H951 H 0.39375 0.26364 0.09089 0.0
H952 H 0.45289 0.25434 0.19235 0.0
H953 H 0.45912 0.28434 0.1869 0.0
H954 H 0.48575 0.2665 0.1734 0.0
H955 H 0.34683 0.25426 0.14655 0.0
H956 H 0.34754 0.26646 0.11374 0.0
H957 H 0.35245 0.28426 0.1409 0.0
C958 C 0.87051 0.6985 0.72294 0.0
C959 C 0.84753 0.69882 0.74207 0.0
C960 C 0.88239 0.67821 0.71698 0.0
C961 C 0.87104 0.65777 0.7305 0.0
C962 C 0.8468 0.65782 0.7489 0.0
C963 C 0.83533 0.67836 0.75447 0.0
C964 C 0.90809 0.67884 0.6971 0.0
C965 C 0.83408 0.63637 0.76371 0.0
C966 C 0.89194 0.60162 0.70634 0.0
C967 C 0.91639 0.59705 0.72251 0.0
C968 C 0.87688 0.62135 0.70861 0.0
C969 C 0.88664 0.63684 0.72741 0.0
C970 C 0.9115 0.63239 0.74357 0.0
C971 C 0.92606 0.6126 0.74089 0.0
C972 C 0.85044 0.62556 0.69107 0.0
C973 C 0.92277 0.64854 0.76374 0.0
H974 H 0.87963 0.71422 0.71296 0.0
H975 H 0.81773 0.6785 0.7694 0.0
H976 H 0.92954 0.67494 0.70691 0.0
H977 H 0.90293 0.66579 0.68282 0.0
H978 H 0.91221 0.69562 0.6865 0.0
H979 H 0.81323 0.63884 0.77531 0.0
H980 H 0.82837 0.62277 0.75019 0.0
H981 H 0.85168 0.63044 0.77709 0.0
H982 H 0.88427 0.5896 0.69219 0.0
H983 H 0.94534 0.60939 0.75309 0.0
H984 H 0.85514 0.64203 0.67995 0.0
H985 H 0.82934 0.62657 0.70291 0.0
H986 H 0.84601 0.61206 0.67715 0.0
H987 H 0.92999 0.66541 0.75429 0.0
H988 H 0.94241 0.64257 0.77475 0.0
H989 H 0.90395 0.65075 0.7777 0.0
C990 C 0.88937 0.33788 0.33967 0.0
C991 C 0.881 0.33418 0.31397 0.0
C992 C 0.90228 0.35916 0.34665 0.0
C993 C 0.90692 0.37711 0.32745 0.0
C994 C 0.89781 0.37361 0.30163 0.0
C995 C 0.88493 0.35222 0.29523 0.0
C996 C 0.91169 0.36227 0.37437 0.0
C997 C 0.90227 0.39236 0.28062 0.0
C998 C 0.92016 0.43838 0.34527 0.0
C999 C 0.95189 0.44243 0.3416 0.0
C1000 C 0.90522 0.41691 0.34159 0.0
C1001 C 0.92255 0.3993 0.33393 0.0
C1002 C 0.9548 0.40331 0.33089 0.0
C1003 C 0.96907 0.4249 0.33472 0.0
C1004 C 0.87085 0.41328 0.34505 0.0
C1005 C 0.9741 0.38501 0.32275 0.0
H1006 H 0.88665 0.32397 0.35421 0.0
H1007 H 0.87801 0.34958 0.27544 0.0
H1008 H 0.93693 0.36593 0.37514 0.0
H1009 H 0.90128 0.37695 0.38204 0.0
H1010 H 0.90482 0.34705 0.38729 0.0
H1011 H 0.89298 0.38711 0.26172 0.0
H1012 H 0.89087 0.40729 0.28642 0.0
H1013 H 0.92705 0.3978 0.27792 0.0
H1014 H 0.90704 0.45215 0.3504 0.0
H1015 H 0.99365 0.42829 0.33179 0.0
H1016 H 0.86447 0.39827 0.35835 0.0
H1017 H 0.8602 0.4099 0.32608 0.0
H1018 H 0.86106 0.42817 0.3529 0.0
H1019 H 0.9696 0.36968 0.33593 0.0
H1020 H 0.99901 0.39051 0.32279 0.0
H1021 H 0.96782 0.38016 0.3029 0.0
C1022 C 0.16956 0.35406 0.69555 0.0
C1023 C 0.19681 0.3576 0.70935 0.0
C1024 C 0.14743 0.36974 0.69559 0.0
C1025 C 0.15273 0.38945 0.70972 0.0
C1026 C 0.18004 0.39301 0.72388 0.0
C1027 C 0.2017 0.37703 0.72357 0.0
C1028 C 0.11856 0.36536 0.68029 0.0
C1029 C 0.18648 0.41379 0.73924 0.0
C1030 C 0.11106 0.4411 0.69102 0.0
C1031 C 0.08812 0.43996 0.71036 0.0
C1032 C 0.13203 0.42462 0.6904 0.0
C1033 C 0.1299 0.40652 0.70952 0.0
C1034 C 0.10646 0.40507 0.72883 0.0
C1035 C 0.08589 0.42184 0.72905 0.0
C1036 C 0.15682 0.4268 0.66959 0.0
C1037 C 0.1033 0.38593 0.7494 0.0
H1038 H 0.16577 0.33923 0.68427 0.0
H1039 H 0.22247 0.3797 0.73461 0.0
H1040 H 0.09813 0.36543 0.6932 0.0
H1041 H 0.11717 0.37907 0.665 0.0
H1042 H 0.11753 0.34893 0.67091 0.0
H1043 H 0.20877 0.41399 0.7493 0.0
H1044 H 0.18672 0.42923 0.72615 0.0
H1045 H 0.16802 0.41465 0.75397 0.0
H1046 H 0.11306 0.45519 0.6767 0.0
H1047 H 0.06792 0.42072 0.74382 0.0
H1048 H 0.15583 0.41124 0.65858 0.0
H1049 H 0.17966 0.42873 0.67866 0.0
H1050 H 0.1548 0.44152 0.65572 0.0
H1051 H 0.10079 0.36945 0.74016 0.0
H1052 H 0.08328 0.38691 0.76259 0.0
H1053 H 0.12431 0.38621 0.7612 0.0
C1054 C 0.20575 0.65963 0.32045 0.0
C1055 C 0.21333 0.67128 0.34275 0.0
C1056 C 0.18449 0.64048 0.32168 0.0
C1057 C 0.17036 0.63286 0.34578 0.0
C1058 C 0.17778 0.64461 0.36835 0.0
C1059 C 0.19925 0.66365 0.36657 0.0
C1060 C 0.17732 0.6283 0.29722 0.0
C1061 C 0.16297 0.63709 0.39433 0.0
C1062 C 0.09551 0.59555 0.34357 0.0
C1063 C 0.10548 0.57406 0.34834 0.0
C1064 C 0.11635 0.61492 0.34306 0.0
C1065 C 0.14781 0.61257 0.34731 0.0
C1066 C 0.15783 0.59078 0.35239 0.0
C1067 C 0.13644 0.57172 0.35286 0.0
C1068 C 0.10477 0.63784 0.33767 0.0
C1069 C 0.19117 0.58759 0.35692 0.0
H1070 H 0.21686 0.6653 0.30206 0.0
H1071 H 0.2048 0.67275 0.38381 0.0
H1072 H 0.18294 0.6105 0.29979 0.0
H1073 H 0.15246 0.62791 0.29326 0.0
H1074 H 0.19028 0.63641 0.28003 0.0
H1075 H 0.13772 0.63716 0.3931 0.0
H1076 H 0.16787 0.61949 0.39976 0.0
H1077 H 0.17116 0.64812 0.41001 0.0
H1078 H 0.07143 0.59712 0.34003 0.0
H1079 H 0.14387 0.55494 0.35646 0.0
H1080 H 0.11558 0.64592 0.31953 0.0
H1081 H 0.11128 0.64905 0.3536 0.0
H1082 H 0.07948 0.63678 0.33563 0.0
H1083 H 0.20507 0.59403 0.33951 0.0
H1084 H 0.19507 0.56957 0.36115 0.0
H1085 H 0.19965 0.59751 0.3734 0.0
C1086 C 0.75639 0.86634 0.68985 0.0
C1087 C 0.78413 0.85643 0.6926 0.0
C1088 C 0.75361 0.88435 0.67156 0.0
C1089 C 0.77922 0.8927 0.65576 0.0
C1090 C 0.80709 0.88249 0.6581 0.0
C1091 C 0.80919 0.86447 0.67648 0.0
C1092 C 0.72346 0.89472 0.66945 0.0
C1093 C 0.83494 0.89099 0.64167 0.0
C1094 C 0.76922 0.92857 0.59383 0.0
C1095 C 0.77754 0.9503 0.60199 0.0
C1096 C 0.76894 0.90963 0.6113 0.0
C1097 C 0.77734 0.91264 0.6374 0.0
C1098 C 0.78518 0.93471 0.64576 0.0
C1099 C 0.78509 0.95333 0.6279 0.0
C1100 C 0.76032 0.88641 0.60171 0.0
C1101 C 0.79434 0.9386 0.6734 0.0
H1102 H 0.73687 0.86002 0.70209 0.0
H1103 H 0.83081 0.85711 0.67876 0.0
H1104 H 0.72653 0.91262 0.67469 0.0
H1105 H 0.71547 0.89464 0.64913 0.0
H1106 H 0.70537 0.88561 0.68233 0.0
H1107 H 0.85456 0.88069 0.64524 0.0
H1108 H 0.82931 0.8908 0.62077 0.0
H1109 H 0.84219 0.90878 0.64586 0.0
H1110 H 0.76337 0.92644 0.57369 0.0
H1111 H 0.79142 0.97026 0.63401 0.0
H1112 H 0.74157 0.87751 0.61401 0.0
H1113 H 0.78023 0.87616 0.60324 0.0
H1114 H 0.75283 0.88709 0.58121 0.0
H1115 H 0.77604 0.93101 0.68707 0.0
H1116 H 0.79879 0.95686 0.67695 0.0
H1117 H 0.81536 0.93015 0.6779 0.0
C1118 C 0.72622 0.23359 0.18584 0.0
C1119 C 0.72549 0.2444 0.20936 0.0
C1120 C 0.70232 0.23464 0.16809 0.0
C1121 C 0.67724 0.24709 0.17375 0.0
C1122 C 0.67631 0.25807 0.1974 0.0
C1123 C 0.70033 0.25647 0.21498 0.0
C1124 C 0.70404 0.22256 0.14315 0.0
C1125 C 0.65005 0.27166 0.20402 0.0
C1126 C 0.63161 0.2675 0.11641 0.0
C1127 C 0.60575 0.2517 0.11746 0.0
C1128 C 0.65476 0.26642 0.13487 0.0
C1129 C 0.65227 0.24892 0.15468 0.0
C1130 C 0.62626 0.23293 0.15593 0.0
C1131 C 0.60324 0.2346 0.13742 0.0
C1132 C 0.68205 0.28389 0.133 0.0
C1133 C 0.62291 0.21393 0.17668 0.0
H1134 H 0.74575 0.22456 0.18104 0.0
H1135 H 0.69926 0.26459 0.23325 0.0
H1136 H 0.68325 0.21068 0.14132 0.0
H1137 H 0.70472 0.23498 0.12628 0.0
H1138 H 0.72455 0.21292 0.1421 0.0
H1139 H 0.65279 0.27923 0.22318 0.0
H1140 H 0.64828 0.28547 0.18891 0.0
H1141 H 0.62813 0.26076 0.20427 0.0
H1142 H 0.63409 0.28055 0.10085 0.0
H1143 H 0.58315 0.22253 0.1387 0.0
H1144 H 0.70328 0.27554 0.12962 0.0
H1145 H 0.68473 0.29241 0.15156 0.0
H1146 H 0.67993 0.29694 0.11705 0.0
H1147 H 0.64245 0.20338 0.17535 0.0
H1148 H 0.60125 0.20291 0.17501 0.0
H1149 H 0.62346 0.22092 0.1962 0.0
C1150 C 0.26978 0.18379 0.66291 0.0
C1151 C 0.25367 0.20256 0.65626 0.0
C1152 C 0.26506 0.16379 0.6497 0.0
C1153 C 0.24372 0.1625 0.62934 0.0
C1154 C 0.2266 0.18108 0.62313 0.0
C1155 C 0.23182 0.20091 0.63664 0.0
C1156 C 0.28384 0.14435 0.65685 0.0
C1157 C 0.20348 0.18028 0.60166 0.0
C1158 C 0.25878 0.12213 0.57712 0.0
C1159 C 0.23847 0.10321 0.58446 0.0
C1160 C 0.26031 0.14163 0.59133 0.0
C1161 C 0.24097 0.14231 0.61341 0.0
C1162 C 0.2199 0.12348 0.62061 0.0
C1163 C 0.2189 0.10413 0.60604 0.0
C1164 C 0.283 0.1614 0.58293 0.0
C1165 C 0.19889 0.12361 0.64401 0.0
H1166 H 0.28696 0.18502 0.67782 0.0
H1167 H 0.219 0.21526 0.63166 0.0
H1168 H 0.26867 0.12853 0.66062 0.0
H1169 H 0.29937 0.1416 0.64039 0.0
H1170 H 0.29791 0.14746 0.67429 0.0
H1171 H 0.19047 0.19549 0.60051 0.0
H1172 H 0.21538 0.17906 0.58274 0.0
H1173 H 0.18702 0.16503 0.60463 0.0
H1174 H 0.27354 0.12169 0.56017 0.0
H1175 H 0.2033 0.0895 0.61192 0.0
H1176 H 0.29968 0.16474 0.59858 0.0
H1177 H 0.27095 0.17688 0.57949 0.0
H1178 H 0.29586 0.15837 0.56493 0.0
H1179 H 0.21267 0.12495 0.66184 0.0
H1180 H 0.18271 0.10811 0.64622 0.0
H1181 H 0.18548 0.13858 0.64249 0.0
C1182 C 0.36185 0.78125 0.20881 0.0
C1183 C 0.36021 0.76052 0.22331 0.0
C1184 C 0.37484 0.78349 0.18368 0.0
C1185 C 0.38638 0.76453 0.17279 0.0
C1186 C 0.3843 0.74348 0.18716 0.0
C1187 C 0.37126 0.74173 0.21224 0.0
C1188 C 0.37676 0.80623 0.16896 0.0
C1189 C 0.3962 0.72284 0.17615 0.0
C1190 C 0.39877 0.7638 0.09981 0.0
C1191 C 0.43049 0.76892 0.09755 0.0
C1192 C 0.38396 0.76262 0.12419 0.0
C1193 C 0.40141 0.76678 0.14666 0.0
C1194 C 0.43347 0.77242 0.14426 0.0
C1195 C 0.44764 0.77342 0.11965 0.0
C1196 C 0.34977 0.75658 0.12598 0.0
C1197 C 0.45286 0.77702 0.16772 0.0
H1198 H 0.35362 0.79588 0.21737 0.0
H1199 H 0.36963 0.72559 0.2232 0.0
H1200 H 0.40112 0.81239 0.16504 0.0
H1201 H 0.36555 0.80466 0.1499 0.0
H1202 H 0.36576 0.81909 0.17979 0.0
H1203 H 0.39211 0.70758 0.18956 0.0
H1204 H 0.38503 0.71929 0.15744 0.0
H1205 H 0.42119 0.72602 0.17211 0.0
H1206 H 0.38569 0.76048 0.0825 0.0
H1207 H 0.47222 0.77747 0.11763 0.0
H1208 H 0.33854 0.76988 0.13579 0.0
H1209 H 0.34472 0.74055 0.1379 0.0
H1210 H 0.33944 0.75452 0.10659 0.0
H1211 H 0.444 0.7908 0.17848 0.0
H1212 H 0.4773 0.78188 0.1624 0.0
H1213 H 0.45152 0.76173 0.18113 0.0
C1214 C 0.78285 0.16617 0.38703 0.0
C1215 C 0.81069 0.16999 0.37304 0.0
C1216 C 0.77783 0.14815 0.40576 0.0
C1217 C 0.8013 0.13372 0.4108 0.0
C1218 C 0.82961 0.13768 0.39709 0.0
C1219 C 0.83389 0.15567 0.3783 0.0
C1220 C 0.74731 0.14439 0.41996 0.0
C1221 C 0.85526 0.12272 0.40201 0.0
C1222 C 0.80018 0.09789 0.47405 0.0
C1223 C 0.78946 0.07659 0.46587 0.0
C1224 C 0.80375 0.11676 0.4564 0.0
C1225 C 0.79617 0.11417 0.43004 0.0
C1226 C 0.78476 0.09269 0.42186 0.0
C1227 C 0.78174 0.07408 0.4399 0.0
C1228 C 0.81625 0.13932 0.46581 0.0
C1229 C 0.77623 0.08929 0.39398 0.0
H1230 H 0.76494 0.17732 0.38336 0.0
H1231 H 0.85528 0.15819 0.36731 0.0
H1232 H 0.73619 0.12738 0.41627 0.0
H1233 H 0.75072 0.14491 0.4412 0.0
H1234 H 0.73152 0.15725 0.41394 0.0
H1235 H 0.8763 0.12863 0.39046 0.0
H1236 H 0.86104 0.12216 0.4229 0.0
H1237 H 0.84778 0.10517 0.39707 0.0
H1238 H 0.8062 0.09965 0.49422 0.0
H1239 H 0.77362 0.05748 0.43371 0.0
H1240 H 0.80022 0.1523 0.46111 0.0
H1241 H 0.83832 0.14494 0.45567 0.0
H1242 H 0.82009 0.13862 0.48707 0.0
H1243 H 0.75934 0.10121 0.38768 0.0
H1244 H 0.76633 0.07176 0.39106 0.0
H1245 H 0.79681 0.09301 0.3812 0.0
C1246 C 0.33048 0.26242 0.83318 0.0
C1247 C 0.34737 0.27476 0.81302 0.0
C1248 C 0.34303 0.25928 0.8579 0.0
C1249 C 0.37316 0.26872 0.86255 0.0
C1250 C 0.39027 0.28124 0.8423 0.0
C1251 C 0.37717 0.28411 0.81782 0.0
C1252 C 0.32415 0.24577 0.87901 0.0
C1253 C 0.42243 0.29165 0.84651 0.0
C1254 C 0.3997 0.27971 0.93089 0.0
C1255 C 0.41794 0.26183 0.93606 0.0
C1256 C 0.3842 0.28178 0.90735 0.0
C1257 C 0.38701 0.26557 0.88853 0.0
C1258 C 0.40456 0.24708 0.89397 0.0
C1259 C 0.41983 0.24544 0.91766 0.0
C1260 C 0.36555 0.30167 0.90232 0.0
C1261 C 0.40814 0.22947 0.87438 0.0
H1262 H 0.30756 0.25495 0.82953 0.0
H1263 H 0.39017 0.29397 0.80246 0.0
H1264 H 0.33606 0.2309 0.88581 0.0
H1265 H 0.32157 0.25622 0.89595 0.0
H1266 H 0.30099 0.23974 0.87233 0.0
H1267 H 0.43269 0.30083 0.82871 0.0
H1268 H 0.42233 0.30366 0.86224 0.0
H1269 H 0.43733 0.2783 0.85275 0.0
H1270 H 0.39779 0.29225 0.94518 0.0
H1271 H 0.43416 0.23172 0.92138 0.0
H1272 H 0.34195 0.29572 0.89671 0.0
H1273 H 0.37594 0.31264 0.88586 0.0
H1274 H 0.3642 0.31202 0.91953 0.0
H1275 H 0.38535 0.22247 0.86791 0.0
H1276 H 0.42077 0.21532 0.88229 0.0
H1277 H 0.42077 0.2374 0.85696 0.0
C1278 C 0.23737 0.83877 0.38908 0.0
C1279 C 0.26655 0.83776 0.37784 0.0
C1280 C 0.2303 0.85762 0.40253 0.0
C1281 C 0.25275 0.87609 0.40441 0.0
C1282 C 0.28179 0.87558 0.39226 0.0
C1283 C 0.28844 0.85637 0.37939 0.0
C1284 C 0.19917 0.85746 0.41546 0.0
C1285 C 0.30626 0.89507 0.39356 0.0
C1286 C 0.23097 0.93336 0.42407 0.0
C1287 C 0.24083 0.93341 0.44979 0.0
C1288 C 0.23404 0.91459 0.40912 0.0
C1289 C 0.24676 0.89536 0.42041 0.0
C1290 C 0.25552 0.89505 0.44675 0.0
C1291 C 0.25272 0.91417 0.46104 0.0
C1292 C 0.22489 0.91569 0.381 0.0
C1293 C 0.26862 0.87473 0.45966 0.0
H1294 H 0.22007 0.82471 0.38762 0.0
H1295 H 0.31123 0.85572 0.37125 0.0
H1296 H 0.20179 0.85777 0.43681 0.0
H1297 H 0.18807 0.87281 0.40908 0.0
H1298 H 0.18375 0.8423 0.41113 0.0
H1299 H 0.32665 0.89287 0.38126 0.0
H1300 H 0.29696 0.91118 0.38723 0.0
H1301 H 0.31373 0.89661 0.41391 0.0
H1302 H 0.22193 0.94833 0.41537 0.0
H1303 H 0.26005 0.91419 0.48105 0.0
H1304 H 0.20911 0.90071 0.37686 0.0
H1305 H 0.24553 0.91538 0.36838 0.0
H1306 H 0.21355 0.93122 0.37564 0.0
H1307 H 0.25317 0.85921 0.45702 0.0
H1308 H 0.27206 0.87653 0.48078 0.0
H1309 H 0.29101 0.8723 0.45046 0.0
C1310 C 0.70345 0.795 0.87742 0.0
C1311 C 0.70596 0.77722 0.861 0.0
C1312 C 0.67981 0.79404 0.89615 0.0
C1313 C 0.65859 0.77461 0.89882 0.0
C1314 C 0.66116 0.75653 0.88236 0.0
C1315 C 0.68467 0.75816 0.86341 0.0
C1316 C 0.67745 0.81386 0.91297 0.0
C1317 C 0.63931 0.73537 0.88497 0.0
C1318 C 0.61609 0.7646 0.96361 0.0
C1319 C 0.58744 0.7719 0.95746 0.0
C1320 C 0.63927 0.7649 0.94455 0.0
C1321 C 0.6338 0.77324 0.91894 0.0
C1322 C 0.60487 0.78076 0.91273 0.0
C1323 C 0.58189 0.77976 0.93205 0.0
C1324 C 0.66961 0.75637 0.95182 0.0
C1325 C 0.59835 0.79017 0.8858 0.0
H1326 H 0.71978 0.80983 0.87534 0.0
H1327 H 0.68679 0.74436 0.85078 0.0
H1328 H 0.65454 0.82027 0.91092 0.0
H1329 H 0.67985 0.8084 0.93368 0.0
H1330 H 0.69525 0.82797 0.9079 0.0
H1331 H 0.64471 0.72271 0.87091 0.0
H1332 H 0.64015 0.72753 0.90493 0.0
H1333 H 0.61548 0.73968 0.88184 0.0
H1334 H 0.62023 0.75858 0.98336 0.0
H1335 H 0.55962 0.78536 0.92743 0.0
H1336 H 0.68816 0.77031 0.94917 0.0
H1337 H 0.6751 0.74294 0.93884 0.0
H1338 H 0.66966 0.74946 0.97225 0.0
H1339 H 0.61483 0.80503 0.88051 0.0
H1340 H 0.57471 0.7954 0.88421 0.0
H1341 H 0.60149 0.77734 0.87139 0.0
loop_
_geom_bond_atom_site_label_1
_geom_bond_atom_site_label_2
_geom_bond_distance
_geom_bond_site_symmetry_2
_ccdc_geom_bond_type
P0 O11 1.490 . S
P0 C14 1.812 . S
P0 C20 1.803 . S
P0 C26 1.819 . S
H1 C15 0.941 . S
H2 C16 0.939 . S
H3 C18 0.940 . S
H4 C19 0.940 . S
H5 C21 0.939 . S
H6 C22 0.942 . S
H7 C24 0.940 . S
H8 C25 0.939 . S
H9 C27 0.941 . S
H10 C31 0.939 . S
O11 P0 1.490 . S
H12 C28 0.939 . S
H13 C30 0.940 . S
C14 P0 1.812 . S
C14 C15 1.389 . S
C14 C19 1.391 . S
C15 H1 0.941 . S
C15 C14 1.389 . S
C15 C16 1.397 . S
C16 H2 0.939 . S
C16 C15 1.397 . S
C16 C17 1.378 . S
C17 C16 1.378 . S
C17 C18 1.378 . S
C18 H3 0.940 . S
C18 C17 1.378 . S
C18 C19 1.396 . S
C19 H4 0.940 . S
C19 C14 1.391 . S
C19 C18 1.396 . S
C20 P0 1.803 . S
C20 C21 1.378 . S
C20 C25 1.400 . S
C21 H5 0.939 . S
C21 C20 1.378 . S
C21 C22 1.361 . S
C22 H6 0.942 . S
C22 C21 1.361 . S
C22 C23 1.369 . S
C23 C22 1.369 . S
C23 C24 1.404 . S
C24 H7 0.940 . S
C24 C23 1.404 . S
C24 C25 1.389 . S
C25 H8 0.939 . S
C25 C20 1.400 . S
C25 C24 1.389 . S
C26 P0 1.819 . S
C26 C27 1.391 . S
C26 C31 1.391 . S
C27 H9 0.941 . S
C27 C26 1.391 . S
C27 C28 1.396 . S
C28 H12 0.939 . S
C28 C27 1.396 . S
C28 C29 1.397 . S
C29 C28 1.397 . S
C29 C30 1.385 . S
C30 H13 0.940 . S
C30 C29 1.385 . S
C30 C31 1.388 . S
C31 H10 0.939 . S
C31 C26 1.391 . S
C31 C30 1.388 . S
P32 O43 1.490 . S
P32 C46 1.812 . S
P32 C52 1.803 . S
P32 C58 1.819 . S
H33 C47 0.941 . S
H34 C48 0.939 . S
H35 C50 0.940 . S
H36 C51 0.940 . S
H37 C53 0.939 . S
H38 C54 0.942 . S
H39 C56 0.940 . S
H40 C57 0.939 . S
H41 C59 0.941 . S
H42 C63 0.939 . S
O43 P32 1.490 . S
H44 C60 0.939 . S
H45 C62 0.940 . S
C46 P32 1.812 . S
C46 C47 1.389 . S
C46 C51 1.391 . S
C47 H33 0.941 . S
C47 C46 1.389 . S
C47 C48 1.397 . S
C48 H34 0.939 . S
C48 C47 1.397 . S
C48 C49 1.378 . S
C49 C48 1.378 . S
C49 C50 1.378 . S
C50 H35 0.940 . S
C50 C49 1.378 . S
C50 C51 1.396 . S
C51 H36 0.940 . S
C51 C46 1.391 . S
C51 C50 1.396 . S
C52 P32 1.803 . S
C52 C53 1.378 . S
C52 C57 1.400 . S
C53 H37 0.939 . S
C53 C52 1.378 . S
C53 C54 1.361 . S
C54 H38 0.942 . S
C54 C53 1.361 . S
C54 C55 1.369 . S
C55 C54 1.369 . S
C55 C56 1.404 . S
C56 H39 0.940 . S
C56 C55 1.404 . S
C56 C57 1.389 . S
C57 H40 0.939 . S
C57 C52 1.400 . S
C57 C56 1.389 . S
C58 P32 1.819 . S
C58 C59 1.391 . S
C58 C63 1.391 . S
C59 H41 0.941 . S
C59 C58 1.391 . S
C59 C60 1.396 . S
C60 H44 0.939 . S
C60 C59 1.396 . S
C60 C61 1.397 . S
C61 C60 1.397 . S
C61 C62 1.385 . S
C62 H45 0.940 . S
C62 C61 1.385 . S
C62 C63 1.388 . S
C63 H42 0.939 . S
C63 C58 1.391 . S
C63 C62 1.388 . S
P64 O75 1.490 . S
P64 C78 1.812 . S
P64 C84 1.803 . S
P64 C90 1.819 . S
H65 C79 0.941 . S
H66 C80 0.939 . S
H67 C82 0.940 . S
H68 C83 0.940 . S
H69 C85 0.939 . S
H70 C86 0.942 . S
H71 C88 0.940 . S
H72 C89 0.939 . S
H73 C91 0.941 . S
H74 C95 0.939 . S
O75 P64 1.490 . S
H76 C92 0.939 . S
H77 C94 0.940 . S
C78 P64 1.812 . S
C78 C79 1.389 . S
C78 C83 1.391 . S
C79 H65 0.941 . S
C79 C78 1.389 . S
C79 C80 1.397 . S
C80 H66 0.939 . S
C80 C79 1.397 . S
C80 C81 1.378 . S
C81 C80 1.378 . S
C81 C82 1.378 . S
C82 H67 0.940 . S
C82 C81 1.378 . S
C82 C83 1.396 . S
C83 H68 0.940 . S
C83 C78 1.391 . S
C83 C82 1.396 . S
C84 P64 1.803 . S
C84 C85 1.378 . S
C84 C89 1.400 . S
C85 H69 0.939 . S
C85 C84 1.378 . S
C85 C86 1.361 . S
C86 H70 0.942 . S
C86 C85 1.361 . S
C86 C87 1.369 . S
C87 C86 1.369 . S
C87 C88 1.404 . S
C88 H71 0.940 . S
C88 C87 1.404 . S
C88 C89 1.389 . S
C89 H72 0.939 . S
C89 C84 1.400 . S
C89 C88 1.389 . S
C90 P64 1.819 . S
C90 C91 1.391 . S
C90 C95 1.391 . S
C91 H73 0.941 . S
C91 C90 1.391 . S
C91 C92 1.396 . S
C92 H76 0.939 . S
C92 C91 1.396 . S
C92 C93 1.397 . S
C93 C92 1.397 . S
C93 C94 1.385 . S
C94 H77 0.940 . S
C94 C93 1.385 . S
C94 C95 1.388 . S
C95 H74 0.939 . S
C95 C90 1.391 . S
C95 C94 1.388 . S
P96 O107 1.490 . S
P96 C110 1.812 . S
P96 C116 1.803 . S
P96 C122 1.819 . S
H97 C111 0.941 . S
H98 C112 0.939 . S
H99 C114 0.940 . S
H100 C115 0.940 . S
H101 C117 0.939 . S
H102 C118 0.942 . S
H103 C120 0.940 . S
H104 C121 0.939 . S
H105 C123 0.941 . S
H106 C127 0.939 . S
O107 P96 1.490 . S
H108 C124 0.939 . S
H109 C126 0.940 . S
C110 P96 1.812 . S
C110 C111 1.389 . S
C110 C115 1.391 . S
C111 H97 0.941 . S
C111 C110 1.389 . S
C111 C112 1.397 . S
C112 H98 0.939 . S
C112 C111 1.397 . S
C112 C113 1.378 . S
C113 C112 1.378 . S
C113 C114 1.378 . S
C114 H99 0.940 . S
C114 C113 1.378 . S
C114 C115 1.396 . S
C115 H100 0.940 . S
C115 C110 1.391 . S
C115 C114 1.396 . S
C116 P96 1.803 . S
C116 C117 1.378 . S
C116 C121 1.400 . S
C117 H101 0.939 . S
C117 C116 1.378 . S
C117 C118 1.361 . S
C118 H102 0.942 . S
C118 C117 1.361 . S
C118 C119 1.369 . S
C119 C118 1.369 . S
C119 C120 1.404 . S
C120 H103 0.940 . S
C120 C119 1.404 . S
C120 C121 1.389 . S
C121 H104 0.939 . S
C121 C116 1.400 . S
C121 C120 1.389 . S
C122 P96 1.819 . S
C122 C123 1.391 . S
C122 C127 1.391 . S
C123 H105 0.941 . S
C123 C122 1.391 . S
C123 C124 1.396 . S
C124 H108 0.939 . S
C124 C123 1.396 . S
C124 C125 1.397 . S
C125 C124 1.397 . S
C125 C126 1.385 . S
C126 H109 0.940 . S
C126 C125 1.385 . S
C126 C127 1.388 . S
C127 H106 0.939 . S
C127 C122 1.391 . S
C127 C126 1.388 . S
P128 O139 1.490 . S
P128 C142 1.812 . S
P128 C148 1.803 . S
P128 C154 1.819 . S
H129 C143 0.941 . S
H130 C144 0.939 . S
H131 C146 0.940 . S
H132 C147 0.940 . S
H133 C149 0.939 . S
H134 C150 0.942 . S
H135 C152 0.940 . S
H136 C153 0.939 . S
H137 C155 0.941 . S
H138 C159 0.939 . S
O139 P128 1.490 . S
H140 C156 0.939 . S
H141 C158 0.940 . S
C142 P128 1.812 . S
C142 C143 1.389 . S
C142 C147 1.391 . S
C143 H129 0.941 . S
C143 C142 1.389 . S
C143 C144 1.397 . S
C144 H130 0.939 . S
C144 C143 1.397 . S
C144 C145 1.378 . S
C145 C144 1.378 . S
C145 C146 1.378 . S
C146 H131 0.940 . S
C146 C145 1.378 . S
C146 C147 1.396 . S
C147 H132 0.940 . S
C147 C142 1.391 . S
C147 C146 1.396 . S
C148 P128 1.803 . S
C148 C149 1.378 . S
C148 C153 1.400 . S
C149 H133 0.939 . S
C149 C148 1.378 . S
C149 C150 1.361 . S
C150 H134 0.942 . S
C150 C149 1.361 . S
C150 C151 1.369 . S
C151 C150 1.369 . S
C151 C152 1.404 . S
C152 H135 0.940 . S
C152 C151 1.404 . S
C152 C153 1.389 . S
C153 H136 0.939 . S
C153 C148 1.400 . S
C153 C152 1.389 . S
C154 P128 1.819 . S
C154 C155 1.391 . S
C154 C159 1.391 . S
C155 H137 0.941 . S
C155 C154 1.391 . S
C155 C156 1.396 . S
C156 H140 0.939 . S
C156 C155 1.396 . S
C156 C157 1.397 . S
C157 C156 1.397 . S
C157 C158 1.385 . S
C158 H141 0.940 . S
C158 C157 1.385 . S
C158 C159 1.388 . S
C159 H138 0.939 . S
C159 C154 1.391 . S
C159 C158 1.388 . S
P160 O171 1.490 . S
P160 C174 1.812 . S
P160 C180 1.803 . S
P160 C186 1.819 . S
H161 C175 0.941 . S
H162 C176 0.939 . S
H163 C178 0.940 . S
H164 C179 0.940 . S
H165 C181 0.939 . S
H166 C182 0.942 . S
H167 C184 0.940 . S
H168 C185 0.939 . S
H169 C187 0.941 . S
H170 C191 0.939 . S
O171 P160 1.490 . S
H172 C188 0.939 . S
H173 C190 0.940 . S
C174 P160 1.812 . S
C174 C175 1.389 . S
C174 C179 1.391 . S
C175 H161 0.941 . S
C175 C174 1.389 . S
C175 C176 1.397 . S
C176 H162 0.939 . S
C176 C175 1.397 . S
C176 C177 1.378 . S
C177 C176 1.378 . S
C177 C178 1.378 . S
C178 H163 0.940 . S
C178 C177 1.378 . S
C178 C179 1.396 . S
C179 H164 0.940 . S
C179 C174 1.391 . S
C179 C178 1.396 . S
C180 P160 1.803 . S
C180 C181 1.378 . S
C180 C185 1.400 . S
C181 H165 0.939 . S
C181 C180 1.378 . S
C181 C182 1.361 . S
C182 H166 0.942 . S
C182 C181 1.361 . S
C182 C183 1.369 . S
C183 C182 1.369 . S
C183 C184 1.404 . S
C184 H167 0.940 . S
C184 C183 1.404 . S
C184 C185 1.389 . S
C185 H168 0.939 . S
C185 C180 1.400 . S
C185 C184 1.389 . S
C186 P160 1.819 . S
C186 C187 1.391 . S
C186 C191 1.391 . S
C187 H169 0.941 . S
C187 C186 1.391 . S
C187 C188 1.396 . S
C188 H172 0.939 . S
C188 C187 1.396 . S
C188 C189 1.397 . S
C189 C188 1.397 . S
C189 C190 1.385 . S
C190 H173 0.940 . S
C190 C189 1.385 . S
C190 C191 1.388 . S
C191 H170 0.939 . S
C191 C186 1.391 . S
C191 C190 1.388 . S
P192 O203 1.490 . S
P192 C206 1.812 . S
P192 C212 1.803 . S
P192 C218 1.819 . S
H193 C207 0.941 . S
H194 C208 0.939 . S
H195 C210 0.940 . S
H196 C211 0.940 . S
H197 C213 0.939 . S
H198 C214 0.942 . S
H199 C216 0.940 . S
H200 C217 0.939 . S
H201 C219 0.941 . S
H202 C223 0.939 . S
O203 P192 1.490 . S
H204 C220 0.939 . S
H205 C222 0.940 . S
C206 P192 1.812 . S
C206 C207 1.389 . S
C206 C211 1.391 . S
C207 H193 0.941 . S
C207 C206 1.389 . S
C207 C208 1.397 . S
C208 H194 0.939 . S
C208 C207 1.397 . S
C208 C209 1.378 . S
C209 C208 1.378 . S
C209 C210 1.378 . S
C210 H195 0.940 . S
C210 C209 1.378 . S
C210 C211 1.396 . S
C211 H196 0.940 . S
C211 C206 1.391 . S
C211 C210 1.396 . S
C212 P192 1.803 . S
C212 C213 1.378 . S
C212 C217 1.400 . S
C213 H197 0.939 . S
C213 C212 1.378 . S
C213 C214 1.361 . S
C214 H198 0.942 . S
C214 C213 1.361 . S
C214 C215 1.369 . S
C215 C214 1.369 . S
C215 C216 1.404 . S
C216 H199 0.940 . S
C216 C215 1.404 . S
C216 C217 1.389 . S
C217 H200 0.939 . S
C217 C212 1.400 . S
C217 C216 1.389 . S
C218 P192 1.819 . S
C218 C219 1.391 . S
C218 C223 1.391 . S
C219 H201 0.941 . S
C219 C218 1.391 . S
C219 C220 1.396 . S
C220 H204 0.939 . S
C220 C219 1.396 . S
C220 C221 1.397 . S
C221 C220 1.397 . S
C221 C222 1.385 . S
C222 H205 0.940 . S
C222 C221 1.385 . S
C222 C223 1.388 . S
C223 H202 0.939 . S
C223 C218 1.391 . S
C223 C222 1.388 . S
P224 O235 1.490 . S
P224 C238 1.812 . S
P224 C244 1.803 . S
P224 C250 1.819 . S
H225 C239 0.941 . S
H226 C240 0.939 . S
H227 C242 0.940 . S
H228 C243 0.940 . S
H229 C245 0.939 . S
H230 C246 0.942 . S
H231 C248 0.940 . S
H232 C249 0.939 . S
H233 C251 0.941 . S
H234 C255 0.939 . S
O235 P224 1.490 . S
H236 C252 0.939 . S
H237 C254 0.940 . S
C238 P224 1.812 . S
C238 C239 1.389 . S
C238 C243 1.391 . S
C239 H225 0.941 . S
C239 C238 1.389 . S
C239 C240 1.397 . S
C240 H226 0.939 . S
C240 C239 1.397 . S
C240 C241 1.378 . S
C241 C240 1.378 . S
C241 C242 1.378 . S
C242 H227 0.940 . S
C242 C241 1.378 . S
C242 C243 1.396 . S
C243 H228 0.940 . S
C243 C238 1.391 . S
C243 C242 1.396 . S
C244 P224 1.803 . S
C244 C245 1.378 . S
C244 C249 1.400 . S
C245 H229 0.939 . S
C245 C244 1.378 . S
C245 C246 1.361 . S
C246 H230 0.942 . S
C246 C245 1.361 . S
C246 C247 1.369 . S
C247 C246 1.369 . S
C247 C248 1.404 . S
C248 H231 0.940 . S
C248 C247 1.404 . S
C248 C249 1.389 . S
C249 H232 0.939 . S
C249 C244 1.400 . S
C249 C248 1.389 . S
C250 P224 1.819 . S
C250 C251 1.391 . S
C250 C255 1.391 . S
C251 H233 0.941 . S
C251 C250 1.391 . S
C251 C252 1.396 . S
C252 H236 0.939 . S
C252 C251 1.396 . S
C252 C253 1.397 . S
C253 C252 1.397 . S
C253 C254 1.385 . S
C254 H237 0.940 . S
C254 C253 1.385 . S
C254 C255 1.388 . S
C255 H234 0.939 . S
C255 C250 1.391 . S
C255 C254 1.388 . S
C256 C257 1.443 . S
C256 N260 1.376 . S
C256 C294 1.389 . S
C257 C256 1.443 . S
C257 C258 1.340 . S
C257 H297 0.951 . S
C258 C257 1.340 . S
C258 C259 1.439 . S
C258 H298 0.950 . S
C259 C258 1.439 . S
C259 N260 1.374 . S
C259 C293 1.395 . S
N260 C256 1.376 . S
N260 C259 1.374 . S
N260 Co261 2.008 . S
Co261 N260 2.008 . S
Co261 N262 1.995 . S
Co261 N267 2.008 . S
Co261 N272 1.995 . S
Co261 N277 2.282 . S
Co261 N283 2.282 1_455 S
N262 Co261 1.995 . S
N262 C263 1.376 . S
N262 C266 1.383 1_455 S
C263 N262 1.376 . S
C263 C264 1.446 1_455 S
C263 C293 1.391 . S
C264 C263 1.446 1_655 S
C264 C265 1.339 . S
C264 H299 0.949 . S
C265 C264 1.339 . S
C265 C266 1.439 . S
C265 H300 0.950 . S
C266 N262 1.383 1_655 S
C266 C265 1.439 . S
C266 C295 1.392 . S
N267 Co261 2.008 . S
N267 C268 1.376 1_455 S
N267 C271 1.374 . S
C268 N267 1.376 1_655 S
C268 C269 1.443 . S
C268 C295 1.389 . S
C269 C268 1.443 . S
C269 C270 1.340 1_655 S
C269 H301 0.951 . S
C270 C269 1.340 1_455 S
C270 C271 1.439 . S
C270 H302 0.950 . S
C271 N267 1.374 . S
C271 C270 1.439 . S
C271 C296 1.395 . S
N272 Co261 1.995 . S
N272 C273 1.376 . S
N272 C276 1.383 . S
C273 N272 1.376 . S
C273 C274 1.446 . S
C273 C296 1.391 . S
C274 C273 1.446 . S
C274 C275 1.339 . S
C274 H303 0.949 . S
C275 C274 1.339 . S
C275 C276 1.439 . S
C275 H304 0.950 . S
C276 N272 1.383 . S
C276 C275 1.439 . S
C276 C294 1.392 . S
N277 Co261 2.282 . S
N277 C280 1.332 . S
N277 C282 1.332 . S
C278 C279 1.386 . S
C278 C281 1.388 . S
C279 C278 1.386 . S
C279 C280 1.382 . S
C279 H305 0.950 . S
C280 N277 1.332 . S
C280 C279 1.382 . S
C280 H291 0.952 . S
C281 C278 1.388 . S
C281 C282 1.382 . S
C281 H306 0.950 . S
C282 N277 1.332 . S
C282 C281 1.382 . S
C282 H292 0.948 . S
N283 Co261 2.282 1_655 S
N283 C287 1.332 . S
N283 C288 1.332 . S
C284 C285 1.388 . S
C284 C288 1.382 . S
C284 H307 0.950 . S
C285 C284 1.388 . S
C285 C286 1.386 . S
C286 C285 1.386 . S
C286 C287 1.382 . S
C286 H308 0.950 . S
C287 N283 1.332 . S
C287 C286 1.382 . S
C287 H289 0.952 . S
C288 N283 1.332 . S
C288 C284 1.382 . S
C288 H290 0.948 1_655 S
H289 C287 0.952 . S
H290 C288 0.948 1_455 S
H291 C280 0.952 . S
H292 C282 0.948 . S
C293 C259 1.395 . S
C293 C263 1.391 . S
C294 C256 1.389 . S
C294 C276 1.392 . S
C295 C266 1.392 . S
C295 C268 1.389 . S
C296 C271 1.395 . S
C296 C273 1.391 . S
H297 C257 0.951 . S
H298 C258 0.950 . S
H299 C264 0.949 . S
H300 C265 0.950 . S
H301 C269 0.951 . S
H302 C270 0.950 . S
H303 C274 0.949 . S
H304 C275 0.950 . S
H305 C279 0.950 . S
H306 C281 0.950 . S
H307 C284 0.950 . S
H308 C286 0.950 . S
C309 C310 1.443 . S
C309 N313 1.376 . S
C309 C347 1.389 . S
C310 C309 1.443 . S
C310 C311 1.340 . S
C310 H350 0.951 . S
C311 C310 1.340 . S
C311 C312 1.439 . S
C311 H351 0.950 . S
C312 C311 1.439 . S
C312 N313 1.374 . S
C312 C346 1.395 . S
N313 C309 1.376 . S
N313 C312 1.374 . S
N313 Co314 2.008 . S
Co314 N313 2.008 . S
Co314 N315 1.995 1_455 S
Co314 N320 2.008 1_455 S
Co314 N325 1.995 . S
Co314 N330 2.282 . S
Co314 N336 2.282 1_455 S
N315 Co314 1.995 1_655 S
N315 C316 1.376 . S
N315 C319 1.383 . S
C316 N315 1.376 . S
C316 C317 1.446 . S
C316 C346 1.391 1_655 S
C317 C316 1.446 . S
C317 C318 1.339 . S
C317 H352 0.949 . S
C318 C317 1.339 . S
C318 C319 1.439 . S
C318 H353 0.950 . S
C319 N315 1.383 . S
C319 C318 1.439 . S
C319 C348 1.392 . S
N320 Co314 2.008 1_655 S
N320 C321 1.376 . S
N320 C324 1.374 . S
C321 N320 1.376 . S
C321 C322 1.443 . S
C321 C348 1.389 . S
C322 C321 1.443 . S
C322 C323 1.340 . S
C322 H354 0.951 . S
C323 C322 1.340 . S
C323 C324 1.439 . S
C323 H355 0.950 . S
C324 N320 1.374 . S
C324 C323 1.439 . S
C324 C349 1.395 1_655 S
N325 Co314 1.995 . S
N325 C326 1.376 . S
N325 C329 1.383 . S
C326 N325 1.376 . S
C326 C327 1.446 . S
C326 C349 1.391 . S
C327 C326 1.446 . S
C327 C328 1.339 . S
C327 H356 0.949 . S
C328 C327 1.339 . S
C328 C329 1.439 . S
C328 H357 0.950 . S
C329 N325 1.383 . S
C329 C328 1.439 . S
C329 C347 1.392 . S
N330 Co314 2.282 . S
N330 C333 1.332 . S
N330 C335 1.332 . S
C331 C332 1.386 . S
C331 C334 1.388 . S
C332 C331 1.386 . S
C332 C333 1.382 . S
C332 H358 0.950 . S
C333 N330 1.332 . S
C333 C332 1.382 . S
C333 H344 0.952 . S
C334 C331 1.388 . S
C334 C335 1.382 . S
C334 H359 0.950 . S
C335 N330 1.332 . S
C335 C334 1.382 . S
C335 H345 0.948 . S
N336 Co314 2.282 1_655 S
N336 C340 1.332 . S
N336 C341 1.332 . S
C337 C338 1.388 . S
C337 C341 1.382 . S
C337 H360 0.950 . S
C338 C337 1.388 . S
C338 C339 1.386 . S
C339 C338 1.386 . S
C339 C340 1.382 . S
C339 H361 0.950 . S
C340 N336 1.332 . S
C340 C339 1.382 . S
C340 H342 0.952 . S
C341 N336 1.332 . S
C341 C337 1.382 . S
C341 H343 0.948 . S
H342 C340 0.952 . S
H343 C341 0.948 . S
H344 C333 0.952 . S
H345 C335 0.948 . S
C346 C312 1.395 . S
C346 C316 1.391 1_455 S
C347 C309 1.389 . S
C347 C329 1.392 . S
C348 C319 1.392 . S
C348 C321 1.389 . S
C349 C324 1.395 1_455 S
C349 C326 1.391 . S
H350 C310 0.951 . S
H351 C311 0.950 . S
H352 C317 0.949 . S
H353 C318 0.950 . S
H354 C322 0.951 . S
H355 C323 0.950 . S
H356 C327 0.949 . S
H357 C328 0.950 . S
H358 C332 0.950 . S
H359 C334 0.950 . S
H360 C337 0.950 . S
H361 C339 0.950 . S
C362 C363 1.443 . S
C362 N366 1.376 . S
C362 C400 1.389 . S
C363 C362 1.443 . S
C363 C364 1.340 . S
C363 H403 0.951 . S
C364 C363 1.340 . S
C364 C365 1.440 1_565 S
C364 H404 0.950 . S
C365 C364 1.440 1_545 S
C365 N366 1.374 1_545 S
C365 C399 1.395 . S
N366 C362 1.376 . S
N366 C365 1.374 1_565 S
N366 Co367 2.008 1_565 S
Co367 N366 2.008 1_545 S
Co367 N368 1.995 . S
Co367 N373 2.008 . S
Co367 N378 1.995 1_545 S
Co367 N383 2.282 . S
Co367 N389 2.282 1_545 S
N368 Co367 1.995 . S
N368 C369 1.376 . S
N368 C372 1.383 . S
C369 N368 1.376 . S
C369 C370 1.446 . S
C369 C399 1.391 . S
C370 C369 1.446 . S
C370 C371 1.339 . S
C370 H405 0.949 . S
C371 C370 1.339 . S
C371 C372 1.439 . S
C371 H406 0.950 . S
C372 N368 1.383 . S
C372 C371 1.439 . S
C372 C401 1.392 . S
N373 Co367 2.008 . S
N373 C374 1.376 . S
N373 C377 1.374 . S
C374 N373 1.376 . S
C374 C375 1.443 . S
C374 C401 1.389 . S
C375 C374 1.443 . S
C375 C376 1.340 . S
C375 H407 0.951 . S
C376 C375 1.340 . S
C376 C377 1.439 . S
C376 H408 0.950 . S
C377 N373 1.374 . S
C377 C376 1.439 . S
C377 C402 1.395 . S
N378 Co367 1.995 1_565 S
N378 C379 1.376 . S
N378 C382 1.383 . S
C379 N378 1.376 . S
C379 C380 1.446 . S
C379 C402 1.391 1_565 S
C380 C379 1.446 . S
C380 C381 1.339 . S
C380 H409 0.949 . S
C381 C380 1.339 . S
C381 C382 1.439 . S
C381 H410 0.950 . S
C382 N378 1.383 . S
C382 C381 1.439 . S
C382 C400 1.392 . S
N383 Co367 2.282 . S
N383 C386 1.332 . S
N383 C388 1.332 . S
C384 C385 1.386 . S
C384 C387 1.388 . S
C385 C384 1.386 . S
C385 C386 1.382 . S
C385 H411 0.950 . S
C386 N383 1.332 . S
C386 C385 1.382 . S
C386 H397 0.952 . S
C387 C384 1.388 . S
C387 C388 1.382 . S
C387 H412 0.950 . S
C388 N383 1.332 . S
C388 C387 1.382 . S
C388 H398 0.948 . S
N389 Co367 2.282 1_565 S
N389 C393 1.332 . S
N389 C394 1.332 . S
C390 C391 1.388 . S
C390 C394 1.382 . S
C390 H413 0.950 . S
C391 C390 1.388 . S
C391 C392 1.386 . S
C392 C391 1.386 . S
C392 C393 1.382 . S
C392 H414 0.950 . S
C393 N389 1.332 . S
C393 C392 1.382 . S
C393 H395 0.952 . S
C394 N389 1.332 . S
C394 C390 1.382 . S
C394 H396 0.948 . S
H395 C393 0.952 . S
H396 C394 0.948 . S
H397 C386 0.952 . S
H398 C388 0.948 . S
C399 C365 1.395 . S
C399 C369 1.391 . S
C400 C362 1.389 . S
C400 C382 1.392 . S
C401 C372 1.392 . S
C401 C374 1.389 . S
C402 C377 1.395 . S
C402 C379 1.391 1_545 S
H403 C363 0.951 . S
H404 C364 0.950 . S
H405 C370 0.949 . S
H406 C371 0.950 . S
H407 C375 0.951 . S
H408 C376 0.950 . S
H409 C380 0.949 . S
H410 C381 0.950 . S
H411 C385 0.950 . S
H412 C387 0.950 . S
H413 C390 0.950 . S
H414 C392 0.950 . S
C415 C416 1.443 . S
C415 N419 1.376 . S
C415 C453 1.389 . S
C416 C415 1.443 . S
C416 C417 1.340 . S
C416 H456 0.951 . S
C417 C416 1.340 . S
C417 C418 1.439 . S
C417 H457 0.950 . S
C418 C417 1.439 . S
C418 N419 1.374 . S
C418 C452 1.395 . S
N419 C415 1.376 . S
N419 C418 1.374 . S
N419 Co420 2.008 . S
Co420 N419 2.008 . S
Co420 N421 2.009 . S
Co420 N426 2.006 . S
Co420 N431 1.995 . S
Co420 N436 2.282 1_554 S
Co420 N442 2.282 . S
N421 Co420 2.009 . S
N421 C422 1.381 . S
N421 C425 1.358 1_554 S
C422 N421 1.381 . S
C422 C423 1.446 1_554 S
C422 C452 1.391 . S
C423 C422 1.446 1_556 S
C423 C424 1.339 . S
C423 H458 0.949 . S
C424 C423 1.339 . S
C424 C425 1.439 . S
C424 H459 0.950 . S
C425 N421 1.358 1_556 S
C425 C424 1.439 . S
C425 C454 1.392 . S
N426 Co420 2.006 . S
N426 C427 1.380 1_554 S
N426 C430 1.374 . S
C427 N426 1.380 1_556 S
C427 C428 1.443 . S
C427 C454 1.389 . S
C428 C427 1.443 . S
C428 C429 1.340 . S
C428 H460 0.951 . S
C429 C428 1.340 . S
C429 C430 1.439 1_556 S
C429 H461 0.950 . S
C430 N426 1.374 . S
C430 C429 1.439 1_554 S
C430 C455 1.395 . S
N431 Co420 1.995 . S
N431 C432 1.376 . S
N431 C435 1.383 . S
C432 N431 1.376 . S
C432 C433 1.446 . S
C432 C455 1.391 . S
C433 C432 1.446 . S
C433 C434 1.339 . S
C433 H462 0.949 . S
C434 C433 1.339 . S
C434 C435 1.439 . S
C434 H463 0.950 . S
C435 N431 1.383 . S
C435 C434 1.439 . S
C435 C453 1.392 . S
N436 Co420 2.282 1_556 S
N436 C439 1.332 . S
N436 C441 1.332 . S
C437 C438 1.386 . S
C437 C440 1.388 . S
C438 C437 1.386 . S
C438 C439 1.382 . S
C438 H464 0.950 . S
C439 N436 1.332 . S
C439 C438 1.382 . S
C439 H450 0.952 . S
C440 C437 1.388 . S
C440 C441 1.382 . S
C440 H465 0.950 . S
C441 N436 1.332 . S
C441 C440 1.382 . S
C441 H451 0.948 . S
N442 Co420 2.282 . S
N442 C446 1.332 . S
N442 C447 1.332 . S
C443 C444 1.388 . S
C443 C447 1.382 . S
C443 H466 0.950 . S
C444 C443 1.388 . S
C444 C445 1.386 . S
C445 C444 1.386 . S
C445 C446 1.382 . S
C445 H467 0.950 . S
C446 N442 1.332 . S
C446 C445 1.382 . S
C446 H448 0.952 . S
C447 N442 1.332 . S
C447 C443 1.382 . S
C447 H449 0.948 . S
H448 C446 0.952 . S
H449 C447 0.948 . S
H450 C439 0.952 . S
H451 C441 0.948 . S
C452 C418 1.395 . S
C452 C422 1.391 . S
C453 C415 1.389 . S
C453 C435 1.392 . S
C454 C425 1.392 . S
C454 C427 1.389 . S
C455 C430 1.395 . S
C455 C432 1.391 . S
H456 C416 0.951 . S
H457 C417 0.950 . S
H458 C423 0.949 . S
H459 C424 0.950 . S
H460 C428 0.951 . S
H461 C429 0.950 . S
H462 C433 0.949 . S
H463 C434 0.950 . S
H464 C438 0.950 . S
H465 C440 0.950 . S
H466 C443 0.950 . S
H467 C445 0.950 . S
C468 C469 1.443 . S
C468 N472 1.376 . S
C468 C506 1.389 . S
C469 C468 1.443 . S
C469 C470 1.340 . S
C469 H509 0.951 . S
C470 C469 1.340 . S
C470 C471 1.439 . S
C470 H510 0.950 . S
C471 C470 1.439 . S
C471 N472 1.374 . S
C471 C505 1.395 1_565 S
N472 C468 1.376 . S
N472 C471 1.374 . S
N472 Co473 2.008 1_565 S
Co473 N472 2.008 1_545 S
Co473 N474 1.995 . S
Co473 N479 2.008 . S
Co473 N484 1.995 1_545 S
Co473 N489 2.282 . S
Co473 N495 2.282 1_545 S
N474 Co473 1.995 . S
N474 C475 1.376 . S
N474 C478 1.383 . S
C475 N474 1.376 . S
C475 C476 1.446 . S
C475 C505 1.391 . S
C476 C475 1.446 . S
C476 C477 1.339 . S
C476 H511 0.949 . S
C477 C476 1.339 . S
C477 C478 1.439 . S
C477 H512 0.950 . S
C478 N474 1.383 . S
C478 C477 1.439 . S
C478 C507 1.392 . S
N479 Co473 2.008 . S
N479 C480 1.376 . S
N479 C483 1.374 . S
C480 N479 1.376 . S
C480 C481 1.443 . S
C480 C507 1.389 . S
C481 C480 1.443 . S
C481 C482 1.340 . S
C481 H513 0.951 . S
C482 C481 1.340 . S
C482 C483 1.439 . S
C482 H514 0.950 . S
C483 N479 1.374 . S
C483 C482 1.439 . S
C483 C508 1.395 . S
N484 Co473 1.995 1_565 S
N484 C485 1.376 . S
N484 C488 1.383 . S
C485 N484 1.376 . S
C485 C486 1.446 . S
C485 C508 1.391 1_565 S
C486 C485 1.446 . S
C486 C487 1.339 . S
C486 H515 0.949 . S
C487 C486 1.339 . S
C487 C488 1.439 . S
C487 H516 0.950 . S
C488 N484 1.383 . S
C488 C487 1.439 . S
C488 C506 1.392 . S
N489 Co473 2.282 . S
N489 C492 1.332 . S
N489 C494 1.332 . S
C490 C491 1.386 . S
C490 C493 1.388 . S
C491 C490 1.386 . S
C491 C492 1.382 . S
C491 H517 0.950 . S
C492 N489 1.332 . S
C492 C491 1.382 . S
C492 H503 0.952 . S
C493 C490 1.388 . S
C493 C494 1.382 . S
C493 H518 0.950 . S
C494 N489 1.332 . S
C494 C493 1.382 . S
C494 H504 0.948 . S
N495 Co473 2.282 1_565 S
N495 C499 1.332 . S
N495 C500 1.332 . S
C496 C497 1.388 . S
C496 C500 1.382 . S
C496 H519 0.950 . S
C497 C496 1.388 . S
C497 C498 1.386 . S
C498 C497 1.386 . S
C498 C499 1.382 . S
C498 H520 0.950 . S
C499 N495 1.332 . S
C499 C498 1.382 . S
C499 H501 0.952 . S
C500 N495 1.332 . S
C500 C496 1.382 . S
C500 H502 0.948 . S
H501 C499 0.952 . S
H502 C500 0.948 . S
H503 C492 0.952 . S
H504 C494 0.948 . S
C505 C471 1.395 1_545 S
C505 C475 1.391 . S
C506 C468 1.389 . S
C506 C488 1.392 . S
C507 C478 1.392 . S
C507 C480 1.389 . S
C508 C483 1.395 . S
C508 C485 1.391 1_545 S
H509 C469 0.951 . S
H510 C470 0.950 . S
H511 C476 0.949 . S
H512 C477 0.950 . S
H513 C481 0.951 . S
H514 C482 0.950 . S
H515 C486 0.949 . S
H516 C487 0.950 . S
H517 C491 0.950 . S
H518 C493 0.950 . S
H519 C496 0.950 . S
H520 C498 0.950 . S
C521 C522 1.443 . S
C521 N525 1.376 . S
C521 C559 1.389 . S
C522 C521 1.443 . S
C522 C523 1.340 . S
C522 H562 0.951 . S
C523 C522 1.340 . S
C523 C524 1.439 . S
C523 H563 0.950 . S
C524 C523 1.439 . S
C524 N525 1.374 . S
C524 C558 1.395 . S
N525 C521 1.376 . S
N525 C524 1.374 . S
N525 Co526 2.008 . S
Co526 N525 2.008 . S
Co526 N527 1.995 . S
Co526 N532 2.008 . S
Co526 N537 1.995 . S
Co526 N542 2.282 . S
Co526 N548 2.282 . S
N527 Co526 1.995 . S
N527 C528 1.376 . S
N527 C531 1.383 1_554 S
C528 N527 1.376 . S
C528 C529 1.446 1_554 S
C528 C558 1.391 . S
C529 C528 1.446 1_556 S
C529 C530 1.339 . S
C529 H564 0.949 . S
C530 C529 1.339 . S
C530 C531 1.439 . S
C530 H565 0.950 . S
C531 N527 1.383 1_556 S
C531 C530 1.439 . S
C531 C560 1.392 . S
N532 Co526 2.008 . S
N532 C533 1.376 1_554 S
N532 C536 1.374 . S
C533 N532 1.376 1_556 S
C533 C534 1.443 . S
C533 C560 1.389 . S
C534 C533 1.443 . S
C534 C535 1.340 . S
C534 H566 0.951 . S
C535 C534 1.340 . S
C535 C536 1.439 1_556 S
C535 H567 0.950 . S
C536 N532 1.374 . S
C536 C535 1.439 1_554 S
C536 C561 1.395 . S
N537 Co526 1.995 . S
N537 C538 1.376 . S
N537 C541 1.383 . S
C538 N537 1.376 . S
C538 C539 1.446 . S
C538 C561 1.391 . S
C539 C538 1.446 . S
C539 C540 1.339 . S
C539 H568 0.949 . S
C540 C539 1.339 . S
C540 C541 1.439 . S
C540 H569 0.950 . S
C541 N537 1.383 . S
C541 C540 1.439 . S
C541 C559 1.392 . S
N542 Co526 2.282 . S
N542 C545 1.332 1_554 S
N542 C547 1.332 1_554 S
C543 C544 1.386 . S
C543 C546 1.388 . S
C544 C543 1.386 . S
C544 C545 1.382 . S
C544 H570 0.950 . S
C545 N542 1.332 1_556 S
C545 C544 1.382 . S
C545 H556 0.952 1_556 S
C546 C543 1.388 . S
C546 C547 1.382 . S
C546 H571 0.950 . S
C547 N542 1.332 1_556 S
C547 C546 1.382 . S
C547 H557 0.948 . S
N548 Co526 2.282 . S
N548 C552 1.332 . S
N548 C553 1.332 . S
C549 C550 1.388 . S
C549 C553 1.382 . S
C549 H572 0.950 . S
C550 C549 1.388 . S
C550 C551 1.386 . S
C551 C550 1.386 . S
C551 C552 1.382 . S
C551 H573 0.950 . S
C552 N548 1.332 . S
C552 C551 1.382 . S
C552 H554 0.952 . S
C553 N548 1.332 . S
C553 C549 1.382 . S
C553 H555 0.948 . S
H554 C552 0.952 . S
H555 C553 0.948 . S
H556 C545 0.952 1_554 S
H557 C547 0.948 . S
C558 C524 1.395 . S
C558 C528 1.391 . S
C559 C521 1.389 . S
C559 C541 1.392 . S
C560 C531 1.392 . S
C560 C533 1.389 . S
C561 C536 1.395 . S
C561 C538 1.391 . S
H562 C522 0.951 . S
H563 C523 0.950 . S
H564 C529 0.949 . S
H565 C530 0.950 . S
H566 C534 0.951 . S
H567 C535 0.950 . S
H568 C539 0.949 . S
H569 C540 0.950 . S
H570 C544 0.950 . S
H571 C546 0.950 . S
H572 C549 0.950 . S
H573 C551 0.950 . S
C574 C575 1.391 . S
C574 C576 1.394 . S
C574 H590 0.931 . S
C575 C574 1.391 . S
C575 C579 1.376 . S
C576 C574 1.394 . S
C576 C577 1.369 . S
C576 C580 1.531 . S
C577 C576 1.369 . S
C577 C578 1.410 . S
C577 C585 1.503 . S
C578 C577 1.410 . S
C578 C579 1.392 . S
C578 C581 1.511 . S
C579 C575 1.376 . S
C579 C578 1.392 . S
C579 H591 0.929 . S
C580 C576 1.531 . S
C580 H592 0.960 . S
C580 H593 0.962 . S
C580 H594 0.960 . S
C581 C578 1.511 . S
C581 H595 0.961 . S
C581 H596 0.961 . S
C581 H597 0.961 . S
C582 C583 1.370 . S
C582 C584 1.363 . S
C582 H598 0.931 . S
C583 C582 1.370 . S
C583 C587 1.408 . S
C584 C582 1.363 . S
C584 C585 1.370 . S
C584 C588 1.524 . S
C585 C577 1.503 . S
C585 C584 1.370 . S
C585 C586 1.403 . S
C586 C585 1.403 . S
C586 C587 1.404 . S
C586 C589 1.539 . S
C587 C583 1.408 . S
C587 C586 1.404 . S
C587 H599 0.930 . S
C588 C584 1.524 . S
C588 H600 0.956 . S
C588 H601 0.961 . S
C588 H602 0.961 . S
C589 C586 1.539 . S
C589 H603 0.958 . S
C589 H604 0.961 . S
C589 H605 0.960 . S
H590 C574 0.931 . S
H591 C579 0.929 . S
H592 C580 0.960 . S
H593 C580 0.962 . S
H594 C580 0.960 . S
H595 C581 0.961 . S
H596 C581 0.961 . S
H597 C581 0.961 . S
H598 C582 0.931 . S
H599 C587 0.930 . S
H600 C588 0.956 . S
H601 C588 0.961 . S
H602 C588 0.961 . S
H603 C589 0.958 . S
H604 C589 0.961 . S
H605 C589 0.960 . S
C606 C607 1.391 . S
C606 C608 1.394 . S
C606 H622 0.931 . S
C607 C606 1.391 . S
C607 C611 1.376 . S
C608 C606 1.394 . S
C608 C609 1.369 . S
C608 C612 1.531 . S
C609 C608 1.369 . S
C609 C610 1.410 . S
C609 C617 1.503 . S
C610 C609 1.410 . S
C610 C611 1.392 . S
C610 C613 1.511 . S
C611 C607 1.376 . S
C611 C610 1.392 . S
C611 H623 0.929 . S
C612 C608 1.531 . S
C612 H624 0.960 . S
C612 H625 0.962 . S
C612 H626 0.960 . S
C613 C610 1.511 . S
C613 H627 0.961 . S
C613 H628 0.961 . S
C613 H629 0.961 . S
C614 C615 1.370 . S
C614 C616 1.363 . S
C614 H630 0.931 . S
C615 C614 1.370 . S
C615 C619 1.408 . S
C616 C614 1.363 . S
C616 C617 1.370 . S
C616 C620 1.524 . S
C617 C609 1.503 . S
C617 C616 1.370 . S
C617 C618 1.403 . S
C618 C617 1.403 . S
C618 C619 1.404 . S
C618 C621 1.539 . S
C619 C615 1.408 . S
C619 C618 1.404 . S
C619 H631 0.930 . S
C620 C616 1.524 . S
C620 H632 0.956 . S
C620 H633 0.961 . S
C620 H634 0.961 . S
C621 C618 1.539 . S
C621 H635 0.958 . S
C621 H636 0.961 . S
C621 H637 0.960 . S
H622 C606 0.931 . S
H623 C611 0.929 . S
H624 C612 0.960 . S
H625 C612 0.962 . S
H626 C612 0.960 . S
H627 C613 0.961 . S
H628 C613 0.961 . S
H629 C613 0.961 . S
H630 C614 0.931 . S
H631 C619 0.930 . S
H632 C620 0.956 . S
H633 C620 0.961 . S
H634 C620 0.961 . S
H635 C621 0.958 . S
H636 C621 0.961 . S
H637 C621 0.960 . S
C638 C639 1.391 . S
C638 C640 1.394 . S
C638 H654 0.931 . S
C639 C638 1.391 . S
C639 C643 1.376 . S
C640 C638 1.394 . S
C640 C641 1.369 . S
C640 C644 1.531 . S
C641 C640 1.369 . S
C641 C642 1.410 . S
C641 C649 1.503 . S
C642 C641 1.410 . S
C642 C643 1.392 . S
C642 C645 1.511 . S
C643 C639 1.376 . S
C643 C642 1.392 . S
C643 H655 0.929 . S
C644 C640 1.531 . S
C644 H656 0.960 . S
C644 H657 0.962 . S
C644 H658 0.960 . S
C645 C642 1.511 . S
C645 H659 0.961 . S
C645 H660 0.961 . S
C645 H661 0.961 . S
C646 C647 1.370 . S
C646 C648 1.363 . S
C646 H662 0.931 . S
C647 C646 1.370 . S
C647 C651 1.408 . S
C648 C646 1.363 . S
C648 C649 1.370 . S
C648 C652 1.524 . S
C649 C641 1.503 . S
C649 C648 1.370 . S
C649 C650 1.403 . S
C650 C649 1.403 . S
C650 C651 1.404 . S
C650 C653 1.539 . S
C651 C647 1.408 . S
C651 C650 1.404 . S
C651 H663 0.930 . S
C652 C648 1.524 . S
C652 H664 0.956 . S
C652 H665 0.961 . S
C652 H666 0.961 . S
C653 C650 1.539 . S
C653 H667 0.958 . S
C653 H668 0.961 . S
C653 H669 0.960 . S
H654 C638 0.931 . S
H655 C643 0.929 . S
H656 C644 0.960 . S
H657 C644 0.962 . S
H658 C644 0.960 . S
H659 C645 0.961 . S
H660 C645 0.961 . S
H661 C645 0.961 . S
H662 C646 0.931 . S
H663 C651 0.930 . S
H664 C652 0.956 . S
H665 C652 0.961 . S
H666 C652 0.961 . S
H667 C653 0.958 . S
H668 C653 0.961 . S
H669 C653 0.960 . S
C670 C671 1.391 . S
C670 C672 1.394 . S
C670 H686 0.931 . S
C671 C670 1.391 . S
C671 C675 1.376 . S
C672 C670 1.394 . S
C672 C673 1.369 . S
C672 C676 1.531 . S
C673 C672 1.369 . S
C673 C674 1.410 . S
C673 C681 1.503 . S
C674 C673 1.410 . S
C674 C675 1.392 . S
C674 C677 1.511 . S
C675 C671 1.376 . S
C675 C674 1.392 . S
C675 H687 0.929 . S
C676 C672 1.531 . S
C676 H688 0.960 . S
C676 H689 0.962 . S
C676 H690 0.960 . S
C677 C674 1.511 . S
C677 H691 0.961 . S
C677 H692 0.961 . S
C677 H693 0.961 . S
C678 C679 1.370 . S
C678 C680 1.363 . S
C678 H694 0.931 . S
C679 C678 1.370 . S
C679 C683 1.408 . S
C680 C678 1.363 . S
C680 C681 1.370 . S
C680 C684 1.524 . S
C681 C673 1.503 . S
C681 C680 1.370 . S
C681 C682 1.403 . S
C682 C681 1.403 . S
C682 C683 1.404 . S
C682 C685 1.539 . S
C683 C679 1.408 . S
C683 C682 1.404 . S
C683 H695 0.930 . S
C684 C680 1.524 . S
C684 H696 0.956 . S
C684 H697 0.961 . S
C684 H698 0.961 . S
C685 C682 1.539 . S
C685 H699 0.958 . S
C685 H700 0.961 . S
C685 H701 0.960 . S
H686 C670 0.931 . S
H687 C675 0.929 . S
H688 C676 0.960 . S
H689 C676 0.962 . S
H690 C676 0.960 . S
H691 C677 0.961 . S
H692 C677 0.961 . S
H693 C677 0.961 . S
H694 C678 0.931 . S
H695 C683 0.930 . S
H696 C684 0.956 . S
H697 C684 0.961 . S
H698 C684 0.961 . S
H699 C685 0.958 . S
H700 C685 0.961 . S
H701 C685 0.960 . S
C702 C703 1.391 . S
C702 C704 1.394 . S
C702 H718 0.931 . S
C703 C702 1.391 . S
C703 C707 1.376 . S
C704 C702 1.394 . S
C704 C705 1.369 . S
C704 C708 1.531 . S
C705 C704 1.369 . S
C705 C706 1.410 . S
C705 C713 1.503 . S
C706 C705 1.410 . S
C706 C707 1.392 . S
C706 C709 1.511 . S
C707 C703 1.376 . S
C707 C706 1.392 . S
C707 H719 0.929 . S
C708 C704 1.531 . S
C708 H720 0.960 . S
C708 H721 0.962 . S
C708 H722 0.960 . S
C709 C706 1.511 . S
C709 H723 0.961 . S
C709 H724 0.961 . S
C709 H725 0.961 . S
C710 C711 1.370 . S
C710 C712 1.363 . S
C710 H726 0.931 . S
C711 C710 1.370 . S
C711 C715 1.408 . S
C712 C710 1.363 . S
C712 C713 1.370 . S
C712 C716 1.524 . S
C713 C705 1.503 . S
C713 C712 1.370 . S
C713 C714 1.403 . S
C714 C713 1.403 . S
C714 C715 1.404 . S
C714 C717 1.539 . S
C715 C711 1.408 . S
C715 C714 1.404 . S
C715 H727 0.930 . S
C716 C712 1.524 . S
C716 H728 0.956 . S
C716 H729 0.961 . S
C716 H730 0.961 . S
C717 C714 1.539 . S
C717 H731 0.958 . S
C717 H732 0.961 . S
C717 H733 0.960 . S
H718 C702 0.931 . S
H719 C707 0.929 . S
H720 C708 0.960 . S
H721 C708 0.962 . S
H722 C708 0.960 . S
H723 C709 0.961 . S
H724 C709 0.961 . S
H725 C709 0.961 . S
H726 C710 0.931 . S
H727 C715 0.930 . S
H728 C716 0.956 . S
H729 C716 0.961 . S
H730 C716 0.961 . S
H731 C717 0.958 . S
H732 C717 0.961 . S
H733 C717 0.960 . S
C734 C735 1.391 . S
C734 C736 1.394 . S
C734 H750 0.931 . S
C735 C734 1.391 . S
C735 C739 1.376 . S
C736 C734 1.394 . S
C736 C737 1.369 . S
C736 C740 1.531 . S
C737 C736 1.369 . S
C737 C738 1.410 . S
C737 C745 1.503 . S
C738 C737 1.410 . S
C738 C739 1.392 . S
C738 C741 1.511 . S
C739 C735 1.376 . S
C739 C738 1.392 . S
C739 H751 0.929 . S
C740 C736 1.531 . S
C740 H752 0.960 . S
C740 H753 0.962 . S
C740 H754 0.960 . S
C741 C738 1.511 . S
C741 H755 0.961 . S
C741 H756 0.961 . S
C741 H757 0.961 . S
C742 C743 1.370 . S
C742 C744 1.363 . S
C742 H758 0.931 . S
C743 C742 1.370 . S
C743 C747 1.408 . S
C744 C742 1.363 . S
C744 C745 1.370 . S
C744 C748 1.524 . S
C745 C737 1.503 . S
C745 C744 1.370 . S
C745 C746 1.403 . S
C746 C745 1.403 . S
C746 C747 1.404 . S
C746 C749 1.539 . S
C747 C743 1.408 . S
C747 C746 1.404 . S
C747 H759 0.930 . S
C748 C744 1.524 . S
C748 H760 0.956 . S
C748 H761 0.961 . S
C748 H762 0.961 . S
C749 C746 1.539 . S
C749 H763 0.958 . S
C749 H764 0.961 . S
C749 H765 0.960 . S
H750 C734 0.931 . S
H751 C739 0.929 . S
H752 C740 0.960 . S
H753 C740 0.962 . S
H754 C740 0.960 . S
H755 C741 0.961 . S
H756 C741 0.961 . S
H757 C741 0.961 . S
H758 C742 0.931 . S
H759 C747 0.930 . S
H760 C748 0.956 . S
H761 C748 0.961 . S
H762 C748 0.961 . S
H763 C749 0.958 . S
H764 C749 0.961 . S
H765 C749 0.960 . S
C766 C767 1.391 . S
C766 C768 1.394 . S
C766 H782 0.931 . S
C767 C766 1.391 . S
C767 C771 1.376 . S
C768 C766 1.394 . S
C768 C769 1.369 . S
C768 C772 1.531 . S
C769 C768 1.369 . S
C769 C770 1.410 . S
C769 C777 1.503 . S
C770 C769 1.410 . S
C770 C771 1.392 . S
C770 C773 1.511 . S
C771 C767 1.376 . S
C771 C770 1.392 . S
C771 H783 0.929 . S
C772 C768 1.531 . S
C772 H784 0.960 . S
C772 H785 0.962 . S
C772 H786 0.960 . S
C773 C770 1.511 . S
C773 H787 0.961 . S
C773 H788 0.961 . S
C773 H789 0.961 . S
C774 C775 1.370 . S
C774 C776 1.363 . S
C774 H790 0.931 . S
C775 C774 1.370 . S
C775 C779 1.408 . S
C776 C774 1.363 . S
C776 C777 1.370 . S
C776 C780 1.524 . S
C777 C769 1.503 . S
C777 C776 1.370 . S
C777 C778 1.403 . S
C778 C777 1.403 . S
C778 C779 1.404 . S
C778 C781 1.539 . S
C779 C775 1.408 . S
C779 C778 1.404 . S
C779 H791 0.930 . S
C780 C776 1.524 . S
C780 H792 0.956 . S
C780 H793 0.961 . S
C780 H794 0.961 . S
C781 C778 1.539 . S
C781 H795 0.958 . S
C781 H796 0.961 . S
C781 H797 0.960 . S
H782 C766 0.931 . S
H783 C771 0.929 . S
H784 C772 0.960 . S
H785 C772 0.962 . S
H786 C772 0.960 . S
H787 C773 0.961 . S
H788 C773 0.961 . S
H789 C773 0.961 . S
H790 C774 0.931 . S
H791 C779 0.930 . S
H792 C780 0.956 . S
H793 C780 0.961 . S
H794 C780 0.961 . S
H795 C781 0.958 . S
H796 C781 0.961 . S
H797 C781 0.960 . S
C798 C799 1.391 . S
C798 C800 1.394 . S
C798 H814 0.931 . S
C799 C798 1.391 . S
C799 C803 1.376 . S
C800 C798 1.394 . S
C800 C801 1.369 . S
C800 C804 1.531 . S
C801 C800 1.369 . S
C801 C802 1.410 . S
C801 C809 1.503 . S
C802 C801 1.410 . S
C802 C803 1.392 . S
C802 C805 1.511 . S
C803 C799 1.376 . S
C803 C802 1.392 . S
C803 H815 0.929 . S
C804 C800 1.531 . S
C804 H816 0.960 . S
C804 H817 0.962 . S
C804 H818 0.960 . S
C805 C802 1.511 . S
C805 H819 0.961 . S
C805 H820 0.961 . S
C805 H821 0.961 . S
C806 C807 1.370 . S
C806 C808 1.363 . S
C806 H822 0.931 . S
C807 C806 1.370 . S
C807 C811 1.408 . S
C808 C806 1.363 . S
C808 C809 1.370 . S
C808 C812 1.524 . S
C809 C801 1.503 . S
C809 C808 1.370 . S
C809 C810 1.403 . S
C810 C809 1.403 . S
C810 C811 1.404 . S
C810 C813 1.539 . S
C811 C807 1.408 . S
C811 C810 1.404 . S
C811 H823 0.930 . S
C812 C808 1.524 . S
C812 H824 0.956 . S
C812 H825 0.961 . S
C812 H826 0.961 . S
C813 C810 1.539 . S
C813 H827 0.958 . S
C813 H828 0.961 . S
C813 H829 0.960 . S
H814 C798 0.931 . S
H815 C803 0.929 . S
H816 C804 0.960 . S
H817 C804 0.962 . S
H818 C804 0.960 . S
H819 C805 0.961 . S
H820 C805 0.961 . S
H821 C805 0.961 . S
H822 C806 0.931 . S
H823 C811 0.930 . S
H824 C812 0.956 . S
H825 C812 0.961 . S
H826 C812 0.961 . S
H827 C813 0.958 . S
H828 C813 0.961 . S
H829 C813 0.960 . S
C830 C831 1.391 . S
C830 C832 1.394 . S
C830 H846 0.931 . S
C831 C830 1.391 . S
C831 C835 1.376 . S
C832 C830 1.394 . S
C832 C833 1.369 . S
C832 C836 1.531 . S
C833 C832 1.369 . S
C833 C834 1.410 . S
C833 C841 1.503 . S
C834 C833 1.410 . S
C834 C835 1.392 . S
C834 C837 1.511 . S
C835 C831 1.376 . S
C835 C834 1.392 . S
C835 H847 0.929 . S
C836 C832 1.531 . S
C836 H848 0.960 . S
C836 H849 0.962 . S
C836 H850 0.960 . S
C837 C834 1.511 . S
C837 H851 0.961 . S
C837 H852 0.961 . S
C837 H853 0.961 . S
C838 C839 1.370 . S
C838 C840 1.363 . S
C838 H854 0.931 . S
C839 C838 1.370 . S
C839 C843 1.408 . S
C840 C838 1.363 . S
C840 C841 1.370 . S
C840 C844 1.524 . S
C841 C833 1.503 . S
C841 C840 1.370 . S
C841 C842 1.403 . S
C842 C841 1.403 . S
C842 C843 1.404 . S
C842 C845 1.539 . S
C843 C839 1.408 . S
C843 C842 1.404 . S
C843 H855 0.930 . S
C844 C840 1.524 . S
C844 H856 0.956 . S
C844 H857 0.961 . S
C844 H858 0.961 . S
C845 C842 1.539 . S
C845 H859 0.958 . S
C845 H860 0.961 . S
C845 H861 0.960 . S
H846 C830 0.931 . S
H847 C835 0.929 . S
H848 C836 0.960 . S
H849 C836 0.962 . S
H850 C836 0.960 . S
H851 C837 0.961 . S
H852 C837 0.961 . S
H853 C837 0.961 . S
H854 C838 0.931 . S
H855 C843 0.930 . S
H856 C844 0.956 . S
H857 C844 0.961 . S
H858 C844 0.961 . S
H859 C845 0.958 . S
H860 C845 0.961 . S
H861 C845 0.960 . S
C862 C863 1.391 . S
C862 C864 1.394 . S
C862 H878 0.931 . S
C863 C862 1.391 . S
C863 C867 1.376 . S
C864 C862 1.394 . S
C864 C865 1.369 . S
C864 C868 1.531 . S
C865 C864 1.369 . S
C865 C866 1.410 . S
C865 C873 1.503 . S
C866 C865 1.410 . S
C866 C867 1.392 . S
C866 C869 1.511 . S
C867 C863 1.376 . S
C867 C866 1.392 . S
C867 H879 0.929 . S
C868 C864 1.531 . S
C868 H880 0.960 . S
C868 H881 0.962 . S
C868 H882 0.960 . S
C869 C866 1.511 . S
C869 H883 0.961 . S
C869 H884 0.961 . S
C869 H885 0.961 . S
C870 C871 1.370 . S
C870 C872 1.363 . S
C870 H886 0.931 . S
C871 C870 1.370 . S
C871 C875 1.408 . S
C872 C870 1.363 . S
C872 C873 1.370 . S
C872 C876 1.524 . S
C873 C865 1.503 . S
C873 C872 1.370 . S
C873 C874 1.403 . S
C874 C873 1.403 . S
C874 C875 1.404 . S
C874 C877 1.539 . S
C875 C871 1.408 . S
C875 C874 1.404 . S
C875 H887 0.930 . S
C876 C872 1.524 . S
C876 H888 0.956 . S
C876 H889 0.961 . S
C876 H890 0.961 . S
C877 C874 1.539 . S
C877 H891 0.958 . S
C877 H892 0.961 . S
C877 H893 0.960 . S
H878 C862 0.931 . S
H879 C867 0.929 . S
H880 C868 0.960 . S
H881 C868 0.962 . S
H882 C868 0.960 . S
H883 C869 0.961 . S
H884 C869 0.961 . S
H885 C869 0.961 . S
H886 C870 0.931 . S
H887 C875 0.930 . S
H888 C876 0.956 . S
H889 C876 0.961 . S
H890 C876 0.961 . S
H891 C877 0.958 . S
H892 C877 0.961 . S
H893 C877 0.960 . S
C894 C895 1.391 . S
C894 C896 1.394 . S
C894 H910 0.931 . S
C895 C894 1.391 . S
C895 C899 1.376 . S
C896 C894 1.394 . S
C896 C897 1.369 . S
C896 C900 1.531 . S
C897 C896 1.369 . S
C897 C898 1.410 . S
C897 C905 1.503 . S
C898 C897 1.410 . S
C898 C899 1.392 . S
C898 C901 1.511 . S
C899 C895 1.376 . S
C899 C898 1.392 . S
C899 H911 0.929 . S
C900 C896 1.531 . S
C900 H912 0.960 . S
C900 H913 0.962 . S
C900 H914 0.960 . S
C901 C898 1.511 . S
C901 H915 0.961 . S
C901 H916 0.961 . S
C901 H917 0.961 . S
C902 C903 1.370 . S
C902 C904 1.363 . S
C902 H918 0.931 . S
C903 C902 1.370 . S
C903 C907 1.408 . S
C904 C902 1.363 . S
C904 C905 1.370 . S
C904 C908 1.524 . S
C905 C897 1.503 . S
C905 C904 1.370 . S
C905 C906 1.403 . S
C906 C905 1.403 . S
C906 C907 1.404 . S
C906 C909 1.539 . S
C907 C903 1.408 . S
C907 C906 1.404 . S
C907 H919 0.930 . S
C908 C904 1.524 . S
C908 H920 0.956 . S
C908 H921 0.961 . S
C908 H922 0.961 . S
C909 C906 1.539 . S
C909 H923 0.958 . S
C909 H924 0.961 . S
C909 H925 0.960 . S
H910 C894 0.931 . S
H911 C899 0.929 . S
H912 C900 0.960 . S
H913 C900 0.962 . S
H914 C900 0.960 . S
H915 C901 0.961 . S
H916 C901 0.961 . S
H917 C901 0.961 . S
H918 C902 0.931 . S
H919 C907 0.930 . S
H920 C908 0.956 . S
H921 C908 0.961 . S
H922 C908 0.961 . S
H923 C909 0.958 . S
H924 C909 0.961 . S
H925 C909 0.960 . S
C926 C927 1.391 . S
C926 C928 1.394 . S
C926 H942 0.931 . S
C927 C926 1.391 . S
C927 C931 1.376 . S
C928 C926 1.394 . S
C928 C929 1.369 . S
C928 C932 1.531 . S
C929 C928 1.369 . S
C929 C930 1.410 . S
C929 C937 1.503 . S
C930 C929 1.410 . S
C930 C931 1.392 . S
C930 C933 1.511 . S
C931 C927 1.376 . S
C931 C930 1.392 . S
C931 H943 0.929 . S
C932 C928 1.531 . S
C932 H944 0.960 . S
C932 H945 0.962 . S
C932 H946 0.960 . S
C933 C930 1.511 . S
C933 H947 0.961 . S
C933 H948 0.961 . S
C933 H949 0.961 . S
C934 C935 1.370 . S
C934 C936 1.363 . S
C934 H950 0.931 . S
C935 C934 1.370 . S
C935 C939 1.408 . S
C936 C934 1.363 . S
C936 C937 1.370 . S
C936 C940 1.524 . S
C937 C929 1.503 . S
C937 C936 1.370 . S
C937 C938 1.403 . S
C938 C937 1.403 . S
C938 C939 1.404 . S
C938 C941 1.539 . S
C939 C935 1.408 . S
C939 C938 1.404 . S
C939 H951 0.930 . S
C940 C936 1.524 . S
C940 H952 0.956 . S
C940 H953 0.961 . S
C940 H954 0.961 . S
C941 C938 1.539 . S
C941 H955 0.958 . S
C941 H956 0.961 . S
C941 H957 0.960 . S
H942 C926 0.931 . S
H943 C931 0.929 . S
H944 C932 0.960 . S
H945 C932 0.962 . S
H946 C932 0.960 . S
H947 C933 0.961 . S
H948 C933 0.961 . S
H949 C933 0.961 . S
H950 C934 0.931 . S
H951 C939 0.930 . S
H952 C940 0.956 . S
H953 C940 0.961 . S
H954 C940 0.961 . S
H955 C941 0.958 . S
H956 C941 0.961 . S
H957 C941 0.960 . S
C958 C959 1.391 . S
C958 C960 1.394 . S
C958 H974 0.931 . S
C959 C958 1.391 . S
C959 C963 1.376 . S
C960 C958 1.394 . S
C960 C961 1.369 . S
C960 C964 1.531 . S
C961 C960 1.369 . S
C961 C962 1.410 . S
C961 C969 1.503 . S
C962 C961 1.410 . S
C962 C963 1.392 . S
C962 C965 1.511 . S
C963 C959 1.376 . S
C963 C962 1.392 . S
C963 H975 0.929 . S
C964 C960 1.531 . S
C964 H976 0.960 . S
C964 H977 0.962 . S
C964 H978 0.960 . S
C965 C962 1.511 . S
C965 H979 0.961 . S
C965 H980 0.961 . S
C965 H981 0.961 . S
C966 C967 1.370 . S
C966 C968 1.363 . S
C966 H982 0.931 . S
C967 C966 1.370 . S
C967 C971 1.408 . S
C968 C966 1.363 . S
C968 C969 1.370 . S
C968 C972 1.524 . S
C969 C961 1.503 . S
C969 C968 1.370 . S
C969 C970 1.403 . S
C970 C969 1.403 . S
C970 C971 1.404 . S
C970 C973 1.539 . S
C971 C967 1.408 . S
C971 C970 1.404 . S
C971 H983 0.930 . S
C972 C968 1.524 . S
C972 H984 0.956 . S
C972 H985 0.961 . S
C972 H986 0.961 . S
C973 C970 1.539 . S
C973 H987 0.958 . S
C973 H988 0.961 . S
C973 H989 0.960 . S
H974 C958 0.931 . S
H975 C963 0.929 . S
H976 C964 0.960 . S
H977 C964 0.962 . S
H978 C964 0.960 . S
H979 C965 0.961 . S
H980 C965 0.961 . S
H981 C965 0.961 . S
H982 C966 0.931 . S
H983 C971 0.930 . S
H984 C972 0.956 . S
H985 C972 0.961 . S
H986 C972 0.961 . S
H987 C973 0.958 . S
H988 C973 0.961 . S
H989 C973 0.960 . S
C990 C991 1.391 . S
C990 C992 1.394 . S
C990 H1006 0.931 . S
C991 C990 1.391 . S
C991 C995 1.376 . S
C992 C990 1.394 . S
C992 C993 1.369 . S
C992 C996 1.531 . S
C993 C992 1.369 . S
C993 C994 1.410 . S
C993 C1001 1.503 . S
C994 C993 1.410 . S
C994 C995 1.392 . S
C994 C997 1.511 . S
C995 C991 1.376 . S
C995 C994 1.392 . S
C995 H1007 0.929 . S
C996 C992 1.531 . S
C996 H1008 0.960 . S
C996 H1009 0.962 . S
C996 H1010 0.960 . S
C997 C994 1.511 . S
C997 H1011 0.961 . S
C997 H1012 0.961 . S
C997 H1013 0.961 . S
C998 C999 1.370 . S
C998 C1000 1.363 . S
C998 H1014 0.931 . S
C999 C998 1.370 . S
C999 C1003 1.408 . S
C1000 C998 1.363 . S
C1000 C1001 1.370 . S
C1000 C1004 1.524 . S
C1001 C993 1.503 . S
C1001 C1000 1.370 . S
C1001 C1002 1.403 . S
C1002 C1001 1.403 . S
C1002 C1003 1.404 . S
C1002 C1005 1.539 . S
C1003 C999 1.408 . S
C1003 C1002 1.404 . S
C1003 H1015 0.930 . S
C1004 C1000 1.524 . S
C1004 H1016 0.956 . S
C1004 H1017 0.961 . S
C1004 H1018 0.961 . S
C1005 C1002 1.539 . S
C1005 H1019 0.958 . S
C1005 H1020 0.961 . S
C1005 H1021 0.960 . S
H1006 C990 0.931 . S
H1007 C995 0.929 . S
H1008 C996 0.960 . S
H1009 C996 0.962 . S
H1010 C996 0.960 . S
H1011 C997 0.961 . S
H1012 C997 0.961 . S
H1013 C997 0.961 . S
H1014 C998 0.931 . S
H1015 C1003 0.930 . S
H1016 C1004 0.956 . S
H1017 C1004 0.961 . S
H1018 C1004 0.961 . S
H1019 C1005 0.958 . S
H1020 C1005 0.961 . S
H1021 C1005 0.960 . S
C1022 C1023 1.391 . S
C1022 C1024 1.394 . S
C1022 H1038 0.931 . S
C1023 C1022 1.391 . S
C1023 C1027 1.376 . S
C1024 C1022 1.394 . S
C1024 C1025 1.369 . S
C1024 C1028 1.531 . S
C1025 C1024 1.369 . S
C1025 C1026 1.410 . S
C1025 C1033 1.503 . S
C1026 C1025 1.410 . S
C1026 C1027 1.392 . S
C1026 C1029 1.511 . S
C1027 C1023 1.376 . S
C1027 C1026 1.392 . S
C1027 H1039 0.929 . S
C1028 C1024 1.531 . S
C1028 H1040 0.960 . S
C1028 H1041 0.962 . S
C1028 H1042 0.960 . S
C1029 C1026 1.511 . S
C1029 H1043 0.961 . S
C1029 H1044 0.961 . S
C1029 H1045 0.961 . S
C1030 C1031 1.370 . S
C1030 C1032 1.363 . S
C1030 H1046 0.931 . S
C1031 C1030 1.370 . S
C1031 C1035 1.408 . S
C1032 C1030 1.363 . S
C1032 C1033 1.370 . S
C1032 C1036 1.524 . S
C1033 C1025 1.503 . S
C1033 C1032 1.370 . S
C1033 C1034 1.403 . S
C1034 C1033 1.403 . S
C1034 C1035 1.404 . S
C1034 C1037 1.539 . S
C1035 C1031 1.408 . S
C1035 C1034 1.404 . S
C1035 H1047 0.930 . S
C1036 C1032 1.524 . S
C1036 H1048 0.956 . S
C1036 H1049 0.961 . S
C1036 H1050 0.961 . S
C1037 C1034 1.539 . S
C1037 H1051 0.958 . S
C1037 H1052 0.961 . S
C1037 H1053 0.960 . S
H1038 C1022 0.931 . S
H1039 C1027 0.929 . S
H1040 C1028 0.960 . S
H1041 C1028 0.962 . S
H1042 C1028 0.960 . S
H1043 C1029 0.961 . S
H1044 C1029 0.961 . S
H1045 C1029 0.961 . S
H1046 C1030 0.931 . S
H1047 C1035 0.930 . S
H1048 C1036 0.956 . S
H1049 C1036 0.961 . S
H1050 C1036 0.961 . S
H1051 C1037 0.958 . S
H1052 C1037 0.961 . S
H1053 C1037 0.960 . S
C1054 C1055 1.391 . S
C1054 C1056 1.394 . S
C1054 H1070 0.931 . S
C1055 C1054 1.391 . S
C1055 C1059 1.376 . S
C1056 C1054 1.394 . S
C1056 C1057 1.369 . S
C1056 C1060 1.531 . S
C1057 C1056 1.369 . S
C1057 C1058 1.410 . S
C1057 C1065 1.503 . S
C1058 C1057 1.410 . S
C1058 C1059 1.392 . S
C1058 C1061 1.511 . S
C1059 C1055 1.376 . S
C1059 C1058 1.392 . S
C1059 H1071 0.929 . S
C1060 C1056 1.531 . S
C1060 H1072 0.960 . S
C1060 H1073 0.962 . S
C1060 H1074 0.960 . S
C1061 C1058 1.511 . S
C1061 H1075 0.961 . S
C1061 H1076 0.961 . S
C1061 H1077 0.961 . S
C1062 C1063 1.370 . S
C1062 C1064 1.363 . S
C1062 H1078 0.931 . S
C1063 C1062 1.370 . S
C1063 C1067 1.408 . S
C1064 C1062 1.363 . S
C1064 C1065 1.370 . S
C1064 C1068 1.524 . S
C1065 C1057 1.503 . S
C1065 C1064 1.370 . S
C1065 C1066 1.403 . S
C1066 C1065 1.403 . S
C1066 C1067 1.404 . S
C1066 C1069 1.539 . S
C1067 C1063 1.408 . S
C1067 C1066 1.404 . S
C1067 H1079 0.930 . S
C1068 C1064 1.524 . S
C1068 H1080 0.956 . S
C1068 H1081 0.961 . S
C1068 H1082 0.961 . S
C1069 C1066 1.539 . S
C1069 H1083 0.958 . S
C1069 H1084 0.961 . S
C1069 H1085 0.960 . S
H1070 C1054 0.931 . S
H1071 C1059 0.929 . S
H1072 C1060 0.960 . S
H1073 C1060 0.962 . S
H1074 C1060 0.960 . S
H1075 C1061 0.961 . S
H1076 C1061 0.961 . S
H1077 C1061 0.961 . S
H1078 C1062 0.931 . S
H1079 C1067 0.930 . S
H1080 C1068 0.956 . S
H1081 C1068 0.961 . S
H1082 C1068 0.961 . S
H1083 C1069 0.958 . S
H1084 C1069 0.961 . S
H1085 C1069 0.960 . S
C1086 C1087 1.391 . S
C1086 C1088 1.394 . S
C1086 H1102 0.931 . S
C1087 C1086 1.391 . S
C1087 C1091 1.376 . S
C1088 C1086 1.394 . S
C1088 C1089 1.369 . S
C1088 C1092 1.531 . S
C1089 C1088 1.369 . S
C1089 C1090 1.410 . S
C1089 C1097 1.503 . S
C1090 C1089 1.410 . S
C1090 C1091 1.392 . S
C1090 C1093 1.511 . S
C1091 C1087 1.376 . S
C1091 C1090 1.392 . S
C1091 H1103 0.929 . S
C1092 C1088 1.531 . S
C1092 H1104 0.960 . S
C1092 H1105 0.962 . S
C1092 H1106 0.960 . S
C1093 C1090 1.511 . S
C1093 H1107 0.961 . S
C1093 H1108 0.961 . S
C1093 H1109 0.961 . S
C1094 C1095 1.370 . S
C1094 C1096 1.363 . S
C1094 H1110 0.931 . S
C1095 C1094 1.370 . S
C1095 C1099 1.408 . S
C1096 C1094 1.363 . S
C1096 C1097 1.370 . S
C1096 C1100 1.524 . S
C1097 C1089 1.503 . S
C1097 C1096 1.370 . S
C1097 C1098 1.403 . S
C1098 C1097 1.403 . S
C1098 C1099 1.404 . S
C1098 C1101 1.539 . S
C1099 C1095 1.408 . S
C1099 C1098 1.404 . S
C1099 H1111 0.930 . S
C1100 C1096 1.524 . S
C1100 H1112 0.956 . S
C1100 H1113 0.961 . S
C1100 H1114 0.961 . S
C1101 C1098 1.539 . S
C1101 H1115 0.958 . S
C1101 H1116 0.961 . S
C1101 H1117 0.960 . S
H1102 C1086 0.931 . S
H1103 C1091 0.929 . S
H1104 C1092 0.960 . S
H1105 C1092 0.962 . S
H1106 C1092 0.960 . S
H1107 C1093 0.961 . S
H1108 C1093 0.961 . S
H1109 C1093 0.961 . S
H1110 C1094 0.931 . S
H1111 C1099 0.930 . S
H1112 C1100 0.956 . S
H1113 C1100 0.961 . S
H1114 C1100 0.961 . S
H1115 C1101 0.958 . S
H1116 C1101 0.961 . S
H1117 C1101 0.960 . S
C1118 C1119 1.391 . S
C1118 C1120 1.394 . S
C1118 H1134 0.931 . S
C1119 C1118 1.391 . S
C1119 C1123 1.376 . S
C1120 C1118 1.394 . S
C1120 C1121 1.369 . S
C1120 C1124 1.531 . S
C1121 C1120 1.369 . S
C1121 C1122 1.410 . S
C1121 C1129 1.503 . S
C1122 C1121 1.410 . S
C1122 C1123 1.392 . S
C1122 C1125 1.511 . S
C1123 C1119 1.376 . S
C1123 C1122 1.392 . S
C1123 H1135 0.929 . S
C1124 C1120 1.531 . S
C1124 H1136 0.960 . S
C1124 H1137 0.962 . S
C1124 H1138 0.960 . S
C1125 C1122 1.511 . S
C1125 H1139 0.961 . S
C1125 H1140 0.961 . S
C1125 H1141 0.961 . S
C1126 C1127 1.370 . S
C1126 C1128 1.363 . S
C1126 H1142 0.931 . S
C1127 C1126 1.370 . S
C1127 C1131 1.408 . S
C1128 C1126 1.363 . S
C1128 C1129 1.370 . S
C1128 C1132 1.524 . S
C1129 C1121 1.503 . S
C1129 C1128 1.370 . S
C1129 C1130 1.403 . S
C1130 C1129 1.403 . S
C1130 C1131 1.404 . S
C1130 C1133 1.539 . S
C1131 C1127 1.408 . S
C1131 C1130 1.404 . S
C1131 H1143 0.930 . S
C1132 C1128 1.524 . S
C1132 H1144 0.956 . S
C1132 H1145 0.961 . S
C1132 H1146 0.961 . S
C1133 C1130 1.539 . S
C1133 H1147 0.958 . S
C1133 H1148 0.961 . S
C1133 H1149 0.960 . S
H1134 C1118 0.931 . S
H1135 C1123 0.929 . S
H1136 C1124 0.960 . S
H1137 C1124 0.962 . S
H1138 C1124 0.960 . S
H1139 C1125 0.961 . S
H1140 C1125 0.961 . S
H1141 C1125 0.961 . S
H1142 C1126 0.931 . S
H1143 C1131 0.930 . S
H1144 C1132 0.956 . S
H1145 C1132 0.961 . S
H1146 C1132 0.961 . S
H1147 C1133 0.958 . S
H1148 C1133 0.961 . S
H1149 C1133 0.960 . S
C1150 C1151 1.391 . S
C1150 C1152 1.394 . S
C1150 H1166 0.931 . S
C1151 C1150 1.391 . S
C1151 C1155 1.376 . S
C1152 C1150 1.394 . S
C1152 C1153 1.369 . S
C1152 C1156 1.531 . S
C1153 C1152 1.369 . S
C1153 C1154 1.410 . S
C1153 C1161 1.503 . S
C1154 C1153 1.410 . S
C1154 C1155 1.392 . S
C1154 C1157 1.511 . S
C1155 C1151 1.376 . S
C1155 C1154 1.392 . S
C1155 H1167 0.929 . S
C1156 C1152 1.531 . S
C1156 H1168 0.960 . S
C1156 H1169 0.962 . S
C1156 H1170 0.960 . S
C1157 C1154 1.511 . S
C1157 H1171 0.961 . S
C1157 H1172 0.961 . S
C1157 H1173 0.961 . S
C1158 C1159 1.370 . S
C1158 C1160 1.363 . S
C1158 H1174 0.931 . S
C1159 C1158 1.370 . S
C1159 C1163 1.408 . S
C1160 C1158 1.363 . S
C1160 C1161 1.370 . S
C1160 C1164 1.524 . S
C1161 C1153 1.503 . S
C1161 C1160 1.370 . S
C1161 C1162 1.403 . S
C1162 C1161 1.403 . S
C1162 C1163 1.404 . S
C1162 C1165 1.539 . S
C1163 C1159 1.408 . S
C1163 C1162 1.404 . S
C1163 H1175 0.930 . S
C1164 C1160 1.524 . S
C1164 H1176 0.956 . S
C1164 H1177 0.961 . S
C1164 H1178 0.961 . S
C1165 C1162 1.539 . S
C1165 H1179 0.958 . S
C1165 H1180 0.961 . S
C1165 H1181 0.960 . S
H1166 C1150 0.931 . S
H1167 C1155 0.929 . S
H1168 C1156 0.960 . S
H1169 C1156 0.962 . S
H1170 C1156 0.960 . S
H1171 C1157 0.961 . S
H1172 C1157 0.961 . S
H1173 C1157 0.961 . S
H1174 C1158 0.931 . S
H1175 C1163 0.930 . S
H1176 C1164 0.956 . S
H1177 C1164 0.961 . S
H1178 C1164 0.961 . S
H1179 C1165 0.958 . S
H1180 C1165 0.961 . S
H1181 C1165 0.960 . S
C1182 C1183 1.391 . S
C1182 C1184 1.394 . S
C1182 H1198 0.931 . S
C1183 C1182 1.391 . S
C1183 C1187 1.376 . S
C1184 C1182 1.394 . S
C1184 C1185 1.369 . S
C1184 C1188 1.531 . S
C1185 C1184 1.369 . S
C1185 C1186 1.410 . S
C1185 C1193 1.503 . S
C1186 C1185 1.410 . S
C1186 C1187 1.392 . S
C1186 C1189 1.511 . S
C1187 C1183 1.376 . S
C1187 C1186 1.392 . S
C1187 H1199 0.929 . S
C1188 C1184 1.531 . S
C1188 H1200 0.960 . S
C1188 H1201 0.962 . S
C1188 H1202 0.960 . S
C1189 C1186 1.511 . S
C1189 H1203 0.961 . S
C1189 H1204 0.961 . S
C1189 H1205 0.961 . S
C1190 C1191 1.370 . S
C1190 C1192 1.363 . S
C1190 H1206 0.931 . S
C1191 C1190 1.370 . S
C1191 C1195 1.408 . S
C1192 C1190 1.363 . S
C1192 C1193 1.370 . S
C1192 C1196 1.524 . S
C1193 C1185 1.503 . S
C1193 C1192 1.370 . S
C1193 C1194 1.403 . S
C1194 C1193 1.403 . S
C1194 C1195 1.404 . S
C1194 C1197 1.539 . S
C1195 C1191 1.408 . S
C1195 C1194 1.404 . S
C1195 H1207 0.930 . S
C1196 C1192 1.524 . S
C1196 H1208 0.956 . S
C1196 H1209 0.961 . S
C1196 H1210 0.961 . S
C1197 C1194 1.539 . S
C1197 H1211 0.958 . S
C1197 H1212 0.961 . S
C1197 H1213 0.960 . S
H1198 C1182 0.931 . S
H1199 C1187 0.929 . S
H1200 C1188 0.960 . S
H1201 C1188 0.962 . S
H1202 C1188 0.960 . S
H1203 C1189 0.961 . S
H1204 C1189 0.961 . S
H1205 C1189 0.961 . S
H1206 C1190 0.931 . S
H1207 C1195 0.930 . S
H1208 C1196 0.956 . S
H1209 C1196 0.961 . S
H1210 C1196 0.961 . S
H1211 C1197 0.958 . S
H1212 C1197 0.961 . S
H1213 C1197 0.960 . S
C1214 C1215 1.391 . S
C1214 C1216 1.394 . S
C1214 H1230 0.931 . S
C1215 C1214 1.391 . S
C1215 C1219 1.376 . S
C1216 C1214 1.394 . S
C1216 C1217 1.369 . S
C1216 C1220 1.531 . S
C1217 C1216 1.369 . S
C1217 C1218 1.410 . S
C1217 C1225 1.503 . S
C1218 C1217 1.410 . S
C1218 C1219 1.392 . S
C1218 C1221 1.511 . S
C1219 C1215 1.376 . S
C1219 C1218 1.392 . S
C1219 H1231 0.929 . S
C1220 C1216 1.531 . S
C1220 H1232 0.960 . S
C1220 H1233 0.962 . S
C1220 H1234 0.960 . S
C1221 C1218 1.511 . S
C1221 H1235 0.961 . S
C1221 H1236 0.961 . S
C1221 H1237 0.961 . S
C1222 C1223 1.370 . S
C1222 C1224 1.363 . S
C1222 H1238 0.931 . S
C1223 C1222 1.370 . S
C1223 C1227 1.408 . S
C1224 C1222 1.363 . S
C1224 C1225 1.370 . S
C1224 C1228 1.524 . S
C1225 C1217 1.503 . S
C1225 C1224 1.370 . S
C1225 C1226 1.403 . S
C1226 C1225 1.403 . S
C1226 C1227 1.404 . S
C1226 C1229 1.539 . S
C1227 C1223 1.408 . S
C1227 C1226 1.404 . S
C1227 H1239 0.930 . S
C1228 C1224 1.524 . S
C1228 H1240 0.956 . S
C1228 H1241 0.961 . S
C1228 H1242 0.961 . S
C1229 C1226 1.539 . S
C1229 H1243 0.958 . S
C1229 H1244 0.961 . S
C1229 H1245 0.960 . S
H1230 C1214 0.931 . S
H1231 C1219 0.929 . S
H1232 C1220 0.960 . S
H1233 C1220 0.962 . S
H1234 C1220 0.960 . S
H1235 C1221 0.961 . S
H1236 C1221 0.961 . S
H1237 C1221 0.961 . S
H1238 C1222 0.931 . S
H1239 C1227 0.930 . S
H1240 C1228 0.956 . S
H1241 C1228 0.961 . S
H1242 C1228 0.961 . S
H1243 C1229 0.958 . S
H1244 C1229 0.961 . S
H1245 C1229 0.960 . S
C1246 C1247 1.391 . S
C1246 C1248 1.394 . S
C1246 H1262 0.931 . S
C1247 C1246 1.391 . S
C1247 C1251 1.376 . S
C1248 C1246 1.394 . S
C1248 C1249 1.369 . S
C1248 C1252 1.531 . S
C1249 C1248 1.369 . S
C1249 C1250 1.410 . S
C1249 C1257 1.503 . S
C1250 C1249 1.410 . S
C1250 C1251 1.392 . S
C1250 C1253 1.511 . S
C1251 C1247 1.376 . S
C1251 C1250 1.392 . S
C1251 H1263 0.929 . S
C1252 C1248 1.531 . S
C1252 H1264 0.960 . S
C1252 H1265 0.962 . S
C1252 H1266 0.960 . S
C1253 C1250 1.511 . S
C1253 H1267 0.961 . S
C1253 H1268 0.961 . S
C1253 H1269 0.961 . S
C1254 C1255 1.370 . S
C1254 C1256 1.363 . S
C1254 H1270 0.931 . S
C1255 C1254 1.370 . S
C1255 C1259 1.408 . S
C1256 C1254 1.363 . S
C1256 C1257 1.370 . S
C1256 C1260 1.524 . S
C1257 C1249 1.503 . S
C1257 C1256 1.370 . S
C1257 C1258 1.403 . S
C1258 C1257 1.403 . S
C1258 C1259 1.404 . S
C1258 C1261 1.539 . S
C1259 C1255 1.408 . S
C1259 C1258 1.404 . S
C1259 H1271 0.930 . S
C1260 C1256 1.524 . S
C1260 H1272 0.956 . S
C1260 H1273 0.961 . S
C1260 H1274 0.961 . S
C1261 C1258 1.539 . S
C1261 H1275 0.958 . S
C1261 H1276 0.961 . S
C1261 H1277 0.960 . S
H1262 C1246 0.931 . S
H1263 C1251 0.929 . S
H1264 C1252 0.960 . S
H1265 C1252 0.962 . S
H1266 C1252 0.960 . S
H1267 C1253 0.961 . S
H1268 C1253 0.961 . S
H1269 C1253 0.961 . S
H1270 C1254 0.931 . S
H1271 C1259 0.930 . S
H1272 C1260 0.956 . S
H1273 C1260 0.961 . S
H1274 C1260 0.961 . S
H1275 C1261 0.958 . S
H1276 C1261 0.961 . S
H1277 C1261 0.960 . S
C1278 C1279 1.391 . S
C1278 C1280 1.394 . S
C1278 H1294 0.931 . S
C1279 C1278 1.391 . S
C1279 C1283 1.376 . S
C1280 C1278 1.394 . S
C1280 C1281 1.369 . S
C1280 C1284 1.531 . S
C1281 C1280 1.369 . S
C1281 C1282 1.410 . S
C1281 C1289 1.503 . S
C1282 C1281 1.410 . S
C1282 C1283 1.392 . S
C1282 C1285 1.511 . S
C1283 C1279 1.376 . S
C1283 C1282 1.392 . S
C1283 H1295 0.929 . S
C1284 C1280 1.531 . S
C1284 H1296 0.960 . S
C1284 H1297 0.962 . S
C1284 H1298 0.960 . S
C1285 C1282 1.511 . S
C1285 H1299 0.961 . S
C1285 H1300 0.961 . S
C1285 H1301 0.961 . S
C1286 C1287 1.370 . S
C1286 C1288 1.363 . S
C1286 H1302 0.931 . S
C1287 C1286 1.370 . S
C1287 C1291 1.408 . S
C1288 C1286 1.363 . S
C1288 C1289 1.370 . S
C1288 C1292 1.524 . S
C1289 C1281 1.503 . S
C1289 C1288 1.370 . S
C1289 C1290 1.403 . S
C1290 C1289 1.403 . S
C1290 C1291 1.404 . S
C1290 C1293 1.539 . S
C1291 C1287 1.408 . S
C1291 C1290 1.404 . S
C1291 H1303 0.930 . S
C1292 C1288 1.524 . S
C1292 H1304 0.956 . S
C1292 H1305 0.961 . S
C1292 H1306 0.961 . S
C1293 C1290 1.539 . S
C1293 H1307 0.958 . S
C1293 H1308 0.961 . S
C1293 H1309 0.960 . S
H1294 C1278 0.931 . S
H1295 C1283 0.929 . S
H1296 C1284 0.960 . S
H1297 C1284 0.962 . S
H1298 C1284 0.960 . S
H1299 C1285 0.961 . S
H1300 C1285 0.961 . S
H1301 C1285 0.961 . S
H1302 C1286 0.931 . S
H1303 C1291 0.930 . S
H1304 C1292 0.956 . S
H1305 C1292 0.961 . S
H1306 C1292 0.961 . S
H1307 C1293 0.958 . S
H1308 C1293 0.961 . S
H1309 C1293 0.960 . S
C1310 C1311 1.391 . S
C1310 C1312 1.394 . S
C1310 H1326 0.931 . S
C1311 C1310 1.391 . S
C1311 C1315 1.376 . S
C1312 C1310 1.394 . S
C1312 C1313 1.369 . S
C1312 C1316 1.531 . S
C1313 C1312 1.369 . S
C1313 C1314 1.410 . S
C1313 C1321 1.503 . S
C1314 C1313 1.410 . S
C1314 C1315 1.392 . S
C1314 C1317 1.511 . S
C1315 C1311 1.376 . S
C1315 C1314 1.392 . S
C1315 H1327 0.929 . S
C1316 C1312 1.531 . S
C1316 H1328 0.960 . S
C1316 H1329 0.962 . S
C1316 H1330 0.960 . S
C1317 C1314 1.511 . S
C1317 H1331 0.961 . S
C1317 H1332 0.961 . S
C1317 H1333 0.961 . S
C1318 C1319 1.370 . S
C1318 C1320 1.363 . S
C1318 H1334 0.931 . S
C1319 C1318 1.370 . S
C1319 C1323 1.408 . S
C1320 C1318 1.363 . S
C1320 C1321 1.370 . S
C1320 C1324 1.524 . S
C1321 C1313 1.503 . S
C1321 C1320 1.370 . S
C1321 C1322 1.403 . S
C1322 C1321 1.403 . S
C1322 C1323 1.404 . S
C1322 C1325 1.539 . S
C1323 C1319 1.408 . S
C1323 C1322 1.404 . S
C1323 H1335 0.930 . S
C1324 C1320 1.524 . S
C1324 H1336 0.956 . S
C1324 H1337 0.961 . S
C1324 H1338 0.961 . S
C1325 C1322 1.539 . S
C1325 H1339 0.958 . S
C1325 H1340 0.961 . S
C1325 H1341 0.960 . S
H1326 C1310 0.931 . S
H1327 C1315 0.929 . S
H1328 C1316 0.960 . S
H1329 C1316 0.962 . S
H1330 C1316 0.960 . S
H1331 C1317 0.961 . S
H1332 C1317 0.961 . S
H1333 C1317 0.961 . S
H1334 C1318 0.931 . S
H1335 C1323 0.930 . S
H1336 C1324 0.956 . S
H1337 C1324 0.961 . S
H1338 C1324 0.961 . S
H1339 C1325 0.958 . S
H1340 C1325 0.961 . S
H1341 C1325 0.960 . S
C583 C278 1.548 . S
C575 C23 1.511 . S
C615 C347 1.524 . S
C607 C49 1.508 . S
C647 C285 1.540 . S
C639 C87 1.519 . S
C679 C348 1.547 . S
C671 C125 1.517 . S
C711 C401 1.555 . S
C703 C29 1.554 . S
C743 C437 1.516 . S
C735 C61 1.502 . S
C767 C81 1.498 . S
C775 C497 1.536 . S
C807 C560 1.516 . S
C799 C113 1.452 . S
C839 C400 1.517 . S
C831 C55 1.513 . S
C863 C93 1.493 . S
C871 C444 1.523 . S
C903 C490 1.539 . S
C895 C119 1.507 . S
C935 C559 1.529 . S
C927 C17 1.523 . S
C959 C151 1.488 . S
C967 C338 1.546 . S
C999 C295 1.531 . S
C991 C177 1.482 . S
C1023 C215 1.535 . S
C1031 C331 1.534 . S
C1055 C253 1.495 . S
C1063 C294 1.548 . S
C1095 C506 1.558 . S
C1087 C157 1.473 . S
C1127 C550 1.517 . S
C1119 C189 1.466 . S
C1159 C384 1.542 . S
C1151 C209 1.543 . S
C1183 C241 1.480 . S
C1191 C453 1.516 . S
C1223 C507 1.516 . S
C1215 C183 1.497 . S
C1255 C543 1.529 . S
C1247 C221 1.518 . S
C1287 C391 1.535 . S
C1279 C247 1.510 . S
C1311 C145 1.507 . S
C1319 C454 1.532 . S
