# Generated by pormake.
# Topology zzz, (3,6)-cn, num edge types: 1
# Building blocks:
#     Node 0, Type 0, BuildingBlock: KAKCAD_clean_linker_0, # of connection points: 3
#     Node 1, Type 0, BuildingBlock: KAKCAD_clean_linker_0, # of connection points: 3
#     Node 2, Type 0, BuildingBlock: KAKCAD_clean_linker_0, # of connection points: 3
#     Node 3, Type 0, BuildingBlock: KAKCAD_clean_linker_0, # of connection points: 3
#     Node 4, Type 0, BuildingBlock: KAKCAD_clean_linker_0, # of connection points: 3
#     Node 5, Type 0, BuildingBlock: KAKCAD_clean_linker_0, # of connection points: 3
#     Node 6, Type 0, BuildingBlock: KAKCAD_clean_linker_0, # of connection points: 3
#     Node 7, Type 0, BuildingBlock: KAKCAD_clean_linker_0, # of connection points: 3
#     Node 8, Type 1, BuildingBlock: PAMTOO_clean_sbu_0, # of connection points: 6
#     Node 9, Type 1, BuildingBlock: PAMTOO_clean_sbu_0, # of connection points: 6
#     Node 10, Type 1, BuildingBlock: PAMTOO_clean_sbu_0, # of connection points: 6
#     Node 11, Type 1, BuildingBlock: PAMTOO_clean_sbu_0, # of connection points: 6
#     Edge 12, Type (0, 1), BuildingBlock: CIFDUS_clean_linker_0, # of connection points: 2
#     Edge 13, Type (0, 1), BuildingBlock: CIFDUS_clean_linker_0, # of connection points: 2
#     Edge 14, Type (0, 1), BuildingBlock: CIFDUS_clean_linker_0, # of connection points: 2
#     Edge 15, Type (0, 1), BuildingBlock: CIFDUS_clean_linker_0, # of connection points: 2
#     Edge 16, Type (0, 1), BuildingBlock: CIFDUS_clean_linker_0, # of connection points: 2
#     Edge 17, Type (0, 1), BuildingBlock: CIFDUS_clean_linker_0, # of connection points: 2
#     Edge 18, Type (0, 1), BuildingBlock: CIFDUS_clean_linker_0, # of connection points: 2
#     Edge 19, Type (0, 1), BuildingBlock: CIFDUS_clean_linker_0, # of connection points: 2
#     Edge 20, Type (0, 1), BuildingBlock: CIFDUS_clean_linker_0, # of connection points: 2
#     Edge 21, Type (0, 1), BuildingBlock: CIFDUS_clean_linker_0, # of connection points: 2
#     Edge 22, Type (0, 1), BuildingBlock: CIFDUS_clean_linker_0, # of connection points: 2
#     Edge 23, Type (0, 1), BuildingBlock: CIFDUS_clean_linker_0, # of connection points: 2
#     Edge 24, Type (0, 1), BuildingBlock: CIFDUS_clean_linker_0, # of connection points: 2
#     Edge 25, Type (0, 1), BuildingBlock: CIFDUS_clean_linker_0, # of connection points: 2
#     Edge 26, Type (0, 1), BuildingBlock: CIFDUS_clean_linker_0, # of connection points: 2
#     Edge 27, Type (0, 1), BuildingBlock: CIFDUS_clean_linker_0, # of connection points: 2
#     Edge 28, Type (0, 1), BuildingBlock: CIFDUS_clean_linker_0, # of connection points: 2
#     Edge 29, Type (0, 1), BuildingBlock: CIFDUS_clean_linker_0, # of connection points: 2
#     Edge 30, Type (0, 1), BuildingBlock: CIFDUS_clean_linker_0, # of connection points: 2
#     Edge 31, Type (0, 1), BuildingBlock: CIFDUS_clean_linker_0, # of connection points: 2
#     Edge 32, Type (0, 1), BuildingBlock: CIFDUS_clean_linker_0, # of connection points: 2
#     Edge 33, Type (0, 1), BuildingBlock: CIFDUS_clean_linker_0, # of connection points: 2
#     Edge 34, Type (0, 1), BuildingBlock: CIFDUS_clean_linker_0, # of connection points: 2
#     Edge 35, Type (0, 1), BuildingBlock: CIFDUS_clean_linker_0, # of connection points: 2
# Relax obj value: 0.361
# Max RMSD: 0.280
# Mean RMSD: 0.220
data_MOF--net-zzz--node1-PAMTOO_clean_sbu_0--node2-KAKCAD_clean_linker_0--edge1-CIFDUS_clean_linker_0
_symmetry_space_group_name_H-M    P1
_symmetry_Int_Tables_number       1
_symmetry_cell_setting            triclinic
loop_
_symmetry_equiv_pos_as_xyz
'x, y, z'
_cell_length_a     58.496981
_cell_length_b     50.197648
_cell_length_c     18.816372
_cell_angle_alpha  91.666812
_cell_angle_beta   81.34809
_cell_angle_gamma 84.411752
loop_
_atom_site_label
_atom_site_type_symbol
_atom_site_fract_x
_atom_site_fract_y
_atom_site_fract_z
_atom_type_partial_charge
C0 C 0.80517 0.58708 0.20546 0.0
C1 C 0.82894 0.57835 0.19934 0.0
C2 C 0.79078 0.58711 0.27212 0.0
C3 C 0.79981 0.57738 0.333 0.0
C4 C 0.82404 0.57121 0.32728 0.0
C5 C 0.83836 0.57204 0.26181 0.0
C6 C 0.78437 0.56906 0.39753 0.0
C7 C 0.76311 0.55946 0.39027 0.0
C8 C 0.7511 0.54547 0.44494 0.0
C9 C 0.76123 0.53965 0.50723 0.0
C10 C 0.78225 0.55018 0.51679 0.0
C11 C 0.79268 0.56603 0.46326 0.0
C12 C 0.79595 0.5425 0.57555 0.0
C13 C 0.8076 0.56191 0.60699 0.0
C14 C 0.80227 0.51542 0.58697 0.0
C15 C 0.82136 0.50794 0.62217 0.0
C16 C 0.83498 0.52731 0.6455 0.0
C17 C 0.72869 0.53638 0.43093 0.0
C18 C 0.71052 0.55591 0.42217 0.0
C19 C 0.72765 0.50991 0.40618 0.0
C20 C 0.70958 0.50354 0.36913 0.0
C21 C 0.6924 0.52361 0.3554 0.0
C22 C 0.69262 0.54962 0.38495 0.0
C23 C 0.82698 0.5545 0.64025 0.0
H24 H 0.79752 0.59229 0.1581 0.0
H25 H 0.7724 0.5931 0.27451 0.0
H26 H 0.83211 0.56315 0.37117 0.0
H27 H 0.85655 0.5648 0.25911 0.0
H28 H 0.75623 0.56135 0.34012 0.0
H29 H 0.80863 0.57425 0.47058 0.0
H30 H 0.75287 0.52733 0.5476 0.0
H31 H 0.80303 0.58301 0.59999 0.0
H32 H 0.79369 0.4999 0.56372 0.0
H33 H 0.82603 0.4868 0.62763 0.0
H34 H 0.71112 0.57657 0.43951 0.0
H35 H 0.74175 0.49465 0.41043 0.0
H36 H 0.83652 0.57038 0.65675 0.0
H37 H 0.67948 0.56546 0.37654 0.0
H38 H 0.70998 0.48331 0.34698 0.0
C39 C 0.07687 0.74841 0.07806 0.0
C40 C 0.08833 0.77122 0.08909 0.0
C41 C 0.06686 0.73474 0.13639 0.0
C42 C 0.06906 0.7426 0.20738 0.0
C43 C 0.08377 0.76255 0.21704 0.0
C44 C 0.09284 0.77706 0.15906 0.0
C45 C 0.05375 0.73278 0.27023 0.0
C46 C 0.0445 0.70814 0.26564 0.0
C47 C 0.02634 0.70143 0.31742 0.0
C48 C 0.01829 0.71883 0.37826 0.0
C49 C 0.02885 0.74259 0.38702 0.0
C50 C 0.04596 0.74956 0.33199 0.0
C51 C 0.02226 0.76142 0.45115 0.0
C52 C 0.99955 0.77407 0.46984 0.0
C53 C 0.0399 0.77022 0.48632 0.0
C54 C 0.03538 0.79215 0.53556 0.0
C55 C 0.01299 0.80601 0.5515 0.0
C56 C 0.01488 0.67749 0.30037 0.0
C57 C 0.99481 0.68089 0.26763 0.0
C58 C 0.02745 0.65202 0.29626 0.0
C59 C 0.02112 0.6309 0.25551 0.0
C60 C 1.00234 0.635 0.21696 0.0
C61 C 0.98864 0.65988 0.22609 0.0
C62 C 0.99496 0.79617 0.51947 0.0
H63 H 0.07407 0.74218 0.02479 0.0
H64 H 0.05602 0.71936 0.12522 0.0
H65 H 0.08713 0.7683 0.27006 0.0
H66 H 0.10179 0.79412 0.17088 0.0
H67 H 0.05054 0.69445 0.21963 0.0
H68 H 0.0523 0.769 0.33654 0.0
H69 H 1.00424 0.7138 0.41837 0.0
H70 H 0.98566 0.76787 0.44311 0.0
H71 H 0.0576 0.76092 0.47273 0.0
H72 H 0.04984 0.79911 0.55794 0.0
H73 H 0.98514 0.70047 0.26867 0.0
H74 H 0.0433 0.64909 0.31961 0.0
H75 H 0.97742 0.80601 0.53114 0.0
H76 H 0.97396 0.66358 0.1976 0.0
H77 H 0.03211 0.61207 0.2493 0.0
C78 C 0.71606 0.07711 0.05912 0.0
C79 C 0.69438 0.0912 0.08624 0.0
C80 C 0.73035 0.06579 0.10574 0.0
C81 C 0.72365 0.06892 0.18082 0.0
C82 C 0.70331 0.08569 0.20764 0.0
C83 C 0.68872 0.09641 0.16107 0.0
C84 C 0.73614 0.05221 0.2301 0.0
C85 C 0.76006 0.0444 0.21311 0.0
C86 C 0.77122 0.02506 0.2522 0.0
C87 C 0.75827 0.01425 0.31243 0.0
C88 C 0.7342 0.02252 0.33139 0.0
C89 C 0.72353 0.04131 0.2898 0.0
C90 C 0.71862 0.01021 0.38863 0.0
C91 C 0.70249 0.99371 0.36797 0.0
C92 C 0.71569 0.01978 0.46073 0.0
C93 C 0.69656 0.01366 0.51041 0.0
C94 C 0.67973 0.99806 0.48894 0.0
C95 C 0.79574 0.01507 0.22259 0.0
C96 C 0.80047 1.00231 0.15369 0.0
C97 C 0.81443 0.02302 0.25418 0.0
C98 C 0.83724 0.01944 0.21594 0.0
C99 C 0.84175 0.0081 0.14505 0.0
C100 C 0.8231 0.99883 0.11556 0.0
C101 C 0.68339 0.98777 0.41707 0.0
H102 H 0.72141 0.0734 1.00177 0.0
H103 H 0.74585 0.05309 0.08248 0.0
H104 H 0.69794 0.08935 0.265 0.0
H105 H 0.67224 0.10713 0.18455 0.0
H106 H 0.77009 0.05271 0.16738 0.0
H107 H 0.70487 0.04629 0.30225 0.0
H108 H 0.76652 0.99885 0.34198 0.0
H109 H 0.70389 0.98674 0.31228 0.0
H110 H 0.7275 0.03313 0.47772 0.0
H111 H 0.69469 0.02174 0.56518 0.0
H112 H 0.78636 0.99628 0.12767 0.0
H113 H 0.81123 0.03343 0.3065 0.0
H114 H 0.67082 0.97623 0.39709 0.0
H115 H 0.82589 0.98955 0.06185 0.0
H116 H 0.85112 0.0269 0.24037 0.0
C117 C 0.51823 0.70363 0.525 0.0
C118 C 0.53397 0.68039 0.50785 0.0
C119 C 0.51444 0.72221 0.47258 0.0
C120 C 0.52651 0.71816 0.4022 0.0
C121 C 0.54377 0.69641 0.38688 0.0
C122 C 0.5475 0.67777 0.43902 0.0
C123 C 0.51623 0.73024 0.34171 0.0
C124 C 0.52065 0.75556 0.31532 0.0
C125 C 0.51066 0.76495 0.25548 0.0
C126 C 0.49707 0.74836 0.22147 0.0
C127 C 0.49309 0.7229 0.24652 0.0
C128 C 0.50209 0.7146 0.30807 0.0
C129 C 0.4813 0.70386 0.20586 0.0
C130 C 0.46251 0.71254 0.17048 0.0
C131 C 0.4895 0.67648 0.2006 0.0
C132 C 0.47922 0.65828 0.16174 0.0
C133 C 0.46068 0.66689 0.1258 0.0
C134 C 0.51483 0.79137 0.22462 0.0
C135 C 0.49587 0.80918 0.21237 0.0
C136 C 0.53744 0.7974 0.19832 0.0
C137 C 0.54091 0.82004 0.15734 0.0
C138 C 0.52186 0.83734 0.14278 0.0
C139 C 0.49934 0.83195 0.17247 0.0
C140 C 0.4524 0.69422 0.13027 0.0
H141 H 0.50782 0.70669 0.57779 0.0
H142 H 0.50069 0.73848 0.48539 0.0
H143 H 0.55288 0.69245 0.33249 0.0
H144 H 0.55963 0.66016 0.4232 0.0
H145 H 0.53164 0.76777 0.34091 0.0
H146 H 0.49856 0.69534 0.32952 0.0
H147 H 0.49051 0.7549 0.17328 0.0
H148 H 0.45567 0.73345 0.17367 0.0
H149 H 0.50441 0.66904 0.22477 0.0
H150 H 0.4865 0.63749 0.15737 0.0
H151 H 0.47825 0.80494 0.23168 0.0
H152 H 0.55235 0.78389 0.20626 0.0
H153 H 0.43824 0.70137 0.1024 0.0
H154 H 0.48426 0.84463 0.16191 0.0
H155 H 0.5585 0.82372 0.13575 0.0
C156 C 0.17722 0.43141 0.29652 0.0
C157 C 0.1602 0.41994 0.26405 0.0
C158 C 0.19938 0.43268 0.25778 0.0
C159 C 0.20473 0.42227 0.18642 0.0
C160 C 0.18894 0.40668 0.15934 0.0
C161 C 0.16662 0.40596 0.19739 0.0
C162 C 0.2227 0.43391 0.13579 0.0
C163 C 0.24412 0.43917 0.15502 0.0
C164 C 0.25873 0.45523 0.11265 0.0
C165 C 0.25166 0.46626 0.04998 0.0
C166 C 0.23041 0.46034 0.02948 0.0
C167 C 0.21639 0.44415 0.07233 0.0
C168 C 0.22063 0.47151 0.96697 0.0
C169 C 0.20529 0.49515 0.97785 0.0
C170 C 0.21914 0.45383 0.90897 0.0
C171 C 0.20105 0.45806 0.86821 0.0
C172 C 0.18409 0.48014 0.88438 0.0
C173 C 0.28053 0.46118 0.13847 0.0
C174 C 0.28139 0.48537 0.17687 0.0
C175 C 0.29884 0.44077 0.13686 0.0
C176 C 0.31736 0.44418 0.17456 0.0
C177 C 0.31775 0.46789 0.216 0.0
C178 C 0.29976 0.48867 0.21544 0.0
C179 C 0.18723 0.49951 0.93667 0.0
H180 H 0.17254 0.4424 0.34791 0.0
H181 H 0.21112 0.44473 0.28044 0.0
H182 H 0.19283 0.39784 0.10511 0.0
H183 H 0.15372 0.39694 0.1716 0.0
H184 H 0.24907 0.43162 0.20454 0.0
H185 H 0.19951 0.44104 0.05805 0.0
H186 H 0.26247 0.47921 0.01799 0.0
H187 H 0.20562 0.50873 0.02343 0.0
H188 H 0.23035 0.43516 0.90043 0.0
H189 H 0.19926 0.44291 0.82779 0.0
H190 H 0.26723 0.50119 0.18009 0.0
H191 H 0.29831 0.42173 0.10887 0.0
H192 H 0.17443 0.51665 0.95069 0.0
H193 H 0.29961 0.50727 0.24628 0.0
H194 H 0.33077 0.42768 0.17427 0.0
C195 C 0.08991 0.21018 0.31286 0.0
C196 C 0.10095 0.18638 0.27634 0.0
C197 C 0.08788 0.23389 0.27668 0.0
C198 C 0.09663 0.23424 0.20313 0.0
C199 C 0.11097 0.21183 0.17 0.0
C200 C 0.11327 0.18809 0.20659 0.0
C201 C 0.08526 0.25405 0.15924 0.0
C202 C 0.08007 0.2809 0.18336 0.0
C203 C 0.06302 0.29775 0.15619 0.0
C204 C 0.05098 0.28706 0.10378 0.0
C205 C 0.05697 0.26035 0.07672 0.0
C206 C 0.07443 0.24442 0.10372 0.0
C207 C 0.0433 0.24642 0.02945 0.0
C208 C 0.02089 0.24029 0.05751 0.0
C209 C 0.05496 0.23245 0.96647 0.0
C210 C 0.04542 0.2111 0.93618 0.0
C211 C 0.02403 0.20311 0.9685 0.0
C212 C 0.05658 0.32524 0.19018 0.0
C213 C 0.03322 0.33484 0.2144 0.0
C214 C 0.07408 0.34043 0.20816 0.0
C215 C 0.06851 0.36334 0.25387 0.0
C216 C 0.04527 0.37191 0.28207 0.0
C217 C 0.02762 0.35801 0.25974 0.0
C218 C 0.01135 0.21883 0.02739 0.0
H219 H 0.08024 0.21007 0.36658 0.0
H220 H 0.07679 0.25082 0.30399 0.0
H221 H 0.11834 0.21179 0.11362 0.0
H222 H 0.12276 0.17046 0.17771 0.0
H223 H 0.08809 0.28806 0.22762 0.0
H224 H 0.07766 0.22336 0.0869 0.0
H225 H 0.03698 0.29921 0.08484 0.0
H226 H 0.01168 0.25041 0.1067 0.0
H227 H 0.07244 0.23647 0.94451 0.0
H228 H 0.05577 0.19949 0.89114 0.0
H229 H 0.01933 0.32355 0.20215 0.0
H230 H 0.09224 0.33387 0.18944 0.0
H231 H 0.99464 0.21355 0.05291 0.0
H232 H 1.00954 0.36414 0.28071 0.0
H233 H 0.08246 0.37392 0.26901 0.0
C234 C 0.30714 0.91986 0.44425 0.0
C235 C 0.31305 0.93483 0.50208 0.0
C236 C 0.29253 0.93172 0.39923 0.0
C237 C 0.28304 0.95842 0.41264 0.0
C238 C 0.28715 0.97266 0.47374 0.0
C239 C 0.30215 0.96106 0.51784 0.0
C240 C 0.2716 0.97265 0.35825 0.0
C241 C 0.24834 0.983 0.37368 0.0
C242 C 0.23793 0.99845 0.32404 0.0
C243 C 0.25152 0.00427 0.25828 0.0
C244 C 0.27525 0.99368 0.24231 0.0
C245 C 0.2848 0.97772 0.29279 0.0
C246 C 0.29139 0.99953 0.17628 0.0
C247 C 0.30598 0.97834 0.1375 0.0
C248 C 0.29604 0.02589 0.16111 0.0
C249 C 0.31581 0.0308 0.1124 0.0
C250 C 0.33149 0.00946 0.07779 0.0
C251 C 0.21284 0.00783 0.34507 0.0
C252 C 0.19611 0.99055 0.33355 0.0
C253 C 0.20628 0.02957 0.39504 0.0
C254 C 0.18395 0.033 0.4358 0.0
C255 C 0.16764 0.0146 0.42818 0.0
C256 C 0.17374 0.99397 0.37428 0.0
C257 C 0.3257 0.98318 0.08935 0.0
H258 H 0.3147 0.89941 0.43153 0.0
H259 H 0.28939 0.92044 0.35232 0.0
H260 H 0.28006 0.9934 0.48445 0.0
H261 H 0.30643 0.97343 0.56108 0.0
H262 H 0.23826 0.97902 0.42486 0.0
H263 H 0.30306 0.97013 0.28264 0.0
H264 H 0.24377 0.01665 0.22022 0.0
H265 H 0.30297 0.95777 0.14814 0.0
H266 H 0.28532 0.04267 0.19046 0.0
H267 H 0.31923 0.05137 0.10398 0.0
H268 H 0.20091 0.97313 0.29708 0.0
H269 H 0.21899 0.04278 0.4064 0.0
H270 H 0.33717 0.96607 0.06487 0.0
H271 H 0.16183 0.97925 0.36704 0.0
H272 H 0.17984 0.04941 0.47576 0.0
C273 C 0.4773 0.31288 0.10372 0.0
C274 C 0.49634 0.31494 0.04951 0.0
C275 C 0.47819 0.29275 0.15382 0.0
C276 C 0.49803 0.27423 0.15028 0.0
C277 C 0.51574 0.27435 0.09101 0.0
C278 C 0.51492 0.29447 0.04114 0.0
C279 C 0.50437 0.26379 0.21837 0.0
C280 C 0.49851 0.23913 0.24655 0.0
C281 C 0.50427 0.232 0.31444 0.0
C282 C 0.516 0.24952 0.35249 0.0
C283 C 0.52185 0.27396 0.32457 0.0
C284 C 0.516 0.28073 0.25758 0.0
C285 C 0.53183 0.29401 0.36733 0.0
C286 C 0.52308 0.29925 0.44068 0.0
C287 C 0.54775 0.31062 0.3329 0.0
C288 C 0.55296 0.33343 0.36888 0.0
C289 C 0.54277 0.33973 0.44044 0.0
C290 C 0.49737 0.20732 0.35014 0.0
C291 C 0.48304 0.20992 0.41742 0.0
C292 C 0.50836 0.18184 0.32555 0.0
C293 C 0.50637 0.15982 0.37001 0.0
C294 C 0.49348 0.16304 0.43981 0.0
C295 C 0.48108 0.18809 0.46156 0.0
C296 C 0.5286 0.32186 0.47698 0.0
H297 H 0.46277 0.32833 0.11189 0.0
H298 H 0.46457 0.29358 0.19999 0.0
H299 H 0.53146 0.26073 0.08781 0.0
H300 H 0.52972 0.29526 0.99935 0.0
H301 H 0.48915 0.2261 0.2172 0.0
H302 H 0.51959 0.30004 0.23658 0.0
H303 H 0.52036 0.24413 0.40458 0.0
H304 H 0.51065 0.28705 0.46874 0.0
H305 H 0.55524 0.30676 0.27687 0.0
H306 H 0.56414 0.34679 0.3399 0.0
H307 H 0.47446 0.22934 0.43778 0.0
H308 H 0.51976 0.1794 0.2743 0.0
H309 H 0.5204 0.32641 0.53213 0.0
H310 H 0.47077 0.19117 0.51456 0.0
H311 H 0.51619 0.14081 0.35183 0.0
Dy312 Dy 0.98624 0.01954 0.69273 0.0
Dy313 Dy 0.01335 0.99842 0.82172 0.0
C314 C 0.04136 0.00635 0.66384 0.0
O315 O 0.97908 0.97692 0.70218 0.0
O316 O 0.01189 0.96252 0.7484 0.0
O317 O 0.97833 0.01552 0.58457 0.0
O318 O 0.96547 0.05148 0.65044 0.0
O319 O 0.97569 1.00003 0.87179 0.0
O320 O 0.9574 0.02155 0.78597 0.0
O321 O 1.00244 0.04199 0.84798 0.0
O322 O 1.0051 0.05266 0.73099 0.0
O323 O 0.01711 0.97217 0.90856 0.0
O324 O 0.04218 1.00066 0.8807 0.0
C325 C 0.99455 0.95753 0.71446 0.0
O326 O 0.0219 0.00437 0.63855 0.0
O327 O 0.04146 0.00867 0.7336 0.0
C328 C 0.98487 0.05722 0.5339 0.0
C329 C 0.02006 0.08779 0.47255 0.0
C330 C 0.02176 0.06016 0.45632 0.0
C331 C 1.00432 0.04498 0.48674 0.0
C332 C 0.98219 0.08525 0.54408 0.0
C333 C 0.99972 0.10037 0.51417 0.0
C334 C 0.97098 0.04096 0.58501 0.0
C335 C 0.95682 0.01122 0.84968 0.0
C336 C 1.00466 0.05987 0.79873 0.0
C337 C 0.05578 0.95857 0.91855 0.0
C338 C 0.08555 0.91181 0.92786 0.0
C339 C 0.07733 0.91761 0.86296 0.0
C340 C 0.06254 0.94086 0.85832 0.0
C341 C 0.06531 0.95394 0.98149 0.0
C342 C 0.08018 0.93075 0.98609 0.0
C343 C 0.03701 0.98011 0.91846 0.0
H344 H 0.03721 0.05006 0.42384 0.0
H345 H 1.00698 0.02343 0.47738 0.0
H346 H 0.96739 0.09529 0.57972 0.0
H347 H 0.99777 0.1218 0.52589 0.0
H348 H 0.08126 0.90342 0.81723 0.0
H349 H 0.05537 0.94429 0.80912 0.0
H350 H 0.06023 0.96746 0.02836 0.0
H351 H 0.08599 0.92668 0.03708 0.0
Dy352 Dy 0.50646 0.97668 0.74268 0.0
Dy353 Dy 0.50969 0.02663 0.85567 0.0
C354 C 0.50082 0.03757 0.69498 0.0
O355 O 0.54234 0.98763 0.70718 0.0
O356 O 0.54689 0.01497 0.80364 0.0
O357 O 0.50561 0.95926 0.63664 0.0
O358 O 0.50371 0.93441 0.72889 0.0
O359 O 0.50404 0.99004 0.91857 0.0
O360 O 0.52383 0.96033 0.83299 0.0
O361 O 0.47118 0.02477 0.8631 0.0
O362 O 0.47122 0.98274 0.81091 0.0
O363 O 0.52182 0.03987 0.95193 0.0
O364 O 0.50192 0.06805 0.89375 0.0
C365 C 0.55527 1.00166 0.74215 0.0
O366 O 0.4933 0.01378 0.69046 0.0
O367 O 0.51149 0.04441 0.74819 0.0
C368 C 0.4808 0.92481 0.63982 0.0
C369 C 0.43948 0.90926 0.59847 0.0
C370 C 0.44297 0.90833 0.67069 0.0
C371 C 0.46336 0.91616 0.69126 0.0
C372 C 0.4779 0.92435 0.56724 0.0
C373 C 0.45742 0.9168 0.54675 0.0
C374 C 0.50125 0.93599 0.66143 0.0
C375 C 0.51508 0.96629 0.90046 0.0
C376 C 0.4603 0.00395 0.84874 0.0
C377 C 0.53249 0.08336 0.94709 0.0
C378 C 0.57256 0.10869 0.96008 0.0
C379 C 0.56915 0.09813 0.89282 0.0
C380 C 0.54929 0.08544 0.88645 0.0
C381 C 0.53486 0.09578 0.01276 0.0
C382 C 0.55473 0.10844 0.01924 0.0
C383 C 0.51463 0.06496 0.94488 0.0
H384 H 0.4297 0.90222 0.71171 0.0
H385 H 0.4651 0.91614 0.74775 0.0
H386 H 0.49112 0.93086 0.52664 0.0
H387 H 0.45525 0.91816 0.49079 0.0
H388 H 0.58247 0.09823 0.84616 0.0
H389 H 0.54773 0.07586 0.83529 0.0
H390 H 0.5221 0.09417 0.06013 0.0
H391 H 0.55691 0.11607 0.07196 0.0
Dy392 Dy 0.52212 0.50642 0.84257 0.0
Dy393 Dy 0.47592 0.50226 0.75313 0.0
C394 C 0.49 0.45618 0.85936 0.0
O395 O 0.53183 0.47139 0.76545 0.0
O396 O 0.50774 0.48276 0.68236 0.0
O397 O 0.53318 0.50856 0.94661 0.0
O398 O 0.55887 0.50963 0.84898 0.0
O399 O 0.48635 0.54382 0.74795 0.0
O400 O 0.52517 0.53689 0.75639 0.0
O401 O 0.46097 0.52099 0.86161 0.0
O402 O 0.49397 0.53742 0.89128 0.0
O403 O 0.46171 0.51302 0.65713 0.0
O404 O 0.44112 0.49289 0.74105 0.0
C405 C 0.52524 0.46787 0.70247 0.0
O406 O 0.50369 0.47177 0.88679 0.0
O407 O 0.47956 0.46263 0.80395 0.0
C408 C 0.57309 0.51159 0.96635 0.0
C409 C 0.60686 0.51678 0.05869 0.0
C410 C 0.58504 0.50841 0.08512 0.0
C411 C 0.56837 0.50596 0.03965 0.0
C412 C 0.59506 0.51934 0.93935 0.0
C413 C 0.6117 0.52201 0.985 0.0
C414 C 0.55489 0.50993 0.91938 0.0
C415 C 0.50735 0.55157 0.7372 0.0
C416 C 0.47138 0.53667 0.90061 0.0
C417 C 0.42909 0.49254 0.62308 0.0
C418 C 0.39844 0.48303 0.52322 0.0
C419 C 0.41998 0.49277 0.50034 0.0
C420 C 0.43506 0.49758 0.54968 0.0
C421 C 0.40818 0.48138 0.64506 0.0
C422 C 0.39312 0.47661 0.59584 0.0
C423 C 0.44198 0.50341 0.6781 0.0
H424 H 0.58058 0.50446 0.14153 0.0
H425 H 0.55163 0.49987 0.06224 0.0
H426 H 0.59928 0.52376 0.88318 0.0
H427 H 0.6284 0.52822 0.96253 0.0
H428 H 0.42464 0.49812 0.44509 0.0
H429 H 0.45084 0.50655 0.53084 0.0
H430 H 0.40286 0.47755 0.70117 0.0
H431 H 0.37689 0.46864 0.61528 0.0
Dy432 Dy 0.01511 0.53255 0.68655 0.0
Dy433 Dy 1.00756 0.48424 0.79393 0.0
C434 C 0.02552 0.47125 0.63174 0.0
O435 O 0.9775 0.53789 0.7345 0.0
O436 O 0.97556 0.49333 0.74196 0.0
O437 O 1.00022 0.55778 0.61038 0.0
O438 O 0.03645 0.55812 0.62065 0.0
O439 O 0.99833 0.52189 0.86526 0.0
O440 O 0.01222 0.55469 0.79191 0.0
O441 O 0.04479 0.48886 0.79796 0.0
O442 O 0.0509 0.52135 0.71458 0.0
O443 O 1.00607 0.46603 0.89688 0.0
O444 O 0.99395 0.44584 0.80868 0.0
C445 C 0.96515 0.51748 0.73897 0.0
O446 O 0.01398 0.49428 0.6226 0.0
O447 O 0.02981 0.46518 0.69582 0.0
C448 C 0.02765 0.55369 0.50405 0.0
C449 C 0.0513 0.52144 0.38644 0.0
C450 C 0.02943 0.51564 0.41969 0.0
C451 C 0.01758 0.53173 0.47787 0.0
C452 C 0.04818 0.5613 0.46502 0.0
C453 C 0.05995 0.54525 0.40629 0.0
C454 C 0.0206 0.56332 0.5797 0.0
C455 C 1.00375 0.54658 0.85545 0.0
C456 C 0.05836 0.50463 0.76102 0.0
C457 C 0.96862 0.45278 0.91922 0.0
C458 C 0.92996 0.48692 0.98476 0.0
C459 C 0.94675 0.47656 0.02564 0.0
C460 C 0.9659 0.45941 0.99317 0.0
C461 C 0.94986 0.45958 0.88179 0.0
C462 C 0.93074 0.47676 0.91421 0.0
C463 C 0.99238 0.44882 0.8785 0.0
H464 H 0.02247 0.49745 0.40455 0.0
H465 H 1.00172 0.52531 0.50652 0.0
H466 H 0.05632 0.57801 0.48432 0.0
H467 H 0.07693 0.54994 0.38131 0.0
H468 H 0.94605 0.48345 0.08111 0.0
H469 H 0.97994 0.45425 0.02346 0.0
H470 H 0.95114 0.45447 0.82491 0.0
H471 H 0.91784 0.4841 0.88182 0.0
H472 H 0.12403 0.00496 0.40198 0.0
H473 H 0.16129 0.02538 0.5738 0.0
H474 H 0.12612 0.02454 0.66126 0.0
H475 H 0.08466 0.01709 0.69041 0.0
H476 H 0.04744 0.99696 0.5181 0.0
H477 H 0.08248 0.99833 0.43072 0.0
C478 C 0.12451 0.00919 0.45854 0.0
C479 C 0.14546 0.01537 0.48063 0.0
C480 C 0.10411 0.00853 0.50913 0.0
C481 C 0.14547 0.02104 0.55445 0.0
C482 C 0.12533 0.02032 0.60491 0.0
C483 C 0.08421 0.01288 0.63382 0.0
C484 C 0.06329 0.00671 0.61152 0.0
C485 C 0.10454 0.01395 0.58308 0.0
C486 C 0.06317 1.00163 0.5375 0.0
C487 C 0.08328 1.00245 0.48711 0.0
H488 H 0.48775 0.10914 0.42665 0.0
H489 H 0.50362 0.16958 0.57429 0.0
H490 H 0.50696 0.13649 0.66513 0.0
H491 H 0.50569 0.09069 0.70343 0.0
H492 H 0.48889 0.02941 0.56009 0.0
H493 H 0.48549 0.06238 0.46745 0.0
C494 C 0.49194 0.11496 0.47873 0.0
C495 C 0.49525 0.14193 0.49367 0.0
C496 C 0.49363 0.09569 0.53171 0.0
C497 C 0.50063 0.14914 0.56158 0.0
C498 C 0.50265 0.13018 0.6136 0.0
C499 C 0.50127 0.0844 0.65198 0.0
C500 C 0.49766 0.05747 0.63892 0.0
C501 C 0.49918 0.10345 0.59939 0.0
C502 C 0.49173 0.04997 0.57192 0.0
C503 C 0.48985 0.06884 0.51875 0.0
H504 H 0.31182 0.4864 0.35587 0.0
H505 H 0.36477 0.45386 0.18235 0.0
H506 H 0.39438 0.45554 0.26112 0.0
H507 H 0.4052 0.46567 0.38059 0.0
H508 H 0.35175 0.4979 0.55353 0.0
H509 H 0.32256 0.49676 0.47413 0.0
C510 C 0.32988 0.47998 0.33496 0.0
C511 C 0.33601 0.47016 0.26301 0.0
C512 C 0.34678 0.4807 0.38085 0.0
C513 C 0.35949 0.46141 0.23748 0.0
C514 C 0.37646 0.4624 0.28255 0.0
C515 C 0.38719 0.47255 0.40084 0.0
C516 C 0.38079 0.48164 0.47349 0.0
C517 C 0.37031 0.47188 0.35456 0.0
C518 C 0.35725 0.49028 0.49855 0.0
C519 C 0.34049 0.48986 0.45291 0.0
H520 H 0.0651 0.37722 0.40229 0.0
H521 H 0.0126 0.41541 0.29032 0.0
H522 H 1.00244 0.45018 0.38726 0.0
H523 H 1.00756 0.46868 0.50633 0.0
H524 H 0.05907 0.42903 0.61976 0.0
H525 H 0.0704 0.39578 0.52017 0.0
C526 C 0.0516 0.39332 0.39875 0.0
C527 C 0.03968 0.3938 0.33902 0.0
C528 C 0.04553 0.41283 0.45533 0.0
C529 C 0.02196 0.41454 0.33583 0.0
C530 C 0.01617 0.43442 0.39121 0.0
C531 C 0.02142 0.45291 0.50888 0.0
C532 C 0.03251 0.45142 0.57037 0.0
C533 C 0.02769 0.43362 0.45159 0.0
C534 C 0.05017 0.43059 0.57333 0.0
C535 C 0.0567 0.41158 0.51631 0.0
H536 H 0.85203 0.02032 1.00428 0.0
H537 H 0.88474 0.99449 0.18465 0.0
H538 H 0.92307 0.99308 0.11027 0.0
H539 H 0.94746 0.99884 0.99267 0.0
H540 H 0.91388 0.02542 0.81414 0.0
H541 H 0.87602 0.02658 0.88874 0.0
C542 C 0.8675 0.0141 0.02734 0.0
C543 C 0.86533 0.00728 0.1001 0.0
C544 C 0.88949 0.01346 0.98433 0.0
C545 C 0.88576 0.99994 0.12908 0.0
C546 C 0.90773 0.99903 0.08637 0.0
C547 C 0.93188 0.00487 0.97 0.0
C548 C 0.93378 0.01199 0.89732 0.0
C549 C 0.90985 0.00571 0.01373 0.0
C550 C 0.91322 0.01988 0.86955 0.0
C551 C 0.89142 0.02052 0.91228 0.0
H552 H 0.5007 0.88866 0.15954 0.0
H553 H 0.55022 0.83637 0.01288 0.0
H554 H 0.5532 0.87161 0.92589 0.0
H555 H 0.54017 0.91673 0.88853 0.0
H556 H 0.49111 0.96908 0.03695 0.0
H557 H 0.48952 0.93452 0.12537 0.0
C558 C 0.51221 0.88501 0.10863 0.0
C559 C 0.52516 0.8598 0.0929 0.0
C560 C 0.51384 0.9054 0.0587 0.0
C561 C 0.54021 0.8556 0.02691 0.0
C562 C 0.5418 0.87572 0.9768 0.0
C563 C 0.52924 0.92065 0.94037 0.0
C564 C 0.5157 0.94555 0.95555 0.0
C565 C 0.52848 0.90062 0.99166 0.0
C566 C 0.50176 0.95021 0.02341 0.0
C567 C 0.50077 0.93038 0.07419 0.0
H568 H 0.68036 0.55401 0.24672 0.0
H569 H 0.66672 0.48066 0.35131 0.0
H570 H 0.63928 0.47188 0.26904 0.0
H571 H 0.61896 0.48528 0.16715 0.0
H572 H 0.63337 0.55852 0.06263 0.0
H573 H 0.66066 0.567 0.14471 0.0
C574 C 0.67121 0.53622 0.25209 0.0
C575 C 0.67546 0.51817 0.30585 0.0
C576 C 0.65564 0.53119 0.20417 0.0
C577 C 0.66384 0.49489 0.31057 0.0
C578 C 0.6481 0.4899 0.26357 0.0
C579 C 0.628 0.50315 0.16251 0.0
C580 C 0.62404 0.5212 0.10835 0.0
C581 C 0.64382 0.50793 0.21012 0.0
C582 C 0.63621 0.54407 0.10284 0.0
C583 C 0.65175 0.54905 0.1502 0.0
H584 H 0.99656 0.64429 0.0794 0.0
H585 H 1.00207 0.58043 0.22608 0.0
H586 H 1.00114 0.54734 0.1283 0.0
H587 H 1.00137 0.5365 0.99874 0.0
H588 H 0.99828 0.60095 0.85244 0.0
H589 H 0.99538 0.63374 0.9523 0.0
C590 C 0.99708 0.62316 0.09039 0.0
C591 C 0.99918 0.61489 0.16017 0.0
C592 C 0.99715 0.60429 0.03362 0.0
C593 C 1.00043 0.58735 0.17291 0.0
C594 C 0.99993 0.56843 0.11695 0.0
C595 C 0.99981 0.55773 0.98889 0.0
C596 C 1.00016 0.56619 0.91792 0.0
C597 C 0.99869 0.57663 0.0467 0.0
C598 C 0.99827 0.59381 0.90621 0.0
C599 C 0.99657 0.61263 0.96339 0.0
H600 H 0.0928 0.17159 0.41639 0.0
H601 H 0.09389 0.14174 0.19797 0.0
H602 H 0.07156 0.10574 0.24152 0.0
H603 H 0.04487 0.0884 0.33867 0.0
H604 H 0.0396 0.12177 0.55496 0.0
H605 H 0.06944 0.15124 0.51506 0.0
C606 C 0.08835 0.1571 0.37819 0.0
C607 C 0.0946 0.16008 0.30384 0.0
C608 C 0.07394 0.13751 0.40311 0.0
C609 C 0.0895 0.14027 0.25557 0.0
C610 C 0.07626 0.1198 0.28033 0.0
C611 C 0.05058 0.10184 0.37709 0.0
C612 C 0.03979 0.10342 0.44914 0.0
C613 C 0.0673 0.11917 0.35348 0.0
C614 C 0.04732 0.12077 0.49874 0.0
C615 C 0.06447 0.13746 0.47609 0.0
H616 H 0.35285 0.9046 0.44257 0.0
H617 H 0.31834 0.94319 0.64377 0.0
H618 H 0.35439 0.93613 0.69428 0.0
H619 H 0.39665 0.925 0.67467 0.0
H620 H 0.43051 0.88442 0.47543 0.0
H621 H 0.39332 0.88589 0.43129 0.0
C622 C 0.35281 0.91066 0.49834 0.0
C623 C 0.33291 0.92495 0.53863 0.0
C624 C 0.37354 0.90652 0.52711 0.0
C625 C 0.33353 0.93282 0.61067 0.0
C626 C 0.35413 0.92872 0.63975 0.0
C627 C 0.39589 0.91568 0.62248 0.0
C628 C 0.4165 0.90514 0.57781 0.0
C629 C 0.37444 0.91653 0.59742 0.0
C630 C 0.41504 0.89336 0.51013 0.0
C631 C 0.39377 0.89408 0.48494 0.0
H632 H 0.55447 0.35116 0.57149 0.0
H633 H 0.53335 0.38795 0.38433 0.0
H634 H 0.52849 0.43201 0.44648 0.0
H635 H 0.52554 0.45905 0.55904 0.0
H636 H 0.54716 0.4223 0.74596 0.0
H637 H 0.55686 0.37944 0.67874 0.0
C638 C 0.54922 0.36895 0.54414 0.0
C639 C 0.54411 0.36641 0.47389 0.0
C640 C 0.5464 0.39419 0.58025 0.0
C641 C 0.5375 0.38951 0.43841 0.0
C642 C 0.53455 0.41466 0.47405 0.0
C643 C 0.53279 0.44177 0.58457 0.0
C644 C 0.53538 0.4438 0.65747 0.0
C645 C 0.53826 0.41711 0.54572 0.0
C646 C 0.54503 0.42132 0.68976 0.0
C647 C 0.55043 0.39671 0.65155 0.0
H648 H 0.1337 0.45278 0.19436 0.0
H649 H 0.13298 0.41061 0.39065 0.0
H650 H 0.09585 0.43607 0.44116 0.0
H651 H 0.06725 0.4749 0.43559 0.0
H652 H 0.07175 0.52148 0.24619 0.0
H653 H 0.10361 0.48952 0.18556 0.0
C654 C 0.1249 0.44856 0.24723 0.0
C655 C 0.13565 0.42968 0.28864 0.0
C656 C 0.10444 0.4643 0.27699 0.0
C657 C 0.1247 0.42482 0.35784 0.0
C658 C 0.10362 0.43948 0.38665 0.0
C659 C 0.07484 0.47751 0.38028 0.0
C660 C 0.06723 0.50017 0.34464 0.0
C661 C 0.09383 0.45993 0.34769 0.0
C662 C 0.07738 0.50399 0.2739 0.0
C663 C 0.09558 0.48582 0.23964 0.0
H664 H 0.12088 0.80781 0.06882 0.0
H665 H 0.06257 0.78084 0.97982 0.0
H666 H 0.06089 0.81974 0.90827 0.0
H667 H 0.06943 0.86571 0.89211 0.0
H668 H 0.12327 0.89657 0.99394 0.0
H669 H 0.13267 0.85243 0.04062 0.0
C670 C 0.10778 0.81029 0.03386 0.0
C671 C 0.09156 0.79131 0.0321 0.0
C672 C 0.10567 0.83393 0.99608 0.0
C673 C 0.07552 0.79459 0.98318 0.0
C674 C 0.07423 0.81725 0.94251 0.0
C675 C 0.08379 0.86258 0.92234 0.0
C676 C 0.09554 0.88436 0.94003 0.0
C677 C 0.08831 0.83766 0.9516 0.0
C678 C 0.11386 0.88009 0.98024 0.0
C679 C 0.11916 0.8549 1.00708 0.0
H680 H 0.66003 0.13327 0.09559 0.0
H681 H 0.68752 0.0605 0.97023 0.0
H682 H 0.65384 0.06318 0.90934 0.0
H683 H 0.61368 0.08061 0.90844 0.0
H684 H 0.5838 0.15057 0.04118 0.0
H685 H 0.62106 0.15419 0.08324 0.0
C686 C 0.65877 0.11809 0.0546 0.0
C687 C 0.67633 0.09652 0.03878 0.0
C688 C 0.63865 0.1189 0.02195 0.0
C689 C 0.6746 0.07755 0.98367 0.0
C690 C 0.65509 0.07881 0.94916 0.0
C691 C 0.61546 0.09724 0.94463 0.0
C692 C 0.59594 0.11516 0.97209 0.0
C693 C 0.6366 0.09866 0.9702 0.0
C694 C 0.59853 0.13632 0.01993 0.0
C695 C 0.6198 0.13835 0.04406 0.0
H696 H 0.44829 0.61755 0.15843 0.0
H697 H 0.4549 0.67221 0.98573 0.0
H698 H 0.45298 0.6357 0.89871 0.0
H699 H 0.45877 0.58711 0.87039 0.0
H700 H 0.45585 0.53218 0.04213 0.0
H701 H 0.44661 0.56971 0.13129 0.0
C702 C 0.44862 0.62153 0.10193 0.0
C703 C 0.45217 0.64733 0.07816 0.0
C704 C 0.44844 0.60027 0.05212 0.0
C705 C 0.45221 0.65248 1.0052 0.0
C706 C 0.45136 0.63155 0.95536 0.0
C707 C 0.45502 0.58349 0.92735 0.0
C708 C 0.45769 0.55719 0.95032 0.0
C709 C 0.4508 0.60518 0.97787 0.0
C710 C 0.45346 0.55239 0.02384 0.0
C711 C 0.44849 0.57383 0.0746 0.0
H712 H 0.87342 0.58748 0.15233 0.0
H713 H 0.81651 0.54828 0.09124 0.0
H714 H 0.84367 0.51759 0.00874 0.0
H715 H 0.88358 0.49529 0.97814 0.0
H716 H 0.94019 0.53205 0.05039 0.0
H717 H 0.91334 0.56962 0.10612 0.0
C718 C 0.86698 0.57278 0.11896 0.0
C719 C 0.84314 0.56964 0.12922 0.0
C720 C 0.88274 0.55388 0.07635 0.0
C721 C 0.83483 0.55102 0.08468 0.0
C722 C 0.85041 0.53305 0.0386 0.0
C723 C 0.89 0.51174 1.00523 0.0
C724 C 0.91361 0.51048 0.01266 0.0
C725 C 0.8744 0.53314 0.03808 0.0
C726 C 0.92188 0.5321 0.04669 0.0
C727 C 0.90661 0.55374 0.07773 0.0
H728 H 0.02628 0.18056 0.83243 0.0
H729 H 1.00581 0.16565 0.05662 0.0
H730 H 0.99759 0.12059 0.02433 0.0
H731 H 0.9981 0.08428 0.93311 0.0
H732 H 0.01839 0.09906 0.70873 0.0
H733 H 0.02498 0.14488 0.74051 0.0
C734 C 0.01992 0.1675 0.87422 0.0
C735 C 0.01664 0.17671 0.94693 0.0
C736 C 0.01541 0.14133 0.85533 0.0
C737 C 1.00816 0.15946 1.00016 0.0
C738 C 1.00366 0.13348 0.9818 0.0
C739 C 1.00394 0.09752 0.89111 0.0
C740 C 1.00792 0.08803 0.81867 0.0
C741 C 1.00752 0.12404 0.90967 0.0
C742 C 0.01524 0.10567 0.765 0.0
C743 C 0.01902 0.13196 0.78311 0.0
H744 H 0.35636 0.98075 0.95862 0.0
H745 H 0.35961 0.04871 0.10157 0.0
H746 H 0.39855 0.05421 0.04077 0.0
H747 H 0.43315 0.03798 0.95236 0.0
H748 H 0.43055 0.96851 0.8142 0.0
H749 H 0.39041 0.96526 0.86846 0.0
C750 C 0.36551 0.99675 0.97698 0.0
C751 C 0.35466 0.01421 0.03531 0.0
C752 C 0.38836 0.99945 0.94284 0.0
C753 C 0.36699 0.03512 0.05645 0.0
C754 C 0.38953 0.03815 0.02204 0.0
C755 C 0.42377 0.02226 0.93355 0.0
C756 C 0.43513 0.0035 0.87908 0.0
C757 C 0.40057 0.02021 0.96585 0.0
C758 C 0.42251 0.98322 0.85606 0.0
C759 C 0.39944 0.98131 0.88716 0.0
H760 H 0.46413 0.34451 0.98252 0.0
H761 H 0.53392 0.3431 0.03189 0.0
H762 H 0.53791 0.38638 0.97885 0.0
H763 H 0.52149 0.42543 0.92148 0.0
H764 H 0.45261 0.42679 0.8655 0.0
H765 H 0.44833 0.38305 0.91801 0.0
C766 C 0.48024 0.35364 0.98115 0.0
C767 C 0.49875 0.34035 0.01079 0.0
C768 C 0.48253 0.37871 0.94988 0.0
C769 C 0.51953 0.35251 0.00841 0.0
C770 C 0.52178 0.37745 0.97861 0.0
C771 C 0.50547 0.41623 0.92107 0.0
C772 C 0.48726 0.42957 0.89056 0.0
C773 C 0.50337 0.39085 0.94977 0.0
C774 C 0.46686 0.41703 0.88897 0.0
C775 C 0.46441 0.392 0.91902 0.0
H776 H 0.15971 0.5215 0.82529 0.0
H777 H 0.15717 0.43921 0.88319 0.0
H778 H 0.11865 0.43924 0.84879 0.0
H779 H 0.08476 0.463 0.80749 0.0
H780 H 0.08724 0.5446 0.74377 0.0
H781 H 0.1265 0.54444 0.77457 0.0
C782 C 0.15077 0.50356 0.8297 0.0
C783 C 0.16146 0.48034 0.8565 0.0
C784 C 0.12849 0.50359 0.80902 0.0
C785 C 0.1496 0.45722 0.86176 0.0
C786 C 0.12744 0.45726 0.84257 0.0
C787 C 0.09391 0.48074 0.79998 0.0
C788 C 0.08294 0.50384 0.77386 0.0
C789 C 0.1166 0.48038 0.81686 0.0
C790 C 0.09525 0.5265 0.76361 0.0
C791 C 0.11769 0.52646 0.78154 0.0
H792 H 0.98508 0.85183 0.53449 0.0
H793 H 0.03271 0.81836 0.67069 0.0
H794 H 0.03106 0.86184 0.73354 0.0
H795 H 0.01783 0.91025 0.74568 0.0
H796 H 0.9688 0.94296 0.61294 0.0
H797 H 0.969 0.89897 0.55441 0.0
C798 C 0.99472 0.85377 0.57893 0.0
C799 C 1.00926 0.83166 0.59671 0.0
C800 C 0.99356 0.8789 0.61556 0.0
C801 C 0.02177 0.83499 0.65428 0.0
C802 C 0.02077 0.85991 0.69066 0.0
C803 C 1.00705 0.90772 0.70431 0.0
C804 C 0.99346 0.93007 0.68361 0.0
C805 C 1.00709 0.88217 0.67087 0.0
C806 C 0.97946 0.92625 0.63024 0.0
C807 C 0.97959 0.90103 0.59642 0.0
H808 H 0.65419 0.03175 0.59816 0.0
H809 H 0.65558 0.95359 0.49414 0.0
H810 H 0.61789 0.94787 0.56286 0.0
H811 H 0.58329 0.96567 0.64803 0.0
H812 H 0.58266 0.04206 0.75955 0.0
H813 H 0.62131 0.0474 0.69401 0.0
C814 C 0.64658 0.0132 0.59127 0.0
C815 C 0.65787 0.99345 0.53897 0.0
C816 C 0.62483 0.00965 0.63254 0.0
C817 C 0.64728 0.96966 0.53161 0.0
C818 C 0.62565 0.9662 0.57154 0.0
C819 C 0.59166 0.98342 0.65852 0.0
C820 C 0.57987 0.00352 0.70843 0.0
C821 C 0.61404 0.98624 0.62116 0.0
C822 C 0.59123 0.02621 0.72172 0.0
C823 C 0.61335 0.02934 0.68386 0.0
H824 H 0.49687 0.66275 0.59179 0.0
H825 H 0.57115 0.64551 0.53366 0.0
H826 H 0.57001 0.60476 0.60203 0.0
H827 H 0.54725 0.57227 0.67285 0.0
H828 H 0.47294 0.59107 0.72902 0.0
H829 H 0.47499 0.63292 0.66856 0.0
C830 C 0.51298 0.65057 0.59533 0.0
C831 C 0.53406 0.65744 0.55725 0.0
C832 C 0.5122 0.62711 0.63435 0.0
C833 C 0.55458 0.64073 0.56158 0.0
C834 C 0.55395 0.61738 0.6009 0.0
C835 C 0.53158 0.58567 0.67247 0.0
C836 C 0.50995 0.57814 0.705 0.0
C837 C 0.53276 0.61004 0.63656 0.0
C838 C 0.48983 0.59592 0.70382 0.0
C839 C 0.49094 0.62004 0.66924 0.0
H840 H 0.8591 0.55536 0.7344 0.0
H841 H 0.86499 0.48141 0.60587 0.0
H842 H 0.90426 0.4707 0.63042 0.0
H843 H 0.93875 0.48391 0.6784 0.0
H844 H 0.93468 0.5605 0.79164 0.0
H845 H 0.8934 0.56877 0.78115 0.0
C846 C 0.86884 0.537 0.71066 0.0
C847 C 0.85846 0.51946 0.66771 0.0
C848 C 0.89217 0.53148 0.72151 0.0
C849 C 0.87174 0.49535 0.64028 0.0
C850 C 0.89458 0.48925 0.65345 0.0
C851 C 0.92875 0.50232 0.70121 0.0
C852 C 0.93982 0.52161 0.73555 0.0
C853 C 0.90517 0.50739 0.69263 0.0
C854 C 0.92665 0.54544 0.7644 0.0
C855 C 0.90302 0.55014 0.75852 0.0
loop_
_geom_bond_atom_site_label_1
_geom_bond_atom_site_label_2
_geom_bond_distance
_geom_bond_site_symmetry_2
_ccdc_geom_bond_type
C0 C1 1.386 . S
C0 C2 1.397 . S
C0 H24 0.931 . S
C1 C0 1.386 . S
C1 C5 1.397 . S
C2 C0 1.397 . S
C2 C3 1.384 . S
C2 H25 0.930 . S
C3 C2 1.384 . S
C3 C4 1.377 . S
C3 C6 1.481 . S
C4 C3 1.377 . S
C4 C5 1.389 . S
C4 H26 0.929 . S
C5 C1 1.397 . S
C5 C4 1.389 . S
C5 H27 0.931 . S
C6 C3 1.481 . S
C6 C7 1.387 . S
C6 C11 1.390 . S
C7 C6 1.387 . S
C7 C8 1.401 . S
C7 H28 0.930 . S
C8 C7 1.401 . S
C8 C9 1.376 . S
C8 C17 1.511 . S
C9 C8 1.376 . S
C9 C10 1.392 . S
C9 H30 0.931 . S
C10 C9 1.392 . S
C10 C11 1.361 . S
C10 C12 1.500 . S
C11 C6 1.390 . S
C11 C10 1.361 . S
C11 H29 0.931 . S
C12 C10 1.500 . S
C12 C13 1.371 . S
C12 C14 1.365 . S
C13 C12 1.371 . S
C13 C23 1.386 . S
C13 H31 0.931 . S
C14 C12 1.365 . S
C14 C15 1.409 . S
C14 H32 0.929 . S
C15 C14 1.409 . S
C15 C16 1.380 . S
C15 H33 0.930 . S
C16 C15 1.380 . S
C16 C23 1.357 . S
C17 C8 1.511 . S
C17 C18 1.341 . S
C17 C19 1.371 . S
C18 C17 1.341 . S
C18 C22 1.394 . S
C18 H34 0.930 . S
C19 C17 1.371 . S
C19 C20 1.392 . S
C19 H35 0.931 . S
C20 C19 1.392 . S
C20 C21 1.331 . S
C20 H38 0.932 . S
C21 C20 1.331 . S
C21 C22 1.336 . S
C22 C18 1.394 . S
C22 C21 1.336 . S
C22 H37 0.929 . S
C23 C13 1.386 . S
C23 C16 1.357 . S
C23 H36 0.928 . S
H24 C0 0.931 . S
H25 C2 0.930 . S
H26 C4 0.929 . S
H27 C5 0.931 . S
H28 C7 0.930 . S
H29 C11 0.931 . S
H30 C9 0.931 . S
H31 C13 0.931 . S
H32 C14 0.929 . S
H33 C15 0.930 . S
H34 C18 0.930 . S
H35 C19 0.931 . S
H36 C23 0.928 . S
H37 C22 0.929 . S
H38 C20 0.932 . S
C39 C40 1.386 . S
C39 C41 1.397 . S
C39 H63 0.931 . S
C40 C39 1.386 . S
C40 C44 1.397 1_655 S
C41 C39 1.397 . S
C41 C42 1.384 . S
C41 H64 0.930 . S
C42 C41 1.384 . S
C42 C43 1.377 1_655 S
C42 C45 1.481 . S
C43 C42 1.377 1_455 S
C43 C44 1.389 . S
C43 H65 0.929 . S
C44 C40 1.397 1_455 S
C44 C43 1.389 . S
C44 H66 0.931 . S
C45 C42 1.481 . S
C45 C46 1.387 . S
C45 C50 1.390 . S
C46 C45 1.387 . S
C46 C47 1.401 . S
C46 H67 0.930 . S
C47 C46 1.401 . S
C47 C48 1.376 . S
C47 C56 1.511 . S
C48 C47 1.376 . S
C48 C49 1.392 . S
C48 H69 0.931 . S
C49 C48 1.392 . S
C49 C50 1.361 . S
C49 C51 1.500 . S
C50 C45 1.390 . S
C50 C49 1.361 . S
C50 H68 0.931 . S
C51 C49 1.500 . S
C51 C52 1.371 . S
C51 C53 1.365 1_655 S
C52 C51 1.371 . S
C52 C62 1.386 . S
C52 H70 0.931 . S
C53 C51 1.365 1_455 S
C53 C54 1.409 . S
C53 H71 0.929 . S
C54 C53 1.409 . S
C54 C55 1.380 1_455 S
C54 H72 0.930 . S
C55 C54 1.380 1_655 S
C55 C62 1.357 . S
C56 C47 1.511 . S
C56 C57 1.341 . S
C56 C58 1.371 1_655 S
C57 C56 1.341 . S
C57 C61 1.394 . S
C57 H73 0.930 . S
C58 C56 1.371 1_455 S
C58 C59 1.392 . S
C58 H74 0.931 . S
C59 C58 1.392 . S
C59 C60 1.331 1_455 S
C59 H77 0.932 . S
C60 C59 1.331 1_655 S
C60 C61 1.336 . S
C61 C57 1.394 . S
C61 C60 1.336 . S
C61 H76 0.929 . S
C62 C52 1.386 . S
C62 C55 1.357 . S
C62 H75 0.928 . S
H63 C39 0.931 . S
H64 C41 0.930 . S
H65 C43 0.929 . S
H66 C44 0.931 . S
H67 C46 0.930 . S
H68 C50 0.931 . S
H69 C48 0.931 . S
H70 C52 0.931 . S
H71 C53 0.929 . S
H72 C54 0.930 . S
H73 C57 0.930 . S
H74 C58 0.931 . S
H75 C62 0.928 . S
H76 C61 0.929 . S
H77 C59 0.932 . S
C78 C79 1.393 . S
C78 C80 1.397 . S
C78 H102 0.931 . S
C79 C78 1.393 . S
C79 C83 1.389 1_565 S
C80 C78 1.397 . S
C80 C81 1.388 . S
C80 H103 0.930 . S
C81 C80 1.388 . S
C81 C82 1.373 1_565 S
C81 C84 1.481 . S
C82 C81 1.373 1_545 S
C82 C83 1.389 . S
C82 H104 0.929 . S
C83 C79 1.389 1_545 S
C83 C82 1.389 . S
C83 H105 0.931 . S
C84 C81 1.481 . S
C84 C85 1.385 . S
C84 C89 1.392 . S
C85 C84 1.385 . S
C85 C86 1.404 . S
C85 H106 0.930 . S
C86 C85 1.404 . S
C86 C87 1.379 . S
C86 C95 1.509 . S
C87 C86 1.379 . S
C87 C88 1.392 . S
C87 H108 0.931 . S
C88 C87 1.392 . S
C88 C89 1.361 . S
C88 C90 1.501 1_565 S
C89 C84 1.392 . S
C89 C88 1.361 . S
C89 H107 0.932 . S
C90 C88 1.501 1_545 S
C90 C91 1.362 1_545 S
C90 C92 1.373 . S
C91 C90 1.362 1_565 S
C91 C101 1.386 . S
C91 H109 0.931 . S
C92 C90 1.373 . S
C92 C93 1.409 . S
C92 H110 0.929 . S
C93 C92 1.409 . S
C93 C94 1.380 . S
C93 H111 0.930 . S
C94 C93 1.380 . S
C94 C101 1.357 1_545 S
C95 C86 1.509 . S
C95 C96 1.341 . S
C95 C97 1.371 1_565 S
C96 C95 1.341 . S
C96 C100 1.394 . S
C96 H112 0.930 . S
C97 C95 1.371 1_545 S
C97 C98 1.392 . S
C97 H113 0.931 . S
C98 C97 1.392 . S
C98 C99 1.324 1_545 S
C98 H116 0.932 . S
C99 C98 1.324 1_565 S
C99 C100 1.346 . S
C100 C96 1.394 . S
C100 C99 1.346 . S
C100 H115 0.929 . S
C101 C91 1.386 . S
C101 C94 1.357 1_565 S
C101 H114 0.928 . S
H102 C78 0.931 . S
H103 C80 0.930 . S
H104 C82 0.929 . S
H105 C83 0.931 . S
H106 C85 0.930 . S
H107 C89 0.932 . S
H108 C87 0.931 . S
H109 C91 0.931 . S
H110 C92 0.929 . S
H111 C93 0.930 . S
H112 C96 0.930 . S
H113 C97 0.931 . S
H114 C101 0.928 . S
H115 C100 0.929 . S
H116 C98 0.932 . S
C117 C118 1.386 . S
C117 C119 1.397 . S
C117 H141 0.931 . S
C118 C117 1.386 . S
C118 C122 1.397 . S
C119 C117 1.397 . S
C119 C120 1.384 . S
C119 H142 0.930 . S
C120 C119 1.384 . S
C120 C121 1.377 . S
C120 C123 1.481 . S
C121 C120 1.377 . S
C121 C122 1.389 . S
C121 H143 0.929 . S
C122 C118 1.397 . S
C122 C121 1.389 . S
C122 H144 0.931 . S
C123 C120 1.481 . S
C123 C124 1.387 . S
C123 C128 1.390 . S
C124 C123 1.387 . S
C124 C125 1.401 . S
C124 H145 0.930 . S
C125 C124 1.401 . S
C125 C126 1.376 . S
C125 C134 1.511 . S
C126 C125 1.376 . S
C126 C127 1.392 . S
C126 H147 0.931 . S
C127 C126 1.392 . S
C127 C128 1.361 . S
C127 C129 1.500 . S
C128 C123 1.390 . S
C128 C127 1.361 . S
C128 H146 0.931 . S
C129 C127 1.500 . S
C129 C130 1.371 1_554 S
C129 C131 1.365 . S
C130 C129 1.371 1_556 S
C130 C140 1.386 . S
C130 H148 0.931 . S
C131 C129 1.365 . S
C131 C132 1.409 1_554 S
C131 H149 0.929 . S
C132 C131 1.409 1_556 S
C132 C133 1.380 . S
C132 H150 0.930 . S
C133 C132 1.380 . S
C133 C140 1.357 . S
C134 C125 1.511 . S
C134 C135 1.341 . S
C134 C136 1.371 . S
C135 C134 1.341 . S
C135 C139 1.394 . S
C135 H151 0.930 . S
C136 C134 1.371 . S
C136 C137 1.392 . S
C136 H152 0.931 . S
C137 C136 1.392 . S
C137 C138 1.331 . S
C137 H155 0.932 1_554 S
C138 C137 1.331 . S
C138 C139 1.336 . S
C139 C135 1.394 . S
C139 C138 1.336 . S
C139 H154 0.929 . S
C140 C130 1.386 . S
C140 C133 1.357 . S
C140 H153 0.928 . S
H141 C117 0.931 . S
H142 C119 0.930 . S
H143 C121 0.929 . S
H144 C122 0.931 . S
H145 C124 0.930 . S
H146 C128 0.931 . S
H147 C126 0.931 . S
H148 C130 0.931 . S
H149 C131 0.929 . S
H150 C132 0.930 . S
H151 C135 0.930 . S
H152 C136 0.931 . S
H153 C140 0.928 . S
H154 C139 0.929 . S
H155 C137 0.932 1_556 S
C156 C157 1.386 . S
C156 C158 1.397 . S
C156 H180 0.931 . S
C157 C156 1.386 . S
C157 C161 1.397 . S
C158 C156 1.397 . S
C158 C159 1.384 . S
C158 H181 0.930 . S
C159 C158 1.384 . S
C159 C160 1.377 . S
C159 C162 1.481 . S
C160 C159 1.377 . S
C160 C161 1.389 . S
C160 H182 0.929 . S
C161 C157 1.397 . S
C161 C160 1.389 . S
C161 H183 0.931 . S
C162 C159 1.481 . S
C162 C163 1.387 . S
C162 C167 1.390 1_554 S
C163 C162 1.387 . S
C163 C164 1.401 . S
C163 H184 0.930 . S
C164 C163 1.401 . S
C164 C165 1.376 1_554 S
C164 C173 1.511 . S
C165 C164 1.376 1_556 S
C165 C166 1.392 . S
C165 H186 0.931 . S
C166 C165 1.392 . S
C166 C167 1.361 . S
C166 C168 1.500 . S
C167 C162 1.390 1_556 S
C167 C166 1.361 . S
C167 H185 0.931 . S
C168 C166 1.500 . S
C168 C169 1.371 . S
C168 C170 1.365 . S
C169 C168 1.371 . S
C169 C179 1.386 . S
C169 H187 0.931 . S
C170 C168 1.365 . S
C170 C171 1.409 . S
C170 H188 0.929 . S
C171 C170 1.409 . S
C171 C172 1.380 . S
C171 H189 0.930 . S
C172 C171 1.380 . S
C172 C179 1.357 . S
C173 C164 1.511 . S
C173 C174 1.341 . S
C173 C175 1.371 1_554 S
C174 C173 1.341 . S
C174 C178 1.394 . S
C174 H190 0.930 . S
C175 C173 1.371 1_556 S
C175 C176 1.392 . S
C175 H191 0.931 . S
C176 C175 1.392 . S
C176 C177 1.331 1_556 S
C176 H194 0.932 . S
C177 C176 1.331 1_554 S
C177 C178 1.336 . S
C178 C174 1.394 . S
C178 C177 1.336 . S
C178 H193 0.929 . S
C179 C169 1.386 . S
C179 C172 1.357 . S
C179 H192 0.928 . S
H180 C156 0.931 . S
H181 C158 0.930 . S
H182 C160 0.929 . S
H183 C161 0.931 . S
H184 C163 0.930 . S
H185 C167 0.931 . S
H186 C165 0.931 . S
H187 C169 0.931 . S
H188 C170 0.929 . S
H189 C171 0.930 . S
H190 C174 0.930 . S
H191 C175 0.931 . S
H192 C179 0.928 . S
H193 C178 0.929 . S
H194 C176 0.932 . S
C195 C196 1.386 1_655 S
C195 C197 1.397 . S
C195 H219 0.931 . S
C196 C195 1.386 1_455 S
C196 C200 1.397 . S
C197 C195 1.397 . S
C197 C198 1.384 1_655 S
C197 H220 0.930 . S
C198 C197 1.384 1_455 S
C198 C199 1.377 . S
C198 C201 1.481 . S
C199 C198 1.377 . S
C199 C200 1.389 . S
C199 H221 0.929 . S
C200 C196 1.397 . S
C200 C199 1.389 . S
C200 H222 0.931 . S
C201 C198 1.481 . S
C201 C202 1.387 . S
C201 C206 1.390 . S
C202 C201 1.387 . S
C202 C203 1.401 . S
C202 H223 0.930 . S
C203 C202 1.401 . S
C203 C204 1.376 . S
C203 C212 1.511 . S
C204 C203 1.376 . S
C204 C205 1.392 . S
C204 H225 0.931 . S
C205 C204 1.392 . S
C205 C206 1.361 . S
C205 C207 1.500 1_554 S
C206 C201 1.390 . S
C206 C205 1.361 . S
C206 H224 0.931 . S
C207 C205 1.500 1_556 S
C207 C208 1.371 1_455 S
C207 C209 1.365 . S
C208 C207 1.371 1_655 S
C208 C218 1.386 . S
C208 H226 0.931 . S
C209 C207 1.365 . S
C209 C210 1.409 . S
C209 H227 0.929 . S
C210 C209 1.409 . S
C210 C211 1.380 . S
C210 H228 0.930 . S
C211 C210 1.380 . S
C211 C218 1.357 1_455 S
C212 C203 1.511 . S
C212 C213 1.341 1_455 S
C212 C214 1.371 . S
C213 C212 1.341 1_655 S
C213 C217 1.394 . S
C213 H229 0.930 . S
C214 C212 1.371 . S
C214 C215 1.392 . S
C214 H230 0.931 . S
C215 C214 1.392 . S
C215 C216 1.331 . S
C215 H233 0.932 . S
C216 C215 1.331 . S
C216 C217 1.336 1_455 S
C217 C213 1.394 . S
C217 C216 1.336 1_655 S
C217 H232 0.929 . S
C218 C208 1.386 . S
C218 C211 1.357 1_655 S
C218 H231 0.928 . S
H219 C195 0.931 . S
H220 C197 0.930 . S
H221 C199 0.929 . S
H222 C200 0.931 . S
H223 C202 0.930 . S
H224 C206 0.931 . S
H225 C204 0.931 . S
H226 C208 0.931 . S
H227 C209 0.929 . S
H228 C210 0.930 . S
H229 C213 0.930 . S
H230 C214 0.931 . S
H231 C218 0.928 . S
H232 C217 0.929 . S
H233 C215 0.932 . S
C234 C235 1.389 . S
C234 C236 1.397 . S
C234 H258 0.931 . S
C235 C234 1.389 . S
C235 C239 1.395 1_565 S
C236 C234 1.397 . S
C236 C237 1.383 . S
C236 H259 0.930 . S
C237 C236 1.383 . S
C237 C238 1.379 1_565 S
C237 C240 1.479 . S
C238 C237 1.379 1_545 S
C238 C239 1.389 . S
C238 H260 0.929 . S
C239 C235 1.395 1_545 S
C239 C238 1.389 . S
C239 H261 0.931 . S
C240 C237 1.479 . S
C240 C241 1.391 . S
C240 C245 1.389 . S
C241 C240 1.391 . S
C241 C242 1.401 . S
C241 H262 0.930 . S
C242 C241 1.401 . S
C242 C243 1.377 . S
C242 C251 1.515 . S
C243 C242 1.377 . S
C243 C244 1.388 1_565 S
C243 H264 0.935 . S
C244 C243 1.388 1_545 S
C244 C245 1.361 1_545 S
C244 C246 1.496 . S
C245 C240 1.389 . S
C245 C244 1.361 1_565 S
C245 H263 0.930 . S
C246 C244 1.496 . S
C246 C247 1.345 1_544 S
C246 C248 1.383 . S
C247 C246 1.345 1_566 S
C247 C257 1.399 . S
C247 H265 0.929 1_556 S
C248 C246 1.383 . S
C248 C249 1.409 1_554 S
C248 H266 0.929 . S
C249 C248 1.409 1_556 S
C249 C250 1.385 . S
C249 H267 0.930 . S
C250 C249 1.385 . S
C250 C257 1.352 1_545 S
C251 C242 1.515 . S
C251 C252 1.341 . S
C251 C253 1.371 1_565 S
C252 C251 1.341 . S
C252 C256 1.394 . S
C252 H268 0.930 . S
C253 C251 1.371 1_545 S
C253 C254 1.392 . S
C253 H269 0.931 . S
C254 C253 1.392 . S
C254 C255 1.324 1_545 S
C254 H272 0.932 . S
C255 C254 1.324 1_565 S
C255 C256 1.341 . S
C256 C252 1.394 . S
C256 C255 1.341 . S
C256 H271 0.929 . S
C257 C247 1.399 . S
C257 C250 1.352 1_565 S
C257 H270 0.928 . S
H258 C234 0.931 . S
H259 C236 0.930 . S
H260 C238 0.929 . S
H261 C239 0.931 . S
H262 C241 0.930 . S
H263 C245 0.930 . S
H264 C243 0.935 . S
H265 C247 0.929 1_554 S
H266 C248 0.929 . S
H267 C249 0.930 . S
H268 C252 0.930 . S
H269 C253 0.931 . S
H270 C257 0.928 . S
H271 C256 0.929 . S
H272 C254 0.932 . S
C273 C274 1.386 . S
C273 C275 1.397 . S
C273 H297 0.931 . S
C274 C273 1.386 . S
C274 C278 1.397 . S
C275 C273 1.397 . S
C275 C276 1.384 . S
C275 H298 0.930 . S
C276 C275 1.384 . S
C276 C277 1.377 . S
C276 C279 1.481 . S
C277 C276 1.377 . S
C277 C278 1.389 . S
C277 H299 0.929 . S
C278 C274 1.397 . S
C278 C277 1.389 . S
C278 H300 0.931 . S
C279 C276 1.481 . S
C279 C280 1.387 . S
C279 C284 1.390 . S
C280 C279 1.387 . S
C280 C281 1.401 . S
C280 H301 0.930 . S
C281 C280 1.401 . S
C281 C282 1.376 . S
C281 C290 1.511 . S
C282 C281 1.376 . S
C282 C283 1.392 . S
C282 H303 0.931 . S
C283 C282 1.392 . S
C283 C284 1.361 . S
C283 C285 1.500 . S
C284 C279 1.390 . S
C284 C283 1.361 . S
C284 H302 0.931 . S
C285 C283 1.500 . S
C285 C286 1.371 . S
C285 C287 1.365 . S
C286 C285 1.371 . S
C286 C296 1.386 . S
C286 H304 0.931 . S
C287 C285 1.365 . S
C287 C288 1.409 . S
C287 H305 0.929 . S
C288 C287 1.409 . S
C288 C289 1.380 . S
C288 H306 0.930 . S
C289 C288 1.380 . S
C289 C296 1.357 . S
C290 C281 1.511 . S
C290 C291 1.341 . S
C290 C292 1.371 . S
C291 C290 1.341 . S
C291 C295 1.394 . S
C291 H307 0.930 . S
C292 C290 1.371 . S
C292 C293 1.392 . S
C292 H308 0.931 . S
C293 C292 1.392 . S
C293 C294 1.331 . S
C293 H311 0.932 . S
C294 C293 1.331 . S
C294 C295 1.336 . S
C295 C291 1.394 . S
C295 C294 1.336 . S
C295 H310 0.929 . S
C296 C286 1.386 . S
C296 C289 1.357 . S
C296 H309 0.928 . S
H297 C273 0.931 . S
H298 C275 0.930 . S
H299 C277 0.929 . S
H300 C278 0.931 . S
H301 C280 0.930 . S
H302 C284 0.931 . S
H303 C282 0.931 . S
H304 C286 0.931 . S
H305 C287 0.929 . S
H306 C288 0.930 . S
H307 C291 0.930 . S
H308 C292 0.931 . S
H309 C296 0.928 . S
H310 C295 0.929 . S
H311 C293 0.932 . S
Dy312 O315 2.307 1_545 S
Dy312 O317 2.395 1_655 S
Dy312 O318 2.379 . S
Dy312 O320 2.339 . S
Dy312 O322 2.298 . S
Dy312 O326 2.275 1_655 S
Dy312 C334 2.738 . S
Dy313 O316 2.298 . S
Dy313 O319 2.275 1_455 S
Dy313 O321 2.307 1_565 S
Dy313 O323 2.388 1_455 S
Dy313 O324 2.379 . S
Dy313 O327 2.339 . S
Dy313 C343 2.738 . S
C314 O326 1.254 1_565 S
C314 O327 1.257 . S
O315 Dy312 2.307 1_565 S
O315 C325 1.266 . S
O316 Dy313 2.298 . S
O316 C325 1.236 1_455 S
O317 Dy312 2.395 1_455 S
O317 C334 1.255 1_455 S
O318 Dy312 2.379 . S
O318 C334 1.249 . S
O319 Dy313 2.275 1_655 S
O319 C335 1.254 1_565 S
O320 Dy312 2.339 . S
O320 C335 1.257 . S
O321 Dy313 2.307 1_545 S
O321 C336 1.266 . S
O322 Dy312 2.298 . S
O322 C336 1.236 1_655 S
O323 Dy313 2.388 1_655 S
O323 C343 1.240 1_655 S
O324 Dy313 2.379 . S
O324 C343 1.249 . S
C325 O315 1.266 . S
C325 O316 1.236 1_655 S
O326 Dy312 2.275 1_455 S
O326 C314 1.254 1_545 S
O327 Dy313 2.339 . S
O327 C314 1.257 . S
C328 C331 1.312 1_655 S
C328 C332 1.328 . S
C328 C334 1.516 . S
C329 C330 1.345 . S
C329 C333 1.323 . S
C330 C329 1.345 . S
C330 C331 1.368 1_655 S
C330 H344 0.891 1_655 S
C331 C328 1.312 1_455 S
C331 C330 1.368 1_455 S
C331 H345 0.967 . S
C332 C328 1.328 . S
C332 C333 1.433 . S
C332 H346 0.931 . S
C333 C329 1.323 . S
C333 C332 1.433 . S
C333 H347 0.933 . S
C334 Dy312 2.738 . S
C334 O317 1.255 1_655 S
C334 O318 1.249 . S
C334 C328 1.516 . S
C335 O319 1.254 1_545 S
C335 O320 1.257 . S
C336 O321 1.266 . S
C336 O322 1.236 1_455 S
C337 C340 1.344 . S
C337 C341 1.328 . S
C337 C343 1.516 . S
C338 C339 1.304 1_554 S
C338 C342 1.323 1_554 S
C339 C338 1.304 1_556 S
C339 C340 1.371 . S
C339 H348 0.930 1_456 S
C340 C337 1.344 . S
C340 C339 1.371 . S
C340 H349 0.931 1_455 S
C341 C337 1.328 . S
C341 C342 1.433 . S
C341 H350 0.931 . S
C342 C338 1.323 1_556 S
C342 C341 1.433 . S
C342 H351 0.933 . S
C343 Dy313 2.738 . S
C343 O323 1.240 1_455 S
C343 O324 1.249 . S
C343 C337 1.516 . S
H344 C330 0.891 1_455 S
H345 C331 0.967 . S
H346 C332 0.931 . S
H347 C333 0.933 . S
H348 C339 0.930 1_654 S
H349 C340 0.931 1_655 S
H350 C341 0.931 . S
H351 C342 0.933 . S
Dy352 O355 2.307 . S
Dy352 O357 2.395 1_565 S
Dy352 O358 2.379 . S
Dy352 O360 2.339 . S
Dy352 O362 2.298 . S
Dy352 O366 2.275 1_565 S
Dy352 C374 2.738 . S
Dy353 O356 2.298 . S
Dy353 O359 2.275 1_545 S
Dy353 O361 2.307 . S
Dy353 O363 2.395 1_545 S
Dy353 O364 2.379 . S
Dy353 O367 2.339 . S
Dy353 C383 2.738 . S
C354 O366 1.254 . S
C354 O367 1.257 . S
O355 Dy352 2.307 . S
O355 C365 1.266 . S
O356 Dy353 2.298 . S
O356 C365 1.236 1_545 S
O357 Dy352 2.395 1_545 S
O357 C374 1.255 1_545 S
O358 Dy352 2.379 . S
O358 C374 1.249 . S
O359 Dy353 2.275 1_565 S
O359 C375 1.254 . S
O360 Dy352 2.339 . S
O360 C375 1.257 . S
O361 Dy353 2.307 . S
O361 C376 1.266 . S
O362 Dy352 2.298 . S
O362 C376 1.236 1_565 S
O363 Dy353 2.395 1_565 S
O363 C383 1.255 1_565 S
O364 Dy353 2.379 . S
O364 C383 1.249 . S
C365 O355 1.266 . S
C365 O356 1.236 1_565 S
O366 Dy352 2.275 1_545 S
O366 C354 1.254 . S
O367 Dy353 2.339 . S
O367 C354 1.257 . S
C368 C371 1.345 . S
C368 C372 1.328 . S
C368 C374 1.516 . S
C369 C370 1.304 . S
C369 C373 1.323 . S
C370 C369 1.304 . S
C370 C371 1.371 . S
C370 H384 0.930 1_565 S
C371 C368 1.345 . S
C371 C370 1.371 . S
C371 H385 0.930 1_565 S
C372 C368 1.328 . S
C372 C373 1.433 . S
C372 H386 0.931 . S
C373 C369 1.323 . S
C373 C372 1.433 . S
C373 H387 0.933 . S
C374 Dy352 2.738 . S
C374 O357 1.255 1_565 S
C374 O358 1.249 . S
C374 C368 1.516 . S
C375 O359 1.254 . S
C375 O360 1.257 . S
C376 O361 1.266 . S
C376 O362 1.236 1_545 S
C377 C380 1.353 . S
C377 C381 1.328 . S
C377 C383 1.516 . S
C378 C379 1.304 . S
C378 C382 1.323 . S
C379 C378 1.304 . S
C379 C380 1.372 . S
C379 H388 0.930 1_545 S
C380 C377 1.353 . S
C380 C379 1.372 . S
C380 H389 0.921 1_545 S
C381 C377 1.328 . S
C381 C382 1.433 . S
C381 H390 0.931 . S
C382 C378 1.323 . S
C382 C381 1.433 . S
C382 H391 0.927 1_556 S
C383 Dy353 2.738 . S
C383 O363 1.255 1_545 S
C383 O364 1.249 . S
C383 C377 1.516 . S
H384 C370 0.930 1_545 S
H385 C371 0.930 1_545 S
H386 C372 0.931 . S
H387 C373 0.933 . S
H388 C379 0.930 1_565 S
H389 C380 0.921 1_565 S
H390 C381 0.931 . S
H391 C382 0.927 1_554 S
Dy392 O395 2.307 . S
Dy392 O397 2.395 . S
Dy392 O398 2.379 . S
Dy392 O400 2.339 . S
Dy392 O402 2.298 . S
Dy392 O406 2.275 . S
Dy392 C414 2.738 . S
Dy393 O396 2.298 . S
Dy393 O399 2.275 . S
Dy393 O401 2.307 . S
Dy393 O403 2.395 . S
Dy393 O404 2.379 . S
Dy393 O407 2.339 . S
Dy393 C423 2.738 . S
C394 O406 1.254 . S
C394 O407 1.257 . S
O395 Dy392 2.307 . S
O395 C405 1.266 . S
O396 Dy393 2.298 . S
O396 C405 1.236 . S
O397 Dy392 2.395 . S
O397 C414 1.255 . S
O398 Dy392 2.379 . S
O398 C414 1.249 . S
O399 Dy393 2.275 . S
O399 C415 1.254 . S
O400 Dy392 2.339 . S
O400 C415 1.257 . S
O401 Dy393 2.307 . S
O401 C416 1.266 . S
O402 Dy392 2.298 . S
O402 C416 1.236 . S
O403 Dy393 2.395 . S
O403 C423 1.255 . S
O404 Dy393 2.379 . S
O404 C423 1.249 . S
C405 O395 1.266 . S
C405 O396 1.236 . S
O406 Dy392 2.275 . S
O406 C394 1.254 . S
O407 Dy393 2.339 . S
O407 C394 1.257 . S
C408 C411 1.344 . S
C408 C412 1.328 . S
C408 C414 1.516 . S
C409 C410 1.304 . S
C409 C413 1.323 . S
C410 C409 1.304 . S
C410 C411 1.371 . S
C410 H424 0.930 1_556 S
C411 C408 1.344 . S
C411 C410 1.371 . S
C411 H425 0.931 . S
C412 C408 1.328 . S
C412 C413 1.433 . S
C412 H426 0.931 . S
C413 C409 1.323 . S
C413 C412 1.433 . S
C413 H427 0.933 . S
C414 Dy392 2.738 . S
C414 O397 1.255 . S
C414 O398 1.249 . S
C414 C408 1.516 . S
C415 O399 1.254 . S
C415 O400 1.257 . S
C416 O401 1.266 . S
C416 O402 1.236 . S
C417 C420 1.344 . S
C417 C421 1.328 . S
C417 C423 1.516 . S
C418 C419 1.304 . S
C418 C422 1.323 . S
C419 C418 1.304 . S
C419 C420 1.371 . S
C419 H428 0.930 . S
C420 C417 1.344 . S
C420 C419 1.371 . S
C420 H429 0.931 . S
C421 C417 1.328 . S
C421 C422 1.433 . S
C421 H430 0.931 . S
C422 C418 1.323 . S
C422 C421 1.433 . S
C422 H431 0.933 . S
C423 Dy393 2.738 . S
C423 O403 1.255 . S
C423 O404 1.249 . S
C423 C417 1.516 . S
H424 C410 0.930 1_554 S
H425 C411 0.931 . S
H426 C412 0.931 . S
H427 C413 0.933 . S
H428 C419 0.930 . S
H429 C420 0.931 . S
H430 C421 0.931 . S
H431 C422 0.933 . S
Dy432 O435 2.307 1_455 S
Dy432 O437 2.395 . S
Dy432 O438 2.379 . S
Dy432 O440 2.339 . S
Dy432 O442 2.298 . S
Dy432 O446 2.275 . S
Dy432 C454 2.738 . S
Dy433 O436 2.298 . S
Dy433 O439 2.275 . S
Dy433 O441 2.307 1_655 S
Dy433 O443 2.395 . S
Dy433 O444 2.379 . S
Dy433 O447 2.339 . S
Dy433 C463 2.738 . S
C434 O446 1.246 1_655 S
C434 O447 1.267 . S
O435 Dy432 2.307 1_655 S
O435 C445 1.266 . S
O436 Dy433 2.298 . S
O436 C445 1.236 . S
O437 Dy432 2.395 . S
O437 C454 1.255 . S
O438 Dy432 2.379 . S
O438 C454 1.249 . S
O439 Dy433 2.275 . S
O439 C455 1.254 1_655 S
O440 Dy432 2.339 . S
O440 C455 1.257 . S
O441 Dy433 2.307 1_455 S
O441 C456 1.266 . S
O442 Dy432 2.298 . S
O442 C456 1.236 . S
O443 Dy433 2.395 . S
O443 C463 1.255 . S
O444 Dy433 2.379 . S
O444 C463 1.249 . S
C445 O435 1.266 . S
C445 O436 1.236 . S
O446 Dy432 2.275 . S
O446 C434 1.246 1_455 S
O447 Dy433 2.339 . S
O447 C434 1.267 . S
C448 C451 1.344 . S
C448 C452 1.328 . S
C448 C454 1.516 . S
C449 C450 1.304 . S
C449 C453 1.323 . S
C450 C449 1.304 . S
C450 C451 1.371 . S
C450 H464 0.930 . S
C451 C448 1.344 . S
C451 C450 1.371 . S
C451 H465 0.931 . S
C452 C448 1.328 . S
C452 C453 1.433 . S
C452 H466 0.931 . S
C453 C449 1.323 . S
C453 C452 1.433 . S
C453 H467 0.933 . S
C454 Dy432 2.738 . S
C454 O437 1.255 . S
C454 O438 1.249 . S
C454 C448 1.516 . S
C455 O439 1.254 1_455 S
C455 O440 1.257 . S
C456 O441 1.266 . S
C456 O442 1.236 . S
C457 C460 1.344 1_556 S
C457 C461 1.328 . S
C457 C463 1.516 . S
C458 C459 1.304 . S
C458 C462 1.323 . S
C459 C458 1.304 . S
C459 C460 1.371 . S
C459 H468 0.930 . S
C460 C457 1.344 1_554 S
C460 C459 1.371 . S
C460 H469 0.931 1_554 S
C461 C457 1.328 . S
C461 C462 1.433 1_556 S
C461 H470 0.931 . S
C462 C458 1.323 . S
C462 C461 1.433 1_554 S
C462 H471 0.933 . S
C463 Dy433 2.738 . S
C463 O443 1.255 . S
C463 O444 1.249 . S
C463 C457 1.516 . S
H464 C450 0.930 . S
H465 C451 0.931 . S
H466 C452 0.931 . S
H467 C453 0.933 . S
H468 C459 0.930 . S
H469 C460 0.931 1_556 S
H470 C461 0.931 . S
H471 C462 0.933 . S
H472 C478 0.930 . S
H473 C481 0.930 . S
H474 C482 0.930 . S
H475 C483 0.930 . S
H476 C486 0.930 . S
H477 C487 0.930 . S
C478 H472 0.930 . S
C478 C479 1.355 1_565 S
C478 C480 1.415 . S
C479 C478 1.355 1_545 S
C479 C481 1.419 . S
C480 C478 1.415 . S
C480 C485 1.425 1_565 S
C480 C487 1.409 . S
C481 H473 0.930 . S
C481 C479 1.419 . S
C481 C482 1.362 . S
C482 H474 0.930 . S
C482 C481 1.362 . S
C482 C485 1.409 . S
C483 H475 0.930 . S
C483 C484 1.355 1_545 S
C483 C485 1.415 . S
C484 C483 1.355 1_565 S
C484 C486 1.419 . S
C485 C480 1.425 1_545 S
C485 C482 1.409 . S
C485 C483 1.415 . S
C486 H476 0.930 . S
C486 C484 1.419 . S
C486 C487 1.362 . S
C487 H477 0.930 . S
C487 C480 1.409 . S
C487 C486 1.362 . S
H488 C494 0.930 . S
H489 C497 0.930 . S
H490 C498 0.930 . S
H491 C499 0.930 . S
H492 C502 0.930 . S
H493 C503 0.930 . S
C494 H488 0.930 . S
C494 C495 1.355 . S
C494 C496 1.415 . S
C495 C494 1.355 . S
C495 C497 1.419 . S
C496 C494 1.415 . S
C496 C501 1.425 . S
C496 C503 1.409 . S
C497 H489 0.930 . S
C497 C495 1.419 . S
C497 C498 1.362 . S
C498 H490 0.930 . S
C498 C497 1.362 . S
C498 C501 1.409 . S
C499 H491 0.930 . S
C499 C500 1.355 . S
C499 C501 1.415 . S
C500 C499 1.355 . S
C500 C502 1.419 . S
C501 C496 1.425 . S
C501 C498 1.409 . S
C501 C499 1.415 . S
C502 H492 0.930 . S
C502 C500 1.419 . S
C502 C503 1.362 . S
C503 H493 0.930 . S
C503 C496 1.409 . S
C503 C502 1.362 . S
H504 C510 0.930 . S
H505 C513 0.930 . S
H506 C514 0.930 . S
H507 C515 0.930 . S
H508 C518 0.930 . S
H509 C519 0.930 . S
C510 H504 0.930 . S
C510 C511 1.355 . S
C510 C512 1.415 . S
C511 C510 1.355 . S
C511 C513 1.419 . S
C512 C510 1.415 . S
C512 C517 1.425 . S
C512 C519 1.409 . S
C513 H505 0.930 . S
C513 C511 1.419 . S
C513 C514 1.362 . S
C514 H506 0.930 . S
C514 C513 1.362 . S
C514 C517 1.409 . S
C515 H507 0.930 . S
C515 C516 1.355 . S
C515 C517 1.415 . S
C516 C515 1.355 . S
C516 C518 1.419 . S
C517 C512 1.425 . S
C517 C514 1.409 . S
C517 C515 1.415 . S
C518 H508 0.930 . S
C518 C516 1.419 . S
C518 C519 1.362 . S
C519 H509 0.930 . S
C519 C512 1.409 . S
C519 C518 1.362 . S
H520 C526 0.930 . S
H521 C529 0.930 . S
H522 C530 0.930 . S
H523 C531 0.930 . S
H524 C534 0.930 . S
H525 C535 0.930 . S
C526 H520 0.930 . S
C526 C527 1.355 . S
C526 C528 1.415 . S
C527 C526 1.355 . S
C527 C529 1.419 1_455 S
C528 C526 1.415 . S
C528 C533 1.425 1_455 S
C528 C535 1.409 . S
C529 H521 0.930 . S
C529 C527 1.419 1_655 S
C529 C530 1.362 . S
C530 H522 0.930 . S
C530 C529 1.362 . S
C530 C533 1.409 . S
C531 H523 0.930 . S
C531 C532 1.355 1_655 S
C531 C533 1.415 . S
C532 C531 1.355 1_455 S
C532 C534 1.419 . S
C533 C528 1.425 1_655 S
C533 C530 1.409 . S
C533 C531 1.415 . S
C534 H524 0.930 . S
C534 C532 1.419 . S
C534 C535 1.362 . S
C535 H525 0.930 . S
C535 C528 1.409 . S
C535 C534 1.362 . S
H536 C542 0.930 . S
H537 C545 0.930 . S
H538 C546 0.930 . S
H539 C547 0.930 . S
H540 C550 0.930 . S
H541 C551 0.930 . S
C542 H536 0.930 . S
C542 C543 1.355 1_565 S
C542 C544 1.415 . S
C543 C542 1.355 1_545 S
C543 C545 1.419 . S
C544 C542 1.415 . S
C544 C549 1.425 1_565 S
C544 C551 1.409 1_554 S
C545 H537 0.930 . S
C545 C543 1.419 . S
C545 C546 1.362 . S
C546 H538 0.930 . S
C546 C545 1.362 . S
C546 C549 1.409 . S
C547 H539 0.930 . S
C547 C548 1.355 1_545 S
C547 C549 1.415 1_556 S
C548 C547 1.355 1_565 S
C548 C550 1.419 . S
C549 C544 1.425 1_545 S
C549 C546 1.409 . S
C549 C547 1.415 1_554 S
C550 H540 0.930 . S
C550 C548 1.419 . S
C550 C551 1.362 . S
C551 H541 0.930 . S
C551 C544 1.409 1_556 S
C551 C550 1.362 . S
H552 C558 0.930 . S
H553 C561 0.930 . S
H554 C562 0.930 . S
H555 C563 0.930 . S
H556 C566 0.930 . S
H557 C567 0.930 1_554 S
C558 H552 0.930 . S
C558 C559 1.355 . S
C558 C560 1.415 1_554 S
C559 C558 1.355 . S
C559 C561 1.419 1_554 S
C560 C558 1.415 1_556 S
C560 C565 1.425 . S
C560 C567 1.409 . S
C561 H553 0.930 . S
C561 C559 1.419 1_556 S
C561 C562 1.362 . S
C562 H554 0.930 . S
C562 C561 1.362 . S
C562 C565 1.409 . S
C563 H555 0.930 . S
C563 C564 1.355 . S
C563 C565 1.415 . S
C564 C563 1.355 . S
C564 C566 1.419 . S
C565 C560 1.425 . S
C565 C562 1.409 . S
C565 C563 1.415 . S
C566 H556 0.930 . S
C566 C564 1.419 . S
C566 C567 1.362 . S
C567 H557 0.930 1_556 S
C567 C560 1.409 . S
C567 C566 1.362 . S
H568 C574 0.930 . S
H569 C577 0.930 . S
H570 C578 0.930 . S
H571 C579 0.930 . S
H572 C582 0.930 . S
H573 C583 0.930 . S
C574 H568 0.930 . S
C574 C575 1.355 . S
C574 C576 1.415 . S
C575 C574 1.355 . S
C575 C577 1.419 . S
C576 C574 1.415 . S
C576 C581 1.425 . S
C576 C583 1.409 . S
C577 H569 0.930 . S
C577 C575 1.419 . S
C577 C578 1.362 . S
C578 H570 0.930 . S
C578 C577 1.362 . S
C578 C581 1.409 . S
C579 H571 0.930 . S
C579 C580 1.355 . S
C579 C581 1.415 . S
C580 C579 1.355 . S
C580 C582 1.419 . S
C581 C576 1.425 . S
C581 C578 1.409 . S
C581 C579 1.415 . S
C582 H572 0.930 . S
C582 C580 1.419 . S
C582 C583 1.362 . S
C583 H573 0.930 . S
C583 C576 1.409 . S
C583 C582 1.362 . S
H584 C590 0.930 . S
H585 C593 0.930 . S
H586 C594 0.930 . S
H587 C595 0.930 . S
H588 C598 0.931 . S
H589 C599 0.932 . S
C590 H584 0.930 . S
C590 C591 1.355 . S
C590 C592 1.415 . S
C591 C590 1.355 . S
C591 C593 1.419 . S
C592 C590 1.415 . S
C592 C597 1.425 . S
C592 C599 1.409 1_655 S
C593 H585 0.930 . S
C593 C591 1.419 . S
C593 C594 1.362 . S
C594 H586 0.930 . S
C594 C593 1.362 . S
C594 C597 1.409 . S
C595 H587 0.930 . S
C595 C596 1.355 . S
C595 C597 1.415 1_556 S
C596 C595 1.355 . S
C596 C598 1.415 1_655 S
C597 C592 1.425 . S
C597 C594 1.409 . S
C597 C595 1.415 1_554 S
C598 H588 0.931 . S
C598 C596 1.415 1_455 S
C598 C599 1.363 1_556 S
C599 H589 0.932 . S
C599 C592 1.409 1_455 S
C599 C598 1.363 1_554 S
H600 C606 0.930 . S
H601 C609 0.930 . S
H602 C610 0.930 . S
H603 C611 0.930 . S
H604 C614 0.930 . S
H605 C615 0.930 . S
C606 H600 0.930 . S
C606 C607 1.355 1_655 S
C606 C608 1.415 . S
C607 C606 1.355 1_455 S
C607 C609 1.419 . S
C608 C606 1.415 . S
C608 C613 1.425 . S
C608 C615 1.409 . S
C609 H601 0.930 . S
C609 C607 1.419 . S
C609 C610 1.362 . S
C610 H602 0.930 . S
C610 C609 1.362 . S
C610 C613 1.409 1_455 S
C611 H603 0.930 . S
C611 C612 1.355 . S
C611 C613 1.415 . S
C612 C611 1.355 . S
C612 C614 1.419 . S
C613 C608 1.425 . S
C613 C610 1.409 1_655 S
C613 C611 1.415 . S
C614 H604 0.930 . S
C614 C612 1.419 . S
C614 C615 1.362 . S
C615 H605 0.930 . S
C615 C608 1.409 . S
C615 C614 1.362 . S
H616 C622 0.930 . S
H617 C625 0.930 . S
H618 C626 0.930 . S
H619 C627 0.930 1_545 S
H620 C630 0.930 . S
H621 C631 0.930 . S
C622 H616 0.930 . S
C622 C623 1.355 1_565 S
C622 C624 1.415 . S
C623 C622 1.355 1_545 S
C623 C625 1.419 . S
C624 C622 1.415 . S
C624 C629 1.425 . S
C624 C631 1.409 . S
C625 H617 0.930 . S
C625 C623 1.419 . S
C625 C626 1.362 . S
C626 H618 0.930 . S
C626 C625 1.362 . S
C626 C629 1.409 1_545 S
C627 H619 0.930 1_565 S
C627 C628 1.355 . S
C627 C629 1.415 . S
C628 C627 1.355 . S
C628 C630 1.419 . S
C629 C624 1.425 . S
C629 C626 1.409 1_565 S
C629 C627 1.415 . S
C630 H620 0.930 . S
C630 C628 1.419 . S
C630 C631 1.362 . S
C631 H621 0.930 . S
C631 C624 1.409 . S
C631 C630 1.362 . S
H632 C638 0.930 . S
H633 C641 0.930 . S
H634 C642 0.930 . S
H635 C643 0.930 . S
H636 C646 0.930 . S
H637 C647 0.930 . S
C638 H632 0.930 . S
C638 C639 1.355 . S
C638 C640 1.415 . S
C639 C638 1.355 . S
C639 C641 1.419 . S
C640 C638 1.415 . S
C640 C645 1.425 . S
C640 C647 1.409 . S
C641 H633 0.930 . S
C641 C639 1.419 . S
C641 C642 1.362 . S
C642 H634 0.930 . S
C642 C641 1.362 . S
C642 C645 1.409 . S
C643 H635 0.930 . S
C643 C644 1.355 . S
C643 C645 1.415 . S
C644 C643 1.355 . S
C644 C646 1.419 . S
C645 C640 1.425 . S
C645 C642 1.409 . S
C645 C643 1.415 . S
C646 H636 0.930 . S
C646 C644 1.419 . S
C646 C647 1.362 . S
C647 H637 0.930 . S
C647 C640 1.409 . S
C647 C646 1.362 . S
H648 C654 0.930 . S
H649 C657 0.930 . S
H650 C658 0.930 . S
H651 C659 0.930 . S
H652 C662 0.930 . S
H653 C663 0.930 . S
C654 H648 0.930 . S
C654 C655 1.355 . S
C654 C656 1.415 . S
C655 C654 1.355 . S
C655 C657 1.419 . S
C656 C654 1.415 . S
C656 C661 1.425 . S
C656 C663 1.409 . S
C657 H649 0.930 . S
C657 C655 1.419 . S
C657 C658 1.362 . S
C658 H650 0.930 . S
C658 C657 1.362 . S
C658 C661 1.409 . S
C659 H651 0.930 . S
C659 C660 1.355 . S
C659 C661 1.415 . S
C660 C659 1.355 . S
C660 C662 1.419 . S
C661 C656 1.425 . S
C661 C658 1.409 . S
C661 C659 1.415 . S
C662 H652 0.930 . S
C662 C660 1.419 . S
C662 C663 1.362 . S
C663 H653 0.930 . S
C663 C656 1.409 . S
C663 C662 1.362 . S
H664 C670 0.930 . S
H665 C673 0.930 . S
H666 C674 0.930 . S
H667 C675 0.930 . S
H668 C678 0.930 . S
H669 C679 0.901 1_655 S
C670 H664 0.930 . S
C670 C671 1.355 . S
C670 C672 1.415 1_655 S
C671 C670 1.355 . S
C671 C673 1.419 1_655 S
C672 C670 1.415 1_455 S
C672 C677 1.425 . S
C672 C679 1.409 1_554 S
C673 H665 0.930 . S
C673 C671 1.419 1_455 S
C673 C674 1.362 . S
C674 H666 0.930 . S
C674 C673 1.362 . S
C674 C677 1.409 . S
C675 H667 0.930 . S
C675 C676 1.355 . S
C675 C677 1.415 . S
C676 C675 1.355 . S
C676 C678 1.419 1_554 S
C677 C672 1.425 . S
C677 C674 1.409 . S
C677 C675 1.415 . S
C678 H668 0.930 . S
C678 C676 1.419 1_556 S
C678 C679 1.362 . S
C679 H669 0.901 1_455 S
C679 C672 1.409 1_556 S
C679 C678 1.362 . S
H680 C686 0.930 . S
H681 C689 0.930 . S
H682 C690 0.930 . S
H683 C691 0.930 1_565 S
H684 C694 0.930 . S
H685 C695 0.930 . S
C686 H680 0.930 . S
C686 C687 1.355 1_545 S
C686 C688 1.415 . S
C687 C686 1.355 1_565 S
C687 C689 1.419 . S
C688 C686 1.415 . S
C688 C693 1.425 . S
C688 C695 1.409 1_554 S
C689 H681 0.930 . S
C689 C687 1.419 . S
C689 C690 1.362 . S
C690 H682 0.930 . S
C690 C689 1.362 . S
C690 C693 1.409 1_565 S
C691 H683 0.930 1_545 S
C691 C692 1.355 . S
C691 C693 1.415 . S
C692 C691 1.355 . S
C692 C694 1.419 1_554 S
C693 C688 1.425 . S
C693 C690 1.409 1_545 S
C693 C691 1.415 . S
C694 H684 0.930 . S
C694 C692 1.419 1_556 S
C694 C695 1.362 . S
C695 H685 0.930 . S
C695 C688 1.409 1_556 S
C695 C694 1.362 . S
H696 C702 0.930 . S
H697 C705 0.930 . S
H698 C706 0.930 . S
H699 C707 0.930 . S
H700 C710 0.930 . S
H701 C711 0.930 . S
C702 H696 0.930 . S
C702 C703 1.355 . S
C702 C704 1.415 . S
C703 C702 1.355 . S
C703 C705 1.419 . S
C704 C702 1.415 . S
C704 C709 1.425 . S
C704 C711 1.409 . S
C705 H697 0.930 . S
C705 C703 1.419 . S
C705 C706 1.362 . S
C706 H698 0.930 . S
C706 C705 1.362 . S
C706 C709 1.409 . S
C707 H699 0.930 . S
C707 C708 1.355 . S
C707 C709 1.415 . S
C708 C707 1.355 . S
C708 C710 1.419 . S
C709 C704 1.425 . S
C709 C706 1.409 . S
C709 C707 1.415 . S
C710 H700 0.930 . S
C710 C708 1.419 . S
C710 C711 1.362 . S
C711 H701 0.930 . S
C711 C704 1.409 . S
C711 C710 1.362 . S
H712 C718 0.930 . S
H713 C721 0.930 . S
H714 C722 0.930 . S
H715 C723 0.930 . S
H716 C726 0.930 . S
H717 C727 0.930 . S
C718 H712 0.930 . S
C718 C719 1.355 . S
C718 C720 1.415 . S
C719 C718 1.355 . S
C719 C721 1.419 . S
C720 C718 1.415 . S
C720 C725 1.425 . S
C720 C727 1.409 . S
C721 H713 0.930 . S
C721 C719 1.419 . S
C721 C722 1.362 . S
C722 H714 0.930 . S
C722 C721 1.362 . S
C722 C725 1.409 . S
C723 H715 0.930 . S
C723 C724 1.355 . S
C723 C725 1.415 . S
C724 C723 1.355 . S
C724 C726 1.419 . S
C725 C720 1.425 . S
C725 C722 1.409 . S
C725 C723 1.415 . S
C726 H716 0.930 . S
C726 C724 1.419 . S
C726 C727 1.362 . S
C727 H717 0.930 . S
C727 C720 1.409 . S
C727 C726 1.362 . S
H728 C734 0.930 . S
H729 C737 0.930 . S
H730 C738 0.930 . S
H731 C739 0.930 . S
H732 C742 0.930 . S
H733 C743 0.930 . S
C734 H728 0.930 . S
C734 C735 1.355 1_655 S
C734 C736 1.415 . S
C735 C734 1.355 1_455 S
C735 C737 1.419 . S
C736 C734 1.415 . S
C736 C741 1.425 1_655 S
C736 C743 1.409 . S
C737 H729 0.930 . S
C737 C735 1.419 . S
C737 C738 1.362 . S
C738 H730 0.930 . S
C738 C737 1.362 . S
C738 C741 1.409 . S
C739 H731 0.930 . S
C739 C740 1.355 . S
C739 C741 1.415 . S
C740 C739 1.355 . S
C740 C742 1.419 1_455 S
C741 C736 1.425 1_455 S
C741 C738 1.409 . S
C741 C739 1.415 . S
C742 H732 0.930 . S
C742 C740 1.419 1_655 S
C742 C743 1.362 . S
C743 H733 0.930 . S
C743 C736 1.409 . S
C743 C742 1.362 . S
H744 C750 0.930 . S
H745 C753 0.930 . S
H746 C754 0.930 . S
H747 C755 0.930 . S
H748 C758 0.930 . S
H749 C759 0.930 . S
C750 H744 0.930 . S
C750 C751 1.355 1_565 S
C750 C752 1.415 . S
C751 C750 1.355 1_545 S
C751 C753 1.419 . S
C752 C750 1.415 . S
C752 C757 1.425 1_565 S
C752 C759 1.409 . S
C753 H745 0.930 . S
C753 C751 1.419 . S
C753 C754 1.362 . S
C754 H746 0.930 . S
C754 C753 1.362 . S
C754 C757 1.409 . S
C755 H747 0.930 . S
C755 C756 1.355 . S
C755 C757 1.415 . S
C756 C755 1.355 . S
C756 C758 1.419 1_545 S
C757 C752 1.425 1_545 S
C757 C754 1.409 . S
C757 C755 1.415 . S
C758 H748 0.930 . S
C758 C756 1.419 1_565 S
C758 C759 1.362 . S
C759 H749 0.930 . S
C759 C752 1.409 . S
C759 C758 1.362 . S
H760 C766 0.930 . S
H761 C769 0.930 . S
H762 C770 0.930 . S
H763 C771 0.930 1_554 S
H764 C774 0.930 . S
H765 C775 0.930 . S
C766 H760 0.930 . S
C766 C767 1.355 1_556 S
C766 C768 1.415 . S
C767 C766 1.355 1_554 S
C767 C769 1.419 . S
C768 C766 1.415 . S
C768 C773 1.425 . S
C768 C775 1.409 . S
C769 H761 0.930 . S
C769 C767 1.419 . S
C769 C770 1.362 . S
C770 H762 0.930 . S
C770 C769 1.362 . S
C770 C773 1.409 1_554 S
C771 H763 0.930 1_556 S
C771 C772 1.355 . S
C771 C773 1.415 . S
C772 C771 1.355 . S
C772 C774 1.419 . S
C773 C768 1.425 . S
C773 C770 1.409 1_556 S
C773 C771 1.415 . S
C774 H764 0.930 . S
C774 C772 1.419 . S
C774 C775 1.362 . S
C775 H765 0.930 . S
C775 C768 1.409 . S
C775 C774 1.362 . S
H776 C782 0.930 . S
H777 C785 0.930 . S
H778 C786 0.930 . S
H779 C787 0.930 . S
H780 C790 0.930 . S
H781 C791 0.930 . S
C782 H776 0.930 . S
C782 C783 1.355 . S
C782 C784 1.415 . S
C783 C782 1.355 . S
C783 C785 1.419 . S
C784 C782 1.415 . S
C784 C789 1.425 . S
C784 C791 1.409 . S
C785 H777 0.930 . S
C785 C783 1.419 . S
C785 C786 1.362 . S
C786 H778 0.930 . S
C786 C785 1.362 . S
C786 C789 1.409 . S
C787 H779 0.930 . S
C787 C788 1.355 . S
C787 C789 1.415 . S
C788 C787 1.355 . S
C788 C790 1.419 . S
C789 C784 1.425 . S
C789 C786 1.409 . S
C789 C787 1.415 . S
C790 H780 0.930 . S
C790 C788 1.419 . S
C790 C791 1.362 . S
C791 H781 0.930 . S
C791 C784 1.409 . S
C791 C790 1.362 . S
H792 C798 0.930 . S
H793 C801 0.930 . S
H794 C802 0.930 . S
H795 C803 0.930 . S
H796 C806 0.930 . S
H797 C807 0.930 . S
C798 H792 0.930 . S
C798 C799 1.355 . S
C798 C800 1.415 . S
C799 C798 1.355 . S
C799 C801 1.419 1_655 S
C800 C798 1.415 . S
C800 C805 1.425 1_655 S
C800 C807 1.409 . S
C801 H793 0.930 . S
C801 C799 1.419 1_455 S
C801 C802 1.362 . S
C802 H794 0.930 . S
C802 C801 1.362 . S
C802 C805 1.409 . S
C803 H795 0.930 . S
C803 C804 1.355 1_455 S
C803 C805 1.415 . S
C804 C803 1.355 1_655 S
C804 C806 1.419 . S
C805 C800 1.425 1_455 S
C805 C802 1.409 . S
C805 C803 1.415 . S
C806 H796 0.930 . S
C806 C804 1.419 . S
C806 C807 1.362 . S
C807 H797 0.930 . S
C807 C800 1.409 . S
C807 C806 1.362 . S
H808 C814 0.930 . S
H809 C817 0.930 . S
H810 C818 0.930 . S
H811 C819 0.930 . S
H812 C822 0.930 . S
H813 C823 0.930 . S
C814 H808 0.930 . S
C814 C815 1.355 1_545 S
C814 C816 1.415 . S
C815 C814 1.355 1_565 S
C815 C817 1.419 . S
C816 C814 1.415 . S
C816 C821 1.425 1_545 S
C816 C823 1.409 . S
C817 H809 0.930 . S
C817 C815 1.419 . S
C817 C818 1.362 . S
C818 H810 0.930 . S
C818 C817 1.362 . S
C818 C821 1.409 . S
C819 H811 0.930 . S
C819 C820 1.355 . S
C819 C821 1.415 . S
C820 C819 1.355 . S
C820 C822 1.419 1_565 S
C821 C816 1.425 1_565 S
C821 C818 1.409 . S
C821 C819 1.415 . S
C822 H812 0.930 . S
C822 C820 1.419 1_545 S
C822 C823 1.362 . S
C823 H813 0.930 . S
C823 C816 1.409 . S
C823 C822 1.362 . S
H824 C830 0.930 . S
H825 C833 0.930 . S
H826 C834 0.930 . S
H827 C835 0.930 . S
H828 C838 0.930 . S
H829 C839 0.930 . S
C830 H824 0.930 . S
C830 C831 1.355 . S
C830 C832 1.415 . S
C831 C830 1.355 . S
C831 C833 1.419 . S
C832 C830 1.415 . S
C832 C837 1.425 . S
C832 C839 1.409 . S
C833 H825 0.930 . S
C833 C831 1.419 . S
C833 C834 1.362 . S
C834 H826 0.930 . S
C834 C833 1.362 . S
C834 C837 1.409 . S
C835 H827 0.930 . S
C835 C836 1.355 . S
C835 C837 1.415 . S
C836 C835 1.355 . S
C836 C838 1.419 . S
C837 C832 1.425 . S
C837 C834 1.409 . S
C837 C835 1.415 . S
C838 H828 0.930 . S
C838 C836 1.419 . S
C838 C839 1.362 . S
C839 H829 0.930 . S
C839 C832 1.409 . S
C839 C838 1.362 . S
H840 C846 0.930 . S
H841 C849 0.930 . S
H842 C850 0.930 . S
H843 C851 0.930 . S
H844 C854 0.930 . S
H845 C855 0.930 . S
C846 H840 0.930 . S
C846 C847 1.355 . S
C846 C848 1.415 . S
C847 C846 1.355 . S
C847 C849 1.419 . S
C848 C846 1.415 . S
C848 C853 1.425 . S
C848 C855 1.409 . S
C849 H841 0.930 . S
C849 C847 1.419 . S
C849 C850 1.362 . S
C850 H842 0.930 . S
C850 C849 1.362 . S
C850 C853 1.409 . S
C851 H843 0.930 . S
C851 C852 1.355 . S
C851 C853 1.415 . S
C852 C851 1.355 . S
C852 C854 1.419 . S
C853 C848 1.425 . S
C853 C850 1.409 . S
C853 C851 1.415 . S
C854 H844 0.930 . S
C854 C852 1.419 . S
C854 C855 1.362 . S
C855 H845 0.930 . S
C855 C848 1.409 . S
C855 C854 1.362 . S
C479 C255 2.150 1_545 S
C484 C314 2.271 . S
C500 C354 2.192 . S
C495 C294 2.122 . S
C516 C418 2.674 . S
C511 C177 2.567 . S
C532 C434 2.426 1_455 S
C527 C216 2.151 . S
C548 C335 2.303 1_565 S
C543 C99 2.191 1_545 S
C559 C138 2.070 . S
C564 C375 2.203 . S
C575 C21 2.578 . S
C580 C409 2.670 1_554 S
C591 C60 2.201 . S
C596 C455 2.433 1_655 S
C612 C329 0.581 . S
C607 C196 0.472 . S
C628 C369 0.752 . S
C623 C235 0.719 1_545 S
C644 C405 0.758 . S
C639 C289 0.748 . S
C655 C157 0.889 . S
C660 C449 0.875 . S
C671 C40 0.308 . S
C676 C338 0.398 . S
C692 C378 0.687 1_554 S
C687 C79 0.637 . S
C708 C416 0.725 . S
C703 C133 0.705 . S
C719 C1 0.737 . S
C724 C458 0.695 . S
C735 C211 2.683 . S
C740 C336 3.077 . S
C751 C250 2.545 . S
C756 C376 2.893 . S
C772 C394 2.038 . S
C767 C274 1.982 . S
C788 C456 3.526 . S
C783 C172 3.054 . S
C799 C55 2.710 . S
C804 C325 3.112 . S
C820 C365 2.910 . S
C815 C94 2.595 1_565 S
C836 C415 2.090 . S
C831 C118 2.024 . S
C847 C16 3.052 . S
C852 C445 3.529 . S
